# Generated by pormake.
# Topology vbm, (6)-cn, num edge types: 1
# Building blocks:
#     Node 0, Type 0, BuildingBlock: VOLQOD_clean_sbu_1, # of connection points: 6
#     Node 1, Type 0, BuildingBlock: VOLQOD_clean_sbu_1, # of connection points: 6
#     Node 2, Type 0, BuildingBlock: VOLQOD_clean_sbu_1, # of connection points: 6
#     Node 3, Type 0, BuildingBlock: VOLQOD_clean_sbu_1, # of connection points: 6
#     Node 4, Type 0, BuildingBlock: VOLQOD_clean_sbu_1, # of connection points: 6
#     Node 5, Type 0, BuildingBlock: VOLQOD_clean_sbu_1, # of connection points: 6
#     Node 6, Type 0, BuildingBlock: VOLQOD_clean_sbu_1, # of connection points: 6
#     Node 7, Type 0, BuildingBlock: VOLQOD_clean_sbu_1, # of connection points: 6
#     Node 8, Type 0, BuildingBlock: VOLQOD_clean_sbu_1, # of connection points: 6
#     Node 9, Type 0, BuildingBlock: VOLQOD_clean_sbu_1, # of connection points: 6
#     Node 10, Type 0, BuildingBlock: VOLQOD_clean_sbu_1, # of connection points: 6
#     Node 11, Type 0, BuildingBlock: VOLQOD_clean_sbu_1, # of connection points: 6
#     Node 12, Type 0, BuildingBlock: VOLQOD_clean_sbu_1, # of connection points: 6
#     Node 13, Type 0, BuildingBlock: VOLQOD_clean_sbu_1, # of connection points: 6
#     Node 14, Type 0, BuildingBlock: VOLQOD_clean_sbu_1, # of connection points: 6
#     Node 15, Type 0, BuildingBlock: VOLQOD_clean_sbu_1, # of connection points: 6
#     Edge 16, Type (0, 0), BuildingBlock: AJUNOK_clean_linker_0, # of connection points: 2
#     Edge 17, Type (0, 0), BuildingBlock: AJUNOK_clean_linker_0, # of connection points: 2
#     Edge 18, Type (0, 0), BuildingBlock: AJUNOK_clean_linker_0, # of connection points: 2
#     Edge 19, Type (0, 0), BuildingBlock: AJUNOK_clean_linker_0, # of connection points: 2
#     Edge 20, Type (0, 0), BuildingBlock: AJUNOK_clean_linker_0, # of connection points: 2
#     Edge 21, Type (0, 0), BuildingBlock: AJUNOK_clean_linker_0, # of connection points: 2
#     Edge 22, Type (0, 0), BuildingBlock: AJUNOK_clean_linker_0, # of connection points: 2
#     Edge 23, Type (0, 0), BuildingBlock: AJUNOK_clean_linker_0, # of connection points: 2
#     Edge 24, Type (0, 0), BuildingBlock: AJUNOK_clean_linker_0, # of connection points: 2
#     Edge 25, Type (0, 0), BuildingBlock: AJUNOK_clean_linker_0, # of connection points: 2
#     Edge 26, Type (0, 0), BuildingBlock: AJUNOK_clean_linker_0, # of connection points: 2
#     Edge 27, Type (0, 0), BuildingBlock: AJUNOK_clean_linker_0, # of connection points: 2
#     Edge 28, Type (0, 0), BuildingBlock: AJUNOK_clean_linker_0, # of connection points: 2
#     Edge 29, Type (0, 0), BuildingBlock: AJUNOK_clean_linker_0, # of connection points: 2
#     Edge 30, Type (0, 0), BuildingBlock: AJUNOK_clean_linker_0, # of connection points: 2
#     Edge 31, Type (0, 0), BuildingBlock: AJUNOK_clean_linker_0, # of connection points: 2
#     Edge 32, Type (0, 0), BuildingBlock: AJUNOK_clean_linker_0, # of connection points: 2
#     Edge 33, Type (0, 0), BuildingBlock: AJUNOK_clean_linker_0, # of connection points: 2
#     Edge 34, Type (0, 0), BuildingBlock: AJUNOK_clean_linker_0, # of connection points: 2
#     Edge 35, Type (0, 0), BuildingBlock: AJUNOK_clean_linker_0, # of connection points: 2
#     Edge 36, Type (0, 0), BuildingBlock: AJUNOK_clean_linker_0, # of connection points: 2
#     Edge 37, Type (0, 0), BuildingBlock: AJUNOK_clean_linker_0, # of connection points: 2
#     Edge 38, Type (0, 0), BuildingBlock: AJUNOK_clean_linker_0, # of connection points: 2
#     Edge 39, Type (0, 0), BuildingBlock: AJUNOK_clean_linker_0, # of connection points: 2
#     Edge 40, Type (0, 0), BuildingBlock: AJUNOK_clean_linker_0, # of connection points: 2
#     Edge 41, Type (0, 0), BuildingBlock: AJUNOK_clean_linker_0, # of connection points: 2
#     Edge 42, Type (0, 0), BuildingBlock: AJUNOK_clean_linker_0, # of connection points: 2
#     Edge 43, Type (0, 0), BuildingBlock: AJUNOK_clean_linker_0, # of connection points: 2
#     Edge 44, Type (0, 0), BuildingBlock: AJUNOK_clean_linker_0, # of connection points: 2
#     Edge 45, Type (0, 0), BuildingBlock: AJUNOK_clean_linker_0, # of connection points: 2
#     Edge 46, Type (0, 0), BuildingBlock: AJUNOK_clean_linker_0, # of connection points: 2
#     Edge 47, Type (0, 0), BuildingBlock: AJUNOK_clean_linker_0, # of connection points: 2
#     Edge 48, Type (0, 0), BuildingBlock: AJUNOK_clean_linker_0, # of connection points: 2
#     Edge 49, Type (0, 0), BuildingBlock: AJUNOK_clean_linker_0, # of connection points: 2
#     Edge 50, Type (0, 0), BuildingBlock: AJUNOK_clean_linker_0, # of connection points: 2
#     Edge 51, Type (0, 0), BuildingBlock: AJUNOK_clean_linker_0, # of connection points: 2
#     Edge 52, Type (0, 0), BuildingBlock: AJUNOK_clean_linker_0, # of connection points: 2
#     Edge 53, Type (0, 0), BuildingBlock: AJUNOK_clean_linker_0, # of connection points: 2
#     Edge 54, Type (0, 0), BuildingBlock: AJUNOK_clean_linker_0, # of connection points: 2
#     Edge 55, Type (0, 0), BuildingBlock: AJUNOK_clean_linker_0, # of connection points: 2
#     Edge 56, Type (0, 0), BuildingBlock: AJUNOK_clean_linker_0, # of connection points: 2
#     Edge 57, Type (0, 0), BuildingBlock: AJUNOK_clean_linker_0, # of connection points: 2
#     Edge 58, Type (0, 0), BuildingBlock: AJUNOK_clean_linker_0, # of connection points: 2
#     Edge 59, Type (0, 0), BuildingBlock: AJUNOK_clean_linker_0, # of connection points: 2
#     Edge 60, Type (0, 0), BuildingBlock: AJUNOK_clean_linker_0, # of connection points: 2
#     Edge 61, Type (0, 0), BuildingBlock: AJUNOK_clean_linker_0, # of connection points: 2
#     Edge 62, Type (0, 0), BuildingBlock: AJUNOK_clean_linker_0, # of connection points: 2
#     Edge 63, Type (0, 0), BuildingBlock: AJUNOK_clean_linker_0, # of connection points: 2
# Relax obj value: 0.099
# Max RMSD: 0.119
# Mean RMSD: 0.118
data_MOF--net-vbm--node1-VOLQOD_clean_sbu_1--edge1-AJUNOK_clean_linker_0
_symmetry_space_group_name_H-M    P1
_symmetry_Int_Tables_number       1
_symmetry_cell_setting            triclinic
loop_
_symmetry_equiv_pos_as_xyz
'x, y, z'
_cell_length_a     49.974623
_cell_length_b     12.981764
_cell_length_c     52.370982
_cell_angle_alpha  89.964764
_cell_angle_beta   90.077393
_cell_angle_gamma 90.034655
loop_
_atom_site_label
_atom_site_type_symbol
_atom_site_fract_x
_atom_site_fract_y
_atom_site_fract_z
_atom_type_partial_charge
O0 O 0.10746 0.27897 0.09425 0.0
Zn1 Zn 0.09893 0.12817 0.08878 0.0
O2 O 0.12192 0.04123 0.10969 0.0
Zn3 Zn 0.14898 0.97408 0.08839 0.0
Zn4 Zn 0.1389 0.12519 0.13544 0.0
Zn5 Zn 0.10084 0.94022 0.1274 0.0
O6 O 0.15055 0.81914 0.09582 0.0
O7 O 0.11368 0.80187 0.11932 0.0
O8 O 0.10532 0.09902 0.05181 0.0
O9 O 0.1386 0.98544 0.05132 0.0
O10 O 0.18463 0.05012 0.0931 0.0
O11 O 0.17808 0.12481 0.13079 0.0
O12 O 0.13002 0.08521 0.1714 0.0
O13 O 0.05981 0.09509 0.09516 0.0
O14 O 0.10328 0.95103 0.16551 0.0
O15 O 0.06269 0.94899 0.11721 0.0
C16 C 0.11998 0.32396 0.11229 0.0
C17 C 0.13358 0.76354 0.10777 0.0
C18 C 0.19302 0.10423 0.11186 0.0
C19 C 0.12107 0.03936 0.03981 0.0
C20 C 0.11559 0.01282 0.1802 0.0
C21 C 0.04895 0.01628 0.10542 0.0
O22 O 0.13079 0.27323 0.13028 0.0
O23 O 0.87691 0.68007 0.09721 0.0
Zn24 Zn 0.88453 0.83102 0.09182 0.0
O25 O 0.86206 0.91413 0.11418 0.0
Zn26 Zn 0.83414 0.98382 0.09414 0.0
Zn27 Zn 0.84647 0.82651 0.14014 0.0
Zn28 Zn 0.88364 0.01327 0.13195 0.0
O29 O 0.83402 0.13869 0.1012 0.0
O30 O 0.87114 0.15238 0.12448 0.0
O31 O 0.87584 0.86024 0.0552 0.0
O32 O 0.84206 0.97151 0.05658 0.0
O33 O 0.79814 0.91312 0.10067 0.0
O34 O 0.80724 0.82225 0.13565 0.0
O35 O 0.85485 0.86868 0.17627 0.0
O36 O 0.92393 0.86647 0.09643 0.0
O37 O 0.88179 0.00163 0.1699 0.0
O38 O 0.92134 0.00599 0.12092 0.0
C39 C 0.86584 0.63223 0.11562 0.0
C40 C 0.85142 0.19268 0.11304 0.0
C41 C 0.7909 0.85276 0.11867 0.0
C42 C 0.85902 0.91862 0.04412 0.0
C43 C 0.86925 0.94168 0.18484 0.0
C44 C 0.93481 0.94366 0.10741 0.0
O45 O 0.85608 0.67975 0.13466 0.0
O46 O 0.1029 0.68024 0.37731 0.0
Zn47 Zn 0.09464 0.83269 0.38195 0.0
O48 O 0.11789 0.91491 0.36005 0.0
Zn49 Zn 0.1462 0.98296 0.38004 0.0
Zn50 Zn 0.1333 0.82507 0.33466 0.0
Zn51 Zn 0.09687 0.01507 0.34201 0.0
O52 O 0.14615 0.13903 0.37387 0.0
O53 O 0.10908 0.15405 0.35051 0.0
O54 O 0.1016 0.8685 0.4186 0.0
O55 O 0.13825 0.96567 0.41746 0.0
O56 O 0.18234 0.91321 0.3735 0.0
O57 O 0.17191 0.80709 0.34165 0.0
O58 O 0.12746 0.87171 0.29843 0.0
O59 O 0.05539 0.86662 0.37587 0.0
O60 O 0.10022 0.00442 0.30406 0.0
O61 O 0.05868 0.00725 0.35183 0.0
C62 C 0.11245 0.63282 0.35804 0.0
C63 C 0.12865 0.19369 0.36235 0.0
C64 C 0.1886 0.8421 0.35774 0.0
C65 C 0.11972 0.92046 0.42983 0.0
C66 C 0.11345 0.94515 0.28949 0.0
C67 C 0.04479 0.94413 0.36478 0.0
O68 O 0.12081 0.68172 0.33862 0.0
O69 O 0.87148 0.2763 0.37996 0.0
Zn70 Zn 0.88041 0.12615 0.38502 0.0
O71 O 0.85747 0.04069 0.36388 0.0
Zn72 Zn 0.829 0.97722 0.38396 0.0
Zn73 Zn 0.84119 0.12442 0.33775 0.0
Zn74 Zn 0.87825 0.93734 0.34732 0.0
O75 O 0.82633 0.82136 0.3766 0.0
O76 O 0.86625 0.80092 0.35838 0.0
O77 O 0.87317 0.09556 0.42182 0.0
O78 O 0.83843 -0.01189 0.42135 0.0
O79 O 0.795 0.06279 0.37812 0.0
O80 O 0.80194 0.10613 0.33784 0.0
O81 O 0.85436 0.09199 0.30243 0.0
O82 O 0.91971 0.09467 0.37868 0.0
O83 O 0.8753 0.94377 0.30914 0.0
O84 O 0.9166 0.9492 0.35651 0.0
C85 C 0.85642 0.32248 0.36397 0.0
C86 C 0.8452 0.76385 0.3683 0.0
C87 C 0.78723 0.10673 0.35757 0.0
C88 C 0.85629 0.03878 0.43334 0.0
C89 C 0.86644 0.01263 0.29406 0.0
C90 C 0.9305 0.01647 0.36811 0.0
O91 O 0.84475 0.27395 0.34607 0.0
O92 O 0.8749 0.67891 0.84394 0.0
Zn93 Zn 0.88146 0.83296 0.83915 0.0
O94 O 0.85924 0.91306 0.86257 0.0
Zn95 Zn 0.83184 -0.00968 0.84379 0.0
Zn96 Zn 0.84288 0.8183 0.88576 0.0
Zn97 Zn 0.88008 0.0039 0.88359 0.0
O98 O 0.8325 0.14319 0.85303 0.0
O99 O 0.86918 0.14611 0.87713 0.0
O100 O 0.87269 0.87001 0.80262 0.0
O101 O 0.84095 -0.01098 0.8066 0.0
O102 O 0.79554 0.91742 0.84694 0.0
O103 O 0.80577 0.79513 0.8751 0.0
O104 O 0.84495 0.85809 0.92241 0.0
O105 O 0.92063 0.8714 0.84449 0.0
O106 O 0.87559 0.98155 0.92148 0.0
O107 O 0.91817 -0.00361 0.87358 0.0
C108 C 0.86699 0.63149 0.86389 0.0
C109 C 0.85026 0.19208 0.86573 0.0
C110 C 0.78953 0.83631 0.85955 0.0
C111 C 0.85683 0.93617 0.79293 0.0
C112 C 0.85986 0.92267 0.93378 0.0
C113 C 0.93153 0.94164 0.85806 0.0
O114 O 0.85816 0.67974 0.88313 0.0
O115 O 0.10282 0.28825 0.83843 0.0
Zn116 Zn 0.09467 0.13351 0.83532 0.0
O117 O 0.11736 0.05497 0.85861 0.0
Zn118 Zn 0.14613 0.98379 0.84019 0.0
Zn119 Zn 0.1318 0.15195 0.88226 0.0
Zn120 Zn 0.09698 0.95983 0.87881 0.0
O121 O 0.1455 0.82824 0.84766 0.0
O122 O 0.10816 0.81958 0.87072 0.0
O123 O 0.10172 0.08735 0.7992 0.0
O124 O 0.13854 -0.00793 0.80265 0.0
O125 O 0.18202 0.05745 0.84612 0.0
O126 O 0.16928 0.17781 0.87376 0.0
O127 O 0.12873 0.11181 0.91864 0.0
O128 O 0.05551 0.10056 0.84239 0.0
O129 O 0.10188 0.97619 0.9169 0.0
O130 O 0.0586 0.96947 0.86973 0.0
C131 C 0.10947 0.3369 0.85865 0.0
C132 C 0.12746 0.77644 0.85926 0.0
C133 C 0.18681 0.13812 0.85936 0.0
C134 C 0.12003 0.03226 0.78924 0.0
C135 C 0.1157 0.04057 0.92959 0.0
C136 C 0.04481 0.02882 0.85561 0.0
O137 O 0.11589 0.28893 0.87881 0.0
O138 O 0.87437 0.27602 0.63571 0.0
Zn139 Zn 0.88145 0.12218 0.63878 0.0
O140 O 0.8589 0.04572 0.61485 0.0
Zn141 Zn 0.83097 0.96913 0.63304 0.0
Zn142 Zn 0.84349 0.14415 0.5919 0.0
Zn143 Zn 0.87939 0.95414 0.5938 0.0
O144 O 0.83216 0.81576 0.62449 0.0
O145 O 0.86945 0.8119 0.60144 0.0
O146 O 0.87333 0.07952 0.67499 0.0
O147 O 0.83928 0.97051 0.67046 0.0
O148 O 0.79462 0.04035 0.62837 0.0
O149 O 0.80587 0.16557 0.60139 0.0
O150 O 0.84619 0.10706 0.55508 0.0
O151 O 0.92065 0.08741 0.63233 0.0
O152 O 0.87379 0.9736 0.55597 0.0
O153 O 0.91774 0.96501 0.6026 0.0
C154 C 0.86702 0.32678 0.61608 0.0
C155 C 0.85055 0.76615 0.61291 0.0
C156 C 0.78889 0.12182 0.61576 0.0
C157 C 0.85632 0.01699 0.68435 0.0
C158 C 0.85945 0.03759 0.54369 0.0
C159 C 0.93139 0.01958 0.61797 0.0
O160 O 0.85911 0.28219 0.59591 0.0
O161 O 0.10334 0.6816 0.63121 0.0
Zn162 Zn 0.09531 0.83473 0.63479 0.0
O163 O 0.11771 0.9132 0.61135 0.0
Zn164 Zn 0.1458 0.98625 0.63034 0.0
Zn165 Zn 0.13366 0.81946 0.58764 0.0
Zn166 Zn 0.09634 0.00521 0.5908 0.0
O167 O 0.14435 0.14025 0.62222 0.0
O168 O 0.10785 0.14716 0.59779 0.0
O169 O 0.10233 0.87897 0.67112 0.0
O170 O 0.1381 0.97966 0.66773 0.0
O171 O 0.18222 0.91617 0.62552 0.0
O172 O 0.17171 0.8036 0.59518 0.0
O173 O 0.13073 0.8617 0.55138 0.0
O174 O 0.05608 0.86628 0.62842 0.0
O175 O 0.09966 0.98319 0.55261 0.0
O176 O 0.05819 -0.00282 0.60102 0.0
C177 C 0.11164 0.63207 0.61173 0.0
C178 C 0.12672 0.19121 0.60982 0.0
C179 C 0.18849 0.84255 0.61052 0.0
C180 C 0.12009 0.93663 0.68113 0.0
C181 C 0.11566 0.92596 0.54017 0.0
C182 C 0.04489 0.93772 0.61552 0.0
O183 O 0.11975 0.67806 0.59178 0.0
O184 O 0.60243 0.79484 0.09218 0.0
Zn185 Zn 0.59525 0.64166 0.08882 0.0
O186 O 0.61949 0.5656 0.111 0.0
Zn187 Zn 0.64803 0.49896 0.09125 0.0
Zn188 Zn 0.63422 0.65731 0.13642 0.0
Zn189 Zn 0.59955 0.46365 0.12917 0.0
O190 O 0.6475 0.34195 0.09681 0.0
O191 O 0.60797 0.32612 0.11604 0.0
O192 O 0.60207 0.60243 0.05263 0.0
O193 O 0.64063 0.51691 0.05361 0.0
O194 O 0.684 0.5679 0.09896 0.0
O195 O 0.67355 0.66102 0.13314 0.0
O196 O 0.62542 0.6176 0.17275 0.0
O197 O 0.55638 0.60586 0.09565 0.0
O198 O 0.60692 0.46444 0.16654 0.0
O199 O 0.5607 0.48192 0.12463 0.0
C200 C 0.61441 0.84681 0.10942 0.0
C201 C 0.62801 0.28702 0.10487 0.0
C202 C 0.69056 0.62915 0.117 0.0
C203 C 0.62098 0.55535 0.04138 0.0
C204 C 0.61607 0.53325 0.1814 0.0
C205 C 0.54625 0.53913 0.11065 0.0
O206 O 0.62514 0.80326 0.12863 0.0
O207 O 0.37685 0.18689 0.09415 0.0
Zn208 Zn 0.38419 0.33936 0.08976 0.0
O209 O 0.36069 0.41855 0.11207 0.0
Zn210 Zn 0.33322 0.48913 0.09159 0.0
Zn211 Zn 0.34492 0.32729 0.13707 0.0
Zn212 Zn 0.38091 0.51581 0.13168 0.0
O213 O 0.33339 0.64428 0.09902 0.0
O214 O 0.3708 0.6556 0.12204 0.0
O215 O 0.37686 0.37242 0.0531 0.0
O216 O 0.34232 0.48 0.05417 0.0
O217 O 0.29714 0.41519 0.0965 0.0
O218 O 0.30639 0.31618 0.13007 0.0
O219 O 0.35005 0.36856 0.17388 0.0
O220 O 0.4232 0.37644 0.0962 0.0
O221 O 0.37479 0.50846 0.16921 0.0
O222 O 0.41955 0.50004 0.12543 0.0
C223 C 0.36642 0.13723 0.11263 0.0
C224 C 0.35142 0.69725 0.11033 0.0
C225 C 0.29019 0.34822 0.11316 0.0
C226 C 0.36006 0.4304 0.04186 0.0
C227 C 0.36235 0.44529 0.18336 0.0
C228 C 0.43363 0.44329 0.11103 0.0
O229 O 0.35668 0.18303 0.13193 0.0
O230 O 0.60859 0.20442 0.37785 0.0
Zn231 Zn 0.60048 0.35543 0.38275 0.0
O232 O 0.62384 0.43986 0.36159 0.0
Zn233 Zn 0.65141 0.5066 0.38269 0.0
Zn234 Zn 0.64027 0.35338 0.33602 0.0
Zn235 Zn 0.60296 0.54071 0.34342 0.0
O236 O 0.65207 0.66226 0.37612 0.0
O237 O 0.61592 0.67904 0.35151 0.0
O238 O 0.60766 0.38325 0.41966 0.0
O239 O 0.64229 0.49096 0.41995 0.0
O240 O 0.68743 0.43404 0.37691 0.0
O241 O 0.67946 0.3545 0.34009 0.0
O242 O 0.63137 0.39166 0.29998 0.0
O243 O 0.56135 0.39014 0.37628 0.0
O244 O 0.60557 0.52849 0.30535 0.0
O245 O 0.56461 0.53356 0.35323 0.0
C246 C 0.6213 0.15729 0.36034 0.0
C247 C 0.63536 0.71771 0.36376 0.0
C248 C 0.69525 0.37935 0.35806 0.0
C249 C 0.62453 0.4387 0.43157 0.0
C250 C 0.61747 0.46492 0.29086 0.0
C251 C 0.55067 0.46796 0.36537 0.0
O252 O 0.63213 0.20553 0.34195 0.0
O253 O 0.37857 0.79828 0.37982 0.0
Zn254 Zn 0.38652 0.64628 0.38392 0.0
O255 O 0.36259 0.56742 0.36203 0.0
Zn256 Zn 0.33419 0.49799 0.38155 0.0
Zn257 Zn 0.347 0.65877 0.33692 0.0
Zn258 Zn 0.3834 0.46635 0.34433 0.0
O259 O 0.33501 0.34181 0.37568 0.0
O260 O 0.3747 0.3283 0.35676 0.0
O261 O 0.37955 0.60779 0.42035 0.0
O262 O 0.34173 0.51691 0.41911 0.0
O263 O 0.29765 0.56311 0.37442 0.0
O264 O 0.3082 0.67478 0.34383 0.0
O265 O 0.35226 0.60927 0.3007 0.0
O266 O 0.42577 0.61413 0.37726 0.0
O267 O 0.37614 0.46715 0.30682 0.0
O268 O 0.42222 0.48163 0.3507 0.0
C269 C 0.36809 0.84844 0.3614 0.0
C270 C 0.35459 0.28795 0.36753 0.0
C271 C 0.29129 0.63546 0.35905 0.0
C272 C 0.36088 0.55847 0.43147 0.0
C273 C 0.36374 0.5288 0.29213 0.0
C274 C 0.43633 0.54202 0.36419 0.0
O275 O 0.35904 0.80329 0.34166 0.0
O276 O 0.37396 0.19486 0.8403 0.0
Zn277 Zn 0.38147 0.34885 0.83699 0.0
O278 O 0.35888 0.42579 0.8607 0.0
Zn279 Zn 0.33021 0.49908 0.84273 0.0
Zn280 Zn 0.34334 0.33022 0.88426 0.0
Zn281 Zn 0.37988 0.52162 0.88036 0.0
O282 O 0.3314 0.65271 0.85022 0.0
O283 O 0.37085 0.66278 0.86993 0.0
O284 O 0.37339 0.39369 0.80089 0.0
O285 O 0.33705 0.49087 0.8052 0.0
O286 O 0.29387 0.4318 0.84847 0.0
O287 O 0.30494 0.31145 0.87672 0.0
O288 O 0.34877 0.36813 0.92063 0.0
O289 O 0.42069 0.38208 0.84302 0.0
O290 O 0.37437 0.50772 0.91863 0.0
O291 O 0.41832 0.50809 0.87176 0.0
C292 C 0.36473 0.14472 0.85932 0.0
C293 C 0.35097 0.7048 0.8591 0.0
C294 C 0.28789 0.35388 0.86217 0.0
C295 C 0.35486 0.44903 0.79133 0.0
C296 C 0.36145 0.44083 0.93146 0.0
C297 C 0.43172 0.4513 0.85675 0.0
O298 O 0.35666 0.18994 0.87931 0.0
O299 O 0.60318 0.78613 0.84184 0.0
Zn300 Zn 0.59629 0.63328 0.83648 0.0
O301 O 0.61802 0.55216 0.86002 0.0
Zn302 Zn 0.64529 0.47289 0.84184 0.0
Zn303 Zn 0.63496 0.64504 0.88318 0.0
Zn304 Zn 0.59631 0.46479 0.88104 0.0
O305 O 0.64332 0.32086 0.8514 0.0
O306 O 0.60675 0.32077 0.8756 0.0
O307 O 0.60544 0.59627 0.80007 0.0
O308 O 0.63673 0.47556 0.80453 0.0
O309 O 0.68226 0.54093 0.84567 0.0
O310 O 0.67187 0.6683 0.87221 0.0
O311 O 0.63451 0.59932 0.91952 0.0
O312 O 0.55681 0.59895 0.84156 0.0
O313 O 0.60004 0.49219 0.91869 0.0
O314 O 0.55835 0.47456 0.87082 0.0
C315 C 0.61058 0.83275 0.86208 0.0
C316 C 0.6255 0.27339 0.86431 0.0
C317 C 0.6884 0.62341 0.85766 0.0
C318 C 0.62126 0.52949 0.79063 0.0
C319 C 0.61764 0.54269 0.93099 0.0
C320 C 0.54534 0.53078 0.85532 0.0
O321 O 0.6192 0.78394 0.88141 0.0
O322 O 0.37751 0.78639 0.63298 0.0
Zn323 Zn 0.38315 0.63185 0.63698 0.0
O324 O 0.35972 0.55811 0.61305 0.0
Zn325 Zn 0.33173 0.48281 0.63151 0.0
Zn326 Zn 0.34283 0.65164 0.58957 0.0
Zn327 Zn 0.38083 0.4662 0.5924 0.0
O328 O 0.33431 0.32901 0.62415 0.0
O329 O 0.37283 0.32363 0.60275 0.0
O330 O 0.37462 0.59116 0.67329 0.0
O331 O 0.33844 0.49311 0.66895 0.0
O332 O 0.29481 0.5467 0.62614 0.0
O333 O 0.30412 0.65638 0.5949 0.0
O334 O 0.34884 0.61963 0.55279 0.0
O335 O 0.42212 0.59342 0.63153 0.0
O336 O 0.37512 0.48237 0.55452 0.0
O337 O 0.41942 0.48387 0.59905 0.0
C338 C 0.36521 0.83782 0.61581 0.0
C339 C 0.35384 0.27916 0.61446 0.0
C340 C 0.28767 0.61628 0.61035 0.0
C341 C 0.35599 0.53645 0.68285 0.0
C342 C 0.36197 0.54874 0.5418 0.0
C343 C 0.43307 0.53319 0.61543 0.0
O344 O 0.35309 0.79433 0.59743 0.0
O345 O 0.60303 0.18679 0.63404 0.0
Zn346 Zn 0.59628 0.34116 0.63723 0.0
O347 O 0.61835 0.41605 0.61281 0.0
Zn348 Zn 0.64639 0.49371 0.6304 0.0
Zn349 Zn 0.63326 0.31597 0.59015 0.0
Zn350 Zn 0.59775 0.50541 0.59138 0.0
O351 O 0.64478 0.64677 0.62122 0.0
O352 O 0.60614 0.64877 0.60006 0.0
O353 O 0.6051 0.38379 0.67318 0.0
O354 O 0.63852 0.49493 0.66792 0.0
O355 O 0.68252 0.41998 0.62615 0.0
O356 O 0.67027 0.29016 0.6009 0.0
O357 O 0.6323 0.35512 0.55329 0.0
O358 O 0.55719 0.37812 0.63133 0.0
O359 O 0.6053 0.49031 0.55386 0.0
O360 O 0.55914 0.48566 0.59817 0.0
C361 C 0.60921 0.1356 0.61413 0.0
C362 C 0.62544 0.69551 0.61076 0.0
C363 C 0.68748 0.33464 0.61489 0.0
C364 C 0.62195 0.44777 0.68215 0.0
C365 C 0.61989 0.42679 0.54179 0.0
C366 C 0.54588 0.43657 0.61493 0.0
O367 O 0.61615 0.17998 0.5936 0.0
C368 C 0.23129 0.1873 0.13393 0.0
C369 C 0.21897 0.159 0.11083 0.0
C370 C 0.25342 0.25293 0.13438 0.0
C371 C 0.26416 0.29418 0.11176 0.0
H372 H 0.22359 0.15917 0.15198 0.0
H373 H 0.26239 0.27078 0.15271 0.0
S374 S 0.23933 0.24508 0.04611 0.0
N375 N 0.21898 0.17804 0.0646 0.0
N376 N 0.26099 0.30141 0.06546 0.0
C377 C 0.25206 0.26717 0.08844 0.0
C378 C 0.22949 0.19915 0.08796 0.0
C379 C 0.75283 0.77084 0.09513 0.0
C380 C 0.76429 0.80315 0.11835 0.0
C381 C 0.72975 0.70886 0.09476 0.0
C382 C 0.71723 0.6783 0.11761 0.0
H383 H 0.76215 0.79118 0.07715 0.0
H384 H 0.72126 0.68724 0.07649 0.0
S385 S 0.73926 0.74313 0.18336 0.0
N386 N 0.7614 0.79989 0.16468 0.0
N387 N 0.71801 0.68494 0.16399 0.0
C388 C 0.72849 0.71049 0.14089 0.0
C389 C 0.75198 0.77259 0.14126 0.0
C390 C 0.26325 0.79328 0.36162 0.0
C391 C 0.26478 0.68488 0.36053 0.0
C392 C 0.23853 0.84446 0.36158 0.0
C393 C 0.21458 0.78876 0.35978 0.0
H394 H 0.28137 0.8389 0.36251 0.0
H395 H 0.23821 0.92788 0.36217 0.0
S396 S 0.20762 0.50383 0.35774 0.0
N397 N 0.24027 0.52368 0.35895 0.0
N398 N 0.19371 0.61924 0.35807 0.0
C399 C 0.21581 0.68019 0.35919 0.0
C400 C 0.24096 0.62826 0.35982 0.0
C401 C 0.75091 0.20398 0.38061 0.0
C402 C 0.76351 0.17627 0.35753 0.0
C403 C 0.73016 0.27715 0.38112 0.0
C404 C 0.72124 0.32518 0.35858 0.0
H405 H 0.75709 0.16904 0.39845 0.0
H406 H 0.72021 0.29249 0.39909 0.0
S407 S 0.74839 0.28652 0.29345 0.0
N408 N 0.76595 0.20765 0.31162 0.0
N409 N 0.72735 0.34477 0.3129 0.0
C410 C 0.73416 0.30089 0.33559 0.0
C411 C 0.7551 0.22647 0.33496 0.0
C412 C 0.71548 0.78316 0.85397 0.0
C413 C 0.71448 0.67443 0.85412 0.0
C414 C 0.7399 0.83614 0.85422 0.0
C415 C 0.76408 0.78193 0.85517 0.0
H416 H 0.69717 0.82782 0.85434 0.0
H417 H 0.73981 0.91954 0.855 0.0
S418 S 0.77253 0.4976 0.85322 0.0
N419 N 0.73978 0.515 0.85301 0.0
N420 N 0.78584 0.61406 0.85395 0.0
C421 C 0.76341 0.67332 0.85401 0.0
C422 C 0.73854 0.61955 0.85332 0.0
C423 C 0.26103 0.19348 0.85861 0.0
C424 C 0.26184 0.30208 0.85925 0.0
C425 C 0.23673 0.13991 0.8574 0.0
C426 C 0.21243 0.1935 0.85722 0.0
H427 H 0.27939 0.14948 0.85913 0.0
H428 H 0.23694 0.05646 0.8576 0.0
S429 S 0.20364 0.47784 0.85635 0.0
N430 N 0.23639 0.46106 0.85772 0.0
N431 N 0.19049 0.3611 0.85589 0.0
C432 C 0.21297 0.30223 0.85686 0.0
C433 C 0.23775 0.35651 0.8577 0.0
C434 C 0.73734 0.3351 0.61775 0.0
C435 C 0.71314 0.28086 0.61862 0.0
C436 C 0.76176 0.28224 0.61754 0.0
C437 C 0.7628 0.1736 0.61871 0.0
H438 H 0.73739 0.41828 0.61602 0.0
H439 H 0.78002 0.3269 0.616 0.0
S440 S 0.70488 -0.00282 0.62424 0.0
N441 N 0.69152 0.11336 0.62272 0.0
N442 N 0.7376 0.01461 0.6228 0.0
C443 C 0.73879 0.11898 0.62115 0.0
C444 C 0.7139 0.17256 0.62094 0.0
C445 C 0.22646 0.75946 0.58859 0.0
C446 C 0.21483 0.79235 0.61159 0.0
C447 C 0.24925 0.69745 0.58851 0.0
C448 C 0.261 0.66393 0.61144 0.0
H449 H 0.21775 0.78159 0.57043 0.0
H450 H 0.25797 0.67645 0.57031 0.0
S451 S 0.23787 0.72623 0.67687 0.0
N452 N 0.21633 0.78568 0.65795 0.0
N453 N 0.25942 0.66789 0.65784 0.0
C454 C 0.24943 0.69492 0.63465 0.0
C455 C 0.22634 0.75985 0.63472 0.0
C456 C 0.11486 0.8808 0.2446 0.0
C457 C 0.11311 0.96397 0.2617 0.0
C458 C 0.11491 0.89718 0.21815 0.0
C459 C 0.11399 -0.00259 0.20799 0.0
H460 H 0.116 0.8025 0.2517 0.0
H461 H 0.11636 0.83112 0.20559 0.0
S462 S 0.10916 0.24096 0.2445 0.0
N463 N 0.10994 0.15004 0.26657 0.0
N464 N 0.11093 0.18059 0.21682 0.0
C465 C 0.11228 0.08112 0.22483 0.0
C466 C 0.11157 0.06444 0.25172 0.0
C467 C 0.86803 0.89606 0.25627 0.0
C468 C 0.86883 -0.00333 0.26626 0.0
C469 C 0.86834 0.8787 0.22988 0.0
C470 C 0.87017 0.96117 0.21258 0.0
H471 H 0.86635 0.83027 0.26891 0.0
H472 H 0.86713 0.80017 0.22297 0.0
S473 S 0.87376 0.239 0.22902 0.0
N474 N 0.87195 0.17968 0.25686 0.0
N475 N 0.87325 0.14707 0.20725 0.0
C476 C 0.87168 0.06202 0.22233 0.0
C477 C 0.8708 0.07978 0.24918 0.0
C478 C 0.85751 0.07612 0.72957 0.0
C479 C 0.85685 -0.00504 0.71188 0.0
C480 C 0.85723 0.05624 0.75588 0.0
C481 C 0.85721 0.95462 0.76523 0.0
H482 H 0.8577 0.15533 0.72303 0.0
H483 H 0.85736 0.12075 0.769 0.0
S484 S 0.85649 0.71566 0.72665 0.0
N485 N 0.85631 0.8096 0.70535 0.0
N486 N 0.85699 0.77232 0.75488 0.0
C487 C 0.85714 0.87294 0.74772 0.0
C488 C 0.85662 0.89314 0.72098 0.0
C489 C 0.14349 -0.00161 0.74815 0.0
C490 C 0.11938 0.01017 0.76162 0.0
C491 C 0.14351 0.97423 0.7221 0.0
C492 C 0.11942 0.95817 0.70877 0.0
H493 H 0.16252 0.00896 0.75775 0.0
H494 H 0.16255 0.96714 0.71238 0.0
S495 S 0.05088 0.97787 0.73541 0.0
N496 N 0.07077 0.00373 0.7598 0.0
N497 N 0.07082 0.95567 0.7109 0.0
C498 C 0.09516 0.96848 0.72207 0.0
C499 C 0.09513 -0.00463 0.74848 0.0
C500 C 0.614 0.57978 0.2528 0.0
C501 C 0.61623 0.47975 0.26295 0.0
C502 C 0.6142 0.59665 0.22638 0.0
C503 C 0.61603 0.51387 0.20919 0.0
H504 H 0.61267 0.64585 0.26537 0.0
H505 H 0.61267 0.67499 0.21939 0.0
S506 S 0.62159 0.23682 0.22609 0.0
N507 N 0.62007 0.29678 0.25384 0.0
N508 N 0.61989 0.32801 0.20416 0.0
C509 C 0.61785 0.41327 0.2191 0.0
C510 C 0.61812 0.39634 0.24598 0.0
C511 C 0.36317 0.58613 0.24667 0.0
C512 C 0.36258 0.50562 0.26458 0.0
C513 C 0.36316 0.56555 0.22043 0.0
C514 C 0.36188 0.46385 0.21117 0.0
H515 H 0.36423 0.66552 0.25297 0.0
H516 H 0.36398 0.62997 0.20729 0.0
S517 S 0.35872 0.22598 0.25029 0.0
N518 N 0.36008 0.32042 0.27136 0.0
N519 N 0.35936 0.28194 0.22197 0.0
C520 C 0.36063 0.38273 0.22888 0.0
C521 C 0.36121 0.40357 0.25561 0.0
C522 C 0.37893 0.47896 0.75027 0.0
C523 C 0.35465 0.46982 0.76364 0.0
C524 C 0.37925 0.50388 0.72423 0.0
C525 C 0.35528 0.51806 0.7106 0.0
H526 H 0.39783 0.46846 0.76008 0.0
H527 H 0.39836 0.50982 0.71459 0.0
S528 S 0.28645 0.5023 0.73671 0.0
N529 N 0.30606 0.47782 0.76138 0.0
N530 N 0.30668 0.52192 0.71228 0.0
C531 C 0.33089 0.50863 0.72369 0.0
C532 C 0.33056 0.48528 0.75027 0.0
C533 C 0.62111 0.40937 0.75367 0.0
C534 C 0.62119 0.51104 0.76294 0.0
C535 C 0.62095 0.3893 0.7274 0.0
C536 C 0.62177 0.47028 0.70964 0.0
H537 H 0.6208 0.34494 0.76684 0.0
H538 H 0.62063 0.31002 0.72094 0.0
S539 S 0.62242 0.7497 0.72418 0.0
N540 N 0.62173 0.69328 0.75246 0.0
N541 N 0.62259 0.65559 0.70296 0.0
C542 C 0.62213 0.57219 0.71865 0.0
C543 C 0.6215 0.59261 0.74537 0.0
C544 C 0.11425 0.12832 0.97155 0.0
C545 C 0.11613 0.03616 0.95762 0.0
C546 C 0.11545 0.12806 -0.00179 0.0
C547 C 0.11939 0.03599 0.01179 0.0
H548 H 0.11165 0.20122 0.96176 0.0
H549 H 0.11382 0.20078 0.00824 0.0
S550 S 0.12556 0.77411 0.9842 0.0
N551 N 0.12161 0.85028 0.95918 0.0
N552 N 0.12493 0.8501 0.0095 0.0
C553 C 0.12142 0.9432 -0.00189 0.0
C554 C 0.11946 0.94318 0.97094 0.0
C555 C 0.85993 0.83152 0.97542 0.0
C556 C 0.85968 0.92492 0.96184 0.0
C557 C 0.85999 0.83046 0.00212 0.0
C558 C 0.85892 0.92268 0.01608 0.0
H559 H 0.86052 0.75872 0.96531 0.0
H560 H 0.86051 0.75694 0.01193 0.0
S561 S 0.85748 0.18738 -0.01045 0.0
N562 N 0.85855 0.11185 0.96417 0.0
N563 N 0.85745 0.10974 0.01458 0.0
C564 C 0.85827 0.01661 0.00278 0.0
C565 C 0.85901 0.01777 0.97555 0.0
C566 C 0.09449 0.93149 0.47084 0.0
C567 C 0.11916 0.92796 0.45791 0.0
C568 C 0.09343 0.93537 0.49757 0.0
C569 C 0.117 0.93291 0.51217 0.0
H570 H 0.07587 0.93122 0.46021 0.0
H571 H 0.07408 0.93666 0.50687 0.0
S572 S 0.18655 0.92665 0.48763 0.0
N573 N 0.16765 0.92611 0.46174 0.0
N574 N 0.16562 0.92992 0.512 0.0
C575 C 0.14176 0.93072 0.49951 0.0
C576 C 0.14286 0.92924 0.47235 0.0
C577 C 0.86052 0.12722 0.50185 0.0
C578 C 0.85884 0.03456 0.51563 0.0
C579 C 0.86003 0.12743 0.47514 0.0
C580 C 0.85698 0.03531 0.46139 0.0
H581 H 0.86261 0.20001 0.51178 0.0
H582 H 0.86161 0.2004 0.46519 0.0
S583 S 0.85129 0.77251 0.48852 0.0
N584 N 0.85426 0.84833 0.51371 0.0
N585 N 0.85217 0.84917 0.46333 0.0
C586 C 0.85493 0.94221 0.47491 0.0
C587 C 0.85622 0.9417 0.50212 0.0
C588 C 0.64342 0.55578 -0.00107 0.0
C589 C 0.61995 0.54545 0.01341 0.0
C590 C 0.64251 0.55367 0.97221 0.0
C591 C 0.6182 0.53852 0.95913 0.0
H592 H 0.66248 0.56873 0.00828 0.0
H593 H 0.66098 0.56433 0.96172 0.0
S594 S 0.55143 0.50005 -0.01146 0.0
N595 N 0.57193 0.51536 0.013 0.0
N596 N 0.57027 0.50873 0.96275 0.0
C597 C 0.59473 0.52431 0.97347 0.0
C598 C 0.59559 0.52861 0.00064 0.0
C599 C 0.36587 0.34999 0.97286 0.0
C600 C 0.36203 0.44282 0.95953 0.0
C601 C 0.36564 0.34736 -0.00046 0.0
C602 C 0.36076 0.43695 0.01381 0.0
H603 H 0.36923 0.27878 0.96256 0.0
H604 H 0.36874 0.27417 0.00906 0.0
S605 S 0.34952 0.69947 -0.01199 0.0
N606 N 0.35373 0.62684 0.96242 0.0
N607 N 0.35226 0.62135 0.01281 0.0
C608 C 0.35681 0.53038 0.00075 0.0
C609 C 0.35777 0.53351 0.97352 0.0
C610 C 0.62125 0.34473 0.47268 0.0
C611 C 0.62393 0.43867 0.45961 0.0
C612 C 0.6205 0.34174 0.49937 0.0
C613 C 0.62155 0.43286 0.5138 0.0
H614 H 0.62004 0.2729 0.4622 0.0
H615 H 0.61853 0.2677 0.50875 0.0
S616 S 0.62824 0.69851 0.48856 0.0
N617 N 0.62795 0.62474 0.46285 0.0
N618 N 0.62538 0.61959 0.51318 0.0
C619 C 0.62398 0.52745 0.50095 0.0
C620 C 0.62552 0.53022 0.47377 0.0
C621 C 0.33825 0.56654 0.50023 0.0
C622 C 0.36194 0.54473 0.51372 0.0
C623 C 0.33787 0.56772 0.4735 0.0
C624 C 0.36136 0.55036 0.45946 0.0
H625 H 0.31987 0.58266 0.51043 0.0
H626 H 0.31928 0.5853 0.46377 0.0
S627 S 0.42839 0.48847 0.48568 0.0
N628 N 0.40922 0.50234 0.51112 0.0
N629 N 0.40874 0.50854 0.46078 0.0
C630 C 0.38513 0.52795 0.47269 0.0
C631 C 0.38535 0.52397 0.49988 0.0
C632 C 0.98183 0.88111 0.10398 0.0
C633 C 0.96367 0.96337 0.10455 0.0
C634 C 0.00944 0.89936 0.10387 0.0
C635 C 0.01979 0.00041 0.10374 0.0
H636 H 0.97471 0.8023 0.10458 0.0
H637 H 0.0228 0.83366 0.10409 0.0
S638 S 0.98037 0.24209 0.10289 0.0
N639 N 0.95772 0.14947 0.10353 0.0
N640 N 0.00968 0.18345 0.1028 0.0
C641 C 0.00179 0.08323 0.10315 0.0
C642 C 0.9737 0.06474 0.10372 0.0
C643 C 0.97008 0.89999 0.36901 0.0
C644 C 0.95972 0.00098 0.36917 0.0
C645 C -0.00231 0.88184 0.36838 0.0
C646 C 0.01587 0.96409 0.36731 0.0
H647 H 0.95672 0.83422 0.36923 0.0
H648 H 0.00479 0.80302 0.36795 0.0
S649 S -0.00087 0.24282 0.36859 0.0
N650 N 0.96983 0.18402 0.3694 0.0
N651 N 0.02178 0.15033 0.3677 0.0
C652 C 0.00582 0.06548 0.36801 0.0
C653 C 0.97773 0.08385 0.36912 0.0
C654 C 0.00644 0.90692 0.8544 0.0
C655 C 0.01584 0.00931 0.85404 0.0
C656 C 0.97901 0.88495 0.85462 0.0
C657 C 0.96016 0.9648 0.8552 0.0
H658 H 0.02044 0.84319 0.85469 0.0
H659 H 0.97255 0.8053 0.8553 0.0
S660 S 0.97433 0.24542 0.8532 0.0
N661 N 0.00417 0.19078 0.8529 0.0
N662 N 0.9525 0.1499 0.85414 0.0
C663 C 0.96925 0.06742 0.85426 0.0
C664 C -0.00284 0.08965 0.85343 0.0
C665 C 0.97878 0.07916 0.61855 0.0
C666 C 0.96019 -0.00155 0.61972 0.0
C667 C 0.00626 0.05839 0.61738 0.0
C668 C 0.01596 0.95646 0.61803 0.0
H669 H 0.97203 0.15836 0.61757 0.0
H670 H 0.02002 0.12263 0.61586 0.0
S671 S 0.97523 0.71889 0.62304 0.0
N672 N 0.95312 0.8134 0.62259 0.0
N673 N 0.00488 0.77472 0.62123 0.0
C674 C -0.00243 0.87547 0.62031 0.0
C675 C 0.96961 0.89645 0.62091 0.0
C676 C 0.47624 0.47785 0.08791 0.0
C677 C 0.46261 0.46123 0.11101 0.0
C678 C 0.50319 0.50826 0.08788 0.0
C679 C 0.51729 0.52065 0.11092 0.0
H680 H 0.46584 0.46993 0.06985 0.0
H681 H 0.51322 0.51958 0.06976 0.0
S682 S 0.4906 0.48461 0.17631 0.0
N683 N 0.46498 0.45972 0.15734 0.0
N684 N 0.51585 0.51319 0.15726 0.0
C685 C 0.5039 0.50308 0.13405 0.0
C686 C 0.47647 0.47429 0.1341 0.0
C687 C 0.48362 0.60422 0.36671 0.0
C688 C 0.46534 0.52225 0.36577 0.0
C689 C 0.51125 0.58561 0.3668 0.0
C690 C 0.52149 0.48442 0.36665 0.0
H691 H 0.47655 0.68311 0.36665 0.0
H692 H 0.52471 0.65107 0.36697 0.0
S693 S 0.48179 0.24325 0.36608 0.0
N694 N 0.45924 0.33615 0.36577 0.0
N695 N 0.51116 0.30156 0.36657 0.0
C696 C 0.50338 0.40187 0.36663 0.0
C697 C 0.4753 0.42073 0.366 0.0
C698 C 0.47898 0.39095 0.8549 0.0
C699 C 0.4605 0.47202 0.85423 0.0
C700 C 0.50651 0.4111 0.85475 0.0
C701 C 0.51636 0.51267 0.85319 0.0
H702 H 0.47215 0.31198 0.85648 0.0
H703 H 0.52022 0.34667 0.85609 0.0
S704 S 0.47589 0.75087 0.84878 0.0
N705 N 0.45364 0.65704 0.85069 0.0
N706 N 0.5055 0.69439 0.84957 0.0
C707 C 0.49804 0.59396 0.8513 0.0
C708 C 0.47003 0.5737 0.85208 0.0
C709 C 0.47575 0.49744 0.59314 0.0
C710 C 0.46203 0.51362 0.61619 0.0
C711 C 0.50277 0.47004 0.59302 0.0
C712 C 0.51687 0.45511 0.61595 0.0
H713 H 0.46553 0.50648 0.57501 0.0
H714 H 0.5127 0.46029 0.5748 0.0
S715 S 0.48992 0.48551 0.68145 0.0
N716 N 0.46432 0.51208 0.66256 0.0
N717 N 0.51524 0.45826 0.66235 0.0
C718 C 0.50334 0.46963 0.63918 0.0
C719 C 0.47589 0.49983 0.63929 0.0
C720 C 0.13071 0.59388 0.08617 0.0
C721 C 0.13566 0.65113 0.1084 0.0
C722 C 0.12519 0.48799 0.08758 0.0
C723 C 0.12464 0.43633 0.11126 0.0
H724 H 0.12972 0.63207 0.06779 0.0
H725 H 0.12125 0.44651 0.07003 0.0
S726 S 0.13711 0.55352 0.17485 0.0
N727 N 0.14015 0.65001 0.15451 0.0
N728 N 0.13033 0.45108 0.15732 0.0
C729 C 0.1304 0.49292 0.13351 0.0
C730 C 0.13577 0.60037 0.13203 0.0
C731 C 0.85438 0.35716 0.13627 0.0
C732 C 0.85044 0.30535 0.11303 0.0
C733 C 0.85952 0.46284 0.13684 0.0
C734 C 0.86161 0.52002 0.11414 0.0
H735 H 0.8542 0.31492 0.15414 0.0
H736 H 0.86246 0.49957 0.15521 0.0
S737 S 0.85226 0.41986 0.04831 0.0
N738 N 0.84824 0.31799 0.06685 0.0
N739 N 0.85827 0.51757 0.06771 0.0
C740 C 0.85728 0.46926 0.09072 0.0
C741 C 0.85152 0.36162 0.09022 0.0
C742 C 0.1229 0.36197 0.38415 0.0
C743 C 0.12994 0.30633 0.3622 0.0
C744 C 0.11674 0.46737 0.38264 0.0
C745 C 0.11737 0.52017 0.35911 0.0
H746 H 0.12091 0.32281 0.40232 0.0
H747 H 0.11132 0.50741 0.40002 0.0
S748 S 0.13562 0.40674 0.29629 0.0
N749 N 0.13786 0.3099 0.3166 0.0
N750 N 0.12656 0.50734 0.31346 0.0
C751 C 0.12509 0.46478 0.33715 0.0
C752 C 0.1313 0.35804 0.33878 0.0
C753 C 0.87098 0.49586 0.37879 0.0
C754 C 0.85158 0.43421 0.36687 0.0
C755 C 0.86764 0.6024 0.38062 0.0
C756 C 0.84457 0.65121 0.37107 0.0
H757 H 0.88938 0.46223 0.38591 0.0
H758 H 0.88374 0.64768 0.38881 0.0
S759 S 0.7863 0.52363 0.34096 0.0
N760 N 0.80726 0.42861 0.34732 0.0
N761 N 0.80112 0.63001 0.35103 0.0
C762 C 0.82426 0.59037 0.36047 0.0
C763 C 0.82777 0.4815 0.35824 0.0
C764 C 0.84919 0.36073 0.84292 0.0
C765 C 0.85125 0.30514 0.86587 0.0
C766 C 0.85564 0.466 0.84203 0.0
C767 C 0.86406 0.5186 0.86412 0.0
H768 H 0.84353 0.32193 0.82541 0.0
H769 H 0.85353 0.50678 0.82408 0.0
S770 S 0.87181 0.40737 0.92902 0.0
N771 N 0.86173 0.31004 0.91117 0.0
N772 N 0.87359 0.5074 0.90962 0.0
C773 C 0.86574 0.46375 0.88722 0.0
C774 C 0.85935 0.35716 0.88807 0.0
C775 C 0.12019 0.50255 0.8359 0.0
C776 C 0.11361 0.4499 0.85859 0.0
C777 C 0.12695 0.60781 0.83625 0.0
C778 C 0.12725 0.66326 0.85929 0.0
H779 H 0.12034 0.46212 0.81781 0.0
H780 H 0.13084 0.64687 0.81835 0.0
S781 S 0.11241 0.56202 0.92391 0.0
N782 N 0.10839 0.46226 0.90478 0.0
N783 N 0.12124 0.65853 0.90523 0.0
C784 C 0.12129 0.61122 0.88205 0.0
C785 C 0.11438 0.50504 0.88176 0.0
C786 C 0.86421 0.60108 0.5934 0.0
C787 C 0.85213 0.65303 0.61393 0.0
C788 C 0.86991 0.49612 0.59477 0.0
C789 C 0.86422 0.43929 0.6169 0.0
H790 H 0.86949 0.64217 0.5761 0.0
H791 H 0.8788 0.45895 0.57831 0.0
S792 S 0.83185 0.53745 0.67569 0.0
N793 N 0.8341 0.63944 0.65691 0.0
N794 N 0.845 0.44071 0.65952 0.0
C795 C 0.85203 0.48963 0.63759 0.0
C796 C 0.84582 0.59682 0.63605 0.0
C797 C 0.11691 0.35773 0.58886 0.0
C798 C 0.12597 0.30446 0.61059 0.0
C799 C 0.11167 0.46324 0.58971 0.0
C800 C 0.11474 0.5193 0.61246 0.0
H801 H 0.11353 0.31712 0.57107 0.0
H802 H 0.10499 0.50118 0.5724 0.0
S803 S 0.1384 0.41642 0.6746 0.0
N804 N 0.13824 0.31536 0.65543 0.0
N805 N 0.12812 0.51481 0.65713 0.0
C806 C 0.12393 0.46736 0.63436 0.0
C807 C 0.12973 0.35969 0.63337 0.0
C808 C 0.64076 0.00687 0.11795 0.0
C809 C 0.6186 0.95894 0.1061 0.0
C810 C 0.64523 0.11309 0.11566 0.0
C811 C 0.6276 0.17488 0.10161 0.0
H812 H 0.65463 0.96226 0.12938 0.0
H813 H 0.66171 0.14772 0.12604 0.0
S814 S 0.56763 0.08839 0.06582 0.0
N815 N 0.57977 0.98188 0.07863 0.0
N816 N 0.58791 0.18201 0.0749 0.0
C817 C 0.60596 0.12802 0.08899 0.0
C818 C 0.60155 0.01984 0.09103 0.0
C819 C 0.35602 0.86175 0.13327 0.0
C820 C 0.35114 0.81013 0.11017 0.0
C821 C 0.36138 0.96722 0.13373 0.0
C822 C 0.36268 0.02473 0.11102 0.0
H823 H 0.35627 0.81957 0.15114 0.0
H824 H 0.36493 0.00371 0.15203 0.0
S825 S 0.35088 0.92535 0.04549 0.0
N826 N 0.34739 0.82329 0.06407 0.0
N827 N 0.35774 0.02276 0.06474 0.0
C828 C 0.35754 0.97419 0.08772 0.0
C829 C 0.3516 0.86656 0.08735 0.0
C830 C 0.62998 -0.01159 0.33963 0.0
C831 C 0.62584 0.04522 0.36212 0.0
C832 C 0.63505 0.88268 0.34052 0.0
C833 C 0.63687 0.83038 0.36394 0.0
H834 H 0.6286 0.02536 0.32111 0.0
H835 H 0.63672 0.84071 0.32271 0.0
S836 S 0.62957 0.944 0.42836 0.0
N837 N 0.62524 0.04202 0.40863 0.0
N838 N 0.63514 0.8424 0.41014 0.0
C839 C 0.63389 0.88639 0.38662 0.0
C840 C 0.6282 -0.00591 0.38575 0.0
C841 C 0.38117 0.02099 0.37842 0.0
C842 C 0.36341 0.96017 0.36411 0.0
C843 C 0.37714 0.12727 0.38077 0.0
C844 C 0.35478 0.1755 0.36964 0.0
H845 H 0.39875 0.98692 0.38712 0.0
H846 H 0.39205 0.17275 0.39074 0.0
S847 S 0.30123 0.05014 0.33204 0.0
N848 N 0.32183 0.95553 0.33968 0.0
N849 N 0.31415 0.15527 0.34485 0.0
C850 C 0.33623 0.11533 0.35634 0.0
C851 C 0.3406 0.00754 0.35336 0.0
C852 C 0.37396 0.86212 0.84397 0.0
C853 C 0.35185 0.81668 0.85622 0.0
C854 C 0.37774 0.96905 0.84424 0.0
C855 C 0.35998 0.03293 0.85758 0.0
H856 H 0.38873 0.81428 0.83456 0.0
H857 H 0.39513 0.00134 0.83485 0.0
S858 S 0.2985 0.95019 0.892 0.0
N859 N 0.31147 0.84221 0.8809 0.0
N860 N 0.31879 0.043 0.88247 0.0
C861 C 0.33745 -0.01207 0.86947 0.0
C862 C 0.33331 0.87961 0.86853 0.0
C863 C 0.62763 0.10465 0.84173 0.0
C864 C 0.62423 0.16032 0.8645 0.0
C865 C 0.62189 -0.00108 0.8407 0.0
C866 C 0.61297 0.9457 0.86251 0.0
H867 H 0.63391 0.14361 0.82444 0.0
H868 H 0.62501 0.95824 0.82289 0.0
S869 S 0.60143 0.05666 0.9268 0.0
N870 N 0.6116 0.15492 0.90929 0.0
N871 N 0.60129 0.95619 0.90748 0.0
C872 C 0.60984 0.00052 0.88542 0.0
C873 C 0.61537 0.10785 0.88638 0.0
C874 C 0.33784 -0.00395 0.61078 0.0
C875 C 0.36229 0.95014 0.61802 0.0
C876 C 0.33459 0.10308 0.61095 0.0
C877 C 0.3559 0.16733 0.61781 0.0
H878 H 0.32113 0.9488 0.60467 0.0
H879 H 0.31576 0.13572 0.60463 0.0
S880 S 0.42322 0.086 0.64001 0.0
N881 N 0.40742 0.97691 0.63388 0.0
N882 N 0.40167 0.17887 0.63349 0.0
C883 C 0.38014 0.12259 0.62589 0.0
C884 C 0.38325 0.01359 0.62623 0.0
C885 C 0.61041 0.86041 0.59184 0.0
C886 C 0.62361 0.80871 0.61184 0.0
C887 C 0.60494 0.9656 0.59327 0.0
C888 C 0.61194 0.02293 0.61498 0.0
H889 H 0.60415 0.81902 0.57488 0.0
H890 H 0.5952 0.00255 0.57719 0.0
S891 S 0.6475 0.92554 0.67228 0.0
N892 N 0.6441 0.82315 0.65382 0.0
N893 N 0.63354 0.02209 0.65661 0.0
C894 C 0.62522 0.97279 0.63514 0.0
C895 C 0.63123 0.86542 0.6335 0.0
loop_
_geom_bond_atom_site_label_1
_geom_bond_atom_site_label_2
_geom_bond_distance
_geom_bond_site_symmetry_2
_ccdc_geom_bond_type
O0 Zn1 1.953 . S
O0 C16 1.225 . S
Zn1 O0 1.953 . S
Zn1 O2 1.949 . S
Zn1 O8 1.919 . S
Zn1 O13 1.924 . S
O2 Zn1 1.949 . S
O2 Zn3 1.923 1_545 S
O2 Zn4 1.950 . S
O2 Zn5 1.945 1_545 S
Zn3 O2 1.923 1_565 S
Zn3 O6 1.933 . S
Zn3 O9 1.940 1_565 S
Zn3 O10 1.965 1_565 S
Zn4 O2 1.950 . S
Zn4 O11 1.938 . S
Zn4 O12 1.906 . S
Zn4 O22 1.953 . S
Zn5 O2 1.945 1_565 S
Zn5 O7 1.932 . S
Zn5 O14 1.977 . S
Zn5 O15 1.910 . S
O6 Zn3 1.933 . S
O6 C17 1.226 . S
O7 Zn5 1.932 . S
O7 C17 1.307 . S
O8 Zn1 1.919 . S
O8 C19 1.253 . S
O9 Zn3 1.940 1_545 S
O9 C19 1.286 . S
O10 Zn3 1.965 1_545 S
O10 C18 1.303 . S
O11 Zn4 1.938 . S
O11 C18 1.247 . S
O12 Zn4 1.906 . S
O12 C20 1.304 . S
O13 Zn1 1.924 . S
O13 C21 1.311 . S
O14 Zn5 1.977 . S
O14 C20 1.272 1_565 S
O15 Zn5 1.910 . S
O15 C21 1.231 1_565 S
C16 O0 1.225 . S
C16 O22 1.298 . S
C17 O6 1.226 . S
C17 O7 1.307 . S
C18 O10 1.303 . S
C18 O11 1.247 . S
C19 O8 1.253 . S
C19 O9 1.286 . S
C20 O12 1.304 . S
C20 O14 1.272 1_545 S
C21 O13 1.311 . S
C21 O15 1.231 1_545 S
O22 Zn4 1.953 . S
O22 C16 1.298 . S
O23 Zn24 1.953 . S
O23 C39 1.225 . S
Zn24 O23 1.953 . S
Zn24 O25 1.949 . S
Zn24 O31 1.919 . S
Zn24 O36 1.924 . S
O25 Zn24 1.949 . S
O25 Zn26 1.923 1_565 S
O25 Zn27 1.950 . S
O25 Zn28 1.945 1_565 S
Zn26 O25 1.923 1_545 S
Zn26 O29 1.933 . S
Zn26 O32 1.940 1_545 S
Zn26 O33 1.965 1_545 S
Zn27 O25 1.950 . S
Zn27 O34 1.938 . S
Zn27 O35 1.906 . S
Zn27 O45 1.953 . S
Zn28 O25 1.945 1_545 S
Zn28 O30 1.932 . S
Zn28 O37 1.977 . S
Zn28 O38 1.910 . S
O29 Zn26 1.933 . S
O29 C40 1.226 . S
O30 Zn28 1.932 . S
O30 C40 1.307 . S
O31 Zn24 1.919 . S
O31 C42 1.253 . S
O32 Zn26 1.940 1_565 S
O32 C42 1.286 . S
O33 Zn26 1.965 1_565 S
O33 C41 1.303 . S
O34 Zn27 1.938 . S
O34 C41 1.247 . S
O35 Zn27 1.906 . S
O35 C43 1.304 . S
O36 Zn24 1.924 . S
O36 C44 1.311 . S
O37 Zn28 1.977 . S
O37 C43 1.272 1_545 S
O38 Zn28 1.910 . S
O38 C44 1.231 1_545 S
C39 O23 1.225 . S
C39 O45 1.298 . S
C40 O29 1.226 . S
C40 O30 1.307 . S
C41 O33 1.303 . S
C41 O34 1.247 . S
C42 O31 1.253 . S
C42 O32 1.286 . S
C43 O35 1.304 . S
C43 O37 1.272 1_565 S
C44 O36 1.311 . S
C44 O38 1.231 1_565 S
O45 Zn27 1.953 . S
O45 C39 1.298 . S
O46 Zn47 1.953 . S
O46 C62 1.225 . S
Zn47 O46 1.953 . S
Zn47 O48 1.949 . S
Zn47 O54 1.919 . S
Zn47 O59 1.924 . S
O48 Zn47 1.949 . S
O48 Zn49 1.923 1_565 S
O48 Zn50 1.950 . S
O48 Zn51 1.945 1_565 S
Zn49 O48 1.923 1_545 S
Zn49 O52 1.933 . S
Zn49 O55 1.940 1_545 S
Zn49 O56 1.965 1_545 S
Zn50 O48 1.950 . S
Zn50 O57 1.938 . S
Zn50 O58 1.906 . S
Zn50 O68 1.953 . S
Zn51 O48 1.945 1_545 S
Zn51 O53 1.932 . S
Zn51 O60 1.977 . S
Zn51 O61 1.910 . S
O52 Zn49 1.933 . S
O52 C63 1.226 . S
O53 Zn51 1.932 . S
O53 C63 1.307 . S
O54 Zn47 1.919 . S
O54 C65 1.253 . S
O55 Zn49 1.940 1_565 S
O55 C65 1.286 . S
O56 Zn49 1.965 1_565 S
O56 C64 1.303 . S
O57 Zn50 1.938 . S
O57 C64 1.247 . S
O58 Zn50 1.906 . S
O58 C66 1.304 . S
O59 Zn47 1.924 . S
O59 C67 1.311 . S
O60 Zn51 1.977 . S
O60 C66 1.272 1_545 S
O61 Zn51 1.910 . S
O61 C67 1.231 1_545 S
C62 O46 1.225 . S
C62 O68 1.298 . S
C63 O52 1.226 . S
C63 O53 1.307 . S
C64 O56 1.303 . S
C64 O57 1.247 . S
C65 O54 1.253 . S
C65 O55 1.286 . S
C66 O58 1.304 . S
C66 O60 1.272 1_565 S
C67 O59 1.311 . S
C67 O61 1.231 1_565 S
O68 Zn50 1.953 . S
O68 C62 1.298 . S
O69 Zn70 1.953 . S
O69 C85 1.225 . S
Zn70 O69 1.953 . S
Zn70 O71 1.949 . S
Zn70 O77 1.919 . S
Zn70 O82 1.924 . S
O71 Zn70 1.949 . S
O71 Zn72 1.923 1_545 S
O71 Zn73 1.950 . S
O71 Zn74 1.945 1_545 S
Zn72 O71 1.923 1_565 S
Zn72 O75 1.933 . S
Zn72 O78 1.940 1_565 S
Zn72 O79 1.965 1_565 S
Zn73 O71 1.950 . S
Zn73 O80 1.938 . S
Zn73 O81 1.906 . S
Zn73 O91 1.953 . S
Zn74 O71 1.945 1_565 S
Zn74 O76 1.932 . S
Zn74 O83 1.977 . S
Zn74 O84 1.910 . S
O75 Zn72 1.933 . S
O75 C86 1.226 . S
O76 Zn74 1.932 . S
O76 C86 1.307 . S
O77 Zn70 1.919 . S
O77 C88 1.253 . S
O78 Zn72 1.940 1_545 S
O78 C88 1.286 . S
O79 Zn72 1.965 1_545 S
O79 C87 1.303 . S
O80 Zn73 1.938 . S
O80 C87 1.247 . S
O81 Zn73 1.906 . S
O81 C89 1.304 . S
O82 Zn70 1.924 . S
O82 C90 1.311 . S
O83 Zn74 1.977 . S
O83 C89 1.272 1_565 S
O84 Zn74 1.910 . S
O84 C90 1.231 1_565 S
C85 O69 1.225 . S
C85 O91 1.298 . S
C86 O75 1.226 . S
C86 O76 1.307 . S
C87 O79 1.303 . S
C87 O80 1.247 . S
C88 O77 1.253 . S
C88 O78 1.286 . S
C89 O81 1.304 . S
C89 O83 1.272 1_545 S
C90 O82 1.311 . S
C90 O84 1.231 1_545 S
O91 Zn73 1.953 . S
O91 C85 1.298 . S
O92 Zn93 1.953 . S
O92 C108 1.225 . S
Zn93 O92 1.953 . S
Zn93 O94 1.949 . S
Zn93 O100 1.919 . S
Zn93 O105 1.924 . S
O94 Zn93 1.949 . S
O94 Zn95 1.923 1_565 S
O94 Zn96 1.950 . S
O94 Zn97 1.945 1_565 S
Zn95 O94 1.923 1_545 S
Zn95 O98 1.933 . S
Zn95 O101 1.941 . S
Zn95 O102 1.965 1_545 S
Zn96 O94 1.950 . S
Zn96 O103 1.938 . S
Zn96 O104 1.906 . S
Zn96 O114 1.953 . S
Zn97 O94 1.945 1_545 S
Zn97 O99 1.932 . S
Zn97 O106 1.977 . S
Zn97 O107 1.910 . S
O98 Zn95 1.933 . S
O98 C109 1.226 . S
O99 Zn97 1.932 . S
O99 C109 1.307 . S
O100 Zn93 1.919 . S
O100 C111 1.253 . S
O101 Zn95 1.941 . S
O101 C111 1.283 1_545 S
O102 Zn95 1.965 1_565 S
O102 C110 1.303 . S
O103 Zn96 1.938 . S
O103 C110 1.247 . S
O104 Zn96 1.906 . S
O104 C112 1.304 . S
O105 Zn93 1.924 . S
O105 C113 1.311 . S
O106 Zn97 1.977 . S
O106 C112 1.272 1_545 S
O107 Zn97 1.910 . S
O107 C113 1.231 1_545 S
C108 O92 1.225 . S
C108 O114 1.298 . S
C109 O98 1.226 . S
C109 O99 1.307 . S
C110 O102 1.303 . S
C110 O103 1.247 . S
C111 O100 1.253 . S
C111 O101 1.283 1_565 S
C112 O104 1.304 . S
C112 O106 1.272 1_565 S
C113 O105 1.311 . S
C113 O107 1.231 1_565 S
O114 Zn96 1.953 . S
O114 C108 1.298 . S
O115 Zn116 1.953 . S
O115 C131 1.225 . S
Zn116 O115 1.953 . S
Zn116 O117 1.949 . S
Zn116 O123 1.919 . S
Zn116 O128 1.924 . S
O117 Zn116 1.949 . S
O117 Zn118 1.923 1_545 S
O117 Zn119 1.950 . S
O117 Zn120 1.945 1_545 S
Zn118 O117 1.923 1_565 S
Zn118 O121 1.933 . S
Zn118 O124 1.941 . S
Zn118 O125 1.965 1_565 S
Zn119 O117 1.950 . S
Zn119 O126 1.938 . S
Zn119 O127 1.906 . S
Zn119 O137 1.953 . S
Zn120 O117 1.945 1_565 S
Zn120 O122 1.932 . S
Zn120 O129 1.977 . S
Zn120 O130 1.910 . S
O121 Zn118 1.933 . S
O121 C132 1.226 . S
O122 Zn120 1.932 . S
O122 C132 1.307 . S
O123 Zn116 1.919 . S
O123 C134 1.253 . S
O124 Zn118 1.941 . S
O124 C134 1.283 1_565 S
O125 Zn118 1.965 1_545 S
O125 C133 1.303 . S
O126 Zn119 1.938 . S
O126 C133 1.247 . S
O127 Zn119 1.906 . S
O127 C135 1.304 . S
O128 Zn116 1.924 . S
O128 C136 1.311 . S
O129 Zn120 1.977 . S
O129 C135 1.272 1_565 S
O130 Zn120 1.910 . S
O130 C136 1.231 1_565 S
C131 O115 1.225 . S
C131 O137 1.298 . S
C132 O121 1.226 . S
C132 O122 1.307 . S
C133 O125 1.303 . S
C133 O126 1.247 . S
C134 O123 1.253 . S
C134 O124 1.283 1_545 S
C135 O127 1.304 . S
C135 O129 1.272 1_545 S
C136 O128 1.311 . S
C136 O130 1.231 1_545 S
O137 Zn119 1.953 . S
O137 C131 1.298 . S
O138 Zn139 1.953 . S
O138 C154 1.225 . S
Zn139 O138 1.953 . S
Zn139 O140 1.949 . S
Zn139 O146 1.919 . S
Zn139 O151 1.924 . S
O140 Zn139 1.949 . S
O140 Zn141 1.923 1_545 S
O140 Zn142 1.950 . S
O140 Zn143 1.945 1_545 S
Zn141 O140 1.923 1_565 S
Zn141 O144 1.933 . S
Zn141 O147 1.941 . S
Zn141 O148 1.965 1_565 S
Zn142 O140 1.950 . S
Zn142 O149 1.938 . S
Zn142 O150 1.906 . S
Zn142 O160 1.953 . S
Zn143 O140 1.945 1_565 S
Zn143 O145 1.932 . S
Zn143 O152 1.977 . S
Zn143 O153 1.910 . S
O144 Zn141 1.933 . S
O144 C155 1.226 . S
O145 Zn143 1.932 . S
O145 C155 1.307 . S
O146 Zn139 1.919 . S
O146 C157 1.253 . S
O147 Zn141 1.941 . S
O147 C157 1.283 1_565 S
O148 Zn141 1.965 1_545 S
O148 C156 1.303 . S
O149 Zn142 1.938 . S
O149 C156 1.247 . S
O150 Zn142 1.906 . S
O150 C158 1.304 . S
O151 Zn139 1.924 . S
O151 C159 1.311 . S
O152 Zn143 1.977 . S
O152 C158 1.272 1_565 S
O153 Zn143 1.910 . S
O153 C159 1.231 1_565 S
C154 O138 1.225 . S
C154 O160 1.298 . S
C155 O144 1.226 . S
C155 O145 1.307 . S
C156 O148 1.303 . S
C156 O149 1.247 . S
C157 O146 1.253 . S
C157 O147 1.283 1_545 S
C158 O150 1.304 . S
C158 O152 1.272 1_545 S
C159 O151 1.311 . S
C159 O153 1.231 1_545 S
O160 Zn142 1.953 . S
O160 C154 1.298 . S
O161 Zn162 1.953 . S
O161 C177 1.225 . S
Zn162 O161 1.953 . S
Zn162 O163 1.949 . S
Zn162 O169 1.919 . S
Zn162 O174 1.924 . S
O163 Zn162 1.949 . S
O163 Zn164 1.923 1_565 S
O163 Zn165 1.950 . S
O163 Zn166 1.945 1_565 S
Zn164 O163 1.923 1_545 S
Zn164 O167 1.933 . S
Zn164 O170 1.941 . S
Zn164 O171 1.965 1_545 S
Zn165 O163 1.950 . S
Zn165 O172 1.938 . S
Zn165 O173 1.906 . S
Zn165 O183 1.953 . S
Zn166 O163 1.945 1_545 S
Zn166 O168 1.932 . S
Zn166 O175 1.977 . S
Zn166 O176 1.910 . S
O167 Zn164 1.933 . S
O167 C178 1.226 . S
O168 Zn166 1.932 . S
O168 C178 1.307 . S
O169 Zn162 1.919 . S
O169 C180 1.253 . S
O170 Zn164 1.941 . S
O170 C180 1.283 1_545 S
O171 Zn164 1.965 1_565 S
O171 C179 1.303 . S
O172 Zn165 1.938 . S
O172 C179 1.247 . S
O173 Zn165 1.906 . S
O173 C181 1.304 . S
O174 Zn162 1.924 . S
O174 C182 1.311 . S
O175 Zn166 1.977 . S
O175 C181 1.272 1_545 S
O176 Zn166 1.910 . S
O176 C182 1.231 1_545 S
C177 O161 1.225 . S
C177 O183 1.298 . S
C178 O167 1.226 . S
C178 O168 1.307 . S
C179 O171 1.303 . S
C179 O172 1.247 . S
C180 O169 1.253 . S
C180 O170 1.283 1_565 S
C181 O173 1.304 . S
C181 O175 1.272 1_565 S
C182 O174 1.311 . S
C182 O176 1.231 1_565 S
O183 Zn165 1.953 . S
O183 C177 1.298 . S
O184 Zn185 1.953 . S
O184 C200 1.225 . S
Zn185 O184 1.953 . S
Zn185 O186 1.949 . S
Zn185 O192 1.919 . S
Zn185 O197 1.924 . S
O186 Zn185 1.949 . S
O186 Zn187 1.923 . S
O186 Zn188 1.950 . S
O186 Zn189 1.945 . S
Zn187 O186 1.923 . S
Zn187 O190 1.933 . S
Zn187 O193 1.941 . S
Zn187 O194 1.965 . S
Zn188 O186 1.950 . S
Zn188 O195 1.938 . S
Zn188 O196 1.906 . S
Zn188 O206 1.953 . S
Zn189 O186 1.945 . S
Zn189 O191 1.932 . S
Zn189 O198 1.977 . S
Zn189 O199 1.910 . S
O190 Zn187 1.933 . S
O190 C201 1.226 . S
O191 Zn189 1.932 . S
O191 C201 1.307 . S
O192 Zn185 1.919 . S
O192 C203 1.253 . S
O193 Zn187 1.941 . S
O193 C203 1.283 . S
O194 Zn187 1.965 . S
O194 C202 1.303 . S
O195 Zn188 1.938 . S
O195 C202 1.247 . S
O196 Zn188 1.906 . S
O196 C204 1.304 . S
O197 Zn185 1.924 . S
O197 C205 1.311 . S
O198 Zn189 1.977 . S
O198 C204 1.272 . S
O199 Zn189 1.910 . S
O199 C205 1.231 . S
C200 O184 1.225 . S
C200 O206 1.298 . S
C201 O190 1.226 . S
C201 O191 1.307 . S
C202 O194 1.303 . S
C202 O195 1.247 . S
C203 O192 1.253 . S
C203 O193 1.283 . S
C204 O196 1.304 . S
C204 O198 1.272 . S
C205 O197 1.311 . S
C205 O199 1.231 . S
O206 Zn188 1.953 . S
O206 C200 1.298 . S
O207 Zn208 1.953 . S
O207 C223 1.225 . S
Zn208 O207 1.953 . S
Zn208 O209 1.949 . S
Zn208 O215 1.919 . S
Zn208 O220 1.924 . S
O209 Zn208 1.949 . S
O209 Zn210 1.923 . S
O209 Zn211 1.950 . S
O209 Zn212 1.945 . S
Zn210 O209 1.923 . S
Zn210 O213 1.933 . S
Zn210 O216 1.941 . S
Zn210 O217 1.965 . S
Zn211 O209 1.950 . S
Zn211 O218 1.938 . S
Zn211 O219 1.906 . S
Zn211 O229 1.953 . S
Zn212 O209 1.945 . S
Zn212 O214 1.932 . S
Zn212 O221 1.977 . S
Zn212 O222 1.910 . S
O213 Zn210 1.933 . S
O213 C224 1.226 . S
O214 Zn212 1.932 . S
O214 C224 1.307 . S
O215 Zn208 1.919 . S
O215 C226 1.253 . S
O216 Zn210 1.941 . S
O216 C226 1.283 . S
O217 Zn210 1.965 . S
O217 C225 1.303 . S
O218 Zn211 1.938 . S
O218 C225 1.247 . S
O219 Zn211 1.906 . S
O219 C227 1.304 . S
O220 Zn208 1.924 . S
O220 C228 1.311 . S
O221 Zn212 1.977 . S
O221 C227 1.272 . S
O222 Zn212 1.910 . S
O222 C228 1.231 . S
C223 O207 1.225 . S
C223 O229 1.298 . S
C224 O213 1.226 . S
C224 O214 1.307 . S
C225 O217 1.303 . S
C225 O218 1.247 . S
C226 O215 1.253 . S
C226 O216 1.283 . S
C227 O219 1.304 . S
C227 O221 1.272 . S
C228 O220 1.311 . S
C228 O222 1.231 . S
O229 Zn211 1.953 . S
O229 C223 1.298 . S
O230 Zn231 1.953 . S
O230 C246 1.225 . S
Zn231 O230 1.953 . S
Zn231 O232 1.949 . S
Zn231 O238 1.919 . S
Zn231 O243 1.924 . S
O232 Zn231 1.949 . S
O232 Zn233 1.923 . S
O232 Zn234 1.950 . S
O232 Zn235 1.945 . S
Zn233 O232 1.923 . S
Zn233 O236 1.933 . S
Zn233 O239 1.941 . S
Zn233 O240 1.965 . S
Zn234 O232 1.950 . S
Zn234 O241 1.938 . S
Zn234 O242 1.906 . S
Zn234 O252 1.953 . S
Zn235 O232 1.945 . S
Zn235 O237 1.932 . S
Zn235 O244 1.977 . S
Zn235 O245 1.910 . S
O236 Zn233 1.933 . S
O236 C247 1.226 . S
O237 Zn235 1.932 . S
O237 C247 1.307 . S
O238 Zn231 1.919 . S
O238 C249 1.253 . S
O239 Zn233 1.941 . S
O239 C249 1.283 . S
O240 Zn233 1.965 . S
O240 C248 1.303 . S
O241 Zn234 1.938 . S
O241 C248 1.247 . S
O242 Zn234 1.906 . S
O242 C250 1.304 . S
O243 Zn231 1.924 . S
O243 C251 1.311 . S
O244 Zn235 1.977 . S
O244 C250 1.272 . S
O245 Zn235 1.910 . S
O245 C251 1.231 . S
C246 O230 1.225 . S
C246 O252 1.298 . S
C247 O236 1.226 . S
C247 O237 1.307 . S
C248 O240 1.303 . S
C248 O241 1.247 . S
C249 O238 1.253 . S
C249 O239 1.283 . S
C250 O242 1.304 . S
C250 O244 1.272 . S
C251 O243 1.311 . S
C251 O245 1.231 . S
O252 Zn234 1.953 . S
O252 C246 1.298 . S
O253 Zn254 1.953 . S
O253 C269 1.225 . S
Zn254 O253 1.953 . S
Zn254 O255 1.949 . S
Zn254 O261 1.919 . S
Zn254 O266 1.924 . S
O255 Zn254 1.949 . S
O255 Zn256 1.923 . S
O255 Zn257 1.950 . S
O255 Zn258 1.945 . S
Zn256 O255 1.923 . S
Zn256 O259 1.933 . S
Zn256 O262 1.941 . S
Zn256 O263 1.965 . S
Zn257 O255 1.950 . S
Zn257 O264 1.938 . S
Zn257 O265 1.906 . S
Zn257 O275 1.953 . S
Zn258 O255 1.945 . S
Zn258 O260 1.932 . S
Zn258 O267 1.977 . S
Zn258 O268 1.910 . S
O259 Zn256 1.933 . S
O259 C270 1.226 . S
O260 Zn258 1.932 . S
O260 C270 1.307 . S
O261 Zn254 1.919 . S
O261 C272 1.253 . S
O262 Zn256 1.941 . S
O262 C272 1.283 . S
O263 Zn256 1.965 . S
O263 C271 1.303 . S
O264 Zn257 1.938 . S
O264 C271 1.247 . S
O265 Zn257 1.906 . S
O265 C273 1.304 . S
O266 Zn254 1.924 . S
O266 C274 1.311 . S
O267 Zn258 1.977 . S
O267 C273 1.272 . S
O268 Zn258 1.910 . S
O268 C274 1.231 . S
C269 O253 1.225 . S
C269 O275 1.298 . S
C270 O259 1.226 . S
C270 O260 1.307 . S
C271 O263 1.303 . S
C271 O264 1.247 . S
C272 O261 1.253 . S
C272 O262 1.283 . S
C273 O265 1.304 . S
C273 O267 1.272 . S
C274 O266 1.311 . S
C274 O268 1.231 . S
O275 Zn257 1.953 . S
O275 C269 1.298 . S
O276 Zn277 1.953 . S
O276 C292 1.225 . S
Zn277 O276 1.953 . S
Zn277 O278 1.949 . S
Zn277 O284 1.919 . S
Zn277 O289 1.924 . S
O278 Zn277 1.949 . S
O278 Zn279 1.923 . S
O278 Zn280 1.950 . S
O278 Zn281 1.945 . S
Zn279 O278 1.923 . S
Zn279 O282 1.933 . S
Zn279 O285 1.941 . S
Zn279 O286 1.965 . S
Zn280 O278 1.950 . S
Zn280 O287 1.938 . S
Zn280 O288 1.906 . S
Zn280 O298 1.953 . S
Zn281 O278 1.945 . S
Zn281 O283 1.932 . S
Zn281 O290 1.977 . S
Zn281 O291 1.910 . S
O282 Zn279 1.933 . S
O282 C293 1.226 . S
O283 Zn281 1.932 . S
O283 C293 1.307 . S
O284 Zn277 1.919 . S
O284 C295 1.253 . S
O285 Zn279 1.941 . S
O285 C295 1.283 . S
O286 Zn279 1.965 . S
O286 C294 1.303 . S
O287 Zn280 1.938 . S
O287 C294 1.247 . S
O288 Zn280 1.906 . S
O288 C296 1.304 . S
O289 Zn277 1.924 . S
O289 C297 1.311 . S
O290 Zn281 1.977 . S
O290 C296 1.272 . S
O291 Zn281 1.910 . S
O291 C297 1.231 . S
C292 O276 1.225 . S
C292 O298 1.298 . S
C293 O282 1.226 . S
C293 O283 1.307 . S
C294 O286 1.303 . S
C294 O287 1.247 . S
C295 O284 1.253 . S
C295 O285 1.283 . S
C296 O288 1.304 . S
C296 O290 1.272 . S
C297 O289 1.311 . S
C297 O291 1.231 . S
O298 Zn280 1.953 . S
O298 C292 1.298 . S
O299 Zn300 1.953 . S
O299 C315 1.225 . S
Zn300 O299 1.953 . S
Zn300 O301 1.949 . S
Zn300 O307 1.919 . S
Zn300 O312 1.924 . S
O301 Zn300 1.949 . S
O301 Zn302 1.923 . S
O301 Zn303 1.950 . S
O301 Zn304 1.945 . S
Zn302 O301 1.923 . S
Zn302 O305 1.933 . S
Zn302 O308 1.941 . S
Zn302 O309 1.965 . S
Zn303 O301 1.950 . S
Zn303 O310 1.938 . S
Zn303 O311 1.906 . S
Zn303 O321 1.953 . S
Zn304 O301 1.945 . S
Zn304 O306 1.932 . S
Zn304 O313 1.977 . S
Zn304 O314 1.910 . S
O305 Zn302 1.933 . S
O305 C316 1.226 . S
O306 Zn304 1.932 . S
O306 C316 1.307 . S
O307 Zn300 1.919 . S
O307 C318 1.253 . S
O308 Zn302 1.941 . S
O308 C318 1.283 . S
O309 Zn302 1.965 . S
O309 C317 1.303 . S
O310 Zn303 1.938 . S
O310 C317 1.247 . S
O311 Zn303 1.906 . S
O311 C319 1.304 . S
O312 Zn300 1.924 . S
O312 C320 1.311 . S
O313 Zn304 1.977 . S
O313 C319 1.272 . S
O314 Zn304 1.910 . S
O314 C320 1.231 . S
C315 O299 1.225 . S
C315 O321 1.298 . S
C316 O305 1.226 . S
C316 O306 1.307 . S
C317 O309 1.303 . S
C317 O310 1.247 . S
C318 O307 1.253 . S
C318 O308 1.283 . S
C319 O311 1.304 . S
C319 O313 1.272 . S
C320 O312 1.311 . S
C320 O314 1.231 . S
O321 Zn303 1.953 . S
O321 C315 1.298 . S
O322 Zn323 1.953 . S
O322 C338 1.225 . S
Zn323 O322 1.953 . S
Zn323 O324 1.949 . S
Zn323 O330 1.919 . S
Zn323 O335 1.924 . S
O324 Zn323 1.949 . S
O324 Zn325 1.923 . S
O324 Zn326 1.950 . S
O324 Zn327 1.945 . S
Zn325 O324 1.923 . S
Zn325 O328 1.933 . S
Zn325 O331 1.941 . S
Zn325 O332 1.965 . S
Zn326 O324 1.950 . S
Zn326 O333 1.938 . S
Zn326 O334 1.906 . S
Zn326 O344 1.953 . S
Zn327 O324 1.945 . S
Zn327 O329 1.932 . S
Zn327 O336 1.977 . S
Zn327 O337 1.910 . S
O328 Zn325 1.933 . S
O328 C339 1.226 . S
O329 Zn327 1.932 . S
O329 C339 1.307 . S
O330 Zn323 1.919 . S
O330 C341 1.253 . S
O331 Zn325 1.941 . S
O331 C341 1.283 . S
O332 Zn325 1.965 . S
O332 C340 1.303 . S
O333 Zn326 1.938 . S
O333 C340 1.247 . S
O334 Zn326 1.906 . S
O334 C342 1.304 . S
O335 Zn323 1.924 . S
O335 C343 1.311 . S
O336 Zn327 1.977 . S
O336 C342 1.272 . S
O337 Zn327 1.910 . S
O337 C343 1.231 . S
C338 O322 1.225 . S
C338 O344 1.298 . S
C339 O328 1.226 . S
C339 O329 1.307 . S
C340 O332 1.303 . S
C340 O333 1.247 . S
C341 O330 1.253 . S
C341 O331 1.283 . S
C342 O334 1.304 . S
C342 O336 1.272 . S
C343 O335 1.311 . S
C343 O337 1.231 . S
O344 Zn326 1.953 . S
O344 C338 1.298 . S
O345 Zn346 1.953 . S
O345 C361 1.225 . S
Zn346 O345 1.953 . S
Zn346 O347 1.949 . S
Zn346 O353 1.919 . S
Zn346 O358 1.924 . S
O347 Zn346 1.949 . S
O347 Zn348 1.923 . S
O347 Zn349 1.950 . S
O347 Zn350 1.945 . S
Zn348 O347 1.923 . S
Zn348 O351 1.933 . S
Zn348 O354 1.941 . S
Zn348 O355 1.965 . S
Zn349 O347 1.950 . S
Zn349 O356 1.938 . S
Zn349 O357 1.906 . S
Zn349 O367 1.953 . S
Zn350 O347 1.945 . S
Zn350 O352 1.932 . S
Zn350 O359 1.977 . S
Zn350 O360 1.910 . S
O351 Zn348 1.933 . S
O351 C362 1.226 . S
O352 Zn350 1.932 . S
O352 C362 1.307 . S
O353 Zn346 1.919 . S
O353 C364 1.253 . S
O354 Zn348 1.941 . S
O354 C364 1.283 . S
O355 Zn348 1.965 . S
O355 C363 1.303 . S
O356 Zn349 1.938 . S
O356 C363 1.247 . S
O357 Zn349 1.906 . S
O357 C365 1.304 . S
O358 Zn346 1.924 . S
O358 C366 1.311 . S
O359 Zn350 1.977 . S
O359 C365 1.272 . S
O360 Zn350 1.910 . S
O360 C366 1.231 . S
C361 O345 1.225 . S
C361 O367 1.298 . S
C362 O351 1.226 . S
C362 O352 1.307 . S
C363 O355 1.303 . S
C363 O356 1.247 . S
C364 O353 1.253 . S
C364 O354 1.283 . S
C365 O357 1.304 . S
C365 O359 1.272 . S
C366 O358 1.311 . S
C366 O360 1.231 . S
O367 Zn349 1.953 . S
O367 C361 1.298 . S
C368 C369 1.369 . S
C368 C370 1.419 . S
C368 H372 0.930 . S
C369 C368 1.369 . S
C369 C378 1.429 . S
C370 C368 1.419 . S
C370 C371 1.363 . S
C370 H373 0.929 . S
C371 C370 1.363 . S
C371 C377 1.428 . S
H372 C368 0.930 . S
H373 C370 0.929 . S
S374 N375 1.613 . S
S374 N376 1.610 . S
N375 S374 1.613 . S
N375 C378 1.350 . S
N376 S374 1.610 . S
N376 C377 1.351 . S
C377 C371 1.428 . S
C377 N376 1.351 . S
C377 C378 1.434 . S
C378 C369 1.429 . S
C378 N375 1.350 . S
C378 C377 1.434 . S
C379 C380 1.369 . S
C379 C381 1.419 . S
C379 H383 0.930 . S
C380 C379 1.369 . S
C380 C389 1.429 . S
C381 C379 1.419 . S
C381 C382 1.363 . S
C381 H384 0.929 . S
C382 C381 1.363 . S
C382 C388 1.428 . S
H383 C379 0.930 . S
H384 C381 0.929 . S
S385 N386 1.613 . S
S385 N387 1.610 . S
N386 S385 1.613 . S
N386 C389 1.350 . S
N387 S385 1.610 . S
N387 C388 1.351 . S
C388 C382 1.428 . S
C388 N387 1.351 . S
C388 C389 1.434 . S
C389 C380 1.429 . S
C389 N386 1.350 . S
C389 C388 1.434 . S
C390 C391 1.369 . S
C390 C392 1.419 . S
C390 H394 0.930 . S
C391 C390 1.369 . S
C391 C400 1.429 . S
C392 C390 1.419 . S
C392 C393 1.363 . S
C392 H395 0.929 . S
C393 C392 1.363 . S
C393 C399 1.428 . S
H394 C390 0.930 . S
H395 C392 0.929 . S
S396 N397 1.613 . S
S396 N398 1.610 . S
N397 S396 1.613 . S
N397 C400 1.350 . S
N398 S396 1.610 . S
N398 C399 1.351 . S
C399 C393 1.428 . S
C399 N398 1.351 . S
C399 C400 1.434 . S
C400 C391 1.429 . S
C400 N397 1.350 . S
C400 C399 1.434 . S
C401 C402 1.369 . S
C401 C403 1.419 . S
C401 H405 0.930 . S
C402 C401 1.369 . S
C402 C411 1.429 . S
C403 C401 1.419 . S
C403 C404 1.363 . S
C403 H406 0.929 . S
C404 C403 1.363 . S
C404 C410 1.428 . S
H405 C401 0.930 . S
H406 C403 0.929 . S
S407 N408 1.613 . S
S407 N409 1.610 . S
N408 S407 1.613 . S
N408 C411 1.350 . S
N409 S407 1.610 . S
N409 C410 1.351 . S
C410 C404 1.428 . S
C410 N409 1.351 . S
C410 C411 1.434 . S
C411 C402 1.429 . S
C411 N408 1.350 . S
C411 C410 1.434 . S
C412 C413 1.369 . S
C412 C414 1.419 . S
C412 H416 0.930 . S
C413 C412 1.369 . S
C413 C422 1.429 . S
C414 C412 1.419 . S
C414 C415 1.363 . S
C414 H417 0.929 . S
C415 C414 1.363 . S
C415 C421 1.428 . S
H416 C412 0.930 . S
H417 C414 0.929 . S
S418 N419 1.613 . S
S418 N420 1.610 . S
N419 S418 1.613 . S
N419 C422 1.350 . S
N420 S418 1.610 . S
N420 C421 1.351 . S
C421 C415 1.428 . S
C421 N420 1.351 . S
C421 C422 1.434 . S
C422 C413 1.429 . S
C422 N419 1.350 . S
C422 C421 1.434 . S
C423 C424 1.369 . S
C423 C425 1.419 . S
C423 H427 0.930 . S
C424 C423 1.369 . S
C424 C433 1.429 . S
C425 C423 1.419 . S
C425 C426 1.363 . S
C425 H428 0.929 . S
C426 C425 1.363 . S
C426 C432 1.428 . S
H427 C423 0.930 . S
H428 C425 0.929 . S
S429 N430 1.613 . S
S429 N431 1.610 . S
N430 S429 1.613 . S
N430 C433 1.350 . S
N431 S429 1.610 . S
N431 C432 1.351 . S
C432 C426 1.428 . S
C432 N431 1.351 . S
C432 C433 1.434 . S
C433 C424 1.429 . S
C433 N430 1.350 . S
C433 C432 1.434 . S
C434 C435 1.369 . S
C434 C436 1.419 . S
C434 H438 0.930 . S
C435 C434 1.369 . S
C435 C444 1.429 . S
C436 C434 1.419 . S
C436 C437 1.363 . S
C436 H439 0.929 . S
C437 C436 1.363 . S
C437 C443 1.428 . S
H438 C434 0.930 . S
H439 C436 0.929 . S
S440 N441 1.613 . S
S440 N442 1.610 . S
N441 S440 1.613 . S
N441 C444 1.350 . S
N442 S440 1.610 . S
N442 C443 1.351 . S
C443 C437 1.428 . S
C443 N442 1.351 . S
C443 C444 1.434 . S
C444 C435 1.429 . S
C444 N441 1.350 . S
C444 C443 1.434 . S
C445 C446 1.369 . S
C445 C447 1.419 . S
C445 H449 0.930 . S
C446 C445 1.369 . S
C446 C455 1.429 . S
C447 C445 1.419 . S
C447 C448 1.363 . S
C447 H450 0.929 . S
C448 C447 1.363 . S
C448 C454 1.428 . S
H449 C445 0.930 . S
H450 C447 0.929 . S
S451 N452 1.613 . S
S451 N453 1.610 . S
N452 S451 1.613 . S
N452 C455 1.350 . S
N453 S451 1.610 . S
N453 C454 1.351 . S
C454 C448 1.428 . S
C454 N453 1.351 . S
C454 C455 1.434 . S
C455 C446 1.429 . S
C455 N452 1.350 . S
C455 C454 1.434 . S
C456 C457 1.369 1_565 S
C456 C458 1.419 . S
C456 H460 0.930 . S
C457 C456 1.369 1_545 S
C457 C466 1.429 . S
C458 C456 1.419 . S
C458 C459 1.363 . S
C458 H461 0.929 . S
C459 C458 1.363 . S
C459 C465 1.428 1_565 S
H460 C456 0.930 . S
H461 C458 0.929 . S
S462 N463 1.613 . S
S462 N464 1.610 . S
N463 S462 1.613 . S
N463 C466 1.350 . S
N464 S462 1.610 . S
N464 C465 1.351 . S
C465 C459 1.428 1_545 S
C465 N464 1.351 . S
C465 C466 1.434 . S
C466 C457 1.429 . S
C466 N463 1.350 . S
C466 C465 1.434 . S
C467 C468 1.369 . S
C467 C469 1.419 . S
C467 H471 0.930 . S
C468 C467 1.369 . S
C468 C477 1.429 1_565 S
C469 C467 1.419 . S
C469 C470 1.363 1_565 S
C469 H472 0.929 . S
C470 C469 1.363 1_545 S
C470 C476 1.428 . S
H471 C467 0.930 . S
H472 C469 0.929 . S
S473 N474 1.613 . S
S473 N475 1.610 . S
N474 S473 1.613 . S
N474 C477 1.350 . S
N475 S473 1.610 . S
N475 C476 1.351 . S
C476 C470 1.428 . S
C476 N475 1.351 . S
C476 C477 1.434 . S
C477 C468 1.429 1_545 S
C477 N474 1.350 . S
C477 C476 1.434 . S
C478 C479 1.369 1_545 S
C478 C480 1.419 . S
C478 H482 0.930 . S
C479 C478 1.369 1_565 S
C479 C488 1.429 . S
C480 C478 1.419 . S
C480 C481 1.363 . S
C480 H483 0.929 . S
C481 C480 1.363 . S
C481 C487 1.428 1_545 S
H482 C478 0.930 . S
H483 C480 0.929 . S
S484 N485 1.613 . S
S484 N486 1.610 . S
N485 S484 1.613 . S
N485 C488 1.350 . S
N486 S484 1.610 . S
N486 C487 1.351 . S
C487 C481 1.428 1_565 S
C487 N486 1.351 . S
C487 C488 1.434 . S
C488 C479 1.429 . S
C488 N485 1.350 . S
C488 C487 1.434 . S
C489 C490 1.369 1_545 S
C489 C491 1.419 . S
C489 H493 0.930 . S
C490 C489 1.369 1_565 S
C490 C499 1.429 . S
C491 C489 1.419 . S
C491 C492 1.363 . S
C491 H494 0.929 . S
C492 C491 1.363 . S
C492 C498 1.428 1_545 S
H493 C489 0.930 . S
H494 C491 0.929 . S
S495 N496 1.613 . S
S495 N497 1.610 . S
N496 S495 1.613 . S
N496 C499 1.350 . S
N497 S495 1.610 . S
N497 C498 1.351 . S
C498 C492 1.428 1_565 S
C498 N497 1.351 . S
C498 C499 1.434 . S
C499 C490 1.429 . S
C499 N496 1.350 . S
C499 C498 1.434 . S
C500 C501 1.369 . S
C500 C502 1.419 . S
C500 H504 0.930 . S
C501 C500 1.369 . S
C501 C510 1.429 . S
C502 C500 1.419 . S
C502 C503 1.363 . S
C502 H505 0.929 . S
C503 C502 1.363 . S
C503 C509 1.428 . S
H504 C500 0.930 . S
H505 C502 0.929 . S
S506 N507 1.613 . S
S506 N508 1.610 . S
N507 S506 1.613 . S
N507 C510 1.350 . S
N508 S506 1.610 . S
N508 C509 1.351 . S
C509 C503 1.428 . S
C509 N508 1.351 . S
C509 C510 1.434 . S
C510 C501 1.429 . S
C510 N507 1.350 . S
C510 C509 1.434 . S
C511 C512 1.369 . S
C511 C513 1.419 . S
C511 H515 0.930 . S
C512 C511 1.369 . S
C512 C521 1.429 . S
C513 C511 1.419 . S
C513 C514 1.363 . S
C513 H516 0.929 . S
C514 C513 1.363 . S
C514 C520 1.428 . S
H515 C511 0.930 . S
H516 C513 0.929 . S
S517 N518 1.613 . S
S517 N519 1.610 . S
N518 S517 1.613 . S
N518 C521 1.350 . S
N519 S517 1.610 . S
N519 C520 1.351 . S
C520 C514 1.428 . S
C520 N519 1.351 . S
C520 C521 1.434 . S
C521 C512 1.429 . S
C521 N518 1.350 . S
C521 C520 1.434 . S
C522 C523 1.369 . S
C522 C524 1.419 . S
C522 H526 0.930 . S
C523 C522 1.369 . S
C523 C532 1.429 . S
C524 C522 1.419 . S
C524 C525 1.363 . S
C524 H527 0.929 . S
C525 C524 1.363 . S
C525 C531 1.428 . S
H526 C522 0.930 . S
H527 C524 0.929 . S
S528 N529 1.613 . S
S528 N530 1.610 . S
N529 S528 1.613 . S
N529 C532 1.350 . S
N530 S528 1.610 . S
N530 C531 1.351 . S
C531 C525 1.428 . S
C531 N530 1.351 . S
C531 C532 1.434 . S
C532 C523 1.429 . S
C532 N529 1.350 . S
C532 C531 1.434 . S
C533 C534 1.369 . S
C533 C535 1.419 . S
C533 H537 0.930 . S
C534 C533 1.369 . S
C534 C543 1.429 . S
C535 C533 1.419 . S
C535 C536 1.363 . S
C535 H538 0.929 . S
C536 C535 1.363 . S
C536 C542 1.428 . S
H537 C533 0.930 . S
H538 C535 0.929 . S
S539 N540 1.613 . S
S539 N541 1.610 . S
N540 S539 1.613 . S
N540 C543 1.350 . S
N541 S539 1.610 . S
N541 C542 1.351 . S
C542 C536 1.428 . S
C542 N541 1.351 . S
C542 C543 1.434 . S
C543 C534 1.429 . S
C543 N540 1.350 . S
C543 C542 1.434 . S
C544 C545 1.369 1_545 S
C544 C546 1.419 1_556 S
C544 H548 0.930 . S
C545 C544 1.369 1_565 S
C545 C554 1.429 . S
C546 C544 1.419 1_554 S
C546 C547 1.363 . S
C546 H549 0.929 . S
C547 C546 1.363 . S
C547 C553 1.428 1_545 S
H548 C544 0.930 . S
H549 C546 0.929 . S
S550 N551 1.592 1_554 S
S550 N552 1.631 . S
N551 S550 1.592 1_556 S
N551 C554 1.350 . S
N552 S550 1.631 . S
N552 C553 1.351 . S
C553 C547 1.428 1_565 S
C553 N552 1.351 . S
C553 C554 1.434 1_554 S
C554 C545 1.429 . S
C554 N551 1.350 . S
C554 C553 1.434 1_556 S
C555 C556 1.369 1_565 S
C555 C557 1.419 1_556 S
C555 H559 0.930 . S
C556 C555 1.369 1_545 S
C556 C565 1.429 . S
C557 C555 1.419 1_554 S
C557 C558 1.363 . S
C557 H560 0.929 . S
C558 C557 1.363 . S
C558 C564 1.428 1_565 S
H559 C555 0.930 . S
H560 C557 0.929 . S
S561 N562 1.588 1_554 S
S561 N563 1.636 . S
N562 S561 1.588 1_556 S
N562 C565 1.350 . S
N563 S561 1.636 . S
N563 C564 1.351 . S
C564 C558 1.428 1_545 S
C564 N563 1.351 . S
C564 C565 1.434 1_554 S
C565 C556 1.429 . S
C565 N562 1.350 . S
C565 C564 1.434 1_556 S
C566 C567 1.369 . S
C566 C568 1.419 . S
C566 H570 0.930 . S
C567 C566 1.369 . S
C567 C576 1.429 1_565 S
C568 C566 1.419 . S
C568 C569 1.363 . S
C568 H571 0.929 . S
C569 C568 1.363 . S
C569 C575 1.428 1_565 S
H570 C566 0.930 . S
H571 C568 0.929 . S
S572 N573 1.613 . S
S572 N574 1.610 1_565 S
N573 S572 1.613 . S
N573 C576 1.350 1_565 S
N574 S572 1.610 1_545 S
N574 C575 1.351 . S
C575 C569 1.428 1_545 S
C575 N574 1.351 . S
C575 C576 1.434 . S
C576 C567 1.429 1_545 S
C576 N573 1.350 1_545 S
C576 C575 1.434 . S
C577 C578 1.369 1_545 S
C577 C579 1.419 . S
C577 H581 0.930 . S
C578 C577 1.369 1_565 S
C578 C587 1.429 . S
C579 C577 1.419 . S
C579 C580 1.363 . S
C579 H582 0.929 . S
C580 C579 1.363 . S
C580 C586 1.428 1_545 S
H581 C577 0.930 . S
H582 C579 0.929 . S
S583 N584 1.613 . S
S583 N585 1.610 . S
N584 S583 1.613 . S
N584 C587 1.350 . S
N585 S583 1.610 . S
N585 C586 1.351 . S
C586 C580 1.428 1_565 S
C586 N585 1.351 . S
C586 C587 1.434 . S
C587 C578 1.429 . S
C587 N584 1.350 . S
C587 C586 1.434 . S
C588 C589 1.369 . S
C588 C590 1.419 1_554 S
C588 H592 0.930 . S
C589 C588 1.369 . S
C589 C598 1.429 . S
C590 C588 1.419 1_556 S
C590 C591 1.363 . S
C590 H593 0.929 . S
C591 C590 1.363 . S
C591 C597 1.428 . S
H592 C588 0.930 . S
H593 C590 0.929 . S
S594 N595 1.613 . S
S594 N596 1.610 1_554 S
N595 S594 1.613 . S
N595 C598 1.350 . S
N596 S594 1.610 1_556 S
N596 C597 1.351 . S
C597 C591 1.428 . S
C597 N596 1.351 . S
C597 C598 1.434 1_556 S
C598 C589 1.429 . S
C598 N595 1.350 . S
C598 C597 1.434 1_554 S
C599 C600 1.369 . S
C599 C601 1.419 1_556 S
C599 H603 0.930 . S
C600 C599 1.369 . S
C600 C609 1.429 . S
C601 C599 1.419 1_554 S
C601 C602 1.363 . S
C601 H604 0.929 . S
C602 C601 1.363 . S
C602 C608 1.428 . S
H603 C599 0.930 . S
H604 C601 0.929 . S
S605 N606 1.608 1_554 S
S605 N607 1.616 . S
N606 S605 1.608 1_556 S
N606 C609 1.350 . S
N607 S605 1.616 . S
N607 C608 1.351 . S
C608 C602 1.428 . S
C608 N607 1.351 . S
C608 C609 1.434 1_554 S
C609 C600 1.429 . S
C609 N606 1.350 . S
C609 C608 1.434 1_556 S
C610 C611 1.369 . S
C610 C612 1.419 . S
C610 H614 0.930 . S
C611 C610 1.369 . S
C611 C620 1.429 . S
C612 C610 1.419 . S
C612 C613 1.363 . S
C612 H615 0.929 . S
C613 C612 1.363 . S
C613 C619 1.428 . S
H614 C610 0.930 . S
H615 C612 0.929 . S
S616 N617 1.613 . S
S616 N618 1.610 . S
N617 S616 1.613 . S
N617 C620 1.350 . S
N618 S616 1.610 . S
N618 C619 1.351 . S
C619 C613 1.428 . S
C619 N618 1.351 . S
C619 C620 1.434 . S
C620 C611 1.429 . S
C620 N617 1.350 . S
C620 C619 1.434 . S
C621 C622 1.369 . S
C621 C623 1.419 . S
C621 H625 0.930 . S
C622 C621 1.369 . S
C622 C631 1.429 . S
C623 C621 1.419 . S
C623 C624 1.363 . S
C623 H626 0.929 . S
C624 C623 1.363 . S
C624 C630 1.428 . S
H625 C621 0.930 . S
H626 C623 0.929 . S
S627 N628 1.613 . S
S627 N629 1.610 . S
N628 S627 1.613 . S
N628 C631 1.350 . S
N629 S627 1.610 . S
N629 C630 1.351 . S
C630 C624 1.428 . S
C630 N629 1.351 . S
C630 C631 1.434 . S
C631 C622 1.429 . S
C631 N628 1.350 . S
C631 C630 1.434 . S
C632 C633 1.369 . S
C632 C634 1.419 1_655 S
C632 H636 0.930 . S
C633 C632 1.369 . S
C633 C642 1.429 1_565 S
C634 C632 1.419 1_455 S
C634 C635 1.363 1_565 S
C634 H637 0.929 . S
C635 C634 1.363 1_545 S
C635 C641 1.428 . S
H636 C632 0.930 . S
H637 C634 0.929 . S
S638 N639 1.613 . S
S638 N640 1.610 1_655 S
N639 S638 1.613 . S
N639 C642 1.350 . S
N640 S638 1.610 1_455 S
N640 C641 1.351 . S
C641 C635 1.428 . S
C641 N640 1.351 . S
C641 C642 1.434 1_455 S
C642 C633 1.429 1_545 S
C642 N639 1.350 . S
C642 C641 1.434 1_655 S
C643 C644 1.369 1_565 S
C643 C645 1.419 1_655 S
C643 H647 0.930 . S
C644 C643 1.369 1_545 S
C644 C653 1.429 . S
C645 C643 1.419 1_455 S
C645 C646 1.363 . S
C645 H648 0.929 . S
C646 C645 1.363 . S
C646 C652 1.428 1_565 S
H647 C643 0.930 . S
H648 C645 0.929 . S
S649 N650 1.613 1_455 S
S649 N651 1.610 . S
N650 S649 1.613 1_655 S
N650 C653 1.350 . S
N651 S649 1.610 . S
N651 C652 1.351 . S
C652 C646 1.428 1_545 S
C652 N651 1.351 . S
C652 C653 1.434 1_455 S
C653 C644 1.429 . S
C653 N650 1.350 . S
C653 C652 1.434 1_655 S
C654 C655 1.369 1_565 S
C654 C656 1.419 1_455 S
C654 H658 0.930 . S
C655 C654 1.369 1_545 S
C655 C664 1.429 . S
C656 C654 1.419 1_655 S
C656 C657 1.363 . S
C656 H659 0.929 . S
C657 C656 1.363 . S
C657 C663 1.428 1_565 S
H658 C654 0.930 . S
H659 C656 0.929 . S
S660 N661 1.613 1_655 S
S660 N662 1.610 . S
N661 S660 1.613 1_455 S
N661 C664 1.350 . S
N662 S660 1.610 . S
N662 C663 1.351 . S
C663 C657 1.428 1_545 S
C663 N662 1.351 . S
C663 C664 1.434 1_655 S
C664 C655 1.429 . S
C664 N661 1.350 . S
C664 C663 1.434 1_455 S
C665 C666 1.369 . S
C665 C667 1.419 1_655 S
C665 H669 0.930 . S
C666 C665 1.369 . S
C666 C675 1.429 1_545 S
C667 C665 1.419 1_455 S
C667 C668 1.363 1_545 S
C667 H670 0.929 . S
C668 C667 1.363 1_565 S
C668 C674 1.428 . S
H669 C665 0.930 . S
H670 C667 0.929 . S
S671 N672 1.613 . S
S671 N673 1.610 1_655 S
N672 S671 1.613 . S
N672 C675 1.350 . S
N673 S671 1.610 1_455 S
N673 C674 1.351 . S
C674 C668 1.428 . S
C674 N673 1.351 . S
C674 C675 1.434 1_455 S
C675 C666 1.429 1_565 S
C675 N672 1.350 . S
C675 C674 1.434 1_655 S
C676 C677 1.369 . S
C676 C678 1.419 . S
C676 H680 0.930 . S
C677 C676 1.369 . S
C677 C686 1.429 . S
C678 C676 1.419 . S
C678 C679 1.363 . S
C678 H681 0.929 . S
C679 C678 1.363 . S
C679 C685 1.428 . S
H680 C676 0.930 . S
H681 C678 0.929 . S
S682 N683 1.613 . S
S682 N684 1.610 . S
N683 S682 1.613 . S
N683 C686 1.350 . S
N684 S682 1.610 . S
N684 C685 1.351 . S
C685 C679 1.428 . S
C685 N684 1.351 . S
C685 C686 1.434 . S
C686 C677 1.429 . S
C686 N683 1.350 . S
C686 C685 1.434 . S
C687 C688 1.369 . S
C687 C689 1.419 . S
C687 H691 0.930 . S
C688 C687 1.369 . S
C688 C697 1.429 . S
C689 C687 1.419 . S
C689 C690 1.363 . S
C689 H692 0.929 . S
C690 C689 1.363 . S
C690 C696 1.428 . S
H691 C687 0.930 . S
H692 C689 0.929 . S
S693 N694 1.613 . S
S693 N695 1.610 . S
N694 S693 1.613 . S
N694 C697 1.350 . S
N695 S693 1.610 . S
N695 C696 1.351 . S
C696 C690 1.428 . S
C696 N695 1.351 . S
C696 C697 1.434 . S
C697 C688 1.429 . S
C697 N694 1.350 . S
C697 C696 1.434 . S
C698 C699 1.369 . S
C698 C700 1.419 . S
C698 H702 0.930 . S
C699 C698 1.369 . S
C699 C708 1.429 . S
C700 C698 1.419 . S
C700 C701 1.363 . S
C700 H703 0.929 . S
C701 C700 1.363 . S
C701 C707 1.428 . S
H702 C698 0.930 . S
H703 C700 0.929 . S
S704 N705 1.613 . S
S704 N706 1.610 . S
N705 S704 1.613 . S
N705 C708 1.350 . S
N706 S704 1.610 . S
N706 C707 1.351 . S
C707 C701 1.428 . S
C707 N706 1.351 . S
C707 C708 1.434 . S
C708 C699 1.429 . S
C708 N705 1.350 . S
C708 C707 1.434 . S
C709 C710 1.369 . S
C709 C711 1.419 . S
C709 H713 0.930 . S
C710 C709 1.369 . S
C710 C719 1.429 . S
C711 C709 1.419 . S
C711 C712 1.363 . S
C711 H714 0.929 . S
C712 C711 1.363 . S
C712 C718 1.428 . S
H713 C709 0.930 . S
H714 C711 0.929 . S
S715 N716 1.613 . S
S715 N717 1.610 . S
N716 S715 1.613 . S
N716 C719 1.350 . S
N717 S715 1.610 . S
N717 C718 1.351 . S
C718 C712 1.428 . S
C718 N717 1.351 . S
C718 C719 1.434 . S
C719 C710 1.429 . S
C719 N716 1.350 . S
C719 C718 1.434 . S
C720 C721 1.369 . S
C720 C722 1.419 . S
C720 H724 0.930 . S
C721 C720 1.369 . S
C721 C730 1.429 . S
C722 C720 1.419 . S
C722 C723 1.363 . S
C722 H725 0.929 . S
C723 C722 1.363 . S
C723 C729 1.428 . S
H724 C720 0.930 . S
H725 C722 0.929 . S
S726 N727 1.613 . S
S726 N728 1.610 . S
N727 S726 1.613 . S
N727 C730 1.350 . S
N728 S726 1.610 . S
N728 C729 1.351 . S
C729 C723 1.428 . S
C729 N728 1.351 . S
C729 C730 1.434 . S
C730 C721 1.429 . S
C730 N727 1.350 . S
C730 C729 1.434 . S
C731 C732 1.369 . S
C731 C733 1.419 . S
C731 H735 0.930 . S
C732 C731 1.369 . S
C732 C741 1.429 . S
C733 C731 1.419 . S
C733 C734 1.363 . S
C733 H736 0.929 . S
C734 C733 1.363 . S
C734 C740 1.428 . S
H735 C731 0.930 . S
H736 C733 0.929 . S
S737 N738 1.613 . S
S737 N739 1.610 . S
N738 S737 1.613 . S
N738 C741 1.350 . S
N739 S737 1.610 . S
N739 C740 1.351 . S
C740 C734 1.428 . S
C740 N739 1.351 . S
C740 C741 1.434 . S
C741 C732 1.429 . S
C741 N738 1.350 . S
C741 C740 1.434 . S
C742 C743 1.369 . S
C742 C744 1.419 . S
C742 H746 0.930 . S
C743 C742 1.369 . S
C743 C752 1.429 . S
C744 C742 1.419 . S
C744 C745 1.363 . S
C744 H747 0.929 . S
C745 C744 1.363 . S
C745 C751 1.428 . S
H746 C742 0.930 . S
H747 C744 0.929 . S
S748 N749 1.613 . S
S748 N750 1.610 . S
N749 S748 1.613 . S
N749 C752 1.350 . S
N750 S748 1.610 . S
N750 C751 1.351 . S
C751 C745 1.428 . S
C751 N750 1.351 . S
C751 C752 1.434 . S
C752 C743 1.429 . S
C752 N749 1.350 . S
C752 C751 1.434 . S
C753 C754 1.369 . S
C753 C755 1.419 . S
C753 H757 0.930 . S
C754 C753 1.369 . S
C754 C763 1.429 . S
C755 C753 1.419 . S
C755 C756 1.363 . S
C755 H758 0.929 . S
C756 C755 1.363 . S
C756 C762 1.428 . S
H757 C753 0.930 . S
H758 C755 0.929 . S
S759 N760 1.613 . S
S759 N761 1.610 . S
N760 S759 1.613 . S
N760 C763 1.350 . S
N761 S759 1.610 . S
N761 C762 1.351 . S
C762 C756 1.428 . S
C762 N761 1.351 . S
C762 C763 1.434 . S
C763 C754 1.429 . S
C763 N760 1.350 . S
C763 C762 1.434 . S
C764 C765 1.369 . S
C764 C766 1.419 . S
C764 H768 0.930 . S
C765 C764 1.369 . S
C765 C774 1.429 . S
C766 C764 1.419 . S
C766 C767 1.363 . S
C766 H769 0.929 . S
C767 C766 1.363 . S
C767 C773 1.428 . S
H768 C764 0.930 . S
H769 C766 0.929 . S
S770 N771 1.613 . S
S770 N772 1.610 . S
N771 S770 1.613 . S
N771 C774 1.350 . S
N772 S770 1.610 . S
N772 C773 1.351 . S
C773 C767 1.428 . S
C773 N772 1.351 . S
C773 C774 1.434 . S
C774 C765 1.429 . S
C774 N771 1.350 . S
C774 C773 1.434 . S
C775 C776 1.369 . S
C775 C777 1.419 . S
C775 H779 0.930 . S
C776 C775 1.369 . S
C776 C785 1.429 . S
C777 C775 1.419 . S
C777 C778 1.363 . S
C777 H780 0.929 . S
C778 C777 1.363 . S
C778 C784 1.428 . S
H779 C775 0.930 . S
H780 C777 0.929 . S
S781 N782 1.613 . S
S781 N783 1.610 . S
N782 S781 1.613 . S
N782 C785 1.350 . S
N783 S781 1.610 . S
N783 C784 1.351 . S
C784 C778 1.428 . S
C784 N783 1.351 . S
C784 C785 1.434 . S
C785 C776 1.429 . S
C785 N782 1.350 . S
C785 C784 1.434 . S
C786 C787 1.369 . S
C786 C788 1.419 . S
C786 H790 0.930 . S
C787 C786 1.369 . S
C787 C796 1.429 . S
C788 C786 1.419 . S
C788 C789 1.363 . S
C788 H791 0.929 . S
C789 C788 1.363 . S
C789 C795 1.428 . S
H790 C786 0.930 . S
H791 C788 0.929 . S
S792 N793 1.613 . S
S792 N794 1.610 . S
N793 S792 1.613 . S
N793 C796 1.350 . S
N794 S792 1.610 . S
N794 C795 1.351 . S
C795 C789 1.428 . S
C795 N794 1.351 . S
C795 C796 1.434 . S
C796 C787 1.429 . S
C796 N793 1.350 . S
C796 C795 1.434 . S
C797 C798 1.369 . S
C797 C799 1.419 . S
C797 H801 0.930 . S
C798 C797 1.369 . S
C798 C807 1.429 . S
C799 C797 1.419 . S
C799 C800 1.363 . S
C799 H802 0.929 . S
C800 C799 1.363 . S
C800 C806 1.428 . S
H801 C797 0.930 . S
H802 C799 0.929 . S
S803 N804 1.613 . S
S803 N805 1.610 . S
N804 S803 1.613 . S
N804 C807 1.350 . S
N805 S803 1.610 . S
N805 C806 1.351 . S
C806 C800 1.428 . S
C806 N805 1.351 . S
C806 C807 1.434 . S
C807 C798 1.429 . S
C807 N804 1.350 . S
C807 C806 1.434 . S
C808 C809 1.369 . S
C808 C810 1.419 1_565 S
C808 H812 0.930 . S
C809 C808 1.369 . S
C809 C818 1.429 1_565 S
C810 C808 1.419 1_545 S
C810 C811 1.363 . S
C810 H813 0.929 . S
C811 C810 1.363 . S
C811 C817 1.428 . S
H812 C808 0.930 . S
H813 C810 0.929 . S
S814 N815 1.613 1_545 S
S814 N816 1.610 . S
N815 S814 1.613 1_565 S
N815 C818 1.350 1_565 S
N816 S814 1.610 . S
N816 C817 1.351 . S
C817 C811 1.428 . S
C817 N816 1.351 . S
C817 C818 1.434 . S
C818 C809 1.429 1_545 S
C818 N815 1.350 1_545 S
C818 C817 1.434 . S
C819 C820 1.369 . S
C819 C821 1.419 . S
C819 H823 0.930 . S
C820 C819 1.369 . S
C820 C829 1.429 . S
C821 C819 1.419 . S
C821 C822 1.363 1_565 S
C821 H824 0.929 1_565 S
C822 C821 1.363 1_545 S
C822 C828 1.428 . S
H823 C819 0.930 . S
H824 C821 0.929 1_545 S
S825 N826 1.613 1_545 S
S825 N827 1.610 . S
N826 S825 1.613 1_565 S
N826 C829 1.350 . S
N827 S825 1.610 . S
N827 C828 1.351 . S
C828 C822 1.428 . S
C828 N827 1.351 . S
C828 C829 1.434 1_545 S
C829 C820 1.429 . S
C829 N826 1.350 . S
C829 C828 1.434 1_565 S
C830 C831 1.369 . S
C830 C832 1.419 1_545 S
C830 H834 0.930 . S
C831 C830 1.369 . S
C831 C840 1.429 . S
C832 C830 1.419 1_565 S
C832 C833 1.363 . S
C832 H835 0.929 . S
C833 C832 1.363 . S
C833 C839 1.428 . S
H834 C830 0.930 . S
H835 C832 0.929 . S
S836 N837 1.613 1_565 S
S836 N838 1.610 . S
N837 S836 1.613 1_545 S
N837 C840 1.350 . S
N838 S836 1.610 . S
N838 C839 1.351 . S
C839 C833 1.428 . S
C839 N838 1.351 . S
C839 C840 1.434 1_565 S
C840 C831 1.429 . S
C840 N837 1.350 . S
C840 C839 1.434 1_545 S
C841 C842 1.369 1_545 S
C841 C843 1.419 . S
C841 H845 0.930 1_545 S
C842 C841 1.369 1_565 S
C842 C851 1.429 . S
C843 C841 1.419 . S
C843 C844 1.363 . S
C843 H846 0.929 . S
C844 C843 1.363 . S
C844 C850 1.428 . S
H845 C841 0.930 1_565 S
H846 C843 0.929 . S
S847 N848 1.613 . S
S847 N849 1.610 1_565 S
N848 S847 1.613 . S
N848 C851 1.350 . S
N849 S847 1.610 1_545 S
N849 C850 1.351 . S
C850 C844 1.428 . S
C850 N849 1.351 . S
C850 C851 1.434 1_545 S
C851 C842 1.429 . S
C851 N848 1.350 . S
C851 C850 1.434 1_565 S
C852 C853 1.369 . S
C852 C854 1.419 1_565 S
C852 H856 0.930 . S
C853 C852 1.369 . S
C853 C862 1.429 . S
C854 C852 1.419 1_545 S
C854 C855 1.363 . S
C854 H857 0.929 . S
C855 C854 1.363 . S
C855 C861 1.428 . S
H856 C852 0.930 . S
H857 C854 0.929 . S
S858 N859 1.613 . S
S858 N860 1.610 1_565 S
N859 S858 1.613 . S
N859 C862 1.350 . S
N860 S858 1.610 1_545 S
N860 C861 1.351 . S
C861 C855 1.428 . S
C861 N860 1.351 . S
C861 C862 1.434 1_545 S
C862 C853 1.429 . S
C862 N859 1.350 . S
C862 C861 1.434 1_565 S
C863 C864 1.369 . S
C863 C865 1.419 1_545 S
C863 H867 0.930 . S
C864 C863 1.369 . S
C864 C873 1.429 . S
C865 C863 1.419 1_565 S
C865 C866 1.363 . S
C865 H868 0.929 . S
C866 C865 1.363 . S
C866 C872 1.428 . S
H867 C863 0.930 . S
H868 C865 0.929 . S
S869 N870 1.613 . S
S869 N871 1.610 1_545 S
N870 S869 1.613 . S
N870 C873 1.350 . S
N871 S869 1.610 1_565 S
N871 C872 1.351 . S
C872 C866 1.428 . S
C872 N871 1.351 . S
C872 C873 1.434 1_565 S
C873 C864 1.429 . S
C873 N870 1.350 . S
C873 C872 1.434 1_545 S
C874 C875 1.369 . S
C874 C876 1.419 1_565 S
C874 H878 0.930 . S
C875 C874 1.369 . S
C875 C884 1.429 1_565 S
C876 C874 1.419 1_545 S
C876 C877 1.363 . S
C876 H879 0.929 . S
C877 C876 1.363 . S
C877 C883 1.428 . S
H878 C874 0.930 . S
H879 C876 0.929 . S
S880 N881 1.613 1_545 S
S880 N882 1.610 . S
N881 S880 1.613 1_565 S
N881 C884 1.350 1_565 S
N882 S880 1.610 . S
N882 C883 1.351 . S
C883 C877 1.428 . S
C883 N882 1.351 . S
C883 C884 1.434 . S
C884 C875 1.429 1_545 S
C884 N881 1.350 1_545 S
C884 C883 1.434 . S
C885 C886 1.369 . S
C885 C887 1.427 . S
C885 H889 0.930 . S
C886 C885 1.369 . S
C886 C895 1.429 . S
C887 C885 1.427 . S
C887 C888 1.358 1_565 S
C887 H890 0.926 1_565 S
C888 C887 1.358 1_545 S
C888 C894 1.428 . S
H889 C885 0.930 . S
H890 C887 0.926 1_545 S
S891 N892 1.613 . S
S891 N893 1.610 1_565 S
N892 S891 1.613 . S
N892 C895 1.350 . S
N893 S891 1.610 1_545 S
N893 C894 1.351 . S
C894 C888 1.428 . S
C894 N893 1.351 . S
C894 C895 1.434 1_545 S
C895 C886 1.429 . S
C895 N892 1.350 . S
C895 C894 1.434 1_565 S
C369 C18 1.555 . S
C371 C225 1.554 . S
C380 C41 1.550 . S
C382 C202 1.551 . S
C391 C271 1.553 . S
C393 C64 1.552 . S
C402 C87 1.550 . S
C404 C248 1.551 . S
C413 C317 1.490 . S
C415 C110 1.490 . S
C424 C294 1.490 . S
C426 C133 1.490 . S
C435 C363 1.493 . S
C437 C156 1.494 . S
C446 C179 1.495 . S
C448 C340 1.493 . S
C457 C66 1.455 1_545 S
C459 C20 1.450 1_565 S
C468 C89 1.449 1_565 S
C470 C43 1.456 1_545 S
C479 C157 1.443 1_565 S
C481 C111 1.434 1_545 S
C490 C134 1.442 1_565 S
C492 C180 1.435 1_545 S
C501 C250 1.449 . S
C503 C204 1.455 . S
C512 C273 1.454 . S
C514 C227 1.450 . S
C523 C295 1.433 . S
C525 C341 1.441 . S
C534 C318 1.434 . S
C536 C364 1.441 . S
C545 C135 1.464 1_565 S
C547 C19 1.457 . S
C556 C112 1.464 1_545 S
C558 C42 1.457 . S
C567 C65 1.452 . S
C569 C181 1.462 . S
C578 C158 1.464 1_565 S
C580 C88 1.457 . S
C589 C203 1.457 . S
C591 C319 1.461 . S
C600 C296 1.464 . S
C602 C226 1.457 . S
C611 C249 1.457 . S
C613 C365 1.464 . S
C622 C342 1.458 . S
C624 C272 1.452 . S
C633 C44 1.477 . S
C635 C21 1.485 . S
C644 C90 1.486 . S
C646 C67 1.476 . S
C655 C136 1.562 . S
C657 C113 1.555 . S
C666 C159 1.553 . S
C668 C182 1.559 . S
C677 C228 1.483 . S
C679 C205 1.481 . S
C688 C274 1.476 . S
C690 C251 1.484 . S
C699 C297 1.553 . S
C701 C320 1.559 . S
C710 C343 1.554 . S
C712 C366 1.558 . S
C721 C17 1.370 . S
C723 C16 1.368 . S
C732 C40 1.371 . S
C734 C39 1.366 . S
C743 C63 1.370 . S
C745 C62 1.367 . S
C754 C85 1.367 . S
C756 C86 1.371 . S
C765 C109 1.374 . S
C767 C108 1.366 . S
C776 C131 1.367 . S
C778 C132 1.373 . S
C787 C155 1.373 . S
C789 C154 1.367 . S
C798 C178 1.372 . S
C800 C177 1.368 . S
C809 C200 1.368 . S
C811 C201 1.370 . S
C820 C224 1.374 . S
C822 C223 1.364 . S
C831 C246 1.364 . S
C833 C247 1.373 . S
C842 C269 1.365 . S
C844 C270 1.372 . S
C853 C293 1.374 . S
C855 C292 1.366 . S
C864 C316 1.374 . S
C866 C315 1.367 . S
C875 C338 1.369 . S
C877 C339 1.371 . S
C886 C362 1.373 . S
C888 C361 1.367 . S
