# Generated by pormake.
# Topology smt, (6)-cn, num edge types: 1
# Building blocks:
#     Node 0, Type 0, BuildingBlock: VOLQOD_clean_sbu_1, # of connection points: 6
#     Node 1, Type 0, BuildingBlock: VOLQOD_clean_sbu_1, # of connection points: 6
#     Node 2, Type 0, BuildingBlock: VOLQOD_clean_sbu_1, # of connection points: 6
#     Node 3, Type 0, BuildingBlock: VOLQOD_clean_sbu_1, # of connection points: 6
#     Node 4, Type 0, BuildingBlock: VOLQOD_clean_sbu_1, # of connection points: 6
#     Node 5, Type 0, BuildingBlock: VOLQOD_clean_sbu_1, # of connection points: 6
#     Edge 6, Type (0, 0), BuildingBlock: UVAHIK_clean_linker_0, # of connection points: 2
#     Edge 7, Type (0, 0), BuildingBlock: UVAHIK_clean_linker_0, # of connection points: 2
#     Edge 8, Type (0, 0), BuildingBlock: UVAHIK_clean_linker_0, # of connection points: 2
#     Edge 9, Type (0, 0), BuildingBlock: UVAHIK_clean_linker_0, # of connection points: 2
#     Edge 10, Type (0, 0), BuildingBlock: UVAHIK_clean_linker_0, # of connection points: 2
#     Edge 11, Type (0, 0), BuildingBlock: UVAHIK_clean_linker_0, # of connection points: 2
#     Edge 12, Type (0, 0), BuildingBlock: UVAHIK_clean_linker_0, # of connection points: 2
#     Edge 13, Type (0, 0), BuildingBlock: UVAHIK_clean_linker_0, # of connection points: 2
#     Edge 14, Type (0, 0), BuildingBlock: UVAHIK_clean_linker_0, # of connection points: 2
#     Edge 15, Type (0, 0), BuildingBlock: UVAHIK_clean_linker_0, # of connection points: 2
#     Edge 16, Type (0, 0), BuildingBlock: UVAHIK_clean_linker_0, # of connection points: 2
#     Edge 17, Type (0, 0), BuildingBlock: UVAHIK_clean_linker_0, # of connection points: 2
#     Edge 18, Type (0, 0), BuildingBlock: UVAHIK_clean_linker_0, # of connection points: 2
#     Edge 19, Type (0, 0), BuildingBlock: UVAHIK_clean_linker_0, # of connection points: 2
#     Edge 20, Type (0, 0), BuildingBlock: UVAHIK_clean_linker_0, # of connection points: 2
#     Edge 21, Type (0, 0), BuildingBlock: UVAHIK_clean_linker_0, # of connection points: 2
#     Edge 22, Type (0, 0), BuildingBlock: UVAHIK_clean_linker_0, # of connection points: 2
#     Edge 23, Type (0, 0), BuildingBlock: UVAHIK_clean_linker_0, # of connection points: 2
# Relax obj value: 0.336
# Max RMSD: 0.251
# Mean RMSD: 0.251
data_MOF--net-smt--node1-VOLQOD_clean_sbu_1--edge1-UVAHIK_clean_linker_0
_symmetry_space_group_name_H-M    P1
_symmetry_Int_Tables_number       1
_symmetry_cell_setting            triclinic
loop_
_symmetry_equiv_pos_as_xyz
'x, y, z'
_cell_length_a     45.914792
_cell_length_b     45.972328
_cell_length_c     34.066573
_cell_angle_alpha  90.051691
_cell_angle_beta   89.976009
_cell_angle_gamma 119.99398
loop_
_atom_site_label
_atom_site_type_symbol
_atom_site_fract_x
_atom_site_fract_y
_atom_site_fract_z
_atom_type_partial_charge
O0 O 0.44459 0.04434 0.04277 0.0
Zn1 Zn 0.4611 0.08519 0.00881 0.0
O2 O 0.42957 0.10163 0.00928 0.0
Zn3 Zn 0.416 0.10421 0.95596 0.0
Zn4 Zn 0.3904 0.07148 0.03941 0.0
Zn5 Zn 0.45044 0.14536 0.03397 0.0
O6 O 0.42873 0.15158 0.94198 0.0
O7 O 0.46079 0.18025 0.99273 0.0
O8 O 0.4707 0.07574 0.95433 0.0
O9 O 0.44082 0.09127 0.9178 0.0
O10 O 0.36698 0.07084 0.94649 0.0
O11 O 0.35212 0.04423 0.00377 0.0
O12 O 0.37579 0.09636 0.07466 0.0
O13 O 0.50473 0.11854 0.03364 0.0
O14 O 0.41909 0.14838 0.0729 0.0
O15 O 0.49376 0.15597 0.06075 0.0
C16 C 0.42123 0.03124 0.06826 0.0
C17 C 0.44909 0.17932 0.95854 0.0
C18 C 0.34549 0.04747 0.96834 0.0
C19 C 0.46114 0.08016 0.92092 0.0
C20 C 0.39004 0.12687 0.08552 0.0
C21 C 0.51321 0.14401 0.05546 0.0
O22 O 0.39955 0.04063 0.07177 0.0
O23 O 0.41339 0.46669 0.22029 0.0
Zn24 Zn 0.39195 0.47865 0.17616 0.0
O25 O 0.34343 0.44922 0.17558 0.0
Zn26 Zn 0.3286 0.42459 0.12606 0.0
Zn27 Zn 0.33065 0.41805 0.21882 0.0
Zn28 Zn 0.32174 0.4756 0.18277 0.0
O29 O 0.29607 0.43466 0.09732 0.0
O30 O 0.29997 0.47694 0.13295 0.0
O31 O 0.41215 0.47827 0.1239 0.0
O32 O 0.36807 0.4406 0.08982 0.0
O33 O 0.30883 0.3746 0.13429 0.0
O34 O 0.31495 0.37208 0.19867 0.0
O35 O 0.29105 0.4139 0.24799 0.0
O36 O 0.4036 0.52621 0.18695 0.0
O37 O 0.28369 0.45359 0.22103 0.0
O38 O 0.35453 0.5231 0.1985 0.0
C39 C 0.40089 0.44847 0.25072 0.0
C40 C 0.28942 0.45817 0.10276 0.0
C41 C 0.30603 0.3579 0.16532 0.0
C42 C 0.39931 0.462 0.09231 0.0
C43 C 0.27442 0.42906 0.2446 0.0
C44 C 0.38651 0.53995 0.19672 0.0
O45 O 0.36923 0.43006 0.25505 0.0
O46 O 0.94663 0.39565 0.38274 0.0
Zn47 Zn 0.9059 0.3735 0.34818 0.0
O48 O 0.88564 0.32494 0.34831 0.0
Zn49 Zn 0.88412 0.30878 0.29503 0.0
Zn50 Zn 0.91257 0.31323 0.38091 0.0
Zn51 Zn 0.84066 0.30442 0.37029 0.0
O52 O 0.83658 0.27524 0.27905 0.0
O53 O 0.80704 0.28019 0.32773 0.0
O54 O 0.91689 0.39262 0.29382 0.0
O55 O 0.89927 0.34698 0.25704 0.0
O56 O 0.91625 0.29101 0.28815 0.0
O57 O 0.93804 0.29809 0.34803 0.0
O58 O 0.88437 0.27538 0.4166 0.0
O59 O 0.87461 0.38676 0.37238 0.0
O60 O 0.83372 0.26988 0.41129 0.0
O61 O 0.83115 0.33916 0.39357 0.0
C62 C 0.95727 0.38383 0.40933 0.0
C63 C 0.80856 0.26883 0.29413 0.0
C64 C 0.93651 0.28931 0.31236 0.0
C65 C 0.91194 0.37862 0.26034 0.0
C66 C 0.85351 0.26093 0.4261 0.0
C67 C 0.84676 0.37105 0.39057 0.0
O68 O 0.94503 0.35233 0.41337 0.0
O69 O 0.51202 0.94303 0.54706 0.0
Zn70 Zn 0.49809 0.90948 0.50274 0.0
O71 O 0.52707 0.89005 0.49986 0.0
Zn72 Zn 0.55351 0.90248 0.45181 0.0
Zn73 Zn 0.55631 0.90445 0.54477 0.0
Zn74 Zn 0.50013 0.84201 0.50098 0.0
O75 O 0.54404 0.86185 0.41899 0.0
O76 O 0.49661 0.8236 0.44726 0.0
O77 O 0.49801 0.93041 0.45099 0.0
O78 O 0.53828 0.92769 0.41772 0.0
O79 O 0.60318 0.93203 0.46278 0.0
O80 O 0.60333 0.93498 0.52782 0.0
O81 O 0.5575 0.86631 0.57085 0.0
O82 O 0.4506 0.87382 0.51545 0.0
O83 O 0.52226 0.82275 0.53448 0.0
O84 O 0.45361 0.82722 0.52003 0.0
C85 C 0.52889 0.94622 0.57809 0.0
C86 C 0.51745 0.8331 0.41897 0.0
C87 C 0.61878 0.94309 0.49518 0.0
C88 C 0.51575 0.93605 0.42013 0.0
C89 C 0.54415 0.83546 0.56165 0.0
C90 C 0.43702 0.84254 0.52272 0.0
O91 O 0.54483 0.93039 0.58243 0.0
O92 O 0.58865 0.5372 0.71753 0.0
Zn93 Zn 0.61429 0.52467 0.68002 0.0
O94 O 0.66193 0.55784 0.68074 0.0
Zn95 Zn 0.67674 0.57425 0.62764 0.0
Zn96 Zn 0.66933 0.5947 0.71467 0.0
Zn97 Zn 0.68708 0.53776 0.70171 0.0
O98 O 0.71148 0.56286 0.6092 0.0
O99 O 0.71362 0.53227 0.65848 0.0
O100 O 0.59429 0.51726 0.62609 0.0
O101 O 0.6384 0.55123 0.5897 0.0
O102 O 0.69231 0.62366 0.62316 0.0
O103 O 0.68085 0.6351 0.68274 0.0
O104 O 0.70821 0.60805 0.75066 0.0
O105 O 0.60659 0.48063 0.70032 0.0
O106 O 0.71995 0.56711 0.74301 0.0
O107 O 0.65607 0.49229 0.72491 0.0
C108 C 0.59788 0.55971 0.74395 0.0
C109 C 0.72208 0.54443 0.62404 0.0
C110 C 0.69083 0.64385 0.64765 0.0
C111 C 0.60735 0.5295 0.59288 0.0
C112 C 0.72561 0.59445 0.75913 0.0
C113 C 0.62481 0.47209 0.71967 0.0
O114 O 0.62848 0.58275 0.74728 0.0
O115 O 0.03205 0.56861 0.88523 0.0
Zn116 Zn 0.06484 0.58459 0.84057 0.0
O117 O 0.08705 0.63268 0.83575 0.0
Zn118 Zn 0.07424 0.64661 0.78808 0.0
Zn119 Zn 0.07678 0.65053 0.88136 0.0
Zn120 Zn 0.13443 0.64993 0.83304 0.0
O121 O 0.11478 0.67729 0.75461 0.0
O122 O 0.14973 0.66117 0.77782 0.0
O123 O 0.04292 0.56306 0.78971 0.0
O124 O 0.04794 0.60589 0.75417 0.0
O125 O 0.04596 0.6678 0.80067 0.0
O126 O 0.04632 0.66777 0.86591 0.0
O127 O 0.11816 0.69053 0.90237 0.0
O128 O 0.09808 0.56971 0.85404 0.0
O129 O 0.15804 0.69282 0.86341 0.0
O130 O 0.14734 0.61694 0.8525 0.0
C131 C 0.03289 0.58314 0.91745 0.0
C132 C 0.14135 0.67521 0.75153 0.0
C133 C 0.03686 0.67406 0.8335 0.0
C134 C 0.03823 0.57477 0.75797 0.0
C135 C 0.14848 0.70537 0.89035 0.0
C136 C 0.12988 0.58544 0.85837 0.0
O137 O 0.05218 0.61468 0.92198 0.0
C138 C 0.28784 -0.00136 0.97541 0.0
C139 C 0.31491 0.01968 0.95094 0.0
C140 C 0.26436 0.96632 0.96313 0.0
C141 C 0.27035 0.9033 0.91003 0.0
H142 H 0.17461 0.84754 0.92831 0.0
C143 C 0.19922 0.76133 0.8792 0.0
C144 C 0.17102 0.74052 0.90232 0.0
C145 C 0.21604 0.79604 0.88422 0.0
C146 C 0.20146 0.86274 0.92365 0.0
H147 H 0.3363 0.02529 0.89277 0.0
H148 H 0.29539 0.9685 0.87154 0.0
H149 H 0.20091 0.90861 0.93325 0.0
H150 H 0.1402 0.73953 0.95117 0.0
H151 H 0.17064 0.80013 0.96119 0.0
H152 H 0.27165 0.85791 0.90258 0.0
C153 C 0.29249 0.97701 0.90019 0.0
C154 C 0.21632 0.89764 0.92591 0.0
C155 C 0.31573 0.00954 0.91226 0.0
C156 C 0.16168 0.75494 0.93267 0.0
C157 C 0.17883 0.78969 0.93804 0.0
C158 C 0.25567 0.86851 0.90839 0.0
C159 C 0.26792 0.95461 0.92643 0.0
C160 C 0.25089 0.91815 0.91916 0.0
C161 C 0.20542 0.81071 0.91291 0.0
C162 C 0.22108 0.84777 0.91533 0.0
H163 H 0.28652 0.00605 0.00526 0.0
H164 H 0.24558 0.94949 0.98386 0.0
H165 H 0.29726 0.91859 0.90576 0.0
H166 H 0.20701 0.75109 0.85542 0.0
H167 H 0.23625 0.81139 0.86414 0.0
C168 C 0.286 0.30236 0.19733 0.0
C169 C 0.29472 0.32175 0.16287 0.0
C170 C 0.2817 0.27014 0.19674 0.0
C171 C 0.31203 0.22546 0.19139 0.0
H172 H 0.2833 0.16498 0.10224 0.0
C173 C 0.38748 0.17031 0.12692 0.0
C174 C 0.37105 0.13827 0.10978 0.0
C175 C 0.36892 0.18338 0.14412 0.0
C176 C 0.29077 0.18105 0.12789 0.0
H177 H 0.30243 0.32144 0.10013 0.0
H178 H 0.29567 0.26543 0.09918 0.0
H179 H 0.26258 0.2043 0.10968 0.0
H180 H 0.32243 0.09376 0.09969 0.0
H181 H 0.29002 0.11703 0.12924 0.0
H182 H 0.34175 0.2036 0.20831 0.0
C183 C 0.29183 0.27495 0.12663 0.0
C184 C 0.27914 0.20374 0.13193 0.0
C185 C 0.29596 0.30717 0.12717 0.0
C186 C 0.33582 0.11863 0.11253 0.0
C187 C 0.31722 0.1319 0.12934 0.0
C188 C 0.32373 0.20291 0.18726 0.0
C189 C 0.28619 0.25677 0.16174 0.0
C190 C 0.29092 0.22721 0.16271 0.0
C191 C 0.3336 0.16476 0.14419 0.0
C192 C 0.31446 0.18165 0.15448 0.0
H193 H 0.28414 0.31268 0.22521 0.0
H194 H 0.27675 0.25644 0.22409 0.0
H195 H 0.32176 0.24334 0.21535 0.0
H196 H 0.41459 0.18591 0.12551 0.0
H197 H 0.3822 0.20895 0.15502 0.0
C198 C 0.97922 0.29699 0.26262 0.0
C199 C 0.96302 0.28291 0.29824 0.0
C200 C 0.01138 0.30207 0.25558 0.0
C201 C 0.08382 0.31922 0.31684 0.0
H202 H 0.12846 0.3388 0.2158 0.0
C203 C 0.22909 0.38583 0.28729 0.0
C204 C 0.24019 0.41316 0.26131 0.0
C205 C 0.19478 0.36507 0.2947 0.0
C206 C 0.11619 0.33323 0.24419 0.0
H207 H 0.96492 0.25835 0.35161 0.0
H208 H 0.0203 0.26552 0.3384 0.0
H209 H 0.06736 0.30364 0.21894 0.0
H210 H 0.22422 0.44172 0.22543 0.0
H211 H 0.16449 0.40524 0.23819 0.0
H212 H 0.13297 0.34909 0.3418 0.0
C213 C 0.00911 0.2742 0.31676 0.0
C214 C 0.08129 0.31318 0.24603 0.0
C215 C 0.97726 0.26975 0.32415 0.0
C216 C 0.21659 0.42087 0.24549 0.0
C217 C 0.18237 0.39983 0.25239 0.0
C218 C 0.11879 0.33877 0.31499 0.0
C219 C 0.0275 0.2926 0.2838 0.0
C220 C 0.06454 0.30701 0.28225 0.0
C221 C 0.17123 0.37116 0.27584 0.0
C222 C 0.13501 0.3469 0.27856 0.0
H223 H 0.96876 0.30742 0.24222 0.0
H224 H 0.02465 0.31634 0.22984 0.0
H225 H 0.07193 0.31554 0.34526 0.0
H226 H 0.24668 0.37933 0.30006 0.0
H227 H 0.18656 0.3432 0.31324 0.0
C228 C 0.85905 0.21523 0.45853 0.0
C229 C 0.83977 0.23067 0.45101 0.0
C230 C 0.84423 0.18333 0.47536 0.0
C231 C 0.76833 0.11796 0.52527 0.0
H232 H 0.77501 0.05664 0.45233 0.0
C233 C 0.67227 0.97928 0.53124 0.0
C234 C 0.6549 0.96854 0.49535 0.0
C235 C 0.70394 0.008 0.53287 0.0
C236 C 0.77332 0.07344 0.47334 0.0
H237 H 0.7908 0.22623 0.45862 0.0
H238 H 0.76502 0.17064 0.48823 0.0
H239 H 0.81397 0.11694 0.44677 0.0
H240 H 0.6586 0.97733 0.43253 0.0
H241 H 0.71379 0.02772 0.43544 0.0
H242 H 0.72628 0.07482 0.55016 0.0
C243 C 0.79153 0.18314 0.48095 0.0
C244 C 0.79573 0.10788 0.47039 0.0
C245 C 0.80622 0.21487 0.46373 0.0
C246 C 0.67121 0.98513 0.46065 0.0
C247 C 0.70296 0.01389 0.4623 0.0
C248 C 0.74612 0.08354 0.52843 0.0
C249 C 0.81007 0.16659 0.48548 0.0
C250 C 0.79239 0.13049 0.4952 0.0
C251 C 0.71885 0.02643 0.49867 0.0
C252 C 0.74747 0.06113 0.50135 0.0
H253 H 0.88507 0.22683 0.44932 0.0
H254 H 0.85905 0.17113 0.47883 0.0
H255 H 0.76544 0.13493 0.54487 0.0
H256 H 0.66065 0.96664 0.55847 0.0
H257 H 0.71592 0.01688 0.56117 0.0
C258 C 0.58172 0.82877 0.60927 0.0
C259 C 0.55927 0.81618 0.57741 0.0
C260 C 0.60211 0.81518 0.61835 0.0
C261 C 0.64273 0.7747 0.57003 0.0
H262 H 0.65018 0.74391 0.67333 0.0
C263 C 0.68405 0.67845 0.59654 0.0
C264 C 0.69524 0.67611 0.63406 0.0
C265 C 0.67742 0.70425 0.58805 0.0
C266 C 0.64929 0.7533 0.64449 0.0
H267 H 0.53895 0.77804 0.53183 0.0
H268 H 0.57465 0.75446 0.54778 0.0
H269 H 0.61514 0.76922 0.66416 0.0
H270 H 0.71319 0.70122 0.69004 0.0
H271 H 0.70317 0.74724 0.67459 0.0
H272 H 0.67666 0.7587 0.55012 0.0
C273 C 0.57666 0.77507 0.5653 0.0
C274 C 0.62889 0.76745 0.63927 0.0
C275 C 0.55596 0.78831 0.55655 0.0
C276 C 0.70398 0.70226 0.66108 0.0
C277 C 0.69796 0.7284 0.65234 0.0
C278 C 0.66354 0.76099 0.5753 0.0
C279 C 0.60059 0.78911 0.59542 0.0
C280 C 0.62465 0.77725 0.6018 0.0
C281 C 0.68242 0.72835 0.6168 0.0
C282 C 0.66622 0.74914 0.61236 0.0
H283 H 0.58475 0.85018 0.62595 0.0
H284 H 0.62025 0.82617 0.64194 0.0
H285 H 0.6403 0.78281 0.54096 0.0
H286 H 0.67712 0.65856 0.57519 0.0
H287 H 0.66545 0.70333 0.56034 0.0
C288 C -0.00399 0.68683 0.80007 0.0
C289 C 0.01235 0.68596 0.8345 0.0
C290 C 0.96839 0.6917 0.80218 0.0
C291 C 0.89974 0.6689 0.86918 0.0
H292 H 0.86808 0.70269 0.785 0.0
C293 C 0.76941 0.6472 0.79131 0.0
C294 C 0.75507 0.61244 0.78502 0.0
C295 C 0.80063 0.66537 0.80975 0.0
C296 C 0.87664 0.6938 0.8094 0.0
H297 H 0.015 0.69338 0.89769 0.0
H298 H 0.96674 0.70177 0.90122 0.0
H299 H 0.92817 0.72329 0.79187 0.0
H300 H 0.76056 0.569 0.79621 0.0
H301 H 0.81482 0.60059 0.82853 0.0
H302 H 0.84804 0.63778 0.88508 0.0
C303 C 0.97494 0.69811 0.87274 0.0
C304 C 0.91099 0.70539 0.81309 0.0
C305 C 0.00253 0.69323 0.87065 0.0
C306 C 0.77114 0.59579 0.80033 0.0
C307 C 0.80208 0.61386 0.81919 0.0
C308 C 0.86543 0.65723 0.86538 0.0
C309 C 0.95668 0.69586 0.83875 0.0
C310 C 0.92264 0.69168 0.84171 0.0
C311 C 0.81768 0.64897 0.82274 0.0
C312 C 0.85347 0.66825 0.83418 0.0
H313 H 0.00313 0.68163 0.77173 0.0
H314 H 0.9547 0.68956 0.77544 0.0
H315 H 0.90788 0.65773 0.89149 0.0
H316 H 0.75754 0.66072 0.77993 0.0
H317 H 0.81213 0.69239 0.81229 0.0
C318 C 0.40244 0.00056 0.13206 0.0
C319 C 0.42292 0.00913 0.09848 0.0
C320 C 0.40968 0.98727 0.16499 0.0
C321 C 0.48404 -0.00596 0.21121 0.0
H322 H 0.421 0.9302 0.28619 0.0
C323 C 0.52607 0.95381 0.34991 0.0
C324 C 0.50739 0.94865 0.38449 0.0
C325 C 0.51536 0.96059 0.31461 0.0
C326 C 0.43882 0.94838 0.26568 0.0
H327 H 0.46449 0.0067 0.07142 0.0
H328 H 0.47677 0.98312 0.12876 0.0
H329 H 0.4005 0.93783 0.223 0.0
H330 H 0.46371 0.94833 0.40948 0.0
H331 H 0.44537 0.96084 0.34775 0.0
H332 H 0.52226 0.0051 0.25391 0.0
C333 C 0.45575 0.98758 0.12994 0.0
C334 C 0.42712 0.95254 0.22947 0.0
C335 C 0.44856 0.0009 0.09705 0.0
C336 C 0.47864 0.95208 0.38335 0.0
C337 C 0.46792 0.95888 0.34795 0.0
C338 C 0.4957 0.98995 0.24735 0.0
C339 C 0.43741 0.98221 0.16481 0.0
C340 C 0.44964 0.97546 0.20194 0.0
C341 C 0.48579 0.96248 0.3131 0.0
C342 C 0.47322 0.96717 0.27501 0.0
H343 H 0.38231 0.00631 0.13403 0.0
H344 H 0.39508 0.98332 0.19145 0.0
H345 H 0.50189 0.01251 0.19096 0.0
H346 H 0.54836 0.95138 0.3497 0.0
H347 H 0.52957 0.96306 0.2882 0.0
C348 C 0.40983 0.43053 0.31676 0.0
C349 C 0.42331 0.45052 0.28306 0.0
C350 C 0.43015 0.43506 0.34923 0.0
C351 C 0.51818 0.47342 0.38299 0.0
H352 H 0.48089 0.48067 0.48228 0.0
C353 C 0.59964 0.53281 0.5206 0.0
C354 C 0.58625 0.51796 0.55717 0.0
C355 C 0.57982 0.52188 0.48683 0.0
C356 C 0.49151 0.47821 0.45494 0.0
H357 H 0.46911 0.48977 0.25637 0.0
H358 H 0.50452 0.49781 0.31329 0.0
H359 H 0.44644 0.46523 0.42334 0.0
H360 H 0.54163 0.47965 0.5868 0.0
H361 H 0.50718 0.46037 0.52775 0.0
H362 H 0.56343 0.48678 0.41465 0.0
C363 C 0.47825 0.47852 0.31443 0.0
C364 C 0.47176 0.46935 0.42115 0.0
C365 C 0.45791 0.474 0.28188 0.0
C366 C 0.55266 0.49179 0.55916 0.0
C367 C 0.53288 0.4808 0.52534 0.0
C368 C 0.53794 0.48221 0.41686 0.0
C369 C 0.46438 0.45964 0.34875 0.0
C370 C 0.48495 0.4671 0.38478 0.0
C371 C 0.54621 0.49581 0.48883 0.0
C372 C 0.52489 0.48497 0.45314 0.0
H373 H 0.38335 0.41196 0.31854 0.0
H374 H 0.41891 0.41974 0.37506 0.0
H375 H 0.52887 0.47153 0.35541 0.0
H376 H 0.6254 0.55308 0.51802 0.0
H377 H 0.59068 0.5343 0.45925 0.0
C378 C 0.02404 0.56609 0.6865 0.0
C379 C 0.02615 0.55293 0.72294 0.0
C380 C 0.01904 0.54768 0.65212 0.0
C381 C -0.00798 0.46289 0.61383 0.0
H382 H 0.04844 0.51192 0.52524 0.0
C383 C 0.98683 0.39344 0.47363 0.0
C384 C 0.97939 0.40662 0.44036 0.0
C385 C -0.00064 0.41282 0.50754 0.0
C386 C 0.03259 0.49795 0.54977 0.0
H387 H 0.02249 0.5092 0.75205 0.0
H388 H 0.01389 0.47723 0.69208 0.0
H389 H 0.05244 0.54162 0.58626 0.0
H390 H 0.98318 0.45171 0.41498 0.0
H391 H 0.00482 0.48532 0.47415 0.0
H392 H 0.97185 0.41934 0.57729 0.0
C393 C 0.01609 0.50176 0.69009 0.0
C394 C 0.03466 0.51494 0.58455 0.0
C395 C 0.02103 0.52013 0.72449 0.0
C396 C 0.98826 0.44066 0.44025 0.0
C397 C 0.0008 0.46001 0.47417 0.0
C398 C -0.00998 0.44592 0.57912 0.0
C399 C 0.01602 0.51575 0.65348 0.0
C400 C 0.0141 0.49763 0.61677 0.0
C401 C 0.00479 0.4457 0.50869 0.0
C402 C 0.01004 0.46332 0.54662 0.0
H403 H 0.02765 0.59119 0.68426 0.0
H404 H 0.01827 0.55876 0.62436 0.0
H405 H 0.97564 0.44895 0.638 0.0
H406 H 0.98076 0.36746 0.47453 0.0
H407 H 0.00299 0.40146 0.53355 0.0
C408 C 0.54869 0.97234 0.64415 0.0
C409 C 0.52882 0.96741 0.61069 0.0
C410 C 0.54646 0.98962 0.67658 0.0
C411 C 0.51614 0.04606 0.7106 0.0
H412 H 0.50485 0.00028 0.80983 0.0
C413 C 0.46035 0.07299 0.84806 0.0
C414 C 0.47351 0.07192 0.88494 0.0
C415 C 0.47113 0.06409 0.81418 0.0
C416 C 0.50857 0.01375 0.78253 0.0
H417 H 0.49221 0.97817 0.58433 0.0
H418 H 0.48808 0.00811 0.6413 0.0
H419 H 0.5171 0.97861 0.75084 0.0
H420 H 0.50912 0.06171 0.915 0.0
H421 H 0.52821 0.04658 0.85574 0.0
H422 H 0.50709 0.08097 0.74238 0.0
C423 C 0.50554 -0.00124 0.64223 0.0
C424 C 0.51556 0.00131 0.7487 0.0
C425 C 0.50778 0.98146 0.6097 0.0
C426 C 0.49824 0.0625 0.88709 0.0
C427 C 0.50912 0.05374 0.85316 0.0
C428 C 0.50924 0.05861 0.74454 0.0
C429 C 0.52432 0.00234 0.67629 0.0
C430 C 0.5191 0.01713 0.71234 0.0
C431 C 0.49539 0.05406 0.81641 0.0
C432 C 0.50502 0.04235 0.78078 0.0
H433 H 0.56548 0.96221 0.64574 0.0
H434 H 0.56165 0.99252 0.7022 0.0
H435 H 0.5191 0.05894 0.683 0.0
H436 H 0.44123 0.0801 0.84536 0.0
H437 H 0.45971 0.06416 0.78638 0.0
C438 C 0.40638 0.45289 0.02136 0.0
C439 C 0.42021 0.47051 0.0565 0.0
C440 C 0.42453 0.46343 0.98638 0.0
C441 C 0.49256 0.53861 0.93941 0.0
H442 H 0.49315 0.47484 0.86534 0.0
C443 C 0.58464 0.57555 0.80907 0.0
C444 C 0.57354 0.55595 0.77477 0.0
C445 C 0.56345 0.56739 0.84158 0.0
C446 C 0.49272 0.49294 0.88537 0.0
H447 H 0.46452 0.5123 0.08267 0.0
H448 H 0.49633 0.5304 0.02156 0.0
H449 H 0.46257 0.45472 0.92687 0.0
H450 H 0.53046 0.51439 0.74642 0.0
H451 H 0.49338 0.5006 0.80292 0.0
H452 H 0.52299 0.57687 0.89796 0.0
C453 C 0.4712 0.50877 0.02108 0.0
C454 C 0.47535 0.4814 0.9207 0.0
C455 C 0.45309 0.49817 0.05613 0.0
C456 C 0.53996 0.52975 0.77256 0.0
C457 C 0.51876 0.52167 0.80502 0.0
C458 C 0.50992 0.55017 0.90399 0.0
C459 C 0.45687 0.49182 0.98576 0.0
C460 C 0.47526 0.50411 0.9482 0.0
C461 C 0.53071 0.53958 0.84035 0.0
C462 C 0.51033 0.52746 0.87668 0.0
H463 H 0.38112 0.43148 0.02056 0.0
H464 H 0.41277 0.44997 0.95958 0.0
H465 H 0.49243 0.55665 0.95978 0.0
H466 H 0.61032 0.59598 0.81174 0.0
H467 H 0.57344 0.58163 0.86839 0.0
C468 C -0.00822 0.5276 0.94652 0.0
C469 C 0.01294 0.56243 0.95103 0.0
C470 C 0.97602 0.50734 0.979 0.0
C471 C 0.95389 0.50788 0.08319 0.0
H472 H 0.9643 0.42931 0.08939 0.0
C473 C 0.93644 0.43454 0.22697 0.0
C474 C 0.92053 0.39935 0.22447 0.0
C475 C 0.94458 0.45401 0.19298 0.0
C476 C 0.96069 0.45084 0.08789 0.0
H477 H 0.03262 0.60353 0.99293 0.0
H478 H 0.00533 0.56802 0.04974 0.0
H479 H 0.98255 0.464 0.03074 0.0
H480 H 0.90009 0.357 0.18428 0.0
H481 H 0.91399 0.39093 0.12513 0.0
H482 H 0.93237 0.49482 0.14072 0.0
C483 C 0.00082 0.55646 0.02099 0.0
C484 C 0.97112 0.4707 0.05426 0.0
C485 C 0.01659 0.57677 0.98846 0.0
C486 C 0.9126 0.38404 0.18728 0.0
C487 C 0.92065 0.4035 0.15335 0.0
C488 C 0.94335 0.48793 0.1169 0.0
C489 C 0.9811 0.52146 0.01669 0.0
C490 C 0.96802 0.49952 0.05163 0.0
C491 C 0.93692 0.43868 0.15581 0.0
C492 C 0.94686 0.45931 0.11966 0.0
H493 H 0.98809 0.51574 0.91803 0.0
H494 H 0.96045 0.48049 0.97475 0.0
H495 H 0.95095 0.52982 0.08179 0.0
H496 H 0.9429 0.44713 0.25519 0.0
H497 H 0.95751 0.48109 0.1958 0.0
C498 C 0.44866 0.21125 0.89922 0.0
C499 C 0.46242 0.2108 0.9359 0.0
C500 C 0.46428 0.23979 0.87549 0.0
C501 C 0.52997 0.33028 0.87591 0.0
H502 H 0.53619 0.31461 0.76508 0.0
C503 C 0.6231 0.43409 0.77309 0.0
C504 C 0.60828 0.43931 0.73977 0.0
C505 C 0.60512 0.40518 0.79574 0.0
C506 C 0.5345 0.31926 0.79595 0.0
H507 H 0.50256 0.24045 0.97714 0.0
H508 H 0.53013 0.28966 0.93555 0.0
H509 H 0.50302 0.26706 0.80844 0.0
H510 H 0.56395 0.41749 0.70259 0.0
H511 H 0.53286 0.36664 0.74185 0.0
H512 H 0.56231 0.38246 0.86338 0.0
C513 C 0.50699 0.26831 0.92524 0.0
C514 C 0.5153 0.29214 0.82075 0.0
C515 C 0.4912 0.23996 0.9491 0.0
C516 C 0.57595 0.41421 0.72825 0.0
C517 C 0.55819 0.3851 0.75058 0.0
C518 C 0.5495 0.35731 0.85121 0.0
C519 C 0.49413 0.26834 0.88781 0.0
C520 C 0.51291 0.29732 0.86107 0.0
C521 C 0.57228 0.38082 0.78508 0.0
C522 C 0.55203 0.352 0.81109 0.0
H523 H 0.42634 0.18927 0.88835 0.0
H524 H 0.4533 0.23925 0.84719 0.0
H525 H 0.5282 0.33525 0.90664 0.0
H526 H 0.64794 0.45302 0.78274 0.0
H527 H 0.6166 0.40217 0.82205 0.0
C528 C 0.18193 0.58249 0.87093 0.0
C529 C 0.14673 0.56719 0.87237 0.0
C530 C 0.19819 0.56689 0.88794 0.0
C531 C 0.18531 0.48763 0.9332 0.0
H532 H 0.25923 0.54936 -0.00052 0.0
C533 C 0.25966 0.48828 0.08169 0.0
C534 C 0.27026 0.46512 0.07306 0.0
C535 C 0.24445 0.49772 0.05306 0.0
C536 C 0.23864 0.5318 0.98109 0.0
H537 H 0.10084 0.52267 0.89075 0.0
H538 H 0.12933 0.4959 0.92148 0.0
H539 H 0.23367 0.57107 0.95468 0.0
H540 H 0.27172 0.43247 0.028 0.0
H541 H 0.24494 0.44925 0.97752 0.0
H542 H 0.18972 0.44822 0.96133 0.0
C543 C 0.14434 0.51968 0.90665 0.0
C544 C 0.22427 0.54426 0.955 0.0
C545 C 0.12803 0.53516 0.88929 0.0
C546 C 0.26391 0.45045 0.0355 0.0
C547 C 0.24858 0.45998 0.00666 0.0
C548 C 0.19982 0.4751 0.95943 0.0
C549 C 0.17964 0.53585 0.90714 0.0
C550 C 0.19705 0.52233 0.93124 0.0
C551 C 0.2395 0.48433 0.01502 0.0
C552 C 0.22608 0.49709 0.98426 0.0
H553 H 0.19703 0.60692 0.8575 0.0
H554 H 0.22541 0.57966 0.88712 0.0
H555 H 0.16455 0.47015 0.91498 0.0
H556 H 0.26365 0.4997 0.11047 0.0
H557 H 0.23694 0.51594 0.06057 0.0
C558 C 0.57009 0.15056 0.06577 0.0
C559 C 0.54527 0.15827 0.07717 0.0
C560 C 0.59914 0.16147 0.08826 0.0
C561 C 0.62897 0.18272 0.18851 0.0
H562 H 0.71845 0.22816 0.14331 0.0
C563 C 0.74768 0.24917 0.28365 0.0
C564 C 0.77733 0.2503 0.27089 0.0
C565 C 0.71908 0.23506 0.26002 0.0
C566 C 0.69363 0.2149 0.15632 0.0
H567 H 0.53176 0.18405 0.12057 0.0
H568 H 0.58243 0.20275 0.16014 0.0
H569 H 0.66957 0.21062 0.10098 0.0
H570 H 0.79969 0.23598 0.22403 0.0
H571 H 0.7493 0.21035 0.18318 0.0
H572 H 0.65263 0.18633 0.24367 0.0
C573 C 0.57928 0.18827 0.13377 0.0
C574 C 0.66571 0.20511 0.13208 0.0
C575 C 0.55046 0.17779 0.11098 0.0
C576 C 0.7773 0.23571 0.23461 0.0
C577 C 0.7485 0.22125 0.21106 0.0
C578 C 0.6568 0.19209 0.21266 0.0
C579 C 0.60365 0.17986 0.12283 0.0
C580 C 0.63321 0.18939 0.1481 0.0
C581 C 0.71925 0.22134 0.22319 0.0
C582 C 0.68952 0.20877 0.19698 0.0
H583 H 0.56686 0.13564 0.03977 0.0
H584 H 0.61756 0.15462 0.0793 0.0
H585 H 0.60406 0.17006 0.2014 0.0
H586 H 0.74681 0.26031 0.31135 0.0
H587 H 0.69724 0.23608 0.27011 0.0
C588 C 0.53497 0.81181 0.36078 0.0
C589 C 0.50956 0.81033 0.38516 0.0
C590 C 0.5268 0.78861 0.33019 0.0
C591 C 0.45652 0.72875 0.26826 0.0
H592 H 0.49655 0.67206 0.27558 0.0
C593 C 0.38644 0.59095 0.22229 0.0
C594 C 0.40431 0.57598 0.20729 0.0
C595 C 0.40344 0.62435 0.23466 0.0
C596 C 0.48563 0.68805 0.27233 0.0
H597 H 0.45574 0.78466 0.39561 0.0
H598 H 0.44161 0.74478 0.34223 0.0
H599 H 0.52014 0.72388 0.31361 0.0
H600 H 0.45401 0.58484 0.19188 0.0
H601 H 0.4836 0.64331 0.21315 0.0
H602 H 0.42132 0.69251 0.22804 0.0
C603 C 0.46775 0.76361 0.34671 0.0
C604 C 0.49919 0.71773 0.29413 0.0
C605 C 0.4759 0.78622 0.37755 0.0
C606 C 0.43948 0.59552 0.20365 0.0
C607 C 0.45648 0.629 0.2159 0.0
C608 C 0.44313 0.69926 0.24623 0.0
C609 C 0.49309 0.76427 0.32307 0.0
C610 C 0.48388 0.73758 0.29346 0.0
C611 C 0.43869 0.64363 0.23211 0.0
C612 C 0.45668 0.67787 0.24929 0.0
H613 H 0.56112 0.83019 0.36606 0.0
H614 H 0.54675 0.78947 0.31234 0.0
H615 H 0.44456 0.74393 0.26694 0.0
H616 H 0.35936 0.57665 0.22551 0.0
H617 H 0.38897 0.63462 0.24763 0.0
C618 C 0.80175 0.37451 0.42846 0.0
C619 C 0.83355 0.39064 0.41052 0.0
C620 C 0.7905 0.39307 0.44959 0.0
C621 C 0.78363 0.43441 0.51402 0.0
H622 H 0.80338 0.52321 0.4812 0.0
C623 C 0.7573 0.51735 0.61634 0.0
C624 C 0.74161 0.53383 0.59939 0.0
C625 C 0.77141 0.50284 0.59268 0.0
C626 C 0.79751 0.49838 0.49067 0.0
H627 H 0.8782 0.43903 0.40004 0.0
H628 H 0.85891 0.47112 0.43747 0.0
H629 H 0.81929 0.49053 0.43909 0.0
H630 H 0.7299 0.54948 0.54436 0.0
H631 H 0.7539 0.52356 0.50309 0.0
H632 H 0.76084 0.44167 0.56488 0.0
C633 C 0.84236 0.44426 0.43469 0.0
C634 C 0.8069 0.47977 0.46672 0.0
C635 C 0.8535 0.42578 0.41337 0.0
C636 C 0.74188 0.53702 0.55834 0.0
C637 C 0.75573 0.52222 0.53465 0.0
C638 C 0.77407 0.4529 0.53781 0.0
C639 C 0.81092 0.42809 0.45344 0.0
C640 C 0.8001 0.44758 0.47816 0.0
C641 C 0.76985 0.5042 0.55155 0.0
C642 C 0.78098 0.48514 0.5265 0.0
H643 H 0.78567 0.34751 0.42658 0.0
H644 H 0.76587 0.37992 0.4631 0.0
H645 H 0.77843 0.40992 0.52401 0.0
H646 H 0.75785 0.51481 0.6479 0.0
H647 H 0.78288 0.48988 0.60664 0.0
C648 C 0.38626 0.78921 0.54354 0.0
C649 C 0.40177 0.82389 0.53639 0.0
C650 C 0.35426 0.77204 0.56008 0.0
C651 C 0.2775 0.77523 0.58309 0.0
H652 H 0.27377 0.72079 0.6719 0.0
C653 C 0.17126 0.72044 0.70137 0.0
C654 C 0.16355 0.68926 0.71732 0.0
C655 C 0.19701 0.73591 0.67351 0.0
C656 C 0.27409 0.73538 0.64678 0.0
H657 H 0.39502 0.86737 0.53896 0.0
H658 H 0.33904 0.8372 0.56836 0.0
H659 H 0.32481 0.74942 0.63338 0.0
H660 H 0.17387 0.64819 0.7143 0.0
H661 H 0.21761 0.67437 0.66488 0.0
H662 H 0.22649 0.7611 0.59703 0.0
C663 C 0.35172 0.82341 0.56092 0.0
C664 C 0.30341 0.75184 0.62475 0.0
C665 C 0.38384 0.84068 0.54432 0.0
C666 C 0.17987 0.67257 0.7029 0.0
C667 C 0.205 0.68764 0.67477 0.0
C668 C 0.24787 0.7585 0.60518 0.0
C669 C 0.33707 0.78913 0.5699 0.0
C670 C 0.3054 0.77172 0.59254 0.0
C671 C 0.21492 0.72009 0.66107 0.0
C672 C 0.24584 0.73815 0.63705 0.0
H673 H 0.39914 0.7754 0.53733 0.0
H674 H 0.34326 0.74546 0.56611 0.0
H675 H 0.27847 0.7905 0.55838 0.0
H676 H 0.15891 0.73371 0.71215 0.0
H677 H 0.20412 0.76094 0.66345 0.0
loop_
_geom_bond_atom_site_label_1
_geom_bond_atom_site_label_2
_geom_bond_distance
_geom_bond_site_symmetry_2
_ccdc_geom_bond_type
O0 Zn1 1.953 . S
O0 C16 1.225 . S
Zn1 O0 1.953 . S
Zn1 O2 1.949 . S
Zn1 O8 1.919 1_554 S
Zn1 O13 1.924 . S
O2 Zn1 1.949 . S
O2 Zn3 1.923 1_554 S
O2 Zn4 1.950 . S
O2 Zn5 1.945 . S
Zn3 O2 1.923 1_556 S
Zn3 O6 1.933 . S
Zn3 O9 1.941 . S
Zn3 O10 1.965 . S
Zn4 O2 1.950 . S
Zn4 O11 1.938 . S
Zn4 O12 1.906 . S
Zn4 O22 1.953 . S
Zn5 O2 1.945 . S
Zn5 O7 1.932 1_554 S
Zn5 O14 1.977 . S
Zn5 O15 1.910 . S
O6 Zn3 1.933 . S
O6 C17 1.226 . S
O7 Zn5 1.932 1_556 S
O7 C17 1.307 . S
O8 Zn1 1.919 1_556 S
O8 C19 1.253 . S
O9 Zn3 1.941 . S
O9 C19 1.283 . S
O10 Zn3 1.965 . S
O10 C18 1.303 . S
O11 Zn4 1.938 . S
O11 C18 1.247 1_554 S
O12 Zn4 1.906 . S
O12 C20 1.304 . S
O13 Zn1 1.924 . S
O13 C21 1.311 . S
O14 Zn5 1.977 . S
O14 C20 1.272 . S
O15 Zn5 1.910 . S
O15 C21 1.231 . S
C16 O0 1.225 . S
C16 O22 1.298 . S
C17 O6 1.226 . S
C17 O7 1.307 . S
C18 O10 1.303 . S
C18 O11 1.247 1_556 S
C19 O8 1.253 . S
C19 O9 1.283 . S
C20 O12 1.304 . S
C20 O14 1.272 . S
C21 O13 1.311 . S
C21 O15 1.231 . S
O22 Zn4 1.953 . S
O22 C16 1.298 . S
O23 Zn24 1.953 . S
O23 C39 1.225 . S
Zn24 O23 1.953 . S
Zn24 O25 1.949 . S
Zn24 O31 1.919 . S
Zn24 O36 1.924 . S
O25 Zn24 1.949 . S
O25 Zn26 1.923 . S
O25 Zn27 1.950 . S
O25 Zn28 1.945 . S
Zn26 O25 1.923 . S
Zn26 O29 1.933 . S
Zn26 O32 1.941 . S
Zn26 O33 1.965 . S
Zn27 O25 1.950 . S
Zn27 O34 1.938 . S
Zn27 O35 1.906 . S
Zn27 O45 1.953 . S
Zn28 O25 1.945 . S
Zn28 O30 1.932 . S
Zn28 O37 1.977 . S
Zn28 O38 1.910 . S
O29 Zn26 1.933 . S
O29 C40 1.226 . S
O30 Zn28 1.932 . S
O30 C40 1.307 . S
O31 Zn24 1.919 . S
O31 C42 1.253 . S
O32 Zn26 1.941 . S
O32 C42 1.283 . S
O33 Zn26 1.965 . S
O33 C41 1.303 . S
O34 Zn27 1.938 . S
O34 C41 1.247 . S
O35 Zn27 1.906 . S
O35 C43 1.304 . S
O36 Zn24 1.924 . S
O36 C44 1.311 . S
O37 Zn28 1.977 . S
O37 C43 1.272 . S
O38 Zn28 1.910 . S
O38 C44 1.231 . S
C39 O23 1.225 . S
C39 O45 1.298 . S
C40 O29 1.226 . S
C40 O30 1.307 . S
C41 O33 1.303 . S
C41 O34 1.247 . S
C42 O31 1.253 . S
C42 O32 1.283 . S
C43 O35 1.304 . S
C43 O37 1.272 . S
C44 O36 1.311 . S
C44 O38 1.231 . S
O45 Zn27 1.953 . S
O45 C39 1.298 . S
O46 Zn47 1.953 . S
O46 C62 1.225 . S
Zn47 O46 1.953 . S
Zn47 O48 1.949 . S
Zn47 O54 1.919 . S
Zn47 O59 1.924 . S
O48 Zn47 1.949 . S
O48 Zn49 1.923 . S
O48 Zn50 1.950 . S
O48 Zn51 1.945 . S
Zn49 O48 1.923 . S
Zn49 O52 1.933 . S
Zn49 O55 1.941 . S
Zn49 O56 1.965 . S
Zn50 O48 1.950 . S
Zn50 O57 1.938 . S
Zn50 O58 1.906 . S
Zn50 O68 1.953 . S
Zn51 O48 1.945 . S
Zn51 O53 1.932 . S
Zn51 O60 1.977 . S
Zn51 O61 1.910 . S
O52 Zn49 1.933 . S
O52 C63 1.226 . S
O53 Zn51 1.932 . S
O53 C63 1.307 . S
O54 Zn47 1.919 . S
O54 C65 1.253 . S
O55 Zn49 1.941 . S
O55 C65 1.283 . S
O56 Zn49 1.965 . S
O56 C64 1.303 . S
O57 Zn50 1.938 . S
O57 C64 1.247 . S
O58 Zn50 1.906 . S
O58 C66 1.304 . S
O59 Zn47 1.924 . S
O59 C67 1.311 . S
O60 Zn51 1.977 . S
O60 C66 1.272 . S
O61 Zn51 1.910 . S
O61 C67 1.231 . S
C62 O46 1.225 . S
C62 O68 1.298 . S
C63 O52 1.226 . S
C63 O53 1.307 . S
C64 O56 1.303 . S
C64 O57 1.247 . S
C65 O54 1.253 . S
C65 O55 1.283 . S
C66 O58 1.304 . S
C66 O60 1.272 . S
C67 O59 1.311 . S
C67 O61 1.231 . S
O68 Zn50 1.953 . S
O68 C62 1.298 . S
O69 Zn70 1.953 . S
O69 C85 1.225 . S
Zn70 O69 1.953 . S
Zn70 O71 1.949 . S
Zn70 O77 1.919 . S
Zn70 O82 1.924 . S
O71 Zn70 1.949 . S
O71 Zn72 1.923 . S
O71 Zn73 1.950 . S
O71 Zn74 1.945 . S
Zn72 O71 1.923 . S
Zn72 O75 1.933 . S
Zn72 O78 1.941 . S
Zn72 O79 1.965 . S
Zn73 O71 1.950 . S
Zn73 O80 1.938 . S
Zn73 O81 1.906 . S
Zn73 O91 1.953 . S
Zn74 O71 1.945 . S
Zn74 O76 1.932 . S
Zn74 O83 1.977 . S
Zn74 O84 1.910 . S
O75 Zn72 1.933 . S
O75 C86 1.226 . S
O76 Zn74 1.932 . S
O76 C86 1.307 . S
O77 Zn70 1.919 . S
O77 C88 1.253 . S
O78 Zn72 1.941 . S
O78 C88 1.283 . S
O79 Zn72 1.965 . S
O79 C87 1.303 . S
O80 Zn73 1.938 . S
O80 C87 1.247 . S
O81 Zn73 1.906 . S
O81 C89 1.304 . S
O82 Zn70 1.924 . S
O82 C90 1.311 . S
O83 Zn74 1.977 . S
O83 C89 1.272 . S
O84 Zn74 1.910 . S
O84 C90 1.231 . S
C85 O69 1.225 . S
C85 O91 1.298 . S
C86 O75 1.226 . S
C86 O76 1.307 . S
C87 O79 1.303 . S
C87 O80 1.247 . S
C88 O77 1.253 . S
C88 O78 1.283 . S
C89 O81 1.304 . S
C89 O83 1.272 . S
C90 O82 1.311 . S
C90 O84 1.231 . S
O91 Zn73 1.953 . S
O91 C85 1.298 . S
O92 Zn93 1.953 . S
O92 C108 1.225 . S
Zn93 O92 1.953 . S
Zn93 O94 1.949 . S
Zn93 O100 1.919 . S
Zn93 O105 1.924 . S
O94 Zn93 1.949 . S
O94 Zn95 1.923 . S
O94 Zn96 1.950 . S
O94 Zn97 1.945 . S
Zn95 O94 1.923 . S
Zn95 O98 1.933 . S
Zn95 O101 1.941 . S
Zn95 O102 1.965 . S
Zn96 O94 1.950 . S
Zn96 O103 1.938 . S
Zn96 O104 1.906 . S
Zn96 O114 1.953 . S
Zn97 O94 1.945 . S
Zn97 O99 1.932 . S
Zn97 O106 1.977 . S
Zn97 O107 1.910 . S
O98 Zn95 1.933 . S
O98 C109 1.226 . S
O99 Zn97 1.932 . S
O99 C109 1.307 . S
O100 Zn93 1.919 . S
O100 C111 1.253 . S
O101 Zn95 1.941 . S
O101 C111 1.283 . S
O102 Zn95 1.965 . S
O102 C110 1.303 . S
O103 Zn96 1.938 . S
O103 C110 1.247 . S
O104 Zn96 1.906 . S
O104 C112 1.304 . S
O105 Zn93 1.924 . S
O105 C113 1.311 . S
O106 Zn97 1.977 . S
O106 C112 1.272 . S
O107 Zn97 1.910 . S
O107 C113 1.231 . S
C108 O92 1.225 . S
C108 O114 1.298 . S
C109 O98 1.226 . S
C109 O99 1.307 . S
C110 O102 1.303 . S
C110 O103 1.247 . S
C111 O100 1.253 . S
C111 O101 1.283 . S
C112 O104 1.304 . S
C112 O106 1.272 . S
C113 O105 1.311 . S
C113 O107 1.231 . S
O114 Zn96 1.953 . S
O114 C108 1.298 . S
O115 Zn116 1.953 . S
O115 C131 1.225 . S
Zn116 O115 1.953 . S
Zn116 O117 1.949 . S
Zn116 O123 1.919 . S
Zn116 O128 1.924 . S
O117 Zn116 1.949 . S
O117 Zn118 1.923 . S
O117 Zn119 1.950 . S
O117 Zn120 1.945 . S
Zn118 O117 1.923 . S
Zn118 O121 1.933 . S
Zn118 O124 1.941 . S
Zn118 O125 1.965 . S
Zn119 O117 1.950 . S
Zn119 O126 1.938 . S
Zn119 O127 1.906 . S
Zn119 O137 1.953 . S
Zn120 O117 1.945 . S
Zn120 O122 1.932 . S
Zn120 O129 1.977 . S
Zn120 O130 1.910 . S
O121 Zn118 1.933 . S
O121 C132 1.226 . S
O122 Zn120 1.932 . S
O122 C132 1.307 . S
O123 Zn116 1.919 . S
O123 C134 1.253 . S
O124 Zn118 1.941 . S
O124 C134 1.283 . S
O125 Zn118 1.965 . S
O125 C133 1.303 . S
O126 Zn119 1.938 . S
O126 C133 1.247 . S
O127 Zn119 1.906 . S
O127 C135 1.304 . S
O128 Zn116 1.924 . S
O128 C136 1.311 . S
O129 Zn120 1.977 . S
O129 C135 1.272 . S
O130 Zn120 1.910 . S
O130 C136 1.231 . S
C131 O115 1.225 . S
C131 O137 1.298 . S
C132 O121 1.226 . S
C132 O122 1.307 . S
C133 O125 1.303 . S
C133 O126 1.247 . S
C134 O123 1.253 . S
C134 O124 1.283 . S
C135 O127 1.304 . S
C135 O129 1.272 . S
C136 O128 1.311 . S
C136 O130 1.231 . S
O137 Zn119 1.953 . S
O137 C131 1.298 . S
C138 C139 1.349 1_554 S
C138 C140 1.326 1_544 S
C138 H163 0.950 . S
C139 C138 1.349 1_556 S
C139 C155 1.349 . S
C140 C138 1.326 1_566 S
C140 C159 1.434 . S
C140 H164 0.946 1_556 S
C141 C158 1.574 . S
C141 C160 1.368 . S
C141 H165 0.949 . S
H142 C146 0.949 . S
C143 C144 1.349 . S
C143 C145 1.327 . S
C143 H166 0.950 . S
C144 C143 1.349 . S
C144 C156 1.349 . S
C145 C143 1.327 . S
C145 C161 1.429 . S
C145 H167 0.950 . S
C146 H142 0.949 . S
C146 C154 1.574 . S
C146 C162 1.368 . S
H147 C155 0.950 . S
H148 C153 0.950 . S
H149 C154 0.949 1_554 S
H150 C156 0.950 . S
H151 C157 0.950 . S
H152 C158 0.949 . S
C153 H148 0.950 . S
C153 C155 1.327 1_565 S
C153 C159 1.429 . S
C154 C146 1.574 . S
C154 H149 0.949 1_556 S
C154 C160 1.368 . S
C155 C139 1.349 . S
C155 H147 0.950 . S
C155 C153 1.327 1_545 S
C156 C144 1.349 . S
C156 H150 0.950 . S
C156 C157 1.327 . S
C157 H151 0.950 . S
C157 C156 1.327 . S
C157 C161 1.429 . S
C158 C141 1.574 . S
C158 H152 0.949 . S
C158 C162 1.368 . S
C159 C140 1.434 . S
C159 C153 1.429 . S
C159 C160 1.523 . S
C160 C141 1.368 . S
C160 C154 1.368 . S
C160 C159 1.523 . S
C161 C145 1.429 . S
C161 C157 1.429 . S
C161 C162 1.523 . S
C162 C146 1.368 . S
C162 C158 1.368 . S
C162 C161 1.523 . S
H163 C138 0.950 . S
H164 C140 0.946 1_554 S
H165 C141 0.949 . S
H166 C143 0.950 . S
H167 C145 0.950 . S
C168 C169 1.349 . S
C168 C170 1.327 . S
C168 H193 0.950 . S
C169 C168 1.349 . S
C169 C185 1.349 . S
C170 C168 1.327 . S
C170 C189 1.429 . S
C170 H194 0.950 . S
C171 C188 1.574 . S
C171 C190 1.368 . S
C171 H195 0.949 . S
H172 C176 0.949 . S
C173 C174 1.349 . S
C173 C175 1.327 . S
C173 H196 0.950 . S
C174 C173 1.349 . S
C174 C186 1.349 . S
C175 C173 1.327 . S
C175 C191 1.429 . S
C175 H197 0.950 . S
C176 H172 0.949 . S
C176 C184 1.574 . S
C176 C192 1.368 . S
H177 C185 0.950 . S
H178 C183 0.950 . S
H179 C184 0.949 . S
H180 C186 0.950 . S
H181 C187 0.950 . S
H182 C188 0.949 . S
C183 H178 0.950 . S
C183 C185 1.327 . S
C183 C189 1.429 . S
C184 C176 1.574 . S
C184 H179 0.949 . S
C184 C190 1.368 . S
C185 C169 1.349 . S
C185 H177 0.950 . S
C185 C183 1.327 . S
C186 C174 1.349 . S
C186 H180 0.950 . S
C186 C187 1.327 . S
C187 H181 0.950 . S
C187 C186 1.327 . S
C187 C191 1.429 . S
C188 C171 1.574 . S
C188 H182 0.949 . S
C188 C192 1.368 . S
C189 C170 1.429 . S
C189 C183 1.429 . S
C189 C190 1.523 . S
C190 C171 1.368 . S
C190 C184 1.368 . S
C190 C189 1.523 . S
C191 C175 1.429 . S
C191 C187 1.429 . S
C191 C192 1.523 . S
C192 C176 1.368 . S
C192 C188 1.368 . S
C192 C191 1.523 . S
H193 C168 0.950 . S
H194 C170 0.950 . S
H195 C171 0.949 . S
H196 C173 0.950 . S
H197 C175 0.950 . S
C198 C199 1.349 . S
C198 C200 1.327 1_655 S
C198 H223 0.950 . S
C199 C198 1.349 . S
C199 C215 1.354 . S
C200 C198 1.327 1_455 S
C200 C219 1.429 . S
C200 H224 0.950 . S
C201 C218 1.574 . S
C201 C220 1.368 . S
C201 H225 0.949 . S
H202 C206 0.949 . S
C203 C204 1.349 . S
C203 C205 1.327 . S
C203 H226 0.950 . S
C204 C203 1.349 . S
C204 C216 1.349 . S
C205 C203 1.327 . S
C205 C221 1.429 . S
C205 H227 0.950 . S
C206 H202 0.949 . S
C206 C214 1.574 . S
C206 C222 1.368 . S
H207 C215 0.953 . S
H208 C213 0.950 . S
H209 C214 0.949 . S
H210 C216 0.950 . S
H211 C217 0.950 . S
H212 C218 0.949 . S
C213 H208 0.950 . S
C213 C215 1.319 1_455 S
C213 C219 1.429 . S
C214 C206 1.574 . S
C214 H209 0.949 . S
C214 C220 1.368 . S
C215 C199 1.354 . S
C215 H207 0.953 . S
C215 C213 1.319 1_655 S
C216 C204 1.349 . S
C216 H210 0.950 . S
C216 C217 1.327 . S
C217 H211 0.950 . S
C217 C216 1.327 . S
C217 C221 1.429 . S
C218 C201 1.574 . S
C218 H212 0.949 . S
C218 C222 1.368 . S
C219 C200 1.429 . S
C219 C213 1.429 . S
C219 C220 1.523 . S
C220 C201 1.368 . S
C220 C214 1.368 . S
C220 C219 1.523 . S
C221 C205 1.429 . S
C221 C217 1.429 . S
C221 C222 1.523 . S
C222 C206 1.368 . S
C222 C218 1.368 . S
C222 C221 1.523 . S
H223 C198 0.950 . S
H224 C200 0.950 . S
H225 C201 0.949 . S
H226 C203 0.950 . S
H227 C205 0.950 . S
C228 C229 1.349 . S
C228 C230 1.327 . S
C228 H253 0.950 . S
C229 C228 1.349 . S
C229 C245 1.349 . S
C230 C228 1.327 . S
C230 C249 1.429 . S
C230 H254 0.950 . S
C231 C248 1.574 . S
C231 C250 1.368 . S
C231 H255 0.949 . S
H232 C236 0.949 . S
C233 C234 1.343 1_545 S
C233 C235 1.333 . S
C233 H256 0.951 1_545 S
C234 C233 1.343 1_565 S
C234 C246 1.349 . S
C235 C233 1.333 . S
C235 C251 1.429 . S
C235 H257 0.950 . S
C236 H232 0.949 . S
C236 C244 1.574 . S
C236 C252 1.368 . S
H237 C245 0.950 . S
H238 C243 0.950 . S
H239 C244 0.949 . S
H240 C246 0.950 . S
H241 C247 0.950 . S
H242 C248 0.949 . S
C243 H238 0.950 . S
C243 C245 1.327 . S
C243 C249 1.429 . S
C244 C236 1.574 . S
C244 H239 0.949 . S
C244 C250 1.368 . S
C245 C229 1.349 . S
C245 H237 0.950 . S
C245 C243 1.327 . S
C246 C234 1.349 . S
C246 H240 0.950 . S
C246 C247 1.327 1_565 S
C247 H241 0.950 . S
C247 C246 1.327 1_545 S
C247 C251 1.429 . S
C248 C231 1.574 . S
C248 H242 0.949 . S
C248 C252 1.368 . S
C249 C230 1.429 . S
C249 C243 1.429 . S
C249 C250 1.523 . S
C250 C231 1.368 . S
C250 C244 1.368 . S
C250 C249 1.523 . S
C251 C235 1.429 . S
C251 C247 1.429 . S
C251 C252 1.523 . S
C252 C236 1.368 . S
C252 C248 1.368 . S
C252 C251 1.523 . S
H253 C228 0.950 . S
H254 C230 0.950 . S
H255 C231 0.949 . S
H256 C233 0.951 1_565 S
H257 C235 0.950 . S
C258 C259 1.349 . S
C258 C260 1.327 . S
C258 H283 0.950 . S
C259 C258 1.349 . S
C259 C275 1.349 . S
C260 C258 1.327 . S
C260 C279 1.429 . S
C260 H284 0.950 . S
C261 C278 1.574 . S
C261 C280 1.368 . S
C261 H285 0.949 . S
H262 C266 0.949 . S
C263 C264 1.349 . S
C263 C265 1.327 . S
C263 H286 0.950 . S
C264 C263 1.349 . S
C264 C276 1.349 . S
C265 C263 1.327 . S
C265 C281 1.429 . S
C265 H287 0.950 . S
C266 H262 0.949 . S
C266 C274 1.574 . S
C266 C282 1.368 . S
H267 C275 0.950 . S
H268 C273 0.950 . S
H269 C274 0.949 . S
H270 C276 0.950 . S
H271 C277 0.950 . S
H272 C278 0.949 . S
C273 H268 0.950 . S
C273 C275 1.327 . S
C273 C279 1.429 . S
C274 C266 1.574 . S
C274 H269 0.949 . S
C274 C280 1.368 . S
C275 C259 1.349 . S
C275 H267 0.950 . S
C275 C273 1.327 . S
C276 C264 1.349 . S
C276 H270 0.950 . S
C276 C277 1.327 . S
C277 H271 0.950 . S
C277 C276 1.327 . S
C277 C281 1.429 . S
C278 C261 1.574 . S
C278 H272 0.949 . S
C278 C282 1.368 . S
C279 C260 1.429 . S
C279 C273 1.429 . S
C279 C280 1.523 . S
C280 C261 1.368 . S
C280 C274 1.368 . S
C280 C279 1.523 . S
C281 C265 1.429 . S
C281 C277 1.429 . S
C281 C282 1.523 . S
C282 C266 1.368 . S
C282 C278 1.368 . S
C282 C281 1.523 . S
H283 C258 0.950 . S
H284 C260 0.950 . S
H285 C261 0.949 . S
H286 C263 0.950 . S
H287 C265 0.950 . S
C288 C289 1.349 . S
C288 C290 1.327 1_455 S
C288 H313 0.950 . S
C289 C288 1.349 . S
C289 C305 1.349 . S
C290 C288 1.327 1_655 S
C290 C309 1.429 . S
C290 H314 0.950 . S
C291 C308 1.574 . S
C291 C310 1.368 . S
C291 H315 0.949 . S
H292 C296 0.949 . S
C293 C294 1.349 . S
C293 C295 1.327 . S
C293 H316 0.950 . S
C294 C293 1.349 . S
C294 C306 1.349 . S
C295 C293 1.327 . S
C295 C311 1.429 . S
C295 H317 0.950 . S
C296 H292 0.949 . S
C296 C304 1.574 . S
C296 C312 1.368 . S
H297 C305 0.950 . S
H298 C303 0.950 . S
H299 C304 0.949 . S
H300 C306 0.950 . S
H301 C307 0.950 . S
H302 C308 0.949 . S
C303 H298 0.950 . S
C303 C305 1.327 1_655 S
C303 C309 1.429 . S
C304 C296 1.574 . S
C304 H299 0.949 . S
C304 C310 1.368 . S
C305 C289 1.349 . S
C305 H297 0.950 . S
C305 C303 1.327 1_455 S
C306 C294 1.349 . S
C306 H300 0.950 . S
C306 C307 1.327 . S
C307 H301 0.950 . S
C307 C306 1.327 . S
C307 C311 1.429 . S
C308 C291 1.574 . S
C308 H302 0.949 . S
C308 C312 1.368 . S
C309 C290 1.429 . S
C309 C303 1.429 . S
C309 C310 1.523 . S
C310 C291 1.368 . S
C310 C304 1.368 . S
C310 C309 1.523 . S
C311 C295 1.429 . S
C311 C307 1.429 . S
C311 C312 1.523 . S
C312 C296 1.368 . S
C312 C308 1.368 . S
C312 C311 1.523 . S
H313 C288 0.950 . S
H314 C290 0.950 . S
H315 C291 0.949 . S
H316 C293 0.950 . S
H317 C295 0.950 . S
C318 C319 1.349 . S
C318 C320 1.327 . S
C318 H343 0.950 . S
C319 C318 1.349 . S
C319 C335 1.349 . S
C320 C318 1.327 . S
C320 C339 1.429 . S
C320 H344 0.950 . S
C321 C338 1.574 . S
C321 C340 1.368 . S
C321 H345 0.949 . S
H322 C326 0.949 . S
C323 C324 1.349 . S
C323 C325 1.327 . S
C323 H346 0.950 . S
C324 C323 1.349 . S
C324 C336 1.349 . S
C325 C323 1.327 . S
C325 C341 1.429 . S
C325 H347 0.950 . S
C326 H322 0.949 . S
C326 C334 1.568 1_565 S
C326 C342 1.368 . S
H327 C335 0.950 . S
H328 C333 0.950 1_565 S
H329 C334 0.958 . S
H330 C336 0.950 . S
H331 C337 0.950 . S
H332 C338 0.949 . S
C333 H328 0.950 1_545 S
C333 C335 1.327 . S
C333 C339 1.429 . S
C334 C326 1.568 1_545 S
C334 H329 0.958 . S
C334 C340 1.364 1_545 S
C335 C319 1.349 . S
C335 H327 0.950 . S
C335 C333 1.327 . S
C336 C324 1.349 . S
C336 H330 0.950 . S
C336 C337 1.327 . S
C337 H331 0.950 . S
C337 C336 1.327 . S
C337 C341 1.429 . S
C338 C321 1.574 . S
C338 H332 0.949 . S
C338 C342 1.368 . S
C339 C320 1.429 . S
C339 C333 1.429 . S
C339 C340 1.523 1_545 S
C340 C321 1.368 . S
C340 C334 1.364 1_565 S
C340 C339 1.523 1_565 S
C341 C325 1.429 . S
C341 C337 1.429 . S
C341 C342 1.523 . S
C342 C326 1.368 . S
C342 C338 1.368 . S
C342 C341 1.523 . S
H343 C318 0.950 . S
H344 C320 0.950 . S
H345 C321 0.949 . S
H346 C323 0.950 . S
H347 C325 0.950 . S
C348 C349 1.349 . S
C348 C350 1.327 . S
C348 H373 0.950 . S
C349 C348 1.349 . S
C349 C365 1.349 . S
C350 C348 1.327 . S
C350 C369 1.429 . S
C350 H374 0.950 . S
C351 C368 1.574 . S
C351 C370 1.368 . S
C351 H375 0.949 . S
H352 C356 0.949 . S
C353 C354 1.349 . S
C353 C355 1.327 . S
C353 H376 0.950 . S
C354 C353 1.349 . S
C354 C366 1.349 . S
C355 C353 1.327 . S
C355 C371 1.429 . S
C355 H377 0.950 . S
C356 H352 0.949 . S
C356 C364 1.574 . S
C356 C372 1.368 . S
H357 C365 0.950 . S
H358 C363 0.950 . S
H359 C364 0.949 . S
H360 C366 0.950 . S
H361 C367 0.950 . S
H362 C368 0.949 . S
C363 H358 0.950 . S
C363 C365 1.327 . S
C363 C369 1.429 . S
C364 C356 1.574 . S
C364 H359 0.949 . S
C364 C370 1.368 . S
C365 C349 1.349 . S
C365 H357 0.950 . S
C365 C363 1.327 . S
C366 C354 1.349 . S
C366 H360 0.950 . S
C366 C367 1.327 . S
C367 H361 0.950 . S
C367 C366 1.327 . S
C367 C371 1.429 . S
C368 C351 1.574 . S
C368 H362 0.949 . S
C368 C372 1.368 . S
C369 C350 1.429 . S
C369 C363 1.429 . S
C369 C370 1.523 . S
C370 C351 1.368 . S
C370 C364 1.368 . S
C370 C369 1.523 . S
C371 C355 1.429 . S
C371 C367 1.429 . S
C371 C372 1.523 . S
C372 C356 1.368 . S
C372 C368 1.368 . S
C372 C371 1.523 . S
H373 C348 0.950 . S
H374 C350 0.950 . S
H375 C351 0.949 . S
H376 C353 0.950 . S
H377 C355 0.950 . S
C378 C379 1.349 . S
C378 C380 1.327 . S
C378 H403 0.950 . S
C379 C378 1.349 . S
C379 C395 1.349 . S
C380 C378 1.327 . S
C380 C399 1.429 . S
C380 H404 0.950 . S
C381 C398 1.574 1_455 S
C381 C400 1.368 . S
C381 H405 0.949 . S
H382 C386 0.949 . S
C383 C384 1.349 . S
C383 C385 1.327 . S
C383 H406 0.950 . S
C384 C383 1.349 . S
C384 C396 1.349 . S
C385 C383 1.327 . S
C385 C401 1.429 . S
C385 H407 0.950 . S
C386 H382 0.949 . S
C386 C394 1.574 . S
C386 C402 1.368 . S
H387 C395 0.950 . S
H388 C393 0.950 . S
H389 C394 0.949 . S
H390 C396 0.950 . S
H391 C397 0.953 . S
H392 C398 0.949 . S
C393 H388 0.950 . S
C393 C395 1.327 . S
C393 C399 1.429 . S
C394 C386 1.574 . S
C394 H389 0.949 . S
C394 C400 1.368 . S
C395 C379 1.349 . S
C395 H387 0.950 . S
C395 C393 1.327 . S
C396 C384 1.349 . S
C396 H390 0.950 . S
C396 C397 1.325 1_655 S
C397 H391 0.953 . S
C397 C396 1.325 1_455 S
C397 C401 1.428 1_455 S
C398 C381 1.574 1_655 S
C398 H392 0.949 . S
C398 C402 1.368 1_655 S
C399 C380 1.429 . S
C399 C393 1.429 . S
C399 C400 1.523 . S
C400 C381 1.368 . S
C400 C394 1.368 . S
C400 C399 1.523 . S
C401 C385 1.429 . S
C401 C397 1.428 1_655 S
C401 C402 1.523 1_655 S
C402 C386 1.368 . S
C402 C398 1.368 1_455 S
C402 C401 1.523 1_455 S
H403 C378 0.950 . S
H404 C380 0.950 . S
H405 C381 0.949 . S
H406 C383 0.950 . S
H407 C385 0.950 . S
C408 C409 1.349 . S
C408 C410 1.327 . S
C408 H433 0.950 . S
C409 C408 1.349 . S
C409 C425 1.377 . S
C410 C408 1.327 . S
C410 C429 1.429 . S
C410 H434 0.950 . S
C411 C428 1.574 . S
C411 C430 1.368 . S
C411 H435 0.949 . S
H412 C416 0.949 . S
C413 C414 1.349 . S
C413 C415 1.327 . S
C413 H436 0.950 . S
C414 C413 1.349 . S
C414 C426 1.349 . S
C415 C413 1.327 . S
C415 C431 1.429 . S
C415 H437 0.950 . S
C416 H412 0.949 . S
C416 C424 1.574 . S
C416 C432 1.368 1_565 S
H417 C425 0.937 1_545 S
H418 C423 0.950 . S
H419 C424 0.949 . S
H420 C426 0.950 . S
H421 C427 0.921 1_565 S
H422 C428 0.949 . S
C423 H418 0.950 . S
C423 C425 1.312 1_545 S
C423 C429 1.429 1_545 S
C424 C416 1.574 . S
C424 H419 0.949 . S
C424 C430 1.368 1_565 S
C425 C409 1.377 . S
C425 H417 0.937 1_565 S
C425 C423 1.312 1_565 S
C426 C414 1.349 . S
C426 H420 0.950 . S
C426 C427 1.327 . S
C427 H421 0.921 1_545 S
C427 C426 1.327 . S
C427 C431 1.429 . S
C428 C411 1.574 . S
C428 H422 0.949 . S
C428 C432 1.368 . S
C429 C410 1.429 . S
C429 C423 1.429 1_565 S
C429 C430 1.523 1_565 S
C430 C411 1.368 . S
C430 C424 1.368 1_545 S
C430 C429 1.523 1_545 S
C431 C415 1.429 . S
C431 C427 1.429 . S
C431 C432 1.523 . S
C432 C416 1.368 1_545 S
C432 C428 1.368 . S
C432 C431 1.523 . S
H433 C408 0.950 . S
H434 C410 0.950 . S
H435 C411 0.949 . S
H436 C413 0.950 . S
H437 C415 0.950 . S
C438 C439 1.349 . S
C438 C440 1.327 . S
C438 H463 0.950 . S
C439 C438 1.349 . S
C439 C455 1.349 . S
C440 C438 1.327 . S
C440 C459 1.429 . S
C440 H464 0.950 1_554 S
C441 C458 1.574 . S
C441 C460 1.368 . S
C441 H465 0.949 . S
H442 C446 0.949 . S
C443 C444 1.349 . S
C443 C445 1.327 . S
C443 H466 0.950 . S
C444 C443 1.349 . S
C444 C456 1.349 . S
C445 C443 1.327 . S
C445 C461 1.429 . S
C445 H467 0.950 . S
C446 H442 0.949 . S
C446 C454 1.574 . S
C446 C462 1.368 . S
H447 C455 0.950 . S
H448 C453 0.950 . S
H449 C454 0.949 . S
H450 C456 0.950 . S
H451 C457 0.950 . S
H452 C458 0.949 . S
C453 H448 0.950 . S
C453 C455 1.327 . S
C453 C459 1.429 . S
C454 C446 1.574 . S
C454 H449 0.949 . S
C454 C460 1.368 . S
C455 C439 1.349 . S
C455 H447 0.950 . S
C455 C453 1.327 . S
C456 C444 1.349 . S
C456 H450 0.950 . S
C456 C457 1.327 . S
C457 H451 0.950 . S
C457 C456 1.327 . S
C457 C461 1.429 . S
C458 C441 1.574 . S
C458 H452 0.949 . S
C458 C462 1.368 . S
C459 C440 1.429 . S
C459 C453 1.429 . S
C459 C460 1.523 1_554 S
C460 C441 1.368 . S
C460 C454 1.368 . S
C460 C459 1.523 1_556 S
C461 C445 1.429 . S
C461 C457 1.429 . S
C461 C462 1.523 . S
C462 C446 1.368 . S
C462 C458 1.368 . S
C462 C461 1.523 . S
H463 C438 0.950 . S
H464 C440 0.950 1_556 S
H465 C441 0.949 . S
H466 C443 0.950 . S
H467 C445 0.950 . S
C468 C469 1.349 . S
C468 C470 1.327 . S
C468 H493 0.950 . S
C469 C468 1.349 . S
C469 C485 1.349 . S
C470 C468 1.327 . S
C470 C489 1.429 1_556 S
C470 H494 0.950 . S
C471 C488 1.574 . S
C471 C490 1.368 . S
C471 H495 0.949 . S
H472 C476 0.949 . S
C473 C474 1.349 . S
C473 C475 1.327 . S
C473 H496 0.950 . S
C474 C473 1.349 . S
C474 C486 1.349 . S
C475 C473 1.327 . S
C475 C491 1.429 . S
C475 H497 0.950 . S
C476 H472 0.949 . S
C476 C484 1.574 . S
C476 C492 1.368 . S
H477 C485 0.950 . S
H478 C483 0.950 . S
H479 C484 0.949 . S
H480 C486 0.950 . S
H481 C487 0.950 . S
H482 C488 0.949 . S
C483 H478 0.950 . S
C483 C485 1.327 1_554 S
C483 C489 1.429 . S
C484 C476 1.574 . S
C484 H479 0.949 . S
C484 C490 1.368 . S
C485 C469 1.349 . S
C485 H477 0.950 . S
C485 C483 1.327 1_556 S
C486 C474 1.349 . S
C486 H480 0.950 . S
C486 C487 1.327 . S
C487 H481 0.950 . S
C487 C486 1.327 . S
C487 C491 1.429 . S
C488 C471 1.574 . S
C488 H482 0.949 . S
C488 C492 1.368 . S
C489 C470 1.429 1_554 S
C489 C483 1.429 . S
C489 C490 1.523 1_455 S
C490 C471 1.368 . S
C490 C484 1.368 . S
C490 C489 1.523 1_655 S
C491 C475 1.429 . S
C491 C487 1.429 . S
C491 C492 1.523 . S
C492 C476 1.368 . S
C492 C488 1.368 . S
C492 C491 1.523 . S
H493 C468 0.950 . S
H494 C470 0.950 . S
H495 C471 0.949 . S
H496 C473 0.950 . S
H497 C475 0.950 . S
C498 C499 1.349 . S
C498 C500 1.327 . S
C498 H523 0.950 . S
C499 C498 1.349 . S
C499 C515 1.349 . S
C500 C498 1.327 . S
C500 C519 1.429 . S
C500 H524 0.950 . S
C501 C518 1.574 . S
C501 C520 1.368 . S
C501 H525 0.949 . S
H502 C506 0.949 . S
C503 C504 1.349 . S
C503 C505 1.327 . S
C503 H526 0.950 . S
C504 C503 1.349 . S
C504 C516 1.349 . S
C505 C503 1.327 . S
C505 C521 1.429 . S
C505 H527 0.950 . S
C506 H502 0.949 . S
C506 C514 1.574 . S
C506 C522 1.368 . S
H507 C515 0.950 . S
H508 C513 0.950 . S
H509 C514 0.949 . S
H510 C516 0.950 . S
H511 C517 0.950 . S
H512 C518 0.949 . S
C513 H508 0.950 . S
C513 C515 1.327 . S
C513 C519 1.429 . S
C514 C506 1.574 . S
C514 H509 0.949 . S
C514 C520 1.368 . S
C515 C499 1.349 . S
C515 H507 0.950 . S
C515 C513 1.327 . S
C516 C504 1.349 . S
C516 H510 0.950 . S
C516 C517 1.327 . S
C517 H511 0.950 . S
C517 C516 1.327 . S
C517 C521 1.429 . S
C518 C501 1.574 . S
C518 H512 0.949 . S
C518 C522 1.368 . S
C519 C500 1.429 . S
C519 C513 1.429 . S
C519 C520 1.523 . S
C520 C501 1.368 . S
C520 C514 1.368 . S
C520 C519 1.523 . S
C521 C505 1.429 . S
C521 C517 1.429 . S
C521 C522 1.523 . S
C522 C506 1.368 . S
C522 C518 1.368 . S
C522 C521 1.523 . S
H523 C498 0.950 . S
H524 C500 0.950 . S
H525 C501 0.949 . S
H526 C503 0.950 . S
H527 C505 0.950 . S
C528 C529 1.349 . S
C528 C530 1.327 . S
C528 H553 0.950 . S
C529 C528 1.349 . S
C529 C545 1.349 . S
C530 C528 1.327 . S
C530 C549 1.429 . S
C530 H554 0.950 . S
C531 C548 1.574 1_556 S
C531 C550 1.368 . S
C531 H555 0.949 . S
H532 C536 0.949 . S
C533 C534 1.349 . S
C533 C535 1.327 . S
C533 H556 0.950 . S
C534 C533 1.349 . S
C534 C546 1.349 . S
C535 C533 1.327 . S
C535 C551 1.429 . S
C535 H557 0.950 . S
C536 H532 0.949 . S
C536 C544 1.574 . S
C536 C552 1.368 1_556 S
H537 C545 0.950 . S
H538 C543 0.950 . S
H539 C544 0.949 . S
H540 C546 0.950 . S
H541 C547 0.950 . S
H542 C548 0.949 . S
C543 H538 0.950 . S
C543 C545 1.327 . S
C543 C549 1.429 . S
C544 C536 1.574 . S
C544 H539 0.949 . S
C544 C550 1.368 . S
C545 C529 1.349 . S
C545 H537 0.950 . S
C545 C543 1.327 . S
C546 C534 1.349 . S
C546 H540 0.950 . S
C546 C547 1.327 . S
C547 H541 0.950 . S
C547 C546 1.327 . S
C547 C551 1.429 . S
C548 C531 1.574 1_554 S
C548 H542 0.949 . S
C548 C552 1.368 . S
C549 C530 1.429 . S
C549 C543 1.429 . S
C549 C550 1.523 . S
C550 C531 1.368 . S
C550 C544 1.368 . S
C550 C549 1.523 . S
C551 C535 1.429 . S
C551 C547 1.429 . S
C551 C552 1.523 . S
C552 C536 1.368 1_554 S
C552 C548 1.368 . S
C552 C551 1.523 . S
H553 C528 0.950 . S
H554 C530 0.950 . S
H555 C531 0.949 . S
H556 C533 0.950 . S
H557 C535 0.950 . S
C558 C559 1.349 . S
C558 C560 1.327 . S
C558 H583 0.950 . S
C559 C558 1.349 . S
C559 C575 1.349 . S
C560 C558 1.327 . S
C560 C579 1.429 . S
C560 H584 0.950 . S
C561 C578 1.574 . S
C561 C580 1.368 . S
C561 H585 0.949 . S
H562 C566 0.949 . S
C563 C564 1.349 . S
C563 C565 1.327 . S
C563 H586 0.950 . S
C564 C563 1.349 . S
C564 C576 1.349 . S
C565 C563 1.327 . S
C565 C581 1.429 . S
C565 H587 0.950 . S
C566 H562 0.949 . S
C566 C574 1.574 . S
C566 C582 1.368 . S
H567 C575 0.950 . S
H568 C573 0.950 . S
H569 C574 0.949 . S
H570 C576 0.950 . S
H571 C577 0.950 . S
H572 C578 0.949 . S
C573 H568 0.950 . S
C573 C575 1.327 . S
C573 C579 1.429 . S
C574 C566 1.574 . S
C574 H569 0.949 . S
C574 C580 1.368 . S
C575 C559 1.349 . S
C575 H567 0.950 . S
C575 C573 1.327 . S
C576 C564 1.349 . S
C576 H570 0.950 . S
C576 C577 1.327 . S
C577 H571 0.950 . S
C577 C576 1.327 . S
C577 C581 1.429 . S
C578 C561 1.574 . S
C578 H572 0.949 . S
C578 C582 1.368 . S
C579 C560 1.429 . S
C579 C573 1.429 . S
C579 C580 1.523 . S
C580 C561 1.368 . S
C580 C574 1.368 . S
C580 C579 1.523 . S
C581 C565 1.429 . S
C581 C577 1.429 . S
C581 C582 1.523 . S
C582 C566 1.368 . S
C582 C578 1.368 . S
C582 C581 1.523 . S
H583 C558 0.950 . S
H584 C560 0.950 . S
H585 C561 0.949 . S
H586 C563 0.950 . S
H587 C565 0.950 . S
C588 C589 1.349 . S
C588 C590 1.327 . S
C588 H613 0.950 . S
C589 C588 1.349 . S
C589 C605 1.349 . S
C590 C588 1.327 . S
C590 C609 1.429 . S
C590 H614 0.950 . S
C591 C608 1.574 . S
C591 C610 1.368 . S
C591 H615 0.949 . S
H592 C596 0.949 . S
C593 C594 1.349 . S
C593 C595 1.327 . S
C593 H616 0.950 . S
C594 C593 1.349 . S
C594 C606 1.349 . S
C595 C593 1.327 . S
C595 C611 1.429 . S
C595 H617 0.950 . S
C596 H592 0.949 . S
C596 C604 1.574 . S
C596 C612 1.368 . S
H597 C605 0.950 . S
H598 C603 0.950 . S
H599 C604 0.949 . S
H600 C606 0.950 . S
H601 C607 0.950 . S
H602 C608 0.949 . S
C603 H598 0.950 . S
C603 C605 1.327 . S
C603 C609 1.429 . S
C604 C596 1.574 . S
C604 H599 0.949 . S
C604 C610 1.368 . S
C605 C589 1.349 . S
C605 H597 0.950 . S
C605 C603 1.327 . S
C606 C594 1.349 . S
C606 H600 0.950 . S
C606 C607 1.327 . S
C607 H601 0.950 . S
C607 C606 1.327 . S
C607 C611 1.429 . S
C608 C591 1.574 . S
C608 H602 0.949 . S
C608 C612 1.368 . S
C609 C590 1.429 . S
C609 C603 1.429 . S
C609 C610 1.523 . S
C610 C591 1.368 . S
C610 C604 1.368 . S
C610 C609 1.523 . S
C611 C595 1.429 . S
C611 C607 1.429 . S
C611 C612 1.523 . S
C612 C596 1.368 . S
C612 C608 1.368 . S
C612 C611 1.523 . S
H613 C588 0.950 . S
H614 C590 0.950 . S
H615 C591 0.949 . S
H616 C593 0.950 . S
H617 C595 0.950 . S
C618 C619 1.349 . S
C618 C620 1.327 . S
C618 H643 0.950 . S
C619 C618 1.349 . S
C619 C635 1.349 . S
C620 C618 1.327 . S
C620 C639 1.429 . S
C620 H644 0.950 . S
C621 C638 1.574 . S
C621 C640 1.368 . S
C621 H645 0.949 . S
H622 C626 0.949 . S
C623 C624 1.349 . S
C623 C625 1.327 . S
C623 H646 0.950 . S
C624 C623 1.349 . S
C624 C636 1.349 . S
C625 C623 1.327 . S
C625 C641 1.429 . S
C625 H647 0.950 . S
C626 H622 0.949 . S
C626 C634 1.574 . S
C626 C642 1.368 . S
H627 C635 0.950 . S
H628 C633 0.950 . S
H629 C634 0.949 . S
H630 C636 0.950 . S
H631 C637 0.950 . S
H632 C638 0.949 . S
C633 H628 0.950 . S
C633 C635 1.327 . S
C633 C639 1.429 . S
C634 C626 1.574 . S
C634 H629 0.949 . S
C634 C640 1.368 . S
C635 C619 1.349 . S
C635 H627 0.950 . S
C635 C633 1.327 . S
C636 C624 1.349 . S
C636 H630 0.950 . S
C636 C637 1.327 . S
C637 H631 0.950 . S
C637 C636 1.327 . S
C637 C641 1.429 . S
C638 C621 1.574 . S
C638 H632 0.949 . S
C638 C642 1.368 . S
C639 C620 1.429 . S
C639 C633 1.429 . S
C639 C640 1.523 . S
C640 C621 1.368 . S
C640 C634 1.368 . S
C640 C639 1.523 . S
C641 C625 1.429 . S
C641 C637 1.429 . S
C641 C642 1.523 . S
C642 C626 1.368 . S
C642 C638 1.368 . S
C642 C641 1.523 . S
H643 C618 0.950 . S
H644 C620 0.950 . S
H645 C621 0.949 . S
H646 C623 0.950 . S
H647 C625 0.950 . S
C648 C649 1.349 . S
C648 C650 1.327 . S
C648 H673 0.950 . S
C649 C648 1.349 . S
C649 C665 1.349 . S
C650 C648 1.327 . S
C650 C669 1.429 . S
C650 H674 0.950 . S
C651 C668 1.574 . S
C651 C670 1.368 . S
C651 H675 0.949 . S
H652 C656 0.949 . S
C653 C654 1.349 . S
C653 C655 1.327 . S
C653 H676 0.950 . S
C654 C653 1.349 . S
C654 C666 1.349 . S
C655 C653 1.327 . S
C655 C671 1.429 . S
C655 H677 0.950 . S
C656 H652 0.949 . S
C656 C664 1.574 . S
C656 C672 1.368 . S
H657 C665 0.950 . S
H658 C663 0.950 . S
H659 C664 0.949 . S
H660 C666 0.950 . S
H661 C667 0.950 . S
H662 C668 0.949 . S
C663 H658 0.950 . S
C663 C665 1.327 . S
C663 C669 1.429 . S
C664 C656 1.574 . S
C664 H659 0.949 . S
C664 C670 1.368 . S
C665 C649 1.349 . S
C665 H657 0.950 . S
C665 C663 1.327 . S
C666 C654 1.349 . S
C666 H660 0.950 . S
C666 C667 1.327 . S
C667 H661 0.950 . S
C667 C666 1.327 . S
C667 C671 1.429 . S
C668 C651 1.574 . S
C668 H662 0.949 . S
C668 C672 1.368 . S
C669 C650 1.429 . S
C669 C663 1.429 . S
C669 C670 1.523 . S
C670 C651 1.368 . S
C670 C664 1.368 . S
C670 C669 1.523 . S
C671 C655 1.429 . S
C671 C667 1.429 . S
C671 C672 1.523 . S
C672 C656 1.368 . S
C672 C668 1.368 . S
C672 C671 1.523 . S
H673 C648 0.950 . S
H674 C650 0.950 . S
H675 C651 0.949 . S
H676 C653 0.950 . S
H677 C655 0.950 . S
C139 C18 0.874 . S
C144 C135 0.871 . S
C169 C41 0.874 . S
C174 C20 0.871 . S
C199 C64 0.873 . S
C204 C43 0.871 . S
C229 C66 0.871 . S
C234 C87 0.874 . S
C259 C89 0.871 . S
C264 C110 0.874 . S
C289 C133 0.874 . S
C294 C112 0.871 . S
C319 C16 1.528 . S
C324 C88 1.522 . S
C349 C39 1.527 . S
C354 C111 1.522 . S
C379 C134 1.522 . S
C384 C62 1.528 . S
C409 C85 1.527 . S
C414 C19 1.522 . S
C439 C42 1.522 . S
C444 C108 1.527 . S
C469 C131 1.527 . S
C474 C65 1.522 . S
C499 C17 1.189 . S
C504 C113 1.200 . S
C529 C136 1.200 . S
C534 C40 1.189 . S
C559 C21 1.200 . S
C564 C63 1.189 . S
C589 C86 1.189 . S
C594 C44 1.200 . S
C619 C67 1.200 . S
C624 C109 1.188 . S
C649 C90 1.200 . S
C654 C132 1.189 . S
