# Generated by pormake.
# Topology afi, (4)-cn, num edge types: 1
# Building blocks:
#     Node 0, Type 0, BuildingBlock: ICAMEG_clean_sbu_1, # of connection points: 4
#     Node 1, Type 0, BuildingBlock: ICAMEG_clean_sbu_1, # of connection points: 4
#     Node 2, Type 0, BuildingBlock: ICAMEG_clean_sbu_1, # of connection points: 4
#     Node 3, Type 0, BuildingBlock: ICAMEG_clean_sbu_1, # of connection points: 4
#     Node 4, Type 0, BuildingBlock: ICAMEG_clean_sbu_1, # of connection points: 4
#     Node 5, Type 0, BuildingBlock: ICAMEG_clean_sbu_1, # of connection points: 4
#     Node 6, Type 0, BuildingBlock: ICAMEG_clean_sbu_1, # of connection points: 4
#     Node 7, Type 0, BuildingBlock: ICAMEG_clean_sbu_1, # of connection points: 4
#     Node 8, Type 0, BuildingBlock: ICAMEG_clean_sbu_1, # of connection points: 4
#     Node 9, Type 0, BuildingBlock: ICAMEG_clean_sbu_1, # of connection points: 4
#     Node 10, Type 0, BuildingBlock: ICAMEG_clean_sbu_1, # of connection points: 4
#     Node 11, Type 0, BuildingBlock: ICAMEG_clean_sbu_1, # of connection points: 4
#     Node 12, Type 0, BuildingBlock: ICAMEG_clean_sbu_1, # of connection points: 4
#     Node 13, Type 0, BuildingBlock: ICAMEG_clean_sbu_1, # of connection points: 4
#     Node 14, Type 0, BuildingBlock: ICAMEG_clean_sbu_1, # of connection points: 4
#     Node 15, Type 0, BuildingBlock: ICAMEG_clean_sbu_1, # of connection points: 4
#     Node 16, Type 0, BuildingBlock: ICAMEG_clean_sbu_1, # of connection points: 4
#     Node 17, Type 0, BuildingBlock: ICAMEG_clean_sbu_1, # of connection points: 4
#     Node 18, Type 0, BuildingBlock: ICAMEG_clean_sbu_1, # of connection points: 4
#     Node 19, Type 0, BuildingBlock: ICAMEG_clean_sbu_1, # of connection points: 4
#     Node 20, Type 0, BuildingBlock: ICAMEG_clean_sbu_1, # of connection points: 4
#     Node 21, Type 0, BuildingBlock: ICAMEG_clean_sbu_1, # of connection points: 4
#     Node 22, Type 0, BuildingBlock: ICAMEG_clean_sbu_1, # of connection points: 4
#     Node 23, Type 0, BuildingBlock: ICAMEG_clean_sbu_1, # of connection points: 4
#     Edge 24, Type (0, 0), BuildingBlock: UVAHIK_clean_linker_0, # of connection points: 2
#     Edge 25, Type (0, 0), BuildingBlock: UVAHIK_clean_linker_0, # of connection points: 2
#     Edge 26, Type (0, 0), BuildingBlock: UVAHIK_clean_linker_0, # of connection points: 2
#     Edge 27, Type (0, 0), BuildingBlock: UVAHIK_clean_linker_0, # of connection points: 2
#     Edge 28, Type (0, 0), BuildingBlock: UVAHIK_clean_linker_0, # of connection points: 2
#     Edge 29, Type (0, 0), BuildingBlock: UVAHIK_clean_linker_0, # of connection points: 2
#     Edge 30, Type (0, 0), BuildingBlock: UVAHIK_clean_linker_0, # of connection points: 2
#     Edge 31, Type (0, 0), BuildingBlock: UVAHIK_clean_linker_0, # of connection points: 2
#     Edge 32, Type (0, 0), BuildingBlock: UVAHIK_clean_linker_0, # of connection points: 2
#     Edge 33, Type (0, 0), BuildingBlock: UVAHIK_clean_linker_0, # of connection points: 2
#     Edge 34, Type (0, 0), BuildingBlock: UVAHIK_clean_linker_0, # of connection points: 2
#     Edge 35, Type (0, 0), BuildingBlock: UVAHIK_clean_linker_0, # of connection points: 2
#     Edge 36, Type (0, 0), BuildingBlock: UVAHIK_clean_linker_0, # of connection points: 2
#     Edge 37, Type (0, 0), BuildingBlock: UVAHIK_clean_linker_0, # of connection points: 2
#     Edge 38, Type (0, 0), BuildingBlock: UVAHIK_clean_linker_0, # of connection points: 2
#     Edge 39, Type (0, 0), BuildingBlock: UVAHIK_clean_linker_0, # of connection points: 2
#     Edge 40, Type (0, 0), BuildingBlock: UVAHIK_clean_linker_0, # of connection points: 2
#     Edge 41, Type (0, 0), BuildingBlock: UVAHIK_clean_linker_0, # of connection points: 2
#     Edge 42, Type (0, 0), BuildingBlock: UVAHIK_clean_linker_0, # of connection points: 2
#     Edge 43, Type (0, 0), BuildingBlock: UVAHIK_clean_linker_0, # of connection points: 2
#     Edge 44, Type (0, 0), BuildingBlock: UVAHIK_clean_linker_0, # of connection points: 2
#     Edge 45, Type (0, 0), BuildingBlock: UVAHIK_clean_linker_0, # of connection points: 2
#     Edge 46, Type (0, 0), BuildingBlock: UVAHIK_clean_linker_0, # of connection points: 2
#     Edge 47, Type (0, 0), BuildingBlock: UVAHIK_clean_linker_0, # of connection points: 2
#     Edge 48, Type (0, 0), BuildingBlock: UVAHIK_clean_linker_0, # of connection points: 2
#     Edge 49, Type (0, 0), BuildingBlock: UVAHIK_clean_linker_0, # of connection points: 2
#     Edge 50, Type (0, 0), BuildingBlock: UVAHIK_clean_linker_0, # of connection points: 2
#     Edge 51, Type (0, 0), BuildingBlock: UVAHIK_clean_linker_0, # of connection points: 2
#     Edge 52, Type (0, 0), BuildingBlock: UVAHIK_clean_linker_0, # of connection points: 2
#     Edge 53, Type (0, 0), BuildingBlock: UVAHIK_clean_linker_0, # of connection points: 2
#     Edge 54, Type (0, 0), BuildingBlock: UVAHIK_clean_linker_0, # of connection points: 2
#     Edge 55, Type (0, 0), BuildingBlock: UVAHIK_clean_linker_0, # of connection points: 2
#     Edge 56, Type (0, 0), BuildingBlock: UVAHIK_clean_linker_0, # of connection points: 2
#     Edge 57, Type (0, 0), BuildingBlock: UVAHIK_clean_linker_0, # of connection points: 2
#     Edge 58, Type (0, 0), BuildingBlock: UVAHIK_clean_linker_0, # of connection points: 2
#     Edge 59, Type (0, 0), BuildingBlock: UVAHIK_clean_linker_0, # of connection points: 2
#     Edge 60, Type (0, 0), BuildingBlock: UVAHIK_clean_linker_0, # of connection points: 2
#     Edge 61, Type (0, 0), BuildingBlock: UVAHIK_clean_linker_0, # of connection points: 2
#     Edge 62, Type (0, 0), BuildingBlock: UVAHIK_clean_linker_0, # of connection points: 2
#     Edge 63, Type (0, 0), BuildingBlock: UVAHIK_clean_linker_0, # of connection points: 2
#     Edge 64, Type (0, 0), BuildingBlock: UVAHIK_clean_linker_0, # of connection points: 2
#     Edge 65, Type (0, 0), BuildingBlock: UVAHIK_clean_linker_0, # of connection points: 2
#     Edge 66, Type (0, 0), BuildingBlock: UVAHIK_clean_linker_0, # of connection points: 2
#     Edge 67, Type (0, 0), BuildingBlock: UVAHIK_clean_linker_0, # of connection points: 2
#     Edge 68, Type (0, 0), BuildingBlock: UVAHIK_clean_linker_0, # of connection points: 2
#     Edge 69, Type (0, 0), BuildingBlock: UVAHIK_clean_linker_0, # of connection points: 2
#     Edge 70, Type (0, 0), BuildingBlock: UVAHIK_clean_linker_0, # of connection points: 2
#     Edge 71, Type (0, 0), BuildingBlock: UVAHIK_clean_linker_0, # of connection points: 2
# Relax obj value: 0.123
# Max RMSD: 0.174
# Mean RMSD: 0.174
data_MOF--net-afi--node1-ICAMEG_clean_sbu_1--edge1-UVAHIK_clean_linker_0
_symmetry_space_group_name_H-M    P1
_symmetry_Int_Tables_number       1
_symmetry_cell_setting            triclinic
loop_
_symmetry_equiv_pos_as_xyz
'x, y, z'
_cell_length_a     89.834662
_cell_length_b     89.897374
_cell_length_c     56.258646
_cell_angle_alpha  89.973251
_cell_angle_beta   90.046061
_cell_angle_gamma 120.0096
loop_
_atom_site_label
_atom_site_type_symbol
_atom_site_fract_x
_atom_site_fract_y
_atom_site_fract_z
_atom_type_partial_charge
Co0 Co 0.46951 0.11517 0.16956 0.0
Co1 Co 0.46041 0.12632 0.22362 0.0
O2 O 0.46071 0.12738 0.18873 0.0
C3 C 0.44235 0.09718 0.13335 0.0
O4 O 0.44059 0.08281 0.14197 0.0
C5 C 0.47646 0.16408 0.21504 0.0
O6 O 0.48584 0.16305 0.19795 0.0
O7 O 0.48547 0.13444 0.22411 0.0
O8 O 0.48723 0.11898 0.19416 0.0
H9 H 0.47497 0.1114 0.30311 0.0
H10 H 0.46659 0.14359 0.14771 0.0
O11 O 0.45228 0.11138 0.14382 0.0
H12 H 0.52803 0.1613 0.1421 0.0
H13 H 0.48922 0.10012 0.09398 0.0
H14 H 0.479 0.08864 0.17989 0.0
H15 H 0.50736 0.13349 0.16004 0.0
H16 H 0.4785 0.11565 0.11818 0.0
O17 O 0.46551 0.15065 0.22601 0.0
H18 H 0.47468 0.11255 0.25933 0.0
H19 H 0.4461 0.1385 0.26199 0.0
H20 H 0.48977 0.07286 0.15635 0.0
H21 H 0.4868 0.17141 0.1293 0.0
H22 H 0.49494 0.07855 0.11307 0.0
H23 H 0.51777 0.18045 0.12648 0.0
O24 O 0.4529 0.09303 0.18536 0.0
H25 H 0.40785 0.1279 0.19704 0.0
H26 H 0.42944 0.09757 0.24684 0.0
H27 H 0.39831 0.08713 0.24543 0.0
H28 H 0.38734 0.10237 0.22046 0.0
H29 H 0.43889 0.13781 0.19879 0.0
H30 H 0.44621 0.13774 0.3058 0.0
H31 H 0.46066 0.12405 0.32666 0.0
O32 O 0.45512 0.10192 0.22304 0.0
C33 C 0.49346 0.12836 0.2126 0.0
C34 C 0.46859 0.11735 0.29424 0.0
C35 C 0.45246 0.13215 0.29574 0.0
N36 N 0.46028 0.12547 0.2581 0.0
C37 C 0.46835 0.11801 0.26944 0.0
C38 C 0.45247 0.13257 0.27093 0.0
C39 C 0.46057 0.12447 0.30743 0.0
C40 C 0.48001 0.14735 0.14631 0.0
N41 N 0.48575 0.13687 0.15484 0.0
C42 C 0.49141 0.16315 0.13597 0.0
C43 C 0.5088 0.16823 0.13443 0.0
C44 C 0.51456 0.1575 0.14321 0.0
C45 C 0.50279 0.14179 0.15345 0.0
C46 C 0.48702 0.09752 0.11283 0.0
C47 C 0.48122 0.09121 0.16107 0.0
C48 C 0.48095 0.10628 0.12663 0.0
N49 N 0.47812 0.10306 0.15045 0.0
C50 C 0.48733 0.08223 0.14783 0.0
C51 C 0.49023 0.08543 0.12355 0.0
C52 C 0.4505 0.09002 0.20763 0.0
C53 C 0.41248 0.12118 0.20803 0.0
C54 C 0.42476 0.10422 0.23583 0.0
C55 C 0.40712 0.09828 0.23516 0.0
C56 C 0.40097 0.10684 0.22115 0.0
N57 N 0.43597 0.11833 0.22296 0.0
C58 C 0.43003 0.12676 0.20913 0.0
Co59 Co 0.35828 0.4666 0.16498 0.0
Co60 Co 0.3358 0.45843 0.21744 0.0
O61 O 0.33695 0.45947 0.18267 0.0
C62 C 0.34842 0.43918 0.12913 0.0
O63 O 0.36094 0.43723 0.13773 0.0
C64 C 0.31959 0.47921 0.22882 0.0
O65 O 0.33342 0.48894 0.24143 0.0
O66 O 0.35514 0.48257 0.21946 0.0
O67 O 0.37234 0.48399 0.18967 0.0
H68 H 0.36067 0.4683 0.2998 0.0
H69 H 0.32868 0.46606 0.14082 0.0
O70 O 0.34457 0.44951 0.13931 0.0
H71 H 0.37594 0.52608 0.13525 0.0
H72 H 0.39534 0.48367 0.09142 0.0
H73 H 0.39315 0.47343 0.1778 0.0
H74 H 0.38043 0.50416 0.15499 0.0
H75 H 0.36867 0.47491 0.11392 0.0
O76 O 0.31864 0.4667 0.21677 0.0
H77 H 0.36165 0.4692 0.25599 0.0
H78 H 0.30725 0.44561 0.25298 0.0
H79 H 0.42009 0.4822 0.15597 0.0
H80 H 0.32371 0.48755 0.12063 0.0
H81 H 0.42129 0.48737 0.11246 0.0
H82 H 0.34743 0.51781 0.11778 0.0
O83 O 0.36178 0.44906 0.18213 0.0
H84 H 0.2797 0.41102 0.18579 0.0
H85 H 0.32812 0.42526 0.24012 0.0
H86 H 0.30466 0.39522 0.23675 0.0
H87 H 0.28018 0.38795 0.20951 0.0
H88 H 0.30355 0.44088 0.18951 0.0
H89 H 0.30568 0.4445 0.29677 0.0
H90 H 0.33253 0.45588 0.32048 0.0
O91 O 0.35262 0.45005 0.2189 0.0
C92 C 0.36944 0.49007 0.20844 0.0
C93 C 0.34888 0.46328 0.28967 0.0
C94 C 0.31802 0.44992 0.28797 0.0
N95 N 0.33453 0.45741 0.25193 0.0
C96 C 0.34935 0.46374 0.26485 0.0
C97 C 0.31899 0.45059 0.26318 0.0
C98 C 0.33309 0.45631 0.30126 0.0
C99 C 0.33911 0.47917 0.13949 0.0
N100 N 0.35486 0.4838 0.14894 0.0
C101 C 0.3362 0.4913 0.12811 0.0
C102 C 0.34951 0.50828 0.12654 0.0
C103 C 0.3655 0.51293 0.13635 0.0
C104 C 0.36795 0.50046 0.1476 0.0
C105 C 0.39498 0.48146 0.11038 0.0
C106 C 0.39357 0.47566 0.15887 0.0
C107 C 0.37991 0.4765 0.12322 0.0
N108 N 0.37934 0.47364 0.14718 0.0
C109 C 0.40886 0.48063 0.1466 0.0
C110 C 0.40953 0.48353 0.12219 0.0
C111 C 0.36055 0.44558 0.20432 0.0
C112 C 0.29027 0.41404 0.19778 0.0
C113 C 0.31758 0.4222 0.22811 0.0
C114 C 0.3043 0.40516 0.22634 0.0
C115 C 0.29056 0.40109 0.21106 0.0
N116 N 0.31716 0.43484 0.21512 0.0
C117 C 0.30378 0.43093 0.20001 0.0
Co118 Co 0.89414 0.35553 0.16316 0.0
Co119 Co 0.87897 0.33298 0.21528 0.0
O120 O 0.8793 0.33423 0.18052 0.0
C121 C 0.91097 0.34471 0.12733 0.0
O122 O 0.92569 0.35644 0.13638 0.0
C123 C 0.84196 0.31704 0.22637 0.0
O124 O 0.84608 0.33092 0.23884 0.0
O125 O 0.87448 0.35251 0.21707 0.0
O126 O 0.89138 0.36982 0.18811 0.0
H127 H 0.89358 0.35766 0.29775 0.0
H128 H 0.86444 0.32679 0.13872 0.0
O129 O 0.89692 0.34162 0.13725 0.0
H130 H 0.85427 0.37576 0.13355 0.0
H131 H 0.91578 0.39298 0.0901 0.0
H132 H 0.92297 0.38979 0.17653 0.0
H133 H 0.88019 0.37897 0.15337 0.0
H134 H 0.89696 0.36639 0.11223 0.0
O135 O 0.85351 0.31606 0.21434 0.0
H136 H 0.89398 0.35872 0.25394 0.0
H137 H 0.86281 0.3044 0.25075 0.0
H138 H 0.94204 0.41664 0.15509 0.0
H139 H 0.83845 0.32309 0.11845 0.0
H140 H 0.93851 0.41836 0.11156 0.0
H141 H 0.83322 0.34768 0.11579 0.0
O142 O 0.91476 0.35798 0.18032 0.0
H143 H 0.86983 0.27674 0.18374 0.0
H144 H 0.90405 0.32486 0.2384 0.0
H145 H 0.91029 0.30117 0.23524 0.0
H146 H 0.89307 0.27684 0.20783 0.0
H147 H 0.86415 0.30081 0.18725 0.0
H148 H 0.86205 0.30276 0.29452 0.0
H149 H 0.87753 0.32952 0.31833 0.0
O150 O 0.90423 0.34955 0.21708 0.0
C151 C 0.882 0.36697 0.20646 0.0
C152 C 0.88681 0.34591 0.28757 0.0
C153 C 0.86911 0.31509 0.28577 0.0
N154 N 0.87848 0.33165 0.24978 0.0
C155 C 0.88699 0.34643 0.26276 0.0
C156 C 0.86959 0.31611 0.26098 0.0
C157 C 0.87779 0.33012 0.29911 0.0
C158 C 0.86233 0.33759 0.13748 0.0
N159 N 0.8739 0.3531 0.14708 0.0
C160 C 0.84755 0.3354 0.12605 0.0
C161 C 0.84462 0.3492 0.12459 0.0
C162 C 0.85642 0.36495 0.13456 0.0
C163 C 0.87105 0.36667 0.14585 0.0
C164 C 0.91744 0.3924 0.10907 0.0
C165 C 0.92134 0.39043 0.15759 0.0
C166 C 0.90682 0.37738 0.1217 0.0
N167 N 0.90886 0.37653 0.14567 0.0
C168 C 0.93218 0.40568 0.14554 0.0
C169 C 0.93019 0.40663 0.12112 0.0
C170 C 0.91679 0.35689 0.20261 0.0
C171 C 0.87739 0.28725 0.1958 0.0
C172 C 0.89656 0.31438 0.22632 0.0
C173 C 0.90012 0.30097 0.22467 0.0
C174 C 0.89044 0.28732 0.2093 0.0
N175 N 0.88367 0.31417 0.21312 0.0
C176 C 0.8742 0.30088 0.19791 0.0
Co177 Co 0.53877 0.89004 0.16886 0.0
Co178 Co 0.54722 0.87899 0.22332 0.0
O179 O 0.54749 0.87796 0.18848 0.0
C180 C 0.56621 0.90801 0.13303 0.0
O181 O 0.56791 0.92242 0.1414 0.0
C182 C 0.53162 0.84115 0.2158 0.0
O183 O 0.52175 0.84163 0.19895 0.0
O184 O 0.52205 0.87034 0.22282 0.0
O185 O 0.52073 0.88611 0.19295 0.0
H186 H 0.53059 0.89309 0.30183 0.0
H187 H 0.54207 0.8616 0.14792 0.0
O188 O 0.55626 0.89386 0.14358 0.0
H189 H 0.48068 0.8437 0.14026 0.0
H190 H 0.5197 0.90486 0.09243 0.0
H191 H 0.52897 0.91642 0.17844 0.0
H192 H 0.50105 0.8716 0.15823 0.0
H193 H 0.53027 0.88945 0.11722 0.0
O194 O 0.54271 0.8549 0.22601 0.0
H195 H 0.53167 0.89202 0.2581 0.0
H196 H 0.56158 0.86754 0.26258 0.0
H197 H 0.51832 0.93207 0.15431 0.0
H198 H 0.52216 0.83367 0.12953 0.0
H199 H 0.51363 0.92634 0.11098 0.0
H200 H 0.4912 0.82453 0.12567 0.0
O201 O 0.55513 0.91225 0.18481 0.0
H202 H 0.60092 0.87885 0.19903 0.0
H203 H 0.57746 0.90813 0.24732 0.0
H204 H 0.60872 0.91925 0.24703 0.0
H205 H 0.62064 0.90454 0.22282 0.0
H206 H 0.56972 0.86826 0.19965 0.0
H207 H 0.5607 0.86822 0.30635 0.0
H208 H 0.54518 0.88113 0.32627 0.0
O209 O 0.55193 0.90317 0.2225 0.0
C210 C 0.51415 0.87638 0.211 0.0
C211 C 0.53743 0.88747 0.29336 0.0
C212 C 0.55432 0.87349 0.2959 0.0
N213 N 0.54676 0.87981 0.25778 0.0
C214 C 0.53811 0.88685 0.2686 0.0
C215 C 0.55473 0.87311 0.2711 0.0
C216 C 0.54561 0.88074 0.30706 0.0
C217 C 0.52865 0.85779 0.14609 0.0
N218 N 0.52277 0.86828 0.15403 0.0
C219 C 0.51742 0.84193 0.13576 0.0
C220 C 0.50005 0.8368 0.13363 0.0
C221 C 0.49414 0.84754 0.14183 0.0
C222 C 0.50574 0.86331 0.15207 0.0
C223 C 0.52169 0.90747 0.1113 0.0
C224 C 0.52696 0.91384 0.1596 0.0
C225 C 0.52769 0.8988 0.12543 0.0
N226 N 0.53026 0.90204 0.14928 0.0
C227 C 0.52092 0.92275 0.14602 0.0
C228 C 0.51829 0.91952 0.12171 0.0
C229 C 0.55696 0.91516 0.20715 0.0
C230 C 0.59588 0.88535 0.20968 0.0
C231 C 0.58255 0.90172 0.23663 0.0
C232 C 0.60026 0.90804 0.2366 0.0
C233 C 0.60694 0.89978 0.22302 0.0
N234 N 0.57178 0.88752 0.22356 0.0
C235 C 0.57823 0.87939 0.21014 0.0
Co236 Co 0.65418 0.54267 0.17277 0.0
Co237 Co 0.6756 0.5523 0.22584 0.0
O238 O 0.67552 0.55137 0.19104 0.0
C239 C 0.66307 0.56907 0.13552 0.0
O240 O 0.65055 0.57104 0.14399 0.0
C241 C 0.69585 0.53446 0.21885 0.0
O242 O 0.6833 0.5227 0.20592 0.0
O243 O 0.65827 0.52733 0.22742 0.0
O244 O 0.64057 0.52559 0.1981 0.0
H245 H 0.64832 0.53967 0.30677 0.0
H246 H 0.68485 0.54435 0.15049 0.0
O247 O 0.66736 0.55929 0.14638 0.0
H248 H 0.63988 0.48328 0.14689 0.0
H249 H 0.6177 0.52216 0.09867 0.0
H250 H 0.61861 0.53422 0.18432 0.0
H251 H 0.63368 0.50475 0.1643 0.0
H252 H 0.64441 0.53279 0.12186 0.0
O253 O 0.69482 0.54708 0.22714 0.0
H254 H 0.64854 0.53914 0.26295 0.0
H255 H 0.70314 0.56686 0.26283 0.0
H256 H 0.59161 0.52356 0.1618 0.0
H257 H 0.69154 0.52332 0.13266 0.0
H258 H 0.59104 0.51747 0.11865 0.0
H259 H 0.66898 0.49253 0.13083 0.0
O260 O 0.64948 0.5599 0.18843 0.0
H261 H 0.72944 0.60395 0.19642 0.0
H262 H 0.67888 0.58383 0.24861 0.0
H263 H 0.69984 0.61482 0.24606 0.0
H264 H 0.72538 0.62506 0.21988 0.0
H265 H 0.70805 0.57307 0.19932 0.0
H266 H 0.70351 0.56757 0.30664 0.0
H267 H 0.67595 0.55397 0.32891 0.0
O268 O 0.6567 0.55791 0.22594 0.0
C269 C 0.6439 0.51947 0.21651 0.0
C270 C 0.66041 0.54568 0.29727 0.0
C271 C 0.69139 0.56132 0.2972 0.0
N272 N 0.67583 0.55306 0.26032 0.0
C273 C 0.66062 0.54546 0.27245 0.0
C274 C 0.6911 0.56084 0.27238 0.0
C275 C 0.67592 0.55369 0.30968 0.0
C276 C 0.67491 0.531 0.14956 0.0
N277 N 0.65886 0.52583 0.15829 0.0
C278 C 0.6788 0.51914 0.13953 0.0
C279 C 0.66614 0.50186 0.13854 0.0
C280 C 0.64982 0.49666 0.14756 0.0
C281 C 0.6464 0.50888 0.15747 0.0
C282 C 0.61778 0.52476 0.11746 0.0
C283 C 0.61848 0.53159 0.16555 0.0
C284 C 0.63287 0.53079 0.1307 0.0
N285 N 0.63309 0.53414 0.15445 0.0
C286 C 0.60314 0.52556 0.15289 0.0
C287 C 0.60283 0.52214 0.12868 0.0
C288 C 0.64931 0.56255 0.21071 0.0
C289 C 0.71838 0.59965 0.20792 0.0
C290 C 0.68991 0.58818 0.23708 0.0
C291 C 0.70176 0.60575 0.23576 0.0
C292 C 0.71609 0.61148 0.22108 0.0
N293 N 0.69228 0.57665 0.22418 0.0
C294 C 0.70626 0.58218 0.20968 0.0
Co295 Co 0.11492 0.64797 0.1702 0.0
Co296 Co 0.12898 0.66867 0.22364 0.0
O297 O 0.12939 0.66897 0.18868 0.0
C298 C 0.09903 0.65938 0.13371 0.0
O299 O 0.08412 0.64767 0.14231 0.0
C300 C 0.16647 0.69305 0.21096 0.0
O301 O 0.1637 0.68966 0.18818 0.0
O302 O 0.13465 0.64994 0.22371 0.0
O303 O 0.1168 0.63305 0.19519 0.0
H304 H 0.11234 0.63963 0.30334 0.0
H305 H 0.14489 0.67666 0.14611 0.0
O306 O 0.11287 0.66234 0.1442 0.0
H307 H 0.15539 0.62785 0.14296 0.0
H308 H 0.09517 0.61177 0.09583 0.0
H309 H 0.08548 0.61362 0.18178 0.0
H310 H 0.12914 0.6246 0.16167 0.0
H311 H 0.11349 0.63792 0.1191 0.0
O312 O 0.15423 0.6859 0.22589 0.0
H313 H 0.11302 0.6409 0.25954 0.0
H314 H 0.14432 0.69524 0.26188 0.0
H315 H 0.06688 0.5872 0.15918 0.0
H316 H 0.17119 0.68039 0.12687 0.0
H317 H 0.07166 0.58616 0.11588 0.0
H318 H 0.17661 0.65589 0.12529 0.0
O319 O 0.09399 0.64546 0.18632 0.0
H320 H 0.13538 0.72493 0.19648 0.0
H321 H 0.10323 0.67474 0.24871 0.0
H322 H 0.09573 0.69761 0.24813 0.0
H323 H 0.11192 0.723 0.22196 0.0
H324 H 0.14232 0.70168 0.1974 0.0
H325 H 0.1441 0.69453 0.30569 0.0
H326 H 0.12796 0.66659 0.32672 0.0
O327 O 0.10376 0.6515 0.2237 0.0
C328 C 0.12667 0.63559 0.21291 0.0
C329 C 0.11938 0.65189 0.29439 0.0
C330 C 0.13722 0.6827 0.29571 0.0
N331 N 0.12858 0.66813 0.25814 0.0
C332 C 0.11978 0.6527 0.26958 0.0
C333 C 0.13733 0.68301 0.27088 0.0
C334 C 0.12815 0.66702 0.30749 0.0
C335 C 0.14708 0.66589 0.14533 0.0
N336 N 0.13547 0.65045 0.15505 0.0
C337 C 0.16203 0.6681 0.13449 0.0
C338 C 0.16508 0.65436 0.13363 0.0
C339 C 0.15319 0.63864 0.14357 0.0
C340 C 0.13838 0.6369 0.15428 0.0
C341 C 0.09296 0.61206 0.11469 0.0
C342 C 0.08766 0.61328 0.16295 0.0
C343 C 0.1033 0.62683 0.12797 0.0
N344 N 0.10058 0.62731 0.15181 0.0
C345 C 0.07708 0.59827 0.15025 0.0
C346 C 0.07977 0.5977 0.12595 0.0
C347 C 0.09149 0.64533 0.20866 0.0
C348 C 0.12831 0.71399 0.20807 0.0
C349 C 0.11034 0.68572 0.23725 0.0
C350 C 0.10604 0.69865 0.23702 0.0
C351 C 0.11512 0.71288 0.22234 0.0
N352 N 0.12342 0.68697 0.22337 0.0
C353 C 0.13226 0.70081 0.20877 0.0
Co354 Co 0.89947 0.53824 0.34946 0.0
Co355 Co 0.88309 0.54816 0.30046 0.0
O356 O 0.88383 0.54512 0.33501 0.0
C357 C 0.89952 0.56433 0.38422 0.0
O358 O 0.89146 0.56909 0.3693 0.0
C359 C 0.8461 0.52709 0.28922 0.0
O360 O 0.85058 0.51851 0.27482 0.0
O361 O 0.87898 0.52451 0.29497 0.0
O362 O 0.8964 0.5229 0.32197 0.0
H363 H 0.89734 0.5438 0.2153 0.0
H364 H 0.86913 0.53433 0.37616 0.0
O365 O 0.90339 0.553 0.37831 0.0
H366 H 0.86221 0.4764 0.37383 0.0
H367 H 0.92454 0.52045 0.41643 0.0
H368 H 0.92795 0.53388 0.33093 0.0
H369 H 0.88727 0.50085 0.35507 0.0
H370 H 0.90456 0.52851 0.39839 0.0
O371 O 0.85747 0.53899 0.30231 0.0
H372 H 0.89811 0.54037 0.2587 0.0
H373 H 0.86621 0.56224 0.2689 0.0
H374 H 0.94809 0.52573 0.34822 0.0
H375 H 0.844 0.51029 0.39542 0.0
H376 H 0.94646 0.51895 0.39127 0.0
H377 H 0.84038 0.48104 0.39432 0.0
O378 O 0.91954 0.55774 0.33344 0.0
H379 H 0.87221 0.59215 0.33934 0.0
H380 H 0.90793 0.58296 0.28128 0.0
H381 H 0.91347 0.61232 0.2887 0.0
H382 H 0.89549 0.61706 0.31783 0.0
H383 H 0.86729 0.56301 0.33167 0.0
H384 H 0.86507 0.56586 0.22561 0.0
H385 H 0.88072 0.55662 0.19849 0.0
O386 O 0.90847 0.55744 0.29759 0.0
C387 C 0.88679 0.51723 0.30369 0.0
C388 C 0.89048 0.54789 0.22693 0.0
C389 C 0.87237 0.56028 0.23272 0.0
N390 N 0.88227 0.55115 0.26634 0.0
C391 C 0.89088 0.546 0.25153 0.0
C392 C 0.87307 0.5582 0.25722 0.0
C393 C 0.88115 0.55509 0.21751 0.0
C394 C 0.86781 0.52173 0.37584 0.0
N395 N 0.87985 0.51912 0.36479 0.0
C396 C 0.85347 0.50812 0.38668 0.0
C397 C 0.85144 0.49171 0.38602 0.0
C398 C 0.86367 0.48909 0.37453 0.0
C399 C 0.87784 0.50301 0.36389 0.0
C400 C 0.92537 0.52336 0.39764 0.0
C401 C 0.9271 0.53087 0.34965 0.0
C402 C 0.91412 0.52798 0.38733 0.0
N403 N 0.91502 0.53159 0.36358 0.0
C404 C 0.93857 0.5263 0.35936 0.0
C405 C 0.93766 0.52251 0.38352 0.0
C406 C 0.92124 0.56202 0.31154 0.0
C407 C 0.88012 0.59025 0.32657 0.0
C408 C 0.90017 0.58492 0.29419 0.0
C409 C 0.90331 0.60157 0.29821 0.0
C410 C 0.8932 0.60422 0.31453 0.0
N411 N 0.8873 0.57127 0.30607 0.0
C412 C 0.87734 0.57377 0.32209 0.0
Co413 Co 0.35969 0.89416 0.34309 0.0
Co414 Co 0.33515 0.88173 0.29253 0.0
O415 O 0.33717 0.88098 0.32734 0.0
C416 C 0.33435 0.89504 0.37869 0.0
O417 O 0.32104 0.88676 0.36459 0.0
C418 C 0.31491 0.84376 0.30071 0.0
O419 O 0.32692 0.84478 0.31506 0.0
O420 O 0.35217 0.8739 0.28823 0.0
O421 O 0.37148 0.8903 0.31563 0.0
H422 H 0.35821 0.8962 0.20924 0.0
H423 H 0.33045 0.86395 0.36687 0.0
O424 O 0.34936 0.89875 0.37191 0.0
H425 H 0.3779 0.85139 0.36582 0.0
H426 H 0.40092 0.91322 0.41222 0.0
H427 H 0.39435 0.92068 0.32673 0.0
H428 H 0.38182 0.87836 0.34881 0.0
H429 H 0.3728 0.89618 0.39256 0.0
O430 O 0.31602 0.85728 0.29175 0.0
H431 H 0.36023 0.89538 0.25288 0.0
H432 H 0.30578 0.86917 0.25844 0.0
H433 H 0.42273 0.93786 0.34566 0.0
H434 H 0.32607 0.83699 0.38437 0.0
H435 H 0.42615 0.93419 0.38871 0.0
H436 H 0.34989 0.8305 0.3839 0.0
O437 O 0.36309 0.91581 0.32824 0.0
H438 H 0.28269 0.87907 0.32833 0.0
H439 H 0.33086 0.91022 0.27253 0.0
H440 H 0.31009 0.92018 0.27864 0.0
H441 H 0.28576 0.90454 0.30667 0.0
H442 H 0.30388 0.86964 0.32184 0.0
H443 H 0.30318 0.86958 0.21485 0.0
H444 H 0.32953 0.88322 0.18993 0.0
O445 O 0.35405 0.90627 0.29136 0.0
C446 C 0.36705 0.88042 0.29759 0.0
C447 C 0.34664 0.89024 0.2199 0.0
C448 C 0.31575 0.87529 0.22305 0.0
N449 N 0.33315 0.88231 0.25823 0.0
C450 C 0.3477 0.88977 0.24463 0.0
C451 C 0.31731 0.87506 0.24773 0.0
C452 C 0.33054 0.88295 0.20908 0.0
C453 C 0.341 0.86147 0.36696 0.0
N454 N 0.35649 0.873 0.35726 0.0
C455 C 0.33839 0.84606 0.37674 0.0
C456 C 0.35174 0.8424 0.37642 0.0
C457 C 0.36745 0.85411 0.36628 0.0
C458 C 0.36959 0.86938 0.35666 0.0
C459 C 0.3996 0.91492 0.39344 0.0
C460 C 0.39574 0.91894 0.34545 0.0
C461 C 0.38369 0.90534 0.38221 0.0
N462 N 0.38193 0.90735 0.35846 0.0
C463 C 0.41184 0.92874 0.35608 0.0
C464 C 0.41375 0.92668 0.38024 0.0
C465 C 0.36217 0.91846 0.30614 0.0
C466 C 0.29323 0.88599 0.31606 0.0
C467 C 0.3204 0.90342 0.28491 0.0
C468 C 0.30863 0.90908 0.28821 0.0
C469 C 0.29497 0.90029 0.30392 0.0
N470 N 0.31861 0.88938 0.29689 0.0
C471 C 0.30524 0.88069 0.31229 0.0
Co472 Co 0.46818 0.35711 0.34238 0.0
Co473 Co 0.46049 0.33734 0.28811 0.0
O474 O 0.46045 0.3363 0.32301 0.0
C475 C 0.44077 0.34656 0.37859 0.0
O476 O 0.43864 0.35912 0.37068 0.0
C477 C 0.4764 0.31542 0.29773 0.0
O478 O 0.48392 0.32428 0.31695 0.0
O479 O 0.48532 0.35494 0.28838 0.0
O480 O 0.48583 0.37177 0.31809 0.0
H481 H 0.47499 0.36771 0.20929 0.0
H482 H 0.46677 0.32651 0.36455 0.0
O483 O 0.45102 0.3429 0.36772 0.0
H484 H 0.52737 0.37238 0.37093 0.0
H485 H 0.48597 0.39162 0.41832 0.0
H486 H 0.47591 0.39262 0.33231 0.0
H487 H 0.50591 0.37813 0.35234 0.0
H488 H 0.47663 0.36566 0.39393 0.0
O489 O 0.46661 0.31883 0.28539 0.0
H490 H 0.47419 0.36577 0.25304 0.0
H491 H 0.4476 0.31128 0.2491 0.0
H492 H 0.48527 0.41888 0.35605 0.0
H493 H 0.48777 0.3203 0.38369 0.0
H494 H 0.49036 0.41849 0.39939 0.0
H495 H 0.51833 0.34332 0.38689 0.0
O496 O 0.4509 0.36161 0.32642 0.0
H497 H 0.40895 0.28185 0.31315 0.0
H498 H 0.42921 0.33393 0.26411 0.0
H499 H 0.39834 0.31227 0.26463 0.0
H500 H 0.38804 0.28597 0.28921 0.0
H501 H 0.43971 0.30394 0.31228 0.0
H502 H 0.44824 0.31264 0.20532 0.0
H503 H 0.46195 0.34101 0.18512 0.0
O504 O 0.45417 0.35574 0.28878 0.0
C505 C 0.49268 0.36899 0.30001 0.0
C506 C 0.46893 0.35527 0.21788 0.0
C507 C 0.45393 0.32436 0.21565 0.0
N508 N 0.46074 0.33843 0.25364 0.0
C509 C 0.4684 0.35409 0.24265 0.0
C510 C 0.45364 0.32368 0.24046 0.0
C511 C 0.46162 0.34028 0.20433 0.0
C512 C 0.48 0.33665 0.36611 0.0
N513 N 0.48506 0.35267 0.35739 0.0
C514 C 0.49185 0.33303 0.37687 0.0
C515 C 0.50901 0.34594 0.37862 0.0
C516 C 0.51409 0.36224 0.36964 0.0
C517 C 0.50188 0.36539 0.35901 0.0
C518 C 0.4838 0.39196 0.39945 0.0
C519 C 0.47809 0.39234 0.35115 0.0
C520 C 0.47851 0.3773 0.38554 0.0
N521 N 0.47571 0.3776 0.36168 0.0
C522 C 0.4834 0.40725 0.36451 0.0
C523 C 0.48625 0.40702 0.38882 0.0
C524 C 0.4487 0.36231 0.30412 0.0
C525 C 0.41329 0.29324 0.30232 0.0
C526 C 0.42482 0.32257 0.27496 0.0
C527 C 0.40733 0.31032 0.27512 0.0
C528 C 0.40156 0.29556 0.28891 0.0
N529 N 0.43625 0.32016 0.2881 0.0
C530 C 0.43068 0.30576 0.30172 0.0
Co531 Co 0.10994 0.46329 0.34299 0.0
Co532 Co 0.12408 0.45123 0.29442 0.0
O533 O 0.12437 0.45486 0.32888 0.0
C534 C 0.11019 0.43836 0.3795 0.0
O535 O 0.11743 0.43267 0.36461 0.0
C536 C 0.1623 0.47128 0.30142 0.0
O537 O 0.16105 0.48392 0.31104 0.0
O538 O 0.13081 0.47568 0.2887 0.0
O539 O 0.11259 0.47746 0.31411 0.0
H540 H 0.10964 0.45653 0.20966 0.0
H541 H 0.14076 0.46729 0.36856 0.0
O542 O 0.10651 0.44973 0.37304 0.0
H543 H 0.14989 0.52589 0.36095 0.0
H544 H 0.08845 0.48557 0.40896 0.0
H545 H 0.08172 0.46825 0.32471 0.0
H546 H 0.12358 0.5011 0.34517 0.0
H547 H 0.10698 0.47558 0.39116 0.0
O548 O 0.14885 0.45752 0.29512 0.0
H549 H 0.10979 0.46041 0.25307 0.0
H550 H 0.13855 0.43505 0.26251 0.0
H551 H 0.06303 0.47829 0.34175 0.0
H552 H 0.16714 0.49168 0.38483 0.0
H553 H 0.06632 0.48704 0.38418 0.0
H554 H 0.17187 0.52126 0.38105 0.0
O555 O 0.08903 0.44354 0.32886 0.0
H556 H 0.1291 0.40366 0.33351 0.0
H557 H 0.09669 0.41747 0.27537 0.0
H558 H 0.08799 0.38719 0.28297 0.0
H559 H 0.10427 0.38011 0.31219 0.0
H560 H 0.13723 0.43378 0.32557 0.0
H561 H 0.13885 0.43104 0.21921 0.0
H562 H 0.12425 0.44176 0.19246 0.0
O563 O 0.09918 0.44441 0.29226 0.0
C564 C 0.12286 0.48309 0.29649 0.0
C565 C 0.11602 0.45177 0.22114 0.0
C566 C 0.13243 0.43749 0.22649 0.0
N567 N 0.1241 0.44789 0.26034 0.0
C568 C 0.11612 0.4539 0.24574 0.0
C569 C 0.13226 0.43984 0.251 0.0
C570 C 0.12423 0.4435 0.21149 0.0
C571 C 0.14255 0.48005 0.36715 0.0
N572 N 0.13044 0.48266 0.3563 0.0
C573 C 0.15759 0.49385 0.37627 0.0
C574 C 0.16026 0.51045 0.3741 0.0
C575 C 0.14793 0.51305 0.36283 0.0
C576 C 0.13305 0.49894 0.35393 0.0
C577 C 0.0869 0.48181 0.39045 0.0
C578 C 0.0833 0.4721 0.34316 0.0
C579 C 0.09732 0.47609 0.38028 0.0
N580 N 0.0955 0.4714 0.35687 0.0
C581 C 0.07265 0.47775 0.35272 0.0
C582 C 0.07449 0.48264 0.37653 0.0
C583 C 0.08672 0.4397 0.30681 0.0
C584 C 0.12189 0.40657 0.32075 0.0
C585 C 0.10374 0.41451 0.2883 0.0
C586 C 0.0988 0.39733 0.29243 0.0
C587 C 0.10795 0.39337 0.3088 0.0
N588 N 0.1174 0.42739 0.30014 0.0
C589 C 0.12647 0.4236 0.31614 0.0
Co590 Co 0.64939 0.11046 0.34649 0.0
Co591 Co 0.67187 0.12248 0.29428 0.0
O592 O 0.67109 0.12288 0.32904 0.0
C593 C 0.65735 0.092 0.38352 0.0
O594 O 0.64483 0.07772 0.37453 0.0
C595 C 0.69254 0.16047 0.30202 0.0
O596 O 0.67976 0.1599 0.3141 0.0
O597 O 0.65499 0.13065 0.29215 0.0
O598 O 0.63654 0.11474 0.32081 0.0
H599 H 0.64624 0.10934 0.21227 0.0
H600 H 0.68006 0.13871 0.36995 0.0
O601 O 0.66187 0.10629 0.37317 0.0
H602 H 0.63608 0.1562 0.37254 0.0
H603 H 0.61182 0.09422 0.41943 0.0
H604 H 0.61375 0.08425 0.33358 0.0
H605 H 0.62951 0.12856 0.35463 0.0
H606 H 0.63898 0.11007 0.39715 0.0
O607 O 0.69143 0.14672 0.29394 0.0
H608 H 0.64559 0.1095 0.25608 0.0
H609 H 0.70014 0.13551 0.25843 0.0
H610 H 0.58631 0.06815 0.35517 0.0
H611 H 0.68711 0.1664 0.38828 0.0
H612 H 0.58523 0.07309 0.39842 0.0
H613 H 0.66504 0.17531 0.38961 0.0
O614 O 0.64436 0.08856 0.3304 0.0
H615 H 0.72447 0.12299 0.32576 0.0
H616 H 0.675 0.0942 0.2713 0.0
H617 H 0.69543 0.08354 0.27453 0.0
H618 H 0.72042 0.09801 0.30186 0.0
H619 H 0.70361 0.13313 0.32215 0.0
H620 H 0.70139 0.13576 0.21464 0.0
H621 H 0.6743 0.12254 0.19125 0.0
O622 O 0.65264 0.09815 0.29327 0.0
C623 C 0.64048 0.12445 0.30258 0.0
C624 C 0.65814 0.1151 0.22226 0.0
C625 C 0.68909 0.12994 0.22359 0.0
N626 N 0.6728 0.1224 0.25982 0.0
C627 C 0.65784 0.1152 0.24708 0.0
C628 C 0.6883 0.1298 0.24839 0.0
C629 C 0.67388 0.12252 0.21048 0.0
C630 C 0.67034 0.14243 0.37066 0.0
N631 N 0.65436 0.13195 0.36138 0.0
C632 C 0.67442 0.15815 0.38097 0.0
C633 C 0.66205 0.16316 0.38169 0.0
C634 C 0.6458 0.15244 0.3721 0.0
C635 C 0.64217 0.13682 0.36192 0.0
C636 C 0.61212 0.09195 0.40059 0.0
C637 C 0.61339 0.08648 0.35239 0.0
C638 C 0.62746 0.10089 0.38787 0.0
N639 N 0.62796 0.09809 0.36406 0.0
C640 C 0.59781 0.07733 0.36453 0.0
C641 C 0.59721 0.0801 0.38879 0.0
C642 C 0.64461 0.08597 0.30811 0.0
C643 C 0.71365 0.1166 0.31376 0.0
C644 C 0.68578 0.1005 0.28334 0.0
C645 C 0.69734 0.09444 0.28504 0.0
C646 C 0.71136 0.10257 0.30036 0.0
N647 N 0.68814 0.11431 0.29649 0.0
C648 C 0.70182 0.1223 0.31161 0.0
Co649 Co 0.54015 0.6476 0.34828 0.0
Co650 Co 0.55013 0.67185 0.2972 0.0
O651 O 0.54758 0.66977 0.33212 0.0
C652 C 0.56623 0.6745 0.38243 0.0
O653 O 0.5705 0.68716 0.36739 0.0
C654 C 0.5349 0.69444 0.30992 0.0
O655 O 0.53275 0.68987 0.33236 0.0
O656 O 0.52603 0.65297 0.29313 0.0
O657 O 0.52457 0.63465 0.32118 0.0
H658 H 0.54385 0.64841 0.21443 0.0
H659 H 0.53702 0.6751 0.37356 0.0
O660 O 0.55518 0.65913 0.37674 0.0
H661 H 0.47842 0.62506 0.37179 0.0
H662 H 0.52159 0.60707 0.4181 0.0
H663 H 0.53474 0.6138 0.33237 0.0
H664 H 0.50255 0.62336 0.35395 0.0
H665 H 0.53035 0.63461 0.39803 0.0
O666 O 0.54166 0.68867 0.29543 0.0
H667 H 0.54131 0.64668 0.25811 0.0
H668 H 0.56366 0.70088 0.26245 0.0
H669 H 0.52589 0.58598 0.35171 0.0
H670 H 0.51333 0.67726 0.39194 0.0
H671 H 0.51924 0.58248 0.39489 0.0
H672 H 0.48374 0.65213 0.39108 0.0
O673 O 0.55932 0.64588 0.33319 0.0
H674 H 0.5968 0.72714 0.33222 0.0
H675 H 0.58395 0.67984 0.2766 0.0
H676 H 0.61392 0.70303 0.28189 0.0
H677 H 0.62052 0.72696 0.30979 0.0
H678 H 0.56706 0.70357 0.32662 0.0
H679 H 0.56631 0.70317 0.2188 0.0
H680 H 0.55643 0.67682 0.19449 0.0
O681 O 0.55855 0.65505 0.29648 0.0
C682 C 0.51867 0.63816 0.30275 0.0
C683 C 0.54826 0.65999 0.22483 0.0
C684 C 0.56084 0.69072 0.22729 0.0
N685 N 0.55247 0.67366 0.26285 0.0
C686 C 0.54689 0.6591 0.24958 0.0
C687 C 0.55928 0.68934 0.252 0.0
C688 C 0.5553 0.67593 0.21366 0.0
C689 C 0.52429 0.66403 0.37337 0.0
N690 N 0.5213 0.64909 0.36286 0.0
C691 C 0.51087 0.66536 0.38369 0.0
C692 C 0.49426 0.65127 0.38317 0.0
C693 C 0.49127 0.63609 0.37233 0.0
C694 C 0.505 0.63524 0.36218 0.0
C695 C 0.52443 0.60842 0.39927 0.0
C696 C 0.5318 0.61236 0.35114 0.0
C697 C 0.52944 0.62401 0.38781 0.0
N698 N 0.53298 0.62581 0.364 0.0
C699 C 0.52682 0.59659 0.362 0.0
C700 C 0.52311 0.59464 0.38623 0.0
C701 C 0.56322 0.64739 0.31118 0.0
C702 C 0.59409 0.71682 0.31993 0.0
C703 C 0.58669 0.69013 0.28889 0.0
C704 C 0.6037 0.70327 0.29174 0.0
C705 C 0.60739 0.7167 0.30738 0.0
N706 N 0.57369 0.69037 0.30119 0.0
C707 C 0.57723 0.70347 0.3166 0.0
Co708 Co 0.5384 0.89097 0.84496 0.0
Co709 Co 0.54505 0.87707 0.79132 0.0
O710 O 0.545 0.87662 0.82631 0.0
C711 C 0.56608 0.90718 0.88089 0.0
O712 O 0.56941 0.92197 0.87175 0.0
C713 C 0.53189 0.83954 0.80384 0.0
O714 O 0.53124 0.84221 0.82664 0.0
O715 O 0.52063 0.87141 0.79129 0.0
O716 O 0.52143 0.88893 0.82019 0.0
H717 H 0.53258 0.89381 0.71171 0.0
H718 H 0.53758 0.86119 0.86894 0.0
O719 O 0.55502 0.89322 0.87084 0.0
H720 H 0.47807 0.85015 0.87283 0.0
H721 H 0.52222 0.91057 0.91966 0.0
H722 H 0.53307 0.92017 0.83357 0.0
H723 H 0.50081 0.87646 0.8539 0.0
H724 H 0.53008 0.89238 0.89619 0.0
O725 O 0.53702 0.85184 0.789 0.0
H726 H 0.53321 0.89308 0.75551 0.0
H727 H 0.55624 0.86177 0.75299 0.0
H728 H 0.52519 0.93863 0.85638 0.0
H729 H 0.51527 0.83483 0.88838 0.0
H730 H 0.51971 0.93389 0.89975 0.0
H731 H 0.48524 0.82914 0.89034 0.0
O732 O 0.55658 0.91196 0.82867 0.0
H733 H 0.59492 0.87055 0.81826 0.0
H734 H 0.57687 0.90281 0.76623 0.0
H735 H 0.60726 0.91028 0.76673 0.0
H736 H 0.61646 0.89404 0.79279 0.0
H737 H 0.56473 0.86366 0.81742 0.0
H738 H 0.55571 0.86204 0.70918 0.0
H739 H 0.54388 0.87822 0.68824 0.0
O740 O 0.55308 0.90226 0.79129 0.0
C741 C 0.5142 0.87926 0.80229 0.0
C742 C 0.53781 0.88676 0.72063 0.0
C743 C 0.55077 0.86892 0.7192 0.0
N744 N 0.54487 0.87751 0.75682 0.0
C745 C 0.53824 0.88633 0.74543 0.0
C746 C 0.551 0.86878 0.74402 0.0
C747 C 0.54414 0.878 0.70747 0.0
C748 C 0.52458 0.85888 0.86988 0.0
N749 N 0.52054 0.87036 0.86025 0.0
C750 C 0.51198 0.84389 0.88084 0.0
C751 C 0.49513 0.8407 0.8819 0.0
C752 C 0.4911 0.85247 0.87205 0.0
C753 C 0.50403 0.86731 0.86123 0.0
C754 C 0.52456 0.91276 0.90077 0.0
C755 C 0.53068 0.918 0.85243 0.0
C756 C 0.52901 0.90249 0.88738 0.0
N757 N 0.53202 0.90519 0.86349 0.0
C758 C 0.52623 0.9285 0.86525 0.0
C759 C 0.52316 0.92584 0.88959 0.0
C760 C 0.55895 0.9145 0.80633 0.0
C761 C 0.59106 0.87765 0.80671 0.0
C762 C 0.58074 0.89569 0.77765 0.0
C763 C 0.59798 0.89997 0.77783 0.0
C764 C 0.60314 0.89085 0.79245 0.0
N765 N 0.56892 0.88261 0.79152 0.0
C766 C 0.57392 0.87373 0.80606 0.0
Co767 Co 0.64907 0.53923 0.84692 0.0
Co768 Co 0.67217 0.54697 0.79531 0.0
O769 O 0.67055 0.54569 0.83003 0.0
C770 C 0.6598 0.56633 0.88365 0.0
O771 O 0.64826 0.56962 0.87464 0.0
C772 C 0.688 0.52582 0.78419 0.0
O773 O 0.67429 0.51639 0.7712 0.0
O774 O 0.65256 0.52299 0.79295 0.0
O775 O 0.63494 0.52267 0.82136 0.0
H776 H 0.64838 0.53797 0.71237 0.0
H777 H 0.67724 0.53744 0.87179 0.0
O778 O 0.66281 0.55542 0.87342 0.0
H779 H 0.62765 0.47853 0.87467 0.0
H780 H 0.61068 0.52268 0.91905 0.0
H781 H 0.61515 0.5345 0.83296 0.0
H782 H 0.62509 0.50177 0.85537 0.0
H783 H 0.63749 0.53047 0.89748 0.0
O784 O 0.68898 0.53828 0.7964 0.0
H785 H 0.64685 0.53681 0.75615 0.0
H786 H 0.70113 0.55959 0.76044 0.0
H787 H 0.5881 0.52673 0.85384 0.0
H788 H 0.68027 0.5146 0.89155 0.0
H789 H 0.58574 0.52076 0.8972 0.0
H790 H 0.65537 0.48489 0.89305 0.0
O791 O 0.64712 0.55779 0.83011 0.0
H792 H 0.72823 0.59353 0.82833 0.0
H793 H 0.68075 0.58045 0.77275 0.0
H794 H 0.70454 0.61029 0.77669 0.0
H795 H 0.72855 0.61698 0.80456 0.0
H796 H 0.70406 0.56388 0.82405 0.0
H797 H 0.70325 0.56096 0.7167 0.0
H798 H 0.67674 0.55011 0.69236 0.0
O799 O 0.6557 0.5558 0.79339 0.0
C800 C 0.63793 0.51616 0.80312 0.0
C801 C 0.66002 0.54276 0.72278 0.0
C802 C 0.69082 0.55566 0.72521 0.0
N803 N 0.67388 0.54817 0.76085 0.0
C804 C 0.65924 0.54214 0.74758 0.0
C805 C 0.68954 0.55485 0.74997 0.0
C806 C 0.67594 0.54957 0.71157 0.0
C807 C 0.6663 0.52457 0.87254 0.0
N808 N 0.65098 0.521 0.86259 0.0
C809 C 0.66811 0.51168 0.88368 0.0
C810 C 0.65414 0.49501 0.88448 0.0
C811 C 0.63859 0.49143 0.87416 0.0
C812 C 0.63724 0.50465 0.86318 0.0
C813 C 0.61154 0.52524 0.90015 0.0
C814 C 0.61423 0.53192 0.85183 0.0
C815 C 0.62669 0.52966 0.88783 0.0
N816 N 0.6279 0.53294 0.86396 0.0
C817 C 0.59887 0.52752 0.86356 0.0
C818 C 0.59756 0.52417 0.88789 0.0
C819 C 0.64832 0.561 0.80783 0.0
C820 C 0.71787 0.59077 0.81608 0.0
C821 C 0.69109 0.58326 0.78503 0.0
C822 C 0.70456 0.60018 0.78712 0.0
C823 C 0.71803 0.60392 0.80275 0.0
N824 N 0.69107 0.57041 0.79806 0.0
C825 C 0.70418 0.574 0.81352 0.0
Co826 Co 0.11601 0.65128 0.84526 0.0
Co827 Co 0.12694 0.67156 0.79128 0.0
O828 O 0.12808 0.67228 0.82609 0.0
C829 C 0.09834 0.66033 0.88208 0.0
O830 O 0.08389 0.64742 0.87412 0.0
C831 C 0.16487 0.69263 0.79856 0.0
O832 O 0.16402 0.68136 0.81415 0.0
O833 O 0.13509 0.65466 0.79061 0.0
O834 O 0.11976 0.63742 0.82062 0.0
H835 H 0.11217 0.6423 0.71166 0.0
H836 H 0.14462 0.68279 0.86655 0.0
O837 O 0.11235 0.66474 0.87099 0.0
H838 H 0.1625 0.63922 0.87215 0.0
H839 H 0.1016 0.61659 0.92089 0.0
H840 H 0.08949 0.61522 0.83516 0.0
H841 H 0.13447 0.63189 0.85472 0.0
H842 H 0.11688 0.64283 0.8966 0.0
O843 O 0.15125 0.69088 0.78897 0.0
H844 H 0.11337 0.64362 0.75544 0.0
H845 H 0.13875 0.69811 0.75304 0.0
H846 H 0.07395 0.58867 0.8588 0.0
H847 H 0.17267 0.69061 0.88442 0.0
H848 H 0.07996 0.58925 0.90199 0.0
H849 H 0.1818 0.66875 0.88724 0.0
O850 O 0.09372 0.64559 0.82964 0.0
H851 H 0.12844 0.72559 0.81798 0.0
H852 H 0.09796 0.67359 0.76842 0.0
H853 H 0.08742 0.69417 0.76996 0.0
H854 H 0.10274 0.72043 0.79481 0.0
H855 H 0.13845 0.70456 0.8161 0.0
H856 H 0.13796 0.69738 0.70922 0.0
H857 H 0.12454 0.66932 0.68824 0.0
O858 O 0.1026 0.65236 0.79194 0.0
C859 C 0.12907 0.6406 0.80211 0.0
C860 C 0.11802 0.6546 0.72059 0.0
C861 C 0.13251 0.68552 0.71922 0.0
N862 N 0.12602 0.67092 0.7568 0.0
C863 C 0.1187 0.65544 0.74539 0.0
C864 C 0.13295 0.68585 0.74404 0.0
C865 C 0.12497 0.66977 0.70746 0.0
C866 C 0.14841 0.67316 0.86794 0.0
N867 N 0.13785 0.65687 0.85973 0.0
C868 C 0.16435 0.67768 0.87798 0.0
C869 C 0.16948 0.66542 0.87952 0.0
C870 C 0.15866 0.64885 0.87105 0.0
C871 C 0.14282 0.64479 0.86111 0.0
C872 C 0.09887 0.61617 0.90209 0.0
C873 C 0.09218 0.61558 0.85395 0.0
C874 C 0.10747 0.63099 0.88823 0.0
N875 N 0.10407 0.63058 0.86446 0.0
C876 C 0.08334 0.60051 0.86724 0.0
C877 C 0.08673 0.60084 0.89147 0.0
C878 C 0.09071 0.64489 0.80734 0.0
C879 C 0.12168 0.71422 0.80705 0.0
C880 C 0.10465 0.68494 0.77938 0.0
C881 C 0.09864 0.69657 0.78013 0.0
C882 C 0.10725 0.71131 0.79406 0.0
N883 N 0.11886 0.68792 0.7921 0.0
C884 C 0.12732 0.7023 0.80587 0.0
Co885 Co 0.46996 0.11476 0.84535 0.0
Co886 Co 0.46154 0.12626 0.79109 0.0
O887 O 0.46161 0.1273 0.82599 0.0
C888 C 0.44254 0.09711 0.88127 0.0
O889 O 0.44054 0.08265 0.87265 0.0
C890 C 0.47786 0.16404 0.79975 0.0
O891 O 0.48686 0.16288 0.81731 0.0
O892 O 0.48652 0.13407 0.79105 0.0
O893 O 0.48769 0.11823 0.82096 0.0
H894 H 0.47637 0.11111 0.712 0.0
H895 H 0.4676 0.14351 0.86707 0.0
O896 O 0.45272 0.11127 0.87089 0.0
H897 H 0.52871 0.16004 0.87338 0.0
H898 H 0.48875 0.09902 0.92125 0.0
H899 H 0.47878 0.08773 0.83527 0.0
H900 H 0.50775 0.13242 0.85526 0.0
H901 H 0.47862 0.11499 0.89684 0.0
O902 O 0.467 0.15068 0.78857 0.0
H903 H 0.47576 0.11222 0.75577 0.0
H904 H 0.44782 0.1388 0.75233 0.0
H905 H 0.48897 0.07151 0.85902 0.0
H906 H 0.48811 0.17115 0.88566 0.0
H907 H 0.49401 0.0771 0.90234 0.0
H908 H 0.51892 0.1796 0.88883 0.0
O909 O 0.4531 0.09277 0.82944 0.0
H910 H 0.40923 0.12868 0.81655 0.0
H911 H 0.43053 0.0978 0.76748 0.0
H912 H 0.39949 0.08778 0.76831 0.0
H913 H 0.38865 0.1033 0.79291 0.0
H914 H 0.44018 0.13816 0.81537 0.0
H915 H 0.44825 0.1381 0.70853 0.0
H916 H 0.46254 0.12412 0.68808 0.0
O917 O 0.45591 0.10177 0.79174 0.0
C918 C 0.4942 0.1277 0.80266 0.0
C919 C 0.47005 0.1172 0.72071 0.0
C920 C 0.45429 0.13236 0.71876 0.0
N921 N 0.46165 0.12544 0.75661 0.0
C922 C 0.46963 0.11783 0.74549 0.0
C923 C 0.45412 0.13274 0.74357 0.0
C924 C 0.46231 0.12451 0.7073 0.0
C925 C 0.48095 0.14701 0.86862 0.0
N926 N 0.48643 0.13631 0.86019 0.0
C927 C 0.49252 0.16272 0.87906 0.0
C928 C 0.50981 0.16746 0.8808 0.0
C929 C 0.51532 0.1565 0.87211 0.0
C930 C 0.50339 0.1409 0.86177 0.0
C931 C 0.48661 0.09646 0.90239 0.0
C932 C 0.48096 0.09025 0.85411 0.0
C933 C 0.48087 0.10546 0.88847 0.0
N934 N 0.4781 0.1023 0.86462 0.0
C935 C 0.48672 0.08102 0.86746 0.0
C936 C 0.48955 0.08417 0.89177 0.0
C937 C 0.45087 0.08982 0.80716 0.0
C938 C 0.4138 0.12183 0.80572 0.0
C939 C 0.42592 0.10457 0.77834 0.0
C940 C 0.40832 0.09886 0.77868 0.0
C941 C 0.40226 0.10758 0.79247 0.0
N942 N 0.43716 0.1186 0.79132 0.0
C943 C 0.4313 0.12717 0.80495 0.0
Co944 Co 0.36134 0.46664 0.84479 0.0
Co945 Co 0.33715 0.45678 0.79414 0.0
O946 O 0.33904 0.45832 0.82898 0.0
C947 C 0.33511 0.43967 0.8785 0.0
O948 O 0.32219 0.43609 0.86422 0.0
C949 C 0.31744 0.47526 0.80178 0.0
O950 O 0.33086 0.48805 0.81209 0.0
O951 O 0.35442 0.48169 0.79143 0.0
O952 O 0.37353 0.48325 0.81832 0.0
H953 H 0.36031 0.46821 0.71077 0.0
H954 H 0.33217 0.46777 0.86877 0.0
O955 O 0.35046 0.45063 0.87258 0.0
H956 H 0.38104 0.52693 0.87258 0.0
H957 H 0.40205 0.48499 0.91448 0.0
H958 H 0.39589 0.47478 0.82799 0.0
H959 H 0.38431 0.50406 0.85362 0.0
H960 H 0.37416 0.47533 0.8948 0.0
O961 O 0.31792 0.462 0.79501 0.0
H962 H 0.36228 0.46938 0.75451 0.0
H963 H 0.30782 0.44165 0.75985 0.0
H964 H 0.42405 0.48459 0.84693 0.0
H965 H 0.32841 0.49016 0.88813 0.0
H966 H 0.42727 0.48976 0.89048 0.0
H967 H 0.35295 0.52004 0.89015 0.0
O968 O 0.36428 0.44865 0.82826 0.0
H969 H 0.28436 0.40573 0.82717 0.0
H970 H 0.33279 0.42481 0.77127 0.0
H971 H 0.3119 0.39391 0.77523 0.0
H972 H 0.28744 0.38418 0.8033 0.0
H973 H 0.30566 0.43652 0.82282 0.0
H974 H 0.30526 0.44031 0.71617 0.0
H975 H 0.33164 0.45359 0.69131 0.0
O976 O 0.35598 0.45108 0.79167 0.0
C977 C 0.36929 0.4895 0.80096 0.0
C978 C 0.34872 0.46234 0.7214 0.0
C979 C 0.31783 0.4467 0.72443 0.0
N980 N 0.33519 0.45551 0.75974 0.0
C981 C 0.34975 0.46293 0.74619 0.0
C982 C 0.31936 0.44754 0.74917 0.0
C983 C 0.33263 0.45414 0.7105 0.0
C984 C 0.34303 0.48058 0.86992 0.0
N985 N 0.35857 0.48438 0.86058 0.0
C986 C 0.34077 0.49329 0.88076 0.0
C987 C 0.35453 0.51006 0.88184 0.0
C988 C 0.37028 0.51393 0.872 0.0
C989 C 0.37205 0.50089 0.8613 0.0
C990 C 0.40082 0.4828 0.89548 0.0
C991 C 0.3972 0.47709 0.84693 0.0
C992 C 0.38504 0.47728 0.88423 0.0
N993 N 0.38341 0.47459 0.86022 0.0
C994 C 0.41317 0.48261 0.85756 0.0
C995 C 0.41496 0.48549 0.88201 0.0
C996 C 0.36359 0.44602 0.8059 0.0
C997 C 0.29497 0.4098 0.81488 0.0
C998 C 0.32228 0.42069 0.7837 0.0
C999 C 0.31044 0.40317 0.78577 0.0
C1000 C 0.29671 0.39772 0.8015 0.0
N1001 N 0.32051 0.43247 0.79692 0.0
C1002 C 0.30706 0.42722 0.81233 0.0
Co1003 Co 0.89518 0.35607 0.84148 0.0
Co1004 Co 0.88392 0.33736 0.78632 0.0
O1005 O 0.88271 0.33567 0.82118 0.0
C1006 C 0.91268 0.34558 0.87669 0.0
O1007 O 0.92719 0.35855 0.869 0.0
C1008 C 0.8461 0.31503 0.79543 0.0
O1009 O 0.84732 0.32383 0.81465 0.0
O1010 O 0.87645 0.35476 0.78713 0.0
O1011 O 0.89167 0.37089 0.81809 0.0
H1012 H 0.90002 0.36906 0.70852 0.0
H1013 H 0.86652 0.32436 0.86228 0.0
O1014 O 0.89865 0.34168 0.86595 0.0
H1015 H 0.84968 0.36849 0.87176 0.0
H1016 H 0.91059 0.38865 0.91903 0.0
H1017 H 0.92216 0.39217 0.83293 0.0
H1018 H 0.87729 0.37571 0.8531 0.0
H1019 H 0.89474 0.36317 0.89347 0.0
O1020 O 0.85936 0.31866 0.78312 0.0
H1021 H 0.89863 0.36638 0.75219 0.0
H1022 H 0.87122 0.31196 0.74649 0.0
H1023 H 0.93827 0.41798 0.85784 0.0
H1024 H 0.83892 0.31666 0.88147 0.0
H1025 H 0.93254 0.41631 0.90122 0.0
H1026 H 0.8303 0.33879 0.88622 0.0
O1027 O 0.91727 0.3617 0.82546 0.0
H1028 H 0.88051 0.28177 0.80941 0.0
H1029 H 0.91222 0.33482 0.76221 0.0
H1030 H 0.92179 0.31346 0.76196 0.0
H1031 H 0.90585 0.28667 0.78561 0.0
H1032 H 0.87148 0.30357 0.80933 0.0
H1033 H 0.8722 0.31407 0.70276 0.0
H1034 H 0.88674 0.34278 0.68349 0.0
O1035 O 0.90855 0.35595 0.78759 0.0
C1036 C 0.88254 0.36844 0.79954 0.0
C1037 C 0.8937 0.35648 0.7167 0.0
C1038 C 0.87807 0.32562 0.71347 0.0
N1039 N 0.88497 0.33904 0.7519 0.0
C1040 C 0.8929 0.35488 0.74143 0.0
C1041 C 0.87752 0.32451 0.73825 0.0
C1042 C 0.88623 0.34173 0.70267 0.0
C1043 C 0.86296 0.33412 0.86452 0.0
N1044 N 0.87355 0.35048 0.8566 0.0
C1045 C 0.84727 0.32966 0.87529 0.0
C1046 C 0.84242 0.34207 0.87791 0.0
C1047 C 0.85328 0.35872 0.86977 0.0
C1048 C 0.86887 0.36272 0.85908 0.0
C1049 C 0.91321 0.38954 0.90014 0.0
C1050 C 0.91958 0.39134 0.85179 0.0
C1051 C 0.90427 0.37516 0.88558 0.0
N1052 N 0.90753 0.37617 0.8617 0.0
C1053 C 0.92874 0.406 0.86581 0.0
C1054 C 0.92552 0.40505 0.89014 0.0
C1055 C 0.9204 0.36264 0.80321 0.0
C1056 C 0.88753 0.29337 0.79899 0.0
C1057 C 0.90527 0.32324 0.77265 0.0
C1058 C 0.91072 0.31117 0.77238 0.0
C1059 C 0.90177 0.29614 0.78565 0.0
N1060 N 0.89125 0.3204 0.78571 0.0
C1061 C 0.88245 0.30573 0.79883 0.0
Co1062 Co 0.11392 0.469 0.6658 0.0
Co1063 Co 0.12989 0.45951 0.71563 0.0
O1064 O 0.12928 0.46205 0.68093 0.0
C1065 C 0.11405 0.44262 0.63172 0.0
O1066 O 0.12269 0.43848 0.6465 0.0
C1067 C 0.16691 0.48041 0.72678 0.0
O1068 O 0.16259 0.4894 0.74061 0.0
O1069 O 0.13437 0.48337 0.72014 0.0
O1070 O 0.11714 0.48484 0.69269 0.0
H1071 H 0.11566 0.46552 0.80018 0.0
H1072 H 0.14437 0.47227 0.63997 0.0
O1073 O 0.10983 0.45372 0.63751 0.0
H1074 H 0.15167 0.53036 0.63968 0.0
H1075 H 0.08935 0.48611 0.59742 0.0
H1076 H 0.0857 0.47414 0.68342 0.0
H1077 H 0.12644 0.50633 0.6588 0.0
H1078 H 0.10906 0.47803 0.61632 0.0
O1079 O 0.15545 0.46829 0.71405 0.0
H1080 H 0.11503 0.46828 0.75663 0.0
H1081 H 0.14636 0.4456 0.74822 0.0
H1082 H 0.06584 0.48233 0.66526 0.0
H1083 H 0.16966 0.49587 0.62038 0.0
H1084 H 0.06759 0.48838 0.62195 0.0
H1085 H 0.17346 0.5252 0.62015 0.0
O1086 O 0.09368 0.44992 0.68211 0.0
H1087 H 0.13989 0.41434 0.67882 0.0
H1088 H 0.10467 0.42517 0.73574 0.0
H1089 H 0.09865 0.39554 0.72942 0.0
H1090 H 0.11637 0.38997 0.70085 0.0
H1091 H 0.1453 0.44376 0.68542 0.0
H1092 H 0.14736 0.44263 0.79168 0.0
H1093 H 0.13191 0.45262 0.81798 0.0
O1094 O 0.10455 0.45062 0.71825 0.0
C1095 C 0.1268 0.49073 0.71089 0.0
C1096 C 0.12242 0.4611 0.78891 0.0
C1097 C 0.14021 0.44825 0.78414 0.0
N1098 N 0.13059 0.45705 0.74988 0.0
C1099 C 0.1221 0.46261 0.76423 0.0
C1100 C 0.13959 0.44996 0.75954 0.0
C1101 C 0.13155 0.45386 0.79888 0.0
C1102 C 0.14575 0.48489 0.63969 0.0
N1103 N 0.13371 0.48777 0.65017 0.0
C1104 C 0.16019 0.49826 0.62868 0.0
C1105 C 0.16233 0.51472 0.62859 0.0
C1106 C 0.15011 0.51762 0.63955 0.0
C1107 C 0.13585 0.50394 0.65037 0.0
C1108 C 0.08847 0.48353 0.61631 0.0
C1109 C 0.0866 0.47683 0.66458 0.0
C1110 C 0.09957 0.4789 0.62712 0.0
N1111 N 0.0986 0.4757 0.651 0.0
C1112 C 0.0753 0.48143 0.65439 0.0
C1113 C 0.07627 0.4848 0.63009 0.0
C1114 C 0.09185 0.44598 0.70414 0.0
C1115 C 0.13209 0.4166 0.69134 0.0
C1116 C 0.11233 0.42286 0.72309 0.0
C1117 C 0.10892 0.40605 0.71968 0.0
C1118 C 0.11888 0.40293 0.70368 0.0
N1119 N 0.12532 0.4362 0.71092 0.0
C1120 C 0.13514 0.43324 0.69521 0.0
Co1121 Co 0.65301 0.11199 0.67227 0.0
Co1122 Co 0.67423 0.12335 0.72581 0.0
O1123 O 0.67432 0.12425 0.6909 0.0
C1124 C 0.66141 0.09358 0.63589 0.0
O1125 O 0.64887 0.07934 0.64495 0.0
C1126 C 0.69534 0.16108 0.71667 0.0
O1127 O 0.68458 0.15971 0.69987 0.0
O1128 O 0.65703 0.13112 0.72721 0.0
O1129 O 0.63955 0.11604 0.69722 0.0
H1130 H 0.64628 0.10824 0.80629 0.0
H1131 H 0.68412 0.14012 0.64951 0.0
O1132 O 0.66597 0.1079 0.64616 0.0
H1133 H 0.64064 0.15823 0.64533 0.0
H1134 H 0.61715 0.09667 0.59762 0.0
H1135 H 0.61708 0.08566 0.68351 0.0
H1136 H 0.63357 0.13048 0.6634 0.0
H1137 H 0.64377 0.11223 0.62114 0.0
O1138 O 0.69325 0.14783 0.72773 0.0
H1139 H 0.64687 0.10925 0.76248 0.0
H1140 H 0.70147 0.1361 0.76323 0.0
H1141 H 0.59015 0.06985 0.66067 0.0
H1142 H 0.69165 0.16787 0.63096 0.0
H1143 H 0.59008 0.07531 0.61739 0.0
H1144 H 0.66984 0.17712 0.62886 0.0
O1145 O 0.64754 0.08992 0.68817 0.0
H1146 H 0.72834 0.12585 0.69707 0.0
H1147 H 0.67741 0.09499 0.74849 0.0
H1148 H 0.69845 0.08504 0.74612 0.0
H1149 H 0.72417 0.10055 0.72032 0.0
H1150 H 0.70687 0.13526 0.6998 0.0
H1151 H 0.70146 0.1355 0.80705 0.0
H1152 H 0.67372 0.12143 0.82888 0.0
O1153 O 0.65536 0.09882 0.72565 0.0
C1154 C 0.64288 0.1252 0.71591 0.0
C1155 C 0.65845 0.11436 0.79698 0.0
C1156 C 0.68942 0.12968 0.79741 0.0
N1157 N 0.67418 0.12261 0.76029 0.0
C1158 C 0.65887 0.11494 0.77217 0.0
C1159 C 0.68934 0.13001 0.77259 0.0
C1160 C 0.67385 0.12178 0.80965 0.0
C1161 C 0.6745 0.14396 0.64843 0.0
N1162 N 0.6584 0.13363 0.65743 0.0
C1163 C 0.67886 0.15973 0.63801 0.0
C1164 C 0.66663 0.16492 0.63687 0.0
C1165 C 0.65025 0.15434 0.64613 0.0
C1166 C 0.64635 0.13866 0.65643 0.0
C1167 C 0.61701 0.09418 0.61647 0.0
C1168 C 0.61715 0.08812 0.66469 0.0
C1169 C 0.63205 0.10295 0.62988 0.0
N1170 N 0.63199 0.09986 0.65371 0.0
C1171 C 0.60187 0.07913 0.65185 0.0
C1172 C 0.60183 0.0822 0.62757 0.0
C1173 C 0.64755 0.08692 0.71035 0.0
C1174 C 0.7172 0.11901 0.70841 0.0
C1175 C 0.68852 0.10175 0.73712 0.0
C1176 C 0.70041 0.09608 0.73591 0.0
C1177 C 0.71485 0.1048 0.72144 0.0
N1178 N 0.69095 0.11573 0.72434 0.0
C1179 C 0.70504 0.1243 0.71006 0.0
Co1180 Co 0.54027 0.64779 0.66783 0.0
Co1181 Co 0.55067 0.67062 0.71977 0.0
O1182 O 0.54889 0.66975 0.68484 0.0
C1183 C 0.56724 0.67453 0.6344 0.0
O1184 O 0.57168 0.68718 0.64953 0.0
C1185 C 0.53321 0.69121 0.71191 0.0
O1186 O 0.52262 0.67974 0.69664 0.0
O1187 O 0.52575 0.65345 0.72238 0.0
O1188 O 0.52392 0.63498 0.69434 0.0
H1189 H 0.5396 0.64479 0.80159 0.0
H1190 H 0.53935 0.67747 0.64544 0.0
O1191 O 0.55589 0.65922 0.63989 0.0
H1192 H 0.47968 0.62941 0.64249 0.0
H1193 H 0.52051 0.60875 0.59635 0.0
H1194 H 0.53224 0.61286 0.68246 0.0
H1195 H 0.50257 0.62539 0.65994 0.0
H1196 H 0.53067 0.63617 0.61751 0.0
O1197 O 0.54527 0.68968 0.72128 0.0
H1198 H 0.53809 0.64426 0.75781 0.0
H1199 H 0.56642 0.69879 0.75576 0.0
H1200 H 0.52194 0.58515 0.66202 0.0
H1201 H 0.51694 0.68197 0.62755 0.0
H1202 H 0.516 0.58297 0.61865 0.0
H1203 H 0.4868 0.65785 0.626 0.0
O1204 O 0.55844 0.64436 0.68301 0.0
H1205 H 0.60142 0.72428 0.68821 0.0
H1206 H 0.58289 0.67429 0.74104 0.0
H1207 H 0.61377 0.69527 0.73695 0.0
H1208 H 0.62323 0.72051 0.71042 0.0
H1209 H 0.57064 0.70286 0.69266 0.0
H1210 H 0.56813 0.69992 0.79952 0.0
H1211 H 0.55471 0.67278 0.82274 0.0
O1212 O 0.55638 0.65177 0.72027 0.0
C1213 C 0.5178 0.63884 0.71222 0.0
C1214 C 0.54553 0.65671 0.79167 0.0
C1215 C 0.56153 0.68764 0.79051 0.0
N1216 N 0.55223 0.67147 0.75421 0.0
C1217 C 0.54474 0.65649 0.76687 0.0
C1218 C 0.56049 0.68692 0.76573 0.0
C1219 C 0.554 0.67241 0.80353 0.0
C1220 C 0.5264 0.6668 0.64448 0.0
N1221 N 0.52245 0.65109 0.65332 0.0
C1222 C 0.51369 0.66947 0.63448 0.0
C1223 C 0.49678 0.65595 0.63367 0.0
C1224 C 0.49278 0.64 0.64292 0.0
C1225 C 0.50583 0.63781 0.65279 0.0
C1226 C 0.52303 0.60953 0.61526 0.0
C1227 C 0.52961 0.612 0.6636 0.0
C1228 C 0.52884 0.62504 0.62733 0.0
N1229 N 0.53197 0.62611 0.65125 0.0
C1230 C 0.52381 0.59628 0.65212 0.0
C1231 C 0.5205 0.59507 0.62778 0.0
C1232 C 0.56133 0.64454 0.70525 0.0
C1233 C 0.59747 0.71333 0.69983 0.0
C1234 C 0.58689 0.68515 0.7293 0.0
C1235 C 0.6044 0.69703 0.72714 0.0
C1236 C 0.6097 0.7112 0.71228 0.0
N1237 N 0.57497 0.68732 0.71702 0.0
C1238 C 0.58006 0.70119 0.70245 0.0
Co1239 Co 0.89416 0.53743 0.66956 0.0
Co1240 Co 0.88346 0.55212 0.72007 0.0
O1241 O 0.88261 0.5484 0.68546 0.0
C1242 C 0.89951 0.56643 0.63609 0.0
O1243 O 0.89222 0.57218 0.6508 0.0
C1244 C 0.84537 0.53334 0.71291 0.0
O1245 O 0.8464 0.52099 0.70195 0.0
O1246 O 0.87605 0.52755 0.72657 0.0
O1247 O 0.88715 0.52029 0.69585 0.0
H1248 H 0.89904 0.54732 0.80444 0.0
H1249 H 0.86643 0.54146 0.64629 0.0
O1250 O 0.90146 0.55379 0.64184 0.0
H1251 H 0.84774 0.47994 0.63963 0.0
H1252 H 0.91194 0.5146 0.59986 0.0
H1253 H 0.91647 0.52408 0.68653 0.0
H1254 H 0.87525 0.49994 0.65887 0.0
H1255 H 0.89686 0.52783 0.61941 0.0
O1256 O 0.85893 0.54662 0.72015 0.0
H1257 H 0.89802 0.54289 0.76109 0.0
H1258 H 0.87035 0.56941 0.75225 0.0
H1259 H 0.93159 0.51061 0.6677 0.0
H1260 H 0.839 0.52201 0.62665 0.0
H1261 H 0.92939 0.5058 0.62405 0.0
H1262 H 0.82942 0.49095 0.62324 0.0
O1263 O 0.91636 0.55323 0.68607 0.0
H1264 H 0.87964 0.60051 0.6814 0.0
H1265 H 0.91221 0.58557 0.73772 0.0
H1266 H 0.92183 0.61603 0.72982 0.0
H1267 H 0.90547 0.62368 0.70153 0.0
H1268 H 0.8706 0.57019 0.68957 0.0
H1269 H 0.87096 0.57402 0.79552 0.0
H1270 H 0.88544 0.56299 0.82193 0.0
O1271 O 0.90788 0.55788 0.72138 0.0
C1272 C 0.87953 0.51715 0.71588 0.0
C1273 C 0.8927 0.5522 0.79312 0.0
C1274 C 0.87693 0.56717 0.78811 0.0
N1275 N 0.88416 0.5559 0.75413 0.0
C1276 C 0.8921 0.54974 0.76855 0.0
C1277 C 0.87658 0.56447 0.76362 0.0
C1278 C 0.88506 0.56099 0.80292 0.0
C1279 C 0.86258 0.52808 0.64464 0.0
N1280 N 0.87266 0.52197 0.65351 0.0
C1281 C 0.84692 0.51706 0.6336 0.0
C1282 C 0.84153 0.49964 0.63172 0.0
C1283 C 0.8518 0.49346 0.64092 0.0
C1284 C 0.86737 0.50486 0.65185 0.0
C1285 C 0.91299 0.51661 0.61889 0.0
C1286 C 0.91535 0.52193 0.66754 0.0
C1287 C 0.90453 0.52416 0.63007 0.0
N1288 N 0.9057 0.52664 0.65414 0.0
C1289 C 0.92399 0.51434 0.65697 0.0
C1290 C 0.92276 0.51167 0.63248 0.0
C1291 C 0.91947 0.5589 0.70737 0.0
C1292 C 0.88687 0.59734 0.69377 0.0
C1293 C 0.90511 0.58877 0.7252 0.0
C1294 C 0.91058 0.60605 0.7209 0.0
C1295 C 0.90138 0.61033 0.70505 0.0
N1296 N 0.89088 0.5761 0.71404 0.0
C1297 C 0.88178 0.5802 0.69853 0.0
Co1298 Co 0.35938 0.89513 0.67176 0.0
Co1299 Co 0.3323 0.88213 0.71961 0.0
O1300 O 0.33621 0.88132 0.68538 0.0
C1301 C 0.33513 0.89512 0.63365 0.0
O1302 O 0.32171 0.88773 0.64771 0.0
C1303 C 0.31408 0.84397 0.71343 0.0
O1304 O 0.3278 0.84524 0.70316 0.0
O1305 O 0.34967 0.87518 0.72691 0.0
O1306 O 0.37022 0.89235 0.70128 0.0
H1307 H 0.35078 0.89764 0.80463 0.0
H1308 H 0.33233 0.86441 0.64621 0.0
O1309 O 0.34997 0.89871 0.6411 0.0
H1310 H 0.38061 0.85366 0.65673 0.0
H1311 H 0.404 0.9149 0.60698 0.0
H1312 H 0.39272 0.9228 0.69045 0.0
H1313 H 0.38272 0.88047 0.67139 0.0
H1314 H 0.37511 0.89718 0.6242 0.0
O1315 O 0.31371 0.85743 0.71949 0.0
H1316 H 0.35516 0.89671 0.76151 0.0
H1317 H 0.30116 0.86882 0.75044 0.0
H1318 H 0.42182 0.94069 0.67398 0.0
H1319 H 0.32977 0.83755 0.63103 0.0
H1320 H 0.42761 0.9368 0.63195 0.0
H1321 H 0.35401 0.832 0.63628 0.0
O1322 O 0.3611 0.9165 0.68502 0.0
H1323 H 0.28069 0.87709 0.67738 0.0
H1324 H 0.32602 0.91009 0.7364 0.0
H1325 H 0.30484 0.91898 0.72675 0.0
H1326 H 0.28193 0.9024 0.69709 0.0
H1327 H 0.30229 0.86877 0.68736 0.0
H1328 H 0.29619 0.86928 0.79346 0.0
H1329 H 0.32112 0.88384 0.82087 0.0
O1330 O 0.35056 0.90694 0.72138 0.0
C1331 C 0.36509 0.88252 0.71936 0.0
C1332 C 0.33981 0.89127 0.79287 0.0
C1333 C 0.30918 0.87534 0.7866 0.0
N1334 N 0.32844 0.88275 0.75345 0.0
C1335 C 0.34221 0.89072 0.76842 0.0
C1336 C 0.31207 0.87506 0.76226 0.0
C1337 C 0.32317 0.88352 0.80197 0.0
C1338 C 0.34305 0.86227 0.64824 0.0
N1339 N 0.35777 0.87421 0.65928 0.0
C1340 C 0.34148 0.84695 0.63974 0.0
C1341 C 0.35507 0.84383 0.64274 0.0
C1342 C 0.36999 0.85597 0.6542 0.0
C1343 C 0.3711 0.87115 0.66247 0.0
C1344 C 0.40164 0.91671 0.62532 0.0
C1345 C 0.39514 0.92097 0.67218 0.0
C1346 C 0.38529 0.90674 0.63517 0.0
N1347 N 0.38222 0.90889 0.65836 0.0
C1348 C 0.41164 0.93116 0.66293 0.0
C1349 C 0.41488 0.92898 0.63935 0.0
C1350 C 0.35913 0.91914 0.70678 0.0
C1351 C 0.29061 0.88442 0.69033 0.0
C1352 C 0.31621 0.90291 0.72329 0.0
C1353 C 0.30419 0.90796 0.718 0.0
C1354 C 0.29132 0.89863 0.70138 0.0
N1355 N 0.31544 0.88896 0.71235 0.0
C1356 C 0.30285 0.87974 0.69609 0.0
Co1357 Co 0.4667 0.35357 0.66616 0.0
Co1358 Co 0.45836 0.33386 0.72071 0.0
O1359 O 0.45866 0.33283 0.68582 0.0
C1360 C 0.43945 0.34344 0.62988 0.0
O1361 O 0.43747 0.35603 0.63802 0.0
C1362 C 0.4754 0.3129 0.71256 0.0
O1363 O 0.48374 0.32241 0.69417 0.0
O1364 O 0.48315 0.35169 0.72114 0.0
O1365 O 0.48427 0.36811 0.69047 0.0
H1366 H 0.47169 0.3641 0.79957 0.0
H1367 H 0.46471 0.32253 0.64469 0.0
O1368 O 0.44951 0.33949 0.64072 0.0
H1369 H 0.5257 0.36749 0.6387 0.0
H1370 H 0.48535 0.38761 0.58987 0.0
H1371 H 0.47501 0.38935 0.67563 0.0
H1372 H 0.5045 0.37392 0.65656 0.0
H1373 H 0.47546 0.36173 0.61463 0.0
O1374 O 0.46467 0.31554 0.72383 0.0
H1375 H 0.47143 0.36223 0.75584 0.0
H1376 H 0.44516 0.30774 0.75964 0.0
H1377 H 0.48494 0.41554 0.65151 0.0
H1378 H 0.48545 0.31563 0.62633 0.0
H1379 H 0.49017 0.41477 0.6083 0.0
H1380 H 0.5162 0.33818 0.62332 0.0
O1381 O 0.4497 0.35864 0.68177 0.0
H1382 H 0.40744 0.27808 0.69501 0.0
H1383 H 0.42667 0.33021 0.74358 0.0
H1384 H 0.39588 0.30835 0.74241 0.0
H1385 H 0.38609 0.28203 0.71806 0.0
H1386 H 0.43811 0.30037 0.69651 0.0
H1387 H 0.44526 0.30904 0.80342 0.0
H1388 H 0.45854 0.33737 0.82368 0.0
O1389 O 0.45189 0.35209 0.71953 0.0
C1390 C 0.49065 0.36564 0.70931 0.0
C1391 C 0.46582 0.35168 0.79095 0.0
C1392 C 0.451 0.32078 0.79312 0.0
N1393 N 0.45817 0.3349 0.75517 0.0
C1394 C 0.46559 0.35054 0.76619 0.0
C1395 C 0.45101 0.32013 0.76831 0.0
C1396 C 0.45845 0.33668 0.80447 0.0
C1397 C 0.47804 0.33247 0.6432 0.0
N1398 N 0.48335 0.34863 0.65159 0.0
C1399 C 0.48973 0.32846 0.63289 0.0
C1400 C 0.50699 0.34111 0.63125 0.0
C1401 C 0.51233 0.35755 0.6399 0.0
C1402 C 0.50027 0.36109 0.6501 0.0
C1403 C 0.48312 0.38811 0.60868 0.0
C1404 C 0.47726 0.3889 0.65684 0.0
C1405 C 0.47752 0.37349 0.6228 0.0
N1406 N 0.47464 0.374 0.64659 0.0
C1407 C 0.48288 0.40378 0.64327 0.0
C1408 C 0.48582 0.40334 0.61903 0.0
C1409 C 0.44714 0.35918 0.704 0.0
C1410 C 0.41155 0.28948 0.70572 0.0
C1411 C 0.4225 0.31884 0.73283 0.0
C1412 C 0.40505 0.30648 0.7323 0.0
C1413 C 0.39957 0.29171 0.71864 0.0
N1414 N 0.43418 0.31652 0.72018 0.0
C1415 C 0.4289 0.30211 0.70669 0.0
C1416 C 0.43442 0.05784 0.20132 0.0
C1417 C 0.44219 0.07208 0.21667 0.0
C1418 C 0.42614 0.04106 0.2105 0.0
C1419 C 0.42381 0.01603 0.26424 0.0
H1420 H 0.37868 0.98287 0.24051 0.0
C1421 C 0.38089 0.95061 0.31117 0.0
C1422 C 0.37139 0.93625 0.29646 0.0
C1423 C 0.38969 0.96721 0.30145 0.0
C1424 C 0.39137 0.99188 0.24718 0.0
H1425 H 0.44756 0.07968 0.2538 0.0
H1426 H 0.4333 0.05073 0.26951 0.0
H1427 H 0.3942 0.01134 0.22257 0.0
H1428 H 0.36388 0.92825 0.25984 0.0
H1429 H 0.37929 0.95683 0.24314 0.0
H1430 H 0.42106 0.99659 0.28877 0.0
C1431 C 0.43362 0.05244 0.25042 0.0
C1432 C 0.40027 0.00821 0.23684 0.0
C1433 C 0.44173 0.0691 0.24132 0.0
C1434 C 0.37094 0.93893 0.27186 0.0
C1435 C 0.37972 0.95542 0.2622 0.0
C1436 C 0.41495 0.99967 0.27451 0.0
C1437 C 0.42565 0.0382 0.23519 0.0
C1438 C 0.41656 0.02052 0.24531 0.0
C1439 C 0.3892 0.96982 0.27681 0.0
C1440 C 0.39858 0.98738 0.26616 0.0
H1441 H 0.43454 0.05963 0.18227 0.0
H1442 H 0.42021 0.03033 0.19829 0.0
H1443 H 0.43643 0.02515 0.27101 0.0
H1444 H 0.38156 0.94905 0.33016 0.0
H1445 H 0.39672 0.97801 0.31329 0.0
C1446 C 0.43165 0.37748 0.31016 0.0
C1447 C 0.43969 0.37124 0.29492 0.0
C1448 C 0.42283 0.38541 0.30083 0.0
C1449 C 0.40296 0.38919 0.24455 0.0
H1450 H 0.40555 0.42905 0.27507 0.0
C1451 C 0.37831 0.43108 0.19972 0.0
C1452 C 0.36913 0.43643 0.21427 0.0
C1453 C 0.3867 0.42293 0.20963 0.0
C1454 C 0.40458 0.41783 0.26643 0.0
H1455 H 0.44502 0.36889 0.25783 0.0
H1456 H 0.43013 0.38283 0.24191 0.0
H1457 H 0.42037 0.41524 0.29277 0.0
H1458 H 0.3616 0.43722 0.25078 0.0
H1459 H 0.37612 0.4231 0.26776 0.0
H1460 H 0.38732 0.39192 0.21807 0.0
C1461 C 0.43019 0.38128 0.26099 0.0
C1462 C 0.41303 0.40987 0.27664 0.0
C1463 C 0.43889 0.37335 0.27023 0.0
C1464 C 0.36853 0.43335 0.23891 0.0
C1465 C 0.37698 0.42532 0.24876 0.0
C1466 C 0.39459 0.39721 0.23429 0.0
C1467 C 0.4219 0.38729 0.27608 0.0
C1468 C 0.4124 0.39548 0.26578 0.0
C1469 C 0.38623 0.42006 0.23431 0.0
C1470 C 0.39531 0.41164 0.24507 0.0
H1471 H 0.432 0.37608 0.32924 0.0
H1472 H 0.4165 0.38978 0.31301 0.0
H1473 H 0.40188 0.37794 0.23589 0.0
H1474 H 0.37912 0.43329 0.18072 0.0
H1475 H 0.39384 0.41914 0.19801 0.0
C1476 C 0.94911 0.37254 0.19825 0.0
C1477 C 0.93441 0.36491 0.21278 0.0
C1478 C 0.9656 0.38026 0.20835 0.0
C1479 C 0.98846 0.38214 0.26479 0.0
H1480 H 0.02513 0.4241 0.23746 0.0
C1481 C 0.05442 0.42455 0.31144 0.0
C1482 C 0.06901 0.43042 0.29686 0.0
C1483 C 0.03788 0.41627 0.30147 0.0
C1484 C 0.01504 0.41232 0.24521 0.0
H1485 H 0.92569 0.35961 0.24947 0.0
H1486 H 0.95413 0.37329 0.26682 0.0
H1487 H 0.99675 0.41015 0.21907 0.0
H1488 H 0.07749 0.43198 0.26027 0.0
H1489 H 0.04888 0.41775 0.24317 0.0
H1490 H 0.00679 0.38455 0.29117 0.0
C1491 C 0.95304 0.373 0.24763 0.0
C1492 C 0.99878 0.40426 0.23459 0.0
C1493 C 0.93664 0.36522 0.2376 0.0
C1494 C 0.06662 0.42771 0.27215 0.0
C1495 C 0.05018 0.41962 0.26224 0.0
C1496 C 0.0047 0.3903 0.27553 0.0
C1497 C 0.96777 0.38061 0.2332 0.0
C1498 C 0.98525 0.38904 0.24421 0.0
C1499 C 0.03561 0.41387 0.27672 0.0
C1500 C 0.01819 0.40544 0.26581 0.0
H1501 H 0.9479 0.37255 0.1791 0.0
H1502 H 0.97663 0.3858 0.19663 0.0
H1503 H 0.97848 0.37029 0.27251 0.0
H1504 H 0.05576 0.42644 0.3305 0.0
H1505 H 0.02687 0.41204 0.31307 0.0
C1506 C 0.56512 0.93571 0.24113 0.0
C1507 C 0.56508 0.93303 0.21646 0.0
C1508 C 0.57327 0.95224 0.25064 0.0
C1509 C 0.59006 0.99796 0.23586 0.0
H1510 H 0.61562 0.00546 0.29453 0.0
C1511 C 0.63485 0.06567 0.27357 0.0
C1512 C 0.63497 0.06824 0.2983 0.0
C1513 C 0.62592 0.04922 0.26382 0.0
C1514 C 0.60836 0.00355 0.27833 0.0
H1515 H 0.57337 0.94588 0.18241 0.0
H1516 H 0.58786 0.97497 0.19914 0.0
H1517 H 0.60132 0.97707 0.27633 0.0
H1518 H 0.62558 0.05528 0.3321 0.0
H1519 H 0.60989 0.02638 0.31494 0.0
H1520 H 0.59726 0.02452 0.23783 0.0
C1521 C 0.58141 0.96411 0.21107 0.0
C1522 C 0.60016 0.98726 0.26783 0.0
C1523 C 0.57316 0.94745 0.20147 0.0
C1524 C 0.62584 0.0538 0.31302 0.0
C1525 C 0.6169 0.03724 0.30319 0.0
C1526 C 0.59831 0.01428 0.24635 0.0
C1527 C 0.58172 0.96668 0.23584 0.0
C1528 C 0.59085 0.98422 0.2465 0.0
C1529 C 0.61682 0.03478 0.27843 0.0
C1530 C 0.60756 0.01728 0.26772 0.0
H1531 H 0.5589 0.92501 0.25334 0.0
H1532 H 0.57286 0.95367 0.2697 0.0
H1533 H 0.58282 0.99605 0.21965 0.0
H1534 H 0.64171 0.0764 0.26155 0.0
H1535 H 0.62638 0.04782 0.24476 0.0
C1536 C 0.57798 0.62988 0.31598 0.0
C1537 C 0.57283 0.63924 0.30146 0.0
C1538 C 0.58637 0.62172 0.30613 0.0
C1539 C 0.60999 0.62118 0.2518 0.0
H1540 H 0.59881 0.57612 0.27479 0.0
C1541 C 0.63316 0.57864 0.20484 0.0
C1542 C 0.63989 0.57102 0.22001 0.0
C1543 C 0.62468 0.58687 0.21427 0.0
C1544 C 0.60213 0.58875 0.26825 0.0
H1545 H 0.57262 0.64732 0.26507 0.0
H1546 H 0.58678 0.63296 0.24813 0.0
H1547 H 0.58522 0.59097 0.29291 0.0
H1548 H 0.64274 0.56596 0.25707 0.0
H1549 H 0.62806 0.5801 0.27318 0.0
H1550 H 0.62678 0.61881 0.22697 0.0
C1551 C 0.5847 0.63215 0.26716 0.0
C1552 C 0.59442 0.59731 0.27874 0.0
C1553 C 0.57643 0.64033 0.27695 0.0
C1554 C 0.63776 0.57165 0.24473 0.0
C1555 C 0.62922 0.57969 0.25406 0.0
C1556 C 0.61762 0.61255 0.24121 0.0
C1557 C 0.58977 0.62269 0.28155 0.0
C1558 C 0.59826 0.61367 0.27071 0.0
C1559 C 0.62261 0.58744 0.23901 0.0
C1560 C 0.61384 0.59627 0.24938 0.0
H1561 H 0.57542 0.62874 0.3349 0.0
H1562 H 0.59028 0.61471 0.31783 0.0
H1563 H 0.6135 0.63387 0.24536 0.0
H1564 H 0.63454 0.57839 0.18575 0.0
H1565 H 0.61962 0.59265 0.20221 0.0
C1566 C 0.05929 0.63108 0.20311 0.0
C1567 C 0.07367 0.63725 0.21818 0.0
C1568 C 0.04263 0.62358 0.21262 0.0
C1569 C 0.01937 0.62027 0.26918 0.0
H1570 H 0.98177 0.58046 0.23893 0.0
C1571 C 0.95358 0.57734 0.31516 0.0
C1572 C 0.93878 0.57195 0.30114 0.0
C1573 C 0.96997 0.58593 0.30482 0.0
C1574 C 0.99211 0.59167 0.24748 0.0
H1575 H 0.08164 0.64007 0.25519 0.0
H1576 H 0.05293 0.62679 0.27148 0.0
H1577 H 0.01027 0.59421 0.22088 0.0
H1578 H 0.92978 0.57169 0.26516 0.0
H1579 H 0.95821 0.58655 0.24736 0.0
H1580 H 1.00123 0.61748 0.29603 0.0
C1581 C 0.0544 0.62808 0.25236 0.0
C1582 C 0.00846 0.59961 0.23707 0.0
C1583 C 0.07095 0.63562 0.24292 0.0
C1584 C 0.94082 0.57557 0.2766 0.0
C1585 C 0.95715 0.58402 0.26629 0.0
C1586 C 1.00307 0.61225 0.27967 0.0
C1587 C 0.03998 0.62202 0.23741 0.0
C1588 C 0.02235 0.61396 0.24786 0.0
C1589 C 0.97192 0.58921 0.28022 0.0
C1590 C 0.98925 0.59783 0.26899 0.0
H1591 H 0.06087 0.63211 0.18399 0.0
H1592 H 0.03185 0.6192 0.20054 0.0
H1593 H 0.02963 0.6315 0.27778 0.0
H1594 H 0.95252 0.57473 0.33407 0.0
H1595 H 0.9811 0.58967 0.31601 0.0
C1596 C 0.57026 0.93512 0.77213 0.0
C1597 C 0.56832 0.93235 0.79686 0.0
C1598 C 0.5787 0.95172 0.76278 0.0
C1599 C 0.59223 0.99691 0.77761 0.0
H1600 H 0.62128 0.00679 0.72207 0.0
C1601 C 0.63684 0.06588 0.74405 0.0
C1602 C 0.63795 0.06897 0.71939 0.0
C1603 C 0.62802 0.04918 0.75303 0.0
C1604 C 0.61304 0.00418 0.73739 0.0
H1605 H 0.5739 0.9451 0.8311 0.0
H1606 H 0.58895 0.97419 0.81474 0.0
H1607 H 0.60721 0.97804 0.73929 0.0
H1608 H 0.63046 0.05668 0.68486 0.0
H1609 H 0.61502 0.02736 0.70064 0.0
H1610 H 0.59827 0.02314 0.77584 0.0
C1611 C 0.58368 0.96341 0.80258 0.0
C1612 C 0.60497 0.98769 0.74732 0.0
C1613 C 0.57515 0.94672 0.812 0.0
C1614 C 0.62992 0.05481 0.70392 0.0
C1615 C 0.62114 0.03801 0.71296 0.0
C1616 C 0.60037 0.01341 0.76775 0.0
C1617 C 0.58555 0.96612 0.77782 0.0
C1618 C 0.59443 0.98382 0.76756 0.0
C1619 C 0.62006 0.03502 0.73765 0.0
C1620 C 0.6109 0.01727 0.74755 0.0
H1621 H 0.56511 0.92444 0.75981 0.0
H1622 H 0.57958 0.95324 0.74365 0.0
H1623 H 0.58398 0.99435 0.7929 0.0
H1624 H 0.64284 0.07639 0.75662 0.0
H1625 H 0.62767 0.04736 0.7721 0.0
C1626 C 0.64067 0.57321 0.77289 0.0
C1627 C 0.64015 0.57047 0.79761 0.0
C1628 C 0.63244 0.58136 0.76276 0.0
C1629 C 0.61568 0.61033 0.77612 0.0
H1630 H 0.58893 0.59122 0.71862 0.0
C1631 C 0.57169 0.63437 0.73952 0.0
C1632 C 0.5704 0.63576 0.71476 0.0
C1633 C 0.58036 0.6265 0.74903 0.0
C1634 C 0.59654 0.59689 0.73446 0.0
H1635 H 0.6306 0.57442 0.83103 0.0
H1636 H 0.61628 0.58881 0.81325 0.0
H1637 H 0.60364 0.57746 0.73677 0.0
H1638 H 0.57722 0.62972 0.6806 0.0
H1639 H 0.59271 0.61615 0.69728 0.0
H1640 H 0.6088 0.62987 0.77375 0.0
C1641 C 0.62317 0.58464 0.80178 0.0
C1642 C 0.60494 0.58896 0.74493 0.0
C1643 C 0.63134 0.57635 0.81197 0.0
C1644 C 0.57795 0.62888 0.69973 0.0
C1645 C 0.58676 0.62103 0.70932 0.0
C1646 C 0.60739 0.61833 0.76558 0.0
C1647 C 0.6235 0.58709 0.77702 0.0
C1648 C 0.61454 0.59553 0.76595 0.0
C1649 C 0.58816 0.61983 0.73414 0.0
C1650 C 0.59759 0.61166 0.7447 0.0
H1651 H 0.64734 0.56893 0.76117 0.0
H1652 H 0.63318 0.58327 0.74369 0.0
H1653 H 0.62321 0.6159 0.79207 0.0
H1654 H 0.56594 0.63934 0.75177 0.0
H1655 H 0.58078 0.62549 0.76817 0.0
C1656 C 0.9514 0.57026 0.70266 0.0
C1657 C 0.93726 0.56697 0.71703 0.0
C1658 C 0.96803 0.578 0.71233 0.0
C1659 C 0.99132 0.5858 0.76951 0.0
H1660 H 0.02885 0.62372 0.73621 0.0
C1661 C 0.05842 0.62892 0.81298 0.0
C1662 C 0.07285 0.63478 0.79811 0.0
C1663 C 0.04174 0.62008 0.80339 0.0
C1664 C 0.0186 0.61299 0.74566 0.0
H1665 H 0.92972 0.56917 0.75303 0.0
H1666 H 0.95841 0.58244 0.76957 0.0
H1667 H 1.00038 0.6089 0.7182 0.0
H1668 H 0.08091 0.63528 0.76154 0.0
H1669 H 0.05224 0.61971 0.74522 0.0
H1670 H 0.00954 0.58978 0.79691 0.0
C1671 C 0.9567 0.57899 0.75091 0.0
C1672 C 1.00226 0.6045 0.73527 0.0
C1673 C 0.94019 0.57145 0.74128 0.0
C1674 C 0.07018 0.63121 0.77361 0.0
C1675 C 0.05364 0.62233 0.76413 0.0
C1676 C 0.00771 0.59422 0.77985 0.0
C1677 C 0.97083 0.5824 0.73661 0.0
C1678 C 0.98841 0.59085 0.74711 0.0
C1679 C 0.03916 0.61684 0.77875 0.0
C1680 C 0.02158 0.60794 0.76806 0.0
H1681 H 0.94964 0.56696 0.68396 0.0
H1682 H 0.97868 0.58039 0.70087 0.0
H1683 H 0.98094 0.57522 0.779 0.0
H1684 H 0.05999 0.63143 0.8319 0.0
H1685 H 0.03089 0.61614 0.8152 0.0
C1686 C 0.44273 0.06893 0.77359 0.0
C1687 C 0.44224 0.07189 0.79809 0.0
C1688 C 0.43414 0.05231 0.76436 0.0
C1689 C 0.39802 0.00916 0.77587 0.0
H1690 H 0.41946 0.99545 0.72741 0.0
C1691 C 0.36619 0.93969 0.74063 0.0
C1692 C 0.36802 0.93693 0.71643 0.0
C1693 C 0.37516 0.95611 0.75049 0.0
C1694 C 0.41317 0.99914 0.74066 0.0
H1695 H 0.43241 0.0595 0.8321 0.0
H1696 H 0.41721 0.03027 0.81582 0.0
H1697 H 0.43567 0.02375 0.74569 0.0
H1698 H 0.38067 0.94952 0.68359 0.0
H1699 H 0.39612 0.97836 0.70074 0.0
H1700 H 0.37543 0.98471 0.77061 0.0
C1701 C 0.42428 0.04098 0.80384 0.0
C1702 C 0.42251 0.01534 0.75124 0.0
C1703 C 0.43306 0.05769 0.81318 0.0
C1704 C 0.37892 0.95115 0.70226 0.0
C1705 C 0.38789 0.96767 0.71216 0.0
C1706 C 0.38864 0.993 0.76518 0.0
C1707 C 0.4247 0.03813 0.77929 0.0
C1708 C 0.41503 0.02056 0.76894 0.0
C1709 C 0.3862 0.97034 0.73647 0.0
C1710 C 0.39608 0.98775 0.74742 0.0
H1711 H 0.44967 0.07948 0.76134 0.0
H1712 H 0.43456 0.05061 0.74536 0.0
H1713 H 0.3918 0.01291 0.78916 0.0
H1714 H 0.358 0.92911 0.75223 0.0
H1715 H 0.37372 0.95755 0.76932 0.0
C1716 C 0.38097 0.43108 0.80956 0.0
C1717 C 0.3724 0.43731 0.79535 0.0
C1718 C 0.38925 0.42298 0.79914 0.0
C1719 C 0.39072 0.40159 0.74317 0.0
H1720 H 0.43434 0.40973 0.76834 0.0
C1721 C 0.43208 0.37631 0.69752 0.0
C1722 C 0.43873 0.36874 0.71295 0.0
C1723 C 0.42421 0.38522 0.70667 0.0
C1724 C 0.42211 0.40725 0.76116 0.0
H1725 H 0.36603 0.44 0.75889 0.0
H1726 H 0.38058 0.42629 0.74097 0.0
H1727 H 0.42004 0.42382 0.78661 0.0
H1728 H 0.44228 0.36475 0.75021 0.0
H1729 H 0.42874 0.3801 0.76581 0.0
H1730 H 0.39289 0.38504 0.71767 0.0
C1731 C 0.38066 0.42729 0.76016 0.0
C1732 C 0.41387 0.41527 0.77173 0.0
C1733 C 0.37238 0.4353 0.77052 0.0
C1734 C 0.43738 0.37038 0.73765 0.0
C1735 C 0.42969 0.37933 0.7467 0.0
C1736 C 0.39902 0.39363 0.73254 0.0
C1737 C 0.38918 0.42099 0.77428 0.0
C1738 C 0.39801 0.41247 0.76298 0.0
C1739 C 0.42303 0.38689 0.7314 0.0
C1740 C 0.41473 0.39624 0.74155 0.0
H1741 H 0.38126 0.43239 0.82871 0.0
H1742 H 0.39553 0.41811 0.8106 0.0
H1743 H 0.37841 0.39893 0.73613 0.0
H1744 H 0.43291 0.37533 0.67843 0.0
H1745 H 0.41926 0.391 0.69442 0.0
C1746 C 0.07201 0.43275 0.73894 0.0
C1747 C 0.07425 0.43637 0.71441 0.0
C1748 C 0.05561 0.42455 0.74907 0.0
C1749 C 0.00962 0.39714 0.73474 0.0
H1750 H 1.00233 0.41453 0.79409 0.0
C1751 C 0.94164 0.37455 0.76989 0.0
C1752 C 0.93844 0.37177 0.79445 0.0
C1753 C 0.95835 0.38235 0.76099 0.0
C1754 C 1.00418 0.40934 0.7777 0.0
H1755 H 0.06078 0.43392 0.68133 0.0
H1756 H 0.03212 0.41949 0.69905 0.0
H1757 H 0.03104 0.42801 0.77662 0.0
H1758 H 0.95057 0.37541 0.82894 0.0
H1759 H 0.97992 0.38891 0.8133 0.0
H1760 H 0.98286 0.37841 0.7358 0.0
C1761 C 0.04313 0.42298 0.71039 0.0
C1762 C 0.02064 0.4171 0.76764 0.0
C1763 C 0.05958 0.43129 0.70023 0.0
C1764 C 0.95254 0.37734 0.80995 0.0
C1765 C 0.96937 0.38514 0.80096 0.0
C1766 C 0.99321 0.38933 0.74484 0.0
C1767 C 0.04097 0.41963 0.73497 0.0
C1768 C 0.02353 0.41118 0.74593 0.0
C1769 C 0.97246 0.38757 0.77631 0.0
C1770 C 0.9902 0.39543 0.76633 0.0
H1771 H 0.08295 0.43641 0.7505 0.0
H1772 H 0.0544 0.42196 0.76799 0.0
H1773 H 0.01146 0.39205 0.71825 0.0
H1774 H 0.93119 0.37064 0.75732 0.0
H1775 H 0.96019 0.38438 0.74199 0.0
C1776 C 0.48508 0.19494 0.20719 0.0
C1777 C 0.47894 0.18091 0.22283 0.0
C1778 C 0.48663 0.21053 0.21477 0.0
C1779 C 0.49229 0.23686 0.26718 0.0
H1780 H 0.46672 0.2541 0.23266 0.0
C1781 C 0.48172 0.29089 0.3054 0.0
C1782 C 0.47942 0.30155 0.2894 0.0
C1783 C 0.48309 0.27692 0.29702 0.0
C1784 C 0.47431 0.2498 0.24232 0.0
H1785 H 0.47023 0.17238 0.25887 0.0
H1786 H 0.4734 0.19965 0.27214 0.0
H1787 H 0.46743 0.22904 0.21788 0.0
H1788 H 0.47774 0.30662 0.25214 0.0
H1789 H 0.48117 0.28315 0.2375 0.0
H1790 H 0.4996 0.25775 0.29134 0.0
C1791 C 0.47679 0.19855 0.25401 0.0
C1792 C 0.4746 0.23533 0.23382 0.0
C1793 C 0.47487 0.18292 0.24632 0.0
C1794 C 0.47924 0.29844 0.26492 0.0
C1795 C 0.48105 0.28482 0.25654 0.0
C1796 C 0.49233 0.25158 0.27544 0.0
C1797 C 0.4825 0.21245 0.23827 0.0
C1798 C 0.48343 0.22861 0.2463 0.0
C1799 C 0.4826 0.27356 0.27242 0.0
C1800 C 0.48318 0.2582 0.26327 0.0
H1801 H 0.48829 0.19375 0.189 0.0
H1802 H 0.49107 0.2211 0.20231 0.0
H1803 H 0.49925 0.23193 0.27709 0.0
H1804 H 0.48181 0.29296 0.32438 0.0
H1805 H 0.48403 0.2685 0.30994 0.0
C1806 C 0.19469 0.48884 0.29938 0.0
C1807 C 0.17931 0.4733 0.29539 0.0
C1808 C 0.21047 0.49091 0.29162 0.0
C1809 C 0.22829 0.47376 0.24735 0.0
H1810 H 0.2688 0.4935 0.28743 0.0
C1811 C 0.28776 0.46747 0.22561 0.0
C1812 C 0.3041 0.48085 0.23224 0.0
C1813 C 0.27295 0.468 0.23187 0.0
C1814 C 0.25771 0.48823 0.2758 0.0
H1815 H 0.16864 0.44756 0.28086 0.0
H1816 H 0.19593 0.45122 0.26744 0.0
H1817 H 0.24241 0.49182 0.30193 0.0
H1818 H 0.31774 0.50569 0.24959 0.0
H1819 H 0.29201 0.50683 0.25992 0.0
H1820 H 0.24347 0.47016 0.22119 0.0
C1821 C 0.19582 0.46189 0.27621 0.0
C1822 C 0.24257 0.48723 0.28418 0.0
C1823 C 0.18016 0.45978 0.28408 0.0
C1824 C 0.30534 0.49511 0.24433 0.0
C1825 C 0.29055 0.49569 0.25045 0.0
C1826 C 0.24344 0.47486 0.2389 0.0
C1827 C 0.21113 0.47753 0.27956 0.0
C1828 C 0.22761 0.47974 0.27019 0.0
C1829 C 0.27413 0.48198 0.24477 0.0
C1830 C 0.25831 0.48188 0.25312 0.0
H1831 H 0.19451 0.49951 0.30802 0.0
H1832 H 0.22207 0.50312 0.29445 0.0
H1833 H 0.21706 0.46819 0.23596 0.0
H1834 H 0.28632 0.45622 0.21645 0.0
H1835 H 0.26055 0.4571 0.2274 0.0
C1836 C 0.72136 0.17729 0.28275 0.0
C1837 C 0.70796 0.17712 0.29589 0.0
C1838 C 0.73544 0.19275 0.27536 0.0
C1839 C 0.74934 0.23837 0.26374 0.0
H1840 H 0.79465 0.24302 0.2629 0.0
C1841 C 0.8123 0.30236 0.24378 0.0
C1842 C 0.82501 0.30143 0.23034 0.0
C1843 C 0.79734 0.2874 0.25067 0.0
C1844 C 0.78205 0.24186 0.26273 0.0
H1845 H 0.69909 0.19322 0.31194 0.0
H1846 H 0.72396 0.22037 0.29933 0.0
H1847 H 0.77043 0.21701 0.27883 0.0
H1848 H 0.83155 0.284 0.21269 0.0
H1849 H 0.80541 0.25793 0.22459 0.0
H1850 H 0.76114 0.2634 0.24784 0.0
C1851 C 0.72336 0.20843 0.29444 0.0
C1852 C 0.76814 0.22693 0.27191 0.0
C1853 C 0.70918 0.19288 0.30185 0.0
C1854 C 0.82205 0.28521 0.22303 0.0
C1855 C 0.80713 0.27025 0.23005 0.0
C1856 C 0.76331 0.25337 0.25465 0.0
C1857 C 0.73663 0.20853 0.28097 0.0
C1858 C 0.75156 0.2249 0.27236 0.0
C1859 C 0.79479 0.27115 0.2444 0.0
C1860 C 0.77981 0.25522 0.25385 0.0
H1861 H 0.7209 0.16543 0.27777 0.0
H1862 H 0.74523 0.19226 0.26472 0.0
H1863 H 0.73673 0.23717 0.26352 0.0
H1864 H 0.81416 0.31463 0.2497 0.0
H1865 H 0.78814 0.28855 0.2618 0.0
C1866 C 0.52178 0.8097 0.21047 0.0
C1867 C 0.52931 0.82459 0.22461 0.0
C1868 C 0.52009 0.7943 0.21919 0.0
C1869 C 0.51767 0.77135 0.27449 0.0
H1870 H 0.53716 0.74877 0.23786 0.0
C1871 C 0.53115 0.72013 0.31583 0.0
C1872 C 0.53061 0.70733 0.30096 0.0
C1873 C 0.52897 0.73335 0.30633 0.0
C1874 C 0.53129 0.75461 0.24821 0.0
H1875 H 0.54045 0.83481 0.25921 0.0
H1876 H 0.53723 0.80803 0.27438 0.0
H1877 H 0.53638 0.77331 0.22105 0.0
H1878 H 0.52634 0.69773 0.26479 0.0
H1879 H 0.52171 0.72011 0.24851 0.0
H1880 H 0.51237 0.75263 0.30158 0.0
C1881 C 0.53276 0.80825 0.25656 0.0
C1882 C 0.53092 0.76875 0.23852 0.0
C1883 C 0.53474 0.82364 0.24774 0.0
C1884 C 0.52704 0.70755 0.27667 0.0
C1885 C 0.52455 0.72052 0.26729 0.0
C1886 C 0.51779 0.75703 0.28406 0.0
C1887 C 0.52554 0.79344 0.24237 0.0
C1888 C 0.52435 0.77742 0.2517 0.0
C1889 C 0.5259 0.73388 0.28181 0.0
C1890 C 0.52483 0.74858 0.2712 0.0
H1891 H 0.51747 0.81004 0.19259 0.0
H1892 H 0.51445 0.78303 0.20789 0.0
H1893 H 0.5124 0.77774 0.28497 0.0
H1894 H 0.53399 0.72034 0.33458 0.0
H1895 H 0.53032 0.74346 0.31811 0.0
C1896 C 0.71212 0.5183 0.21874 0.0
C1897 C 0.7109 0.5327 0.22556 0.0
C1898 C 0.72594 0.51641 0.22651 0.0
C1899 C 0.75915 0.53115 0.27376 0.0
H1900 H 0.78249 0.51597 0.23067 0.0
C1901 C 0.82538 0.53788 0.2951 0.0
C1902 C 0.82881 0.52522 0.28651 0.0
C1903 C 0.80999 0.53741 0.28923 0.0
C1904 C 0.77596 0.51996 0.24309 0.0
H1905 H 0.72356 0.55661 0.24546 0.0
H1906 H 0.74748 0.55334 0.25872 0.0
H1907 H 0.75775 0.51777 0.2167 0.0
H1908 H 0.81832 0.5016 0.26615 0.0
H1909 H 0.79142 0.50059 0.25641 0.0
H1910 H 0.77739 0.53344 0.30012 0.0
C1911 C 0.73766 0.54335 0.24774 0.0
C1912 C 0.76177 0.52102 0.23503 0.0
C1913 C 0.72396 0.54527 0.23995 0.0
C1914 C 0.81615 0.51164 0.27293 0.0
C1915 C 0.80077 0.51113 0.26715 0.0
C1916 C 0.7733 0.53005 0.28184 0.0
C1917 C 0.73877 0.52883 0.24134 0.0
C1918 C 0.7533 0.52681 0.25019 0.0
C1919 C 0.79764 0.52423 0.27472 0.0
C1920 C 0.782 0.52459 0.26656 0.0
H1921 H 0.70229 0.50836 0.20772 0.0
H1922 H 0.72637 0.50503 0.22132 0.0
H1923 H 0.75274 0.53538 0.28604 0.0
H1924 H 0.83489 0.54859 0.30546 0.0
H1925 H 0.80811 0.5478 0.29524 0.0
C1926 C 0.18796 0.70656 0.24371 0.0
C1927 C 0.18353 0.70647 0.21972 0.0
C1928 C 0.20333 0.71994 0.25282 0.0
C1929 C 0.24523 0.75825 0.23486 0.0
H1930 H 0.24401 0.77305 0.29925 0.0
C1931 C 0.29266 0.8257 0.27074 0.0
C1932 C 0.30068 0.82688 0.29271 0.0
C1933 C 0.27945 0.80997 0.26247 0.0
C1934 C 0.2446 0.76892 0.28136 0.0
H1935 H 0.19187 0.72024 0.18638 0.0
H1936 H 0.21835 0.74399 0.20237 0.0
H1937 H 0.21893 0.74776 0.28319 0.0
H1938 H 0.30103 0.8124 0.32328 0.0
H1939 H 0.2773 0.78474 0.30906 0.0
H1940 H 0.27065 0.78011 0.23283 0.0
C1941 C 0.21026 0.73348 0.21411 0.0
C1942 C 0.23024 0.75435 0.2721 0.0
C1943 C 0.195 0.71988 0.20489 0.0
C1944 C 0.29509 0.81189 0.30631 0.0
C1945 C 0.28153 0.79611 0.29821 0.0
C1946 C 0.25945 0.77298 0.24401 0.0
C1947 C 0.21455 0.73383 0.23832 0.0
C1948 C 0.23026 0.74886 0.24861 0.0
C1949 C 0.27368 0.79502 0.27612 0.0
C1950 C 0.25922 0.77854 0.26727 0.0
H1951 H 0.17946 0.69631 0.25557 0.0
H1952 H 0.2063 0.71941 0.27134 0.0
H1953 H 0.24598 0.7543 0.21695 0.0
H1954 H 0.29674 0.83694 0.25968 0.0
H1955 H 0.27354 0.80954 0.2455 0.0
C1956 C 0.53693 0.7128 0.74266 0.0
C1957 C 0.53054 0.70535 0.72027 0.0
C1958 C 0.53452 0.72602 0.75116 0.0
C1959 C 0.52936 0.76167 0.7326 0.0
H1960 H 0.5129 0.75987 0.79685 0.0
C1961 C 0.52394 0.81826 0.77085 0.0
C1962 C 0.52818 0.82251 0.7949 0.0
C1963 C 0.52188 0.80293 0.76157 0.0
C1964 C 0.51773 0.76074 0.77899 0.0
H1965 H 0.5166 0.70598 0.68922 0.0
H1966 H 0.51282 0.72968 0.70391 0.0
H1967 H 0.51378 0.73517 0.78063 0.0
H1968 H 0.53332 0.81384 0.82819 0.0
H1969 H 0.53043 0.78738 0.81191 0.0
H1970 H 0.53422 0.78745 0.73118 0.0
C1971 C 0.51954 0.72502 0.71488 0.0
C1972 C 0.51809 0.74649 0.76964 0.0
C1973 C 0.52166 0.71148 0.70652 0.0
C1974 C 0.52992 0.81087 0.80963 0.0
C1975 C 0.52818 0.79563 0.80024 0.0
C1976 C 0.52928 0.77603 0.74207 0.0
C1977 C 0.52589 0.73235 0.73737 0.0
C1978 C 0.52405 0.74687 0.74644 0.0
C1979 C 0.52435 0.79153 0.77596 0.0
C1980 C 0.5236 0.77585 0.7655 0.0
H1981 H 0.5437 0.70831 0.75384 0.0
H1982 H 0.53968 0.73151 0.76843 0.0
H1983 H 0.53423 0.76239 0.71478 0.0
H1984 H 0.52233 0.8269 0.75907 0.0
H1985 H 0.51848 0.80012 0.743 0.0
C1986 C 0.7197 0.53707 0.78844 0.0
C1987 C 0.70342 0.52404 0.78094 0.0
C1988 C 0.73452 0.53652 0.78232 0.0
C1989 C 0.75025 0.51749 0.73736 0.0
H1990 H 0.78998 0.53535 0.77884 0.0
C1991 C 0.81294 0.51641 0.7137 0.0
C1992 C 0.82844 0.53147 0.71909 0.0
C1993 C 0.79717 0.51441 0.72135 0.0
C1994 C 0.77902 0.53041 0.76698 0.0
H1995 H 0.6899 0.49975 0.76216 0.0
H1996 H 0.71565 0.49859 0.75202 0.0
H1997 H 0.76347 0.53337 0.79323 0.0
H1998 H 0.8394 0.55646 0.73612 0.0
H1999 H 0.81211 0.55296 0.74928 0.0
H2000 H 0.76591 0.51457 0.71111 0.0
C2001 C 0.71704 0.50947 0.7621 0.0
C2002 C 0.76382 0.5293 0.77523 0.0
C2003 C 0.70224 0.51007 0.76811 0.0
C2004 C 0.82777 0.54461 0.73177 0.0
C2005 C 0.8121 0.54257 0.7395 0.0
C2006 C 0.76546 0.51852 0.72916 0.0
C2007 C 0.73341 0.52287 0.76867 0.0
C2008 C 0.74928 0.52303 0.76044 0.0
C2009 C 0.79663 0.52739 0.73468 0.0
C2010 C 0.78009 0.52522 0.74376 0.0
H2011 H 0.7211 0.54809 0.79819 0.0
H2012 H 0.74689 0.54717 0.78751 0.0
H2013 H 0.73943 0.51283 0.72532 0.0
H2014 H 0.81298 0.50604 0.70398 0.0
H2015 H 0.78546 0.50254 0.71738 0.0
C2016 C 0.28661 0.82623 0.73559 0.0
C2017 C 0.29956 0.82699 0.72071 0.0
C2018 C 0.27358 0.81056 0.74426 0.0
C2019 C 0.24908 0.76473 0.73243 0.0
H2020 H 0.23701 0.76167 0.79921 0.0
C2021 C 0.18265 0.7155 0.76908 0.0
C2022 C 0.1817 0.7069 0.79042 0.0
C2023 C 0.19834 0.72876 0.7608 0.0
C2024 C 0.24035 0.76223 0.78061 0.0
H2025 H 0.3086 0.81165 0.70277 0.0
H2026 H 0.28536 0.78401 0.71755 0.0
H2027 H 0.26214 0.78755 0.78409 0.0
H2028 H 0.19661 0.70555 0.81979 0.0
H2029 H 0.22418 0.7292 0.80549 0.0
H2030 H 0.22692 0.73965 0.7288 0.0
C2031 C 0.28557 0.79573 0.72265 0.0
C2032 C 0.25465 0.77709 0.77191 0.0
C2033 C 0.29884 0.81153 0.71419 0.0
C2034 C 0.19691 0.71193 0.80332 0.0
C2035 C 0.21266 0.72546 0.79516 0.0
C2036 C 0.23464 0.74996 0.74107 0.0
C2037 C 0.27296 0.79514 0.73808 0.0
C2038 C 0.25897 0.77863 0.74765 0.0
C2039 C 0.21352 0.73395 0.77374 0.0
C2040 C 0.22994 0.74869 0.76517 0.0
H2041 H 0.28663 0.8378 0.74097 0.0
H2042 H 0.26387 0.81049 0.75575 0.0
H2043 H 0.25208 0.76558 0.71366 0.0
H2044 H 0.17124 0.71192 0.75858 0.0
H2045 H 0.19854 0.73521 0.74442 0.0
C2046 C 0.48259 0.28949 0.7062 0.0
C2047 C 0.47883 0.29946 0.72157 0.0
C2048 C 0.48441 0.27591 0.71517 0.0
C2049 C 0.47421 0.24834 0.76963 0.0
H2050 H 0.5025 0.23286 0.73846 0.0
C2051 C 0.48582 0.19472 0.80755 0.0
C2052 C 0.48065 0.18092 0.7917 0.0
C2053 C 0.48737 0.21025 0.79969 0.0
C2054 C 0.49461 0.23713 0.74738 0.0
H2055 H 0.47509 0.3038 0.75842 0.0
H2056 H 0.47926 0.28104 0.77414 0.0
H2057 H 0.5022 0.2582 0.72343 0.0
H2058 H 0.47379 0.17277 0.75508 0.0
H2059 H 0.47701 0.19997 0.74135 0.0
H2060 H 0.467 0.22741 0.79387 0.0
C2061 C 0.47994 0.28291 0.75508 0.0
C2062 C 0.49428 0.25156 0.73865 0.0
C2063 C 0.47769 0.29612 0.74608 0.0
C2064 C 0.47766 0.18313 0.76776 0.0
C2065 C 0.47962 0.19873 0.75983 0.0
C2066 C 0.47485 0.23417 0.77863 0.0
C2067 C 0.48292 0.2723 0.73977 0.0
C2068 C 0.48391 0.25729 0.74949 0.0
C2069 C 0.48425 0.21235 0.77575 0.0
C2070 C 0.48489 0.22832 0.76744 0.0
H2071 H 0.48347 0.29178 0.68721 0.0
H2072 H 0.48649 0.26798 0.70268 0.0
H2073 H 0.4657 0.25194 0.77822 0.0
H2074 H 0.48818 0.19334 0.82608 0.0
H2075 H 0.49097 0.22061 0.81229 0.0
C2076 C 0.18715 0.46887 0.7232 0.0
C2077 C 0.18413 0.4822 0.72982 0.0
C2078 C 0.2025 0.46943 0.72963 0.0
C2079 C 0.23756 0.48965 0.77426 0.0
H2080 H 0.25891 0.47004 0.73518 0.0
C2081 C 0.30161 0.49182 0.79952 0.0
C2082 C 0.30212 0.47665 0.79545 0.0
C2083 C 0.28767 0.49338 0.79141 0.0
C2084 C 0.25303 0.47546 0.74638 0.0
H2085 H 0.19527 0.50704 0.74714 0.0
H2086 H 0.22214 0.50825 0.7577 0.0
H2087 H 0.23436 0.47161 0.71982 0.0
H2088 H 0.28797 0.45098 0.78039 0.0
H2089 H 0.2639 0.45374 0.76642 0.0
H2090 H 0.25631 0.4935 0.8008 0.0
C2091 C 0.2125 0.49711 0.74818 0.0
C2092 C 0.23892 0.47634 0.73758 0.0
C2093 C 0.19714 0.49649 0.74192 0.0
C2094 C 0.28816 0.46294 0.78369 0.0
C2095 C 0.27435 0.46454 0.77551 0.0
C2096 C 0.25175 0.48886 0.783 0.0
C2097 C 0.21523 0.4834 0.74268 0.0
C2098 C 0.23087 0.48329 0.75148 0.0
C2099 C 0.27403 0.47984 0.77894 0.0
C2100 C 0.25952 0.48156 0.76928 0.0
H2101 H 0.17734 0.4576 0.71406 0.0
H2102 H 0.20403 0.45855 0.72524 0.0
H2103 H 0.23155 0.49482 0.78568 0.0
H2104 H 0.31214 0.50263 0.80848 0.0
H2105 H 0.28781 0.50536 0.79431 0.0
C2106 C 0.8164 0.29034 0.8035 0.0
C2107 C 0.8293 0.30082 0.78731 0.0
C2108 C 0.80113 0.27609 0.79544 0.0
C2109 C 0.78289 0.24788 0.74163 0.0
H2110 H 0.74014 0.23015 0.77647 0.0
C2111 C 0.71719 0.19195 0.70799 0.0
C2112 C 0.70964 0.1781 0.72399 0.0
C2113 C 0.73118 0.20774 0.71511 0.0
C2114 C 0.75201 0.23504 0.76655 0.0
H2115 H 0.83601 0.30522 0.74998 0.0
H2116 H 0.80922 0.28124 0.73585 0.0
H2117 H 0.76549 0.25643 0.78997 0.0
H2118 H 0.71039 0.17012 0.76017 0.0
H2119 H 0.73437 0.19777 0.77267 0.0
H2120 H 0.7691 0.22661 0.71789 0.0
C2121 C 0.81102 0.28329 0.75483 0.0
C2122 C 0.76662 0.25002 0.77438 0.0
C2123 C 0.82638 0.29721 0.76292 0.0
C2124 C 0.71601 0.1805 0.74736 0.0
C2125 C 0.72966 0.19635 0.7546 0.0
C2126 C 0.76819 0.23314 0.73354 0.0
C2127 C 0.79827 0.27224 0.77095 0.0
C2128 C 0.78238 0.2566 0.76219 0.0
C2129 C 0.73751 0.21006 0.7385 0.0
C2130 C 0.75267 0.22647 0.74606 0.0
H2131 H 0.81837 0.29279 0.82242 0.0
H2132 H 0.79184 0.26785 0.80854 0.0
H2133 H 0.79476 0.25213 0.73197 0.0
H2134 H 0.71256 0.19045 0.68987 0.0
H2135 H 0.73703 0.21815 0.70238 0.0
C2136 C 0.42585 0.08181 0.09675 0.0
C2137 C 0.43646 0.09734 0.10868 0.0
C2138 C 0.42287 0.08164 0.0723 0.0
C2139 C 0.42799 0.10928 0.01971 0.0
H2140 H 0.43195 0.07393 0.98571 0.0
C2141 C 0.44343 0.11279 0.91878 0.0
C2142 C 0.43662 0.09734 0.90588 0.0
C2143 C 0.44046 0.11263 0.94327 0.0
C2144 C 0.43048 0.08372 0.99484 0.0
H2145 H 0.45149 0.125 0.10432 0.0
H2146 H 0.44643 0.12468 0.06171 0.0
H2147 H 0.43193 0.07392 0.02883 0.0
H2148 H 0.4203 0.06969 0.9084 0.0
H2149 H 0.41483 0.06944 0.95084 0.0
H2150 H 0.42697 0.11929 0.98548 0.0
C2151 C 0.44026 0.11261 0.07127 0.0
C2152 C 0.43047 0.08372 0.01969 0.0
C2153 C 0.44318 0.11279 0.09578 0.0
C2154 C 0.42587 0.08183 0.91777 0.0
C2155 C 0.42285 0.08167 0.9422 0.0
C2156 C 0.42802 0.1093 0.99476 0.0
C2157 C 0.43048 0.09698 0.05906 0.0
C2158 C 0.42934 0.09655 0.03252 0.0
C2159 C 0.43056 0.09701 0.95545 0.0
C2160 C 0.42938 0.09657 0.98198 0.0
H2161 H 0.42036 0.06967 0.10612 0.0
H2162 H 0.41493 0.06938 0.06365 0.0
H2163 H 0.42692 0.11927 0.02895 0.0
H2164 H 0.45184 0.12498 0.91027 0.0
H2165 H 0.4467 0.12469 0.95285 0.0
C2166 C 0.34513 0.43282 0.91626 0.0
C2167 C 0.33199 0.43335 0.90336 0.0
C2168 C 0.34335 0.42928 0.94063 0.0
C2169 C 0.32387 0.43562 0.99294 0.0
H2170 H 0.33656 0.405 0.02381 0.0
C2171 C 0.32812 0.43433 0.09532 0.0
C2172 C 0.34189 0.43298 0.10474 0.0
C2173 C 0.32375 0.43099 0.0712 0.0
C2174 C 0.33315 0.41377 0.01557 0.0
H2175 H 0.30649 0.43018 0.90585 0.0
H2176 H 0.30355 0.42438 0.94871 0.0
H2177 H 0.33505 0.40542 0.98053 0.0
H2178 H 0.36152 0.4265 0.09626 0.0
H2179 H 0.35439 0.42129 0.05443 0.0
H2180 H 0.32299 0.44482 0.0276 0.0
C2181 C 0.31514 0.42652 0.93979 0.0
C2182 C 0.33215 0.41388 0.99073 0.0
C2183 C 0.31677 0.42971 0.91525 0.0
C2184 C 0.35073 0.42753 0.0897 0.0
C2185 C 0.34655 0.42446 0.06557 0.0
C2186 C 0.32516 0.43574 0.01775 0.0
C2187 C 0.32852 0.42652 0.95278 0.0
C2188 C 0.32774 0.42498 0.97914 0.0
C2189 C 0.33322 0.42647 0.05579 0.0
C2190 C 0.3301 0.42502 0.02948 0.0
H2191 H 0.35704 0.43562 0.90762 0.0
H2192 H 0.35393 0.4295 0.95019 0.0
H2193 H 0.32064 0.44446 0.98448 0.0
H2194 H 0.32099 0.43843 0.10643 0.0
H2195 H 0.31314 0.43229 0.0646 0.0
C2196 C 0.89607 0.32771 0.91184 0.0
C2197 C 0.91197 0.33871 0.90098 0.0
C2198 C 0.89517 0.32397 0.93614 0.0
C2199 C 0.92137 0.32741 0.98967 0.0
H2200 H 0.88639 0.33246 0.02296 0.0
C2201 C 0.92574 0.34432 0.08964 0.0
C2202 C 0.91049 0.33825 0.10285 0.0
C2203 C 0.92517 0.34077 0.06532 0.0
C2204 C 0.89604 0.33065 0.01402 0.0
H2205 H 0.9395 0.35346 0.90697 0.0
H2206 H 0.93792 0.34702 0.94922 0.0
H2207 H 0.88671 0.33245 0.9798 0.0
H2208 H 0.8827 0.32269 0.10101 0.0
H2209 H 0.88173 0.31623 0.05878 0.0
H2210 H 0.93094 0.32604 0.02404 0.0
C2211 C 0.92612 0.3412 0.93899 0.0
C2212 C 0.89622 0.33065 0.98917 0.0
C2213 C 0.92702 0.34495 0.9147 0.0
C2214 C 0.8947 0.32766 0.09142 0.0
C2215 C 0.89414 0.32408 0.0671 0.0
C2216 C 0.92117 0.32738 0.01459 0.0
C2217 C 0.91014 0.33111 0.9502 0.0
C2218 C 0.90904 0.3293 0.97663 0.0
C2219 C 0.90933 0.33101 0.05357 0.0
C2220 C 0.90865 0.32928 0.02711 0.0
H2221 H 0.8842 0.32261 0.90186 0.0
H2222 H 0.88267 0.31588 0.94408 0.0
H2223 H 0.93129 0.32611 0.98062 0.0
H2224 H 0.93813 0.35253 0.0978 0.0
H2225 H 0.93714 0.34645 0.05552 0.0
C2226 C 0.5652 0.89215 0.09567 0.0
C2227 C 0.57208 0.90768 0.10842 0.0
C2228 C 0.56807 0.89217 0.07118 0.0
C2229 C 0.5784 0.92098 0.01923 0.0
H2230 H 0.58043 0.88442 0.98555 0.0
C2231 C 0.58311 0.92213 0.91734 0.0
C2232 C 0.57175 0.90674 0.90561 0.0
C2233 C 0.58604 0.92227 0.94179 0.0
C2234 C 0.57981 0.89469 0.99469 0.0
H2235 H 0.58842 0.9353 0.10561 0.0
H2236 H 0.59382 0.93531 0.06318 0.0
H2237 H 0.58067 0.88475 0.02902 0.0
H2238 H 0.55534 0.87924 0.91033 0.0
H2239 H 0.56041 0.87952 0.95297 0.0
H2240 H 0.57724 0.93078 0.98509 0.0
C2241 C 0.58577 0.92312 0.07193 0.0
C2242 C 0.57993 0.89488 0.01964 0.0
C2243 C 0.58281 0.92311 0.09636 0.0
C2244 C 0.56422 0.89134 0.91872 0.0
C2245 C 0.56714 0.89149 0.94323 0.0
C2246 C 0.57833 0.92081 0.99438 0.0
C2247 C 0.57797 0.90771 0.05883 0.0
C2248 C 0.57908 0.90797 0.03227 0.0
C2249 C 0.57768 0.90704 0.95522 0.0
C2250 C 0.5789 0.90761 0.98173 0.0
H2251 H 0.5568 0.88001 0.10431 0.0
H2252 H 0.56174 0.88005 0.06177 0.0
H2253 H 0.57731 0.93105 0.02821 0.0
H2254 H 0.58924 0.93422 0.90782 0.0
H2255 H 0.59453 0.93444 0.95032 0.0
C2256 C 0.67944 0.56907 0.09926 0.0
C2257 C 0.66902 0.57447 0.11069 0.0
C2258 C 0.68244 0.57141 0.07474 0.0
C2259 C 0.67821 0.59385 0.02145 0.0
H2260 H 0.67205 0.5534 0.98818 0.0
C2261 C 0.66033 0.58127 0.92165 0.0
C2262 C 0.66621 0.57201 0.90826 0.0
C2263 C 0.66395 0.58412 0.94598 0.0
C2264 C 0.67415 0.56497 0.9971 0.0
H2265 H 0.65446 0.5875 0.10537 0.0
H2266 H 0.65963 0.59151 0.06277 0.0
H2267 H 0.67275 0.55402 0.03136 0.0
H2268 H 0.68142 0.5594 0.90982 0.0
H2269 H 0.68799 0.56466 0.95207 0.0
H2270 H 0.67922 0.60463 0.98708 0.0
C2271 C 0.66557 0.58553 0.07272 0.0
C2272 C 0.67455 0.56532 0.02197 0.0
C2273 C 0.66255 0.58317 0.09722 0.0
C2274 C 0.6766 0.56652 0.91955 0.0
C2275 C 0.68025 0.5694 0.94388 0.0
C2276 C 0.67784 0.59351 0.99654 0.0
C2277 C 0.67514 0.57924 0.06103 0.0
C2278 C 0.67635 0.57966 0.03452 0.0
C2279 C 0.67358 0.57783 0.95757 0.0
C2280 C 0.67556 0.57896 0.98401 0.0
H2281 H 0.68469 0.56235 0.10903 0.0
H2282 H 0.69015 0.56669 0.06643 0.0
H2283 H 0.67985 0.60521 0.0305 0.0
H2284 H 0.65227 0.58567 0.9136 0.0
H2285 H 0.65847 0.59054 0.9559 0.0
C2286 C 0.11499 0.67727 0.91787 0.0
C2287 C 0.09907 0.66664 0.90675 0.0
C2288 C 0.11587 0.68059 0.9423 0.0
C2289 C 0.08977 0.6772 0.99576 0.0
H2290 H 0.12407 0.67101 0.02908 0.0
C2291 C 0.08476 0.66026 0.09576 0.0
C2292 C 0.09989 0.66586 0.10911 0.0
C2293 C 0.08552 0.66378 0.07141 0.0
C2294 C 0.11462 0.67314 0.02015 0.0
H2295 H 0.07152 0.65207 0.91252 0.0
H2296 H 0.07307 0.65785 0.95501 0.0
H2297 H 0.12384 0.67123 0.98589 0.0
H2298 H 0.12774 0.6805 0.10743 0.0
H2299 H 0.12906 0.68694 0.06511 0.0
H2300 H 0.08034 0.67877 0.03011 0.0
C2301 C 0.08489 0.66367 0.94486 0.0
C2302 C 0.11448 0.67324 0.99528 0.0
C2303 C 0.08401 0.6603 0.92043 0.0
C2304 C 0.11581 0.67592 0.09773 0.0
C2305 C 0.11657 0.67947 0.07337 0.0
C2306 C 0.08994 0.67715 0.02068 0.0
C2307 C 0.10087 0.67344 0.95625 0.0
C2308 C 0.1019 0.67501 0.98272 0.0
C2309 C 0.10144 0.67304 0.05972 0.0
C2310 C 0.1022 0.67484 0.03324 0.0
H2311 H 0.12688 0.68241 0.90793 0.0
H2312 H 0.12838 0.68842 0.9504 0.0
H2313 H 0.08004 0.67883 0.98669 0.0
H2314 H 0.07226 0.65246 0.10386 0.0
H2315 H 0.07359 0.65847 0.06155 0.0
C2316 C 0.91312 0.56824 0.5966 0.0
C2317 C 0.90308 0.57254 0.61108 0.0
C2318 C 0.91469 0.57176 0.57225 0.0
C2319 C 0.89134 0.57715 0.52256 0.0
H2320 H 0.93345 0.58986 0.48824 0.0
C2321 C 0.89403 0.57851 0.41924 0.0
C2322 C 0.90248 0.57039 0.40929 0.0
C2323 C 0.89551 0.58235 0.44363 0.0
C2324 C 0.92155 0.58625 0.49752 0.0
H2325 H 0.88728 0.58451 0.61134 0.0
H2326 H 0.89002 0.59068 0.56862 0.0
H2327 H 0.93367 0.59034 0.53157 0.0
H2328 H 0.9197 0.56062 0.41708 0.0
H2329 H 0.92217 0.56717 0.45918 0.0
H2330 H 0.87909 0.57251 0.4885 0.0
C2331 C 0.89661 0.58448 0.57622 0.0
C2332 C 0.9217 0.58655 0.52238 0.0
C2333 C 0.89517 0.58109 0.60072 0.0
C2334 C 0.91295 0.56682 0.42409 0.0
C2335 C 0.91448 0.57072 0.4483 0.0
C2336 C 0.89118 0.57682 0.49764 0.0
C2337 C 0.90618 0.57961 0.56162 0.0
C2338 C 0.90651 0.58159 0.53525 0.0
C2339 C 0.90559 0.57829 0.45853 0.0
C2340 C 0.9062 0.58093 0.48481 0.0
H2341 H 0.9194 0.56165 0.60396 0.0
H2342 H 0.922 0.56764 0.56158 0.0
H2343 H 0.87937 0.57311 0.53188 0.0
H2344 H 0.88585 0.58141 0.40837 0.0
H2345 H 0.88861 0.58833 0.45086 0.0
C2346 C 0.31699 0.88865 0.59661 0.0
C2347 C 0.3331 0.89751 0.60793 0.0
C2348 C 0.31571 0.8894 0.57179 0.0
C2349 C 0.34273 0.89813 0.5181 0.0
H2350 H 0.30558 0.89936 0.48472 0.0
C2351 C 0.34661 0.9089 0.41783 0.0
C2352 C 0.33211 0.89787 0.40416 0.0
C2353 C 0.34544 0.90971 0.44248 0.0
C2354 C 0.31596 0.89888 0.49382 0.0
H2355 H 0.36031 0.91497 0.60215 0.0
H2356 H 0.35804 0.91656 0.55935 0.0
H2357 H 0.30593 0.89926 0.52834 0.0
H2358 H 0.30474 0.87976 0.4057 0.0
H2359 H 0.3027 0.88115 0.44906 0.0
H2360 H 0.3528 0.89773 0.48389 0.0
C2361 C 0.34643 0.9086 0.5694 0.0
C2362 C 0.31616 0.89882 0.51881 0.0
C2363 C 0.34772 0.90778 0.59404 0.0
C2364 C 0.31615 0.88841 0.41569 0.0
C2365 C 0.31498 0.8892 0.44053 0.0
C2366 C 0.34256 0.89826 0.4933 0.0
C2367 C 0.3305 0.89906 0.55781 0.0
C2368 C 0.3297 0.89866 0.53126 0.0
C2369 C 0.32976 0.89947 0.45427 0.0
C2370 C 0.32931 0.89885 0.48079 0.0
H2371 H 0.30548 0.8806 0.60678 0.0
H2372 H 0.30324 0.88185 0.56349 0.0
H2373 H 0.35309 0.89748 0.52698 0.0
H2374 H 0.35907 0.91656 0.40956 0.0
H2375 H 0.35699 0.91809 0.45241 0.0
C2376 C 0.43932 0.32682 0.5938 0.0
C2377 C 0.43378 0.33711 0.60523 0.0
C2378 C 0.43674 0.32358 0.56934 0.0
C2379 C 0.41355 0.32719 0.51632 0.0
H2380 H 0.45381 0.33344 0.48238 0.0
C2381 C 0.42582 0.34568 0.41673 0.0
C2382 C 0.43492 0.33978 0.40301 0.0
C2383 C 0.42299 0.34185 0.44101 0.0
C2384 C 0.4423 0.33132 0.4915 0.0
H2385 H 0.42023 0.35118 0.6 0.0
H2386 H 0.41585 0.34565 0.55754 0.0
H2387 H 0.45355 0.33282 0.52556 0.0
H2388 H 0.44724 0.32429 0.40395 0.0
H2389 H 0.44207 0.31741 0.44613 0.0
H2390 H 0.40251 0.32618 0.48213 0.0
C2391 C 0.42211 0.33996 0.56742 0.0
C2392 C 0.44215 0.33096 0.51637 0.0
C2393 C 0.42468 0.3432 0.59185 0.0
C2394 C 0.44024 0.32912 0.41392 0.0
C2395 C 0.43741 0.32529 0.43821 0.0
C2396 C 0.41371 0.32757 0.49141 0.0
C2397 C 0.42854 0.33053 0.55568 0.0
C2398 C 0.42788 0.32915 0.52917 0.0
C2399 C 0.42918 0.332 0.45224 0.0
C2400 C 0.4282 0.3299 0.47865 0.0
H2401 H 0.44635 0.32187 0.6035 0.0
H2402 H 0.44159 0.31599 0.56102 0.0
H2403 H 0.40223 0.32552 0.52554 0.0
H2404 H 0.42155 0.35394 0.40899 0.0
H2405 H 0.41672 0.34736 0.45121 0.0
C2406 C 0.09984 0.43913 0.59224 0.0
C2407 C 0.11094 0.43631 0.60678 0.0
C2408 C 0.09823 0.43517 0.56805 0.0
C2409 C 0.12208 0.43052 0.51821 0.0
H2410 H 0.07893 0.41503 0.48505 0.0
C2411 C 0.1168 0.42554 0.41507 0.0
C2412 C 0.10799 0.43325 0.40494 0.0
C2413 C 0.11604 0.42254 0.43965 0.0
C2414 C 0.09109 0.41938 0.49402 0.0
H2415 H 0.12862 0.42652 0.6073 0.0
H2416 H 0.12574 0.41948 0.56484 0.0
H2417 H 0.07949 0.41546 0.52837 0.0
H2418 H 0.09093 0.4432 0.41264 0.0
H2419 H 0.08955 0.43791 0.45514 0.0
H2420 H 0.13371 0.4348 0.48374 0.0
C2421 C 0.11839 0.42493 0.57226 0.0
C2422 C 0.09142 0.41964 0.51888 0.0
C2423 C 0.11994 0.42882 0.59663 0.0
C2424 C 0.09791 0.43727 0.4198 0.0
C2425 C 0.09702 0.43413 0.44422 0.0
C2426 C 0.12173 0.4302 0.49329 0.0
C2427 C 0.10769 0.42829 0.5576 0.0
C2428 C 0.10699 0.42567 0.53132 0.0
C2429 C 0.10627 0.42697 0.45455 0.0
C2430 C 0.1063 0.42506 0.48089 0.0
H2431 H 0.09266 0.44483 0.59942 0.0
H2432 H 0.09005 0.43817 0.55735 0.0
H2433 H 0.13433 0.43538 0.52714 0.0
H2434 H 0.12472 0.42233 0.40416 0.0
H2435 H 0.12321 0.41689 0.44703 0.0
C2436 C 0.65789 0.07641 0.42027 0.0
C2437 C 0.66329 0.09199 0.40821 0.0
C2438 C 0.66095 0.07626 0.44465 0.0
C2439 C 0.68521 0.10391 0.49646 0.0
H2440 H 0.64596 0.06972 0.53192 0.0
C2441 C 0.67569 0.10873 0.59784 0.0
C2442 C 0.66694 0.09341 0.61102 0.0
C2443 C 0.67792 0.10828 0.57324 0.0
C2444 C 0.65719 0.07918 0.52236 0.0
H2445 H 0.67694 0.11971 0.41227 0.0
H2446 H 0.6821 0.11944 0.45473 0.0
H2447 H 0.64508 0.06938 0.48881 0.0
H2448 H 0.65481 0.06568 0.60884 0.0
H2449 H 0.659 0.06491 0.56619 0.0
H2450 H 0.69711 0.11393 0.53026 0.0
C2451 C 0.67565 0.10731 0.44533 0.0
C2452 C 0.65669 0.07898 0.49752 0.0
C2453 C 0.67265 0.10746 0.42091 0.0
C2454 C 0.66148 0.07772 0.59926 0.0
C2455 C 0.66376 0.07727 0.57472 0.0
C2456 C 0.6857 0.10412 0.52139 0.0
C2457 C 0.66942 0.09168 0.45768 0.0
C2458 C 0.67062 0.0914 0.48418 0.0
C2459 C 0.6715 0.0925 0.56123 0.0
C2460 C 0.67164 0.09182 0.53469 0.0
H2461 H 0.65075 0.06426 0.41105 0.0
H2462 H 0.65631 0.06399 0.4534 0.0
H2463 H 0.69626 0.11356 0.4868 0.0
H2464 H 0.68001 0.12106 0.60626 0.0
H2465 H 0.68386 0.12027 0.56347 0.0
C2466 C 0.57925 0.69439 0.41757 0.0
C2467 C 0.57229 0.67792 0.40749 0.0
C2468 C 0.58288 0.69688 0.44202 0.0
C2469 C 0.58888 0.67613 0.49579 0.0
H2470 H 0.57162 0.70168 0.53033 0.0
C2471 C 0.57064 0.66423 0.59457 0.0
C2472 C 0.57332 0.67797 0.60936 0.0
C2473 C 0.5742 0.66674 0.57027 0.0
C2474 C 0.57683 0.69477 0.52097 0.0
H2475 H 0.56442 0.65132 0.4151 0.0
H2476 H 0.57074 0.65564 0.4573 0.0
H2477 H 0.57134 0.70165 0.48691 0.0
H2478 H 0.5824 0.7053 0.61016 0.0
H2479 H 0.58867 0.7097 0.56749 0.0
H2480 H 0.5939 0.66882 0.52978 0.0
C2481 C 0.57348 0.66669 0.44647 0.0
C2482 C 0.57667 0.69476 0.49604 0.0
C2483 C 0.56974 0.66418 0.42221 0.0
C2484 C 0.58025 0.69445 0.59931 0.0
C2485 C 0.5837 0.69694 0.57483 0.0
C2486 C 0.58904 0.67614 0.52066 0.0
C2487 C 0.57984 0.68299 0.45682 0.0
C2488 C 0.58226 0.68505 0.48313 0.0
C2489 C 0.58048 0.68304 0.55995 0.0
C2490 C 0.58259 0.68508 0.5336 0.0
H2491 H 0.58131 0.70523 0.40677 0.0
H2492 H 0.5879 0.70964 0.44937 0.0
H2493 H 0.59363 0.6688 0.48645 0.0
H2494 H 0.56533 0.65136 0.60166 0.0
H2495 H 0.57134 0.65568 0.55939 0.0
C2496 C 0.51868 0.12376 0.20991 0.0
C2497 C 0.51045 0.13163 0.22126 0.0
C2498 C 0.53437 0.12621 0.21827 0.0
C2499 C 0.56112 0.13825 0.27238 0.0
H2500 H 0.59436 0.13769 0.22896 0.0
C2501 C 0.63071 0.13948 0.27397 0.0
C2502 C 0.62724 0.12815 0.29314 0.0
C2503 C 0.61794 0.14269 0.2653 0.0
C2504 C 0.58538 0.13814 0.24137 0.0
H2505 H 0.51258 0.14862 0.25007 0.0
H2506 H 0.5402 0.15314 0.26445 0.0
H2507 H 0.56982 0.13908 0.21327 0.0
H2508 H 0.60751 0.11132 0.31813 0.0
H2509 H 0.58543 0.11658 0.30279 0.0
H2510 H 0.57678 0.13753 0.30049 0.0
C2511 C 0.53432 0.14482 0.24927 0.0
C2512 C 0.57115 0.1387 0.23235 0.0
C2513 C 0.51851 0.1423 0.24096 0.0
C2514 C 0.61076 0.12019 0.30342 0.0
C2515 C 0.59806 0.12334 0.29474 0.0
C2516 C 0.57541 0.13782 0.28139 0.0
C2517 C 0.54238 0.13669 0.23812 0.0
C2518 C 0.55859 0.13829 0.24773 0.0
C2519 C 0.60144 0.13462 0.27559 0.0
C2520 C 0.58747 0.13728 0.266 0.0
H2521 H 0.51289 0.11541 0.19473 0.0
H2522 H 0.53997 0.11945 0.20949 0.0
H2523 H 0.55172 0.13783 0.28479 0.0
H2524 H 0.64327 0.14587 0.26567 0.0
H2525 H 0.62104 0.15156 0.25063 0.0
C2526 C 0.49517 0.60744 0.30162 0.0
C2527 C 0.50257 0.62417 0.29228 0.0
C2528 C 0.47987 0.59417 0.29238 0.0
C2529 C 0.44289 0.57033 0.27909 0.0
H2530 H 0.43574 0.56561 0.21095 0.0
C2531 C 0.38125 0.51438 0.23798 0.0
C2532 C 0.38358 0.50656 0.21778 0.0
C2533 C 0.39476 0.52985 0.24669 0.0
C2534 C 0.43757 0.5667 0.23003 0.0
H2535 H 0.49959 0.63997 0.26569 0.0
H2536 H 0.47264 0.61672 0.24965 0.0
H2537 H 0.4614 0.59036 0.22692 0.0
H2538 H 0.40206 0.509 0.19094 0.0
H2539 H 0.42553 0.53559 0.20638 0.0
H2540 H 0.41951 0.54632 0.28221 0.0
C2541 C 0.47886 0.61391 0.26405 0.0
C2542 C 0.45218 0.58102 0.2392 0.0
C2543 C 0.49427 0.62725 0.27329 0.0
C2544 C 0.39971 0.51464 0.20647 0.0
C2545 C 0.41319 0.53003 0.21522 0.0
C2546 C 0.42834 0.55599 0.26993 0.0
C2547 C 0.47144 0.59722 0.27358 0.0
C2548 C 0.45518 0.58285 0.26383 0.0
C2549 C 0.41093 0.53783 0.23547 0.0
C2550 C 0.42563 0.55384 0.24526 0.0
H2551 H 0.50122 0.60449 0.31612 0.0
H2552 H 0.47478 0.58142 0.29981 0.0
H2553 H 0.44464 0.57148 0.29819 0.0
H2554 H 0.36902 0.50855 0.24714 0.0
H2555 H 0.39251 0.5356 0.26219 0.0
C2556 C 0.89395 0.49371 0.30144 0.0
C2557 C 0.8847 0.50133 0.29253 0.0
C2558 C 0.89174 0.47846 0.29178 0.0
C2559 C 0.87781 0.44145 0.27801 0.0
H2560 H 0.87531 0.43476 0.20977 0.0
C2561 C 0.86994 0.37923 0.23597 0.0
C2562 C 0.88014 0.38138 0.21589 0.0
C2563 C 0.8685 0.393 0.24485 0.0
C2564 C 0.87605 0.43645 0.22887 0.0
H2565 H 0.86601 0.49888 0.26608 0.0
H2566 H 0.86203 0.47205 0.24931 0.0
H2567 H 0.87695 0.46065 0.22614 0.0
H2568 H 0.8968 0.3998 0.18941 0.0
H2569 H 0.89454 0.4237 0.20512 0.0
H2570 H 0.87764 0.41765 0.28075 0.0
C2571 C 0.87109 0.47803 0.26375 0.0
C2572 C 0.87678 0.45121 0.23827 0.0
C2573 C 0.87332 0.49338 0.27343 0.0
C2574 C 0.88876 0.39759 0.20485 0.0
C2575 C 0.88735 0.41132 0.21375 0.0
C2576 C 0.87713 0.42674 0.26862 0.0
C2577 C 0.88019 0.47033 0.27296 0.0
C2578 C 0.87797 0.45403 0.26294 0.0
C2579 C 0.87726 0.40924 0.23391 0.0
C2580 C 0.87652 0.42418 0.24392 0.0
H2581 H 0.90296 0.49949 0.31598 0.0
H2582 H 0.89927 0.47314 0.29895 0.0
H2583 H 0.87841 0.44306 0.29713 0.0
H2584 H 0.8631 0.36694 0.24492 0.0
H2585 H 0.86047 0.39089 0.26028 0.0
C2586 C 0.48857 0.88029 0.20694 0.0
C2587 C 0.49686 0.87267 0.21883 0.0
C2588 C 0.47258 0.87745 0.21455 0.0
C2589 C 0.4453 0.86533 0.26787 0.0
H2590 H 0.41236 0.86563 0.22352 0.0
C2591 C 0.3762 0.86488 0.26887 0.0
C2592 C 0.38014 0.8768 0.28739 0.0
C2593 C 0.38876 0.86138 0.26014 0.0
C2594 C 0.42126 0.86525 0.23615 0.0
H2595 H 0.49449 0.85564 0.24773 0.0
H2596 H 0.46638 0.85049 0.26087 0.0
H2597 H 0.43698 0.86401 0.20853 0.0
H2598 H 0.40057 0.89459 0.31086 0.0
H2599 H 0.42219 0.88872 0.29554 0.0
H2600 H 0.42959 0.86651 0.29547 0.0
C2601 C 0.47244 0.85889 0.24583 0.0
C2602 C 0.43551 0.86454 0.22756 0.0
C2603 C 0.48853 0.8618 0.23825 0.0
C2604 C 0.39692 0.88521 0.29675 0.0
C2605 C 0.40937 0.88173 0.28808 0.0
C2606 C 0.43103 0.86594 0.27644 0.0
C2607 C 0.46435 0.86683 0.2342 0.0
C2608 C 0.44797 0.86508 0.2433 0.0
C2609 C 0.40547 0.8697 0.26981 0.0
C2610 C 0.41913 0.86646 0.26067 0.0
H2611 H 0.49455 0.88877 0.19193 0.0
H2612 H 0.46695 0.88406 0.20542 0.0
H2613 H 0.45463 0.86585 0.28054 0.0
H2614 H 0.36341 0.85816 0.26127 0.0
H2615 H 0.38534 0.85202 0.24605 0.0
C2616 C 0.61397 0.49446 0.21414 0.0
C2617 C 0.63006 0.5027 0.22561 0.0
C2618 C 0.60068 0.47883 0.22248 0.0
C2619 C 0.5852 0.45171 0.27604 0.0
H2620 H 0.55339 0.41825 0.23095 0.0
C2621 C 0.51866 0.38054 0.27342 0.0
C2622 C 0.50971 0.38303 0.29204 0.0
C2623 C 0.53466 0.39396 0.26598 0.0
C2624 C 0.56224 0.42728 0.24385 0.0
H2625 H 0.64471 0.50078 0.25491 0.0
H2626 H 0.62141 0.47323 0.26939 0.0
H2627 H 0.57927 0.44339 0.21661 0.0
H2628 H 0.51068 0.40169 0.31747 0.0
H2629 H 0.53815 0.42501 0.30417 0.0
H2630 H 0.56825 0.43548 0.3033 0.0
C2631 C 0.61912 0.47905 0.25401 0.0
C2632 C 0.577 0.44185 0.23559 0.0
C2633 C 0.6325 0.4948 0.24565 0.0
C2634 C 0.51719 0.39922 0.30312 0.0
C2635 C 0.53308 0.41262 0.29562 0.0
C2636 C 0.57047 0.43707 0.28432 0.0
C2637 C 0.60304 0.47089 0.24249 0.0
C2638 C 0.58846 0.45446 0.25153 0.0
C2639 C 0.54203 0.41021 0.27691 0.0
C2640 C 0.5586 0.42486 0.2683 0.0
H2641 H 0.61149 0.50013 0.19874 0.0
H2642 H 0.58839 0.47317 0.21345 0.0
H2643 H 0.59368 0.46117 0.28883 0.0
H2644 H 0.51334 0.36822 0.26457 0.0
H2645 H 0.54127 0.39157 0.2517 0.0
C2646 C 0.14252 0.62338 0.235 0.0
C2647 C 0.12819 0.62087 0.22163 0.0
C2648 C 0.14384 0.60927 0.24277 0.0
C2649 C 0.11965 0.56705 0.26417 0.0
H2650 H 0.15052 0.55371 0.23559 0.0
C2651 C 0.1103 0.50047 0.28199 0.0
C2652 C 0.12477 0.49852 0.28449 0.0
C2653 C 0.11198 0.5158 0.27355 0.0
C2654 C 0.14202 0.55737 0.24407 0.0
H2655 H 0.10398 0.60161 0.20618 0.0
H2656 H 0.10609 0.5771 0.22049 0.0
H2657 H 0.15184 0.58055 0.2234 0.0
H2658 H 0.1523 0.51083 0.27967 0.0
H2659 H 0.15545 0.5381 0.26561 0.0
H2660 H 0.10998 0.54438 0.28524 0.0
C2661 C 0.11638 0.58997 0.2245 0.0
C2662 C 0.14277 0.5727 0.23701 0.0
C2663 C 0.11521 0.60401 0.21635 0.0
C2664 C 0.14095 0.51202 0.27767 0.0
C2665 C 0.14271 0.52761 0.26963 0.0
C2666 C 0.11907 0.55195 0.27151 0.0
C2667 C 0.1307 0.59249 0.23769 0.0
C2668 C 0.13137 0.57744 0.24675 0.0
C2669 C 0.12826 0.52981 0.26797 0.0
C2670 C 0.12995 0.54664 0.26116 0.0
H2671 H 0.15275 0.63623 0.23923 0.0
H2672 H 0.15495 0.61142 0.25305 0.0
H2673 H 0.11081 0.57056 0.27196 0.0
H2674 H 0.09765 0.49015 0.2869 0.0
H2675 H 0.10046 0.5167 0.27173 0.0
C2676 C 0.48599 0.86351 0.78051 0.0
C2677 C 0.49801 0.87787 0.79359 0.0
C2678 C 0.47056 0.86232 0.77288 0.0
C2679 C 0.45269 0.88835 0.75449 0.0
H2680 H 0.40793 0.85264 0.77609 0.0
C2681 C 0.39374 0.8951 0.73813 0.0
C2682 C 0.37815 0.88044 0.73225 0.0
C2683 C 0.40747 0.89359 0.74673 0.0
C2684 C 0.42028 0.86256 0.76957 0.0
H2685 H 0.50338 0.9023 0.80865 0.0
H2686 H 0.47683 0.90043 0.79464 0.0
H2687 H 0.43378 0.85168 0.7875 0.0
H2688 H 0.36437 0.85268 0.73106 0.0
H2689 H 0.38866 0.8499 0.74536 0.0
H2690 H 0.43957 0.89909 0.73602 0.0
C2691 C 0.47921 0.89002 0.79065 0.0
C2692 C 0.43505 0.86199 0.77616 0.0
C2693 C 0.49438 0.89104 0.79868 0.0
C2694 C 0.37626 0.86414 0.73584 0.0
C2695 C 0.39019 0.8626 0.744 0.0
C2696 C 0.438 0.88876 0.74756 0.0
C2697 C 0.46717 0.87566 0.77775 0.0
C2698 C 0.45137 0.87508 0.76901 0.0
C2699 C 0.40614 0.87736 0.74898 0.0
C2700 C 0.4216 0.87611 0.75545 0.0
H2701 H 0.48841 0.85313 0.77643 0.0
H2702 H 0.46144 0.85117 0.76285 0.0
H2703 H 0.46516 0.89848 0.74858 0.0
H2704 H 0.39543 0.9078 0.73552 0.0
H2705 H 0.41929 0.90524 0.75113 0.0
C2706 C 0.60669 0.49395 0.80181 0.0
C2707 C 0.6235 0.50007 0.79332 0.0
C2708 C 0.59295 0.47892 0.79268 0.0
C2709 C 0.5813 0.43855 0.76239 0.0
H2710 H 0.54055 0.44014 0.74366 0.0
C2711 C 0.51514 0.37852 0.7387 0.0
C2712 C 0.50704 0.38015 0.71824 0.0
C2713 C 0.53013 0.39267 0.74753 0.0
C2714 C 0.55186 0.43951 0.74875 0.0
H2715 H 0.63899 0.49494 0.76872 0.0
H2716 H 0.61485 0.46847 0.75291 0.0
H2717 H 0.5653 0.46584 0.75963 0.0
H2718 H 0.50873 0.39794 0.69073 0.0
H2719 H 0.53457 0.42242 0.70628 0.0
H2720 H 0.56768 0.41209 0.75156 0.0
C2721 C 0.61244 0.47543 0.76667 0.0
C2722 C 0.56596 0.45418 0.75803 0.0
C2723 C 0.62623 0.49063 0.77563 0.0
C2724 C 0.51449 0.39615 0.70659 0.0
C2725 C 0.5293 0.41025 0.71552 0.0
C2726 C 0.56705 0.42376 0.75336 0.0
C2727 C 0.59566 0.46953 0.77498 0.0
C2728 C 0.58084 0.45388 0.76491 0.0
C2729 C 0.53716 0.40874 0.73622 0.0
C2730 C 0.55223 0.42415 0.74633 0.0
H2731 H 0.60406 0.50082 0.81545 0.0
H2732 H 0.58017 0.47458 0.79957 0.0
H2733 H 0.59259 0.43796 0.76771 0.0
H2734 H 0.50978 0.3664 0.74809 0.0
H2735 H 0.53592 0.39119 0.76359 0.0
C2736 C 0.12496 0.61102 0.80525 0.0
C2737 C 0.13228 0.6269 0.79336 0.0
C2738 C 0.12728 0.59775 0.79679 0.0
C2739 C 0.13718 0.58213 0.74197 0.0
H2740 H 0.1395 0.54982 0.7854 0.0
C2741 C 0.14123 0.5155 0.73957 0.0
C2742 C 0.12929 0.50699 0.72124 0.0
C2743 C 0.14389 0.53121 0.7484 0.0
C2744 C 0.13911 0.55883 0.77298 0.0
H2745 H 0.14817 0.64135 0.76342 0.0
H2746 H 0.15241 0.61816 0.74877 0.0
H2747 H 0.14108 0.57587 0.80091 0.0
H2748 H 0.11048 0.50824 0.69826 0.0
H2749 H 0.11481 0.53519 0.71393 0.0
H2750 H 0.13538 0.5652 0.71403 0.0
C2751 C 0.14466 0.61595 0.76452 0.0
C2752 C 0.1398 0.57367 0.7819 0.0
C2753 C 0.14229 0.62928 0.77298 0.0
C2754 C 0.11991 0.51444 0.71223 0.0
C2755 C 0.1225 0.53004 0.72109 0.0
C2756 C 0.13658 0.56734 0.73305 0.0
C2757 C 0.13705 0.59997 0.77624 0.0
C2758 C 0.13843 0.5853 0.76656 0.0
C2759 C 0.13461 0.53871 0.73915 0.0
C2760 C 0.13711 0.55529 0.74849 0.0
H2761 H 0.11713 0.60865 0.82097 0.0
H2762 H 0.12095 0.58555 0.80603 0.0
H2763 H 0.13598 0.59072 0.72963 0.0
H2764 H 0.14868 0.51016 0.74694 0.0
H2765 H 0.15338 0.5376 0.76225 0.0
C2766 C 0.61315 0.12087 0.71376 0.0
C2767 C 0.62934 0.1286 0.72491 0.0
C2768 C 0.60014 0.12365 0.72216 0.0
C2769 C 0.57688 0.13744 0.73554 0.0
H2770 H 0.56994 0.13712 0.80354 0.0
C2771 C 0.51961 0.14168 0.77496 0.0
C2772 C 0.51116 0.13074 0.79427 0.0
C2773 C 0.53543 0.14409 0.76695 0.0
C2774 C 0.57165 0.13717 0.78449 0.0
H2775 H 0.64455 0.14554 0.75358 0.0
H2776 H 0.62183 0.15063 0.76807 0.0
H2777 H 0.59477 0.13608 0.7884 0.0
H2778 H 0.51288 0.11383 0.82037 0.0
H2779 H 0.53999 0.11766 0.80612 0.0
H2780 H 0.55327 0.13756 0.73159 0.0
C2781 C 0.61917 0.1422 0.75297 0.0
C2782 C 0.58605 0.13682 0.77579 0.0
C2783 C 0.63222 0.13934 0.7446 0.0
C2784 C 0.51899 0.12242 0.8055 0.0
C2785 C 0.53469 0.12473 0.79743 0.0
C2786 C 0.56242 0.13766 0.74423 0.0
C2787 C 0.60294 0.13433 0.74188 0.0
C2788 C 0.58866 0.13658 0.75119 0.0
C2789 C 0.54311 0.13554 0.77801 0.0
C2790 C 0.55942 0.13716 0.76881 0.0
H2791 H 0.61036 0.11244 0.69862 0.0
H2792 H 0.58773 0.11706 0.71346 0.0
H2793 H 0.57865 0.13762 0.71649 0.0
H2794 H 0.51399 0.14836 0.76596 0.0
H2795 H 0.54163 0.15266 0.75211 0.0
C2796 C 0.37914 0.51469 0.77296 0.0
C2797 C 0.38263 0.50642 0.79158 0.0
C2798 C 0.39199 0.53072 0.76457 0.0
C2799 C 0.43471 0.56786 0.78107 0.0
H2800 H 0.44104 0.57494 0.71306 0.0
C2801 C 0.4926 0.60898 0.71096 0.0
C2802 C 0.50092 0.62537 0.72153 0.0
C2803 C 0.47672 0.59613 0.71928 0.0
C2804 C 0.43946 0.57317 0.73212 0.0
H2805 H 0.40252 0.50863 0.81581 0.0
H2806 H 0.42466 0.53611 0.80108 0.0
H2807 H 0.41594 0.54928 0.72829 0.0
H2808 H 0.49885 0.64103 0.74921 0.0
H2809 H 0.47092 0.61845 0.76378 0.0
H2810 H 0.45868 0.59127 0.78489 0.0
C2811 C 0.41197 0.5305 0.79324 0.0
C2812 C 0.42494 0.55855 0.74085 0.0
C2813 C 0.39922 0.51458 0.80156 0.0
C2814 C 0.49285 0.62856 0.74069 0.0
C2815 C 0.47686 0.61561 0.74906 0.0
C2816 C 0.44925 0.58244 0.77234 0.0
C2817 C 0.40857 0.53881 0.77467 0.0
C2818 C 0.42263 0.55547 0.76542 0.0
C2819 C 0.46861 0.59923 0.73842 0.0
C2820 C 0.45205 0.58504 0.74774 0.0
H2821 H 0.3665 0.5088 0.76489 0.0
H2822 H 0.38893 0.53682 0.75028 0.0
H2823 H 0.43316 0.56605 0.80013 0.0
H2824 H 0.4984 0.60594 0.69627 0.0
H2825 H 0.47098 0.58359 0.71099 0.0
C2826 C 0.88534 0.39735 0.80597 0.0
C2827 C 0.87943 0.38248 0.79193 0.0
C2828 C 0.88286 0.41081 0.79874 0.0
C2829 C 0.8765 0.43018 0.74523 0.0
H2830 H 0.86376 0.45486 0.78975 0.0
C2831 C 0.86768 0.48562 0.71305 0.0
C2832 C 0.87489 0.50053 0.72703 0.0
C2833 C 0.86575 0.47031 0.72205 0.0
C2834 C 0.86747 0.4482 0.77714 0.0
H2835 H 0.86612 0.37015 0.75925 0.0
H2836 H 0.86187 0.39376 0.74658 0.0
H2837 H 0.86518 0.42972 0.80315 0.0
H2838 H 0.88492 0.51098 0.76184 0.0
H2839 H 0.88198 0.48424 0.7776 0.0
H2840 H 0.8793 0.44878 0.71939 0.0
C2841 C 0.86847 0.39494 0.76321 0.0
C2842 C 0.86824 0.43377 0.7848 0.0
C2843 C 0.87085 0.38139 0.77052 0.0
C2844 C 0.87928 0.49963 0.75072 0.0
C2845 C 0.87756 0.48429 0.75971 0.0
C2846 C 0.87583 0.44462 0.73762 0.0
C2847 C 0.87452 0.40984 0.7772 0.0
C2848 C 0.87283 0.42465 0.76894 0.0
C2849 C 0.87124 0.46957 0.74521 0.0
C2850 C 0.87133 0.45385 0.75346 0.0
H2851 H 0.8921 0.39874 0.82251 0.0
H2852 H 0.88789 0.4222 0.80975 0.0
H2853 H 0.88039 0.42363 0.73268 0.0
H2854 H 0.86379 0.48586 0.69494 0.0
H2855 H 0.86031 0.45912 0.71061 0.0
loop_
_geom_bond_atom_site_label_1
_geom_bond_atom_site_label_2
_geom_bond_distance
_geom_bond_site_symmetry_2
_ccdc_geom_bond_type
Co0 O2 2.143 . S
Co0 O8 2.074 . S
Co0 O11 2.093 . S
Co0 O24 2.097 . S
Co0 N41 2.151 . S
Co0 N49 2.214 . S
Co1 O2 2.160 . S
Co1 O7 2.058 . S
Co1 O17 2.057 . S
Co1 O32 2.037 . S
Co1 N36 2.145 . S
Co1 N57 2.257 . S
O2 Co0 2.143 . S
O2 Co1 2.160 . S
C3 O4 1.278 . S
C3 O11 1.224 . S
O4 C3 1.278 . S
C5 O6 1.245 . S
C5 O17 1.232 . S
O6 C5 1.245 . S
O7 Co1 2.058 . S
O7 C33 1.269 . S
O8 Co0 2.074 . S
O8 C33 1.257 . S
H9 C34 0.930 . S
H10 C40 0.930 . S
O11 Co0 2.093 . S
O11 C3 1.224 . S
H12 C44 0.929 . S
H13 C46 0.930 . S
H14 C47 0.930 . S
H15 C45 0.929 . S
H16 C48 0.928 . S
O17 Co1 2.057 . S
O17 C5 1.232 . S
H18 C37 0.929 . S
H19 C38 0.929 . S
H20 C50 0.931 . S
H21 C42 0.929 . S
H22 C51 0.930 . S
H23 C43 0.931 . S
O24 Co0 2.097 . S
O24 C52 1.214 . S
H25 C53 0.929 . S
H26 C54 0.929 . S
H27 C55 0.930 . S
H28 C56 0.929 . S
H29 C58 0.930 . S
H30 C35 0.930 . S
H31 C39 0.930 . S
O32 Co1 2.037 . S
O32 C52 1.234 . S
C33 O7 1.269 . S
C33 O8 1.257 . S
C34 H9 0.930 . S
C34 C37 1.388 . S
C34 C39 1.418 . S
C35 H30 0.930 . S
C35 C38 1.404 . S
C35 C39 1.353 . S
N36 Co1 2.145 . S
N36 C37 1.397 . S
N36 C38 1.334 . S
C37 H18 0.929 . S
C37 C34 1.388 . S
C37 N36 1.397 . S
C38 H19 0.929 . S
C38 C35 1.404 . S
C38 N36 1.334 . S
C39 H31 0.930 . S
C39 C34 1.418 . S
C39 C35 1.353 . S
C40 H10 0.930 . S
C40 N41 1.330 . S
C40 C42 1.446 . S
N41 Co0 2.151 . S
N41 C40 1.330 . S
N41 C45 1.418 . S
C42 H21 0.929 . S
C42 C40 1.446 . S
C42 C43 1.332 . S
C43 H23 0.931 . S
C43 C42 1.332 . S
C43 C44 1.267 . S
C44 H12 0.929 . S
C44 C43 1.267 . S
C44 C45 1.251 . S
C45 H15 0.929 . S
C45 N41 1.418 . S
C45 C44 1.251 . S
C46 H13 0.930 . S
C46 C48 1.406 . S
C46 C51 1.261 . S
C47 H14 0.930 . S
C47 N49 1.325 . S
C47 C50 1.357 . S
C48 H16 0.928 . S
C48 C46 1.406 . S
C48 N49 1.261 . S
N49 Co0 2.214 . S
N49 C47 1.325 . S
N49 C48 1.261 . S
C50 H20 0.931 . S
C50 C47 1.357 . S
C50 C51 1.312 . S
C51 H22 0.930 . S
C51 C46 1.261 . S
C51 C50 1.312 . S
C52 O24 1.214 . S
C52 O32 1.234 . S
C53 H25 0.929 . S
C53 C56 1.391 . S
C53 C58 1.391 . S
C54 H26 0.929 . S
C54 C55 1.390 . S
C54 N57 1.391 . S
C55 H27 0.930 . S
C55 C54 1.390 . S
C55 C56 1.392 . S
C56 H28 0.929 . S
C56 C53 1.391 . S
C56 C55 1.392 . S
N57 Co1 2.257 . S
N57 C54 1.391 . S
N57 C58 1.388 . S
C58 H29 0.930 . S
C58 C53 1.391 . S
C58 N57 1.388 . S
Co59 O61 2.143 . S
Co59 O67 2.074 . S
Co59 O70 2.093 . S
Co59 O83 2.097 . S
Co59 N100 2.151 . S
Co59 N108 2.214 . S
Co60 O61 2.160 . S
Co60 O66 2.058 . S
Co60 O76 2.057 . S
Co60 O91 2.037 . S
Co60 N95 2.145 . S
Co60 N116 2.257 . S
O61 Co59 2.143 . S
O61 Co60 2.160 . S
C62 O63 1.278 . S
C62 O70 1.224 . S
O63 C62 1.278 . S
C64 O65 1.245 . S
C64 O76 1.232 . S
O65 C64 1.245 . S
O66 Co60 2.058 . S
O66 C92 1.269 . S
O67 Co59 2.074 . S
O67 C92 1.257 . S
H68 C93 0.930 . S
H69 C99 0.930 . S
O70 Co59 2.093 . S
O70 C62 1.224 . S
H71 C103 0.929 . S
H72 C105 0.930 . S
H73 C106 0.930 . S
H74 C104 0.929 . S
H75 C107 0.928 . S
O76 Co60 2.057 . S
O76 C64 1.232 . S
H77 C96 0.929 . S
H78 C97 0.929 . S
H79 C109 0.931 . S
H80 C101 0.929 . S
H81 C110 0.930 . S
H82 C102 0.931 . S
O83 Co59 2.097 . S
O83 C111 1.214 . S
H84 C112 0.929 . S
H85 C113 0.929 . S
H86 C114 0.930 . S
H87 C115 0.929 . S
H88 C117 0.930 . S
H89 C94 0.930 . S
H90 C98 0.930 . S
O91 Co60 2.037 . S
O91 C111 1.234 . S
C92 O66 1.269 . S
C92 O67 1.257 . S
C93 H68 0.930 . S
C93 C96 1.388 . S
C93 C98 1.418 . S
C94 H89 0.930 . S
C94 C97 1.404 . S
C94 C98 1.353 . S
N95 Co60 2.145 . S
N95 C96 1.397 . S
N95 C97 1.334 . S
C96 H77 0.929 . S
C96 C93 1.388 . S
C96 N95 1.397 . S
C97 H78 0.929 . S
C97 C94 1.404 . S
C97 N95 1.334 . S
C98 H90 0.930 . S
C98 C93 1.418 . S
C98 C94 1.353 . S
C99 H69 0.930 . S
C99 N100 1.330 . S
C99 C101 1.446 . S
N100 Co59 2.151 . S
N100 C99 1.330 . S
N100 C104 1.418 . S
C101 H80 0.929 . S
C101 C99 1.446 . S
C101 C102 1.332 . S
C102 H82 0.931 . S
C102 C101 1.332 . S
C102 C103 1.267 . S
C103 H71 0.929 . S
C103 C102 1.267 . S
C103 C104 1.251 . S
C104 H74 0.929 . S
C104 N100 1.418 . S
C104 C103 1.251 . S
C105 H72 0.930 . S
C105 C107 1.406 . S
C105 C110 1.261 . S
C106 H73 0.930 . S
C106 N108 1.325 . S
C106 C109 1.357 . S
C107 H75 0.928 . S
C107 C105 1.406 . S
C107 N108 1.261 . S
N108 Co59 2.214 . S
N108 C106 1.325 . S
N108 C107 1.261 . S
C109 H79 0.931 . S
C109 C106 1.357 . S
C109 C110 1.312 . S
C110 H81 0.930 . S
C110 C105 1.261 . S
C110 C109 1.312 . S
C111 O83 1.214 . S
C111 O91 1.234 . S
C112 H84 0.929 . S
C112 C115 1.391 . S
C112 C117 1.391 . S
C113 H85 0.929 . S
C113 C114 1.390 . S
C113 N116 1.391 . S
C114 H86 0.930 . S
C114 C113 1.390 . S
C114 C115 1.392 . S
C115 H87 0.929 . S
C115 C112 1.391 . S
C115 C114 1.392 . S
N116 Co60 2.257 . S
N116 C113 1.391 . S
N116 C117 1.388 . S
C117 H88 0.930 . S
C117 C112 1.391 . S
C117 N116 1.388 . S
Co118 O120 2.143 . S
Co118 O126 2.074 . S
Co118 O129 2.093 . S
Co118 O142 2.097 . S
Co118 N159 2.151 . S
Co118 N167 2.214 . S
Co119 O120 2.160 . S
Co119 O125 2.058 . S
Co119 O135 2.057 . S
Co119 O150 2.037 . S
Co119 N154 2.145 . S
Co119 N175 2.257 . S
O120 Co118 2.143 . S
O120 Co119 2.160 . S
C121 O122 1.278 . S
C121 O129 1.224 . S
O122 C121 1.278 . S
C123 O124 1.245 . S
C123 O135 1.232 . S
O124 C123 1.245 . S
O125 Co119 2.058 . S
O125 C151 1.269 . S
O126 Co118 2.074 . S
O126 C151 1.257 . S
H127 C152 0.930 . S
H128 C158 0.930 . S
O129 Co118 2.093 . S
O129 C121 1.224 . S
H130 C162 0.929 . S
H131 C164 0.930 . S
H132 C165 0.930 . S
H133 C163 0.929 . S
H134 C166 0.928 . S
O135 Co119 2.057 . S
O135 C123 1.232 . S
H136 C155 0.929 . S
H137 C156 0.929 . S
H138 C168 0.931 . S
H139 C160 0.929 . S
H140 C169 0.930 . S
H141 C161 0.931 . S
O142 Co118 2.097 . S
O142 C170 1.214 . S
H143 C171 0.929 . S
H144 C172 0.929 . S
H145 C173 0.930 . S
H146 C174 0.929 . S
H147 C176 0.930 . S
H148 C153 0.930 . S
H149 C157 0.930 . S
O150 Co119 2.037 . S
O150 C170 1.234 . S
C151 O125 1.269 . S
C151 O126 1.257 . S
C152 H127 0.930 . S
C152 C155 1.388 . S
C152 C157 1.418 . S
C153 H148 0.930 . S
C153 C156 1.404 . S
C153 C157 1.353 . S
N154 Co119 2.145 . S
N154 C155 1.397 . S
N154 C156 1.334 . S
C155 H136 0.929 . S
C155 C152 1.388 . S
C155 N154 1.397 . S
C156 H137 0.929 . S
C156 C153 1.404 . S
C156 N154 1.334 . S
C157 H149 0.930 . S
C157 C152 1.418 . S
C157 C153 1.353 . S
C158 H128 0.930 . S
C158 N159 1.330 . S
C158 C160 1.446 . S
N159 Co118 2.151 . S
N159 C158 1.330 . S
N159 C163 1.418 . S
C160 H139 0.929 . S
C160 C158 1.446 . S
C160 C161 1.332 . S
C161 H141 0.931 . S
C161 C160 1.332 . S
C161 C162 1.267 . S
C162 H130 0.929 . S
C162 C161 1.267 . S
C162 C163 1.251 . S
C163 H133 0.929 . S
C163 N159 1.418 . S
C163 C162 1.251 . S
C164 H131 0.930 . S
C164 C166 1.406 . S
C164 C169 1.261 . S
C165 H132 0.930 . S
C165 N167 1.325 . S
C165 C168 1.357 . S
C166 H134 0.928 . S
C166 C164 1.406 . S
C166 N167 1.261 . S
N167 Co118 2.214 . S
N167 C165 1.325 . S
N167 C166 1.261 . S
C168 H138 0.931 . S
C168 C165 1.357 . S
C168 C169 1.312 . S
C169 H140 0.930 . S
C169 C164 1.261 . S
C169 C168 1.312 . S
C170 O142 1.214 . S
C170 O150 1.234 . S
C171 H143 0.929 . S
C171 C174 1.391 . S
C171 C176 1.391 . S
C172 H144 0.929 . S
C172 C173 1.390 . S
C172 N175 1.391 . S
C173 H145 0.930 . S
C173 C172 1.390 . S
C173 C174 1.392 . S
C174 H146 0.929 . S
C174 C171 1.391 . S
C174 C173 1.392 . S
N175 Co119 2.257 . S
N175 C172 1.391 . S
N175 C176 1.388 . S
C176 H147 0.930 . S
C176 C171 1.391 . S
C176 N175 1.388 . S
Co177 O179 2.143 . S
Co177 O185 2.074 . S
Co177 O188 2.093 . S
Co177 O201 2.097 . S
Co177 N218 2.151 . S
Co177 N226 2.214 . S
Co178 O179 2.160 . S
Co178 O184 2.058 . S
Co178 O194 2.057 . S
Co178 O209 2.037 . S
Co178 N213 2.145 . S
Co178 N234 2.257 . S
O179 Co177 2.143 . S
O179 Co178 2.160 . S
C180 O181 1.278 . S
C180 O188 1.224 . S
O181 C180 1.278 . S
C182 O183 1.245 . S
C182 O194 1.232 . S
O183 C182 1.245 . S
O184 Co178 2.058 . S
O184 C210 1.269 . S
O185 Co177 2.074 . S
O185 C210 1.257 . S
H186 C211 0.930 . S
H187 C217 0.930 . S
O188 Co177 2.093 . S
O188 C180 1.224 . S
H189 C221 0.929 . S
H190 C223 0.930 . S
H191 C224 0.930 . S
H192 C222 0.929 . S
H193 C225 0.928 . S
O194 Co178 2.057 . S
O194 C182 1.232 . S
H195 C214 0.929 . S
H196 C215 0.929 . S
H197 C227 0.931 . S
H198 C219 0.929 . S
H199 C228 0.930 . S
H200 C220 0.931 . S
O201 Co177 2.097 . S
O201 C229 1.214 . S
H202 C230 0.929 . S
H203 C231 0.929 . S
H204 C232 0.930 . S
H205 C233 0.929 . S
H206 C235 0.930 . S
H207 C212 0.930 . S
H208 C216 0.930 . S
O209 Co178 2.037 . S
O209 C229 1.234 . S
C210 O184 1.269 . S
C210 O185 1.257 . S
C211 H186 0.930 . S
C211 C214 1.388 . S
C211 C216 1.418 . S
C212 H207 0.930 . S
C212 C215 1.404 . S
C212 C216 1.353 . S
N213 Co178 2.145 . S
N213 C214 1.397 . S
N213 C215 1.334 . S
C214 H195 0.929 . S
C214 C211 1.388 . S
C214 N213 1.397 . S
C215 H196 0.929 . S
C215 C212 1.404 . S
C215 N213 1.334 . S
C216 H208 0.930 . S
C216 C211 1.418 . S
C216 C212 1.353 . S
C217 H187 0.930 . S
C217 N218 1.330 . S
C217 C219 1.446 . S
N218 Co177 2.151 . S
N218 C217 1.330 . S
N218 C222 1.418 . S
C219 H198 0.929 . S
C219 C217 1.446 . S
C219 C220 1.332 . S
C220 H200 0.931 . S
C220 C219 1.332 . S
C220 C221 1.267 . S
C221 H189 0.929 . S
C221 C220 1.267 . S
C221 C222 1.251 . S
C222 H192 0.929 . S
C222 N218 1.418 . S
C222 C221 1.251 . S
C223 H190 0.930 . S
C223 C225 1.406 . S
C223 C228 1.261 . S
C224 H191 0.930 . S
C224 N226 1.325 . S
C224 C227 1.357 . S
C225 H193 0.928 . S
C225 C223 1.406 . S
C225 N226 1.261 . S
N226 Co177 2.214 . S
N226 C224 1.325 . S
N226 C225 1.261 . S
C227 H197 0.931 . S
C227 C224 1.357 . S
C227 C228 1.312 . S
C228 H199 0.930 . S
C228 C223 1.261 . S
C228 C227 1.312 . S
C229 O201 1.214 . S
C229 O209 1.234 . S
C230 H202 0.929 . S
C230 C233 1.391 . S
C230 C235 1.391 . S
C231 H203 0.929 . S
C231 C232 1.390 . S
C231 N234 1.391 . S
C232 H204 0.930 . S
C232 C231 1.390 . S
C232 C233 1.392 . S
C233 H205 0.929 . S
C233 C230 1.391 . S
C233 C232 1.392 . S
N234 Co178 2.257 . S
N234 C231 1.391 . S
N234 C235 1.388 . S
C235 H206 0.930 . S
C235 C230 1.391 . S
C235 N234 1.388 . S
Co236 O238 2.143 . S
Co236 O244 2.074 . S
Co236 O247 2.093 . S
Co236 O260 2.097 . S
Co236 N277 2.151 . S
Co236 N285 2.214 . S
Co237 O238 2.160 . S
Co237 O243 2.058 . S
Co237 O253 2.057 . S
Co237 O268 2.037 . S
Co237 N272 2.145 . S
Co237 N293 2.257 . S
O238 Co236 2.143 . S
O238 Co237 2.160 . S
C239 O240 1.278 . S
C239 O247 1.224 . S
O240 C239 1.278 . S
C241 O242 1.245 . S
C241 O253 1.232 . S
O242 C241 1.245 . S
O243 Co237 2.058 . S
O243 C269 1.269 . S
O244 Co236 2.074 . S
O244 C269 1.257 . S
H245 C270 0.930 . S
H246 C276 0.930 . S
O247 Co236 2.093 . S
O247 C239 1.224 . S
H248 C280 0.929 . S
H249 C282 0.930 . S
H250 C283 0.930 . S
H251 C281 0.929 . S
H252 C284 0.928 . S
O253 Co237 2.057 . S
O253 C241 1.232 . S
H254 C273 0.929 . S
H255 C274 0.929 . S
H256 C286 0.931 . S
H257 C278 0.929 . S
H258 C287 0.930 . S
H259 C279 0.931 . S
O260 Co236 2.097 . S
O260 C288 1.214 . S
H261 C289 0.929 . S
H262 C290 0.929 . S
H263 C291 0.930 . S
H264 C292 0.929 . S
H265 C294 0.930 . S
H266 C271 0.930 . S
H267 C275 0.930 . S
O268 Co237 2.037 . S
O268 C288 1.234 . S
C269 O243 1.269 . S
C269 O244 1.257 . S
C270 H245 0.930 . S
C270 C273 1.388 . S
C270 C275 1.418 . S
C271 H266 0.930 . S
C271 C274 1.404 . S
C271 C275 1.353 . S
N272 Co237 2.145 . S
N272 C273 1.397 . S
N272 C274 1.334 . S
C273 H254 0.929 . S
C273 C270 1.388 . S
C273 N272 1.397 . S
C274 H255 0.929 . S
C274 C271 1.404 . S
C274 N272 1.334 . S
C275 H267 0.930 . S
C275 C270 1.418 . S
C275 C271 1.353 . S
C276 H246 0.930 . S
C276 N277 1.330 . S
C276 C278 1.446 . S
N277 Co236 2.151 . S
N277 C276 1.330 . S
N277 C281 1.418 . S
C278 H257 0.929 . S
C278 C276 1.446 . S
C278 C279 1.332 . S
C279 H259 0.931 . S
C279 C278 1.332 . S
C279 C280 1.267 . S
C280 H248 0.929 . S
C280 C279 1.267 . S
C280 C281 1.251 . S
C281 H251 0.929 . S
C281 N277 1.418 . S
C281 C280 1.251 . S
C282 H249 0.930 . S
C282 C284 1.406 . S
C282 C287 1.261 . S
C283 H250 0.930 . S
C283 N285 1.325 . S
C283 C286 1.357 . S
C284 H252 0.928 . S
C284 C282 1.406 . S
C284 N285 1.261 . S
N285 Co236 2.214 . S
N285 C283 1.325 . S
N285 C284 1.261 . S
C286 H256 0.931 . S
C286 C283 1.357 . S
C286 C287 1.312 . S
C287 H258 0.930 . S
C287 C282 1.261 . S
C287 C286 1.312 . S
C288 O260 1.214 . S
C288 O268 1.234 . S
C289 H261 0.929 . S
C289 C292 1.391 . S
C289 C294 1.391 . S
C290 H262 0.929 . S
C290 C291 1.390 . S
C290 N293 1.391 . S
C291 H263 0.930 . S
C291 C290 1.390 . S
C291 C292 1.392 . S
C292 H264 0.929 . S
C292 C289 1.391 . S
C292 C291 1.392 . S
N293 Co237 2.257 . S
N293 C290 1.391 . S
N293 C294 1.388 . S
C294 H265 0.930 . S
C294 C289 1.391 . S
C294 N293 1.388 . S
Co295 O297 2.143 . S
Co295 O303 2.074 . S
Co295 O306 2.093 . S
Co295 O319 2.097 . S
Co295 N336 2.151 . S
Co295 N344 2.214 . S
Co296 O297 2.160 . S
Co296 O302 2.058 . S
Co296 O312 2.057 . S
Co296 O327 2.037 . S
Co296 N331 2.145 . S
Co296 N352 2.257 . S
O297 Co295 2.143 . S
O297 Co296 2.160 . S
C298 O299 1.278 . S
C298 O306 1.224 . S
O299 C298 1.278 . S
C300 O301 1.245 . S
C300 O312 1.232 . S
O301 C300 1.245 . S
O302 Co296 2.058 . S
O302 C328 1.269 . S
O303 Co295 2.074 . S
O303 C328 1.257 . S
H304 C329 0.930 . S
H305 C335 0.930 . S
O306 Co295 2.093 . S
O306 C298 1.224 . S
H307 C339 0.929 . S
H308 C341 0.930 . S
H309 C342 0.930 . S
H310 C340 0.929 . S
H311 C343 0.928 . S
O312 Co296 2.057 . S
O312 C300 1.232 . S
H313 C332 0.929 . S
H314 C333 0.929 . S
H315 C345 0.931 . S
H316 C337 0.929 . S
H317 C346 0.930 . S
H318 C338 0.931 . S
O319 Co295 2.097 . S
O319 C347 1.214 . S
H320 C348 0.929 . S
H321 C349 0.929 . S
H322 C350 0.930 . S
H323 C351 0.929 . S
H324 C353 0.930 . S
H325 C330 0.930 . S
H326 C334 0.930 . S
O327 Co296 2.037 . S
O327 C347 1.234 . S
C328 O302 1.269 . S
C328 O303 1.257 . S
C329 H304 0.930 . S
C329 C332 1.388 . S
C329 C334 1.418 . S
C330 H325 0.930 . S
C330 C333 1.404 . S
C330 C334 1.353 . S
N331 Co296 2.145 . S
N331 C332 1.397 . S
N331 C333 1.334 . S
C332 H313 0.929 . S
C332 C329 1.388 . S
C332 N331 1.397 . S
C333 H314 0.929 . S
C333 C330 1.404 . S
C333 N331 1.334 . S
C334 H326 0.930 . S
C334 C329 1.418 . S
C334 C330 1.353 . S
C335 H305 0.930 . S
C335 N336 1.330 . S
C335 C337 1.446 . S
N336 Co295 2.151 . S
N336 C335 1.330 . S
N336 C340 1.418 . S
C337 H316 0.929 . S
C337 C335 1.446 . S
C337 C338 1.332 . S
C338 H318 0.931 . S
C338 C337 1.332 . S
C338 C339 1.267 . S
C339 H307 0.929 . S
C339 C338 1.267 . S
C339 C340 1.251 . S
C340 H310 0.929 . S
C340 N336 1.418 . S
C340 C339 1.251 . S
C341 H308 0.930 . S
C341 C343 1.406 . S
C341 C346 1.261 . S
C342 H309 0.930 . S
C342 N344 1.325 . S
C342 C345 1.357 . S
C343 H311 0.928 . S
C343 C341 1.406 . S
C343 N344 1.261 . S
N344 Co295 2.214 . S
N344 C342 1.325 . S
N344 C343 1.261 . S
C345 H315 0.931 . S
C345 C342 1.357 . S
C345 C346 1.312 . S
C346 H317 0.930 . S
C346 C341 1.261 . S
C346 C345 1.312 . S
C347 O319 1.214 . S
C347 O327 1.234 . S
C348 H320 0.929 . S
C348 C351 1.391 . S
C348 C353 1.391 . S
C349 H321 0.929 . S
C349 C350 1.390 . S
C349 N352 1.391 . S
C350 H322 0.930 . S
C350 C349 1.390 . S
C350 C351 1.392 . S
C351 H323 0.929 . S
C351 C348 1.391 . S
C351 C350 1.392 . S
N352 Co296 2.257 . S
N352 C349 1.391 . S
N352 C353 1.388 . S
C353 H324 0.930 . S
C353 C348 1.391 . S
C353 N352 1.388 . S
Co354 O356 2.143 . S
Co354 O362 2.074 . S
Co354 O365 2.093 . S
Co354 O378 2.097 . S
Co354 N395 2.151 . S
Co354 N403 2.214 . S
Co355 O356 2.160 . S
Co355 O361 2.058 . S
Co355 O371 2.057 . S
Co355 O386 2.037 . S
Co355 N390 2.145 . S
Co355 N411 2.257 . S
O356 Co354 2.143 . S
O356 Co355 2.160 . S
C357 O358 1.278 . S
C357 O365 1.224 . S
O358 C357 1.278 . S
C359 O360 1.245 . S
C359 O371 1.232 . S
O360 C359 1.245 . S
O361 Co355 2.058 . S
O361 C387 1.269 . S
O362 Co354 2.074 . S
O362 C387 1.257 . S
H363 C388 0.930 . S
H364 C394 0.930 . S
O365 Co354 2.093 . S
O365 C357 1.224 . S
H366 C398 0.929 . S
H367 C400 0.930 . S
H368 C401 0.930 . S
H369 C399 0.929 . S
H370 C402 0.928 . S
O371 Co355 2.057 . S
O371 C359 1.232 . S
H372 C391 0.929 . S
H373 C392 0.929 . S
H374 C404 0.931 . S
H375 C396 0.929 . S
H376 C405 0.930 . S
H377 C397 0.931 . S
O378 Co354 2.097 . S
O378 C406 1.214 . S
H379 C407 0.929 . S
H380 C408 0.929 . S
H381 C409 0.930 . S
H382 C410 0.929 . S
H383 C412 0.930 . S
H384 C389 0.930 . S
H385 C393 0.930 . S
O386 Co355 2.037 . S
O386 C406 1.234 . S
C387 O361 1.269 . S
C387 O362 1.257 . S
C388 H363 0.930 . S
C388 C391 1.388 . S
C388 C393 1.418 . S
C389 H384 0.930 . S
C389 C392 1.404 . S
C389 C393 1.353 . S
N390 Co355 2.145 . S
N390 C391 1.397 . S
N390 C392 1.334 . S
C391 H372 0.929 . S
C391 C388 1.388 . S
C391 N390 1.397 . S
C392 H373 0.929 . S
C392 C389 1.404 . S
C392 N390 1.334 . S
C393 H385 0.930 . S
C393 C388 1.418 . S
C393 C389 1.353 . S
C394 H364 0.930 . S
C394 N395 1.330 . S
C394 C396 1.446 . S
N395 Co354 2.151 . S
N395 C394 1.330 . S
N395 C399 1.418 . S
C396 H375 0.929 . S
C396 C394 1.446 . S
C396 C397 1.332 . S
C397 H377 0.931 . S
C397 C396 1.332 . S
C397 C398 1.267 . S
C398 H366 0.929 . S
C398 C397 1.267 . S
C398 C399 1.251 . S
C399 H369 0.929 . S
C399 N395 1.418 . S
C399 C398 1.251 . S
C400 H367 0.930 . S
C400 C402 1.406 . S
C400 C405 1.261 . S
C401 H368 0.930 . S
C401 N403 1.325 . S
C401 C404 1.357 . S
C402 H370 0.928 . S
C402 C400 1.406 . S
C402 N403 1.261 . S
N403 Co354 2.214 . S
N403 C401 1.325 . S
N403 C402 1.261 . S
C404 H374 0.931 . S
C404 C401 1.357 . S
C404 C405 1.312 . S
C405 H376 0.930 . S
C405 C400 1.261 . S
C405 C404 1.312 . S
C406 O378 1.214 . S
C406 O386 1.234 . S
C407 H379 0.929 . S
C407 C410 1.391 . S
C407 C412 1.391 . S
C408 H380 0.929 . S
C408 C409 1.390 . S
C408 N411 1.391 . S
C409 H381 0.930 . S
C409 C408 1.390 . S
C409 C410 1.392 . S
C410 H382 0.929 . S
C410 C407 1.391 . S
C410 C409 1.392 . S
N411 Co355 2.257 . S
N411 C408 1.391 . S
N411 C412 1.388 . S
C412 H383 0.930 . S
C412 C407 1.391 . S
C412 N411 1.388 . S
Co413 O415 2.143 . S
Co413 O421 2.074 . S
Co413 O424 2.093 . S
Co413 O437 2.097 . S
Co413 N454 2.151 . S
Co413 N462 2.214 . S
Co414 O415 2.160 . S
Co414 O420 2.058 . S
Co414 O430 2.057 . S
Co414 O445 2.037 . S
Co414 N449 2.145 . S
Co414 N470 2.257 . S
O415 Co413 2.143 . S
O415 Co414 2.160 . S
C416 O417 1.278 . S
C416 O424 1.224 . S
O417 C416 1.278 . S
C418 O419 1.245 . S
C418 O430 1.232 . S
O419 C418 1.245 . S
O420 Co414 2.058 . S
O420 C446 1.269 . S
O421 Co413 2.074 . S
O421 C446 1.257 . S
H422 C447 0.930 . S
H423 C453 0.930 . S
O424 Co413 2.093 . S
O424 C416 1.224 . S
H425 C457 0.929 . S
H426 C459 0.930 . S
H427 C460 0.930 . S
H428 C458 0.929 . S
H429 C461 0.928 . S
O430 Co414 2.057 . S
O430 C418 1.232 . S
H431 C450 0.929 . S
H432 C451 0.929 . S
H433 C463 0.931 . S
H434 C455 0.929 . S
H435 C464 0.930 . S
H436 C456 0.931 . S
O437 Co413 2.097 . S
O437 C465 1.214 . S
H438 C466 0.929 . S
H439 C467 0.929 . S
H440 C468 0.930 . S
H441 C469 0.929 . S
H442 C471 0.930 . S
H443 C448 0.930 . S
H444 C452 0.930 . S
O445 Co414 2.037 . S
O445 C465 1.234 . S
C446 O420 1.269 . S
C446 O421 1.257 . S
C447 H422 0.930 . S
C447 C450 1.388 . S
C447 C452 1.418 . S
C448 H443 0.930 . S
C448 C451 1.404 . S
C448 C452 1.353 . S
N449 Co414 2.145 . S
N449 C450 1.397 . S
N449 C451 1.334 . S
C450 H431 0.929 . S
C450 C447 1.388 . S
C450 N449 1.397 . S
C451 H432 0.929 . S
C451 C448 1.404 . S
C451 N449 1.334 . S
C452 H444 0.930 . S
C452 C447 1.418 . S
C452 C448 1.353 . S
C453 H423 0.930 . S
C453 N454 1.330 . S
C453 C455 1.446 . S
N454 Co413 2.151 . S
N454 C453 1.330 . S
N454 C458 1.418 . S
C455 H434 0.929 . S
C455 C453 1.446 . S
C455 C456 1.332 . S
C456 H436 0.931 . S
C456 C455 1.332 . S
C456 C457 1.267 . S
C457 H425 0.929 . S
C457 C456 1.267 . S
C457 C458 1.251 . S
C458 H428 0.929 . S
C458 N454 1.418 . S
C458 C457 1.251 . S
C459 H426 0.930 . S
C459 C461 1.406 . S
C459 C464 1.261 . S
C460 H427 0.930 . S
C460 N462 1.325 . S
C460 C463 1.357 . S
C461 H429 0.928 . S
C461 C459 1.406 . S
C461 N462 1.261 . S
N462 Co413 2.214 . S
N462 C460 1.325 . S
N462 C461 1.261 . S
C463 H433 0.931 . S
C463 C460 1.357 . S
C463 C464 1.312 . S
C464 H435 0.930 . S
C464 C459 1.261 . S
C464 C463 1.312 . S
C465 O437 1.214 . S
C465 O445 1.234 . S
C466 H438 0.929 . S
C466 C469 1.391 . S
C466 C471 1.391 . S
C467 H439 0.929 . S
C467 C468 1.390 . S
C467 N470 1.391 . S
C468 H440 0.930 . S
C468 C467 1.390 . S
C468 C469 1.392 . S
C469 H441 0.929 . S
C469 C466 1.391 . S
C469 C468 1.392 . S
N470 Co414 2.257 . S
N470 C467 1.391 . S
N470 C471 1.388 . S
C471 H442 0.930 . S
C471 C466 1.391 . S
C471 N470 1.388 . S
Co472 O474 2.143 . S
Co472 O480 2.074 . S
Co472 O483 2.093 . S
Co472 O496 2.097 . S
Co472 N513 2.151 . S
Co472 N521 2.214 . S
Co473 O474 2.160 . S
Co473 O479 2.058 . S
Co473 O489 2.057 . S
Co473 O504 2.037 . S
Co473 N508 2.145 . S
Co473 N529 2.257 . S
O474 Co472 2.143 . S
O474 Co473 2.160 . S
C475 O476 1.278 . S
C475 O483 1.224 . S
O476 C475 1.278 . S
C477 O478 1.245 . S
C477 O489 1.232 . S
O478 C477 1.245 . S
O479 Co473 2.058 . S
O479 C505 1.269 . S
O480 Co472 2.074 . S
O480 C505 1.257 . S
H481 C506 0.930 . S
H482 C512 0.930 . S
O483 Co472 2.093 . S
O483 C475 1.224 . S
H484 C516 0.929 . S
H485 C518 0.930 . S
H486 C519 0.930 . S
H487 C517 0.929 . S
H488 C520 0.928 . S
O489 Co473 2.057 . S
O489 C477 1.232 . S
H490 C509 0.929 . S
H491 C510 0.929 . S
H492 C522 0.931 . S
H493 C514 0.929 . S
H494 C523 0.930 . S
H495 C515 0.931 . S
O496 Co472 2.097 . S
O496 C524 1.214 . S
H497 C525 0.929 . S
H498 C526 0.929 . S
H499 C527 0.930 . S
H500 C528 0.929 . S
H501 C530 0.930 . S
H502 C507 0.930 . S
H503 C511 0.930 . S
O504 Co473 2.037 . S
O504 C524 1.234 . S
C505 O479 1.269 . S
C505 O480 1.257 . S
C506 H481 0.930 . S
C506 C509 1.388 . S
C506 C511 1.418 . S
C507 H502 0.930 . S
C507 C510 1.404 . S
C507 C511 1.353 . S
N508 Co473 2.145 . S
N508 C509 1.397 . S
N508 C510 1.334 . S
C509 H490 0.929 . S
C509 C506 1.388 . S
C509 N508 1.397 . S
C510 H491 0.929 . S
C510 C507 1.404 . S
C510 N508 1.334 . S
C511 H503 0.930 . S
C511 C506 1.418 . S
C511 C507 1.353 . S
C512 H482 0.930 . S
C512 N513 1.330 . S
C512 C514 1.446 . S
N513 Co472 2.151 . S
N513 C512 1.330 . S
N513 C517 1.418 . S
C514 H493 0.929 . S
C514 C512 1.446 . S
C514 C515 1.332 . S
C515 H495 0.931 . S
C515 C514 1.332 . S
C515 C516 1.267 . S
C516 H484 0.929 . S
C516 C515 1.267 . S
C516 C517 1.251 . S
C517 H487 0.929 . S
C517 N513 1.418 . S
C517 C516 1.251 . S
C518 H485 0.930 . S
C518 C520 1.406 . S
C518 C523 1.261 . S
C519 H486 0.930 . S
C519 N521 1.325 . S
C519 C522 1.357 . S
C520 H488 0.928 . S
C520 C518 1.406 . S
C520 N521 1.261 . S
N521 Co472 2.214 . S
N521 C519 1.325 . S
N521 C520 1.261 . S
C522 H492 0.931 . S
C522 C519 1.357 . S
C522 C523 1.312 . S
C523 H494 0.930 . S
C523 C518 1.261 . S
C523 C522 1.312 . S
C524 O496 1.214 . S
C524 O504 1.234 . S
C525 H497 0.929 . S
C525 C528 1.391 . S
C525 C530 1.391 . S
C526 H498 0.929 . S
C526 C527 1.390 . S
C526 N529 1.391 . S
C527 H499 0.930 . S
C527 C526 1.390 . S
C527 C528 1.392 . S
C528 H500 0.929 . S
C528 C525 1.391 . S
C528 C527 1.392 . S
N529 Co473 2.257 . S
N529 C526 1.391 . S
N529 C530 1.388 . S
C530 H501 0.930 . S
C530 C525 1.391 . S
C530 N529 1.388 . S
Co531 O533 2.143 . S
Co531 O539 2.074 . S
Co531 O542 2.093 . S
Co531 O555 2.097 . S
Co531 N572 2.151 . S
Co531 N580 2.214 . S
Co532 O533 2.160 . S
Co532 O538 2.058 . S
Co532 O548 2.057 . S
Co532 O563 2.037 . S
Co532 N567 2.145 . S
Co532 N588 2.257 . S
O533 Co531 2.143 . S
O533 Co532 2.160 . S
C534 O535 1.278 . S
C534 O542 1.224 . S
O535 C534 1.278 . S
C536 O537 1.245 . S
C536 O548 1.232 . S
O537 C536 1.245 . S
O538 Co532 2.058 . S
O538 C564 1.269 . S
O539 Co531 2.074 . S
O539 C564 1.257 . S
H540 C565 0.930 . S
H541 C571 0.930 . S
O542 Co531 2.093 . S
O542 C534 1.224 . S
H543 C575 0.929 . S
H544 C577 0.930 . S
H545 C578 0.930 . S
H546 C576 0.929 . S
H547 C579 0.928 . S
O548 Co532 2.057 . S
O548 C536 1.232 . S
H549 C568 0.929 . S
H550 C569 0.929 . S
H551 C581 0.931 . S
H552 C573 0.929 . S
H553 C582 0.930 . S
H554 C574 0.931 . S
O555 Co531 2.097 . S
O555 C583 1.214 . S
H556 C584 0.929 . S
H557 C585 0.929 . S
H558 C586 0.930 . S
H559 C587 0.929 . S
H560 C589 0.930 . S
H561 C566 0.930 . S
H562 C570 0.930 . S
O563 Co532 2.037 . S
O563 C583 1.234 . S
C564 O538 1.269 . S
C564 O539 1.257 . S
C565 H540 0.930 . S
C565 C568 1.388 . S
C565 C570 1.418 . S
C566 H561 0.930 . S
C566 C569 1.404 . S
C566 C570 1.353 . S
N567 Co532 2.145 . S
N567 C568 1.397 . S
N567 C569 1.334 . S
C568 H549 0.929 . S
C568 C565 1.388 . S
C568 N567 1.397 . S
C569 H550 0.929 . S
C569 C566 1.404 . S
C569 N567 1.334 . S
C570 H562 0.930 . S
C570 C565 1.418 . S
C570 C566 1.353 . S
C571 H541 0.930 . S
C571 N572 1.330 . S
C571 C573 1.446 . S
N572 Co531 2.151 . S
N572 C571 1.330 . S
N572 C576 1.418 . S
C573 H552 0.929 . S
C573 C571 1.446 . S
C573 C574 1.332 . S
C574 H554 0.931 . S
C574 C573 1.332 . S
C574 C575 1.267 . S
C575 H543 0.929 . S
C575 C574 1.267 . S
C575 C576 1.251 . S
C576 H546 0.929 . S
C576 N572 1.418 . S
C576 C575 1.251 . S
C577 H544 0.930 . S
C577 C579 1.406 . S
C577 C582 1.261 . S
C578 H545 0.930 . S
C578 N580 1.325 . S
C578 C581 1.357 . S
C579 H547 0.928 . S
C579 C577 1.406 . S
C579 N580 1.261 . S
N580 Co531 2.214 . S
N580 C578 1.325 . S
N580 C579 1.261 . S
C581 H551 0.931 . S
C581 C578 1.357 . S
C581 C582 1.312 . S
C582 H553 0.930 . S
C582 C577 1.261 . S
C582 C581 1.312 . S
C583 O555 1.214 . S
C583 O563 1.234 . S
C584 H556 0.929 . S
C584 C587 1.391 . S
C584 C589 1.391 . S
C585 H557 0.929 . S
C585 C586 1.390 . S
C585 N588 1.391 . S
C586 H558 0.930 . S
C586 C585 1.390 . S
C586 C587 1.392 . S
C587 H559 0.929 . S
C587 C584 1.391 . S
C587 C586 1.392 . S
N588 Co532 2.257 . S
N588 C585 1.391 . S
N588 C589 1.388 . S
C589 H560 0.930 . S
C589 C584 1.391 . S
C589 N588 1.388 . S
Co590 O592 2.143 . S
Co590 O598 2.074 . S
Co590 O601 2.093 . S
Co590 O614 2.097 . S
Co590 N631 2.151 . S
Co590 N639 2.214 . S
Co591 O592 2.160 . S
Co591 O597 2.058 . S
Co591 O607 2.057 . S
Co591 O622 2.037 . S
Co591 N626 2.145 . S
Co591 N647 2.257 . S
O592 Co590 2.143 . S
O592 Co591 2.160 . S
C593 O594 1.278 . S
C593 O601 1.224 . S
O594 C593 1.278 . S
C595 O596 1.245 . S
C595 O607 1.232 . S
O596 C595 1.245 . S
O597 Co591 2.058 . S
O597 C623 1.269 . S
O598 Co590 2.074 . S
O598 C623 1.257 . S
H599 C624 0.930 . S
H600 C630 0.930 . S
O601 Co590 2.093 . S
O601 C593 1.224 . S
H602 C634 0.929 . S
H603 C636 0.930 . S
H604 C637 0.930 . S
H605 C635 0.929 . S
H606 C638 0.928 . S
O607 Co591 2.057 . S
O607 C595 1.232 . S
H608 C627 0.929 . S
H609 C628 0.929 . S
H610 C640 0.931 . S
H611 C632 0.929 . S
H612 C641 0.930 . S
H613 C633 0.931 . S
O614 Co590 2.097 . S
O614 C642 1.214 . S
H615 C643 0.929 . S
H616 C644 0.929 . S
H617 C645 0.930 . S
H618 C646 0.929 . S
H619 C648 0.930 . S
H620 C625 0.930 . S
H621 C629 0.930 . S
O622 Co591 2.037 . S
O622 C642 1.234 . S
C623 O597 1.269 . S
C623 O598 1.257 . S
C624 H599 0.930 . S
C624 C627 1.388 . S
C624 C629 1.418 . S
C625 H620 0.930 . S
C625 C628 1.404 . S
C625 C629 1.353 . S
N626 Co591 2.145 . S
N626 C627 1.397 . S
N626 C628 1.334 . S
C627 H608 0.929 . S
C627 C624 1.388 . S
C627 N626 1.397 . S
C628 H609 0.929 . S
C628 C625 1.404 . S
C628 N626 1.334 . S
C629 H621 0.930 . S
C629 C624 1.418 . S
C629 C625 1.353 . S
C630 H600 0.930 . S
C630 N631 1.330 . S
C630 C632 1.446 . S
N631 Co590 2.151 . S
N631 C630 1.330 . S
N631 C635 1.418 . S
C632 H611 0.929 . S
C632 C630 1.446 . S
C632 C633 1.332 . S
C633 H613 0.931 . S
C633 C632 1.332 . S
C633 C634 1.267 . S
C634 H602 0.929 . S
C634 C633 1.267 . S
C634 C635 1.251 . S
C635 H605 0.929 . S
C635 N631 1.418 . S
C635 C634 1.251 . S
C636 H603 0.930 . S
C636 C638 1.406 . S
C636 C641 1.261 . S
C637 H604 0.930 . S
C637 N639 1.325 . S
C637 C640 1.357 . S
C638 H606 0.928 . S
C638 C636 1.406 . S
C638 N639 1.261 . S
N639 Co590 2.214 . S
N639 C637 1.325 . S
N639 C638 1.261 . S
C640 H610 0.931 . S
C640 C637 1.357 . S
C640 C641 1.312 . S
C641 H612 0.930 . S
C641 C636 1.261 . S
C641 C640 1.312 . S
C642 O614 1.214 . S
C642 O622 1.234 . S
C643 H615 0.929 . S
C643 C646 1.391 . S
C643 C648 1.391 . S
C644 H616 0.929 . S
C644 C645 1.390 . S
C644 N647 1.391 . S
C645 H617 0.930 . S
C645 C644 1.390 . S
C645 C646 1.392 . S
C646 H618 0.929 . S
C646 C643 1.391 . S
C646 C645 1.392 . S
N647 Co591 2.257 . S
N647 C644 1.391 . S
N647 C648 1.388 . S
C648 H619 0.930 . S
C648 C643 1.391 . S
C648 N647 1.388 . S
Co649 O651 2.143 . S
Co649 O657 2.074 . S
Co649 O660 2.093 . S
Co649 O673 2.097 . S
Co649 N690 2.151 . S
Co649 N698 2.214 . S
Co650 O651 2.160 . S
Co650 O656 2.058 . S
Co650 O666 2.057 . S
Co650 O681 2.037 . S
Co650 N685 2.145 . S
Co650 N706 2.257 . S
O651 Co649 2.143 . S
O651 Co650 2.160 . S
C652 O653 1.278 . S
C652 O660 1.224 . S
O653 C652 1.278 . S
C654 O655 1.245 . S
C654 O666 1.232 . S
O655 C654 1.245 . S
O656 Co650 2.058 . S
O656 C682 1.269 . S
O657 Co649 2.074 . S
O657 C682 1.257 . S
H658 C683 0.930 . S
H659 C689 0.930 . S
O660 Co649 2.093 . S
O660 C652 1.224 . S
H661 C693 0.929 . S
H662 C695 0.930 . S
H663 C696 0.930 . S
H664 C694 0.929 . S
H665 C697 0.928 . S
O666 Co650 2.057 . S
O666 C654 1.232 . S
H667 C686 0.929 . S
H668 C687 0.929 . S
H669 C699 0.931 . S
H670 C691 0.929 . S
H671 C700 0.930 . S
H672 C692 0.931 . S
O673 Co649 2.097 . S
O673 C701 1.214 . S
H674 C702 0.929 . S
H675 C703 0.929 . S
H676 C704 0.930 . S
H677 C705 0.929 . S
H678 C707 0.930 . S
H679 C684 0.930 . S
H680 C688 0.930 . S
O681 Co650 2.037 . S
O681 C701 1.234 . S
C682 O656 1.269 . S
C682 O657 1.257 . S
C683 H658 0.930 . S
C683 C686 1.388 . S
C683 C688 1.418 . S
C684 H679 0.930 . S
C684 C687 1.404 . S
C684 C688 1.353 . S
N685 Co650 2.145 . S
N685 C686 1.397 . S
N685 C687 1.334 . S
C686 H667 0.929 . S
C686 C683 1.388 . S
C686 N685 1.397 . S
C687 H668 0.929 . S
C687 C684 1.404 . S
C687 N685 1.334 . S
C688 H680 0.930 . S
C688 C683 1.418 . S
C688 C684 1.353 . S
C689 H659 0.930 . S
C689 N690 1.330 . S
C689 C691 1.446 . S
N690 Co649 2.151 . S
N690 C689 1.330 . S
N690 C694 1.418 . S
C691 H670 0.929 . S
C691 C689 1.446 . S
C691 C692 1.332 . S
C692 H672 0.931 . S
C692 C691 1.332 . S
C692 C693 1.267 . S
C693 H661 0.929 . S
C693 C692 1.267 . S
C693 C694 1.251 . S
C694 H664 0.929 . S
C694 N690 1.418 . S
C694 C693 1.251 . S
C695 H662 0.930 . S
C695 C697 1.406 . S
C695 C700 1.261 . S
C696 H663 0.930 . S
C696 N698 1.325 . S
C696 C699 1.357 . S
C697 H665 0.928 . S
C697 C695 1.406 . S
C697 N698 1.261 . S
N698 Co649 2.214 . S
N698 C696 1.325 . S
N698 C697 1.261 . S
C699 H669 0.931 . S
C699 C696 1.357 . S
C699 C700 1.312 . S
C700 H671 0.930 . S
C700 C695 1.261 . S
C700 C699 1.312 . S
C701 O673 1.214 . S
C701 O681 1.234 . S
C702 H674 0.929 . S
C702 C705 1.391 . S
C702 C707 1.391 . S
C703 H675 0.929 . S
C703 C704 1.390 . S
C703 N706 1.391 . S
C704 H676 0.930 . S
C704 C703 1.390 . S
C704 C705 1.392 . S
C705 H677 0.929 . S
C705 C702 1.391 . S
C705 C704 1.392 . S
N706 Co650 2.257 . S
N706 C703 1.391 . S
N706 C707 1.388 . S
C707 H678 0.930 . S
C707 C702 1.391 . S
C707 N706 1.388 . S
Co708 O710 2.143 . S
Co708 O716 2.074 . S
Co708 O719 2.093 . S
Co708 O732 2.097 . S
Co708 N749 2.151 . S
Co708 N757 2.214 . S
Co709 O710 2.160 . S
Co709 O715 2.058 . S
Co709 O725 2.057 . S
Co709 O740 2.037 . S
Co709 N744 2.145 . S
Co709 N765 2.257 . S
O710 Co708 2.143 . S
O710 Co709 2.160 . S
C711 O712 1.278 . S
C711 O719 1.224 . S
O712 C711 1.278 . S
C713 O714 1.245 . S
C713 O725 1.232 . S
O714 C713 1.245 . S
O715 Co709 2.058 . S
O715 C741 1.269 . S
O716 Co708 2.074 . S
O716 C741 1.257 . S
H717 C742 0.930 . S
H718 C748 0.930 . S
O719 Co708 2.093 . S
O719 C711 1.224 . S
H720 C752 0.929 . S
H721 C754 0.930 . S
H722 C755 0.930 . S
H723 C753 0.929 . S
H724 C756 0.928 . S
O725 Co709 2.057 . S
O725 C713 1.232 . S
H726 C745 0.929 . S
H727 C746 0.929 . S
H728 C758 0.931 . S
H729 C750 0.929 . S
H730 C759 0.930 . S
H731 C751 0.931 . S
O732 Co708 2.097 . S
O732 C760 1.214 . S
H733 C761 0.929 . S
H734 C762 0.929 . S
H735 C763 0.930 . S
H736 C764 0.929 . S
H737 C766 0.930 . S
H738 C743 0.930 . S
H739 C747 0.930 . S
O740 Co709 2.037 . S
O740 C760 1.234 . S
C741 O715 1.269 . S
C741 O716 1.257 . S
C742 H717 0.930 . S
C742 C745 1.388 . S
C742 C747 1.418 . S
C743 H738 0.930 . S
C743 C746 1.404 . S
C743 C747 1.353 . S
N744 Co709 2.145 . S
N744 C745 1.397 . S
N744 C746 1.334 . S
C745 H726 0.929 . S
C745 C742 1.388 . S
C745 N744 1.397 . S
C746 H727 0.929 . S
C746 C743 1.404 . S
C746 N744 1.334 . S
C747 H739 0.930 . S
C747 C742 1.418 . S
C747 C743 1.353 . S
C748 H718 0.930 . S
C748 N749 1.330 . S
C748 C750 1.446 . S
N749 Co708 2.151 . S
N749 C748 1.330 . S
N749 C753 1.418 . S
C750 H729 0.929 . S
C750 C748 1.446 . S
C750 C751 1.332 . S
C751 H731 0.931 . S
C751 C750 1.332 . S
C751 C752 1.267 . S
C752 H720 0.929 . S
C752 C751 1.267 . S
C752 C753 1.251 . S
C753 H723 0.929 . S
C753 N749 1.418 . S
C753 C752 1.251 . S
C754 H721 0.930 . S
C754 C756 1.406 . S
C754 C759 1.261 . S
C755 H722 0.930 . S
C755 N757 1.325 . S
C755 C758 1.357 . S
C756 H724 0.928 . S
C756 C754 1.406 . S
C756 N757 1.261 . S
N757 Co708 2.214 . S
N757 C755 1.325 . S
N757 C756 1.261 . S
C758 H728 0.931 . S
C758 C755 1.357 . S
C758 C759 1.312 . S
C759 H730 0.930 . S
C759 C754 1.261 . S
C759 C758 1.312 . S
C760 O732 1.214 . S
C760 O740 1.234 . S
C761 H733 0.929 . S
C761 C764 1.391 . S
C761 C766 1.391 . S
C762 H734 0.929 . S
C762 C763 1.390 . S
C762 N765 1.391 . S
C763 H735 0.930 . S
C763 C762 1.390 . S
C763 C764 1.392 . S
C764 H736 0.929 . S
C764 C761 1.391 . S
C764 C763 1.392 . S
N765 Co709 2.257 . S
N765 C762 1.391 . S
N765 C766 1.388 . S
C766 H737 0.930 . S
C766 C761 1.391 . S
C766 N765 1.388 . S
Co767 O769 2.143 . S
Co767 O775 2.074 . S
Co767 O778 2.093 . S
Co767 O791 2.097 . S
Co767 N808 2.151 . S
Co767 N816 2.214 . S
Co768 O769 2.160 . S
Co768 O774 2.058 . S
Co768 O784 2.057 . S
Co768 O799 2.037 . S
Co768 N803 2.145 . S
Co768 N824 2.257 . S
O769 Co767 2.143 . S
O769 Co768 2.160 . S
C770 O771 1.278 . S
C770 O778 1.224 . S
O771 C770 1.278 . S
C772 O773 1.245 . S
C772 O784 1.232 . S
O773 C772 1.245 . S
O774 Co768 2.058 . S
O774 C800 1.269 . S
O775 Co767 2.074 . S
O775 C800 1.257 . S
H776 C801 0.930 . S
H777 C807 0.930 . S
O778 Co767 2.093 . S
O778 C770 1.224 . S
H779 C811 0.929 . S
H780 C813 0.930 . S
H781 C814 0.930 . S
H782 C812 0.929 . S
H783 C815 0.928 . S
O784 Co768 2.057 . S
O784 C772 1.232 . S
H785 C804 0.929 . S
H786 C805 0.929 . S
H787 C817 0.931 . S
H788 C809 0.929 . S
H789 C818 0.930 . S
H790 C810 0.931 . S
O791 Co767 2.097 . S
O791 C819 1.214 . S
H792 C820 0.929 . S
H793 C821 0.929 . S
H794 C822 0.930 . S
H795 C823 0.929 . S
H796 C825 0.930 . S
H797 C802 0.930 . S
H798 C806 0.930 . S
O799 Co768 2.037 . S
O799 C819 1.234 . S
C800 O774 1.269 . S
C800 O775 1.257 . S
C801 H776 0.930 . S
C801 C804 1.388 . S
C801 C806 1.418 . S
C802 H797 0.930 . S
C802 C805 1.404 . S
C802 C806 1.353 . S
N803 Co768 2.145 . S
N803 C804 1.397 . S
N803 C805 1.334 . S
C804 H785 0.929 . S
C804 C801 1.388 . S
C804 N803 1.397 . S
C805 H786 0.929 . S
C805 C802 1.404 . S
C805 N803 1.334 . S
C806 H798 0.930 . S
C806 C801 1.418 . S
C806 C802 1.353 . S
C807 H777 0.930 . S
C807 N808 1.330 . S
C807 C809 1.446 . S
N808 Co767 2.151 . S
N808 C807 1.330 . S
N808 C812 1.418 . S
C809 H788 0.929 . S
C809 C807 1.446 . S
C809 C810 1.332 . S
C810 H790 0.931 . S
C810 C809 1.332 . S
C810 C811 1.267 . S
C811 H779 0.929 . S
C811 C810 1.267 . S
C811 C812 1.251 . S
C812 H782 0.929 . S
C812 N808 1.418 . S
C812 C811 1.251 . S
C813 H780 0.930 . S
C813 C815 1.406 . S
C813 C818 1.261 . S
C814 H781 0.930 . S
C814 N816 1.325 . S
C814 C817 1.357 . S
C815 H783 0.928 . S
C815 C813 1.406 . S
C815 N816 1.261 . S
N816 Co767 2.214 . S
N816 C814 1.325 . S
N816 C815 1.261 . S
C817 H787 0.931 . S
C817 C814 1.357 . S
C817 C818 1.312 . S
C818 H789 0.930 . S
C818 C813 1.261 . S
C818 C817 1.312 . S
C819 O791 1.214 . S
C819 O799 1.234 . S
C820 H792 0.929 . S
C820 C823 1.391 . S
C820 C825 1.391 . S
C821 H793 0.929 . S
C821 C822 1.390 . S
C821 N824 1.391 . S
C822 H794 0.930 . S
C822 C821 1.390 . S
C822 C823 1.392 . S
C823 H795 0.929 . S
C823 C820 1.391 . S
C823 C822 1.392 . S
N824 Co768 2.257 . S
N824 C821 1.391 . S
N824 C825 1.388 . S
C825 H796 0.930 . S
C825 C820 1.391 . S
C825 N824 1.388 . S
Co826 O828 2.143 . S
Co826 O834 2.074 . S
Co826 O837 2.093 . S
Co826 O850 2.097 . S
Co826 N867 2.151 . S
Co826 N875 2.214 . S
Co827 O828 2.160 . S
Co827 O833 2.058 . S
Co827 O843 2.057 . S
Co827 O858 2.037 . S
Co827 N862 2.145 . S
Co827 N883 2.257 . S
O828 Co826 2.143 . S
O828 Co827 2.160 . S
C829 O830 1.278 . S
C829 O837 1.224 . S
O830 C829 1.278 . S
C831 O832 1.245 . S
C831 O843 1.232 . S
O832 C831 1.245 . S
O833 Co827 2.058 . S
O833 C859 1.269 . S
O834 Co826 2.074 . S
O834 C859 1.257 . S
H835 C860 0.930 . S
H836 C866 0.930 . S
O837 Co826 2.093 . S
O837 C829 1.224 . S
H838 C870 0.929 . S
H839 C872 0.930 . S
H840 C873 0.930 . S
H841 C871 0.929 . S
H842 C874 0.928 . S
O843 Co827 2.057 . S
O843 C831 1.232 . S
H844 C863 0.929 . S
H845 C864 0.929 . S
H846 C876 0.931 . S
H847 C868 0.929 . S
H848 C877 0.930 . S
H849 C869 0.931 . S
O850 Co826 2.097 . S
O850 C878 1.214 . S
H851 C879 0.929 . S
H852 C880 0.929 . S
H853 C881 0.930 . S
H854 C882 0.929 . S
H855 C884 0.930 . S
H856 C861 0.930 . S
H857 C865 0.930 . S
O858 Co827 2.037 . S
O858 C878 1.234 . S
C859 O833 1.269 . S
C859 O834 1.257 . S
C860 H835 0.930 . S
C860 C863 1.388 . S
C860 C865 1.418 . S
C861 H856 0.930 . S
C861 C864 1.404 . S
C861 C865 1.353 . S
N862 Co827 2.145 . S
N862 C863 1.397 . S
N862 C864 1.334 . S
C863 H844 0.929 . S
C863 C860 1.388 . S
C863 N862 1.397 . S
C864 H845 0.929 . S
C864 C861 1.404 . S
C864 N862 1.334 . S
C865 H857 0.930 . S
C865 C860 1.418 . S
C865 C861 1.353 . S
C866 H836 0.930 . S
C866 N867 1.330 . S
C866 C868 1.446 . S
N867 Co826 2.151 . S
N867 C866 1.330 . S
N867 C871 1.418 . S
C868 H847 0.929 . S
C868 C866 1.446 . S
C868 C869 1.332 . S
C869 H849 0.931 . S
C869 C868 1.332 . S
C869 C870 1.267 . S
C870 H838 0.929 . S
C870 C869 1.267 . S
C870 C871 1.251 . S
C871 H841 0.929 . S
C871 N867 1.418 . S
C871 C870 1.251 . S
C872 H839 0.930 . S
C872 C874 1.406 . S
C872 C877 1.261 . S
C873 H840 0.930 . S
C873 N875 1.325 . S
C873 C876 1.357 . S
C874 H842 0.928 . S
C874 C872 1.406 . S
C874 N875 1.261 . S
N875 Co826 2.214 . S
N875 C873 1.325 . S
N875 C874 1.261 . S
C876 H846 0.931 . S
C876 C873 1.357 . S
C876 C877 1.312 . S
C877 H848 0.930 . S
C877 C872 1.261 . S
C877 C876 1.312 . S
C878 O850 1.214 . S
C878 O858 1.234 . S
C879 H851 0.929 . S
C879 C882 1.391 . S
C879 C884 1.391 . S
C880 H852 0.929 . S
C880 C881 1.390 . S
C880 N883 1.391 . S
C881 H853 0.930 . S
C881 C880 1.390 . S
C881 C882 1.392 . S
C882 H854 0.929 . S
C882 C879 1.391 . S
C882 C881 1.392 . S
N883 Co827 2.257 . S
N883 C880 1.391 . S
N883 C884 1.388 . S
C884 H855 0.930 . S
C884 C879 1.391 . S
C884 N883 1.388 . S
Co885 O887 2.143 . S
Co885 O893 2.074 . S
Co885 O896 2.093 . S
Co885 O909 2.097 . S
Co885 N926 2.151 . S
Co885 N934 2.214 . S
Co886 O887 2.160 . S
Co886 O892 2.058 . S
Co886 O902 2.057 . S
Co886 O917 2.037 . S
Co886 N921 2.145 . S
Co886 N942 2.257 . S
O887 Co885 2.143 . S
O887 Co886 2.160 . S
C888 O889 1.278 . S
C888 O896 1.224 . S
O889 C888 1.278 . S
C890 O891 1.245 . S
C890 O902 1.232 . S
O891 C890 1.245 . S
O892 Co886 2.058 . S
O892 C918 1.269 . S
O893 Co885 2.074 . S
O893 C918 1.257 . S
H894 C919 0.930 . S
H895 C925 0.930 . S
O896 Co885 2.093 . S
O896 C888 1.224 . S
H897 C929 0.929 . S
H898 C931 0.930 . S
H899 C932 0.930 . S
H900 C930 0.929 . S
H901 C933 0.928 . S
O902 Co886 2.057 . S
O902 C890 1.232 . S
H903 C922 0.929 . S
H904 C923 0.929 . S
H905 C935 0.931 . S
H906 C927 0.929 . S
H907 C936 0.930 . S
H908 C928 0.931 . S
O909 Co885 2.097 . S
O909 C937 1.214 . S
H910 C938 0.929 . S
H911 C939 0.929 . S
H912 C940 0.930 . S
H913 C941 0.929 . S
H914 C943 0.930 . S
H915 C920 0.930 . S
H916 C924 0.930 . S
O917 Co886 2.037 . S
O917 C937 1.234 . S
C918 O892 1.269 . S
C918 O893 1.257 . S
C919 H894 0.930 . S
C919 C922 1.388 . S
C919 C924 1.418 . S
C920 H915 0.930 . S
C920 C923 1.404 . S
C920 C924 1.353 . S
N921 Co886 2.145 . S
N921 C922 1.397 . S
N921 C923 1.334 . S
C922 H903 0.929 . S
C922 C919 1.388 . S
C922 N921 1.397 . S
C923 H904 0.929 . S
C923 C920 1.404 . S
C923 N921 1.334 . S
C924 H916 0.930 . S
C924 C919 1.418 . S
C924 C920 1.353 . S
C925 H895 0.930 . S
C925 N926 1.330 . S
C925 C927 1.446 . S
N926 Co885 2.151 . S
N926 C925 1.330 . S
N926 C930 1.418 . S
C927 H906 0.929 . S
C927 C925 1.446 . S
C927 C928 1.332 . S
C928 H908 0.931 . S
C928 C927 1.332 . S
C928 C929 1.267 . S
C929 H897 0.929 . S
C929 C928 1.267 . S
C929 C930 1.251 . S
C930 H900 0.929 . S
C930 N926 1.418 . S
C930 C929 1.251 . S
C931 H898 0.930 . S
C931 C933 1.406 . S
C931 C936 1.261 . S
C932 H899 0.930 . S
C932 N934 1.325 . S
C932 C935 1.357 . S
C933 H901 0.928 . S
C933 C931 1.406 . S
C933 N934 1.261 . S
N934 Co885 2.214 . S
N934 C932 1.325 . S
N934 C933 1.261 . S
C935 H905 0.931 . S
C935 C932 1.357 . S
C935 C936 1.312 . S
C936 H907 0.930 . S
C936 C931 1.261 . S
C936 C935 1.312 . S
C937 O909 1.214 . S
C937 O917 1.234 . S
C938 H910 0.929 . S
C938 C941 1.391 . S
C938 C943 1.391 . S
C939 H911 0.929 . S
C939 C940 1.390 . S
C939 N942 1.391 . S
C940 H912 0.930 . S
C940 C939 1.390 . S
C940 C941 1.392 . S
C941 H913 0.929 . S
C941 C938 1.391 . S
C941 C940 1.392 . S
N942 Co886 2.257 . S
N942 C939 1.391 . S
N942 C943 1.388 . S
C943 H914 0.930 . S
C943 C938 1.391 . S
C943 N942 1.388 . S
Co944 O946 2.143 . S
Co944 O952 2.074 . S
Co944 O955 2.093 . S
Co944 O968 2.097 . S
Co944 N985 2.151 . S
Co944 N993 2.214 . S
Co945 O946 2.160 . S
Co945 O951 2.058 . S
Co945 O961 2.057 . S
Co945 O976 2.037 . S
Co945 N980 2.145 . S
Co945 N1001 2.257 . S
O946 Co944 2.143 . S
O946 Co945 2.160 . S
C947 O948 1.278 . S
C947 O955 1.224 . S
O948 C947 1.278 . S
C949 O950 1.245 . S
C949 O961 1.232 . S
O950 C949 1.245 . S
O951 Co945 2.058 . S
O951 C977 1.269 . S
O952 Co944 2.074 . S
O952 C977 1.257 . S
H953 C978 0.930 . S
H954 C984 0.930 . S
O955 Co944 2.093 . S
O955 C947 1.224 . S
H956 C988 0.929 . S
H957 C990 0.930 . S
H958 C991 0.930 . S
H959 C989 0.929 . S
H960 C992 0.928 . S
O961 Co945 2.057 . S
O961 C949 1.232 . S
H962 C981 0.929 . S
H963 C982 0.929 . S
H964 C994 0.931 . S
H965 C986 0.929 . S
H966 C995 0.930 . S
H967 C987 0.931 . S
O968 Co944 2.097 . S
O968 C996 1.214 . S
H969 C997 0.929 . S
H970 C998 0.929 . S
H971 C999 0.930 . S
H972 C1000 0.929 . S
H973 C1002 0.930 . S
H974 C979 0.930 . S
H975 C983 0.930 . S
O976 Co945 2.037 . S
O976 C996 1.234 . S
C977 O951 1.269 . S
C977 O952 1.257 . S
C978 H953 0.930 . S
C978 C981 1.388 . S
C978 C983 1.418 . S
C979 H974 0.930 . S
C979 C982 1.404 . S
C979 C983 1.353 . S
N980 Co945 2.145 . S
N980 C981 1.397 . S
N980 C982 1.334 . S
C981 H962 0.929 . S
C981 C978 1.388 . S
C981 N980 1.397 . S
C982 H963 0.929 . S
C982 C979 1.404 . S
C982 N980 1.334 . S
C983 H975 0.930 . S
C983 C978 1.418 . S
C983 C979 1.353 . S
C984 H954 0.930 . S
C984 N985 1.330 . S
C984 C986 1.446 . S
N985 Co944 2.151 . S
N985 C984 1.330 . S
N985 C989 1.418 . S
C986 H965 0.929 . S
C986 C984 1.446 . S
C986 C987 1.332 . S
C987 H967 0.931 . S
C987 C986 1.332 . S
C987 C988 1.267 . S
C988 H956 0.929 . S
C988 C987 1.267 . S
C988 C989 1.251 . S
C989 H959 0.929 . S
C989 N985 1.418 . S
C989 C988 1.251 . S
C990 H957 0.930 . S
C990 C992 1.406 . S
C990 C995 1.261 . S
C991 H958 0.930 . S
C991 N993 1.325 . S
C991 C994 1.357 . S
C992 H960 0.928 . S
C992 C990 1.406 . S
C992 N993 1.261 . S
N993 Co944 2.214 . S
N993 C991 1.325 . S
N993 C992 1.261 . S
C994 H964 0.931 . S
C994 C991 1.357 . S
C994 C995 1.312 . S
C995 H966 0.930 . S
C995 C990 1.261 . S
C995 C994 1.312 . S
C996 O968 1.214 . S
C996 O976 1.234 . S
C997 H969 0.929 . S
C997 C1000 1.391 . S
C997 C1002 1.391 . S
C998 H970 0.929 . S
C998 C999 1.390 . S
C998 N1001 1.391 . S
C999 H971 0.930 . S
C999 C998 1.390 . S
C999 C1000 1.392 . S
C1000 H972 0.929 . S
C1000 C997 1.391 . S
C1000 C999 1.392 . S
N1001 Co945 2.257 . S
N1001 C998 1.391 . S
N1001 C1002 1.388 . S
C1002 H973 0.930 . S
C1002 C997 1.391 . S
C1002 N1001 1.388 . S
Co1003 O1005 2.143 . S
Co1003 O1011 2.074 . S
Co1003 O1014 2.093 . S
Co1003 O1027 2.097 . S
Co1003 N1044 2.151 . S
Co1003 N1052 2.214 . S
Co1004 O1005 2.160 . S
Co1004 O1010 2.058 . S
Co1004 O1020 2.057 . S
Co1004 O1035 2.037 . S
Co1004 N1039 2.145 . S
Co1004 N1060 2.257 . S
O1005 Co1003 2.143 . S
O1005 Co1004 2.160 . S
C1006 O1007 1.278 . S
C1006 O1014 1.224 . S
O1007 C1006 1.278 . S
C1008 O1009 1.245 . S
C1008 O1020 1.232 . S
O1009 C1008 1.245 . S
O1010 Co1004 2.058 . S
O1010 C1036 1.269 . S
O1011 Co1003 2.074 . S
O1011 C1036 1.257 . S
H1012 C1037 0.930 . S
H1013 C1043 0.930 . S
O1014 Co1003 2.093 . S
O1014 C1006 1.224 . S
H1015 C1047 0.929 . S
H1016 C1049 0.930 . S
H1017 C1050 0.930 . S
H1018 C1048 0.929 . S
H1019 C1051 0.928 . S
O1020 Co1004 2.057 . S
O1020 C1008 1.232 . S
H1021 C1040 0.929 . S
H1022 C1041 0.929 . S
H1023 C1053 0.931 . S
H1024 C1045 0.929 . S
H1025 C1054 0.930 . S
H1026 C1046 0.931 . S
O1027 Co1003 2.097 . S
O1027 C1055 1.214 . S
H1028 C1056 0.929 . S
H1029 C1057 0.929 . S
H1030 C1058 0.930 . S
H1031 C1059 0.929 . S
H1032 C1061 0.930 . S
H1033 C1038 0.930 . S
H1034 C1042 0.930 . S
O1035 Co1004 2.037 . S
O1035 C1055 1.234 . S
C1036 O1010 1.269 . S
C1036 O1011 1.257 . S
C1037 H1012 0.930 . S
C1037 C1040 1.388 . S
C1037 C1042 1.418 . S
C1038 H1033 0.930 . S
C1038 C1041 1.404 . S
C1038 C1042 1.353 . S
N1039 Co1004 2.145 . S
N1039 C1040 1.397 . S
N1039 C1041 1.334 . S
C1040 H1021 0.929 . S
C1040 C1037 1.388 . S
C1040 N1039 1.397 . S
C1041 H1022 0.929 . S
C1041 C1038 1.404 . S
C1041 N1039 1.334 . S
C1042 H1034 0.930 . S
C1042 C1037 1.418 . S
C1042 C1038 1.353 . S
C1043 H1013 0.930 . S
C1043 N1044 1.330 . S
C1043 C1045 1.446 . S
N1044 Co1003 2.151 . S
N1044 C1043 1.330 . S
N1044 C1048 1.418 . S
C1045 H1024 0.929 . S
C1045 C1043 1.446 . S
C1045 C1046 1.332 . S
C1046 H1026 0.931 . S
C1046 C1045 1.332 . S
C1046 C1047 1.267 . S
C1047 H1015 0.929 . S
C1047 C1046 1.267 . S
C1047 C1048 1.251 . S
C1048 H1018 0.929 . S
C1048 N1044 1.418 . S
C1048 C1047 1.251 . S
C1049 H1016 0.930 . S
C1049 C1051 1.406 . S
C1049 C1054 1.261 . S
C1050 H1017 0.930 . S
C1050 N1052 1.325 . S
C1050 C1053 1.357 . S
C1051 H1019 0.928 . S
C1051 C1049 1.406 . S
C1051 N1052 1.261 . S
N1052 Co1003 2.214 . S
N1052 C1050 1.325 . S
N1052 C1051 1.261 . S
C1053 H1023 0.931 . S
C1053 C1050 1.357 . S
C1053 C1054 1.312 . S
C1054 H1025 0.930 . S
C1054 C1049 1.261 . S
C1054 C1053 1.312 . S
C1055 O1027 1.214 . S
C1055 O1035 1.234 . S
C1056 H1028 0.929 . S
C1056 C1059 1.391 . S
C1056 C1061 1.391 . S
C1057 H1029 0.929 . S
C1057 C1058 1.390 . S
C1057 N1060 1.391 . S
C1058 H1030 0.930 . S
C1058 C1057 1.390 . S
C1058 C1059 1.392 . S
C1059 H1031 0.929 . S
C1059 C1056 1.391 . S
C1059 C1058 1.392 . S
N1060 Co1004 2.257 . S
N1060 C1057 1.391 . S
N1060 C1061 1.388 . S
C1061 H1032 0.930 . S
C1061 C1056 1.391 . S
C1061 N1060 1.388 . S
Co1062 O1064 2.143 . S
Co1062 O1070 2.074 . S
Co1062 O1073 2.093 . S
Co1062 O1086 2.097 . S
Co1062 N1103 2.151 . S
Co1062 N1111 2.214 . S
Co1063 O1064 2.160 . S
Co1063 O1069 2.058 . S
Co1063 O1079 2.057 . S
Co1063 O1094 2.037 . S
Co1063 N1098 2.145 . S
Co1063 N1119 2.257 . S
O1064 Co1062 2.143 . S
O1064 Co1063 2.160 . S
C1065 O1066 1.278 . S
C1065 O1073 1.224 . S
O1066 C1065 1.278 . S
C1067 O1068 1.245 . S
C1067 O1079 1.232 . S
O1068 C1067 1.245 . S
O1069 Co1063 2.058 . S
O1069 C1095 1.269 . S
O1070 Co1062 2.074 . S
O1070 C1095 1.257 . S
H1071 C1096 0.930 . S
H1072 C1102 0.930 . S
O1073 Co1062 2.093 . S
O1073 C1065 1.224 . S
H1074 C1106 0.929 . S
H1075 C1108 0.930 . S
H1076 C1109 0.930 . S
H1077 C1107 0.929 . S
H1078 C1110 0.928 . S
O1079 Co1063 2.057 . S
O1079 C1067 1.232 . S
H1080 C1099 0.929 . S
H1081 C1100 0.929 . S
H1082 C1112 0.931 . S
H1083 C1104 0.929 . S
H1084 C1113 0.930 . S
H1085 C1105 0.931 . S
O1086 Co1062 2.097 . S
O1086 C1114 1.214 . S
H1087 C1115 0.929 . S
H1088 C1116 0.929 . S
H1089 C1117 0.930 . S
H1090 C1118 0.929 . S
H1091 C1120 0.930 . S
H1092 C1097 0.930 . S
H1093 C1101 0.930 . S
O1094 Co1063 2.037 . S
O1094 C1114 1.234 . S
C1095 O1069 1.269 . S
C1095 O1070 1.257 . S
C1096 H1071 0.930 . S
C1096 C1099 1.388 . S
C1096 C1101 1.418 . S
C1097 H1092 0.930 . S
C1097 C1100 1.404 . S
C1097 C1101 1.353 . S
N1098 Co1063 2.145 . S
N1098 C1099 1.397 . S
N1098 C1100 1.334 . S
C1099 H1080 0.929 . S
C1099 C1096 1.388 . S
C1099 N1098 1.397 . S
C1100 H1081 0.929 . S
C1100 C1097 1.404 . S
C1100 N1098 1.334 . S
C1101 H1093 0.930 . S
C1101 C1096 1.418 . S
C1101 C1097 1.353 . S
C1102 H1072 0.930 . S
C1102 N1103 1.330 . S
C1102 C1104 1.446 . S
N1103 Co1062 2.151 . S
N1103 C1102 1.330 . S
N1103 C1107 1.418 . S
C1104 H1083 0.929 . S
C1104 C1102 1.446 . S
C1104 C1105 1.332 . S
C1105 H1085 0.931 . S
C1105 C1104 1.332 . S
C1105 C1106 1.267 . S
C1106 H1074 0.929 . S
C1106 C1105 1.267 . S
C1106 C1107 1.251 . S
C1107 H1077 0.929 . S
C1107 N1103 1.418 . S
C1107 C1106 1.251 . S
C1108 H1075 0.930 . S
C1108 C1110 1.406 . S
C1108 C1113 1.261 . S
C1109 H1076 0.930 . S
C1109 N1111 1.325 . S
C1109 C1112 1.357 . S
C1110 H1078 0.928 . S
C1110 C1108 1.406 . S
C1110 N1111 1.261 . S
N1111 Co1062 2.214 . S
N1111 C1109 1.325 . S
N1111 C1110 1.261 . S
C1112 H1082 0.931 . S
C1112 C1109 1.357 . S
C1112 C1113 1.312 . S
C1113 H1084 0.930 . S
C1113 C1108 1.261 . S
C1113 C1112 1.312 . S
C1114 O1086 1.214 . S
C1114 O1094 1.234 . S
C1115 H1087 0.929 . S
C1115 C1118 1.391 . S
C1115 C1120 1.391 . S
C1116 H1088 0.929 . S
C1116 C1117 1.390 . S
C1116 N1119 1.391 . S
C1117 H1089 0.930 . S
C1117 C1116 1.390 . S
C1117 C1118 1.392 . S
C1118 H1090 0.929 . S
C1118 C1115 1.391 . S
C1118 C1117 1.392 . S
N1119 Co1063 2.257 . S
N1119 C1116 1.391 . S
N1119 C1120 1.388 . S
C1120 H1091 0.930 . S
C1120 C1115 1.391 . S
C1120 N1119 1.388 . S
Co1121 O1123 2.143 . S
Co1121 O1129 2.074 . S
Co1121 O1132 2.093 . S
Co1121 O1145 2.097 . S
Co1121 N1162 2.151 . S
Co1121 N1170 2.214 . S
Co1122 O1123 2.160 . S
Co1122 O1128 2.058 . S
Co1122 O1138 2.057 . S
Co1122 O1153 2.037 . S
Co1122 N1157 2.145 . S
Co1122 N1178 2.257 . S
O1123 Co1121 2.143 . S
O1123 Co1122 2.160 . S
C1124 O1125 1.278 . S
C1124 O1132 1.224 . S
O1125 C1124 1.278 . S
C1126 O1127 1.245 . S
C1126 O1138 1.232 . S
O1127 C1126 1.245 . S
O1128 Co1122 2.058 . S
O1128 C1154 1.269 . S
O1129 Co1121 2.074 . S
O1129 C1154 1.257 . S
H1130 C1155 0.930 . S
H1131 C1161 0.930 . S
O1132 Co1121 2.093 . S
O1132 C1124 1.224 . S
H1133 C1165 0.929 . S
H1134 C1167 0.930 . S
H1135 C1168 0.930 . S
H1136 C1166 0.929 . S
H1137 C1169 0.928 . S
O1138 Co1122 2.057 . S
O1138 C1126 1.232 . S
H1139 C1158 0.929 . S
H1140 C1159 0.929 . S
H1141 C1171 0.931 . S
H1142 C1163 0.929 . S
H1143 C1172 0.930 . S
H1144 C1164 0.931 . S
O1145 Co1121 2.097 . S
O1145 C1173 1.214 . S
H1146 C1174 0.929 . S
H1147 C1175 0.929 . S
H1148 C1176 0.930 . S
H1149 C1177 0.929 . S
H1150 C1179 0.930 . S
H1151 C1156 0.930 . S
H1152 C1160 0.930 . S
O1153 Co1122 2.037 . S
O1153 C1173 1.234 . S
C1154 O1128 1.269 . S
C1154 O1129 1.257 . S
C1155 H1130 0.930 . S
C1155 C1158 1.388 . S
C1155 C1160 1.418 . S
C1156 H1151 0.930 . S
C1156 C1159 1.404 . S
C1156 C1160 1.353 . S
N1157 Co1122 2.145 . S
N1157 C1158 1.397 . S
N1157 C1159 1.334 . S
C1158 H1139 0.929 . S
C1158 C1155 1.388 . S
C1158 N1157 1.397 . S
C1159 H1140 0.929 . S
C1159 C1156 1.404 . S
C1159 N1157 1.334 . S
C1160 H1152 0.930 . S
C1160 C1155 1.418 . S
C1160 C1156 1.353 . S
C1161 H1131 0.930 . S
C1161 N1162 1.330 . S
C1161 C1163 1.446 . S
N1162 Co1121 2.151 . S
N1162 C1161 1.330 . S
N1162 C1166 1.418 . S
C1163 H1142 0.929 . S
C1163 C1161 1.446 . S
C1163 C1164 1.332 . S
C1164 H1144 0.931 . S
C1164 C1163 1.332 . S
C1164 C1165 1.267 . S
C1165 H1133 0.929 . S
C1165 C1164 1.267 . S
C1165 C1166 1.251 . S
C1166 H1136 0.929 . S
C1166 N1162 1.418 . S
C1166 C1165 1.251 . S
C1167 H1134 0.930 . S
C1167 C1169 1.406 . S
C1167 C1172 1.261 . S
C1168 H1135 0.930 . S
C1168 N1170 1.325 . S
C1168 C1171 1.357 . S
C1169 H1137 0.928 . S
C1169 C1167 1.406 . S
C1169 N1170 1.261 . S
N1170 Co1121 2.214 . S
N1170 C1168 1.325 . S
N1170 C1169 1.261 . S
C1171 H1141 0.931 . S
C1171 C1168 1.357 . S
C1171 C1172 1.312 . S
C1172 H1143 0.930 . S
C1172 C1167 1.261 . S
C1172 C1171 1.312 . S
C1173 O1145 1.214 . S
C1173 O1153 1.234 . S
C1174 H1146 0.929 . S
C1174 C1177 1.391 . S
C1174 C1179 1.391 . S
C1175 H1147 0.929 . S
C1175 C1176 1.390 . S
C1175 N1178 1.391 . S
C1176 H1148 0.930 . S
C1176 C1175 1.390 . S
C1176 C1177 1.392 . S
C1177 H1149 0.929 . S
C1177 C1174 1.391 . S
C1177 C1176 1.392 . S
N1178 Co1122 2.257 . S
N1178 C1175 1.391 . S
N1178 C1179 1.388 . S
C1179 H1150 0.930 . S
C1179 C1174 1.391 . S
C1179 N1178 1.388 . S
Co1180 O1182 2.143 . S
Co1180 O1188 2.074 . S
Co1180 O1191 2.093 . S
Co1180 O1204 2.097 . S
Co1180 N1221 2.151 . S
Co1180 N1229 2.214 . S
Co1181 O1182 2.160 . S
Co1181 O1187 2.058 . S
Co1181 O1197 2.057 . S
Co1181 O1212 2.037 . S
Co1181 N1216 2.145 . S
Co1181 N1237 2.257 . S
O1182 Co1180 2.143 . S
O1182 Co1181 2.160 . S
C1183 O1184 1.278 . S
C1183 O1191 1.224 . S
O1184 C1183 1.278 . S
C1185 O1186 1.245 . S
C1185 O1197 1.232 . S
O1186 C1185 1.245 . S
O1187 Co1181 2.058 . S
O1187 C1213 1.269 . S
O1188 Co1180 2.074 . S
O1188 C1213 1.257 . S
H1189 C1214 0.930 . S
H1190 C1220 0.930 . S
O1191 Co1180 2.093 . S
O1191 C1183 1.224 . S
H1192 C1224 0.929 . S
H1193 C1226 0.930 . S
H1194 C1227 0.930 . S
H1195 C1225 0.929 . S
H1196 C1228 0.928 . S
O1197 Co1181 2.057 . S
O1197 C1185 1.232 . S
H1198 C1217 0.929 . S
H1199 C1218 0.929 . S
H1200 C1230 0.931 . S
H1201 C1222 0.929 . S
H1202 C1231 0.930 . S
H1203 C1223 0.931 . S
O1204 Co1180 2.097 . S
O1204 C1232 1.214 . S
H1205 C1233 0.929 . S
H1206 C1234 0.929 . S
H1207 C1235 0.930 . S
H1208 C1236 0.929 . S
H1209 C1238 0.930 . S
H1210 C1215 0.930 . S
H1211 C1219 0.930 . S
O1212 Co1181 2.037 . S
O1212 C1232 1.234 . S
C1213 O1187 1.269 . S
C1213 O1188 1.257 . S
C1214 H1189 0.930 . S
C1214 C1217 1.388 . S
C1214 C1219 1.418 . S
C1215 H1210 0.930 . S
C1215 C1218 1.404 . S
C1215 C1219 1.353 . S
N1216 Co1181 2.145 . S
N1216 C1217 1.397 . S
N1216 C1218 1.334 . S
C1217 H1198 0.929 . S
C1217 C1214 1.388 . S
C1217 N1216 1.397 . S
C1218 H1199 0.929 . S
C1218 C1215 1.404 . S
C1218 N1216 1.334 . S
C1219 H1211 0.930 . S
C1219 C1214 1.418 . S
C1219 C1215 1.353 . S
C1220 H1190 0.930 . S
C1220 N1221 1.330 . S
C1220 C1222 1.446 . S
N1221 Co1180 2.151 . S
N1221 C1220 1.330 . S
N1221 C1225 1.418 . S
C1222 H1201 0.929 . S
C1222 C1220 1.446 . S
C1222 C1223 1.332 . S
C1223 H1203 0.931 . S
C1223 C1222 1.332 . S
C1223 C1224 1.267 . S
C1224 H1192 0.929 . S
C1224 C1223 1.267 . S
C1224 C1225 1.251 . S
C1225 H1195 0.929 . S
C1225 N1221 1.418 . S
C1225 C1224 1.251 . S
C1226 H1193 0.930 . S
C1226 C1228 1.406 . S
C1226 C1231 1.261 . S
C1227 H1194 0.930 . S
C1227 N1229 1.325 . S
C1227 C1230 1.357 . S
C1228 H1196 0.928 . S
C1228 C1226 1.406 . S
C1228 N1229 1.261 . S
N1229 Co1180 2.214 . S
N1229 C1227 1.325 . S
N1229 C1228 1.261 . S
C1230 H1200 0.931 . S
C1230 C1227 1.357 . S
C1230 C1231 1.312 . S
C1231 H1202 0.930 . S
C1231 C1226 1.261 . S
C1231 C1230 1.312 . S
C1232 O1204 1.214 . S
C1232 O1212 1.234 . S
C1233 H1205 0.929 . S
C1233 C1236 1.391 . S
C1233 C1238 1.391 . S
C1234 H1206 0.929 . S
C1234 C1235 1.390 . S
C1234 N1237 1.391 . S
C1235 H1207 0.930 . S
C1235 C1234 1.390 . S
C1235 C1236 1.392 . S
C1236 H1208 0.929 . S
C1236 C1233 1.391 . S
C1236 C1235 1.392 . S
N1237 Co1181 2.257 . S
N1237 C1234 1.391 . S
N1237 C1238 1.388 . S
C1238 H1209 0.930 . S
C1238 C1233 1.391 . S
C1238 N1237 1.388 . S
Co1239 O1241 2.143 . S
Co1239 O1247 2.074 . S
Co1239 O1250 2.093 . S
Co1239 O1263 2.097 . S
Co1239 N1280 2.151 . S
Co1239 N1288 2.214 . S
Co1240 O1241 2.160 . S
Co1240 O1246 2.058 . S
Co1240 O1256 2.057 . S
Co1240 O1271 2.037 . S
Co1240 N1275 2.145 . S
Co1240 N1296 2.257 . S
O1241 Co1239 2.143 . S
O1241 Co1240 2.160 . S
C1242 O1243 1.278 . S
C1242 O1250 1.224 . S
O1243 C1242 1.278 . S
C1244 O1245 1.245 . S
C1244 O1256 1.232 . S
O1245 C1244 1.245 . S
O1246 Co1240 2.058 . S
O1246 C1272 1.269 . S
O1247 Co1239 2.074 . S
O1247 C1272 1.257 . S
H1248 C1273 0.930 . S
H1249 C1279 0.930 . S
O1250 Co1239 2.093 . S
O1250 C1242 1.224 . S
H1251 C1283 0.929 . S
H1252 C1285 0.930 . S
H1253 C1286 0.930 . S
H1254 C1284 0.929 . S
H1255 C1287 0.928 . S
O1256 Co1240 2.057 . S
O1256 C1244 1.232 . S
H1257 C1276 0.929 . S
H1258 C1277 0.929 . S
H1259 C1289 0.931 . S
H1260 C1281 0.929 . S
H1261 C1290 0.930 . S
H1262 C1282 0.931 . S
O1263 Co1239 2.097 . S
O1263 C1291 1.214 . S
H1264 C1292 0.929 . S
H1265 C1293 0.929 . S
H1266 C1294 0.930 . S
H1267 C1295 0.929 . S
H1268 C1297 0.930 . S
H1269 C1274 0.930 . S
H1270 C1278 0.930 . S
O1271 Co1240 2.037 . S
O1271 C1291 1.234 . S
C1272 O1246 1.269 . S
C1272 O1247 1.257 . S
C1273 H1248 0.930 . S
C1273 C1276 1.388 . S
C1273 C1278 1.418 . S
C1274 H1269 0.930 . S
C1274 C1277 1.404 . S
C1274 C1278 1.353 . S
N1275 Co1240 2.145 . S
N1275 C1276 1.397 . S
N1275 C1277 1.334 . S
C1276 H1257 0.929 . S
C1276 C1273 1.388 . S
C1276 N1275 1.397 . S
C1277 H1258 0.929 . S
C1277 C1274 1.404 . S
C1277 N1275 1.334 . S
C1278 H1270 0.930 . S
C1278 C1273 1.418 . S
C1278 C1274 1.353 . S
C1279 H1249 0.930 . S
C1279 N1280 1.330 . S
C1279 C1281 1.446 . S
N1280 Co1239 2.151 . S
N1280 C1279 1.330 . S
N1280 C1284 1.418 . S
C1281 H1260 0.929 . S
C1281 C1279 1.446 . S
C1281 C1282 1.332 . S
C1282 H1262 0.931 . S
C1282 C1281 1.332 . S
C1282 C1283 1.267 . S
C1283 H1251 0.929 . S
C1283 C1282 1.267 . S
C1283 C1284 1.251 . S
C1284 H1254 0.929 . S
C1284 N1280 1.418 . S
C1284 C1283 1.251 . S
C1285 H1252 0.930 . S
C1285 C1287 1.406 . S
C1285 C1290 1.261 . S
C1286 H1253 0.930 . S
C1286 N1288 1.325 . S
C1286 C1289 1.357 . S
C1287 H1255 0.928 . S
C1287 C1285 1.406 . S
C1287 N1288 1.261 . S
N1288 Co1239 2.214 . S
N1288 C1286 1.325 . S
N1288 C1287 1.261 . S
C1289 H1259 0.931 . S
C1289 C1286 1.357 . S
C1289 C1290 1.312 . S
C1290 H1261 0.930 . S
C1290 C1285 1.261 . S
C1290 C1289 1.312 . S
C1291 O1263 1.214 . S
C1291 O1271 1.234 . S
C1292 H1264 0.929 . S
C1292 C1295 1.391 . S
C1292 C1297 1.391 . S
C1293 H1265 0.929 . S
C1293 C1294 1.390 . S
C1293 N1296 1.391 . S
C1294 H1266 0.930 . S
C1294 C1293 1.390 . S
C1294 C1295 1.392 . S
C1295 H1267 0.929 . S
C1295 C1292 1.391 . S
C1295 C1294 1.392 . S
N1296 Co1240 2.257 . S
N1296 C1293 1.391 . S
N1296 C1297 1.388 . S
C1297 H1268 0.930 . S
C1297 C1292 1.391 . S
C1297 N1296 1.388 . S
Co1298 O1300 2.143 . S
Co1298 O1306 2.074 . S
Co1298 O1309 2.093 . S
Co1298 O1322 2.097 . S
Co1298 N1339 2.151 . S
Co1298 N1347 2.214 . S
Co1299 O1300 2.160 . S
Co1299 O1305 2.058 . S
Co1299 O1315 2.057 . S
Co1299 O1330 2.037 . S
Co1299 N1334 2.145 . S
Co1299 N1355 2.257 . S
O1300 Co1298 2.143 . S
O1300 Co1299 2.160 . S
C1301 O1302 1.278 . S
C1301 O1309 1.224 . S
O1302 C1301 1.278 . S
C1303 O1304 1.245 . S
C1303 O1315 1.232 . S
O1304 C1303 1.245 . S
O1305 Co1299 2.058 . S
O1305 C1331 1.269 . S
O1306 Co1298 2.074 . S
O1306 C1331 1.257 . S
H1307 C1332 0.930 . S
H1308 C1338 0.930 . S
O1309 Co1298 2.093 . S
O1309 C1301 1.224 . S
H1310 C1342 0.929 . S
H1311 C1344 0.930 . S
H1312 C1345 0.930 . S
H1313 C1343 0.929 . S
H1314 C1346 0.928 . S
O1315 Co1299 2.057 . S
O1315 C1303 1.232 . S
H1316 C1335 0.929 . S
H1317 C1336 0.929 . S
H1318 C1348 0.931 . S
H1319 C1340 0.929 . S
H1320 C1349 0.930 . S
H1321 C1341 0.931 . S
O1322 Co1298 2.097 . S
O1322 C1350 1.214 . S
H1323 C1351 0.929 . S
H1324 C1352 0.929 . S
H1325 C1353 0.930 . S
H1326 C1354 0.929 . S
H1327 C1356 0.930 . S
H1328 C1333 0.930 . S
H1329 C1337 0.930 . S
O1330 Co1299 2.037 . S
O1330 C1350 1.234 . S
C1331 O1305 1.269 . S
C1331 O1306 1.257 . S
C1332 H1307 0.930 . S
C1332 C1335 1.388 . S
C1332 C1337 1.418 . S
C1333 H1328 0.930 . S
C1333 C1336 1.404 . S
C1333 C1337 1.353 . S
N1334 Co1299 2.145 . S
N1334 C1335 1.397 . S
N1334 C1336 1.334 . S
C1335 H1316 0.929 . S
C1335 C1332 1.388 . S
C1335 N1334 1.397 . S
C1336 H1317 0.929 . S
C1336 C1333 1.404 . S
C1336 N1334 1.334 . S
C1337 H1329 0.930 . S
C1337 C1332 1.418 . S
C1337 C1333 1.353 . S
C1338 H1308 0.930 . S
C1338 N1339 1.330 . S
C1338 C1340 1.446 . S
N1339 Co1298 2.151 . S
N1339 C1338 1.330 . S
N1339 C1343 1.418 . S
C1340 H1319 0.929 . S
C1340 C1338 1.446 . S
C1340 C1341 1.332 . S
C1341 H1321 0.931 . S
C1341 C1340 1.332 . S
C1341 C1342 1.267 . S
C1342 H1310 0.929 . S
C1342 C1341 1.267 . S
C1342 C1343 1.251 . S
C1343 H1313 0.929 . S
C1343 N1339 1.418 . S
C1343 C1342 1.251 . S
C1344 H1311 0.930 . S
C1344 C1346 1.406 . S
C1344 C1349 1.261 . S
C1345 H1312 0.930 . S
C1345 N1347 1.325 . S
C1345 C1348 1.357 . S
C1346 H1314 0.928 . S
C1346 C1344 1.406 . S
C1346 N1347 1.261 . S
N1347 Co1298 2.214 . S
N1347 C1345 1.325 . S
N1347 C1346 1.261 . S
C1348 H1318 0.931 . S
C1348 C1345 1.357 . S
C1348 C1349 1.312 . S
C1349 H1320 0.930 . S
C1349 C1344 1.261 . S
C1349 C1348 1.312 . S
C1350 O1322 1.214 . S
C1350 O1330 1.234 . S
C1351 H1323 0.929 . S
C1351 C1354 1.391 . S
C1351 C1356 1.391 . S
C1352 H1324 0.929 . S
C1352 C1353 1.390 . S
C1352 N1355 1.391 . S
C1353 H1325 0.930 . S
C1353 C1352 1.390 . S
C1353 C1354 1.392 . S
C1354 H1326 0.929 . S
C1354 C1351 1.391 . S
C1354 C1353 1.392 . S
N1355 Co1299 2.257 . S
N1355 C1352 1.391 . S
N1355 C1356 1.388 . S
C1356 H1327 0.930 . S
C1356 C1351 1.391 . S
C1356 N1355 1.388 . S
Co1357 O1359 2.143 . S
Co1357 O1365 2.074 . S
Co1357 O1368 2.093 . S
Co1357 O1381 2.097 . S
Co1357 N1398 2.151 . S
Co1357 N1406 2.214 . S
Co1358 O1359 2.160 . S
Co1358 O1364 2.058 . S
Co1358 O1374 2.057 . S
Co1358 O1389 2.037 . S
Co1358 N1393 2.145 . S
Co1358 N1414 2.257 . S
O1359 Co1357 2.143 . S
O1359 Co1358 2.160 . S
C1360 O1361 1.278 . S
C1360 O1368 1.224 . S
O1361 C1360 1.278 . S
C1362 O1363 1.245 . S
C1362 O1374 1.232 . S
O1363 C1362 1.245 . S
O1364 Co1358 2.058 . S
O1364 C1390 1.269 . S
O1365 Co1357 2.074 . S
O1365 C1390 1.257 . S
H1366 C1391 0.930 . S
H1367 C1397 0.930 . S
O1368 Co1357 2.093 . S
O1368 C1360 1.224 . S
H1369 C1401 0.929 . S
H1370 C1403 0.930 . S
H1371 C1404 0.930 . S
H1372 C1402 0.929 . S
H1373 C1405 0.928 . S
O1374 Co1358 2.057 . S
O1374 C1362 1.232 . S
H1375 C1394 0.929 . S
H1376 C1395 0.929 . S
H1377 C1407 0.931 . S
H1378 C1399 0.929 . S
H1379 C1408 0.930 . S
H1380 C1400 0.931 . S
O1381 Co1357 2.097 . S
O1381 C1409 1.214 . S
H1382 C1410 0.929 . S
H1383 C1411 0.929 . S
H1384 C1412 0.930 . S
H1385 C1413 0.929 . S
H1386 C1415 0.930 . S
H1387 C1392 0.930 . S
H1388 C1396 0.930 . S
O1389 Co1358 2.037 . S
O1389 C1409 1.234 . S
C1390 O1364 1.269 . S
C1390 O1365 1.257 . S
C1391 H1366 0.930 . S
C1391 C1394 1.388 . S
C1391 C1396 1.418 . S
C1392 H1387 0.930 . S
C1392 C1395 1.404 . S
C1392 C1396 1.353 . S
N1393 Co1358 2.145 . S
N1393 C1394 1.397 . S
N1393 C1395 1.334 . S
C1394 H1375 0.929 . S
C1394 C1391 1.388 . S
C1394 N1393 1.397 . S
C1395 H1376 0.929 . S
C1395 C1392 1.404 . S
C1395 N1393 1.334 . S
C1396 H1388 0.930 . S
C1396 C1391 1.418 . S
C1396 C1392 1.353 . S
C1397 H1367 0.930 . S
C1397 N1398 1.330 . S
C1397 C1399 1.446 . S
N1398 Co1357 2.151 . S
N1398 C1397 1.330 . S
N1398 C1402 1.418 . S
C1399 H1378 0.929 . S
C1399 C1397 1.446 . S
C1399 C1400 1.332 . S
C1400 H1380 0.931 . S
C1400 C1399 1.332 . S
C1400 C1401 1.267 . S
C1401 H1369 0.929 . S
C1401 C1400 1.267 . S
C1401 C1402 1.251 . S
C1402 H1372 0.929 . S
C1402 N1398 1.418 . S
C1402 C1401 1.251 . S
C1403 H1370 0.930 . S
C1403 C1405 1.406 . S
C1403 C1408 1.261 . S
C1404 H1371 0.930 . S
C1404 N1406 1.325 . S
C1404 C1407 1.357 . S
C1405 H1373 0.928 . S
C1405 C1403 1.406 . S
C1405 N1406 1.261 . S
N1406 Co1357 2.214 . S
N1406 C1404 1.325 . S
N1406 C1405 1.261 . S
C1407 H1377 0.931 . S
C1407 C1404 1.357 . S
C1407 C1408 1.312 . S
C1408 H1379 0.930 . S
C1408 C1403 1.261 . S
C1408 C1407 1.312 . S
C1409 O1381 1.214 . S
C1409 O1389 1.234 . S
C1410 H1382 0.929 . S
C1410 C1413 1.391 . S
C1410 C1415 1.391 . S
C1411 H1383 0.929 . S
C1411 C1412 1.390 . S
C1411 N1414 1.391 . S
C1412 H1384 0.930 . S
C1412 C1411 1.390 . S
C1412 C1413 1.392 . S
C1413 H1385 0.929 . S
C1413 C1410 1.391 . S
C1413 C1412 1.392 . S
N1414 Co1358 2.257 . S
N1414 C1411 1.391 . S
N1414 C1415 1.388 . S
C1415 H1386 0.930 . S
C1415 C1410 1.391 . S
C1415 N1414 1.388 . S
C1416 C1417 1.349 . S
C1416 C1418 1.327 . S
C1416 H1441 0.950 . S
C1417 C1416 1.349 . S
C1417 C1433 1.349 . S
C1418 C1416 1.327 . S
C1418 C1437 1.429 . S
C1418 H1442 0.950 . S
C1419 C1436 1.574 1_545 S
C1419 C1438 1.368 . S
C1419 H1443 0.949 . S
H1420 C1424 0.949 . S
C1421 C1422 1.349 . S
C1421 C1423 1.327 . S
C1421 H1444 0.950 . S
C1422 C1421 1.349 . S
C1422 C1434 1.349 . S
C1423 C1421 1.327 . S
C1423 C1439 1.429 . S
C1423 H1445 0.950 . S
C1424 H1420 0.949 . S
C1424 C1432 1.574 1_565 S
C1424 C1440 1.368 . S
H1425 C1433 0.950 . S
H1426 C1431 0.950 . S
H1427 C1432 0.949 . S
H1428 C1434 0.950 . S
H1429 C1435 0.950 . S
H1430 C1436 0.949 . S
C1431 H1426 0.950 . S
C1431 C1433 1.327 . S
C1431 C1437 1.429 . S
C1432 C1424 1.574 1_545 S
C1432 H1427 0.949 . S
C1432 C1438 1.368 . S
C1433 C1417 1.349 . S
C1433 H1425 0.950 . S
C1433 C1431 1.327 . S
C1434 C1422 1.349 . S
C1434 H1428 0.950 . S
C1434 C1435 1.327 . S
C1435 H1429 0.950 . S
C1435 C1434 1.327 . S
C1435 C1439 1.429 . S
C1436 C1419 1.574 1_565 S
C1436 H1430 0.949 . S
C1436 C1440 1.368 . S
C1437 C1418 1.429 . S
C1437 C1431 1.429 . S
C1437 C1438 1.523 . S
C1438 C1419 1.368 . S
C1438 C1432 1.368 . S
C1438 C1437 1.523 . S
C1439 C1423 1.429 . S
C1439 C1435 1.429 . S
C1439 C1440 1.523 . S
C1440 C1424 1.368 . S
C1440 C1436 1.368 . S
C1440 C1439 1.523 . S
H1441 C1416 0.950 . S
H1442 C1418 0.950 . S
H1443 C1419 0.949 . S
H1444 C1421 0.950 . S
H1445 C1423 0.950 . S
C1446 C1447 1.349 . S
C1446 C1448 1.327 . S
C1446 H1471 0.950 . S
C1447 C1446 1.349 . S
C1447 C1463 1.349 . S
C1448 C1446 1.327 . S
C1448 C1467 1.429 . S
C1448 H1472 0.950 . S
C1449 C1466 1.574 . S
C1449 C1468 1.368 . S
C1449 H1473 0.949 . S
H1450 C1454 0.949 . S
C1451 C1452 1.349 . S
C1451 C1453 1.327 . S
C1451 H1474 0.950 . S
C1452 C1451 1.349 . S
C1452 C1464 1.349 . S
C1453 C1451 1.327 . S
C1453 C1469 1.429 . S
C1453 H1475 0.950 . S
C1454 H1450 0.949 . S
C1454 C1462 1.574 . S
C1454 C1470 1.368 . S
H1455 C1463 0.950 . S
H1456 C1461 0.950 . S
H1457 C1462 0.949 . S
H1458 C1464 0.950 . S
H1459 C1465 0.950 . S
H1460 C1466 0.949 . S
C1461 H1456 0.950 . S
C1461 C1463 1.327 . S
C1461 C1467 1.429 . S
C1462 C1454 1.574 . S
C1462 H1457 0.949 . S
C1462 C1468 1.368 . S
C1463 C1447 1.349 . S
C1463 H1455 0.950 . S
C1463 C1461 1.327 . S
C1464 C1452 1.349 . S
C1464 H1458 0.950 . S
C1464 C1465 1.327 . S
C1465 H1459 0.950 . S
C1465 C1464 1.327 . S
C1465 C1469 1.429 . S
C1466 C1449 1.574 . S
C1466 H1460 0.949 . S
C1466 C1470 1.368 . S
C1467 C1448 1.429 . S
C1467 C1461 1.429 . S
C1467 C1468 1.523 . S
C1468 C1449 1.368 . S
C1468 C1462 1.368 . S
C1468 C1467 1.523 . S
C1469 C1453 1.429 . S
C1469 C1465 1.429 . S
C1469 C1470 1.523 . S
C1470 C1454 1.368 . S
C1470 C1466 1.368 . S
C1470 C1469 1.523 . S
H1471 C1446 0.950 . S
H1472 C1448 0.950 . S
H1473 C1449 0.949 . S
H1474 C1451 0.950 . S
H1475 C1453 0.950 . S
C1476 C1477 1.349 . S
C1476 C1478 1.327 . S
C1476 H1501 0.950 . S
C1477 C1476 1.349 . S
C1477 C1493 1.349 . S
C1478 C1476 1.327 . S
C1478 C1497 1.429 . S
C1478 H1502 0.950 . S
C1479 C1496 1.574 1_655 S
C1479 C1498 1.368 . S
C1479 H1503 0.949 . S
H1480 C1484 0.949 . S
C1481 C1482 1.349 . S
C1481 C1483 1.327 . S
C1481 H1504 0.950 . S
C1482 C1481 1.349 . S
C1482 C1494 1.349 . S
C1483 C1481 1.327 . S
C1483 C1499 1.429 . S
C1483 H1505 0.950 . S
C1484 H1480 0.949 . S
C1484 C1492 1.574 1_455 S
C1484 C1500 1.368 . S
H1485 C1493 0.950 . S
H1486 C1491 0.950 . S
H1487 C1492 0.949 . S
H1488 C1494 0.950 . S
H1489 C1495 0.950 . S
H1490 C1496 0.949 . S
C1491 H1486 0.950 . S
C1491 C1493 1.327 . S
C1491 C1497 1.429 . S
C1492 C1484 1.574 1_655 S
C1492 H1487 0.949 . S
C1492 C1498 1.368 . S
C1493 C1477 1.349 . S
C1493 H1485 0.950 . S
C1493 C1491 1.327 . S
C1494 C1482 1.349 . S
C1494 H1488 0.950 . S
C1494 C1495 1.327 . S
C1495 H1489 0.950 . S
C1495 C1494 1.327 . S
C1495 C1499 1.429 . S
C1496 C1479 1.574 1_455 S
C1496 H1490 0.949 . S
C1496 C1500 1.368 . S
C1497 C1478 1.429 . S
C1497 C1491 1.429 . S
C1497 C1498 1.523 . S
C1498 C1479 1.368 . S
C1498 C1492 1.368 . S
C1498 C1497 1.523 . S
C1499 C1483 1.429 . S
C1499 C1495 1.429 . S
C1499 C1500 1.523 . S
C1500 C1484 1.368 . S
C1500 C1496 1.368 . S
C1500 C1499 1.523 . S
H1501 C1476 0.950 . S
H1502 C1478 0.950 . S
H1503 C1479 0.949 . S
H1504 C1481 0.950 . S
H1505 C1483 0.950 . S
C1506 C1507 1.349 . S
C1506 C1508 1.327 . S
C1506 H1531 0.950 . S
C1507 C1506 1.349 . S
C1507 C1523 1.349 . S
C1508 C1506 1.327 . S
C1508 C1527 1.429 . S
C1508 H1532 0.950 . S
C1509 C1526 1.574 1_565 S
C1509 C1528 1.368 . S
C1509 H1533 0.949 . S
H1510 C1514 0.949 . S
C1511 C1512 1.349 . S
C1511 C1513 1.327 . S
C1511 H1534 0.950 . S
C1512 C1511 1.349 . S
C1512 C1524 1.349 . S
C1513 C1511 1.327 . S
C1513 C1529 1.429 . S
C1513 H1535 0.950 . S
C1514 H1510 0.949 . S
C1514 C1522 1.574 1_545 S
C1514 C1530 1.368 . S
H1515 C1523 0.950 . S
H1516 C1521 0.950 . S
H1517 C1522 0.949 . S
H1518 C1524 0.950 . S
H1519 C1525 0.950 . S
H1520 C1526 0.949 . S
C1521 H1516 0.950 . S
C1521 C1523 1.327 . S
C1521 C1527 1.429 . S
C1522 C1514 1.574 1_565 S
C1522 H1517 0.949 . S
C1522 C1528 1.368 . S
C1523 C1507 1.349 . S
C1523 H1515 0.950 . S
C1523 C1521 1.327 . S
C1524 C1512 1.349 . S
C1524 H1518 0.950 . S
C1524 C1525 1.327 . S
C1525 H1519 0.950 . S
C1525 C1524 1.327 . S
C1525 C1529 1.429 . S
C1526 C1509 1.574 1_545 S
C1526 H1520 0.949 . S
C1526 C1530 1.368 . S
C1527 C1508 1.429 . S
C1527 C1521 1.429 . S
C1527 C1528 1.523 . S
C1528 C1509 1.368 . S
C1528 C1522 1.368 . S
C1528 C1527 1.523 . S
C1529 C1513 1.429 . S
C1529 C1525 1.429 . S
C1529 C1530 1.523 . S
C1530 C1514 1.368 . S
C1530 C1526 1.368 . S
C1530 C1529 1.523 . S
H1531 C1506 0.950 . S
H1532 C1508 0.950 . S
H1533 C1509 0.949 . S
H1534 C1511 0.950 . S
H1535 C1513 0.950 . S
C1536 C1537 1.349 . S
C1536 C1538 1.327 . S
C1536 H1561 0.950 . S
C1537 C1536 1.349 . S
C1537 C1553 1.349 . S
C1538 C1536 1.327 . S
C1538 C1557 1.429 . S
C1538 H1562 0.950 . S
C1539 C1556 1.574 . S
C1539 C1558 1.368 . S
C1539 H1563 0.949 . S
H1540 C1544 0.949 . S
C1541 C1542 1.349 . S
C1541 C1543 1.327 . S
C1541 H1564 0.950 . S
C1542 C1541 1.349 . S
C1542 C1554 1.349 . S
C1543 C1541 1.327 . S
C1543 C1559 1.429 . S
C1543 H1565 0.950 . S
C1544 H1540 0.949 . S
C1544 C1552 1.574 . S
C1544 C1560 1.368 . S
H1545 C1553 0.950 . S
H1546 C1551 0.950 . S
H1547 C1552 0.949 . S
H1548 C1554 0.950 . S
H1549 C1555 0.950 . S
H1550 C1556 0.949 . S
C1551 H1546 0.950 . S
C1551 C1553 1.327 . S
C1551 C1557 1.429 . S
C1552 C1544 1.574 . S
C1552 H1547 0.949 . S
C1552 C1558 1.368 . S
C1553 C1537 1.349 . S
C1553 H1545 0.950 . S
C1553 C1551 1.327 . S
C1554 C1542 1.349 . S
C1554 H1548 0.950 . S
C1554 C1555 1.327 . S
C1555 H1549 0.950 . S
C1555 C1554 1.327 . S
C1555 C1559 1.429 . S
C1556 C1539 1.574 . S
C1556 H1550 0.949 . S
C1556 C1560 1.368 . S
C1557 C1538 1.429 . S
C1557 C1551 1.429 . S
C1557 C1558 1.523 . S
C1558 C1539 1.368 . S
C1558 C1552 1.368 . S
C1558 C1557 1.523 . S
C1559 C1543 1.429 . S
C1559 C1555 1.429 . S
C1559 C1560 1.523 . S
C1560 C1544 1.368 . S
C1560 C1556 1.368 . S
C1560 C1559 1.523 . S
H1561 C1536 0.950 . S
H1562 C1538 0.950 . S
H1563 C1539 0.949 . S
H1564 C1541 0.950 . S
H1565 C1543 0.950 . S
C1566 C1567 1.349 . S
C1566 C1568 1.327 . S
C1566 H1591 0.950 . S
C1567 C1566 1.349 . S
C1567 C1583 1.349 . S
C1568 C1566 1.327 . S
C1568 C1587 1.429 . S
C1568 H1592 0.950 . S
C1569 C1586 1.574 1_455 S
C1569 C1588 1.368 . S
C1569 H1593 0.949 . S
H1570 C1574 0.949 . S
C1571 C1572 1.349 . S
C1571 C1573 1.327 . S
C1571 H1594 0.950 . S
C1572 C1571 1.349 . S
C1572 C1584 1.349 . S
C1573 C1571 1.327 . S
C1573 C1589 1.429 . S
C1573 H1595 0.950 . S
C1574 H1570 0.949 . S
C1574 C1582 1.574 1_655 S
C1574 C1590 1.368 . S
H1575 C1583 0.950 . S
H1576 C1581 0.950 . S
H1577 C1582 0.949 . S
H1578 C1584 0.950 . S
H1579 C1585 0.950 . S
H1580 C1586 0.949 . S
C1581 H1576 0.950 . S
C1581 C1583 1.327 . S
C1581 C1587 1.429 . S
C1582 C1574 1.574 1_455 S
C1582 H1577 0.949 . S
C1582 C1588 1.368 . S
C1583 C1567 1.349 . S
C1583 H1575 0.950 . S
C1583 C1581 1.327 . S
C1584 C1572 1.349 . S
C1584 H1578 0.950 . S
C1584 C1585 1.327 . S
C1585 H1579 0.950 . S
C1585 C1584 1.327 . S
C1585 C1589 1.429 . S
C1586 C1569 1.574 1_655 S
C1586 H1580 0.949 . S
C1586 C1590 1.368 . S
C1587 C1568 1.429 . S
C1587 C1581 1.429 . S
C1587 C1588 1.523 . S
C1588 C1569 1.368 . S
C1588 C1582 1.368 . S
C1588 C1587 1.523 . S
C1589 C1573 1.429 . S
C1589 C1585 1.429 . S
C1589 C1590 1.523 . S
C1590 C1574 1.368 . S
C1590 C1586 1.368 . S
C1590 C1589 1.523 . S
H1591 C1566 0.950 . S
H1592 C1568 0.950 . S
H1593 C1569 0.949 . S
H1594 C1571 0.950 . S
H1595 C1573 0.950 . S
C1596 C1597 1.349 . S
C1596 C1598 1.327 . S
C1596 H1621 0.950 . S
C1597 C1596 1.349 . S
C1597 C1613 1.349 . S
C1598 C1596 1.327 . S
C1598 C1617 1.429 . S
C1598 H1622 0.950 . S
C1599 C1616 1.574 1_565 S
C1599 C1618 1.368 . S
C1599 H1623 0.949 . S
H1600 C1604 0.949 . S
C1601 C1602 1.349 . S
C1601 C1603 1.327 . S
C1601 H1624 0.950 . S
C1602 C1601 1.349 . S
C1602 C1614 1.349 . S
C1603 C1601 1.327 . S
C1603 C1619 1.429 . S
C1603 H1625 0.950 . S
C1604 H1600 0.949 . S
C1604 C1612 1.574 1_545 S
C1604 C1620 1.368 . S
H1605 C1613 0.950 . S
H1606 C1611 0.950 . S
H1607 C1612 0.949 . S
H1608 C1614 0.950 . S
H1609 C1615 0.950 . S
H1610 C1616 0.949 . S
C1611 H1606 0.950 . S
C1611 C1613 1.327 . S
C1611 C1617 1.429 . S
C1612 C1604 1.574 1_565 S
C1612 H1607 0.949 . S
C1612 C1618 1.368 . S
C1613 C1597 1.349 . S
C1613 H1605 0.950 . S
C1613 C1611 1.327 . S
C1614 C1602 1.349 . S
C1614 H1608 0.950 . S
C1614 C1615 1.327 . S
C1615 H1609 0.950 . S
C1615 C1614 1.327 . S
C1615 C1619 1.429 . S
C1616 C1599 1.574 1_545 S
C1616 H1610 0.949 . S
C1616 C1620 1.368 . S
C1617 C1598 1.429 . S
C1617 C1611 1.429 . S
C1617 C1618 1.523 . S
C1618 C1599 1.368 . S
C1618 C1612 1.368 . S
C1618 C1617 1.523 . S
C1619 C1603 1.429 . S
C1619 C1615 1.429 . S
C1619 C1620 1.523 . S
C1620 C1604 1.368 . S
C1620 C1616 1.368 . S
C1620 C1619 1.523 . S
H1621 C1596 0.950 . S
H1622 C1598 0.950 . S
H1623 C1599 0.949 . S
H1624 C1601 0.950 . S
H1625 C1603 0.950 . S
C1626 C1627 1.349 . S
C1626 C1628 1.327 . S
C1626 H1651 0.950 . S
C1627 C1626 1.349 . S
C1627 C1643 1.349 . S
C1628 C1626 1.327 . S
C1628 C1647 1.429 . S
C1628 H1652 0.950 . S
C1629 C1646 1.574 . S
C1629 C1648 1.368 . S
C1629 H1653 0.949 . S
H1630 C1634 0.949 . S
C1631 C1632 1.349 . S
C1631 C1633 1.327 . S
C1631 H1654 0.950 . S
C1632 C1631 1.349 . S
C1632 C1644 1.349 . S
C1633 C1631 1.327 . S
C1633 C1649 1.429 . S
C1633 H1655 0.950 . S
C1634 H1630 0.949 . S
C1634 C1642 1.574 . S
C1634 C1650 1.368 . S
H1635 C1643 0.950 . S
H1636 C1641 0.950 . S
H1637 C1642 0.949 . S
H1638 C1644 0.950 . S
H1639 C1645 0.950 . S
H1640 C1646 0.949 . S
C1641 H1636 0.950 . S
C1641 C1643 1.327 . S
C1641 C1647 1.429 . S
C1642 C1634 1.574 . S
C1642 H1637 0.949 . S
C1642 C1648 1.368 . S
C1643 C1627 1.349 . S
C1643 H1635 0.950 . S
C1643 C1641 1.327 . S
C1644 C1632 1.349 . S
C1644 H1638 0.950 . S
C1644 C1645 1.327 . S
C1645 H1639 0.950 . S
C1645 C1644 1.327 . S
C1645 C1649 1.429 . S
C1646 C1629 1.574 . S
C1646 H1640 0.949 . S
C1646 C1650 1.368 . S
C1647 C1628 1.429 . S
C1647 C1641 1.429 . S
C1647 C1648 1.523 . S
C1648 C1629 1.368 . S
C1648 C1642 1.368 . S
C1648 C1647 1.523 . S
C1649 C1633 1.429 . S
C1649 C1645 1.429 . S
C1649 C1650 1.523 . S
C1650 C1634 1.368 . S
C1650 C1646 1.368 . S
C1650 C1649 1.523 . S
H1651 C1626 0.950 . S
H1652 C1628 0.950 . S
H1653 C1629 0.949 . S
H1654 C1631 0.950 . S
H1655 C1633 0.950 . S
C1656 C1657 1.349 . S
C1656 C1658 1.327 . S
C1656 H1681 0.950 . S
C1657 C1656 1.349 . S
C1657 C1673 1.349 . S
C1658 C1656 1.327 . S
C1658 C1677 1.429 . S
C1658 H1682 0.950 . S
C1659 C1676 1.574 1_655 S
C1659 C1678 1.368 . S
C1659 H1683 0.949 . S
H1660 C1664 0.949 . S
C1661 C1662 1.349 . S
C1661 C1663 1.327 . S
C1661 H1684 0.950 . S
C1662 C1661 1.349 . S
C1662 C1674 1.349 . S
C1663 C1661 1.327 . S
C1663 C1679 1.429 . S
C1663 H1685 0.950 . S
C1664 H1660 0.949 . S
C1664 C1672 1.574 1_455 S
C1664 C1680 1.368 . S
H1665 C1673 0.950 . S
H1666 C1671 0.950 . S
H1667 C1672 0.949 . S
H1668 C1674 0.950 . S
H1669 C1675 0.950 . S
H1670 C1676 0.949 . S
C1671 H1666 0.950 . S
C1671 C1673 1.327 . S
C1671 C1677 1.429 . S
C1672 C1664 1.574 1_655 S
C1672 H1667 0.949 . S
C1672 C1678 1.368 . S
C1673 C1657 1.349 . S
C1673 H1665 0.950 . S
C1673 C1671 1.327 . S
C1674 C1662 1.349 . S
C1674 H1668 0.950 . S
C1674 C1675 1.327 . S
C1675 H1669 0.950 . S
C1675 C1674 1.327 . S
C1675 C1679 1.429 . S
C1676 C1659 1.574 1_455 S
C1676 H1670 0.949 . S
C1676 C1680 1.368 . S
C1677 C1658 1.429 . S
C1677 C1671 1.429 . S
C1677 C1678 1.523 . S
C1678 C1659 1.368 . S
C1678 C1672 1.368 . S
C1678 C1677 1.523 . S
C1679 C1663 1.429 . S
C1679 C1675 1.429 . S
C1679 C1680 1.523 . S
C1680 C1664 1.368 . S
C1680 C1676 1.368 . S
C1680 C1679 1.523 . S
H1681 C1656 0.950 . S
H1682 C1658 0.950 . S
H1683 C1659 0.949 . S
H1684 C1661 0.950 . S
H1685 C1663 0.950 . S
C1686 C1687 1.349 . S
C1686 C1688 1.327 . S
C1686 H1711 0.950 . S
C1687 C1686 1.349 . S
C1687 C1703 1.349 . S
C1688 C1686 1.327 . S
C1688 C1707 1.429 . S
C1688 H1712 0.950 . S
C1689 C1706 1.574 1_545 S
C1689 C1708 1.368 . S
C1689 H1713 0.949 . S
H1690 C1694 0.949 . S
C1691 C1692 1.349 . S
C1691 C1693 1.327 . S
C1691 H1714 0.950 . S
C1692 C1691 1.349 . S
C1692 C1704 1.349 . S
C1693 C1691 1.327 . S
C1693 C1709 1.429 . S
C1693 H1715 0.950 . S
C1694 H1690 0.949 . S
C1694 C1702 1.574 1_565 S
C1694 C1710 1.368 . S
H1695 C1703 0.950 . S
H1696 C1701 0.950 . S
H1697 C1702 0.949 . S
H1698 C1704 0.950 . S
H1699 C1705 0.950 . S
H1700 C1706 0.949 . S
C1701 H1696 0.950 . S
C1701 C1703 1.327 . S
C1701 C1707 1.429 . S
C1702 C1694 1.574 1_545 S
C1702 H1697 0.949 . S
C1702 C1708 1.368 . S
C1703 C1687 1.349 . S
C1703 H1695 0.950 . S
C1703 C1701 1.327 . S
C1704 C1692 1.349 . S
C1704 H1698 0.950 . S
C1704 C1705 1.327 . S
C1705 H1699 0.950 . S
C1705 C1704 1.327 . S
C1705 C1709 1.429 . S
C1706 C1689 1.574 1_565 S
C1706 H1700 0.949 . S
C1706 C1710 1.368 . S
C1707 C1688 1.429 . S
C1707 C1701 1.429 . S
C1707 C1708 1.523 . S
C1708 C1689 1.368 . S
C1708 C1702 1.368 . S
C1708 C1707 1.523 . S
C1709 C1693 1.429 . S
C1709 C1705 1.429 . S
C1709 C1710 1.523 . S
C1710 C1694 1.368 . S
C1710 C1706 1.368 . S
C1710 C1709 1.523 . S
H1711 C1686 0.950 . S
H1712 C1688 0.950 . S
H1713 C1689 0.949 . S
H1714 C1691 0.950 . S
H1715 C1693 0.950 . S
C1716 C1717 1.349 . S
C1716 C1718 1.327 . S
C1716 H1741 0.950 . S
C1717 C1716 1.349 . S
C1717 C1733 1.349 . S
C1718 C1716 1.327 . S
C1718 C1737 1.429 . S
C1718 H1742 0.950 . S
C1719 C1736 1.574 . S
C1719 C1738 1.368 . S
C1719 H1743 0.949 . S
H1720 C1724 0.949 . S
C1721 C1722 1.349 . S
C1721 C1723 1.327 . S
C1721 H1744 0.950 . S
C1722 C1721 1.349 . S
C1722 C1734 1.349 . S
C1723 C1721 1.327 . S
C1723 C1739 1.429 . S
C1723 H1745 0.950 . S
C1724 H1720 0.949 . S
C1724 C1732 1.574 . S
C1724 C1740 1.368 . S
H1725 C1733 0.950 . S
H1726 C1731 0.950 . S
H1727 C1732 0.949 . S
H1728 C1734 0.950 . S
H1729 C1735 0.950 . S
H1730 C1736 0.949 . S
C1731 H1726 0.950 . S
C1731 C1733 1.327 . S
C1731 C1737 1.429 . S
C1732 C1724 1.574 . S
C1732 H1727 0.949 . S
C1732 C1738 1.368 . S
C1733 C1717 1.349 . S
C1733 H1725 0.950 . S
C1733 C1731 1.327 . S
C1734 C1722 1.349 . S
C1734 H1728 0.950 . S
C1734 C1735 1.327 . S
C1735 H1729 0.950 . S
C1735 C1734 1.327 . S
C1735 C1739 1.429 . S
C1736 C1719 1.574 . S
C1736 H1730 0.949 . S
C1736 C1740 1.368 . S
C1737 C1718 1.429 . S
C1737 C1731 1.429 . S
C1737 C1738 1.523 . S
C1738 C1719 1.368 . S
C1738 C1732 1.368 . S
C1738 C1737 1.523 . S
C1739 C1723 1.429 . S
C1739 C1735 1.429 . S
C1739 C1740 1.523 . S
C1740 C1724 1.368 . S
C1740 C1736 1.368 . S
C1740 C1739 1.523 . S
H1741 C1716 0.950 . S
H1742 C1718 0.950 . S
H1743 C1719 0.949 . S
H1744 C1721 0.950 . S
H1745 C1723 0.950 . S
C1746 C1747 1.349 . S
C1746 C1748 1.327 . S
C1746 H1771 0.950 . S
C1747 C1746 1.349 . S
C1747 C1763 1.349 . S
C1748 C1746 1.327 . S
C1748 C1767 1.429 . S
C1748 H1772 0.950 . S
C1749 C1766 1.574 1_455 S
C1749 C1768 1.368 . S
C1749 H1773 0.949 . S
H1750 C1754 0.949 . S
C1751 C1752 1.349 . S
C1751 C1753 1.327 . S
C1751 H1774 0.950 . S
C1752 C1751 1.349 . S
C1752 C1764 1.349 . S
C1753 C1751 1.327 . S
C1753 C1769 1.429 . S
C1753 H1775 0.950 . S
C1754 H1750 0.949 . S
C1754 C1762 1.574 1_655 S
C1754 C1770 1.368 . S
H1755 C1763 0.950 . S
H1756 C1761 0.950 . S
H1757 C1762 0.949 . S
H1758 C1764 0.950 . S
H1759 C1765 0.950 . S
H1760 C1766 0.949 . S
C1761 H1756 0.950 . S
C1761 C1763 1.327 . S
C1761 C1767 1.429 . S
C1762 C1754 1.574 1_455 S
C1762 H1757 0.949 . S
C1762 C1768 1.368 . S
C1763 C1747 1.349 . S
C1763 H1755 0.950 . S
C1763 C1761 1.327 . S
C1764 C1752 1.349 . S
C1764 H1758 0.950 . S
C1764 C1765 1.327 . S
C1765 H1759 0.950 . S
C1765 C1764 1.327 . S
C1765 C1769 1.429 . S
C1766 C1749 1.574 1_655 S
C1766 H1760 0.949 . S
C1766 C1770 1.368 . S
C1767 C1748 1.429 . S
C1767 C1761 1.429 . S
C1767 C1768 1.523 . S
C1768 C1749 1.368 . S
C1768 C1762 1.368 . S
C1768 C1767 1.523 . S
C1769 C1753 1.429 . S
C1769 C1765 1.429 . S
C1769 C1770 1.523 . S
C1770 C1754 1.368 . S
C1770 C1766 1.368 . S
C1770 C1769 1.523 . S
H1771 C1746 0.950 . S
H1772 C1748 0.950 . S
H1773 C1749 0.949 . S
H1774 C1751 0.950 . S
H1775 C1753 0.950 . S
C1776 C1777 1.349 . S
C1776 C1778 1.327 . S
C1776 H1801 0.950 . S
C1777 C1776 1.349 . S
C1777 C1793 1.349 . S
C1778 C1776 1.327 . S
C1778 C1797 1.429 . S
C1778 H1802 0.950 . S
C1779 C1796 1.574 . S
C1779 C1798 1.368 . S
C1779 H1803 0.949 . S
H1780 C1784 0.949 . S
C1781 C1782 1.349 . S
C1781 C1783 1.327 . S
C1781 H1804 0.950 . S
C1782 C1781 1.349 . S
C1782 C1794 1.349 . S
C1783 C1781 1.327 . S
C1783 C1799 1.429 . S
C1783 H1805 0.950 . S
C1784 H1780 0.949 . S
C1784 C1792 1.574 . S
C1784 C1800 1.368 . S
H1785 C1793 0.950 . S
H1786 C1791 0.950 . S
H1787 C1792 0.949 . S
H1788 C1794 0.950 . S
H1789 C1795 0.950 . S
H1790 C1796 0.949 . S
C1791 H1786 0.950 . S
C1791 C1793 1.327 . S
C1791 C1797 1.429 . S
C1792 C1784 1.574 . S
C1792 H1787 0.949 . S
C1792 C1798 1.368 . S
C1793 C1777 1.349 . S
C1793 H1785 0.950 . S
C1793 C1791 1.327 . S
C1794 C1782 1.349 . S
C1794 H1788 0.950 . S
C1794 C1795 1.327 . S
C1795 H1789 0.950 . S
C1795 C1794 1.327 . S
C1795 C1799 1.429 . S
C1796 C1779 1.574 . S
C1796 H1790 0.949 . S
C1796 C1800 1.368 . S
C1797 C1778 1.429 . S
C1797 C1791 1.429 . S
C1797 C1798 1.523 . S
C1798 C1779 1.368 . S
C1798 C1792 1.368 . S
C1798 C1797 1.523 . S
C1799 C1783 1.429 . S
C1799 C1795 1.429 . S
C1799 C1800 1.523 . S
C1800 C1784 1.368 . S
C1800 C1796 1.368 . S
C1800 C1799 1.523 . S
H1801 C1776 0.950 . S
H1802 C1778 0.950 . S
H1803 C1779 0.949 . S
H1804 C1781 0.950 . S
H1805 C1783 0.950 . S
C1806 C1807 1.349 . S
C1806 C1808 1.327 . S
C1806 H1831 0.950 . S
C1807 C1806 1.349 . S
C1807 C1823 1.349 . S
C1808 C1806 1.327 . S
C1808 C1827 1.429 . S
C1808 H1832 0.950 . S
C1809 C1826 1.574 . S
C1809 C1828 1.368 . S
C1809 H1833 0.949 . S
H1810 C1814 0.949 . S
C1811 C1812 1.349 . S
C1811 C1813 1.327 . S
C1811 H1834 0.950 . S
C1812 C1811 1.349 . S
C1812 C1824 1.349 . S
C1813 C1811 1.327 . S
C1813 C1829 1.429 . S
C1813 H1835 0.950 . S
C1814 H1810 0.949 . S
C1814 C1822 1.574 . S
C1814 C1830 1.368 . S
H1815 C1823 0.950 . S
H1816 C1821 0.950 . S
H1817 C1822 0.949 . S
H1818 C1824 0.950 . S
H1819 C1825 0.950 . S
H1820 C1826 0.949 . S
C1821 H1816 0.950 . S
C1821 C1823 1.327 . S
C1821 C1827 1.429 . S
C1822 C1814 1.574 . S
C1822 H1817 0.949 . S
C1822 C1828 1.368 . S
C1823 C1807 1.349 . S
C1823 H1815 0.950 . S
C1823 C1821 1.327 . S
C1824 C1812 1.349 . S
C1824 H1818 0.950 . S
C1824 C1825 1.327 . S
C1825 H1819 0.950 . S
C1825 C1824 1.327 . S
C1825 C1829 1.429 . S
C1826 C1809 1.574 . S
C1826 H1820 0.949 . S
C1826 C1830 1.368 . S
C1827 C1808 1.429 . S
C1827 C1821 1.429 . S
C1827 C1828 1.523 . S
C1828 C1809 1.368 . S
C1828 C1822 1.368 . S
C1828 C1827 1.523 . S
C1829 C1813 1.429 . S
C1829 C1825 1.429 . S
C1829 C1830 1.523 . S
C1830 C1814 1.368 . S
C1830 C1826 1.368 . S
C1830 C1829 1.523 . S
H1831 C1806 0.950 . S
H1832 C1808 0.950 . S
H1833 C1809 0.949 . S
H1834 C1811 0.950 . S
H1835 C1813 0.950 . S
C1836 C1837 1.349 . S
C1836 C1838 1.327 . S
C1836 H1861 0.950 . S
C1837 C1836 1.349 . S
C1837 C1853 1.349 . S
C1838 C1836 1.327 . S
C1838 C1857 1.429 . S
C1838 H1862 0.950 . S
C1839 C1856 1.574 . S
C1839 C1858 1.368 . S
C1839 H1863 0.949 . S
H1840 C1844 0.949 . S
C1841 C1842 1.349 . S
C1841 C1843 1.327 . S
C1841 H1864 0.950 . S
C1842 C1841 1.349 . S
C1842 C1854 1.349 . S
C1843 C1841 1.327 . S
C1843 C1859 1.429 . S
C1843 H1865 0.950 . S
C1844 H1840 0.949 . S
C1844 C1852 1.574 . S
C1844 C1860 1.368 . S
H1845 C1853 0.950 . S
H1846 C1851 0.950 . S
H1847 C1852 0.949 . S
H1848 C1854 0.950 . S
H1849 C1855 0.950 . S
H1850 C1856 0.949 . S
C1851 H1846 0.950 . S
C1851 C1853 1.327 . S
C1851 C1857 1.429 . S
C1852 C1844 1.574 . S
C1852 H1847 0.949 . S
C1852 C1858 1.368 . S
C1853 C1837 1.349 . S
C1853 H1845 0.950 . S
C1853 C1851 1.327 . S
C1854 C1842 1.349 . S
C1854 H1848 0.950 . S
C1854 C1855 1.327 . S
C1855 H1849 0.950 . S
C1855 C1854 1.327 . S
C1855 C1859 1.429 . S
C1856 C1839 1.574 . S
C1856 H1850 0.949 . S
C1856 C1860 1.368 . S
C1857 C1838 1.429 . S
C1857 C1851 1.429 . S
C1857 C1858 1.523 . S
C1858 C1839 1.368 . S
C1858 C1852 1.368 . S
C1858 C1857 1.523 . S
C1859 C1843 1.429 . S
C1859 C1855 1.429 . S
C1859 C1860 1.523 . S
C1860 C1844 1.368 . S
C1860 C1856 1.368 . S
C1860 C1859 1.523 . S
H1861 C1836 0.950 . S
H1862 C1838 0.950 . S
H1863 C1839 0.949 . S
H1864 C1841 0.950 . S
H1865 C1843 0.950 . S
C1866 C1867 1.349 . S
C1866 C1868 1.327 . S
C1866 H1891 0.950 . S
C1867 C1866 1.349 . S
C1867 C1883 1.349 . S
C1868 C1866 1.327 . S
C1868 C1887 1.429 . S
C1868 H1892 0.950 . S
C1869 C1886 1.574 . S
C1869 C1888 1.368 . S
C1869 H1893 0.949 . S
H1870 C1874 0.949 . S
C1871 C1872 1.349 . S
C1871 C1873 1.327 . S
C1871 H1894 0.950 . S
C1872 C1871 1.349 . S
C1872 C1884 1.349 . S
C1873 C1871 1.327 . S
C1873 C1889 1.429 . S
C1873 H1895 0.950 . S
C1874 H1870 0.949 . S
C1874 C1882 1.574 . S
C1874 C1890 1.368 . S
H1875 C1883 0.950 . S
H1876 C1881 0.950 . S
H1877 C1882 0.949 . S
H1878 C1884 0.950 . S
H1879 C1885 0.950 . S
H1880 C1886 0.949 . S
C1881 H1876 0.950 . S
C1881 C1883 1.327 . S
C1881 C1887 1.429 . S
C1882 C1874 1.574 . S
C1882 H1877 0.949 . S
C1882 C1888 1.368 . S
C1883 C1867 1.349 . S
C1883 H1875 0.950 . S
C1883 C1881 1.327 . S
C1884 C1872 1.349 . S
C1884 H1878 0.950 . S
C1884 C1885 1.327 . S
C1885 H1879 0.950 . S
C1885 C1884 1.327 . S
C1885 C1889 1.429 . S
C1886 C1869 1.574 . S
C1886 H1880 0.949 . S
C1886 C1890 1.368 . S
C1887 C1868 1.429 . S
C1887 C1881 1.429 . S
C1887 C1888 1.523 . S
C1888 C1869 1.368 . S
C1888 C1882 1.368 . S
C1888 C1887 1.523 . S
C1889 C1873 1.429 . S
C1889 C1885 1.429 . S
C1889 C1890 1.523 . S
C1890 C1874 1.368 . S
C1890 C1886 1.368 . S
C1890 C1889 1.523 . S
H1891 C1866 0.950 . S
H1892 C1868 0.950 . S
H1893 C1869 0.949 . S
H1894 C1871 0.950 . S
H1895 C1873 0.950 . S
C1896 C1897 1.349 . S
C1896 C1898 1.327 . S
C1896 H1921 0.950 . S
C1897 C1896 1.349 . S
C1897 C1913 1.349 . S
C1898 C1896 1.327 . S
C1898 C1917 1.429 . S
C1898 H1922 0.950 . S
C1899 C1916 1.574 . S
C1899 C1918 1.368 . S
C1899 H1923 0.949 . S
H1900 C1904 0.949 . S
C1901 C1902 1.349 . S
C1901 C1903 1.327 . S
C1901 H1924 0.950 . S
C1902 C1901 1.349 . S
C1902 C1914 1.349 . S
C1903 C1901 1.327 . S
C1903 C1919 1.429 . S
C1903 H1925 0.950 . S
C1904 H1900 0.949 . S
C1904 C1912 1.574 . S
C1904 C1920 1.368 . S
H1905 C1913 0.950 . S
H1906 C1911 0.950 . S
H1907 C1912 0.949 . S
H1908 C1914 0.950 . S
H1909 C1915 0.950 . S
H1910 C1916 0.949 . S
C1911 H1906 0.950 . S
C1911 C1913 1.327 . S
C1911 C1917 1.429 . S
C1912 C1904 1.574 . S
C1912 H1907 0.949 . S
C1912 C1918 1.368 . S
C1913 C1897 1.349 . S
C1913 H1905 0.950 . S
C1913 C1911 1.327 . S
C1914 C1902 1.349 . S
C1914 H1908 0.950 . S
C1914 C1915 1.327 . S
C1915 H1909 0.950 . S
C1915 C1914 1.327 . S
C1915 C1919 1.429 . S
C1916 C1899 1.574 . S
C1916 H1910 0.949 . S
C1916 C1920 1.368 . S
C1917 C1898 1.429 . S
C1917 C1911 1.429 . S
C1917 C1918 1.523 . S
C1918 C1899 1.368 . S
C1918 C1912 1.368 . S
C1918 C1917 1.523 . S
C1919 C1903 1.429 . S
C1919 C1915 1.429 . S
C1919 C1920 1.523 . S
C1920 C1904 1.368 . S
C1920 C1916 1.368 . S
C1920 C1919 1.523 . S
H1921 C1896 0.950 . S
H1922 C1898 0.950 . S
H1923 C1899 0.949 . S
H1924 C1901 0.950 . S
H1925 C1903 0.950 . S
C1926 C1927 1.349 . S
C1926 C1928 1.327 . S
C1926 H1951 0.950 . S
C1927 C1926 1.349 . S
C1927 C1943 1.349 . S
C1928 C1926 1.327 . S
C1928 C1947 1.429 . S
C1928 H1952 0.950 . S
C1929 C1946 1.574 . S
C1929 C1948 1.368 . S
C1929 H1953 0.949 . S
H1930 C1934 0.949 . S
C1931 C1932 1.349 . S
C1931 C1933 1.327 . S
C1931 H1954 0.950 . S
C1932 C1931 1.349 . S
C1932 C1944 1.349 . S
C1933 C1931 1.327 . S
C1933 C1949 1.429 . S
C1933 H1955 0.950 . S
C1934 H1930 0.949 . S
C1934 C1942 1.574 . S
C1934 C1950 1.368 . S
H1935 C1943 0.950 . S
H1936 C1941 0.950 . S
H1937 C1942 0.949 . S
H1938 C1944 0.950 . S
H1939 C1945 0.950 . S
H1940 C1946 0.949 . S
C1941 H1936 0.950 . S
C1941 C1943 1.327 . S
C1941 C1947 1.429 . S
C1942 C1934 1.574 . S
C1942 H1937 0.949 . S
C1942 C1948 1.368 . S
C1943 C1927 1.349 . S
C1943 H1935 0.950 . S
C1943 C1941 1.327 . S
C1944 C1932 1.349 . S
C1944 H1938 0.950 . S
C1944 C1945 1.327 . S
C1945 H1939 0.950 . S
C1945 C1944 1.327 . S
C1945 C1949 1.429 . S
C1946 C1929 1.574 . S
C1946 H1940 0.949 . S
C1946 C1950 1.368 . S
C1947 C1928 1.429 . S
C1947 C1941 1.429 . S
C1947 C1948 1.523 . S
C1948 C1929 1.368 . S
C1948 C1942 1.368 . S
C1948 C1947 1.523 . S
C1949 C1933 1.429 . S
C1949 C1945 1.429 . S
C1949 C1950 1.523 . S
C1950 C1934 1.368 . S
C1950 C1946 1.368 . S
C1950 C1949 1.523 . S
H1951 C1926 0.950 . S
H1952 C1928 0.950 . S
H1953 C1929 0.949 . S
H1954 C1931 0.950 . S
H1955 C1933 0.950 . S
C1956 C1957 1.349 . S
C1956 C1958 1.327 . S
C1956 H1981 0.950 . S
C1957 C1956 1.349 . S
C1957 C1973 1.349 . S
C1958 C1956 1.327 . S
C1958 C1977 1.429 . S
C1958 H1982 0.950 . S
C1959 C1976 1.574 . S
C1959 C1978 1.368 . S
C1959 H1983 0.949 . S
H1960 C1964 0.949 . S
C1961 C1962 1.349 . S
C1961 C1963 1.327 . S
C1961 H1984 0.950 . S
C1962 C1961 1.349 . S
C1962 C1974 1.349 . S
C1963 C1961 1.327 . S
C1963 C1979 1.429 . S
C1963 H1985 0.950 . S
C1964 H1960 0.949 . S
C1964 C1972 1.574 . S
C1964 C1980 1.368 . S
H1965 C1973 0.950 . S
H1966 C1971 0.950 . S
H1967 C1972 0.949 . S
H1968 C1974 0.950 . S
H1969 C1975 0.950 . S
H1970 C1976 0.949 . S
C1971 H1966 0.950 . S
C1971 C1973 1.327 . S
C1971 C1977 1.429 . S
C1972 C1964 1.574 . S
C1972 H1967 0.949 . S
C1972 C1978 1.368 . S
C1973 C1957 1.349 . S
C1973 H1965 0.950 . S
C1973 C1971 1.327 . S
C1974 C1962 1.349 . S
C1974 H1968 0.950 . S
C1974 C1975 1.327 . S
C1975 H1969 0.950 . S
C1975 C1974 1.327 . S
C1975 C1979 1.429 . S
C1976 C1959 1.574 . S
C1976 H1970 0.949 . S
C1976 C1980 1.368 . S
C1977 C1958 1.429 . S
C1977 C1971 1.429 . S
C1977 C1978 1.523 . S
C1978 C1959 1.368 . S
C1978 C1972 1.368 . S
C1978 C1977 1.523 . S
C1979 C1963 1.429 . S
C1979 C1975 1.429 . S
C1979 C1980 1.523 . S
C1980 C1964 1.368 . S
C1980 C1976 1.368 . S
C1980 C1979 1.523 . S
H1981 C1956 0.950 . S
H1982 C1958 0.950 . S
H1983 C1959 0.949 . S
H1984 C1961 0.950 . S
H1985 C1963 0.950 . S
C1986 C1987 1.349 . S
C1986 C1988 1.327 . S
C1986 H2011 0.950 . S
C1987 C1986 1.349 . S
C1987 C2003 1.349 . S
C1988 C1986 1.327 . S
C1988 C2007 1.429 . S
C1988 H2012 0.950 . S
C1989 C2006 1.574 . S
C1989 C2008 1.368 . S
C1989 H2013 0.949 . S
H1990 C1994 0.949 . S
C1991 C1992 1.349 . S
C1991 C1993 1.327 . S
C1991 H2014 0.950 . S
C1992 C1991 1.349 . S
C1992 C2004 1.349 . S
C1993 C1991 1.327 . S
C1993 C2009 1.429 . S
C1993 H2015 0.950 . S
C1994 H1990 0.949 . S
C1994 C2002 1.574 . S
C1994 C2010 1.368 . S
H1995 C2003 0.950 . S
H1996 C2001 0.950 . S
H1997 C2002 0.949 . S
H1998 C2004 0.950 . S
H1999 C2005 0.950 . S
H2000 C2006 0.949 . S
C2001 H1996 0.950 . S
C2001 C2003 1.327 . S
C2001 C2007 1.429 . S
C2002 C1994 1.574 . S
C2002 H1997 0.949 . S
C2002 C2008 1.368 . S
C2003 C1987 1.349 . S
C2003 H1995 0.950 . S
C2003 C2001 1.327 . S
C2004 C1992 1.349 . S
C2004 H1998 0.950 . S
C2004 C2005 1.327 . S
C2005 H1999 0.950 . S
C2005 C2004 1.327 . S
C2005 C2009 1.429 . S
C2006 C1989 1.574 . S
C2006 H2000 0.949 . S
C2006 C2010 1.368 . S
C2007 C1988 1.429 . S
C2007 C2001 1.429 . S
C2007 C2008 1.523 . S
C2008 C1989 1.368 . S
C2008 C2002 1.368 . S
C2008 C2007 1.523 . S
C2009 C1993 1.429 . S
C2009 C2005 1.429 . S
C2009 C2010 1.523 . S
C2010 C1994 1.368 . S
C2010 C2006 1.368 . S
C2010 C2009 1.523 . S
H2011 C1986 0.950 . S
H2012 C1988 0.950 . S
H2013 C1989 0.949 . S
H2014 C1991 0.950 . S
H2015 C1993 0.950 . S
C2016 C2017 1.349 . S
C2016 C2018 1.327 . S
C2016 H2041 0.950 . S
C2017 C2016 1.349 . S
C2017 C2033 1.349 . S
C2018 C2016 1.327 . S
C2018 C2037 1.429 . S
C2018 H2042 0.950 . S
C2019 C2036 1.574 . S
C2019 C2038 1.368 . S
C2019 H2043 0.949 . S
H2020 C2024 0.949 . S
C2021 C2022 1.349 . S
C2021 C2023 1.327 . S
C2021 H2044 0.950 . S
C2022 C2021 1.349 . S
C2022 C2034 1.349 . S
C2023 C2021 1.327 . S
C2023 C2039 1.429 . S
C2023 H2045 0.950 . S
C2024 H2020 0.949 . S
C2024 C2032 1.574 . S
C2024 C2040 1.368 . S
H2025 C2033 0.950 . S
H2026 C2031 0.950 . S
H2027 C2032 0.949 . S
H2028 C2034 0.950 . S
H2029 C2035 0.950 . S
H2030 C2036 0.949 . S
C2031 H2026 0.950 . S
C2031 C2033 1.327 . S
C2031 C2037 1.429 . S
C2032 C2024 1.574 . S
C2032 H2027 0.949 . S
C2032 C2038 1.368 . S
C2033 C2017 1.349 . S
C2033 H2025 0.950 . S
C2033 C2031 1.327 . S
C2034 C2022 1.349 . S
C2034 H2028 0.950 . S
C2034 C2035 1.327 . S
C2035 H2029 0.950 . S
C2035 C2034 1.327 . S
C2035 C2039 1.429 . S
C2036 C2019 1.574 . S
C2036 H2030 0.949 . S
C2036 C2040 1.368 . S
C2037 C2018 1.429 . S
C2037 C2031 1.429 . S
C2037 C2038 1.523 . S
C2038 C2019 1.368 . S
C2038 C2032 1.368 . S
C2038 C2037 1.523 . S
C2039 C2023 1.429 . S
C2039 C2035 1.429 . S
C2039 C2040 1.523 . S
C2040 C2024 1.368 . S
C2040 C2036 1.368 . S
C2040 C2039 1.523 . S
H2041 C2016 0.950 . S
H2042 C2018 0.950 . S
H2043 C2019 0.949 . S
H2044 C2021 0.950 . S
H2045 C2023 0.950 . S
C2046 C2047 1.349 . S
C2046 C2048 1.327 . S
C2046 H2071 0.950 . S
C2047 C2046 1.349 . S
C2047 C2063 1.349 . S
C2048 C2046 1.327 . S
C2048 C2067 1.429 . S
C2048 H2072 0.950 . S
C2049 C2066 1.574 . S
C2049 C2068 1.368 . S
C2049 H2073 0.949 . S
H2050 C2054 0.949 . S
C2051 C2052 1.349 . S
C2051 C2053 1.327 . S
C2051 H2074 0.950 . S
C2052 C2051 1.349 . S
C2052 C2064 1.349 . S
C2053 C2051 1.327 . S
C2053 C2069 1.429 . S
C2053 H2075 0.950 . S
C2054 H2050 0.949 . S
C2054 C2062 1.574 . S
C2054 C2070 1.368 . S
H2055 C2063 0.950 . S
H2056 C2061 0.950 . S
H2057 C2062 0.949 . S
H2058 C2064 0.950 . S
H2059 C2065 0.950 . S
H2060 C2066 0.949 . S
C2061 H2056 0.950 . S
C2061 C2063 1.327 . S
C2061 C2067 1.429 . S
C2062 C2054 1.574 . S
C2062 H2057 0.949 . S
C2062 C2068 1.368 . S
C2063 C2047 1.349 . S
C2063 H2055 0.950 . S
C2063 C2061 1.327 . S
C2064 C2052 1.349 . S
C2064 H2058 0.950 . S
C2064 C2065 1.327 . S
C2065 H2059 0.950 . S
C2065 C2064 1.327 . S
C2065 C2069 1.429 . S
C2066 C2049 1.574 . S
C2066 H2060 0.949 . S
C2066 C2070 1.368 . S
C2067 C2048 1.429 . S
C2067 C2061 1.429 . S
C2067 C2068 1.523 . S
C2068 C2049 1.368 . S
C2068 C2062 1.368 . S
C2068 C2067 1.523 . S
C2069 C2053 1.429 . S
C2069 C2065 1.429 . S
C2069 C2070 1.523 . S
C2070 C2054 1.368 . S
C2070 C2066 1.368 . S
C2070 C2069 1.523 . S
H2071 C2046 0.950 . S
H2072 C2048 0.950 . S
H2073 C2049 0.949 . S
H2074 C2051 0.950 . S
H2075 C2053 0.950 . S
C2076 C2077 1.349 . S
C2076 C2078 1.327 . S
C2076 H2101 0.950 . S
C2077 C2076 1.349 . S
C2077 C2093 1.349 . S
C2078 C2076 1.327 . S
C2078 C2097 1.429 . S
C2078 H2102 0.950 . S
C2079 C2096 1.574 . S
C2079 C2098 1.368 . S
C2079 H2103 0.949 . S
H2080 C2084 0.949 . S
C2081 C2082 1.349 . S
C2081 C2083 1.327 . S
C2081 H2104 0.950 . S
C2082 C2081 1.349 . S
C2082 C2094 1.349 . S
C2083 C2081 1.327 . S
C2083 C2099 1.429 . S
C2083 H2105 0.950 . S
C2084 H2080 0.949 . S
C2084 C2092 1.574 . S
C2084 C2100 1.368 . S
H2085 C2093 0.950 . S
H2086 C2091 0.950 . S
H2087 C2092 0.949 . S
H2088 C2094 0.950 . S
H2089 C2095 0.950 . S
H2090 C2096 0.949 . S
C2091 H2086 0.950 . S
C2091 C2093 1.327 . S
C2091 C2097 1.429 . S
C2092 C2084 1.574 . S
C2092 H2087 0.949 . S
C2092 C2098 1.368 . S
C2093 C2077 1.349 . S
C2093 H2085 0.950 . S
C2093 C2091 1.327 . S
C2094 C2082 1.349 . S
C2094 H2088 0.950 . S
C2094 C2095 1.327 . S
C2095 H2089 0.950 . S
C2095 C2094 1.327 . S
C2095 C2099 1.429 . S
C2096 C2079 1.574 . S
C2096 H2090 0.949 . S
C2096 C2100 1.368 . S
C2097 C2078 1.429 . S
C2097 C2091 1.429 . S
C2097 C2098 1.523 . S
C2098 C2079 1.368 . S
C2098 C2092 1.368 . S
C2098 C2097 1.523 . S
C2099 C2083 1.429 . S
C2099 C2095 1.429 . S
C2099 C2100 1.523 . S
C2100 C2084 1.368 . S
C2100 C2096 1.368 . S
C2100 C2099 1.523 . S
H2101 C2076 0.950 . S
H2102 C2078 0.950 . S
H2103 C2079 0.949 . S
H2104 C2081 0.950 . S
H2105 C2083 0.950 . S
C2106 C2107 1.349 . S
C2106 C2108 1.327 . S
C2106 H2131 0.950 . S
C2107 C2106 1.349 . S
C2107 C2123 1.349 . S
C2108 C2106 1.327 . S
C2108 C2127 1.429 . S
C2108 H2132 0.950 . S
C2109 C2126 1.574 . S
C2109 C2128 1.368 . S
C2109 H2133 0.949 . S
H2110 C2114 0.949 . S
C2111 C2112 1.349 . S
C2111 C2113 1.327 . S
C2111 H2134 0.950 . S
C2112 C2111 1.349 . S
C2112 C2124 1.349 . S
C2113 C2111 1.327 . S
C2113 C2129 1.429 . S
C2113 H2135 0.950 . S
C2114 H2110 0.949 . S
C2114 C2122 1.574 . S
C2114 C2130 1.368 . S
H2115 C2123 0.950 . S
H2116 C2121 0.950 . S
H2117 C2122 0.949 . S
H2118 C2124 0.950 . S
H2119 C2125 0.950 . S
H2120 C2126 0.949 . S
C2121 H2116 0.950 . S
C2121 C2123 1.327 . S
C2121 C2127 1.429 . S
C2122 C2114 1.574 . S
C2122 H2117 0.949 . S
C2122 C2128 1.368 . S
C2123 C2107 1.349 . S
C2123 H2115 0.950 . S
C2123 C2121 1.327 . S
C2124 C2112 1.349 . S
C2124 H2118 0.950 . S
C2124 C2125 1.327 . S
C2125 H2119 0.950 . S
C2125 C2124 1.327 . S
C2125 C2129 1.429 . S
C2126 C2109 1.574 . S
C2126 H2120 0.949 . S
C2126 C2130 1.368 . S
C2127 C2108 1.429 . S
C2127 C2121 1.429 . S
C2127 C2128 1.523 . S
C2128 C2109 1.368 . S
C2128 C2122 1.368 . S
C2128 C2127 1.523 . S
C2129 C2113 1.429 . S
C2129 C2125 1.429 . S
C2129 C2130 1.523 . S
C2130 C2114 1.368 . S
C2130 C2126 1.368 . S
C2130 C2129 1.523 . S
H2131 C2106 0.950 . S
H2132 C2108 0.950 . S
H2133 C2109 0.949 . S
H2134 C2111 0.950 . S
H2135 C2113 0.950 . S
C2136 C2137 1.349 . S
C2136 C2138 1.327 . S
C2136 H2161 0.950 . S
C2137 C2136 1.349 . S
C2137 C2153 1.349 . S
C2138 C2136 1.327 . S
C2138 C2157 1.429 . S
C2138 H2162 0.950 . S
C2139 C2156 1.574 1_554 S
C2139 C2158 1.368 . S
C2139 H2163 0.949 . S
H2140 C2144 0.949 . S
C2141 C2142 1.349 . S
C2141 C2143 1.327 . S
C2141 H2164 0.950 . S
C2142 C2141 1.349 . S
C2142 C2154 1.349 . S
C2143 C2141 1.327 . S
C2143 C2159 1.429 . S
C2143 H2165 0.950 . S
C2144 H2140 0.949 . S
C2144 C2152 1.574 1_556 S
C2144 C2160 1.368 . S
H2145 C2153 0.950 . S
H2146 C2151 0.950 . S
H2147 C2152 0.949 . S
H2148 C2154 0.950 . S
H2149 C2155 0.950 . S
H2150 C2156 0.949 . S
C2151 H2146 0.950 . S
C2151 C2153 1.327 . S
C2151 C2157 1.429 . S
C2152 C2144 1.574 1_554 S
C2152 H2147 0.949 . S
C2152 C2158 1.368 . S
C2153 C2137 1.349 . S
C2153 H2145 0.950 . S
C2153 C2151 1.327 . S
C2154 C2142 1.349 . S
C2154 H2148 0.950 . S
C2154 C2155 1.327 . S
C2155 H2149 0.950 . S
C2155 C2154 1.327 . S
C2155 C2159 1.429 . S
C2156 C2139 1.574 1_556 S
C2156 H2150 0.949 . S
C2156 C2160 1.368 . S
C2157 C2138 1.429 . S
C2157 C2151 1.429 . S
C2157 C2158 1.523 . S
C2158 C2139 1.368 . S
C2158 C2152 1.368 . S
C2158 C2157 1.523 . S
C2159 C2143 1.429 . S
C2159 C2155 1.429 . S
C2159 C2160 1.523 . S
C2160 C2144 1.368 . S
C2160 C2156 1.368 . S
C2160 C2159 1.523 . S
H2161 C2136 0.950 . S
H2162 C2138 0.950 . S
H2163 C2139 0.949 . S
H2164 C2141 0.950 . S
H2165 C2143 0.950 . S
C2166 C2167 1.349 . S
C2166 C2168 1.327 . S
C2166 H2191 0.950 . S
C2167 C2166 1.349 . S
C2167 C2183 1.349 . S
C2168 C2166 1.327 . S
C2168 C2187 1.429 . S
C2168 H2192 0.950 . S
C2169 C2186 1.574 1_556 S
C2169 C2188 1.368 . S
C2169 H2193 0.949 . S
H2170 C2174 0.949 . S
C2171 C2172 1.349 . S
C2171 C2173 1.327 . S
C2171 H2194 0.950 . S
C2172 C2171 1.349 . S
C2172 C2184 1.349 . S
C2173 C2171 1.327 . S
C2173 C2189 1.429 . S
C2173 H2195 0.950 . S
C2174 H2170 0.949 . S
C2174 C2182 1.574 1_554 S
C2174 C2190 1.368 . S
H2175 C2183 0.950 . S
H2176 C2181 0.950 . S
H2177 C2182 0.949 . S
H2178 C2184 0.950 . S
H2179 C2185 0.950 . S
H2180 C2186 0.949 . S
C2181 H2176 0.950 . S
C2181 C2183 1.327 . S
C2181 C2187 1.429 . S
C2182 C2174 1.574 1_556 S
C2182 H2177 0.949 . S
C2182 C2188 1.368 . S
C2183 C2167 1.349 . S
C2183 H2175 0.950 . S
C2183 C2181 1.327 . S
C2184 C2172 1.349 . S
C2184 H2178 0.950 . S
C2184 C2185 1.327 . S
C2185 H2179 0.950 . S
C2185 C2184 1.327 . S
C2185 C2189 1.429 . S
C2186 C2169 1.574 1_554 S
C2186 H2180 0.949 . S
C2186 C2190 1.368 . S
C2187 C2168 1.429 . S
C2187 C2181 1.429 . S
C2187 C2188 1.523 . S
C2188 C2169 1.368 . S
C2188 C2182 1.368 . S
C2188 C2187 1.523 . S
C2189 C2173 1.429 . S
C2189 C2185 1.429 . S
C2189 C2190 1.523 . S
C2190 C2174 1.368 . S
C2190 C2186 1.368 . S
C2190 C2189 1.523 . S
H2191 C2166 0.950 . S
H2192 C2168 0.950 . S
H2193 C2169 0.949 . S
H2194 C2171 0.950 . S
H2195 C2173 0.950 . S
C2196 C2197 1.349 . S
C2196 C2198 1.327 . S
C2196 H2221 0.950 . S
C2197 C2196 1.349 . S
C2197 C2213 1.349 . S
C2198 C2196 1.327 . S
C2198 C2217 1.429 . S
C2198 H2222 0.950 . S
C2199 C2216 1.574 1_556 S
C2199 C2218 1.368 . S
C2199 H2223 0.949 . S
H2200 C2204 0.949 . S
C2201 C2202 1.349 . S
C2201 C2203 1.327 . S
C2201 H2224 0.950 . S
C2202 C2201 1.349 . S
C2202 C2214 1.349 . S
C2203 C2201 1.327 . S
C2203 C2219 1.429 . S
C2203 H2225 0.950 . S
C2204 H2200 0.949 . S
C2204 C2212 1.574 1_554 S
C2204 C2220 1.368 . S
H2205 C2213 0.950 . S
H2206 C2211 0.950 . S
H2207 C2212 0.949 . S
H2208 C2214 0.950 . S
H2209 C2215 0.950 . S
H2210 C2216 0.949 . S
C2211 H2206 0.950 . S
C2211 C2213 1.327 . S
C2211 C2217 1.429 . S
C2212 C2204 1.574 1_556 S
C2212 H2207 0.949 . S
C2212 C2218 1.368 . S
C2213 C2197 1.349 . S
C2213 H2205 0.950 . S
C2213 C2211 1.327 . S
C2214 C2202 1.349 . S
C2214 H2208 0.950 . S
C2214 C2215 1.327 . S
C2215 H2209 0.950 . S
C2215 C2214 1.327 . S
C2215 C2219 1.429 . S
C2216 C2199 1.574 1_554 S
C2216 H2210 0.949 . S
C2216 C2220 1.368 . S
C2217 C2198 1.429 . S
C2217 C2211 1.429 . S
C2217 C2218 1.523 . S
C2218 C2199 1.368 . S
C2218 C2212 1.368 . S
C2218 C2217 1.523 . S
C2219 C2203 1.429 . S
C2219 C2215 1.429 . S
C2219 C2220 1.523 . S
C2220 C2204 1.368 . S
C2220 C2216 1.368 . S
C2220 C2219 1.523 . S
H2221 C2196 0.950 . S
H2222 C2198 0.950 . S
H2223 C2199 0.949 . S
H2224 C2201 0.950 . S
H2225 C2203 0.950 . S
C2226 C2227 1.349 . S
C2226 C2228 1.327 . S
C2226 H2251 0.950 . S
C2227 C2226 1.349 . S
C2227 C2243 1.349 . S
C2228 C2226 1.327 . S
C2228 C2247 1.429 . S
C2228 H2252 0.950 . S
C2229 C2246 1.574 1_554 S
C2229 C2248 1.368 . S
C2229 H2253 0.949 . S
H2230 C2234 0.949 . S
C2231 C2232 1.349 . S
C2231 C2233 1.327 . S
C2231 H2254 0.950 . S
C2232 C2231 1.349 . S
C2232 C2244 1.349 . S
C2233 C2231 1.327 . S
C2233 C2249 1.429 . S
C2233 H2255 0.950 . S
C2234 H2230 0.949 . S
C2234 C2242 1.574 1_556 S
C2234 C2250 1.368 . S
H2235 C2243 0.950 . S
H2236 C2241 0.950 . S
H2237 C2242 0.949 . S
H2238 C2244 0.950 . S
H2239 C2245 0.950 . S
H2240 C2246 0.949 . S
C2241 H2236 0.950 . S
C2241 C2243 1.327 . S
C2241 C2247 1.429 . S
C2242 C2234 1.574 1_554 S
C2242 H2237 0.949 . S
C2242 C2248 1.368 . S
C2243 C2227 1.349 . S
C2243 H2235 0.950 . S
C2243 C2241 1.327 . S
C2244 C2232 1.349 . S
C2244 H2238 0.950 . S
C2244 C2245 1.327 . S
C2245 H2239 0.950 . S
C2245 C2244 1.327 . S
C2245 C2249 1.429 . S
C2246 C2229 1.574 1_556 S
C2246 H2240 0.949 . S
C2246 C2250 1.368 . S
C2247 C2228 1.429 . S
C2247 C2241 1.429 . S
C2247 C2248 1.523 . S
C2248 C2229 1.368 . S
C2248 C2242 1.368 . S
C2248 C2247 1.523 . S
C2249 C2233 1.429 . S
C2249 C2245 1.429 . S
C2249 C2250 1.523 . S
C2250 C2234 1.368 . S
C2250 C2246 1.368 . S
C2250 C2249 1.523 . S
H2251 C2226 0.950 . S
H2252 C2228 0.950 . S
H2253 C2229 0.949 . S
H2254 C2231 0.950 . S
H2255 C2233 0.950 . S
C2256 C2257 1.349 . S
C2256 C2258 1.327 . S
C2256 H2281 0.950 . S
C2257 C2256 1.349 . S
C2257 C2273 1.349 . S
C2258 C2256 1.327 . S
C2258 C2277 1.429 . S
C2258 H2282 0.950 . S
C2259 C2276 1.574 1_554 S
C2259 C2278 1.368 . S
C2259 H2283 0.949 . S
H2260 C2264 0.949 . S
C2261 C2262 1.349 . S
C2261 C2263 1.327 . S
C2261 H2284 0.950 . S
C2262 C2261 1.349 . S
C2262 C2274 1.349 . S
C2263 C2261 1.327 . S
C2263 C2279 1.429 . S
C2263 H2285 0.950 . S
C2264 H2260 0.949 . S
C2264 C2272 1.574 1_556 S
C2264 C2280 1.368 . S
H2265 C2273 0.950 . S
H2266 C2271 0.950 . S
H2267 C2272 0.949 . S
H2268 C2274 0.950 . S
H2269 C2275 0.950 . S
H2270 C2276 0.949 . S
C2271 H2266 0.950 . S
C2271 C2273 1.327 . S
C2271 C2277 1.429 . S
C2272 C2264 1.574 1_554 S
C2272 H2267 0.949 . S
C2272 C2278 1.368 . S
C2273 C2257 1.349 . S
C2273 H2265 0.950 . S
C2273 C2271 1.327 . S
C2274 C2262 1.349 . S
C2274 H2268 0.950 . S
C2274 C2275 1.327 . S
C2275 H2269 0.950 . S
C2275 C2274 1.327 . S
C2275 C2279 1.429 . S
C2276 C2259 1.574 1_556 S
C2276 H2270 0.949 . S
C2276 C2280 1.368 . S
C2277 C2258 1.429 . S
C2277 C2271 1.429 . S
C2277 C2278 1.523 . S
C2278 C2259 1.368 . S
C2278 C2272 1.368 . S
C2278 C2277 1.523 . S
C2279 C2263 1.429 . S
C2279 C2275 1.429 . S
C2279 C2280 1.523 . S
C2280 C2264 1.368 . S
C2280 C2276 1.368 . S
C2280 C2279 1.523 . S
H2281 C2256 0.950 . S
H2282 C2258 0.950 . S
H2283 C2259 0.949 . S
H2284 C2261 0.950 . S
H2285 C2263 0.950 . S
C2286 C2287 1.349 . S
C2286 C2288 1.327 . S
C2286 H2311 0.950 . S
C2287 C2286 1.349 . S
C2287 C2303 1.349 . S
C2288 C2286 1.327 . S
C2288 C2307 1.429 . S
C2288 H2312 0.950 . S
C2289 C2306 1.574 1_556 S
C2289 C2308 1.368 . S
C2289 H2313 0.949 . S
H2290 C2294 0.949 . S
C2291 C2292 1.349 . S
C2291 C2293 1.327 . S
C2291 H2314 0.950 . S
C2292 C2291 1.349 . S
C2292 C2304 1.349 . S
C2293 C2291 1.327 . S
C2293 C2309 1.429 . S
C2293 H2315 0.950 . S
C2294 H2290 0.949 . S
C2294 C2302 1.574 1_554 S
C2294 C2310 1.368 . S
H2295 C2303 0.950 . S
H2296 C2301 0.950 . S
H2297 C2302 0.949 . S
H2298 C2304 0.950 . S
H2299 C2305 0.950 . S
H2300 C2306 0.949 . S
C2301 H2296 0.950 . S
C2301 C2303 1.327 . S
C2301 C2307 1.429 . S
C2302 C2294 1.574 1_556 S
C2302 H2297 0.949 . S
C2302 C2308 1.368 . S
C2303 C2287 1.349 . S
C2303 H2295 0.950 . S
C2303 C2301 1.327 . S
C2304 C2292 1.349 . S
C2304 H2298 0.950 . S
C2304 C2305 1.327 . S
C2305 H2299 0.950 . S
C2305 C2304 1.327 . S
C2305 C2309 1.429 . S
C2306 C2289 1.574 1_554 S
C2306 H2300 0.949 . S
C2306 C2310 1.368 . S
C2307 C2288 1.429 . S
C2307 C2301 1.429 . S
C2307 C2308 1.523 . S
C2308 C2289 1.368 . S
C2308 C2302 1.368 . S
C2308 C2307 1.523 . S
C2309 C2293 1.429 . S
C2309 C2305 1.429 . S
C2309 C2310 1.523 . S
C2310 C2294 1.368 . S
C2310 C2306 1.368 . S
C2310 C2309 1.523 . S
H2311 C2286 0.950 . S
H2312 C2288 0.950 . S
H2313 C2289 0.949 . S
H2314 C2291 0.950 . S
H2315 C2293 0.950 . S
C2316 C2317 1.349 . S
C2316 C2318 1.327 . S
C2316 H2341 0.950 . S
C2317 C2316 1.349 . S
C2317 C2333 1.349 . S
C2318 C2316 1.327 . S
C2318 C2337 1.429 . S
C2318 H2342 0.950 . S
C2319 C2336 1.574 . S
C2319 C2338 1.368 . S
C2319 H2343 0.949 . S
H2320 C2324 0.949 . S
C2321 C2322 1.349 . S
C2321 C2323 1.327 . S
C2321 H2344 0.950 . S
C2322 C2321 1.349 . S
C2322 C2334 1.349 . S
C2323 C2321 1.327 . S
C2323 C2339 1.429 . S
C2323 H2345 0.950 . S
C2324 H2320 0.949 . S
C2324 C2332 1.574 . S
C2324 C2340 1.368 . S
H2325 C2333 0.950 . S
H2326 C2331 0.950 . S
H2327 C2332 0.949 . S
H2328 C2334 0.950 . S
H2329 C2335 0.950 . S
H2330 C2336 0.949 . S
C2331 H2326 0.950 . S
C2331 C2333 1.327 . S
C2331 C2337 1.429 . S
C2332 C2324 1.574 . S
C2332 H2327 0.949 . S
C2332 C2338 1.368 . S
C2333 C2317 1.349 . S
C2333 H2325 0.950 . S
C2333 C2331 1.327 . S
C2334 C2322 1.349 . S
C2334 H2328 0.950 . S
C2334 C2335 1.327 . S
C2335 H2329 0.950 . S
C2335 C2334 1.327 . S
C2335 C2339 1.429 . S
C2336 C2319 1.574 . S
C2336 H2330 0.949 . S
C2336 C2340 1.368 . S
C2337 C2318 1.429 . S
C2337 C2331 1.429 . S
C2337 C2338 1.523 . S
C2338 C2319 1.368 . S
C2338 C2332 1.368 . S
C2338 C2337 1.523 . S
C2339 C2323 1.429 . S
C2339 C2335 1.429 . S
C2339 C2340 1.523 . S
C2340 C2324 1.368 . S
C2340 C2336 1.368 . S
C2340 C2339 1.523 . S
H2341 C2316 0.950 . S
H2342 C2318 0.950 . S
H2343 C2319 0.949 . S
H2344 C2321 0.950 . S
H2345 C2323 0.950 . S
C2346 C2347 1.349 . S
C2346 C2348 1.327 . S
C2346 H2371 0.950 . S
C2347 C2346 1.349 . S
C2347 C2363 1.349 . S
C2348 C2346 1.327 . S
C2348 C2367 1.429 . S
C2348 H2372 0.950 . S
C2349 C2366 1.574 . S
C2349 C2368 1.368 . S
C2349 H2373 0.949 . S
H2350 C2354 0.949 . S
C2351 C2352 1.349 . S
C2351 C2353 1.327 . S
C2351 H2374 0.950 . S
C2352 C2351 1.349 . S
C2352 C2364 1.349 . S
C2353 C2351 1.327 . S
C2353 C2369 1.429 . S
C2353 H2375 0.950 . S
C2354 H2350 0.949 . S
C2354 C2362 1.574 . S
C2354 C2370 1.368 . S
H2355 C2363 0.950 . S
H2356 C2361 0.950 . S
H2357 C2362 0.949 . S
H2358 C2364 0.950 . S
H2359 C2365 0.950 . S
H2360 C2366 0.949 . S
C2361 H2356 0.950 . S
C2361 C2363 1.327 . S
C2361 C2367 1.429 . S
C2362 C2354 1.574 . S
C2362 H2357 0.949 . S
C2362 C2368 1.368 . S
C2363 C2347 1.349 . S
C2363 H2355 0.950 . S
C2363 C2361 1.327 . S
C2364 C2352 1.349 . S
C2364 H2358 0.950 . S
C2364 C2365 1.327 . S
C2365 H2359 0.950 . S
C2365 C2364 1.327 . S
C2365 C2369 1.429 . S
C2366 C2349 1.574 . S
C2366 H2360 0.949 . S
C2366 C2370 1.368 . S
C2367 C2348 1.429 . S
C2367 C2361 1.429 . S
C2367 C2368 1.523 . S
C2368 C2349 1.368 . S
C2368 C2362 1.368 . S
C2368 C2367 1.523 . S
C2369 C2353 1.429 . S
C2369 C2365 1.429 . S
C2369 C2370 1.523 . S
C2370 C2354 1.368 . S
C2370 C2366 1.368 . S
C2370 C2369 1.523 . S
H2371 C2346 0.950 . S
H2372 C2348 0.950 . S
H2373 C2349 0.949 . S
H2374 C2351 0.950 . S
H2375 C2353 0.950 . S
C2376 C2377 1.349 . S
C2376 C2378 1.327 . S
C2376 H2401 0.950 . S
C2377 C2376 1.349 . S
C2377 C2393 1.349 . S
C2378 C2376 1.327 . S
C2378 C2397 1.429 . S
C2378 H2402 0.950 . S
C2379 C2396 1.574 . S
C2379 C2398 1.368 . S
C2379 H2403 0.949 . S
H2380 C2384 0.949 . S
C2381 C2382 1.349 . S
C2381 C2383 1.327 . S
C2381 H2404 0.950 . S
C2382 C2381 1.349 . S
C2382 C2394 1.349 . S
C2383 C2381 1.327 . S
C2383 C2399 1.429 . S
C2383 H2405 0.950 . S
C2384 H2380 0.949 . S
C2384 C2392 1.574 . S
C2384 C2400 1.368 . S
H2385 C2393 0.950 . S
H2386 C2391 0.950 . S
H2387 C2392 0.949 . S
H2388 C2394 0.950 . S
H2389 C2395 0.950 . S
H2390 C2396 0.949 . S
C2391 H2386 0.950 . S
C2391 C2393 1.327 . S
C2391 C2397 1.429 . S
C2392 C2384 1.574 . S
C2392 H2387 0.949 . S
C2392 C2398 1.368 . S
C2393 C2377 1.349 . S
C2393 H2385 0.950 . S
C2393 C2391 1.327 . S
C2394 C2382 1.349 . S
C2394 H2388 0.950 . S
C2394 C2395 1.327 . S
C2395 H2389 0.950 . S
C2395 C2394 1.327 . S
C2395 C2399 1.429 . S
C2396 C2379 1.574 . S
C2396 H2390 0.949 . S
C2396 C2400 1.368 . S
C2397 C2378 1.429 . S
C2397 C2391 1.429 . S
C2397 C2398 1.523 . S
C2398 C2379 1.368 . S
C2398 C2392 1.368 . S
C2398 C2397 1.523 . S
C2399 C2383 1.429 . S
C2399 C2395 1.429 . S
C2399 C2400 1.523 . S
C2400 C2384 1.368 . S
C2400 C2396 1.368 . S
C2400 C2399 1.523 . S
H2401 C2376 0.950 . S
H2402 C2378 0.950 . S
H2403 C2379 0.949 . S
H2404 C2381 0.950 . S
H2405 C2383 0.950 . S
C2406 C2407 1.349 . S
C2406 C2408 1.327 . S
C2406 H2431 0.950 . S
C2407 C2406 1.349 . S
C2407 C2423 1.349 . S
C2408 C2406 1.327 . S
C2408 C2427 1.429 . S
C2408 H2432 0.950 . S
C2409 C2426 1.574 . S
C2409 C2428 1.368 . S
C2409 H2433 0.949 . S
H2410 C2414 0.949 . S
C2411 C2412 1.349 . S
C2411 C2413 1.327 . S
C2411 H2434 0.950 . S
C2412 C2411 1.349 . S
C2412 C2424 1.349 . S
C2413 C2411 1.327 . S
C2413 C2429 1.429 . S
C2413 H2435 0.950 . S
C2414 H2410 0.949 . S
C2414 C2422 1.574 . S
C2414 C2430 1.368 . S
H2415 C2423 0.950 . S
H2416 C2421 0.950 . S
H2417 C2422 0.949 . S
H2418 C2424 0.950 . S
H2419 C2425 0.950 . S
H2420 C2426 0.949 . S
C2421 H2416 0.950 . S
C2421 C2423 1.327 . S
C2421 C2427 1.429 . S
C2422 C2414 1.574 . S
C2422 H2417 0.949 . S
C2422 C2428 1.368 . S
C2423 C2407 1.349 . S
C2423 H2415 0.950 . S
C2423 C2421 1.327 . S
C2424 C2412 1.349 . S
C2424 H2418 0.950 . S
C2424 C2425 1.327 . S
C2425 H2419 0.950 . S
C2425 C2424 1.327 . S
C2425 C2429 1.429 . S
C2426 C2409 1.574 . S
C2426 H2420 0.949 . S
C2426 C2430 1.368 . S
C2427 C2408 1.429 . S
C2427 C2421 1.429 . S
C2427 C2428 1.523 . S
C2428 C2409 1.368 . S
C2428 C2422 1.368 . S
C2428 C2427 1.523 . S
C2429 C2413 1.429 . S
C2429 C2425 1.429 . S
C2429 C2430 1.523 . S
C2430 C2414 1.368 . S
C2430 C2426 1.368 . S
C2430 C2429 1.523 . S
H2431 C2406 0.950 . S
H2432 C2408 0.950 . S
H2433 C2409 0.949 . S
H2434 C2411 0.950 . S
H2435 C2413 0.950 . S
C2436 C2437 1.349 . S
C2436 C2438 1.327 . S
C2436 H2461 0.950 . S
C2437 C2436 1.349 . S
C2437 C2453 1.349 . S
C2438 C2436 1.327 . S
C2438 C2457 1.429 . S
C2438 H2462 0.950 . S
C2439 C2456 1.574 . S
C2439 C2458 1.368 . S
C2439 H2463 0.949 . S
H2440 C2444 0.949 . S
C2441 C2442 1.349 . S
C2441 C2443 1.327 . S
C2441 H2464 0.950 . S
C2442 C2441 1.349 . S
C2442 C2454 1.349 . S
C2443 C2441 1.327 . S
C2443 C2459 1.429 . S
C2443 H2465 0.950 . S
C2444 H2440 0.949 . S
C2444 C2452 1.574 . S
C2444 C2460 1.368 . S
H2445 C2453 0.950 . S
H2446 C2451 0.950 . S
H2447 C2452 0.949 . S
H2448 C2454 0.950 . S
H2449 C2455 0.950 . S
H2450 C2456 0.949 . S
C2451 H2446 0.950 . S
C2451 C2453 1.327 . S
C2451 C2457 1.429 . S
C2452 C2444 1.574 . S
C2452 H2447 0.949 . S
C2452 C2458 1.368 . S
C2453 C2437 1.349 . S
C2453 H2445 0.950 . S
C2453 C2451 1.327 . S
C2454 C2442 1.349 . S
C2454 H2448 0.950 . S
C2454 C2455 1.327 . S
C2455 H2449 0.950 . S
C2455 C2454 1.327 . S
C2455 C2459 1.429 . S
C2456 C2439 1.574 . S
C2456 H2450 0.949 . S
C2456 C2460 1.368 . S
C2457 C2438 1.429 . S
C2457 C2451 1.429 . S
C2457 C2458 1.523 . S
C2458 C2439 1.368 . S
C2458 C2452 1.368 . S
C2458 C2457 1.523 . S
C2459 C2443 1.429 . S
C2459 C2455 1.429 . S
C2459 C2460 1.523 . S
C2460 C2444 1.368 . S
C2460 C2456 1.368 . S
C2460 C2459 1.523 . S
H2461 C2436 0.950 . S
H2462 C2438 0.950 . S
H2463 C2439 0.949 . S
H2464 C2441 0.950 . S
H2465 C2443 0.950 . S
C2466 C2467 1.349 . S
C2466 C2468 1.327 . S
C2466 H2491 0.950 . S
C2467 C2466 1.349 . S
C2467 C2483 1.349 . S
C2468 C2466 1.327 . S
C2468 C2487 1.429 . S
C2468 H2492 0.950 . S
C2469 C2486 1.574 . S
C2469 C2488 1.368 . S
C2469 H2493 0.949 . S
H2470 C2474 0.949 . S
C2471 C2472 1.349 . S
C2471 C2473 1.327 . S
C2471 H2494 0.950 . S
C2472 C2471 1.349 . S
C2472 C2484 1.349 . S
C2473 C2471 1.327 . S
C2473 C2489 1.429 . S
C2473 H2495 0.950 . S
C2474 H2470 0.949 . S
C2474 C2482 1.574 . S
C2474 C2490 1.368 . S
H2475 C2483 0.950 . S
H2476 C2481 0.950 . S
H2477 C2482 0.949 . S
H2478 C2484 0.950 . S
H2479 C2485 0.950 . S
H2480 C2486 0.949 . S
C2481 H2476 0.950 . S
C2481 C2483 1.327 . S
C2481 C2487 1.429 . S
C2482 C2474 1.574 . S
C2482 H2477 0.949 . S
C2482 C2488 1.368 . S
C2483 C2467 1.349 . S
C2483 H2475 0.950 . S
C2483 C2481 1.327 . S
C2484 C2472 1.349 . S
C2484 H2478 0.950 . S
C2484 C2485 1.327 . S
C2485 H2479 0.950 . S
C2485 C2484 1.327 . S
C2485 C2489 1.429 . S
C2486 C2469 1.574 . S
C2486 H2480 0.949 . S
C2486 C2490 1.368 . S
C2487 C2468 1.429 . S
C2487 C2481 1.429 . S
C2487 C2488 1.523 . S
C2488 C2469 1.368 . S
C2488 C2482 1.368 . S
C2488 C2487 1.523 . S
C2489 C2473 1.429 . S
C2489 C2485 1.429 . S
C2489 C2490 1.523 . S
C2490 C2474 1.368 . S
C2490 C2486 1.368 . S
C2490 C2489 1.523 . S
H2491 C2466 0.950 . S
H2492 C2468 0.950 . S
H2493 C2469 0.949 . S
H2494 C2471 0.950 . S
H2495 C2473 0.950 . S
C2496 C2497 1.349 . S
C2496 C2498 1.327 . S
C2496 H2521 0.950 . S
C2497 C2496 1.349 . S
C2497 C2513 1.349 . S
C2498 C2496 1.327 . S
C2498 C2517 1.429 . S
C2498 H2522 0.950 . S
C2499 C2516 1.574 . S
C2499 C2518 1.368 . S
C2499 H2523 0.949 . S
H2500 C2504 0.949 . S
C2501 C2502 1.349 . S
C2501 C2503 1.327 . S
C2501 H2524 0.950 . S
C2502 C2501 1.349 . S
C2502 C2514 1.349 . S
C2503 C2501 1.327 . S
C2503 C2519 1.429 . S
C2503 H2525 0.950 . S
C2504 H2500 0.949 . S
C2504 C2512 1.574 . S
C2504 C2520 1.368 . S
H2505 C2513 0.950 . S
H2506 C2511 0.950 . S
H2507 C2512 0.949 . S
H2508 C2514 0.950 . S
H2509 C2515 0.950 . S
H2510 C2516 0.949 . S
C2511 H2506 0.950 . S
C2511 C2513 1.327 . S
C2511 C2517 1.429 . S
C2512 C2504 1.574 . S
C2512 H2507 0.949 . S
C2512 C2518 1.368 . S
C2513 C2497 1.349 . S
C2513 H2505 0.950 . S
C2513 C2511 1.327 . S
C2514 C2502 1.349 . S
C2514 H2508 0.950 . S
C2514 C2515 1.327 . S
C2515 H2509 0.950 . S
C2515 C2514 1.327 . S
C2515 C2519 1.429 . S
C2516 C2499 1.574 . S
C2516 H2510 0.949 . S
C2516 C2520 1.368 . S
C2517 C2498 1.429 . S
C2517 C2511 1.429 . S
C2517 C2518 1.523 . S
C2518 C2499 1.368 . S
C2518 C2512 1.368 . S
C2518 C2517 1.523 . S
C2519 C2503 1.429 . S
C2519 C2515 1.429 . S
C2519 C2520 1.523 . S
C2520 C2504 1.368 . S
C2520 C2516 1.368 . S
C2520 C2519 1.523 . S
H2521 C2496 0.950 . S
H2522 C2498 0.950 . S
H2523 C2499 0.949 . S
H2524 C2501 0.950 . S
H2525 C2503 0.950 . S
C2526 C2527 1.349 . S
C2526 C2528 1.327 . S
C2526 H2551 0.950 . S
C2527 C2526 1.349 . S
C2527 C2543 1.349 . S
C2528 C2526 1.327 . S
C2528 C2547 1.429 . S
C2528 H2552 0.950 . S
C2529 C2546 1.574 . S
C2529 C2548 1.368 . S
C2529 H2553 0.949 . S
H2530 C2534 0.949 . S
C2531 C2532 1.349 . S
C2531 C2533 1.327 . S
C2531 H2554 0.950 . S
C2532 C2531 1.349 . S
C2532 C2544 1.349 . S
C2533 C2531 1.327 . S
C2533 C2549 1.429 . S
C2533 H2555 0.950 . S
C2534 H2530 0.949 . S
C2534 C2542 1.574 . S
C2534 C2550 1.368 . S
H2535 C2543 0.950 . S
H2536 C2541 0.950 . S
H2537 C2542 0.949 . S
H2538 C2544 0.950 . S
H2539 C2545 0.950 . S
H2540 C2546 0.949 . S
C2541 H2536 0.950 . S
C2541 C2543 1.327 . S
C2541 C2547 1.429 . S
C2542 C2534 1.574 . S
C2542 H2537 0.949 . S
C2542 C2548 1.368 . S
C2543 C2527 1.349 . S
C2543 H2535 0.950 . S
C2543 C2541 1.327 . S
C2544 C2532 1.349 . S
C2544 H2538 0.950 . S
C2544 C2545 1.327 . S
C2545 H2539 0.950 . S
C2545 C2544 1.327 . S
C2545 C2549 1.429 . S
C2546 C2529 1.574 . S
C2546 H2540 0.949 . S
C2546 C2550 1.368 . S
C2547 C2528 1.429 . S
C2547 C2541 1.429 . S
C2547 C2548 1.523 . S
C2548 C2529 1.368 . S
C2548 C2542 1.368 . S
C2548 C2547 1.523 . S
C2549 C2533 1.429 . S
C2549 C2545 1.429 . S
C2549 C2550 1.523 . S
C2550 C2534 1.368 . S
C2550 C2546 1.368 . S
C2550 C2549 1.523 . S
H2551 C2526 0.950 . S
H2552 C2528 0.950 . S
H2553 C2529 0.949 . S
H2554 C2531 0.950 . S
H2555 C2533 0.950 . S
C2556 C2557 1.349 . S
C2556 C2558 1.327 . S
C2556 H2581 0.950 . S
C2557 C2556 1.349 . S
C2557 C2573 1.349 . S
C2558 C2556 1.327 . S
C2558 C2577 1.429 . S
C2558 H2582 0.950 . S
C2559 C2576 1.574 . S
C2559 C2578 1.368 . S
C2559 H2583 0.949 . S
H2560 C2564 0.949 . S
C2561 C2562 1.349 . S
C2561 C2563 1.327 . S
C2561 H2584 0.950 . S
C2562 C2561 1.349 . S
C2562 C2574 1.349 . S
C2563 C2561 1.327 . S
C2563 C2579 1.429 . S
C2563 H2585 0.950 . S
C2564 H2560 0.949 . S
C2564 C2572 1.574 . S
C2564 C2580 1.368 . S
H2565 C2573 0.950 . S
H2566 C2571 0.950 . S
H2567 C2572 0.949 . S
H2568 C2574 0.950 . S
H2569 C2575 0.950 . S
H2570 C2576 0.949 . S
C2571 H2566 0.950 . S
C2571 C2573 1.327 . S
C2571 C2577 1.429 . S
C2572 C2564 1.574 . S
C2572 H2567 0.949 . S
C2572 C2578 1.368 . S
C2573 C2557 1.349 . S
C2573 H2565 0.950 . S
C2573 C2571 1.327 . S
C2574 C2562 1.349 . S
C2574 H2568 0.950 . S
C2574 C2575 1.327 . S
C2575 H2569 0.950 . S
C2575 C2574 1.327 . S
C2575 C2579 1.429 . S
C2576 C2559 1.574 . S
C2576 H2570 0.949 . S
C2576 C2580 1.368 . S
C2577 C2558 1.429 . S
C2577 C2571 1.429 . S
C2577 C2578 1.523 . S
C2578 C2559 1.368 . S
C2578 C2572 1.368 . S
C2578 C2577 1.523 . S
C2579 C2563 1.429 . S
C2579 C2575 1.429 . S
C2579 C2580 1.523 . S
C2580 C2564 1.368 . S
C2580 C2576 1.368 . S
C2580 C2579 1.523 . S
H2581 C2556 0.950 . S
H2582 C2558 0.950 . S
H2583 C2559 0.949 . S
H2584 C2561 0.950 . S
H2585 C2563 0.950 . S
C2586 C2587 1.349 . S
C2586 C2588 1.327 . S
C2586 H2611 0.950 . S
C2587 C2586 1.349 . S
C2587 C2603 1.349 . S
C2588 C2586 1.327 . S
C2588 C2607 1.429 . S
C2588 H2612 0.950 . S
C2589 C2606 1.574 . S
C2589 C2608 1.368 . S
C2589 H2613 0.949 . S
H2590 C2594 0.949 . S
C2591 C2592 1.349 . S
C2591 C2593 1.327 . S
C2591 H2614 0.950 . S
C2592 C2591 1.349 . S
C2592 C2604 1.349 . S
C2593 C2591 1.327 . S
C2593 C2609 1.429 . S
C2593 H2615 0.950 . S
C2594 H2590 0.949 . S
C2594 C2602 1.574 . S
C2594 C2610 1.368 . S
H2595 C2603 0.950 . S
H2596 C2601 0.950 . S
H2597 C2602 0.949 . S
H2598 C2604 0.950 . S
H2599 C2605 0.950 . S
H2600 C2606 0.949 . S
C2601 H2596 0.950 . S
C2601 C2603 1.327 . S
C2601 C2607 1.429 . S
C2602 C2594 1.574 . S
C2602 H2597 0.949 . S
C2602 C2608 1.368 . S
C2603 C2587 1.349 . S
C2603 H2595 0.950 . S
C2603 C2601 1.327 . S
C2604 C2592 1.349 . S
C2604 H2598 0.950 . S
C2604 C2605 1.327 . S
C2605 H2599 0.950 . S
C2605 C2604 1.327 . S
C2605 C2609 1.429 . S
C2606 C2589 1.574 . S
C2606 H2600 0.949 . S
C2606 C2610 1.368 . S
C2607 C2588 1.429 . S
C2607 C2601 1.429 . S
C2607 C2608 1.523 . S
C2608 C2589 1.368 . S
C2608 C2602 1.368 . S
C2608 C2607 1.523 . S
C2609 C2593 1.429 . S
C2609 C2605 1.429 . S
C2609 C2610 1.523 . S
C2610 C2594 1.368 . S
C2610 C2606 1.368 . S
C2610 C2609 1.523 . S
H2611 C2586 0.950 . S
H2612 C2588 0.950 . S
H2613 C2589 0.949 . S
H2614 C2591 0.950 . S
H2615 C2593 0.950 . S
C2616 C2617 1.349 . S
C2616 C2618 1.327 . S
C2616 H2641 0.950 . S
C2617 C2616 1.349 . S
C2617 C2633 1.349 . S
C2618 C2616 1.327 . S
C2618 C2637 1.429 . S
C2618 H2642 0.950 . S
C2619 C2636 1.574 . S
C2619 C2638 1.368 . S
C2619 H2643 0.949 . S
H2620 C2624 0.949 . S
C2621 C2622 1.349 . S
C2621 C2623 1.327 . S
C2621 H2644 0.950 . S
C2622 C2621 1.349 . S
C2622 C2634 1.349 . S
C2623 C2621 1.327 . S
C2623 C2639 1.429 . S
C2623 H2645 0.950 . S
C2624 H2620 0.949 . S
C2624 C2632 1.574 . S
C2624 C2640 1.368 . S
H2625 C2633 0.950 . S
H2626 C2631 0.950 . S
H2627 C2632 0.949 . S
H2628 C2634 0.950 . S
H2629 C2635 0.950 . S
H2630 C2636 0.949 . S
C2631 H2626 0.950 . S
C2631 C2633 1.327 . S
C2631 C2637 1.429 . S
C2632 C2624 1.574 . S
C2632 H2627 0.949 . S
C2632 C2638 1.368 . S
C2633 C2617 1.349 . S
C2633 H2625 0.950 . S
C2633 C2631 1.327 . S
C2634 C2622 1.349 . S
C2634 H2628 0.950 . S
C2634 C2635 1.327 . S
C2635 H2629 0.950 . S
C2635 C2634 1.327 . S
C2635 C2639 1.429 . S
C2636 C2619 1.574 . S
C2636 H2630 0.949 . S
C2636 C2640 1.368 . S
C2637 C2618 1.429 . S
C2637 C2631 1.429 . S
C2637 C2638 1.523 . S
C2638 C2619 1.368 . S
C2638 C2632 1.368 . S
C2638 C2637 1.523 . S
C2639 C2623 1.429 . S
C2639 C2635 1.429 . S
C2639 C2640 1.523 . S
C2640 C2624 1.368 . S
C2640 C2636 1.368 . S
C2640 C2639 1.523 . S
H2641 C2616 0.950 . S
H2642 C2618 0.950 . S
H2643 C2619 0.949 . S
H2644 C2621 0.950 . S
H2645 C2623 0.950 . S
C2646 C2647 1.349 . S
C2646 C2648 1.327 . S
C2646 H2671 0.950 . S
C2647 C2646 1.349 . S
C2647 C2663 1.349 . S
C2648 C2646 1.327 . S
C2648 C2667 1.429 . S
C2648 H2672 0.950 . S
C2649 C2666 1.574 . S
C2649 C2668 1.368 . S
C2649 H2673 0.949 . S
H2650 C2654 0.949 . S
C2651 C2652 1.349 . S
C2651 C2653 1.327 . S
C2651 H2674 0.950 . S
C2652 C2651 1.349 . S
C2652 C2664 1.349 . S
C2653 C2651 1.327 . S
C2653 C2669 1.429 . S
C2653 H2675 0.950 . S
C2654 H2650 0.949 . S
C2654 C2662 1.574 . S
C2654 C2670 1.368 . S
H2655 C2663 0.950 . S
H2656 C2661 0.950 . S
H2657 C2662 0.949 . S
H2658 C2664 0.950 . S
H2659 C2665 0.950 . S
H2660 C2666 0.949 . S
C2661 H2656 0.950 . S
C2661 C2663 1.327 . S
C2661 C2667 1.429 . S
C2662 C2654 1.574 . S
C2662 H2657 0.949 . S
C2662 C2668 1.368 . S
C2663 C2647 1.349 . S
C2663 H2655 0.950 . S
C2663 C2661 1.327 . S
C2664 C2652 1.349 . S
C2664 H2658 0.950 . S
C2664 C2665 1.327 . S
C2665 H2659 0.950 . S
C2665 C2664 1.327 . S
C2665 C2669 1.429 . S
C2666 C2649 1.574 . S
C2666 H2660 0.949 . S
C2666 C2670 1.368 . S
C2667 C2648 1.429 . S
C2667 C2661 1.429 . S
C2667 C2668 1.523 . S
C2668 C2649 1.368 . S
C2668 C2662 1.368 . S
C2668 C2667 1.523 . S
C2669 C2653 1.429 . S
C2669 C2665 1.429 . S
C2669 C2670 1.523 . S
C2670 C2654 1.368 . S
C2670 C2666 1.368 . S
C2670 C2669 1.523 . S
H2671 C2646 0.950 . S
H2672 C2648 0.950 . S
H2673 C2649 0.949 . S
H2674 C2651 0.950 . S
H2675 C2653 0.950 . S
C2676 C2677 1.349 . S
C2676 C2678 1.327 . S
C2676 H2701 0.950 . S
C2677 C2676 1.349 . S
C2677 C2693 1.349 . S
C2678 C2676 1.327 . S
C2678 C2697 1.429 . S
C2678 H2702 0.950 . S
C2679 C2696 1.574 . S
C2679 C2698 1.368 . S
C2679 H2703 0.949 . S
H2680 C2684 0.949 . S
C2681 C2682 1.349 . S
C2681 C2683 1.327 . S
C2681 H2704 0.950 . S
C2682 C2681 1.349 . S
C2682 C2694 1.349 . S
C2683 C2681 1.327 . S
C2683 C2699 1.429 . S
C2683 H2705 0.950 . S
C2684 H2680 0.949 . S
C2684 C2692 1.574 . S
C2684 C2700 1.368 . S
H2685 C2693 0.950 . S
H2686 C2691 0.950 . S
H2687 C2692 0.949 . S
H2688 C2694 0.950 . S
H2689 C2695 0.950 . S
H2690 C2696 0.949 . S
C2691 H2686 0.950 . S
C2691 C2693 1.327 . S
C2691 C2697 1.429 . S
C2692 C2684 1.574 . S
C2692 H2687 0.949 . S
C2692 C2698 1.368 . S
C2693 C2677 1.349 . S
C2693 H2685 0.950 . S
C2693 C2691 1.327 . S
C2694 C2682 1.349 . S
C2694 H2688 0.950 . S
C2694 C2695 1.327 . S
C2695 H2689 0.950 . S
C2695 C2694 1.327 . S
C2695 C2699 1.429 . S
C2696 C2679 1.574 . S
C2696 H2690 0.949 . S
C2696 C2700 1.368 . S
C2697 C2678 1.429 . S
C2697 C2691 1.429 . S
C2697 C2698 1.523 . S
C2698 C2679 1.368 . S
C2698 C2692 1.368 . S
C2698 C2697 1.523 . S
C2699 C2683 1.429 . S
C2699 C2695 1.429 . S
C2699 C2700 1.523 . S
C2700 C2684 1.368 . S
C2700 C2696 1.368 . S
C2700 C2699 1.523 . S
H2701 C2676 0.950 . S
H2702 C2678 0.950 . S
H2703 C2679 0.949 . S
H2704 C2681 0.950 . S
H2705 C2683 0.950 . S
C2706 C2707 1.349 . S
C2706 C2708 1.327 . S
C2706 H2731 0.950 . S
C2707 C2706 1.349 . S
C2707 C2723 1.349 . S
C2708 C2706 1.327 . S
C2708 C2727 1.429 . S
C2708 H2732 0.950 . S
C2709 C2726 1.574 . S
C2709 C2728 1.368 . S
C2709 H2733 0.949 . S
H2710 C2714 0.949 . S
C2711 C2712 1.349 . S
C2711 C2713 1.327 . S
C2711 H2734 0.950 . S
C2712 C2711 1.349 . S
C2712 C2724 1.349 . S
C2713 C2711 1.327 . S
C2713 C2729 1.429 . S
C2713 H2735 0.950 . S
C2714 H2710 0.949 . S
C2714 C2722 1.574 . S
C2714 C2730 1.368 . S
H2715 C2723 0.950 . S
H2716 C2721 0.950 . S
H2717 C2722 0.949 . S
H2718 C2724 0.950 . S
H2719 C2725 0.950 . S
H2720 C2726 0.949 . S
C2721 H2716 0.950 . S
C2721 C2723 1.327 . S
C2721 C2727 1.429 . S
C2722 C2714 1.574 . S
C2722 H2717 0.949 . S
C2722 C2728 1.368 . S
C2723 C2707 1.349 . S
C2723 H2715 0.950 . S
C2723 C2721 1.327 . S
C2724 C2712 1.349 . S
C2724 H2718 0.950 . S
C2724 C2725 1.327 . S
C2725 H2719 0.950 . S
C2725 C2724 1.327 . S
C2725 C2729 1.429 . S
C2726 C2709 1.574 . S
C2726 H2720 0.949 . S
C2726 C2730 1.368 . S
C2727 C2708 1.429 . S
C2727 C2721 1.429 . S
C2727 C2728 1.523 . S
C2728 C2709 1.368 . S
C2728 C2722 1.368 . S
C2728 C2727 1.523 . S
C2729 C2713 1.429 . S
C2729 C2725 1.429 . S
C2729 C2730 1.523 . S
C2730 C2714 1.368 . S
C2730 C2726 1.368 . S
C2730 C2729 1.523 . S
H2731 C2706 0.950 . S
H2732 C2708 0.950 . S
H2733 C2709 0.949 . S
H2734 C2711 0.950 . S
H2735 C2713 0.950 . S
C2736 C2737 1.349 . S
C2736 C2738 1.327 . S
C2736 H2761 0.950 . S
C2737 C2736 1.349 . S
C2737 C2753 1.349 . S
C2738 C2736 1.327 . S
C2738 C2757 1.429 . S
C2738 H2762 0.950 . S
C2739 C2756 1.574 . S
C2739 C2758 1.368 . S
C2739 H2763 0.949 . S
H2740 C2744 0.949 . S
C2741 C2742 1.349 . S
C2741 C2743 1.327 . S
C2741 H2764 0.950 . S
C2742 C2741 1.349 . S
C2742 C2754 1.349 . S
C2743 C2741 1.327 . S
C2743 C2759 1.429 . S
C2743 H2765 0.950 . S
C2744 H2740 0.949 . S
C2744 C2752 1.574 . S
C2744 C2760 1.368 . S
H2745 C2753 0.950 . S
H2746 C2751 0.950 . S
H2747 C2752 0.949 . S
H2748 C2754 0.950 . S
H2749 C2755 0.950 . S
H2750 C2756 0.949 . S
C2751 H2746 0.950 . S
C2751 C2753 1.327 . S
C2751 C2757 1.429 . S
C2752 C2744 1.574 . S
C2752 H2747 0.949 . S
C2752 C2758 1.368 . S
C2753 C2737 1.349 . S
C2753 H2745 0.950 . S
C2753 C2751 1.327 . S
C2754 C2742 1.349 . S
C2754 H2748 0.950 . S
C2754 C2755 1.327 . S
C2755 H2749 0.950 . S
C2755 C2754 1.327 . S
C2755 C2759 1.429 . S
C2756 C2739 1.574 . S
C2756 H2750 0.949 . S
C2756 C2760 1.368 . S
C2757 C2738 1.429 . S
C2757 C2751 1.429 . S
C2757 C2758 1.523 . S
C2758 C2739 1.368 . S
C2758 C2752 1.368 . S
C2758 C2757 1.523 . S
C2759 C2743 1.429 . S
C2759 C2755 1.429 . S
C2759 C2760 1.523 . S
C2760 C2744 1.368 . S
C2760 C2756 1.368 . S
C2760 C2759 1.523 . S
H2761 C2736 0.950 . S
H2762 C2738 0.950 . S
H2763 C2739 0.949 . S
H2764 C2741 0.950 . S
H2765 C2743 0.950 . S
C2766 C2767 1.349 . S
C2766 C2768 1.327 . S
C2766 H2791 0.950 . S
C2767 C2766 1.349 . S
C2767 C2783 1.349 . S
C2768 C2766 1.327 . S
C2768 C2787 1.429 . S
C2768 H2792 0.950 . S
C2769 C2786 1.574 . S
C2769 C2788 1.368 . S
C2769 H2793 0.949 . S
H2770 C2774 0.949 . S
C2771 C2772 1.349 . S
C2771 C2773 1.327 . S
C2771 H2794 0.950 . S
C2772 C2771 1.349 . S
C2772 C2784 1.349 . S
C2773 C2771 1.327 . S
C2773 C2789 1.429 . S
C2773 H2795 0.950 . S
C2774 H2770 0.949 . S
C2774 C2782 1.574 . S
C2774 C2790 1.368 . S
H2775 C2783 0.950 . S
H2776 C2781 0.950 . S
H2777 C2782 0.949 . S
H2778 C2784 0.950 . S
H2779 C2785 0.950 . S
H2780 C2786 0.949 . S
C2781 H2776 0.950 . S
C2781 C2783 1.327 . S
C2781 C2787 1.429 . S
C2782 C2774 1.574 . S
C2782 H2777 0.949 . S
C2782 C2788 1.368 . S
C2783 C2767 1.349 . S
C2783 H2775 0.950 . S
C2783 C2781 1.327 . S
C2784 C2772 1.349 . S
C2784 H2778 0.950 . S
C2784 C2785 1.327 . S
C2785 H2779 0.950 . S
C2785 C2784 1.327 . S
C2785 C2789 1.429 . S
C2786 C2769 1.574 . S
C2786 H2780 0.949 . S
C2786 C2790 1.368 . S
C2787 C2768 1.429 . S
C2787 C2781 1.429 . S
C2787 C2788 1.523 . S
C2788 C2769 1.368 . S
C2788 C2782 1.368 . S
C2788 C2787 1.523 . S
C2789 C2773 1.429 . S
C2789 C2785 1.429 . S
C2789 C2790 1.523 . S
C2790 C2774 1.368 . S
C2790 C2786 1.368 . S
C2790 C2789 1.523 . S
H2791 C2766 0.950 . S
H2792 C2768 0.950 . S
H2793 C2769 0.949 . S
H2794 C2771 0.950 . S
H2795 C2773 0.950 . S
C2796 C2797 1.349 . S
C2796 C2798 1.327 . S
C2796 H2821 0.950 . S
C2797 C2796 1.349 . S
C2797 C2813 1.349 . S
C2798 C2796 1.327 . S
C2798 C2817 1.429 . S
C2798 H2822 0.950 . S
C2799 C2816 1.574 . S
C2799 C2818 1.368 . S
C2799 H2823 0.949 . S
H2800 C2804 0.949 . S
C2801 C2802 1.349 . S
C2801 C2803 1.327 . S
C2801 H2824 0.950 . S
C2802 C2801 1.349 . S
C2802 C2814 1.349 . S
C2803 C2801 1.327 . S
C2803 C2819 1.429 . S
C2803 H2825 0.950 . S
C2804 H2800 0.949 . S
C2804 C2812 1.574 . S
C2804 C2820 1.368 . S
H2805 C2813 0.950 . S
H2806 C2811 0.950 . S
H2807 C2812 0.949 . S
H2808 C2814 0.950 . S
H2809 C2815 0.950 . S
H2810 C2816 0.949 . S
C2811 H2806 0.950 . S
C2811 C2813 1.327 . S
C2811 C2817 1.429 . S
C2812 C2804 1.574 . S
C2812 H2807 0.949 . S
C2812 C2818 1.368 . S
C2813 C2797 1.349 . S
C2813 H2805 0.950 . S
C2813 C2811 1.327 . S
C2814 C2802 1.349 . S
C2814 H2808 0.950 . S
C2814 C2815 1.327 . S
C2815 H2809 0.950 . S
C2815 C2814 1.327 . S
C2815 C2819 1.429 . S
C2816 C2799 1.574 . S
C2816 H2810 0.949 . S
C2816 C2820 1.368 . S
C2817 C2798 1.429 . S
C2817 C2811 1.429 . S
C2817 C2818 1.523 . S
C2818 C2799 1.368 . S
C2818 C2812 1.368 . S
C2818 C2817 1.523 . S
C2819 C2803 1.429 . S
C2819 C2815 1.429 . S
C2819 C2820 1.523 . S
C2820 C2804 1.368 . S
C2820 C2816 1.368 . S
C2820 C2819 1.523 . S
H2821 C2796 0.950 . S
H2822 C2798 0.950 . S
H2823 C2799 0.949 . S
H2824 C2801 0.950 . S
H2825 C2803 0.950 . S
C2826 C2827 1.349 . S
C2826 C2828 1.327 . S
C2826 H2851 0.950 . S
C2827 C2826 1.349 . S
C2827 C2843 1.349 . S
C2828 C2826 1.327 . S
C2828 C2847 1.429 . S
C2828 H2852 0.950 . S
C2829 C2846 1.574 . S
C2829 C2848 1.368 . S
C2829 H2853 0.949 . S
H2830 C2834 0.949 . S
C2831 C2832 1.349 . S
C2831 C2833 1.327 . S
C2831 H2854 0.950 . S
C2832 C2831 1.349 . S
C2832 C2844 1.349 . S
C2833 C2831 1.327 . S
C2833 C2849 1.429 . S
C2833 H2855 0.950 . S
C2834 H2830 0.949 . S
C2834 C2842 1.574 . S
C2834 C2850 1.368 . S
H2835 C2843 0.950 . S
H2836 C2841 0.950 . S
H2837 C2842 0.949 . S
H2838 C2844 0.950 . S
H2839 C2845 0.950 . S
H2840 C2846 0.949 . S
C2841 H2836 0.950 . S
C2841 C2843 1.327 . S
C2841 C2847 1.429 . S
C2842 C2834 1.574 . S
C2842 H2837 0.949 . S
C2842 C2848 1.368 . S
C2843 C2827 1.349 . S
C2843 H2835 0.950 . S
C2843 C2841 1.327 . S
C2844 C2832 1.349 . S
C2844 H2838 0.950 . S
C2844 C2845 1.327 . S
C2845 H2839 0.950 . S
C2845 C2844 1.327 . S
C2845 C2849 1.429 . S
C2846 C2829 1.574 . S
C2846 H2840 0.949 . S
C2846 C2850 1.368 . S
C2847 C2828 1.429 . S
C2847 C2841 1.429 . S
C2847 C2848 1.523 . S
C2848 C2829 1.368 . S
C2848 C2842 1.368 . S
C2848 C2847 1.523 . S
C2849 C2833 1.429 . S
C2849 C2845 1.429 . S
C2849 C2850 1.523 . S
C2850 C2834 1.368 . S
C2850 C2846 1.368 . S
C2850 C2849 1.523 . S
H2851 C2826 0.950 . S
H2852 C2828 0.950 . S
H2853 C2829 0.949 . S
H2854 C2831 0.950 . S
H2855 C2833 0.950 . S
C1417 C52 1.832 . S
C1422 C465 1.832 . S
C1447 C524 1.832 . S
C1452 C111 1.832 . S
C1477 C170 1.832 . S
C1482 C583 1.832 . S
C1507 C229 1.832 . S
C1512 C642 1.832 . S
C1537 C701 1.832 . S
C1542 C288 1.832 . S
C1567 C347 1.832 . S
C1572 C406 1.832 . S
C1597 C760 1.832 . S
C1602 C1173 1.832 . S
C1627 C819 1.832 . S
C1632 C1232 1.832 . S
C1657 C1291 1.832 . S
C1662 C878 1.832 . S
C1687 C937 1.832 . S
C1692 C1350 1.832 . S
C1717 C996 1.832 . S
C1722 C1409 1.832 . S
C1747 C1114 1.832 . S
C1752 C1055 1.832 . S
C1777 C5 1.592 . S
C1782 C477 1.592 . S
C1807 C536 1.592 . S
C1812 C64 1.592 . S
C1837 C595 1.592 . S
C1842 C123 1.592 . S
C1867 C182 1.592 . S
C1872 C654 1.592 . S
C1897 C241 1.592 . S
C1902 C359 1.592 . S
C1927 C300 1.592 . S
C1932 C418 1.592 . S
C1957 C1185 1.592 . S
C1962 C713 1.592 . S
C1987 C772 1.592 . S
C1992 C1244 1.592 . S
C2017 C1303 1.592 . S
C2022 C831 1.592 . S
C2047 C1362 1.592 . S
C2052 C890 1.592 . S
C2077 C1067 1.592 . S
C2082 C949 1.592 . S
C2107 C1008 1.592 . S
C2112 C1126 1.592 . S
C2137 C3 1.651 . S
C2142 C888 1.651 . S
C2167 C947 1.651 . S
C2172 C62 1.651 . S
C2197 C1006 1.651 . S
C2202 C121 1.651 . S
C2227 C180 1.651 . S
C2232 C711 1.651 . S
C2257 C239 1.651 . S
C2262 C770 1.651 . S
C2287 C829 1.651 . S
C2292 C298 1.651 . S
C2317 C1242 1.651 . S
C2322 C357 1.651 . S
C2347 C1301 1.651 . S
C2352 C416 1.651 . S
C2377 C1360 1.651 . S
C2382 C475 1.651 . S
C2407 C1065 1.651 . S
C2412 C534 1.651 . S
C2437 C593 1.651 . S
C2442 C1124 1.651 . S
C2467 C652 1.651 . S
C2472 C1183 1.651 . S
C2497 C33 1.403 . S
C2502 C623 1.403 . S
C2527 C682 1.403 . S
C2532 C92 1.403 . S
C2557 C387 1.403 . S
C2562 C151 1.403 . S
C2587 C210 1.403 . S
C2592 C446 1.403 . S
C2617 C269 1.403 . S
C2622 C505 1.403 . S
C2647 C328 1.403 . S
C2652 C564 1.403 . S
C2677 C741 1.403 . S
C2682 C1331 1.403 . S
C2707 C800 1.403 . S
C2712 C1390 1.403 . S
C2737 C859 1.403 . S
C2742 C1095 1.403 . S
C2767 C1154 1.403 . S
C2772 C918 1.403 . S
C2797 C977 1.403 . S
C2802 C1213 1.403 . S
C2827 C1036 1.403 . S
C2832 C1272 1.403 . S
