# Generated by pormake.
# Topology sod-e, (6)-cn, num edge types: 1
# Building blocks:
#     Node 0, Type 0, BuildingBlock: OJICUG_clean_sbu_0, # of connection points: 6
#     Node 1, Type 0, BuildingBlock: OJICUG_clean_sbu_0, # of connection points: 6
#     Node 2, Type 0, BuildingBlock: OJICUG_clean_sbu_0, # of connection points: 6
#     Node 3, Type 0, BuildingBlock: OJICUG_clean_sbu_0, # of connection points: 6
#     Node 4, Type 0, BuildingBlock: OJICUG_clean_sbu_0, # of connection points: 6
#     Node 5, Type 0, BuildingBlock: OJICUG_clean_sbu_0, # of connection points: 6
#     Node 6, Type 0, BuildingBlock: OJICUG_clean_sbu_0, # of connection points: 6
#     Node 7, Type 0, BuildingBlock: OJICUG_clean_sbu_0, # of connection points: 6
#     Node 8, Type 0, BuildingBlock: OJICUG_clean_sbu_0, # of connection points: 6
#     Node 9, Type 0, BuildingBlock: OJICUG_clean_sbu_0, # of connection points: 6
#     Node 10, Type 0, BuildingBlock: OJICUG_clean_sbu_0, # of connection points: 6
#     Node 11, Type 0, BuildingBlock: OJICUG_clean_sbu_0, # of connection points: 6
#     Node 12, Type 0, BuildingBlock: OJICUG_clean_sbu_0, # of connection points: 6
#     Node 13, Type 0, BuildingBlock: OJICUG_clean_sbu_0, # of connection points: 6
#     Node 14, Type 0, BuildingBlock: OJICUG_clean_sbu_0, # of connection points: 6
#     Node 15, Type 0, BuildingBlock: OJICUG_clean_sbu_0, # of connection points: 6
#     Node 16, Type 0, BuildingBlock: OJICUG_clean_sbu_0, # of connection points: 6
#     Node 17, Type 0, BuildingBlock: OJICUG_clean_sbu_0, # of connection points: 6
#     Node 18, Type 0, BuildingBlock: OJICUG_clean_sbu_0, # of connection points: 6
#     Node 19, Type 0, BuildingBlock: OJICUG_clean_sbu_0, # of connection points: 6
#     Node 20, Type 0, BuildingBlock: OJICUG_clean_sbu_0, # of connection points: 6
#     Node 21, Type 0, BuildingBlock: OJICUG_clean_sbu_0, # of connection points: 6
#     Node 22, Type 0, BuildingBlock: OJICUG_clean_sbu_0, # of connection points: 6
#     Node 23, Type 0, BuildingBlock: OJICUG_clean_sbu_0, # of connection points: 6
#     Edge 24, Type (0, 0), BuildingBlock: UVAHIK_clean_linker_0, # of connection points: 2
#     Edge 25, Type (0, 0), BuildingBlock: UVAHIK_clean_linker_0, # of connection points: 2
#     Edge 26, Type (0, 0), BuildingBlock: UVAHIK_clean_linker_0, # of connection points: 2
#     Edge 27, Type (0, 0), BuildingBlock: UVAHIK_clean_linker_0, # of connection points: 2
#     Edge 28, Type (0, 0), BuildingBlock: UVAHIK_clean_linker_0, # of connection points: 2
#     Edge 29, Type (0, 0), BuildingBlock: UVAHIK_clean_linker_0, # of connection points: 2
#     Edge 30, Type (0, 0), BuildingBlock: UVAHIK_clean_linker_0, # of connection points: 2
#     Edge 31, Type (0, 0), BuildingBlock: UVAHIK_clean_linker_0, # of connection points: 2
#     Edge 32, Type (0, 0), BuildingBlock: UVAHIK_clean_linker_0, # of connection points: 2
#     Edge 33, Type (0, 0), BuildingBlock: UVAHIK_clean_linker_0, # of connection points: 2
#     Edge 34, Type (0, 0), BuildingBlock: UVAHIK_clean_linker_0, # of connection points: 2
#     Edge 35, Type (0, 0), BuildingBlock: UVAHIK_clean_linker_0, # of connection points: 2
#     Edge 36, Type (0, 0), BuildingBlock: UVAHIK_clean_linker_0, # of connection points: 2
#     Edge 37, Type (0, 0), BuildingBlock: UVAHIK_clean_linker_0, # of connection points: 2
#     Edge 38, Type (0, 0), BuildingBlock: UVAHIK_clean_linker_0, # of connection points: 2
#     Edge 39, Type (0, 0), BuildingBlock: UVAHIK_clean_linker_0, # of connection points: 2
#     Edge 40, Type (0, 0), BuildingBlock: UVAHIK_clean_linker_0, # of connection points: 2
#     Edge 41, Type (0, 0), BuildingBlock: UVAHIK_clean_linker_0, # of connection points: 2
#     Edge 42, Type (0, 0), BuildingBlock: UVAHIK_clean_linker_0, # of connection points: 2
#     Edge 43, Type (0, 0), BuildingBlock: UVAHIK_clean_linker_0, # of connection points: 2
#     Edge 44, Type (0, 0), BuildingBlock: UVAHIK_clean_linker_0, # of connection points: 2
#     Edge 45, Type (0, 0), BuildingBlock: UVAHIK_clean_linker_0, # of connection points: 2
#     Edge 46, Type (0, 0), BuildingBlock: UVAHIK_clean_linker_0, # of connection points: 2
#     Edge 47, Type (0, 0), BuildingBlock: UVAHIK_clean_linker_0, # of connection points: 2
#     Edge 48, Type (0, 0), BuildingBlock: UVAHIK_clean_linker_0, # of connection points: 2
#     Edge 49, Type (0, 0), BuildingBlock: UVAHIK_clean_linker_0, # of connection points: 2
#     Edge 50, Type (0, 0), BuildingBlock: UVAHIK_clean_linker_0, # of connection points: 2
#     Edge 51, Type (0, 0), BuildingBlock: UVAHIK_clean_linker_0, # of connection points: 2
#     Edge 52, Type (0, 0), BuildingBlock: UVAHIK_clean_linker_0, # of connection points: 2
#     Edge 53, Type (0, 0), BuildingBlock: UVAHIK_clean_linker_0, # of connection points: 2
#     Edge 54, Type (0, 0), BuildingBlock: UVAHIK_clean_linker_0, # of connection points: 2
#     Edge 55, Type (0, 0), BuildingBlock: UVAHIK_clean_linker_0, # of connection points: 2
#     Edge 56, Type (0, 0), BuildingBlock: UVAHIK_clean_linker_0, # of connection points: 2
#     Edge 57, Type (0, 0), BuildingBlock: UVAHIK_clean_linker_0, # of connection points: 2
#     Edge 58, Type (0, 0), BuildingBlock: UVAHIK_clean_linker_0, # of connection points: 2
#     Edge 59, Type (0, 0), BuildingBlock: UVAHIK_clean_linker_0, # of connection points: 2
#     Edge 60, Type (0, 0), BuildingBlock: UVAHIK_clean_linker_0, # of connection points: 2
#     Edge 61, Type (0, 0), BuildingBlock: UVAHIK_clean_linker_0, # of connection points: 2
#     Edge 62, Type (0, 0), BuildingBlock: UVAHIK_clean_linker_0, # of connection points: 2
#     Edge 63, Type (0, 0), BuildingBlock: UVAHIK_clean_linker_0, # of connection points: 2
#     Edge 64, Type (0, 0), BuildingBlock: UVAHIK_clean_linker_0, # of connection points: 2
#     Edge 65, Type (0, 0), BuildingBlock: UVAHIK_clean_linker_0, # of connection points: 2
#     Edge 66, Type (0, 0), BuildingBlock: UVAHIK_clean_linker_0, # of connection points: 2
#     Edge 67, Type (0, 0), BuildingBlock: UVAHIK_clean_linker_0, # of connection points: 2
#     Edge 68, Type (0, 0), BuildingBlock: UVAHIK_clean_linker_0, # of connection points: 2
#     Edge 69, Type (0, 0), BuildingBlock: UVAHIK_clean_linker_0, # of connection points: 2
#     Edge 70, Type (0, 0), BuildingBlock: UVAHIK_clean_linker_0, # of connection points: 2
#     Edge 71, Type (0, 0), BuildingBlock: UVAHIK_clean_linker_0, # of connection points: 2
#     Edge 72, Type (0, 0), BuildingBlock: UVAHIK_clean_linker_0, # of connection points: 2
#     Edge 73, Type (0, 0), BuildingBlock: UVAHIK_clean_linker_0, # of connection points: 2
#     Edge 74, Type (0, 0), BuildingBlock: UVAHIK_clean_linker_0, # of connection points: 2
#     Edge 75, Type (0, 0), BuildingBlock: UVAHIK_clean_linker_0, # of connection points: 2
#     Edge 76, Type (0, 0), BuildingBlock: UVAHIK_clean_linker_0, # of connection points: 2
#     Edge 77, Type (0, 0), BuildingBlock: UVAHIK_clean_linker_0, # of connection points: 2
#     Edge 78, Type (0, 0), BuildingBlock: UVAHIK_clean_linker_0, # of connection points: 2
#     Edge 79, Type (0, 0), BuildingBlock: UVAHIK_clean_linker_0, # of connection points: 2
#     Edge 80, Type (0, 0), BuildingBlock: UVAHIK_clean_linker_0, # of connection points: 2
#     Edge 81, Type (0, 0), BuildingBlock: UVAHIK_clean_linker_0, # of connection points: 2
#     Edge 82, Type (0, 0), BuildingBlock: UVAHIK_clean_linker_0, # of connection points: 2
#     Edge 83, Type (0, 0), BuildingBlock: UVAHIK_clean_linker_0, # of connection points: 2
#     Edge 84, Type (0, 0), BuildingBlock: UVAHIK_clean_linker_0, # of connection points: 2
#     Edge 85, Type (0, 0), BuildingBlock: UVAHIK_clean_linker_0, # of connection points: 2
#     Edge 86, Type (0, 0), BuildingBlock: UVAHIK_clean_linker_0, # of connection points: 2
#     Edge 87, Type (0, 0), BuildingBlock: UVAHIK_clean_linker_0, # of connection points: 2
#     Edge 88, Type (0, 0), BuildingBlock: UVAHIK_clean_linker_0, # of connection points: 2
#     Edge 89, Type (0, 0), BuildingBlock: UVAHIK_clean_linker_0, # of connection points: 2
#     Edge 90, Type (0, 0), BuildingBlock: UVAHIK_clean_linker_0, # of connection points: 2
#     Edge 91, Type (0, 0), BuildingBlock: UVAHIK_clean_linker_0, # of connection points: 2
#     Edge 92, Type (0, 0), BuildingBlock: UVAHIK_clean_linker_0, # of connection points: 2
#     Edge 93, Type (0, 0), BuildingBlock: UVAHIK_clean_linker_0, # of connection points: 2
#     Edge 94, Type (0, 0), BuildingBlock: UVAHIK_clean_linker_0, # of connection points: 2
#     Edge 95, Type (0, 0), BuildingBlock: UVAHIK_clean_linker_0, # of connection points: 2
# Relax obj value: 0.275
# Max RMSD: 0.220
# Mean RMSD: 0.220
data_MOF--net-sod-e--node1-OJICUG_clean_sbu_0--edge1-UVAHIK_clean_linker_0
_symmetry_space_group_name_H-M    P1
_symmetry_Int_Tables_number       1
_symmetry_cell_setting            triclinic
loop_
_symmetry_equiv_pos_as_xyz
'x, y, z'
_cell_length_a     65.025698
_cell_length_b     64.905484
_cell_length_c     64.971764
_cell_angle_alpha  90.014301
_cell_angle_beta   90.01425
_cell_angle_gamma 89.923653
loop_
_atom_site_label
_atom_site_type_symbol
_atom_site_fract_x
_atom_site_fract_y
_atom_site_fract_z
_atom_type_partial_charge
Sc0 Sc 0.94292 0.35603 0.33288 0.0
Sc1 Sc 0.97089 0.39468 0.35849 0.0
Sc2 Sc 0.91785 0.39018 0.36729 0.0
O3 O 0.94386 0.38024 0.35284 0.0
C4 C 0.90129 0.37935 0.32221 0.0
C5 C 0.97426 0.38619 0.31041 0.0
C6 C 0.9393 0.43208 0.35417 0.0
C7 C 0.98438 0.3474 0.35761 0.0
C8 C 0.9129 0.34173 0.36921 0.0
C9 C 0.95125 0.39403 0.40324 0.0
O10 O 0.91656 0.36824 0.31702 0.0
O11 O 0.9784 0.39615 0.32665 0.0
O12 O 0.92336 0.42174 0.35875 0.0
O13 O 0.96906 0.34146 0.34701 0.0
O14 O 0.90983 0.35966 0.37637 0.0
O15 O 0.96642 0.39472 0.39103 0.0
O16 O 0.92385 0.33821 0.35336 0.0
O17 O 0.98726 0.36613 0.36257 0.0
O18 O 0.93275 0.39319 0.39697 0.0
O19 O 0.96228 0.37073 0.31003 0.0
O20 O 0.89957 0.38763 0.33985 0.0
O21 O 0.95731 0.4245 0.35454 0.0
Sc22 Sc 0.6872 0.98577 0.33249 0.0
Sc23 Sc 0.63661 0.97038 0.34517 0.0
Sc24 Sc 0.64529 0.01934 0.32468 0.0
O25 O 0.65641 0.99175 0.33408 0.0
C26 C 0.68739 0.03252 0.34619 0.0
C27 C 0.67483 0.96489 0.37529 0.0
C28 C 0.62135 0.0123 0.36639 0.0
C29 C 0.66746 0.94329 0.31797 0.0
C30 C 0.67748 0.00833 0.2899 0.0
C31 C 0.60878 0.98979 0.31029 0.0
O32 O 0.69525 0.0146 0.34668 0.0
O33 O 0.65591 0.96357 0.37081 0.0
O34 O 0.62984 0.0242 0.35339 0.0
O35 O 0.68208 0.95628 0.31834 0.0
O36 O 0.66043 0.01586 0.2958 0.0
O37 O 0.61452 0.97448 0.32097 0.0
O38 O 0.68982 -0.00135 0.30167 0.0
O39 O 0.65036 0.94622 0.32705 0.0
O40 O 0.61799 0.00698 0.31081 0.0
O41 O 0.68816 0.97214 0.36292 0.0
O42 O 0.67041 0.03636 0.33742 0.0
O43 O 0.62141 0.99273 0.36464 0.0
Sc44 Sc 0.00716 0.7007 0.32269 0.0
Sc45 Sc 0.9722 0.6678 0.34501 0.0
Sc46 Sc 0.01947 0.64933 0.32967 0.0
O47 O -0.00021 0.6724 0.33272 0.0
C48 C 0.03205 0.67277 0.29122 0.0
C49 C 0.96411 0.69317 0.30489 0.0
C50 C 0.97636 0.62862 0.31738 0.0
C51 C 0.97962 0.71042 0.36185 0.0
C52 C 0.04571 0.6877 0.34712 0.0
C53 C 0.00071 0.63934 0.37301 0.0
O54 O 0.02976 0.68996 0.30032 0.0
O55 O 0.9584 0.6892 0.32325 0.0
O56 O -0.00418 0.62791 0.31994 0.0
O57 O 0.98614 0.7162 0.34426 0.0
O58 O 0.04444 0.66939 0.33982 0.0
O59 O 0.98313 0.64644 0.36808 0.0
O60 O 0.03179 0.70144 0.34459 0.0
O61 O 0.97858 0.69158 0.36657 0.0
O62 O 0.01622 0.64054 0.36122 0.0
O63 O 0.98277 0.69741 0.3006 0.0
O64 O 0.02362 0.65655 0.29786 0.0
O65 O 0.96531 0.64331 0.32412 0.0
Sc66 Sc 0.3543 0.98639 0.32857 0.0
Sc67 Sc 0.35966 0.03984 0.32396 0.0
Sc68 Sc 0.32163 0.01383 0.29481 0.0
O69 O 0.34506 0.01341 0.31581 0.0
C70 C 0.3457 0.97295 0.28227 0.0
C71 C 0.39692 0.00809 0.31894 0.0
C72 C 0.35294 0.04621 0.27582 0.0
C73 C 0.35809 0.01665 0.36699 0.0
C74 C 0.30572 0.98178 0.32877 0.0
C75 C 0.31309 0.05475 0.32099 0.0
O76 O 0.35336 0.97032 0.3 0.0
O77 O 0.38983 0.02636 0.31971 0.0
O78 O 0.3386 0.03313 0.27349 0.0
O79 O 0.35662 -0.00114 0.35906 0.0
O80 O 0.30221 0.99426 0.31399 0.0
O81 O 0.33128 0.05607 0.32802 0.0
O82 O 0.32363 0.97798 0.33547 0.0
O83 O 0.35911 0.03298 0.35632 0.0
O84 O 0.30728 0.04038 0.30897 0.0
O85 O 0.38591 0.99231 0.32219 0.0
O86 O 0.33404 0.98803 0.27782 0.0
O87 O 0.36147 0.05 0.29293 0.0
Sc88 Sc 0.05846 0.63632 0.62899 0.0
Sc89 Sc 0.01004 0.61313 0.63158 0.0
Sc90 Sc 0.02309 0.65185 0.66697 0.0
O91 O 0.03053 0.63375 0.64258 0.0
C92 C 0.06953 0.64161 0.67667 0.0
C93 C 0.05268 0.58845 0.62867 0.0
C94 C 0.00311 0.60843 0.67937 0.0
C95 C 0.02897 0.62902 0.59014 0.0
C96 C 0.04655 0.6828 0.63689 0.0
C97 C 0.98116 0.65155 0.64241 0.0
O98 O 0.07443 0.64001 0.65781 0.0
O99 O 0.03324 0.58988 0.62701 0.0
O100 O 0.00825 0.62693 0.68339 0.0
O101 O 0.04646 0.6326 0.59815 0.0
O102 O 0.03657 0.67902 0.6533 0.0
O103 O 0.98437 0.63387 0.63463 0.0
O104 O 0.05434 0.66884 0.62559 0.0
O105 O 0.01344 0.62369 0.60066 0.0
O106 O 0.99435 0.66086 0.65344 0.0
O107 O 0.06436 0.60386 0.63147 0.0
O108 O 0.05114 0.64446 0.68264 0.0
O109 O 0.00454 0.60065 0.66149 0.0
Sc110 Sc 0.31713 0.97739 0.62004 0.0
Sc111 Sc 0.3449 0.02238 0.63063 0.0
Sc112 Sc 0.29783 0.01316 0.65614 0.0
O113 O 0.32001 0.00428 0.63572 0.0
C114 C 0.27075 0.99261 0.62055 0.0
C115 C 0.33535 0.00619 0.58519 0.0
C116 C 0.30718 0.05409 0.63055 0.0
C117 C 0.36513 0.97785 0.63053 0.0
C118 C 0.30377 0.96548 0.66596 0.0
C119 C 0.33817 0.03056 0.67844 0.0
O120 O 0.28575 0.98301 0.61265 0.0
O121 O 0.34417 0.0182 0.59781 0.0
O122 O 0.29511 0.04285 0.64122 0.0
O123 O 0.34873 0.96883 0.62489 0.0
O124 O 0.29966 0.98377 0.67191 0.0
O125 O 0.34927 0.02951 0.66245 0.0
O126 O 0.30929 0.96108 0.64769 0.0
O127 O 0.36606 -0.00291 0.63417 0.0
O128 O 0.31935 0.02532 0.67849 0.0
O129 O 0.32442 0.99104 0.59086 0.0
O130 O 0.27237 0.0031 0.63698 0.0
O131 O 0.32559 0.04891 0.62629 0.0
Sc132 Sc 0.02354 0.31102 0.68363 0.0
Sc133 Sc 0.04765 0.33193 0.63984 0.0
Sc134 Sc 7e-05 0.35138 0.65605 0.0
O135 O 0.02373 0.33148 0.65985 0.0
C136 C 0.97787 0.30863 0.66684 0.0
C137 C 0.04214 0.28429 0.64689 0.0
C138 C 0.01012 0.34112 0.60933 0.0
C139 C 0.06966 0.32582 0.68365 0.0
C140 C 0.00256 0.3502 0.70468 0.0
C141 C 0.03957 0.37947 0.64718 0.0
O142 O 0.99363 0.3004 0.67505 0.0
O143 O 0.04554 0.29948 0.6351 0.0
O144 O -0.00221 0.34621 0.62356 0.0
O145 O 0.05351 0.32058 0.69337 0.0
O146 O -0.00074 0.35936 0.6878 0.0
O147 O 0.05141 0.36451 0.64282 0.0
O148 O 0.01025 0.33223 0.70569 0.0
O149 O 0.07 0.32862 0.66426 0.0
O150 O 0.02063 0.37718 0.65169 0.0
O151 O 0.03624 0.28623 0.66542 0.0
O152 O 0.97753 0.32714 0.66023 0.0
O153 O 0.02868 0.33598 0.6128 0.0
Sc154 Sc 0.59387 0.007 0.61952 0.0
Sc155 Sc 0.61624 0.96136 0.60023 0.0
Sc156 Sc 0.62769 0.97802 0.6505 0.0
O157 O 0.61267 0.98219 0.62336 0.0
C158 C 0.63255 0.0263 0.64281 0.0
C159 C 0.61421 0.00359 0.57509 0.0
C160 C 0.66167 0.96369 0.61804 0.0
C161 C 0.56814 0.97062 0.59907 0.0
C162 C 0.58459 0.99528 0.66612 0.0
C163 C 0.6132 0.93248 0.63991 0.0
O164 O 0.61667 0.02786 0.63144 0.0
O165 O 0.61951 0.98482 0.57696 0.0
O166 O 0.65593 0.96932 0.63585 0.0
O167 O 0.56947 0.98832 0.60736 0.0
O168 O 0.6014 0.98574 0.66885 0.0
O169 O 0.61273 0.93542 0.62058 0.0
O170 O 0.57985 0.00376 0.64919 0.0
O171 O 0.58359 0.95919 0.59543 0.0
O172 O 0.61806 0.9465 0.65268 0.0
O173 O 0.60499 0.01349 0.58917 0.0
O174 O 0.63849 0.00934 0.65064 0.0
O175 O 0.6492 0.96092 0.60322 0.0
Sc176 Sc 0.37483 0.36945 0.00941 0.0
Sc177 Sc 0.38203 0.35052 0.0594 0.0
Sc178 Sc 0.35384 0.32122 0.0233 0.0
O179 O 0.37021 0.34702 0.03066 0.0
C180 C 0.32934 0.35551 -0.00189 0.0
C181 C 0.36491 0.39546 0.04982 0.0
C182 C 0.33726 0.33201 0.06797 0.0
C183 C 0.41823 0.36883 0.03228 0.0
C184 C 0.38224 0.32816 0.98376 0.0
C185 C 0.38953 0.3029 0.05169 0.0
O186 O 0.34395 0.3684 -0.00168 0.0
O187 O 0.37104 0.38157 0.06215 0.0
O188 O 0.33457 0.32446 0.0501 0.0
O189 O 0.4066 0.37326 0.01724 0.0
O190 O 0.37165 0.31662 -0.00441 0.0
O191 O 0.39422 0.3201 0.05959 0.0
O192 O 0.38463 0.34738 0.98677 0.0
O193 O 0.41162 0.36046 0.04862 0.0
O194 O 0.37469 0.30054 0.03917 0.0
O195 O 0.36521 0.39333 0.03035 0.0
O196 O 0.33058 0.33789 0.00649 0.0
O197 O 0.35382 0.34082 0.07347 0.0
Sc198 Sc 0.32984 0.67231 0.03388 0.0
Sc199 Sc 0.35817 0.62728 0.02456 0.0
Sc200 Sc 0.35672 0.6477 0.07452 0.0
O201 O 0.34834 0.64924 0.04433 0.0
C202 C 0.35875 0.69605 0.06533 0.0
C203 C 0.36266 0.66729 -0.00269 0.0
C204 C 0.39791 0.63322 0.05308 0.0
C205 C 0.31244 0.63467 0.00835 0.0
C206 C 0.30957 0.66087 0.0771 0.0
C207 C 0.34678 0.60078 0.06382 0.0
O208 O 0.34773 0.69561 0.04918 0.0
O209 O 0.36891 0.64954 0.00272 0.0
O210 O 0.38896 0.6428 0.06762 0.0
O211 O 0.30964 0.65174 0.01747 0.0
O212 O 0.32554 0.65222 0.08437 0.0
O213 O 0.34779 0.6033 0.04447 0.0
O214 O 0.3091 0.66946 0.05952 0.0
O215 O 0.32936 0.62498 0.00904 0.0
O216 O 0.35113 0.6149 0.07667 0.0
O217 O 0.34839 0.67695 0.00671 0.0
O218 O 0.36277 0.68014 0.07601 0.0
O219 O 0.38836 0.62637 0.03749 0.0
Sc220 Sc 0.7025 0.307 0.98326 0.0
Sc221 Sc 0.67829 0.35281 -0.00236 0.0
Sc222 Sc 0.66241 0.32752 0.95348 0.0
O223 O 0.68105 0.32906 0.97818 0.0
C224 C 0.70556 0.31192 0.93566 0.0
C225 C 0.72596 0.3479 -0.00309 0.0
C226 C 0.67363 0.37434 0.95369 0.0
C227 C 0.68548 0.31449 0.02788 0.0
C228 C 0.66383 0.28149 0.96619 0.0
C229 C 0.63196 0.34551 0.98768 0.0
O230 O 0.71508 0.31152 0.95281 0.0
O231 O 0.71018 0.35922 -0.00447 0.0
O232 O 0.67092 0.358 0.94324 0.0
O233 O 0.69082 0.30164 0.014 0.0
O234 O 0.6529 0.29723 0.96219 0.0
O235 O 0.64581 0.34861 0.00108 0.0
O236 O 0.68264 0.28265 0.97163 0.0
O237 O 0.68252 0.33352 0.0242 0.0
O238 O 0.63599 0.33975 0.96942 0.0
O239 O 0.72533 0.32835 -0.00448 0.0
O240 O 0.68627 0.31492 0.93428 0.0
O241 O 0.67432 0.37466 0.97323 0.0
Sc242 Sc 0.65488 0.62149 -0.00172 0.0
Sc243 Sc 0.62839 0.62756 0.95162 0.0
Sc244 Sc 0.66406 0.66519 0.96745 0.0
O245 O 0.64916 0.63807 0.97242 0.0
C246 C 0.652 0.66786 0.0147 0.0
C247 C 0.60637 0.61665 0.99409 0.0
C248 C 0.61937 0.67523 0.94908 0.0
C249 C 0.65173 0.58631 0.96408 0.0
C250 C 0.69953 0.63831 0.98847 0.0
C251 C 0.66483 0.64487 0.92328 0.0
O252 O 0.65272 0.64845 0.01738 0.0
O253 O 0.60623 0.61955 0.97476 0.0
O254 O 0.63745 0.68035 0.95445 0.0
O255 O 0.65747 0.5929 0.98159 0.0
O256 O 0.69313 0.65439 0.97935 0.0
O257 O 0.64819 0.63501 0.9262 0.0
O258 O 0.68755 0.62441 0.9951 0.0
O259 O 0.6412 0.59704 0.95158 0.0
O260 O 0.67371 0.65544 0.93721 0.0
O261 O 0.62273 0.61698 0.00475 0.0
O262 O 0.65512 0.67647 -0.00264 0.0
O263 O 0.61326 0.65668 0.94904 0.0
Sc264 Sc 0.45433 0.80775 0.79689 0.0
Sc265 Sc 0.48007 0.84928 0.82033 0.0
Sc266 Sc 0.42953 0.83733 0.83506 0.0
O267 O 0.45462 0.8315 0.81738 0.0
C268 C 0.41078 0.82884 0.79018 0.0
C269 C 0.48194 0.84051 0.77253 0.0
C270 C 0.44443 0.88278 0.824 0.0
C271 C 0.49775 0.80321 0.8187 0.0
C272 C 0.4279 0.78876 0.83372 0.0
C273 C 0.46585 0.8446 0.86712 0.0
O274 O 0.42644 0.81946 0.78291 0.0
O275 O 0.48473 0.85217 0.78792 0.0
O276 O 0.43109 0.86974 0.82971 0.0
O277 O 0.48198 0.79521 0.81023 0.0
O278 O 0.42477 0.80582 0.84262 0.0
O279 O 0.47904 0.8483 0.85322 0.0
O280 O 0.4375 0.78716 0.8168 0.0
O281 O 0.49959 0.82249 0.82187 0.0
O282 O 0.44716 0.84035 0.86317 0.0
O283 O 0.47185 0.82381 0.77367 0.0
O284 O 0.40955 0.83499 0.80876 0.0
O285 O 0.46288 0.87783 0.81966 0.0
Sc286 Sc 0.16035 0.48697 0.85735 0.0
Sc287 Sc 0.11925 0.45822 0.87806 0.0
Sc288 Sc 0.11765 0.51242 0.87913 0.0
O289 O 0.13239 0.48586 0.87142 0.0
C290 C 0.16403 0.52283 0.89075 0.0
C291 C 0.16615 0.44912 0.88829 0.0
C292 C 0.10802 0.48421 0.91814 0.0
C293 C 0.13909 0.44968 0.83381 0.0
C294 C 0.13737 0.52469 0.83594 0.0
C295 C 0.08057 0.48463 0.86331 0.0
O296 O 0.17188 0.50932 0.87892 0.0
O297 O 0.14709 0.44566 0.89061 0.0
O298 O 0.10981 0.50159 0.90935 0.0
O299 O 0.15188 0.46448 0.83447 0.0
O300 O 0.12401 0.52666 0.85007 0.0
O301 O 0.08971 0.46759 0.86641 0.0
O302 O 0.15128 0.51093 0.83631 0.0
O303 O 0.1265 0.44583 0.84828 0.0
O304 O 0.08883 0.50198 0.86695 0.0
O305 O 0.17302 0.46332 0.87673 0.0
O306 O 0.14478 0.52573 0.8923 0.0
O307 O 0.11099 0.46726 0.90882 0.0
Sc308 Sc 0.49343 0.14048 0.84913 0.0
Sc309 Sc 0.45642 0.13097 0.88776 0.0
Sc310 Sc 0.50196 0.10181 0.88617 0.0
O311 O 0.48394 0.12447 0.87435 0.0
C312 C 0.50745 0.09437 0.83846 0.0
C313 C 0.44609 0.13251 0.83956 0.0
C314 C 0.4572 0.0822 0.89 0.0
C315 C 0.47247 0.17569 0.87614 0.0
C316 C 0.53474 0.13677 0.8751 0.0
C317 C 0.48589 0.12423 0.92649 0.0
O318 O 0.50411 0.11307 0.83367 0.0
O319 O 0.44079 0.13166 0.8584 0.0
O320 O 0.47668 0.08095 0.8901 0.0
O321 O 0.4835 0.16993 0.86106 0.0
O322 O 0.52933 0.12004 0.88366 0.0
O323 O 0.46919 0.13076 0.9186 0.0
O324 O 0.52324 0.14651 0.86255 0.0
O325 O 0.46243 0.16335 0.88745 0.0
O326 O 0.49898 0.11373 0.91652 0.0
O327 O 0.46455 0.13554 0.83385 0.0
O328 O 0.50676 0.08782 0.85683 0.0
O329 O 0.44757 0.09917 0.88897 0.0
Sc330 Sc 0.82085 0.46234 0.84657 0.0
Sc331 Sc 0.82389 0.51574 0.84136 0.0
Sc332 Sc 0.80728 0.48509 0.79992 0.0
O333 O 0.81709 0.48789 0.82937 0.0
C334 C 0.83755 0.44783 0.80297 0.0
C335 C 0.86128 0.4872 0.85604 0.0
C336 C 0.84049 0.52105 0.79605 0.0
C337 C 0.8066 0.49467 0.88111 0.0
C338 C 0.78057 0.45122 0.82394 0.0
C339 C 0.78268 0.52387 0.81539 0.0
O340 O 0.83175 0.44373 0.82119 0.0
O341 O 0.85233 0.50464 0.85467 0.0
O342 O 0.82769 0.50857 0.78813 0.0
O343 O 0.81166 0.47683 0.87488 0.0
O344 O 0.78644 0.46002 0.80742 0.0
O345 O 0.79657 0.52911 0.82818 0.0
O346 O 0.7897 0.45347 0.84108 0.0
O347 O 0.80747 0.51042 0.86957 0.0
O348 O 0.78304 0.50728 0.80492 0.0
O349 O 0.85222 0.47021 0.85246 0.0
O350 O 0.83141 0.46367 0.7933 0.0
O351 O 0.84157 0.52437 0.81521 0.0
Sc352 Sc 0.58313 0.17 0.16771 0.0
Sc353 Sc 0.53708 0.14694 0.17985 0.0
Sc354 Sc 0.55415 0.18754 0.20875 0.0
O355 O 0.55792 0.16824 0.18481 0.0
C356 C 0.59668 0.16864 0.21296 0.0
C357 C 0.57907 0.12214 0.17243 0.0
C358 C 0.53033 0.1484 0.22491 0.0
C359 C 0.5484 0.15955 0.13461 0.0
C360 C 0.57769 0.2153 0.17682 0.0
C361 C 0.5133 0.18956 0.18545 0.0
O362 O 0.60004 0.17723 0.19565 0.0
O363 O 0.55955 0.12322 0.17382 0.0
O364 O 0.53217 0.16788 0.22501 0.0
O365 O 0.56708 0.16347 0.13917 0.0
O366 O 0.57458 0.21095 0.19568 0.0
O367 O 0.51304 0.16979 0.18554 0.0
O368 O 0.57637 0.20178 0.16284 0.0
O369 O 0.53495 0.15475 0.14798 0.0
O370 O 0.52849 0.2001 0.19226 0.0
O371 O 0.59059 0.13793 0.17143 0.0
O372 O 0.57974 0.17163 0.22245 0.0
O373 O 0.53926 0.13793 0.21126 0.0
Sc374 Sc 0.86309 0.49072 0.12176 0.0
Sc375 Sc 0.88721 0.53834 0.12083 0.0
Sc376 Sc 0.83719 0.53393 0.14072 0.0
O377 O 0.8626 0.52112 0.1282 0.0
C378 C 0.81946 0.50281 0.1068 0.0
C379 C 0.88438 0.50881 0.08263 0.0
C380 C 0.84971 0.56737 0.10762 0.0
C381 C 0.90639 0.49708 0.141 0.0
C382 C 0.83733 0.49206 0.16372 0.0
C383 C 0.87402 0.55871 0.16279 0.0
O384 O 0.83659 0.49424 0.10321 0.0
O385 O 0.88673 0.52669 0.09003 0.0
O386 O 0.83614 0.55734 0.11751 0.0
O387 O 0.89003 0.48646 0.13989 0.0
O388 O 0.83641 0.51155 0.16503 0.0
O389 O 0.88793 0.55252 0.1505 0.0
O390 O 0.84458 0.48276 0.14811 0.0
O391 O 0.90819 0.51495 0.13289 0.0
O392 O 0.85507 0.55403 0.16068 0.0
O393 O 0.88107 0.49334 0.09404 0.0
O394 O 0.81643 0.51523 0.12176 0.0
O395 O 0.86882 0.56318 0.10841 0.0
Sc396 Sc 0.53243 0.8573 0.14924 0.0
Sc397 Sc 0.566 0.87414 0.11028 0.0
Sc398 Sc 0.518 0.89827 0.11678 0.0
O399 O 0.5388 0.87662 0.12549 0.0
C400 C 0.49025 0.85844 0.12466 0.0
C401 C 0.55563 0.82744 0.11762 0.0
C402 C 0.53523 0.88413 0.07325 0.0
C403 C 0.57916 0.8665 0.15741 0.0
C404 C 0.51044 0.89853 0.16494 0.0
C405 C 0.56078 0.92257 0.11543 0.0
O406 O 0.50335 0.84943 0.1361 0.0
O407 O 0.5624 0.84167 0.10609 0.0
O408 O 0.5216 0.89172 0.0849 0.0
O409 O 0.56101 0.86376 0.16411 0.0
O410 O 0.51092 0.90742 0.14757 0.0
O411 O 0.57187 0.90654 0.11355 0.0
O412 O 0.51755 0.88052 0.16778 0.0
O413 O 0.58321 0.86942 0.13845 0.0
O414 O 0.54119 0.92208 0.11609 0.0
O415 O 0.54598 0.83081 0.13429 0.0
O416 O 0.49308 0.87617 0.11675 0.0
O417 O 0.55246 0.87777 0.07999 0.0
Sc418 Sc 0.12803 0.50605 0.17724 0.0
Sc419 Sc 0.1412 0.45456 0.17244 0.0
Sc420 Sc 0.17474 0.48887 0.19549 0.0
O421 O 0.14801 0.4834 0.18096 0.0
C422 C 0.17238 0.52487 0.16494 0.0
C423 C 0.12124 0.48113 0.1363 0.0
C424 C 0.18665 0.45383 0.16304 0.0
C425 C 0.09951 0.46861 0.19206 0.0
C426 C 0.14639 0.52215 0.21727 0.0
C427 C 0.15633 0.45123 0.21659 0.0
O428 O 0.15299 0.52642 0.16814 0.0
O429 O 0.12499 0.46387 0.14486 0.0
O430 O 0.19015 0.46326 0.17994 0.0
O431 O 0.10235 0.4872 0.18641 0.0
O432 O 0.16416 0.51588 0.21218 0.0
O433 O 0.15797 0.44325 0.19884 0.0
O434 O 0.13033 0.51517 0.20883 0.0
O435 O 0.11291 0.4545 0.18967 0.0
O436 O 0.16323 0.4693 0.21979 0.0
O437 O 0.12365 0.49828 0.14546 0.0
O438 O 0.18326 0.50964 0.1712 0.0
O439 O 0.16889 0.45347 0.15495 0.0
Sc440 Sc 0.82413 0.82633 0.47422 0.0
Sc441 Sc 0.85042 0.82859 0.52136 0.0
Sc442 Sc 0.80535 0.79885 0.51718 0.0
O443 O 0.82657 0.81792 0.50431 0.0
C444 C 0.7774 0.82664 0.48787 0.0
C445 C 0.83891 0.86812 0.49436 0.0
C446 C 0.81187 0.83401 0.55107 0.0
C447 C 0.87217 0.81701 0.47922 0.0
C448 C 0.81462 0.77829 0.47356 0.0
C449 C 0.8456 0.78366 0.54042 0.0
O450 O 0.792 0.8324 0.47636 0.0
O451 O 0.84857 0.85923 0.50883 0.0
O452 O 0.80111 0.81978 0.54282 0.0
O453 O 0.85636 0.8207 0.46828 0.0
O454 O 0.8095 0.77671 0.49244 0.0
O455 O 0.85567 0.79998 0.5369 0.0
O456 O 0.81883 0.79534 0.46499 0.0
O457 O 0.87228 0.81883 0.4987 0.0
O458 O 0.82741 0.78091 0.534 0.0
O459 O 0.82871 0.85837 0.48088 0.0
O460 O 0.7797 0.81438 0.50288 0.0
O461 O 0.82989 0.83869 0.54504 0.0
Sc462 Sc 0.83723 0.12908 0.50188 0.0
Sc463 Sc 0.83978 0.12319 0.55554 0.0
Sc464 Sc 0.81115 0.16403 0.53348 0.0
O465 O 0.82932 0.13872 0.53039 0.0
C466 C 0.84118 0.17699 0.49669 0.0
C467 C 0.87891 0.12055 0.52661 0.0
C468 C 0.84356 0.17035 0.56935 0.0
C469 C 0.82838 0.08676 0.52403 0.0
C470 C 0.79083 0.14376 0.49473 0.0
C471 C 0.79427 0.13467 0.5692 0.0
O472 O 0.84775 0.15892 0.49318 0.0
O473 O 0.87128 0.12214 0.54458 0.0
O474 O 0.83184 0.17737 0.55537 0.0
O475 O 0.82763 0.09825 0.50822 0.0
O476 O 0.7886 0.15323 0.51167 0.0
O477 O 0.80972 0.12262 0.56936 0.0
O478 O 0.80757 0.13545 0.48912 0.0
O479 O 0.83333 0.09339 0.54184 0.0
O480 O 0.79311 0.15038 0.55758 0.0
O481 O 0.86806 0.12178 0.51046 0.0
O482 O 0.82716 0.18088 0.50977 0.0
O483 O 0.84714 0.15123 0.57192 0.0
Sc484 Sc 0.14127 0.85272 0.48855 0.0
Sc485 Sc 0.09266 0.87548 0.48013 0.0
Sc486 Sc 0.11717 0.84803 0.44022 0.0
O487 O 0.11696 0.85866 0.46972 0.0
C488 C 0.16321 0.86346 0.44631 0.0
C489 C 0.12981 0.89883 0.50164 0.0
C490 C 0.10003 0.89353 0.4349 0.0
C491 C 0.10294 0.84659 0.51856 0.0
C492 C 0.13637 0.8102 0.46438 0.0
C493 C 0.07033 0.84159 0.45231 0.0
O494 O 0.16289 0.86328 0.46586 0.0
O495 O 0.11146 0.89849 0.49498 0.0
O496 O 0.10903 0.87756 0.42808 0.0
O497 O 0.12139 0.84274 0.51314 0.0
O498 O 0.12576 0.81777 0.44984 0.0
O499 O 0.07067 0.85435 0.46715 0.0
O500 O 0.14391 0.82081 0.47898 0.0
O501 O 0.09092 0.85811 0.50822 0.0
O502 O 0.08574 0.83808 0.44089 0.0
O503 O 0.14194 0.88355 0.50039 0.0
O504 O 0.14846 0.85693 0.43534 0.0
O505 O 0.09272 0.89475 0.45304 0.0
Sc506 Sc 0.13767 0.11929 0.48117 0.0
Sc507 Sc 0.11753 0.13813 0.43472 0.0
Sc508 Sc 0.14842 0.16978 0.46564 0.0
O509 O 0.13456 0.14233 0.46041 0.0
C510 C 0.12969 0.1593 0.50878 0.0
C511 C 0.09 0.11734 0.46972 0.0
C512 C 0.10787 0.18508 0.44243 0.0
C513 C 0.13842 0.09401 0.43907 0.0
C514 C 0.18137 0.13843 0.48501 0.0
C515 C 0.15888 0.16027 0.4191 0.0
O516 O 0.13335 0.14013 0.50674 0.0
O517 O 0.09208 0.12531 0.45191 0.0
O518 O 0.12465 0.18839 0.45179 0.0
O519 O 0.14203 0.09566 0.45822 0.0
O520 O 0.17472 0.1564 0.48101 0.0
O521 O 0.142 0.15069 0.41603 0.0
O522 O 0.17043 0.12243 0.48271 0.0
O523 O 0.12998 0.10824 0.42871 0.0
O524 O 0.16418 0.16747 0.4366 0.0
O525 O 0.10505 0.11424 0.48184 0.0
O526 O 0.13266 0.17242 0.49451 0.0
O527 O 0.10242 0.16725 0.43682 0.0
C528 C 0.97625 0.39151 0.43238 0.0
C529 C 0.95571 0.3917 0.42551 0.0
C530 C 0.98101 0.38595 0.45254 0.0
C531 C 0.96083 0.38034 0.50477 0.0
H532 H 0.00388 0.33921 0.51001 0.0
C533 C 0.98184 0.34538 0.5835 0.0
C534 C 0.00291 0.34305 0.58779 0.0
C535 C 0.97513 0.34981 0.56356 0.0
C536 C 0.99199 0.35085 0.50887 0.0
H537 H 0.924 0.38736 0.43498 0.0
H538 H 0.93242 0.37792 0.47046 0.0
H539 H 0.99398 0.35153 0.47601 0.0
H540 H 0.03342 0.34286 0.5743 0.0
H541 H 0.02181 0.35096 0.53963 0.0
H542 H 0.95916 0.38009 0.53763 0.0
C543 C 0.94476 0.38195 0.46003 0.0
C544 C 0.9863 0.35788 0.48939 0.0
C545 C 0.93997 0.38738 0.43972 0.0
C546 C 0.01707 0.34444 0.57152 0.0
C547 C 0.01038 0.34905 0.5516 0.0
C548 C 0.96665 0.37344 0.52431 0.0
C549 C 0.96538 0.38061 0.46641 0.0
C550 C 0.9708 0.37282 0.48715 0.0
C551 C 0.98935 0.35217 0.54744 0.0
C552 C 0.98242 0.35871 0.52661 0.0
H553 H 0.98881 0.39489 0.42198 0.0
H554 H -0.003 0.38545 0.45719 0.0
H555 H 0.94892 0.39195 0.50347 0.0
H556 H 0.97049 0.3442 0.59564 0.0
H557 H 0.9588 0.35163 0.56084 0.0
C558 C 0.6221 0.04014 0.39288 0.0
C559 C 0.61404 0.02125 0.38597 0.0
C560 C 0.61961 0.04618 0.41336 0.0
C561 C 0.5928 0.03519 0.46214 0.0
H562 H 0.64716 0.03827 0.48666 0.0
C563 C 0.63017 0.00528 0.54007 0.0
C564 C 0.61693 0.01374 0.55492 0.0
C565 C 0.63034 0.01305 0.52004 0.0
C566 C 0.63189 0.03779 0.48001 0.0
H567 H 0.5952 0.99504 0.39441 0.0
H568 H 0.59058 0.00577 0.43006 0.0
H569 H 0.64341 0.04035 0.4493 0.0
H570 H 0.59431 0.03774 0.56069 0.0
H571 H 0.59436 0.05092 0.52553 0.0
H572 H 0.5814 0.0316 0.49284 0.0
C573 C 0.59897 0.01579 0.41971 0.0
C574 C 0.6297 0.03912 0.45869 0.0
C575 C 0.60171 0.00959 0.39933 0.0
C576 C 0.6047 0.03085 0.54961 0.0
C577 C 0.60464 0.03838 0.5295 0.0
C578 C 0.59496 0.03416 0.4835 0.0
C579 C 0.60871 0.03362 0.42712 0.0
C580 C 0.61022 0.03705 0.44954 0.0
C581 C 0.61709 0.02922 0.51444 0.0
C582 C 0.6146 0.03466 0.49252 0.0
H583 H 0.63169 0.04951 0.38298 0.0
H584 H 0.62715 0.06005 0.41872 0.0
H585 H 0.57764 0.03356 0.45542 0.0
H586 H 0.63986 0.99219 0.54371 0.0
H587 H 0.63998 0.00561 0.50863 0.0
C588 C 0.04421 0.62998 0.55475 0.0
C589 C 0.02678 0.62977 0.56752 0.0
C590 C 0.04207 0.62881 0.53339 0.0
C591 C 0.00502 0.61291 0.49319 0.0
H592 H 0.03951 0.64598 0.45752 0.0
C593 C 0.98716 0.63052 0.408 0.0
C594 C 0.00379 0.63163 0.39421 0.0
C595 C 0.99059 0.62685 0.42889 0.0
C596 C 0.03 0.63639 0.46728 0.0
H597 H 0.99339 0.62898 0.56785 0.0
H598 H 0.98968 0.6275 0.53065 0.0
H599 H 0.04426 0.64776 0.49464 0.0
H600 H 0.03692 0.62821 0.39133 0.0
H601 H 0.04279 0.62177 0.42777 0.0
H602 H 0.99037 0.60204 0.46572 0.0
C603 C 0.00502 0.62796 0.53714 0.0
C604 C 0.0327 0.63743 0.48854 0.0
C605 C 0.00715 0.62899 0.55846 0.0
C606 C 0.02375 0.6276 0.40153 0.0
C607 C 0.02717 0.62404 0.42241 0.0
C608 C 0.00224 0.61197 0.47191 0.0
C609 C 0.02245 0.62757 0.52438 0.0
C610 C 0.02011 0.62586 0.50175 0.0
C611 C 0.0107 0.62428 0.43636 0.0
C612 C 0.0146 0.62383 0.45878 0.0
H613 H 0.05955 0.63044 0.56124 0.0
H614 H 0.05581 0.62838 0.52399 0.0
H615 H -0.00466 0.60349 0.50294 0.0
H616 H 0.97158 0.63344 0.40287 0.0
H617 H 0.97761 0.62718 0.43933 0.0
C618 C 0.36371 0.00141 0.40181 0.0
C619 C 0.35798 0.01836 0.38963 0.0
C620 C 0.36264 0.00258 0.42321 0.0
C621 C 0.33413 0.02694 0.46408 0.0
H622 H 0.3788 0.00847 0.49917 0.0
C623 C 0.35483 0.02158 0.5558 0.0
C624 C 0.33805 0.00996 0.56296 0.0
C625 C 0.35772 0.02465 0.53473 0.0
C626 C 0.36628 0.01383 0.48954 0.0
H627 H 0.3468 0.04987 0.39027 0.0
H628 H 0.34451 0.0517 0.42783 0.0
H629 H 0.38386 0.01026 0.46188 0.0
H630 H 0.31086 0.99295 0.55373 0.0
H631 H 0.31581 -0.00138 0.51689 0.0
H632 H 0.31633 0.02986 0.4917 0.0
C633 C 0.34999 0.03764 0.42071 0.0
C634 C 0.36914 0.01474 0.46828 0.0
C635 C 0.3514 0.0366 0.39928 0.0
C636 C 0.324 0.00185 0.54866 0.0
C637 C 0.32673 0.00521 0.52763 0.0
C638 C 0.33116 0.02571 0.48532 0.0
C639 C 0.35551 0.0206 0.43282 0.0
C640 C 0.35303 0.02114 0.45538 0.0
C641 C 0.34371 0.01646 0.5205 0.0
C642 C 0.34717 0.01898 0.49819 0.0
H643 H 0.36891 0.98718 0.39481 0.0
H644 H 0.36682 0.98919 0.43225 0.0
H645 H 0.32145 0.03178 0.45439 0.0
H646 H 0.36593 0.028 0.56644 0.0
H647 H 0.37089 0.03345 0.52956 0.0
C648 C 0.42611 0.98444 0.31065 0.0
C649 C 0.41859 0.00467 0.31286 0.0
C650 C 0.44627 0.98089 0.3044 0.0
C651 C 0.49171 0.00491 0.28023 0.0
H652 H 0.52154 0.96557 0.3138 0.0
C653 C 0.57873 0.00668 0.29324 0.0
C654 C 0.58884 0.98853 0.29941 0.0
C655 C 0.5579 0.00629 0.28815 0.0
C656 C 0.51342 0.97619 0.30383 0.0
H657 H 0.42635 0.03703 0.30965 0.0
H658 H 0.4619 0.03074 0.29916 0.0
H659 H 0.48496 0.96999 0.31888 0.0
H660 H 0.58581 0.95536 0.3022 0.0
H661 H 0.54957 0.95464 0.29276 0.0
H662 H 0.52049 0.01151 0.26561 0.0
C663 C 0.45197 0.01768 0.30206 0.0
C664 C 0.4924 0.97881 0.30685 0.0
C665 C 0.4317 0.02127 0.30831 0.0
C666 C 0.57835 0.96968 0.29797 0.0
C667 C 0.55755 0.96927 0.29265 0.0
C668 C 0.51283 0.00221 0.27712 0.0
C669 C 0.45949 -0.00257 0.30025 0.0
C670 C 0.4814 0.9935 0.29543 0.0
C671 C 0.54683 0.98773 0.2889 0.0
C672 C 0.524 0.98815 0.28924 0.0
H673 H 0.41642 0.97124 0.31371 0.0
H674 H 0.45154 0.96512 0.30286 0.0
H675 H 0.48352 0.01612 0.27099 0.0
H676 H 0.5864 0.02146 0.29395 0.0
H677 H 0.55017 0.02082 0.28534 0.0
C678 C 0.94423 0.60944 0.30813 0.0
C679 C 0.96585 0.61056 0.30836 0.0
C680 C 0.93439 0.59074 0.30418 0.0
C681 C 0.9437 0.53573 0.29033 0.0
H682 H 0.91277 0.52506 0.34026 0.0
C683 C 0.95368 0.4629 0.33644 0.0
C684 C 0.93676 0.45304 0.3456 0.0
C685 C 0.95121 0.48156 0.32623 0.0
C686 C 0.92085 0.52777 0.32593 0.0
H687 H 0.99394 0.59367 0.30185 0.0
H688 H 0.97689 0.56118 0.29528 0.0
H689 H 0.91867 0.56038 0.3294 0.0
H690 H 0.90395 0.45532 0.35138 0.0
H691 H 0.89981 0.48854 0.33393 0.0
H692 H 0.94723 0.50304 0.28787 0.0
C693 C 0.96745 0.57463 0.29819 0.0
C694 C 0.92419 0.54803 0.31963 0.0
C695 C 0.97728 0.59326 0.3022 0.0
C696 C 0.91732 0.46256 0.34461 0.0
C697 C 0.9149 0.48146 0.33451 0.0
C698 C 0.9404 0.51547 0.29666 0.0
C699 C 0.94599 0.57292 0.30026 0.0
C700 C 0.93673 0.55221 0.30248 0.0
C701 C 0.93181 0.49096 0.32501 0.0
C702 C 0.93002 0.51142 0.31519 0.0
H703 H 0.9349 0.62262 0.31236 0.0
H704 H 0.9178 0.58993 0.30554 0.0
H705 H 0.95307 0.53851 0.27683 0.0
H706 H 0.96888 0.45604 0.33676 0.0
H707 H 0.96464 0.48881 0.31953 0.0
C708 C 0.38659 0.94886 0.6172 0.0
C709 C 0.38449 0.96598 0.63032 0.0
C710 C 0.40594 0.94027 0.61353 0.0
C711 C 0.44913 0.94535 0.59518 0.0
H712 H 0.49236 0.93621 0.63529 0.0
C713 C 0.53123 0.97508 0.59018 0.0
C714 C 0.54748 0.96208 0.59591 0.0
C715 C 0.51102 0.96801 0.59099 0.0
C716 C 0.48038 0.93821 0.62386 0.0
H717 H 0.40058 0.98624 0.6514 0.0
H718 H 0.43433 0.97093 0.64529 0.0
H719 H 0.45639 0.9366 0.64645 0.0
H720 H 0.55566 0.93133 0.60613 0.0
H721 H 0.52002 0.91922 0.60834 0.0
H722 H 0.47323 0.94892 0.57296 0.0
C723 C 0.42104 0.9643 0.63772 0.0
C724 C 0.45989 0.93853 0.63026 0.0
C725 C 0.40178 0.97315 0.6411 0.0
C726 C 0.54334 0.94156 0.60143 0.0
C727 C 0.52304 0.93465 0.60276 0.0
C728 C 0.46963 0.94542 0.58887 0.0
C729 C 0.42339 0.94837 0.62327 0.0
C730 C 0.44419 0.94286 0.61608 0.0
C731 C 0.50675 0.94801 0.59803 0.0
C732 C 0.48541 0.9426 0.60331 0.0
H733 H 0.37354 0.943 0.60865 0.0
H734 H 0.40743 0.928 0.60232 0.0
H735 H 0.43728 0.94892 0.584 0.0
H736 H 0.53409 0.99095 0.58592 0.0
H737 H 0.49864 0.97865 0.5875 0.0
C738 C 0.06735 0.40418 0.63724 0.0
C739 C 0.04833 0.40045 0.64688 0.0
C740 C 0.07534 0.4241 0.63629 0.0
C741 C 0.07664 0.46917 0.62262 0.0
H742 H 0.0723 0.50751 0.66823 0.0
C743 C 0.0528 0.5527 0.61533 0.0
C744 C 0.06169 0.56771 0.62802 0.0
C745 C 0.05909 0.53225 0.6167 0.0
C746 C 0.07413 0.49692 0.65546 0.0
H747 H 0.02319 0.41455 0.66375 0.0
H748 H 0.03718 0.44933 0.66206 0.0
H749 H 0.0678 0.47065 0.67436 0.0
H750 H 0.08481 0.57358 0.65132 0.0
H751 H 0.09541 0.53736 0.65425 0.0
H752 H 0.08157 0.49559 0.6035 0.0
C753 C 0.0459 0.4368 0.65533 0.0
C754 C 0.07134 0.4759 0.65893 0.0
C755 C 0.03779 0.41694 0.65608 0.0
C756 C 0.07779 0.5622 0.64135 0.0
C757 C 0.08381 0.54158 0.64304 0.0
C758 C 0.07922 0.49021 0.61911 0.0
C759 C 0.06461 0.44059 0.64519 0.0
C760 C 0.07176 0.46198 0.6424 0.0
C761 C 0.07414 0.5264 0.63105 0.0
C762 C 0.07715 0.5043 0.63537 0.0
H763 H 0.0759 0.39179 0.63003 0.0
H764 H 0.08978 0.42666 0.62839 0.0
H765 H 0.07699 0.45874 0.6096 0.0
H766 H 0.04045 0.55665 0.60484 0.0
H767 H 0.05121 0.52082 0.60746 0.0
C768 C 0.34586 0.42876 0.04627 0.0
C769 C 0.35702 0.41493 0.0586 0.0
C770 C 0.33899 0.44743 0.05435 0.0
C771 C 0.31967 0.48307 0.07745 0.0
H772 H 0.36465 0.51593 0.09874 0.0
C773 C 0.34638 0.57332 0.09105 0.0
C774 C 0.34069 0.58024 0.07136 0.0
C775 C 0.34288 0.55283 0.09677 0.0
C776 C 0.35166 0.50692 0.09348 0.0
H777 H 0.36913 0.40956 0.0893 0.0
H778 H 0.35746 0.44251 0.10325 0.0
H779 H 0.36892 0.47891 0.09506 0.0
H780 H 0.32521 0.57179 0.04299 0.0
H781 H 0.31939 0.53633 0.05275 0.0
H782 H 0.30281 0.51127 0.07481 0.0
C783 C 0.35397 0.43875 0.08738 0.0
C784 C 0.35415 0.48568 0.0913 0.0
C785 C 0.36066 0.41994 0.07936 0.0
C786 C 0.33009 0.56682 0.05815 0.0
C787 C 0.32647 0.54652 0.06389 0.0
C788 C 0.31712 0.50429 0.07977 0.0
C789 C 0.34327 0.45275 0.07488 0.0
C790 C 0.33858 0.47378 0.08222 0.0
C791 C 0.33342 0.53908 0.08297 0.0
C792 C 0.33353 0.51657 0.08667 0.0
H793 H 0.34263 0.42529 0.03028 0.0
H794 H 0.33106 0.4581 0.04427 0.0
H795 H 0.30729 0.47412 0.07077 0.0
H796 H 0.35444 0.58339 0.1016 0.0
H797 H 0.34827 0.54754 0.11163 0.0
C798 C 0.45432 0.36703 0.04584 0.0
C799 C 0.44063 0.3717 0.02972 0.0
C800 C 0.47552 0.36683 0.04237 0.0
C801 C 0.51082 0.3557 0.00105 0.0
H802 H 0.55303 0.37981 0.03561 0.0
C803 C 0.59559 0.35259 0.9778 0.0
C804 C 0.61031 0.34934 0.99327 0.0
C805 C 0.57517 0.35658 0.98291 0.0
C806 C 0.54142 0.37276 0.02598 0.0
H807 H 0.4386 0.38108 -0.00234 0.0
H808 H 0.47551 0.38052 0.99169 0.0
H809 H 0.51673 0.38559 0.0438 0.0
H810 H 0.61521 0.34764 0.02626 0.0
H811 H 0.57931 0.35392 0.03521 0.0
H812 H 0.53515 0.34228 0.98359 0.0
C813 C 0.46977 0.3769 0.00693 0.0
C814 C 0.5207 0.37617 0.03061 0.0
C815 C 0.44865 0.37728 0.01041 0.0
C816 C 0.60419 0.35016 0.014 0.0
C817 C 0.58366 0.35389 0.01912 0.0
C818 C 0.53144 0.35207 -0.00343 0.0
C819 C 0.48333 0.37111 0.0227 0.0
C820 C 0.50528 0.36781 0.01805 0.0
C821 C 0.56891 0.35711 0.00362 0.0
C822 C 0.547 0.36069 0.00885 0.0
H823 H 0.44866 0.36276 0.06093 0.0
H824 H 0.48572 0.36229 0.05475 0.0
H825 H 0.49917 0.34871 0.99139 0.0
H826 H 0.59987 0.35235 0.96169 0.0
H827 H 0.56433 0.35944 0.97059 0.0
C828 C 0.66096 0.40397 0.93289 0.0
C829 C 0.67703 0.3941 0.94339 0.0
C830 C 0.66199 0.42521 0.92915 0.0
C831 C 0.6825 0.46857 0.95672 0.0
H832 H 0.66257 0.50205 0.91154 0.0
C833 C 0.6751 0.55583 0.96638 0.0
C834 C 0.65756 0.56519 0.95796 0.0
C835 C 0.68035 0.53569 0.961 0.0
C836 C 0.66803 0.49289 0.92435 0.0
H837 H 0.70746 0.3977 0.95638 0.0
H838 H 0.70949 0.43457 0.94946 0.0
H839 H 0.66697 0.46485 0.90676 0.0
H840 H 0.63194 0.56102 0.937 0.0
H841 H 0.64049 0.52552 0.92837 0.0
H842 H 0.68251 0.49592 0.97479 0.0
C843 C 0.69602 0.42617 0.94438 0.0
C844 C 0.67066 0.47165 0.92153 0.0
C845 C 0.69492 0.40511 0.94821 0.0
C846 C 0.64558 0.55417 0.94373 0.0
C847 C 0.65061 0.53387 0.93864 0.0
C848 C 0.67962 0.48961 0.95963 0.0
C849 C 0.67909 0.43662 0.93593 0.0
C850 C 0.67786 0.45932 0.93775 0.0
C851 C 0.66792 0.52427 0.94741 0.0
C852 C 0.67222 0.50207 0.94356 0.0
H853 H 0.64693 0.39573 0.92931 0.0
H854 H 0.64871 0.43293 0.92268 0.0
H855 H 0.68759 0.45937 0.96968 0.0
H856 H 0.68484 0.5641 0.9771 0.0
H857 H 0.6941 0.52902 0.96766 0.0
C858 C 0.5687 0.60965 0.99345 0.0
C859 C 0.58636 0.61487 0.00471 0.0
C860 C 0.54931 0.61114 0.00242 0.0
C861 C 0.52057 0.61624 0.05109 0.0
H862 H 0.48022 0.64113 0.01476 0.0
C863 C 0.43341 0.64177 0.06636 0.0
C864 C 0.42046 0.63012 0.05348 0.0
C865 C 0.45486 0.6402 0.06443 0.0
C866 C 0.49142 0.63437 0.02512 0.0
H867 H 0.59765 0.62467 0.03459 0.0
H868 H 0.56354 0.62749 0.05024 0.0
H869 H 0.51561 0.63728 0.00317 0.0
H870 H 0.4199 0.60656 0.02967 0.0
H871 H 0.45696 0.60419 0.02626 0.0
H872 H 0.49584 0.61319 0.07291 0.0
C873 C 0.56479 0.62212 0.0345 0.0
C874 C 0.51159 0.63194 0.01844 0.0
C875 C 0.5843 0.62048 0.02554 0.0
C876 C 0.42935 0.61605 0.0396 0.0
C877 C 0.45056 0.61456 0.03768 0.0
C878 C 0.50024 0.61879 0.05784 0.0
C879 C 0.54708 0.6181 0.02279 0.0
C880 C 0.52625 0.62227 0.03107 0.0
C881 C 0.46345 0.62697 0.04965 0.0
C882 C 0.48549 0.62741 0.04463 0.0
H883 H 0.5698 0.605 0.97747 0.0
H884 H 0.53597 0.60737 0.99318 0.0
H885 H 0.53158 0.60879 0.06116 0.0
H886 H 0.42702 0.65268 0.07724 0.0
H887 H 0.46466 0.64995 0.07374 0.0
C888 C 0.49378 0.84369 0.89345 0.0
C889 C 0.47279 0.846 0.88873 0.0
C890 C 0.5009 0.84682 0.91345 0.0
C891 C 0.48896 0.87611 0.95947 0.0
H892 H 0.52731 0.83941 0.98686 0.0
C893 C 0.50983 0.8861 0.0445 0.0
C894 C 0.52986 0.88136 0.05124 0.0
C895 C 0.50379 0.88202 0.02437 0.0
C896 C 0.51689 0.85 0.97929 0.0
H897 H 0.4427 0.85278 0.9014 0.0
H898 H 0.45524 0.85856 0.93648 0.0
H899 H 0.51425 0.83057 0.95272 0.0
H900 H 0.55941 0.86905 0.04177 0.0
H901 H 0.54895 0.86243 0.00621 0.0
H902 H 0.49185 0.89581 0.98562 0.0
C903 C 0.46613 0.85431 0.92459 0.0
C904 C 0.5093 0.84484 0.95982 0.0
C905 C 0.45894 0.85088 0.90459 0.0
C906 C 0.54387 0.87289 0.0371 0.0
C907 C 0.53783 0.86893 0.01678 0.0
C908 C 0.49671 0.88139 0.97878 0.0
C909 C 0.48721 0.85258 0.92912 0.0
C910 C 0.49511 0.85776 0.94984 0.0
C911 C 0.51763 0.87329 0.01025 0.0
C912 C 0.51059 0.86829 0.98905 0.0
H913 H 0.50482 0.83977 0.88158 0.0
H914 H 0.51722 0.84547 0.91651 0.0
H915 H 0.47837 0.88656 0.95191 0.0
H916 H 0.49851 0.89249 0.05493 0.0
H917 H 0.48801 0.88522 0.02007 0.0
C918 C 0.11439 0.46317 0.10279 0.0
C919 C 0.11446 0.48137 0.11455 0.0
C920 C 0.10949 0.46375 0.08187 0.0
C921 C 0.11048 0.4995 0.0383 0.0
H922 H 0.08054 0.45623 0.01011 0.0
C923 C 0.09876 0.50215 0.95099 0.0
C924 C 0.10336 0.4838 0.94042 0.0
C925 C 0.09631 0.50211 0.97232 0.0
C926 C 0.08898 0.46838 0.01778 0.0
H927 H 0.10837 0.51428 0.11372 0.0
H928 H 0.09965 0.51518 0.07733 0.0
H929 H 0.08314 0.45567 0.04765 0.0
H930 H 0.10805 0.45085 0.94395 0.0
H931 H 0.10409 0.4509 0.9812 0.0
H932 H 0.11679 0.51196 0.00857 0.0
C933 C 0.10377 0.50055 0.08421 0.0
C934 C 0.09047 0.46806 0.03924 0.0
C935 C 0.10873 0.5 0.10509 0.0
C936 C 0.10455 0.46527 0.95159 0.0
C937 C 0.10216 0.46526 0.97294 0.0
C938 C 0.10899 0.49982 0.0169 0.0
C939 C 0.1045 0.48251 0.07228 0.0
C940 C 0.10145 0.4835 0.04969 0.0
C941 C 0.09846 0.48376 0.98357 0.0
C942 C 0.09844 0.48415 0.00638 0.0
H943 H 0.11871 0.44856 0.10958 0.0
H944 H 0.11038 0.44961 0.07304 0.0
H945 H 0.11937 0.51141 0.04584 0.0
H946 H 0.0975 0.51666 0.94287 0.0
H947 H 0.09311 0.51655 0.98005 0.0
C948 C 0.512 0.12918 0.95395 0.0
C949 C 0.49128 0.12991 0.94781 0.0
C950 C 0.51765 0.13435 0.97391 0.0
C951 C 0.50034 0.16094 0.021 0.0
H952 H 0.54245 0.12678 0.0461 0.0
C953 C 0.52095 0.16094 0.10775 0.0
C954 C 0.54196 0.15991 0.11284 0.0
C955 C 0.51462 0.1596 0.08729 0.0
C956 C 0.53087 0.13661 0.03919 0.0
H957 H 0.46027 0.13715 0.95769 0.0
H958 H 0.47014 0.14568 0.9931 0.0
H959 H 0.53086 0.1192 0.01137 0.0
H960 H 0.57284 0.15758 0.10042 0.0
H961 H 0.56171 0.15504 0.06461 0.0
H962 H 0.50012 0.17799 0.04929 0.0
C963 C 0.482 0.14134 0.98223 0.0
C964 C 0.52421 0.13228 0.01931 0.0
C965 C 0.47633 0.13634 0.96204 0.0
C966 C 0.55656 0.15833 0.09699 0.0
C967 C 0.55019 0.15678 0.07653 0.0
C968 C 0.50691 0.16516 0.04106 0.0
C969 C 0.50273 0.14016 0.9884 0.0
C970 C 0.50901 0.1445 0.00989 0.0
C971 C 0.52916 0.15703 0.07156 0.0
C972 C 0.52236 0.1531 0.05023 0.0
H973 H 0.52401 0.12476 0.94325 0.0
H974 H 0.5338 0.13384 0.97796 0.0
H975 H 0.48875 0.17074 0.01409 0.0
H976 H 0.50933 0.16242 0.11962 0.0
H977 H 0.49831 0.15975 0.08387 0.0
C978 C 0.80662 0.51755 0.9121 0.0
C979 C 0.80433 0.49774 0.90361 0.0
C980 C 0.81182 0.51992 0.93283 0.0
C981 C 0.8193 0.49276 0.98261 0.0
H982 H 0.86884 0.52593 0.98532 0.0
C983 C 0.87367 0.4879 0.05208 0.0
C984 C 0.88038 0.5068 0.06027 0.0
C985 C 0.86424 0.48712 0.03277 0.0
C986 C 0.85491 0.5168 0.98494 0.0
H987 H 0.80263 0.46515 0.91093 0.0
H988 H 0.81161 0.46934 0.947 0.0
H989 H 0.84862 0.52541 0.95384 0.0
H990 H 0.88399 0.53942 0.0537 0.0
H991 H 0.86764 0.53801 0.02016 0.0
H992 H 0.82571 0.48405 0.01373 0.0
C993 C 0.80972 0.48301 0.93762 0.0
C994 C 0.84323 0.5166 0.96693 0.0
C995 C 0.8046 0.48062 0.91689 0.0
C996 C 0.87905 0.52457 0.04793 0.0
C997 C 0.86959 0.52379 0.02865 0.0
C998 C 0.83094 0.49304 0.0007 0.0
C999 C 0.81461 0.50257 0.94546 0.0
C1000 C 0.8254 0.50445 0.96549 0.0
C1001 C 0.86139 0.5052 0.0212 0.0
C1002 C 0.84902 0.5049 0.00198 0.0
H1003 H 0.80628 0.53113 0.90242 0.0
H1004 H 0.81499 0.53524 0.93863 0.0
H1005 H 0.80559 0.48331 0.98198 0.0
H1006 H 0.8745 0.47388 0.06108 0.0
H1007 H 0.85858 0.47246 0.02721 0.0
C1008 C 0.89508 0.50515 0.86023 0.0
C1009 C 0.88371 0.48674 0.85966 0.0
C1010 C 0.91652 0.50462 0.86032 0.0
C1011 C 0.96125 0.47109 0.86979 0.0
H1012 H 0.9886 0.50784 0.83149 0.0
C1013 C 0.04799 0.46548 0.85588 0.0
C1014 C 0.05862 0.48428 0.85738 0.0
C1015 C 0.02663 0.46526 0.85386 0.0
C1016 C 0.98117 0.49756 0.84231 0.0
H1017 H 0.88602 0.45334 0.85992 0.0
H1018 H 0.92338 0.4525 0.86007 0.0
H1019 H 0.95122 0.50895 0.83476 0.0
H1020 H 0.05525 0.51757 0.85632 0.0
H1021 H 0.01805 0.51712 0.85297 0.0
H1022 H 0.99117 0.45982 0.87749 0.0
C1023 C 0.91569 0.46731 0.86045 0.0
C1024 C 0.95982 0.49826 0.84426 0.0
C1025 C 0.89426 0.46782 0.86032 0.0
C1026 C 0.04756 0.50281 0.85537 0.0
C1027 C 0.02622 0.50257 0.85334 0.0
C1028 C 0.9826 0.4704 0.86785 0.0
C1029 C 0.92702 0.4857 0.85994 0.0
C1030 C 0.94967 0.48511 0.8581 0.0
C1031 C 0.0155 0.48381 0.85324 0.0
C1032 C 0.99277 0.48368 0.85416 0.0
H1033 H 0.88746 0.52 0.8598 0.0
H1034 H 0.9249 0.51903 0.86032 0.0
H1035 H 0.95385 0.46091 0.88071 0.0
H1036 H 0.05603 0.45091 0.85717 0.0
H1037 H 0.01877 0.45057 0.85339 0.0
C1038 C 0.42914 0.0624 0.87326 0.0
C1039 C 0.44563 0.06297 0.88726 0.0
C1040 C 0.42182 0.04354 0.866 0.0
C1041 C 0.4305 0.00384 0.84124 0.0
H1042 H 0.41777 0.95508 0.87324 0.0
C1043 C 0.45304 0.92036 0.82079 0.0
C1044 C 0.43857 0.9048 0.82483 0.0
C1045 C 0.44847 0.94089 0.8254 0.0
C1046 C 0.42096 0.96863 0.86405 0.0
H1047 H 0.46603 0.04456 0.90615 0.0
H1048 H 0.45265 0.01154 0.89405 0.0
H1049 H 0.41808 0.98884 0.89001 0.0
H1050 H 0.40727 0.89893 0.83513 0.0
H1051 H 0.39966 0.93464 0.8435 0.0
H1052 H 0.43486 0.98344 0.81562 0.0
C1053 C 0.44564 0.02564 0.8885 0.0
C1054 C 0.42117 0.98785 0.87365 0.0
C1055 C 0.4533 0.04447 0.89539 0.0
C1056 C 0.41893 0.91044 0.83206 0.0
C1057 C 0.41449 0.93088 0.83687 0.0
C1058 C 0.43068 0.98456 0.83173 0.0
C1059 C 0.43053 0.02507 0.87308 0.0
C1060 C 0.42637 0.00551 0.86241 0.0
C1061 C 0.42946 0.94613 0.83424 0.0
C1062 C 0.42633 0.96678 0.84318 0.0
H1063 H 0.42311 0.07646 0.86659 0.0
H1064 H 0.41016 0.04337 0.85409 0.0
H1065 H 0.43483 0.01728 0.83236 0.0
H1066 H 0.46824 0.91658 0.81511 0.0
H1067 H 0.46029 0.95246 0.82332 0.0
C1068 C 0.92542 0.46699 0.15577 0.0
C1069 C 0.92378 0.48841 0.15278 0.0
C1070 C 0.94164 0.45875 0.16723 0.0
C1071 C 0.98077 0.47121 0.20591 0.0
H1072 H 0.01701 0.43573 0.17448 0.0
C1073 C 0.06623 0.47877 0.20786 0.0
C1074 C 0.07898 0.46318 0.20004 0.0
C1075 C 0.04531 0.47525 0.21064 0.0
C1076 C 0.00689 0.44499 0.18395 0.0
H1077 H 0.93747 0.51799 0.15996 0.0
H1078 H 0.96574 0.50357 0.18013 0.0
H1079 H 0.98264 0.44285 0.16179 0.0
H1080 H 0.08054 0.43085 0.1918 0.0
H1081 H 0.04381 0.4246 0.19676 0.0
H1082 H 0.00523 0.47396 0.22775 0.0
C1083 C 0.95444 0.49321 0.17358 0.0
C1084 C 0.98719 0.44919 0.17653 0.0
C1085 C 0.93845 0.50143 0.16182 0.0
C1086 C 0.07095 0.44328 0.19744 0.0
C1087 C 0.0499 0.43973 0.20021 0.0
C1088 C 0.00035 0.46672 0.21355 0.0
C1089 C 0.95625 0.4718 0.17626 0.0
C1090 C 0.97448 0.46328 0.18683 0.0
C1091 C 0.03666 0.45603 0.20564 0.0
C1092 C 0.01414 0.45469 0.20193 0.0
H1093 H 0.91432 0.45656 0.14902 0.0
H1094 H 0.94284 0.44219 0.16898 0.0
H1095 H 0.97101 0.48182 0.21431 0.0
H1096 H 0.07212 0.49416 0.21047 0.0
H1097 H 0.03575 0.48826 0.21482 0.0
C1098 C 0.56104 0.96104 0.11387 0.0
C1099 C 0.57115 0.94253 0.11865 0.0
C1100 C 0.57 0.97992 0.11886 0.0
C1101 C 0.60095 0.00313 0.15782 0.0
H1102 H 0.60019 0.05044 0.12138 0.0
C1103 C 0.60544 0.09805 0.15806 0.0
C1104 C 0.58837 0.10151 0.17085 0.0
C1105 C 0.61149 0.07791 0.1533 0.0
C1106 C 0.60102 0.03733 0.13166 0.0
H1107 H 0.59873 0.92922 0.13202 0.0
H1108 H 0.61409 0.96237 0.1413 0.0
H1109 H 0.59469 0.01599 0.10731 0.0
H1110 H 0.56581 0.08702 0.19062 0.0
H1111 H 0.57656 0.05196 0.18265 0.0
H1112 H 0.60565 0.02468 0.18241 0.0
C1113 C 0.59942 0.96217 0.1334 0.0
C1114 C 0.59769 0.01768 0.12363 0.0
C1115 C 0.59065 0.94327 0.12802 0.0
C1116 C 0.5788 0.0847 0.18044 0.0
C1117 C 0.58511 0.06466 0.17605 0.0
C1118 C 0.60396 0.02284 0.16592 0.0
C1119 C 0.58905 0.98062 0.12906 0.0
C1120 C 0.59688 0.00053 0.13674 0.0
C1121 C 0.60085 0.06106 0.1617 0.0
C1122 C 0.60327 0.04017 0.15298 0.0
H1123 H 0.54603 0.96093 0.10664 0.0
H1124 H 0.5616 0.99397 0.11557 0.0
H1125 H 0.6003 0.99012 0.16824 0.0
H1126 H 0.61314 0.1108 0.15057 0.0
H1127 H 0.62371 0.07548 0.14224 0.0
C1128 C 0.82025 0.90091 0.487 0.0
C1129 C 0.83776 0.89081 0.49467 0.0
C1130 C 0.8177 0.92208 0.4899 0.0
C1131 C 0.83684 0.96494 0.5227 0.0
H1132 H 0.80855 -0.00127 0.48248 0.0
C1133 C 0.82221 0.05114 0.53784 0.0
C1134 C 0.82514 0.06441 0.52102 0.0
C1135 C 0.82119 0.02982 0.53485 0.0
C1136 C 0.81664 0.98958 0.49383 0.0
H1137 H 0.86682 0.89502 0.51042 0.0
H1138 H 0.86297 0.9321 0.51453 0.0
H1139 H 0.8137 0.96234 0.47564 0.0
H1140 H 0.82883 0.0657 0.48782 0.0
H1141 H 0.82784 0.02884 0.48275 0.0
H1142 H 0.84092 0.9924 0.5403 0.0
C1143 C 0.85075 0.92363 0.50703 0.0
C1144 C 0.81935 0.96858 0.49002 0.0
C1145 C 0.8531 0.9024 0.50447 0.0
C1146 C 0.82641 0.05597 0.50114 0.0
C1147 C 0.82571 0.03472 0.49819 0.0
C1148 C 0.83445 0.986 0.52634 0.0
C1149 C 0.83279 0.93367 0.50023 0.0
C1150 C 0.82963 0.95601 0.50434 0.0
C1151 C 0.82338 0.02133 0.51502 0.0
C1152 C 0.82447 -0.00136 0.51187 0.0
H1153 H 0.80802 0.89232 0.47962 0.0
H1154 H 0.80355 0.92916 0.48469 0.0
H1155 H 0.8444 0.9557 0.53433 0.0
H1156 H 0.821 0.05719 0.55333 0.0
H1157 H 0.81894 0.02001 0.54813 0.0
C1158 C 0.0382 0.8249 0.46463 0.0
C1159 C 0.05115 0.83027 0.44824 0.0
C1160 C 0.01965 0.81487 0.46087 0.0
C1161 C 0.97848 0.81546 0.42626 0.0
H1162 H 0.95863 0.77029 0.45983 0.0
C1163 C 0.89339 0.81032 0.44747 0.0
C1164 C 0.89128 0.80996 0.46903 0.0
C1165 C 0.9121 0.80487 0.43827 0.0
C1166 C 0.96393 0.78274 0.45009 0.0
H1167 H 0.05519 0.82908 0.41513 0.0
H1168 H 0.02195 0.81236 0.40849 0.0
H1169 H -0.00441 0.77586 0.45618 0.0
H1170 H 0.90663 0.80202 0.49765 0.0
H1171 H 0.93898 0.79303 0.48183 0.0
H1172 H 0.94698 0.82384 0.42204 0.0
C1173 C 0.02654 0.81548 0.42421 0.0
C1174 C 0.98505 0.78583 0.44794 0.0
C1175 C 0.04543 0.82506 0.42802 0.0
C1176 C 0.90778 0.80284 0.48103 0.0
C1177 C 0.9263 0.79731 0.47189 0.0
C1178 C 0.95734 0.81256 0.42867 0.0
C1179 C 0.0135 0.81041 0.44064 0.0
C1180 C 0.9924 0.80296 0.43705 0.0
C1181 C 0.9289 0.79875 0.45046 0.0
C1182 C 0.94993 0.79703 0.44179 0.0
H1183 H 0.04235 0.82859 0.48036 0.0
H1184 H 0.00965 0.81141 0.47376 0.0
H1185 H 0.98385 0.82879 0.41779 0.0
H1186 H 0.88085 0.81541 0.43774 0.0
H1187 H 0.91363 0.80603 0.42171 0.0
C1188 C 0.08976 0.93 0.428 0.0
C1189 C 0.10134 0.91257 0.42253 0.0
C1190 C 0.09473 0.94928 0.41996 0.0
C1191 C 0.1408 0.97615 0.40706 0.0
H1192 H 0.10322 0.02141 0.39685 0.0
C1193 C 0.13512 0.07088 0.40844 0.0
C1194 C 0.14182 0.07393 0.42882 0.0
C1195 C 0.13415 0.05109 0.40013 0.0
C1196 C 0.11405 0.00894 0.39919 0.0
H1197 H 0.12599 0.90138 0.40285 0.0
H1198 H 0.13481 0.93517 0.38915 0.0
H1199 H 0.09085 0.98604 0.39433 0.0
H1200 H 0.1549 0.05882 0.4556 0.0
H1201 H 0.15317 0.0243 0.4411 0.0
H1202 H 0.16362 -0.00091 0.41335 0.0
C1203 C 0.12191 0.93385 0.39962 0.0
C1204 C 0.10691 0.98872 0.39786 0.0
C1205 C 0.11676 0.91451 0.40744 0.0
C1206 C 0.14944 0.05701 0.43996 0.0
C1207 C 0.14859 0.03722 0.43158 0.0
C1208 C 0.14788 -0.00362 0.4086 0.0
C1209 C 0.1115 0.95148 0.40648 0.0
C1210 C 0.12001 0.97221 0.40261 0.0
C1211 C 0.14007 0.03401 0.41196 0.0
C1212 C 0.13435 0.01295 0.40549 0.0
H1213 H 0.07773 0.92898 0.43948 0.0
H1214 H 0.08652 0.96267 0.4256 0.0
H1215 H 0.15119 0.96369 0.41094 0.0
H1216 H 0.12942 0.0836 0.39927 0.0
H1217 H 0.12775 0.04902 0.38488 0.0
C1218 C 0.06563 0.10948 0.49851 0.0
C1219 C 0.06905 0.11272 0.47735 0.0
C1220 C 0.04571 0.10693 0.5061 0.0
C1221 C 0.99295 0.09354 0.49092 0.0
H1222 H 0.97627 0.12922 0.53588 0.0
C1223 C 0.90923 0.1152 0.50374 0.0
C1224 C 0.90128 0.11704 0.52381 0.0
C1225 C 0.93008 0.11184 0.50047 0.0
C1226 C 0.98077 0.11883 0.52362 0.0
H1227 H 0.05423 0.11515 0.44754 0.0
H1228 H 0.01945 0.11048 0.4608 0.0
H1229 H 0.01235 0.12808 0.52536 0.0
H1230 H 0.90927 0.11677 0.55623 0.0
H1231 H 0.94609 0.11081 0.55041 0.0
H1232 H 0.96143 0.08451 0.48889 0.0
C1233 C 0.03223 0.10992 0.47148 0.0
C1234 C 0.0014 0.11823 0.51756 0.0
C1235 C 0.05214 0.1127 0.4639 0.0
C1236 C 0.91487 0.11543 0.54058 0.0
C1237 C 0.93593 0.11206 0.53726 0.0
C1238 C 0.97241 0.09403 0.49705 0.0
C1239 C 0.02881 0.10732 0.49268 0.0
C1240 C 0.00755 0.10601 0.50077 0.0
C1241 C 0.9437 0.11014 0.51713 0.0
C1242 C 0.96596 0.10718 0.51303 0.0
H1243 H 0.07829 0.10949 0.50935 0.0
H1244 H 0.0435 0.10482 0.52249 0.0
H1245 H -0.00264 0.08371 0.47818 0.0
H1246 H 0.89937 0.11645 0.49037 0.0
H1247 H 0.93559 0.11095 0.48476 0.0
C1248 C 0.07667 0.19936 0.42506 0.0
C1249 C 0.09483 0.20276 0.43632 0.0
C1250 C 0.0655 0.21588 0.41716 0.0
C1251 C 0.05613 0.27134 0.42162 0.0
H1252 H 0.03948 0.26607 0.3645 0.0
C1253 C 0.01596 0.3374 0.37749 0.0
C1254 C -0.00104 0.33169 0.36536 0.0
C1255 C 0.02893 0.32242 0.38585 0.0
C1256 C 0.04387 0.26772 0.3805 0.0
H1257 H 0.11489 0.22631 0.44895 0.0
H1258 H 0.09518 0.25525 0.43512 0.0
H1259 H 0.05904 0.23849 0.38072 0.0
H1260 H 0.98252 0.30568 0.3523 0.0
H1261 H 0.00496 0.27965 0.36702 0.0
H1262 H 0.04062 0.30045 0.42148 0.0
C1263 C 0.08973 0.23972 0.43243 0.0
C1264 C 0.05506 0.25193 0.38978 0.0
C1265 C 0.10102 0.22314 0.4403 0.0
C1266 C -0.00451 0.31067 0.36148 0.0
C1267 C 0.00843 0.29572 0.36985 0.0
C1268 C 0.04482 0.28714 0.41234 0.0
C1269 C 0.07215 0.23619 0.42038 0.0
C1270 C 0.06106 0.25346 0.41049 0.0
C1271 C 0.0252 0.30141 0.38225 0.0
C1272 C 0.03836 0.28536 0.39175 0.0
H1273 H 0.07131 0.1839 0.42184 0.0
H1274 H 0.05175 0.21275 0.40828 0.0
H1275 H 0.0605 0.27285 0.43764 0.0
H1276 H 0.01913 0.35346 0.38076 0.0
H1277 H 0.04188 0.32727 0.39513 0.0
C1278 C 0.77667 0.15089 0.46038 0.0
C1279 C 0.7738 0.14267 0.48011 0.0
C1280 C 0.76375 0.14513 0.4443 0.0
C1281 C 0.7174 0.11498 0.4301 0.0
H1282 H 0.75264 0.09547 0.38595 0.0
C1283 C 0.68655 0.06788 0.36144 0.0
C1284 C 0.6973 0.04937 0.35783 0.0
C1285 C 0.69473 0.08294 0.37435 0.0
C1286 C 0.74261 0.10093 0.3981 0.0
H1287 H 0.7546 0.12336 0.49919 0.0
H1288 H 0.73204 0.11281 0.4709 0.0
H1289 H 0.76703 0.11686 0.41308 0.0
H1290 H 0.72546 0.0326 0.36427 0.0
H1291 H 0.73982 0.05905 0.38671 0.0
H1292 H 0.69318 0.09811 0.41544 0.0
C1293 C 0.74399 0.12402 0.46787 0.0
C1294 C 0.75075 0.1134 0.41351 0.0
C1295 C 0.75684 0.13002 0.48406 0.0
C1296 C 0.71679 0.04665 0.36674 0.0
C1297 C 0.72505 0.06182 0.37951 0.0
C1298 C 0.70921 0.10256 0.41457 0.0
C1299 C 0.74803 0.13071 0.44765 0.0
C1300 C 0.73835 0.12019 0.42992 0.0
C1301 C 0.71391 0.07992 0.38373 0.0
C1302 C 0.72189 0.09503 0.39872 0.0
H1303 H 0.78976 0.16069 0.45712 0.0
H1304 H 0.76696 0.15084 0.42897 0.0
H1305 H 0.7075 0.12005 0.44252 0.0
H1306 H 0.67147 0.0705 0.35486 0.0
H1307 H 0.68595 0.09684 0.37722 0.0
C1308 C 0.95233 0.73685 0.36631 0.0
C1309 C 0.9677 0.72445 0.37505 0.0
C1310 C 0.93573 0.74349 0.37831 0.0
C1311 C 0.90744 0.72372 0.4228 0.0
H1312 H 0.87385 0.77246 0.41533 0.0
C1313 C 0.83743 0.7481 0.4724 0.0
C1314 C 0.82244 0.76015 0.46247 0.0
C1315 C 0.85402 0.7402 0.46117 0.0
C1316 C 0.88293 0.75859 0.41728 0.0
H1317 H 0.9794 0.71157 0.40348 0.0
H1318 H 0.95095 0.72393 0.42461 0.0
H1319 H 0.90749 0.77049 0.39885 0.0
H1320 H 0.81058 0.76966 0.43283 0.0
H1321 H 0.83908 0.75523 0.41317 0.0
H1322 H 0.88289 0.71194 0.44143 0.0
C1323 C 0.95121 0.72787 0.40841 0.0
C1324 C 0.90226 0.75756 0.40799 0.0
C1325 C 0.96764 0.72106 0.3964 0.0
C1326 C 0.82207 0.76059 0.44085 0.0
C1327 C 0.8386 0.75271 0.42965 0.0
C1328 C 0.88813 0.72478 0.43217 0.0
C1329 C 0.93443 0.73795 0.39922 0.0
C1330 C 0.9147 0.74007 0.41054 0.0
C1331 C 0.85549 0.74398 0.43993 0.0
C1332 C 0.87558 0.74213 0.42931 0.0
H1333 H 0.95192 0.73947 0.34984 0.0
H1334 H 0.92309 0.75131 0.37075 0.0
H1335 H 0.91644 0.70981 0.42475 0.0
H1336 H 0.83813 0.7475 0.48905 0.0
H1337 H 0.86671 0.73327 0.46948 0.0
C1338 C 0.26801 0.97731 0.33725 0.0
C1339 C 0.28864 0.97108 0.33931 0.0
C1340 C 0.25262 0.96778 0.34903 0.0
C1341 C 0.24699 0.93847 0.39718 0.0
H1342 H 0.19731 0.91575 0.37341 0.0
C1343 C 0.1889 0.89185 0.44538 0.0
C1344 C 0.17959 0.87492 0.43569 0.0
C1345 C 0.201 0.90551 0.43407 0.0
C1346 C 0.21119 0.92194 0.38023 0.0
H1347 H 0.30902 0.94918 0.35448 0.0
H1348 H 0.28253 0.9329 0.37456 0.0
H1349 H 0.21999 0.93701 0.3522 0.0
H1350 H 0.17649 0.85834 0.40688 0.0
H1351 H 0.19847 0.88157 0.38736 0.0
H1352 H 0.23904 0.92262 0.4248 0.0
C1353 C 0.27821 0.9454 0.36438 0.0
C1354 C 0.22395 0.93436 0.36817 0.0
C1355 C 0.29339 0.95473 0.35271 0.0
C1356 C 0.18348 0.87129 0.41474 0.0
C1357 C 0.19579 0.88479 0.40349 0.0
C1358 C 0.23436 0.926 0.40916 0.0
C1359 C 0.25777 0.95206 0.36303 0.0
C1360 C 0.24228 0.94217 0.3764 0.0
C1361 C 0.20425 0.90234 0.4129 0.0
C1362 C 0.2166 0.91713 0.40068 0.0
H1363 H 0.26387 0.98982 0.32702 0.0
H1364 H 0.23687 0.97304 0.34763 0.0
H1365 H 0.26093 0.94457 0.40397 0.0
H1366 H 0.18587 0.89526 0.46142 0.0
H1367 H 0.20715 0.91895 0.44177 0.0
C1368 C 0.10723 0.82341 0.54908 0.0
C1369 C 0.09483 0.83678 0.53742 0.0
C1370 C 0.09899 0.81269 0.56574 0.0
C1371 C 0.05037 0.79051 0.58041 0.0
H1372 H 0.0817 0.77204 0.62778 0.0
C1373 C 0.04805 0.72075 0.64407 0.0
C1374 C 0.04837 0.70431 0.62997 0.0
C1375 C 0.05011 0.74105 0.63712 0.0
C1376 C 0.07253 0.7774 0.61493 0.0
H1377 H 0.06439 0.85047 0.53508 0.0
H1378 H 0.05006 0.83161 0.56412 0.0
H1379 H 0.09314 0.80231 0.60846 0.0
H1380 H 0.0503 0.69614 0.59764 0.0
H1381 H 0.05355 0.73142 0.58558 0.0
H1382 H 0.03056 0.76485 0.58608 0.0
C1383 C 0.06609 0.82933 0.5602 0.0
C1384 C 0.07914 0.79457 0.60379 0.0
C1385 C 0.07433 0.84008 0.54354 0.0
C1386 C 0.05022 0.70849 0.60887 0.0
C1387 C 0.05183 0.72867 0.60195 0.0
C1388 C 0.04386 0.77333 0.59145 0.0
C1389 C 0.07819 0.81511 0.5711 0.0
C1390 C 0.06864 0.80067 0.58587 0.0
C1391 C 0.05193 0.7451 0.61598 0.0
C1392 C 0.05544 0.7661 0.60817 0.0
H1393 H 0.12312 0.82062 0.54492 0.0
H1394 H 0.10864 0.80163 0.57367 0.0
H1395 H 0.042 0.79474 0.56663 0.0
H1396 H 0.04663 0.71789 0.66043 0.0
H1397 H 0.0503 0.75355 0.64817 0.0
C1398 C 0.3112 0.08389 0.60646 0.0
C1399 C 0.2987 0.07245 0.61995 0.0
C1400 C 0.30247 0.09778 0.59258 0.0
C1401 C 0.25462 0.12477 0.57751 0.0
H1402 H 0.27011 0.10852 0.52213 0.0
C1403 C 0.2108 0.11689 0.49736 0.0
C1404 C 0.2013 0.13627 0.49575 0.0
C1405 C 0.22714 0.11389 0.51098 0.0
C1406 C 0.26583 0.11343 0.53748 0.0
H1407 H 0.26743 0.06838 0.63091 0.0
H1408 H 0.25225 0.09268 0.60674 0.0
H1409 H 0.28996 0.09594 0.55143 0.0
H1410 H 0.20243 0.16806 0.50613 0.0
H1411 H 0.2308 0.16265 0.53016 0.0
H1412 H 0.22985 0.14143 0.56354 0.0
C1413 C 0.2688 0.09079 0.60684 0.0
C1414 C 0.27726 0.10638 0.55425 0.0
C1415 C 0.27752 0.07679 0.62066 0.0
C1416 C 0.20941 0.15293 0.50699 0.0
C1417 C 0.22556 0.14985 0.52084 0.0
C1418 C 0.24332 0.13202 0.5607 0.0
C1419 C 0.2811 0.10068 0.59204 0.0
C1420 C 0.27136 0.11143 0.57446 0.0
C1421 C 0.23413 0.13016 0.52341 0.0
C1422 C 0.24843 0.12584 0.54059 0.0
H1423 H 0.32762 0.0812 0.60564 0.0
H1424 H 0.31232 0.10546 0.58155 0.0
H1425 H 0.2498 0.12894 0.59291 0.0
H1426 H 0.20497 0.10378 0.48885 0.0
H1427 H 0.23339 0.09851 0.51274 0.0
C1428 C 0.86021 0.20423 0.57543 0.0
C1429 C 0.85345 0.18526 0.58317 0.0
C1430 C 0.86974 0.21844 0.58835 0.0
C1431 C 0.89608 0.22187 0.63899 0.0
H1432 H 0.89649 0.27974 0.62436 0.0
C1433 C 0.96238 0.27398 0.66197 0.0
C1434 C 0.95978 0.29541 0.66331 0.0
C1435 C 0.94601 0.26136 0.65645 0.0
C1436 C 0.89625 0.26376 0.6291 0.0
H1437 H 0.85049 0.16644 0.6105 0.0
H1438 H 0.86611 0.1917 0.63346 0.0
H1439 H 0.87305 0.25661 0.60703 0.0
H1440 H 0.93771 0.32036 0.66109 0.0
H1441 H 0.9087 0.29815 0.65233 0.0
H1442 H 0.91855 0.22919 0.66174 0.0
C1443 C 0.86491 0.19537 0.61726 0.0
C1444 C 0.88306 0.25033 0.61878 0.0
C1445 C 0.85589 0.1809 0.60416 0.0
C1446 C 0.94018 0.30388 0.65997 0.0
C1447 C 0.92361 0.29115 0.65484 0.0
C1448 C 0.90884 0.23539 0.64971 0.0
C1449 C 0.87221 0.21426 0.60948 0.0
C1450 C 0.88349 0.22904 0.62291 0.0
C1451 C 0.92644 0.26975 0.65251 0.0
C1452 C 0.90984 0.25634 0.64422 0.0
H1453 H 0.85859 0.20786 0.55923 0.0
H1454 H 0.87562 0.23246 0.58155 0.0
H1455 H 0.89697 0.20565 0.64272 0.0
H1456 H 0.97734 0.26697 0.66424 0.0
H1457 H 0.94908 0.2451 0.65435 0.0
C1458 C 0.69114 0.95359 0.59542 0.0
C1459 C 0.68343 0.95784 0.61517 0.0
C1460 C 0.71039 0.94439 0.59307 0.0
C1461 C 0.7547 0.92893 0.59267 0.0
H1462 H 0.75482 0.8771 0.6225 0.0
C1463 C 0.81238 0.86555 0.57314 0.0
C1464 C 0.80225 0.84749 0.56671 0.0
C1465 C 0.80196 0.88047 0.58453 0.0
C1466 C 0.75517 0.89165 0.61433 0.0
H1467 H 0.69062 0.95734 0.64785 0.0
H1468 H 0.72408 0.94092 0.64363 0.0
H1469 H 0.72959 0.90363 0.63121 0.0
H1470 H 0.77383 0.83012 0.56888 0.0
H1471 H 0.75571 0.85616 0.58893 0.0
H1472 H 0.77958 0.91652 0.57507 0.0
C1473 C 0.71517 0.94471 0.63005 0.0
C1474 C 0.74087 0.90687 0.61938 0.0
C1475 C 0.69603 0.95414 0.63241 0.0
C1476 C 0.78204 0.84389 0.57344 0.0
C1477 C 0.77169 0.85876 0.58503 0.0
C1478 C 0.76917 0.91382 0.58779 0.0
C1479 C 0.72217 0.93913 0.61042 0.0
C1480 C 0.74004 0.92531 0.60807 0.0
C1481 C 0.78132 0.87749 0.58995 0.0
C1482 C 0.769 0.89477 0.59808 0.0
H1483 H 0.6819 0.95644 0.58184 0.0
H1484 H 0.71542 0.94012 0.57775 0.0
H1485 H 0.75436 0.94305 0.58378 0.0
H1486 H 0.82801 0.8688 0.5684 0.0
H1487 H 0.80973 0.89473 0.58832 0.0
C1488 C 0.4949 0.15004 0.23977 0.0
C1489 C 0.51263 0.13854 0.23516 0.0
C1490 C 0.47612 0.14007 0.24301 0.0
C1491 C 0.45216 0.08855 0.25093 0.0
H1492 H 0.40594 0.11346 0.22241 0.0
C1493 C 0.37752 0.04512 0.2473 0.0
C1494 C 0.36244 0.05618 0.25806 0.0
C1495 C 0.39441 0.05546 0.23897 0.0
C1496 C 0.41879 0.1063 0.23028 0.0
H1497 H 0.5251 0.10765 0.23253 0.0
H1498 H 0.49256 0.09036 0.23803 0.0
H1499 H 0.43902 0.13132 0.22335 0.0
H1500 H 0.35137 0.08653 0.26616 0.0
H1501 H 0.38043 0.1047 0.25102 0.0
H1502 H 0.43198 0.06354 0.2578 0.0
C1503 C 0.49294 0.107 0.23911 0.0
C1504 C 0.43763 0.11662 0.23111 0.0
C1505 C 0.51166 0.11693 0.23595 0.0
C1506 C 0.36273 0.07778 0.25763 0.0
C1507 C 0.37948 0.08814 0.24911 0.0
C1508 C 0.43344 0.07816 0.24989 0.0
C1509 C 0.47478 0.11847 0.24176 0.0
C1510 C 0.45451 0.10792 0.24158 0.0
C1511 C 0.39618 0.07694 0.2412 0.0
C1512 C 0.41654 0.08696 0.23964 0.0
H1513 H 0.49513 0.16672 0.23925 0.0
H1514 H 0.46249 0.14933 0.24559 0.0
H1515 H 0.4647 0.08151 0.25937 0.0
H1516 H 0.37772 0.02842 0.24776 0.0
H1517 H 0.407 0.04652 0.23266 0.0
C1518 C 0.89 0.3826 0.28566 0.0
C1519 C 0.88539 0.384 0.3067 0.0
C1520 C 0.87607 0.38983 0.27103 0.0
C1521 C 0.83509 0.42849 0.2671 0.0
H1522 H 0.83789 0.41138 0.21008 0.0
C1523 C 0.8229 0.45967 0.17816 0.0
C1524 C 0.83113 0.47939 0.1814 0.0
C1525 C 0.82037 0.44613 0.19462 0.0
C1526 C 0.8363 0.41625 0.22593 0.0
H1527 H 0.86186 0.39229 0.32889 0.0
H1528 H 0.83725 0.40434 0.30328 0.0
H1529 H 0.84994 0.38831 0.23669 0.0
H1530 H 0.84179 0.50106 0.20434 0.0
H1531 H 0.83853 0.47722 0.23293 0.0
H1532 H 0.82134 0.45639 0.25635 0.0
C1533 C 0.8519 0.39831 0.29809 0.0
C1534 C 0.84359 0.40307 0.24122 0.0
C1535 C 0.86598 0.39136 0.31276 0.0
C1536 C 0.83541 0.48591 0.20149 0.0
C1537 C 0.83335 0.47221 0.21791 0.0
C1538 C 0.8274 0.44151 0.25184 0.0
C1539 C 0.85708 0.39834 0.27709 0.0
C1540 C 0.84425 0.40955 0.26184 0.0
C1541 C 0.82657 0.45186 0.21455 0.0
C1542 C 0.82908 0.43608 0.23096 0.0
H1543 H 0.90484 0.37701 0.28051 0.0
H1544 H 0.88083 0.38986 0.25506 0.0
H1545 H 0.83522 0.43405 0.28281 0.0
H1546 H 0.81913 0.45446 0.16277 0.0
H1547 H 0.81452 0.43083 0.19153 0.0
C1548 C 0.65398 0.91002 0.30409 0.0
C1549 C 0.66955 0.92499 0.30455 0.0
C1550 C 0.65349 0.89535 0.28844 0.0
C1551 C 0.66579 0.89549 0.23471 0.0
H1552 H 0.63615 0.84376 0.23646 0.0
C1553 C 0.6166 0.87022 0.16634 0.0
C1554 C 0.59628 0.86597 0.17241 0.0
C1555 C 0.63246 0.87052 0.18086 0.0
C1556 C 0.64465 0.85808 0.23566 0.0
H1557 H 0.69824 0.93468 0.29042 0.0
H1558 H 0.69724 0.90906 0.26301 0.0
H1559 H 0.65366 0.85618 0.26732 0.0
H1560 H 0.57694 0.85764 0.19837 0.0
H1561 H 0.60431 0.85866 0.22356 0.0
H1562 H 0.65546 0.89832 0.20369 0.0
C1563 C 0.68528 0.9089 0.27462 0.0
C1564 C 0.65471 0.86513 0.25329 0.0
C1565 C 0.68582 0.92358 0.29033 0.0
C1566 C 0.59235 0.86117 0.19313 0.0
C1567 C 0.60815 0.86144 0.20758 0.0
C1568 C 0.6557 0.88847 0.21714 0.0
C1569 C 0.66854 0.89536 0.27291 0.0
C1570 C 0.66429 0.88452 0.25331 0.0
C1571 C 0.62832 0.86649 0.20171 0.0
C1572 C 0.64397 0.87034 0.21783 0.0
H1573 H 0.64139 0.91044 0.31501 0.0
H1574 H 0.6403 0.88522 0.28755 0.0
H1575 H 0.67293 0.91055 0.2342 0.0
H1576 H 0.62021 0.87377 0.15045 0.0
H1577 H 0.64787 0.87439 0.17588 0.0
C1578 C 0.06903 0.67609 0.28285 0.0
C1579 C 0.04924 0.6698 0.27686 0.0
C1580 C 0.08638 0.66658 0.27438 0.0
C1581 C 0.10969 0.6254 0.27167 0.0
H1582 H 0.1208 0.60872 0.21545 0.0
C1583 C 0.12764 0.54386 0.24265 0.0
C1584 C 0.14429 0.5413 0.22918 0.0
C1585 C 0.12258 0.56342 0.25002 0.0
C1586 C 0.11821 0.61355 0.23121 0.0
H1587 H 0.03197 0.65065 0.25582 0.0
H1588 H 0.06228 0.63475 0.24029 0.0
H1589 H 0.09926 0.63906 0.22206 0.0
H1590 H 0.16916 0.55687 0.21333 0.0
H1591 H 0.15974 0.59131 0.22569 0.0
H1592 H 0.12688 0.59868 0.28079 0.0
C1593 C 0.06443 0.64676 0.25167 0.0
C1594 C 0.1059 0.63082 0.23495 0.0
C1595 C 0.04709 0.65586 0.2605 0.0
C1596 C 0.15647 0.55842 0.22403 0.0
C1597 C 0.15104 0.5781 0.23094 0.0
C1598 C 0.12158 0.60787 0.26792 0.0
C1599 C 0.08411 0.65111 0.25945 0.0
C1600 C 0.10105 0.63651 0.25522 0.0
C1601 C 0.13375 0.58076 0.24356 0.0
C1602 C 0.1254 0.60149 0.24767 0.0
H1603 H 0.07105 0.68658 0.29568 0.0
H1604 H 0.10142 0.67013 0.28061 0.0
H1605 H 0.1059 0.62929 0.28744 0.0
H1606 H 0.11792 0.5309 0.2466 0.0
H1607 H 0.10903 0.5652 0.25958 0.0
C1608 C 0.39819 0.84013 0.75563 0.0
C1609 C 0.39399 0.83507 0.7762 0.0
C1610 C 0.38338 0.85024 0.7437 0.0
C1611 C 0.34811 0.86793 0.71905 0.0
H1612 H 0.31857 0.91047 0.74884 0.0
C1613 C 0.3017 0.92821 0.67486 0.0
C1614 C 0.3048 0.94866 0.6812 0.0
C1615 C 0.30725 0.91184 0.68764 0.0
C1616 C 0.32671 0.8987 0.74025 0.0
H1617 H 0.37049 0.83482 0.79985 0.0
H1618 H 0.34439 0.85159 0.77882 0.0
H1619 H 0.3392 0.88562 0.76767 0.0
H1620 H 0.3149 0.96809 0.70634 0.0
H1621 H 0.32522 0.93962 0.72843 0.0
H1622 H 0.33692 0.88195 0.69155 0.0
C1623 C 0.35933 0.84856 0.77209 0.0
C1624 C 0.33833 0.88419 0.75109 0.0
C1625 C 0.37422 0.83878 0.78409 0.0
C1626 C 0.31218 0.95247 0.70113 0.0
C1627 C 0.31808 0.93608 0.7138 0.0
C1628 C 0.33669 0.88258 0.7082 0.0
C1629 C 0.36398 0.85519 0.75202 0.0
C1630 C 0.34955 0.86887 0.7406 0.0
C1631 C 0.31642 0.91556 0.70688 0.0
C1632 C 0.32619 0.89844 0.71863 0.0
H1633 H 0.41335 0.8376 0.74919 0.0
H1634 H 0.38766 0.85524 0.7284 0.0
H1635 H 0.35625 0.85617 0.71046 0.0
H1636 H 0.29583 0.92485 0.65962 0.0
H1637 H 0.30517 0.89627 0.68203 0.0
C1638 C 0.10361 0.34373 0.68688 0.0
C1639 C 0.08804 0.33157 0.69574 0.0
C1640 C 0.11831 0.35328 0.69932 0.0
C1641 C 0.13725 0.35758 0.75334 0.0
H1642 H 0.13316 0.41632 0.74307 0.0
C1643 C 0.12961 0.41631 0.81733 0.0
C1644 C 0.13964 0.43543 0.81605 0.0
C1645 C 0.13059 0.40236 0.8011 0.0
C1646 C 0.13498 0.39998 0.74595 0.0
H1647 H 0.07716 0.31798 0.72423 0.0
H1648 H 0.10255 0.33469 0.74582 0.0
H1649 H 0.12314 0.39211 0.71632 0.0
H1650 H 0.15865 0.45486 0.79664 0.0
H1651 H 0.15991 0.43044 0.76789 0.0
H1652 H 0.14769 0.3656 0.78354 0.0
C1653 C 0.10349 0.33692 0.72933 0.0
C1654 C 0.12929 0.38606 0.73059 0.0
C1655 C 0.08877 0.32746 0.71695 0.0
C1656 C 0.15071 0.44027 0.79808 0.0
C1657 C 0.15149 0.42632 0.78167 0.0
C1658 C 0.14287 0.3715 0.7687 0.0
C1659 C 0.11779 0.35071 0.72077 0.0
C1660 C 0.12937 0.36474 0.73452 0.0
C1661 C 0.14149 0.4072 0.78311 0.0
C1662 C 0.14077 0.39281 0.76547 0.0
H1663 H 0.10361 0.34707 0.67055 0.0
H1664 H 0.12933 0.3636 0.69228 0.0
H1665 H 0.13784 0.34123 0.75665 0.0
H1666 H 0.12104 0.41199 0.83096 0.0
H1667 H 0.12235 0.38793 0.80246 0.0
C1668 C 0.57358 0.98626 0.70189 0.0
C1669 C 0.5706 -0.00221 0.68382 0.0
C1670 C 0.56215 0.99063 0.71953 0.0
C1671 C 0.51865 0.02244 0.73956 0.0
H1672 H 0.55471 0.02898 0.78667 0.0
C1673 C 0.50797 0.08456 0.80125 0.0
C1674 C 0.51163 0.07936 0.82192 0.0
C1675 C 0.51162 0.07024 0.78567 0.0
C1676 C 0.5443 0.02687 0.77382 0.0
H1677 H 0.55228 0.02189 0.66963 0.0
H1678 H 0.5329 0.02994 0.70046 0.0
H1679 H 0.56685 0.01037 0.75663 0.0
H1680 H 0.52169 0.05493 0.84247 0.0
H1681 H 0.52837 0.03008 0.81512 0.0
H1682 H 0.4966 0.0402 0.7565 0.0
C1683 C 0.54377 0.01729 0.70101 0.0
C1684 C 0.55121 0.01611 0.7566 0.0
C1685 C 0.55504 0.0128 0.68333 0.0
C1686 C 0.5188 0.05946 0.82669 0.0
C1687 C 0.52261 0.04522 0.81107 0.0
C1688 C 0.51181 0.03338 0.75675 0.0
C1689 C 0.54768 0.00672 0.71949 0.0
C1690 C 0.53872 0.01438 0.73901 0.0
C1691 C 0.51913 0.05052 0.79044 0.0
C1692 C 0.52485 0.03622 0.77374 0.0
H1693 H 0.58521 0.97431 0.70263 0.0
H1694 H 0.56522 0.98192 0.73342 0.0
H1695 H 0.50852 0.02102 0.72641 0.0
H1696 H 0.50227 0.09968 0.79707 0.0
H1697 H 0.5091 0.0748 0.76982 0.0
C1698 C 0.98517 0.60564 0.71341 0.0
C1699 C 0.99223 0.59625 0.69522 0.0
C1700 C 0.97088 0.5956 0.72593 0.0
C1701 C 0.92871 0.55986 0.71957 0.0
H1702 H 0.92616 0.55988 0.77915 0.0
C1703 C 0.86261 0.52121 0.76459 0.0
C1704 C 0.85619 0.53076 0.78289 0.0
C1705 C 0.87975 0.52862 0.75398 0.0
C1706 C 0.92654 0.56 0.76249 0.0
H1707 H 0.99155 0.56804 0.67718 0.0
H1708 H 0.96666 0.55068 0.69903 0.0
H1709 H 0.95696 0.57269 0.7619 0.0
H1710 H 0.86182 0.55622 0.80378 0.0
H1711 H 0.89118 0.56958 0.78487 0.0
H1712 H 0.89815 0.54785 0.71999 0.0
C1713 C 0.97186 0.56594 0.70333 0.0
C1714 C 0.94422 0.56719 0.75267 0.0
C1715 C 0.98617 0.5759 0.69087 0.0
C1716 C 0.86654 0.54844 0.7898 0.0
C1717 C 0.8835 0.55596 0.77908 0.0
C1718 C 0.91097 0.55287 0.72935 0.0
C1719 C 0.96345 0.57604 0.72045 0.0
C1720 C 0.94543 0.56723 0.73112 0.0
C1721 C 0.89063 0.54584 0.76135 0.0
C1722 C 0.90962 0.55297 0.75092 0.0
H1723 H 0.9896 0.62125 0.71728 0.0
H1724 H 0.96464 0.60371 0.7391 0.0
H1725 H 0.9291 0.56009 0.7029 0.0
H1726 H 0.85506 0.50742 0.75904 0.0
H1727 H 0.88493 0.52037 0.74045 0.0
C1728 C 0.19927 0.43019 0.13538 0.0
C1729 C 0.20269 0.4403 0.15421 0.0
C1730 C 0.21323 0.41556 0.12814 0.0
C1731 C 0.26668 0.39784 0.1335 0.0
H1732 H 0.24567 0.34793 0.10821 0.0
C1733 C 0.32273 0.33868 0.10279 0.0
C1734 C 0.31947 0.33413 0.0819 0.0
C1735 C 0.30695 0.34709 0.11463 0.0
C1736 C 0.25173 0.36177 0.11528 0.0
H1737 H 0.22381 0.44339 0.1799 0.0
H1738 H 0.24814 0.41778 0.16727 0.0
H1739 H 0.22169 0.37333 0.12225 0.0
H1740 H 0.29654 0.3325 0.05769 0.0
H1741 H 0.26905 0.3474 0.07832 0.0
H1742 H 0.29665 0.38661 0.12619 0.0
C1743 C 0.23468 0.42126 0.15806 0.0
C1744 C 0.23804 0.37636 0.1232 0.0
C1745 C 0.22074 0.43595 0.16529 0.0
C1746 C 0.29953 0.33588 0.07374 0.0
C1747 C 0.28375 0.34445 0.08558 0.0
C1748 C 0.28034 0.38327 0.12565 0.0
C1749 C 0.23091 0.41069 0.13956 0.0
C1750 C 0.24538 0.39468 0.13213 0.0
C1751 C 0.28768 0.35121 0.10576 0.0
C1752 C 0.27302 0.36519 0.11624 0.0
H1753 H 0.18559 0.43327 0.12636 0.0
H1754 H 0.21013 0.40802 0.11358 0.0
H1755 H 0.27282 0.41191 0.14001 0.0
H1756 H 0.33788 0.33716 0.10957 0.0
H1757 H 0.31023 0.35166 0.13033 0.0
C1758 C 0.27524 0.63287 -0.0022 0.0
C1759 C 0.29543 0.62515 -0.00332 0.0
C1760 C 0.25924 0.62284 0.98745 0.0
C1761 C 0.24618 0.57197 0.96633 0.0
H1762 H 0.20671 0.60114 0.93234 0.0
C1763 C 0.19895 0.53103 0.9046 0.0
C1764 C 0.17785 0.53559 0.90349 0.0
C1765 C 0.21189 0.54271 0.91707 0.0
C1766 C 0.21749 0.59285 0.942 0.0
H1767 H 0.31474 0.60132 0.98319 0.0
H1768 H 0.28707 0.58418 0.9652 0.0
H1769 H 0.2318 0.62064 0.95261 0.0
H1770 H 0.15388 0.55627 0.91435 0.0
H1771 H 0.17664 0.57669 0.93613 0.0
H1772 H 0.23228 0.54421 0.95547 0.0
C1773 C 0.28347 0.59765 0.97438 0.0
C1774 C 0.23177 0.60398 0.95359 0.0
C1775 C 0.29935 0.60758 0.98464 0.0
C1776 C 0.17005 0.5523 0.9149 0.0
C1777 C 0.18306 0.56406 0.92729 0.0
C1778 C 0.23201 0.56089 0.95475 0.0
C1779 C 0.26322 0.60495 0.97592 0.0
C1780 C 0.24655 0.59359 0.96548 0.0
C1781 C 0.20404 0.55924 0.92862 0.0
C1782 C 0.21784 0.5712 0.94213 0.0
H1783 H 0.27173 0.64637 0.00695 0.0
H1784 H 0.24372 0.62877 0.98884 0.0
H1785 H 0.25712 0.56358 0.97573 0.0
H1786 H 0.20548 0.51831 0.89599 0.0
H1787 H 0.2281 0.53886 0.91761 0.0
C1788 C 0.47178 0.20407 0.90151 0.0
C1789 C 0.47084 0.19771 0.88092 0.0
C1790 C 0.46697 0.22427 0.90682 0.0
C1791 C 0.46044 0.27007 0.91344 0.0
H1792 H 0.40309 0.27882 0.89946 0.0
C1793 C 0.41 0.32848 0.95706 0.0
C1794 C 0.39288 0.31871 0.96602 0.0
C1795 C 0.42107 0.31881 0.94136 0.0
C1796 C 0.41921 0.27682 0.90319 0.0
H1797 H 0.4652 0.20743 0.84954 0.0
H1798 H 0.45585 0.24293 0.85901 0.0
H1799 H 0.42301 0.25278 0.88096 0.0
H1800 H 0.37335 0.29168 0.96484 0.0
H1801 H 0.39259 0.27488 0.93735 0.0
H1802 H 0.45627 0.29312 0.9366 0.0
C1803 C 0.46075 0.23231 0.87091 0.0
C1804 C 0.43065 0.26209 0.8925 0.0
C1805 C 0.46609 0.21212 0.86552 0.0
C1806 C 0.38653 0.29952 0.95835 0.0
C1807 C 0.39742 0.29001 0.94246 0.0
C1808 C 0.44908 0.28497 0.92396 0.0
C1809 C 0.46068 0.23836 0.89168 0.0
C1810 C 0.45104 0.25788 0.89827 0.0
C1811 C 0.41501 0.29938 0.93411 0.0
C1812 C 0.42809 0.28771 0.91961 0.0
H1813 H 0.47547 0.19316 0.9136 0.0
H1814 H 0.46677 0.22845 0.92297 0.0
H1815 H 0.47616 0.26708 0.91811 0.0
H1816 H 0.41529 0.34327 0.96266 0.0
H1817 H 0.4346 0.3263 0.93518 0.0
C1818 C 0.75151 0.43142 0.83862 0.0
C1819 C 0.76571 0.4343 0.82266 0.0
C1820 C 0.74213 0.41232 0.84131 0.0
C1821 C 0.72231 0.36954 0.84104 0.0
H1822 H 0.76796 0.3349 0.85812 0.0
C1823 C 0.70685 0.30689 0.8978 0.0
C1824 C 0.71708 0.31219 0.91612 0.0
C1825 C 0.71415 0.31387 0.87889 0.0
C1826 C 0.75503 0.3441 0.85296 0.0
H1827 H 0.78024 0.42021 0.79614 0.0
H1828 H 0.76432 0.38642 0.80138 0.0
H1829 H 0.77434 0.365 0.83637 0.0
H1830 H 0.7445 0.32618 0.92885 0.0
H1831 H 0.75728 0.33846 0.89579 0.0
H1832 H 0.70316 0.34968 0.85879 0.0
C1833 C 0.76012 0.39907 0.81142 0.0
C1834 C 0.75864 0.36122 0.84044 0.0
C1835 C 0.76907 0.41839 0.80838 0.0
C1836 C 0.73628 0.32195 0.91497 0.0
C1837 C 0.7436 0.32896 0.896 0.0
C1838 C 0.71865 0.35227 0.85325 0.0
C1839 C 0.74725 0.39571 0.82841 0.0
C1840 C 0.74244 0.37464 0.83534 0.0
C1841 C 0.73181 0.32622 0.87803 0.0
C1842 C 0.73513 0.34004 0.86024 0.0
H1843 H 0.74888 0.44345 0.8499 0.0
H1844 H 0.7324 0.41002 0.85466 0.0
H1845 H 0.70964 0.37976 0.83736 0.0
H1846 H 0.69217 0.299 0.89824 0.0
H1847 H 0.70498 0.31126 0.86521 0.0
C1848 C 0.61317 0.71072 0.93504 0.0
C1849 C 0.60573 0.69091 0.9397 0.0
C1850 C 0.60181 0.72394 0.92239 0.0
C1851 C 0.56504 0.72053 0.88029 0.0
H1852 H 0.55663 0.77904 0.88875 0.0
C1853 C 0.50885 0.76861 0.83152 0.0
C1854 C 0.51339 0.78946 0.82793 0.0
C1855 C 0.5217 0.75664 0.8439 0.0
C1856 C 0.55918 0.76278 0.88598 0.0
H1857 H 0.57968 0.67025 0.93624 0.0
H1858 H 0.56001 0.69332 0.91429 0.0
H1859 H 0.5749 0.75892 0.91475 0.0
H1860 H 0.53584 0.81363 0.83318 0.0
H1861 H 0.55852 0.79255 0.85432 0.0
H1862 H 0.54959 0.72428 0.8515 0.0
C1863 C 0.57479 0.69841 0.92006 0.0
C1864 C 0.56951 0.75128 0.90094 0.0
C1865 C 0.58604 0.68527 0.93275 0.0
C1866 C 0.53179 0.79766 0.83581 0.0
C1867 C 0.5447 0.78564 0.84808 0.0
C1868 C 0.55489 0.73203 0.86528 0.0
C1869 C 0.58289 0.71754 0.91417 0.0
C1870 C 0.57228 0.73 0.89834 0.0
C1871 C 0.53945 0.7652 0.85282 0.0
C1872 C 0.55163 0.75325 0.86803 0.0
H1873 H 0.62823 0.71561 0.94019 0.0
H1874 H 0.60836 0.73867 0.91812 0.0
H1875 H 0.56738 0.7042 0.87771 0.0
H1876 H 0.49476 0.76182 0.82579 0.0
H1877 H 0.5171 0.74098 0.84735 0.0
C1878 C 0.82393 0.59378 0.09729 0.0
C1879 C 0.84258 0.5836 0.09344 0.0
C1880 C 0.81526 0.60658 0.08241 0.0
C1881 C 0.81107 0.60809 0.0275 0.0
H1882 H 0.77572 0.65469 0.03964 0.0
C1883 C 0.73437 0.6536 0.99466 0.0
C1884 C 0.72172 0.63614 0.9928 0.0
C1885 C 0.75457 0.65162 0.00184 0.0
C1886 C 0.78585 0.64203 0.03572 0.0
H1887 H 0.86747 0.57973 0.07155 0.0
H1888 H 0.85199 0.60188 0.04523 0.0
H1889 H 0.80274 0.64507 0.06386 0.0
H1890 H 0.72072 0.60285 -0.00463 0.0
H1891 H 0.75584 0.59939 0.00772 0.0
H1892 H 0.79328 0.60421 3e-05 0.0
C1893 C 0.84422 0.60005 0.05986 0.0
C1894 C 0.80122 0.63644 0.04967 0.0
C1895 C 0.85308 0.58745 0.07492 0.0
C1896 C 0.73005 0.6166 -0.00316 0.0
C1897 C 0.75026 0.6146 0.0037 0.0
C1898 C 0.79563 0.61361 0.01361 0.0
C1899 C 0.82494 0.60924 0.06326 0.0
C1900 C 0.81324 0.61878 0.04618 0.0
C1901 C 0.76252 0.63213 0.00689 0.0
C1902 C 0.78221 0.62997 0.01813 0.0
H1903 H 0.81559 0.59118 0.11149 0.0
H1904 H 0.80027 0.61322 0.08541 0.0
H1905 H 0.82005 0.59436 0.02442 0.0
H1906 H 0.72835 0.66887 0.99164 0.0
H1907 H 0.76372 0.66536 0.00414 0.0
C1908 C 0.46159 0.84888 0.10074 0.0
C1909 C 0.47122 0.84714 0.12003 0.0
C1910 C 0.44576 0.83531 0.09534 0.0
C1911 C 0.43126 0.78271 0.10747 0.0
H1912 H 0.38138 0.79337 0.0765 0.0
C1913 C 0.37484 0.71802 0.09228 0.0
C1914 C 0.36763 0.71585 0.07203 0.0
C1915 C 0.38467 0.73601 0.09843 0.0
C1916 C 0.39534 0.79023 0.08504 0.0
H1917 H 0.47058 0.83155 0.14953 0.0
H1918 H 0.44281 0.80828 0.1403 0.0
H1919 H 0.40335 0.82228 0.08706 0.0
H1920 H 0.36421 0.73122 0.04257 0.0
H1921 H 0.38197 0.76266 0.05326 0.0
H1922 H 0.42377 0.75086 0.10526 0.0
C1923 C 0.44783 0.81959 0.12912 0.0
C1924 C 0.40784 0.80671 0.09108 0.0
C1925 C 0.46369 0.8329 0.1344 0.0
C1926 C 0.36968 0.73244 0.05827 0.0
C1927 C 0.37973 0.75046 0.0644 0.0
C1928 C 0.4189 0.76637 0.10144 0.0
C1929 C 0.43936 0.82002 0.10925 0.0
C1930 C 0.42579 0.80305 0.10257 0.0
C1931 C 0.38776 0.75217 0.08441 0.0
C1932 C 0.4007 0.76991 0.09038 0.0
H1933 H 0.46713 0.85979 0.08942 0.0
H1934 H 0.43947 0.83595 0.07992 0.0
H1935 H 0.44532 0.77937 0.11577 0.0
H1936 H 0.37314 0.70568 0.10338 0.0
H1937 H 0.39026 0.73709 0.1141 0.0
C1938 C 0.60649 0.24012 0.18011 0.0
C1939 C 0.5877 0.23466 0.17101 0.0
C1940 C 0.61954 0.25409 0.17024 0.0
C1941 C 0.64757 0.26354 0.13346 0.0
H1942 H 0.63131 0.31258 0.10353 0.0
C1943 C 0.67824 0.2862 0.05332 0.0
C1944 C 0.68084 0.30724 0.04899 0.0
C1945 C 0.67068 0.27993 0.07249 0.0
C1946 C 0.63628 0.29911 0.11203 0.0
H1947 H 0.56679 0.24065 0.14581 0.0
H1948 H 0.58914 0.26562 0.12896 0.0
H1949 H 0.60939 0.29954 0.13108 0.0
H1950 H 0.67921 0.33806 0.06205 0.0
H1951 H 0.666 0.32707 0.09524 0.0
H1952 H 0.67388 0.26244 0.11359 0.0
C1953 C 0.59396 0.25909 0.14354 0.0
C1954 C 0.62369 0.29165 0.12774 0.0
C1955 C 0.58116 0.24484 0.15315 0.0
C1956 C 0.67707 0.32173 0.06469 0.0
C1957 C 0.66949 0.31548 0.08374 0.0
C1958 C 0.66005 0.27087 0.11757 0.0
C1959 C 0.61369 0.26302 0.15142 0.0
C1960 C 0.62895 0.27349 0.1382 0.0
C1961 C 0.6656 0.2946 0.08761 0.0
C1962 C 0.65423 0.28841 0.10635 0.0
H1963 H 0.61192 0.23217 0.19374 0.0
H1964 H 0.63467 0.25694 0.1766 0.0
H1965 H 0.65184 0.24934 0.14112 0.0
H1966 H 0.68104 0.27465 0.0416 0.0
H1967 H 0.66772 0.26371 0.07504 0.0
C1968 C 0.94562 0.65153 0.62758 0.0
C1969 C 0.9617 0.66218 0.63738 0.0
C1970 C 0.92816 0.66206 0.62081 0.0
C1971 C 0.90133 0.71279 0.62318 0.0
H1972 H 0.88714 0.70024 0.56654 0.0
C1973 C 0.87171 0.77277 0.56631 0.0
C1974 C 0.85517 0.76765 0.55338 0.0
C1975 C 0.88049 0.75796 0.57907 0.0
C1976 C 0.89062 0.70366 0.58249 0.0
H1977 H 0.97157 0.69203 0.64872 0.0
H1978 H 0.94148 0.71043 0.63646 0.0
H1979 H 0.91001 0.67727 0.58538 0.0
H1980 H 0.8349 0.74297 0.5436 0.0
H1981 H 0.85079 0.71681 0.56569 0.0
H1982 H 0.8829 0.73993 0.61969 0.0
C1983 C 0.94211 0.6939 0.6343 0.0
C1984 C 0.90367 0.6905 0.59334 0.0
C1985 C 0.95948 0.68336 0.6412 0.0
C1986 C 0.84763 0.74735 0.55343 0.0
C1987 C 0.85666 0.73241 0.56602 0.0
C1988 C 0.88845 0.72605 0.61225 0.0
C1989 C 0.92648 0.68346 0.62359 0.0
C1990 C 0.90972 0.69529 0.61357 0.0
C1991 C 0.87311 0.73766 0.579 0.0
C1992 C 0.88355 0.72192 0.59162 0.0
H1993 H 0.94672 0.63514 0.62466 0.0
H1994 H 0.91621 0.65353 0.61293 0.0
H1995 H 0.90534 0.71666 0.63889 0.0
H1996 H 0.87778 0.7883 0.56673 0.0
H1997 H 0.89339 0.76228 0.5887 0.0
C1998 C 0.23199 0.99449 0.61942 0.0
C1999 C 0.25096 0.99187 0.60937 0.0
C2000 C 0.21351 0.9921 0.60849 0.0
C2001 C 0.19264 0.98852 0.55515 0.0
H2002 H 0.15649 0.94668 0.57748 0.0
C2003 C 0.1579 0.92373 0.5085 0.0
C2004 C 0.13756 0.91748 0.51192 0.0
C2005 C 0.16645 0.9396 0.52011 0.0
C2006 C 0.16606 0.9588 0.57121 0.0
H2007 H 0.26548 0.98596 0.57986 0.0
H2008 H 0.23369 0.9818 0.56108 0.0
H2009 H 0.18193 0.96305 0.59978 0.0
H2010 H 0.1099 0.92316 0.52963 0.0
H2011 H 0.12527 0.95064 0.5507 0.0
H2012 H 0.17799 0.9829 0.52616 0.0
C2013 C 0.23284 0.98573 0.57727 0.0
C2014 C 0.18062 0.9682 0.58398 0.0
C2015 C 0.25113 0.98783 0.58814 0.0
C2016 C 0.1256 0.92787 0.52665 0.0
C2017 C 0.13436 0.94348 0.5387 0.0
C2018 C 0.17826 0.979 0.54237 0.0
C2019 C 0.21381 0.9875 0.58731 0.0
C2020 C 0.1948 0.98232 0.57578 0.0
C2021 C 0.15496 0.94924 0.5357 0.0
C2022 C 0.16557 0.96334 0.55007 0.0
H2023 H 0.23143 -0.00233 0.63577 0.0
H2024 H 0.19904 0.99353 0.61662 0.0
H2025 H 0.20308 -0.00032 0.54851 0.0
H2026 H 0.16739 0.91593 0.4972 0.0
H2027 H 0.18245 0.94355 0.51767 0.0
C2028 C 0.04203 0.26025 0.61731 0.0
C2029 C 0.04515 0.26352 0.6384 0.0
C2030 C 0.04668 0.24131 0.60851 0.0
C2031 C 0.0841 0.2016 0.61347 0.0
H2032 H 0.05546 0.18165 0.56505 0.0
C2033 C 0.12093 0.15424 0.54599 0.0
C2034 C 0.11967 0.16616 0.52792 0.0
C2035 C 0.10971 0.15983 0.56349 0.0
C2036 C 0.06345 0.18668 0.57879 0.0
H2037 H 0.05453 0.24937 0.66714 0.0
H2038 H 0.06339 0.21606 0.65144 0.0
H2039 H 0.03687 0.2021 0.59054 0.0
H2040 H 0.10582 0.19323 0.51403 0.0
H2041 H 0.08613 0.20276 0.54445 0.0
H2042 H 0.11104 0.18731 0.60084 0.0
C2043 C 0.05709 0.22819 0.64187 0.0
C2044 C 0.05287 0.19834 0.59334 0.0
C2045 C 0.05207 0.24717 0.65079 0.0
C2046 C 0.10724 0.18384 0.52774 0.0
C2047 C 0.09578 0.18915 0.54503 0.0
C2048 C 0.09466 0.18974 0.59896 0.0
C2049 C 0.05478 0.22527 0.62057 0.0
C2050 C 0.06346 0.20708 0.61003 0.0
C2051 C 0.09677 0.17708 0.56291 0.0
C2052 C 0.08466 0.18337 0.58094 0.0
H2053 H 0.03648 0.27254 0.60747 0.0
H2054 H 0.04505 0.23967 0.592 0.0
H2055 H 0.09264 0.20819 0.62618 0.0
H2056 H 0.13043 0.14053 0.54654 0.0
H2057 H 0.11081 0.1505 0.57728 0.0
C2058 C 0.75883 0.14236 0.58226 0.0
C2059 C 0.77675 0.1302 0.58301 0.0
C2060 C 0.74188 0.13751 0.5945 0.0
C2061 C 0.72461 0.10582 0.63867 0.0
H2062 H 0.67498 0.09935 0.60629 0.0
C2063 C 0.66613 0.04234 0.65237 0.0
C2064 C 0.64586 0.0446 0.64522 0.0
C2065 C 0.68006 0.05857 0.65072 0.0
C2066 C 0.68842 0.10158 0.61587 0.0
H2067 H 0.79122 0.104 0.59796 0.0
H2068 H 0.76153 0.09541 0.61904 0.0
H2069 H 0.70407 0.11745 0.59177 0.0
H2070 H 0.62364 0.0664 0.63302 0.0
H2071 H 0.64789 0.09487 0.63054 0.0
H2072 H 0.70916 0.08912 0.66248 0.0
C2073 C 0.76069 0.10881 0.60915 0.0
C2074 C 0.70518 0.11194 0.60747 0.0
C2075 C 0.77762 0.11361 0.59687 0.0
C2076 C 0.63928 0.06403 0.63828 0.0
C2077 C 0.65318 0.08034 0.63682 0.0
C2078 C 0.70776 0.09556 0.64717 0.0
C2079 C 0.74252 0.12048 0.60779 0.0
C2080 C 0.72371 0.11341 0.61845 0.0
C2081 C 0.67396 0.07747 0.64206 0.0
C2082 C 0.68979 0.09254 0.6355 0.0
H2083 H 0.75767 0.15537 0.57191 0.0
H2084 H 0.7281 0.14684 0.59325 0.0
H2085 H 0.73863 0.10707 0.6476 0.0
H2086 H 0.6717 0.02763 0.65795 0.0
H2087 H 0.69596 0.0557 0.65479 0.0
C2088 C 0.84265 0.21433 0.48722 0.0
C2089 C 0.84965 0.19404 0.48432 0.0
C2090 C 0.84983 0.23017 0.47465 0.0
C2091 C 0.87207 0.23929 0.42379 0.0
H2092 H 0.88704 0.29236 0.4467 0.0
C2093 C 0.91077 0.30394 0.3766 0.0
C2094 C 0.90411 0.32417 0.38055 0.0
C2095 C 0.90376 0.28766 0.38872 0.0
C2096 C 0.88268 0.27769 0.44007 0.0
H2097 H 0.8701 0.17457 0.46628 0.0
H2098 H 0.88263 0.20232 0.44453 0.0
H2099 H 0.87607 0.26475 0.46959 0.0
H2100 H 0.88412 0.34303 0.39962 0.0
H2101 H 0.87172 0.31462 0.42048 0.0
H2102 H 0.8786 0.25228 0.39424 0.0
C2103 C 0.87141 0.20585 0.45632 0.0
C2104 C 0.87645 0.26191 0.45317 0.0
C2105 C 0.86429 0.19003 0.4689 0.0
C2106 C 0.88974 0.32768 0.39633 0.0
C2107 C 0.88271 0.31142 0.40835 0.0
C2108 C 0.87827 0.2551 0.41067 0.0
C2109 C 0.86409 0.22601 0.45897 0.0
C2110 C 0.87104 0.2426 0.44514 0.0
C2111 C 0.88994 0.29134 0.40493 0.0
C2112 C 0.88353 0.27446 0.4187 0.0
H2113 H 0.83141 0.21795 0.49894 0.0
H2114 H 0.84383 0.2456 0.4769 0.0
H2115 H 0.86773 0.22459 0.4172 0.0
H2116 H 0.92189 0.30075 0.36458 0.0
H2117 H 0.90966 0.27232 0.38584 0.0
C2118 C 0.66665 0.94874 0.40923 0.0
C2119 C 0.68147 0.95606 0.39522 0.0
C2120 C 0.67255 0.93727 0.42637 0.0
C2121 C 0.68952 0.89796 0.44504 0.0
H2122 H 0.73839 0.90608 0.47824 0.0
C2123 C 0.74859 0.83685 0.46529 0.0
C2124 C 0.75761 0.8369 0.48486 0.0
C2125 C 0.73331 0.8511 0.46046 0.0
C2126 C 0.7244 0.90377 0.46947 0.0
H2127 H 0.7142 0.95869 0.38935 0.0
H2128 H 0.72449 0.93854 0.41935 0.0
H2129 H 0.7242 0.93496 0.4586 0.0
H2130 H 0.75737 0.85094 0.51509 0.0
H2131 H 0.73094 0.87655 0.50636 0.0
H2132 H 0.69069 0.86639 0.45462 0.0
C2133 C 0.7083 0.94171 0.41697 0.0
C2134 C 0.71643 0.92022 0.45812 0.0
C2135 C 0.70241 0.95314 0.39971 0.0
C2136 C 0.75027 0.85047 0.50001 0.0
C2137 C 0.73532 0.86514 0.495 0.0
C2138 C 0.69766 0.88147 0.45615 0.0
C2139 C 0.69337 0.93302 0.42998 0.0
C2140 C 0.69935 0.91724 0.44525 0.0
C2141 C 0.72728 0.86598 0.47497 0.0
C2142 C 0.71557 0.88409 0.46786 0.0
H2143 H 0.65038 0.95103 0.40649 0.0
H2144 H 0.66077 0.93094 0.43632 0.0
H2145 H 0.67643 0.89519 0.43511 0.0
H2146 H 0.75431 0.82667 0.45336 0.0
H2147 H 0.72751 0.85163 0.44483 0.0
C2148 C 0.07477 0.67765 0.37036 0.0
C2149 C 0.06399 0.693 0.35947 0.0
C2150 C 0.09104 0.68295 0.38341 0.0
C2151 C 0.1274 0.72471 0.39554 0.0
H2152 H 0.11735 0.71158 0.45287 0.0
C2153 C 0.12276 0.77511 0.46793 0.0
C2154 C 0.13956 0.78791 0.46382 0.0
C2155 C 0.12209 0.75526 0.45975 0.0
C2156 C 0.12072 0.71505 0.43692 0.0
H2157 H 0.06231 0.72571 0.35299 0.0
H2158 H 0.09083 0.73491 0.37547 0.0
H2159 H 0.09896 0.69284 0.42595 0.0
H2160 H 0.16981 0.78969 0.45017 0.0
H2161 H 0.16887 0.75476 0.43599 0.0
H2162 H 0.14759 0.74815 0.40625 0.0
C2163 C 0.08673 0.7188 0.37395 0.0
C2164 C 0.11026 0.70426 0.42151 0.0
C2165 C 0.07028 0.71358 0.36123 0.0
C2166 C 0.15678 0.77989 0.45363 0.0
C2167 C 0.15614 0.75999 0.44541 0.0
C2168 C 0.13786 0.73544 0.41088 0.0
C2169 C 0.09706 0.7036 0.3854 0.0
C2170 C 0.11255 0.70997 0.40079 0.0
C2171 C 0.13813 0.74809 0.44707 0.0
C2172 C 0.13357 0.7317 0.43178 0.0
H2173 H 0.07016 0.66165 0.36937 0.0
H2174 H 0.0987 0.67099 0.39218 0.0
H2175 H 0.12965 0.72914 0.37962 0.0
H2176 H 0.10923 0.78119 0.47558 0.0
H2177 H 0.10791 0.74667 0.46132 0.0
C2178 C 0.17075 0.14855 0.38443 0.0
C2179 C 0.17418 0.16038 0.40224 0.0
C2180 C 0.18688 0.14418 0.37099 0.0
C2181 C 0.24196 0.13649 0.37585 0.0
H2182 H 0.23738 0.11978 0.31872 0.0
C2183 C 0.30516 0.08863 0.33751 0.0
C2184 C 0.29831 0.07112 0.32674 0.0
C2185 C 0.29141 0.10406 0.34324 0.0
C2186 C 0.23887 0.12441 0.33467 0.0
H2187 H 0.19655 0.17924 0.41834 0.0
H2188 H 0.2246 0.17197 0.39459 0.0
H2189 H 0.21058 0.14135 0.33404 0.0
H2190 H 0.27164 0.05646 0.31306 0.0
H2191 H 0.24746 0.08326 0.32355 0.0
H2192 H 0.26972 0.11899 0.37682 0.0
C2193 C 0.20959 0.16549 0.39143 0.0
C2194 C 0.22359 0.1368 0.34342 0.0
C2195 C 0.19348 0.16972 0.40501 0.0
C2196 C 0.27741 0.06967 0.3214 0.0
C2197 C 0.2636 0.08513 0.32723 0.0
C2198 C 0.25721 0.12422 0.36711 0.0
C2199 C 0.20674 0.15172 0.37497 0.0
C2200 C 0.22467 0.14245 0.36429 0.0
C2201 C 0.27044 0.10234 0.33845 0.0
C2202 C 0.25555 0.11756 0.34662 0.0
H2203 H 0.15602 0.14128 0.38165 0.0
H2204 H 0.1841 0.1335 0.3585 0.0
H2205 H 0.24314 0.14015 0.39207 0.0
H2206 H 0.32121 0.09044 0.34164 0.0
H2207 H 0.29717 0.11726 0.35164 0.0
C2208 C 0.4918 0.83254 0.73587 0.0
C2209 C 0.49321 0.84536 0.75333 0.0
C2210 C 0.50499 0.83547 0.71908 0.0
C2211 C 0.55591 0.84977 0.7076 0.0
H2212 H 0.54031 0.87956 0.65832 0.0
C2213 C 0.60731 0.90823 0.66911 0.0
C2214 C 0.60499 0.91292 0.64814 0.0
C2215 C 0.59573 0.89257 0.67807 0.0
C2216 C 0.54494 0.87063 0.67161 0.0
H2217 H 0.50895 0.87193 0.76626 0.0
H2218 H 0.5319 0.87672 0.73718 0.0
H2219 H 0.51367 0.8664 0.68132 0.0
H2220 H 0.59016 0.90353 0.61969 0.0
H2221 H 0.56995 0.87609 0.63542 0.0
H2222 H 0.58714 0.85484 0.69865 0.0
C2223 C 0.52065 0.86442 0.73661 0.0
C2224 C 0.52966 0.86319 0.68477 0.0
C2225 C 0.5074 0.8617 0.75319 0.0
C2226 C 0.59224 0.90038 0.63593 0.0
C2227 C 0.58055 0.88473 0.64494 0.0
C2228 C 0.57118 0.85702 0.6944 0.0
C2229 C 0.51983 0.85109 0.7197 0.0
C2230 C 0.53513 0.85357 0.70326 0.0
C2231 C 0.58154 0.88126 0.66626 0.0
C2232 C 0.56587 0.86849 0.67684 0.0
H2233 H 0.48102 0.81983 0.73546 0.0
H2234 H 0.50411 0.82516 0.706 0.0
H2235 H 0.56035 0.84235 0.72187 0.0
H2236 H 0.61713 0.91748 0.6789 0.0
H2237 H 0.59678 0.89046 0.69457 0.0
C2238 C 0.08103 0.64037 0.71335 0.0
C2239 C 0.08555 0.63783 0.69236 0.0
C2240 C 0.09458 0.63312 0.72831 0.0
C2241 C 0.12958 0.59046 0.7339 0.0
H2242 H 0.13392 0.61155 0.78956 0.0
C2243 C 0.1512 0.53817 0.80244 0.0
C2244 C 0.13727 0.53983 0.81893 0.0
C2245 C 0.1513 0.55292 0.78676 0.0
C2246 C 0.13298 0.60552 0.77403 0.0
H2247 H 0.1088 0.62751 0.67064 0.0
H2248 H 0.13241 0.61478 0.69687 0.0
H2249 H 0.12352 0.63463 0.76174 0.0
H2250 H 0.1127 0.55846 0.83194 0.0
H2251 H 0.11272 0.58381 0.80458 0.0
H2252 H 0.13779 0.5611 0.74634 0.0
C2253 C 0.11826 0.62218 0.70167 0.0
C2254 C 0.1271 0.61872 0.75814 0.0
C2255 C 0.10472 0.62951 0.68668 0.0
C2256 C 0.12361 0.55662 0.81948 0.0
C2257 C 0.1238 0.57135 0.80391 0.0
C2258 C 0.13546 0.57727 0.74979 0.0
C2259 C 0.11292 0.62317 0.72259 0.0
C2260 C 0.12439 0.61107 0.73811 0.0
C2261 C 0.13759 0.56965 0.78738 0.0
C2262 C 0.13624 0.58446 0.77014 0.0
H2263 H 0.06651 0.64693 0.71826 0.0
H2264 H 0.08993 0.63398 0.74429 0.0
H2265 H 0.12746 0.58404 0.71865 0.0
H2266 H 0.162 0.52548 0.8016 0.0
H2267 H 0.16207 0.55123 0.77416 0.0
C2268 C 0.4362 0.12718 0.80268 0.0
C2269 C 0.43065 0.12721 0.8236 0.0
C2270 C 0.42306 0.1189 0.78788 0.0
C2271 C 0.38159 0.08071 0.78292 0.0
H2272 H 0.38009 0.10108 0.72685 0.0
C2273 C 0.33578 0.04256 0.71531 0.0
C2274 C 0.34724 0.04015 0.69708 0.0
C2275 C 0.34382 0.05376 0.73191 0.0
C2276 C 0.38038 0.09522 0.74246 0.0
H2277 H 0.40627 0.11955 0.84512 0.0
H2278 H 0.38318 0.10543 0.81914 0.0
H2279 H 0.39687 0.12146 0.75349 0.0
H2280 H 0.37655 0.04698 0.68247 0.0
H2281 H 0.3903 0.06643 0.71121 0.0
H2282 H 0.36514 0.05437 0.77164 0.0
C2283 C 0.39791 0.11149 0.8143 0.0
C2284 C 0.39001 0.10686 0.75771 0.0
C2285 C 0.4111 0.11977 0.82916 0.0
C2286 C 0.36716 0.04856 0.69615 0.0
C2287 C 0.37504 0.05987 0.71258 0.0
C2288 C 0.37176 0.06914 0.76764 0.0
C2289 C 0.40396 0.11049 0.79355 0.0
C2290 C 0.39124 0.09951 0.77802 0.0
C2291 C 0.36333 0.06293 0.73045 0.0
C2292 C 0.37157 0.07605 0.74717 0.0
H2293 H 0.45112 0.13275 0.79779 0.0
H2294 H 0.42836 0.1182 0.77209 0.0
H2295 H 0.38243 0.07447 0.79835 0.0
H2296 H 0.32042 0.03626 0.71657 0.0
H2297 H 0.33453 0.05585 0.74559 0.0
C2298 C 0.8602 0.41649 0.80315 0.0
C2299 C 0.85373 0.43484 0.7936 0.0
C2300 C 0.87731 0.40574 0.79574 0.0
C2301 C 0.91161 0.40178 0.75025 0.0
H2302 H 0.95107 0.37963 0.78931 0.0
C2303 C 0.9908 0.38128 0.72346 0.0
C2304 C 0.99362 0.35982 0.72318 0.0
C2305 C 0.97611 0.39008 0.73632 0.0
C2306 C 0.9401 0.38574 0.77834 0.0
H2307 H 0.85996 0.45603 0.76851 0.0
H2308 H 0.88981 0.43763 0.75593 0.0
H2309 H 0.91883 0.39487 0.80183 0.0
H2310 H 0.98538 0.33107 0.738 0.0
H2311 H 0.95963 0.34666 0.76075 0.0
H2312 H 0.93312 0.39331 0.72688 0.0
C2313 C 0.8815 0.43123 0.76887 0.0
C2314 C 0.92161 0.39429 0.78541 0.0
C2315 C 0.86435 0.44184 0.77613 0.0
C2316 C 0.98352 0.34765 0.73794 0.0
C2317 C 0.96875 0.35653 0.7509 0.0
C2318 C 0.93011 0.39359 0.74329 0.0
C2319 C 0.88835 0.41318 0.77871 0.0
C2320 C 0.90728 0.40265 0.77141 0.0
C2321 C 0.96413 0.37759 0.74918 0.0
C2322 C 0.9446 0.38578 0.75725 0.0
H2323 H 0.85233 0.41065 0.81662 0.0
H2324 H 0.88197 0.3917 0.80346 0.0
H2325 H 0.90074 0.40754 0.739 0.0
H2326 H -0.00143 0.39103 0.71239 0.0
H2327 H 0.97288 0.40641 0.73497 0.0
C2328 C 0.62943 0.14864 0.21428 0.0
C2329 C 0.60812 0.14963 0.21734 0.0
C2330 C 0.63967 0.1297 0.21517 0.0
C2331 C 0.63129 0.07521 0.23201 0.0
H2332 H 0.68464 0.0674 0.20642 0.0
C2333 C 0.66999 0.00527 0.25313 0.0
C2334 C 0.68311 0.01272 0.26857 0.0
C2335 C 0.6657 0.01744 0.23597 0.0
C2336 C 0.66952 0.06926 0.21318 0.0
H2337 H 0.58059 0.13169 0.22275 0.0
H2338 H 0.59787 0.09881 0.2228 0.0
H2339 H 0.66499 0.09884 0.19942 0.0
H2340 H 0.70509 0.03635 0.27653 0.0
H2341 H 0.69756 0.05771 0.24664 0.0
H2342 H 0.63571 0.04572 0.24559 0.0
C2343 C 0.6072 0.11249 0.22109 0.0
C2344 C 0.65839 0.08741 0.20957 0.0
C2345 C 0.59717 0.13144 0.22109 0.0
C2346 C 0.69497 0.03032 0.26473 0.0
C2347 C 0.69062 0.04256 0.24757 0.0
C2348 C 0.64201 0.05695 0.23498 0.0
C2349 C 0.62865 0.11126 0.21829 0.0
C2350 C 0.63943 0.09097 0.21959 0.0
C2351 C 0.67432 0.03721 0.23443 0.0
C2352 C 0.66149 0.05404 0.22618 0.0
H2353 H 0.63811 0.1625 0.21104 0.0
H2354 H 0.65622 0.12965 0.21344 0.0
H2355 H 0.61716 0.07723 0.24054 0.0
H2356 H 0.66068 0.9917 0.25587 0.0
H2357 H 0.65321 0.01294 0.2259 0.0
C2358 C 0.92881 0.68422 0.29257 0.0
C2359 C 0.94949 0.68866 0.28804 0.0
C2360 C 0.91638 0.6743 0.27812 0.0
C2361 C 0.91439 0.65594 0.22373 0.0
H2362 H 0.88702 0.60862 0.24783 0.0
C2363 C 0.90014 0.58181 0.17892 0.0
C2364 C 0.8801 0.57365 0.17894 0.0
C2365 C 0.90548 0.59771 0.19226 0.0
C2366 C 0.8943 0.62194 0.24092 0.0
H2367 H 0.9727 0.68799 0.26406 0.0
H2368 H 0.9512 0.67057 0.23903 0.0
H2369 H 0.90128 0.63522 0.27019 0.0
H2370 H 0.85025 0.57523 0.19383 0.0
H2371 H 0.85993 0.60288 0.21768 0.0
H2372 H 0.90841 0.64191 0.19451 0.0
C2373 C 0.94446 0.6748 0.25367 0.0
C2374 C 0.90238 0.63726 0.25368 0.0
C2375 C 0.95685 0.68482 0.26808 0.0
C2376 C 0.86579 0.5812 0.19336 0.0
C2377 C 0.87128 0.59701 0.20697 0.0
C2378 C 0.90652 0.64052 0.21102 0.0
C2379 C 0.92439 0.66859 0.25886 0.0
C2380 C 0.91298 0.6542 0.24524 0.0
C2381 C 0.89103 0.6057 0.20615 0.0
C2382 C 0.89686 0.62315 0.21953 0.0
H2383 H 0.92257 0.68719 0.30775 0.0
H2384 H 0.90082 0.6702 0.28241 0.0
H2385 H 0.92212 0.66893 0.21672 0.0
H2386 H 0.91164 0.5764 0.16813 0.0
H2387 H 0.92094 0.60389 0.19162 0.0
C2388 C 0.48854 0.92743 0.17778 0.0
C2389 C 0.49729 0.90786 0.18104 0.0
C2390 C 0.47155 0.93381 0.18923 0.0
C2391 C 0.43976 0.92337 0.23486 0.0
H2392 H 0.39522 0.94262 0.19995 0.0
C2393 C 0.36193 0.94048 0.2703 0.0
C2394 C 0.3545 0.96028 0.26568 0.0
C2395 C 0.37692 0.93138 0.25793 0.0
C2396 C 0.40751 0.93733 0.2099 0.0
H2397 H 0.49648 0.8807 0.20053 0.0
H2398 H 0.46696 0.89201 0.22067 0.0
H2399 H 0.42856 0.9344 0.18477 0.0
H2400 H 0.35505 0.98504 0.24334 0.0
H2401 H 0.38133 0.96928 0.22182 0.0
H2402 H 0.41896 0.92671 0.26006 0.0
C2403 C 0.4731 0.90225 0.20904 0.0
C2404 C 0.42662 0.93275 0.20125 0.0
C2405 C 0.49009 0.89581 0.19753 0.0
C2406 C 0.36042 0.96971 0.24718 0.0
C2407 C 0.3756 0.96069 0.2349 0.0
C2408 C 0.42069 0.92807 0.24353 0.0
C2409 C 0.46309 0.92084 0.20428 0.0
C2410 C 0.44297 0.9259 0.21367 0.0
C2411 C 0.38486 0.94201 0.24087 0.0
C2412 C 0.40437 0.9352 0.23117 0.0
H2413 H 0.49388 0.93726 0.16542 0.0
H2414 H 0.46445 0.94848 0.18565 0.0
H2415 H 0.45212 0.91821 0.24479 0.0
H2416 H 0.35746 0.93282 0.28442 0.0
H2417 H 0.38331 0.91667 0.26256 0.0
C2418 C 0.13419 0.42243 0.22853 0.0
C2419 C 0.13976 0.44328 0.22982 0.0
C2420 C 0.11526 0.41577 0.23612 0.0
C2421 C 0.07063 0.43194 0.268 0.0
H2422 H 0.04125 0.39239 0.2342 0.0
C2423 C 0.98873 0.41311 0.28791 0.0
C2424 C 0.98587 0.39209 0.29199 0.0
C2425 C 0.00517 0.4196 0.27583 0.0
C2426 C 0.0493 0.40344 0.24373 0.0
H2427 H 0.13036 0.47336 0.24096 0.0
H2428 H 0.09729 0.46191 0.25385 0.0
H2429 H 0.07616 0.40258 0.22478 0.0
H2430 H -0.00368 0.36121 0.28499 0.0
H2431 H 0.0254 0.37255 0.26395 0.0
H2432 H 0.04385 0.43283 0.28691 0.0
C2433 C 0.10762 0.45052 0.24739 0.0
C2434 C 0.06936 0.40914 0.23851 0.0
C2435 C 0.12668 0.45711 0.24009 0.0
C2436 C -0.00182 0.3775 0.28188 0.0
C2437 C 0.01485 0.38401 0.26992 0.0
C2438 C 0.05061 0.42636 0.27311 0.0
C2439 C 0.10142 0.4299 0.24493 0.0
C2440 C 0.08028 0.42344 0.25064 0.0
C2441 C 0.01918 0.40515 0.26792 0.0
C2442 C 0.03974 0.41205 0.26106 0.0
H2443 H 0.14401 0.41148 0.22065 0.0
H2444 H 0.11122 0.39968 0.23448 0.0
H2445 H 0.07866 0.44264 0.27793 0.0
H2446 H 0.9793 0.42461 0.29552 0.0
H2447 H 0.0079 0.43597 0.27409 0.0
C2448 C 0.69634 0.64135 0.90173 0.0
C2449 C 0.67486 0.64235 0.90314 0.0
C2450 C 0.70562 0.6345 0.88361 0.0
C2451 C 0.69256 0.59973 0.84115 0.0
H2452 H 0.75016 0.60834 0.82886 0.0
C2453 C 0.76909 0.55753 0.80407 0.0
C2454 C 0.76551 0.53815 0.81285 0.0
C2455 C 0.75461 0.57326 0.80622 0.0
C2456 C 0.73391 0.60593 0.83151 0.0
H2457 H 0.64629 0.63944 0.88619 0.0
H2458 H 0.66252 0.62827 0.85428 0.0
H2459 H 0.73169 0.63379 0.84891 0.0
H2460 H 0.74392 0.5193 0.82963 0.0
H2461 H 0.71886 0.54681 0.8342 0.0
H2462 H 0.69482 0.57179 0.82388 0.0
C2463 C 0.6722 0.63192 0.86733 0.0
C2464 C 0.72339 0.62045 0.84335 0.0
C2465 C 0.66291 0.63839 0.88557 0.0
C2466 C 0.74675 0.53414 0.82254 0.0
C2467 C 0.7324 0.54995 0.82504 0.0
C2468 C 0.70299 0.58538 0.82903 0.0
C2469 C 0.69358 0.62886 0.86647 0.0
C2470 C 0.70295 0.6169 0.84934 0.0
C2471 C 0.73658 0.56997 0.81771 0.0
C2472 C 0.72411 0.58769 0.82512 0.0
H2473 H 0.70588 0.64431 0.91508 0.0
H2474 H 0.72211 0.63217 0.88367 0.0
H2475 H 0.67682 0.59639 0.84538 0.0
H2476 H 0.7836 0.56082 0.79656 0.0
H2477 H 0.75813 0.58831 0.79998 0.0
C2478 C 0.75196 0.37509 0.99283 0.0
C2479 C 0.74447 0.35836 0.0042 0.0
C2480 C 0.76255 0.39097 0.00268 0.0
C2481 C 0.78209 0.40874 0.05401 0.0
H2482 H 0.76199 0.46161 0.0345 0.0
C2483 C 0.78921 0.48036 0.10394 0.0
C2484 C 0.8023 0.49479 0.09469 0.0
C2485 C 0.77985 0.46515 0.09196 0.0
C2486 C 0.76763 0.44692 0.0401 0.0
H2487 H 0.74352 0.344 0.03418 0.0
H2488 H 0.7615 0.37177 0.05158 0.0
H2489 H 0.75475 0.43052 0.01476 0.0
H2490 H 0.81429 0.50617 0.06578 0.0
H2491 H 0.79707 0.48023 0.04471 0.0
H2492 H 0.79429 0.4253 0.07977 0.0
C2493 C 0.75977 0.37267 0.03504 0.0
C2494 C 0.76381 0.42911 0.02866 0.0
C2495 C 0.74959 0.35658 0.02506 0.0
C2496 C 0.80386 0.49544 0.07314 0.0
C2497 C 0.79421 0.48047 0.06114 0.0
C2498 C 0.78555 0.42651 0.06561 0.0
C2499 C 0.76525 0.39063 0.02417 0.0
C2500 C 0.77098 0.40974 0.03548 0.0
C2501 C 0.78323 0.46448 0.07061 0.0
C2502 C 0.77826 0.44571 0.0588 0.0
H2503 H 0.74793 0.37682 0.97673 0.0
H2504 H 0.7672 0.40421 0.99368 0.0
H2505 H 0.78814 0.39424 0.05961 0.0
H2506 H 0.78821 0.47931 0.12056 0.0
H2507 H 0.77128 0.45302 0.09953 0.0
C2508 C 0.56113 0.80015 0.0914 0.0
C2509 C 0.56092 0.80615 0.11214 0.0
C2510 C 0.56919 0.78107 0.08576 0.0
C2511 C 0.57994 0.73449 0.0822 0.0
H2512 H 0.63928 0.73483 0.0889 0.0
C2513 C 0.63195 0.67202 0.04713 0.0
C2514 C 0.64485 0.68066 0.03204 0.0
C2515 C 0.62236 0.68457 0.06168 0.0
C2516 C 0.6227 0.73438 0.08727 0.0
H2517 H 0.56828 0.79691 0.14334 0.0
H2518 H 0.58329 0.76366 0.13325 0.0
H2519 H 0.61831 0.7612 0.10604 0.0
H2520 H 0.65893 0.7089 0.0212 0.0
H2521 H 0.6425 0.73081 0.04711 0.0
H2522 H 0.58434 0.70809 0.06292 0.0
C2523 C 0.57674 0.77358 0.12155 0.0
C2524 C 0.61075 0.74931 0.09711 0.0
C2525 C 0.56813 0.79247 0.12727 0.0
C2526 C 0.64902 0.70187 0.03261 0.0
C2527 C 0.63974 0.71435 0.04746 0.0
C2528 C 0.59183 0.7193 0.07274 0.0
C2529 C 0.57761 0.76797 0.10072 0.0
C2530 C 0.58939 0.74981 0.09408 0.0
C2531 C 0.62587 0.70586 0.06167 0.0
C2532 C 0.61334 0.71956 0.07468 0.0
H2533 H 0.55565 0.8105 0.07951 0.0
H2534 H 0.56993 0.77704 0.06959 0.0
H2535 H 0.56348 0.73479 0.07958 0.0
H2536 H 0.62832 0.65574 0.04701 0.0
H2537 H 0.61166 0.67777 0.0725 0.0
C2538 C 0.27137 0.65742 0.07703 0.0
C2539 C 0.28996 0.65768 0.08808 0.0
C2540 C 0.25382 0.64859 0.08567 0.0
C2541 C 0.23266 0.6094 0.09986 0.0
H2542 H 0.21312 0.61176 0.1562 0.0
C2543 C 0.2013 0.53954 0.14422 0.0
C2544 C 0.18267 0.54231 0.15476 0.0
C2545 C 0.2111 0.55634 0.13507 0.0
C2546 C 0.21827 0.6111 0.14036 0.0
H2547 H 0.3041 0.65142 0.11768 0.0
H2548 H 0.27337 0.63627 0.13281 0.0
H2549 H 0.23504 0.63944 0.1429 0.0
H2550 H 0.15975 0.5648 0.1642 0.0
H2551 H 0.17721 0.59417 0.14858 0.0
H2552 H 0.21689 0.58053 0.09765 0.0
C2553 C 0.27242 0.64264 0.11743 0.0
C2554 C 0.23076 0.62687 0.13279 0.0
C2555 C 0.29004 0.65121 0.10872 0.0
C2556 C 0.17403 0.56216 0.15601 0.0
C2557 C 0.18401 0.57899 0.14719 0.0
C2558 C 0.22048 0.59351 0.10751 0.0
C2559 C 0.25453 0.64024 0.10558 0.0
C2560 C 0.23837 0.62593 0.1126 0.0
C2561 C 0.2026 0.5762 0.13667 0.0
C2562 C 0.21357 0.59403 0.12794 0.0
H2563 H 0.27077 0.66234 0.06111 0.0
H2564 H 0.2401 0.64706 0.07632 0.0
H2565 H 0.23858 0.60815 0.08432 0.0
H2566 H 0.20827 0.52442 0.14302 0.0
H2567 H 0.22556 0.55391 0.12716 0.0
C2568 C 0.42258 0.28778 0.06283 0.0
C2569 C 0.40166 0.28502 0.05839 0.0
C2570 C 0.43354 0.27263 0.07324 0.0
C2571 C 0.42452 0.234 0.11228 0.0
H2572 H 0.48333 0.22602 0.10621 0.0
C2573 C 0.47846 0.18948 0.16916 0.0
C2574 C 0.49667 0.20011 0.17413 0.0
C2575 C 0.46497 0.19735 0.15438 0.0
C2576 C 0.4669 0.22811 0.10805 0.0
H2577 H 0.37604 0.26379 0.05995 0.0
H2578 H 0.39534 0.23703 0.07848 0.0
H2579 H 0.46372 0.24146 0.07816 0.0
H2580 H 0.51426 0.22794 0.16854 0.0
H2581 H 0.49068 0.2416 0.14276 0.0
H2582 H 0.42794 0.22092 0.14243 0.0
C2583 C 0.40318 0.25101 0.0739 0.0
C2584 C 0.45567 0.23684 0.092 0.0
C2585 C 0.3922 0.26619 0.06319 0.0
C2586 C 0.50036 0.21941 0.16513 0.0
C2587 C 0.48702 0.22712 0.15019 0.0
C2588 C 0.43576 0.22505 0.1283 0.0
C2589 C 0.42378 0.25441 0.07959 0.0
C2590 C 0.43452 0.24066 0.09427 0.0
C2591 C 0.46962 0.21581 0.14421 0.0
C2592 C 0.45715 0.22281 0.12657 0.0
H2593 H 0.43023 0.30215 0.05917 0.0
H2594 H 0.4493 0.27588 0.07755 0.0
H2595 H 0.40827 0.23691 0.11456 0.0
H2596 H 0.47517 0.17459 0.17591 0.0
H2597 H 0.45155 0.18846 0.15009 0.0
C2598 C 0.20227 0.43879 0.89644 0.0
C2599 C 0.18105 0.43581 0.89919 0.0
C2600 C 0.2164 0.42611 0.90639 0.0
C2601 C 0.22274 0.39284 0.95125 0.0
H2602 H 0.27258 0.37693 0.92251 0.0
C2603 C 0.29192 0.3505 0.98978 0.0
C2604 C 0.31053 0.36109 0.98669 0.0
C2605 C 0.27436 0.35595 0.97855 0.0
C2606 C 0.25866 0.38114 0.93067 0.0
H2607 H 0.15806 0.41711 0.91464 0.0
H2608 H 0.18291 0.39491 0.93205 0.0
H2609 H 0.24464 0.39328 0.90351 0.0
H2610 H 0.32536 0.38548 0.96928 0.0
H2611 H 0.29493 0.39475 0.94976 0.0
H2612 H 0.23717 0.38116 0.97855 0.0
C2613 C 0.1885 0.40716 0.9222 0.0
C2614 C 0.24274 0.39056 0.91985 0.0
C2615 C 0.1743 0.41985 0.9122 0.0
C2616 C 0.31127 0.37707 0.97213 0.0
C2617 C 0.2939 0.38227 0.96078 0.0
C2618 C 0.23869 0.3833 0.96209 0.0
C2619 C 0.20968 0.41013 0.91931 0.0
C2620 C 0.22495 0.39719 0.93017 0.0
C2621 C 0.27532 0.37176 0.96385 0.0
C2622 C 0.25704 0.37808 0.95198 0.0
H2623 H 0.20804 0.45095 0.88661 0.0
H2624 H 0.23265 0.42905 0.9042 0.0
H2625 H 0.20922 0.39785 0.9596 0.0
H2626 H 0.2909 0.33815 0.00094 0.0
H2627 H 0.26013 0.3477 0.98118 0.0
C2628 C 0.66695 0.2455 0.95298 0.0
C2629 C 0.65483 0.26115 0.96174 0.0
C2630 C 0.65769 0.22782 0.94492 0.0
C2631 C 0.62953 0.20528 0.91391 0.0
H2632 H 0.58686 0.1743 0.94178 0.0
C2633 C 0.56073 0.1654 0.87416 0.0
C2634 C 0.55425 0.1463 0.88204 0.0
C2635 C 0.57712 0.17592 0.8833 0.0
C2636 C 0.59895 0.18259 0.93386 0.0
H2637 H 0.62387 0.27006 0.97032 0.0
H2638 H 0.60779 0.23887 0.95686 0.0
H2639 H 0.60781 0.19872 0.96124 0.0
H2640 H 0.56098 0.12264 0.90478 0.0
H2641 H 0.58929 0.14115 0.92071 0.0
H2642 H 0.61989 0.18993 0.88629 0.0
C2643 C 0.62436 0.24037 0.95598 0.0
C2644 C 0.61084 0.19659 0.94498 0.0
C2645 C 0.63353 0.25821 0.96362 0.0
C2646 C 0.56539 0.13738 0.89836 0.0
C2647 C 0.5816 0.14798 0.90758 0.0
C2648 C 0.6174 0.19149 0.9027 0.0
C2649 C 0.63627 0.22535 0.94598 0.0
C2650 C 0.62595 0.20832 0.93502 0.0
C2651 C 0.58719 0.1676 0.90054 0.0
C2652 C 0.60178 0.1803 0.91253 0.0
H2653 H 0.68339 0.24749 0.95118 0.0
H2654 H 0.66716 0.21637 0.9373 0.0
H2655 H 0.64097 0.21433 0.90587 0.0
H2656 H 0.55257 0.17267 0.86157 0.0
H2657 H 0.5811 0.1911 0.87764 0.0
C2658 C 0.40212 0.77136 0.85566 0.0
C2659 C 0.4202 0.77013 0.84396 0.0
C2660 C 0.39591 0.75481 0.86769 0.0
C2661 C 0.41773 0.71409 0.89791 0.0
H2662 H 0.36027 0.70112 0.90729 0.0
C2663 C 0.38783 0.66696 0.96803 0.0
C2664 C 0.37119 0.67635 0.97827 0.0
C2665 C 0.39456 0.67446 0.94903 0.0
C2666 C 0.37639 0.7045 0.90477 0.0
H2667 H 0.44559 0.75047 0.8349 0.0
H2668 H 0.43485 0.72134 0.85654 0.0
H2669 H 0.3702 0.72008 0.87644 0.0
H2670 H 0.34895 0.70131 0.97676 0.0
H2671 H 0.36077 0.71435 0.94378 0.0
H2672 H 0.42374 0.69934 0.92681 0.0
C2673 C 0.42546 0.73514 0.85615 0.0
C2674 C 0.38207 0.71523 0.88711 0.0
C2675 C 0.43153 0.75169 0.84376 0.0
C2676 C 0.36178 0.69367 0.96933 0.0
C2677 C 0.36839 0.70102 0.95032 0.0
C2678 C 0.41204 0.70328 0.91561 0.0
C2679 C 0.40777 0.73674 0.86848 0.0
C2680 C 0.40265 0.72092 0.88399 0.0
C2681 C 0.38463 0.69131 0.93986 0.0
C2682 C 0.39121 0.69922 0.91959 0.0
H2683 H 0.39308 0.7854 0.85598 0.0
H2684 H 0.38238 0.75661 0.87725 0.0
H2685 H 0.43369 0.71841 0.89594 0.0
H2686 H 0.39546 0.65362 0.97452 0.0
H2687 H 0.40719 0.66679 0.9413 0.0
loop_
_geom_bond_atom_site_label_1
_geom_bond_atom_site_label_2
_geom_bond_distance
_geom_bond_site_symmetry_2
_ccdc_geom_bond_type
Sc0 O3 2.025 . S
Sc0 O10 2.105 1_455 S
Sc0 O13 2.105 . S
Sc0 O16 2.105 1_455 S
Sc0 O19 2.105 . S
Sc1 O3 2.025 . S
Sc1 O11 2.105 . S
Sc1 O15 2.105 . S
Sc1 O17 2.105 . S
Sc1 O21 2.105 . S
Sc2 O3 2.025 1_655 S
Sc2 O12 2.105 . S
Sc2 O14 2.105 . S
Sc2 O18 2.105 . S
Sc2 O20 2.105 . S
O3 Sc0 2.025 . S
O3 Sc1 2.025 . S
O3 Sc2 2.025 1_455 S
C4 O10 1.268 . S
C4 O20 1.268 . S
C5 O11 1.268 . S
C5 O19 1.268 . S
C6 O12 1.268 1_455 S
C6 O21 1.268 . S
C7 O13 1.268 . S
C7 O17 1.268 . S
C8 O14 1.268 . S
C8 O16 1.268 . S
C9 O15 1.268 . S
C9 O18 1.268 1_455 S
O10 Sc0 2.105 1_655 S
O10 C4 1.268 . S
O11 Sc1 2.105 . S
O11 C5 1.268 . S
O12 Sc2 2.105 . S
O12 C6 1.268 1_655 S
O13 Sc0 2.105 . S
O13 C7 1.268 . S
O14 Sc2 2.105 . S
O14 C8 1.268 . S
O15 Sc1 2.105 . S
O15 C9 1.268 . S
O16 Sc0 2.105 1_655 S
O16 C8 1.268 . S
O17 Sc1 2.105 . S
O17 C7 1.268 . S
O18 Sc2 2.105 . S
O18 C9 1.268 1_655 S
O19 Sc0 2.105 . S
O19 C5 1.268 . S
O20 Sc2 2.105 . S
O20 C4 1.268 . S
O21 Sc1 2.105 . S
O21 C6 1.268 . S
Sc22 O25 2.025 . S
Sc22 O32 2.105 . S
Sc22 O35 2.105 1_545 S
Sc22 O38 2.105 . S
Sc22 O41 2.105 1_545 S
Sc23 O25 2.025 1_565 S
Sc23 O33 2.105 . S
Sc23 O37 2.105 . S
Sc23 O39 2.105 . S
Sc23 O43 2.105 . S
Sc24 O25 2.025 . S
Sc24 O34 2.105 . S
Sc24 O36 2.105 . S
Sc24 O40 2.105 . S
Sc24 O42 2.105 . S
O25 Sc22 2.025 . S
O25 Sc23 2.025 1_545 S
O25 Sc24 2.025 . S
C26 O32 1.268 . S
C26 O42 1.268 . S
C27 O33 1.268 . S
C27 O41 1.268 . S
C28 O34 1.268 . S
C28 O43 1.268 1_545 S
C29 O35 1.268 . S
C29 O39 1.268 . S
C30 O36 1.268 . S
C30 O38 1.268 . S
C31 O37 1.268 1_545 S
C31 O40 1.268 . S
O32 Sc22 2.105 . S
O32 C26 1.268 . S
O33 Sc23 2.105 . S
O33 C27 1.268 . S
O34 Sc24 2.105 . S
O34 C28 1.268 . S
O35 Sc22 2.105 1_565 S
O35 C29 1.268 . S
O36 Sc24 2.105 . S
O36 C30 1.268 . S
O37 Sc23 2.105 . S
O37 C31 1.268 1_565 S
O38 Sc22 2.105 . S
O38 C30 1.268 . S
O39 Sc23 2.105 . S
O39 C29 1.268 . S
O40 Sc24 2.105 . S
O40 C31 1.268 . S
O41 Sc22 2.105 1_565 S
O41 C27 1.268 . S
O42 Sc24 2.105 . S
O42 C26 1.268 . S
O43 Sc23 2.105 . S
O43 C28 1.268 1_565 S
Sc44 O47 2.025 . S
Sc44 O54 2.105 . S
Sc44 O57 2.105 1_455 S
Sc44 O60 2.105 . S
Sc44 O63 2.105 1_455 S
Sc45 O47 2.025 1_655 S
Sc45 O55 2.105 . S
Sc45 O59 2.105 . S
Sc45 O61 2.105 . S
Sc45 O65 2.105 . S
Sc46 O47 2.025 . S
Sc46 O56 2.105 . S
Sc46 O58 2.105 . S
Sc46 O62 2.105 . S
Sc46 O64 2.105 . S
O47 Sc44 2.025 . S
O47 Sc45 2.025 1_455 S
O47 Sc46 2.025 . S
C48 O54 1.268 . S
C48 O64 1.268 . S
C49 O55 1.268 . S
C49 O63 1.268 . S
C50 O56 1.268 . S
C50 O65 1.268 1_455 S
C51 O57 1.268 . S
C51 O61 1.268 . S
C52 O58 1.268 . S
C52 O60 1.268 . S
C53 O59 1.268 1_455 S
C53 O62 1.268 . S
O54 Sc44 2.105 . S
O54 C48 1.268 . S
O55 Sc45 2.105 . S
O55 C49 1.268 . S
O56 Sc46 2.105 . S
O56 C50 1.268 . S
O57 Sc44 2.105 1_655 S
O57 C51 1.268 . S
O58 Sc46 2.105 . S
O58 C52 1.268 . S
O59 Sc45 2.105 . S
O59 C53 1.268 1_655 S
O60 Sc44 2.105 . S
O60 C52 1.268 . S
O61 Sc45 2.105 . S
O61 C51 1.268 . S
O62 Sc46 2.105 . S
O62 C53 1.268 . S
O63 Sc44 2.105 1_655 S
O63 C49 1.268 . S
O64 Sc46 2.105 . S
O64 C48 1.268 . S
O65 Sc45 2.105 . S
O65 C50 1.268 1_655 S
Sc66 O69 2.025 1_565 S
Sc66 O76 2.105 . S
Sc66 O79 2.105 . S
Sc66 O82 2.105 . S
Sc66 O85 2.105 . S
Sc67 O69 2.025 . S
Sc67 O77 2.105 . S
Sc67 O81 2.105 . S
Sc67 O83 2.105 . S
Sc67 O87 2.105 . S
Sc68 O69 2.025 . S
Sc68 O78 2.105 . S
Sc68 O80 2.105 1_545 S
Sc68 O84 2.105 . S
Sc68 O86 2.105 1_545 S
O69 Sc66 2.025 1_545 S
O69 Sc67 2.025 . S
O69 Sc68 2.025 . S
C70 O76 1.268 . S
C70 O86 1.268 . S
C71 O77 1.268 . S
C71 O85 1.268 1_545 S
C72 O78 1.268 . S
C72 O87 1.268 . S
C73 O79 1.268 1_545 S
C73 O83 1.268 . S
C74 O80 1.268 . S
C74 O82 1.268 . S
C75 O81 1.268 . S
C75 O84 1.268 . S
O76 Sc66 2.105 . S
O76 C70 1.268 . S
O77 Sc67 2.105 . S
O77 C71 1.268 . S
O78 Sc68 2.105 . S
O78 C72 1.268 . S
O79 Sc66 2.105 . S
O79 C73 1.268 1_565 S
O80 Sc68 2.105 1_565 S
O80 C74 1.268 . S
O81 Sc67 2.105 . S
O81 C75 1.268 . S
O82 Sc66 2.105 . S
O82 C74 1.268 . S
O83 Sc67 2.105 . S
O83 C73 1.268 . S
O84 Sc68 2.105 . S
O84 C75 1.268 . S
O85 Sc66 2.105 . S
O85 C71 1.268 1_565 S
O86 Sc68 2.105 1_565 S
O86 C70 1.268 . S
O87 Sc67 2.105 . S
O87 C72 1.268 . S
Sc88 O91 2.025 . S
Sc88 O98 2.105 . S
Sc88 O101 2.105 . S
Sc88 O104 2.105 . S
Sc88 O107 2.105 . S
Sc89 O91 2.025 1_655 S
Sc89 O99 2.105 . S
Sc89 O103 2.105 . S
Sc89 O105 2.105 . S
Sc89 O109 2.105 . S
Sc90 O91 2.025 . S
Sc90 O100 2.105 1_455 S
Sc90 O102 2.105 . S
Sc90 O106 2.105 1_455 S
Sc90 O108 2.105 . S
O91 Sc88 2.025 . S
O91 Sc89 2.025 1_455 S
O91 Sc90 2.025 . S
C92 O98 1.268 . S
C92 O108 1.268 . S
C93 O99 1.268 1_455 S
C93 O107 1.268 . S
C94 O100 1.268 . S
C94 O109 1.268 . S
C95 O101 1.268 . S
C95 O105 1.268 1_455 S
C96 O102 1.268 . S
C96 O104 1.268 . S
C97 O103 1.268 . S
C97 O106 1.268 . S
O98 Sc88 2.105 . S
O98 C92 1.268 . S
O99 Sc89 2.105 . S
O99 C93 1.268 1_655 S
O100 Sc90 2.105 1_655 S
O100 C94 1.268 . S
O101 Sc88 2.105 . S
O101 C95 1.268 . S
O102 Sc90 2.105 . S
O102 C96 1.268 . S
O103 Sc89 2.105 . S
O103 C97 1.268 . S
O104 Sc88 2.105 . S
O104 C96 1.268 . S
O105 Sc89 2.105 . S
O105 C95 1.268 1_655 S
O106 Sc90 2.105 1_655 S
O106 C97 1.268 . S
O107 Sc88 2.105 . S
O107 C93 1.268 . S
O108 Sc90 2.105 . S
O108 C92 1.268 . S
O109 Sc89 2.105 . S
O109 C94 1.268 . S
Sc110 O113 2.025 1_565 S
Sc110 O120 2.105 . S
Sc110 O123 2.105 . S
Sc110 O126 2.105 . S
Sc110 O129 2.105 . S
Sc111 O113 2.025 . S
Sc111 O121 2.105 . S
Sc111 O125 2.105 . S
Sc111 O127 2.105 . S
Sc111 O131 2.105 . S
Sc112 O113 2.025 . S
Sc112 O122 2.105 . S
Sc112 O124 2.105 1_545 S
Sc112 O128 2.105 . S
Sc112 O130 2.105 1_545 S
O113 Sc110 2.025 1_545 S
O113 Sc111 2.025 . S
O113 Sc112 2.025 . S
C114 O120 1.268 . S
C114 O130 1.268 . S
C115 O121 1.268 . S
C115 O129 1.268 1_545 S
C116 O122 1.268 . S
C116 O131 1.268 . S
C117 O123 1.268 1_545 S
C117 O127 1.268 . S
C118 O124 1.268 . S
C118 O126 1.268 . S
C119 O125 1.268 . S
C119 O128 1.268 . S
O120 Sc110 2.105 . S
O120 C114 1.268 . S
O121 Sc111 2.105 . S
O121 C115 1.268 . S
O122 Sc112 2.105 . S
O122 C116 1.268 . S
O123 Sc110 2.105 . S
O123 C117 1.268 1_565 S
O124 Sc112 2.105 1_565 S
O124 C118 1.268 . S
O125 Sc111 2.105 . S
O125 C119 1.268 . S
O126 Sc110 2.105 . S
O126 C118 1.268 . S
O127 Sc111 2.105 . S
O127 C117 1.268 . S
O128 Sc112 2.105 . S
O128 C119 1.268 . S
O129 Sc110 2.105 . S
O129 C115 1.268 1_565 S
O130 Sc112 2.105 1_565 S
O130 C114 1.268 . S
O131 Sc111 2.105 . S
O131 C116 1.268 . S
Sc132 O135 2.025 . S
Sc132 O142 2.105 1_455 S
Sc132 O145 2.105 . S
Sc132 O148 2.105 1_455 S
Sc132 O151 2.105 . S
Sc133 O135 2.025 . S
Sc133 O143 2.105 . S
Sc133 O147 2.105 . S
Sc133 O149 2.105 . S
Sc133 O153 2.105 . S
Sc134 O135 2.025 1_655 S
Sc134 O144 2.105 . S
Sc134 O146 2.105 . S
Sc134 O150 2.105 . S
Sc134 O152 2.105 . S
O135 Sc132 2.025 . S
O135 Sc133 2.025 . S
O135 Sc134 2.025 1_455 S
C136 O142 1.268 . S
C136 O152 1.268 . S
C137 O143 1.268 . S
C137 O151 1.268 . S
C138 O144 1.268 1_455 S
C138 O153 1.268 . S
C139 O145 1.268 . S
C139 O149 1.268 . S
C140 O146 1.268 . S
C140 O148 1.268 . S
C141 O147 1.268 . S
C141 O150 1.268 1_455 S
O142 Sc132 2.105 1_655 S
O142 C136 1.268 . S
O143 Sc133 2.105 . S
O143 C137 1.268 . S
O144 Sc134 2.105 . S
O144 C138 1.268 1_655 S
O145 Sc132 2.105 . S
O145 C139 1.268 . S
O146 Sc134 2.105 . S
O146 C140 1.268 . S
O147 Sc133 2.105 . S
O147 C141 1.268 . S
O148 Sc132 2.105 1_655 S
O148 C140 1.268 . S
O149 Sc133 2.105 . S
O149 C139 1.268 . S
O150 Sc134 2.105 . S
O150 C141 1.268 1_655 S
O151 Sc132 2.105 . S
O151 C137 1.268 . S
O152 Sc134 2.105 . S
O152 C136 1.268 . S
O153 Sc133 2.105 . S
O153 C138 1.268 . S
Sc154 O157 2.025 . S
Sc154 O164 2.105 . S
Sc154 O167 2.105 . S
Sc154 O170 2.105 . S
Sc154 O173 2.105 . S
Sc155 O157 2.025 1_565 S
Sc155 O165 2.105 . S
Sc155 O169 2.105 . S
Sc155 O171 2.105 . S
Sc155 O175 2.105 . S
Sc156 O157 2.025 . S
Sc156 O166 2.105 1_545 S
Sc156 O168 2.105 . S
Sc156 O172 2.105 1_545 S
Sc156 O174 2.105 . S
O157 Sc154 2.025 . S
O157 Sc155 2.025 1_545 S
O157 Sc156 2.025 . S
C158 O164 1.268 . S
C158 O174 1.268 . S
C159 O165 1.268 1_545 S
C159 O173 1.268 . S
C160 O166 1.268 . S
C160 O175 1.268 . S
C161 O167 1.268 . S
C161 O171 1.268 1_545 S
C162 O168 1.268 . S
C162 O170 1.268 . S
C163 O169 1.268 . S
C163 O172 1.268 . S
O164 Sc154 2.105 . S
O164 C158 1.268 . S
O165 Sc155 2.105 . S
O165 C159 1.268 1_565 S
O166 Sc156 2.105 1_565 S
O166 C160 1.268 . S
O167 Sc154 2.105 . S
O167 C161 1.268 . S
O168 Sc156 2.105 . S
O168 C162 1.268 . S
O169 Sc155 2.105 . S
O169 C163 1.268 . S
O170 Sc154 2.105 . S
O170 C162 1.268 . S
O171 Sc155 2.105 . S
O171 C161 1.268 1_565 S
O172 Sc156 2.105 1_565 S
O172 C163 1.268 . S
O173 Sc154 2.105 . S
O173 C159 1.268 . S
O174 Sc156 2.105 . S
O174 C158 1.268 . S
O175 Sc155 2.105 . S
O175 C160 1.268 . S
Sc176 O179 2.025 1_556 S
Sc176 O186 2.105 . S
Sc176 O189 2.105 . S
Sc176 O192 2.105 . S
Sc176 O195 2.105 . S
Sc177 O179 2.025 . S
Sc177 O187 2.105 . S
Sc177 O191 2.105 . S
Sc177 O193 2.105 . S
Sc177 O197 2.105 . S
Sc178 O179 2.025 . S
Sc178 O188 2.105 . S
Sc178 O190 2.105 1_554 S
Sc178 O194 2.105 . S
Sc178 O196 2.105 1_554 S
O179 Sc176 2.025 1_554 S
O179 Sc177 2.025 . S
O179 Sc178 2.025 . S
C180 O186 1.268 . S
C180 O196 1.268 . S
C181 O187 1.268 . S
C181 O195 1.268 1_554 S
C182 O188 1.268 . S
C182 O197 1.268 . S
C183 O189 1.268 1_554 S
C183 O193 1.268 . S
C184 O190 1.268 . S
C184 O192 1.268 . S
C185 O191 1.268 . S
C185 O194 1.268 . S
O186 Sc176 2.105 . S
O186 C180 1.268 . S
O187 Sc177 2.105 . S
O187 C181 1.268 . S
O188 Sc178 2.105 . S
O188 C182 1.268 . S
O189 Sc176 2.105 . S
O189 C183 1.268 1_556 S
O190 Sc178 2.105 1_556 S
O190 C184 1.268 . S
O191 Sc177 2.105 . S
O191 C185 1.268 . S
O192 Sc176 2.105 . S
O192 C184 1.268 . S
O193 Sc177 2.105 . S
O193 C183 1.268 . S
O194 Sc178 2.105 . S
O194 C185 1.268 . S
O195 Sc176 2.105 . S
O195 C181 1.268 1_556 S
O196 Sc178 2.105 1_556 S
O196 C180 1.268 . S
O197 Sc177 2.105 . S
O197 C182 1.268 . S
Sc198 O201 2.025 . S
Sc198 O208 2.105 . S
Sc198 O211 2.105 1_554 S
Sc198 O214 2.105 . S
Sc198 O217 2.105 1_554 S
Sc199 O201 2.025 1_556 S
Sc199 O209 2.105 . S
Sc199 O213 2.105 . S
Sc199 O215 2.105 . S
Sc199 O219 2.105 . S
Sc200 O201 2.025 . S
Sc200 O210 2.105 . S
Sc200 O212 2.105 . S
Sc200 O216 2.105 . S
Sc200 O218 2.105 . S
O201 Sc198 2.025 . S
O201 Sc199 2.025 1_554 S
O201 Sc200 2.025 . S
C202 O208 1.268 . S
C202 O218 1.268 . S
C203 O209 1.268 . S
C203 O217 1.268 . S
C204 O210 1.268 . S
C204 O219 1.268 1_554 S
C205 O211 1.268 . S
C205 O215 1.268 . S
C206 O212 1.268 . S
C206 O214 1.268 . S
C207 O213 1.268 1_554 S
C207 O216 1.268 . S
O208 Sc198 2.105 . S
O208 C202 1.268 . S
O209 Sc199 2.105 . S
O209 C203 1.268 . S
O210 Sc200 2.105 . S
O210 C204 1.268 . S
O211 Sc198 2.105 1_556 S
O211 C205 1.268 . S
O212 Sc200 2.105 . S
O212 C206 1.268 . S
O213 Sc199 2.105 . S
O213 C207 1.268 1_556 S
O214 Sc198 2.105 . S
O214 C206 1.268 . S
O215 Sc199 2.105 . S
O215 C205 1.268 . S
O216 Sc200 2.105 . S
O216 C207 1.268 . S
O217 Sc198 2.105 1_556 S
O217 C203 1.268 . S
O218 Sc200 2.105 . S
O218 C202 1.268 . S
O219 Sc199 2.105 . S
O219 C204 1.268 1_556 S
Sc220 O223 2.025 . S
Sc220 O230 2.105 1_554 S
Sc220 O233 2.105 . S
Sc220 O236 2.105 1_554 S
Sc220 O239 2.105 . S
Sc221 O223 2.025 . S
Sc221 O231 2.105 . S
Sc221 O235 2.105 . S
Sc221 O237 2.105 . S
Sc221 O241 2.105 . S
Sc222 O223 2.025 1_556 S
Sc222 O232 2.105 . S
Sc222 O234 2.105 . S
Sc222 O238 2.105 . S
Sc222 O240 2.105 . S
O223 Sc220 2.025 . S
O223 Sc221 2.025 . S
O223 Sc222 2.025 1_554 S
C224 O230 1.268 . S
C224 O240 1.268 . S
C225 O231 1.268 . S
C225 O239 1.268 . S
C226 O232 1.268 1_554 S
C226 O241 1.268 . S
C227 O233 1.268 . S
C227 O237 1.268 . S
C228 O234 1.268 . S
C228 O236 1.268 . S
C229 O235 1.268 . S
C229 O238 1.268 1_554 S
O230 Sc220 2.105 1_556 S
O230 C224 1.268 . S
O231 Sc221 2.105 . S
O231 C225 1.268 . S
O232 Sc222 2.105 . S
O232 C226 1.268 1_556 S
O233 Sc220 2.105 . S
O233 C227 1.268 . S
O234 Sc222 2.105 . S
O234 C228 1.268 . S
O235 Sc221 2.105 . S
O235 C229 1.268 . S
O236 Sc220 2.105 1_556 S
O236 C228 1.268 . S
O237 Sc221 2.105 . S
O237 C227 1.268 . S
O238 Sc222 2.105 . S
O238 C229 1.268 1_556 S
O239 Sc220 2.105 . S
O239 C225 1.268 . S
O240 Sc222 2.105 . S
O240 C224 1.268 . S
O241 Sc221 2.105 . S
O241 C226 1.268 . S
Sc242 O245 2.025 . S
Sc242 O252 2.105 . S
Sc242 O255 2.105 . S
Sc242 O258 2.105 . S
Sc242 O261 2.105 . S
Sc243 O245 2.025 1_556 S
Sc243 O253 2.105 . S
Sc243 O257 2.105 . S
Sc243 O259 2.105 . S
Sc243 O263 2.105 . S
Sc244 O245 2.025 . S
Sc244 O254 2.105 1_554 S
Sc244 O256 2.105 . S
Sc244 O260 2.105 1_554 S
Sc244 O262 2.105 . S
O245 Sc242 2.025 . S
O245 Sc243 2.025 1_554 S
O245 Sc244 2.025 . S
C246 O252 1.268 . S
C246 O262 1.268 . S
C247 O253 1.268 1_554 S
C247 O261 1.268 . S
C248 O254 1.268 . S
C248 O263 1.268 . S
C249 O255 1.268 . S
C249 O259 1.268 1_554 S
C250 O256 1.268 . S
C250 O258 1.268 . S
C251 O257 1.268 . S
C251 O260 1.268 . S
O252 Sc242 2.105 . S
O252 C246 1.268 . S
O253 Sc243 2.105 . S
O253 C247 1.268 1_556 S
O254 Sc244 2.105 1_556 S
O254 C248 1.268 . S
O255 Sc242 2.105 . S
O255 C249 1.268 . S
O256 Sc244 2.105 . S
O256 C250 1.268 . S
O257 Sc243 2.105 . S
O257 C251 1.268 . S
O258 Sc242 2.105 . S
O258 C250 1.268 . S
O259 Sc243 2.105 . S
O259 C249 1.268 1_556 S
O260 Sc244 2.105 1_556 S
O260 C251 1.268 . S
O261 Sc242 2.105 . S
O261 C247 1.268 . S
O262 Sc244 2.105 . S
O262 C246 1.268 . S
O263 Sc243 2.105 . S
O263 C248 1.268 . S
Sc264 O267 2.025 . S
Sc264 O274 2.105 . S
Sc264 O277 2.105 . S
Sc264 O280 2.105 . S
Sc264 O283 2.105 . S
Sc265 O267 2.025 . S
Sc265 O275 2.105 . S
Sc265 O279 2.105 . S
Sc265 O281 2.105 . S
Sc265 O285 2.105 . S
Sc266 O267 2.025 . S
Sc266 O276 2.105 . S
Sc266 O278 2.105 . S
Sc266 O282 2.105 . S
Sc266 O284 2.105 . S
O267 Sc264 2.025 . S
O267 Sc265 2.025 . S
O267 Sc266 2.025 . S
C268 O274 1.268 . S
C268 O284 1.268 . S
C269 O275 1.268 . S
C269 O283 1.268 . S
C270 O276 1.268 . S
C270 O285 1.268 . S
C271 O277 1.268 . S
C271 O281 1.268 . S
C272 O278 1.268 . S
C272 O280 1.268 . S
C273 O279 1.268 . S
C273 O282 1.268 . S
O274 Sc264 2.105 . S
O274 C268 1.268 . S
O275 Sc265 2.105 . S
O275 C269 1.268 . S
O276 Sc266 2.105 . S
O276 C270 1.268 . S
O277 Sc264 2.105 . S
O277 C271 1.268 . S
O278 Sc266 2.105 . S
O278 C272 1.268 . S
O279 Sc265 2.105 . S
O279 C273 1.268 . S
O280 Sc264 2.105 . S
O280 C272 1.268 . S
O281 Sc265 2.105 . S
O281 C271 1.268 . S
O282 Sc266 2.105 . S
O282 C273 1.268 . S
O283 Sc264 2.105 . S
O283 C269 1.268 . S
O284 Sc266 2.105 . S
O284 C268 1.268 . S
O285 Sc265 2.105 . S
O285 C270 1.268 . S
Sc286 O289 2.025 . S
Sc286 O296 2.105 . S
Sc286 O299 2.105 . S
Sc286 O302 2.105 . S
Sc286 O305 2.105 . S
Sc287 O289 2.025 . S
Sc287 O297 2.105 . S
Sc287 O301 2.105 . S
Sc287 O303 2.105 . S
Sc287 O307 2.105 . S
Sc288 O289 2.025 . S
Sc288 O298 2.105 . S
Sc288 O300 2.105 . S
Sc288 O304 2.105 . S
Sc288 O306 2.105 . S
O289 Sc286 2.025 . S
O289 Sc287 2.025 . S
O289 Sc288 2.025 . S
C290 O296 1.268 . S
C290 O306 1.268 . S
C291 O297 1.268 . S
C291 O305 1.268 . S
C292 O298 1.268 . S
C292 O307 1.268 . S
C293 O299 1.268 . S
C293 O303 1.268 . S
C294 O300 1.268 . S
C294 O302 1.268 . S
C295 O301 1.268 . S
C295 O304 1.268 . S
O296 Sc286 2.105 . S
O296 C290 1.268 . S
O297 Sc287 2.105 . S
O297 C291 1.268 . S
O298 Sc288 2.105 . S
O298 C292 1.268 . S
O299 Sc286 2.105 . S
O299 C293 1.268 . S
O300 Sc288 2.105 . S
O300 C294 1.268 . S
O301 Sc287 2.105 . S
O301 C295 1.268 . S
O302 Sc286 2.105 . S
O302 C294 1.268 . S
O303 Sc287 2.105 . S
O303 C293 1.268 . S
O304 Sc288 2.105 . S
O304 C295 1.268 . S
O305 Sc286 2.105 . S
O305 C291 1.268 . S
O306 Sc288 2.105 . S
O306 C290 1.268 . S
O307 Sc287 2.105 . S
O307 C292 1.268 . S
Sc308 O311 2.025 . S
Sc308 O318 2.105 . S
Sc308 O321 2.105 . S
Sc308 O324 2.105 . S
Sc308 O327 2.105 . S
Sc309 O311 2.025 . S
Sc309 O319 2.105 . S
Sc309 O323 2.105 . S
Sc309 O325 2.105 . S
Sc309 O329 2.105 . S
Sc310 O311 2.025 . S
Sc310 O320 2.105 . S
Sc310 O322 2.105 . S
Sc310 O326 2.105 . S
Sc310 O328 2.105 . S
O311 Sc308 2.025 . S
O311 Sc309 2.025 . S
O311 Sc310 2.025 . S
C312 O318 1.268 . S
C312 O328 1.268 . S
C313 O319 1.268 . S
C313 O327 1.268 . S
C314 O320 1.268 . S
C314 O329 1.268 . S
C315 O321 1.268 . S
C315 O325 1.268 . S
C316 O322 1.268 . S
C316 O324 1.268 . S
C317 O323 1.268 . S
C317 O326 1.268 . S
O318 Sc308 2.105 . S
O318 C312 1.268 . S
O319 Sc309 2.105 . S
O319 C313 1.268 . S
O320 Sc310 2.105 . S
O320 C314 1.268 . S
O321 Sc308 2.105 . S
O321 C315 1.268 . S
O322 Sc310 2.105 . S
O322 C316 1.268 . S
O323 Sc309 2.105 . S
O323 C317 1.268 . S
O324 Sc308 2.105 . S
O324 C316 1.268 . S
O325 Sc309 2.105 . S
O325 C315 1.268 . S
O326 Sc310 2.105 . S
O326 C317 1.268 . S
O327 Sc308 2.105 . S
O327 C313 1.268 . S
O328 Sc310 2.105 . S
O328 C312 1.268 . S
O329 Sc309 2.105 . S
O329 C314 1.268 . S
Sc330 O333 2.025 . S
Sc330 O340 2.105 . S
Sc330 O343 2.105 . S
Sc330 O346 2.105 . S
Sc330 O349 2.105 . S
Sc331 O333 2.025 . S
Sc331 O341 2.105 . S
Sc331 O345 2.105 . S
Sc331 O347 2.105 . S
Sc331 O351 2.105 . S
Sc332 O333 2.025 . S
Sc332 O342 2.105 . S
Sc332 O344 2.105 . S
Sc332 O348 2.105 . S
Sc332 O350 2.105 . S
O333 Sc330 2.025 . S
O333 Sc331 2.025 . S
O333 Sc332 2.025 . S
C334 O340 1.268 . S
C334 O350 1.268 . S
C335 O341 1.268 . S
C335 O349 1.268 . S
C336 O342 1.268 . S
C336 O351 1.268 . S
C337 O343 1.268 . S
C337 O347 1.268 . S
C338 O344 1.268 . S
C338 O346 1.268 . S
C339 O345 1.268 . S
C339 O348 1.268 . S
O340 Sc330 2.105 . S
O340 C334 1.268 . S
O341 Sc331 2.105 . S
O341 C335 1.268 . S
O342 Sc332 2.105 . S
O342 C336 1.268 . S
O343 Sc330 2.105 . S
O343 C337 1.268 . S
O344 Sc332 2.105 . S
O344 C338 1.268 . S
O345 Sc331 2.105 . S
O345 C339 1.268 . S
O346 Sc330 2.105 . S
O346 C338 1.268 . S
O347 Sc331 2.105 . S
O347 C337 1.268 . S
O348 Sc332 2.105 . S
O348 C339 1.268 . S
O349 Sc330 2.105 . S
O349 C335 1.268 . S
O350 Sc332 2.105 . S
O350 C334 1.268 . S
O351 Sc331 2.105 . S
O351 C336 1.268 . S
Sc352 O355 2.025 . S
Sc352 O362 2.105 . S
Sc352 O365 2.105 . S
Sc352 O368 2.105 . S
Sc352 O371 2.105 . S
Sc353 O355 2.025 . S
Sc353 O363 2.105 . S
Sc353 O367 2.105 . S
Sc353 O369 2.105 . S
Sc353 O373 2.105 . S
Sc354 O355 2.025 . S
Sc354 O364 2.105 . S
Sc354 O366 2.105 . S
Sc354 O370 2.105 . S
Sc354 O372 2.105 . S
O355 Sc352 2.025 . S
O355 Sc353 2.025 . S
O355 Sc354 2.025 . S
C356 O362 1.268 . S
C356 O372 1.268 . S
C357 O363 1.268 . S
C357 O371 1.268 . S
C358 O364 1.268 . S
C358 O373 1.268 . S
C359 O365 1.268 . S
C359 O369 1.268 . S
C360 O366 1.268 . S
C360 O368 1.268 . S
C361 O367 1.268 . S
C361 O370 1.268 . S
O362 Sc352 2.105 . S
O362 C356 1.268 . S
O363 Sc353 2.105 . S
O363 C357 1.268 . S
O364 Sc354 2.105 . S
O364 C358 1.268 . S
O365 Sc352 2.105 . S
O365 C359 1.268 . S
O366 Sc354 2.105 . S
O366 C360 1.268 . S
O367 Sc353 2.105 . S
O367 C361 1.268 . S
O368 Sc352 2.105 . S
O368 C360 1.268 . S
O369 Sc353 2.105 . S
O369 C359 1.268 . S
O370 Sc354 2.105 . S
O370 C361 1.268 . S
O371 Sc352 2.105 . S
O371 C357 1.268 . S
O372 Sc354 2.105 . S
O372 C356 1.268 . S
O373 Sc353 2.105 . S
O373 C358 1.268 . S
Sc374 O377 2.025 . S
Sc374 O384 2.105 . S
Sc374 O387 2.105 . S
Sc374 O390 2.105 . S
Sc374 O393 2.105 . S
Sc375 O377 2.025 . S
Sc375 O385 2.105 . S
Sc375 O389 2.105 . S
Sc375 O391 2.105 . S
Sc375 O395 2.105 . S
Sc376 O377 2.025 . S
Sc376 O386 2.105 . S
Sc376 O388 2.105 . S
Sc376 O392 2.105 . S
Sc376 O394 2.105 . S
O377 Sc374 2.025 . S
O377 Sc375 2.025 . S
O377 Sc376 2.025 . S
C378 O384 1.268 . S
C378 O394 1.268 . S
C379 O385 1.268 . S
C379 O393 1.268 . S
C380 O386 1.268 . S
C380 O395 1.268 . S
C381 O387 1.268 . S
C381 O391 1.268 . S
C382 O388 1.268 . S
C382 O390 1.268 . S
C383 O389 1.268 . S
C383 O392 1.268 . S
O384 Sc374 2.105 . S
O384 C378 1.268 . S
O385 Sc375 2.105 . S
O385 C379 1.268 . S
O386 Sc376 2.105 . S
O386 C380 1.268 . S
O387 Sc374 2.105 . S
O387 C381 1.268 . S
O388 Sc376 2.105 . S
O388 C382 1.268 . S
O389 Sc375 2.105 . S
O389 C383 1.268 . S
O390 Sc374 2.105 . S
O390 C382 1.268 . S
O391 Sc375 2.105 . S
O391 C381 1.268 . S
O392 Sc376 2.105 . S
O392 C383 1.268 . S
O393 Sc374 2.105 . S
O393 C379 1.268 . S
O394 Sc376 2.105 . S
O394 C378 1.268 . S
O395 Sc375 2.105 . S
O395 C380 1.268 . S
Sc396 O399 2.025 . S
Sc396 O406 2.105 . S
Sc396 O409 2.105 . S
Sc396 O412 2.105 . S
Sc396 O415 2.105 . S
Sc397 O399 2.025 . S
Sc397 O407 2.105 . S
Sc397 O411 2.105 . S
Sc397 O413 2.105 . S
Sc397 O417 2.105 . S
Sc398 O399 2.025 . S
Sc398 O408 2.105 . S
Sc398 O410 2.105 . S
Sc398 O414 2.105 . S
Sc398 O416 2.105 . S
O399 Sc396 2.025 . S
O399 Sc397 2.025 . S
O399 Sc398 2.025 . S
C400 O406 1.268 . S
C400 O416 1.268 . S
C401 O407 1.268 . S
C401 O415 1.268 . S
C402 O408 1.268 . S
C402 O417 1.268 . S
C403 O409 1.268 . S
C403 O413 1.268 . S
C404 O410 1.268 . S
C404 O412 1.268 . S
C405 O411 1.268 . S
C405 O414 1.268 . S
O406 Sc396 2.105 . S
O406 C400 1.268 . S
O407 Sc397 2.105 . S
O407 C401 1.268 . S
O408 Sc398 2.105 . S
O408 C402 1.268 . S
O409 Sc396 2.105 . S
O409 C403 1.268 . S
O410 Sc398 2.105 . S
O410 C404 1.268 . S
O411 Sc397 2.105 . S
O411 C405 1.268 . S
O412 Sc396 2.105 . S
O412 C404 1.268 . S
O413 Sc397 2.105 . S
O413 C403 1.268 . S
O414 Sc398 2.105 . S
O414 C405 1.268 . S
O415 Sc396 2.105 . S
O415 C401 1.268 . S
O416 Sc398 2.105 . S
O416 C400 1.268 . S
O417 Sc397 2.105 . S
O417 C402 1.268 . S
Sc418 O421 2.025 . S
Sc418 O428 2.105 . S
Sc418 O431 2.105 . S
Sc418 O434 2.105 . S
Sc418 O437 2.105 . S
Sc419 O421 2.025 . S
Sc419 O429 2.105 . S
Sc419 O433 2.105 . S
Sc419 O435 2.105 . S
Sc419 O439 2.105 . S
Sc420 O421 2.025 . S
Sc420 O430 2.105 . S
Sc420 O432 2.105 . S
Sc420 O436 2.105 . S
Sc420 O438 2.105 . S
O421 Sc418 2.025 . S
O421 Sc419 2.025 . S
O421 Sc420 2.025 . S
C422 O428 1.268 . S
C422 O438 1.268 . S
C423 O429 1.268 . S
C423 O437 1.268 . S
C424 O430 1.268 . S
C424 O439 1.268 . S
C425 O431 1.268 . S
C425 O435 1.268 . S
C426 O432 1.268 . S
C426 O434 1.268 . S
C427 O433 1.268 . S
C427 O436 1.268 . S
O428 Sc418 2.105 . S
O428 C422 1.268 . S
O429 Sc419 2.105 . S
O429 C423 1.268 . S
O430 Sc420 2.105 . S
O430 C424 1.268 . S
O431 Sc418 2.105 . S
O431 C425 1.268 . S
O432 Sc420 2.105 . S
O432 C426 1.268 . S
O433 Sc419 2.105 . S
O433 C427 1.268 . S
O434 Sc418 2.105 . S
O434 C426 1.268 . S
O435 Sc419 2.105 . S
O435 C425 1.268 . S
O436 Sc420 2.105 . S
O436 C427 1.268 . S
O437 Sc418 2.105 . S
O437 C423 1.268 . S
O438 Sc420 2.105 . S
O438 C422 1.268 . S
O439 Sc419 2.105 . S
O439 C424 1.268 . S
Sc440 O443 2.025 . S
Sc440 O450 2.105 . S
Sc440 O453 2.105 . S
Sc440 O456 2.105 . S
Sc440 O459 2.105 . S
Sc441 O443 2.025 . S
Sc441 O451 2.105 . S
Sc441 O455 2.105 . S
Sc441 O457 2.105 . S
Sc441 O461 2.105 . S
Sc442 O443 2.025 . S
Sc442 O452 2.105 . S
Sc442 O454 2.105 . S
Sc442 O458 2.105 . S
Sc442 O460 2.105 . S
O443 Sc440 2.025 . S
O443 Sc441 2.025 . S
O443 Sc442 2.025 . S
C444 O450 1.268 . S
C444 O460 1.268 . S
C445 O451 1.268 . S
C445 O459 1.268 . S
C446 O452 1.268 . S
C446 O461 1.268 . S
C447 O453 1.268 . S
C447 O457 1.268 . S
C448 O454 1.268 . S
C448 O456 1.268 . S
C449 O455 1.268 . S
C449 O458 1.268 . S
O450 Sc440 2.105 . S
O450 C444 1.268 . S
O451 Sc441 2.105 . S
O451 C445 1.268 . S
O452 Sc442 2.105 . S
O452 C446 1.268 . S
O453 Sc440 2.105 . S
O453 C447 1.268 . S
O454 Sc442 2.105 . S
O454 C448 1.268 . S
O455 Sc441 2.105 . S
O455 C449 1.268 . S
O456 Sc440 2.105 . S
O456 C448 1.268 . S
O457 Sc441 2.105 . S
O457 C447 1.268 . S
O458 Sc442 2.105 . S
O458 C449 1.268 . S
O459 Sc440 2.105 . S
O459 C445 1.268 . S
O460 Sc442 2.105 . S
O460 C444 1.268 . S
O461 Sc441 2.105 . S
O461 C446 1.268 . S
Sc462 O465 2.025 . S
Sc462 O472 2.105 . S
Sc462 O475 2.105 . S
Sc462 O478 2.105 . S
Sc462 O481 2.105 . S
Sc463 O465 2.025 . S
Sc463 O473 2.105 . S
Sc463 O477 2.105 . S
Sc463 O479 2.105 . S
Sc463 O483 2.105 . S
Sc464 O465 2.025 . S
Sc464 O474 2.105 . S
Sc464 O476 2.105 . S
Sc464 O480 2.105 . S
Sc464 O482 2.105 . S
O465 Sc462 2.025 . S
O465 Sc463 2.025 . S
O465 Sc464 2.025 . S
C466 O472 1.268 . S
C466 O482 1.268 . S
C467 O473 1.268 . S
C467 O481 1.268 . S
C468 O474 1.268 . S
C468 O483 1.268 . S
C469 O475 1.268 . S
C469 O479 1.268 . S
C470 O476 1.268 . S
C470 O478 1.268 . S
C471 O477 1.268 . S
C471 O480 1.268 . S
O472 Sc462 2.105 . S
O472 C466 1.268 . S
O473 Sc463 2.105 . S
O473 C467 1.268 . S
O474 Sc464 2.105 . S
O474 C468 1.268 . S
O475 Sc462 2.105 . S
O475 C469 1.268 . S
O476 Sc464 2.105 . S
O476 C470 1.268 . S
O477 Sc463 2.105 . S
O477 C471 1.268 . S
O478 Sc462 2.105 . S
O478 C470 1.268 . S
O479 Sc463 2.105 . S
O479 C469 1.268 . S
O480 Sc464 2.105 . S
O480 C471 1.268 . S
O481 Sc462 2.105 . S
O481 C467 1.268 . S
O482 Sc464 2.105 . S
O482 C466 1.268 . S
O483 Sc463 2.105 . S
O483 C468 1.268 . S
Sc484 O487 2.025 . S
Sc484 O494 2.105 . S
Sc484 O497 2.105 . S
Sc484 O500 2.105 . S
Sc484 O503 2.105 . S
Sc485 O487 2.025 . S
Sc485 O495 2.105 . S
Sc485 O499 2.105 . S
Sc485 O501 2.105 . S
Sc485 O505 2.105 . S
Sc486 O487 2.025 . S
Sc486 O496 2.105 . S
Sc486 O498 2.105 . S
Sc486 O502 2.105 . S
Sc486 O504 2.105 . S
O487 Sc484 2.025 . S
O487 Sc485 2.025 . S
O487 Sc486 2.025 . S
C488 O494 1.268 . S
C488 O504 1.268 . S
C489 O495 1.268 . S
C489 O503 1.268 . S
C490 O496 1.268 . S
C490 O505 1.268 . S
C491 O497 1.268 . S
C491 O501 1.268 . S
C492 O498 1.268 . S
C492 O500 1.268 . S
C493 O499 1.268 . S
C493 O502 1.268 . S
O494 Sc484 2.105 . S
O494 C488 1.268 . S
O495 Sc485 2.105 . S
O495 C489 1.268 . S
O496 Sc486 2.105 . S
O496 C490 1.268 . S
O497 Sc484 2.105 . S
O497 C491 1.268 . S
O498 Sc486 2.105 . S
O498 C492 1.268 . S
O499 Sc485 2.105 . S
O499 C493 1.268 . S
O500 Sc484 2.105 . S
O500 C492 1.268 . S
O501 Sc485 2.105 . S
O501 C491 1.268 . S
O502 Sc486 2.105 . S
O502 C493 1.268 . S
O503 Sc484 2.105 . S
O503 C489 1.268 . S
O504 Sc486 2.105 . S
O504 C488 1.268 . S
O505 Sc485 2.105 . S
O505 C490 1.268 . S
Sc506 O509 2.025 . S
Sc506 O516 2.105 . S
Sc506 O519 2.105 . S
Sc506 O522 2.105 . S
Sc506 O525 2.105 . S
Sc507 O509 2.025 . S
Sc507 O517 2.105 . S
Sc507 O521 2.105 . S
Sc507 O523 2.105 . S
Sc507 O527 2.105 . S
Sc508 O509 2.025 . S
Sc508 O518 2.105 . S
Sc508 O520 2.105 . S
Sc508 O524 2.105 . S
Sc508 O526 2.105 . S
O509 Sc506 2.025 . S
O509 Sc507 2.025 . S
O509 Sc508 2.025 . S
C510 O516 1.268 . S
C510 O526 1.268 . S
C511 O517 1.268 . S
C511 O525 1.268 . S
C512 O518 1.268 . S
C512 O527 1.268 . S
C513 O519 1.268 . S
C513 O523 1.268 . S
C514 O520 1.268 . S
C514 O522 1.268 . S
C515 O521 1.268 . S
C515 O524 1.268 . S
O516 Sc506 2.105 . S
O516 C510 1.268 . S
O517 Sc507 2.105 . S
O517 C511 1.268 . S
O518 Sc508 2.105 . S
O518 C512 1.268 . S
O519 Sc506 2.105 . S
O519 C513 1.268 . S
O520 Sc508 2.105 . S
O520 C514 1.268 . S
O521 Sc507 2.105 . S
O521 C515 1.268 . S
O522 Sc506 2.105 . S
O522 C514 1.268 . S
O523 Sc507 2.105 . S
O523 C513 1.268 . S
O524 Sc508 2.105 . S
O524 C515 1.268 . S
O525 Sc506 2.105 . S
O525 C511 1.268 . S
O526 Sc508 2.105 . S
O526 C510 1.268 . S
O527 Sc507 2.105 . S
O527 C512 1.268 . S
C528 C529 1.349 . S
C528 C530 1.327 . S
C528 H553 0.950 . S
C529 C528 1.349 . S
C529 C545 1.349 1_455 S
C530 C528 1.327 . S
C530 C549 1.429 . S
C530 H554 0.950 . S
C531 C548 1.574 . S
C531 C550 1.368 1_655 S
C531 H555 0.949 . S
H532 C536 0.949 . S
C533 C534 1.349 1_655 S
C533 C535 1.327 . S
C533 H556 0.950 . S
C534 C533 1.349 1_455 S
C534 C546 1.349 . S
C535 C533 1.327 . S
C535 C551 1.429 1_655 S
C535 H557 0.950 . S
C536 H532 0.949 . S
C536 C544 1.574 . S
C536 C552 1.368 . S
H537 C545 0.950 . S
H538 C543 0.950 . S
H539 C544 0.949 . S
H540 C546 0.950 . S
H541 C547 0.950 . S
H542 C548 0.949 . S
C543 H538 0.950 . S
C543 C545 1.327 . S
C543 C549 1.429 1_655 S
C544 C536 1.574 . S
C544 H539 0.949 . S
C544 C550 1.368 . S
C545 C529 1.349 1_655 S
C545 H537 0.950 . S
C545 C543 1.327 . S
C546 C534 1.349 . S
C546 H540 0.950 . S
C546 C547 1.327 . S
C547 H541 0.950 . S
C547 C546 1.327 . S
C547 C551 1.429 . S
C548 C531 1.574 . S
C548 H542 0.949 . S
C548 C552 1.368 1_655 S
C549 C530 1.429 . S
C549 C543 1.429 1_455 S
C549 C550 1.523 . S
C550 C531 1.368 1_455 S
C550 C544 1.368 . S
C550 C549 1.523 . S
C551 C535 1.429 1_455 S
C551 C547 1.429 . S
C551 C552 1.523 . S
C552 C536 1.368 . S
C552 C548 1.368 1_455 S
C552 C551 1.523 . S
H553 C528 0.950 . S
H554 C530 0.950 . S
H555 C531 0.949 . S
H556 C533 0.950 . S
H557 C535 0.950 . S
C558 C559 1.349 . S
C558 C560 1.327 . S
C558 H583 0.950 . S
C559 C558 1.349 . S
C559 C575 1.349 1_545 S
C560 C558 1.327 . S
C560 C579 1.429 . S
C560 H584 0.950 . S
C561 C578 1.574 . S
C561 C580 1.368 1_565 S
C561 H585 0.949 . S
H562 C566 0.949 . S
C563 C564 1.349 1_565 S
C563 C565 1.327 . S
C563 H586 0.950 . S
C564 C563 1.349 1_545 S
C564 C576 1.349 . S
C565 C563 1.327 . S
C565 C581 1.429 1_565 S
C565 H587 0.950 . S
C566 H562 0.949 . S
C566 C574 1.574 . S
C566 C582 1.368 . S
H567 C575 0.950 . S
H568 C573 0.950 . S
H569 C574 0.949 . S
H570 C576 0.950 . S
H571 C577 0.950 . S
H572 C578 0.949 . S
C573 H568 0.950 . S
C573 C575 1.327 . S
C573 C579 1.429 1_565 S
C574 C566 1.574 . S
C574 H569 0.949 . S
C574 C580 1.368 . S
C575 C559 1.349 1_565 S
C575 H567 0.950 . S
C575 C573 1.327 . S
C576 C564 1.349 . S
C576 H570 0.950 . S
C576 C577 1.327 . S
C577 H571 0.950 . S
C577 C576 1.327 . S
C577 C581 1.429 . S
C578 C561 1.574 . S
C578 H572 0.949 . S
C578 C582 1.368 1_565 S
C579 C560 1.429 . S
C579 C573 1.429 1_545 S
C579 C580 1.523 . S
C580 C561 1.368 1_545 S
C580 C574 1.368 . S
C580 C579 1.523 . S
C581 C565 1.429 1_545 S
C581 C577 1.429 . S
C581 C582 1.523 . S
C582 C566 1.368 . S
C582 C578 1.368 1_545 S
C582 C581 1.523 . S
H583 C558 0.950 . S
H584 C560 0.950 . S
H585 C561 0.949 . S
H586 C563 0.950 . S
H587 C565 0.950 . S
C588 C589 1.349 . S
C588 C590 1.327 . S
C588 H613 0.950 . S
C589 C588 1.349 . S
C589 C605 1.349 1_455 S
C590 C588 1.327 . S
C590 C609 1.429 . S
C590 H614 0.950 . S
C591 C608 1.574 . S
C591 C610 1.368 1_655 S
C591 H615 0.949 . S
H592 C596 0.949 . S
C593 C594 1.349 1_655 S
C593 C595 1.327 . S
C593 H616 0.950 . S
C594 C593 1.349 1_455 S
C594 C606 1.349 . S
C595 C593 1.327 . S
C595 C611 1.429 1_655 S
C595 H617 0.950 . S
C596 H592 0.949 . S
C596 C604 1.574 . S
C596 C612 1.368 . S
H597 C605 0.950 . S
H598 C603 0.950 . S
H599 C604 0.949 . S
H600 C606 0.950 . S
H601 C607 0.950 . S
H602 C608 0.949 . S
C603 H598 0.950 . S
C603 C605 1.327 . S
C603 C609 1.429 1_655 S
C604 C596 1.574 . S
C604 H599 0.949 . S
C604 C610 1.368 . S
C605 C589 1.349 1_655 S
C605 H597 0.950 . S
C605 C603 1.327 . S
C606 C594 1.349 . S
C606 H600 0.950 . S
C606 C607 1.327 . S
C607 H601 0.950 . S
C607 C606 1.327 . S
C607 C611 1.429 . S
C608 C591 1.574 . S
C608 H602 0.949 . S
C608 C612 1.368 1_655 S
C609 C590 1.429 . S
C609 C603 1.429 1_455 S
C609 C610 1.523 . S
C610 C591 1.368 1_455 S
C610 C604 1.368 . S
C610 C609 1.523 . S
C611 C595 1.429 1_455 S
C611 C607 1.429 . S
C611 C612 1.523 . S
C612 C596 1.368 . S
C612 C608 1.368 1_455 S
C612 C611 1.523 . S
H613 C588 0.950 . S
H614 C590 0.950 . S
H615 C591 0.949 . S
H616 C593 0.950 . S
H617 C595 0.950 . S
C618 C619 1.349 1_565 S
C618 C620 1.327 . S
C618 H643 0.950 . S
C619 C618 1.349 1_545 S
C619 C635 1.349 . S
C620 C618 1.327 . S
C620 C639 1.429 1_565 S
C620 H644 0.950 . S
C621 C638 1.574 . S
C621 C640 1.368 . S
C621 H645 0.949 . S
H622 C626 0.949 . S
C623 C624 1.349 . S
C623 C625 1.327 . S
C623 H646 0.950 . S
C624 C623 1.349 . S
C624 C636 1.349 1_545 S
C625 C623 1.327 . S
C625 C641 1.429 . S
C625 H647 0.950 . S
C626 H622 0.949 . S
C626 C634 1.574 . S
C626 C642 1.368 1_565 S
H627 C635 0.950 . S
H628 C633 0.950 . S
H629 C634 0.949 . S
H630 C636 0.950 . S
H631 C637 0.950 . S
H632 C638 0.949 . S
C633 H628 0.950 . S
C633 C635 1.327 . S
C633 C639 1.429 . S
C634 C626 1.574 . S
C634 H629 0.949 . S
C634 C640 1.368 1_565 S
C635 C619 1.349 . S
C635 H627 0.950 . S
C635 C633 1.327 . S
C636 C624 1.349 1_565 S
C636 H630 0.950 . S
C636 C637 1.327 . S
C637 H631 0.950 . S
C637 C636 1.327 . S
C637 C641 1.429 1_565 S
C638 C621 1.574 . S
C638 H632 0.949 . S
C638 C642 1.368 . S
C639 C620 1.429 1_545 S
C639 C633 1.429 . S
C639 C640 1.523 . S
C640 C621 1.368 . S
C640 C634 1.368 1_545 S
C640 C639 1.523 . S
C641 C625 1.429 . S
C641 C637 1.429 1_545 S
C641 C642 1.523 . S
C642 C626 1.368 1_545 S
C642 C638 1.368 . S
C642 C641 1.523 . S
H643 C618 0.950 . S
H644 C620 0.950 . S
H645 C621 0.949 . S
H646 C623 0.950 . S
H647 C625 0.950 . S
C648 C649 1.349 1_565 S
C648 C650 1.327 . S
C648 H673 0.950 . S
C649 C648 1.349 1_545 S
C649 C665 1.349 . S
C650 C648 1.327 . S
C650 C669 1.429 1_565 S
C650 H674 0.950 . S
C651 C668 1.574 . S
C651 C670 1.368 . S
C651 H675 0.949 . S
H652 C656 0.949 . S
C653 C654 1.349 . S
C653 C655 1.327 . S
C653 H676 0.950 . S
C654 C653 1.349 . S
C654 C666 1.349 1_545 S
C655 C653 1.327 . S
C655 C671 1.429 . S
C655 H677 0.950 . S
C656 H652 0.949 . S
C656 C664 1.574 . S
C656 C672 1.368 1_565 S
H657 C665 0.950 . S
H658 C663 0.950 . S
H659 C664 0.949 . S
H660 C666 0.950 . S
H661 C667 0.950 . S
H662 C668 0.949 . S
C663 H658 0.950 . S
C663 C665 1.327 . S
C663 C669 1.429 . S
C664 C656 1.574 . S
C664 H659 0.949 . S
C664 C670 1.368 1_565 S
C665 C649 1.349 . S
C665 H657 0.950 . S
C665 C663 1.327 . S
C666 C654 1.349 1_565 S
C666 H660 0.950 . S
C666 C667 1.327 . S
C667 H661 0.950 . S
C667 C666 1.327 . S
C667 C671 1.429 1_565 S
C668 C651 1.574 . S
C668 H662 0.949 . S
C668 C672 1.368 . S
C669 C650 1.429 1_545 S
C669 C663 1.429 . S
C669 C670 1.523 . S
C670 C651 1.368 . S
C670 C664 1.368 1_545 S
C670 C669 1.523 . S
C671 C655 1.429 . S
C671 C667 1.429 1_545 S
C671 C672 1.523 . S
C672 C656 1.368 1_545 S
C672 C668 1.368 . S
C672 C671 1.523 . S
H673 C648 0.950 . S
H674 C650 0.950 . S
H675 C651 0.949 . S
H676 C653 0.950 . S
H677 C655 0.950 . S
C678 C679 1.349 1_655 S
C678 C680 1.327 . S
C678 H703 0.950 . S
C679 C678 1.349 1_455 S
C679 C695 1.349 . S
C680 C678 1.327 . S
C680 C699 1.429 1_655 S
C680 H704 0.950 . S
C681 C698 1.574 . S
C681 C700 1.368 . S
C681 H705 0.949 . S
H682 C686 0.949 . S
C683 C684 1.349 . S
C683 C685 1.327 . S
C683 H706 0.950 . S
C684 C683 1.349 . S
C684 C696 1.349 1_455 S
C685 C683 1.327 . S
C685 C701 1.429 . S
C685 H707 0.950 . S
C686 H682 0.949 . S
C686 C694 1.574 . S
C686 C702 1.368 1_655 S
H687 C695 0.950 . S
H688 C693 0.950 . S
H689 C694 0.949 . S
H690 C696 0.950 . S
H691 C697 0.950 . S
H692 C698 0.949 . S
C693 H688 0.950 . S
C693 C695 1.327 . S
C693 C699 1.429 . S
C694 C686 1.574 . S
C694 H689 0.949 . S
C694 C700 1.368 1_655 S
C695 C679 1.349 . S
C695 H687 0.950 . S
C695 C693 1.327 . S
C696 C684 1.349 1_655 S
C696 H690 0.950 . S
C696 C697 1.327 . S
C697 H691 0.950 . S
C697 C696 1.327 . S
C697 C701 1.429 1_655 S
C698 C681 1.574 . S
C698 H692 0.949 . S
C698 C702 1.368 . S
C699 C680 1.429 1_455 S
C699 C693 1.429 . S
C699 C700 1.523 . S
C700 C681 1.368 . S
C700 C694 1.368 1_455 S
C700 C699 1.523 . S
C701 C685 1.429 . S
C701 C697 1.429 1_455 S
C701 C702 1.523 . S
C702 C686 1.368 1_455 S
C702 C698 1.368 . S
C702 C701 1.523 . S
H703 C678 0.950 . S
H704 C680 0.950 . S
H705 C681 0.949 . S
H706 C683 0.950 . S
H707 C685 0.950 . S
C708 C709 1.349 1_565 S
C708 C710 1.327 . S
C708 H733 0.950 . S
C709 C708 1.349 1_545 S
C709 C725 1.349 . S
C710 C708 1.327 . S
C710 C729 1.429 1_565 S
C710 H734 0.950 . S
C711 C728 1.574 . S
C711 C730 1.368 . S
C711 H735 0.949 . S
H712 C716 0.949 . S
C713 C714 1.349 . S
C713 C715 1.327 . S
C713 H736 0.950 . S
C714 C713 1.349 . S
C714 C726 1.349 1_545 S
C715 C713 1.327 . S
C715 C731 1.429 . S
C715 H737 0.950 . S
C716 H712 0.949 . S
C716 C724 1.574 . S
C716 C732 1.368 1_565 S
H717 C725 0.950 . S
H718 C723 0.950 . S
H719 C724 0.949 . S
H720 C726 0.950 . S
H721 C727 0.950 . S
H722 C728 0.949 . S
C723 H718 0.950 . S
C723 C725 1.327 . S
C723 C729 1.429 . S
C724 C716 1.574 . S
C724 H719 0.949 . S
C724 C730 1.368 1_565 S
C725 C709 1.349 . S
C725 H717 0.950 . S
C725 C723 1.327 . S
C726 C714 1.349 1_565 S
C726 H720 0.950 . S
C726 C727 1.327 . S
C727 H721 0.950 . S
C727 C726 1.327 . S
C727 C731 1.429 1_565 S
C728 C711 1.574 . S
C728 H722 0.949 . S
C728 C732 1.368 . S
C729 C710 1.429 1_545 S
C729 C723 1.429 . S
C729 C730 1.523 . S
C730 C711 1.368 . S
C730 C724 1.368 1_545 S
C730 C729 1.523 . S
C731 C715 1.429 . S
C731 C727 1.429 1_545 S
C731 C732 1.523 . S
C732 C716 1.368 1_545 S
C732 C728 1.368 . S
C732 C731 1.523 . S
H733 C708 0.950 . S
H734 C710 0.950 . S
H735 C711 0.949 . S
H736 C713 0.950 . S
H737 C715 0.950 . S
C738 C739 1.349 . S
C738 C740 1.327 . S
C738 H763 0.950 . S
C739 C738 1.349 . S
C739 C755 1.349 1_455 S
C740 C738 1.327 . S
C740 C759 1.429 . S
C740 H764 0.950 . S
C741 C758 1.574 . S
C741 C760 1.368 1_655 S
C741 H765 0.949 . S
H742 C746 0.949 . S
C743 C744 1.349 1_655 S
C743 C745 1.327 . S
C743 H766 0.950 . S
C744 C743 1.349 1_455 S
C744 C756 1.349 . S
C745 C743 1.327 . S
C745 C761 1.429 1_655 S
C745 H767 0.950 . S
C746 H742 0.949 . S
C746 C754 1.574 . S
C746 C762 1.368 . S
H747 C755 0.950 . S
H748 C753 0.950 . S
H749 C754 0.949 . S
H750 C756 0.950 . S
H751 C757 0.950 . S
H752 C758 0.949 . S
C753 H748 0.950 . S
C753 C755 1.327 . S
C753 C759 1.429 1_655 S
C754 C746 1.574 . S
C754 H749 0.949 . S
C754 C760 1.368 . S
C755 C739 1.349 1_655 S
C755 H747 0.950 . S
C755 C753 1.327 . S
C756 C744 1.349 . S
C756 H750 0.950 . S
C756 C757 1.327 . S
C757 H751 0.950 . S
C757 C756 1.327 . S
C757 C761 1.429 . S
C758 C741 1.574 . S
C758 H752 0.949 . S
C758 C762 1.368 1_655 S
C759 C740 1.429 . S
C759 C753 1.429 1_455 S
C759 C760 1.523 . S
C760 C741 1.368 1_455 S
C760 C754 1.368 . S
C760 C759 1.523 . S
C761 C745 1.429 1_455 S
C761 C757 1.429 . S
C761 C762 1.523 . S
C762 C746 1.368 . S
C762 C758 1.368 1_455 S
C762 C761 1.523 . S
H763 C738 0.950 . S
H764 C740 0.950 . S
H765 C741 0.949 . S
H766 C743 0.950 . S
H767 C745 0.950 . S
C768 C769 1.349 1_556 S
C768 C770 1.327 . S
C768 H793 0.950 . S
C769 C768 1.349 1_554 S
C769 C785 1.349 . S
C770 C768 1.327 . S
C770 C789 1.429 1_556 S
C770 H794 0.950 . S
C771 C788 1.574 . S
C771 C790 1.368 . S
C771 H795 0.949 . S
H772 C776 0.949 . S
C773 C774 1.349 . S
C773 C775 1.327 . S
C773 H796 0.950 . S
C774 C773 1.349 . S
C774 C786 1.349 1_554 S
C775 C773 1.327 . S
C775 C791 1.429 . S
C775 H797 0.950 . S
C776 H772 0.949 . S
C776 C784 1.574 . S
C776 C792 1.368 1_556 S
H777 C785 0.950 . S
H778 C783 0.950 . S
H779 C784 0.949 . S
H780 C786 0.950 . S
H781 C787 0.950 . S
H782 C788 0.949 . S
C783 H778 0.950 . S
C783 C785 1.327 . S
C783 C789 1.429 . S
C784 C776 1.574 . S
C784 H779 0.949 . S
C784 C790 1.368 1_556 S
C785 C769 1.349 . S
C785 H777 0.950 . S
C785 C783 1.327 . S
C786 C774 1.349 1_556 S
C786 H780 0.950 . S
C786 C787 1.327 . S
C787 H781 0.950 . S
C787 C786 1.327 . S
C787 C791 1.429 1_556 S
C788 C771 1.574 . S
C788 H782 0.949 . S
C788 C792 1.368 . S
C789 C770 1.429 1_554 S
C789 C783 1.429 . S
C789 C790 1.523 . S
C790 C771 1.368 . S
C790 C784 1.368 1_554 S
C790 C789 1.523 . S
C791 C775 1.429 . S
C791 C787 1.429 1_554 S
C791 C792 1.523 . S
C792 C776 1.368 1_554 S
C792 C788 1.368 . S
C792 C791 1.523 . S
H793 C768 0.950 . S
H794 C770 0.950 . S
H795 C771 0.949 . S
H796 C773 0.950 . S
H797 C775 0.950 . S
C798 C799 1.349 . S
C798 C800 1.327 . S
C798 H823 0.950 . S
C799 C798 1.349 . S
C799 C815 1.349 1_554 S
C800 C798 1.327 . S
C800 C819 1.429 . S
C800 H824 0.950 . S
C801 C818 1.574 . S
C801 C820 1.368 1_556 S
C801 H825 0.949 . S
H802 C806 0.949 . S
C803 C804 1.349 1_556 S
C803 C805 1.327 . S
C803 H826 0.950 . S
C804 C803 1.349 1_554 S
C804 C816 1.349 . S
C805 C803 1.327 . S
C805 C821 1.429 1_556 S
C805 H827 0.950 . S
C806 H802 0.949 . S
C806 C814 1.574 . S
C806 C822 1.368 . S
H807 C815 0.950 . S
H808 C813 0.950 . S
H809 C814 0.949 . S
H810 C816 0.950 . S
H811 C817 0.950 . S
H812 C818 0.949 . S
C813 H808 0.950 . S
C813 C815 1.327 . S
C813 C819 1.429 1_556 S
C814 C806 1.574 . S
C814 H809 0.949 . S
C814 C820 1.368 . S
C815 C799 1.349 1_556 S
C815 H807 0.950 . S
C815 C813 1.327 . S
C816 C804 1.349 . S
C816 H810 0.950 . S
C816 C817 1.327 . S
C817 H811 0.950 . S
C817 C816 1.327 . S
C817 C821 1.429 . S
C818 C801 1.574 . S
C818 H812 0.949 . S
C818 C822 1.368 1_556 S
C819 C800 1.429 . S
C819 C813 1.429 1_554 S
C819 C820 1.523 . S
C820 C801 1.368 1_554 S
C820 C814 1.368 . S
C820 C819 1.523 . S
C821 C805 1.429 1_554 S
C821 C817 1.429 . S
C821 C822 1.523 . S
C822 C806 1.368 . S
C822 C818 1.368 1_554 S
C822 C821 1.523 . S
H823 C798 0.950 . S
H824 C800 0.950 . S
H825 C801 0.949 . S
H826 C803 0.950 . S
H827 C805 0.950 . S
C828 C829 1.349 1_556 S
C828 C830 1.327 . S
C828 H853 0.950 . S
C829 C828 1.349 1_554 S
C829 C845 1.349 . S
C830 C828 1.327 . S
C830 C849 1.429 1_556 S
C830 H854 0.950 . S
C831 C848 1.574 . S
C831 C850 1.368 . S
C831 H855 0.949 . S
H832 C836 0.949 . S
C833 C834 1.349 . S
C833 C835 1.327 . S
C833 H856 0.950 . S
C834 C833 1.349 . S
C834 C846 1.349 1_554 S
C835 C833 1.327 . S
C835 C851 1.429 . S
C835 H857 0.950 . S
C836 H832 0.949 . S
C836 C844 1.574 . S
C836 C852 1.368 1_556 S
H837 C845 0.950 . S
H838 C843 0.950 . S
H839 C844 0.949 . S
H840 C846 0.950 . S
H841 C847 0.950 . S
H842 C848 0.949 . S
C843 H838 0.950 . S
C843 C845 1.327 . S
C843 C849 1.429 . S
C844 C836 1.574 . S
C844 H839 0.949 . S
C844 C850 1.368 1_556 S
C845 C829 1.349 . S
C845 H837 0.950 . S
C845 C843 1.327 . S
C846 C834 1.349 1_556 S
C846 H840 0.950 . S
C846 C847 1.327 . S
C847 H841 0.950 . S
C847 C846 1.327 . S
C847 C851 1.429 1_556 S
C848 C831 1.574 . S
C848 H842 0.949 . S
C848 C852 1.368 . S
C849 C830 1.429 1_554 S
C849 C843 1.429 . S
C849 C850 1.523 . S
C850 C831 1.368 . S
C850 C844 1.368 1_554 S
C850 C849 1.523 . S
C851 C835 1.429 . S
C851 C847 1.429 1_554 S
C851 C852 1.523 . S
C852 C836 1.368 1_554 S
C852 C848 1.368 . S
C852 C851 1.523 . S
H853 C828 0.950 . S
H854 C830 0.950 . S
H855 C831 0.949 . S
H856 C833 0.950 . S
H857 C835 0.950 . S
C858 C859 1.349 1_556 S
C858 C860 1.327 . S
C858 H883 0.950 . S
C859 C858 1.349 1_554 S
C859 C875 1.349 . S
C860 C858 1.327 . S
C860 C879 1.429 1_556 S
C860 H884 0.950 . S
C861 C878 1.574 . S
C861 C880 1.368 . S
C861 H885 0.949 . S
H862 C866 0.949 . S
C863 C864 1.349 . S
C863 C865 1.327 . S
C863 H886 0.950 . S
C864 C863 1.349 . S
C864 C876 1.349 1_554 S
C865 C863 1.327 . S
C865 C881 1.429 . S
C865 H887 0.950 . S
C866 H862 0.949 . S
C866 C874 1.574 . S
C866 C882 1.368 1_556 S
H867 C875 0.950 . S
H868 C873 0.950 . S
H869 C874 0.949 . S
H870 C876 0.950 . S
H871 C877 0.950 . S
H872 C878 0.949 . S
C873 H868 0.950 . S
C873 C875 1.327 . S
C873 C879 1.429 . S
C874 C866 1.574 . S
C874 H869 0.949 . S
C874 C880 1.368 1_556 S
C875 C859 1.349 . S
C875 H867 0.950 . S
C875 C873 1.327 . S
C876 C864 1.349 1_556 S
C876 H870 0.950 . S
C876 C877 1.327 . S
C877 H871 0.950 . S
C877 C876 1.327 . S
C877 C881 1.429 1_556 S
C878 C861 1.574 . S
C878 H872 0.949 . S
C878 C882 1.368 . S
C879 C860 1.429 1_554 S
C879 C873 1.429 . S
C879 C880 1.523 . S
C880 C861 1.368 . S
C880 C874 1.368 1_554 S
C880 C879 1.523 . S
C881 C865 1.429 . S
C881 C877 1.429 1_554 S
C881 C882 1.523 . S
C882 C866 1.368 1_554 S
C882 C878 1.368 . S
C882 C881 1.523 . S
H883 C858 0.950 . S
H884 C860 0.950 . S
H885 C861 0.949 . S
H886 C863 0.950 . S
H887 C865 0.950 . S
C888 C889 1.349 . S
C888 C890 1.327 . S
C888 H913 0.950 . S
C889 C888 1.349 . S
C889 C905 1.349 . S
C890 C888 1.327 . S
C890 C909 1.429 . S
C890 H914 0.950 . S
C891 C908 1.574 1_556 S
C891 C910 1.368 . S
C891 H915 0.949 . S
H892 C896 0.949 . S
C893 C894 1.349 . S
C893 C895 1.327 . S
C893 H916 0.950 . S
C894 C893 1.349 . S
C894 C906 1.349 . S
C895 C893 1.327 . S
C895 C911 1.429 . S
C895 H917 0.950 . S
C896 H892 0.949 . S
C896 C904 1.574 1_554 S
C896 C912 1.368 . S
H897 C905 0.950 . S
H898 C903 0.950 . S
H899 C904 0.949 . S
H900 C906 0.950 . S
H901 C907 0.950 . S
H902 C908 0.949 . S
C903 H898 0.950 . S
C903 C905 1.327 . S
C903 C909 1.429 . S
C904 C896 1.574 1_556 S
C904 H899 0.949 . S
C904 C910 1.368 . S
C905 C889 1.349 . S
C905 H897 0.950 . S
C905 C903 1.327 . S
C906 C894 1.349 . S
C906 H900 0.950 . S
C906 C907 1.327 . S
C907 H901 0.950 . S
C907 C906 1.327 . S
C907 C911 1.429 . S
C908 C891 1.574 1_554 S
C908 H902 0.949 . S
C908 C912 1.368 . S
C909 C890 1.429 . S
C909 C903 1.429 . S
C909 C910 1.523 . S
C910 C891 1.368 . S
C910 C904 1.368 . S
C910 C909 1.523 . S
C911 C895 1.429 . S
C911 C907 1.429 . S
C911 C912 1.523 . S
C912 C896 1.368 . S
C912 C908 1.368 . S
C912 C911 1.523 . S
H913 C888 0.950 . S
H914 C890 0.950 . S
H915 C891 0.949 . S
H916 C893 0.950 . S
H917 C895 0.950 . S
C918 C919 1.349 . S
C918 C920 1.327 . S
C918 H943 0.950 . S
C919 C918 1.349 . S
C919 C935 1.349 . S
C920 C918 1.327 . S
C920 C939 1.429 . S
C920 H944 0.950 . S
C921 C938 1.574 1_554 S
C921 C940 1.368 . S
C921 H945 0.949 . S
H922 C926 0.949 . S
C923 C924 1.349 . S
C923 C925 1.327 . S
C923 H946 0.950 . S
C924 C923 1.349 . S
C924 C936 1.349 . S
C925 C923 1.327 . S
C925 C941 1.429 . S
C925 H947 0.950 . S
C926 H922 0.949 . S
C926 C934 1.574 1_556 S
C926 C942 1.368 . S
H927 C935 0.950 . S
H928 C933 0.950 . S
H929 C934 0.949 . S
H930 C936 0.950 . S
H931 C937 0.950 . S
H932 C938 0.949 . S
C933 H928 0.950 . S
C933 C935 1.327 . S
C933 C939 1.429 . S
C934 C926 1.574 1_554 S
C934 H929 0.949 . S
C934 C940 1.368 . S
C935 C919 1.349 . S
C935 H927 0.950 . S
C935 C933 1.327 . S
C936 C924 1.349 . S
C936 H930 0.950 . S
C936 C937 1.327 . S
C937 H931 0.950 . S
C937 C936 1.327 . S
C937 C941 1.429 . S
C938 C921 1.574 1_556 S
C938 H932 0.949 . S
C938 C942 1.368 . S
C939 C920 1.429 . S
C939 C933 1.429 . S
C939 C940 1.523 . S
C940 C921 1.368 . S
C940 C934 1.368 . S
C940 C939 1.523 . S
C941 C925 1.429 . S
C941 C937 1.429 . S
C941 C942 1.523 . S
C942 C926 1.368 . S
C942 C938 1.368 . S
C942 C941 1.523 . S
H943 C918 0.950 . S
H944 C920 0.950 . S
H945 C921 0.949 . S
H946 C923 0.950 . S
H947 C925 0.950 . S
C948 C949 1.349 . S
C948 C950 1.327 . S
C948 H973 0.950 . S
C949 C948 1.349 . S
C949 C965 1.349 . S
C950 C948 1.327 . S
C950 C969 1.429 . S
C950 H974 0.950 . S
C951 C968 1.574 1_556 S
C951 C970 1.368 . S
C951 H975 0.949 . S
H952 C956 0.949 . S
C953 C954 1.349 . S
C953 C955 1.327 . S
C953 H976 0.950 . S
C954 C953 1.349 . S
C954 C966 1.349 . S
C955 C953 1.327 . S
C955 C971 1.429 . S
C955 H977 0.950 . S
C956 H952 0.949 . S
C956 C964 1.574 1_554 S
C956 C972 1.368 . S
H957 C965 0.950 . S
H958 C963 0.950 . S
H959 C964 0.949 . S
H960 C966 0.950 . S
H961 C967 0.950 . S
H962 C968 0.949 . S
C963 H958 0.950 . S
C963 C965 1.327 . S
C963 C969 1.429 . S
C964 C956 1.574 1_556 S
C964 H959 0.949 . S
C964 C970 1.368 . S
C965 C949 1.349 . S
C965 H957 0.950 . S
C965 C963 1.327 . S
C966 C954 1.349 . S
C966 H960 0.950 . S
C966 C967 1.327 . S
C967 H961 0.950 . S
C967 C966 1.327 . S
C967 C971 1.429 . S
C968 C951 1.574 1_554 S
C968 H962 0.949 . S
C968 C972 1.368 . S
C969 C950 1.429 . S
C969 C963 1.429 . S
C969 C970 1.523 . S
C970 C951 1.368 . S
C970 C964 1.368 . S
C970 C969 1.523 . S
C971 C955 1.429 . S
C971 C967 1.429 . S
C971 C972 1.523 . S
C972 C956 1.368 . S
C972 C968 1.368 . S
C972 C971 1.523 . S
H973 C948 0.950 . S
H974 C950 0.950 . S
H975 C951 0.949 . S
H976 C953 0.950 . S
H977 C955 0.950 . S
C978 C979 1.349 . S
C978 C980 1.327 . S
C978 H1003 0.950 . S
C979 C978 1.349 . S
C979 C995 1.349 . S
C980 C978 1.327 . S
C980 C999 1.429 . S
C980 H1004 0.950 . S
C981 C998 1.574 1_556 S
C981 C1000 1.368 . S
C981 H1005 0.949 . S
H982 C986 0.949 . S
C983 C984 1.349 . S
C983 C985 1.327 . S
C983 H1006 0.950 . S
C984 C983 1.349 . S
C984 C996 1.349 . S
C985 C983 1.327 . S
C985 C1001 1.429 . S
C985 H1007 0.950 . S
C986 H982 0.949 . S
C986 C994 1.574 1_554 S
C986 C1002 1.368 . S
H987 C995 0.950 . S
H988 C993 0.950 . S
H989 C994 0.949 . S
H990 C996 0.950 . S
H991 C997 0.950 . S
H992 C998 0.949 . S
C993 H988 0.950 . S
C993 C995 1.327 . S
C993 C999 1.429 . S
C994 C986 1.574 1_556 S
C994 H989 0.949 . S
C994 C1000 1.368 . S
C995 C979 1.349 . S
C995 H987 0.950 . S
C995 C993 1.327 . S
C996 C984 1.349 . S
C996 H990 0.950 . S
C996 C997 1.327 . S
C997 H991 0.950 . S
C997 C996 1.327 . S
C997 C1001 1.429 . S
C998 C981 1.574 1_554 S
C998 H992 0.949 . S
C998 C1002 1.368 . S
C999 C980 1.429 . S
C999 C993 1.429 . S
C999 C1000 1.523 . S
C1000 C981 1.368 . S
C1000 C994 1.368 . S
C1000 C999 1.523 . S
C1001 C985 1.429 . S
C1001 C997 1.429 . S
C1001 C1002 1.523 . S
C1002 C986 1.368 . S
C1002 C998 1.368 . S
C1002 C1001 1.523 . S
H1003 C978 0.950 . S
H1004 C980 0.950 . S
H1005 C981 0.949 . S
H1006 C983 0.950 . S
H1007 C985 0.950 . S
C1008 C1009 1.349 . S
C1008 C1010 1.327 . S
C1008 H1033 0.950 . S
C1009 C1008 1.349 . S
C1009 C1025 1.349 . S
C1010 C1008 1.327 . S
C1010 C1029 1.429 . S
C1010 H1034 0.950 . S
C1011 C1028 1.574 1_655 S
C1011 C1030 1.368 . S
C1011 H1035 0.949 . S
H1012 C1016 0.949 . S
C1013 C1014 1.349 . S
C1013 C1015 1.327 . S
C1013 H1036 0.950 . S
C1014 C1013 1.349 . S
C1014 C1026 1.349 . S
C1015 C1013 1.327 . S
C1015 C1031 1.429 . S
C1015 H1037 0.950 . S
C1016 H1012 0.949 . S
C1016 C1024 1.574 1_455 S
C1016 C1032 1.368 . S
H1017 C1025 0.950 . S
H1018 C1023 0.950 . S
H1019 C1024 0.949 . S
H1020 C1026 0.950 . S
H1021 C1027 0.950 . S
H1022 C1028 0.949 . S
C1023 H1018 0.950 . S
C1023 C1025 1.327 . S
C1023 C1029 1.429 . S
C1024 C1016 1.574 1_655 S
C1024 H1019 0.949 . S
C1024 C1030 1.368 . S
C1025 C1009 1.349 . S
C1025 H1017 0.950 . S
C1025 C1023 1.327 . S
C1026 C1014 1.349 . S
C1026 H1020 0.950 . S
C1026 C1027 1.327 . S
C1027 H1021 0.950 . S
C1027 C1026 1.327 . S
C1027 C1031 1.429 . S
C1028 C1011 1.574 1_455 S
C1028 H1022 0.949 . S
C1028 C1032 1.368 . S
C1029 C1010 1.429 . S
C1029 C1023 1.429 . S
C1029 C1030 1.523 . S
C1030 C1011 1.368 . S
C1030 C1024 1.368 . S
C1030 C1029 1.523 . S
C1031 C1015 1.429 . S
C1031 C1027 1.429 . S
C1031 C1032 1.523 . S
C1032 C1016 1.368 . S
C1032 C1028 1.368 . S
C1032 C1031 1.523 . S
H1033 C1008 0.950 . S
H1034 C1010 0.950 . S
H1035 C1011 0.949 . S
H1036 C1013 0.950 . S
H1037 C1015 0.950 . S
C1038 C1039 1.349 . S
C1038 C1040 1.327 . S
C1038 H1063 0.950 . S
C1039 C1038 1.349 . S
C1039 C1055 1.349 . S
C1040 C1038 1.327 . S
C1040 C1059 1.429 . S
C1040 H1064 0.950 . S
C1041 C1058 1.574 1_545 S
C1041 C1060 1.368 . S
C1041 H1065 0.949 . S
H1042 C1046 0.949 . S
C1043 C1044 1.349 . S
C1043 C1045 1.327 . S
C1043 H1066 0.950 . S
C1044 C1043 1.349 . S
C1044 C1056 1.349 . S
C1045 C1043 1.327 . S
C1045 C1061 1.429 . S
C1045 H1067 0.950 . S
C1046 H1042 0.949 . S
C1046 C1054 1.574 1_565 S
C1046 C1062 1.368 . S
H1047 C1055 0.950 . S
H1048 C1053 0.950 . S
H1049 C1054 0.949 . S
H1050 C1056 0.950 . S
H1051 C1057 0.950 . S
H1052 C1058 0.949 . S
C1053 H1048 0.950 . S
C1053 C1055 1.327 . S
C1053 C1059 1.429 . S
C1054 C1046 1.574 1_545 S
C1054 H1049 0.949 . S
C1054 C1060 1.368 . S
C1055 C1039 1.349 . S
C1055 H1047 0.950 . S
C1055 C1053 1.327 . S
C1056 C1044 1.349 . S
C1056 H1050 0.950 . S
C1056 C1057 1.327 . S
C1057 H1051 0.950 . S
C1057 C1056 1.327 . S
C1057 C1061 1.429 . S
C1058 C1041 1.574 1_565 S
C1058 H1052 0.949 . S
C1058 C1062 1.368 . S
C1059 C1040 1.429 . S
C1059 C1053 1.429 . S
C1059 C1060 1.523 . S
C1060 C1041 1.368 . S
C1060 C1054 1.368 . S
C1060 C1059 1.523 . S
C1061 C1045 1.429 . S
C1061 C1057 1.429 . S
C1061 C1062 1.523 . S
C1062 C1046 1.368 . S
C1062 C1058 1.368 . S
C1062 C1061 1.523 . S
H1063 C1038 0.950 . S
H1064 C1040 0.950 . S
H1065 C1041 0.949 . S
H1066 C1043 0.950 . S
H1067 C1045 0.950 . S
C1068 C1069 1.349 . S
C1068 C1070 1.327 . S
C1068 H1093 0.950 . S
C1069 C1068 1.349 . S
C1069 C1085 1.349 . S
C1070 C1068 1.327 . S
C1070 C1089 1.429 . S
C1070 H1094 0.950 . S
C1071 C1088 1.574 1_655 S
C1071 C1090 1.368 . S
C1071 H1095 0.949 . S
H1072 C1076 0.949 . S
C1073 C1074 1.349 . S
C1073 C1075 1.327 . S
C1073 H1096 0.950 . S
C1074 C1073 1.349 . S
C1074 C1086 1.349 . S
C1075 C1073 1.327 . S
C1075 C1091 1.429 . S
C1075 H1097 0.950 . S
C1076 H1072 0.949 . S
C1076 C1084 1.574 1_455 S
C1076 C1092 1.368 . S
H1077 C1085 0.950 . S
H1078 C1083 0.950 . S
H1079 C1084 0.949 . S
H1080 C1086 0.950 . S
H1081 C1087 0.950 . S
H1082 C1088 0.949 . S
C1083 H1078 0.950 . S
C1083 C1085 1.327 . S
C1083 C1089 1.429 . S
C1084 C1076 1.574 1_655 S
C1084 H1079 0.949 . S
C1084 C1090 1.368 . S
C1085 C1069 1.349 . S
C1085 H1077 0.950 . S
C1085 C1083 1.327 . S
C1086 C1074 1.349 . S
C1086 H1080 0.950 . S
C1086 C1087 1.327 . S
C1087 H1081 0.950 . S
C1087 C1086 1.327 . S
C1087 C1091 1.429 . S
C1088 C1071 1.574 1_455 S
C1088 H1082 0.949 . S
C1088 C1092 1.368 . S
C1089 C1070 1.429 . S
C1089 C1083 1.429 . S
C1089 C1090 1.523 . S
C1090 C1071 1.368 . S
C1090 C1084 1.368 . S
C1090 C1089 1.523 . S
C1091 C1075 1.429 . S
C1091 C1087 1.429 . S
C1091 C1092 1.523 . S
C1092 C1076 1.368 . S
C1092 C1088 1.368 . S
C1092 C1091 1.523 . S
H1093 C1068 0.950 . S
H1094 C1070 0.950 . S
H1095 C1071 0.949 . S
H1096 C1073 0.950 . S
H1097 C1075 0.950 . S
C1098 C1099 1.349 . S
C1098 C1100 1.327 . S
C1098 H1123 0.950 . S
C1099 C1098 1.349 . S
C1099 C1115 1.349 . S
C1100 C1098 1.327 . S
C1100 C1119 1.429 . S
C1100 H1124 0.950 . S
C1101 C1118 1.574 1_565 S
C1101 C1120 1.368 . S
C1101 H1125 0.949 . S
H1102 C1106 0.949 . S
C1103 C1104 1.349 . S
C1103 C1105 1.327 . S
C1103 H1126 0.950 . S
C1104 C1103 1.349 . S
C1104 C1116 1.349 . S
C1105 C1103 1.327 . S
C1105 C1121 1.429 . S
C1105 H1127 0.950 . S
C1106 H1102 0.949 . S
C1106 C1114 1.574 1_545 S
C1106 C1122 1.368 . S
H1107 C1115 0.950 . S
H1108 C1113 0.950 . S
H1109 C1114 0.949 . S
H1110 C1116 0.950 . S
H1111 C1117 0.950 . S
H1112 C1118 0.949 . S
C1113 H1108 0.950 . S
C1113 C1115 1.327 . S
C1113 C1119 1.429 . S
C1114 C1106 1.574 1_565 S
C1114 H1109 0.949 . S
C1114 C1120 1.368 . S
C1115 C1099 1.349 . S
C1115 H1107 0.950 . S
C1115 C1113 1.327 . S
C1116 C1104 1.349 . S
C1116 H1110 0.950 . S
C1116 C1117 1.327 . S
C1117 H1111 0.950 . S
C1117 C1116 1.327 . S
C1117 C1121 1.429 . S
C1118 C1101 1.574 1_545 S
C1118 H1112 0.949 . S
C1118 C1122 1.368 . S
C1119 C1100 1.429 . S
C1119 C1113 1.429 . S
C1119 C1120 1.523 . S
C1120 C1101 1.368 . S
C1120 C1114 1.368 . S
C1120 C1119 1.523 . S
C1121 C1105 1.429 . S
C1121 C1117 1.429 . S
C1121 C1122 1.523 . S
C1122 C1106 1.368 . S
C1122 C1118 1.368 . S
C1122 C1121 1.523 . S
H1123 C1098 0.950 . S
H1124 C1100 0.950 . S
H1125 C1101 0.949 . S
H1126 C1103 0.950 . S
H1127 C1105 0.950 . S
C1128 C1129 1.349 . S
C1128 C1130 1.327 . S
C1128 H1153 0.950 . S
C1129 C1128 1.349 . S
C1129 C1145 1.349 . S
C1130 C1128 1.327 . S
C1130 C1149 1.429 . S
C1130 H1154 0.950 . S
C1131 C1148 1.574 1_565 S
C1131 C1150 1.368 . S
C1131 H1155 0.949 . S
H1132 C1136 0.949 . S
C1133 C1134 1.349 . S
C1133 C1135 1.327 . S
C1133 H1156 0.950 . S
C1134 C1133 1.349 . S
C1134 C1146 1.349 . S
C1135 C1133 1.327 . S
C1135 C1151 1.429 . S
C1135 H1157 0.950 . S
C1136 H1132 0.949 . S
C1136 C1144 1.574 1_545 S
C1136 C1152 1.368 . S
H1137 C1145 0.950 . S
H1138 C1143 0.950 . S
H1139 C1144 0.949 . S
H1140 C1146 0.950 . S
H1141 C1147 0.950 . S
H1142 C1148 0.949 . S
C1143 H1138 0.950 . S
C1143 C1145 1.327 . S
C1143 C1149 1.429 . S
C1144 C1136 1.574 1_565 S
C1144 H1139 0.949 . S
C1144 C1150 1.368 . S
C1145 C1129 1.349 . S
C1145 H1137 0.950 . S
C1145 C1143 1.327 . S
C1146 C1134 1.349 . S
C1146 H1140 0.950 . S
C1146 C1147 1.327 . S
C1147 H1141 0.950 . S
C1147 C1146 1.327 . S
C1147 C1151 1.429 . S
C1148 C1131 1.574 1_545 S
C1148 H1142 0.949 . S
C1148 C1152 1.368 . S
C1149 C1130 1.429 . S
C1149 C1143 1.429 . S
C1149 C1150 1.523 . S
C1150 C1131 1.368 . S
C1150 C1144 1.368 . S
C1150 C1149 1.523 . S
C1151 C1135 1.429 . S
C1151 C1147 1.429 . S
C1151 C1152 1.523 . S
C1152 C1136 1.368 . S
C1152 C1148 1.368 . S
C1152 C1151 1.523 . S
H1153 C1128 0.950 . S
H1154 C1130 0.950 . S
H1155 C1131 0.949 . S
H1156 C1133 0.950 . S
H1157 C1135 0.950 . S
C1158 C1159 1.349 . S
C1158 C1160 1.327 . S
C1158 H1183 0.950 . S
C1159 C1158 1.349 . S
C1159 C1175 1.349 . S
C1160 C1158 1.327 . S
C1160 C1179 1.429 . S
C1160 H1184 0.950 . S
C1161 C1178 1.574 1_455 S
C1161 C1180 1.368 . S
C1161 H1185 0.949 . S
H1162 C1166 0.949 . S
C1163 C1164 1.349 . S
C1163 C1165 1.327 . S
C1163 H1186 0.950 . S
C1164 C1163 1.349 . S
C1164 C1176 1.349 . S
C1165 C1163 1.327 . S
C1165 C1181 1.429 . S
C1165 H1187 0.950 . S
C1166 H1162 0.949 . S
C1166 C1174 1.574 1_655 S
C1166 C1182 1.368 . S
H1167 C1175 0.950 . S
H1168 C1173 0.950 . S
H1169 C1174 0.949 . S
H1170 C1176 0.950 . S
H1171 C1177 0.950 . S
H1172 C1178 0.949 . S
C1173 H1168 0.950 . S
C1173 C1175 1.327 . S
C1173 C1179 1.429 . S
C1174 C1166 1.574 1_455 S
C1174 H1169 0.949 . S
C1174 C1180 1.368 . S
C1175 C1159 1.349 . S
C1175 H1167 0.950 . S
C1175 C1173 1.327 . S
C1176 C1164 1.349 . S
C1176 H1170 0.950 . S
C1176 C1177 1.327 . S
C1177 H1171 0.950 . S
C1177 C1176 1.327 . S
C1177 C1181 1.429 . S
C1178 C1161 1.574 1_655 S
C1178 H1172 0.949 . S
C1178 C1182 1.368 . S
C1179 C1160 1.429 . S
C1179 C1173 1.429 . S
C1179 C1180 1.523 . S
C1180 C1161 1.368 . S
C1180 C1174 1.368 . S
C1180 C1179 1.523 . S
C1181 C1165 1.429 . S
C1181 C1177 1.429 . S
C1181 C1182 1.523 . S
C1182 C1166 1.368 . S
C1182 C1178 1.368 . S
C1182 C1181 1.523 . S
H1183 C1158 0.950 . S
H1184 C1160 0.950 . S
H1185 C1161 0.949 . S
H1186 C1163 0.950 . S
H1187 C1165 0.950 . S
C1188 C1189 1.349 . S
C1188 C1190 1.327 . S
C1188 H1213 0.950 . S
C1189 C1188 1.349 . S
C1189 C1205 1.349 . S
C1190 C1188 1.327 . S
C1190 C1209 1.429 . S
C1190 H1214 0.950 . S
C1191 C1208 1.574 1_565 S
C1191 C1210 1.368 . S
C1191 H1215 0.949 . S
H1192 C1196 0.949 . S
C1193 C1194 1.349 . S
C1193 C1195 1.327 . S
C1193 H1216 0.950 . S
C1194 C1193 1.349 . S
C1194 C1206 1.349 . S
C1195 C1193 1.327 . S
C1195 C1211 1.429 . S
C1195 H1217 0.950 . S
C1196 H1192 0.949 . S
C1196 C1204 1.574 1_545 S
C1196 C1212 1.368 . S
H1197 C1205 0.950 . S
H1198 C1203 0.950 . S
H1199 C1204 0.949 . S
H1200 C1206 0.950 . S
H1201 C1207 0.950 . S
H1202 C1208 0.949 . S
C1203 H1198 0.950 . S
C1203 C1205 1.327 . S
C1203 C1209 1.429 . S
C1204 C1196 1.574 1_565 S
C1204 H1199 0.949 . S
C1204 C1210 1.368 . S
C1205 C1189 1.349 . S
C1205 H1197 0.950 . S
C1205 C1203 1.327 . S
C1206 C1194 1.349 . S
C1206 H1200 0.950 . S
C1206 C1207 1.327 . S
C1207 H1201 0.950 . S
C1207 C1206 1.327 . S
C1207 C1211 1.429 . S
C1208 C1191 1.574 1_545 S
C1208 H1202 0.949 . S
C1208 C1212 1.368 . S
C1209 C1190 1.429 . S
C1209 C1203 1.429 . S
C1209 C1210 1.523 . S
C1210 C1191 1.368 . S
C1210 C1204 1.368 . S
C1210 C1209 1.523 . S
C1211 C1195 1.429 . S
C1211 C1207 1.429 . S
C1211 C1212 1.523 . S
C1212 C1196 1.368 . S
C1212 C1208 1.368 . S
C1212 C1211 1.523 . S
H1213 C1188 0.950 . S
H1214 C1190 0.950 . S
H1215 C1191 0.949 . S
H1216 C1193 0.950 . S
H1217 C1195 0.950 . S
C1218 C1219 1.349 . S
C1218 C1220 1.327 . S
C1218 H1243 0.950 . S
C1219 C1218 1.349 . S
C1219 C1235 1.349 . S
C1220 C1218 1.327 . S
C1220 C1239 1.429 . S
C1220 H1244 0.950 . S
C1221 C1238 1.574 1_455 S
C1221 C1240 1.368 . S
C1221 H1245 0.949 . S
H1222 C1226 0.949 . S
C1223 C1224 1.349 . S
C1223 C1225 1.327 . S
C1223 H1246 0.950 . S
C1224 C1223 1.349 . S
C1224 C1236 1.349 . S
C1225 C1223 1.327 . S
C1225 C1241 1.429 . S
C1225 H1247 0.950 . S
C1226 H1222 0.949 . S
C1226 C1234 1.574 1_655 S
C1226 C1242 1.368 . S
H1227 C1235 0.950 . S
H1228 C1233 0.950 . S
H1229 C1234 0.949 . S
H1230 C1236 0.950 . S
H1231 C1237 0.950 . S
H1232 C1238 0.949 . S
C1233 H1228 0.950 . S
C1233 C1235 1.327 . S
C1233 C1239 1.429 . S
C1234 C1226 1.574 1_455 S
C1234 H1229 0.949 . S
C1234 C1240 1.368 . S
C1235 C1219 1.349 . S
C1235 H1227 0.950 . S
C1235 C1233 1.327 . S
C1236 C1224 1.349 . S
C1236 H1230 0.950 . S
C1236 C1237 1.327 . S
C1237 H1231 0.950 . S
C1237 C1236 1.327 . S
C1237 C1241 1.429 . S
C1238 C1221 1.574 1_655 S
C1238 H1232 0.949 . S
C1238 C1242 1.368 . S
C1239 C1220 1.429 . S
C1239 C1233 1.429 . S
C1239 C1240 1.523 . S
C1240 C1221 1.368 . S
C1240 C1234 1.368 . S
C1240 C1239 1.523 . S
C1241 C1225 1.429 . S
C1241 C1237 1.429 . S
C1241 C1242 1.523 . S
C1242 C1226 1.368 . S
C1242 C1238 1.368 . S
C1242 C1241 1.523 . S
H1243 C1218 0.950 . S
H1244 C1220 0.950 . S
H1245 C1221 0.949 . S
H1246 C1223 0.950 . S
H1247 C1225 0.950 . S
C1248 C1249 1.349 . S
C1248 C1250 1.327 . S
C1248 H1273 0.950 . S
C1249 C1248 1.349 . S
C1249 C1265 1.349 . S
C1250 C1248 1.327 . S
C1250 C1269 1.429 . S
C1250 H1274 0.950 . S
C1251 C1268 1.574 . S
C1251 C1270 1.368 . S
C1251 H1275 0.949 . S
H1252 C1256 0.949 . S
C1253 C1254 1.349 . S
C1253 C1255 1.327 . S
C1253 H1276 0.950 . S
C1254 C1253 1.349 . S
C1254 C1266 1.349 . S
C1255 C1253 1.327 . S
C1255 C1271 1.429 . S
C1255 H1277 0.950 . S
C1256 H1252 0.949 . S
C1256 C1264 1.574 . S
C1256 C1272 1.368 . S
H1257 C1265 0.950 . S
H1258 C1263 0.950 . S
H1259 C1264 0.949 . S
H1260 C1266 0.950 . S
H1261 C1267 0.950 . S
H1262 C1268 0.949 . S
C1263 H1258 0.950 . S
C1263 C1265 1.327 . S
C1263 C1269 1.429 . S
C1264 C1256 1.574 . S
C1264 H1259 0.949 . S
C1264 C1270 1.368 . S
C1265 C1249 1.349 . S
C1265 H1257 0.950 . S
C1265 C1263 1.327 . S
C1266 C1254 1.349 . S
C1266 H1260 0.950 . S
C1266 C1267 1.327 . S
C1267 H1261 0.950 . S
C1267 C1266 1.327 . S
C1267 C1271 1.429 . S
C1268 C1251 1.574 . S
C1268 H1262 0.949 . S
C1268 C1272 1.368 . S
C1269 C1250 1.429 . S
C1269 C1263 1.429 . S
C1269 C1270 1.523 . S
C1270 C1251 1.368 . S
C1270 C1264 1.368 . S
C1270 C1269 1.523 . S
C1271 C1255 1.429 . S
C1271 C1267 1.429 . S
C1271 C1272 1.523 . S
C1272 C1256 1.368 . S
C1272 C1268 1.368 . S
C1272 C1271 1.523 . S
H1273 C1248 0.950 . S
H1274 C1250 0.950 . S
H1275 C1251 0.949 . S
H1276 C1253 0.950 . S
H1277 C1255 0.950 . S
C1278 C1279 1.349 . S
C1278 C1280 1.327 . S
C1278 H1303 0.950 . S
C1279 C1278 1.349 . S
C1279 C1295 1.349 . S
C1280 C1278 1.327 . S
C1280 C1299 1.429 . S
C1280 H1304 0.950 . S
C1281 C1298 1.574 . S
C1281 C1300 1.368 . S
C1281 H1305 0.949 . S
H1282 C1286 0.949 . S
C1283 C1284 1.349 . S
C1283 C1285 1.327 . S
C1283 H1306 0.950 . S
C1284 C1283 1.349 . S
C1284 C1296 1.349 . S
C1285 C1283 1.327 . S
C1285 C1301 1.429 . S
C1285 H1307 0.950 . S
C1286 H1282 0.949 . S
C1286 C1294 1.574 . S
C1286 C1302 1.368 . S
H1287 C1295 0.950 . S
H1288 C1293 0.950 . S
H1289 C1294 0.949 . S
H1290 C1296 0.950 . S
H1291 C1297 0.950 . S
H1292 C1298 0.949 . S
C1293 H1288 0.950 . S
C1293 C1295 1.327 . S
C1293 C1299 1.429 . S
C1294 C1286 1.574 . S
C1294 H1289 0.949 . S
C1294 C1300 1.368 . S
C1295 C1279 1.349 . S
C1295 H1287 0.950 . S
C1295 C1293 1.327 . S
C1296 C1284 1.349 . S
C1296 H1290 0.950 . S
C1296 C1297 1.327 . S
C1297 H1291 0.950 . S
C1297 C1296 1.327 . S
C1297 C1301 1.429 . S
C1298 C1281 1.574 . S
C1298 H1292 0.949 . S
C1298 C1302 1.368 . S
C1299 C1280 1.429 . S
C1299 C1293 1.429 . S
C1299 C1300 1.523 . S
C1300 C1281 1.368 . S
C1300 C1294 1.368 . S
C1300 C1299 1.523 . S
C1301 C1285 1.429 . S
C1301 C1297 1.429 . S
C1301 C1302 1.523 . S
C1302 C1286 1.368 . S
C1302 C1298 1.368 . S
C1302 C1301 1.523 . S
H1303 C1278 0.950 . S
H1304 C1280 0.950 . S
H1305 C1281 0.949 . S
H1306 C1283 0.950 . S
H1307 C1285 0.950 . S
C1308 C1309 1.349 . S
C1308 C1310 1.327 . S
C1308 H1333 0.950 . S
C1309 C1308 1.349 . S
C1309 C1325 1.349 . S
C1310 C1308 1.327 . S
C1310 C1329 1.429 . S
C1310 H1334 0.950 . S
C1311 C1328 1.574 . S
C1311 C1330 1.368 . S
C1311 H1335 0.949 . S
H1312 C1316 0.949 . S
C1313 C1314 1.349 . S
C1313 C1315 1.327 . S
C1313 H1336 0.950 . S
C1314 C1313 1.349 . S
C1314 C1326 1.349 . S
C1315 C1313 1.327 . S
C1315 C1331 1.429 . S
C1315 H1337 0.950 . S
C1316 H1312 0.949 . S
C1316 C1324 1.574 . S
C1316 C1332 1.368 . S
H1317 C1325 0.950 . S
H1318 C1323 0.950 . S
H1319 C1324 0.949 . S
H1320 C1326 0.950 . S
H1321 C1327 0.950 . S
H1322 C1328 0.949 . S
C1323 H1318 0.950 . S
C1323 C1325 1.327 . S
C1323 C1329 1.429 . S
C1324 C1316 1.574 . S
C1324 H1319 0.949 . S
C1324 C1330 1.368 . S
C1325 C1309 1.349 . S
C1325 H1317 0.950 . S
C1325 C1323 1.327 . S
C1326 C1314 1.349 . S
C1326 H1320 0.950 . S
C1326 C1327 1.327 . S
C1327 H1321 0.950 . S
C1327 C1326 1.327 . S
C1327 C1331 1.429 . S
C1328 C1311 1.574 . S
C1328 H1322 0.949 . S
C1328 C1332 1.368 . S
C1329 C1310 1.429 . S
C1329 C1323 1.429 . S
C1329 C1330 1.523 . S
C1330 C1311 1.368 . S
C1330 C1324 1.368 . S
C1330 C1329 1.523 . S
C1331 C1315 1.429 . S
C1331 C1327 1.429 . S
C1331 C1332 1.523 . S
C1332 C1316 1.368 . S
C1332 C1328 1.368 . S
C1332 C1331 1.523 . S
H1333 C1308 0.950 . S
H1334 C1310 0.950 . S
H1335 C1311 0.949 . S
H1336 C1313 0.950 . S
H1337 C1315 0.950 . S
C1338 C1339 1.349 . S
C1338 C1340 1.327 . S
C1338 H1363 0.950 . S
C1339 C1338 1.349 . S
C1339 C1355 1.349 . S
C1340 C1338 1.327 . S
C1340 C1359 1.429 . S
C1340 H1364 0.950 . S
C1341 C1358 1.574 . S
C1341 C1360 1.368 . S
C1341 H1365 0.949 . S
H1342 C1346 0.949 . S
C1343 C1344 1.349 . S
C1343 C1345 1.327 . S
C1343 H1366 0.950 . S
C1344 C1343 1.349 . S
C1344 C1356 1.349 . S
C1345 C1343 1.327 . S
C1345 C1361 1.429 . S
C1345 H1367 0.950 . S
C1346 H1342 0.949 . S
C1346 C1354 1.574 . S
C1346 C1362 1.368 . S
H1347 C1355 0.950 . S
H1348 C1353 0.950 . S
H1349 C1354 0.949 . S
H1350 C1356 0.950 . S
H1351 C1357 0.950 . S
H1352 C1358 0.949 . S
C1353 H1348 0.950 . S
C1353 C1355 1.327 . S
C1353 C1359 1.429 . S
C1354 C1346 1.574 . S
C1354 H1349 0.949 . S
C1354 C1360 1.368 . S
C1355 C1339 1.349 . S
C1355 H1347 0.950 . S
C1355 C1353 1.327 . S
C1356 C1344 1.349 . S
C1356 H1350 0.950 . S
C1356 C1357 1.327 . S
C1357 H1351 0.950 . S
C1357 C1356 1.327 . S
C1357 C1361 1.429 . S
C1358 C1341 1.574 . S
C1358 H1352 0.949 . S
C1358 C1362 1.368 . S
C1359 C1340 1.429 . S
C1359 C1353 1.429 . S
C1359 C1360 1.523 . S
C1360 C1341 1.368 . S
C1360 C1354 1.368 . S
C1360 C1359 1.523 . S
C1361 C1345 1.429 . S
C1361 C1357 1.429 . S
C1361 C1362 1.523 . S
C1362 C1346 1.368 . S
C1362 C1358 1.368 . S
C1362 C1361 1.523 . S
H1363 C1338 0.950 . S
H1364 C1340 0.950 . S
H1365 C1341 0.949 . S
H1366 C1343 0.950 . S
H1367 C1345 0.950 . S
C1368 C1369 1.349 . S
C1368 C1370 1.327 . S
C1368 H1393 0.950 . S
C1369 C1368 1.349 . S
C1369 C1385 1.349 . S
C1370 C1368 1.327 . S
C1370 C1389 1.429 . S
C1370 H1394 0.950 . S
C1371 C1388 1.574 . S
C1371 C1390 1.368 . S
C1371 H1395 0.949 . S
H1372 C1376 0.949 . S
C1373 C1374 1.349 . S
C1373 C1375 1.327 . S
C1373 H1396 0.950 . S
C1374 C1373 1.349 . S
C1374 C1386 1.349 . S
C1375 C1373 1.327 . S
C1375 C1391 1.429 . S
C1375 H1397 0.950 . S
C1376 H1372 0.949 . S
C1376 C1384 1.574 . S
C1376 C1392 1.368 . S
H1377 C1385 0.950 . S
H1378 C1383 0.950 . S
H1379 C1384 0.949 . S
H1380 C1386 0.950 . S
H1381 C1387 0.950 . S
H1382 C1388 0.949 . S
C1383 H1378 0.950 . S
C1383 C1385 1.327 . S
C1383 C1389 1.429 . S
C1384 C1376 1.574 . S
C1384 H1379 0.949 . S
C1384 C1390 1.368 . S
C1385 C1369 1.349 . S
C1385 H1377 0.950 . S
C1385 C1383 1.327 . S
C1386 C1374 1.349 . S
C1386 H1380 0.950 . S
C1386 C1387 1.327 . S
C1387 H1381 0.950 . S
C1387 C1386 1.327 . S
C1387 C1391 1.429 . S
C1388 C1371 1.574 . S
C1388 H1382 0.949 . S
C1388 C1392 1.368 . S
C1389 C1370 1.429 . S
C1389 C1383 1.429 . S
C1389 C1390 1.523 . S
C1390 C1371 1.368 . S
C1390 C1384 1.368 . S
C1390 C1389 1.523 . S
C1391 C1375 1.429 . S
C1391 C1387 1.429 . S
C1391 C1392 1.523 . S
C1392 C1376 1.368 . S
C1392 C1388 1.368 . S
C1392 C1391 1.523 . S
H1393 C1368 0.950 . S
H1394 C1370 0.950 . S
H1395 C1371 0.949 . S
H1396 C1373 0.950 . S
H1397 C1375 0.950 . S
C1398 C1399 1.349 . S
C1398 C1400 1.327 . S
C1398 H1423 0.950 . S
C1399 C1398 1.349 . S
C1399 C1415 1.349 . S
C1400 C1398 1.327 . S
C1400 C1419 1.429 . S
C1400 H1424 0.950 . S
C1401 C1418 1.574 . S
C1401 C1420 1.368 . S
C1401 H1425 0.949 . S
H1402 C1406 0.949 . S
C1403 C1404 1.349 . S
C1403 C1405 1.327 . S
C1403 H1426 0.950 . S
C1404 C1403 1.349 . S
C1404 C1416 1.349 . S
C1405 C1403 1.327 . S
C1405 C1421 1.429 . S
C1405 H1427 0.950 . S
C1406 H1402 0.949 . S
C1406 C1414 1.574 . S
C1406 C1422 1.368 . S
H1407 C1415 0.950 . S
H1408 C1413 0.950 . S
H1409 C1414 0.949 . S
H1410 C1416 0.950 . S
H1411 C1417 0.950 . S
H1412 C1418 0.949 . S
C1413 H1408 0.950 . S
C1413 C1415 1.327 . S
C1413 C1419 1.429 . S
C1414 C1406 1.574 . S
C1414 H1409 0.949 . S
C1414 C1420 1.368 . S
C1415 C1399 1.349 . S
C1415 H1407 0.950 . S
C1415 C1413 1.327 . S
C1416 C1404 1.349 . S
C1416 H1410 0.950 . S
C1416 C1417 1.327 . S
C1417 H1411 0.950 . S
C1417 C1416 1.327 . S
C1417 C1421 1.429 . S
C1418 C1401 1.574 . S
C1418 H1412 0.949 . S
C1418 C1422 1.368 . S
C1419 C1400 1.429 . S
C1419 C1413 1.429 . S
C1419 C1420 1.523 . S
C1420 C1401 1.368 . S
C1420 C1414 1.368 . S
C1420 C1419 1.523 . S
C1421 C1405 1.429 . S
C1421 C1417 1.429 . S
C1421 C1422 1.523 . S
C1422 C1406 1.368 . S
C1422 C1418 1.368 . S
C1422 C1421 1.523 . S
H1423 C1398 0.950 . S
H1424 C1400 0.950 . S
H1425 C1401 0.949 . S
H1426 C1403 0.950 . S
H1427 C1405 0.950 . S
C1428 C1429 1.349 . S
C1428 C1430 1.327 . S
C1428 H1453 0.950 . S
C1429 C1428 1.349 . S
C1429 C1445 1.349 . S
C1430 C1428 1.327 . S
C1430 C1449 1.429 . S
C1430 H1454 0.950 . S
C1431 C1448 1.574 . S
C1431 C1450 1.368 . S
C1431 H1455 0.949 . S
H1432 C1436 0.949 . S
C1433 C1434 1.349 . S
C1433 C1435 1.327 . S
C1433 H1456 0.950 . S
C1434 C1433 1.349 . S
C1434 C1446 1.349 . S
C1435 C1433 1.327 . S
C1435 C1451 1.429 . S
C1435 H1457 0.950 . S
C1436 H1432 0.949 . S
C1436 C1444 1.574 . S
C1436 C1452 1.368 . S
H1437 C1445 0.950 . S
H1438 C1443 0.950 . S
H1439 C1444 0.949 . S
H1440 C1446 0.950 . S
H1441 C1447 0.950 . S
H1442 C1448 0.949 . S
C1443 H1438 0.950 . S
C1443 C1445 1.327 . S
C1443 C1449 1.429 . S
C1444 C1436 1.574 . S
C1444 H1439 0.949 . S
C1444 C1450 1.368 . S
C1445 C1429 1.349 . S
C1445 H1437 0.950 . S
C1445 C1443 1.327 . S
C1446 C1434 1.349 . S
C1446 H1440 0.950 . S
C1446 C1447 1.327 . S
C1447 H1441 0.950 . S
C1447 C1446 1.327 . S
C1447 C1451 1.429 . S
C1448 C1431 1.574 . S
C1448 H1442 0.949 . S
C1448 C1452 1.368 . S
C1449 C1430 1.429 . S
C1449 C1443 1.429 . S
C1449 C1450 1.523 . S
C1450 C1431 1.368 . S
C1450 C1444 1.368 . S
C1450 C1449 1.523 . S
C1451 C1435 1.429 . S
C1451 C1447 1.429 . S
C1451 C1452 1.523 . S
C1452 C1436 1.368 . S
C1452 C1448 1.368 . S
C1452 C1451 1.523 . S
H1453 C1428 0.950 . S
H1454 C1430 0.950 . S
H1455 C1431 0.949 . S
H1456 C1433 0.950 . S
H1457 C1435 0.950 . S
C1458 C1459 1.349 . S
C1458 C1460 1.327 . S
C1458 H1483 0.950 . S
C1459 C1458 1.349 . S
C1459 C1475 1.349 . S
C1460 C1458 1.327 . S
C1460 C1479 1.429 . S
C1460 H1484 0.950 . S
C1461 C1478 1.574 . S
C1461 C1480 1.368 . S
C1461 H1485 0.949 . S
H1462 C1466 0.949 . S
C1463 C1464 1.349 . S
C1463 C1465 1.327 . S
C1463 H1486 0.950 . S
C1464 C1463 1.349 . S
C1464 C1476 1.349 . S
C1465 C1463 1.327 . S
C1465 C1481 1.429 . S
C1465 H1487 0.950 . S
C1466 H1462 0.949 . S
C1466 C1474 1.574 . S
C1466 C1482 1.368 . S
H1467 C1475 0.950 . S
H1468 C1473 0.950 . S
H1469 C1474 0.949 . S
H1470 C1476 0.950 . S
H1471 C1477 0.950 . S
H1472 C1478 0.949 . S
C1473 H1468 0.950 . S
C1473 C1475 1.327 . S
C1473 C1479 1.429 . S
C1474 C1466 1.574 . S
C1474 H1469 0.949 . S
C1474 C1480 1.368 . S
C1475 C1459 1.349 . S
C1475 H1467 0.950 . S
C1475 C1473 1.327 . S
C1476 C1464 1.349 . S
C1476 H1470 0.950 . S
C1476 C1477 1.327 . S
C1477 H1471 0.950 . S
C1477 C1476 1.327 . S
C1477 C1481 1.429 . S
C1478 C1461 1.574 . S
C1478 H1472 0.949 . S
C1478 C1482 1.368 . S
C1479 C1460 1.429 . S
C1479 C1473 1.429 . S
C1479 C1480 1.523 . S
C1480 C1461 1.368 . S
C1480 C1474 1.368 . S
C1480 C1479 1.523 . S
C1481 C1465 1.429 . S
C1481 C1477 1.429 . S
C1481 C1482 1.523 . S
C1482 C1466 1.368 . S
C1482 C1478 1.368 . S
C1482 C1481 1.523 . S
H1483 C1458 0.950 . S
H1484 C1460 0.950 . S
H1485 C1461 0.949 . S
H1486 C1463 0.950 . S
H1487 C1465 0.950 . S
C1488 C1489 1.349 . S
C1488 C1490 1.327 . S
C1488 H1513 0.950 . S
C1489 C1488 1.349 . S
C1489 C1505 1.349 . S
C1490 C1488 1.327 . S
C1490 C1509 1.429 . S
C1490 H1514 0.950 . S
C1491 C1508 1.574 . S
C1491 C1510 1.368 . S
C1491 H1515 0.949 . S
H1492 C1496 0.949 . S
C1493 C1494 1.349 . S
C1493 C1495 1.327 . S
C1493 H1516 0.950 . S
C1494 C1493 1.349 . S
C1494 C1506 1.349 . S
C1495 C1493 1.327 . S
C1495 C1511 1.429 . S
C1495 H1517 0.950 . S
C1496 H1492 0.949 . S
C1496 C1504 1.574 . S
C1496 C1512 1.368 . S
H1497 C1505 0.950 . S
H1498 C1503 0.950 . S
H1499 C1504 0.949 . S
H1500 C1506 0.950 . S
H1501 C1507 0.950 . S
H1502 C1508 0.949 . S
C1503 H1498 0.950 . S
C1503 C1505 1.327 . S
C1503 C1509 1.429 . S
C1504 C1496 1.574 . S
C1504 H1499 0.949 . S
C1504 C1510 1.368 . S
C1505 C1489 1.349 . S
C1505 H1497 0.950 . S
C1505 C1503 1.327 . S
C1506 C1494 1.349 . S
C1506 H1500 0.950 . S
C1506 C1507 1.327 . S
C1507 H1501 0.950 . S
C1507 C1506 1.327 . S
C1507 C1511 1.429 . S
C1508 C1491 1.574 . S
C1508 H1502 0.949 . S
C1508 C1512 1.368 . S
C1509 C1490 1.429 . S
C1509 C1503 1.429 . S
C1509 C1510 1.523 . S
C1510 C1491 1.368 . S
C1510 C1504 1.368 . S
C1510 C1509 1.523 . S
C1511 C1495 1.429 . S
C1511 C1507 1.429 . S
C1511 C1512 1.523 . S
C1512 C1496 1.368 . S
C1512 C1508 1.368 . S
C1512 C1511 1.523 . S
H1513 C1488 0.950 . S
H1514 C1490 0.950 . S
H1515 C1491 0.949 . S
H1516 C1493 0.950 . S
H1517 C1495 0.950 . S
C1518 C1519 1.349 . S
C1518 C1520 1.327 . S
C1518 H1543 0.950 . S
C1519 C1518 1.349 . S
C1519 C1535 1.349 . S
C1520 C1518 1.327 . S
C1520 C1539 1.429 . S
C1520 H1544 0.950 . S
C1521 C1538 1.574 . S
C1521 C1540 1.368 . S
C1521 H1545 0.949 . S
H1522 C1526 0.949 . S
C1523 C1524 1.349 . S
C1523 C1525 1.327 . S
C1523 H1546 0.950 . S
C1524 C1523 1.349 . S
C1524 C1536 1.349 . S
C1525 C1523 1.327 . S
C1525 C1541 1.429 . S
C1525 H1547 0.950 . S
C1526 H1522 0.949 . S
C1526 C1534 1.574 . S
C1526 C1542 1.368 . S
H1527 C1535 0.950 . S
H1528 C1533 0.950 . S
H1529 C1534 0.949 . S
H1530 C1536 0.950 . S
H1531 C1537 0.950 . S
H1532 C1538 0.949 . S
C1533 H1528 0.950 . S
C1533 C1535 1.327 . S
C1533 C1539 1.429 . S
C1534 C1526 1.574 . S
C1534 H1529 0.949 . S
C1534 C1540 1.368 . S
C1535 C1519 1.349 . S
C1535 H1527 0.950 . S
C1535 C1533 1.327 . S
C1536 C1524 1.349 . S
C1536 H1530 0.950 . S
C1536 C1537 1.327 . S
C1537 H1531 0.950 . S
C1537 C1536 1.327 . S
C1537 C1541 1.429 . S
C1538 C1521 1.574 . S
C1538 H1532 0.949 . S
C1538 C1542 1.368 . S
C1539 C1520 1.429 . S
C1539 C1533 1.429 . S
C1539 C1540 1.523 . S
C1540 C1521 1.368 . S
C1540 C1534 1.368 . S
C1540 C1539 1.523 . S
C1541 C1525 1.429 . S
C1541 C1537 1.429 . S
C1541 C1542 1.523 . S
C1542 C1526 1.368 . S
C1542 C1538 1.368 . S
C1542 C1541 1.523 . S
H1543 C1518 0.950 . S
H1544 C1520 0.950 . S
H1545 C1521 0.949 . S
H1546 C1523 0.950 . S
H1547 C1525 0.950 . S
C1548 C1549 1.349 . S
C1548 C1550 1.327 . S
C1548 H1573 0.950 . S
C1549 C1548 1.349 . S
C1549 C1565 1.349 . S
C1550 C1548 1.327 . S
C1550 C1569 1.429 . S
C1550 H1574 0.950 . S
C1551 C1568 1.574 . S
C1551 C1570 1.368 . S
C1551 H1575 0.949 . S
H1552 C1556 0.949 . S
C1553 C1554 1.349 . S
C1553 C1555 1.327 . S
C1553 H1576 0.950 . S
C1554 C1553 1.349 . S
C1554 C1566 1.349 . S
C1555 C1553 1.327 . S
C1555 C1571 1.429 . S
C1555 H1577 0.950 . S
C1556 H1552 0.949 . S
C1556 C1564 1.574 . S
C1556 C1572 1.368 . S
H1557 C1565 0.950 . S
H1558 C1563 0.950 . S
H1559 C1564 0.949 . S
H1560 C1566 0.950 . S
H1561 C1567 0.950 . S
H1562 C1568 0.949 . S
C1563 H1558 0.950 . S
C1563 C1565 1.327 . S
C1563 C1569 1.429 . S
C1564 C1556 1.574 . S
C1564 H1559 0.949 . S
C1564 C1570 1.368 . S
C1565 C1549 1.349 . S
C1565 H1557 0.950 . S
C1565 C1563 1.327 . S
C1566 C1554 1.349 . S
C1566 H1560 0.950 . S
C1566 C1567 1.327 . S
C1567 H1561 0.950 . S
C1567 C1566 1.327 . S
C1567 C1571 1.429 . S
C1568 C1551 1.574 . S
C1568 H1562 0.949 . S
C1568 C1572 1.368 . S
C1569 C1550 1.429 . S
C1569 C1563 1.429 . S
C1569 C1570 1.523 . S
C1570 C1551 1.368 . S
C1570 C1564 1.368 . S
C1570 C1569 1.523 . S
C1571 C1555 1.429 . S
C1571 C1567 1.429 . S
C1571 C1572 1.523 . S
C1572 C1556 1.368 . S
C1572 C1568 1.368 . S
C1572 C1571 1.523 . S
H1573 C1548 0.950 . S
H1574 C1550 0.950 . S
H1575 C1551 0.949 . S
H1576 C1553 0.950 . S
H1577 C1555 0.950 . S
C1578 C1579 1.349 . S
C1578 C1580 1.327 . S
C1578 H1603 0.950 . S
C1579 C1578 1.349 . S
C1579 C1595 1.349 . S
C1580 C1578 1.327 . S
C1580 C1599 1.429 . S
C1580 H1604 0.950 . S
C1581 C1598 1.574 . S
C1581 C1600 1.368 . S
C1581 H1605 0.949 . S
H1582 C1586 0.949 . S
C1583 C1584 1.349 . S
C1583 C1585 1.327 . S
C1583 H1606 0.950 . S
C1584 C1583 1.349 . S
C1584 C1596 1.349 . S
C1585 C1583 1.327 . S
C1585 C1601 1.429 . S
C1585 H1607 0.950 . S
C1586 H1582 0.949 . S
C1586 C1594 1.574 . S
C1586 C1602 1.368 . S
H1587 C1595 0.950 . S
H1588 C1593 0.950 . S
H1589 C1594 0.949 . S
H1590 C1596 0.950 . S
H1591 C1597 0.950 . S
H1592 C1598 0.949 . S
C1593 H1588 0.950 . S
C1593 C1595 1.327 . S
C1593 C1599 1.429 . S
C1594 C1586 1.574 . S
C1594 H1589 0.949 . S
C1594 C1600 1.368 . S
C1595 C1579 1.349 . S
C1595 H1587 0.950 . S
C1595 C1593 1.327 . S
C1596 C1584 1.349 . S
C1596 H1590 0.950 . S
C1596 C1597 1.327 . S
C1597 H1591 0.950 . S
C1597 C1596 1.327 . S
C1597 C1601 1.429 . S
C1598 C1581 1.574 . S
C1598 H1592 0.949 . S
C1598 C1602 1.368 . S
C1599 C1580 1.429 . S
C1599 C1593 1.429 . S
C1599 C1600 1.523 . S
C1600 C1581 1.368 . S
C1600 C1594 1.368 . S
C1600 C1599 1.523 . S
C1601 C1585 1.429 . S
C1601 C1597 1.429 . S
C1601 C1602 1.523 . S
C1602 C1586 1.368 . S
C1602 C1598 1.368 . S
C1602 C1601 1.523 . S
H1603 C1578 0.950 . S
H1604 C1580 0.950 . S
H1605 C1581 0.949 . S
H1606 C1583 0.950 . S
H1607 C1585 0.950 . S
C1608 C1609 1.349 . S
C1608 C1610 1.327 . S
C1608 H1633 0.950 . S
C1609 C1608 1.349 . S
C1609 C1625 1.349 . S
C1610 C1608 1.327 . S
C1610 C1629 1.429 . S
C1610 H1634 0.950 . S
C1611 C1628 1.574 . S
C1611 C1630 1.368 . S
C1611 H1635 0.949 . S
H1612 C1616 0.949 . S
C1613 C1614 1.349 . S
C1613 C1615 1.327 . S
C1613 H1636 0.950 . S
C1614 C1613 1.349 . S
C1614 C1626 1.349 . S
C1615 C1613 1.327 . S
C1615 C1631 1.429 . S
C1615 H1637 0.950 . S
C1616 H1612 0.949 . S
C1616 C1624 1.574 . S
C1616 C1632 1.368 . S
H1617 C1625 0.950 . S
H1618 C1623 0.950 . S
H1619 C1624 0.949 . S
H1620 C1626 0.950 . S
H1621 C1627 0.950 . S
H1622 C1628 0.949 . S
C1623 H1618 0.950 . S
C1623 C1625 1.327 . S
C1623 C1629 1.429 . S
C1624 C1616 1.574 . S
C1624 H1619 0.949 . S
C1624 C1630 1.368 . S
C1625 C1609 1.349 . S
C1625 H1617 0.950 . S
C1625 C1623 1.327 . S
C1626 C1614 1.349 . S
C1626 H1620 0.950 . S
C1626 C1627 1.327 . S
C1627 H1621 0.950 . S
C1627 C1626 1.327 . S
C1627 C1631 1.429 . S
C1628 C1611 1.574 . S
C1628 H1622 0.949 . S
C1628 C1632 1.368 . S
C1629 C1610 1.429 . S
C1629 C1623 1.429 . S
C1629 C1630 1.523 . S
C1630 C1611 1.368 . S
C1630 C1624 1.368 . S
C1630 C1629 1.523 . S
C1631 C1615 1.429 . S
C1631 C1627 1.429 . S
C1631 C1632 1.523 . S
C1632 C1616 1.368 . S
C1632 C1628 1.368 . S
C1632 C1631 1.523 . S
H1633 C1608 0.950 . S
H1634 C1610 0.950 . S
H1635 C1611 0.949 . S
H1636 C1613 0.950 . S
H1637 C1615 0.950 . S
C1638 C1639 1.349 . S
C1638 C1640 1.327 . S
C1638 H1663 0.950 . S
C1639 C1638 1.349 . S
C1639 C1655 1.349 . S
C1640 C1638 1.327 . S
C1640 C1659 1.429 . S
C1640 H1664 0.950 . S
C1641 C1658 1.574 . S
C1641 C1660 1.368 . S
C1641 H1665 0.949 . S
H1642 C1646 0.949 . S
C1643 C1644 1.349 . S
C1643 C1645 1.327 . S
C1643 H1666 0.950 . S
C1644 C1643 1.349 . S
C1644 C1656 1.349 . S
C1645 C1643 1.327 . S
C1645 C1661 1.429 . S
C1645 H1667 0.950 . S
C1646 H1642 0.949 . S
C1646 C1654 1.574 . S
C1646 C1662 1.368 . S
H1647 C1655 0.950 . S
H1648 C1653 0.950 . S
H1649 C1654 0.949 . S
H1650 C1656 0.950 . S
H1651 C1657 0.950 . S
H1652 C1658 0.949 . S
C1653 H1648 0.950 . S
C1653 C1655 1.327 . S
C1653 C1659 1.429 . S
C1654 C1646 1.574 . S
C1654 H1649 0.949 . S
C1654 C1660 1.368 . S
C1655 C1639 1.349 . S
C1655 H1647 0.950 . S
C1655 C1653 1.327 . S
C1656 C1644 1.349 . S
C1656 H1650 0.950 . S
C1656 C1657 1.327 . S
C1657 H1651 0.950 . S
C1657 C1656 1.327 . S
C1657 C1661 1.429 . S
C1658 C1641 1.574 . S
C1658 H1652 0.949 . S
C1658 C1662 1.368 . S
C1659 C1640 1.429 . S
C1659 C1653 1.429 . S
C1659 C1660 1.523 . S
C1660 C1641 1.368 . S
C1660 C1654 1.368 . S
C1660 C1659 1.523 . S
C1661 C1645 1.429 . S
C1661 C1657 1.429 . S
C1661 C1662 1.523 . S
C1662 C1646 1.368 . S
C1662 C1658 1.368 . S
C1662 C1661 1.523 . S
H1663 C1638 0.950 . S
H1664 C1640 0.950 . S
H1665 C1641 0.949 . S
H1666 C1643 0.950 . S
H1667 C1645 0.950 . S
C1668 C1669 1.349 . S
C1668 C1670 1.327 . S
C1668 H1693 0.950 . S
C1669 C1668 1.349 . S
C1669 C1685 1.349 . S
C1670 C1668 1.327 . S
C1670 C1689 1.429 . S
C1670 H1694 0.950 . S
C1671 C1688 1.574 . S
C1671 C1690 1.368 . S
C1671 H1695 0.949 . S
H1672 C1676 0.949 . S
C1673 C1674 1.349 . S
C1673 C1675 1.327 . S
C1673 H1696 0.950 . S
C1674 C1673 1.349 . S
C1674 C1686 1.349 . S
C1675 C1673 1.327 . S
C1675 C1691 1.429 . S
C1675 H1697 0.950 . S
C1676 H1672 0.949 . S
C1676 C1684 1.574 . S
C1676 C1692 1.368 . S
H1677 C1685 0.950 . S
H1678 C1683 0.950 . S
H1679 C1684 0.949 . S
H1680 C1686 0.950 . S
H1681 C1687 0.950 . S
H1682 C1688 0.949 . S
C1683 H1678 0.950 . S
C1683 C1685 1.327 . S
C1683 C1689 1.429 . S
C1684 C1676 1.574 . S
C1684 H1679 0.949 . S
C1684 C1690 1.368 . S
C1685 C1669 1.349 . S
C1685 H1677 0.950 . S
C1685 C1683 1.327 . S
C1686 C1674 1.349 . S
C1686 H1680 0.950 . S
C1686 C1687 1.327 . S
C1687 H1681 0.950 . S
C1687 C1686 1.327 . S
C1687 C1691 1.429 . S
C1688 C1671 1.574 . S
C1688 H1682 0.949 . S
C1688 C1692 1.368 . S
C1689 C1670 1.429 . S
C1689 C1683 1.429 . S
C1689 C1690 1.523 . S
C1690 C1671 1.368 . S
C1690 C1684 1.368 . S
C1690 C1689 1.523 . S
C1691 C1675 1.429 . S
C1691 C1687 1.429 . S
C1691 C1692 1.523 . S
C1692 C1676 1.368 . S
C1692 C1688 1.368 . S
C1692 C1691 1.523 . S
H1693 C1668 0.950 . S
H1694 C1670 0.950 . S
H1695 C1671 0.949 . S
H1696 C1673 0.950 . S
H1697 C1675 0.950 . S
C1698 C1699 1.349 . S
C1698 C1700 1.327 . S
C1698 H1723 0.950 . S
C1699 C1698 1.349 . S
C1699 C1715 1.349 . S
C1700 C1698 1.327 . S
C1700 C1719 1.429 . S
C1700 H1724 0.950 . S
C1701 C1718 1.574 . S
C1701 C1720 1.368 . S
C1701 H1725 0.949 . S
H1702 C1706 0.949 . S
C1703 C1704 1.349 . S
C1703 C1705 1.327 . S
C1703 H1726 0.950 . S
C1704 C1703 1.349 . S
C1704 C1716 1.349 . S
C1705 C1703 1.327 . S
C1705 C1721 1.429 . S
C1705 H1727 0.950 . S
C1706 H1702 0.949 . S
C1706 C1714 1.574 . S
C1706 C1722 1.368 . S
H1707 C1715 0.950 . S
H1708 C1713 0.950 . S
H1709 C1714 0.949 . S
H1710 C1716 0.950 . S
H1711 C1717 0.950 . S
H1712 C1718 0.949 . S
C1713 H1708 0.950 . S
C1713 C1715 1.327 . S
C1713 C1719 1.429 . S
C1714 C1706 1.574 . S
C1714 H1709 0.949 . S
C1714 C1720 1.368 . S
C1715 C1699 1.349 . S
C1715 H1707 0.950 . S
C1715 C1713 1.327 . S
C1716 C1704 1.349 . S
C1716 H1710 0.950 . S
C1716 C1717 1.327 . S
C1717 H1711 0.950 . S
C1717 C1716 1.327 . S
C1717 C1721 1.429 . S
C1718 C1701 1.574 . S
C1718 H1712 0.949 . S
C1718 C1722 1.368 . S
C1719 C1700 1.429 . S
C1719 C1713 1.429 . S
C1719 C1720 1.523 . S
C1720 C1701 1.368 . S
C1720 C1714 1.368 . S
C1720 C1719 1.523 . S
C1721 C1705 1.429 . S
C1721 C1717 1.429 . S
C1721 C1722 1.523 . S
C1722 C1706 1.368 . S
C1722 C1718 1.368 . S
C1722 C1721 1.523 . S
H1723 C1698 0.950 . S
H1724 C1700 0.950 . S
H1725 C1701 0.949 . S
H1726 C1703 0.950 . S
H1727 C1705 0.950 . S
C1728 C1729 1.349 . S
C1728 C1730 1.327 . S
C1728 H1753 0.950 . S
C1729 C1728 1.349 . S
C1729 C1745 1.349 . S
C1730 C1728 1.327 . S
C1730 C1749 1.429 . S
C1730 H1754 0.950 . S
C1731 C1748 1.574 . S
C1731 C1750 1.368 . S
C1731 H1755 0.949 . S
H1732 C1736 0.949 . S
C1733 C1734 1.349 . S
C1733 C1735 1.327 . S
C1733 H1756 0.950 . S
C1734 C1733 1.349 . S
C1734 C1746 1.349 . S
C1735 C1733 1.327 . S
C1735 C1751 1.429 . S
C1735 H1757 0.950 . S
C1736 H1732 0.949 . S
C1736 C1744 1.574 . S
C1736 C1752 1.368 . S
H1737 C1745 0.950 . S
H1738 C1743 0.950 . S
H1739 C1744 0.949 . S
H1740 C1746 0.950 . S
H1741 C1747 0.950 . S
H1742 C1748 0.949 . S
C1743 H1738 0.950 . S
C1743 C1745 1.327 . S
C1743 C1749 1.429 . S
C1744 C1736 1.574 . S
C1744 H1739 0.949 . S
C1744 C1750 1.368 . S
C1745 C1729 1.349 . S
C1745 H1737 0.950 . S
C1745 C1743 1.327 . S
C1746 C1734 1.349 . S
C1746 H1740 0.950 . S
C1746 C1747 1.327 . S
C1747 H1741 0.950 . S
C1747 C1746 1.327 . S
C1747 C1751 1.429 . S
C1748 C1731 1.574 . S
C1748 H1742 0.949 . S
C1748 C1752 1.368 . S
C1749 C1730 1.429 . S
C1749 C1743 1.429 . S
C1749 C1750 1.523 . S
C1750 C1731 1.368 . S
C1750 C1744 1.368 . S
C1750 C1749 1.523 . S
C1751 C1735 1.429 . S
C1751 C1747 1.429 . S
C1751 C1752 1.523 . S
C1752 C1736 1.368 . S
C1752 C1748 1.368 . S
C1752 C1751 1.523 . S
H1753 C1728 0.950 . S
H1754 C1730 0.950 . S
H1755 C1731 0.949 . S
H1756 C1733 0.950 . S
H1757 C1735 0.950 . S
C1758 C1759 1.349 . S
C1758 C1760 1.327 . S
C1758 H1783 0.950 . S
C1759 C1758 1.349 . S
C1759 C1775 1.349 . S
C1760 C1758 1.327 . S
C1760 C1779 1.429 . S
C1760 H1784 0.950 . S
C1761 C1778 1.574 . S
C1761 C1780 1.368 . S
C1761 H1785 0.949 . S
H1762 C1766 0.949 . S
C1763 C1764 1.349 . S
C1763 C1765 1.327 . S
C1763 H1786 0.950 . S
C1764 C1763 1.349 . S
C1764 C1776 1.349 . S
C1765 C1763 1.327 . S
C1765 C1781 1.429 . S
C1765 H1787 0.950 . S
C1766 H1762 0.949 . S
C1766 C1774 1.574 . S
C1766 C1782 1.368 . S
H1767 C1775 0.950 . S
H1768 C1773 0.950 . S
H1769 C1774 0.949 . S
H1770 C1776 0.950 . S
H1771 C1777 0.950 . S
H1772 C1778 0.949 . S
C1773 H1768 0.950 . S
C1773 C1775 1.327 . S
C1773 C1779 1.429 . S
C1774 C1766 1.574 . S
C1774 H1769 0.949 . S
C1774 C1780 1.368 . S
C1775 C1759 1.349 . S
C1775 H1767 0.950 . S
C1775 C1773 1.327 . S
C1776 C1764 1.349 . S
C1776 H1770 0.950 . S
C1776 C1777 1.327 . S
C1777 H1771 0.950 . S
C1777 C1776 1.327 . S
C1777 C1781 1.429 . S
C1778 C1761 1.574 . S
C1778 H1772 0.949 . S
C1778 C1782 1.368 . S
C1779 C1760 1.429 . S
C1779 C1773 1.429 . S
C1779 C1780 1.523 . S
C1780 C1761 1.368 . S
C1780 C1774 1.368 . S
C1780 C1779 1.523 . S
C1781 C1765 1.429 . S
C1781 C1777 1.429 . S
C1781 C1782 1.523 . S
C1782 C1766 1.368 . S
C1782 C1778 1.368 . S
C1782 C1781 1.523 . S
H1783 C1758 0.950 . S
H1784 C1760 0.950 . S
H1785 C1761 0.949 . S
H1786 C1763 0.950 . S
H1787 C1765 0.950 . S
C1788 C1789 1.349 . S
C1788 C1790 1.327 . S
C1788 H1813 0.950 . S
C1789 C1788 1.349 . S
C1789 C1805 1.349 . S
C1790 C1788 1.327 . S
C1790 C1809 1.429 . S
C1790 H1814 0.950 . S
C1791 C1808 1.574 . S
C1791 C1810 1.368 . S
C1791 H1815 0.949 . S
H1792 C1796 0.949 . S
C1793 C1794 1.349 . S
C1793 C1795 1.327 . S
C1793 H1816 0.950 . S
C1794 C1793 1.349 . S
C1794 C1806 1.349 . S
C1795 C1793 1.327 . S
C1795 C1811 1.429 . S
C1795 H1817 0.950 . S
C1796 H1792 0.949 . S
C1796 C1804 1.574 . S
C1796 C1812 1.368 . S
H1797 C1805 0.950 . S
H1798 C1803 0.950 . S
H1799 C1804 0.949 . S
H1800 C1806 0.950 . S
H1801 C1807 0.950 . S
H1802 C1808 0.949 . S
C1803 H1798 0.950 . S
C1803 C1805 1.327 . S
C1803 C1809 1.429 . S
C1804 C1796 1.574 . S
C1804 H1799 0.949 . S
C1804 C1810 1.368 . S
C1805 C1789 1.349 . S
C1805 H1797 0.950 . S
C1805 C1803 1.327 . S
C1806 C1794 1.349 . S
C1806 H1800 0.950 . S
C1806 C1807 1.327 . S
C1807 H1801 0.950 . S
C1807 C1806 1.327 . S
C1807 C1811 1.429 . S
C1808 C1791 1.574 . S
C1808 H1802 0.949 . S
C1808 C1812 1.368 . S
C1809 C1790 1.429 . S
C1809 C1803 1.429 . S
C1809 C1810 1.523 . S
C1810 C1791 1.368 . S
C1810 C1804 1.368 . S
C1810 C1809 1.523 . S
C1811 C1795 1.429 . S
C1811 C1807 1.429 . S
C1811 C1812 1.523 . S
C1812 C1796 1.368 . S
C1812 C1808 1.368 . S
C1812 C1811 1.523 . S
H1813 C1788 0.950 . S
H1814 C1790 0.950 . S
H1815 C1791 0.949 . S
H1816 C1793 0.950 . S
H1817 C1795 0.950 . S
C1818 C1819 1.349 . S
C1818 C1820 1.327 . S
C1818 H1843 0.950 . S
C1819 C1818 1.349 . S
C1819 C1835 1.349 . S
C1820 C1818 1.327 . S
C1820 C1839 1.429 . S
C1820 H1844 0.950 . S
C1821 C1838 1.574 . S
C1821 C1840 1.368 . S
C1821 H1845 0.949 . S
H1822 C1826 0.949 . S
C1823 C1824 1.349 . S
C1823 C1825 1.327 . S
C1823 H1846 0.950 . S
C1824 C1823 1.349 . S
C1824 C1836 1.349 . S
C1825 C1823 1.327 . S
C1825 C1841 1.429 . S
C1825 H1847 0.950 . S
C1826 H1822 0.949 . S
C1826 C1834 1.574 . S
C1826 C1842 1.368 . S
H1827 C1835 0.950 . S
H1828 C1833 0.950 . S
H1829 C1834 0.949 . S
H1830 C1836 0.950 . S
H1831 C1837 0.950 . S
H1832 C1838 0.949 . S
C1833 H1828 0.950 . S
C1833 C1835 1.327 . S
C1833 C1839 1.429 . S
C1834 C1826 1.574 . S
C1834 H1829 0.949 . S
C1834 C1840 1.368 . S
C1835 C1819 1.349 . S
C1835 H1827 0.950 . S
C1835 C1833 1.327 . S
C1836 C1824 1.349 . S
C1836 H1830 0.950 . S
C1836 C1837 1.327 . S
C1837 H1831 0.950 . S
C1837 C1836 1.327 . S
C1837 C1841 1.429 . S
C1838 C1821 1.574 . S
C1838 H1832 0.949 . S
C1838 C1842 1.368 . S
C1839 C1820 1.429 . S
C1839 C1833 1.429 . S
C1839 C1840 1.523 . S
C1840 C1821 1.368 . S
C1840 C1834 1.368 . S
C1840 C1839 1.523 . S
C1841 C1825 1.429 . S
C1841 C1837 1.429 . S
C1841 C1842 1.523 . S
C1842 C1826 1.368 . S
C1842 C1838 1.368 . S
C1842 C1841 1.523 . S
H1843 C1818 0.950 . S
H1844 C1820 0.950 . S
H1845 C1821 0.949 . S
H1846 C1823 0.950 . S
H1847 C1825 0.950 . S
C1848 C1849 1.349 . S
C1848 C1850 1.327 . S
C1848 H1873 0.950 . S
C1849 C1848 1.349 . S
C1849 C1865 1.349 . S
C1850 C1848 1.327 . S
C1850 C1869 1.429 . S
C1850 H1874 0.950 . S
C1851 C1868 1.574 . S
C1851 C1870 1.368 . S
C1851 H1875 0.949 . S
H1852 C1856 0.949 . S
C1853 C1854 1.349 . S
C1853 C1855 1.327 . S
C1853 H1876 0.950 . S
C1854 C1853 1.349 . S
C1854 C1866 1.349 . S
C1855 C1853 1.327 . S
C1855 C1871 1.429 . S
C1855 H1877 0.950 . S
C1856 H1852 0.949 . S
C1856 C1864 1.574 . S
C1856 C1872 1.368 . S
H1857 C1865 0.950 . S
H1858 C1863 0.950 . S
H1859 C1864 0.949 . S
H1860 C1866 0.950 . S
H1861 C1867 0.950 . S
H1862 C1868 0.949 . S
C1863 H1858 0.950 . S
C1863 C1865 1.327 . S
C1863 C1869 1.429 . S
C1864 C1856 1.574 . S
C1864 H1859 0.949 . S
C1864 C1870 1.368 . S
C1865 C1849 1.349 . S
C1865 H1857 0.950 . S
C1865 C1863 1.327 . S
C1866 C1854 1.349 . S
C1866 H1860 0.950 . S
C1866 C1867 1.327 . S
C1867 H1861 0.950 . S
C1867 C1866 1.327 . S
C1867 C1871 1.429 . S
C1868 C1851 1.574 . S
C1868 H1862 0.949 . S
C1868 C1872 1.368 . S
C1869 C1850 1.429 . S
C1869 C1863 1.429 . S
C1869 C1870 1.523 . S
C1870 C1851 1.368 . S
C1870 C1864 1.368 . S
C1870 C1869 1.523 . S
C1871 C1855 1.429 . S
C1871 C1867 1.429 . S
C1871 C1872 1.523 . S
C1872 C1856 1.368 . S
C1872 C1868 1.368 . S
C1872 C1871 1.523 . S
H1873 C1848 0.950 . S
H1874 C1850 0.950 . S
H1875 C1851 0.949 . S
H1876 C1853 0.950 . S
H1877 C1855 0.950 . S
C1878 C1879 1.349 . S
C1878 C1880 1.327 . S
C1878 H1903 0.950 . S
C1879 C1878 1.349 . S
C1879 C1895 1.349 . S
C1880 C1878 1.327 . S
C1880 C1899 1.429 . S
C1880 H1904 0.950 . S
C1881 C1898 1.574 . S
C1881 C1900 1.368 . S
C1881 H1905 0.949 . S
H1882 C1886 0.949 . S
C1883 C1884 1.349 . S
C1883 C1885 1.327 . S
C1883 H1906 0.950 . S
C1884 C1883 1.349 . S
C1884 C1896 1.349 . S
C1885 C1883 1.327 . S
C1885 C1901 1.429 . S
C1885 H1907 0.950 . S
C1886 H1882 0.949 . S
C1886 C1894 1.574 . S
C1886 C1902 1.368 . S
H1887 C1895 0.950 . S
H1888 C1893 0.950 . S
H1889 C1894 0.949 . S
H1890 C1896 0.950 . S
H1891 C1897 0.950 . S
H1892 C1898 0.949 . S
C1893 H1888 0.950 . S
C1893 C1895 1.327 . S
C1893 C1899 1.429 . S
C1894 C1886 1.574 . S
C1894 H1889 0.949 . S
C1894 C1900 1.368 . S
C1895 C1879 1.349 . S
C1895 H1887 0.950 . S
C1895 C1893 1.327 . S
C1896 C1884 1.349 . S
C1896 H1890 0.950 . S
C1896 C1897 1.327 . S
C1897 H1891 0.950 . S
C1897 C1896 1.327 . S
C1897 C1901 1.429 . S
C1898 C1881 1.574 . S
C1898 H1892 0.949 . S
C1898 C1902 1.368 . S
C1899 C1880 1.429 . S
C1899 C1893 1.429 . S
C1899 C1900 1.523 . S
C1900 C1881 1.368 . S
C1900 C1894 1.368 . S
C1900 C1899 1.523 . S
C1901 C1885 1.429 . S
C1901 C1897 1.429 . S
C1901 C1902 1.523 . S
C1902 C1886 1.368 . S
C1902 C1898 1.368 . S
C1902 C1901 1.523 . S
H1903 C1878 0.950 . S
H1904 C1880 0.950 . S
H1905 C1881 0.949 . S
H1906 C1883 0.950 . S
H1907 C1885 0.950 . S
C1908 C1909 1.349 . S
C1908 C1910 1.327 . S
C1908 H1933 0.950 . S
C1909 C1908 1.349 . S
C1909 C1925 1.349 . S
C1910 C1908 1.327 . S
C1910 C1929 1.429 . S
C1910 H1934 0.950 . S
C1911 C1928 1.574 . S
C1911 C1930 1.368 . S
C1911 H1935 0.949 . S
H1912 C1916 0.949 . S
C1913 C1914 1.349 . S
C1913 C1915 1.327 . S
C1913 H1936 0.950 . S
C1914 C1913 1.349 . S
C1914 C1926 1.349 . S
C1915 C1913 1.327 . S
C1915 C1931 1.429 . S
C1915 H1937 0.950 . S
C1916 H1912 0.949 . S
C1916 C1924 1.574 . S
C1916 C1932 1.368 . S
H1917 C1925 0.950 . S
H1918 C1923 0.950 . S
H1919 C1924 0.949 . S
H1920 C1926 0.950 . S
H1921 C1927 0.950 . S
H1922 C1928 0.949 . S
C1923 H1918 0.950 . S
C1923 C1925 1.327 . S
C1923 C1929 1.429 . S
C1924 C1916 1.574 . S
C1924 H1919 0.949 . S
C1924 C1930 1.368 . S
C1925 C1909 1.349 . S
C1925 H1917 0.950 . S
C1925 C1923 1.327 . S
C1926 C1914 1.349 . S
C1926 H1920 0.950 . S
C1926 C1927 1.327 . S
C1927 H1921 0.950 . S
C1927 C1926 1.327 . S
C1927 C1931 1.429 . S
C1928 C1911 1.574 . S
C1928 H1922 0.949 . S
C1928 C1932 1.368 . S
C1929 C1910 1.429 . S
C1929 C1923 1.429 . S
C1929 C1930 1.523 . S
C1930 C1911 1.368 . S
C1930 C1924 1.368 . S
C1930 C1929 1.523 . S
C1931 C1915 1.429 . S
C1931 C1927 1.429 . S
C1931 C1932 1.523 . S
C1932 C1916 1.368 . S
C1932 C1928 1.368 . S
C1932 C1931 1.523 . S
H1933 C1908 0.950 . S
H1934 C1910 0.950 . S
H1935 C1911 0.949 . S
H1936 C1913 0.950 . S
H1937 C1915 0.950 . S
C1938 C1939 1.349 . S
C1938 C1940 1.327 . S
C1938 H1963 0.950 . S
C1939 C1938 1.349 . S
C1939 C1955 1.349 . S
C1940 C1938 1.327 . S
C1940 C1959 1.429 . S
C1940 H1964 0.950 . S
C1941 C1958 1.574 . S
C1941 C1960 1.368 . S
C1941 H1965 0.949 . S
H1942 C1946 0.949 . S
C1943 C1944 1.349 . S
C1943 C1945 1.327 . S
C1943 H1966 0.950 . S
C1944 C1943 1.349 . S
C1944 C1956 1.349 . S
C1945 C1943 1.327 . S
C1945 C1961 1.429 . S
C1945 H1967 0.950 . S
C1946 H1942 0.949 . S
C1946 C1954 1.574 . S
C1946 C1962 1.368 . S
H1947 C1955 0.950 . S
H1948 C1953 0.950 . S
H1949 C1954 0.949 . S
H1950 C1956 0.950 . S
H1951 C1957 0.950 . S
H1952 C1958 0.949 . S
C1953 H1948 0.950 . S
C1953 C1955 1.327 . S
C1953 C1959 1.429 . S
C1954 C1946 1.574 . S
C1954 H1949 0.949 . S
C1954 C1960 1.368 . S
C1955 C1939 1.349 . S
C1955 H1947 0.950 . S
C1955 C1953 1.327 . S
C1956 C1944 1.349 . S
C1956 H1950 0.950 . S
C1956 C1957 1.327 . S
C1957 H1951 0.950 . S
C1957 C1956 1.327 . S
C1957 C1961 1.429 . S
C1958 C1941 1.574 . S
C1958 H1952 0.949 . S
C1958 C1962 1.368 . S
C1959 C1940 1.429 . S
C1959 C1953 1.429 . S
C1959 C1960 1.523 . S
C1960 C1941 1.368 . S
C1960 C1954 1.368 . S
C1960 C1959 1.523 . S
C1961 C1945 1.429 . S
C1961 C1957 1.429 . S
C1961 C1962 1.523 . S
C1962 C1946 1.368 . S
C1962 C1958 1.368 . S
C1962 C1961 1.523 . S
H1963 C1938 0.950 . S
H1964 C1940 0.950 . S
H1965 C1941 0.949 . S
H1966 C1943 0.950 . S
H1967 C1945 0.950 . S
C1968 C1969 1.349 . S
C1968 C1970 1.327 . S
C1968 H1993 0.950 . S
C1969 C1968 1.349 . S
C1969 C1985 1.349 . S
C1970 C1968 1.327 . S
C1970 C1989 1.429 . S
C1970 H1994 0.950 . S
C1971 C1988 1.574 . S
C1971 C1990 1.368 . S
C1971 H1995 0.949 . S
H1972 C1976 0.949 . S
C1973 C1974 1.349 . S
C1973 C1975 1.327 . S
C1973 H1996 0.950 . S
C1974 C1973 1.349 . S
C1974 C1986 1.349 . S
C1975 C1973 1.327 . S
C1975 C1991 1.429 . S
C1975 H1997 0.950 . S
C1976 H1972 0.949 . S
C1976 C1984 1.574 . S
C1976 C1992 1.368 . S
H1977 C1985 0.950 . S
H1978 C1983 0.950 . S
H1979 C1984 0.949 . S
H1980 C1986 0.950 . S
H1981 C1987 0.950 . S
H1982 C1988 0.949 . S
C1983 H1978 0.950 . S
C1983 C1985 1.327 . S
C1983 C1989 1.429 . S
C1984 C1976 1.574 . S
C1984 H1979 0.949 . S
C1984 C1990 1.368 . S
C1985 C1969 1.349 . S
C1985 H1977 0.950 . S
C1985 C1983 1.327 . S
C1986 C1974 1.349 . S
C1986 H1980 0.950 . S
C1986 C1987 1.327 . S
C1987 H1981 0.950 . S
C1987 C1986 1.327 . S
C1987 C1991 1.429 . S
C1988 C1971 1.574 . S
C1988 H1982 0.949 . S
C1988 C1992 1.368 . S
C1989 C1970 1.429 . S
C1989 C1983 1.429 . S
C1989 C1990 1.523 . S
C1990 C1971 1.368 . S
C1990 C1984 1.368 . S
C1990 C1989 1.523 . S
C1991 C1975 1.429 . S
C1991 C1987 1.429 . S
C1991 C1992 1.523 . S
C1992 C1976 1.368 . S
C1992 C1988 1.368 . S
C1992 C1991 1.523 . S
H1993 C1968 0.950 . S
H1994 C1970 0.950 . S
H1995 C1971 0.949 . S
H1996 C1973 0.950 . S
H1997 C1975 0.950 . S
C1998 C1999 1.349 . S
C1998 C2000 1.327 . S
C1998 H2023 0.950 . S
C1999 C1998 1.349 . S
C1999 C2015 1.349 . S
C2000 C1998 1.327 . S
C2000 C2019 1.429 . S
C2000 H2024 0.950 . S
C2001 C2018 1.574 . S
C2001 C2020 1.368 . S
C2001 H2025 0.949 . S
H2002 C2006 0.949 . S
C2003 C2004 1.349 . S
C2003 C2005 1.327 . S
C2003 H2026 0.950 . S
C2004 C2003 1.349 . S
C2004 C2016 1.349 . S
C2005 C2003 1.327 . S
C2005 C2021 1.429 . S
C2005 H2027 0.950 . S
C2006 H2002 0.949 . S
C2006 C2014 1.574 . S
C2006 C2022 1.368 . S
H2007 C2015 0.950 . S
H2008 C2013 0.950 . S
H2009 C2014 0.949 . S
H2010 C2016 0.950 . S
H2011 C2017 0.950 . S
H2012 C2018 0.949 . S
C2013 H2008 0.950 . S
C2013 C2015 1.327 . S
C2013 C2019 1.429 . S
C2014 C2006 1.574 . S
C2014 H2009 0.949 . S
C2014 C2020 1.368 . S
C2015 C1999 1.349 . S
C2015 H2007 0.950 . S
C2015 C2013 1.327 . S
C2016 C2004 1.349 . S
C2016 H2010 0.950 . S
C2016 C2017 1.327 . S
C2017 H2011 0.950 . S
C2017 C2016 1.327 . S
C2017 C2021 1.429 . S
C2018 C2001 1.574 . S
C2018 H2012 0.949 . S
C2018 C2022 1.368 . S
C2019 C2000 1.429 . S
C2019 C2013 1.429 . S
C2019 C2020 1.523 . S
C2020 C2001 1.368 . S
C2020 C2014 1.368 . S
C2020 C2019 1.523 . S
C2021 C2005 1.429 . S
C2021 C2017 1.429 . S
C2021 C2022 1.523 . S
C2022 C2006 1.368 . S
C2022 C2018 1.368 . S
C2022 C2021 1.523 . S
H2023 C1998 0.950 . S
H2024 C2000 0.950 . S
H2025 C2001 0.949 . S
H2026 C2003 0.950 . S
H2027 C2005 0.950 . S
C2028 C2029 1.349 . S
C2028 C2030 1.327 . S
C2028 H2053 0.950 . S
C2029 C2028 1.349 . S
C2029 C2045 1.349 . S
C2030 C2028 1.327 . S
C2030 C2049 1.429 . S
C2030 H2054 0.950 . S
C2031 C2048 1.574 . S
C2031 C2050 1.368 . S
C2031 H2055 0.949 . S
H2032 C2036 0.949 . S
C2033 C2034 1.349 . S
C2033 C2035 1.327 . S
C2033 H2056 0.950 . S
C2034 C2033 1.349 . S
C2034 C2046 1.349 . S
C2035 C2033 1.327 . S
C2035 C2051 1.429 . S
C2035 H2057 0.950 . S
C2036 H2032 0.949 . S
C2036 C2044 1.574 . S
C2036 C2052 1.368 . S
H2037 C2045 0.950 . S
H2038 C2043 0.950 . S
H2039 C2044 0.949 . S
H2040 C2046 0.950 . S
H2041 C2047 0.950 . S
H2042 C2048 0.949 . S
C2043 H2038 0.950 . S
C2043 C2045 1.327 . S
C2043 C2049 1.429 . S
C2044 C2036 1.574 . S
C2044 H2039 0.949 . S
C2044 C2050 1.368 . S
C2045 C2029 1.349 . S
C2045 H2037 0.950 . S
C2045 C2043 1.327 . S
C2046 C2034 1.349 . S
C2046 H2040 0.950 . S
C2046 C2047 1.327 . S
C2047 H2041 0.950 . S
C2047 C2046 1.327 . S
C2047 C2051 1.429 . S
C2048 C2031 1.574 . S
C2048 H2042 0.949 . S
C2048 C2052 1.368 . S
C2049 C2030 1.429 . S
C2049 C2043 1.429 . S
C2049 C2050 1.523 . S
C2050 C2031 1.368 . S
C2050 C2044 1.368 . S
C2050 C2049 1.523 . S
C2051 C2035 1.429 . S
C2051 C2047 1.429 . S
C2051 C2052 1.523 . S
C2052 C2036 1.368 . S
C2052 C2048 1.368 . S
C2052 C2051 1.523 . S
H2053 C2028 0.950 . S
H2054 C2030 0.950 . S
H2055 C2031 0.949 . S
H2056 C2033 0.950 . S
H2057 C2035 0.950 . S
C2058 C2059 1.349 . S
C2058 C2060 1.327 . S
C2058 H2083 0.950 . S
C2059 C2058 1.349 . S
C2059 C2075 1.349 . S
C2060 C2058 1.327 . S
C2060 C2079 1.429 . S
C2060 H2084 0.950 . S
C2061 C2078 1.574 . S
C2061 C2080 1.368 . S
C2061 H2085 0.949 . S
H2062 C2066 0.949 . S
C2063 C2064 1.349 . S
C2063 C2065 1.327 . S
C2063 H2086 0.950 . S
C2064 C2063 1.349 . S
C2064 C2076 1.349 . S
C2065 C2063 1.327 . S
C2065 C2081 1.429 . S
C2065 H2087 0.950 . S
C2066 H2062 0.949 . S
C2066 C2074 1.574 . S
C2066 C2082 1.368 . S
H2067 C2075 0.950 . S
H2068 C2073 0.950 . S
H2069 C2074 0.949 . S
H2070 C2076 0.950 . S
H2071 C2077 0.950 . S
H2072 C2078 0.949 . S
C2073 H2068 0.950 . S
C2073 C2075 1.327 . S
C2073 C2079 1.429 . S
C2074 C2066 1.574 . S
C2074 H2069 0.949 . S
C2074 C2080 1.368 . S
C2075 C2059 1.349 . S
C2075 H2067 0.950 . S
C2075 C2073 1.327 . S
C2076 C2064 1.349 . S
C2076 H2070 0.950 . S
C2076 C2077 1.327 . S
C2077 H2071 0.950 . S
C2077 C2076 1.327 . S
C2077 C2081 1.429 . S
C2078 C2061 1.574 . S
C2078 H2072 0.949 . S
C2078 C2082 1.368 . S
C2079 C2060 1.429 . S
C2079 C2073 1.429 . S
C2079 C2080 1.523 . S
C2080 C2061 1.368 . S
C2080 C2074 1.368 . S
C2080 C2079 1.523 . S
C2081 C2065 1.429 . S
C2081 C2077 1.429 . S
C2081 C2082 1.523 . S
C2082 C2066 1.368 . S
C2082 C2078 1.368 . S
C2082 C2081 1.523 . S
H2083 C2058 0.950 . S
H2084 C2060 0.950 . S
H2085 C2061 0.949 . S
H2086 C2063 0.950 . S
H2087 C2065 0.950 . S
C2088 C2089 1.349 . S
C2088 C2090 1.327 . S
C2088 H2113 0.950 . S
C2089 C2088 1.349 . S
C2089 C2105 1.349 . S
C2090 C2088 1.327 . S
C2090 C2109 1.429 . S
C2090 H2114 0.950 . S
C2091 C2108 1.574 . S
C2091 C2110 1.368 . S
C2091 H2115 0.949 . S
H2092 C2096 0.949 . S
C2093 C2094 1.349 . S
C2093 C2095 1.327 . S
C2093 H2116 0.950 . S
C2094 C2093 1.349 . S
C2094 C2106 1.349 . S
C2095 C2093 1.327 . S
C2095 C2111 1.429 . S
C2095 H2117 0.950 . S
C2096 H2092 0.949 . S
C2096 C2104 1.574 . S
C2096 C2112 1.368 . S
H2097 C2105 0.950 . S
H2098 C2103 0.950 . S
H2099 C2104 0.949 . S
H2100 C2106 0.950 . S
H2101 C2107 0.950 . S
H2102 C2108 0.949 . S
C2103 H2098 0.950 . S
C2103 C2105 1.327 . S
C2103 C2109 1.429 . S
C2104 C2096 1.574 . S
C2104 H2099 0.949 . S
C2104 C2110 1.368 . S
C2105 C2089 1.349 . S
C2105 H2097 0.950 . S
C2105 C2103 1.327 . S
C2106 C2094 1.349 . S
C2106 H2100 0.950 . S
C2106 C2107 1.327 . S
C2107 H2101 0.950 . S
C2107 C2106 1.327 . S
C2107 C2111 1.429 . S
C2108 C2091 1.574 . S
C2108 H2102 0.949 . S
C2108 C2112 1.368 . S
C2109 C2090 1.429 . S
C2109 C2103 1.429 . S
C2109 C2110 1.523 . S
C2110 C2091 1.368 . S
C2110 C2104 1.368 . S
C2110 C2109 1.523 . S
C2111 C2095 1.429 . S
C2111 C2107 1.429 . S
C2111 C2112 1.523 . S
C2112 C2096 1.368 . S
C2112 C2108 1.368 . S
C2112 C2111 1.523 . S
H2113 C2088 0.950 . S
H2114 C2090 0.950 . S
H2115 C2091 0.949 . S
H2116 C2093 0.950 . S
H2117 C2095 0.950 . S
C2118 C2119 1.349 . S
C2118 C2120 1.327 . S
C2118 H2143 0.950 . S
C2119 C2118 1.349 . S
C2119 C2135 1.349 . S
C2120 C2118 1.327 . S
C2120 C2139 1.429 . S
C2120 H2144 0.950 . S
C2121 C2138 1.574 . S
C2121 C2140 1.368 . S
C2121 H2145 0.949 . S
H2122 C2126 0.949 . S
C2123 C2124 1.349 . S
C2123 C2125 1.327 . S
C2123 H2146 0.950 . S
C2124 C2123 1.349 . S
C2124 C2136 1.349 . S
C2125 C2123 1.327 . S
C2125 C2141 1.429 . S
C2125 H2147 0.950 . S
C2126 H2122 0.949 . S
C2126 C2134 1.574 . S
C2126 C2142 1.368 . S
H2127 C2135 0.950 . S
H2128 C2133 0.950 . S
H2129 C2134 0.949 . S
H2130 C2136 0.950 . S
H2131 C2137 0.950 . S
H2132 C2138 0.949 . S
C2133 H2128 0.950 . S
C2133 C2135 1.327 . S
C2133 C2139 1.429 . S
C2134 C2126 1.574 . S
C2134 H2129 0.949 . S
C2134 C2140 1.368 . S
C2135 C2119 1.349 . S
C2135 H2127 0.950 . S
C2135 C2133 1.327 . S
C2136 C2124 1.349 . S
C2136 H2130 0.950 . S
C2136 C2137 1.327 . S
C2137 H2131 0.950 . S
C2137 C2136 1.327 . S
C2137 C2141 1.429 . S
C2138 C2121 1.574 . S
C2138 H2132 0.949 . S
C2138 C2142 1.368 . S
C2139 C2120 1.429 . S
C2139 C2133 1.429 . S
C2139 C2140 1.523 . S
C2140 C2121 1.368 . S
C2140 C2134 1.368 . S
C2140 C2139 1.523 . S
C2141 C2125 1.429 . S
C2141 C2137 1.429 . S
C2141 C2142 1.523 . S
C2142 C2126 1.368 . S
C2142 C2138 1.368 . S
C2142 C2141 1.523 . S
H2143 C2118 0.950 . S
H2144 C2120 0.950 . S
H2145 C2121 0.949 . S
H2146 C2123 0.950 . S
H2147 C2125 0.950 . S
C2148 C2149 1.349 . S
C2148 C2150 1.327 . S
C2148 H2173 0.950 . S
C2149 C2148 1.349 . S
C2149 C2165 1.349 . S
C2150 C2148 1.327 . S
C2150 C2169 1.429 . S
C2150 H2174 0.950 . S
C2151 C2168 1.574 . S
C2151 C2170 1.368 . S
C2151 H2175 0.949 . S
H2152 C2156 0.949 . S
C2153 C2154 1.349 . S
C2153 C2155 1.327 . S
C2153 H2176 0.950 . S
C2154 C2153 1.349 . S
C2154 C2166 1.349 . S
C2155 C2153 1.327 . S
C2155 C2171 1.429 . S
C2155 H2177 0.950 . S
C2156 H2152 0.949 . S
C2156 C2164 1.574 . S
C2156 C2172 1.368 . S
H2157 C2165 0.950 . S
H2158 C2163 0.950 . S
H2159 C2164 0.949 . S
H2160 C2166 0.950 . S
H2161 C2167 0.950 . S
H2162 C2168 0.949 . S
C2163 H2158 0.950 . S
C2163 C2165 1.327 . S
C2163 C2169 1.429 . S
C2164 C2156 1.574 . S
C2164 H2159 0.949 . S
C2164 C2170 1.368 . S
C2165 C2149 1.349 . S
C2165 H2157 0.950 . S
C2165 C2163 1.327 . S
C2166 C2154 1.349 . S
C2166 H2160 0.950 . S
C2166 C2167 1.327 . S
C2167 H2161 0.950 . S
C2167 C2166 1.327 . S
C2167 C2171 1.429 . S
C2168 C2151 1.574 . S
C2168 H2162 0.949 . S
C2168 C2172 1.368 . S
C2169 C2150 1.429 . S
C2169 C2163 1.429 . S
C2169 C2170 1.523 . S
C2170 C2151 1.368 . S
C2170 C2164 1.368 . S
C2170 C2169 1.523 . S
C2171 C2155 1.429 . S
C2171 C2167 1.429 . S
C2171 C2172 1.523 . S
C2172 C2156 1.368 . S
C2172 C2168 1.368 . S
C2172 C2171 1.523 . S
H2173 C2148 0.950 . S
H2174 C2150 0.950 . S
H2175 C2151 0.949 . S
H2176 C2153 0.950 . S
H2177 C2155 0.950 . S
C2178 C2179 1.349 . S
C2178 C2180 1.327 . S
C2178 H2203 0.950 . S
C2179 C2178 1.349 . S
C2179 C2195 1.349 . S
C2180 C2178 1.327 . S
C2180 C2199 1.429 . S
C2180 H2204 0.950 . S
C2181 C2198 1.574 . S
C2181 C2200 1.368 . S
C2181 H2205 0.949 . S
H2182 C2186 0.949 . S
C2183 C2184 1.349 . S
C2183 C2185 1.327 . S
C2183 H2206 0.950 . S
C2184 C2183 1.349 . S
C2184 C2196 1.349 . S
C2185 C2183 1.327 . S
C2185 C2201 1.429 . S
C2185 H2207 0.950 . S
C2186 H2182 0.949 . S
C2186 C2194 1.574 . S
C2186 C2202 1.368 . S
H2187 C2195 0.950 . S
H2188 C2193 0.950 . S
H2189 C2194 0.949 . S
H2190 C2196 0.950 . S
H2191 C2197 0.950 . S
H2192 C2198 0.949 . S
C2193 H2188 0.950 . S
C2193 C2195 1.327 . S
C2193 C2199 1.429 . S
C2194 C2186 1.574 . S
C2194 H2189 0.949 . S
C2194 C2200 1.368 . S
C2195 C2179 1.349 . S
C2195 H2187 0.950 . S
C2195 C2193 1.327 . S
C2196 C2184 1.349 . S
C2196 H2190 0.950 . S
C2196 C2197 1.327 . S
C2197 H2191 0.950 . S
C2197 C2196 1.327 . S
C2197 C2201 1.429 . S
C2198 C2181 1.574 . S
C2198 H2192 0.949 . S
C2198 C2202 1.368 . S
C2199 C2180 1.429 . S
C2199 C2193 1.429 . S
C2199 C2200 1.523 . S
C2200 C2181 1.368 . S
C2200 C2194 1.368 . S
C2200 C2199 1.523 . S
C2201 C2185 1.429 . S
C2201 C2197 1.429 . S
C2201 C2202 1.523 . S
C2202 C2186 1.368 . S
C2202 C2198 1.368 . S
C2202 C2201 1.523 . S
H2203 C2178 0.950 . S
H2204 C2180 0.950 . S
H2205 C2181 0.949 . S
H2206 C2183 0.950 . S
H2207 C2185 0.950 . S
C2208 C2209 1.349 . S
C2208 C2210 1.327 . S
C2208 H2233 0.950 . S
C2209 C2208 1.349 . S
C2209 C2225 1.349 . S
C2210 C2208 1.327 . S
C2210 C2229 1.429 . S
C2210 H2234 0.950 . S
C2211 C2228 1.574 . S
C2211 C2230 1.368 . S
C2211 H2235 0.949 . S
H2212 C2216 0.949 . S
C2213 C2214 1.349 . S
C2213 C2215 1.327 . S
C2213 H2236 0.950 . S
C2214 C2213 1.349 . S
C2214 C2226 1.349 . S
C2215 C2213 1.327 . S
C2215 C2231 1.429 . S
C2215 H2237 0.950 . S
C2216 H2212 0.949 . S
C2216 C2224 1.574 . S
C2216 C2232 1.368 . S
H2217 C2225 0.950 . S
H2218 C2223 0.950 . S
H2219 C2224 0.949 . S
H2220 C2226 0.950 . S
H2221 C2227 0.950 . S
H2222 C2228 0.949 . S
C2223 H2218 0.950 . S
C2223 C2225 1.327 . S
C2223 C2229 1.429 . S
C2224 C2216 1.574 . S
C2224 H2219 0.949 . S
C2224 C2230 1.368 . S
C2225 C2209 1.349 . S
C2225 H2217 0.950 . S
C2225 C2223 1.327 . S
C2226 C2214 1.349 . S
C2226 H2220 0.950 . S
C2226 C2227 1.327 . S
C2227 H2221 0.950 . S
C2227 C2226 1.327 . S
C2227 C2231 1.429 . S
C2228 C2211 1.574 . S
C2228 H2222 0.949 . S
C2228 C2232 1.368 . S
C2229 C2210 1.429 . S
C2229 C2223 1.429 . S
C2229 C2230 1.523 . S
C2230 C2211 1.368 . S
C2230 C2224 1.368 . S
C2230 C2229 1.523 . S
C2231 C2215 1.429 . S
C2231 C2227 1.429 . S
C2231 C2232 1.523 . S
C2232 C2216 1.368 . S
C2232 C2228 1.368 . S
C2232 C2231 1.523 . S
H2233 C2208 0.950 . S
H2234 C2210 0.950 . S
H2235 C2211 0.949 . S
H2236 C2213 0.950 . S
H2237 C2215 0.950 . S
C2238 C2239 1.349 . S
C2238 C2240 1.327 . S
C2238 H2263 0.950 . S
C2239 C2238 1.349 . S
C2239 C2255 1.349 . S
C2240 C2238 1.327 . S
C2240 C2259 1.429 . S
C2240 H2264 0.950 . S
C2241 C2258 1.574 . S
C2241 C2260 1.368 . S
C2241 H2265 0.949 . S
H2242 C2246 0.949 . S
C2243 C2244 1.349 . S
C2243 C2245 1.327 . S
C2243 H2266 0.950 . S
C2244 C2243 1.349 . S
C2244 C2256 1.349 . S
C2245 C2243 1.327 . S
C2245 C2261 1.429 . S
C2245 H2267 0.950 . S
C2246 H2242 0.949 . S
C2246 C2254 1.574 . S
C2246 C2262 1.368 . S
H2247 C2255 0.950 . S
H2248 C2253 0.950 . S
H2249 C2254 0.949 . S
H2250 C2256 0.950 . S
H2251 C2257 0.950 . S
H2252 C2258 0.949 . S
C2253 H2248 0.950 . S
C2253 C2255 1.327 . S
C2253 C2259 1.429 . S
C2254 C2246 1.574 . S
C2254 H2249 0.949 . S
C2254 C2260 1.368 . S
C2255 C2239 1.349 . S
C2255 H2247 0.950 . S
C2255 C2253 1.327 . S
C2256 C2244 1.349 . S
C2256 H2250 0.950 . S
C2256 C2257 1.327 . S
C2257 H2251 0.950 . S
C2257 C2256 1.327 . S
C2257 C2261 1.429 . S
C2258 C2241 1.574 . S
C2258 H2252 0.949 . S
C2258 C2262 1.368 . S
C2259 C2240 1.429 . S
C2259 C2253 1.429 . S
C2259 C2260 1.523 . S
C2260 C2241 1.368 . S
C2260 C2254 1.368 . S
C2260 C2259 1.523 . S
C2261 C2245 1.429 . S
C2261 C2257 1.429 . S
C2261 C2262 1.523 . S
C2262 C2246 1.368 . S
C2262 C2258 1.368 . S
C2262 C2261 1.523 . S
H2263 C2238 0.950 . S
H2264 C2240 0.950 . S
H2265 C2241 0.949 . S
H2266 C2243 0.950 . S
H2267 C2245 0.950 . S
C2268 C2269 1.349 . S
C2268 C2270 1.327 . S
C2268 H2293 0.950 . S
C2269 C2268 1.349 . S
C2269 C2285 1.349 . S
C2270 C2268 1.327 . S
C2270 C2289 1.429 . S
C2270 H2294 0.950 . S
C2271 C2288 1.574 . S
C2271 C2290 1.368 . S
C2271 H2295 0.949 . S
H2272 C2276 0.949 . S
C2273 C2274 1.349 . S
C2273 C2275 1.327 . S
C2273 H2296 0.950 . S
C2274 C2273 1.349 . S
C2274 C2286 1.349 . S
C2275 C2273 1.327 . S
C2275 C2291 1.429 . S
C2275 H2297 0.950 . S
C2276 H2272 0.949 . S
C2276 C2284 1.574 . S
C2276 C2292 1.368 . S
H2277 C2285 0.950 . S
H2278 C2283 0.950 . S
H2279 C2284 0.949 . S
H2280 C2286 0.950 . S
H2281 C2287 0.950 . S
H2282 C2288 0.949 . S
C2283 H2278 0.950 . S
C2283 C2285 1.327 . S
C2283 C2289 1.429 . S
C2284 C2276 1.574 . S
C2284 H2279 0.949 . S
C2284 C2290 1.368 . S
C2285 C2269 1.349 . S
C2285 H2277 0.950 . S
C2285 C2283 1.327 . S
C2286 C2274 1.349 . S
C2286 H2280 0.950 . S
C2286 C2287 1.327 . S
C2287 H2281 0.950 . S
C2287 C2286 1.327 . S
C2287 C2291 1.429 . S
C2288 C2271 1.574 . S
C2288 H2282 0.949 . S
C2288 C2292 1.368 . S
C2289 C2270 1.429 . S
C2289 C2283 1.429 . S
C2289 C2290 1.523 . S
C2290 C2271 1.368 . S
C2290 C2284 1.368 . S
C2290 C2289 1.523 . S
C2291 C2275 1.429 . S
C2291 C2287 1.429 . S
C2291 C2292 1.523 . S
C2292 C2276 1.368 . S
C2292 C2288 1.368 . S
C2292 C2291 1.523 . S
H2293 C2268 0.950 . S
H2294 C2270 0.950 . S
H2295 C2271 0.949 . S
H2296 C2273 0.950 . S
H2297 C2275 0.950 . S
C2298 C2299 1.349 . S
C2298 C2300 1.327 . S
C2298 H2323 0.950 . S
C2299 C2298 1.349 . S
C2299 C2315 1.349 . S
C2300 C2298 1.327 . S
C2300 C2319 1.429 . S
C2300 H2324 0.950 . S
C2301 C2318 1.574 . S
C2301 C2320 1.368 . S
C2301 H2325 0.949 . S
H2302 C2306 0.949 . S
C2303 C2304 1.349 . S
C2303 C2305 1.327 . S
C2303 H2326 0.950 . S
C2304 C2303 1.349 . S
C2304 C2316 1.349 . S
C2305 C2303 1.327 . S
C2305 C2321 1.429 . S
C2305 H2327 0.950 . S
C2306 H2302 0.949 . S
C2306 C2314 1.574 . S
C2306 C2322 1.368 . S
H2307 C2315 0.950 . S
H2308 C2313 0.950 . S
H2309 C2314 0.949 . S
H2310 C2316 0.950 . S
H2311 C2317 0.950 . S
H2312 C2318 0.949 . S
C2313 H2308 0.950 . S
C2313 C2315 1.327 . S
C2313 C2319 1.429 . S
C2314 C2306 1.574 . S
C2314 H2309 0.949 . S
C2314 C2320 1.368 . S
C2315 C2299 1.349 . S
C2315 H2307 0.950 . S
C2315 C2313 1.327 . S
C2316 C2304 1.349 . S
C2316 H2310 0.950 . S
C2316 C2317 1.327 . S
C2317 H2311 0.950 . S
C2317 C2316 1.327 . S
C2317 C2321 1.429 . S
C2318 C2301 1.574 . S
C2318 H2312 0.949 . S
C2318 C2322 1.368 . S
C2319 C2300 1.429 . S
C2319 C2313 1.429 . S
C2319 C2320 1.523 . S
C2320 C2301 1.368 . S
C2320 C2314 1.368 . S
C2320 C2319 1.523 . S
C2321 C2305 1.429 . S
C2321 C2317 1.429 . S
C2321 C2322 1.523 . S
C2322 C2306 1.368 . S
C2322 C2318 1.368 . S
C2322 C2321 1.523 . S
H2323 C2298 0.950 . S
H2324 C2300 0.950 . S
H2325 C2301 0.949 . S
H2326 C2303 0.950 . S
H2327 C2305 0.950 . S
C2328 C2329 1.349 . S
C2328 C2330 1.327 . S
C2328 H2353 0.950 . S
C2329 C2328 1.349 . S
C2329 C2345 1.349 . S
C2330 C2328 1.327 . S
C2330 C2349 1.429 . S
C2330 H2354 0.950 . S
C2331 C2348 1.574 . S
C2331 C2350 1.368 . S
C2331 H2355 0.949 . S
H2332 C2336 0.949 . S
C2333 C2334 1.349 . S
C2333 C2335 1.327 . S
C2333 H2356 0.950 . S
C2334 C2333 1.349 . S
C2334 C2346 1.349 . S
C2335 C2333 1.327 . S
C2335 C2351 1.429 . S
C2335 H2357 0.950 . S
C2336 H2332 0.949 . S
C2336 C2344 1.574 . S
C2336 C2352 1.368 . S
H2337 C2345 0.950 . S
H2338 C2343 0.950 . S
H2339 C2344 0.949 . S
H2340 C2346 0.950 . S
H2341 C2347 0.950 . S
H2342 C2348 0.949 . S
C2343 H2338 0.950 . S
C2343 C2345 1.327 . S
C2343 C2349 1.429 . S
C2344 C2336 1.574 . S
C2344 H2339 0.949 . S
C2344 C2350 1.368 . S
C2345 C2329 1.349 . S
C2345 H2337 0.950 . S
C2345 C2343 1.327 . S
C2346 C2334 1.349 . S
C2346 H2340 0.950 . S
C2346 C2347 1.327 . S
C2347 H2341 0.950 . S
C2347 C2346 1.327 . S
C2347 C2351 1.429 . S
C2348 C2331 1.574 . S
C2348 H2342 0.949 . S
C2348 C2352 1.368 . S
C2349 C2330 1.429 . S
C2349 C2343 1.429 . S
C2349 C2350 1.523 . S
C2350 C2331 1.368 . S
C2350 C2344 1.368 . S
C2350 C2349 1.523 . S
C2351 C2335 1.429 . S
C2351 C2347 1.429 . S
C2351 C2352 1.523 . S
C2352 C2336 1.368 . S
C2352 C2348 1.368 . S
C2352 C2351 1.523 . S
H2353 C2328 0.950 . S
H2354 C2330 0.950 . S
H2355 C2331 0.949 . S
H2356 C2333 0.950 . S
H2357 C2335 0.950 . S
C2358 C2359 1.349 . S
C2358 C2360 1.327 . S
C2358 H2383 0.950 . S
C2359 C2358 1.349 . S
C2359 C2375 1.349 . S
C2360 C2358 1.327 . S
C2360 C2379 1.429 . S
C2360 H2384 0.950 . S
C2361 C2378 1.574 . S
C2361 C2380 1.368 . S
C2361 H2385 0.949 . S
H2362 C2366 0.949 . S
C2363 C2364 1.349 . S
C2363 C2365 1.327 . S
C2363 H2386 0.950 . S
C2364 C2363 1.349 . S
C2364 C2376 1.349 . S
C2365 C2363 1.327 . S
C2365 C2381 1.429 . S
C2365 H2387 0.950 . S
C2366 H2362 0.949 . S
C2366 C2374 1.574 . S
C2366 C2382 1.368 . S
H2367 C2375 0.950 . S
H2368 C2373 0.950 . S
H2369 C2374 0.949 . S
H2370 C2376 0.950 . S
H2371 C2377 0.950 . S
H2372 C2378 0.949 . S
C2373 H2368 0.950 . S
C2373 C2375 1.327 . S
C2373 C2379 1.429 . S
C2374 C2366 1.574 . S
C2374 H2369 0.949 . S
C2374 C2380 1.368 . S
C2375 C2359 1.349 . S
C2375 H2367 0.950 . S
C2375 C2373 1.327 . S
C2376 C2364 1.349 . S
C2376 H2370 0.950 . S
C2376 C2377 1.327 . S
C2377 H2371 0.950 . S
C2377 C2376 1.327 . S
C2377 C2381 1.429 . S
C2378 C2361 1.574 . S
C2378 H2372 0.949 . S
C2378 C2382 1.368 . S
C2379 C2360 1.429 . S
C2379 C2373 1.429 . S
C2379 C2380 1.523 . S
C2380 C2361 1.368 . S
C2380 C2374 1.368 . S
C2380 C2379 1.523 . S
C2381 C2365 1.429 . S
C2381 C2377 1.429 . S
C2381 C2382 1.523 . S
C2382 C2366 1.368 . S
C2382 C2378 1.368 . S
C2382 C2381 1.523 . S
H2383 C2358 0.950 . S
H2384 C2360 0.950 . S
H2385 C2361 0.949 . S
H2386 C2363 0.950 . S
H2387 C2365 0.950 . S
C2388 C2389 1.349 . S
C2388 C2390 1.327 . S
C2388 H2413 0.950 . S
C2389 C2388 1.349 . S
C2389 C2405 1.349 . S
C2390 C2388 1.327 . S
C2390 C2409 1.429 . S
C2390 H2414 0.950 . S
C2391 C2408 1.574 . S
C2391 C2410 1.368 . S
C2391 H2415 0.949 . S
H2392 C2396 0.949 . S
C2393 C2394 1.349 . S
C2393 C2395 1.327 . S
C2393 H2416 0.950 . S
C2394 C2393 1.349 . S
C2394 C2406 1.349 . S
C2395 C2393 1.327 . S
C2395 C2411 1.429 . S
C2395 H2417 0.950 . S
C2396 H2392 0.949 . S
C2396 C2404 1.574 . S
C2396 C2412 1.368 . S
H2397 C2405 0.950 . S
H2398 C2403 0.950 . S
H2399 C2404 0.949 . S
H2400 C2406 0.950 . S
H2401 C2407 0.950 . S
H2402 C2408 0.949 . S
C2403 H2398 0.950 . S
C2403 C2405 1.327 . S
C2403 C2409 1.429 . S
C2404 C2396 1.574 . S
C2404 H2399 0.949 . S
C2404 C2410 1.368 . S
C2405 C2389 1.349 . S
C2405 H2397 0.950 . S
C2405 C2403 1.327 . S
C2406 C2394 1.349 . S
C2406 H2400 0.950 . S
C2406 C2407 1.327 . S
C2407 H2401 0.950 . S
C2407 C2406 1.327 . S
C2407 C2411 1.429 . S
C2408 C2391 1.574 . S
C2408 H2402 0.949 . S
C2408 C2412 1.368 . S
C2409 C2390 1.429 . S
C2409 C2403 1.429 . S
C2409 C2410 1.523 . S
C2410 C2391 1.368 . S
C2410 C2404 1.368 . S
C2410 C2409 1.523 . S
C2411 C2395 1.429 . S
C2411 C2407 1.429 . S
C2411 C2412 1.523 . S
C2412 C2396 1.368 . S
C2412 C2408 1.368 . S
C2412 C2411 1.523 . S
H2413 C2388 0.950 . S
H2414 C2390 0.950 . S
H2415 C2391 0.949 . S
H2416 C2393 0.950 . S
H2417 C2395 0.950 . S
C2418 C2419 1.349 . S
C2418 C2420 1.327 . S
C2418 H2443 0.950 . S
C2419 C2418 1.349 . S
C2419 C2435 1.349 . S
C2420 C2418 1.327 . S
C2420 C2439 1.429 . S
C2420 H2444 0.950 . S
C2421 C2438 1.574 . S
C2421 C2440 1.368 . S
C2421 H2445 0.949 . S
H2422 C2426 0.949 . S
C2423 C2424 1.349 . S
C2423 C2425 1.327 . S
C2423 H2446 0.950 . S
C2424 C2423 1.349 . S
C2424 C2436 1.349 . S
C2425 C2423 1.327 . S
C2425 C2441 1.429 . S
C2425 H2447 0.950 . S
C2426 H2422 0.949 . S
C2426 C2434 1.574 . S
C2426 C2442 1.368 . S
H2427 C2435 0.950 . S
H2428 C2433 0.950 . S
H2429 C2434 0.949 . S
H2430 C2436 0.950 . S
H2431 C2437 0.950 . S
H2432 C2438 0.949 . S
C2433 H2428 0.950 . S
C2433 C2435 1.327 . S
C2433 C2439 1.429 . S
C2434 C2426 1.574 . S
C2434 H2429 0.949 . S
C2434 C2440 1.368 . S
C2435 C2419 1.349 . S
C2435 H2427 0.950 . S
C2435 C2433 1.327 . S
C2436 C2424 1.349 . S
C2436 H2430 0.950 . S
C2436 C2437 1.327 . S
C2437 H2431 0.950 . S
C2437 C2436 1.327 . S
C2437 C2441 1.429 . S
C2438 C2421 1.574 . S
C2438 H2432 0.949 . S
C2438 C2442 1.368 . S
C2439 C2420 1.429 . S
C2439 C2433 1.429 . S
C2439 C2440 1.523 . S
C2440 C2421 1.368 . S
C2440 C2434 1.368 . S
C2440 C2439 1.523 . S
C2441 C2425 1.429 . S
C2441 C2437 1.429 . S
C2441 C2442 1.523 . S
C2442 C2426 1.368 . S
C2442 C2438 1.368 . S
C2442 C2441 1.523 . S
H2443 C2418 0.950 . S
H2444 C2420 0.950 . S
H2445 C2421 0.949 . S
H2446 C2423 0.950 . S
H2447 C2425 0.950 . S
C2448 C2449 1.349 . S
C2448 C2450 1.327 . S
C2448 H2473 0.950 . S
C2449 C2448 1.349 . S
C2449 C2465 1.349 . S
C2450 C2448 1.327 . S
C2450 C2469 1.429 . S
C2450 H2474 0.950 . S
C2451 C2468 1.574 . S
C2451 C2470 1.368 . S
C2451 H2475 0.949 . S
H2452 C2456 0.949 . S
C2453 C2454 1.349 . S
C2453 C2455 1.327 . S
C2453 H2476 0.950 . S
C2454 C2453 1.349 . S
C2454 C2466 1.349 . S
C2455 C2453 1.327 . S
C2455 C2471 1.429 . S
C2455 H2477 0.950 . S
C2456 H2452 0.949 . S
C2456 C2464 1.574 . S
C2456 C2472 1.368 . S
H2457 C2465 0.950 . S
H2458 C2463 0.950 . S
H2459 C2464 0.949 . S
H2460 C2466 0.950 . S
H2461 C2467 0.950 . S
H2462 C2468 0.949 . S
C2463 H2458 0.950 . S
C2463 C2465 1.327 . S
C2463 C2469 1.429 . S
C2464 C2456 1.574 . S
C2464 H2459 0.949 . S
C2464 C2470 1.368 . S
C2465 C2449 1.349 . S
C2465 H2457 0.950 . S
C2465 C2463 1.327 . S
C2466 C2454 1.349 . S
C2466 H2460 0.950 . S
C2466 C2467 1.327 . S
C2467 H2461 0.950 . S
C2467 C2466 1.327 . S
C2467 C2471 1.429 . S
C2468 C2451 1.574 . S
C2468 H2462 0.949 . S
C2468 C2472 1.368 . S
C2469 C2450 1.429 . S
C2469 C2463 1.429 . S
C2469 C2470 1.523 . S
C2470 C2451 1.368 . S
C2470 C2464 1.368 . S
C2470 C2469 1.523 . S
C2471 C2455 1.429 . S
C2471 C2467 1.429 . S
C2471 C2472 1.523 . S
C2472 C2456 1.368 . S
C2472 C2468 1.368 . S
C2472 C2471 1.523 . S
H2473 C2448 0.950 . S
H2474 C2450 0.950 . S
H2475 C2451 0.949 . S
H2476 C2453 0.950 . S
H2477 C2455 0.950 . S
C2478 C2479 1.349 . S
C2478 C2480 1.327 . S
C2478 H2503 0.950 . S
C2479 C2478 1.349 . S
C2479 C2495 1.349 . S
C2480 C2478 1.327 . S
C2480 C2499 1.429 . S
C2480 H2504 0.950 . S
C2481 C2498 1.574 . S
C2481 C2500 1.368 . S
C2481 H2505 0.949 . S
H2482 C2486 0.949 . S
C2483 C2484 1.349 . S
C2483 C2485 1.327 . S
C2483 H2506 0.950 . S
C2484 C2483 1.349 . S
C2484 C2496 1.349 . S
C2485 C2483 1.327 . S
C2485 C2501 1.429 . S
C2485 H2507 0.950 . S
C2486 H2482 0.949 . S
C2486 C2494 1.574 . S
C2486 C2502 1.368 . S
H2487 C2495 0.950 . S
H2488 C2493 0.950 . S
H2489 C2494 0.949 . S
H2490 C2496 0.950 . S
H2491 C2497 0.950 . S
H2492 C2498 0.949 . S
C2493 H2488 0.950 . S
C2493 C2495 1.327 . S
C2493 C2499 1.429 . S
C2494 C2486 1.574 . S
C2494 H2489 0.949 . S
C2494 C2500 1.368 . S
C2495 C2479 1.349 . S
C2495 H2487 0.950 . S
C2495 C2493 1.327 . S
C2496 C2484 1.349 . S
C2496 H2490 0.950 . S
C2496 C2497 1.327 . S
C2497 H2491 0.950 . S
C2497 C2496 1.327 . S
C2497 C2501 1.429 . S
C2498 C2481 1.574 . S
C2498 H2492 0.949 . S
C2498 C2502 1.368 . S
C2499 C2480 1.429 . S
C2499 C2493 1.429 . S
C2499 C2500 1.523 . S
C2500 C2481 1.368 . S
C2500 C2494 1.368 . S
C2500 C2499 1.523 . S
C2501 C2485 1.429 . S
C2501 C2497 1.429 . S
C2501 C2502 1.523 . S
C2502 C2486 1.368 . S
C2502 C2498 1.368 . S
C2502 C2501 1.523 . S
H2503 C2478 0.950 . S
H2504 C2480 0.950 . S
H2505 C2481 0.949 . S
H2506 C2483 0.950 . S
H2507 C2485 0.950 . S
C2508 C2509 1.349 . S
C2508 C2510 1.327 . S
C2508 H2533 0.950 . S
C2509 C2508 1.349 . S
C2509 C2525 1.349 . S
C2510 C2508 1.327 . S
C2510 C2529 1.429 . S
C2510 H2534 0.950 . S
C2511 C2528 1.574 . S
C2511 C2530 1.368 . S
C2511 H2535 0.949 . S
H2512 C2516 0.949 . S
C2513 C2514 1.349 . S
C2513 C2515 1.327 . S
C2513 H2536 0.950 . S
C2514 C2513 1.349 . S
C2514 C2526 1.349 . S
C2515 C2513 1.327 . S
C2515 C2531 1.429 . S
C2515 H2537 0.950 . S
C2516 H2512 0.949 . S
C2516 C2524 1.574 . S
C2516 C2532 1.368 . S
H2517 C2525 0.950 . S
H2518 C2523 0.950 . S
H2519 C2524 0.949 . S
H2520 C2526 0.950 . S
H2521 C2527 0.950 . S
H2522 C2528 0.949 . S
C2523 H2518 0.950 . S
C2523 C2525 1.327 . S
C2523 C2529 1.429 . S
C2524 C2516 1.574 . S
C2524 H2519 0.949 . S
C2524 C2530 1.368 . S
C2525 C2509 1.349 . S
C2525 H2517 0.950 . S
C2525 C2523 1.327 . S
C2526 C2514 1.349 . S
C2526 H2520 0.950 . S
C2526 C2527 1.327 . S
C2527 H2521 0.950 . S
C2527 C2526 1.327 . S
C2527 C2531 1.429 . S
C2528 C2511 1.574 . S
C2528 H2522 0.949 . S
C2528 C2532 1.368 . S
C2529 C2510 1.429 . S
C2529 C2523 1.429 . S
C2529 C2530 1.523 . S
C2530 C2511 1.368 . S
C2530 C2524 1.368 . S
C2530 C2529 1.523 . S
C2531 C2515 1.429 . S
C2531 C2527 1.429 . S
C2531 C2532 1.523 . S
C2532 C2516 1.368 . S
C2532 C2528 1.368 . S
C2532 C2531 1.523 . S
H2533 C2508 0.950 . S
H2534 C2510 0.950 . S
H2535 C2511 0.949 . S
H2536 C2513 0.950 . S
H2537 C2515 0.950 . S
C2538 C2539 1.349 . S
C2538 C2540 1.327 . S
C2538 H2563 0.950 . S
C2539 C2538 1.349 . S
C2539 C2555 1.349 . S
C2540 C2538 1.327 . S
C2540 C2559 1.429 . S
C2540 H2564 0.950 . S
C2541 C2558 1.574 . S
C2541 C2560 1.368 . S
C2541 H2565 0.949 . S
H2542 C2546 0.949 . S
C2543 C2544 1.349 . S
C2543 C2545 1.327 . S
C2543 H2566 0.950 . S
C2544 C2543 1.349 . S
C2544 C2556 1.349 . S
C2545 C2543 1.327 . S
C2545 C2561 1.429 . S
C2545 H2567 0.950 . S
C2546 H2542 0.949 . S
C2546 C2554 1.574 . S
C2546 C2562 1.368 . S
H2547 C2555 0.950 . S
H2548 C2553 0.950 . S
H2549 C2554 0.949 . S
H2550 C2556 0.950 . S
H2551 C2557 0.950 . S
H2552 C2558 0.949 . S
C2553 H2548 0.950 . S
C2553 C2555 1.327 . S
C2553 C2559 1.429 . S
C2554 C2546 1.574 . S
C2554 H2549 0.949 . S
C2554 C2560 1.368 . S
C2555 C2539 1.349 . S
C2555 H2547 0.950 . S
C2555 C2553 1.327 . S
C2556 C2544 1.349 . S
C2556 H2550 0.950 . S
C2556 C2557 1.327 . S
C2557 H2551 0.950 . S
C2557 C2556 1.327 . S
C2557 C2561 1.429 . S
C2558 C2541 1.574 . S
C2558 H2552 0.949 . S
C2558 C2562 1.368 . S
C2559 C2540 1.429 . S
C2559 C2553 1.429 . S
C2559 C2560 1.523 . S
C2560 C2541 1.368 . S
C2560 C2554 1.368 . S
C2560 C2559 1.523 . S
C2561 C2545 1.429 . S
C2561 C2557 1.429 . S
C2561 C2562 1.523 . S
C2562 C2546 1.368 . S
C2562 C2558 1.368 . S
C2562 C2561 1.523 . S
H2563 C2538 0.950 . S
H2564 C2540 0.950 . S
H2565 C2541 0.949 . S
H2566 C2543 0.950 . S
H2567 C2545 0.950 . S
C2568 C2569 1.349 . S
C2568 C2570 1.327 . S
C2568 H2593 0.950 . S
C2569 C2568 1.349 . S
C2569 C2585 1.349 . S
C2570 C2568 1.327 . S
C2570 C2589 1.429 . S
C2570 H2594 0.950 . S
C2571 C2588 1.574 . S
C2571 C2590 1.368 . S
C2571 H2595 0.949 . S
H2572 C2576 0.949 . S
C2573 C2574 1.349 . S
C2573 C2575 1.327 . S
C2573 H2596 0.950 . S
C2574 C2573 1.349 . S
C2574 C2586 1.349 . S
C2575 C2573 1.327 . S
C2575 C2591 1.429 . S
C2575 H2597 0.950 . S
C2576 H2572 0.949 . S
C2576 C2584 1.574 . S
C2576 C2592 1.368 . S
H2577 C2585 0.950 . S
H2578 C2583 0.950 . S
H2579 C2584 0.949 . S
H2580 C2586 0.950 . S
H2581 C2587 0.950 . S
H2582 C2588 0.949 . S
C2583 H2578 0.950 . S
C2583 C2585 1.327 . S
C2583 C2589 1.429 . S
C2584 C2576 1.574 . S
C2584 H2579 0.949 . S
C2584 C2590 1.368 . S
C2585 C2569 1.349 . S
C2585 H2577 0.950 . S
C2585 C2583 1.327 . S
C2586 C2574 1.349 . S
C2586 H2580 0.950 . S
C2586 C2587 1.327 . S
C2587 H2581 0.950 . S
C2587 C2586 1.327 . S
C2587 C2591 1.429 . S
C2588 C2571 1.574 . S
C2588 H2582 0.949 . S
C2588 C2592 1.368 . S
C2589 C2570 1.429 . S
C2589 C2583 1.429 . S
C2589 C2590 1.523 . S
C2590 C2571 1.368 . S
C2590 C2584 1.368 . S
C2590 C2589 1.523 . S
C2591 C2575 1.429 . S
C2591 C2587 1.429 . S
C2591 C2592 1.523 . S
C2592 C2576 1.368 . S
C2592 C2588 1.368 . S
C2592 C2591 1.523 . S
H2593 C2568 0.950 . S
H2594 C2570 0.950 . S
H2595 C2571 0.949 . S
H2596 C2573 0.950 . S
H2597 C2575 0.950 . S
C2598 C2599 1.349 . S
C2598 C2600 1.327 . S
C2598 H2623 0.950 . S
C2599 C2598 1.349 . S
C2599 C2615 1.349 . S
C2600 C2598 1.327 . S
C2600 C2619 1.429 . S
C2600 H2624 0.950 . S
C2601 C2618 1.574 . S
C2601 C2620 1.368 . S
C2601 H2625 0.949 . S
H2602 C2606 0.949 . S
C2603 C2604 1.349 . S
C2603 C2605 1.327 . S
C2603 H2626 0.950 . S
C2604 C2603 1.349 . S
C2604 C2616 1.349 . S
C2605 C2603 1.327 . S
C2605 C2621 1.429 . S
C2605 H2627 0.950 . S
C2606 H2602 0.949 . S
C2606 C2614 1.574 . S
C2606 C2622 1.368 . S
H2607 C2615 0.950 . S
H2608 C2613 0.950 . S
H2609 C2614 0.949 . S
H2610 C2616 0.950 . S
H2611 C2617 0.950 . S
H2612 C2618 0.949 . S
C2613 H2608 0.950 . S
C2613 C2615 1.327 . S
C2613 C2619 1.429 . S
C2614 C2606 1.574 . S
C2614 H2609 0.949 . S
C2614 C2620 1.368 . S
C2615 C2599 1.349 . S
C2615 H2607 0.950 . S
C2615 C2613 1.327 . S
C2616 C2604 1.349 . S
C2616 H2610 0.950 . S
C2616 C2617 1.327 . S
C2617 H2611 0.950 . S
C2617 C2616 1.327 . S
C2617 C2621 1.429 . S
C2618 C2601 1.574 . S
C2618 H2612 0.949 . S
C2618 C2622 1.368 . S
C2619 C2600 1.429 . S
C2619 C2613 1.429 . S
C2619 C2620 1.523 . S
C2620 C2601 1.368 . S
C2620 C2614 1.368 . S
C2620 C2619 1.523 . S
C2621 C2605 1.429 . S
C2621 C2617 1.429 . S
C2621 C2622 1.523 . S
C2622 C2606 1.368 . S
C2622 C2618 1.368 . S
C2622 C2621 1.523 . S
H2623 C2598 0.950 . S
H2624 C2600 0.950 . S
H2625 C2601 0.949 . S
H2626 C2603 0.950 . S
H2627 C2605 0.950 . S
C2628 C2629 1.349 . S
C2628 C2630 1.327 . S
C2628 H2653 0.950 . S
C2629 C2628 1.349 . S
C2629 C2645 1.349 . S
C2630 C2628 1.327 . S
C2630 C2649 1.429 . S
C2630 H2654 0.950 . S
C2631 C2648 1.574 . S
C2631 C2650 1.368 . S
C2631 H2655 0.949 . S
H2632 C2636 0.949 . S
C2633 C2634 1.349 . S
C2633 C2635 1.327 . S
C2633 H2656 0.950 . S
C2634 C2633 1.349 . S
C2634 C2646 1.349 . S
C2635 C2633 1.327 . S
C2635 C2651 1.429 . S
C2635 H2657 0.950 . S
C2636 H2632 0.949 . S
C2636 C2644 1.574 . S
C2636 C2652 1.368 . S
H2637 C2645 0.950 . S
H2638 C2643 0.950 . S
H2639 C2644 0.949 . S
H2640 C2646 0.950 . S
H2641 C2647 0.950 . S
H2642 C2648 0.949 . S
C2643 H2638 0.950 . S
C2643 C2645 1.327 . S
C2643 C2649 1.429 . S
C2644 C2636 1.574 . S
C2644 H2639 0.949 . S
C2644 C2650 1.368 . S
C2645 C2629 1.349 . S
C2645 H2637 0.950 . S
C2645 C2643 1.327 . S
C2646 C2634 1.349 . S
C2646 H2640 0.950 . S
C2646 C2647 1.327 . S
C2647 H2641 0.950 . S
C2647 C2646 1.327 . S
C2647 C2651 1.429 . S
C2648 C2631 1.574 . S
C2648 H2642 0.949 . S
C2648 C2652 1.368 . S
C2649 C2630 1.429 . S
C2649 C2643 1.429 . S
C2649 C2650 1.523 . S
C2650 C2631 1.368 . S
C2650 C2644 1.368 . S
C2650 C2649 1.523 . S
C2651 C2635 1.429 . S
C2651 C2647 1.429 . S
C2651 C2652 1.523 . S
C2652 C2636 1.368 . S
C2652 C2648 1.368 . S
C2652 C2651 1.523 . S
H2653 C2628 0.950 . S
H2654 C2630 0.950 . S
H2655 C2631 0.949 . S
H2656 C2633 0.950 . S
H2657 C2635 0.950 . S
C2658 C2659 1.349 . S
C2658 C2660 1.327 . S
C2658 H2683 0.950 . S
C2659 C2658 1.349 . S
C2659 C2675 1.349 . S
C2660 C2658 1.327 . S
C2660 C2679 1.429 . S
C2660 H2684 0.950 . S
C2661 C2678 1.574 . S
C2661 C2680 1.368 . S
C2661 H2685 0.949 . S
H2662 C2666 0.949 . S
C2663 C2664 1.349 . S
C2663 C2665 1.327 . S
C2663 H2686 0.950 . S
C2664 C2663 1.349 . S
C2664 C2676 1.349 . S
C2665 C2663 1.327 . S
C2665 C2681 1.429 . S
C2665 H2687 0.950 . S
C2666 H2662 0.949 . S
C2666 C2674 1.574 . S
C2666 C2682 1.368 . S
H2667 C2675 0.950 . S
H2668 C2673 0.950 . S
H2669 C2674 0.949 . S
H2670 C2676 0.950 . S
H2671 C2677 0.950 . S
H2672 C2678 0.949 . S
C2673 H2668 0.950 . S
C2673 C2675 1.327 . S
C2673 C2679 1.429 . S
C2674 C2666 1.574 . S
C2674 H2669 0.949 . S
C2674 C2680 1.368 . S
C2675 C2659 1.349 . S
C2675 H2667 0.950 . S
C2675 C2673 1.327 . S
C2676 C2664 1.349 . S
C2676 H2670 0.950 . S
C2676 C2677 1.327 . S
C2677 H2671 0.950 . S
C2677 C2676 1.327 . S
C2677 C2681 1.429 . S
C2678 C2661 1.574 . S
C2678 H2672 0.949 . S
C2678 C2682 1.368 . S
C2679 C2660 1.429 . S
C2679 C2673 1.429 . S
C2679 C2680 1.523 . S
C2680 C2661 1.368 . S
C2680 C2674 1.368 . S
C2680 C2679 1.523 . S
C2681 C2665 1.429 . S
C2681 C2677 1.429 . S
C2681 C2682 1.523 . S
C2682 C2666 1.368 . S
C2682 C2678 1.368 . S
C2682 C2681 1.523 . S
H2683 C2658 0.950 . S
H2684 C2660 0.950 . S
H2685 C2661 0.949 . S
H2686 C2663 0.950 . S
H2687 C2665 0.950 . S
C529 C9 1.050 . S
C534 C138 1.050 . S
C559 C28 1.049 . S
C564 C159 1.049 . S
C589 C95 1.049 . S
C594 C53 1.049 . S
C619 C73 1.050 . S
C624 C115 1.050 . S
C649 C71 1.049 . S
C654 C31 1.049 . S
C679 C50 1.049 . S
C684 C6 1.049 . S
C709 C117 1.049 . S
C714 C161 1.049 . S
C739 C141 1.049 . S
C744 C93 1.049 . S
C769 C181 1.050 . S
C774 C207 1.050 . S
C799 C183 1.050 . S
C804 C229 1.050 . S
C829 C226 1.049 . S
C834 C249 1.049 . S
C859 C247 1.049 . S
C864 C204 1.049 . S
C889 C273 1.049 . S
C894 C402 1.049 . S
C919 C423 1.050 . S
C924 C292 1.050 . S
C949 C317 1.050 . S
C954 C359 1.050 . S
C979 C337 1.049 . S
C984 C379 1.049 . S
C1009 C335 1.049 . S
C1014 C295 1.049 . S
C1039 C314 1.049 . S
C1044 C270 1.049 . S
C1069 C381 1.049 . S
C1074 C425 1.049 . S
C1099 C405 1.049 . S
C1104 C357 1.049 . S
C1129 C445 1.049 . S
C1134 C469 1.049 . S
C1159 C493 1.049 . S
C1164 C447 1.049 . S
C1189 C490 1.050 . S
C1194 C513 1.050 . S
C1219 C511 1.050 . S
C1224 C467 1.050 . S
C1249 C512 0.746 . S
C1254 C7 0.744 . S
C1279 C470 0.746 . S
C1284 C26 0.744 . S
C1309 C51 0.746 . S
C1314 C448 0.749 . S
C1339 C74 0.746 . S
C1344 C488 0.749 . S
C1369 C491 0.746 . S
C1374 C96 0.744 . S
C1399 C116 0.746 . S
C1404 C514 0.743 . S
C1429 C468 0.746 . S
C1434 C136 0.749 . S
C1459 C160 0.746 . S
C1464 C446 0.749 . S
C1489 C358 0.746 . S
C1494 C72 0.744 . S
C1519 C4 0.746 . S
C1524 C382 0.749 . S
C1549 C29 0.746 . S
C1554 C403 0.749 . S
C1579 C48 0.746 . S
C1584 C426 0.743 . S
C1609 C268 0.746 . S
C1614 C118 0.749 . S
C1639 C139 0.746 . S
C1644 C293 0.743 . S
C1669 C162 0.746 . S
C1674 C312 0.743 . S
C1699 C94 0.746 . S
C1704 C336 0.749 . S
C1729 C424 0.746 . S
C1734 C182 0.744 . S
C1759 C205 0.746 . S
C1764 C290 0.749 . S
C1789 C315 0.746 . S
C1794 C184 0.749 . S
C1819 C338 0.746 . S
C1824 C224 0.749 . S
C1849 C248 0.746 . S
C1854 C271 0.749 . S
C1879 C380 0.746 . S
C1884 C250 0.744 . S
C1909 C400 0.746 . S
C1914 C202 0.744 . S
C1939 C360 0.746 . S
C1944 C227 0.744 . S
C1969 C97 0.746 . S
C1974 C449 0.749 . S
C1999 C114 0.746 . S
C2004 C489 0.749 . S
C2029 C137 0.746 . S
C2034 C510 0.743 . S
C2059 C471 0.746 . S
C2064 C158 0.744 . S
C2089 C466 0.746 . S
C2094 C8 0.749 . S
C2119 C27 0.746 . S
C2124 C444 0.749 . S
C2149 C52 0.746 . S
C2154 C492 0.743 . S
C2179 C515 0.746 . S
C2184 C75 0.744 . S
C2209 C269 0.746 . S
C2214 C163 0.749 . S
C2239 C92 0.746 . S
C2244 C294 0.743 . S
C2269 C313 0.746 . S
C2274 C119 0.744 . S
C2299 C334 0.746 . S
C2304 C140 0.749 . S
C2329 C356 0.746 . S
C2334 C30 0.744 . S
C2359 C49 0.746 . S
C2364 C383 0.749 . S
C2389 C404 0.746 . S
C2394 C70 0.749 . S
C2419 C427 0.746 . S
C2424 C5 0.744 . S
C2449 C251 0.746 . S
C2454 C339 0.749 . S
C2479 C225 0.746 . S
C2484 C378 0.743 . S
C2509 C401 0.746 . S
C2514 C246 0.744 . S
C2539 C206 0.746 . S
C2544 C422 0.743 . S
C2569 C185 0.746 . S
C2574 C361 0.743 . S
C2599 C291 0.746 . S
C2604 C180 0.749 . S
C2629 C228 0.746 . S
C2634 C316 0.749 . S
C2659 C272 0.746 . S
C2664 C203 0.749 . S
