# Generated by pormake.
# Topology fst, (5)-cn, num edge types: 1
# Building blocks:
#     Node 0, Type 0, BuildingBlock: BEQFEK_clean_sbu_0, # of connection points: 5
#     Node 1, Type 0, BuildingBlock: BEQFEK_clean_sbu_0, # of connection points: 5
#     Node 2, Type 0, BuildingBlock: BEQFEK_clean_sbu_0, # of connection points: 5
#     Node 3, Type 0, BuildingBlock: BEQFEK_clean_sbu_0, # of connection points: 5
#     Node 4, Type 0, BuildingBlock: BEQFEK_clean_sbu_0, # of connection points: 5
#     Node 5, Type 0, BuildingBlock: BEQFEK_clean_sbu_0, # of connection points: 5
#     Node 6, Type 0, BuildingBlock: BEQFEK_clean_sbu_0, # of connection points: 5
#     Node 7, Type 0, BuildingBlock: BEQFEK_clean_sbu_0, # of connection points: 5
#     Node 8, Type 0, BuildingBlock: BEQFEK_clean_sbu_0, # of connection points: 5
#     Node 9, Type 0, BuildingBlock: BEQFEK_clean_sbu_0, # of connection points: 5
#     Node 10, Type 0, BuildingBlock: BEQFEK_clean_sbu_0, # of connection points: 5
#     Node 11, Type 0, BuildingBlock: BEQFEK_clean_sbu_0, # of connection points: 5
#     Edge 12, Type (0, 0), BuildingBlock: KIFKEQ_clean_linker_1, # of connection points: 2
#     Edge 13, Type (0, 0), BuildingBlock: KIFKEQ_clean_linker_1, # of connection points: 2
#     Edge 14, Type (0, 0), BuildingBlock: KIFKEQ_clean_linker_1, # of connection points: 2
#     Edge 15, Type (0, 0), BuildingBlock: KIFKEQ_clean_linker_1, # of connection points: 2
#     Edge 16, Type (0, 0), BuildingBlock: KIFKEQ_clean_linker_1, # of connection points: 2
#     Edge 17, Type (0, 0), BuildingBlock: KIFKEQ_clean_linker_1, # of connection points: 2
#     Edge 18, Type (0, 0), BuildingBlock: KIFKEQ_clean_linker_1, # of connection points: 2
#     Edge 19, Type (0, 0), BuildingBlock: KIFKEQ_clean_linker_1, # of connection points: 2
#     Edge 20, Type (0, 0), BuildingBlock: KIFKEQ_clean_linker_1, # of connection points: 2
#     Edge 21, Type (0, 0), BuildingBlock: KIFKEQ_clean_linker_1, # of connection points: 2
#     Edge 22, Type (0, 0), BuildingBlock: KIFKEQ_clean_linker_1, # of connection points: 2
#     Edge 23, Type (0, 0), BuildingBlock: KIFKEQ_clean_linker_1, # of connection points: 2
#     Edge 24, Type (0, 0), BuildingBlock: KIFKEQ_clean_linker_1, # of connection points: 2
#     Edge 25, Type (0, 0), BuildingBlock: KIFKEQ_clean_linker_1, # of connection points: 2
#     Edge 26, Type (0, 0), BuildingBlock: KIFKEQ_clean_linker_1, # of connection points: 2
#     Edge 27, Type (0, 0), BuildingBlock: KIFKEQ_clean_linker_1, # of connection points: 2
#     Edge 28, Type (0, 0), BuildingBlock: KIFKEQ_clean_linker_1, # of connection points: 2
#     Edge 29, Type (0, 0), BuildingBlock: KIFKEQ_clean_linker_1, # of connection points: 2
#     Edge 30, Type (0, 0), BuildingBlock: KIFKEQ_clean_linker_1, # of connection points: 2
#     Edge 31, Type (0, 0), BuildingBlock: KIFKEQ_clean_linker_1, # of connection points: 2
#     Edge 32, Type (0, 0), BuildingBlock: KIFKEQ_clean_linker_1, # of connection points: 2
#     Edge 33, Type (0, 0), BuildingBlock: KIFKEQ_clean_linker_1, # of connection points: 2
#     Edge 34, Type (0, 0), BuildingBlock: KIFKEQ_clean_linker_1, # of connection points: 2
#     Edge 35, Type (0, 0), BuildingBlock: KIFKEQ_clean_linker_1, # of connection points: 2
#     Edge 36, Type (0, 0), BuildingBlock: KIFKEQ_clean_linker_1, # of connection points: 2
#     Edge 37, Type (0, 0), BuildingBlock: KIFKEQ_clean_linker_1, # of connection points: 2
#     Edge 38, Type (0, 0), BuildingBlock: KIFKEQ_clean_linker_1, # of connection points: 2
#     Edge 39, Type (0, 0), BuildingBlock: KIFKEQ_clean_linker_1, # of connection points: 2
#     Edge 40, Type (0, 0), BuildingBlock: KIFKEQ_clean_linker_1, # of connection points: 2
#     Edge 41, Type (0, 0), BuildingBlock: KIFKEQ_clean_linker_1, # of connection points: 2
# Relax obj value: 0.025
# Max RMSD: 0.072
# Mean RMSD: 0.072
data_MOF--net-fst--node1-BEQFEK_clean_sbu_0--edge1-KIFKEQ_clean_linker_1
_symmetry_space_group_name_H-M    P1
_symmetry_Int_Tables_number       1
_symmetry_cell_setting            triclinic
loop_
_symmetry_equiv_pos_as_xyz
'x, y, z'
_cell_length_a     76.194461
_cell_length_b     76.186667
_cell_length_c     19.816505
_cell_angle_alpha  90.00886
_cell_angle_beta   90.007758
_cell_angle_gamma 119.99529
loop_
_atom_site_label
_atom_site_type_symbol
_atom_site_fract_x
_atom_site_fract_y
_atom_site_fract_z
_atom_type_partial_charge
Co0 Co 0.11485 0.45826 0.28495 0.0
Co1 Co 0.11601 0.45953 0.12635 0.0
C2 C 0.07803 0.43147 0.2 0.0
O3 O 0.08699 0.43817 0.25636 0.0
O4 O 0.08741 0.438 0.14408 0.0
C5 C 0.10599 0.44083 0.41966 0.0
O6 O 0.09163 0.42446 0.39036 0.0
C7 C 0.11371 0.45032 0.97937 0.0
C8 C 0.13957 0.47906 0.94284 0.0
C9 C 0.12444 0.4602 0.92146 0.0
N10 N 0.12225 0.46285 0.0323 0.0
N11 N 0.13759 0.48001 0.00987 0.0
C12 C 0.09656 0.42902 0.98542 0.0
H13 H 0.09695 0.4227 0.03548 0.0
H14 H 0.09725 0.41935 0.94484 0.0
H15 H 0.08202 0.429 0.98104 0.0
C16 C 0.1493 0.45113 0.2627 0.0
N17 N 0.13421 0.45388 0.23953 0.0
N18 N 0.13465 0.45421 0.17312 0.0
C19 C 0.15007 0.4517 0.152 0.0
C20 C 0.15987 0.44971 0.20796 0.0
C21 C 0.15431 0.45139 0.33583 0.0
H22 H 0.15566 0.46514 0.36003 0.0
H23 H 0.14174 0.43799 0.36103 0.0
H24 H 0.16862 0.45114 0.34309 0.0
O25 O 0.11936 0.48578 0.26651 0.0
O26 O 0.1196 0.48609 0.15466 0.0
H27 H 0.16284 0.46693 0.05907 0.0
H28 H 0.16609 0.4454 0.07423 0.0
C29 C 0.15549 0.45132 0.07967 0.0
H30 H 0.14159 0.44167 0.05006 0.0
H31 H 0.14686 0.49234 0.04063 0.0
O32 O 0.1173 0.45632 0.38399 0.0
C33 C 0.12075 0.4947 0.21081 0.0
Co34 Co 0.65822 0.11463 0.28356 0.0
Co35 Co 0.65816 0.11439 0.1257 0.0
C36 C 0.64869 0.07721 0.20107 0.0
O37 O 0.6504 0.08649 0.25639 0.0
O38 O 0.65191 0.08623 0.14433 0.0
C39 C 0.66656 0.10581 0.4179 0.0
O40 O 0.66818 0.09118 0.38887 0.0
C41 C 0.66213 0.11101 0.9772 0.0
C42 C 0.6599 0.13755 0.94389 0.0
C43 C 0.66184 0.12152 0.92019 0.0
N44 N 0.66056 0.12061 0.03195 0.0
N45 N 0.65927 0.13643 0.01149 0.0
C46 C 0.66204 0.09134 0.98006 0.0
H47 H 0.67663 0.09403 0.00152 0.0
H48 H 0.65973 0.08426 0.92956 0.0
H49 H 0.64975 0.08072 0.01411 0.0
C50 C 0.69947 0.14938 0.26023 0.0
N51 N 0.68182 0.1339 0.23775 0.0
N52 N 0.68215 0.13346 0.17142 0.0
C53 C 0.70029 0.1484 0.1496 0.0
C54 C 0.7118 0.15906 0.20516 0.0
C55 C 0.70429 0.15471 0.33316 0.0
H56 H 0.69258 0.15748 0.35586 0.0
H57 H 0.7038 0.14171 0.36007 0.0
H58 H 0.71949 0.16827 0.34012 0.0
O59 O 0.63541 0.11932 0.26517 0.0
O60 O 0.63459 0.11711 0.1537 0.0
H61 H 0.69806 0.16089 0.05578 0.0
H62 H 0.72248 0.16337 0.07036 0.0
C63 C 0.70594 0.1532 0.07687 0.0
H64 H 0.70106 0.13899 0.04822 0.0
H65 H 0.65762 0.1463 0.04392 0.0
O66 O 0.66275 0.11735 0.38209 0.0
C67 C 0.62738 0.1193 0.2089 0.0
Co68 Co 0.54414 0.65632 0.27932 0.0
Co69 Co 0.54351 0.65672 0.12073 0.0
C70 C 0.5716 0.64702 0.19406 0.0
O71 O 0.56486 0.64921 0.2505 0.0
O72 O 0.56489 0.64962 0.13816 0.0
C73 C 0.56149 0.66506 0.41405 0.0
O74 O 0.57804 0.66763 0.38456 0.0
C75 C 0.55268 0.66385 0.97383 0.0
C76 C 0.524 0.66123 0.93775 0.0
C77 C 0.54279 0.66481 0.91609 0.0
N78 N 0.54023 0.65992 0.02691 0.0
N79 N 0.52311 0.65827 0.00476 0.0
C80 C 0.57391 0.66778 0.97961 0.0
H81 H 0.58032 0.67446 0.02965 0.0
H82 H 0.58361 0.67812 0.93901 0.0
H83 H 0.57378 0.6532 0.97512 0.0
C84 C 0.55034 0.69753 0.2584 0.0
N85 N 0.54817 0.67999 0.23474 0.0
N86 N 0.5488 0.68059 0.16836 0.0
C87 C 0.55188 0.6988 0.14781 0.0
C88 C 0.55286 0.71006 0.20414 0.0
C89 C 0.54963 0.70197 0.33157 0.0
H90 H 0.56261 0.70225 0.3579 0.0
H91 H 0.55035 0.71676 0.3391 0.0
H92 H 0.5355 0.68969 0.35435 0.0
O93 O 0.51669 0.63332 0.25995 0.0
O94 O 0.51709 0.63336 0.14813 0.0
H95 H 0.53718 0.6966 0.05395 0.0
H96 H 0.55844 0.72139 0.07073 0.0
C97 C 0.55266 0.70489 0.07563 0.0
H98 H 0.56254 0.70082 0.04654 0.0
H99 H 0.51083 0.65526 0.03569 0.0
O100 O 0.54587 0.66049 0.3785 0.0
C101 C 0.50817 0.62576 0.20374 0.0
Co102 Co 0.88861 0.54378 0.28349 0.0
Co103 Co 0.88858 0.54374 0.12495 0.0
C104 C 0.92586 0.57164 0.19991 0.0
O105 O 0.9166 0.56465 0.25571 0.0
O106 O 0.91687 0.56516 0.14341 0.0
C107 C 0.89671 0.56143 0.41767 0.0
O108 O 0.91035 0.57812 0.3878 0.0
C109 C 0.89092 0.55259 0.97749 0.0
C110 C 0.86432 0.52418 0.94239 0.0
C111 C 0.8798 0.54273 0.9201 0.0
N112 N 0.88226 0.54035 0.03097 0.0
N113 N 0.86647 0.52339 0.00939 0.0
C114 C 0.9085 0.57369 0.98263 0.0
H115 H 0.90858 0.58025 0.0327 0.0
H116 H 0.90791 0.58344 0.94214 0.0
H117 H 0.92278 0.57324 0.97742 0.0
C118 C 0.85306 0.54913 0.25993 0.0
N119 N 0.86896 0.54759 0.23775 0.0
N120 N 0.86968 0.54874 0.17151 0.0
C121 C 0.85462 0.55171 0.14945 0.0
C122 C 0.84337 0.5518 0.2046 0.0
C123 C 0.84636 0.54623 0.33209 0.0
H124 H 0.84876 0.5344 0.3557 0.0
H125 H 0.85565 0.56063 0.3599 0.0
H126 H 0.83014 0.54173 0.33664 0.0
O127 O 0.88439 0.51642 0.26442 0.0
O128 O 0.88557 0.51734 0.15266 0.0
H129 H 0.84328 0.54048 0.0507 0.0
H130 H 0.84285 0.56324 0.07273 0.0
C131 C 0.85162 0.55526 0.07714 0.0
H132 H 0.86651 0.5645 0.05227 0.0
H133 H 0.85699 0.51133 0.04074 0.0
O134 O 0.88605 0.54562 0.38253 0.0
C135 C 0.88389 0.50818 0.20804 0.0
Co136 Co 0.34597 0.88879 0.28295 0.0
Co137 Co 0.34614 0.88782 0.12441 0.0
C138 C 0.35525 0.92551 0.19789 0.0
O139 O 0.3526 0.91648 0.25435 0.0
O140 O 0.35327 0.91633 0.14207 0.0
C141 C 0.33664 0.89704 0.41755 0.0
O142 O 0.33379 0.91087 0.38814 0.0
C143 C 0.33959 0.89015 0.97711 0.0
C144 C 0.34147 0.86362 0.94163 0.0
C145 C 0.33839 0.87912 0.91956 0.0
N146 N 0.34317 0.88144 0.03046 0.0
N147 N 0.34438 0.86569 0.00866 0.0
C148 C 0.33604 0.9077 0.98253 0.0
H149 H 0.32943 0.90764 0.0325 0.0
H150 H 0.32577 0.9072 0.94188 0.0
H151 H 0.35075 0.922 0.97785 0.0
C152 C 0.30517 0.85294 0.26006 0.0
N153 N 0.3226 0.86876 0.23746 0.0
N154 N 0.32219 0.86915 0.17115 0.0
C155 C 0.30421 0.85395 0.14943 0.0
C156 C 0.29286 0.84296 0.20492 0.0
C157 C 0.30132 0.84663 0.33257 0.0
H158 H 0.31549 0.84895 0.35647 0.0
H159 H 0.29641 0.85621 0.35952 0.0
H160 H 0.28946 0.83048 0.33796 0.0
O161 O 0.36956 0.88526 0.26461 0.0
O162 O 0.36916 0.8843 0.15278 0.0
H163 H 0.30429 0.84218 0.05161 0.0
H164 H 0.28098 0.84163 0.07248 0.0
C165 C 0.29772 0.85054 0.07705 0.0
H166 H 0.30327 0.86529 0.05128 0.0
H167 H 0.34699 0.8562 0.03986 0.0
O168 O 0.34159 0.8863 0.382 0.0
C169 C 0.37693 0.88364 0.20888 0.0
Co170 Co 0.45981 0.34643 0.29036 0.0
Co171 Co 0.45867 0.34368 0.13135 0.0
C172 C 0.4316 0.35468 0.20476 0.0
O173 O 0.43908 0.35327 0.26068 0.0
O174 O 0.43745 0.3511 0.14868 0.0
C175 C 0.44228 0.33299 0.42317 0.0
O176 O 0.42557 0.32105 0.38981 0.0
C177 C 0.44964 0.33815 0.9836 0.0
C178 C 0.4744 0.33322 0.94871 0.0
C179 C 0.45781 0.33438 0.92639 0.0
N180 N 0.46088 0.33903 0.03735 0.0
N181 N 0.47574 0.33627 0.0158 0.0
C182 C 0.43111 0.34013 0.98781 0.0
H183 H 0.43575 0.35628 0.99612 0.0
H184 H 0.42177 0.33135 0.0316 0.0
H185 H 0.42195 0.3347 0.94095 0.0
C186 C 0.45407 0.30495 0.27437 0.0
N187 N 0.45556 0.32207 0.24905 0.0
N188 N 0.45351 0.32037 0.18293 0.0
C189 C 0.44967 0.3017 0.1647 0.0
C190 C 0.4501 0.29143 0.22184 0.0
C191 C 0.45676 0.30174 0.34727 0.0
H192 H 0.46832 0.31618 0.37052 0.0
H193 H 0.44216 0.29642 0.3739 0.0
H194 H 0.46128 0.29008 0.35375 0.0
O195 O 0.48675 0.36914 0.26663 0.0
O196 O 0.48571 0.36725 0.15488 0.0
H197 H 0.46157 0.29894 0.07032 0.0
H198 H 0.43771 0.2773 0.09194 0.0
C199 C 0.4466 0.29408 0.09363 0.0
H200 H 0.43859 0.30027 0.06396 0.0
H201 H 0.48681 0.33639 0.04716 0.0
O202 O 0.45843 0.34448 0.3907 0.0
C203 C 0.49496 0.37574 0.20933 0.0
Co204 Co 0.54485 0.88792 0.12307 0.0
Co205 Co 0.54475 0.88787 0.28105 0.0
C206 C 0.57287 0.92508 0.2062 0.0
O207 O 0.56556 0.91583 0.15064 0.0
O208 O 0.56666 0.91608 0.26279 0.0
C209 C 0.56218 0.89665 0.98868 0.0
O210 O 0.5785 0.91122 0.01759 0.0
C211 C 0.55187 0.89133 0.42962 0.0
C212 C 0.5238 0.86391 0.46249 0.0
C213 C 0.54135 0.88043 0.48645 0.0
N214 N 0.54097 0.88149 0.37472 0.0
N215 N 0.52428 0.86514 0.39489 0.0
C216 C 0.57091 0.91148 0.42709 0.0
H217 H 0.56868 0.92178 0.39319 0.0
H218 H 0.58327 0.90952 0.40563 0.0
H219 H 0.57541 0.91855 0.47772 0.0
C220 C 0.54988 0.85214 0.14685 0.0
N221 N 0.54842 0.8681 0.16894 0.0
N222 N 0.5496 0.86884 0.23515 0.0
C223 C 0.55251 0.85377 0.25732 0.0
C224 C 0.55254 0.84246 0.20223 0.0
C225 C 0.54693 0.84541 0.07471 0.0
H226 H 0.53519 0.84793 0.05101 0.0
H227 H 0.56135 0.85459 0.04692 0.0
H228 H 0.54227 0.82915 0.07024 0.0
O229 O 0.51774 0.88421 0.14113 0.0
O230 O 0.51831 0.88482 0.2529 0.0
H231 H 0.54134 0.84192 0.35563 0.0
H232 H 0.56464 0.8426 0.3339 0.0
C233 C 0.55612 0.85084 0.32966 0.0
H234 H 0.56481 0.86574 0.35513 0.0
H235 H 0.51303 0.85495 0.36228 0.0
O236 O 0.54678 0.88529 0.02452 0.0
C237 C 0.50934 0.88346 0.19734 0.0
Co238 Co 0.65816 0.54482 0.12014 0.0
Co239 Co 0.65755 0.54288 0.27818 0.0
C240 C 0.64808 0.57143 0.20542 0.0
O241 O 0.65098 0.56545 0.14858 0.0
O242 O 0.65009 0.56405 0.26077 0.0
C243 C 0.66673 0.56204 0.98521 0.0
O244 O 0.6683 0.57837 0.0134 0.0
C245 C 0.66184 0.55034 0.42655 0.0
C246 C 0.65946 0.52154 0.46029 0.0
C247 C 0.66163 0.53963 0.48372 0.0
N248 N 0.66002 0.53901 0.37197 0.0
N249 N 0.65864 0.52188 0.39267 0.0
C250 C 0.66198 0.57003 0.42342 0.0
H251 H 0.6765 0.58174 0.40096 0.0
H252 H 0.66003 0.57506 0.47393 0.0
H253 H 0.64956 0.56838 0.39013 0.0
C254 C 0.69931 0.55094 0.14338 0.0
N255 N 0.6816 0.54859 0.16606 0.0
N256 N 0.6818 0.5488 0.23246 0.0
C257 C 0.69988 0.55177 0.25407 0.0
C258 C 0.7115 0.55313 0.19837 0.0
C259 C 0.7042 0.5506 0.07045 0.0
H260 H 0.69218 0.53645 0.04683 0.0
H261 H 0.70435 0.56355 0.04433 0.0
H262 H 0.71914 0.55162 0.06373 0.0
O263 O 0.63477 0.51736 0.13678 0.0
O264 O 0.63499 0.51633 0.24846 0.0
H265 H 0.69754 0.53628 0.34626 0.0
H266 H 0.72203 0.55832 0.33267 0.0
C267 C 0.70547 0.552 0.32657 0.0
H268 H 0.70062 0.56114 0.35652 0.0
H269 H 0.65682 0.51025 0.36044 0.0
O270 O 0.66287 0.5468 0.02167 0.0
C271 C 0.62742 0.50805 0.19203 0.0
Co272 Co 0.11424 0.65748 0.12903 0.0
Co273 Co 0.11609 0.65764 0.28756 0.0
C274 C 0.07787 0.64793 0.2155 0.0
O275 O 0.08662 0.6506 0.15848 0.0
O276 O 0.08735 0.65005 0.27076 0.0
C277 C 0.10545 0.66597 0.99393 0.0
O278 O 0.09119 0.6682 0.02297 0.0
C279 C 0.11396 0.66472 0.43435 0.0
C280 C 0.14002 0.66216 0.47082 0.0
C281 C 0.12475 0.66568 0.49225 0.0
N282 N 0.12257 0.66084 0.38141 0.0
N283 N 0.13804 0.65923 0.40378 0.0
C284 C 0.09662 0.66858 0.42831 0.0
H285 H 0.09695 0.6753 0.37831 0.0
H286 H 0.09715 0.67885 0.46898 0.0
H287 H 0.08219 0.65396 0.43247 0.0
C288 C 0.14939 0.69867 0.14983 0.0
N289 N 0.13409 0.6811 0.17361 0.0
N290 N 0.13432 0.68162 0.24002 0.0
C291 C 0.14956 0.69979 0.26046 0.0
C292 C 0.15961 0.71112 0.20404 0.0
C293 C 0.15436 0.70318 0.07659 0.0
H294 H 0.14157 0.70343 0.05078 0.0
H295 H 0.16838 0.71799 0.06899 0.0
H296 H 0.15619 0.69093 0.05337 0.0
O297 O 0.11827 0.63416 0.1476 0.0
O298 O 0.11991 0.63482 0.25931 0.0
H299 H 0.16245 0.69739 0.35318 0.0
H300 H 0.16602 0.72225 0.33748 0.0
C301 C 0.15522 0.70576 0.33255 0.0
H302 H 0.14143 0.70172 0.36251 0.0
H303 H 0.14738 0.65627 0.373 0.0
O304 O 0.11663 0.66168 0.02986 0.0
C305 C 0.12036 0.62699 0.20309 0.0
Co306 Co 0.45869 0.11443 0.13124 0.0
Co307 Co 0.45984 0.11495 0.2898 0.0
C308 C 0.43131 0.07746 0.21559 0.0
O309 O 0.43794 0.08656 0.15934 0.0
O310 O 0.43822 0.08659 0.27168 0.0
C311 C 0.44125 0.10616 0.99656 0.0
O312 O 0.4247 0.09208 0.02586 0.0
C313 C 0.45074 0.11297 0.43677 0.0
C314 C 0.48015 0.13776 0.47358 0.0
C315 C 0.46094 0.12337 0.49476 0.0
N316 N 0.46342 0.12099 0.38395 0.0
N317 N 0.48098 0.13567 0.40656 0.0
C318 C 0.42908 0.09662 0.43055 0.0
H319 H 0.42309 0.09724 0.38008 0.0
H320 H 0.4197 0.0981 0.47055 0.0
H321 H 0.42812 0.08167 0.43591 0.0
C322 C 0.45254 0.14941 0.15515 0.0
N323 N 0.45488 0.13401 0.17751 0.0
N324 N 0.45473 0.13392 0.24392 0.0
C325 C 0.45197 0.14913 0.26594 0.0
C326 C 0.45057 0.1595 0.21041 0.0
C327 C 0.45211 0.15419 0.08214 0.0
H328 H 0.46647 0.1572 0.05781 0.0
H329 H 0.43953 0.14083 0.05682 0.0
H330 H 0.44995 0.16743 0.07513 0.0
O331 O 0.48616 0.11861 0.14915 0.0
O332 O 0.48602 0.11783 0.26091 0.0
H333 H 0.46765 0.16023 0.35929 0.0
H334 H 0.44805 0.16641 0.34576 0.0
C335 C 0.45221 0.15453 0.33869 0.0
H336 H 0.44154 0.14082 0.36749 0.0
H337 H 0.4935 0.14447 0.3759 0.0
O338 O 0.45684 0.11716 0.03225 0.0
C339 C 0.49478 0.11928 0.20488 0.0
Co340 Co 0.34448 0.45733 0.12565 0.0
Co341 Co 0.34532 0.45776 0.28364 0.0
C342 C 0.35452 0.42983 0.20769 0.0
O343 O 0.35258 0.43723 0.15234 0.0
O344 O 0.35146 0.43576 0.26445 0.0
C345 C 0.33621 0.44016 0.99121 0.0
O346 O 0.33554 0.42427 0.01967 0.0
C347 C 0.34169 0.45085 0.43274 0.0
C348 C 0.34369 0.4796 0.46488 0.0
C349 C 0.34178 0.46172 0.48932 0.0
N350 N 0.34329 0.46186 0.37753 0.0
N351 N 0.3445 0.47899 0.39734 0.0
C352 C 0.34169 0.43122 0.43095 0.0
H353 H 0.35238 0.43185 0.39189 0.0
H354 H 0.32629 0.41885 0.41733 0.0
H355 H 0.3461 0.42777 0.48038 0.0
C356 C 0.30315 0.45044 0.15093 0.0
N357 N 0.32101 0.45292 0.17263 0.0
N358 N 0.32122 0.45296 0.23902 0.0
C359 C 0.30341 0.45042 0.26166 0.0
C360 C 0.29142 0.44882 0.2067 0.0
C361 C 0.29819 0.4512 0.0783 0.0
H362 H 0.3107 0.46493 0.05437 0.0
H363 H 0.29694 0.43779 0.05179 0.0
H364 H 0.2838 0.45136 0.07238 0.0
O365 O 0.36737 0.48498 0.14297 0.0
O366 O 0.36874 0.48387 0.25439 0.0
H367 H 0.30525 0.46505 0.35541 0.0
H368 H 0.2812 0.44251 0.34085 0.0
C369 C 0.29784 0.44947 0.3345 0.0
H370 H 0.30315 0.44051 0.36315 0.0
H371 H 0.34607 0.4904 0.36448 0.0
O372 O 0.33949 0.45529 0.02737 0.0
C373 C 0.37569 0.49312 0.19883 0.0
Co374 Co 0.88838 0.34516 0.11825 0.0
Co375 Co 0.88825 0.34428 0.27671 0.0
C376 C 0.92574 0.35476 0.20146 0.0
O377 O 0.9165 0.35315 0.14611 0.0
O378 O 0.91663 0.35117 0.25814 0.0
C379 C 0.89734 0.33684 0.98392 0.0
O380 O 0.91151 0.33467 0.01392 0.0
C381 C 0.89046 0.33721 0.42381 0.0
C382 C 0.86431 0.33968 0.4597 0.0
C383 C 0.87956 0.3362 0.48148 0.0
N384 N 0.8819 0.34105 0.37064 0.0
N385 N 0.86638 0.34263 0.39271 0.0
C386 C 0.90788 0.33345 0.41826 0.0
H387 H 0.90773 0.32683 0.36822 0.0
H388 H 0.9073 0.32315 0.45889 0.0
H389 H 0.92226 0.3481 0.42292 0.0
C390 C 0.85381 0.30367 0.13928 0.0
N391 N 0.8692 0.32122 0.16283 0.0
N392 N 0.86951 0.32049 0.22914 0.0
C393 C 0.85455 0.3022 0.2498 0.0
C394 C 0.84405 0.29099 0.19357 0.0
C395 C 0.84857 0.2993 0.06613 0.0
H396 H 0.84603 0.31126 0.04427 0.0
H397 H 0.86153 0.29975 0.03905 0.0
H398 H 0.83491 0.28423 0.05833 0.0
O399 O 0.88337 0.36767 0.13865 0.0
O400 O 0.88518 0.36778 0.25027 0.0
H401 H 0.84243 0.30446 0.34437 0.0
H402 H 0.8388 0.27967 0.32758 0.0
C403 C 0.84952 0.29614 0.32216 0.0
H404 H 0.86358 0.30023 0.35057 0.0
H405 H 0.85707 0.34556 0.36172 0.0
O406 O 0.88598 0.34108 0.01906 0.0
C407 C 0.88309 0.37527 0.19553 0.0
H408 H 0.13363 0.61266 0.30585 0.0
H409 H 0.1121 0.60005 0.10006 0.0
H410 H 0.13589 0.58192 0.30761 0.0
H411 H 0.11351 0.56885 0.10262 0.0
H412 H 0.11377 0.51398 0.31499 0.0
H413 H 0.11495 0.54648 0.31226 0.0
H414 H 0.13466 0.55456 0.10427 0.0
H415 H 0.13261 0.52165 0.10633 0.0
C416 C 0.12932 0.60328 0.26099 0.0
C417 C 0.12263 0.60878 0.20286 0.0
C418 C 0.13049 0.58555 0.26213 0.0
C419 C 0.12476 0.57273 0.20544 0.0
C420 C 0.11836 0.57845 0.14693 0.0
C421 C 0.11744 0.59632 0.14552 0.0
C422 C 0.11848 0.52276 0.26882 0.0
C423 C 0.12298 0.51516 0.21079 0.0
C424 C 0.11927 0.54149 0.2673 0.0
C425 C 0.12484 0.55321 0.20793 0.0
C426 C 0.1299 0.54582 0.15047 0.0
C427 C 0.12886 0.52698 0.15177 0.0
H428 H 0.61204 0.13224 0.30994 0.0
H429 H 0.60099 0.11059 0.10417 0.0
H430 H 0.58119 0.13434 0.30796 0.0
H431 H 0.5697 0.11176 0.10306 0.0
H432 H 0.52191 0.1303 0.10048 0.0
H433 H 0.55491 0.13241 0.10122 0.0
H434 H 0.54591 0.11336 0.31001 0.0
H435 H 0.5135 0.11219 0.30998 0.0
C436 C 0.60298 0.12785 0.26437 0.0
C437 C 0.60896 0.1212 0.20732 0.0
C438 C 0.58519 0.12893 0.2633 0.0
C439 C 0.57279 0.1231 0.20547 0.0
C440 C 0.57896 0.1167 0.14816 0.0
C441 C 0.59688 0.11588 0.14893 0.0
C442 C 0.52707 0.12669 0.1466 0.0
C443 C 0.51506 0.12107 0.20512 0.0
C444 C 0.54595 0.12778 0.14697 0.0
C445 C 0.55316 0.12301 0.20565 0.0
C446 C 0.54114 0.11753 0.26422 0.0
C447 C 0.52242 0.11671 0.26408 0.0
H448 H 0.39092 0.52121 0.09699 0.0
H449 H 0.40226 0.51095 0.30278 0.0
H450 H 0.42175 0.55426 0.09851 0.0
H451 H 0.43345 0.54341 0.30343 0.0
H452 H 0.48076 0.60957 0.30709 0.0
H453 H 0.44778 0.57871 0.30546 0.0
H454 H 0.45714 0.56902 0.09665 0.0
H455 H 0.48958 0.60029 0.09758 0.0
C456 C 0.40004 0.52597 0.14244 0.0
C457 C 0.39413 0.51343 0.19969 0.0
C458 C 0.4178 0.54488 0.14325 0.0
C459 C 0.43022 0.55158 0.20105 0.0
C460 C 0.42415 0.53903 0.25841 0.0
C461 C 0.40629 0.52028 0.25788 0.0
C462 C 0.47569 0.6009 0.26076 0.0
C463 C 0.48783 0.60737 0.20256 0.0
C464 C 0.45681 0.58311 0.25986 0.0
C465 C 0.44974 0.57121 0.201 0.0
C466 C 0.46184 0.57789 0.1426 0.0
C467 C 0.48057 0.5958 0.14326 0.0
H468 H 0.89129 0.40093 0.30213 0.0
H469 H 0.8705 0.39122 0.0954 0.0
H470 H 0.89025 0.43227 0.30513 0.0
H471 H 0.86852 0.42214 0.09923 0.0
H472 H 0.89125 0.49001 0.10179 0.0
H473 H 0.88975 0.45744 0.09965 0.0
H474 H 0.86974 0.44721 0.30744 0.0
H475 H 0.87217 0.48034 0.31034 0.0
C476 C 0.88619 0.40534 0.25757 0.0
C477 C 0.88111 0.39363 0.19835 0.0
C478 C 0.88546 0.42329 0.25942 0.0
C479 C 0.87935 0.42987 0.20237 0.0
C480 C 0.87371 0.41782 0.14373 0.0
C481 C 0.87471 0.39999 0.14159 0.0
C482 C 0.88646 0.48079 0.14701 0.0
C483 C 0.88192 0.48783 0.20636 0.0
C484 C 0.88544 0.46198 0.14565 0.0
C485 C 0.8796 0.44957 0.20335 0.0
C486 C 0.87465 0.45647 0.26236 0.0
C487 C 0.87593 0.47543 0.26397 0.0
H488 H 0.40413 0.89231 0.31131 0.0
H489 H 0.39127 0.8705 0.10589 0.0
H490 H 0.4355 0.89123 0.30816 0.0
H491 H 0.42215 0.8685 0.10359 0.0
H492 H 0.48984 0.89046 0.09406 0.0
H493 H 0.45744 0.88944 0.0979 0.0
H494 H 0.45013 0.87044 0.30659 0.0
H495 H 0.48299 0.87238 0.30339 0.0
C496 C 0.40785 0.88698 0.26581 0.0
C497 C 0.39527 0.88161 0.20874 0.0
C498 C 0.42582 0.88624 0.26406 0.0
C499 C 0.4315 0.87984 0.20549 0.0
C500 C 0.41855 0.87393 0.14908 0.0
C501 C 0.40075 0.87494 0.15053 0.0
C502 C 0.48126 0.88597 0.14065 0.0
C503 C 0.48904 0.8816 0.19848 0.0
C504 C 0.46258 0.88526 0.14282 0.0
C505 C 0.45107 0.87988 0.20263 0.0
C506 C 0.4587 0.87504 0.26002 0.0
C507 C 0.4775 0.87602 0.25809 0.0
H508 H 0.60009 0.48958 0.08963 0.0
H509 H 0.61375 0.48015 0.29343 0.0
H510 H 0.56875 0.45699 0.09295 0.0
H511 H 0.58297 0.44724 0.29586 0.0
H512 H 0.51539 0.40268 0.31036 0.0
H513 H 0.54785 0.43378 0.30392 0.0
H514 H 0.55353 0.42127 0.09469 0.0
H515 H 0.52051 0.39046 0.10054 0.0
C516 C 0.59656 0.48039 0.13473 0.0
C517 C 0.6093 0.48753 0.19146 0.0
C518 C 0.57862 0.46163 0.13658 0.0
C519 C 0.57316 0.44947 0.19492 0.0
C520 C 0.58637 0.45635 0.25066 0.0
C521 C 0.60412 0.4752 0.24913 0.0
C522 C 0.52359 0.40648 0.26304 0.0
C523 C 0.51531 0.39409 0.20595 0.0
C524 C 0.54233 0.42431 0.2594 0.0
C525 C 0.55344 0.4301 0.19879 0.0
C526 C 0.5453 0.41749 0.14193 0.0
C527 C 0.52641 0.39975 0.14537 0.0
H528 H 0.25529 0.41975 0.15542 0.0
H529 H 0.2838 0.47701 0.26039 0.0
H530 H 0.2228 0.41936 0.15737 0.0
H531 H 0.25156 0.47689 0.26114 0.0
H532 H 0.16592 0.41962 0.25556 0.0
H533 H 0.19778 0.41875 0.25503 0.0
H534 H 0.22836 0.47798 0.16262 0.0
H535 H 0.19648 0.47857 0.16185 0.0
C536 C 0.25452 0.43221 0.17877 0.0
C537 C 0.27186 0.4484 0.20777 0.0
C538 C 0.23603 0.43196 0.18016 0.0
C539 C 0.23477 0.44811 0.20935 0.0
C540 C 0.25219 0.46432 0.23809 0.0
C541 C 0.27055 0.46437 0.23786 0.0
C542 C 0.17951 0.43237 0.23513 0.0
C543 C 0.17893 0.44915 0.20874 0.0
C544 C 0.19762 0.43185 0.23455 0.0
C545 C 0.21545 0.44832 0.20885 0.0
C546 C 0.21483 0.46516 0.18302 0.0
C547 C 0.19667 0.46549 0.1824 0.0
H548 H 0.80713 0.28347 0.15107 0.0
H549 H 0.83841 0.25447 0.23487 0.0
H550 H 0.77516 0.25116 0.15405 0.0
H551 H 0.80643 0.22204 0.23816 0.0
H552 H 0.74806 0.16457 0.16129 0.0
H553 H 0.78057 0.19646 0.15723 0.0
H554 H 0.75205 0.22793 0.24442 0.0
H555 H 0.71966 0.19605 0.24813 0.0
C556 C 0.80709 0.27008 0.16973 0.0
C557 C 0.82506 0.27129 0.19274 0.0
C558 C 0.78884 0.25167 0.17192 0.0
C559 C 0.7883 0.2341 0.19661 0.0
C560 C 0.80642 0.2353 0.21849 0.0
C561 C 0.82465 0.25379 0.21689 0.0
C562 C 0.74888 0.17836 0.17965 0.0
C563 C 0.73153 0.17803 0.20492 0.0
C564 C 0.76742 0.19653 0.17765 0.0
C565 C 0.76881 0.21469 0.20024 0.0
C566 C 0.75138 0.21422 0.22595 0.0
C567 C 0.73293 0.19603 0.22854 0.0
H568 H 0.58476 0.7473 0.17546 0.0
H569 H 0.52195 0.71648 0.23449 0.0
H570 H 0.58541 0.77975 0.17681 0.0
H571 H 0.522 0.74853 0.23264 0.0
H572 H 0.53217 0.81023 0.28645 0.0
H573 H 0.53337 0.77899 0.28992 0.0
H574 H 0.57436 0.79948 0.1196 0.0
H575 H 0.57433 0.83151 0.12011 0.0
C576 C 0.57109 0.74758 0.18841 0.0
C577 C 0.55335 0.72963 0.20529 0.0
C578 C 0.57135 0.76608 0.18865 0.0
C579 C 0.55376 0.76688 0.2049 0.0
C580 C 0.53597 0.74868 0.22128 0.0
C581 C 0.53584 0.73028 0.22194 0.0
C582 C 0.54174 0.80822 0.25063 0.0
C583 C 0.55325 0.82336 0.20328 0.0
C584 C 0.54217 0.79012 0.25179 0.0
C585 C 0.55386 0.78652 0.20474 0.0
C586 C 0.56538 0.80174 0.15724 0.0
C587 C 0.56517 0.82001 0.15682 0.0
H588 H 0.71757 0.52187 0.17038 0.0
H589 H 0.74882 0.58488 0.22721 0.0
H590 H 0.74943 0.52157 0.17391 0.0
H591 H 0.7811 0.58516 0.22752 0.0
H592 H 0.83253 0.57381 0.28612 0.0
H593 H 0.80059 0.57402 0.28602 0.0
H594 H 0.77987 0.53251 0.11702 0.0
H595 H 0.81103 0.53117 0.12106 0.0
C596 C 0.73143 0.53572 0.18282 0.0
C597 C 0.73096 0.5534 0.1983 0.0
C598 C 0.74972 0.53565 0.18444 0.0
C599 C 0.76799 0.55339 0.20064 0.0
C600 C 0.76737 0.57114 0.21583 0.0
C601 C 0.74897 0.57109 0.2151 0.0
C602 C 0.82099 0.56457 0.24959 0.0
C603 C 0.82427 0.5525 0.20358 0.0
C604 C 0.80278 0.56489 0.24883 0.0
C605 C 0.78753 0.55329 0.20146 0.0
C606 C 0.79102 0.54139 0.15502 0.0
C607 C 0.80907 0.54086 0.15652 0.0
H608 H 0.19693 0.71698 0.17728 0.0
H609 H 0.16518 0.74864 0.22893 0.0
H610 H 0.2291 0.74886 0.17927 0.0
H611 H 0.19718 0.78091 0.22769 0.0
H612 H 0.25992 0.83261 0.2854 0.0
H613 H 0.22774 0.80069 0.28631 0.0
H614 H 0.2487 0.77896 0.12062 0.0
H615 H 0.28122 0.81014 0.12372 0.0
C616 C 0.19694 0.73093 0.18821 0.0
C617 C 0.17879 0.73057 0.20271 0.0
C618 C 0.21531 0.74922 0.18896 0.0
C619 C 0.21585 0.7676 0.20332 0.0
C620 C 0.19747 0.76709 0.21744 0.0
C621 C 0.17912 0.74871 0.21758 0.0
C622 C 0.25765 0.82086 0.24983 0.0
C623 C 0.27305 0.82385 0.20449 0.0
C624 C 0.23911 0.80266 0.24962 0.0
C625 C 0.23549 0.78713 0.20347 0.0
C626 C 0.25094 0.79034 0.15769 0.0
C627 C 0.26953 0.80838 0.15864 0.0
H628 H 0.47824 0.19591 0.15847 0.0
H629 H 0.42103 0.16554 0.26323 0.0
H630 H 0.47767 0.22774 0.16242 0.0
H631 H 0.42045 0.19741 0.26818 0.0
H632 H 0.4179 0.25416 0.19526 0.0
H633 H 0.41746 0.22175 0.19177 0.0
H634 H 0.48062 0.25244 0.24938 0.0
H635 H 0.48094 0.28474 0.25198 0.0
C636 C 0.46551 0.19611 0.18206 0.0
C637 C 0.44969 0.17842 0.2106 0.0
C638 C 0.46524 0.2143 0.18488 0.0
C639 C 0.44907 0.21511 0.21599 0.0
C640 C 0.43305 0.19724 0.24353 0.0
C641 C 0.4334 0.17907 0.24103 0.0
C642 C 0.43158 0.25382 0.20753 0.0
C643 C 0.44942 0.27175 0.2241 0.0
C644 C 0.43135 0.23534 0.20579 0.0
C645 C 0.44903 0.23456 0.22003 0.0
C646 C 0.46682 0.25259 0.23736 0.0
C647 C 0.46699 0.271 0.23948 0.0
H648 H 0.08352 0.41145 0.51302 0.0
H649 H 0.13475 0.47206 0.4942 0.0
H650 H 0.08783 0.41344 0.63561 0.0
H651 H 0.13874 0.47419 0.61595 0.0
H652 H 0.1533 0.46763 0.82849 0.0
H653 H 0.1489 0.46067 0.70789 0.0
H654 H 0.08394 0.4314 0.73226 0.0
H655 H 0.08841 0.43815 0.85349 0.0
C656 C 0.0957 0.42516 0.53495 0.0
C657 C 0.10878 0.4416 0.49379 0.0
C658 C 0.0981 0.42634 0.60519 0.0
C659 C 0.11367 0.44393 0.63562 0.0
C660 C 0.12681 0.46026 0.59422 0.0
C661 C 0.12442 0.4591 0.52429 0.0
C662 C 0.13806 0.45944 0.80818 0.0
C663 C 0.1212 0.45334 0.85042 0.0
C664 C 0.13554 0.45555 0.73905 0.0
C665 C 0.11608 0.4457 0.71023 0.0
C666 C 0.09913 0.43884 0.75292 0.0
C667 C 0.10167 0.44264 0.82245 0.0
H668 H 0.66627 0.13587 0.49132 0.0
H669 H 0.66984 0.08126 0.51231 0.0
H670 H 0.66575 0.13869 0.6133 0.0
H671 H 0.669 0.08397 0.63519 0.0
H672 H 0.68616 0.1096 0.85609 0.0
H673 H 0.68837 0.10537 0.73422 0.0
H674 H 0.64088 0.11968 0.70072 0.0
H675 H 0.63879 0.12395 0.82153 0.0
C676 C 0.66698 0.12446 0.52196 0.0
C677 C 0.66787 0.10821 0.49208 0.0
C678 C 0.66658 0.12603 0.59193 0.0
C679 C 0.66701 0.11137 0.63381 0.0
C680 C 0.66868 0.09551 0.60416 0.0
C681 C 0.66909 0.09393 0.53385 0.0
C682 C 0.67592 0.11137 0.82258 0.0
C683 C 0.66217 0.11691 0.84806 0.0
C684 C 0.67725 0.10907 0.75294 0.0
C685 C 0.66495 0.11242 0.70791 0.0
C686 C 0.65086 0.11741 0.73396 0.0
C687 C 0.64957 0.11974 0.80314 0.0
H688 H 0.53011 0.66214 0.48888 0.0
H689 H 0.59106 0.67239 0.50714 0.0
H690 H 0.52811 0.66415 0.61067 0.0
H691 H 0.58917 0.6748 0.62973 0.0
H692 H 0.56476 0.65074 0.84804 0.0
H693 H 0.57131 0.65281 0.72673 0.0
H694 H 0.54178 0.68826 0.70205 0.0
H695 H 0.5351 0.68598 0.8228 0.0
C696 C 0.54316 0.66498 0.51885 0.0
C697 C 0.56073 0.66707 0.4882 0.0
C698 C 0.54207 0.66628 0.58879 0.0
C699 C 0.55853 0.66976 0.63 0.0
C700 C 0.57618 0.67197 0.59942 0.0
C701 C 0.57729 0.67069 0.52919 0.0
C702 C 0.56019 0.65944 0.81694 0.0
C703 C 0.54951 0.66829 0.8449 0.0
C704 C 0.56386 0.66056 0.74736 0.0
C705 C 0.55687 0.67051 0.70459 0.0
C706 C 0.54701 0.68013 0.73332 0.0
C707 C 0.54328 0.67892 0.80254 0.0
H708 H 0.86845 0.53007 0.49298 0.0
H709 H 0.91916 0.59105 0.5104 0.0
H710 H 0.86485 0.52804 0.61493 0.0
H711 H 0.91527 0.58911 0.63318 0.0
H712 H 0.91566 0.56434 0.85062 0.0
H713 H 0.91975 0.57093 0.72927 0.0
H714 H 0.85474 0.54193 0.70718 0.0
H715 H 0.85071 0.53525 0.82795 0.0
C716 C 0.87876 0.54312 0.5228 0.0
C717 C 0.89412 0.56071 0.49188 0.0
C718 C 0.87659 0.54201 0.59282 0.0
C719 C 0.88971 0.55846 0.63383 0.0
C720 C 0.90502 0.57613 0.60299 0.0
C721 C 0.90716 0.57727 0.53267 0.0
C722 C 0.90231 0.55989 0.82011 0.0
C723 C 0.88287 0.54937 0.84881 0.0
C724 C 0.90463 0.56359 0.75051 0.0
C725 C 0.88755 0.55676 0.70846 0.0
C726 C 0.86819 0.54704 0.73791 0.0
C727 C 0.86588 0.5433 0.80714 0.0
H728 H 0.31683 0.85019 0.82681 0.0
H729 H 0.35273 0.9151 0.85082 0.0
H730 H 0.3142 0.85446 0.70617 0.0
H731 H 0.35025 0.91943 0.72963 0.0
H732 H 0.32964 0.9194 0.51113 0.0
H733 H 0.3277 0.91525 0.63381 0.0
H734 H 0.33804 0.86467 0.61373 0.0
H735 H 0.3396 0.86854 0.4919 0.0
C736 C 0.32397 0.86541 0.80632 0.0
C737 C 0.33487 0.88231 0.84833 0.0
C738 C 0.32255 0.86785 0.73717 0.0
C739 C 0.33219 0.88728 0.70813 0.0
C740 C 0.34246 0.90427 0.75053 0.0
C741 C 0.34382 0.90181 0.82005 0.0
C742 C 0.33136 0.90732 0.53298 0.0
C743 C 0.33479 0.89431 0.4917 0.0
C744 C 0.33035 0.90502 0.60325 0.0
C745 C 0.33264 0.88959 0.63355 0.0
C746 C 0.33587 0.8765 0.59206 0.0
C747 C 0.33692 0.87882 0.52209 0.0
H748 H 0.4166 0.30261 0.50782 0.0
H749 H 0.46838 0.36317 0.5071 0.0
H750 H 0.41773 0.30219 0.63147 0.0
H751 H 0.46914 0.36288 0.63052 0.0
H752 H 0.44997 0.3603 0.85448 0.0
H753 H 0.44427 0.35973 0.73226 0.0
H754 H 0.44647 0.30438 0.71563 0.0
H755 H 0.45262 0.30522 0.83723 0.0
C756 C 0.42807 0.31588 0.53406 0.0
C757 C 0.44246 0.33289 0.49784 0.0
C758 C 0.42872 0.31562 0.60466 0.0
C759 C 0.44344 0.33255 0.64031 0.0
C760 C 0.45752 0.34972 0.60419 0.0
C761 C 0.45717 0.34981 0.53364 0.0
C762 C 0.4488 0.34782 0.82477 0.0
C763 C 0.45154 0.3327 0.85506 0.0
C764 C 0.44571 0.34758 0.755 0.0
C765 C 0.44492 0.33199 0.71477 0.0
C766 C 0.44685 0.31646 0.74563 0.0
C767 C 0.4504 0.31696 0.81499 0.0
H768 H 0.57787 0.89362 0.55016 0.0
H769 H 0.51547 0.87672 0.58552 0.0
H770 H 0.58436 0.89791 0.67196 0.0
H771 H 0.52188 0.88113 0.7063 0.0
H772 H 0.53216 0.86611 0.91583 0.0
H773 H 0.52866 0.8631 0.79393 0.0
H774 H 0.58583 0.91867 0.771 0.0
H775 H 0.58957 0.92153 0.89379 0.0
C776 C 0.5657 0.89129 0.58387 0.0
C777 C 0.54622 0.88504 0.55862 0.0
C778 C 0.56937 0.89364 0.65348 0.0
C779 C 0.55358 0.88964 0.69875 0.0
C780 C 0.53427 0.88391 0.67292 0.0
C781 C 0.53062 0.88151 0.60375 0.0
C782 C 0.54406 0.87766 0.88496 0.0
C783 C 0.56104 0.89419 0.91453 0.0
C784 C 0.542 0.87599 0.81502 0.0
C785 C 0.55681 0.89083 0.77285 0.0
C786 C 0.57418 0.90698 0.80221 0.0
C787 C 0.57628 0.90864 0.87249 0.0
H788 H 0.67008 0.58951 0.88913 0.0
H789 H 0.66652 0.53144 0.91367 0.0
H790 H 0.66928 0.58545 0.76644 0.0
H791 H 0.66603 0.52759 0.79192 0.0
H792 H 0.63883 0.51451 0.58352 0.0
H793 H 0.64111 0.52134 0.70407 0.0
H794 H 0.68868 0.58295 0.66814 0.0
H795 H 0.68631 0.57602 0.54659 0.0
C796 C 0.66934 0.57601 0.86842 0.0
C797 C 0.6681 0.56068 0.91113 0.0
C798 C 0.66896 0.57372 0.79822 0.0
C799 C 0.66729 0.55606 0.76962 0.0
C800 C 0.66686 0.54116 0.81245 0.0
C801 C 0.66724 0.54342 0.88229 0.0
C802 C 0.64968 0.52956 0.60132 0.0
C803 C 0.66222 0.5448 0.55579 0.0
C804 C 0.65107 0.53344 0.67036 0.0
C805 C 0.66521 0.55263 0.69565 0.0
C806 C 0.67751 0.56807 0.65001 0.0
C807 C 0.67609 0.56416 0.58054 0.0
H808 H 0.15343 0.68695 0.58601 0.0
H809 H 0.08859 0.65138 0.55969 0.0
H810 H 0.14881 0.68925 0.70661 0.0
H811 H 0.0839 0.65344 0.68085 0.0
H812 H 0.08312 0.67291 0.90004 0.0
H813 H 0.08763 0.6753 0.77753 0.0
H814 H 0.13846 0.66537 0.7983 0.0
H815 H 0.13426 0.66342 0.91999 0.0
C816 C 0.13816 0.67982 0.60601 0.0
C817 C 0.12138 0.66911 0.56338 0.0
C818 C 0.13551 0.68103 0.67514 0.0
C819 C 0.116 0.67133 0.70355 0.0
C820 C 0.09913 0.66127 0.6605 0.0
C821 C 0.1018 0.66015 0.591 0.0
C822 C 0.09533 0.67137 0.87838 0.0
C823 C 0.10832 0.66797 0.91983 0.0
C824 C 0.09784 0.67263 0.80819 0.0
C825 C 0.11345 0.67061 0.7781 0.0
C826 C 0.1265 0.66736 0.81978 0.0
C827 C 0.12399 0.66608 0.88967 0.0
H828 H 0.46968 0.15271 0.58715 0.0
H829 H 0.43744 0.0877 0.563 0.0
H830 H 0.46265 0.14876 0.7077 0.0
H831 H 0.43065 0.08364 0.68426 0.0
H832 H 0.41145 0.08449 0.90344 0.0
H833 H 0.41353 0.08865 0.78081 0.0
H834 H 0.47523 0.13783 0.79995 0.0
H835 H 0.47303 0.13402 0.92173 0.0
C836 C 0.46088 0.13755 0.60765 0.0
C837 C 0.45403 0.12052 0.56568 0.0
C838 C 0.45695 0.13528 0.67677 0.0
C839 C 0.44632 0.11588 0.70586 0.0
C840 C 0.43871 0.0988 0.6634 0.0
C841 C 0.44254 0.10111 0.59386 0.0
C842 C 0.4254 0.09628 0.88139 0.0
C843 C 0.44208 0.10892 0.92241 0.0
C844 C 0.42662 0.09858 0.81112 0.0
C845 C 0.44451 0.11362 0.78051 0.0
C846 C 0.46108 0.12633 0.82178 0.0
C847 C 0.45987 0.12404 0.89176 0.0
H848 H 0.33399 0.4694 0.91907 0.0
H849 H 0.33496 0.41347 0.89579 0.0
H850 H 0.33443 0.47305 0.79717 0.0
H851 H 0.33572 0.41735 0.77309 0.0
H852 H 0.31844 0.42496 0.55213 0.0
H853 H 0.31581 0.41821 0.67372 0.0
H854 H 0.36016 0.48098 0.71061 0.0
H855 H 0.36277 0.48763 0.58999 0.0
C856 C 0.33424 0.45784 0.88793 0.0
C857 C 0.33468 0.44126 0.91713 0.0
C858 C 0.3346 0.45999 0.81804 0.0
C859 C 0.33544 0.44565 0.7756 0.0
C860 C 0.33503 0.42862 0.80457 0.0
C861 C 0.33466 0.42644 0.87478 0.0
C862 C 0.32793 0.43715 0.58627 0.0
C863 C 0.341 0.45676 0.56169 0.0
C864 C 0.32633 0.43333 0.6558 0.0
C865 C 0.33763 0.44911 0.70169 0.0
C866 C 0.35095 0.46859 0.67666 0.0
C867 C 0.35254 0.47238 0.60756 0.0
H868 H 0.86875 0.3392 0.90793 0.0
H869 H 0.92009 0.32987 0.89196 0.0
H870 H 0.86497 0.33696 0.78606 0.0
H871 H 0.91601 0.32722 0.76932 0.0
H872 H 0.91558 0.35067 0.55003 0.0
H873 H 0.91995 0.34887 0.67157 0.0
H874 H 0.855 0.31272 0.6953 0.0
H875 H 0.8507 0.31476 0.57436 0.0
C876 C 0.87916 0.33652 0.87845 0.0
C877 C 0.89475 0.33475 0.90975 0.0
C878 C 0.87689 0.33508 0.80847 0.0
C879 C 0.89012 0.33178 0.76789 0.0
C880 C 0.90567 0.3299 0.79913 0.0
C881 C 0.90793 0.33132 0.86939 0.0
C882 C 0.9023 0.34188 0.581 0.0
C883 C 0.8828 0.33278 0.55273 0.0
C884 C 0.90479 0.34091 0.6507 0.0
C885 C 0.8878 0.33085 0.69325 0.0
C886 C 0.86838 0.32095 0.6642 0.0
C887 C 0.86591 0.32202 0.59488 0.0
H888 H 0.05405 0.40834 0.09502 0.0
H889 H 0.05194 0.42173 0.30575 0.0
H890 H 0.01731 0.38634 0.09488 0.0
H891 H 0.0154 0.40077 0.3049 0.0
H892 H 0.94996 0.35375 0.3021 0.0
H893 H 0.9867 0.36875 0.30062 0.0
H894 H 0.98819 0.38908 0.0958 0.0
H895 H 0.95159 0.37321 0.09629 0.0
C896 C 0.04576 0.40657 0.14129 0.0
C897 C 0.05594 0.41687 0.20024 0.0
C898 C 0.02466 0.39405 0.1412 0.0
C899 C 0.01322 0.39181 0.19977 0.0
C900 C 0.02357 0.40174 0.25908 0.0
C901 C 0.04462 0.41396 0.25943 0.0
C902 C 0.95815 0.3612 0.25654 0.0
C903 C 0.94784 0.36237 0.19951 0.0
C904 C 0.97926 0.36995 0.25574 0.0
C905 C 0.99059 0.38038 0.19829 0.0
C906 C 0.98011 0.38096 0.14066 0.0
C907 C 0.95903 0.37195 0.14111 0.0
H908 H 0.58199 0.95081 0.09955 0.0
H909 H 0.59705 0.9493 0.30887 0.0
H910 H 0.60293 0.98738 0.0991 0.0
H911 H 0.61897 0.98602 0.30765 0.0
H912 H 0.63115 0.05143 0.30705 0.0
H913 H 0.61569 0.01486 0.30783 0.0
H914 H 0.6349 0.01635 0.10149 0.0
H915 H 0.64953 0.05305 0.09984 0.0
C916 C 0.59014 0.95826 0.14521 0.0
C917 C 0.58766 0.94711 0.2045 0.0
C918 C 0.60233 0.97933 0.14482 0.0
C919 C 0.61265 0.98984 0.20345 0.0
C920 C 0.61093 0.97855 0.26191 0.0
C921 C 0.59846 0.95746 0.26258 0.0
C922 C 0.63226 0.044 0.26196 0.0
C923 C 0.6414 0.05517 0.20312 0.0
C924 C 0.6235 0.02294 0.26256 0.0
C925 C 0.62388 0.01247 0.20461 0.0
C926 C 0.63388 0.02378 0.14666 0.0
C927 C 0.6424 0.04487 0.14575 0.0
H928 H 0.65004 0.59661 0.10381 0.0
H929 H 0.62925 0.57932 0.30877 0.0
H930 H 0.63491 0.61818 0.10112 0.0
H931 H 0.61335 0.60013 0.30527 0.0
H932 H 0.59514 0.64744 0.29885 0.0
H933 H 0.6169 0.63255 0.30229 0.0
H934 H 0.60247 0.61446 0.09354 0.0
H935 H 0.58148 0.63017 0.08944 0.0
C936 C 0.64229 0.59747 0.14843 0.0
C937 C 0.64076 0.58615 0.2064 0.0
C938 C 0.63348 0.60974 0.14674 0.0
C939 C 0.62266 0.61079 0.20266 0.0
C940 C 0.62176 0.59998 0.26147 0.0
C941 C 0.63082 0.58793 0.26345 0.0
C942 C 0.59684 0.64051 0.25343 0.0
C943 C 0.58646 0.63987 0.19399 0.0
C944 C 0.60922 0.63183 0.25553 0.0
C945 C 0.61133 0.62204 0.19848 0.0
C946 C 0.60149 0.62206 0.13832 0.0
C947 C 0.58932 0.63099 0.13598 0.0
H948 H 0.05482 0.65046 0.11461 0.0
H949 H 0.05109 0.6289 0.31859 0.0
H950 H 0.01817 0.63543 0.11158 0.0
H951 H 0.01435 0.613 0.31465 0.0
H952 H 0.94863 0.59442 0.3067 0.0
H953 H 0.98528 0.61617 0.31185 0.0
H954 H 0.98964 0.60311 0.10211 0.0
H955 H 0.95299 0.58218 0.09636 0.0
C956 C 0.04616 0.64255 0.15894 0.0
C957 C 0.05586 0.64074 0.21667 0.0
C958 C 0.02509 0.63378 0.15705 0.0
C959 C 0.01314 0.6227 0.21247 0.0
C960 C 0.02297 0.62159 0.27119 0.0
C961 C 0.04409 0.63063 0.27343 0.0
C962 C 0.95741 0.59643 0.26146 0.0
C963 C 0.94788 0.58647 0.20121 0.0
C964 C 0.97848 0.6088 0.26452 0.0
C965 C 0.99057 0.61131 0.20764 0.0
C966 C 0.98091 0.60184 0.14679 0.0
C967 C 0.95983 0.5897 0.1435 0.0
H968 H 0.37333 0.95258 0.09487 0.0
H969 H 0.35347 0.94827 0.30145 0.0
H970 H 0.3891 0.98927 0.1001 0.0
H971 H 0.36841 0.98492 0.30589 0.0
H972 H 0.40735 0.05476 0.11085 0.0
H973 H 0.3856 0.01812 0.10602 0.0
H974 H 0.40078 0.01365 0.31319 0.0
H975 H 0.42176 0.05033 0.31875 0.0
C976 C 0.37194 0.95944 0.14095 0.0
C977 C 0.36233 0.9475 0.19794 0.0
C978 C 0.38091 0.98054 0.14393 0.0
C979 C 0.38023 0.99021 0.2037 0.0
C980 C 0.36969 0.97811 0.25954 0.0
C981 C 0.36097 0.95705 0.25684 0.0
C982 C 0.40581 0.04596 0.15565 0.0
C983 C 0.4164 0.05546 0.21506 0.0
C984 C 0.39344 0.0249 0.15274 0.0
C985 C 0.39155 0.01277 0.2089 0.0
C986 C 0.40159 0.02241 0.2691 0.0
C987 C 0.41375 0.0435 0.27227 0.0
H988 H 0.35403 0.40503 0.30896 0.0
H989 H 0.37212 0.42173 0.10153 0.0
H990 H 0.36909 0.38334 0.30737 0.0
H991 H 0.38802 0.401 0.10081 0.0
H992 H 0.40757 0.35457 0.10112 0.0
H993 H 0.3854 0.36913 0.10149 0.0
H994 H 0.40132 0.38704 0.30975 0.0
H995 H 0.42249 0.37169 0.31019 0.0
C996 C 0.36119 0.40404 0.263 0.0
C997 C 0.36199 0.41523 0.20559 0.0
C998 C 0.36996 0.3917 0.26213 0.0
C999 C 0.38003 0.39051 0.20417 0.0
C1000 C 0.38019 0.40121 0.14611 0.0
C1001 C 0.37116 0.41327 0.14667 0.0
C1002 C 0.40609 0.3614 0.14716 0.0
C1003 C 0.41688 0.36203 0.20548 0.0
C1004 C 0.39347 0.36987 0.14733 0.0
C1005 C 0.39159 0.37945 0.20554 0.0
C1006 C 0.40201 0.37954 0.26426 0.0
C1007 C 0.41435 0.37083 0.26435 0.0
loop_
_geom_bond_atom_site_label_1
_geom_bond_atom_site_label_2
_geom_bond_distance
_geom_bond_site_symmetry_2
_ccdc_geom_bond_type
Co0 O3 1.970 . S
Co0 N17 1.989 . S
Co0 O25 1.967 . S
Co0 O32 1.920 . S
Co1 O4 1.966 . S
Co1 N10 2.022 . S
Co1 N18 1.993 . S
Co1 O26 1.941 . S
C2 O3 1.258 . S
C2 O4 1.263 . S
O3 Co0 1.970 . S
O3 C2 1.258 . S
O4 Co1 1.966 . S
O4 C2 1.263 . S
C5 O6 1.235 . S
C5 O32 1.289 . S
O6 C5 1.235 . S
C7 C9 1.400 . S
C7 N10 1.351 1_556 S
C7 C12 1.501 . S
C8 C9 1.387 . S
C8 N11 1.341 . S
C9 C7 1.400 . S
C9 C8 1.387 . S
N10 Co1 2.022 . S
N10 C7 1.351 1_554 S
N10 N11 1.365 1_554 S
N11 C8 1.341 . S
N11 N10 1.365 1_556 S
N11 H31 0.862 . S
C12 C7 1.501 . S
C12 H13 0.961 1_556 S
C12 H14 0.961 . S
C12 H15 0.960 . S
H13 C12 0.961 1_554 S
H14 C12 0.961 . S
H15 C12 0.960 . S
C16 N17 1.342 . S
C16 C20 1.401 . S
C16 C21 1.499 . S
N17 Co0 1.989 . S
N17 C16 1.342 . S
N17 N18 1.388 . S
N18 Co1 1.993 . S
N18 N17 1.388 . S
N18 C19 1.346 . S
C19 N18 1.346 . S
C19 C20 1.396 . S
C19 C29 1.510 . S
C20 C16 1.401 . S
C20 C19 1.396 . S
C21 C16 1.499 . S
C21 H22 0.959 . S
C21 H23 0.960 . S
C21 H24 0.961 . S
H22 C21 0.959 . S
H23 C21 0.960 . S
H24 C21 0.961 . S
O25 Co0 1.967 . S
O25 C33 1.258 . S
O26 Co1 1.941 . S
O26 C33 1.266 . S
H27 C29 0.959 . S
H28 C29 0.961 . S
C29 C19 1.510 . S
C29 H27 0.959 . S
C29 H28 0.961 . S
C29 H30 0.960 . S
H30 C29 0.960 . S
H31 N11 0.862 . S
O32 Co0 1.920 . S
O32 C5 1.289 . S
C33 O25 1.258 . S
C33 O26 1.266 . S
Co34 O37 1.970 . S
Co34 N51 1.989 . S
Co34 O59 1.967 . S
Co34 O66 1.920 . S
Co35 O38 1.966 . S
Co35 N44 2.022 . S
Co35 N52 1.993 . S
Co35 O60 1.941 . S
C36 O37 1.258 . S
C36 O38 1.263 . S
O37 Co34 1.970 . S
O37 C36 1.258 . S
O38 Co35 1.966 . S
O38 C36 1.263 . S
C39 O40 1.235 . S
C39 O66 1.289 . S
O40 C39 1.235 . S
C41 C43 1.400 . S
C41 N44 1.351 1_556 S
C41 C46 1.501 . S
C42 C43 1.387 . S
C42 N45 1.341 . S
C43 C41 1.400 . S
C43 C42 1.387 . S
N44 Co35 2.022 . S
N44 C41 1.351 1_554 S
N44 N45 1.365 1_554 S
N45 C42 1.341 . S
N45 N44 1.365 1_556 S
N45 H65 0.862 . S
C46 C41 1.501 . S
C46 H47 0.961 1_556 S
C46 H48 0.961 . S
C46 H49 0.960 . S
H47 C46 0.961 1_554 S
H48 C46 0.961 . S
H49 C46 0.960 . S
C50 N51 1.342 . S
C50 C54 1.401 . S
C50 C55 1.499 . S
N51 Co34 1.989 . S
N51 C50 1.342 . S
N51 N52 1.388 . S
N52 Co35 1.993 . S
N52 N51 1.388 . S
N52 C53 1.346 . S
C53 N52 1.346 . S
C53 C54 1.396 . S
C53 C63 1.510 . S
C54 C50 1.401 . S
C54 C53 1.396 . S
C55 C50 1.499 . S
C55 H56 0.959 . S
C55 H57 0.960 . S
C55 H58 0.961 . S
H56 C55 0.959 . S
H57 C55 0.960 . S
H58 C55 0.961 . S
O59 Co34 1.967 . S
O59 C67 1.258 . S
O60 Co35 1.941 . S
O60 C67 1.266 . S
H61 C63 0.959 . S
H62 C63 0.961 . S
C63 C53 1.510 . S
C63 H61 0.959 . S
C63 H62 0.961 . S
C63 H64 0.960 . S
H64 C63 0.960 . S
H65 N45 0.862 . S
O66 Co34 1.920 . S
O66 C39 1.289 . S
C67 O59 1.258 . S
C67 O60 1.266 . S
Co68 O71 1.970 . S
Co68 N85 1.989 . S
Co68 O93 1.967 . S
Co68 O100 1.920 . S
Co69 O72 1.966 . S
Co69 N78 2.022 . S
Co69 N86 1.993 . S
Co69 O94 1.941 . S
C70 O71 1.258 . S
C70 O72 1.263 . S
O71 Co68 1.970 . S
O71 C70 1.258 . S
O72 Co69 1.966 . S
O72 C70 1.263 . S
C73 O74 1.235 . S
C73 O100 1.289 . S
O74 C73 1.235 . S
C75 C77 1.400 . S
C75 N78 1.351 1_556 S
C75 C80 1.501 . S
C76 C77 1.387 . S
C76 N79 1.341 . S
C77 C75 1.400 . S
C77 C76 1.387 . S
N78 Co69 2.022 . S
N78 C75 1.351 1_554 S
N78 N79 1.365 1_554 S
N79 C76 1.341 . S
N79 N78 1.365 1_556 S
N79 H99 0.862 . S
C80 C75 1.501 . S
C80 H81 0.961 1_556 S
C80 H82 0.961 . S
C80 H83 0.960 . S
H81 C80 0.961 1_554 S
H82 C80 0.961 . S
H83 C80 0.960 . S
C84 N85 1.342 . S
C84 C88 1.401 . S
C84 C89 1.499 . S
N85 Co68 1.989 . S
N85 C84 1.342 . S
N85 N86 1.388 . S
N86 Co69 1.993 . S
N86 N85 1.388 . S
N86 C87 1.346 . S
C87 N86 1.346 . S
C87 C88 1.396 . S
C87 C97 1.510 . S
C88 C84 1.401 . S
C88 C87 1.396 . S
C89 C84 1.499 . S
C89 H90 0.959 . S
C89 H91 0.960 . S
C89 H92 0.961 . S
H90 C89 0.959 . S
H91 C89 0.960 . S
H92 C89 0.961 . S
O93 Co68 1.967 . S
O93 C101 1.258 . S
O94 Co69 1.941 . S
O94 C101 1.266 . S
H95 C97 0.959 . S
H96 C97 0.961 . S
C97 C87 1.510 . S
C97 H95 0.959 . S
C97 H96 0.961 . S
C97 H98 0.960 . S
H98 C97 0.960 . S
H99 N79 0.862 . S
O100 Co68 1.920 . S
O100 C73 1.289 . S
C101 O93 1.258 . S
C101 O94 1.266 . S
Co102 O105 1.970 . S
Co102 N119 1.989 . S
Co102 O127 1.967 . S
Co102 O134 1.920 . S
Co103 O106 1.966 . S
Co103 N112 2.022 . S
Co103 N120 1.993 . S
Co103 O128 1.941 . S
C104 O105 1.258 . S
C104 O106 1.263 . S
O105 Co102 1.970 . S
O105 C104 1.258 . S
O106 Co103 1.966 . S
O106 C104 1.263 . S
C107 O108 1.235 . S
C107 O134 1.289 . S
O108 C107 1.235 . S
C109 C111 1.400 . S
C109 N112 1.351 1_556 S
C109 C114 1.501 . S
C110 C111 1.387 . S
C110 N113 1.341 . S
C111 C109 1.400 . S
C111 C110 1.387 . S
N112 Co103 2.022 . S
N112 C109 1.351 1_554 S
N112 N113 1.365 1_554 S
N113 C110 1.341 . S
N113 N112 1.365 1_556 S
N113 H133 0.862 . S
C114 C109 1.501 . S
C114 H115 0.961 1_556 S
C114 H116 0.961 . S
C114 H117 0.960 . S
H115 C114 0.961 1_554 S
H116 C114 0.961 . S
H117 C114 0.960 . S
C118 N119 1.342 . S
C118 C122 1.401 . S
C118 C123 1.499 . S
N119 Co102 1.989 . S
N119 C118 1.342 . S
N119 N120 1.388 . S
N120 Co103 1.993 . S
N120 N119 1.388 . S
N120 C121 1.346 . S
C121 N120 1.346 . S
C121 C122 1.396 . S
C121 C131 1.510 . S
C122 C118 1.401 . S
C122 C121 1.396 . S
C123 C118 1.499 . S
C123 H124 0.959 . S
C123 H125 0.960 . S
C123 H126 0.961 . S
H124 C123 0.959 . S
H125 C123 0.960 . S
H126 C123 0.961 . S
O127 Co102 1.967 . S
O127 C135 1.258 . S
O128 Co103 1.941 . S
O128 C135 1.266 . S
H129 C131 0.959 . S
H130 C131 0.961 . S
C131 C121 1.510 . S
C131 H129 0.959 . S
C131 H130 0.961 . S
C131 H132 0.960 . S
H132 C131 0.960 . S
H133 N113 0.862 . S
O134 Co102 1.920 . S
O134 C107 1.289 . S
C135 O127 1.258 . S
C135 O128 1.266 . S
Co136 O139 1.970 . S
Co136 N153 1.989 . S
Co136 O161 1.967 . S
Co136 O168 1.920 . S
Co137 O140 1.966 . S
Co137 N146 2.022 . S
Co137 N154 1.993 . S
Co137 O162 1.941 . S
C138 O139 1.258 . S
C138 O140 1.263 . S
O139 Co136 1.970 . S
O139 C138 1.258 . S
O140 Co137 1.966 . S
O140 C138 1.263 . S
C141 O142 1.235 . S
C141 O168 1.289 . S
O142 C141 1.235 . S
C143 C145 1.400 . S
C143 N146 1.351 1_556 S
C143 C148 1.501 . S
C144 C145 1.387 . S
C144 N147 1.341 . S
C145 C143 1.400 . S
C145 C144 1.387 . S
N146 Co137 2.022 . S
N146 C143 1.351 1_554 S
N146 N147 1.365 1_554 S
N147 C144 1.341 . S
N147 N146 1.365 1_556 S
N147 H167 0.862 . S
C148 C143 1.501 . S
C148 H149 0.961 1_556 S
C148 H150 0.961 . S
C148 H151 0.960 . S
H149 C148 0.961 1_554 S
H150 C148 0.961 . S
H151 C148 0.960 . S
C152 N153 1.342 . S
C152 C156 1.401 . S
C152 C157 1.499 . S
N153 Co136 1.989 . S
N153 C152 1.342 . S
N153 N154 1.388 . S
N154 Co137 1.993 . S
N154 N153 1.388 . S
N154 C155 1.346 . S
C155 N154 1.346 . S
C155 C156 1.396 . S
C155 C165 1.510 . S
C156 C152 1.401 . S
C156 C155 1.396 . S
C157 C152 1.499 . S
C157 H158 0.959 . S
C157 H159 0.960 . S
C157 H160 0.961 . S
H158 C157 0.959 . S
H159 C157 0.960 . S
H160 C157 0.961 . S
O161 Co136 1.967 . S
O161 C169 1.258 . S
O162 Co137 1.941 . S
O162 C169 1.266 . S
H163 C165 0.959 . S
H164 C165 0.961 . S
C165 C155 1.510 . S
C165 H163 0.959 . S
C165 H164 0.961 . S
C165 H166 0.960 . S
H166 C165 0.960 . S
H167 N147 0.862 . S
O168 Co136 1.920 . S
O168 C141 1.289 . S
C169 O161 1.258 . S
C169 O162 1.266 . S
Co170 O173 1.970 . S
Co170 N187 1.989 . S
Co170 O195 1.967 . S
Co170 O202 1.920 . S
Co171 O174 1.966 . S
Co171 N180 2.022 . S
Co171 N188 1.993 . S
Co171 O196 1.941 . S
C172 O173 1.258 . S
C172 O174 1.263 . S
O173 Co170 1.970 . S
O173 C172 1.258 . S
O174 Co171 1.966 . S
O174 C172 1.263 . S
C175 O176 1.235 . S
C175 O202 1.289 . S
O176 C175 1.235 . S
C177 C179 1.400 . S
C177 N180 1.351 1_556 S
C177 C182 1.501 . S
C178 C179 1.387 . S
C178 N181 1.341 . S
C179 C177 1.400 . S
C179 C178 1.387 . S
N180 Co171 2.022 . S
N180 C177 1.351 1_554 S
N180 N181 1.365 1_554 S
N181 C178 1.341 . S
N181 N180 1.365 1_556 S
N181 H201 0.862 . S
C182 C177 1.501 . S
C182 H183 0.961 1_556 S
C182 H184 0.961 . S
C182 H185 0.960 . S
H183 C182 0.961 1_554 S
H184 C182 0.961 . S
H185 C182 0.960 . S
C186 N187 1.342 . S
C186 C190 1.401 . S
C186 C191 1.499 . S
N187 Co170 1.989 . S
N187 C186 1.342 . S
N187 N188 1.388 . S
N188 Co171 1.993 . S
N188 N187 1.388 . S
N188 C189 1.346 . S
C189 N188 1.346 . S
C189 C190 1.396 . S
C189 C199 1.510 . S
C190 C186 1.401 . S
C190 C189 1.396 . S
C191 C186 1.499 . S
C191 H192 0.959 . S
C191 H193 0.960 . S
C191 H194 0.961 . S
H192 C191 0.959 . S
H193 C191 0.960 . S
H194 C191 0.961 . S
O195 Co170 1.967 . S
O195 C203 1.258 . S
O196 Co171 1.941 . S
O196 C203 1.266 . S
H197 C199 0.959 . S
H198 C199 0.961 . S
C199 C189 1.510 . S
C199 H197 0.959 . S
C199 H198 0.961 . S
C199 H200 0.960 . S
H200 C199 0.960 . S
H201 N181 0.862 . S
O202 Co170 1.920 . S
O202 C175 1.289 . S
C203 O195 1.258 . S
C203 O196 1.266 . S
Co204 O207 1.970 . S
Co204 N221 1.989 . S
Co204 O229 1.967 . S
Co204 O236 1.920 . S
Co205 O208 1.966 . S
Co205 N214 2.022 . S
Co205 N222 1.993 . S
Co205 O230 1.941 . S
C206 O207 1.258 . S
C206 O208 1.263 . S
O207 Co204 1.970 . S
O207 C206 1.258 . S
O208 Co205 1.966 . S
O208 C206 1.263 . S
C209 O210 1.235 . S
C209 O236 1.289 . S
O210 C209 1.235 . S
C211 C213 1.400 . S
C211 N214 1.351 . S
C211 C216 1.501 . S
C212 C213 1.387 . S
C212 N215 1.341 . S
C213 C211 1.400 . S
C213 C212 1.387 . S
N214 Co205 2.022 . S
N214 C211 1.351 . S
N214 N215 1.365 . S
N215 C212 1.341 . S
N215 N214 1.365 . S
N215 H235 0.862 . S
C216 C211 1.501 . S
C216 H217 0.961 . S
C216 H218 0.961 . S
C216 H219 0.960 . S
H217 C216 0.961 . S
H218 C216 0.961 . S
H219 C216 0.960 . S
C220 N221 1.342 . S
C220 C224 1.401 . S
C220 C225 1.499 . S
N221 Co204 1.989 . S
N221 C220 1.342 . S
N221 N222 1.388 . S
N222 Co205 1.993 . S
N222 N221 1.388 . S
N222 C223 1.346 . S
C223 N222 1.346 . S
C223 C224 1.396 . S
C223 C233 1.510 . S
C224 C220 1.401 . S
C224 C223 1.396 . S
C225 C220 1.499 . S
C225 H226 0.959 . S
C225 H227 0.960 . S
C225 H228 0.961 . S
H226 C225 0.959 . S
H227 C225 0.960 . S
H228 C225 0.961 . S
O229 Co204 1.967 . S
O229 C237 1.258 . S
O230 Co205 1.941 . S
O230 C237 1.266 . S
H231 C233 0.959 . S
H232 C233 0.961 . S
C233 C223 1.510 . S
C233 H231 0.959 . S
C233 H232 0.961 . S
C233 H234 0.960 . S
H234 C233 0.960 . S
H235 N215 0.862 . S
O236 Co204 1.920 . S
O236 C209 1.289 . S
C237 O229 1.258 . S
C237 O230 1.266 . S
Co238 O241 1.970 . S
Co238 N255 1.989 . S
Co238 O263 1.967 . S
Co238 O270 1.920 . S
Co239 O242 1.966 . S
Co239 N248 2.022 . S
Co239 N256 1.993 . S
Co239 O264 1.941 . S
C240 O241 1.258 . S
C240 O242 1.263 . S
O241 Co238 1.970 . S
O241 C240 1.258 . S
O242 Co239 1.966 . S
O242 C240 1.263 . S
C243 O244 1.235 . S
C243 O270 1.289 . S
O244 C243 1.235 . S
C245 C247 1.400 . S
C245 N248 1.351 . S
C245 C250 1.501 . S
C246 C247 1.387 . S
C246 N249 1.341 . S
C247 C245 1.400 . S
C247 C246 1.387 . S
N248 Co239 2.022 . S
N248 C245 1.351 . S
N248 N249 1.365 . S
N249 C246 1.341 . S
N249 N248 1.365 . S
N249 H269 0.862 . S
C250 C245 1.501 . S
C250 H251 0.961 . S
C250 H252 0.961 . S
C250 H253 0.960 . S
H251 C250 0.961 . S
H252 C250 0.961 . S
H253 C250 0.960 . S
C254 N255 1.342 . S
C254 C258 1.401 . S
C254 C259 1.499 . S
N255 Co238 1.989 . S
N255 C254 1.342 . S
N255 N256 1.388 . S
N256 Co239 1.993 . S
N256 N255 1.388 . S
N256 C257 1.346 . S
C257 N256 1.346 . S
C257 C258 1.396 . S
C257 C267 1.510 . S
C258 C254 1.401 . S
C258 C257 1.396 . S
C259 C254 1.499 . S
C259 H260 0.959 . S
C259 H261 0.960 . S
C259 H262 0.961 . S
H260 C259 0.959 . S
H261 C259 0.960 . S
H262 C259 0.961 . S
O263 Co238 1.967 . S
O263 C271 1.258 . S
O264 Co239 1.941 . S
O264 C271 1.266 . S
H265 C267 0.959 . S
H266 C267 0.961 . S
C267 C257 1.510 . S
C267 H265 0.959 . S
C267 H266 0.961 . S
C267 H268 0.960 . S
H268 C267 0.960 . S
H269 N249 0.862 . S
O270 Co238 1.920 . S
O270 C243 1.289 . S
C271 O263 1.258 . S
C271 O264 1.266 . S
Co272 O275 1.970 . S
Co272 N289 1.989 . S
Co272 O297 1.967 . S
Co272 O304 1.920 . S
Co273 O276 1.966 . S
Co273 N282 2.022 . S
Co273 N290 1.993 . S
Co273 O298 1.941 . S
C274 O275 1.258 . S
C274 O276 1.263 . S
O275 Co272 1.970 . S
O275 C274 1.258 . S
O276 Co273 1.966 . S
O276 C274 1.263 . S
C277 O278 1.235 . S
C277 O304 1.289 . S
O278 C277 1.235 . S
C279 C281 1.400 . S
C279 N282 1.351 . S
C279 C284 1.501 . S
C280 C281 1.387 . S
C280 N283 1.341 . S
C281 C279 1.400 . S
C281 C280 1.387 . S
N282 Co273 2.022 . S
N282 C279 1.351 . S
N282 N283 1.365 . S
N283 C280 1.341 . S
N283 N282 1.365 . S
N283 H303 0.862 . S
C284 C279 1.501 . S
C284 H285 0.961 . S
C284 H286 0.961 . S
C284 H287 0.960 . S
H285 C284 0.961 . S
H286 C284 0.961 . S
H287 C284 0.960 . S
C288 N289 1.342 . S
C288 C292 1.401 . S
C288 C293 1.499 . S
N289 Co272 1.989 . S
N289 C288 1.342 . S
N289 N290 1.388 . S
N290 Co273 1.993 . S
N290 N289 1.388 . S
N290 C291 1.346 . S
C291 N290 1.346 . S
C291 C292 1.396 . S
C291 C301 1.510 . S
C292 C288 1.401 . S
C292 C291 1.396 . S
C293 C288 1.499 . S
C293 H294 0.959 . S
C293 H295 0.960 . S
C293 H296 0.961 . S
H294 C293 0.959 . S
H295 C293 0.960 . S
H296 C293 0.961 . S
O297 Co272 1.967 . S
O297 C305 1.258 . S
O298 Co273 1.941 . S
O298 C305 1.266 . S
H299 C301 0.959 . S
H300 C301 0.961 . S
C301 C291 1.510 . S
C301 H299 0.959 . S
C301 H300 0.961 . S
C301 H302 0.960 . S
H302 C301 0.960 . S
H303 N283 0.862 . S
O304 Co272 1.920 . S
O304 C277 1.289 . S
C305 O297 1.258 . S
C305 O298 1.266 . S
Co306 O309 1.970 . S
Co306 N323 1.989 . S
Co306 O331 1.967 . S
Co306 O338 1.920 . S
Co307 O310 1.966 . S
Co307 N316 2.022 . S
Co307 N324 1.993 . S
Co307 O332 1.941 . S
C308 O309 1.258 . S
C308 O310 1.263 . S
O309 Co306 1.970 . S
O309 C308 1.258 . S
O310 Co307 1.966 . S
O310 C308 1.263 . S
C311 O312 1.235 . S
C311 O338 1.289 . S
O312 C311 1.235 . S
C313 C315 1.400 . S
C313 N316 1.351 . S
C313 C318 1.501 . S
C314 C315 1.387 . S
C314 N317 1.341 . S
C315 C313 1.400 . S
C315 C314 1.387 . S
N316 Co307 2.022 . S
N316 C313 1.351 . S
N316 N317 1.365 . S
N317 C314 1.341 . S
N317 N316 1.365 . S
N317 H337 0.862 . S
C318 C313 1.501 . S
C318 H319 0.961 . S
C318 H320 0.961 . S
C318 H321 0.960 . S
H319 C318 0.961 . S
H320 C318 0.961 . S
H321 C318 0.960 . S
C322 N323 1.342 . S
C322 C326 1.401 . S
C322 C327 1.499 . S
N323 Co306 1.989 . S
N323 C322 1.342 . S
N323 N324 1.388 . S
N324 Co307 1.993 . S
N324 N323 1.388 . S
N324 C325 1.346 . S
C325 N324 1.346 . S
C325 C326 1.396 . S
C325 C335 1.510 . S
C326 C322 1.401 . S
C326 C325 1.396 . S
C327 C322 1.499 . S
C327 H328 0.959 . S
C327 H329 0.960 . S
C327 H330 0.961 . S
H328 C327 0.959 . S
H329 C327 0.960 . S
H330 C327 0.961 . S
O331 Co306 1.967 . S
O331 C339 1.258 . S
O332 Co307 1.941 . S
O332 C339 1.266 . S
H333 C335 0.959 . S
H334 C335 0.961 . S
C335 C325 1.510 . S
C335 H333 0.959 . S
C335 H334 0.961 . S
C335 H336 0.960 . S
H336 C335 0.960 . S
H337 N317 0.862 . S
O338 Co306 1.920 . S
O338 C311 1.289 . S
C339 O331 1.258 . S
C339 O332 1.266 . S
Co340 O343 1.970 . S
Co340 N357 1.989 . S
Co340 O365 1.967 . S
Co340 O372 1.920 . S
Co341 O344 1.966 . S
Co341 N350 2.022 . S
Co341 N358 1.993 . S
Co341 O366 1.941 . S
C342 O343 1.258 . S
C342 O344 1.263 . S
O343 Co340 1.970 . S
O343 C342 1.258 . S
O344 Co341 1.966 . S
O344 C342 1.263 . S
C345 O346 1.235 . S
C345 O372 1.289 . S
O346 C345 1.235 . S
C347 C349 1.400 . S
C347 N350 1.351 . S
C347 C352 1.501 . S
C348 C349 1.387 . S
C348 N351 1.341 . S
C349 C347 1.400 . S
C349 C348 1.387 . S
N350 Co341 2.022 . S
N350 C347 1.351 . S
N350 N351 1.365 . S
N351 C348 1.341 . S
N351 N350 1.365 . S
N351 H371 0.862 . S
C352 C347 1.501 . S
C352 H353 0.961 . S
C352 H354 0.961 . S
C352 H355 0.960 . S
H353 C352 0.961 . S
H354 C352 0.961 . S
H355 C352 0.960 . S
C356 N357 1.342 . S
C356 C360 1.401 . S
C356 C361 1.499 . S
N357 Co340 1.989 . S
N357 C356 1.342 . S
N357 N358 1.388 . S
N358 Co341 1.993 . S
N358 N357 1.388 . S
N358 C359 1.346 . S
C359 N358 1.346 . S
C359 C360 1.396 . S
C359 C369 1.510 . S
C360 C356 1.401 . S
C360 C359 1.396 . S
C361 C356 1.499 . S
C361 H362 0.959 . S
C361 H363 0.960 . S
C361 H364 0.961 . S
H362 C361 0.959 . S
H363 C361 0.960 . S
H364 C361 0.961 . S
O365 Co340 1.967 . S
O365 C373 1.258 . S
O366 Co341 1.941 . S
O366 C373 1.266 . S
H367 C369 0.959 . S
H368 C369 0.961 . S
C369 C359 1.510 . S
C369 H367 0.959 . S
C369 H368 0.961 . S
C369 H370 0.960 . S
H370 C369 0.960 . S
H371 N351 0.862 . S
O372 Co340 1.920 . S
O372 C345 1.289 . S
C373 O365 1.258 . S
C373 O366 1.266 . S
Co374 O377 1.970 . S
Co374 N391 1.989 . S
Co374 O399 1.967 . S
Co374 O406 1.920 . S
Co375 O378 1.966 . S
Co375 N384 2.022 . S
Co375 N392 1.993 . S
Co375 O400 1.941 . S
C376 O377 1.258 . S
C376 O378 1.263 . S
O377 Co374 1.970 . S
O377 C376 1.258 . S
O378 Co375 1.966 . S
O378 C376 1.263 . S
C379 O380 1.235 . S
C379 O406 1.289 . S
O380 C379 1.235 . S
C381 C383 1.400 . S
C381 N384 1.351 . S
C381 C386 1.501 . S
C382 C383 1.387 . S
C382 N385 1.341 . S
C383 C381 1.400 . S
C383 C382 1.387 . S
N384 Co375 2.022 . S
N384 C381 1.351 . S
N384 N385 1.365 . S
N385 C382 1.341 . S
N385 N384 1.365 . S
N385 H405 0.862 . S
C386 C381 1.501 . S
C386 H387 0.961 . S
C386 H388 0.961 . S
C386 H389 0.960 . S
H387 C386 0.961 . S
H388 C386 0.961 . S
H389 C386 0.960 . S
C390 N391 1.342 . S
C390 C394 1.401 . S
C390 C395 1.499 . S
N391 Co374 1.989 . S
N391 C390 1.342 . S
N391 N392 1.388 . S
N392 Co375 1.993 . S
N392 N391 1.388 . S
N392 C393 1.346 . S
C393 N392 1.346 . S
C393 C394 1.396 . S
C393 C403 1.510 . S
C394 C390 1.401 . S
C394 C393 1.396 . S
C395 C390 1.499 . S
C395 H396 0.959 . S
C395 H397 0.960 . S
C395 H398 0.961 . S
H396 C395 0.959 . S
H397 C395 0.960 . S
H398 C395 0.961 . S
O399 Co374 1.967 . S
O399 C407 1.258 . S
O400 Co375 1.941 . S
O400 C407 1.266 . S
H401 C403 0.959 . S
H402 C403 0.961 . S
C403 C393 1.510 . S
C403 H401 0.959 . S
C403 H402 0.961 . S
C403 H404 0.960 . S
H404 C403 0.960 . S
H405 N385 0.862 . S
O406 Co374 1.920 . S
O406 C379 1.289 . S
C407 O399 1.258 . S
C407 O400 1.266 . S
H408 C416 0.950 . S
H409 C421 0.950 . S
H410 C418 0.950 . S
H411 C420 0.950 . S
H412 C422 0.950 . S
H413 C424 0.950 . S
H414 C426 0.950 . S
H415 C427 0.950 . S
C416 H408 0.950 . S
C416 C417 1.386 . S
C416 C418 1.391 . S
C417 C416 1.386 . S
C417 C421 1.393 . S
C418 H410 0.950 . S
C418 C416 1.391 . S
C418 C419 1.400 . S
C419 C418 1.400 . S
C419 C420 1.398 . S
C419 C425 1.491 . S
C420 H411 0.950 . S
C420 C419 1.398 . S
C420 C421 1.391 . S
C421 H409 0.950 . S
C421 C417 1.393 . S
C421 C420 1.391 . S
C422 H412 0.950 . S
C422 C423 1.386 . S
C422 C424 1.391 . S
C423 C422 1.386 . S
C423 C427 1.393 . S
C424 H413 0.950 . S
C424 C422 1.391 . S
C424 C425 1.400 . S
C425 C419 1.491 . S
C425 C424 1.400 . S
C425 C426 1.398 . S
C426 H414 0.950 . S
C426 C425 1.398 . S
C426 C427 1.391 . S
C427 H415 0.950 . S
C427 C423 1.393 . S
C427 C426 1.391 . S
H428 C436 0.950 . S
H429 C441 0.950 . S
H430 C438 0.950 . S
H431 C440 0.950 . S
H432 C442 0.950 . S
H433 C444 0.950 . S
H434 C446 0.950 . S
H435 C447 0.950 . S
C436 H428 0.950 . S
C436 C437 1.386 . S
C436 C438 1.391 . S
C437 C436 1.386 . S
C437 C441 1.393 . S
C438 H430 0.950 . S
C438 C436 1.391 . S
C438 C439 1.400 . S
C439 C438 1.400 . S
C439 C440 1.398 . S
C439 C445 1.491 . S
C440 H431 0.950 . S
C440 C439 1.398 . S
C440 C441 1.391 . S
C441 H429 0.950 . S
C441 C437 1.393 . S
C441 C440 1.391 . S
C442 H432 0.950 . S
C442 C443 1.386 . S
C442 C444 1.391 . S
C443 C442 1.386 . S
C443 C447 1.393 . S
C444 H433 0.950 . S
C444 C442 1.391 . S
C444 C445 1.400 . S
C445 C439 1.491 . S
C445 C444 1.400 . S
C445 C446 1.398 . S
C446 H434 0.950 . S
C446 C445 1.398 . S
C446 C447 1.391 . S
C447 H435 0.950 . S
C447 C443 1.393 . S
C447 C446 1.391 . S
H448 C456 0.950 . S
H449 C461 0.950 . S
H450 C458 0.950 . S
H451 C460 0.950 . S
H452 C462 0.950 . S
H453 C464 0.950 . S
H454 C466 0.950 . S
H455 C467 0.950 . S
C456 H448 0.950 . S
C456 C457 1.386 . S
C456 C458 1.391 . S
C457 C456 1.386 . S
C457 C461 1.393 . S
C458 H450 0.950 . S
C458 C456 1.391 . S
C458 C459 1.400 . S
C459 C458 1.400 . S
C459 C460 1.398 . S
C459 C465 1.491 . S
C460 H451 0.950 . S
C460 C459 1.398 . S
C460 C461 1.391 . S
C461 H449 0.950 . S
C461 C457 1.393 . S
C461 C460 1.391 . S
C462 H452 0.950 . S
C462 C463 1.386 . S
C462 C464 1.391 . S
C463 C462 1.386 . S
C463 C467 1.393 . S
C464 H453 0.950 . S
C464 C462 1.391 . S
C464 C465 1.400 . S
C465 C459 1.491 . S
C465 C464 1.400 . S
C465 C466 1.398 . S
C466 H454 0.950 . S
C466 C465 1.398 . S
C466 C467 1.391 . S
C467 H455 0.950 . S
C467 C463 1.393 . S
C467 C466 1.391 . S
H468 C476 0.950 . S
H469 C481 0.950 . S
H470 C478 0.950 . S
H471 C480 0.950 . S
H472 C482 0.950 . S
H473 C484 0.950 . S
H474 C486 0.950 . S
H475 C487 0.950 . S
C476 H468 0.950 . S
C476 C477 1.386 . S
C476 C478 1.391 . S
C477 C476 1.386 . S
C477 C481 1.393 . S
C478 H470 0.950 . S
C478 C476 1.391 . S
C478 C479 1.400 . S
C479 C478 1.400 . S
C479 C480 1.398 . S
C479 C485 1.491 . S
C480 H471 0.950 . S
C480 C479 1.398 . S
C480 C481 1.391 . S
C481 H469 0.950 . S
C481 C477 1.393 . S
C481 C480 1.391 . S
C482 H472 0.950 . S
C482 C483 1.386 . S
C482 C484 1.391 . S
C483 C482 1.386 . S
C483 C487 1.393 . S
C484 H473 0.950 . S
C484 C482 1.391 . S
C484 C485 1.400 . S
C485 C479 1.491 . S
C485 C484 1.400 . S
C485 C486 1.398 . S
C486 H474 0.950 . S
C486 C485 1.398 . S
C486 C487 1.391 . S
C487 H475 0.950 . S
C487 C483 1.393 . S
C487 C486 1.391 . S
H488 C496 0.950 . S
H489 C501 0.950 . S
H490 C498 0.950 . S
H491 C500 0.950 . S
H492 C502 0.950 . S
H493 C504 0.950 . S
H494 C506 0.950 . S
H495 C507 0.950 . S
C496 H488 0.950 . S
C496 C497 1.386 . S
C496 C498 1.391 . S
C497 C496 1.386 . S
C497 C501 1.393 . S
C498 H490 0.950 . S
C498 C496 1.391 . S
C498 C499 1.400 . S
C499 C498 1.400 . S
C499 C500 1.398 . S
C499 C505 1.491 . S
C500 H491 0.950 . S
C500 C499 1.398 . S
C500 C501 1.391 . S
C501 H489 0.950 . S
C501 C497 1.393 . S
C501 C500 1.391 . S
C502 H492 0.950 . S
C502 C503 1.386 . S
C502 C504 1.391 . S
C503 C502 1.386 . S
C503 C507 1.393 . S
C504 H493 0.950 . S
C504 C502 1.391 . S
C504 C505 1.400 . S
C505 C499 1.491 . S
C505 C504 1.400 . S
C505 C506 1.398 . S
C506 H494 0.950 . S
C506 C505 1.398 . S
C506 C507 1.391 . S
C507 H495 0.950 . S
C507 C503 1.393 . S
C507 C506 1.391 . S
H508 C516 0.950 . S
H509 C521 0.950 . S
H510 C518 0.950 . S
H511 C520 0.950 . S
H512 C522 0.950 . S
H513 C524 0.950 . S
H514 C526 0.950 . S
H515 C527 0.950 . S
C516 H508 0.950 . S
C516 C517 1.386 . S
C516 C518 1.391 . S
C517 C516 1.386 . S
C517 C521 1.393 . S
C518 H510 0.950 . S
C518 C516 1.391 . S
C518 C519 1.400 . S
C519 C518 1.400 . S
C519 C520 1.398 . S
C519 C525 1.491 . S
C520 H511 0.950 . S
C520 C519 1.398 . S
C520 C521 1.391 . S
C521 H509 0.950 . S
C521 C517 1.393 . S
C521 C520 1.391 . S
C522 H512 0.950 . S
C522 C523 1.386 . S
C522 C524 1.391 . S
C523 C522 1.386 . S
C523 C527 1.393 . S
C524 H513 0.950 . S
C524 C522 1.391 . S
C524 C525 1.400 . S
C525 C519 1.491 . S
C525 C524 1.400 . S
C525 C526 1.398 . S
C526 H514 0.950 . S
C526 C525 1.398 . S
C526 C527 1.391 . S
C527 H515 0.950 . S
C527 C523 1.393 . S
C527 C526 1.391 . S
H528 C536 0.950 . S
H529 C541 0.950 . S
H530 C538 0.950 . S
H531 C540 0.950 . S
H532 C542 0.950 . S
H533 C544 0.950 . S
H534 C546 0.950 . S
H535 C547 0.950 . S
C536 H528 0.950 . S
C536 C537 1.386 . S
C536 C538 1.391 . S
C537 C536 1.386 . S
C537 C541 1.393 . S
C538 H530 0.950 . S
C538 C536 1.391 . S
C538 C539 1.400 . S
C539 C538 1.400 . S
C539 C540 1.398 . S
C539 C545 1.491 . S
C540 H531 0.950 . S
C540 C539 1.398 . S
C540 C541 1.391 . S
C541 H529 0.950 . S
C541 C537 1.393 . S
C541 C540 1.391 . S
C542 H532 0.950 . S
C542 C543 1.386 . S
C542 C544 1.391 . S
C543 C542 1.386 . S
C543 C547 1.393 . S
C544 H533 0.950 . S
C544 C542 1.391 . S
C544 C545 1.400 . S
C545 C539 1.491 . S
C545 C544 1.400 . S
C545 C546 1.398 . S
C546 H534 0.950 . S
C546 C545 1.398 . S
C546 C547 1.391 . S
C547 H535 0.950 . S
C547 C543 1.393 . S
C547 C546 1.391 . S
H548 C556 0.950 . S
H549 C561 0.950 . S
H550 C558 0.950 . S
H551 C560 0.950 . S
H552 C562 0.950 . S
H553 C564 0.950 . S
H554 C566 0.950 . S
H555 C567 0.950 . S
C556 H548 0.950 . S
C556 C557 1.386 . S
C556 C558 1.391 . S
C557 C556 1.386 . S
C557 C561 1.393 . S
C558 H550 0.950 . S
C558 C556 1.391 . S
C558 C559 1.400 . S
C559 C558 1.400 . S
C559 C560 1.398 . S
C559 C565 1.491 . S
C560 H551 0.950 . S
C560 C559 1.398 . S
C560 C561 1.391 . S
C561 H549 0.950 . S
C561 C557 1.393 . S
C561 C560 1.391 . S
C562 H552 0.950 . S
C562 C563 1.386 . S
C562 C564 1.391 . S
C563 C562 1.386 . S
C563 C567 1.393 . S
C564 H553 0.950 . S
C564 C562 1.391 . S
C564 C565 1.400 . S
C565 C559 1.491 . S
C565 C564 1.400 . S
C565 C566 1.398 . S
C566 H554 0.950 . S
C566 C565 1.398 . S
C566 C567 1.391 . S
C567 H555 0.950 . S
C567 C563 1.393 . S
C567 C566 1.391 . S
H568 C576 0.950 . S
H569 C581 0.950 . S
H570 C578 0.950 . S
H571 C580 0.950 . S
H572 C582 0.950 . S
H573 C584 0.950 . S
H574 C586 0.950 . S
H575 C587 0.950 . S
C576 H568 0.950 . S
C576 C577 1.386 . S
C576 C578 1.391 . S
C577 C576 1.386 . S
C577 C581 1.393 . S
C578 H570 0.950 . S
C578 C576 1.391 . S
C578 C579 1.400 . S
C579 C578 1.400 . S
C579 C580 1.398 . S
C579 C585 1.491 . S
C580 H571 0.950 . S
C580 C579 1.398 . S
C580 C581 1.391 . S
C581 H569 0.950 . S
C581 C577 1.393 . S
C581 C580 1.391 . S
C582 H572 0.950 . S
C582 C583 1.386 . S
C582 C584 1.391 . S
C583 C582 1.386 . S
C583 C587 1.393 . S
C584 H573 0.950 . S
C584 C582 1.391 . S
C584 C585 1.400 . S
C585 C579 1.491 . S
C585 C584 1.400 . S
C585 C586 1.398 . S
C586 H574 0.950 . S
C586 C585 1.398 . S
C586 C587 1.391 . S
C587 H575 0.950 . S
C587 C583 1.393 . S
C587 C586 1.391 . S
H588 C596 0.950 . S
H589 C601 0.950 . S
H590 C598 0.950 . S
H591 C600 0.950 . S
H592 C602 0.950 . S
H593 C604 0.950 . S
H594 C606 0.950 . S
H595 C607 0.950 . S
C596 H588 0.950 . S
C596 C597 1.386 . S
C596 C598 1.391 . S
C597 C596 1.386 . S
C597 C601 1.393 . S
C598 H590 0.950 . S
C598 C596 1.391 . S
C598 C599 1.400 . S
C599 C598 1.400 . S
C599 C600 1.398 . S
C599 C605 1.491 . S
C600 H591 0.950 . S
C600 C599 1.398 . S
C600 C601 1.391 . S
C601 H589 0.950 . S
C601 C597 1.393 . S
C601 C600 1.391 . S
C602 H592 0.950 . S
C602 C603 1.386 . S
C602 C604 1.391 . S
C603 C602 1.386 . S
C603 C607 1.393 . S
C604 H593 0.950 . S
C604 C602 1.391 . S
C604 C605 1.400 . S
C605 C599 1.491 . S
C605 C604 1.400 . S
C605 C606 1.398 . S
C606 H594 0.950 . S
C606 C605 1.398 . S
C606 C607 1.391 . S
C607 H595 0.950 . S
C607 C603 1.393 . S
C607 C606 1.391 . S
H608 C616 0.950 . S
H609 C621 0.950 . S
H610 C618 0.950 . S
H611 C620 0.950 . S
H612 C622 0.950 . S
H613 C624 0.950 . S
H614 C626 0.950 . S
H615 C627 0.950 . S
C616 H608 0.950 . S
C616 C617 1.386 . S
C616 C618 1.391 . S
C617 C616 1.386 . S
C617 C621 1.393 . S
C618 H610 0.950 . S
C618 C616 1.391 . S
C618 C619 1.400 . S
C619 C618 1.400 . S
C619 C620 1.398 . S
C619 C625 1.491 . S
C620 H611 0.950 . S
C620 C619 1.398 . S
C620 C621 1.391 . S
C621 H609 0.950 . S
C621 C617 1.393 . S
C621 C620 1.391 . S
C622 H612 0.950 . S
C622 C623 1.386 . S
C622 C624 1.391 . S
C623 C622 1.386 . S
C623 C627 1.393 . S
C624 H613 0.950 . S
C624 C622 1.391 . S
C624 C625 1.400 . S
C625 C619 1.491 . S
C625 C624 1.400 . S
C625 C626 1.398 . S
C626 H614 0.950 . S
C626 C625 1.398 . S
C626 C627 1.391 . S
C627 H615 0.950 . S
C627 C623 1.393 . S
C627 C626 1.391 . S
H628 C636 0.950 . S
H629 C641 0.950 . S
H630 C638 0.950 . S
H631 C640 0.950 . S
H632 C642 0.950 . S
H633 C644 0.950 . S
H634 C646 0.950 . S
H635 C647 0.950 . S
C636 H628 0.950 . S
C636 C637 1.386 . S
C636 C638 1.391 . S
C637 C636 1.386 . S
C637 C641 1.393 . S
C638 H630 0.950 . S
C638 C636 1.391 . S
C638 C639 1.400 . S
C639 C638 1.400 . S
C639 C640 1.398 . S
C639 C645 1.491 . S
C640 H631 0.950 . S
C640 C639 1.398 . S
C640 C641 1.391 . S
C641 H629 0.950 . S
C641 C637 1.393 . S
C641 C640 1.391 . S
C642 H632 0.950 . S
C642 C643 1.386 . S
C642 C644 1.391 . S
C643 C642 1.386 . S
C643 C647 1.393 . S
C644 H633 0.950 . S
C644 C642 1.391 . S
C644 C645 1.400 . S
C645 C639 1.491 . S
C645 C644 1.400 . S
C645 C646 1.398 . S
C646 H634 0.950 . S
C646 C645 1.398 . S
C646 C647 1.391 . S
C647 H635 0.950 . S
C647 C643 1.393 . S
C647 C646 1.391 . S
H648 C656 0.950 . S
H649 C661 0.950 . S
H650 C658 0.950 . S
H651 C660 0.950 . S
H652 C662 0.950 . S
H653 C664 0.950 . S
H654 C666 0.950 . S
H655 C667 0.950 . S
C656 H648 0.950 . S
C656 C657 1.386 . S
C656 C658 1.391 . S
C657 C656 1.386 . S
C657 C661 1.393 . S
C658 H650 0.950 . S
C658 C656 1.391 . S
C658 C659 1.400 . S
C659 C658 1.400 . S
C659 C660 1.398 . S
C659 C665 1.491 . S
C660 H651 0.950 . S
C660 C659 1.398 . S
C660 C661 1.391 . S
C661 H649 0.950 . S
C661 C657 1.393 . S
C661 C660 1.391 . S
C662 H652 0.950 . S
C662 C663 1.386 . S
C662 C664 1.391 . S
C663 C662 1.386 . S
C663 C667 1.393 . S
C664 H653 0.950 . S
C664 C662 1.391 . S
C664 C665 1.400 . S
C665 C659 1.491 . S
C665 C664 1.400 . S
C665 C666 1.398 . S
C666 H654 0.950 . S
C666 C665 1.398 . S
C666 C667 1.391 . S
C667 H655 0.950 . S
C667 C663 1.393 . S
C667 C666 1.391 . S
H668 C676 0.950 . S
H669 C681 0.950 . S
H670 C678 0.950 . S
H671 C680 0.950 . S
H672 C682 0.950 . S
H673 C684 0.950 . S
H674 C686 0.950 . S
H675 C687 0.950 . S
C676 H668 0.950 . S
C676 C677 1.386 . S
C676 C678 1.391 . S
C677 C676 1.386 . S
C677 C681 1.393 . S
C678 H670 0.950 . S
C678 C676 1.391 . S
C678 C679 1.400 . S
C679 C678 1.400 . S
C679 C680 1.398 . S
C679 C685 1.491 . S
C680 H671 0.950 . S
C680 C679 1.398 . S
C680 C681 1.391 . S
C681 H669 0.950 . S
C681 C677 1.393 . S
C681 C680 1.391 . S
C682 H672 0.950 . S
C682 C683 1.386 . S
C682 C684 1.391 . S
C683 C682 1.386 . S
C683 C687 1.393 . S
C684 H673 0.950 . S
C684 C682 1.391 . S
C684 C685 1.400 . S
C685 C679 1.491 . S
C685 C684 1.400 . S
C685 C686 1.398 . S
C686 H674 0.950 . S
C686 C685 1.398 . S
C686 C687 1.391 . S
C687 H675 0.950 . S
C687 C683 1.393 . S
C687 C686 1.391 . S
H688 C696 0.950 . S
H689 C701 0.950 . S
H690 C698 0.950 . S
H691 C700 0.950 . S
H692 C702 0.950 . S
H693 C704 0.950 . S
H694 C706 0.950 . S
H695 C707 0.950 . S
C696 H688 0.950 . S
C696 C697 1.386 . S
C696 C698 1.391 . S
C697 C696 1.386 . S
C697 C701 1.393 . S
C698 H690 0.950 . S
C698 C696 1.391 . S
C698 C699 1.400 . S
C699 C698 1.400 . S
C699 C700 1.398 . S
C699 C705 1.491 . S
C700 H691 0.950 . S
C700 C699 1.398 . S
C700 C701 1.391 . S
C701 H689 0.950 . S
C701 C697 1.393 . S
C701 C700 1.391 . S
C702 H692 0.950 . S
C702 C703 1.386 . S
C702 C704 1.391 . S
C703 C702 1.386 . S
C703 C707 1.393 . S
C704 H693 0.950 . S
C704 C702 1.391 . S
C704 C705 1.400 . S
C705 C699 1.491 . S
C705 C704 1.400 . S
C705 C706 1.398 . S
C706 H694 0.950 . S
C706 C705 1.398 . S
C706 C707 1.391 . S
C707 H695 0.950 . S
C707 C703 1.393 . S
C707 C706 1.391 . S
H708 C716 0.950 . S
H709 C721 0.950 . S
H710 C718 0.950 . S
H711 C720 0.950 . S
H712 C722 0.950 . S
H713 C724 0.950 . S
H714 C726 0.950 . S
H715 C727 0.950 . S
C716 H708 0.950 . S
C716 C717 1.386 . S
C716 C718 1.391 . S
C717 C716 1.386 . S
C717 C721 1.393 . S
C718 H710 0.950 . S
C718 C716 1.391 . S
C718 C719 1.400 . S
C719 C718 1.400 . S
C719 C720 1.398 . S
C719 C725 1.491 . S
C720 H711 0.950 . S
C720 C719 1.398 . S
C720 C721 1.391 . S
C721 H709 0.950 . S
C721 C717 1.393 . S
C721 C720 1.391 . S
C722 H712 0.950 . S
C722 C723 1.386 . S
C722 C724 1.391 . S
C723 C722 1.386 . S
C723 C727 1.393 . S
C724 H713 0.950 . S
C724 C722 1.391 . S
C724 C725 1.400 . S
C725 C719 1.491 . S
C725 C724 1.400 . S
C725 C726 1.398 . S
C726 H714 0.950 . S
C726 C725 1.398 . S
C726 C727 1.391 . S
C727 H715 0.950 . S
C727 C723 1.393 . S
C727 C726 1.391 . S
H728 C736 0.950 . S
H729 C741 0.950 . S
H730 C738 0.950 . S
H731 C740 0.950 . S
H732 C742 0.950 . S
H733 C744 0.950 . S
H734 C746 0.950 . S
H735 C747 0.950 . S
C736 H728 0.950 . S
C736 C737 1.386 . S
C736 C738 1.391 . S
C737 C736 1.386 . S
C737 C741 1.393 . S
C738 H730 0.950 . S
C738 C736 1.391 . S
C738 C739 1.400 . S
C739 C738 1.400 . S
C739 C740 1.398 . S
C739 C745 1.491 . S
C740 H731 0.950 . S
C740 C739 1.398 . S
C740 C741 1.391 . S
C741 H729 0.950 . S
C741 C737 1.393 . S
C741 C740 1.391 . S
C742 H732 0.950 . S
C742 C743 1.386 . S
C742 C744 1.391 . S
C743 C742 1.386 . S
C743 C747 1.393 . S
C744 H733 0.950 . S
C744 C742 1.391 . S
C744 C745 1.400 . S
C745 C739 1.491 . S
C745 C744 1.400 . S
C745 C746 1.398 . S
C746 H734 0.950 . S
C746 C745 1.398 . S
C746 C747 1.391 . S
C747 H735 0.950 . S
C747 C743 1.393 . S
C747 C746 1.391 . S
H748 C756 0.950 . S
H749 C761 0.950 . S
H750 C758 0.950 . S
H751 C760 0.950 . S
H752 C762 0.950 . S
H753 C764 0.950 . S
H754 C766 0.950 . S
H755 C767 0.950 . S
C756 H748 0.950 . S
C756 C757 1.386 . S
C756 C758 1.391 . S
C757 C756 1.386 . S
C757 C761 1.393 . S
C758 H750 0.950 . S
C758 C756 1.391 . S
C758 C759 1.400 . S
C759 C758 1.400 . S
C759 C760 1.398 . S
C759 C765 1.491 . S
C760 H751 0.950 . S
C760 C759 1.398 . S
C760 C761 1.391 . S
C761 H749 0.950 . S
C761 C757 1.393 . S
C761 C760 1.391 . S
C762 H752 0.950 . S
C762 C763 1.386 . S
C762 C764 1.391 . S
C763 C762 1.386 . S
C763 C767 1.393 . S
C764 H753 0.950 . S
C764 C762 1.391 . S
C764 C765 1.400 . S
C765 C759 1.491 . S
C765 C764 1.400 . S
C765 C766 1.398 . S
C766 H754 0.950 . S
C766 C765 1.398 . S
C766 C767 1.391 . S
C767 H755 0.950 . S
C767 C763 1.393 . S
C767 C766 1.391 . S
H768 C776 0.950 . S
H769 C781 0.950 . S
H770 C778 0.950 . S
H771 C780 0.950 . S
H772 C782 0.950 . S
H773 C784 0.950 . S
H774 C786 0.950 . S
H775 C787 0.950 . S
C776 H768 0.950 . S
C776 C777 1.386 . S
C776 C778 1.391 . S
C777 C776 1.386 . S
C777 C781 1.393 . S
C778 H770 0.950 . S
C778 C776 1.391 . S
C778 C779 1.400 . S
C779 C778 1.400 . S
C779 C780 1.398 . S
C779 C785 1.491 . S
C780 H771 0.950 . S
C780 C779 1.398 . S
C780 C781 1.391 . S
C781 H769 0.950 . S
C781 C777 1.393 . S
C781 C780 1.391 . S
C782 H772 0.950 . S
C782 C783 1.386 . S
C782 C784 1.391 . S
C783 C782 1.386 . S
C783 C787 1.393 . S
C784 H773 0.950 . S
C784 C782 1.391 . S
C784 C785 1.400 . S
C785 C779 1.491 . S
C785 C784 1.400 . S
C785 C786 1.398 . S
C786 H774 0.950 . S
C786 C785 1.398 . S
C786 C787 1.391 . S
C787 H775 0.950 . S
C787 C783 1.393 . S
C787 C786 1.391 . S
H788 C796 0.950 . S
H789 C801 0.950 . S
H790 C798 0.950 . S
H791 C800 0.950 . S
H792 C802 0.950 . S
H793 C804 0.950 . S
H794 C806 0.950 . S
H795 C807 0.950 . S
C796 H788 0.950 . S
C796 C797 1.386 . S
C796 C798 1.391 . S
C797 C796 1.386 . S
C797 C801 1.393 . S
C798 H790 0.950 . S
C798 C796 1.391 . S
C798 C799 1.400 . S
C799 C798 1.400 . S
C799 C800 1.398 . S
C799 C805 1.491 . S
C800 H791 0.950 . S
C800 C799 1.398 . S
C800 C801 1.391 . S
C801 H789 0.950 . S
C801 C797 1.393 . S
C801 C800 1.391 . S
C802 H792 0.950 . S
C802 C803 1.386 . S
C802 C804 1.391 . S
C803 C802 1.386 . S
C803 C807 1.393 . S
C804 H793 0.950 . S
C804 C802 1.391 . S
C804 C805 1.400 . S
C805 C799 1.491 . S
C805 C804 1.400 . S
C805 C806 1.398 . S
C806 H794 0.950 . S
C806 C805 1.398 . S
C806 C807 1.391 . S
C807 H795 0.950 . S
C807 C803 1.393 . S
C807 C806 1.391 . S
H808 C816 0.950 . S
H809 C821 0.950 . S
H810 C818 0.950 . S
H811 C820 0.950 . S
H812 C822 0.950 . S
H813 C824 0.950 . S
H814 C826 0.950 . S
H815 C827 0.950 . S
C816 H808 0.950 . S
C816 C817 1.386 . S
C816 C818 1.391 . S
C817 C816 1.386 . S
C817 C821 1.393 . S
C818 H810 0.950 . S
C818 C816 1.391 . S
C818 C819 1.400 . S
C819 C818 1.400 . S
C819 C820 1.398 . S
C819 C825 1.491 . S
C820 H811 0.950 . S
C820 C819 1.398 . S
C820 C821 1.391 . S
C821 H809 0.950 . S
C821 C817 1.393 . S
C821 C820 1.391 . S
C822 H812 0.950 . S
C822 C823 1.386 . S
C822 C824 1.391 . S
C823 C822 1.386 . S
C823 C827 1.393 . S
C824 H813 0.950 . S
C824 C822 1.391 . S
C824 C825 1.400 . S
C825 C819 1.491 . S
C825 C824 1.400 . S
C825 C826 1.398 . S
C826 H814 0.950 . S
C826 C825 1.398 . S
C826 C827 1.391 . S
C827 H815 0.950 . S
C827 C823 1.393 . S
C827 C826 1.391 . S
H828 C836 0.950 . S
H829 C841 0.950 . S
H830 C838 0.950 . S
H831 C840 0.950 . S
H832 C842 0.950 . S
H833 C844 0.950 . S
H834 C846 0.950 . S
H835 C847 0.950 . S
C836 H828 0.950 . S
C836 C837 1.386 . S
C836 C838 1.391 . S
C837 C836 1.386 . S
C837 C841 1.393 . S
C838 H830 0.950 . S
C838 C836 1.391 . S
C838 C839 1.400 . S
C839 C838 1.400 . S
C839 C840 1.398 . S
C839 C845 1.491 . S
C840 H831 0.950 . S
C840 C839 1.398 . S
C840 C841 1.391 . S
C841 H829 0.950 . S
C841 C837 1.393 . S
C841 C840 1.391 . S
C842 H832 0.950 . S
C842 C843 1.386 . S
C842 C844 1.391 . S
C843 C842 1.386 . S
C843 C847 1.393 . S
C844 H833 0.950 . S
C844 C842 1.391 . S
C844 C845 1.400 . S
C845 C839 1.491 . S
C845 C844 1.400 . S
C845 C846 1.398 . S
C846 H834 0.950 . S
C846 C845 1.398 . S
C846 C847 1.391 . S
C847 H835 0.950 . S
C847 C843 1.393 . S
C847 C846 1.391 . S
H848 C856 0.950 . S
H849 C861 0.950 . S
H850 C858 0.950 . S
H851 C860 0.950 . S
H852 C862 0.950 . S
H853 C864 0.950 . S
H854 C866 0.950 . S
H855 C867 0.950 . S
C856 H848 0.950 . S
C856 C857 1.386 . S
C856 C858 1.391 . S
C857 C856 1.386 . S
C857 C861 1.393 . S
C858 H850 0.950 . S
C858 C856 1.391 . S
C858 C859 1.400 . S
C859 C858 1.400 . S
C859 C860 1.398 . S
C859 C865 1.491 . S
C860 H851 0.950 . S
C860 C859 1.398 . S
C860 C861 1.391 . S
C861 H849 0.950 . S
C861 C857 1.393 . S
C861 C860 1.391 . S
C862 H852 0.950 . S
C862 C863 1.386 . S
C862 C864 1.391 . S
C863 C862 1.386 . S
C863 C867 1.393 . S
C864 H853 0.950 . S
C864 C862 1.391 . S
C864 C865 1.400 . S
C865 C859 1.491 . S
C865 C864 1.400 . S
C865 C866 1.398 . S
C866 H854 0.950 . S
C866 C865 1.398 . S
C866 C867 1.391 . S
C867 H855 0.950 . S
C867 C863 1.393 . S
C867 C866 1.391 . S
H868 C876 0.950 . S
H869 C881 0.950 . S
H870 C878 0.950 . S
H871 C880 0.950 . S
H872 C882 0.950 . S
H873 C884 0.950 . S
H874 C886 0.950 . S
H875 C887 0.950 . S
C876 H868 0.950 . S
C876 C877 1.386 . S
C876 C878 1.391 . S
C877 C876 1.386 . S
C877 C881 1.393 . S
C878 H870 0.950 . S
C878 C876 1.391 . S
C878 C879 1.400 . S
C879 C878 1.400 . S
C879 C880 1.398 . S
C879 C885 1.491 . S
C880 H871 0.950 . S
C880 C879 1.398 . S
C880 C881 1.391 . S
C881 H869 0.950 . S
C881 C877 1.393 . S
C881 C880 1.391 . S
C882 H872 0.950 . S
C882 C883 1.386 . S
C882 C884 1.391 . S
C883 C882 1.386 . S
C883 C887 1.393 . S
C884 H873 0.950 . S
C884 C882 1.391 . S
C884 C885 1.400 . S
C885 C879 1.491 . S
C885 C884 1.400 . S
C885 C886 1.398 . S
C886 H874 0.950 . S
C886 C885 1.398 . S
C886 C887 1.391 . S
C887 H875 0.950 . S
C887 C883 1.393 . S
C887 C886 1.391 . S
H888 C896 0.950 . S
H889 C901 0.950 . S
H890 C898 0.950 . S
H891 C900 0.950 . S
H892 C902 0.950 . S
H893 C904 0.950 . S
H894 C906 0.950 . S
H895 C907 0.950 . S
C896 H888 0.950 . S
C896 C897 1.386 . S
C896 C898 1.391 . S
C897 C896 1.386 . S
C897 C901 1.393 . S
C898 H890 0.950 . S
C898 C896 1.391 . S
C898 C899 1.400 . S
C899 C898 1.400 . S
C899 C900 1.398 . S
C899 C905 1.491 1_455 S
C900 H891 0.950 . S
C900 C899 1.398 . S
C900 C901 1.391 . S
C901 H889 0.950 . S
C901 C897 1.393 . S
C901 C900 1.391 . S
C902 H892 0.950 . S
C902 C903 1.386 . S
C902 C904 1.391 . S
C903 C902 1.386 . S
C903 C907 1.393 . S
C904 H893 0.950 . S
C904 C902 1.391 . S
C904 C905 1.400 . S
C905 C899 1.491 1_655 S
C905 C904 1.400 . S
C905 C906 1.398 . S
C906 H894 0.950 . S
C906 C905 1.398 . S
C906 C907 1.391 . S
C907 H895 0.950 . S
C907 C903 1.393 . S
C907 C906 1.391 . S
H908 C916 0.950 . S
H909 C921 0.950 . S
H910 C918 0.950 . S
H911 C920 0.950 . S
H912 C922 0.950 . S
H913 C924 0.950 . S
H914 C926 0.950 . S
H915 C927 0.950 . S
C916 H908 0.950 . S
C916 C917 1.386 . S
C916 C918 1.391 . S
C917 C916 1.386 . S
C917 C921 1.393 . S
C918 H910 0.950 . S
C918 C916 1.391 . S
C918 C919 1.400 . S
C919 C918 1.400 . S
C919 C920 1.398 . S
C919 C925 1.491 1_565 S
C920 H911 0.950 . S
C920 C919 1.398 . S
C920 C921 1.391 . S
C921 H909 0.950 . S
C921 C917 1.393 . S
C921 C920 1.391 . S
C922 H912 0.950 . S
C922 C923 1.386 . S
C922 C924 1.391 . S
C923 C922 1.386 . S
C923 C927 1.393 . S
C924 H913 0.950 . S
C924 C922 1.391 . S
C924 C925 1.400 . S
C925 C919 1.491 1_545 S
C925 C924 1.400 . S
C925 C926 1.398 . S
C926 H914 0.950 . S
C926 C925 1.398 . S
C926 C927 1.391 . S
C927 H915 0.950 . S
C927 C923 1.393 . S
C927 C926 1.391 . S
H928 C936 0.950 . S
H929 C941 0.950 . S
H930 C938 0.950 . S
H931 C940 0.950 . S
H932 C942 0.950 . S
H933 C944 0.950 . S
H934 C946 0.950 . S
H935 C947 0.950 . S
C936 H928 0.950 . S
C936 C937 1.386 . S
C936 C938 1.391 . S
C937 C936 1.386 . S
C937 C941 1.393 . S
C938 H930 0.950 . S
C938 C936 1.391 . S
C938 C939 1.400 . S
C939 C938 1.400 . S
C939 C940 1.398 . S
C939 C945 1.491 . S
C940 H931 0.950 . S
C940 C939 1.398 . S
C940 C941 1.391 . S
C941 H929 0.950 . S
C941 C937 1.393 . S
C941 C940 1.391 . S
C942 H932 0.950 . S
C942 C943 1.386 . S
C942 C944 1.391 . S
C943 C942 1.386 . S
C943 C947 1.393 . S
C944 H933 0.950 . S
C944 C942 1.391 . S
C944 C945 1.400 . S
C945 C939 1.491 . S
C945 C944 1.400 . S
C945 C946 1.398 . S
C946 H934 0.950 . S
C946 C945 1.398 . S
C946 C947 1.391 . S
C947 H935 0.950 . S
C947 C943 1.393 . S
C947 C946 1.391 . S
H948 C956 0.950 . S
H949 C961 0.950 . S
H950 C958 0.950 . S
H951 C960 0.950 . S
H952 C962 0.950 . S
H953 C964 0.950 . S
H954 C966 0.950 . S
H955 C967 0.950 . S
C956 H948 0.950 . S
C956 C957 1.386 . S
C956 C958 1.391 . S
C957 C956 1.386 . S
C957 C961 1.393 . S
C958 H950 0.950 . S
C958 C956 1.391 . S
C958 C959 1.400 . S
C959 C958 1.400 . S
C959 C960 1.398 . S
C959 C965 1.491 1_455 S
C960 H951 0.950 . S
C960 C959 1.398 . S
C960 C961 1.391 . S
C961 H949 0.950 . S
C961 C957 1.393 . S
C961 C960 1.391 . S
C962 H952 0.950 . S
C962 C963 1.386 . S
C962 C964 1.391 . S
C963 C962 1.386 . S
C963 C967 1.393 . S
C964 H953 0.950 . S
C964 C962 1.391 . S
C964 C965 1.400 . S
C965 C959 1.491 1_655 S
C965 C964 1.400 . S
C965 C966 1.398 . S
C966 H954 0.950 . S
C966 C965 1.398 . S
C966 C967 1.391 . S
C967 H955 0.950 . S
C967 C963 1.393 . S
C967 C966 1.391 . S
H968 C976 0.950 . S
H969 C981 0.950 . S
H970 C978 0.950 . S
H971 C980 0.950 . S
H972 C982 0.950 . S
H973 C984 0.950 . S
H974 C986 0.950 . S
H975 C987 0.950 . S
C976 H968 0.950 . S
C976 C977 1.386 . S
C976 C978 1.391 . S
C977 C976 1.386 . S
C977 C981 1.393 . S
C978 H970 0.950 . S
C978 C976 1.391 . S
C978 C979 1.400 . S
C979 C978 1.400 . S
C979 C980 1.398 . S
C979 C985 1.491 1_565 S
C980 H971 0.950 . S
C980 C979 1.398 . S
C980 C981 1.391 . S
C981 H969 0.950 . S
C981 C977 1.393 . S
C981 C980 1.391 . S
C982 H972 0.950 . S
C982 C983 1.386 . S
C982 C984 1.391 . S
C983 C982 1.386 . S
C983 C987 1.393 . S
C984 H973 0.950 . S
C984 C982 1.391 . S
C984 C985 1.400 . S
C985 C979 1.491 1_545 S
C985 C984 1.400 . S
C985 C986 1.398 . S
C986 H974 0.950 . S
C986 C985 1.398 . S
C986 C987 1.391 . S
C987 H975 0.950 . S
C987 C983 1.393 . S
C987 C986 1.391 . S
H988 C996 0.950 . S
H989 C1001 0.950 . S
H990 C998 0.950 . S
H991 C1000 0.950 . S
H992 C1002 0.950 . S
H993 C1004 0.950 . S
H994 C1006 0.950 . S
H995 C1007 0.950 . S
C996 H988 0.950 . S
C996 C997 1.386 . S
C996 C998 1.391 . S
C997 C996 1.386 . S
C997 C1001 1.393 . S
C998 H990 0.950 . S
C998 C996 1.391 . S
C998 C999 1.400 . S
C999 C998 1.400 . S
C999 C1000 1.398 . S
C999 C1005 1.491 . S
C1000 H991 0.950 . S
C1000 C999 1.398 . S
C1000 C1001 1.391 . S
C1001 H989 0.950 . S
C1001 C997 1.393 . S
C1001 C1000 1.391 . S
C1002 H992 0.950 . S
C1002 C1003 1.386 . S
C1002 C1004 1.391 . S
C1003 C1002 1.386 . S
C1003 C1007 1.393 . S
C1004 H993 0.950 . S
C1004 C1002 1.391 . S
C1004 C1005 1.400 . S
C1005 C999 1.491 . S
C1005 C1004 1.400 . S
C1005 C1006 1.398 . S
C1006 H994 0.950 . S
C1006 C1005 1.398 . S
C1006 C1007 1.391 . S
C1007 H995 0.950 . S
C1007 C1003 1.393 . S
C1007 C1006 1.391 . S
C417 C305 1.491 . S
C423 C33 1.491 . S
C437 C67 1.497 . S
C443 C339 1.496 . S
C457 C373 1.491 . S
C463 C101 1.491 . S
C477 C407 1.492 . S
C483 C135 1.496 . S
C497 C169 1.497 . S
C503 C237 1.493 . S
C517 C271 1.496 . S
C523 C203 1.493 . S
C537 C360 1.478 . S
C543 C20 1.480 . S
C557 C394 1.475 . S
C563 C54 1.475 . S
C577 C88 1.482 . S
C583 C224 1.480 . S
C597 C258 1.475 . S
C603 C122 1.477 . S
C617 C292 1.475 . S
C623 C156 1.476 . S
C637 C326 1.475 . S
C643 C190 1.475 . S
C657 C5 1.489 . S
C663 C9 1.387 . S
C677 C39 1.491 . S
C683 C43 1.389 . S
C697 C73 1.498 . S
C703 C77 1.413 . S
C717 C107 1.496 . S
C723 C111 1.408 . S
C737 C145 1.415 . S
C743 C141 1.498 . S
C757 C175 1.498 . S
C763 C179 1.417 . S
C777 C213 1.406 . S
C783 C209 1.495 1_556 S
C797 C243 1.496 1_556 S
C803 C247 1.411 . S
C817 C281 1.417 . S
C823 C277 1.499 1_556 S
C837 C315 1.416 . S
C843 C311 1.499 1_556 S
C857 C345 1.493 1_556 S
C863 C349 1.397 . S
C877 C379 1.497 1_556 S
C883 C383 1.409 . S
C897 C2 1.482 . S
C903 C376 1.480 . S
C917 C206 1.480 . S
C923 C36 1.482 . S
C937 C240 1.473 . S
C943 C70 1.477 . S
C957 C274 1.474 . S
C963 C104 1.478 . S
C977 C138 1.481 . S
C983 C308 1.481 . S
C997 C342 1.482 . S
C1003 C172 1.480 . S
