# Generated by pormake.
# Topology vcp, (7)-cn, num edge types: 1
# Building blocks:
#     Node 0, Type 0, BuildingBlock: HICVOG_clean_sbu_0, # of connection points: 7
#     Node 1, Type 0, BuildingBlock: HICVOG_clean_sbu_0, # of connection points: 7
#     Node 2, Type 0, BuildingBlock: HICVOG_clean_sbu_0, # of connection points: 7
#     Node 3, Type 0, BuildingBlock: HICVOG_clean_sbu_0, # of connection points: 7
#     Node 4, Type 0, BuildingBlock: HICVOG_clean_sbu_0, # of connection points: 7
#     Node 5, Type 0, BuildingBlock: HICVOG_clean_sbu_0, # of connection points: 7
#     Node 6, Type 0, BuildingBlock: HICVOG_clean_sbu_0, # of connection points: 7
#     Node 7, Type 0, BuildingBlock: HICVOG_clean_sbu_0, # of connection points: 7
#     Node 8, Type 0, BuildingBlock: HICVOG_clean_sbu_0, # of connection points: 7
#     Node 9, Type 0, BuildingBlock: HICVOG_clean_sbu_0, # of connection points: 7
#     Node 10, Type 0, BuildingBlock: HICVOG_clean_sbu_0, # of connection points: 7
#     Node 11, Type 0, BuildingBlock: HICVOG_clean_sbu_0, # of connection points: 7
#     Node 12, Type 0, BuildingBlock: HICVOG_clean_sbu_0, # of connection points: 7
#     Node 13, Type 0, BuildingBlock: HICVOG_clean_sbu_0, # of connection points: 7
#     Node 14, Type 0, BuildingBlock: HICVOG_clean_sbu_0, # of connection points: 7
#     Node 15, Type 0, BuildingBlock: HICVOG_clean_sbu_0, # of connection points: 7
#     Edge 16, Type (0, 0), BuildingBlock: KIFKEQ_clean_linker_1, # of connection points: 2
#     Edge 17, Type (0, 0), BuildingBlock: KIFKEQ_clean_linker_1, # of connection points: 2
#     Edge 18, Type (0, 0), BuildingBlock: KIFKEQ_clean_linker_1, # of connection points: 2
#     Edge 19, Type (0, 0), BuildingBlock: KIFKEQ_clean_linker_1, # of connection points: 2
#     Edge 20, Type (0, 0), BuildingBlock: KIFKEQ_clean_linker_1, # of connection points: 2
#     Edge 21, Type (0, 0), BuildingBlock: KIFKEQ_clean_linker_1, # of connection points: 2
#     Edge 22, Type (0, 0), BuildingBlock: KIFKEQ_clean_linker_1, # of connection points: 2
#     Edge 23, Type (0, 0), BuildingBlock: KIFKEQ_clean_linker_1, # of connection points: 2
#     Edge 24, Type (0, 0), BuildingBlock: KIFKEQ_clean_linker_1, # of connection points: 2
#     Edge 25, Type (0, 0), BuildingBlock: KIFKEQ_clean_linker_1, # of connection points: 2
#     Edge 26, Type (0, 0), BuildingBlock: KIFKEQ_clean_linker_1, # of connection points: 2
#     Edge 27, Type (0, 0), BuildingBlock: KIFKEQ_clean_linker_1, # of connection points: 2
#     Edge 28, Type (0, 0), BuildingBlock: KIFKEQ_clean_linker_1, # of connection points: 2
#     Edge 29, Type (0, 0), BuildingBlock: KIFKEQ_clean_linker_1, # of connection points: 2
#     Edge 30, Type (0, 0), BuildingBlock: KIFKEQ_clean_linker_1, # of connection points: 2
#     Edge 31, Type (0, 0), BuildingBlock: KIFKEQ_clean_linker_1, # of connection points: 2
#     Edge 32, Type (0, 0), BuildingBlock: KIFKEQ_clean_linker_1, # of connection points: 2
#     Edge 33, Type (0, 0), BuildingBlock: KIFKEQ_clean_linker_1, # of connection points: 2
#     Edge 34, Type (0, 0), BuildingBlock: KIFKEQ_clean_linker_1, # of connection points: 2
#     Edge 35, Type (0, 0), BuildingBlock: KIFKEQ_clean_linker_1, # of connection points: 2
#     Edge 36, Type (0, 0), BuildingBlock: KIFKEQ_clean_linker_1, # of connection points: 2
#     Edge 37, Type (0, 0), BuildingBlock: KIFKEQ_clean_linker_1, # of connection points: 2
#     Edge 38, Type (0, 0), BuildingBlock: KIFKEQ_clean_linker_1, # of connection points: 2
#     Edge 39, Type (0, 0), BuildingBlock: KIFKEQ_clean_linker_1, # of connection points: 2
#     Edge 40, Type (0, 0), BuildingBlock: KIFKEQ_clean_linker_1, # of connection points: 2
#     Edge 41, Type (0, 0), BuildingBlock: KIFKEQ_clean_linker_1, # of connection points: 2
#     Edge 42, Type (0, 0), BuildingBlock: KIFKEQ_clean_linker_1, # of connection points: 2
#     Edge 43, Type (0, 0), BuildingBlock: KIFKEQ_clean_linker_1, # of connection points: 2
#     Edge 44, Type (0, 0), BuildingBlock: KIFKEQ_clean_linker_1, # of connection points: 2
#     Edge 45, Type (0, 0), BuildingBlock: KIFKEQ_clean_linker_1, # of connection points: 2
#     Edge 46, Type (0, 0), BuildingBlock: KIFKEQ_clean_linker_1, # of connection points: 2
#     Edge 47, Type (0, 0), BuildingBlock: KIFKEQ_clean_linker_1, # of connection points: 2
#     Edge 48, Type (0, 0), BuildingBlock: KIFKEQ_clean_linker_1, # of connection points: 2
#     Edge 49, Type (0, 0), BuildingBlock: KIFKEQ_clean_linker_1, # of connection points: 2
#     Edge 50, Type (0, 0), BuildingBlock: KIFKEQ_clean_linker_1, # of connection points: 2
#     Edge 51, Type (0, 0), BuildingBlock: KIFKEQ_clean_linker_1, # of connection points: 2
#     Edge 52, Type (0, 0), BuildingBlock: KIFKEQ_clean_linker_1, # of connection points: 2
#     Edge 53, Type (0, 0), BuildingBlock: KIFKEQ_clean_linker_1, # of connection points: 2
#     Edge 54, Type (0, 0), BuildingBlock: KIFKEQ_clean_linker_1, # of connection points: 2
#     Edge 55, Type (0, 0), BuildingBlock: KIFKEQ_clean_linker_1, # of connection points: 2
#     Edge 56, Type (0, 0), BuildingBlock: KIFKEQ_clean_linker_1, # of connection points: 2
#     Edge 57, Type (0, 0), BuildingBlock: KIFKEQ_clean_linker_1, # of connection points: 2
#     Edge 58, Type (0, 0), BuildingBlock: KIFKEQ_clean_linker_1, # of connection points: 2
#     Edge 59, Type (0, 0), BuildingBlock: KIFKEQ_clean_linker_1, # of connection points: 2
#     Edge 60, Type (0, 0), BuildingBlock: KIFKEQ_clean_linker_1, # of connection points: 2
#     Edge 61, Type (0, 0), BuildingBlock: KIFKEQ_clean_linker_1, # of connection points: 2
#     Edge 62, Type (0, 0), BuildingBlock: KIFKEQ_clean_linker_1, # of connection points: 2
#     Edge 63, Type (0, 0), BuildingBlock: KIFKEQ_clean_linker_1, # of connection points: 2
#     Edge 64, Type (0, 0), BuildingBlock: KIFKEQ_clean_linker_1, # of connection points: 2
#     Edge 65, Type (0, 0), BuildingBlock: KIFKEQ_clean_linker_1, # of connection points: 2
#     Edge 66, Type (0, 0), BuildingBlock: KIFKEQ_clean_linker_1, # of connection points: 2
#     Edge 67, Type (0, 0), BuildingBlock: KIFKEQ_clean_linker_1, # of connection points: 2
#     Edge 68, Type (0, 0), BuildingBlock: KIFKEQ_clean_linker_1, # of connection points: 2
#     Edge 69, Type (0, 0), BuildingBlock: KIFKEQ_clean_linker_1, # of connection points: 2
#     Edge 70, Type (0, 0), BuildingBlock: KIFKEQ_clean_linker_1, # of connection points: 2
#     Edge 71, Type (0, 0), BuildingBlock: KIFKEQ_clean_linker_1, # of connection points: 2
# Relax obj value: 0.187
# Max RMSD: 0.220
# Mean RMSD: 0.220
data_MOF--net-vcp--node1-HICVOG_clean_sbu_0--edge1-KIFKEQ_clean_linker_1
_symmetry_space_group_name_H-M    P1
_symmetry_Int_Tables_number       1
_symmetry_cell_setting            triclinic
loop_
_symmetry_equiv_pos_as_xyz
'x, y, z'
_cell_length_a     79.173296
_cell_length_b     26.978707
_cell_length_c     34.511148
_cell_angle_alpha  90.006361
_cell_angle_beta   89.985064
_cell_angle_gamma 89.983686
loop_
_atom_site_label
_atom_site_type_symbol
_atom_site_fract_x
_atom_site_fract_y
_atom_site_fract_z
_atom_type_partial_charge
Zn0 Zn 0.12279 0.10352 0.45957 0.0
C1 C 0.14935 0.18832 0.38539 0.0
N2 N 0.14628 0.22314 0.41231 0.0
C3 C 0.13874 0.19733 0.44058 0.0
N4 N 0.13719 0.14901 0.43159 0.0
N5 N 0.14431 0.14262 0.39708 0.0
C6 C 0.14381 0.04192 0.31106 0.0
O7 O 0.13232 0.02563 0.33537 0.0
O8 O 0.12591 0.10848 0.51761 0.0
Zn9 Zn 0.15652 0.08191 0.38204 0.0
N10 N 0.09931 0.11691 0.44622 0.0
C11 C 0.07967 0.15981 0.40629 0.0
C12 C 0.09623 0.14971 0.41718 0.0
C13 C 0.08637 0.09314 0.4646 0.0
N14 N 0.0668 0.13618 0.42447 0.0
C15 C 0.06951 0.10268 0.45335 0.0
O16 O 0.14813 0.01727 0.40665 0.0
C17 C 0.13666 1.00235 0.4298 0.0
O18 O 0.12729 0.03257 0.44803 0.0
H19 H 0.10656 0.16794 0.40251 0.0
H20 H 0.08932 0.06757 0.48775 0.0
C21 C 0.19362 0.07076 0.38104 0.0
C22 C 0.21002 0.08408 0.3932 0.0
C23 C 0.19821 0.13917 0.43937 0.0
C24 C 0.18206 0.12559 0.42768 0.0
N25 N 0.17997 0.09264 0.39819 0.0
N26 N 0.21177 0.1183 0.42185 0.0
H27 H 0.19177 0.04408 0.35801 0.0
C28 C 0.13964 0.09272 0.5323 0.0
O29 O 0.15198 0.0795 0.50901 0.0
O30 O 0.15564 0.0694 0.32386 0.0
H31 H 0.17127 0.14171 0.44199 0.0
H32 H 0.07704 0.18604 0.38337 0.0
H33 H 0.19998 0.16592 0.46236 0.0
Zn34 Zn 0.41215 0.92349 0.45821 0.0
C35 C 0.38535 0.83845 0.38478 0.0
N36 N 0.38865 0.80352 0.41144 0.0
C37 C 0.39629 0.82926 0.4396 0.0
N38 N 0.39772 0.87769 0.4307 0.0
N39 N 0.39037 0.88416 0.39648 0.0
C40 C 0.39044 0.98409 0.311 0.0
O41 O 0.40222 0.9994 0.33497 0.0
O42 O 0.40804 0.92068 0.51616 0.0
Zn43 Zn 0.37793 0.9447 0.38228 0.0
N44 N 0.43567 0.90809 0.44651 0.0
C45 C 0.45543 0.86321 0.40822 0.0
C46 C 0.43883 0.87423 0.41827 0.0
C47 C 0.44856 0.93228 0.46471 0.0
N48 N 0.46826 0.88725 0.42623 0.0
C49 C 0.46546 0.92197 0.45418 0.0
O50 O 0.38641 1.00944 0.40667 0.0
C51 C 0.39873 0.02449 0.42731 0.0
O52 O 0.40861 0.99461 0.44447 0.0
H53 H 0.42854 0.85591 0.40354 0.0
H54 H 0.44555 0.95893 0.48705 0.0
C55 C 0.34082 0.95466 0.38195 0.0
C56 C 0.32452 0.94087 0.39442 0.0
C57 C 0.33667 0.88672 0.44077 0.0
C58 C 0.35274 0.90074 0.42875 0.0
N59 N 0.35461 0.93347 0.39905 0.0
N60 N 0.32298 0.9069 0.42332 0.0
H61 H 0.34251 0.98109 0.35868 0.0
C62 C 0.39519 0.94407 0.52871 0.0
O63 O 0.38466 0.96353 0.50353 0.0
O64 O 0.37847 0.95741 0.32413 0.0
H65 H 0.36365 0.88509 0.44291 0.0
H66 H 0.45812 0.83606 0.38599 0.0
H67 H 0.33508 0.86013 0.46394 0.0
Zn68 Zn 0.62167 0.9204 0.05215 0.0
C69 C 0.64755 0.83667 0.12837 0.0
N70 N 0.64257 0.80016 0.10456 0.0
C71 C 0.63545 0.82496 0.0752 0.0
N72 N 0.63579 0.87441 0.08078 0.0
N73 N 0.64371 0.88222 0.1142 0.0
C74 C 0.64379 0.98517 0.19875 0.0
O75 O 0.63237 1.00184 0.17442 0.0
O76 O 0.62506 0.91592 0.9941 0.0
Zn77 Zn 0.65617 0.94294 0.12796 0.0
N78 N 0.598 0.90758 0.06465 0.0
C79 C 0.57786 0.86188 0.10126 0.0
C80 C 0.59451 0.87159 0.09104 0.0
C81 C 0.58535 0.9349 0.04834 0.0
N82 N 0.56528 0.88893 0.08507 0.0
C83 C 0.56837 0.9255 0.05879 0.0
O84 O 0.64788 1.00729 0.10265 0.0
C85 C 0.63605 0.02192 0.08037 0.0
O86 O 0.62632 0.99146 0.0634 0.0
H87 H 0.60457 0.8508 0.10449 0.0
H88 H 0.58862 0.96414 0.02829 0.0
C89 C 0.69327 0.95391 0.12788 0.0
C90 C 0.70964 0.93932 0.11637 0.0
C91 C 0.6977 0.88055 0.07328 0.0
C92 C 0.68157 0.89526 0.08437 0.0
N93 N 0.67957 0.9308 0.112 0.0
N94 N 0.71131 0.90269 0.08957 0.0
H95 H 0.69147 0.98245 0.14953 0.0
C96 C 0.63856 0.93388 0.97977 0.0
O97 O 0.65056 0.9487 1.00338 0.0
O98 O 0.65541 0.9568 0.18605 0.0
H99 H 0.67074 0.87791 0.07115 0.0
H100 H 0.57492 0.83329 0.12218 0.0
H101 H 0.69941 0.85181 0.05177 0.0
Zn102 Zn 0.91235 0.10637 0.05433 0.0
C103 C 0.88559 0.19042 0.12876 0.0
N104 N 0.89064 0.22681 0.10492 0.0
C105 C 0.89809 0.20194 0.07602 0.0
N106 N 0.8979 0.15252 0.08195 0.0
N107 N 0.8897 0.14484 0.11501 0.0
C108 C 0.88972 0.04365 0.19934 0.0
O109 O 0.90151 0.02854 0.17529 0.0
O110 O 0.90887 0.1092 0.99624 0.0
Zn111 Zn 0.87721 0.08401 0.12819 0.0
N112 N 0.93593 0.12105 0.06635 0.0
C113 C 0.95594 0.16855 0.10192 0.0
C114 C 0.9393 0.15783 0.09214 0.0
C115 C 0.94867 0.09385 0.05029 0.0
N116 N 0.96861 0.14162 0.08595 0.0
C117 C 0.96562 0.10424 0.06031 0.0
O118 O 0.88572 0.01956 0.10319 0.0
C119 C 0.89829 1.00489 0.08311 0.0
O120 O 0.90841 0.03512 0.06711 0.0
H121 H 0.92917 0.17844 0.10548 0.0
H122 H 0.94548 0.06391 0.03082 0.0
C123 C 0.84011 0.0736 0.12755 0.0
C124 C 0.82382 0.0881 0.11541 0.0
C125 C 0.83608 0.14528 0.07146 0.0
C126 C 0.85212 0.13067 0.0832 0.0
N127 N 0.85393 0.09597 0.11153 0.0
N128 N 0.82235 0.1239 0.08787 0.0
H129 H 0.84175 0.04575 0.1498 0.0
C130 C 0.8954 0.09095 0.98202 0.0
O131 O 0.88341 0.07627 1.0057 0.0
O132 O 0.87773 0.07038 0.18631 0.0
H133 H 0.86307 0.14743 0.06996 0.0
H134 H 0.95878 0.19779 0.12235 0.0
H135 H 0.83452 0.17336 0.04937 0.0
Zn136 Zn 0.91267 0.92616 0.55354 0.0
C137 C 0.88585 0.8399 0.62602 0.0
N138 N 0.88938 0.8052 0.59931 0.0
C139 C 0.89695 0.83133 0.57127 0.0
N140 N 0.89812 0.8798 0.58027 0.0
N141 N 0.89066 0.88587 0.61444 0.0
C142 C 0.89021 0.98645 0.70023 0.0
O143 O 0.90177 1.00296 0.6762 0.0
O144 O 0.90962 0.92308 0.49536 0.0
Zn145 Zn 0.87793 0.94602 0.62884 0.0
N146 N 0.93614 0.91209 0.56681 0.0
C147 C 0.95573 0.86649 0.605 0.0
C148 C 0.9392 0.8768 0.59402 0.0
C149 C 0.94906 0.93823 0.55046 0.0
N150 N 0.96859 0.89234 0.58872 0.0
C151 C 0.96591 0.92822 0.56164 0.0
O152 O 0.88609 1.01116 0.60438 0.0
C153 C 0.89833 0.02652 0.58358 0.0
O154 O 0.90835 0.99691 0.5666 0.0
H155 H 0.92888 0.85688 0.60729 0.0
H156 H 0.94609 0.96707 0.52983 0.0
C157 C 0.84075 0.95543 0.6288 0.0
C158 C 0.82448 0.94111 0.61638 0.0
C159 C 0.83682 0.88589 0.57105 0.0
C160 C 0.85284 0.90043 0.583 0.0
N161 N 0.85461 0.93395 0.6122 0.0
N162 N 0.82307 0.90635 0.58802 0.0
H163 H 0.84234 0.98252 0.65164 0.0
C164 C 0.89579 0.93836 0.48082 0.0
O165 O 0.88334 0.95032 0.50422 0.0
O166 O 0.87849 0.95878 0.68712 0.0
H167 H 0.8638 0.8846 0.56913 0.0
H168 H 0.95834 0.83839 0.62653 0.0
H169 H 0.83532 0.85867 0.54828 0.0
Zn170 Zn 0.62179 0.10597 0.5523 0.0
C171 C 0.64805 0.18926 0.62816 0.0
N172 N 0.64315 0.22581 0.60428 0.0
C173 C 0.6359 0.20108 0.57505 0.0
N174 N 0.63608 0.15165 0.58079 0.0
N175 N 0.64403 0.14376 0.61415 0.0
C176 C 0.64385 0.04108 0.69876 0.0
O177 O 0.63235 0.02482 0.67447 0.0
O178 O 0.62514 0.1103 0.49422 0.0
Zn179 Zn 0.65633 0.08275 0.62794 0.0
N180 N 0.59815 0.11939 0.56493 0.0
C181 C 0.57816 0.16612 0.60122 0.0
C182 C 0.59478 0.1559 0.59096 0.0
C183 C 0.58541 0.092 0.54904 0.0
N184 N 0.5655 0.13902 0.58544 0.0
C185 C 0.56847 0.10191 0.55954 0.0
O186 O 0.64784 0.01856 0.60271 0.0
C187 C 0.63595 1.00418 0.58048 0.0
O188 O 0.62628 0.03483 0.56356 0.0
H189 H 0.60489 0.17673 0.60409 0.0
H190 H 0.58859 0.06234 0.52929 0.0
C191 C 0.69345 0.07159 0.6281 0.0
C192 C 0.70982 0.08584 0.61632 0.0
C193 C 0.69786 0.14332 0.57219 0.0
C194 C 0.68174 0.12896 0.58357 0.0
N195 N 0.67974 0.09424 0.61183 0.0
N196 N 0.71147 0.12166 0.58886 0.0
H197 H 0.69167 0.0437 0.65026 0.0
C198 C 0.63861 0.09211 0.47989 0.0
O199 O 0.65058 0.07712 0.50349 0.0
O200 O 0.65557 0.06904 0.68603 0.0
H201 H 0.67089 0.14595 0.5701 0.0
H202 H 0.57532 0.19514 0.62185 0.0
H203 H 0.69955 0.17141 0.55017 0.0
Zn204 Zn 0.37758 0.08201 0.88301 0.0
C205 C 0.39628 0.19761 0.93947 0.0
N206 N 0.38844 0.22333 0.91158 0.0
C207 C 0.38498 0.18838 0.88503 0.0
N208 N 0.39011 0.1427 0.89659 0.0
N209 N 0.39768 0.14918 0.93055 0.0
C210 C 0.39559 0.09052 0.02988 0.0
O211 O 0.38324 0.07782 0.00649 0.0
O212 O 0.37726 0.06951 0.82505 0.0
Zn213 Zn 0.41242 0.1034 0.9573 0.0
N214 N 0.35451 0.09261 0.90164 0.0
C215 C 0.33706 0.13845 0.94505 0.0
C216 C 0.35298 0.12488 0.93176 0.0
C217 C 0.34054 0.07154 0.88528 0.0
N218 N 0.32317 0.11839 0.92832 0.0
C219 C 0.32438 0.08493 0.89898 0.0
O220 O 0.40856 0.03233 0.94429 0.0
C221 C 0.39885 1.00228 0.92687 0.0
O222 O 0.38658 0.01717 0.90597 0.0
H223 H 0.36405 0.14053 0.94524 0.0
H224 H 0.34197 0.04557 0.8616 0.0
C225 C 0.44875 0.09426 0.96209 0.0
C226 C 0.46559 0.10414 0.95091 0.0
C227 C 0.45535 0.16232 0.90473 0.0
C228 C 0.43879 0.15175 0.91548 0.0
N229 N 0.43578 0.11831 0.94409 0.0
N230 N 0.46826 0.13836 0.92253 0.0
H231 H 0.44583 0.06811 0.98485 0.0
C232 C 0.39044 0.05093 0.80969 0.0
O233 O 0.40388 0.0441 0.83137 0.0
O234 O 0.40933 0.10651 0.01536 0.0
H235 H 0.42842 0.17009 0.90104 0.0
H236 H 0.33573 0.16466 0.96858 0.0
H237 H 0.45794 0.18909 0.88217 0.0
Zn238 Zn 0.1213 0.92167 0.95766 0.0
C239 C 0.14735 0.837 0.88267 0.0
N240 N 0.14201 0.80067 0.90625 0.0
C241 C 0.13483 0.8257 0.93541 0.0
N242 N 0.13551 0.87515 0.92995 0.0
N243 N 0.1437 0.88269 0.89687 0.0
C244 C 0.14432 0.9852 0.81325 0.0
O245 O 0.13268 1.00102 0.83737 0.0
O246 O 0.12465 0.91823 0.01568 0.0
Zn247 Zn 0.15656 0.94296 0.88406 0.0
N248 N 0.09772 0.90802 0.94519 0.0
C249 C 0.07772 0.86445 0.90666 0.0
C250 C 0.09438 0.87459 0.91674 0.0
C251 C 0.08496 0.93249 0.96365 0.0
N252 N 0.06503 0.88879 0.92492 0.0
C253 C 0.06801 0.923 0.95314 0.0
O254 O 0.14847 1.00758 0.90953 0.0
C255 C 0.13594 0.02269 0.92953 0.0
O256 O 0.12561 0.99282 0.94523 0.0
H257 H 0.10454 0.85606 0.90172 0.0
H258 H 0.0881 0.95863 0.98626 0.0
C259 C 0.19358 0.95325 0.88495 0.0
C260 C 0.20991 0.93802 0.89617 0.0
C261 C 0.19784 0.87764 0.93769 0.0
C262 C 0.18174 0.89297 0.92686 0.0
N263 N 0.17983 0.92965 0.90014 0.0
N264 N 0.2115 0.90029 0.92205 0.0
H265 H 0.19185 0.98267 0.864 0.0
C266 C 0.13822 0.93578 0.0299 0.0
O267 O 0.15031 0.94989 0.00623 0.0
O268 O 0.15605 0.95735 0.82609 0.0
H269 H 0.17086 0.87518 0.93952 0.0
H270 H 0.07489 0.83774 0.88421 0.0
H271 H 0.19947 0.84801 0.95847 0.0
Zn272 Zn 0.62234 0.60345 0.45841 0.0
C273 C 0.64976 0.68745 0.38516 0.0
N274 N 0.64666 0.72252 0.41184 0.0
C275 C 0.63875 0.69722 0.43986 0.0
N276 N 0.63693 0.64893 0.43083 0.0
N277 N 0.64434 0.64206 0.39671 0.0
C278 C 0.64405 0.5503 0.30971 0.0
O279 O 0.63056 0.54345 0.33125 0.0
O280 O 0.62658 0.60603 0.51628 0.0
Zn281 Zn 0.65669 0.58106 0.38322 0.0
N282 N 0.59884 0.6195 0.447 0.0
C283 C 0.57911 0.66499 0.40913 0.0
C284 C 0.5957 0.6537 0.41901 0.0
C285 C 0.58594 0.5952 0.46507 0.0
N286 N 0.56627 0.64084 0.42701 0.0
C287 C 0.56905 0.60575 0.45467 0.0
O288 O 0.64735 0.51658 0.40589 0.0
C289 C 0.63504 0.50191 0.42673 0.0
O290 O 0.6255 0.53214 0.44452 0.0
H291 H 0.60601 0.67208 0.40436 0.0
H292 H 0.58895 0.56823 0.48717 0.0
C293 C 0.69374 0.57044 0.38561 0.0
C294 C 0.70985 0.58325 0.39986 0.0
C295 C 0.69704 0.63472 0.44716 0.0
C296 C 0.68115 0.62173 0.43331 0.0
N297 N 0.67972 0.59077 0.40235 0.0
N298 N 0.71098 0.6154 0.43009 0.0
H299 H 0.69239 0.54547 0.36125 0.0
C300 C 0.63937 0.58222 0.52866 0.0
O301 O 0.64976 0.56234 0.50335 0.0
O302 O 0.6572 0.56879 0.32524 0.0
H303 H 0.67004 0.63679 0.44704 0.0
H304 H 0.57643 0.69242 0.38711 0.0
H305 H 0.6983 0.6599 0.47138 0.0
Zn306 Zn 0.91293 0.42306 0.45963 0.0
C307 C 0.88634 0.34021 0.38383 0.0
N308 N 0.89118 0.3037 0.40781 0.0
C309 C 0.89865 0.32841 0.43674 0.0
N310 N 0.89864 0.37776 0.43079 0.0
N311 N 0.89062 0.38571 0.39752 0.0
C312 C 0.89138 0.47888 0.31067 0.0
O313 O 0.90485 0.48579 0.33225 0.0
O314 O 0.90924 0.41884 0.51758 0.0
Zn315 Zn 0.87856 0.44729 0.38409 0.0
N316 N 0.93655 0.40873 0.44768 0.0
C317 C 0.95648 0.36384 0.40986 0.0
C318 C 0.93985 0.37462 0.41969 0.0
C319 C 0.94936 0.43322 0.46596 0.0
N320 N 0.96922 0.38819 0.42793 0.0
C321 C 0.96631 0.42303 0.45571 0.0
O322 O 0.88799 0.51147 0.40735 0.0
C323 C 0.8998 0.52541 0.42997 0.0
O324 O 0.90896 0.49434 0.44787 0.0
H325 H 0.92966 0.35603 0.40484 0.0
H326 H 0.94625 0.4599 0.48821 0.0
C327 C 0.84156 0.45915 0.38623 0.0
C328 C 0.82536 0.44618 0.39988 0.0
C329 C 0.83785 0.39241 0.44603 0.0
C330 C 0.85382 0.40542 0.43272 0.0
N331 N 0.85546 0.43772 0.40265 0.0
N332 N 0.82403 0.41285 0.42927 0.0
H333 H 0.84307 0.48503 0.36251 0.0
C334 C 0.89579 0.43743 0.53168 0.0
O335 O 0.88399 0.45313 0.50788 0.0
O336 O 0.87825 0.46011 0.32611 0.0
H337 H 0.86485 0.38927 0.44608 0.0
H338 H 0.95928 0.33659 0.38777 0.0
H339 H 0.83642 0.36625 0.46956 0.0
Zn340 Zn 0.1573 0.44437 0.12746 0.0
C341 C 0.13643 0.32621 0.0759 0.0
N342 N 0.14387 0.30148 0.10487 0.0
C343 C 0.14887 0.33798 0.12866 0.0
N344 N 0.14476 0.38348 0.11478 0.0
N345 N 0.13657 0.37564 0.08174 0.0
C346 C 0.13885 0.43622 0.98208 0.0
O347 O 0.15091 0.45053 1.00572 0.0
O348 O 0.15695 0.4586 0.18547 0.0
Zn349 Zn 0.12195 0.42149 0.05438 0.0
N350 N 0.18055 0.43221 0.11054 0.0
C351 C 0.19824 0.38281 0.07014 0.0
C352 C 0.18224 0.39764 0.08208 0.0
C353 C 0.19443 0.45423 0.12653 0.0
N354 N 0.21203 0.40384 0.08652 0.0
C355 C 0.21068 0.4395 0.11421 0.0
O356 O 0.12584 0.49284 0.06687 0.0
C357 C 0.13605 0.52316 0.08244 0.0
O358 O 0.14873 0.50859 0.10221 0.0
H359 H 0.17124 0.38112 0.06889 0.0
H360 H 0.19288 0.48197 0.14891 0.0
C361 C 0.08561 0.4339 0.05111 0.0
C362 C 0.06869 0.42327 0.06126 0.0
C363 C 0.07852 0.35842 0.10215 0.0
C364 C 0.09513 0.36938 0.09224 0.0
N365 N 0.09841 0.40654 0.06673 0.0
N366 N 0.06579 0.3855 0.0866 0.0
H367 H 0.08874 0.46413 0.03186 0.0
C368 C 0.14506 0.48576 0.19847 0.0
O369 O 0.13325 0.50084 0.17449 0.0
O370 O 0.12532 0.41842 0.99634 0.0
H371 H 0.10531 0.34865 0.10525 0.0
H372 H 0.1997 0.35482 0.04795 0.0
H373 H 0.07575 0.32887 0.12236 0.0
Zn374 Zn 0.37873 0.5826 0.12763 0.0
C375 C 0.39906 0.70112 0.07491 0.0
N376 N 0.39183 0.72579 0.10418 0.0
C377 C 0.38698 0.68921 0.12809 0.0
N378 N 0.39101 0.64374 0.11401 0.0
N379 N 0.39894 0.65169 0.08063 0.0
C380 C 0.39631 0.5929 0.97987 0.0
O381 O 0.38435 0.57802 1.00357 0.0
O382 O 0.37932 0.56882 0.18574 0.0
Zn383 Zn 0.41326 0.60621 0.05207 0.0
N384 N 0.35536 0.59401 0.11118 0.0
C385 C 0.33733 0.64309 0.07135 0.0
C386 C 0.35342 0.62879 0.08295 0.0
C387 C 0.34161 0.57124 0.1272 0.0
N388 N 0.32368 0.62131 0.08776 0.0
C389 C 0.32527 0.58543 0.11519 0.0
O390 O 0.40884 0.53505 0.06318 0.0
C391 C 0.39923 0.50425 0.08011 0.0
O392 O 0.38733 0.51846 0.10241 0.0
H393 H 0.3643 0.64587 0.06966 0.0
H394 H 0.34335 0.5433 0.14935 0.0
C395 C 0.44961 0.592 0.04878 0.0
C396 C 0.46657 0.60191 0.05911 0.0
C397 C 0.45695 0.66671 0.10036 0.0
C398 C 0.44032 0.6565 0.09026 0.0
N399 N 0.4369 0.61969 0.06453 0.0
N400 N 0.46958 0.63931 0.08471 0.0
H401 H 0.44638 0.56213 0.02928 0.0
C402 C 0.39093 0.54054 0.19861 0.0
O403 O 0.40243 0.52392 0.17444 0.0
O404 O 0.40984 0.61079 0.99409 0.0
H405 H 0.43023 0.67757 0.10328 0.0
H406 H 0.33568 0.67123 0.04935 0.0
H407 H 0.45983 0.69596 0.12075 0.0
Zn408 Zn 0.41272 0.4208 0.55226 0.0
C409 C 0.3864 0.33803 0.62842 0.0
N410 N 0.39116 0.30139 0.60446 0.0
C411 C 0.39842 0.32598 0.57518 0.0
N412 N 0.3984 0.37539 0.58095 0.0
N413 N 0.39052 0.38344 0.61439 0.0
C414 C 0.39076 0.48633 0.69884 0.0
O415 O 0.40226 0.50257 0.67453 0.0
O416 O 0.40928 0.41622 0.49424 0.0
Zn417 Zn 0.3783 0.44459 0.6281 0.0
N418 N 0.43637 0.40723 0.56466 0.0
C419 C 0.4564 0.36005 0.60046 0.0
C420 C 0.43977 0.37038 0.59038 0.0
C421 C 0.44909 0.43482 0.54891 0.0
N422 N 0.46904 0.38736 0.58482 0.0
C423 C 0.46605 0.42479 0.55923 0.0
O424 O 0.38686 0.50863 0.60279 0.0
C425 C 0.39874 0.52281 0.58043 0.0
O426 O 0.40832 0.49199 0.56343 0.0
H427 H 0.42966 0.34937 0.6034 0.0
H428 H 0.44589 0.46472 0.52941 0.0
C429 C 0.34119 0.45549 0.62863 0.0
C430 C 0.32482 0.4413 0.61683 0.0
C431 C 0.33678 0.38471 0.57198 0.0
C432 C 0.3529 0.399 0.58339 0.0
N433 N 0.3549 0.43325 0.61199 0.0
N434 N 0.32317 0.40596 0.589 0.0
H435 H 0.34297 0.483 0.65109 0.0
C436 C 0.39582 0.43446 0.47991 0.0
O437 O 0.38388 0.44971 0.50352 0.0
O438 O 0.37904 0.45836 0.68614 0.0
H439 H 0.36376 0.38233 0.56968 0.0
H440 H 0.45926 0.33077 0.62084 0.0
H441 H 0.33508 0.35698 0.54967 0.0
Zn442 Zn 0.12286 0.60405 0.55204 0.0
C443 C 0.15008 0.68735 0.62599 0.0
N444 N 0.14753 0.72219 0.59883 0.0
C445 C 0.13979 0.69692 0.57055 0.0
N446 N 0.13756 0.64889 0.57986 0.0
N447 N 0.14453 0.64209 0.61448 0.0
C448 C 0.14411 0.54126 0.70061 0.0
O449 O 0.1325 0.52506 0.67656 0.0
O450 O 0.126 0.60879 0.494 0.0
Zn451 Zn 0.15655 0.58091 0.62927 0.0
N452 N 0.09941 0.6183 0.56547 0.0
C453 C 0.07985 0.66496 0.60296 0.0
C454 C 0.09637 0.6544 0.59203 0.0
C455 C 0.08648 0.59163 0.5497 0.0
N456 N 0.06698 0.63861 0.58725 0.0
C457 C 0.06964 0.60193 0.5608 0.0
O458 O 0.14776 0.51658 0.60487 0.0
C459 C 0.13622 0.50224 0.5817 0.0
O460 O 0.12703 0.53295 0.56351 0.0
H461 H 0.10671 0.67483 0.60478 0.0
H462 H 0.08945 0.56222 0.52956 0.0
C463 C 0.19373 0.57001 0.62976 0.0
C464 C 0.21005 0.58286 0.61669 0.0
C465 C 0.19791 0.63518 0.56906 0.0
C466 C 0.18184 0.62206 0.58166 0.0
N467 N 0.17995 0.59074 0.61228 0.0
N468 N 0.21159 0.61548 0.58686 0.0
H469 H 0.19204 0.54461 0.65373 0.0
C470 C 0.13976 0.593 0.47943 0.0
O471 O 0.15206 0.57984 0.50283 0.0
O472 O 0.15593 0.56856 0.68751 0.0
H473 H 0.17095 0.63725 0.56717 0.0
H474 H 0.07725 0.69371 0.62399 0.0
H475 H 0.1995 0.66067 0.54515 0.0
Zn476 Zn 0.91282 0.60679 0.95911 0.0
C477 C 0.887 0.69049 0.88283 0.0
N478 N 0.89208 0.72704 0.90651 0.0
C479 C 0.89918 0.7023 0.93591 0.0
N480 N 0.89875 0.65282 0.93047 0.0
N481 N 0.89076 0.64496 0.89718 0.0
C482 C 0.89029 0.54176 0.81333 0.0
O483 O 0.9018 0.52516 0.83744 0.0
O484 O 0.90838 0.60982 0.01701 0.0
Zn485 Zn 0.87816 0.58432 0.88426 0.0
N486 N 0.93652 0.62181 0.9485 0.0
C487 C 0.95672 0.6674 0.91198 0.0
C488 C 0.94002 0.65642 0.92103 0.0
C489 C 0.9492 0.59684 0.96688 0.0
N490 N 0.96933 0.6426 0.93015 0.0
C491 C 0.96621 0.60714 0.95733 0.0
O492 O 0.88655 0.52009 0.90972 0.0
C493 C 0.89912 0.50524 0.92971 0.0
O494 O 0.90927 0.53533 0.94577 0.0
H495 H 0.92996 0.67518 0.90588 0.0
H496 H 0.94594 0.56961 0.9886 0.0
C497 C 0.84114 0.57319 0.88503 0.0
C498 C 0.82478 0.58795 0.89639 0.0
C499 C 0.83671 0.64789 0.93849 0.0
C500 C 0.85284 0.63304 0.92751 0.0
N501 N 0.85484 0.5968 0.90045 0.0
N502 N 0.8231 0.62524 0.92263 0.0
H503 H 0.84293 0.54412 0.8638 0.0
C504 C 0.89563 0.58597 0.02962 0.0
O505 O 0.88521 0.56595 1.00447 0.0
O506 O 0.8787 0.57009 0.82622 0.0
H507 H 0.86368 0.65086 0.94033 0.0
H508 H 0.95967 0.69507 0.89033 0.0
H509 H 0.835 0.67717 0.95955 0.0
Zn510 Zn 0.62269 0.42247 0.95834 0.0
C511 C 0.65022 0.33885 0.88498 0.0
N512 N 0.64723 0.30375 0.9117 0.0
C513 C 0.63929 0.32891 0.93975 0.0
N514 N 0.63733 0.37716 0.93069 0.0
N515 N 0.6447 0.38413 0.89654 0.0
C516 C 0.64424 0.47572 0.80963 0.0
O517 O 0.63074 0.48226 0.8312 0.0
O518 O 0.62692 0.41987 0.01621 0.0
Zn519 Zn 0.65696 0.44528 0.88311 0.0
N520 N 0.59922 0.40629 0.94692 0.0
C521 C 0.57948 0.36075 0.90911 0.0
C522 C 0.59608 0.37203 0.91897 0.0
C523 C 0.58632 0.43065 0.96496 0.0
N524 N 0.56664 0.38498 0.92696 0.0
C525 C 0.56943 0.42014 0.95458 0.0
O526 O 0.64753 0.50969 0.90578 0.0
C527 C 0.63522 0.52419 0.92669 0.0
O528 O 0.62574 0.49383 0.94451 0.0
H529 H 0.60638 0.35359 0.90435 0.0
H530 H 0.58933 0.45767 0.98703 0.0
C531 C 0.694 0.45608 0.88554 0.0
C532 C 0.71012 0.44341 0.89987 0.0
C533 C 0.69731 0.39218 0.94732 0.0
C534 C 0.68142 0.40505 0.9334 0.0
N535 N 0.67999 0.4358 0.90232 0.0
N536 N 0.71124 0.41142 0.93022 0.0
H537 H 0.69265 0.48087 0.86108 0.0
C538 C 0.63964 0.44396 0.02865 0.0
O539 O 0.64998 0.46412 1.00338 0.0
O540 O 0.65745 0.45753 0.82513 0.0
H541 H 0.67031 0.39005 0.94715 0.0
H542 H 0.5768 0.33327 0.88713 0.0
H543 H 0.69857 0.36714 0.97164 0.0
H544 H 0.03692 0.13531 0.4543 0.0
H545 H 0.06784 1.01233 0.49221 0.0
H546 H 1.01201 0.09437 0.48017 0.0
H547 H 0.04287 0.97178 0.51826 0.0
H548 H 0.997 0.93771 0.59475 0.0
H549 H 0.02186 0.97964 0.56975 0.0
H550 H 0.99404 0.02241 0.46753 0.0
H551 H 0.9691 0.98023 0.49222 0.0
C552 C 0.03848 0.09961 0.4682 0.0
C553 C 0.05458 0.07767 0.47134 0.0
C554 C 0.02412 0.07603 0.48291 0.0
C555 C 0.02538 0.02972 0.50127 0.0
C556 C 0.04145 1.0078 0.50479 0.0
C557 C 0.05586 0.03133 0.48993 0.0
C558 C 0.99609 0.95594 0.56687 0.0
C559 C 0.98081 0.95569 0.54587 0.0
C560 C 1.01044 0.97989 0.55247 0.0
C561 C 1.01 1.00443 0.51661 0.0
C562 C 0.99476 1.00451 0.49556 0.0
C563 C 0.98037 0.98035 0.50991 0.0
H564 H 0.53731 0.0931 0.59236 0.0
H565 H 0.56573 0.04638 0.49167 0.0
H566 H 0.51264 0.04975 0.56802 0.0
H567 H 0.54095 1.00271 0.46763 0.0
H568 H 0.49802 0.88914 0.45678 0.0
H569 H 0.52286 0.93119 0.48193 0.0
H570 H 0.49193 0.0557 0.51572 0.0
H571 H 0.46704 0.01409 0.49036 0.0
C572 C 0.53838 0.07364 0.56502 0.0
C573 C 0.55373 0.07322 0.54432 0.0
C574 C 0.52413 0.04885 0.55101 0.0
C575 C 0.52476 0.02278 0.51583 0.0
C576 C 0.54009 0.02188 0.49514 0.0
C577 C 0.55438 0.04688 0.5091 0.0
C578 C 0.49642 0.92548 0.46959 0.0
C579 C 0.48033 0.94766 0.47177 0.0
C580 C 0.51075 0.9497 0.48388 0.0
C581 C 0.50944 0.99685 0.50084 0.0
C582 C 0.49338 0.01904 0.50336 0.0
C583 C 0.47902 0.99489 0.48892 0.0
H584 H 0.46719 1.0128 0.98821 0.0
H585 H 0.49823 0.13649 0.95228 0.0
H586 H 0.49206 0.97168 0.01408 0.0
H587 H 0.52307 0.09486 0.97796 0.0
H588 H 0.56582 0.97921 0.99003 0.0
H589 H 0.54113 0.02267 0.96514 0.0
H590 H 0.5127 0.97922 0.06632 0.0
H591 H 0.53727 0.93608 0.09147 0.0
C592 C 0.47918 0.03185 0.98634 0.0
C593 C 0.4805 0.07861 0.96846 0.0
C594 C 0.49352 1.00796 1.00108 0.0
C595 C 0.5096 0.02993 0.99814 0.0
C596 C 0.51094 0.07655 0.9803 0.0
C597 C 0.49662 0.10052 0.96571 0.0
C598 C 0.55445 0.97947 0.00743 0.0
C599 C 0.55373 0.95417 0.04309 0.0
C600 C 0.54022 1.00435 0.99299 0.0
C601 C 0.52488 1.00434 0.01366 0.0
C602 C 0.5242 0.97937 0.04932 0.0
C603 C 0.53838 0.95472 0.06379 0.0
H604 H 0.03543 0.89075 0.95645 0.0
H605 H 0.06681 0.01495 0.98956 0.0
H606 H 1.01077 0.93324 0.98218 0.0
H607 H 0.04209 0.05708 0.01547 0.0
H608 H 0.99689 0.09559 0.0926 0.0
H609 H 0.02147 0.05192 0.06796 0.0
H610 H 0.99285 1.0049 0.96807 0.0
H611 H 0.96817 0.0488 0.99243 0.0
C612 C 0.03714 0.92704 0.96929 0.0
C613 C 0.05328 0.9489 0.97114 0.0
C614 C 0.02293 0.95151 0.9839 0.0
C615 C 0.0244 0.99863 1.00086 0.0
C616 C 0.04053 0.02047 1.0031 0.0
C617 C 0.05478 0.99604 0.98835 0.0
C618 C 0.99574 0.07605 0.06531 0.0
C619 C 0.98033 0.07564 0.04487 0.0
C620 C 1.00993 0.05109 0.05113 0.0
C621 C 1.00918 0.02488 0.01602 0.0
C622 C 0.9938 0.02411 0.99554 0.0
C623 C 0.97957 0.04926 0.00968 0.0
H624 H 0.5365 0.63865 0.45762 0.0
H625 H 0.56743 0.51317 0.49012 0.0
H626 H 0.51165 0.59639 0.48257 0.0
H627 H 0.54254 0.47136 0.51527 0.0
H628 H 0.49724 0.43312 0.59188 0.0
H629 H 0.5219 0.47671 0.56772 0.0
H630 H 0.49349 0.52516 0.46793 0.0
H631 H 0.46871 0.48125 0.49181 0.0
C632 C 0.53808 0.60214 0.47015 0.0
C633 C 0.55417 0.57989 0.4721 0.0
C634 C 0.52375 0.57781 0.48432 0.0
C635 C 0.52505 0.53045 0.50094 0.0
C636 C 0.54111 0.50817 0.5032 0.0
C637 C 0.55547 0.53244 0.48888 0.0
C638 C 0.49615 0.45295 0.56471 0.0
C639 C 0.48077 0.45367 0.54413 0.0
C640 C 0.51038 0.47787 0.5508 0.0
C641 C 0.50973 0.50441 0.51584 0.0
C642 C 0.49437 0.50563 0.49527 0.0
C643 C 0.48009 0.48048 0.50914 0.0
H644 H 0.03845 0.59418 0.59381 0.0
H645 H 0.06649 0.54717 0.49264 0.0
H646 H 1.01361 0.55135 0.56969 0.0
H647 H 0.04158 0.50407 0.46889 0.0
H648 H 0.99887 0.3904 0.45851 0.0
H649 H 0.02366 0.43256 0.48366 0.0
H650 H 0.99266 0.55681 0.51766 0.0
H651 H 0.96778 0.51504 0.49227 0.0
C652 C 0.0394 0.57478 0.56642 0.0
C653 C 0.05472 0.57402 0.54557 0.0
C654 C 0.02506 0.5503 0.55254 0.0
C655 C 0.02555 0.52419 0.51736 0.0
C656 C 0.04082 0.52318 0.49643 0.0
C657 C 0.0552 0.54787 0.51025 0.0
C658 C 0.99723 0.42672 0.47136 0.0
C659 C 0.98112 0.4488 0.4735 0.0
C660 C 1.01154 0.451 0.48565 0.0
C661 C 1.01021 0.49815 0.50261 0.0
C662 C 0.99412 0.52019 0.50524 0.0
C663 C 0.97977 0.49596 0.49078 0.0
H664 H 0.03736 0.43029 0.09358 0.0
H665 H 0.06602 0.48065 0.99435 0.0
H666 H 1.01271 0.47437 0.06978 0.0
H667 H 0.0413 0.525 0.9709 0.0
H668 H 0.99874 0.63951 0.96203 0.0
H669 H 0.02336 0.59619 0.98694 0.0
H670 H 0.99208 0.47092 0.01695 0.0
H671 H 0.96738 0.51387 0.99179 0.0
C672 C 0.03849 0.45069 0.06668 0.0
C673 C 0.05391 0.45199 0.04628 0.0
C674 C 0.02426 0.47589 0.05298 0.0
C675 C 0.02498 0.50327 0.01844 0.0
C676 C 0.04036 0.50487 0.99797 0.0
C677 C 0.05462 0.47946 0.0116 0.0
C678 C 0.99702 0.60273 0.97397 0.0
C679 C 0.98089 0.58069 0.97508 0.0
C680 C 1.01122 0.57779 0.98811 0.0
C681 C 1.00975 0.53001 1.00387 0.0
C682 C 0.99364 0.508 1.00547 0.0
C683 C 0.9794 0.5329 0.99116 0.0
H684 H 0.49776 0.59336 0.09175 0.0
H685 H 0.46919 0.5454 0.99169 0.0
H686 H 0.52238 0.54954 0.06758 0.0
H687 H 0.49392 0.50127 0.96782 0.0
H688 H 0.53686 0.38741 0.95759 0.0
H689 H 0.51204 0.42986 0.98254 0.0
H690 H 0.54299 0.5548 0.01503 0.0
H691 H 0.56785 0.51282 0.98986 0.0
C692 C 0.49664 0.57352 0.06459 0.0
C693 C 0.48127 0.57292 0.04401 0.0
C694 C 0.51086 0.54847 0.05067 0.0
C695 C 0.51018 0.52192 0.01572 0.0
C696 C 0.49482 0.52081 0.99516 0.0
C697 C 0.48056 0.54609 0.00902 0.0
C698 C 0.53846 0.42393 0.97008 0.0
C699 C 0.55456 0.44611 0.97198 0.0
C700 C 0.52415 0.44838 0.98425 0.0
C701 C 0.52548 0.49576 1.00081 0.0
C702 C 0.54154 0.51797 1.003 0.0
C703 C 0.55588 0.4936 0.98868 0.0
H704 H 0.11409 0.95951 0.47912 0.0
H705 H 0.15411 0.92315 0.39875 0.0
H706 H 0.11255 0.87406 0.49924 0.0
H707 H 0.15211 0.83613 0.41807 0.0
H708 H 0.10964 0.72392 0.53794 0.0
H709 H 0.10641 0.78978 0.48986 0.0
H710 H 0.16058 0.79223 0.47371 0.0
H711 H 0.16348 0.72535 0.52017 0.0
C712 C 0.12238 0.93305 0.46508 0.0
C713 C 0.13449 0.9486 0.43783 0.0
C714 C 0.12131 0.88352 0.47632 0.0
C715 C 0.13224 0.84775 0.46047 0.0
C716 C 0.14366 0.8627 0.43136 0.0
C717 C 0.1448 0.91261 0.42023 0.0
C718 C 0.12068 0.73677 0.52243 0.0
C719 C 0.13679 0.71974 0.53256 0.0
C720 C 0.11892 0.77514 0.49535 0.0
C721 C 0.13329 0.79759 0.47866 0.0
C722 C 0.14919 0.77617 0.48568 0.0
C723 C 0.1509 0.73768 0.51239 0.0
H724 H 0.37485 0.09811 0.42881 0.0
H725 H 0.42828 0.07178 0.44265 0.0
H726 H 0.37844 0.18204 0.4539 0.0
H727 H 0.43207 0.15618 0.46598 0.0
H728 H 0.42289 0.25718 0.57364 0.0
H729 H 0.42529 0.19099 0.52646 0.0
H730 H 0.38898 0.26537 0.45306 0.0
H731 H 0.38635 0.3312 0.50159 0.0
C732 C 0.38744 0.11083 0.43603 0.0
C733 C 0.40122 0.07811 0.43451 0.0
C734 C 0.38956 0.15913 0.45022 0.0
C735 C 0.40554 0.17585 0.46265 0.0
C736 C 0.41952 0.1443 0.45767 0.0
C737 C 0.41736 0.09592 0.44416 0.0
C738 C 0.41608 0.26053 0.54652 0.0
C739 C 0.40468 0.29956 0.54086 0.0
C740 C 0.41738 0.22243 0.51935 0.0
C741 C 0.40715 0.22227 0.48596 0.0
C742 C 0.39687 0.26389 0.47866 0.0
C743 C 0.39561 0.30219 0.50601 0.0
H744 H 0.61411 0.0636 0.02901 0.0
H745 H 0.65297 0.10191 0.11167 0.0
H746 H 0.61248 0.14879 0.00832 0.0
H747 H 0.65085 0.18872 0.09185 0.0
H748 H 0.66245 0.3022 0.99199 0.0
H749 H 0.65954 0.23428 0.03752 0.0
H750 H 0.60565 0.23227 0.01696 0.0
H751 H 0.60896 0.2989 0.96965 0.0
C752 C 0.62211 0.09044 0.04343 0.0
C753 C 0.6339 0.07552 0.0716 0.0
C754 C 0.621 0.13984 0.03184 0.0
C755 C 0.63154 0.17617 0.04826 0.0
C756 C 0.64269 0.16177 0.07807 0.0
C757 C 0.64391 0.11197 0.08952 0.0
C758 C 0.64988 0.28866 0.99862 0.0
C759 C 0.63593 0.3057 0.97746 0.0
C760 C 0.64818 0.2495 0.02478 0.0
C761 C 0.6324 0.22655 0.0303 0.0
C762 C 0.61808 0.24802 0.01262 0.0
C763 C 0.61987 0.28693 0.98602 0.0
H764 H 0.88725 0.69678 0.00968 0.0
H765 H 0.92356 0.77135 0.93737 0.0
H766 H 0.88944 0.76347 0.05767 0.0
H767 H 0.92558 0.83819 0.98408 0.0
H768 H 0.92798 0.95826 0.06761 0.0
H769 H 0.93208 0.87394 0.0444 0.0
H770 H 0.87852 0.84666 0.05604 0.0
H771 H 0.8746 0.93061 0.08095 0.0
C772 C 0.89636 0.72614 1.00509 0.0
C773 C 0.90545 0.72875 0.97024 0.0
C774 C 0.89737 0.7649 0.03213 0.0
C775 C 0.90747 0.80684 0.02459 0.0
C776 C 0.91779 0.80657 0.99134 0.0
C777 C 0.91672 0.76807 0.96445 0.0
C778 C 0.91713 0.93389 0.06596 0.0
C779 C 0.90091 0.95134 0.07548 0.0
C780 C 0.91947 0.88552 0.05253 0.0
C781 C 0.90562 0.85354 0.04754 0.0
C782 C 0.88955 0.86992 0.05972 0.0
C783 C 0.88724 0.91824 0.0738 0.0
H784 H 0.8743 0.09975 0.58111 0.0
H785 H 0.92789 0.0743 0.56969 0.0
H786 H 0.87798 0.18392 0.55646 0.0
H787 H 0.93176 0.15886 0.54683 0.0
H788 H 0.92334 0.26033 0.43904 0.0
H789 H 0.92545 0.19388 0.4861 0.0
H790 H 0.88846 0.26742 0.55826 0.0
H791 H 0.88614 0.33351 0.50988 0.0
C792 C 0.88693 0.1127 0.5745 0.0
C793 C 0.90074 0.08019 0.57655 0.0
C794 C 0.8891 0.16112 0.56057 0.0
C795 C 0.90517 0.17813 0.54896 0.0
C796 C 0.91915 0.14676 0.55449 0.0
C797 C 0.91694 0.09828 0.56772 0.0
C798 C 0.91632 0.26344 0.46591 0.0
C799 C 0.90481 0.30227 0.47124 0.0
C800 C 0.91744 0.2252 0.49299 0.0
C801 C 0.90693 0.22472 0.52594 0.0
C802 C 0.89655 0.26619 0.53299 0.0
C803 C 0.89548 0.30463 0.50574 0.0
H804 H 0.61404 0.96302 0.52883 0.0
H805 H 0.65258 0.92377 0.61201 0.0
H806 H 0.61224 0.87789 0.5081 0.0
H807 H 0.65027 0.837 0.59217 0.0
H808 H 0.6618 0.723 0.49264 0.0
H809 H 0.65895 0.791 0.53814 0.0
H810 H 0.60515 0.79471 0.5165 0.0
H811 H 0.60842 0.72805 0.46919 0.0
C812 C 0.62193 0.93599 0.54336 0.0
C813 C 0.63369 0.95062 0.57169 0.0
C814 C 0.62072 0.88662 0.53174 0.0
C815 C 0.63111 0.85003 0.54831 0.0
C816 C 0.64223 0.86416 0.57827 0.0
C817 C 0.64355 0.91393 0.58974 0.0
C818 C 0.64926 0.73693 0.49904 0.0
C819 C 0.63532 0.72035 0.47757 0.0
C820 C 0.64759 0.77614 0.52516 0.0
C821 C 0.63188 0.7996 0.53037 0.0
C822 C 0.61755 0.77858 0.51239 0.0
C823 C 0.6193 0.73964 0.48581 0.0
H824 H 0.38695 0.69566 1.00139 0.0
H825 H 0.4235 0.77001 0.07317 0.0
H826 H 0.38951 0.76134 0.95275 0.0
H827 H 0.4258 0.83612 0.02592 0.0
H828 H 0.42849 0.95551 0.94228 0.0
H829 H 0.43246 0.87116 0.96559 0.0
H830 H 0.37889 0.84438 0.95327 0.0
H831 H 0.37514 0.92823 0.92815 0.0
C832 C 0.39621 0.7247 1.00572 0.0
C833 C 0.4053 0.72746 0.04053 0.0
C834 C 0.39741 0.76294 0.97832 0.0
C835 C 0.40766 0.80465 0.98552 0.0
C836 C 0.41791 0.80461 0.01887 0.0
C837 C 0.41667 0.76656 0.04609 0.0
C838 C 0.41763 0.93116 0.94372 0.0
C839 C 0.40145 0.94869 0.93399 0.0
C840 C 0.41988 0.88281 0.95724 0.0
C841 C 0.40597 0.85104 0.96218 0.0
C842 C 0.38996 0.86747 0.94965 0.0
C843 C 0.38775 0.91573 0.93543 0.0
H844 H 0.15997 0.09604 0.93173 0.0
H845 H 0.10648 0.07043 0.94527 0.0
H846 H 0.15642 0.1802 0.95652 0.0
H847 H 0.10276 0.15493 0.96838 0.0
H848 H 0.11177 0.25799 0.07494 0.0
H849 H 0.10946 0.19085 0.02858 0.0
H850 H 0.14584 0.26374 0.95448 0.0
H851 H 0.14832 0.33072 1.00212 0.0
C852 C 0.14739 0.10889 0.93892 0.0
C853 C 0.13357 0.07631 0.9373 0.0
C854 C 0.1453 0.15733 0.95292 0.0
C855 C 0.1293 0.17435 0.9651 0.0
C856 C 0.11531 0.14286 0.96024 0.0
C857 C 0.11744 0.09438 0.94688 0.0
C858 C 0.11859 0.26086 0.0478 0.0
C859 C 0.12999 0.29981 0.04174 0.0
C860 C 0.11736 0.22217 0.02112 0.0
C861 C 0.12766 0.22127 0.98783 0.0
C862 C 0.13791 0.2628 0.98005 0.0
C863 C 0.13908 0.30176 0.00686 0.0
H864 H 0.60545 0.45552 0.44361 0.0
H865 H 0.6586 0.4275 0.42663 0.0
H866 H 0.60161 0.37122 0.46716 0.0
H867 H 0.65501 0.34378 0.45197 0.0
H868 H 0.64741 0.19548 0.50097 0.0
H869 H 0.6444 0.26094 0.45229 0.0
H870 H 0.60876 0.33603 0.52703 0.0
H871 H 0.61148 0.27008 0.5743 0.0
C872 C 0.61629 0.43102 0.44445 0.0
C873 C 0.63238 0.44833 0.43384 0.0
C874 C 0.61411 0.3827 0.45812 0.0
C875 C 0.62803 0.35074 0.46233 0.0
C876 C 0.64393 0.36697 0.44892 0.0
C877 C 0.64605 0.41518 0.43457 0.0
C878 C 0.6382 0.22454 0.50568 0.0
C879 C 0.62942 0.22744 0.54091 0.0
C880 C 0.63673 0.26266 0.47824 0.0
C881 C 0.62654 0.30442 0.48583 0.0
C882 C 0.61659 0.30451 0.51968 0.0
C883 C 0.61809 0.26656 0.54691 0.0
H884 H 0.87428 0.80679 0.51725 0.0
H885 H 0.92742 0.80015 0.54313 0.0
H886 H 0.87731 0.73909 0.47155 0.0
H887 H 0.93091 0.7339 0.49556 0.0
H888 H 0.92186 0.56596 0.4816 0.0
H889 H 0.92377 0.65091 0.50265 0.0
H890 H 0.88615 0.69301 0.41798 0.0
H891 H 0.88368 0.6064 0.3979 0.0
C892 C 0.88683 0.79261 0.51134 0.0
C893 C 0.90062 0.80864 0.53353 0.0
C894 C 0.88861 0.75354 0.4851 0.0
C895 C 0.9043 0.72971 0.48046 0.0
C896 C 0.91852 0.75023 0.49921 0.0
C897 C 0.91665 0.78896 0.52594 0.0
C898 C 0.91409 0.59323 0.46699 0.0
C899 C 0.90237 0.57894 0.43847 0.0
C900 C 0.91536 0.64252 0.47882 0.0
C901 C 0.90508 0.6794 0.46224 0.0
C902 C 0.89408 0.66565 0.43195 0.0
C903 C 0.89268 0.61595 0.42031 0.0
H904 H 0.15974 0.59739 0.07964 0.0
H905 H 0.10631 0.56974 0.06732 0.0
H906 H 0.15574 0.6813 0.05479 0.0
H907 H 0.10213 0.65405 0.0442 0.0
H908 H 0.1102 0.75742 0.9374 0.0
H909 H 0.10829 0.6904 0.984 0.0
H910 H 0.14494 0.76429 0.05676 0.0
H911 H 0.14706 0.83095 0.00883 0.0
C912 C 0.14707 0.60975 0.07272 0.0
C913 C 0.13341 0.57667 0.0747 0.0
C914 C 0.14472 0.65806 0.05868 0.0
C915 C 0.12861 0.67447 0.04683 0.0
C916 C 0.11477 0.64247 0.05206 0.0
C917 C 0.11716 0.5941 0.06545 0.0
C918 C 0.11717 0.76049 0.96432 0.0
C919 C 0.12855 0.79958 0.96987 0.0
C920 C 0.11618 0.72188 0.99113 0.0
C921 C 0.12668 0.7213 0.02408 0.0
C922 C 0.13687 0.76307 0.03145 0.0
C923 C 0.13782 0.80188 1.00447 0.0
H924 H 0.38305 0.42345 0.11224 0.0
H925 H 0.42088 0.46364 0.0276 0.0
H926 H 0.3855 0.33673 0.09234 0.0
H927 H 0.42279 0.37859 0.00679 0.0
H928 H 0.42674 0.22908 0.9673 0.0
H929 H 0.43019 0.29575 0.01459 0.0
H930 H 0.37662 0.29015 0.039 0.0
H931 H 0.37363 0.22214 0.99357 0.0
C932 C 0.39195 0.41383 0.08961 0.0
C933 C 0.40157 0.45076 0.07121 0.0
C934 C 0.39335 0.36408 0.07812 0.0
C935 C 0.4043 0.35022 0.04772 0.0
C936 C 0.41445 0.38708 0.03076 0.0
C937 C 0.41317 0.43642 0.04243 0.0
C938 C 0.41597 0.24032 0.98452 0.0
C939 C 0.39995 0.22052 0.9771 0.0
C940 C 0.41782 0.27924 0.01109 0.0
C941 C 0.40358 0.29975 0.02983 0.0
C942 C 0.38792 0.27572 0.02543 0.0
C943 C 0.38617 0.23649 0.99935 0.0
H944 H 0.42062 0.56353 0.52849 0.0
H945 H 0.38234 0.60352 0.61216 0.0
H946 H 0.42255 0.6486 0.50774 0.0
H947 H 0.38479 0.69024 0.59228 0.0
H948 H 0.3733 0.80436 0.49281 0.0
H949 H 0.3761 0.73646 0.53842 0.0
H950 H 0.42984 0.73158 0.51599 0.0
H951 H 0.42661 0.79809 0.46854 0.0
C952 C 0.41281 0.59071 0.54312 0.0
C953 C 0.40108 0.57631 0.5716 0.0
C954 C 0.4141 0.64005 0.53149 0.0
C955 C 0.40383 0.67684 0.54818 0.0
C956 C 0.39274 0.66293 0.57829 0.0
C957 C 0.39134 0.61318 0.58976 0.0
C958 C 0.38583 0.79021 0.49907 0.0
C959 C 0.39974 0.80637 0.47735 0.0
C960 C 0.38747 0.75105 0.52525 0.0
C961 C 0.40314 0.72727 0.53025 0.0
C962 C 0.41747 0.74793 0.51203 0.0
C963 C 0.41574 0.78678 0.48537 0.0
H964 H 0.16205 0.22365 0.49254 0.0
H965 H 0.10847 0.22599 0.47133 0.0
H966 H 0.15913 0.29053 0.53899 0.0
H967 H 0.10516 0.29178 0.51953 0.0
H968 H 0.1138 0.46074 0.53139 0.0
H969 H 0.11189 0.37548 0.51104 0.0
H970 H 0.15049 0.33518 0.59391 0.0
H971 H 0.15289 0.42205 0.61341 0.0
C972 C 0.14948 0.23678 0.4996 0.0
C973 C 0.13549 0.21994 0.47851 0.0
C974 C 0.14776 0.2753 0.5263 0.0
C975 C 0.13195 0.29778 0.5324 0.0
C976 C 0.11761 0.27636 0.51475 0.0
C977 C 0.1194 0.23804 0.48763 0.0
C978 C 0.12179 0.43381 0.54574 0.0
C979 C 0.13377 0.44863 0.57354 0.0
C980 C 0.12051 0.38437 0.53436 0.0
C981 C 0.13107 0.34797 0.55062 0.0
C982 C 0.14233 0.36223 0.58026 0.0
C983 C 0.1437 0.41206 0.59151 0.0
H984 H 0.88658 0.1973 1.00191 0.0
H985 H 0.92279 0.27003 0.0756 0.0
H986 H 0.88936 0.26415 0.95426 0.0
H987 H 0.92536 0.33709 0.02926 0.0
H988 H 0.92859 0.45795 0.9464 0.0
H989 H 0.9323 0.37344 0.96952 0.0
H990 H 0.87877 0.3474 0.95576 0.0
H991 H 0.87525 0.43148 0.93093 0.0
C992 C 0.89581 0.22624 0.00687 0.0
C993 C 0.90472 0.22824 0.04198 0.0
C994 C 0.89715 0.26514 0.98004 0.0
C995 C 0.90737 0.30668 0.98806 0.0
C996 C 0.91749 0.3058 0.02161 0.0
C997 C 0.9161 0.26714 0.04828 0.0
C998 C 0.91766 0.43381 0.94757 0.0
C999 C 0.90157 0.45163 0.93743 0.0
C1000 C 0.91978 0.38533 0.96096 0.0
C1001 C 0.90581 0.35361 0.9653 0.0
C1002 C 0.88988 0.37042 0.95257 0.0
C1003 C 0.88781 0.41883 0.93853 0.0
H1004 H 0.65866 0.59887 0.92676 0.0
H1005 H 0.60554 0.57022 0.94349 0.0
H1006 H 0.65492 0.68253 0.95214 0.0
H1007 H 0.60154 0.65448 0.96703 0.0
H1008 H 0.61106 0.75593 0.07412 0.0
H1009 H 0.60851 0.68993 0.02684 0.0
H1010 H 0.64424 0.76519 0.9525 0.0
H1011 H 0.64711 0.83065 1.00123 0.0
C1012 C 0.64608 0.61105 0.93465 0.0
C1013 C 0.63247 0.57773 0.93384 0.0
C1014 C 0.64387 0.65922 0.94903 0.0
C1015 C 0.62794 0.67527 0.96236 0.0
C1016 C 0.61407 0.64314 0.95806 0.0
C1017 C 0.61634 0.59485 0.94439 0.0
C1018 C 0.61772 0.75947 0.04681 0.0
C1019 C 0.62904 0.79864 0.04095 0.0
C1020 C 0.61633 0.72149 0.01956 0.0
C1021 C 0.62636 0.72161 0.98584 0.0
C1022 C 0.63652 0.76343 0.97836 0.0
C1023 C 0.6379 0.80156 1.00582 0.0
H1024 H 0.29771 0.89275 0.36337 0.0
H1025 H 0.31583 0.0385 0.39276 0.0
H1026 H 0.26971 0.92645 0.35036 0.0
H1027 H 0.28766 0.07227 0.38273 0.0
H1028 H 0.23667 0.13049 0.35993 0.0
H1029 H 0.26464 0.09607 0.34761 0.0
H1030 H 0.24673 0.95211 0.38484 0.0
H1031 H 0.2186 0.98644 0.39416 0.0
C1032 C 0.29569 0.93229 0.36638 0.0
C1033 C 0.3089 0.96315 0.37873 0.0
C1034 C 0.27957 0.95164 0.35952 0.0
C1035 C 0.27609 1.00217 0.36613 0.0
C1036 C 0.28967 0.03338 0.37664 0.0
C1037 C 0.30591 0.01412 0.38251 0.0
C1038 C 0.23868 0.09112 0.3641 0.0
C1039 C 0.22551 0.06095 0.3776 0.0
C1040 C 0.25479 0.0714 0.35767 0.0
C1041 C 0.25828 0.02126 0.36589 0.0
C1042 C 0.24471 0.99065 0.37752 0.0
C1043 C 0.22849 1.01023 0.38297 0.0
H1044 H 0.71786 0.03738 0.11423 0.0
H1045 H 0.73678 0.89435 0.14877 0.0
H1046 H 0.74585 0.07295 0.12292 0.0
H1047 H 0.7646 0.93001 0.16038 0.0
H1048 H 0.81555 0.99 0.116 0.0
H1049 H 0.78752 0.95493 0.12521 0.0
H1050 H 0.76863 0.09971 0.15769 0.0
H1051 H 0.79651 0.13473 0.14557 0.0
C1052 C 0.72791 0.01406 0.12526 0.0
C1053 C 0.72519 0.96325 0.13092 0.0
C1054 C 0.74405 0.03436 0.13036 0.0
C1055 C 0.7578 1.00442 0.14196 0.0
C1056 C 0.75461 0.95418 0.15034 0.0
C1057 C 0.73858 0.93374 0.14428 0.0
C1058 C 0.80546 0.01389 0.12604 0.0
C1059 C 0.80816 0.06495 0.13014 0.0
C1060 C 0.78929 0.99388 0.13144 0.0
C1061 C 0.7755 0.0244 0.1418 0.0
C1062 C 0.77866 0.07504 0.14863 0.0
C1063 C 0.79471 0.09514 0.14226 0.0
H1064 H 0.81587 0.03891 0.61769 0.0
H1065 H 0.79738 0.89335 0.64645 0.0
H1066 H 0.78768 0.07297 0.62682 0.0
H1067 H 0.76934 0.92734 0.65851 0.0
H1068 H 0.71842 0.98808 0.61441 0.0
H1069 H 0.74652 0.95344 0.62361 0.0
H1070 H 0.76454 0.09697 0.66154 0.0
H1071 H 0.73662 0.1317 0.64939 0.0
C1072 C 0.80586 0.01462 0.62759 0.0
C1073 C 0.80877 0.96362 0.63148 0.0
C1074 C 0.7896 0.03405 0.63293 0.0
C1075 C 0.77592 1.003 0.643 0.0
C1076 C 0.77928 0.95242 0.64967 0.0
C1077 C 0.79543 0.93291 0.64336 0.0
C1078 C 0.72833 1.01172 0.62567 0.0
C1079 C 0.72538 0.06242 0.63131 0.0
C1080 C 0.74454 0.99196 0.63107 0.0
C1081 C 0.75812 0.02235 0.64293 0.0
C1082 C 0.75469 0.07247 0.65131 0.0
C1083 C 0.7386 0.09237 0.64495 0.0
H1084 H 0.29699 0.13358 0.87128 0.0
H1085 H 0.31597 0.98714 0.89536 0.0
H1086 H 0.269 0.09959 0.85881 0.0
H1087 H 0.28783 0.95294 0.88588 0.0
H1088 H 0.23687 0.89424 0.86201 0.0
H1089 H 0.2647 0.93011 0.8508 0.0
H1090 H 0.24635 0.07129 0.89314 0.0
H1091 H 0.21834 0.03569 0.90136 0.0
C1092 C 0.29515 0.09386 0.8733 0.0
C1093 C 0.30861 0.06287 0.88395 0.0
C1094 C 0.27904 0.07432 0.86674 0.0
C1095 C 0.27583 0.02338 0.87197 0.0
C1096 C 0.28963 0.99216 0.88089 0.0
C1097 C 0.30585 1.01167 0.88644 0.0
C1098 C 0.23877 0.93335 0.86768 0.0
C1099 C 0.22549 0.96236 0.88223 0.0
C1100 C 0.25479 0.95388 0.86185 0.0
C1101 C 0.2581 1.00363 0.87168 0.0
C1102 C 0.24446 0.03313 0.88456 0.0
C1103 C 0.22831 1.0128 0.88941 0.0
H1104 H 0.79897 0.39826 0.36689 0.0
H1105 H 0.8161 0.54323 0.40126 0.0
H1106 H 0.77081 0.43118 0.3544 0.0
H1107 H 0.78776 0.57607 0.39181 0.0
H1108 H 0.73649 0.63287 0.3695 0.0
H1109 H 0.76475 0.60062 0.35707 0.0
H1110 H 0.74752 0.45387 0.38897 0.0
H1111 H 0.71912 0.4862 0.39835 0.0
C1112 C 0.7967 0.43751 0.3711 0.0
C1113 C 0.80967 0.46839 0.38463 0.0
C1114 C 0.78048 0.45637 0.36456 0.0
C1115 C 0.77667 0.50634 0.37272 0.0
C1116 C 0.79003 0.53765 0.38451 0.0
C1117 C 0.80636 0.51893 0.39006 0.0
C1118 C 0.73873 0.59344 0.3725 0.0
C1119 C 0.72566 0.56187 0.38448 0.0
C1120 C 0.755 0.57492 0.36599 0.0
C1121 C 0.75875 0.52456 0.37265 0.0
C1122 C 0.74531 0.49266 0.38285 0.0
C1123 C 0.72893 0.51108 0.38835 0.0
H1124 H 0.29829 0.63103 0.14773 0.0
H1125 H 0.31681 0.48758 0.11311 0.0
H1126 H 0.27036 0.59603 0.15933 0.0
H1127 H 0.28872 0.45268 0.12177 0.0
H1128 H 0.23786 0.3921 0.1442 0.0
H1129 H 0.26584 0.42638 0.15637 0.0
H1130 H 0.24737 0.57174 0.12422 0.0
H1131 H 0.21924 0.5374 0.11498 0.0
C1132 C 0.29638 0.59168 0.14325 0.0
C1133 C 0.30968 0.56186 0.12988 0.0
C1134 C 0.28029 0.57162 0.14929 0.0
C1135 C 0.27695 0.52147 0.14086 0.0
C1136 C 0.29063 0.49121 0.12925 0.0
C1137 C 0.30683 0.51113 0.12417 0.0
C1138 C 0.23977 0.43166 0.14097 0.0
C1139 C 0.22641 0.46221 0.12895 0.0
C1140 C 0.25588 0.45134 0.14737 0.0
C1141 C 0.25919 0.50193 0.14065 0.0
C1142 C 0.24549 0.53282 0.13037 0.0
C1143 C 0.22926 0.51322 0.12495 0.0
H1144 H 0.23682 0.63155 0.64734 0.0
H1145 H 0.21881 0.48536 0.619 0.0
H1146 H 0.26493 0.59832 0.65986 0.0
H1147 H 0.24706 0.45204 0.62856 0.0
H1148 H 0.2983 0.39477 0.65051 0.0
H1149 H 0.27031 0.42881 0.66316 0.0
H1150 H 0.28779 0.57275 0.62486 0.0
H1151 H 0.31596 0.53882 0.61517 0.0
C1152 C 0.23888 0.592 0.64453 0.0
C1153 C 0.22567 0.56088 0.6326 0.0
C1154 C 0.25507 0.57293 0.65107 0.0
C1155 C 0.2586 0.52241 0.64456 0.0
C1156 C 0.24502 0.49094 0.63454 0.0
C1157 C 0.22872 0.50993 0.62897 0.0
C1158 C 0.29619 0.43406 0.64612 0.0
C1159 C 0.30927 0.46432 0.63222 0.0
C1160 C 0.28007 0.45356 0.65276 0.0
C1161 C 0.27645 0.50358 0.6444 0.0
C1162 C 0.28991 0.53431 0.63231 0.0
C1163 C 0.30616 0.51495 0.62663 0.0
H1164 H 0.81619 0.49056 0.90243 0.0
H1165 H 0.79809 0.63146 0.86097 0.0
H1166 H 0.78813 0.45526 0.89417 0.0
H1167 H 0.77023 0.59584 0.8497 0.0
H1168 H 0.71873 0.54088 0.89464 0.0
H1169 H 0.74696 0.5743 0.88478 0.0
H1170 H 0.76549 0.42662 0.86007 0.0
H1171 H 0.7374 0.39349 0.87295 0.0
C1172 C 0.80631 0.51334 0.88998 0.0
C1173 C 0.80926 0.56357 0.88222 0.0
C1174 C 0.79013 0.49319 0.88511 0.0
C1175 C 0.77659 0.52266 0.87164 0.0
C1176 C 0.78005 0.57213 0.8612 0.0
C1177 C 0.7961 0.5925 0.86706 0.0
C1178 C 0.7288 0.51594 0.88614 0.0
C1179 C 0.72594 0.46474 0.88444 0.0
C1180 C 0.74508 0.53499 0.88036 0.0
C1181 C 0.75882 0.50328 0.87202 0.0
C1182 C 0.7555 0.45228 0.86755 0.0
C1183 C 0.73933 0.43322 0.87433 0.0
H1184 H 0.16112 0.08071 0.24904 0.0
H1185 H 0.12536 0.96663 0.28019 0.0
H1186 H 0.15998 0.05338 0.18155 0.0
H1187 H 0.1247 0.93809 0.21352 0.0
H1188 H 0.11316 0.93242 0.08442 0.0
H1189 H 0.11466 0.95869 0.15174 0.0
H1190 H 0.16794 0.98914 0.13826 0.0
H1191 H 0.16623 0.96465 0.07039 0.0
C1192 C 0.15312 0.04961 0.24152 0.0
C1193 C 0.14329 0.02601 0.26995 0.0
C1194 C 0.15253 0.03365 0.20286 0.0
C1195 C 0.14223 0.9934 0.19185 0.0
C1196 C 0.13253 0.96975 0.22055 0.0
C1197 C 0.13297 0.98602 0.25896 0.0
C1198 C 0.12523 0.94426 0.0959 0.0
C1199 C 0.13957 0.94645 0.07197 0.0
C1200 C 0.12612 0.95927 0.13466 0.0
C1201 C 0.14142 0.97634 0.15067 0.0
C1202 C 0.15586 0.97722 0.12688 0.0
C1203 C 0.15493 0.96266 0.088 0.0
H1204 H 0.3675 0.06381 0.07105 0.0
H1205 H 0.42095 0.09137 0.08371 0.0
H1206 H 0.36589 0.0392 0.13893 0.0
H1207 H 0.41952 0.06501 0.151 0.0
H1208 H 0.40938 0.05801 0.27967 0.0
H1209 H 0.40995 0.08658 0.21302 0.0
H1210 H 0.37347 0.97416 0.18197 0.0
H1211 H 0.37244 0.9468 0.24947 0.0
C1212 C 0.37891 0.06475 0.08836 0.0
C1213 C 0.39434 0.0797 0.07194 0.0
C1214 C 0.37802 0.05013 0.12724 0.0
C1215 C 0.39258 0.04971 0.15063 0.0
C1216 C 0.40797 0.06548 0.13423 0.0
C1217 C 0.40881 0.08053 0.09549 0.0
C1218 C 0.40149 0.03925 0.25865 0.0
C1219 C 0.39087 1.00005 0.2699 0.0
C1220 C 0.40187 0.05554 0.22025 0.0
C1221 C 0.39181 0.03269 0.19181 0.0
C1222 C 0.38121 0.99326 0.20308 0.0
C1223 C 0.38068 0.97728 0.24174 0.0
H1224 H 0.66094 0.94607 0.26092 0.0
H1225 H 0.62573 0.0615 0.22941 0.0
H1226 H 0.65989 0.97377 0.32833 0.0
H1227 H 0.62517 0.09036 0.29601 0.0
H1228 H 0.61359 0.09685 0.42527 0.0
H1229 H 0.615 0.07058 0.3579 0.0
H1230 H 0.66812 0.03775 0.3715 0.0
H1231 H 0.66649 0.06227 0.43936 0.0
C1232 C 0.65308 0.97756 0.26834 0.0
C1233 C 0.64337 1.00141 0.23982 0.0
C1234 C 0.65255 0.99372 0.30695 0.0
C1235 C 0.64243 0.03444 0.31786 0.0
C1236 C 0.63285 0.05837 0.28908 0.0
C1237 C 0.63324 0.0419 0.2507 0.0
C1238 C 0.62561 0.08451 0.41379 0.0
C1239 C 0.63992 0.08164 0.43777 0.0
C1240 C 0.62646 0.06949 0.37501 0.0
C1241 C 0.64168 0.05169 0.35902 0.0
C1242 C 0.6561 0.05021 0.38284 0.0
C1243 C 0.65521 0.06479 0.42173 0.0
H1244 H 0.9211 0.93851 0.42678 0.0
H1245 H 0.86753 0.96384 0.43977 0.0
H1246 H 0.91945 0.96455 0.35941 0.0
H1247 H 0.86571 0.98816 0.37187 0.0
H1248 H 0.8716 0.08035 0.26099 0.0
H1249 H 0.87289 0.05334 0.32856 0.0
H1250 H 0.90989 0.94235 0.29746 0.0
H1251 H 0.90905 0.97055 0.23071 0.0
C1252 C 0.9089 0.94881 0.41507 0.0
C1253 C 0.89445 0.94908 0.43873 0.0
C1254 C 0.90792 0.96368 0.37628 0.0
C1255 C 0.89244 0.97874 0.35996 0.0
C1256 C 0.87791 0.97779 0.38348 0.0
C1257 C 0.87892 0.96333 0.42239 0.0
C1258 C 0.88001 0.05023 0.26871 0.0
C1259 C 0.89026 0.02776 0.24049 0.0
C1260 C 0.88068 0.03446 0.30741 0.0
C1261 C 0.89152 0.99555 0.31871 0.0
C1262 C 0.90164 0.97299 0.29022 0.0
C1263 C 0.90109 0.98906 0.25176 0.0
H1264 H 0.90831 0.06214 0.73156 0.0
H1265 H 0.87294 0.94674 0.76203 0.0
H1266 H 0.90886 0.0901 0.79837 0.0
H1267 H 0.87399 0.97349 0.82969 0.0
H1268 H 0.86752 0.06091 0.94154 0.0
H1269 H 0.86587 0.03676 0.87358 0.0
H1270 H 0.91899 0.06953 0.85998 0.0
H1271 H 0.92042 0.09546 0.9274 0.0
C1272 C 0.90076 0.04235 0.75268 0.0
C1273 C 0.89059 1.00214 0.74144 0.0
C1274 C 0.90115 0.05828 0.79118 0.0
C1275 C 0.89154 0.03407 0.81977 0.0
C1276 C 0.88137 0.99364 0.80849 0.0
C1277 C 0.88084 0.97802 0.76973 0.0
C1278 C 0.8788 0.06347 0.92389 0.0
C1279 C 0.89409 0.08028 0.93992 0.0
C1280 C 0.8779 0.0491 0.88495 0.0
C1281 C 0.89231 0.05077 0.86107 0.0
C1282 C 0.90754 0.06835 0.87711 0.0
C1283 C 0.9084 0.08317 0.91592 0.0
H1284 H 0.66117 0.07959 0.7609 0.0
H1285 H 0.62557 0.96524 0.72941 0.0
H1286 H 0.66009 0.05182 0.82827 0.0
H1287 H 0.62498 0.93627 0.79597 0.0
H1288 H 0.6135 0.92986 0.92525 0.0
H1289 H 0.61494 0.9562 0.85791 0.0
H1290 H 0.66816 0.98757 0.87134 0.0
H1291 H 0.6665 0.963 0.93918 0.0
C1292 C 0.65322 0.04833 0.76831 0.0
C1293 C 0.64341 0.0248 0.73981 0.0
C1294 C 0.65267 0.03211 0.80691 0.0
C1295 C 0.64243 0.99166 0.81781 0.0
C1296 C 0.63276 0.96806 0.78904 0.0
C1297 C 0.63316 0.98458 0.75069 0.0
C1298 C 0.62555 0.94189 0.91373 0.0
C1299 C 0.63987 0.94435 0.93766 0.0
C1300 C 0.6264 0.95695 0.87497 0.0
C1301 C 0.64167 0.97436 0.85895 0.0
C1302 C 0.65611 0.97542 0.88272 0.0
C1303 C 0.6552 0.96081 0.92159 0.0
H1304 H 0.36362 0.04292 0.75983 0.0
H1305 H 0.4177 0.02367 0.76625 0.0
H1306 H 0.36393 1.01316 0.6931 0.0
H1307 H 0.41815 0.99589 0.69924 0.0
H1308 H 0.41294 0.90527 0.58995 0.0
H1309 H 0.41109 0.92928 0.65801 0.0
H1310 H 0.37183 0.03457 0.62957 0.0
H1311 H 0.37322 1.00913 0.56217 0.0
C1312 C 0.3756 0.03284 0.74686 0.0
C1313 C 0.39062 0.03558 0.76842 0.0
C1314 C 0.3758 0.01589 0.70849 0.0
C1315 C 0.39107 1.00176 0.69059 0.0
C1316 C 0.4061 1.00529 0.71214 0.0
C1317 C 0.40587 0.02173 0.75056 0.0
C1318 C 0.40379 0.93313 0.59838 0.0
C1319 C 0.39325 0.95527 0.57058 0.0
C1320 C 0.40282 0.94728 0.63738 0.0
C1321 C 0.3914 0.98431 0.64948 0.0
C1322 C 0.38062 1.00553 0.62166 0.0
C1323 C 0.38147 0.99103 0.58282 0.0
H1324 H 0.11431 0.09494 0.58626 0.0
H1325 H 0.16765 0.06556 0.57357 0.0
H1326 H 0.11565 0.06867 0.6536 0.0
H1327 H 0.16917 0.04097 0.64144 0.0
H1328 H 0.16217 0.9478 0.75147 0.0
H1329 H 0.16128 0.97581 0.68414 0.0
H1330 H 0.12533 0.08946 0.7158 0.0
H1331 H 0.12576 0.06031 0.78233 0.0
C1332 C 0.1264 0.08374 0.59804 0.0
C1333 C 0.14086 0.08232 0.57445 0.0
C1334 C 0.1272 0.06872 0.63681 0.0
C1335 C 0.14252 0.05236 0.65317 0.0
C1336 C 0.15708 0.05233 0.62977 0.0
C1337 C 0.15625 0.06695 0.59089 0.0
C1338 C 0.15408 0.97871 0.74393 0.0
C1339 C 0.144 1.00166 0.77224 0.0
C1340 C 0.15363 0.99506 0.70536 0.0
C1341 C 0.14321 0.03503 0.6943 0.0
C1342 C 0.13326 0.05805 0.72287 0.0
C1343 C 0.13358 0.04142 0.7612 0.0
H1344 H 0.67093 0.54312 0.25988 0.0
H1345 H 0.61691 0.5225 0.26617 0.0
H1346 H 0.67075 0.51353 0.19309 0.0
H1347 H 0.61658 0.49484 0.19914 0.0
H1348 H 0.62215 0.40433 0.08994 0.0
H1349 H 0.62395 0.42825 0.15801 0.0
H1350 H 0.66273 0.53499 0.12952 0.0
H1351 H 0.66138 0.50968 0.06206 0.0
C1352 C 0.65899 0.53276 0.24687 0.0
C1353 C 0.64394 0.53507 0.26841 0.0
C1354 C 0.65886 0.51591 0.20848 0.0
C1355 C 0.64365 0.50141 0.19055 0.0
C1356 C 0.62859 0.50452 0.21207 0.0
C1357 C 0.62875 0.5209 0.25051 0.0
C1358 C 0.63119 0.43248 0.09835 0.0
C1359 C 0.64159 0.4551 0.07052 0.0
C1360 C 0.63213 0.44658 0.13736 0.0
C1361 C 0.64339 0.484 0.14943 0.0
C1362 C 0.65406 0.50566 0.1216 0.0
C1363 C 0.65323 0.49124 0.08274 0.0
H1364 H 0.86448 0.4866 0.26097 0.0
H1365 H 0.91852 0.50679 0.26708 0.0
H1366 H 0.86464 0.51652 0.19428 0.0
H1367 H 0.91883 0.53475 0.20011 0.0
H1368 H 0.91332 0.62522 0.0908 0.0
H1369 H 0.91159 0.60123 0.15889 0.0
H1370 H 0.8725 0.49535 0.13068 0.0
H1371 H 0.87379 0.52073 0.06326 0.0
C1372 C 0.87642 0.49693 0.24794 0.0
C1373 C 0.89148 0.49438 0.26941 0.0
C1374 C 0.87654 0.51397 0.20959 0.0
C1375 C 0.89175 0.52842 0.1916 0.0
C1376 C 0.90682 0.52511 0.21307 0.0
C1377 C 0.90667 0.50856 0.25147 0.0
C1378 C 0.90423 0.59724 0.09928 0.0
C1379 C 0.89373 0.5749 0.07153 0.0
C1380 C 0.90333 0.5831 0.1383 0.0
C1381 C 0.892 0.5459 0.15048 0.0
C1382 C 0.88123 0.52451 0.12272 0.0
C1383 C 0.88202 0.53898 0.08385 0.0
H1384 H 0.11449 0.59451 0.42535 0.0
H1385 H 0.1679 0.56649 0.43836 0.0
H1386 H 0.116 0.56827 0.35801 0.0
H1387 H 0.16959 0.54198 0.37048 0.0
H1388 H 0.16305 0.44892 0.26021 0.0
H1389 H 0.16201 0.4768 0.32758 0.0
H1390 H 0.12567 0.58938 0.29593 0.0
H1391 H 0.12625 0.56031 0.22939 0.0
C1392 C 0.12664 0.58362 0.41364 0.0
C1393 C 0.14107 0.58258 0.43731 0.0
C1394 C 0.12753 0.56863 0.37487 0.0
C1395 C 0.14292 0.55269 0.35858 0.0
C1396 C 0.15745 0.55301 0.38208 0.0
C1397 C 0.15652 0.56759 0.42097 0.0
C1398 C 0.15484 0.47958 0.26777 0.0
C1399 C 0.14469 0.50222 0.23947 0.0
C1400 C 0.15431 0.49584 0.30636 0.0
C1401 C 0.14373 0.53546 0.31744 0.0
C1402 C 0.13372 0.55822 0.28886 0.0
C1403 C 0.13412 0.54165 0.25052 0.0
H1404 H 0.40882 0.46402 0.22942 0.0
H1405 H 0.37374 0.57993 0.26063 0.0
H1406 H 0.40928 0.43531 0.29605 0.0
H1407 H 0.37468 0.5524 0.32808 0.0
H1408 H 0.36797 0.46444 0.43936 0.0
H1409 H 0.36637 0.48871 0.37144 0.0
H1410 H 0.41945 0.45522 0.35786 0.0
H1411 H 0.42082 0.4292 0.42527 0.0
C1412 C 0.40131 0.48375 0.25065 0.0
C1413 C 0.39125 0.52434 0.23968 0.0
C1414 C 0.40164 0.46738 0.28905 0.0
C1415 C 0.39208 0.4915 0.31777 0.0
C1416 C 0.38202 0.5323 0.30676 0.0
C1417 C 0.38155 0.54837 0.26812 0.0
C1418 C 0.37925 0.46172 0.42172 0.0
C1419 C 0.39452 0.44477 0.43777 0.0
C1420 C 0.37838 0.47616 0.3828 0.0
C1421 C 0.3928 0.47441 0.35897 0.0
C1422 C 0.408 0.45651 0.37498 0.0
C1423 C 0.40882 0.44163 0.41378 0.0
H1424 H 0.40895 0.56241 0.72938 0.0
H1425 H 0.37355 0.44756 0.76101 0.0
H1426 H 0.40956 0.5913 0.79597 0.0
H1427 H 0.37466 0.47526 0.82841 0.0
H1428 H 0.36831 0.56375 0.93951 0.0
H1429 H 0.36657 0.5394 0.87162 0.0
H1430 H 0.41975 0.57117 0.85775 0.0
H1431 H 0.42128 0.59729 0.92513 0.0
C1432 C 0.4014 0.54295 0.7507 0.0
C1433 C 0.39121 0.50261 0.73987 0.0
C1434 C 0.40183 0.55943 0.78906 0.0
C1435 C 0.39222 0.53565 0.81787 0.0
C1436 C 0.38203 0.49509 0.80701 0.0
C1437 C 0.38146 0.47893 0.76841 0.0
C1438 C 0.37958 0.56608 0.92181 0.0
C1439 C 0.39493 0.58257 0.93776 0.0
C1440 C 0.37863 0.5516 0.88291 0.0
C1441 C 0.39303 0.55284 0.85902 0.0
C1442 C 0.40831 0.57029 0.87493 0.0
C1443 C 0.40922 0.58521 0.91371 0.0
H1444 H 0.1615 0.58044 0.76237 0.0
H1445 H 0.12581 0.46591 0.73183 0.0
H1446 H 0.16045 0.55347 0.82996 0.0
H1447 H 0.12525 0.43772 0.79858 0.0
H1448 H 0.11377 0.4325 0.92765 0.0
H1449 H 0.11521 0.45855 0.86027 0.0
H1450 H 0.16846 0.48967 0.87355 0.0
H1451 H 0.1668 0.46542 0.94149 0.0
C1452 C 0.15353 0.54931 0.77005 0.0
C1453 C 0.14369 0.5255 0.74176 0.0
C1454 C 0.153 0.53356 0.80876 0.0
C1455 C 0.14274 0.4933 0.81998 0.0
C1456 C 0.13304 0.4694 0.79141 0.0
C1457 C 0.13342 0.48547 0.75295 0.0
C1458 C 0.12583 0.44445 0.91611 0.0
C1459 C 0.14016 0.44688 0.94001 0.0
C1460 C 0.12669 0.45933 0.87732 0.0
C1461 C 0.14196 0.47649 0.86123 0.0
C1462 C 0.1564 0.47766 0.88499 0.0
C1463 C 0.1555 0.46323 0.92391 0.0
H1464 H 0.908 0.46488 0.78249 0.0
H1465 H 0.87331 0.58179 0.75128 0.0
H1466 H 0.90855 0.43655 0.71576 0.0
H1467 H 0.87437 0.55466 0.68373 0.0
H1468 H 0.86787 0.46789 0.57181 0.0
H1469 H 0.86607 0.49163 0.63983 0.0
H1470 H 0.91899 0.45667 0.65428 0.0
H1471 H 0.92055 0.43116 0.58677 0.0
C1472 C 0.90059 0.4849 0.76124 0.0
C1473 C 0.89062 0.52567 0.77223 0.0
C1474 C 0.90098 0.46875 0.72278 0.0
C1475 C 0.89157 0.4933 0.69402 0.0
C1476 C 0.88158 0.53424 0.70507 0.0
C1477 C 0.88105 0.55008 0.74376 0.0
C1478 C 0.87907 0.46474 0.58966 0.0
C1479 C 0.89435 0.44752 0.57383 0.0
C1480 C 0.87808 0.47887 0.62865 0.0
C1481 C 0.8924 0.47653 0.65275 0.0
C1482 C 0.90761 0.45839 0.63695 0.0
C1483 C 0.90854 0.44382 0.59809 0.0
H1484 H 0.66135 0.51708 0.56197 0.0
H1485 H 0.62177 0.62129 0.59002 0.0
H1486 H 0.66282 0.49173 0.62941 0.0
H1487 H 0.62368 0.59735 0.65807 0.0
H1488 H 0.61699 0.50276 0.76614 0.0
H1489 H 0.61655 0.53048 0.69913 0.0
H1490 H 0.67078 0.51336 0.69299 0.0
H1491 H 0.67108 0.48371 0.75977 0.0
C1492 C 0.65315 0.53527 0.58268 0.0
C1493 C 0.64138 0.57109 0.57052 0.0
C1494 C 0.65404 0.52082 0.62153 0.0
C1495 C 0.6433 0.54215 0.6494 0.0
C1496 C 0.63191 0.57926 0.63738 0.0
C1497 C 0.63091 0.59338 0.59839 0.0
C1498 C 0.62883 0.50472 0.75046 0.0
C1499 C 0.64407 0.49097 0.76834 0.0
C1500 C 0.6286 0.52113 0.71204 0.0
C1501 C 0.64364 0.5247 0.6905 0.0
C1502 C 0.6589 0.51062 0.7084 0.0
C1503 C 0.6591 0.49373 0.74678 0.0
H1504 H 0.17155 0.26603 0.14383 0.0
H1505 H 0.14092 0.37764 0.19917 0.0
H1506 H 0.17594 0.22546 0.20643 0.0
H1507 H 0.14635 0.33904 0.26223 0.0
H1508 H 0.1718 0.26119 0.37012 0.0
H1509 H 0.17614 0.30254 0.30782 0.0
H1510 H 0.14581 0.1911 0.25159 0.0
H1511 H 0.14039 0.15178 0.3144 0.0
C1512 C 0.16651 0.28341 0.16968 0.0
C1513 C 0.15629 0.32596 0.16676 0.0
C1514 C 0.16894 0.25994 0.20534 0.0
C1515 C 0.16148 0.27919 0.2389 0.0
C1516 C 0.15241 0.32394 0.23666 0.0
C1517 C 0.14962 0.34678 0.20073 0.0
C1518 C 0.16648 0.24458 0.34427 0.0
C1519 C 0.15611 0.20231 0.34699 0.0
C1520 C 0.16892 0.26846 0.30876 0.0
C1521 C 0.16133 0.24989 0.27514 0.0
C1522 C 0.15197 0.20564 0.2772 0.0
C1523 C 0.14918 0.18242 0.31298 0.0
H1524 H 0.36315 0.76501 0.3693 0.0
H1525 H 0.39419 0.87564 0.31394 0.0
H1526 H 0.35909 0.7236 0.30691 0.0
H1527 H 0.38905 0.83625 0.25106 0.0
H1528 H 0.39506 0.65014 0.19869 0.0
H1529 H 0.38926 0.68847 0.2617 0.0
H1530 H 0.35916 0.80059 0.20557 0.0
H1531 H 0.36394 0.76024 0.14301 0.0
C1532 C 0.36842 0.78188 0.3435 0.0
C1533 C 0.37862 0.8245 0.34635 0.0
C1534 C 0.36616 0.75797 0.30795 0.0
C1535 C 0.37374 0.77686 0.27442 0.0
C1536 C 0.38289 0.82146 0.2766 0.0
C1537 C 0.38552 0.84472 0.31242 0.0
C1538 C 0.38619 0.68058 0.20016 0.0
C1539 C 0.37948 0.70108 0.16613 0.0
C1540 C 0.38318 0.70327 0.23606 0.0
C1541 C 0.37384 0.74755 0.2382 0.0
C1542 C 0.36636 0.76646 0.20456 0.0
C1543 C 0.36902 0.74313 0.16892 0.0
H1544 H 0.63992 0.65182 0.31472 0.0
H1545 H 0.6725 0.75931 0.36901 0.0
H1546 H 0.64486 0.69115 0.25176 0.0
H1547 H 0.6764 0.80085 0.30655 0.0
H1548 H 0.67061 0.76565 0.14313 0.0
H1549 H 0.67551 0.7254 0.20567 0.0
H1550 H 0.64541 0.83735 0.26202 0.0
H1551 H 0.63951 0.87566 0.19904 0.0
C1552 C 0.64889 0.68192 0.31287 0.0
C1553 C 0.65631 0.70122 0.34654 0.0
C1554 C 0.6514 0.70522 0.27704 0.0
C1555 C 0.66097 0.74902 0.27458 0.0
C1556 C 0.66903 0.76706 0.30781 0.0
C1557 C 0.66686 0.74306 0.34338 0.0
C1558 C 0.66556 0.78276 0.16908 0.0
C1559 C 0.65508 0.82476 0.16637 0.0
C1560 C 0.66829 0.7595 0.20471 0.0
C1561 C 0.66085 0.7784 0.23841 0.0
C1562 C 0.65146 0.82259 0.23634 0.0
C1563 C 0.6484 0.84524 0.20045 0.0
H1564 H 0.86264 0.26184 0.14334 0.0
H1565 H 0.89361 0.15184 0.19956 0.0
H1566 H 0.85813 0.30319 0.20563 0.0
H1567 H 0.88809 0.19121 0.26229 0.0
H1568 H 0.895 0.3767 0.31292 0.0
H1569 H 0.88905 0.33744 0.25038 0.0
H1570 H 0.85772 0.2292 0.30754 0.0
H1571 H 0.86267 0.27069 0.36963 0.0
C1572 C 0.86772 0.24494 0.16934 0.0
C1573 C 0.87808 0.20265 0.16675 0.0
C1574 C 0.86522 0.26884 0.20482 0.0
C1575 C 0.87275 0.25028 0.23852 0.0
C1576 C 0.88196 0.20575 0.23662 0.0
C1577 C 0.88481 0.18246 0.20088 0.0
C1578 C 0.88581 0.34711 0.31171 0.0
C1579 C 0.87877 0.32811 0.34591 0.0
C1580 C 0.88273 0.3238 0.2761 0.0
C1581 C 0.87297 0.28029 0.2744 0.0
C1582 C 0.86522 0.26278 0.30819 0.0
C1583 C 0.86796 0.28679 0.34355 0.0
H1584 H 0.86403 0.76532 0.64107 0.0
H1585 H 0.89421 0.87742 0.69709 0.0
H1586 H 0.85985 0.7239 0.70341 0.0
H1587 H 0.88891 0.83804 0.7599 0.0
H1588 H 0.8643 0.76239 0.86781 0.0
H1589 H 0.85966 0.80259 0.80516 0.0
H1590 H 0.88911 0.68883 0.74918 0.0
H1591 H 0.89479 0.65062 0.81228 0.0
C1592 C 0.86909 0.78248 0.66698 0.0
C1593 C 0.87907 0.82556 0.66433 0.0
C1594 C 0.86675 0.75856 0.70251 0.0
C1595 C 0.87403 0.77789 0.73624 0.0
C1596 C 0.88297 0.82288 0.73421 0.0
C1597 C 0.88569 0.84614 0.69842 0.0
C1598 C 0.86926 0.7449 0.84192 0.0
C1599 C 0.87951 0.70241 0.84479 0.0
C1600 C 0.86669 0.76816 0.80622 0.0
C1601 C 0.87402 0.74874 0.77257 0.0
C1602 C 0.88314 0.70405 0.77481 0.0
C1603 C 0.88608 0.68143 0.81077 0.0
H1604 H 0.6731 0.26739 0.86867 0.0
H1605 H 0.64016 0.37417 0.81459 0.0
H1606 H 0.67695 0.22574 0.80623 0.0
H1607 H 0.64503 0.3347 0.75163 0.0
H1608 H 0.63982 0.15061 0.69881 0.0
H1609 H 0.64562 0.18909 0.76178 0.0
H1610 H 0.67604 0.30035 0.70557 0.0
H1611 H 0.67121 0.25995 0.64304 0.0
C1612 C 0.66736 0.28346 0.84308 0.0
C1613 C 0.65673 0.32513 0.84629 0.0
C1614 C 0.6695 0.2594 0.80752 0.0
C1615 C 0.66132 0.27718 0.77436 0.0
C1616 C 0.65166 0.32081 0.77686 0.0
C1617 C 0.64918 0.3442 0.81268 0.0
C1618 C 0.64874 0.18091 0.70026 0.0
C1619 C 0.65553 0.20116 0.66621 0.0
C1620 C 0.65176 0.20366 0.73613 0.0
C1621 C 0.66122 0.24771 0.73823 0.0
C1622 C 0.66877 0.26636 0.70458 0.0
C1623 C 0.66608 0.24301 0.66896 0.0
H1624 H 0.39478 0.37683 0.69893 0.0
H1625 H 0.36322 0.26753 0.64365 0.0
H1626 H 0.38906 0.33858 0.76201 0.0
H1627 H 0.35848 0.22731 0.70628 0.0
H1628 H 0.36243 0.26105 0.86967 0.0
H1629 H 0.35834 0.30283 0.80739 0.0
H1630 H 0.38912 0.19212 0.75149 0.0
H1631 H 0.39428 0.15253 0.81426 0.0
C1632 C 0.38584 0.3466 0.70052 0.0
C1633 C 0.37898 0.32629 0.66657 0.0
C1634 C 0.38286 0.32397 0.73646 0.0
C1635 C 0.37339 0.27996 0.73872 0.0
C1636 C 0.36577 0.26126 0.70518 0.0
C1637 C 0.3684 0.28451 0.6695 0.0
C1638 C 0.36786 0.24464 0.84385 0.0
C1639 C 0.37826 0.20241 0.84663 0.0
C1640 C 0.36558 0.26878 0.80838 0.0
C1641 C 0.37337 0.25051 0.77487 0.0
C1642 C 0.38278 0.20637 0.77699 0.0
C1643 C 0.38541 0.18292 0.81272 0.0
H1644 H 0.17255 0.75976 0.64248 0.0
H1645 H 0.14036 0.65086 0.6965 0.0
H1646 H 0.17633 0.80102 0.70501 0.0
H1647 H 0.1452 0.6901 0.75957 0.0
H1648 H 0.17001 0.76468 0.86864 0.0
H1649 H 0.17497 0.72403 0.80627 0.0
H1650 H 0.14607 0.83793 0.74901 0.0
H1651 H 0.14008 0.87662 0.81179 0.0
C1652 C 0.16694 0.74323 0.66803 0.0
C1653 C 0.1565 0.70117 0.66474 0.0
C1654 C 0.16905 0.76706 0.70366 0.0
C1655 C 0.16107 0.74863 0.73686 0.0
C1656 C 0.15166 0.70454 0.7343 0.0
C1657 C 0.14918 0.68137 0.69838 0.0
C1658 C 0.16525 0.78209 0.84254 0.0
C1659 C 0.15507 0.82477 0.84493 0.0
C1660 C 0.168 0.75859 0.80701 0.0
C1661 C 0.1609 0.77793 0.77309 0.0
C1662 C 0.15186 0.82277 0.77487 0.0
C1663 C 0.14875 0.84566 0.81066 0.0
loop_
_geom_bond_atom_site_label_1
_geom_bond_atom_site_label_2
_geom_bond_distance
_geom_bond_site_symmetry_2
_ccdc_geom_bond_type
Zn0 N4 2.020 . S
Zn0 O8 2.019 . S
Zn0 N10 2.119 . S
Zn0 O18 1.975 1_545 S
C1 N2 1.334 . S
C1 N5 1.336 . S
N2 C1 1.334 . S
N2 C3 1.334 . S
C3 N2 1.334 . S
C3 N4 1.336 . S
N4 Zn0 2.020 . S
N4 C3 1.336 . S
N4 N5 1.354 . S
N5 C1 1.336 . S
N5 N4 1.354 . S
N5 Zn9 2.020 . S
C6 O7 1.244 . S
C6 O30 1.257 1_545 S
O7 C6 1.244 . S
O8 Zn0 2.019 . S
O8 C28 1.257 . S
Zn9 N5 2.020 . S
Zn9 O16 1.975 1_545 S
Zn9 N25 2.119 . S
Zn9 O30 2.019 1_545 S
N10 Zn0 2.119 . S
N10 C12 1.334 . S
N10 C13 1.328 . S
C11 C12 1.391 . S
C11 N14 1.329 . S
C11 H32 0.930 1_545 S
C12 N10 1.334 . S
C12 C11 1.391 . S
C12 H19 0.930 . S
C13 N10 1.328 . S
C13 C15 1.392 . S
C13 H20 0.930 . S
N14 C11 1.329 . S
N14 C15 1.331 . S
C15 C13 1.392 . S
C15 N14 1.331 . S
O16 Zn9 1.975 1_565 S
O16 C17 1.252 . S
C17 O16 1.252 . S
C17 O18 1.252 . S
O18 Zn0 1.975 1_565 S
O18 C17 1.252 . S
H19 C12 0.930 . S
H20 C13 0.930 . S
C21 C22 1.392 . S
C21 N25 1.328 . S
C21 H27 0.930 . S
C22 C21 1.392 . S
C22 N26 1.331 . S
C23 C24 1.391 . S
C23 N26 1.329 . S
C23 H33 0.930 . S
C24 C23 1.391 . S
C24 N25 1.334 . S
C24 H31 0.930 . S
N25 Zn9 2.119 . S
N25 C21 1.328 . S
N25 C24 1.334 . S
N26 C22 1.331 . S
N26 C23 1.329 . S
H27 C21 0.930 . S
C28 O8 1.257 . S
C28 O29 1.244 . S
O29 C28 1.244 . S
O30 C6 1.257 1_565 S
O30 Zn9 2.019 1_565 S
H31 C24 0.930 . S
H32 C11 0.930 1_565 S
H33 C23 0.930 . S
Zn34 N38 2.020 . S
Zn34 O42 2.019 . S
Zn34 N44 2.119 . S
Zn34 O52 1.975 1_565 S
C35 N36 1.334 . S
C35 N39 1.336 . S
N36 C35 1.334 . S
N36 C37 1.334 . S
C37 N36 1.334 . S
C37 N38 1.336 . S
N38 Zn34 2.020 . S
N38 C37 1.336 . S
N38 N39 1.354 . S
N39 C35 1.336 . S
N39 N38 1.354 . S
N39 Zn43 2.020 . S
C40 O41 1.244 . S
C40 O64 1.257 1_565 S
O41 C40 1.244 . S
O42 Zn34 2.019 . S
O42 C62 1.257 . S
Zn43 N39 2.020 . S
Zn43 O50 1.975 1_565 S
Zn43 N59 2.119 . S
Zn43 O64 2.019 1_565 S
N44 Zn34 2.119 . S
N44 C46 1.334 . S
N44 C47 1.328 . S
C45 C46 1.391 . S
C45 N48 1.329 . S
C45 H66 0.930 1_565 S
C46 N44 1.334 . S
C46 C45 1.391 . S
C46 H53 0.930 . S
C47 N44 1.328 . S
C47 C49 1.392 . S
C47 H54 0.930 . S
N48 C45 1.329 . S
N48 C49 1.331 . S
C49 C47 1.392 . S
C49 N48 1.331 . S
O50 Zn43 1.975 1_545 S
O50 C51 1.252 . S
C51 O50 1.252 . S
C51 O52 1.252 . S
O52 Zn34 1.975 1_545 S
O52 C51 1.252 . S
H53 C46 0.930 . S
H54 C47 0.930 . S
C55 C56 1.392 . S
C55 N59 1.328 . S
C55 H61 0.930 . S
C56 C55 1.392 . S
C56 N60 1.331 . S
C57 C58 1.391 . S
C57 N60 1.329 . S
C57 H67 0.930 . S
C58 C57 1.391 . S
C58 N59 1.334 . S
C58 H65 0.930 . S
N59 Zn43 2.119 . S
N59 C55 1.328 . S
N59 C58 1.334 . S
N60 C56 1.331 . S
N60 C57 1.329 . S
H61 C55 0.930 . S
C62 O42 1.257 . S
C62 O63 1.244 . S
O63 C62 1.244 . S
O64 C40 1.257 1_545 S
O64 Zn43 2.019 1_545 S
H65 C58 0.930 . S
H66 C45 0.930 1_545 S
H67 C57 0.930 . S
Zn68 N72 2.020 . S
Zn68 O76 2.019 1_554 S
Zn68 N78 2.119 . S
Zn68 O86 1.975 1_565 S
C69 N70 1.334 . S
C69 N73 1.336 . S
N70 C69 1.334 . S
N70 C71 1.334 . S
C71 N70 1.334 . S
C71 N72 1.336 . S
N72 Zn68 2.020 . S
N72 C71 1.336 . S
N72 N73 1.354 . S
N73 C69 1.336 . S
N73 N72 1.354 . S
N73 Zn77 2.020 . S
C74 O75 1.244 . S
C74 O98 1.257 1_565 S
O75 C74 1.244 . S
O76 Zn68 2.019 1_556 S
O76 C96 1.257 . S
Zn77 N73 2.020 . S
Zn77 O84 1.975 1_565 S
Zn77 N93 2.119 . S
Zn77 O98 2.019 1_565 S
N78 Zn68 2.119 . S
N78 C80 1.334 . S
N78 C81 1.328 . S
C79 C80 1.391 . S
C79 N82 1.329 . S
C79 H100 0.930 1_565 S
C80 N78 1.334 . S
C80 C79 1.391 . S
C80 H87 0.930 . S
C81 N78 1.328 . S
C81 C83 1.392 . S
C81 H88 0.930 . S
N82 C79 1.329 . S
N82 C83 1.331 . S
C83 C81 1.392 . S
C83 N82 1.331 . S
O84 Zn77 1.975 1_545 S
O84 C85 1.252 . S
C85 O84 1.252 . S
C85 O86 1.252 . S
O86 Zn68 1.975 1_545 S
O86 C85 1.252 . S
H87 C80 0.930 . S
H88 C81 0.930 . S
C89 C90 1.392 . S
C89 N93 1.328 . S
C89 H95 0.930 . S
C90 C89 1.392 . S
C90 N94 1.331 . S
C91 C92 1.391 . S
C91 N94 1.329 . S
C91 H101 0.930 . S
C92 C91 1.391 . S
C92 N93 1.334 . S
C92 H99 0.930 . S
N93 Zn77 2.119 . S
N93 C89 1.328 . S
N93 C92 1.334 . S
N94 C90 1.331 . S
N94 C91 1.329 . S
H95 C89 0.930 . S
C96 O76 1.257 . S
C96 O97 1.244 . S
O97 C96 1.244 . S
O98 C74 1.257 1_545 S
O98 Zn77 2.019 1_545 S
H99 C92 0.930 . S
H100 C79 0.930 1_545 S
H101 C91 0.930 . S
Zn102 N106 2.020 . S
Zn102 O110 2.019 1_554 S
Zn102 N112 2.119 . S
Zn102 O120 1.975 1_545 S
C103 N104 1.334 . S
C103 N107 1.336 . S
N104 C103 1.334 . S
N104 C105 1.334 . S
C105 N104 1.334 . S
C105 N106 1.336 . S
N106 Zn102 2.020 . S
N106 C105 1.336 . S
N106 N107 1.354 . S
N107 C103 1.336 . S
N107 N106 1.354 . S
N107 Zn111 2.020 . S
C108 O109 1.244 . S
C108 O132 1.257 1_545 S
O109 C108 1.244 . S
O110 Zn102 2.019 1_556 S
O110 C130 1.257 . S
Zn111 N107 2.020 . S
Zn111 O118 1.975 1_545 S
Zn111 N127 2.119 . S
Zn111 O132 2.019 1_545 S
N112 Zn102 2.119 . S
N112 C114 1.334 . S
N112 C115 1.328 . S
C113 C114 1.391 . S
C113 N116 1.329 . S
C113 H134 0.930 1_545 S
C114 N112 1.334 . S
C114 C113 1.391 . S
C114 H121 0.930 . S
C115 N112 1.328 . S
C115 C117 1.392 . S
C115 H122 0.930 . S
N116 C113 1.329 . S
N116 C117 1.331 . S
C117 C115 1.392 . S
C117 N116 1.331 . S
O118 Zn111 1.975 1_565 S
O118 C119 1.252 . S
C119 O118 1.252 . S
C119 O120 1.252 . S
O120 Zn102 1.975 1_565 S
O120 C119 1.252 . S
H121 C114 0.930 . S
H122 C115 0.930 . S
C123 C124 1.392 . S
C123 N127 1.328 . S
C123 H129 0.930 . S
C124 C123 1.392 . S
C124 N128 1.331 . S
C125 C126 1.391 . S
C125 N128 1.329 . S
C125 H135 0.930 . S
C126 C125 1.391 . S
C126 N127 1.334 . S
C126 H133 0.930 . S
N127 Zn111 2.119 . S
N127 C123 1.328 . S
N127 C126 1.334 . S
N128 C124 1.331 . S
N128 C125 1.329 . S
H129 C123 0.930 . S
C130 O110 1.257 . S
C130 O131 1.244 . S
O131 C130 1.244 . S
O132 C108 1.257 1_565 S
O132 Zn111 2.019 1_565 S
H133 C126 0.930 . S
H134 C113 0.930 1_565 S
H135 C125 0.930 . S
Zn136 N140 2.020 . S
Zn136 O144 2.019 . S
Zn136 N146 2.119 . S
Zn136 O154 1.975 1_565 S
C137 N138 1.334 . S
C137 N141 1.336 . S
N138 C137 1.334 . S
N138 C139 1.334 . S
C139 N138 1.334 . S
C139 N140 1.336 . S
N140 Zn136 2.020 . S
N140 C139 1.336 . S
N140 N141 1.354 . S
N141 C137 1.336 . S
N141 N140 1.354 . S
N141 Zn145 2.020 . S
C142 O143 1.244 . S
C142 O166 1.257 1_565 S
O143 C142 1.244 . S
O144 Zn136 2.019 . S
O144 C164 1.257 . S
Zn145 N141 2.020 . S
Zn145 O152 1.975 1_565 S
Zn145 N161 2.119 . S
Zn145 O166 2.019 1_565 S
N146 Zn136 2.119 . S
N146 C148 1.334 . S
N146 C149 1.328 . S
C147 C148 1.391 . S
C147 N150 1.329 . S
C147 H168 0.930 1_565 S
C148 N146 1.334 . S
C148 C147 1.391 . S
C148 H155 0.930 . S
C149 N146 1.328 . S
C149 C151 1.392 . S
C149 H156 0.930 . S
N150 C147 1.329 . S
N150 C151 1.331 . S
C151 C149 1.392 . S
C151 N150 1.331 . S
O152 Zn145 1.975 1_545 S
O152 C153 1.252 . S
C153 O152 1.252 . S
C153 O154 1.252 . S
O154 Zn136 1.975 1_545 S
O154 C153 1.252 . S
H155 C148 0.930 . S
H156 C149 0.930 . S
C157 C158 1.392 . S
C157 N161 1.328 . S
C157 H163 0.930 . S
C158 C157 1.392 . S
C158 N162 1.331 . S
C159 C160 1.391 . S
C159 N162 1.329 . S
C159 H169 0.930 . S
C160 C159 1.391 . S
C160 N161 1.334 . S
C160 H167 0.930 . S
N161 Zn145 2.119 . S
N161 C157 1.328 . S
N161 C160 1.334 . S
N162 C158 1.331 . S
N162 C159 1.329 . S
H163 C157 0.930 . S
C164 O144 1.257 . S
C164 O165 1.244 . S
O165 C164 1.244 . S
O166 C142 1.257 1_545 S
O166 Zn145 2.019 1_545 S
H167 C160 0.930 . S
H168 C147 0.930 1_545 S
H169 C159 0.930 . S
Zn170 N174 2.020 . S
Zn170 O178 2.019 . S
Zn170 N180 2.119 . S
Zn170 O188 1.975 1_545 S
C171 N172 1.334 . S
C171 N175 1.336 . S
N172 C171 1.334 . S
N172 C173 1.334 . S
C173 N172 1.334 . S
C173 N174 1.336 . S
N174 Zn170 2.020 . S
N174 C173 1.336 . S
N174 N175 1.354 . S
N175 C171 1.336 . S
N175 N174 1.354 . S
N175 Zn179 2.020 . S
C176 O177 1.244 . S
C176 O200 1.257 1_545 S
O177 C176 1.244 . S
O178 Zn170 2.019 . S
O178 C198 1.257 . S
Zn179 N175 2.020 . S
Zn179 O186 1.975 1_545 S
Zn179 N195 2.119 . S
Zn179 O200 2.019 1_545 S
N180 Zn170 2.119 . S
N180 C182 1.334 . S
N180 C183 1.328 . S
C181 C182 1.391 . S
C181 N184 1.329 . S
C181 H202 0.930 1_545 S
C182 N180 1.334 . S
C182 C181 1.391 . S
C182 H189 0.930 . S
C183 N180 1.328 . S
C183 C185 1.392 . S
C183 H190 0.930 . S
N184 C181 1.329 . S
N184 C185 1.331 . S
C185 C183 1.392 . S
C185 N184 1.331 . S
O186 Zn179 1.975 1_565 S
O186 C187 1.252 . S
C187 O186 1.252 . S
C187 O188 1.252 . S
O188 Zn170 1.975 1_565 S
O188 C187 1.252 . S
H189 C182 0.930 . S
H190 C183 0.930 . S
C191 C192 1.392 . S
C191 N195 1.328 . S
C191 H197 0.930 . S
C192 C191 1.392 . S
C192 N196 1.331 . S
C193 C194 1.391 . S
C193 N196 1.329 . S
C193 H203 0.930 . S
C194 C193 1.391 . S
C194 N195 1.334 . S
C194 H201 0.930 . S
N195 Zn179 2.119 . S
N195 C191 1.328 . S
N195 C194 1.334 . S
N196 C192 1.331 . S
N196 C193 1.329 . S
H197 C191 0.930 . S
C198 O178 1.257 . S
C198 O199 1.244 . S
O199 C198 1.244 . S
O200 C176 1.257 1_565 S
O200 Zn179 2.019 1_565 S
H201 C194 0.930 . S
H202 C181 0.930 1_565 S
H203 C193 0.930 . S
Zn204 N208 2.020 . S
Zn204 O212 2.019 1_545 S
Zn204 N214 2.119 . S
Zn204 O222 1.975 1_545 S
C205 N206 1.334 . S
C205 N209 1.336 . S
N206 C205 1.334 . S
N206 C207 1.334 . S
C207 N206 1.334 . S
C207 N208 1.336 . S
N208 Zn204 2.020 . S
N208 C207 1.336 . S
N208 N209 1.354 . S
N209 C205 1.336 . S
N209 N208 1.354 . S
N209 Zn213 2.020 . S
C210 O211 1.244 . S
C210 O234 1.257 . S
O211 C210 1.244 . S
O212 Zn204 2.019 1_565 S
O212 C232 1.257 1_565 S
Zn213 N209 2.020 . S
Zn213 O220 1.975 1_545 S
Zn213 N229 2.119 . S
Zn213 O234 2.019 1_556 S
N214 Zn204 2.119 . S
N214 C216 1.334 . S
N214 C217 1.328 . S
C215 C216 1.391 . S
C215 N218 1.329 . S
C215 H236 0.930 . S
C216 N214 1.334 . S
C216 C215 1.391 . S
C216 H223 0.930 . S
C217 N214 1.328 . S
C217 C219 1.392 . S
C217 H224 0.930 . S
N218 C215 1.329 . S
N218 C219 1.331 . S
C219 C217 1.392 . S
C219 N218 1.331 . S
O220 Zn213 1.975 1_565 S
O220 C221 1.252 . S
C221 O220 1.252 . S
C221 O222 1.252 . S
O222 Zn204 1.975 1_565 S
O222 C221 1.252 . S
H223 C216 0.930 . S
H224 C217 0.930 . S
C225 C226 1.392 . S
C225 N229 1.328 . S
C225 H231 0.930 . S
C226 C225 1.392 . S
C226 N230 1.331 . S
C227 C228 1.391 . S
C227 N230 1.329 . S
C227 H237 0.930 1_545 S
C228 C227 1.391 . S
C228 N229 1.334 . S
C228 H235 0.930 . S
N229 Zn213 2.119 . S
N229 C225 1.328 . S
N229 C228 1.334 . S
N230 C226 1.331 . S
N230 C227 1.329 . S
H231 C225 0.930 . S
C232 O212 1.257 1_545 S
C232 O233 1.244 . S
O233 C232 1.244 . S
O234 C210 1.257 . S
O234 Zn213 2.019 1_554 S
H235 C228 0.930 . S
H236 C215 0.930 . S
H237 C227 0.930 1_565 S
Zn238 N242 2.020 . S
Zn238 O246 2.019 1_556 S
Zn238 N248 2.119 . S
Zn238 O256 1.975 1_565 S
C239 N240 1.334 . S
C239 N243 1.336 . S
N240 C239 1.334 . S
N240 C241 1.334 . S
C241 N240 1.334 . S
C241 N242 1.336 . S
N242 Zn238 2.020 . S
N242 C241 1.336 . S
N242 N243 1.354 . S
N243 C239 1.336 . S
N243 N242 1.354 . S
N243 Zn247 2.020 . S
C244 O245 1.244 . S
C244 O268 1.257 1_565 S
O245 C244 1.244 . S
O246 Zn238 2.019 1_554 S
O246 C266 1.257 . S
Zn247 N243 2.020 . S
Zn247 O254 1.975 1_565 S
Zn247 N263 2.119 . S
Zn247 O268 2.019 1_565 S
N248 Zn238 2.119 . S
N248 C250 1.334 . S
N248 C251 1.328 . S
C249 C250 1.391 . S
C249 N252 1.329 . S
C249 H270 0.930 1_565 S
C250 N248 1.334 . S
C250 C249 1.391 . S
C250 H257 0.930 . S
C251 N248 1.328 . S
C251 C253 1.392 . S
C251 H258 0.930 . S
N252 C249 1.329 . S
N252 C253 1.331 . S
C253 C251 1.392 . S
C253 N252 1.331 . S
O254 Zn247 1.975 1_545 S
O254 C255 1.252 . S
C255 O254 1.252 . S
C255 O256 1.252 . S
O256 Zn238 1.975 1_545 S
O256 C255 1.252 . S
H257 C250 0.930 . S
H258 C251 0.930 . S
C259 C260 1.392 . S
C259 N263 1.328 . S
C259 H265 0.930 . S
C260 C259 1.392 . S
C260 N264 1.331 . S
C261 C262 1.391 . S
C261 N264 1.329 . S
C261 H271 0.930 . S
C262 C261 1.391 . S
C262 N263 1.334 . S
C262 H269 0.930 . S
N263 Zn247 2.119 . S
N263 C259 1.328 . S
N263 C262 1.334 . S
N264 C260 1.331 . S
N264 C261 1.329 . S
H265 C259 0.930 . S
C266 O246 1.257 . S
C266 O267 1.244 . S
O267 C266 1.244 . S
O268 C244 1.257 1_545 S
O268 Zn247 2.019 1_545 S
H269 C262 0.930 . S
H270 C249 0.930 1_545 S
H271 C261 0.930 . S
Zn272 N276 2.020 . S
Zn272 O280 2.019 . S
Zn272 N282 2.119 . S
Zn272 O290 1.975 . S
C273 N274 1.334 . S
C273 N277 1.336 . S
N274 C273 1.334 . S
N274 C275 1.334 . S
C275 N274 1.334 . S
C275 N276 1.336 . S
N276 Zn272 2.020 . S
N276 C275 1.336 . S
N276 N277 1.354 . S
N277 C273 1.336 . S
N277 N276 1.354 . S
N277 Zn281 2.020 . S
C278 O279 1.244 . S
C278 O302 1.257 . S
O279 C278 1.244 . S
O280 Zn272 2.019 . S
O280 C300 1.257 . S
Zn281 N277 2.020 . S
Zn281 O288 1.975 . S
Zn281 N297 2.119 . S
Zn281 O302 2.019 . S
N282 Zn272 2.119 . S
N282 C284 1.334 . S
N282 C285 1.328 . S
C283 C284 1.391 . S
C283 N286 1.329 . S
C283 H304 0.930 . S
C284 N282 1.334 . S
C284 C283 1.391 . S
C284 H291 0.930 . S
C285 N282 1.328 . S
C285 C287 1.392 . S
C285 H292 0.930 . S
N286 C283 1.329 . S
N286 C287 1.331 . S
C287 C285 1.392 . S
C287 N286 1.331 . S
O288 Zn281 1.975 . S
O288 C289 1.252 . S
C289 O288 1.252 . S
C289 O290 1.252 . S
O290 Zn272 1.975 . S
O290 C289 1.252 . S
H291 C284 0.930 . S
H292 C285 0.930 . S
C293 C294 1.392 . S
C293 N297 1.328 . S
C293 H299 0.930 . S
C294 C293 1.392 . S
C294 N298 1.331 . S
C295 C296 1.391 . S
C295 N298 1.329 . S
C295 H305 0.930 . S
C296 C295 1.391 . S
C296 N297 1.334 . S
C296 H303 0.930 . S
N297 Zn281 2.119 . S
N297 C293 1.328 . S
N297 C296 1.334 . S
N298 C294 1.331 . S
N298 C295 1.329 . S
H299 C293 0.930 . S
C300 O280 1.257 . S
C300 O301 1.244 . S
O301 C300 1.244 . S
O302 C278 1.257 . S
O302 Zn281 2.019 . S
H303 C296 0.930 . S
H304 C283 0.930 . S
H305 C295 0.930 . S
Zn306 N310 2.020 . S
Zn306 O314 2.019 . S
Zn306 N316 2.119 . S
Zn306 O324 1.975 . S
C307 N308 1.334 . S
C307 N311 1.336 . S
N308 C307 1.334 . S
N308 C309 1.334 . S
C309 N308 1.334 . S
C309 N310 1.336 . S
N310 Zn306 2.020 . S
N310 C309 1.336 . S
N310 N311 1.354 . S
N311 C307 1.336 . S
N311 N310 1.354 . S
N311 Zn315 2.020 . S
C312 O313 1.244 . S
C312 O336 1.257 . S
O313 C312 1.244 . S
O314 Zn306 2.019 . S
O314 C334 1.257 . S
Zn315 N311 2.020 . S
Zn315 O322 1.975 . S
Zn315 N331 2.119 . S
Zn315 O336 2.019 . S
N316 Zn306 2.119 . S
N316 C318 1.334 . S
N316 C319 1.328 . S
C317 C318 1.391 . S
C317 N320 1.329 . S
C317 H338 0.930 . S
C318 N316 1.334 . S
C318 C317 1.391 . S
C318 H325 0.930 . S
C319 N316 1.328 . S
C319 C321 1.392 . S
C319 H326 0.930 . S
N320 C317 1.329 . S
N320 C321 1.331 . S
C321 C319 1.392 . S
C321 N320 1.331 . S
O322 Zn315 1.975 . S
O322 C323 1.252 . S
C323 O322 1.252 . S
C323 O324 1.252 . S
O324 Zn306 1.975 . S
O324 C323 1.252 . S
H325 C318 0.930 . S
H326 C319 0.930 . S
C327 C328 1.392 . S
C327 N331 1.328 . S
C327 H333 0.930 . S
C328 C327 1.392 . S
C328 N332 1.331 . S
C329 C330 1.391 . S
C329 N332 1.329 . S
C329 H339 0.930 . S
C330 C329 1.391 . S
C330 N331 1.334 . S
C330 H337 0.930 . S
N331 Zn315 2.119 . S
N331 C327 1.328 . S
N331 C330 1.334 . S
N332 C328 1.331 . S
N332 C329 1.329 . S
H333 C327 0.930 . S
C334 O314 1.257 . S
C334 O335 1.244 . S
O335 C334 1.244 . S
O336 C312 1.257 . S
O336 Zn315 2.019 . S
H337 C330 0.930 . S
H338 C317 0.930 . S
H339 C329 0.930 . S
Zn340 N344 2.020 . S
Zn340 O348 2.019 . S
Zn340 N350 2.119 . S
Zn340 O358 1.975 . S
C341 N342 1.334 . S
C341 N345 1.336 . S
N342 C341 1.334 . S
N342 C343 1.334 . S
C343 N342 1.334 . S
C343 N344 1.336 . S
N344 Zn340 2.020 . S
N344 C343 1.336 . S
N344 N345 1.354 . S
N345 C341 1.336 . S
N345 N344 1.354 . S
N345 Zn349 2.020 . S
C346 O347 1.244 . S
C346 O370 1.257 . S
O347 C346 1.244 . S
O348 Zn340 2.019 . S
O348 C368 1.257 . S
Zn349 N345 2.020 . S
Zn349 O356 1.975 . S
Zn349 N365 2.119 . S
Zn349 O370 2.019 1_554 S
N350 Zn340 2.119 . S
N350 C352 1.334 . S
N350 C353 1.328 . S
C351 C352 1.391 . S
C351 N354 1.329 . S
C351 H372 0.930 . S
C352 N350 1.334 . S
C352 C351 1.391 . S
C352 H359 0.930 . S
C353 N350 1.328 . S
C353 C355 1.392 . S
C353 H360 0.930 . S
N354 C351 1.329 . S
N354 C355 1.331 . S
C355 C353 1.392 . S
C355 N354 1.331 . S
O356 Zn349 1.975 . S
O356 C357 1.252 . S
C357 O356 1.252 . S
C357 O358 1.252 . S
O358 Zn340 1.975 . S
O358 C357 1.252 . S
H359 C352 0.930 . S
H360 C353 0.930 . S
C361 C362 1.392 . S
C361 N365 1.328 . S
C361 H367 0.930 . S
C362 C361 1.392 . S
C362 N366 1.331 . S
C363 C364 1.391 . S
C363 N366 1.329 . S
C363 H373 0.930 . S
C364 C363 1.391 . S
C364 N365 1.334 . S
C364 H371 0.930 . S
N365 Zn349 2.119 . S
N365 C361 1.328 . S
N365 C364 1.334 . S
N366 C362 1.331 . S
N366 C363 1.329 . S
H367 C361 0.930 . S
C368 O348 1.257 . S
C368 O369 1.244 . S
O369 C368 1.244 . S
O370 C346 1.257 . S
O370 Zn349 2.019 1_556 S
H371 C364 0.930 . S
H372 C351 0.930 . S
H373 C363 0.930 . S
Zn374 N378 2.020 . S
Zn374 O382 2.019 . S
Zn374 N384 2.119 . S
Zn374 O392 1.975 . S
C375 N376 1.334 . S
C375 N379 1.336 . S
N376 C375 1.334 . S
N376 C377 1.334 . S
C377 N376 1.334 . S
C377 N378 1.336 . S
N378 Zn374 2.020 . S
N378 C377 1.336 . S
N378 N379 1.354 . S
N379 C375 1.336 . S
N379 N378 1.354 . S
N379 Zn383 2.020 . S
C380 O381 1.244 . S
C380 O404 1.257 . S
O381 C380 1.244 . S
O382 Zn374 2.019 . S
O382 C402 1.257 . S
Zn383 N379 2.020 . S
Zn383 O390 1.975 . S
Zn383 N399 2.119 . S
Zn383 O404 2.019 1_554 S
N384 Zn374 2.119 . S
N384 C386 1.334 . S
N384 C387 1.328 . S
C385 C386 1.391 . S
C385 N388 1.329 . S
C385 H406 0.930 . S
C386 N384 1.334 . S
C386 C385 1.391 . S
C386 H393 0.930 . S
C387 N384 1.328 . S
C387 C389 1.392 . S
C387 H394 0.930 . S
N388 C385 1.329 . S
N388 C389 1.331 . S
C389 C387 1.392 . S
C389 N388 1.331 . S
O390 Zn383 1.975 . S
O390 C391 1.252 . S
C391 O390 1.252 . S
C391 O392 1.252 . S
O392 Zn374 1.975 . S
O392 C391 1.252 . S
H393 C386 0.930 . S
H394 C387 0.930 . S
C395 C396 1.392 . S
C395 N399 1.328 . S
C395 H401 0.930 . S
C396 C395 1.392 . S
C396 N400 1.331 . S
C397 C398 1.391 . S
C397 N400 1.329 . S
C397 H407 0.930 . S
C398 C397 1.391 . S
C398 N399 1.334 . S
C398 H405 0.930 . S
N399 Zn383 2.119 . S
N399 C395 1.328 . S
N399 C398 1.334 . S
N400 C396 1.331 . S
N400 C397 1.329 . S
H401 C395 0.930 . S
C402 O382 1.257 . S
C402 O403 1.244 . S
O403 C402 1.244 . S
O404 C380 1.257 . S
O404 Zn383 2.019 1_556 S
H405 C398 0.930 . S
H406 C385 0.930 . S
H407 C397 0.930 . S
Zn408 N412 2.020 . S
Zn408 O416 2.019 . S
Zn408 N418 2.119 . S
Zn408 O426 1.975 . S
C409 N410 1.334 . S
C409 N413 1.336 . S
N410 C409 1.334 . S
N410 C411 1.334 . S
C411 N410 1.334 . S
C411 N412 1.336 . S
N412 Zn408 2.020 . S
N412 C411 1.336 . S
N412 N413 1.354 . S
N413 C409 1.336 . S
N413 N412 1.354 . S
N413 Zn417 2.020 . S
C414 O415 1.244 . S
C414 O438 1.257 . S
O415 C414 1.244 . S
O416 Zn408 2.019 . S
O416 C436 1.257 . S
Zn417 N413 2.020 . S
Zn417 O424 1.975 . S
Zn417 N433 2.119 . S
Zn417 O438 2.019 . S
N418 Zn408 2.119 . S
N418 C420 1.334 . S
N418 C421 1.328 . S
C419 C420 1.391 . S
C419 N422 1.329 . S
C419 H440 0.930 . S
C420 N418 1.334 . S
C420 C419 1.391 . S
C420 H427 0.930 . S
C421 N418 1.328 . S
C421 C423 1.392 . S
C421 H428 0.930 . S
N422 C419 1.329 . S
N422 C423 1.331 . S
C423 C421 1.392 . S
C423 N422 1.331 . S
O424 Zn417 1.975 . S
O424 C425 1.252 . S
C425 O424 1.252 . S
C425 O426 1.252 . S
O426 Zn408 1.975 . S
O426 C425 1.252 . S
H427 C420 0.930 . S
H428 C421 0.930 . S
C429 C430 1.392 . S
C429 N433 1.328 . S
C429 H435 0.930 . S
C430 C429 1.392 . S
C430 N434 1.331 . S
C431 C432 1.391 . S
C431 N434 1.329 . S
C431 H441 0.930 . S
C432 C431 1.391 . S
C432 N433 1.334 . S
C432 H439 0.930 . S
N433 Zn417 2.119 . S
N433 C429 1.328 . S
N433 C432 1.334 . S
N434 C430 1.331 . S
N434 C431 1.329 . S
H435 C429 0.930 . S
C436 O416 1.257 . S
C436 O437 1.244 . S
O437 C436 1.244 . S
O438 C414 1.257 . S
O438 Zn417 2.019 . S
H439 C432 0.930 . S
H440 C419 0.930 . S
H441 C431 0.930 . S
Zn442 N446 2.020 . S
Zn442 O450 2.019 . S
Zn442 N452 2.119 . S
Zn442 O460 1.975 . S
C443 N444 1.334 . S
C443 N447 1.336 . S
N444 C443 1.334 . S
N444 C445 1.334 . S
C445 N444 1.334 . S
C445 N446 1.336 . S
N446 Zn442 2.020 . S
N446 C445 1.336 . S
N446 N447 1.354 . S
N447 C443 1.336 . S
N447 N446 1.354 . S
N447 Zn451 2.020 . S
C448 O449 1.244 . S
C448 O472 1.257 . S
O449 C448 1.244 . S
O450 Zn442 2.019 . S
O450 C470 1.257 . S
Zn451 N447 2.020 . S
Zn451 O458 1.975 . S
Zn451 N467 2.119 . S
Zn451 O472 2.019 . S
N452 Zn442 2.119 . S
N452 C454 1.334 . S
N452 C455 1.328 . S
C453 C454 1.391 . S
C453 N456 1.329 . S
C453 H474 0.930 . S
C454 N452 1.334 . S
C454 C453 1.391 . S
C454 H461 0.930 . S
C455 N452 1.328 . S
C455 C457 1.392 . S
C455 H462 0.930 . S
N456 C453 1.329 . S
N456 C457 1.331 . S
C457 C455 1.392 . S
C457 N456 1.331 . S
O458 Zn451 1.975 . S
O458 C459 1.252 . S
C459 O458 1.252 . S
C459 O460 1.252 . S
O460 Zn442 1.975 . S
O460 C459 1.252 . S
H461 C454 0.930 . S
H462 C455 0.930 . S
C463 C464 1.392 . S
C463 N467 1.328 . S
C463 H469 0.930 . S
C464 C463 1.392 . S
C464 N468 1.331 . S
C465 C466 1.391 . S
C465 N468 1.329 . S
C465 H475 0.930 . S
C466 C465 1.391 . S
C466 N467 1.334 . S
C466 H473 0.930 . S
N467 Zn451 2.119 . S
N467 C463 1.328 . S
N467 C466 1.334 . S
N468 C464 1.331 . S
N468 C465 1.329 . S
H469 C463 0.930 . S
C470 O450 1.257 . S
C470 O471 1.244 . S
O471 C470 1.244 . S
O472 C448 1.257 . S
O472 Zn451 2.019 . S
H473 C466 0.930 . S
H474 C453 0.930 . S
H475 C465 0.930 . S
Zn476 N480 2.020 . S
Zn476 O484 2.019 1_556 S
Zn476 N486 2.119 . S
Zn476 O494 1.975 . S
C477 N478 1.334 . S
C477 N481 1.336 . S
N478 C477 1.334 . S
N478 C479 1.334 . S
C479 N478 1.334 . S
C479 N480 1.336 . S
N480 Zn476 2.020 . S
N480 C479 1.336 . S
N480 N481 1.354 . S
N481 C477 1.336 . S
N481 N480 1.354 . S
N481 Zn485 2.020 . S
C482 O483 1.244 . S
C482 O506 1.257 . S
O483 C482 1.244 . S
O484 Zn476 2.019 1_554 S
O484 C504 1.257 . S
Zn485 N481 2.020 . S
Zn485 O492 1.975 . S
Zn485 N501 2.119 . S
Zn485 O506 2.019 . S
N486 Zn476 2.119 . S
N486 C488 1.334 . S
N486 C489 1.328 . S
C487 C488 1.391 . S
C487 N490 1.329 . S
C487 H508 0.930 . S
C488 N486 1.334 . S
C488 C487 1.391 . S
C488 H495 0.930 . S
C489 N486 1.328 . S
C489 C491 1.392 . S
C489 H496 0.930 . S
N490 C487 1.329 . S
N490 C491 1.331 . S
C491 C489 1.392 . S
C491 N490 1.331 . S
O492 Zn485 1.975 . S
O492 C493 1.252 . S
C493 O492 1.252 . S
C493 O494 1.252 . S
O494 Zn476 1.975 . S
O494 C493 1.252 . S
H495 C488 0.930 . S
H496 C489 0.930 . S
C497 C498 1.392 . S
C497 N501 1.328 . S
C497 H503 0.930 . S
C498 C497 1.392 . S
C498 N502 1.331 . S
C499 C500 1.391 . S
C499 N502 1.329 . S
C499 H509 0.930 . S
C500 C499 1.391 . S
C500 N501 1.334 . S
C500 H507 0.930 . S
N501 Zn485 2.119 . S
N501 C497 1.328 . S
N501 C500 1.334 . S
N502 C498 1.331 . S
N502 C499 1.329 . S
H503 C497 0.930 . S
C504 O484 1.257 . S
C504 O505 1.244 . S
O505 C504 1.244 . S
O506 C482 1.257 . S
O506 Zn485 2.019 . S
H507 C500 0.930 . S
H508 C487 0.930 . S
H509 C499 0.930 . S
Zn510 N514 2.020 . S
Zn510 O518 2.019 1_556 S
Zn510 N520 2.119 . S
Zn510 O528 1.975 . S
C511 N512 1.334 . S
C511 N515 1.336 . S
N512 C511 1.334 . S
N512 C513 1.334 . S
C513 N512 1.334 . S
C513 N514 1.336 . S
N514 Zn510 2.020 . S
N514 C513 1.336 . S
N514 N515 1.354 . S
N515 C511 1.336 . S
N515 N514 1.354 . S
N515 Zn519 2.020 . S
C516 O517 1.244 . S
C516 O540 1.257 . S
O517 C516 1.244 . S
O518 Zn510 2.019 1_554 S
O518 C538 1.257 . S
Zn519 N515 2.020 . S
Zn519 O526 1.975 . S
Zn519 N535 2.119 . S
Zn519 O540 2.019 . S
N520 Zn510 2.119 . S
N520 C522 1.334 . S
N520 C523 1.328 . S
C521 C522 1.391 . S
C521 N524 1.329 . S
C521 H542 0.930 . S
C522 N520 1.334 . S
C522 C521 1.391 . S
C522 H529 0.930 . S
C523 N520 1.328 . S
C523 C525 1.392 . S
C523 H530 0.930 . S
N524 C521 1.329 . S
N524 C525 1.331 . S
C525 C523 1.392 . S
C525 N524 1.331 . S
O526 Zn519 1.975 . S
O526 C527 1.252 . S
C527 O526 1.252 . S
C527 O528 1.252 . S
O528 Zn510 1.975 . S
O528 C527 1.252 . S
H529 C522 0.930 . S
H530 C523 0.930 . S
C531 C532 1.392 . S
C531 N535 1.328 . S
C531 H537 0.930 . S
C532 C531 1.392 . S
C532 N536 1.331 . S
C533 C534 1.391 . S
C533 N536 1.329 . S
C533 H543 0.930 . S
C534 C533 1.391 . S
C534 N535 1.334 . S
C534 H541 0.930 . S
N535 Zn519 2.119 . S
N535 C531 1.328 . S
N535 C534 1.334 . S
N536 C532 1.331 . S
N536 C533 1.329 . S
H537 C531 0.930 . S
C538 O518 1.257 . S
C538 O539 1.244 . S
O539 C538 1.244 . S
O540 C516 1.257 . S
O540 Zn519 2.019 . S
H541 C534 0.930 . S
H542 C521 0.930 . S
H543 C533 0.930 . S
H544 C552 0.950 . S
H545 C557 0.950 . S
H546 C554 0.950 . S
H547 C556 0.950 . S
H548 C558 0.950 . S
H549 C560 0.950 . S
H550 C562 0.950 . S
H551 C563 0.950 . S
C552 H544 0.950 . S
C552 C553 1.386 . S
C552 C554 1.391 1_545 S
C553 C552 1.386 . S
C553 C557 1.393 . S
C554 H546 0.950 . S
C554 C552 1.391 1_565 S
C554 C555 1.400 1_565 S
C555 C554 1.400 1_545 S
C555 C556 1.398 . S
C555 C561 1.491 1_445 S
C556 H547 0.950 . S
C556 C555 1.398 . S
C556 C557 1.391 . S
C557 H545 0.950 . S
C557 C553 1.393 . S
C557 C556 1.391 . S
C558 H548 0.950 . S
C558 C559 1.386 . S
C558 C560 1.391 1_565 S
C559 C558 1.386 . S
C559 C563 1.393 . S
C560 H549 0.950 . S
C560 C558 1.391 1_545 S
C560 C561 1.400 1_545 S
C561 C555 1.491 1_665 S
C561 C560 1.400 1_565 S
C561 C562 1.398 . S
C562 H550 0.950 . S
C562 C561 1.398 . S
C562 C563 1.391 . S
C563 H551 0.950 . S
C563 C559 1.393 . S
C563 C562 1.391 . S
H564 C572 0.950 . S
H565 C577 0.950 . S
H566 C574 0.950 . S
H567 C576 0.950 . S
H568 C578 0.950 . S
H569 C580 0.950 . S
H570 C582 0.950 . S
H571 C583 0.950 . S
C572 H564 0.950 . S
C572 C573 1.386 1_565 S
C572 C574 1.391 . S
C573 C572 1.386 1_545 S
C573 C577 1.393 . S
C574 H566 0.950 . S
C574 C572 1.391 . S
C574 C575 1.400 1_565 S
C575 C574 1.400 1_545 S
C575 C576 1.398 . S
C575 C581 1.491 1_545 S
C576 H567 0.950 . S
C576 C575 1.398 . S
C576 C577 1.391 . S
C577 H565 0.950 . S
C577 C573 1.393 . S
C577 C576 1.391 . S
C578 H568 0.950 . S
C578 C579 1.386 1_545 S
C578 C580 1.391 . S
C579 C578 1.386 1_565 S
C579 C583 1.393 . S
C580 H569 0.950 . S
C580 C578 1.391 . S
C580 C581 1.400 1_545 S
C581 C575 1.491 1_565 S
C581 C580 1.400 1_565 S
C581 C582 1.398 . S
C582 H570 0.950 . S
C582 C581 1.398 . S
C582 C583 1.391 . S
C583 H571 0.950 . S
C583 C579 1.393 . S
C583 C582 1.391 . S
H584 C592 0.950 . S
H585 C597 0.950 . S
H586 C594 0.955 . S
H587 C596 0.950 . S
H588 C598 0.950 . S
H589 C600 0.955 . S
H590 C602 0.950 . S
H591 C603 0.950 . S
C592 H584 0.950 . S
C592 C593 1.386 . S
C592 C594 1.391 . S
C593 C592 1.386 . S
C593 C597 1.393 1_545 S
C594 H586 0.955 . S
C594 C592 1.391 . S
C594 C595 1.400 . S
C595 C594 1.400 . S
C595 C596 1.398 1_545 S
C595 C601 1.491 1_546 S
C596 H587 0.950 . S
C596 C595 1.398 1_565 S
C596 C597 1.391 . S
C597 H585 0.950 . S
C597 C593 1.393 1_565 S
C597 C596 1.391 . S
C598 H588 0.950 . S
C598 C599 1.386 . S
C598 C600 1.391 . S
C599 C598 1.386 . S
C599 C603 1.393 1_565 S
C600 H589 0.955 . S
C600 C598 1.391 . S
C600 C601 1.400 . S
C601 C595 1.491 1_564 S
C601 C600 1.400 . S
C601 C602 1.398 1_565 S
C602 H590 0.950 . S
C602 C601 1.398 1_545 S
C602 C603 1.391 . S
C603 H591 0.950 . S
C603 C599 1.393 1_545 S
C603 C602 1.391 . S
H604 C612 0.950 . S
H605 C617 0.950 . S
H606 C614 0.950 1_545 S
H607 C616 0.950 . S
H608 C618 0.950 . S
H609 C620 0.950 1_565 S
H610 C622 0.950 . S
H611 C623 0.950 . S
C612 H604 0.950 . S
C612 C613 1.386 . S
C612 C614 1.391 . S
C613 C612 1.386 . S
C613 C617 1.393 1_556 S
C614 H606 0.950 1_565 S
C614 C612 1.391 . S
C614 C615 1.400 . S
C615 C614 1.400 . S
C615 C616 1.398 1_556 S
C615 C621 1.491 1_466 S
C616 H607 0.950 . S
C616 C615 1.398 1_554 S
C616 C617 1.391 . S
C617 H605 0.950 . S
C617 C613 1.393 1_554 S
C617 C616 1.391 . S
C618 H608 0.950 . S
C618 C619 1.386 . S
C618 C620 1.391 . S
C619 C618 1.386 . S
C619 C623 1.393 1_554 S
C620 H609 0.950 1_545 S
C620 C618 1.391 . S
C620 C621 1.400 . S
C621 C615 1.491 1_644 S
C621 C620 1.400 . S
C621 C622 1.398 1_554 S
C622 H610 0.950 . S
C622 C621 1.398 1_556 S
C622 C623 1.391 . S
C623 H611 0.950 . S
C623 C619 1.393 1_556 S
C623 C622 1.391 . S
H624 C632 0.950 . S
H625 C637 0.950 . S
H626 C634 0.950 . S
H627 C636 0.950 . S
H628 C638 0.950 . S
H629 C640 0.950 . S
H630 C642 0.950 . S
H631 C643 0.950 . S
C632 H624 0.950 . S
C632 C633 1.386 . S
C632 C634 1.391 . S
C633 C632 1.386 . S
C633 C637 1.393 . S
C634 H626 0.950 . S
C634 C632 1.391 . S
C634 C635 1.400 . S
C635 C634 1.400 . S
C635 C636 1.398 . S
C635 C641 1.491 . S
C636 H627 0.950 . S
C636 C635 1.398 . S
C636 C637 1.391 . S
C637 H625 0.950 . S
C637 C633 1.393 . S
C637 C636 1.391 . S
C638 H628 0.950 . S
C638 C639 1.386 . S
C638 C640 1.391 . S
C639 C638 1.386 . S
C639 C643 1.393 . S
C640 H629 0.950 . S
C640 C638 1.391 . S
C640 C641 1.400 . S
C641 C635 1.491 . S
C641 C640 1.400 . S
C641 C642 1.398 . S
C642 H630 0.950 . S
C642 C641 1.398 . S
C642 C643 1.391 . S
C643 H631 0.950 . S
C643 C639 1.393 . S
C643 C642 1.391 . S
H644 C652 0.950 . S
H645 C657 0.950 . S
H646 C654 0.950 . S
H647 C656 0.950 . S
H648 C658 0.950 . S
H649 C660 0.950 . S
H650 C662 0.950 . S
H651 C663 0.950 . S
C652 H644 0.950 . S
C652 C653 1.386 . S
C652 C654 1.391 . S
C653 C652 1.386 . S
C653 C657 1.393 . S
C654 H646 0.950 . S
C654 C652 1.391 . S
C654 C655 1.400 . S
C655 C654 1.400 . S
C655 C656 1.398 . S
C655 C661 1.491 1_455 S
C656 H647 0.950 . S
C656 C655 1.398 . S
C656 C657 1.391 . S
C657 H645 0.950 . S
C657 C653 1.393 . S
C657 C656 1.391 . S
C658 H648 0.950 . S
C658 C659 1.386 . S
C658 C660 1.391 . S
C659 C658 1.386 . S
C659 C663 1.393 . S
C660 H649 0.950 . S
C660 C658 1.391 . S
C660 C661 1.400 . S
C661 C655 1.491 1_655 S
C661 C660 1.400 . S
C661 C662 1.398 . S
C662 H650 0.950 . S
C662 C661 1.398 . S
C662 C663 1.391 . S
C663 H651 0.950 . S
C663 C659 1.393 . S
C663 C662 1.391 . S
H664 C672 0.950 . S
H665 C677 0.950 . S
H666 C674 0.950 . S
H667 C676 0.950 . S
H668 C678 0.950 . S
H669 C680 0.950 . S
H670 C682 0.950 . S
H671 C683 0.950 . S
C672 H664 0.950 . S
C672 C673 1.386 . S
C672 C674 1.391 . S
C673 C672 1.386 . S
C673 C677 1.393 1_554 S
C674 H666 0.950 . S
C674 C672 1.391 . S
C674 C675 1.400 . S
C675 C674 1.400 . S
C675 C676 1.398 1_554 S
C675 C681 1.491 1_454 S
C676 H667 0.950 . S
C676 C675 1.398 1_556 S
C676 C677 1.391 . S
C677 H665 0.950 . S
C677 C673 1.393 1_556 S
C677 C676 1.391 . S
C678 H668 0.950 . S
C678 C679 1.386 . S
C678 C680 1.391 . S
C679 C678 1.386 . S
C679 C683 1.393 1_556 S
C680 H669 0.950 . S
C680 C678 1.391 . S
C680 C681 1.400 . S
C681 C675 1.491 1_656 S
C681 C680 1.400 . S
C681 C682 1.398 1_556 S
C682 H670 0.950 . S
C682 C681 1.398 1_554 S
C682 C683 1.391 . S
C683 H671 0.950 . S
C683 C679 1.393 1_554 S
C683 C682 1.391 . S
H684 C692 0.950 . S
H685 C697 0.950 . S
H686 C694 0.950 . S
H687 C696 0.950 1_556 S
H688 C698 0.950 . S
H689 C700 0.950 . S
H690 C702 0.950 1_554 S
H691 C703 0.950 . S
C692 H684 0.950 . S
C692 C693 1.386 . S
C692 C694 1.391 . S
C693 C692 1.386 . S
C693 C697 1.393 . S
C694 H686 0.950 . S
C694 C692 1.391 . S
C694 C695 1.400 . S
C695 C694 1.400 . S
C695 C696 1.398 . S
C695 C701 1.491 1_554 S
C696 H687 0.950 1_554 S
C696 C695 1.398 . S
C696 C697 1.391 . S
C697 H685 0.950 . S
C697 C693 1.393 . S
C697 C696 1.391 . S
C698 H688 0.950 . S
C698 C699 1.386 . S
C698 C700 1.391 . S
C699 C698 1.386 . S
C699 C703 1.393 . S
C700 H689 0.950 . S
C700 C698 1.391 . S
C700 C701 1.400 . S
C701 C695 1.491 1_556 S
C701 C700 1.400 . S
C701 C702 1.398 . S
C702 H690 0.950 1_556 S
C702 C701 1.398 . S
C702 C703 1.391 . S
C703 H691 0.950 . S
C703 C699 1.393 . S
C703 C702 1.391 . S
H704 C712 0.950 . S
H705 C717 0.950 . S
H706 C714 0.950 . S
H707 C716 0.950 . S
H708 C718 0.950 . S
H709 C720 0.950 . S
H710 C722 0.950 . S
H711 C723 0.950 . S
C712 H704 0.950 . S
C712 C713 1.386 . S
C712 C714 1.391 . S
C713 C712 1.386 . S
C713 C717 1.393 . S
C714 H706 0.950 . S
C714 C712 1.391 . S
C714 C715 1.400 . S
C715 C714 1.400 . S
C715 C716 1.398 . S
C715 C721 1.491 . S
C716 H707 0.950 . S
C716 C715 1.398 . S
C716 C717 1.391 . S
C717 H705 0.950 . S
C717 C713 1.393 . S
C717 C716 1.391 . S
C718 H708 0.950 . S
C718 C719 1.386 . S
C718 C720 1.391 . S
C719 C718 1.386 . S
C719 C723 1.393 . S
C720 H709 0.950 . S
C720 C718 1.391 . S
C720 C721 1.400 . S
C721 C715 1.491 . S
C721 C720 1.400 . S
C721 C722 1.398 . S
C722 H710 0.950 . S
C722 C721 1.398 . S
C722 C723 1.391 . S
C723 H711 0.950 . S
C723 C719 1.393 . S
C723 C722 1.391 . S
H724 C732 0.950 . S
H725 C737 0.950 . S
H726 C734 0.950 . S
H727 C736 0.950 . S
H728 C738 0.950 . S
H729 C740 0.950 . S
H730 C742 0.950 . S
H731 C743 0.950 . S
C732 H724 0.950 . S
C732 C733 1.386 . S
C732 C734 1.391 . S
C733 C732 1.386 . S
C733 C737 1.393 . S
C734 H726 0.950 . S
C734 C732 1.391 . S
C734 C735 1.400 . S
C735 C734 1.400 . S
C735 C736 1.398 . S
C735 C741 1.491 . S
C736 H727 0.950 . S
C736 C735 1.398 . S
C736 C737 1.391 . S
C737 H725 0.950 . S
C737 C733 1.393 . S
C737 C736 1.391 . S
C738 H728 0.950 . S
C738 C739 1.386 . S
C738 C740 1.391 . S
C739 C738 1.386 . S
C739 C743 1.393 . S
C740 H729 0.950 . S
C740 C738 1.391 . S
C740 C741 1.400 . S
C741 C735 1.491 . S
C741 C740 1.400 . S
C741 C742 1.398 . S
C742 H730 0.950 . S
C742 C741 1.398 . S
C742 C743 1.391 . S
C743 H731 0.950 . S
C743 C739 1.393 . S
C743 C742 1.391 . S
H744 C752 0.950 . S
H745 C757 0.950 . S
H746 C754 0.950 1_556 S
H747 C756 0.950 . S
H748 C758 0.950 1_554 S
H749 C760 0.950 . S
H750 C762 0.950 . S
H751 C763 0.950 . S
C752 H744 0.950 . S
C752 C753 1.386 . S
C752 C754 1.391 . S
C753 C752 1.386 . S
C753 C757 1.393 . S
C754 H746 0.950 1_554 S
C754 C752 1.391 . S
C754 C755 1.400 . S
C755 C754 1.400 . S
C755 C756 1.398 . S
C755 C761 1.491 1_554 S
C756 H747 0.950 . S
C756 C755 1.398 . S
C756 C757 1.391 . S
C757 H745 0.950 . S
C757 C753 1.393 . S
C757 C756 1.391 . S
C758 H748 0.950 1_556 S
C758 C759 1.386 . S
C758 C760 1.391 1_556 S
C759 C758 1.386 . S
C759 C763 1.393 . S
C760 H749 0.950 . S
C760 C758 1.391 1_554 S
C760 C761 1.400 1_554 S
C761 C755 1.491 1_556 S
C761 C760 1.400 1_556 S
C761 C762 1.398 . S
C762 H750 0.950 . S
C762 C761 1.398 . S
C762 C763 1.391 . S
C763 H751 0.950 . S
C763 C759 1.393 . S
C763 C762 1.391 . S
H764 C772 0.950 . S
H765 C777 0.950 . S
H766 C774 0.950 . S
H767 C776 0.950 . S
H768 C778 0.950 . S
H769 C780 0.950 . S
H770 C782 0.950 1_556 S
H771 C783 0.950 . S
C772 H764 0.950 . S
C772 C773 1.386 . S
C772 C774 1.391 . S
C773 C772 1.386 . S
C773 C777 1.393 . S
C774 H766 0.950 . S
C774 C772 1.391 . S
C774 C775 1.400 . S
C775 C774 1.400 . S
C775 C776 1.398 1_556 S
C775 C781 1.491 1_556 S
C776 H767 0.950 . S
C776 C775 1.398 1_554 S
C776 C777 1.391 1_554 S
C777 H765 0.950 . S
C777 C773 1.393 . S
C777 C776 1.391 1_556 S
C778 H768 0.950 . S
C778 C779 1.386 . S
C778 C780 1.391 . S
C779 C778 1.386 . S
C779 C783 1.393 . S
C780 H769 0.950 . S
C780 C778 1.391 . S
C780 C781 1.400 . S
C781 C775 1.491 1_554 S
C781 C780 1.400 . S
C781 C782 1.398 . S
C782 H770 0.950 1_554 S
C782 C781 1.398 . S
C782 C783 1.391 . S
C783 H771 0.950 . S
C783 C779 1.393 . S
C783 C782 1.391 . S
H784 C792 0.950 . S
H785 C797 0.950 . S
H786 C794 0.950 . S
H787 C796 0.950 . S
H788 C798 0.950 . S
H789 C800 0.950 . S
H790 C802 0.950 . S
H791 C803 0.950 . S
C792 H784 0.950 . S
C792 C793 1.386 . S
C792 C794 1.391 . S
C793 C792 1.386 . S
C793 C797 1.393 . S
C794 H786 0.950 . S
C794 C792 1.391 . S
C794 C795 1.400 . S
C795 C794 1.400 . S
C795 C796 1.398 . S
C795 C801 1.491 . S
C796 H787 0.950 . S
C796 C795 1.398 . S
C796 C797 1.391 . S
C797 H785 0.950 . S
C797 C793 1.393 . S
C797 C796 1.391 . S
C798 H788 0.950 . S
C798 C799 1.386 . S
C798 C800 1.391 . S
C799 C798 1.386 . S
C799 C803 1.393 . S
C800 H789 0.950 . S
C800 C798 1.391 . S
C800 C801 1.400 . S
C801 C795 1.491 . S
C801 C800 1.400 . S
C801 C802 1.398 . S
C802 H790 0.950 . S
C802 C801 1.398 . S
C802 C803 1.391 . S
C803 H791 0.950 . S
C803 C799 1.393 . S
C803 C802 1.391 . S
H804 C812 0.950 . S
H805 C817 0.950 . S
H806 C814 0.950 . S
H807 C816 0.950 . S
H808 C818 0.950 . S
H809 C820 0.950 . S
H810 C822 0.950 . S
H811 C823 0.950 . S
C812 H804 0.950 . S
C812 C813 1.386 . S
C812 C814 1.391 . S
C813 C812 1.386 . S
C813 C817 1.393 . S
C814 H806 0.950 . S
C814 C812 1.391 . S
C814 C815 1.400 . S
C815 C814 1.400 . S
C815 C816 1.398 . S
C815 C821 1.491 . S
C816 H807 0.950 . S
C816 C815 1.398 . S
C816 C817 1.391 . S
C817 H805 0.950 . S
C817 C813 1.393 . S
C817 C816 1.391 . S
C818 H808 0.950 . S
C818 C819 1.386 . S
C818 C820 1.391 . S
C819 C818 1.386 . S
C819 C823 1.393 . S
C820 H809 0.950 . S
C820 C818 1.391 . S
C820 C821 1.400 . S
C821 C815 1.491 . S
C821 C820 1.400 . S
C821 C822 1.398 . S
C822 H810 0.950 . S
C822 C821 1.398 . S
C822 C823 1.391 . S
C823 H811 0.950 . S
C823 C819 1.393 . S
C823 C822 1.391 . S
H824 C832 0.950 . S
H825 C837 0.950 . S
H826 C834 0.950 1_556 S
H827 C836 0.950 . S
H828 C838 0.950 . S
H829 C840 0.950 . S
H830 C842 0.950 . S
H831 C843 0.950 . S
C832 H824 0.950 . S
C832 C833 1.386 . S
C832 C834 1.391 . S
C833 C832 1.386 . S
C833 C837 1.393 . S
C834 H826 0.950 1_554 S
C834 C832 1.391 . S
C834 C835 1.400 . S
C835 C834 1.400 . S
C835 C836 1.398 . S
C835 C841 1.491 1_554 S
C836 H827 0.950 . S
C836 C835 1.398 . S
C836 C837 1.391 . S
C837 H825 0.950 . S
C837 C833 1.393 . S
C837 C836 1.391 . S
C838 H828 0.950 . S
C838 C839 1.386 . S
C838 C840 1.391 . S
C839 C838 1.386 . S
C839 C843 1.393 . S
C840 H829 0.950 . S
C840 C838 1.391 . S
C840 C841 1.400 . S
C841 C835 1.491 1_556 S
C841 C840 1.400 . S
C841 C842 1.398 . S
C842 H830 0.950 . S
C842 C841 1.398 . S
C842 C843 1.391 . S
C843 H831 0.950 . S
C843 C839 1.393 . S
C843 C842 1.391 . S
H844 C852 0.950 . S
H845 C857 0.950 . S
H846 C854 0.950 1_554 S
H847 C856 0.950 . S
H848 C858 0.950 . S
H849 C860 0.950 . S
H850 C862 0.950 . S
H851 C863 0.950 . S
C852 H844 0.950 . S
C852 C853 1.386 . S
C852 C854 1.391 . S
C853 C852 1.386 . S
C853 C857 1.393 . S
C854 H846 0.950 1_556 S
C854 C852 1.391 . S
C854 C855 1.400 . S
C855 C854 1.400 . S
C855 C856 1.398 . S
C855 C861 1.491 1_556 S
C856 H847 0.950 . S
C856 C855 1.398 . S
C856 C857 1.391 . S
C857 H845 0.950 . S
C857 C853 1.393 . S
C857 C856 1.391 . S
C858 H848 0.950 . S
C858 C859 1.386 . S
C858 C860 1.391 1_554 S
C859 C858 1.386 . S
C859 C863 1.393 . S
C860 H849 0.950 . S
C860 C858 1.391 1_556 S
C860 C861 1.400 1_556 S
C861 C855 1.491 1_554 S
C861 C860 1.400 1_554 S
C861 C862 1.398 . S
C862 H850 0.950 . S
C862 C861 1.398 . S
C862 C863 1.391 . S
C863 H851 0.950 . S
C863 C859 1.393 . S
C863 C862 1.391 . S
H864 C872 0.950 . S
H865 C877 0.950 . S
H866 C874 0.950 . S
H867 C876 0.950 . S
H868 C878 0.950 . S
H869 C880 0.950 . S
H870 C882 0.950 . S
H871 C883 0.950 . S
C872 H864 0.950 . S
C872 C873 1.386 . S
C872 C874 1.391 . S
C873 C872 1.386 . S
C873 C877 1.393 . S
C874 H866 0.950 . S
C874 C872 1.391 . S
C874 C875 1.400 . S
C875 C874 1.400 . S
C875 C876 1.398 . S
C875 C881 1.491 . S
C876 H867 0.950 . S
C876 C875 1.398 . S
C876 C877 1.391 . S
C877 H865 0.950 . S
C877 C873 1.393 . S
C877 C876 1.391 . S
C878 H868 0.950 . S
C878 C879 1.386 . S
C878 C880 1.391 . S
C879 C878 1.386 . S
C879 C883 1.393 . S
C880 H869 0.950 . S
C880 C878 1.391 . S
C880 C881 1.400 . S
C881 C875 1.491 . S
C881 C880 1.400 . S
C881 C882 1.398 . S
C882 H870 0.950 . S
C882 C881 1.398 . S
C882 C883 1.391 . S
C883 H871 0.950 . S
C883 C879 1.393 . S
C883 C882 1.391 . S
H884 C892 0.950 . S
H885 C897 0.950 . S
H886 C894 0.950 . S
H887 C896 0.950 . S
H888 C898 0.950 . S
H889 C900 0.950 . S
H890 C902 0.950 . S
H891 C903 0.950 . S
C892 H884 0.950 . S
C892 C893 1.386 . S
C892 C894 1.391 . S
C893 C892 1.386 . S
C893 C897 1.393 . S
C894 H886 0.950 . S
C894 C892 1.391 . S
C894 C895 1.400 . S
C895 C894 1.400 . S
C895 C896 1.398 . S
C895 C901 1.491 . S
C896 H887 0.950 . S
C896 C895 1.398 . S
C896 C897 1.391 . S
C897 H885 0.950 . S
C897 C893 1.393 . S
C897 C896 1.391 . S
C898 H888 0.950 . S
C898 C899 1.386 . S
C898 C900 1.391 . S
C899 C898 1.386 . S
C899 C903 1.393 . S
C900 H889 0.950 . S
C900 C898 1.391 . S
C900 C901 1.400 . S
C901 C895 1.491 . S
C901 C900 1.400 . S
C901 C902 1.398 . S
C902 H890 0.950 . S
C902 C901 1.398 . S
C902 C903 1.391 . S
C903 H891 0.950 . S
C903 C899 1.393 . S
C903 C902 1.391 . S
H904 C912 0.950 . S
H905 C917 0.950 . S
H906 C914 0.950 1_556 S
H907 C916 0.950 . S
H908 C918 0.950 . S
H909 C920 0.950 . S
H910 C922 0.950 . S
H911 C923 0.950 . S
C912 H904 0.950 . S
C912 C913 1.386 . S
C912 C914 1.391 . S
C913 C912 1.386 . S
C913 C917 1.393 . S
C914 H906 0.950 1_554 S
C914 C912 1.391 . S
C914 C915 1.400 . S
C915 C914 1.400 . S
C915 C916 1.398 . S
C915 C921 1.491 1_554 S
C916 H907 0.950 . S
C916 C915 1.398 . S
C916 C917 1.391 . S
C917 H905 0.950 . S
C917 C913 1.393 . S
C917 C916 1.391 . S
C918 H908 0.950 . S
C918 C919 1.386 . S
C918 C920 1.391 1_556 S
C919 C918 1.386 . S
C919 C923 1.393 . S
C920 H909 0.950 . S
C920 C918 1.391 1_554 S
C920 C921 1.400 1_554 S
C921 C915 1.491 1_556 S
C921 C920 1.400 1_556 S
C921 C922 1.398 . S
C922 H910 0.950 . S
C922 C921 1.398 . S
C922 C923 1.391 . S
C923 H911 0.950 . S
C923 C919 1.393 . S
C923 C922 1.391 . S
H924 C932 0.950 . S
H925 C937 0.950 . S
H926 C934 0.950 . S
H927 C936 0.950 1_556 S
H928 C938 0.950 . S
H929 C940 0.950 . S
H930 C942 0.950 . S
H931 C943 0.950 1_554 S
C932 H924 0.950 . S
C932 C933 1.386 . S
C932 C934 1.391 . S
C933 C932 1.386 . S
C933 C937 1.393 . S
C934 H926 0.950 . S
C934 C932 1.391 . S
C934 C935 1.400 . S
C935 C934 1.400 . S
C935 C936 1.398 . S
C935 C941 1.491 1_554 S
C936 H927 0.950 1_554 S
C936 C935 1.398 . S
C936 C937 1.391 . S
C937 H925 0.950 . S
C937 C933 1.393 . S
C937 C936 1.391 . S
C938 H928 0.950 . S
C938 C939 1.386 . S
C938 C940 1.391 . S
C939 C938 1.386 . S
C939 C943 1.393 . S
C940 H929 0.950 . S
C940 C938 1.391 . S
C940 C941 1.400 . S
C941 C935 1.491 1_556 S
C941 C940 1.400 . S
C941 C942 1.398 1_556 S
C942 H930 0.950 . S
C942 C941 1.398 1_554 S
C942 C943 1.391 1_554 S
C943 H931 0.950 1_556 S
C943 C939 1.393 . S
C943 C942 1.391 1_556 S
H944 C952 0.950 . S
H945 C957 0.950 . S
H946 C954 0.950 . S
H947 C956 0.950 . S
H948 C958 0.950 . S
H949 C960 0.950 . S
H950 C962 0.950 . S
H951 C963 0.950 . S
C952 H944 0.950 . S
C952 C953 1.386 . S
C952 C954 1.391 . S
C953 C952 1.386 . S
C953 C957 1.393 . S
C954 H946 0.950 . S
C954 C952 1.391 . S
C954 C955 1.400 . S
C955 C954 1.400 . S
C955 C956 1.398 . S
C955 C961 1.491 . S
C956 H947 0.950 . S
C956 C955 1.398 . S
C956 C957 1.391 . S
C957 H945 0.950 . S
C957 C953 1.393 . S
C957 C956 1.391 . S
C958 H948 0.950 . S
C958 C959 1.386 . S
C958 C960 1.391 . S
C959 C958 1.386 . S
C959 C963 1.393 . S
C960 H949 0.950 . S
C960 C958 1.391 . S
C960 C961 1.400 . S
C961 C955 1.491 . S
C961 C960 1.400 . S
C961 C962 1.398 . S
C962 H950 0.950 . S
C962 C961 1.398 . S
C962 C963 1.391 . S
C963 H951 0.950 . S
C963 C959 1.393 . S
C963 C962 1.391 . S
H964 C972 0.950 . S
H965 C977 0.950 . S
H966 C974 0.950 . S
H967 C976 0.950 . S
H968 C978 0.950 . S
H969 C980 0.950 . S
H970 C982 0.950 . S
H971 C983 0.950 . S
C972 H964 0.950 . S
C972 C973 1.386 . S
C972 C974 1.391 . S
C973 C972 1.386 . S
C973 C977 1.393 . S
C974 H966 0.950 . S
C974 C972 1.391 . S
C974 C975 1.400 . S
C975 C974 1.400 . S
C975 C976 1.398 . S
C975 C981 1.491 . S
C976 H967 0.950 . S
C976 C975 1.398 . S
C976 C977 1.391 . S
C977 H965 0.950 . S
C977 C973 1.393 . S
C977 C976 1.391 . S
C978 H968 0.950 . S
C978 C979 1.386 . S
C978 C980 1.391 . S
C979 C978 1.386 . S
C979 C983 1.393 . S
C980 H969 0.950 . S
C980 C978 1.391 . S
C980 C981 1.400 . S
C981 C975 1.491 . S
C981 C980 1.400 . S
C981 C982 1.398 . S
C982 H970 0.950 . S
C982 C981 1.398 . S
C982 C983 1.391 . S
C983 H971 0.950 . S
C983 C979 1.393 . S
C983 C982 1.391 . S
H984 C992 0.950 . S
H985 C997 0.950 . S
H986 C994 0.950 . S
H987 C996 0.950 . S
H988 C998 0.950 . S
H989 C1000 0.950 . S
H990 C1002 0.950 1_554 S
H991 C1003 0.950 . S
C992 H984 0.950 . S
C992 C993 1.386 . S
C992 C994 1.391 . S
C993 C992 1.386 . S
C993 C997 1.393 . S
C994 H986 0.950 . S
C994 C992 1.391 . S
C994 C995 1.400 . S
C995 C994 1.400 . S
C995 C996 1.398 1_554 S
C995 C1001 1.491 1_554 S
C996 H987 0.950 . S
C996 C995 1.398 1_556 S
C996 C997 1.391 1_556 S
C997 H985 0.950 . S
C997 C993 1.393 . S
C997 C996 1.391 1_554 S
C998 H988 0.950 . S
C998 C999 1.386 . S
C998 C1000 1.391 . S
C999 C998 1.386 . S
C999 C1003 1.393 . S
C1000 H989 0.950 . S
C1000 C998 1.391 . S
C1000 C1001 1.400 . S
C1001 C995 1.491 1_556 S
C1001 C1000 1.400 . S
C1001 C1002 1.398 . S
C1002 H990 0.950 1_556 S
C1002 C1001 1.398 . S
C1002 C1003 1.391 . S
C1003 H991 0.950 . S
C1003 C999 1.393 . S
C1003 C1002 1.391 . S
H1004 C1012 0.950 . S
H1005 C1017 0.950 . S
H1006 C1014 0.962 . S
H1007 C1016 0.950 . S
H1008 C1018 0.950 . S
H1009 C1020 0.935 1_556 S
H1010 C1022 0.950 . S
H1011 C1023 0.950 . S
C1012 H1004 0.950 . S
C1012 C1013 1.386 . S
C1012 C1014 1.391 . S
C1013 C1012 1.386 . S
C1013 C1017 1.393 . S
C1014 H1006 0.962 . S
C1014 C1012 1.391 . S
C1014 C1015 1.400 . S
C1015 C1014 1.400 . S
C1015 C1016 1.398 . S
C1015 C1021 1.491 1_556 S
C1016 H1007 0.950 . S
C1016 C1015 1.398 . S
C1016 C1017 1.391 . S
C1017 H1005 0.950 . S
C1017 C1013 1.393 . S
C1017 C1016 1.391 . S
C1018 H1008 0.950 . S
C1018 C1019 1.386 . S
C1018 C1020 1.405 . S
C1019 C1018 1.386 . S
C1019 C1023 1.393 . S
C1020 H1009 0.935 1_554 S
C1020 C1018 1.405 . S
C1020 C1021 1.402 . S
C1021 C1015 1.491 1_554 S
C1021 C1020 1.402 . S
C1021 C1022 1.398 . S
C1022 H1010 0.950 . S
C1022 C1021 1.398 . S
C1022 C1023 1.391 . S
C1023 H1011 0.950 . S
C1023 C1019 1.393 . S
C1023 C1022 1.391 . S
H1024 C1032 0.950 . S
H1025 C1037 0.950 . S
H1026 C1034 0.950 . S
H1027 C1036 0.950 . S
H1028 C1038 0.950 . S
H1029 C1040 0.950 . S
H1030 C1042 0.950 . S
H1031 C1043 0.950 . S
C1032 H1024 0.950 . S
C1032 C1033 1.386 . S
C1032 C1034 1.391 . S
C1033 C1032 1.386 . S
C1033 C1037 1.393 1_565 S
C1034 H1026 0.950 . S
C1034 C1032 1.391 . S
C1034 C1035 1.411 . S
C1035 C1034 1.411 . S
C1035 C1036 1.388 1_565 S
C1035 C1041 1.490 1_565 S
C1036 H1027 0.950 . S
C1036 C1035 1.388 1_545 S
C1036 C1037 1.391 . S
C1037 H1025 0.950 . S
C1037 C1033 1.393 1_545 S
C1037 C1036 1.391 . S
C1038 H1028 0.950 . S
C1038 C1039 1.386 . S
C1038 C1040 1.391 . S
C1039 C1038 1.386 . S
C1039 C1043 1.393 1_545 S
C1040 H1029 0.950 . S
C1040 C1038 1.391 . S
C1040 C1041 1.411 . S
C1041 C1035 1.490 1_545 S
C1041 C1040 1.411 . S
C1041 C1042 1.388 1_545 S
C1042 H1030 0.950 . S
C1042 C1041 1.388 1_565 S
C1042 C1043 1.391 . S
C1043 H1031 0.950 . S
C1043 C1039 1.393 1_565 S
C1043 C1042 1.391 . S
H1044 C1052 0.950 . S
H1045 C1057 0.950 . S
H1046 C1054 0.950 . S
H1047 C1056 0.950 . S
H1048 C1058 0.950 . S
H1049 C1060 0.950 . S
H1050 C1062 0.950 . S
H1051 C1063 0.950 . S
C1052 H1044 0.950 . S
C1052 C1053 1.386 1_545 S
C1052 C1054 1.391 . S
C1053 C1052 1.386 1_565 S
C1053 C1057 1.393 . S
C1054 H1046 0.950 . S
C1054 C1052 1.391 . S
C1054 C1055 1.400 1_545 S
C1055 C1054 1.400 1_565 S
C1055 C1056 1.398 . S
C1055 C1061 1.491 1_565 S
C1056 H1047 0.950 . S
C1056 C1055 1.398 . S
C1056 C1057 1.391 . S
C1057 H1045 0.950 . S
C1057 C1053 1.393 . S
C1057 C1056 1.391 . S
C1058 H1048 0.950 . S
C1058 C1059 1.386 1_565 S
C1058 C1060 1.391 . S
C1059 C1058 1.386 1_545 S
C1059 C1063 1.393 . S
C1060 H1049 0.950 . S
C1060 C1058 1.391 . S
C1060 C1061 1.400 1_565 S
C1061 C1055 1.491 1_545 S
C1061 C1060 1.400 1_545 S
C1061 C1062 1.398 . S
C1062 H1050 0.950 . S
C1062 C1061 1.398 . S
C1062 C1063 1.391 . S
C1063 H1051 0.950 . S
C1063 C1059 1.393 . S
C1063 C1062 1.391 . S
H1064 C1072 0.950 . S
H1065 C1077 0.950 . S
H1066 C1074 0.950 . S
H1067 C1076 0.950 . S
H1068 C1078 0.950 . S
H1069 C1080 0.950 . S
H1070 C1082 0.950 . S
H1071 C1083 0.950 . S
C1072 H1064 0.950 . S
C1072 C1073 1.386 1_545 S
C1072 C1074 1.391 . S
C1073 C1072 1.386 1_565 S
C1073 C1077 1.393 . S
C1074 H1066 0.950 . S
C1074 C1072 1.391 . S
C1074 C1075 1.400 1_545 S
C1075 C1074 1.400 1_565 S
C1075 C1076 1.398 . S
C1075 C1081 1.491 1_565 S
C1076 H1067 0.950 . S
C1076 C1075 1.398 . S
C1076 C1077 1.391 . S
C1077 H1065 0.950 . S
C1077 C1073 1.393 . S
C1077 C1076 1.391 . S
C1078 H1068 0.950 . S
C1078 C1079 1.386 1_565 S
C1078 C1080 1.391 . S
C1079 C1078 1.386 1_545 S
C1079 C1083 1.393 . S
C1080 H1069 0.950 . S
C1080 C1078 1.391 . S
C1080 C1081 1.400 1_565 S
C1081 C1075 1.491 1_545 S
C1081 C1080 1.400 1_545 S
C1081 C1082 1.398 . S
C1082 H1070 0.950 . S
C1082 C1081 1.398 . S
C1082 C1083 1.391 . S
C1083 H1071 0.950 . S
C1083 C1079 1.393 . S
C1083 C1082 1.391 . S
H1084 C1092 0.950 . S
H1085 C1097 0.950 . S
H1086 C1094 0.950 . S
H1087 C1096 0.950 . S
H1088 C1098 0.950 . S
H1089 C1100 0.950 . S
H1090 C1102 0.950 . S
H1091 C1103 0.950 . S
C1092 H1084 0.950 . S
C1092 C1093 1.386 . S
C1092 C1094 1.391 . S
C1093 C1092 1.386 . S
C1093 C1097 1.393 1_545 S
C1094 H1086 0.950 . S
C1094 C1092 1.391 . S
C1094 C1095 1.400 . S
C1095 C1094 1.400 . S
C1095 C1096 1.398 1_545 S
C1095 C1101 1.491 1_545 S
C1096 H1087 0.950 . S
C1096 C1095 1.398 1_565 S
C1096 C1097 1.391 . S
C1097 H1085 0.950 . S
C1097 C1093 1.393 1_565 S
C1097 C1096 1.391 . S
C1098 H1088 0.950 . S
C1098 C1099 1.386 . S
C1098 C1100 1.391 . S
C1099 C1098 1.386 . S
C1099 C1103 1.393 1_565 S
C1100 H1089 0.950 . S
C1100 C1098 1.391 . S
C1100 C1101 1.400 . S
C1101 C1095 1.491 1_565 S
C1101 C1100 1.400 . S
C1101 C1102 1.398 1_565 S
C1102 H1090 0.950 . S
C1102 C1101 1.398 1_545 S
C1102 C1103 1.391 . S
C1103 H1091 0.950 . S
C1103 C1099 1.393 1_545 S
C1103 C1102 1.391 . S
H1104 C1112 0.950 . S
H1105 C1117 0.950 . S
H1106 C1114 0.950 . S
H1107 C1116 0.950 . S
H1108 C1118 0.950 . S
H1109 C1120 0.950 . S
H1110 C1122 0.950 . S
H1111 C1123 0.950 . S
C1112 H1104 0.950 . S
C1112 C1113 1.386 . S
C1112 C1114 1.391 . S
C1113 C1112 1.386 . S
C1113 C1117 1.393 . S
C1114 H1106 0.950 . S
C1114 C1112 1.391 . S
C1114 C1115 1.400 . S
C1115 C1114 1.400 . S
C1115 C1116 1.398 . S
C1115 C1121 1.491 . S
C1116 H1107 0.950 . S
C1116 C1115 1.398 . S
C1116 C1117 1.391 . S
C1117 H1105 0.950 . S
C1117 C1113 1.393 . S
C1117 C1116 1.391 . S
C1118 H1108 0.950 . S
C1118 C1119 1.386 . S
C1118 C1120 1.391 . S
C1119 C1118 1.386 . S
C1119 C1123 1.393 . S
C1120 H1109 0.950 . S
C1120 C1118 1.391 . S
C1120 C1121 1.400 . S
C1121 C1115 1.491 . S
C1121 C1120 1.400 . S
C1121 C1122 1.398 . S
C1122 H1110 0.950 . S
C1122 C1121 1.398 . S
C1122 C1123 1.391 . S
C1123 H1111 0.950 . S
C1123 C1119 1.393 . S
C1123 C1122 1.391 . S
H1124 C1132 0.950 . S
H1125 C1137 0.950 . S
H1126 C1134 0.950 . S
H1127 C1136 0.950 . S
H1128 C1138 0.950 . S
H1129 C1140 0.950 . S
H1130 C1142 0.950 . S
H1131 C1143 0.950 . S
C1132 H1124 0.950 . S
C1132 C1133 1.386 . S
C1132 C1134 1.391 . S
C1133 C1132 1.386 . S
C1133 C1137 1.393 . S
C1134 H1126 0.950 . S
C1134 C1132 1.391 . S
C1134 C1135 1.400 . S
C1135 C1134 1.400 . S
C1135 C1136 1.398 . S
C1135 C1141 1.491 . S
C1136 H1127 0.950 . S
C1136 C1135 1.398 . S
C1136 C1137 1.391 . S
C1137 H1125 0.950 . S
C1137 C1133 1.393 . S
C1137 C1136 1.391 . S
C1138 H1128 0.950 . S
C1138 C1139 1.386 . S
C1138 C1140 1.391 . S
C1139 C1138 1.386 . S
C1139 C1143 1.393 . S
C1140 H1129 0.950 . S
C1140 C1138 1.391 . S
C1140 C1141 1.400 . S
C1141 C1135 1.491 . S
C1141 C1140 1.400 . S
C1141 C1142 1.398 . S
C1142 H1130 0.950 . S
C1142 C1141 1.398 . S
C1142 C1143 1.391 . S
C1143 H1131 0.950 . S
C1143 C1139 1.393 . S
C1143 C1142 1.391 . S
H1144 C1152 0.950 . S
H1145 C1157 0.950 . S
H1146 C1154 0.950 . S
H1147 C1156 0.950 . S
H1148 C1158 0.950 . S
H1149 C1160 0.950 . S
H1150 C1162 0.950 . S
H1151 C1163 0.950 . S
C1152 H1144 0.950 . S
C1152 C1153 1.386 . S
C1152 C1154 1.391 . S
C1153 C1152 1.386 . S
C1153 C1157 1.393 . S
C1154 H1146 0.950 . S
C1154 C1152 1.391 . S
C1154 C1155 1.400 . S
C1155 C1154 1.400 . S
C1155 C1156 1.398 . S
C1155 C1161 1.491 . S
C1156 H1147 0.950 . S
C1156 C1155 1.398 . S
C1156 C1157 1.391 . S
C1157 H1145 0.950 . S
C1157 C1153 1.393 . S
C1157 C1156 1.391 . S
C1158 H1148 0.950 . S
C1158 C1159 1.386 . S
C1158 C1160 1.391 . S
C1159 C1158 1.386 . S
C1159 C1163 1.393 . S
C1160 H1149 0.950 . S
C1160 C1158 1.391 . S
C1160 C1161 1.400 . S
C1161 C1155 1.491 . S
C1161 C1160 1.400 . S
C1161 C1162 1.398 . S
C1162 H1150 0.950 . S
C1162 C1161 1.398 . S
C1162 C1163 1.391 . S
C1163 H1151 0.950 . S
C1163 C1159 1.393 . S
C1163 C1162 1.391 . S
H1164 C1172 0.950 . S
H1165 C1177 0.950 . S
H1166 C1174 0.950 . S
H1167 C1176 0.950 . S
H1168 C1178 0.950 . S
H1169 C1180 0.950 . S
H1170 C1182 0.950 . S
H1171 C1183 0.950 . S
C1172 H1164 0.950 . S
C1172 C1173 1.386 . S
C1172 C1174 1.391 . S
C1173 C1172 1.386 . S
C1173 C1177 1.393 . S
C1174 H1166 0.950 . S
C1174 C1172 1.391 . S
C1174 C1175 1.400 . S
C1175 C1174 1.400 . S
C1175 C1176 1.398 . S
C1175 C1181 1.491 . S
C1176 H1167 0.950 . S
C1176 C1175 1.398 . S
C1176 C1177 1.391 . S
C1177 H1165 0.950 . S
C1177 C1173 1.393 . S
C1177 C1176 1.391 . S
C1178 H1168 0.950 . S
C1178 C1179 1.386 . S
C1178 C1180 1.391 . S
C1179 C1178 1.386 . S
C1179 C1183 1.393 . S
C1180 H1169 0.950 . S
C1180 C1178 1.391 . S
C1180 C1181 1.400 . S
C1181 C1175 1.491 . S
C1181 C1180 1.400 . S
C1181 C1182 1.398 . S
C1182 H1170 0.950 . S
C1182 C1181 1.398 . S
C1182 C1183 1.391 . S
C1183 H1171 0.950 . S
C1183 C1179 1.393 . S
C1183 C1182 1.391 . S
H1184 C1192 0.950 . S
H1185 C1197 0.950 1_545 S
H1186 C1194 0.950 . S
H1187 C1196 0.950 . S
H1188 C1198 0.950 . S
H1189 C1200 0.950 . S
H1190 C1202 0.950 . S
H1191 C1203 0.950 . S
C1192 H1184 0.950 . S
C1192 C1193 1.386 . S
C1192 C1194 1.391 . S
C1193 C1192 1.386 . S
C1193 C1197 1.393 . S
C1194 H1186 0.950 . S
C1194 C1192 1.391 . S
C1194 C1195 1.400 . S
C1195 C1194 1.400 . S
C1195 C1196 1.398 . S
C1195 C1201 1.491 . S
C1196 H1187 0.950 . S
C1196 C1195 1.398 . S
C1196 C1197 1.391 . S
C1197 H1185 0.950 1_565 S
C1197 C1193 1.393 . S
C1197 C1196 1.391 . S
C1198 H1188 0.950 . S
C1198 C1199 1.386 . S
C1198 C1200 1.391 . S
C1199 C1198 1.386 . S
C1199 C1203 1.393 . S
C1200 H1189 0.950 . S
C1200 C1198 1.391 . S
C1200 C1201 1.400 . S
C1201 C1195 1.491 . S
C1201 C1200 1.400 . S
C1201 C1202 1.398 . S
C1202 H1190 0.950 . S
C1202 C1201 1.398 . S
C1202 C1203 1.391 . S
C1203 H1191 0.950 . S
C1203 C1199 1.393 . S
C1203 C1202 1.391 . S
H1204 C1212 0.950 . S
H1205 C1217 0.950 . S
H1206 C1214 0.950 . S
H1207 C1216 0.950 1_565 S
H1208 C1218 0.950 . S
H1209 C1220 0.950 . S
H1210 C1222 0.950 . S
H1211 C1223 0.950 . S
C1212 H1204 0.950 . S
C1212 C1213 1.386 . S
C1212 C1214 1.391 . S
C1213 C1212 1.386 . S
C1213 C1217 1.393 . S
C1214 H1206 0.950 . S
C1214 C1212 1.391 . S
C1214 C1215 1.400 . S
C1215 C1214 1.400 . S
C1215 C1216 1.398 . S
C1215 C1221 1.491 . S
C1216 H1207 0.950 1_545 S
C1216 C1215 1.398 . S
C1216 C1217 1.391 . S
C1217 H1205 0.950 . S
C1217 C1213 1.393 . S
C1217 C1216 1.391 . S
C1218 H1208 0.950 . S
C1218 C1219 1.386 1_565 S
C1218 C1220 1.391 . S
C1219 C1218 1.386 1_545 S
C1219 C1223 1.393 . S
C1220 H1209 0.950 . S
C1220 C1218 1.391 . S
C1220 C1221 1.400 1_565 S
C1221 C1215 1.491 . S
C1221 C1220 1.400 1_545 S
C1221 C1222 1.398 . S
C1222 H1210 0.950 . S
C1222 C1221 1.398 . S
C1222 C1223 1.391 . S
C1223 H1211 0.950 . S
C1223 C1219 1.393 . S
C1223 C1222 1.391 . S
H1224 C1232 0.950 . S
H1225 C1237 0.950 . S
H1226 C1234 0.950 . S
H1227 C1236 0.950 . S
H1228 C1238 0.950 1_565 S
H1229 C1240 0.939 1_565 S
H1230 C1242 0.950 . S
H1231 C1243 0.950 . S
C1232 H1224 0.950 . S
C1232 C1233 1.386 . S
C1232 C1234 1.391 . S
C1233 C1232 1.386 . S
C1233 C1237 1.393 1_545 S
C1234 H1226 0.950 . S
C1234 C1232 1.391 . S
C1234 C1235 1.400 . S
C1235 C1234 1.400 . S
C1235 C1236 1.398 1_545 S
C1235 C1241 1.491 . S
C1236 H1227 0.950 . S
C1236 C1235 1.398 1_565 S
C1236 C1237 1.391 . S
C1237 H1225 0.950 . S
C1237 C1233 1.393 1_565 S
C1237 C1236 1.391 . S
C1238 H1228 0.950 1_545 S
C1238 C1239 1.386 . S
C1238 C1240 1.393 . S
C1239 C1238 1.386 . S
C1239 C1243 1.393 . S
C1240 H1229 0.939 1_545 S
C1240 C1238 1.393 . S
C1240 C1241 1.409 . S
C1241 C1235 1.491 . S
C1241 C1240 1.409 . S
C1241 C1242 1.398 . S
C1242 H1230 0.950 . S
C1242 C1241 1.398 . S
C1242 C1243 1.391 . S
C1243 H1231 0.950 . S
C1243 C1239 1.393 . S
C1243 C1242 1.391 . S
H1244 C1252 0.950 . S
H1245 C1257 0.950 1_545 S
H1246 C1254 0.950 . S
H1247 C1256 0.950 . S
H1248 C1258 0.950 . S
H1249 C1260 0.950 . S
H1250 C1262 0.950 . S
H1251 C1263 0.950 . S
C1252 H1244 0.950 . S
C1252 C1253 1.386 . S
C1252 C1254 1.391 . S
C1253 C1252 1.386 . S
C1253 C1257 1.393 . S
C1254 H1246 0.950 . S
C1254 C1252 1.391 . S
C1254 C1255 1.400 . S
C1255 C1254 1.400 . S
C1255 C1256 1.398 1_565 S
C1255 C1261 1.491 . S
C1256 H1247 0.950 . S
C1256 C1255 1.398 1_545 S
C1256 C1257 1.391 1_545 S
C1257 H1245 0.950 1_565 S
C1257 C1253 1.393 . S
C1257 C1256 1.391 1_565 S
C1258 H1248 0.950 . S
C1258 C1259 1.386 1_545 S
C1258 C1260 1.391 . S
C1259 C1258 1.386 1_565 S
C1259 C1263 1.393 . S
C1260 H1249 0.950 . S
C1260 C1258 1.391 . S
C1260 C1261 1.400 1_545 S
C1261 C1255 1.491 . S
C1261 C1260 1.400 1_565 S
C1261 C1262 1.398 . S
C1262 H1250 0.950 . S
C1262 C1261 1.398 . S
C1262 C1263 1.391 . S
C1263 H1251 0.950 . S
C1263 C1259 1.393 . S
C1263 C1262 1.391 . S
H1264 C1272 0.950 . S
H1265 C1277 0.950 . S
H1266 C1274 0.949 1_565 S
H1267 C1276 0.950 . S
H1268 C1278 0.950 . S
H1269 C1280 0.950 . S
H1270 C1282 0.950 1_565 S
H1271 C1283 0.950 . S
C1272 H1264 0.950 . S
C1272 C1273 1.386 1_565 S
C1272 C1274 1.391 1_565 S
C1273 C1272 1.386 1_545 S
C1273 C1277 1.393 . S
C1274 H1266 0.949 1_545 S
C1274 C1272 1.391 1_545 S
C1274 C1275 1.401 . S
C1275 C1274 1.401 . S
C1275 C1276 1.398 . S
C1275 C1281 1.491 . S
C1276 H1267 0.950 . S
C1276 C1275 1.398 . S
C1276 C1277 1.391 . S
C1277 H1265 0.950 . S
C1277 C1273 1.393 . S
C1277 C1276 1.391 . S
C1278 H1268 0.950 . S
C1278 C1279 1.386 . S
C1278 C1280 1.391 . S
C1279 C1278 1.386 . S
C1279 C1283 1.393 . S
C1280 H1269 0.950 . S
C1280 C1278 1.391 . S
C1280 C1281 1.400 . S
C1281 C1275 1.491 . S
C1281 C1280 1.400 . S
C1281 C1282 1.398 . S
C1282 H1270 0.950 1_545 S
C1282 C1281 1.398 . S
C1282 C1283 1.391 . S
C1283 H1271 0.950 . S
C1283 C1279 1.393 . S
C1283 C1282 1.391 . S
H1284 C1292 0.950 1_545 S
H1285 C1297 0.950 . S
H1286 C1294 0.950 . S
H1287 C1296 0.950 . S
H1288 C1298 0.950 . S
H1289 C1300 0.950 . S
H1290 C1302 0.950 . S
H1291 C1303 0.950 . S
C1292 H1284 0.950 1_565 S
C1292 C1293 1.386 . S
C1292 C1294 1.391 . S
C1293 C1292 1.386 . S
C1293 C1297 1.393 . S
C1294 H1286 0.950 . S
C1294 C1292 1.391 . S
C1294 C1295 1.400 . S
C1295 C1294 1.400 . S
C1295 C1296 1.398 . S
C1295 C1301 1.491 . S
C1296 H1287 0.950 . S
C1296 C1295 1.398 . S
C1296 C1297 1.391 . S
C1297 H1285 0.950 . S
C1297 C1293 1.393 . S
C1297 C1296 1.391 . S
C1298 H1288 0.950 . S
C1298 C1299 1.386 . S
C1298 C1300 1.391 . S
C1299 C1298 1.386 . S
C1299 C1303 1.393 . S
C1300 H1289 0.950 . S
C1300 C1298 1.391 . S
C1300 C1301 1.400 . S
C1301 C1295 1.491 . S
C1301 C1300 1.400 . S
C1301 C1302 1.398 . S
C1302 H1290 0.950 . S
C1302 C1301 1.398 . S
C1302 C1303 1.391 . S
C1303 H1291 0.950 . S
C1303 C1299 1.393 . S
C1303 C1302 1.391 . S
H1304 C1312 0.950 . S
H1305 C1317 0.950 . S
H1306 C1314 0.950 . S
H1307 C1316 0.950 . S
H1308 C1318 0.950 . S
H1309 C1320 0.950 1_545 S
H1310 C1322 0.950 . S
H1311 C1323 0.950 . S
C1312 H1304 0.950 . S
C1312 C1313 1.386 . S
C1312 C1314 1.391 . S
C1313 C1312 1.386 . S
C1313 C1317 1.393 1_565 S
C1314 H1306 0.950 . S
C1314 C1312 1.391 . S
C1314 C1315 1.400 . S
C1315 C1314 1.400 . S
C1315 C1316 1.398 1_565 S
C1315 C1321 1.491 . S
C1316 H1307 0.950 . S
C1316 C1315 1.398 1_545 S
C1316 C1317 1.391 . S
C1317 H1305 0.950 . S
C1317 C1313 1.393 1_545 S
C1317 C1316 1.391 . S
C1318 H1308 0.950 . S
C1318 C1319 1.386 . S
C1318 C1320 1.391 . S
C1319 C1318 1.386 . S
C1319 C1323 1.393 . S
C1320 H1309 0.950 1_565 S
C1320 C1318 1.391 . S
C1320 C1321 1.400 . S
C1321 C1315 1.491 . S
C1321 C1320 1.400 . S
C1321 C1322 1.398 . S
C1322 H1310 0.950 . S
C1322 C1321 1.398 . S
C1322 C1323 1.391 . S
C1323 H1311 0.950 . S
C1323 C1319 1.393 . S
C1323 C1322 1.391 . S
H1324 C1332 0.950 . S
H1325 C1337 0.950 . S
H1326 C1334 0.950 . S
H1327 C1336 0.950 . S
H1328 C1338 0.950 . S
H1329 C1340 0.950 . S
H1330 C1342 0.950 1_565 S
H1331 C1343 0.950 . S
C1332 H1324 0.950 . S
C1332 C1333 1.386 . S
C1332 C1334 1.391 . S
C1333 C1332 1.386 . S
C1333 C1337 1.393 . S
C1334 H1326 0.950 . S
C1334 C1332 1.391 . S
C1334 C1335 1.400 . S
C1335 C1334 1.400 . S
C1335 C1336 1.398 . S
C1335 C1341 1.491 . S
C1336 H1327 0.950 . S
C1336 C1335 1.398 . S
C1336 C1337 1.391 . S
C1337 H1325 0.950 . S
C1337 C1333 1.393 . S
C1337 C1336 1.391 . S
C1338 H1328 0.950 . S
C1338 C1339 1.386 . S
C1338 C1340 1.391 . S
C1339 C1338 1.386 . S
C1339 C1343 1.393 1_545 S
C1340 H1329 0.950 . S
C1340 C1338 1.391 . S
C1340 C1341 1.400 . S
C1341 C1335 1.491 . S
C1341 C1340 1.400 . S
C1341 C1342 1.398 . S
C1342 H1330 0.950 1_545 S
C1342 C1341 1.398 . S
C1342 C1343 1.391 1_545 S
C1343 H1331 0.950 . S
C1343 C1339 1.393 1_565 S
C1343 C1342 1.391 1_565 S
H1344 C1352 0.950 . S
H1345 C1357 0.950 . S
H1346 C1354 0.950 . S
H1347 C1356 0.950 . S
H1348 C1358 0.950 . S
H1349 C1360 0.950 . S
H1350 C1362 0.950 . S
H1351 C1363 0.950 . S
C1352 H1344 0.950 . S
C1352 C1353 1.386 . S
C1352 C1354 1.391 . S
C1353 C1352 1.386 . S
C1353 C1357 1.393 . S
C1354 H1346 0.950 . S
C1354 C1352 1.391 . S
C1354 C1355 1.400 . S
C1355 C1354 1.400 . S
C1355 C1356 1.398 . S
C1355 C1361 1.491 . S
C1356 H1347 0.950 . S
C1356 C1355 1.398 . S
C1356 C1357 1.391 . S
C1357 H1345 0.950 . S
C1357 C1353 1.393 . S
C1357 C1356 1.391 . S
C1358 H1348 0.950 . S
C1358 C1359 1.386 . S
C1358 C1360 1.391 . S
C1359 C1358 1.386 . S
C1359 C1363 1.393 . S
C1360 H1349 0.950 . S
C1360 C1358 1.391 . S
C1360 C1361 1.400 . S
C1361 C1355 1.491 . S
C1361 C1360 1.400 . S
C1361 C1362 1.398 . S
C1362 H1350 0.950 . S
C1362 C1361 1.398 . S
C1362 C1363 1.391 . S
C1363 H1351 0.950 . S
C1363 C1359 1.393 . S
C1363 C1362 1.391 . S
H1364 C1372 0.950 . S
H1365 C1377 0.950 . S
H1366 C1374 0.950 . S
H1367 C1376 0.950 . S
H1368 C1378 0.950 . S
H1369 C1380 0.950 . S
H1370 C1382 0.950 . S
H1371 C1383 0.950 . S
C1372 H1364 0.950 . S
C1372 C1373 1.386 . S
C1372 C1374 1.391 . S
C1373 C1372 1.386 . S
C1373 C1377 1.393 . S
C1374 H1366 0.950 . S
C1374 C1372 1.391 . S
C1374 C1375 1.400 . S
C1375 C1374 1.400 . S
C1375 C1376 1.398 . S
C1375 C1381 1.491 . S
C1376 H1367 0.950 . S
C1376 C1375 1.398 . S
C1376 C1377 1.391 . S
C1377 H1365 0.950 . S
C1377 C1373 1.393 . S
C1377 C1376 1.391 . S
C1378 H1368 0.950 . S
C1378 C1379 1.386 . S
C1378 C1380 1.391 . S
C1379 C1378 1.386 . S
C1379 C1383 1.393 . S
C1380 H1369 0.950 . S
C1380 C1378 1.391 . S
C1380 C1381 1.400 . S
C1381 C1375 1.491 . S
C1381 C1380 1.400 . S
C1381 C1382 1.398 . S
C1382 H1370 0.950 . S
C1382 C1381 1.398 . S
C1382 C1383 1.391 . S
C1383 H1371 0.950 . S
C1383 C1379 1.393 . S
C1383 C1382 1.391 . S
H1384 C1392 0.950 . S
H1385 C1397 0.950 . S
H1386 C1394 0.950 . S
H1387 C1396 0.950 . S
H1388 C1398 0.950 . S
H1389 C1400 0.950 . S
H1390 C1402 0.950 . S
H1391 C1403 0.950 . S
C1392 H1384 0.950 . S
C1392 C1393 1.386 . S
C1392 C1394 1.391 . S
C1393 C1392 1.386 . S
C1393 C1397 1.393 . S
C1394 H1386 0.950 . S
C1394 C1392 1.391 . S
C1394 C1395 1.400 . S
C1395 C1394 1.400 . S
C1395 C1396 1.398 . S
C1395 C1401 1.491 . S
C1396 H1387 0.950 . S
C1396 C1395 1.398 . S
C1396 C1397 1.391 . S
C1397 H1385 0.950 . S
C1397 C1393 1.393 . S
C1397 C1396 1.391 . S
C1398 H1388 0.950 . S
C1398 C1399 1.386 . S
C1398 C1400 1.391 . S
C1399 C1398 1.386 . S
C1399 C1403 1.393 . S
C1400 H1389 0.950 . S
C1400 C1398 1.391 . S
C1400 C1401 1.400 . S
C1401 C1395 1.491 . S
C1401 C1400 1.400 . S
C1401 C1402 1.398 . S
C1402 H1390 0.950 . S
C1402 C1401 1.398 . S
C1402 C1403 1.391 . S
C1403 H1391 0.950 . S
C1403 C1399 1.393 . S
C1403 C1402 1.391 . S
H1404 C1412 0.950 . S
H1405 C1417 0.950 . S
H1406 C1414 0.950 . S
H1407 C1416 0.950 . S
H1408 C1418 0.950 . S
H1409 C1420 0.950 . S
H1410 C1422 0.950 . S
H1411 C1423 0.950 . S
C1412 H1404 0.950 . S
C1412 C1413 1.386 . S
C1412 C1414 1.391 . S
C1413 C1412 1.386 . S
C1413 C1417 1.393 . S
C1414 H1406 0.950 . S
C1414 C1412 1.391 . S
C1414 C1415 1.400 . S
C1415 C1414 1.400 . S
C1415 C1416 1.398 . S
C1415 C1421 1.491 . S
C1416 H1407 0.950 . S
C1416 C1415 1.398 . S
C1416 C1417 1.391 . S
C1417 H1405 0.950 . S
C1417 C1413 1.393 . S
C1417 C1416 1.391 . S
C1418 H1408 0.950 . S
C1418 C1419 1.386 . S
C1418 C1420 1.391 . S
C1419 C1418 1.386 . S
C1419 C1423 1.393 . S
C1420 H1409 0.950 . S
C1420 C1418 1.391 . S
C1420 C1421 1.400 . S
C1421 C1415 1.491 . S
C1421 C1420 1.400 . S
C1421 C1422 1.398 . S
C1422 H1410 0.950 . S
C1422 C1421 1.398 . S
C1422 C1423 1.391 . S
C1423 H1411 0.950 . S
C1423 C1419 1.393 . S
C1423 C1422 1.391 . S
H1424 C1432 0.950 . S
H1425 C1437 0.950 . S
H1426 C1434 0.950 . S
H1427 C1436 0.950 . S
H1428 C1438 0.950 . S
H1429 C1440 0.950 . S
H1430 C1442 0.950 . S
H1431 C1443 0.950 . S
C1432 H1424 0.950 . S
C1432 C1433 1.386 . S
C1432 C1434 1.391 . S
C1433 C1432 1.386 . S
C1433 C1437 1.393 . S
C1434 H1426 0.950 . S
C1434 C1432 1.391 . S
C1434 C1435 1.400 . S
C1435 C1434 1.400 . S
C1435 C1436 1.398 . S
C1435 C1441 1.491 . S
C1436 H1427 0.950 . S
C1436 C1435 1.398 . S
C1436 C1437 1.391 . S
C1437 H1425 0.950 . S
C1437 C1433 1.393 . S
C1437 C1436 1.391 . S
C1438 H1428 0.950 . S
C1438 C1439 1.386 . S
C1438 C1440 1.391 . S
C1439 C1438 1.386 . S
C1439 C1443 1.393 . S
C1440 H1429 0.950 . S
C1440 C1438 1.391 . S
C1440 C1441 1.400 . S
C1441 C1435 1.491 . S
C1441 C1440 1.400 . S
C1441 C1442 1.398 . S
C1442 H1430 0.950 . S
C1442 C1441 1.398 . S
C1442 C1443 1.391 . S
C1443 H1431 0.950 . S
C1443 C1439 1.393 . S
C1443 C1442 1.391 . S
H1444 C1452 0.950 . S
H1445 C1457 0.950 . S
H1446 C1454 0.950 . S
H1447 C1456 0.950 . S
H1448 C1458 0.950 . S
H1449 C1460 0.950 . S
H1450 C1462 0.950 . S
H1451 C1463 0.950 . S
C1452 H1444 0.950 . S
C1452 C1453 1.386 . S
C1452 C1454 1.391 . S
C1453 C1452 1.386 . S
C1453 C1457 1.393 . S
C1454 H1446 0.950 . S
C1454 C1452 1.391 . S
C1454 C1455 1.400 . S
C1455 C1454 1.400 . S
C1455 C1456 1.398 . S
C1455 C1461 1.491 . S
C1456 H1447 0.950 . S
C1456 C1455 1.398 . S
C1456 C1457 1.391 . S
C1457 H1445 0.950 . S
C1457 C1453 1.393 . S
C1457 C1456 1.391 . S
C1458 H1448 0.950 . S
C1458 C1459 1.386 . S
C1458 C1460 1.391 . S
C1459 C1458 1.386 . S
C1459 C1463 1.393 . S
C1460 H1449 0.950 . S
C1460 C1458 1.391 . S
C1460 C1461 1.400 . S
C1461 C1455 1.491 . S
C1461 C1460 1.400 . S
C1461 C1462 1.398 . S
C1462 H1450 0.950 . S
C1462 C1461 1.398 . S
C1462 C1463 1.391 . S
C1463 H1451 0.950 . S
C1463 C1459 1.393 . S
C1463 C1462 1.391 . S
H1464 C1472 0.950 . S
H1465 C1477 0.950 . S
H1466 C1474 0.950 . S
H1467 C1476 0.950 . S
H1468 C1478 0.950 . S
H1469 C1480 0.950 . S
H1470 C1482 0.950 . S
H1471 C1483 0.950 . S
C1472 H1464 0.950 . S
C1472 C1473 1.386 . S
C1472 C1474 1.391 . S
C1473 C1472 1.386 . S
C1473 C1477 1.393 . S
C1474 H1466 0.950 . S
C1474 C1472 1.391 . S
C1474 C1475 1.400 . S
C1475 C1474 1.400 . S
C1475 C1476 1.398 . S
C1475 C1481 1.491 . S
C1476 H1467 0.950 . S
C1476 C1475 1.398 . S
C1476 C1477 1.391 . S
C1477 H1465 0.950 . S
C1477 C1473 1.393 . S
C1477 C1476 1.391 . S
C1478 H1468 0.950 . S
C1478 C1479 1.386 . S
C1478 C1480 1.391 . S
C1479 C1478 1.386 . S
C1479 C1483 1.393 . S
C1480 H1469 0.950 . S
C1480 C1478 1.391 . S
C1480 C1481 1.400 . S
C1481 C1475 1.491 . S
C1481 C1480 1.400 . S
C1481 C1482 1.398 . S
C1482 H1470 0.950 . S
C1482 C1481 1.398 . S
C1482 C1483 1.391 . S
C1483 H1471 0.950 . S
C1483 C1479 1.393 . S
C1483 C1482 1.391 . S
H1484 C1492 0.950 . S
H1485 C1497 0.950 . S
H1486 C1494 0.950 . S
H1487 C1496 0.950 . S
H1488 C1498 0.950 . S
H1489 C1500 0.950 . S
H1490 C1502 0.950 . S
H1491 C1503 0.950 . S
C1492 H1484 0.950 . S
C1492 C1493 1.386 . S
C1492 C1494 1.391 . S
C1493 C1492 1.386 . S
C1493 C1497 1.393 . S
C1494 H1486 0.950 . S
C1494 C1492 1.391 . S
C1494 C1495 1.400 . S
C1495 C1494 1.400 . S
C1495 C1496 1.398 . S
C1495 C1501 1.491 . S
C1496 H1487 0.950 . S
C1496 C1495 1.398 . S
C1496 C1497 1.391 . S
C1497 H1485 0.950 . S
C1497 C1493 1.393 . S
C1497 C1496 1.391 . S
C1498 H1488 0.950 . S
C1498 C1499 1.386 . S
C1498 C1500 1.391 . S
C1499 C1498 1.386 . S
C1499 C1503 1.393 . S
C1500 H1489 0.950 . S
C1500 C1498 1.391 . S
C1500 C1501 1.400 . S
C1501 C1495 1.491 . S
C1501 C1500 1.400 . S
C1501 C1502 1.398 . S
C1502 H1490 0.950 . S
C1502 C1501 1.398 . S
C1502 C1503 1.391 . S
C1503 H1491 0.950 . S
C1503 C1499 1.393 . S
C1503 C1502 1.391 . S
H1504 C1512 0.950 . S
H1505 C1517 0.950 . S
H1506 C1514 0.950 . S
H1507 C1516 0.950 . S
H1508 C1518 0.950 . S
H1509 C1520 0.950 . S
H1510 C1522 0.950 . S
H1511 C1523 0.950 . S
C1512 H1504 0.950 . S
C1512 C1513 1.386 . S
C1512 C1514 1.391 . S
C1513 C1512 1.386 . S
C1513 C1517 1.393 . S
C1514 H1506 0.950 . S
C1514 C1512 1.391 . S
C1514 C1515 1.400 . S
C1515 C1514 1.400 . S
C1515 C1516 1.398 . S
C1515 C1521 1.491 . S
C1516 H1507 0.950 . S
C1516 C1515 1.398 . S
C1516 C1517 1.391 . S
C1517 H1505 0.950 . S
C1517 C1513 1.393 . S
C1517 C1516 1.391 . S
C1518 H1508 0.950 . S
C1518 C1519 1.386 . S
C1518 C1520 1.391 . S
C1519 C1518 1.386 . S
C1519 C1523 1.393 . S
C1520 H1509 0.950 . S
C1520 C1518 1.391 . S
C1520 C1521 1.400 . S
C1521 C1515 1.491 . S
C1521 C1520 1.400 . S
C1521 C1522 1.398 . S
C1522 H1510 0.950 . S
C1522 C1521 1.398 . S
C1522 C1523 1.391 . S
C1523 H1511 0.950 . S
C1523 C1519 1.393 . S
C1523 C1522 1.391 . S
H1524 C1532 0.950 . S
H1525 C1537 0.950 . S
H1526 C1534 0.950 . S
H1527 C1536 0.950 . S
H1528 C1538 0.950 . S
H1529 C1540 0.950 . S
H1530 C1542 0.950 . S
H1531 C1543 0.950 . S
C1532 H1524 0.950 . S
C1532 C1533 1.386 . S
C1532 C1534 1.391 . S
C1533 C1532 1.386 . S
C1533 C1537 1.393 . S
C1534 H1526 0.950 . S
C1534 C1532 1.391 . S
C1534 C1535 1.400 . S
C1535 C1534 1.400 . S
C1535 C1536 1.398 . S
C1535 C1541 1.491 . S
C1536 H1527 0.950 . S
C1536 C1535 1.398 . S
C1536 C1537 1.391 . S
C1537 H1525 0.950 . S
C1537 C1533 1.393 . S
C1537 C1536 1.391 . S
C1538 H1528 0.950 . S
C1538 C1539 1.386 . S
C1538 C1540 1.391 . S
C1539 C1538 1.386 . S
C1539 C1543 1.393 . S
C1540 H1529 0.950 . S
C1540 C1538 1.391 . S
C1540 C1541 1.400 . S
C1541 C1535 1.491 . S
C1541 C1540 1.400 . S
C1541 C1542 1.398 . S
C1542 H1530 0.950 . S
C1542 C1541 1.398 . S
C1542 C1543 1.391 . S
C1543 H1531 0.950 . S
C1543 C1539 1.393 . S
C1543 C1542 1.391 . S
H1544 C1552 0.950 . S
H1545 C1557 0.950 . S
H1546 C1554 0.950 . S
H1547 C1556 0.950 . S
H1548 C1558 0.950 . S
H1549 C1560 0.950 . S
H1550 C1562 0.950 . S
H1551 C1563 0.950 . S
C1552 H1544 0.950 . S
C1552 C1553 1.386 . S
C1552 C1554 1.391 . S
C1553 C1552 1.386 . S
C1553 C1557 1.393 . S
C1554 H1546 0.950 . S
C1554 C1552 1.391 . S
C1554 C1555 1.400 . S
C1555 C1554 1.400 . S
C1555 C1556 1.398 . S
C1555 C1561 1.491 . S
C1556 H1547 0.950 . S
C1556 C1555 1.398 . S
C1556 C1557 1.391 . S
C1557 H1545 0.950 . S
C1557 C1553 1.393 . S
C1557 C1556 1.391 . S
C1558 H1548 0.950 . S
C1558 C1559 1.386 . S
C1558 C1560 1.391 . S
C1559 C1558 1.386 . S
C1559 C1563 1.393 . S
C1560 H1549 0.950 . S
C1560 C1558 1.391 . S
C1560 C1561 1.400 . S
C1561 C1555 1.491 . S
C1561 C1560 1.400 . S
C1561 C1562 1.398 . S
C1562 H1550 0.950 . S
C1562 C1561 1.398 . S
C1562 C1563 1.391 . S
C1563 H1551 0.950 . S
C1563 C1559 1.393 . S
C1563 C1562 1.391 . S
H1564 C1572 0.950 . S
H1565 C1577 0.950 . S
H1566 C1574 0.950 . S
H1567 C1576 0.950 . S
H1568 C1578 0.950 . S
H1569 C1580 0.950 . S
H1570 C1582 0.950 . S
H1571 C1583 0.950 . S
C1572 H1564 0.950 . S
C1572 C1573 1.386 . S
C1572 C1574 1.391 . S
C1573 C1572 1.386 . S
C1573 C1577 1.393 . S
C1574 H1566 0.950 . S
C1574 C1572 1.391 . S
C1574 C1575 1.400 . S
C1575 C1574 1.400 . S
C1575 C1576 1.398 . S
C1575 C1581 1.491 . S
C1576 H1567 0.950 . S
C1576 C1575 1.398 . S
C1576 C1577 1.391 . S
C1577 H1565 0.950 . S
C1577 C1573 1.393 . S
C1577 C1576 1.391 . S
C1578 H1568 0.950 . S
C1578 C1579 1.386 . S
C1578 C1580 1.391 . S
C1579 C1578 1.386 . S
C1579 C1583 1.393 . S
C1580 H1569 0.950 . S
C1580 C1578 1.391 . S
C1580 C1581 1.400 . S
C1581 C1575 1.491 . S
C1581 C1580 1.400 . S
C1581 C1582 1.398 . S
C1582 H1570 0.950 . S
C1582 C1581 1.398 . S
C1582 C1583 1.391 . S
C1583 H1571 0.950 . S
C1583 C1579 1.393 . S
C1583 C1582 1.391 . S
H1584 C1592 0.950 . S
H1585 C1597 0.950 . S
H1586 C1594 0.950 . S
H1587 C1596 0.950 . S
H1588 C1598 0.950 . S
H1589 C1600 0.950 . S
H1590 C1602 0.950 . S
H1591 C1603 0.950 . S
C1592 H1584 0.950 . S
C1592 C1593 1.386 . S
C1592 C1594 1.391 . S
C1593 C1592 1.386 . S
C1593 C1597 1.393 . S
C1594 H1586 0.950 . S
C1594 C1592 1.391 . S
C1594 C1595 1.400 . S
C1595 C1594 1.400 . S
C1595 C1596 1.398 . S
C1595 C1601 1.491 . S
C1596 H1587 0.950 . S
C1596 C1595 1.398 . S
C1596 C1597 1.391 . S
C1597 H1585 0.950 . S
C1597 C1593 1.393 . S
C1597 C1596 1.391 . S
C1598 H1588 0.950 . S
C1598 C1599 1.386 . S
C1598 C1600 1.391 . S
C1599 C1598 1.386 . S
C1599 C1603 1.393 . S
C1600 H1589 0.950 . S
C1600 C1598 1.391 . S
C1600 C1601 1.400 . S
C1601 C1595 1.491 . S
C1601 C1600 1.400 . S
C1601 C1602 1.398 . S
C1602 H1590 0.950 . S
C1602 C1601 1.398 . S
C1602 C1603 1.391 . S
C1603 H1591 0.950 . S
C1603 C1599 1.393 . S
C1603 C1602 1.391 . S
H1604 C1612 0.950 . S
H1605 C1617 0.950 . S
H1606 C1614 0.950 . S
H1607 C1616 0.950 . S
H1608 C1618 0.950 . S
H1609 C1620 0.950 . S
H1610 C1622 0.950 . S
H1611 C1623 0.950 . S
C1612 H1604 0.950 . S
C1612 C1613 1.386 . S
C1612 C1614 1.391 . S
C1613 C1612 1.386 . S
C1613 C1617 1.393 . S
C1614 H1606 0.950 . S
C1614 C1612 1.391 . S
C1614 C1615 1.400 . S
C1615 C1614 1.400 . S
C1615 C1616 1.398 . S
C1615 C1621 1.491 . S
C1616 H1607 0.950 . S
C1616 C1615 1.398 . S
C1616 C1617 1.391 . S
C1617 H1605 0.950 . S
C1617 C1613 1.393 . S
C1617 C1616 1.391 . S
C1618 H1608 0.950 . S
C1618 C1619 1.386 . S
C1618 C1620 1.391 . S
C1619 C1618 1.386 . S
C1619 C1623 1.393 . S
C1620 H1609 0.950 . S
C1620 C1618 1.391 . S
C1620 C1621 1.400 . S
C1621 C1615 1.491 . S
C1621 C1620 1.400 . S
C1621 C1622 1.398 . S
C1622 H1610 0.950 . S
C1622 C1621 1.398 . S
C1622 C1623 1.391 . S
C1623 H1611 0.950 . S
C1623 C1619 1.393 . S
C1623 C1622 1.391 . S
H1624 C1632 0.950 . S
H1625 C1637 0.950 . S
H1626 C1634 0.950 . S
H1627 C1636 0.950 . S
H1628 C1638 0.950 . S
H1629 C1640 0.950 . S
H1630 C1642 0.950 . S
H1631 C1643 0.950 . S
C1632 H1624 0.950 . S
C1632 C1633 1.386 . S
C1632 C1634 1.391 . S
C1633 C1632 1.386 . S
C1633 C1637 1.393 . S
C1634 H1626 0.950 . S
C1634 C1632 1.391 . S
C1634 C1635 1.400 . S
C1635 C1634 1.400 . S
C1635 C1636 1.398 . S
C1635 C1641 1.491 . S
C1636 H1627 0.950 . S
C1636 C1635 1.398 . S
C1636 C1637 1.391 . S
C1637 H1625 0.950 . S
C1637 C1633 1.393 . S
C1637 C1636 1.391 . S
C1638 H1628 0.950 . S
C1638 C1639 1.386 . S
C1638 C1640 1.391 . S
C1639 C1638 1.386 . S
C1639 C1643 1.393 . S
C1640 H1629 0.950 . S
C1640 C1638 1.391 . S
C1640 C1641 1.400 . S
C1641 C1635 1.491 . S
C1641 C1640 1.400 . S
C1641 C1642 1.398 . S
C1642 H1630 0.950 . S
C1642 C1641 1.398 . S
C1642 C1643 1.391 . S
C1643 H1631 0.950 . S
C1643 C1639 1.393 . S
C1643 C1642 1.391 . S
H1644 C1652 0.950 . S
H1645 C1657 0.950 . S
H1646 C1654 0.950 . S
H1647 C1656 0.950 . S
H1648 C1658 0.950 . S
H1649 C1660 0.950 . S
H1650 C1662 0.950 . S
H1651 C1663 0.950 . S
C1652 H1644 0.950 . S
C1652 C1653 1.386 . S
C1652 C1654 1.391 . S
C1653 C1652 1.386 . S
C1653 C1657 1.393 . S
C1654 H1646 0.950 . S
C1654 C1652 1.391 . S
C1654 C1655 1.400 . S
C1655 C1654 1.400 . S
C1655 C1656 1.398 . S
C1655 C1661 1.491 . S
C1656 H1647 0.950 . S
C1656 C1655 1.398 . S
C1656 C1657 1.391 . S
C1657 H1645 0.950 . S
C1657 C1653 1.393 . S
C1657 C1656 1.391 . S
C1658 H1648 0.950 . S
C1658 C1659 1.386 . S
C1658 C1660 1.391 . S
C1659 C1658 1.386 . S
C1659 C1663 1.393 . S
C1660 H1649 0.950 . S
C1660 C1658 1.391 . S
C1660 C1661 1.400 . S
C1661 C1655 1.491 . S
C1661 C1660 1.400 . S
C1661 C1662 1.398 . S
C1662 H1650 0.950 . S
C1662 C1661 1.398 . S
C1662 C1663 1.391 . S
C1663 H1651 0.950 . S
C1663 C1659 1.393 . S
C1663 C1662 1.391 . S
C553 C15 1.550 . S
C559 C151 1.550 . S
C573 C185 1.551 . S
C579 C49 1.551 . S
C593 C226 1.561 . S
C599 C83 1.561 . S
C613 C253 1.555 . S
C619 C117 1.555 . S
C633 C287 1.543 . S
C639 C423 1.543 . S
C653 C457 1.563 . S
C659 C321 1.563 . S
C673 C362 1.541 . S
C679 C491 1.541 . S
C693 C396 1.537 . S
C699 C525 1.537 . S
C713 C17 1.753 . S
C719 C445 1.670 . S
C733 C51 1.750 . S
C739 C411 1.676 . S
C753 C85 1.752 . S
C759 C513 1.671 . S
C773 C479 1.680 . S
C779 C119 1.748 . S
C793 C153 1.766 . S
C799 C309 1.671 . S
C813 C187 1.757 . S
C819 C275 1.691 . S
C833 C375 1.666 . S
C839 C221 1.765 . S
C853 C255 1.764 . S
C859 C341 1.679 . S
C873 C289 1.765 . S
C879 C173 1.666 . S
C893 C139 1.691 . S
C899 C323 1.750 . S
C913 C357 1.751 . S
C919 C241 1.674 . S
C933 C391 1.758 . S
C939 C205 1.690 . S
C953 C425 1.760 . S
C959 C37 1.687 . S
C973 C3 1.667 . S
C979 C459 1.755 . S
C993 C105 1.684 . S
C999 C493 1.762 . S
C1013 C527 1.765 . S
C1019 C71 1.673 . S
C1033 C56 1.792 . S
C1039 C22 1.815 . S
C1053 C90 1.803 . S
C1059 C124 1.797 . S
C1073 C158 1.795 . S
C1079 C192 1.806 . S
C1093 C219 1.816 . S
C1099 C260 1.788 . S
C1113 C328 1.794 . S
C1119 C294 1.813 . S
C1133 C389 1.790 . S
C1139 C355 1.816 . S
C1153 C464 1.814 . S
C1159 C430 1.789 . S
C1173 C498 1.788 . S
C1179 C532 1.815 . S
C1193 C6 1.077 1_565 S
C1199 C266 1.063 . S
C1213 C210 1.063 . S
C1219 C40 1.077 1_545 S
C1233 C74 1.074 1_545 S
C1239 C198 1.066 . S
C1253 C164 1.069 . S
C1259 C108 1.072 1_565 S
C1273 C142 1.077 1_545 S
C1279 C130 1.063 . S
C1293 C176 1.070 1_565 S
C1299 C96 1.077 . S
C1313 C232 1.072 1_565 S
C1319 C62 1.078 . S
C1333 C28 1.063 . S
C1339 C244 1.076 1_545 S
C1353 C278 1.078 . S
C1359 C538 1.063 . S
C1373 C312 1.078 . S
C1379 C504 1.064 . S
C1393 C470 1.077 . S
C1399 C368 1.073 . S
C1413 C402 1.071 . S
C1419 C436 1.072 . S
C1433 C414 1.078 . S
C1439 C380 1.063 . S
C1453 C448 1.071 . S
C1459 C346 1.078 . S
C1473 C482 1.076 . S
C1479 C334 1.064 . S
C1493 C300 1.078 . S
C1499 C516 1.071 . S
C1513 C343 1.755 . S
C1519 C1 1.738 . S
C1533 C35 1.757 . S
C1539 C377 1.749 . S
C1553 C273 1.743 . S
C1559 C69 1.730 . S
C1573 C103 1.748 . S
C1579 C307 1.757 . S
C1593 C137 1.738 . S
C1599 C477 1.755 . S
C1613 C511 1.739 . S
C1619 C171 1.730 . S
C1633 C409 1.755 . S
C1639 C207 1.752 . S
C1653 C443 1.741 . S
C1659 C239 1.757 . S
