# Generated by pormake.
# Topology wme, (6)-cn, num edge types: 1
# Building blocks:
#     Node 0, Type 0, BuildingBlock: CUWYAW_clean_sbu_0, # of connection points: 6
#     Node 1, Type 0, BuildingBlock: CUWYAW_clean_sbu_0, # of connection points: 6
#     Node 2, Type 0, BuildingBlock: CUWYAW_clean_sbu_0, # of connection points: 6
#     Node 3, Type 0, BuildingBlock: CUWYAW_clean_sbu_0, # of connection points: 6
#     Node 4, Type 0, BuildingBlock: CUWYAW_clean_sbu_0, # of connection points: 6
#     Node 5, Type 0, BuildingBlock: CUWYAW_clean_sbu_0, # of connection points: 6
#     Node 6, Type 0, BuildingBlock: CUWYAW_clean_sbu_0, # of connection points: 6
#     Node 7, Type 0, BuildingBlock: CUWYAW_clean_sbu_0, # of connection points: 6
#     Node 8, Type 0, BuildingBlock: CUWYAW_clean_sbu_0, # of connection points: 6
#     Node 9, Type 0, BuildingBlock: CUWYAW_clean_sbu_0, # of connection points: 6
#     Node 10, Type 0, BuildingBlock: CUWYAW_clean_sbu_0, # of connection points: 6
#     Node 11, Type 0, BuildingBlock: CUWYAW_clean_sbu_0, # of connection points: 6
#     Edge 12, Type (0, 0), BuildingBlock: ZUJKAS_clean_linker_0, # of connection points: 2
#     Edge 13, Type (0, 0), BuildingBlock: ZUJKAS_clean_linker_0, # of connection points: 2
#     Edge 14, Type (0, 0), BuildingBlock: ZUJKAS_clean_linker_0, # of connection points: 2
#     Edge 15, Type (0, 0), BuildingBlock: ZUJKAS_clean_linker_0, # of connection points: 2
#     Edge 16, Type (0, 0), BuildingBlock: ZUJKAS_clean_linker_0, # of connection points: 2
#     Edge 17, Type (0, 0), BuildingBlock: ZUJKAS_clean_linker_0, # of connection points: 2
#     Edge 18, Type (0, 0), BuildingBlock: ZUJKAS_clean_linker_0, # of connection points: 2
#     Edge 19, Type (0, 0), BuildingBlock: ZUJKAS_clean_linker_0, # of connection points: 2
#     Edge 20, Type (0, 0), BuildingBlock: ZUJKAS_clean_linker_0, # of connection points: 2
#     Edge 21, Type (0, 0), BuildingBlock: ZUJKAS_clean_linker_0, # of connection points: 2
#     Edge 22, Type (0, 0), BuildingBlock: ZUJKAS_clean_linker_0, # of connection points: 2
#     Edge 23, Type (0, 0), BuildingBlock: ZUJKAS_clean_linker_0, # of connection points: 2
#     Edge 24, Type (0, 0), BuildingBlock: ZUJKAS_clean_linker_0, # of connection points: 2
#     Edge 25, Type (0, 0), BuildingBlock: ZUJKAS_clean_linker_0, # of connection points: 2
#     Edge 26, Type (0, 0), BuildingBlock: ZUJKAS_clean_linker_0, # of connection points: 2
#     Edge 27, Type (0, 0), BuildingBlock: ZUJKAS_clean_linker_0, # of connection points: 2
#     Edge 28, Type (0, 0), BuildingBlock: ZUJKAS_clean_linker_0, # of connection points: 2
#     Edge 29, Type (0, 0), BuildingBlock: ZUJKAS_clean_linker_0, # of connection points: 2
#     Edge 30, Type (0, 0), BuildingBlock: ZUJKAS_clean_linker_0, # of connection points: 2
#     Edge 31, Type (0, 0), BuildingBlock: ZUJKAS_clean_linker_0, # of connection points: 2
#     Edge 32, Type (0, 0), BuildingBlock: ZUJKAS_clean_linker_0, # of connection points: 2
#     Edge 33, Type (0, 0), BuildingBlock: ZUJKAS_clean_linker_0, # of connection points: 2
#     Edge 34, Type (0, 0), BuildingBlock: ZUJKAS_clean_linker_0, # of connection points: 2
#     Edge 35, Type (0, 0), BuildingBlock: ZUJKAS_clean_linker_0, # of connection points: 2
#     Edge 36, Type (0, 0), BuildingBlock: ZUJKAS_clean_linker_0, # of connection points: 2
#     Edge 37, Type (0, 0), BuildingBlock: ZUJKAS_clean_linker_0, # of connection points: 2
#     Edge 38, Type (0, 0), BuildingBlock: ZUJKAS_clean_linker_0, # of connection points: 2
#     Edge 39, Type (0, 0), BuildingBlock: ZUJKAS_clean_linker_0, # of connection points: 2
#     Edge 40, Type (0, 0), BuildingBlock: ZUJKAS_clean_linker_0, # of connection points: 2
#     Edge 41, Type (0, 0), BuildingBlock: ZUJKAS_clean_linker_0, # of connection points: 2
#     Edge 42, Type (0, 0), BuildingBlock: ZUJKAS_clean_linker_0, # of connection points: 2
#     Edge 43, Type (0, 0), BuildingBlock: ZUJKAS_clean_linker_0, # of connection points: 2
#     Edge 44, Type (0, 0), BuildingBlock: ZUJKAS_clean_linker_0, # of connection points: 2
#     Edge 45, Type (0, 0), BuildingBlock: ZUJKAS_clean_linker_0, # of connection points: 2
#     Edge 46, Type (0, 0), BuildingBlock: ZUJKAS_clean_linker_0, # of connection points: 2
#     Edge 47, Type (0, 0), BuildingBlock: ZUJKAS_clean_linker_0, # of connection points: 2
# Relax obj value: 0.081
# Max RMSD: 0.176
# Mean RMSD: 0.176
data_MOF--net-wme--node1-CUWYAW_clean_sbu_0--edge1-ZUJKAS_clean_linker_0
_symmetry_space_group_name_H-M    P1
_symmetry_Int_Tables_number       1
_symmetry_cell_setting            triclinic
loop_
_symmetry_equiv_pos_as_xyz
'x, y, z'
_cell_length_a     49.387737
_cell_length_b     49.452734
_cell_length_c     67.736714
_cell_angle_alpha  90.043166
_cell_angle_beta   89.94881
_cell_angle_gamma 120.11896
loop_
_atom_site_label
_atom_site_type_symbol
_atom_site_fract_x
_atom_site_fract_y
_atom_site_fract_z
_atom_type_partial_charge
C0 C 0.26926 0.28673 0.12489 0.0
Eu1 Eu 0.24774 0.32337 0.1345 0.0
C2 C 0.2591 0.25358 0.12812 0.0
C3 C 0.23503 0.23557 0.14155 0.0
C4 C 0.22286 0.20323 0.14276 0.0
C5 C 0.2343 0.18834 0.13037 0.0
C6 C 0.25881 0.20667 0.11719 0.0
C7 C 0.27111 0.239 0.11612 0.0
C8 C 0.23082 0.33424 0.17062 0.0
C9 C 0.17075 0.28797 0.13382 0.0
C10 C 0.1882 0.39813 0.12878 0.0
Eu11 Eu 0.21241 0.36183 0.12909 0.0
C12 C 0.18897 0.42752 0.13436 0.0
C13 C 0.20972 0.4562 0.12531 0.0
C14 C 0.20613 0.48235 0.12802 0.0
C15 C 0.18159 0.48034 0.1397 0.0
C16 C 0.1618 0.45202 0.14944 0.0
C17 C 0.16541 0.42595 0.14677 0.0
C18 C 0.22582 0.33876 0.09619 0.0
C19 C 0.2879 0.39865 0.1362 0.0
O20 O 0.25045 0.29146 0.1137 0.0
O21 O 0.27928 0.30531 0.14032 0.0
O22 O 0.2461 0.31949 0.16788 0.0
O23 O 0.22546 0.3423 0.15405 0.0
O24 O 0.19625 0.28584 0.13118 0.0
O25 O 0.17178 0.31496 0.13602 0.0
O26 O 0.18177 0.37687 0.14238 0.0
O27 O 0.2077 0.39903 0.11529 0.0
O28 O 0.19967 0.33867 0.09846 0.0
O29 O 0.24289 0.35109 0.11097 0.0
O30 O 0.26123 0.39878 0.13819 0.0
O31 O 0.28887 0.37277 0.13244 0.0
H32 H 0.22508 0.24639 0.1507 0.0
H33 H 0.20381 0.18974 0.15291 0.0
H34 H 0.26839 0.19598 0.10762 0.0
H35 H 0.2895 0.25252 0.10556 0.0
H36 H 0.22794 0.45815 0.11549 0.0
H37 H 0.22169 0.50371 0.12019 0.0
H38 H 0.14299 0.44975 0.15882 0.0
H39 H 0.14888 0.40412 0.15379 0.0
C40 C 0.98869 0.25695 0.63865 0.0
Eu41 Eu 0.92866 0.2364 0.63732 0.0
C42 C 1.00904 0.24282 0.63858 0.0
C43 C 0.02564 0.24413 0.65571 0.0
C44 C 0.0446 0.23058 0.6561 0.0
C45 C 0.04765 0.21562 0.63929 0.0
C46 C 0.03132 0.21461 0.62204 0.0
C47 C 1.01215 0.22799 0.62169 0.0
C48 C 0.89095 0.22461 0.66899 0.0
C49 C 0.89077 0.15977 0.63414 0.0
C50 C 0.79975 0.17532 0.62232 0.0
Eu51 Eu 0.86038 0.20162 0.62695 0.0
C52 C 0.77065 0.17702 0.62279 0.0
C53 C 0.75099 0.16678 0.6062 0.0
C54 C 0.72109 0.16327 0.60698 0.0
C55 C 0.71002 0.16987 0.62442 0.0
C56 C 0.73023 0.18138 0.64082 0.0
C57 C 0.76021 0.1848 0.64005 0.0
C58 C 0.90138 0.21596 0.59624 0.0
C59 C 0.89525 0.27679 0.63366 0.0
O60 O 0.97365 0.25514 0.62236 0.0
O61 O 0.97147 0.25204 0.65438 0.0
O62 O 0.91726 0.25039 0.66627 0.0
O63 O 0.88585 0.20552 0.65502 0.0
O64 O 0.91808 0.18598 0.63261 0.0
O65 O 0.86441 0.16019 0.63489 0.0
O66 O 0.81318 0.17565 0.63903 0.0
O67 O 0.81982 0.18934 0.60803 0.0
O68 O 0.87609 0.18902 0.59819 0.0
O69 O 0.90341 0.23352 0.61022 0.0
O70 O 0.86875 0.24975 0.63478 0.0
O71 O 0.92255 0.27808 0.63168 0.0
H72 H 0.02393 0.25564 0.66888 0.0
H73 H 0.05725 0.23222 0.66952 0.0
H74 H 0.03303 0.20311 0.60887 0.0
H75 H 0.99972 0.22656 0.6082 0.0
H76 H 0.75836 0.16042 0.59276 0.0
H77 H 0.70643 0.15492 0.59396 0.0
H78 H 0.72243 0.18654 0.65452 0.0
H79 H 0.77474 0.19254 0.65314 0.0
C80 C 0.74854 0.99184 0.1328 0.0
Eu81 Eu 0.7122 0.932 0.13779 0.0
C82 C 0.78282 0.01284 0.13086 0.0
C83 C 0.79988 0.03119 0.14709 0.0
C84 C 0.83245 0.04923 0.14633 0.0
C85 C 0.84877 0.04972 0.12923 0.0
C86 C 0.83174 0.03232 0.11269 0.0
C87 C 0.79905 0.01393 0.11352 0.0
C88 C 0.69004 0.89984 0.1723 0.0
C89 C 0.74657 0.89078 0.13939 0.0
C90 C 0.64394 0.79678 0.13157 0.0
Eu91 Eu 0.67113 0.85754 0.1301 0.0
C92 C 0.61381 0.76721 0.12949 0.0
C93 C 0.61151 0.74474 0.11589 0.0
C94 C 0.5848 0.71503 0.11531 0.0
C95 C 0.5598 0.70701 0.12845 0.0
C96 C 0.56173 0.72992 0.14165 0.0
C97 C 0.58844 0.7597 0.14218 0.0
C98 C 0.69141 0.89616 0.09824 0.0
C99 C 0.63532 0.89634 0.13378 0.0
O100 O 0.73351 0.97265 0.1182 0.0
O101 O 0.73903 0.97865 0.15009 0.0
O102 O 0.70836 0.9299 0.17141 0.0
O103 O 0.68502 0.88951 0.15495 0.0
O104 O 0.75041 0.91928 0.1381 0.0
O105 O 0.71883 0.86503 0.13807 0.0
O106 O 0.64746 0.81442 0.14692 0.0
O107 O 0.65723 0.81292 0.11556 0.0
O108 O 0.66426 0.87057 0.09884 0.0
O109 O 0.70628 0.89913 0.11391 0.0
O110 O 0.63331 0.86874 0.13576 0.0
O111 O 0.66255 0.92299 0.13182 0.0
H112 H 0.78804 0.03117 0.16057 0.0
H113 H 0.84491 0.06291 0.15916 0.0
H114 H 0.84376 0.03235 0.0993 0.0
H115 H 0.78663 1.00026 0.10072 0.0
H116 H 0.6308 0.74988 0.10603 0.0
H117 H 0.58392 0.6982 0.10472 0.0
H118 H 0.5431 0.72452 0.15211 0.0
H119 H 0.58954 0.77644 0.15293 0.0
C120 C 0.7675 0.73925 0.62245 0.0
Eu121 Eu 0.78922 0.70257 0.63124 0.0
C122 C 0.77844 0.77261 0.62557 0.0
C123 C 0.80028 0.7896 0.64042 0.0
C124 C 0.81342 0.82207 0.64169 0.0
C125 C 0.80532 0.8381 0.62791 0.0
C126 C 0.78304 0.82085 0.61328 0.0
C127 C 0.76967 0.7884 0.61217 0.0
C128 C 0.81055 0.69488 0.6666 0.0
C129 C 0.86603 0.73716 0.62702 0.0
C130 C 0.84607 0.62603 0.62295 0.0
Eu131 Eu 0.82293 0.6632 0.62452 0.0
C132 C 0.84298 0.59517 0.62708 0.0
C133 C 0.83798 0.57477 0.61128 0.0
C134 C 0.84028 0.54799 0.61399 0.0
C135 C 0.84777 0.54091 0.63259 0.0
C136 C 0.85163 0.56073 0.6486 0.0
C137 C 0.84936 0.58763 0.64587 0.0
C138 C 0.80577 0.68397 0.59222 0.0
C139 C 0.74821 0.62728 0.6347 0.0
O140 O 0.78511 0.73379 0.61054 0.0
O141 O 0.7584 0.72109 0.63809 0.0
O142 O 0.79547 0.7099 0.66425 0.0
O143 O 0.81353 0.68488 0.65004 0.0
O144 O 0.84043 0.73941 0.62542 0.0
O145 O 0.86489 0.71014 0.62936 0.0
O146 O 0.85135 0.64543 0.6376 0.0
O147 O 0.82857 0.62772 0.60905 0.0
O148 O 0.83229 0.68455 0.59341 0.0
O149 O 0.79043 0.67272 0.60776 0.0
O150 O 0.77476 0.62667 0.63505 0.0
O151 O 0.74735 0.65334 0.63144 0.0
H152 H 0.80778 0.77788 0.65069 0.0
H153 H 0.8307 0.83476 0.65301 0.0
H154 H 0.77608 0.83251 0.6026 0.0
H155 H 0.75305 0.77569 0.60053 0.0
H156 H 0.83364 0.58023 0.59654 0.0
H157 H 0.83763 0.53364 0.60124 0.0
H158 H 0.85701 0.5558 0.66319 0.0
H159 H 0.85363 0.60299 0.65833 0.0
C160 C 0.0433 0.76493 0.12549 0.0
Eu161 Eu 0.1019 0.78692 0.13433 0.0
C162 C 0.02002 0.77465 0.12915 0.0
C163 C 0.02206 0.7925 0.14581 0.0
C164 C 1.00196 0.80466 0.14782 0.0
C165 C 0.97983 0.79953 0.13308 0.0
C166 C 0.97757 0.78115 0.1166 0.0
C167 C 0.99747 0.76884 0.11468 0.0
C168 C 0.13041 0.80496 0.17012 0.0
C169 C 0.14332 0.86363 0.13484 0.0
C170 C 0.2354 0.84638 0.12502 0.0
Eu171 Eu 0.17483 0.82209 0.12762 0.0
C172 C 0.26466 0.84673 0.13053 0.0
C173 C 0.27383 0.82747 0.12079 0.0
C174 C 0.30403 0.83211 0.12334 0.0
C175 C 0.32586 0.85627 0.13556 0.0
C176 C 0.31617 0.87461 0.14594 0.0
C177 C 0.286 0.86995 0.14341 0.0
C178 C 0.13694 0.80828 0.09531 0.0
C179 C 0.1376 0.74748 0.13698 0.0
O180 O 0.06648 0.78381 0.11402 0.0
O181 O 0.05245 0.75496 0.14064 0.0
O182 O 0.10028 0.78988 0.16758 0.0
O183 O 0.14381 0.8098 0.15352 0.0
O184 O 0.11574 0.83845 0.13127 0.0
O185 O 0.16918 0.8623 0.13662 0.0
O186 O 0.22187 0.85524 0.13811 0.0
O187 O 0.21543 0.82441 0.11321 0.0
O188 O 0.16267 0.83474 0.09753 0.0
O189 O 0.13299 0.79117 0.10992 0.0
O190 O 0.16424 0.77447 0.13821 0.0
O191 O 0.11041 0.74587 0.13324 0.0
H192 H 0.03972 0.79776 0.15697 0.0
H193 H 1.00446 0.81894 0.16058 0.0
H194 H 0.96053 0.77647 0.10511 0.0
H195 H 0.9958 0.75543 0.10161 0.0
H196 H 0.25817 0.80965 0.11054 0.0
H197 H 0.31072 0.81771 0.11497 0.0
H198 H 0.33216 0.89308 0.15572 0.0
H199 H 0.27983 0.88543 0.15095 0.0
C200 C 0.28665 0.03371 0.63368 0.0
Eu201 Eu 0.3232 0.0933 0.63978 0.0
C202 C 0.2541 0.01349 0.62717 0.0
C203 C 0.23999 0.98107 0.6295 0.0
C204 C 0.20785 0.96178 0.62632 0.0
C205 C 0.18913 0.97455 0.62067 0.0
C206 C 0.20374 1.00707 0.61763 0.0
C207 C 0.23587 0.02636 0.62097 0.0
C208 C 0.34772 0.12366 0.67457 0.0
C209 C 0.28844 0.13453 0.64188 0.0
C210 C 0.39173 0.22869 0.63525 0.0
Eu211 Eu 0.36366 0.16786 0.63309 0.0
C212 C 0.42199 0.25825 0.63302 0.0
C213 C 0.42485 0.28006 0.6187 0.0
C214 C 0.45158 0.30978 0.61793 0.0
C215 C 0.47608 0.31856 0.63158 0.0
C216 C 0.47361 0.29633 0.64554 0.0
C217 C 0.44688 0.26655 0.64627 0.0
C218 C 0.34387 0.13016 0.6007 0.0
C219 C 0.39979 0.12911 0.63533 0.0
O220 O 0.30693 0.0525 0.62054 0.0
O221 O 0.28953 0.04728 0.65076 0.0
O222 O 0.33154 0.09348 0.67295 0.0
O223 O 0.35035 0.13523 0.65769 0.0
O224 O 0.28508 0.10625 0.64035 0.0
O225 O 0.31604 0.16047 0.64099 0.0
O226 O 0.3885 0.2106 0.65027 0.0
O227 O 0.37766 0.21297 0.61926 0.0
O228 O 0.37093 0.15581 0.6016 0.0
O229 O 0.32882 0.12665 0.61639 0.0
O230 O 0.40157 0.15647 0.63818 0.0
O231 O 0.37267 0.10254 0.63282 0.0
H232 H 0.2536 0.97076 0.63457 0.0
H233 H 0.19751 0.93699 0.62914 0.0
H234 H 0.19028 0.01776 0.61301 0.0
H235 H 0.24623 0.0514 0.61938 0.0
H236 H 0.40597 0.27441 0.6084 0.0
H237 H 0.45286 0.32605 0.60677 0.0
H238 H 0.4918 0.3023 0.65642 0.0
H239 H 0.44536 0.25043 0.65761 0.0
C240 C 0.74964 0.76398 0.40577 0.0
Eu241 Eu 0.71375 0.78766 0.39959 0.0
C242 C 0.78311 0.77623 0.40982 0.0
C243 C 0.79841 0.76268 0.40005 0.0
C244 C 0.83092 0.77646 0.40108 0.0
C245 C 0.84873 0.80391 0.41208 0.0
C246 C 0.83331 0.81678 0.42258 0.0
C247 C 0.80073 0.80323 0.42127 0.0
C248 C 0.69126 0.79518 0.36447 0.0
C249 C 0.74725 0.86311 0.39734 0.0
C250 C 0.6439 0.85305 0.40414 0.0
Eu251 Eu 0.67171 0.82011 0.4059 0.0
C252 C 0.61367 0.85224 0.40645 0.0
C253 C 0.61082 0.87102 0.4209 0.0
C254 C 0.58413 0.87398 0.42175 0.0
C255 C 0.5597 0.85839 0.40803 0.0
C256 C 0.56215 0.83876 0.39395 0.0
C257 C 0.58884 0.83574 0.39315 0.0
C258 C 0.69136 0.80252 0.43836 0.0
C259 C 0.63692 0.74563 0.40234 0.0
O260 O 0.73245 0.76641 0.41967 0.0
O261 O 0.74369 0.77079 0.38825 0.0
O262 O 0.7095 0.78348 0.36603 0.0
O263 O 0.68647 0.80189 0.38151 0.0
O264 O 0.75146 0.83882 0.3996 0.0
O265 O 0.71924 0.86057 0.39763 0.0
O266 O 0.64714 0.83844 0.38897 0.0
O267 O 0.65782 0.85105 0.42008 0.0
O268 O 0.66383 0.79992 0.43716 0.0
O269 O 0.70672 0.81467 0.42288 0.0
O270 O 0.63462 0.77092 0.39965 0.0
O271 O 0.66414 0.74673 0.40549 0.0
H272 H 0.78529 0.74203 0.39099 0.0
H273 H 0.84224 0.76594 0.393 0.0
H274 H 0.84657 0.83803 0.43107 0.0
H275 H 0.78956 0.81447 0.42861 0.0
H276 H 0.62969 0.88417 0.43124 0.0
H277 H 0.58284 0.88887 0.43299 0.0
H278 H 0.54398 0.82665 0.38303 0.0
H279 H 0.59036 0.82125 0.38171 0.0
C280 C 0.99266 0.74064 0.89596 0.0
Eu281 Eu 0.93271 0.70098 0.8977 0.0
C282 C 1.01258 0.77508 0.89701 0.0
C283 C 0.03421 0.79108 0.88188 0.0
C284 C 0.05276 0.82369 0.88228 0.0
C285 C 0.05026 0.84102 0.89793 0.0
C286 C 0.02869 0.82497 0.91315 0.0
C287 C 1.0099 0.79235 0.91265 0.0
C288 C 0.89449 0.67466 0.86629 0.0
C289 C 0.89531 0.74008 0.90113 0.0
C290 C 0.80428 0.63333 0.91377 0.0
Eu291 Eu 0.8648 0.66791 0.90863 0.0
C292 C 0.77551 0.60226 0.91277 0.0
C293 C 0.75505 0.59223 0.92898 0.0
C294 C 0.72552 0.56537 0.92773 0.0
C295 C 0.71564 0.54783 0.91017 0.0
C296 C 0.73668 0.55716 0.89417 0.0
C297 C 0.7663 0.5842 0.89542 0.0
C298 C 0.90629 0.69498 0.93906 0.0
C299 C 0.89905 0.62716 0.90166 0.0
O300 O 0.97822 0.72606 0.91214 0.0
O301 O 0.97494 0.72953 0.88032 0.0
O302 O 0.92074 0.6751 0.8689 0.0
O303 O 0.88968 0.68887 0.88026 0.0
O304 O 0.9225 0.74099 0.90261 0.0
O305 O 0.86882 0.71336 0.90063 0.0
O306 O 0.81731 0.64761 0.89723 0.0
O307 O 0.82468 0.63854 0.92766 0.0
O308 O 0.88098 0.69657 0.93726 0.0
O309 O 0.90804 0.67922 0.92513 0.0
O310 O 0.8727 0.62793 0.90061 0.0
O311 O 0.9265 0.65313 0.90337 0.0
H312 H 0.03669 0.77831 0.86967 0.0
H313 H 0.06941 0.83532 0.87046 0.0
H314 H 0.02602 0.83768 0.92531 0.0
H315 H 0.9932 0.78072 0.92446 0.0
H316 H 0.76152 0.60582 0.94249 0.0
H317 H 0.7102 0.55858 0.94046 0.0
H318 H 0.72981 0.54429 0.8804 0.0
H319 H 0.78153 0.59145 0.88264 0.0
C320 C 0.26674 0.98815 0.4003 0.0
Eu321 Eu 0.24711 0.92837 0.40158 0.0
C322 C 0.25223 1.00798 0.40074 0.0
C323 C 0.2651 0.03527 0.38932 0.0
C324 C 0.25189 0.05453 0.38959 0.0
C325 C 0.2255 0.04697 0.40137 0.0
C326 C 0.2124 0.01931 0.41263 0.0
C327 C 0.22559 0.99999 0.41229 0.0
C328 C 0.23414 0.89051 0.3699 0.0
C329 C 0.17102 0.88937 0.40935 0.0
C330 C 0.19137 0.8 0.41641 0.0
Eu331 Eu 0.21506 0.86038 0.41247 0.0
C332 C 0.19264 0.77129 0.41171 0.0
C333 C 0.21089 0.76254 0.42301 0.0
C334 C 0.20775 0.73291 0.4207 0.0
C335 C 0.18609 0.71122 0.40717 0.0
C336 C 0.16875 0.72049 0.39537 0.0
C337 C 0.17193 0.75008 0.39764 0.0
C338 C 0.23172 0.90135 0.44337 0.0
C339 C 0.28937 0.89689 0.40336 0.0
O340 O 0.26519 0.97315 0.41655 0.0
O341 O 0.26149 0.97098 0.38453 0.0
O342 O 0.25954 0.91735 0.37204 0.0
O343 O 0.21582 0.88483 0.38447 0.0
O344 O 0.19684 0.91693 0.40774 0.0
O345 O 0.17178 0.86322 0.40958 0.0
O346 O 0.18339 0.81281 0.40238 0.0
O347 O 0.21194 0.82061 0.4286 0.0
O348 O 0.20552 0.87503 0.44267 0.0
O349 O 0.24771 0.90399 0.42835 0.0
O350 O 0.26262 0.87019 0.40185 0.0
O351 O 0.28987 0.92362 0.40624 0.0
H352 H 0.28546 0.04172 0.38017 0.0
H353 H 0.26228 0.07529 0.38045 0.0
H354 H 0.19231 0.01286 0.42202 0.0
H355 H 0.21509 0.97893 0.42118 0.0
H356 H 0.22672 0.77807 0.43419 0.0
H357 H 0.22129 0.7265 0.43017 0.0
H358 H 0.15221 0.70462 0.38459 0.0
H359 H 0.15723 0.75589 0.38886 0.0
C360 C 0.29094 0.26049 0.91361 0.0
Eu361 Eu 0.32839 0.23927 0.90556 0.0
C362 C 0.25777 0.24968 0.90965 0.0
C363 C 0.23979 0.22289 0.89814 0.0
C364 C 0.20746 0.21055 0.89628 0.0
C365 C 0.19254 0.22477 0.90591 0.0
C366 C 0.21086 0.25196 0.91714 0.0
C367 C 0.24316 0.26421 0.91904 0.0
C368 C 0.34102 0.22119 0.87044 0.0
C369 C 0.29283 0.16211 0.90634 0.0
C370 C 0.40339 0.18077 0.91586 0.0
Eu371 Eu 0.36638 0.20404 0.91335 0.0
C372 C 0.43363 0.18285 0.91077 0.0
C373 C 0.45938 0.19795 0.92359 0.0
C374 C 0.4859 0.19504 0.9209 0.0
C375 C 0.48729 0.17682 0.9054 0.0
C376 C 0.46211 0.16287 0.89206 0.0
C377 C 0.43554 0.16574 0.89477 0.0
C378 C 0.34177 0.2185 0.945 0.0
C379 C 0.40379 0.27906 0.90431 0.0
O380 O 0.2956 0.2423 0.92545 0.0
O381 O 0.31011 0.27021 0.89844 0.0
O382 O 0.3261 0.23651 0.87212 0.0
O383 O 0.34823 0.21645 0.88744 0.0
O384 O 0.29053 0.18764 0.90819 0.0
O385 O 0.32001 0.16311 0.90566 0.0
O386 O 0.38219 0.17297 0.90201 0.0
O387 O 0.40341 0.20073 0.92862 0.0
O388 O 0.34161 0.19226 0.94347 0.0
O389 O 0.35493 0.23514 0.93019 0.0
O390 O 0.40364 0.25218 0.90327 0.0
O391 O 0.37798 0.28048 0.90757 0.0
H392 H 0.25065 0.21114 0.89097 0.0
H393 H 0.19414 0.18979 0.88737 0.0
H394 H 0.20008 0.26325 0.92497 0.0
H395 H 0.2566 0.28457 0.92828 0.0
H396 H 0.45862 0.21104 0.93619 0.0
H397 H 0.50508 0.20652 0.93127 0.0
H398 H 0.46225 0.14846 0.88006 0.0
H399 H 0.41594 0.15338 0.8848 0.0
C400 C 0.04362 0.28677 0.4129 0.0
Eu401 Eu 0.1026 0.32293 0.40465 0.0
C402 C 0.0201 0.25398 0.40887 0.0
C403 C 0.02448 0.23734 0.39359 0.0
C404 C 1.00404 0.20513 0.39153 0.0
C405 C 0.97919 0.18898 0.40491 0.0
C406 C 0.97461 0.20594 0.41995 0.0
C407 C 0.99487 0.23814 0.42188 0.0
C408 C 0.13219 0.33496 0.36915 0.0
C409 C 0.14226 0.28556 0.40382 0.0
C410 C 0.23654 0.39323 0.41467 0.0
Eu411 Eu 0.17579 0.35868 0.41196 0.0
C412 C 0.26573 0.42382 0.41275 0.0
C413 C 0.28368 0.43764 0.42975 0.0
C414 C 0.31363 0.46383 0.42834 0.0
C415 C 0.32648 0.47688 0.40986 0.0
C416 C 0.30804 0.46382 0.39285 0.0
C417 C 0.278 0.43743 0.39426 0.0
C418 C 0.13692 0.33356 0.4437 0.0
C419 C 0.14002 0.3986 0.40539 0.0
O420 O 0.06638 0.29037 0.42448 0.0
O421 O 0.05344 0.30624 0.3979 0.0
O422 O 0.10199 0.32088 0.37124 0.0
O423 O 0.1449 0.34192 0.38599 0.0
O424 O 0.11491 0.28401 0.40681 0.0
O425 O 0.16875 0.3124 0.40264 0.0
O426 O 0.22213 0.37758 0.39872 0.0
O427 O 0.21738 0.38951 0.42914 0.0
O428 O 0.16217 0.33197 0.44135 0.0
O429 O 0.13381 0.34792 0.42942 0.0
O430 O 0.1666 0.39806 0.4049 0.0
O431 O 0.11221 0.37281 0.40718 0.0
H432 H 0.04421 0.24908 0.38362 0.0
H433 H 1.00835 0.19268 0.37993 0.0
H434 H 0.9555 0.19424 0.43035 0.0
H435 H 0.99133 0.25055 0.43387 0.0
H436 H 0.27496 0.42749 0.44417 0.0
H437 H 0.32694 0.4736 0.44175 0.0
H438 H 0.3173 0.47323 0.37838 0.0
H439 H 0.26488 0.42714 0.38085 0.0
C440 C 0.77057 0.03534 0.91396 0.0
Eu441 Eu 0.79162 0.09346 0.90459 0.0
C442 C 0.78104 0.01254 0.91077 0.0
C443 C 0.79765 0.01345 0.89372 0.0
C444 C 0.81024 0.99372 0.89193 0.0
C445 C 0.80678 0.97297 0.90726 0.0
C446 C 0.78982 0.97204 0.92422 0.0
C447 C 0.77708 0.99159 0.92593 0.0
C448 C 0.81136 0.1221 0.86905 0.0
C449 C 0.86871 0.13621 0.90619 0.0
C450 C 0.84807 0.22674 0.91356 0.0
Eu451 Eu 0.82551 0.16649 0.91126 0.0
C452 C 0.84558 0.25481 0.90914 0.0
C453 C 0.83239 0.26585 0.92315 0.0
C454 C 0.83545 0.29539 0.9211 0.0
C455 C 0.85188 0.31473 0.90505 0.0
C456 C 0.86372 0.30309 0.89051 0.0
C457 C 0.86076 0.27352 0.89259 0.0
C458 C 0.80894 0.1284 0.94354 0.0
C459 C 0.75115 0.1279 0.90058 0.0
O460 O 0.78887 0.05884 0.92542 0.0
O461 O 0.7605 0.04385 0.89853 0.0
O462 O 0.79632 0.09197 0.8715 0.0
O463 O 0.81509 0.13536 0.88561 0.0
O464 O 0.84339 0.10824 0.90853 0.0
O465 O 0.86718 0.16197 0.90467 0.0
O466 O 0.85521 0.21343 0.89931 0.0
O467 O 0.82901 0.20676 0.92665 0.0
O468 O 0.83561 0.15418 0.94212 0.0
O469 O 0.79331 0.12449 0.9282 0.0
O470 O 0.77791 0.15486 0.89983 0.0
O471 O 0.74988 0.10096 0.90457 0.0
H472 H 0.8014 0.02979 0.88195 0.0
H473 H 0.82278 0.99484 0.87856 0.0
H474 H 0.78712 0.95686 0.93649 0.0
H475 H 0.76483 0.99097 0.93936 0.0
H476 H 0.82085 0.25225 0.9362 0.0
H477 H 0.82561 0.30343 0.93241 0.0
H478 H 0.87668 0.31745 0.87803 0.0
H479 H 0.87162 0.26597 0.88168 0.0
H480 H 0.19044 0.91526 0.15223 0.0
H481 H 0.19955 0.96836 0.15181 0.0
H482 H 0.11318 0.93699 0.12005 0.0
H483 H 0.10352 0.88311 0.12069 0.0
H484 H 0.20755 1.00181 0.11817 0.0
H485 H 0.10931 0.99399 0.16274 0.0
H486 H 0.12004 0.96405 0.16323 0.0
H487 H 0.09826 0.96647 0.14277 0.0
C488 C 0.1731 0.91945 0.14532 0.0
C489 C 0.14634 0.89494 0.13634 0.0
C490 C 0.17837 0.94989 0.14513 0.0
C491 C 0.15709 0.95673 0.13593 0.0
C492 C 0.12973 0.93221 0.12749 0.0
H493 H 0.21825 0.14843 0.09897 0.0
H494 H 0.19704 0.09187 0.09958 0.0
C495 C 0.12427 0.90145 0.12781 0.0
C496 C 0.16524 0.98992 0.13406 0.0
H497 H 0.14333 0.04276 0.1477 0.0
C498 C 0.19342 1.01073 0.12456 0.0
C499 C 0.14695 1.00157 0.14256 0.0
C500 C 0.11706 0.98049 0.15355 0.0
C501 C 0.20407 0.04286 0.12355 0.0
C502 C 0.18565 0.05454 0.13184 0.0
C503 C 0.1573 0.03373 0.14123 0.0
C504 C 0.19612 0.08845 0.13145 0.0
C505 C 0.23551 0.06412 0.11417 0.0
C506 C 0.2016 0.1052 0.14916 0.0
C507 C 0.21357 0.13756 0.14885 0.0
C508 C 0.22036 0.15378 0.13081 0.0
C509 C 0.21394 0.13675 0.11311 0.0
C510 C 0.20177 0.10441 0.11343 0.0
H511 H 0.25005 0.05282 0.11323 0.0
H512 H 0.23193 0.06997 0.09894 0.0
H513 H 0.24869 0.08625 0.12261 0.0
H514 H 0.19736 0.09336 0.16324 0.0
H515 H 0.21832 0.15001 0.16273 0.0
H516 H 0.28688 0.18877 0.6448 0.0
H517 H 0.24145 0.19545 0.64593 0.0
H518 H 0.18037 0.09549 0.64397 0.0
H519 H 0.22613 0.08841 0.64238 0.0
H520 H 0.16183 0.12629 0.6184 0.0
H521 H 0.18401 0.18168 0.69199 0.0
H522 H 0.2175 0.20159 0.6762 0.0
H523 H 0.20397 0.16174 0.68337 0.0
C524 C 0.26388 0.16803 0.64477 0.0
C525 C 0.26029 0.13797 0.64362 0.0
C526 C 0.23783 0.17197 0.64554 0.0
C527 C 0.20747 0.146 0.64545 0.0
C528 C 0.20362 0.11588 0.64424 0.0
H529 H 0.0524 0.18002 0.66854 0.0
H530 H 0.08781 0.15892 0.67001 0.0
C531 C 0.2298 0.11187 0.6434 0.0
C532 C 0.18006 0.15082 0.64583 0.0
H533 H 0.14982 0.1898 0.67067 0.0
C534 C 0.15891 0.13979 0.62997 0.0
C535 C 0.17588 0.16799 0.66107 0.0
C536 C 0.19636 0.17863 0.67922 0.0
C537 C 0.13465 0.14677 0.62848 0.0
C538 C 0.13188 0.16585 0.64302 0.0
C539 C 0.15213 0.17557 0.65935 0.0
C540 C 0.10884 0.17679 0.64143 0.0
C541 C 0.11224 0.13358 0.61133 0.0
C542 C 0.10883 0.19396 0.62491 0.0
C543 C 0.08853 0.20598 0.62401 0.0
C544 C 0.06812 0.20149 0.63976 0.0
C545 C 0.06805 0.18416 0.65625 0.0
C546 C 0.08819 0.17197 0.65707 0.0
H547 H 0.11091 0.11192 0.60554 0.0
H548 H 0.08834 0.12824 0.61561 0.0
H549 H 0.12063 0.15097 0.59918 0.0
H550 H 0.12513 0.19881 0.6129 0.0
H551 H 0.08952 0.21962 0.61124 0.0
H552 H 0.88946 0.05137 0.15703 0.0
H553 H 0.94633 0.08563 0.15798 0.0
H554 H 0.94327 0.12502 0.1018 0.0
H555 H 0.88634 0.09027 0.10059 0.0
H556 H 0.99438 0.11642 0.10507 0.0
H557 H 0.98418 0.17761 0.17101 0.0
H558 H 0.96813 0.13634 0.17431 0.0
H559 H 0.95061 0.15033 0.15681 0.0
C560 C 0.90096 0.06725 0.14484 0.0
C561 C 0.88346 0.0685 0.12886 0.0
C562 C 0.93342 0.08681 0.14541 0.0
C563 C 0.94895 0.10836 0.13017 0.0
C564 C 0.93173 0.10864 0.11376 0.0
H565 H 0.11432 0.28508 0.13289 0.0
H566 H 0.06255 0.2391 0.13216 0.0
C567 C 0.89925 0.08881 0.11308 0.0
C568 C 0.98276 0.13182 0.13185 0.0
H569 H 0.03507 0.19366 0.15968 0.0
C570 C 1.00339 0.13324 0.11705 0.0
C571 C 0.99436 0.15389 0.14743 0.0
C572 C 0.97318 0.15476 0.1632 0.0
C573 C 0.03521 0.1565 0.11723 0.0
C574 C 0.04673 0.17853 0.13281 0.0
C575 C 0.02623 0.17658 0.14783 0.0
C576 C 0.07894 0.20594 0.13282 0.0
C577 C 0.05589 0.15812 0.10033 0.0
C578 C 0.10562 0.20268 0.13345 0.0
C579 C 0.13568 0.22923 0.13375 0.0
C580 C 0.1394 0.25938 0.13364 0.0
C581 C 0.11251 0.26233 0.13312 0.0
C582 C 0.08275 0.23599 0.13268 0.0
H583 H 0.0421 0.14332 0.08768 0.0
H584 H 0.07054 0.18258 0.0951 0.0
H585 H 0.07179 0.14979 0.10544 0.0
H586 H 0.10322 0.17969 0.13392 0.0
H587 H 0.15589 0.22615 0.13422 0.0
H588 H 0.82996 0.87869 0.59698 0.0
H589 H 0.85338 0.93555 0.59747 0.0
H590 H 0.8378 0.93256 0.66032 0.0
H591 H 0.81501 0.87571 0.65994 0.0
H592 H 0.82605 0.96756 0.60653 0.0
H593 H 0.92605 1.00419 0.65734 0.0
H594 H 0.90477 0.96527 0.6471 0.0
H595 H 0.88995 0.97549 0.66841 0.0
C596 C 0.83171 0.8902 0.61092 0.0
C597 C 0.82057 0.87275 0.62842 0.0
C598 C 0.84525 0.92272 0.61121 0.0
C599 C 0.84788 0.93852 0.62898 0.0
C600 C 0.83695 0.92112 0.64651 0.0
H601 H 0.84078 0.1045 0.64527 0.0
H602 H 0.83455 0.05261 0.64339 0.0
C603 C 0.8237 0.88858 0.64627 0.0
C604 C 0.85941 0.9727 0.62884 0.0
H605 H 0.90937 0.04184 0.65169 0.0
C606 C 0.8446 0.9838 0.61621 0.0
C607 C 0.88395 0.99414 0.64124 0.0
C608 C 0.90232 0.98422 0.65412 0.0
C609 C 0.85261 0.0153 0.61629 0.0
C610 C 0.87558 0.03625 0.62965 0.0
C611 C 0.89151 0.02563 0.64162 0.0
C612 C 0.88123 0.06844 0.63236 0.0
C613 C 0.836 0.0258 0.60223 0.0
C614 C 0.91014 0.09484 0.62757 0.0
C615 C 0.91393 0.12492 0.62871 0.0
C616 C 0.88881 0.12886 0.63467 0.0
C617 C 0.86048 0.10237 0.64029 0.0
C618 C 0.85681 0.07259 0.63922 0.0
H619 H 0.82632 1.00986 0.58934 0.0
H620 H 0.8162 0.02573 0.61004 0.0
H621 H 0.852 0.04987 0.5968 0.0
H622 H 0.92937 0.09209 0.62238 0.0
H623 H 0.93607 0.14488 0.62436 0.0
H624 H 0.96637 0.82923 0.104 0.0
H625 H 0.93196 0.85139 0.10589 0.0
H626 H 0.91296 0.82422 0.16709 0.0
H627 H 0.94774 0.80235 0.16534 0.0
H628 H 0.8708 0.82132 0.11315 0.0
H629 H 0.93051 0.91315 0.1699 0.0
H630 H 0.94911 0.89396 0.15806 0.0
H631 H 0.92235 0.87537 0.17825 0.0
C632 C 0.95492 0.82804 0.11788 0.0
C633 C 0.9597 0.81392 0.13451 0.0
C634 C 0.9354 0.84089 0.11897 0.0
C635 C 0.92019 0.83994 0.1367 0.0
C636 C 0.92507 0.82603 0.15338 0.0
H637 H 0.74693 0.83764 0.14937 0.0
H638 H 0.79091 0.82844 0.14888 0.0
C639 C 0.94482 0.81337 0.15234 0.0
C640 C 0.89746 0.85134 0.13725 0.0
H641 H 0.87756 0.89904 0.16221 0.0
C642 C 0.87252 0.83855 0.12377 0.0
C643 C 0.89985 0.87416 0.15091 0.0
C644 C 0.92708 0.89021 0.16496 0.0
C645 C 0.8494 0.84711 0.12398 0.0
C646 C 0.85084 0.86859 0.13833 0.0
C647 C 0.87633 0.88231 0.15137 0.0
C648 C 0.82512 0.87567 0.14047 0.0
C649 C 0.8235 0.83292 0.10886 0.0
C650 C 0.83 0.90574 0.13674 0.0
C651 C 0.80473 0.91123 0.13709 0.0
C652 C 0.77426 0.88668 0.14119 0.0
C653 C 0.76993 0.85703 0.14585 0.0
C654 C 0.79507 0.85165 0.14556 0.0
H655 H 0.83032 0.82404 0.09581 0.0
H656 H 0.80253 0.81293 0.11561 0.0
H657 H 0.81695 0.85022 0.10378 0.0
H658 H 0.85311 0.92466 0.13292 0.0
H659 H 0.80888 0.93434 0.13348 0.0
H660 H 0.88162 0.79918 0.62789 0.0
H661 H 0.9344 0.84538 0.62524 0.0
H662 H 0.97389 0.78533 0.61986 0.0
H663 H 0.92197 0.73948 0.62263 0.0
H664 H 0.99218 0.85585 0.6517 0.0
H665 H 1.00528 0.84984 0.57056 0.0
H666 H 0.96755 0.83444 0.58242 0.0
H667 H 0.98836 0.8134 0.58381 0.0
C668 C 0.90156 0.79586 0.62612 0.0
C669 C 0.89748 0.76557 0.6255 0.0
C670 C 0.93164 0.82224 0.62463 0.0
C671 C 0.95791 0.81865 0.6222 0.0
C672 C 0.95387 0.78855 0.62158 0.0
H673 H 0.15559 0.91441 0.60651 0.0
H674 H 0.09894 0.87968 0.60685 0.0
C675 C 0.92408 0.76234 0.62325 0.0
C676 C 0.98996 0.84598 0.62066 0.0
H677 H 0.05158 0.88206 0.58878 0.0
C678 C 1.00512 0.8621 0.63792 0.0
C679 C 1.0067 0.85366 0.60268 0.0
C680 C 0.99121 0.83714 0.58372 0.0
C681 C 0.03715 0.88478 0.63786 0.0
C682 C 0.0542 0.89202 0.61991 0.0
C683 C 0.03859 0.87657 0.60252 0.0
C684 C 0.08861 0.91396 0.61906 0.0
C685 C 0.05273 0.89946 0.65722 0.0
C686 C 0.10177 0.94508 0.62541 0.0
C687 C 0.13429 0.9649 0.62557 0.0
C688 C 0.1544 0.95419 0.6191 0.0
C689 C 0.14099 0.92335 0.61199 0.0
C690 C 0.10851 0.9035 0.61201 0.0
H691 H 0.03841 0.88579 0.67007 0.0
H692 H 0.07612 0.9015 0.65832 0.0
H693 H 0.0559 0.92327 0.65822 0.0
H694 H 0.08691 0.95397 0.63047 0.0
H695 H 0.14362 0.98836 0.6313 0.0
H696 H 0.11753 0.84056 0.42369 0.0
H697 H 0.06521 0.83368 0.42379 0.0
H698 H 0.10109 0.92535 0.39838 0.0
H699 H 0.1543 0.93285 0.39867 0.0
H700 H 0.05502 0.9111 0.42756 0.0
H701 H 1.01506 0.81532 0.37301 0.0
H702 H 0.03228 0.80838 0.39429 0.0
H703 H 0.05592 0.84119 0.37847 0.0
C704 C 0.11446 0.8594 0.41815 0.0
C705 C 0.14 0.88705 0.41082 0.0
C706 C 0.08445 0.85536 0.4182 0.0
C707 C 0.0791 0.87861 0.41059 0.0
C708 C 0.1047 0.90696 0.40412 0.0
H709 H 0.8863 0.82036 0.37979 0.0
H710 H 0.94318 0.84366 0.37875 0.0
C711 C 0.13503 0.9112 0.40428 0.0
C712 C 0.04649 0.87235 0.40889 0.0
H713 H 0.97497 0.81866 0.39075 0.0
C714 C 0.03752 0.89115 0.41931 0.0
C715 C 0.02381 0.84669 0.39781 0.0
C716 C 0.0323 0.82695 0.38509 0.0
C717 C 1.00613 0.88409 0.41963 0.0
C718 C 0.98309 0.8571 0.40965 0.0
C719 C 0.99243 0.83914 0.39861 0.0
C720 C 0.94907 0.84649 0.41051 0.0
C721 C 0.9981 0.90576 0.43053 0.0
C722 C 0.93331 0.84058 0.4287 0.0
C723 C 0.90076 0.82764 0.42929 0.0
C724 C 0.88336 0.81968 0.41171 0.0
C725 C 0.89916 0.826 0.39356 0.0
C726 C 0.93166 0.83939 0.39296 0.0
H727 H 0.01862 0.9298 0.43143 0.0
H728 H 0.97852 0.90688 0.4233 0.0
H729 H 0.991 0.89712 0.44585 0.0
H730 H 0.94599 0.84496 0.44245 0.0
H731 H 0.88905 0.82277 0.44346 0.0
H732 H 0.08318 0.87792 0.92923 0.0
H733 H 0.11878 0.93448 0.92948 0.0
H734 H 0.09833 0.93912 0.86808 0.0
H735 H 0.06322 0.88241 0.86767 0.0
H736 H 0.15875 0.97035 0.87381 0.0
H737 H 0.10457 1.00728 0.93124 0.0
H738 H 0.11235 0.97786 0.94039 0.0
H739 H 0.08465 0.96858 0.92062 0.0
C740 C 0.0859 0.89107 0.91587 0.0
C741 C 0.0704 0.87568 0.89843 0.0
C742 C 0.10613 0.92349 0.91605 0.0
C743 C 0.11088 0.94131 0.89889 0.0
C744 C 0.09501 0.92599 0.88154 0.0
H745 H 0.23141 0.14752 0.90126 0.0
H746 H 0.18507 0.09505 0.89809 0.0
C747 C 0.07503 0.89355 0.88129 0.0
C748 C 0.13428 0.97539 0.89862 0.0
H749 H 0.15866 0.04398 0.92356 0.0
C750 C 0.1584 0.98647 0.88454 0.0
C751 C 0.13368 0.99676 0.91233 0.0
C752 C 0.10721 0.98707 0.92685 0.0
C753 C 0.18261 0.01779 0.88438 0.0
C754 C 0.1833 0.03855 0.89904 0.0
C755 C 0.1584 0.02797 0.9125 0.0
C756 C 0.2108 0.07051 0.90139 0.0
C757 C 0.20738 0.02824 0.86854 0.0
C758 C 0.24043 0.0741 0.90478 0.0
C759 C 0.26674 0.10379 0.90647 0.0
C760 C 0.26415 0.13081 0.90508 0.0
C761 C 0.23428 0.12725 0.90231 0.0
C762 C 0.20779 0.0973 0.9005 0.0
H763 H 0.19823 0.01343 0.85512 0.0
H764 H 0.21627 0.05298 0.86431 0.0
H765 H 0.2273 0.02605 0.87414 0.0
H766 H 0.24325 0.05382 0.90611 0.0
H767 H 0.2892 0.10545 0.90891 0.0
H768 H 0.19371 0.28115 0.39501 0.0
H769 H 0.1992 0.23503 0.39554 0.0
H770 H 0.10159 0.17769 0.41039 0.0
H771 H 0.09565 0.22425 0.40998 0.0
H772 H 0.18288 0.19381 0.43116 0.0
H773 H 0.12026 0.13302 0.36222 0.0
H774 H 0.13652 0.17463 0.36538 0.0
H775 H 0.1023 0.14781 0.37894 0.0
C776 C 0.17318 0.25881 0.39828 0.0
C777 C 0.14421 0.25656 0.40259 0.0
C778 C 0.17645 0.23241 0.39856 0.0
C779 C 0.15086 0.20298 0.40299 0.0
C780 C 0.1216 0.20023 0.4068 0.0
H781 H 0.16353 0.03126 0.403 0.0
H782 H 0.1423 0.0666 0.40502 0.0
C783 C 0.11826 0.22685 0.40658 0.0
C784 C 0.15592 0.17591 0.40453 0.0
H785 H 0.14748 0.1124 0.37914 0.0
C786 C 0.17479 0.17574 0.41994 0.0
C787 C 0.14517 0.15231 0.38995 0.0
C788 C 0.12498 0.15172 0.37309 0.0
C789 C 0.18406 0.15318 0.42084 0.0
C790 C 0.17487 0.1306 0.40563 0.0
C791 C 0.15473 0.12985 0.3907 0.0
C792 C 0.1875 0.10894 0.40438 0.0
C793 C 0.20387 0.15396 0.43802 0.0
C794 C 0.21993 0.12094 0.40305 0.0
C795 C 0.23214 0.10088 0.4021 0.0
C796 C 0.2122 0.06823 0.4022 0.0
C797 C 0.17963 0.05624 0.4032 0.0
C798 C 0.16742 0.0764 0.40421 0.0
H799 H 0.20029 0.16531 0.45114 0.0
H800 H 0.19851 0.13006 0.44219 0.0
H801 H 0.22895 0.16777 0.43385 0.0
H802 H 0.23589 0.14595 0.40274 0.0
H803 H 0.25731 0.11104 0.40154 0.0
H804 H 0.15965 0.25537 0.90106 0.0
H805 H 0.10282 0.23281 0.90003 0.0
H806 H 0.09018 0.14044 0.90642 0.0
H807 H 0.14706 0.16286 0.9079 0.0
H808 H 0.05917 0.1869 0.87287 0.0
H809 H 0.03512 0.14584 0.95084 0.0
H810 H 0.0738 0.17431 0.94237 0.0
H811 H 0.05769 0.13377 0.9363 0.0
C812 C 0.14481 0.23027 0.90241 0.0
C813 C 0.15795 0.21096 0.90465 0.0
C814 C 0.11233 0.2174 0.9017 0.0
C815 C 0.09227 0.18498 0.90337 0.0
C816 C 0.10522 0.16555 0.90537 0.0
H817 H 0.88517 0.09053 0.90969 0.0
H818 H 0.9382 0.09775 0.90775 0.0
C819 C 0.13775 0.1784 0.90601 0.0
C820 C 0.05783 0.17179 0.90283 0.0
H821 H 0.99195 0.13729 0.93149 0.0
C822 C 0.04443 0.17579 0.88563 0.0
C823 C 0.03857 0.15699 0.91942 0.0
C824 C 0.05189 0.15256 0.93836 0.0
C825 C 1.01246 0.16621 0.88474 0.0
C826 C 0.99347 0.15283 0.90164 0.0
C827 C 1.00654 0.14753 0.91856 0.0
C828 C 0.96116 0.14765 0.9027 0.0
C829 C 0.99936 0.17094 0.86578 0.0
C830 C 0.95661 0.17329 0.90086 0.0
C831 C 0.92666 0.16932 0.90199 0.0
C832 C 0.90032 0.13953 0.90513 0.0
C833 C 0.90488 0.11375 0.9072 0.0
C834 C 0.93513 0.11784 0.9061 0.0
H835 H 1.01355 0.17167 0.85283 0.0
H836 H 0.97477 0.15207 0.86347 0.0
H837 H 0.99985 0.1936 0.86645 0.0
H838 H 0.97638 0.1966 0.89869 0.0
H839 H 0.9243 0.18983 0.90042 0.0
H840 H 0.95969 0.14663 0.43505 0.0
H841 H 0.92504 0.09 0.43322 0.0
H842 H 0.91721 0.09659 0.3702 0.0
H843 H 0.95231 0.15328 0.37192 0.0
H844 H 0.86571 0.05866 0.42196 0.0
H845 H 0.93419 0.02505 0.37337 0.0
H846 H 0.95087 0.06324 0.38458 0.0
H847 H 0.92767 0.05437 0.3625 0.0
C848 C 0.95063 0.13601 0.42079 0.0
C849 C 0.95867 0.15445 0.40363 0.0
C850 C 0.93096 0.1036 0.41975 0.0
C851 C 0.91886 0.08887 0.40154 0.0
C852 C 0.92691 0.10723 0.38435 0.0
H853 H 0.74773 0.91556 0.38462 0.0
H854 H 0.79102 0.96925 0.38543 0.0
C855 C 0.94683 0.13967 0.38536 0.0
C856 C 0.89613 0.0547 0.4008 0.0
H857 H 0.88025 0.98631 0.37831 0.0
C858 C 0.86909 0.04286 0.41253 0.0
C859 C 0.90066 0.03388 0.38873 0.0
C860 C 0.93008 0.0447 0.37674 0.0
C861 C 0.84609 1.0111 0.41209 0.0
C862 C 0.8498 0.99062 0.39923 0.0
C863 C 0.87727 1.00213 0.38797 0.0
C864 C 0.8247 0.95752 0.39688 0.0
C865 C 0.818 0.99974 0.42548 0.0
C866 C 0.82964 0.93284 0.40213 0.0
C867 C 0.80482 0.90181 0.40155 0.0
C868 C 0.77473 0.89509 0.3957 0.0
C869 C 0.77044 0.91985 0.38951 0.0
C870 C 0.79516 0.95064 0.39 0.0
H871 H 0.8229 0.01581 0.43817 0.0
H872 H 0.79824 0.99863 0.41701 0.0
H873 H 0.81054 0.97601 0.43127 0.0
H874 H 0.85237 0.93765 0.40734 0.0
H875 H 0.80892 0.88329 0.40638 0.0
H876 H 0.84624 0.74575 0.88859 0.0
H877 H 0.84134 0.79228 0.88822 0.0
H878 H 0.93531 0.84717 0.91068 0.0
H879 H 0.94059 0.80019 0.91106 0.0
H880 H 0.88639 0.85304 0.93167 0.0
H881 H 0.88367 0.86941 0.85093 0.0
H882 H 0.85841 0.82983 0.85886 0.0
H883 H 0.90008 0.84739 0.86174 0.0
C884 C 0.86606 0.76769 0.89334 0.0
C885 C 0.89381 0.76922 0.89993 0.0
C886 C 0.86325 0.79435 0.89297 0.0
C887 C 0.88806 0.82322 0.89919 0.0
C888 C 0.91598 0.82509 0.90567 0.0
H889 H 0.86371 0.9876 0.89113 0.0
H890 H 0.88753 0.95456 0.8893 0.0
C891 C 0.91898 0.7983 0.90585 0.0
C892 C 0.88345 0.85062 0.89995 0.0
H893 H 0.86147 0.89317 0.87132 0.0
C894 C 0.88155 0.86229 0.91847 0.0
C895 C 0.8773 0.86275 0.88271 0.0
C896 C 0.88024 0.85193 0.86241 0.0
C897 C 0.87185 0.88448 0.92024 0.0
C898 C 0.86367 0.89503 0.90307 0.0
C899 C 0.86741 0.88478 0.88449 0.0
C900 C 0.84941 0.91519 0.90419 0.0
C901 C 0.86973 0.89595 0.9405 0.0
C902 C 0.8198 0.90374 0.9128 0.0
C903 C 0.80587 0.92231 0.9136 0.0
C904 C 0.8213 0.95285 0.90584 0.0
C905 C 0.85091 0.96411 0.89703 0.0
C906 C 0.86473 0.94537 0.89611 0.0
H907 H 0.88428 0.89213 0.95141 0.0
H908 H 0.8773 0.92122 0.94018 0.0
H909 H 0.84505 0.88294 0.94561 0.0
H910 H 0.80728 0.88024 0.91874 0.0
H911 H 0.78282 0.91256 0.92012 0.0
H912 H 0.0898 0.68614 0.13405 0.0
H913 H 0.09398 0.63881 0.1365 0.0
H914 H 0.19323 0.69571 0.14672 0.0
H915 H 0.18932 0.74269 0.14466 0.0
H916 H 0.12881 0.62133 0.11341 0.0
H917 H 0.16749 0.63292 0.19115 0.0
H918 H 0.15105 0.65532 0.18106 0.0
H919 H 0.1916 0.66745 0.17698 0.0
C920 C 0.11244 0.68855 0.13705 0.0
C921 C 0.13915 0.71833 0.13926 0.0
C922 C 0.11481 0.66147 0.13841 0.0
C923 C 0.14385 0.66364 0.14215 0.0
C924 C 0.17044 0.69331 0.14433 0.0
H925 H 0.22417 0.54313 0.14334 0.0
H926 H 0.21363 0.5866 0.14394 0.0
C927 C 0.16813 0.72026 0.14301 0.0
C928 C 0.14694 0.6352 0.14285 0.0
H929 H 0.17512 0.59741 0.17106 0.0
C930 C 0.13855 0.61587 0.12611 0.0
C931 C 0.15976 0.62808 0.1594 0.0
C932 C 0.1677 0.64686 0.17823 0.0
C933 C 0.14364 0.59033 0.12522 0.0
C934 C 0.15712 0.58368 0.1416 0.0
C935 C 0.165 0.60266 0.15846 0.0
C936 C 0.16337 0.55722 0.14147 0.0
C937 C 0.13546 0.57124 0.10651 0.0
C938 C 0.13862 0.52626 0.14017 0.0
C939 C 0.14457 0.50142 0.13982 0.0
C940 C 0.17543 0.50695 0.14081 0.0
C941 C 0.20018 0.53803 0.14235 0.0
C942 C 0.19417 0.56288 0.14279 0.0
H943 H 0.13204 0.58349 0.09385 0.0
H944 H 0.15407 0.56579 0.10264 0.0
H945 H 0.11336 0.54881 0.10879 0.0
H946 H 0.11465 0.52129 0.13941 0.0
H947 H 0.12495 0.47786 0.13838 0.0
H948 H 0.68853 0.20592 0.64168 0.0
H949 H 0.63442 0.1952 0.64343 0.0
H950 H 0.60308 0.10919 0.6114 0.0
H951 H 0.65688 0.11938 0.60991 0.0
H952 H 0.59383 0.18595 0.61073 0.0
H953 H 0.5444 0.08205 0.65996 0.0
H954 H 0.58598 0.10882 0.65776 0.0
H955 H 0.56547 0.08046 0.63875 0.0
C956 C 0.67009 0.18456 0.63519 0.0
C957 C 0.67714 0.16356 0.62563 0.0
C958 C 0.63918 0.17852 0.63613 0.0
C959 C 0.61462 0.1512 0.62775 0.0
C960 C 0.62154 0.13018 0.61823 0.0
H961 H 0.412 0.0839 0.62089 0.0
H962 H 0.46345 0.08748 0.61818 0.0
C963 C 0.65242 0.13626 0.61719 0.0
C964 C 0.58195 0.1453 0.62834 0.0
H965 H 0.50874 0.09589 0.64665 0.0
C966 C 0.57524 0.16627 0.6186 0.0
C967 C 0.55759 0.11938 0.6384 0.0
C968 C 0.56361 0.09645 0.64946 0.0
C969 C 0.54494 0.16214 0.61867 0.0
C970 C 0.52072 0.13673 0.62919 0.0
C971 C 0.52725 0.11535 0.6386 0.0
C972 C 0.48916 0.13333 0.63157 0.0
C973 C 0.53911 0.18496 0.60729 0.0
C974 C 0.48636 0.15737 0.64054 0.0
C975 C 0.45728 0.15545 0.64202 0.0
C976 C 0.42999 0.12923 0.63478 0.0
C977 C 0.43251 0.10445 0.62655 0.0
C978 C 0.4619 0.1065 0.62497 0.0
H979 H 0.55661 0.1965 0.59531 0.0
H980 H 0.51533 0.17319 0.60068 0.0
H981 H 0.5411 0.20348 0.61745 0.0
H982 H 0.50684 0.17788 0.64628 0.0
H983 H 0.45631 0.1748 0.64878 0.0
H984 H 0.49765 0.68845 0.13343 0.0
H985 H 0.45327 0.63505 0.13542 0.0
H986 H 0.51538 0.5987 0.12585 0.0
H987 H 0.56001 0.65189 0.12463 0.0
H988 H 0.43114 0.58811 0.10749 0.0
H989 H 0.46791 0.55138 0.17498 0.0
H990 H 0.4857 0.59175 0.16745 0.0
H991 H 0.49667 0.56608 0.15564 0.0
C992 C 0.50195 0.66912 0.13198 0.0
C993 C 0.53248 0.67456 0.12894 0.0
C994 C 0.47652 0.63859 0.133 0.0
C995 C 0.48106 0.61286 0.13111 0.0
C996 C 0.51138 0.61817 0.12776 0.0
H997 H 0.34819 0.41115 0.12968 0.0
H998 H 0.39592 0.46265 0.12835 0.0
C999 C 0.53683 0.64866 0.12678 0.0
C1000 C 0.45392 0.58052 0.13219 0.0
H1001 H 0.4236 0.51198 0.15801 0.0
C1002 C 0.42948 0.5715 0.11856 0.0
C1003 C 0.45185 0.5588 0.14659 0.0
C1004 C 0.47677 0.56749 0.16212 0.0
C1005 C 0.40308 0.54137 0.11889 0.0
C1006 C 0.40084 0.51979 0.13342 0.0
C1007 C 0.42544 0.52858 0.14687 0.0
C1008 C 0.37247 0.48848 0.1353 0.0
C1009 C 0.37786 0.53277 0.10358 0.0
C1010 C 0.34371 0.48595 0.1402 0.0
C1011 C 0.31653 0.45672 0.14102 0.0
C1012 C 0.31747 0.42925 0.13702 0.0
C1013 C 0.34656 0.43177 0.1328 0.0
C1014 C 0.37386 0.46116 0.13201 0.0
H1015 H 0.38659 0.54872 0.09065 0.0
H1016 H 0.36856 0.50839 0.09836 0.0
H1017 H 0.35823 0.53448 0.11024 0.0
H1018 H 0.34223 0.5067 0.14317 0.0
H1019 H 0.29467 0.4558 0.14448 0.0
H1020 H 0.8931 0.53826 0.65457 0.0
H1021 H 0.90467 0.49564 0.65616 0.0
H1022 H 0.82757 0.4406 0.61693 0.0
H1023 H 0.81536 0.48275 0.61555 0.0
H1024 H 0.86565 0.43145 0.66767 0.0
H1025 H 0.90443 0.44358 0.58962 0.0
H1026 H 0.90085 0.47367 0.60245 0.0
H1027 H 0.86661 0.43988 0.59296 0.0
C1028 C 0.87824 0.51692 0.64653 0.0
C1029 C 0.85336 0.51408 0.63483 0.0
C1030 C 0.88506 0.49266 0.64734 0.0
C1031 C 0.86735 0.46521 0.63637 0.0
C1032 C 0.84197 0.46188 0.62517 0.0
H1033 H 0.84437 0.28219 0.64281 0.0
H1034 H 0.84083 0.32951 0.64444 0.0
C1035 C 0.83504 0.48603 0.6244 0.0
C1036 C 0.87533 0.43998 0.6366 0.0
H1037 H 0.89687 0.39824 0.60673 0.0
C1038 C 0.87271 0.42433 0.65439 0.0
C1039 C 0.88502 0.43107 0.61932 0.0
C1040 C 0.88971 0.44807 0.60002 0.0
C1041 C 0.87832 0.39915 0.65518 0.0
C1042 C 0.88655 0.38928 0.6377 0.0
C1043 C 0.89037 0.40572 0.62008 0.0
C1044 C 0.88946 0.36083 0.63717 0.0
C1045 C 0.87525 0.3832 0.67471 0.0
C1046 C 0.91793 0.36261 0.63219 0.0
C1047 C 0.92012 0.33543 0.63123 0.0
C1048 C 0.89371 0.30597 0.63497 0.0
C1049 C 0.86524 0.30441 0.63984 0.0
C1050 C 0.86316 0.3315 0.64092 0.0
H1051 H 0.87726 0.39845 0.68734 0.0
H1052 H 0.85193 0.36169 0.67552 0.0
H1053 H 0.89339 0.37634 0.67626 0.0
H1054 H 0.93846 0.38504 0.6291 0.0
H1055 H 0.94235 0.33747 0.62737 0.0
H1056 H 0.62579 0.94697 0.13291 0.0
H1057 H 0.57533 0.94566 0.13459 0.0
H1058 H 0.5268 0.84499 0.13652 0.0
H1059 H 0.57629 0.84589 0.13502 0.0
H1060 H 0.52184 0.91529 0.1091 0.0
H1061 H 0.49255 0.86767 0.18499 0.0
H1062 H 0.53168 0.88501 0.17502 0.0
H1063 H 0.50296 0.84525 0.1691 0.0
C1064 C 0.60436 0.92458 0.1337 0.0
C1065 C 0.6053 0.89659 0.13402 0.0
C1066 C 0.57556 0.92388 0.13467 0.0
C1067 C 0.54733 0.89522 0.13611 0.0
C1068 C 0.54827 0.86738 0.13591 0.0
H1069 H 0.34776 0.81505 0.13748 0.0
H1070 H 0.40232 0.82717 0.13774 0.0
C1071 C 0.57678 0.86803 0.13496 0.0
C1072 C 0.51657 0.89376 0.13751 0.0
H1073 H 0.45003 0.86316 0.1655 0.0
C1074 C 0.50629 0.90438 0.12156 0.0
C1075 C 0.49628 0.87944 0.15377 0.0
C1076 C 0.50651 0.86896 0.17178 0.0
C1077 C 0.47573 0.89969 0.12102 0.0
C1078 C 0.4551 0.88438 0.13699 0.0
C1079 C 0.46575 0.87467 0.1532 0.0
C1080 C 0.42206 0.87733 0.13694 0.0
C1081 C 0.46532 0.90998 0.103 0.0
C1082 C 0.415 0.9015 0.13669 0.0
C1083 C 0.38384 0.89465 0.13648 0.0
C1084 C 0.35901 0.86344 0.13661 0.0
C1085 C 0.36623 0.8393 0.13715 0.0
C1086 C 0.39741 0.84619 0.1374 0.0
H1087 H 0.48149 0.91509 0.09033 0.0
H1088 H 0.4414 0.89178 0.09847 0.0
H1089 H 0.46474 0.93159 0.10653 0.0
H1090 H 0.43361 0.9257 0.13665 0.0
H1091 H 0.37922 0.91385 0.13584 0.0
H1092 H 0.68776 0.6149 0.6292 0.0
H1093 H 0.63957 0.56376 0.63023 0.0
H1094 H 0.69338 0.51993 0.64522 0.0
H1095 H 0.74129 0.57055 0.64451 0.0
H1096 H 0.62538 0.51168 0.60694 0.0
H1097 H 0.62359 0.48286 0.6861 0.0
H1098 H 0.64772 0.52196 0.67661 0.0
H1099 H 0.66015 0.49356 0.67428 0.0
C1100 C 0.68929 0.59445 0.63302 0.0
C1101 C 0.71848 0.59697 0.63682 0.0
C1102 C 0.66172 0.56521 0.63353 0.0
C1103 C 0.66279 0.53803 0.63806 0.0
C1104 C 0.69183 0.54059 0.6421 0.0
H1105 H 0.53808 0.33766 0.63827 0.0
H1106 H 0.58237 0.39122 0.63964 0.0
C1107 C 0.71931 0.56966 0.64156 0.0
C1108 C 0.63397 0.50671 0.6375 0.0
H1109 H 0.5903 0.44056 0.66478 0.0
C1110 C 0.61747 0.49625 0.61964 0.0
C1111 C 0.62373 0.48652 0.65406 0.0
C1112 C 0.63953 0.49686 0.6739 0.0
C1113 C 0.59167 0.46585 0.61772 0.0
C1114 C 0.5818 0.44549 0.63419 0.0
C1115 C 0.59799 0.45611 0.65213 0.0
C1116 C 0.55483 0.41301 0.6331 0.0
C1117 C 0.57581 0.45542 0.5979 0.0
C1118 C 0.52457 0.40743 0.62913 0.0
C1119 C 0.49917 0.37685 0.62845 0.0
C1120 C 0.50342 0.3511 0.63178 0.0
C1121 C 0.53383 0.35684 0.63581 0.0
C1122 C 0.55921 0.38746 0.63652 0.0
H1123 H 0.59064 0.47091 0.58578 0.0
H1124 H 0.57002 0.43109 0.5946 0.0
H1125 H 0.55365 0.45601 0.59813 0.0
H1126 H 0.5205 0.42678 0.62687 0.0
H1127 H 0.47606 0.37345 0.62573 0.0
H1128 H 0.29614 0.84646 0.39559 0.0
H1129 H 0.344 0.84368 0.39602 0.0
H1130 H 0.39775 0.94215 0.40926 0.0
H1131 H 0.34964 0.94517 0.40913 0.0
H1132 H 0.39829 0.8755 0.37336 0.0
H1133 H 0.42324 0.90214 0.45327 0.0
H1134 H 0.38585 0.89172 0.44245 0.0
H1135 H 0.41868 0.93043 0.43923 0.0
C1136 C 0.31808 0.86764 0.39857 0.0
C1137 C 0.31897 0.89605 0.40245 0.0
C1138 C 0.34547 0.86597 0.39878 0.0
C1139 C 0.37438 0.89257 0.40296 0.0
C1140 C 0.37558 0.92119 0.40637 0.0
H1141 H 0.56005 0.91342 0.41402 0.0
H1142 H 0.51579 0.9225 0.41263 0.0
C1143 C 0.3481 0.92292 0.40614 0.0
C1144 C 0.40303 0.88994 0.40375 0.0
H1145 H 0.45982 0.89502 0.43489 0.0
C1146 C 0.4118 0.87985 0.38679 0.0
C1147 C 0.4206 0.89559 0.42131 0.0
C1148 C 0.41158 0.90533 0.44018 0.0
C1149 C 0.43765 0.87525 0.3869 0.0
C1150 C 0.4549 0.88039 0.40454 0.0
C1151 C 0.4465 0.89102 0.42141 0.0
C1152 C 0.48154 0.87453 0.40582 0.0
C1153 C 0.44648 0.86523 0.36808 0.0
C1154 C 0.47687 0.84438 0.40285 0.0
C1155 C 0.5021 0.83901 0.40379 0.0
C1156 C 0.53252 0.86368 0.40783 0.0
C1157 C 0.53694 0.89376 0.41115 0.0
C1158 C 0.51169 0.89908 0.41023 0.0
H1159 H 0.4363 0.87017 0.35489 0.0
H1160 H 0.47231 0.87725 0.36631 0.0
H1161 H 0.43743 0.83968 0.3686 0.0
H1162 H 0.45366 0.82495 0.39985 0.0
H1163 H 0.49772 0.81548 0.40148 0.0
H1164 H 0.69607 0.4905 0.89299 0.0
H1165 H 0.64241 0.44623 0.89048 0.0
H1166 H 0.60804 0.4994 0.92115 0.0
H1167 H 0.66133 0.54383 0.9234 0.0
H1168 H 0.60057 0.41409 0.92249 0.0
H1169 H 0.55164 0.46693 0.87176 0.0
H1170 H 0.59322 0.48258 0.87476 0.0
H1171 H 0.57147 0.49008 0.89307 0.0
C1172 C 0.67705 0.49289 0.89901 0.0
C1173 C 0.68308 0.52075 0.90843 0.0
C1174 C 0.64641 0.46752 0.89763 0.0
C1175 C 0.62114 0.46962 0.9054 0.0
C1176 C 0.62707 0.49738 0.91477 0.0
H1177 H 0.41958 0.33896 0.91516 0.0
H1178 H 0.47207 0.38556 0.9153 0.0
C1179 C 0.65765 0.52265 0.91625 0.0
C1180 C 0.58872 0.44241 0.90443 0.0
H1181 H 0.51553 0.41813 0.88608 0.0
C1182 C 0.58201 0.4149 0.91444 0.0
C1183 C 0.56444 0.44361 0.8941 0.0
C1184 C 0.57047 0.47227 0.88266 0.0
C1185 C 0.55165 0.38872 0.91463 0.0
C1186 C 0.52739 0.38971 0.90407 0.0
C1187 C 0.53407 0.41732 0.89415 0.0
C1188 C 0.49518 0.36207 0.90288 0.0
C1189 C 0.54574 0.3605 0.92656 0.0
C1190 C 0.49047 0.33365 0.89525 0.0
C1191 C 0.46067 0.30706 0.89526 0.0
C1192 C 0.43465 0.30829 0.90264 0.0
C1193 C 0.43908 0.33716 0.90939 0.0
C1194 C 0.46909 0.3638 0.90952 0.0
H1195 H 0.56368 0.36676 0.93827 0.0
H1196 H 0.52228 0.34924 0.93362 0.0
H1197 H 0.54684 0.34318 0.91668 0.0
H1198 H 0.50999 0.33189 0.88948 0.0
H1199 H 0.45815 0.28539 0.88967 0.0
H1200 H 0.12983 0.65674 0.40374 0.0
H1201 H 0.12006 0.60314 0.4032 0.0
H1202 H 0.21921 0.63779 0.40772 0.0
H1203 H 0.22919 0.69154 0.40831 0.0
H1204 H 0.13917 0.57286 0.37783 0.0
H1205 H 0.1851 0.57573 0.45288 0.0
H1206 H 0.17741 0.60564 0.44404 0.0
H1207 H 0.21292 0.60626 0.43716 0.0
C1208 C 0.14963 0.65304 0.40444 0.0
C1209 C 0.18034 0.67856 0.40613 0.0
C1210 C 0.14396 0.62231 0.40422 0.0
C1211 C 0.16881 0.61631 0.40578 0.0
C1212 C 0.19955 0.64173 0.40702 0.0
H1213 H 0.19312 0.45596 0.40375 0.0
H1214 H 0.19763 0.50728 0.40351 0.0
C1215 C 0.20524 0.67249 0.40731 0.0
C1216 C 0.16256 0.58352 0.40597 0.0
H1217 H 0.17453 0.53194 0.43284 0.0
C1218 C 0.14668 0.56383 0.38993 0.0
C1219 C 0.17213 0.5716 0.42183 0.0
C1220 C 0.18755 0.59078 0.44005 0.0
C1221 C 0.1411 0.53299 0.38902 0.0
C1222 C 0.15136 0.5214 0.40466 0.0
C1223 C 0.16676 0.54089 0.42083 0.0
C1224 C 0.14777 0.48967 0.40417 0.0
C1225 C 0.12515 0.51335 0.37106 0.0
C1226 C 0.11812 0.46249 0.40465 0.0
C1227 C 0.11535 0.43279 0.40485 0.0
C1228 C 0.14222 0.42977 0.40456 0.0
C1229 C 0.17182 0.45716 0.40395 0.0
C1230 C 0.17452 0.48667 0.40384 0.0
H1231 H 0.12401 0.52755 0.35873 0.0
H1232 H 0.13758 0.50117 0.36587 0.0
H1233 H 0.10088 0.49528 0.375 0.0
H1234 H 0.09714 0.46424 0.4052 0.0
H1235 H 0.09221 0.41228 0.40539 0.0
H1236 H 0.69084 0.08335 0.91058 0.0
H1237 H 0.64418 0.08891 0.90972 0.0
H1238 H 0.69874 0.18054 0.88392 0.0
H1239 H 0.74525 0.17545 0.885 0.0
H1240 H 0.66601 0.18105 0.91593 0.0
H1241 H 0.58773 0.08597 0.86479 0.0
H1242 H 0.60238 0.0735 0.88499 0.0
H1243 H 0.62908 0.09959 0.8667 0.0
C1244 C 0.69275 0.10443 0.9044 0.0
C1245 C 0.72185 0.12899 0.89795 0.0
C1246 C 0.66602 0.10755 0.90386 0.0
C1247 C 0.66788 0.1351 0.89664 0.0
C1248 C 0.6967 0.1591 0.88959 0.0
H1249 H 0.51814 0.17505 0.87202 0.0
H1250 H 0.56153 0.16444 0.86989 0.0
C1251 C 0.72332 0.15611 0.89022 0.0
C1252 C 0.64067 0.1402 0.89768 0.0
H1253 H 0.56555 0.11231 0.88181 0.0
C1254 C 0.64406 0.16602 0.90844 0.0
C1255 C 0.61214 0.1208 0.88774 0.0
C1256 C 0.60757 0.09356 0.87524 0.0
C1257 C 0.61978 0.1729 0.90963 0.0
C1258 C 0.59095 0.15306 0.90013 0.0
C1259 C 0.58758 0.12737 0.8892 0.0
C1260 C 0.56414 0.15875 0.90137 0.0
C1261 C 0.62548 0.20177 0.92073 0.0
C1262 C 0.55093 0.15868 0.91973 0.0
C1263 C 0.52625 0.16481 0.921 0.0
C1264 C 0.514 0.17089 0.9039 0.0
C1265 C 0.52693 0.17038 0.88546 0.0
C1266 C 0.55173 0.16434 0.88422 0.0
H1267 H 0.65088 0.21872 0.92245 0.0
H1268 H 0.6144 0.21363 0.91311 0.0
H1269 H 0.61513 0.19495 0.93571 0.0
H1270 H 0.5596 0.15371 0.93312 0.0
H1271 H 0.51638 0.16423 0.93538 0.0
H1272 H 0.37789 0.48351 0.42944 0.0
H1273 H 0.43172 0.5273 0.42794 0.0
H1274 H 0.40383 0.57326 0.38527 0.0
H1275 H 0.34971 0.52968 0.38688 0.0
H1276 H 0.47289 0.55344 0.39373 0.0
H1277 H 0.44682 0.63815 0.43073 0.0
H1278 H 0.42068 0.59639 0.43196 0.0
H1279 H 0.42217 0.61758 0.41008 0.0
C1280 C 0.38312 0.50304 0.41983 0.0
C1281 C 0.35939 0.50323 0.40843 0.0
C1282 C 0.41397 0.52792 0.41889 0.0
C1283 C 0.42171 0.55366 0.40666 0.0
C1284 C 0.39826 0.55375 0.39498 0.0
H1285 H 0.5828 0.73309 0.38434 0.0
H1286 H 0.53234 0.68512 0.38533 0.0
C1287 C 0.3674 0.52875 0.39581 0.0
C1288 C 0.45422 0.58062 0.40637 0.0
H1289 H 0.49767 0.65823 0.41759 0.0
C1290 C 0.47843 0.57637 0.399 0.0
C1291 C 0.46135 0.6104 0.41338 0.0
C1292 C 0.4365 0.61602 0.42215 0.0
C1293 C 0.50945 0.60143 0.39782 0.0
C1294 C 0.51652 0.63137 0.40461 0.0
C1295 C 0.49231 0.63535 0.41234 0.0
C1296 C 0.54835 0.65942 0.40296 0.0
C1297 C 0.53411 0.59586 0.3887 0.0
C1298 C 0.57456 0.66099 0.41232 0.0
C1299 C 0.60385 0.68859 0.41161 0.0
C1300 C 0.60722 0.71518 0.40183 0.0
C1301 C 0.58105 0.71319 0.39219 0.0
C1302 C 0.55208 0.68571 0.39273 0.0
H1303 H 0.52357 0.57396 0.37989 0.0
H1304 H 0.54998 0.61566 0.37902 0.0
H1305 H 0.54837 0.59377 0.4006 0.0
H1306 H 0.57219 0.64123 0.42063 0.0
H1307 H 0.6235 0.68946 0.4193 0.0
H1308 H 0.84781 0.57092 0.89284 0.0
H1309 H 0.843 0.51947 0.89311 0.0
H1310 H 0.94022 0.56086 0.90928 0.0
H1311 H 0.9455 0.61298 0.90873 0.0
H1312 H 0.92191 0.51438 0.88046 0.0
H1313 H 0.8387 0.4721 0.9432 0.0
H1314 H 0.82598 0.48679 0.92319 0.0
H1315 H 0.86107 0.51287 0.93651 0.0
C1316 C 0.86829 0.56926 0.89647 0.0
C1317 C 0.89702 0.59616 0.90098 0.0
C1318 C 0.8654 0.5397 0.89669 0.0
C1319 C 0.89103 0.53619 0.90164 0.0
C1320 C 0.92005 0.56301 0.90557 0.0
H1321 H 0.87003 0.35684 0.9353 0.0
H1322 H 0.88138 0.41089 0.93417 0.0
C1323 C 0.92303 0.59277 0.90526 0.0
C1324 C 0.88716 0.50441 0.90284 0.0
H1325 H 0.84374 0.43343 0.92522 0.0
C1326 C 0.90499 0.49671 0.89033 0.0
C1327 C 0.8654 0.48148 0.91593 0.0
C1328 C 0.84692 0.48876 0.93061 0.0
C1329 C 0.90101 0.46646 0.8902 0.0
C1330 C 0.87817 0.44313 0.90265 0.0
C1331 C 0.86096 0.45113 0.91549 0.0
C1332 C 0.87201 0.41041 0.90293 0.0
C1333 C 0.92163 0.45993 0.87694 0.0
C1334 C 0.86263 0.3919 0.88578 0.0
C1335 C 0.8561 0.36086 0.88638 0.0
C1336 C 0.85837 0.34757 0.90422 0.0
C1337 C 0.86755 0.36614 0.92137 0.0
C1338 C 0.87425 0.39715 0.92073 0.0
H1339 H 0.94338 0.48179 0.87282 0.0
H1340 H 0.92818 0.44387 0.88416 0.0
H1341 H 0.90876 0.44873 0.86315 0.0
H1342 H 0.85993 0.4013 0.87197 0.0
H1343 H 0.84878 0.34711 0.87296 0.0
H1344 H 0.10559 0.33403 0.33429 0.0
H1345 H 0.12785 0.34136 0.30126 0.0
H1346 H 0.2156 0.3592 0.32618 0.0
H1347 H 0.19329 0.35212 0.35971 0.0
H1348 H 0.18649 0.39505 0.28404 0.0
H1349 H 0.18315 0.28085 0.28736 0.0
H1350 H 0.16004 0.29009 0.30373 0.0
H1351 H 0.20144 0.30785 0.30747 0.0
C1352 C 0.12977 0.33984 0.33282 0.0
C1353 C 0.14769 0.34234 0.34959 0.0
C1354 C 0.14247 0.34414 0.3139 0.0
C1355 C 0.17328 0.35067 0.31123 0.0
C1356 C 0.19169 0.35407 0.32795 0.0
H1357 H 0.26117 0.33703 0.20414 0.0
H1358 H 0.24913 0.34494 0.23773 0.0
C1359 C 0.17901 0.35011 0.34705 0.0
C1360 C 0.18492 0.35179 0.29083 0.0
H1361 H 0.19893 0.30843 0.25754 0.0
C1362 C 0.18957 0.37633 0.27824 0.0
C1363 C 0.18853 0.32716 0.28327 0.0
C1364 C 0.18291 0.29981 0.29603 0.0
C1365 C 0.19814 0.37706 0.2583 0.0
C1366 C 0.2012 0.35207 0.25061 0.0
C1367 C 0.19661 0.32762 0.26333 0.0
C1368 C 0.21002 0.35084 0.22965 0.0
C1369 C 0.20435 0.40485 0.24584 0.0
C1370 C 0.19249 0.35214 0.21361 0.0
C1371 C 0.19981 0.34817 0.19412 0.0
C1372 C 0.22429 0.34213 0.19048 0.0
C1373 C 0.24203 0.34147 0.20648 0.0
C1374 C 0.23514 0.34595 0.22575 0.0
H1375 H 0.21006 0.42561 0.2551 0.0
H1376 H 0.22394 0.41112 0.23537 0.0
H1377 H 0.18305 0.39906 0.23718 0.0
H1378 H 0.17253 0.35515 0.21618 0.0
H1379 H 0.1856 0.3485 0.18206 0.0
H1380 H 0.85298 0.16564 0.68385 0.0
H1381 H 0.83768 0.15175 0.71854 0.0
H1382 H 0.88307 0.24952 0.73381 0.0
H1383 H 0.89836 0.26348 0.69933 0.0
H1384 H 0.88391 0.17181 0.74951 0.0
H1385 H 0.79813 0.21127 0.7633 0.0
H1386 H 0.80713 0.20363 0.73878 0.0
H1387 H 0.83396 0.23907 0.75136 0.0
C1388 C 0.85902 0.18412 0.69454 0.0
C1389 C 0.87694 0.21564 0.68892 0.0
C1390 C 0.85039 0.17619 0.71434 0.0
C1391 C 0.85909 0.19962 0.72875 0.0
C1392 C 0.87571 0.23106 0.72295 0.0
H1393 H 0.84087 0.18494 0.85905 0.0
H1394 H 0.85488 0.20713 0.82541 0.0
C1395 C 0.88453 0.23899 0.70324 0.0
C1396 C 0.85357 0.19133 0.75003 0.0
H1397 H 0.81497 0.19457 0.79112 0.0
C1398 C 0.86879 0.17674 0.75859 0.0
C1399 C 0.83436 0.19838 0.76195 0.0
C1400 C 0.81723 0.21375 0.75343 0.0
C1401 C 0.86507 0.16868 0.77867 0.0
C1402 C 0.84502 0.17471 0.79048 0.0
C1403 C 0.8304 0.19005 0.78207 0.0
C1404 C 0.83658 0.16226 0.81091 0.0
C1405 C 0.88272 0.15373 0.78708 0.0
C1406 C 0.8213 0.12988 0.81382 0.0
C1407 C 0.81349 0.11738 0.83276 0.0
C1408 C 0.8205 0.13689 0.84934 0.0
C1409 C 0.83539 0.16941 0.84654 0.0
C1410 C 0.84329 0.18203 0.82737 0.0
H1411 H 0.90396 0.1597 0.77823 0.0
H1412 H 0.88986 0.16113 0.8026 0.0
H1413 H 0.8674 0.12794 0.78682 0.0
H1414 H 0.8153 0.11414 0.80136 0.0
H1415 H 0.80181 0.09221 0.83436 0.0
H1416 H 0.72172 0.91854 0.20632 0.0
H1417 H 0.70768 0.89286 0.23827 0.0
H1418 H 0.62374 0.81646 0.21314 0.0
H1419 H 0.63869 0.84199 0.18051 0.0
H1420 H 0.65863 0.8794 0.26079 0.0
H1421 H 0.65816 0.76944 0.24224 0.0
H1422 H 0.6735 0.80217 0.22549 0.0
H1423 H 0.63194 0.77743 0.22841 0.0
C1424 C 0.70041 0.89608 0.20751 0.0
C1425 C 0.6814 0.88209 0.19095 0.0
C1426 C 0.6923 0.88147 0.22584 0.0
C1427 C 0.66466 0.85266 0.22822 0.0
C1428 C 0.64548 0.83841 0.21164 0.0
H1429 H 0.6418 0.8047 0.35641 0.0
H1430 H 0.62622 0.8141 0.32371 0.0
C1431 C 0.65398 0.85293 0.19303 0.0
C1432 C 0.65683 0.83849 0.24829 0.0
H1433 H 0.65291 0.77856 0.2755 0.0
C1434 C 0.6569 0.85711 0.26403 0.0
C1435 C 0.65431 0.8093 0.25248 0.0
C1436 C 0.65465 0.78842 0.23634 0.0
C1437 C 0.65741 0.84877 0.28379 0.0
C1438 C 0.65661 0.82035 0.28798 0.0
C1439 C 0.65369 0.80043 0.27227 0.0
C1440 C 0.66402 0.81324 0.30796 0.0
C1441 C 0.6613 0.87164 0.29985 0.0
C1442 C 0.68984 0.80888 0.30998 0.0
C1443 C 0.69831 0.80311 0.32841 0.0
C1444 C 0.68149 0.80195 0.3454 0.0
C1445 C 0.65553 0.80617 0.34357 0.0
C1446 C 0.64665 0.81151 0.32491 0.0
H1447 H 0.66731 0.89489 0.29381 0.0
H1448 H 0.63905 0.86243 0.30818 0.0
H1449 H 0.67994 0.87487 0.31036 0.0
H1450 H 0.70377 0.81027 0.29724 0.0
H1451 H 0.71841 0.79987 0.32935 0.0
H1452 H 0.80276 0.71664 0.70126 0.0
H1453 H 0.81702 0.70884 0.73418 0.0
H1454 H 0.85457 0.65372 0.71009 0.0
H1455 H 0.8397 0.6612 0.67655 0.0
H1456 H 0.81612 0.62754 0.74477 0.0
H1457 H 0.90578 0.75161 0.75655 0.0
H1458 H 0.86907 0.74691 0.7485 0.0
H1459 H 0.89083 0.7358 0.73237 0.0
C1460 C 0.81417 0.70292 0.70283 0.0
C1461 C 0.82033 0.68973 0.68625 0.0
C1462 C 0.82244 0.6986 0.72173 0.0
C1463 C 0.83739 0.68121 0.72462 0.0
C1464 C 0.84327 0.66748 0.70816 0.0
H1465 H 0.90149 0.64311 0.8358 0.0
H1466 H 0.88568 0.64156 0.80142 0.0
C1467 C 0.83489 0.67182 0.68904 0.0
C1468 C 0.84626 0.67751 0.74502 0.0
H1469 H 0.88625 0.71994 0.78556 0.0
C1470 C 0.8318 0.64765 0.75362 0.0
C1471 C 0.86666 0.70379 0.7566 0.0
C1472 C 0.88422 0.7363 0.74799 0.0
C1473 C 0.83627 0.64357 0.77371 0.0
C1474 C 0.85583 0.67001 0.78541 0.0
C1475 C 0.87087 0.69973 0.77666 0.0
C1476 C 0.86185 0.66754 0.80667 0.0
C1477 C 0.8193 0.61115 0.78244 0.0
C1478 C 0.85346 0.68241 0.82115 0.0
C1479 C 0.86238 0.68322 0.8409 0.0
C1480 C 0.88031 0.66961 0.8464 0.0
C1481 C 0.88767 0.65379 0.832 0.0
C1482 C 0.87854 0.65276 0.81234 0.0
H1483 H 0.79998 0.59437 0.77277 0.0
H1484 H 0.83606 0.60262 0.78439 0.0
H1485 H 0.80954 0.6114 0.79718 0.0
H1486 H 0.84071 0.6941 0.81706 0.0
H1487 H 0.85652 0.69572 0.85164 0.0
H1488 H 0.10035 0.79389 0.20496 0.0
H1489 H 0.12228 0.80641 0.23805 0.0
H1490 H 0.21542 0.84722 0.21382 0.0
H1491 H 0.1933 0.83485 0.18017 0.0
H1492 H 0.15894 0.78673 0.25744 0.0
H1493 H 0.22076 0.91627 0.25037 0.0
H1494 H 0.19176 0.89068 0.23276 0.0
H1495 H 0.23041 0.89581 0.23229 0.0
C1496 C 0.12556 0.80563 0.20657 0.0
C1497 C 0.14513 0.81349 0.18992 0.0
C1498 C 0.13805 0.81268 0.22557 0.0
C1499 C 0.17048 0.82793 0.2285 0.0
C1500 C 0.1903 0.83581 0.21192 0.0
H1501 H 0.27241 0.89887 0.33909 0.0
H1502 H 0.25793 0.88102 0.30509 0.0
C1503 C 0.1777 0.82868 0.19272 0.0
C1504 C 0.18285 0.83529 0.24905 0.0
H1505 H 0.22363 0.8958 0.2811 0.0
C1506 C 0.17329 0.81058 0.26259 0.0
C1507 C 0.20147 0.86639 0.25581 0.0
C1508 C 0.21159 0.89391 0.24215 0.0
C1509 C 0.18166 0.81612 0.28266 0.0
C1510 C 0.19962 0.84725 0.28952 0.0
C1511 C 0.20977 0.87192 0.27589 0.0
C1512 C 0.20811 0.855 0.31073 0.0
C1513 C 0.17139 0.78854 0.29628 0.0
C1514 C 0.18496 0.84584 0.32546 0.0
C1515 C 0.19325 0.85587 0.34507 0.0
C1516 C 0.2248 0.87557 0.3502 0.0
C1517 C 0.24788 0.88379 0.33558 0.0
C1518 C 0.23964 0.87367 0.3161 0.0
H1519 H 0.166 0.76701 0.288 0.0
H1520 H 0.18967 0.79317 0.30745 0.0
H1521 H 0.14982 0.78405 0.30416 0.0
H1522 H 0.16042 0.83192 0.32166 0.0
H1523 H 0.17496 0.84939 0.35598 0.0
H1524 H 0.33397 0.24065 0.83467 0.0
H1525 H 0.34499 0.22691 0.80229 0.0
H1526 H 0.37793 0.17012 0.82974 0.0
H1527 H 0.36697 0.18408 0.86261 0.0
H1528 H 0.40359 0.23384 0.78614 0.0
H1529 H 0.30516 0.11089 0.79106 0.0
H1530 H 0.30764 0.14131 0.80703 0.0
H1531 H 0.3329 0.12553 0.81104 0.0
C1532 C 0.34373 0.22535 0.8339 0.0
C1533 C 0.34944 0.21326 0.85118 0.0
C1534 C 0.35015 0.21765 0.81535 0.0
C1535 C 0.36214 0.19743 0.81358 0.0
C1536 C 0.3685 0.18567 0.8308 0.0
H1537 H 0.36461 0.10268 0.70619 0.0
H1538 H 0.37422 0.12343 0.73973 0.0
C1539 C 0.36229 0.19364 0.84953 0.0
C1540 C 0.36622 0.18773 0.79355 0.0
H1541 H 0.33246 0.12677 0.76116 0.0
C1542 C 0.38834 0.21033 0.78069 0.0
C1543 C 0.34618 0.15715 0.78646 0.0
C1544 C 0.32145 0.13223 0.79949 0.0
C1545 C 0.39088 0.20315 0.76089 0.0
C1546 C 0.37013 0.17276 0.75361 0.0
C1547 C 0.34843 0.15007 0.76665 0.0
C1548 C 0.36981 0.16369 0.73255 0.0
C1549 C 0.41592 0.22812 0.74809 0.0
C1550 C 0.36521 0.17994 0.71703 0.0
C1551 C 0.36039 0.16838 0.69762 0.0
C1552 C 0.35942 0.14006 0.69358 0.0
C1553 C 0.36529 0.12461 0.70892 0.0
C1554 C 0.37066 0.1364 0.72813 0.0
H1555 H 0.43569 0.24582 0.7571 0.0
H1556 H 0.42521 0.21796 0.73724 0.0
H1557 H 0.40582 0.24039 0.73987 0.0
H1558 H 0.36366 0.20062 0.72004 0.0
H1559 H 0.35533 0.18038 0.6861 0.0
H1560 H 0.29967 0.18099 0.97331 0.0
H1561 H 0.27403 0.19645 0.99849 0.0
H1562 H 0.32594 0.29174 0.9779 0.0
H1563 H 0.35107 0.27638 0.95273 0.0
H1564 H 0.29768 0.23762 0.029 0.0
H1565 H 0.23766 0.2768 0.97742 0.0
H1566 H 0.25521 0.25424 0.96942 0.0
H1567 H 0.2789 0.2959 0.97262 0.0
C1568 C 0.30554 0.2052 0.97421 0.0
C1569 C 0.3271 0.22741 0.96093 0.0
C1570 C 0.29084 0.21401 0.98855 0.0
C1571 C 0.29743 0.24516 0.98981 0.0
C1572 C 0.31969 0.26742 0.97689 0.0
H1573 H 0.28335 0.34803 0.08716 0.0
H1574 H 0.29751 0.32268 0.06146 0.0
C1575 C 0.33426 0.25865 0.9626 0.0
C1576 C 0.28204 0.25487 1.00499 0.0
H1577 H 0.24289 0.29509 1.01095 0.0
C1578 C 0.28539 0.24985 0.02502 0.0
C1579 C 0.26534 0.27027 0.99989 0.0
C1580 C 0.25874 0.27432 0.97866 0.0
C1581 C 0.27397 0.26117 0.04004 0.0
C1582 C 0.25937 0.27862 0.03495 0.0
C1583 C 0.25454 0.28221 1.01491 0.0
C1584 C 0.25041 0.29454 0.05018 0.0
C1585 C 0.27774 0.25438 0.06126 0.0
C1586 C 0.21937 0.28823 0.05197 0.0
C1587 C 0.21122 0.30299 0.06665 0.0
C1588 C 0.23401 0.32435 0.07973 0.0
C1589 C 0.26518 0.33138 0.07745 0.0
C1590 C 0.27328 0.31671 0.06285 0.0
H1591 H 0.27984 0.2331 0.06253 0.0
H1592 H 0.29945 0.27431 0.06735 0.0
H1593 H 0.25768 0.25113 0.07044 0.0
H1594 H 0.20136 0.27147 0.04223 0.0
H1595 H 0.18705 0.29723 0.06802 0.0
H1596 H 0.13237 0.291 0.47154 0.0
H1597 H 0.0923 0.26614 0.49743 0.0
H1598 H 0.04972 0.31948 0.47854 0.0
H1599 H 0.08928 0.34396 0.45269 0.0
H1600 H 0.07658 0.29094 0.52882 0.0
H1601 H 0.97531 0.23116 0.47841 0.0
H1602 H 1.01524 0.24797 0.47 0.0
H1603 H 0.99813 0.2723 0.47354 0.0
C1604 C 0.11444 0.29736 0.47295 0.0
C1605 C 0.11376 0.31916 0.45995 0.0
C1606 C 0.09152 0.28313 0.48772 0.0
C1607 C 0.06748 0.29037 0.4897 0.0
C1608 C 0.06741 0.31279 0.47703 0.0
H1609 H 0.95131 0.27367 0.58906 0.0
H1610 H 0.9916 0.28893 0.5637 0.0
C1611 C 0.09021 0.32697 0.46233 0.0
C1612 C 0.04284 0.27523 0.50524 0.0
H1613 H 0.96349 0.23575 0.51221 0.0
C1614 C 0.05187 0.2786 0.52516 0.0
C1615 C 1.01051 0.25849 0.50055 0.0
C1616 C 0.99918 0.25194 0.47946 0.0
C1617 C 0.02954 0.26703 0.54048 0.0
C1618 C 0.99723 0.2522 0.53581 0.0
C1619 C 0.9882 0.24752 0.51587 0.0
C1620 C 0.97258 0.2425 0.55137 0.0
C1621 C 0.04083 0.27072 0.56154 0.0
C1622 C 0.94771 0.21145 0.55261 0.0
C1623 C 0.9244 0.20268 0.5671 0.0
C1624 C 0.92544 0.22484 0.58056 0.0
C1625 C 0.95004 0.25595 0.57907 0.0
C1626 C 0.97325 0.26468 0.56463 0.0
H1627 H 0.06438 0.27306 0.56236 0.0
H1628 H 0.04263 0.29225 0.56789 0.0
H1629 H 0.02438 0.25053 0.57076 0.0
H1630 H 0.94648 0.19393 0.54246 0.0
H1631 H 0.9057 0.17855 0.56786 0.0
H1632 H 0.6589 0.90261 0.06751 0.0
H1633 H 0.67989 0.94175 0.04093 0.0
H1634 H 0.77264 0.97999 0.0653 0.0
H1635 H 0.75191 0.94075 0.09154 0.0
H1636 H 0.71043 1.00595 0.04409 0.0
H1637 H 0.78844 0.97047 1.00785 0.0
H1638 H 0.75886 0.9459 0.0255 0.0
H1639 H 0.79576 0.97773 0.0338 0.0
C1640 C 0.68379 0.9192 0.06704 0.0
C1641 C 0.70374 0.91877 0.08166 0.0
C1642 C 0.69577 0.94161 0.0519 0.0
C1643 C 0.72796 0.96369 0.05095 0.0
C1644 C 0.74786 0.96295 0.06545 0.0
H1645 H 0.84285 0.12569 0.97498 0.0
H1646 H 0.82377 0.08659 1.0017 0.0
C1647 C 0.73592 0.94066 0.08056 0.0
C1648 C 0.74059 0.98831 0.03533 0.0
H1649 H 0.79458 0.01949 0.99809 0.0
C1650 C 0.72869 1.00876 0.03397 0.0
C1651 C 0.76462 0.99221 0.02217 0.0
C1652 C 0.77749 0.97024 0.02223 0.0
C1653 C 0.74036 0.03313 0.02002 0.0
C1654 C 0.76434 0.03699 1.00686 0.0
C1655 C 0.77637 0.01667 1.00826 0.0
C1656 C 0.77611 0.06103 0.99094 0.0
C1657 C 0.72723 0.05486 0.01968 0.0
C1658 C 0.7558 0.0595 0.97595 0.0
C1659 C 0.76661 0.08165 0.96079 0.0
C1660 C 0.79807 0.1058 0.96015 0.0
C1661 C 0.81849 0.10742 0.97514 0.0
C1662 C 0.80763 0.08506 0.99035 0.0
H1663 H 0.7154 0.05414 0.0338 0.0
H1664 H 0.74595 0.07933 1.01683 0.0
H1665 H 0.70969 0.04766 1.00766 0.0
H1666 H 0.73157 0.04091 0.97586 0.0
H1667 H 0.7503 0.0797 0.94943 0.0
H1668 H 0.8402 0.72134 0.56118 0.0
H1669 H 0.82209 0.74329 0.53517 0.0
H1670 H 0.72922 0.69549 0.56016 0.0
H1671 H 0.74724 0.67413 0.58617 0.0
H1672 H 0.77653 0.71529 0.50674 0.0
H1673 H 0.74574 0.7841 0.557 0.0
H1674 H 0.76892 0.76719 0.56483 0.0
H1675 H 0.72693 0.74359 0.56372 0.0
C1676 C 0.81595 0.71557 0.56106 0.0
C1677 C 0.79522 0.69632 0.57582 0.0
C1678 C 0.80562 0.72812 0.54623 0.0
C1679 C 0.77442 0.72165 0.54594 0.0
C1680 C 0.75357 0.7016 0.56035 0.0
H1681 H 0.65795 0.76132 0.46811 0.0
H1682 H 0.67862 0.74213 0.4943 0.0
C1683 C 0.76387 0.6892 0.57514 0.0
C1684 C 0.76331 0.7353 0.53048 0.0
H1685 H 0.72639 0.77758 0.52399 0.0
C1686 C 0.76582 0.72913 0.51051 0.0
C1687 C 0.74938 0.75348 0.53535 0.0
C1688 C 0.74784 0.76278 0.55637 0.0
C1689 C 0.75401 0.73985 0.49539 0.0
C1690 C 0.73944 0.75737 0.50032 0.0
C1691 C 0.73723 0.76384 0.52024 0.0
C1692 C 0.72693 0.76969 0.48495 0.0
C1693 C 0.75659 0.73177 0.47423 0.0
C1694 C 0.74726 0.79213 0.47137 0.0
C1695 C 0.73554 0.8032 0.4566 0.0
C1696 C 0.70324 0.79193 0.45497 0.0
C1697 C 0.68293 0.77023 0.46895 0.0
C1698 C 0.69471 0.75924 0.48385 0.0
H1699 H 0.76187 0.71246 0.47321 0.0
H1700 H 0.7346 0.72491 0.46605 0.0
H1701 H 0.7758 0.7526 0.46683 0.0
H1702 H 0.77225 0.80109 0.47218 0.0
H1703 H 0.75176 0.82056 0.44634 0.0
H1704 H 0.95537 0.68595 0.94639 0.0
H1705 H 0.99431 0.7086 0.97272 0.0
H1706 H 0.95033 0.75942 0.99411 0.0
H1707 H 0.91077 0.73618 0.96789 0.0
H1708 H 0.03747 0.768 0.98128 0.0
H1709 H 0.9548 0.71762 0.04415 0.0
H1710 H 0.9432 0.70523 1.019 0.0
H1711 H 0.94644 0.74106 0.02781 0.0
C1712 C 0.95392 0.70191 0.95672 0.0
C1713 C 0.92986 0.70914 0.95512 0.0
C1714 C 0.97627 0.71491 0.97178 0.0
C1715 C 0.97515 0.73543 0.98568 0.0
C1716 C 0.95138 0.7431 0.98391 0.0
H1717 H 0.13426 0.84602 0.06647 0.0
H1718 H 0.0955 0.83071 0.03982 0.0
C1719 C 0.92885 0.72993 0.96886 0.0
C1720 C 0.99902 0.74868 1.00183 0.0
H1721 H 1.0078 0.75246 0.05205 0.0
C1722 C 0.03096 0.76467 0.99676 0.0
C1723 C 0.99066 0.74413 0.02208 0.0
C1724 C 0.95694 0.72584 0.02866 0.0
C1725 C 0.05461 0.77591 1.01125 0.0
C1726 C 0.04625 0.77168 0.0315 0.0
C1727 C 1.01432 0.75596 0.03657 0.0
C1728 C 0.07005 0.78161 0.04765 0.0
C1729 C 0.08831 0.79117 1.00467 0.0
C1730 C 0.06844 0.75942 0.06125 0.0
C1731 C 0.09036 0.76818 0.07652 0.0
C1732 C 0.11441 0.79943 0.07868 0.0
C1733 C 0.11614 0.82173 0.0651 0.0
C1734 C 0.09404 0.81295 0.04981 0.0
H1735 H 0.09037 0.78546 0.98908 0.0
H1736 H 0.09915 0.81693 1.00585 0.0
H1737 H 0.10181 0.78379 1.01412 0.0
H1738 H 0.05025 0.73513 0.05999 0.0
H1739 H 0.08839 0.75042 0.08673 0.0
H1740 H 0.1982 0.9027 0.47534 0.0
H1741 H 0.21631 0.9421 0.50177 0.0
H1742 H 0.30762 0.99127 0.4747 0.0
H1743 H 0.28954 0.95245 0.44825 0.0
H1744 H 0.26309 0.95974 0.52893 0.0
H1745 H 0.28905 0.06133 0.48173 0.0
H1746 H 0.26689 0.02159 0.47294 0.0
H1747 H 0.30898 0.04133 0.47373 0.0
C1748 C 0.22208 0.92201 0.47503 0.0
C1749 C 0.24235 0.92463 0.45962 0.0
C1750 C 0.23243 0.94452 0.49013 0.0
C1751 C 0.2632 0.97012 0.49007 0.0
C1752 C 0.28356 0.97233 0.47485 0.0
H1753 H 0.37683 0.12657 0.56909 0.0
H1754 H 0.35701 0.08753 0.5424 0.0
C1755 C 0.27322 0.94996 0.45977 0.0
C1756 C 0.27436 0.99409 0.50613 0.0
H1757 H 0.30867 0.07276 0.51467 0.0
C1758 C 0.27282 0.98442 0.52581 0.0
C1759 C 0.28713 0.02638 0.50213 0.0
C1760 C 0.28785 0.03829 0.48151 0.0
C1761 C 0.28433 1.00609 0.54147 0.0
C1762 C 0.29747 0.03839 0.53742 0.0
C1763 C 0.29885 0.04806 0.51778 0.0
C1764 C 0.30945 0.06242 0.55341 0.0
C1765 C 0.28297 0.99426 0.56219 0.0
C1766 C 0.28924 0.06179 0.56823 0.0
C1767 C 0.3005 0.08409 0.58336 0.0
C1768 C 0.33222 0.10751 0.58409 0.0
C1769 C 0.35232 0.10868 0.56899 0.0
C1770 C 0.34101 0.08637 0.55376 0.0
H1771 H 0.2799 0.97041 0.56224 0.0
H1772 H 0.30457 1.01017 0.57052 0.0
H1773 H 0.26276 0.9932 0.57008 0.0
H1774 H 0.26466 0.0441 0.56806 0.0
H1775 H 0.28432 0.083 0.59454 0.0
loop_
_geom_bond_atom_site_label_1
_geom_bond_atom_site_label_2
_geom_bond_distance
_geom_bond_site_symmetry_2
_ccdc_geom_bond_type
C0 Eu1 2.835 . S
C0 C2 1.500 . S
C0 O20 1.257 . S
C0 O21 1.260 . S
Eu1 C0 2.835 . S
Eu1 O20 2.473 . S
Eu1 O21 2.480 . S
Eu1 O22 2.430 . S
Eu1 O23 2.670 . S
Eu1 O24 2.394 . S
Eu1 O29 2.355 . S
Eu1 O31 2.374 . S
C2 C0 1.500 . S
C2 C3 1.377 . S
C2 C7 1.377 . S
C3 C2 1.377 . S
C3 C4 1.395 . S
C3 H32 0.931 . S
C4 C3 1.395 . S
C4 C5 1.383 . S
C4 H33 0.931 . S
C5 C4 1.383 . S
C5 C6 1.394 . S
C6 C5 1.394 . S
C6 C7 1.378 . S
C6 H34 0.931 . S
C7 C2 1.377 . S
C7 C6 1.378 . S
C7 H35 0.931 . S
C8 O22 1.259 . S
C8 O23 1.270 . S
C9 O24 1.251 . S
C9 O25 1.251 . S
C10 Eu11 2.835 . S
C10 C12 1.500 . S
C10 O26 1.257 . S
C10 O27 1.260 . S
Eu11 C10 2.835 . S
Eu11 O23 2.355 . S
Eu11 O25 2.374 . S
Eu11 O26 2.473 . S
Eu11 O27 2.480 . S
Eu11 O28 2.430 . S
Eu11 O29 2.670 . S
Eu11 O30 2.394 . S
C12 C10 1.500 . S
C12 C13 1.377 . S
C12 C17 1.377 . S
C13 C12 1.377 . S
C13 C14 1.395 . S
C13 H36 0.931 . S
C14 C13 1.395 . S
C14 C15 1.383 . S
C14 H37 0.931 . S
C15 C14 1.383 . S
C15 C16 1.394 . S
C16 C15 1.394 . S
C16 C17 1.378 . S
C16 H38 0.931 . S
C17 C12 1.377 . S
C17 C16 1.378 . S
C17 H39 0.931 . S
C18 O28 1.259 . S
C18 O29 1.270 . S
C19 O30 1.251 . S
C19 O31 1.251 . S
O20 C0 1.257 . S
O20 Eu1 2.473 . S
O21 C0 1.260 . S
O21 Eu1 2.480 . S
O22 Eu1 2.430 . S
O22 C8 1.259 . S
O23 Eu1 2.670 . S
O23 C8 1.270 . S
O23 Eu11 2.355 . S
O24 Eu1 2.394 . S
O24 C9 1.251 . S
O25 C9 1.251 . S
O25 Eu11 2.374 . S
O26 C10 1.257 . S
O26 Eu11 2.473 . S
O27 C10 1.260 . S
O27 Eu11 2.480 . S
O28 Eu11 2.430 . S
O28 C18 1.259 . S
O29 Eu1 2.355 . S
O29 Eu11 2.670 . S
O29 C18 1.270 . S
O30 Eu11 2.394 . S
O30 C19 1.251 . S
O31 Eu1 2.374 . S
O31 C19 1.251 . S
H32 C3 0.931 . S
H33 C4 0.931 . S
H34 C6 0.931 . S
H35 C7 0.931 . S
H36 C13 0.931 . S
H37 C14 0.931 . S
H38 C16 0.931 . S
H39 C17 0.931 . S
C40 Eu41 2.835 . S
C40 C42 1.500 . S
C40 O60 1.257 . S
C40 O61 1.260 . S
Eu41 C40 2.835 . S
Eu41 O60 2.473 . S
Eu41 O61 2.480 . S
Eu41 O62 2.430 . S
Eu41 O63 2.670 . S
Eu41 O64 2.394 . S
Eu41 O69 2.355 . S
Eu41 O71 2.374 . S
C42 C40 1.500 . S
C42 C43 1.377 . S
C42 C47 1.377 . S
C43 C42 1.377 . S
C43 C44 1.395 1_655 S
C43 H72 0.931 . S
C44 C43 1.395 1_455 S
C44 C45 1.383 . S
C44 H73 0.931 . S
C45 C44 1.383 . S
C45 C46 1.394 . S
C46 C45 1.394 . S
C46 C47 1.378 1_455 S
C46 H74 0.931 . S
C47 C42 1.377 . S
C47 C46 1.378 1_655 S
C47 H75 0.931 . S
C48 O62 1.259 . S
C48 O63 1.270 . S
C49 O64 1.251 . S
C49 O65 1.251 . S
C50 Eu51 2.835 . S
C50 C52 1.500 . S
C50 O66 1.257 . S
C50 O67 1.260 . S
Eu51 C50 2.835 . S
Eu51 O63 2.355 . S
Eu51 O65 2.374 . S
Eu51 O66 2.473 . S
Eu51 O67 2.480 . S
Eu51 O68 2.430 . S
Eu51 O69 2.670 . S
Eu51 O70 2.394 . S
C52 C50 1.500 . S
C52 C53 1.377 . S
C52 C57 1.377 . S
C53 C52 1.377 . S
C53 C54 1.395 . S
C53 H76 0.931 . S
C54 C53 1.395 . S
C54 C55 1.383 . S
C54 H77 0.931 . S
C55 C54 1.383 . S
C55 C56 1.394 . S
C56 C55 1.394 . S
C56 C57 1.378 . S
C56 H78 0.931 . S
C57 C52 1.377 . S
C57 C56 1.378 . S
C57 H79 0.931 . S
C58 O68 1.259 . S
C58 O69 1.270 . S
C59 O70 1.251 . S
C59 O71 1.251 . S
O60 C40 1.257 . S
O60 Eu41 2.473 . S
O61 C40 1.260 . S
O61 Eu41 2.480 . S
O62 Eu41 2.430 . S
O62 C48 1.259 . S
O63 Eu41 2.670 . S
O63 C48 1.270 . S
O63 Eu51 2.355 . S
O64 Eu41 2.394 . S
O64 C49 1.251 . S
O65 C49 1.251 . S
O65 Eu51 2.374 . S
O66 C50 1.257 . S
O66 Eu51 2.473 . S
O67 C50 1.260 . S
O67 Eu51 2.480 . S
O68 Eu51 2.430 . S
O68 C58 1.259 . S
O69 Eu41 2.355 . S
O69 Eu51 2.670 . S
O69 C58 1.270 . S
O70 Eu51 2.394 . S
O70 C59 1.251 . S
O71 Eu41 2.374 . S
O71 C59 1.251 . S
H72 C43 0.931 . S
H73 C44 0.931 . S
H74 C46 0.931 . S
H75 C47 0.931 . S
H76 C53 0.931 . S
H77 C54 0.931 . S
H78 C56 0.931 . S
H79 C57 0.931 . S
C80 Eu81 2.835 . S
C80 C82 1.500 . S
C80 O100 1.257 . S
C80 O101 1.260 . S
Eu81 C80 2.835 . S
Eu81 O100 2.473 . S
Eu81 O101 2.480 . S
Eu81 O102 2.430 . S
Eu81 O103 2.670 . S
Eu81 O104 2.394 . S
Eu81 O109 2.355 . S
Eu81 O111 2.374 . S
C82 C80 1.500 . S
C82 C83 1.377 . S
C82 C87 1.377 . S
C83 C82 1.377 . S
C83 C84 1.395 1_565 S
C83 H112 0.931 . S
C84 C83 1.395 1_545 S
C84 C85 1.383 . S
C84 H113 0.931 . S
C85 C84 1.383 . S
C85 C86 1.394 . S
C86 C85 1.394 . S
C86 C87 1.378 1_545 S
C86 H114 0.931 . S
C87 C82 1.377 . S
C87 C86 1.378 1_565 S
C87 H115 0.931 . S
C88 O102 1.259 . S
C88 O103 1.270 . S
C89 O104 1.251 . S
C89 O105 1.251 . S
C90 Eu91 2.835 . S
C90 C92 1.500 . S
C90 O106 1.257 . S
C90 O107 1.260 . S
Eu91 C90 2.835 . S
Eu91 O103 2.355 . S
Eu91 O105 2.374 . S
Eu91 O106 2.473 . S
Eu91 O107 2.480 . S
Eu91 O108 2.430 . S
Eu91 O109 2.670 . S
Eu91 O110 2.394 . S
C92 C90 1.500 . S
C92 C93 1.377 . S
C92 C97 1.377 . S
C93 C92 1.377 . S
C93 C94 1.395 . S
C93 H116 0.931 . S
C94 C93 1.395 . S
C94 C95 1.383 . S
C94 H117 0.931 . S
C95 C94 1.383 . S
C95 C96 1.394 . S
C96 C95 1.394 . S
C96 C97 1.378 . S
C96 H118 0.931 . S
C97 C92 1.377 . S
C97 C96 1.378 . S
C97 H119 0.931 . S
C98 O108 1.259 . S
C98 O109 1.270 . S
C99 O110 1.251 . S
C99 O111 1.251 . S
O100 C80 1.257 . S
O100 Eu81 2.473 . S
O101 C80 1.260 . S
O101 Eu81 2.480 . S
O102 Eu81 2.430 . S
O102 C88 1.259 . S
O103 Eu81 2.670 . S
O103 C88 1.270 . S
O103 Eu91 2.355 . S
O104 Eu81 2.394 . S
O104 C89 1.251 . S
O105 C89 1.251 . S
O105 Eu91 2.374 . S
O106 C90 1.257 . S
O106 Eu91 2.473 . S
O107 C90 1.260 . S
O107 Eu91 2.480 . S
O108 Eu91 2.430 . S
O108 C98 1.259 . S
O109 Eu81 2.355 . S
O109 Eu91 2.670 . S
O109 C98 1.270 . S
O110 Eu91 2.394 . S
O110 C99 1.251 . S
O111 Eu81 2.374 . S
O111 C99 1.251 . S
H112 C83 0.931 . S
H113 C84 0.931 . S
H114 C86 0.931 . S
H115 C87 0.931 . S
H116 C93 0.931 . S
H117 C94 0.931 . S
H118 C96 0.931 . S
H119 C97 0.931 . S
C120 Eu121 2.835 . S
C120 C122 1.500 . S
C120 O140 1.257 . S
C120 O141 1.260 . S
Eu121 C120 2.835 . S
Eu121 O140 2.473 . S
Eu121 O141 2.480 . S
Eu121 O142 2.430 . S
Eu121 O143 2.670 . S
Eu121 O144 2.394 . S
Eu121 O149 2.355 . S
Eu121 O151 2.374 . S
C122 C120 1.500 . S
C122 C123 1.377 . S
C122 C127 1.377 . S
C123 C122 1.377 . S
C123 C124 1.395 . S
C123 H152 0.931 . S
C124 C123 1.395 . S
C124 C125 1.383 . S
C124 H153 0.931 . S
C125 C124 1.383 . S
C125 C126 1.394 . S
C126 C125 1.394 . S
C126 C127 1.378 . S
C126 H154 0.931 . S
C127 C122 1.377 . S
C127 C126 1.378 . S
C127 H155 0.931 . S
C128 O142 1.259 . S
C128 O143 1.270 . S
C129 O144 1.251 . S
C129 O145 1.251 . S
C130 Eu131 2.835 . S
C130 C132 1.500 . S
C130 O146 1.257 . S
C130 O147 1.260 . S
Eu131 C130 2.835 . S
Eu131 O143 2.355 . S
Eu131 O145 2.374 . S
Eu131 O146 2.473 . S
Eu131 O147 2.480 . S
Eu131 O148 2.430 . S
Eu131 O149 2.670 . S
Eu131 O150 2.394 . S
C132 C130 1.500 . S
C132 C133 1.377 . S
C132 C137 1.377 . S
C133 C132 1.377 . S
C133 C134 1.395 . S
C133 H156 0.931 . S
C134 C133 1.395 . S
C134 C135 1.383 . S
C134 H157 0.931 . S
C135 C134 1.383 . S
C135 C136 1.394 . S
C136 C135 1.394 . S
C136 C137 1.378 . S
C136 H158 0.931 . S
C137 C132 1.377 . S
C137 C136 1.378 . S
C137 H159 0.931 . S
C138 O148 1.259 . S
C138 O149 1.270 . S
C139 O150 1.251 . S
C139 O151 1.251 . S
O140 C120 1.257 . S
O140 Eu121 2.473 . S
O141 C120 1.260 . S
O141 Eu121 2.480 . S
O142 Eu121 2.430 . S
O142 C128 1.259 . S
O143 Eu121 2.670 . S
O143 C128 1.270 . S
O143 Eu131 2.355 . S
O144 Eu121 2.394 . S
O144 C129 1.251 . S
O145 C129 1.251 . S
O145 Eu131 2.374 . S
O146 C130 1.257 . S
O146 Eu131 2.473 . S
O147 C130 1.260 . S
O147 Eu131 2.480 . S
O148 Eu131 2.430 . S
O148 C138 1.259 . S
O149 Eu121 2.355 . S
O149 Eu131 2.670 . S
O149 C138 1.270 . S
O150 Eu131 2.394 . S
O150 C139 1.251 . S
O151 Eu121 2.374 . S
O151 C139 1.251 . S
H152 C123 0.931 . S
H153 C124 0.931 . S
H154 C126 0.931 . S
H155 C127 0.931 . S
H156 C133 0.931 . S
H157 C134 0.931 . S
H158 C136 0.931 . S
H159 C137 0.931 . S
C160 Eu161 2.835 . S
C160 C162 1.500 . S
C160 O180 1.257 . S
C160 O181 1.260 . S
Eu161 C160 2.835 . S
Eu161 O180 2.473 . S
Eu161 O181 2.480 . S
Eu161 O182 2.430 . S
Eu161 O183 2.670 . S
Eu161 O184 2.394 . S
Eu161 O189 2.355 . S
Eu161 O191 2.374 . S
C162 C160 1.500 . S
C162 C163 1.377 . S
C162 C167 1.377 . S
C163 C162 1.377 . S
C163 C164 1.395 1_455 S
C163 H192 0.931 . S
C164 C163 1.395 1_655 S
C164 C165 1.383 . S
C164 H193 0.931 . S
C165 C164 1.383 . S
C165 C166 1.394 . S
C166 C165 1.394 . S
C166 C167 1.378 1_655 S
C166 H194 0.931 . S
C167 C162 1.377 . S
C167 C166 1.378 1_455 S
C167 H195 0.931 . S
C168 O182 1.259 . S
C168 O183 1.270 . S
C169 O184 1.251 . S
C169 O185 1.251 . S
C170 Eu171 2.835 . S
C170 C172 1.500 . S
C170 O186 1.257 . S
C170 O187 1.260 . S
Eu171 C170 2.835 . S
Eu171 O183 2.355 . S
Eu171 O185 2.374 . S
Eu171 O186 2.473 . S
Eu171 O187 2.480 . S
Eu171 O188 2.430 . S
Eu171 O189 2.670 . S
Eu171 O190 2.394 . S
C172 C170 1.500 . S
C172 C173 1.377 . S
C172 C177 1.377 . S
C173 C172 1.377 . S
C173 C174 1.395 . S
C173 H196 0.931 . S
C174 C173 1.395 . S
C174 C175 1.383 . S
C174 H197 0.931 . S
C175 C174 1.383 . S
C175 C176 1.394 . S
C176 C175 1.394 . S
C176 C177 1.378 . S
C176 H198 0.931 . S
C177 C172 1.377 . S
C177 C176 1.378 . S
C177 H199 0.931 . S
C178 O188 1.259 . S
C178 O189 1.270 . S
C179 O190 1.251 . S
C179 O191 1.251 . S
O180 C160 1.257 . S
O180 Eu161 2.473 . S
O181 C160 1.260 . S
O181 Eu161 2.480 . S
O182 Eu161 2.430 . S
O182 C168 1.259 . S
O183 Eu161 2.670 . S
O183 C168 1.270 . S
O183 Eu171 2.355 . S
O184 Eu161 2.394 . S
O184 C169 1.251 . S
O185 C169 1.251 . S
O185 Eu171 2.374 . S
O186 C170 1.257 . S
O186 Eu171 2.473 . S
O187 C170 1.260 . S
O187 Eu171 2.480 . S
O188 Eu171 2.430 . S
O188 C178 1.259 . S
O189 Eu161 2.355 . S
O189 Eu171 2.670 . S
O189 C178 1.270 . S
O190 Eu171 2.394 . S
O190 C179 1.251 . S
O191 Eu161 2.374 . S
O191 C179 1.251 . S
H192 C163 0.931 . S
H193 C164 0.931 . S
H194 C166 0.931 . S
H195 C167 0.931 . S
H196 C173 0.931 . S
H197 C174 0.931 . S
H198 C176 0.931 . S
H199 C177 0.931 . S
C200 Eu201 2.835 . S
C200 C202 1.500 . S
C200 O220 1.257 . S
C200 O221 1.260 . S
Eu201 C200 2.835 . S
Eu201 O220 2.473 . S
Eu201 O221 2.480 . S
Eu201 O222 2.430 . S
Eu201 O223 2.670 . S
Eu201 O224 2.394 . S
Eu201 O229 2.355 . S
Eu201 O231 2.374 . S
C202 C200 1.500 . S
C202 C203 1.377 . S
C202 C207 1.377 . S
C203 C202 1.377 . S
C203 C204 1.395 1_545 S
C203 H232 0.931 . S
C204 C203 1.395 1_565 S
C204 C205 1.383 . S
C204 H233 0.931 . S
C205 C204 1.383 . S
C205 C206 1.394 . S
C206 C205 1.394 . S
C206 C207 1.378 1_565 S
C206 H234 0.931 . S
C207 C202 1.377 . S
C207 C206 1.378 1_545 S
C207 H235 0.931 . S
C208 O222 1.259 . S
C208 O223 1.270 . S
C209 O224 1.251 . S
C209 O225 1.251 . S
C210 Eu211 2.835 . S
C210 C212 1.500 . S
C210 O226 1.257 . S
C210 O227 1.260 . S
Eu211 C210 2.835 . S
Eu211 O223 2.355 . S
Eu211 O225 2.374 . S
Eu211 O226 2.473 . S
Eu211 O227 2.480 . S
Eu211 O228 2.430 . S
Eu211 O229 2.670 . S
Eu211 O230 2.394 . S
C212 C210 1.500 . S
C212 C213 1.377 . S
C212 C217 1.377 . S
C213 C212 1.377 . S
C213 C214 1.395 . S
C213 H236 0.931 . S
C214 C213 1.395 . S
C214 C215 1.383 . S
C214 H237 0.931 . S
C215 C214 1.383 . S
C215 C216 1.394 . S
C216 C215 1.394 . S
C216 C217 1.378 . S
C216 H238 0.931 . S
C217 C212 1.377 . S
C217 C216 1.378 . S
C217 H239 0.931 . S
C218 O228 1.259 . S
C218 O229 1.270 . S
C219 O230 1.251 . S
C219 O231 1.251 . S
O220 C200 1.257 . S
O220 Eu201 2.473 . S
O221 C200 1.260 . S
O221 Eu201 2.480 . S
O222 Eu201 2.430 . S
O222 C208 1.259 . S
O223 Eu201 2.670 . S
O223 C208 1.270 . S
O223 Eu211 2.355 . S
O224 Eu201 2.394 . S
O224 C209 1.251 . S
O225 C209 1.251 . S
O225 Eu211 2.374 . S
O226 C210 1.257 . S
O226 Eu211 2.473 . S
O227 C210 1.260 . S
O227 Eu211 2.480 . S
O228 Eu211 2.430 . S
O228 C218 1.259 . S
O229 Eu201 2.355 . S
O229 Eu211 2.670 . S
O229 C218 1.270 . S
O230 Eu211 2.394 . S
O230 C219 1.251 . S
O231 Eu201 2.374 . S
O231 C219 1.251 . S
H232 C203 0.931 . S
H233 C204 0.931 . S
H234 C206 0.931 . S
H235 C207 0.931 . S
H236 C213 0.931 . S
H237 C214 0.931 . S
H238 C216 0.931 . S
H239 C217 0.931 . S
C240 Eu241 2.835 . S
C240 C242 1.500 . S
C240 O260 1.257 . S
C240 O261 1.260 . S
Eu241 C240 2.835 . S
Eu241 O260 2.473 . S
Eu241 O261 2.480 . S
Eu241 O262 2.430 . S
Eu241 O263 2.670 . S
Eu241 O264 2.394 . S
Eu241 O269 2.355 . S
Eu241 O271 2.374 . S
C242 C240 1.500 . S
C242 C243 1.377 . S
C242 C247 1.377 . S
C243 C242 1.377 . S
C243 C244 1.395 . S
C243 H272 0.931 . S
C244 C243 1.395 . S
C244 C245 1.383 . S
C244 H273 0.931 . S
C245 C244 1.383 . S
C245 C246 1.394 . S
C246 C245 1.394 . S
C246 C247 1.378 . S
C246 H274 0.931 . S
C247 C242 1.377 . S
C247 C246 1.378 . S
C247 H275 0.931 . S
C248 O262 1.259 . S
C248 O263 1.270 . S
C249 O264 1.251 . S
C249 O265 1.251 . S
C250 Eu251 2.835 . S
C250 C252 1.500 . S
C250 O266 1.257 . S
C250 O267 1.260 . S
Eu251 C250 2.835 . S
Eu251 O263 2.355 . S
Eu251 O265 2.374 . S
Eu251 O266 2.473 . S
Eu251 O267 2.480 . S
Eu251 O268 2.430 . S
Eu251 O269 2.670 . S
Eu251 O270 2.394 . S
C252 C250 1.500 . S
C252 C253 1.377 . S
C252 C257 1.377 . S
C253 C252 1.377 . S
C253 C254 1.395 . S
C253 H276 0.931 . S
C254 C253 1.395 . S
C254 C255 1.383 . S
C254 H277 0.931 . S
C255 C254 1.383 . S
C255 C256 1.394 . S
C256 C255 1.394 . S
C256 C257 1.378 . S
C256 H278 0.931 . S
C257 C252 1.377 . S
C257 C256 1.378 . S
C257 H279 0.931 . S
C258 O268 1.259 . S
C258 O269 1.270 . S
C259 O270 1.251 . S
C259 O271 1.251 . S
O260 C240 1.257 . S
O260 Eu241 2.473 . S
O261 C240 1.260 . S
O261 Eu241 2.480 . S
O262 Eu241 2.430 . S
O262 C248 1.259 . S
O263 Eu241 2.670 . S
O263 C248 1.270 . S
O263 Eu251 2.355 . S
O264 Eu241 2.394 . S
O264 C249 1.251 . S
O265 C249 1.251 . S
O265 Eu251 2.374 . S
O266 C250 1.257 . S
O266 Eu251 2.473 . S
O267 C250 1.260 . S
O267 Eu251 2.480 . S
O268 Eu251 2.430 . S
O268 C258 1.259 . S
O269 Eu241 2.355 . S
O269 Eu251 2.670 . S
O269 C258 1.270 . S
O270 Eu251 2.394 . S
O270 C259 1.251 . S
O271 Eu241 2.374 . S
O271 C259 1.251 . S
H272 C243 0.931 . S
H273 C244 0.931 . S
H274 C246 0.931 . S
H275 C247 0.931 . S
H276 C253 0.931 . S
H277 C254 0.931 . S
H278 C256 0.931 . S
H279 C257 0.931 . S
C280 Eu281 2.835 . S
C280 C282 1.500 . S
C280 O300 1.257 . S
C280 O301 1.260 . S
Eu281 C280 2.835 . S
Eu281 O300 2.473 . S
Eu281 O301 2.480 . S
Eu281 O302 2.430 . S
Eu281 O303 2.670 . S
Eu281 O304 2.394 . S
Eu281 O309 2.355 . S
Eu281 O311 2.374 . S
C282 C280 1.500 . S
C282 C283 1.377 . S
C282 C287 1.377 . S
C283 C282 1.377 . S
C283 C284 1.395 1_655 S
C283 H312 0.931 . S
C284 C283 1.395 1_455 S
C284 C285 1.383 . S
C284 H313 0.931 . S
C285 C284 1.383 . S
C285 C286 1.394 . S
C286 C285 1.394 . S
C286 C287 1.378 1_455 S
C286 H314 0.931 . S
C287 C282 1.377 . S
C287 C286 1.378 1_655 S
C287 H315 0.931 . S
C288 O302 1.259 . S
C288 O303 1.270 . S
C289 O304 1.251 . S
C289 O305 1.251 . S
C290 Eu291 2.835 . S
C290 C292 1.500 . S
C290 O306 1.257 . S
C290 O307 1.260 . S
Eu291 C290 2.835 . S
Eu291 O303 2.355 . S
Eu291 O305 2.374 . S
Eu291 O306 2.473 . S
Eu291 O307 2.480 . S
Eu291 O308 2.430 . S
Eu291 O309 2.670 . S
Eu291 O310 2.394 . S
C292 C290 1.500 . S
C292 C293 1.377 . S
C292 C297 1.377 . S
C293 C292 1.377 . S
C293 C294 1.395 . S
C293 H316 0.931 . S
C294 C293 1.395 . S
C294 C295 1.383 . S
C294 H317 0.931 . S
C295 C294 1.383 . S
C295 C296 1.394 . S
C296 C295 1.394 . S
C296 C297 1.378 . S
C296 H318 0.931 . S
C297 C292 1.377 . S
C297 C296 1.378 . S
C297 H319 0.931 . S
C298 O308 1.259 . S
C298 O309 1.270 . S
C299 O310 1.251 . S
C299 O311 1.251 . S
O300 C280 1.257 . S
O300 Eu281 2.473 . S
O301 C280 1.260 . S
O301 Eu281 2.480 . S
O302 Eu281 2.430 . S
O302 C288 1.259 . S
O303 Eu281 2.670 . S
O303 C288 1.270 . S
O303 Eu291 2.355 . S
O304 Eu281 2.394 . S
O304 C289 1.251 . S
O305 C289 1.251 . S
O305 Eu291 2.374 . S
O306 C290 1.257 . S
O306 Eu291 2.473 . S
O307 C290 1.260 . S
O307 Eu291 2.480 . S
O308 Eu291 2.430 . S
O308 C298 1.259 . S
O309 Eu281 2.355 . S
O309 Eu291 2.670 . S
O309 C298 1.270 . S
O310 Eu291 2.394 . S
O310 C299 1.251 . S
O311 Eu281 2.374 . S
O311 C299 1.251 . S
H312 C283 0.931 . S
H313 C284 0.931 . S
H314 C286 0.931 . S
H315 C287 0.931 . S
H316 C293 0.931 . S
H317 C294 0.931 . S
H318 C296 0.931 . S
H319 C297 0.931 . S
C320 Eu321 2.835 . S
C320 C322 1.500 . S
C320 O340 1.257 . S
C320 O341 1.260 . S
Eu321 C320 2.835 . S
Eu321 O340 2.473 . S
Eu321 O341 2.480 . S
Eu321 O342 2.430 . S
Eu321 O343 2.670 . S
Eu321 O344 2.394 . S
Eu321 O349 2.355 . S
Eu321 O351 2.374 . S
C322 C320 1.500 . S
C322 C323 1.377 . S
C322 C327 1.377 . S
C323 C322 1.377 . S
C323 C324 1.395 1_565 S
C323 H352 0.931 . S
C324 C323 1.395 1_545 S
C324 C325 1.383 . S
C324 H353 0.931 . S
C325 C324 1.383 . S
C325 C326 1.394 . S
C326 C325 1.394 . S
C326 C327 1.378 1_545 S
C326 H354 0.931 . S
C327 C322 1.377 . S
C327 C326 1.378 1_565 S
C327 H355 0.931 . S
C328 O342 1.259 . S
C328 O343 1.270 . S
C329 O344 1.251 . S
C329 O345 1.251 . S
C330 Eu331 2.835 . S
C330 C332 1.500 . S
C330 O346 1.257 . S
C330 O347 1.260 . S
Eu331 C330 2.835 . S
Eu331 O343 2.355 . S
Eu331 O345 2.374 . S
Eu331 O346 2.473 . S
Eu331 O347 2.480 . S
Eu331 O348 2.430 . S
Eu331 O349 2.670 . S
Eu331 O350 2.394 . S
C332 C330 1.500 . S
C332 C333 1.377 . S
C332 C337 1.377 . S
C333 C332 1.377 . S
C333 C334 1.395 . S
C333 H356 0.931 . S
C334 C333 1.395 . S
C334 C335 1.383 . S
C334 H357 0.931 . S
C335 C334 1.383 . S
C335 C336 1.394 . S
C336 C335 1.394 . S
C336 C337 1.378 . S
C336 H358 0.931 . S
C337 C332 1.377 . S
C337 C336 1.378 . S
C337 H359 0.931 . S
C338 O348 1.259 . S
C338 O349 1.270 . S
C339 O350 1.251 . S
C339 O351 1.251 . S
O340 C320 1.257 . S
O340 Eu321 2.473 . S
O341 C320 1.260 . S
O341 Eu321 2.480 . S
O342 Eu321 2.430 . S
O342 C328 1.259 . S
O343 Eu321 2.670 . S
O343 C328 1.270 . S
O343 Eu331 2.355 . S
O344 Eu321 2.394 . S
O344 C329 1.251 . S
O345 C329 1.251 . S
O345 Eu331 2.374 . S
O346 C330 1.257 . S
O346 Eu331 2.473 . S
O347 C330 1.260 . S
O347 Eu331 2.480 . S
O348 Eu331 2.430 . S
O348 C338 1.259 . S
O349 Eu321 2.355 . S
O349 Eu331 2.670 . S
O349 C338 1.270 . S
O350 Eu331 2.394 . S
O350 C339 1.251 . S
O351 Eu321 2.374 . S
O351 C339 1.251 . S
H352 C323 0.931 . S
H353 C324 0.931 . S
H354 C326 0.931 . S
H355 C327 0.931 . S
H356 C333 0.931 . S
H357 C334 0.931 . S
H358 C336 0.931 . S
H359 C337 0.931 . S
C360 Eu361 2.835 . S
C360 C362 1.500 . S
C360 O380 1.257 . S
C360 O381 1.260 . S
Eu361 C360 2.835 . S
Eu361 O380 2.473 . S
Eu361 O381 2.480 . S
Eu361 O382 2.430 . S
Eu361 O383 2.670 . S
Eu361 O384 2.394 . S
Eu361 O389 2.355 . S
Eu361 O391 2.374 . S
C362 C360 1.500 . S
C362 C363 1.377 . S
C362 C367 1.377 . S
C363 C362 1.377 . S
C363 C364 1.395 . S
C363 H392 0.931 . S
C364 C363 1.395 . S
C364 C365 1.383 . S
C364 H393 0.931 . S
C365 C364 1.383 . S
C365 C366 1.394 . S
C366 C365 1.394 . S
C366 C367 1.378 . S
C366 H394 0.931 . S
C367 C362 1.377 . S
C367 C366 1.378 . S
C367 H395 0.931 . S
C368 O382 1.259 . S
C368 O383 1.270 . S
C369 O384 1.251 . S
C369 O385 1.251 . S
C370 Eu371 2.835 . S
C370 C372 1.500 . S
C370 O386 1.257 . S
C370 O387 1.260 . S
Eu371 C370 2.835 . S
Eu371 O383 2.355 . S
Eu371 O385 2.374 . S
Eu371 O386 2.473 . S
Eu371 O387 2.480 . S
Eu371 O388 2.430 . S
Eu371 O389 2.670 . S
Eu371 O390 2.394 . S
C372 C370 1.500 . S
C372 C373 1.377 . S
C372 C377 1.377 . S
C373 C372 1.377 . S
C373 C374 1.395 . S
C373 H396 0.931 . S
C374 C373 1.395 . S
C374 C375 1.383 . S
C374 H397 0.931 . S
C375 C374 1.383 . S
C375 C376 1.394 . S
C376 C375 1.394 . S
C376 C377 1.378 . S
C376 H398 0.931 . S
C377 C372 1.377 . S
C377 C376 1.378 . S
C377 H399 0.931 . S
C378 O388 1.259 . S
C378 O389 1.270 . S
C379 O390 1.251 . S
C379 O391 1.251 . S
O380 C360 1.257 . S
O380 Eu361 2.473 . S
O381 C360 1.260 . S
O381 Eu361 2.480 . S
O382 Eu361 2.430 . S
O382 C368 1.259 . S
O383 Eu361 2.670 . S
O383 C368 1.270 . S
O383 Eu371 2.355 . S
O384 Eu361 2.394 . S
O384 C369 1.251 . S
O385 C369 1.251 . S
O385 Eu371 2.374 . S
O386 C370 1.257 . S
O386 Eu371 2.473 . S
O387 C370 1.260 . S
O387 Eu371 2.480 . S
O388 Eu371 2.430 . S
O388 C378 1.259 . S
O389 Eu361 2.355 . S
O389 Eu371 2.670 . S
O389 C378 1.270 . S
O390 Eu371 2.394 . S
O390 C379 1.251 . S
O391 Eu361 2.374 . S
O391 C379 1.251 . S
H392 C363 0.931 . S
H393 C364 0.931 . S
H394 C366 0.931 . S
H395 C367 0.931 . S
H396 C373 0.931 . S
H397 C374 0.931 . S
H398 C376 0.931 . S
H399 C377 0.931 . S
C400 Eu401 2.835 . S
C400 C402 1.500 . S
C400 O420 1.257 . S
C400 O421 1.260 . S
Eu401 C400 2.835 . S
Eu401 O420 2.473 . S
Eu401 O421 2.480 . S
Eu401 O422 2.430 . S
Eu401 O423 2.670 . S
Eu401 O424 2.394 . S
Eu401 O429 2.355 . S
Eu401 O431 2.374 . S
C402 C400 1.500 . S
C402 C403 1.377 . S
C402 C407 1.377 . S
C403 C402 1.377 . S
C403 C404 1.395 1_455 S
C403 H432 0.931 . S
C404 C403 1.395 1_655 S
C404 C405 1.383 . S
C404 H433 0.931 . S
C405 C404 1.383 . S
C405 C406 1.394 . S
C406 C405 1.394 . S
C406 C407 1.378 1_655 S
C406 H434 0.931 . S
C407 C402 1.377 . S
C407 C406 1.378 1_455 S
C407 H435 0.931 . S
C408 O422 1.259 . S
C408 O423 1.270 . S
C409 O424 1.251 . S
C409 O425 1.251 . S
C410 Eu411 2.835 . S
C410 C412 1.500 . S
C410 O426 1.257 . S
C410 O427 1.260 . S
Eu411 C410 2.835 . S
Eu411 O423 2.355 . S
Eu411 O425 2.374 . S
Eu411 O426 2.473 . S
Eu411 O427 2.480 . S
Eu411 O428 2.430 . S
Eu411 O429 2.670 . S
Eu411 O430 2.394 . S
C412 C410 1.500 . S
C412 C413 1.377 . S
C412 C417 1.377 . S
C413 C412 1.377 . S
C413 C414 1.395 . S
C413 H436 0.931 . S
C414 C413 1.395 . S
C414 C415 1.383 . S
C414 H437 0.931 . S
C415 C414 1.383 . S
C415 C416 1.394 . S
C416 C415 1.394 . S
C416 C417 1.378 . S
C416 H438 0.931 . S
C417 C412 1.377 . S
C417 C416 1.378 . S
C417 H439 0.931 . S
C418 O428 1.259 . S
C418 O429 1.270 . S
C419 O430 1.251 . S
C419 O431 1.251 . S
O420 C400 1.257 . S
O420 Eu401 2.473 . S
O421 C400 1.260 . S
O421 Eu401 2.480 . S
O422 Eu401 2.430 . S
O422 C408 1.259 . S
O423 Eu401 2.670 . S
O423 C408 1.270 . S
O423 Eu411 2.355 . S
O424 Eu401 2.394 . S
O424 C409 1.251 . S
O425 C409 1.251 . S
O425 Eu411 2.374 . S
O426 C410 1.257 . S
O426 Eu411 2.473 . S
O427 C410 1.260 . S
O427 Eu411 2.480 . S
O428 Eu411 2.430 . S
O428 C418 1.259 . S
O429 Eu401 2.355 . S
O429 Eu411 2.670 . S
O429 C418 1.270 . S
O430 Eu411 2.394 . S
O430 C419 1.251 . S
O431 Eu401 2.374 . S
O431 C419 1.251 . S
H432 C403 0.931 . S
H433 C404 0.931 . S
H434 C406 0.931 . S
H435 C407 0.931 . S
H436 C413 0.931 . S
H437 C414 0.931 . S
H438 C416 0.931 . S
H439 C417 0.931 . S
C440 Eu441 2.835 . S
C440 C442 1.500 . S
C440 O460 1.257 . S
C440 O461 1.260 . S
Eu441 C440 2.835 . S
Eu441 O460 2.473 . S
Eu441 O461 2.480 . S
Eu441 O462 2.430 . S
Eu441 O463 2.670 . S
Eu441 O464 2.394 . S
Eu441 O469 2.355 . S
Eu441 O471 2.374 . S
C442 C440 1.500 . S
C442 C443 1.377 . S
C442 C447 1.377 . S
C443 C442 1.377 . S
C443 C444 1.395 1_545 S
C443 H472 0.931 . S
C444 C443 1.395 1_565 S
C444 C445 1.383 . S
C444 H473 0.931 . S
C445 C444 1.383 . S
C445 C446 1.394 . S
C446 C445 1.394 . S
C446 C447 1.378 1_565 S
C446 H474 0.931 . S
C447 C442 1.377 . S
C447 C446 1.378 1_545 S
C447 H475 0.931 . S
C448 O462 1.259 . S
C448 O463 1.270 . S
C449 O464 1.251 . S
C449 O465 1.251 . S
C450 Eu451 2.835 . S
C450 C452 1.500 . S
C450 O466 1.257 . S
C450 O467 1.260 . S
Eu451 C450 2.835 . S
Eu451 O463 2.355 . S
Eu451 O465 2.374 . S
Eu451 O466 2.473 . S
Eu451 O467 2.480 . S
Eu451 O468 2.430 . S
Eu451 O469 2.670 . S
Eu451 O470 2.394 . S
C452 C450 1.500 . S
C452 C453 1.377 . S
C452 C457 1.377 . S
C453 C452 1.377 . S
C453 C454 1.395 . S
C453 H476 0.931 . S
C454 C453 1.395 . S
C454 C455 1.383 . S
C454 H477 0.931 . S
C455 C454 1.383 . S
C455 C456 1.394 . S
C456 C455 1.394 . S
C456 C457 1.378 . S
C456 H478 0.931 . S
C457 C452 1.377 . S
C457 C456 1.378 . S
C457 H479 0.931 . S
C458 O468 1.259 . S
C458 O469 1.270 . S
C459 O470 1.251 . S
C459 O471 1.251 . S
O460 C440 1.257 . S
O460 Eu441 2.473 . S
O461 C440 1.260 . S
O461 Eu441 2.480 . S
O462 Eu441 2.430 . S
O462 C448 1.259 . S
O463 Eu441 2.670 . S
O463 C448 1.270 . S
O463 Eu451 2.355 . S
O464 Eu441 2.394 . S
O464 C449 1.251 . S
O465 C449 1.251 . S
O465 Eu451 2.374 . S
O466 C450 1.257 . S
O466 Eu451 2.473 . S
O467 C450 1.260 . S
O467 Eu451 2.480 . S
O468 Eu451 2.430 . S
O468 C458 1.259 . S
O469 Eu441 2.355 . S
O469 Eu451 2.670 . S
O469 C458 1.270 . S
O470 Eu451 2.394 . S
O470 C459 1.251 . S
O471 Eu441 2.374 . S
O471 C459 1.251 . S
H472 C443 0.931 . S
H473 C444 0.931 . S
H474 C446 0.931 . S
H475 C447 0.931 . S
H476 C453 0.931 . S
H477 C454 0.931 . S
H478 C456 0.931 . S
H479 C457 0.931 . S
H480 C488 0.929 . S
H481 C490 0.930 . S
H482 C492 0.930 . S
H483 C495 0.929 . S
H484 C498 0.930 1_565 S
H485 C500 0.960 . S
H486 C500 0.960 . S
H487 C500 0.960 . S
C488 H480 0.929 . S
C488 C489 1.377 . S
C488 C490 1.384 . S
C489 C488 1.377 . S
C489 C495 1.390 . S
C490 H481 0.930 . S
C490 C488 1.384 . S
C490 C491 1.372 . S
C491 C490 1.372 . S
C491 C492 1.400 . S
C491 C496 1.490 . S
C492 H482 0.930 . S
C492 C491 1.400 . S
C492 C495 1.386 . S
H493 C509 0.930 . S
H494 C510 0.931 . S
C495 H483 0.929 . S
C495 C489 1.390 . S
C495 C492 1.386 . S
C496 C491 1.490 . S
C496 C498 1.395 1_565 S
C496 C499 1.403 . S
H497 C503 0.930 . S
C498 H484 0.930 1_545 S
C498 C496 1.395 1_545 S
C498 C501 1.403 . S
C499 C496 1.403 . S
C499 C500 1.524 . S
C499 C503 1.400 1_565 S
C500 H485 0.960 . S
C500 H486 0.960 . S
C500 H487 0.960 . S
C500 C499 1.524 . S
C501 C498 1.403 . S
C501 C502 1.392 . S
C501 C505 1.495 . S
C502 C501 1.392 . S
C502 C503 1.385 . S
C502 C504 1.478 . S
C503 H497 0.930 . S
C503 C499 1.400 1_545 S
C503 C502 1.385 . S
C504 C502 1.478 . S
C504 C506 1.381 . S
C504 C510 1.383 . S
C505 C501 1.495 . S
C505 H511 0.959 . S
C505 H512 0.961 . S
C505 H513 0.960 . S
C506 C504 1.381 . S
C506 C507 1.394 . S
C506 H514 0.930 . S
C507 C506 1.394 . S
C507 C508 1.383 . S
C507 H515 0.929 . S
C508 C507 1.383 . S
C508 C509 1.377 . S
C509 H493 0.930 . S
C509 C508 1.377 . S
C509 C510 1.379 . S
C510 H494 0.931 . S
C510 C504 1.383 . S
C510 C509 1.379 . S
H511 C505 0.959 . S
H512 C505 0.961 . S
H513 C505 0.960 . S
H514 C506 0.930 . S
H515 C507 0.929 . S
H516 C524 0.929 . S
H517 C526 0.930 . S
H518 C528 0.930 . S
H519 C531 0.929 . S
H520 C534 0.930 . S
H521 C536 0.960 . S
H522 C536 0.960 . S
H523 C536 0.960 . S
C524 H516 0.929 . S
C524 C525 1.377 . S
C524 C526 1.384 . S
C525 C524 1.377 . S
C525 C531 1.390 . S
C526 H517 0.930 . S
C526 C524 1.384 . S
C526 C527 1.372 . S
C527 C526 1.372 . S
C527 C528 1.400 . S
C527 C532 1.490 . S
C528 H518 0.930 . S
C528 C527 1.400 . S
C528 C531 1.386 . S
H529 C545 0.930 . S
H530 C546 0.931 . S
C531 H519 0.929 . S
C531 C525 1.390 . S
C531 C528 1.386 . S
C532 C527 1.490 . S
C532 C534 1.395 . S
C532 C535 1.403 . S
H533 C539 0.930 . S
C534 H520 0.930 . S
C534 C532 1.395 . S
C534 C537 1.403 . S
C535 C532 1.403 . S
C535 C536 1.524 . S
C535 C539 1.400 . S
C536 H521 0.960 . S
C536 H522 0.960 . S
C536 H523 0.960 . S
C536 C535 1.524 . S
C537 C534 1.403 . S
C537 C538 1.392 . S
C537 C541 1.495 . S
C538 C537 1.392 . S
C538 C539 1.385 . S
C538 C540 1.478 . S
C539 H533 0.930 . S
C539 C535 1.400 . S
C539 C538 1.385 . S
C540 C538 1.478 . S
C540 C542 1.381 . S
C540 C546 1.383 . S
C541 C537 1.495 . S
C541 H547 0.959 . S
C541 H548 0.961 . S
C541 H549 0.960 . S
C542 C540 1.381 . S
C542 C543 1.394 . S
C542 H550 0.930 . S
C543 C542 1.394 . S
C543 C544 1.383 . S
C543 H551 0.929 . S
C544 C543 1.383 . S
C544 C545 1.377 . S
C545 H529 0.930 . S
C545 C544 1.377 . S
C545 C546 1.379 . S
C546 H530 0.931 . S
C546 C540 1.383 . S
C546 C545 1.379 . S
H547 C541 0.959 . S
H548 C541 0.961 . S
H549 C541 0.960 . S
H550 C542 0.930 . S
H551 C543 0.929 . S
H552 C560 0.929 . S
H553 C562 0.930 . S
H554 C564 0.930 . S
H555 C567 0.929 . S
H556 C570 0.930 . S
H557 C572 0.960 . S
H558 C572 0.960 . S
H559 C572 0.960 . S
C560 H552 0.929 . S
C560 C561 1.377 . S
C560 C562 1.384 . S
C561 C560 1.377 . S
C561 C567 1.390 . S
C562 H553 0.930 . S
C562 C560 1.384 . S
C562 C563 1.372 . S
C563 C562 1.372 . S
C563 C564 1.400 . S
C563 C568 1.490 . S
C564 H554 0.930 . S
C564 C563 1.400 . S
C564 C567 1.386 . S
H565 C581 0.930 . S
H566 C582 0.931 . S
C567 H555 0.929 . S
C567 C561 1.390 . S
C567 C564 1.386 . S
C568 C563 1.490 . S
C568 C570 1.395 . S
C568 C571 1.403 . S
H569 C575 0.930 . S
C570 H556 0.930 . S
C570 C568 1.395 . S
C570 C573 1.403 1_655 S
C571 C568 1.403 . S
C571 C572 1.524 . S
C571 C575 1.400 1_655 S
C572 H557 0.960 . S
C572 H558 0.960 . S
C572 H559 0.960 . S
C572 C571 1.524 . S
C573 C570 1.403 1_455 S
C573 C574 1.392 . S
C573 C577 1.495 . S
C574 C573 1.392 . S
C574 C575 1.385 . S
C574 C576 1.478 . S
C575 H569 0.930 . S
C575 C571 1.400 1_455 S
C575 C574 1.385 . S
C576 C574 1.478 . S
C576 C578 1.381 . S
C576 C582 1.383 . S
C577 C573 1.495 . S
C577 H583 0.959 . S
C577 H584 0.961 . S
C577 H585 0.960 . S
C578 C576 1.381 . S
C578 C579 1.394 . S
C578 H586 0.930 . S
C579 C578 1.394 . S
C579 C580 1.383 . S
C579 H587 0.929 . S
C580 C579 1.383 . S
C580 C581 1.377 . S
C581 H565 0.930 . S
C581 C580 1.377 . S
C581 C582 1.379 . S
C582 H566 0.931 . S
C582 C576 1.383 . S
C582 C581 1.379 . S
H583 C577 0.959 . S
H584 C577 0.961 . S
H585 C577 0.960 . S
H586 C578 0.930 . S
H587 C579 0.929 . S
H588 C596 0.929 . S
H589 C598 0.930 . S
H590 C600 0.930 . S
H591 C603 0.929 . S
H592 C606 0.930 . S
H593 C608 0.960 1_545 S
H594 C608 0.960 . S
H595 C608 0.960 . S
C596 H588 0.929 . S
C596 C597 1.377 . S
C596 C598 1.384 . S
C597 C596 1.377 . S
C597 C603 1.390 . S
C598 H589 0.930 . S
C598 C596 1.384 . S
C598 C599 1.372 . S
C599 C598 1.372 . S
C599 C600 1.400 . S
C599 C604 1.490 . S
C600 H590 0.930 . S
C600 C599 1.400 . S
C600 C603 1.386 . S
H601 C617 0.930 . S
H602 C618 0.931 . S
C603 H591 0.929 . S
C603 C597 1.390 . S
C603 C600 1.386 . S
C604 C599 1.490 . S
C604 C606 1.395 . S
C604 C607 1.403 . S
H605 C611 0.930 . S
C606 H592 0.930 . S
C606 C604 1.395 . S
C606 C609 1.403 . S
C607 C604 1.403 . S
C607 C608 1.524 . S
C607 C611 1.400 1_565 S
C608 H593 0.960 1_565 S
C608 H594 0.960 . S
C608 H595 0.960 . S
C608 C607 1.524 . S
C609 C606 1.403 . S
C609 C610 1.392 1_565 S
C609 C613 1.495 1_565 S
C610 C609 1.392 1_545 S
C610 C611 1.385 . S
C610 C612 1.478 . S
C611 H605 0.930 . S
C611 C607 1.400 1_545 S
C611 C610 1.385 . S
C612 C610 1.478 . S
C612 C614 1.381 . S
C612 C618 1.383 . S
C613 C609 1.495 1_545 S
C613 H619 0.959 1_545 S
C613 H620 0.961 . S
C613 H621 0.960 . S
C614 C612 1.381 . S
C614 C615 1.394 . S
C614 H622 0.930 . S
C615 C614 1.394 . S
C615 C616 1.383 . S
C615 H623 0.929 . S
C616 C615 1.383 . S
C616 C617 1.377 . S
C617 H601 0.930 . S
C617 C616 1.377 . S
C617 C618 1.379 . S
C618 H602 0.931 . S
C618 C612 1.383 . S
C618 C617 1.379 . S
H619 C613 0.959 1_565 S
H620 C613 0.961 . S
H621 C613 0.960 . S
H622 C614 0.930 . S
H623 C615 0.929 . S
H624 C632 0.929 . S
H625 C634 0.930 . S
H626 C636 0.930 . S
H627 C639 0.929 . S
H628 C642 0.930 . S
H629 C644 0.960 . S
H630 C644 0.960 . S
H631 C644 0.960 . S
C632 H624 0.929 . S
C632 C633 1.377 . S
C632 C634 1.384 . S
C633 C632 1.377 . S
C633 C639 1.390 . S
C634 H625 0.930 . S
C634 C632 1.384 . S
C634 C635 1.372 . S
C635 C634 1.372 . S
C635 C636 1.400 . S
C635 C640 1.490 . S
C636 H626 0.930 . S
C636 C635 1.400 . S
C636 C639 1.386 . S
H637 C653 0.930 . S
H638 C654 0.931 . S
C639 H627 0.929 . S
C639 C633 1.390 . S
C639 C636 1.386 . S
C640 C635 1.490 . S
C640 C642 1.395 . S
C640 C643 1.403 . S
H641 C647 0.930 . S
C642 H628 0.930 . S
C642 C640 1.395 . S
C642 C645 1.403 . S
C643 C640 1.403 . S
C643 C644 1.524 . S
C643 C647 1.400 . S
C644 H629 0.960 . S
C644 H630 0.960 . S
C644 H631 0.960 . S
C644 C643 1.524 . S
C645 C642 1.403 . S
C645 C646 1.392 . S
C645 C649 1.495 . S
C646 C645 1.392 . S
C646 C647 1.385 . S
C646 C648 1.478 . S
C647 H641 0.930 . S
C647 C643 1.400 . S
C647 C646 1.385 . S
C648 C646 1.478 . S
C648 C650 1.381 . S
C648 C654 1.383 . S
C649 C645 1.495 . S
C649 H655 0.959 . S
C649 H656 0.961 . S
C649 H657 0.960 . S
C650 C648 1.381 . S
C650 C651 1.394 . S
C650 H658 0.930 . S
C651 C650 1.394 . S
C651 C652 1.383 . S
C651 H659 0.929 . S
C652 C651 1.383 . S
C652 C653 1.377 . S
C653 H637 0.930 . S
C653 C652 1.377 . S
C653 C654 1.379 . S
C654 H638 0.931 . S
C654 C648 1.383 . S
C654 C653 1.379 . S
H655 C649 0.959 . S
H656 C649 0.961 . S
H657 C649 0.960 . S
H658 C650 0.930 . S
H659 C651 0.929 . S
H660 C668 0.929 . S
H661 C670 0.930 . S
H662 C672 0.930 . S
H663 C675 0.929 . S
H664 C678 0.930 . S
H665 C680 0.960 . S
H666 C680 0.960 1_655 S
H667 C680 0.960 1_655 S
C668 H660 0.929 . S
C668 C669 1.377 . S
C668 C670 1.384 . S
C669 C668 1.377 . S
C669 C675 1.390 . S
C670 H661 0.930 . S
C670 C668 1.384 . S
C670 C671 1.372 . S
C671 C670 1.372 . S
C671 C672 1.400 . S
C671 C676 1.490 . S
C672 H662 0.930 . S
C672 C671 1.400 . S
C672 C675 1.386 . S
H673 C689 0.930 . S
H674 C690 0.931 . S
C675 H663 0.929 . S
C675 C669 1.390 . S
C675 C672 1.386 . S
C676 C671 1.490 . S
C676 C678 1.395 . S
C676 C679 1.403 1_655 S
H677 C683 0.930 . S
C678 H664 0.930 . S
C678 C676 1.395 . S
C678 C681 1.403 1_655 S
C679 C676 1.403 1_455 S
C679 C680 1.524 . S
C679 C683 1.400 . S
C680 H665 0.960 . S
C680 H666 0.960 1_455 S
C680 H667 0.960 1_455 S
C680 C679 1.524 . S
C681 C678 1.403 1_455 S
C681 C682 1.392 . S
C681 C685 1.495 . S
C682 C681 1.392 . S
C682 C683 1.385 . S
C682 C684 1.478 . S
C683 H677 0.930 . S
C683 C679 1.400 . S
C683 C682 1.385 . S
C684 C682 1.478 . S
C684 C686 1.381 . S
C684 C690 1.383 . S
C685 C681 1.495 . S
C685 H691 0.959 1_455 S
C685 H692 0.961 . S
C685 H693 0.960 . S
C686 C684 1.381 . S
C686 C687 1.394 . S
C686 H694 0.930 . S
C687 C686 1.394 . S
C687 C688 1.383 . S
C687 H695 0.929 . S
C688 C687 1.383 . S
C688 C689 1.377 . S
C689 H673 0.930 . S
C689 C688 1.377 . S
C689 C690 1.379 . S
C690 H674 0.931 . S
C690 C684 1.383 . S
C690 C689 1.379 . S
H691 C685 0.959 1_655 S
H692 C685 0.961 . S
H693 C685 0.960 . S
H694 C686 0.930 . S
H695 C687 0.929 . S
H696 C704 0.929 . S
H697 C706 0.930 . S
H698 C708 0.930 . S
H699 C711 0.929 . S
H700 C714 0.930 . S
H701 C716 0.939 1_655 S
H702 C716 0.980 . S
H703 C716 0.984 . S
C704 H696 0.929 . S
C704 C705 1.377 . S
C704 C706 1.384 . S
C705 C704 1.377 . S
C705 C711 1.390 . S
C706 H697 0.930 . S
C706 C704 1.384 . S
C706 C707 1.372 . S
C707 C706 1.372 . S
C707 C708 1.400 . S
C707 C712 1.490 . S
C708 H698 0.930 . S
C708 C707 1.400 . S
C708 C711 1.386 . S
H709 C725 0.930 . S
H710 C726 0.931 . S
C711 H699 0.929 . S
C711 C705 1.390 . S
C711 C708 1.386 . S
C712 C707 1.490 . S
C712 C714 1.395 . S
C712 C715 1.403 1_455 S
H713 C719 0.930 . S
C714 H700 0.930 . S
C714 C712 1.395 . S
C714 C717 1.403 1_455 S
C715 C712 1.403 1_655 S
C715 C716 1.504 1_655 S
C715 C719 1.400 . S
C716 H701 0.939 1_455 S
C716 H702 0.980 . S
C716 H703 0.984 . S
C716 C715 1.504 1_455 S
C717 C714 1.403 1_655 S
C717 C718 1.392 . S
C717 C721 1.495 . S
C718 C717 1.392 . S
C718 C719 1.385 . S
C718 C720 1.478 . S
C719 H713 0.930 . S
C719 C715 1.400 . S
C719 C718 1.385 . S
C720 C718 1.478 . S
C720 C722 1.381 . S
C720 C726 1.383 . S
C721 C717 1.495 . S
C721 H727 0.959 1_655 S
C721 H728 0.961 . S
C721 H729 0.960 . S
C722 C720 1.381 . S
C722 C723 1.394 . S
C722 H730 0.930 . S
C723 C722 1.394 . S
C723 C724 1.383 . S
C723 H731 0.929 . S
C724 C723 1.383 . S
C724 C725 1.377 . S
C725 H709 0.930 . S
C725 C724 1.377 . S
C725 C726 1.379 . S
C726 H710 0.931 . S
C726 C720 1.383 . S
C726 C725 1.379 . S
H727 C721 0.959 1_455 S
H728 C721 0.961 . S
H729 C721 0.960 . S
H730 C722 0.930 . S
H731 C723 0.929 . S
H732 C740 0.929 . S
H733 C742 0.930 . S
H734 C744 0.930 . S
H735 C747 0.929 . S
H736 C750 0.930 . S
H737 C752 0.960 1_545 S
H738 C752 0.960 . S
H739 C752 0.960 . S
C740 H732 0.929 . S
C740 C741 1.377 . S
C740 C742 1.384 . S
C741 C740 1.377 . S
C741 C747 1.390 . S
C742 H733 0.930 . S
C742 C740 1.384 . S
C742 C743 1.372 . S
C743 C742 1.372 . S
C743 C744 1.400 . S
C743 C748 1.490 . S
C744 H734 0.930 . S
C744 C743 1.400 . S
C744 C747 1.386 . S
H745 C761 0.930 . S
H746 C762 0.931 . S
C747 H735 0.929 . S
C747 C741 1.390 . S
C747 C744 1.386 . S
C748 C743 1.490 . S
C748 C750 1.395 . S
C748 C751 1.403 . S
H749 C755 0.930 . S
C750 H736 0.930 . S
C750 C748 1.395 . S
C750 C753 1.403 . S
C751 C748 1.403 . S
C751 C752 1.524 . S
C751 C755 1.400 1_565 S
C752 H737 0.960 1_565 S
C752 H738 0.960 . S
C752 H739 0.960 . S
C752 C751 1.524 . S
C753 C750 1.403 . S
C753 C754 1.392 1_565 S
C753 C757 1.495 . S
C754 C753 1.392 1_545 S
C754 C755 1.385 . S
C754 C756 1.478 . S
C755 H749 0.930 . S
C755 C751 1.400 1_545 S
C755 C754 1.385 . S
C756 C754 1.478 . S
C756 C758 1.381 . S
C756 C762 1.383 . S
C757 C753 1.495 . S
C757 H763 0.959 . S
C757 H764 0.961 1_565 S
C757 H765 0.960 1_565 S
C758 C756 1.381 . S
C758 C759 1.394 . S
C758 H766 0.930 . S
C759 C758 1.394 . S
C759 C760 1.383 . S
C759 H767 0.929 . S
C760 C759 1.383 . S
C760 C761 1.377 . S
C761 H745 0.930 . S
C761 C760 1.377 . S
C761 C762 1.379 . S
C762 H746 0.931 . S
C762 C756 1.383 . S
C762 C761 1.379 . S
H763 C757 0.959 . S
H764 C757 0.961 1_545 S
H765 C757 0.960 1_545 S
H766 C758 0.930 . S
H767 C759 0.929 . S
H768 C776 0.929 . S
H769 C778 0.930 . S
H770 C780 0.930 . S
H771 C783 0.929 . S
H772 C786 0.930 . S
H773 C788 0.960 . S
H774 C788 0.960 . S
H775 C788 0.960 . S
C776 H768 0.929 . S
C776 C777 1.377 . S
C776 C778 1.384 . S
C777 C776 1.377 . S
C777 C783 1.390 . S
C778 H769 0.930 . S
C778 C776 1.384 . S
C778 C779 1.372 . S
C779 C778 1.372 . S
C779 C780 1.400 . S
C779 C784 1.490 . S
C780 H770 0.930 . S
C780 C779 1.400 . S
C780 C783 1.386 . S
H781 C797 0.930 . S
H782 C798 0.931 . S
C783 H771 0.929 . S
C783 C777 1.390 . S
C783 C780 1.386 . S
C784 C779 1.490 . S
C784 C786 1.395 . S
C784 C787 1.403 . S
H785 C791 0.930 . S
C786 H772 0.930 . S
C786 C784 1.395 . S
C786 C789 1.403 . S
C787 C784 1.403 . S
C787 C788 1.524 . S
C787 C791 1.400 . S
C788 H773 0.960 . S
C788 H774 0.960 . S
C788 H775 0.960 . S
C788 C787 1.524 . S
C789 C786 1.403 . S
C789 C790 1.392 . S
C789 C793 1.495 . S
C790 C789 1.392 . S
C790 C791 1.385 . S
C790 C792 1.478 . S
C791 H785 0.930 . S
C791 C787 1.400 . S
C791 C790 1.385 . S
C792 C790 1.478 . S
C792 C794 1.381 . S
C792 C798 1.383 . S
C793 C789 1.495 . S
C793 H799 0.959 . S
C793 H800 0.961 . S
C793 H801 0.960 . S
C794 C792 1.381 . S
C794 C795 1.394 . S
C794 H802 0.930 . S
C795 C794 1.394 . S
C795 C796 1.383 . S
C795 H803 0.929 . S
C796 C795 1.383 . S
C796 C797 1.377 . S
C797 H781 0.930 . S
C797 C796 1.377 . S
C797 C798 1.379 . S
C798 H782 0.931 . S
C798 C792 1.383 . S
C798 C797 1.379 . S
H799 C793 0.959 . S
H800 C793 0.961 . S
H801 C793 0.960 . S
H802 C794 0.930 . S
H803 C795 0.929 . S
H804 C812 0.929 . S
H805 C814 0.930 . S
H806 C816 0.930 . S
H807 C819 0.929 . S
H808 C822 0.930 . S
H809 C824 0.960 1_655 S
H810 C824 0.960 . S
H811 C824 0.960 . S
C812 H804 0.929 . S
C812 C813 1.377 . S
C812 C814 1.384 . S
C813 C812 1.377 . S
C813 C819 1.390 . S
C814 H805 0.930 . S
C814 C812 1.384 . S
C814 C815 1.372 . S
C815 C814 1.372 . S
C815 C816 1.400 . S
C815 C820 1.490 . S
C816 H806 0.930 . S
C816 C815 1.400 . S
C816 C819 1.386 . S
H817 C833 0.930 . S
H818 C834 0.931 . S
C819 H807 0.929 . S
C819 C813 1.390 . S
C819 C816 1.386 . S
C820 C815 1.490 . S
C820 C822 1.395 . S
C820 C823 1.403 . S
H821 C827 0.930 . S
C822 H808 0.930 . S
C822 C820 1.395 . S
C822 C825 1.403 . S
C823 C820 1.403 . S
C823 C824 1.524 . S
C823 C827 1.400 1_455 S
C824 H809 0.960 1_455 S
C824 H810 0.960 . S
C824 H811 0.960 . S
C824 C823 1.524 . S
C825 C822 1.403 . S
C825 C826 1.392 1_455 S
C825 C829 1.494 . S
C826 C825 1.392 1_655 S
C826 C827 1.385 . S
C826 C828 1.478 . S
C827 H821 0.930 . S
C827 C823 1.400 1_655 S
C827 C826 1.385 . S
C828 C826 1.478 . S
C828 C830 1.381 . S
C828 C834 1.383 . S
C829 C825 1.494 . S
C829 H835 0.957 . S
C829 H836 0.963 1_455 S
C829 H837 0.961 1_455 S
C830 C828 1.381 . S
C830 C831 1.394 . S
C830 H838 0.930 . S
C831 C830 1.394 . S
C831 C832 1.383 . S
C831 H839 0.929 . S
C832 C831 1.383 . S
C832 C833 1.377 . S
C833 H817 0.930 . S
C833 C832 1.377 . S
C833 C834 1.379 . S
C834 H818 0.931 . S
C834 C828 1.383 . S
C834 C833 1.379 . S
H835 C829 0.957 . S
H836 C829 0.963 1_655 S
H837 C829 0.961 1_655 S
H838 C830 0.930 . S
H839 C831 0.929 . S
H840 C848 0.929 . S
H841 C850 0.930 . S
H842 C852 0.930 . S
H843 C855 0.929 . S
H844 C858 0.930 . S
H845 C860 0.961 1_565 S
H846 C860 0.960 . S
H847 C860 0.960 . S
C848 H840 0.929 . S
C848 C849 1.377 . S
C848 C850 1.384 . S
C849 C848 1.377 . S
C849 C855 1.390 . S
C850 H841 0.930 . S
C850 C848 1.384 . S
C850 C851 1.372 . S
C851 C850 1.372 . S
C851 C852 1.400 . S
C851 C856 1.490 . S
C852 H842 0.930 . S
C852 C851 1.400 . S
C852 C855 1.386 . S
H853 C869 0.930 . S
H854 C870 0.931 . S
C855 H843 0.929 . S
C855 C849 1.390 . S
C855 C852 1.386 . S
C856 C851 1.490 . S
C856 C858 1.395 . S
C856 C859 1.403 . S
H857 C863 0.930 . S
C858 H844 0.930 . S
C858 C856 1.395 . S
C858 C861 1.403 . S
C859 C856 1.403 . S
C859 C860 1.524 . S
C859 C863 1.400 1_545 S
C860 H845 0.961 1_545 S
C860 H846 0.960 . S
C860 H847 0.960 . S
C860 C859 1.524 . S
C861 C858 1.403 . S
C861 C862 1.392 1_545 S
C861 C865 1.495 1_545 S
C862 C861 1.392 1_565 S
C862 C863 1.385 . S
C862 C864 1.478 . S
C863 H857 0.930 . S
C863 C859 1.400 1_565 S
C863 C862 1.385 . S
C864 C862 1.478 . S
C864 C866 1.381 . S
C864 C870 1.383 . S
C865 C861 1.495 1_565 S
C865 H871 0.959 1_565 S
C865 H872 0.961 . S
C865 H873 0.960 . S
C866 C864 1.381 . S
C866 C867 1.394 . S
C866 H874 0.930 . S
C867 C866 1.394 . S
C867 C868 1.383 . S
C867 H875 0.929 . S
C868 C867 1.383 . S
C868 C869 1.377 . S
C869 H853 0.930 . S
C869 C868 1.377 . S
C869 C870 1.379 . S
C870 H854 0.931 . S
C870 C864 1.383 . S
C870 C869 1.379 . S
H871 C865 0.959 1_545 S
H872 C865 0.961 . S
H873 C865 0.960 . S
H874 C866 0.930 . S
H875 C867 0.929 . S
H876 C884 0.929 . S
H877 C886 0.930 . S
H878 C888 0.930 . S
H879 C891 0.929 . S
H880 C894 0.930 . S
H881 C896 0.960 . S
H882 C896 0.960 . S
H883 C896 0.960 . S
C884 H876 0.929 . S
C884 C885 1.377 . S
C884 C886 1.384 . S
C885 C884 1.377 . S
C885 C891 1.390 . S
C886 H877 0.930 . S
C886 C884 1.384 . S
C886 C887 1.372 . S
C887 C886 1.372 . S
C887 C888 1.400 . S
C887 C892 1.490 . S
C888 H878 0.930 . S
C888 C887 1.400 . S
C888 C891 1.386 . S
H889 C905 0.930 . S
H890 C906 0.931 . S
C891 H879 0.929 . S
C891 C885 1.390 . S
C891 C888 1.386 . S
C892 C887 1.490 . S
C892 C894 1.395 . S
C892 C895 1.403 . S
H893 C899 0.930 . S
C894 H880 0.930 . S
C894 C892 1.395 . S
C894 C897 1.403 . S
C895 C892 1.403 . S
C895 C896 1.524 . S
C895 C899 1.400 . S
C896 H881 0.960 . S
C896 H882 0.960 . S
C896 H883 0.960 . S
C896 C895 1.524 . S
C897 C894 1.403 . S
C897 C898 1.392 . S
C897 C901 1.495 . S
C898 C897 1.392 . S
C898 C899 1.385 . S
C898 C900 1.478 . S
C899 H893 0.930 . S
C899 C895 1.400 . S
C899 C898 1.385 . S
C900 C898 1.478 . S
C900 C902 1.381 . S
C900 C906 1.383 . S
C901 C897 1.495 . S
C901 H907 0.959 . S
C901 H908 0.961 . S
C901 H909 0.960 . S
C902 C900 1.381 . S
C902 C903 1.394 . S
C902 H910 0.930 . S
C903 C902 1.394 . S
C903 C904 1.383 . S
C903 H911 0.929 . S
C904 C903 1.383 . S
C904 C905 1.377 . S
C905 H889 0.930 . S
C905 C904 1.377 . S
C905 C906 1.379 . S
C906 H890 0.931 . S
C906 C900 1.383 . S
C906 C905 1.379 . S
H907 C901 0.959 . S
H908 C901 0.961 . S
H909 C901 0.960 . S
H910 C902 0.930 . S
H911 C903 0.929 . S
H912 C920 0.929 . S
H913 C922 0.930 . S
H914 C924 0.930 . S
H915 C927 0.929 . S
H916 C930 0.930 . S
H917 C932 0.960 . S
H918 C932 0.960 . S
H919 C932 0.960 . S
C920 H912 0.929 . S
C920 C921 1.377 . S
C920 C922 1.384 . S
C921 C920 1.377 . S
C921 C927 1.390 . S
C922 H913 0.930 . S
C922 C920 1.384 . S
C922 C923 1.372 . S
C923 C922 1.372 . S
C923 C924 1.400 . S
C923 C928 1.490 . S
C924 H914 0.930 . S
C924 C923 1.400 . S
C924 C927 1.386 . S
H925 C941 0.930 . S
H926 C942 0.931 . S
C927 H915 0.929 . S
C927 C921 1.390 . S
C927 C924 1.386 . S
C928 C923 1.490 . S
C928 C930 1.395 . S
C928 C931 1.403 . S
H929 C935 0.930 . S
C930 H916 0.930 . S
C930 C928 1.395 . S
C930 C933 1.403 . S
C931 C928 1.403 . S
C931 C932 1.524 . S
C931 C935 1.400 . S
C932 H917 0.960 . S
C932 H918 0.960 . S
C932 H919 0.960 . S
C932 C931 1.524 . S
C933 C930 1.403 . S
C933 C934 1.392 . S
C933 C937 1.495 . S
C934 C933 1.392 . S
C934 C935 1.385 . S
C934 C936 1.478 . S
C935 H929 0.930 . S
C935 C931 1.400 . S
C935 C934 1.385 . S
C936 C934 1.478 . S
C936 C938 1.381 . S
C936 C942 1.383 . S
C937 C933 1.495 . S
C937 H943 0.959 . S
C937 H944 0.961 . S
C937 H945 0.960 . S
C938 C936 1.381 . S
C938 C939 1.394 . S
C938 H946 0.930 . S
C939 C938 1.394 . S
C939 C940 1.383 . S
C939 H947 0.929 . S
C940 C939 1.383 . S
C940 C941 1.377 . S
C941 H925 0.930 . S
C941 C940 1.377 . S
C941 C942 1.379 . S
C942 H926 0.931 . S
C942 C936 1.383 . S
C942 C941 1.379 . S
H943 C937 0.959 . S
H944 C937 0.961 . S
H945 C937 0.960 . S
H946 C938 0.930 . S
H947 C939 0.929 . S
H948 C956 0.929 . S
H949 C958 0.930 . S
H950 C960 0.930 . S
H951 C963 0.929 . S
H952 C966 0.930 . S
H953 C968 0.960 . S
H954 C968 0.960 . S
H955 C968 0.960 . S
C956 H948 0.929 . S
C956 C957 1.377 . S
C956 C958 1.384 . S
C957 C956 1.377 . S
C957 C963 1.390 . S
C958 H949 0.930 . S
C958 C956 1.384 . S
C958 C959 1.372 . S
C959 C958 1.372 . S
C959 C960 1.400 . S
C959 C964 1.490 . S
C960 H950 0.930 . S
C960 C959 1.400 . S
C960 C963 1.386 . S
H961 C977 0.930 . S
H962 C978 0.931 . S
C963 H951 0.929 . S
C963 C957 1.390 . S
C963 C960 1.386 . S
C964 C959 1.490 . S
C964 C966 1.395 . S
C964 C967 1.403 . S
H965 C971 0.930 . S
C966 H952 0.930 . S
C966 C964 1.395 . S
C966 C969 1.403 . S
C967 C964 1.403 . S
C967 C968 1.524 . S
C967 C971 1.400 . S
C968 H953 0.960 . S
C968 H954 0.960 . S
C968 H955 0.960 . S
C968 C967 1.524 . S
C969 C966 1.403 . S
C969 C970 1.392 . S
C969 C973 1.495 . S
C970 C969 1.392 . S
C970 C971 1.385 . S
C970 C972 1.478 . S
C971 H965 0.930 . S
C971 C967 1.400 . S
C971 C970 1.385 . S
C972 C970 1.478 . S
C972 C974 1.381 . S
C972 C978 1.383 . S
C973 C969 1.495 . S
C973 H979 0.959 . S
C973 H980 0.961 . S
C973 H981 0.960 . S
C974 C972 1.381 . S
C974 C975 1.394 . S
C974 H982 0.930 . S
C975 C974 1.394 . S
C975 C976 1.383 . S
C975 H983 0.929 . S
C976 C975 1.383 . S
C976 C977 1.377 . S
C977 H961 0.930 . S
C977 C976 1.377 . S
C977 C978 1.379 . S
C978 H962 0.931 . S
C978 C972 1.383 . S
C978 C977 1.379 . S
H979 C973 0.959 . S
H980 C973 0.961 . S
H981 C973 0.960 . S
H982 C974 0.930 . S
H983 C975 0.929 . S
H984 C992 0.929 . S
H985 C994 0.930 . S
H986 C996 0.930 . S
H987 C999 0.929 . S
H988 C1002 0.930 . S
H989 C1004 0.960 . S
H990 C1004 0.960 . S
H991 C1004 0.960 . S
C992 H984 0.929 . S
C992 C993 1.377 . S
C992 C994 1.384 . S
C993 C992 1.377 . S
C993 C999 1.390 . S
C994 H985 0.930 . S
C994 C992 1.384 . S
C994 C995 1.372 . S
C995 C994 1.372 . S
C995 C996 1.400 . S
C995 C1000 1.490 . S
C996 H986 0.930 . S
C996 C995 1.400 . S
C996 C999 1.386 . S
H997 C1013 0.930 . S
H998 C1014 0.931 . S
C999 H987 0.929 . S
C999 C993 1.390 . S
C999 C996 1.386 . S
C1000 C995 1.490 . S
C1000 C1002 1.395 . S
C1000 C1003 1.403 . S
H1001 C1007 0.930 . S
C1002 H988 0.930 . S
C1002 C1000 1.395 . S
C1002 C1005 1.403 . S
C1003 C1000 1.403 . S
C1003 C1004 1.524 . S
C1003 C1007 1.400 . S
C1004 H989 0.960 . S
C1004 H990 0.960 . S
C1004 H991 0.960 . S
C1004 C1003 1.524 . S
C1005 C1002 1.403 . S
C1005 C1006 1.392 . S
C1005 C1009 1.495 . S
C1006 C1005 1.392 . S
C1006 C1007 1.385 . S
C1006 C1008 1.478 . S
C1007 H1001 0.930 . S
C1007 C1003 1.400 . S
C1007 C1006 1.385 . S
C1008 C1006 1.478 . S
C1008 C1010 1.381 . S
C1008 C1014 1.383 . S
C1009 C1005 1.495 . S
C1009 H1015 0.959 . S
C1009 H1016 0.961 . S
C1009 H1017 0.960 . S
C1010 C1008 1.381 . S
C1010 C1011 1.394 . S
C1010 H1018 0.930 . S
C1011 C1010 1.394 . S
C1011 C1012 1.383 . S
C1011 H1019 0.929 . S
C1012 C1011 1.383 . S
C1012 C1013 1.377 . S
C1013 H997 0.930 . S
C1013 C1012 1.377 . S
C1013 C1014 1.379 . S
C1014 H998 0.931 . S
C1014 C1008 1.383 . S
C1014 C1013 1.379 . S
H1015 C1009 0.959 . S
H1016 C1009 0.961 . S
H1017 C1009 0.960 . S
H1018 C1010 0.930 . S
H1019 C1011 0.929 . S
H1020 C1028 0.929 . S
H1021 C1030 0.930 . S
H1022 C1032 0.930 . S
H1023 C1035 0.929 . S
H1024 C1038 0.930 . S
H1025 C1040 0.960 . S
H1026 C1040 0.960 . S
H1027 C1040 0.960 . S
C1028 H1020 0.929 . S
C1028 C1029 1.377 . S
C1028 C1030 1.384 . S
C1029 C1028 1.377 . S
C1029 C1035 1.390 . S
C1030 H1021 0.930 . S
C1030 C1028 1.384 . S
C1030 C1031 1.372 . S
C1031 C1030 1.372 . S
C1031 C1032 1.400 . S
C1031 C1036 1.490 . S
C1032 H1022 0.930 . S
C1032 C1031 1.400 . S
C1032 C1035 1.386 . S
H1033 C1049 0.930 . S
H1034 C1050 0.931 . S
C1035 H1023 0.929 . S
C1035 C1029 1.390 . S
C1035 C1032 1.386 . S
C1036 C1031 1.490 . S
C1036 C1038 1.395 . S
C1036 C1039 1.403 . S
H1037 C1043 0.930 . S
C1038 H1024 0.930 . S
C1038 C1036 1.395 . S
C1038 C1041 1.403 . S
C1039 C1036 1.403 . S
C1039 C1040 1.524 . S
C1039 C1043 1.400 . S
C1040 H1025 0.960 . S
C1040 H1026 0.960 . S
C1040 H1027 0.960 . S
C1040 C1039 1.524 . S
C1041 C1038 1.403 . S
C1041 C1042 1.392 . S
C1041 C1045 1.495 . S
C1042 C1041 1.392 . S
C1042 C1043 1.385 . S
C1042 C1044 1.478 . S
C1043 H1037 0.930 . S
C1043 C1039 1.400 . S
C1043 C1042 1.385 . S
C1044 C1042 1.478 . S
C1044 C1046 1.381 . S
C1044 C1050 1.383 . S
C1045 C1041 1.495 . S
C1045 H1051 0.959 . S
C1045 H1052 0.961 . S
C1045 H1053 0.960 . S
C1046 C1044 1.381 . S
C1046 C1047 1.394 . S
C1046 H1054 0.930 . S
C1047 C1046 1.394 . S
C1047 C1048 1.383 . S
C1047 H1055 0.929 . S
C1048 C1047 1.383 . S
C1048 C1049 1.377 . S
C1049 H1033 0.930 . S
C1049 C1048 1.377 . S
C1049 C1050 1.379 . S
C1050 H1034 0.931 . S
C1050 C1044 1.383 . S
C1050 C1049 1.379 . S
H1051 C1045 0.959 . S
H1052 C1045 0.961 . S
H1053 C1045 0.960 . S
H1054 C1046 0.930 . S
H1055 C1047 0.929 . S
H1056 C1064 0.929 . S
H1057 C1066 0.930 . S
H1058 C1068 0.930 . S
H1059 C1071 0.929 . S
H1060 C1074 0.930 . S
H1061 C1076 0.960 . S
H1062 C1076 0.960 . S
H1063 C1076 0.960 . S
C1064 H1056 0.929 . S
C1064 C1065 1.377 . S
C1064 C1066 1.384 . S
C1065 C1064 1.377 . S
C1065 C1071 1.390 . S
C1066 H1057 0.930 . S
C1066 C1064 1.384 . S
C1066 C1067 1.372 . S
C1067 C1066 1.372 . S
C1067 C1068 1.400 . S
C1067 C1072 1.490 . S
C1068 H1058 0.930 . S
C1068 C1067 1.400 . S
C1068 C1071 1.386 . S
H1069 C1085 0.930 . S
H1070 C1086 0.931 . S
C1071 H1059 0.929 . S
C1071 C1065 1.390 . S
C1071 C1068 1.386 . S
C1072 C1067 1.490 . S
C1072 C1074 1.395 . S
C1072 C1075 1.403 . S
H1073 C1079 0.930 . S
C1074 H1060 0.930 . S
C1074 C1072 1.395 . S
C1074 C1077 1.403 . S
C1075 C1072 1.403 . S
C1075 C1076 1.524 . S
C1075 C1079 1.400 . S
C1076 H1061 0.960 . S
C1076 H1062 0.960 . S
C1076 H1063 0.960 . S
C1076 C1075 1.524 . S
C1077 C1074 1.403 . S
C1077 C1078 1.392 . S
C1077 C1081 1.495 . S
C1078 C1077 1.392 . S
C1078 C1079 1.385 . S
C1078 C1080 1.478 . S
C1079 H1073 0.930 . S
C1079 C1075 1.400 . S
C1079 C1078 1.385 . S
C1080 C1078 1.478 . S
C1080 C1082 1.381 . S
C1080 C1086 1.383 . S
C1081 C1077 1.495 . S
C1081 H1087 0.959 . S
C1081 H1088 0.961 . S
C1081 H1089 0.960 . S
C1082 C1080 1.381 . S
C1082 C1083 1.394 . S
C1082 H1090 0.930 . S
C1083 C1082 1.394 . S
C1083 C1084 1.383 . S
C1083 H1091 0.929 . S
C1084 C1083 1.383 . S
C1084 C1085 1.377 . S
C1085 H1069 0.930 . S
C1085 C1084 1.377 . S
C1085 C1086 1.379 . S
C1086 H1070 0.931 . S
C1086 C1080 1.383 . S
C1086 C1085 1.379 . S
H1087 C1081 0.959 . S
H1088 C1081 0.961 . S
H1089 C1081 0.960 . S
H1090 C1082 0.930 . S
H1091 C1083 0.929 . S
H1092 C1100 0.929 . S
H1093 C1102 0.930 . S
H1094 C1104 0.930 . S
H1095 C1107 0.929 . S
H1096 C1110 0.930 . S
H1097 C1112 0.960 . S
H1098 C1112 0.960 . S
H1099 C1112 0.960 . S
C1100 H1092 0.929 . S
C1100 C1101 1.377 . S
C1100 C1102 1.384 . S
C1101 C1100 1.377 . S
C1101 C1107 1.390 . S
C1102 H1093 0.930 . S
C1102 C1100 1.384 . S
C1102 C1103 1.372 . S
C1103 C1102 1.372 . S
C1103 C1104 1.400 . S
C1103 C1108 1.490 . S
C1104 H1094 0.930 . S
C1104 C1103 1.400 . S
C1104 C1107 1.386 . S
H1105 C1121 0.930 . S
H1106 C1122 0.931 . S
C1107 H1095 0.929 . S
C1107 C1101 1.390 . S
C1107 C1104 1.386 . S
C1108 C1103 1.490 . S
C1108 C1110 1.395 . S
C1108 C1111 1.403 . S
H1109 C1115 0.930 . S
C1110 H1096 0.930 . S
C1110 C1108 1.395 . S
C1110 C1113 1.403 . S
C1111 C1108 1.403 . S
C1111 C1112 1.524 . S
C1111 C1115 1.400 . S
C1112 H1097 0.960 . S
C1112 H1098 0.960 . S
C1112 H1099 0.960 . S
C1112 C1111 1.524 . S
C1113 C1110 1.403 . S
C1113 C1114 1.392 . S
C1113 C1117 1.495 . S
C1114 C1113 1.392 . S
C1114 C1115 1.385 . S
C1114 C1116 1.478 . S
C1115 H1109 0.930 . S
C1115 C1111 1.400 . S
C1115 C1114 1.385 . S
C1116 C1114 1.478 . S
C1116 C1118 1.381 . S
C1116 C1122 1.383 . S
C1117 C1113 1.495 . S
C1117 H1123 0.959 . S
C1117 H1124 0.961 . S
C1117 H1125 0.960 . S
C1118 C1116 1.381 . S
C1118 C1119 1.394 . S
C1118 H1126 0.930 . S
C1119 C1118 1.394 . S
C1119 C1120 1.383 . S
C1119 H1127 0.929 . S
C1120 C1119 1.383 . S
C1120 C1121 1.377 . S
C1121 H1105 0.930 . S
C1121 C1120 1.377 . S
C1121 C1122 1.379 . S
C1122 H1106 0.931 . S
C1122 C1116 1.383 . S
C1122 C1121 1.379 . S
H1123 C1117 0.959 . S
H1124 C1117 0.961 . S
H1125 C1117 0.960 . S
H1126 C1118 0.930 . S
H1127 C1119 0.929 . S
H1128 C1136 0.929 . S
H1129 C1138 0.930 . S
H1130 C1140 0.930 . S
H1131 C1143 0.929 . S
H1132 C1146 0.930 . S
H1133 C1148 0.960 . S
H1134 C1148 0.960 . S
H1135 C1148 0.960 . S
C1136 H1128 0.929 . S
C1136 C1137 1.377 . S
C1136 C1138 1.384 . S
C1137 C1136 1.377 . S
C1137 C1143 1.390 . S
C1138 H1129 0.930 . S
C1138 C1136 1.384 . S
C1138 C1139 1.372 . S
C1139 C1138 1.372 . S
C1139 C1140 1.400 . S
C1139 C1144 1.490 . S
C1140 H1130 0.930 . S
C1140 C1139 1.400 . S
C1140 C1143 1.386 . S
H1141 C1157 0.930 . S
H1142 C1158 0.931 . S
C1143 H1131 0.929 . S
C1143 C1137 1.390 . S
C1143 C1140 1.386 . S
C1144 C1139 1.490 . S
C1144 C1146 1.395 . S
C1144 C1147 1.403 . S
H1145 C1151 0.930 . S
C1146 H1132 0.930 . S
C1146 C1144 1.395 . S
C1146 C1149 1.403 . S
C1147 C1144 1.403 . S
C1147 C1148 1.524 . S
C1147 C1151 1.400 . S
C1148 H1133 0.960 . S
C1148 H1134 0.960 . S
C1148 H1135 0.960 . S
C1148 C1147 1.524 . S
C1149 C1146 1.403 . S
C1149 C1150 1.392 . S
C1149 C1153 1.495 . S
C1150 C1149 1.392 . S
C1150 C1151 1.385 . S
C1150 C1152 1.478 . S
C1151 H1145 0.930 . S
C1151 C1147 1.400 . S
C1151 C1150 1.385 . S
C1152 C1150 1.478 . S
C1152 C1154 1.381 . S
C1152 C1158 1.383 . S
C1153 C1149 1.495 . S
C1153 H1159 0.959 . S
C1153 H1160 0.961 . S
C1153 H1161 0.960 . S
C1154 C1152 1.381 . S
C1154 C1155 1.394 . S
C1154 H1162 0.930 . S
C1155 C1154 1.394 . S
C1155 C1156 1.383 . S
C1155 H1163 0.929 . S
C1156 C1155 1.383 . S
C1156 C1157 1.377 . S
C1157 H1141 0.930 . S
C1157 C1156 1.377 . S
C1157 C1158 1.379 . S
C1158 H1142 0.931 . S
C1158 C1152 1.383 . S
C1158 C1157 1.379 . S
H1159 C1153 0.959 . S
H1160 C1153 0.961 . S
H1161 C1153 0.960 . S
H1162 C1154 0.930 . S
H1163 C1155 0.929 . S
H1164 C1172 0.929 . S
H1165 C1174 0.930 . S
H1166 C1176 0.930 . S
H1167 C1179 0.929 . S
H1168 C1182 0.930 . S
H1169 C1184 0.960 . S
H1170 C1184 0.960 . S
H1171 C1184 0.960 . S
C1172 H1164 0.929 . S
C1172 C1173 1.377 . S
C1172 C1174 1.384 . S
C1173 C1172 1.377 . S
C1173 C1179 1.390 . S
C1174 H1165 0.930 . S
C1174 C1172 1.384 . S
C1174 C1175 1.372 . S
C1175 C1174 1.372 . S
C1175 C1176 1.400 . S
C1175 C1180 1.490 . S
C1176 H1166 0.930 . S
C1176 C1175 1.400 . S
C1176 C1179 1.386 . S
H1177 C1193 0.930 . S
H1178 C1194 0.931 . S
C1179 H1167 0.929 . S
C1179 C1173 1.390 . S
C1179 C1176 1.386 . S
C1180 C1175 1.490 . S
C1180 C1182 1.395 . S
C1180 C1183 1.403 . S
H1181 C1187 0.930 . S
C1182 H1168 0.930 . S
C1182 C1180 1.395 . S
C1182 C1185 1.403 . S
C1183 C1180 1.403 . S
C1183 C1184 1.524 . S
C1183 C1187 1.400 . S
C1184 H1169 0.960 . S
C1184 H1170 0.960 . S
C1184 H1171 0.960 . S
C1184 C1183 1.524 . S
C1185 C1182 1.403 . S
C1185 C1186 1.392 . S
C1185 C1189 1.495 . S
C1186 C1185 1.392 . S
C1186 C1187 1.385 . S
C1186 C1188 1.478 . S
C1187 H1181 0.930 . S
C1187 C1183 1.400 . S
C1187 C1186 1.385 . S
C1188 C1186 1.478 . S
C1188 C1190 1.381 . S
C1188 C1194 1.383 . S
C1189 C1185 1.495 . S
C1189 H1195 0.959 . S
C1189 H1196 0.961 . S
C1189 H1197 0.960 . S
C1190 C1188 1.381 . S
C1190 C1191 1.394 . S
C1190 H1198 0.930 . S
C1191 C1190 1.394 . S
C1191 C1192 1.383 . S
C1191 H1199 0.929 . S
C1192 C1191 1.383 . S
C1192 C1193 1.377 . S
C1193 H1177 0.930 . S
C1193 C1192 1.377 . S
C1193 C1194 1.379 . S
C1194 H1178 0.931 . S
C1194 C1188 1.383 . S
C1194 C1193 1.379 . S
H1195 C1189 0.959 . S
H1196 C1189 0.961 . S
H1197 C1189 0.960 . S
H1198 C1190 0.930 . S
H1199 C1191 0.929 . S
H1200 C1208 0.929 . S
H1201 C1210 0.930 . S
H1202 C1212 0.930 . S
H1203 C1215 0.929 . S
H1204 C1218 0.930 . S
H1205 C1220 0.960 . S
H1206 C1220 0.960 . S
H1207 C1220 0.960 . S
C1208 H1200 0.929 . S
C1208 C1209 1.377 . S
C1208 C1210 1.384 . S
C1209 C1208 1.377 . S
C1209 C1215 1.390 . S
C1210 H1201 0.930 . S
C1210 C1208 1.384 . S
C1210 C1211 1.372 . S
C1211 C1210 1.372 . S
C1211 C1212 1.400 . S
C1211 C1216 1.490 . S
C1212 H1202 0.930 . S
C1212 C1211 1.400 . S
C1212 C1215 1.386 . S
H1213 C1229 0.930 . S
H1214 C1230 0.931 . S
C1215 H1203 0.929 . S
C1215 C1209 1.390 . S
C1215 C1212 1.386 . S
C1216 C1211 1.490 . S
C1216 C1218 1.395 . S
C1216 C1219 1.403 . S
H1217 C1223 0.930 . S
C1218 H1204 0.930 . S
C1218 C1216 1.395 . S
C1218 C1221 1.403 . S
C1219 C1216 1.403 . S
C1219 C1220 1.524 . S
C1219 C1223 1.400 . S
C1220 H1205 0.960 . S
C1220 H1206 0.960 . S
C1220 H1207 0.960 . S
C1220 C1219 1.524 . S
C1221 C1218 1.403 . S
C1221 C1222 1.392 . S
C1221 C1225 1.495 . S
C1222 C1221 1.392 . S
C1222 C1223 1.385 . S
C1222 C1224 1.478 . S
C1223 H1217 0.930 . S
C1223 C1219 1.400 . S
C1223 C1222 1.385 . S
C1224 C1222 1.478 . S
C1224 C1226 1.381 . S
C1224 C1230 1.383 . S
C1225 C1221 1.495 . S
C1225 H1231 0.959 . S
C1225 H1232 0.961 . S
C1225 H1233 0.960 . S
C1226 C1224 1.381 . S
C1226 C1227 1.394 . S
C1226 H1234 0.930 . S
C1227 C1226 1.394 . S
C1227 C1228 1.383 . S
C1227 H1235 0.929 . S
C1228 C1227 1.383 . S
C1228 C1229 1.377 . S
C1229 H1213 0.930 . S
C1229 C1228 1.377 . S
C1229 C1230 1.379 . S
C1230 H1214 0.931 . S
C1230 C1224 1.383 . S
C1230 C1229 1.379 . S
H1231 C1225 0.959 . S
H1232 C1225 0.961 . S
H1233 C1225 0.960 . S
H1234 C1226 0.930 . S
H1235 C1227 0.929 . S
H1236 C1244 0.929 . S
H1237 C1246 0.930 . S
H1238 C1248 0.930 . S
H1239 C1251 0.929 . S
H1240 C1254 0.930 . S
H1241 C1256 0.960 . S
H1242 C1256 0.960 . S
H1243 C1256 0.960 . S
C1244 H1236 0.929 . S
C1244 C1245 1.377 . S
C1244 C1246 1.384 . S
C1245 C1244 1.377 . S
C1245 C1251 1.390 . S
C1246 H1237 0.930 . S
C1246 C1244 1.384 . S
C1246 C1247 1.372 . S
C1247 C1246 1.372 . S
C1247 C1248 1.400 . S
C1247 C1252 1.490 . S
C1248 H1238 0.930 . S
C1248 C1247 1.400 . S
C1248 C1251 1.386 . S
H1249 C1265 0.930 . S
H1250 C1266 0.931 . S
C1251 H1239 0.929 . S
C1251 C1245 1.390 . S
C1251 C1248 1.386 . S
C1252 C1247 1.490 . S
C1252 C1254 1.395 . S
C1252 C1255 1.403 . S
H1253 C1259 0.930 . S
C1254 H1240 0.930 . S
C1254 C1252 1.395 . S
C1254 C1257 1.403 . S
C1255 C1252 1.403 . S
C1255 C1256 1.524 . S
C1255 C1259 1.400 . S
C1256 H1241 0.960 . S
C1256 H1242 0.960 . S
C1256 H1243 0.960 . S
C1256 C1255 1.524 . S
C1257 C1254 1.403 . S
C1257 C1258 1.392 . S
C1257 C1261 1.495 . S
C1258 C1257 1.392 . S
C1258 C1259 1.385 . S
C1258 C1260 1.478 . S
C1259 H1253 0.930 . S
C1259 C1255 1.400 . S
C1259 C1258 1.385 . S
C1260 C1258 1.478 . S
C1260 C1262 1.381 . S
C1260 C1266 1.383 . S
C1261 C1257 1.495 . S
C1261 H1267 0.959 . S
C1261 H1268 0.961 . S
C1261 H1269 0.960 . S
C1262 C1260 1.381 . S
C1262 C1263 1.394 . S
C1262 H1270 0.930 . S
C1263 C1262 1.394 . S
C1263 C1264 1.383 . S
C1263 H1271 0.929 . S
C1264 C1263 1.383 . S
C1264 C1265 1.377 . S
C1265 H1249 0.930 . S
C1265 C1264 1.377 . S
C1265 C1266 1.379 . S
C1266 H1250 0.931 . S
C1266 C1260 1.383 . S
C1266 C1265 1.379 . S
H1267 C1261 0.959 . S
H1268 C1261 0.961 . S
H1269 C1261 0.960 . S
H1270 C1262 0.930 . S
H1271 C1263 0.929 . S
H1272 C1280 0.929 . S
H1273 C1282 0.930 . S
H1274 C1284 0.930 . S
H1275 C1287 0.929 . S
H1276 C1290 0.930 . S
H1277 C1292 0.960 . S
H1278 C1292 0.960 . S
H1279 C1292 0.960 . S
C1280 H1272 0.929 . S
C1280 C1281 1.377 . S
C1280 C1282 1.384 . S
C1281 C1280 1.377 . S
C1281 C1287 1.390 . S
C1282 H1273 0.930 . S
C1282 C1280 1.384 . S
C1282 C1283 1.372 . S
C1283 C1282 1.372 . S
C1283 C1284 1.400 . S
C1283 C1288 1.490 . S
C1284 H1274 0.930 . S
C1284 C1283 1.400 . S
C1284 C1287 1.386 . S
H1285 C1301 0.930 . S
H1286 C1302 0.931 . S
C1287 H1275 0.929 . S
C1287 C1281 1.390 . S
C1287 C1284 1.386 . S
C1288 C1283 1.490 . S
C1288 C1290 1.395 . S
C1288 C1291 1.403 . S
H1289 C1295 0.930 . S
C1290 H1276 0.930 . S
C1290 C1288 1.395 . S
C1290 C1293 1.403 . S
C1291 C1288 1.403 . S
C1291 C1292 1.524 . S
C1291 C1295 1.400 . S
C1292 H1277 0.960 . S
C1292 H1278 0.960 . S
C1292 H1279 0.960 . S
C1292 C1291 1.524 . S
C1293 C1290 1.403 . S
C1293 C1294 1.392 . S
C1293 C1297 1.495 . S
C1294 C1293 1.392 . S
C1294 C1295 1.385 . S
C1294 C1296 1.478 . S
C1295 H1289 0.930 . S
C1295 C1291 1.400 . S
C1295 C1294 1.385 . S
C1296 C1294 1.478 . S
C1296 C1298 1.381 . S
C1296 C1302 1.383 . S
C1297 C1293 1.495 . S
C1297 H1303 0.959 . S
C1297 H1304 0.961 . S
C1297 H1305 0.960 . S
C1298 C1296 1.381 . S
C1298 C1299 1.394 . S
C1298 H1306 0.930 . S
C1299 C1298 1.394 . S
C1299 C1300 1.383 . S
C1299 H1307 0.929 . S
C1300 C1299 1.383 . S
C1300 C1301 1.377 . S
C1301 H1285 0.930 . S
C1301 C1300 1.377 . S
C1301 C1302 1.379 . S
C1302 H1286 0.931 . S
C1302 C1296 1.383 . S
C1302 C1301 1.379 . S
H1303 C1297 0.959 . S
H1304 C1297 0.961 . S
H1305 C1297 0.960 . S
H1306 C1298 0.930 . S
H1307 C1299 0.929 . S
H1308 C1316 0.929 . S
H1309 C1318 0.930 . S
H1310 C1320 0.930 . S
H1311 C1323 0.929 . S
H1312 C1326 0.930 . S
H1313 C1328 0.960 . S
H1314 C1328 0.960 . S
H1315 C1328 0.960 . S
C1316 H1308 0.929 . S
C1316 C1317 1.377 . S
C1316 C1318 1.384 . S
C1317 C1316 1.377 . S
C1317 C1323 1.390 . S
C1318 H1309 0.930 . S
C1318 C1316 1.384 . S
C1318 C1319 1.372 . S
C1319 C1318 1.372 . S
C1319 C1320 1.400 . S
C1319 C1324 1.490 . S
C1320 H1310 0.930 . S
C1320 C1319 1.400 . S
C1320 C1323 1.386 . S
H1321 C1337 0.930 . S
H1322 C1338 0.931 . S
C1323 H1311 0.929 . S
C1323 C1317 1.390 . S
C1323 C1320 1.386 . S
C1324 C1319 1.490 . S
C1324 C1326 1.395 . S
C1324 C1327 1.403 . S
H1325 C1331 0.930 . S
C1326 H1312 0.930 . S
C1326 C1324 1.395 . S
C1326 C1329 1.403 . S
C1327 C1324 1.403 . S
C1327 C1328 1.524 . S
C1327 C1331 1.400 . S
C1328 H1313 0.960 . S
C1328 H1314 0.960 . S
C1328 H1315 0.960 . S
C1328 C1327 1.524 . S
C1329 C1326 1.403 . S
C1329 C1330 1.392 . S
C1329 C1333 1.495 . S
C1330 C1329 1.392 . S
C1330 C1331 1.385 . S
C1330 C1332 1.478 . S
C1331 H1325 0.930 . S
C1331 C1327 1.400 . S
C1331 C1330 1.385 . S
C1332 C1330 1.478 . S
C1332 C1334 1.381 . S
C1332 C1338 1.383 . S
C1333 C1329 1.495 . S
C1333 H1339 0.959 . S
C1333 H1340 0.961 . S
C1333 H1341 0.960 . S
C1334 C1332 1.381 . S
C1334 C1335 1.394 . S
C1334 H1342 0.930 . S
C1335 C1334 1.394 . S
C1335 C1336 1.383 . S
C1335 H1343 0.929 . S
C1336 C1335 1.383 . S
C1336 C1337 1.377 . S
C1337 H1321 0.930 . S
C1337 C1336 1.377 . S
C1337 C1338 1.379 . S
C1338 H1322 0.931 . S
C1338 C1332 1.383 . S
C1338 C1337 1.379 . S
H1339 C1333 0.959 . S
H1340 C1333 0.961 . S
H1341 C1333 0.960 . S
H1342 C1334 0.930 . S
H1343 C1335 0.929 . S
H1344 C1352 0.929 . S
H1345 C1354 0.930 . S
H1346 C1356 0.930 . S
H1347 C1359 0.929 . S
H1348 C1362 0.930 . S
H1349 C1364 0.960 . S
H1350 C1364 0.960 . S
H1351 C1364 0.960 . S
C1352 H1344 0.929 . S
C1352 C1353 1.377 . S
C1352 C1354 1.384 . S
C1353 C1352 1.377 . S
C1353 C1359 1.390 . S
C1354 H1345 0.930 . S
C1354 C1352 1.384 . S
C1354 C1355 1.372 . S
C1355 C1354 1.372 . S
C1355 C1356 1.400 . S
C1355 C1360 1.490 . S
C1356 H1346 0.930 . S
C1356 C1355 1.400 . S
C1356 C1359 1.386 . S
H1357 C1373 0.930 . S
H1358 C1374 0.931 . S
C1359 H1347 0.929 . S
C1359 C1353 1.390 . S
C1359 C1356 1.386 . S
C1360 C1355 1.490 . S
C1360 C1362 1.395 . S
C1360 C1363 1.403 . S
H1361 C1367 0.930 . S
C1362 H1348 0.930 . S
C1362 C1360 1.395 . S
C1362 C1365 1.403 . S
C1363 C1360 1.403 . S
C1363 C1364 1.524 . S
C1363 C1367 1.400 . S
C1364 H1349 0.960 . S
C1364 H1350 0.960 . S
C1364 H1351 0.960 . S
C1364 C1363 1.524 . S
C1365 C1362 1.403 . S
C1365 C1366 1.392 . S
C1365 C1369 1.495 . S
C1366 C1365 1.392 . S
C1366 C1367 1.385 . S
C1366 C1368 1.478 . S
C1367 H1361 0.930 . S
C1367 C1363 1.400 . S
C1367 C1366 1.385 . S
C1368 C1366 1.478 . S
C1368 C1370 1.381 . S
C1368 C1374 1.383 . S
C1369 C1365 1.495 . S
C1369 H1375 0.959 . S
C1369 H1376 0.961 . S
C1369 H1377 0.960 . S
C1370 C1368 1.381 . S
C1370 C1371 1.394 . S
C1370 H1378 0.930 . S
C1371 C1370 1.394 . S
C1371 C1372 1.383 . S
C1371 H1379 0.929 . S
C1372 C1371 1.383 . S
C1372 C1373 1.377 . S
C1373 H1357 0.930 . S
C1373 C1372 1.377 . S
C1373 C1374 1.379 . S
C1374 H1358 0.931 . S
C1374 C1368 1.383 . S
C1374 C1373 1.379 . S
H1375 C1369 0.959 . S
H1376 C1369 0.961 . S
H1377 C1369 0.960 . S
H1378 C1370 0.930 . S
H1379 C1371 0.929 . S
H1380 C1388 0.929 . S
H1381 C1390 0.930 . S
H1382 C1392 0.930 . S
H1383 C1395 0.929 . S
H1384 C1398 0.930 . S
H1385 C1400 0.960 . S
H1386 C1400 0.960 . S
H1387 C1400 0.960 . S
C1388 H1380 0.929 . S
C1388 C1389 1.377 . S
C1388 C1390 1.384 . S
C1389 C1388 1.377 . S
C1389 C1395 1.390 . S
C1390 H1381 0.930 . S
C1390 C1388 1.384 . S
C1390 C1391 1.372 . S
C1391 C1390 1.372 . S
C1391 C1392 1.400 . S
C1391 C1396 1.490 . S
C1392 H1382 0.930 . S
C1392 C1391 1.400 . S
C1392 C1395 1.386 . S
H1393 C1409 0.930 . S
H1394 C1410 0.931 . S
C1395 H1383 0.929 . S
C1395 C1389 1.390 . S
C1395 C1392 1.386 . S
C1396 C1391 1.490 . S
C1396 C1398 1.395 . S
C1396 C1399 1.403 . S
H1397 C1403 0.930 . S
C1398 H1384 0.930 . S
C1398 C1396 1.395 . S
C1398 C1401 1.403 . S
C1399 C1396 1.403 . S
C1399 C1400 1.524 . S
C1399 C1403 1.400 . S
C1400 H1385 0.960 . S
C1400 H1386 0.960 . S
C1400 H1387 0.960 . S
C1400 C1399 1.524 . S
C1401 C1398 1.403 . S
C1401 C1402 1.392 . S
C1401 C1405 1.495 . S
C1402 C1401 1.392 . S
C1402 C1403 1.385 . S
C1402 C1404 1.478 . S
C1403 H1397 0.930 . S
C1403 C1399 1.400 . S
C1403 C1402 1.385 . S
C1404 C1402 1.478 . S
C1404 C1406 1.381 . S
C1404 C1410 1.383 . S
C1405 C1401 1.495 . S
C1405 H1411 0.959 . S
C1405 H1412 0.961 . S
C1405 H1413 0.960 . S
C1406 C1404 1.381 . S
C1406 C1407 1.394 . S
C1406 H1414 0.930 . S
C1407 C1406 1.394 . S
C1407 C1408 1.383 . S
C1407 H1415 0.929 . S
C1408 C1407 1.383 . S
C1408 C1409 1.377 . S
C1409 H1393 0.930 . S
C1409 C1408 1.377 . S
C1409 C1410 1.379 . S
C1410 H1394 0.931 . S
C1410 C1404 1.383 . S
C1410 C1409 1.379 . S
H1411 C1405 0.959 . S
H1412 C1405 0.961 . S
H1413 C1405 0.960 . S
H1414 C1406 0.930 . S
H1415 C1407 0.929 . S
H1416 C1424 0.929 . S
H1417 C1426 0.930 . S
H1418 C1428 0.930 . S
H1419 C1431 0.929 . S
H1420 C1434 0.930 . S
H1421 C1436 0.960 . S
H1422 C1436 0.960 . S
H1423 C1436 0.960 . S
C1424 H1416 0.929 . S
C1424 C1425 1.377 . S
C1424 C1426 1.384 . S
C1425 C1424 1.377 . S
C1425 C1431 1.390 . S
C1426 H1417 0.930 . S
C1426 C1424 1.384 . S
C1426 C1427 1.372 . S
C1427 C1426 1.372 . S
C1427 C1428 1.400 . S
C1427 C1432 1.490 . S
C1428 H1418 0.930 . S
C1428 C1427 1.400 . S
C1428 C1431 1.386 . S
H1429 C1445 0.930 . S
H1430 C1446 0.931 . S
C1431 H1419 0.929 . S
C1431 C1425 1.390 . S
C1431 C1428 1.386 . S
C1432 C1427 1.490 . S
C1432 C1434 1.395 . S
C1432 C1435 1.403 . S
H1433 C1439 0.930 . S
C1434 H1420 0.930 . S
C1434 C1432 1.395 . S
C1434 C1437 1.403 . S
C1435 C1432 1.403 . S
C1435 C1436 1.524 . S
C1435 C1439 1.400 . S
C1436 H1421 0.960 . S
C1436 H1422 0.960 . S
C1436 H1423 0.960 . S
C1436 C1435 1.524 . S
C1437 C1434 1.403 . S
C1437 C1438 1.392 . S
C1437 C1441 1.495 . S
C1438 C1437 1.392 . S
C1438 C1439 1.385 . S
C1438 C1440 1.478 . S
C1439 H1433 0.930 . S
C1439 C1435 1.400 . S
C1439 C1438 1.385 . S
C1440 C1438 1.478 . S
C1440 C1442 1.381 . S
C1440 C1446 1.383 . S
C1441 C1437 1.495 . S
C1441 H1447 0.959 . S
C1441 H1448 0.961 . S
C1441 H1449 0.960 . S
C1442 C1440 1.381 . S
C1442 C1443 1.394 . S
C1442 H1450 0.930 . S
C1443 C1442 1.394 . S
C1443 C1444 1.383 . S
C1443 H1451 0.929 . S
C1444 C1443 1.383 . S
C1444 C1445 1.377 . S
C1445 H1429 0.930 . S
C1445 C1444 1.377 . S
C1445 C1446 1.379 . S
C1446 H1430 0.931 . S
C1446 C1440 1.383 . S
C1446 C1445 1.379 . S
H1447 C1441 0.959 . S
H1448 C1441 0.961 . S
H1449 C1441 0.960 . S
H1450 C1442 0.930 . S
H1451 C1443 0.929 . S
H1452 C1460 0.929 . S
H1453 C1462 0.930 . S
H1454 C1464 0.930 . S
H1455 C1467 0.929 . S
H1456 C1470 0.930 . S
H1457 C1472 0.960 . S
H1458 C1472 0.960 . S
H1459 C1472 0.960 . S
C1460 H1452 0.929 . S
C1460 C1461 1.377 . S
C1460 C1462 1.384 . S
C1461 C1460 1.377 . S
C1461 C1467 1.390 . S
C1462 H1453 0.930 . S
C1462 C1460 1.384 . S
C1462 C1463 1.372 . S
C1463 C1462 1.372 . S
C1463 C1464 1.400 . S
C1463 C1468 1.490 . S
C1464 H1454 0.930 . S
C1464 C1463 1.400 . S
C1464 C1467 1.386 . S
H1465 C1481 0.930 . S
H1466 C1482 0.931 . S
C1467 H1455 0.929 . S
C1467 C1461 1.390 . S
C1467 C1464 1.386 . S
C1468 C1463 1.490 . S
C1468 C1470 1.395 . S
C1468 C1471 1.403 . S
H1469 C1475 0.930 . S
C1470 H1456 0.930 . S
C1470 C1468 1.395 . S
C1470 C1473 1.403 . S
C1471 C1468 1.403 . S
C1471 C1472 1.524 . S
C1471 C1475 1.400 . S
C1472 H1457 0.960 . S
C1472 H1458 0.960 . S
C1472 H1459 0.960 . S
C1472 C1471 1.524 . S
C1473 C1470 1.403 . S
C1473 C1474 1.392 . S
C1473 C1477 1.495 . S
C1474 C1473 1.392 . S
C1474 C1475 1.385 . S
C1474 C1476 1.478 . S
C1475 H1469 0.930 . S
C1475 C1471 1.400 . S
C1475 C1474 1.385 . S
C1476 C1474 1.478 . S
C1476 C1478 1.381 . S
C1476 C1482 1.383 . S
C1477 C1473 1.495 . S
C1477 H1483 0.959 . S
C1477 H1484 0.961 . S
C1477 H1485 0.960 . S
C1478 C1476 1.381 . S
C1478 C1479 1.394 . S
C1478 H1486 0.930 . S
C1479 C1478 1.394 . S
C1479 C1480 1.383 . S
C1479 H1487 0.929 . S
C1480 C1479 1.383 . S
C1480 C1481 1.377 . S
C1481 H1465 0.930 . S
C1481 C1480 1.377 . S
C1481 C1482 1.379 . S
C1482 H1466 0.931 . S
C1482 C1476 1.383 . S
C1482 C1481 1.379 . S
H1483 C1477 0.959 . S
H1484 C1477 0.961 . S
H1485 C1477 0.960 . S
H1486 C1478 0.930 . S
H1487 C1479 0.929 . S
H1488 C1496 0.929 . S
H1489 C1498 0.930 . S
H1490 C1500 0.930 . S
H1491 C1503 0.929 . S
H1492 C1506 0.930 . S
H1493 C1508 0.960 . S
H1494 C1508 0.960 . S
H1495 C1508 0.960 . S
C1496 H1488 0.929 . S
C1496 C1497 1.377 . S
C1496 C1498 1.384 . S
C1497 C1496 1.377 . S
C1497 C1503 1.390 . S
C1498 H1489 0.930 . S
C1498 C1496 1.384 . S
C1498 C1499 1.372 . S
C1499 C1498 1.372 . S
C1499 C1500 1.400 . S
C1499 C1504 1.490 . S
C1500 H1490 0.930 . S
C1500 C1499 1.400 . S
C1500 C1503 1.386 . S
H1501 C1517 0.930 . S
H1502 C1518 0.931 . S
C1503 H1491 0.929 . S
C1503 C1497 1.390 . S
C1503 C1500 1.386 . S
C1504 C1499 1.490 . S
C1504 C1506 1.395 . S
C1504 C1507 1.403 . S
H1505 C1511 0.930 . S
C1506 H1492 0.930 . S
C1506 C1504 1.395 . S
C1506 C1509 1.403 . S
C1507 C1504 1.403 . S
C1507 C1508 1.524 . S
C1507 C1511 1.400 . S
C1508 H1493 0.960 . S
C1508 H1494 0.960 . S
C1508 H1495 0.960 . S
C1508 C1507 1.524 . S
C1509 C1506 1.403 . S
C1509 C1510 1.392 . S
C1509 C1513 1.495 . S
C1510 C1509 1.392 . S
C1510 C1511 1.385 . S
C1510 C1512 1.478 . S
C1511 H1505 0.930 . S
C1511 C1507 1.400 . S
C1511 C1510 1.385 . S
C1512 C1510 1.478 . S
C1512 C1514 1.381 . S
C1512 C1518 1.383 . S
C1513 C1509 1.495 . S
C1513 H1519 0.959 . S
C1513 H1520 0.961 . S
C1513 H1521 0.960 . S
C1514 C1512 1.381 . S
C1514 C1515 1.394 . S
C1514 H1522 0.930 . S
C1515 C1514 1.394 . S
C1515 C1516 1.383 . S
C1515 H1523 0.929 . S
C1516 C1515 1.383 . S
C1516 C1517 1.377 . S
C1517 H1501 0.930 . S
C1517 C1516 1.377 . S
C1517 C1518 1.379 . S
C1518 H1502 0.931 . S
C1518 C1512 1.383 . S
C1518 C1517 1.379 . S
H1519 C1513 0.959 . S
H1520 C1513 0.961 . S
H1521 C1513 0.960 . S
H1522 C1514 0.930 . S
H1523 C1515 0.929 . S
H1524 C1532 0.929 . S
H1525 C1534 0.930 . S
H1526 C1536 0.930 . S
H1527 C1539 0.929 . S
H1528 C1542 0.930 . S
H1529 C1544 0.960 . S
H1530 C1544 0.960 . S
H1531 C1544 0.960 . S
C1532 H1524 0.929 . S
C1532 C1533 1.377 . S
C1532 C1534 1.384 . S
C1533 C1532 1.377 . S
C1533 C1539 1.390 . S
C1534 H1525 0.930 . S
C1534 C1532 1.384 . S
C1534 C1535 1.372 . S
C1535 C1534 1.372 . S
C1535 C1536 1.400 . S
C1535 C1540 1.490 . S
C1536 H1526 0.930 . S
C1536 C1535 1.400 . S
C1536 C1539 1.386 . S
H1537 C1553 0.930 . S
H1538 C1554 0.931 . S
C1539 H1527 0.929 . S
C1539 C1533 1.390 . S
C1539 C1536 1.386 . S
C1540 C1535 1.490 . S
C1540 C1542 1.395 . S
C1540 C1543 1.403 . S
H1541 C1547 0.930 . S
C1542 H1528 0.930 . S
C1542 C1540 1.395 . S
C1542 C1545 1.403 . S
C1543 C1540 1.403 . S
C1543 C1544 1.524 . S
C1543 C1547 1.400 . S
C1544 H1529 0.960 . S
C1544 H1530 0.960 . S
C1544 H1531 0.960 . S
C1544 C1543 1.524 . S
C1545 C1542 1.403 . S
C1545 C1546 1.392 . S
C1545 C1549 1.495 . S
C1546 C1545 1.392 . S
C1546 C1547 1.385 . S
C1546 C1548 1.478 . S
C1547 H1541 0.930 . S
C1547 C1543 1.400 . S
C1547 C1546 1.385 . S
C1548 C1546 1.478 . S
C1548 C1550 1.381 . S
C1548 C1554 1.383 . S
C1549 C1545 1.495 . S
C1549 H1555 0.959 . S
C1549 H1556 0.961 . S
C1549 H1557 0.960 . S
C1550 C1548 1.381 . S
C1550 C1551 1.394 . S
C1550 H1558 0.930 . S
C1551 C1550 1.394 . S
C1551 C1552 1.383 . S
C1551 H1559 0.929 . S
C1552 C1551 1.383 . S
C1552 C1553 1.377 . S
C1553 H1537 0.930 . S
C1553 C1552 1.377 . S
C1553 C1554 1.379 . S
C1554 H1538 0.931 . S
C1554 C1548 1.383 . S
C1554 C1553 1.379 . S
H1555 C1549 0.959 . S
H1556 C1549 0.961 . S
H1557 C1549 0.960 . S
H1558 C1550 0.930 . S
H1559 C1551 0.929 . S
H1560 C1568 0.929 . S
H1561 C1570 0.930 . S
H1562 C1572 0.930 . S
H1563 C1575 0.929 . S
H1564 C1578 0.930 . S
H1565 C1580 0.960 . S
H1566 C1580 0.960 . S
H1567 C1580 0.960 . S
C1568 H1560 0.929 . S
C1568 C1569 1.377 . S
C1568 C1570 1.384 . S
C1569 C1568 1.377 . S
C1569 C1575 1.390 . S
C1570 H1561 0.930 . S
C1570 C1568 1.384 . S
C1570 C1571 1.372 . S
C1571 C1570 1.372 . S
C1571 C1572 1.400 . S
C1571 C1576 1.490 . S
C1572 H1562 0.930 . S
C1572 C1571 1.400 . S
C1572 C1575 1.386 . S
H1573 C1589 0.930 . S
H1574 C1590 0.931 . S
C1575 H1563 0.929 . S
C1575 C1569 1.390 . S
C1575 C1572 1.386 . S
C1576 C1571 1.490 . S
C1576 C1578 1.395 1_556 S
C1576 C1579 1.403 . S
H1577 C1583 0.930 . S
C1578 H1564 0.930 . S
C1578 C1576 1.395 1_554 S
C1578 C1581 1.403 . S
C1579 C1576 1.403 . S
C1579 C1580 1.524 . S
C1579 C1583 1.400 . S
C1580 H1565 0.960 . S
C1580 H1566 0.960 . S
C1580 H1567 0.960 . S
C1580 C1579 1.524 . S
C1581 C1578 1.403 . S
C1581 C1582 1.392 . S
C1581 C1585 1.495 . S
C1582 C1581 1.392 . S
C1582 C1583 1.385 1_554 S
C1582 C1584 1.478 . S
C1583 H1577 0.930 . S
C1583 C1579 1.400 . S
C1583 C1582 1.385 1_556 S
C1584 C1582 1.478 . S
C1584 C1586 1.381 . S
C1584 C1590 1.383 . S
C1585 C1581 1.495 . S
C1585 H1591 0.959 . S
C1585 H1592 0.961 . S
C1585 H1593 0.960 . S
C1586 C1584 1.381 . S
C1586 C1587 1.394 . S
C1586 H1594 0.930 . S
C1587 C1586 1.394 . S
C1587 C1588 1.383 . S
C1587 H1595 0.929 . S
C1588 C1587 1.383 . S
C1588 C1589 1.377 . S
C1589 H1573 0.930 . S
C1589 C1588 1.377 . S
C1589 C1590 1.379 . S
C1590 H1574 0.931 . S
C1590 C1584 1.383 . S
C1590 C1589 1.379 . S
H1591 C1585 0.959 . S
H1592 C1585 0.961 . S
H1593 C1585 0.960 . S
H1594 C1586 0.930 . S
H1595 C1587 0.929 . S
H1596 C1604 0.929 . S
H1597 C1606 0.930 . S
H1598 C1608 0.930 . S
H1599 C1611 0.929 . S
H1600 C1614 0.930 . S
H1601 C1616 0.960 . S
H1602 C1616 0.960 . S
H1603 C1616 0.960 1_455 S
C1604 H1596 0.929 . S
C1604 C1605 1.377 . S
C1604 C1606 1.384 . S
C1605 C1604 1.377 . S
C1605 C1611 1.390 . S
C1606 H1597 0.930 . S
C1606 C1604 1.384 . S
C1606 C1607 1.372 . S
C1607 C1606 1.372 . S
C1607 C1608 1.400 . S
C1607 C1612 1.490 . S
C1608 H1598 0.930 . S
C1608 C1607 1.400 . S
C1608 C1611 1.386 . S
H1609 C1625 0.930 . S
H1610 C1626 0.931 . S
C1611 H1599 0.929 . S
C1611 C1605 1.390 . S
C1611 C1608 1.386 . S
C1612 C1607 1.490 . S
C1612 C1614 1.395 . S
C1612 C1615 1.403 1_455 S
H1613 C1619 0.930 . S
C1614 H1600 0.930 . S
C1614 C1612 1.395 . S
C1614 C1617 1.403 . S
C1615 C1612 1.403 1_655 S
C1615 C1616 1.524 . S
C1615 C1619 1.400 . S
C1616 H1601 0.960 . S
C1616 H1602 0.960 . S
C1616 H1603 0.960 1_655 S
C1616 C1615 1.524 . S
C1617 C1614 1.403 . S
C1617 C1618 1.392 1_455 S
C1617 C1621 1.495 . S
C1618 C1617 1.392 1_655 S
C1618 C1619 1.385 . S
C1618 C1620 1.478 . S
C1619 H1613 0.930 . S
C1619 C1615 1.400 . S
C1619 C1618 1.385 . S
C1620 C1618 1.478 . S
C1620 C1622 1.381 . S
C1620 C1626 1.383 . S
C1621 C1617 1.495 . S
C1621 H1627 0.959 . S
C1621 H1628 0.961 . S
C1621 H1629 0.960 1_455 S
C1622 C1620 1.381 . S
C1622 C1623 1.394 . S
C1622 H1630 0.930 . S
C1623 C1622 1.394 . S
C1623 C1624 1.383 . S
C1623 H1631 0.929 . S
C1624 C1623 1.383 . S
C1624 C1625 1.377 . S
C1625 H1609 0.930 . S
C1625 C1624 1.377 . S
C1625 C1626 1.379 . S
C1626 H1610 0.931 . S
C1626 C1620 1.383 . S
C1626 C1625 1.379 . S
H1627 C1621 0.959 . S
H1628 C1621 0.961 . S
H1629 C1621 0.960 1_655 S
H1630 C1622 0.930 . S
H1631 C1623 0.929 . S
H1632 C1640 0.929 . S
H1633 C1642 0.930 . S
H1634 C1644 0.930 . S
H1635 C1647 0.929 . S
H1636 C1650 0.930 . S
H1637 C1652 0.960 1_556 S
H1638 C1652 0.961 . S
H1639 C1652 0.960 . S
C1640 H1632 0.929 . S
C1640 C1641 1.377 . S
C1640 C1642 1.384 . S
C1641 C1640 1.377 . S
C1641 C1647 1.390 . S
C1642 H1633 0.930 . S
C1642 C1640 1.384 . S
C1642 C1643 1.372 . S
C1643 C1642 1.372 . S
C1643 C1644 1.400 . S
C1643 C1648 1.490 . S
C1644 H1634 0.930 . S
C1644 C1643 1.400 . S
C1644 C1647 1.386 . S
H1645 C1661 0.930 . S
H1646 C1662 0.931 . S
C1647 H1635 0.929 . S
C1647 C1641 1.390 . S
C1647 C1644 1.386 . S
C1648 C1643 1.490 . S
C1648 C1650 1.395 . S
C1648 C1651 1.403 . S
H1649 C1655 0.930 . S
C1650 H1636 0.930 . S
C1650 C1648 1.395 . S
C1650 C1653 1.403 1_564 S
C1651 C1648 1.403 . S
C1651 C1652 1.524 . S
C1651 C1655 1.400 1_564 S
C1652 H1637 0.960 1_554 S
C1652 H1638 0.961 . S
C1652 H1639 0.960 . S
C1652 C1651 1.524 . S
C1653 C1650 1.403 1_546 S
C1653 C1654 1.392 . S
C1653 C1657 1.495 . S
C1654 C1653 1.392 . S
C1654 C1655 1.385 . S
C1654 C1656 1.478 . S
C1655 H1649 0.930 . S
C1655 C1651 1.400 1_546 S
C1655 C1654 1.385 . S
C1656 C1654 1.478 . S
C1656 C1658 1.381 . S
C1656 C1662 1.383 . S
C1657 C1653 1.495 . S
C1657 H1663 0.959 1_556 S
C1657 H1664 0.961 . S
C1657 H1665 0.960 . S
C1658 C1656 1.381 . S
C1658 C1659 1.394 . S
C1658 H1666 0.930 . S
C1659 C1658 1.394 . S
C1659 C1660 1.383 . S
C1659 H1667 0.929 . S
C1660 C1659 1.383 . S
C1660 C1661 1.377 . S
C1661 H1645 0.930 . S
C1661 C1660 1.377 . S
C1661 C1662 1.379 . S
C1662 H1646 0.931 . S
C1662 C1656 1.383 . S
C1662 C1661 1.379 . S
H1663 C1657 0.959 1_554 S
H1664 C1657 0.961 . S
H1665 C1657 0.960 . S
H1666 C1658 0.930 . S
H1667 C1659 0.929 . S
H1668 C1676 0.929 . S
H1669 C1678 0.930 . S
H1670 C1680 0.930 . S
H1671 C1683 0.929 . S
H1672 C1686 0.930 . S
H1673 C1688 0.960 . S
H1674 C1688 0.960 . S
H1675 C1688 0.960 . S
C1676 H1668 0.929 . S
C1676 C1677 1.377 . S
C1676 C1678 1.384 . S
C1677 C1676 1.377 . S
C1677 C1683 1.390 . S
C1678 H1669 0.930 . S
C1678 C1676 1.384 . S
C1678 C1679 1.372 . S
C1679 C1678 1.372 . S
C1679 C1680 1.400 . S
C1679 C1684 1.490 . S
C1680 H1670 0.930 . S
C1680 C1679 1.400 . S
C1680 C1683 1.386 . S
H1681 C1697 0.930 . S
H1682 C1698 0.931 . S
C1683 H1671 0.929 . S
C1683 C1677 1.390 . S
C1683 C1680 1.386 . S
C1684 C1679 1.490 . S
C1684 C1686 1.395 . S
C1684 C1687 1.403 . S
H1685 C1691 0.930 . S
C1686 H1672 0.930 . S
C1686 C1684 1.395 . S
C1686 C1689 1.403 . S
C1687 C1684 1.403 . S
C1687 C1688 1.524 . S
C1687 C1691 1.400 . S
C1688 H1673 0.960 . S
C1688 H1674 0.960 . S
C1688 H1675 0.960 . S
C1688 C1687 1.524 . S
C1689 C1686 1.403 . S
C1689 C1690 1.392 . S
C1689 C1693 1.495 . S
C1690 C1689 1.392 . S
C1690 C1691 1.385 . S
C1690 C1692 1.478 . S
C1691 H1685 0.930 . S
C1691 C1687 1.400 . S
C1691 C1690 1.385 . S
C1692 C1690 1.478 . S
C1692 C1694 1.381 . S
C1692 C1698 1.383 . S
C1693 C1689 1.495 . S
C1693 H1699 0.959 . S
C1693 H1700 0.961 . S
C1693 H1701 0.960 . S
C1694 C1692 1.381 . S
C1694 C1695 1.394 . S
C1694 H1702 0.930 . S
C1695 C1694 1.394 . S
C1695 C1696 1.383 . S
C1695 H1703 0.929 . S
C1696 C1695 1.383 . S
C1696 C1697 1.377 . S
C1697 H1681 0.930 . S
C1697 C1696 1.377 . S
C1697 C1698 1.379 . S
C1698 H1682 0.931 . S
C1698 C1692 1.383 . S
C1698 C1697 1.379 . S
H1699 C1693 0.959 . S
H1700 C1693 0.961 . S
H1701 C1693 0.960 . S
H1702 C1694 0.930 . S
H1703 C1695 0.929 . S
H1704 C1712 0.929 . S
H1705 C1714 0.930 . S
H1706 C1716 0.930 . S
H1707 C1719 0.929 . S
H1708 C1722 0.930 . S
H1709 C1724 0.960 . S
H1710 C1724 0.960 . S
H1711 C1724 0.960 . S
C1712 H1704 0.929 . S
C1712 C1713 1.377 . S
C1712 C1714 1.384 . S
C1713 C1712 1.377 . S
C1713 C1719 1.390 . S
C1714 H1705 0.930 . S
C1714 C1712 1.384 . S
C1714 C1715 1.372 . S
C1715 C1714 1.372 . S
C1715 C1716 1.400 . S
C1715 C1720 1.490 . S
C1716 H1706 0.930 . S
C1716 C1715 1.400 . S
C1716 C1719 1.386 . S
H1717 C1733 0.930 . S
H1718 C1734 0.931 . S
C1719 H1707 0.929 . S
C1719 C1713 1.390 . S
C1719 C1716 1.386 . S
C1720 C1715 1.490 . S
C1720 C1722 1.395 1_655 S
C1720 C1723 1.403 1_556 S
H1721 C1727 0.930 . S
C1722 H1708 0.930 . S
C1722 C1720 1.395 1_455 S
C1722 C1725 1.403 . S
C1723 C1720 1.403 1_554 S
C1723 C1724 1.524 . S
C1723 C1727 1.400 . S
C1724 H1709 0.960 . S
C1724 H1710 0.960 . S
C1724 H1711 0.960 . S
C1724 C1723 1.524 . S
C1725 C1722 1.403 . S
C1725 C1726 1.392 1_556 S
C1725 C1729 1.495 . S
C1726 C1725 1.392 1_554 S
C1726 C1727 1.385 1_455 S
C1726 C1728 1.478 . S
C1727 H1721 0.930 . S
C1727 C1723 1.400 . S
C1727 C1726 1.385 1_655 S
C1728 C1726 1.478 . S
C1728 C1730 1.381 . S
C1728 C1734 1.383 . S
C1729 C1725 1.495 . S
C1729 H1735 0.959 . S
C1729 H1736 0.961 . S
C1729 H1737 0.960 . S
C1730 C1728 1.381 . S
C1730 C1731 1.394 . S
C1730 H1738 0.930 . S
C1731 C1730 1.394 . S
C1731 C1732 1.383 . S
C1731 H1739 0.929 . S
C1732 C1731 1.383 . S
C1732 C1733 1.377 . S
C1733 H1717 0.930 . S
C1733 C1732 1.377 . S
C1733 C1734 1.379 . S
C1734 H1718 0.931 . S
C1734 C1728 1.383 . S
C1734 C1733 1.379 . S
H1735 C1729 0.959 . S
H1736 C1729 0.961 . S
H1737 C1729 0.960 . S
H1738 C1730 0.930 . S
H1739 C1731 0.929 . S
H1740 C1748 0.929 . S
H1741 C1750 0.930 . S
H1742 C1752 0.930 . S
H1743 C1755 0.929 . S
H1744 C1758 0.930 . S
H1745 C1760 0.960 . S
H1746 C1760 0.960 . S
H1747 C1760 0.960 . S
C1748 H1740 0.929 . S
C1748 C1749 1.377 . S
C1748 C1750 1.384 . S
C1749 C1748 1.377 . S
C1749 C1755 1.390 . S
C1750 H1741 0.930 . S
C1750 C1748 1.384 . S
C1750 C1751 1.372 . S
C1751 C1750 1.372 . S
C1751 C1752 1.400 . S
C1751 C1756 1.490 . S
C1752 H1742 0.930 . S
C1752 C1751 1.400 . S
C1752 C1755 1.386 . S
H1753 C1769 0.930 . S
H1754 C1770 0.931 . S
C1755 H1743 0.929 . S
C1755 C1749 1.390 . S
C1755 C1752 1.386 . S
C1756 C1751 1.490 . S
C1756 C1758 1.395 . S
C1756 C1759 1.403 1_565 S
H1757 C1763 0.930 . S
C1758 H1744 0.930 . S
C1758 C1756 1.395 . S
C1758 C1761 1.403 . S
C1759 C1756 1.403 1_545 S
C1759 C1760 1.524 . S
C1759 C1763 1.400 . S
C1760 H1745 0.960 . S
C1760 H1746 0.960 . S
C1760 H1747 0.960 . S
C1760 C1759 1.524 . S
C1761 C1758 1.403 . S
C1761 C1762 1.392 1_565 S
C1761 C1765 1.495 . S
C1762 C1761 1.392 1_545 S
C1762 C1763 1.385 . S
C1762 C1764 1.478 . S
C1763 H1757 0.930 . S
C1763 C1759 1.400 . S
C1763 C1762 1.385 . S
C1764 C1762 1.478 . S
C1764 C1766 1.381 . S
C1764 C1770 1.383 . S
C1765 C1761 1.495 . S
C1765 H1771 0.959 . S
C1765 H1772 0.961 . S
C1765 H1773 0.960 . S
C1766 C1764 1.381 . S
C1766 C1767 1.394 . S
C1766 H1774 0.930 . S
C1767 C1766 1.394 . S
C1767 C1768 1.383 . S
C1767 H1775 0.929 . S
C1768 C1767 1.383 . S
C1768 C1769 1.377 . S
C1769 H1753 0.930 . S
C1769 C1768 1.377 . S
C1769 C1770 1.379 . S
C1770 H1754 0.931 . S
C1770 C1764 1.383 . S
C1770 C1769 1.379 . S
H1771 C1765 0.959 . S
H1772 C1765 0.961 . S
H1773 C1765 0.960 . S
H1774 C1766 0.930 . S
H1775 C1767 0.929 . S
C489 C169 1.178 . S
C508 C5 1.210 . S
C525 C209 1.177 . S
C544 C45 1.192 . S
C561 C85 1.207 . S
C580 C9 1.198 . S
C597 C125 1.203 . S
C616 C49 1.178 . S
C633 C165 1.203 . S
C652 C89 1.185 . S
C669 C129 1.182 . S
C688 C205 1.197 . S
C705 C329 1.179 . S
C724 C245 1.193 . S
C741 C285 1.203 . S
C760 C369 1.160 . S
C777 C409 1.178 . S
C796 C325 1.210 . S
C813 C365 1.203 . S
C832 C449 1.150 . S
C849 C405 1.203 . S
C868 C249 1.179 . S
C885 C289 1.175 . S
C904 C445 1.193 . S
C921 C179 1.674 . S
C940 C15 1.666 . S
C957 C55 1.675 . S
C976 C219 1.658 . S
C993 C95 1.676 . S
C1012 C19 1.654 . S
C1029 C135 1.673 . S
C1048 C59 1.677 . S
C1065 C99 1.674 . S
C1084 C175 1.667 . S
C1101 C139 1.673 . S
C1120 C215 1.673 . S
C1137 C339 1.671 . S
C1156 C255 1.662 . S
C1173 C295 1.673 . S
C1192 C379 1.668 . S
C1209 C335 1.673 . S
C1228 C419 1.681 . S
C1245 C459 1.670 . S
C1264 C375 1.683 . S
C1281 C415 1.677 . S
C1300 C259 1.665 . S
C1317 C299 1.672 . S
C1336 C455 1.659 . S
C1353 C408 1.634 . S
C1372 C8 1.654 . S
C1389 C48 1.643 . S
C1408 C448 1.606 . S
C1425 C88 1.644 . S
C1444 C248 1.660 . S
C1461 C128 1.634 . S
C1480 C288 1.642 . S
C1497 C168 1.645 . S
C1516 C328 1.653 . S
C1533 C368 1.634 . S
C1552 C208 1.638 . S
C1569 C378 2.069 . S
C1588 C18 2.066 . S
C1605 C418 2.069 . S
C1624 C58 2.063 . S
C1641 C98 2.070 . S
C1660 C458 2.071 . S
C1677 C138 2.069 . S
C1696 C258 2.068 . S
C1713 C298 2.071 . S
C1732 C178 2.067 . S
C1749 C338 2.069 . S
C1768 C218 2.067 . S
