# Generated by pormake.
# Topology vmz, (8)-cn, num edge types: 1
# Building blocks:
#     Node 0, Type 0, BuildingBlock: TAGTUT_clean_sbu_3, # of connection points: 8
#     Node 1, Type 0, BuildingBlock: TAGTUT_clean_sbu_3, # of connection points: 8
#     Node 2, Type 0, BuildingBlock: TAGTUT_clean_sbu_3, # of connection points: 8
#     Node 3, Type 0, BuildingBlock: TAGTUT_clean_sbu_3, # of connection points: 8
#     Edge 4, Type (0, 0), BuildingBlock: FUNLAD_clean_linker_1, # of connection points: 2
#     Edge 5, Type (0, 0), BuildingBlock: FUNLAD_clean_linker_1, # of connection points: 2
#     Edge 6, Type (0, 0), BuildingBlock: FUNLAD_clean_linker_1, # of connection points: 2
#     Edge 7, Type (0, 0), BuildingBlock: FUNLAD_clean_linker_1, # of connection points: 2
#     Edge 8, Type (0, 0), BuildingBlock: FUNLAD_clean_linker_1, # of connection points: 2
#     Edge 9, Type (0, 0), BuildingBlock: FUNLAD_clean_linker_1, # of connection points: 2
#     Edge 10, Type (0, 0), BuildingBlock: FUNLAD_clean_linker_1, # of connection points: 2
#     Edge 11, Type (0, 0), BuildingBlock: FUNLAD_clean_linker_1, # of connection points: 2
#     Edge 12, Type (0, 0), BuildingBlock: FUNLAD_clean_linker_1, # of connection points: 2
#     Edge 13, Type (0, 0), BuildingBlock: FUNLAD_clean_linker_1, # of connection points: 2
#     Edge 14, Type (0, 0), BuildingBlock: FUNLAD_clean_linker_1, # of connection points: 2
#     Edge 15, Type (0, 0), BuildingBlock: FUNLAD_clean_linker_1, # of connection points: 2
#     Edge 16, Type (0, 0), BuildingBlock: FUNLAD_clean_linker_1, # of connection points: 2
#     Edge 17, Type (0, 0), BuildingBlock: FUNLAD_clean_linker_1, # of connection points: 2
#     Edge 18, Type (0, 0), BuildingBlock: FUNLAD_clean_linker_1, # of connection points: 2
#     Edge 19, Type (0, 0), BuildingBlock: FUNLAD_clean_linker_1, # of connection points: 2
# Relax obj value: 0.213
# Max RMSD: 0.272
# Mean RMSD: 0.270
data_MOF--net-vmz--node1-TAGTUT_clean_sbu_3--edge1-FUNLAD_clean_linker_1
_symmetry_space_group_name_H-M    P1
_symmetry_Int_Tables_number       1
_symmetry_cell_setting            triclinic
loop_
_symmetry_equiv_pos_as_xyz
'x, y, z'
_cell_length_a     25.535968
_cell_length_b     19.373686
_cell_length_c     34.089441
_cell_angle_alpha  89.507369
_cell_angle_beta   99.231547
_cell_angle_gamma 90.019018
loop_
_atom_site_label
_atom_site_type_symbol
_atom_site_fract_x
_atom_site_fract_y
_atom_site_fract_z
_atom_type_partial_charge
C0 C 0.20478 0.25509 0.15792 0.0
C1 C 0.2298 0.44352 0.04645 0.0
C2 C 0.22771 0.26116 0.97221 0.0
Mg3 Mg 0.23298 0.09436 0.15971 0.0
Mg4 Mg 0.33611 0.03638 0.12325 0.0
O5 O 0.27489 0.08889 0.11441 0.0
Mg6 Mg 0.27461 0.18748 0.09664 0.0
O7 O 0.26585 0.28689 0.07985 0.0
Mg8 Mg 0.18646 0.28616 0.06114 0.0
Mg9 Mg 0.30517 0.31766 0.04116 0.0
C10 C 0.34781 0.10817 0.04035 0.0
O11 O 0.36107 0.21354 0.12247 0.0
O12 O 0.22777 0.97572 0.15808 0.0
O13 O 0.3811 0.2909 0.07681 0.0
O14 O 0.30814 0.08237 0.20801 0.0
O15 O 0.29652 0.94048 0.12922 0.0
O16 O 0.37957 0.06099 0.18013 0.0
O17 O 0.1903 0.17095 0.06888 0.0
O18 O 0.15853 0.10266 0.11223 0.0
C19 C 0.15228 0.13805 0.08 0.0
C20 C 0.25461 0.92822 0.1444 0.0
O21 O 0.31156 0.15358 0.04216 0.0
O22 O 0.19347 0.40263 0.05465 0.0
O23 O 0.36362 0.06516 0.06872 0.0
O24 O 0.19231 0.27318 0.99389 0.0
O25 O 0.27498 0.42236 0.03947 0.0
O26 O 0.27702 0.26637 0.98582 0.0
O27 O 0.24138 0.21288 0.15253 0.0
O28 O 0.18012 0.29164 0.12907 0.0
C29 C 0.35788 0.07057 0.21083 0.0
C30 C 0.39404 0.25302 0.10804 0.0
C31 C 0.64258 0.6326 0.47278 0.0
C32 C 0.75055 0.8199 0.54734 0.0
C33 C 0.73902 0.92926 0.43252 0.0
Mg34 Mg 0.64331 0.56794 0.3902 0.0
Mg35 Mg 0.75207 0.56875 0.35319 0.0
O36 O 0.69673 0.62363 0.36569 0.0
Mg37 Mg 0.7206 0.68781 0.41134 0.0
O38 O 0.7377 0.74883 0.45836 0.0
Mg39 Mg 0.66771 0.79415 0.46117 0.0
Mg40 Mg 0.79874 0.8026 0.46999 0.0
C41 C 0.79378 0.7202 0.34243 0.0
O42 O 0.80161 0.63583 0.43191 0.0
O43 O 0.62413 0.5125 0.32993 0.0
O44 O 0.85364 0.72713 0.45375 0.0
O45 O 0.69956 0.47575 0.41015 0.0
O46 O 0.70415 0.5046 0.31007 0.0
O47 O 0.78174 0.49888 0.40026 0.0
O48 O 0.6448 0.74927 0.3964 0.0
O49 O 0.58849 0.66566 0.37203 0.0
C50 C 0.59883 0.72975 0.37996 0.0
C51 C 0.65464 0.48996 0.30623 0.0
O52 O 0.76497 0.74642 0.36647 0.0
O53 O 0.70356 0.82193 0.52685 0.0
O54 O 0.79887 0.65494 0.3377 0.0
O55 O 0.69683 0.89791 0.43822 0.0
O56 O 0.79242 0.81217 0.53154 0.0
O57 O 0.78462 0.90099 0.44063 0.0
O58 O 0.67374 0.62113 0.44807 0.0
O59 O 0.63545 0.69376 0.48432 0.0
C60 C 0.74876 0.45998 0.41401 0.0
C61 C 0.84724 0.66367 0.44364 0.0
C62 C 0.64877 0.87027 0.96197 0.0
C63 C 0.76455 0.69973 0.04833 0.0
C64 C 0.78488 0.59693 0.9364 0.0
Mg65 Mg 0.65415 0.93505 0.87825 0.0
Mg66 Mg 0.76629 0.94754 0.84378 0.0
O67 O 0.71619 0.88784 0.86097 0.0
Mg68 Mg 0.73959 0.82899 0.9089 0.0
O69 O 0.75744 0.77213 0.95828 0.0
Mg70 Mg 0.69252 0.71371 0.95644 0.0
Mg71 Mg 0.82329 0.73207 0.97711 0.0
C72 C 0.825 0.80649 0.84777 0.0
O73 O 0.81047 0.89633 0.93214 0.0
O74 O 0.63681 0.97476 0.81377 0.0
O75 O 0.87011 0.82126 0.96539 0.0
O76 O 0.69842 0.03785 0.89562 0.0
O77 O 0.71451 0.97867 0.79028 0.0
O78 O 0.77896 0.03926 0.8787 0.0
O79 O 0.67191 0.75384 0.89023 0.0
O80 O 0.61158 0.83123 0.86273 0.0
C81 C 0.6256 0.76868 0.87184 0.0
C82 C 0.6641 0.98661 0.78582 0.0
O83 O 0.7936 0.77693 0.86889 0.0
O84 O 0.72115 0.69179 0.02384 0.0
O85 O 0.82999 0.87225 0.84593 0.0
O86 O 0.73775 0.61707 0.93893 0.0
O87 O 0.80855 0.71556 0.03699 0.0
O88 O 0.82521 0.63539 0.94672 0.0
O89 O 0.68181 0.88939 0.93979 0.0
O90 O 0.64715 0.80775 0.97369 0.0
C91 C 0.74275 0.06768 0.89463 0.0
C92 C 0.85694 0.88117 0.95061 0.0
C93 C 0.37534 0.24578 0.60975 0.0
C94 C 0.35265 0.46792 0.69619 0.0
C95 C 0.23536 0.52553 0.59879 0.0
Mg96 Mg 0.29367 0.17548 0.53947 0.0
Mg97 Mg 0.16243 0.18318 0.53269 0.0
O98 O 0.22744 0.22769 0.54516 0.0
Mg99 Mg 0.25274 0.2899 0.59077 0.0
O100 O 0.2853 0.35478 0.63329 0.0
Mg101 Mg 0.33404 0.40705 0.60309 0.0
Mg102 Mg 0.24243 0.41005 0.65992 0.0
C103 C 0.12581 0.32716 0.56312 0.0
O104 O 0.21642 0.23443 0.64205 0.0
O105 O 0.25339 0.14347 0.47623 0.0
O106 O 0.19694 0.32537 0.67856 0.0
O107 O 0.25959 0.07647 0.56676 0.0
O108 O 0.16601 0.16581 0.47051 0.0
O109 O 0.17212 0.08875 0.56581 0.0
O110 O 0.29325 0.35307 0.54758 0.0
O111 O 0.32647 0.27269 0.51241 0.0
C112 C 0.32147 0.33591 0.52164 0.0
C113 C 0.20695 0.1486 0.45544 0.0
O114 O 0.17331 0.34787 0.57601 0.0
O115 O 0.36945 0.45597 0.6633 0.0
O116 O 0.11444 0.26642 0.54965 0.0
O117 O 0.27858 0.50115 0.59035 0.0
O118 O 0.30555 0.45318 0.70184 0.0
O119 O 0.20963 0.49488 0.62294 0.0
O120 O 0.32758 0.2242 0.60108 0.0
O121 O 0.38641 0.31024 0.6141 0.0
C122 C 0.21486 0.05395 0.57424 0.0
C123 C 0.1975 0.26016 0.67179 0.0
H124 H 0.25365 0.55198 0.04343 0.0
C125 C 0.2222 0.51799 0.05002 0.0
H126 H 0.15253 0.51007 0.0762 0.0
H127 H 0.26151 0.74589 0.19067 0.0
H128 H 0.26008 0.64961 0.23655 0.0
H129 H 0.22455 0.53633 0.21272 0.0
H130 H 0.19051 0.51868 0.14283 0.0
C131 C 0.18279 0.54358 0.06735 0.0
C132 C 0.18771 0.61456 0.08286 0.0
C133 C 0.20503 0.62441 0.12405 0.0
C134 C 0.22492 0.68967 0.13784 0.0
C135 C 0.24514 0.69755 0.17872 0.0
C136 C 0.2447 0.64265 0.20535 0.0
C137 C 0.22475 0.57886 0.19193 0.0
C138 C 0.20536 0.56941 0.15174 0.0
H139 H 0.19572 0.84818 0.15278 0.0
C140 C 0.23293 0.85799 0.14205 0.0
H141 H 0.29055 0.81897 0.10996 0.0
H142 H 0.14628 0.61466 0.00392 0.0
H143 H 0.14265 0.71268 0.95833 0.0
H144 H 0.17667 0.8267 0.98214 0.0
H145 H 0.21451 0.8434 0.05147 0.0
C146 C 0.25477 0.8088 0.12254 0.0
C147 C 0.22611 0.74454 0.11035 0.0
C148 C 0.20358 0.73644 0.06989 0.0
C149 C 0.18415 0.67111 0.05613 0.0
C150 C 0.16224 0.66347 0.01557 0.0
C151 C 0.15969 0.71925 0.98925 0.0
C152 C 0.17883 0.78344 0.00266 0.0
C153 C 0.2006 0.79227 0.04249 0.0
H154 H 0.69456 0.02481 0.41497 0.0
C155 C 0.7343 0.00298 0.42126 0.0
H156 H 0.81623 0.02489 0.43266 0.0
H157 H 0.69144 0.31499 0.3567 0.0
H158 H 0.66542 0.25048 0.29616 0.0
H159 H 0.68841 0.12718 0.29281 0.0
H160 H 0.73695 0.06758 0.35025 0.0
C161 C 0.77639 0.04548 0.42436 0.0
C162 C 0.76893 0.12188 0.42414 0.0
C163 C 0.74184 0.15642 0.38995 0.0
C164 C 0.72958 0.22782 0.39168 0.0
C165 C 0.70171 0.26077 0.35722 0.0
C166 C 0.68671 0.22443 0.32214 0.0
C167 C 0.69957 0.15501 0.32029 0.0
C168 C 0.72705 0.12126 0.3536 0.0
H169 H 0.80788 0.37692 0.42954 0.0
C170 C 0.76603 0.38972 0.42726 0.0
H171 H 0.68831 0.35067 0.42407 0.0
H172 H 0.82366 0.07258 0.49479 0.0
H173 H 0.85129 0.13803 0.55472 0.0
H174 H 0.83082 0.26217 0.55724 0.0
H175 H 0.7824 0.32154 0.49973 0.0
C176 C 0.73049 0.33894 0.42884 0.0
C177 C 0.74568 0.26505 0.42726 0.0
C178 C 0.77463 0.23136 0.46092 0.0
C179 C 0.78635 0.15969 0.45938 0.0
C180 C 0.81407 0.12698 0.49393 0.0
C181 C 0.83008 0.16392 0.52867 0.0
C182 C 0.81857 0.23381 0.53009 0.0
C183 C 0.79096 0.26734 0.49678 0.0
H184 H 0.83285 0.51164 0.91783 0.0
C185 C 0.79384 0.52531 0.92426 0.0
H186 H 0.71798 0.48867 0.93133 0.0
H187 H 0.71848 0.21428 0.83479 0.0
H188 H 0.6561 0.28327 0.78956 0.0
H189 H 0.64302 0.40673 0.80224 0.0
H190 H 0.69345 0.4625 0.85969 0.0
C191 C 0.75714 0.47561 0.92497 0.0
C192 C 0.76746 0.40178 0.91657 0.0
C193 C 0.73728 0.3698 0.88306 0.0
C194 C 0.74422 0.29834 0.876 0.0
C195 C 0.71421 0.2681 0.84191 0.0
C196 C 0.67826 0.30712 0.81566 0.0
C197 C 0.67106 0.37669 0.82273 0.0
C198 C 0.70017 0.40799 0.85591 0.0
H199 H 0.71826 0.16071 0.92376 0.0
C200 C 0.74867 0.13984 0.90822 0.0
H201 H 0.81478 0.16402 0.88025 0.0
H202 H 0.82924 0.44438 0.98573 0.0
H203 H 0.89486 0.37622 0.02856 0.0
H204 H 0.91055 0.2544 0.0135 0.0
H205 H 0.85932 0.19943 0.9559 0.0
C206 C 0.78494 0.18285 0.89693 0.0
C207 C 0.78095 0.2587 0.90267 0.0
C208 C 0.81255 0.29098 0.93527 0.0
C209 C 0.80505 0.3622 0.94285 0.0
C210 C 0.8347 0.39152 0.97738 0.0
C211 C 0.87228 0.35274 0.00248 0.0
C212 C 0.88095 0.28403 0.99412 0.0
C213 C 0.8513 0.25312 0.96108 0.0
H214 H 0.17352 0.96897 0.59978 0.0
C215 C 0.21005 0.98282 0.58907 0.0
H216 H 0.28083 0.94479 0.5724 0.0
H217 H 0.276 0.66259 0.66849 0.0
H218 H 0.34495 0.72287 0.71216 0.0
H219 H 0.36334 0.84585 0.70095 0.0
H220 H 0.31247 0.90948 0.64599 0.0
C221 C 0.24447 0.93269 0.58376 0.0
C222 C 0.23236 0.85878 0.59089 0.0
C223 C 0.26199 0.82255 0.62331 0.0
C224 C 0.25111 0.75172 0.62989 0.0
C225 C 0.28202 0.71658 0.66223 0.0
C226 C 0.3219 0.75053 0.68753 0.0
C227 C 0.33223 0.81978 0.68123 0.0
C228 C 0.30277 0.85565 0.64956 0.0
H229 H 0.23687 0.61566 0.55942 0.0
C230 C 0.22124 0.59645 0.5853 0.0
H231 H 0.19154 0.62411 0.63724 0.0
H232 H 0.171 0.91078 0.52355 0.0
H233 H 0.10091 0.85093 0.48069 0.0
H234 H 0.07918 0.72984 0.49426 0.0
H235 H 0.12807 0.66761 0.55061 0.0
C236 C 0.20263 0.64174 0.60935 0.0
C237 C 0.21065 0.71715 0.60389 0.0
C238 C 0.18061 0.75349 0.57171 0.0
C239 C 0.19198 0.82407 0.56478 0.0
C240 C 0.16297 0.85797 0.53117 0.0
C241 C 0.1228 0.82405 0.50611 0.0
C242 C 0.11066 0.75581 0.51368 0.0
C243 C 0.13914 0.72064 0.54602 0.0
H244 H 0.57807 0.83699 0.36468 0.0
C245 C 0.56141 0.78529 0.36471 0.0
H246 H 0.49345 0.72448 0.34758 0.0
H247 H 0.45022 0.07073 0.32243 0.0
H248 H 0.47293 0.07928 0.39421 0.0
H249 H 0.49623 0.97523 0.43564 0.0
H250 H 0.49819 0.86219 0.40538 0.0
C251 C 0.51054 0.77588 0.34838 0.0
C252 C 0.48049 0.83413 0.32593 0.0
C253 C 0.47635 0.89923 0.34419 0.0
C254 C 0.46041 0.95882 0.3205 0.0
C255 C 0.46045 0.02371 0.3392 0.0
C256 C 0.47352 0.02929 0.38033 0.0
C257 C 0.48681 0.97073 0.40365 0.0
C258 C 0.48823 0.90633 0.38595 0.0
H259 H 0.36309 0.04011 0.27363 0.0
C260 C 0.38645 0.04691 0.24987 0.0
H261 H 0.45598 0.01916 0.22818 0.0
H262 H 0.4755 0.71555 0.2818 0.0
H263 H 0.44249 0.70515 0.21156 0.0
H264 H 0.4087 0.8069 0.17138 0.0
H265 H 0.40887 0.91984 0.20113 0.0
C266 C 0.4334 0.01423 0.25252 0.0
C267 C 0.4457 0.95252 0.27885 0.0
C268 C 0.44376 0.88611 0.26127 0.0
C269 C 0.46172 0.82702 0.28469 0.0
C270 C 0.4616 0.7621 0.2658 0.0
C271 C 0.44269 0.75529 0.22537 0.0
C272 C 0.42379 0.81256 0.20273 0.0
C273 C 0.42435 0.87726 0.22024 0.0
H274 H 0.66321 0.40569 0.26506 0.0
C275 C 0.63436 0.43816 0.27637 0.0
H276 H 0.55375 0.45764 0.27764 0.0
H277 H 0.55387 0.23709 0.12674 0.0
H278 H 0.61771 0.31163 0.10069 0.0
H279 H 0.65215 0.41612 0.13705 0.0
H280 H 0.62573 0.44458 0.20003 0.0
C281 C 0.58242 0.42642 0.26531 0.0
C282 C 0.56233 0.36513 0.24144 0.0
C283 C 0.57555 0.35338 0.2031 0.0
C284 C 0.55204 0.2972 0.18027 0.0
C285 C 0.56901 0.28172 0.14385 0.0
C286 C 0.60547 0.32377 0.12881 0.0
C287 C 0.62506 0.38235 0.1494 0.0
C288 C 0.61008 0.39758 0.18594 0.0
H289 H 0.46485 0.31463 0.12473 0.0
C290 C 0.44652 0.26611 0.13126 0.0
H291 H 0.44888 0.1804 0.16943 0.0
H292 H 0.5395 0.36097 0.3174 0.0
H293 H 0.47791 0.28349 0.34266 0.0
H294 H 0.43017 0.19421 0.2998 0.0
H295 H 0.44492 0.18056 0.232 0.0
C296 C 0.46801 0.2282 0.16299 0.0
C297 C 0.51023 0.2595 0.19307 0.0
C298 C 0.50163 0.26565 0.23292 0.0
C299 C 0.52823 0.3182 0.25731 0.0
C300 C 0.51929 0.32324 0.29717 0.0
C301 C 0.48426 0.27882 0.31215 0.0
C302 C 0.45744 0.2285 0.28804 0.0
C303 C 0.4659 0.2217 0.24891 0.0
H304 H 0.40641 0.14235 0.62678 0.0
C305 C 0.41774 0.19485 0.6203 0.0
H306 H 0.48015 0.26671 0.62262 0.0
H307 H 0.58241 0.13197 0.7864 0.0
H308 H 0.55796 0.24589 0.80616 0.0
H309 H 0.51037 0.32742 0.75699 0.0
H310 H 0.48674 0.29538 0.68794 0.0
C311 C 0.46874 0.21402 0.62829 0.0
C312 C 0.50642 0.1705 0.65514 0.0
C313 C 0.52107 0.19127 0.69518 0.0
C314 C 0.54811 0.14434 0.72348 0.0
C315 C 0.56135 0.16542 0.7636 0.0
C316 C 0.54764 0.23075 0.77539 0.0
C317 C 0.52091 0.27665 0.74771 0.0
C318 C 0.5076 0.25746 0.70808 0.0
H319 H 0.66147 0.03673 0.72721 0.0
C320 C 0.63732 0.01678 0.74829 0.0
H321 H 0.56049 0.00994 0.76352 0.0
H322 H 0.49075 0.11984 0.57963 0.0
H323 H 0.51528 0.00545 0.55969 0.0
H324 H 0.56063 0.92263 0.60925 0.0
H325 H 0.582 0.95371 0.67893 0.0
C326 C 0.58485 0.02758 0.74204 0.0
C327 C 0.56072 0.07734 0.71147 0.0
C328 C 0.54881 0.05798 0.67109 0.0
C329 C 0.52183 0.10505 0.64273 0.0
C330 C 0.51032 0.08515 0.60243 0.0
C331 C 0.52438 0.01993 0.59063 0.0
C332 C 0.55001 0.97334 0.61853 0.0
C333 C 0.56213 0.99183 0.65838 0.0
H334 H 0.6102 0.6622 0.85154 0.0
C335 C 0.5916 0.71195 0.85456 0.0
H336 H 0.52234 0.7722 0.84118 0.0
H337 H 0.43471 0.63161 0.67949 0.0
H338 H 0.44846 0.74978 0.65985 0.0
H339 H 0.49277 0.83351 0.70826 0.0
H340 H 0.52293 0.79983 0.77659 0.0
C341 C 0.54071 0.72223 0.83843 0.0
C342 C 0.51228 0.67172 0.8101 0.0
C343 C 0.49581 0.69234 0.76993 0.0
C344 C 0.4715 0.64376 0.74177 0.0
C345 C 0.45429 0.66599 0.70204 0.0
C346 C 0.46189 0.73378 0.6903 0.0
C347 C 0.48669 0.78093 0.71758 0.0
C348 C 0.50364 0.76079 0.75688 0.0
H349 H 0.37031 0.51815 0.75441 0.0
C350 C 0.387 0.50433 0.72812 0.0
H351 H 0.45258 0.51469 0.6978 0.0
H352 H 0.53237 0.61735 0.88564 0.0
H353 H 0.52291 0.49743 0.9044 0.0
H354 H 0.48872 0.41077 0.85408 0.0
H355 H 0.46259 0.44399 0.78489 0.0
C356 C 0.43596 0.52569 0.7245 0.0
C357 C 0.46447 0.57456 0.75368 0.0
C358 C 0.48177 0.55357 0.79358 0.0
C359 C 0.50423 0.6027 0.82213 0.0
C360 C 0.51767 0.58144 0.86234 0.0
C361 C 0.51198 0.51286 0.87358 0.0
C362 C 0.49252 0.46414 0.84529 0.0
C363 C 0.4774 0.48398 0.80573 0.0
H364 H 0.09607 0.17856 0.0296 0.0
C365 C 0.10065 0.14224 0.05445 0.0
H366 H 0.0662 0.0594 0.08172 0.0
H367 H 0.83259 0.08169 0.99826 0.0
H368 H 0.82362 0.13356 0.06159 0.0
H369 H 0.90284 0.1683 0.10869 0.0
H370 H 0.99149 0.15063 0.09289 0.0
C371 C 0.06257 0.09622 0.0572 0.0
C372 C 0.01592 0.09095 0.02561 0.0
C373 C 0.96479 0.10425 0.03484 0.0
C374 C 0.91928 0.085 0.00767 0.0
C375 C 0.86845 0.09526 0.01812 0.0
C376 C 0.86281 0.12529 0.05422 0.0
C377 C 0.90742 0.14489 0.08072 0.0
C378 C 0.95798 0.13441 0.07135 0.0
H379 H 0.93677 0.91941 0.97097 0.0
C380 C 0.89682 0.93537 0.95797 0.0
H381 H 0.84454 0.01994 0.9441 0.0
H382 H 0.10888 0.06209 0.99642 0.0
H383 H 0.11563 0.02078 0.9308 0.0
H384 H 0.03529 0.99719 0.88212 0.0
H385 H 0.94725 0.01485 0.8996 0.0
C386 C 0.88487 0.00284 0.95418 0.0
C387 C 0.92561 0.05267 0.97175 0.0
C388 C 0.97602 0.05024 0.9598 0.0
C389 C 0.02182 0.0666 0.98733 0.0
C390 C 0.07225 0.0541 0.97635 0.0
C391 C 0.07679 0.02953 0.93872 0.0
C392 C 0.0316 0.01604 0.91135 0.0
C393 C 0.98161 0.02625 0.92163 0.0
H394 H 0.04195 0.35501 0.55556 0.0
C395 C 0.08188 0.37627 0.55893 0.0
H396 H 0.12788 0.46348 0.54912 0.0
H397 H 0.9402 0.52314 0.40533 0.0
H398 H 0.0119 0.48978 0.37043 0.0
H399 H 0.09837 0.45223 0.40748 0.0
H400 H 0.11364 0.44795 0.47956 0.0
C401 C 0.08847 0.44254 0.5495 0.0
C402 C 0.04186 0.48028 0.52846 0.0
C403 C 0.03444 0.48461 0.4864 0.0
C404 C 0.98497 0.50696 0.46507 0.0
C405 C 0.97754 0.50802 0.423 0.0
C406 C 0.01823 0.48859 0.4026 0.0
C407 C 0.06688 0.46737 0.42346 0.0
C408 C 0.07508 0.46507 0.46485 0.0
H409 H 0.93293 0.64701 0.45137 0.0
C410 C 0.89497 0.62095 0.45041 0.0
H411 H 0.85655 0.5318 0.46741 0.0
H412 H 0.04616 0.48426 0.60894 0.0
H413 H 0.97533 0.52044 0.64418 0.0
H414 H 0.8894 0.56029 0.60734 0.0
H415 H 0.87346 0.56363 0.53531 0.0
C416 C 0.89399 0.5564 0.46443 0.0
C417 C 0.94376 0.52644 0.48601 0.0
C418 C 0.95184 0.5242 0.52816 0.0
C419 C 0.00117 0.50132 0.54941 0.0
C420 C 0.00889 0.50033 0.59147 0.0
C421 C 0.96876 0.5213 0.61201 0.0
C422 C 0.92038 0.54376 0.59127 0.0
C423 C 0.91178 0.54538 0.54986 0.0
H424 H 0.37278 0.15307 0.98597 0.0
C425 C 0.37659 0.10891 0.0061 0.0
H426 H 0.41455 0.01383 0.02239 0.0
H427 H 0.53065 0.9211 0.89368 0.0
H428 H 0.44534 0.87215 0.86475 0.0
H429 H 0.36257 0.91085 0.88671 0.0
H430 H 0.36474 -0.00082 0.93768 0.0
C431 C 0.41202 0.05891 0.00296 0.0
C432 C 0.45276 0.06229 0.97674 0.0
C433 C 0.45064 0.0127 0.94644 0.0
C434 C 0.49817 0.99009 0.93415 0.0
C435 C 0.49543 0.9391 0.90444 0.0
C436 C 0.44683 0.911 0.88754 0.0
C437 C 0.40022 0.9328 0.89991 0.0
C438 C 0.4019 0.98301 0.92916 0.0
H439 H 0.57472 0.89509 0.98385 0.0
C440 C 0.6045 0.91584 0.96747 0.0
H441 H 0.62626 0.00168 0.93466 0.0
H442 H 0.46821 0.17204 0.02752 0.0
H443 H 0.55219 0.22807 0.05152 0.0
H444 H 0.63495 0.18865 0.03002 0.0
H445 H 0.63403 0.0927 0.98416 0.0
C446 C 0.59697 0.9786 0.95036 0.0
C447 C 0.54742 0.01705 0.95266 0.0
C448 C 0.54858 0.07483 0.9778 0.0
C449 C 0.5009 0.09756 0.99006 0.0
C450 C 0.50324 0.15275 0.0172 0.0
C451 C 0.5512 0.18537 0.03116 0.0
C452 C 0.59781 0.16322 0.019 0.0
C453 C 0.5968 0.10823 0.99278 0.0
H454 H 0.35069 0.44204 0.51698 0.0
C455 C 0.35774 0.38859 0.50977 0.0
H456 H 0.41204 0.3188 0.49107 0.0
H457 H 0.49216 0.6308 0.43794 0.0
H458 H 0.41123 0.63318 0.38981 0.0
H459 H 0.3449 0.54019 0.38834 0.0
H460 H 0.35917 0.44426 0.43506 0.0
C461 C 0.40253 0.37241 0.49593 0.0
C462 C 0.44427 0.42562 0.49413 0.0
C463 C 0.43545 0.48116 0.46649 0.0
C464 C 0.47394 0.53444 0.46713 0.0
C465 C 0.46419 0.58912 0.43901 0.0
C466 C 0.41794 0.59105 0.41111 0.0
C467 C 0.38058 0.53873 0.4103 0.0
C468 C 0.3891 0.48419 0.43748 0.0
H469 H 0.61598 0.52436 0.47209 0.0
C470 C 0.6071 0.57616 0.4812 0.0
H471 H 0.55035 0.63968 0.50189 0.0
H472 H 0.47473 0.32498 0.55023 0.0
H473 H 0.55664 0.32148 0.59741 0.0
H474 H 0.62261 0.41471 0.59907 0.0
H475 H 0.60748 0.51179 0.5533 0.0
C476 C 0.56158 0.58756 0.49511 0.0
C477 C 0.5215 0.53167 0.49508 0.0
C478 C 0.53079 0.47547 0.52223 0.0
C479 C 0.49233 0.42212 0.52155 0.0
C480 C 0.50255 0.36684 0.54924 0.0
C481 C 0.54932 0.36424 0.57661 0.0
C482 C 0.58656 0.41668 0.5775 0.0
C483 C 0.57751 0.47193 0.55086 0.0
H484 H 0.20361 0.16149 0.70581 0.0
C485 C 0.18898 0.21419 0.70539 0.0
H486 H 0.16279 0.29487 0.73884 0.0
H487 H 0.14164 0.1502 0.89885 0.0
H488 H 0.05101 0.13204 0.86619 0.0
H489 H 0.02638 0.14792 0.79381 0.0
H490 H 0.09218 0.18366 0.75347 0.0
C491 C 0.17783 0.24236 0.73928 0.0
C492 C 0.19583 0.21327 0.77991 0.0
C493 C 0.15758 0.19163 0.80318 0.0
C494 C 0.17171 0.18371 0.84516 0.0
C495 C 0.13263 0.16016 0.86722 0.0
C496 C 0.08068 0.14835 0.84876 0.0
C497 C 0.06674 0.15757 0.80798 0.0
C498 C 0.10468 0.17852 0.78525 0.0
H499 H 0.17473 0.27283 0.91487 0.0
C500 C 0.21037 0.24693 0.92956 0.0
H501 H 0.27229 0.17836 0.92385 0.0
H502 H 0.28109 0.24891 0.74401 0.0
H503 H 0.37108 0.26811 0.7762 0.0
H504 H 0.39552 0.25586 0.84885 0.0
H505 H 0.33001 0.2248 0.88963 0.0
C506 C 0.23732 0.20494 0.90859 0.0
C507 C 0.22398 0.19985 0.86415 0.0
C508 C 0.26345 0.21575 0.84043 0.0
C509 C 0.24935 0.22266 0.79835 0.0
C510 C 0.28918 0.24218 0.77585 0.0
C511 C 0.34126 0.25351 0.79399 0.0
C512 C 0.35501 0.24659 0.83487 0.0
C513 C 0.31678 0.2284 0.85796 0.0
H514 H 0.87779 0.77877 0.8055 0.0
C515 C 0.83837 0.77058 0.81284 0.0
H516 H 0.75769 0.75566 0.78957 0.0
H517 H 0.80819 0.91894 0.63543 0.0
H518 H 0.80205 0.0183 0.67707 0.0
H519 H 0.79321 0.00353 0.74756 0.0
H520 H 0.79073 0.88928 0.77656 0.0
C521 C 0.7981 0.75701 0.78324 0.0
C522 C 0.80365 0.76581 0.74058 0.0
C523 C 0.80079 0.83302 0.72315 0.0
C524 C 0.80266 0.84164 0.68197 0.0
C525 C 0.8041 0.90937 0.66609 0.0
C526 C 0.80104 0.96696 0.68971 0.0
C527 C 0.79624 0.9586 0.72941 0.0
C528 C 0.79566 0.89263 0.74592 0.0
H529 H 0.72263 0.83507 0.60485 0.0
C530 C 0.75609 0.81872 0.59109 0.0
H531 H 0.83167 0.77098 0.59998 0.0
H532 H 0.81161 0.63104 0.76455 0.0
H533 H 0.8157 0.53128 0.72235 0.0
H534 H 0.81362 0.54561 0.65015 0.0
H535 H 0.80794 0.65952 0.61961 0.0
C536 C 0.79952 0.79163 0.61375 0.0
C537 C 0.80323 0.78304 0.65756 0.0
C538 C 0.80683 0.71592 0.6749 0.0
C539 C 0.80737 0.70744 0.71652 0.0
C540 C 0.81075 0.64006 0.73307 0.0
C541 C 0.81316 0.58249 0.70922 0.0
C542 C 0.81206 0.59058 0.66855 0.0
C543 C 0.80887 0.65633 0.65141 0.0
H544 H 0.8504 0.75229 0.30465 0.0
C545 C 0.81081 0.76287 0.31102 0.0
H546 H 0.73242 0.78655 0.28591 0.0
H547 H 0.85158 0.83079 0.12721 0.0
H548 H 0.88641 0.93701 0.15784 0.0
H549 H 0.87401 0.96576 0.2261 0.0
H550 H 0.8258 0.88845 0.26398 0.0
C551 C 0.77316 0.78186 0.28059 0.0
C552 C 0.78047 0.76578 0.23907 0.0
C553 C 0.81001 0.81011 0.21774 0.0
C554 C 0.81786 0.79268 0.17855 0.0
C555 C 0.84534 0.84006 0.15733 0.0
C556 C 0.86542 0.90159 0.17452 0.0
C557 C 0.85842 0.91781 0.21294 0.0
C558 C 0.83089 0.87292 0.2344 0.0
H559 H 0.72197 0.69761 0.09953 0.0
C560 C 0.76125 0.70079 0.09118 0.0
H561 H 0.84262 0.71861 0.11084 0.0
H562 H 0.71695 0.67164 0.26987 0.0
H563 H 0.68435 0.56375 0.23999 0.0
H564 H 0.70959 0.52547 0.17702 0.0
H565 H 0.76406 0.59769 0.14163 0.0
C566 C 0.80356 0.71345 0.1193 0.0
C567 C 0.79755 0.72956 0.16123 0.0
C568 C 0.77001 0.68376 0.18346 0.0
C569 C 0.75924 0.70338 0.2215 0.0
C570 C 0.72785 0.65889 0.24144 0.0
C571 C 0.70916 0.59635 0.22487 0.0
C572 C 0.72287 0.57512 0.18913 0.0
C573 C 0.75346 0.61769 0.1688 0.0
H574 H 0.23734 0.12358 0.40031 0.0
C575 C 0.20311 0.14357 0.41187 0.0
H576 H 0.13079 0.19803 0.39795 0.0
H577 H 0.21415 0.34733 0.25339 0.0
H578 H 0.20941 0.44192 0.29859 0.0
H579 H 0.18554 0.42132 0.36501 0.0
H580 H 0.16686 0.30583 0.38671 0.0
C581 C 0.16356 0.17358 0.38663 0.0
C582 C 0.16933 0.18654 0.34434 0.0
C583 C 0.17801 0.2549 0.33145 0.0
C584 C 0.19075 0.26701 0.29279 0.0
C585 C 0.20265 0.33522 0.2818 0.0
C586 C 0.20044 0.3901 0.30762 0.0
C587 C 0.18708 0.3785 0.34502 0.0
C588 C 0.1763 0.31182 0.35706 0.0
H589 H 0.14981 0.28189 0.19978 0.0
C590 C 0.18638 0.2551 0.19694 0.0
H591 H 0.24929 0.19277 0.22513 0.0
H592 H 0.14764 0.05102 0.35783 0.0
H593 H 0.14997 0.95623 0.31199 0.0
H594 H 0.17128 0.97701 0.24479 0.0
H595 H 0.19008 0.09251 0.22301 0.0
C596 C 0.21325 0.22048 0.22829 0.0
C597 C 0.19329 0.21083 0.26671 0.0
C598 C 0.1818 0.143 0.27894 0.0
C599 C 0.16976 0.13088 0.31773 0.0
C600 C 0.15809 0.06277 0.32897 0.0
C601 C 0.15895 0.00799 0.30288 0.0
C602 C 0.17092 0.01968 0.26505 0.0
C603 C 0.18199 0.08626 0.25301 0.0
loop_
_geom_bond_atom_site_label_1
_geom_bond_atom_site_label_2
_geom_bond_distance
_geom_bond_site_symmetry_2
_ccdc_geom_bond_type
C0 O27 1.312 . S
C0 O28 1.208 . S
C1 O22 1.331 . S
C1 O25 1.244 . S
C2 O24 1.264 . S
C2 O26 1.273 . S
Mg3 O5 1.936 1_565 S
Mg3 O12 2.081 . S
Mg3 O14 2.023 . S
Mg3 O18 2.031 . S
Mg3 O27 2.291 1_565 S
Mg4 O5 1.963 1_565 S
Mg4 O15 1.942 . S
Mg4 O16 1.955 . S
Mg4 O23 1.986 . S
O5 Mg3 1.936 1_545 S
O5 Mg4 1.963 1_545 S
O5 Mg6 1.915 . S
Mg6 O5 1.915 . S
Mg6 O7 1.915 . S
Mg6 O11 2.013 . S
Mg6 O17 2.114 . S
Mg6 O21 2.013 . S
Mg6 O27 2.114 . S
O7 Mg6 1.915 . S
O7 Mg8 1.936 . S
O7 Mg9 1.963 . S
Mg8 O7 1.936 . S
Mg8 O17 2.291 . S
Mg8 O22 2.081 . S
Mg8 O24 2.023 . S
Mg8 O28 2.031 . S
Mg9 O7 1.963 . S
Mg9 O13 1.986 . S
Mg9 O25 1.942 . S
Mg9 O26 1.955 . S
C10 O21 1.191 . S
C10 O23 1.307 1_545 S
O11 Mg6 2.013 . S
O11 C30 1.191 . S
O12 Mg3 2.081 . S
O12 C20 1.331 . S
O13 Mg9 1.986 . S
O13 C30 1.307 . S
O14 Mg3 2.023 . S
O14 C29 1.264 . S
O15 Mg4 1.942 . S
O15 C20 1.244 . S
O16 Mg4 1.955 . S
O16 C29 1.273 . S
O17 Mg6 2.114 . S
O17 Mg8 2.291 . S
O17 C19 1.312 . S
O18 Mg3 2.031 . S
O18 C19 1.208 1_565 S
C19 O17 1.312 . S
C19 O18 1.208 1_545 S
C20 O12 1.331 . S
C20 O15 1.244 . S
O21 Mg6 2.013 . S
O21 C10 1.191 . S
O22 C1 1.331 . S
O22 Mg8 2.081 . S
O23 Mg4 1.986 . S
O23 C10 1.307 1_565 S
O24 C2 1.264 . S
O24 Mg8 2.023 . S
O25 C1 1.244 . S
O25 Mg9 1.942 . S
O26 C2 1.273 . S
O26 Mg9 1.955 . S
O27 C0 1.312 . S
O27 Mg3 2.291 1_545 S
O27 Mg6 2.114 . S
O28 C0 1.208 . S
O28 Mg8 2.031 . S
C29 O14 1.264 . S
C29 O16 1.273 . S
C30 O11 1.191 . S
C30 O13 1.307 . S
C31 O58 1.312 . S
C31 O59 1.208 . S
C32 O53 1.331 . S
C32 O56 1.244 . S
C33 O55 1.264 . S
C33 O57 1.273 . S
Mg34 O36 1.936 . S
Mg34 O43 2.081 . S
Mg34 O45 2.023 . S
Mg34 O49 2.031 . S
Mg34 O58 2.291 . S
Mg35 O36 1.963 . S
Mg35 O46 1.942 . S
Mg35 O47 1.955 . S
Mg35 O54 1.986 . S
O36 Mg34 1.936 . S
O36 Mg35 1.963 . S
O36 Mg37 1.915 . S
Mg37 O36 1.915 . S
Mg37 O38 1.915 . S
Mg37 O42 2.013 . S
Mg37 O48 2.114 . S
Mg37 O52 2.013 . S
Mg37 O58 2.114 . S
O38 Mg37 1.915 . S
O38 Mg39 1.936 . S
O38 Mg40 1.963 . S
Mg39 O38 1.936 . S
Mg39 O48 2.291 . S
Mg39 O53 2.081 . S
Mg39 O55 2.023 . S
Mg39 O59 2.031 . S
Mg40 O38 1.963 . S
Mg40 O44 1.986 . S
Mg40 O56 1.942 . S
Mg40 O57 1.955 . S
C41 O52 1.191 . S
C41 O54 1.307 . S
O42 Mg37 2.013 . S
O42 C61 1.191 . S
O43 Mg34 2.081 . S
O43 C51 1.331 . S
O44 Mg40 1.986 . S
O44 C61 1.307 . S
O45 Mg34 2.023 . S
O45 C60 1.264 . S
O46 Mg35 1.942 . S
O46 C51 1.244 . S
O47 Mg35 1.955 . S
O47 C60 1.273 . S
O48 Mg37 2.114 . S
O48 Mg39 2.291 . S
O48 C50 1.312 . S
O49 Mg34 2.031 . S
O49 C50 1.208 . S
C50 O48 1.312 . S
C50 O49 1.208 . S
C51 O43 1.331 . S
C51 O46 1.244 . S
O52 Mg37 2.013 . S
O52 C41 1.191 . S
O53 C32 1.331 . S
O53 Mg39 2.081 . S
O54 Mg35 1.986 . S
O54 C41 1.307 . S
O55 C33 1.264 . S
O55 Mg39 2.023 . S
O56 C32 1.244 . S
O56 Mg40 1.942 . S
O57 C33 1.273 . S
O57 Mg40 1.955 . S
O58 C31 1.312 . S
O58 Mg34 2.291 . S
O58 Mg37 2.114 . S
O59 C31 1.208 . S
O59 Mg39 2.031 . S
C60 O45 1.264 . S
C60 O47 1.273 . S
C61 O42 1.191 . S
C61 O44 1.307 . S
C62 O89 1.312 . S
C62 O90 1.208 . S
C63 O84 1.331 1_554 S
C63 O87 1.244 1_554 S
C64 O86 1.264 . S
C64 O88 1.273 . S
Mg65 O67 1.936 1_545 S
Mg65 O74 2.081 . S
Mg65 O76 2.023 . S
Mg65 O80 2.031 1_545 S
Mg65 O89 2.291 1_545 S
Mg66 O67 1.963 1_545 S
Mg66 O77 1.942 . S
Mg66 O78 1.955 . S
Mg66 O85 1.986 1_545 S
O67 Mg65 1.936 1_565 S
O67 Mg66 1.963 1_565 S
O67 Mg68 1.915 . S
Mg68 O67 1.915 . S
Mg68 O69 1.915 . S
Mg68 O73 2.013 . S
Mg68 O79 2.114 . S
Mg68 O83 2.013 . S
Mg68 O89 2.114 . S
O69 Mg68 1.915 . S
O69 Mg70 1.936 . S
O69 Mg71 1.963 . S
Mg70 O69 1.936 . S
Mg70 O79 2.291 . S
Mg70 O84 2.081 . S
Mg70 O86 2.023 . S
Mg70 O90 2.031 . S
Mg71 O69 1.963 . S
Mg71 O75 1.986 . S
Mg71 O87 1.942 . S
Mg71 O88 1.955 . S
C72 O83 1.191 . S
C72 O85 1.307 . S
O73 Mg68 2.013 . S
O73 C92 1.191 . S
O74 Mg65 2.081 . S
O74 C82 1.331 . S
O75 Mg71 1.986 . S
O75 C92 1.307 . S
O76 Mg65 2.023 . S
O76 C91 1.264 . S
O77 Mg66 1.942 . S
O77 C82 1.244 . S
O78 Mg66 1.955 . S
O78 C91 1.273 . S
O79 Mg68 2.114 . S
O79 Mg70 2.291 . S
O79 C81 1.312 . S
O80 Mg65 2.031 1_565 S
O80 C81 1.208 . S
C81 O79 1.312 . S
C81 O80 1.208 . S
C82 O74 1.331 . S
C82 O77 1.244 . S
O83 Mg68 2.013 . S
O83 C72 1.191 . S
O84 C63 1.331 1_556 S
O84 Mg70 2.081 . S
O85 Mg66 1.986 1_565 S
O85 C72 1.307 . S
O86 C64 1.264 . S
O86 Mg70 2.023 . S
O87 C63 1.244 1_556 S
O87 Mg71 1.942 . S
O88 C64 1.273 . S
O88 Mg71 1.955 . S
O89 C62 1.312 . S
O89 Mg65 2.291 1_565 S
O89 Mg68 2.114 . S
O90 C62 1.208 . S
O90 Mg70 2.031 . S
C91 O76 1.264 . S
C91 O78 1.273 . S
C92 O73 1.191 . S
C92 O75 1.307 . S
C93 O120 1.312 . S
C93 O121 1.208 . S
C94 O115 1.331 . S
C94 O118 1.244 . S
C95 O117 1.264 . S
C95 O119 1.273 . S
Mg96 O98 1.936 . S
Mg96 O105 2.081 . S
Mg96 O107 2.023 . S
Mg96 O111 2.031 . S
Mg96 O120 2.291 . S
Mg97 O98 1.963 . S
Mg97 O108 1.942 . S
Mg97 O109 1.955 . S
Mg97 O116 1.986 . S
O98 Mg96 1.936 . S
O98 Mg97 1.963 . S
O98 Mg99 1.915 . S
Mg99 O98 1.915 . S
Mg99 O100 1.915 . S
Mg99 O104 2.013 . S
Mg99 O110 2.114 . S
Mg99 O114 2.013 . S
Mg99 O120 2.114 . S
O100 Mg99 1.915 . S
O100 Mg101 1.936 . S
O100 Mg102 1.963 . S
Mg101 O100 1.936 . S
Mg101 O110 2.291 . S
Mg101 O115 2.081 . S
Mg101 O117 2.023 . S
Mg101 O121 2.031 . S
Mg102 O100 1.963 . S
Mg102 O106 1.986 . S
Mg102 O118 1.942 . S
Mg102 O119 1.955 . S
C103 O114 1.191 . S
C103 O116 1.307 . S
O104 Mg99 2.013 . S
O104 C123 1.191 . S
O105 Mg96 2.081 . S
O105 C113 1.331 . S
O106 Mg102 1.986 . S
O106 C123 1.307 . S
O107 Mg96 2.023 . S
O107 C122 1.264 . S
O108 Mg97 1.942 . S
O108 C113 1.244 . S
O109 Mg97 1.955 . S
O109 C122 1.273 . S
O110 Mg99 2.114 . S
O110 Mg101 2.291 . S
O110 C112 1.312 . S
O111 Mg96 2.031 . S
O111 C112 1.208 . S
C112 O110 1.312 . S
C112 O111 1.208 . S
C113 O105 1.331 . S
C113 O108 1.244 . S
O114 Mg99 2.013 . S
O114 C103 1.191 . S
O115 C94 1.331 . S
O115 Mg101 2.081 . S
O116 Mg97 1.986 . S
O116 C103 1.307 . S
O117 C95 1.264 . S
O117 Mg101 2.023 . S
O118 C94 1.244 . S
O118 Mg102 1.942 . S
O119 C95 1.273 . S
O119 Mg102 1.955 . S
O120 C93 1.312 . S
O120 Mg96 2.291 . S
O120 Mg99 2.114 . S
O121 C93 1.208 . S
O121 Mg101 2.031 . S
C122 O107 1.264 . S
C122 O109 1.273 . S
C123 O104 1.191 . S
C123 O106 1.307 . S
H124 C125 0.951 . S
C125 H124 0.951 . S
C125 C131 1.265 . S
H126 C131 0.950 . S
H127 C135 0.949 . S
H128 C136 0.950 . S
H129 C137 0.951 . S
H130 C138 0.951 . S
C131 C125 1.265 . S
C131 H126 0.950 . S
C131 C132 1.478 . S
C132 C131 1.478 . S
C132 C133 1.397 . S
C132 C149 1.394 . S
C133 C132 1.397 . S
C133 C134 1.438 . S
C133 C138 1.429 . S
C134 C133 1.438 . S
C134 C135 1.428 . S
C134 C147 1.394 . S
C135 H127 0.949 . S
C135 C134 1.428 . S
C135 C136 1.345 . S
C136 H128 0.950 . S
C136 C135 1.345 . S
C136 C137 1.424 . S
C137 H129 0.951 . S
C137 C136 1.424 . S
C137 C138 1.347 . S
C138 H130 0.951 . S
C138 C133 1.429 . S
C138 C137 1.347 . S
H139 C140 0.951 . S
C140 H139 0.951 . S
C140 C146 1.265 . S
H141 C146 0.950 . S
H142 C150 0.949 . S
H143 C151 0.950 1_556 S
H144 C152 0.951 1_556 S
H145 C153 0.951 . S
C146 C140 1.265 . S
C146 H141 0.950 . S
C146 C147 1.478 . S
C147 C134 1.394 . S
C147 C146 1.478 . S
C147 C148 1.397 . S
C148 C147 1.397 . S
C148 C149 1.438 . S
C148 C153 1.429 . S
C149 C132 1.394 . S
C149 C148 1.438 . S
C149 C150 1.428 . S
C150 H142 0.949 . S
C150 C149 1.428 . S
C150 C151 1.345 . S
C151 H143 0.950 1_554 S
C151 C150 1.345 . S
C151 C152 1.424 . S
C152 H144 0.951 1_554 S
C152 C151 1.424 . S
C152 C153 1.347 . S
C153 H145 0.951 . S
C153 C148 1.429 . S
C153 C152 1.347 . S
H154 C155 0.951 . S
C155 H154 0.951 . S
C155 C161 1.265 . S
H156 C161 0.950 . S
H157 C165 0.949 . S
H158 C166 0.950 . S
H159 C167 0.951 . S
H160 C168 0.951 . S
C161 C155 1.265 . S
C161 H156 0.950 . S
C161 C162 1.478 1_565 S
C162 C161 1.478 1_545 S
C162 C163 1.397 . S
C162 C179 1.394 . S
C163 C162 1.397 . S
C163 C164 1.438 . S
C163 C168 1.429 . S
C164 C163 1.438 . S
C164 C165 1.428 . S
C164 C177 1.394 . S
C165 H157 0.949 . S
C165 C164 1.428 . S
C165 C166 1.345 . S
C166 H158 0.950 . S
C166 C165 1.345 . S
C166 C167 1.424 . S
C167 H159 0.951 . S
C167 C166 1.424 . S
C167 C168 1.347 . S
C168 H160 0.951 . S
C168 C163 1.429 . S
C168 C167 1.347 . S
H169 C170 0.951 . S
C170 H169 0.951 . S
C170 C176 1.265 . S
H171 C176 0.950 . S
H172 C180 0.949 1_565 S
H173 C181 0.950 . S
H174 C182 0.951 . S
H175 C183 0.951 . S
C176 C170 1.265 . S
C176 H171 0.950 . S
C176 C177 1.478 . S
C177 C164 1.394 . S
C177 C176 1.478 . S
C177 C178 1.397 . S
C178 C177 1.397 . S
C178 C179 1.438 . S
C178 C183 1.429 . S
C179 C162 1.394 . S
C179 C178 1.438 . S
C179 C180 1.428 . S
C180 H172 0.949 1_545 S
C180 C179 1.428 . S
C180 C181 1.345 . S
C181 H173 0.950 . S
C181 C180 1.345 . S
C181 C182 1.424 . S
C182 H174 0.951 . S
C182 C181 1.424 . S
C182 C183 1.347 . S
C183 H175 0.951 . S
C183 C178 1.429 . S
C183 C182 1.347 . S
H184 C185 0.951 . S
C185 H184 0.951 . S
C185 C191 1.265 . S
H186 C191 0.950 . S
H187 C195 0.949 . S
H188 C196 0.950 . S
H189 C197 0.951 . S
H190 C198 0.951 . S
C191 C185 1.265 . S
C191 H186 0.950 . S
C191 C192 1.478 . S
C192 C191 1.478 . S
C192 C193 1.397 . S
C192 C209 1.394 . S
C193 C192 1.397 . S
C193 C194 1.438 . S
C193 C198 1.429 . S
C194 C193 1.438 . S
C194 C195 1.428 . S
C194 C207 1.394 . S
C195 H187 0.949 . S
C195 C194 1.428 . S
C195 C196 1.345 . S
C196 H188 0.950 . S
C196 C195 1.345 . S
C196 C197 1.424 . S
C197 H189 0.951 . S
C197 C196 1.424 . S
C197 C198 1.347 . S
C198 H190 0.951 . S
C198 C193 1.429 . S
C198 C197 1.347 . S
H199 C200 0.951 . S
C200 H199 0.951 . S
C200 C206 1.265 . S
H201 C206 0.950 . S
H202 C210 0.949 . S
H203 C211 0.950 1_554 S
H204 C212 0.951 1_554 S
H205 C213 0.951 . S
C206 C200 1.265 . S
C206 H201 0.950 . S
C206 C207 1.478 . S
C207 C194 1.394 . S
C207 C206 1.478 . S
C207 C208 1.397 . S
C208 C207 1.397 . S
C208 C209 1.438 . S
C208 C213 1.429 . S
C209 C192 1.394 . S
C209 C208 1.438 . S
C209 C210 1.428 . S
C210 H202 0.949 . S
C210 C209 1.428 . S
C210 C211 1.345 . S
C211 H203 0.950 1_556 S
C211 C210 1.345 . S
C211 C212 1.424 . S
C212 H204 0.951 1_556 S
C212 C211 1.424 . S
C212 C213 1.347 . S
C213 H205 0.951 . S
C213 C208 1.429 . S
C213 C212 1.347 . S
H214 C215 0.951 . S
C215 H214 0.951 . S
C215 C221 1.265 . S
H216 C221 0.950 . S
H217 C225 0.949 . S
H218 C226 0.950 . S
H219 C227 0.951 . S
H220 C228 0.951 1_545 S
C221 C215 1.265 . S
C221 H216 0.950 . S
C221 C222 1.478 1_545 S
C222 C221 1.478 1_565 S
C222 C223 1.397 . S
C222 C239 1.394 . S
C223 C222 1.397 . S
C223 C224 1.438 . S
C223 C228 1.429 . S
C224 C223 1.438 . S
C224 C225 1.428 . S
C224 C237 1.394 . S
C225 H217 0.949 . S
C225 C224 1.428 . S
C225 C226 1.345 . S
C226 H218 0.950 . S
C226 C225 1.345 . S
C226 C227 1.424 . S
C227 H219 0.951 . S
C227 C226 1.424 . S
C227 C228 1.347 . S
C228 H220 0.951 1_565 S
C228 C223 1.429 . S
C228 C227 1.347 . S
H229 C230 0.951 . S
C230 H229 0.951 . S
C230 C236 1.265 . S
H231 C236 0.950 . S
H232 C240 0.949 1_545 S
H233 C241 0.950 . S
H234 C242 0.951 . S
H235 C243 0.951 . S
C236 C230 1.265 . S
C236 H231 0.950 . S
C236 C237 1.478 . S
C237 C224 1.394 . S
C237 C236 1.478 . S
C237 C238 1.397 . S
C238 C237 1.397 . S
C238 C239 1.438 . S
C238 C243 1.429 . S
C239 C222 1.394 . S
C239 C238 1.438 . S
C239 C240 1.428 . S
C240 H232 0.949 1_565 S
C240 C239 1.428 . S
C240 C241 1.345 . S
C241 H233 0.950 . S
C241 C240 1.345 . S
C241 C242 1.424 . S
C242 H234 0.951 . S
C242 C241 1.424 . S
C242 C243 1.347 . S
C243 H235 0.951 . S
C243 C238 1.429 . S
C243 C242 1.347 . S
H244 C245 0.951 . S
C245 H244 0.951 . S
C245 C251 1.265 . S
H246 C251 0.950 . S
H247 C255 0.949 . S
H248 C256 0.950 . S
H249 C257 0.951 . S
H250 C258 0.951 . S
C251 C245 1.265 . S
C251 H246 0.950 . S
C251 C252 1.478 . S
C252 C251 1.478 . S
C252 C253 1.397 . S
C252 C269 1.394 . S
C253 C252 1.397 . S
C253 C254 1.438 . S
C253 C258 1.429 . S
C254 C253 1.438 . S
C254 C255 1.428 . S
C254 C267 1.394 . S
C255 H247 0.949 . S
C255 C254 1.428 . S
C255 C256 1.345 . S
C256 H248 0.950 . S
C256 C255 1.345 . S
C256 C257 1.424 . S
C257 H249 0.951 . S
C257 C256 1.424 . S
C257 C258 1.347 . S
C258 H250 0.951 . S
C258 C253 1.429 . S
C258 C257 1.347 . S
H259 C260 0.951 . S
C260 H259 0.951 . S
C260 C266 1.265 . S
H261 C266 0.950 . S
H262 C270 0.949 . S
H263 C271 0.950 . S
H264 C272 0.951 . S
H265 C273 0.951 . S
C266 C260 1.265 . S
C266 H261 0.950 . S
C266 C267 1.478 . S
C267 C254 1.394 . S
C267 C266 1.478 . S
C267 C268 1.397 . S
C268 C267 1.397 . S
C268 C269 1.438 . S
C268 C273 1.429 . S
C269 C252 1.394 . S
C269 C268 1.438 . S
C269 C270 1.428 . S
C270 H262 0.949 . S
C270 C269 1.428 . S
C270 C271 1.345 . S
C271 H263 0.950 . S
C271 C270 1.345 . S
C271 C272 1.424 . S
C272 H264 0.951 . S
C272 C271 1.424 . S
C272 C273 1.347 . S
C273 H265 0.951 . S
C273 C268 1.429 . S
C273 C272 1.347 . S
H274 C275 0.951 . S
C275 H274 0.951 . S
C275 C281 1.265 . S
H276 C281 0.950 . S
H277 C285 0.949 . S
H278 C286 0.950 . S
H279 C287 0.951 . S
H280 C288 0.951 . S
C281 C275 1.265 . S
C281 H276 0.950 . S
C281 C282 1.478 . S
C282 C281 1.478 . S
C282 C283 1.397 . S
C282 C299 1.394 . S
C283 C282 1.397 . S
C283 C284 1.438 . S
C283 C288 1.429 . S
C284 C283 1.438 . S
C284 C285 1.428 . S
C284 C297 1.394 . S
C285 H277 0.949 . S
C285 C284 1.428 . S
C285 C286 1.345 . S
C286 H278 0.950 . S
C286 C285 1.345 . S
C286 C287 1.424 . S
C287 H279 0.951 . S
C287 C286 1.424 . S
C287 C288 1.347 . S
C288 H280 0.951 . S
C288 C283 1.429 . S
C288 C287 1.347 . S
H289 C290 0.951 . S
C290 H289 0.951 . S
C290 C296 1.265 . S
H291 C296 0.950 . S
H292 C300 0.949 . S
H293 C301 0.950 . S
H294 C302 0.951 . S
H295 C303 0.951 . S
C296 C290 1.265 . S
C296 H291 0.950 . S
C296 C297 1.478 . S
C297 C284 1.394 . S
C297 C296 1.478 . S
C297 C298 1.397 . S
C298 C297 1.397 . S
C298 C299 1.438 . S
C298 C303 1.429 . S
C299 C282 1.394 . S
C299 C298 1.438 . S
C299 C300 1.428 . S
C300 H292 0.949 . S
C300 C299 1.428 . S
C300 C301 1.345 . S
C301 H293 0.950 . S
C301 C300 1.345 . S
C301 C302 1.424 . S
C302 H294 0.951 . S
C302 C301 1.424 . S
C302 C303 1.347 . S
C303 H295 0.951 . S
C303 C298 1.429 . S
C303 C302 1.347 . S
H304 C305 0.951 . S
C305 H304 0.951 . S
C305 C311 1.265 . S
H306 C311 0.950 . S
H307 C315 0.949 . S
H308 C316 0.950 . S
H309 C317 0.951 . S
H310 C318 0.951 . S
C311 C305 1.265 . S
C311 H306 0.950 . S
C311 C312 1.478 . S
C312 C311 1.478 . S
C312 C313 1.397 . S
C312 C329 1.394 . S
C313 C312 1.397 . S
C313 C314 1.438 . S
C313 C318 1.429 . S
C314 C313 1.438 . S
C314 C315 1.428 . S
C314 C327 1.394 . S
C315 H307 0.949 . S
C315 C314 1.428 . S
C315 C316 1.345 . S
C316 H308 0.950 . S
C316 C315 1.345 . S
C316 C317 1.424 . S
C317 H309 0.951 . S
C317 C316 1.424 . S
C317 C318 1.347 . S
C318 H310 0.951 . S
C318 C313 1.429 . S
C318 C317 1.347 . S
H319 C320 0.951 . S
C320 H319 0.951 . S
C320 C326 1.265 . S
H321 C326 0.950 . S
H322 C330 0.949 . S
H323 C331 0.950 . S
H324 C332 0.951 . S
H325 C333 0.951 . S
C326 C320 1.265 . S
C326 H321 0.950 . S
C326 C327 1.478 . S
C327 C314 1.394 . S
C327 C326 1.478 . S
C327 C328 1.397 . S
C328 C327 1.397 . S
C328 C329 1.438 . S
C328 C333 1.429 . S
C329 C312 1.394 . S
C329 C328 1.438 . S
C329 C330 1.428 . S
C330 H322 0.949 . S
C330 C329 1.428 . S
C330 C331 1.345 . S
C331 H323 0.950 . S
C331 C330 1.345 . S
C331 C332 1.424 . S
C332 H324 0.951 . S
C332 C331 1.424 . S
C332 C333 1.347 . S
C333 H325 0.951 . S
C333 C328 1.429 . S
C333 C332 1.347 . S
H334 C335 0.951 . S
C335 H334 0.951 . S
C335 C341 1.265 . S
H336 C341 0.950 . S
H337 C345 0.949 . S
H338 C346 0.950 . S
H339 C347 0.951 . S
H340 C348 0.951 . S
C341 C335 1.265 . S
C341 H336 0.950 . S
C341 C342 1.478 . S
C342 C341 1.478 . S
C342 C343 1.397 . S
C342 C359 1.394 . S
C343 C342 1.397 . S
C343 C344 1.438 . S
C343 C348 1.429 . S
C344 C343 1.438 . S
C344 C345 1.428 . S
C344 C357 1.394 . S
C345 H337 0.949 . S
C345 C344 1.428 . S
C345 C346 1.345 . S
C346 H338 0.950 . S
C346 C345 1.345 . S
C346 C347 1.424 . S
C347 H339 0.951 . S
C347 C346 1.424 . S
C347 C348 1.347 . S
C348 H340 0.951 . S
C348 C343 1.429 . S
C348 C347 1.347 . S
H349 C350 0.951 . S
C350 H349 0.951 . S
C350 C356 1.265 . S
H351 C356 0.950 . S
H352 C360 0.949 . S
H353 C361 0.950 . S
H354 C362 0.951 . S
H355 C363 0.951 . S
C356 C350 1.265 . S
C356 H351 0.950 . S
C356 C357 1.478 . S
C357 C344 1.394 . S
C357 C356 1.478 . S
C357 C358 1.397 . S
C358 C357 1.397 . S
C358 C359 1.438 . S
C358 C363 1.429 . S
C359 C342 1.394 . S
C359 C358 1.438 . S
C359 C360 1.428 . S
C360 H352 0.949 . S
C360 C359 1.428 . S
C360 C361 1.345 . S
C361 H353 0.950 . S
C361 C360 1.345 . S
C361 C362 1.424 . S
C362 H354 0.951 . S
C362 C361 1.424 . S
C362 C363 1.347 . S
C363 H355 0.951 . S
C363 C358 1.429 . S
C363 C362 1.347 . S
H364 C365 0.951 . S
C365 H364 0.951 . S
C365 C371 1.265 . S
H366 C371 0.950 1_565 S
H367 C375 0.964 . S
H368 C376 0.950 . S
H369 C377 0.951 . S
H370 C378 0.951 . S
C371 C365 1.265 . S
C371 H366 0.950 1_545 S
C371 C372 1.478 . S
C372 C371 1.478 . S
C372 C373 1.397 . S
C372 C389 1.394 1_544 S
C373 C372 1.397 . S
C373 C374 1.438 1_455 S
C373 C378 1.429 . S
C374 C373 1.438 1_655 S
C374 C375 1.428 . S
C374 C387 1.394 1_544 S
C375 H367 0.964 . S
C375 C374 1.428 . S
C375 C376 1.345 . S
C376 H368 0.950 . S
C376 C375 1.345 . S
C376 C377 1.424 . S
C377 H369 0.951 . S
C377 C376 1.424 . S
C377 C378 1.347 1_655 S
C378 H370 0.951 . S
C378 C373 1.429 . S
C378 C377 1.347 1_455 S
H379 C380 0.951 . S
C380 H379 0.951 . S
C380 C386 1.265 . S
H381 C386 0.950 1_545 S
H382 C390 0.955 . S
H383 C391 0.950 . S
H384 C392 0.951 . S
H385 C393 0.951 . S
C386 C380 1.265 . S
C386 H381 0.950 1_565 S
C386 C387 1.478 . S
C387 C374 1.394 1_566 S
C387 C386 1.478 . S
C387 C388 1.409 . S
C388 C387 1.409 . S
C388 C389 1.426 1_655 S
C388 C393 1.428 . S
C389 C372 1.394 1_566 S
C389 C388 1.426 1_455 S
C389 C390 1.428 . S
C390 H382 0.955 . S
C390 C389 1.428 . S
C390 C391 1.345 . S
C391 H383 0.950 . S
C391 C390 1.345 . S
C391 C392 1.424 . S
C392 H384 0.951 . S
C392 C391 1.424 . S
C392 C393 1.347 1_455 S
C393 H385 0.951 . S
C393 C388 1.428 . S
C393 C392 1.347 1_655 S
H394 C395 0.951 . S
C395 H394 0.951 . S
C395 C401 1.265 . S
H396 C401 0.950 . S
H397 C405 0.949 . S
H398 C406 0.950 . S
H399 C407 0.951 . S
H400 C408 0.951 . S
C401 C395 1.265 . S
C401 H396 0.950 . S
C401 C402 1.478 . S
C402 C401 1.478 . S
C402 C403 1.397 . S
C402 C419 1.394 . S
C403 C402 1.397 . S
C403 C404 1.438 1_455 S
C403 C408 1.429 . S
C404 C403 1.438 1_655 S
C404 C405 1.428 . S
C404 C417 1.394 . S
C405 H397 0.949 . S
C405 C404 1.428 . S
C405 C406 1.345 . S
C406 H398 0.950 . S
C406 C405 1.345 . S
C406 C407 1.424 1_655 S
C407 H399 0.951 . S
C407 C406 1.424 1_455 S
C407 C408 1.347 . S
C408 H400 0.951 . S
C408 C403 1.429 . S
C408 C407 1.347 . S
H409 C410 0.951 . S
C410 H409 0.951 . S
C410 C416 1.265 . S
H411 C416 0.950 . S
H412 C420 0.949 . S
H413 C421 0.950 . S
H414 C422 0.951 . S
H415 C423 0.951 . S
C416 C410 1.265 . S
C416 H411 0.950 . S
C416 C417 1.478 . S
C417 C404 1.394 . S
C417 C416 1.478 . S
C417 C418 1.397 . S
C418 C417 1.397 . S
C418 C419 1.438 1_655 S
C418 C423 1.429 . S
C419 C402 1.394 . S
C419 C418 1.438 1_455 S
C419 C420 1.428 . S
C420 H412 0.949 . S
C420 C419 1.428 . S
C420 C421 1.345 . S
C421 H413 0.950 . S
C421 C420 1.345 . S
C421 C422 1.424 1_455 S
C422 H414 0.951 . S
C422 C421 1.424 1_655 S
C422 C423 1.347 . S
C423 H415 0.951 . S
C423 C418 1.429 . S
C423 C422 1.347 . S
H424 C425 0.951 1_556 S
C425 H424 0.951 1_554 S
C425 C431 1.265 . S
H426 C431 0.950 . S
H427 C435 0.961 . S
H428 C436 0.950 . S
H429 C437 0.951 . S
H430 C438 0.951 . S
C431 C425 1.265 . S
C431 H426 0.950 . S
C431 C432 1.478 . S
C432 C431 1.478 . S
C432 C433 1.397 1_545 S
C432 C449 1.394 1_554 S
C433 C432 1.397 1_565 S
C433 C434 1.438 . S
C433 C438 1.429 . S
C434 C433 1.438 . S
C434 C435 1.428 . S
C434 C447 1.394 1_554 S
C435 H427 0.961 . S
C435 C434 1.428 . S
C435 C436 1.345 . S
C436 H428 0.950 . S
C436 C435 1.345 . S
C436 C437 1.424 . S
C437 H429 0.951 . S
C437 C436 1.424 . S
C437 C438 1.347 . S
C438 H430 0.951 . S
C438 C433 1.429 . S
C438 C437 1.347 . S
H439 C440 0.951 1_554 S
C440 H439 0.951 1_556 S
C440 C446 1.265 . S
H441 C446 0.950 . S
H442 C450 0.949 . S
H443 C451 0.950 . S
H444 C452 0.951 . S
H445 C453 0.951 . S
C446 C440 1.265 . S
C446 H441 0.950 . S
C446 C447 1.478 . S
C447 C434 1.394 1_556 S
C447 C446 1.478 . S
C447 C448 1.397 1_565 S
C448 C447 1.397 1_545 S
C448 C449 1.438 . S
C448 C453 1.429 . S
C449 C432 1.394 1_556 S
C449 C448 1.438 . S
C449 C450 1.428 . S
C450 H442 0.949 . S
C450 C449 1.428 . S
C450 C451 1.345 . S
C451 H443 0.950 . S
C451 C450 1.345 . S
C451 C452 1.424 . S
C452 H444 0.951 . S
C452 C451 1.424 . S
C452 C453 1.347 . S
C453 H445 0.951 . S
C453 C448 1.429 . S
C453 C452 1.347 . S
H454 C455 0.951 . S
C455 H454 0.951 . S
C455 C461 1.265 . S
H456 C461 0.950 . S
H457 C465 0.949 . S
H458 C466 0.950 . S
H459 C467 0.951 . S
H460 C468 0.951 . S
C461 C455 1.265 . S
C461 H456 0.950 . S
C461 C462 1.478 . S
C462 C461 1.478 . S
C462 C463 1.397 . S
C462 C479 1.394 . S
C463 C462 1.397 . S
C463 C464 1.438 . S
C463 C468 1.429 . S
C464 C463 1.438 . S
C464 C465 1.428 . S
C464 C477 1.394 . S
C465 H457 0.949 . S
C465 C464 1.428 . S
C465 C466 1.345 . S
C466 H458 0.950 . S
C466 C465 1.345 . S
C466 C467 1.424 . S
C467 H459 0.951 . S
C467 C466 1.424 . S
C467 C468 1.347 . S
C468 H460 0.951 . S
C468 C463 1.429 . S
C468 C467 1.347 . S
H469 C470 0.951 . S
C470 H469 0.951 . S
C470 C476 1.265 . S
H471 C476 0.950 . S
H472 C480 0.949 . S
H473 C481 0.950 . S
H474 C482 0.951 . S
H475 C483 0.951 . S
C476 C470 1.265 . S
C476 H471 0.950 . S
C476 C477 1.478 . S
C477 C464 1.394 . S
C477 C476 1.478 . S
C477 C478 1.397 . S
C478 C477 1.397 . S
C478 C479 1.438 . S
C478 C483 1.429 . S
C479 C462 1.394 . S
C479 C478 1.438 . S
C479 C480 1.428 . S
C480 H472 0.949 . S
C480 C479 1.428 . S
C480 C481 1.345 . S
C481 H473 0.950 . S
C481 C480 1.345 . S
C481 C482 1.424 . S
C482 H474 0.951 . S
C482 C481 1.424 . S
C482 C483 1.347 . S
C483 H475 0.951 . S
C483 C478 1.429 . S
C483 C482 1.347 . S
H484 C485 0.951 . S
C485 H484 0.951 . S
C485 C491 1.265 . S
H486 C491 0.950 . S
H487 C495 0.949 . S
H488 C496 0.950 . S
H489 C497 0.951 . S
H490 C498 0.951 . S
C491 C485 1.265 . S
C491 H486 0.950 . S
C491 C492 1.478 . S
C492 C491 1.478 . S
C492 C493 1.397 . S
C492 C509 1.394 . S
C493 C492 1.397 . S
C493 C494 1.438 . S
C493 C498 1.429 . S
C494 C493 1.438 . S
C494 C495 1.428 . S
C494 C507 1.394 . S
C495 H487 0.949 . S
C495 C494 1.428 . S
C495 C496 1.345 . S
C496 H488 0.950 . S
C496 C495 1.345 . S
C496 C497 1.424 . S
C497 H489 0.951 . S
C497 C496 1.424 . S
C497 C498 1.347 . S
C498 H490 0.951 . S
C498 C493 1.429 . S
C498 C497 1.347 . S
H499 C500 0.951 . S
C500 H499 0.951 . S
C500 C506 1.265 . S
H501 C506 0.950 . S
H502 C510 0.949 . S
H503 C511 0.950 . S
H504 C512 0.951 . S
H505 C513 0.951 . S
C506 C500 1.265 . S
C506 H501 0.950 . S
C506 C507 1.478 . S
C507 C494 1.394 . S
C507 C506 1.478 . S
C507 C508 1.397 . S
C508 C507 1.397 . S
C508 C509 1.438 . S
C508 C513 1.429 . S
C509 C492 1.394 . S
C509 C508 1.438 . S
C509 C510 1.428 . S
C510 H502 0.949 . S
C510 C509 1.428 . S
C510 C511 1.345 . S
C511 H503 0.950 . S
C511 C510 1.345 . S
C511 C512 1.424 . S
C512 H504 0.951 . S
C512 C511 1.424 . S
C512 C513 1.347 . S
C513 H505 0.951 . S
C513 C508 1.429 . S
C513 C512 1.347 . S
H514 C515 0.951 . S
C515 H514 0.951 . S
C515 C521 1.265 . S
H516 C521 0.950 . S
H517 C525 0.949 . S
H518 C526 0.950 . S
H519 C527 0.951 1_545 S
H520 C528 0.951 . S
C521 C515 1.265 . S
C521 H516 0.950 . S
C521 C522 1.478 . S
C522 C521 1.478 . S
C522 C523 1.397 . S
C522 C539 1.394 . S
C523 C522 1.397 . S
C523 C524 1.438 . S
C523 C528 1.429 . S
C524 C523 1.438 . S
C524 C525 1.428 . S
C524 C537 1.394 . S
C525 H517 0.949 . S
C525 C524 1.428 . S
C525 C526 1.345 . S
C526 H518 0.950 . S
C526 C525 1.345 . S
C526 C527 1.424 . S
C527 H519 0.951 1_565 S
C527 C526 1.424 . S
C527 C528 1.347 . S
C528 H520 0.951 . S
C528 C523 1.429 . S
C528 C527 1.347 . S
H529 C530 0.951 . S
C530 H529 0.951 . S
C530 C536 1.265 . S
H531 C536 0.950 . S
H532 C540 0.949 . S
H533 C541 0.950 . S
H534 C542 0.951 . S
H535 C543 0.951 . S
C536 C530 1.265 . S
C536 H531 0.950 . S
C536 C537 1.478 . S
C537 C524 1.394 . S
C537 C536 1.478 . S
C537 C538 1.397 . S
C538 C537 1.397 . S
C538 C539 1.438 . S
C538 C543 1.429 . S
C539 C522 1.394 . S
C539 C538 1.438 . S
C539 C540 1.428 . S
C540 H532 0.949 . S
C540 C539 1.428 . S
C540 C541 1.345 . S
C541 H533 0.950 . S
C541 C540 1.345 . S
C541 C542 1.424 . S
C542 H534 0.951 . S
C542 C541 1.424 . S
C542 C543 1.347 . S
C543 H535 0.951 . S
C543 C538 1.429 . S
C543 C542 1.347 . S
H544 C545 0.951 . S
C545 H544 0.951 . S
C545 C551 1.265 . S
H546 C551 0.950 . S
H547 C555 0.949 . S
H548 C556 0.950 . S
H549 C557 0.951 . S
H550 C558 0.951 . S
C551 C545 1.265 . S
C551 H546 0.950 . S
C551 C552 1.478 . S
C552 C551 1.478 . S
C552 C553 1.397 . S
C552 C569 1.394 . S
C553 C552 1.397 . S
C553 C554 1.438 . S
C553 C558 1.429 . S
C554 C553 1.438 . S
C554 C555 1.428 . S
C554 C567 1.394 . S
C555 H547 0.949 . S
C555 C554 1.428 . S
C555 C556 1.345 . S
C556 H548 0.950 . S
C556 C555 1.345 . S
C556 C557 1.424 . S
C557 H549 0.951 . S
C557 C556 1.424 . S
C557 C558 1.347 . S
C558 H550 0.951 . S
C558 C553 1.429 . S
C558 C557 1.347 . S
H559 C560 0.951 . S
C560 H559 0.951 . S
C560 C566 1.265 . S
H561 C566 0.950 . S
H562 C570 0.949 . S
H563 C571 0.950 . S
H564 C572 0.951 . S
H565 C573 0.951 . S
C566 C560 1.265 . S
C566 H561 0.950 . S
C566 C567 1.478 . S
C567 C554 1.394 . S
C567 C566 1.478 . S
C567 C568 1.397 . S
C568 C567 1.397 . S
C568 C569 1.438 . S
C568 C573 1.429 . S
C569 C552 1.394 . S
C569 C568 1.438 . S
C569 C570 1.428 . S
C570 H562 0.949 . S
C570 C569 1.428 . S
C570 C571 1.345 . S
C571 H563 0.950 . S
C571 C570 1.345 . S
C571 C572 1.424 . S
C572 H564 0.951 . S
C572 C571 1.424 . S
C572 C573 1.347 . S
C573 H565 0.951 . S
C573 C568 1.429 . S
C573 C572 1.347 . S
H574 C575 0.951 . S
C575 H574 0.951 . S
C575 C581 1.265 . S
H576 C581 0.950 . S
H577 C585 0.949 . S
H578 C586 0.950 . S
H579 C587 0.951 . S
H580 C588 0.951 . S
C581 C575 1.265 . S
C581 H576 0.950 . S
C581 C582 1.478 . S
C582 C581 1.478 . S
C582 C583 1.397 . S
C582 C599 1.394 . S
C583 C582 1.397 . S
C583 C584 1.438 . S
C583 C588 1.429 . S
C584 C583 1.438 . S
C584 C585 1.428 . S
C584 C597 1.394 . S
C585 H577 0.949 . S
C585 C584 1.428 . S
C585 C586 1.345 . S
C586 H578 0.950 . S
C586 C585 1.345 . S
C586 C587 1.424 . S
C587 H579 0.951 . S
C587 C586 1.424 . S
C587 C588 1.347 . S
C588 H580 0.951 . S
C588 C583 1.429 . S
C588 C587 1.347 . S
H589 C590 0.951 . S
C590 H589 0.951 . S
C590 C596 1.265 . S
H591 C596 0.950 . S
H592 C600 0.949 . S
H593 C601 0.950 . S
H594 C602 0.951 . S
H595 C603 0.951 . S
C596 C590 1.265 . S
C596 H591 0.950 . S
C596 C597 1.478 . S
C597 C584 1.394 . S
C597 C596 1.478 . S
C597 C598 1.397 . S
C598 C597 1.397 . S
C598 C599 1.438 . S
C598 C603 1.429 . S
C599 C582 1.394 . S
C599 C598 1.438 . S
C599 C600 1.428 . S
C600 H592 0.949 . S
C600 C599 1.428 . S
C600 C601 1.345 . S
C601 H593 0.950 . S
C601 C600 1.345 . S
C601 C602 1.424 . S
C602 H594 0.951 . S
C602 C601 1.424 . S
C602 C603 1.347 . S
C603 H595 0.951 . S
C603 C598 1.429 . S
C603 C602 1.347 . S
C125 C1 1.089 . S
C140 C20 1.131 . S
C155 C33 1.627 . S
C170 C60 1.642 . S
C185 C64 1.623 . S
C200 C91 1.621 . S
C215 C122 1.619 . S
C230 C95 1.617 . S
C245 C50 1.172 . S
C260 C29 0.965 . S
C275 C51 0.775 . S
C290 C30 0.858 . S
C305 C93 1.021 . S
C320 C82 0.871 . S
C335 C81 1.040 . S
C350 C94 0.877 . S
C365 C19 1.244 . S
C380 C92 1.158 . S
C395 C103 1.107 . S
C410 C61 1.106 . S
C425 C10 1.092 . S
C440 C62 1.066 . S
C455 C112 0.926 . S
C470 C31 0.927 . S
C485 C123 1.931 . S
C500 C2 2.014 1_556 S
C515 C72 1.785 . S
C530 C32 1.807 . S
C545 C41 1.727 . S
C560 C63 1.772 . S
C575 C113 1.912 . S
C590 C0 1.944 . S
