# Generated by pormake.
# Topology umc, (4)-cn, num edge types: 1
# Building blocks:
#     Node 0, Type 0, BuildingBlock: QUQFOY_clean_sbu_3, # of connection points: 4
#     Node 1, Type 0, BuildingBlock: QUQFOY_clean_sbu_3, # of connection points: 4
#     Node 2, Type 0, BuildingBlock: QUQFOY_clean_sbu_3, # of connection points: 4
#     Node 3, Type 0, BuildingBlock: QUQFOY_clean_sbu_3, # of connection points: 4
#     Node 4, Type 0, BuildingBlock: QUQFOY_clean_sbu_3, # of connection points: 4
#     Node 5, Type 0, BuildingBlock: QUQFOY_clean_sbu_3, # of connection points: 4
#     Node 6, Type 0, BuildingBlock: QUQFOY_clean_sbu_3, # of connection points: 4
#     Node 7, Type 0, BuildingBlock: QUQFOY_clean_sbu_3, # of connection points: 4
#     Node 8, Type 0, BuildingBlock: QUQFOY_clean_sbu_3, # of connection points: 4
#     Node 9, Type 0, BuildingBlock: QUQFOY_clean_sbu_3, # of connection points: 4
#     Node 10, Type 0, BuildingBlock: QUQFOY_clean_sbu_3, # of connection points: 4
#     Node 11, Type 0, BuildingBlock: QUQFOY_clean_sbu_3, # of connection points: 4
#     Node 12, Type 0, BuildingBlock: QUQFOY_clean_sbu_3, # of connection points: 4
#     Node 13, Type 0, BuildingBlock: QUQFOY_clean_sbu_3, # of connection points: 4
#     Node 14, Type 0, BuildingBlock: QUQFOY_clean_sbu_3, # of connection points: 4
#     Node 15, Type 0, BuildingBlock: QUQFOY_clean_sbu_3, # of connection points: 4
#     Edge 16, Type (0, 0), BuildingBlock: TEMPAE_clean_linker_10, # of connection points: 2
#     Edge 17, Type (0, 0), BuildingBlock: TEMPAE_clean_linker_10, # of connection points: 2
#     Edge 18, Type (0, 0), BuildingBlock: TEMPAE_clean_linker_10, # of connection points: 2
#     Edge 19, Type (0, 0), BuildingBlock: TEMPAE_clean_linker_10, # of connection points: 2
#     Edge 20, Type (0, 0), BuildingBlock: TEMPAE_clean_linker_10, # of connection points: 2
#     Edge 21, Type (0, 0), BuildingBlock: TEMPAE_clean_linker_10, # of connection points: 2
#     Edge 22, Type (0, 0), BuildingBlock: TEMPAE_clean_linker_10, # of connection points: 2
#     Edge 23, Type (0, 0), BuildingBlock: TEMPAE_clean_linker_10, # of connection points: 2
#     Edge 24, Type (0, 0), BuildingBlock: TEMPAE_clean_linker_10, # of connection points: 2
#     Edge 25, Type (0, 0), BuildingBlock: TEMPAE_clean_linker_10, # of connection points: 2
#     Edge 26, Type (0, 0), BuildingBlock: TEMPAE_clean_linker_10, # of connection points: 2
#     Edge 27, Type (0, 0), BuildingBlock: TEMPAE_clean_linker_10, # of connection points: 2
#     Edge 28, Type (0, 0), BuildingBlock: TEMPAE_clean_linker_10, # of connection points: 2
#     Edge 29, Type (0, 0), BuildingBlock: TEMPAE_clean_linker_10, # of connection points: 2
#     Edge 30, Type (0, 0), BuildingBlock: TEMPAE_clean_linker_10, # of connection points: 2
#     Edge 31, Type (0, 0), BuildingBlock: TEMPAE_clean_linker_10, # of connection points: 2
#     Edge 32, Type (0, 0), BuildingBlock: TEMPAE_clean_linker_10, # of connection points: 2
#     Edge 33, Type (0, 0), BuildingBlock: TEMPAE_clean_linker_10, # of connection points: 2
#     Edge 34, Type (0, 0), BuildingBlock: TEMPAE_clean_linker_10, # of connection points: 2
#     Edge 35, Type (0, 0), BuildingBlock: TEMPAE_clean_linker_10, # of connection points: 2
#     Edge 36, Type (0, 0), BuildingBlock: TEMPAE_clean_linker_10, # of connection points: 2
#     Edge 37, Type (0, 0), BuildingBlock: TEMPAE_clean_linker_10, # of connection points: 2
#     Edge 38, Type (0, 0), BuildingBlock: TEMPAE_clean_linker_10, # of connection points: 2
#     Edge 39, Type (0, 0), BuildingBlock: TEMPAE_clean_linker_10, # of connection points: 2
#     Edge 40, Type (0, 0), BuildingBlock: TEMPAE_clean_linker_10, # of connection points: 2
#     Edge 41, Type (0, 0), BuildingBlock: TEMPAE_clean_linker_10, # of connection points: 2
#     Edge 42, Type (0, 0), BuildingBlock: TEMPAE_clean_linker_10, # of connection points: 2
#     Edge 43, Type (0, 0), BuildingBlock: TEMPAE_clean_linker_10, # of connection points: 2
#     Edge 44, Type (0, 0), BuildingBlock: TEMPAE_clean_linker_10, # of connection points: 2
#     Edge 45, Type (0, 0), BuildingBlock: TEMPAE_clean_linker_10, # of connection points: 2
#     Edge 46, Type (0, 0), BuildingBlock: TEMPAE_clean_linker_10, # of connection points: 2
#     Edge 47, Type (0, 0), BuildingBlock: TEMPAE_clean_linker_10, # of connection points: 2
# Relax obj value: 0.085
# Max RMSD: 0.168
# Mean RMSD: 0.168
data_MOF--net-umc--node1-QUQFOY_clean_sbu_3--edge1-TEMPAE_clean_linker_10
_symmetry_space_group_name_H-M    P1
_symmetry_Int_Tables_number       1
_symmetry_cell_setting            triclinic
loop_
_symmetry_equiv_pos_as_xyz
'x, y, z'
_cell_length_a     45.74097
_cell_length_b     35.405535
_cell_length_c     58.47287
_cell_angle_alpha  90.079884
_cell_angle_beta   89.98489
_cell_angle_gamma 89.991311
loop_
_atom_site_label
_atom_site_type_symbol
_atom_site_fract_x
_atom_site_fract_y
_atom_site_fract_z
_atom_type_partial_charge
C0 C 0.29634 0.97768 0.32057 0.0
O1 O 0.30444 0.95181 0.33418 0.0
Cd2 Cd 0.32659 0.96547 0.37062 0.0
O3 O 0.30114 0.01234 0.32491 0.0
Cd4 Cd 0.32254 0.05486 0.35324 0.0
C5 C 0.38964 0.01086 0.3527 0.0
O6 O 0.30233 0.02004 0.38487 0.0
O7 O 0.33076 0.06664 0.39367 0.0
O8 O 0.28125 0.09709 0.3491 0.0
C9 C 0.31429 0.03995 0.40025 0.0
O10 O 0.37675 0.98321 0.36231 0.0
C11 C 0.29551 0.12575 0.34247 0.0
O12 O 0.37527 0.03987 0.34608 0.0
O13 O 0.32297 0.12159 0.33999 0.0
C14 C 0.70428 0.02419 0.31925 0.0
O15 O 0.69658 0.05117 0.33224 0.0
Cd16 Cd 0.67446 0.03989 0.36889 0.0
O17 O 0.69891 0.99003 0.32443 0.0
Cd18 Cd 0.67654 0.95113 0.35408 0.0
C19 C 0.6102 0.99671 0.35258 0.0
O20 O 0.69877 0.98654 0.38502 0.0
O21 O 0.66802 0.94292 0.39466 0.0
O22 O 0.71611 0.90582 0.35119 0.0
C23 C 0.68625 0.96802 0.40073 0.0
O24 O 0.62358 0.02454 0.36158 0.0
C25 C 0.70079 0.87792 0.34482 0.0
O26 O 0.62411 0.96693 0.34664 0.0
O27 O 0.6736 0.88386 0.342 0.0
C28 C 0.293 0.99653 0.15627 0.0
O29 O 0.29849 0.02876 0.14788 0.0
Cd30 Cd 0.32239 0.0347 0.11177 0.0
O31 O 0.29972 0.9666 0.14548 0.0
Cd32 Cd 0.32148 0.94672 0.10914 0.0
C33 C 0.38685 0.98719 0.1211 0.0
O34 O 0.29967 0.99391 0.08397 0.0
O35 O 0.33691 0.96252 0.07101 0.0
O36 O 0.28281 0.90202 0.10009 0.0
C37 C 0.31599 0.98521 0.06721 0.0
O38 O 0.37346 0.01848 0.11881 0.0
C39 C 0.29742 0.87231 0.10395 0.0
O40 O 0.37337 0.95583 0.11908 0.0
O41 O 0.32388 0.87674 0.11005 0.0
C42 C 0.70112 0.00029 0.15546 0.0
O43 O 0.69485 0.96832 0.14699 0.0
Cd44 Cd 0.66978 0.96361 0.11129 0.0
O45 O 0.69416 0.03056 0.14518 0.0
Cd46 Cd 0.67061 0.05172 0.10989 0.0
C47 C 0.60549 0.01063 0.12203 0.0
O48 O 0.69169 0.00546 0.08372 0.0
O49 O 0.65403 0.03718 0.0719 0.0
O50 O 0.70862 0.09708 0.10035 0.0
C51 C 0.67486 0.0147 0.0674 0.0
O52 O 0.61882 0.97943 0.11909 0.0
C53 C 0.6941 0.12652 0.10511 0.0
O54 O 0.61898 0.04205 0.12043 0.0
O55 O 0.66799 0.12165 0.11196 0.0
C56 C 0.7023 0.00131 0.65709 0.0
O57 O 0.6989 0.03374 0.64831 0.0
Cd58 Cd 0.6771 0.03852 0.61099 0.0
O59 O 0.69471 0.97192 0.6462 0.0
Cd60 Cd 0.67481 0.9525 0.60964 0.0
C61 C 0.61115 0.99495 0.62077 0.0
O62 O 0.69944 0.99664 0.58362 0.0
O63 O 0.6598 0.96936 0.57173 0.0
O64 O 0.71406 0.90704 0.61203 0.0
C65 C 0.68217 0.98912 0.56726 0.0
O66 O 0.62501 0.02475 0.61517 0.0
C67 C 0.69922 0.87834 0.60628 0.0
O68 O 0.62441 0.96341 0.62267 0.0
O69 O 0.67227 0.8837 0.60197 0.0
C70 C 0.29575 0.98987 0.65541 0.0
O71 O 0.30259 0.95856 0.64632 0.0
Cd72 Cd 0.32657 0.95728 0.6096 0.0
O73 O 0.30235 0.02075 0.64575 0.0
Cd74 Cd 0.32664 0.04388 0.61173 0.0
C75 C 0.39132 0.00164 0.62153 0.0
O76 O 0.3061 0.00156 0.58289 0.0
O77 O 0.34558 0.0324 0.57407 0.0
O78 O 0.28833 0.08876 0.6032 0.0
C79 C 0.32427 0.01197 0.56772 0.0
O80 O 0.37809 0.97184 0.61508 0.0
C81 C 0.30241 0.11824 0.60857 0.0
O82 O 0.37744 0.0326 0.62426 0.0
O83 O 0.32858 0.1137 0.61539 0.0
C84 C 0.69165 0.97323 0.8217 0.0
O85 O 0.68487 0.94688 0.83541 0.0
Cd86 Cd 0.66713 0.96128 0.87327 0.0
O87 O 0.68765 0.00773 0.82681 0.0
Cd88 Cd 0.67008 0.05 0.85657 0.0
C89 C 0.603 0.00759 0.85952 0.0
O90 O 0.69592 0.0139 0.88551 0.0
O91 O 0.6713 0.06213 0.89732 0.0
O92 O 0.70712 0.08999 0.83904 0.0
C93 C 0.68796 0.03464 0.90201 0.0
O94 O 0.61617 0.97965 0.86857 0.0
C95 C 0.69368 0.12088 0.84226 0.0
O96 O 0.61727 0.03604 0.85208 0.0
O97 O 0.66847 0.11882 0.85132 0.0
C98 C 0.29208 0.02156 0.81976 0.0
O99 O 0.2984 0.04964 0.83236 0.0
Cd100 Cd 0.31678 0.04041 0.87072 0.0
O101 O 0.29711 0.98795 0.82622 0.0
Cd102 Cd 0.31655 0.95042 0.85737 0.0
C103 C 0.38228 0.99657 0.85848 0.0
O104 O 0.28998 0.98782 0.88572 0.0
O105 O 0.31634 0.94141 0.89808 0.0
O106 O 0.28093 0.90662 0.84148 0.0
C107 C 0.29903 0.96837 0.90246 0.0
O108 O 0.36838 0.02468 0.86667 0.0
C109 C 0.29583 0.87703 0.84515 0.0
O110 O 0.36878 0.96682 0.85208 0.0
O111 O 0.32104 0.88153 0.85388 0.0
C112 C 0.78829 0.47197 0.31707 0.0
O113 O 0.79637 0.44474 0.32966 0.0
Cd114 Cd 0.81795 0.4556 0.3666 0.0
O115 O 0.7932 0.50608 0.32269 0.0
Cd116 Cd 0.81497 0.54485 0.35265 0.0
C117 C 0.88193 0.50077 0.35145 0.0
O118 O 0.79228 0.50803 0.38271 0.0
O119 O 0.8224 0.55188 0.39331 0.0
O120 O 0.7751 0.58977 0.34985 0.0
C121 C 0.80406 0.52657 0.39881 0.0
O122 O 0.86884 0.4724 0.36005 0.0
C123 C 0.79031 0.61795 0.34383 0.0
O124 O 0.86766 0.53028 0.34561 0.0
O125 O 0.81757 0.61237 0.34117 0.0
C126 C 0.19661 0.5283 0.32091 0.0
O127 O 0.1879 0.55409 0.33438 0.0
Cd128 Cd 0.16551 0.53903 0.37049 0.0
O129 O 0.19208 0.49362 0.32525 0.0
Cd130 Cd 0.17049 0.45136 0.35343 0.0
C131 C 0.10279 0.49339 0.35275 0.0
O132 O 0.19114 0.48574 0.38546 0.0
O133 O 0.16174 0.43973 0.39356 0.0
O134 O 0.21177 0.40886 0.34981 0.0
C135 C 0.17903 0.46531 0.4005 0.0
O136 O 0.11526 0.52126 0.36249 0.0
C137 C 0.19765 0.38037 0.34276 0.0
O138 O 0.11764 0.46483 0.34605 0.0
O139 O 0.17029 0.3847 0.3398 0.0
C140 C 0.78833 0.5048 0.15429 0.0
O141 O 0.79482 0.53711 0.14648 0.0
Cd142 Cd 0.81975 0.5426 0.11072 0.0
O143 O 0.79506 0.47504 0.14336 0.0
Cd144 Cd 0.8182 0.45497 0.10778 0.0
C145 C 0.8838 0.49452 0.12018 0.0
O146 O 0.7968 0.50243 0.08256 0.0
O147 O 0.83384 0.47052 0.06974 0.0
O148 O 0.77999 0.4096 0.09843 0.0
C149 C 0.81307 0.49339 0.06585 0.0
O150 O 0.87078 0.52607 0.1179 0.0
C151 C 0.79463 0.38018 0.10296 0.0
O152 O 0.86994 0.46347 0.1181 0.0
O153 O 0.82091 0.38511 0.10937 0.0
C154 C 0.19715 0.49986 0.15797 0.0
O155 O 0.19086 0.46717 0.15057 0.0
Cd156 Cd 0.16715 0.45949 0.11447 0.0
O157 O 0.19101 0.52905 0.14633 0.0
Cd158 Cd 0.16935 0.54686 0.10972 0.0
C159 C 0.10312 0.5087 0.12166 0.0
O160 O 0.1913 0.49761 0.08599 0.0
O161 O 0.15501 0.52912 0.07165 0.0
O162 O 0.20816 0.59107 0.09996 0.0
C163 C 0.17575 0.50578 0.06871 0.0
O164 O 0.11605 0.47694 0.12035 0.0
C165 C 0.19371 0.62095 0.10374 0.0
O166 O 0.11719 0.5395 0.11912 0.0
O167 O 0.16726 0.61681 0.10993 0.0
C168 C 0.19029 0.49393 0.65754 0.0
O169 O 0.18474 0.52505 0.64774 0.0
Cd170 Cd 0.16657 0.52699 0.60912 0.0
O171 O 0.18582 0.46282 0.64737 0.0
Cd172 Cd 0.16783 0.43945 0.61102 0.0
C173 C 0.10153 0.47995 0.6155 0.0
O174 O 0.19098 0.4833 0.5843 0.0
O175 O 0.15324 0.45158 0.57241 0.0
O176 O 0.20852 0.39674 0.60592 0.0
C177 C 0.17461 0.47315 0.56787 0.0
O178 O 0.11507 0.5101 0.61015 0.0
C179 C 0.19437 0.36637 0.60874 0.0
O180 O 0.1154 0.44936 0.61947 0.0
O181 O 0.16711 0.36942 0.61268 0.0
C182 C 0.79733 0.50478 0.65511 0.0
O183 O 0.79417 0.4722 0.64643 0.0
Cd184 Cd 0.81276 0.46255 0.60832 0.0
O185 O 0.80681 0.53179 0.643 0.0
Cd186 Cd 0.81964 0.54796 0.60418 0.0
C187 C 0.88188 0.50147 0.61284 0.0
O188 O 0.79035 0.50402 0.58104 0.0
O189 O 0.82987 0.52733 0.56609 0.0
O190 O 0.78175 0.59429 0.60964 0.0
C191 C 0.80641 0.50873 0.56357 0.0
O192 O 0.86592 0.47243 0.6096 0.0
C193 C 0.7959 0.62244 0.60215 0.0
O194 O 0.87063 0.5344 0.6138 0.0
O195 O 0.82188 0.61634 0.59521 0.0
C196 C 0.19359 0.4797 0.82532 0.0
O197 O 0.18853 0.45229 0.83875 0.0
Cd198 Cd 0.17621 0.46223 0.87851 0.0
O199 O 0.1904 0.51376 0.83172 0.0
Cd200 Cd 0.17621 0.55315 0.86389 0.0
C201 C 0.11033 0.50826 0.87129 0.0
O202 O 0.20548 0.51498 0.88954 0.0
O203 O 0.18376 0.56307 0.90447 0.0
O204 O 0.20964 0.59609 0.84459 0.0
C205 C 0.2001 0.53454 0.90717 0.0
O206 O 0.12478 0.47996 0.87858 0.0
C207 C 0.19563 0.62595 0.84952 0.0
O208 O 0.12333 0.53745 0.86347 0.0
O209 O 0.17182 0.62192 0.86047 0.0
C210 C 0.81289 0.5092 0.82369 0.0
O211 O 0.81077 0.53599 0.83807 0.0
Cd212 Cd 0.82246 0.52586 0.87774 0.0
O213 O 0.81859 0.47561 0.82993 0.0
Cd214 Cd 0.82634 0.4342 0.86248 0.0
C215 C 0.8903 0.48159 0.87123 0.0
O216 O 0.79461 0.47126 0.88658 0.0
O217 O 0.8168 0.42503 0.90301 0.0
O218 O 0.79323 0.3935 0.84127 0.0
C219 C 0.79931 0.45266 0.90465 0.0
O220 O 0.8747 0.50965 0.87749 0.0
C221 C 0.80594 0.36282 0.84646 0.0
O222 O 0.87853 0.45103 0.86412 0.0
O223 O 0.82918 0.36537 0.85831 0.0
C224 C 0.30606 0.99354 0.43155 0.0
C225 C 0.31121 0.0308 0.42458 0.0
C226 C 0.30561 0.98416 0.45484 0.0
C227 C 0.30973 0.01297 0.4713 0.0
C228 C 0.31348 0.05092 0.46427 0.0
C229 C 0.31459 0.05929 0.44094 0.0
C230 C 0.30219 0.94334 0.46176 0.0
C231 C 0.31729 0.08258 0.48138 0.0
C232 C 0.29172 0.00429 0.53407 0.0
C233 C 0.31988 0.00374 0.54341 0.0
C234 C 0.28775 0.00474 0.5103 0.0
C235 C 0.31257 0.00366 0.49585 0.0
C236 C 0.34084 -0.00065 0.50532 0.0
C237 C 0.34419 5e-05 0.52907 0.0
C238 C 0.25733 0.00987 0.5008 0.0
C239 C 0.36775 0.99701 0.49042 0.0
H240 H 0.30358 0.9715 0.4188 0.0
H241 H 0.31824 0.08816 0.43547 0.0
H242 H 0.3231 0.93292 0.46901 0.0
H243 H 0.28531 0.94045 0.47527 0.0
H244 H 0.29612 0.92502 0.44706 0.0
H245 H 0.31716 0.11082 0.47313 0.0
H246 H 0.29958 0.08171 0.49435 0.0
H247 H 0.33835 0.07908 0.49054 0.0
H248 H 0.27296 0.00728 0.54528 0.0
H249 H 0.36594 -0.00083 0.53644 0.0
H250 H 0.25368 0.99118 0.48584 0.0
H251 H 0.25471 0.03944 0.49488 0.0
H252 H 0.24025 0.00401 0.51383 0.0
H253 H 0.3642 0.97711 0.47602 0.0
H254 H 0.38729 0.98774 0.50021 0.0
H255 H 0.3724 0.0252 0.48299 0.0
C256 C 0.716 0.99573 0.53434 0.0
C257 C 0.68809 0.00055 0.54368 0.0
C258 C 0.72004 0.99669 0.51056 0.0
C259 C 0.69565 0.00342 0.49622 0.0
C260 C 0.66822 0.01268 0.5059 0.0
C261 C 0.66466 0.01053 0.52959 0.0
C262 C 0.74957 0.98653 0.50084 0.0
C263 C 0.64188 0.0211 0.49119 0.0
C264 C 0.70111 0.01231 0.43181 0.0
C265 C 0.69138 0.97648 0.42498 0.0
C266 C 0.70376 0.02138 0.45508 0.0
C267 C 0.69701 0.99366 0.47165 0.0
C268 C 0.68868 0.95685 0.46472 0.0
C269 C 0.68564 0.94886 0.44144 0.0
C270 C 0.71227 0.06102 0.46188 0.0
C271 C 0.68183 0.92625 0.4819 0.0
H272 H 0.73405 0.98792 0.54538 0.0
H273 H 0.64316 0.01467 0.53701 0.0
H274 H 0.74918 0.95669 0.49499 0.0
H275 H 0.75491 0.00434 0.48582 0.0
H276 H 0.7672 0.98959 0.51378 0.0
H277 H 0.62385 0.03409 0.50123 0.0
H278 H 0.64778 0.04036 0.47698 0.0
H279 H 0.63367 0.99444 0.48353 0.0
H280 H 0.70551 0.0337 0.41901 0.0
H281 H 0.67851 0.921 0.4361 0.0
H282 H 0.72896 0.06059 0.47564 0.0
H283 H 0.6928 0.07595 0.46873 0.0
H284 H 0.72093 0.07742 0.44718 0.0
H285 H 0.69983 0.92369 0.49452 0.0
H286 H 0.67844 0.8983 0.47366 0.0
H287 H 0.66168 0.93373 0.49146 0.0
C288 C 0.28064 0.00332 0.03677 0.0
C289 C 0.30957 0.99761 0.04381 0.0
C290 C 0.27385 0.00653 0.01345 0.0
C291 C 0.29667 0.00449 -0.00285 0.0
C292 C 0.32614 0.00304 0.00449 0.0
C293 C 0.33222 -0.00085 0.02778 0.0
C294 C 0.2422 0.00826 0.00627 0.0
C295 C 0.35118 0.00181 -0.01235 0.0
C296 C 0.29101 0.94933 0.94252 0.0
C297 C 0.2921 0.9781 0.92622 0.0
C298 C 0.28964 0.95782 0.96582 0.0
C299 C 0.29013 0.99609 0.97289 0.0
C300 C 0.28901 0.02531 0.95642 0.0
C301 C 0.28978 0.0159 0.93309 0.0
C302 C 0.2901 0.92575 0.98284 0.0
C303 C 0.28951 0.06637 0.96332 0.0
H304 H 0.26312 0.00231 0.04925 0.0
H305 H 0.35465 0.99543 0.03335 0.0
H306 H 0.23926 0.02705 -0.00871 0.0
H307 H 0.23483 0.97957 0.00122 0.0
H308 H 0.22797 0.01832 0.02042 0.0
H309 H 0.37261 0.00664 -0.0039 0.0
H310 H 0.35176 0.97371 0.97923 0.0
H311 H 0.3482 0.02337 0.9741 0.0
H312 H 0.29237 0.92008 0.93706 0.0
H313 H 0.29061 0.03812 0.92036 0.0
H314 H 0.2735 0.93035 -0.0036 0.0
H315 H 0.31184 0.92453 -0.00876 0.0
H316 H 0.28585 0.89799 0.9746 0.0
H317 H 0.27577 0.07141 0.97866 0.0
H318 H 0.28183 0.08495 0.94925 0.0
H319 H 0.31224 0.07458 0.9677 0.0
C320 C 0.69516 0.05386 0.94222 0.0
C321 C 0.6946 0.02512 0.92583 0.0
C322 C 0.69693 0.04531 0.96548 0.0
C323 C 0.69742 0.00701 0.97242 0.0
C324 C 0.69885 0.9779 0.95586 0.0
C325 C 0.69767 0.98738 0.93259 0.0
C326 C 0.69609 0.07726 0.98264 0.0
C327 C 0.69928 0.9368 0.96264 0.0
C328 C 0.7094 -0.00119 0.03598 0.0
C329 C 0.68063 0.00322 0.04373 0.0
C330 C 0.71539 0.99658 0.01249 0.0
C331 C 0.69193 -0.00181 -0.00325 0.0
C332 C 0.66272 -0.00159 0.00476 0.0
C333 C 0.65743 0.00142 0.02821 0.0
C334 C 0.74678 0.99631 0.00458 0.0
C335 C 0.63706 -0.00087 -0.0115 0.0
H336 H 0.69324 0.08308 0.93687 0.0
H337 H 0.69725 0.96517 0.91981 0.0
H338 H 0.67454 0.07754 -0.00863 0.0
H339 H 0.71311 0.07325 -0.00408 0.0
H340 H 0.69946 0.10522 0.97445 0.0
H341 H 0.70656 0.91841 0.94832 0.0
H342 H 0.71382 0.93209 0.97755 0.0
H343 H 0.67691 0.92803 0.9677 0.0
H344 H 0.72733 0.0001 0.04808 0.0
H345 H 0.63515 0.0042 0.03435 0.0
H346 H 0.75318 0.02533 -0.00054 0.0
H347 H 0.74965 0.97773 -0.01055 0.0
H348 H 0.76182 0.98682 0.01834 0.0
H349 H 0.63558 0.0274 0.9804 0.0
H350 H 0.61606 0.99334 -0.00262 0.0
H351 H 0.64 0.97802 0.97466 0.0
C352 C 0.82 0.47959 0.52688 0.0
C353 C 0.79828 0.49496 0.54089 0.0
C354 C 0.81567 0.47638 0.50332 0.0
C355 C 0.78935 0.49004 0.4937 0.0
C356 C 0.7661 0.50151 0.50813 0.0
C357 C 0.7708 0.50357 0.5318 0.0
C358 C 0.84066 0.46281 0.48856 0.0
C359 C 0.73764 0.51594 0.49847 0.0
C360 C 0.8055 0.54417 0.4398 0.0
C361 C 0.79769 0.51812 0.4229 0.0
C362 C 0.80124 0.53601 0.46292 0.0
C363 C 0.78924 0.50064 0.46925 0.0
C364 C 0.78021 0.47476 0.45224 0.0
C365 C 0.78446 0.4839 0.42914 0.0
C366 C 0.81078 0.5647 0.48059 0.0
C367 C 0.7675 0.43676 0.45836 0.0
H368 H 0.84111 0.47252 0.53415 0.0
H369 H 0.75406 0.51542 0.54281 0.0
H370 H 0.83257 0.44464 0.47446 0.0
H371 H 0.85177 0.48753 0.48078 0.0
H372 H 0.85706 0.44673 0.49863 0.0
H373 H 0.71994 0.51553 0.51148 0.0
H374 H 0.74064 0.54553 0.49267 0.0
H375 H 0.73069 0.49899 0.48346 0.0
H376 H 0.81533 0.57087 0.43498 0.0
H377 H 0.77833 0.46373 0.41602 0.0
H378 H 0.82966 0.55349 0.49037 0.0
H379 H 0.79285 0.57017 0.49293 0.0
H380 H 0.81735 0.59198 0.47275 0.0
H381 H 0.78538 0.41762 0.46381 0.0
H382 H 0.7561 0.42355 0.4436 0.0
H383 H 0.75193 0.43919 0.47284 0.0
C384 C 0.20781 0.48305 0.53489 0.0
C385 C 0.17979 0.48537 0.54435 0.0
C386 C 0.21173 0.48589 0.51116 0.0
C387 C 0.18707 0.49205 0.49702 0.0
C388 C 0.15929 0.49854 0.50692 0.0
C389 C 0.15589 0.49444 0.53053 0.0
C390 C 0.24162 0.4785 0.50118 0.0
C391 C 0.13262 0.50633 0.49245 0.0
C392 C 0.19217 0.50748 0.43307 0.0
C393 C 0.18385 0.47178 0.42499 0.0
C394 C 0.19448 0.51445 0.45662 0.0
C395 C 0.18885 0.48476 0.47216 0.0
C396 C 0.182 0.44817 0.46394 0.0
C397 C 0.17924 0.44226 0.44042 0.0
C398 C 0.20139 0.55388 0.46483 0.0
C399 C 0.17642 0.41555 0.48 0.0
H400 H 0.22621 0.47595 0.54576 0.0
H401 H 0.13429 0.49666 0.53808 0.0
H402 H 0.24234 0.44928 0.4943 0.0
H403 H 0.24628 0.49801 0.48682 0.0
H404 H 0.25912 0.48143 0.51424 0.0
H405 H 0.11404 0.51701 0.50286 0.0
H406 H 0.13767 0.5273 0.47894 0.0
H407 H 0.12563 0.47987 0.48385 0.0
H408 H 0.19571 0.53032 0.42105 0.0
H409 H 0.17322 0.41453 0.43409 0.0
H410 H 0.21813 0.55325 0.47854 0.0
H411 H 0.18138 0.56677 0.4722 0.0
H412 H 0.20931 0.57226 0.45074 0.0
H413 H 0.19446 0.41308 0.49259 0.0
H414 H 0.17426 0.38823 0.47079 0.0
H415 H 0.15595 0.42067 0.48971 0.0
C416 C 0.78681 0.5051 0.93138 0.0
C417 C 0.79002 0.46634 0.92719 0.0
C418 C 0.78464 0.51872 0.95386 0.0
C419 C 0.78542 0.49276 0.97221 0.0
C420 C 0.78527 0.45342 0.96776 0.0
C421 C 0.78789 0.4407 0.94524 0.0
C422 C 0.78438 0.56081 0.95792 0.0
C423 C 0.78531 0.42469 -0.01315 0.0
C424 C 0.8285 0.50463 0.02597 0.0
C425 C 0.80618 0.50444 0.0423 0.0
C426 C 0.82193 0.50558 0.00267 0.0
C427 C 0.79228 0.50557 -0.00431 0.0
C428 C 0.76981 0.50972 0.01212 0.0
C429 C 0.77708 0.50929 0.03542 0.0
C430 C 0.84665 0.50226 -0.01437 0.0
C431 C 0.73802 0.51053 0.0053 0.0
H432 H 0.78823 0.52494 0.91731 0.0
H433 H 0.78981 0.41067 0.94185 0.0
H434 H 0.7711 0.56828 0.97314 0.0
H435 H 0.80707 0.57063 0.96105 0.0
H436 H 0.77574 0.57623 0.94283 0.0
H437 H 0.78127 0.39559 0.98046 0.0
H438 H 0.80684 0.42509 -0.0044 0.0
H439 H 0.76837 0.43168 -0.00024 0.0
H440 H 0.85106 0.50168 0.0314 0.0
H441 H 0.75981 0.50948 0.04813 0.0
H442 H 0.8433 0.52191 0.97111 0.0
H443 H 0.84721 0.47312 0.97862 0.0
H444 H 0.86821 0.50837 -0.00645 0.0
H445 H 0.73483 0.52602 -0.01099 0.0
H446 H 0.7243 0.52381 0.01878 0.0
H447 H 0.73021 0.48116 0.00271 0.0
C448 C 0.21267 0.48584 0.03979 0.0
C449 C 0.18347 0.49312 0.04557 0.0
C450 C 0.22116 0.48333 0.01677 0.0
C451 C 0.19981 0.48791 -0.0005 0.0
C452 C 0.16986 0.49051 0.00547 0.0
C453 C 0.16209 0.49343 0.0285 0.0
C454 C 0.2532 0.47977 0.01106 0.0
C455 C 0.14628 0.49444 -0.01246 0.0
C456 C 0.21006 0.54852 0.94775 0.0
C457 C 0.20774 0.52179 0.93025 0.0
C458 C 0.21075 0.53731 0.97062 0.0
C459 C 0.20851 0.49842 0.97599 0.0
C460 C 0.20909 0.47111 0.95831 0.0
C461 C 0.20884 0.48319 0.93546 0.0
C462 C 0.21093 0.56739 -0.01101 0.0
C463 C 0.20715 0.42942 0.96337 0.0
H464 H 0.22921 0.48523 0.05306 0.0
H465 H 0.1394 0.49824 0.03308 0.0
H466 H 0.25656 0.46275 -0.00466 0.0
H467 H 0.26239 0.50831 0.00794 0.0
H468 H 0.26562 0.4667 0.02534 0.0
H469 H 0.12406 0.49055 -0.00515 0.0
H470 H 0.14744 0.52304 0.97984 0.0
H471 H 0.14948 0.47355 0.97362 0.0
H472 H 0.20973 0.57836 0.94359 0.0
H473 H 0.2072 0.46251 0.92183 0.0
H474 H 0.22677 0.56015 0.00265 0.0
H475 H 0.18893 0.56919 -0.00306 0.0
H476 H 0.21661 0.59565 0.98206 0.0
H477 H 0.21929 0.42209 0.97918 0.0
H478 H 0.2158 0.41226 0.94896 0.0
H479 H 0.1839 0.4216 0.96601 0.0
C480 C 0.56253 0.97473 0.33537 0.0
C481 C 0.57793 -0.0007 0.34986 0.0
C482 C 0.53189 0.97718 0.33327 0.0
C483 C 0.51627 0.00428 0.34633 0.0
C484 C 0.53177 0.02938 0.36075 0.0
C485 C 0.56231 0.02679 0.36217 0.0
C486 C 0.51618 0.95034 0.31742 0.0
C487 C 0.51603 0.05816 0.37535 0.0
C488 C 0.43695 0.03152 0.33431 0.0
C489 C 0.42195 0.00894 0.35014 0.0
C490 C 0.46761 0.02929 0.33218 0.0
C491 C 0.48362 0.00455 0.34656 0.0
C492 C 0.46851 0.98165 0.36246 0.0
C493 C 0.43797 0.98388 0.3639 0.0
C494 C 0.48291 0.05366 0.31474 0.0
C495 C 0.48467 0.95553 0.3785 0.0
H496 H 0.57441 0.95364 0.32564 0.0
H497 H 0.57391 0.04585 0.3735 0.0
H498 H 0.5024 0.93072 0.32754 0.0
H499 H 0.5014 0.96624 0.30587 0.0
H500 H 0.53158 0.9334 0.30688 0.0
H501 H 0.53136 0.07657 0.385 0.0
H502 H 0.50187 0.07627 0.36456 0.0
H503 H 0.50163 0.04349 0.38777 0.0
H504 H 0.42473 0.05071 0.3235 0.0
H505 H 0.42666 0.96645 0.37629 0.0
H506 H 0.4973 0.03604 0.30379 0.0
H507 H 0.49704 0.07457 0.32355 0.0
H508 H 0.46725 0.06911 0.30365 0.0
H509 H 0.4985 0.9356 0.36862 0.0
H510 H 0.46962 0.93893 0.38951 0.0
H511 H 0.49943 0.97221 0.38968 0.0
C512 C 0.4311 0.01433 0.13976 0.0
C513 C 0.41875 0.98788 0.12476 0.0
C514 C 0.46156 0.01794 0.14181 0.0
C515 C 0.48003 0.99568 0.12777 0.0
C516 C 0.46758 0.96858 0.11278 0.0
C517 C 0.43705 0.96452 0.11178 0.0
C518 C 0.47395 0.04604 0.15865 0.0
C519 C 0.48644 0.94507 0.09705 0.0
C520 C 0.55541 0.034 0.11308 0.0
C521 C 0.57357 0.00986 0.12561 0.0
C522 C 0.52487 0.02986 0.11375 0.0
C523 C 0.51226 0.00184 0.12797 0.0
C524 C 0.53056 0.97876 0.1416 0.0
C525 C 0.56105 0.98251 0.13987 0.0
C526 C 0.50621 0.0543 0.09845 0.0
C527 C 0.51797 0.94963 0.15765 0.0
H528 H 0.41686 0.03231 0.14985 0.0
H529 H 0.42743 0.94441 0.09997 0.0
H530 H 0.49082 0.03235 0.16947 0.0
H531 H 0.48476 0.06945 0.14932 0.0
H532 H 0.45681 0.05822 0.16993 0.0
H533 H 0.47337 0.92518 0.08648 0.0
H534 H 0.49899 0.96387 0.08547 0.0
H535 H 0.50253 0.92858 0.10711 0.0
H536 H 0.56516 0.05479 0.10181 0.0
H537 H 0.57516 0.9639 0.14961 0.0
H538 H 0.48996 0.07013 0.10877 0.0
H539 H 0.49385 0.03621 0.08632 0.0
H540 H 0.5194 0.07485 0.08848 0.0
H541 H 0.50091 0.9626 0.16864 0.0
H542 H 0.53496 0.93681 0.16878 0.0
H543 H 0.50735 0.92678 0.14767 0.0
C544 C 0.56433 0.97188 0.63822 0.0
C545 C 0.57909 0.99707 0.6238 0.0
C546 C 0.53374 0.97338 0.6405 0.0
C547 C 0.51757 -0.00016 0.62745 0.0
C548 C 0.53247 0.02553 0.61303 0.0
C549 C 0.56304 0.02418 0.61165 0.0
C550 C 0.51869 0.94626 0.65653 0.0
C551 C 0.51605 0.05344 0.59831 0.0
C552 C 0.43979 0.97531 0.61072 0.0
C553 C 0.42345 0.00039 0.62421 0.0
C554 C 0.47038 0.97462 0.61183 0.0
C555 C 0.48503 -0.00117 0.62732 0.0
C556 C 0.46862 0.02336 0.64157 0.0
C557 C 0.43797 0.02433 0.63956 0.0
C558 C 0.48703 0.94886 0.59584 0.0
C559 C 0.48345 0.04879 0.65875 0.0
H560 H 0.57672 0.95113 0.6478 0.0
H561 H 0.57435 0.04355 0.60035 0.0
H562 H 0.50342 0.96176 0.66793 0.0
H563 H 0.50552 0.92574 0.64655 0.0
H564 H 0.53449 0.93031 0.66723 0.0
H565 H 0.53095 0.07212 0.58847 0.0
H566 H 0.50187 0.03799 0.58607 0.0
H567 H 0.50161 0.07131 0.60904 0.0
H568 H 0.42866 0.95699 0.59867 0.0
H569 H 0.42535 0.04354 0.65012 0.0
H570 H 0.50123 0.92948 0.60574 0.0
H571 H 0.50148 0.9659 0.58462 0.0
H572 H 0.47231 0.93168 0.58488 0.0
H573 H 0.4985 0.03207 0.66966 0.0
H574 H 0.46751 0.06367 0.66991 0.0
H575 H 0.49684 0.07021 0.64972 0.0
C576 C 0.55542 0.02972 0.84261 0.0
C577 C 0.57063 0.00655 0.85799 0.0
C578 C 0.52474 0.02817 0.84105 0.0
C579 C 0.50892 0.00343 0.85553 0.0
C580 C 0.52418 0.98014 0.87113 0.0
C581 C 0.55479 0.98175 0.87203 0.0
C582 C 0.50923 0.05303 0.82397 0.0
C583 C 0.50816 0.95394 0.8872 0.0
C584 C 0.42985 0.0256 0.87003 0.0
C585 C 0.41463 -0.00129 0.85697 0.0
C586 C 0.46045 0.02775 0.86945 0.0
C587 C 0.47634 0.00284 0.85516 0.0
C588 C 0.46114 0.97616 0.84153 0.0
C589 C 0.43046 0.97416 0.84277 0.0
C590 C 0.47581 0.05608 0.8846 0.0
C591 C 0.47732 0.94951 0.82582 0.0
H592 H 0.56752 0.04874 0.83161 0.0
H593 H 0.56632 0.96391 0.88408 0.0
H594 H 0.49521 0.03556 0.81265 0.0
H595 H 0.4947 0.07316 0.83305 0.0
H596 H 0.52474 0.06937 0.81321 0.0
H597 H 0.52329 0.93751 0.89823 0.0
H598 H 0.49325 0.97049 0.89835 0.0
H599 H 0.49448 0.93385 0.87732 0.0
H600 H 0.41784 0.04457 0.88116 0.0
H601 H 0.41886 0.95351 0.83251 0.0
H602 H 0.49003 0.07469 0.87417 0.0
H603 H 0.49012 0.04108 0.89693 0.0
H604 H 0.46023 0.07399 0.89436 0.0
H605 H 0.49194 0.96566 0.81428 0.0
H606 H 0.46224 0.93213 0.81527 0.0
H607 H 0.49132 0.9303 0.83604 0.0
C608 C 0.9294 0.52395 0.33454 0.0
C609 C 0.91428 0.4992 0.34906 0.0
C610 C 0.9601 0.52247 0.3327 0.0
C611 C 0.97608 0.49622 0.34608 0.0
C612 C 0.96087 0.471 0.36058 0.0
C613 C 0.93026 0.47258 0.36173 0.0
C614 C 0.97549 0.54939 0.31674 0.0
C615 C 0.97698 0.44314 0.37553 0.0
C616 C 0.05591 0.47103 0.33443 0.0
C617 C 0.07047 0.49445 0.3501 0.0
C618 C 0.02522 0.47227 0.33226 0.0
C619 C 0.00872 0.49688 0.34642 0.0
C620 C 0.02338 0.52064 0.36215 0.0
C621 C 0.05396 0.51938 0.36364 0.0
C622 C 0.01042 0.44697 0.315 0.0
C623 C 0.00671 0.54671 0.37795 0.0
H624 H 0.91724 0.54438 0.32455 0.0
H625 H 0.91886 0.45342 0.3731 0.0
H626 H 0.9889 0.56957 0.32677 0.0
H627 H 0.99058 0.53362 0.30533 0.0
H628 H 0.9599 0.5657 0.30605 0.0
H629 H 0.96189 0.42461 0.3853 0.0
H630 H 0.99151 0.4251 0.36497 0.0
H631 H 0.99105 0.45859 0.38786 0.0
H632 H 0.06848 0.45191 0.32379 0.0
H633 H 0.06493 0.53747 0.3759 0.0
H634 H 0.99577 0.46387 0.30387 0.0
H635 H 0.99662 0.42591 0.32396 0.0
H636 H 0.02639 0.43167 0.30407 0.0
H637 H 0.99259 0.56598 0.36789 0.0
H638 H 0.02142 0.56402 0.38886 0.0
H639 H 0.99218 0.5299 0.38923 0.0
C640 C 0.05765 0.48341 0.1395 0.0
C641 C 0.0711 0.50924 0.12473 0.0
C642 C 0.02706 0.48121 0.14109 0.0
C643 C 0.00958 0.50431 0.12683 0.0
C644 C 0.02313 0.53075 0.11204 0.0
C645 C 0.05377 0.53338 0.11149 0.0
C646 C 0.01348 0.45374 0.15771 0.0
C647 C 0.00533 0.55511 0.09608 0.0
C648 C 0.93345 0.46952 0.11128 0.0
C649 C 0.91574 0.49441 0.12372 0.0
C650 C 0.96407 0.47232 0.11222 0.0
C651 C 0.97719 0.49976 0.12661 0.0
C652 C 0.9593 0.5237 0.14008 0.0
C653 C 0.92876 0.52126 0.1381 0.0
C654 C 0.98231 0.44701 0.09708 0.0
C655 C 0.97241 0.55227 0.15629 0.0
H656 H 0.07112 0.46484 0.14981 0.0
H657 H 0.06421 0.55302 0.09986 0.0
H658 H -0.00316 0.46828 0.16837 0.0
H659 H 0.00214 0.43093 0.1482 0.0
H660 H 0.03 0.44066 0.16916 0.0
H661 H 0.0192 0.57431 0.0857 0.0
H662 H 0.99249 0.53689 0.08432 0.0
H663 H 0.98951 0.57239 0.10594 0.0
H664 H 0.92335 0.44907 0.09995 0.0
H665 H 0.91499 0.54042 0.14778 0.0
H666 H -0.00218 0.43032 0.10756 0.0
H667 H 0.9955 0.46449 0.08518 0.0
H668 H 0.96873 0.42719 0.08686 0.0
H669 H 0.98873 0.53845 0.16756 0.0
H670 H 0.95558 0.56611 0.16714 0.0
H671 H 0.98405 0.57442 0.14646 0.0
C672 C 0.92776 0.46667 0.60346 0.0
C673 C 0.91389 0.49662 0.61484 0.0
C674 C 0.95823 0.46231 0.60429 0.0
C675 C 0.97516 0.48789 0.61737 0.0
C676 C 0.96116 0.51746 0.62952 0.0
C677 C 0.9307 0.52184 0.62781 0.0
C678 C 0.97237 0.43115 0.59051 0.0
C679 C 0.9784 0.54475 0.64409 0.0
C680 C 0.05335 0.45913 0.6317 0.0
C681 C 0.06925 0.48083 0.61602 0.0
C682 C 0.02265 0.46154 0.63265 0.0
C683 C 0.00765 0.48526 0.61704 0.0
C684 C 0.02368 0.50645 0.60082 0.0
C685 C 0.05426 0.5044 0.60075 0.0
C686 C 0.00632 0.43925 0.65054 0.0
C687 C 0.00854 0.53116 0.58342 0.0
H688 H 0.91483 0.44726 0.59327 0.0
H689 H 0.91999 0.5448 0.6368 0.0
H690 H 0.98709 0.4436 0.57745 0.0
H691 H 0.98598 0.41307 0.60173 0.0
H692 H 0.95603 0.41305 0.58169 0.0
H693 H 0.96403 0.56402 0.65403 0.0
H694 H 0.99262 0.52904 0.65616 0.0
H695 H 0.99287 0.56208 0.63307 0.0
H696 H 0.06495 0.44109 0.6436 0.0
H697 H 0.06652 0.52091 0.58843 0.0
H698 H 0.99084 0.41943 0.64221 0.0
H699 H 0.99319 0.45866 0.66135 0.0
H700 H 0.02124 0.42281 0.66173 0.0
H701 H 0.9927 0.51415 0.57337 0.0
H702 H 0.02418 0.54463 0.57139 0.0
H703 H 0.99599 0.5537 0.59221 0.0
C704 C 0.06097 0.52842 0.85695 0.0
C705 C 0.07795 0.50636 0.87177 0.0
C706 C 0.03033 0.52489 0.85654 0.0
C707 C 0.01638 0.49927 0.87162 0.0
C708 C 0.03341 0.47765 0.88699 0.0
C709 C 0.06394 0.4812 0.88672 0.0
C710 C 0.01293 0.54806 0.8397 0.0
C711 C 0.01937 0.45062 0.90367 0.0
C712 C 0.93581 0.5135 0.88507 0.0
C713 C 0.92259 0.4854 0.87163 0.0
C714 C 0.96627 0.51829 0.88525 0.0
C715 C 0.98398 0.49485 0.87135 0.0
C716 C 0.97079 0.46655 0.85765 0.0
C717 C 0.94027 0.46192 0.85812 0.0
C718 C 0.97952 0.54825 0.90046 0.0
C719 C 0.98891 0.44131 0.84238 0.0
H720 H 0.07166 0.54773 0.84527 0.0
H721 H 0.0769 0.46429 0.89838 0.0
H722 H 0.0004 0.52907 0.8282 0.0
H723 H -0.00316 0.56591 0.84892 0.0
H724 H 0.02705 0.56661 0.82909 0.0
H725 H 0.03565 0.43683 0.91503 0.0
H726 H 0.00324 0.46584 0.91446 0.0
H727 H 0.00731 0.42834 0.89423 0.0
H728 H 0.92231 0.53164 0.89565 0.0
H729 H 0.93022 0.44037 0.84755 0.0
H730 H 0.99213 0.56868 0.89001 0.0
H731 H 0.99504 0.53507 0.91265 0.0
H732 H 0.96272 0.564 0.91034 0.0
H733 H 0.00208 0.45873 0.83045 0.0
H734 H 0.97526 0.42149 0.83223 0.0
H735 H 0.00445 0.42461 0.85286 0.0
C736 C 0.23732 0.33531 0.35279 0.0
C737 C 0.21242 0.34352 0.33972 0.0
C738 C 0.25097 0.29992 0.35146 0.0
C739 C 0.24007 0.27237 0.33611 0.0
C740 C 0.21559 0.28101 0.32218 0.0
C741 C 0.2017 0.31631 0.32446 0.0
C742 C 0.27638 0.29156 0.36717 0.0
C743 C 0.20389 0.25281 0.30511 0.0
C744 C 0.29219 0.19039 0.32494 0.0
C745 C 0.28072 0.16258 0.33942 0.0
C746 C 0.27835 0.22573 0.32276 0.0
C747 C 0.25311 0.23377 0.33599 0.0
C748 C 0.24142 0.2056 0.35051 0.0
C749 C 0.25509 0.17022 0.35175 0.0
C750 C 0.29094 0.25463 0.30657 0.0
C751 C 0.21514 0.21329 0.36547 0.0
H752 H 0.24556 0.35619 0.36474 0.0
H753 H 0.18259 0.32272 0.3142 0.0
H754 H 0.27074 0.2676 0.37857 0.0
H755 H 0.2958 0.28299 0.35706 0.0
H756 H 0.2824 0.31623 0.37794 0.0
H757 H 0.18673 0.2652 0.29397 0.0
H758 H 0.2219 0.24203 0.29418 0.0
H759 H 0.19444 0.22824 0.31424 0.0
H760 H 0.31187 0.18444 0.31525 0.0
H761 H 0.24625 0.14888 0.3631 0.0
H762 H 0.29994 0.27876 0.31642 0.0
H763 H 0.27352 0.26593 0.29528 0.0
H764 H 0.30866 0.24268 0.29576 0.0
H765 H 0.22013 0.2367 0.37749 0.0
H766 H 0.20851 0.18814 0.37556 0.0
H767 H 0.19631 0.22236 0.35487 0.0
C768 C 0.70223 0.81315 0.32729 0.0
C769 C 0.7141 0.84008 0.34221 0.0
C770 C 0.71491 0.77707 0.32519 0.0
C771 C 0.73931 0.76741 0.33895 0.0
C772 C 0.75128 0.79461 0.35404 0.0
C773 C 0.73883 0.83075 0.3552 0.0
C774 C 0.70208 0.74921 0.30841 0.0
C775 C 0.77664 0.78518 0.36956 0.0
C776 C 0.75177 0.6645 0.35423 0.0
C777 C 0.77679 0.6557 0.34144 0.0
C778 C 0.73919 0.70059 0.35335 0.0
C779 C 0.75135 0.72828 0.33873 0.0
C780 C 0.77602 0.71914 0.32512 0.0
C781 C 0.7888 0.68309 0.32694 0.0
C782 C 0.71351 0.70944 0.36871 0.0
C783 C 0.78907 0.74754 0.30882 0.0
H784 H 0.68326 0.82043 0.31711 0.0
H785 H 0.74793 0.85143 0.36689 0.0
H786 H 0.71952 0.73775 0.29718 0.0
H787 H 0.69239 0.72503 0.31776 0.0
H788 H 0.68485 0.76215 0.29755 0.0
H789 H 0.78343 0.8096 0.38027 0.0
H790 H 0.77055 0.76148 0.38102 0.0
H791 H 0.7957 0.77578 0.35931 0.0
H792 H 0.74254 0.64345 0.36559 0.0
H793 H 0.80801 0.67623 0.31689 0.0
H794 H 0.69467 0.71928 0.3584 0.0
H795 H 0.7194 0.73267 0.38062 0.0
H796 H 0.70651 0.68462 0.37894 0.0
H797 H 0.77178 0.75942 0.29763 0.0
H798 H 0.80642 0.73494 0.29791 0.0
H799 H 0.79867 0.77137 0.31859 0.0
C800 C 0.1981 0.68865 0.11554 0.0
C801 C 0.20773 0.65846 0.10198 0.0
C802 C 0.21305 0.72334 0.11553 0.0
C803 C 0.23768 0.72822 0.10111 0.0
C804 C 0.24685 0.69817 0.08681 0.0
C805 C 0.23204 0.66348 0.08768 0.0
C806 C 0.20296 0.75442 0.13138 0.0
C807 C 0.27243 0.70258 0.0707 0.0
C808 C 0.25941 0.82944 0.08777 0.0
C809 C 0.28358 0.83468 0.10218 0.0
C810 C 0.24476 0.79464 0.0868 0.0
C811 C 0.25396 0.76469 0.10111 0.0
C812 C 0.27848 0.76977 0.11562 0.0
C813 C 0.29327 0.80458 0.11574 0.0
C814 C 0.2193 0.79004 0.0706 0.0
C815 C 0.28858 0.73879 0.13148 0.0
H816 H 0.1795 0.6847 0.12678 0.0
H817 H 0.23945 0.64021 0.07709 0.0
H818 H 0.22096 0.76233 0.14318 0.0
H819 H 0.19725 0.77998 0.1214 0.0
H820 H 0.18365 0.74598 0.1417 0.0
H821 H 0.2758 0.67718 0.05984 0.0
H822 H 0.26896 0.72736 0.05942 0.0
H823 H 0.29271 0.70787 0.08059 0.0
H824 H 0.25197 0.85262 0.07716 0.0
H825 H 0.31178 0.80869 0.12704 0.0
H826 H 0.19895 0.78484 0.08043 0.0
H827 H 0.22286 0.76515 0.05938 0.0
H828 H 0.21598 0.81533 0.05968 0.0
H829 H 0.27058 0.73096 0.1433 0.0
H830 H 0.30789 0.7473 0.14179 0.0
H831 H 0.29428 0.71316 0.12152 0.0
C832 C 0.73148 0.17004 0.08868 0.0
C833 C 0.70764 0.16436 0.10337 0.0
C834 C 0.74571 0.2051 0.08759 0.0
C835 C 0.73639 0.23494 0.10199 0.0
C836 C 0.71224 0.22939 0.11681 0.0
C837 C 0.69789 0.19428 0.1171 0.0
C838 C 0.77082 0.21016 0.07109 0.0
C839 C 0.70202 0.26027 0.13276 0.0
C840 C 0.79132 0.31269 0.11537 0.0
C841 C 0.78101 0.34233 0.10172 0.0
C842 C 0.77689 0.27763 0.11574 0.0
C843 C 0.75207 0.27184 0.10165 0.0
C844 C 0.74216 0.30137 0.08732 0.0
C845 C 0.75651 0.33641 0.08776 0.0
C846 C 0.78779 0.24709 0.13159 0.0
C847 C 0.7163 0.29602 0.07159 0.0
H848 H 0.73897 0.147 0.07794 0.0
H849 H 0.67963 0.18986 0.12861 0.0
H850 H 0.7666 0.23469 0.05977 0.0
H851 H 0.79122 0.2162 0.08066 0.0
H852 H 0.77442 0.18475 0.06028 0.0
H853 H 0.6831 0.25134 0.14337 0.0
H854 H 0.72016 0.26873 0.14428 0.0
H855 H 0.69565 0.28562 0.12281 0.0
H856 H 0.81009 0.3173 0.12634 0.0
H857 H 0.74856 0.35924 0.0771 0.0
H858 H 0.79371 0.22152 0.12164 0.0
H859 H 0.77017 0.2389 0.14365 0.0
H860 H 0.80717 0.25621 0.14163 0.0
H861 H 0.71998 0.27124 0.06031 0.0
H862 H 0.71222 0.3212 0.06073 0.0
H863 H 0.69635 0.29021 0.08177 0.0
C864 C 0.73911 0.83382 0.61685 0.0
C865 C 0.71312 0.84072 0.60484 0.0
C866 C 0.75297 0.79855 0.61579 0.0
C867 C 0.74092 0.76968 0.60194 0.0
C868 C 0.71492 0.77665 0.58946 0.0
C869 C 0.70109 0.812 0.59129 0.0
C870 C 0.78021 0.79198 0.62984 0.0
C871 C 0.70174 0.74676 0.57418 0.0
C872 C 0.79168 0.68822 0.58659 0.0
C873 C 0.78237 0.66034 0.60193 0.0
C874 C 0.7779 0.72373 0.58597 0.0
C875 C 0.75486 0.7317 0.60147 0.0
C876 C 0.74569 0.70373 0.61716 0.0
C877 C 0.75931 0.66828 0.617 0.0
C878 C 0.78785 0.75262 0.56868 0.0
C879 C 0.72177 0.71139 0.63438 0.0
H880 H 0.74841 0.85591 0.62745 0.0
H881 H 0.68114 0.81738 0.58182 0.0
H882 H 0.77649 0.76844 0.64201 0.0
H883 H 0.79861 0.78361 0.61857 0.0
H884 H 0.78679 0.81744 0.6397 0.0
H885 H 0.68242 0.75733 0.56463 0.0
H886 H 0.71829 0.73662 0.56173 0.0
H887 H 0.69494 0.72209 0.58457 0.0
H888 H 0.80933 0.68201 0.5748 0.0
H889 H 0.75216 0.64685 0.62899 0.0
H890 H 0.7965 0.77793 0.5776 0.0
H891 H 0.76902 0.76198 0.55815 0.0
H892 H 0.80512 0.74143 0.55715 0.0
H893 H 0.72791 0.73576 0.64533 0.0
H894 H 0.71741 0.68668 0.64555 0.0
H895 H 0.70123 0.71903 0.62543 0.0
C896 C 0.23546 0.32606 0.59514 0.0
C897 C 0.2095 0.32953 0.60773 0.0
C898 C 0.25104 0.29196 0.59461 0.0
C899 C 0.24083 0.26086 0.60751 0.0
C900 C 0.21462 0.26421 0.62031 0.0
C901 C 0.19902 0.29842 0.62001 0.0
C902 C 0.27837 0.28921 0.5802 0.0
C903 C 0.20337 0.23187 0.63463 0.0
C904 C 0.26537 0.16169 0.59193 0.0
C905 C 0.28822 0.15564 0.60747 0.0
C906 C 0.25017 0.19608 0.59146 0.0
C907 C 0.25744 0.22471 0.60738 0.0
C908 C 0.28061 0.2188 0.62308 0.0
C909 C 0.29604 0.18446 0.62271 0.0
C910 C 0.22625 0.20169 0.57398 0.0
C911 C 0.28861 0.24839 0.64061 0.0
H912 H 0.24352 0.35005 0.5855 0.0
H913 H 0.17909 0.30118 0.62991 0.0
H914 H 0.29751 0.28305 0.59123 0.0
H915 H 0.27633 0.26554 0.56785 0.0
H916 H 0.28279 0.31561 0.57055 0.0
H917 H 0.18307 0.23934 0.64404 0.0
H918 H 0.19882 0.20705 0.62359 0.0
H919 H 0.22028 0.22323 0.64718 0.0
H920 H 0.2594 0.13946 0.58004 0.0
H921 H 0.31351 0.17964 0.63489 0.0
H922 H 0.23063 0.22747 0.56378 0.0
H923 H 0.20498 0.20588 0.58274 0.0
H924 H 0.22422 0.17727 0.56213 0.0
H925 H 0.295 0.27499 0.63196 0.0
H926 H 0.30689 0.23922 0.6518 0.0
H927 H 0.26934 0.25484 0.65147 0.0
C928 C 0.69914 0.18994 0.84961 0.0
C929 C 0.70814 0.15748 0.83782 0.0
C930 C 0.71544 0.22345 0.84845 0.0
C931 C 0.74098 0.22473 0.83474 0.0
C932 C 0.74911 0.19274 0.82167 0.0
C933 C 0.73279 0.15931 0.82359 0.0
C934 C 0.70622 0.25681 0.86287 0.0
C935 C 0.77569 0.19335 0.80637 0.0
C936 C 0.77062 0.32337 0.82423 0.0
C937 C 0.7924 0.32597 0.84105 0.0
C938 C 0.75469 0.28985 0.82111 0.0
C939 C 0.76021 0.2586 0.83554 0.0
C940 C 0.78293 0.26065 0.85196 0.0
C941 C 0.79899 0.29419 0.85433 0.0
C942 C 0.73123 0.2884 0.80298 0.0
C943 C 0.78925 0.22811 0.8679 0.0
H944 H 0.68019 0.1886 0.86072 0.0
H945 H 0.73971 0.13432 0.81432 0.0
H946 H 0.72326 0.26277 0.8759 0.0
H947 H 0.70404 0.28241 0.85211 0.0
H948 H 0.68512 0.25182 0.8718 0.0
H949 H 0.77696 0.16793 0.79525 0.0
H950 H 0.77549 0.21889 0.79539 0.0
H951 H 0.79577 0.19461 0.81698 0.0
H952 H 0.76558 0.34784 0.81382 0.0
H953 H 0.81567 0.29615 0.86744 0.0
H954 H 0.70939 0.28776 0.81123 0.0
H955 H 0.73335 0.26226 0.79262 0.0
H956 H 0.73214 0.31319 0.79137 0.0
H957 H 0.76992 0.22282 0.87891 0.0
H958 H 0.80844 0.23364 0.87906 0.0
H959 H 0.79339 0.20195 0.85797 0.0
C960 C 0.23028 0.66775 0.82831 0.0
C961 C 0.20798 0.66363 0.84458 0.0
C962 C 0.24458 0.70249 0.82536 0.0
C963 C 0.23687 0.73347 0.83945 0.0
C964 C 0.21373 0.72976 0.85539 0.0
C965 C 0.19933 0.69497 0.85758 0.0
C966 C 0.26857 0.70567 0.80773 0.0
C967 C 0.20511 0.76198 0.87096 0.0
C968 C 0.29354 0.80811 0.8537 0.0
C969 C 0.28317 0.83917 0.84131 0.0
C970 C 0.27909 0.77318 0.85276 0.0
C971 C 0.2541 0.76906 0.83866 0.0
C972 C 0.24458 0.79975 0.82509 0.0
C973 C 0.25901 0.83463 0.8268 0.0
C974 C 0.28969 0.74129 0.86776 0.0
C975 C 0.21854 0.79614 0.80937 0.0
H976 H 0.23689 0.64361 0.81812 0.0
H977 H 0.18221 0.69183 0.87026 0.0
H978 H 0.26518 0.73108 0.79696 0.0
H979 H 0.28997 0.70898 0.81642 0.0
H980 H 0.26966 0.68043 0.79646 0.0
H981 H 0.18601 0.7549 0.88187 0.0
H982 H 0.22378 0.76944 0.88221 0.0
H983 H 0.19973 0.78741 0.86074 0.0
H984 H 0.31211 0.81158 0.86503 0.0
H985 H 0.25106 0.85856 0.81706 0.0
H986 H 0.29371 0.71562 0.85733 0.0
H987 H 0.27258 0.73412 0.8805 0.0
H988 H 0.31011 0.74859 0.87704 0.0
H989 H 0.2206 0.77048 0.79858 0.0
H990 H 0.21605 0.82112 0.79806 0.0
H991 H 0.19831 0.79306 0.81966 0.0
C992 C 0.30152 0.946 0.28326 0.0
C993 C 0.2847 0.96817 0.29801 0.0
C994 C 0.29623 0.94655 0.25968 0.0
C995 C 0.27298 0.96885 0.25105 0.0
C996 C 0.25359 0.98708 0.26633 0.0
C997 C 0.26016 0.98735 0.28972 0.0
C998 C 0.31762 0.92701 0.24393 0.0
C999 C 0.22759 0.00921 0.25783 0.0
C1000 C 0.29279 0.01887 0.19634 0.0
C1001 C 0.28263 0.9933 0.17994 0.0
C1002 C 0.28865 0.01194 0.21964 0.0
C1003 C 0.27296 0.97936 0.22656 0.0
C1004 C 0.26027 0.95535 0.20996 0.0
C1005 C 0.26585 0.96214 0.18675 0.0
C1006 C 0.30298 0.03799 0.23681 0.0
C1007 C 0.24217 0.92147 0.21661 0.0
H1008 H 0.3206 0.93141 0.28984 0.0
H1009 H 0.24708 0.00427 0.30133 0.0
H1010 H 0.30588 0.91021 0.23084 0.0
H1011 H 0.33085 0.94855 0.23482 0.0
H1012 H 0.33272 0.90801 0.25336 0.0
H1013 H 0.21116 0.01354 0.27159 0.0
H1014 H 0.23491 0.03736 0.25181 0.0
H1015 H 0.21699 0.99459 0.24322 0.0
H1016 H 0.30589 0.04284 0.19103 0.0
H1017 H 0.25777 0.94255 0.17396 0.0
H1018 H 0.31929 0.02203 0.24701 0.0
H1019 H 0.28646 0.04932 0.24888 0.0
H1020 H 0.31423 0.06218 0.22853 0.0
H1021 H 0.25684 0.89733 0.22039 0.0
H1022 H 0.22728 0.91283 0.20254 0.0
H1023 H 0.22897 0.92727 0.23215 0.0
C1024 C 0.73132 0.03285 0.18488 0.0
C1025 C 0.71285 0.00293 0.17874 0.0
C1026 C 0.73824 0.03962 0.20787 0.0
C1027 C 0.72514 0.01701 0.22495 0.0
C1028 C 0.70777 0.98549 0.21867 0.0
C1029 C 0.70233 0.97841 0.19554 0.0
C1030 C 0.75813 0.07218 0.21381 0.0
C1031 C 0.69295 0.96098 0.23638 0.0
C1032 C 0.73918 0.01047 0.28799 0.0
C1033 C 0.71576 0.03183 0.29639 0.0
C1034 C 0.74514 0.00932 0.26451 0.0
C1035 C 0.72623 0.02839 0.24929 0.0
C1036 C 0.70427 0.05279 0.25796 0.0
C1037 C 0.69964 0.05471 0.28159 0.0
C1038 C 0.7699 0.98496 0.25593 0.0
C1039 C 0.6834 0.07331 0.24228 0.0
H1040 H 0.73968 0.05158 0.17175 0.0
H1041 H 0.68793 0.95541 0.19072 0.0
H1042 H 0.74478 0.09763 0.21747 0.0
H1043 H 0.77144 0.06591 0.22921 0.0
H1044 H 0.77303 0.07902 0.19939 0.0
H1045 H 0.68045 0.93737 0.22856 0.0
H1046 H 0.70936 0.94888 0.24823 0.0
H1047 H 0.67766 0.97836 0.24673 0.0
H1048 H 0.75176 0.99306 0.29963 0.0
H1049 H 0.68145 0.07102 0.28825 0.0
H1050 H 0.78066 -0.00192 0.24089 0.0
H1051 H 0.76123 0.95709 0.25052 0.0
H1052 H 0.78654 0.98014 0.26946 0.0
H1053 H 0.69557 0.08894 0.22892 0.0
H1054 H 0.66926 0.09356 0.2517 0.0
H1055 H 0.66916 0.05246 0.23349 0.0
C1056 C 0.68254 0.94978 0.78276 0.0
C1057 C 0.70205 0.96483 0.79868 0.0
C1058 C 0.68834 0.95262 0.75932 0.0
C1059 C 0.71461 0.97007 0.75196 0.0
C1060 C 0.73574 0.98157 0.76818 0.0
C1061 C 0.72888 0.97956 0.79148 0.0
C1062 C 0.66507 0.94046 0.74252 0.0
C1063 C 0.76447 -0.00118 0.76098 0.0
C1064 C 0.72461 0.96308 0.68809 0.0
C1065 C 0.71178 0.99706 0.68095 0.0
C1066 C 0.72806 0.95506 0.71137 0.0
C1067 C 0.71765 0.98123 0.72771 0.0
C1068 C 0.70666 0.01675 0.72055 0.0
C1069 C 0.70421 0.02444 0.69715 0.0
C1070 C 0.74099 0.9176 0.71841 0.0
C1071 C 0.69521 0.04538 0.73752 0.0
H1072 H 0.66161 0.93897 0.78854 0.0
H1073 H 0.7438 0.99136 0.80401 0.0
H1074 H 0.65569 0.96576 0.73406 0.0
H1075 H 0.67463 0.92235 0.72897 0.0
H1076 H 0.64704 0.92471 0.75094 0.0
H1077 H 0.78077 -0.00197 0.77505 0.0
H1078 H 0.77361 0.98392 0.74588 0.0
H1079 H 0.76096 0.02875 0.75613 0.0
H1080 H 0.73084 0.94207 0.67548 0.0
H1081 H 0.69427 0.05067 0.6916 0.0
H1082 H 0.72321 0.8982 0.72371 0.0
H1083 H 0.75589 0.92115 0.73323 0.0
H1084 H 0.75324 0.90409 0.70417 0.0
H1085 H 0.67567 0.03376 0.74631 0.0
H1086 H 0.689 0.07243 0.72921 0.0
H1087 H 0.71186 0.05137 0.7508 0.0
C1088 C 0.25842 0.00479 0.78835 0.0
C1089 C 0.28168 0.02686 0.79635 0.0
C1090 C 0.25319 0.00103 0.76488 0.0
C1091 C 0.27253 0.01846 0.74927 0.0
C1092 C 0.29461 0.04322 0.75738 0.0
C1093 C 0.29863 0.04757 0.78098 0.0
C1094 C 0.22857 0.97591 0.75687 0.0
C1095 C 0.31593 0.06197 0.74126 0.0
C1096 C 0.29493 0.96724 0.69543 0.0
C1097 C 0.28388 0.99149 0.6787 0.0
C1098 C 0.29005 0.97466 0.71864 0.0
C1099 C 0.27294 0.00636 0.72503 0.0
C1100 C 0.25926 0.02858 0.70807 0.0
C1101 C 0.26538 0.0213 0.68501 0.0
C1102 C 0.30529 0.95048 0.73627 0.0
C1103 C 0.23978 0.06147 0.71423 0.0
H1104 H 0.24533 0.98886 0.80043 0.0
H1105 H 0.31679 0.06426 0.78733 0.0
H1106 H 0.21783 0.98785 0.74147 0.0
H1107 H 0.23741 0.94777 0.75219 0.0
H1108 H 0.21186 0.9719 0.77044 0.0
H1109 H 0.33021 0.08268 0.75016 0.0
H1110 H 0.32999 0.04013 0.7332 0.0
H1111 H 0.30412 0.07674 0.72734 0.0
H1112 H 0.30939 0.94437 0.69048 0.0
H1113 H 0.25667 0.03988 0.67194 0.0
H1114 H 0.28935 0.93975 0.74898 0.0
H1115 H 0.32159 0.96778 0.74566 0.0
H1116 H 0.31674 0.92597 0.72846 0.0
H1117 H 0.22542 0.05432 0.72889 0.0
H1118 H 0.22594 0.07026 0.69956 0.0
H1119 H 0.25345 0.08593 0.71936 0.0
C1120 C 0.78682 0.52485 0.19476 0.0
C1121 C 0.77662 0.50091 0.17751 0.0
C1122 C 0.78178 0.51628 0.21776 0.0
C1123 C 0.7652 0.48377 0.22343 0.0
C1124 C 0.75229 0.46177 0.20596 0.0
C1125 C 0.75872 0.47014 0.18309 0.0
C1126 C 0.79629 0.54027 0.23591 0.0
C1127 C 0.73324 0.42813 0.21129 0.0
C1128 C 0.79286 0.44369 0.27873 0.0
C1129 C 0.77645 0.4649 0.29426 0.0
C1130 C 0.78764 0.44681 0.25523 0.0
C1131 C 0.76488 0.47076 0.24745 0.0
C1132 C 0.74578 0.48798 0.26335 0.0
C1133 C 0.75227 0.48562 0.2867 0.0
C1134 C 0.80867 0.42819 0.23879 0.0
C1135 C 0.72025 0.5118 0.25569 0.0
H1136 H 0.80075 0.54853 0.19037 0.0
H1137 H 0.75058 0.45187 0.16962 0.0
H1138 H 0.77983 0.55076 0.24829 0.0
H1139 H 0.8123 0.52294 0.24557 0.0
H1140 H 0.80795 0.56496 0.22856 0.0
H1141 H 0.71832 0.42152 0.19684 0.0
H1142 H 0.74722 0.40303 0.21429 0.0
H1143 H 0.71999 0.43299 0.22693 0.0
H1144 H 0.81164 0.42786 0.28477 0.0
H1145 H 0.73949 0.50175 0.29892 0.0
H1146 H 0.82229 0.45015 0.23044 0.0
H1147 H 0.79662 0.41304 0.22515 0.0
H1148 H 0.82341 0.40785 0.24751 0.0
H1149 H 0.72811 0.54038 0.25095 0.0
H1150 H 0.70376 0.51498 0.26951 0.0
H1151 H 0.70955 0.49927 0.24043 0.0
C1152 C 0.19178 0.55948 0.28349 0.0
C1153 C 0.20854 0.5377 0.29845 0.0
C1154 C 0.19692 0.55787 0.2599 0.0
C1155 C 0.2199 0.53484 0.2515 0.0
C1156 C 0.23944 0.51738 0.26693 0.0
C1157 C 0.23308 0.51822 0.29034 0.0
C1158 C 0.1755 0.57684 0.24398 0.0
C1159 C 0.26522 0.49458 0.25862 0.0
C1160 C 0.19817 0.48075 0.19862 0.0
C1161 C 0.20812 0.5048 0.18136 0.0
C1162 C 0.20303 0.48951 0.22162 0.0
C1163 C 0.21918 0.52238 0.22734 0.0
C1164 C 0.23164 0.54478 0.20988 0.0
C1165 C 0.22539 0.53617 0.187 0.0
C1166 C 0.18901 0.46504 0.23974 0.0
C1167 C 0.25019 0.57891 0.21524 0.0
H1168 H 0.17275 0.57438 0.28993 0.0
H1169 H 0.24615 0.50166 0.30212 0.0
H1170 H 0.1872 0.59249 0.23038 0.0
H1171 H 0.16179 0.55503 0.23553 0.0
H1172 H 0.16085 0.5968 0.25316 0.0
H1173 H 0.28189 0.49107 0.27227 0.0
H1174 H 0.25771 0.46609 0.25333 0.0
H1175 H 0.27558 0.50817 0.24357 0.0
H1176 H 0.18472 0.4566 0.19421 0.0
H1177 H 0.23335 0.55455 0.17354 0.0
H1178 H 0.17317 0.48203 0.24982 0.0
H1179 H 0.20581 0.45438 0.25177 0.0
H1180 H 0.17728 0.44043 0.23233 0.0
H1181 H 0.23584 0.60376 0.21797 0.0
H1182 H 0.26522 0.58557 0.20087 0.0
H1183 H 0.2633 0.57462 0.23099 0.0
C1184 C 0.224 0.49389 0.79154 0.0
C1185 C 0.2013 0.473 0.80139 0.0
C1186 C 0.22774 0.49468 0.7678 0.0
C1187 C 0.20751 0.47532 0.75377 0.0
C1188 C 0.18564 0.45227 0.76377 0.0
C1189 C 0.18307 0.45096 0.78764 0.0
C1190 C 0.252 0.51834 0.75775 0.0
C1191 C 0.16334 0.43174 0.74932 0.0
C1192 C 0.18694 0.519 0.69707 0.0
C1193 C 0.19892 0.49296 0.68171 0.0
C1194 C 0.19027 0.51405 0.72068 0.0
C1195 C 0.20672 0.48299 0.72891 0.0
C1196 C 0.22065 0.45823 0.71337 0.0
C1197 C 0.21615 0.46315 0.68988 0.0
C1198 C 0.17472 0.54076 0.73678 0.0
C1199 C 0.23924 0.42571 0.72156 0.0
H1200 H 0.23808 0.51085 0.80238 0.0
H1201 H 0.16535 0.43521 0.79543 0.0
H1202 H 0.26275 0.50326 0.74338 0.0
H1203 H 0.24278 0.54497 0.75087 0.0
H1204 H 0.2688 0.52566 0.77074 0.0
H1205 H 0.14936 0.41262 0.75966 0.0
H1206 H 0.14907 0.45266 0.74065 0.0
H1207 H 0.17429 0.4149 0.73581 0.0
H1208 H 0.17341 0.54182 0.69071 0.0
H1209 H 0.22555 0.44315 0.67788 0.0
H1210 H 0.19051 0.55353 0.74892 0.0
H1211 H 0.15841 0.5249 0.74704 0.0
H1212 H 0.16326 0.56385 0.72758 0.0
H1213 H 0.25474 0.43534 0.73495 0.0
H1214 H 0.25186 0.41257 0.70739 0.0
H1215 H 0.22509 0.40376 0.72932 0.0
C1216 C 0.80369 0.54421 0.68992 0.0
C1217 C 0.7925 0.51133 0.67971 0.0
C1218 C 0.80356 0.54874 0.71365 0.0
C1219 C 0.79143 0.52001 0.72743 0.0
C1220 C 0.7778 0.48832 0.71718 0.0
C1221 C 0.77878 0.48411 0.69335 0.0
C1222 C 0.81874 0.58262 0.72397 0.0
C1223 C 0.76399 0.45761 0.73143 0.0
C1224 C 0.82777 0.49892 0.78377 0.0
C1225 C 0.80868 0.51608 0.79928 0.0
C1226 C 0.82273 0.50105 0.76029 0.0
C1227 C 0.79747 0.51991 0.75225 0.0
C1228 C 0.77832 0.53796 0.76785 0.0
C1229 C 0.78441 0.53623 0.79135 0.0
C1230 C 0.84416 0.48242 0.74413 0.0
C1231 C 0.75093 0.55763 0.7598 0.0
H1232 H 0.81417 0.56556 0.67948 0.0
H1233 H 0.76968 0.45897 0.6855 0.0
H1234 H 0.80545 0.59509 0.73793 0.0
H1235 H 0.83987 0.57357 0.73152 0.0
H1236 H 0.82323 0.60484 0.71104 0.0
H1237 H 0.75018 0.43843 0.72096 0.0
H1238 H 0.78139 0.44054 0.73968 0.0
H1239 H 0.75039 0.47002 0.74524 0.0
H1240 H 0.84658 0.48346 0.7901 0.0
H1241 H 0.76952 0.54901 0.80355 0.0
H1242 H 0.85173 0.50298 0.73111 0.0
H1243 H 0.83328 0.45889 0.73492 0.0
H1244 H 0.86358 0.47096 0.75318 0.0
H1245 H 0.75616 0.57835 0.74619 0.0
H1246 H 0.73948 0.57251 0.77394 0.0
H1247 H 0.73577 0.53655 0.75226 0.0
loop_
_geom_bond_atom_site_label_1
_geom_bond_atom_site_label_2
_geom_bond_distance
_geom_bond_site_symmetry_2
_ccdc_geom_bond_type
C0 O1 1.306 1_545 S
C0 O3 1.160 . S
O1 C0 1.306 1_565 S
O1 Cd2 2.228 . S
Cd2 O1 2.228 . S
Cd2 O6 2.273 1_565 S
Cd2 O10 2.277 1_565 S
O3 C0 1.160 . S
O3 Cd4 2.203 . S
Cd4 O3 2.203 . S
Cd4 O6 2.411 . S
Cd4 O7 2.333 . S
Cd4 O8 2.352 . S
Cd4 O12 2.277 . S
Cd4 O13 2.356 . S
C5 O10 1.209 . S
C5 O12 1.226 . S
O6 Cd2 2.273 1_545 S
O6 Cd4 2.411 . S
O6 C9 1.320 . S
O7 Cd4 2.333 . S
O7 C9 1.214 . S
O8 Cd4 2.352 . S
O8 C11 1.258 . S
C9 O6 1.320 . S
C9 O7 1.214 . S
O10 Cd2 2.277 1_545 S
O10 C5 1.209 . S
C11 O8 1.258 . S
C11 O13 1.282 . S
O12 Cd4 2.277 . S
O12 C5 1.226 . S
O13 Cd4 2.356 . S
O13 C11 1.282 . S
C14 O15 1.306 1_565 S
C14 O17 1.160 . S
O15 C14 1.306 1_545 S
O15 Cd16 2.228 . S
Cd16 O15 2.228 . S
Cd16 O20 2.273 1_545 S
Cd16 O24 2.277 1_545 S
O17 C14 1.160 . S
O17 Cd18 2.203 . S
Cd18 O17 2.203 . S
Cd18 O20 2.411 . S
Cd18 O21 2.333 . S
Cd18 O22 2.352 . S
Cd18 O26 2.277 . S
Cd18 O27 2.356 . S
C19 O24 1.209 . S
C19 O26 1.226 . S
O20 Cd16 2.273 1_565 S
O20 Cd18 2.411 . S
O20 C23 1.320 . S
O21 Cd18 2.333 . S
O21 C23 1.214 . S
O22 Cd18 2.352 . S
O22 C25 1.258 . S
C23 O20 1.320 . S
C23 O21 1.214 . S
O24 Cd16 2.277 1_565 S
O24 C19 1.209 . S
C25 O22 1.258 . S
C25 O27 1.282 . S
O26 Cd18 2.277 . S
O26 C19 1.226 . S
O27 Cd18 2.356 . S
O27 C25 1.282 . S
C28 O29 1.306 1_565 S
C28 O31 1.160 . S
O29 C28 1.306 1_545 S
O29 Cd30 2.228 . S
Cd30 O29 2.228 . S
Cd30 O34 2.273 1_545 S
Cd30 O38 2.277 1_545 S
O31 C28 1.160 . S
O31 Cd32 2.203 . S
Cd32 O31 2.203 . S
Cd32 O34 2.411 . S
Cd32 O35 2.333 . S
Cd32 O36 2.352 . S
Cd32 O40 2.277 . S
Cd32 O41 2.356 . S
C33 O38 1.209 . S
C33 O40 1.226 . S
O34 Cd30 2.273 1_565 S
O34 Cd32 2.411 . S
O34 C37 1.320 . S
O35 Cd32 2.333 . S
O35 C37 1.214 . S
O36 Cd32 2.352 . S
O36 C39 1.258 . S
C37 O34 1.320 . S
C37 O35 1.214 . S
O38 Cd30 2.277 1_565 S
O38 C33 1.209 . S
C39 O36 1.258 . S
C39 O41 1.282 . S
O40 Cd32 2.277 . S
O40 C33 1.226 . S
O41 Cd32 2.356 . S
O41 C39 1.282 . S
C42 O43 1.306 1_545 S
C42 O45 1.160 . S
O43 C42 1.306 1_565 S
O43 Cd44 2.228 . S
Cd44 O43 2.228 . S
Cd44 O48 2.273 1_565 S
Cd44 O52 2.277 1_565 S
O45 C42 1.160 . S
O45 Cd46 2.203 . S
Cd46 O45 2.203 . S
Cd46 O48 2.411 . S
Cd46 O49 2.333 . S
Cd46 O50 2.352 . S
Cd46 O54 2.277 . S
Cd46 O55 2.356 . S
C47 O52 1.209 . S
C47 O54 1.226 . S
O48 Cd44 2.273 1_545 S
O48 Cd46 2.411 . S
O48 C51 1.320 . S
O49 Cd46 2.333 . S
O49 C51 1.214 . S
O50 Cd46 2.352 . S
O50 C53 1.258 . S
C51 O48 1.320 . S
C51 O49 1.214 . S
O52 Cd44 2.277 1_545 S
O52 C47 1.209 . S
C53 O50 1.258 . S
C53 O55 1.282 . S
O54 Cd46 2.277 . S
O54 C47 1.226 . S
O55 Cd46 2.356 . S
O55 C53 1.282 . S
C56 O57 1.306 1_565 S
C56 O59 1.160 . S
O57 C56 1.306 1_545 S
O57 Cd58 2.228 . S
Cd58 O57 2.228 . S
Cd58 O62 2.273 1_545 S
Cd58 O66 2.277 1_545 S
O59 C56 1.160 . S
O59 Cd60 2.203 . S
Cd60 O59 2.203 . S
Cd60 O62 2.411 . S
Cd60 O63 2.333 . S
Cd60 O64 2.352 . S
Cd60 O68 2.277 . S
Cd60 O69 2.356 . S
C61 O66 1.209 . S
C61 O68 1.226 . S
O62 Cd58 2.273 1_565 S
O62 Cd60 2.411 . S
O62 C65 1.320 . S
O63 Cd60 2.333 . S
O63 C65 1.214 . S
O64 Cd60 2.352 . S
O64 C67 1.258 . S
C65 O62 1.320 . S
C65 O63 1.214 . S
O66 Cd58 2.277 1_565 S
O66 C61 1.209 . S
C67 O64 1.258 . S
C67 O69 1.282 . S
O68 Cd60 2.277 . S
O68 C61 1.226 . S
O69 Cd60 2.356 . S
O69 C67 1.282 . S
C70 O71 1.306 1_545 S
C70 O73 1.160 . S
O71 C70 1.306 1_565 S
O71 Cd72 2.228 . S
Cd72 O71 2.228 . S
Cd72 O76 2.273 1_565 S
Cd72 O80 2.277 1_565 S
O73 C70 1.160 . S
O73 Cd74 2.203 . S
Cd74 O73 2.203 . S
Cd74 O76 2.411 . S
Cd74 O77 2.333 . S
Cd74 O78 2.352 . S
Cd74 O82 2.277 . S
Cd74 O83 2.356 . S
C75 O80 1.209 . S
C75 O82 1.226 . S
O76 Cd72 2.273 1_545 S
O76 Cd74 2.411 . S
O76 C79 1.320 . S
O77 Cd74 2.333 . S
O77 C79 1.214 . S
O78 Cd74 2.352 . S
O78 C81 1.258 . S
C79 O76 1.320 . S
C79 O77 1.214 . S
O80 Cd72 2.277 1_545 S
O80 C75 1.209 . S
C81 O78 1.258 . S
C81 O83 1.282 . S
O82 Cd74 2.277 . S
O82 C75 1.226 . S
O83 Cd74 2.356 . S
O83 C81 1.282 . S
C84 O85 1.306 1_545 S
C84 O87 1.160 . S
O85 C84 1.306 1_565 S
O85 Cd86 2.228 . S
Cd86 O85 2.228 . S
Cd86 O90 2.273 1_565 S
Cd86 O94 2.277 1_565 S
O87 C84 1.160 . S
O87 Cd88 2.203 . S
Cd88 O87 2.203 . S
Cd88 O90 2.411 . S
Cd88 O91 2.333 . S
Cd88 O92 2.352 . S
Cd88 O96 2.277 . S
Cd88 O97 2.356 . S
C89 O94 1.209 . S
C89 O96 1.226 . S
O90 Cd86 2.273 1_545 S
O90 Cd88 2.411 . S
O90 C93 1.320 . S
O91 Cd88 2.333 . S
O91 C93 1.214 . S
O92 Cd88 2.352 . S
O92 C95 1.258 . S
C93 O90 1.320 . S
C93 O91 1.214 . S
O94 Cd86 2.277 1_545 S
O94 C89 1.209 . S
C95 O92 1.258 . S
C95 O97 1.282 . S
O96 Cd88 2.277 . S
O96 C89 1.226 . S
O97 Cd88 2.356 . S
O97 C95 1.282 . S
C98 O99 1.306 1_565 S
C98 O101 1.160 . S
O99 C98 1.306 1_545 S
O99 Cd100 2.228 . S
Cd100 O99 2.228 . S
Cd100 O104 2.273 1_545 S
Cd100 O108 2.277 1_545 S
O101 C98 1.160 . S
O101 Cd102 2.203 . S
Cd102 O101 2.203 . S
Cd102 O104 2.411 . S
Cd102 O105 2.333 . S
Cd102 O106 2.352 . S
Cd102 O110 2.277 . S
Cd102 O111 2.356 . S
C103 O108 1.209 . S
C103 O110 1.226 . S
O104 Cd100 2.273 1_565 S
O104 Cd102 2.411 . S
O104 C107 1.320 . S
O105 Cd102 2.333 . S
O105 C107 1.214 . S
O106 Cd102 2.352 . S
O106 C109 1.258 . S
C107 O104 1.320 . S
C107 O105 1.214 . S
O108 Cd100 2.277 1_565 S
O108 C103 1.209 . S
C109 O106 1.258 . S
C109 O111 1.282 . S
O110 Cd102 2.277 . S
O110 C103 1.226 . S
O111 Cd102 2.356 . S
O111 C109 1.282 . S
C112 O113 1.306 . S
C112 O115 1.160 . S
O113 C112 1.306 . S
O113 Cd114 2.228 . S
Cd114 O113 2.228 . S
Cd114 O118 2.273 . S
Cd114 O122 2.277 . S
O115 C112 1.160 . S
O115 Cd116 2.203 . S
Cd116 O115 2.203 . S
Cd116 O118 2.411 . S
Cd116 O119 2.333 . S
Cd116 O120 2.352 . S
Cd116 O124 2.277 . S
Cd116 O125 2.356 . S
C117 O122 1.209 . S
C117 O124 1.226 . S
O118 Cd114 2.273 . S
O118 Cd116 2.411 . S
O118 C121 1.320 . S
O119 Cd116 2.333 . S
O119 C121 1.214 . S
O120 Cd116 2.352 . S
O120 C123 1.258 . S
C121 O118 1.320 . S
C121 O119 1.214 . S
O122 Cd114 2.277 . S
O122 C117 1.209 . S
C123 O120 1.258 . S
C123 O125 1.282 . S
O124 Cd116 2.277 . S
O124 C117 1.226 . S
O125 Cd116 2.356 . S
O125 C123 1.282 . S
C126 O127 1.306 . S
C126 O129 1.160 . S
O127 C126 1.306 . S
O127 Cd128 2.228 . S
Cd128 O127 2.228 . S
Cd128 O132 2.273 . S
Cd128 O136 2.277 . S
O129 C126 1.160 . S
O129 Cd130 2.203 . S
Cd130 O129 2.203 . S
Cd130 O132 2.411 . S
Cd130 O133 2.333 . S
Cd130 O134 2.352 . S
Cd130 O138 2.277 . S
Cd130 O139 2.356 . S
C131 O136 1.209 . S
C131 O138 1.226 . S
O132 Cd128 2.273 . S
O132 Cd130 2.411 . S
O132 C135 1.320 . S
O133 Cd130 2.333 . S
O133 C135 1.214 . S
O134 Cd130 2.352 . S
O134 C137 1.258 . S
C135 O132 1.320 . S
C135 O133 1.214 . S
O136 Cd128 2.277 . S
O136 C131 1.209 . S
C137 O134 1.258 . S
C137 O139 1.282 . S
O138 Cd130 2.277 . S
O138 C131 1.226 . S
O139 Cd130 2.356 . S
O139 C137 1.282 . S
C140 O141 1.306 . S
C140 O143 1.160 . S
O141 C140 1.306 . S
O141 Cd142 2.228 . S
Cd142 O141 2.228 . S
Cd142 O146 2.273 . S
Cd142 O150 2.277 . S
O143 C140 1.160 . S
O143 Cd144 2.203 . S
Cd144 O143 2.203 . S
Cd144 O146 2.411 . S
Cd144 O147 2.333 . S
Cd144 O148 2.352 . S
Cd144 O152 2.277 . S
Cd144 O153 2.356 . S
C145 O150 1.209 . S
C145 O152 1.226 . S
O146 Cd142 2.273 . S
O146 Cd144 2.411 . S
O146 C149 1.320 . S
O147 Cd144 2.333 . S
O147 C149 1.214 . S
O148 Cd144 2.352 . S
O148 C151 1.258 . S
C149 O146 1.320 . S
C149 O147 1.214 . S
O150 Cd142 2.277 . S
O150 C145 1.209 . S
C151 O148 1.258 . S
C151 O153 1.282 . S
O152 Cd144 2.277 . S
O152 C145 1.226 . S
O153 Cd144 2.356 . S
O153 C151 1.282 . S
C154 O155 1.306 . S
C154 O157 1.160 . S
O155 C154 1.306 . S
O155 Cd156 2.228 . S
Cd156 O155 2.228 . S
Cd156 O160 2.273 . S
Cd156 O164 2.277 . S
O157 C154 1.160 . S
O157 Cd158 2.203 . S
Cd158 O157 2.203 . S
Cd158 O160 2.411 . S
Cd158 O161 2.333 . S
Cd158 O162 2.352 . S
Cd158 O166 2.277 . S
Cd158 O167 2.356 . S
C159 O164 1.209 . S
C159 O166 1.226 . S
O160 Cd156 2.273 . S
O160 Cd158 2.411 . S
O160 C163 1.320 . S
O161 Cd158 2.333 . S
O161 C163 1.214 . S
O162 Cd158 2.352 . S
O162 C165 1.258 . S
C163 O160 1.320 . S
C163 O161 1.214 . S
O164 Cd156 2.277 . S
O164 C159 1.209 . S
C165 O162 1.258 . S
C165 O167 1.282 . S
O166 Cd158 2.277 . S
O166 C159 1.226 . S
O167 Cd158 2.356 . S
O167 C165 1.282 . S
C168 O169 1.306 . S
C168 O171 1.160 . S
O169 C168 1.306 . S
O169 Cd170 2.228 . S
Cd170 O169 2.228 . S
Cd170 O174 2.273 . S
Cd170 O178 2.277 . S
O171 C168 1.160 . S
O171 Cd172 2.203 . S
Cd172 O171 2.203 . S
Cd172 O174 2.411 . S
Cd172 O175 2.333 . S
Cd172 O176 2.352 . S
Cd172 O180 2.277 . S
Cd172 O181 2.356 . S
C173 O178 1.209 . S
C173 O180 1.226 . S
O174 Cd170 2.273 . S
O174 Cd172 2.411 . S
O174 C177 1.320 . S
O175 Cd172 2.333 . S
O175 C177 1.214 . S
O176 Cd172 2.352 . S
O176 C179 1.258 . S
C177 O174 1.320 . S
C177 O175 1.214 . S
O178 Cd170 2.277 . S
O178 C173 1.209 . S
C179 O176 1.258 . S
C179 O181 1.282 . S
O180 Cd172 2.277 . S
O180 C173 1.226 . S
O181 Cd172 2.356 . S
O181 C179 1.282 . S
C182 O183 1.306 . S
C182 O185 1.160 . S
O183 C182 1.306 . S
O183 Cd184 2.228 . S
Cd184 O183 2.228 . S
Cd184 O188 2.273 . S
Cd184 O192 2.277 . S
O185 C182 1.160 . S
O185 Cd186 2.203 . S
Cd186 O185 2.203 . S
Cd186 O188 2.411 . S
Cd186 O189 2.333 . S
Cd186 O190 2.352 . S
Cd186 O194 2.277 . S
Cd186 O195 2.356 . S
C187 O192 1.209 . S
C187 O194 1.226 . S
O188 Cd184 2.273 . S
O188 Cd186 2.411 . S
O188 C191 1.320 . S
O189 Cd186 2.333 . S
O189 C191 1.214 . S
O190 Cd186 2.352 . S
O190 C193 1.258 . S
C191 O188 1.320 . S
C191 O189 1.214 . S
O192 Cd184 2.277 . S
O192 C187 1.209 . S
C193 O190 1.258 . S
C193 O195 1.282 . S
O194 Cd186 2.277 . S
O194 C187 1.226 . S
O195 Cd186 2.356 . S
O195 C193 1.282 . S
C196 O197 1.306 . S
C196 O199 1.160 . S
O197 C196 1.306 . S
O197 Cd198 2.228 . S
Cd198 O197 2.228 . S
Cd198 O202 2.273 . S
Cd198 O206 2.277 . S
O199 C196 1.160 . S
O199 Cd200 2.203 . S
Cd200 O199 2.203 . S
Cd200 O202 2.411 . S
Cd200 O203 2.333 . S
Cd200 O204 2.352 . S
Cd200 O208 2.277 . S
Cd200 O209 2.356 . S
C201 O206 1.209 . S
C201 O208 1.226 . S
O202 Cd198 2.273 . S
O202 Cd200 2.411 . S
O202 C205 1.320 . S
O203 Cd200 2.333 . S
O203 C205 1.214 . S
O204 Cd200 2.352 . S
O204 C207 1.258 . S
C205 O202 1.320 . S
C205 O203 1.214 . S
O206 Cd198 2.277 . S
O206 C201 1.209 . S
C207 O204 1.258 . S
C207 O209 1.282 . S
O208 Cd200 2.277 . S
O208 C201 1.226 . S
O209 Cd200 2.356 . S
O209 C207 1.282 . S
C210 O211 1.306 . S
C210 O213 1.160 . S
O211 C210 1.306 . S
O211 Cd212 2.228 . S
Cd212 O211 2.228 . S
Cd212 O216 2.273 . S
Cd212 O220 2.277 . S
O213 C210 1.160 . S
O213 Cd214 2.203 . S
Cd214 O213 2.203 . S
Cd214 O216 2.411 . S
Cd214 O217 2.333 . S
Cd214 O218 2.352 . S
Cd214 O222 2.277 . S
Cd214 O223 2.356 . S
C215 O220 1.209 . S
C215 O222 1.226 . S
O216 Cd212 2.273 . S
O216 Cd214 2.411 . S
O216 C219 1.320 . S
O217 Cd214 2.333 . S
O217 C219 1.214 . S
O218 Cd214 2.352 . S
O218 C221 1.258 . S
C219 O216 1.320 . S
C219 O217 1.214 . S
O220 Cd212 2.277 . S
O220 C215 1.209 . S
C221 O218 1.258 . S
C221 O223 1.282 . S
O222 Cd214 2.277 . S
O222 C215 1.226 . S
O223 Cd214 2.356 . S
O223 C221 1.282 . S
C224 C225 1.406 . S
C224 C226 1.395 . S
C224 H240 0.915 1_545 S
C225 C224 1.406 . S
C225 C229 1.376 . S
C226 C224 1.395 . S
C226 C227 1.369 . S
C226 C230 1.531 1_545 S
C227 C226 1.369 . S
C227 C228 1.410 . S
C227 C235 1.503 . S
C228 C227 1.410 . S
C228 C229 1.392 . S
C228 C231 1.511 . S
C229 C225 1.376 . S
C229 C228 1.392 . S
C229 H241 0.929 . S
C230 C226 1.531 1_565 S
C230 H242 0.960 . S
C230 H243 0.962 . S
C230 H244 0.960 . S
C231 C228 1.511 . S
C231 H245 0.961 . S
C231 H246 0.961 . S
C231 H247 0.961 . S
C232 C233 1.370 . S
C232 C234 1.363 . S
C232 H248 0.931 1_545 S
C233 C232 1.370 . S
C233 C237 1.408 . S
C234 C232 1.363 . S
C234 C235 1.370 . S
C234 C238 1.524 1_545 S
C235 C227 1.503 . S
C235 C234 1.370 . S
C235 C236 1.403 . S
C236 C235 1.403 . S
C236 C237 1.404 . S
C236 C239 1.539 . S
C237 C233 1.408 . S
C237 C236 1.404 . S
C237 H249 0.930 . S
C238 C234 1.524 1_565 S
C238 H250 0.956 . S
C238 H251 0.980 . S
C238 H252 0.961 . S
C239 C236 1.539 . S
C239 H253 0.958 . S
C239 H254 0.961 . S
C239 H255 0.960 . S
H240 C224 0.915 1_565 S
H241 C229 0.929 . S
H242 C230 0.960 . S
H243 C230 0.962 . S
H244 C230 0.960 . S
H245 C231 0.961 . S
H246 C231 0.961 . S
H247 C231 0.961 . S
H248 C232 0.931 1_565 S
H249 C237 0.930 . S
H250 C238 0.956 . S
H251 C238 0.980 . S
H252 C238 0.961 . S
H253 C239 0.958 . S
H254 C239 0.961 . S
H255 C239 0.960 . S
C256 C257 1.391 . S
C256 C258 1.394 . S
C256 H272 0.931 . S
C257 C256 1.391 . S
C257 C261 1.376 . S
C258 C256 1.394 . S
C258 C259 1.369 . S
C258 C262 1.531 . S
C259 C258 1.369 . S
C259 C260 1.410 . S
C259 C267 1.503 . S
C260 C259 1.410 . S
C260 C261 1.392 . S
C260 C263 1.511 . S
C261 C257 1.376 . S
C261 C260 1.392 . S
C261 H273 0.929 . S
C262 C258 1.531 . S
C262 H274 0.960 . S
C262 H275 0.962 . S
C262 H276 0.960 . S
C263 C260 1.511 . S
C263 H277 0.961 1_565 S
C263 H278 0.961 1_565 S
C263 H279 0.961 . S
C264 C265 1.370 1_545 S
C264 C266 1.363 . S
C264 H280 0.931 . S
C265 C264 1.370 1_565 S
C265 C269 1.408 . S
C266 C264 1.363 . S
C266 C267 1.370 1_545 S
C266 C270 1.524 . S
C267 C259 1.503 . S
C267 C266 1.370 1_565 S
C267 C268 1.403 . S
C268 C267 1.403 . S
C268 C269 1.404 . S
C268 C271 1.539 . S
C269 C265 1.408 . S
C269 C268 1.404 . S
C269 H281 0.930 . S
C270 C266 1.524 . S
C270 H282 0.956 . S
C270 H283 0.961 . S
C270 H284 0.961 . S
C271 C268 1.539 . S
C271 H285 0.958 . S
C271 H286 0.961 . S
C271 H287 0.960 . S
H272 C256 0.931 . S
H273 C261 0.929 . S
H274 C262 0.960 . S
H275 C262 0.962 . S
H276 C262 0.960 . S
H277 C263 0.961 1_545 S
H278 C263 0.961 1_545 S
H279 C263 0.961 . S
H280 C264 0.931 . S
H281 C269 0.930 . S
H282 C270 0.956 . S
H283 C270 0.961 . S
H284 C270 0.961 . S
H285 C271 0.958 . S
H286 C271 0.961 . S
H287 C271 0.960 . S
C288 C289 1.391 1_545 S
C288 C290 1.394 . S
C288 H304 0.931 . S
C289 C288 1.391 1_565 S
C289 C293 1.376 . S
C290 C288 1.394 . S
C290 C291 1.369 1_545 S
C290 C294 1.531 . S
C291 C290 1.369 1_565 S
C291 C292 1.410 . S
C291 C299 1.503 1_554 S
C292 C291 1.410 . S
C292 C293 1.392 . S
C292 C295 1.511 . S
C293 C289 1.376 . S
C293 C292 1.392 . S
C293 H305 0.929 . S
C294 C290 1.531 . S
C294 H306 0.960 1_554 S
C294 H307 0.962 . S
C294 H308 0.960 . S
C295 C292 1.511 . S
C295 H309 0.961 . S
C295 H310 0.961 1_554 S
C295 H311 0.961 . S
C296 C297 1.370 . S
C296 C298 1.363 . S
C296 H312 0.931 . S
C297 C296 1.370 . S
C297 C301 1.408 . S
C298 C296 1.363 . S
C298 C299 1.370 . S
C298 C302 1.524 . S
C299 C291 1.503 1_556 S
C299 C298 1.370 . S
C299 C300 1.405 . S
C300 C299 1.405 . S
C300 C301 1.404 . S
C300 C303 1.537 1_565 S
C301 C297 1.408 . S
C301 C300 1.404 . S
C301 H313 0.930 1_565 S
C302 C298 1.524 . S
C302 H314 0.956 . S
C302 H315 0.961 1_556 S
C302 H316 0.961 . S
C303 C300 1.537 1_545 S
C303 H317 0.958 . S
C303 H318 0.961 . S
C303 H319 0.970 . S
H304 C288 0.931 . S
H305 C293 0.929 . S
H306 C294 0.960 1_556 S
H307 C294 0.962 . S
H308 C294 0.960 . S
H309 C295 0.961 . S
H310 C295 0.961 1_556 S
H311 C295 0.961 . S
H312 C296 0.931 . S
H313 C301 0.930 1_545 S
H314 C302 0.956 . S
H315 C302 0.961 1_554 S
H316 C302 0.961 . S
H317 C303 0.958 . S
H318 C303 0.961 . S
H319 C303 0.970 . S
C320 C321 1.391 . S
C320 C322 1.394 . S
C320 H336 0.931 . S
C321 C320 1.391 . S
C321 C325 1.376 . S
C322 C320 1.394 . S
C322 C323 1.369 . S
C322 C326 1.531 . S
C323 C322 1.369 . S
C323 C324 1.410 . S
C323 C331 1.503 1_556 S
C324 C323 1.410 . S
C324 C325 1.392 . S
C324 C327 1.511 1_545 S
C325 C321 1.376 . S
C325 C324 1.392 . S
C325 H337 0.929 1_545 S
C326 C322 1.531 . S
C326 H338 0.960 1_556 S
C326 H339 0.962 . S
C326 H340 0.960 . S
C327 C324 1.511 1_565 S
C327 H341 0.961 . S
C327 H342 0.961 1_556 S
C327 H343 0.951 1_565 S
C328 C329 1.387 . S
C328 C330 1.364 . S
C328 H344 0.913 1_545 S
C329 C328 1.387 . S
C329 C333 1.408 . S
C330 C328 1.364 . S
C330 C331 1.370 . S
C330 C334 1.524 1_545 S
C331 C323 1.503 1_554 S
C331 C330 1.370 . S
C331 C332 1.403 . S
C332 C331 1.403 . S
C332 C333 1.404 . S
C332 C335 1.539 . S
C333 C329 1.408 . S
C333 C332 1.404 . S
C333 H345 0.930 . S
C334 C330 1.524 1_565 S
C334 H346 0.956 . S
C334 H347 0.961 1_554 S
C334 H348 0.961 . S
C335 C332 1.539 . S
C335 H349 0.958 . S
C335 H350 0.961 . S
C335 H351 0.970 . S
H336 C320 0.931 . S
H337 C325 0.929 1_565 S
H338 C326 0.960 1_554 S
H339 C326 0.962 . S
H340 C326 0.960 . S
H341 C327 0.961 . S
H342 C327 0.961 1_554 S
H343 C327 0.951 1_545 S
H344 C328 0.913 1_565 S
H345 C333 0.930 . S
H346 C334 0.956 . S
H347 C334 0.961 1_556 S
H348 C334 0.961 . S
H349 C335 0.958 . S
H350 C335 0.961 . S
H351 C335 0.970 . S
C352 C353 1.391 . S
C352 C354 1.394 . S
C352 H368 0.931 . S
C353 C352 1.391 . S
C353 C357 1.376 . S
C354 C352 1.394 . S
C354 C355 1.369 . S
C354 C358 1.531 . S
C355 C354 1.369 . S
C355 C356 1.410 . S
C355 C363 1.503 . S
C356 C355 1.410 . S
C356 C357 1.392 . S
C356 C359 1.511 . S
C357 C353 1.376 . S
C357 C356 1.392 . S
C357 H369 0.929 . S
C358 C354 1.531 . S
C358 H370 0.960 . S
C358 H371 0.962 . S
C358 H372 0.960 . S
C359 C356 1.511 . S
C359 H373 0.961 . S
C359 H374 0.961 . S
C359 H375 0.961 . S
C360 C361 1.370 . S
C360 C362 1.363 . S
C360 H376 0.931 . S
C361 C360 1.370 . S
C361 C365 1.408 . S
C362 C360 1.363 . S
C362 C363 1.370 . S
C362 C366 1.524 . S
C363 C355 1.503 . S
C363 C362 1.370 . S
C363 C364 1.403 . S
C364 C363 1.403 . S
C364 C365 1.404 . S
C364 C367 1.539 . S
C365 C361 1.408 . S
C365 C364 1.404 . S
C365 H377 0.930 . S
C366 C362 1.524 . S
C366 H378 0.956 . S
C366 H379 0.961 . S
C366 H380 0.961 . S
C367 C364 1.539 . S
C367 H381 0.958 . S
C367 H382 0.961 . S
C367 H383 0.960 . S
H368 C352 0.931 . S
H369 C357 0.929 . S
H370 C358 0.960 . S
H371 C358 0.962 . S
H372 C358 0.960 . S
H373 C359 0.961 . S
H374 C359 0.961 . S
H375 C359 0.961 . S
H376 C360 0.931 . S
H377 C365 0.930 . S
H378 C366 0.956 . S
H379 C366 0.961 . S
H380 C366 0.961 . S
H381 C367 0.958 . S
H382 C367 0.961 . S
H383 C367 0.960 . S
C384 C385 1.391 . S
C384 C386 1.394 . S
C384 H400 0.931 . S
C385 C384 1.391 . S
C385 C389 1.376 . S
C386 C384 1.394 . S
C386 C387 1.369 . S
C386 C390 1.531 . S
C387 C386 1.369 . S
C387 C388 1.410 . S
C387 C395 1.503 . S
C388 C387 1.410 . S
C388 C389 1.392 . S
C388 C391 1.511 . S
C389 C385 1.376 . S
C389 C388 1.392 . S
C389 H401 0.929 . S
C390 C386 1.531 . S
C390 H402 0.960 . S
C390 H403 0.962 . S
C390 H404 0.960 . S
C391 C388 1.511 . S
C391 H405 0.961 . S
C391 H406 0.961 . S
C391 H407 0.961 . S
C392 C393 1.370 . S
C392 C394 1.363 . S
C392 H408 0.931 . S
C393 C392 1.370 . S
C393 C397 1.408 . S
C394 C392 1.363 . S
C394 C395 1.370 . S
C394 C398 1.524 . S
C395 C387 1.503 . S
C395 C394 1.370 . S
C395 C396 1.403 . S
C396 C395 1.403 . S
C396 C397 1.404 . S
C396 C399 1.539 . S
C397 C393 1.408 . S
C397 C396 1.404 . S
C397 H409 0.930 . S
C398 C394 1.524 . S
C398 H410 0.956 . S
C398 H411 0.961 . S
C398 H412 0.961 . S
C399 C396 1.539 . S
C399 H413 0.958 . S
C399 H414 0.961 . S
C399 H415 0.960 . S
H400 C384 0.931 . S
H401 C389 0.929 . S
H402 C390 0.960 . S
H403 C390 0.962 . S
H404 C390 0.960 . S
H405 C391 0.961 . S
H406 C391 0.961 . S
H407 C391 0.961 . S
H408 C392 0.931 . S
H409 C397 0.930 . S
H410 C398 0.956 . S
H411 C398 0.961 . S
H412 C398 0.961 . S
H413 C399 0.958 . S
H414 C399 0.961 . S
H415 C399 0.960 . S
C416 C417 1.391 . S
C416 C418 1.394 . S
C416 H432 0.931 . S
C417 C416 1.391 . S
C417 C421 1.376 . S
C418 C416 1.394 . S
C418 C419 1.369 . S
C418 C422 1.531 . S
C419 C418 1.369 . S
C419 C420 1.410 . S
C419 C427 1.503 1_556 S
C420 C419 1.410 . S
C420 C421 1.392 . S
C420 C423 1.511 . S
C421 C417 1.376 . S
C421 C420 1.392 . S
C421 H433 0.929 . S
C422 C418 1.531 . S
C422 H434 0.960 1_556 S
C422 H435 0.962 . S
C422 H436 0.960 . S
C423 C420 1.511 . S
C423 H437 0.961 . S
C423 H438 0.961 1_556 S
C423 H439 0.961 . S
C424 C425 1.370 . S
C424 C426 1.363 . S
C424 H440 0.931 . S
C425 C424 1.370 . S
C425 C429 1.408 . S
C426 C424 1.363 . S
C426 C427 1.370 . S
C426 C430 1.524 . S
C427 C419 1.503 1_554 S
C427 C426 1.370 . S
C427 C428 1.403 . S
C428 C427 1.403 . S
C428 C429 1.404 . S
C428 C431 1.539 . S
C429 C425 1.408 . S
C429 C428 1.404 . S
C429 H441 0.930 . S
C430 C426 1.524 . S
C430 H442 0.956 . S
C430 H443 0.961 1_554 S
C430 H444 0.961 . S
C431 C428 1.539 . S
C431 H445 0.958 . S
C431 H446 0.961 . S
C431 H447 0.970 . S
H432 C416 0.931 . S
H433 C421 0.929 . S
H434 C422 0.960 1_554 S
H435 C422 0.962 . S
H436 C422 0.960 . S
H437 C423 0.961 . S
H438 C423 0.961 1_554 S
H439 C423 0.961 . S
H440 C424 0.931 . S
H441 C429 0.930 . S
H442 C430 0.956 . S
H443 C430 0.961 1_556 S
H444 C430 0.961 . S
H445 C431 0.958 . S
H446 C431 0.961 . S
H447 C431 0.970 . S
C448 C449 1.391 . S
C448 C450 1.394 . S
C448 H464 0.931 . S
C449 C448 1.391 . S
C449 C453 1.376 . S
C450 C448 1.394 . S
C450 C451 1.369 . S
C450 C454 1.531 . S
C451 C450 1.369 . S
C451 C452 1.410 . S
C451 C459 1.503 1_554 S
C452 C451 1.410 . S
C452 C453 1.392 . S
C452 C455 1.511 . S
C453 C449 1.376 . S
C453 C452 1.392 . S
C453 H465 0.929 . S
C454 C450 1.531 . S
C454 H466 0.960 1_554 S
C454 H467 0.962 . S
C454 H468 0.960 . S
C455 C452 1.511 . S
C455 H469 0.961 . S
C455 H470 0.961 1_554 S
C455 H471 0.961 . S
C456 C457 1.370 . S
C456 C458 1.363 . S
C456 H472 0.931 . S
C457 C456 1.370 . S
C457 C461 1.408 . S
C458 C456 1.363 . S
C458 C459 1.370 . S
C458 C462 1.524 . S
C459 C451 1.503 1_556 S
C459 C458 1.370 . S
C459 C460 1.403 . S
C460 C459 1.403 . S
C460 C461 1.404 . S
C460 C463 1.539 . S
C461 C457 1.408 . S
C461 C460 1.404 . S
C461 H473 0.930 . S
C462 C458 1.524 . S
C462 H474 0.956 . S
C462 H475 0.961 1_556 S
C462 H476 0.961 . S
C463 C460 1.539 . S
C463 H477 0.958 . S
C463 H478 0.961 . S
C463 H479 0.970 . S
H464 C448 0.931 . S
H465 C453 0.929 . S
H466 C454 0.960 1_556 S
H467 C454 0.962 . S
H468 C454 0.960 . S
H469 C455 0.961 . S
H470 C455 0.961 1_556 S
H471 C455 0.961 . S
H472 C456 0.931 . S
H473 C461 0.930 . S
H474 C462 0.956 . S
H475 C462 0.961 1_554 S
H476 C462 0.961 . S
H477 C463 0.958 . S
H478 C463 0.961 . S
H479 C463 0.970 . S
C480 C481 1.391 . S
C480 C482 1.394 . S
C480 H496 0.931 . S
C481 C480 1.391 . S
C481 C485 1.376 1_565 S
C482 C480 1.394 . S
C482 C483 1.369 . S
C482 C486 1.531 . S
C483 C482 1.369 . S
C483 C484 1.410 1_565 S
C483 C491 1.503 1_565 S
C484 C483 1.410 1_545 S
C484 C485 1.392 . S
C484 C487 1.511 . S
C485 C481 1.376 1_545 S
C485 C484 1.392 . S
C485 H497 0.929 . S
C486 C482 1.531 . S
C486 H498 0.960 . S
C486 H499 0.962 . S
C486 H500 0.960 . S
C487 C484 1.511 . S
C487 H501 0.961 . S
C487 H502 0.961 . S
C487 H503 0.961 . S
C488 C489 1.370 . S
C488 C490 1.363 1_545 S
C488 H504 0.931 1_545 S
C489 C488 1.370 . S
C489 C493 1.408 . S
C490 C488 1.363 1_565 S
C490 C491 1.370 1_565 S
C490 C494 1.524 . S
C491 C483 1.503 1_545 S
C491 C490 1.370 1_545 S
C491 C492 1.403 . S
C492 C491 1.403 . S
C492 C493 1.404 . S
C492 C495 1.539 . S
C493 C489 1.408 . S
C493 C492 1.404 . S
C493 H505 0.930 . S
C494 C490 1.524 . S
C494 H506 0.956 . S
C494 H507 0.961 . S
C494 H508 0.961 . S
C495 C492 1.539 . S
C495 H509 0.958 . S
C495 H510 0.961 . S
C495 H511 0.960 . S
H496 C480 0.931 . S
H497 C485 0.929 . S
H498 C486 0.960 . S
H499 C486 0.962 . S
H500 C486 0.960 . S
H501 C487 0.961 . S
H502 C487 0.961 . S
H503 C487 0.961 . S
H504 C488 0.931 1_565 S
H505 C493 0.930 . S
H506 C494 0.956 . S
H507 C494 0.961 . S
H508 C494 0.961 . S
H509 C495 0.958 . S
H510 C495 0.961 . S
H511 C495 0.960 . S
C512 C513 1.391 1_545 S
C512 C514 1.394 . S
C512 H528 0.931 . S
C513 C512 1.391 1_565 S
C513 C517 1.376 . S
C514 C512 1.394 . S
C514 C515 1.369 1_545 S
C514 C518 1.531 . S
C515 C514 1.369 1_565 S
C515 C516 1.410 . S
C515 C523 1.503 1_565 S
C516 C515 1.410 . S
C516 C517 1.392 . S
C516 C519 1.511 . S
C517 C513 1.376 . S
C517 C516 1.392 . S
C517 H529 0.929 . S
C518 C514 1.531 . S
C518 H530 0.960 . S
C518 H531 0.962 . S
C518 H532 0.960 . S
C519 C516 1.511 . S
C519 H533 0.961 . S
C519 H534 0.961 . S
C519 H535 0.961 . S
C520 C521 1.370 . S
C520 C522 1.363 . S
C520 H536 0.931 . S
C521 C520 1.370 . S
C521 C525 1.408 1_545 S
C522 C520 1.363 . S
C522 C523 1.370 . S
C522 C526 1.524 . S
C523 C515 1.503 1_545 S
C523 C522 1.370 . S
C523 C524 1.403 1_545 S
C524 C523 1.403 1_565 S
C524 C525 1.404 . S
C524 C527 1.539 . S
C525 C521 1.408 1_565 S
C525 C524 1.404 . S
C525 H537 0.930 . S
C526 C522 1.524 . S
C526 H538 0.956 . S
C526 H539 0.961 . S
C526 H540 0.961 . S
C527 C524 1.539 . S
C527 H541 0.958 . S
C527 H542 0.961 . S
C527 H543 0.960 . S
H528 C512 0.931 . S
H529 C517 0.929 . S
H530 C518 0.960 . S
H531 C518 0.962 . S
H532 C518 0.960 . S
H533 C519 0.961 . S
H534 C519 0.961 . S
H535 C519 0.961 . S
H536 C520 0.931 . S
H537 C525 0.930 . S
H538 C526 0.956 . S
H539 C526 0.961 . S
H540 C526 0.961 . S
H541 C527 0.958 . S
H542 C527 0.961 . S
H543 C527 0.960 . S
C544 C545 1.391 . S
C544 C546 1.394 . S
C544 H560 0.931 . S
C545 C544 1.391 . S
C545 C549 1.376 1_565 S
C546 C544 1.394 . S
C546 C547 1.369 . S
C546 C550 1.531 . S
C547 C546 1.369 . S
C547 C548 1.410 1_565 S
C547 C555 1.503 1_565 S
C548 C547 1.410 1_545 S
C548 C549 1.392 . S
C548 C551 1.511 . S
C549 C545 1.376 1_545 S
C549 C548 1.392 . S
C549 H561 0.929 . S
C550 C546 1.531 . S
C550 H562 0.960 . S
C550 H563 0.962 . S
C550 H564 0.960 . S
C551 C548 1.511 . S
C551 H565 0.961 . S
C551 H566 0.961 . S
C551 H567 0.961 . S
C552 C553 1.370 . S
C552 C554 1.367 . S
C552 H568 0.931 . S
C553 C552 1.370 . S
C553 C557 1.408 . S
C554 C552 1.367 . S
C554 C555 1.373 . S
C554 C558 1.518 1_545 S
C555 C547 1.503 1_545 S
C555 C554 1.373 . S
C555 C556 1.403 . S
C556 C555 1.403 . S
C556 C557 1.404 . S
C556 C559 1.539 . S
C557 C553 1.408 . S
C557 C556 1.404 . S
C557 H569 0.930 . S
C558 C554 1.518 1_565 S
C558 H570 0.956 . S
C558 H571 0.960 1_565 S
C558 H572 0.961 . S
C559 C556 1.539 . S
C559 H573 0.958 . S
C559 H574 0.961 . S
C559 H575 0.960 . S
H560 C544 0.931 . S
H561 C549 0.929 . S
H562 C550 0.960 . S
H563 C550 0.962 . S
H564 C550 0.960 . S
H565 C551 0.961 . S
H566 C551 0.961 . S
H567 C551 0.961 . S
H568 C552 0.931 . S
H569 C557 0.930 . S
H570 C558 0.956 . S
H571 C558 0.960 1_545 S
H572 C558 0.961 . S
H573 C559 0.958 . S
H574 C559 0.961 . S
H575 C559 0.960 . S
C576 C577 1.391 . S
C576 C578 1.394 . S
C576 H592 0.931 . S
C577 C576 1.391 . S
C577 C581 1.376 1_545 S
C578 C576 1.394 . S
C578 C579 1.369 . S
C578 C582 1.531 . S
C579 C578 1.369 . S
C579 C580 1.410 1_545 S
C579 C587 1.503 1_545 S
C580 C579 1.410 1_565 S
C580 C581 1.392 . S
C580 C583 1.511 . S
C581 C577 1.376 1_565 S
C581 C580 1.392 . S
C581 H593 0.929 . S
C582 C578 1.531 . S
C582 H594 0.960 . S
C582 H595 0.962 . S
C582 H596 0.960 . S
C583 C580 1.511 . S
C583 H597 0.961 . S
C583 H598 0.961 . S
C583 H599 0.961 . S
C584 C585 1.370 . S
C584 C586 1.363 1_565 S
C584 H600 0.931 1_565 S
C585 C584 1.370 . S
C585 C589 1.408 . S
C586 C584 1.363 1_545 S
C586 C587 1.370 1_545 S
C586 C590 1.524 . S
C587 C579 1.503 1_565 S
C587 C586 1.370 1_565 S
C587 C588 1.403 . S
C588 C587 1.403 . S
C588 C589 1.404 . S
C588 C591 1.539 . S
C589 C585 1.408 . S
C589 C588 1.404 . S
C589 H601 0.930 . S
C590 C586 1.524 . S
C590 H602 0.956 . S
C590 H603 0.961 . S
C590 H604 0.961 . S
C591 C588 1.539 . S
C591 H605 0.958 . S
C591 H606 0.961 . S
C591 H607 0.960 . S
H592 C576 0.931 . S
H593 C581 0.929 . S
H594 C582 0.960 . S
H595 C582 0.962 . S
H596 C582 0.960 . S
H597 C583 0.961 . S
H598 C583 0.961 . S
H599 C583 0.961 . S
H600 C584 0.931 1_545 S
H601 C589 0.930 . S
H602 C590 0.956 . S
H603 C590 0.961 . S
H604 C590 0.961 . S
H605 C591 0.958 . S
H606 C591 0.961 . S
H607 C591 0.960 . S
C608 C609 1.391 . S
C608 C610 1.394 . S
C608 H624 0.931 . S
C609 C608 1.391 . S
C609 C613 1.376 . S
C610 C608 1.394 . S
C610 C611 1.369 . S
C610 C614 1.531 . S
C611 C610 1.369 . S
C611 C612 1.410 . S
C611 C619 1.503 1_655 S
C612 C611 1.410 . S
C612 C613 1.392 . S
C612 C615 1.511 . S
C613 C609 1.376 . S
C613 C612 1.392 . S
C613 H625 0.929 . S
C614 C610 1.531 . S
C614 H626 0.960 1_655 S
C614 H627 0.962 1_655 S
C614 H628 0.960 . S
C615 C612 1.511 . S
C615 H629 0.961 . S
C615 H630 0.961 . S
C615 H631 0.961 . S
C616 C617 1.370 . S
C616 C618 1.363 . S
C616 H632 0.931 . S
C617 C616 1.370 . S
C617 C621 1.408 . S
C618 C616 1.363 . S
C618 C619 1.370 . S
C618 C622 1.524 . S
C619 C611 1.503 1_455 S
C619 C618 1.370 . S
C619 C620 1.403 . S
C620 C619 1.403 . S
C620 C621 1.404 . S
C620 C623 1.539 . S
C621 C617 1.408 . S
C621 C620 1.404 . S
C621 H633 0.930 . S
C622 C618 1.524 . S
C622 H634 0.956 . S
C622 H635 0.961 1_455 S
C622 H636 0.961 . S
C623 C620 1.539 . S
C623 H637 0.958 . S
C623 H638 0.961 . S
C623 H639 0.960 . S
H624 C608 0.931 . S
H625 C613 0.929 . S
H626 C614 0.960 1_455 S
H627 C614 0.962 1_455 S
H628 C614 0.960 . S
H629 C615 0.961 . S
H630 C615 0.961 . S
H631 C615 0.961 . S
H632 C616 0.931 . S
H633 C621 0.930 . S
H634 C622 0.956 . S
H635 C622 0.961 1_655 S
H636 C622 0.961 . S
H637 C623 0.958 . S
H638 C623 0.961 . S
H639 C623 0.960 . S
C640 C641 1.391 . S
C640 C642 1.394 . S
C640 H656 0.931 . S
C641 C640 1.391 . S
C641 C645 1.376 . S
C642 C640 1.394 . S
C642 C643 1.369 . S
C642 C646 1.531 . S
C643 C642 1.369 . S
C643 C644 1.410 . S
C643 C651 1.503 1_455 S
C644 C643 1.410 . S
C644 C645 1.392 . S
C644 C647 1.511 . S
C645 C641 1.376 . S
C645 C644 1.392 . S
C645 H657 0.929 . S
C646 C642 1.531 . S
C646 H658 0.960 . S
C646 H659 0.962 . S
C646 H660 0.960 . S
C647 C644 1.511 . S
C647 H661 0.961 . S
C647 H662 0.961 1_455 S
C647 H663 0.961 1_455 S
C648 C649 1.370 . S
C648 C650 1.363 . S
C648 H664 0.931 . S
C649 C648 1.370 . S
C649 C653 1.408 . S
C650 C648 1.363 . S
C650 C651 1.370 . S
C650 C654 1.524 . S
C651 C643 1.503 1_655 S
C651 C650 1.370 . S
C651 C652 1.403 . S
C652 C651 1.403 . S
C652 C653 1.404 . S
C652 C655 1.539 . S
C653 C649 1.408 . S
C653 C652 1.404 . S
C653 H665 0.930 . S
C654 C650 1.524 . S
C654 H666 0.956 1_655 S
C654 H667 0.961 1_655 S
C654 H668 0.961 . S
C655 C652 1.539 . S
C655 H669 0.958 . S
C655 H670 0.961 . S
C655 H671 0.960 . S
H656 C640 0.931 . S
H657 C645 0.929 . S
H658 C646 0.960 . S
H659 C646 0.962 . S
H660 C646 0.960 . S
H661 C647 0.961 . S
H662 C647 0.961 1_655 S
H663 C647 0.961 1_655 S
H664 C648 0.931 . S
H665 C653 0.930 . S
H666 C654 0.956 1_455 S
H667 C654 0.961 1_455 S
H668 C654 0.961 . S
H669 C655 0.958 . S
H670 C655 0.961 . S
H671 C655 0.960 . S
C672 C673 1.391 . S
C672 C674 1.394 . S
C672 H688 0.931 . S
C673 C672 1.391 . S
C673 C677 1.376 . S
C674 C672 1.394 . S
C674 C675 1.369 . S
C674 C678 1.531 . S
C675 C674 1.369 . S
C675 C676 1.410 . S
C675 C683 1.503 1_655 S
C676 C675 1.410 . S
C676 C677 1.392 . S
C676 C679 1.511 . S
C677 C673 1.376 . S
C677 C676 1.392 . S
C677 H689 0.929 . S
C678 C674 1.531 . S
C678 H690 0.960 . S
C678 H691 0.962 . S
C678 H692 0.960 . S
C679 C676 1.511 . S
C679 H693 0.961 . S
C679 H694 0.961 1_655 S
C679 H695 0.961 1_655 S
C680 C681 1.370 . S
C680 C682 1.363 . S
C680 H696 0.931 . S
C681 C680 1.370 . S
C681 C685 1.408 . S
C682 C680 1.363 . S
C682 C683 1.370 . S
C682 C686 1.524 . S
C683 C675 1.503 1_455 S
C683 C682 1.370 . S
C683 C684 1.403 . S
C684 C683 1.403 . S
C684 C685 1.404 . S
C684 C687 1.539 . S
C685 C681 1.408 . S
C685 C684 1.404 . S
C685 H697 0.930 . S
C686 C682 1.524 . S
C686 H698 0.956 1_455 S
C686 H699 0.943 1_455 S
C686 H700 0.961 . S
C687 C684 1.539 . S
C687 H701 0.958 . S
C687 H702 0.961 . S
C687 H703 0.960 . S
H688 C672 0.931 . S
H689 C677 0.929 . S
H690 C678 0.960 . S
H691 C678 0.962 . S
H692 C678 0.960 . S
H693 C679 0.961 . S
H694 C679 0.961 1_455 S
H695 C679 0.961 1_455 S
H696 C680 0.931 . S
H697 C685 0.930 . S
H698 C686 0.956 1_655 S
H699 C686 0.943 1_655 S
H700 C686 0.961 . S
H701 C687 0.958 . S
H702 C687 0.961 . S
H703 C687 0.960 . S
C704 C705 1.391 . S
C704 C706 1.394 . S
C704 H720 0.931 . S
C705 C704 1.391 . S
C705 C709 1.376 . S
C706 C704 1.394 . S
C706 C707 1.369 . S
C706 C710 1.531 . S
C707 C706 1.369 . S
C707 C708 1.410 . S
C707 C715 1.503 1_455 S
C708 C707 1.410 . S
C708 C709 1.392 . S
C708 C711 1.511 . S
C709 C705 1.376 . S
C709 C708 1.392 . S
C709 H721 0.929 . S
C710 C706 1.531 . S
C710 H722 0.960 . S
C710 H723 0.962 . S
C710 H724 0.960 . S
C711 C708 1.511 . S
C711 H725 0.961 . S
C711 H726 0.961 1_455 S
C711 H727 0.961 . S
C712 C713 1.370 . S
C712 C714 1.363 . S
C712 H728 0.931 . S
C713 C712 1.370 . S
C713 C717 1.408 . S
C714 C712 1.363 . S
C714 C715 1.370 . S
C714 C718 1.524 . S
C715 C707 1.503 1_655 S
C715 C714 1.370 . S
C715 C716 1.403 . S
C716 C715 1.403 . S
C716 C717 1.404 . S
C716 C719 1.539 . S
C717 C713 1.408 . S
C717 C716 1.404 . S
C717 H729 0.930 . S
C718 C714 1.524 . S
C718 H730 0.956 . S
C718 H731 0.961 . S
C718 H732 0.961 . S
C719 C716 1.539 . S
C719 H733 0.949 1_655 S
C719 H734 0.961 . S
C719 H735 0.960 1_655 S
H720 C704 0.931 . S
H721 C709 0.929 . S
H722 C710 0.960 . S
H723 C710 0.962 . S
H724 C710 0.960 . S
H725 C711 0.961 . S
H726 C711 0.961 1_655 S
H727 C711 0.961 . S
H728 C712 0.931 . S
H729 C717 0.930 . S
H730 C718 0.956 . S
H731 C718 0.961 . S
H732 C718 0.961 . S
H733 C719 0.949 1_455 S
H734 C719 0.961 . S
H735 C719 0.960 1_455 S
C736 C737 1.391 . S
C736 C738 1.394 . S
C736 H752 0.931 . S
C737 C736 1.391 . S
C737 C741 1.376 . S
C738 C736 1.394 . S
C738 C739 1.369 . S
C738 C742 1.531 . S
C739 C738 1.369 . S
C739 C740 1.410 . S
C739 C747 1.503 . S
C740 C739 1.410 . S
C740 C741 1.392 . S
C740 C743 1.511 . S
C741 C737 1.376 . S
C741 C740 1.392 . S
C741 H753 0.929 . S
C742 C738 1.531 . S
C742 H754 0.960 . S
C742 H755 0.962 . S
C742 H756 0.960 . S
C743 C740 1.511 . S
C743 H757 0.961 . S
C743 H758 0.961 . S
C743 H759 0.961 . S
C744 C745 1.370 . S
C744 C746 1.363 . S
C744 H760 0.931 . S
C745 C744 1.370 . S
C745 C749 1.408 . S
C746 C744 1.363 . S
C746 C747 1.370 . S
C746 C750 1.524 . S
C747 C739 1.503 . S
C747 C746 1.370 . S
C747 C748 1.403 . S
C748 C747 1.403 . S
C748 C749 1.404 . S
C748 C751 1.539 . S
C749 C745 1.408 . S
C749 C748 1.404 . S
C749 H761 0.930 . S
C750 C746 1.524 . S
C750 H762 0.956 . S
C750 H763 0.961 . S
C750 H764 0.961 . S
C751 C748 1.539 . S
C751 H765 0.958 . S
C751 H766 0.961 . S
C751 H767 0.960 . S
H752 C736 0.931 . S
H753 C741 0.929 . S
H754 C742 0.960 . S
H755 C742 0.962 . S
H756 C742 0.960 . S
H757 C743 0.961 . S
H758 C743 0.961 . S
H759 C743 0.961 . S
H760 C744 0.931 . S
H761 C749 0.930 . S
H762 C750 0.956 . S
H763 C750 0.961 . S
H764 C750 0.961 . S
H765 C751 0.958 . S
H766 C751 0.961 . S
H767 C751 0.960 . S
C768 C769 1.391 . S
C768 C770 1.394 . S
C768 H784 0.931 . S
C769 C768 1.391 . S
C769 C773 1.376 . S
C770 C768 1.394 . S
C770 C771 1.369 . S
C770 C774 1.531 . S
C771 C770 1.369 . S
C771 C772 1.410 . S
C771 C779 1.503 . S
C772 C771 1.410 . S
C772 C773 1.392 . S
C772 C775 1.511 . S
C773 C769 1.376 . S
C773 C772 1.392 . S
C773 H785 0.929 . S
C774 C770 1.531 . S
C774 H786 0.960 . S
C774 H787 0.962 . S
C774 H788 0.960 . S
C775 C772 1.511 . S
C775 H789 0.961 . S
C775 H790 0.961 . S
C775 H791 0.961 . S
C776 C777 1.370 . S
C776 C778 1.363 . S
C776 H792 0.931 . S
C777 C776 1.370 . S
C777 C781 1.408 . S
C778 C776 1.363 . S
C778 C779 1.370 . S
C778 C782 1.524 . S
C779 C771 1.503 . S
C779 C778 1.370 . S
C779 C780 1.403 . S
C780 C779 1.403 . S
C780 C781 1.404 . S
C780 C783 1.539 . S
C781 C777 1.408 . S
C781 C780 1.404 . S
C781 H793 0.930 . S
C782 C778 1.524 . S
C782 H794 0.956 . S
C782 H795 0.961 . S
C782 H796 0.961 . S
C783 C780 1.539 . S
C783 H797 0.958 . S
C783 H798 0.961 . S
C783 H799 0.960 . S
H784 C768 0.931 . S
H785 C773 0.929 . S
H786 C774 0.960 . S
H787 C774 0.962 . S
H788 C774 0.960 . S
H789 C775 0.961 . S
H790 C775 0.961 . S
H791 C775 0.961 . S
H792 C776 0.931 . S
H793 C781 0.930 . S
H794 C782 0.956 . S
H795 C782 0.961 . S
H796 C782 0.961 . S
H797 C783 0.958 . S
H798 C783 0.961 . S
H799 C783 0.960 . S
C800 C801 1.391 . S
C800 C802 1.394 . S
C800 H816 0.931 . S
C801 C800 1.391 . S
C801 C805 1.376 . S
C802 C800 1.394 . S
C802 C803 1.369 . S
C802 C806 1.531 . S
C803 C802 1.369 . S
C803 C804 1.410 . S
C803 C811 1.503 . S
C804 C803 1.410 . S
C804 C805 1.392 . S
C804 C807 1.511 . S
C805 C801 1.376 . S
C805 C804 1.392 . S
C805 H817 0.929 . S
C806 C802 1.531 . S
C806 H818 0.960 . S
C806 H819 0.962 . S
C806 H820 0.960 . S
C807 C804 1.511 . S
C807 H821 0.961 . S
C807 H822 0.961 . S
C807 H823 0.961 . S
C808 C809 1.370 . S
C808 C810 1.363 . S
C808 H824 0.931 . S
C809 C808 1.370 . S
C809 C813 1.408 . S
C810 C808 1.363 . S
C810 C811 1.370 . S
C810 C814 1.524 . S
C811 C803 1.503 . S
C811 C810 1.370 . S
C811 C812 1.403 . S
C812 C811 1.403 . S
C812 C813 1.404 . S
C812 C815 1.539 . S
C813 C809 1.408 . S
C813 C812 1.404 . S
C813 H825 0.930 . S
C814 C810 1.524 . S
C814 H826 0.956 . S
C814 H827 0.961 . S
C814 H828 0.961 . S
C815 C812 1.539 . S
C815 H829 0.958 . S
C815 H830 0.961 . S
C815 H831 0.960 . S
H816 C800 0.931 . S
H817 C805 0.929 . S
H818 C806 0.960 . S
H819 C806 0.962 . S
H820 C806 0.960 . S
H821 C807 0.961 . S
H822 C807 0.961 . S
H823 C807 0.961 . S
H824 C808 0.931 . S
H825 C813 0.930 . S
H826 C814 0.956 . S
H827 C814 0.961 . S
H828 C814 0.961 . S
H829 C815 0.958 . S
H830 C815 0.961 . S
H831 C815 0.960 . S
C832 C833 1.391 . S
C832 C834 1.394 . S
C832 H848 0.931 . S
C833 C832 1.391 . S
C833 C837 1.376 . S
C834 C832 1.394 . S
C834 C835 1.369 . S
C834 C838 1.531 . S
C835 C834 1.369 . S
C835 C836 1.410 . S
C835 C843 1.503 . S
C836 C835 1.410 . S
C836 C837 1.392 . S
C836 C839 1.511 . S
C837 C833 1.376 . S
C837 C836 1.392 . S
C837 H849 0.929 . S
C838 C834 1.531 . S
C838 H850 0.960 . S
C838 H851 0.962 . S
C838 H852 0.960 . S
C839 C836 1.511 . S
C839 H853 0.961 . S
C839 H854 0.961 . S
C839 H855 0.961 . S
C840 C841 1.370 . S
C840 C842 1.363 . S
C840 H856 0.931 . S
C841 C840 1.370 . S
C841 C845 1.408 . S
C842 C840 1.363 . S
C842 C843 1.370 . S
C842 C846 1.524 . S
C843 C835 1.503 . S
C843 C842 1.370 . S
C843 C844 1.403 . S
C844 C843 1.403 . S
C844 C845 1.404 . S
C844 C847 1.539 . S
C845 C841 1.408 . S
C845 C844 1.404 . S
C845 H857 0.930 . S
C846 C842 1.524 . S
C846 H858 0.956 . S
C846 H859 0.961 . S
C846 H860 0.961 . S
C847 C844 1.539 . S
C847 H861 0.958 . S
C847 H862 0.961 . S
C847 H863 0.960 . S
H848 C832 0.931 . S
H849 C837 0.929 . S
H850 C838 0.960 . S
H851 C838 0.962 . S
H852 C838 0.960 . S
H853 C839 0.961 . S
H854 C839 0.961 . S
H855 C839 0.961 . S
H856 C840 0.931 . S
H857 C845 0.930 . S
H858 C846 0.956 . S
H859 C846 0.961 . S
H860 C846 0.961 . S
H861 C847 0.958 . S
H862 C847 0.961 . S
H863 C847 0.960 . S
C864 C865 1.391 . S
C864 C866 1.394 . S
C864 H880 0.931 . S
C865 C864 1.391 . S
C865 C869 1.376 . S
C866 C864 1.394 . S
C866 C867 1.369 . S
C866 C870 1.531 . S
C867 C866 1.369 . S
C867 C868 1.410 . S
C867 C875 1.503 . S
C868 C867 1.410 . S
C868 C869 1.392 . S
C868 C871 1.511 . S
C869 C865 1.376 . S
C869 C868 1.392 . S
C869 H881 0.929 . S
C870 C866 1.531 . S
C870 H882 0.960 . S
C870 H883 0.962 . S
C870 H884 0.960 . S
C871 C868 1.511 . S
C871 H885 0.961 . S
C871 H886 0.961 . S
C871 H887 0.961 . S
C872 C873 1.370 . S
C872 C874 1.363 . S
C872 H888 0.931 . S
C873 C872 1.370 . S
C873 C877 1.408 . S
C874 C872 1.363 . S
C874 C875 1.370 . S
C874 C878 1.524 . S
C875 C867 1.503 . S
C875 C874 1.370 . S
C875 C876 1.403 . S
C876 C875 1.403 . S
C876 C877 1.404 . S
C876 C879 1.539 . S
C877 C873 1.408 . S
C877 C876 1.404 . S
C877 H889 0.930 . S
C878 C874 1.524 . S
C878 H890 0.956 . S
C878 H891 0.961 . S
C878 H892 0.961 . S
C879 C876 1.539 . S
C879 H893 0.958 . S
C879 H894 0.961 . S
C879 H895 0.960 . S
H880 C864 0.931 . S
H881 C869 0.929 . S
H882 C870 0.960 . S
H883 C870 0.962 . S
H884 C870 0.960 . S
H885 C871 0.961 . S
H886 C871 0.961 . S
H887 C871 0.961 . S
H888 C872 0.931 . S
H889 C877 0.930 . S
H890 C878 0.956 . S
H891 C878 0.961 . S
H892 C878 0.961 . S
H893 C879 0.958 . S
H894 C879 0.961 . S
H895 C879 0.960 . S
C896 C897 1.391 . S
C896 C898 1.394 . S
C896 H912 0.931 . S
C897 C896 1.391 . S
C897 C901 1.376 . S
C898 C896 1.394 . S
C898 C899 1.369 . S
C898 C902 1.531 . S
C899 C898 1.369 . S
C899 C900 1.410 . S
C899 C907 1.503 . S
C900 C899 1.410 . S
C900 C901 1.392 . S
C900 C903 1.511 . S
C901 C897 1.376 . S
C901 C900 1.392 . S
C901 H913 0.929 . S
C902 C898 1.531 . S
C902 H914 0.960 . S
C902 H915 0.962 . S
C902 H916 0.960 . S
C903 C900 1.511 . S
C903 H917 0.961 . S
C903 H918 0.961 . S
C903 H919 0.961 . S
C904 C905 1.370 . S
C904 C906 1.363 . S
C904 H920 0.931 . S
C905 C904 1.370 . S
C905 C909 1.408 . S
C906 C904 1.363 . S
C906 C907 1.370 . S
C906 C910 1.524 . S
C907 C899 1.503 . S
C907 C906 1.370 . S
C907 C908 1.403 . S
C908 C907 1.403 . S
C908 C909 1.404 . S
C908 C911 1.539 . S
C909 C905 1.408 . S
C909 C908 1.404 . S
C909 H921 0.930 . S
C910 C906 1.524 . S
C910 H922 0.956 . S
C910 H923 0.961 . S
C910 H924 0.961 . S
C911 C908 1.539 . S
C911 H925 0.958 . S
C911 H926 0.961 . S
C911 H927 0.960 . S
H912 C896 0.931 . S
H913 C901 0.929 . S
H914 C902 0.960 . S
H915 C902 0.962 . S
H916 C902 0.960 . S
H917 C903 0.961 . S
H918 C903 0.961 . S
H919 C903 0.961 . S
H920 C904 0.931 . S
H921 C909 0.930 . S
H922 C910 0.956 . S
H923 C910 0.961 . S
H924 C910 0.961 . S
H925 C911 0.958 . S
H926 C911 0.961 . S
H927 C911 0.960 . S
C928 C929 1.391 . S
C928 C930 1.394 . S
C928 H944 0.931 . S
C929 C928 1.391 . S
C929 C933 1.376 . S
C930 C928 1.394 . S
C930 C931 1.369 . S
C930 C934 1.531 . S
C931 C930 1.369 . S
C931 C932 1.410 . S
C931 C939 1.503 . S
C932 C931 1.410 . S
C932 C933 1.392 . S
C932 C935 1.511 . S
C933 C929 1.376 . S
C933 C932 1.392 . S
C933 H945 0.929 . S
C934 C930 1.531 . S
C934 H946 0.960 . S
C934 H947 0.962 . S
C934 H948 0.960 . S
C935 C932 1.511 . S
C935 H949 0.961 . S
C935 H950 0.961 . S
C935 H951 0.961 . S
C936 C937 1.370 . S
C936 C938 1.363 . S
C936 H952 0.931 . S
C937 C936 1.370 . S
C937 C941 1.408 . S
C938 C936 1.363 . S
C938 C939 1.370 . S
C938 C942 1.524 . S
C939 C931 1.503 . S
C939 C938 1.370 . S
C939 C940 1.403 . S
C940 C939 1.403 . S
C940 C941 1.404 . S
C940 C943 1.539 . S
C941 C937 1.408 . S
C941 C940 1.404 . S
C941 H953 0.930 . S
C942 C938 1.524 . S
C942 H954 0.956 . S
C942 H955 0.961 . S
C942 H956 0.961 . S
C943 C940 1.539 . S
C943 H957 0.958 . S
C943 H958 0.961 . S
C943 H959 0.960 . S
H944 C928 0.931 . S
H945 C933 0.929 . S
H946 C934 0.960 . S
H947 C934 0.962 . S
H948 C934 0.960 . S
H949 C935 0.961 . S
H950 C935 0.961 . S
H951 C935 0.961 . S
H952 C936 0.931 . S
H953 C941 0.930 . S
H954 C942 0.956 . S
H955 C942 0.961 . S
H956 C942 0.961 . S
H957 C943 0.958 . S
H958 C943 0.961 . S
H959 C943 0.960 . S
C960 C961 1.391 . S
C960 C962 1.394 . S
C960 H976 0.931 . S
C961 C960 1.391 . S
C961 C965 1.376 . S
C962 C960 1.394 . S
C962 C963 1.369 . S
C962 C966 1.531 . S
C963 C962 1.369 . S
C963 C964 1.410 . S
C963 C971 1.503 . S
C964 C963 1.410 . S
C964 C965 1.392 . S
C964 C967 1.511 . S
C965 C961 1.376 . S
C965 C964 1.392 . S
C965 H977 0.929 . S
C966 C962 1.531 . S
C966 H978 0.960 . S
C966 H979 0.962 . S
C966 H980 0.960 . S
C967 C964 1.511 . S
C967 H981 0.961 . S
C967 H982 0.961 . S
C967 H983 0.961 . S
C968 C969 1.370 . S
C968 C970 1.363 . S
C968 H984 0.931 . S
C969 C968 1.370 . S
C969 C973 1.408 . S
C970 C968 1.363 . S
C970 C971 1.370 . S
C970 C974 1.524 . S
C971 C963 1.503 . S
C971 C970 1.370 . S
C971 C972 1.403 . S
C972 C971 1.403 . S
C972 C973 1.404 . S
C972 C975 1.539 . S
C973 C969 1.408 . S
C973 C972 1.404 . S
C973 H985 0.930 . S
C974 C970 1.524 . S
C974 H986 0.956 . S
C974 H987 0.961 . S
C974 H988 0.961 . S
C975 C972 1.539 . S
C975 H989 0.958 . S
C975 H990 0.961 . S
C975 H991 0.960 . S
H976 C960 0.931 . S
H977 C965 0.929 . S
H978 C966 0.960 . S
H979 C966 0.962 . S
H980 C966 0.960 . S
H981 C967 0.961 . S
H982 C967 0.961 . S
H983 C967 0.961 . S
H984 C968 0.931 . S
H985 C973 0.930 . S
H986 C974 0.956 . S
H987 C974 0.961 . S
H988 C974 0.961 . S
H989 C975 0.958 . S
H990 C975 0.961 . S
H991 C975 0.960 . S
C992 C993 1.391 1_565 S
C992 C994 1.394 . S
C992 H1008 0.931 . S
C993 C992 1.391 1_545 S
C993 C997 1.376 . S
C994 C992 1.394 . S
C994 C995 1.369 . S
C994 C998 1.531 . S
C995 C994 1.369 . S
C995 C996 1.410 1_565 S
C995 C1003 1.503 . S
C996 C995 1.410 1_545 S
C996 C997 1.392 . S
C996 C999 1.511 . S
C997 C993 1.376 . S
C997 C996 1.392 . S
C997 H1009 0.929 . S
C998 C994 1.531 . S
C998 H1010 0.960 . S
C998 H1011 0.962 . S
C998 H1012 0.960 . S
C999 C996 1.511 . S
C999 H1013 0.961 . S
C999 H1014 0.961 . S
C999 H1015 0.961 . S
C1000 C1001 1.370 1_545 S
C1000 C1002 1.363 . S
C1000 H1016 0.931 . S
C1001 C1000 1.370 1_565 S
C1001 C1005 1.408 . S
C1002 C1000 1.363 . S
C1002 C1003 1.370 1_545 S
C1002 C1006 1.524 . S
C1003 C995 1.503 . S
C1003 C1002 1.370 1_565 S
C1003 C1004 1.403 . S
C1004 C1003 1.403 . S
C1004 C1005 1.404 . S
C1004 C1007 1.539 . S
C1005 C1001 1.408 . S
C1005 C1004 1.404 . S
C1005 H1017 0.930 . S
C1006 C1002 1.524 . S
C1006 H1018 0.956 . S
C1006 H1019 0.961 . S
C1006 H1020 0.961 . S
C1007 C1004 1.539 . S
C1007 H1021 0.958 . S
C1007 H1022 0.961 . S
C1007 H1023 0.960 . S
H1008 C992 0.931 . S
H1009 C997 0.929 . S
H1010 C998 0.960 . S
H1011 C998 0.962 . S
H1012 C998 0.960 . S
H1013 C999 0.961 . S
H1014 C999 0.961 . S
H1015 C999 0.961 . S
H1016 C1000 0.931 . S
H1017 C1005 0.930 . S
H1018 C1006 0.956 . S
H1019 C1006 0.961 . S
H1020 C1006 0.961 . S
H1021 C1007 0.958 . S
H1022 C1007 0.961 . S
H1023 C1007 0.960 . S
C1024 C1025 1.391 . S
C1024 C1026 1.394 . S
C1024 H1040 0.931 . S
C1025 C1024 1.391 . S
C1025 C1029 1.376 1_545 S
C1026 C1024 1.394 . S
C1026 C1027 1.369 . S
C1026 C1030 1.531 . S
C1027 C1026 1.369 . S
C1027 C1028 1.410 1_545 S
C1027 C1035 1.503 . S
C1028 C1027 1.410 1_565 S
C1028 C1029 1.392 . S
C1028 C1031 1.511 . S
C1029 C1025 1.376 1_565 S
C1029 C1028 1.392 . S
C1029 H1041 0.929 . S
C1030 C1026 1.531 . S
C1030 H1042 0.960 . S
C1030 H1043 0.962 . S
C1030 H1044 0.960 . S
C1031 C1028 1.511 . S
C1031 H1045 0.961 . S
C1031 H1046 0.961 . S
C1031 H1047 0.961 . S
C1032 C1033 1.370 . S
C1032 C1034 1.363 . S
C1032 H1048 0.931 . S
C1033 C1032 1.370 . S
C1033 C1037 1.408 1_565 S
C1034 C1032 1.363 . S
C1034 C1035 1.370 1_565 S
C1034 C1038 1.524 . S
C1035 C1027 1.503 . S
C1035 C1034 1.370 1_545 S
C1035 C1036 1.403 . S
C1036 C1035 1.403 . S
C1036 C1037 1.404 . S
C1036 C1039 1.539 . S
C1037 C1033 1.408 1_545 S
C1037 C1036 1.404 . S
C1037 H1049 0.930 . S
C1038 C1034 1.524 . S
C1038 H1050 0.956 . S
C1038 H1051 0.961 . S
C1038 H1052 0.961 . S
C1039 C1036 1.539 . S
C1039 H1053 0.958 . S
C1039 H1054 0.961 . S
C1039 H1055 0.960 . S
H1040 C1024 0.931 . S
H1041 C1029 0.929 . S
H1042 C1030 0.960 . S
H1043 C1030 0.962 . S
H1044 C1030 0.960 . S
H1045 C1031 0.961 . S
H1046 C1031 0.961 . S
H1047 C1031 0.961 . S
H1048 C1032 0.931 . S
H1049 C1037 0.930 . S
H1050 C1038 0.956 . S
H1051 C1038 0.961 . S
H1052 C1038 0.961 . S
H1053 C1039 0.958 . S
H1054 C1039 0.961 . S
H1055 C1039 0.960 . S
C1056 C1057 1.391 . S
C1056 C1058 1.394 . S
C1056 H1072 0.931 . S
C1057 C1056 1.391 . S
C1057 C1061 1.376 1_545 S
C1058 C1056 1.394 . S
C1058 C1059 1.369 . S
C1058 C1062 1.531 . S
C1059 C1058 1.369 . S
C1059 C1060 1.410 1_545 S
C1059 C1067 1.503 . S
C1060 C1059 1.410 1_565 S
C1060 C1061 1.392 . S
C1060 C1063 1.511 . S
C1061 C1057 1.376 1_565 S
C1061 C1060 1.392 . S
C1061 H1073 0.929 . S
C1062 C1058 1.531 . S
C1062 H1074 0.960 . S
C1062 H1075 0.962 . S
C1062 H1076 0.960 . S
C1063 C1060 1.511 . S
C1063 H1077 0.961 . S
C1063 H1078 0.961 . S
C1063 H1079 0.961 . S
C1064 C1065 1.370 . S
C1064 C1066 1.363 . S
C1064 H1080 0.931 . S
C1065 C1064 1.370 . S
C1065 C1069 1.408 1_565 S
C1066 C1064 1.363 . S
C1066 C1067 1.370 1_565 S
C1066 C1070 1.524 . S
C1067 C1059 1.503 . S
C1067 C1066 1.370 1_545 S
C1067 C1068 1.403 . S
C1068 C1067 1.403 . S
C1068 C1069 1.404 . S
C1068 C1071 1.539 . S
C1069 C1065 1.408 1_545 S
C1069 C1068 1.404 . S
C1069 H1081 0.930 . S
C1070 C1066 1.524 . S
C1070 H1082 0.956 . S
C1070 H1083 0.961 . S
C1070 H1084 0.961 . S
C1071 C1068 1.539 . S
C1071 H1085 0.958 . S
C1071 H1086 0.961 . S
C1071 H1087 0.960 . S
H1072 C1056 0.931 . S
H1073 C1061 0.929 . S
H1074 C1062 0.960 . S
H1075 C1062 0.962 . S
H1076 C1062 0.960 . S
H1077 C1063 0.961 . S
H1078 C1063 0.961 . S
H1079 C1063 0.961 . S
H1080 C1064 0.931 . S
H1081 C1069 0.930 . S
H1082 C1070 0.956 . S
H1083 C1070 0.961 . S
H1084 C1070 0.961 . S
H1085 C1071 0.958 . S
H1086 C1071 0.961 . S
H1087 C1071 0.960 . S
C1088 C1089 1.391 1_545 S
C1088 C1090 1.394 . S
C1088 H1104 0.931 . S
C1089 C1088 1.391 1_565 S
C1089 C1093 1.376 . S
C1090 C1088 1.394 . S
C1090 C1091 1.369 . S
C1090 C1094 1.531 . S
C1091 C1090 1.369 . S
C1091 C1092 1.410 . S
C1091 C1099 1.503 . S
C1092 C1091 1.410 . S
C1092 C1093 1.392 1_545 S
C1092 C1095 1.511 . S
C1093 C1089 1.376 . S
C1093 C1092 1.392 1_565 S
C1093 H1105 0.929 . S
C1094 C1090 1.531 . S
C1094 H1106 0.960 . S
C1094 H1107 0.962 1_545 S
C1094 H1108 0.960 . S
C1095 C1092 1.511 . S
C1095 H1109 0.961 1_545 S
C1095 H1110 0.961 1_545 S
C1095 H1111 0.961 . S
C1096 C1097 1.370 1_565 S
C1096 C1098 1.363 . S
C1096 H1112 0.931 . S
C1097 C1096 1.370 1_545 S
C1097 C1101 1.408 . S
C1098 C1096 1.363 . S
C1098 C1099 1.370 1_565 S
C1098 C1102 1.524 . S
C1099 C1091 1.503 . S
C1099 C1098 1.370 1_545 S
C1099 C1100 1.403 . S
C1100 C1099 1.403 . S
C1100 C1101 1.404 . S
C1100 C1103 1.539 . S
C1101 C1097 1.408 . S
C1101 C1100 1.404 . S
C1101 H1113 0.930 . S
C1102 C1098 1.524 . S
C1102 H1114 0.956 . S
C1102 H1115 0.961 . S
C1102 H1116 0.961 . S
C1103 C1100 1.539 . S
C1103 H1117 0.958 . S
C1103 H1118 0.961 . S
C1103 H1119 0.960 . S
H1104 C1088 0.931 . S
H1105 C1093 0.929 . S
H1106 C1094 0.960 . S
H1107 C1094 0.962 1_565 S
H1108 C1094 0.960 . S
H1109 C1095 0.961 1_565 S
H1110 C1095 0.961 1_565 S
H1111 C1095 0.961 . S
H1112 C1096 0.931 . S
H1113 C1101 0.930 . S
H1114 C1102 0.956 . S
H1115 C1102 0.961 . S
H1116 C1102 0.961 . S
H1117 C1103 0.958 . S
H1118 C1103 0.961 . S
H1119 C1103 0.960 . S
C1120 C1121 1.391 . S
C1120 C1122 1.394 . S
C1120 H1136 0.931 . S
C1121 C1120 1.391 . S
C1121 C1125 1.376 . S
C1122 C1120 1.394 . S
C1122 C1123 1.369 . S
C1122 C1126 1.531 . S
C1123 C1122 1.369 . S
C1123 C1124 1.410 . S
C1123 C1131 1.503 . S
C1124 C1123 1.410 . S
C1124 C1125 1.392 . S
C1124 C1127 1.511 . S
C1125 C1121 1.376 . S
C1125 C1124 1.392 . S
C1125 H1137 0.929 . S
C1126 C1122 1.531 . S
C1126 H1138 0.960 . S
C1126 H1139 0.962 . S
C1126 H1140 0.960 . S
C1127 C1124 1.511 . S
C1127 H1141 0.961 . S
C1127 H1142 0.961 . S
C1127 H1143 0.961 . S
C1128 C1129 1.370 . S
C1128 C1130 1.363 . S
C1128 H1144 0.931 . S
C1129 C1128 1.370 . S
C1129 C1133 1.408 . S
C1130 C1128 1.363 . S
C1130 C1131 1.370 . S
C1130 C1134 1.524 . S
C1131 C1123 1.503 . S
C1131 C1130 1.370 . S
C1131 C1132 1.403 . S
C1132 C1131 1.403 . S
C1132 C1133 1.404 . S
C1132 C1135 1.539 . S
C1133 C1129 1.408 . S
C1133 C1132 1.404 . S
C1133 H1145 0.930 . S
C1134 C1130 1.524 . S
C1134 H1146 0.956 . S
C1134 H1147 0.961 . S
C1134 H1148 0.961 . S
C1135 C1132 1.539 . S
C1135 H1149 0.958 . S
C1135 H1150 0.961 . S
C1135 H1151 0.960 . S
H1136 C1120 0.931 . S
H1137 C1125 0.929 . S
H1138 C1126 0.960 . S
H1139 C1126 0.962 . S
H1140 C1126 0.960 . S
H1141 C1127 0.961 . S
H1142 C1127 0.961 . S
H1143 C1127 0.961 . S
H1144 C1128 0.931 . S
H1145 C1133 0.930 . S
H1146 C1134 0.956 . S
H1147 C1134 0.961 . S
H1148 C1134 0.961 . S
H1149 C1135 0.958 . S
H1150 C1135 0.961 . S
H1151 C1135 0.960 . S
C1152 C1153 1.391 . S
C1152 C1154 1.394 . S
C1152 H1168 0.931 . S
C1153 C1152 1.391 . S
C1153 C1157 1.376 . S
C1154 C1152 1.394 . S
C1154 C1155 1.369 . S
C1154 C1158 1.531 . S
C1155 C1154 1.369 . S
C1155 C1156 1.410 . S
C1155 C1163 1.503 . S
C1156 C1155 1.410 . S
C1156 C1157 1.392 . S
C1156 C1159 1.511 . S
C1157 C1153 1.376 . S
C1157 C1156 1.392 . S
C1157 H1169 0.929 . S
C1158 C1154 1.531 . S
C1158 H1170 0.960 . S
C1158 H1171 0.962 . S
C1158 H1172 0.960 . S
C1159 C1156 1.511 . S
C1159 H1173 0.961 . S
C1159 H1174 0.961 . S
C1159 H1175 0.961 . S
C1160 C1161 1.370 . S
C1160 C1162 1.363 . S
C1160 H1176 0.931 . S
C1161 C1160 1.370 . S
C1161 C1165 1.408 . S
C1162 C1160 1.363 . S
C1162 C1163 1.370 . S
C1162 C1166 1.524 . S
C1163 C1155 1.503 . S
C1163 C1162 1.370 . S
C1163 C1164 1.403 . S
C1164 C1163 1.403 . S
C1164 C1165 1.404 . S
C1164 C1167 1.539 . S
C1165 C1161 1.408 . S
C1165 C1164 1.404 . S
C1165 H1177 0.930 . S
C1166 C1162 1.524 . S
C1166 H1178 0.956 . S
C1166 H1179 0.961 . S
C1166 H1180 0.961 . S
C1167 C1164 1.539 . S
C1167 H1181 0.958 . S
C1167 H1182 0.961 . S
C1167 H1183 0.960 . S
H1168 C1152 0.931 . S
H1169 C1157 0.929 . S
H1170 C1158 0.960 . S
H1171 C1158 0.962 . S
H1172 C1158 0.960 . S
H1173 C1159 0.961 . S
H1174 C1159 0.961 . S
H1175 C1159 0.961 . S
H1176 C1160 0.931 . S
H1177 C1165 0.930 . S
H1178 C1166 0.956 . S
H1179 C1166 0.961 . S
H1180 C1166 0.961 . S
H1181 C1167 0.958 . S
H1182 C1167 0.961 . S
H1183 C1167 0.960 . S
C1184 C1185 1.391 . S
C1184 C1186 1.394 . S
C1184 H1200 0.931 . S
C1185 C1184 1.391 . S
C1185 C1189 1.376 . S
C1186 C1184 1.394 . S
C1186 C1187 1.369 . S
C1186 C1190 1.531 . S
C1187 C1186 1.369 . S
C1187 C1188 1.410 . S
C1187 C1195 1.503 . S
C1188 C1187 1.410 . S
C1188 C1189 1.392 . S
C1188 C1191 1.511 . S
C1189 C1185 1.376 . S
C1189 C1188 1.392 . S
C1189 H1201 0.929 . S
C1190 C1186 1.531 . S
C1190 H1202 0.960 . S
C1190 H1203 0.962 . S
C1190 H1204 0.960 . S
C1191 C1188 1.511 . S
C1191 H1205 0.961 . S
C1191 H1206 0.961 . S
C1191 H1207 0.961 . S
C1192 C1193 1.370 . S
C1192 C1194 1.363 . S
C1192 H1208 0.931 . S
C1193 C1192 1.370 . S
C1193 C1197 1.408 . S
C1194 C1192 1.363 . S
C1194 C1195 1.370 . S
C1194 C1198 1.524 . S
C1195 C1187 1.503 . S
C1195 C1194 1.370 . S
C1195 C1196 1.403 . S
C1196 C1195 1.403 . S
C1196 C1197 1.404 . S
C1196 C1199 1.539 . S
C1197 C1193 1.408 . S
C1197 C1196 1.404 . S
C1197 H1209 0.930 . S
C1198 C1194 1.524 . S
C1198 H1210 0.956 . S
C1198 H1211 0.961 . S
C1198 H1212 0.961 . S
C1199 C1196 1.539 . S
C1199 H1213 0.958 . S
C1199 H1214 0.961 . S
C1199 H1215 0.960 . S
H1200 C1184 0.931 . S
H1201 C1189 0.929 . S
H1202 C1190 0.960 . S
H1203 C1190 0.962 . S
H1204 C1190 0.960 . S
H1205 C1191 0.961 . S
H1206 C1191 0.961 . S
H1207 C1191 0.961 . S
H1208 C1192 0.931 . S
H1209 C1197 0.930 . S
H1210 C1198 0.956 . S
H1211 C1198 0.961 . S
H1212 C1198 0.961 . S
H1213 C1199 0.958 . S
H1214 C1199 0.961 . S
H1215 C1199 0.960 . S
C1216 C1217 1.391 . S
C1216 C1218 1.394 . S
C1216 H1232 0.931 . S
C1217 C1216 1.391 . S
C1217 C1221 1.376 . S
C1218 C1216 1.394 . S
C1218 C1219 1.369 . S
C1218 C1222 1.531 . S
C1219 C1218 1.369 . S
C1219 C1220 1.410 . S
C1219 C1227 1.503 . S
C1220 C1219 1.410 . S
C1220 C1221 1.392 . S
C1220 C1223 1.511 . S
C1221 C1217 1.376 . S
C1221 C1220 1.392 . S
C1221 H1233 0.929 . S
C1222 C1218 1.531 . S
C1222 H1234 0.960 . S
C1222 H1235 0.962 . S
C1222 H1236 0.960 . S
C1223 C1220 1.511 . S
C1223 H1237 0.961 . S
C1223 H1238 0.961 . S
C1223 H1239 0.961 . S
C1224 C1225 1.370 . S
C1224 C1226 1.363 . S
C1224 H1240 0.931 . S
C1225 C1224 1.370 . S
C1225 C1229 1.408 . S
C1226 C1224 1.363 . S
C1226 C1227 1.370 . S
C1226 C1230 1.524 . S
C1227 C1219 1.503 . S
C1227 C1226 1.370 . S
C1227 C1228 1.403 . S
C1228 C1227 1.403 . S
C1228 C1229 1.404 . S
C1228 C1231 1.539 . S
C1229 C1225 1.408 . S
C1229 C1228 1.404 . S
C1229 H1241 0.930 . S
C1230 C1226 1.524 . S
C1230 H1242 0.956 . S
C1230 H1243 0.961 . S
C1230 H1244 0.961 . S
C1231 C1228 1.539 . S
C1231 H1245 0.958 . S
C1231 H1246 0.961 . S
C1231 H1247 0.960 . S
H1232 C1216 0.931 . S
H1233 C1221 0.929 . S
H1234 C1222 0.960 . S
H1235 C1222 0.962 . S
H1236 C1222 0.960 . S
H1237 C1223 0.961 . S
H1238 C1223 0.961 . S
H1239 C1223 0.961 . S
H1240 C1224 0.931 . S
H1241 C1229 0.930 . S
H1242 C1230 0.956 . S
H1243 C1230 0.961 . S
H1244 C1230 0.961 . S
H1245 C1231 0.958 . S
H1246 C1231 0.961 . S
H1247 C1231 0.960 . S
C225 C9 1.188 . S
C233 C79 1.208 . S
C257 C65 1.185 . S
C265 C23 1.208 . S
C289 C37 1.225 . S
C297 C107 1.222 . S
C321 C93 1.186 . S
C329 C51 1.209 . S
C353 C191 1.253 . S
C361 C121 1.236 . S
C385 C177 1.186 . S
C393 C135 1.210 . S
C417 C219 1.250 . S
C425 C149 1.234 . S
C449 C163 1.248 . S
C457 C205 1.233 . S
C481 C19 1.497 . S
C489 C5 1.504 . S
C513 C33 1.502 . S
C521 C47 1.502 . S
C545 C61 1.499 . S
C553 C75 1.504 . S
C577 C89 1.498 . S
C585 C103 1.504 . S
C609 C117 1.499 . S
C617 C131 1.503 . S
C641 C159 1.502 . S
C649 C145 1.502 . S
C673 C187 1.499 . S
C681 C173 1.502 . S
C705 C201 1.495 . S
C713 C215 1.504 . S
C737 C137 1.503 . S
C745 C11 1.517 . S
C769 C25 1.522 . S
C777 C123 1.514 . S
C801 C165 1.521 . S
C809 C39 1.517 . S
C833 C53 1.503 . S
C841 C151 1.518 . S
C865 C67 1.515 . S
C873 C193 1.520 . S
C897 C179 1.521 . S
C905 C81 1.519 . S
C929 C95 1.515 . S
C937 C221 1.512 . S
C961 C207 1.518 . S
C969 C109 1.520 . S
C993 C0 1.304 . S
C1001 C28 1.287 . S
C1025 C42 1.250 . S
C1033 C14 1.280 . S
C1057 C84 1.276 . S
C1065 C56 1.292 . S
C1089 C98 1.292 . S
C1097 C70 1.270 . S
C1121 C140 1.305 . S
C1129 C112 1.283 . S
C1153 C126 1.302 . S
C1161 C154 1.280 . S
C1185 C196 1.282 . S
C1193 C168 1.269 . S
C1217 C182 1.284 . S
C1225 C210 1.292 . S
