# Generated by pormake.
# Topology wjg, (4)-cn, num edge types: 1
# Building blocks:
#     Node 0, Type 0, BuildingBlock: UXUYUI_clean_sbu_0, # of connection points: 4
#     Node 1, Type 0, BuildingBlock: UXUYUI_clean_sbu_0, # of connection points: 4
#     Node 2, Type 0, BuildingBlock: UXUYUI_clean_sbu_0, # of connection points: 4
#     Node 3, Type 0, BuildingBlock: UXUYUI_clean_sbu_0, # of connection points: 4
#     Node 4, Type 0, BuildingBlock: UXUYUI_clean_sbu_0, # of connection points: 4
#     Node 5, Type 0, BuildingBlock: UXUYUI_clean_sbu_0, # of connection points: 4
#     Node 6, Type 0, BuildingBlock: UXUYUI_clean_sbu_0, # of connection points: 4
#     Node 7, Type 0, BuildingBlock: UXUYUI_clean_sbu_0, # of connection points: 4
#     Node 8, Type 0, BuildingBlock: UXUYUI_clean_sbu_0, # of connection points: 4
#     Node 9, Type 0, BuildingBlock: UXUYUI_clean_sbu_0, # of connection points: 4
#     Node 10, Type 0, BuildingBlock: UXUYUI_clean_sbu_0, # of connection points: 4
#     Node 11, Type 0, BuildingBlock: UXUYUI_clean_sbu_0, # of connection points: 4
#     Edge 12, Type (0, 0), BuildingBlock: AJUNOK_clean_linker_0, # of connection points: 2
#     Edge 13, Type (0, 0), BuildingBlock: AJUNOK_clean_linker_0, # of connection points: 2
#     Edge 14, Type (0, 0), BuildingBlock: AJUNOK_clean_linker_0, # of connection points: 2
#     Edge 15, Type (0, 0), BuildingBlock: AJUNOK_clean_linker_0, # of connection points: 2
#     Edge 16, Type (0, 0), BuildingBlock: AJUNOK_clean_linker_0, # of connection points: 2
#     Edge 17, Type (0, 0), BuildingBlock: AJUNOK_clean_linker_0, # of connection points: 2
#     Edge 18, Type (0, 0), BuildingBlock: AJUNOK_clean_linker_0, # of connection points: 2
#     Edge 19, Type (0, 0), BuildingBlock: AJUNOK_clean_linker_0, # of connection points: 2
#     Edge 20, Type (0, 0), BuildingBlock: AJUNOK_clean_linker_0, # of connection points: 2
#     Edge 21, Type (0, 0), BuildingBlock: AJUNOK_clean_linker_0, # of connection points: 2
#     Edge 22, Type (0, 0), BuildingBlock: AJUNOK_clean_linker_0, # of connection points: 2
#     Edge 23, Type (0, 0), BuildingBlock: AJUNOK_clean_linker_0, # of connection points: 2
#     Edge 24, Type (0, 0), BuildingBlock: AJUNOK_clean_linker_0, # of connection points: 2
#     Edge 25, Type (0, 0), BuildingBlock: AJUNOK_clean_linker_0, # of connection points: 2
#     Edge 26, Type (0, 0), BuildingBlock: AJUNOK_clean_linker_0, # of connection points: 2
#     Edge 27, Type (0, 0), BuildingBlock: AJUNOK_clean_linker_0, # of connection points: 2
#     Edge 28, Type (0, 0), BuildingBlock: AJUNOK_clean_linker_0, # of connection points: 2
#     Edge 29, Type (0, 0), BuildingBlock: AJUNOK_clean_linker_0, # of connection points: 2
#     Edge 30, Type (0, 0), BuildingBlock: AJUNOK_clean_linker_0, # of connection points: 2
#     Edge 31, Type (0, 0), BuildingBlock: AJUNOK_clean_linker_0, # of connection points: 2
#     Edge 32, Type (0, 0), BuildingBlock: AJUNOK_clean_linker_0, # of connection points: 2
#     Edge 33, Type (0, 0), BuildingBlock: AJUNOK_clean_linker_0, # of connection points: 2
#     Edge 34, Type (0, 0), BuildingBlock: AJUNOK_clean_linker_0, # of connection points: 2
#     Edge 35, Type (0, 0), BuildingBlock: AJUNOK_clean_linker_0, # of connection points: 2
# Relax obj value: 0.406
# Max RMSD: 0.171
# Mean RMSD: 0.170
data_MOF--net-wjg--node1-UXUYUI_clean_sbu_0--edge1-AJUNOK_clean_linker_0
_symmetry_space_group_name_H-M    P1
_symmetry_Int_Tables_number       1
_symmetry_cell_setting            triclinic
loop_
_symmetry_equiv_pos_as_xyz
'x, y, z'
_cell_length_a     42.779092
_cell_length_b     42.74912
_cell_length_c     43.621346
_cell_angle_alpha  90.030551
_cell_angle_beta   89.988084
_cell_angle_gamma 120.03097
loop_
_atom_site_label
_atom_site_type_symbol
_atom_site_fract_x
_atom_site_fract_y
_atom_site_fract_z
_atom_type_partial_charge
Li0 Li 0.20137 0.45779 0.30661 0.0
Li1 Li 0.15333 0.40894 0.33907 0.0
Li2 Li 0.19065 0.39554 0.30611 0.0
Li3 Li 0.14497 0.40483 0.28505 0.0
C4 C 0.23264 0.42814 0.35485 0.0
N5 N 0.28643 0.42141 0.38375 0.0
C6 C 0.22402 0.40322 0.37862 0.0
C7 C 0.26862 0.44972 0.34583 0.0
C8 C 0.2516 0.40021 0.39294 0.0
C9 C 0.29542 0.44589 0.36072 0.0
C10 C 0.13213 0.45641 0.33121 0.0
C11 C 0.0791 0.44509 0.35961 0.0
N12 N 0.09727 0.47937 0.37082 0.0
C13 C 0.15017 0.49164 0.34275 0.0
C14 C 0.09621 0.43304 0.33945 0.0
C15 C 0.13212 0.5027 0.36284 0.0
C16 C 0.24853 0.52878 0.28239 0.0
N17 N 0.23617 0.50751 0.30773 0.0
C18 C 0.27695 0.55616 0.33983 0.0
C19 C 0.24924 0.52061 0.33612 0.0
C20 C 0.29128 0.57843 0.31404 0.0
C21 C 0.27657 0.56457 0.28502 0.0
H22 H 0.23733 0.51767 0.26013 0.0
H23 H 0.23861 0.50309 0.35587 0.0
C24 C 0.12123 0.36703 0.39121 0.0
N25 N 0.13784 0.40128 0.38 0.0
C26 C 0.12474 0.36115 0.42221 0.0
C27 C 0.15952 0.4259 0.42959 0.0
C28 C 0.15557 0.43052 0.39855 0.0
C29 C 0.14552 0.39086 0.44139 0.0
H30 H 0.10887 0.34434 0.37561 0.0
H31 H 0.17033 0.45724 0.38866 0.0
C32 C 0.22031 0.42317 0.25209 0.0
N33 N 0.2687 0.41534 0.21544 0.0
C34 C 0.20983 0.39032 0.23736 0.0
C35 C 0.25547 0.45201 0.2482 0.0
C36 C 0.23467 0.38689 0.21895 0.0
C37 C 0.27951 0.44754 0.22955 0.0
C38 C 0.10934 0.33636 0.3019 0.0
C39 C 0.11408 0.31309 0.28241 0.0
C40 C 0.07448 0.32904 0.30906 0.0
C41 C 0.08378 0.2832 0.26991 0.0
C42 C 0.04487 0.2989 0.29606 0.0
N43 N 0.0501 0.27682 0.27689 0.0
C44 C 0.19625 0.33657 0.3244 0.0
C45 C 0.24939 0.38048 0.29939 0.0
C46 C 0.21244 0.31617 0.33151 0.0
N47 N 0.21469 0.36796 0.30845 0.0
C48 C 0.26649 0.36064 0.30564 0.0
C49 C 0.24795 0.32802 0.32194 0.0
H50 H 0.16938 0.32806 0.33273 0.0
H51 H 0.26436 0.40644 0.28835 0.0
C52 C 0.08698 0.40478 0.25324 0.0
N53 N 0.1099 0.39141 0.25332 0.0
C54 C 0.06108 0.39488 0.2301 0.0
C55 C 0.08274 0.35747 0.20785 0.0
C56 C 0.1084 0.36842 0.23111 0.0
C57 C 0.05889 0.37103 0.20693 0.0
H58 H 0.08884 0.42319 0.27108 0.0
H59 H 0.1268 0.35813 0.23162 0.0
O60 O 0.20594 0.43092 0.34007 0.0
O61 O 0.14945 0.44496 0.31174 0.0
O62 O 0.19624 0.42727 0.26989 0.0
O63 O 0.13867 0.36599 0.3141 0.0
H64 H 0.19632 0.38606 0.3857 0.0
H65 H 0.27569 0.46884 0.32722 0.0
H66 H 0.24529 0.38092 0.41128 0.0
H67 H 0.32335 0.46226 0.35386 0.0
H68 H 0.05137 0.42721 0.36632 0.0
H69 H 0.17781 0.51026 0.33632 0.0
H70 H 0.08175 0.40585 0.33046 0.0
H71 H 0.14582 0.52983 0.37208 0.0
H72 H 0.28801 0.56566 0.36249 0.0
H73 H 0.28706 0.58106 0.26463 0.0
H74 H 0.11387 0.33377 0.43053 0.0
H75 H 0.17659 0.44946 0.44339 0.0
H76 H 0.18307 0.36749 0.24055 0.0
H77 H 0.26429 0.47748 0.25965 0.0
H78 H 0.22695 0.36155 0.20758 0.0
H79 H 0.3068 0.46962 0.22639 0.0
H80 H 0.14087 0.31828 0.2767 0.0
H81 H 0.07033 0.34643 0.32446 0.0
H82 H 0.08705 0.26513 0.2546 0.0
H83 H 0.01774 0.29304 0.30124 0.0
H84 H 0.19764 0.29195 0.34517 0.0
H85 H 0.29407 0.37094 0.29815 0.0
H86 H 0.04315 0.40592 0.23022 0.0
H87 H 0.08129 0.33816 0.19103 0.0
Li88 Li 0.74278 0.20215 0.63723 0.0
Li89 Li 0.74618 0.15626 0.67039 0.0
Li90 Li 0.79536 0.19315 0.6358 0.0
Li91 Li 0.73972 0.1454 0.61634 0.0
C92 C 0.80511 0.23829 0.68229 0.0
N93 N 0.86566 0.2974 0.70617 0.0
C94 C 0.82189 0.23451 0.70839 0.0
C95 C 0.81892 0.27215 0.66846 0.0
C96 C 0.85252 0.26472 0.72008 0.0
C97 C 0.84962 0.3017 0.68085 0.0
C98 C 0.67653 0.12993 0.66312 0.0
C99 C 0.63712 0.07365 0.68866 0.0
N100 N 0.61966 0.08921 0.70229 0.0
C101 C 0.658 0.14528 0.67713 0.0
C102 C 0.66586 0.09377 0.6687 0.0
C103 C 0.62939 0.12428 0.69696 0.0
C104 C 0.72123 0.25197 0.61427 0.0
N105 N 0.72711 0.23623 0.63898 0.0
C106 C 0.71744 0.27399 0.67334 0.0
C107 C 0.72465 0.24613 0.66807 0.0
C108 C 0.7129 0.29195 0.64837 0.0
C109 C 0.71435 0.28042 0.61849 0.0
H110 H 0.7231 0.24331 0.59138 0.0
H111 H 0.72952 0.23309 0.68723 0.0
C112 C 0.7591 0.12686 0.72265 0.0
N113 N 0.74025 0.14223 0.71158 0.0
C114 C 0.76926 0.13127 0.75347 0.0
C115 C 0.73806 0.16479 0.76095 0.0
C116 C 0.72857 0.15981 0.7301 0.0
C117 C 0.76005 0.15185 0.77261 0.0
H118 H 0.76951 0.11462 0.70703 0.0
H119 H 0.71564 0.17363 0.72024 0.0
C120 C 0.79314 0.2177 0.57943 0.0
N121 N 0.84488 0.2604 0.53685 0.0
C122 C 0.81202 0.20415 0.56326 0.0
C123 C 0.80067 0.25304 0.57401 0.0
C124 C 0.83808 0.22615 0.54184 0.0
C125 C 0.82687 0.27417 0.55234 0.0
C126 C 0.77827 0.11376 0.63477 0.0
C127 C 0.80843 0.12082 0.61719 0.0
C128 C 0.75292 0.07815 0.64239 0.0
C129 C 0.81235 0.09198 0.60701 0.0
C130 C 0.75778 0.05005 0.63174 0.0
N131 N 0.78713 0.05749 0.6144 0.0
C132 C 0.85925 0.20385 0.65908 0.0
C133 C 0.86973 0.24949 0.62302 0.0
C134 C 0.89559 0.22165 0.66721 0.0
N135 N 0.84693 0.21803 0.63755 0.0
C136 C 0.90656 0.26782 0.62994 0.0
C137 C 0.91976 0.25435 0.65287 0.0
H138 H 0.8404 0.17944 0.67104 0.0
H139 H 0.85945 0.26124 0.60696 0.0
C140 C 0.68054 0.09084 0.5835 0.0
N141 N 0.71715 0.10888 0.58591 0.0
C142 C 0.66328 0.06387 0.56136 0.0
C143 C 0.72173 0.07461 0.54475 0.0
C144 C 0.73779 0.10157 0.56685 0.0
C145 C 0.684 0.05531 0.54179 0.0
H146 H 0.66473 0.09756 0.59861 0.0
H147 H 0.76676 0.11649 0.5688 0.0
O148 O 0.77586 0.20881 0.66986 0.0
O149 O 0.70487 0.15013 0.64391 0.0
O150 O 0.76708 0.19637 0.60012 0.0
O151 O 0.77399 0.14163 0.645 0.0
H152 H 0.81168 0.20844 0.71924 0.0
H153 H 0.80637 0.27543 0.64811 0.0
H154 H 0.86593 0.26215 0.74014 0.0
H155 H 0.86079 0.32802 0.67027 0.0
H156 H 0.62868 0.04567 0.69329 0.0
H157 H 0.66567 0.17312 0.67282 0.0
H158 H 0.67964 0.0814 0.65771 0.0
H159 H 0.61493 0.13586 0.70809 0.0
H160 H 0.71727 0.28261 0.69667 0.0
H161 H 0.71112 0.29388 0.59873 0.0
H162 H 0.78644 0.12115 0.76166 0.0
H163 H 0.73134 0.18174 0.77466 0.0
H164 H 0.80698 0.17714 0.56748 0.0
H165 H 0.78676 0.26421 0.58657 0.0
H166 H 0.85298 0.21603 0.52926 0.0
H167 H 0.83301 0.30157 0.54795 0.0
H168 H 0.82837 0.14823 0.61112 0.0
H169 H 0.72977 0.07227 0.65641 0.0
H170 H 0.83541 0.09702 0.59319 0.0
H171 H 0.73826 0.02234 0.63731 0.0
H172 H 0.90444 0.21047 0.68526 0.0
H173 H 0.92433 0.29249 0.61775 0.0
H174 H 0.63416 0.05025 0.55936 0.0
H175 H 0.73873 0.06876 0.53023 0.0
Li176 Li 0.59119 0.74813 0.00455 0.0
Li177 Li 0.54102 0.74344 0.97153 0.0
Li178 Li 0.59055 0.73367 0.95175 0.0
Li179 Li 0.60432 0.79238 0.96452 0.0
C180 C 0.54162 0.67922 0.00533 0.0
N181 N 0.52013 0.62889 0.05195 0.0
C182 C 0.50612 0.66238 0.01618 0.0
C183 C 0.56606 0.67014 0.01794 0.0
C184 C 0.49581 0.63708 0.03982 0.0
C185 C 0.55472 0.64474 0.04157 0.0
C186 C 0.57545 0.81288 0.00928 0.0
C187 C 0.55856 0.85877 0.00568 0.0
N188 N 0.58487 0.87935 0.02619 0.0
C189 C 0.60214 0.83435 0.03051 0.0
C190 C 0.55338 0.82508 0.99682 0.0
C191 C 0.60659 0.86795 0.03865 0.0
C192 C 0.63496 0.76849 0.05699 0.0
N193 N 0.6005 0.74827 0.04661 0.0
C194 C 0.57674 0.7545 0.0941 0.0
C195 C 0.5716 0.73991 0.0648 0.0
C196 C 0.61189 0.77821 0.10436 0.0
C197 C 0.64134 0.78367 0.08632 0.0
H198 H 0.65733 0.77627 0.04142 0.0
H199 H 0.54465 0.72548 0.05537 0.0
C200 C 0.46755 0.7194 0.95222 0.0
N201 N 0.49201 0.73051 0.97544 0.0
C202 C 0.43262 0.71304 0.95781 0.0
C203 C 0.44854 0.72792 0.01117 0.0
C204 C 0.48301 0.73421 0.00454 0.0
C205 C 0.42298 0.71758 0.98761 0.0
H206 H 0.4754 0.71635 0.92933 0.0
H207 H 0.503 0.74283 0.02256 0.0
C208 C 0.65918 0.76433 0.96556 0.0
N209 N 0.71235 0.75252 0.94201 0.0
C210 C 0.67632 0.78064 0.93805 0.0
C211 C 0.66955 0.74258 0.98141 0.0
C212 C 0.70298 0.77415 0.92641 0.0
C213 C 0.6964 0.73682 0.96906 0.0
C214 C 0.57169 0.78664 0.91157 0.0
C215 C 0.60196 0.80406 0.89253 0.0
C216 C 0.54408 0.79497 0.90907 0.0
C217 C 0.60411 0.82956 0.87134 0.0
C218 C 0.5472 0.82058 0.88754 0.0
N219 N 0.57691 0.83721 0.8693 0.0
C220 C 0.60265 0.71456 0.8932 0.0
C221 C 0.60941 0.6814 0.93365 0.0
C222 C 0.61488 0.69875 0.87195 0.0
N223 N 0.60106 0.70638 0.92345 0.0
C224 C 0.62192 0.66501 0.91319 0.0
C225 C 0.62554 0.67435 0.88203 0.0
H226 H 0.5954 0.73412 0.88565 0.0
H227 H 0.60761 0.67518 0.9578 0.0
C228 C 0.66593 0.85626 0.97698 0.0
N229 N 0.63479 0.84363 0.96076 0.0
C230 C 0.68745 0.89303 0.98294 0.0
C231 C 0.64574 0.90378 0.95381 0.0
C232 C 0.62447 0.86656 0.94904 0.0
C233 C 0.67737 0.91739 0.97152 0.0
H234 H 0.67283 0.83752 0.98727 0.0
H235 H 0.5988 0.85609 0.93765 0.0
O236 O 0.55228 0.70428 0.98237 0.0
O237 O 0.57161 0.78053 0.0001 0.0
O238 O 0.63226 0.7695 0.97681 0.0
O239 O 0.56875 0.7611 0.93209 0.0
H240 H 0.4867 0.66871 0.00642 0.0
H241 H 0.59362 0.68297 0.00988 0.0
H242 H 0.46846 0.62394 0.04852 0.0
H243 H 0.57344 0.63767 0.0517 0.0
H244 H 0.5418 0.86865 0.9961 0.0
H245 H 0.61964 0.82546 0.0402 0.0
H246 H 0.53281 0.80896 0.98015 0.0
H247 H 0.62736 0.88499 0.05483 0.0
H248 H 0.55351 0.74987 0.10756 0.0
H249 H 0.66876 0.80217 0.09359 0.0
H250 H 0.41355 0.70522 0.93907 0.0
H251 H 0.44242 0.73248 0.03428 0.0
H252 H 0.66891 0.79792 0.92574 0.0
H253 H 0.65675 0.72999 0.00286 0.0
H254 H 0.71621 0.7863 0.90498 0.0
H255 H 0.70446 0.71978 0.98092 0.0
H256 H 0.62365 0.79811 0.89416 0.0
H257 H 0.52064 0.7821 0.92373 0.0
H258 H 0.62742 0.84329 0.85655 0.0
H259 H 0.52607 0.82733 0.88543 0.0
H260 H 0.61725 0.70655 0.84806 0.0
H261 H 0.62929 0.64577 0.92169 0.0
H262 H 0.71063 0.90189 -0.00219 0.0
H263 H 0.63679 0.92157 0.94476 0.0
Li264 Li 0.83134 0.58268 0.33691 0.0
Li265 Li 0.78805 0.53597 0.30113 0.0
Li266 Li 0.84503 0.58829 0.28299 0.0
Li267 Li 0.79729 0.598 0.30046 0.0
C268 C 0.86054 0.54059 0.32779 0.0
N269 N 0.90471 0.52515 0.36314 0.0
C270 C 0.84552 0.51044 0.34706 0.0
C271 C 0.89804 0.5625 0.32607 0.0
C272 C 0.8683 0.5032 0.36489 0.0
C273 C 0.91992 0.55435 0.34423 0.0
C274 C 0.74708 0.55755 0.34319 0.0
C275 C 0.68392 0.53649 0.33479 0.0
N276 N 0.6824 0.55068 0.3623 0.0
C277 C 0.74494 0.57197 0.37135 0.0
C278 C 0.7164 0.5397 0.3247 0.0
C279 C 0.71197 0.56818 0.38062 0.0
C280 C 0.8583 0.62249 0.39137 0.0
N281 N 0.84175 0.58875 0.37901 0.0
C282 C 0.8128 0.56267 0.42644 0.0
C283 C 0.82044 0.55897 0.39607 0.0
C284 C 0.82728 0.59731 0.43908 0.0
C285 C 0.85167 0.62739 0.42184 0.0
H286 H 0.87344 0.64581 0.3769 0.0
H287 H 0.806 0.53281 0.38518 0.0
C288 C 0.73694 0.46696 0.27535 0.0
N289 N 0.75276 0.48662 0.301 0.0
C290 C 0.70804 0.43157 0.27799 0.0
C291 C 0.71313 0.43755 0.33318 0.0
C292 C 0.74188 0.47253 0.32949 0.0
C293 C 0.69536 0.41682 0.30727 0.0
H294 H 0.74612 0.47904 0.25299 0.0
H295 H 0.75481 0.48905 0.34942 0.0
C296 C 0.87989 0.65804 0.31071 0.0
N297 N 0.94398 0.7231 0.30821 0.0
C298 C 0.88034 0.68894 0.29964 0.0
C299 C 0.91192 0.66035 0.32095 0.0
C300 C 0.91304 0.72155 0.29844 0.0
C301 C 0.94408 0.69345 0.31938 0.0
C302 C 0.79698 0.58302 0.23686 0.0
C303 C 0.81204 0.62041 0.23437 0.0
C304 C 0.78452 0.56149 0.21059 0.0
C305 C 0.81441 0.63571 0.20558 0.0
C306 C 0.78733 0.57781 0.18219 0.0
N307 N 0.8021 0.61427 0.18029 0.0
C308 C 0.89363 0.57989 0.24455 0.0
C309 C 0.89768 0.63718 0.2415 0.0
C310 C 0.92148 0.59055 0.22314 0.0
N311 N 0.88261 0.60334 0.25347 0.0
C312 C 0.92571 0.64903 0.22036 0.0
C313 C 0.93795 0.62564 0.21104 0.0
H314 H 0.88092 0.553 0.25422 0.0
H315 H 0.88794 0.65505 0.24822 0.0
C316 C 0.78324 0.64701 0.32629 0.0
N317 N 0.77391 0.6255 0.30113 0.0
C318 C 0.76676 0.6673 0.3323 0.0
C319 C 0.73166 0.64354 0.28592 0.0
C320 C 0.74852 0.62311 0.28103 0.0
C321 C 0.7409 0.66609 0.31183 0.0
H322 H 0.8029 0.64755 0.3422 0.0
H323 H 0.74108 0.6051 0.26156 0.0
O324 O 0.83865 0.5482 0.31028 0.0
O325 O 0.77927 0.56156 0.33346 0.0
O326 O 0.8481 0.62587 0.31185 0.0
O327 O 0.79464 0.56741 0.26477 0.0
H328 H 0.81657 0.49286 0.34831 0.0
H329 H 0.91017 0.5854 0.31072 0.0
H330 H 0.85702 0.4801 0.38007 0.0
H331 H 0.94898 0.57117 0.3432 0.0
H332 H 0.65996 0.52282 0.32071 0.0
H333 H 0.76856 0.58622 0.38576 0.0
H334 H 0.71774 0.52876 0.30268 0.0
H335 H 0.70991 0.57925 0.40234 0.0
H336 H 0.79361 0.53901 0.43915 0.0
H337 H 0.86276 0.6545 0.43089 0.0
H338 H 0.69537 0.41618 0.25744 0.0
H339 H 0.70401 0.42737 0.35612 0.0
H340 H 0.85571 0.68772 0.2919 0.0
H341 H 0.91188 0.63694 0.33029 0.0
H342 H 0.91383 0.74563 0.28975 0.0
H343 H 0.96909 0.6956 0.32715 0.0
H344 H 0.82199 0.63748 0.25442 0.0
H345 H 0.77285 0.53248 0.21214 0.0
H346 H 0.82609 0.66464 0.20333 0.0
H347 H 0.7778 0.56148 0.16166 0.0
H348 H 0.9304 0.57186 0.21648 0.0
H349 H 0.93754 0.67615 0.21117 0.0
H350 H 0.77368 0.68317 0.35314 0.0
H351 H 0.71161 0.64169 0.26973 0.0
Li352 Li 0.25056 0.84588 0.67513 0.0
Li353 Li 0.2575 0.80209 0.64398 0.0
Li354 Li 0.26199 0.85886 0.62181 0.0
Li355 Li 0.20572 0.81113 0.63847 0.0
C356 C 0.3211 0.86423 0.6745 0.0
N357 N 0.37388 0.88444 0.71902 0.0
C358 C 0.33919 0.84484 0.67833 0.0
C359 C 0.3308 0.89466 0.69279 0.0
C360 C 0.36553 0.85526 0.70109 0.0
C361 C 0.35725 0.90421 0.71533 0.0
C362 C 0.19309 0.77783 0.69487 0.0
C363 C 0.15606 0.72908 0.72939 0.0
N364 N 0.13784 0.74637 0.73731 0.0
C365 C 0.17393 0.79509 0.70334 0.0
C366 C 0.18403 0.74451 0.70795 0.0
C367 C 0.14614 0.77878 0.72485 0.0
C368 C 0.23801 0.87555 0.73012 0.0
N369 N 0.25375 0.85765 0.71759 0.0
C370 C 0.25095 0.8292 0.76528 0.0
C371 C 0.26192 0.83626 0.73486 0.0
C372 C 0.23151 0.84442 0.77795 0.0
C373 C 0.22665 0.86933 0.76068 0.0
H374 H 0.23076 0.89151 0.71587 0.0
H375 H 0.27335 0.82147 0.72409 0.0
C376 C 0.27744 0.75155 0.62094 0.0
N377 N 0.27127 0.7665 0.64605 0.0
C378 C 0.28339 0.7224 0.62431 0.0
C379 C 0.27797 0.72586 0.67925 0.0
C380 C 0.27188 0.75462 0.67481 0.0
C381 C 0.28329 0.70906 0.65378 0.0
H382 H 0.27658 0.76147 0.59833 0.0
H383 H 0.26674 0.76705 0.6943 0.0
C384 C 0.23593 0.89826 0.65322 0.0
N385 N 0.25639 0.96941 0.66561 0.0
C386 C 0.20987 0.90784 0.66003 0.0
C387 C 0.27236 0.92495 0.65253 0.0
C388 C 0.22076 0.94392 0.6663 0.0
C389 C 0.28218 0.96074 0.65889 0.0
C390 C 0.20931 0.78653 0.58568 0.0
C391 C 0.19405 0.80127 0.56627 0.0
C392 C 0.19609 0.74929 0.58543 0.0
C393 C 0.16563 0.77842 0.54697 0.0
C394 C 0.16766 0.72735 0.56577 0.0
N395 N 0.15313 0.74224 0.54713 0.0
C396 C 0.31823 0.90619 0.58131 0.0
C397 C 0.26215 0.90447 0.57636 0.0
C398 C 0.33266 0.93065 0.55697 0.0
N399 N 0.2835 0.89357 0.59025 0.0
C400 C 0.27539 0.92873 0.55201 0.0
C401 C 0.31088 0.9417 0.54178 0.0
H402 H 0.33451 0.89696 0.59287 0.0
H403 H 0.2347 0.89409 0.58415 0.0
C404 C 0.13653 0.74921 0.63758 0.0
N405 N 0.15486 0.78559 0.63341 0.0
C406 C 0.09933 0.73107 0.64235 0.0
C407 C 0.10037 0.78787 0.63673 0.0
C408 C 0.13755 0.80489 0.63183 0.0
C409 C 0.08113 0.75075 0.64329 0.0
H410 H 0.15112 0.73467 0.63928 0.0
H411 H 0.15295 0.83383 0.62871 0.0
O412 O 0.29534 0.85425 0.65206 0.0
O413 O 0.21996 0.79294 0.67332 0.0
O414 O 0.22545 0.86295 0.64696 0.0
O415 O 0.2367 0.80839 0.60513 0.0
H416 H 0.33346 0.82231 0.66356 0.0
H417 H 0.31769 0.91047 0.69021 0.0
H418 H 0.37951 0.8403 0.70434 0.0
H419 H 0.36455 0.92734 0.7299 0.0
H420 H 0.14876 0.7033 0.73968 0.0
H421 H 0.18018 0.82064 0.69317 0.0
H422 H 0.19829 0.73057 0.70145 0.0
H423 H 0.13109 0.79182 0.73154 0.0
H424 H 0.25517 0.8099 0.77808 0.0
H425 H 0.21143 0.88125 0.76978 0.0
H426 H 0.28725 0.70993 0.60414 0.0
H427 H 0.27696 0.71588 0.70226 0.0
H428 H 0.18153 0.88755 0.66077 0.0
H429 H 0.29287 0.91826 0.64683 0.0
H430 H 0.20088 0.95166 0.67174 0.0
H431 H 0.3103 0.98164 0.6584 0.0
H432 H 0.20383 0.82999 0.56629 0.0
H433 H 0.20728 0.73736 0.60056 0.0
H434 H 0.15347 0.78944 0.53192 0.0
H435 H 0.15703 0.69846 0.56545 0.0
H436 H 0.36021 0.94026 0.54973 0.0
H437 H 0.25808 0.93731 0.54131 0.0
H438 H 0.08522 0.70223 0.64654 0.0
H439 H 0.08721 0.80391 0.63712 0.0
Li440 Li 0.45992 0.25576 0.97065 0.0
Li441 Li 0.41196 0.25607 0.00319 0.0
Li442 Li 0.39675 0.20545 0.96934 0.0
Li443 Li 0.40829 0.26199 0.94922 0.0
C444 C 0.43012 0.1939 0.01647 0.0
N445 N 0.42464 0.13206 0.04165 0.0
C446 C 0.40858 0.17812 0.04232 0.0
C447 C 0.44905 0.17836 0.00353 0.0
C448 C 0.40613 0.14684 0.0547 0.0
C449 C 0.44587 0.14705 0.01657 0.0
C450 C 0.45944 0.32429 0.99641 0.0
C451 C 0.44695 0.36547 0.02439 0.0
N452 N 0.48048 0.38094 0.03705 0.0
C453 C 0.49389 0.34078 0.00946 0.0
C454 C 0.43586 0.33688 0.00371 0.0
C455 C 0.50398 0.36931 0.03005 0.0
C456 C 0.53108 0.27528 0.94832 0.0
N457 N 0.50906 0.26853 0.9729 0.0
C458 C 0.55494 0.27376 0.00717 0.0
C459 C 0.52053 0.26843 0.00193 0.0
C460 C 0.57785 0.27936 0.98226 0.0
C461 C 0.56582 0.28054 0.95251 0.0
H462 H 0.52132 0.2755 0.9255 0.0
H463 H 0.50245 0.26319 0.02104 0.0
C464 C 0.36985 0.24587 0.05496 0.0
N465 N 0.40431 0.26294 0.0443 0.0
C466 C 0.3629 0.23407 0.08535 0.0
C467 C 0.4272 0.2606 0.09345 0.0
C468 C 0.43292 0.27188 0.06303 0.0
C469 C 0.39173 0.23952 0.10431 0.0
H470 H 0.34763 0.23778 0.03915 0.0
H471 H 0.45977 0.28362 0.05347 0.0
C472 C 0.42437 0.20467 0.91413 0.0
N473 N 0.41511 0.15059 0.87401 0.0
C474 C 0.39214 0.18536 0.89773 0.0
C475 C 0.45183 0.19633 0.9102 0.0
C476 C 0.38798 0.15813 0.87756 0.0
C477 C 0.44666 0.16896 0.88977 0.0
C478 C 0.33849 0.22758 0.96621 0.0
C479 C 0.3148 0.1979 0.94838 0.0
C480 C 0.33055 0.25495 0.97228 0.0
C481 C 0.2838 0.19644 0.93644 0.0
C482 C 0.29932 0.25254 0.95986 0.0
N483 N 0.2768 0.2236 0.94233 0.0
C484 C 0.34097 0.14331 0.99324 0.0
C485 C 0.37575 0.12997 0.95906 0.0
C486 C 0.32186 0.10747 0.00291 0.0
N487 N 0.36772 0.15401 0.97205 0.0
C488 C 0.35663 0.0936 0.96748 0.0
C489 C 0.33008 0.08218 0.99044 0.0
H490 H 0.33593 0.16314 0.00403 0.0
H491 H 0.39804 0.139 0.94335 0.0
C492 C 0.41206 0.32194 0.9176 0.0
N493 N 0.39555 0.28524 0.91839 0.0
C494 C 0.40148 0.33907 0.89605 0.0
C495 C 0.35733 0.28034 0.87659 0.0
C496 C 0.36912 0.26446 0.89807 0.0
C497 C 0.37346 0.31802 0.87556 0.0
H498 H 0.43314 0.33789 0.93392 0.0
H499 H 0.35662 0.23548 0.89887 0.0
O500 O 0.43193 0.22384 0.00339 0.0
O501 O 0.4489 0.29606 0.97648 0.0
O502 O 0.42928 0.23193 0.93353 0.0
O503 O 0.36908 0.2296 0.97797 0.0
H504 H 0.39344 0.18955 0.05243 0.0
H505 H 0.46557 0.19004 0.98334 0.0
H506 H 0.38937 0.13421 0.07458 0.0
H507 H 0.46015 0.13457 0.00666 0.0
H508 H 0.4289 0.37537 0.03037 0.0
H509 H 0.51261 0.33161 0.00383 0.0
H510 H 0.40925 0.32461 0.99358 0.0
H511 H 0.53049 0.38222 0.04045 0.0
H512 H 0.56294 0.27198 0.03037 0.0
H513 H 0.58284 0.2848 0.93276 0.0
H514 H 0.33522 0.21829 0.09313 0.0
H515 H 0.4501 0.26501 0.10726 0.0
H516 H 0.37034 0.19086 0.90088 0.0
H517 H 0.47675 0.21058 0.92293 0.0
H518 H 0.36312 0.1429 0.86483 0.0
H519 H 0.46768 0.16222 0.88654 0.0
H520 H 0.3205 0.17644 0.94348 0.0
H521 H 0.34836 0.27785 0.98635 0.0
H522 H 0.26536 0.17378 0.9224 0.0
H523 H 0.29297 0.27366 0.96419 0.0
H524 H 0.30187 0.09999 0.02086 0.0
H525 H 0.36324 0.07487 0.95663 0.0
H526 H 0.41438 0.36827 0.89584 0.0
H527 H 0.33574 0.26336 0.86094 0.0
Li528 Li 0.59762 0.85616 0.37269 0.0
Li529 Li 0.60499 0.80857 0.35165 0.0
Li530 Li 0.5976 0.84819 0.31747 0.0
Li531 Li 0.54502 0.80126 0.348 0.0
C532 C 0.66703 0.8946 0.34614 0.0
N533 N 0.72665 0.9633 0.34635 0.0
C534 C 0.70001 0.9004 0.35765 0.0
C535 C 0.66453 0.92361 0.33431 0.0
C536 C 0.7298 0.93536 0.35769 0.0
C537 C 0.69493 0.95817 0.33472 0.0
C538 C 0.58198 0.78902 0.40906 0.0
C539 C 0.56796 0.73982 0.44375 0.0
N540 N 0.60229 0.75814 0.45478 0.0
C541 C 0.61709 0.80738 0.42076 0.0
C542 C 0.55716 0.75497 0.42061 0.0
C543 C 0.62685 0.79129 0.44385 0.0
C544 C 0.58467 0.89853 0.4148 0.0
N545 N 0.60984 0.89035 0.40476 0.0
C546 C 0.65366 0.93295 0.43937 0.0
C547 C 0.64357 0.90638 0.417 0.0
C548 C 0.62851 0.94244 0.4497 0.0
C549 C 0.59347 0.92468 0.43756 0.0
H550 H 0.55792 0.88507 0.40483 0.0
H551 H 0.66276 0.89871 0.40938 0.0
C552 C 0.66123 0.79884 0.33509 0.0
N553 N 0.63044 0.78271 0.35198 0.0
C554 C 0.68027 0.78096 0.32922 0.0
C555 C 0.63601 0.73027 0.35883 0.0
C556 C 0.61746 0.749 0.36378 0.0
C557 C 0.66779 0.74625 0.34121 0.0
H558 H 0.67009 0.82501 0.3249 0.0
H559 H 0.59208 0.73606 0.37595 0.0
C560 C 0.55292 0.87774 0.32932 0.0
N561 N 0.53523 0.9257 0.30304 0.0
C562 C 0.52319 0.8652 0.30972 0.0
C563 C 0.57315 0.91462 0.33609 0.0
C564 C 0.51484 0.88988 0.29649 0.0
C565 C 0.56392 0.93844 0.32244 0.0
C566 C 0.57323 0.76646 0.30321 0.0
C567 C 0.59746 0.77153 0.27964 0.0
C568 C 0.54995 0.73166 0.31421 0.0
C569 C 0.59821 0.74163 0.2676 0.0
C570 C 0.55152 0.70244 0.30155 0.0
N571 N 0.57543 0.708 0.27873 0.0
C572 C 0.6431 0.87533 0.26638 0.0
C573 C 0.58049 0.85127 0.25735 0.0
C574 C 0.6488 0.87105 0.23554 0.0
N575 N 0.60913 0.86427 0.27672 0.0
C576 C 0.58496 0.84651 0.22641 0.0
C577 C 0.61918 0.85486 0.21554 0.0
H578 H 0.66504 0.88345 0.28243 0.0
H579 H 0.55357 0.84043 0.26647 0.0
C580 C 0.47425 0.74941 0.36893 0.0
N581 N 0.49527 0.76797 0.34466 0.0
C582 C 0.43888 0.72138 0.36408 0.0
C583 C 0.44732 0.73339 0.30963 0.0
C584 C 0.48247 0.76086 0.31549 0.0
C585 C 0.42526 0.71276 0.33402 0.0
H586 H 0.48536 0.75546 0.39184 0.0
H587 H 0.50012 0.77577 0.29665 0.0
O588 O 0.63762 0.8605 0.34619 0.0
O589 O 0.57205 0.80422 0.38627 0.0
O590 O 0.56124 0.85387 0.34273 0.0
O591 O 0.57271 0.79548 0.31583 0.0
H592 H 0.70242 0.87815 0.36677 0.0
H593 H 0.6396 0.91937 0.32441 0.0
H594 H 0.75542 0.9403 0.36675 0.0
H595 H 0.69334 0.98088 0.32565 0.0
H596 H 0.54908 0.71345 0.45287 0.0
H597 H 0.63672 0.8335 0.41175 0.0
H598 H 0.52995 0.74028 0.41164 0.0
H599 H 0.65399 0.80512 0.45302 0.0
H600 H 0.68081 0.94591 0.44861 0.0
H601 H 0.57349 0.93149 0.44512 0.0
H602 H 0.7038 0.79373 0.31452 0.0
H603 H 0.62532 0.70338 0.36822 0.0
H604 H 0.50677 0.83672 0.30469 0.0
H605 H 0.5956 0.92478 0.3519 0.0
H606 H 0.49207 0.88054 0.28109 0.0
H607 H 0.57948 0.96705 0.32737 0.0
H608 H 0.61578 0.79829 0.27097 0.0
H609 H 0.53122 0.72731 0.3326 0.0
H610 H 0.61696 0.74518 0.24947 0.0
H611 H 0.53382 0.67538 0.30995 0.0
H612 H 0.67547 0.87742 0.22799 0.0
H613 H 0.56125 0.83291 0.21198 0.0
H614 H 0.42303 0.70559 0.38347 0.0
H615 H 0.43782 0.72763 0.28616 0.0
Li616 Li 0.80454 0.60896 0.69049 0.0
Li617 Li 0.74673 0.59818 0.71156 0.0
Li618 Li 0.7521 0.54742 0.69031 0.0
Li619 Li 0.75176 0.59209 0.65599 0.0
C620 C 0.80379 0.58675 0.74805 0.0
N621 N 0.85703 0.60384 0.79147 0.0
C622 C 0.80407 0.60448 0.77506 0.0
C623 C 0.83055 0.57761 0.74317 0.0
C624 C 0.83122 0.61292 0.79672 0.0
C625 C 0.85724 0.58651 0.76538 0.0
C626 C 0.78333 0.66905 0.68583 0.0
C627 C 0.7638 0.71238 0.67732 0.0
N628 N 0.79277 0.73741 0.69349 0.0
C629 C 0.81318 0.69535 0.70198 0.0
C630 C 0.75867 0.67773 0.67305 0.0
C631 C 0.81736 0.7297 0.70576 0.0
C632 C 0.8678 0.64183 0.65887 0.0
N633 N 0.8556 0.63877 0.6881 0.0
C634 C 0.91575 0.6773 0.7062 0.0
C635 C 0.87855 0.65685 0.71159 0.0
C636 C 0.92912 0.67922 0.67638 0.0
C637 C 0.90453 0.66159 0.65252 0.0
H638 H 0.84888 0.62841 0.64041 0.0
H639 H 0.86811 0.65555 0.7344 0.0
C640 C 0.69102 0.58664 0.75231 0.0
N641 N 0.72519 0.61125 0.74355 0.0
C642 C 0.67408 0.59479 0.77579 0.0
C643 C 0.72815 0.65304 0.78139 0.0
C644 C 0.74399 0.64379 0.75778 0.0
C645 C 0.69278 0.62833 0.79067 0.0
H646 H 0.67692 0.56068 0.74097 0.0
H647 H 0.77147 0.66239 0.75117 0.0
C648 C 0.79206 0.54866 0.64286 0.0
N649 N 0.80393 0.49699 0.61581 0.0
C650 C 0.76563 0.52193 0.62418 0.0
C651 C 0.82449 0.54893 0.6479 0.0
C652 C 0.77212 0.49606 0.61072 0.0
C653 C 0.83001 0.52266 0.63395 0.0
C654 C 0.68209 0.55729 0.67078 0.0
C655 C 0.65847 0.52832 0.65223 0.0
C656 C 0.67538 0.58567 0.67596 0.0
C657 C 0.62851 0.52819 0.63932 0.0
C658 C 0.64512 0.58455 0.66268 0.0
N659 N 0.6225 0.55606 0.64478 0.0
C660 C 0.70393 0.47204 0.68442 0.0
C661 C 0.76416 0.48886 0.69725 0.0
C662 C 0.69572 0.43657 0.67859 0.0
N663 N 0.73804 0.49755 0.69246 0.0
C664 C 0.75729 0.45395 0.69143 0.0
C665 C 0.72303 0.42769 0.68111 0.0
H666 H 0.68361 0.47959 0.68106 0.0
H667 H 0.79103 0.50953 0.70354 0.0
C668 C 0.77131 0.63403 0.60433 0.0
N669 N 0.74554 0.60119 0.61483 0.0
C670 C 0.78133 0.63849 0.57355 0.0
C671 C 0.73599 0.57615 0.56458 0.0
C672 C 0.72642 0.57305 0.59546 0.0
C673 C 0.76537 0.60853 0.55386 0.0
H674 H 0.78693 0.6556 0.62034 0.0
H675 H 0.70677 0.547 0.60445 0.0
O676 O 0.77719 0.57797 0.72675 0.0
O677 O 0.77901 0.63539 0.68167 0.0
O678 O 0.78585 0.57379 0.65679 0.0
O679 O 0.71184 0.55811 0.6834 0.0
H680 H 0.7834 0.61142 0.7794 0.0
H681 H 0.83133 0.5647 0.72214 0.0
H682 H 0.83174 0.62663 0.81772 0.0
H683 H 0.87828 0.57989 0.76176 0.0
H684 H 0.74485 0.71942 0.66765 0.0
H685 H 0.83267 0.68917 0.71181 0.0
H686 H 0.73602 0.65806 0.65969 0.0
H687 H 0.84015 0.75021 0.71845 0.0
H688 H 0.93375 0.69158 0.72507 0.0
H689 H 0.91363 0.6625 0.62918 0.0
H690 H 0.64681 0.575 0.78245 0.0
H691 H 0.74329 0.67936 0.79207 0.0
H692 H 0.73996 0.52049 0.62079 0.0
H693 H 0.84498 0.56879 0.66284 0.0
H694 H 0.75175 0.47507 0.59644 0.0
H695 H 0.85494 0.52254 0.63772 0.0
H696 H 0.66342 0.5064 0.64735 0.0
H697 H 0.69337 0.60845 0.68999 0.0
H698 H 0.61013 0.506 0.62484 0.0
H699 H 0.63968 0.60637 0.66656 0.0
H700 H 0.66897 0.41689 0.67065 0.0
H701 H 0.77889 0.44787 0.69384 0.0
H702 H 0.80347 0.66418 0.5659 0.0
H703 H 0.72296 0.55241 0.5501 0.0
Li704 Li 0.19437 0.8069 0.036 0.0
Li705 Li 0.14594 0.74671 0.04989 0.0
Li706 Li 0.2054 0.75425 0.03102 0.0
Li707 Li 0.1633 0.76072 -0.00293 0.0
C708 C 0.21209 0.79608 0.09342 0.0
N709 N 0.2468 0.84082 0.14264 0.0
C710 C 0.19583 0.81268 0.10916 0.0
C711 C 0.24592 0.80209 0.10274 0.0
C712 C 0.21385 0.83527 0.13397 0.0
C713 C 0.26304 0.82483 0.12769 0.0
C714 C 0.10962 0.77893 0.02328 0.0
C715 C 0.04761 0.74615 0.00657 0.0
N716 N 0.04102 0.7699 0.02203 0.0
C717 C 0.1024 0.80332 0.03864 0.0
C718 C 0.08216 0.75038 0.00681 0.0
C719 C 0.06748 0.79817 0.03789 0.0
C720 C 0.2028 0.8722 0.02014 0.0
N721 N 0.2169 0.85774 0.03964 0.0
C722 C 0.26565 0.91646 0.05211 0.0
C723 C 0.24755 0.87894 0.05581 0.0
C724 C 0.25287 0.93197 0.03062 0.0
C725 C 0.22047 0.90931 0.01513 0.0
H726 H 0.17895 0.8546 0.00695 0.0
H727 H 0.25884 0.86684 0.07055 0.0
C728 C 0.09481 0.68571 0.08381 0.0
N729 N 0.10806 0.72151 0.07848 0.0
C730 C 0.06738 0.6675 0.10538 0.0
C731 C 0.0682 0.72349 0.11568 0.0
C732 C 0.09564 0.74056 0.09412 0.0
C733 C 0.05368 0.68649 0.12153 0.0
H734 H 0.1058 0.6714 0.07152 0.0
H735 H 0.10722 0.76913 0.09005 0.0
C736 C 0.23308 0.80245 0.97508 0.0
N737 N 0.26791 0.82081 0.91905 0.0
C738 C 0.24233 0.77905 0.96052 0.0
C739 C 0.24166 0.83523 0.96117 0.0
C740 C 0.25981 0.78876 0.93216 0.0
C741 C 0.25934 0.84405 0.93288 0.0
C742 C 0.13453 0.68691 0.00199 0.0
C743 C 0.15102 0.67229 0.98385 0.0
C744 C 0.09689 0.67026 0.00257 0.0
C745 C 0.12958 0.64176 0.96601 0.0
C746 C 0.07638 0.63974 0.98443 0.0
N747 N 0.09301 0.62627 0.96665 0.0
C748 C 0.2345 0.70692 0.03122 0.0
C749 C 0.276 0.76993 0.02887 0.0
C750 C 0.26219 0.69936 0.02534 0.0
N751 N 0.24185 0.74175 0.03206 0.0
C752 C 0.30435 0.76364 0.0229 0.0
C753 C 0.29743 0.72802 0.02032 0.0
H754 H 0.20697 0.68508 0.03363 0.0
H755 H 0.28083 0.7973 0.02937 0.0
C756 C 0.14461 0.78631 0.94592 0.0
N757 N 0.15203 0.76024 0.95487 0.0
C758 C 0.14951 0.79768 0.91545 0.0
C759 C 0.1676 0.75378 0.90371 0.0
C760 C 0.16174 0.74282 0.93426 0.0
C761 C 0.16328 0.78285 0.89436 0.0
H762 H 0.1381 0.80062 0.96283 0.0
H763 H 0.16913 0.72346 0.94197 0.0
O764 O 0.19499 0.77395 0.06906 0.0
O765 O 0.14369 0.78363 0.02386 0.0
O766 O 0.21604 0.79347 0.00293 0.0
O767 O 0.1551 0.71647 0.01998 0.0
H768 H 0.16983 0.80856 0.10205 0.0
H769 H 0.25879 0.78933 0.09082 0.0
H770 H 0.20169 0.84846 0.14628 0.0
H771 H 0.28925 0.82978 0.13515 0.0
H772 H 0.02606 0.7241 0.99397 0.0
H773 H 0.1235 0.82579 0.05126 0.0
H774 H 0.0876 0.73199 0.994 0.0
H775 H 0.06142 0.81665 0.0499 0.0
H776 H 0.28994 0.93294 0.06525 0.0
H777 H 0.20976 0.91989 -0.00189 0.0
H778 H 0.05747 0.63913 0.10975 0.0
H779 H 0.05837 0.73909 0.12763 0.0
H780 H 0.23554 0.75336 0.97073 0.0
H781 H 0.23482 0.85372 0.97208 0.0
H782 H 0.26686 0.77078 0.92055 0.0
H783 H 0.26637 0.86945 0.92197 0.0
H784 H 0.18011 0.68476 0.98313 0.0
H785 H 0.08358 0.68056 0.01708 0.0
H786 H 0.14202 0.63041 0.95163 0.0
H787 H 0.04722 0.62668 0.9846 0.0
H788 H 0.25585 0.67154 0.02328 0.0
H789 H 0.33127 0.78639 0.01943 0.0
H790 H 0.14489 0.81949 0.90899 0.0
H791 H 0.17853 0.74179 0.8883 0.0
Li792 Li 0.38725 0.18839 0.35455 0.0
Li793 Li 0.39456 0.13787 0.3699 0.0
Li794 Li 0.44615 0.19205 0.34889 0.0
Li795 Li 0.39665 0.15115 0.31571 0.0
C796 C 0.40569 0.18817 0.41614 0.0
N797 N 0.37759 0.18664 0.47352 0.0
C798 C 0.36839 0.17188 0.42025 0.0
C799 C 0.42873 0.20368 0.44121 0.0
C800 C 0.35469 0.17137 0.44942 0.0
C801 C 0.414 0.20265 0.47004 0.0
C802 C 0.32245 0.10738 0.34344 0.0
C803 C 0.28196 0.04544 0.32905 0.0
N804 N 0.25418 0.04716 0.34251 0.0
C805 C 0.29339 0.10873 0.35671 0.0
C806 C 0.31663 0.07567 0.32912 0.0
C807 C 0.25913 0.07792 0.35617 0.0
C808 C 0.34223 0.2083 0.33059 0.0
N809 N 0.36201 0.21403 0.35645 0.0
C810 C 0.34373 0.2548 0.37554 0.0
C811 C 0.36346 0.23693 0.37878 0.0
C812 C 0.32275 0.24904 0.34905 0.0
C813 C 0.32254 0.22575 0.32629 0.0
H814 H 0.34231 0.19047 0.31301 0.0
H815 H 0.38009 0.24159 0.39884 0.0
C816 C 0.40489 0.09189 0.40969 0.0
N817 N 0.3802 0.1008 0.3998 0.0
C818 C 0.39541 0.06499 0.43183 0.0
C819 C 0.33552 0.05743 0.43341 0.0
C820 C 0.34616 0.08447 0.41141 0.0
C821 C 0.36019 0.04722 0.44367 0.0
H822 H 0.43192 0.10566 0.40029 0.0
H823 H 0.32731 0.09266 0.40396 0.0
C824 C 0.43795 0.23976 0.31238 0.0
N825 N 0.47735 0.31265 0.29914 0.0
C826 C 0.44759 0.2513 0.28213 0.0
C827 C 0.4483 0.26525 0.33592 0.0
C828 C 0.46752 0.28828 0.27589 0.0
C829 C 0.46822 0.30199 0.32874 0.0
C830 C 0.4323 0.11341 0.32489 0.0
C831 C 0.46123 0.12087 0.3055 0.0
C832 C 0.40551 0.07757 0.32997 0.0
C833 C 0.46244 0.09237 0.29096 0.0
C834 C 0.40769 0.04981 0.31503 0.0
N835 N 0.43585 0.05772 0.29596 0.0
C836 C 0.51564 0.24804 0.36886 0.0
C837 C 0.50954 0.22832 0.3172 0.0
C838 C 0.55031 0.2768 0.36281 0.0
N839 N 0.49598 0.22505 0.34593 0.0
C840 C 0.54378 0.2567 0.31011 0.0
C841 C 0.56411 0.28185 0.33287 0.0
H842 H 0.50371 0.24521 0.39128 0.0
H843 H 0.49276 0.21013 0.29932 0.0
C844 C 0.35435 0.13346 0.26297 0.0
N845 N 0.38699 0.14042 0.27389 0.0
C846 C 0.35127 0.14275 0.2329 0.0
C847 C 0.41485 0.16398 0.22558 0.0
C848 C 0.41666 0.15399 0.25563 0.0
C849 C 0.38227 0.15996 0.21456 0.0
H850 H 0.33176 0.12472 0.27844 0.0
H851 H 0.44261 0.16129 0.26542 0.0
O852 O 0.41978 0.18865 0.38788 0.0
O853 O 0.35616 0.13736 0.34381 0.0
O854 O 0.41957 0.20364 0.31902 0.0
O855 O 0.43082 0.14106 0.33938 0.0
H856 H 0.35021 0.1598 0.40113 0.0
H857 H 0.45769 0.21632 0.43841 0.0
H858 H 0.32585 0.15883 0.4529 0.0
H859 H 0.43151 0.21455 0.48965 0.0
H860 H 0.2771 0.02068 0.31812 0.0
H861 H 0.29727 0.13327 0.36741 0.0
H862 H 0.33847 0.07457 0.31773 0.0
H863 H 0.23645 0.07849 0.36656 0.0
H864 H 0.34484 0.27288 0.39345 0.0
H865 H 0.30784 0.22155 0.30505 0.0
H866 H 0.4152 0.05792 0.4394 0.0
H867 H 0.3084 0.04498 0.44265 0.0
H868 H 0.43996 0.2319 0.26369 0.0
H869 H 0.44142 0.25674 0.35951 0.0
H870 H 0.47527 0.29761 0.25259 0.0
H871 H 0.47655 0.32202 0.34673 0.0
H872 H 0.48255 0.14839 0.30169 0.0
H873 H 0.38334 0.07114 0.34539 0.0
H874 H 0.48458 0.0978 0.27576 0.0
H875 H 0.38704 0.02196 0.31868 0.0
H876 H 0.56529 0.29602 0.38079 0.0
H877 H 0.55369 0.25988 0.2868 0.0
H878 H 0.32592 0.13995 0.22516 0.0
H879 H 0.43932 0.17763 0.21203 0.0
Li880 Li 0.2543 0.40038 0.7085 0.0
Li881 Li 0.19716 0.39189 0.69264 0.0
Li882 Li 0.24134 0.40201 0.65426 0.0
Li883 Li 0.24881 0.45304 0.68807 0.0
C884 C 0.2236 0.33267 0.6783 0.0
N885 N 0.23631 0.27594 0.66975 0.0
C886 C 0.19858 0.29806 0.68865 0.0
C887 C 0.25473 0.33827 0.66312 0.0
C888 C 0.20559 0.26977 0.68427 0.0
C889 C 0.26077 0.3093 0.65913 0.0
C890 C 0.20647 0.41368 0.75164 0.0
C891 C 0.17585 0.4261 0.79214 0.0
N892 N 0.16198 0.39163 0.80244 0.0
C893 C 0.19192 0.3784 0.7626 0.0
C894 C 0.1984 0.43777 0.76646 0.0
C895 C 0.16947 0.36776 0.78832 0.0
C896 C 0.31099 0.41414 0.74958 0.0
N897 N 0.27875 0.38802 0.73829 0.0
C898 C 0.27962 0.34397 0.77131 0.0
C899 C 0.26282 0.35354 0.74887 0.0
C900 C 0.31292 0.37025 0.78348 0.0
C901 C 0.32865 0.40582 0.77239 0.0
H902 H 0.32274 0.44151 0.7411 0.0
H903 H 0.23676 0.33348 0.7403 0.0
C904 C 0.13101 0.33678 0.6762 0.0
N905 N 0.14607 0.36512 0.69597 0.0
C906 C 0.09391 0.31811 0.67124 0.0
C907 C 0.08801 0.35676 0.70846 0.0
C908 C 0.12549 0.37524 0.71228 0.0
C909 C 0.07192 0.32845 0.68701 0.0
H910 H 0.14813 0.33 0.66291 0.0
H911 H 0.13812 0.39851 0.72717 0.0
C912 C 0.31707 0.44735 0.66346 0.0
N913 N 0.38221 0.46709 0.63516 0.0
C914 C 0.33295 0.47734 0.64403 0.0
C915 C 0.3348 0.42791 0.66904 0.0
C916 C 0.36574 0.48674 0.62977 0.0
C917 C 0.36757 0.43816 0.65438 0.0
C918 C 0.18184 0.42586 0.64917 0.0
C919 C 0.16052 0.40386 0.62517 0.0
C920 C 0.17126 0.4475 0.66495 0.0
C921 C 0.12871 0.40364 0.6175 0.0
C922 C 0.13927 0.44655 0.65656 0.0
N923 N 0.11882 0.4248 0.63324 0.0
C924 C 0.21813 0.35966 0.60102 0.0
C925 C 0.2557 0.42292 0.59423 0.0
C926 C 0.20467 0.35604 0.57126 0.0
N927 N 0.24217 0.39295 0.61212 0.0
C928 C 0.24284 0.42055 0.56451 0.0
C929 C 0.21561 0.38711 0.55347 0.0
H930 H 0.20611 0.33662 0.6162 0.0
H931 H 0.27304 0.44919 0.60417 0.0
C932 C 0.26807 0.52409 0.71017 0.0
N933 N 0.2643 0.50275 0.68573 0.0
C934 C 0.27521 0.55946 0.70548 0.0
C935 C 0.27562 0.5502 0.6508 0.0
C936 C 0.26821 0.51513 0.65652 0.0
C937 C 0.2786 0.57268 0.6754 0.0
H938 H 0.26435 0.5133 0.73314 0.0
H939 H 0.26441 0.49723 0.63757 0.0
O940 O 0.21699 0.36055 0.68251 0.0
O941 O 0.22822 0.42449 0.72634 0.0
O942 O 0.28521 0.43809 0.67799 0.0
O943 O 0.21243 0.42553 0.65771 0.0
H944 H 0.17416 0.29323 0.70022 0.0
H945 H 0.27361 0.3645 0.65396 0.0
H946 H 0.18661 0.24292 0.69238 0.0
H947 H 0.28479 0.31329 0.64743 0.0
H948 H 0.16931 0.44441 0.80383 0.0
H949 H 0.19745 0.35929 0.75107 0.0
H950 H 0.20922 0.46509 0.75811 0.0
H951 H 0.15789 0.34048 0.79698 0.0
H952 H 0.26657 0.31622 0.77915 0.0
H953 H 0.35388 0.42709 0.78165 0.0
H954 H 0.08279 0.29678 0.65424 0.0
H955 H 0.07198 0.3651 0.72163 0.0
H956 H 0.32013 0.49324 0.63996 0.0
H957 H 0.3235 0.4052 0.68464 0.0
H958 H 0.37817 0.50974 0.6145 0.0
H959 H 0.38143 0.42321 0.65837 0.0
H960 H 0.16821 0.3868 0.61284 0.0
H961 H 0.18728 0.46442 0.68378 0.0
H962 H 0.11184 0.38659 0.59909 0.0
H963 H 0.13061 0.46297 0.6687 0.0
H964 H 0.18335 0.32995 0.56346 0.0
H965 H 0.25172 0.44502 0.55128 0.0
H966 H 0.27654 0.57567 0.72504 0.0
H967 H 0.27812 0.55937 0.62731 0.0
Li968 Li 0.8099 0.19304 0.02256 0.0
Li969 Li 0.85665 0.25035 0.04101 0.0
Li970 Li 0.79805 0.2435 0.02047 0.0
Li971 Li 0.8438 0.24075 0.98624 0.0
C972 C 0.79442 0.19792 0.08195 0.0
N973 N 0.77074 0.15033 0.13068 0.0
C974 C 0.8162 0.18495 0.09362 0.0
C975 C 0.76061 0.18674 0.09502 0.0
C976 C 0.80372 0.16087 0.11827 0.0
C977 C 0.74913 0.16266 0.11967 0.0
C978 C 0.89574 0.22192 0.00956 0.0
C979 C 0.95715 0.25893 0.9923 0.0
N980 N 0.96489 0.23346 0.00241 0.0
C981 C 0.90413 0.19587 0.01937 0.0
C982 C 0.9223 0.25349 0.99558 0.0
C983 C 0.93931 0.2023 0.01572 0.0
C984 C 0.80098 0.13051 -0.00058 0.0
N985 N 0.78785 0.14186 0.02259 0.0
C986 C 0.74258 0.08101 0.03362 0.0
C987 C 0.75919 0.11806 0.03973 0.0
C988 C 0.75511 0.06862 0.00925 0.0
C989 C 0.7847 0.09403 0.99205 0.0
H990 H 0.82297 0.15017 0.98549 0.0
H991 H 0.74834 0.12771 0.05729 0.0
C992 C 0.89768 0.30585 0.08357 0.0
N993 N 0.89295 0.27449 0.07129 0.0
C994 C 0.92453 0.32439 0.10556 0.0
C995 C 0.94085 0.27792 0.10184 0.0
C996 C 0.91342 0.26005 0.08039 0.0
C997 C 0.94669 0.31053 0.11449 0.0
H998 H 0.88072 0.3165 0.07612 0.0
H999 H 0.90841 0.23456 0.07118 0.0
C1000 C 0.76053 0.17938 0.97927 0.0
N1001 N 0.69857 0.11715 0.96176 0.0
C1002 C 0.76061 0.16062 0.95306 0.0
C1003 C 0.72893 0.16662 0.99653 0.0
C1004 C 0.72902 0.12916 0.94462 0.0
C1005 C 0.69787 0.13509 0.98729 0.0
C1006 C 0.87182 0.31497 -0.00101 0.0
C1007 C 0.85785 0.33231 0.98118 0.0
C1008 C 0.90898 0.3321 0.00442 0.0
C1009 C 0.8814 0.366 0.96834 0.0
C1010 C 0.93165 0.36581 0.99121 0.0
N1011 N 0.91752 0.38191 0.97355 0.0
C1012 C 0.74363 0.2594 0.04245 0.0
C1013 C 0.75572 0.263 0.9891 0.0
C1014 C 0.71544 0.26647 0.03731 0.0
N1015 N 0.76274 0.25749 0.01834 0.0
C1016 C 0.7281 0.2703 0.98296 0.0
C1017 C 0.70722 0.27163 0.00715 0.0
H1018 H 0.74957 0.25444 0.06544 0.0
H1019 H 0.77114 0.26082 0.97041 0.0
C1020 C 0.86421 0.22133 0.93202 0.0
N1021 N 0.85495 0.24485 0.94426 0.0
C1022 C 0.85465 0.20938 0.90187 0.0
C1023 C 0.82879 0.24815 0.89705 0.0
C1024 C 0.83896 0.25949 0.92717 0.0
C1025 C 0.83482 0.22128 0.88484 0.0
H1026 H 0.87487 0.20844 0.94657 0.0
H1027 H 0.82997 0.27634 0.93796 0.0
O1028 O 0.80605 0.22133 0.05776 0.0
O1029 O 0.86139 0.21591 0.01307 0.0
O1030 O 0.79151 0.20949 0.98854 0.0
O1031 O 0.84906 0.28216 0.01207 0.0
H1032 H 0.84225 0.19306 0.08351 0.0
H1033 H 0.74337 0.19639 0.08609 0.0
H1034 H 0.82022 0.15049 0.12748 0.0
H1035 H 0.72301 0.1537 0.13 0.0
H1036 H 0.978 0.28329 0.98157 0.0
H1037 H 0.88371 0.1711 0.02997 0.0
H1038 H 0.9159 0.27324 0.98683 0.0
H1039 H 0.94627 0.18252 0.02345 0.0
H1040 H 0.71968 0.06236 0.04735 0.0
H1041 H 0.79434 0.08612 0.97223 0.0
H1042 H 0.92835 0.34946 0.1151 0.0
H1043 H 0.95718 0.26627 0.1087 0.0
H1044 H 0.78492 0.17001 0.9396 0.0
H1045 H 0.72856 0.18061 0.01709 0.0
H1046 H 0.72874 0.11424 0.92448 0.0
H1047 H 0.67327 0.12477 0.0005 0.0
H1048 H 0.82912 0.31987 0.97725 0.0
H1049 H 0.92027 0.31966 0.01883 0.0
H1050 H 0.87095 0.37957 0.95432 0.0
H1051 H 0.96048 0.37926 0.99511 0.0
H1052 H 0.69946 0.26657 0.05652 0.0
H1053 H 0.72268 0.2742 0.95943 0.0
H1054 H 0.85927 0.1883 0.89315 0.0
H1055 H 0.81344 0.25777 0.88442 0.0
C1056 C 0.35445 0.62366 0.29968 0.0
C1057 C 0.32362 0.61469 0.31732 0.0
C1058 C 0.38689 0.65584 0.30482 0.0
C1059 C 0.38967 0.68036 0.3277 0.0
H1060 H 0.35395 0.60497 0.28263 0.0
H1061 H 0.41032 0.66091 0.29147 0.0
S1062 S 0.31539 0.67134 0.3776 0.0
N1063 N 0.29688 0.63398 0.35687 0.0
N1064 N 0.35789 0.69486 0.36633 0.0
C1065 C 0.35859 0.67238 0.34465 0.0
C1066 C 0.32556 0.63948 0.33949 0.0
C1067 C 0.73714 0.35771 0.64025 0.0
C1068 C 0.71112 0.32516 0.65381 0.0
C1069 C 0.74017 0.39066 0.64879 0.0
C1070 C 0.71705 0.39216 0.67093 0.0
H1071 H 0.7564 0.3579 0.624 0.0
H1072 H 0.76122 0.41528 0.63843 0.0
S1073 S 0.64258 0.31433 0.71133 0.0
N1074 N 0.66043 0.29612 0.68903 0.0
N1075 N 0.66605 0.3583 0.70496 0.0
C1076 C 0.68984 0.35972 0.6836 0.0
C1077 C 0.68695 0.32614 0.67511 0.0
C1078 C 0.37744 0.73607 0.97632 0.0
C1079 C 0.38786 0.71526 0.99386 0.0
C1080 C 0.34751 0.73917 0.98465 0.0
C1081 C 0.32678 0.72137 0.01068 0.0
H1082 H 0.39349 0.75142 0.95683 0.0
H1083 H 0.34096 0.75625 0.97095 0.0
S1084 S 0.34094 0.66102 0.06266 0.0
N1085 N 0.37372 0.67451 0.03714 0.0
N1086 N 0.31743 0.68054 0.05291 0.0
C1087 C 0.33584 0.69909 0.02757 0.0
C1088 C 0.36646 0.69606 0.01917 0.0
C1089 C 0.63024 0.32424 0.33994 0.0
C1090 C 0.59791 0.31505 0.32465 0.0
C1091 C 0.66206 0.35657 0.33327 0.0
C1092 C 0.66249 0.38096 0.31132 0.0
H1093 H 0.63086 0.3064 0.35727 0.0
H1094 H 0.68641 0.3628 0.34573 0.0
S1095 S 0.58397 0.36992 0.26631 0.0
N1096 N 0.56772 0.33284 0.28721 0.0
N1097 N 0.62725 0.39398 0.27509 0.0
C1098 C 0.63022 0.37186 0.29579 0.0
C1099 C 0.59797 0.33883 0.30241 0.0
C1100 C 0.2613 0.64437 0.64159 0.0
C1101 C 0.28517 0.67566 0.65795 0.0
C1102 C 0.25978 0.61141 0.6472 0.0
C1103 C 0.2822 0.6085 0.66928 0.0
H1104 H 0.24275 0.64506 0.62507 0.0
H1105 H 0.24014 0.58779 0.63469 0.0
S1106 S 0.3519 0.68339 0.7161 0.0
N1107 N 0.33331 0.70238 0.69573 0.0
N1108 N 0.33077 0.64036 0.70605 0.0
C1109 C 0.30696 0.63984 0.68516 0.0
C1110 C 0.3084 0.67343 0.67952 0.0
C1111 C 0.65114 0.25459 0.97723 0.0
C1112 C 0.67551 0.27581 0.00038 0.0
C1113 C 0.62034 0.25694 0.97079 0.0
C1114 C 0.61266 0.28052 0.9873 0.0
H1115 H 0.6554 0.23528 0.96448 0.0
H1116 H 0.60176 0.23925 0.95344 0.0
S1117 S 0.6695 0.3444 0.04813 0.0
N1118 N 0.69119 0.32298 0.03839 0.0
N1119 N 0.63299 0.32723 0.0264 0.0
C1120 C 0.63725 0.30262 0.00994 0.0
C1121 C 0.66871 0.30027 0.01648 0.0
C1122 C 0.30138 0.32486 0.34156 0.0
C1123 C 0.26599 0.30709 0.32976 0.0
C1124 C 0.31918 0.30576 0.34869 0.0
C1125 C 0.30225 0.26819 0.34424 0.0
H1126 H 0.31548 0.3538 0.3453 0.0
H1127 H 0.34673 0.32068 0.35697 0.0
S1128 S 0.20926 0.20866 0.31516 0.0
N1129 N 0.21455 0.24964 0.3143 0.0
N1130 N 0.24744 0.2136 0.32885 0.0
C1131 C 0.26654 0.24996 0.33322 0.0
C1132 C 0.24855 0.26941 0.32573 0.0
C1133 C 0.97667 0.25488 0.66723 0.0
C1134 C 0.95839 0.27411 0.66217 0.0
C1135 C 0.01298 0.27258 0.67603 0.0
C1136 C 0.03271 0.31032 0.67989 0.0
H1137 H 0.96296 0.22588 0.66396 0.0
H1138 H 0.02577 0.2565 0.67968 0.0
S1139 S 0.99733 0.37325 0.67014 0.0
N1140 N 0.96233 0.33292 0.6631 0.0
N1141 N 0.03127 0.36647 0.67778 0.0
C1142 C 0.01476 0.32994 0.6751 0.0
C1143 C 0.97753 0.31181 0.66658 0.0
C1144 C 0.6981 0.01011 -0.00062 0.0
C1145 C 0.73607 0.02979 0.00041 0.0
C1146 C 0.67946 0.97403 0.98968 0.0
C1147 C 0.69801 0.95622 0.98027 0.0
H1148 H 0.68256 0.0228 0.00573 0.0
H1149 H 0.65022 0.95988 0.98994 0.0
S1150 S 0.79752 0.99557 0.97868 0.0
N1151 N 0.79159 0.02829 0.99218 0.0
N1152 N 0.75665 0.96134 0.97196 0.0
C1153 C 0.73601 0.97564 0.98097 0.0
C1154 C 0.75498 0.01217 0.99145 0.0
C1155 C 0.66749 0.69013 0.32412 0.0
C1156 C 0.68699 0.72627 0.33409 0.0
C1157 C 0.68514 0.67106 0.31637 0.0
C1158 C 0.72295 0.68744 0.31828 0.0
H1159 H 0.63837 0.67656 0.322 0.0
H1160 H 0.66901 0.6431 0.30933 0.0
S1161 S 0.78649 0.78168 0.34261 0.0
N1162 N 0.74615 0.77756 0.34577 0.0
N1163 N 0.77942 0.74231 0.32986 0.0
C1164 C 0.74278 0.72371 0.32785 0.0
C1165 C 0.72481 0.74297 0.33604 0.0
C1166 C 0.01802 0.73845 0.6355 0.0
C1167 C 0.04273 0.73313 0.6527 0.0
C1168 C 0.98153 0.72165 0.6438 0.0
C1169 C 0.96841 0.699 0.66968 0.0
H1170 H 0.02682 0.75524 0.61516 0.0
H1171 H 0.96338 0.72626 0.6297 0.0
S1172 S 0.02268 0.67801 0.72337 0.0
N1173 N 0.05212 0.7054 0.69781 0.0
N1174 N 0.98328 0.6728 0.71283 0.0
C1175 C 0.99303 0.69411 0.68747 0.0
C1176 C 0.03022 0.71133 0.67908 0.0
C1177 C 0.27397 0.02618 0.00722 0.0
C1178 C 0.31143 0.04436 0.00192 0.0
C1179 C 0.25558 0.99037 0.01753 0.0
C1180 C 0.27379 0.97106 0.0227 0.0
H1181 H 0.25852 0.03948 0.00284 0.0
H1182 H 0.22671 0.97759 0.02115 0.0
S1183 S 0.37234 0.00693 0.01372 0.0
N1184 N 0.3666 0.04121 0.0047 0.0
N1185 N 0.33173 0.97315 0.02202 0.0
C1186 C 0.31141 0.98912 0.01798 0.0
C1187 C 0.33025 0.02585 0.00799 0.0
C1188 C 0.9678 0.33335 0.16752 0.0
C1189 C 0.97593 0.32964 0.13702 0.0
C1190 C 0.99499 0.34783 0.18991 0.0
C1191 C 0.03118 0.35927 0.1824 0.0
H1192 H 0.94009 0.32373 0.17431 0.0
H1193 H 0.98739 0.34883 0.21343 0.0
S1194 S 0.0666 0.35962 0.10462 0.0
N1195 N 0.02257 0.34106 0.09977 0.0
N1196 N 0.07395 0.36936 0.14149 0.0
C1197 C 0.03972 0.35736 0.15155 0.0
C1198 C 0.01202 0.34226 0.12893 0.0
C1199 C 0.68186 0.03325 0.48836 0.0
C1200 C 0.66693 0.02678 0.51802 0.0
C1201 C 0.66857 0.006 0.46615 0.0
C1202 C 0.63957 0.97142 0.47266 0.0
H1203 H 0.70438 0.0595 0.48235 0.0
H1204 H 0.68136 0.01185 0.44381 0.0
S1205 S 0.59062 0.94028 0.54637 0.0
N1206 N 0.62141 0.98293 0.5526 0.0
N1207 N 0.59584 0.93195 0.51032 0.0
C1208 C 0.62358 0.96473 0.50177 0.0
C1209 C 0.63737 0.99238 0.52459 0.0
C1210 C 0.62467 0.64521 0.83209 0.0
C1211 C 0.64189 0.6602 0.86013 0.0
C1212 C 0.64092 0.63407 0.81007 0.0
C1213 C 0.67513 0.63793 0.81521 0.0
H1214 H 0.59859 0.6424 0.82702 0.0
H1215 H 0.62705 0.62331 0.78852 0.0
S1216 S 0.73101 0.67468 0.88525 0.0
N1217 N 0.69471 0.67783 0.89208 0.0
N1218 N 0.72505 0.65642 0.85084 0.0
C1219 C 0.69231 0.65221 0.8434 0.0
C1220 C 0.67571 0.66341 0.86586 0.0
C1221 C 0.02838 0.68531 0.17339 0.0
C1222 C 0.02486 0.66844 0.14487 0.0
C1223 C 0.00047 0.67067 0.19497 0.0
C1224 C 0.9681 0.63846 0.18896 0.0
H1225 H 0.05277 0.71033 0.17893 0.0
H1226 H 0.00404 0.68489 0.21641 0.0
S1227 S 0.94515 0.58365 0.11799 0.0
N1228 N 0.98634 0.61768 0.11183 0.0
N1229 N 0.93399 0.58986 0.15279 0.0
C1230 C 0.96449 0.62071 0.16097 0.0
C1231 C 0.99287 0.63576 0.13883 0.0
C1232 C 0.36944 0.02538 0.49424 0.0
C1233 C 0.34914 0.01867 0.4672 0.0
C1234 C 0.35749 -0.00013 0.518 0.0
C1235 C 0.32489 0.96686 0.51543 0.0
H1236 H 0.39404 0.05102 0.49749 0.0
H1237 H 0.37321 0.00652 0.53892 0.0
S1238 S 0.26465 0.93438 0.44754 0.0
N1239 N 0.29689 0.97536 0.43799 0.0
N1240 N 0.27448 0.92738 0.48256 0.0
C1241 C 0.3053 0.9592 0.48792 0.0
C1242 C 0.31742 0.98512 0.46382 0.0
C1243 C 0.32349 0.32535 0.85457 0.0
C1244 C 0.35996 0.33474 0.85357 0.0
C1245 C 0.30894 0.33803 0.83239 0.0
C1246 C 0.33021 0.3602 0.80812 0.0
H1247 H 0.30598 0.30767 0.87245 0.0
H1248 H 0.28062 0.32997 0.83403 0.0
S1249 S 0.42741 0.39215 0.79536 0.0
N1250 N 0.41731 0.36778 0.82701 0.0
N1251 N 0.38982 0.39101 0.78462 0.0
C1252 C 0.36701 0.37038 0.80727 0.0
C1253 C 0.3819 0.35773 0.83015 0.0
C1254 C 0.17502 0.36475 0.47373 0.0
C1255 C 0.15828 0.38592 0.47157 0.0
C1256 C 0.19293 0.36448 0.50057 0.0
C1257 C 0.19501 0.38571 0.52588 0.0
H1258 H 0.17571 0.3496 0.45408 0.0
H1259 H 0.20629 0.34864 0.50116 0.0
S1260 S 0.15178 0.44194 0.53335 0.0
N1261 N 0.14194 0.42565 0.49813 0.0
N1262 N 0.17604 0.42556 0.5484 0.0
C1263 C 0.177 0.4056 0.52454 0.0
C1264 C 0.15855 0.40563 0.4974 0.0
C1265 C 0.83433 0.19951 0.83149 0.0
C1266 C 0.81542 0.20166 0.85693 0.0
C1267 C 0.81595 0.18176 0.80466 0.0
C1268 C 0.77805 0.16518 0.80263 0.0
H1269 H 0.86352 0.21252 0.83205 0.0
H1270 H 0.83166 0.18229 0.78497 0.0
S1271 S 0.71603 0.15912 0.86466 0.0
N1272 N 0.75679 0.18319 0.87959 0.0
N1273 N 0.7222 0.14918 0.8294 0.0
C1274 C 0.75882 0.16566 0.82853 0.0
C1275 C 0.77752 0.18404 0.85564 0.0
C1276 C 0.63822 0.81853 0.18393 0.0
C1277 C 0.62225 0.84045 0.18552 0.0
C1278 C 0.63594 0.79925 0.15721 0.0
C1279 C 0.61726 0.80099 0.13146 0.0
H1280 H 0.65102 0.81482 0.20394 0.0
H1281 H 0.64749 0.78175 0.15711 0.0
S1282 S 0.575 0.85792 0.12243 0.0
N1283 N 0.59053 0.86557 0.15793 0.0
N1284 N 0.58562 0.82877 0.10792 0.0
C1285 C 0.6028 0.82413 0.1322 0.0
C1286 C 0.60541 0.84398 0.15921 0.0
C1287 C 0.77559 0.59002 0.47055 0.0
C1288 C 0.81273 0.60221 0.46817 0.0
C1289 C 0.76063 0.59345 0.498 0.0
C1290 C 0.78229 0.60911 0.52404 0.0
H1291 H 0.75797 0.5776 0.45102 0.0
H1292 H 0.73183 0.58337 0.49897 0.0
S1293 S 0.88107 0.64414 0.52955 0.0
N1294 N 0.87085 0.63039 0.49367 0.0
N1295 N 0.84284 0.63602 0.54577 0.0
C1296 C 0.81964 0.6217 0.52176 0.0
C1297 C 0.83485 0.61846 0.49368 0.0
C1298 C 0.17131 0.77798 0.83814 0.0
C1299 C 0.17726 0.79989 0.86402 0.0
C1300 C 0.18859 0.79286 0.81031 0.0
C1301 C 0.21225 0.83023 0.80722 0.0
H1302 H 0.1538 0.74897 0.83959 0.0
H1303 H 0.18379 0.7749 0.79113 0.0
S1304 S 0.23649 0.89971 0.86735 0.0
N1305 N 0.20828 0.86127 0.88442 0.0
N1306 N 0.24002 0.88905 0.83163 0.0
C1307 C 0.21746 0.8527 0.83237 0.0
C1308 C 0.20012 0.83757 0.86089 0.0
C1309 C 0.40433 0.21723 0.18567 0.0
C1310 C 0.38233 0.17943 0.18666 0.0
C1311 C 0.40581 0.23674 0.15945 0.0
C1312 C 0.38541 0.21911 0.13327 0.0
H1313 H 0.42071 0.2318 0.20529 0.0
H1314 H 0.42362 0.26577 0.15942 0.0
S1315 S 0.32404 0.12023 0.12436 0.0
N1316 N 0.33952 0.125 0.15976 0.0
N1317 N 0.34285 0.16142 0.10991 0.0
C1318 C 0.3628 0.18127 0.13421 0.0
C1319 C 0.36113 0.16147 0.16108 0.0
loop_
_geom_bond_atom_site_label_1
_geom_bond_atom_site_label_2
_geom_bond_distance
_geom_bond_site_symmetry_2
_ccdc_geom_bond_type
Li0 N17 1.990 . S
Li0 O60 1.956 . S
Li0 O61 1.970 . S
Li0 O62 1.961 . S
Li1 N25 1.990 . S
Li1 O60 1.970 . S
Li1 O61 1.956 . S
Li1 O63 1.961 . S
Li2 N47 1.990 . S
Li2 O60 1.961 . S
Li2 O62 1.956 . S
Li2 O63 1.970 . S
Li3 N53 1.990 . S
Li3 O61 1.961 . S
Li3 O62 1.970 . S
Li3 O63 1.956 . S
C4 C6 1.348 . S
C4 C7 1.356 . S
C4 O60 1.325 . S
N5 C8 1.314 . S
N5 C9 1.279 . S
C6 C4 1.348 . S
C6 C8 1.353 . S
C6 H64 0.929 . S
C7 C4 1.356 . S
C7 C9 1.358 . S
C7 H65 0.930 . S
C8 N5 1.314 . S
C8 C6 1.353 . S
C8 H66 0.930 . S
C9 N5 1.279 . S
C9 C7 1.358 . S
C9 H67 0.930 . S
C10 C13 1.348 . S
C10 C14 1.356 . S
C10 O61 1.325 . S
C11 N12 1.279 . S
C11 C14 1.358 . S
C11 H68 0.930 . S
N12 C11 1.279 . S
N12 C15 1.314 . S
C13 C10 1.348 . S
C13 C15 1.353 . S
C13 H69 0.929 . S
C14 C10 1.356 . S
C14 C11 1.358 . S
C14 H70 0.930 . S
C15 N12 1.314 . S
C15 C13 1.353 . S
C15 H71 0.930 . S
C16 N17 1.314 . S
C16 C21 1.353 . S
C16 H22 0.930 . S
N17 Li0 1.990 . S
N17 C16 1.314 . S
N17 C19 1.279 . S
C18 C19 1.358 . S
C18 C20 1.356 . S
C18 H72 0.930 . S
C19 N17 1.279 . S
C19 C18 1.358 . S
C19 H23 0.930 . S
C20 C18 1.356 . S
C20 C21 1.348 . S
C21 C16 1.353 . S
C21 C20 1.348 . S
C21 H73 0.929 . S
H22 C16 0.930 . S
H23 C19 0.930 . S
C24 N25 1.314 . S
C24 C26 1.353 . S
C24 H30 0.930 . S
N25 Li1 1.990 . S
N25 C24 1.314 . S
N25 C28 1.279 . S
C26 C24 1.353 . S
C26 C29 1.348 . S
C26 H74 0.929 . S
C27 C28 1.358 . S
C27 C29 1.356 . S
C27 H75 0.930 . S
C28 N25 1.279 . S
C28 C27 1.358 . S
C28 H31 0.930 . S
C29 C26 1.348 . S
C29 C27 1.356 . S
H30 C24 0.930 . S
H31 C28 0.930 . S
C32 C34 1.348 . S
C32 C35 1.356 . S
C32 O62 1.325 . S
N33 C36 1.314 . S
N33 C37 1.279 . S
C34 C32 1.348 . S
C34 C36 1.353 . S
C34 H76 0.929 . S
C35 C32 1.356 . S
C35 C37 1.358 . S
C35 H77 0.930 . S
C36 N33 1.314 . S
C36 C34 1.353 . S
C36 H78 0.930 . S
C37 N33 1.279 . S
C37 C35 1.358 . S
C37 H79 0.930 . S
C38 C39 1.348 . S
C38 C40 1.356 . S
C38 O63 1.325 . S
C39 C38 1.348 . S
C39 C41 1.353 . S
C39 H80 0.929 . S
C40 C38 1.356 . S
C40 C42 1.358 . S
C40 H81 0.930 . S
C41 C39 1.353 . S
C41 N43 1.314 . S
C41 H82 0.930 . S
C42 C40 1.358 . S
C42 N43 1.279 . S
C42 H83 0.930 . S
N43 C41 1.314 . S
N43 C42 1.279 . S
C44 C46 1.353 . S
C44 N47 1.314 . S
C44 H50 0.930 . S
C45 N47 1.279 . S
C45 C48 1.358 . S
C45 H51 0.930 . S
C46 C44 1.353 . S
C46 C49 1.348 . S
C46 H84 0.929 . S
N47 Li2 1.990 . S
N47 C44 1.314 . S
N47 C45 1.279 . S
C48 C45 1.358 . S
C48 C49 1.356 . S
C48 H85 0.930 . S
C49 C46 1.348 . S
C49 C48 1.356 . S
H50 C44 0.930 . S
H51 C45 0.930 . S
C52 N53 1.314 . S
C52 C54 1.353 . S
C52 H58 0.930 . S
N53 Li3 1.990 . S
N53 C52 1.314 . S
N53 C56 1.279 . S
C54 C52 1.353 . S
C54 C57 1.348 . S
C54 H86 0.929 . S
C55 C56 1.358 . S
C55 C57 1.356 . S
C55 H87 0.930 . S
C56 N53 1.279 . S
C56 C55 1.358 . S
C56 H59 0.930 . S
C57 C54 1.348 . S
C57 C55 1.356 . S
H58 C52 0.930 . S
H59 C56 0.930 . S
O60 Li0 1.956 . S
O60 Li1 1.970 . S
O60 Li2 1.961 . S
O60 C4 1.325 . S
O61 Li0 1.970 . S
O61 Li1 1.956 . S
O61 Li3 1.961 . S
O61 C10 1.325 . S
O62 Li0 1.961 . S
O62 Li2 1.956 . S
O62 Li3 1.970 . S
O62 C32 1.325 . S
O63 Li1 1.961 . S
O63 Li2 1.970 . S
O63 Li3 1.956 . S
O63 C38 1.325 . S
H64 C6 0.929 . S
H65 C7 0.930 . S
H66 C8 0.930 . S
H67 C9 0.930 . S
H68 C11 0.930 . S
H69 C13 0.929 . S
H70 C14 0.930 . S
H71 C15 0.930 . S
H72 C18 0.930 . S
H73 C21 0.929 . S
H74 C26 0.929 . S
H75 C27 0.930 . S
H76 C34 0.929 . S
H77 C35 0.930 . S
H78 C36 0.930 . S
H79 C37 0.930 . S
H80 C39 0.929 . S
H81 C40 0.930 . S
H82 C41 0.930 . S
H83 C42 0.930 . S
H84 C46 0.929 . S
H85 C48 0.930 . S
H86 C54 0.929 . S
H87 C55 0.930 . S
Li88 N105 1.990 . S
Li88 O148 1.956 . S
Li88 O149 1.970 . S
Li88 O150 1.961 . S
Li89 N113 1.990 . S
Li89 O148 1.970 . S
Li89 O149 1.956 . S
Li89 O151 1.961 . S
Li90 N135 1.990 . S
Li90 O148 1.961 . S
Li90 O150 1.956 . S
Li90 O151 1.970 . S
Li91 N141 1.990 . S
Li91 O149 1.961 . S
Li91 O150 1.970 . S
Li91 O151 1.956 . S
C92 C94 1.348 . S
C92 C95 1.356 . S
C92 O148 1.325 . S
N93 C96 1.314 . S
N93 C97 1.279 . S
C94 C92 1.348 . S
C94 C96 1.353 . S
C94 H152 0.929 . S
C95 C92 1.356 . S
C95 C97 1.358 . S
C95 H153 0.930 . S
C96 N93 1.314 . S
C96 C94 1.353 . S
C96 H154 0.930 . S
C97 N93 1.279 . S
C97 C95 1.358 . S
C97 H155 0.930 . S
C98 C101 1.348 . S
C98 C102 1.356 . S
C98 O149 1.325 . S
C99 N100 1.279 . S
C99 C102 1.358 . S
C99 H156 0.930 . S
N100 C99 1.279 . S
N100 C103 1.314 . S
C101 C98 1.348 . S
C101 C103 1.353 . S
C101 H157 0.929 . S
C102 C98 1.356 . S
C102 C99 1.358 . S
C102 H158 0.930 . S
C103 N100 1.314 . S
C103 C101 1.353 . S
C103 H159 0.930 . S
C104 N105 1.314 . S
C104 C109 1.353 . S
C104 H110 0.930 . S
N105 Li88 1.990 . S
N105 C104 1.314 . S
N105 C107 1.279 . S
C106 C107 1.358 . S
C106 C108 1.356 . S
C106 H160 0.930 . S
C107 N105 1.279 . S
C107 C106 1.358 . S
C107 H111 0.930 . S
C108 C106 1.356 . S
C108 C109 1.348 . S
C109 C104 1.353 . S
C109 C108 1.348 . S
C109 H161 0.929 . S
H110 C104 0.930 . S
H111 C107 0.930 . S
C112 N113 1.314 . S
C112 C114 1.353 . S
C112 H118 0.930 . S
N113 Li89 1.990 . S
N113 C112 1.314 . S
N113 C116 1.279 . S
C114 C112 1.353 . S
C114 C117 1.348 . S
C114 H162 0.929 . S
C115 C116 1.358 . S
C115 C117 1.356 . S
C115 H163 0.930 . S
C116 N113 1.279 . S
C116 C115 1.358 . S
C116 H119 0.930 . S
C117 C114 1.348 . S
C117 C115 1.356 . S
H118 C112 0.930 . S
H119 C116 0.930 . S
C120 C122 1.348 . S
C120 C123 1.356 . S
C120 O150 1.325 . S
N121 C124 1.314 . S
N121 C125 1.279 . S
C122 C120 1.348 . S
C122 C124 1.353 . S
C122 H164 0.929 . S
C123 C120 1.356 . S
C123 C125 1.358 . S
C123 H165 0.930 . S
C124 N121 1.314 . S
C124 C122 1.353 . S
C124 H166 0.930 . S
C125 N121 1.279 . S
C125 C123 1.358 . S
C125 H167 0.930 . S
C126 C127 1.348 . S
C126 C128 1.356 . S
C126 O151 1.325 . S
C127 C126 1.348 . S
C127 C129 1.353 . S
C127 H168 0.929 . S
C128 C126 1.356 . S
C128 C130 1.358 . S
C128 H169 0.930 . S
C129 C127 1.353 . S
C129 N131 1.314 . S
C129 H170 0.930 . S
C130 C128 1.358 . S
C130 N131 1.279 . S
C130 H171 0.930 . S
N131 C129 1.314 . S
N131 C130 1.279 . S
C132 C134 1.353 . S
C132 N135 1.314 . S
C132 H138 0.930 . S
C133 N135 1.279 . S
C133 C136 1.358 . S
C133 H139 0.930 . S
C134 C132 1.353 . S
C134 C137 1.348 . S
C134 H172 0.929 . S
N135 Li90 1.990 . S
N135 C132 1.314 . S
N135 C133 1.279 . S
C136 C133 1.358 . S
C136 C137 1.356 . S
C136 H173 0.930 . S
C137 C134 1.348 . S
C137 C136 1.356 . S
H138 C132 0.930 . S
H139 C133 0.930 . S
C140 N141 1.314 . S
C140 C142 1.353 . S
C140 H146 0.930 . S
N141 Li91 1.990 . S
N141 C140 1.314 . S
N141 C144 1.279 . S
C142 C140 1.353 . S
C142 C145 1.348 . S
C142 H174 0.929 . S
C143 C144 1.358 . S
C143 C145 1.356 . S
C143 H175 0.930 . S
C144 N141 1.279 . S
C144 C143 1.358 . S
C144 H147 0.930 . S
C145 C142 1.348 . S
C145 C143 1.356 . S
H146 C140 0.930 . S
H147 C144 0.930 . S
O148 Li88 1.956 . S
O148 Li89 1.970 . S
O148 Li90 1.961 . S
O148 C92 1.325 . S
O149 Li88 1.970 . S
O149 Li89 1.956 . S
O149 Li91 1.961 . S
O149 C98 1.325 . S
O150 Li88 1.961 . S
O150 Li90 1.956 . S
O150 Li91 1.970 . S
O150 C120 1.325 . S
O151 Li89 1.961 . S
O151 Li90 1.970 . S
O151 Li91 1.956 . S
O151 C126 1.325 . S
H152 C94 0.929 . S
H153 C95 0.930 . S
H154 C96 0.930 . S
H155 C97 0.930 . S
H156 C99 0.930 . S
H157 C101 0.929 . S
H158 C102 0.930 . S
H159 C103 0.930 . S
H160 C106 0.930 . S
H161 C109 0.929 . S
H162 C114 0.929 . S
H163 C115 0.930 . S
H164 C122 0.929 . S
H165 C123 0.930 . S
H166 C124 0.930 . S
H167 C125 0.930 . S
H168 C127 0.929 . S
H169 C128 0.930 . S
H170 C129 0.930 . S
H171 C130 0.930 . S
H172 C134 0.929 . S
H173 C136 0.930 . S
H174 C142 0.929 . S
H175 C143 0.930 . S
Li176 N193 1.990 . S
Li176 O236 1.956 . S
Li176 O237 1.970 . S
Li176 O238 1.961 . S
Li177 N201 1.990 . S
Li177 O236 1.970 1_556 S
Li177 O237 1.956 1_556 S
Li177 O239 1.961 . S
Li178 N223 1.990 . S
Li178 O236 1.961 1_556 S
Li178 O238 1.956 1_556 S
Li178 O239 1.970 . S
Li179 N229 1.990 . S
Li179 O237 1.961 1_556 S
Li179 O238 1.970 1_556 S
Li179 O239 1.956 . S
C180 C182 1.348 . S
C180 C183 1.356 . S
C180 O236 1.325 . S
N181 C184 1.314 . S
N181 C185 1.279 . S
C182 C180 1.348 . S
C182 C184 1.353 . S
C182 H240 0.929 . S
C183 C180 1.356 . S
C183 C185 1.358 . S
C183 H241 0.930 . S
C184 N181 1.314 . S
C184 C182 1.353 . S
C184 H242 0.930 . S
C185 N181 1.279 . S
C185 C183 1.358 . S
C185 H243 0.930 . S
C186 C189 1.348 . S
C186 C190 1.356 . S
C186 O237 1.325 . S
C187 N188 1.279 . S
C187 C190 1.358 . S
C187 H244 0.930 . S
N188 C187 1.279 . S
N188 C191 1.314 . S
C189 C186 1.348 . S
C189 C191 1.353 . S
C189 H245 0.929 . S
C190 C186 1.356 . S
C190 C187 1.358 . S
C190 H246 0.930 . S
C191 N188 1.314 . S
C191 C189 1.353 . S
C191 H247 0.930 . S
C192 N193 1.314 . S
C192 C197 1.353 . S
C192 H198 0.930 . S
N193 Li176 1.990 . S
N193 C192 1.314 . S
N193 C195 1.279 . S
C194 C195 1.358 . S
C194 C196 1.356 . S
C194 H248 0.930 . S
C195 N193 1.279 . S
C195 C194 1.358 . S
C195 H199 0.930 . S
C196 C194 1.356 . S
C196 C197 1.348 . S
C197 C192 1.353 . S
C197 C196 1.348 . S
C197 H249 0.929 . S
H198 C192 0.930 . S
H199 C195 0.930 . S
C200 N201 1.314 . S
C200 C202 1.353 . S
C200 H206 0.930 . S
N201 Li177 1.990 . S
N201 C200 1.314 . S
N201 C204 1.279 1_556 S
C202 C200 1.353 . S
C202 C205 1.348 . S
C202 H250 0.929 . S
C203 C204 1.358 1_556 S
C203 C205 1.356 . S
C203 H251 0.930 1_556 S
C204 N201 1.279 1_554 S
C204 C203 1.358 1_554 S
C204 H207 0.930 . S
C205 C202 1.348 . S
C205 C203 1.356 . S
H206 C200 0.930 . S
H207 C204 0.930 . S
C208 C210 1.348 . S
C208 C211 1.356 . S
C208 O238 1.325 . S
N209 C212 1.314 . S
N209 C213 1.279 . S
C210 C208 1.348 . S
C210 C212 1.353 . S
C210 H252 0.929 1_554 S
C211 C208 1.356 . S
C211 C213 1.358 . S
C211 H253 0.930 . S
C212 N209 1.314 . S
C212 C210 1.353 . S
C212 H254 0.930 . S
C213 N209 1.279 . S
C213 C211 1.358 . S
C213 H255 0.930 . S
C214 C215 1.348 . S
C214 C216 1.356 . S
C214 O239 1.325 . S
C215 C214 1.348 . S
C215 C217 1.353 . S
C215 H256 0.929 . S
C216 C214 1.356 . S
C216 C218 1.358 . S
C216 H257 0.930 . S
C217 C215 1.353 . S
C217 N219 1.314 . S
C217 H258 0.930 . S
C218 C216 1.358 . S
C218 N219 1.279 . S
C218 H259 0.930 . S
N219 C217 1.314 . S
N219 C218 1.279 . S
C220 C222 1.353 . S
C220 N223 1.314 . S
C220 H226 0.930 . S
C221 N223 1.279 . S
C221 C224 1.358 . S
C221 H227 0.930 . S
C222 C220 1.353 . S
C222 C225 1.348 . S
C222 H260 0.929 . S
N223 Li178 1.990 . S
N223 C220 1.314 . S
N223 C221 1.279 . S
C224 C221 1.358 . S
C224 C225 1.356 . S
C224 H261 0.930 . S
C225 C222 1.348 . S
C225 C224 1.356 . S
H226 C220 0.930 . S
H227 C221 0.930 . S
C228 N229 1.314 1_554 S
C228 C230 1.353 . S
C228 H234 0.930 . S
N229 Li179 1.990 . S
N229 C228 1.314 1_556 S
N229 C232 1.279 . S
C230 C228 1.353 . S
C230 C233 1.348 1_554 S
C230 H262 0.929 . S
C231 C232 1.358 . S
C231 C233 1.356 . S
C231 H263 0.930 . S
C232 N229 1.279 . S
C232 C231 1.358 . S
C232 H235 0.930 . S
C233 C230 1.348 1_556 S
C233 C231 1.356 . S
H234 C228 0.930 . S
H235 C232 0.930 . S
O236 Li176 1.956 . S
O236 Li177 1.970 1_554 S
O236 Li178 1.961 1_554 S
O236 C180 1.325 . S
O237 Li176 1.970 . S
O237 Li177 1.956 1_554 S
O237 Li179 1.961 1_554 S
O237 C186 1.325 . S
O238 Li176 1.961 . S
O238 Li178 1.956 1_554 S
O238 Li179 1.970 1_554 S
O238 C208 1.325 . S
O239 Li177 1.961 . S
O239 Li178 1.970 . S
O239 Li179 1.956 . S
O239 C214 1.325 . S
H240 C182 0.929 . S
H241 C183 0.930 . S
H242 C184 0.930 . S
H243 C185 0.930 . S
H244 C187 0.930 . S
H245 C189 0.929 . S
H246 C190 0.930 . S
H247 C191 0.930 . S
H248 C194 0.930 . S
H249 C197 0.929 . S
H250 C202 0.929 . S
H251 C203 0.930 1_554 S
H252 C210 0.929 1_556 S
H253 C211 0.930 . S
H254 C212 0.930 . S
H255 C213 0.930 . S
H256 C215 0.929 . S
H257 C216 0.930 . S
H258 C217 0.930 . S
H259 C218 0.930 . S
H260 C222 0.929 . S
H261 C224 0.930 . S
H262 C230 0.929 . S
H263 C231 0.930 . S
Li264 N281 1.990 . S
Li264 O324 1.956 . S
Li264 O325 1.970 . S
Li264 O326 1.961 . S
Li265 N289 1.990 . S
Li265 O324 1.970 . S
Li265 O325 1.956 . S
Li265 O327 1.961 . S
Li266 N311 1.990 . S
Li266 O324 1.961 . S
Li266 O326 1.956 . S
Li266 O327 1.970 . S
Li267 N317 1.990 . S
Li267 O325 1.961 . S
Li267 O326 1.970 . S
Li267 O327 1.956 . S
C268 C270 1.348 . S
C268 C271 1.356 . S
C268 O324 1.325 . S
N269 C272 1.314 . S
N269 C273 1.279 . S
C270 C268 1.348 . S
C270 C272 1.353 . S
C270 H328 0.929 . S
C271 C268 1.356 . S
C271 C273 1.358 . S
C271 H329 0.930 . S
C272 N269 1.314 . S
C272 C270 1.353 . S
C272 H330 0.930 . S
C273 N269 1.279 . S
C273 C271 1.358 . S
C273 H331 0.930 . S
C274 C277 1.348 . S
C274 C278 1.356 . S
C274 O325 1.325 . S
C275 N276 1.279 . S
C275 C278 1.358 . S
C275 H332 0.930 . S
N276 C275 1.279 . S
N276 C279 1.314 . S
C277 C274 1.348 . S
C277 C279 1.353 . S
C277 H333 0.929 . S
C278 C274 1.356 . S
C278 C275 1.358 . S
C278 H334 0.930 . S
C279 N276 1.314 . S
C279 C277 1.353 . S
C279 H335 0.930 . S
C280 N281 1.314 . S
C280 C285 1.353 . S
C280 H286 0.930 . S
N281 Li264 1.990 . S
N281 C280 1.314 . S
N281 C283 1.279 . S
C282 C283 1.358 . S
C282 C284 1.356 . S
C282 H336 0.930 . S
C283 N281 1.279 . S
C283 C282 1.358 . S
C283 H287 0.930 . S
C284 C282 1.356 . S
C284 C285 1.348 . S
C285 C280 1.353 . S
C285 C284 1.348 . S
C285 H337 0.929 . S
H286 C280 0.930 . S
H287 C283 0.930 . S
C288 N289 1.314 . S
C288 C290 1.353 . S
C288 H294 0.930 . S
N289 Li265 1.990 . S
N289 C288 1.314 . S
N289 C292 1.279 . S
C290 C288 1.353 . S
C290 C293 1.348 . S
C290 H338 0.929 . S
C291 C292 1.358 . S
C291 C293 1.356 . S
C291 H339 0.930 . S
C292 N289 1.279 . S
C292 C291 1.358 . S
C292 H295 0.930 . S
C293 C290 1.348 . S
C293 C291 1.356 . S
H294 C288 0.930 . S
H295 C292 0.930 . S
C296 C298 1.348 . S
C296 C299 1.356 . S
C296 O326 1.325 . S
N297 C300 1.314 . S
N297 C301 1.279 . S
C298 C296 1.348 . S
C298 C300 1.353 . S
C298 H340 0.929 . S
C299 C296 1.356 . S
C299 C301 1.358 . S
C299 H341 0.930 . S
C300 N297 1.314 . S
C300 C298 1.353 . S
C300 H342 0.930 . S
C301 N297 1.279 . S
C301 C299 1.358 . S
C301 H343 0.930 . S
C302 C303 1.348 . S
C302 C304 1.356 . S
C302 O327 1.325 . S
C303 C302 1.348 . S
C303 C305 1.353 . S
C303 H344 0.929 . S
C304 C302 1.356 . S
C304 C306 1.358 . S
C304 H345 0.930 . S
C305 C303 1.353 . S
C305 N307 1.314 . S
C305 H346 0.930 . S
C306 C304 1.358 . S
C306 N307 1.279 . S
C306 H347 0.930 . S
N307 C305 1.314 . S
N307 C306 1.279 . S
C308 C310 1.353 . S
C308 N311 1.314 . S
C308 H314 0.930 . S
C309 N311 1.279 . S
C309 C312 1.358 . S
C309 H315 0.930 . S
C310 C308 1.353 . S
C310 C313 1.348 . S
C310 H348 0.929 . S
N311 Li266 1.990 . S
N311 C308 1.314 . S
N311 C309 1.279 . S
C312 C309 1.358 . S
C312 C313 1.356 . S
C312 H349 0.930 . S
C313 C310 1.348 . S
C313 C312 1.356 . S
H314 C308 0.930 . S
H315 C309 0.930 . S
C316 N317 1.314 . S
C316 C318 1.353 . S
C316 H322 0.930 . S
N317 Li267 1.990 . S
N317 C316 1.314 . S
N317 C320 1.279 . S
C318 C316 1.353 . S
C318 C321 1.348 . S
C318 H350 0.929 . S
C319 C320 1.358 . S
C319 C321 1.356 . S
C319 H351 0.930 . S
C320 N317 1.279 . S
C320 C319 1.358 . S
C320 H323 0.930 . S
C321 C318 1.348 . S
C321 C319 1.356 . S
H322 C316 0.930 . S
H323 C320 0.930 . S
O324 Li264 1.956 . S
O324 Li265 1.970 . S
O324 Li266 1.961 . S
O324 C268 1.325 . S
O325 Li264 1.970 . S
O325 Li265 1.956 . S
O325 Li267 1.961 . S
O325 C274 1.325 . S
O326 Li264 1.961 . S
O326 Li266 1.956 . S
O326 Li267 1.970 . S
O326 C296 1.325 . S
O327 Li265 1.961 . S
O327 Li266 1.970 . S
O327 Li267 1.956 . S
O327 C302 1.325 . S
H328 C270 0.929 . S
H329 C271 0.930 . S
H330 C272 0.930 . S
H331 C273 0.930 . S
H332 C275 0.930 . S
H333 C277 0.929 . S
H334 C278 0.930 . S
H335 C279 0.930 . S
H336 C282 0.930 . S
H337 C285 0.929 . S
H338 C290 0.929 . S
H339 C291 0.930 . S
H340 C298 0.929 . S
H341 C299 0.930 . S
H342 C300 0.930 . S
H343 C301 0.930 . S
H344 C303 0.929 . S
H345 C304 0.930 . S
H346 C305 0.930 . S
H347 C306 0.930 . S
H348 C310 0.929 . S
H349 C312 0.930 . S
H350 C318 0.929 . S
H351 C319 0.930 . S
Li352 N369 1.990 . S
Li352 O412 1.956 . S
Li352 O413 1.970 . S
Li352 O414 1.961 . S
Li353 N377 1.990 . S
Li353 O412 1.970 . S
Li353 O413 1.956 . S
Li353 O415 1.961 . S
Li354 N399 1.990 . S
Li354 O412 1.961 . S
Li354 O414 1.956 . S
Li354 O415 1.970 . S
Li355 N405 1.990 . S
Li355 O413 1.961 . S
Li355 O414 1.970 . S
Li355 O415 1.956 . S
C356 C358 1.348 . S
C356 C359 1.356 . S
C356 O412 1.325 . S
N357 C360 1.314 . S
N357 C361 1.279 . S
C358 C356 1.348 . S
C358 C360 1.353 . S
C358 H416 0.929 . S
C359 C356 1.356 . S
C359 C361 1.358 . S
C359 H417 0.930 . S
C360 N357 1.314 . S
C360 C358 1.353 . S
C360 H418 0.930 . S
C361 N357 1.279 . S
C361 C359 1.358 . S
C361 H419 0.930 . S
C362 C365 1.348 . S
C362 C366 1.356 . S
C362 O413 1.325 . S
C363 N364 1.279 . S
C363 C366 1.358 . S
C363 H420 0.930 . S
N364 C363 1.279 . S
N364 C367 1.314 . S
C365 C362 1.348 . S
C365 C367 1.353 . S
C365 H421 0.929 . S
C366 C362 1.356 . S
C366 C363 1.358 . S
C366 H422 0.930 . S
C367 N364 1.314 . S
C367 C365 1.353 . S
C367 H423 0.930 . S
C368 N369 1.314 . S
C368 C373 1.353 . S
C368 H374 0.930 . S
N369 Li352 1.990 . S
N369 C368 1.314 . S
N369 C371 1.279 . S
C370 C371 1.358 . S
C370 C372 1.356 . S
C370 H424 0.930 . S
C371 N369 1.279 . S
C371 C370 1.358 . S
C371 H375 0.930 . S
C372 C370 1.356 . S
C372 C373 1.348 . S
C373 C368 1.353 . S
C373 C372 1.348 . S
C373 H425 0.929 . S
H374 C368 0.930 . S
H375 C371 0.930 . S
C376 N377 1.314 . S
C376 C378 1.353 . S
C376 H382 0.930 . S
N377 Li353 1.990 . S
N377 C376 1.314 . S
N377 C380 1.279 . S
C378 C376 1.353 . S
C378 C381 1.348 . S
C378 H426 0.929 . S
C379 C380 1.358 . S
C379 C381 1.356 . S
C379 H427 0.930 . S
C380 N377 1.279 . S
C380 C379 1.358 . S
C380 H383 0.930 . S
C381 C378 1.348 . S
C381 C379 1.356 . S
H382 C376 0.930 . S
H383 C380 0.930 . S
C384 C386 1.348 . S
C384 C387 1.356 . S
C384 O414 1.325 . S
N385 C388 1.314 . S
N385 C389 1.279 . S
C386 C384 1.348 . S
C386 C388 1.353 . S
C386 H428 0.929 . S
C387 C384 1.356 . S
C387 C389 1.358 . S
C387 H429 0.930 . S
C388 N385 1.314 . S
C388 C386 1.353 . S
C388 H430 0.930 . S
C389 N385 1.279 . S
C389 C387 1.358 . S
C389 H431 0.930 . S
C390 C391 1.348 . S
C390 C392 1.356 . S
C390 O415 1.325 . S
C391 C390 1.348 . S
C391 C393 1.353 . S
C391 H432 0.929 . S
C392 C390 1.356 . S
C392 C394 1.358 . S
C392 H433 0.930 . S
C393 C391 1.353 . S
C393 N395 1.314 . S
C393 H434 0.930 . S
C394 C392 1.358 . S
C394 N395 1.279 . S
C394 H435 0.930 . S
N395 C393 1.314 . S
N395 C394 1.279 . S
C396 C398 1.353 . S
C396 N399 1.314 . S
C396 H402 0.930 . S
C397 N399 1.279 . S
C397 C400 1.358 . S
C397 H403 0.930 . S
C398 C396 1.353 . S
C398 C401 1.348 . S
C398 H436 0.929 . S
N399 Li354 1.990 . S
N399 C396 1.314 . S
N399 C397 1.279 . S
C400 C397 1.358 . S
C400 C401 1.356 . S
C400 H437 0.930 . S
C401 C398 1.348 . S
C401 C400 1.356 . S
H402 C396 0.930 . S
H403 C397 0.930 . S
C404 N405 1.314 . S
C404 C406 1.353 . S
C404 H410 0.930 . S
N405 Li355 1.990 . S
N405 C404 1.314 . S
N405 C408 1.279 . S
C406 C404 1.353 . S
C406 C409 1.348 . S
C406 H438 0.929 . S
C407 C408 1.358 . S
C407 C409 1.356 . S
C407 H439 0.930 . S
C408 N405 1.279 . S
C408 C407 1.358 . S
C408 H411 0.930 . S
C409 C406 1.348 . S
C409 C407 1.356 . S
H410 C404 0.930 . S
H411 C408 0.930 . S
O412 Li352 1.956 . S
O412 Li353 1.970 . S
O412 Li354 1.961 . S
O412 C356 1.325 . S
O413 Li352 1.970 . S
O413 Li353 1.956 . S
O413 Li355 1.961 . S
O413 C362 1.325 . S
O414 Li352 1.961 . S
O414 Li354 1.956 . S
O414 Li355 1.970 . S
O414 C384 1.325 . S
O415 Li353 1.961 . S
O415 Li354 1.970 . S
O415 Li355 1.956 . S
O415 C390 1.325 . S
H416 C358 0.929 . S
H417 C359 0.930 . S
H418 C360 0.930 . S
H419 C361 0.930 . S
H420 C363 0.930 . S
H421 C365 0.929 . S
H422 C366 0.930 . S
H423 C367 0.930 . S
H424 C370 0.930 . S
H425 C373 0.929 . S
H426 C378 0.929 . S
H427 C379 0.930 . S
H428 C386 0.929 . S
H429 C387 0.930 . S
H430 C388 0.930 . S
H431 C389 0.930 . S
H432 C391 0.929 . S
H433 C392 0.930 . S
H434 C393 0.930 . S
H435 C394 0.930 . S
H436 C398 0.929 . S
H437 C400 0.930 . S
H438 C406 0.929 . S
H439 C407 0.930 . S
Li440 N457 1.990 . S
Li440 O500 1.956 1_556 S
Li440 O501 1.970 1_556 S
Li440 O502 1.961 . S
Li441 N465 1.990 . S
Li441 O500 1.970 . S
Li441 O501 1.956 . S
Li441 O503 1.961 . S
Li442 N487 1.990 . S
Li442 O500 1.961 1_556 S
Li442 O502 1.956 . S
Li442 O503 1.970 1_556 S
Li443 N493 1.990 . S
Li443 O501 1.961 1_556 S
Li443 O502 1.970 . S
Li443 O503 1.956 1_556 S
C444 C446 1.348 . S
C444 C447 1.356 . S
C444 O500 1.325 . S
N445 C448 1.314 . S
N445 C449 1.279 . S
C446 C444 1.348 . S
C446 C448 1.353 . S
C446 H504 0.929 . S
C447 C444 1.356 . S
C447 C449 1.358 . S
C447 H505 0.930 . S
C448 N445 1.314 . S
C448 C446 1.353 . S
C448 H506 0.930 . S
C449 N445 1.279 . S
C449 C447 1.358 . S
C449 H507 0.930 . S
C450 C453 1.348 . S
C450 C454 1.356 . S
C450 O501 1.325 . S
C451 N452 1.279 . S
C451 C454 1.358 . S
C451 H508 0.930 . S
N452 C451 1.279 . S
N452 C455 1.314 . S
C453 C450 1.348 . S
C453 C455 1.353 . S
C453 H509 0.929 . S
C454 C450 1.356 . S
C454 C451 1.358 . S
C454 H510 0.930 . S
C455 N452 1.314 . S
C455 C453 1.353 . S
C455 H511 0.930 . S
C456 N457 1.314 . S
C456 C461 1.353 . S
C456 H462 0.930 . S
N457 Li440 1.990 . S
N457 C456 1.314 . S
N457 C459 1.279 1_556 S
C458 C459 1.358 1_556 S
C458 C460 1.356 . S
C458 H512 0.930 1_556 S
C459 N457 1.279 1_554 S
C459 C458 1.358 1_554 S
C459 H463 0.930 . S
C460 C458 1.356 . S
C460 C461 1.348 . S
C461 C456 1.353 . S
C461 C460 1.348 . S
C461 H513 0.929 . S
H462 C456 0.930 . S
H463 C459 0.930 . S
C464 N465 1.314 . S
C464 C466 1.353 . S
C464 H470 0.930 . S
N465 Li441 1.990 . S
N465 C464 1.314 . S
N465 C468 1.279 . S
C466 C464 1.353 . S
C466 C469 1.348 . S
C466 H514 0.929 . S
C467 C468 1.358 . S
C467 C469 1.356 . S
C467 H515 0.930 . S
C468 N465 1.279 . S
C468 C467 1.358 . S
C468 H471 0.930 . S
C469 C466 1.348 . S
C469 C467 1.356 . S
H470 C464 0.930 . S
H471 C468 0.930 . S
C472 C474 1.348 . S
C472 C475 1.356 . S
C472 O502 1.325 . S
N473 C476 1.314 . S
N473 C477 1.279 . S
C474 C472 1.348 . S
C474 C476 1.353 . S
C474 H516 0.929 . S
C475 C472 1.356 . S
C475 C477 1.358 . S
C475 H517 0.930 . S
C476 N473 1.314 . S
C476 C474 1.353 . S
C476 H518 0.930 . S
C477 N473 1.279 . S
C477 C475 1.358 . S
C477 H519 0.930 . S
C478 C479 1.348 . S
C478 C480 1.356 . S
C478 O503 1.325 . S
C479 C478 1.348 . S
C479 C481 1.353 . S
C479 H520 0.929 1_554 S
C480 C478 1.356 . S
C480 C482 1.358 . S
C480 H521 0.930 . S
C481 C479 1.353 . S
C481 N483 1.314 . S
C481 H522 0.930 . S
C482 C480 1.358 . S
C482 N483 1.279 . S
C482 H523 0.930 . S
N483 C481 1.314 . S
N483 C482 1.279 . S
C484 C486 1.353 . S
C484 N487 1.314 1_554 S
C484 H490 0.930 . S
C485 N487 1.279 . S
C485 C488 1.358 . S
C485 H491 0.930 . S
C486 C484 1.353 . S
C486 C489 1.348 1_554 S
C486 H524 0.929 . S
N487 Li442 1.990 . S
N487 C484 1.314 1_556 S
N487 C485 1.279 . S
C488 C485 1.358 . S
C488 C489 1.356 . S
C488 H525 0.930 . S
C489 C486 1.348 1_556 S
C489 C488 1.356 . S
H490 C484 0.930 . S
H491 C485 0.930 . S
C492 N493 1.314 . S
C492 C494 1.353 . S
C492 H498 0.930 . S
N493 Li443 1.990 . S
N493 C492 1.314 . S
N493 C496 1.279 . S
C494 C492 1.353 . S
C494 C497 1.348 . S
C494 H526 0.929 . S
C495 C496 1.358 . S
C495 C497 1.356 . S
C495 H527 0.930 . S
C496 N493 1.279 . S
C496 C495 1.358 . S
C496 H499 0.930 . S
C497 C494 1.348 . S
C497 C495 1.356 . S
H498 C492 0.930 . S
H499 C496 0.930 . S
O500 Li440 1.956 1_554 S
O500 Li441 1.970 . S
O500 Li442 1.961 1_554 S
O500 C444 1.325 . S
O501 Li440 1.970 1_554 S
O501 Li441 1.956 . S
O501 Li443 1.961 1_554 S
O501 C450 1.325 . S
O502 Li440 1.961 . S
O502 Li442 1.956 . S
O502 Li443 1.970 . S
O502 C472 1.325 . S
O503 Li441 1.961 . S
O503 Li442 1.970 1_554 S
O503 Li443 1.956 1_554 S
O503 C478 1.325 . S
H504 C446 0.929 . S
H505 C447 0.930 . S
H506 C448 0.930 . S
H507 C449 0.930 . S
H508 C451 0.930 . S
H509 C453 0.929 . S
H510 C454 0.930 . S
H511 C455 0.930 . S
H512 C458 0.930 1_554 S
H513 C461 0.929 . S
H514 C466 0.929 . S
H515 C467 0.930 . S
H516 C474 0.929 . S
H517 C475 0.930 . S
H518 C476 0.930 . S
H519 C477 0.930 . S
H520 C479 0.929 1_556 S
H521 C480 0.930 . S
H522 C481 0.930 . S
H523 C482 0.930 . S
H524 C486 0.929 . S
H525 C488 0.930 . S
H526 C494 0.929 . S
H527 C495 0.930 . S
Li528 N545 1.990 . S
Li528 O588 1.956 . S
Li528 O589 1.970 . S
Li528 O590 1.961 . S
Li529 N553 1.990 . S
Li529 O588 1.970 . S
Li529 O589 1.956 . S
Li529 O591 1.961 . S
Li530 N575 1.990 . S
Li530 O588 1.961 . S
Li530 O590 1.956 . S
Li530 O591 1.970 . S
Li531 N581 1.990 . S
Li531 O589 1.961 . S
Li531 O590 1.970 . S
Li531 O591 1.956 . S
C532 C534 1.348 . S
C532 C535 1.356 . S
C532 O588 1.325 . S
N533 C536 1.314 . S
N533 C537 1.279 . S
C534 C532 1.348 . S
C534 C536 1.353 . S
C534 H592 0.929 . S
C535 C532 1.356 . S
C535 C537 1.358 . S
C535 H593 0.930 . S
C536 N533 1.314 . S
C536 C534 1.353 . S
C536 H594 0.930 . S
C537 N533 1.279 . S
C537 C535 1.358 . S
C537 H595 0.930 . S
C538 C541 1.348 . S
C538 C542 1.356 . S
C538 O589 1.325 . S
C539 N540 1.279 . S
C539 C542 1.358 . S
C539 H596 0.930 . S
N540 C539 1.279 . S
N540 C543 1.314 . S
C541 C538 1.348 . S
C541 C543 1.353 . S
C541 H597 0.929 . S
C542 C538 1.356 . S
C542 C539 1.358 . S
C542 H598 0.930 . S
C543 N540 1.314 . S
C543 C541 1.353 . S
C543 H599 0.930 . S
C544 N545 1.314 . S
C544 C549 1.353 . S
C544 H550 0.930 . S
N545 Li528 1.990 . S
N545 C544 1.314 . S
N545 C547 1.279 . S
C546 C547 1.358 . S
C546 C548 1.356 . S
C546 H600 0.930 . S
C547 N545 1.279 . S
C547 C546 1.358 . S
C547 H551 0.930 . S
C548 C546 1.356 . S
C548 C549 1.348 . S
C549 C544 1.353 . S
C549 C548 1.348 . S
C549 H601 0.929 . S
H550 C544 0.930 . S
H551 C547 0.930 . S
C552 N553 1.314 . S
C552 C554 1.353 . S
C552 H558 0.930 . S
N553 Li529 1.990 . S
N553 C552 1.314 . S
N553 C556 1.279 . S
C554 C552 1.353 . S
C554 C557 1.348 . S
C554 H602 0.929 . S
C555 C556 1.358 . S
C555 C557 1.356 . S
C555 H603 0.930 . S
C556 N553 1.279 . S
C556 C555 1.358 . S
C556 H559 0.930 . S
C557 C554 1.348 . S
C557 C555 1.356 . S
H558 C552 0.930 . S
H559 C556 0.930 . S
C560 C562 1.348 . S
C560 C563 1.356 . S
C560 O590 1.325 . S
N561 C564 1.314 . S
N561 C565 1.279 . S
C562 C560 1.348 . S
C562 C564 1.353 . S
C562 H604 0.929 . S
C563 C560 1.356 . S
C563 C565 1.358 . S
C563 H605 0.930 . S
C564 N561 1.314 . S
C564 C562 1.353 . S
C564 H606 0.930 . S
C565 N561 1.279 . S
C565 C563 1.358 . S
C565 H607 0.930 . S
C566 C567 1.348 . S
C566 C568 1.356 . S
C566 O591 1.325 . S
C567 C566 1.348 . S
C567 C569 1.353 . S
C567 H608 0.929 . S
C568 C566 1.356 . S
C568 C570 1.358 . S
C568 H609 0.930 . S
C569 C567 1.353 . S
C569 N571 1.314 . S
C569 H610 0.930 . S
C570 C568 1.358 . S
C570 N571 1.279 . S
C570 H611 0.930 . S
N571 C569 1.314 . S
N571 C570 1.279 . S
C572 C574 1.353 . S
C572 N575 1.314 . S
C572 H578 0.930 . S
C573 N575 1.279 . S
C573 C576 1.358 . S
C573 H579 0.930 . S
C574 C572 1.353 . S
C574 C577 1.348 . S
C574 H612 0.929 . S
N575 Li530 1.990 . S
N575 C572 1.314 . S
N575 C573 1.279 . S
C576 C573 1.358 . S
C576 C577 1.356 . S
C576 H613 0.930 . S
C577 C574 1.348 . S
C577 C576 1.356 . S
H578 C572 0.930 . S
H579 C573 0.930 . S
C580 N581 1.314 . S
C580 C582 1.353 . S
C580 H586 0.930 . S
N581 Li531 1.990 . S
N581 C580 1.314 . S
N581 C584 1.279 . S
C582 C580 1.353 . S
C582 C585 1.348 . S
C582 H614 0.929 . S
C583 C584 1.358 . S
C583 C585 1.356 . S
C583 H615 0.930 . S
C584 N581 1.279 . S
C584 C583 1.358 . S
C584 H587 0.930 . S
C585 C582 1.348 . S
C585 C583 1.356 . S
H586 C580 0.930 . S
H587 C584 0.930 . S
O588 Li528 1.956 . S
O588 Li529 1.970 . S
O588 Li530 1.961 . S
O588 C532 1.325 . S
O589 Li528 1.970 . S
O589 Li529 1.956 . S
O589 Li531 1.961 . S
O589 C538 1.325 . S
O590 Li528 1.961 . S
O590 Li530 1.956 . S
O590 Li531 1.970 . S
O590 C560 1.325 . S
O591 Li529 1.961 . S
O591 Li530 1.970 . S
O591 Li531 1.956 . S
O591 C566 1.325 . S
H592 C534 0.929 . S
H593 C535 0.930 . S
H594 C536 0.930 . S
H595 C537 0.930 . S
H596 C539 0.930 . S
H597 C541 0.929 . S
H598 C542 0.930 . S
H599 C543 0.930 . S
H600 C546 0.930 . S
H601 C549 0.929 . S
H602 C554 0.929 . S
H603 C555 0.930 . S
H604 C562 0.929 . S
H605 C563 0.930 . S
H606 C564 0.930 . S
H607 C565 0.930 . S
H608 C567 0.929 . S
H609 C568 0.930 . S
H610 C569 0.930 . S
H611 C570 0.930 . S
H612 C574 0.929 . S
H613 C576 0.930 . S
H614 C582 0.929 . S
H615 C583 0.930 . S
Li616 N633 1.990 . S
Li616 O676 1.956 . S
Li616 O677 1.970 . S
Li616 O678 1.961 . S
Li617 N641 1.990 . S
Li617 O676 1.970 . S
Li617 O677 1.956 . S
Li617 O679 1.961 . S
Li618 N663 1.990 . S
Li618 O676 1.961 . S
Li618 O678 1.956 . S
Li618 O679 1.970 . S
Li619 N669 1.990 . S
Li619 O677 1.961 . S
Li619 O678 1.970 . S
Li619 O679 1.956 . S
C620 C622 1.348 . S
C620 C623 1.356 . S
C620 O676 1.325 . S
N621 C624 1.314 . S
N621 C625 1.279 . S
C622 C620 1.348 . S
C622 C624 1.353 . S
C622 H680 0.929 . S
C623 C620 1.356 . S
C623 C625 1.358 . S
C623 H681 0.930 . S
C624 N621 1.314 . S
C624 C622 1.353 . S
C624 H682 0.930 . S
C625 N621 1.279 . S
C625 C623 1.358 . S
C625 H683 0.930 . S
C626 C629 1.348 . S
C626 C630 1.356 . S
C626 O677 1.325 . S
C627 N628 1.279 . S
C627 C630 1.358 . S
C627 H684 0.930 . S
N628 C627 1.279 . S
N628 C631 1.314 . S
C629 C626 1.348 . S
C629 C631 1.353 . S
C629 H685 0.929 . S
C630 C626 1.356 . S
C630 C627 1.358 . S
C630 H686 0.930 . S
C631 N628 1.314 . S
C631 C629 1.353 . S
C631 H687 0.930 . S
C632 N633 1.314 . S
C632 C637 1.353 . S
C632 H638 0.930 . S
N633 Li616 1.990 . S
N633 C632 1.314 . S
N633 C635 1.279 . S
C634 C635 1.358 . S
C634 C636 1.356 . S
C634 H688 0.930 . S
C635 N633 1.279 . S
C635 C634 1.358 . S
C635 H639 0.930 . S
C636 C634 1.356 . S
C636 C637 1.348 . S
C637 C632 1.353 . S
C637 C636 1.348 . S
C637 H689 0.929 . S
H638 C632 0.930 . S
H639 C635 0.930 . S
C640 N641 1.314 . S
C640 C642 1.353 . S
C640 H646 0.930 . S
N641 Li617 1.990 . S
N641 C640 1.314 . S
N641 C644 1.279 . S
C642 C640 1.353 . S
C642 C645 1.348 . S
C642 H690 0.929 . S
C643 C644 1.358 . S
C643 C645 1.356 . S
C643 H691 0.930 . S
C644 N641 1.279 . S
C644 C643 1.358 . S
C644 H647 0.930 . S
C645 C642 1.348 . S
C645 C643 1.356 . S
H646 C640 0.930 . S
H647 C644 0.930 . S
C648 C650 1.348 . S
C648 C651 1.356 . S
C648 O678 1.325 . S
N649 C652 1.314 . S
N649 C653 1.279 . S
C650 C648 1.348 . S
C650 C652 1.353 . S
C650 H692 0.929 . S
C651 C648 1.356 . S
C651 C653 1.358 . S
C651 H693 0.930 . S
C652 N649 1.314 . S
C652 C650 1.353 . S
C652 H694 0.930 . S
C653 N649 1.279 . S
C653 C651 1.358 . S
C653 H695 0.930 . S
C654 C655 1.348 . S
C654 C656 1.356 . S
C654 O679 1.325 . S
C655 C654 1.348 . S
C655 C657 1.353 . S
C655 H696 0.929 . S
C656 C654 1.356 . S
C656 C658 1.358 . S
C656 H697 0.930 . S
C657 C655 1.353 . S
C657 N659 1.314 . S
C657 H698 0.930 . S
C658 C656 1.358 . S
C658 N659 1.279 . S
C658 H699 0.930 . S
N659 C657 1.314 . S
N659 C658 1.279 . S
C660 C662 1.353 . S
C660 N663 1.314 . S
C660 H666 0.930 . S
C661 N663 1.279 . S
C661 C664 1.358 . S
C661 H667 0.930 . S
C662 C660 1.353 . S
C662 C665 1.348 . S
C662 H700 0.929 . S
N663 Li618 1.990 . S
N663 C660 1.314 . S
N663 C661 1.279 . S
C664 C661 1.358 . S
C664 C665 1.356 . S
C664 H701 0.930 . S
C665 C662 1.348 . S
C665 C664 1.356 . S
H666 C660 0.930 . S
H667 C661 0.930 . S
C668 N669 1.314 . S
C668 C670 1.353 . S
C668 H674 0.930 . S
N669 Li619 1.990 . S
N669 C668 1.314 . S
N669 C672 1.279 . S
C670 C668 1.353 . S
C670 C673 1.348 . S
C670 H702 0.929 . S
C671 C672 1.358 . S
C671 C673 1.356 . S
C671 H703 0.930 . S
C672 N669 1.279 . S
C672 C671 1.358 . S
C672 H675 0.930 . S
C673 C670 1.348 . S
C673 C671 1.356 . S
H674 C668 0.930 . S
H675 C672 0.930 . S
O676 Li616 1.956 . S
O676 Li617 1.970 . S
O676 Li618 1.961 . S
O676 C620 1.325 . S
O677 Li616 1.970 . S
O677 Li617 1.956 . S
O677 Li619 1.961 . S
O677 C626 1.325 . S
O678 Li616 1.961 . S
O678 Li618 1.956 . S
O678 Li619 1.970 . S
O678 C648 1.325 . S
O679 Li617 1.961 . S
O679 Li618 1.970 . S
O679 Li619 1.956 . S
O679 C654 1.325 . S
H680 C622 0.929 . S
H681 C623 0.930 . S
H682 C624 0.930 . S
H683 C625 0.930 . S
H684 C627 0.930 . S
H685 C629 0.929 . S
H686 C630 0.930 . S
H687 C631 0.930 . S
H688 C634 0.930 . S
H689 C637 0.929 . S
H690 C642 0.929 . S
H691 C643 0.930 . S
H692 C650 0.929 . S
H693 C651 0.930 . S
H694 C652 0.930 . S
H695 C653 0.930 . S
H696 C655 0.929 . S
H697 C656 0.930 . S
H698 C657 0.930 . S
H699 C658 0.930 . S
H700 C662 0.929 . S
H701 C664 0.930 . S
H702 C670 0.929 . S
H703 C671 0.930 . S
Li704 N721 1.990 . S
Li704 O764 1.956 . S
Li704 O765 1.970 1_554 S
Li704 O766 1.961 1_554 S
Li705 N729 1.990 . S
Li705 O764 1.970 . S
Li705 O765 1.956 1_554 S
Li705 O767 1.961 1_554 S
Li706 N751 1.990 . S
Li706 O764 1.961 . S
Li706 O766 1.956 1_554 S
Li706 O767 1.970 1_554 S
Li707 N757 1.990 . S
Li707 O765 1.961 . S
Li707 O766 1.970 . S
Li707 O767 1.956 . S
C708 C710 1.348 . S
C708 C711 1.356 . S
C708 O764 1.325 . S
N709 C712 1.314 . S
N709 C713 1.279 . S
C710 C708 1.348 . S
C710 C712 1.353 . S
C710 H768 0.929 . S
C711 C708 1.356 . S
C711 C713 1.358 . S
C711 H769 0.930 . S
C712 N709 1.314 . S
C712 C710 1.353 . S
C712 H770 0.930 . S
C713 N709 1.279 . S
C713 C711 1.358 . S
C713 H771 0.930 . S
C714 C717 1.348 . S
C714 C718 1.356 . S
C714 O765 1.325 . S
C715 N716 1.279 . S
C715 C718 1.358 . S
C715 H772 0.930 . S
N716 C715 1.279 . S
N716 C719 1.314 . S
C717 C714 1.348 . S
C717 C719 1.353 . S
C717 H773 0.929 1_556 S
C718 C714 1.356 . S
C718 C715 1.358 . S
C718 H774 0.930 . S
C719 N716 1.314 . S
C719 C717 1.353 . S
C719 H775 0.930 . S
C720 N721 1.314 1_556 S
C720 C725 1.353 . S
C720 H726 0.930 . S
N721 Li704 1.990 . S
N721 C720 1.314 1_554 S
N721 C723 1.279 . S
C722 C723 1.358 . S
C722 C724 1.356 . S
C722 H776 0.930 . S
C723 N721 1.279 . S
C723 C722 1.358 . S
C723 H727 0.930 . S
C724 C722 1.356 . S
C724 C725 1.348 1_554 S
C725 C720 1.353 . S
C725 C724 1.348 1_556 S
C725 H777 0.929 . S
H726 C720 0.930 . S
H727 C723 0.930 . S
C728 N729 1.314 . S
C728 C730 1.353 . S
C728 H734 0.930 . S
N729 Li705 1.990 . S
N729 C728 1.314 . S
N729 C732 1.279 . S
C730 C728 1.353 . S
C730 C733 1.348 . S
C730 H778 0.929 . S
C731 C732 1.358 . S
C731 C733 1.356 . S
C731 H779 0.930 . S
C732 N729 1.279 . S
C732 C731 1.358 . S
C732 H735 0.930 . S
C733 C730 1.348 . S
C733 C731 1.356 . S
H734 C728 0.930 . S
H735 C732 0.930 . S
C736 C738 1.348 . S
C736 C739 1.356 . S
C736 O766 1.325 . S
N737 C740 1.314 . S
N737 C741 1.279 . S
C738 C736 1.348 . S
C738 C740 1.353 . S
C738 H780 0.929 . S
C739 C736 1.356 . S
C739 C741 1.358 . S
C739 H781 0.930 . S
C740 N737 1.314 . S
C740 C738 1.353 . S
C740 H782 0.930 . S
C741 N737 1.279 . S
C741 C739 1.358 . S
C741 H783 0.930 . S
C742 C743 1.348 . S
C742 C744 1.356 . S
C742 O767 1.325 . S
C743 C742 1.348 . S
C743 C745 1.353 . S
C743 H784 0.929 . S
C744 C742 1.356 . S
C744 C746 1.358 . S
C744 H785 0.930 . S
C745 C743 1.353 . S
C745 N747 1.314 . S
C745 H786 0.930 . S
C746 C744 1.358 . S
C746 N747 1.279 . S
C746 H787 0.930 . S
N747 C745 1.314 . S
N747 C746 1.279 . S
C748 C750 1.353 . S
C748 N751 1.314 . S
C748 H754 0.930 . S
C749 N751 1.279 1_556 S
C749 C752 1.358 1_556 S
C749 H755 0.930 . S
C750 C748 1.353 . S
C750 C753 1.348 . S
C750 H788 0.929 . S
N751 Li706 1.990 . S
N751 C748 1.314 . S
N751 C749 1.279 1_554 S
C752 C749 1.358 1_554 S
C752 C753 1.356 . S
C752 H789 0.930 1_554 S
C753 C750 1.348 . S
C753 C752 1.356 . S
H754 C748 0.930 . S
H755 C749 0.930 . S
C756 N757 1.314 . S
C756 C758 1.353 . S
C756 H762 0.930 . S
N757 Li707 1.990 . S
N757 C756 1.314 . S
N757 C760 1.279 . S
C758 C756 1.353 . S
C758 C761 1.348 . S
C758 H790 0.929 . S
C759 C760 1.358 . S
C759 C761 1.356 . S
C759 H791 0.930 . S
C760 N757 1.279 . S
C760 C759 1.358 . S
C760 H763 0.930 . S
C761 C758 1.348 . S
C761 C759 1.356 . S
H762 C756 0.930 . S
H763 C760 0.930 . S
O764 Li704 1.956 . S
O764 Li705 1.970 . S
O764 Li706 1.961 . S
O764 C708 1.325 . S
O765 Li704 1.970 1_556 S
O765 Li705 1.956 1_556 S
O765 Li707 1.961 . S
O765 C714 1.325 . S
O766 Li704 1.961 1_556 S
O766 Li706 1.956 1_556 S
O766 Li707 1.970 . S
O766 C736 1.325 . S
O767 Li705 1.961 1_556 S
O767 Li706 1.970 1_556 S
O767 Li707 1.956 . S
O767 C742 1.325 . S
H768 C710 0.929 . S
H769 C711 0.930 . S
H770 C712 0.930 . S
H771 C713 0.930 . S
H772 C715 0.930 . S
H773 C717 0.929 1_554 S
H774 C718 0.930 . S
H775 C719 0.930 . S
H776 C722 0.930 . S
H777 C725 0.929 . S
H778 C730 0.929 . S
H779 C731 0.930 . S
H780 C738 0.929 . S
H781 C739 0.930 . S
H782 C740 0.930 . S
H783 C741 0.930 . S
H784 C743 0.929 . S
H785 C744 0.930 . S
H786 C745 0.930 . S
H787 C746 0.930 . S
H788 C750 0.929 . S
H789 C752 0.930 1_556 S
H790 C758 0.929 . S
H791 C759 0.930 . S
Li792 N809 1.990 . S
Li792 O852 1.956 . S
Li792 O853 1.970 . S
Li792 O854 1.961 . S
Li793 N817 1.990 . S
Li793 O852 1.970 . S
Li793 O853 1.956 . S
Li793 O855 1.961 . S
Li794 N839 1.990 . S
Li794 O852 1.961 . S
Li794 O854 1.956 . S
Li794 O855 1.970 . S
Li795 N845 1.990 . S
Li795 O853 1.961 . S
Li795 O854 1.970 . S
Li795 O855 1.956 . S
C796 C798 1.348 . S
C796 C799 1.356 . S
C796 O852 1.325 . S
N797 C800 1.314 . S
N797 C801 1.279 . S
C798 C796 1.348 . S
C798 C800 1.353 . S
C798 H856 0.929 . S
C799 C796 1.356 . S
C799 C801 1.358 . S
C799 H857 0.930 . S
C800 N797 1.314 . S
C800 C798 1.353 . S
C800 H858 0.930 . S
C801 N797 1.279 . S
C801 C799 1.358 . S
C801 H859 0.930 . S
C802 C805 1.348 . S
C802 C806 1.356 . S
C802 O853 1.325 . S
C803 N804 1.279 . S
C803 C806 1.358 . S
C803 H860 0.930 . S
N804 C803 1.279 . S
N804 C807 1.314 . S
C805 C802 1.348 . S
C805 C807 1.353 . S
C805 H861 0.929 . S
C806 C802 1.356 . S
C806 C803 1.358 . S
C806 H862 0.930 . S
C807 N804 1.314 . S
C807 C805 1.353 . S
C807 H863 0.930 . S
C808 N809 1.314 . S
C808 C813 1.353 . S
C808 H814 0.930 . S
N809 Li792 1.990 . S
N809 C808 1.314 . S
N809 C811 1.279 . S
C810 C811 1.358 . S
C810 C812 1.356 . S
C810 H864 0.930 . S
C811 N809 1.279 . S
C811 C810 1.358 . S
C811 H815 0.930 . S
C812 C810 1.356 . S
C812 C813 1.348 . S
C813 C808 1.353 . S
C813 C812 1.348 . S
C813 H865 0.929 . S
H814 C808 0.930 . S
H815 C811 0.930 . S
C816 N817 1.314 . S
C816 C818 1.353 . S
C816 H822 0.930 . S
N817 Li793 1.990 . S
N817 C816 1.314 . S
N817 C820 1.279 . S
C818 C816 1.353 . S
C818 C821 1.348 . S
C818 H866 0.929 . S
C819 C820 1.358 . S
C819 C821 1.356 . S
C819 H867 0.930 . S
C820 N817 1.279 . S
C820 C819 1.358 . S
C820 H823 0.930 . S
C821 C818 1.348 . S
C821 C819 1.356 . S
H822 C816 0.930 . S
H823 C820 0.930 . S
C824 C826 1.348 . S
C824 C827 1.356 . S
C824 O854 1.325 . S
N825 C828 1.314 . S
N825 C829 1.279 . S
C826 C824 1.348 . S
C826 C828 1.353 . S
C826 H868 0.929 . S
C827 C824 1.356 . S
C827 C829 1.358 . S
C827 H869 0.930 . S
C828 N825 1.314 . S
C828 C826 1.353 . S
C828 H870 0.930 . S
C829 N825 1.279 . S
C829 C827 1.358 . S
C829 H871 0.930 . S
C830 C831 1.348 . S
C830 C832 1.356 . S
C830 O855 1.325 . S
C831 C830 1.348 . S
C831 C833 1.353 . S
C831 H872 0.929 . S
C832 C830 1.356 . S
C832 C834 1.358 . S
C832 H873 0.930 . S
C833 C831 1.353 . S
C833 N835 1.314 . S
C833 H874 0.930 . S
C834 C832 1.358 . S
C834 N835 1.279 . S
C834 H875 0.930 . S
N835 C833 1.314 . S
N835 C834 1.279 . S
C836 C838 1.353 . S
C836 N839 1.314 . S
C836 H842 0.930 . S
C837 N839 1.279 . S
C837 C840 1.358 . S
C837 H843 0.930 . S
C838 C836 1.353 . S
C838 C841 1.348 . S
C838 H876 0.929 . S
N839 Li794 1.990 . S
N839 C836 1.314 . S
N839 C837 1.279 . S
C840 C837 1.358 . S
C840 C841 1.356 . S
C840 H877 0.930 . S
C841 C838 1.348 . S
C841 C840 1.356 . S
H842 C836 0.930 . S
H843 C837 0.930 . S
C844 N845 1.314 . S
C844 C846 1.353 . S
C844 H850 0.930 . S
N845 Li795 1.990 . S
N845 C844 1.314 . S
N845 C848 1.279 . S
C846 C844 1.353 . S
C846 C849 1.348 . S
C846 H878 0.929 . S
C847 C848 1.358 . S
C847 C849 1.356 . S
C847 H879 0.930 . S
C848 N845 1.279 . S
C848 C847 1.358 . S
C848 H851 0.930 . S
C849 C846 1.348 . S
C849 C847 1.356 . S
H850 C844 0.930 . S
H851 C848 0.930 . S
O852 Li792 1.956 . S
O852 Li793 1.970 . S
O852 Li794 1.961 . S
O852 C796 1.325 . S
O853 Li792 1.970 . S
O853 Li793 1.956 . S
O853 Li795 1.961 . S
O853 C802 1.325 . S
O854 Li792 1.961 . S
O854 Li794 1.956 . S
O854 Li795 1.970 . S
O854 C824 1.325 . S
O855 Li793 1.961 . S
O855 Li794 1.970 . S
O855 Li795 1.956 . S
O855 C830 1.325 . S
H856 C798 0.929 . S
H857 C799 0.930 . S
H858 C800 0.930 . S
H859 C801 0.930 . S
H860 C803 0.930 . S
H861 C805 0.929 . S
H862 C806 0.930 . S
H863 C807 0.930 . S
H864 C810 0.930 . S
H865 C813 0.929 . S
H866 C818 0.929 . S
H867 C819 0.930 . S
H868 C826 0.929 . S
H869 C827 0.930 . S
H870 C828 0.930 . S
H871 C829 0.930 . S
H872 C831 0.929 . S
H873 C832 0.930 . S
H874 C833 0.930 . S
H875 C834 0.930 . S
H876 C838 0.929 . S
H877 C840 0.930 . S
H878 C846 0.929 . S
H879 C847 0.930 . S
Li880 N897 1.990 . S
Li880 O940 1.956 . S
Li880 O941 1.970 . S
Li880 O942 1.961 . S
Li881 N905 1.990 . S
Li881 O940 1.970 . S
Li881 O941 1.956 . S
Li881 O943 1.961 . S
Li882 N927 1.990 . S
Li882 O940 1.961 . S
Li882 O942 1.956 . S
Li882 O943 1.970 . S
Li883 N933 1.990 . S
Li883 O941 1.961 . S
Li883 O942 1.970 . S
Li883 O943 1.956 . S
C884 C886 1.348 . S
C884 C887 1.356 . S
C884 O940 1.325 . S
N885 C888 1.314 . S
N885 C889 1.279 . S
C886 C884 1.348 . S
C886 C888 1.353 . S
C886 H944 0.929 . S
C887 C884 1.356 . S
C887 C889 1.358 . S
C887 H945 0.930 . S
C888 N885 1.314 . S
C888 C886 1.353 . S
C888 H946 0.930 . S
C889 N885 1.279 . S
C889 C887 1.358 . S
C889 H947 0.930 . S
C890 C893 1.348 . S
C890 C894 1.356 . S
C890 O941 1.325 . S
C891 N892 1.279 . S
C891 C894 1.358 . S
C891 H948 0.930 . S
N892 C891 1.279 . S
N892 C895 1.314 . S
C893 C890 1.348 . S
C893 C895 1.353 . S
C893 H949 0.929 . S
C894 C890 1.356 . S
C894 C891 1.358 . S
C894 H950 0.930 . S
C895 N892 1.314 . S
C895 C893 1.353 . S
C895 H951 0.930 . S
C896 N897 1.314 . S
C896 C901 1.353 . S
C896 H902 0.930 . S
N897 Li880 1.990 . S
N897 C896 1.314 . S
N897 C899 1.279 . S
C898 C899 1.358 . S
C898 C900 1.356 . S
C898 H952 0.930 . S
C899 N897 1.279 . S
C899 C898 1.358 . S
C899 H903 0.930 . S
C900 C898 1.356 . S
C900 C901 1.348 . S
C901 C896 1.353 . S
C901 C900 1.348 . S
C901 H953 0.929 . S
H902 C896 0.930 . S
H903 C899 0.930 . S
C904 N905 1.314 . S
C904 C906 1.353 . S
C904 H910 0.930 . S
N905 Li881 1.990 . S
N905 C904 1.314 . S
N905 C908 1.279 . S
C906 C904 1.353 . S
C906 C909 1.348 . S
C906 H954 0.929 . S
C907 C908 1.358 . S
C907 C909 1.356 . S
C907 H955 0.930 . S
C908 N905 1.279 . S
C908 C907 1.358 . S
C908 H911 0.930 . S
C909 C906 1.348 . S
C909 C907 1.356 . S
H910 C904 0.930 . S
H911 C908 0.930 . S
C912 C914 1.348 . S
C912 C915 1.356 . S
C912 O942 1.325 . S
N913 C916 1.314 . S
N913 C917 1.279 . S
C914 C912 1.348 . S
C914 C916 1.353 . S
C914 H956 0.929 . S
C915 C912 1.356 . S
C915 C917 1.358 . S
C915 H957 0.930 . S
C916 N913 1.314 . S
C916 C914 1.353 . S
C916 H958 0.930 . S
C917 N913 1.279 . S
C917 C915 1.358 . S
C917 H959 0.930 . S
C918 C919 1.348 . S
C918 C920 1.356 . S
C918 O943 1.325 . S
C919 C918 1.348 . S
C919 C921 1.353 . S
C919 H960 0.929 . S
C920 C918 1.356 . S
C920 C922 1.358 . S
C920 H961 0.930 . S
C921 C919 1.353 . S
C921 N923 1.314 . S
C921 H962 0.930 . S
C922 C920 1.358 . S
C922 N923 1.279 . S
C922 H963 0.930 . S
N923 C921 1.314 . S
N923 C922 1.279 . S
C924 C926 1.353 . S
C924 N927 1.314 . S
C924 H930 0.930 . S
C925 N927 1.279 . S
C925 C928 1.358 . S
C925 H931 0.930 . S
C926 C924 1.353 . S
C926 C929 1.348 . S
C926 H964 0.929 . S
N927 Li882 1.990 . S
N927 C924 1.314 . S
N927 C925 1.279 . S
C928 C925 1.358 . S
C928 C929 1.356 . S
C928 H965 0.930 . S
C929 C926 1.348 . S
C929 C928 1.356 . S
H930 C924 0.930 . S
H931 C925 0.930 . S
C932 N933 1.314 . S
C932 C934 1.353 . S
C932 H938 0.930 . S
N933 Li883 1.990 . S
N933 C932 1.314 . S
N933 C936 1.279 . S
C934 C932 1.353 . S
C934 C937 1.348 . S
C934 H966 0.929 . S
C935 C936 1.358 . S
C935 C937 1.356 . S
C935 H967 0.930 . S
C936 N933 1.279 . S
C936 C935 1.358 . S
C936 H939 0.930 . S
C937 C934 1.348 . S
C937 C935 1.356 . S
H938 C932 0.930 . S
H939 C936 0.930 . S
O940 Li880 1.956 . S
O940 Li881 1.970 . S
O940 Li882 1.961 . S
O940 C884 1.325 . S
O941 Li880 1.970 . S
O941 Li881 1.956 . S
O941 Li883 1.961 . S
O941 C890 1.325 . S
O942 Li880 1.961 . S
O942 Li882 1.956 . S
O942 Li883 1.970 . S
O942 C912 1.325 . S
O943 Li881 1.961 . S
O943 Li882 1.970 . S
O943 Li883 1.956 . S
O943 C918 1.325 . S
H944 C886 0.929 . S
H945 C887 0.930 . S
H946 C888 0.930 . S
H947 C889 0.930 . S
H948 C891 0.930 . S
H949 C893 0.929 . S
H950 C894 0.930 . S
H951 C895 0.930 . S
H952 C898 0.930 . S
H953 C901 0.929 . S
H954 C906 0.929 . S
H955 C907 0.930 . S
H956 C914 0.929 . S
H957 C915 0.930 . S
H958 C916 0.930 . S
H959 C917 0.930 . S
H960 C919 0.929 . S
H961 C920 0.930 . S
H962 C921 0.930 . S
H963 C922 0.930 . S
H964 C926 0.929 . S
H965 C928 0.930 . S
H966 C934 0.929 . S
H967 C935 0.930 . S
Li968 N985 1.990 . S
Li968 O1028 1.956 . S
Li968 O1029 1.970 1_554 S
Li968 O1030 1.961 1_554 S
Li969 N993 1.990 . S
Li969 O1028 1.970 . S
Li969 O1029 1.956 1_554 S
Li969 O1031 1.961 1_554 S
Li970 N1015 1.990 . S
Li970 O1028 1.961 . S
Li970 O1030 1.956 1_554 S
Li970 O1031 1.970 1_554 S
Li971 N1021 1.990 . S
Li971 O1029 1.961 . S
Li971 O1030 1.970 . S
Li971 O1031 1.956 . S
C972 C974 1.348 . S
C972 C975 1.356 . S
C972 O1028 1.325 . S
N973 C976 1.314 . S
N973 C977 1.279 . S
C974 C972 1.348 . S
C974 C976 1.353 . S
C974 H1032 0.929 . S
C975 C972 1.356 . S
C975 C977 1.358 . S
C975 H1033 0.930 . S
C976 N973 1.314 . S
C976 C974 1.353 . S
C976 H1034 0.930 . S
C977 N973 1.279 . S
C977 C975 1.358 . S
C977 H1035 0.930 . S
C978 C981 1.348 . S
C978 C982 1.356 . S
C978 O1029 1.325 . S
C979 N980 1.279 . S
C979 C982 1.358 . S
C979 H1036 0.930 . S
N980 C979 1.279 . S
N980 C983 1.314 . S
C981 C978 1.348 . S
C981 C983 1.353 . S
C981 H1037 0.929 1_556 S
C982 C978 1.356 . S
C982 C979 1.358 . S
C982 H1038 0.930 . S
C983 N980 1.314 . S
C983 C981 1.353 . S
C983 H1039 0.930 . S
C984 N985 1.314 1_556 S
C984 C989 1.353 . S
C984 H990 0.930 . S
N985 Li968 1.990 . S
N985 C984 1.314 1_554 S
N985 C987 1.279 . S
C986 C987 1.358 . S
C986 C988 1.356 . S
C986 H1040 0.930 . S
C987 N985 1.279 . S
C987 C986 1.358 . S
C987 H991 0.930 . S
C988 C986 1.356 . S
C988 C989 1.348 1_554 S
C989 C984 1.353 . S
C989 C988 1.348 1_556 S
C989 H1041 0.929 . S
H990 C984 0.930 . S
H991 C987 0.930 . S
C992 N993 1.314 . S
C992 C994 1.353 . S
C992 H998 0.930 . S
N993 Li969 1.990 . S
N993 C992 1.314 . S
N993 C996 1.279 . S
C994 C992 1.353 . S
C994 C997 1.348 . S
C994 H1042 0.929 . S
C995 C996 1.358 . S
C995 C997 1.356 . S
C995 H1043 0.930 . S
C996 N993 1.279 . S
C996 C995 1.358 . S
C996 H999 0.930 . S
C997 C994 1.348 . S
C997 C995 1.356 . S
H998 C992 0.930 . S
H999 C996 0.930 . S
C1000 C1002 1.348 . S
C1000 C1003 1.356 . S
C1000 O1030 1.325 . S
N1001 C1004 1.314 . S
N1001 C1005 1.279 . S
C1002 C1000 1.348 . S
C1002 C1004 1.353 . S
C1002 H1044 0.929 . S
C1003 C1000 1.356 . S
C1003 C1005 1.358 . S
C1003 H1045 0.930 . S
C1004 N1001 1.314 . S
C1004 C1002 1.353 . S
C1004 H1046 0.930 . S
C1005 N1001 1.279 . S
C1005 C1003 1.358 . S
C1005 H1047 0.930 . S
C1006 C1007 1.348 . S
C1006 C1008 1.356 . S
C1006 O1031 1.325 . S
C1007 C1006 1.348 . S
C1007 C1009 1.353 . S
C1007 H1048 0.929 . S
C1008 C1006 1.356 . S
C1008 C1010 1.358 . S
C1008 H1049 0.930 . S
C1009 C1007 1.353 . S
C1009 N1011 1.314 . S
C1009 H1050 0.930 . S
C1010 C1008 1.358 . S
C1010 N1011 1.279 . S
C1010 H1051 0.930 . S
N1011 C1009 1.314 . S
N1011 C1010 1.279 . S
C1012 C1014 1.353 . S
C1012 N1015 1.314 . S
C1012 H1018 0.930 . S
C1013 N1015 1.279 1_556 S
C1013 C1016 1.358 1_556 S
C1013 H1019 0.930 . S
C1014 C1012 1.353 . S
C1014 C1017 1.348 . S
C1014 H1052 0.929 . S
N1015 Li970 1.990 . S
N1015 C1012 1.314 . S
N1015 C1013 1.279 1_554 S
C1016 C1013 1.358 1_554 S
C1016 C1017 1.356 . S
C1016 H1053 0.930 1_554 S
C1017 C1014 1.348 . S
C1017 C1016 1.356 . S
H1018 C1012 0.930 . S
H1019 C1013 0.930 . S
C1020 N1021 1.314 . S
C1020 C1022 1.353 . S
C1020 H1026 0.930 . S
N1021 Li971 1.990 . S
N1021 C1020 1.314 . S
N1021 C1024 1.279 . S
C1022 C1020 1.353 . S
C1022 C1025 1.348 . S
C1022 H1054 0.929 . S
C1023 C1024 1.358 . S
C1023 C1025 1.356 . S
C1023 H1055 0.930 . S
C1024 N1021 1.279 . S
C1024 C1023 1.358 . S
C1024 H1027 0.930 . S
C1025 C1022 1.348 . S
C1025 C1023 1.356 . S
H1026 C1020 0.930 . S
H1027 C1024 0.930 . S
O1028 Li968 1.956 . S
O1028 Li969 1.970 . S
O1028 Li970 1.961 . S
O1028 C972 1.325 . S
O1029 Li968 1.970 1_556 S
O1029 Li969 1.956 1_556 S
O1029 Li971 1.961 . S
O1029 C978 1.325 . S
O1030 Li968 1.961 1_556 S
O1030 Li970 1.956 1_556 S
O1030 Li971 1.970 . S
O1030 C1000 1.325 . S
O1031 Li969 1.961 1_556 S
O1031 Li970 1.970 1_556 S
O1031 Li971 1.956 . S
O1031 C1006 1.325 . S
H1032 C974 0.929 . S
H1033 C975 0.930 . S
H1034 C976 0.930 . S
H1035 C977 0.930 . S
H1036 C979 0.930 . S
H1037 C981 0.929 1_554 S
H1038 C982 0.930 . S
H1039 C983 0.930 . S
H1040 C986 0.930 . S
H1041 C989 0.929 . S
H1042 C994 0.929 . S
H1043 C995 0.930 . S
H1044 C1002 0.929 . S
H1045 C1003 0.930 . S
H1046 C1004 0.930 . S
H1047 C1005 0.930 . S
H1048 C1007 0.929 . S
H1049 C1008 0.930 . S
H1050 C1009 0.930 . S
H1051 C1010 0.930 . S
H1052 C1014 0.929 . S
H1053 C1016 0.930 1_556 S
H1054 C1022 0.929 . S
H1055 C1023 0.930 . S
C1056 C1057 1.369 . S
C1056 C1058 1.419 . S
C1056 H1060 0.930 . S
C1057 C1056 1.369 . S
C1057 C1066 1.429 . S
C1058 C1056 1.419 . S
C1058 C1059 1.363 . S
C1058 H1061 0.929 . S
C1059 C1058 1.363 . S
C1059 C1065 1.428 . S
H1060 C1056 0.930 . S
H1061 C1058 0.929 . S
S1062 N1063 1.613 . S
S1062 N1064 1.610 . S
N1063 S1062 1.613 . S
N1063 C1066 1.350 . S
N1064 S1062 1.610 . S
N1064 C1065 1.351 . S
C1065 C1059 1.428 . S
C1065 N1064 1.351 . S
C1065 C1066 1.434 . S
C1066 C1057 1.429 . S
C1066 N1063 1.350 . S
C1066 C1065 1.434 . S
C1067 C1068 1.369 . S
C1067 C1069 1.419 . S
C1067 H1071 0.930 . S
C1068 C1067 1.369 . S
C1068 C1077 1.429 . S
C1069 C1067 1.419 . S
C1069 C1070 1.363 . S
C1069 H1072 0.929 . S
C1070 C1069 1.363 . S
C1070 C1076 1.428 . S
H1071 C1067 0.930 . S
H1072 C1069 0.929 . S
S1073 N1074 1.613 . S
S1073 N1075 1.610 . S
N1074 S1073 1.613 . S
N1074 C1077 1.350 . S
N1075 S1073 1.610 . S
N1075 C1076 1.351 . S
C1076 C1070 1.428 . S
C1076 N1075 1.351 . S
C1076 C1077 1.434 . S
C1077 C1068 1.429 . S
C1077 N1074 1.350 . S
C1077 C1076 1.434 . S
C1078 C1079 1.369 . S
C1078 C1080 1.419 . S
C1078 H1082 0.930 . S
C1079 C1078 1.369 . S
C1079 C1088 1.429 1_556 S
C1080 C1078 1.419 . S
C1080 C1081 1.363 1_556 S
C1080 H1083 0.929 . S
C1081 C1080 1.363 1_554 S
C1081 C1087 1.428 . S
H1082 C1078 0.930 . S
H1083 C1080 0.929 . S
S1084 N1085 1.613 . S
S1084 N1086 1.610 . S
N1085 S1084 1.613 . S
N1085 C1088 1.350 . S
N1086 S1084 1.610 . S
N1086 C1087 1.351 . S
C1087 C1081 1.428 . S
C1087 N1086 1.351 . S
C1087 C1088 1.434 . S
C1088 C1079 1.429 1_554 S
C1088 N1085 1.350 . S
C1088 C1087 1.434 . S
C1089 C1090 1.369 . S
C1089 C1091 1.419 . S
C1089 H1093 0.930 . S
C1090 C1089 1.369 . S
C1090 C1099 1.429 . S
C1091 C1089 1.419 . S
C1091 C1092 1.363 . S
C1091 H1094 0.929 . S
C1092 C1091 1.363 . S
C1092 C1098 1.428 . S
H1093 C1089 0.930 . S
H1094 C1091 0.929 . S
S1095 N1096 1.613 . S
S1095 N1097 1.610 . S
N1096 S1095 1.613 . S
N1096 C1099 1.350 . S
N1097 S1095 1.610 . S
N1097 C1098 1.351 . S
C1098 C1092 1.428 . S
C1098 N1097 1.351 . S
C1098 C1099 1.434 . S
C1099 C1090 1.429 . S
C1099 N1096 1.350 . S
C1099 C1098 1.434 . S
C1100 C1101 1.369 . S
C1100 C1102 1.419 . S
C1100 H1104 0.930 . S
C1101 C1100 1.369 . S
C1101 C1110 1.429 . S
C1102 C1100 1.419 . S
C1102 C1103 1.363 . S
C1102 H1105 0.929 . S
C1103 C1102 1.363 . S
C1103 C1109 1.428 . S
H1104 C1100 0.930 . S
H1105 C1102 0.929 . S
S1106 N1107 1.613 . S
S1106 N1108 1.610 . S
N1107 S1106 1.613 . S
N1107 C1110 1.350 . S
N1108 S1106 1.610 . S
N1108 C1109 1.351 . S
C1109 C1103 1.428 . S
C1109 N1108 1.351 . S
C1109 C1110 1.434 . S
C1110 C1101 1.429 . S
C1110 N1107 1.350 . S
C1110 C1109 1.434 . S
C1111 C1112 1.368 1_556 S
C1111 C1113 1.420 . S
C1111 H1115 0.930 . S
C1112 C1111 1.368 1_554 S
C1112 C1121 1.429 . S
C1113 C1111 1.420 . S
C1113 C1114 1.363 . S
C1113 H1116 0.929 . S
C1114 C1113 1.363 . S
C1114 C1120 1.428 1_556 S
H1115 C1111 0.930 . S
H1116 C1113 0.929 . S
S1117 N1118 1.613 . S
S1117 N1119 1.610 . S
N1118 S1117 1.613 . S
N1118 C1121 1.350 . S
N1119 S1117 1.610 . S
N1119 C1120 1.351 . S
C1120 C1114 1.428 1_554 S
C1120 N1119 1.351 . S
C1120 C1121 1.434 . S
C1121 C1112 1.429 . S
C1121 N1118 1.350 . S
C1121 C1120 1.434 . S
C1122 C1123 1.369 . S
C1122 C1124 1.419 . S
C1122 H1126 0.930 . S
C1123 C1122 1.369 . S
C1123 C1132 1.429 . S
C1124 C1122 1.419 . S
C1124 C1125 1.363 . S
C1124 H1127 0.929 . S
C1125 C1124 1.363 . S
C1125 C1131 1.428 . S
H1126 C1122 0.930 . S
H1127 C1124 0.929 . S
S1128 N1129 1.613 . S
S1128 N1130 1.610 . S
N1129 S1128 1.613 . S
N1129 C1132 1.350 . S
N1130 S1128 1.610 . S
N1130 C1131 1.351 . S
C1131 C1125 1.428 . S
C1131 N1130 1.351 . S
C1131 C1132 1.434 . S
C1132 C1123 1.429 . S
C1132 N1129 1.350 . S
C1132 C1131 1.434 . S
C1133 C1134 1.369 . S
C1133 C1135 1.419 1_655 S
C1133 H1137 0.930 . S
C1134 C1133 1.369 . S
C1134 C1143 1.429 . S
C1135 C1133 1.419 1_455 S
C1135 C1136 1.363 . S
C1135 H1138 0.929 . S
C1136 C1135 1.363 . S
C1136 C1142 1.428 . S
H1137 C1133 0.930 . S
H1138 C1135 0.929 . S
S1139 N1140 1.613 . S
S1139 N1141 1.610 . S
N1140 S1139 1.613 . S
N1140 C1143 1.350 . S
N1141 S1139 1.610 . S
N1141 C1142 1.351 1_655 S
C1142 C1136 1.428 . S
C1142 N1141 1.351 1_455 S
C1142 C1143 1.434 1_455 S
C1143 C1134 1.429 . S
C1143 N1140 1.350 . S
C1143 C1142 1.434 1_655 S
C1144 C1145 1.369 . S
C1144 C1146 1.419 1_544 S
C1144 H1148 0.930 . S
C1145 C1144 1.369 . S
C1145 C1154 1.429 . S
C1146 C1144 1.419 1_566 S
C1146 C1147 1.363 . S
C1146 H1149 0.929 . S
C1147 C1146 1.363 . S
C1147 C1153 1.428 . S
H1148 C1144 0.930 . S
H1149 C1146 0.929 . S
S1150 N1151 1.613 1_556 S
S1150 N1152 1.610 1_545 S
N1151 S1150 1.613 1_554 S
N1151 C1154 1.350 . S
N1152 S1150 1.610 1_565 S
N1152 C1153 1.351 . S
C1153 C1147 1.428 . S
C1153 N1152 1.351 . S
C1153 C1154 1.434 1_566 S
C1154 C1145 1.429 . S
C1154 N1151 1.350 . S
C1154 C1153 1.434 1_544 S
C1155 C1156 1.369 . S
C1155 C1157 1.419 . S
C1155 H1159 0.930 . S
C1156 C1155 1.369 . S
C1156 C1165 1.429 . S
C1157 C1155 1.419 . S
C1157 C1158 1.363 . S
C1157 H1160 0.929 . S
C1158 C1157 1.363 . S
C1158 C1164 1.428 . S
H1159 C1155 0.930 . S
H1160 C1157 0.929 . S
S1161 N1162 1.613 . S
S1161 N1163 1.610 . S
N1162 S1161 1.613 . S
N1162 C1165 1.350 . S
N1163 S1161 1.610 . S
N1163 C1164 1.351 . S
C1164 C1158 1.428 . S
C1164 N1163 1.351 . S
C1164 C1165 1.434 . S
C1165 C1156 1.429 . S
C1165 N1162 1.350 . S
C1165 C1164 1.434 . S
C1166 C1167 1.369 1_655 S
C1166 C1168 1.419 . S
C1166 H1170 0.930 . S
C1167 C1166 1.369 1_455 S
C1167 C1176 1.429 . S
C1168 C1166 1.419 . S
C1168 C1169 1.363 . S
C1168 H1171 0.929 . S
C1169 C1168 1.363 . S
C1169 C1175 1.428 1_655 S
H1170 C1166 0.930 . S
H1171 C1168 0.929 . S
S1172 N1173 1.613 . S
S1172 N1174 1.610 . S
N1173 S1172 1.613 . S
N1173 C1176 1.350 . S
N1174 S1172 1.610 . S
N1174 C1175 1.351 . S
C1175 C1169 1.428 1_455 S
C1175 N1174 1.351 . S
C1175 C1176 1.434 . S
C1176 C1167 1.429 . S
C1176 N1173 1.350 . S
C1176 C1175 1.434 . S
C1177 C1178 1.369 . S
C1177 C1179 1.419 1_546 S
C1177 H1181 0.930 . S
C1178 C1177 1.369 . S
C1178 C1187 1.429 . S
C1179 C1177 1.419 1_564 S
C1179 C1180 1.363 . S
C1179 H1182 0.929 . S
C1180 C1179 1.363 . S
C1180 C1186 1.428 . S
H1181 C1177 0.930 . S
H1182 C1179 0.929 . S
S1183 N1184 1.623 1_554 S
S1183 N1185 1.620 1_545 S
N1184 S1183 1.623 1_556 S
N1184 C1187 1.350 . S
N1185 S1183 1.620 1_565 S
N1185 C1186 1.351 . S
C1186 C1180 1.428 . S
C1186 N1185 1.351 . S
C1186 C1187 1.434 1_564 S
C1187 C1178 1.429 . S
C1187 N1184 1.350 . S
C1187 C1186 1.434 1_546 S
C1188 C1189 1.369 . S
C1188 C1190 1.419 . S
C1188 H1192 0.930 . S
C1189 C1188 1.369 . S
C1189 C1198 1.429 1_655 S
C1190 C1188 1.419 . S
C1190 C1191 1.363 1_655 S
C1190 H1193 0.929 . S
C1191 C1190 1.363 1_455 S
C1191 C1197 1.428 . S
H1192 C1188 0.930 . S
H1193 C1190 0.929 . S
S1194 N1195 1.613 . S
S1194 N1196 1.610 . S
N1195 S1194 1.613 . S
N1195 C1198 1.350 . S
N1196 S1194 1.610 . S
N1196 C1197 1.351 . S
C1197 C1191 1.428 . S
C1197 N1196 1.351 . S
C1197 C1198 1.434 . S
C1198 C1189 1.429 1_455 S
C1198 N1195 1.350 . S
C1198 C1197 1.434 . S
C1199 C1200 1.369 . S
C1199 C1201 1.419 . S
C1199 H1203 0.930 . S
C1200 C1199 1.369 . S
C1200 C1209 1.429 1_545 S
C1201 C1199 1.419 . S
C1201 C1202 1.363 1_545 S
C1201 H1204 0.929 . S
C1202 C1201 1.363 1_565 S
C1202 C1208 1.428 . S
H1203 C1199 0.930 . S
H1204 C1201 0.929 . S
S1205 N1206 1.613 . S
S1205 N1207 1.610 . S
N1206 S1205 1.613 . S
N1206 C1209 1.350 . S
N1207 S1205 1.610 . S
N1207 C1208 1.351 . S
C1208 C1202 1.428 . S
C1208 N1207 1.351 . S
C1208 C1209 1.434 . S
C1209 C1200 1.429 1_565 S
C1209 N1206 1.350 . S
C1209 C1208 1.434 . S
C1210 C1211 1.369 . S
C1210 C1212 1.419 . S
C1210 H1214 0.930 . S
C1211 C1210 1.369 . S
C1211 C1220 1.429 . S
C1212 C1210 1.419 . S
C1212 C1213 1.363 . S
C1212 H1215 0.929 . S
C1213 C1212 1.363 . S
C1213 C1219 1.428 . S
H1214 C1210 0.930 . S
H1215 C1212 0.929 . S
S1216 N1217 1.613 . S
S1216 N1218 1.610 . S
N1217 S1216 1.613 . S
N1217 C1220 1.350 . S
N1218 S1216 1.610 . S
N1218 C1219 1.351 . S
C1219 C1213 1.428 . S
C1219 N1218 1.351 . S
C1219 C1220 1.434 . S
C1220 C1211 1.429 . S
C1220 N1217 1.350 . S
C1220 C1219 1.434 . S
C1221 C1222 1.369 . S
C1221 C1223 1.419 . S
C1221 H1225 0.930 . S
C1222 C1221 1.369 . S
C1222 C1231 1.429 1_455 S
C1223 C1221 1.419 . S
C1223 C1224 1.363 1_455 S
C1223 H1226 0.929 . S
C1224 C1223 1.363 1_655 S
C1224 C1230 1.428 . S
H1225 C1221 0.930 . S
H1226 C1223 0.929 . S
S1227 N1228 1.613 . S
S1227 N1229 1.610 . S
N1228 S1227 1.613 . S
N1228 C1231 1.350 . S
N1229 S1227 1.610 . S
N1229 C1230 1.351 . S
C1230 C1224 1.428 . S
C1230 N1229 1.351 . S
C1230 C1231 1.434 . S
C1231 C1222 1.429 1_655 S
C1231 N1228 1.350 . S
C1231 C1230 1.434 . S
C1232 C1233 1.369 . S
C1232 C1234 1.419 . S
C1232 H1236 0.930 . S
C1233 C1232 1.369 . S
C1233 C1242 1.429 1_545 S
C1234 C1232 1.419 . S
C1234 C1235 1.363 1_545 S
C1234 H1237 0.929 . S
C1235 C1234 1.363 1_565 S
C1235 C1241 1.428 . S
H1236 C1232 0.930 . S
H1237 C1234 0.929 . S
S1238 N1239 1.613 . S
S1238 N1240 1.610 . S
N1239 S1238 1.613 . S
N1239 C1242 1.350 . S
N1240 S1238 1.610 . S
N1240 C1241 1.351 . S
C1241 C1235 1.428 . S
C1241 N1240 1.351 . S
C1241 C1242 1.434 . S
C1242 C1233 1.429 1_565 S
C1242 N1239 1.350 . S
C1242 C1241 1.434 . S
C1243 C1244 1.369 . S
C1243 C1245 1.419 . S
C1243 H1247 0.930 . S
C1244 C1243 1.369 . S
C1244 C1253 1.429 . S
C1245 C1243 1.419 . S
C1245 C1246 1.363 . S
C1245 H1248 0.929 . S
C1246 C1245 1.363 . S
C1246 C1252 1.428 . S
H1247 C1243 0.930 . S
H1248 C1245 0.929 . S
S1249 N1250 1.613 . S
S1249 N1251 1.610 . S
N1250 S1249 1.613 . S
N1250 C1253 1.350 . S
N1251 S1249 1.610 . S
N1251 C1252 1.351 . S
C1252 C1246 1.428 . S
C1252 N1251 1.351 . S
C1252 C1253 1.434 . S
C1253 C1244 1.429 . S
C1253 N1250 1.350 . S
C1253 C1252 1.434 . S
C1254 C1255 1.369 . S
C1254 C1256 1.419 . S
C1254 H1258 0.930 . S
C1255 C1254 1.369 . S
C1255 C1264 1.429 . S
C1256 C1254 1.419 . S
C1256 C1257 1.363 . S
C1256 H1259 0.929 . S
C1257 C1256 1.363 . S
C1257 C1263 1.428 . S
H1258 C1254 0.930 . S
H1259 C1256 0.929 . S
S1260 N1261 1.613 . S
S1260 N1262 1.610 . S
N1261 S1260 1.613 . S
N1261 C1264 1.350 . S
N1262 S1260 1.610 . S
N1262 C1263 1.351 . S
C1263 C1257 1.428 . S
C1263 N1262 1.351 . S
C1263 C1264 1.434 . S
C1264 C1255 1.429 . S
C1264 N1261 1.350 . S
C1264 C1263 1.434 . S
C1265 C1266 1.369 . S
C1265 C1267 1.419 . S
C1265 H1269 0.930 . S
C1266 C1265 1.369 . S
C1266 C1275 1.429 . S
C1267 C1265 1.419 . S
C1267 C1268 1.363 . S
C1267 H1270 0.929 . S
C1268 C1267 1.363 . S
C1268 C1274 1.428 . S
H1269 C1265 0.930 . S
H1270 C1267 0.929 . S
S1271 N1272 1.613 . S
S1271 N1273 1.610 . S
N1272 S1271 1.613 . S
N1272 C1275 1.350 . S
N1273 S1271 1.610 . S
N1273 C1274 1.351 . S
C1274 C1268 1.428 . S
C1274 N1273 1.351 . S
C1274 C1275 1.434 . S
C1275 C1266 1.429 . S
C1275 N1272 1.350 . S
C1275 C1274 1.434 . S
C1276 C1277 1.369 . S
C1276 C1278 1.419 . S
C1276 H1280 0.930 . S
C1277 C1276 1.369 . S
C1277 C1286 1.429 . S
C1278 C1276 1.419 . S
C1278 C1279 1.363 . S
C1278 H1281 0.929 . S
C1279 C1278 1.363 . S
C1279 C1285 1.428 . S
H1280 C1276 0.930 . S
H1281 C1278 0.929 . S
S1282 N1283 1.613 . S
S1282 N1284 1.610 . S
N1283 S1282 1.613 . S
N1283 C1286 1.350 . S
N1284 S1282 1.610 . S
N1284 C1285 1.351 . S
C1285 C1279 1.428 . S
C1285 N1284 1.351 . S
C1285 C1286 1.434 . S
C1286 C1277 1.429 . S
C1286 N1283 1.350 . S
C1286 C1285 1.434 . S
C1287 C1288 1.369 . S
C1287 C1289 1.419 . S
C1287 H1291 0.930 . S
C1288 C1287 1.369 . S
C1288 C1297 1.429 . S
C1289 C1287 1.419 . S
C1289 C1290 1.363 . S
C1289 H1292 0.929 . S
C1290 C1289 1.363 . S
C1290 C1296 1.428 . S
H1291 C1287 0.930 . S
H1292 C1289 0.929 . S
S1293 N1294 1.613 . S
S1293 N1295 1.610 . S
N1294 S1293 1.613 . S
N1294 C1297 1.350 . S
N1295 S1293 1.610 . S
N1295 C1296 1.351 . S
C1296 C1290 1.428 . S
C1296 N1295 1.351 . S
C1296 C1297 1.434 . S
C1297 C1288 1.429 . S
C1297 N1294 1.350 . S
C1297 C1296 1.434 . S
C1298 C1299 1.369 . S
C1298 C1300 1.419 . S
C1298 H1302 0.930 . S
C1299 C1298 1.369 . S
C1299 C1308 1.429 . S
C1300 C1298 1.419 . S
C1300 C1301 1.363 . S
C1300 H1303 0.929 . S
C1301 C1300 1.363 . S
C1301 C1307 1.428 . S
H1302 C1298 0.930 . S
H1303 C1300 0.929 . S
S1304 N1305 1.613 . S
S1304 N1306 1.610 . S
N1305 S1304 1.613 . S
N1305 C1308 1.350 . S
N1306 S1304 1.610 . S
N1306 C1307 1.351 . S
C1307 C1301 1.428 . S
C1307 N1306 1.351 . S
C1307 C1308 1.434 . S
C1308 C1299 1.429 . S
C1308 N1305 1.350 . S
C1308 C1307 1.434 . S
C1309 C1310 1.369 . S
C1309 C1311 1.419 . S
C1309 H1313 0.930 . S
C1310 C1309 1.369 . S
C1310 C1319 1.429 . S
C1311 C1309 1.419 . S
C1311 C1312 1.363 . S
C1311 H1314 0.929 . S
C1312 C1311 1.363 . S
C1312 C1318 1.428 . S
H1313 C1309 0.930 . S
H1314 C1311 0.929 . S
S1315 N1316 1.613 . S
S1315 N1317 1.610 . S
N1316 S1315 1.613 . S
N1316 C1319 1.350 . S
N1317 S1315 1.610 . S
N1317 C1318 1.351 . S
C1318 C1312 1.428 . S
C1318 N1317 1.351 . S
C1318 C1319 1.434 . S
C1319 C1310 1.429 . S
C1319 N1316 1.350 . S
C1319 C1318 1.434 . S
C1057 C20 1.611 . S
C1059 C585 1.616 . S
C1068 C108 1.611 . S
C1070 C665 1.615 . S
C1079 C205 1.621 . S
C1081 C753 1.628 . S
C1090 C841 1.607 . S
C1092 C293 1.614 . S
C1101 C381 1.614 . S
C1103 C937 1.613 . S
C1112 C1017 1.627 . S
C1114 C460 1.623 . S
C1123 C49 0.844 . S
C1125 C812 0.831 . S
C1134 C137 0.828 . S
C1136 C909 0.838 . S
C1145 C988 0.856 . S
C1147 C233 0.864 . S
C1156 C557 0.826 . S
C1158 C321 0.843 . S
C1167 C409 0.825 . S
C1169 C636 0.842 . S
C1178 C489 0.860 . S
C1180 C724 0.855 . S
C1189 C997 2.183 . S
C1191 C57 2.176 . S
C1200 C145 2.221 . S
C1202 C548 2.217 . S
C1211 C225 2.182 . S
C1213 C645 2.177 . S
C1222 C733 2.185 . S
C1224 C313 2.176 . S
C1233 C821 2.220 . S
C1235 C401 2.217 . S
C1244 C497 2.182 . S
C1246 C900 2.180 . S
C1255 C29 1.905 . S
C1257 C929 1.901 . S
C1266 C1025 1.909 . S
C1268 C117 1.924 . S
C1277 C577 1.919 . S
C1279 C196 1.915 . S
C1288 C284 1.910 . S
C1290 C673 1.899 . S
C1299 C761 1.909 . S
C1301 C372 1.924 . S
C1310 C849 1.922 . S
C1312 C469 1.914 . S
