# Generated by pormake.
# Topology mdf, (4)-cn, num edge types: 1
# Building blocks:
#     Node 0, Type 0, BuildingBlock: CEKHIL_clean_sbu_0, # of connection points: 4
#     Node 1, Type 0, BuildingBlock: CEKHIL_clean_sbu_0, # of connection points: 4
#     Node 2, Type 0, BuildingBlock: CEKHIL_clean_sbu_0, # of connection points: 4
#     Node 3, Type 0, BuildingBlock: CEKHIL_clean_sbu_0, # of connection points: 4
#     Node 4, Type 0, BuildingBlock: CEKHIL_clean_sbu_0, # of connection points: 4
#     Node 5, Type 0, BuildingBlock: CEKHIL_clean_sbu_0, # of connection points: 4
#     Node 6, Type 0, BuildingBlock: CEKHIL_clean_sbu_0, # of connection points: 4
#     Node 7, Type 0, BuildingBlock: CEKHIL_clean_sbu_0, # of connection points: 4
#     Edge 8, Type (0, 0), BuildingBlock: AJUNOK_clean_linker_0, # of connection points: 2
#     Edge 9, Type (0, 0), BuildingBlock: AJUNOK_clean_linker_0, # of connection points: 2
#     Edge 10, Type (0, 0), BuildingBlock: AJUNOK_clean_linker_0, # of connection points: 2
#     Edge 11, Type (0, 0), BuildingBlock: AJUNOK_clean_linker_0, # of connection points: 2
#     Edge 12, Type (0, 0), BuildingBlock: AJUNOK_clean_linker_0, # of connection points: 2
#     Edge 13, Type (0, 0), BuildingBlock: AJUNOK_clean_linker_0, # of connection points: 2
#     Edge 14, Type (0, 0), BuildingBlock: AJUNOK_clean_linker_0, # of connection points: 2
#     Edge 15, Type (0, 0), BuildingBlock: AJUNOK_clean_linker_0, # of connection points: 2
#     Edge 16, Type (0, 0), BuildingBlock: AJUNOK_clean_linker_0, # of connection points: 2
#     Edge 17, Type (0, 0), BuildingBlock: AJUNOK_clean_linker_0, # of connection points: 2
#     Edge 18, Type (0, 0), BuildingBlock: AJUNOK_clean_linker_0, # of connection points: 2
#     Edge 19, Type (0, 0), BuildingBlock: AJUNOK_clean_linker_0, # of connection points: 2
#     Edge 20, Type (0, 0), BuildingBlock: AJUNOK_clean_linker_0, # of connection points: 2
#     Edge 21, Type (0, 0), BuildingBlock: AJUNOK_clean_linker_0, # of connection points: 2
#     Edge 22, Type (0, 0), BuildingBlock: AJUNOK_clean_linker_0, # of connection points: 2
#     Edge 23, Type (0, 0), BuildingBlock: AJUNOK_clean_linker_0, # of connection points: 2
# Relax obj value: 0.019
# Max RMSD: 0.044
# Mean RMSD: 0.044
data_MOF--net-mdf--node1-CEKHIL_clean_sbu_0--edge1-AJUNOK_clean_linker_0
_symmetry_space_group_name_H-M    P1
_symmetry_Int_Tables_number       1
_symmetry_cell_setting            triclinic
loop_
_symmetry_equiv_pos_as_xyz
'x, y, z'
_cell_length_a     27.609522
_cell_length_b     27.742067
_cell_length_c     8.3655857
_cell_angle_alpha  90.139941
_cell_angle_beta   89.950293
_cell_angle_gamma 91.714948
loop_
_atom_site_label
_atom_site_type_symbol
_atom_site_fract_x
_atom_site_fract_y
_atom_site_fract_z
_atom_type_partial_charge
Co0 Co 0.26142 0.54889 0.38149 0.0
O1 O 0.20983 0.59454 0.39021 0.0
O2 O 0.23711 0.55538 0.59888 0.0
C3 C 0.31082 0.59552 0.22708 0.0
O4 O 0.31529 0.50042 0.41896 0.0
Co5 Co 0.29337 0.50452 0.05994 0.0
O6 O 0.34801 0.47916 0.18409 0.0
C7 C 0.20334 0.4683 0.21538 0.0
C8 C 0.20699 0.58633 0.54225 0.0
C9 C 0.34741 0.47818 0.33624 0.0
O10 O 0.21293 0.49459 0.33899 0.0
O11 O 0.22927 0.46954 0.0884 0.0
O12 O 0.31006 0.60182 0.38103 0.0
O13 O 0.28007 0.56387 0.17136 0.0
Co14 Co 0.47554 0.76036 0.63653 0.0
O15 O 0.42759 0.8098 0.62504 0.0
O16 O 0.46715 0.78215 0.41714 0.0
C17 C 0.43123 0.71084 0.79673 0.0
O18 O 0.52583 0.70809 0.60054 0.0
Co19 Co 0.52264 0.73345 0.96006 0.0
O20 O 0.54966 0.67938 0.83807 0.0
C21 C 0.55487 0.82263 0.79396 0.0
C22 C 0.43485 0.81119 0.4722 0.0
C23 C 0.55013 0.67843 0.6859 0.0
O24 O 0.52847 0.81069 0.67267 0.0
O25 O 0.55495 0.79826 0.92383 0.0
O26 O 0.4241 0.71095 0.64316 0.0
O27 O 0.46221 0.74272 0.84956 0.0
Co28 Co 0.26235 0.96653 0.8918 0.0
O29 O 0.31156 0.91887 0.90864 0.0
O30 O 0.28255 0.95895 0.11382 0.0
C31 C 0.21231 0.92331 0.72839 0.0
O32 O 0.21049 0.01742 0.92089 0.0
Co33 Co 0.23911 0.01207 0.56207 0.0
O34 O 0.18556 0.04254 0.67987 0.0
C35 C 0.32955 0.03993 0.72903 0.0
C36 C 0.31245 0.92711 0.06128 0.0
C37 C 0.18267 0.04272 0.83198 0.0
O38 O 0.31408 0.01823 0.85598 0.0
O39 O 0.30707 0.03774 0.59533 0.0
O40 O 0.2113 0.9161 0.88198 0.0
O41 O 0.24599 0.95274 0.67879 0.0
Co42 Co 0.05158 0.75813 0.1235 0.0
O43 O 0.09817 0.70774 0.10871 0.0
O44 O 0.05924 0.73752 0.90261 0.0
C45 C 0.09545 0.80755 0.28707 0.0
O46 O 1.00219 0.8111 0.091 0.0
Co47 Co 1.00371 0.78387 0.44659 0.0
O48 O 0.9781 0.83959 0.32876 0.0
C49 C 0.9757 0.6934 0.28365 0.0
C50 C 0.09039 0.70718 0.95571 0.0
C51 C 0.97889 0.84154 0.17664 0.0
O52 O 0.99818 0.70814 0.1573 0.0
O53 O 0.97736 0.71632 0.41653 0.0
O54 O 0.10381 0.80722 0.13417 0.0
O55 O 0.06456 0.77512 0.33682 0.0
Co56 Co 0.76852 0.05034 0.90855 0.0
O57 O 0.71982 0.09826 0.92171 0.0
O58 O 0.74917 0.06083 0.13087 0.0
C59 C 0.81703 0.0923 0.73728 0.0
O60 O 0.8206 1.00026 0.94288 0.0
Co61 Co 0.79307 1.00073 0.58583 0.0
O62 O 0.8468 0.97209 0.70703 0.0
C63 C 0.7019 0.97536 0.75416 0.0
C64 C 0.72027 0.09307 0.0757 0.0
C65 C 0.84935 0.97442 0.85897 0.0
O66 O 0.71689 0.99813 0.87997 0.0
O67 O 0.72487 0.9762 0.62115 0.0
O68 O 0.81916 0.10089 0.89011 0.0
O69 O 0.7839 0.06151 0.69289 0.0
Co70 Co 0.97305 0.25413 0.11079 0.0
O71 O 0.92482 0.30314 0.10361 0.0
O72 O 0.96192 0.27459 0.89143 0.0
C73 C 0.93158 0.20393 0.27881 0.0
O74 O 0.0239 0.20296 0.07027 0.0
Co75 Co 0.02509 0.22816 0.42528 0.0
O76 O 0.05184 0.17396 0.30175 0.0
C77 C 0.0525 0.31829 0.25775 0.0
C78 C 0.93039 0.30384 0.94961 0.0
C79 C 0.04991 0.17341 0.14971 0.0
O80 O 0.02584 0.30526 0.13822 0.0
O81 O 0.05361 0.29462 0.38886 0.0
O82 O 0.92211 0.20381 0.1267 0.0
O83 O 0.96267 0.23668 0.32566 0.0
Co84 Co 0.75883 0.46811 0.39184 0.0
O85 O 0.80586 0.41743 0.39653 0.0
O86 O 0.78193 0.45774 0.60794 0.0
C87 C 0.70408 0.42945 0.23257 0.0
O88 O 0.70999 0.52095 0.43647 0.0
Co89 Co 0.73103 0.52015 0.07873 0.0
O90 O 0.67745 0.54636 0.20703 0.0
C91 C 0.8236 0.54583 0.23751 0.0
C92 C 0.80897 0.42437 0.54961 0.0
C93 C 0.67902 0.54591 0.35905 0.0
O94 O 0.81183 0.51842 0.35607 0.0
O95 O 0.79789 0.54857 0.11073 0.0
O96 O 0.70584 0.4197 0.38416 0.0
O97 O 0.7381 0.45821 0.18063 0.0
Co98 Co 0.55016 0.26261 0.62832 0.0
O99 O 0.60098 0.21533 0.62821 0.0
O100 O 0.56445 0.2411 0.41205 0.0
C101 C 0.58605 0.317 0.79441 0.0
O102 O 0.49816 0.31214 0.5802 0.0
Co103 Co 0.49473 0.28708 0.94167 0.0
O104 O 0.46867 0.34017 0.81232 0.0
C105 C 0.4745 0.19454 0.77755 0.0
C106 C 0.59703 0.21375 0.47381 0.0
C107 C 0.47201 0.34167 0.66042 0.0
O108 O 0.49958 0.20921 0.65622 0.0
O109 O 0.47212 0.21852 0.90815 0.0
O110 O 0.59795 0.31569 0.64405 0.0
O111 O 0.55744 0.28233 0.84182 0.0
C112 C 0.41923 0.66511 0.05314 0.0
C113 C 0.40099 0.68103 0.90587 0.0
C114 C 0.38985 0.63763 0.15853 0.0
C115 C 0.34149 0.62541 0.11934 0.0
H116 H 0.45645 0.67358 0.08637 0.0
H117 H 0.40519 0.62536 0.26988 0.0
S118 S 0.27459 0.66703 0.76445 0.0
N119 N 0.33039 0.68798 0.73677 0.0
N120 N 0.27527 0.63654 0.9336 0.0
C121 C 0.32257 0.64276 0.97551 0.0
C122 C 0.35234 0.67054 0.86897 0.0
C123 C 0.36535 0.86656 0.42945 0.0
C124 C 0.40612 0.84324 0.36761 0.0
C125 C 0.33617 0.89511 0.33192 0.0
C126 C 0.34595 0.90083 0.16794 0.0
H127 H 0.35537 0.86228 0.55398 0.0
H128 H 0.30536 0.91205 0.38509 0.0
S129 S 0.45347 0.85635 0.95545 0.0
N130 N 0.4584 0.83398 0.137 0.0
N131 N 0.40313 0.8867 0.95402 0.0
C132 C 0.38795 0.87993 0.10693 0.0
C133 C 0.41799 0.85133 0.20635 0.0
C134 C 0.16377 0.86597 0.34643 0.0
C135 C 0.12161 0.84093 0.39797 0.0
C136 C 0.19173 0.89419 0.45297 0.0
C137 C 0.17911 0.89782 0.6155 0.0
H138 H 0.17604 0.86287 0.22387 0.0
H139 H 0.22404 0.91234 0.40799 0.0
S140 S 0.06609 0.8495 0.80053 0.0
N141 N 0.06426 0.82855 0.6159 0.0
N142 N 0.11748 0.88101 0.81609 0.0
C143 C 0.13538 0.87581 0.66595 0.0
C144 C 0.10654 0.84743 0.55722 0.0
C145 C 0.12398 0.68522 0.68603 0.0
C146 C 0.11647 0.67387 0.84816 0.0
C147 C 0.15186 0.65577 0.58676 0.0
C148 C 0.17318 0.61368 0.64545 0.0
H149 H 0.10957 0.71788 0.63658 0.0
H150 H 0.15796 0.667 0.46428 0.0
S151 S 0.15748 0.56434 0.05395 0.0
N152 N 0.12811 0.61517 0.05805 0.0
N153 N 0.18 0.55974 0.87195 0.0
C154 C 0.16364 0.60071 0.80499 0.0
C155 C 0.13555 0.63084 0.9061 0.0
C156 C 0.83268 0.12326 0.46094 0.0
C157 C 0.84859 0.11752 0.61946 0.0
C158 C 0.86049 0.14996 0.34978 0.0
C159 C 0.90525 0.17181 0.39312 0.0
H160 H 0.7978 0.10826 0.42356 0.0
H161 H 0.84605 0.1547 0.23064 0.0
S162 S 0.96668 0.15939 0.784 0.0
N163 N 0.9142 0.13044 0.8081 0.0
N164 N 0.96666 0.1806 0.6 0.0
C165 C 0.92258 0.16407 0.54884 0.0
C166 C 0.8942 0.13696 0.66182 0.0
C167 C 0.89325 0.3252 0.68438 0.0
C168 C 0.90146 0.33608 0.8468 0.0
C169 C 0.86372 0.3541 0.58894 0.0
C170 C 0.84136 0.39516 0.65181 0.0
H171 H 0.9089 0.29357 0.63128 0.0
H172 H 0.85793 0.34372 0.46535 0.0
S173 S 0.8566 0.44246 0.0642 0.0
N174 N 0.88808 0.39291 0.0623 0.0
N175 N 0.83304 0.44705 0.88396 0.0
C176 C 0.85066 0.40717 0.81259 0.0
C177 C 0.88054 0.37772 0.9096 0.0
C178 C 0.63503 0.37078 0.18012 0.0
C179 C 0.66711 0.40735 0.12447 0.0
C180 C 0.60498 0.34461 0.07367 0.0
C181 C 0.60778 0.35257 0.90775 0.0
H182 H 0.63425 0.36108 0.30549 0.0
H183 H 0.58124 0.31639 0.12105 0.0
S184 S 0.67109 0.45571 0.71228 0.0
N185 N 0.68909 0.45893 0.89979 0.0
N186 N 0.63443 0.40789 0.69977 0.0
C187 C 0.63496 0.39273 0.85391 0.0
C188 C 0.66449 0.42033 0.96235 0.0
C189 C 0.67881 0.11152 0.33962 0.0
C190 C 0.69011 0.124 0.18027 0.0
C191 C 0.64891 0.14068 0.43461 0.0
C192 C 0.62894 0.18315 0.37344 0.0
H193 H 0.69266 0.07885 0.39072 0.0
H194 H 0.64087 0.12952 0.55599 0.0
S195 S 0.65457 0.23548 0.97408 0.0
N196 N 0.68357 0.18457 0.97355 0.0
N197 N 0.62731 0.23812 0.14927 0.0
C198 C 0.64144 0.19645 0.21658 0.0
C199 C 0.67201 0.16727 0.121 0.0
C200 C 0.3755 0.43429 0.58054 0.0
C201 C 0.38253 0.44662 0.41896 0.0
C202 C 0.40492 0.40098 0.6569 0.0
C203 C 0.44282 0.37818 0.57546 0.0
H204 H 0.34618 0.44952 0.64829 0.0
H205 H 0.39705 0.39235 0.78062 0.0
S206 S 0.48053 0.40179 0.15624 0.0
N207 N 0.43332 0.43605 0.18335 0.0
N208 N 0.48819 0.37344 0.32715 0.0
C209 C 0.45149 0.39139 0.41551 0.0
C210 C 0.42159 0.42554 0.3375 0.0
C211 C 0.64797 0.91968 0.91215 0.0
C212 C 0.65897 0.94243 0.76622 0.0
C213 C 0.61308 0.88214 0.9206 0.0
C214 C 0.58747 0.86609 0.78374 0.0
H215 H 0.66814 0.92919 0.0193 0.0
H216 H 0.6073 0.86466 0.03494 0.0
S217 S 0.59729 0.91979 0.37781 0.0
N218 N 0.63766 0.95053 0.48565 0.0
N219 N 0.57179 0.88019 0.5011 0.0
C220 C 0.59573 0.89101 0.63919 0.0
C221 C 0.63155 0.92907 0.63056 0.0
C222 C 0.09968 0.0988 0.14257 0.0
C223 C 0.08136 0.13915 0.06275 0.0
C224 C 0.1319 0.06761 0.06726 0.0
C225 C 0.14709 0.07521 0.90839 0.0
H226 H 0.08937 0.09132 0.26521 0.0
H227 H 0.14502 0.03734 0.13447 0.0
S228 S 0.11221 0.17722 0.64882 0.0
N229 N 0.0829 0.18609 0.81771 0.0
N230 N 0.14213 0.12725 0.67505 0.0
C231 C 0.12888 0.11536 0.82685 0.0
C232 C 0.09642 0.1473 0.90409 0.0
C233 C 0.92099 0.63876 0.12405 0.0
C234 C 0.94263 0.6506 0.27152 0.0
C235 C 0.88402 0.60331 0.11347 0.0
C236 C 0.8675 0.57788 0.24957 0.0
H237 H 0.93091 0.65861 0.01695 0.0
H238 H 0.86721 0.59702 0.99807 0.0
S239 S 0.91836 0.58979 0.65946 0.0
N240 N 0.94924 0.63028 0.55324 0.0
N241 N 0.87994 0.56329 0.53363 0.0
C242 C 0.8914 0.58691 0.39585 0.0
C243 C 0.92884 0.6234 0.40676 0.0
C244 C 0.38408 0.09459 0.88939 0.0
C245 C 0.37235 0.07323 0.74144 0.0
C246 C 0.4188 0.13221 0.90036 0.0
C247 C 0.44362 0.14985 0.76416 0.0
H248 H 0.36456 0.08401 0.99674 0.0
H249 H 0.42482 0.14872 0.01633 0.0
S250 S 0.43222 0.10005 0.35273 0.0
N251 N 0.3925 0.068 0.45883 0.0
N252 N 0.45809 0.1386 0.47929 0.0
C253 C 0.43489 0.12623 0.61725 0.0
C254 C 0.39916 0.08803 0.60596 0.0
C255 C 0.90627 0.90534 0.85712 0.0
C256 C 0.88512 0.9436 0.94095 0.0
C257 C 0.93743 0.87349 0.93284 0.0
C258 C 0.94915 0.87846 0.09589 0.0
H259 H 0.89774 0.89894 0.73235 0.0
H260 H 0.95131 0.84392 0.86342 0.0
S261 S 0.90853 0.97632 0.36514 0.0
N262 N 0.88158 0.98699 0.19336 0.0
N263 N 0.94026 0.92759 0.33553 0.0
C264 C 0.92991 0.91783 0.17972 0.0
C265 C 0.89796 0.95019 0.1025 0.0
C266 C 0.10528 0.38326 0.37928 0.0
C267 C 0.08622 0.36067 0.24137 0.0
C268 C 0.14176 0.41933 0.36971 0.0
C269 C 0.16102 0.43404 0.22133 0.0
H270 H 0.09252 0.37217 0.49607 0.0
H271 H 0.15611 0.43448 0.47998 0.0
S272 S 0.12004 0.39016 0.82296 0.0
N273 N 0.08667 0.35843 0.95075 0.0
N274 N 0.15511 0.42634 0.93214 0.0
C275 C 0.14055 0.41355 0.08175 0.0
C276 C 0.10315 0.37695 0.09175 0.0
C277 C 0.57496 0.63004 0.44532 0.0
C278 C 0.5822 0.6432 0.60623 0.0
C279 C 0.60574 0.59788 0.36796 0.0
C280 C 0.64537 0.57765 0.44765 0.0
H281 H 0.54525 0.64465 0.37825 0.0
H282 H 0.59847 0.58913 0.24384 0.0
S283 S 0.68226 0.60282 0.86701 0.0
N284 N 0.63321 0.63441 0.84147 0.0
N285 N 0.69111 0.57504 0.69546 0.0
C286 C 0.65314 0.5907 0.60841 0.0
C287 C 0.62165 0.62314 0.68759 0.0
loop_
_geom_bond_atom_site_label_1
_geom_bond_atom_site_label_2
_geom_bond_distance
_geom_bond_site_symmetry_2
_ccdc_geom_bond_type
Co0 O1 2.216 . S
Co0 O2 2.091 . S
Co0 O4 2.004 . S
Co0 O10 2.021 . S
Co0 O12 2.137 . S
Co0 O13 2.244 . S
O1 Co0 2.216 . S
O1 C8 1.247 . S
O2 Co0 2.091 . S
O2 C8 1.261 . S
C3 O12 1.247 . S
C3 O13 1.272 . S
O4 Co0 2.004 . S
O4 C9 1.259 . S
Co5 O6 2.061 . S
Co5 O11 2.052 . S
Co5 O13 2.135 . S
O6 Co5 2.061 . S
O6 C9 1.235 . S
C7 O10 1.238 . S
C7 O11 1.241 . S
C8 O1 1.247 . S
C8 O2 1.261 . S
C9 O4 1.259 . S
C9 O6 1.235 . S
O10 Co0 2.021 . S
O10 C7 1.238 . S
O11 Co5 2.052 . S
O11 C7 1.241 . S
O12 Co0 2.137 . S
O12 C3 1.247 . S
O13 Co0 2.244 . S
O13 C3 1.272 . S
O13 Co5 2.135 . S
Co14 O15 2.216 . S
Co14 O16 2.091 . S
Co14 O18 2.004 . S
Co14 O24 2.021 . S
Co14 O26 2.137 . S
Co14 O27 2.244 . S
O15 Co14 2.216 . S
O15 C22 1.247 . S
O16 Co14 2.091 . S
O16 C22 1.261 . S
C17 O26 1.247 . S
C17 O27 1.272 . S
O18 Co14 2.004 . S
O18 C23 1.259 . S
Co19 O20 2.061 . S
Co19 O25 2.052 . S
Co19 O27 2.135 . S
O20 Co19 2.061 . S
O20 C23 1.235 . S
C21 O24 1.238 . S
C21 O25 1.241 . S
C22 O15 1.247 . S
C22 O16 1.261 . S
C23 O18 1.259 . S
C23 O20 1.235 . S
O24 Co14 2.021 . S
O24 C21 1.238 . S
O25 Co19 2.052 . S
O25 C21 1.241 . S
O26 Co14 2.137 . S
O26 C17 1.247 . S
O27 Co14 2.244 . S
O27 C17 1.272 . S
O27 Co19 2.135 . S
Co28 O29 2.216 . S
Co28 O30 2.091 1_556 S
Co28 O32 2.004 1_566 S
Co28 O38 2.021 1_565 S
Co28 O40 2.137 . S
Co28 O41 2.244 . S
O29 Co28 2.216 . S
O29 C36 1.247 1_556 S
O30 Co28 2.091 1_554 S
O30 C36 1.261 . S
C31 O40 1.247 . S
C31 O41 1.272 . S
O32 Co28 2.004 1_544 S
O32 C37 1.259 1_554 S
Co33 O34 2.061 . S
Co33 O39 2.052 . S
Co33 O41 2.135 1_545 S
O34 Co33 2.061 . S
O34 C37 1.235 . S
C35 O38 1.238 . S
C35 O39 1.241 . S
C36 O29 1.247 1_554 S
C36 O30 1.261 . S
C37 O32 1.259 1_556 S
C37 O34 1.235 . S
O38 Co28 2.021 1_545 S
O38 C35 1.238 . S
O39 Co33 2.052 . S
O39 C35 1.241 . S
O40 Co28 2.137 . S
O40 C31 1.247 . S
O41 Co28 2.244 . S
O41 C31 1.272 . S
O41 Co33 2.135 1_565 S
Co42 O43 2.216 . S
Co42 O44 2.091 1_554 S
Co42 O46 2.004 1_454 S
Co42 O52 2.021 1_455 S
Co42 O54 2.137 . S
Co42 O55 2.244 . S
O43 Co42 2.216 . S
O43 C50 1.247 1_554 S
O44 Co42 2.091 1_556 S
O44 C50 1.261 . S
C45 O54 1.247 . S
C45 O55 1.272 . S
O46 Co42 2.004 1_656 S
O46 C51 1.259 1_556 S
Co47 O48 2.061 . S
Co47 O53 2.052 . S
Co47 O55 2.135 1_655 S
O48 Co47 2.061 . S
O48 C51 1.235 . S
C49 O52 1.238 . S
C49 O53 1.241 . S
C50 O43 1.247 1_556 S
C50 O44 1.261 . S
C51 O46 1.259 1_554 S
C51 O48 1.235 . S
O52 Co42 2.021 1_655 S
O52 C49 1.238 . S
O53 Co47 2.052 . S
O53 C49 1.241 . S
O54 Co42 2.137 . S
O54 C45 1.247 . S
O55 Co42 2.244 . S
O55 C45 1.272 . S
O55 Co47 2.135 1_455 S
Co56 O57 2.216 . S
Co56 O58 2.091 1_556 S
Co56 O60 2.004 1_546 S
Co56 O66 2.021 1_545 S
Co56 O68 2.137 . S
Co56 O69 2.244 . S
O57 Co56 2.216 . S
O57 C64 1.247 1_556 S
O58 Co56 2.091 1_554 S
O58 C64 1.261 . S
C59 O68 1.247 . S
C59 O69 1.272 . S
O60 Co56 2.004 1_564 S
O60 C65 1.259 1_554 S
Co61 O62 2.061 . S
Co61 O67 2.052 . S
Co61 O69 2.135 1_565 S
O62 Co61 2.061 . S
O62 C65 1.235 . S
C63 O66 1.238 . S
C63 O67 1.241 . S
C64 O57 1.247 1_554 S
C64 O58 1.261 . S
C65 O60 1.259 1_556 S
C65 O62 1.235 . S
O66 Co56 2.021 1_565 S
O66 C63 1.238 . S
O67 Co61 2.052 . S
O67 C63 1.241 . S
O68 Co56 2.137 . S
O68 C59 1.247 . S
O69 Co56 2.244 . S
O69 C59 1.272 . S
O69 Co61 2.135 1_545 S
Co70 O71 2.216 . S
Co70 O72 2.091 1_554 S
Co70 O74 2.004 1_654 S
Co70 O80 2.021 1_655 S
Co70 O82 2.137 . S
Co70 O83 2.244 . S
O71 Co70 2.216 . S
O71 C78 1.247 1_554 S
O72 Co70 2.091 1_556 S
O72 C78 1.261 . S
C73 O82 1.247 . S
C73 O83 1.272 . S
O74 Co70 2.004 1_456 S
O74 C79 1.259 1_556 S
Co75 O76 2.061 . S
Co75 O81 2.052 . S
Co75 O83 2.135 1_455 S
O76 Co75 2.061 . S
O76 C79 1.235 . S
C77 O80 1.238 . S
C77 O81 1.241 . S
C78 O71 1.247 1_556 S
C78 O72 1.261 . S
C79 O74 1.259 1_554 S
C79 O76 1.235 . S
O80 Co70 2.021 1_455 S
O80 C77 1.238 . S
O81 Co75 2.052 . S
O81 C77 1.241 . S
O82 Co70 2.137 . S
O82 C73 1.247 . S
O83 Co70 2.244 . S
O83 C73 1.272 . S
O83 Co75 2.135 1_655 S
Co84 O85 2.216 . S
Co84 O86 2.091 . S
Co84 O88 2.004 . S
Co84 O94 2.021 . S
Co84 O96 2.137 . S
Co84 O97 2.244 . S
O85 Co84 2.216 . S
O85 C92 1.247 . S
O86 Co84 2.091 . S
O86 C92 1.261 . S
C87 O96 1.247 . S
C87 O97 1.272 . S
O88 Co84 2.004 . S
O88 C93 1.259 . S
Co89 O90 2.061 . S
Co89 O95 2.052 . S
Co89 O97 2.135 . S
O90 Co89 2.061 . S
O90 C93 1.235 . S
C91 O94 1.238 . S
C91 O95 1.241 . S
C92 O85 1.247 . S
C92 O86 1.261 . S
C93 O88 1.259 . S
C93 O90 1.235 . S
O94 Co84 2.021 . S
O94 C91 1.238 . S
O95 Co89 2.052 . S
O95 C91 1.241 . S
O96 Co84 2.137 . S
O96 C87 1.247 . S
O97 Co84 2.244 . S
O97 C87 1.272 . S
O97 Co89 2.135 . S
Co98 O99 2.216 . S
Co98 O100 2.091 . S
Co98 O102 2.004 . S
Co98 O108 2.021 . S
Co98 O110 2.137 . S
Co98 O111 2.244 . S
O99 Co98 2.216 . S
O99 C106 1.247 . S
O100 Co98 2.091 . S
O100 C106 1.261 . S
C101 O110 1.247 . S
C101 O111 1.272 . S
O102 Co98 2.004 . S
O102 C107 1.259 . S
Co103 O104 2.061 . S
Co103 O109 2.052 . S
Co103 O111 2.135 . S
O104 Co103 2.061 . S
O104 C107 1.235 . S
C105 O108 1.238 . S
C105 O109 1.241 . S
C106 O99 1.247 . S
C106 O100 1.261 . S
C107 O102 1.259 . S
C107 O104 1.235 . S
O108 Co98 2.021 . S
O108 C105 1.238 . S
O109 Co103 2.052 . S
O109 C105 1.241 . S
O110 Co98 2.137 . S
O110 C101 1.247 . S
O111 Co98 2.244 . S
O111 C101 1.272 . S
O111 Co103 2.135 . S
C112 C113 1.369 . S
C112 C114 1.419 1_556 S
C112 H116 0.930 . S
C113 C112 1.369 . S
C113 C122 1.429 . S
C114 C112 1.419 1_554 S
C114 C115 1.363 . S
C114 H117 0.929 . S
C115 C114 1.363 . S
C115 C121 1.428 . S
H116 C112 0.930 . S
H117 C114 0.929 . S
S118 N119 1.613 . S
S118 N120 1.610 1_556 S
N119 S118 1.613 . S
N119 C122 1.350 . S
N120 S118 1.610 1_554 S
N120 C121 1.351 . S
C121 C115 1.428 . S
C121 N120 1.351 . S
C121 C122 1.434 1_554 S
C122 C113 1.429 . S
C122 N119 1.350 . S
C122 C121 1.434 1_556 S
C123 C124 1.369 . S
C123 C125 1.419 . S
C123 H127 0.930 . S
C124 C123 1.369 . S
C124 C133 1.429 . S
C125 C123 1.419 . S
C125 C126 1.363 . S
C125 H128 0.929 . S
C126 C125 1.363 . S
C126 C132 1.428 . S
H127 C123 0.930 . S
H128 C125 0.929 . S
S129 N130 1.613 . S
S129 N131 1.610 1_554 S
N130 S129 1.613 . S
N130 C133 1.350 . S
N131 S129 1.610 1_556 S
N131 C132 1.351 1_556 S
C132 C126 1.428 . S
C132 N131 1.351 1_554 S
C132 C133 1.434 . S
C133 C124 1.429 . S
C133 N130 1.350 . S
C133 C132 1.434 . S
C134 C135 1.369 . S
C134 C136 1.419 . S
C134 H138 0.930 . S
C135 C134 1.369 . S
C135 C144 1.429 . S
C136 C134 1.419 . S
C136 C137 1.363 . S
C136 H139 0.929 . S
C137 C136 1.363 . S
C137 C143 1.428 . S
H138 C134 0.930 . S
H139 C136 0.929 . S
S140 N141 1.613 . S
S140 N142 1.610 . S
N141 S140 1.613 . S
N141 C144 1.350 . S
N142 S140 1.610 . S
N142 C143 1.351 . S
C143 C137 1.428 . S
C143 N142 1.351 . S
C143 C144 1.434 . S
C144 C135 1.429 . S
C144 N141 1.350 . S
C144 C143 1.434 . S
C145 C146 1.369 . S
C145 C147 1.419 . S
C145 H149 0.930 . S
C146 C145 1.369 . S
C146 C155 1.429 . S
C147 C145 1.419 . S
C147 C148 1.363 . S
C147 H150 0.929 . S
C148 C147 1.363 . S
C148 C154 1.428 . S
H149 C145 0.930 . S
H150 C147 0.929 . S
S151 N152 1.613 . S
S151 N153 1.610 . S
N152 S151 1.613 . S
N152 C155 1.350 . S
N153 S151 1.610 . S
N153 C154 1.351 . S
C154 C148 1.428 . S
C154 N153 1.351 . S
C154 C155 1.434 . S
C155 C146 1.429 . S
C155 N152 1.350 . S
C155 C154 1.434 . S
C156 C157 1.369 . S
C156 C158 1.419 . S
C156 H160 0.930 . S
C157 C156 1.369 . S
C157 C166 1.429 . S
C158 C156 1.419 . S
C158 C159 1.363 . S
C158 H161 0.929 . S
C159 C158 1.363 . S
C159 C165 1.428 . S
H160 C156 0.930 . S
H161 C158 0.929 . S
S162 N163 1.613 . S
S162 N164 1.610 . S
N163 S162 1.613 . S
N163 C166 1.350 . S
N164 S162 1.610 . S
N164 C165 1.351 . S
C165 C159 1.428 . S
C165 N164 1.351 . S
C165 C166 1.434 . S
C166 C157 1.429 . S
C166 N163 1.350 . S
C166 C165 1.434 . S
C167 C168 1.369 . S
C167 C169 1.419 . S
C167 H171 0.930 . S
C168 C167 1.369 . S
C168 C177 1.429 . S
C169 C167 1.419 . S
C169 C170 1.363 . S
C169 H172 0.929 . S
C170 C169 1.363 . S
C170 C176 1.428 . S
H171 C167 0.930 . S
H172 C169 0.929 . S
S173 N174 1.613 . S
S173 N175 1.610 . S
N174 S173 1.613 . S
N174 C177 1.350 . S
N175 S173 1.610 . S
N175 C176 1.351 . S
C176 C170 1.428 . S
C176 N175 1.351 . S
C176 C177 1.434 . S
C177 C168 1.429 . S
C177 N174 1.350 . S
C177 C176 1.434 . S
C178 C179 1.369 . S
C178 C180 1.419 . S
C178 H182 0.930 . S
C179 C178 1.369 . S
C179 C188 1.429 1_554 S
C180 C178 1.419 . S
C180 C181 1.363 1_554 S
C180 H183 0.929 . S
C181 C180 1.363 1_556 S
C181 C187 1.428 . S
H182 C178 0.930 . S
H183 C180 0.929 . S
S184 N185 1.613 . S
S184 N186 1.610 . S
N185 S184 1.613 . S
N185 C188 1.350 . S
N186 S184 1.610 . S
N186 C187 1.351 . S
C187 C181 1.428 . S
C187 N186 1.351 . S
C187 C188 1.434 . S
C188 C179 1.429 1_556 S
C188 N185 1.350 . S
C188 C187 1.434 . S
C189 C190 1.369 . S
C189 C191 1.419 . S
C189 H193 0.930 . S
C190 C189 1.369 . S
C190 C199 1.429 . S
C191 C189 1.419 . S
C191 C192 1.363 . S
C191 H194 0.929 . S
C192 C191 1.363 . S
C192 C198 1.428 . S
H193 C189 0.930 . S
H194 C191 0.929 . S
S195 N196 1.613 . S
S195 N197 1.610 1_556 S
N196 S195 1.613 . S
N196 C199 1.350 1_556 S
N197 S195 1.610 1_554 S
N197 C198 1.351 . S
C198 C192 1.428 . S
C198 N197 1.351 . S
C198 C199 1.434 . S
C199 C190 1.429 . S
C199 N196 1.350 1_554 S
C199 C198 1.434 . S
C200 C201 1.369 . S
C200 C202 1.419 . S
C200 H204 0.930 . S
C201 C200 1.369 . S
C201 C210 1.429 . S
C202 C200 1.419 . S
C202 C203 1.363 . S
C202 H205 0.929 . S
C203 C202 1.363 . S
C203 C209 1.428 . S
H204 C200 0.930 . S
H205 C202 0.929 . S
S206 N207 1.613 . S
S206 N208 1.610 . S
N207 S206 1.613 . S
N207 C210 1.350 . S
N208 S206 1.610 . S
N208 C209 1.351 . S
C209 C203 1.428 . S
C209 N208 1.351 . S
C209 C210 1.434 . S
C210 C201 1.429 . S
C210 N207 1.350 . S
C210 C209 1.434 . S
C211 C212 1.369 . S
C211 C213 1.419 . S
C211 H215 0.930 . S
C212 C211 1.369 . S
C212 C221 1.429 . S
C213 C211 1.419 . S
C213 C214 1.363 . S
C213 H216 0.929 . S
C214 C213 1.363 . S
C214 C220 1.428 . S
H215 C211 0.930 . S
H216 C213 0.929 . S
S217 N218 1.613 . S
S217 N219 1.610 . S
N218 S217 1.613 . S
N218 C221 1.350 . S
N219 S217 1.610 . S
N219 C220 1.351 . S
C220 C214 1.428 . S
C220 N219 1.351 . S
C220 C221 1.434 . S
C221 C212 1.429 . S
C221 N218 1.350 . S
C221 C220 1.434 . S
C222 C223 1.369 . S
C222 C224 1.419 . S
C222 H226 0.930 . S
C223 C222 1.369 . S
C223 C232 1.429 1_554 S
C224 C222 1.419 . S
C224 C225 1.363 1_554 S
C224 H227 0.929 . S
C225 C224 1.363 1_556 S
C225 C231 1.428 . S
H226 C222 0.930 . S
H227 C224 0.929 . S
S228 N229 1.613 . S
S228 N230 1.610 . S
N229 S228 1.613 . S
N229 C232 1.350 . S
N230 S228 1.610 . S
N230 C231 1.351 . S
C231 C225 1.428 . S
C231 N230 1.351 . S
C231 C232 1.434 . S
C232 C223 1.429 1_556 S
C232 N229 1.350 . S
C232 C231 1.434 . S
C233 C234 1.369 . S
C233 C235 1.419 . S
C233 H237 0.930 . S
C234 C233 1.369 . S
C234 C243 1.429 . S
C235 C233 1.419 . S
C235 C236 1.363 . S
C235 H238 0.929 . S
C236 C235 1.363 . S
C236 C242 1.428 . S
H237 C233 0.930 . S
H238 C235 0.929 . S
S239 N240 1.613 . S
S239 N241 1.610 . S
N240 S239 1.613 . S
N240 C243 1.350 . S
N241 S239 1.610 . S
N241 C242 1.351 . S
C242 C236 1.428 . S
C242 N241 1.351 . S
C242 C243 1.434 . S
C243 C234 1.429 . S
C243 N240 1.350 . S
C243 C242 1.434 . S
C244 C245 1.369 . S
C244 C246 1.419 . S
C244 H248 0.930 . S
C245 C244 1.369 . S
C245 C254 1.429 . S
C246 C244 1.419 . S
C246 C247 1.363 . S
C246 H249 0.929 . S
C247 C246 1.363 . S
C247 C253 1.428 . S
H248 C244 0.930 . S
H249 C246 0.929 . S
S250 N251 1.613 . S
S250 N252 1.610 . S
N251 S250 1.613 . S
N251 C254 1.350 . S
N252 S250 1.610 . S
N252 C253 1.351 . S
C253 C247 1.428 . S
C253 N252 1.351 . S
C253 C254 1.434 . S
C254 C245 1.429 . S
C254 N251 1.350 . S
C254 C253 1.434 . S
C255 C256 1.369 . S
C255 C257 1.419 . S
C255 H259 0.930 . S
C256 C255 1.369 . S
C256 C265 1.429 1_556 S
C257 C255 1.419 . S
C257 C258 1.363 1_556 S
C257 H260 0.929 . S
C258 C257 1.363 1_554 S
C258 C264 1.428 . S
H259 C255 0.930 . S
H260 C257 0.929 . S
S261 N262 1.613 . S
S261 N263 1.610 . S
N262 S261 1.613 . S
N262 C265 1.350 . S
N263 S261 1.610 . S
N263 C264 1.351 . S
C264 C258 1.428 . S
C264 N263 1.351 . S
C264 C265 1.434 . S
C265 C256 1.429 1_554 S
C265 N262 1.350 . S
C265 C264 1.434 . S
C266 C267 1.369 . S
C266 C268 1.419 . S
C266 H270 0.930 . S
C267 C266 1.369 . S
C267 C276 1.429 . S
C268 C266 1.419 . S
C268 C269 1.363 . S
C268 H271 0.929 . S
C269 C268 1.363 . S
C269 C275 1.428 . S
H270 C266 0.930 . S
H271 C268 0.929 . S
S272 N273 1.613 . S
S272 N274 1.610 . S
N273 S272 1.613 . S
N273 C276 1.350 . S
N274 S272 1.610 . S
N274 C275 1.351 . S
C275 C269 1.428 . S
C275 N274 1.351 . S
C275 C276 1.434 . S
C276 C267 1.429 . S
C276 N273 1.350 . S
C276 C275 1.434 . S
C277 C278 1.369 . S
C277 C279 1.419 . S
C277 H281 0.930 . S
C278 C277 1.369 . S
C278 C287 1.429 . S
C279 C277 1.419 . S
C279 C280 1.363 . S
C279 H282 0.929 . S
C280 C279 1.363 . S
C280 C286 1.428 . S
H281 C277 0.930 . S
H282 C279 0.929 . S
S283 N284 1.613 . S
S283 N285 1.610 . S
N284 S283 1.613 . S
N284 C287 1.350 . S
N285 S283 1.610 . S
N285 C286 1.351 . S
C286 C280 1.428 . S
C286 N285 1.351 . S
C286 C287 1.434 . S
C287 C278 1.429 . S
C287 N284 1.350 . S
C287 C286 1.434 . S
C113 C17 1.453 . S
C115 C3 1.453 . S
C124 C22 1.455 . S
C126 C36 1.455 . S
C135 C45 1.454 . S
C137 C31 1.452 . S
C146 C50 1.455 . S
C148 C8 1.455 . S
C157 C59 1.452 . S
C159 C73 1.453 . S
C168 C78 1.455 . S
C170 C92 1.455 . S
C179 C87 1.453 . S
C181 C101 1.452 . S
C190 C64 1.455 . S
C192 C106 1.455 . S
C201 C9 1.443 . S
C203 C107 1.447 . S
C212 C63 1.460 . S
C214 C21 1.459 . S
C223 C79 1.447 . S
C225 C37 1.443 . S
C234 C49 1.458 . S
C236 C91 1.460 . S
C245 C35 1.459 . S
C247 C105 1.460 . S
C256 C65 1.448 . S
C258 C51 1.444 . S
C267 C77 1.455 . S
C269 C7 1.455 . S
C278 C23 1.442 . S
C280 C93 1.448 . S
