# Generated by pormake.
# Topology sxa, (6)-cn, num edge types: 1
# Building blocks:
#     Node 0, Type 0, BuildingBlock: PAMTUU_clean_sbu_0, # of connection points: 6
#     Node 1, Type 0, BuildingBlock: PAMTUU_clean_sbu_0, # of connection points: 6
#     Node 2, Type 0, BuildingBlock: PAMTUU_clean_sbu_0, # of connection points: 6
#     Node 3, Type 0, BuildingBlock: PAMTUU_clean_sbu_0, # of connection points: 6
#     Edge 4, Type (0, 0), BuildingBlock: XIVTED_clean_linker_0, # of connection points: 2
#     Edge 5, Type (0, 0), BuildingBlock: XIVTED_clean_linker_0, # of connection points: 2
#     Edge 6, Type (0, 0), BuildingBlock: XIVTED_clean_linker_0, # of connection points: 2
#     Edge 7, Type (0, 0), BuildingBlock: XIVTED_clean_linker_0, # of connection points: 2
#     Edge 8, Type (0, 0), BuildingBlock: XIVTED_clean_linker_0, # of connection points: 2
#     Edge 9, Type (0, 0), BuildingBlock: XIVTED_clean_linker_0, # of connection points: 2
#     Edge 10, Type (0, 0), BuildingBlock: XIVTED_clean_linker_0, # of connection points: 2
#     Edge 11, Type (0, 0), BuildingBlock: XIVTED_clean_linker_0, # of connection points: 2
#     Edge 12, Type (0, 0), BuildingBlock: XIVTED_clean_linker_0, # of connection points: 2
#     Edge 13, Type (0, 0), BuildingBlock: XIVTED_clean_linker_0, # of connection points: 2
#     Edge 14, Type (0, 0), BuildingBlock: XIVTED_clean_linker_0, # of connection points: 2
#     Edge 15, Type (0, 0), BuildingBlock: XIVTED_clean_linker_0, # of connection points: 2
# Relax obj value: 0.224
# Max RMSD: 0.279
# Mean RMSD: 0.279
data_MOF--net-sxa--node1-PAMTUU_clean_sbu_0--edge1-XIVTED_clean_linker_0
_symmetry_space_group_name_H-M    P1
_symmetry_Int_Tables_number       1
_symmetry_cell_setting            triclinic
loop_
_symmetry_equiv_pos_as_xyz
'x, y, z'
_cell_length_a     36.04683
_cell_length_b     26.938331
_cell_length_c     16.527398
_cell_angle_alpha  94.071851
_cell_angle_beta   54.141972
_cell_angle_gamma 101.43169
loop_
_atom_site_label
_atom_site_type_symbol
_atom_site_fract_x
_atom_site_fract_y
_atom_site_fract_z
_atom_type_partial_charge
Tb0 Tb 0.09902 0.8108 0.07487 0.0
Tb1 Tb 0.09764 0.82024 0.2735 0.0
C2 C 0.07421 0.71753 0.19564 0.0
C3 C 0.06479 0.78169 0.90638 0.0
C4 C 0.98134 0.76791 0.92406 0.0
C5 C 0.9851 0.73767 0.9838 0.0
C6 C 0.0265 0.7448 0.97558 0.0
C7 C 0.06294 0.80745 0.83856 0.0
C8 C 0.02137 0.80055 0.84717 0.0
C9 C 0.10166 0.80115 0.91945 0.0
O10 O 0.02737 0.82164 0.19647 0.0
O11 O 0.02432 0.80821 0.33765 0.0
O12 O 0.08394 0.89107 0.2435 0.0
O13 O 0.1318 0.88646 0.07576 0.0
O14 O 0.08544 0.78468 0.39903 0.0
O15 O 0.11707 0.86379 0.3582 0.0
O16 O 0.16828 0.8445 0.14702 0.0
O17 O 0.16382 0.79242 1.03757 0.0
O18 O 0.05604 0.74362 0.16902 0.0
O19 O 0.10238 0.74215 0.21813 0.0
C20 C 1.00406 0.81484 0.29506 0.0
O21 O 0.09629 0.84289 0.96726 0.0
O22 O 0.1128 0.76813 0.95209 0.0
C23 C 0.10882 0.91311 0.15275 0.0
C24 C 0.14153 0.81819 0.43157 0.0
C25 C 0.20831 0.80947 0.46741 0.0
C26 C 0.22237 0.82214 0.37055 0.0
C27 C 0.18939 0.82635 0.35284 0.0
C28 C 0.12729 0.80473 0.52763 0.0
C29 C 0.16013 0.80027 0.54534 0.0
C30 C 0.10613 0.82504 0.41615 0.0
C31 C 0.18822 0.81921 0.0667 0.0
H32 H 0.95496 0.71154 0.04232 0.0
H33 H 0.02721 0.72453 1.02887 0.0
H34 H 0.09221 0.83619 0.78507 0.0
H35 H 1.01949 0.82441 0.8001 0.0
H36 H 0.25897 0.82998 0.3085 0.0
H37 H 0.20137 0.83668 0.27787 0.0
H38 H 0.09061 0.79798 0.58952 0.0
H39 H 0.14759 0.78929 0.62036 0.0
Tb40 Tb 0.58191 0.28538 0.09763 0.0
Tb41 Tb 0.58956 0.30837 0.2832 0.0
C42 C 0.56464 0.20133 0.22528 0.0
C43 C 0.52861 0.23316 0.97344 0.0
C44 C 0.4444 0.19038 0.99833 0.0
C45 C 0.48716 0.19703 0.90236 0.0
C46 C 0.529 0.21853 0.89002 0.0
C47 C 0.48647 0.22482 0.06924 0.0
C48 C 0.44481 0.20405 0.08159 0.0
C49 C 0.57131 0.25839 0.96262 0.0
O50 O 0.51438 0.30505 0.21927 0.0
O51 O 0.51486 0.29705 0.35718 0.0
O52 O 0.57819 0.37761 0.24152 0.0
O53 O 0.61618 0.36318 0.07543 0.0
O54 O 0.57932 0.27944 0.41172 0.0
O55 O 0.61503 0.35624 0.35337 0.0
O56 O 0.6586 0.33053 0.14955 0.0
O57 O 0.65093 0.27333 0.04949 0.0
O58 O 0.54092 0.22544 0.21181 0.0
O59 O 0.59624 0.22939 0.23443 0.0
C60 C 0.49293 0.30191 0.3174 0.0
O61 O 0.57069 0.3044 0.99376 0.0
O62 O 0.58664 0.2313 0.99566 0.0
C63 C 0.59918 0.39413 0.14788 0.0
C64 C 0.63993 0.314 0.43029 0.0
C65 C 0.70852 0.30635 0.46112 0.0
C66 C 0.72115 0.31588 0.36426 0.0
C67 C 0.68726 0.31961 0.34902 0.0
C68 C 0.62711 0.30342 0.52633 0.0
C69 C 0.66083 0.29954 0.54162 0.0
C70 C 0.60357 0.32053 0.41767 0.0
C71 C 0.67705 0.30297 0.0722 0.0
H72 H 0.48827 0.18631 0.83669 0.0
H73 H 0.56141 0.22441 0.81557 0.0
H74 H 0.48561 0.23563 0.13459 0.0
H75 H 0.41277 0.2007 0.15639 0.0
H76 H 0.75737 0.32169 0.30026 0.0
H77 H 0.69815 0.3276 0.27393 0.0
H78 H 0.59085 0.29858 0.5901 0.0
H79 H 0.64932 0.29099 0.61693 0.0
Tb80 Tb 0.05509 0.28425 0.79701 0.0
Tb81 Tb 0.04852 0.28254 1.00252 0.0
C82 C 0.0483 0.18632 0.89666 0.0
C83 C 1.01411 0.28784 0.6343 0.0
C84 C 0.94657 0.29328 0.599 0.0
C85 C 0.93333 0.28561 0.69697 0.0
C86 C 0.96669 0.283 0.71438 0.0
C87 C 0.02757 0.296 0.53691 0.0
C88 C 0.99434 0.29883 0.51943 0.0
C89 C 0.04963 0.28252 0.65026 0.0
O90 O 0.98369 0.2594 0.92227 0.0
O91 O 0.98558 0.30666 0.04026 0.0
O92 O 0.08012 0.35887 0.94112 0.0
O93 O 0.04753 0.36101 0.85737 0.0
O94 O 1.01361 0.24571 0.144 0.0
O95 O 0.0708 0.30859 0.09323 0.0
O96 O 0.11907 0.2697 0.8806 0.0
O97 O 0.12711 0.3037 0.74541 0.0
O98 O 0.07309 0.2127 0.81049 0.0
O99 O 0.02201 0.20865 0.97789 0.0
C100 C 0.96272 0.28332 1.00455 0.0
O101 O 0.06726 0.32281 0.67425 0.0
O102 O 0.04015 0.24252 0.70379 0.0
C103 C 0.06795 0.38433 0.89892 0.0
C104 C 0.06975 0.23872 0.17039 0.0
C105 C 0.13656 0.19205 0.15543 0.0
C106 C 0.12013 0.23188 0.21967 0.0
C107 C 0.08704 0.25526 0.22668 0.0
C108 C 0.08353 0.1965 0.11228 0.0
C109 C 0.11654 0.17331 0.1051 0.0
C110 C 0.04437 0.27012 0.15762 0.0
C111 C 0.1453 0.28839 0.78662 0.0
H112 H 0.89702 0.28055 0.76037 0.0
H113 H 0.95535 0.27652 0.79031 0.0
H114 H 0.06391 0.29988 0.47391 0.0
H115 H 1.00628 0.30579 0.44328 0.0
H116 H 0.1353 0.24739 0.25867 0.0
H117 H 0.07727 0.28817 0.27084 0.0
H118 H 0.07097 0.18338 0.06746 0.0
H119 H 0.12837 0.1425 0.05582 0.0
Tb120 Tb 0.56067 0.7806 0.78698 0.0
Tb121 Tb 0.56026 0.79302 0.98411 0.0
C122 C 0.55171 0.68921 0.90807 0.0
C123 C 0.51552 0.78128 0.63103 0.0
C124 C 0.44815 0.78941 0.59664 0.0
C125 C 0.43442 0.77652 0.69312 0.0
C126 C 0.4677 0.77258 0.71011 0.0
C127 C 0.52941 0.79503 0.5354 0.0
C128 C 0.49628 0.7992 0.51842 0.0
C129 C 0.55127 0.7747 0.64558 0.0
O130 O 0.4906 0.75445 0.91424 0.0
O131 O 0.49434 0.80835 1.0222 0.0
O132 O 0.60228 0.85957 0.88715 0.0
O133 O 0.55384 0.85842 0.84326 0.0
O134 O 0.56357 0.76351 0.09298 0.0
O135 O 0.54641 0.83764 0.10474 0.0
O136 O 0.632 0.78256 0.86272 0.0
O137 O 0.63419 0.79356 0.72179 0.0
O138 O 0.57522 0.71036 0.81689 0.0
O139 O 0.52931 0.71613 0.98513 0.0
C140 C 0.47013 0.77998 0.99406 0.0
O141 O 0.57235 0.81528 0.66126 0.0
O142 O 0.54055 0.73632 0.70405 0.0
C143 C 0.58235 0.88453 0.86357 0.0
C144 C 0.594 0.82652 0.15332 0.0
C145 C 0.67706 0.84298 0.13772 0.0
C146 C 0.67289 0.87269 0.07796 0.0
C147 C 0.63169 0.86421 0.08509 0.0
C148 C 0.59608 0.8014 0.22146 0.0
C149 C 0.63745 0.80961 0.21387 0.0
C150 C 0.55765 0.80574 0.1393 0.0
C151 C 0.6549 0.78832 0.76408 0.0
H152 H 0.39787 0.76827 0.75537 0.0
H153 H 0.45598 0.76204 0.78479 0.0
H154 H 0.56606 0.80222 0.47327 0.0
H155 H 0.50855 0.81041 0.44371 0.0
H156 H 0.70268 0.89938 1.02004 0.0
H157 H 0.63078 0.88406 1.03166 0.0
H158 H 0.56727 0.77207 0.27424 0.0
H159 H 0.63963 0.78613 0.26095 0.0
H160 H 1.00016 0.44198 0.97985 0.0
H161 H 0.14497 0.66283 0.10148 0.0
H162 H 0.14325 0.44891 0.86785 0.0
H163 H 1.00051 0.6524 0.2203 0.0
H164 H 0.1454 0.58416 1.01584 0.0
H165 H 1.00114 0.52241 0.05951 0.0
C166 C 0.03229 0.46148 0.96867 0.0
C167 C 0.07185 0.43918 0.91608 0.0
C168 C 0.11339 0.5987 0.06192 0.0
C169 C 0.07279 0.5298 1.01072 0.0
C170 C 0.11297 0.64306 0.11237 0.0
C171 C 0.07251 0.66382 0.1691 0.0
C172 C 0.07311 0.57517 0.06805 0.0
C173 C 0.03236 0.63742 0.17796 0.0
C174 C 0.03264 0.50684 1.01589 0.0
C175 C 0.11215 0.4652 0.90692 0.0
N176 N 0.03377 0.59489 0.12754 0.0
N177 N 0.11148 0.50872 0.95442 0.0
H178 H 0.66414 0.45259 0.97724 0.0
H179 H 0.48672 0.62379 0.06696 0.0
H180 H 0.52733 0.44675 0.25283 0.0
H181 H 0.62903 0.64419 0.8047 0.0
H182 H 0.49995 0.5552 0.13027 0.0
H183 H 0.65253 0.5221 0.91191 0.0
C184 C 0.63204 0.4669 1.02503 0.0
C185 C 0.59677 0.44412 0.12106 0.0
C186 C 0.52823 0.57411 0.05833 0.0
C187 C 0.58256 0.52271 0.0451 0.0
C188 C 0.52054 0.61288 1.02137 0.0
C189 C 0.55675 0.63954 0.92992 0.0
C190 C 0.57263 0.56167 1.00386 0.0
C191 C 0.59994 0.62412 0.87464 0.0
C192 C 0.62526 0.50624 0.98717 0.0
C193 C 0.55571 0.46373 0.17917 0.0
N194 N 0.60681 0.58644 0.91289 0.0
N195 N 0.54953 0.5015 0.13984 0.0
H196 H 0.50739 0.93302 0.96791 0.0
H197 H 0.64144 0.15545 0.11229 0.0
H198 H 0.65375 0.9538 0.84055 0.0
H199 H 0.49426 0.13128 0.24572 0.0
H200 H 0.64693 0.08107 1.01325 0.0
H201 H 0.50273 1.00874 0.06333 0.0
C202 C 0.53885 0.95453 0.95726 0.0
C203 C 0.58109 0.93738 0.89544 0.0
C204 C 0.61328 0.09166 0.06524 0.0
C205 C 0.57581 1.02274 1.00741 0.0
C206 C 0.6101 0.13365 0.12304 0.0
C207 C 0.56734 0.14947 0.18783 0.0
C208 C 0.57343 0.06547 0.0722 0.0
C209 C 0.52793 0.12027 0.197 0.0
C210 C 0.53608 0.99721 1.01321 0.0
C211 C 0.62054 0.96599 0.88682 0.0
N212 N 0.53197 0.08016 0.13941 0.0
N213 N 0.61688 1.00681 0.94268 0.0
H214 H 0.17465 0.98603 1.00924 0.0
H215 H 0.98505 0.10789 1.02634 0.0
H216 H 0.02677 0.94621 0.23785 0.0
H217 H 0.13307 0.15881 0.81133 0.0
H218 H 1.00017 0.04451 0.09659 0.0
H219 H 0.16096 0.04979 0.93599 0.0
C220 C 0.13935 0.99194 0.0459 0.0
C221 C 0.10183 0.9613 0.13067 0.0
C222 C 0.02947 0.06877 1.03288 0.0
C223 C 0.08562 1.03249 0.04407 0.0
C224 C 0.02084 0.10438 0.99148 0.0
C225 C 0.05784 0.1382 0.91186 0.0
C226 C 0.07558 0.06686 0.99495 0.0
C227 C 0.10352 0.13277 0.87112 0.0
C228 C 0.13151 1.02776 1.00303 0.0
C229 C 0.05676 0.96972 0.17385 0.0
N230 N 0.11113 0.09813 0.9138 0.0
N231 N 0.04987 1.00407 0.12935 0.0
H232 H 0.45088 0.76259 0.42899 0.0
H233 H 0.20537 0.83621 0.63542 0.0
H234 H 0.36385 0.82178 0.71909 0.0
H235 H 0.2922 0.77626 0.34602 0.0
H236 H 0.26248 0.83059 0.66759 0.0
H237 H 0.39356 0.76786 0.39733 0.0
C238 C 0.41996 0.77706 0.48604 0.0
C239 C 0.41273 0.79198 0.57696 0.0
C240 C 0.26908 0.81866 0.59701 0.0
C241 C 0.34596 0.79736 0.54113 0.0
C242 C 0.23619 0.8215 0.57864 0.0
C243 C 0.24347 0.80652 0.48769 0.0
C244 C 0.30997 0.80077 0.5241 0.0
C245 C 0.28495 0.78887 0.41674 0.0
C246 C 0.38695 0.7797 0.46796 0.0
C247 C 0.3711 0.80928 0.64831 0.0
N248 N 0.31641 0.78647 0.43648 0.0
N249 N 0.33952 0.81154 0.62883 0.0
H250 H 0.20165 0.26449 0.83534 0.0
H251 H 0.43324 0.31335 0.27025 0.0
H252 H 0.20641 0.31544 0.58691 0.0
H253 H 0.43554 0.28811 0.52225 0.0
H254 H 0.34901 0.30955 0.38539 0.0
H255 H 0.28639 0.26803 0.7221 0.0
C256 C 0.22033 0.27642 0.75738 0.0
C257 C 0.19659 0.28983 0.72117 0.0
C258 C 0.36797 0.30499 0.41557 0.0
C259 C 0.29351 0.29368 0.591 0.0
C260 C 0.41618 0.30721 0.34967 0.0
C261 C 0.44184 0.30128 0.38619 0.0
C262 C 0.34491 0.29642 0.51903 0.0
C263 C 0.41745 0.29312 0.49026 0.0
C264 C 0.26873 0.27848 0.69274 0.0
C265 C 0.22286 0.30486 0.619 0.0
N266 N 0.3705 0.29081 0.55278 0.0
N267 N 0.26958 0.30626 0.55797 0.0
H268 H 0.86585 0.33254 0.71464 0.0
H269 H 0.79012 0.26853 0.34198 0.0
H270 H 0.94537 0.25846 0.43876 0.0
H271 H 0.71005 0.33994 0.621 0.0
H272 H 0.84788 0.26566 0.37421 0.0
H273 H 0.80861 0.33524 0.68128 0.0
C274 C 0.87134 0.31654 0.64727 0.0
C275 C 0.91096 0.29526 0.5796 0.0
C276 C 0.8176 0.28186 0.42849 0.0
C277 C 0.84519 0.29898 0.54001 0.0
C278 C 0.7846 0.28383 0.40984 0.0
C279 C 0.74462 0.30431 0.47895 0.0
C280 C 0.81094 0.30058 0.51693 0.0
C281 C 0.73959 0.32289 0.5661 0.0
C282 C 0.83862 0.31844 0.6279 0.0
C283 C 0.91604 0.27602 0.49271 0.0
N284 N 0.77216 0.32057 0.5824 0.0
N285 N 0.8837 0.27835 0.47559 0.0
H286 H 0.94935 0.81373 0.4991 0.0
H287 H 0.70953 0.78972 0.55989 0.0
H288 H 0.94116 0.81153 0.24836 0.0
H289 H 0.71805 0.7926 0.81025 0.0
H290 H 0.79365 0.79729 0.44594 0.0
H291 H 0.86531 0.80657 0.61277 0.0
C292 C 0.92999 0.81183 0.46746 0.0
C293 C 0.95278 0.81311 0.36319 0.0
C294 C 0.77727 0.79622 0.52566 0.0
C295 C 0.85544 0.80474 0.49495 0.0
C296 C 0.72898 0.79186 0.59139 0.0
C297 C 0.70626 0.79061 0.69564 0.0
C298 C 0.80364 0.79944 0.5636 0.0
C299 C 0.7338 0.79329 0.73082 0.0
C300 C 0.88173 0.80771 0.53303 0.0
C301 C 0.92535 0.8108 0.32782 0.0
N302 N 0.78101 0.79769 0.66496 0.0
N303 N 0.87814 0.80659 0.39357 0.0
H304 H 0.43154 0.86467 0.05453 0.0
H305 H 0.22484 0.73326 1.0106 0.0
H306 H 0.40267 0.70507 1.01585 0.0
H307 H 0.25717 0.89357 0.0391 0.0
H308 H 0.29214 0.72216 1.00509 0.0
H309 H 0.36425 0.87525 0.05973 0.0
C310 C 0.40997 0.83164 0.05088 0.0
C311 C 0.42246 0.78407 1.03432 0.0
C312 C 0.28494 0.75991 1.01086 0.0
C313 C 0.34735 0.79594 1.03544 0.0
C314 C 0.24724 0.76629 1.01169 0.0
C315 C 0.23578 0.81429 1.02543 0.0
C316 C 0.31075 0.80189 1.02429 0.0
C317 C 0.26512 0.8559 1.02864 0.0
C318 C 0.37225 0.83775 0.0516 0.0
C319 C 0.39401 0.74244 1.02832 0.0
N320 N 0.30093 0.84867 1.02965 0.0
N321 N 0.3581 0.74944 1.0274 0.0
H322 H 0.21228 0.17943 0.96945 0.0
H323 H 0.36348 0.13146 0.15408 0.0
H324 H 0.15777 0.16841 0.28129 0.0
H325 H 0.42125 0.21153 0.87467 0.0
H326 H 0.28601 0.11919 0.1901 0.0
H327 H 0.2867 0.16435 0.92422 0.0
C328 C 0.21561 0.17263 1.02857 0.0
C329 C 0.1789 0.17542 0.12941 0.0
C330 C 0.3159 0.13873 0.12034 0.0
C331 C 0.26402 0.15859 0.07778 0.0
C332 C 0.36011 0.14605 0.09976 0.0
C333 C 0.39905 0.1737 1.0121 0.0
C334 C 0.31068 0.15832 0.05203 0.0
C335 C 0.39256 0.18998 0.94308 0.0
C336 C 0.25818 0.16441 1.00253 0.0
C337 C 0.18542 0.16708 0.20272 0.0
N338 N 0.34914 0.18245 0.96499 0.0
N339 N 0.22739 0.15932 0.17542 0.0
H340 H 0.74923 0.38082 1.01259 0.0
H341 H 0.8908 0.20596 0.0617 0.0
H342 H 0.71255 0.21773 0.04465 0.0
H343 H 0.92902 0.3689 1.02521 0.0
H344 H 0.82337 0.20976 0.06284 0.0
H345 H 0.81752 0.37719 1.00827 0.0
C346 C 0.75672 0.34408 1.01463 0.0
C347 C 0.72552 0.29943 1.02812 0.0
C348 C 0.84585 0.24483 0.05659 0.0
C349 C 0.80217 0.29501 1.02856 0.0
C350 C 0.88372 0.24271 0.05815 0.0
C351 C 0.9148 0.28726 0.04538 0.0
C352 C 0.83936 0.29189 0.04071 0.0
C353 C 0.90514 0.33384 0.03777 0.0
C354 C 0.79515 0.34206 1.01426 0.0
C355 C 0.73612 0.2529 1.03265 0.0
N356 N 0.86849 0.33495 1.0343 0.0
N357 N 0.77323 0.25189 1.03448 0.0
H358 H 0.95294 0.77566 0.80413 0.0
H359 H 0.70542 0.83585 0.25802 0.0
H360 H 0.90494 0.77446 0.11261 0.0
H361 H 0.75396 0.83791 0.94919 0.0
H362 H 0.7792 0.81474 0.20599 0.0
H363 H 0.8794 0.79745 0.85622 0.0
C364 C 0.92669 0.77935 0.8828 0.0
C365 C 0.93488 0.77296 0.95411 0.0
C366 C 0.7738 0.82032 0.1496 0.0
C367 C 0.8513 0.79852 1.0141 0.0
C368 C 0.73185 0.83256 0.17928 0.0
C369 C 0.72371 0.83893 0.10786 0.0
C370 C 0.80754 0.81411 0.04796 0.0
C371 C 0.75908 0.83431 1.00668 0.0
C372 C 0.88487 0.79198 0.91252 0.0
C373 C 0.89975 0.77808 0.05523 0.0
N374 N 0.79933 0.82186 0.97985 0.0
N375 N 0.85959 0.79085 0.08212 0.0
loop_
_geom_bond_atom_site_label_1
_geom_bond_atom_site_label_2
_geom_bond_distance
_geom_bond_site_symmetry_2
_ccdc_geom_bond_type
Tb0 C9 2.766 . S
Tb0 O10 2.325 1_455 S
Tb0 O13 2.303 . S
Tb0 O17 2.322 . S
Tb0 O18 2.349 . S
Tb0 O21 2.415 . S
Tb0 O22 2.399 . S
Tb1 O11 2.322 1_455 S
Tb1 O12 2.349 . S
Tb1 O14 2.415 . S
Tb1 O15 2.399 . S
Tb1 O16 2.325 . S
Tb1 O19 2.303 . S
Tb1 C30 2.764 . S
C2 O18 1.261 . S
C2 O19 1.257 . S
C3 C6 1.358 . S
C3 C7 1.332 1_556 S
C3 C9 1.502 1_656 S
C4 C5 1.373 . S
C4 C8 1.308 . S
C5 C4 1.373 . S
C5 C6 1.429 . S
C5 H32 0.932 . S
C6 C3 1.358 . S
C6 C5 1.429 . S
C6 H33 0.930 . S
C7 C3 1.332 1_554 S
C7 C8 1.394 1_554 S
C7 H34 0.932 . S
C8 C4 1.308 . S
C8 C7 1.394 1_556 S
C8 H35 0.929 . S
C9 Tb0 2.766 . S
C9 C3 1.502 1_454 S
C9 O21 1.239 . S
C9 O22 1.264 . S
O10 Tb0 2.325 1_655 S
O10 C20 1.236 . S
O11 Tb1 2.322 1_655 S
O11 C20 1.257 . S
O12 Tb1 2.349 . S
O12 C23 1.261 . S
O13 Tb0 2.303 . S
O13 C23 1.257 . S
O14 Tb1 2.415 . S
O14 C30 1.239 . S
O15 Tb1 2.399 . S
O15 C30 1.263 . S
O16 Tb1 2.325 . S
O16 C31 1.236 . S
O17 Tb0 2.322 . S
O17 C31 1.257 . S
O18 Tb0 2.349 . S
O18 C2 1.261 . S
O19 Tb1 2.303 . S
O19 C2 1.257 . S
C20 O10 1.236 . S
C20 O11 1.257 . S
O21 Tb0 2.415 . S
O21 C9 1.239 . S
O22 Tb0 2.399 . S
O22 C9 1.264 . S
C23 O12 1.261 . S
C23 O13 1.257 . S
C24 C27 1.358 . S
C24 C28 1.332 . S
C24 C30 1.504 . S
C25 C26 1.373 . S
C25 C29 1.308 . S
C26 C25 1.373 . S
C26 C27 1.429 . S
C26 H36 0.932 . S
C27 C24 1.358 . S
C27 C26 1.429 . S
C27 H37 0.930 . S
C28 C24 1.332 . S
C28 C29 1.394 . S
C28 H38 0.932 . S
C29 C25 1.308 . S
C29 C28 1.394 . S
C29 H39 0.929 . S
C30 Tb1 2.764 . S
C30 O14 1.239 . S
C30 O15 1.263 . S
C30 C24 1.504 . S
C31 O16 1.236 . S
C31 O17 1.257 . S
H32 C5 0.932 . S
H33 C6 0.930 . S
H34 C7 0.932 . S
H35 C8 0.929 . S
H36 C26 0.932 . S
H37 C27 0.930 . S
H38 C28 0.932 . S
H39 C29 0.929 . S
Tb40 C49 2.764 . S
Tb40 O50 2.325 . S
Tb40 O53 2.303 . S
Tb40 O57 2.322 . S
Tb40 O58 2.349 . S
Tb40 O61 2.415 . S
Tb40 O62 2.399 . S
Tb41 O51 2.322 . S
Tb41 O52 2.349 . S
Tb41 O54 2.415 . S
Tb41 O55 2.399 . S
Tb41 O56 2.325 . S
Tb41 O59 2.303 . S
Tb41 C70 2.764 . S
C42 O58 1.261 . S
C42 O59 1.257 . S
C43 C46 1.358 . S
C43 C47 1.332 1_556 S
C43 C49 1.504 1_556 S
C44 C45 1.373 . S
C44 C48 1.308 . S
C45 C44 1.373 . S
C45 C46 1.429 . S
C45 H72 0.932 . S
C46 C43 1.358 . S
C46 C45 1.429 . S
C46 H73 0.930 . S
C47 C43 1.332 1_554 S
C47 C48 1.394 1_554 S
C47 H74 0.932 . S
C48 C44 1.308 . S
C48 C47 1.394 1_556 S
C48 H75 0.929 . S
C49 Tb40 2.764 . S
C49 C43 1.504 1_554 S
C49 O61 1.239 . S
C49 O62 1.263 . S
O50 Tb40 2.325 . S
O50 C60 1.236 . S
O51 Tb41 2.322 . S
O51 C60 1.257 . S
O52 Tb41 2.349 . S
O52 C63 1.261 . S
O53 Tb40 2.303 . S
O53 C63 1.257 . S
O54 Tb41 2.415 . S
O54 C70 1.239 . S
O55 Tb41 2.399 . S
O55 C70 1.263 . S
O56 Tb41 2.325 . S
O56 C71 1.236 . S
O57 Tb40 2.322 . S
O57 C71 1.257 . S
O58 Tb40 2.349 . S
O58 C42 1.261 . S
O59 Tb41 2.303 . S
O59 C42 1.257 . S
C60 O50 1.236 . S
C60 O51 1.257 . S
O61 Tb40 2.415 . S
O61 C49 1.239 . S
O62 Tb40 2.399 . S
O62 C49 1.263 . S
C63 O52 1.261 . S
C63 O53 1.257 . S
C64 C67 1.358 . S
C64 C68 1.332 . S
C64 C70 1.504 . S
C65 C66 1.373 . S
C65 C69 1.308 . S
C66 C65 1.373 . S
C66 C67 1.429 . S
C66 H76 0.932 . S
C67 C64 1.358 . S
C67 C66 1.429 . S
C67 H77 0.930 . S
C68 C64 1.332 . S
C68 C69 1.394 . S
C68 H78 0.932 . S
C69 C65 1.308 . S
C69 C68 1.394 . S
C69 H79 0.929 . S
C70 Tb41 2.764 . S
C70 O54 1.239 . S
C70 O55 1.263 . S
C70 C64 1.504 . S
C71 O56 1.236 . S
C71 O57 1.257 . S
H72 C45 0.932 . S
H73 C46 0.930 . S
H74 C47 0.932 . S
H75 C48 0.929 . S
H76 C66 0.932 . S
H77 C67 0.930 . S
H78 C68 0.932 . S
H79 C69 0.929 . S
Tb80 C89 2.764 1_455 S
Tb80 O90 2.325 1_455 S
Tb80 O93 2.303 . S
Tb80 O97 2.322 . S
Tb80 O98 2.349 . S
Tb80 O101 2.415 . S
Tb80 O102 2.412 . S
Tb81 O91 2.322 1_455 S
Tb81 O92 2.349 . S
Tb81 O94 2.415 . S
Tb81 O95 2.399 . S
Tb81 O96 2.325 . S
Tb81 O99 2.303 . S
Tb81 C110 2.764 . S
C82 O98 1.261 . S
C82 O99 1.257 . S
C83 C86 1.358 . S
C83 C87 1.332 . S
C83 C89 1.504 . S
C84 C85 1.373 . S
C84 C88 1.308 . S
C85 C84 1.373 . S
C85 C86 1.429 . S
C85 H112 0.932 . S
C86 C83 1.358 . S
C86 C85 1.429 . S
C86 H113 0.930 . S
C87 C83 1.332 . S
C87 C88 1.394 . S
C87 H114 0.932 . S
C88 C84 1.308 . S
C88 C87 1.394 . S
C88 H115 0.929 . S
C89 Tb80 2.764 1_655 S
C89 C83 1.504 . S
C89 O101 1.239 1_655 S
C89 O102 1.256 1_655 S
O90 Tb80 2.325 1_655 S
O90 C100 1.236 . S
O91 Tb81 2.322 1_655 S
O91 C100 1.257 . S
O92 Tb81 2.349 . S
O92 C103 1.261 . S
O93 Tb80 2.303 . S
O93 C103 1.257 . S
O94 Tb81 2.415 . S
O94 C110 1.239 . S
O95 Tb81 2.399 . S
O95 C110 1.263 . S
O96 Tb81 2.325 . S
O96 C111 1.236 . S
O97 Tb80 2.322 . S
O97 C111 1.257 . S
O98 Tb80 2.349 . S
O98 C82 1.261 . S
O99 Tb81 2.303 . S
O99 C82 1.257 . S
C100 O90 1.236 . S
C100 O91 1.257 . S
O101 Tb80 2.415 . S
O101 C89 1.239 1_455 S
O102 Tb80 2.412 . S
O102 C89 1.256 1_455 S
C103 O92 1.261 . S
C103 O93 1.257 . S
C104 C107 1.358 . S
C104 C108 1.332 1_554 S
C104 C110 1.504 1_554 S
C105 C106 1.373 . S
C105 C109 1.308 . S
C106 C105 1.373 . S
C106 C107 1.429 . S
C106 H116 0.932 . S
C107 C104 1.358 . S
C107 C106 1.429 . S
C107 H117 0.930 . S
C108 C104 1.332 1_556 S
C108 C109 1.394 1_556 S
C108 H118 0.932 . S
C109 C105 1.308 . S
C109 C108 1.394 1_554 S
C109 H119 0.929 . S
C110 Tb81 2.764 . S
C110 O94 1.239 . S
C110 O95 1.263 . S
C110 C104 1.504 1_556 S
C111 O96 1.236 . S
C111 O97 1.257 . S
H112 C85 0.932 . S
H113 C86 0.930 . S
H114 C87 0.932 . S
H115 C88 0.929 . S
H116 C106 0.932 . S
H117 C107 0.930 . S
H118 C108 0.932 . S
H119 C109 0.929 . S
Tb120 C129 2.764 . S
Tb120 O130 2.325 . S
Tb120 O133 2.303 . S
Tb120 O137 2.322 . S
Tb120 O138 2.349 . S
Tb120 O141 2.415 . S
Tb120 O142 2.399 . S
Tb121 O131 2.322 . S
Tb121 O132 2.349 . S
Tb121 O134 2.415 . S
Tb121 O135 2.399 . S
Tb121 O136 2.325 . S
Tb121 O139 2.303 . S
Tb121 C150 2.764 . S
C122 O138 1.261 . S
C122 O139 1.257 . S
C123 C126 1.358 . S
C123 C127 1.332 . S
C123 C129 1.504 . S
C124 C125 1.373 . S
C124 C128 1.308 . S
C125 C124 1.373 . S
C125 C126 1.429 . S
C125 H152 0.932 . S
C126 C123 1.358 . S
C126 C125 1.429 . S
C126 H153 0.930 . S
C127 C123 1.332 . S
C127 C128 1.394 . S
C127 H154 0.932 . S
C128 C124 1.308 . S
C128 C127 1.394 . S
C128 H155 0.929 . S
C129 Tb120 2.764 . S
C129 C123 1.504 . S
C129 O141 1.239 . S
C129 O142 1.263 . S
O130 Tb120 2.325 . S
O130 C140 1.236 . S
O131 Tb121 2.322 . S
O131 C140 1.257 . S
O132 Tb121 2.349 . S
O132 C143 1.261 . S
O133 Tb120 2.303 . S
O133 C143 1.257 . S
O134 Tb121 2.415 . S
O134 C150 1.239 . S
O135 Tb121 2.399 . S
O135 C150 1.263 . S
O136 Tb121 2.325 . S
O136 C151 1.236 . S
O137 Tb120 2.322 . S
O137 C151 1.257 . S
O138 Tb120 2.349 . S
O138 C122 1.261 . S
O139 Tb121 2.303 . S
O139 C122 1.257 . S
C140 O130 1.236 . S
C140 O131 1.257 . S
O141 Tb120 2.415 . S
O141 C129 1.239 . S
O142 Tb120 2.399 . S
O142 C129 1.263 . S
C143 O132 1.261 . S
C143 O133 1.257 . S
C144 C147 1.358 . S
C144 C148 1.332 1_554 S
C144 C150 1.504 1_554 S
C145 C146 1.373 . S
C145 C149 1.308 . S
C146 C145 1.373 . S
C146 C147 1.429 . S
C146 H156 0.932 . S
C147 C144 1.358 . S
C147 C146 1.429 . S
C147 H157 0.930 . S
C148 C144 1.332 1_556 S
C148 C149 1.394 1_556 S
C148 H158 0.932 . S
C149 C145 1.308 . S
C149 C148 1.394 1_554 S
C149 H159 0.929 . S
C150 Tb121 2.764 . S
C150 O134 1.239 . S
C150 O135 1.263 . S
C150 C144 1.504 1_556 S
C151 O136 1.236 . S
C151 O137 1.257 . S
H152 C125 0.932 . S
H153 C126 0.930 . S
H154 C127 0.932 . S
H155 C128 0.929 . S
H156 C146 0.932 . S
H157 C147 0.930 . S
H158 C148 0.932 . S
H159 C149 0.929 . S
H160 C166 0.930 . S
H161 C170 0.930 . S
H162 C175 0.929 . S
H163 C173 0.929 . S
H164 C168 0.929 . S
H165 C174 0.929 . S
C166 H160 0.930 . S
C166 C167 1.367 . S
C166 C174 1.378 1_556 S
C167 C166 1.367 . S
C167 C175 1.433 . S
C168 H164 0.929 . S
C168 C170 1.378 1_556 S
C168 C172 1.350 1_556 S
C169 C172 1.463 1_556 S
C169 C174 1.350 1_556 S
C169 N177 1.427 . S
C170 H161 0.930 . S
C170 C168 1.378 1_554 S
C170 C171 1.367 . S
C171 C170 1.367 . S
C171 C173 1.433 . S
C172 C168 1.350 1_554 S
C172 C169 1.463 1_554 S
C172 N176 1.427 . S
C173 H163 0.929 . S
C173 C171 1.433 . S
C173 N176 1.384 . S
C174 H165 0.929 . S
C174 C166 1.378 1_554 S
C174 C169 1.350 1_554 S
C175 H162 0.929 . S
C175 C167 1.433 . S
C175 N177 1.384 . S
N176 C172 1.427 . S
N176 C173 1.384 . S
N177 C169 1.427 . S
N177 C175 1.384 . S
H178 C184 0.930 1_556 S
H179 C188 0.930 1_554 S
H180 C193 0.929 . S
H181 C191 0.929 . S
H182 C186 0.929 . S
H183 C192 0.929 . S
C184 H178 0.930 1_554 S
C184 C185 1.367 . S
C184 C192 1.378 1_554 S
C185 C184 1.367 . S
C185 C193 1.433 . S
C186 H182 0.929 . S
C186 C188 1.378 1_554 S
C186 C190 1.350 1_554 S
C187 C190 1.463 1_554 S
C187 C192 1.350 1_554 S
C187 N195 1.427 . S
C188 H179 0.930 1_556 S
C188 C186 1.378 1_556 S
C188 C189 1.367 . S
C189 C188 1.367 . S
C189 C191 1.433 . S
C190 C186 1.350 1_556 S
C190 C187 1.463 1_556 S
C190 N194 1.427 . S
C191 H181 0.929 . S
C191 C189 1.433 . S
C191 N194 1.384 . S
C192 H183 0.929 . S
C192 C184 1.378 1_556 S
C192 C187 1.350 1_556 S
C193 H180 0.929 . S
C193 C185 1.433 . S
C193 N195 1.384 . S
N194 C190 1.427 . S
N194 C191 1.384 . S
N195 C187 1.427 . S
N195 C193 1.384 . S
H196 C202 0.930 . S
H197 C206 0.930 . S
H198 C211 0.929 . S
H199 C209 0.929 . S
H200 C204 0.929 . S
H201 C210 0.929 . S
C202 H196 0.930 . S
C202 C203 1.367 . S
C202 C210 1.378 1_556 S
C203 C202 1.367 . S
C203 C211 1.433 . S
C204 H200 0.929 . S
C204 C206 1.378 1_556 S
C204 C208 1.350 1_556 S
C205 C208 1.463 1_566 S
C205 C210 1.350 1_556 S
C205 N213 1.427 . S
C206 H197 0.930 . S
C206 C204 1.378 1_554 S
C206 C207 1.367 . S
C207 C206 1.367 . S
C207 C209 1.433 . S
C208 C204 1.350 1_554 S
C208 C205 1.463 1_544 S
C208 N212 1.427 . S
C209 H199 0.929 . S
C209 C207 1.433 . S
C209 N212 1.384 . S
C210 H201 0.929 . S
C210 C202 1.378 1_554 S
C210 C205 1.350 1_554 S
C211 H198 0.929 . S
C211 C203 1.433 . S
C211 N213 1.384 . S
N212 C208 1.427 . S
N212 C209 1.384 . S
N213 C205 1.427 . S
N213 C211 1.384 . S
H214 C220 0.930 . S
H215 C224 0.930 . S
H216 C229 0.929 . S
H217 C227 0.929 . S
H218 C222 0.929 1_565 S
H219 C228 0.929 1_545 S
C220 H214 0.930 . S
C220 C221 1.367 . S
C220 C228 1.378 . S
C221 C220 1.367 . S
C221 C229 1.433 . S
C222 H218 0.929 1_545 S
C222 C224 1.378 . S
C222 C226 1.350 . S
C223 C226 1.463 1_564 S
C223 C228 1.350 . S
C223 N231 1.427 . S
C224 H215 0.930 . S
C224 C222 1.378 . S
C224 C225 1.367 . S
C225 C224 1.367 . S
C225 C227 1.433 . S
C226 C222 1.350 . S
C226 C223 1.463 1_546 S
C226 N230 1.427 . S
C227 H217 0.929 . S
C227 C225 1.433 . S
C227 N230 1.384 . S
C228 H219 0.929 1_565 S
C228 C220 1.378 . S
C228 C223 1.350 . S
C229 H216 0.929 . S
C229 C221 1.433 . S
C229 N231 1.384 . S
N230 C226 1.427 . S
N230 C227 1.384 . S
N231 C223 1.427 . S
N231 C229 1.384 . S
H232 C238 0.930 . S
H233 C242 0.930 . S
H234 C247 0.929 . S
H235 C245 0.929 . S
H236 C240 0.929 . S
H237 C246 0.929 . S
C238 H232 0.930 . S
C238 C239 1.367 . S
C238 C246 1.378 . S
C239 C238 1.367 . S
C239 C247 1.433 . S
C240 H236 0.929 . S
C240 C242 1.378 . S
C240 C244 1.350 . S
C241 C244 1.463 . S
C241 C246 1.350 . S
C241 N249 1.427 . S
C242 H233 0.930 . S
C242 C240 1.378 . S
C242 C243 1.367 . S
C243 C242 1.367 . S
C243 C245 1.433 . S
C244 C240 1.350 . S
C244 C241 1.463 . S
C244 N248 1.427 . S
C245 H235 0.929 . S
C245 C243 1.433 . S
C245 N248 1.384 . S
C246 H237 0.929 . S
C246 C238 1.378 . S
C246 C241 1.350 . S
C247 H234 0.929 . S
C247 C239 1.433 . S
C247 N249 1.384 . S
N248 C244 1.427 . S
N248 C245 1.384 . S
N249 C241 1.427 . S
N249 C247 1.384 . S
H250 C256 0.930 . S
H251 C260 0.930 . S
H252 C265 0.929 . S
H253 C263 0.929 . S
H254 C258 0.929 . S
H255 C264 0.929 . S
C256 H250 0.930 . S
C256 C257 1.367 . S
C256 C264 1.378 . S
C257 C256 1.367 . S
C257 C265 1.433 . S
C258 H254 0.929 . S
C258 C260 1.378 . S
C258 C262 1.350 . S
C259 C262 1.463 . S
C259 C264 1.350 . S
C259 N267 1.427 . S
C260 H251 0.930 . S
C260 C258 1.378 . S
C260 C261 1.367 . S
C261 C260 1.367 . S
C261 C263 1.433 . S
C262 C258 1.350 . S
C262 C259 1.463 . S
C262 N266 1.427 . S
C263 H253 0.929 . S
C263 C261 1.433 . S
C263 N266 1.384 . S
C264 H255 0.929 . S
C264 C256 1.378 . S
C264 C259 1.350 . S
C265 H252 0.929 . S
C265 C257 1.433 . S
C265 N267 1.384 . S
N266 C262 1.427 . S
N266 C263 1.384 . S
N267 C259 1.427 . S
N267 C265 1.384 . S
H268 C274 0.930 . S
H269 C278 0.930 . S
H270 C283 0.929 . S
H271 C281 0.929 . S
H272 C276 0.929 . S
H273 C282 0.929 . S
C274 H268 0.930 . S
C274 C275 1.367 . S
C274 C282 1.378 . S
C275 C274 1.367 . S
C275 C283 1.433 . S
C276 H272 0.929 . S
C276 C278 1.378 . S
C276 C280 1.350 . S
C277 C280 1.463 . S
C277 C282 1.350 . S
C277 N285 1.427 . S
C278 H269 0.930 . S
C278 C276 1.378 . S
C278 C279 1.367 . S
C279 C278 1.367 . S
C279 C281 1.433 . S
C280 C276 1.350 . S
C280 C277 1.463 . S
C280 N284 1.427 . S
C281 H271 0.929 . S
C281 C279 1.433 . S
C281 N284 1.384 . S
C282 H273 0.929 . S
C282 C274 1.378 . S
C282 C277 1.350 . S
C283 H270 0.929 . S
C283 C275 1.433 . S
C283 N285 1.384 . S
N284 C280 1.427 . S
N284 C281 1.384 . S
N285 C277 1.427 . S
N285 C283 1.384 . S
H286 C292 0.930 . S
H287 C296 0.930 . S
H288 C301 0.929 . S
H289 C299 0.929 . S
H290 C294 0.929 . S
H291 C300 0.929 . S
C292 H286 0.930 . S
C292 C293 1.367 . S
C292 C300 1.378 . S
C293 C292 1.367 . S
C293 C301 1.433 . S
C294 H290 0.929 . S
C294 C296 1.378 . S
C294 C298 1.350 . S
C295 C298 1.463 . S
C295 C300 1.350 . S
C295 N303 1.427 . S
C296 H287 0.930 . S
C296 C294 1.378 . S
C296 C297 1.367 . S
C297 C296 1.367 . S
C297 C299 1.433 . S
C298 C294 1.350 . S
C298 C295 1.463 . S
C298 N302 1.427 . S
C299 H289 0.929 . S
C299 C297 1.433 . S
C299 N302 1.384 . S
C300 H291 0.929 . S
C300 C292 1.378 . S
C300 C295 1.350 . S
C301 H288 0.929 . S
C301 C293 1.433 . S
C301 N303 1.384 . S
N302 C298 1.427 . S
N302 C299 1.384 . S
N303 C295 1.427 . S
N303 C301 1.384 . S
H304 C310 0.930 . S
H305 C314 0.930 . S
H306 C319 0.929 . S
H307 C317 0.929 . S
H308 C312 0.929 . S
H309 C318 0.929 . S
C310 H304 0.930 . S
C310 C311 1.367 . S
C310 C318 1.378 . S
C311 C310 1.367 . S
C311 C319 1.433 1_556 S
C312 H308 0.929 . S
C312 C314 1.378 . S
C312 C316 1.350 . S
C313 C316 1.463 1_556 S
C313 C318 1.350 . S
C313 N321 1.427 1_556 S
C314 H305 0.930 . S
C314 C312 1.378 . S
C314 C315 1.367 . S
C315 C314 1.367 . S
C315 C317 1.433 1_554 S
C316 C312 1.350 . S
C316 C313 1.463 1_554 S
C316 N320 1.427 1_554 S
C317 H307 0.929 . S
C317 C315 1.433 1_556 S
C317 N320 1.384 . S
C318 H309 0.929 . S
C318 C310 1.378 . S
C318 C313 1.350 . S
C319 H306 0.929 . S
C319 C311 1.433 1_554 S
C319 N321 1.384 . S
N320 C316 1.427 1_556 S
N320 C317 1.384 . S
N321 C313 1.427 1_554 S
N321 C319 1.384 . S
H322 C328 0.930 1_556 S
H323 C332 0.930 1_554 S
H324 C337 0.929 . S
H325 C335 0.929 . S
H326 C330 0.929 . S
H327 C336 0.929 . S
C328 H322 0.930 1_554 S
C328 C329 1.367 . S
C328 C336 1.378 1_554 S
C329 C328 1.367 . S
C329 C337 1.433 . S
C330 H326 0.929 . S
C330 C332 1.378 1_554 S
C330 C334 1.350 1_554 S
C331 C334 1.463 1_554 S
C331 C336 1.350 1_554 S
C331 N339 1.427 . S
C332 H323 0.930 1_556 S
C332 C330 1.378 1_556 S
C332 C333 1.367 . S
C333 C332 1.367 . S
C333 C335 1.433 . S
C334 C330 1.350 1_556 S
C334 C331 1.463 1_556 S
C334 N338 1.427 . S
C335 H325 0.929 . S
C335 C333 1.433 . S
C335 N338 1.384 . S
C336 H327 0.929 . S
C336 C328 1.378 1_556 S
C336 C331 1.350 1_556 S
C337 H324 0.929 . S
C337 C329 1.433 . S
C337 N339 1.384 . S
N338 C334 1.427 . S
N338 C335 1.384 . S
N339 C331 1.427 . S
N339 C337 1.384 . S
H340 C346 0.930 . S
H341 C350 0.930 . S
H342 C355 0.929 . S
H343 C353 0.929 . S
H344 C348 0.929 . S
H345 C354 0.929 . S
C346 H340 0.930 . S
C346 C347 1.367 1_556 S
C346 C354 1.378 . S
C347 C346 1.367 1_554 S
C347 C355 1.433 . S
C348 H344 0.929 . S
C348 C350 1.378 . S
C348 C352 1.350 1_554 S
C349 C352 1.463 1_554 S
C349 C354 1.350 1_554 S
C349 N357 1.427 . S
C350 H341 0.930 . S
C350 C348 1.378 . S
C350 C351 1.367 1_554 S
C351 C350 1.367 1_556 S
C351 C353 1.433 . S
C352 C348 1.350 1_556 S
C352 C349 1.463 1_556 S
C352 N356 1.427 . S
C353 H343 0.929 . S
C353 C351 1.433 . S
C353 N356 1.384 . S
C354 H345 0.929 . S
C354 C346 1.378 . S
C354 C349 1.350 1_556 S
C355 H342 0.929 . S
C355 C347 1.433 . S
C355 N357 1.384 . S
N356 C352 1.427 . S
N356 C353 1.384 . S
N357 C349 1.427 . S
N357 C355 1.384 . S
H358 C364 0.930 . S
H359 C368 0.930 . S
H360 C373 0.929 . S
H361 C371 0.929 . S
H362 C366 0.929 . S
H363 C372 0.929 . S
C364 H358 0.930 . S
C364 C365 1.367 . S
C364 C372 1.378 . S
C365 C364 1.367 . S
C365 C373 1.433 . S
C366 H362 0.929 . S
C366 C368 1.378 . S
C366 C370 1.350 . S
C367 C370 1.463 1_556 S
C367 C372 1.350 . S
C367 N375 1.427 . S
C368 H359 0.930 . S
C368 C366 1.378 . S
C368 C369 1.367 . S
C369 C368 1.367 . S
C369 C371 1.433 . S
C370 C366 1.350 . S
C370 C367 1.463 1_554 S
C370 N374 1.427 . S
C371 H361 0.929 . S
C371 C369 1.433 . S
C371 N374 1.384 . S
C372 H363 0.929 . S
C372 C364 1.378 . S
C372 C367 1.350 . S
C373 H360 0.929 . S
C373 C365 1.433 . S
C373 N375 1.384 . S
N374 C370 1.427 . S
N374 C371 1.384 . S
N375 C367 1.427 . S
N375 C373 1.384 . S
C167 C103 1.912 . S
C171 C2 1.912 . S
C185 C63 2.535 . S
C189 C122 2.535 . S
C203 C143 1.912 . S
C207 C42 1.912 . S
C221 C23 2.538 . S
C225 C82 2.538 . S
C239 C124 1.597 . S
C243 C25 1.597 . S
C257 C111 1.582 . S
C261 C60 1.582 . S
C275 C84 1.593 . S
C279 C65 1.593 . S
C293 C20 1.584 . S
C297 C151 1.584 . S
C311 C140 1.925 . S
C315 C31 1.925 . S
C329 C105 0.601 . S
C333 C44 0.601 . S
C347 C71 1.929 . S
C351 C100 1.929 . S
C365 C4 0.641 . S
C369 C145 0.641 . S
