# Generated by pormake.
# Topology fnk, (5)-cn, num edge types: 1
# Building blocks:
#     Node 0, Type 0, BuildingBlock: XOMCOT_clean_sbu_0, # of connection points: 5
#     Node 1, Type 0, BuildingBlock: XOMCOT_clean_sbu_0, # of connection points: 5
#     Node 2, Type 0, BuildingBlock: XOMCOT_clean_sbu_0, # of connection points: 5
#     Node 3, Type 0, BuildingBlock: XOMCOT_clean_sbu_0, # of connection points: 5
#     Node 4, Type 0, BuildingBlock: XOMCOT_clean_sbu_0, # of connection points: 5
#     Node 5, Type 0, BuildingBlock: XOMCOT_clean_sbu_0, # of connection points: 5
#     Node 6, Type 0, BuildingBlock: XOMCOT_clean_sbu_0, # of connection points: 5
#     Node 7, Type 0, BuildingBlock: XOMCOT_clean_sbu_0, # of connection points: 5
#     Node 8, Type 0, BuildingBlock: XOMCOT_clean_sbu_0, # of connection points: 5
#     Node 9, Type 0, BuildingBlock: XOMCOT_clean_sbu_0, # of connection points: 5
#     Node 10, Type 0, BuildingBlock: XOMCOT_clean_sbu_0, # of connection points: 5
#     Node 11, Type 0, BuildingBlock: XOMCOT_clean_sbu_0, # of connection points: 5
#     Node 12, Type 0, BuildingBlock: XOMCOT_clean_sbu_0, # of connection points: 5
#     Node 13, Type 0, BuildingBlock: XOMCOT_clean_sbu_0, # of connection points: 5
#     Node 14, Type 0, BuildingBlock: XOMCOT_clean_sbu_0, # of connection points: 5
#     Node 15, Type 0, BuildingBlock: XOMCOT_clean_sbu_0, # of connection points: 5
#     Edge 16, Type (0, 0), BuildingBlock: ZUJKAS_clean_linker_0, # of connection points: 2
#     Edge 17, Type (0, 0), BuildingBlock: ZUJKAS_clean_linker_0, # of connection points: 2
#     Edge 18, Type (0, 0), BuildingBlock: ZUJKAS_clean_linker_0, # of connection points: 2
#     Edge 19, Type (0, 0), BuildingBlock: ZUJKAS_clean_linker_0, # of connection points: 2
#     Edge 20, Type (0, 0), BuildingBlock: ZUJKAS_clean_linker_0, # of connection points: 2
#     Edge 21, Type (0, 0), BuildingBlock: ZUJKAS_clean_linker_0, # of connection points: 2
#     Edge 22, Type (0, 0), BuildingBlock: ZUJKAS_clean_linker_0, # of connection points: 2
#     Edge 23, Type (0, 0), BuildingBlock: ZUJKAS_clean_linker_0, # of connection points: 2
#     Edge 24, Type (0, 0), BuildingBlock: ZUJKAS_clean_linker_0, # of connection points: 2
#     Edge 25, Type (0, 0), BuildingBlock: ZUJKAS_clean_linker_0, # of connection points: 2
#     Edge 26, Type (0, 0), BuildingBlock: ZUJKAS_clean_linker_0, # of connection points: 2
#     Edge 27, Type (0, 0), BuildingBlock: ZUJKAS_clean_linker_0, # of connection points: 2
#     Edge 28, Type (0, 0), BuildingBlock: ZUJKAS_clean_linker_0, # of connection points: 2
#     Edge 29, Type (0, 0), BuildingBlock: ZUJKAS_clean_linker_0, # of connection points: 2
#     Edge 30, Type (0, 0), BuildingBlock: ZUJKAS_clean_linker_0, # of connection points: 2
#     Edge 31, Type (0, 0), BuildingBlock: ZUJKAS_clean_linker_0, # of connection points: 2
#     Edge 32, Type (0, 0), BuildingBlock: ZUJKAS_clean_linker_0, # of connection points: 2
#     Edge 33, Type (0, 0), BuildingBlock: ZUJKAS_clean_linker_0, # of connection points: 2
#     Edge 34, Type (0, 0), BuildingBlock: ZUJKAS_clean_linker_0, # of connection points: 2
#     Edge 35, Type (0, 0), BuildingBlock: ZUJKAS_clean_linker_0, # of connection points: 2
#     Edge 36, Type (0, 0), BuildingBlock: ZUJKAS_clean_linker_0, # of connection points: 2
#     Edge 37, Type (0, 0), BuildingBlock: ZUJKAS_clean_linker_0, # of connection points: 2
#     Edge 38, Type (0, 0), BuildingBlock: ZUJKAS_clean_linker_0, # of connection points: 2
#     Edge 39, Type (0, 0), BuildingBlock: ZUJKAS_clean_linker_0, # of connection points: 2
#     Edge 40, Type (0, 0), BuildingBlock: ZUJKAS_clean_linker_0, # of connection points: 2
#     Edge 41, Type (0, 0), BuildingBlock: ZUJKAS_clean_linker_0, # of connection points: 2
#     Edge 42, Type (0, 0), BuildingBlock: ZUJKAS_clean_linker_0, # of connection points: 2
#     Edge 43, Type (0, 0), BuildingBlock: ZUJKAS_clean_linker_0, # of connection points: 2
#     Edge 44, Type (0, 0), BuildingBlock: ZUJKAS_clean_linker_0, # of connection points: 2
#     Edge 45, Type (0, 0), BuildingBlock: ZUJKAS_clean_linker_0, # of connection points: 2
#     Edge 46, Type (0, 0), BuildingBlock: ZUJKAS_clean_linker_0, # of connection points: 2
#     Edge 47, Type (0, 0), BuildingBlock: ZUJKAS_clean_linker_0, # of connection points: 2
#     Edge 48, Type (0, 0), BuildingBlock: ZUJKAS_clean_linker_0, # of connection points: 2
#     Edge 49, Type (0, 0), BuildingBlock: ZUJKAS_clean_linker_0, # of connection points: 2
#     Edge 50, Type (0, 0), BuildingBlock: ZUJKAS_clean_linker_0, # of connection points: 2
#     Edge 51, Type (0, 0), BuildingBlock: ZUJKAS_clean_linker_0, # of connection points: 2
#     Edge 52, Type (0, 0), BuildingBlock: ZUJKAS_clean_linker_0, # of connection points: 2
#     Edge 53, Type (0, 0), BuildingBlock: ZUJKAS_clean_linker_0, # of connection points: 2
#     Edge 54, Type (0, 0), BuildingBlock: ZUJKAS_clean_linker_0, # of connection points: 2
#     Edge 55, Type (0, 0), BuildingBlock: ZUJKAS_clean_linker_0, # of connection points: 2
# Relax obj value: 0.415
# Max RMSD: 0.213
# Mean RMSD: 0.206
data_MOF--net-fnk--node1-XOMCOT_clean_sbu_0--edge1-ZUJKAS_clean_linker_0
_symmetry_space_group_name_H-M    P1
_symmetry_Int_Tables_number       1
_symmetry_cell_setting            triclinic
loop_
_symmetry_equiv_pos_as_xyz
'x, y, z'
_cell_length_a     58.330575
_cell_length_b     57.904915
_cell_length_c     65.75172
_cell_angle_alpha  90.138992
_cell_angle_beta   90.1706
_cell_angle_gamma 89.970756
loop_
_atom_site_label
_atom_site_type_symbol
_atom_site_fract_x
_atom_site_fract_y
_atom_site_fract_z
_atom_type_partial_charge
Co0 Co 0.12264 0.36584 0.17377 0.0
C1 C 0.15612 0.33515 0.19498 0.0
C2 C 0.17257 0.35747 0.17359 0.0
C3 C 0.18905 0.34423 0.18287 0.0
N4 N 0.15183 0.3518 0.18109 0.0
N5 N 0.17871 0.33015 0.19632 0.0
H6 H 0.14306 0.32661 0.20379 0.0
H7 H 0.17567 0.37005 0.16186 0.0
C8 C 0.14945 0.41165 0.17837 0.0
O9 O 0.16121 0.40989 0.16147 0.0
N10 N 0.09371 0.37992 0.16665 0.0
C11 C 0.07904 0.37228 0.15228 0.0
C12 C 0.06089 0.38737 0.1511 0.0
C13 C 0.08427 0.39937 0.1742 0.0
N14 N 0.06424 0.40441 0.16483 0.0
C15 C 0.14036 0.35043 0.1357 0.0
C16 C 0.13368 0.39113 0.1146 0.0
C17 C 0.1421 0.37178 0.10409 0.0
C18 C 0.14548 0.35124 0.11498 0.0
C19 C 0.12874 0.38955 0.13534 0.0
N20 N 0.13256 0.36952 0.14574 0.0
H21 H 0.14224 0.33426 0.14373 0.0
H22 H 0.12148 0.40437 0.14301 0.0
H23 H 0.0816 0.35701 0.14306 0.0
H24 H 0.09218 0.40995 0.18585 0.0
O25 O 0.10801 0.33582 0.17136 0.0
O26 O 0.10983 0.35709 0.19945 0.0
O27 O 0.13466 0.39653 0.18348 0.0
C28 C 0.1021 0.33873 0.19032 0.0
H29 H 0.20727 0.34512 0.17998 0.0
H30 H 0.04639 0.38593 0.14088 0.0
H31 H 0.13075 0.40736 0.10687 0.0
H32 H 0.15129 0.33566 0.10745 0.0
Co33 Co 0.63216 0.1206 0.17566 0.0
C34 C 0.662 0.15911 0.18942 0.0
C35 C 0.62841 0.16146 0.20222 0.0
C36 C 0.64183 0.17826 0.21093 0.0
N37 N 0.64075 0.14984 0.18816 0.0
N38 N 0.66297 0.17662 0.20299 0.0
H39 H 0.67691 0.15216 0.18184 0.0
H40 H 0.61155 0.15677 0.20748 0.0
C41 C 0.58615 0.14544 0.17644 0.0
O42 O 0.59496 0.16376 0.16765 0.0
N43 N 0.62396 0.09127 0.16396 0.0
C44 C 0.63522 0.07975 0.14924 0.0
C45 C 0.62341 0.05971 0.14499 0.0
C46 C 0.60577 0.07814 0.1687 0.0
N47 N 0.60492 0.05879 0.15726 0.0
C48 C 0.65256 0.14161 0.14024 0.0
C49 C 0.61488 0.13561 0.11516 0.0
C50 C 0.63543 0.14334 0.1065 0.0
C51 C 0.65431 0.14681 0.11946 0.0
C52 C 0.61387 0.13061 0.1359 0.0
N53 N 0.63253 0.13357 0.14826 0.0
H54 H 0.66774 0.14272 0.14954 0.0
H55 H 0.59835 0.12297 0.14173 0.0
H56 H 0.65073 0.08568 0.14194 0.0
H57 H 0.59311 0.08299 0.1799 0.0
O58 O 0.66359 0.10945 0.17784 0.0
O59 O 0.63669 0.10604 0.20149 0.0
O60 O 0.59854 0.12763 0.17967 0.0
C61 C 0.65754 0.10186 0.1957 0.0
H62 H 0.63705 0.18935 0.2235 0.0
H63 H 0.62802 0.04692 0.13369 0.0
H64 H 0.59979 0.13272 0.10586 0.0
H65 H 0.6707 0.15226 0.11345 0.0
Co66 Co 0.86992 0.64643 0.17537 0.0
C67 C 0.83318 0.68125 0.18212 0.0
C68 C 0.83134 0.65245 0.20264 0.0
C69 C 0.81341 0.667 0.20671 0.0
N70 N 0.84355 0.6612 0.18712 0.0
N71 N 0.81455 0.68503 0.19384 0.0
H72 H 0.83898 0.69265 0.17017 0.0
H73 H 0.83532 0.63667 0.21063 0.0
C74 C 0.85644 0.59603 0.17281 0.0
O75 O 0.86579 0.59393 0.15474 0.0
N76 N 0.8967 0.63096 0.16439 0.0
C77 C 0.90899 0.63527 0.14747 0.0
C78 C 0.9269 0.61982 0.1465 0.0
C79 C 0.90781 0.61349 0.17373 0.0
N80 N 0.92607 0.60604 0.16299 0.0
C81 C 0.86396 0.66416 0.13499 0.0
C82 C 0.82756 0.63643 0.12376 0.0
C83 C 0.83762 0.65064 0.10899 0.0
C84 C 0.85565 0.66514 0.11508 0.0
C85 C 0.83651 0.63595 0.14354 0.0
N86 N 0.85555 0.64851 0.14855 0.0
H87 H 0.87773 0.67561 0.13931 0.0
H88 H 0.82798 0.62548 0.15474 0.0
H89 H 0.9057 0.64866 0.13654 0.0
H90 H 0.90248 0.60643 0.18818 0.0
O91 O 0.88685 0.67533 0.17582 0.0
O92 O 0.88583 0.6498 0.20086 0.0
O93 O 0.85565 0.61565 0.18166 0.0
C94 C 0.89369 0.6692 0.19391 0.0
H95 H 0.80078 0.66483 0.2186 0.0
H96 H 0.9393 0.61867 0.13433 0.0
H97 H 0.81286 0.62576 0.1201 0.0
H98 H 0.86386 0.67671 0.10444 0.0
Co99 Co 0.35398 0.87522 0.16079 0.0
C100 C 0.39366 0.90719 0.15563 0.0
C101 C 0.36241 0.92099 0.14345 0.0
C102 C 0.37966 0.93671 0.1402 0.0
N103 N 0.37114 0.90253 0.15325 0.0
N104 N 0.39926 0.92798 0.14792 0.0
H105 H 0.40594 0.89553 0.16237 0.0
H106 H 0.34472 0.92283 0.13875 0.0
C107 C 0.3066 0.89464 0.17233 0.0
O108 O 0.29631 0.8745 0.17248 0.0
N109 N 0.33691 0.84791 0.16821 0.0
C110 C 0.3331 0.82913 0.15655 0.0
C111 C 0.32085 0.81331 0.16767 0.0
C112 C 0.32789 0.84283 0.18654 0.0
N113 N 0.31743 0.82203 0.18648 0.0
C114 C 0.36369 0.8686 0.11894 0.0
C115 C 0.31924 0.86991 0.10426 0.0
C116 C 0.33739 0.86787 0.09038 0.0
C117 C 0.35982 0.867 0.09804 0.0
C118 C 0.32389 0.87171 0.12516 0.0
N119 N 0.34594 0.87124 0.13222 0.0
H120 H 0.38112 0.86824 0.12452 0.0
H121 H 0.30977 0.87342 0.13554 0.0
H122 H 0.33887 0.82696 0.14105 0.0
H123 H 0.32806 0.85462 0.19934 0.0
O124 O 0.38186 0.85686 0.16182 0.0
O125 O 0.36714 0.87626 0.18774 0.0
O126 O 0.32736 0.89664 0.16642 0.0
C127 C 0.3834 0.86302 0.18087 0.0
H128 H 0.37783 0.95335 0.13293 0.0
H129 H 0.31496 0.79665 0.16231 0.0
H130 H 0.30164 0.87066 0.099 0.0
H131 H 0.37435 0.86509 0.08795 0.0
Co132 Co 0.11502 0.64917 0.32113 0.0
C133 C 0.1525 0.68175 0.30846 0.0
C134 C 0.14616 0.6542 0.2873 0.0
C135 C 0.16172 0.66895 0.27881 0.0
N136 N 0.14051 0.66192 0.306 0.0
N137 N 0.16562 0.68629 0.29202 0.0
H138 H 0.15058 0.69349 0.3211 0.0
H139 H 0.13847 0.63946 0.27982 0.0
C140 C 0.14526 0.60815 0.31201 0.0
O141 O 0.16346 0.61931 0.31856 0.0
N142 N 0.0893 0.63618 0.33532 0.0
C143 C 0.07945 0.64397 0.35252 0.0
C144 C 0.06226 0.62886 0.3579 0.0
C145 C 0.07792 0.61679 0.33028 0.0
N146 N 0.06136 0.61183 0.34386 0.0
C147 C 0.13524 0.66981 0.35671 0.0
C148 C 0.14195 0.6289 0.37743 0.0
C149 C 0.14464 0.64976 0.38804 0.0
C150 C 0.14182 0.67044 0.37722 0.0
C151 C 0.13517 0.62904 0.35706 0.0
N152 N 0.13186 0.64931 0.34683 0.0
H153 H 0.13105 0.68588 0.34933 0.0
H154 H 0.13083 0.61271 0.35015 0.0
H155 H 0.08464 0.65933 0.36071 0.0
H156 H 0.0821 0.6062 0.31722 0.0
O157 O 0.10037 0.67936 0.32248 0.0
O158 O 0.09608 0.6537 0.29758 0.0
O159 O 0.12535 0.61714 0.31357 0.0
C160 C 0.09088 0.6737 0.3052 0.0
H161 H 0.16899 0.66751 0.26372 0.0
H162 H 0.05129 0.6303 0.37109 0.0
H163 H 0.14397 0.61246 0.38504 0.0
H164 H 0.14312 0.68699 0.38482 0.0
Co165 Co 0.34943 0.10724 0.31511 0.0
C166 C 0.31851 0.14378 0.29827 0.0
C167 C 0.3426 0.13075 0.27647 0.0
C168 C 0.32867 0.14649 0.26693 0.0
N169 N 0.33633 0.1291 0.29614 0.0
N170 N 0.31353 0.15462 0.28064 0.0
H171 H 0.30888 0.14613 0.31209 0.0
H172 H 0.35632 0.12099 0.26951 0.0
C173 C 0.38712 0.14021 0.30409 0.0
O174 O 0.37274 0.15753 0.30614 0.0
N175 N 0.36232 0.08511 0.33362 0.0
C176 C 0.35267 0.07701 0.35078 0.0
C177 C 0.36801 0.06242 0.36018 0.0
C178 C 0.38311 0.07521 0.33257 0.0
N179 N 0.38705 0.06133 0.34864 0.0
C180 C 0.3233 0.12839 0.34722 0.0
C181 C 0.36084 0.14383 0.36905 0.0
C182 C 0.3394 0.14363 0.37859 0.0
C183 C 0.32031 0.13657 0.36714 0.0
C184 C 0.36311 0.13545 0.34925 0.0
N185 N 0.34456 0.12753 0.33853 0.0
H186 H 0.30872 0.12101 0.3394 0.0
H187 H 0.38025 0.13344 0.34351 0.0
H188 H 0.33578 0.08157 0.35619 0.0
H189 H 0.3953 0.07851 0.32054 0.0
O190 O 0.32073 0.08977 0.31477 0.0
O191 O 0.35003 0.08451 0.29393 0.0
O192 O 0.38103 0.11981 0.30916 0.0
C193 C 0.32969 0.07832 0.29962 0.0
H194 H 0.32968 0.15163 0.25114 0.0
H195 H 0.36536 0.05325 0.37431 0.0
H196 H 0.37609 0.14919 0.37723 0.0
H197 H 0.30345 0.13575 0.37396 0.0
Co198 Co 0.87838 0.36474 0.31286 0.0
C199 C 0.84385 0.33032 0.29737 0.0
C200 C 0.84631 0.36094 0.27929 0.0
C201 C 0.83186 0.34591 0.26964 0.0
N202 N 0.85344 0.35161 0.29699 0.0
N203 N 0.83045 0.3265 0.28082 0.0
H204 H 0.84781 0.31728 0.30852 0.0
H205 H 0.85224 0.37716 0.27314 0.0
C206 C 0.84561 0.40418 0.30662 0.0
O207 O 0.82848 0.3908 0.31199 0.0
N208 N 0.9036 0.37813 0.32765 0.0
C209 C 0.91428 0.36968 0.34421 0.0
C210 C 0.93051 0.38548 0.35048 0.0
C211 C 0.91348 0.39864 0.3239 0.0
N212 N 0.92988 0.40373 0.33772 0.0
C213 C 0.85845 0.34114 0.34707 0.0
C214 C 0.85161 0.38044 0.37024 0.0
C215 C 0.84856 0.35886 0.37943 0.0
C216 C 0.85163 0.33901 0.36741 0.0
C217 C 0.8585 0.38179 0.34998 0.0
N218 N 0.86183 0.36233 0.33853 0.0
H219 H 0.86262 0.32567 0.33873 0.0
H220 H 0.86297 0.39858 0.34416 0.0
H221 H 0.91017 0.35346 0.35146 0.0
H222 H 0.9087 0.40959 0.31127 0.0
O223 O 0.89436 0.33526 0.31267 0.0
O224 O 0.89718 0.36249 0.28906 0.0
O225 O 0.86619 0.3967 0.30732 0.0
C226 C 0.90324 0.34224 0.29559 0.0
H227 H 0.82361 0.34889 0.25512 0.0
H228 H 0.94143 0.38392 0.36375 0.0
H229 H 0.85028 0.39625 0.379 0.0
H230 H 0.84968 0.32195 0.37387 0.0
Co231 Co 0.62374 0.87917 0.31519 0.0
C232 C 0.5925 0.91335 0.33548 0.0
C233 C 0.61195 0.92794 0.31108 0.0
C234 C 0.59862 0.94506 0.31934 0.0
N235 N 0.6088 0.90821 0.32163 0.0
N236 N 0.5865 0.93579 0.33463 0.0
H237 H 0.5845 0.90116 0.34554 0.0
H238 H 0.62299 0.92967 0.29798 0.0
C239 C 0.66132 0.91383 0.3197 0.0
O240 O 0.6528 0.91911 0.33761 0.0
N241 N 0.63866 0.85083 0.3079 0.0
C242 C 0.6355 0.82974 0.31596 0.0
C243 C 0.64917 0.81428 0.3056 0.0
C244 C 0.65397 0.84806 0.29284 0.0
N245 N 0.66076 0.82588 0.29109 0.0
C246 C 0.61416 0.86839 0.35686 0.0
C247 C 0.65872 0.86946 0.37113 0.0
C248 C 0.64075 0.86722 0.38514 0.0
C249 C 0.61831 0.86584 0.37762 0.0
C250 C 0.65372 0.87206 0.35037 0.0
N251 N 0.63151 0.87339 0.34371 0.0
H252 H 0.59685 0.86635 0.3514 0.0
H253 H 0.66773 0.87341 0.33975 0.0
H254 H 0.62401 0.8259 0.32838 0.0
H255 H 0.65958 0.86196 0.28307 0.0
O256 O 0.59419 0.86391 0.31408 0.0
O257 O 0.61088 0.88124 0.28807 0.0
O258 O 0.6531 0.89669 0.30976 0.0
C259 C 0.59326 0.87003 0.29507 0.0
H260 H 0.59709 0.96266 0.31397 0.0
H261 H 0.6506 0.79597 0.30865 0.0
H262 H 0.67641 0.86981 0.37617 0.0
H263 H 0.60399 0.86277 0.38772 0.0
Co264 Co 0.84891 0.62998 0.82517 0.0
C265 C 0.82007 0.66322 0.80209 0.0
C266 C 0.84449 0.67983 0.82176 0.0
C267 C 0.8321 0.69659 0.8118 0.0
N268 N 0.83691 0.65898 0.81569 0.0
N269 N 0.81681 0.6861 0.79943 0.0
H270 H 0.81017 0.65001 0.79446 0.0
H271 H 0.85815 0.68262 0.83264 0.0
C272 C 0.88849 0.64023 0.8011 0.0
O273 O 0.8926 0.65225 0.81769 0.0
N274 N 0.86097 0.60119 0.83495 0.0
C275 C 0.84883 0.58405 0.84357 0.0
C276 C 0.86326 0.56574 0.84717 0.0
C277 C 0.88259 0.59325 0.83351 0.0
N278 N 0.88444 0.57153 0.84077 0.0
C279 C 0.81525 0.63002 0.85786 0.0
C280 C 0.84596 0.64896 0.88551 0.0
C281 C 0.82427 0.64212 0.89239 0.0
C282 C 0.8087 0.63272 0.87825 0.0
C283 C 0.85187 0.64567 0.8652 0.0
N284 N 0.83677 0.6361 0.85184 0.0
H285 H 0.80332 0.62249 0.84715 0.0
H286 H 0.8689 0.65016 0.86009 0.0
H287 H 0.83064 0.5846 0.84662 0.0
H288 H 0.89647 0.60281 0.82668 0.0
O289 O 0.82173 0.61255 0.8141 0.0
O290 O 0.85163 0.61804 0.79645 0.0
O291 O 0.86964 0.62849 0.80003 0.0
C292 C 0.83169 0.60857 0.79733 0.0
H293 H 0.83445 0.71506 0.8133 0.0
H294 H 0.85847 0.54939 0.85387 0.0
H295 H 0.85863 0.65595 0.89591 0.0
H296 H 0.79175 0.62732 0.88295 0.0
Co297 Co 0.36461 0.86841 0.80591 0.0
C298 C 0.32943 0.83464 0.79023 0.0
C299 C 0.33555 0.86336 0.77045 0.0
C300 C 0.32117 0.84831 0.76068 0.0
N301 N 0.34055 0.85513 0.78912 0.0
N302 N 0.31741 0.83019 0.77301 0.0
H303 H 0.33117 0.82253 0.80258 0.0
H304 H 0.34284 0.87883 0.76393 0.0
C305 C 0.33252 0.90787 0.79724 0.0
O306 O 0.315 0.8947 0.802 0.0
N307 N 0.38902 0.88184 0.82176 0.0
C308 C 0.39855 0.87328 0.83883 0.0
C309 C 0.4149 0.88862 0.84567 0.0
C310 C 0.39976 0.90199 0.81825 0.0
N311 N 0.41561 0.90663 0.83269 0.0
C312 C 0.34369 0.84545 0.83997 0.0
C313 C 0.33567 0.8853 0.86206 0.0
C314 C 0.3336 0.86398 0.8719 0.0
C315 C 0.33693 0.84383 0.86039 0.0
C316 C 0.34249 0.88617 0.84176 0.0
N317 N 0.34665 0.86644 0.83089 0.0
H318 H 0.3485 0.82983 0.83212 0.0
H319 H 0.34643 0.9029 0.83556 0.0
H320 H 0.39378 0.85714 0.8459 0.0
H321 H 0.39571 0.91323 0.80562 0.0
O322 O 0.38054 0.83889 0.80678 0.0
O323 O 0.38489 0.86576 0.7831 0.0
O324 O 0.35297 0.90032 0.79925 0.0
C325 C 0.39068 0.84567 0.79019 0.0
H326 H 0.31447 0.85026 0.74541 0.0
H327 H 0.42552 0.8866 0.85907 0.0
H328 H 0.33329 0.90134 0.8703 0.0
H329 H 0.336 0.82698 0.86745 0.0
Co330 Co 0.12756 0.37778 0.81653 0.0
C331 C 0.09016 0.41226 0.82385 0.0
C332 C 0.12249 0.42246 0.83661 0.0
C333 C 0.10663 0.43921 0.84107 0.0
N334 N 0.11224 0.40558 0.82573 0.0
N335 N 0.08633 0.43277 0.83304 0.0
H336 H 0.07697 0.40224 0.81638 0.0
H337 H 0.14029 0.42247 0.84125 0.0
C338 C 0.17551 0.39533 0.80466 0.0
O339 O 0.18458 0.37471 0.80273 0.0
N340 N 0.14294 0.35001 0.80759 0.0
C341 C 0.14573 0.33045 0.81838 0.0
C342 C 0.15591 0.31413 0.80614 0.0
C343 C 0.15073 0.3451 0.78876 0.0
N344 N 0.15916 0.32342 0.78758 0.0
C345 C 0.11889 0.36911 0.85804 0.0
C346 C 0.16345 0.37159 0.87229 0.0
C347 C 0.14544 0.3697 0.88634 0.0
C348 C 0.12301 0.36784 0.87886 0.0
C349 C 0.15855 0.37278 0.85142 0.0
N350 N 0.1364 0.37212 0.84462 0.0
H351 H 0.10136 0.36867 0.85271 0.0
H352 H 0.17252 0.37465 0.84091 0.0
H353 H 0.14056 0.32806 0.834 0.0
H354 H 0.15044 0.35724 0.77627 0.0
O355 O 0.09896 0.36073 0.81583 0.0
O356 O 0.11319 0.38076 0.79012 0.0
O357 O 0.15499 0.39801 0.81099 0.0
C358 C 0.09684 0.36777 0.79713 0.0
H359 H 0.10989 0.455 0.84942 0.0
H360 H 0.16094 0.2969 0.81069 0.0
H361 H 0.18106 0.37297 0.8774 0.0
H362 H 0.1086 0.36583 0.88906 0.0
Co363 Co 0.60926 0.14661 0.81979 0.0
C364 C 0.64791 0.17864 0.808 0.0
C365 C 0.63857 0.1539 0.78505 0.0
C366 C 0.65475 0.16836 0.77707 0.0
N367 N 0.63421 0.16017 0.80444 0.0
N368 N 0.66058 0.18386 0.79144 0.0
H369 H 0.64796 0.18875 0.8218 0.0
H370 H 0.62996 0.14006 0.77702 0.0
C371 C 0.6421 0.10785 0.81105 0.0
O372 O 0.65941 0.12126 0.81604 0.0
N373 N 0.58409 0.13284 0.83417 0.0
C374 C 0.57372 0.14076 0.85108 0.0
C375 C 0.55669 0.12544 0.85639 0.0
C376 C 0.5732 0.11313 0.82924 0.0
N377 N 0.55641 0.10813 0.84259 0.0
C378 C 0.62698 0.16973 0.85527 0.0
C379 C 0.63649 0.13002 0.87695 0.0
C380 C 0.63691 0.15125 0.88726 0.0
C381 C 0.63275 0.17136 0.87595 0.0
C382 C 0.63054 0.12913 0.85636 0.0
N383 N 0.62568 0.14879 0.84569 0.0
H384 H 0.62184 0.18523 0.84739 0.0
H385 H 0.62804 0.11233 0.84965 0.0
H386 H 0.57823 0.1565 0.859 0.0
H387 H 0.57771 0.10253 0.81628 0.0
O388 O 0.59297 0.17604 0.81982 0.0
O389 O 0.59039 0.14904 0.79591 0.0
O390 O 0.62153 0.11488 0.81342 0.0
C391 C 0.58414 0.16915 0.80261 0.0
H392 H 0.66145 0.16786 0.76174 0.0
H393 H 0.54525 0.12706 0.86924 0.0
H394 H 0.63967 0.114 0.88493 0.0
H395 H 0.63241 0.18813 0.88327 0.0
Co396 Co 0.85511 0.37742 0.66996 0.0
C397 C 0.89696 0.40218 0.65731 0.0
C398 C 0.87508 0.42303 0.67613 0.0
C399 C 0.8952 0.43475 0.6731 0.0
N400 N 0.87619 0.40265 0.66626 0.0
N401 N 0.90896 0.42156 0.66142 0.0
H402 H 0.9038 0.38733 0.64934 0.0
H403 H 0.86133 0.42836 0.68605 0.0
C404 C 0.81806 0.40314 0.68901 0.0
O405 O 0.81929 0.38733 0.70326 0.0
N406 N 0.8334 0.35239 0.674 0.0
C407 C 0.81532 0.34742 0.66191 0.0
C408 C 0.80224 0.33067 0.67103 0.0
C409 C 0.83075 0.33881 0.69055 0.0
N410 N 0.81186 0.32542 0.68909 0.0
C411 C 0.85664 0.3555 0.63102 0.0
C412 C 0.84132 0.39285 0.6086 0.0
C413 C 0.84686 0.37227 0.59835 0.0
C414 C 0.85463 0.35345 0.6099 0.0
C415 C 0.84353 0.39415 0.62977 0.0
N416 N 0.85086 0.37552 0.6407 0.0
H417 H 0.86275 0.34091 0.63971 0.0
H418 H 0.83964 0.41026 0.63734 0.0
H419 H 0.81112 0.35619 0.64789 0.0
H420 H 0.84174 0.33935 0.70381 0.0
O421 O 0.88077 0.35644 0.67281 0.0
O422 O 0.86498 0.37614 0.69805 0.0
O423 O 0.8297 0.40054 0.67277 0.0
C424 C 0.88128 0.36248 0.69188 0.0
H425 H 0.89981 0.45123 0.67976 0.0
H426 H 0.78609 0.32395 0.66543 0.0
H427 H 0.83522 0.40782 0.60036 0.0
H428 H 0.85954 0.33737 0.60269 0.0
Co429 Co 0.6156 0.87148 0.67064 0.0
C430 C 0.65451 0.84043 0.68279 0.0
C431 C 0.64955 0.86906 0.70305 0.0
C432 C 0.66695 0.85566 0.7106 0.0
N433 N 0.64213 0.85998 0.6853 0.0
N434 N 0.67003 0.83767 0.6979 0.0
H435 H 0.65183 0.828 0.67079 0.0
H436 H 0.64218 0.88399 0.71046 0.0
C437 C 0.64543 0.9134 0.67699 0.0
O438 O 0.66337 0.90176 0.67059 0.0
N439 N 0.5889 0.88304 0.65675 0.0
C440 C 0.57844 0.8736 0.64045 0.0
C441 C 0.56101 0.88809 0.63436 0.0
C442 C 0.57764 0.90284 0.66059 0.0
N443 N 0.56059 0.90643 0.64706 0.0
C444 C 0.63507 0.84977 0.63522 0.0
C445 C 0.63982 0.88987 0.61294 0.0
C446 C 0.64349 0.86865 0.60319 0.0
C447 C 0.64155 0.84842 0.61475 0.0
C448 C 0.63339 0.89046 0.63336 0.0
N449 N 0.63122 0.8706 0.64441 0.0
H450 H 0.63145 0.83393 0.64315 0.0
H451 H 0.6285 0.90691 0.6397 0.0
H452 H 0.58348 0.85758 0.63324 0.0
H453 H 0.58231 0.91474 0.67262 0.0
O454 O 0.60174 0.84093 0.6708 0.0
O455 O 0.59792 0.86752 0.69495 0.0
O456 O 0.62554 0.90418 0.67659 0.0
C457 C 0.59286 0.84709 0.68815 0.0
H458 H 0.6758 0.85824 0.72492 0.0
H459 H 0.54964 0.88541 0.62153 0.0
H460 H 0.64094 0.90596 0.60463 0.0
H461 H 0.64353 0.8316 0.60773 0.0
Co462 Co 0.13134 0.60612 0.67231 0.0
C463 C 0.15684 0.64647 0.68956 0.0
C464 C 0.12484 0.64033 0.70445 0.0
C465 C 0.13628 0.65732 0.71491 0.0
N466 N 0.13739 0.6338 0.68822 0.0
N467 N 0.1565 0.66108 0.70566 0.0
H468 H 0.17173 0.64378 0.68016 0.0
H469 H 0.10906 0.63225 0.70924 0.0
C470 C 0.08563 0.63041 0.67322 0.0
O471 O 0.09572 0.64978 0.66796 0.0
N472 N 0.12541 0.57819 0.65727 0.0
C473 C 0.13824 0.56909 0.64226 0.0
C474 C 0.12817 0.54879 0.63589 0.0
C475 C 0.10794 0.5634 0.66002 0.0
N476 N 0.10916 0.54524 0.64712 0.0
C477 C 0.15454 0.62984 0.63973 0.0
C478 C 0.11798 0.62845 0.61292 0.0
C479 C 0.13938 0.63562 0.60566 0.0
C480 C 0.1577 0.63681 0.61951 0.0
C481 C 0.1156 0.62153 0.6331 0.0
N482 N 0.13366 0.62236 0.64639 0.0
H483 H 0.16934 0.6288 0.6495 0.0
H484 H 0.09952 0.61387 0.63748 0.0
H485 H 0.15383 0.57665 0.63643 0.0
H486 H 0.09453 0.56604 0.67111 0.0
O487 O 0.16297 0.59612 0.67593 0.0
O488 O 0.13417 0.58846 0.6968 0.0
O489 O 0.09725 0.61176 0.67449 0.0
C490 C 0.15573 0.58602 0.69242 0.0
H491 H 0.13047 0.66561 0.72874 0.0
H492 H 0.13456 0.53741 0.62413 0.0
H493 H 0.10331 0.62717 0.60284 0.0
H494 H 0.17471 0.64163 0.6145 0.0
Co495 Co 0.36753 0.14667 0.66444 0.0
C496 C 0.32705 0.17687 0.67493 0.0
C497 C 0.33531 0.15159 0.69761 0.0
C498 C 0.31692 0.16416 0.70431 0.0
N499 N 0.34152 0.15921 0.67907 0.0
N500 N 0.3117 0.18002 0.69007 0.0
H501 H 0.32759 0.18729 0.66138 0.0
H502 H 0.34375 0.13779 0.70578 0.0
C503 C 0.33492 0.10695 0.67 0.0
O504 O 0.31764 0.12018 0.66461 0.0
N505 N 0.39365 0.13388 0.65066 0.0
C506 C 0.4049 0.14278 0.63465 0.0
C507 C 0.42197 0.12758 0.6291 0.0
C508 C 0.40401 0.11369 0.65481 0.0
N509 N 0.42132 0.10926 0.64178 0.0
C510 C 0.35095 0.17098 0.62917 0.0
C511 C 0.34275 0.13203 0.60589 0.0
C512 C 0.34146 0.1537 0.59653 0.0
C513 C 0.34509 0.1734 0.60858 0.0
C514 C 0.34856 0.13038 0.62645 0.0
N515 N 0.35251 0.14968 0.63797 0.0
H516 H 0.35567 0.18623 0.63768 0.0
H517 H 0.35155 0.11338 0.63252 0.0
H518 H 0.40075 0.15896 0.62734 0.0
H519 H 0.39899 0.10258 0.66722 0.0
O520 O 0.38343 0.17624 0.66625 0.0
O521 O 0.38502 0.14826 0.68915 0.0
O522 O 0.35543 0.11454 0.66907 0.0
C523 C 0.39159 0.16864 0.68348 0.0
H524 H 0.30844 0.16221 0.71882 0.0
H525 H 0.43353 0.12966 0.61641 0.0
H526 H 0.34025 0.11632 0.59719 0.0
H527 H 0.34486 0.19047 0.60189 0.0
H528 H 0.91652 0.56962 0.18763 0.0
H529 H 0.94056 0.53596 0.19392 0.0
H530 H -0.00779 0.56353 0.15396 0.0
H531 H 0.9689 0.59786 0.14848 0.0
H532 H 0.95337 0.50466 0.16725 0.0
H533 H 0.03137 0.54332 0.2008 0.0
H534 H 0.00493 0.55926 0.19815 0.0
H535 H 0.02435 0.55664 0.17701 0.0
C536 C 0.93324 0.56891 0.18059 0.0
C537 C 0.94074 0.58663 0.16756 0.0
C538 C 0.94691 0.54951 0.18411 0.0
C539 C 0.96836 0.54735 0.17468 0.0
C540 C 0.97599 0.56505 0.16183 0.0
H541 H 0.03784 0.42561 0.13667 0.0
H542 H 0.01383 0.45962 0.14151 0.0
C543 C 0.96243 0.58455 0.15844 0.0
C544 C 0.98186 0.52578 0.17685 0.0
H545 H 0.03576 0.50527 0.18617 0.0
C546 C 0.9713 0.50478 0.17169 0.0
C547 C 0.00514 0.5258 0.18301 0.0
C548 C 0.01702 0.54745 0.19027 0.0
C549 C 0.98364 0.484 0.17154 0.0
C550 C 0.00735 0.48434 0.17613 0.0
C551 C 0.01766 0.5051 0.18232 0.0
C552 C 0.02194 0.4636 0.17348 0.0
C553 C 0.97116 0.46193 0.16634 0.0
C554 C 0.03511 0.45497 0.18967 0.0
C555 C 0.04905 0.43554 0.18689 0.0
C556 C 0.05003 0.42446 0.16785 0.0
C557 C 0.03704 0.43339 0.15163 0.0
C558 C 0.02328 0.45283 0.15439 0.0
H559 H 0.95261 0.46326 0.16997 0.0
H560 H 0.97268 0.45856 0.14978 0.0
H561 H 0.97847 0.44697 0.17467 0.0
H562 H 0.03446 0.46316 0.20449 0.0
H563 H 0.05879 0.42901 0.19967 0.0
H564 H 0.59128 0.03235 0.12537 0.0
H565 H 0.5579 0.00686 0.12413 0.0
H566 H 0.54386 0.02175 0.18715 0.0
H567 H 0.57738 0.04703 0.18863 0.0
H568 H 0.54443 0.96736 0.14927 0.0
H569 H 0.48574 0.04288 0.15476 0.0
H570 H 0.51569 0.04574 0.1484 0.0
H571 H 0.50728 0.04097 0.1743 0.0
C572 C 0.58139 0.02987 0.13907 0.0
C573 C 0.5868 0.04195 0.15703 0.0
C574 C 0.56229 0.01537 0.13831 0.0
C575 C 0.54834 0.01278 0.15546 0.0
C576 C 0.55429 0.02388 0.17368 0.0
H577 H 0.43344 0.92096 0.17525 0.0
H578 H 0.47065 0.94025 0.17629 0.0
C579 C 0.57336 0.03837 0.17446 0.0
C580 C 0.5268 -0.00041 0.15397 0.0
H581 H 0.46871 0.00588 0.15523 0.0
C582 C 0.52784 0.9757 0.15056 0.0
C583 C 0.50529 0.01071 0.15541 0.0
C584 C 0.50329 0.03651 0.15825 0.0
C585 C 0.50776 0.96249 0.14883 0.0
C586 C 0.48627 0.97356 0.15072 0.0
C587 C 0.48527 -0.00251 0.15389 0.0
C588 C 0.46446 0.96076 0.14936 0.0
C589 C 0.50967 0.93693 0.14471 0.0
C590 C 0.44862 0.96612 0.134 0.0
C591 C 0.42735 0.95516 0.13336 0.0
C592 C 0.4215 0.93872 0.14816 0.0
C593 C 0.43754 0.93325 0.16344 0.0
C594 C 0.45882 0.94423 0.16406 0.0
H595 H 0.52692 0.93215 0.13894 0.0
H596 H 0.50667 0.92733 0.15904 0.0
H597 H 0.49657 0.93129 0.13346 0.0
H598 H 0.45271 0.97891 0.12256 0.0
H599 H 0.41552 0.95953 0.12126 0.0
H600 H 0.91838 0.44578 0.32263 0.0
H601 H 0.94103 0.48107 0.32422 0.0
H602 H -0.00657 0.4454 0.35826 0.0
H603 H 0.9713 0.40963 0.35601 0.0
H604 H 0.95564 0.50565 0.35756 0.0
H605 H 0.02965 0.47465 0.31209 0.0
H606 H 0.00275 0.45932 0.31305 0.0
H607 H 0.02298 0.45689 0.33362 0.0
C608 C 0.93488 0.44524 0.33018 0.0
C609 C 0.94312 0.42471 0.33899 0.0
C610 C 0.9477 0.46554 0.33123 0.0
C611 C 0.96903 0.46577 0.3411 0.0
C612 C 0.97719 0.44547 0.35024 0.0
H613 H 0.04388 0.5898 0.37663 0.0
H614 H 0.02078 0.55454 0.37648 0.0
C615 C 0.96439 0.4251 0.34913 0.0
C616 C 0.98254 0.48738 0.34194 0.0
H617 H 0.03346 0.51134 0.32777 0.0
C618 C 0.97266 0.50693 0.35105 0.0
C619 C 0.00459 0.48903 0.33319 0.0
C620 C 0.01558 0.46894 0.32226 0.0
C621 C 0.98431 0.52811 0.35175 0.0
C622 C 0.0066 0.5296 0.34344 0.0
C623 C 0.01643 0.51007 0.33426 0.0
C624 C 0.01988 0.55138 0.34367 0.0
C625 C 0.97242 0.54881 0.3609 0.0
C626 C 0.02731 0.56109 0.32531 0.0
C627 C 0.04061 0.58111 0.32538 0.0
C628 C 0.04675 0.59181 0.34382 0.0
C629 C 0.0391 0.58217 0.36219 0.0
C630 C 0.0259 0.56204 0.36212 0.0
H631 H 0.95355 0.54635 0.36157 0.0
H632 H 0.97875 0.55146 0.37666 0.0
H633 H 0.97609 0.56469 0.35206 0.0
H634 H 0.02284 0.55312 0.31091 0.0
H635 H 0.04603 0.58827 0.31098 0.0
H636 H 0.58956 0.97652 0.35388 0.0
H637 H 0.55765 -0.00114 0.36809 0.0
H638 H 0.51122 0.94342 0.35247 0.0
H639 H 0.5434 0.92073 0.33957 0.0
H640 H 0.52644 0.0149 0.34613 0.0
H641 H 0.48225 0.96285 0.40372 0.0
H642 H 0.51071 0.95564 0.39502 0.0
H643 H 0.48573 0.94552 0.38137 0.0
C644 C 0.57258 0.96897 0.3542 0.0
C645 C 0.56869 0.94709 0.34574 0.0
C646 C 0.55441 0.98163 0.3623 0.0
C647 C 0.53198 0.97279 0.36156 0.0
C648 C 0.52836 0.95039 0.35389 0.0
H649 H 0.41473 0.04134 0.32109 0.0
H650 H 0.45079 0.02132 0.32775 0.0
C651 C 0.54667 0.9375 0.34632 0.0
C652 C 0.51216 0.98826 0.36522 0.0
H653 H 0.45753 0.9889 0.38363 0.0
C654 C 0.51165 0.00942 0.35483 0.0
C655 C 0.4929 0.9815 0.37683 0.0
C656 C 0.49309 0.96024 0.39003 0.0
C657 C 0.49188 0.02305 0.35441 0.0
C658 C 0.47183 0.0149 0.364 0.0
C659 C 0.47279 0.99477 0.37581 0.0
C660 C 0.44942 0.02605 0.36041 0.0
C661 C 0.49253 0.04575 0.34318 0.0
C662 C 0.43622 0.03435 0.37665 0.0
C663 C 0.41542 0.04557 0.37285 0.0
C664 C 0.40766 0.04863 0.35277 0.0
C665 C 0.4206 0.03965 0.33664 0.0
C666 C 0.44118 0.02827 0.34045 0.0
H667 H 0.5101 0.05316 0.34321 0.0
H668 H 0.48746 0.04287 0.3271 0.0
H669 H 0.48062 0.05855 0.35001 0.0
H670 H 0.44223 0.03259 0.39218 0.0
H671 H 0.40575 0.05243 0.38553 0.0
H672 H 0.88554 0.52483 0.8386 0.0
H673 H 0.91953 0.50026 0.83767 0.0
H674 H 0.96278 0.56054 0.841 0.0
H675 H 0.9288 0.5853 0.84206 0.0
H676 H 0.97536 0.52888 0.81059 0.0
H677 H 0.96308 0.4859 0.88521 0.0
H678 H 0.93873 0.48439 0.86848 0.0
H679 H 0.94799 0.51191 0.87815 0.0
C680 C 0.90225 0.53287 0.83945 0.0
C681 C 0.90447 0.55703 0.84054 0.0
C682 C 0.92165 0.51879 0.83888 0.0
C683 C 0.94359 0.5286 0.83955 0.0
C684 C 0.94593 0.55268 0.84052 0.0
H685 H 0.07335 0.46283 0.86241 0.0
H686 H 0.03825 0.48575 0.8633 0.0
C687 C 0.92653 0.56679 0.84105 0.0
C688 C 0.96415 0.51376 0.83875 0.0
H689 H -0.00747 0.47103 0.86408 0.0
C690 C 0.97917 0.51624 0.82228 0.0
C691 C 0.96906 0.49747 0.85413 0.0
C692 C 0.954 0.49483 0.8726 0.0
C693 C -0.00099 0.50269 0.8207 0.0
C694 C 0.00366 0.48604 0.83586 0.0
C695 C 0.98871 0.48367 0.8524 0.0
C696 C 0.02453 0.47164 0.83532 0.0
C697 C 0.01507 0.50665 0.8031 0.0
C698 C 0.02819 0.45586 0.81944 0.0
C699 C 0.04835 0.44285 0.81879 0.0
C700 C 0.0651 0.44538 0.83407 0.0
C701 C 0.06102 0.4608 0.85021 0.0
C702 C 0.04091 0.47378 0.85083 0.0
H703 H 0.01173 0.52342 0.79547 0.0
H704 H 0.03321 0.50629 0.80827 0.0
H705 H 0.0127 0.49269 0.79171 0.0
H706 H 0.01553 0.45372 0.8075 0.0
H707 H 0.05101 0.43121 0.80611 0.0
H708 H 0.43229 0.9263 0.86711 0.0
H709 H 0.4556 0.96131 0.86964 0.0
H710 H 0.45453 0.96785 0.80431 0.0
H711 H 0.43116 0.93295 0.80169 0.0
H712 H 0.49807 0.97076 0.85375 0.0
H713 H 0.43327 0.03135 0.82267 0.0
H714 H 0.42616 0.00239 0.83051 0.0
H715 H 0.43909 0.00739 0.80611 0.0
C716 C 0.43712 0.93512 0.85329 0.0
C717 C 0.42976 0.92694 0.8342 0.0
C718 C 0.45034 0.95518 0.85476 0.0
C719 C 0.45641 0.96741 0.83719 0.0
C720 C 0.4495 0.95903 0.8181 0.0
H721 H 0.54204 0.0843 0.80947 0.0
H722 H 0.51767 0.04993 0.809 0.0
C723 C 0.43618 0.93906 0.81662 0.0
C724 C 0.47042 0.98866 0.83879 0.0
H725 H 0.47131 0.04586 0.82628 0.0
C726 C 0.49216 0.98722 0.8479 0.0
C727 C 0.4626 0.01013 0.83119 0.0
C728 C 0.43891 0.01303 0.82225 0.0
C729 C 0.50657 0.00657 0.84913 0.0
C730 C 0.49891 0.02788 0.84118 0.0
C731 C 0.4771 0.02941 0.83227 0.0
C732 C 0.51349 0.04872 0.84165 0.0
C733 C 0.53011 0.00401 0.85844 0.0
C734 C 0.51892 0.0595 0.86016 0.0
C735 C 0.53284 0.07914 0.86048 0.0
C736 C 0.54159 0.08826 0.84228 0.0
C737 C 0.53586 0.0775 0.82375 0.0
C738 C 0.52185 0.05797 0.82344 0.0
H739 H 0.53499 0.9856 0.86045 0.0
H740 H 0.5432 0.0126 0.84884 0.0
H741 H 0.53034 0.01248 0.8736 0.0
H742 H 0.5124 0.05271 0.87435 0.0
H743 H 0.53708 0.08693 0.87498 0.0
H744 H 0.93153 0.41244 0.62643 0.0
H745 H 0.97134 0.4234 0.61843 0.0
H746 H 0.97913 0.45147 0.6789 0.0
H747 H 0.9398 0.4406 0.68682 0.0
H748 H 0.98658 0.46999 0.62037 0.0
H749 H 0.03862 0.41458 0.67086 0.0
H750 H 0.00956 0.40743 0.66358 0.0
H751 H 0.01493 0.42745 0.68403 0.0
C752 C 0.942 0.42058 0.63802 0.0
C753 C 0.93265 0.42597 0.65712 0.0
C754 C 0.96462 0.42679 0.63348 0.0
C755 C 0.97822 0.43792 0.64819 0.0
C756 C 0.96908 0.44249 0.66747 0.0
H757 H 0.0815 0.52882 0.67675 0.0
H758 H 0.05233 0.49894 0.67338 0.0
C759 C 0.94653 0.43658 0.67189 0.0
C760 C 0.00095 0.44748 0.64306 0.0
H761 H 0.05519 0.45183 0.66214 0.0
C762 C 0.00185 0.46562 0.62899 0.0
C763 C 0.02074 0.44166 0.65437 0.0
C764 C 0.021 0.42155 0.66891 0.0
C765 C 0.02143 0.47955 0.62733 0.0
C766 C 0.04066 0.47481 0.63982 0.0
C767 C 0.04035 0.4555 0.65269 0.0
C768 C 0.05978 0.49142 0.64182 0.0
C769 C 0.0207 0.50028 0.61347 0.0
C770 C 0.07391 0.49681 0.62528 0.0
C771 C 0.09045 0.51418 0.62709 0.0
C772 C 0.09317 0.52635 0.64551 0.0
C773 C 0.07954 0.5202 0.66224 0.0
C774 C 0.06303 0.50292 0.6604 0.0
H775 H 0.00327 0.5034 0.60719 0.0
H776 H 0.02635 0.51604 0.62174 0.0
H777 H 0.03257 0.49749 0.60055 0.0
H778 H 0.07185 0.4879 0.61089 0.0
H779 H 0.10061 0.51851 0.6139 0.0
H780 H 0.46353 0.10499 0.62478 0.0
H781 H 0.48721 0.07023 0.62337 0.0
H782 H 0.43577 0.03281 0.65679 0.0
H783 H 0.41153 0.067 0.65742 0.0
H784 H 0.50565 0.04557 0.65421 0.0
H785 H 0.44709 0.99001 0.60926 0.0
H786 H 0.44295 0.02078 0.61167 0.0
H787 H 0.43364 0.00164 0.63154 0.0
C788 C 0.45706 0.0893 0.63155 0.0
C789 C 0.43553 0.08887 0.64114 0.0
C790 C 0.4707 0.06948 0.63084 0.0
C791 C 0.46307 0.04885 0.63967 0.0
C792 C 0.44177 0.04841 0.64948 0.0
H793 H 0.54566 0.93301 0.67816 0.0
H794 H 0.52227 0.96796 0.67573 0.0
C795 C 0.42806 0.06814 0.65008 0.0
C796 C 0.47772 0.02798 0.6393 0.0
H797 H 0.47809 0.97093 0.62618 0.0
C798 C 0.49971 0.02929 0.64794 0.0
C799 C 0.47007 0.00686 0.63081 0.0
C800 C 0.44724 0.00475 0.6201 0.0
C801 C 0.51404 0.00986 0.64884 0.0
C802 C 0.50588 0.98845 0.64135 0.0
C803 C 0.48416 0.9873 0.63218 0.0
C804 C 0.51962 0.96703 0.64289 0.0
C805 C 0.53784 0.01255 0.65759 0.0
C806 C 0.52515 0.95445 0.62531 0.0
C807 C 0.53828 0.93434 0.62669 0.0
C808 C 0.54613 0.92649 0.64569 0.0
C809 C 0.54019 0.93889 0.6633 0.0
C810 C 0.5269 0.95888 0.66192 0.0
H811 H 0.54375 0.03078 0.6569 0.0
H812 H 0.53771 0.0073 0.67381 0.0
H813 H 0.55038 0.00154 0.64938 0.0
H814 H 0.51959 0.96039 0.61048 0.0
H815 H 0.54276 0.92526 0.61286 0.0
H816 H 0.16235 0.31155 0.23145 0.0
H817 H 0.18106 0.2823 0.25262 0.0
H818 H 0.23848 0.28094 0.21155 0.0
H819 H 0.21986 0.30953 0.19009 0.0
H820 H 0.19636 0.2368 0.23979 0.0
H821 H 0.26742 0.29122 0.26885 0.0
H822 H 0.24135 0.30322 0.25833 0.0
H823 H 0.26368 0.29302 0.24178 0.0
C824 C 0.17888 0.30496 0.22683 0.0
C825 C 0.18962 0.31308 0.20905 0.0
C826 C 0.1896 0.28836 0.23904 0.0
C827 C 0.21129 0.27984 0.2338 0.0
C828 C 0.22196 0.28774 0.21608 0.0
H829 H 0.29023 0.16085 0.24555 0.0
H830 H 0.26209 0.19088 0.23821 0.0
C831 C 0.21126 0.30416 0.20383 0.0
C832 C 0.22266 0.2619 0.24619 0.0
H833 H 0.27322 0.25012 0.27018 0.0
C834 C 0.21295 0.23977 0.24682 0.0
C835 C 0.2441 0.26595 0.25562 0.0
C836 C 0.25468 0.2897 0.25632 0.0
C837 C 0.22496 0.22114 0.25536 0.0
C838 C 0.24726 0.22483 0.26323 0.0
C839 C 0.2562 0.2473 0.26396 0.0
C840 C 0.26259 0.20541 0.26857 0.0
C841 C 0.21399 0.19757 0.25533 0.0
C842 C 0.27242 0.20379 0.28803 0.0
C843 C 0.28869 0.18667 0.29222 0.0
C844 C 0.29562 0.1712 0.27691 0.0
C845 C 0.28543 0.17268 0.25758 0.0
C846 C 0.26911 0.18964 0.25344 0.0
H847 H 0.19498 0.19885 0.25515 0.0
H848 H 0.21932 0.18807 0.24144 0.0
H849 H 0.21937 0.18737 0.26881 0.0
H850 H 0.26778 0.21601 0.29983 0.0
H851 H 0.29642 0.18605 0.3072 0.0
H852 H 0.81434 0.29279 0.30579 0.0
H853 H 0.79115 0.25925 0.29576 0.0
H854 H 0.79504 0.2806 0.23304 0.0
H855 H 0.81911 0.31281 0.24266 0.0
H856 H 0.75044 0.25934 0.27994 0.0
H857 H 0.80562 0.21381 0.22547 0.0
H858 H 0.81669 0.236 0.24213 0.0
H859 H 0.80385 0.24344 0.21799 0.0
C860 C 0.81073 0.28994 0.28983 0.0
C861 C 0.8184 0.3057 0.27509 0.0
C862 C 0.7974 0.27083 0.28411 0.0
C863 C 0.79163 0.26712 0.26357 0.0
C864 C 0.79974 0.28259 0.24889 0.0
H865 H 0.66649 0.22156 0.21245 0.0
H866 H 0.6991 0.24083 0.22868 0.0
C867 C 0.81317 0.30141 0.25452 0.0
C868 C 0.77516 0.24882 0.25742 0.0
H869 H 0.76422 0.21033 0.21921 0.0
C870 C 0.75366 0.24824 0.26694 0.0
C871 C 0.7794 0.23381 0.24081 0.0
C872 C 0.80277 0.23163 0.23122 0.0
C873 C 0.73582 0.23444 0.25934 0.0
C874 C 0.73929 0.22157 0.24126 0.0
C875 C 0.7613 0.2207 0.23271 0.0
C876 C 0.72007 0.20999 0.23044 0.0
C877 C 0.71337 0.23408 0.27069 0.0
C878 C 0.72154 0.18661 0.22481 0.0
C879 C 0.70313 0.17578 0.21496 0.0
C880 C 0.68296 0.18817 0.21074 0.0
C881 C 0.68182 0.21168 0.21577 0.0
C882 C 0.70032 0.22257 0.22525 0.0
H883 H 0.7161 0.23717 0.28721 0.0
H884 H 0.70218 0.24813 0.26493 0.0
H885 H 0.70433 0.21735 0.26873 0.0
H886 H 0.7367 0.1766 0.22845 0.0
H887 H 0.70428 0.15756 0.21139 0.0
H888 H 0.66206 0.78224 0.27623 0.0
H889 H 0.69002 0.76622 0.25246 0.0
H890 H 0.72357 0.8324 0.24881 0.0
H891 H 0.69597 0.84847 0.273 0.0
H892 H 0.70185 0.78221 0.21134 0.0
H893 H 0.77455 0.78592 0.26656 0.0
H894 H 0.74507 0.78785 0.27467 0.0
H895 H 0.75833 0.81191 0.26225 0.0
C896 C 0.67546 0.79336 0.27051 0.0
C897 C 0.67686 0.81658 0.27664 0.0
C898 C 0.69128 0.78425 0.25677 0.0
C899 C 0.70888 0.79812 0.249 0.0
C900 C 0.71017 0.8214 0.25477 0.0
H901 H 0.82604 0.73015 0.19057 0.0
H902 H 0.80088 0.76314 0.19839 0.0
C903 C 0.69429 0.83057 0.26848 0.0
C904 C 0.72628 0.7877 0.23549 0.0
H905 H 0.78093 0.76682 0.23573 0.0
C906 C 0.71928 0.77918 0.21647 0.0
C907 C 0.74906 0.78409 0.24214 0.0
C908 C 0.75733 0.79277 0.26255 0.0
C909 C 0.73417 0.766 0.20438 0.0
C910 C 0.75639 0.76086 0.21175 0.0
C911 C 0.76389 0.7708 0.2301 0.0
C912 C 0.77054 0.74223 0.20275 0.0
C913 C 0.72569 0.75707 0.18416 0.0
C914 C 0.7617 0.71972 0.20217 0.0
C915 C 0.77596 0.70108 0.19784 0.0
C916 C 0.79936 0.70453 0.19404 0.0
C917 C 0.80799 0.72715 0.19328 0.0
C918 C 0.79368 0.74591 0.1978 0.0
H919 H 0.71303 0.76914 0.17733 0.0
H920 H 0.74001 0.75449 0.17329 0.0
H921 H 0.71694 0.74027 0.18646 0.0
H922 H 0.74408 0.71635 0.20639 0.0
H923 H 0.76897 0.68378 0.19843 0.0
H924 H 0.1945 0.70851 0.31783 0.0
H925 H 0.22124 0.73986 0.30881 0.0
H926 H 0.19394 0.74014 0.24775 0.0
H927 H 0.16747 0.70933 0.25672 0.0
H928 H 0.2546 0.73563 0.27815 0.0
H929 H 0.19714 0.8088 0.2611 0.0
H930 H 0.18824 0.78455 0.27643 0.0
H931 H 0.18715 0.78285 0.24907 0.0
C932 C 0.19396 0.71576 0.30268 0.0
C933 C 0.17911 0.7065 0.28791 0.0
C934 C 0.20921 0.73354 0.29752 0.0
C935 C 0.20934 0.74254 0.27769 0.0
C936 C 0.19384 0.73384 0.26325 0.0
H937 H 0.28125 0.79338 0.18167 0.0
H938 H 0.25709 0.77722 0.20827 0.0
C939 C 0.17889 0.71605 0.26831 0.0
C940 C 0.22711 0.75909 0.27094 0.0
H941 H 0.2329 0.80738 0.24177 0.0
C942 C 0.25006 0.75176 0.27081 0.0
C943 C 0.22115 0.78015 0.26143 0.0
C944 C 0.19709 0.78965 0.2622 0.0
C945 C 0.26674 0.76381 0.25972 0.0
C946 C 0.26023 0.78363 0.24864 0.0
C947 C 0.23776 0.79204 0.25018 0.0
C948 C 0.27537 0.79366 0.23301 0.0
C949 C 0.2908 0.75437 0.25853 0.0
C950 C 0.29367 0.80824 0.2382 0.0
C951 C 0.30764 0.8175 0.22296 0.0
C952 C 0.30354 0.81218 0.20235 0.0
C953 C 0.28517 0.7975 0.19736 0.0
C954 C 0.27121 0.78841 0.21253 0.0
H955 H 0.2932 0.73887 0.26824 0.0
H956 H 0.29483 0.7497 0.24254 0.0
H957 H 0.30321 0.76783 0.26338 0.0
H958 H 0.29708 0.81247 0.25398 0.0
H959 H 0.32173 0.82865 0.22728 0.0
H960 H 0.6618 0.79238 0.69006 0.0
H961 H 0.68561 0.7596 0.70107 0.0
H962 H 0.73579 0.80704 0.72523 0.0
H963 H 0.71226 0.83964 0.71418 0.0
H964 H 0.75401 0.76632 0.70359 0.0
H965 H 0.69007 0.7467 0.76405 0.0
H966 H 0.6802 0.74852 0.73813 0.0
H967 H 0.69024 0.77401 0.75088 0.0
C968 C 0.67817 0.79573 0.69729 0.0
C969 C 0.68515 0.81849 0.70148 0.0
C970 C 0.69164 0.77705 0.70366 0.0
C971 C 0.71229 0.78098 0.71413 0.0
C972 C 0.71988 0.80368 0.71721 0.0
H973 H 0.79638 0.72747 0.80514 0.0
H974 H 0.76977 0.74694 0.78208 0.0
C975 C 0.7064 0.82226 0.71101 0.0
C976 C 0.72526 0.76187 0.72362 0.0
H977 H 0.72544 0.72763 0.7658 0.0
C978 C 0.74764 0.7574 0.71691 0.0
C979 C 0.71687 0.75054 0.74111 0.0
C980 C 0.69308 0.75514 0.74914 0.0
C981 C 0.76223 0.74258 0.72778 0.0
C982 C 0.75415 0.73207 0.74575 0.0
C983 C 0.73146 0.73571 0.75194 0.0
C984 C 0.76978 0.71959 0.75962 0.0
C985 C 0.7866 0.73929 0.72073 0.0
C986 C 0.77837 0.69769 0.75464 0.0
C987 C 0.79362 0.6865 0.76782 0.0
C988 C 0.80055 0.69715 0.7861 0.0
C989 C 0.79163 0.71898 0.79106 0.0
C990 C 0.77632 0.73005 0.77798 0.0
H991 H 0.79071 0.75011 0.70729 0.0
H992 H 0.79872 0.74366 0.73322 0.0
H993 H 0.78939 0.7209 0.71664 0.0
H994 H 0.77338 0.68934 0.74055 0.0
H995 H 0.80034 0.66977 0.76352 0.0
H996 H 0.16487 0.67444 0.74458 0.0
H997 H 0.1943 0.70123 0.75641 0.0
H998 H 0.21968 0.7077 0.69517 0.0
H999 H 0.18972 0.68132 0.68304 0.0
H1000 H 0.24249 0.69921 0.75371 0.0
H1001 H 0.20665 0.77474 0.71244 0.0
H1002 H 0.19072 0.74835 0.71596 0.0
H1003 H 0.21251 0.75 0.69676 0.0
C1004 C 0.17652 0.6817 0.73354 0.0
C1005 C 0.17468 0.67599 0.71276 0.0
C1006 C 0.19349 0.69686 0.74039 0.0
C1007 C 0.20895 0.7067 0.72665 0.0
C1008 C 0.20766 0.70056 0.70599 0.0
H1009 H 0.31418 0.81043 0.73593 0.0
H1010 H 0.28899 0.77882 0.72581 0.0
C1011 C 0.19066 0.68534 0.6991 0.0
C1012 C 0.22602 0.7238 0.73395 0.0
H1013 H 0.24197 0.78023 0.72943 0.0
C1014 C 0.24241 0.71694 0.74844 0.0
C1015 C 0.22572 0.74695 0.72716 0.0
C1016 C 0.20785 0.75559 0.71237 0.0
C1017 C 0.25886 0.73254 0.75597 0.0
C1018 C 0.25864 0.75563 0.74904 0.0
C1019 C 0.24215 0.76248 0.73467 0.0
C1020 C 0.2756 0.77305 0.75601 0.0
C1021 C 0.27665 0.72406 0.77089 0.0
C1022 C 0.27676 0.78008 0.77648 0.0
C1023 C 0.29126 0.79825 0.78233 0.0
C1024 C 0.30451 0.80982 0.76775 0.0
C1025 C 0.30385 0.80215 0.74745 0.0
C1026 C 0.28954 0.78401 0.74165 0.0
H1027 H 0.27787 0.70491 0.77093 0.0
H1028 H 0.29378 0.73134 0.76733 0.0
H1029 H 0.27188 0.72979 0.78643 0.0
H1030 H 0.26586 0.77211 0.78776 0.0
H1031 H 0.29135 0.80393 0.79803 0.0
H1032 H 0.31238 0.22382 0.67529 0.0
H1033 H 0.28413 0.25432 0.6823 0.0
H1034 H 0.24327 0.20571 0.71607 0.0
H1035 H 0.27096 0.17528 0.70872 0.0
H1036 H 0.21713 0.23617 0.69154 0.0
H1037 H 0.28113 0.28231 0.73998 0.0
H1038 H 0.28863 0.27687 0.7139 0.0
H1039 H 0.28579 0.25314 0.73122 0.0
C1040 C 0.29712 0.2196 0.68383 0.0
C1041 C 0.29402 0.19728 0.69175 0.0
C1042 C 0.28111 0.23705 0.68796 0.0
C1043 C 0.26182 0.23233 0.7 0.0
C1044 C 0.25809 0.20975 0.70684 0.0
H1045 H 0.15996 0.27806 0.77801 0.0
H1046 H 0.18354 0.25943 0.75213 0.0
C1047 C 0.27402 0.19242 0.70278 0.0
C1048 C 0.24625 0.25089 0.70706 0.0
H1049 H 0.24306 0.29461 0.74185 0.0
C1050 C 0.22284 0.24928 0.70222 0.0
C1051 C 0.25376 0.26803 0.72093 0.0
C1052 C 0.27865 0.27026 0.72698 0.0
C1053 C 0.2066 0.26353 0.71173 0.0
C1054 C 0.21395 0.27952 0.72665 0.0
C1055 C 0.23749 0.28227 0.73042 0.0
C1056 C 0.19759 0.29132 0.74041 0.0
C1057 C 0.18164 0.26082 0.70618 0.0
C1058 C 0.19774 0.31544 0.74253 0.0
C1059 C 0.18435 0.32614 0.75747 0.0
C1060 C 0.17087 0.31282 0.77072 0.0
C1061 C 0.1703 0.28874 0.76815 0.0
C1062 C 0.18355 0.2781 0.75318 0.0
H1063 H 0.17961 0.25432 0.69036 0.0
H1064 H 0.17365 0.24805 0.71652 0.0
H1065 H 0.17226 0.27743 0.70768 0.0
H1066 H 0.20868 0.32593 0.73299 0.0
H1067 H 0.18535 0.3447 0.75925 0.0
H1068 H 0.81171 0.33329 0.72974 0.0
H1069 H 0.79063 0.31121 0.7555 0.0
H1070 H 0.76776 0.2637 0.70911 0.0
H1071 H 0.78868 0.28572 0.68339 0.0
H1072 H 0.74096 0.30325 0.75252 0.0
H1073 H 0.791 0.22198 0.75708 0.0
H1074 H 0.80313 0.24881 0.74809 0.0
H1075 H 0.78542 0.23159 0.73156 0.0
C1076 C 0.80261 0.31784 0.72516 0.0
C1077 C 0.80183 0.31115 0.70459 0.0
C1078 C 0.79051 0.30533 0.73985 0.0
C1079 C 0.77786 0.28572 0.73422 0.0
C1080 C 0.7777 0.27861 0.7138 0.0
H1081 H 0.6601 0.21334 0.76018 0.0
H1082 H 0.68978 0.2414 0.75149 0.0
C1083 C 0.7895 0.29124 0.69912 0.0
C1084 C 0.76307 0.2737 0.74908 0.0
H1085 H 0.75185 0.22021 0.76829 0.0
C1086 C 0.74359 0.28524 0.75639 0.0
C1087 C 0.76666 0.25031 0.75427 0.0
C1088 C 0.7878 0.23745 0.74751 0.0
C1089 C 0.72672 0.27346 0.76748 0.0
C1090 C 0.72945 0.2496 0.77128 0.0
C1091 C 0.74976 0.23851 0.76531 0.0
C1092 C 0.71017 0.23518 0.77848 0.0
C1093 C 0.70563 0.28636 0.77429 0.0
C1094 C 0.71166 0.22256 0.79667 0.0
C1095 C 0.69446 0.20666 0.80176 0.0
C1096 C 0.67598 0.20286 0.78845 0.0
C1097 C 0.67421 0.21607 0.77065 0.0
C1098 C 0.69108 0.23213 0.76575 0.0
H1099 H 0.70899 0.30519 0.77568 0.0
H1100 H 0.69181 0.2839 0.76285 0.0
H1101 H 0.69939 0.27977 0.78912 0.0
H1102 H 0.7264 0.22453 0.80658 0.0
H1103 H 0.69622 0.19641 0.81543 0.0
H1104 H 0.17705 0.35146 0.08254 0.0
H1105 H 0.18285 0.35161 0.04566 0.0
H1106 H 0.12268 0.39405 0.03821 0.0
H1107 H 0.1165 0.39369 0.07491 0.0
H1108 H 0.15193 0.33578 0.01541 0.0
H1109 H 0.1719 0.42863 0.00551 0.0
H1110 H 0.17318 0.41447 0.02994 0.0
H1111 H 0.14606 0.42347 0.01956 0.0
C1112 C 0.16502 0.3608 0.07306 0.0
C1113 C 0.14635 0.37265 0.08176 0.0
C1114 C 0.16844 0.36096 0.052 0.0
C1115 C 0.15341 0.37313 0.03924 0.0
C1116 C 0.13481 0.38499 0.04783 0.0
H1117 H 0.12064 0.39318 0.91473 0.0
H1118 H 0.12552 0.39315 0.95155 0.0
C1119 C 0.13133 0.3848 0.06885 0.0
C1120 C 0.15642 0.37263 0.01684 0.0
H1121 H 0.16219 0.40754 0.9754 0.0
C1122 C 0.15452 0.35139 0.00663 0.0
C1123 C 0.15985 0.39303 0.00548 0.0
C1124 C 0.1631 0.41618 0.01567 0.0
C1125 C 0.15475 0.35017 0.98527 0.0
C1126 C 0.15739 0.3707 0.97388 0.0
C1127 C 0.16013 0.39182 0.98415 0.0
C1128 C 0.15537 0.37096 0.95137 0.0
C1129 C 0.15102 0.32709 0.97509 0.0
C1130 C 0.17078 0.35878 0.93893 0.0
C1131 C 0.16791 0.35859 0.91775 0.0
C1132 C 0.14956 0.37058 0.90868 0.0
C1133 C 0.13464 0.38331 0.92122 0.0
C1134 C 0.13751 0.38348 0.94228 0.0
H1135 H 0.14475 0.31383 0.98591 0.0
H1136 H 0.13848 0.32863 0.96242 0.0
H1137 H 0.16749 0.32091 0.96863 0.0
H1138 H 0.18494 0.34934 0.94561 0.0
H1139 H 0.17971 0.34865 0.90853 0.0
H1140 H 0.6188 0.12145 0.9152 0.0
H1141 H 0.62202 0.1228 0.95214 0.0
H1142 H 0.66327 0.18434 0.94806 0.0
H1143 H 0.66032 0.18303 0.91082 0.0
H1144 H 0.66111 0.12129 0.97665 0.0
H1145 H 0.613 0.20318 0.98839 0.0
H1146 H 0.61236 0.18759 0.96459 0.0
H1147 H 0.63692 0.20472 0.97128 0.0
C1148 C 0.62885 0.13515 0.92205 0.0
C1149 C 0.63945 0.15205 0.9099 0.0
C1150 C 0.63053 0.13597 0.94325 0.0
C1151 C 0.64267 0.15379 0.95295 0.0
C1152 C 0.65344 0.17065 0.94096 0.0
H1153 H 0.6583 0.17704 0.085 0.0
H1154 H 0.66213 0.18039 0.04793 0.0
C1155 C 0.65177 0.16985 0.91966 0.0
C1156 C 0.64411 0.15427 0.97558 0.0
H1157 H 0.62759 0.18482 0.01768 0.0
C1158 C 0.65388 0.13525 0.98561 0.0
C1159 C 0.63479 0.17254 0.98731 0.0
C1160 C 0.6235 0.19312 0.97743 0.0
C1161 C 0.6543 0.13382 0.00694 0.0
C1162 C 0.64431 0.15171 0.01867 0.0
C1163 C 0.63519 0.17109 0.0087 0.0
C1164 C 0.64204 0.14991 0.04117 0.0
C1165 C 0.66546 0.11312 0.01675 0.0
C1166 C 0.62922 0.1319 0.04971 0.0
C1167 C 0.62705 0.12991 0.07081 0.0
C1168 C 0.63752 0.14601 0.08397 0.0
C1169 C 0.65019 0.16422 0.07536 0.0
C1170 C 0.6523 0.16623 0.05417 0.0
H1171 H 0.678 0.10476 0.00639 0.0
H1172 H 0.67439 0.11801 0.03106 0.0
H1173 H 0.65208 0.10019 0.02046 0.0
H1174 H 0.62083 0.11931 0.04002 0.0
H1175 H 0.61744 0.11546 0.0768 0.0
H1176 H 0.8322 0.67833 0.91824 0.0
H1177 H 0.82836 0.67877 0.95533 0.0
H1178 H 0.80055 0.60984 0.9536 0.0
H1179 H 0.8045 0.60918 0.91646 0.0
H1180 H 0.78795 0.66913 0.98226 0.0
H1181 H 0.86049 0.60714 0.9899 0.0
H1182 H 0.85558 0.62352 0.96696 0.0
H1183 H 0.8376 0.59932 0.97283 0.0
C1184 C 0.82504 0.66335 0.92574 0.0
C1185 C 0.81881 0.64365 0.91444 0.0
C1186 C 0.82277 0.66367 0.94691 0.0
C1187 C 0.81442 0.64425 0.95719 0.0
C1188 C 0.8072 0.62494 0.94593 0.0
H1189 H 0.82426 0.61281 0.08673 0.0
H1190 H 0.81514 0.61093 0.05048 0.0
C1191 C 0.8093 0.62466 0.92471 0.0
C1192 C 0.81475 0.64376 0.97975 0.0
H1193 H 0.84359 0.62051 0.02005 0.0
C1194 C 0.79998 0.65841 0.99058 0.0
C1195 C 0.83046 0.62972 0.99051 0.0
C1196 C 0.84709 0.6141 0.97956 0.0
C1197 C 0.80052 0.65941 0.01195 0.0
C1198 C 0.81671 0.64584 0.02273 0.0
C1199 C 0.83117 0.63089 0.01184 0.0
C1200 C 0.81973 0.6475 0.04518 0.0
C1201 C 0.78359 0.67481 0.02275 0.0
C1202 C 0.82515 0.66872 0.05441 0.0
C1203 C 0.83006 0.66992 0.07522 0.0
C1204 C 0.83003 0.64985 0.08728 0.0
C1205 C 0.82414 0.62869 0.07806 0.0
C1206 C 0.81909 0.62754 0.05725 0.0
H1207 H 0.76801 0.67774 0.01334 0.0
H1208 H 0.77832 0.66734 0.03756 0.0
H1209 H 0.79164 0.69187 0.02564 0.0
H1210 H 0.82627 0.6843 0.0454 0.0
H1211 H 0.83423 0.68656 0.08179 0.0
H1212 H 0.35465 0.89082 0.90052 0.0
H1213 H 0.35057 0.88949 0.93735 0.0
H1214 H 0.30197 0.83375 0.93151 0.0
H1215 H 0.30613 0.83488 0.89434 0.0
H1216 H 0.31306 0.89645 0.96102 0.0
H1217 H 0.34687 0.80766 0.97276 0.0
H1218 H 0.34979 0.82272 0.94892 0.0
H1219 H 0.32289 0.80974 0.95566 0.0
C1220 C 0.34289 0.8784 0.90699 0.0
C1221 C 0.33056 0.86307 0.89441 0.0
C1222 C 0.34068 0.87758 0.92811 0.0
C1223 C 0.32615 0.86138 0.9373 0.0
C1224 C 0.31365 0.8461 0.92484 0.0
H1225 H 0.30503 0.84282 0.06928 0.0
H1226 H 0.29954 0.84087 0.03222 0.0
C1227 C 0.31597 0.84682 0.90359 0.0
C1228 C 0.32415 0.86098 0.95989 0.0
H1229 H 0.33479 0.82796 0.00197 0.0
C1230 C 0.31768 0.8814 0.96994 0.0
C1231 C 0.33011 0.84134 0.97159 0.0
C1232 C 0.338 0.81916 0.96175 0.0
C1233 C 0.31746 0.88288 0.99127 0.0
C1234 C 0.32405 0.86349 0.00293 0.0
C1235 C 0.32972 0.8428 0.99297 0.0
C1236 C 0.32679 0.86493 0.02538 0.0
C1237 C 0.31042 0.90529 0.00121 0.0
C1238 C 0.34397 0.87899 0.03378 0.0
C1239 C 0.34718 0.88007 0.05483 0.0
C1240 C 0.33326 0.86711 0.068 0.0
C1241 C 0.31589 0.85316 0.05956 0.0
C1242 C 0.31282 0.85194 0.03841 0.0
H1243 H 0.30041 0.91637 0.99065 0.0
H1244 H 0.30002 0.90204 0.01503 0.0
H1245 H 0.32601 0.91494 0.00587 0.0
H1246 H 0.35509 0.88898 0.024 0.0
H1247 H 0.36056 0.89115 0.06083 0.0
H1248 H 0.17102 0.67924 0.41146 0.0
H1249 H 0.17507 0.67956 0.44866 0.0
H1250 H 0.12968 0.62106 0.45272 0.0
H1251 H 0.12517 0.62085 0.41592 0.0
H1252 H 0.13964 0.68378 0.47869 0.0
H1253 H 0.18624 0.60083 0.48589 0.0
H1254 H 0.18411 0.61631 0.46214 0.0
H1255 H 0.16069 0.59867 0.47072 0.0
C1256 C 0.16191 0.66645 0.42028 0.0
C1257 C 0.14804 0.6498 0.41057 0.0
C1258 C 0.1643 0.66662 0.44152 0.0
C1259 C 0.15302 0.65006 0.45343 0.0
C1260 C 0.13902 0.63363 0.44382 0.0
H1261 H 0.12185 0.61048 0.57406 0.0
H1262 H 0.1273 0.61638 0.53774 0.0
C1263 C 0.13655 0.63348 0.42269 0.0
C1264 C 0.15505 0.65015 0.47597 0.0
H1265 H 0.16854 0.61538 0.51614 0.0
C1266 C 0.14632 0.66903 0.48693 0.0
C1267 C 0.16383 0.6309 0.48667 0.0
C1268 C 0.17446 0.61061 0.47577 0.0
C1269 C 0.14491 0.66858 0.5083 0.0
C1270 C 0.15277 0.64886 0.51894 0.0
C1271 C 0.16241 0.63044 0.50798 0.0
C1272 C 0.14946 0.64606 0.54122 0.0
C1273 C 0.13396 0.68865 0.51925 0.0
C1274 C 0.16022 0.66075 0.55537 0.0
C1275 C 0.15697 0.65753 0.57631 0.0
C1276 C 0.14287 0.63958 0.58347 0.0
C1277 C 0.13236 0.62483 0.56917 0.0
C1278 C 0.13563 0.62803 0.54835 0.0
H1279 H 0.12504 0.70055 0.50862 0.0
H1280 H 0.12144 0.68242 0.53068 0.0
H1281 H 0.1474 0.69859 0.52742 0.0
H1282 H 0.17129 0.67455 0.55023 0.0
H1283 H 0.16534 0.66917 0.58689 0.0
H1284 H 0.30611 0.16798 0.39937 0.0
H1285 H 0.30372 0.17464 0.43627 0.0
H1286 H 0.36582 0.13542 0.44495 0.0
H1287 H 0.36834 0.1288 0.40847 0.0
H1288 H 0.3004 0.14378 0.46798 0.0
H1289 H 0.38057 0.19386 0.47603 0.0
H1290 H 0.36741 0.18832 0.45162 0.0
H1291 H 0.38539 0.16684 0.46339 0.0
C1292 C 0.31928 0.16088 0.40917 0.0
C1293 C 0.33766 0.14824 0.40088 0.0
C1294 C 0.31793 0.16473 0.43024 0.0
C1295 C 0.33491 0.15603 0.44337 0.0
C1296 C 0.35292 0.14299 0.43513 0.0
H1297 H 0.36233 0.12762 0.56733 0.0
H1298 H 0.35845 0.13056 0.53043 0.0
C1299 C 0.35434 0.13923 0.41419 0.0
C1300 C 0.33366 0.15968 0.46578 0.0
H1301 H 0.36587 0.17669 0.50669 0.0
C1302 C 0.3145 0.15139 0.47642 0.0
C1303 C 0.35202 0.16974 0.47684 0.0
C1304 C 0.37239 0.18042 0.46635 0.0
C1305 C 0.31383 0.15172 0.49783 0.0
C1306 C 0.33275 0.16059 0.50882 0.0
C1307 C 0.35145 0.16975 0.4982 0.0
C1308 C 0.33428 0.15884 0.53129 0.0
C1309 C 0.29343 0.14167 0.50868 0.0
C1310 C 0.322 0.17388 0.54403 0.0
C1311 C 0.3242 0.17228 0.56525 0.0
C1312 C 0.33856 0.15546 0.57404 0.0
C1313 C 0.35077 0.14047 0.56113 0.0
C1314 C 0.34871 0.14221 0.54001 0.0
H1315 H 0.28054 0.13441 0.49795 0.0
H1316 H 0.29913 0.12781 0.51919 0.0
H1317 H 0.28508 0.15529 0.51798 0.0
H1318 H 0.31089 0.18694 0.53755 0.0
H1319 H 0.31456 0.18405 0.57477 0.0
H1320 H 0.82087 0.3861 0.40323 0.0
H1321 H 0.81895 0.38709 0.4404 0.0
H1322 H 0.86523 0.32915 0.4436 0.0
H1323 H 0.8679 0.32851 0.40651 0.0
H1324 H 0.80626 0.35471 0.46973 0.0
H1325 H 0.89803 0.37865 0.47738 0.0
H1326 H 0.88299 0.37959 0.45338 0.0
H1327 H 0.89308 0.35251 0.46329 0.0
C1328 C 0.83062 0.37352 0.41183 0.0
C1329 C 0.84471 0.35736 0.40182 0.0
C1330 C 0.8294 0.37404 0.43308 0.0
C1331 C 0.8423 0.3585 0.4448 0.0
C1332 C 0.85547 0.34161 0.43488 0.0
H1333 H 0.83158 0.33554 0.57556 0.0
H1334 H 0.8299 0.33221 0.5385 0.0
C1335 C 0.85673 0.34107 0.41362 0.0
C1336 C 0.8426 0.36052 0.46736 0.0
H1337 H 0.87804 0.37078 0.50787 0.0
C1338 C 0.82194 0.35821 0.47809 0.0
C1339 C 0.86301 0.36549 0.47823 0.0
C1340 C 0.88552 0.36943 0.46751 0.0
C1341 C 0.82122 0.36038 0.49939 0.0
C1342 C 0.84176 0.36468 0.51029 0.0
C1343 C 0.86234 0.36729 0.49953 0.0
C1344 C 0.84231 0.36681 0.53285 0.0
C1345 C 0.7984 0.35853 0.51 0.0
C1346 C 0.8503 0.38718 0.54206 0.0
C1347 C 0.85155 0.38906 0.56326 0.0
C1348 C 0.84496 0.37051 0.57575 0.0
C1349 C 0.83697 0.35011 0.56645 0.0
C1350 C 0.83573 0.34826 0.54524 0.0
H1351 H 0.78386 0.36136 0.49933 0.0
H1352 H 0.79662 0.34097 0.51652 0.0
H1353 H 0.79712 0.37125 0.52262 0.0
H1354 H 0.85565 0.40166 0.53281 0.0
H1355 H 0.85812 0.40489 0.56985 0.0
H1356 H 0.61701 0.89012 0.41452 0.0
H1357 H 0.62283 0.88899 0.45129 0.0
H1358 H 0.67988 0.84251 0.44338 0.0
H1359 H 0.674 0.84337 0.40632 0.0
H1360 H 0.64555 0.8293 0.47412 0.0
H1361 H 0.67664 0.91918 0.48367 0.0
H1362 H 0.65095 0.91657 0.4687 0.0
H1363 H 0.67725 0.90423 0.45952 0.0
C1364 C 0.63077 0.87958 0.42056 0.0
C1365 C 0.645 0.86677 0.40748 0.0
C1366 C 0.6342 0.87912 0.44158 0.0
C1367 C 0.65192 0.86587 0.45005 0.0
C1368 C 0.66618 0.85297 0.43712 0.0
H1369 H 0.67313 0.84096 0.58156 0.0
H1370 H 0.67791 0.8391 0.5445 0.0
C1371 C 0.66288 0.85357 0.41597 0.0
C1372 C 0.65489 0.86517 0.47247 0.0
H1373 H 0.66422 0.8999 0.5137 0.0
C1374 C 0.64999 0.8446 0.48282 0.0
C1375 C 0.66065 0.88518 0.48373 0.0
C1376 C 0.66688 0.90752 0.47337 0.0
C1377 C 0.64951 0.84383 0.50421 0.0
C1378 C 0.65453 0.86408 0.5155 0.0
C1379 C 0.6603 0.8844 0.50507 0.0
C1380 C 0.65226 0.86513 0.53802 0.0
C1381 C 0.64246 0.82168 0.51449 0.0
C1382 C 0.6367 0.88073 0.54675 0.0
C1383 C 0.63409 0.88194 0.56783 0.0
C1384 C 0.64704 0.86762 0.58076 0.0
C1385 C 0.66276 0.85208 0.57202 0.0
C1386 C 0.66545 0.85095 0.55085 0.0
H1387 H 0.63433 0.80937 0.50367 0.0
H1388 H 0.65786 0.81321 0.52104 0.0
H1389 H 0.63028 0.82518 0.52707 0.0
H1390 H 0.62629 0.8918 0.53719 0.0
H1391 H 0.62151 0.89381 0.57397 0.0
H1392 H 0.18156 0.57774 0.31092 0.0
H1393 H 0.1853 0.54326 0.28934 0.0
H1394 H 0.11869 0.55698 0.26324 0.0
H1395 H 0.11438 0.59032 0.28533 0.0
H1396 H 0.12178 0.51399 0.27043 0.0
H1397 H 0.2014 0.53984 0.23072 0.0
H1398 H 0.20503 0.53771 0.25774 0.0
H1399 H 0.18607 0.55922 0.24732 0.0
C1400 C 0.16771 0.57324 0.30064 0.0
C1401 C 0.14767 0.58671 0.29989 0.0
C1402 C 0.16996 0.5537 0.28814 0.0
C1403 C 0.15248 0.54773 0.27429 0.0
C1404 C 0.13245 0.56114 0.27374 0.0
H1405 H 0.15985 0.45653 0.16884 0.0
H1406 H 0.16167 0.48949 0.19245 0.0
C1407 C 0.12999 0.58024 0.28646 0.0
C1408 C 0.15441 0.52728 0.26061 0.0
H1409 H 0.18747 0.50206 0.22387 0.0
C1410 C 0.13616 0.51147 0.26024 0.0
C1411 C 0.17296 0.52409 0.24702 0.0
C1412 C 0.19236 0.54123 0.24552 0.0
C1413 C 0.13576 0.49281 0.24662 0.0
C1414 C 0.15474 0.48904 0.23363 0.0
C1415 C 0.17306 0.50478 0.23399 0.0
C1416 C 0.15562 0.46902 0.21945 0.0
C1417 C 0.11453 0.47789 0.24584 0.0
C1418 C 0.15243 0.44653 0.22681 0.0
C1419 C 0.15083 0.42793 0.21337 0.0
C1420 C 0.15319 0.43129 0.19233 0.0
C1421 C 0.15793 0.45353 0.185 0.0
C1422 C 0.15897 0.47231 0.19847 0.0
H1423 H 0.09924 0.48732 0.25156 0.0
H1424 H 0.11084 0.47188 0.23012 0.0
H1425 H 0.11707 0.46257 0.2557 0.0
H1426 H 0.15067 0.44339 0.24295 0.0
H1427 H 0.1476 0.41087 0.21945 0.0
H1428 H 0.56212 0.10984 0.19312 0.0
H1429 H 0.52732 0.11192 0.21336 0.0
H1430 H 0.52319 0.18524 0.20265 0.0
H1431 H 0.55852 0.1834 0.18252 0.0
H1432 H 0.51872 0.17403 0.24329 0.0
H1433 H 0.46083 0.1192 0.19712 0.0
H1434 H 0.48744 0.10504 0.20274 0.0
H1435 H 0.48733 0.13063 0.18724 0.0
C1436 C 0.55369 0.12641 0.19474 0.0
C1437 C 0.56318 0.14647 0.18613 0.0
C1438 C 0.53365 0.12753 0.20628 0.0
C1439 C 0.52243 0.14868 0.20936 0.0
C1440 C 0.53149 0.1687 0.20039 0.0
H1441 H 0.40385 0.17994 0.28693 0.0
H1442 H 0.43705 0.18371 0.26448 0.0
C1443 C 0.55161 0.16759 0.18878 0.0
C1444 C 0.50218 0.1499 0.22306 0.0
H1445 H 0.44976 0.1256 0.23177 0.0
C1446 C 0.50349 0.1637 0.24064 0.0
C1447 C 0.48232 0.13638 0.21963 0.0
C1448 C 0.47926 0.12216 0.20055 0.0
C1449 C 0.4859 0.16363 0.25525 0.0
C1450 C 0.46639 0.14956 0.25209 0.0
C1451 C 0.46483 0.13622 0.23428 0.0
C1452 C 0.44752 0.14799 0.26718 0.0
C1453 C 0.48869 0.17793 0.2743 0.0
C1454 C 0.44243 0.12672 0.27629 0.0
C1455 C 0.42349 0.1245 0.28914 0.0
C1456 C 0.40906 0.14349 0.29303 0.0
C1457 C 0.41464 0.16499 0.28439 0.0
C1458 C 0.43366 0.1672 0.27156 0.0
H1459 H 0.50665 0.18386 0.27645 0.0
H1460 H 0.47752 0.1934 0.27327 0.0
H1461 H 0.48343 0.16794 0.28791 0.0
H1462 H 0.45289 0.11167 0.27313 0.0
H1463 H 0.41975 0.10766 0.29546 0.0
H1464 H 0.80798 0.41535 0.28383 0.0
H1465 H 0.80492 0.44698 0.25928 0.0
H1466 H 0.87041 0.47326 0.27933 0.0
H1467 H 0.87394 0.44124 0.30329 0.0
H1468 H 0.80458 0.49309 0.25998 0.0
H1469 H 0.88236 0.46341 0.21983 0.0
H1470 H 0.86888 0.44658 0.23949 0.0
H1471 H 0.88833 0.46962 0.24603 0.0
C1472 C 0.82149 0.42815 0.28327 0.0
C1473 C 0.8413 0.42575 0.29532 0.0
C1474 C 0.81979 0.44613 0.26915 0.0
C1475 C 0.83779 0.46204 0.26699 0.0
C1476 C 0.85669 0.46071 0.28021 0.0
H1477 H 0.84223 0.59443 0.2122 0.0
H1478 H 0.83463 0.56061 0.23272 0.0
C1479 C 0.85858 0.44257 0.29406 0.0
C1480 C 0.83727 0.47955 0.25052 0.0
H1481 H 0.86929 0.50156 0.21177 0.0
C1482 C 0.81861 0.4948 0.24929 0.0
C1483 C 0.85518 0.48133 0.2361 0.0
C1484 C 0.87467 0.46418 0.23526 0.0
C1485 C 0.818 0.51255 0.23476 0.0
C1486 C 0.83687 0.51553 0.22151 0.0
C1487 C 0.85493 0.49952 0.22206 0.0
C1488 C 0.83924 0.53608 0.20818 0.0
C1489 C 0.79709 0.52787 0.23381 0.0
C1490 C 0.84488 0.53369 0.18749 0.0
C1491 C 0.84972 0.55318 0.17565 0.0
C1492 C 0.84898 0.57539 0.18432 0.0
C1493 C 0.84273 0.57767 0.20488 0.0
C1494 C 0.83815 0.55827 0.21668 0.0
H1495 H 0.78151 0.51839 0.23873 0.0
H1496 H 0.79945 0.54269 0.24433 0.0
H1497 H 0.79415 0.53462 0.21822 0.0
H1498 H 0.84604 0.51671 0.18062 0.0
H1499 H 0.85458 0.5508 0.1599 0.0
H1500 H 0.58583 0.8828 0.25556 0.0
H1501 H 0.55061 0.87822 0.23559 0.0
H1502 H 0.51866 0.84338 0.28595 0.0
H1503 H 0.55387 0.84771 0.306 0.0
H1504 H 0.51011 0.82239 0.24714 0.0
H1505 H 0.4924 0.9167 0.24712 0.0
H1506 H 0.52022 0.90863 0.23786 0.0
H1507 H 0.51306 0.90363 0.26404 0.0
C1508 C 0.57137 0.874 0.26235 0.0
C1509 C 0.57261 0.86574 0.28242 0.0
C1510 C 0.55123 0.87149 0.25093 0.0
C1511 C 0.5319 0.86075 0.25938 0.0
C1512 C 0.53334 0.85179 0.27916 0.0
H1513 H 0.39092 0.8748 0.2205 0.0
H1514 H 0.42682 0.87214 0.23959 0.0
C1515 C 0.55347 0.85431 0.2906 0.0
C1516 C 0.50996 0.85956 0.24789 0.0
H1517 H 0.46772 0.89322 0.22741 0.0
C1518 C 0.50082 0.83785 0.2428 0.0
C1519 C 0.49774 0.87976 0.24245 0.0
C1520 C 0.50619 0.90352 0.24827 0.0
C1521 C 0.47989 0.83583 0.23223 0.0
C1522 C 0.46791 0.85605 0.2265 0.0
C1523 C 0.47699 0.87773 0.23172 0.0
C1524 C 0.44564 0.8553 0.21545 0.0
C1525 C 0.47053 0.81211 0.22762 0.0
C1526 C 0.44417 0.84639 0.1956 0.0
C1527 C 0.42358 0.84784 0.18461 0.0
C1528 C 0.40416 0.85834 0.19327 0.0
C1529 C 0.40553 0.86656 0.21338 0.0
C1530 C 0.42606 0.86512 0.22431 0.0
H1531 H 0.47902 0.79857 0.23693 0.0
H1532 H 0.45178 0.81146 0.23039 0.0
H1533 H 0.47352 0.80801 0.21135 0.0
H1534 H 0.45915 0.83908 0.18833 0.0
H1535 H 0.42315 0.84155 0.16909 0.0
H1536 H 0.84654 0.6039 0.75836 0.0
H1537 H 0.83643 0.57335 0.73419 0.0
H1538 H 0.78829 0.54551 0.77739 0.0
H1539 H 0.79776 0.57655 0.80125 0.0
H1540 H 0.8448 0.52983 0.74055 0.0
H1541 H 0.75171 0.53794 0.72646 0.0
H1542 H 0.76822 0.56066 0.73833 0.0
H1543 H 0.75797 0.53667 0.75314 0.0
C1544 C 0.83337 0.59159 0.76246 0.0
C1545 C 0.82294 0.59254 0.78165 0.0
C1546 C 0.8276 0.57414 0.74864 0.0
C1547 C 0.81141 0.55718 0.75382 0.0
C1548 C 0.80034 0.55868 0.77274 0.0
H1549 H 0.79465 0.41577 0.72323 0.0
H1550 H 0.78939 0.45507 0.73602 0.0
C1551 C 0.80588 0.57636 0.78645 0.0
C1552 C 0.80844 0.53643 0.74068 0.0
H1553 H 0.76852 0.50067 0.71899 0.0
C1554 C 0.82813 0.52376 0.73552 0.0
C1555 C 0.78668 0.52835 0.73416 0.0
C1556 C 0.76499 0.54177 0.73814 0.0
C1557 C 0.82665 0.50291 0.72473 0.0
C1558 C 0.80489 0.49447 0.71882 0.0
C1559 C 0.78517 0.50725 0.72355 0.0
C1560 C 0.80262 0.47154 0.70903 0.0
C1561 C 0.84834 0.48953 0.72037 0.0
C1562 C 0.81065 0.4679 0.68919 0.0
C1563 C 0.81363 0.44544 0.68177 0.0
C1564 C 0.80884 0.42628 0.69421 0.0
C1565 C 0.79873 0.43011 0.71333 0.0
C1566 C 0.79565 0.45257 0.72067 0.0
H1567 H 0.8635 0.49696 0.72829 0.0
H1568 H 0.84638 0.47124 0.72509 0.0
H1569 H 0.85172 0.4897 0.70377 0.0
H1570 H 0.81601 0.48239 0.67996 0.0
H1571 H 0.82131 0.44315 0.66692 0.0
H1572 H 0.55285 0.83067 0.67295 0.0
H1573 H 0.51966 0.81842 0.69301 0.0
H1574 H 0.56117 0.81981 0.74745 0.0
H1575 H 0.59383 0.83369 0.72756 0.0
H1576 H 0.5053 0.78605 0.71871 0.0
H1577 H 0.51582 0.86868 0.76087 0.0
H1578 H 0.53302 0.86151 0.73908 0.0
H1579 H 0.5398 0.8496 0.76367 0.0
C1580 C 0.55497 0.82767 0.68911 0.0
C1581 C 0.5757 0.83317 0.69883 0.0
C1582 C 0.53601 0.82075 0.70059 0.0
C1583 C 0.5377 0.81893 0.72187 0.0
C1584 C 0.55922 0.82189 0.73118 0.0
H1585 H 0.4234 0.81922 0.80871 0.0
H1586 H 0.45954 0.80604 0.79333 0.0
C1587 C 0.57794 0.82952 0.71981 0.0
C1588 C 0.51655 0.81681 0.73433 0.0
H1589 H 0.48498 0.84525 0.77026 0.0
C1590 C 0.50098 0.79886 0.73013 0.0
C1591 C 0.51071 0.83372 0.74912 0.0
C1592 C 0.52558 0.85458 0.75333 0.0
C1593 C 0.47963 0.79769 0.73999 0.0
C1594 C 0.4739 0.81467 0.75453 0.0
C1595 C 0.48971 0.83204 0.75931 0.0
C1596 C 0.45052 0.81702 0.76291 0.0
C1597 C 0.46301 0.77877 0.73446 0.0
C1598 C 0.43343 0.82708 0.7508 0.0
C1599 C 0.41313 0.83498 0.75957 0.0
C1600 C 0.40945 0.83265 0.78056 0.0
C1601 C 0.42576 0.82095 0.79245 0.0
C1602 C 0.44636 0.81345 0.7837 0.0
H1603 H 0.4714 0.76466 0.72574 0.0
H1604 H 0.45514 0.77144 0.74839 0.0
H1605 H 0.449 0.7861 0.725 0.0
H1606 H 0.43648 0.8303 0.7348 0.0
H1607 H 0.4008 0.84399 0.75011 0.0
H1608 H 0.21061 0.39691 0.777 0.0
H1609 H 0.22397 0.43114 0.75858 0.0
H1610 H 0.18001 0.47411 0.79533 0.0
H1611 H 0.16694 0.44034 0.81381 0.0
H1612 H 0.19465 0.45608 0.73591 0.0
H1613 H 0.2354 0.51505 0.79087 0.0
H1614 H 0.23172 0.48463 0.79601 0.0
H1615 H 0.20877 0.50477 0.80089 0.0
C1616 C 0.20445 0.41377 0.78163 0.0
C1617 C 0.1876 0.4159 0.79677 0.0
C1618 C 0.21206 0.4333 0.77105 0.0
C1619 C 0.2032 0.45527 0.77569 0.0
C1620 C 0.18755 0.4575 0.79175 0.0
H1621 H 0.14798 0.57268 0.73119 0.0
H1622 H 0.16747 0.54224 0.75002 0.0
C1623 C 0.17989 0.43807 0.8022 0.0
C1624 C 0.2069 0.47519 0.76188 0.0
H1625 H 0.21423 0.53366 0.76289 0.0
C1626 C 0.19972 0.47293 0.74157 0.0
C1627 C 0.2136 0.49716 0.76923 0.0
C1628 C 0.22304 0.50046 0.79041 0.0
C1629 C 0.19676 0.49236 0.7291 0.0
C1630 C 0.20142 0.51458 0.7371 0.0
C1631 C 0.21055 0.51663 0.75681 0.0
C1632 C 0.19286 0.53564 0.7268 0.0
C1633 C 0.18671 0.48915 0.70809 0.0
C1634 C 0.20123 0.54267 0.70777 0.0
C1635 C 0.19006 0.56024 0.69691 0.0
C1636 C 0.17035 0.57081 0.70495 0.0
C1637 C 0.16301 0.5647 0.72453 0.0
C1638 C 0.1742 0.54737 0.73536 0.0
H1639 H 0.18203 0.47089 0.70494 0.0
H1640 H 0.17115 0.50002 0.70625 0.0
H1641 H 0.19938 0.4947 0.69654 0.0
H1642 H 0.21576 0.53396 0.70099 0.0
H1643 H 0.19606 0.56462 0.68183 0.0
H1644 H 0.4245 0.1987 0.66998 0.0
H1645 H 0.45855 0.21146 0.68917 0.0
H1646 H 0.4323 0.17864 0.74306 0.0
H1647 H 0.39863 0.16565 0.72404 0.0
H1648 H 0.45912 0.22774 0.74575 0.0
H1649 H 0.50087 0.15218 0.7082 0.0
H1650 H 0.48399 0.17199 0.69326 0.0
H1651 H 0.47015 0.15349 0.71125 0.0
C1652 C 0.42568 0.19492 0.68608 0.0
C1653 C 0.40907 0.18107 0.69553 0.0
C1654 C 0.4451 0.20217 0.69699 0.0
C1655 C 0.44787 0.19594 0.7175 0.0
C1656 C 0.43039 0.18372 0.72729 0.0
H1657 H 0.54266 0.18436 0.81582 0.0
H1658 H 0.51055 0.19641 0.79419 0.0
C1659 C 0.41123 0.17623 0.71638 0.0
C1660 C 0.47022 0.19859 0.72796 0.0
H1661 H 0.52077 0.17012 0.73464 0.0
C1662 C 0.47286 0.21547 0.74314 0.0
C1663 C 0.488 0.18253 0.7245 0.0
C1664 C 0.4858 0.16392 0.70848 0.0
C1665 C 0.49281 0.21641 0.75524 0.0
C1666 C 0.51015 0.19952 0.75249 0.0
C1667 C 0.50765 0.18316 0.7368 0.0
C1668 C 0.53033 0.19716 0.76632 0.0
C1669 C 0.49502 0.23546 0.7708 0.0
C1670 C 0.55228 0.19373 0.75806 0.0
C1671 C 0.57036 0.18617 0.77032 0.0
C1672 C 0.56704 0.18253 0.79118 0.0
C1673 C 0.54568 0.18762 0.79983 0.0
C1674 C 0.52736 0.1946 0.78744 0.0
H1675 H 0.48554 0.25114 0.7659 0.0
H1676 H 0.48742 0.22963 0.78536 0.0
H1677 H 0.51322 0.24017 0.77352 0.0
H1678 H 0.5551 0.19553 0.74186 0.0
H1679 H 0.58668 0.18208 0.76334 0.0
H1680 H 0.68284 0.09047 0.79664 0.0
H1681 H 0.68786 0.05795 0.77304 0.0
H1682 H 0.61533 0.0441 0.77536 0.0
H1683 H 0.61009 0.07629 0.79888 0.0
H1684 H 0.67259 0.00795 0.77623 0.0
H1685 H 0.63163 0.05766 0.71376 0.0
H1686 H 0.64344 0.0713 0.7362 0.0
H1687 H 0.61605 0.05721 0.73731 0.0
C1688 C 0.66802 0.08025 0.79243 0.0
C1689 C 0.64603 0.08615 0.79953 0.0
C1690 C 0.67092 0.06173 0.77889 0.0
C1691 C 0.6519 0.04895 0.77221 0.0
C1692 C 0.63017 0.05401 0.78011 0.0
H1693 H 0.61184 0.94194 0.69125 0.0
H1694 H 0.61627 0.97562 0.71317 0.0
C1695 C 0.62725 0.07239 0.79363 0.0
C1696 C 0.65431 0.03094 0.75632 0.0
H1697 H 0.63741 0.01758 0.70795 0.0
C1698 C 0.66521 0.01008 0.76119 0.0
C1699 C 0.64467 0.03389 0.73674 0.0
C1700 C 0.63343 0.05628 0.73054 0.0
C1701 C 0.66571 0.99159 0.74727 0.0
C1702 C 0.65546 0.99431 0.72785 0.0
C1703 C 0.64528 0.01551 0.7228 0.0
C1704 C 0.65335 0.97483 0.71322 0.0
C1705 C 0.67618 0.96896 0.75384 0.0
C1706 C 0.67276 0.96359 0.70536 0.0
C1707 C 0.67029 0.94417 0.69277 0.0
C1708 C 0.64836 0.93576 0.68776 0.0
C1709 C 0.629 0.94781 0.69486 0.0
C1710 C 0.63149 0.96711 0.70743 0.0
H1711 H 0.67892 0.96824 0.77056 0.0
H1712 H 0.66512 0.95423 0.74926 0.0
H1713 H 0.69307 0.96678 0.74636 0.0
H1714 H 0.68981 0.96958 0.70925 0.0
H1715 H 0.68555 0.93536 0.68751 0.0
H1716 H 0.92841 0.66438 0.79923 0.0
H1717 H 0.95846 0.66173 0.77368 0.0
H1718 H 0.91877 0.61138 0.74044 0.0
H1719 H 0.88832 0.61396 0.76608 0.0
H1720 H 0.9824 0.62071 0.76389 0.0
H1721 H 0.93906 0.65893 0.69639 0.0
H1722 H 0.92887 0.66346 0.72202 0.0
H1723 H 0.92392 0.63636 0.70947 0.0
C1724 C 0.92588 0.65286 0.78642 0.0
C1725 C 0.90592 0.63937 0.78473 0.0
C1726 C 0.94312 0.65139 0.77181 0.0
C1727 C 0.9408 0.63651 0.75508 0.0
C1728 C 0.92075 0.62325 0.75308 0.0
H1729 H 0.0593 0.59332 0.68385 0.0
H1730 H 0.02257 0.59381 0.7016 0.0
C1731 C 0.90341 0.62468 0.76778 0.0
C1732 C 0.96013 0.63409 0.74058 0.0
H1733 H 0.97682 0.64501 0.69173 0.0
C1734 C 0.98115 0.62588 0.74808 0.0
C1735 C 0.95847 0.64105 0.72002 0.0
C1736 C 0.93645 0.65062 0.71141 0.0
C1737 C 0.00062 0.62461 0.73565 0.0
C1738 C -0.00102 0.63146 0.71505 0.0
C1739 C 0.97795 0.6396 0.70748 0.0
C1740 C 0.01933 0.63101 0.70155 0.0
C1741 C 0.02298 0.61657 0.74484 0.0
C1742 C 0.02916 0.65173 0.69479 0.0
C1743 C 0.05019 0.65154 0.68455 0.0
C1744 C 0.06172 0.63059 0.68089 0.0
C1745 C 0.05105 0.60979 0.68658 0.0
C1746 C 0.03005 0.61002 0.69677 0.0
H1747 H 0.02247 0.61658 0.76173 0.0
H1748 H 0.02659 0.59868 0.73967 0.0
H1749 H 0.03738 0.62773 0.73984 0.0
H1750 H 0.02111 0.66813 0.69829 0.0
H1751 H 0.05788 0.66787 0.68036 0.0
H1752 H 0.29385 0.0884 0.68229 0.0
H1753 H 0.28835 0.05469 0.70433 0.0
H1754 H 0.36111 0.04182 0.70374 0.0
H1755 H 0.36683 0.07515 0.68172 0.0
H1756 H 0.30658 0.00411 0.69927 0.0
H1757 H 0.33988 0.05369 0.76557 0.0
H1758 H 0.32813 0.06752 0.74323 0.0
H1759 H 0.35646 0.05543 0.74259 0.0
C1760 C 0.30863 0.07813 0.68651 0.0
C1761 C 0.33081 0.08462 0.68037 0.0
C1762 C 0.30545 0.05893 0.69915 0.0
C1763 C 0.32438 0.04606 0.70586 0.0
C1764 C 0.34633 0.05174 0.69888 0.0
H1765 H 0.36505 0.93902 0.78573 0.0
H1766 H 0.35993 0.97312 0.76459 0.0
C1767 C 0.34953 0.07079 0.68625 0.0
C1768 C 0.32166 0.0274 0.72101 0.0
H1769 H 0.33556 0.01328 0.76988 0.0
C1770 C 0.31257 0.00611 0.71481 0.0
C1771 C 0.32953 0.0302 0.74121 0.0
C1772 C 0.33891 0.05297 0.7487 0.0
C1773 C 0.31219 0.9871 0.72809 0.0
C1774 C 0.3207 0.98971 0.74817 0.0
C1775 C 0.32902 0.01131 0.75451 0.0
C1776 C 0.32306 0.96982 0.76225 0.0
C1777 C 0.30379 0.96411 0.72018 0.0
C1778 C 0.30394 0.95698 0.76854 0.0
C1779 C 0.30681 0.9373 0.78066 0.0
C1780 C 0.32886 0.93024 0.78678 0.0
C1781 C 0.34782 0.94383 0.78123 0.0
C1782 C 0.34494 0.96338 0.76912 0.0
H1783 H 0.30236 0.9639 0.70332 0.0
H1784 H 0.31548 0.94997 0.72494 0.0
H1785 H 0.28657 0.96052 0.72655 0.0
H1786 H 0.28684 0.96194 0.76381 0.0
H1787 H 0.29184 0.92729 0.78473 0.0
H1788 H 0.89343 0.38374 0.72728 0.0
H1789 H 0.93012 0.38099 0.74505 0.0
H1790 H 0.95159 0.32724 0.70373 0.0
H1791 H 0.91521 0.33069 0.68527 0.0
H1792 H 0.95279 0.34969 0.76512 0.0
H1793 H 0.00282 0.37211 0.69649 0.0
H1794 H 0.97199 0.37365 0.69712 0.0
H1795 H 0.98615 0.34638 0.69306 0.0
C1796 C 0.90582 0.37108 0.72214 0.0
C1797 C 0.90149 0.35752 0.70479 0.0
C1798 C 0.92686 0.36958 0.73229 0.0
C1799 C 0.94394 0.35435 0.72542 0.0
C1800 C 0.93903 0.33967 0.70892 0.0
H1801 H 0.06675 0.33191 0.80086 0.0
H1802 H 0.03029 0.32666 0.78283 0.0
C1803 C 0.91811 0.34144 0.69854 0.0
C1804 C 0.96699 0.35446 0.73525 0.0
H1805 H 0.02414 0.36098 0.72559 0.0
C1806 C 0.9684 0.35216 0.75647 0.0
C1807 C 0.98737 0.35823 0.72404 0.0
C1808 C 0.98705 0.36299 0.70146 0.0
C1809 C 0.98948 0.35362 0.76681 0.0
C1810 C 0.00998 0.35636 0.75552 0.0
C1811 C 0.00855 0.35854 0.73427 0.0
C1812 C 0.03292 0.35832 0.76546 0.0
C1813 C 0.9893 0.35323 0.78977 0.0
C1814 C 0.04731 0.37706 0.76087 0.0
C1815 C 0.06851 0.37957 0.77059 0.0
C1816 C 0.07562 0.3636 0.78536 0.0
C1817 C 0.06156 0.34457 0.78965 0.0
C1818 C 0.04059 0.34172 0.77952 0.0
H1819 H 0.97231 0.35836 0.79591 0.0
H1820 H -0.00709 0.33542 0.79509 0.0
H1821 H 0.00247 0.365 0.79623 0.0
H1822 H 0.04192 0.39008 0.75007 0.0
H1823 H 0.07895 0.3945 0.76709 0.0
H1824 H 0.27118 0.89488 0.1997 0.0
H1825 H 0.26026 0.92683 0.2222 0.0
H1826 H 0.30795 0.97146 0.19136 0.0
H1827 H 0.31873 0.9399 0.16884 0.0
H1828 H 0.29138 0.94583 0.24798 0.0
H1829 H 0.25501 0.01527 0.20061 0.0
H1830 H 0.25657 0.98566 0.19194 0.0
H1831 H 0.281 0.00451 0.18961 0.0
C1832 C 0.27872 0.91173 0.19724 0.0
C1833 C 0.29593 0.9148 0.18253 0.0
C1834 C 0.27251 0.92996 0.21017 0.0
C1835 C 0.28311 0.95164 0.20839 0.0
C1836 C 0.29912 0.9551 0.19279 0.0
H1837 H 0.35002 0.04517 0.27717 0.0
H1838 H 0.33213 0.01406 0.25797 0.0
C1839 C 0.30543 0.93692 0.17999 0.0
C1840 C 0.28058 0.96947 0.22454 0.0
H1841 H 0.27619 0.02786 0.23103 0.0
C1842 C 0.28728 0.96365 0.24442 0.0
C1843 C 0.27506 0.99273 0.22005 0.0
C1844 C 0.26627 -0.00016 0.19942 0.0
C1845 C 0.29078 0.98073 0.25928 0.0
C1846 C 0.28755 0.00417 0.25414 0.0
C1847 C 0.27877 0.00985 0.2349 0.0
C1848 C 0.29754 0.02276 0.26685 0.0
C1849 C 0.29953 0.9738 0.27999 0.0
C1850 C 0.28393 0.03799 0.27831 0.0
C1851 C 0.29422 0.05587 0.28962 0.0
C1852 C 0.31815 0.05888 0.28919 0.0
C1853 C 0.33154 0.04343 0.27775 0.0
C1854 C 0.32137 0.02557 0.2668 0.0
H1855 H 0.29573 0.95539 0.28332 0.0
H1856 H 0.31841 0.97619 0.28052 0.0
H1857 H 0.29184 0.98479 0.29204 0.0
H1858 H 0.26546 0.03609 0.27844 0.0
H1859 H 0.28351 0.0676 0.29823 0.0
H1860 H 0.06873 0.31265 0.1723 0.0
H1861 H 0.03336 0.29948 0.18869 0.0
H1862 H 0.06021 0.32012 0.2471 0.0
H1863 H 0.09543 0.33345 0.23087 0.0
H1864 H 0.02653 0.27551 0.24274 0.0
H1865 H -0.00099 0.36128 0.21273 0.0
H1866 H 0.01344 0.34142 0.19597 0.0
H1867 H 0.02889 0.35447 0.2166 0.0
C1868 C 0.06749 0.31342 0.18872 0.0
C1869 C 0.08466 0.3243 0.20032 0.0
C1870 C 0.04729 0.30591 0.19805 0.0
C1871 C 0.04422 0.30897 0.21906 0.0
C1872 C 0.06235 0.31752 0.23088 0.0
H1873 H 0.9411 0.32052 0.31054 0.0
H1874 H 0.97397 0.30705 0.29062 0.0
C1875 C 0.08241 0.32522 0.22158 0.0
C1876 C 0.02102 0.30818 0.228 0.0
H1877 H 0.97399 0.34222 0.23446 0.0
C1878 C 0.01479 0.28985 0.24074 0.0
C1879 C 0.00589 0.32698 0.22535 0.0
C1880 C 0.012 0.34727 0.21201 0.0
C1881 C -0.00629 0.29 0.25114 0.0
C1882 C 0.97894 0.30932 0.24915 0.0
C1883 C 0.98513 0.32732 0.23596 0.0
C1884 C 0.95767 0.31238 0.26131 0.0
C1885 C 0.98751 0.26947 0.26407 0.0
C1886 C 0.93742 0.31963 0.25161 0.0
C1887 C 0.91904 0.32803 0.26297 0.0
C1888 C 0.92031 0.32875 0.28425 0.0
C1889 C 0.93968 0.31975 0.29412 0.0
C1890 C 0.95841 0.31192 0.28271 0.0
H1891 H -0.00429 0.25345 0.25824 0.0
H1892 H -0.00612 0.27235 0.27979 0.0
H1893 H 0.96868 0.2668 0.26461 0.0
H1894 H 0.93636 0.32014 0.23516 0.0
H1895 H 0.90421 0.33493 0.25508 0.0
H1896 H 0.67661 0.91228 0.28027 0.0
H1897 H 0.68854 0.94535 0.25982 0.0
H1898 H 0.68787 0.98856 0.31325 0.0
H1899 H 0.67602 0.95572 0.33386 0.0
H1900 H 0.65458 -0.00186 0.27988 0.0
H1901 H 0.74492 0.99197 0.25336 0.0
H1902 H 0.72778 0.96607 0.25326 0.0
H1903 H 0.73547 0.97925 0.277 0.0
C1904 C 0.67982 0.92859 0.28785 0.0
C1905 C 0.67495 0.93141 0.30868 0.0
C1906 C 0.68676 0.94747 0.27611 0.0
C1907 C 0.68908 0.96937 0.28504 0.0
C1908 C 0.68629 0.97175 0.30612 0.0
H1909 H 0.66598 0.10548 0.23599 0.0
H1910 H 0.67915 0.07433 0.25826 0.0
C1911 C 0.67946 0.95291 0.31787 0.0
C1912 C 0.6895 0.99026 0.2721 0.0
H1913 H 0.72194 0.02162 0.23892 0.0
C1914 C 0.66938 0.00342 0.27108 0.0
C1915 C 0.70867 -0.00329 0.26034 0.0
C1916 C 0.73055 0.9829 0.261 0.0
C1917 C 0.66774 0.02279 0.25847 0.0
C1918 C 0.6871 0.02975 0.24704 0.0
C1919 C 0.70726 0.01647 0.24792 0.0
C1920 C 0.68598 0.05037 0.23369 0.0
C1921 C 0.64495 0.0351 0.257 0.0
C1922 C 0.68748 0.04794 0.21247 0.0
C1923 C 0.68065 0.06605 0.1997 0.0
C1924 C 0.67202 0.08659 0.20809 0.0
C1925 C 0.67262 0.08976 0.22924 0.0
C1926 C 0.67995 0.07193 0.24193 0.0
H1927 H 0.63058 0.02403 0.26223 0.0
H1928 H 0.64533 0.05072 0.26681 0.0
H1929 H 0.64132 0.04059 0.24114 0.0
H1930 H 0.69216 0.03148 0.2058 0.0
H1931 H 0.68001 0.06316 0.18342 0.0
H1932 H 0.90125 0.66855 0.23464 0.0
H1933 H 0.93506 0.68291 0.25271 0.0
H1934 H 0.96093 0.71171 0.19692 0.0
H1935 H 0.92678 0.69773 0.17873 0.0
H1936 H 0.98801 0.67482 0.21856 0.0
H1937 H 0.96377 0.74847 0.26835 0.0
H1938 H 0.9439 0.72472 0.26713 0.0
H1939 H 0.94886 0.74186 0.24487 0.0
C1940 C 0.91379 0.67858 0.22634 0.0
C1941 C 0.91147 0.68198 0.20529 0.0
C1942 C 0.93302 0.68688 0.23671 0.0
C1943 C 0.95036 0.69853 0.22618 0.0
C1944 C 0.94754 0.70303 0.20534 0.0
H1945 H 0.09264 0.69311 0.26787 0.0
H1946 H 0.05963 0.70597 0.24767 0.0
C1947 C 0.92806 0.69505 0.195 0.0
C1948 C 0.97284 0.70207 0.23619 0.0
H1949 H -0.00095 0.72946 0.27598 0.0
C1950 C 0.99069 0.68709 0.23084 0.0
C1951 C 0.97594 0.7178 0.25241 0.0
C1952 C 0.95719 0.73429 0.25853 0.0
C1953 C 0.01122 0.68648 0.24196 0.0
C1954 C 0.01439 0.70208 0.25841 0.0
C1955 C -0.00325 0.71769 0.26329 0.0
C1956 C 0.03496 0.70073 0.27177 0.0
C1957 C 0.02856 0.668 0.23676 0.0
C1958 C 0.0324 0.69577 0.29256 0.0
C1959 C 0.0514 0.68937 0.30431 0.0
C1960 C 0.0731 0.68766 0.29533 0.0
C1961 C 0.07601 0.69449 0.27506 0.0
C1962 C 0.05713 0.70151 0.26349 0.0
H1963 H 0.02091 0.65396 0.2274 0.0
H1964 H 0.0427 0.67575 0.22785 0.0
H1965 H 0.03592 0.66017 0.25073 0.0
H1966 H 0.0155 0.69515 0.29934 0.0
H1967 H 0.0488 0.68377 0.31985 0.0
loop_
_geom_bond_atom_site_label_1
_geom_bond_atom_site_label_2
_geom_bond_distance
_geom_bond_site_symmetry_2
_ccdc_geom_bond_type
Co0 N4 2.148 . S
Co0 N10 2.128 . S
Co0 N20 2.194 . S
Co0 O25 2.351 . S
Co0 O26 2.155 . S
Co0 O27 2.096 . S
C1 N4 1.301 . S
C1 N5 1.328 . S
C1 H6 0.930 . S
C2 C3 1.333 . S
C2 N4 1.317 . S
C2 H7 0.930 . S
C3 C2 1.333 . S
C3 N5 1.350 . S
C3 H29 0.931 . S
N4 Co0 2.148 . S
N4 C1 1.301 . S
N4 C2 1.317 . S
N5 C1 1.328 . S
N5 C3 1.350 . S
H6 C1 0.930 . S
H7 C2 0.930 . S
C8 O9 1.224 . S
C8 O27 1.247 . S
O9 C8 1.224 . S
N10 Co0 2.128 . S
N10 C11 1.355 . S
N10 C13 1.311 . S
C11 N10 1.355 . S
C11 C12 1.363 . S
C11 H23 0.929 . S
C12 C11 1.363 . S
C12 N14 1.375 . S
C12 H30 0.931 . S
C13 N10 1.311 . S
C13 N14 1.347 . S
C13 H24 0.929 . S
N14 C12 1.375 . S
N14 C13 1.347 . S
C15 C18 1.365 . S
C15 N20 1.328 . S
C15 H21 0.929 . S
C16 C17 1.362 . S
C16 C19 1.378 . S
C16 H31 0.929 . S
C17 C16 1.362 . S
C17 C18 1.366 . S
C18 C15 1.365 . S
C18 C17 1.366 . S
C18 H32 0.930 . S
C19 C16 1.378 . S
C19 N20 1.315 . S
C19 H22 0.930 . S
N20 Co0 2.194 . S
N20 C15 1.328 . S
N20 C19 1.315 . S
H21 C15 0.929 . S
H22 C19 0.930 . S
H23 C11 0.929 . S
H24 C13 0.929 . S
O25 Co0 2.351 . S
O25 C28 1.244 . S
O26 Co0 2.155 . S
O26 C28 1.240 . S
O27 Co0 2.096 . S
O27 C8 1.247 . S
C28 O25 1.244 . S
C28 O26 1.240 . S
H29 C3 0.931 . S
H30 C12 0.931 . S
H31 C16 0.929 . S
H32 C18 0.930 . S
Co33 N37 2.148 . S
Co33 N43 2.128 . S
Co33 N53 2.194 . S
Co33 O58 2.351 . S
Co33 O59 2.155 . S
Co33 O60 2.096 . S
C34 N37 1.301 . S
C34 N38 1.328 . S
C34 H39 0.930 . S
C35 C36 1.333 . S
C35 N37 1.317 . S
C35 H40 0.930 . S
C36 C35 1.333 . S
C36 N38 1.350 . S
C36 H62 0.931 . S
N37 Co33 2.148 . S
N37 C34 1.301 . S
N37 C35 1.317 . S
N38 C34 1.328 . S
N38 C36 1.350 . S
H39 C34 0.930 . S
H40 C35 0.930 . S
C41 O42 1.224 . S
C41 O60 1.247 . S
O42 C41 1.224 . S
N43 Co33 2.128 . S
N43 C44 1.355 . S
N43 C46 1.311 . S
C44 N43 1.355 . S
C44 C45 1.363 . S
C44 H56 0.929 . S
C45 C44 1.363 . S
C45 N47 1.375 . S
C45 H63 0.931 . S
C46 N43 1.311 . S
C46 N47 1.347 . S
C46 H57 0.929 . S
N47 C45 1.375 . S
N47 C46 1.347 . S
C48 C51 1.365 . S
C48 N53 1.328 . S
C48 H54 0.929 . S
C49 C50 1.362 . S
C49 C52 1.378 . S
C49 H64 0.929 . S
C50 C49 1.362 . S
C50 C51 1.366 . S
C51 C48 1.365 . S
C51 C50 1.366 . S
C51 H65 0.930 . S
C52 C49 1.378 . S
C52 N53 1.315 . S
C52 H55 0.930 . S
N53 Co33 2.194 . S
N53 C48 1.328 . S
N53 C52 1.315 . S
H54 C48 0.929 . S
H55 C52 0.930 . S
H56 C44 0.929 . S
H57 C46 0.929 . S
O58 Co33 2.351 . S
O58 C61 1.244 . S
O59 Co33 2.155 . S
O59 C61 1.240 . S
O60 Co33 2.096 . S
O60 C41 1.247 . S
C61 O58 1.244 . S
C61 O59 1.240 . S
H62 C36 0.931 . S
H63 C45 0.931 . S
H64 C49 0.929 . S
H65 C51 0.930 . S
Co66 N70 2.148 . S
Co66 N76 2.128 . S
Co66 N86 2.194 . S
Co66 O91 2.351 . S
Co66 O92 2.155 . S
Co66 O93 2.096 . S
C67 N70 1.301 . S
C67 N71 1.328 . S
C67 H72 0.930 . S
C68 C69 1.333 . S
C68 N70 1.317 . S
C68 H73 0.930 . S
C69 C68 1.333 . S
C69 N71 1.350 . S
C69 H95 0.931 . S
N70 Co66 2.148 . S
N70 C67 1.301 . S
N70 C68 1.317 . S
N71 C67 1.328 . S
N71 C69 1.350 . S
H72 C67 0.930 . S
H73 C68 0.930 . S
C74 O75 1.224 . S
C74 O93 1.247 . S
O75 C74 1.224 . S
N76 Co66 2.128 . S
N76 C77 1.355 . S
N76 C79 1.311 . S
C77 N76 1.355 . S
C77 C78 1.363 . S
C77 H89 0.929 . S
C78 C77 1.363 . S
C78 N80 1.375 . S
C78 H96 0.931 . S
C79 N76 1.311 . S
C79 N80 1.347 . S
C79 H90 0.929 . S
N80 C78 1.375 . S
N80 C79 1.347 . S
C81 C84 1.365 . S
C81 N86 1.328 . S
C81 H87 0.929 . S
C82 C83 1.362 . S
C82 C85 1.378 . S
C82 H97 0.929 . S
C83 C82 1.362 . S
C83 C84 1.366 . S
C84 C81 1.365 . S
C84 C83 1.366 . S
C84 H98 0.930 . S
C85 C82 1.378 . S
C85 N86 1.315 . S
C85 H88 0.930 . S
N86 Co66 2.194 . S
N86 C81 1.328 . S
N86 C85 1.315 . S
H87 C81 0.929 . S
H88 C85 0.930 . S
H89 C77 0.929 . S
H90 C79 0.929 . S
O91 Co66 2.351 . S
O91 C94 1.244 . S
O92 Co66 2.155 . S
O92 C94 1.240 . S
O93 Co66 2.096 . S
O93 C74 1.247 . S
C94 O91 1.244 . S
C94 O92 1.240 . S
H95 C69 0.931 . S
H96 C78 0.931 . S
H97 C82 0.929 . S
H98 C84 0.930 . S
Co99 N103 2.148 . S
Co99 N109 2.128 . S
Co99 N119 2.194 . S
Co99 O124 2.351 . S
Co99 O125 2.155 . S
Co99 O126 2.096 . S
C100 N103 1.301 . S
C100 N104 1.328 . S
C100 H105 0.930 . S
C101 C102 1.333 . S
C101 N103 1.317 . S
C101 H106 0.930 . S
C102 C101 1.333 . S
C102 N104 1.350 . S
C102 H128 0.931 . S
N103 Co99 2.148 . S
N103 C100 1.301 . S
N103 C101 1.317 . S
N104 C100 1.328 . S
N104 C102 1.350 . S
H105 C100 0.930 . S
H106 C101 0.930 . S
C107 O108 1.224 . S
C107 O126 1.247 . S
O108 C107 1.224 . S
N109 Co99 2.128 . S
N109 C110 1.355 . S
N109 C112 1.311 . S
C110 N109 1.355 . S
C110 C111 1.363 . S
C110 H122 0.929 . S
C111 C110 1.363 . S
C111 N113 1.375 . S
C111 H129 0.931 . S
C112 N109 1.311 . S
C112 N113 1.347 . S
C112 H123 0.929 . S
N113 C111 1.375 . S
N113 C112 1.347 . S
C114 C117 1.365 . S
C114 N119 1.328 . S
C114 H120 0.929 . S
C115 C116 1.362 . S
C115 C118 1.378 . S
C115 H130 0.929 . S
C116 C115 1.362 . S
C116 C117 1.366 . S
C117 C114 1.365 . S
C117 C116 1.366 . S
C117 H131 0.930 . S
C118 C115 1.378 . S
C118 N119 1.315 . S
C118 H121 0.930 . S
N119 Co99 2.194 . S
N119 C114 1.328 . S
N119 C118 1.315 . S
H120 C114 0.929 . S
H121 C118 0.930 . S
H122 C110 0.929 . S
H123 C112 0.929 . S
O124 Co99 2.351 . S
O124 C127 1.244 . S
O125 Co99 2.155 . S
O125 C127 1.240 . S
O126 Co99 2.096 . S
O126 C107 1.247 . S
C127 O124 1.244 . S
C127 O125 1.240 . S
H128 C102 0.931 . S
H129 C111 0.931 . S
H130 C115 0.929 . S
H131 C117 0.930 . S
Co132 N136 2.148 . S
Co132 N142 2.128 . S
Co132 N152 2.194 . S
Co132 O157 2.351 . S
Co132 O158 2.155 . S
Co132 O159 2.096 . S
C133 N136 1.301 . S
C133 N137 1.328 . S
C133 H138 0.930 . S
C134 C135 1.333 . S
C134 N136 1.317 . S
C134 H139 0.930 . S
C135 C134 1.333 . S
C135 N137 1.350 . S
C135 H161 0.931 . S
N136 Co132 2.148 . S
N136 C133 1.301 . S
N136 C134 1.317 . S
N137 C133 1.328 . S
N137 C135 1.350 . S
H138 C133 0.930 . S
H139 C134 0.930 . S
C140 O141 1.224 . S
C140 O159 1.247 . S
O141 C140 1.224 . S
N142 Co132 2.128 . S
N142 C143 1.355 . S
N142 C145 1.311 . S
C143 N142 1.355 . S
C143 C144 1.363 . S
C143 H155 0.929 . S
C144 C143 1.363 . S
C144 N146 1.375 . S
C144 H162 0.931 . S
C145 N142 1.311 . S
C145 N146 1.347 . S
C145 H156 0.929 . S
N146 C144 1.375 . S
N146 C145 1.347 . S
C147 C150 1.365 . S
C147 N152 1.328 . S
C147 H153 0.929 . S
C148 C149 1.362 . S
C148 C151 1.378 . S
C148 H163 0.929 . S
C149 C148 1.362 . S
C149 C150 1.366 . S
C150 C147 1.365 . S
C150 C149 1.366 . S
C150 H164 0.930 . S
C151 C148 1.378 . S
C151 N152 1.315 . S
C151 H154 0.930 . S
N152 Co132 2.194 . S
N152 C147 1.328 . S
N152 C151 1.315 . S
H153 C147 0.929 . S
H154 C151 0.930 . S
H155 C143 0.929 . S
H156 C145 0.929 . S
O157 Co132 2.351 . S
O157 C160 1.244 . S
O158 Co132 2.155 . S
O158 C160 1.240 . S
O159 Co132 2.096 . S
O159 C140 1.247 . S
C160 O157 1.244 . S
C160 O158 1.240 . S
H161 C135 0.931 . S
H162 C144 0.931 . S
H163 C148 0.929 . S
H164 C150 0.930 . S
Co165 N169 2.148 . S
Co165 N175 2.128 . S
Co165 N185 2.194 . S
Co165 O190 2.351 . S
Co165 O191 2.155 . S
Co165 O192 2.096 . S
C166 N169 1.301 . S
C166 N170 1.328 . S
C166 H171 0.930 . S
C167 C168 1.333 . S
C167 N169 1.317 . S
C167 H172 0.930 . S
C168 C167 1.333 . S
C168 N170 1.350 . S
C168 H194 0.931 . S
N169 Co165 2.148 . S
N169 C166 1.301 . S
N169 C167 1.317 . S
N170 C166 1.328 . S
N170 C168 1.350 . S
H171 C166 0.930 . S
H172 C167 0.930 . S
C173 O174 1.224 . S
C173 O192 1.247 . S
O174 C173 1.224 . S
N175 Co165 2.128 . S
N175 C176 1.355 . S
N175 C178 1.311 . S
C176 N175 1.355 . S
C176 C177 1.363 . S
C176 H188 0.929 . S
C177 C176 1.363 . S
C177 N179 1.375 . S
C177 H195 0.931 . S
C178 N175 1.311 . S
C178 N179 1.347 . S
C178 H189 0.929 . S
N179 C177 1.375 . S
N179 C178 1.347 . S
C180 C183 1.365 . S
C180 N185 1.328 . S
C180 H186 0.929 . S
C181 C182 1.362 . S
C181 C184 1.378 . S
C181 H196 0.929 . S
C182 C181 1.362 . S
C182 C183 1.366 . S
C183 C180 1.365 . S
C183 C182 1.366 . S
C183 H197 0.930 . S
C184 C181 1.378 . S
C184 N185 1.315 . S
C184 H187 0.930 . S
N185 Co165 2.194 . S
N185 C180 1.328 . S
N185 C184 1.315 . S
H186 C180 0.929 . S
H187 C184 0.930 . S
H188 C176 0.929 . S
H189 C178 0.929 . S
O190 Co165 2.351 . S
O190 C193 1.244 . S
O191 Co165 2.155 . S
O191 C193 1.240 . S
O192 Co165 2.096 . S
O192 C173 1.247 . S
C193 O190 1.244 . S
C193 O191 1.240 . S
H194 C168 0.931 . S
H195 C177 0.931 . S
H196 C181 0.929 . S
H197 C183 0.930 . S
Co198 N202 2.148 . S
Co198 N208 2.128 . S
Co198 N218 2.194 . S
Co198 O223 2.351 . S
Co198 O224 2.155 . S
Co198 O225 2.096 . S
C199 N202 1.301 . S
C199 N203 1.328 . S
C199 H204 0.930 . S
C200 C201 1.333 . S
C200 N202 1.317 . S
C200 H205 0.930 . S
C201 C200 1.333 . S
C201 N203 1.350 . S
C201 H227 0.931 . S
N202 Co198 2.148 . S
N202 C199 1.301 . S
N202 C200 1.317 . S
N203 C199 1.328 . S
N203 C201 1.350 . S
H204 C199 0.930 . S
H205 C200 0.930 . S
C206 O207 1.224 . S
C206 O225 1.247 . S
O207 C206 1.224 . S
N208 Co198 2.128 . S
N208 C209 1.355 . S
N208 C211 1.311 . S
C209 N208 1.355 . S
C209 C210 1.363 . S
C209 H221 0.929 . S
C210 C209 1.363 . S
C210 N212 1.375 . S
C210 H228 0.931 . S
C211 N208 1.311 . S
C211 N212 1.347 . S
C211 H222 0.929 . S
N212 C210 1.375 . S
N212 C211 1.347 . S
C213 C216 1.365 . S
C213 N218 1.328 . S
C213 H219 0.929 . S
C214 C215 1.362 . S
C214 C217 1.378 . S
C214 H229 0.929 . S
C215 C214 1.362 . S
C215 C216 1.366 . S
C216 C213 1.365 . S
C216 C215 1.366 . S
C216 H230 0.930 . S
C217 C214 1.378 . S
C217 N218 1.315 . S
C217 H220 0.930 . S
N218 Co198 2.194 . S
N218 C213 1.328 . S
N218 C217 1.315 . S
H219 C213 0.929 . S
H220 C217 0.930 . S
H221 C209 0.929 . S
H222 C211 0.929 . S
O223 Co198 2.351 . S
O223 C226 1.244 . S
O224 Co198 2.155 . S
O224 C226 1.240 . S
O225 Co198 2.096 . S
O225 C206 1.247 . S
C226 O223 1.244 . S
C226 O224 1.240 . S
H227 C201 0.931 . S
H228 C210 0.931 . S
H229 C214 0.929 . S
H230 C216 0.930 . S
Co231 N235 2.148 . S
Co231 N241 2.128 . S
Co231 N251 2.194 . S
Co231 O256 2.351 . S
Co231 O257 2.155 . S
Co231 O258 2.096 . S
C232 N235 1.301 . S
C232 N236 1.328 . S
C232 H237 0.930 . S
C233 C234 1.333 . S
C233 N235 1.317 . S
C233 H238 0.930 . S
C234 C233 1.333 . S
C234 N236 1.350 . S
C234 H260 0.931 . S
N235 Co231 2.148 . S
N235 C232 1.301 . S
N235 C233 1.317 . S
N236 C232 1.328 . S
N236 C234 1.350 . S
H237 C232 0.930 . S
H238 C233 0.930 . S
C239 O240 1.224 . S
C239 O258 1.247 . S
O240 C239 1.224 . S
N241 Co231 2.128 . S
N241 C242 1.355 . S
N241 C244 1.311 . S
C242 N241 1.355 . S
C242 C243 1.363 . S
C242 H254 0.929 . S
C243 C242 1.363 . S
C243 N245 1.375 . S
C243 H261 0.931 . S
C244 N241 1.311 . S
C244 N245 1.347 . S
C244 H255 0.929 . S
N245 C243 1.375 . S
N245 C244 1.347 . S
C246 C249 1.365 . S
C246 N251 1.328 . S
C246 H252 0.929 . S
C247 C248 1.362 . S
C247 C250 1.378 . S
C247 H262 0.929 . S
C248 C247 1.362 . S
C248 C249 1.366 . S
C249 C246 1.365 . S
C249 C248 1.366 . S
C249 H263 0.930 . S
C250 C247 1.378 . S
C250 N251 1.315 . S
C250 H253 0.930 . S
N251 Co231 2.194 . S
N251 C246 1.328 . S
N251 C250 1.315 . S
H252 C246 0.929 . S
H253 C250 0.930 . S
H254 C242 0.929 . S
H255 C244 0.929 . S
O256 Co231 2.351 . S
O256 C259 1.244 . S
O257 Co231 2.155 . S
O257 C259 1.240 . S
O258 Co231 2.096 . S
O258 C239 1.247 . S
C259 O256 1.244 . S
C259 O257 1.240 . S
H260 C234 0.931 . S
H261 C243 0.931 . S
H262 C247 0.929 . S
H263 C249 0.930 . S
Co264 N268 2.148 . S
Co264 N274 2.128 . S
Co264 N284 2.194 . S
Co264 O289 2.351 . S
Co264 O290 2.155 . S
Co264 O291 2.096 . S
C265 N268 1.301 . S
C265 N269 1.328 . S
C265 H270 0.930 . S
C266 C267 1.333 . S
C266 N268 1.317 . S
C266 H271 0.930 . S
C267 C266 1.333 . S
C267 N269 1.350 . S
C267 H293 0.931 . S
N268 Co264 2.148 . S
N268 C265 1.301 . S
N268 C266 1.317 . S
N269 C265 1.328 . S
N269 C267 1.350 . S
H270 C265 0.930 . S
H271 C266 0.930 . S
C272 O273 1.224 . S
C272 O291 1.247 . S
O273 C272 1.224 . S
N274 Co264 2.128 . S
N274 C275 1.355 . S
N274 C277 1.311 . S
C275 N274 1.355 . S
C275 C276 1.363 . S
C275 H287 0.929 . S
C276 C275 1.363 . S
C276 N278 1.375 . S
C276 H294 0.931 . S
C277 N274 1.311 . S
C277 N278 1.347 . S
C277 H288 0.929 . S
N278 C276 1.375 . S
N278 C277 1.347 . S
C279 C282 1.365 . S
C279 N284 1.328 . S
C279 H285 0.929 . S
C280 C281 1.362 . S
C280 C283 1.378 . S
C280 H295 0.929 . S
C281 C280 1.362 . S
C281 C282 1.366 . S
C282 C279 1.365 . S
C282 C281 1.366 . S
C282 H296 0.930 . S
C283 C280 1.378 . S
C283 N284 1.315 . S
C283 H286 0.930 . S
N284 Co264 2.194 . S
N284 C279 1.328 . S
N284 C283 1.315 . S
H285 C279 0.929 . S
H286 C283 0.930 . S
H287 C275 0.929 . S
H288 C277 0.929 . S
O289 Co264 2.351 . S
O289 C292 1.244 . S
O290 Co264 2.155 . S
O290 C292 1.240 . S
O291 Co264 2.096 . S
O291 C272 1.247 . S
C292 O289 1.244 . S
C292 O290 1.240 . S
H293 C267 0.931 . S
H294 C276 0.931 . S
H295 C280 0.929 . S
H296 C282 0.930 . S
Co297 N301 2.148 . S
Co297 N307 2.128 . S
Co297 N317 2.194 . S
Co297 O322 2.351 . S
Co297 O323 2.155 . S
Co297 O324 2.096 . S
C298 N301 1.301 . S
C298 N302 1.328 . S
C298 H303 0.930 . S
C299 C300 1.333 . S
C299 N301 1.317 . S
C299 H304 0.930 . S
C300 C299 1.333 . S
C300 N302 1.350 . S
C300 H326 0.931 . S
N301 Co297 2.148 . S
N301 C298 1.301 . S
N301 C299 1.317 . S
N302 C298 1.328 . S
N302 C300 1.350 . S
H303 C298 0.930 . S
H304 C299 0.930 . S
C305 O306 1.224 . S
C305 O324 1.247 . S
O306 C305 1.224 . S
N307 Co297 2.128 . S
N307 C308 1.355 . S
N307 C310 1.311 . S
C308 N307 1.355 . S
C308 C309 1.363 . S
C308 H320 0.929 . S
C309 C308 1.363 . S
C309 N311 1.375 . S
C309 H327 0.931 . S
C310 N307 1.311 . S
C310 N311 1.347 . S
C310 H321 0.929 . S
N311 C309 1.375 . S
N311 C310 1.347 . S
C312 C315 1.365 . S
C312 N317 1.328 . S
C312 H318 0.929 . S
C313 C314 1.362 . S
C313 C316 1.378 . S
C313 H328 0.929 . S
C314 C313 1.362 . S
C314 C315 1.366 . S
C315 C312 1.365 . S
C315 C314 1.366 . S
C315 H329 0.930 . S
C316 C313 1.378 . S
C316 N317 1.315 . S
C316 H319 0.930 . S
N317 Co297 2.194 . S
N317 C312 1.328 . S
N317 C316 1.315 . S
H318 C312 0.929 . S
H319 C316 0.930 . S
H320 C308 0.929 . S
H321 C310 0.929 . S
O322 Co297 2.351 . S
O322 C325 1.244 . S
O323 Co297 2.155 . S
O323 C325 1.240 . S
O324 Co297 2.096 . S
O324 C305 1.247 . S
C325 O322 1.244 . S
C325 O323 1.240 . S
H326 C300 0.931 . S
H327 C309 0.931 . S
H328 C313 0.929 . S
H329 C315 0.930 . S
Co330 N334 2.148 . S
Co330 N340 2.128 . S
Co330 N350 2.194 . S
Co330 O355 2.351 . S
Co330 O356 2.155 . S
Co330 O357 2.096 . S
C331 N334 1.301 . S
C331 N335 1.328 . S
C331 H336 0.930 . S
C332 C333 1.333 . S
C332 N334 1.317 . S
C332 H337 0.930 . S
C333 C332 1.333 . S
C333 N335 1.350 . S
C333 H359 0.931 . S
N334 Co330 2.148 . S
N334 C331 1.301 . S
N334 C332 1.317 . S
N335 C331 1.328 . S
N335 C333 1.350 . S
H336 C331 0.930 . S
H337 C332 0.930 . S
C338 O339 1.224 . S
C338 O357 1.247 . S
O339 C338 1.224 . S
N340 Co330 2.128 . S
N340 C341 1.355 . S
N340 C343 1.311 . S
C341 N340 1.355 . S
C341 C342 1.363 . S
C341 H353 0.929 . S
C342 C341 1.363 . S
C342 N344 1.375 . S
C342 H360 0.931 . S
C343 N340 1.311 . S
C343 N344 1.347 . S
C343 H354 0.929 . S
N344 C342 1.375 . S
N344 C343 1.347 . S
C345 C348 1.365 . S
C345 N350 1.328 . S
C345 H351 0.929 . S
C346 C347 1.362 . S
C346 C349 1.378 . S
C346 H361 0.929 . S
C347 C346 1.362 . S
C347 C348 1.366 . S
C348 C345 1.365 . S
C348 C347 1.366 . S
C348 H362 0.930 . S
C349 C346 1.378 . S
C349 N350 1.315 . S
C349 H352 0.930 . S
N350 Co330 2.194 . S
N350 C345 1.328 . S
N350 C349 1.315 . S
H351 C345 0.929 . S
H352 C349 0.930 . S
H353 C341 0.929 . S
H354 C343 0.929 . S
O355 Co330 2.351 . S
O355 C358 1.244 . S
O356 Co330 2.155 . S
O356 C358 1.240 . S
O357 Co330 2.096 . S
O357 C338 1.247 . S
C358 O355 1.244 . S
C358 O356 1.240 . S
H359 C333 0.931 . S
H360 C342 0.931 . S
H361 C346 0.929 . S
H362 C348 0.930 . S
Co363 N367 2.148 . S
Co363 N373 2.128 . S
Co363 N383 2.194 . S
Co363 O388 2.351 . S
Co363 O389 2.155 . S
Co363 O390 2.096 . S
C364 N367 1.301 . S
C364 N368 1.328 . S
C364 H369 0.930 . S
C365 C366 1.333 . S
C365 N367 1.317 . S
C365 H370 0.930 . S
C366 C365 1.333 . S
C366 N368 1.350 . S
C366 H392 0.931 . S
N367 Co363 2.148 . S
N367 C364 1.301 . S
N367 C365 1.317 . S
N368 C364 1.328 . S
N368 C366 1.350 . S
H369 C364 0.930 . S
H370 C365 0.930 . S
C371 O372 1.224 . S
C371 O390 1.247 . S
O372 C371 1.224 . S
N373 Co363 2.128 . S
N373 C374 1.355 . S
N373 C376 1.311 . S
C374 N373 1.355 . S
C374 C375 1.363 . S
C374 H386 0.929 . S
C375 C374 1.363 . S
C375 N377 1.375 . S
C375 H393 0.931 . S
C376 N373 1.311 . S
C376 N377 1.347 . S
C376 H387 0.929 . S
N377 C375 1.375 . S
N377 C376 1.347 . S
C378 C381 1.365 . S
C378 N383 1.328 . S
C378 H384 0.929 . S
C379 C380 1.362 . S
C379 C382 1.378 . S
C379 H394 0.929 . S
C380 C379 1.362 . S
C380 C381 1.366 . S
C381 C378 1.365 . S
C381 C380 1.366 . S
C381 H395 0.930 . S
C382 C379 1.378 . S
C382 N383 1.315 . S
C382 H385 0.930 . S
N383 Co363 2.194 . S
N383 C378 1.328 . S
N383 C382 1.315 . S
H384 C378 0.929 . S
H385 C382 0.930 . S
H386 C374 0.929 . S
H387 C376 0.929 . S
O388 Co363 2.351 . S
O388 C391 1.244 . S
O389 Co363 2.155 . S
O389 C391 1.240 . S
O390 Co363 2.096 . S
O390 C371 1.247 . S
C391 O388 1.244 . S
C391 O389 1.240 . S
H392 C366 0.931 . S
H393 C375 0.931 . S
H394 C379 0.929 . S
H395 C381 0.930 . S
Co396 N400 2.148 . S
Co396 N406 2.128 . S
Co396 N416 2.194 . S
Co396 O421 2.351 . S
Co396 O422 2.155 . S
Co396 O423 2.096 . S
C397 N400 1.301 . S
C397 N401 1.328 . S
C397 H402 0.930 . S
C398 C399 1.333 . S
C398 N400 1.317 . S
C398 H403 0.930 . S
C399 C398 1.333 . S
C399 N401 1.350 . S
C399 H425 0.931 . S
N400 Co396 2.148 . S
N400 C397 1.301 . S
N400 C398 1.317 . S
N401 C397 1.328 . S
N401 C399 1.350 . S
H402 C397 0.930 . S
H403 C398 0.930 . S
C404 O405 1.224 . S
C404 O423 1.247 . S
O405 C404 1.224 . S
N406 Co396 2.128 . S
N406 C407 1.355 . S
N406 C409 1.311 . S
C407 N406 1.355 . S
C407 C408 1.363 . S
C407 H419 0.929 . S
C408 C407 1.363 . S
C408 N410 1.375 . S
C408 H426 0.931 . S
C409 N406 1.311 . S
C409 N410 1.347 . S
C409 H420 0.929 . S
N410 C408 1.375 . S
N410 C409 1.347 . S
C411 C414 1.365 . S
C411 N416 1.328 . S
C411 H417 0.929 . S
C412 C413 1.362 . S
C412 C415 1.378 . S
C412 H427 0.929 . S
C413 C412 1.362 . S
C413 C414 1.366 . S
C414 C411 1.365 . S
C414 C413 1.366 . S
C414 H428 0.930 . S
C415 C412 1.378 . S
C415 N416 1.315 . S
C415 H418 0.930 . S
N416 Co396 2.194 . S
N416 C411 1.328 . S
N416 C415 1.315 . S
H417 C411 0.929 . S
H418 C415 0.930 . S
H419 C407 0.929 . S
H420 C409 0.929 . S
O421 Co396 2.351 . S
O421 C424 1.244 . S
O422 Co396 2.155 . S
O422 C424 1.240 . S
O423 Co396 2.096 . S
O423 C404 1.247 . S
C424 O421 1.244 . S
C424 O422 1.240 . S
H425 C399 0.931 . S
H426 C408 0.931 . S
H427 C412 0.929 . S
H428 C414 0.930 . S
Co429 N433 2.148 . S
Co429 N439 2.128 . S
Co429 N449 2.194 . S
Co429 O454 2.351 . S
Co429 O455 2.155 . S
Co429 O456 2.096 . S
C430 N433 1.301 . S
C430 N434 1.328 . S
C430 H435 0.930 . S
C431 C432 1.333 . S
C431 N433 1.317 . S
C431 H436 0.930 . S
C432 C431 1.333 . S
C432 N434 1.350 . S
C432 H458 0.931 . S
N433 Co429 2.148 . S
N433 C430 1.301 . S
N433 C431 1.317 . S
N434 C430 1.328 . S
N434 C432 1.350 . S
H435 C430 0.930 . S
H436 C431 0.930 . S
C437 O438 1.224 . S
C437 O456 1.247 . S
O438 C437 1.224 . S
N439 Co429 2.128 . S
N439 C440 1.355 . S
N439 C442 1.311 . S
C440 N439 1.355 . S
C440 C441 1.363 . S
C440 H452 0.929 . S
C441 C440 1.363 . S
C441 N443 1.375 . S
C441 H459 0.931 . S
C442 N439 1.311 . S
C442 N443 1.347 . S
C442 H453 0.929 . S
N443 C441 1.375 . S
N443 C442 1.347 . S
C444 C447 1.365 . S
C444 N449 1.328 . S
C444 H450 0.929 . S
C445 C446 1.362 . S
C445 C448 1.378 . S
C445 H460 0.929 . S
C446 C445 1.362 . S
C446 C447 1.366 . S
C447 C444 1.365 . S
C447 C446 1.366 . S
C447 H461 0.930 . S
C448 C445 1.378 . S
C448 N449 1.315 . S
C448 H451 0.930 . S
N449 Co429 2.194 . S
N449 C444 1.328 . S
N449 C448 1.315 . S
H450 C444 0.929 . S
H451 C448 0.930 . S
H452 C440 0.929 . S
H453 C442 0.929 . S
O454 Co429 2.351 . S
O454 C457 1.244 . S
O455 Co429 2.155 . S
O455 C457 1.240 . S
O456 Co429 2.096 . S
O456 C437 1.247 . S
C457 O454 1.244 . S
C457 O455 1.240 . S
H458 C432 0.931 . S
H459 C441 0.931 . S
H460 C445 0.929 . S
H461 C447 0.930 . S
Co462 N466 2.148 . S
Co462 N472 2.128 . S
Co462 N482 2.194 . S
Co462 O487 2.351 . S
Co462 O488 2.155 . S
Co462 O489 2.096 . S
C463 N466 1.301 . S
C463 N467 1.328 . S
C463 H468 0.930 . S
C464 C465 1.333 . S
C464 N466 1.317 . S
C464 H469 0.930 . S
C465 C464 1.333 . S
C465 N467 1.350 . S
C465 H491 0.931 . S
N466 Co462 2.148 . S
N466 C463 1.301 . S
N466 C464 1.317 . S
N467 C463 1.328 . S
N467 C465 1.350 . S
H468 C463 0.930 . S
H469 C464 0.930 . S
C470 O471 1.224 . S
C470 O489 1.247 . S
O471 C470 1.224 . S
N472 Co462 2.128 . S
N472 C473 1.355 . S
N472 C475 1.311 . S
C473 N472 1.355 . S
C473 C474 1.363 . S
C473 H485 0.929 . S
C474 C473 1.363 . S
C474 N476 1.375 . S
C474 H492 0.931 . S
C475 N472 1.311 . S
C475 N476 1.347 . S
C475 H486 0.929 . S
N476 C474 1.375 . S
N476 C475 1.347 . S
C477 C480 1.365 . S
C477 N482 1.328 . S
C477 H483 0.929 . S
C478 C479 1.362 . S
C478 C481 1.378 . S
C478 H493 0.929 . S
C479 C478 1.362 . S
C479 C480 1.366 . S
C480 C477 1.365 . S
C480 C479 1.366 . S
C480 H494 0.930 . S
C481 C478 1.378 . S
C481 N482 1.315 . S
C481 H484 0.930 . S
N482 Co462 2.194 . S
N482 C477 1.328 . S
N482 C481 1.315 . S
H483 C477 0.929 . S
H484 C481 0.930 . S
H485 C473 0.929 . S
H486 C475 0.929 . S
O487 Co462 2.351 . S
O487 C490 1.244 . S
O488 Co462 2.155 . S
O488 C490 1.240 . S
O489 Co462 2.096 . S
O489 C470 1.247 . S
C490 O487 1.244 . S
C490 O488 1.240 . S
H491 C465 0.931 . S
H492 C474 0.931 . S
H493 C478 0.929 . S
H494 C480 0.930 . S
Co495 N499 2.148 . S
Co495 N505 2.128 . S
Co495 N515 2.194 . S
Co495 O520 2.351 . S
Co495 O521 2.155 . S
Co495 O522 2.096 . S
C496 N499 1.301 . S
C496 N500 1.328 . S
C496 H501 0.930 . S
C497 C498 1.333 . S
C497 N499 1.317 . S
C497 H502 0.930 . S
C498 C497 1.333 . S
C498 N500 1.350 . S
C498 H524 0.931 . S
N499 Co495 2.148 . S
N499 C496 1.301 . S
N499 C497 1.317 . S
N500 C496 1.328 . S
N500 C498 1.350 . S
H501 C496 0.930 . S
H502 C497 0.930 . S
C503 O504 1.224 . S
C503 O522 1.247 . S
O504 C503 1.224 . S
N505 Co495 2.128 . S
N505 C506 1.355 . S
N505 C508 1.311 . S
C506 N505 1.355 . S
C506 C507 1.363 . S
C506 H518 0.929 . S
C507 C506 1.363 . S
C507 N509 1.375 . S
C507 H525 0.931 . S
C508 N505 1.311 . S
C508 N509 1.347 . S
C508 H519 0.929 . S
N509 C507 1.375 . S
N509 C508 1.347 . S
C510 C513 1.365 . S
C510 N515 1.328 . S
C510 H516 0.929 . S
C511 C512 1.362 . S
C511 C514 1.378 . S
C511 H526 0.929 . S
C512 C511 1.362 . S
C512 C513 1.366 . S
C513 C510 1.365 . S
C513 C512 1.366 . S
C513 H527 0.930 . S
C514 C511 1.378 . S
C514 N515 1.315 . S
C514 H517 0.930 . S
N515 Co495 2.194 . S
N515 C510 1.328 . S
N515 C514 1.315 . S
H516 C510 0.929 . S
H517 C514 0.930 . S
H518 C506 0.929 . S
H519 C508 0.929 . S
O520 Co495 2.351 . S
O520 C523 1.244 . S
O521 Co495 2.155 . S
O521 C523 1.240 . S
O522 Co495 2.096 . S
O522 C503 1.247 . S
C523 O520 1.244 . S
C523 O521 1.240 . S
H524 C498 0.931 . S
H525 C507 0.931 . S
H526 C511 0.929 . S
H527 C513 0.930 . S
H528 C536 0.929 . S
H529 C538 0.930 . S
H530 C540 0.930 . S
H531 C543 0.929 . S
H532 C546 0.930 . S
H533 C548 0.960 . S
H534 C548 0.960 . S
H535 C548 0.960 . S
C536 H528 0.929 . S
C536 C537 1.377 . S
C536 C538 1.384 . S
C537 C536 1.377 . S
C537 C543 1.390 . S
C538 H529 0.930 . S
C538 C536 1.384 . S
C538 C539 1.372 . S
C539 C538 1.372 . S
C539 C540 1.400 . S
C539 C544 1.490 . S
C540 H530 0.930 . S
C540 C539 1.400 . S
C540 C543 1.386 . S
H541 C557 0.930 . S
H542 C558 0.931 . S
C543 H531 0.929 . S
C543 C537 1.390 . S
C543 C540 1.386 . S
C544 C539 1.490 . S
C544 C546 1.395 . S
C544 C547 1.403 1_655 S
H545 C551 0.930 . S
C546 H532 0.930 . S
C546 C544 1.395 . S
C546 C549 1.403 . S
C547 C544 1.403 1_455 S
C547 C548 1.524 . S
C547 C551 1.400 . S
C548 H533 0.960 . S
C548 H534 0.960 . S
C548 H535 0.960 . S
C548 C547 1.524 . S
C549 C546 1.403 . S
C549 C550 1.392 1_655 S
C549 C553 1.495 . S
C550 C549 1.392 1_455 S
C550 C551 1.385 . S
C550 C552 1.478 . S
C551 H545 0.930 . S
C551 C547 1.400 . S
C551 C550 1.385 . S
C552 C550 1.478 . S
C552 C554 1.381 . S
C552 C558 1.383 . S
C553 C549 1.495 . S
C553 H559 0.959 . S
C553 H560 0.961 . S
C553 H561 0.960 . S
C554 C552 1.381 . S
C554 C555 1.394 . S
C554 H562 0.930 . S
C555 C554 1.394 . S
C555 C556 1.383 . S
C555 H563 0.929 . S
C556 C555 1.383 . S
C556 C557 1.377 . S
C557 H541 0.930 . S
C557 C556 1.377 . S
C557 C558 1.379 . S
C558 H542 0.931 . S
C558 C552 1.383 . S
C558 C557 1.379 . S
H559 C553 0.959 . S
H560 C553 0.961 . S
H561 C553 0.960 . S
H562 C554 0.930 . S
H563 C555 0.929 . S
H564 C572 0.929 . S
H565 C574 0.930 . S
H566 C576 0.930 . S
H567 C579 0.929 . S
H568 C582 0.930 . S
H569 C584 0.960 . S
H570 C584 0.960 . S
H571 C584 0.960 . S
C572 H564 0.929 . S
C572 C573 1.377 . S
C572 C574 1.384 . S
C573 C572 1.377 . S
C573 C579 1.390 . S
C574 H565 0.930 . S
C574 C572 1.384 . S
C574 C575 1.372 . S
C575 C574 1.372 . S
C575 C576 1.400 . S
C575 C580 1.490 . S
C576 H566 0.930 . S
C576 C575 1.400 . S
C576 C579 1.386 . S
H577 C593 0.930 . S
H578 C594 0.931 . S
C579 H567 0.929 . S
C579 C573 1.390 . S
C579 C576 1.386 . S
C580 C575 1.490 . S
C580 C582 1.395 1_545 S
C580 C583 1.403 . S
H581 C587 0.930 . S
C582 H568 0.930 . S
C582 C580 1.395 1_565 S
C582 C585 1.403 . S
C583 C580 1.403 . S
C583 C584 1.524 . S
C583 C587 1.400 . S
C584 H569 0.960 . S
C584 H570 0.960 . S
C584 H571 0.960 . S
C584 C583 1.524 . S
C585 C582 1.403 . S
C585 C586 1.392 . S
C585 C589 1.495 . S
C586 C585 1.392 . S
C586 C587 1.385 1_565 S
C586 C588 1.478 . S
C587 H581 0.930 . S
C587 C583 1.400 . S
C587 C586 1.385 1_545 S
C588 C586 1.478 . S
C588 C590 1.381 . S
C588 C594 1.383 . S
C589 C585 1.495 . S
C589 H595 0.959 . S
C589 H596 0.961 . S
C589 H597 0.960 . S
C590 C588 1.381 . S
C590 C591 1.394 . S
C590 H598 0.930 . S
C591 C590 1.394 . S
C591 C592 1.383 . S
C591 H599 0.929 . S
C592 C591 1.383 . S
C592 C593 1.377 . S
C593 H577 0.930 . S
C593 C592 1.377 . S
C593 C594 1.379 . S
C594 H578 0.931 . S
C594 C588 1.383 . S
C594 C593 1.379 . S
H595 C589 0.959 . S
H596 C589 0.961 . S
H597 C589 0.960 . S
H598 C590 0.930 . S
H599 C591 0.929 . S
H600 C608 0.929 . S
H601 C610 0.930 . S
H602 C612 0.930 . S
H603 C615 0.929 . S
H604 C618 0.930 . S
H605 C620 0.960 . S
H606 C620 0.960 . S
H607 C620 0.960 . S
C608 H600 0.929 . S
C608 C609 1.377 . S
C608 C610 1.384 . S
C609 C608 1.377 . S
C609 C615 1.390 . S
C610 H601 0.930 . S
C610 C608 1.384 . S
C610 C611 1.372 . S
C611 C610 1.372 . S
C611 C612 1.400 . S
C611 C616 1.490 . S
C612 H602 0.930 . S
C612 C611 1.400 . S
C612 C615 1.386 . S
H613 C629 0.930 . S
H614 C630 0.931 . S
C615 H603 0.929 . S
C615 C609 1.390 . S
C615 C612 1.386 . S
C616 C611 1.490 . S
C616 C618 1.395 . S
C616 C619 1.403 1_655 S
H617 C623 0.930 . S
C618 H604 0.930 . S
C618 C616 1.395 . S
C618 C621 1.403 . S
C619 C616 1.403 1_455 S
C619 C620 1.524 . S
C619 C623 1.400 . S
C620 H605 0.960 . S
C620 H606 0.960 . S
C620 H607 0.960 . S
C620 C619 1.524 . S
C621 C618 1.403 . S
C621 C622 1.392 1_655 S
C621 C625 1.495 . S
C622 C621 1.392 1_455 S
C622 C623 1.385 . S
C622 C624 1.478 . S
C623 H617 0.930 . S
C623 C619 1.400 . S
C623 C622 1.385 . S
C624 C622 1.478 . S
C624 C626 1.381 . S
C624 C630 1.383 . S
C625 C621 1.495 . S
C625 H631 0.959 . S
C625 H632 0.961 . S
C625 H633 0.960 . S
C626 C624 1.381 . S
C626 C627 1.394 . S
C626 H634 0.930 . S
C627 C626 1.394 . S
C627 C628 1.383 . S
C627 H635 0.929 . S
C628 C627 1.383 . S
C628 C629 1.377 . S
C629 H613 0.930 . S
C629 C628 1.377 . S
C629 C630 1.379 . S
C630 H614 0.931 . S
C630 C624 1.383 . S
C630 C629 1.379 . S
H631 C625 0.959 . S
H632 C625 0.961 . S
H633 C625 0.960 . S
H634 C626 0.930 . S
H635 C627 0.929 . S
H636 C644 0.929 . S
H637 C646 0.930 . S
H638 C648 0.930 . S
H639 C651 0.929 . S
H640 C654 0.930 . S
H641 C656 0.960 . S
H642 C656 0.960 . S
H643 C656 0.960 . S
C644 H636 0.929 . S
C644 C645 1.377 . S
C644 C646 1.384 . S
C645 C644 1.377 . S
C645 C651 1.390 . S
C646 H637 0.930 . S
C646 C644 1.384 . S
C646 C647 1.372 . S
C647 C646 1.372 . S
C647 C648 1.400 . S
C647 C652 1.490 . S
C648 H638 0.930 . S
C648 C647 1.400 . S
C648 C651 1.386 . S
H649 C665 0.930 . S
H650 C666 0.931 . S
C651 H639 0.929 . S
C651 C645 1.390 . S
C651 C648 1.386 . S
C652 C647 1.490 . S
C652 C654 1.395 1_565 S
C652 C655 1.403 . S
H653 C659 0.930 1_565 S
C654 H640 0.930 . S
C654 C652 1.395 1_545 S
C654 C657 1.403 . S
C655 C652 1.403 . S
C655 C656 1.524 . S
C655 C659 1.400 1_565 S
C656 H641 0.960 . S
C656 H642 0.960 . S
C656 H643 0.960 . S
C656 C655 1.524 . S
C657 C654 1.403 . S
C657 C658 1.392 . S
C657 C661 1.495 . S
C658 C657 1.392 . S
C658 C659 1.385 . S
C658 C660 1.478 . S
C659 H653 0.930 1_545 S
C659 C655 1.400 1_545 S
C659 C658 1.385 . S
C660 C658 1.478 . S
C660 C662 1.381 . S
C660 C666 1.383 . S
C661 C657 1.495 . S
C661 H667 0.959 . S
C661 H668 0.961 . S
C661 H669 0.960 . S
C662 C660 1.381 . S
C662 C663 1.394 . S
C662 H670 0.930 . S
C663 C662 1.394 . S
C663 C664 1.383 . S
C663 H671 0.929 . S
C664 C663 1.383 . S
C664 C665 1.377 . S
C665 H649 0.930 . S
C665 C664 1.377 . S
C665 C666 1.379 . S
C666 H650 0.931 . S
C666 C660 1.383 . S
C666 C665 1.379 . S
H667 C661 0.959 . S
H668 C661 0.961 . S
H669 C661 0.960 . S
H670 C662 0.930 . S
H671 C663 0.929 . S
H672 C680 0.929 . S
H673 C682 0.930 . S
H674 C684 0.930 . S
H675 C687 0.929 . S
H676 C690 0.930 . S
H677 C692 0.960 . S
H678 C692 0.960 . S
H679 C692 0.960 . S
C680 H672 0.929 . S
C680 C681 1.377 . S
C680 C682 1.384 . S
C681 C680 1.377 . S
C681 C687 1.390 . S
C682 H673 0.930 . S
C682 C680 1.384 . S
C682 C683 1.372 . S
C683 C682 1.372 . S
C683 C684 1.400 . S
C683 C688 1.490 . S
C684 H674 0.930 . S
C684 C683 1.400 . S
C684 C687 1.386 . S
H685 C701 0.930 . S
H686 C702 0.931 . S
C687 H675 0.929 . S
C687 C681 1.390 . S
C687 C684 1.386 . S
C688 C683 1.490 . S
C688 C690 1.395 . S
C688 C691 1.403 . S
H689 C695 0.930 . S
C690 H676 0.930 . S
C690 C688 1.395 . S
C690 C693 1.403 1_655 S
C691 C688 1.403 . S
C691 C692 1.524 . S
C691 C695 1.400 1_655 S
C692 H677 0.960 . S
C692 H678 0.960 . S
C692 H679 0.960 . S
C692 C691 1.524 . S
C693 C690 1.403 1_455 S
C693 C694 1.392 . S
C693 C697 1.495 . S
C694 C693 1.392 . S
C694 C695 1.385 . S
C694 C696 1.478 . S
C695 H689 0.930 . S
C695 C691 1.400 1_455 S
C695 C694 1.385 . S
C696 C694 1.478 . S
C696 C698 1.381 . S
C696 C702 1.383 . S
C697 C693 1.495 . S
C697 H703 0.959 . S
C697 H704 0.961 . S
C697 H705 0.960 . S
C698 C696 1.381 . S
C698 C699 1.394 . S
C698 H706 0.930 . S
C699 C698 1.394 . S
C699 C700 1.383 . S
C699 H707 0.929 . S
C700 C699 1.383 . S
C700 C701 1.377 . S
C701 H685 0.930 . S
C701 C700 1.377 . S
C701 C702 1.379 . S
C702 H686 0.931 . S
C702 C696 1.383 . S
C702 C701 1.379 . S
H703 C697 0.959 . S
H704 C697 0.961 . S
H705 C697 0.960 . S
H706 C698 0.930 . S
H707 C699 0.929 . S
H708 C716 0.929 . S
H709 C718 0.930 . S
H710 C720 0.930 . S
H711 C723 0.929 . S
H712 C726 0.930 . S
H713 C728 0.960 . S
H714 C728 0.960 . S
H715 C728 0.960 . S
C716 H708 0.929 . S
C716 C717 1.377 . S
C716 C718 1.384 . S
C717 C716 1.377 . S
C717 C723 1.390 . S
C718 H709 0.930 . S
C718 C716 1.384 . S
C718 C719 1.372 . S
C719 C718 1.372 . S
C719 C720 1.400 . S
C719 C724 1.490 . S
C720 H710 0.930 . S
C720 C719 1.400 . S
C720 C723 1.386 . S
H721 C737 0.930 . S
H722 C738 0.931 . S
C723 H711 0.929 . S
C723 C717 1.390 . S
C723 C720 1.386 . S
C724 C719 1.490 . S
C724 C726 1.395 . S
C724 C727 1.403 1_565 S
H725 C731 0.930 . S
C726 H712 0.930 . S
C726 C724 1.395 . S
C726 C729 1.403 1_565 S
C727 C724 1.403 1_545 S
C727 C728 1.524 . S
C727 C731 1.400 . S
C728 H713 0.960 . S
C728 H714 0.960 . S
C728 H715 0.960 . S
C728 C727 1.524 . S
C729 C726 1.403 1_545 S
C729 C730 1.392 . S
C729 C733 1.495 . S
C730 C729 1.392 . S
C730 C731 1.385 . S
C730 C732 1.478 . S
C731 H725 0.930 . S
C731 C727 1.400 . S
C731 C730 1.385 . S
C732 C730 1.478 . S
C732 C734 1.381 . S
C732 C738 1.383 . S
C733 C729 1.495 . S
C733 H739 0.959 1_545 S
C733 H740 0.961 . S
C733 H741 0.960 . S
C734 C732 1.381 . S
C734 C735 1.394 . S
C734 H742 0.930 . S
C735 C734 1.394 . S
C735 C736 1.383 . S
C735 H743 0.929 . S
C736 C735 1.383 . S
C736 C737 1.377 . S
C737 H721 0.930 . S
C737 C736 1.377 . S
C737 C738 1.379 . S
C738 H722 0.931 . S
C738 C732 1.383 . S
C738 C737 1.379 . S
H739 C733 0.959 1_565 S
H740 C733 0.961 . S
H741 C733 0.960 . S
H742 C734 0.930 . S
H743 C735 0.929 . S
H744 C752 0.929 . S
H745 C754 0.930 . S
H746 C756 0.930 . S
H747 C759 0.929 . S
H748 C762 0.930 . S
H749 C764 0.960 . S
H750 C764 0.960 . S
H751 C764 0.960 1_655 S
C752 H744 0.929 . S
C752 C753 1.377 . S
C752 C754 1.384 . S
C753 C752 1.377 . S
C753 C759 1.390 . S
C754 H745 0.930 . S
C754 C752 1.384 . S
C754 C755 1.372 . S
C755 C754 1.372 . S
C755 C756 1.400 . S
C755 C760 1.490 . S
C756 H746 0.930 . S
C756 C755 1.400 . S
C756 C759 1.386 . S
H757 C773 0.930 . S
H758 C774 0.931 . S
C759 H747 0.929 . S
C759 C753 1.390 . S
C759 C756 1.386 . S
C760 C755 1.490 . S
C760 C762 1.395 . S
C760 C763 1.403 1_655 S
H761 C767 0.930 . S
C762 H748 0.930 . S
C762 C760 1.395 . S
C762 C765 1.402 . S
C763 C760 1.403 1_455 S
C763 C764 1.524 . S
C763 C767 1.400 . S
C764 H749 0.960 . S
C764 H750 0.960 . S
C764 H751 0.960 1_455 S
C764 C763 1.524 . S
C765 C762 1.402 . S
C765 C766 1.394 1_655 S
C765 C769 1.495 . S
C766 C765 1.394 1_455 S
C766 C767 1.385 . S
C766 C768 1.478 . S
C767 H761 0.930 . S
C767 C763 1.400 . S
C767 C766 1.385 . S
C768 C766 1.478 . S
C768 C770 1.381 . S
C768 C774 1.383 . S
C769 C765 1.495 . S
C769 H775 0.959 . S
C769 H776 0.968 . S
C769 H777 0.960 1_655 S
C770 C768 1.381 . S
C770 C771 1.394 . S
C770 H778 0.930 . S
C771 C770 1.394 . S
C771 C772 1.383 . S
C771 H779 0.929 . S
C772 C771 1.383 . S
C772 C773 1.377 . S
C773 H757 0.930 . S
C773 C772 1.377 . S
C773 C774 1.379 . S
C774 H758 0.931 . S
C774 C768 1.383 . S
C774 C773 1.379 . S
H775 C769 0.959 . S
H776 C769 0.968 . S
H777 C769 0.960 1_455 S
H778 C770 0.930 . S
H779 C771 0.929 . S
H780 C788 0.929 . S
H781 C790 0.930 . S
H782 C792 0.930 . S
H783 C795 0.929 . S
H784 C798 0.930 . S
H785 C800 0.960 1_565 S
H786 C800 0.960 . S
H787 C800 0.960 . S
C788 H780 0.929 . S
C788 C789 1.377 . S
C788 C790 1.384 . S
C789 C788 1.377 . S
C789 C795 1.390 . S
C790 H781 0.930 . S
C790 C788 1.384 . S
C790 C791 1.372 . S
C791 C790 1.372 . S
C791 C792 1.400 . S
C791 C796 1.490 . S
C792 H782 0.930 . S
C792 C791 1.400 . S
C792 C795 1.386 . S
H793 C809 0.930 . S
H794 C810 0.931 . S
C795 H783 0.929 . S
C795 C789 1.390 . S
C795 C792 1.386 . S
C796 C791 1.490 . S
C796 C798 1.395 . S
C796 C799 1.403 . S
H797 C803 0.930 . S
C798 H784 0.930 . S
C798 C796 1.395 . S
C798 C801 1.403 . S
C799 C796 1.403 . S
C799 C800 1.524 . S
C799 C803 1.400 1_545 S
C800 H785 0.960 1_545 S
C800 H786 0.960 . S
C800 H787 0.960 . S
C800 C799 1.524 . S
C801 C798 1.403 . S
C801 C802 1.392 1_545 S
C801 C805 1.495 . S
C802 C801 1.392 1_565 S
C802 C803 1.385 . S
C802 C804 1.478 . S
C803 H797 0.930 . S
C803 C799 1.400 1_565 S
C803 C802 1.385 . S
C804 C802 1.478 . S
C804 C806 1.381 . S
C804 C810 1.383 . S
C805 C801 1.495 . S
C805 H811 0.959 . S
C805 H812 0.961 . S
C805 H813 0.960 . S
C806 C804 1.381 . S
C806 C807 1.394 . S
C806 H814 0.930 . S
C807 C806 1.394 . S
C807 C808 1.383 . S
C807 H815 0.929 . S
C808 C807 1.383 . S
C808 C809 1.377 . S
C809 H793 0.930 . S
C809 C808 1.377 . S
C809 C810 1.379 . S
C810 H794 0.931 . S
C810 C804 1.383 . S
C810 C809 1.379 . S
H811 C805 0.959 . S
H812 C805 0.961 . S
H813 C805 0.960 . S
H814 C806 0.930 . S
H815 C807 0.929 . S
H816 C824 0.929 . S
H817 C826 0.930 . S
H818 C828 0.930 . S
H819 C831 0.929 . S
H820 C834 0.930 . S
H821 C836 0.960 . S
H822 C836 0.960 . S
H823 C836 0.960 . S
C824 H816 0.929 . S
C824 C825 1.377 . S
C824 C826 1.384 . S
C825 C824 1.377 . S
C825 C831 1.390 . S
C826 H817 0.930 . S
C826 C824 1.384 . S
C826 C827 1.372 . S
C827 C826 1.372 . S
C827 C828 1.400 . S
C827 C832 1.490 . S
C828 H818 0.930 . S
C828 C827 1.400 . S
C828 C831 1.386 . S
H829 C845 0.930 . S
H830 C846 0.931 . S
C831 H819 0.929 . S
C831 C825 1.390 . S
C831 C828 1.386 . S
C832 C827 1.490 . S
C832 C834 1.395 . S
C832 C835 1.403 . S
H833 C839 0.930 . S
C834 H820 0.930 . S
C834 C832 1.395 . S
C834 C837 1.403 . S
C835 C832 1.403 . S
C835 C836 1.524 . S
C835 C839 1.400 . S
C836 H821 0.960 . S
C836 H822 0.960 . S
C836 H823 0.960 . S
C836 C835 1.524 . S
C837 C834 1.403 . S
C837 C838 1.392 . S
C837 C841 1.495 . S
C838 C837 1.392 . S
C838 C839 1.385 . S
C838 C840 1.478 . S
C839 H833 0.930 . S
C839 C835 1.400 . S
C839 C838 1.385 . S
C840 C838 1.478 . S
C840 C842 1.381 . S
C840 C846 1.383 . S
C841 C837 1.495 . S
C841 H847 0.959 . S
C841 H848 0.961 . S
C841 H849 0.960 . S
C842 C840 1.381 . S
C842 C843 1.394 . S
C842 H850 0.930 . S
C843 C842 1.394 . S
C843 C844 1.383 . S
C843 H851 0.929 . S
C844 C843 1.383 . S
C844 C845 1.377 . S
C845 H829 0.930 . S
C845 C844 1.377 . S
C845 C846 1.379 . S
C846 H830 0.931 . S
C846 C840 1.383 . S
C846 C845 1.379 . S
H847 C841 0.959 . S
H848 C841 0.961 . S
H849 C841 0.960 . S
H850 C842 0.930 . S
H851 C843 0.929 . S
H852 C860 0.929 . S
H853 C862 0.930 . S
H854 C864 0.930 . S
H855 C867 0.929 . S
H856 C870 0.930 . S
H857 C872 0.960 . S
H858 C872 0.960 . S
H859 C872 0.960 . S
C860 H852 0.929 . S
C860 C861 1.377 . S
C860 C862 1.384 . S
C861 C860 1.377 . S
C861 C867 1.390 . S
C862 H853 0.930 . S
C862 C860 1.384 . S
C862 C863 1.372 . S
C863 C862 1.372 . S
C863 C864 1.400 . S
C863 C868 1.490 . S
C864 H854 0.930 . S
C864 C863 1.400 . S
C864 C867 1.386 . S
H865 C881 0.930 . S
H866 C882 0.931 . S
C867 H855 0.929 . S
C867 C861 1.390 . S
C867 C864 1.386 . S
C868 C863 1.490 . S
C868 C870 1.395 . S
C868 C871 1.403 . S
H869 C875 0.930 . S
C870 H856 0.930 . S
C870 C868 1.395 . S
C870 C873 1.403 . S
C871 C868 1.403 . S
C871 C872 1.524 . S
C871 C875 1.400 . S
C872 H857 0.960 . S
C872 H858 0.960 . S
C872 H859 0.960 . S
C872 C871 1.524 . S
C873 C870 1.403 . S
C873 C874 1.392 . S
C873 C877 1.495 . S
C874 C873 1.392 . S
C874 C875 1.385 . S
C874 C876 1.478 . S
C875 H869 0.930 . S
C875 C871 1.400 . S
C875 C874 1.385 . S
C876 C874 1.478 . S
C876 C878 1.381 . S
C876 C882 1.383 . S
C877 C873 1.495 . S
C877 H883 0.959 . S
C877 H884 0.961 . S
C877 H885 0.960 . S
C878 C876 1.381 . S
C878 C879 1.394 . S
C878 H886 0.930 . S
C879 C878 1.394 . S
C879 C880 1.383 . S
C879 H887 0.929 . S
C880 C879 1.383 . S
C880 C881 1.377 . S
C881 H865 0.930 . S
C881 C880 1.377 . S
C881 C882 1.379 . S
C882 H866 0.931 . S
C882 C876 1.383 . S
C882 C881 1.379 . S
H883 C877 0.959 . S
H884 C877 0.961 . S
H885 C877 0.960 . S
H886 C878 0.930 . S
H887 C879 0.929 . S
H888 C896 0.929 . S
H889 C898 0.930 . S
H890 C900 0.930 . S
H891 C903 0.929 . S
H892 C906 0.930 . S
H893 C908 0.960 . S
H894 C908 0.960 . S
H895 C908 0.960 . S
C896 H888 0.929 . S
C896 C897 1.377 . S
C896 C898 1.384 . S
C897 C896 1.377 . S
C897 C903 1.390 . S
C898 H889 0.930 . S
C898 C896 1.384 . S
C898 C899 1.372 . S
C899 C898 1.372 . S
C899 C900 1.400 . S
C899 C904 1.490 . S
C900 H890 0.930 . S
C900 C899 1.400 . S
C900 C903 1.386 . S
H901 C917 0.930 . S
H902 C918 0.931 . S
C903 H891 0.929 . S
C903 C897 1.390 . S
C903 C900 1.386 . S
C904 C899 1.490 . S
C904 C906 1.395 . S
C904 C907 1.403 . S
H905 C911 0.930 . S
C906 H892 0.930 . S
C906 C904 1.395 . S
C906 C909 1.403 . S
C907 C904 1.403 . S
C907 C908 1.524 . S
C907 C911 1.400 . S
C908 H893 0.960 . S
C908 H894 0.960 . S
C908 H895 0.960 . S
C908 C907 1.524 . S
C909 C906 1.403 . S
C909 C910 1.392 . S
C909 C913 1.495 . S
C910 C909 1.392 . S
C910 C911 1.385 . S
C910 C912 1.478 . S
C911 H905 0.930 . S
C911 C907 1.400 . S
C911 C910 1.385 . S
C912 C910 1.478 . S
C912 C914 1.381 . S
C912 C918 1.383 . S
C913 C909 1.495 . S
C913 H919 0.959 . S
C913 H920 0.961 . S
C913 H921 0.960 . S
C914 C912 1.381 . S
C914 C915 1.394 . S
C914 H922 0.930 . S
C915 C914 1.394 . S
C915 C916 1.383 . S
C915 H923 0.929 . S
C916 C915 1.383 . S
C916 C917 1.377 . S
C917 H901 0.930 . S
C917 C916 1.377 . S
C917 C918 1.379 . S
C918 H902 0.931 . S
C918 C912 1.383 . S
C918 C917 1.379 . S
H919 C913 0.959 . S
H920 C913 0.961 . S
H921 C913 0.960 . S
H922 C914 0.930 . S
H923 C915 0.929 . S
H924 C932 0.929 . S
H925 C934 0.930 . S
H926 C936 0.930 . S
H927 C939 0.929 . S
H928 C942 0.930 . S
H929 C944 0.960 . S
H930 C944 0.960 . S
H931 C944 0.960 . S
C932 H924 0.929 . S
C932 C933 1.377 . S
C932 C934 1.384 . S
C933 C932 1.377 . S
C933 C939 1.390 . S
C934 H925 0.930 . S
C934 C932 1.384 . S
C934 C935 1.372 . S
C935 C934 1.372 . S
C935 C936 1.400 . S
C935 C940 1.490 . S
C936 H926 0.930 . S
C936 C935 1.400 . S
C936 C939 1.386 . S
H937 C953 0.930 . S
H938 C954 0.931 . S
C939 H927 0.929 . S
C939 C933 1.390 . S
C939 C936 1.386 . S
C940 C935 1.490 . S
C940 C942 1.395 . S
C940 C943 1.403 . S
H941 C947 0.930 . S
C942 H928 0.930 . S
C942 C940 1.395 . S
C942 C945 1.403 . S
C943 C940 1.403 . S
C943 C944 1.524 . S
C943 C947 1.400 . S
C944 H929 0.960 . S
C944 H930 0.960 . S
C944 H931 0.960 . S
C944 C943 1.524 . S
C945 C942 1.403 . S
C945 C946 1.392 . S
C945 C949 1.495 . S
C946 C945 1.392 . S
C946 C947 1.385 . S
C946 C948 1.478 . S
C947 H941 0.930 . S
C947 C943 1.400 . S
C947 C946 1.385 . S
C948 C946 1.478 . S
C948 C950 1.381 . S
C948 C954 1.383 . S
C949 C945 1.495 . S
C949 H955 0.959 . S
C949 H956 0.961 . S
C949 H957 0.960 . S
C950 C948 1.381 . S
C950 C951 1.394 . S
C950 H958 0.930 . S
C951 C950 1.394 . S
C951 C952 1.383 . S
C951 H959 0.929 . S
C952 C951 1.383 . S
C952 C953 1.377 . S
C953 H937 0.930 . S
C953 C952 1.377 . S
C953 C954 1.379 . S
C954 H938 0.931 . S
C954 C948 1.383 . S
C954 C953 1.379 . S
H955 C949 0.959 . S
H956 C949 0.961 . S
H957 C949 0.960 . S
H958 C950 0.930 . S
H959 C951 0.929 . S
H960 C968 0.929 . S
H961 C970 0.930 . S
H962 C972 0.930 . S
H963 C975 0.929 . S
H964 C978 0.930 . S
H965 C980 0.960 . S
H966 C980 0.960 . S
H967 C980 0.960 . S
C968 H960 0.929 . S
C968 C969 1.377 . S
C968 C970 1.384 . S
C969 C968 1.377 . S
C969 C975 1.390 . S
C970 H961 0.930 . S
C970 C968 1.384 . S
C970 C971 1.372 . S
C971 C970 1.372 . S
C971 C972 1.400 . S
C971 C976 1.490 . S
C972 H962 0.930 . S
C972 C971 1.400 . S
C972 C975 1.386 . S
H973 C989 0.930 . S
H974 C990 0.931 . S
C975 H963 0.929 . S
C975 C969 1.390 . S
C975 C972 1.386 . S
C976 C971 1.490 . S
C976 C978 1.395 . S
C976 C979 1.403 . S
H977 C983 0.930 . S
C978 H964 0.930 . S
C978 C976 1.395 . S
C978 C981 1.403 . S
C979 C976 1.403 . S
C979 C980 1.524 . S
C979 C983 1.400 . S
C980 H965 0.960 . S
C980 H966 0.960 . S
C980 H967 0.960 . S
C980 C979 1.524 . S
C981 C978 1.403 . S
C981 C982 1.392 . S
C981 C985 1.495 . S
C982 C981 1.392 . S
C982 C983 1.385 . S
C982 C984 1.478 . S
C983 H977 0.930 . S
C983 C979 1.400 . S
C983 C982 1.385 . S
C984 C982 1.478 . S
C984 C986 1.381 . S
C984 C990 1.383 . S
C985 C981 1.495 . S
C985 H991 0.959 . S
C985 H992 0.961 . S
C985 H993 0.960 . S
C986 C984 1.381 . S
C986 C987 1.394 . S
C986 H994 0.930 . S
C987 C986 1.394 . S
C987 C988 1.383 . S
C987 H995 0.929 . S
C988 C987 1.383 . S
C988 C989 1.377 . S
C989 H973 0.930 . S
C989 C988 1.377 . S
C989 C990 1.379 . S
C990 H974 0.931 . S
C990 C984 1.383 . S
C990 C989 1.379 . S
H991 C985 0.959 . S
H992 C985 0.961 . S
H993 C985 0.960 . S
H994 C986 0.930 . S
H995 C987 0.929 . S
H996 C1004 0.929 . S
H997 C1006 0.930 . S
H998 C1008 0.930 . S
H999 C1011 0.929 . S
H1000 C1014 0.930 . S
H1001 C1016 0.960 . S
H1002 C1016 0.960 . S
H1003 C1016 0.960 . S
C1004 H996 0.929 . S
C1004 C1005 1.377 . S
C1004 C1006 1.384 . S
C1005 C1004 1.377 . S
C1005 C1011 1.390 . S
C1006 H997 0.930 . S
C1006 C1004 1.384 . S
C1006 C1007 1.372 . S
C1007 C1006 1.372 . S
C1007 C1008 1.400 . S
C1007 C1012 1.490 . S
C1008 H998 0.930 . S
C1008 C1007 1.400 . S
C1008 C1011 1.386 . S
H1009 C1025 0.930 . S
H1010 C1026 0.931 . S
C1011 H999 0.929 . S
C1011 C1005 1.390 . S
C1011 C1008 1.386 . S
C1012 C1007 1.490 . S
C1012 C1014 1.395 . S
C1012 C1015 1.403 . S
H1013 C1019 0.930 . S
C1014 H1000 0.930 . S
C1014 C1012 1.395 . S
C1014 C1017 1.403 . S
C1015 C1012 1.403 . S
C1015 C1016 1.524 . S
C1015 C1019 1.400 . S
C1016 H1001 0.960 . S
C1016 H1002 0.960 . S
C1016 H1003 0.960 . S
C1016 C1015 1.524 . S
C1017 C1014 1.403 . S
C1017 C1018 1.392 . S
C1017 C1021 1.495 . S
C1018 C1017 1.392 . S
C1018 C1019 1.385 . S
C1018 C1020 1.478 . S
C1019 H1013 0.930 . S
C1019 C1015 1.400 . S
C1019 C1018 1.385 . S
C1020 C1018 1.478 . S
C1020 C1022 1.381 . S
C1020 C1026 1.383 . S
C1021 C1017 1.495 . S
C1021 H1027 0.959 . S
C1021 H1028 0.961 . S
C1021 H1029 0.960 . S
C1022 C1020 1.381 . S
C1022 C1023 1.394 . S
C1022 H1030 0.930 . S
C1023 C1022 1.394 . S
C1023 C1024 1.383 . S
C1023 H1031 0.929 . S
C1024 C1023 1.383 . S
C1024 C1025 1.377 . S
C1025 H1009 0.930 . S
C1025 C1024 1.377 . S
C1025 C1026 1.379 . S
C1026 H1010 0.931 . S
C1026 C1020 1.383 . S
C1026 C1025 1.379 . S
H1027 C1021 0.959 . S
H1028 C1021 0.961 . S
H1029 C1021 0.960 . S
H1030 C1022 0.930 . S
H1031 C1023 0.929 . S
H1032 C1040 0.929 . S
H1033 C1042 0.930 . S
H1034 C1044 0.930 . S
H1035 C1047 0.929 . S
H1036 C1050 0.930 . S
H1037 C1052 0.960 . S
H1038 C1052 0.960 . S
H1039 C1052 0.960 . S
C1040 H1032 0.929 . S
C1040 C1041 1.377 . S
C1040 C1042 1.384 . S
C1041 C1040 1.377 . S
C1041 C1047 1.390 . S
C1042 H1033 0.930 . S
C1042 C1040 1.384 . S
C1042 C1043 1.372 . S
C1043 C1042 1.372 . S
C1043 C1044 1.400 . S
C1043 C1048 1.490 . S
C1044 H1034 0.930 . S
C1044 C1043 1.400 . S
C1044 C1047 1.386 . S
H1045 C1061 0.930 . S
H1046 C1062 0.931 . S
C1047 H1035 0.929 . S
C1047 C1041 1.390 . S
C1047 C1044 1.386 . S
C1048 C1043 1.490 . S
C1048 C1050 1.395 . S
C1048 C1051 1.403 . S
H1049 C1055 0.930 . S
C1050 H1036 0.930 . S
C1050 C1048 1.395 . S
C1050 C1053 1.403 . S
C1051 C1048 1.403 . S
C1051 C1052 1.524 . S
C1051 C1055 1.400 . S
C1052 H1037 0.960 . S
C1052 H1038 0.960 . S
C1052 H1039 0.960 . S
C1052 C1051 1.524 . S
C1053 C1050 1.403 . S
C1053 C1054 1.392 . S
C1053 C1057 1.495 . S
C1054 C1053 1.392 . S
C1054 C1055 1.385 . S
C1054 C1056 1.478 . S
C1055 H1049 0.930 . S
C1055 C1051 1.400 . S
C1055 C1054 1.385 . S
C1056 C1054 1.478 . S
C1056 C1058 1.381 . S
C1056 C1062 1.383 . S
C1057 C1053 1.495 . S
C1057 H1063 0.959 . S
C1057 H1064 0.961 . S
C1057 H1065 0.960 . S
C1058 C1056 1.381 . S
C1058 C1059 1.394 . S
C1058 H1066 0.930 . S
C1059 C1058 1.394 . S
C1059 C1060 1.383 . S
C1059 H1067 0.929 . S
C1060 C1059 1.383 . S
C1060 C1061 1.377 . S
C1061 H1045 0.930 . S
C1061 C1060 1.377 . S
C1061 C1062 1.379 . S
C1062 H1046 0.931 . S
C1062 C1056 1.383 . S
C1062 C1061 1.379 . S
H1063 C1057 0.959 . S
H1064 C1057 0.961 . S
H1065 C1057 0.960 . S
H1066 C1058 0.930 . S
H1067 C1059 0.929 . S
H1068 C1076 0.929 . S
H1069 C1078 0.930 . S
H1070 C1080 0.930 . S
H1071 C1083 0.929 . S
H1072 C1086 0.930 . S
H1073 C1088 0.960 . S
H1074 C1088 0.960 . S
H1075 C1088 0.960 . S
C1076 H1068 0.929 . S
C1076 C1077 1.377 . S
C1076 C1078 1.384 . S
C1077 C1076 1.377 . S
C1077 C1083 1.390 . S
C1078 H1069 0.930 . S
C1078 C1076 1.384 . S
C1078 C1079 1.372 . S
C1079 C1078 1.372 . S
C1079 C1080 1.400 . S
C1079 C1084 1.490 . S
C1080 H1070 0.930 . S
C1080 C1079 1.400 . S
C1080 C1083 1.386 . S
H1081 C1097 0.930 . S
H1082 C1098 0.931 . S
C1083 H1071 0.929 . S
C1083 C1077 1.390 . S
C1083 C1080 1.386 . S
C1084 C1079 1.490 . S
C1084 C1086 1.395 . S
C1084 C1087 1.403 . S
H1085 C1091 0.930 . S
C1086 H1072 0.930 . S
C1086 C1084 1.395 . S
C1086 C1089 1.403 . S
C1087 C1084 1.403 . S
C1087 C1088 1.524 . S
C1087 C1091 1.400 . S
C1088 H1073 0.960 . S
C1088 H1074 0.960 . S
C1088 H1075 0.960 . S
C1088 C1087 1.524 . S
C1089 C1086 1.403 . S
C1089 C1090 1.392 . S
C1089 C1093 1.495 . S
C1090 C1089 1.392 . S
C1090 C1091 1.385 . S
C1090 C1092 1.478 . S
C1091 H1085 0.930 . S
C1091 C1087 1.400 . S
C1091 C1090 1.385 . S
C1092 C1090 1.478 . S
C1092 C1094 1.381 . S
C1092 C1098 1.383 . S
C1093 C1089 1.495 . S
C1093 H1099 0.959 . S
C1093 H1100 0.961 . S
C1093 H1101 0.960 . S
C1094 C1092 1.381 . S
C1094 C1095 1.394 . S
C1094 H1102 0.930 . S
C1095 C1094 1.394 . S
C1095 C1096 1.383 . S
C1095 H1103 0.929 . S
C1096 C1095 1.383 . S
C1096 C1097 1.377 . S
C1097 H1081 0.930 . S
C1097 C1096 1.377 . S
C1097 C1098 1.379 . S
C1098 H1082 0.931 . S
C1098 C1092 1.383 . S
C1098 C1097 1.379 . S
H1099 C1093 0.959 . S
H1100 C1093 0.961 . S
H1101 C1093 0.960 . S
H1102 C1094 0.930 . S
H1103 C1095 0.929 . S
H1104 C1112 0.929 . S
H1105 C1114 0.930 . S
H1106 C1116 0.930 . S
H1107 C1119 0.929 . S
H1108 C1122 0.930 . S
H1109 C1124 0.960 . S
H1110 C1124 0.960 . S
H1111 C1124 0.960 . S
C1112 H1104 0.929 . S
C1112 C1113 1.377 . S
C1112 C1114 1.384 . S
C1113 C1112 1.377 . S
C1113 C1119 1.390 . S
C1114 H1105 0.930 . S
C1114 C1112 1.384 . S
C1114 C1115 1.372 . S
C1115 C1114 1.372 . S
C1115 C1116 1.400 . S
C1115 C1120 1.490 . S
C1116 H1106 0.930 . S
C1116 C1115 1.400 . S
C1116 C1119 1.386 . S
H1117 C1133 0.930 . S
H1118 C1134 0.931 . S
C1119 H1107 0.929 . S
C1119 C1113 1.390 . S
C1119 C1116 1.386 . S
C1120 C1115 1.490 . S
C1120 C1122 1.395 . S
C1120 C1123 1.403 . S
H1121 C1127 0.930 . S
C1122 H1108 0.930 . S
C1122 C1120 1.395 . S
C1122 C1125 1.403 1_554 S
C1123 C1120 1.403 . S
C1123 C1124 1.524 . S
C1123 C1127 1.400 1_554 S
C1124 H1109 0.960 . S
C1124 H1110 0.960 . S
C1124 H1111 0.960 . S
C1124 C1123 1.524 . S
C1125 C1122 1.403 1_556 S
C1125 C1126 1.392 . S
C1125 C1129 1.495 . S
C1126 C1125 1.392 . S
C1126 C1127 1.385 . S
C1126 C1128 1.478 . S
C1127 H1121 0.930 . S
C1127 C1123 1.400 1_556 S
C1127 C1126 1.385 . S
C1128 C1126 1.478 . S
C1128 C1130 1.381 . S
C1128 C1134 1.383 . S
C1129 C1125 1.495 . S
C1129 H1135 0.959 . S
C1129 H1136 0.961 . S
C1129 H1137 0.960 . S
C1130 C1128 1.381 . S
C1130 C1131 1.394 . S
C1130 H1138 0.930 . S
C1131 C1130 1.394 . S
C1131 C1132 1.383 . S
C1131 H1139 0.929 . S
C1132 C1131 1.383 . S
C1132 C1133 1.377 . S
C1133 H1117 0.930 . S
C1133 C1132 1.377 . S
C1133 C1134 1.379 . S
C1134 H1118 0.931 . S
C1134 C1128 1.383 . S
C1134 C1133 1.379 . S
H1135 C1129 0.959 . S
H1136 C1129 0.961 . S
H1137 C1129 0.960 . S
H1138 C1130 0.930 . S
H1139 C1131 0.929 . S
H1140 C1148 0.929 . S
H1141 C1150 0.930 . S
H1142 C1152 0.930 . S
H1143 C1155 0.929 . S
H1144 C1158 0.930 . S
H1145 C1160 0.944 1_554 S
H1146 C1160 0.960 . S
H1147 C1160 0.960 . S
C1148 H1140 0.929 . S
C1148 C1149 1.377 . S
C1148 C1150 1.384 . S
C1149 C1148 1.377 . S
C1149 C1155 1.390 . S
C1150 H1141 0.930 . S
C1150 C1148 1.384 . S
C1150 C1151 1.372 . S
C1151 C1150 1.372 . S
C1151 C1152 1.400 . S
C1151 C1156 1.490 . S
C1152 H1142 0.930 . S
C1152 C1151 1.400 . S
C1152 C1155 1.386 . S
H1153 C1169 0.930 . S
H1154 C1170 0.931 . S
C1155 H1143 0.929 . S
C1155 C1149 1.390 . S
C1155 C1152 1.386 . S
C1156 C1151 1.490 . S
C1156 C1158 1.395 . S
C1156 C1159 1.403 . S
H1157 C1163 0.930 . S
C1158 H1144 0.930 . S
C1158 C1156 1.395 . S
C1158 C1161 1.403 1_556 S
C1159 C1156 1.403 . S
C1159 C1160 1.524 . S
C1159 C1163 1.400 1_556 S
C1160 H1145 0.944 1_556 S
C1160 H1146 0.960 . S
C1160 H1147 0.960 . S
C1160 C1159 1.524 . S
C1161 C1158 1.403 1_554 S
C1161 C1162 1.392 . S
C1161 C1165 1.495 . S
C1162 C1161 1.392 . S
C1162 C1163 1.385 . S
C1162 C1164 1.478 . S
C1163 H1157 0.930 . S
C1163 C1159 1.400 1_554 S
C1163 C1162 1.385 . S
C1164 C1162 1.478 . S
C1164 C1166 1.381 . S
C1164 C1170 1.383 . S
C1165 C1161 1.495 . S
C1165 H1171 0.959 . S
C1165 H1172 0.961 . S
C1165 H1173 0.960 . S
C1166 C1164 1.381 . S
C1166 C1167 1.394 . S
C1166 H1174 0.930 . S
C1167 C1166 1.394 . S
C1167 C1168 1.383 . S
C1167 H1175 0.929 . S
C1168 C1167 1.383 . S
C1168 C1169 1.377 . S
C1169 H1153 0.930 . S
C1169 C1168 1.377 . S
C1169 C1170 1.379 . S
C1170 H1154 0.931 . S
C1170 C1164 1.383 . S
C1170 C1169 1.379 . S
H1171 C1165 0.959 . S
H1172 C1165 0.961 . S
H1173 C1165 0.960 . S
H1174 C1166 0.930 . S
H1175 C1167 0.929 . S
H1176 C1184 0.929 . S
H1177 C1186 0.930 . S
H1178 C1188 0.930 . S
H1179 C1191 0.929 . S
H1180 C1194 0.930 . S
H1181 C1196 0.960 . S
H1182 C1196 0.960 . S
H1183 C1196 0.960 . S
C1184 H1176 0.929 . S
C1184 C1185 1.377 . S
C1184 C1186 1.384 . S
C1185 C1184 1.377 . S
C1185 C1191 1.390 . S
C1186 H1177 0.930 . S
C1186 C1184 1.384 . S
C1186 C1187 1.372 . S
C1187 C1186 1.372 . S
C1187 C1188 1.400 . S
C1187 C1192 1.490 . S
C1188 H1178 0.930 . S
C1188 C1187 1.400 . S
C1188 C1191 1.386 . S
H1189 C1205 0.930 . S
H1190 C1206 0.931 . S
C1191 H1179 0.929 . S
C1191 C1185 1.390 . S
C1191 C1188 1.386 . S
C1192 C1187 1.490 . S
C1192 C1194 1.395 . S
C1192 C1195 1.403 . S
H1193 C1199 0.930 . S
C1194 H1180 0.930 . S
C1194 C1192 1.395 . S
C1194 C1197 1.403 1_556 S
C1195 C1192 1.403 . S
C1195 C1196 1.524 . S
C1195 C1199 1.400 1_556 S
C1196 H1181 0.960 . S
C1196 H1182 0.960 . S
C1196 H1183 0.960 . S
C1196 C1195 1.524 . S
C1197 C1194 1.403 1_554 S
C1197 C1198 1.392 . S
C1197 C1201 1.495 . S
C1198 C1197 1.392 . S
C1198 C1199 1.385 . S
C1198 C1200 1.478 . S
C1199 H1193 0.930 . S
C1199 C1195 1.400 1_554 S
C1199 C1198 1.385 . S
C1200 C1198 1.478 . S
C1200 C1202 1.381 . S
C1200 C1206 1.383 . S
C1201 C1197 1.495 . S
C1201 H1207 0.959 . S
C1201 H1208 0.961 . S
C1201 H1209 0.960 . S
C1202 C1200 1.381 . S
C1202 C1203 1.394 . S
C1202 H1210 0.930 . S
C1203 C1202 1.394 . S
C1203 C1204 1.383 . S
C1203 H1211 0.929 . S
C1204 C1203 1.383 . S
C1204 C1205 1.377 . S
C1205 H1189 0.930 . S
C1205 C1204 1.377 . S
C1205 C1206 1.379 . S
C1206 H1190 0.931 . S
C1206 C1200 1.383 . S
C1206 C1205 1.379 . S
H1207 C1201 0.959 . S
H1208 C1201 0.961 . S
H1209 C1201 0.960 . S
H1210 C1202 0.930 . S
H1211 C1203 0.929 . S
H1212 C1220 0.929 . S
H1213 C1222 0.930 . S
H1214 C1224 0.930 . S
H1215 C1227 0.929 . S
H1216 C1230 0.930 . S
H1217 C1232 0.960 . S
H1218 C1232 0.960 . S
H1219 C1232 0.960 . S
C1220 H1212 0.929 . S
C1220 C1221 1.377 . S
C1220 C1222 1.384 . S
C1221 C1220 1.377 . S
C1221 C1227 1.390 . S
C1222 H1213 0.930 . S
C1222 C1220 1.384 . S
C1222 C1223 1.372 . S
C1223 C1222 1.372 . S
C1223 C1224 1.400 . S
C1223 C1228 1.490 . S
C1224 H1214 0.930 . S
C1224 C1223 1.400 . S
C1224 C1227 1.386 . S
H1225 C1241 0.930 . S
H1226 C1242 0.931 . S
C1227 H1215 0.929 . S
C1227 C1221 1.390 . S
C1227 C1224 1.386 . S
C1228 C1223 1.490 . S
C1228 C1230 1.395 . S
C1228 C1231 1.403 . S
H1229 C1235 0.930 . S
C1230 H1216 0.930 . S
C1230 C1228 1.395 . S
C1230 C1233 1.403 1_556 S
C1231 C1228 1.403 . S
C1231 C1232 1.524 . S
C1231 C1235 1.400 1_556 S
C1232 H1217 0.960 . S
C1232 H1218 0.960 . S
C1232 H1219 0.960 . S
C1232 C1231 1.524 . S
C1233 C1230 1.403 1_554 S
C1233 C1234 1.392 . S
C1233 C1237 1.495 . S
C1234 C1233 1.392 . S
C1234 C1235 1.385 . S
C1234 C1236 1.478 . S
C1235 H1229 0.930 . S
C1235 C1231 1.400 1_554 S
C1235 C1234 1.385 . S
C1236 C1234 1.478 . S
C1236 C1238 1.381 . S
C1236 C1242 1.383 . S
C1237 C1233 1.495 . S
C1237 H1243 0.930 1_554 S
C1237 H1244 0.961 . S
C1237 H1245 0.960 . S
C1238 C1236 1.381 . S
C1238 C1239 1.394 . S
C1238 H1246 0.930 . S
C1239 C1238 1.394 . S
C1239 C1240 1.383 . S
C1239 H1247 0.929 . S
C1240 C1239 1.383 . S
C1240 C1241 1.377 . S
C1241 H1225 0.930 . S
C1241 C1240 1.377 . S
C1241 C1242 1.379 . S
C1242 H1226 0.931 . S
C1242 C1236 1.383 . S
C1242 C1241 1.379 . S
H1243 C1237 0.930 1_556 S
H1244 C1237 0.961 . S
H1245 C1237 0.960 . S
H1246 C1238 0.930 . S
H1247 C1239 0.929 . S
H1248 C1256 0.929 . S
H1249 C1258 0.930 . S
H1250 C1260 0.930 . S
H1251 C1263 0.929 . S
H1252 C1266 0.930 . S
H1253 C1268 0.960 . S
H1254 C1268 0.960 . S
H1255 C1268 0.960 . S
C1256 H1248 0.929 . S
C1256 C1257 1.377 . S
C1256 C1258 1.384 . S
C1257 C1256 1.377 . S
C1257 C1263 1.390 . S
C1258 H1249 0.930 . S
C1258 C1256 1.384 . S
C1258 C1259 1.372 . S
C1259 C1258 1.372 . S
C1259 C1260 1.400 . S
C1259 C1264 1.490 . S
C1260 H1250 0.930 . S
C1260 C1259 1.400 . S
C1260 C1263 1.386 . S
H1261 C1277 0.930 . S
H1262 C1278 0.931 . S
C1263 H1251 0.929 . S
C1263 C1257 1.390 . S
C1263 C1260 1.386 . S
C1264 C1259 1.490 . S
C1264 C1266 1.395 . S
C1264 C1267 1.403 . S
H1265 C1271 0.930 . S
C1266 H1252 0.930 . S
C1266 C1264 1.395 . S
C1266 C1269 1.403 . S
C1267 C1264 1.403 . S
C1267 C1268 1.524 . S
C1267 C1271 1.400 . S
C1268 H1253 0.960 . S
C1268 H1254 0.960 . S
C1268 H1255 0.960 . S
C1268 C1267 1.524 . S
C1269 C1266 1.403 . S
C1269 C1270 1.392 . S
C1269 C1273 1.495 . S
C1270 C1269 1.392 . S
C1270 C1271 1.385 . S
C1270 C1272 1.478 . S
C1271 H1265 0.930 . S
C1271 C1267 1.400 . S
C1271 C1270 1.385 . S
C1272 C1270 1.478 . S
C1272 C1274 1.381 . S
C1272 C1278 1.383 . S
C1273 C1269 1.495 . S
C1273 H1279 0.959 . S
C1273 H1280 0.961 . S
C1273 H1281 0.960 . S
C1274 C1272 1.381 . S
C1274 C1275 1.394 . S
C1274 H1282 0.930 . S
C1275 C1274 1.394 . S
C1275 C1276 1.383 . S
C1275 H1283 0.929 . S
C1276 C1275 1.383 . S
C1276 C1277 1.377 . S
C1277 H1261 0.930 . S
C1277 C1276 1.377 . S
C1277 C1278 1.379 . S
C1278 H1262 0.931 . S
C1278 C1272 1.383 . S
C1278 C1277 1.379 . S
H1279 C1273 0.959 . S
H1280 C1273 0.961 . S
H1281 C1273 0.960 . S
H1282 C1274 0.930 . S
H1283 C1275 0.929 . S
H1284 C1292 0.929 . S
H1285 C1294 0.930 . S
H1286 C1296 0.930 . S
H1287 C1299 0.929 . S
H1288 C1302 0.930 . S
H1289 C1304 0.960 . S
H1290 C1304 0.960 . S
H1291 C1304 0.960 . S
C1292 H1284 0.929 . S
C1292 C1293 1.377 . S
C1292 C1294 1.384 . S
C1293 C1292 1.377 . S
C1293 C1299 1.390 . S
C1294 H1285 0.930 . S
C1294 C1292 1.384 . S
C1294 C1295 1.372 . S
C1295 C1294 1.372 . S
C1295 C1296 1.400 . S
C1295 C1300 1.490 . S
C1296 H1286 0.930 . S
C1296 C1295 1.400 . S
C1296 C1299 1.386 . S
H1297 C1313 0.930 . S
H1298 C1314 0.931 . S
C1299 H1287 0.929 . S
C1299 C1293 1.390 . S
C1299 C1296 1.386 . S
C1300 C1295 1.490 . S
C1300 C1302 1.395 . S
C1300 C1303 1.403 . S
H1301 C1307 0.930 . S
C1302 H1288 0.930 . S
C1302 C1300 1.395 . S
C1302 C1305 1.403 . S
C1303 C1300 1.403 . S
C1303 C1304 1.524 . S
C1303 C1307 1.400 . S
C1304 H1289 0.960 . S
C1304 H1290 0.960 . S
C1304 H1291 0.960 . S
C1304 C1303 1.524 . S
C1305 C1302 1.403 . S
C1305 C1306 1.392 . S
C1305 C1309 1.495 . S
C1306 C1305 1.392 . S
C1306 C1307 1.385 . S
C1306 C1308 1.478 . S
C1307 H1301 0.930 . S
C1307 C1303 1.400 . S
C1307 C1306 1.385 . S
C1308 C1306 1.478 . S
C1308 C1310 1.381 . S
C1308 C1314 1.383 . S
C1309 C1305 1.495 . S
C1309 H1315 0.959 . S
C1309 H1316 0.961 . S
C1309 H1317 0.960 . S
C1310 C1308 1.381 . S
C1310 C1311 1.394 . S
C1310 H1318 0.930 . S
C1311 C1310 1.394 . S
C1311 C1312 1.383 . S
C1311 H1319 0.929 . S
C1312 C1311 1.383 . S
C1312 C1313 1.377 . S
C1313 H1297 0.930 . S
C1313 C1312 1.377 . S
C1313 C1314 1.379 . S
C1314 H1298 0.931 . S
C1314 C1308 1.383 . S
C1314 C1313 1.379 . S
H1315 C1309 0.959 . S
H1316 C1309 0.961 . S
H1317 C1309 0.960 . S
H1318 C1310 0.930 . S
H1319 C1311 0.929 . S
H1320 C1328 0.929 . S
H1321 C1330 0.930 . S
H1322 C1332 0.930 . S
H1323 C1335 0.929 . S
H1324 C1338 0.930 . S
H1325 C1340 0.960 . S
H1326 C1340 0.960 . S
H1327 C1340 0.960 . S
C1328 H1320 0.929 . S
C1328 C1329 1.377 . S
C1328 C1330 1.384 . S
C1329 C1328 1.377 . S
C1329 C1335 1.390 . S
C1330 H1321 0.930 . S
C1330 C1328 1.384 . S
C1330 C1331 1.372 . S
C1331 C1330 1.372 . S
C1331 C1332 1.400 . S
C1331 C1336 1.490 . S
C1332 H1322 0.930 . S
C1332 C1331 1.400 . S
C1332 C1335 1.386 . S
H1333 C1349 0.930 . S
H1334 C1350 0.931 . S
C1335 H1323 0.929 . S
C1335 C1329 1.390 . S
C1335 C1332 1.386 . S
C1336 C1331 1.490 . S
C1336 C1338 1.395 . S
C1336 C1339 1.403 . S
H1337 C1343 0.930 . S
C1338 H1324 0.930 . S
C1338 C1336 1.395 . S
C1338 C1341 1.403 . S
C1339 C1336 1.403 . S
C1339 C1340 1.524 . S
C1339 C1343 1.400 . S
C1340 H1325 0.960 . S
C1340 H1326 0.960 . S
C1340 H1327 0.960 . S
C1340 C1339 1.524 . S
C1341 C1338 1.403 . S
C1341 C1342 1.392 . S
C1341 C1345 1.495 . S
C1342 C1341 1.392 . S
C1342 C1343 1.385 . S
C1342 C1344 1.478 . S
C1343 H1337 0.930 . S
C1343 C1339 1.400 . S
C1343 C1342 1.385 . S
C1344 C1342 1.478 . S
C1344 C1346 1.381 . S
C1344 C1350 1.383 . S
C1345 C1341 1.495 . S
C1345 H1351 0.959 . S
C1345 H1352 0.961 . S
C1345 H1353 0.960 . S
C1346 C1344 1.381 . S
C1346 C1347 1.394 . S
C1346 H1354 0.930 . S
C1347 C1346 1.394 . S
C1347 C1348 1.383 . S
C1347 H1355 0.929 . S
C1348 C1347 1.383 . S
C1348 C1349 1.377 . S
C1349 H1333 0.930 . S
C1349 C1348 1.377 . S
C1349 C1350 1.379 . S
C1350 H1334 0.931 . S
C1350 C1344 1.383 . S
C1350 C1349 1.379 . S
H1351 C1345 0.959 . S
H1352 C1345 0.961 . S
H1353 C1345 0.960 . S
H1354 C1346 0.930 . S
H1355 C1347 0.929 . S
H1356 C1364 0.929 . S
H1357 C1366 0.930 . S
H1358 C1368 0.930 . S
H1359 C1371 0.929 . S
H1360 C1374 0.930 . S
H1361 C1376 0.960 . S
H1362 C1376 0.960 . S
H1363 C1376 0.960 . S
C1364 H1356 0.929 . S
C1364 C1365 1.377 . S
C1364 C1366 1.384 . S
C1365 C1364 1.377 . S
C1365 C1371 1.390 . S
C1366 H1357 0.930 . S
C1366 C1364 1.384 . S
C1366 C1367 1.372 . S
C1367 C1366 1.372 . S
C1367 C1368 1.400 . S
C1367 C1372 1.490 . S
C1368 H1358 0.930 . S
C1368 C1367 1.400 . S
C1368 C1371 1.386 . S
H1369 C1385 0.930 . S
H1370 C1386 0.931 . S
C1371 H1359 0.929 . S
C1371 C1365 1.390 . S
C1371 C1368 1.386 . S
C1372 C1367 1.490 . S
C1372 C1374 1.395 . S
C1372 C1375 1.403 . S
H1373 C1379 0.930 . S
C1374 H1360 0.930 . S
C1374 C1372 1.395 . S
C1374 C1377 1.403 . S
C1375 C1372 1.403 . S
C1375 C1376 1.524 . S
C1375 C1379 1.400 . S
C1376 H1361 0.960 . S
C1376 H1362 0.960 . S
C1376 H1363 0.960 . S
C1376 C1375 1.524 . S
C1377 C1374 1.403 . S
C1377 C1378 1.392 . S
C1377 C1381 1.495 . S
C1378 C1377 1.392 . S
C1378 C1379 1.385 . S
C1378 C1380 1.478 . S
C1379 H1373 0.930 . S
C1379 C1375 1.400 . S
C1379 C1378 1.385 . S
C1380 C1378 1.478 . S
C1380 C1382 1.381 . S
C1380 C1386 1.383 . S
C1381 C1377 1.495 . S
C1381 H1387 0.959 . S
C1381 H1388 0.961 . S
C1381 H1389 0.960 . S
C1382 C1380 1.381 . S
C1382 C1383 1.394 . S
C1382 H1390 0.930 . S
C1383 C1382 1.394 . S
C1383 C1384 1.383 . S
C1383 H1391 0.929 . S
C1384 C1383 1.383 . S
C1384 C1385 1.377 . S
C1385 H1369 0.930 . S
C1385 C1384 1.377 . S
C1385 C1386 1.379 . S
C1386 H1370 0.931 . S
C1386 C1380 1.383 . S
C1386 C1385 1.379 . S
H1387 C1381 0.959 . S
H1388 C1381 0.961 . S
H1389 C1381 0.960 . S
H1390 C1382 0.930 . S
H1391 C1383 0.929 . S
H1392 C1400 0.929 . S
H1393 C1402 0.930 . S
H1394 C1404 0.930 . S
H1395 C1407 0.929 . S
H1396 C1410 0.930 . S
H1397 C1412 0.960 . S
H1398 C1412 0.960 . S
H1399 C1412 0.960 . S
C1400 H1392 0.929 . S
C1400 C1401 1.377 . S
C1400 C1402 1.384 . S
C1401 C1400 1.377 . S
C1401 C1407 1.390 . S
C1402 H1393 0.930 . S
C1402 C1400 1.384 . S
C1402 C1403 1.372 . S
C1403 C1402 1.372 . S
C1403 C1404 1.400 . S
C1403 C1408 1.490 . S
C1404 H1394 0.930 . S
C1404 C1403 1.400 . S
C1404 C1407 1.386 . S
H1405 C1421 0.930 . S
H1406 C1422 0.931 . S
C1407 H1395 0.929 . S
C1407 C1401 1.390 . S
C1407 C1404 1.386 . S
C1408 C1403 1.490 . S
C1408 C1410 1.395 . S
C1408 C1411 1.403 . S
H1409 C1415 0.930 . S
C1410 H1396 0.930 . S
C1410 C1408 1.395 . S
C1410 C1413 1.403 . S
C1411 C1408 1.403 . S
C1411 C1412 1.524 . S
C1411 C1415 1.400 . S
C1412 H1397 0.960 . S
C1412 H1398 0.960 . S
C1412 H1399 0.960 . S
C1412 C1411 1.524 . S
C1413 C1410 1.403 . S
C1413 C1414 1.392 . S
C1413 C1417 1.495 . S
C1414 C1413 1.392 . S
C1414 C1415 1.385 . S
C1414 C1416 1.478 . S
C1415 H1409 0.930 . S
C1415 C1411 1.400 . S
C1415 C1414 1.385 . S
C1416 C1414 1.478 . S
C1416 C1418 1.381 . S
C1416 C1422 1.383 . S
C1417 C1413 1.495 . S
C1417 H1423 0.959 . S
C1417 H1424 0.961 . S
C1417 H1425 0.960 . S
C1418 C1416 1.381 . S
C1418 C1419 1.394 . S
C1418 H1426 0.930 . S
C1419 C1418 1.394 . S
C1419 C1420 1.383 . S
C1419 H1427 0.929 . S
C1420 C1419 1.383 . S
C1420 C1421 1.377 . S
C1421 H1405 0.930 . S
C1421 C1420 1.377 . S
C1421 C1422 1.379 . S
C1422 H1406 0.931 . S
C1422 C1416 1.383 . S
C1422 C1421 1.379 . S
H1423 C1417 0.959 . S
H1424 C1417 0.961 . S
H1425 C1417 0.960 . S
H1426 C1418 0.930 . S
H1427 C1419 0.929 . S
H1428 C1436 0.929 . S
H1429 C1438 0.930 . S
H1430 C1440 0.930 . S
H1431 C1443 0.929 . S
H1432 C1446 0.930 . S
H1433 C1448 0.960 . S
H1434 C1448 0.960 . S
H1435 C1448 0.960 . S
C1436 H1428 0.929 . S
C1436 C1437 1.377 . S
C1436 C1438 1.384 . S
C1437 C1436 1.377 . S
C1437 C1443 1.390 . S
C1438 H1429 0.930 . S
C1438 C1436 1.384 . S
C1438 C1439 1.372 . S
C1439 C1438 1.372 . S
C1439 C1440 1.400 . S
C1439 C1444 1.490 . S
C1440 H1430 0.930 . S
C1440 C1439 1.400 . S
C1440 C1443 1.386 . S
H1441 C1457 0.930 . S
H1442 C1458 0.931 . S
C1443 H1431 0.929 . S
C1443 C1437 1.390 . S
C1443 C1440 1.386 . S
C1444 C1439 1.490 . S
C1444 C1446 1.395 . S
C1444 C1447 1.403 . S
H1445 C1451 0.930 . S
C1446 H1432 0.930 . S
C1446 C1444 1.395 . S
C1446 C1449 1.403 . S
C1447 C1444 1.403 . S
C1447 C1448 1.524 . S
C1447 C1451 1.400 . S
C1448 H1433 0.960 . S
C1448 H1434 0.960 . S
C1448 H1435 0.960 . S
C1448 C1447 1.524 . S
C1449 C1446 1.403 . S
C1449 C1450 1.392 . S
C1449 C1453 1.495 . S
C1450 C1449 1.392 . S
C1450 C1451 1.385 . S
C1450 C1452 1.478 . S
C1451 H1445 0.930 . S
C1451 C1447 1.400 . S
C1451 C1450 1.385 . S
C1452 C1450 1.478 . S
C1452 C1454 1.381 . S
C1452 C1458 1.383 . S
C1453 C1449 1.495 . S
C1453 H1459 0.959 . S
C1453 H1460 0.961 . S
C1453 H1461 0.960 . S
C1454 C1452 1.381 . S
C1454 C1455 1.394 . S
C1454 H1462 0.930 . S
C1455 C1454 1.394 . S
C1455 C1456 1.383 . S
C1455 H1463 0.929 . S
C1456 C1455 1.383 . S
C1456 C1457 1.377 . S
C1457 H1441 0.930 . S
C1457 C1456 1.377 . S
C1457 C1458 1.379 . S
C1458 H1442 0.931 . S
C1458 C1452 1.383 . S
C1458 C1457 1.379 . S
H1459 C1453 0.959 . S
H1460 C1453 0.961 . S
H1461 C1453 0.960 . S
H1462 C1454 0.930 . S
H1463 C1455 0.929 . S
H1464 C1472 0.929 . S
H1465 C1474 0.930 . S
H1466 C1476 0.930 . S
H1467 C1479 0.929 . S
H1468 C1482 0.930 . S
H1469 C1484 0.960 . S
H1470 C1484 0.960 . S
H1471 C1484 0.960 . S
C1472 H1464 0.929 . S
C1472 C1473 1.377 . S
C1472 C1474 1.384 . S
C1473 C1472 1.377 . S
C1473 C1479 1.390 . S
C1474 H1465 0.930 . S
C1474 C1472 1.384 . S
C1474 C1475 1.372 . S
C1475 C1474 1.372 . S
C1475 C1476 1.400 . S
C1475 C1480 1.490 . S
C1476 H1466 0.930 . S
C1476 C1475 1.400 . S
C1476 C1479 1.386 . S
H1477 C1493 0.930 . S
H1478 C1494 0.931 . S
C1479 H1467 0.929 . S
C1479 C1473 1.390 . S
C1479 C1476 1.386 . S
C1480 C1475 1.490 . S
C1480 C1482 1.395 . S
C1480 C1483 1.403 . S
H1481 C1487 0.930 . S
C1482 H1468 0.930 . S
C1482 C1480 1.395 . S
C1482 C1485 1.403 . S
C1483 C1480 1.403 . S
C1483 C1484 1.524 . S
C1483 C1487 1.400 . S
C1484 H1469 0.960 . S
C1484 H1470 0.960 . S
C1484 H1471 0.960 . S
C1484 C1483 1.524 . S
C1485 C1482 1.403 . S
C1485 C1486 1.392 . S
C1485 C1489 1.495 . S
C1486 C1485 1.392 . S
C1486 C1487 1.385 . S
C1486 C1488 1.478 . S
C1487 H1481 0.930 . S
C1487 C1483 1.400 . S
C1487 C1486 1.385 . S
C1488 C1486 1.478 . S
C1488 C1490 1.381 . S
C1488 C1494 1.383 . S
C1489 C1485 1.495 . S
C1489 H1495 0.959 . S
C1489 H1496 0.961 . S
C1489 H1497 0.960 . S
C1490 C1488 1.381 . S
C1490 C1491 1.394 . S
C1490 H1498 0.930 . S
C1491 C1490 1.394 . S
C1491 C1492 1.383 . S
C1491 H1499 0.929 . S
C1492 C1491 1.383 . S
C1492 C1493 1.377 . S
C1493 H1477 0.930 . S
C1493 C1492 1.377 . S
C1493 C1494 1.379 . S
C1494 H1478 0.931 . S
C1494 C1488 1.383 . S
C1494 C1493 1.379 . S
H1495 C1489 0.959 . S
H1496 C1489 0.961 . S
H1497 C1489 0.960 . S
H1498 C1490 0.930 . S
H1499 C1491 0.929 . S
H1500 C1508 0.929 . S
H1501 C1510 0.930 . S
H1502 C1512 0.930 . S
H1503 C1515 0.929 . S
H1504 C1518 0.930 . S
H1505 C1520 0.960 . S
H1506 C1520 0.960 . S
H1507 C1520 0.960 . S
C1508 H1500 0.929 . S
C1508 C1509 1.377 . S
C1508 C1510 1.384 . S
C1509 C1508 1.377 . S
C1509 C1515 1.390 . S
C1510 H1501 0.930 . S
C1510 C1508 1.384 . S
C1510 C1511 1.372 . S
C1511 C1510 1.372 . S
C1511 C1512 1.400 . S
C1511 C1516 1.490 . S
C1512 H1502 0.930 . S
C1512 C1511 1.400 . S
C1512 C1515 1.386 . S
H1513 C1529 0.930 . S
H1514 C1530 0.931 . S
C1515 H1503 0.929 . S
C1515 C1509 1.390 . S
C1515 C1512 1.386 . S
C1516 C1511 1.490 . S
C1516 C1518 1.395 . S
C1516 C1519 1.403 . S
H1517 C1523 0.930 . S
C1518 H1504 0.930 . S
C1518 C1516 1.395 . S
C1518 C1521 1.403 . S
C1519 C1516 1.403 . S
C1519 C1520 1.524 . S
C1519 C1523 1.400 . S
C1520 H1505 0.960 . S
C1520 H1506 0.960 . S
C1520 H1507 0.960 . S
C1520 C1519 1.524 . S
C1521 C1518 1.403 . S
C1521 C1522 1.392 . S
C1521 C1525 1.495 . S
C1522 C1521 1.392 . S
C1522 C1523 1.385 . S
C1522 C1524 1.478 . S
C1523 H1517 0.930 . S
C1523 C1519 1.400 . S
C1523 C1522 1.385 . S
C1524 C1522 1.478 . S
C1524 C1526 1.381 . S
C1524 C1530 1.383 . S
C1525 C1521 1.495 . S
C1525 H1531 0.959 . S
C1525 H1532 0.961 . S
C1525 H1533 0.960 . S
C1526 C1524 1.381 . S
C1526 C1527 1.394 . S
C1526 H1534 0.930 . S
C1527 C1526 1.394 . S
C1527 C1528 1.383 . S
C1527 H1535 0.929 . S
C1528 C1527 1.383 . S
C1528 C1529 1.377 . S
C1529 H1513 0.930 . S
C1529 C1528 1.377 . S
C1529 C1530 1.379 . S
C1530 H1514 0.931 . S
C1530 C1524 1.383 . S
C1530 C1529 1.379 . S
H1531 C1525 0.959 . S
H1532 C1525 0.961 . S
H1533 C1525 0.960 . S
H1534 C1526 0.930 . S
H1535 C1527 0.929 . S
H1536 C1544 0.929 . S
H1537 C1546 0.930 . S
H1538 C1548 0.930 . S
H1539 C1551 0.929 . S
H1540 C1554 0.930 . S
H1541 C1556 0.960 . S
H1542 C1556 0.960 . S
H1543 C1556 0.960 . S
C1544 H1536 0.929 . S
C1544 C1545 1.377 . S
C1544 C1546 1.384 . S
C1545 C1544 1.377 . S
C1545 C1551 1.390 . S
C1546 H1537 0.930 . S
C1546 C1544 1.384 . S
C1546 C1547 1.372 . S
C1547 C1546 1.372 . S
C1547 C1548 1.400 . S
C1547 C1552 1.490 . S
C1548 H1538 0.930 . S
C1548 C1547 1.400 . S
C1548 C1551 1.386 . S
H1549 C1565 0.930 . S
H1550 C1566 0.931 . S
C1551 H1539 0.929 . S
C1551 C1545 1.390 . S
C1551 C1548 1.386 . S
C1552 C1547 1.490 . S
C1552 C1554 1.395 . S
C1552 C1555 1.403 . S
H1553 C1559 0.930 . S
C1554 H1540 0.930 . S
C1554 C1552 1.395 . S
C1554 C1557 1.403 . S
C1555 C1552 1.403 . S
C1555 C1556 1.524 . S
C1555 C1559 1.400 . S
C1556 H1541 0.960 . S
C1556 H1542 0.960 . S
C1556 H1543 0.960 . S
C1556 C1555 1.524 . S
C1557 C1554 1.403 . S
C1557 C1558 1.392 . S
C1557 C1561 1.495 . S
C1558 C1557 1.392 . S
C1558 C1559 1.385 . S
C1558 C1560 1.478 . S
C1559 H1553 0.930 . S
C1559 C1555 1.400 . S
C1559 C1558 1.385 . S
C1560 C1558 1.478 . S
C1560 C1562 1.381 . S
C1560 C1566 1.383 . S
C1561 C1557 1.495 . S
C1561 H1567 0.959 . S
C1561 H1568 0.961 . S
C1561 H1569 0.960 . S
C1562 C1560 1.381 . S
C1562 C1563 1.394 . S
C1562 H1570 0.930 . S
C1563 C1562 1.394 . S
C1563 C1564 1.383 . S
C1563 H1571 0.929 . S
C1564 C1563 1.383 . S
C1564 C1565 1.377 . S
C1565 H1549 0.930 . S
C1565 C1564 1.377 . S
C1565 C1566 1.379 . S
C1566 H1550 0.931 . S
C1566 C1560 1.383 . S
C1566 C1565 1.379 . S
H1567 C1561 0.959 . S
H1568 C1561 0.961 . S
H1569 C1561 0.960 . S
H1570 C1562 0.930 . S
H1571 C1563 0.929 . S
H1572 C1580 0.929 . S
H1573 C1582 0.930 . S
H1574 C1584 0.930 . S
H1575 C1587 0.929 . S
H1576 C1590 0.930 . S
H1577 C1592 0.960 . S
H1578 C1592 0.960 . S
H1579 C1592 0.960 . S
C1580 H1572 0.929 . S
C1580 C1581 1.377 . S
C1580 C1582 1.384 . S
C1581 C1580 1.377 . S
C1581 C1587 1.390 . S
C1582 H1573 0.930 . S
C1582 C1580 1.384 . S
C1582 C1583 1.372 . S
C1583 C1582 1.372 . S
C1583 C1584 1.400 . S
C1583 C1588 1.490 . S
C1584 H1574 0.930 . S
C1584 C1583 1.400 . S
C1584 C1587 1.386 . S
H1585 C1601 0.930 . S
H1586 C1602 0.931 . S
C1587 H1575 0.929 . S
C1587 C1581 1.390 . S
C1587 C1584 1.386 . S
C1588 C1583 1.490 . S
C1588 C1590 1.395 . S
C1588 C1591 1.403 . S
H1589 C1595 0.930 . S
C1590 H1576 0.930 . S
C1590 C1588 1.395 . S
C1590 C1593 1.403 . S
C1591 C1588 1.403 . S
C1591 C1592 1.524 . S
C1591 C1595 1.400 . S
C1592 H1577 0.960 . S
C1592 H1578 0.960 . S
C1592 H1579 0.960 . S
C1592 C1591 1.524 . S
C1593 C1590 1.403 . S
C1593 C1594 1.392 . S
C1593 C1597 1.495 . S
C1594 C1593 1.392 . S
C1594 C1595 1.385 . S
C1594 C1596 1.478 . S
C1595 H1589 0.930 . S
C1595 C1591 1.400 . S
C1595 C1594 1.385 . S
C1596 C1594 1.478 . S
C1596 C1598 1.381 . S
C1596 C1602 1.383 . S
C1597 C1593 1.495 . S
C1597 H1603 0.959 . S
C1597 H1604 0.961 . S
C1597 H1605 0.960 . S
C1598 C1596 1.381 . S
C1598 C1599 1.394 . S
C1598 H1606 0.930 . S
C1599 C1598 1.394 . S
C1599 C1600 1.383 . S
C1599 H1607 0.929 . S
C1600 C1599 1.383 . S
C1600 C1601 1.377 . S
C1601 H1585 0.930 . S
C1601 C1600 1.377 . S
C1601 C1602 1.379 . S
C1602 H1586 0.931 . S
C1602 C1596 1.383 . S
C1602 C1601 1.379 . S
H1603 C1597 0.959 . S
H1604 C1597 0.961 . S
H1605 C1597 0.960 . S
H1606 C1598 0.930 . S
H1607 C1599 0.929 . S
H1608 C1616 0.929 . S
H1609 C1618 0.930 . S
H1610 C1620 0.930 . S
H1611 C1623 0.929 . S
H1612 C1626 0.930 . S
H1613 C1628 0.960 . S
H1614 C1628 0.960 . S
H1615 C1628 0.960 . S
C1616 H1608 0.929 . S
C1616 C1617 1.377 . S
C1616 C1618 1.384 . S
C1617 C1616 1.377 . S
C1617 C1623 1.390 . S
C1618 H1609 0.930 . S
C1618 C1616 1.384 . S
C1618 C1619 1.372 . S
C1619 C1618 1.372 . S
C1619 C1620 1.400 . S
C1619 C1624 1.490 . S
C1620 H1610 0.930 . S
C1620 C1619 1.400 . S
C1620 C1623 1.386 . S
H1621 C1637 0.930 . S
H1622 C1638 0.931 . S
C1623 H1611 0.929 . S
C1623 C1617 1.390 . S
C1623 C1620 1.386 . S
C1624 C1619 1.490 . S
C1624 C1626 1.395 . S
C1624 C1627 1.403 . S
H1625 C1631 0.930 . S
C1626 H1612 0.930 . S
C1626 C1624 1.395 . S
C1626 C1629 1.403 . S
C1627 C1624 1.403 . S
C1627 C1628 1.524 . S
C1627 C1631 1.400 . S
C1628 H1613 0.960 . S
C1628 H1614 0.960 . S
C1628 H1615 0.960 . S
C1628 C1627 1.524 . S
C1629 C1626 1.403 . S
C1629 C1630 1.392 . S
C1629 C1633 1.495 . S
C1630 C1629 1.392 . S
C1630 C1631 1.385 . S
C1630 C1632 1.478 . S
C1631 H1625 0.930 . S
C1631 C1627 1.400 . S
C1631 C1630 1.385 . S
C1632 C1630 1.478 . S
C1632 C1634 1.381 . S
C1632 C1638 1.383 . S
C1633 C1629 1.495 . S
C1633 H1639 0.959 . S
C1633 H1640 0.961 . S
C1633 H1641 0.960 . S
C1634 C1632 1.381 . S
C1634 C1635 1.394 . S
C1634 H1642 0.930 . S
C1635 C1634 1.394 . S
C1635 C1636 1.383 . S
C1635 H1643 0.929 . S
C1636 C1635 1.383 . S
C1636 C1637 1.377 . S
C1637 H1621 0.930 . S
C1637 C1636 1.377 . S
C1637 C1638 1.379 . S
C1638 H1622 0.931 . S
C1638 C1632 1.383 . S
C1638 C1637 1.379 . S
H1639 C1633 0.959 . S
H1640 C1633 0.961 . S
H1641 C1633 0.960 . S
H1642 C1634 0.930 . S
H1643 C1635 0.929 . S
H1644 C1652 0.929 . S
H1645 C1654 0.930 . S
H1646 C1656 0.930 . S
H1647 C1659 0.929 . S
H1648 C1662 0.930 . S
H1649 C1664 0.960 . S
H1650 C1664 0.960 . S
H1651 C1664 0.960 . S
C1652 H1644 0.929 . S
C1652 C1653 1.377 . S
C1652 C1654 1.384 . S
C1653 C1652 1.377 . S
C1653 C1659 1.390 . S
C1654 H1645 0.930 . S
C1654 C1652 1.384 . S
C1654 C1655 1.372 . S
C1655 C1654 1.372 . S
C1655 C1656 1.400 . S
C1655 C1660 1.490 . S
C1656 H1646 0.930 . S
C1656 C1655 1.400 . S
C1656 C1659 1.386 . S
H1657 C1673 0.930 . S
H1658 C1674 0.931 . S
C1659 H1647 0.929 . S
C1659 C1653 1.390 . S
C1659 C1656 1.386 . S
C1660 C1655 1.490 . S
C1660 C1662 1.395 . S
C1660 C1663 1.403 . S
H1661 C1667 0.930 . S
C1662 H1648 0.930 . S
C1662 C1660 1.395 . S
C1662 C1665 1.403 . S
C1663 C1660 1.403 . S
C1663 C1664 1.524 . S
C1663 C1667 1.400 . S
C1664 H1649 0.960 . S
C1664 H1650 0.960 . S
C1664 H1651 0.960 . S
C1664 C1663 1.524 . S
C1665 C1662 1.403 . S
C1665 C1666 1.392 . S
C1665 C1669 1.495 . S
C1666 C1665 1.392 . S
C1666 C1667 1.385 . S
C1666 C1668 1.478 . S
C1667 H1661 0.930 . S
C1667 C1663 1.400 . S
C1667 C1666 1.385 . S
C1668 C1666 1.478 . S
C1668 C1670 1.381 . S
C1668 C1674 1.383 . S
C1669 C1665 1.495 . S
C1669 H1675 0.959 . S
C1669 H1676 0.961 . S
C1669 H1677 0.960 . S
C1670 C1668 1.381 . S
C1670 C1671 1.394 . S
C1670 H1678 0.930 . S
C1671 C1670 1.394 . S
C1671 C1672 1.383 . S
C1671 H1679 0.929 . S
C1672 C1671 1.383 . S
C1672 C1673 1.377 . S
C1673 H1657 0.930 . S
C1673 C1672 1.377 . S
C1673 C1674 1.379 . S
C1674 H1658 0.931 . S
C1674 C1668 1.383 . S
C1674 C1673 1.379 . S
H1675 C1669 0.959 . S
H1676 C1669 0.961 . S
H1677 C1669 0.960 . S
H1678 C1670 0.930 . S
H1679 C1671 0.929 . S
H1680 C1688 0.929 . S
H1681 C1690 0.930 . S
H1682 C1692 0.930 . S
H1683 C1695 0.929 . S
H1684 C1698 0.930 . S
H1685 C1700 0.960 . S
H1686 C1700 0.960 . S
H1687 C1700 0.960 . S
C1688 H1680 0.929 . S
C1688 C1689 1.377 . S
C1688 C1690 1.384 . S
C1689 C1688 1.377 . S
C1689 C1695 1.390 . S
C1690 H1681 0.930 . S
C1690 C1688 1.384 . S
C1690 C1691 1.372 . S
C1691 C1690 1.372 . S
C1691 C1692 1.400 . S
C1691 C1696 1.490 . S
C1692 H1682 0.930 . S
C1692 C1691 1.400 . S
C1692 C1695 1.386 . S
H1693 C1709 0.930 . S
H1694 C1710 0.931 . S
C1695 H1683 0.929 . S
C1695 C1689 1.390 . S
C1695 C1692 1.386 . S
C1696 C1691 1.490 . S
C1696 C1698 1.395 . S
C1696 C1699 1.403 . S
H1697 C1703 0.912 1_565 S
C1698 H1684 0.930 . S
C1698 C1696 1.395 . S
C1698 C1701 1.403 . S
C1699 C1696 1.403 . S
C1699 C1700 1.524 . S
C1699 C1703 1.434 . S
C1700 H1685 0.960 . S
C1700 H1686 0.960 . S
C1700 H1687 0.960 . S
C1700 C1699 1.524 . S
C1701 C1698 1.403 . S
C1701 C1702 1.392 1_545 S
C1701 C1705 1.495 1_545 S
C1702 C1701 1.392 1_565 S
C1702 C1703 1.370 1_565 S
C1702 C1704 1.478 . S
C1703 H1697 0.912 1_545 S
C1703 C1699 1.434 . S
C1703 C1702 1.370 1_545 S
C1704 C1702 1.478 . S
C1704 C1706 1.381 . S
C1704 C1710 1.383 . S
C1705 C1701 1.495 1_565 S
C1705 H1711 0.959 1_565 S
C1705 H1712 0.961 . S
C1705 H1713 0.960 . S
C1706 C1704 1.381 . S
C1706 C1707 1.394 . S
C1706 H1714 0.930 . S
C1707 C1706 1.394 . S
C1707 C1708 1.383 . S
C1707 H1715 0.929 . S
C1708 C1707 1.383 . S
C1708 C1709 1.377 . S
C1709 H1693 0.930 . S
C1709 C1708 1.377 . S
C1709 C1710 1.379 . S
C1710 H1694 0.931 . S
C1710 C1704 1.383 . S
C1710 C1709 1.379 . S
H1711 C1705 0.959 1_545 S
H1712 C1705 0.961 . S
H1713 C1705 0.960 . S
H1714 C1706 0.930 . S
H1715 C1707 0.929 . S
H1716 C1724 0.929 . S
H1717 C1726 0.930 . S
H1718 C1728 0.930 . S
H1719 C1731 0.929 . S
H1720 C1734 0.929 . S
H1721 C1736 0.960 . S
H1722 C1736 0.960 . S
H1723 C1736 0.960 . S
C1724 H1716 0.929 . S
C1724 C1725 1.377 . S
C1724 C1726 1.384 . S
C1725 C1724 1.377 . S
C1725 C1731 1.390 . S
C1726 H1717 0.930 . S
C1726 C1724 1.384 . S
C1726 C1727 1.372 . S
C1727 C1726 1.372 . S
C1727 C1728 1.400 . S
C1727 C1732 1.490 . S
C1728 H1718 0.930 . S
C1728 C1727 1.400 . S
C1728 C1731 1.386 . S
H1729 C1745 0.930 . S
H1730 C1746 0.931 . S
C1731 H1719 0.929 . S
C1731 C1725 1.390 . S
C1731 C1728 1.386 . S
C1732 C1727 1.490 . S
C1732 C1734 1.358 1_655 S
C1732 C1735 1.403 . S
H1733 C1739 0.930 . S
C1734 H1720 0.929 . S
C1734 C1732 1.358 1_455 S
C1734 C1737 1.442 . S
C1735 C1732 1.403 . S
C1735 C1736 1.524 . S
C1735 C1739 1.400 1_655 S
C1736 H1721 0.960 . S
C1736 H1722 0.960 . S
C1736 H1723 0.960 . S
C1736 C1735 1.524 . S
C1737 C1734 1.442 . S
C1737 C1738 1.392 . S
C1737 C1741 1.495 . S
C1738 C1737 1.392 . S
C1738 C1739 1.385 . S
C1738 C1740 1.478 . S
C1739 H1733 0.930 . S
C1739 C1735 1.400 1_455 S
C1739 C1738 1.385 . S
C1740 C1738 1.478 . S
C1740 C1742 1.381 . S
C1740 C1746 1.383 . S
C1741 C1737 1.495 . S
C1741 H1747 0.959 . S
C1741 H1748 0.961 . S
C1741 H1749 0.960 . S
C1742 C1740 1.381 . S
C1742 C1743 1.394 . S
C1742 H1750 0.930 . S
C1743 C1742 1.394 . S
C1743 C1744 1.383 . S
C1743 H1751 0.929 . S
C1744 C1743 1.383 . S
C1744 C1745 1.377 . S
C1745 H1729 0.930 . S
C1745 C1744 1.377 . S
C1745 C1746 1.379 . S
C1746 H1730 0.931 . S
C1746 C1740 1.383 . S
C1746 C1745 1.379 . S
H1747 C1741 0.959 . S
H1748 C1741 0.961 . S
H1749 C1741 0.960 . S
H1750 C1742 0.930 . S
H1751 C1743 0.929 . S
H1752 C1760 0.929 . S
H1753 C1762 0.930 . S
H1754 C1764 0.930 . S
H1755 C1767 0.929 . S
H1756 C1770 0.930 . S
H1757 C1772 0.960 . S
H1758 C1772 0.960 . S
H1759 C1772 0.960 . S
C1760 H1752 0.929 . S
C1760 C1761 1.377 . S
C1760 C1762 1.384 . S
C1761 C1760 1.377 . S
C1761 C1767 1.390 . S
C1762 H1753 0.930 . S
C1762 C1760 1.384 . S
C1762 C1763 1.372 . S
C1763 C1762 1.372 . S
C1763 C1764 1.400 . S
C1763 C1768 1.490 . S
C1764 H1754 0.930 . S
C1764 C1763 1.400 . S
C1764 C1767 1.386 . S
H1765 C1781 0.930 . S
H1766 C1782 0.931 . S
C1767 H1755 0.929 . S
C1767 C1761 1.390 . S
C1767 C1764 1.386 . S
C1768 C1763 1.490 . S
C1768 C1770 1.395 . S
C1768 C1771 1.403 . S
H1769 C1775 0.930 . S
C1770 H1756 0.930 . S
C1770 C1768 1.395 . S
C1770 C1773 1.403 1_545 S
C1771 C1768 1.403 . S
C1771 C1772 1.524 . S
C1771 C1775 1.400 . S
C1772 H1757 0.960 . S
C1772 H1758 0.960 . S
C1772 H1759 0.960 . S
C1772 C1771 1.524 . S
C1773 C1770 1.403 1_565 S
C1773 C1774 1.392 . S
C1773 C1777 1.495 . S
C1774 C1773 1.392 . S
C1774 C1775 1.385 1_565 S
C1774 C1776 1.478 . S
C1775 H1769 0.930 . S
C1775 C1771 1.400 . S
C1775 C1774 1.385 1_545 S
C1776 C1774 1.478 . S
C1776 C1778 1.381 . S
C1776 C1782 1.383 . S
C1777 C1773 1.495 . S
C1777 H1783 0.959 . S
C1777 H1784 0.961 . S
C1777 H1785 0.960 . S
C1778 C1776 1.381 . S
C1778 C1779 1.394 . S
C1778 H1786 0.930 . S
C1779 C1778 1.394 . S
C1779 C1780 1.383 . S
C1779 H1787 0.929 . S
C1780 C1779 1.383 . S
C1780 C1781 1.377 . S
C1781 H1765 0.930 . S
C1781 C1780 1.377 . S
C1781 C1782 1.379 . S
C1782 H1766 0.931 . S
C1782 C1776 1.383 . S
C1782 C1781 1.379 . S
H1783 C1777 0.959 . S
H1784 C1777 0.961 . S
H1785 C1777 0.960 . S
H1786 C1778 0.930 . S
H1787 C1779 0.929 . S
H1788 C1796 0.929 . S
H1789 C1798 0.930 . S
H1790 C1800 0.930 . S
H1791 C1803 0.929 . S
H1792 C1806 0.930 . S
H1793 C1808 0.960 . S
H1794 C1808 0.958 1_655 S
H1795 C1808 0.960 1_655 S
C1796 H1788 0.929 . S
C1796 C1797 1.377 . S
C1796 C1798 1.384 . S
C1797 C1796 1.377 . S
C1797 C1803 1.390 . S
C1798 H1789 0.930 . S
C1798 C1796 1.384 . S
C1798 C1799 1.372 . S
C1799 C1798 1.372 . S
C1799 C1800 1.400 . S
C1799 C1804 1.490 . S
C1800 H1790 0.930 . S
C1800 C1799 1.400 . S
C1800 C1803 1.386 . S
H1801 C1817 0.930 . S
H1802 C1818 0.931 . S
C1803 H1791 0.929 . S
C1803 C1797 1.390 . S
C1803 C1800 1.386 . S
C1804 C1799 1.490 . S
C1804 C1806 1.395 . S
C1804 C1807 1.409 . S
H1805 C1811 0.930 . S
C1806 H1792 0.930 . S
C1806 C1804 1.395 . S
C1806 C1809 1.444 . S
C1807 C1804 1.409 . S
C1807 C1808 1.523 1_655 S
C1807 C1811 1.393 1_655 S
C1808 H1793 0.960 . S
C1808 H1794 0.958 1_455 S
C1808 H1795 0.960 1_455 S
C1808 C1807 1.523 1_455 S
C1809 C1806 1.444 . S
C1809 C1810 1.351 1_655 S
C1809 C1813 1.499 . S
C1810 C1809 1.351 1_455 S
C1810 C1811 1.385 . S
C1810 C1812 1.478 . S
C1811 H1805 0.930 . S
C1811 C1807 1.393 1_455 S
C1811 C1810 1.385 . S
C1812 C1810 1.478 . S
C1812 C1814 1.381 . S
C1812 C1818 1.383 . S
C1813 C1809 1.499 . S
C1813 H1819 0.959 . S
C1813 H1820 0.961 1_655 S
C1813 H1821 0.960 1_655 S
C1814 C1812 1.381 . S
C1814 C1815 1.394 . S
C1814 H1822 0.930 . S
C1815 C1814 1.394 . S
C1815 C1816 1.383 . S
C1815 H1823 0.929 . S
C1816 C1815 1.383 . S
C1816 C1817 1.377 . S
C1817 H1801 0.930 . S
C1817 C1816 1.377 . S
C1817 C1818 1.379 . S
C1818 H1802 0.931 . S
C1818 C1812 1.383 . S
C1818 C1817 1.379 . S
H1819 C1813 0.959 . S
H1820 C1813 0.961 1_455 S
H1821 C1813 0.960 1_455 S
H1822 C1814 0.930 . S
H1823 C1815 0.929 . S
H1824 C1832 0.929 . S
H1825 C1834 0.930 . S
H1826 C1836 0.930 . S
H1827 C1839 0.929 . S
H1828 C1842 0.930 . S
H1829 C1844 0.960 . S
H1830 C1844 0.960 . S
H1831 C1844 0.960 . S
C1832 H1824 0.929 . S
C1832 C1833 1.377 . S
C1832 C1834 1.384 . S
C1833 C1832 1.377 . S
C1833 C1839 1.390 . S
C1834 H1825 0.930 . S
C1834 C1832 1.384 . S
C1834 C1835 1.372 . S
C1835 C1834 1.372 . S
C1835 C1836 1.400 . S
C1835 C1840 1.490 . S
C1836 H1826 0.930 . S
C1836 C1835 1.400 . S
C1836 C1839 1.386 . S
H1837 C1853 0.930 . S
H1838 C1854 0.931 . S
C1839 H1827 0.929 . S
C1839 C1833 1.390 . S
C1839 C1836 1.386 . S
C1840 C1835 1.490 . S
C1840 C1842 1.395 . S
C1840 C1843 1.403 1_565 S
H1841 C1847 0.930 . S
C1842 H1828 0.930 . S
C1842 C1840 1.395 . S
C1842 C1845 1.403 . S
C1843 C1840 1.403 1_545 S
C1843 C1844 1.524 . S
C1843 C1847 1.400 . S
C1844 H1829 0.960 . S
C1844 H1830 0.960 . S
C1844 H1831 0.960 . S
C1844 C1843 1.524 . S
C1845 C1842 1.403 . S
C1845 C1846 1.392 1_565 S
C1845 C1849 1.495 . S
C1846 C1845 1.392 1_545 S
C1846 C1847 1.385 . S
C1846 C1848 1.478 . S
C1847 H1841 0.930 . S
C1847 C1843 1.400 . S
C1847 C1846 1.385 . S
C1848 C1846 1.478 . S
C1848 C1850 1.381 . S
C1848 C1854 1.383 . S
C1849 C1845 1.495 . S
C1849 H1855 0.959 . S
C1849 H1856 0.961 . S
C1849 H1857 0.960 1_565 S
C1850 C1848 1.381 . S
C1850 C1851 1.394 . S
C1850 H1858 0.930 . S
C1851 C1850 1.394 . S
C1851 C1852 1.383 . S
C1851 H1859 0.929 . S
C1852 C1851 1.383 . S
C1852 C1853 1.377 . S
C1853 H1837 0.930 . S
C1853 C1852 1.377 . S
C1853 C1854 1.379 . S
C1854 H1838 0.931 . S
C1854 C1848 1.383 . S
C1854 C1853 1.379 . S
H1855 C1849 0.959 . S
H1856 C1849 0.961 . S
H1857 C1849 0.960 1_545 S
H1858 C1850 0.930 . S
H1859 C1851 0.929 . S
H1860 C1868 0.929 . S
H1861 C1870 0.930 . S
H1862 C1872 0.930 . S
H1863 C1875 0.929 . S
H1864 C1878 0.930 . S
H1865 C1880 0.960 . S
H1866 C1880 0.960 . S
H1867 C1880 0.960 1_455 S
C1868 H1860 0.929 . S
C1868 C1869 1.377 . S
C1868 C1870 1.384 . S
C1869 C1868 1.377 . S
C1869 C1875 1.390 . S
C1870 H1861 0.930 . S
C1870 C1868 1.384 . S
C1870 C1871 1.372 . S
C1871 C1870 1.372 . S
C1871 C1872 1.400 . S
C1871 C1876 1.490 . S
C1872 H1862 0.930 . S
C1872 C1871 1.400 . S
C1872 C1875 1.386 . S
H1873 C1889 0.930 . S
H1874 C1890 0.931 . S
C1875 H1863 0.929 . S
C1875 C1869 1.390 . S
C1875 C1872 1.386 . S
C1876 C1871 1.490 . S
C1876 C1878 1.395 . S
C1876 C1879 1.403 1_455 S
H1877 C1883 0.930 . S
C1878 H1864 0.930 . S
C1878 C1876 1.395 . S
C1878 C1881 1.403 . S
C1879 C1876 1.403 1_655 S
C1879 C1880 1.524 . S
C1879 C1883 1.400 . S
C1880 H1865 0.960 . S
C1880 H1866 0.960 . S
C1880 H1867 0.960 1_655 S
C1880 C1879 1.524 . S
C1881 C1878 1.403 . S
C1881 C1882 1.392 1_455 S
C1881 C1885 1.495 . S
C1882 C1881 1.392 1_655 S
C1882 C1883 1.385 . S
C1882 C1884 1.478 . S
C1883 H1877 0.930 . S
C1883 C1879 1.400 . S
C1883 C1882 1.385 . S
C1884 C1882 1.478 . S
C1884 C1886 1.381 . S
C1884 C1890 1.383 . S
C1885 C1881 1.495 . S
C1885 H1891 0.959 . S
C1885 H1892 0.961 . S
C1885 H1893 0.960 1_455 S
C1886 C1884 1.381 . S
C1886 C1887 1.394 . S
C1886 H1894 0.930 . S
C1887 C1886 1.394 . S
C1887 C1888 1.383 . S
C1887 H1895 0.929 . S
C1888 C1887 1.383 . S
C1888 C1889 1.377 . S
C1889 H1873 0.930 . S
C1889 C1888 1.377 . S
C1889 C1890 1.379 . S
C1890 H1874 0.931 . S
C1890 C1884 1.383 . S
C1890 C1889 1.379 . S
H1891 C1885 0.959 . S
H1892 C1885 0.961 . S
H1893 C1885 0.960 1_655 S
H1894 C1886 0.930 . S
H1895 C1887 0.929 . S
H1896 C1904 0.929 . S
H1897 C1906 0.930 . S
H1898 C1908 0.930 . S
H1899 C1911 0.929 . S
H1900 C1914 0.930 . S
H1901 C1916 0.960 . S
H1902 C1916 0.960 . S
H1903 C1916 0.960 . S
C1904 H1896 0.929 . S
C1904 C1905 1.377 . S
C1904 C1906 1.384 . S
C1905 C1904 1.377 . S
C1905 C1911 1.390 . S
C1906 H1897 0.930 . S
C1906 C1904 1.384 . S
C1906 C1907 1.372 . S
C1907 C1906 1.372 . S
C1907 C1908 1.400 . S
C1907 C1912 1.490 . S
C1908 H1898 0.930 . S
C1908 C1907 1.400 . S
C1908 C1911 1.386 . S
H1909 C1925 0.930 . S
H1910 C1926 0.931 . S
C1911 H1899 0.929 . S
C1911 C1905 1.390 . S
C1911 C1908 1.386 . S
C1912 C1907 1.490 . S
C1912 C1914 1.395 1_565 S
C1912 C1915 1.403 . S
H1913 C1919 0.930 . S
C1914 H1900 0.930 . S
C1914 C1912 1.395 1_545 S
C1914 C1917 1.403 . S
C1915 C1912 1.403 . S
C1915 C1916 1.524 . S
C1915 C1919 1.400 1_565 S
C1916 H1901 0.960 . S
C1916 H1902 0.960 . S
C1916 H1903 0.960 . S
C1916 C1915 1.524 . S
C1917 C1914 1.403 . S
C1917 C1918 1.392 . S
C1917 C1921 1.495 . S
C1918 C1917 1.392 . S
C1918 C1919 1.385 . S
C1918 C1920 1.478 . S
C1919 H1913 0.930 . S
C1919 C1915 1.400 1_545 S
C1919 C1918 1.385 . S
C1920 C1918 1.478 . S
C1920 C1922 1.381 . S
C1920 C1926 1.383 . S
C1921 C1917 1.495 . S
C1921 H1927 0.959 . S
C1921 H1928 0.961 . S
C1921 H1929 0.960 . S
C1922 C1920 1.381 . S
C1922 C1923 1.394 . S
C1922 H1930 0.930 . S
C1923 C1922 1.394 . S
C1923 C1924 1.383 . S
C1923 H1931 0.929 . S
C1924 C1923 1.383 . S
C1924 C1925 1.377 . S
C1925 H1909 0.930 . S
C1925 C1924 1.377 . S
C1925 C1926 1.379 . S
C1926 H1910 0.931 . S
C1926 C1920 1.383 . S
C1926 C1925 1.379 . S
H1927 C1921 0.959 . S
H1928 C1921 0.961 . S
H1929 C1921 0.960 . S
H1930 C1922 0.930 . S
H1931 C1923 0.929 . S
H1932 C1940 0.929 . S
H1933 C1942 0.930 . S
H1934 C1944 0.930 . S
H1935 C1947 0.929 . S
H1936 C1950 0.930 . S
H1937 C1952 0.960 . S
H1938 C1952 0.960 . S
H1939 C1952 0.960 . S
C1940 H1932 0.929 . S
C1940 C1941 1.377 . S
C1940 C1942 1.384 . S
C1941 C1940 1.377 . S
C1941 C1947 1.390 . S
C1942 H1933 0.930 . S
C1942 C1940 1.384 . S
C1942 C1943 1.372 . S
C1943 C1942 1.372 . S
C1943 C1944 1.400 . S
C1943 C1948 1.490 . S
C1944 H1934 0.930 . S
C1944 C1943 1.400 . S
C1944 C1947 1.386 . S
H1945 C1961 0.930 . S
H1946 C1962 0.931 . S
C1947 H1935 0.929 . S
C1947 C1941 1.390 . S
C1947 C1944 1.386 . S
C1948 C1943 1.490 . S
C1948 C1950 1.395 1_655 S
C1948 C1951 1.403 . S
H1949 C1955 0.930 1_655 S
C1950 H1936 0.930 . S
C1950 C1948 1.395 1_455 S
C1950 C1953 1.403 . S
C1951 C1948 1.403 . S
C1951 C1952 1.524 . S
C1951 C1955 1.401 1_655 S
C1952 H1937 0.960 . S
C1952 H1938 0.960 . S
C1952 H1939 0.960 . S
C1952 C1951 1.524 . S
C1953 C1950 1.403 . S
C1953 C1954 1.392 . S
C1953 C1957 1.495 . S
C1954 C1953 1.392 . S
C1954 C1955 1.384 . S
C1954 C1956 1.478 . S
C1955 H1949 0.930 1_455 S
C1955 C1951 1.401 1_455 S
C1955 C1954 1.384 . S
C1956 C1954 1.478 . S
C1956 C1958 1.381 . S
C1956 C1962 1.383 . S
C1957 C1953 1.495 . S
C1957 H1963 0.959 . S
C1957 H1964 0.961 . S
C1957 H1965 0.960 . S
C1958 C1956 1.381 . S
C1958 C1959 1.394 . S
C1958 H1966 0.930 . S
C1959 C1958 1.394 . S
C1959 C1960 1.383 . S
C1959 H1967 0.929 . S
C1960 C1959 1.383 . S
C1960 C1961 1.377 . S
C1961 H1945 0.930 . S
C1961 C1960 1.377 . S
C1961 C1962 1.379 . S
C1962 H1946 0.931 . S
C1962 C1956 1.383 . S
C1962 C1961 1.379 . S
H1963 C1957 0.959 . S
H1964 C1957 0.961 . S
H1965 C1957 0.960 . S
H1966 C1958 0.930 . S
H1967 C1959 0.929 . S
C537 N80 0.466 . S
C556 N14 0.433 . S
C573 N47 0.461 . S
C592 N104 0.570 . S
C609 N212 0.468 . S
C628 N146 0.433 . S
C645 N236 0.519 . S
C664 N179 0.491 . S
C681 N278 0.445 . S
C700 N335 0.430 . S
C717 N311 0.475 . S
C736 N377 0.511 . S
C753 N401 0.521 . S
C772 N476 0.495 . S
C789 N509 0.469 . S
C808 N443 0.512 . S
C825 N5 1.407 . S
C844 N170 1.419 . S
C861 N203 1.417 . S
C880 N38 1.374 . S
C897 N245 1.417 . S
C916 N71 1.376 . S
C933 N137 1.385 . S
C952 N113 1.397 . S
C969 N434 1.413 . S
C988 N269 1.386 . S
C1005 N467 1.402 . S
C1024 N302 1.438 . S
C1041 N500 1.381 . S
C1060 N344 1.412 . S
C1077 N410 1.414 . S
C1096 N368 1.408 . S
C1113 C17 1.365 . S
C1132 C347 1.340 . S
C1149 C380 1.388 . S
C1168 C50 1.386 . S
C1185 C281 1.387 . S
C1204 C83 1.394 . S
C1221 C314 1.363 . S
C1240 C116 1.347 . S
C1257 C149 1.386 . S
C1276 C479 1.392 . S
C1293 C182 1.390 . S
C1312 C512 1.381 . S
C1329 C215 1.362 . S
C1348 C413 1.362 . S
C1365 C248 1.338 . S
C1384 C446 1.371 . S
C1401 C140 1.218 . S
C1420 C8 1.184 . S
C1437 C41 1.349 . S
C1456 C173 1.363 . S
C1473 C206 1.211 . S
C1492 C74 1.234 . S
C1509 C259 1.105 . S
C1528 C127 1.129 . S
C1545 C292 0.509 . S
C1564 C404 0.356 . S
C1581 C457 0.473 . S
C1600 C325 0.522 . S
C1617 C338 0.444 . S
C1636 C490 0.420 . S
C1653 C523 0.514 . S
C1672 C391 0.565 . S
C1689 C371 1.213 . S
C1708 C437 1.234 . S
C1725 C272 1.357 . S
C1744 C470 1.355 . S
C1761 C503 1.216 . S
C1780 C305 1.228 . S
C1797 C424 1.110 . S
C1816 C358 1.101 . S
C1833 C107 0.443 . S
C1852 C193 0.564 . S
C1869 C28 0.505 . S
C1888 C226 0.561 . S
C1905 C239 0.419 . S
C1924 C61 0.466 . S
C1941 C94 0.485 . S
C1960 C160 0.485 . S
