# Generated by pormake.
# Topology afi, (4)-cn, num edge types: 1
# Building blocks:
#     Node 0, Type 0, BuildingBlock: UXUYUI_clean_sbu_0, # of connection points: 4
#     Node 1, Type 0, BuildingBlock: UXUYUI_clean_sbu_0, # of connection points: 4
#     Node 2, Type 0, BuildingBlock: UXUYUI_clean_sbu_0, # of connection points: 4
#     Node 3, Type 0, BuildingBlock: UXUYUI_clean_sbu_0, # of connection points: 4
#     Node 4, Type 0, BuildingBlock: UXUYUI_clean_sbu_0, # of connection points: 4
#     Node 5, Type 0, BuildingBlock: UXUYUI_clean_sbu_0, # of connection points: 4
#     Node 6, Type 0, BuildingBlock: UXUYUI_clean_sbu_0, # of connection points: 4
#     Node 7, Type 0, BuildingBlock: UXUYUI_clean_sbu_0, # of connection points: 4
#     Node 8, Type 0, BuildingBlock: UXUYUI_clean_sbu_0, # of connection points: 4
#     Node 9, Type 0, BuildingBlock: UXUYUI_clean_sbu_0, # of connection points: 4
#     Node 10, Type 0, BuildingBlock: UXUYUI_clean_sbu_0, # of connection points: 4
#     Node 11, Type 0, BuildingBlock: UXUYUI_clean_sbu_0, # of connection points: 4
#     Node 12, Type 0, BuildingBlock: UXUYUI_clean_sbu_0, # of connection points: 4
#     Node 13, Type 0, BuildingBlock: UXUYUI_clean_sbu_0, # of connection points: 4
#     Node 14, Type 0, BuildingBlock: UXUYUI_clean_sbu_0, # of connection points: 4
#     Node 15, Type 0, BuildingBlock: UXUYUI_clean_sbu_0, # of connection points: 4
#     Node 16, Type 0, BuildingBlock: UXUYUI_clean_sbu_0, # of connection points: 4
#     Node 17, Type 0, BuildingBlock: UXUYUI_clean_sbu_0, # of connection points: 4
#     Node 18, Type 0, BuildingBlock: UXUYUI_clean_sbu_0, # of connection points: 4
#     Node 19, Type 0, BuildingBlock: UXUYUI_clean_sbu_0, # of connection points: 4
#     Node 20, Type 0, BuildingBlock: UXUYUI_clean_sbu_0, # of connection points: 4
#     Node 21, Type 0, BuildingBlock: UXUYUI_clean_sbu_0, # of connection points: 4
#     Node 22, Type 0, BuildingBlock: UXUYUI_clean_sbu_0, # of connection points: 4
#     Node 23, Type 0, BuildingBlock: UXUYUI_clean_sbu_0, # of connection points: 4
#     Edge 24, Type (0, 0), BuildingBlock: CIFDUS_clean_linker_0, # of connection points: 2
#     Edge 25, Type (0, 0), BuildingBlock: CIFDUS_clean_linker_0, # of connection points: 2
#     Edge 26, Type (0, 0), BuildingBlock: CIFDUS_clean_linker_0, # of connection points: 2
#     Edge 27, Type (0, 0), BuildingBlock: CIFDUS_clean_linker_0, # of connection points: 2
#     Edge 28, Type (0, 0), BuildingBlock: CIFDUS_clean_linker_0, # of connection points: 2
#     Edge 29, Type (0, 0), BuildingBlock: CIFDUS_clean_linker_0, # of connection points: 2
#     Edge 30, Type (0, 0), BuildingBlock: CIFDUS_clean_linker_0, # of connection points: 2
#     Edge 31, Type (0, 0), BuildingBlock: CIFDUS_clean_linker_0, # of connection points: 2
#     Edge 32, Type (0, 0), BuildingBlock: CIFDUS_clean_linker_0, # of connection points: 2
#     Edge 33, Type (0, 0), BuildingBlock: CIFDUS_clean_linker_0, # of connection points: 2
#     Edge 34, Type (0, 0), BuildingBlock: CIFDUS_clean_linker_0, # of connection points: 2
#     Edge 35, Type (0, 0), BuildingBlock: CIFDUS_clean_linker_0, # of connection points: 2
#     Edge 36, Type (0, 0), BuildingBlock: CIFDUS_clean_linker_0, # of connection points: 2
#     Edge 37, Type (0, 0), BuildingBlock: CIFDUS_clean_linker_0, # of connection points: 2
#     Edge 38, Type (0, 0), BuildingBlock: CIFDUS_clean_linker_0, # of connection points: 2
#     Edge 39, Type (0, 0), BuildingBlock: CIFDUS_clean_linker_0, # of connection points: 2
#     Edge 40, Type (0, 0), BuildingBlock: CIFDUS_clean_linker_0, # of connection points: 2
#     Edge 41, Type (0, 0), BuildingBlock: CIFDUS_clean_linker_0, # of connection points: 2
#     Edge 42, Type (0, 0), BuildingBlock: CIFDUS_clean_linker_0, # of connection points: 2
#     Edge 43, Type (0, 0), BuildingBlock: CIFDUS_clean_linker_0, # of connection points: 2
#     Edge 44, Type (0, 0), BuildingBlock: CIFDUS_clean_linker_0, # of connection points: 2
#     Edge 45, Type (0, 0), BuildingBlock: CIFDUS_clean_linker_0, # of connection points: 2
#     Edge 46, Type (0, 0), BuildingBlock: CIFDUS_clean_linker_0, # of connection points: 2
#     Edge 47, Type (0, 0), BuildingBlock: CIFDUS_clean_linker_0, # of connection points: 2
#     Edge 48, Type (0, 0), BuildingBlock: CIFDUS_clean_linker_0, # of connection points: 2
#     Edge 49, Type (0, 0), BuildingBlock: CIFDUS_clean_linker_0, # of connection points: 2
#     Edge 50, Type (0, 0), BuildingBlock: CIFDUS_clean_linker_0, # of connection points: 2
#     Edge 51, Type (0, 0), BuildingBlock: CIFDUS_clean_linker_0, # of connection points: 2
#     Edge 52, Type (0, 0), BuildingBlock: CIFDUS_clean_linker_0, # of connection points: 2
#     Edge 53, Type (0, 0), BuildingBlock: CIFDUS_clean_linker_0, # of connection points: 2
#     Edge 54, Type (0, 0), BuildingBlock: CIFDUS_clean_linker_0, # of connection points: 2
#     Edge 55, Type (0, 0), BuildingBlock: CIFDUS_clean_linker_0, # of connection points: 2
#     Edge 56, Type (0, 0), BuildingBlock: CIFDUS_clean_linker_0, # of connection points: 2
#     Edge 57, Type (0, 0), BuildingBlock: CIFDUS_clean_linker_0, # of connection points: 2
#     Edge 58, Type (0, 0), BuildingBlock: CIFDUS_clean_linker_0, # of connection points: 2
#     Edge 59, Type (0, 0), BuildingBlock: CIFDUS_clean_linker_0, # of connection points: 2
#     Edge 60, Type (0, 0), BuildingBlock: CIFDUS_clean_linker_0, # of connection points: 2
#     Edge 61, Type (0, 0), BuildingBlock: CIFDUS_clean_linker_0, # of connection points: 2
#     Edge 62, Type (0, 0), BuildingBlock: CIFDUS_clean_linker_0, # of connection points: 2
#     Edge 63, Type (0, 0), BuildingBlock: CIFDUS_clean_linker_0, # of connection points: 2
#     Edge 64, Type (0, 0), BuildingBlock: CIFDUS_clean_linker_0, # of connection points: 2
#     Edge 65, Type (0, 0), BuildingBlock: CIFDUS_clean_linker_0, # of connection points: 2
#     Edge 66, Type (0, 0), BuildingBlock: CIFDUS_clean_linker_0, # of connection points: 2
#     Edge 67, Type (0, 0), BuildingBlock: CIFDUS_clean_linker_0, # of connection points: 2
#     Edge 68, Type (0, 0), BuildingBlock: CIFDUS_clean_linker_0, # of connection points: 2
#     Edge 69, Type (0, 0), BuildingBlock: CIFDUS_clean_linker_0, # of connection points: 2
#     Edge 70, Type (0, 0), BuildingBlock: CIFDUS_clean_linker_0, # of connection points: 2
#     Edge 71, Type (0, 0), BuildingBlock: CIFDUS_clean_linker_0, # of connection points: 2
# Relax obj value: 0.134
# Max RMSD: 0.127
# Mean RMSD: 0.126
data_MOF--net-afi--node1-UXUYUI_clean_sbu_0--edge1-CIFDUS_clean_linker_0
_symmetry_space_group_name_H-M    P1
_symmetry_Int_Tables_number       1
_symmetry_cell_setting            triclinic
loop_
_symmetry_equiv_pos_as_xyz
'x, y, z'
_cell_length_a     88.99537
_cell_length_b     88.964153
_cell_length_c     55.37636
_cell_angle_alpha  89.988217
_cell_angle_beta   90.008969
_cell_angle_gamma 120.00195
loop_
_atom_site_label
_atom_site_type_symbol
_atom_site_fract_x
_atom_site_fract_y
_atom_site_fract_z
_atom_type_partial_charge
Li0 Li 0.47535 0.12772 0.19735 0.0
Li1 Li 0.44542 0.10593 0.19905 0.0
Li2 Li 0.4591 0.12435 0.16113 0.0
Li3 Li 0.45489 0.13735 0.19909 0.0
C4 C 0.4729 0.099 0.17477 0.0
N5 N 0.49289 0.08334 0.17103 0.0
C6 C 0.47499 0.09061 0.19474 0.0
C7 C 0.48082 0.0993 0.15285 0.0
C8 C 0.48521 0.08282 0.1925 0.0
C9 C 0.4909 0.09133 0.15134 0.0
C10 C 0.448 0.121 0.24305 0.0
C11 C 0.42008 0.11475 0.25846 0.0
N12 N 0.4259 0.11551 0.28138 0.0
C13 C 0.45367 0.1217 0.26679 0.0
C14 C 0.43103 0.11746 0.23886 0.0
C15 C 0.44232 0.1189 0.2859 0.0
C16 C 0.50046 0.13672 0.23336 0.0
N17 N 0.49754 0.13245 0.20959 0.0
C18 C 0.52441 0.13254 0.20662 0.0
C19 C 0.5094 0.13084 0.196 0.0
C20 C 0.52732 0.13609 0.23145 0.0
C21 C 0.5153 0.13861 0.24471 0.0
H22 H 0.49108 0.13837 0.24364 0.0
H23 H 0.50705 0.12781 0.17702 0.0
C24 C 0.41583 0.07115 0.19875 0.0
N25 N 0.43 0.08316 0.21108 0.0
C26 C 0.40636 0.05402 0.20727 0.0
C27 C 0.42598 0.06226 0.24121 0.0
C28 C 0.43503 0.07907 0.23206 0.0
C29 C 0.41169 0.04933 0.22852 0.0
H30 H 0.41225 0.07469 0.18191 0.0
H31 H 0.4465 0.08875 0.24133 0.0
C32 C 0.49277 0.15765 0.17684 0.0
N33 N 0.52826 0.17982 0.17642 0.0
C34 C 0.5006 0.17054 0.19444 0.0
C35 C 0.50299 0.15606 0.15898 0.0
C36 C 0.51856 0.18161 0.19395 0.0
C37 C 0.52091 0.1674 0.15907 0.0
C38 C 0.42451 0.12054 0.16651 0.0
C39 C 0.42956 0.13358 0.14912 0.0
C40 C 0.4069 0.10957 0.17139 0.0
C41 C 0.41686 0.13549 0.13695 0.0
C42 C 0.39459 0.11191 0.15886 0.0
N43 N 0.39979 0.12471 0.14204 0.0
C44 C 0.44957 0.10974 0.11403 0.0
C45 C 0.46826 0.14024 0.11536 0.0
C46 C 0.44968 0.11004 0.08877 0.0
N47 N 0.45887 0.1247 0.12672 0.0
C48 C 0.4689 0.14111 0.0902 0.0
C49 C 0.4596 0.12588 0.07657 0.0
H50 H 0.44216 0.09758 0.12357 0.0
H51 H 0.47526 0.15198 0.12588 0.0
C52 C 0.46061 0.16322 0.23211 0.0
N53 N 0.45086 0.15496 0.21239 0.0
C54 C 0.45951 0.17683 0.24283 0.0
C55 C 0.43815 0.17315 0.21295 0.0
C56 C 0.43961 0.15952 0.20287 0.0
C57 C 0.44828 0.18208 0.23312 0.0
H58 H 0.46948 0.15938 0.23935 0.0
H59 H 0.43184 0.15276 0.1874 0.0
O60 O 0.463 0.10674 0.17654 0.0
O61 O 0.45906 0.12373 0.22419 0.0
O62 O 0.47524 0.1465 0.17727 0.0
O63 O 0.43667 0.11816 0.17828 0.0
H64 H 0.46902 0.09035 0.21185 0.0
H65 H 0.47928 0.10573 0.13723 0.0
H66 H 0.48706 0.0764 0.20784 0.0
H67 H 0.49718 0.09153 0.13452 0.0
H68 H 0.40694 0.11202 0.25544 0.0
H69 H 0.4667 0.12431 0.27045 0.0
H70 H 0.42629 0.11683 0.22075 0.0
H71 H 0.44657 0.1194 0.30434 0.0
H72 H 0.53328 0.13044 0.19568 0.0
H73 H 0.51721 0.14177 0.26375 0.0
H74 H 0.3955 0.04443 0.19683 0.0
H75 H 0.43041 0.05932 0.25783 0.0
H76 H 0.49291 0.17195 0.20841 0.0
H77 H 0.49721 0.14595 0.14546 0.0
H78 H 0.5248 0.19161 0.20752 0.0
H79 H 0.52898 0.16624 0.14545 0.0
H80 H 0.44314 0.14233 0.14538 0.0
H81 H 0.40279 0.09936 0.18472 0.0
H82 H 0.42058 0.14558 0.12353 0.0
H83 H 0.38091 0.10354 0.16247 0.0
H84 H 0.44239 0.098 0.07888 0.0
H85 H 0.47648 0.15361 0.08149 0.0
H86 H 0.46769 0.18345 0.2582 0.0
H87 H 0.42916 0.17663 0.20509 0.0
Li88 Li 0.35 0.47523 0.19832 0.0
Li89 Li 0.3363 0.44232 0.19868 0.0
Li90 Li 0.33382 0.45664 0.1626 0.0
Li91 Li 0.31891 0.45549 0.20012 0.0
C92 C 0.3671 0.46483 0.15992 0.0
N93 N 0.39015 0.47486 0.12182 0.0
C94 C 0.37225 0.45346 0.15081 0.0
C95 C 0.3737 0.48132 0.14973 0.0
C96 C 0.38392 0.45878 0.13153 0.0
C97 C 0.38533 0.48614 0.13045 0.0
C98 C 0.32943 0.45925 0.24552 0.0
C99 C 0.30919 0.44556 0.27829 0.0
N100 N 0.31427 0.46143 0.28799 0.0
C101 C 0.3346 0.4754 0.25602 0.0
C102 C 0.31677 0.44419 0.25693 0.0
C103 C 0.32673 0.47625 0.27741 0.0
C104 C 0.36866 0.51014 0.21596 0.0
N105 N 0.36981 0.49617 0.20864 0.0
C106 C 0.39987 0.51043 0.21899 0.0
C107 C 0.38503 0.49613 0.20976 0.0
C108 C 0.39901 0.52483 0.2277 0.0
C109 C 0.38314 0.52464 0.22575 0.0
H110 H 0.35634 0.50976 0.2151 0.0
H111 H 0.38557 0.48482 0.20388 0.0
C112 C 0.34228 0.41353 0.19536 0.0
N113 N 0.34072 0.42471 0.21051 0.0
C114 C 0.34713 0.40188 0.2044 0.0
C115 C 0.34845 0.41333 0.24439 0.0
C116 C 0.34362 0.42474 0.23461 0.0
C117 C 0.35048 0.40182 0.22923 0.0
H118 H 0.34008 0.4139 0.17622 0.0
H119 H 0.3427 0.43401 0.24619 0.0
C120 C 0.32041 0.48082 0.17157 0.0
N121 N 0.29593 0.48992 0.15922 0.0
C122 C 0.30515 0.4689 0.15977 0.0
C123 C 0.32328 0.4974 0.17693 0.0
C124 C 0.29291 0.47374 0.15373 0.0
C125 C 0.31072 0.50174 0.17057 0.0
C126 C 0.30735 0.41813 0.17836 0.0
C127 C 0.30576 0.40952 0.15658 0.0
C128 C 0.30093 0.40849 0.19958 0.0
C129 C 0.2983 0.39148 0.15652 0.0
C130 C 0.29357 0.39046 0.19881 0.0
N131 N 0.29245 0.3824 0.17747 0.0
C132 C 0.33666 0.44516 0.11546 0.0
C133 C 0.33419 0.47045 0.11617 0.0
C134 C 0.33784 0.44584 0.09025 0.0
N135 N 0.3346 0.4572 0.12786 0.0
C136 C 0.33538 0.47166 0.09104 0.0
C137 C 0.33718 0.45922 0.0777 0.0
H138 H 0.33773 0.43519 0.12516 0.0
H139 H 0.3332 0.48026 0.12633 0.0
C140 C 0.30001 0.46888 0.22371 0.0
N141 N 0.29845 0.45422 0.21368 0.0
C142 C 0.28567 0.46878 0.234 0.0
C143 C 0.26823 0.43846 0.22351 0.0
C144 C 0.28295 0.43917 0.21329 0.0
C145 C 0.26948 0.45341 0.23414 0.0
H146 H 0.31245 0.4807 0.22371 0.0
H147 H 0.28202 0.4277 0.20513 0.0
O148 O 0.35535 0.45973 0.17836 0.0
O149 O 0.33677 0.45823 0.22427 0.0
O150 O 0.33234 0.47615 0.17812 0.0
O151 O 0.31482 0.43584 0.17882 0.0
H152 H 0.3672 0.44063 0.15847 0.0
H153 H 0.3697 0.49021 0.15645 0.0
H154 H 0.38799 0.4501 0.12423 0.0
H155 H 0.39047 0.49883 0.12229 0.0
H156 H 0.29929 0.43399 0.28717 0.0
H157 H 0.34444 0.48719 0.24765 0.0
H158 H 0.31283 0.43156 0.24944 0.0
H159 H 0.33052 0.48869 0.28558 0.0
H160 H 0.41185 0.51007 0.21954 0.0
H161 H 0.38172 0.53529 0.23246 0.0
H162 H 0.34843 0.39315 0.19206 0.0
H163 H 0.35122 0.41402 0.26353 0.0
H164 H 0.30272 0.456 0.15551 0.0
H165 H 0.33503 0.50679 0.18598 0.0
H166 H 0.28101 0.46463 0.14471 0.0
H167 H 0.31274 0.51451 0.17469 0.0
H168 H 0.31002 0.41664 0.13984 0.0
H169 H 0.30171 0.41485 0.21647 0.0
H170 H 0.29708 0.38468 0.13979 0.0
H171 H 0.28874 0.38289 0.21517 0.0
H172 H 0.33961 0.4362 0.08073 0.0
H173 H 0.3348 0.4822 0.08213 0.0
H174 H 0.28724 0.48071 0.24155 0.0
H175 H 0.25607 0.42628 0.22337 0.0
Li176 Li 0.87474 0.34963 0.18885 0.0
Li177 Li 0.89614 0.33868 0.19225 0.0
Li178 Li 0.8786 0.33468 0.15317 0.0
Li179 Li 0.86535 0.31945 0.18933 0.0
C180 C 0.90925 0.37263 0.1641 0.0
N181 N 0.93616 0.40545 0.15298 0.0
C182 C 0.92233 0.38201 0.181 0.0
C183 C 0.90995 0.37993 0.14147 0.0
C184 C 0.9358 0.39858 0.17506 0.0
C185 C 0.92363 0.39654 0.13622 0.0
C186 C 0.86856 0.32767 0.23475 0.0
C187 C 0.86298 0.30795 0.2679 0.0
N188 N 0.84832 0.30844 0.27326 0.0
C189 C 0.85347 0.32801 0.24063 0.0
C190 C 0.87339 0.31757 0.24849 0.0
C191 C 0.8434 0.31819 0.26014 0.0
C192 C 0.85467 0.36529 0.2023 0.0
N193 N 0.87104 0.36793 0.20005 0.0
C194 C 0.88294 0.39654 0.21631 0.0
C195 C 0.88504 0.38315 0.20693 0.0
C196 C 0.8662 0.39417 0.21918 0.0
C197 C 0.85193 0.37828 0.21187 0.0
H198 H 0.84369 0.35295 0.19713 0.0
H199 H 0.89787 0.38484 0.20555 0.0
C200 C 0.93218 0.34839 0.19217 0.0
N201 N 0.9182 0.34506 0.20594 0.0
C202 C 0.94874 0.35589 0.20259 0.0
C203 C 0.93595 0.35563 0.24118 0.0
C204 C 0.91978 0.34835 0.23004 0.0
C205 C 0.95082 0.35999 0.22736 0.0
H206 H 0.93061 0.346 0.17292 0.0
H207 H 0.90859 0.34607 0.24047 0.0
C208 C 0.84976 0.33881 0.15318 0.0
N209 N 0.83623 0.35392 0.1231 0.0
C210 C 0.83236 0.3295 0.14607 0.0
C211 C 0.86024 0.35581 0.14498 0.0
C212 C 0.82578 0.33736 0.13084 0.0
C213 C 0.85317 0.36322 0.12981 0.0
C214 C 0.8782 0.30112 0.16757 0.0
C215 C 0.86382 0.2911 0.1529 0.0
C216 C 0.8866 0.2934 0.17913 0.0
C217 C 0.85788 0.27338 0.15032 0.0
C218 C 0.88028 0.27564 0.17606 0.0
N219 N 0.86616 0.26609 0.16186 0.0
C220 C 0.8943 0.34071 0.10632 0.0
C221 C 0.86361 0.32433 0.10702 0.0
C222 C 0.89433 0.3393 0.08113 0.0
N223 N 0.87905 0.33337 0.11867 0.0
C224 C 0.86302 0.32275 0.08194 0.0
C225 C 0.87851 0.33022 0.06854 0.0
H226 H 0.90644 0.34753 0.11606 0.0
H227 H 0.85167 0.31817 0.11722 0.0
C228 C 0.83042 0.29454 0.19695 0.0
N229 N 0.84677 0.2975 0.20071 0.0
C230 C 0.81608 0.27903 0.20445 0.0
C231 C 0.83557 0.26987 0.22006 0.0
C232 C 0.84957 0.28559 0.2122 0.0
C233 C 0.81853 0.26639 0.21609 0.0
H234 H 0.82852 0.30434 0.18831 0.0
H235 H 0.86266 0.28831 0.21543 0.0
O236 O 0.89615 0.35619 0.16938 0.0
O237 O 0.87835 0.33689 0.21535 0.0
O238 O 0.85638 0.33115 0.16793 0.0
O239 O 0.88414 0.31844 0.17046 0.0
H240 H 0.92199 0.37668 0.19866 0.0
H241 H 0.90006 0.37286 0.12804 0.0
H242 H 0.94594 0.406 0.18802 0.0
H243 H 0.9243 0.40234 0.11879 0.0
H244 H 0.86649 0.29999 0.27858 0.0
H245 H 0.84947 0.33562 0.23007 0.0
H246 H 0.88485 0.31688 0.24394 0.0
H247 H 0.83163 0.31826 0.26481 0.0
H248 H 0.89438 0.40861 0.2213 0.0
H249 H 0.83877 0.37571 0.21405 0.0
H250 H 0.95985 0.3592 0.19118 0.0
H251 H 0.93685 0.3583 0.26037 0.0
H252 H 0.82405 0.31628 0.15204 0.0
H253 H 0.87361 0.3633 0.15045 0.0
H254 H 0.81235 0.33027 0.12515 0.0
H255 H 0.86116 0.37639 0.12341 0.0
H256 H 0.85718 0.29691 0.14388 0.0
H257 H 0.89779 0.30104 0.19048 0.0
H258 H 0.84667 0.26543 0.13918 0.0
H259 H 0.88657 0.26946 0.18499 0.0
H260 H 0.90663 0.34502 0.07171 0.0
H261 H 0.85049 0.3158 0.07317 0.0
H262 H 0.80319 0.27707 0.20148 0.0
H263 H 0.83807 0.26048 0.22892 0.0
Li264 Li 0.56468 0.89851 0.20176 0.0
Li265 Li 0.5314 0.87806 0.20153 0.0
Li266 Li 0.55189 0.86689 0.20084 0.0
Li267 Li 0.54925 0.88085 0.16601 0.0
C268 C 0.55108 0.87345 0.24633 0.0
N269 N 0.55496 0.85633 0.28531 0.0
C270 C 0.53647 0.86032 0.25798 0.0
C271 C 0.56766 0.87794 0.25452 0.0
C272 C 0.53871 0.85181 0.27766 0.0
C273 C 0.56935 0.86912 0.27426 0.0
C274 C 0.54212 0.9059 0.1624 0.0
C275 C 0.52151 0.90387 0.13248 0.0
N276 N 0.53423 0.91832 0.12147 0.0
C277 C 0.55499 0.92075 0.15087 0.0
C278 C 0.52523 0.89739 0.15321 0.0
C279 C 0.55074 0.92682 0.13017 0.0
C280 C 0.59378 0.93282 0.19907 0.0
N281 N 0.582 0.92037 0.21401 0.0
C282 C 0.59235 0.93992 0.2475 0.0
C283 C 0.58118 0.92355 0.23783 0.0
C284 C 0.60431 0.95324 0.23243 0.0
C285 C 0.60508 0.94949 0.20794 0.0
H286 H 0.59407 0.92994 0.18016 0.0
H287 H 0.57148 0.91352 0.24921 0.0
C288 C 0.49708 0.86065 0.22136 0.0
N289 N 0.51059 0.87604 0.21381 0.0
C290 C 0.48234 0.86002 0.23141 0.0
C291 C 0.49575 0.89102 0.22548 0.0
C292 C 0.51017 0.89105 0.21561 0.0
C293 C 0.48164 0.8754 0.23379 0.0
H294 H 0.49786 0.84894 0.21987 0.0
H295 H 0.52115 0.9031 0.20954 0.0
C296 C 0.58144 0.87892 0.17146 0.0
N297 N 0.60218 0.86693 0.15245 0.0
C298 C 0.57473 0.8656 0.15436 0.0
C299 C 0.59873 0.88628 0.17873 0.0
C300 C 0.58542 0.85968 0.14499 0.0
C301 C 0.609 0.87999 0.16897 0.0
C302 C 0.5194 0.84604 0.16779 0.0
C303 C 0.52401 0.83427 0.15862 0.0
C304 C 0.50291 0.84362 0.16301 0.0
C305 C 0.51213 0.82042 0.14442 0.0
C306 C 0.4914 0.82961 0.14872 0.0
N307 N 0.49622 0.81841 0.13979 0.0
C308 C 0.53861 0.83261 0.21603 0.0
C309 C 0.56933 0.84856 0.217 0.0
C310 C 0.53852 0.81765 0.22377 0.0
N311 N 0.55385 0.84759 0.21242 0.0
C312 C 0.56985 0.83387 0.22487 0.0
C313 C 0.55429 0.81808 0.22805 0.0
H314 H 0.52647 0.83229 0.21286 0.0
H315 H 0.58127 0.8607 0.21461 0.0
C316 C 0.56533 0.89309 0.12077 0.0
N317 N 0.5499 0.8818 0.13121 0.0
C318 C 0.56689 0.89447 0.09563 0.0
C319 C 0.53664 0.87261 0.09235 0.0
C320 C 0.53562 0.87185 0.11752 0.0
C321 C 0.55245 0.88402 0.08097 0.0
H322 H 0.57644 0.9011 0.13204 0.0
H323 H 0.52336 0.86332 0.12599 0.0
O324 O 0.54917 0.88153 0.22654 0.0
O325 O 0.54612 0.89939 0.18219 0.0
O326 O 0.57124 0.88493 0.18093 0.0
O327 O 0.53072 0.85957 0.18201 0.0
H328 H 0.52356 0.85664 0.25173 0.0
H329 H 0.57909 0.88795 0.24548 0.0
H330 H 0.52753 0.84155 0.28679 0.0
H331 H 0.5821 0.87237 0.28071 0.0
H332 H 0.50852 0.89736 0.12507 0.0
H333 H 0.56814 0.92742 0.15769 0.0
H334 H 0.51517 0.88578 0.16182 0.0
H335 H 0.56057 0.93826 0.12097 0.0
H336 H 0.59112 0.94232 0.26637 0.0
H337 H 0.61418 0.95938 0.19575 0.0
H338 H 0.47182 0.84772 0.23777 0.0
H339 H 0.49566 0.90313 0.22658 0.0
H340 H 0.56148 0.85999 0.14825 0.0
H341 H 0.60411 0.89666 0.1919 0.0
H342 H 0.58039 0.84936 0.13176 0.0
H343 H 0.62239 0.8855 0.17451 0.0
H344 H 0.53654 0.83567 0.1626 0.0
H345 H 0.4991 0.85257 0.17005 0.0
H346 H 0.51554 0.81123 0.13717 0.0
H347 H 0.47864 0.82765 0.14474 0.0
H348 H 0.52621 0.80588 0.22649 0.0
H349 H 0.5823 0.83479 0.22799 0.0
H350 H 0.57927 0.90375 0.08784 0.0
H351 H 0.52516 0.86413 0.08199 0.0
Li352 Li 0.65159 0.52649 0.1871 0.0
Li353 Li 0.66166 0.55772 0.19197 0.0
Li354 Li 0.66484 0.54513 0.15371 0.0
Li355 Li 0.68253 0.54652 0.18919 0.0
C356 C 0.63373 0.5418 0.15193 0.0
N357 N 0.61567 0.54503 0.11353 0.0
C358 C 0.63091 0.5559 0.15073 0.0
C359 C 0.62715 0.52923 0.13371 0.0
C360 C 0.62179 0.55732 0.13116 0.0
C361 C 0.61814 0.53114 0.1144 0.0
C362 C 0.67278 0.55074 0.23532 0.0
C363 C 0.69456 0.57657 0.25537 0.0
N364 N 0.68855 0.5687 0.2771 0.0
C365 C 0.66682 0.5429 0.25784 0.0
C366 C 0.68677 0.56771 0.23404 0.0
C367 C 0.67497 0.5522 0.27876 0.0
C368 C 0.63626 0.49745 0.21832 0.0
N369 N 0.63376 0.50422 0.1977 0.0
C370 C 0.60519 0.47986 0.19332 0.0
C371 C 0.61864 0.49578 0.18516 0.0
C372 C 0.60725 0.4727 0.21481 0.0
C373 C 0.62307 0.48164 0.2273 0.0
H374 H 0.64844 0.50447 0.22792 0.0
H375 H 0.6169 0.50151 0.169 0.0
C376 C 0.66092 0.58944 0.19575 0.0
N377 N 0.65683 0.57422 0.20686 0.0
C378 C 0.65613 0.60076 0.2062 0.0
C379 C 0.64368 0.58085 0.2397 0.0
C380 C 0.64835 0.56977 0.22839 0.0
C381 C 0.64738 0.59646 0.22845 0.0
H382 H 0.66743 0.59254 0.17845 0.0
H383 H 0.6449 0.55743 0.23658 0.0
C384 C 0.66467 0.50995 0.16638 0.0
N385 N 0.65281 0.47473 0.16903 0.0
C386 C 0.67219 0.5036 0.18262 0.0
C387 C 0.6512 0.49838 0.15135 0.0
C388 C 0.66599 0.48576 0.18372 0.0
C389 C 0.64536 0.48063 0.15301 0.0
C390 C 0.6967 0.57949 0.16117 0.0
C391 C 0.70402 0.57668 0.14055 0.0
C392 C 0.70402 0.59618 0.17092 0.0
C393 C 0.71861 0.59063 0.13006 0.0
C394 C 0.71861 0.60979 0.15992 0.0
N395 N 0.72554 0.60676 0.13988 0.0
C396 C 0.6648 0.56149 0.10941 0.0
C397 C 0.66617 0.53569 0.10527 0.0
C398 C 0.66458 0.56315 0.08432 0.0
N399 N 0.66537 0.54779 0.11932 0.0
C400 C 0.66595 0.53683 0.08015 0.0
C401 C 0.66507 0.55065 0.0693 0.0
H402 H 0.6644 0.57105 0.12103 0.0
H403 H 0.66689 0.52509 0.11357 0.0
C404 C 0.70447 0.54172 0.22155 0.0
N405 N 0.70436 0.54957 0.20051 0.0
C406 C 0.71975 0.54271 0.22994 0.0
C407 C 0.73467 0.55993 0.19496 0.0
C408 C 0.71908 0.55856 0.18723 0.0
C409 C 0.73514 0.55183 0.21651 0.0
H410 H 0.69256 0.53425 0.23156 0.0
H411 H 0.71875 0.56444 0.17041 0.0
O412 O 0.64286 0.54033 0.17082 0.0
O413 O 0.66486 0.54177 0.21471 0.0
O414 O 0.67024 0.52734 0.16555 0.0
O415 O 0.6822 0.56611 0.17148 0.0
H416 H 0.6357 0.56564 0.16474 0.0
H417 H 0.62933 0.51833 0.13414 0.0
H418 H 0.61959 0.56821 0.12998 0.0
H419 H 0.61317 0.52162 0.10006 0.0
H420 H 0.7054 0.58971 0.25464 0.0
H421 H 0.65599 0.52978 0.25913 0.0
H422 H 0.69159 0.57398 0.21682 0.0
H423 H 0.67049 0.5463 0.29631 0.0
H424 H 0.59312 0.47349 0.18334 0.0
H425 H 0.62518 0.47648 0.24387 0.0
H426 H 0.65913 0.61268 0.19696 0.0
H427 H 0.6367 0.57697 0.25667 0.0
H428 H 0.6826 0.51231 0.19438 0.0
H429 H 0.64509 0.503 0.13883 0.0
H430 H 0.67164 0.48067 0.19629 0.0
H431 H 0.63484 0.47153 0.14163 0.0
H432 H 0.69868 0.56382 0.13292 0.0
H433 H 0.6985 0.5986 0.18685 0.0
H434 H 0.72444 0.58862 0.11416 0.0
H435 H 0.72442 0.62277 0.16729 0.0
H436 H 0.66416 0.57417 0.07679 0.0
H437 H 0.66617 0.52678 0.06937 0.0
H438 H 0.71938 0.53597 0.24641 0.0
H439 H 0.74622 0.56722 0.18409 0.0
Li440 Li 0.11662 0.66472 0.15295 0.0
Li441 Li 0.13225 0.68238 0.1913 0.0
Li442 Li 0.12129 0.65103 0.18814 0.0
Li443 Li 0.10137 0.661 0.19163 0.0
C444 C 0.14993 0.66328 0.16336 0.0
N445 N 0.17071 0.64878 0.15626 0.0
C446 C 0.16317 0.66656 0.17974 0.0
C447 C 0.14729 0.65269 0.14332 0.0
C448 C 0.17352 0.65908 0.17585 0.0
C449 C 0.15794 0.64547 0.14005 0.0
C450 C 0.10194 0.68815 0.17367 0.0
C451 C 0.0908 0.70396 0.19541 0.0
N452 N 0.07734 0.69809 0.17957 0.0
C453 C 0.08806 0.68233 0.15754 0.0
C454 C 0.10339 0.69909 0.19272 0.0
C455 C 0.07573 0.68748 0.16086 0.0
C456 C 0.09993 0.6557 0.1076 0.0
N457 N 0.11544 0.6655 0.1188 0.0
C458 C 0.12957 0.67645 0.08089 0.0
C459 C 0.13012 0.67581 0.10608 0.0
C460 C 0.11375 0.66639 0.06872 0.0
C461 C 0.09878 0.65594 0.08245 0.0
H462 H 0.08847 0.64764 0.11823 0.0
H463 H 0.14226 0.68352 0.11552 0.0
C464 C 0.16175 0.70378 0.21917 0.0
N465 N 0.15073 0.70396 0.20234 0.0
C466 C 0.17594 0.71931 0.22707 0.0
C467 C 0.167 0.73494 0.20046 0.0
C468 C 0.15303 0.71908 0.19297 0.0
C469 C 0.17879 0.73521 0.21765 0.0
H470 H 0.15957 0.69153 0.2263 0.0
H471 H 0.14405 0.71882 0.17957 0.0
C472 C 0.09073 0.62559 0.16936 0.0
N473 N 0.07244 0.58975 0.17026 0.0
C474 C 0.08305 0.61681 0.19079 0.0
C475 C 0.08896 0.61617 0.14831 0.0
C476 C 0.0739 0.59868 0.1909 0.0
C477 C 0.0797 0.59805 0.14916 0.0
C478 C 0.11411 0.66476 0.23817 0.0
C479 C 0.10388 0.64936 0.25089 0.0
C480 C 0.11909 0.68071 0.24919 0.0
C481 C 0.09851 0.65018 0.27431 0.0
C482 C 0.11349 0.68098 0.27267 0.0
N483 N 0.10337 0.66583 0.28462 0.0
C484 C 0.13222 0.63449 0.22124 0.0
C485 C 0.12388 0.62019 0.18345 0.0
C486 C 0.13526 0.62162 0.23038 0.0
N487 N 0.12634 0.6334 0.1983 0.0
C488 C 0.1265 0.6069 0.19194 0.0
C489 C 0.13207 0.60735 0.21585 0.0
H490 H 0.13445 0.64532 0.23253 0.0
H491 H 0.11968 0.61982 0.16507 0.0
C492 C 0.06509 0.64353 0.19006 0.0
N493 N 0.07868 0.65526 0.20357 0.0
C494 C 0.04806 0.63769 0.19741 0.0
C495 C 0.05913 0.65662 0.23205 0.0
C496 C 0.076 0.66216 0.22393 0.0
C497 C 0.04488 0.64406 0.21885 0.0
H498 H 0.06745 0.63856 0.17357 0.0
H499 H 0.08686 0.672 0.23391 0.0
O500 O 0.13935 0.67008 0.16719 0.0
O501 O 0.1138 0.68278 0.1712 0.0
O502 O 0.09982 0.64333 0.1689 0.0
O503 O 0.11968 0.66422 0.21534 0.0
H504 H 0.16531 0.67465 0.1954 0.0
H505 H 0.13696 0.64987 0.13062 0.0
H506 H 0.18376 0.66142 0.18845 0.0
H507 H 0.15599 0.63717 0.1247 0.0
H508 H 0.09168 0.71235 0.21015 0.0
H509 H 0.08673 0.67376 0.14279 0.0
H510 H 0.114 0.70358 0.20546 0.0
H511 H 0.06485 0.68299 0.14862 0.0
H512 H 0.14138 0.68488 0.0711 0.0
H513 H 0.08636 0.64783 0.07385 0.0
H514 H 0.18477 0.71881 0.24006 0.0
H515 H 0.16852 0.74685 0.19292 0.0
H516 H 0.08414 0.62393 0.20713 0.0
H517 H 0.09485 0.62279 0.13158 0.0
H518 H 0.06794 0.5917 0.20738 0.0
H519 H 0.07831 0.59058 0.13306 0.0
H520 H 0.1002 0.63693 0.24282 0.0
H521 H 0.12703 0.69276 0.23966 0.0
H522 H 0.09052 0.63837 0.28433 0.0
H523 H 0.11714 0.69322 0.28137 0.0
H524 H 0.14001 0.62285 0.24869 0.0
H525 H 0.12374 0.59618 0.18003 0.0
H526 H 0.03749 0.62796 0.18667 0.0
H527 H 0.05727 0.66215 0.24841 0.0
Li528 Li 0.86371 0.54814 0.30893 0.0
Li529 Li 0.87806 0.54638 0.34699 0.0
Li530 Li 0.89505 0.5581 0.3088 0.0
Li531 Li 0.87423 0.52775 0.3124 0.0
C532 C 0.88425 0.58278 0.33388 0.0
N533 N 0.88748 0.6144 0.34602 0.0
C534 C 0.87588 0.58424 0.35434 0.0
C535 C 0.89443 0.59746 0.31974 0.0
C536 C 0.87762 0.60032 0.36013 0.0
C537 C 0.89585 0.61331 0.32613 0.0
C538 C 0.84569 0.51235 0.34094 0.0
C539 C 0.84095 0.48941 0.36852 0.0
N540 N 0.82486 0.47931 0.35898 0.0
C541 C 0.82914 0.50175 0.33135 0.0
C542 C 0.85167 0.50616 0.35966 0.0
C543 C 0.81879 0.48508 0.34075 0.0
C544 C 0.83548 0.54064 0.27851 0.0
N545 N 0.84519 0.55111 0.29691 0.0
C546 C 0.8272 0.56399 0.29895 0.0
C547 C 0.84136 0.56269 0.30713 0.0
C548 C 0.81679 0.5532 0.28014 0.0
C549 C 0.82119 0.54149 0.26976 0.0
H550 H 0.8387 0.5314 0.27089 0.0
H551 H 0.8491 0.57076 0.32186 0.0
C552 C 0.89288 0.55404 0.39393 0.0
N553 N 0.87796 0.54831 0.38117 0.0
C554 C 0.8927 0.555 0.41913 0.0
C555 C 0.86183 0.54426 0.41746 0.0
C556 C 0.86261 0.54348 0.39235 0.0
C557 C 0.877 0.55004 0.43124 0.0
H558 H 0.90491 0.55782 0.38452 0.0
H559 H 0.85093 0.53893 0.3817 0.0
C560 C 0.87904 0.55191 0.26352 0.0
N561 N 0.88327 0.57002 0.22113 0.0
C562 C 0.88037 0.54502 0.24147 0.0
C563 C 0.87981 0.56798 0.26398 0.0
C564 C 0.88254 0.55438 0.22024 0.0
C565 C 0.88195 0.57694 0.24237 0.0
C566 C 0.9083 0.53781 0.32644 0.0
C567 C 0.91038 0.5342 0.30251 0.0
C568 C 0.91951 0.53798 0.34423 0.0
C569 C 0.9237 0.53084 0.29676 0.0
C570 C 0.93269 0.53456 0.33775 0.0
N571 N 0.93449 0.53109 0.31435 0.0
C572 C 0.92879 0.58744 0.31199 0.0
C573 C 0.92278 0.57227 0.27487 0.0
C574 C 0.94596 0.59861 0.30487 0.0
N575 N 0.91764 0.57454 0.29703 0.0
C576 C 0.93978 0.58311 0.26704 0.0
C577 C 0.9517 0.59641 0.28219 0.0
H578 H 0.92445 0.5888 0.32967 0.0
H579 H 0.91392 0.56163 0.26357 0.0
C580 C 0.86501 0.49994 0.28019 0.0
N581 N 0.86999 0.50528 0.30327 0.0
C582 C 0.86425 0.48479 0.27168 0.0
C583 C 0.87287 0.48044 0.31127 0.0
C584 C 0.87369 0.4958 0.31889 0.0
C585 C 0.86852 0.47494 0.28716 0.0
H586 H 0.86227 0.50782 0.26811 0.0
H587 H 0.87787 0.50047 0.33707 0.0
O588 O 0.88286 0.56718 0.32807 0.0
O589 O 0.85594 0.52876 0.33213 0.0
O590 O 0.87705 0.5429 0.28444 0.0
O591 O 0.89536 0.54115 0.33256 0.0
H592 H 0.86795 0.57304 0.36548 0.0
H593 H 0.90121 0.59666 0.30401 0.0
H594 H 0.87112 0.6016 0.37584 0.0
H595 H 0.90364 0.62475 0.31531 0.0
H596 H 0.84543 0.48443 0.38295 0.0
H597 H 0.82434 0.50639 0.31686 0.0
H598 H 0.86453 0.51414 0.3671 0.0
H599 H 0.80593 0.47673 0.33357 0.0
H600 H 0.82444 0.57334 0.30732 0.0
H601 H 0.81341 0.53274 0.25547 0.0
H602 H 0.90474 0.55972 0.429 0.0
H603 H 0.84941 0.5401 0.42601 0.0
H604 H 0.8799 0.53263 0.24078 0.0
H605 H 0.87863 0.57343 0.28079 0.0
H606 H 0.88365 0.54923 0.20307 0.0
H607 H 0.88254 0.58938 0.24249 0.0
H608 H 0.9018 0.53396 0.2885 0.0
H609 H 0.91805 0.54072 0.36285 0.0
H610 H 0.92546 0.52803 0.2783 0.0
H611 H 0.94147 0.53465 0.35134 0.0
H612 H 0.95467 0.60874 0.31709 0.0
H613 H 0.94369 0.58064 0.24966 0.0
H614 H 0.86108 0.4813 0.25289 0.0
H615 H 0.87596 0.47318 0.32404 0.0
Li616 Li 0.33125 0.87702 0.34102 0.0
Li617 Li 0.31404 0.86357 0.30436 0.0
Li618 Li 0.34633 0.87401 0.3053 0.0
Li619 Li 0.33571 0.89462 0.30286 0.0
C620 C 0.32537 0.84243 0.33942 0.0
N621 N 0.32171 0.81616 0.36986 0.0
C622 C 0.30893 0.82822 0.34405 0.0
C623 C 0.33997 0.8431 0.34994 0.0
C624 C 0.30734 0.81512 0.35958 0.0
C625 C 0.33785 0.82975 0.36536 0.0
C626 C 0.29871 0.88063 0.3267 0.0
C627 C 0.27438 0.8822 0.31048 0.0
N628 N 0.26575 0.87597 0.33168 0.0
C629 C 0.28969 0.87445 0.34844 0.0
C630 C 0.29109 0.88473 0.30765 0.0
C631 C 0.27301 0.8721 0.35056 0.0
C632 C 0.34184 0.89132 0.38807 0.0
N633 N 0.33049 0.87688 0.37559 0.0
C634 C 0.31838 0.86149 0.41243 0.0
C635 C 0.31863 0.86226 0.38725 0.0
C636 C 0.33025 0.87603 0.42581 0.0
C637 C 0.34195 0.89118 0.41333 0.0
H638 H 0.35094 0.9029 0.37841 0.0
H639 H 0.30929 0.85119 0.37702 0.0
C640 C 0.2911 0.83874 0.27071 0.0
N641 N 0.2921 0.84532 0.29319 0.0
C642 C 0.27567 0.82441 0.26271 0.0
C643 C 0.26251 0.82403 0.30102 0.0
C644 C 0.2782 0.83827 0.30831 0.0
C645 C 0.26113 0.81673 0.27804 0.0
H646 H 0.30244 0.84431 0.25922 0.0
H647 H 0.27943 0.84331 0.32636 0.0
C648 C 0.36986 0.90177 0.33378 0.0
N649 N 0.40355 0.91545 0.35016 0.0
C650 C 0.38306 0.91748 0.3245 0.0
C651 C 0.37377 0.89319 0.35169 0.0
C652 C 0.40002 0.92413 0.33291 0.0
C653 C 0.39087 0.90027 0.35967 0.0
C654 C 0.33187 0.88218 0.25674 0.0
C655 C 0.3463 0.88799 0.24162 0.0
C656 C 0.31718 0.8825 0.24856 0.0
C657 C 0.34593 0.8944 0.21873 0.0
C658 C 0.3173 0.88899 0.22555 0.0
N659 N 0.33157 0.89478 0.21125 0.0
C660 C 0.36305 0.85442 0.29436 0.0
C661 C 0.37891 0.88445 0.28524 0.0
C662 C 0.37671 0.85227 0.28607 0.0
N663 N 0.3645 0.87038 0.29408 0.0
C664 C 0.39287 0.88293 0.2769 0.0
C665 C 0.39194 0.8667 0.27738 0.0
H666 H 0.35129 0.84335 0.30097 0.0
H667 H 0.37948 0.89686 0.28442 0.0
C668 C 0.33384 0.92574 0.29483 0.0
N669 N 0.34227 0.91691 0.28969 0.0
C670 C 0.33999 0.94249 0.28561 0.0
C671 C 0.36313 0.94052 0.26579 0.0
C672 C 0.35662 0.92395 0.27546 0.0
C673 C 0.35498 0.95018 0.27109 0.0
H674 H 0.3226 0.91997 0.3065 0.0
H675 H 0.36324 0.91677 0.27199 0.0
O676 O 0.32713 0.85538 0.32426 0.0
O677 O 0.31504 0.88298 0.32431 0.0
O678 O 0.35319 0.89499 0.32558 0.0
O679 O 0.33207 0.87605 0.27932 0.0
H680 H 0.2975 0.82736 0.3359 0.0
H681 H 0.35283 0.85368 0.34602 0.0
H682 H 0.29468 0.80413 0.36346 0.0
H683 H 0.34904 0.83014 0.37366 0.0
H684 H 0.26829 0.88524 0.29584 0.0
H685 H 0.29546 0.87139 0.36345 0.0
H686 H 0.29802 0.8899 0.29092 0.0
H687 H 0.26583 0.86721 0.36722 0.0
H688 H 0.30888 0.84969 0.42135 0.0
H689 H 0.35132 0.90267 0.42296 0.0
H690 H 0.27536 0.81907 0.24503 0.0
H691 H 0.25165 0.81868 0.31342 0.0
H692 H 0.38027 0.92443 0.31085 0.0
H693 H 0.36367 0.88131 0.35956 0.0
H694 H 0.41037 0.9362 0.32575 0.0
H695 H 0.39406 0.89372 0.37349 0.0
H696 H 0.35772 0.88767 0.24757 0.0
H697 H 0.30578 0.87768 0.25981 0.0
H698 H 0.35706 0.89907 0.20692 0.0
H699 H 0.30604 0.88937 0.21903 0.0
H700 H 0.37546 0.83953 0.28673 0.0
H701 H 0.40417 0.89431 0.2698 0.0
H702 H 0.33341 0.94953 0.29041 0.0
H703 H 0.37455 0.94575 0.25443 0.0
Li704 Li 0.44084 0.33883 0.30579 0.0
Li705 Li 0.47191 0.35107 0.30877 0.0
Li706 Li 0.45237 0.31925 0.30389 0.0
Li707 Li 0.45297 0.33339 0.34238 0.0
C708 C 0.45973 0.34963 0.26259 0.0
N709 N 0.46587 0.37275 0.22546 0.0
C710 C 0.46137 0.3658 0.26746 0.0
C711 C 0.46122 0.34521 0.23885 0.0
C712 C 0.46447 0.37731 0.24843 0.0
C713 C 0.46432 0.35708 0.22032 0.0
C714 C 0.46623 0.36903 0.34613 0.0
C715 C 0.48952 0.38236 0.37511 0.0
N716 N 0.48548 0.39501 0.37902 0.0
C717 C 0.46229 0.38215 0.35046 0.0
C718 C 0.47996 0.36912 0.35855 0.0
C719 C 0.47218 0.39518 0.36715 0.0
C720 C 0.41875 0.35324 0.30626 0.0
N721 N 0.42371 0.34363 0.29296 0.0
C722 C 0.40768 0.34457 0.2589 0.0
C723 C 0.41812 0.33894 0.26986 0.0
C724 C 0.40289 0.35511 0.27184 0.0
C725 C 0.40823 0.35911 0.29603 0.0
H726 H 0.42349 0.35689 0.32452 0.0
H727 H 0.42233 0.3314 0.25955 0.0
C728 C 0.50512 0.36636 0.28737 0.0
N729 N 0.49401 0.37003 0.2994 0.0
C730 C 0.52114 0.37979 0.2793 0.0
C731 C 0.51395 0.40047 0.29608 0.0
C732 C 0.49803 0.3867 0.30354 0.0
C733 C 0.52573 0.39711 0.28377 0.0
H734 H 0.50146 0.35299 0.28393 0.0
H735 H 0.48878 0.3894 0.3122 0.0
C736 C 0.41664 0.30423 0.31409 0.0
N737 N 0.38515 0.27973 0.29484 0.0
C738 C 0.40227 0.29504 0.32913 0.0
C739 C 0.415 0.30096 0.28926 0.0
C740 C 0.38645 0.2827 0.31905 0.0
C741 C 0.39897 0.28852 0.27988 0.0
C742 C 0.48378 0.32751 0.33414 0.0
C743 C 0.47879 0.31008 0.33779 0.0
C744 C 0.50097 0.34036 0.33844 0.0
C745 C 0.49108 0.30579 0.34569 0.0
C746 C 0.51288 0.33554 0.34631 0.0
N747 N 0.50774 0.3185 0.34974 0.0
C748 C 0.46043 0.30058 0.27023 0.0
C749 C 0.43995 0.28305 0.29995 0.0
C750 C 0.45973 0.28597 0.25969 0.0
N751 N 0.45063 0.29885 0.28998 0.0
C752 C 0.43886 0.26811 0.29002 0.0
C753 C 0.44887 0.26945 0.26964 0.0
H754 H 0.46889 0.31334 0.2628 0.0
H755 H 0.43237 0.28207 0.31574 0.0
C756 C 0.4446 0.33868 0.39001 0.0
N757 N 0.45167 0.33086 0.37683 0.0
C758 C 0.44486 0.33827 0.41526 0.0
C759 C 0.45918 0.32133 0.41288 0.0
C760 C 0.4586 0.32204 0.38774 0.0
C761 C 0.45247 0.32972 0.42702 0.0
H762 H 0.43911 0.34559 0.38091 0.0
H763 H 0.46389 0.3157 0.37699 0.0
O764 O 0.45668 0.3381 0.28087 0.0
O765 O 0.45659 0.35618 0.32987 0.0
O766 O 0.43217 0.31638 0.32376 0.0
O767 O 0.472 0.33199 0.32606 0.0
H768 H 0.4602 0.36944 0.28569 0.0
H769 H 0.45996 0.33273 0.2348 0.0
H770 H 0.46575 0.38986 0.25194 0.0
H771 H 0.4655 0.35384 0.20186 0.0
H772 H 0.50016 0.38256 0.38486 0.0
H773 H 0.45173 0.38229 0.34098 0.0
H774 H 0.48314 0.35905 0.35555 0.0
H775 H 0.46929 0.40543 0.37066 0.0
H776 H 0.4037 0.34103 0.24031 0.0
H777 H 0.40499 0.36734 0.30659 0.0
H778 H 0.52988 0.37668 0.26981 0.0
H779 H 0.51683 0.41366 0.29936 0.0
H780 H 0.40333 0.29744 0.34839 0.0
H781 H 0.42598 0.30792 0.27734 0.0
H782 H 0.37521 0.27549 0.33047 0.0
H783 H 0.39753 0.28586 0.2607 0.0
H784 H 0.46552 0.29998 0.33495 0.0
H785 H 0.5051 0.35393 0.33579 0.0
H786 H 0.48737 0.29235 0.34866 0.0
H787 H 0.52622 0.34536 0.34971 0.0
H788 H 0.46784 0.28764 0.24419 0.0
H789 H 0.43019 0.25563 0.29813 0.0
H790 H 0.43963 0.34501 0.42544 0.0
H791 H 0.46487 0.31431 0.42116 0.0
Li792 Li 0.12462 0.47468 0.31104 0.0
Li793 Li 0.10417 0.44346 0.30791 0.0
Li794 Li 0.12189 0.456 0.34448 0.0
Li795 Li 0.13483 0.45369 0.30666 0.0
C796 C 0.09457 0.45926 0.3508 0.0
N797 N 0.07646 0.45615 0.39277 0.0
C798 C 0.0793 0.44379 0.35595 0.0
C799 C 0.10061 0.47318 0.36692 0.0
C800 C 0.07032 0.44248 0.37727 0.0
C801 C 0.09128 0.47134 0.38807 0.0
C802 C 0.11171 0.45435 0.26308 0.0
C803 C 0.09715 0.43388 0.23088 0.0
N804 N 0.09057 0.44385 0.22279 0.0
C805 C 0.10487 0.46444 0.25439 0.0
C806 C 0.10791 0.43899 0.25118 0.0
C807 C 0.0942 0.4589 0.234 0.0
C808 C 0.14077 0.50708 0.28602 0.0
N809 N 0.12783 0.4967 0.30149 0.0
C810 C 0.11707 0.5165 0.30169 0.0
C811 C 0.11607 0.50109 0.30934 0.0
C812 C 0.13035 0.52762 0.28582 0.0
C813 C 0.14239 0.52276 0.27813 0.0
H814 H 0.14971 0.50309 0.2796 0.0
H815 H 0.10562 0.49239 0.32109 0.0
C816 C 0.07582 0.4104 0.29212 0.0
N817 N 0.08171 0.42761 0.2954 0.0
C818 C 0.0594 0.39971 0.28203 0.0
C819 C 0.05556 0.42468 0.27901 0.0
C820 C 0.07192 0.43481 0.28924 0.0
C821 C 0.04901 0.40684 0.27533 0.0
H822 H 0.08385 0.40499 0.29726 0.0
H823 H 0.07698 0.44855 0.29203 0.0
C824 C 0.15649 0.49061 0.32789 0.0
N825 N 0.18223 0.52499 0.32432 0.0
C826 C 0.17055 0.49542 0.31235 0.0
C827 C 0.15555 0.50328 0.34168 0.0
C828 C 0.18343 0.51287 0.31081 0.0
C829 C 0.16868 0.5206 0.33958 0.0
C830 C 0.12292 0.42325 0.32779 0.0
C831 C 0.1314 0.42237 0.34853 0.0
C832 C 0.12134 0.41299 0.30778 0.0
C833 C 0.1383 0.41129 0.34881 0.0
C834 C 0.12845 0.40211 0.30876 0.0
N835 N 0.13671 0.4015 0.32908 0.0
C836 C 0.11013 0.44082 0.39115 0.0
C837 C 0.13617 0.468 0.39073 0.0
C838 C 0.11077 0.44007 0.41635 0.0
N839 N 0.12268 0.4547 0.37894 0.0
C840 C 0.13733 0.46778 0.41584 0.0
C841 C 0.12455 0.45368 0.42904 0.0
H842 H 0.09966 0.43031 0.38129 0.0
H843 H 0.14607 0.47879 0.38063 0.0
C844 C 0.15435 0.44966 0.26911 0.0
N845 N 0.15277 0.45034 0.29344 0.0
C846 C 0.16787 0.44792 0.2593 0.0
C847 C 0.17783 0.44753 0.29977 0.0
C848 C 0.16421 0.44943 0.30877 0.0
C849 C 0.1799 0.44688 0.27467 0.0
H850 H 0.1453 0.45079 0.2573 0.0
H851 H 0.16284 0.45033 0.32803 0.0
O852 O 0.10376 0.46067 0.3303 0.0
O853 O 0.12181 0.45932 0.28339 0.0
O854 O 0.14366 0.47361 0.32951 0.0
O855 O 0.11632 0.4342 0.32703 0.0
H856 H 0.07451 0.43284 0.34377 0.0
H857 H 0.11248 0.4852 0.36326 0.0
H858 H 0.05852 0.43056 0.38155 0.0
H859 H 0.09586 0.48196 0.40078 0.0
H860 H 0.09399 0.42195 0.22161 0.0
H861 H 0.10761 0.47632 0.26342 0.0
H862 H 0.113 0.43098 0.25777 0.0
H863 H 0.08874 0.46653 0.22714 0.0
H864 H 0.10721 0.5194 0.30766 0.0
H865 H 0.15294 0.53092 0.26608 0.0
H866 H 0.05482 0.386 0.27979 0.0
H867 H 0.04823 0.43087 0.27374 0.0
H868 H 0.17147 0.48582 0.30147 0.0
H869 H 0.14467 0.49982 0.35361 0.0
H870 H 0.19436 0.51679 0.29881 0.0
H871 H 0.16806 0.53055 0.35002 0.0
H872 H 0.13279 0.43026 0.36415 0.0
H873 H 0.11489 0.41359 0.29155 0.0
H874 H 0.14497 0.41053 0.36469 0.0
H875 H 0.12743 0.39419 0.29334 0.0
H876 H 0.10075 0.42885 0.42574 0.0
H877 H 0.14808 0.47865 0.42483 0.0
H878 H 0.16911 0.44783 0.23986 0.0
H879 H 0.18663 0.44659 0.31237 0.0
Li880 Li 0.6712 0.12442 0.34391 0.0
Li881 Li 0.68872 0.13755 0.30965 0.0
Li882 Li 0.65693 0.12872 0.30873 0.0
Li883 Li 0.66744 0.10728 0.30784 0.0
C884 C 0.67554 0.15631 0.34775 0.0
N885 N 0.6743 0.17531 0.38645 0.0
C886 C 0.6886 0.16261 0.3653 0.0
C887 C 0.6619 0.15976 0.34987 0.0
C888 C 0.68772 0.17214 0.38474 0.0
C889 C 0.6615 0.16938 0.36956 0.0
C890 C 0.70539 0.12455 0.32879 0.0
C891 C 0.73064 0.12699 0.3089 0.0
N892 N 0.74091 0.13829 0.32623 0.0
C893 C 0.71621 0.13618 0.34643 0.0
C894 C 0.71266 0.1199 0.30989 0.0
C895 C 0.73413 0.14297 0.34482 0.0
C896 C 0.68003 0.11918 0.39165 0.0
N897 N 0.66962 0.1233 0.37865 0.0
C898 C 0.65747 0.12733 0.41493 0.0
C899 C 0.6581 0.12681 0.38978 0.0
C900 C 0.66859 0.12386 0.42885 0.0
C901 C 0.67976 0.11942 0.4169 0.0
H902 H 0.68869 0.11587 0.38244 0.0
H903 H 0.64957 0.12953 0.3791 0.0
C904 C 0.716 0.15487 0.27519 0.0
N905 N 0.71087 0.1555 0.29811 0.0
C906 C 0.73167 0.16835 0.26627 0.0
C907 C 0.73659 0.18284 0.30476 0.0
C908 C 0.72081 0.16913 0.31287 0.0
C909 C 0.74214 0.18265 0.28108 0.0
H910 H 0.70783 0.14402 0.26368 0.0
H911 H 0.71643 0.16948 0.33088 0.0
C912 C 0.63969 0.09578 0.34528 0.0
N913 N 0.62144 0.07269 0.38187 0.0
C914 C 0.64463 0.08398 0.35326 0.0
C915 C 0.62549 0.09587 0.3559 0.0
C916 C 0.63522 0.07239 0.37178 0.0
C917 C 0.61642 0.08408 0.37438 0.0
C918 C 0.66709 0.11667 0.26231 0.0
C919 C 0.65189 0.11309 0.25013 0.0
C920 C 0.67772 0.11072 0.25277 0.0
C921 C 0.64748 0.10344 0.22878 0.0
C922 C 0.67284 0.10107 0.23141 0.0
N923 N 0.65794 0.09766 0.21996 0.0
C924 C 0.64382 0.14852 0.28628 0.0
C925 C 0.62281 0.11985 0.29754 0.0
C926 C 0.63094 0.15123 0.27629 0.0
N927 N 0.63951 0.13303 0.29667 0.0
C928 C 0.60955 0.12198 0.28779 0.0
C929 C 0.61352 0.13783 0.27693 0.0
H930 H 0.65727 0.1587 0.28565 0.0
H931 H 0.61984 0.10753 0.30536 0.0
C932 C 0.66944 0.0765 0.29627 0.0
N933 N 0.65996 0.08463 0.29502 0.0
C934 C 0.66325 0.06019 0.28555 0.0
C935 C 0.6376 0.06088 0.27299 0.0
C936 C 0.64416 0.077 0.28414 0.0
C937 C 0.64722 0.0523 0.27343 0.0
H938 H 0.68179 0.08265 0.3055 0.0
H939 H 0.63674 0.08361 0.28388 0.0
O940 O 0.6761 0.14688 0.32857 0.0
O941 O 0.68784 0.11811 0.32969 0.0
O942 O 0.64901 0.10752 0.32761 0.0
O943 O 0.67143 0.12579 0.28353 0.0
H944 H 0.69906 0.15979 0.36432 0.0
H945 H 0.65163 0.15497 0.33659 0.0
H946 H 0.69764 0.17693 0.39855 0.0
H947 H 0.65099 0.17209 0.37145 0.0
H948 H 0.73642 0.12356 0.29429 0.0
H949 H 0.7109 0.14017 0.36099 0.0
H950 H 0.70455 0.11106 0.29596 0.0
H951 H 0.74265 0.15206 0.35827 0.0
H952 H 0.64838 0.13042 0.4234 0.0
H953 H 0.6885 0.1166 0.42692 0.0
H954 H 0.73551 0.16761 0.24794 0.0
H955 H 0.7441 0.19371 0.3167 0.0
H956 H 0.65574 0.08391 0.34545 0.0
H957 H 0.62164 0.10508 0.35014 0.0
H958 H 0.63893 0.06322 0.3782 0.0
H959 H 0.60544 0.08403 0.38283 0.0
H960 H 0.64352 0.11762 0.2571 0.0
H961 H 0.68946 0.11323 0.26198 0.0
H962 H 0.63571 0.10051 0.21925 0.0
H963 H 0.68087 0.09625 0.22399 0.0
H964 H 0.63456 0.16368 0.26823 0.0
H965 H 0.59637 0.11117 0.28824 0.0
H966 H 0.67103 0.05395 0.28637 0.0
H967 H 0.62502 0.05511 0.26429 0.0
Li968 Li 0.55403 0.68575 0.31078 0.0
Li969 Li 0.55017 0.66813 0.34692 0.0
Li970 Li 0.56208 0.66345 0.30933 0.0
Li971 Li 0.53144 0.65501 0.31255 0.0
C972 C 0.58429 0.70126 0.33358 0.0
N973 N 0.60786 0.7361 0.33999 0.0
C974 C 0.58446 0.70952 0.35514 0.0
C975 C 0.5962 0.71067 0.31538 0.0
C976 C 0.59647 0.72716 0.35801 0.0
C977 C 0.60798 0.72829 0.31893 0.0
C978 C 0.5171 0.67114 0.33116 0.0
C979 C 0.48702 0.65462 0.3429 0.0
N980 N 0.48298 0.66295 0.32571 0.0
C981 C 0.51267 0.67954 0.31362 0.0
C982 C 0.5042 0.65859 0.34596 0.0
C983 C 0.49534 0.67522 0.31115 0.0
C984 C 0.55916 0.7113 0.27577 0.0
N985 N 0.55873 0.7081 0.29984 0.0
C986 C 0.5623 0.73597 0.30905 0.0
C987 C 0.56016 0.72 0.31645 0.0
C988 C 0.56264 0.7396 0.28429 0.0
C989 C 0.56116 0.72705 0.26756 0.0
H990 H 0.55751 0.70148 0.2629 0.0
H991 H 0.5592 0.71691 0.33547 0.0
C992 C 0.56386 0.66599 0.39236 0.0
N993 N 0.55163 0.66855 0.38144 0.0
C994 C 0.56453 0.66534 0.41753 0.0
C995 C 0.54064 0.67092 0.41978 0.0
C996 C 0.54027 0.67123 0.39457 0.0
C997 C 0.55275 0.66774 0.43156 0.0
H998 H 0.57294 0.66421 0.38148 0.0
H999 H 0.53085 0.6735 0.38546 0.0
C1000 C 0.55333 0.66528 0.26426 0.0
N1001 N 0.56546 0.65942 0.22139 0.0
C1002 C 0.5432 0.64998 0.2513 0.0
C1003 C 0.56958 0.67763 0.25535 0.0
C1004 C 0.54957 0.64725 0.22967 0.0
C1005 C 0.5755 0.67442 0.23368 0.0
C1006 C 0.54456 0.63601 0.34929 0.0
C1007 C 0.55841 0.63287 0.35129 0.0
C1008 C 0.53155 0.62954 0.3669 0.0
C1009 C 0.55905 0.62335 0.37094 0.0
C1010 C 0.53268 0.62012 0.38631 0.0
N1011 N 0.54629 0.61724 0.38791 0.0
C1012 C 0.59457 0.66571 0.29633 0.0
C1013 C 0.56878 0.64045 0.28402 0.0
C1014 C 0.6047 0.6597 0.28515 0.0
N1015 N 0.57696 0.65608 0.29537 0.0
C1016 C 0.57834 0.63417 0.27218 0.0
C1017 C 0.59651 0.64385 0.27262 0.0
H1018 H 0.60073 0.67803 0.30567 0.0
H1019 H 0.55476 0.63292 0.28401 0.0
C1020 C 0.5028 0.64134 0.28065 0.0
N1021 N 0.50885 0.63828 0.30152 0.0
C1022 C 0.48716 0.62853 0.27071 0.0
C1023 C 0.48383 0.61005 0.30467 0.0
C1024 C 0.49964 0.62311 0.31373 0.0
C1025 C 0.47757 0.61246 0.28252 0.0
H1026 H 0.51045 0.65353 0.27127 0.0
H1027 H 0.50472 0.62098 0.33026 0.0
O1028 O 0.57248 0.68407 0.33028 0.0
O1029 O 0.5339 0.67478 0.33334 0.0
O1030 O 0.5475 0.66803 0.28577 0.0
O1031 O 0.5438 0.64547 0.33031 0.0
H1032 H 0.57532 0.70246 0.3694 0.0
H1033 H 0.5963 0.70446 0.29866 0.0
H1034 H 0.59669 0.73375 0.37454 0.0
H1035 H 0.61721 0.73576 0.30495 0.0
H1036 H 0.47688 0.64487 0.35413 0.0
H1037 H 0.52246 0.68916 0.30186 0.0
H1038 H 0.50738 0.65179 0.35941 0.0
H1039 H 0.4917 0.68157 0.29759 0.0
H1040 H 0.56307 0.74513 0.32256 0.0
H1041 H 0.56141 0.72933 0.24832 0.0
H1042 H 0.57422 0.66308 0.42593 0.0
H1043 H 0.5313 0.67279 0.42995 0.0
H1044 H 0.53069 0.64016 0.25804 0.0
H1045 H 0.57762 0.6895 0.2652 0.0
H1046 H 0.54192 0.63542 0.21953 0.0
H1047 H 0.58809 0.68382 0.22665 0.0
H1048 H 0.56864 0.63783 0.33794 0.0
H1049 H 0.5209 0.63211 0.36592 0.0
H1050 H 0.56972 0.62087 0.37275 0.0
H1051 H 0.52279 0.61519 0.40017 0.0
H1052 H 0.61872 0.66744 0.28589 0.0
H1053 H 0.57162 0.62178 0.26298 0.0
H1054 H 0.48302 0.63098 0.2535 0.0
H1055 H 0.47675 0.59808 0.31476 0.0
Li1056 Li 0.55993 0.89804 0.81625 0.0
Li1057 Li 0.54474 0.88092 0.85189 0.0
Li1058 Li 0.54651 0.86599 0.81412 0.0
Li1059 Li 0.52753 0.87865 0.8168 0.0
C1060 C 0.58288 0.88734 0.83412 0.0
N1061 N 0.61746 0.89664 0.83077 0.0
C1062 C 0.59417 0.89573 0.85339 0.0
C1063 C 0.58914 0.8834 0.81333 0.0
C1064 C 0.61162 0.90041 0.8513 0.0
C1065 C 0.60667 0.88828 0.81193 0.0
C1066 C 0.54329 0.90989 0.85525 0.0
C1067 C 0.53016 0.91582 0.8893 0.0
N1068 N 0.54566 0.93014 0.89449 0.0
C1069 C 0.55906 0.92472 0.86082 0.0
C1070 C 0.52869 0.90546 0.86948 0.0
C1071 C 0.55999 0.93478 0.88076 0.0
C1072 C 0.57136 0.92667 0.78683 0.0
N1073 N 0.5773 0.92 0.80397 0.0
C1074 C 0.60518 0.94577 0.80332 0.0
C1075 C 0.59389 0.92913 0.81226 0.0
C1076 C 0.59931 0.95307 0.78577 0.0
C1077 C 0.58217 0.94319 0.77739 0.0
H1078 H 0.55802 0.91923 0.78086 0.0
H1079 H 0.59827 0.92375 0.8262 0.0
C1080 C 0.53101 0.86791 0.89839 0.0
N1081 N 0.54483 0.88081 0.88653 0.0
C1082 C 0.53017 0.868 0.92357 0.0
C1083 C 0.55806 0.89434 0.92403 0.0
C1084 C 0.55829 0.89383 0.8988 0.0
C1085 C 0.54378 0.88139 0.93671 0.0
H1086 H 0.52057 0.85759 0.88832 0.0
H1087 H 0.56906 0.90401 0.88899 0.0
C1088 C 0.54853 0.88139 0.76755 0.0
N1089 N 0.55707 0.88073 0.71972 0.0
C1090 C 0.53552 0.87407 0.75 0.0
C1091 C 0.5659 0.88868 0.76067 0.0
C1092 C 0.5401 0.87376 0.72595 0.0
C1093 C 0.56995 0.88815 0.73643 0.0
C1094 C 0.50905 0.84759 0.83682 0.0
C1095 C 0.50243 0.83173 0.82476 0.0
C1096 C 0.49776 0.8515 0.84925 0.0
C1097 C 0.48456 0.82013 0.82504 0.0
C1098 C 0.47997 0.83958 0.84907 0.0
N1099 N 0.47379 0.82428 0.83705 0.0
C1100 C 0.55673 0.84018 0.81165 0.0
C1101 C 0.53776 0.83907 0.78081 0.0
C1102 C 0.55637 0.82536 0.80234 0.0
N1103 N 0.54751 0.8467 0.80077 0.0
C1104 C 0.53702 0.82431 0.77092 0.0
C1105 C 0.54627 0.81713 0.78181 0.0
H1106 H 0.56412 0.84629 0.82779 0.0
H1107 H 0.5301 0.84415 0.77296 0.0
C1108 C 0.50266 0.88912 0.80922 0.0
N1109 N 0.50649 0.8764 0.80463 0.0
C1110 C 0.4877 0.88813 0.79954 0.0
C1111 C 0.48082 0.86089 0.78079 0.0
C1112 C 0.49598 0.86248 0.79067 0.0
C1113 C 0.47658 0.87389 0.78504 0.0
H1114 H 0.51135 0.90015 0.82015 0.0
H1115 H 0.49949 0.8527 0.78696 0.0
O1116 O 0.56574 0.88265 0.83592 0.0
O1117 O 0.54219 0.89974 0.83603 0.0
O1118 O 0.54424 0.88185 0.79119 0.0
O1119 O 0.52649 0.85921 0.83648 0.0
H1120 H 0.58955 0.89869 0.86974 0.0
H1121 H 0.58054 0.8765 0.79851 0.0
H1122 H 0.62051 0.90702 0.86601 0.0
H1123 H 0.61168 0.88536 0.7959 0.0
H1124 H 0.51899 0.91248 0.90056 0.0
H1125 H 0.57049 0.92834 0.85004 0.0
H1126 H 0.51637 0.89409 0.86535 0.0
H1127 H 0.57214 0.94624 0.88537 0.0
H1128 H 0.61831 0.95289 0.81022 0.0
H1129 H 0.57694 0.94837 0.76426 0.0
H1130 H 0.51903 0.85764 0.93268 0.0
H1131 H 0.56875 0.90497 0.93348 0.0
H1132 H 0.52203 0.86857 0.7549 0.0
H1133 H 0.57618 0.89491 0.77379 0.0
H1134 H 0.53015 0.868 0.71222 0.0
H1135 H 0.58335 0.89371 0.73089 0.0
H1136 H 0.51097 0.82838 0.81529 0.0
H1137 H 0.50266 0.86369 0.8587 0.0
H1138 H 0.47925 0.80784 0.81569 0.0
H1139 H 0.47108 0.84251 0.85846 0.0
H1140 H 0.5635 0.82015 0.81154 0.0
H1141 H 0.52918 0.81852 0.75497 0.0
H1142 H 0.48484 0.89838 0.80338 0.0
H1143 H 0.47273 0.84982 0.76945 0.0
Li1144 Li 0.66512 0.54555 0.84033 0.0
Li1145 Li 0.66209 0.56033 0.80504 0.0
Li1146 Li 0.65046 0.5281 0.80563 0.0
Li1147 Li 0.68178 0.5481 0.80381 0.0
C1148 C 0.63448 0.54272 0.84484 0.0
N1149 N 0.61711 0.54398 0.88542 0.0
C1150 C 0.63506 0.55819 0.85126 0.0
C1151 C 0.62493 0.52785 0.85887 0.0
C1152 C 0.62621 0.55857 0.87188 0.0
C1153 C 0.61629 0.52877 0.87938 0.0
C1154 C 0.69659 0.58308 0.81672 0.0
C1155 C 0.71222 0.60289 0.78428 0.0
N1156 N 0.7232 0.61464 0.80067 0.0
C1157 C 0.70802 0.59534 0.83324 0.0
C1158 C 0.69868 0.58686 0.79204 0.0
C1159 C 0.7214 0.61123 0.82477 0.0
C1160 C 0.66642 0.53287 0.8867 0.0
N1161 N 0.66624 0.54616 0.87485 0.0
C1162 C 0.66854 0.56065 0.91225 0.0
C1163 C 0.6674 0.55998 0.88704 0.0
C1164 C 0.66878 0.5471 0.92497 0.0
C1165 C 0.66766 0.53306 0.91184 0.0
H1166 H 0.66581 0.52219 0.87665 0.0
H1167 H 0.6676 0.57055 0.87714 0.0
C1168 C 0.64344 0.56977 0.77583 0.0
N1169 N 0.65659 0.57679 0.79212 0.0
C1170 C 0.63774 0.58004 0.76464 0.0
C1171 C 0.65906 0.60467 0.78747 0.0
C1172 C 0.66438 0.59386 0.79828 0.0
C1173 C 0.64561 0.59778 0.77028 0.0
H1174 H 0.63734 0.55609 0.77159 0.0
H1175 H 0.67467 0.59907 0.81156 0.0
C1176 C 0.66406 0.51036 0.82496 0.0
N1177 N 0.65389 0.47548 0.82437 0.0
C1178 C 0.6734 0.50449 0.81146 0.0
C1179 C 0.6496 0.49848 0.83824 0.0
C1180 C 0.66804 0.48681 0.81139 0.0
C1181 C 0.64465 0.4809 0.83768 0.0
C1182 C 0.66637 0.54186 0.75701 0.0
C1183 C 0.66914 0.52805 0.75201 0.0
C1184 C 0.66659 0.55244 0.7382 0.0
C1185 C 0.67193 0.52493 0.72816 0.0
C1186 C 0.66943 0.54891 0.71459 0.0
N1187 N 0.67201 0.53533 0.7101 0.0
C1188 C 0.61538 0.50627 0.79545 0.0
C1189 C 0.63254 0.49435 0.78229 0.0
C1190 C 0.6005 0.49224 0.78573 0.0
N1191 N 0.63103 0.50714 0.79352 0.0
C1192 C 0.61795 0.48 0.77245 0.0
C1193 C 0.60169 0.47894 0.77385 0.0
H1194 H 0.61449 0.51666 0.80419 0.0
H1195 H 0.64506 0.49531 0.78057 0.0
C1196 C 0.71227 0.54687 0.80817 0.0
N1197 N 0.70344 0.55125 0.79231 0.0
C1198 C 0.72742 0.5471 0.80106 0.0
C1199 C 0.72469 0.55723 0.76171 0.0
C1200 C 0.70957 0.55682 0.76962 0.0
C1201 C 0.73364 0.55197 0.77737 0.0
H1202 H 0.70723 0.54272 0.82622 0.0
H1203 H 0.70258 0.56062 0.75744 0.0
O1204 O 0.64334 0.54218 0.82501 0.0
O1205 O 0.68343 0.56751 0.82486 0.0
O1206 O 0.66912 0.52764 0.82532 0.0
O1207 O 0.66394 0.54536 0.78026 0.0
H1208 H 0.6424 0.56982 0.84057 0.0
H1209 H 0.62426 0.51575 0.85403 0.0
H1210 H 0.62662 0.57047 0.87716 0.0
H1211 H 0.60893 0.51739 0.89051 0.0
H1212 H 0.71398 0.60599 0.76523 0.0
H1213 H 0.70655 0.5926 0.85242 0.0
H1214 H 0.68991 0.57761 0.77899 0.0
H1215 H 0.73033 0.62085 0.83736 0.0
H1216 H 0.66961 0.57182 0.92164 0.0
H1217 H 0.66767 0.52228 0.92091 0.0
H1218 H 0.62707 0.57405 0.75196 0.0
H1219 H 0.6655 0.61828 0.79234 0.0
H1220 H 0.68455 0.51343 0.80094 0.0
H1221 H 0.6422 0.50277 0.84874 0.0
H1222 H 0.67511 0.48209 0.80094 0.0
H1223 H 0.63343 0.47156 0.84779 0.0
H1224 H 0.66954 0.52009 0.76643 0.0
H1225 H 0.66472 0.56335 0.74181 0.0
H1226 H 0.67415 0.51431 0.72404 0.0
H1227 H 0.66965 0.557 0.69985 0.0
H1228 H 0.58818 0.49186 0.78741 0.0
H1229 H 0.61948 0.47012 0.7632 0.0
H1230 H 0.73409 0.54331 0.81392 0.0
H1231 H 0.72899 0.56106 0.74328 0.0
Li1232 Li 0.10562 0.66551 0.80275 0.0
Li1233 Li 0.12136 0.66743 0.83984 0.0
Li1234 Li 0.1367 0.68457 0.80233 0.0
Li1235 Li 0.12508 0.65293 0.80396 0.0
C1236 C 0.10793 0.69232 0.82394 0.0
N1237 N 0.08381 0.70321 0.82429 0.0
C1238 C 0.09622 0.68776 0.84308 0.0
C1239 C 0.10749 0.70251 0.80507 0.0
C1240 C 0.0841 0.69337 0.84291 0.0
C1241 C 0.09516 0.70786 0.80555 0.0
C1242 C 0.09696 0.63158 0.83711 0.0
C1243 C 0.10071 0.61044 0.85956 0.0
N1244 N 0.08358 0.60207 0.86545 0.0
C1245 C 0.07935 0.62266 0.84317 0.0
C1246 C 0.10769 0.62533 0.84519 0.0
C1247 C 0.07285 0.60782 0.85759 0.0
C1248 C 0.08257 0.66259 0.76571 0.0
N1249 N 0.08379 0.66096 0.78992 0.0
C1250 C 0.05303 0.64797 0.79421 0.0
C1251 C 0.0695 0.6542 0.80431 0.0
C1252 C 0.0513 0.64868 0.76905 0.0
C1253 C 0.06642 0.65665 0.75489 0.0
H1254 H 0.09402 0.66779 0.7546 0.0
H1255 H 0.07083 0.65296 0.8235 0.0
C1256 C 0.13659 0.67846 0.88565 0.0
N1257 N 0.1213 0.66792 0.87432 0.0
C1258 C 0.13756 0.67882 0.91083 0.0
C1259 C 0.10687 0.65798 0.91231 0.0
C1260 C 0.10651 0.65799 0.88708 0.0
C1261 C 0.1226 0.66837 0.92453 0.0
H1262 H 0.1481 0.68644 0.87506 0.0
H1263 H 0.09443 0.65002 0.8777 0.0
C1264 C 0.12966 0.67299 0.75615 0.0
N1265 N 0.14518 0.68611 0.71199 0.0
C1266 C 0.13768 0.66527 0.74359 0.0
C1267 C 0.12943 0.68731 0.74616 0.0
C1268 C 0.14547 0.67212 0.7213 0.0
C1269 C 0.13738 0.69378 0.72384 0.0
C1270 C 0.15658 0.6687 0.83189 0.0
C1271 C 0.17221 0.67628 0.81908 0.0
C1272 C 0.1548 0.65889 0.85255 0.0
C1273 C 0.18564 0.67362 0.82682 0.0
C1274 C 0.16853 0.65653 0.85972 0.0
N1275 N 0.18354 0.66386 0.8468 0.0
C1276 C 0.15758 0.7213 0.799 0.0
C1277 C 0.16687 0.70571 0.77444 0.0
C1278 C 0.17131 0.73709 0.79074 0.0
N1279 N 0.15561 0.70603 0.79074 0.0
C1280 C 0.18057 0.72113 0.76544 0.0
C1281 C 0.18307 0.73717 0.77368 0.0
H1282 H 0.14855 0.72122 0.81213 0.0
H1283 H 0.16517 0.69345 0.76825 0.0
C1284 C 0.11191 0.62066 0.78297 0.0
N1285 N 0.12696 0.63382 0.792 0.0
C1286 C 0.11154 0.60624 0.77244 0.0
C1287 C 0.14218 0.61908 0.78078 0.0
C1288 C 0.14196 0.6333 0.79116 0.0
C1289 C 0.12684 0.60537 0.77105 0.0
H1290 H 0.1002 0.62149 0.78376 0.0
H1291 H 0.15383 0.64398 0.79805 0.0
O1292 O 0.1196 0.6866 0.8235 0.0
O1293 O 0.10352 0.64618 0.82306 0.0
O1294 O 0.12205 0.66651 0.77806 0.0
O1295 O 0.14335 0.67134 0.82466 0.0
H1296 H 0.09638 0.67983 0.85778 0.0
H1297 H 0.1165 0.70617 0.79016 0.0
H1298 H 0.07488 0.68987 0.85753 0.0
H1299 H 0.09461 0.71569 0.79101 0.0
H1300 H 0.1089 0.6055 0.86595 0.0
H1301 H 0.07079 0.62718 0.8369 0.0
H1302 H 0.1212 0.63177 0.8402 0.0
H1303 H 0.05927 0.60085 0.86253 0.0
H1304 H 0.04174 0.64182 0.80582 0.0
H1305 H 0.06575 0.65774 0.73549 0.0
H1306 H 0.14989 0.68727 0.91947 0.0
H1307 H 0.09503 0.64967 0.92212 0.0
H1308 H 0.13796 0.65417 0.75098 0.0
H1309 H 0.12337 0.6935 0.75567 0.0
H1310 H 0.15177 0.66631 0.71143 0.0
H1311 H 0.1374 0.70492 0.71598 0.0
H1312 H 0.17393 0.68402 0.80321 0.0
H1313 H 0.14302 0.65325 0.86311 0.0
H1314 H 0.19775 0.67931 0.81695 0.0
H1315 H 0.16729 0.64893 0.87563 0.0
H1316 H 0.17281 0.74908 0.79796 0.0
H1317 H 0.18901 0.72041 0.75199 0.0
H1318 H 0.09937 0.59588 0.76546 0.0
H1319 H 0.15431 0.61903 0.77983 0.0
Li1320 Li 0.44243 0.10327 0.81148 0.0
Li1321 Li 0.45412 0.12019 0.84796 0.0
Li1322 Li 0.45348 0.13481 0.80885 0.0
Li1323 Li 0.47352 0.12362 0.81535 0.0
C1324 C 0.41611 0.10765 0.82993 0.0
N1325 N 0.38034 0.08834 0.83256 0.0
C1326 C 0.40805 0.09169 0.84192 0.0
C1327 C 0.40597 0.11377 0.81922 0.0
C1328 C 0.38995 0.08212 0.84306 0.0
C1329 C 0.38791 0.10383 0.82077 0.0
C1330 C 0.45836 0.0931 0.85444 0.0
C1331 C 0.47052 0.09063 0.8922 0.0
N1332 N 0.45664 0.07446 0.89535 0.0
C1333 C 0.4442 0.07644 0.8581 0.0
C1334 C 0.47163 0.10024 0.87164 0.0
C1335 C 0.44359 0.06723 0.87886 0.0
C1336 C 0.43404 0.07076 0.79567 0.0
N1337 N 0.42685 0.08105 0.79768 0.0
C1338 C 0.39997 0.05847 0.78172 0.0
C1339 C 0.41033 0.07548 0.79013 0.0
C1340 C 0.40682 0.04725 0.78081 0.0
C1341 C 0.42423 0.05377 0.78739 0.0
H1342 H 0.44739 0.0757 0.80101 0.0
H1343 H 0.40507 0.08409 0.79088 0.0
C1344 C 0.46212 0.13532 0.89491 0.0
N1345 N 0.45154 0.12056 0.88246 0.0
C1346 C 0.46111 0.13566 0.9201 0.0
C1347 C 0.43813 0.10573 0.91919 0.0
C1348 C 0.4395 0.10602 0.89408 0.0
C1349 C 0.44908 0.12066 0.93263 0.0
H1350 H 0.4714 0.14682 0.88529 0.0
H1351 H 0.43119 0.09443 0.884 0.0
C1352 C 0.45031 0.11592 0.76527 0.0
N1353 N 0.43375 0.1068 0.72107 0.0
C1354 C 0.4575 0.11134 0.74619 0.0
C1355 C 0.43468 0.11577 0.76194 0.0
C1356 C 0.44894 0.10681 0.72395 0.0
C1357 C 0.42651 0.11114 0.73945 0.0
C1358 C 0.48985 0.15417 0.83341 0.0
C1359 C 0.49706 0.16648 0.81495 0.0
C1360 C 0.50061 0.15347 0.85123 0.0
C1361 C 0.51497 0.17784 0.81454 0.0
C1362 C 0.51846 0.16505 0.85018 0.0
N1363 N 0.52521 0.17688 0.83199 0.0
C1364 C 0.44408 0.16103 0.80666 0.0
C1365 C 0.45897 0.15914 0.77237 0.0
C1366 C 0.44388 0.17542 0.7968 0.0
N1367 N 0.45162 0.15329 0.79441 0.0
C1368 C 0.45903 0.17342 0.76184 0.0
C1369 C 0.45162 0.18194 0.77418 0.0
H1370 H 0.43854 0.15625 0.82432 0.0
H1371 H 0.46513 0.15294 0.76317 0.0
C1372 C 0.5045 0.12157 0.81904 0.0
N1373 N 0.4957 0.12738 0.8055 0.0
C1374 C 0.52019 0.12348 0.81079 0.0
C1375 C 0.51748 0.13731 0.77479 0.0
C1376 C 0.50191 0.13525 0.78383 0.0
C1377 C 0.52676 0.13126 0.78825 0.0
H1378 H 0.4992 0.11515 0.83601 0.0
H1379 H 0.49461 0.13972 0.77341 0.0
O1380 O 0.43381 0.1173 0.82872 0.0
O1381 O 0.45918 0.10237 0.83424 0.0
O1382 O 0.45843 0.12024 0.78722 0.0
O1383 O 0.47242 0.14255 0.83364 0.0
H1384 H 0.41565 0.08649 0.8496 0.0
H1385 H 0.41199 0.12608 0.80981 0.0
H1386 H 0.38355 0.06968 0.85213 0.0
H1387 H 0.3799 0.10842 0.81258 0.0
H1388 H 0.48065 0.09607 0.90571 0.0
H1389 H 0.43365 0.07074 0.84528 0.0
H1390 H 0.48251 0.11321 0.86942 0.0
H1391 H 0.43268 0.05436 0.88193 0.0
H1392 H 0.38666 0.05403 0.7766 0.0
H1393 H 0.43023 0.04578 0.78627 0.0
H1394 H 0.46961 0.14758 0.92962 0.0
H1395 H 0.42884 0.09378 0.92797 0.0
H1396 H 0.46955 0.11131 0.74855 0.0
H1397 H 0.42888 0.11914 0.77659 0.0
H1398 H 0.45436 0.10328 0.70898 0.0
H1399 H 0.41439 0.11097 0.73662 0.0
H1400 H 0.48895 0.16714 0.80095 0.0
H1401 H 0.49527 0.144 0.8656 0.0
H1402 H 0.52074 0.18737 0.80028 0.0
H1403 H 0.52695 0.1646 0.86377 0.0
H1404 H 0.43822 0.18169 0.80712 0.0
H1405 H 0.46495 0.17782 0.74425 0.0
H1406 H 0.52683 0.11844 0.82159 0.0
H1407 H 0.52218 0.14352 0.75742 0.0
Li1408 Li 0.33475 0.45444 0.84882 0.0
Li1409 Li 0.33892 0.44062 0.8133 0.0
Li1410 Li 0.34956 0.47288 0.81455 0.0
Li1411 Li 0.31821 0.45168 0.81084 0.0
C1412 C 0.36655 0.45962 0.85355 0.0
N1413 N 0.38508 0.46052 0.89407 0.0
C1414 C 0.36762 0.44502 0.86012 0.0
C1415 C 0.37505 0.47474 0.8674 0.0
C1416 C 0.37703 0.44572 0.88072 0.0
C1417 C 0.38431 0.47492 0.88788 0.0
C1418 C 0.30479 0.416 0.82808 0.0
C1419 C 0.28477 0.39339 0.80142 0.0
N1420 N 0.27982 0.38181 0.81992 0.0
C1421 C 0.2994 0.40391 0.84688 0.0
C1422 C 0.29734 0.41073 0.80521 0.0
C1423 C 0.2868 0.38667 0.84237 0.0
C1424 C 0.33305 0.46561 0.89653 0.0
N1425 N 0.33355 0.45302 0.88327 0.0
C1426 C 0.33288 0.43775 0.91918 0.0
C1427 C 0.33336 0.43919 0.89404 0.0
C1428 C 0.33245 0.4506 0.93344 0.0
C1429 C 0.33249 0.46466 0.92174 0.0
H1430 H 0.333 0.47637 0.88755 0.0
H1431 H 0.33373 0.42933 0.88305 0.0
C1432 C 0.35746 0.42993 0.7845 0.0
N1433 N 0.34493 0.42414 0.80175 0.0
C1434 C 0.36341 0.41914 0.77571 0.0
C1435 C 0.34349 0.39657 0.80264 0.0
C1436 C 0.33795 0.40783 0.81097 0.0
C1437 C 0.35646 0.4022 0.78483 0.0
H1438 H 0.363 0.44308 0.77783 0.0
H1439 H 0.3283 0.40363 0.82506 0.0
C1440 C 0.33299 0.48839 0.83412 0.0
N1441 N 0.33955 0.5222 0.83499 0.0
C1442 C 0.3225 0.49301 0.82097 0.0
C1443 C 0.34671 0.50092 0.84789 0.0
C1444 C 0.32605 0.51018 0.82161 0.0
C1445 C 0.34985 0.51796 0.84802 0.0
C1446 C 0.33519 0.45384 0.76405 0.0
C1447 C 0.34068 0.46836 0.74918 0.0
C1448 C 0.32791 0.43733 0.75367 0.0
C1449 C 0.3385 0.4661 0.72421 0.0
C1450 C 0.32597 0.43562 0.72862 0.0
N1451 N 0.33124 0.44991 0.71453 0.0
C1452 C 0.38442 0.49783 0.80586 0.0
C1453 C 0.36459 0.50649 0.7925 0.0
C1454 C 0.39838 0.51315 0.79696 0.0
N1455 N 0.36792 0.49479 0.80349 0.0
C1456 C 0.37818 0.5221 0.78366 0.0
C1457 C 0.39533 0.5255 0.78566 0.0
H1458 H 0.38671 0.48822 0.81437 0.0
H1459 H 0.35136 0.50359 0.79013 0.0
C1460 C 0.28217 0.43971 0.81133 0.0
N1461 N 0.29675 0.44795 0.79759 0.0
C1462 C 0.26633 0.43718 0.80256 0.0
C1463 C 0.28079 0.45158 0.76561 0.0
C1464 C 0.29633 0.45393 0.77516 0.0
C1465 C 0.26548 0.44321 0.77939 0.0
H1466 H 0.2829 0.43524 0.82924 0.0
H1467 H 0.30808 0.46073 0.76473 0.0
O1468 O 0.35713 0.45907 0.83374 0.0
O1469 O 0.31717 0.4329 0.83223 0.0
O1470 O 0.32973 0.47165 0.83366 0.0
O1471 O 0.33735 0.45586 0.78855 0.0
H1472 H 0.36112 0.43322 0.84958 0.0
H1473 H 0.37444 0.48618 0.86244 0.0
H1474 H 0.37788 0.43449 0.88612 0.0
H1475 H 0.39086 0.48649 0.89886 0.0
H1476 H 0.27891 0.38914 0.7838 0.0
H1477 H 0.30494 0.40779 0.86474 0.0
H1478 H 0.3011 0.41996 0.7906 0.0
H1479 H 0.28257 0.37716 0.85672 0.0
H1480 H 0.33307 0.42678 0.92734 0.0
H1481 H 0.33187 0.47472 0.93194 0.0
H1482 H 0.37367 0.42421 0.76236 0.0
H1483 H 0.3377 0.3836 0.81012 0.0
H1484 H 0.31177 0.48346 0.81032 0.0
H1485 H 0.35494 0.49756 0.85818 0.0
H1486 H 0.31808 0.51396 0.81145 0.0
H1487 H 0.3605 0.52781 0.85847 0.0
H1488 H 0.34642 0.48123 0.75684 0.0
H1489 H 0.32396 0.42596 0.76475 0.0
H1490 H 0.34258 0.47723 0.71252 0.0
H1491 H 0.32034 0.42292 0.72036 0.0
H1492 H 0.41144 0.51534 0.79892 0.0
H1493 H 0.37529 0.5312 0.77474 0.0
H1494 H 0.25498 0.4309 0.81403 0.0
H1495 H 0.28079 0.45626 0.74756 0.0
Li1496 Li 0.89815 0.33671 0.80189 0.0
Li1497 Li 0.88217 0.33406 0.83939 0.0
Li1498 Li 0.86627 0.31676 0.80201 0.0
Li1499 Li 0.87747 0.34819 0.80495 0.0
C1500 C 0.89129 0.30486 0.82272 0.0
N1501 N 0.90521 0.2832 0.82425 0.0
C1502 C 0.90134 0.30538 0.84245 0.0
C1503 C 0.88803 0.29307 0.80401 0.0
C1504 C 0.90835 0.2944 0.84282 0.0
C1505 C 0.89526 0.2823 0.80505 0.0
C1506 C 0.91017 0.36682 0.83972 0.0
C1507 C 0.9152 0.38632 0.87295 0.0
N1508 N 0.93163 0.38913 0.87511 0.0
C1509 C 0.92716 0.37003 0.84212 0.0
C1510 C 0.90418 0.37515 0.8551 0.0
C1511 C 0.93779 0.38132 0.86017 0.0
C1512 C 0.92416 0.3508 0.76687 0.0
N1513 N 0.91986 0.34174 0.78794 0.0
C1514 C 0.94733 0.34295 0.78891 0.0
C1515 C 0.93106 0.33775 0.79905 0.0
C1516 C 0.9521 0.35234 0.76715 0.0
C1517 C 0.94019 0.35612 0.75602 0.0
H1518 H 0.91527 0.35428 0.75874 0.0
H1519 H 0.92764 0.33104 0.81613 0.0
C1520 C 0.86886 0.32923 0.88714 0.0
N1521 N 0.88346 0.33394 0.87398 0.0
C1522 C 0.8696 0.32989 0.91238 0.0
C1523 C 0.90033 0.34012 0.91009 0.0
C1524 C 0.89895 0.339 0.88495 0.0
C1525 C 0.88554 0.33562 0.92412 0.0
H1526 H 0.85667 0.32512 0.87804 0.0
H1527 H 0.91031 0.34236 0.87418 0.0
C1528 C 0.87884 0.32949 0.75502 0.0
N1529 N 0.87534 0.318 0.70788 0.0
C1530 C 0.87123 0.33502 0.73769 0.0
C1531 C 0.8849 0.31833 0.74828 0.0
C1532 C 0.8695 0.329 0.71398 0.0
C1533 C 0.88296 0.31261 0.72439 0.0
C1534 C 0.84713 0.33412 0.82784 0.0
C1535 C 0.83186 0.32576 0.81429 0.0
C1536 C 0.84975 0.34744 0.84369 0.0
C1537 C 0.81958 0.33109 0.81649 0.0
C1538 C 0.83717 0.35241 0.84537 0.0
N1539 N 0.82248 0.34421 0.83183 0.0
C1540 C 0.8431 0.28005 0.79971 0.0
C1541 C 0.83906 0.29668 0.76968 0.0
C1542 C 0.82952 0.2647 0.79007 0.0
N1543 N 0.84767 0.29561 0.78929 0.0
C1544 C 0.82556 0.2817 0.75934 0.0
C1545 C 0.82065 0.26542 0.76949 0.0
H1546 H 0.85 0.27957 0.8155 0.0
H1547 H 0.84251 0.30921 0.76223 0.0
C1548 C 0.88591 0.38308 0.7988 0.0
N1549 N 0.87369 0.36636 0.79401 0.0
C1550 C 0.88422 0.39674 0.78947 0.0
C1551 C 0.85735 0.37576 0.77053 0.0
C1552 C 0.85958 0.36249 0.78021 0.0
C1553 C 0.86986 0.39318 0.77493 0.0
H1554 H 0.89723 0.38583 0.8093 0.0
H1555 H 0.85023 0.3491 0.77625 0.0
O1556 O 0.88425 0.31546 0.82216 0.0
O1557 O 0.89952 0.35568 0.8223 0.0
O1558 O 0.88053 0.33519 0.77835 0.0
O1559 O 0.8594 0.32923 0.82571 0.0
H1560 H 0.90381 0.31424 0.85723 0.0
H1561 H 0.87986 0.29209 0.78896 0.0
H1562 H 0.91627 0.29477 0.85788 0.0
H1563 H 0.89289 0.27317 0.79064 0.0
H1564 H 0.91069 0.39276 0.88507 0.0
H1565 H 0.93206 0.36381 0.83029 0.0
H1566 H 0.89115 0.37298 0.85332 0.0
H1567 H 0.95093 0.38384 0.86233 0.0
H1568 H 0.95615 0.3398 0.79811 0.0
H1569 H 0.94347 0.36365 0.73952 0.0
H1570 H 0.85791 0.32636 0.92258 0.0
H1571 H 0.91282 0.34437 0.91847 0.0
H1572 H 0.86661 0.34379 0.74252 0.0
H1573 H 0.89124 0.31431 0.76127 0.0
H1574 H 0.86353 0.33308 0.70043 0.0
H1575 H 0.88758 0.30395 0.71895 0.0
H1576 H 0.82954 0.31533 0.80209 0.0
H1577 H 0.86136 0.35387 0.85457 0.0
H1578 H 0.80775 0.32481 0.80599 0.0
H1579 H 0.83908 0.36276 0.85748 0.0
H1580 H 0.82612 0.2524 0.79844 0.0
H1581 H 0.81882 0.28288 0.74382 0.0
H1582 H 0.89437 0.40995 0.79296 0.0
H1583 H 0.84602 0.37239 0.75957 0.0
Li1584 Li 0.13785 0.45151 0.69328 0.0
Li1585 Li 0.12733 0.4719 0.69272 0.0
Li1586 Li 0.10611 0.44044 0.69494 0.0
Li1587 Li 0.12221 0.45387 0.65796 0.0
C1588 C 0.13301 0.46357 0.73932 0.0
N1589 N 0.15037 0.48063 0.78087 0.0
C1590 C 0.1509 0.47498 0.73882 0.0
C1591 C 0.12395 0.46076 0.76101 0.0
C1592 C 0.15945 0.4835 0.75998 0.0
C1593 C 0.13296 0.46953 0.78181 0.0
C1594 C 0.15686 0.4887 0.66789 0.0
C1595 C 0.16419 0.51705 0.65299 0.0
N1596 N 0.18052 0.52359 0.66189 0.0
C1597 C 0.17376 0.49569 0.67678 0.0
C1598 C 0.15206 0.49945 0.6558 0.0
C1599 C 0.18552 0.51336 0.6736 0.0
C1600 C 0.16971 0.45255 0.68808 0.0
N1601 N 0.15624 0.4478 0.70357 0.0
C1602 C 0.1711 0.44144 0.73436 0.0
C1603 C 0.15648 0.44191 0.72616 0.0
C1604 C 0.18558 0.44713 0.71916 0.0
C1605 C 0.18461 0.45238 0.69556 0.0
H1606 H 0.16911 0.45706 0.67015 0.0
H1607 H 0.14559 0.4382 0.73816 0.0
C1608 C 0.11643 0.49536 0.70549 0.0
N1609 N 0.13075 0.49361 0.70483 0.0
C1610 C 0.11733 0.51026 0.71526 0.0
C1611 C 0.14774 0.52138 0.72352 0.0
C1612 C 0.14625 0.50626 0.71361 0.0
C1613 C 0.13313 0.5235 0.72458 0.0
H1614 H 0.10419 0.48501 0.69881 0.0
H1615 H 0.15746 0.50464 0.71316 0.0
C1616 C 0.11637 0.41656 0.68203 0.0
N1617 N 0.11176 0.38518 0.69833 0.0
C1618 C 0.11566 0.40431 0.66561 0.0
C1619 C 0.11471 0.41286 0.70675 0.0
C1620 C 0.11332 0.38851 0.67421 0.0
C1621 C 0.11239 0.39692 0.71462 0.0
C1622 C 0.09451 0.45772 0.65709 0.0
C1623 C 0.07982 0.44193 0.65116 0.0
C1624 C 0.09815 0.47271 0.64432 0.0
C1625 C 0.06916 0.44135 0.63224 0.0
C1626 C 0.08718 0.47161 0.62551 0.0
N1627 N 0.07304 0.45608 0.61989 0.0
C1628 C 0.07903 0.43076 0.72703 0.0
C1629 C 0.07417 0.40781 0.70058 0.0
C1630 C 0.06298 0.42047 0.73804 0.0
N1631 N 0.08433 0.42431 0.70878 0.0
C1632 C 0.05788 0.39707 0.71097 0.0
C1633 C 0.05212 0.40341 0.72998 0.0
H1634 H 0.0872 0.44408 0.7327 0.0
H1635 H 0.07857 0.40309 0.68574 0.0
C1636 C 0.13244 0.46534 0.60956 0.0
N1637 N 0.12038 0.45227 0.62346 0.0
C1638 C 0.13107 0.46442 0.58441 0.0
C1639 C 0.10504 0.43646 0.58822 0.0
C1640 C 0.10697 0.43788 0.61332 0.0
C1641 C 0.11719 0.44987 0.5734 0.0
H1642 H 0.14318 0.47647 0.61792 0.0
H1643 H 0.09775 0.4275 0.62477 0.0
O1644 O 0.12437 0.45507 0.71879 0.0
O1645 O 0.14511 0.47142 0.67092 0.0
O1646 O 0.11868 0.43208 0.67379 0.0
O1647 O 0.10526 0.45848 0.67528 0.0
H1648 H 0.15812 0.47729 0.72223 0.0
H1649 H 0.11012 0.45185 0.76183 0.0
H1650 H 0.1733 0.4924 0.75979 0.0
H1651 H 0.1261 0.46749 0.79871 0.0
H1652 H 0.1606 0.52552 0.64378 0.0
H1653 H 0.17776 0.48763 0.6862 0.0
H1654 H 0.13906 0.49427 0.64881 0.0
H1655 H 0.19861 0.51895 0.68048 0.0
H1656 H 0.17134 0.4374 0.75274 0.0
H1657 H 0.19538 0.45662 0.68314 0.0
H1658 H 0.10566 0.51118 0.71605 0.0
H1659 H 0.16023 0.53132 0.73027 0.0
H1660 H 0.11691 0.40699 0.64642 0.0
H1661 H 0.11513 0.42213 0.71973 0.0
H1662 H 0.11276 0.3789 0.6617 0.0
H1663 H 0.11109 0.39388 0.73369 0.0
H1664 H 0.07682 0.43019 0.66082 0.0
H1665 H 0.1093 0.48509 0.6489 0.0
H1666 H 0.05783 0.42919 0.62733 0.0
H1667 H 0.08988 0.4831 0.6154 0.0
H1668 H 0.0589 0.426 0.75228 0.0
H1669 H 0.04988 0.38398 0.70422 0.0
H1670 H 0.14067 0.47512 0.57373 0.0
H1671 H 0.09429 0.42489 0.5805 0.0
Li1672 Li 0.68218 0.13448 0.69715 0.0
Li1673 Li 0.65149 0.12271 0.69258 0.0
Li1674 Li 0.66238 0.10285 0.69567 0.0
Li1675 Li 0.66647 0.12023 0.65744 0.0
C1676 C 0.67096 0.12143 0.74245 0.0
N1677 N 0.68653 0.12587 0.78709 0.0
C1678 C 0.66793 0.13043 0.76074 0.0
C1679 C 0.68184 0.11463 0.74693 0.0
C1680 C 0.67595 0.13256 0.78316 0.0
C1681 C 0.6896 0.11701 0.7696 0.0
C1682 C 0.66518 0.15399 0.67107 0.0
C1683 C 0.65453 0.16919 0.64679 0.0
N1684 N 0.65462 0.17825 0.66662 0.0
C1685 C 0.66527 0.16352 0.69118 0.0
C1686 C 0.65983 0.15687 0.64866 0.0
C1687 C 0.65983 0.17569 0.68858 0.0
C1688 C 0.71889 0.15615 0.702 0.0
N1689 N 0.70321 0.15282 0.7106 0.0
C1690 C 0.71696 0.17581 0.73939 0.0
C1691 C 0.70202 0.16248 0.72873 0.0
C1692 C 0.73335 0.17947 0.73108 0.0
C1693 C 0.73423 0.16952 0.712 0.0
H1694 H 0.71951 0.14844 0.68734 0.0
H1695 H 0.68945 0.15988 0.73492 0.0
C1696 C 0.62644 0.12025 0.72553 0.0
N1697 N 0.63205 0.12509 0.70249 0.0
C1698 C 0.61218 0.1211 0.73425 0.0
C1699 C 0.60943 0.13164 0.69525 0.0
C1700 C 0.6237 0.13048 0.68724 0.0
C1701 C 0.60349 0.12695 0.71911 0.0
H1702 H 0.63285 0.11537 0.73703 0.0
H1703 H 0.62796 0.13369 0.66876 0.0
C1704 C 0.69328 0.10877 0.67304 0.0
N1705 N 0.71172 0.09171 0.6661 0.0
C1706 C 0.69103 0.09928 0.6519 0.0
C1707 C 0.70517 0.10986 0.69043 0.0
C1708 C 0.7004 0.09066 0.64879 0.0
C1709 C 0.7143 0.10106 0.68665 0.0
C1710 C 0.62762 0.09488 0.67047 0.0
C1711 C 0.61677 0.08411 0.68878 0.0
C1712 C 0.6205 0.0989 0.65072 0.0
C1713 C 0.59891 0.07765 0.68712 0.0
C1714 C 0.60257 0.09216 0.64971 0.0
N1715 N 0.59224 0.08179 0.66779 0.0
C1716 C 0.64944 0.07535 0.72937 0.0
C1717 C 0.65798 0.06888 0.69211 0.0
C1718 C 0.64336 0.05842 0.73753 0.0
N1719 N 0.65666 0.08028 0.70706 0.0
C1720 C 0.65208 0.0518 0.69953 0.0
C1721 C 0.64447 0.04631 0.72245 0.0
H1722 H 0.64782 0.08439 0.74056 0.0
H1723 H 0.66305 0.07281 0.6741 0.0
C1724 C 0.67857 0.13421 0.61044 0.0
N1725 N 0.66779 0.11969 0.62319 0.0
C1726 C 0.67925 0.13356 0.58524 0.0
C1727 C 0.65794 0.10298 0.58689 0.0
C1728 C 0.65757 0.10426 0.61199 0.0
C1729 C 0.66886 0.11777 0.57316 0.0
H1730 H 0.68661 0.14629 0.61986 0.0
H1731 H 0.64914 0.09292 0.62261 0.0
O1732 O 0.66346 0.11951 0.72022 0.0
O1733 O 0.67044 0.14201 0.67323 0.0
O1734 O 0.68426 0.11736 0.67631 0.0
O1735 O 0.64516 0.10172 0.67212 0.0
H1736 H 0.65968 0.13594 0.75754 0.0
H1737 H 0.68417 0.10748 0.73311 0.0
H1738 H 0.6738 0.13959 0.79742 0.0
H1739 H 0.69805 0.11181 0.77328 0.0
H1740 H 0.65028 0.1715 0.62959 0.0
H1741 H 0.66922 0.16134 0.70868 0.0
H1742 H 0.65962 0.14955 0.63293 0.0
H1743 H 0.65971 0.18307 0.70403 0.0
H1744 H 0.71569 0.18337 0.75373 0.0
H1745 H 0.74662 0.17192 0.70507 0.0
H1746 H 0.60781 0.11687 0.75254 0.0
H1747 H 0.60317 0.13623 0.6829 0.0
H1748 H 0.68201 0.09842 0.63815 0.0
H1749 H 0.70747 0.11753 0.70658 0.0
H1750 H 0.69866 0.08315 0.63262 0.0
H1751 H 0.72348 0.10174 0.70001 0.0
H1752 H 0.62212 0.08096 0.70424 0.0
H1753 H 0.62876 0.10734 0.63651 0.0
H1754 H 0.59036 0.0694 0.70123 0.0
H1755 H 0.59687 0.09525 0.63461 0.0
H1756 H 0.63719 0.05468 0.75506 0.0
H1757 H 0.6532 0.04293 0.68729 0.0
H1758 H 0.68797 0.14522 0.57535 0.0
H1759 H 0.64959 0.0906 0.5783 0.0
Li1760 Li 0.54821 0.68516 0.6992 0.0
Li1761 Li 0.52883 0.6535 0.69538 0.0
Li1762 Li 0.56134 0.66698 0.69765 0.0
Li1763 Li 0.54762 0.66969 0.66065 0.0
C1764 C 0.54293 0.67219 0.74428 0.0
N1765 N 0.53887 0.68385 0.78871 0.0
C1766 C 0.52639 0.6655 0.75433 0.0
C1767 C 0.55741 0.68464 0.75695 0.0
C1768 C 0.52461 0.6716 0.77679 0.0
C1769 C 0.55508 0.69042 0.77934 0.0
C1770 C 0.51233 0.66766 0.66832 0.0
C1771 C 0.48753 0.65028 0.64296 0.0
N1772 N 0.47918 0.65806 0.65292 0.0
C1773 C 0.50356 0.67559 0.67814 0.0
C1774 C 0.50431 0.655 0.65045 0.0
C1775 C 0.48679 0.67052 0.67017 0.0
C1776 C 0.56459 0.72143 0.70756 0.0
N1777 N 0.55018 0.70595 0.71244 0.0
C1778 C 0.53857 0.72005 0.73655 0.0
C1779 C 0.53721 0.70503 0.72647 0.0
C1780 C 0.55334 0.73626 0.73193 0.0
C1781 C 0.56645 0.7368 0.71716 0.0
H1782 H 0.57461 0.72187 0.69605 0.0
H1783 H 0.52579 0.69262 0.72989 0.0
C1784 C 0.50993 0.61992 0.7126 0.0
N1785 N 0.50788 0.63342 0.7056 0.0
C1786 C 0.49584 0.60462 0.72124 0.0
C1787 C 0.47765 0.61733 0.71535 0.0
C1788 C 0.49216 0.63247 0.70698 0.0
C1789 C 0.47937 0.60313 0.72269 0.0
H1790 H 0.52264 0.62114 0.71169 0.0
H1791 H 0.49084 0.64345 0.70192 0.0
C1792 C 0.58565 0.69648 0.67855 0.0
N1793 N 0.62142 0.71232 0.67915 0.0
C1794 C 0.59466 0.69702 0.6576 0.0
C1795 C 0.59484 0.70418 0.69972 0.0
C1796 C 0.61275 0.70505 0.65829 0.0
C1797 C 0.61292 0.71207 0.69969 0.0
C1798 C 0.54115 0.63544 0.65987 0.0
C1799 C 0.5545 0.63273 0.65185 0.0
C1800 C 0.52425 0.62472 0.65146 0.0
C1801 C 0.5508 0.61962 0.63504 0.0
C1802 C 0.52107 0.61173 0.63469 0.0
N1803 N 0.5343 0.60948 0.62686 0.0
C1804 C 0.57725 0.65818 0.73424 0.0
C1805 C 0.59143 0.66296 0.69647 0.0
C1806 C 0.58842 0.65323 0.74455 0.0
N1807 N 0.57883 0.66278 0.71058 0.0
C1808 C 0.60295 0.65814 0.70607 0.0
C1809 C 0.60136 0.65292 0.73036 0.0
H1810 H 0.56692 0.65778 0.74496 0.0
H1811 H 0.59227 0.6664 0.67761 0.0
C1812 C 0.53994 0.67784 0.61454 0.0
N1813 N 0.54889 0.67128 0.62607 0.0
C1814 C 0.54032 0.67912 0.58939 0.0
C1815 C 0.55974 0.66755 0.58832 0.0
C1816 C 0.55882 0.66632 0.61351 0.0
C1817 C 0.55034 0.67396 0.57583 0.0
H1818 H 0.53249 0.68214 0.62487 0.0
H1819 H 0.56628 0.66167 0.62306 0.0
O1820 O 0.54492 0.66648 0.72223 0.0
O1821 O 0.52872 0.67241 0.67603 0.0
O1822 O 0.56794 0.68852 0.6783 0.0
O1823 O 0.54455 0.64821 0.67636 0.0
H1824 H 0.51504 0.65584 0.74483 0.0
H1825 H 0.57031 0.6898 0.74958 0.0
H1826 H 0.51188 0.66662 0.78472 0.0
H1827 H 0.56617 0.70012 0.78928 0.0
H1828 H 0.48117 0.64047 0.62918 0.0
H1829 H 0.50961 0.68553 0.6918 0.0
H1830 H 0.51104 0.649 0.64228 0.0
H1831 H 0.47982 0.67649 0.6777 0.0
H1832 H 0.5282 0.71893 0.74803 0.0
H1833 H 0.57793 0.749 0.71272 0.0
H1834 H 0.49794 0.59422 0.72714 0.0
H1835 H 0.46523 0.61678 0.71596 0.0
H1836 H 0.58778 0.69127 0.64101 0.0
H1837 H 0.58808 0.70401 0.71601 0.0
H1838 H 0.61988 0.70549 0.64224 0.0
H1839 H 0.62018 0.71799 0.71599 0.0
H1840 H 0.56761 0.64078 0.65835 0.0
H1841 H 0.51367 0.62628 0.65796 0.0
H1842 H 0.56104 0.61749 0.62852 0.0
H1843 H 0.50806 0.60338 0.62797 0.0
H1844 H 0.58644 0.64898 0.76319 0.0
H1845 H 0.6128 0.65824 0.69449 0.0
H1846 H 0.5327 0.68399 0.5807 0.0
H1847 H 0.56798 0.6638 0.57881 0.0
Li1848 Li 0.87743 0.53073 0.69668 0.0
Li1849 Li 0.86617 0.55136 0.69627 0.0
Li1850 Li 0.88081 0.54745 0.65997 0.0
Li1851 Li 0.89665 0.56113 0.69579 0.0
C1852 C 0.84229 0.51746 0.68259 0.0
N1853 N 0.80924 0.49255 0.69647 0.0
C1854 C 0.83827 0.51378 0.70707 0.0
C1855 C 0.82952 0.50847 0.66519 0.0
C1856 C 0.82148 0.50115 0.71372 0.0
C1857 C 0.81289 0.49591 0.67257 0.0
C1858 C 0.88727 0.5583 0.74106 0.0
C1859 C 0.89421 0.58411 0.76381 0.0
N1860 N 0.90356 0.5803 0.77956 0.0
C1861 C 0.89689 0.55461 0.75754 0.0
C1862 C 0.8859 0.57317 0.74422 0.0
C1863 C 0.90506 0.56591 0.77685 0.0
C1864 C 0.88813 0.51169 0.72378 0.0
N1865 N 0.87487 0.50958 0.70934 0.0
C1866 C 0.86042 0.4788 0.71492 0.0
C1867 C 0.86132 0.4935 0.70431 0.0
C1868 C 0.87367 0.48068 0.73063 0.0
C1869 C 0.88776 0.4974 0.73475 0.0
H1870 H 0.89908 0.52455 0.72663 0.0
H1871 H 0.85121 0.49202 0.6921 0.0
C1872 C 0.84022 0.56075 0.69089 0.0
N1873 N 0.84774 0.55486 0.70676 0.0
C1874 C 0.82618 0.56263 0.69809 0.0
C1875 C 0.82803 0.55245 0.73785 0.0
C1876 C 0.84199 0.55076 0.72988 0.0
C1877 C 0.81983 0.55834 0.72184 0.0
H1878 H 0.845 0.56378 0.67255 0.0
H1879 H 0.84815 0.54602 0.74212 0.0
C1880 C 0.90043 0.53168 0.66287 0.0
N1881 N 0.90478 0.50809 0.63561 0.0
C1882 C 0.91704 0.53416 0.65891 0.0
C1883 C 0.88603 0.51719 0.65288 0.0
C1884 C 0.91896 0.52209 0.6451 0.0
C1885 C 0.8885 0.50542 0.63919 0.0
C1886 C 0.89445 0.5863 0.67097 0.0
C1887 C 0.90951 0.59209 0.6572 0.0
C1888 C 0.89039 0.59829 0.68081 0.0
C1889 C 0.92042 0.6099 0.65373 0.0
C1890 C 0.90163 0.616 0.67689 0.0
N1891 N 0.91629 0.62138 0.66357 0.0
C1892 C 0.86644 0.54177 0.61276 0.0
C1893 C 0.8968 0.55287 0.61436 0.0
C1894 C 0.86674 0.54142 0.58752 0.0
N1895 N 0.88133 0.54737 0.62558 0.0
C1896 C 0.8977 0.55267 0.58921 0.0
C1897 C 0.88253 0.54683 0.57542 0.0
H1898 H 0.85432 0.53752 0.62217 0.0
H1899 H 0.90847 0.55737 0.62498 0.0
C1900 C 0.93041 0.57213 0.70992 0.0
N1901 N 0.91907 0.57809 0.70795 0.0
C1902 C 0.94701 0.58274 0.71919 0.0
C1903 C 0.93999 0.60546 0.72482 0.0
C1904 C 0.92348 0.59438 0.71535 0.0
C1905 C 0.95204 0.59969 0.72671 0.0
H1906 H 0.92645 0.55898 0.70463 0.0
H1907 H 0.91417 0.59875 0.71428 0.0
O1908 O 0.85857 0.52994 0.6756 0.0
O1909 O 0.87951 0.54764 0.72168 0.0
O1910 O 0.89846 0.54352 0.67628 0.0
O1911 O 0.88361 0.56895 0.6746 0.0
H1912 H 0.84801 0.52049 0.72079 0.0
H1913 H 0.83242 0.51116 0.64617 0.0
H1914 H 0.81819 0.49817 0.73258 0.0
H1915 H 0.80287 0.48885 0.65929 0.0
H1916 H 0.89334 0.59571 0.76637 0.0
H1917 H 0.89808 0.54318 0.75547 0.0
H1918 H 0.87878 0.57641 0.73143 0.0
H1919 H 0.91259 0.56324 0.78969 0.0
H1920 H 0.84935 0.46614 0.71116 0.0
H1921 H 0.89851 0.49943 0.74615 0.0
H1922 H 0.82014 0.56702 0.68506 0.0
H1923 H 0.82377 0.54923 0.75639 0.0
H1924 H 0.92834 0.54534 0.66636 0.0
H1925 H 0.87308 0.51502 0.65555 0.0
H1926 H 0.93174 0.52387 0.6419 0.0
H1927 H 0.87747 0.49416 0.63138 0.0
H1928 H 0.91283 0.58295 0.64954 0.0
H1929 H 0.87874 0.59397 0.69144 0.0
H1930 H 0.93219 0.6146 0.64325 0.0
H1931 H 0.89871 0.62545 0.68446 0.0
H1932 H 0.85472 0.53668 0.57761 0.0
H1933 H 0.91018 0.55719 0.58066 0.0
H1934 H 0.95571 0.57759 0.72085 0.0
H1935 H 0.94333 0.61842 0.73044 0.0
Li1936 Li 0.35144 0.88148 0.68948 0.0
Li1937 Li 0.31969 0.8677 0.69248 0.0
Li1938 Li 0.33534 0.88377 0.65433 0.0
Li1939 Li 0.33667 0.89902 0.69168 0.0
C1940 C 0.33691 0.85004 0.66055 0.0
N1941 N 0.34337 0.82469 0.64306 0.0
C1942 C 0.33122 0.83457 0.67334 0.0
C1943 C 0.34569 0.85248 0.63866 0.0
C1944 C 0.33466 0.82195 0.66426 0.0
C1945 C 0.34889 0.83956 0.63019 0.0
C1946 C 0.33207 0.87617 0.73839 0.0
C1947 C 0.31198 0.86809 0.77163 0.0
N1948 N 0.32057 0.86115 0.78324 0.0
C1949 C 0.34076 0.86904 0.75069 0.0
C1950 C 0.31762 0.87578 0.74898 0.0
C1951 C 0.33472 0.86148 0.77334 0.0
C1952 C 0.38297 0.8956 0.71294 0.0
N1953 N 0.37165 0.88123 0.70037 0.0
C1954 C 0.38959 0.8686 0.70641 0.0
C1955 C 0.37469 0.86785 0.69686 0.0
C1956 C 0.40144 0.88323 0.7197 0.0
C1957 C 0.398 0.89689 0.7228 0.0
H1958 H 0.38015 0.90599 0.71556 0.0
H1959 H 0.36561 0.85656 0.68682 0.0
C1960 C 0.28341 0.84377 0.69826 0.0
N1961 N 0.29964 0.84766 0.70509 0.0
C1962 C 0.26886 0.8288 0.70706 0.0
C1963 C 0.28803 0.82239 0.73008 0.0
C1964 C 0.30213 0.83729 0.72065 0.0
C1965 C 0.27108 0.81779 0.72313 0.0
H1966 H 0.28177 0.85216 0.68571 0.0
H1967 H 0.31512 0.84052 0.72568 0.0
C1968 C 0.37121 0.91031 0.65758 0.0
N1969 N 0.40168 0.92613 0.63129 0.0
C1970 C 0.38009 0.92829 0.65419 0.0
C1971 C 0.37795 0.90042 0.64785 0.0
C1972 C 0.39544 0.93603 0.64075 0.0
C1973 C 0.39334 0.90864 0.63457 0.0
C1974 C 0.30809 0.89384 0.67166 0.0
C1975 C 0.3109 0.905 0.65227 0.0
C1976 C 0.2978 0.89331 0.69107 0.0
C1977 C 0.3035 0.91564 0.65276 0.0
C1978 C 0.29064 0.90416 0.69089 0.0
N1979 N 0.29363 0.91501 0.67191 0.0
C1980 C 0.32368 0.86988 0.60756 0.0
C1981 C 0.34413 0.89999 0.60837 0.0
C1982 C 0.32281 0.87018 0.58237 0.0
N1983 N 0.33436 0.88462 0.61996 0.0
C1984 C 0.34372 0.90087 0.58323 0.0
C1985 C 0.33298 0.88583 0.56982 0.0
H1986 H 0.31586 0.85788 0.61728 0.0
H1987 H 0.3522 0.91161 0.61863 0.0
C1988 C 0.33885 0.92285 0.72758 0.0
N1989 N 0.33976 0.92051 0.7035 0.0
C1990 C 0.34378 0.93932 0.73667 0.0
C1991 C 0.34998 0.95055 0.69593 0.0
C1992 C 0.34484 0.93384 0.68763 0.0
C1993 C 0.34993 0.95356 0.72085 0.0
H1994 H 0.33499 0.91211 0.73985 0.0
H1995 H 0.34564 0.93164 0.66859 0.0
O1996 O 0.3335 0.86248 0.66908 0.0
O1997 O 0.33772 0.8835 0.71612 0.0
O1998 O 0.35615 0.90253 0.67067 0.0
O1999 O 0.31552 0.88361 0.67176 0.0
H2000 H 0.32433 0.83235 0.69018 0.0
H2001 H 0.34995 0.86419 0.62822 0.0
H2002 H 0.33041 0.80998 0.67407 0.0
H2003 H 0.35572 0.84133 0.61333 0.0
H2004 H 0.30076 0.8676 0.77997 0.0
H2005 H 0.35195 0.86922 0.74278 0.0
H2006 H 0.31074 0.88122 0.73969 0.0
H2007 H 0.34127 0.85584 0.78302 0.0
H2008 H 0.39184 0.85786 0.70329 0.0
H2009 H 0.40663 0.90832 0.73318 0.0
H2010 H 0.25608 0.82572 0.70092 0.0
H2011 H 0.29045 0.81456 0.74274 0.0
H2012 H 0.37518 0.93619 0.66179 0.0
H2013 H 0.3715 0.8866 0.65079 0.0
H2014 H 0.40239 0.94992 0.63789 0.0
H2015 H 0.39868 0.90112 0.62694 0.0
H2016 H 0.31884 0.90556 0.63713 0.0
H2017 H 0.29543 0.88467 0.70613 0.0
H2018 H 0.30565 0.92442 0.63795 0.0
H2019 H 0.28272 0.90396 0.70584 0.0
H2020 H 0.3141 0.85832 0.57288 0.0
H2021 H 0.35189 0.91319 0.57441 0.0
H2022 H 0.34329 0.94097 0.75597 0.0
H2023 H 0.35481 0.96113 0.68307 0.0
Li2024 Li 0.4491 0.3141 0.69414 0.0
Li2025 Li 0.47023 0.34522 0.69119 0.0
Li2026 Li 0.43791 0.334 0.69311 0.0
Li2027 Li 0.45097 0.33037 0.65603 0.0
C2028 C 0.4543 0.32618 0.73954 0.0
N2029 N 0.45598 0.31234 0.78343 0.0
C2030 C 0.47038 0.3303 0.74936 0.0
C2031 C 0.4391 0.31523 0.75218 0.0
C2032 C 0.47095 0.32312 0.77154 0.0
C2033 C 0.44021 0.30831 0.7743 0.0
C2034 C 0.48428 0.33005 0.6602 0.0
C2035 C 0.5071 0.34713 0.63182 0.0
N2036 N 0.51543 0.33845 0.63834 0.0
C2037 C 0.49299 0.32118 0.66647 0.0
C2038 C 0.49133 0.34304 0.64262 0.0
C2039 C 0.50875 0.32566 0.65527 0.0
C2040 C 0.43098 0.27784 0.70543 0.0
N2041 N 0.44633 0.29297 0.70722 0.0
C2042 C 0.45912 0.2786 0.72808 0.0
C2043 C 0.46029 0.29357 0.71814 0.0
C2044 C 0.44345 0.26273 0.72653 0.0
C2045 C 0.42924 0.2625 0.71502 0.0
H2046 H 0.42013 0.27763 0.69636 0.0
H2047 H 0.47239 0.30574 0.71916 0.0
C2048 C 0.49151 0.37769 0.71134 0.0
N2049 N 0.49195 0.36375 0.70217 0.0
C2050 C 0.50645 0.39165 0.72106 0.0
C2051 C 0.52213 0.37671 0.71164 0.0
C2052 C 0.50683 0.36298 0.70224 0.0
C2053 C 0.52208 0.39129 0.72136 0.0
H2054 H 0.47942 0.37782 0.7114 0.0
H2055 H 0.50683 0.35163 0.69539 0.0
C2056 C 0.41236 0.30485 0.67302 0.0
N2057 N 0.37667 0.28989 0.67226 0.0
C2058 C 0.40383 0.30408 0.65147 0.0
C2059 C 0.40274 0.29783 0.69411 0.0
C2060 C 0.38578 0.2965 0.65147 0.0
C2061 C 0.38471 0.29038 0.69338 0.0
C2062 C 0.46035 0.36648 0.65821 0.0
C2063 C 0.44788 0.37092 0.6517 0.0
C2064 C 0.47757 0.37707 0.65094 0.0
C2065 C 0.45276 0.38562 0.63746 0.0
C2066 C 0.48194 0.39168 0.63674 0.0
N2067 N 0.46954 0.3956 0.63032 0.0
C2068 C 0.42368 0.34638 0.7278 0.0
C2069 C 0.40914 0.33968 0.69012 0.0
C2070 C 0.41351 0.35315 0.73635 0.0
N2071 N 0.42147 0.34002 0.70496 0.0
C2072 C 0.39858 0.34618 0.69799 0.0
C2073 C 0.40093 0.35339 0.72123 0.0
H2074 H 0.43382 0.34682 0.73906 0.0
H2075 H 0.40791 0.33498 0.67184 0.0
C2076 C 0.45562 0.32118 0.60834 0.0
N2077 N 0.44907 0.32947 0.62154 0.0
C2078 C 0.45426 0.32057 0.58316 0.0
C2079 C 0.43897 0.33657 0.58565 0.0
C2080 C 0.44065 0.33688 0.61074 0.0
C2081 C 0.44589 0.32839 0.57145 0.0
H2082 H 0.46184 0.31496 0.61736 0.0
H2083 H 0.43503 0.34287 0.62163 0.0
O2084 O 0.45347 0.33292 0.71771 0.0
O2085 O 0.46892 0.32592 0.67117 0.0
O2086 O 0.43003 0.31232 0.6734 0.0
O2087 O 0.45581 0.35221 0.67235 0.0
H2088 H 0.48228 0.33879 0.73984 0.0
H2089 H 0.42657 0.31213 0.74499 0.0
H2090 H 0.4833 0.32608 0.77928 0.0
H2091 H 0.42854 0.29974 0.78423 0.0
H2092 H 0.5127 0.35717 0.61819 0.0
H2093 H 0.48767 0.31099 0.6799 0.0
H2094 H 0.48458 0.34974 0.63715 0.0
H2095 H 0.51567 0.31896 0.66004 0.0
H2096 H 0.47036 0.27951 0.73704 0.0
H2097 H 0.41699 0.25054 0.71305 0.0
H2098 H 0.50564 0.40241 0.72875 0.0
H2099 H 0.53386 0.37589 0.71127 0.0
H2100 H 0.41106 0.3093 0.63494 0.0
H2101 H 0.40913 0.29821 0.71088 0.0
H2102 H 0.379 0.29588 0.63495 0.0
H2103 H 0.37711 0.28499 0.7096 0.0
H2104 H 0.43455 0.36302 0.65738 0.0
H2105 H 0.48752 0.3742 0.65638 0.0
H2106 H 0.4432 0.3891 0.63212 0.0
H2107 H 0.4952 0.39994 0.63093 0.0
H2108 H 0.41603 0.35882 0.75423 0.0
H2109 H 0.38894 0.34589 0.68577 0.0
H2110 H 0.45948 0.31381 0.573 0.0
H2111 H 0.43246 0.34281 0.57746 0.0
H2112 H 0.37695 0.02516 0.23045 0.0
H2113 H 0.42773 0.03213 0.2449 0.0
H2114 H 0.41468 0.00248 0.25969 0.0
H2115 H 0.38908 0.97471 0.26899 0.0
H2116 H 0.33806 0.96672 0.25366 0.0
H2117 H 0.35095 0.99663 0.23904 0.0
C2118 C 0.38513 0.02013 0.23668 0.0
C2119 C 0.4033 0.03097 0.23679 0.0
C2120 C 0.37751 0.0029 0.24514 0.0
C2121 C 0.41371 0.02424 0.24506 0.0
C2122 C 0.40627 0.00723 0.2534 0.0
C2123 C 0.38074 0.97938 0.26215 0.0
C2124 C 0.36262 0.96839 0.26229 0.0
C2125 C 0.38821 0.99647 0.2536 0.0
C2126 C 0.35205 0.97491 0.25395 0.0
C2127 C 0.35942 0.99199 0.24544 0.0
H2128 H 0.37595 0.3583 0.28943 0.0
H2129 H 0.40885 0.36957 0.22694 0.0
H2130 H 0.39474 0.3839 0.20757 0.0
H2131 H 0.37441 0.39492 0.2094 0.0
H2132 H 0.34146 0.38375 0.27183 0.0
H2133 H 0.35437 0.36791 0.29025 0.0
C2134 C 0.38001 0.36388 0.27157 0.0
C2135 C 0.39344 0.36285 0.25969 0.0
C2136 C 0.37192 0.37224 0.26056 0.0
C2137 C 0.3984 0.36997 0.2364 0.0
C2138 C 0.39042 0.37828 0.22535 0.0
C2139 C 0.3698 0.38874 0.22683 0.0
C2140 C 0.35705 0.39064 0.23924 0.0
C2141 C 0.3773 0.37967 0.23736 0.0
C2142 C 0.35144 0.38274 0.26201 0.0
C2143 C 0.35878 0.37362 0.27254 0.0
H2144 H 0.97931 0.35629 0.21973 0.0
H2145 H 0.96193 0.38635 0.25999 0.0
H2146 H 0.99024 0.40268 0.27897 0.0
H2147 H 0.01996 0.40875 0.28411 0.0
H2148 H 0.0384 0.38018 0.24259 0.0
H2149 H 0.00967 0.36289 0.22441 0.0
C2150 C 0.98176 0.36648 0.23255 0.0
C2151 C 0.96836 0.36989 0.23857 0.0
C2152 C 0.99826 0.37608 0.24329 0.0
C2153 C 0.97179 0.3831 0.25537 0.0
C2154 C 0.98806 0.39258 0.26614 0.0
C2155 C 0.0178 0.39888 0.27089 0.0
C2156 C 0.03141 0.39588 0.26469 0.0
C2157 C 0.00138 0.3892 0.26023 0.0
C2158 C 0.02816 0.38269 0.24794 0.0
C2159 C 0.01175 0.37287 0.23738 0.0
H2160 H 0.60991 0.98337 0.21196 0.0
H2161 H 0.62248 0.96319 0.27482 0.0
H2162 H 0.6378 0.99226 0.29251 0.0
H2163 H 0.64607 0.02315 0.29117 0.0
H2164 H 0.63281 0.04305 0.22862 0.0
H2165 H 0.61943 0.01443 0.20971 0.0
C2166 C 0.61627 0.98539 0.22933 0.0
C2167 C 0.61505 0.97114 0.24205 0.0
C2168 C 0.62482 0.00209 0.23954 0.0
C2169 C 0.62312 0.97393 0.26475 0.0
C2170 C 0.63189 0.99055 0.27486 0.0
C2171 C 0.64046 0.02126 0.27326 0.0
C2172 C 0.64034 0.03518 0.26138 0.0
C2173 C 0.63259 0.00469 0.26259 0.0
C2174 C 0.63286 0.03248 0.23828 0.0
C2175 C 0.62526 0.01614 0.22742 0.0
H2176 H 0.62071 0.63736 0.29201 0.0
H2177 H 0.59458 0.63497 0.22539 0.0
H2178 H 0.60931 0.62147 0.20513 0.0
H2179 H 0.62806 0.6085 0.20715 0.0
H2180 H 0.65251 0.60887 0.2745 0.0
H2181 H 0.64014 0.62504 0.29373 0.0
C2182 C 0.61849 0.63409 0.27298 0.0
C2183 C 0.60667 0.63716 0.26012 0.0
C2184 C 0.62662 0.62588 0.26167 0.0
C2185 C 0.60363 0.63266 0.23558 0.0
C2186 C 0.61202 0.62495 0.22403 0.0
C2187 C 0.63087 0.61239 0.22593 0.0
C2188 C 0.64121 0.6076 0.2394 0.0
C2189 C 0.62333 0.62123 0.23699 0.0
C2190 C 0.64454 0.61241 0.26383 0.0
C2191 C 0.63747 0.62164 0.27481 0.0
H2192 H 0.03275 0.63506 0.26483 0.0
H2193 H 0.01633 0.63752 0.19233 0.0
H2194 H 0.9862 0.62385 0.20578 0.0
H2195 H 0.96437 0.60998 0.2377 0.0
H2196 H 0.98069 0.6069 0.31003 0.0
H2197 H 0.01099 0.62248 0.29723 0.0
C2198 C 0.02261 0.63287 0.25205 0.0
C2199 C 0.0268 0.6372 0.22757 0.0
C2200 C 0.00528 0.62491 0.25988 0.0
C2201 C 0.01345 0.63407 0.2112 0.0
C2202 C 0.99622 0.62631 0.21889 0.0
C2203 C 0.97455 0.6127 0.25067 0.0
C2204 C 0.9702 0.60718 0.27477 0.0
C2205 C 0.99195 0.62142 0.2431 0.0
C2206 C 0.98361 0.61113 0.29143 0.0
C2207 C 0.00097 0.61993 0.28408 0.0
H2208 H 0.6024 0.96528 0.73982 0.0
H2209 H 0.62139 0.98166 0.8123 0.0
H2210 H 0.63795 0.01177 0.7988 0.0
H2211 H 0.64566 0.03369 0.76693 0.0
H2212 H 0.62549 0.01732 0.69491 0.0
H2213 H 0.61088 0.98705 0.70771 0.0
C2214 C 0.61015 0.97544 0.75269 0.0
C2215 C 0.61055 0.97118 0.77708 0.0
C2216 C 0.61942 0.99277 0.7449 0.0
C2217 C 0.62095 0.98449 0.79338 0.0
C2218 C 0.63033 0.00176 0.78572 0.0
C2219 C 0.63805 0.0235 0.75404 0.0
C2220 C 0.63667 0.02784 0.73 0.0
C2221 C 0.62944 0.00608 0.7616 0.0
C2222 C 0.62699 0.01441 0.71344 0.0
C2223 C 0.6185 0.99707 0.72079 0.0
H2224 H 0.6405 0.62275 0.79099 0.0
H2225 H 0.63667 0.59735 0.72301 0.0
H2226 H 0.62355 0.61286 0.70439 0.0
H2227 H 0.61125 0.63196 0.7081 0.0
H2228 H 0.61564 0.65806 0.77564 0.0
H2229 H 0.63053 0.64402 0.79365 0.0
C2230 C 0.6371 0.62085 0.772 0.0
C2231 C 0.63938 0.60872 0.75853 0.0
C2232 C 0.62953 0.62983 0.76134 0.0
C2233 C 0.63474 0.60632 0.73396 0.0
C2234 C 0.6273 0.61525 0.72324 0.0
C2235 C 0.61579 0.63491 0.7266 0.0
C2236 C 0.61219 0.64598 0.7405 0.0
C2237 C 0.62434 0.62679 0.73686 0.0
C2238 C 0.61796 0.64937 0.7646 0.0
C2239 C 0.62654 0.64139 0.77491 0.0
H2240 H 0.98243 0.60374 0.70974 0.0
H2241 H 0.96132 0.62118 0.76612 0.0
H2242 H 0.99027 0.63855 0.7837 0.0
H2243 H 0.02148 0.64781 0.78392 0.0
H2244 H 0.04191 0.62916 0.72804 0.0
H2245 H 0.01338 0.61332 0.70946 0.0
C2246 C 0.98414 0.61128 0.72594 0.0
C2247 C 0.96971 0.61105 0.73668 0.0
C2248 C 1.00073 0.62105 0.73606 0.0
C2249 C 0.97222 0.62121 0.75738 0.0
C2250 C 0.98876 0.63106 0.76753 0.0
C2251 C 0.01967 0.64026 0.7677 0.0
C2252 C 0.0339 0.6398 0.75737 0.0
C2253 C 0.00309 0.63093 0.75717 0.0
C2254 C 0.03132 0.63007 0.73618 0.0
C2255 C 0.01495 0.62085 0.72561 0.0
H2256 H 0.38323 0.03369 0.74391 0.0
H2257 H 0.40599 0.01917 0.80174 0.0
H2258 H 0.38991 0.98897 0.78886 0.0
H2259 H 0.37066 0.96696 0.76014 0.0
H2260 H 0.34716 0.98083 0.70261 0.0
H2261 H 0.36223 0.01099 0.71646 0.0
C2262 C 0.38448 0.02387 0.75386 0.0
C2263 C 0.39599 0.02876 0.77358 0.0
C2264 C 0.37514 0.00643 0.74637 0.0
C2265 C 0.39753 0.01586 0.78619 0.0
C2266 C 0.38826 0.99855 0.77893 0.0
C2267 C 0.3685 0.97646 0.75089 0.0
C2268 C 0.35775 0.97158 0.73037 0.0
C2269 C 0.3772 0.99373 0.7589 0.0
C2270 C 0.35549 0.98424 0.71832 0.0
C2271 C 0.36406 0.00148 0.72627 0.0
H2272 H 0.36534 0.39864 0.73894 0.0
H2273 H 0.3628 0.38009 0.8117 0.0
H2274 H 0.37521 0.3625 0.7982 0.0
H2275 H 0.38802 0.35338 0.7661 0.0
H2276 H 0.39221 0.37353 0.69392 0.0
H2277 H 0.37785 0.38935 0.70686 0.0
C2278 C 0.36758 0.39083 0.7519 0.0
C2279 C 0.36318 0.39078 0.77633 0.0
C2280 C 0.37501 0.38098 0.74412 0.0
C2281 C 0.36586 0.38026 0.79274 0.0
C2282 C 0.37309 0.37028 0.78507 0.0
C2283 C 0.38587 0.36129 0.7532 0.0
C2284 C 0.39122 0.36219 0.72904 0.0
C2285 C 0.37791 0.3707 0.76086 0.0
C2286 C 0.38801 0.37229 0.71253 0.0
C2287 C 0.37992 0.38151 0.71995 0.0
H2288 H 0.02147 0.38351 0.70666 0.0
H2289 H 0.04358 0.39947 0.77779 0.0
H2290 H 0.01463 0.38414 0.7957 0.0
H2291 H 0.98296 0.36786 0.79094 0.0
H2292 H 0.96075 0.35223 0.71981 0.0
H2293 H 0.98979 0.36568 0.70212 0.0
C2294 C 0.01996 0.38337 0.7261 0.0
C2295 C 0.03465 0.39267 0.74086 0.0
C2296 C 0.00325 0.3747 0.73627 0.0
C2297 C 0.03246 0.39257 0.76601 0.0
C2298 C 0.01592 0.38378 0.77627 0.0
C2299 C 0.98448 0.36712 0.77162 0.0
C2300 C 0.96971 0.35909 0.75671 0.0
C2301 C 0.0012 0.37504 0.76155 0.0
C2302 C 0.97191 0.3585 0.73165 0.0
C2303 C 0.98851 0.36615 0.72153 0.0
H2304 H 0.44755 0.20845 0.20921 0.0
H2305 H 0.4474 0.18933 0.28088 0.0
H2306 H 0.44742 0.21453 0.29844 0.0
H2307 H 0.44816 0.24232 0.29346 0.0
H2308 H 0.44803 0.26134 0.22181 0.0
H2309 H 0.44747 0.23588 0.20424 0.0
C2310 C 0.4473 0.20969 0.22867 0.0
C2311 C 0.44748 0.19702 0.2437 0.0
C2312 C 0.44737 0.22425 0.23865 0.0
C2313 C 0.44745 0.19898 0.26889 0.0
C2314 C 0.4474 0.21336 0.27895 0.0
C2315 C 0.4478 0.2408 0.274 0.0
C2316 C 0.44815 0.25375 0.259 0.0
C2317 C 0.44746 0.22612 0.26401 0.0
C2318 C 0.44799 0.25169 0.2338 0.0
C2319 C 0.44757 0.23709 0.22373 0.0
H2320 H 0.21316 0.46252 0.29146 0.0
H2321 H 0.18023 0.42852 0.23503 0.0
H2322 H 0.20488 0.42747 0.21762 0.0
H2323 H 0.23596 0.43669 0.21792 0.0
H2324 H 0.2684 0.46948 0.27565 0.0
H2325 H 0.24371 0.47036 0.29308 0.0
C2326 C 0.21125 0.45463 0.27558 0.0
C2327 C 0.1948 0.44566 0.2646 0.0
C2328 C 0.22544 0.45391 0.2658 0.0
C2329 C 0.19276 0.4358 0.2437 0.0
C2330 C 0.20685 0.4351 0.23379 0.0
C2331 C 0.2376 0.44383 0.2345 0.0
C2332 C 0.25411 0.45312 0.24529 0.0
C2333 C 0.22327 0.44417 0.24462 0.0
C2334 C 0.25596 0.46249 0.26663 0.0
C2335 C 0.24181 0.46292 0.27673 0.0
H2336 H 0.74731 0.19814 0.23713 0.0
H2337 H 0.77341 0.20106 0.30411 0.0
H2338 H 0.79949 0.22691 0.28971 0.0
H2339 H 0.81449 0.24936 0.25868 0.0
H2340 H 0.78836 0.24615 0.19159 0.0
H2341 H 0.76273 0.21972 0.20543 0.0
C2342 C 0.75879 0.20426 0.24844 0.0
C2343 C 0.75837 0.19767 0.27168 0.0
C2344 C 0.77371 0.21915 0.24009 0.0
C2345 C 0.7733 0.20597 0.28625 0.0
C2346 C 0.78824 0.22072 0.278 0.0
C2347 C 0.80327 0.24274 0.24696 0.0
C2348 C 0.80333 0.2498 0.22418 0.0
C2349 C 0.78854 0.22753 0.25504 0.0
C2350 C 0.78858 0.24117 0.20936 0.0
C2351 C 0.77394 0.226 0.2172 0.0
H2352 H 0.57418 0.81459 0.26273 0.0
H2353 H 0.53449 0.78547 0.20981 0.0
H2354 H 0.53377 0.75882 0.22228 0.0
H2355 H 0.54395 0.74362 0.24864 0.0
H2356 H 0.58369 0.77249 0.30156 0.0
H2357 H 0.58486 0.79936 0.28867 0.0
C2358 C 0.5655 0.80243 0.25378 0.0
C2359 C 0.55436 0.80204 0.23543 0.0
C2360 C 0.56512 0.78709 0.26108 0.0
C2361 C 0.54303 0.78613 0.22422 0.0
C2362 C 0.54267 0.77088 0.23125 0.0
C2363 C 0.55303 0.75582 0.25715 0.0
C2364 C 0.56375 0.75604 0.27599 0.0
C2365 C 0.55359 0.77119 0.24972 0.0
C2366 C 0.57519 0.77193 0.28715 0.0
C2367 C 0.57591 0.78731 0.27973 0.0
H2368 H 0.74778 0.55563 0.26241 0.0
H2369 H 0.75911 0.5492 0.18859 0.0
H2370 H 0.78548 0.54957 0.20159 0.0
H2371 H 0.80513 0.55119 0.23397 0.0
H2372 H 0.79316 0.55646 0.30793 0.0
H2373 H 0.76731 0.55706 0.29479 0.0
C2374 C 0.75594 0.55418 0.24916 0.0
C2375 C 0.75141 0.55241 0.22454 0.0
C2376 C 0.77102 0.55421 0.25678 0.0
C2377 C 0.76235 0.55084 0.20762 0.0
C2378 C 0.7774 0.55092 0.21505 0.0
C2379 C 0.79681 0.55235 0.24724 0.0
C2380 C 0.80116 0.5538 0.27191 0.0
C2381 C 0.78182 0.55252 0.23959 0.0
C2382 C 0.79032 0.55557 0.2888 0.0
C2383 C 0.77544 0.5558 0.28132 0.0
H2384 H 0.19275 0.74437 0.26281 0.0
H2385 H 0.19946 0.76367 0.18977 0.0
H2386 H 0.22496 0.79074 0.20213 0.0
H2387 H 0.24582 0.80871 0.23347 0.0
H2388 H 0.23997 0.78856 0.30592 0.0
H2389 H 0.21374 0.76211 0.29393 0.0
C2390 C 0.19986 0.75441 0.24951 0.0
C2391 C 0.19413 0.7519 0.22537 0.0
C2392 C 0.2147 0.76985 0.25663 0.0
C2393 C 0.20337 0.76527 0.20855 0.0
C2394 C 0.21806 0.78074 0.21556 0.0
C2395 C 0.2389 0.7985 0.24661 0.0
C2396 C 0.24491 0.80074 0.27061 0.0
C2397 C 0.22392 0.78313 0.23952 0.0
C2398 C 0.23555 0.78741 0.28744 0.0
C2399 C 0.22059 0.77217 0.28056 0.0
H2400 H 0.52793 0.74464 0.7368 0.0
H2401 H 0.58244 0.76448 0.75016 0.0
H2402 H 0.58513 0.7912 0.76655 0.0
H2403 H 0.572 0.80902 0.77703 0.0
H2404 H 0.51721 0.78845 0.76505 0.0
H2405 H 0.51467 0.76194 0.74836 0.0
C2406 C 0.54037 0.75469 0.74357 0.0
C2407 C 0.55494 0.75248 0.7422 0.0
C2408 C 0.5418 0.76996 0.75319 0.0
C2409 C 0.57103 0.76587 0.75065 0.0
C2410 C 0.57257 0.78114 0.76018 0.0
C2411 C 0.55947 0.79868 0.77098 0.0
C2412 C 0.54486 0.80084 0.77216 0.0
C2413 C 0.55804 0.78333 0.76154 0.0
C2414 C 0.52876 0.78733 0.76396 0.0
C2415 C 0.52725 0.77209 0.75455 0.0
H2416 H 0.76027 0.57477 0.7484 0.0
H2417 H 0.74126 0.52645 0.78702 0.0
H2418 H 0.76612 0.52425 0.7734 0.0
H2419 H 0.79301 0.53572 0.75015 0.0
H2420 H 0.8123 0.58401 0.71143 0.0
H2421 H 0.78733 0.58626 0.72489 0.0
C2422 C 0.7615 0.5637 0.7537 0.0
C2423 C 0.74893 0.55086 0.76888 0.0
C2424 C 0.77582 0.56243 0.74564 0.0
C2425 C 0.75087 0.53669 0.77574 0.0
C2426 C 0.76503 0.53535 0.76781 0.0
C2427 C 0.79188 0.54685 0.74484 0.0
C2428 C 0.80458 0.5597 0.72986 0.0
C2429 C 0.77759 0.54814 0.7528 0.0
C2430 C 0.80265 0.57383 0.72276 0.0
C2431 C 0.78842 0.57518 0.73057 0.0
H2432 H 0.23876 0.8119 0.73573 0.0
H2433 H 0.26929 0.78657 0.73073 0.0
H2434 H 0.24522 0.75997 0.74681 0.0
H2435 H 0.21569 0.74384 0.76245 0.0
H2436 H 0.18405 0.76806 0.76451 0.0
H2437 H 0.20843 0.79512 0.74964 0.0
C2438 C 0.2401 0.80052 0.73788 0.0
C2439 C 0.25597 0.80141 0.73221 0.0
C2440 C 0.22604 0.78504 0.74676 0.0
C2441 C 0.25744 0.7865 0.73543 0.0
C2442 C 0.24361 0.77118 0.74447 0.0
C2443 C 0.21395 0.75491 0.75932 0.0
C2444 C 0.19794 0.75377 0.76463 0.0
C2445 C 0.22788 0.77031 0.75023 0.0
C2446 C 0.19623 0.76852 0.76098 0.0
C2447 C 0.21015 0.78401 0.75226 0.0
H2448 H 0.46772 0.25261 0.72507 0.0
H2449 H 0.416 0.23633 0.75066 0.0
H2450 H 0.4138 0.20986 0.76724 0.0
H2451 H 0.42668 0.19137 0.77475 0.0
H2452 H 0.47891 0.20852 0.75054 0.0
H2453 H 0.48077 0.23459 0.7333 0.0
C2454 C 0.45602 0.24339 0.73451 0.0
C2455 C 0.44207 0.24654 0.73661 0.0
C2456 C 0.4549 0.22829 0.74424 0.0
C2457 C 0.42688 0.2342 0.74848 0.0
C2458 C 0.42564 0.21908 0.75812 0.0
C2459 C 0.43852 0.20088 0.76588 0.0
C2460 C 0.45258 0.19787 0.76386 0.0
C2461 C 0.43959 0.216 0.75616 0.0
C2462 C 0.46775 0.21028 0.75201 0.0
C2463 C 0.46888 0.22528 0.74227 0.0
H2464 H 0.18963 0.42373 0.74631 0.0
H2465 H 0.21841 0.47411 0.71276 0.0
H2466 H 0.24549 0.4773 0.72835 0.0
H2467 H 0.26095 0.4662 0.75224 0.0
H2468 H 0.23253 0.41546 0.78497 0.0
H2469 H 0.20536 0.41224 0.76954 0.0
C2470 C 0.20183 0.43541 0.74248 0.0
C2471 C 0.20199 0.44862 0.72829 0.0
C2472 C 0.21742 0.43719 0.75154 0.0
C2473 C 0.21793 0.46363 0.72331 0.0
C2474 C 0.23343 0.46552 0.73236 0.0
C2475 C 0.24887 0.45431 0.75575 0.0
C2476 C 0.24888 0.44111 0.76978 0.0
C2477 C 0.23332 0.45241 0.74651 0.0
C2478 C 0.23296 0.42597 0.77454 0.0
C2479 C 0.2174 0.42405 0.76557 0.0
H2480 H 0.79374 0.23853 0.79293 0.0
H2481 H 0.81496 0.25653 0.72185 0.0
H2482 H 0.79027 0.23115 0.70373 0.0
H2483 H 0.76199 0.20446 0.70796 0.0
H2484 H 0.74048 0.18675 0.77899 0.0
H2485 H 0.76592 0.2113 0.79724 0.0
C2486 C 0.79306 0.23676 0.7735 0.0
C2487 C 0.80614 0.24942 0.75876 0.0
C2488 C 0.77872 0.22222 0.76318 0.0
C2489 C 0.80496 0.24707 0.73358 0.0
C2490 C 0.79088 0.23253 0.7232 0.0
C2491 C 0.76299 0.20586 0.72744 0.0
C2492 C 0.74934 0.19383 0.74208 0.0
C2493 C 0.77758 0.22012 0.7378 0.0
C2494 C 0.75072 0.19595 0.7673 0.0
C2495 C 0.76529 0.20995 0.77775 0.0
H2496 H 0.43279 0.11053 0.04473 0.0
H2497 H 0.48843 0.14294 0.04841 0.0
H2498 H 0.4901 0.14442 0.00436 0.0
H2499 H 0.47582 0.13608 0.9648 0.0
H2500 H 0.42002 0.10454 0.96107 0.0
H2501 H 0.4184 0.10292 0.00503 0.0
C2502 C 0.44527 0.11782 0.03584 0.0
C2503 C 0.46046 0.12658 0.04979 0.0
C2504 C 0.44612 0.11873 0.01049 0.0
C2505 C 0.47653 0.13619 0.03807 0.0
C2506 C 0.47751 0.137 0.01288 0.0
C2507 C 0.46327 0.12905 0.97356 0.0
C2508 C 0.44809 0.12039 0.95952 0.0
C2509 C 0.46239 0.12833 0.99891 0.0
C2510 C 0.43197 0.11111 0.97132 0.0
C2511 C 0.431 0.11024 0.99651 0.0
H2512 H 0.34934 0.47666 0.96624 0.0
H2513 H 0.31406 0.42146 0.96111 0.0
H2514 H 0.31291 0.41917 0.00506 0.0
H2515 H 0.32128 0.43293 0.04508 0.0
H2516 H 0.35611 0.48819 0.05014 0.0
H2517 H 0.35776 0.49039 0.00616 0.0
C2518 C 0.34126 0.46414 0.9747 0.0
C2519 C 0.33181 0.44927 0.96029 0.0
C2520 C 0.34049 0.46292 1.00003 0.0
C2521 C 0.32167 0.43311 0.97167 0.0
C2522 C 0.3209 0.43179 0.99685 0.0
C2523 C 0.32936 0.44542 0.03655 0.0
C2524 C 0.33851 0.46037 0.05091 0.0
C2525 C 0.33023 0.44661 0.01121 0.0
C2526 C 0.34875 0.4765 0.03954 0.0
C2527 C 0.34977 0.47777 0.01438 0.0
H2528 H 0.86484 0.31164 0.95729 0.0
H2529 H 0.90921 0.36306 0.95078 0.0
H2530 H 0.91115 0.36593 0.99478 0.0
H2531 H 0.89973 0.3541 0.03505 0.0
H2532 H 0.85621 0.302 0.04142 0.0
H2533 H 0.85429 0.29928 0.99763 0.0
C2534 C 0.87488 0.32348 0.96555 0.0
C2535 C 0.88682 0.33714 0.95084 0.0
C2536 C 0.87602 0.32498 0.99084 0.0
C2537 C 0.89994 0.35232 0.96175 0.0
C2538 C 0.90101 0.35399 0.98689 0.0
C2539 C 0.88997 0.34205 0.02694 0.0
C2540 C 0.87803 0.32837 0.04171 0.0
C2541 C 0.8891 0.34041 0.00163 0.0
C2542 C 0.86534 0.31293 0.03065 0.0
C2543 C 0.8643 0.31129 0.00554 0.0
H2544 H 0.52799 0.88056 0.04801 0.0
H2545 H 0.58015 0.88917 0.05306 0.0
H2546 H 0.58235 0.88997 0.00917 0.0
H2547 H 0.56912 0.88714 0.96913 0.0
H2548 H 0.51641 0.87677 0.96424 0.0
H2549 H 0.51462 0.87723 0.00825 0.0
C2550 C 0.53979 0.8824 0.03961 0.0
C2551 C 0.55387 0.8848 0.05406 0.0
C2552 C 0.54083 0.88238 0.0143 0.0
C2553 C 0.56917 0.88757 0.0426 0.0
C2554 C 0.57041 0.88787 0.01741 0.0
C2555 C 0.5573 0.8851 0.97774 0.0
C2556 C 0.54292 0.88191 0.96346 0.0
C2557 C 0.55629 0.8852 0.00308 0.0
C2558 C 0.5276 0.87908 0.97484 0.0
C2559 C 0.5266 0.87942 0.99999 0.0
H2560 H 0.68324 0.54363 0.03595 0.0
H2561 H 0.64547 0.56034 0.04233 0.0
H2562 H 0.64379 0.56139 0.99838 0.0
H2563 H 0.65219 0.55644 0.95802 0.0
H2564 H 0.68943 0.53905 0.95197 0.0
H2565 H 0.69185 0.53901 0.99586 0.0
C2566 C 0.67453 0.54737 0.02777 0.0
C2567 C 0.66447 0.55185 0.04251 0.0
C2568 C 0.67342 0.5477 0.00249 0.0
C2569 C 0.65353 0.55702 0.03149 0.0
C2570 C 0.65246 0.55751 0.00633 0.0
C2571 C 0.66095 0.5528 0.96632 0.0
C2572 C 0.67053 0.54766 0.95171 0.0
C2573 C 0.66226 0.55277 0.99164 0.0
C2574 C 0.6817 0.54281 0.96278 0.0
C2575 C 0.68317 0.54287 0.98788 0.0
H2576 H 0.09937 0.66802 0.95705 0.0
H2577 H 0.14782 0.6681 0.95235 0.0
H2578 H 0.14945 0.66771 0.99632 0.0
H2579 H 0.13692 0.66684 0.03612 0.0
H2580 H 0.08852 0.66684 0.04094 0.0
H2581 H 0.08688 0.66726 0.99695 0.0
C2582 C 0.11022 0.66781 0.96564 0.0
C2583 C 0.12347 0.66813 0.95137 0.0
C2584 C 0.11104 0.66749 0.99098 0.0
C2585 C 0.13756 0.66811 0.96285 0.0
C2586 C 0.13846 0.66777 0.98802 0.0
C2587 C 0.12609 0.66711 0.02758 0.0
C2588 C 0.11286 0.66679 0.04189 0.0
C2589 C 0.12528 0.66747 0.00226 0.0
C2590 C 0.09878 0.66684 0.03042 0.0
C2591 C 0.09788 0.66719 0.00524 0.0
H2592 H 0.86595 0.55649 0.54284 0.0
H2593 H 0.90074 0.53601 0.54775 0.0
H2594 H 0.90235 0.5355 0.50378 0.0
H2595 H 0.8936 0.54048 0.46388 0.0
H2596 H 0.85889 0.56106 0.45889 0.0
H2597 H 0.85727 0.56159 0.50287 0.0
C2598 C 0.87377 0.55178 0.53428 0.0
C2599 C 0.88323 0.54633 0.54861 0.0
C2600 C 0.87461 0.55147 0.50895 0.0
C2601 C 0.8935 0.54049 0.53719 0.0
C2602 C 0.89436 0.54011 0.51203 0.0
C2603 C 0.88582 0.54526 0.4724 0.0
C2604 C 0.87637 0.5507 0.45805 0.0
C2605 C 0.885 0.5456 0.49773 0.0
C2606 C 0.86613 0.55658 0.46945 0.0
C2607 C 0.86526 0.55697 0.49463 0.0
H2608 H 0.33094 0.86173 0.53747 0.0
H2609 H 0.33373 0.91152 0.54165 0.0
H2610 H 0.33356 0.91308 0.49768 0.0
H2611 H 0.33235 0.9002 0.4579 0.0
H2612 H 0.32868 0.85006 0.45379 0.0
H2613 H 0.32907 0.84858 0.49782 0.0
C2614 C 0.3313 0.87284 0.52881 0.0
C2615 C 0.33242 0.88651 0.54296 0.0
C2616 C 0.33097 0.87357 0.50348 0.0
C2617 C 0.33316 0.90093 0.5313 0.0
C2618 C 0.33295 0.90179 0.50611 0.0
C2619 C 0.33174 0.88901 0.46667 0.0
C2620 C 0.33049 0.87527 0.45259 0.0
C2621 C 0.3319 0.88821 0.49201 0.0
C2622 C 0.32948 0.86073 0.46421 0.0
C2623 C 0.32978 0.85991 0.48939 0.0
H2624 H 0.4703 0.33284 0.5381 0.0
H2625 H 0.41781 0.32299 0.54451 0.0
H2626 H 0.41529 0.32281 0.5006 0.0
H2627 H 0.42788 0.32515 0.46025 0.0
H2628 H 0.48029 0.33477 0.45399 0.0
H2629 H 0.48279 0.33496 0.49788 0.0
C2630 C 0.45824 0.33047 0.52991 0.0
C2631 C 0.44429 0.32797 0.54466 0.0
C2632 C 0.45682 0.33027 0.50462 0.0
C2633 C 0.42885 0.3252 0.53366 0.0
C2634 C 0.42735 0.32499 0.50852 0.0
C2635 C 0.43988 0.3274 0.4685 0.0
C2636 C 0.45384 0.32987 0.45381 0.0
C2637 C 0.44126 0.32755 0.49381 0.0
C2638 C 0.46925 0.33258 0.46483 0.0
C2639 C 0.47073 0.33279 0.48995 0.0
H2640 H 0.14277 0.45859 0.54017 0.0
H2641 H 0.08766 0.43859 0.54647 0.0
H2642 H 0.08493 0.43746 0.50248 0.0
H2643 H 0.09841 0.44316 0.46215 0.0
H2644 H 0.15356 0.46311 0.45618 0.0
H2645 H 0.15608 0.46358 0.50005 0.0
C2646 C 0.13017 0.45409 0.53193 0.0
C2647 C 0.11546 0.44875 0.54663 0.0
C2648 C 0.12871 0.45357 0.50665 0.0
C2649 C 0.09918 0.44263 0.53561 0.0
C2650 C 0.09762 0.44208 0.51044 0.0
C2651 C 0.11095 0.44742 0.47044 0.0
C2652 C 0.12578 0.4532 0.45582 0.0
C2653 C 0.11232 0.4476 0.49577 0.0
C2654 C 0.14196 0.45887 0.46694 0.0
C2655 C 0.14341 0.45905 0.49206 0.0
H2656 H 0.66957 0.10169 0.46199 0.0
H2657 H 0.66799 0.14922 0.45581 0.0
H2658 H 0.66817 0.15168 0.49975 0.0
H2659 H 0.66857 0.14023 0.54002 0.0
H2660 H 0.67009 0.09267 0.54625 0.0
H2661 H 0.6702 0.09035 0.50229 0.0
C2662 C 0.6694 0.11265 0.47027 0.0
C2663 C 0.66873 0.12522 0.45562 0.0
C2664 C 0.66948 0.11397 0.49558 0.0
C2665 C 0.66828 0.13923 0.46666 0.0
C2666 C 0.66848 0.1407 0.49179 0.0
C2667 C 0.66909 0.12945 0.53174 0.0
C2668 C 0.66933 0.11665 0.5464 0.0
C2669 C 0.66906 0.12814 0.50644 0.0
C2670 C 0.66973 0.10261 0.53539 0.0
C2671 C 0.66986 0.10131 0.51024 0.0
H2672 H 0.55145 0.68995 0.46411 0.0
H2673 H 0.55445 0.64316 0.45899 0.0
H2674 H 0.55405 0.64094 0.50304 0.0
H2675 H 0.55206 0.65189 0.54294 0.0
H2676 H 0.55041 0.6995 0.54796 0.0
H2677 H 0.55066 0.70154 0.50409 0.0
C2678 C 0.55195 0.67924 0.47267 0.0
C2679 C 0.55293 0.66671 0.45833 0.0
C2680 C 0.55181 0.6781 0.49799 0.0
C2681 C 0.55383 0.65304 0.46965 0.0
C2682 C 0.55352 0.65172 0.49483 0.0
C2683 C 0.55199 0.66286 0.53452 0.0
C2684 C 0.55107 0.67543 0.54894 0.0
C2685 C 0.55247 0.66416 0.50919 0.0
C2686 C 0.55073 0.68939 0.53748 0.0
C2687 C 0.55102 0.69067 0.51233 0.0
H2688 H 0.56065 0.14989 0.21516 0.0
H2689 H 0.52741 0.12224 0.27536 0.0
H2690 H 0.5513 0.12116 0.29516 0.0
H2691 H 0.58129 0.12712 0.29489 0.0
H2692 H 0.61437 0.15367 0.23411 0.0
H2693 H 0.59093 0.15619 0.21514 0.0
C2694 C 0.55862 0.14357 0.23256 0.0
C2695 C 0.54224 0.13619 0.24374 0.0
C2696 C 0.57239 0.14279 0.24378 0.0
C2697 C 0.53992 0.12827 0.26648 0.0
C2698 C 0.55355 0.12752 0.27776 0.0
C2699 C 0.58336 0.13338 0.27743 0.0
C2700 C 0.59955 0.14011 0.26592 0.0
C2701 C 0.56978 0.1346 0.26649 0.0
C2702 C 0.6021 0.14851 0.24351 0.0
C2703 C 0.58866 0.14985 0.23256 0.0
H2704 H 0.46705 0.57798 0.28331 0.0
H2705 H 0.45238 0.6143 0.25595 0.0
H2706 H 0.42717 0.59059 0.23606 0.0
H2707 H 0.40943 0.55954 0.22613 0.0
H2708 H 0.42314 0.52327 0.25661 0.0
H2709 H 0.44853 0.54704 0.27557 0.0
C2710 C 0.4582 0.58076 0.27342 0.0
C2711 C 0.4617 0.59799 0.27124 0.0
C2712 C 0.44357 0.56706 0.26238 0.0
C2713 C 0.45022 0.60124 0.25773 0.0
C2714 C 0.43572 0.58766 0.24643 0.0
C2715 C 0.41783 0.55677 0.23714 0.0
C2716 C 0.41437 0.53955 0.23957 0.0
C2717 C 0.43229 0.57051 0.24858 0.0
C2718 C 0.42561 0.53636 0.25377 0.0
C2719 C 0.4401 0.54995 0.26488 0.0
H2720 H 0.84769 0.45094 0.2534 0.0
H2721 H 0.89182 0.46468 0.29965 0.0
H2722 H 0.89426 0.44052 0.28374 0.0
H2723 H 0.88457 0.41604 0.25602 0.0
H2724 H 0.84212 0.40366 0.20714 0.0
H2725 H 0.83839 0.42672 0.22481 0.0
C2726 C 0.85794 0.44878 0.2599 0.0
C2727 C 0.86947 0.45968 0.27787 0.0
C2728 C 0.85962 0.43508 0.25018 0.0
C2729 C 0.88248 0.45637 0.28626 0.0
C2730 C 0.88403 0.44263 0.27698 0.0
C2731 C 0.87462 0.41848 0.24894 0.0
C2732 C 0.86372 0.4081 0.23013 0.0
C2733 C 0.87277 0.432 0.25881 0.0
C2734 C 0.85061 0.41125 0.22176 0.0
C2735 C 0.84853 0.42454 0.23176 0.0
H2736 H 0.4472 0.85182 0.22767 0.0
H2737 H 0.48208 0.89894 0.26573 0.0
H2738 H 0.45749 0.90013 0.28289 0.0
H2739 H 0.42614 0.88827 0.28643 0.0
H2740 H 0.39101 0.84119 0.24863 0.0
H2741 H 0.4156 0.83925 0.23257 0.0
C2742 C 0.44941 0.86223 0.23995 0.0
C2743 C 0.46649 0.87537 0.24517 0.0
C2744 C 0.43517 0.86282 0.24987 0.0
C2745 C 0.4691 0.88884 0.26099 0.0
C2746 C 0.45504 0.88949 0.27095 0.0
C2747 C 0.42387 0.87762 0.27459 0.0
C2748 C 0.40678 0.86497 0.26861 0.0
C2749 C 0.43803 0.87667 0.2653 0.0
C2750 C 0.40404 0.85105 0.25365 0.0
C2751 C 0.4181 0.84999 0.24435 0.0
H2752 H 0.59527 0.46651 0.26086 0.0
H2753 H 0.58619 0.44259 0.19062 0.0
H2754 H 0.56068 0.4166 0.20612 0.0
H2755 H 0.54009 0.40132 0.23918 0.0
H2756 H 0.54875 0.42574 0.30901 0.0
H2757 H 0.57534 0.45084 0.29422 0.0
C2758 C 0.58785 0.45549 0.24906 0.0
C2759 C 0.59259 0.45645 0.22465 0.0
C2760 C 0.57308 0.44073 0.258 0.0
C2761 C 0.5827 0.4422 0.20944 0.0
C2762 C 0.56815 0.42733 0.2183 0.0
C2763 C 0.54795 0.41204 0.25121 0.0
C2764 C 0.54247 0.4117 0.27513 0.0
C2765 C 0.56308 0.42655 0.24247 0.0
C2766 C 0.55263 0.42578 0.29046 0.0
C2767 C 0.56785 0.44011 0.28204 0.0
H2768 H 0.12487 0.59408 0.26157 0.0
H2769 H 0.14351 0.58767 0.19249 0.0
H2770 H 0.14472 0.56264 0.20801 0.0
H2771 H 0.13951 0.54196 0.24072 0.0
H2772 H 0.12303 0.54986 0.31063 0.0
H2773 H 0.12214 0.57504 0.29518 0.0
C2774 C 0.12955 0.58748 0.24996 0.0
C2775 C 0.13396 0.59279 0.22578 0.0
C2776 C 0.13052 0.57327 0.25911 0.0
C2777 C 0.13966 0.58374 0.21101 0.0
C2778 C 0.14048 0.56947 0.21993 0.0
C2779 C 0.13603 0.54934 0.25277 0.0
C2780 C 0.13117 0.54381 0.27679 0.0
C2781 C 0.1358 0.56402 0.24389 0.0
C2782 C 0.12646 0.5535 0.29192 0.0
C2783 C 0.12606 0.568 0.28315 0.0
H2784 H 0.47396 0.89961 0.76252 0.0
H2785 H 0.44401 0.8456 0.7825 0.0
H2786 H 0.4182 0.84364 0.76375 0.0
H2787 H 0.40408 0.8574 0.74221 0.0
H2788 H 0.43424 0.91132 0.72165 0.0
H2789 H 0.45994 0.91325 0.74049 0.0
C2790 C 0.46174 0.88746 0.76295 0.0
C2791 C 0.46088 0.87279 0.77395 0.0
C2792 C 0.44699 0.88641 0.7521 0.0
C2793 C 0.44503 0.85704 0.77399 0.0
C2794 C 0.43027 0.85593 0.76335 0.0
C2795 C 0.41632 0.86952 0.74159 0.0
C2796 C 0.41719 0.88419 0.73056 0.0
C2797 C 0.4311 0.87053 0.75232 0.0
C2798 C 0.43312 0.89988 0.7303 0.0
C2799 C 0.44786 0.90098 0.74096 0.0
H2800 H 0.59133 0.44447 0.77533 0.0
H2801 H 0.57722 0.48075 0.74637 0.0
H2802 H 0.55161 0.45697 0.72734 0.0
H2803 H 0.53334 0.42596 0.71866 0.0
H2804 H 0.54682 0.38946 0.74867 0.0
H2805 H 0.57278 0.41327 0.76692 0.0
C2806 C 0.58269 0.44716 0.76472 0.0
C2807 C 0.58615 0.46435 0.76235 0.0
C2808 C 0.56795 0.4334 0.75384 0.0
C2809 C 0.57474 0.46761 0.74876 0.0
C2810 C 0.56014 0.45403 0.73775 0.0
C2811 C 0.54183 0.42315 0.72939 0.0
C2812 C 0.53806 0.40588 0.73219 0.0
C2813 C 0.55659 0.43688 0.74022 0.0
C2814 C 0.54948 0.4026 0.74582 0.0
C2815 C 0.56428 0.41622 0.75646 0.0
H2816 H 0.14306 0.58785 0.78586 0.0
H2817 H 0.11051 0.5893 0.72919 0.0
H2818 H 0.10973 0.5643 0.70978 0.0
H2819 H 0.1182 0.54198 0.70887 0.0
H2820 H 0.15053 0.54027 0.76566 0.0
H2821 H 0.15185 0.56567 0.78466 0.0
C2822 C 0.13594 0.58279 0.76914 0.0
C2823 C 0.12679 0.59039 0.75909 0.0
C2824 C 0.13557 0.56842 0.75801 0.0
C2825 C 0.11744 0.58354 0.73755 0.0
C2826 C 0.11707 0.5693 0.72634 0.0
C2827 C 0.12544 0.54709 0.7255 0.0
C2828 C 0.13424 0.5392 0.7358 0.0
C2829 C 0.126 0.56158 0.73647 0.0
C2830 C 0.14381 0.54619 0.75714 0.0
C2831 C 0.14448 0.56066 0.76813 0.0
H2832 H 0.59882 0.13715 0.76359 0.0
H2833 H 0.57347 0.11844 0.69473 0.0
H2834 H 0.54798 0.11903 0.70964 0.0
H2835 H 0.53234 0.12363 0.74276 0.0
H2836 H 0.55724 0.14131 0.81202 0.0
H2837 H 0.5833 0.14198 0.79657 0.0
C2838 C 0.58768 0.13306 0.75187 0.0
C2839 C 0.58812 0.12775 0.72805 0.0
C2840 C 0.57292 0.13314 0.76068 0.0
C2841 C 0.57365 0.12283 0.71302 0.0
C2842 C 0.55898 0.12303 0.72159 0.0
C2843 C 0.54355 0.12784 0.75437 0.0
C2844 C 0.54286 0.13242 0.7785 0.0
C2845 C 0.55844 0.12806 0.74543 0.0
C2846 C 0.5574 0.13757 0.79345 0.0
C2847 C 0.57231 0.13801 0.7846 0.0
H2848 H 0.42131 0.52846 0.75684 0.0
H2849 H 0.40186 0.55869 0.79155 0.0
H2850 H 0.42601 0.58538 0.77499 0.0
H2851 H 0.45299 0.6001 0.75142 0.0
H2852 H 0.47159 0.56956 0.71515 0.0
H2853 H 0.44762 0.54308 0.73191 0.0
C2854 C 0.42244 0.54092 0.76087 0.0
C2855 C 0.40991 0.54165 0.7755 0.0
C2856 C 0.43624 0.55615 0.75111 0.0
C2857 C 0.41133 0.55782 0.78025 0.0
C2858 C 0.42515 0.57307 0.77085 0.0
C2859 C 0.4517 0.58766 0.74686 0.0
C2860 C 0.46423 0.58693 0.73213 0.0
C2861 C 0.4377 0.57239 0.75627 0.0
C2862 C 0.46239 0.57062 0.7268 0.0
C2863 C 0.4486 0.55542 0.73625 0.0
H2864 H 0.87721 0.424 0.7953 0.0
H2865 H 0.85935 0.39478 0.72901 0.0
H2866 H 0.85826 0.4189 0.70978 0.0
H2867 H 0.86371 0.44886 0.71116 0.0
H2868 H 0.88195 0.47815 0.77734 0.0
H2869 H 0.88194 0.4536 0.797 0.0
C2870 C 0.87315 0.42293 0.77661 0.0
C2871 C 0.8684 0.40758 0.76365 0.0
C2872 C 0.87278 0.43694 0.76554 0.0
C2873 C 0.86288 0.40633 0.73955 0.0
C2874 C 0.86237 0.42018 0.72846 0.0
C2875 C 0.86748 0.4498 0.72996 0.0
C2876 C 0.87292 0.46538 0.74269 0.0
C2877 C 0.86743 0.43561 0.74121 0.0
C2878 C 0.87797 0.46642 0.76699 0.0
C2879 C 0.87788 0.45235 0.7783 0.0
loop_
_geom_bond_atom_site_label_1
_geom_bond_atom_site_label_2
_geom_bond_distance
_geom_bond_site_symmetry_2
_ccdc_geom_bond_type
Li0 N17 1.990 . S
Li0 O60 1.956 . S
Li0 O61 1.970 . S
Li0 O62 1.961 . S
Li1 N25 1.990 . S
Li1 O60 1.970 . S
Li1 O61 1.956 . S
Li1 O63 1.961 . S
Li2 N47 1.990 . S
Li2 O60 1.961 . S
Li2 O62 1.956 . S
Li2 O63 1.970 . S
Li3 N53 1.990 . S
Li3 O61 1.961 . S
Li3 O62 1.970 . S
Li3 O63 1.956 . S
C4 C6 1.348 . S
C4 C7 1.356 . S
C4 O60 1.325 . S
N5 C8 1.314 . S
N5 C9 1.279 . S
C6 C4 1.348 . S
C6 C8 1.353 . S
C6 H64 0.929 . S
C7 C4 1.356 . S
C7 C9 1.358 . S
C7 H65 0.930 . S
C8 N5 1.314 . S
C8 C6 1.353 . S
C8 H66 0.930 . S
C9 N5 1.279 . S
C9 C7 1.358 . S
C9 H67 0.930 . S
C10 C13 1.348 . S
C10 C14 1.356 . S
C10 O61 1.325 . S
C11 N12 1.279 . S
C11 C14 1.358 . S
C11 H68 0.930 . S
N12 C11 1.279 . S
N12 C15 1.314 . S
C13 C10 1.348 . S
C13 C15 1.353 . S
C13 H69 0.929 . S
C14 C10 1.356 . S
C14 C11 1.358 . S
C14 H70 0.930 . S
C15 N12 1.314 . S
C15 C13 1.353 . S
C15 H71 0.930 . S
C16 N17 1.314 . S
C16 C21 1.353 . S
C16 H22 0.930 . S
N17 Li0 1.990 . S
N17 C16 1.314 . S
N17 C19 1.279 . S
C18 C19 1.358 . S
C18 C20 1.356 . S
C18 H72 0.930 . S
C19 N17 1.279 . S
C19 C18 1.358 . S
C19 H23 0.930 . S
C20 C18 1.356 . S
C20 C21 1.348 . S
C21 C16 1.353 . S
C21 C20 1.348 . S
C21 H73 0.929 . S
H22 C16 0.930 . S
H23 C19 0.930 . S
C24 N25 1.314 . S
C24 C26 1.353 . S
C24 H30 0.930 . S
N25 Li1 1.990 . S
N25 C24 1.314 . S
N25 C28 1.279 . S
C26 C24 1.353 . S
C26 C29 1.348 . S
C26 H74 0.929 . S
C27 C28 1.358 . S
C27 C29 1.356 . S
C27 H75 0.930 . S
C28 N25 1.279 . S
C28 C27 1.358 . S
C28 H31 0.930 . S
C29 C26 1.348 . S
C29 C27 1.356 . S
H30 C24 0.930 . S
H31 C28 0.930 . S
C32 C34 1.348 . S
C32 C35 1.356 . S
C32 O62 1.325 . S
N33 C36 1.314 . S
N33 C37 1.279 . S
C34 C32 1.348 . S
C34 C36 1.353 . S
C34 H76 0.929 . S
C35 C32 1.356 . S
C35 C37 1.358 . S
C35 H77 0.930 . S
C36 N33 1.314 . S
C36 C34 1.353 . S
C36 H78 0.930 . S
C37 N33 1.279 . S
C37 C35 1.358 . S
C37 H79 0.930 . S
C38 C39 1.348 . S
C38 C40 1.356 . S
C38 O63 1.325 . S
C39 C38 1.348 . S
C39 C41 1.353 . S
C39 H80 0.929 . S
C40 C38 1.356 . S
C40 C42 1.358 . S
C40 H81 0.930 . S
C41 C39 1.353 . S
C41 N43 1.314 . S
C41 H82 0.930 . S
C42 C40 1.358 . S
C42 N43 1.279 . S
C42 H83 0.930 . S
N43 C41 1.314 . S
N43 C42 1.279 . S
C44 C46 1.353 . S
C44 N47 1.314 . S
C44 H50 0.930 . S
C45 N47 1.279 . S
C45 C48 1.358 . S
C45 H51 0.930 . S
C46 C44 1.353 . S
C46 C49 1.348 . S
C46 H84 0.929 . S
N47 Li2 1.990 . S
N47 C44 1.314 . S
N47 C45 1.279 . S
C48 C45 1.358 . S
C48 C49 1.356 . S
C48 H85 0.930 . S
C49 C46 1.348 . S
C49 C48 1.356 . S
H50 C44 0.930 . S
H51 C45 0.930 . S
C52 N53 1.314 . S
C52 C54 1.353 . S
C52 H58 0.930 . S
N53 Li3 1.990 . S
N53 C52 1.314 . S
N53 C56 1.279 . S
C54 C52 1.353 . S
C54 C57 1.348 . S
C54 H86 0.929 . S
C55 C56 1.358 . S
C55 C57 1.356 . S
C55 H87 0.930 . S
C56 N53 1.279 . S
C56 C55 1.358 . S
C56 H59 0.930 . S
C57 C54 1.348 . S
C57 C55 1.356 . S
H58 C52 0.930 . S
H59 C56 0.930 . S
O60 Li0 1.956 . S
O60 Li1 1.970 . S
O60 Li2 1.961 . S
O60 C4 1.325 . S
O61 Li0 1.970 . S
O61 Li1 1.956 . S
O61 Li3 1.961 . S
O61 C10 1.325 . S
O62 Li0 1.961 . S
O62 Li2 1.956 . S
O62 Li3 1.970 . S
O62 C32 1.325 . S
O63 Li1 1.961 . S
O63 Li2 1.970 . S
O63 Li3 1.956 . S
O63 C38 1.325 . S
H64 C6 0.929 . S
H65 C7 0.930 . S
H66 C8 0.930 . S
H67 C9 0.930 . S
H68 C11 0.930 . S
H69 C13 0.929 . S
H70 C14 0.930 . S
H71 C15 0.930 . S
H72 C18 0.930 . S
H73 C21 0.929 . S
H74 C26 0.929 . S
H75 C27 0.930 . S
H76 C34 0.929 . S
H77 C35 0.930 . S
H78 C36 0.930 . S
H79 C37 0.930 . S
H80 C39 0.929 . S
H81 C40 0.930 . S
H82 C41 0.930 . S
H83 C42 0.930 . S
H84 C46 0.929 . S
H85 C48 0.930 . S
H86 C54 0.929 . S
H87 C55 0.930 . S
Li88 N105 1.990 . S
Li88 O148 1.956 . S
Li88 O149 1.970 . S
Li88 O150 1.961 . S
Li89 N113 1.990 . S
Li89 O148 1.970 . S
Li89 O149 1.956 . S
Li89 O151 1.961 . S
Li90 N135 1.990 . S
Li90 O148 1.961 . S
Li90 O150 1.956 . S
Li90 O151 1.970 . S
Li91 N141 1.990 . S
Li91 O149 1.961 . S
Li91 O150 1.970 . S
Li91 O151 1.956 . S
C92 C94 1.348 . S
C92 C95 1.356 . S
C92 O148 1.325 . S
N93 C96 1.314 . S
N93 C97 1.279 . S
C94 C92 1.348 . S
C94 C96 1.353 . S
C94 H152 0.929 . S
C95 C92 1.356 . S
C95 C97 1.358 . S
C95 H153 0.930 . S
C96 N93 1.314 . S
C96 C94 1.353 . S
C96 H154 0.930 . S
C97 N93 1.279 . S
C97 C95 1.358 . S
C97 H155 0.930 . S
C98 C101 1.348 . S
C98 C102 1.356 . S
C98 O149 1.325 . S
C99 N100 1.279 . S
C99 C102 1.358 . S
C99 H156 0.930 . S
N100 C99 1.279 . S
N100 C103 1.314 . S
C101 C98 1.348 . S
C101 C103 1.353 . S
C101 H157 0.929 . S
C102 C98 1.356 . S
C102 C99 1.358 . S
C102 H158 0.930 . S
C103 N100 1.314 . S
C103 C101 1.353 . S
C103 H159 0.930 . S
C104 N105 1.314 . S
C104 C109 1.353 . S
C104 H110 0.930 . S
N105 Li88 1.990 . S
N105 C104 1.314 . S
N105 C107 1.279 . S
C106 C107 1.358 . S
C106 C108 1.356 . S
C106 H160 0.930 . S
C107 N105 1.279 . S
C107 C106 1.358 . S
C107 H111 0.930 . S
C108 C106 1.356 . S
C108 C109 1.348 . S
C109 C104 1.353 . S
C109 C108 1.348 . S
C109 H161 0.929 . S
H110 C104 0.930 . S
H111 C107 0.930 . S
C112 N113 1.314 . S
C112 C114 1.353 . S
C112 H118 0.930 . S
N113 Li89 1.990 . S
N113 C112 1.314 . S
N113 C116 1.279 . S
C114 C112 1.353 . S
C114 C117 1.348 . S
C114 H162 0.929 . S
C115 C116 1.358 . S
C115 C117 1.356 . S
C115 H163 0.930 . S
C116 N113 1.279 . S
C116 C115 1.358 . S
C116 H119 0.930 . S
C117 C114 1.348 . S
C117 C115 1.356 . S
H118 C112 0.930 . S
H119 C116 0.930 . S
C120 C122 1.348 . S
C120 C123 1.356 . S
C120 O150 1.325 . S
N121 C124 1.314 . S
N121 C125 1.279 . S
C122 C120 1.348 . S
C122 C124 1.353 . S
C122 H164 0.929 . S
C123 C120 1.356 . S
C123 C125 1.358 . S
C123 H165 0.930 . S
C124 N121 1.314 . S
C124 C122 1.353 . S
C124 H166 0.930 . S
C125 N121 1.279 . S
C125 C123 1.358 . S
C125 H167 0.930 . S
C126 C127 1.348 . S
C126 C128 1.356 . S
C126 O151 1.325 . S
C127 C126 1.348 . S
C127 C129 1.353 . S
C127 H168 0.929 . S
C128 C126 1.356 . S
C128 C130 1.358 . S
C128 H169 0.930 . S
C129 C127 1.353 . S
C129 N131 1.314 . S
C129 H170 0.930 . S
C130 C128 1.358 . S
C130 N131 1.279 . S
C130 H171 0.930 . S
N131 C129 1.314 . S
N131 C130 1.279 . S
C132 C134 1.353 . S
C132 N135 1.314 . S
C132 H138 0.930 . S
C133 N135 1.279 . S
C133 C136 1.358 . S
C133 H139 0.930 . S
C134 C132 1.353 . S
C134 C137 1.348 . S
C134 H172 0.929 . S
N135 Li90 1.990 . S
N135 C132 1.314 . S
N135 C133 1.279 . S
C136 C133 1.358 . S
C136 C137 1.356 . S
C136 H173 0.930 . S
C137 C134 1.348 . S
C137 C136 1.356 . S
H138 C132 0.930 . S
H139 C133 0.930 . S
C140 N141 1.314 . S
C140 C142 1.353 . S
C140 H146 0.930 . S
N141 Li91 1.990 . S
N141 C140 1.314 . S
N141 C144 1.279 . S
C142 C140 1.353 . S
C142 C145 1.348 . S
C142 H174 0.929 . S
C143 C144 1.358 . S
C143 C145 1.356 . S
C143 H175 0.930 . S
C144 N141 1.279 . S
C144 C143 1.358 . S
C144 H147 0.930 . S
C145 C142 1.348 . S
C145 C143 1.356 . S
H146 C140 0.930 . S
H147 C144 0.930 . S
O148 Li88 1.956 . S
O148 Li89 1.970 . S
O148 Li90 1.961 . S
O148 C92 1.325 . S
O149 Li88 1.970 . S
O149 Li89 1.956 . S
O149 Li91 1.961 . S
O149 C98 1.325 . S
O150 Li88 1.961 . S
O150 Li90 1.956 . S
O150 Li91 1.970 . S
O150 C120 1.325 . S
O151 Li89 1.961 . S
O151 Li90 1.970 . S
O151 Li91 1.956 . S
O151 C126 1.325 . S
H152 C94 0.929 . S
H153 C95 0.930 . S
H154 C96 0.930 . S
H155 C97 0.930 . S
H156 C99 0.930 . S
H157 C101 0.929 . S
H158 C102 0.930 . S
H159 C103 0.930 . S
H160 C106 0.930 . S
H161 C109 0.929 . S
H162 C114 0.929 . S
H163 C115 0.930 . S
H164 C122 0.929 . S
H165 C123 0.930 . S
H166 C124 0.930 . S
H167 C125 0.930 . S
H168 C127 0.929 . S
H169 C128 0.930 . S
H170 C129 0.930 . S
H171 C130 0.930 . S
H172 C134 0.929 . S
H173 C136 0.930 . S
H174 C142 0.929 . S
H175 C143 0.930 . S
Li176 N193 1.990 . S
Li176 O236 1.956 . S
Li176 O237 1.970 . S
Li176 O238 1.961 . S
Li177 N201 1.990 . S
Li177 O236 1.970 . S
Li177 O237 1.956 . S
Li177 O239 1.961 . S
Li178 N223 1.990 . S
Li178 O236 1.961 . S
Li178 O238 1.956 . S
Li178 O239 1.970 . S
Li179 N229 1.990 . S
Li179 O237 1.961 . S
Li179 O238 1.970 . S
Li179 O239 1.956 . S
C180 C182 1.348 . S
C180 C183 1.356 . S
C180 O236 1.325 . S
N181 C184 1.314 . S
N181 C185 1.279 . S
C182 C180 1.348 . S
C182 C184 1.353 . S
C182 H240 0.929 . S
C183 C180 1.356 . S
C183 C185 1.358 . S
C183 H241 0.930 . S
C184 N181 1.314 . S
C184 C182 1.353 . S
C184 H242 0.930 . S
C185 N181 1.279 . S
C185 C183 1.358 . S
C185 H243 0.930 . S
C186 C189 1.348 . S
C186 C190 1.356 . S
C186 O237 1.325 . S
C187 N188 1.279 . S
C187 C190 1.358 . S
C187 H244 0.930 . S
N188 C187 1.279 . S
N188 C191 1.314 . S
C189 C186 1.348 . S
C189 C191 1.353 . S
C189 H245 0.929 . S
C190 C186 1.356 . S
C190 C187 1.358 . S
C190 H246 0.930 . S
C191 N188 1.314 . S
C191 C189 1.353 . S
C191 H247 0.930 . S
C192 N193 1.314 . S
C192 C197 1.353 . S
C192 H198 0.930 . S
N193 Li176 1.990 . S
N193 C192 1.314 . S
N193 C195 1.279 . S
C194 C195 1.358 . S
C194 C196 1.356 . S
C194 H248 0.930 . S
C195 N193 1.279 . S
C195 C194 1.358 . S
C195 H199 0.930 . S
C196 C194 1.356 . S
C196 C197 1.348 . S
C197 C192 1.353 . S
C197 C196 1.348 . S
C197 H249 0.929 . S
H198 C192 0.930 . S
H199 C195 0.930 . S
C200 N201 1.314 . S
C200 C202 1.353 . S
C200 H206 0.930 . S
N201 Li177 1.990 . S
N201 C200 1.314 . S
N201 C204 1.279 . S
C202 C200 1.353 . S
C202 C205 1.348 . S
C202 H250 0.929 . S
C203 C204 1.358 . S
C203 C205 1.356 . S
C203 H251 0.930 . S
C204 N201 1.279 . S
C204 C203 1.358 . S
C204 H207 0.930 . S
C205 C202 1.348 . S
C205 C203 1.356 . S
H206 C200 0.930 . S
H207 C204 0.930 . S
C208 C210 1.348 . S
C208 C211 1.356 . S
C208 O238 1.325 . S
N209 C212 1.314 . S
N209 C213 1.279 . S
C210 C208 1.348 . S
C210 C212 1.353 . S
C210 H252 0.929 . S
C211 C208 1.356 . S
C211 C213 1.358 . S
C211 H253 0.930 . S
C212 N209 1.314 . S
C212 C210 1.353 . S
C212 H254 0.930 . S
C213 N209 1.279 . S
C213 C211 1.358 . S
C213 H255 0.930 . S
C214 C215 1.348 . S
C214 C216 1.356 . S
C214 O239 1.325 . S
C215 C214 1.348 . S
C215 C217 1.353 . S
C215 H256 0.929 . S
C216 C214 1.356 . S
C216 C218 1.358 . S
C216 H257 0.930 . S
C217 C215 1.353 . S
C217 N219 1.314 . S
C217 H258 0.930 . S
C218 C216 1.358 . S
C218 N219 1.279 . S
C218 H259 0.930 . S
N219 C217 1.314 . S
N219 C218 1.279 . S
C220 C222 1.353 . S
C220 N223 1.314 . S
C220 H226 0.930 . S
C221 N223 1.279 . S
C221 C224 1.358 . S
C221 H227 0.930 . S
C222 C220 1.353 . S
C222 C225 1.348 . S
C222 H260 0.929 . S
N223 Li178 1.990 . S
N223 C220 1.314 . S
N223 C221 1.279 . S
C224 C221 1.358 . S
C224 C225 1.356 . S
C224 H261 0.930 . S
C225 C222 1.348 . S
C225 C224 1.356 . S
H226 C220 0.930 . S
H227 C221 0.930 . S
C228 N229 1.314 . S
C228 C230 1.353 . S
C228 H234 0.930 . S
N229 Li179 1.990 . S
N229 C228 1.314 . S
N229 C232 1.279 . S
C230 C228 1.353 . S
C230 C233 1.348 . S
C230 H262 0.929 . S
C231 C232 1.358 . S
C231 C233 1.356 . S
C231 H263 0.930 . S
C232 N229 1.279 . S
C232 C231 1.358 . S
C232 H235 0.930 . S
C233 C230 1.348 . S
C233 C231 1.356 . S
H234 C228 0.930 . S
H235 C232 0.930 . S
O236 Li176 1.956 . S
O236 Li177 1.970 . S
O236 Li178 1.961 . S
O236 C180 1.325 . S
O237 Li176 1.970 . S
O237 Li177 1.956 . S
O237 Li179 1.961 . S
O237 C186 1.325 . S
O238 Li176 1.961 . S
O238 Li178 1.956 . S
O238 Li179 1.970 . S
O238 C208 1.325 . S
O239 Li177 1.961 . S
O239 Li178 1.970 . S
O239 Li179 1.956 . S
O239 C214 1.325 . S
H240 C182 0.929 . S
H241 C183 0.930 . S
H242 C184 0.930 . S
H243 C185 0.930 . S
H244 C187 0.930 . S
H245 C189 0.929 . S
H246 C190 0.930 . S
H247 C191 0.930 . S
H248 C194 0.930 . S
H249 C197 0.929 . S
H250 C202 0.929 . S
H251 C203 0.930 . S
H252 C210 0.929 . S
H253 C211 0.930 . S
H254 C212 0.930 . S
H255 C213 0.930 . S
H256 C215 0.929 . S
H257 C216 0.930 . S
H258 C217 0.930 . S
H259 C218 0.930 . S
H260 C222 0.929 . S
H261 C224 0.930 . S
H262 C230 0.929 . S
H263 C231 0.930 . S
Li264 N281 1.990 . S
Li264 O324 1.956 . S
Li264 O325 1.970 . S
Li264 O326 1.961 . S
Li265 N289 1.990 . S
Li265 O324 1.970 . S
Li265 O325 1.956 . S
Li265 O327 1.961 . S
Li266 N311 1.990 . S
Li266 O324 1.961 . S
Li266 O326 1.956 . S
Li266 O327 1.970 . S
Li267 N317 1.990 . S
Li267 O325 1.961 . S
Li267 O326 1.970 . S
Li267 O327 1.956 . S
C268 C270 1.348 . S
C268 C271 1.356 . S
C268 O324 1.325 . S
N269 C272 1.314 . S
N269 C273 1.279 . S
C270 C268 1.348 . S
C270 C272 1.353 . S
C270 H328 0.929 . S
C271 C268 1.356 . S
C271 C273 1.358 . S
C271 H329 0.930 . S
C272 N269 1.314 . S
C272 C270 1.353 . S
C272 H330 0.930 . S
C273 N269 1.279 . S
C273 C271 1.358 . S
C273 H331 0.930 . S
C274 C277 1.348 . S
C274 C278 1.356 . S
C274 O325 1.325 . S
C275 N276 1.279 . S
C275 C278 1.358 . S
C275 H332 0.930 . S
N276 C275 1.279 . S
N276 C279 1.314 . S
C277 C274 1.348 . S
C277 C279 1.353 . S
C277 H333 0.929 . S
C278 C274 1.356 . S
C278 C275 1.358 . S
C278 H334 0.930 . S
C279 N276 1.314 . S
C279 C277 1.353 . S
C279 H335 0.930 . S
C280 N281 1.314 . S
C280 C285 1.353 . S
C280 H286 0.930 . S
N281 Li264 1.990 . S
N281 C280 1.314 . S
N281 C283 1.279 . S
C282 C283 1.358 . S
C282 C284 1.356 . S
C282 H336 0.930 . S
C283 N281 1.279 . S
C283 C282 1.358 . S
C283 H287 0.930 . S
C284 C282 1.356 . S
C284 C285 1.348 . S
C285 C280 1.353 . S
C285 C284 1.348 . S
C285 H337 0.929 . S
H286 C280 0.930 . S
H287 C283 0.930 . S
C288 N289 1.314 . S
C288 C290 1.353 . S
C288 H294 0.930 . S
N289 Li265 1.990 . S
N289 C288 1.314 . S
N289 C292 1.279 . S
C290 C288 1.353 . S
C290 C293 1.348 . S
C290 H338 0.929 . S
C291 C292 1.358 . S
C291 C293 1.356 . S
C291 H339 0.930 . S
C292 N289 1.279 . S
C292 C291 1.358 . S
C292 H295 0.930 . S
C293 C290 1.348 . S
C293 C291 1.356 . S
H294 C288 0.930 . S
H295 C292 0.930 . S
C296 C298 1.348 . S
C296 C299 1.356 . S
C296 O326 1.325 . S
N297 C300 1.314 . S
N297 C301 1.279 . S
C298 C296 1.348 . S
C298 C300 1.353 . S
C298 H340 0.929 . S
C299 C296 1.356 . S
C299 C301 1.358 . S
C299 H341 0.930 . S
C300 N297 1.314 . S
C300 C298 1.353 . S
C300 H342 0.930 . S
C301 N297 1.279 . S
C301 C299 1.358 . S
C301 H343 0.930 . S
C302 C303 1.348 . S
C302 C304 1.356 . S
C302 O327 1.325 . S
C303 C302 1.348 . S
C303 C305 1.353 . S
C303 H344 0.929 . S
C304 C302 1.356 . S
C304 C306 1.358 . S
C304 H345 0.930 . S
C305 C303 1.353 . S
C305 N307 1.314 . S
C305 H346 0.930 . S
C306 C304 1.358 . S
C306 N307 1.279 . S
C306 H347 0.930 . S
N307 C305 1.314 . S
N307 C306 1.279 . S
C308 C310 1.353 . S
C308 N311 1.314 . S
C308 H314 0.930 . S
C309 N311 1.279 . S
C309 C312 1.358 . S
C309 H315 0.930 . S
C310 C308 1.353 . S
C310 C313 1.348 . S
C310 H348 0.929 . S
N311 Li266 1.990 . S
N311 C308 1.314 . S
N311 C309 1.279 . S
C312 C309 1.358 . S
C312 C313 1.356 . S
C312 H349 0.930 . S
C313 C310 1.348 . S
C313 C312 1.356 . S
H314 C308 0.930 . S
H315 C309 0.930 . S
C316 N317 1.314 . S
C316 C318 1.353 . S
C316 H322 0.930 . S
N317 Li267 1.990 . S
N317 C316 1.314 . S
N317 C320 1.279 . S
C318 C316 1.353 . S
C318 C321 1.348 . S
C318 H350 0.929 . S
C319 C320 1.358 . S
C319 C321 1.356 . S
C319 H351 0.930 . S
C320 N317 1.279 . S
C320 C319 1.358 . S
C320 H323 0.930 . S
C321 C318 1.348 . S
C321 C319 1.356 . S
H322 C316 0.930 . S
H323 C320 0.930 . S
O324 Li264 1.956 . S
O324 Li265 1.970 . S
O324 Li266 1.961 . S
O324 C268 1.325 . S
O325 Li264 1.970 . S
O325 Li265 1.956 . S
O325 Li267 1.961 . S
O325 C274 1.325 . S
O326 Li264 1.961 . S
O326 Li266 1.956 . S
O326 Li267 1.970 . S
O326 C296 1.325 . S
O327 Li265 1.961 . S
O327 Li266 1.970 . S
O327 Li267 1.956 . S
O327 C302 1.325 . S
H328 C270 0.929 . S
H329 C271 0.930 . S
H330 C272 0.930 . S
H331 C273 0.930 . S
H332 C275 0.930 . S
H333 C277 0.929 . S
H334 C278 0.930 . S
H335 C279 0.930 . S
H336 C282 0.930 . S
H337 C285 0.929 . S
H338 C290 0.929 . S
H339 C291 0.930 . S
H340 C298 0.929 . S
H341 C299 0.930 . S
H342 C300 0.930 . S
H343 C301 0.930 . S
H344 C303 0.929 . S
H345 C304 0.930 . S
H346 C305 0.930 . S
H347 C306 0.930 . S
H348 C310 0.929 . S
H349 C312 0.930 . S
H350 C318 0.929 . S
H351 C319 0.930 . S
Li352 N369 1.990 . S
Li352 O412 1.956 . S
Li352 O413 1.970 . S
Li352 O414 1.961 . S
Li353 N377 1.990 . S
Li353 O412 1.970 . S
Li353 O413 1.956 . S
Li353 O415 1.961 . S
Li354 N399 1.990 . S
Li354 O412 1.961 . S
Li354 O414 1.956 . S
Li354 O415 1.970 . S
Li355 N405 1.990 . S
Li355 O413 1.961 . S
Li355 O414 1.970 . S
Li355 O415 1.956 . S
C356 C358 1.348 . S
C356 C359 1.356 . S
C356 O412 1.325 . S
N357 C360 1.314 . S
N357 C361 1.279 . S
C358 C356 1.348 . S
C358 C360 1.353 . S
C358 H416 0.929 . S
C359 C356 1.356 . S
C359 C361 1.358 . S
C359 H417 0.930 . S
C360 N357 1.314 . S
C360 C358 1.353 . S
C360 H418 0.930 . S
C361 N357 1.279 . S
C361 C359 1.358 . S
C361 H419 0.930 . S
C362 C365 1.348 . S
C362 C366 1.356 . S
C362 O413 1.325 . S
C363 N364 1.279 . S
C363 C366 1.358 . S
C363 H420 0.930 . S
N364 C363 1.279 . S
N364 C367 1.314 . S
C365 C362 1.348 . S
C365 C367 1.353 . S
C365 H421 0.929 . S
C366 C362 1.356 . S
C366 C363 1.358 . S
C366 H422 0.930 . S
C367 N364 1.314 . S
C367 C365 1.353 . S
C367 H423 0.930 . S
C368 N369 1.314 . S
C368 C373 1.353 . S
C368 H374 0.930 . S
N369 Li352 1.990 . S
N369 C368 1.314 . S
N369 C371 1.279 . S
C370 C371 1.358 . S
C370 C372 1.356 . S
C370 H424 0.930 . S
C371 N369 1.279 . S
C371 C370 1.358 . S
C371 H375 0.930 . S
C372 C370 1.356 . S
C372 C373 1.348 . S
C373 C368 1.353 . S
C373 C372 1.348 . S
C373 H425 0.929 . S
H374 C368 0.930 . S
H375 C371 0.930 . S
C376 N377 1.314 . S
C376 C378 1.353 . S
C376 H382 0.930 . S
N377 Li353 1.990 . S
N377 C376 1.314 . S
N377 C380 1.279 . S
C378 C376 1.353 . S
C378 C381 1.348 . S
C378 H426 0.929 . S
C379 C380 1.358 . S
C379 C381 1.356 . S
C379 H427 0.930 . S
C380 N377 1.279 . S
C380 C379 1.358 . S
C380 H383 0.930 . S
C381 C378 1.348 . S
C381 C379 1.356 . S
H382 C376 0.930 . S
H383 C380 0.930 . S
C384 C386 1.348 . S
C384 C387 1.356 . S
C384 O414 1.325 . S
N385 C388 1.314 . S
N385 C389 1.279 . S
C386 C384 1.348 . S
C386 C388 1.353 . S
C386 H428 0.929 . S
C387 C384 1.356 . S
C387 C389 1.358 . S
C387 H429 0.930 . S
C388 N385 1.314 . S
C388 C386 1.353 . S
C388 H430 0.930 . S
C389 N385 1.279 . S
C389 C387 1.358 . S
C389 H431 0.930 . S
C390 C391 1.348 . S
C390 C392 1.356 . S
C390 O415 1.325 . S
C391 C390 1.348 . S
C391 C393 1.353 . S
C391 H432 0.929 . S
C392 C390 1.356 . S
C392 C394 1.358 . S
C392 H433 0.930 . S
C393 C391 1.353 . S
C393 N395 1.314 . S
C393 H434 0.930 . S
C394 C392 1.358 . S
C394 N395 1.279 . S
C394 H435 0.930 . S
N395 C393 1.314 . S
N395 C394 1.279 . S
C396 C398 1.353 . S
C396 N399 1.314 . S
C396 H402 0.930 . S
C397 N399 1.279 . S
C397 C400 1.358 . S
C397 H403 0.930 . S
C398 C396 1.353 . S
C398 C401 1.348 . S
C398 H436 0.929 . S
N399 Li354 1.990 . S
N399 C396 1.314 . S
N399 C397 1.279 . S
C400 C397 1.358 . S
C400 C401 1.356 . S
C400 H437 0.930 . S
C401 C398 1.348 . S
C401 C400 1.356 . S
H402 C396 0.930 . S
H403 C397 0.930 . S
C404 N405 1.314 . S
C404 C406 1.353 . S
C404 H410 0.930 . S
N405 Li355 1.990 . S
N405 C404 1.314 . S
N405 C408 1.279 . S
C406 C404 1.353 . S
C406 C409 1.348 . S
C406 H438 0.929 . S
C407 C408 1.358 . S
C407 C409 1.356 . S
C407 H439 0.930 . S
C408 N405 1.279 . S
C408 C407 1.358 . S
C408 H411 0.930 . S
C409 C406 1.348 . S
C409 C407 1.356 . S
H410 C404 0.930 . S
H411 C408 0.930 . S
O412 Li352 1.956 . S
O412 Li353 1.970 . S
O412 Li354 1.961 . S
O412 C356 1.325 . S
O413 Li352 1.970 . S
O413 Li353 1.956 . S
O413 Li355 1.961 . S
O413 C362 1.325 . S
O414 Li352 1.961 . S
O414 Li354 1.956 . S
O414 Li355 1.970 . S
O414 C384 1.325 . S
O415 Li353 1.961 . S
O415 Li354 1.970 . S
O415 Li355 1.956 . S
O415 C390 1.325 . S
H416 C358 0.929 . S
H417 C359 0.930 . S
H418 C360 0.930 . S
H419 C361 0.930 . S
H420 C363 0.930 . S
H421 C365 0.929 . S
H422 C366 0.930 . S
H423 C367 0.930 . S
H424 C370 0.930 . S
H425 C373 0.929 . S
H426 C378 0.929 . S
H427 C379 0.930 . S
H428 C386 0.929 . S
H429 C387 0.930 . S
H430 C388 0.930 . S
H431 C389 0.930 . S
H432 C391 0.929 . S
H433 C392 0.930 . S
H434 C393 0.930 . S
H435 C394 0.930 . S
H436 C398 0.929 . S
H437 C400 0.930 . S
H438 C406 0.929 . S
H439 C407 0.930 . S
Li440 N457 1.990 . S
Li440 O500 1.956 . S
Li440 O501 1.970 . S
Li440 O502 1.961 . S
Li441 N465 1.990 . S
Li441 O500 1.970 . S
Li441 O501 1.956 . S
Li441 O503 1.961 . S
Li442 N487 1.990 . S
Li442 O500 1.961 . S
Li442 O502 1.956 . S
Li442 O503 1.970 . S
Li443 N493 1.990 . S
Li443 O501 1.961 . S
Li443 O502 1.970 . S
Li443 O503 1.956 . S
C444 C446 1.348 . S
C444 C447 1.356 . S
C444 O500 1.325 . S
N445 C448 1.314 . S
N445 C449 1.279 . S
C446 C444 1.348 . S
C446 C448 1.353 . S
C446 H504 0.929 . S
C447 C444 1.356 . S
C447 C449 1.358 . S
C447 H505 0.930 . S
C448 N445 1.314 . S
C448 C446 1.353 . S
C448 H506 0.930 . S
C449 N445 1.279 . S
C449 C447 1.358 . S
C449 H507 0.930 . S
C450 C453 1.348 . S
C450 C454 1.356 . S
C450 O501 1.325 . S
C451 N452 1.279 . S
C451 C454 1.358 . S
C451 H508 0.930 . S
N452 C451 1.279 . S
N452 C455 1.314 . S
C453 C450 1.348 . S
C453 C455 1.353 . S
C453 H509 0.929 . S
C454 C450 1.356 . S
C454 C451 1.358 . S
C454 H510 0.930 . S
C455 N452 1.314 . S
C455 C453 1.353 . S
C455 H511 0.930 . S
C456 N457 1.314 . S
C456 C461 1.353 . S
C456 H462 0.930 . S
N457 Li440 1.990 . S
N457 C456 1.314 . S
N457 C459 1.279 . S
C458 C459 1.358 . S
C458 C460 1.356 . S
C458 H512 0.930 . S
C459 N457 1.279 . S
C459 C458 1.358 . S
C459 H463 0.930 . S
C460 C458 1.356 . S
C460 C461 1.348 . S
C461 C456 1.353 . S
C461 C460 1.348 . S
C461 H513 0.929 . S
H462 C456 0.930 . S
H463 C459 0.930 . S
C464 N465 1.314 . S
C464 C466 1.353 . S
C464 H470 0.930 . S
N465 Li441 1.990 . S
N465 C464 1.314 . S
N465 C468 1.279 . S
C466 C464 1.353 . S
C466 C469 1.348 . S
C466 H514 0.929 . S
C467 C468 1.358 . S
C467 C469 1.356 . S
C467 H515 0.930 . S
C468 N465 1.279 . S
C468 C467 1.358 . S
C468 H471 0.930 . S
C469 C466 1.348 . S
C469 C467 1.356 . S
H470 C464 0.930 . S
H471 C468 0.930 . S
C472 C474 1.348 . S
C472 C475 1.356 . S
C472 O502 1.325 . S
N473 C476 1.314 . S
N473 C477 1.279 . S
C474 C472 1.348 . S
C474 C476 1.353 . S
C474 H516 0.929 . S
C475 C472 1.356 . S
C475 C477 1.358 . S
C475 H517 0.930 . S
C476 N473 1.314 . S
C476 C474 1.353 . S
C476 H518 0.930 . S
C477 N473 1.279 . S
C477 C475 1.358 . S
C477 H519 0.930 . S
C478 C479 1.348 . S
C478 C480 1.356 . S
C478 O503 1.325 . S
C479 C478 1.348 . S
C479 C481 1.353 . S
C479 H520 0.929 . S
C480 C478 1.356 . S
C480 C482 1.358 . S
C480 H521 0.930 . S
C481 C479 1.353 . S
C481 N483 1.314 . S
C481 H522 0.930 . S
C482 C480 1.358 . S
C482 N483 1.279 . S
C482 H523 0.930 . S
N483 C481 1.314 . S
N483 C482 1.279 . S
C484 C486 1.353 . S
C484 N487 1.314 . S
C484 H490 0.930 . S
C485 N487 1.279 . S
C485 C488 1.358 . S
C485 H491 0.930 . S
C486 C484 1.353 . S
C486 C489 1.348 . S
C486 H524 0.929 . S
N487 Li442 1.990 . S
N487 C484 1.314 . S
N487 C485 1.279 . S
C488 C485 1.358 . S
C488 C489 1.356 . S
C488 H525 0.930 . S
C489 C486 1.348 . S
C489 C488 1.356 . S
H490 C484 0.930 . S
H491 C485 0.930 . S
C492 N493 1.314 . S
C492 C494 1.353 . S
C492 H498 0.930 . S
N493 Li443 1.990 . S
N493 C492 1.314 . S
N493 C496 1.279 . S
C494 C492 1.353 . S
C494 C497 1.348 . S
C494 H526 0.929 . S
C495 C496 1.358 . S
C495 C497 1.356 . S
C495 H527 0.930 . S
C496 N493 1.279 . S
C496 C495 1.358 . S
C496 H499 0.930 . S
C497 C494 1.348 . S
C497 C495 1.356 . S
H498 C492 0.930 . S
H499 C496 0.930 . S
O500 Li440 1.956 . S
O500 Li441 1.970 . S
O500 Li442 1.961 . S
O500 C444 1.325 . S
O501 Li440 1.970 . S
O501 Li441 1.956 . S
O501 Li443 1.961 . S
O501 C450 1.325 . S
O502 Li440 1.961 . S
O502 Li442 1.956 . S
O502 Li443 1.970 . S
O502 C472 1.325 . S
O503 Li441 1.961 . S
O503 Li442 1.970 . S
O503 Li443 1.956 . S
O503 C478 1.325 . S
H504 C446 0.929 . S
H505 C447 0.930 . S
H506 C448 0.930 . S
H507 C449 0.930 . S
H508 C451 0.930 . S
H509 C453 0.929 . S
H510 C454 0.930 . S
H511 C455 0.930 . S
H512 C458 0.930 . S
H513 C461 0.929 . S
H514 C466 0.929 . S
H515 C467 0.930 . S
H516 C474 0.929 . S
H517 C475 0.930 . S
H518 C476 0.930 . S
H519 C477 0.930 . S
H520 C479 0.929 . S
H521 C480 0.930 . S
H522 C481 0.930 . S
H523 C482 0.930 . S
H524 C486 0.929 . S
H525 C488 0.930 . S
H526 C494 0.929 . S
H527 C495 0.930 . S
Li528 N545 1.990 . S
Li528 O588 1.956 . S
Li528 O589 1.970 . S
Li528 O590 1.961 . S
Li529 N553 1.990 . S
Li529 O588 1.970 . S
Li529 O589 1.956 . S
Li529 O591 1.961 . S
Li530 N575 1.990 . S
Li530 O588 1.961 . S
Li530 O590 1.956 . S
Li530 O591 1.970 . S
Li531 N581 1.990 . S
Li531 O589 1.961 . S
Li531 O590 1.970 . S
Li531 O591 1.956 . S
C532 C534 1.348 . S
C532 C535 1.356 . S
C532 O588 1.325 . S
N533 C536 1.314 . S
N533 C537 1.279 . S
C534 C532 1.348 . S
C534 C536 1.353 . S
C534 H592 0.929 . S
C535 C532 1.356 . S
C535 C537 1.358 . S
C535 H593 0.930 . S
C536 N533 1.314 . S
C536 C534 1.353 . S
C536 H594 0.930 . S
C537 N533 1.279 . S
C537 C535 1.358 . S
C537 H595 0.930 . S
C538 C541 1.348 . S
C538 C542 1.356 . S
C538 O589 1.325 . S
C539 N540 1.279 . S
C539 C542 1.358 . S
C539 H596 0.930 . S
N540 C539 1.279 . S
N540 C543 1.314 . S
C541 C538 1.348 . S
C541 C543 1.353 . S
C541 H597 0.929 . S
C542 C538 1.356 . S
C542 C539 1.358 . S
C542 H598 0.930 . S
C543 N540 1.314 . S
C543 C541 1.353 . S
C543 H599 0.930 . S
C544 N545 1.314 . S
C544 C549 1.353 . S
C544 H550 0.930 . S
N545 Li528 1.990 . S
N545 C544 1.314 . S
N545 C547 1.279 . S
C546 C547 1.358 . S
C546 C548 1.356 . S
C546 H600 0.930 . S
C547 N545 1.279 . S
C547 C546 1.358 . S
C547 H551 0.930 . S
C548 C546 1.356 . S
C548 C549 1.348 . S
C549 C544 1.353 . S
C549 C548 1.348 . S
C549 H601 0.929 . S
H550 C544 0.930 . S
H551 C547 0.930 . S
C552 N553 1.314 . S
C552 C554 1.353 . S
C552 H558 0.930 . S
N553 Li529 1.990 . S
N553 C552 1.314 . S
N553 C556 1.279 . S
C554 C552 1.353 . S
C554 C557 1.348 . S
C554 H602 0.929 . S
C555 C556 1.358 . S
C555 C557 1.356 . S
C555 H603 0.930 . S
C556 N553 1.279 . S
C556 C555 1.358 . S
C556 H559 0.930 . S
C557 C554 1.348 . S
C557 C555 1.356 . S
H558 C552 0.930 . S
H559 C556 0.930 . S
C560 C562 1.348 . S
C560 C563 1.356 . S
C560 O590 1.325 . S
N561 C564 1.314 . S
N561 C565 1.279 . S
C562 C560 1.348 . S
C562 C564 1.353 . S
C562 H604 0.929 . S
C563 C560 1.356 . S
C563 C565 1.358 . S
C563 H605 0.930 . S
C564 N561 1.314 . S
C564 C562 1.353 . S
C564 H606 0.930 . S
C565 N561 1.279 . S
C565 C563 1.358 . S
C565 H607 0.930 . S
C566 C567 1.348 . S
C566 C568 1.356 . S
C566 O591 1.325 . S
C567 C566 1.348 . S
C567 C569 1.353 . S
C567 H608 0.929 . S
C568 C566 1.356 . S
C568 C570 1.358 . S
C568 H609 0.930 . S
C569 C567 1.353 . S
C569 N571 1.314 . S
C569 H610 0.930 . S
C570 C568 1.358 . S
C570 N571 1.279 . S
C570 H611 0.930 . S
N571 C569 1.314 . S
N571 C570 1.279 . S
C572 C574 1.353 . S
C572 N575 1.314 . S
C572 H578 0.930 . S
C573 N575 1.279 . S
C573 C576 1.358 . S
C573 H579 0.930 . S
C574 C572 1.353 . S
C574 C577 1.348 . S
C574 H612 0.929 . S
N575 Li530 1.990 . S
N575 C572 1.314 . S
N575 C573 1.279 . S
C576 C573 1.358 . S
C576 C577 1.356 . S
C576 H613 0.930 . S
C577 C574 1.348 . S
C577 C576 1.356 . S
H578 C572 0.930 . S
H579 C573 0.930 . S
C580 N581 1.314 . S
C580 C582 1.353 . S
C580 H586 0.930 . S
N581 Li531 1.990 . S
N581 C580 1.314 . S
N581 C584 1.279 . S
C582 C580 1.353 . S
C582 C585 1.348 . S
C582 H614 0.929 . S
C583 C584 1.358 . S
C583 C585 1.356 . S
C583 H615 0.930 . S
C584 N581 1.279 . S
C584 C583 1.358 . S
C584 H587 0.930 . S
C585 C582 1.348 . S
C585 C583 1.356 . S
H586 C580 0.930 . S
H587 C584 0.930 . S
O588 Li528 1.956 . S
O588 Li529 1.970 . S
O588 Li530 1.961 . S
O588 C532 1.325 . S
O589 Li528 1.970 . S
O589 Li529 1.956 . S
O589 Li531 1.961 . S
O589 C538 1.325 . S
O590 Li528 1.961 . S
O590 Li530 1.956 . S
O590 Li531 1.970 . S
O590 C560 1.325 . S
O591 Li529 1.961 . S
O591 Li530 1.970 . S
O591 Li531 1.956 . S
O591 C566 1.325 . S
H592 C534 0.929 . S
H593 C535 0.930 . S
H594 C536 0.930 . S
H595 C537 0.930 . S
H596 C539 0.930 . S
H597 C541 0.929 . S
H598 C542 0.930 . S
H599 C543 0.930 . S
H600 C546 0.930 . S
H601 C549 0.929 . S
H602 C554 0.929 . S
H603 C555 0.930 . S
H604 C562 0.929 . S
H605 C563 0.930 . S
H606 C564 0.930 . S
H607 C565 0.930 . S
H608 C567 0.929 . S
H609 C568 0.930 . S
H610 C569 0.930 . S
H611 C570 0.930 . S
H612 C574 0.929 . S
H613 C576 0.930 . S
H614 C582 0.929 . S
H615 C583 0.930 . S
Li616 N633 1.990 . S
Li616 O676 1.956 . S
Li616 O677 1.970 . S
Li616 O678 1.961 . S
Li617 N641 1.990 . S
Li617 O676 1.970 . S
Li617 O677 1.956 . S
Li617 O679 1.961 . S
Li618 N663 1.990 . S
Li618 O676 1.961 . S
Li618 O678 1.956 . S
Li618 O679 1.970 . S
Li619 N669 1.990 . S
Li619 O677 1.961 . S
Li619 O678 1.970 . S
Li619 O679 1.956 . S
C620 C622 1.348 . S
C620 C623 1.356 . S
C620 O676 1.325 . S
N621 C624 1.314 . S
N621 C625 1.279 . S
C622 C620 1.348 . S
C622 C624 1.353 . S
C622 H680 0.929 . S
C623 C620 1.356 . S
C623 C625 1.358 . S
C623 H681 0.930 . S
C624 N621 1.314 . S
C624 C622 1.353 . S
C624 H682 0.930 . S
C625 N621 1.279 . S
C625 C623 1.358 . S
C625 H683 0.930 . S
C626 C629 1.348 . S
C626 C630 1.356 . S
C626 O677 1.325 . S
C627 N628 1.279 . S
C627 C630 1.358 . S
C627 H684 0.930 . S
N628 C627 1.279 . S
N628 C631 1.314 . S
C629 C626 1.348 . S
C629 C631 1.353 . S
C629 H685 0.929 . S
C630 C626 1.356 . S
C630 C627 1.358 . S
C630 H686 0.930 . S
C631 N628 1.314 . S
C631 C629 1.353 . S
C631 H687 0.930 . S
C632 N633 1.314 . S
C632 C637 1.353 . S
C632 H638 0.930 . S
N633 Li616 1.990 . S
N633 C632 1.314 . S
N633 C635 1.279 . S
C634 C635 1.358 . S
C634 C636 1.356 . S
C634 H688 0.930 . S
C635 N633 1.279 . S
C635 C634 1.358 . S
C635 H639 0.930 . S
C636 C634 1.356 . S
C636 C637 1.348 . S
C637 C632 1.353 . S
C637 C636 1.348 . S
C637 H689 0.929 . S
H638 C632 0.930 . S
H639 C635 0.930 . S
C640 N641 1.314 . S
C640 C642 1.353 . S
C640 H646 0.930 . S
N641 Li617 1.990 . S
N641 C640 1.314 . S
N641 C644 1.279 . S
C642 C640 1.353 . S
C642 C645 1.348 . S
C642 H690 0.929 . S
C643 C644 1.358 . S
C643 C645 1.356 . S
C643 H691 0.930 . S
C644 N641 1.279 . S
C644 C643 1.358 . S
C644 H647 0.930 . S
C645 C642 1.348 . S
C645 C643 1.356 . S
H646 C640 0.930 . S
H647 C644 0.930 . S
C648 C650 1.348 . S
C648 C651 1.356 . S
C648 O678 1.325 . S
N649 C652 1.314 . S
N649 C653 1.279 . S
C650 C648 1.348 . S
C650 C652 1.353 . S
C650 H692 0.929 . S
C651 C648 1.356 . S
C651 C653 1.358 . S
C651 H693 0.930 . S
C652 N649 1.314 . S
C652 C650 1.353 . S
C652 H694 0.930 . S
C653 N649 1.279 . S
C653 C651 1.358 . S
C653 H695 0.930 . S
C654 C655 1.348 . S
C654 C656 1.356 . S
C654 O679 1.325 . S
C655 C654 1.348 . S
C655 C657 1.353 . S
C655 H696 0.929 . S
C656 C654 1.356 . S
C656 C658 1.358 . S
C656 H697 0.930 . S
C657 C655 1.353 . S
C657 N659 1.314 . S
C657 H698 0.930 . S
C658 C656 1.358 . S
C658 N659 1.279 . S
C658 H699 0.930 . S
N659 C657 1.314 . S
N659 C658 1.279 . S
C660 C662 1.353 . S
C660 N663 1.314 . S
C660 H666 0.930 . S
C661 N663 1.279 . S
C661 C664 1.358 . S
C661 H667 0.930 . S
C662 C660 1.353 . S
C662 C665 1.348 . S
C662 H700 0.929 . S
N663 Li618 1.990 . S
N663 C660 1.314 . S
N663 C661 1.279 . S
C664 C661 1.358 . S
C664 C665 1.356 . S
C664 H701 0.930 . S
C665 C662 1.348 . S
C665 C664 1.356 . S
H666 C660 0.930 . S
H667 C661 0.930 . S
C668 N669 1.314 . S
C668 C670 1.353 . S
C668 H674 0.930 . S
N669 Li619 1.990 . S
N669 C668 1.314 . S
N669 C672 1.279 . S
C670 C668 1.353 . S
C670 C673 1.348 . S
C670 H702 0.929 . S
C671 C672 1.358 . S
C671 C673 1.356 . S
C671 H703 0.930 . S
C672 N669 1.279 . S
C672 C671 1.358 . S
C672 H675 0.930 . S
C673 C670 1.348 . S
C673 C671 1.356 . S
H674 C668 0.930 . S
H675 C672 0.930 . S
O676 Li616 1.956 . S
O676 Li617 1.970 . S
O676 Li618 1.961 . S
O676 C620 1.325 . S
O677 Li616 1.970 . S
O677 Li617 1.956 . S
O677 Li619 1.961 . S
O677 C626 1.325 . S
O678 Li616 1.961 . S
O678 Li618 1.956 . S
O678 Li619 1.970 . S
O678 C648 1.325 . S
O679 Li617 1.961 . S
O679 Li618 1.970 . S
O679 Li619 1.956 . S
O679 C654 1.325 . S
H680 C622 0.929 . S
H681 C623 0.930 . S
H682 C624 0.930 . S
H683 C625 0.930 . S
H684 C627 0.930 . S
H685 C629 0.929 . S
H686 C630 0.930 . S
H687 C631 0.930 . S
H688 C634 0.930 . S
H689 C637 0.929 . S
H690 C642 0.929 . S
H691 C643 0.930 . S
H692 C650 0.929 . S
H693 C651 0.930 . S
H694 C652 0.930 . S
H695 C653 0.930 . S
H696 C655 0.929 . S
H697 C656 0.930 . S
H698 C657 0.930 . S
H699 C658 0.930 . S
H700 C662 0.929 . S
H701 C664 0.930 . S
H702 C670 0.929 . S
H703 C671 0.930 . S
Li704 N721 1.990 . S
Li704 O764 1.956 . S
Li704 O765 1.970 . S
Li704 O766 1.961 . S
Li705 N729 1.990 . S
Li705 O764 1.970 . S
Li705 O765 1.956 . S
Li705 O767 1.961 . S
Li706 N751 1.990 . S
Li706 O764 1.961 . S
Li706 O766 1.956 . S
Li706 O767 1.970 . S
Li707 N757 1.990 . S
Li707 O765 1.961 . S
Li707 O766 1.970 . S
Li707 O767 1.956 . S
C708 C710 1.348 . S
C708 C711 1.356 . S
C708 O764 1.325 . S
N709 C712 1.314 . S
N709 C713 1.279 . S
C710 C708 1.348 . S
C710 C712 1.353 . S
C710 H768 0.929 . S
C711 C708 1.356 . S
C711 C713 1.358 . S
C711 H769 0.930 . S
C712 N709 1.314 . S
C712 C710 1.353 . S
C712 H770 0.930 . S
C713 N709 1.279 . S
C713 C711 1.358 . S
C713 H771 0.930 . S
C714 C717 1.348 . S
C714 C718 1.356 . S
C714 O765 1.325 . S
C715 N716 1.279 . S
C715 C718 1.358 . S
C715 H772 0.930 . S
N716 C715 1.279 . S
N716 C719 1.314 . S
C717 C714 1.348 . S
C717 C719 1.353 . S
C717 H773 0.929 . S
C718 C714 1.356 . S
C718 C715 1.358 . S
C718 H774 0.930 . S
C719 N716 1.314 . S
C719 C717 1.353 . S
C719 H775 0.930 . S
C720 N721 1.314 . S
C720 C725 1.353 . S
C720 H726 0.930 . S
N721 Li704 1.990 . S
N721 C720 1.314 . S
N721 C723 1.279 . S
C722 C723 1.358 . S
C722 C724 1.356 . S
C722 H776 0.930 . S
C723 N721 1.279 . S
C723 C722 1.358 . S
C723 H727 0.930 . S
C724 C722 1.356 . S
C724 C725 1.348 . S
C725 C720 1.353 . S
C725 C724 1.348 . S
C725 H777 0.929 . S
H726 C720 0.930 . S
H727 C723 0.930 . S
C728 N729 1.314 . S
C728 C730 1.353 . S
C728 H734 0.930 . S
N729 Li705 1.990 . S
N729 C728 1.314 . S
N729 C732 1.279 . S
C730 C728 1.353 . S
C730 C733 1.348 . S
C730 H778 0.929 . S
C731 C732 1.358 . S
C731 C733 1.356 . S
C731 H779 0.930 . S
C732 N729 1.279 . S
C732 C731 1.358 . S
C732 H735 0.930 . S
C733 C730 1.348 . S
C733 C731 1.356 . S
H734 C728 0.930 . S
H735 C732 0.930 . S
C736 C738 1.348 . S
C736 C739 1.356 . S
C736 O766 1.325 . S
N737 C740 1.314 . S
N737 C741 1.279 . S
C738 C736 1.348 . S
C738 C740 1.353 . S
C738 H780 0.929 . S
C739 C736 1.356 . S
C739 C741 1.358 . S
C739 H781 0.930 . S
C740 N737 1.314 . S
C740 C738 1.353 . S
C740 H782 0.930 . S
C741 N737 1.279 . S
C741 C739 1.358 . S
C741 H783 0.930 . S
C742 C743 1.348 . S
C742 C744 1.356 . S
C742 O767 1.325 . S
C743 C742 1.348 . S
C743 C745 1.353 . S
C743 H784 0.929 . S
C744 C742 1.356 . S
C744 C746 1.358 . S
C744 H785 0.930 . S
C745 C743 1.353 . S
C745 N747 1.314 . S
C745 H786 0.930 . S
C746 C744 1.358 . S
C746 N747 1.279 . S
C746 H787 0.930 . S
N747 C745 1.314 . S
N747 C746 1.279 . S
C748 C750 1.353 . S
C748 N751 1.314 . S
C748 H754 0.930 . S
C749 N751 1.279 . S
C749 C752 1.358 . S
C749 H755 0.930 . S
C750 C748 1.353 . S
C750 C753 1.348 . S
C750 H788 0.929 . S
N751 Li706 1.990 . S
N751 C748 1.314 . S
N751 C749 1.279 . S
C752 C749 1.358 . S
C752 C753 1.356 . S
C752 H789 0.930 . S
C753 C750 1.348 . S
C753 C752 1.356 . S
H754 C748 0.930 . S
H755 C749 0.930 . S
C756 N757 1.314 . S
C756 C758 1.353 . S
C756 H762 0.930 . S
N757 Li707 1.990 . S
N757 C756 1.314 . S
N757 C760 1.279 . S
C758 C756 1.353 . S
C758 C761 1.348 . S
C758 H790 0.929 . S
C759 C760 1.358 . S
C759 C761 1.356 . S
C759 H791 0.930 . S
C760 N757 1.279 . S
C760 C759 1.358 . S
C760 H763 0.930 . S
C761 C758 1.348 . S
C761 C759 1.356 . S
H762 C756 0.930 . S
H763 C760 0.930 . S
O764 Li704 1.956 . S
O764 Li705 1.970 . S
O764 Li706 1.961 . S
O764 C708 1.325 . S
O765 Li704 1.970 . S
O765 Li705 1.956 . S
O765 Li707 1.961 . S
O765 C714 1.325 . S
O766 Li704 1.961 . S
O766 Li706 1.956 . S
O766 Li707 1.970 . S
O766 C736 1.325 . S
O767 Li705 1.961 . S
O767 Li706 1.970 . S
O767 Li707 1.956 . S
O767 C742 1.325 . S
H768 C710 0.929 . S
H769 C711 0.930 . S
H770 C712 0.930 . S
H771 C713 0.930 . S
H772 C715 0.930 . S
H773 C717 0.929 . S
H774 C718 0.930 . S
H775 C719 0.930 . S
H776 C722 0.930 . S
H777 C725 0.929 . S
H778 C730 0.929 . S
H779 C731 0.930 . S
H780 C738 0.929 . S
H781 C739 0.930 . S
H782 C740 0.930 . S
H783 C741 0.930 . S
H784 C743 0.929 . S
H785 C744 0.930 . S
H786 C745 0.930 . S
H787 C746 0.930 . S
H788 C750 0.929 . S
H789 C752 0.930 . S
H790 C758 0.929 . S
H791 C759 0.930 . S
Li792 N809 1.990 . S
Li792 O852 1.956 . S
Li792 O853 1.970 . S
Li792 O854 1.961 . S
Li793 N817 1.990 . S
Li793 O852 1.970 . S
Li793 O853 1.956 . S
Li793 O855 1.961 . S
Li794 N839 1.990 . S
Li794 O852 1.961 . S
Li794 O854 1.956 . S
Li794 O855 1.970 . S
Li795 N845 1.990 . S
Li795 O853 1.961 . S
Li795 O854 1.970 . S
Li795 O855 1.956 . S
C796 C798 1.348 . S
C796 C799 1.356 . S
C796 O852 1.325 . S
N797 C800 1.314 . S
N797 C801 1.279 . S
C798 C796 1.348 . S
C798 C800 1.353 . S
C798 H856 0.929 . S
C799 C796 1.356 . S
C799 C801 1.358 . S
C799 H857 0.930 . S
C800 N797 1.314 . S
C800 C798 1.353 . S
C800 H858 0.930 . S
C801 N797 1.279 . S
C801 C799 1.358 . S
C801 H859 0.930 . S
C802 C805 1.348 . S
C802 C806 1.356 . S
C802 O853 1.325 . S
C803 N804 1.279 . S
C803 C806 1.358 . S
C803 H860 0.930 . S
N804 C803 1.279 . S
N804 C807 1.314 . S
C805 C802 1.348 . S
C805 C807 1.353 . S
C805 H861 0.929 . S
C806 C802 1.356 . S
C806 C803 1.358 . S
C806 H862 0.930 . S
C807 N804 1.314 . S
C807 C805 1.353 . S
C807 H863 0.930 . S
C808 N809 1.314 . S
C808 C813 1.353 . S
C808 H814 0.930 . S
N809 Li792 1.990 . S
N809 C808 1.314 . S
N809 C811 1.279 . S
C810 C811 1.358 . S
C810 C812 1.356 . S
C810 H864 0.930 . S
C811 N809 1.279 . S
C811 C810 1.358 . S
C811 H815 0.930 . S
C812 C810 1.356 . S
C812 C813 1.348 . S
C813 C808 1.353 . S
C813 C812 1.348 . S
C813 H865 0.929 . S
H814 C808 0.930 . S
H815 C811 0.930 . S
C816 N817 1.314 . S
C816 C818 1.353 . S
C816 H822 0.930 . S
N817 Li793 1.990 . S
N817 C816 1.314 . S
N817 C820 1.279 . S
C818 C816 1.353 . S
C818 C821 1.348 . S
C818 H866 0.929 . S
C819 C820 1.358 . S
C819 C821 1.356 . S
C819 H867 0.930 . S
C820 N817 1.279 . S
C820 C819 1.358 . S
C820 H823 0.930 . S
C821 C818 1.348 . S
C821 C819 1.356 . S
H822 C816 0.930 . S
H823 C820 0.930 . S
C824 C826 1.348 . S
C824 C827 1.356 . S
C824 O854 1.325 . S
N825 C828 1.314 . S
N825 C829 1.279 . S
C826 C824 1.348 . S
C826 C828 1.353 . S
C826 H868 0.929 . S
C827 C824 1.356 . S
C827 C829 1.358 . S
C827 H869 0.930 . S
C828 N825 1.314 . S
C828 C826 1.353 . S
C828 H870 0.930 . S
C829 N825 1.279 . S
C829 C827 1.358 . S
C829 H871 0.930 . S
C830 C831 1.348 . S
C830 C832 1.356 . S
C830 O855 1.325 . S
C831 C830 1.348 . S
C831 C833 1.353 . S
C831 H872 0.929 . S
C832 C830 1.356 . S
C832 C834 1.358 . S
C832 H873 0.930 . S
C833 C831 1.353 . S
C833 N835 1.314 . S
C833 H874 0.930 . S
C834 C832 1.358 . S
C834 N835 1.279 . S
C834 H875 0.930 . S
N835 C833 1.314 . S
N835 C834 1.279 . S
C836 C838 1.353 . S
C836 N839 1.314 . S
C836 H842 0.930 . S
C837 N839 1.279 . S
C837 C840 1.358 . S
C837 H843 0.930 . S
C838 C836 1.353 . S
C838 C841 1.348 . S
C838 H876 0.929 . S
N839 Li794 1.990 . S
N839 C836 1.314 . S
N839 C837 1.279 . S
C840 C837 1.358 . S
C840 C841 1.356 . S
C840 H877 0.930 . S
C841 C838 1.348 . S
C841 C840 1.356 . S
H842 C836 0.930 . S
H843 C837 0.930 . S
C844 N845 1.314 . S
C844 C846 1.353 . S
C844 H850 0.930 . S
N845 Li795 1.990 . S
N845 C844 1.314 . S
N845 C848 1.279 . S
C846 C844 1.353 . S
C846 C849 1.348 . S
C846 H878 0.929 . S
C847 C848 1.358 . S
C847 C849 1.356 . S
C847 H879 0.930 . S
C848 N845 1.279 . S
C848 C847 1.358 . S
C848 H851 0.930 . S
C849 C846 1.348 . S
C849 C847 1.356 . S
H850 C844 0.930 . S
H851 C848 0.930 . S
O852 Li792 1.956 . S
O852 Li793 1.970 . S
O852 Li794 1.961 . S
O852 C796 1.325 . S
O853 Li792 1.970 . S
O853 Li793 1.956 . S
O853 Li795 1.961 . S
O853 C802 1.325 . S
O854 Li792 1.961 . S
O854 Li794 1.956 . S
O854 Li795 1.970 . S
O854 C824 1.325 . S
O855 Li793 1.961 . S
O855 Li794 1.970 . S
O855 Li795 1.956 . S
O855 C830 1.325 . S
H856 C798 0.929 . S
H857 C799 0.930 . S
H858 C800 0.930 . S
H859 C801 0.930 . S
H860 C803 0.930 . S
H861 C805 0.929 . S
H862 C806 0.930 . S
H863 C807 0.930 . S
H864 C810 0.930 . S
H865 C813 0.929 . S
H866 C818 0.929 . S
H867 C819 0.930 . S
H868 C826 0.929 . S
H869 C827 0.930 . S
H870 C828 0.930 . S
H871 C829 0.930 . S
H872 C831 0.929 . S
H873 C832 0.930 . S
H874 C833 0.930 . S
H875 C834 0.930 . S
H876 C838 0.929 . S
H877 C840 0.930 . S
H878 C846 0.929 . S
H879 C847 0.930 . S
Li880 N897 1.990 . S
Li880 O940 1.956 . S
Li880 O941 1.970 . S
Li880 O942 1.961 . S
Li881 N905 1.990 . S
Li881 O940 1.970 . S
Li881 O941 1.956 . S
Li881 O943 1.961 . S
Li882 N927 1.990 . S
Li882 O940 1.961 . S
Li882 O942 1.956 . S
Li882 O943 1.970 . S
Li883 N933 1.990 . S
Li883 O941 1.961 . S
Li883 O942 1.970 . S
Li883 O943 1.956 . S
C884 C886 1.348 . S
C884 C887 1.356 . S
C884 O940 1.325 . S
N885 C888 1.314 . S
N885 C889 1.279 . S
C886 C884 1.348 . S
C886 C888 1.353 . S
C886 H944 0.929 . S
C887 C884 1.356 . S
C887 C889 1.358 . S
C887 H945 0.930 . S
C888 N885 1.314 . S
C888 C886 1.353 . S
C888 H946 0.930 . S
C889 N885 1.279 . S
C889 C887 1.358 . S
C889 H947 0.930 . S
C890 C893 1.348 . S
C890 C894 1.356 . S
C890 O941 1.325 . S
C891 N892 1.279 . S
C891 C894 1.358 . S
C891 H948 0.930 . S
N892 C891 1.279 . S
N892 C895 1.314 . S
C893 C890 1.348 . S
C893 C895 1.353 . S
C893 H949 0.929 . S
C894 C890 1.356 . S
C894 C891 1.358 . S
C894 H950 0.930 . S
C895 N892 1.314 . S
C895 C893 1.353 . S
C895 H951 0.930 . S
C896 N897 1.314 . S
C896 C901 1.353 . S
C896 H902 0.930 . S
N897 Li880 1.990 . S
N897 C896 1.314 . S
N897 C899 1.279 . S
C898 C899 1.358 . S
C898 C900 1.356 . S
C898 H952 0.930 . S
C899 N897 1.279 . S
C899 C898 1.358 . S
C899 H903 0.930 . S
C900 C898 1.356 . S
C900 C901 1.348 . S
C901 C896 1.353 . S
C901 C900 1.348 . S
C901 H953 0.929 . S
H902 C896 0.930 . S
H903 C899 0.930 . S
C904 N905 1.314 . S
C904 C906 1.353 . S
C904 H910 0.930 . S
N905 Li881 1.990 . S
N905 C904 1.314 . S
N905 C908 1.279 . S
C906 C904 1.353 . S
C906 C909 1.348 . S
C906 H954 0.929 . S
C907 C908 1.358 . S
C907 C909 1.356 . S
C907 H955 0.930 . S
C908 N905 1.279 . S
C908 C907 1.358 . S
C908 H911 0.930 . S
C909 C906 1.348 . S
C909 C907 1.356 . S
H910 C904 0.930 . S
H911 C908 0.930 . S
C912 C914 1.348 . S
C912 C915 1.356 . S
C912 O942 1.325 . S
N913 C916 1.314 . S
N913 C917 1.279 . S
C914 C912 1.348 . S
C914 C916 1.353 . S
C914 H956 0.929 . S
C915 C912 1.356 . S
C915 C917 1.358 . S
C915 H957 0.930 . S
C916 N913 1.314 . S
C916 C914 1.353 . S
C916 H958 0.930 . S
C917 N913 1.279 . S
C917 C915 1.358 . S
C917 H959 0.930 . S
C918 C919 1.348 . S
C918 C920 1.356 . S
C918 O943 1.325 . S
C919 C918 1.348 . S
C919 C921 1.353 . S
C919 H960 0.929 . S
C920 C918 1.356 . S
C920 C922 1.358 . S
C920 H961 0.930 . S
C921 C919 1.353 . S
C921 N923 1.314 . S
C921 H962 0.930 . S
C922 C920 1.358 . S
C922 N923 1.279 . S
C922 H963 0.930 . S
N923 C921 1.314 . S
N923 C922 1.279 . S
C924 C926 1.353 . S
C924 N927 1.314 . S
C924 H930 0.930 . S
C925 N927 1.279 . S
C925 C928 1.358 . S
C925 H931 0.930 . S
C926 C924 1.353 . S
C926 C929 1.348 . S
C926 H964 0.929 . S
N927 Li882 1.990 . S
N927 C924 1.314 . S
N927 C925 1.279 . S
C928 C925 1.358 . S
C928 C929 1.356 . S
C928 H965 0.930 . S
C929 C926 1.348 . S
C929 C928 1.356 . S
H930 C924 0.930 . S
H931 C925 0.930 . S
C932 N933 1.314 . S
C932 C934 1.353 . S
C932 H938 0.930 . S
N933 Li883 1.990 . S
N933 C932 1.314 . S
N933 C936 1.279 . S
C934 C932 1.353 . S
C934 C937 1.348 . S
C934 H966 0.929 . S
C935 C936 1.358 . S
C935 C937 1.356 . S
C935 H967 0.930 . S
C936 N933 1.279 . S
C936 C935 1.358 . S
C936 H939 0.930 . S
C937 C934 1.348 . S
C937 C935 1.356 . S
H938 C932 0.930 . S
H939 C936 0.930 . S
O940 Li880 1.956 . S
O940 Li881 1.970 . S
O940 Li882 1.961 . S
O940 C884 1.325 . S
O941 Li880 1.970 . S
O941 Li881 1.956 . S
O941 Li883 1.961 . S
O941 C890 1.325 . S
O942 Li880 1.961 . S
O942 Li882 1.956 . S
O942 Li883 1.970 . S
O942 C912 1.325 . S
O943 Li881 1.961 . S
O943 Li882 1.970 . S
O943 Li883 1.956 . S
O943 C918 1.325 . S
H944 C886 0.929 . S
H945 C887 0.930 . S
H946 C888 0.930 . S
H947 C889 0.930 . S
H948 C891 0.930 . S
H949 C893 0.929 . S
H950 C894 0.930 . S
H951 C895 0.930 . S
H952 C898 0.930 . S
H953 C901 0.929 . S
H954 C906 0.929 . S
H955 C907 0.930 . S
H956 C914 0.929 . S
H957 C915 0.930 . S
H958 C916 0.930 . S
H959 C917 0.930 . S
H960 C919 0.929 . S
H961 C920 0.930 . S
H962 C921 0.930 . S
H963 C922 0.930 . S
H964 C926 0.929 . S
H965 C928 0.930 . S
H966 C934 0.929 . S
H967 C935 0.930 . S
Li968 N985 1.990 . S
Li968 O1028 1.956 . S
Li968 O1029 1.970 . S
Li968 O1030 1.961 . S
Li969 N993 1.990 . S
Li969 O1028 1.970 . S
Li969 O1029 1.956 . S
Li969 O1031 1.961 . S
Li970 N1015 1.990 . S
Li970 O1028 1.961 . S
Li970 O1030 1.956 . S
Li970 O1031 1.970 . S
Li971 N1021 1.990 . S
Li971 O1029 1.961 . S
Li971 O1030 1.970 . S
Li971 O1031 1.956 . S
C972 C974 1.348 . S
C972 C975 1.356 . S
C972 O1028 1.325 . S
N973 C976 1.314 . S
N973 C977 1.279 . S
C974 C972 1.348 . S
C974 C976 1.353 . S
C974 H1032 0.929 . S
C975 C972 1.356 . S
C975 C977 1.358 . S
C975 H1033 0.930 . S
C976 N973 1.314 . S
C976 C974 1.353 . S
C976 H1034 0.930 . S
C977 N973 1.279 . S
C977 C975 1.358 . S
C977 H1035 0.930 . S
C978 C981 1.348 . S
C978 C982 1.356 . S
C978 O1029 1.325 . S
C979 N980 1.279 . S
C979 C982 1.358 . S
C979 H1036 0.930 . S
N980 C979 1.279 . S
N980 C983 1.314 . S
C981 C978 1.348 . S
C981 C983 1.353 . S
C981 H1037 0.929 . S
C982 C978 1.356 . S
C982 C979 1.358 . S
C982 H1038 0.930 . S
C983 N980 1.314 . S
C983 C981 1.353 . S
C983 H1039 0.930 . S
C984 N985 1.314 . S
C984 C989 1.353 . S
C984 H990 0.930 . S
N985 Li968 1.990 . S
N985 C984 1.314 . S
N985 C987 1.279 . S
C986 C987 1.358 . S
C986 C988 1.356 . S
C986 H1040 0.930 . S
C987 N985 1.279 . S
C987 C986 1.358 . S
C987 H991 0.930 . S
C988 C986 1.356 . S
C988 C989 1.348 . S
C989 C984 1.353 . S
C989 C988 1.348 . S
C989 H1041 0.929 . S
H990 C984 0.930 . S
H991 C987 0.930 . S
C992 N993 1.314 . S
C992 C994 1.353 . S
C992 H998 0.930 . S
N993 Li969 1.990 . S
N993 C992 1.314 . S
N993 C996 1.279 . S
C994 C992 1.353 . S
C994 C997 1.348 . S
C994 H1042 0.929 . S
C995 C996 1.358 . S
C995 C997 1.356 . S
C995 H1043 0.930 . S
C996 N993 1.279 . S
C996 C995 1.358 . S
C996 H999 0.930 . S
C997 C994 1.348 . S
C997 C995 1.356 . S
H998 C992 0.930 . S
H999 C996 0.930 . S
C1000 C1002 1.348 . S
C1000 C1003 1.356 . S
C1000 O1030 1.325 . S
N1001 C1004 1.314 . S
N1001 C1005 1.279 . S
C1002 C1000 1.348 . S
C1002 C1004 1.353 . S
C1002 H1044 0.929 . S
C1003 C1000 1.356 . S
C1003 C1005 1.358 . S
C1003 H1045 0.930 . S
C1004 N1001 1.314 . S
C1004 C1002 1.353 . S
C1004 H1046 0.930 . S
C1005 N1001 1.279 . S
C1005 C1003 1.358 . S
C1005 H1047 0.930 . S
C1006 C1007 1.348 . S
C1006 C1008 1.356 . S
C1006 O1031 1.325 . S
C1007 C1006 1.348 . S
C1007 C1009 1.353 . S
C1007 H1048 0.929 . S
C1008 C1006 1.356 . S
C1008 C1010 1.358 . S
C1008 H1049 0.930 . S
C1009 C1007 1.353 . S
C1009 N1011 1.314 . S
C1009 H1050 0.930 . S
C1010 C1008 1.358 . S
C1010 N1011 1.279 . S
C1010 H1051 0.930 . S
N1011 C1009 1.314 . S
N1011 C1010 1.279 . S
C1012 C1014 1.353 . S
C1012 N1015 1.314 . S
C1012 H1018 0.930 . S
C1013 N1015 1.279 . S
C1013 C1016 1.358 . S
C1013 H1019 0.930 . S
C1014 C1012 1.353 . S
C1014 C1017 1.348 . S
C1014 H1052 0.929 . S
N1015 Li970 1.990 . S
N1015 C1012 1.314 . S
N1015 C1013 1.279 . S
C1016 C1013 1.358 . S
C1016 C1017 1.356 . S
C1016 H1053 0.930 . S
C1017 C1014 1.348 . S
C1017 C1016 1.356 . S
H1018 C1012 0.930 . S
H1019 C1013 0.930 . S
C1020 N1021 1.314 . S
C1020 C1022 1.353 . S
C1020 H1026 0.930 . S
N1021 Li971 1.990 . S
N1021 C1020 1.314 . S
N1021 C1024 1.279 . S
C1022 C1020 1.353 . S
C1022 C1025 1.348 . S
C1022 H1054 0.929 . S
C1023 C1024 1.358 . S
C1023 C1025 1.356 . S
C1023 H1055 0.930 . S
C1024 N1021 1.279 . S
C1024 C1023 1.358 . S
C1024 H1027 0.930 . S
C1025 C1022 1.348 . S
C1025 C1023 1.356 . S
H1026 C1020 0.930 . S
H1027 C1024 0.930 . S
O1028 Li968 1.956 . S
O1028 Li969 1.970 . S
O1028 Li970 1.961 . S
O1028 C972 1.325 . S
O1029 Li968 1.970 . S
O1029 Li969 1.956 . S
O1029 Li971 1.961 . S
O1029 C978 1.325 . S
O1030 Li968 1.961 . S
O1030 Li970 1.956 . S
O1030 Li971 1.970 . S
O1030 C1000 1.325 . S
O1031 Li969 1.961 . S
O1031 Li970 1.970 . S
O1031 Li971 1.956 . S
O1031 C1006 1.325 . S
H1032 C974 0.929 . S
H1033 C975 0.930 . S
H1034 C976 0.930 . S
H1035 C977 0.930 . S
H1036 C979 0.930 . S
H1037 C981 0.929 . S
H1038 C982 0.930 . S
H1039 C983 0.930 . S
H1040 C986 0.930 . S
H1041 C989 0.929 . S
H1042 C994 0.929 . S
H1043 C995 0.930 . S
H1044 C1002 0.929 . S
H1045 C1003 0.930 . S
H1046 C1004 0.930 . S
H1047 C1005 0.930 . S
H1048 C1007 0.929 . S
H1049 C1008 0.930 . S
H1050 C1009 0.930 . S
H1051 C1010 0.930 . S
H1052 C1014 0.929 . S
H1053 C1016 0.930 . S
H1054 C1022 0.929 . S
H1055 C1023 0.930 . S
Li1056 N1073 1.990 . S
Li1056 O1116 1.956 . S
Li1056 O1117 1.970 . S
Li1056 O1118 1.961 . S
Li1057 N1081 1.990 . S
Li1057 O1116 1.970 . S
Li1057 O1117 1.956 . S
Li1057 O1119 1.961 . S
Li1058 N1103 1.990 . S
Li1058 O1116 1.961 . S
Li1058 O1118 1.956 . S
Li1058 O1119 1.970 . S
Li1059 N1109 1.990 . S
Li1059 O1117 1.961 . S
Li1059 O1118 1.970 . S
Li1059 O1119 1.956 . S
C1060 C1062 1.348 . S
C1060 C1063 1.356 . S
C1060 O1116 1.325 . S
N1061 C1064 1.314 . S
N1061 C1065 1.279 . S
C1062 C1060 1.348 . S
C1062 C1064 1.353 . S
C1062 H1120 0.929 . S
C1063 C1060 1.356 . S
C1063 C1065 1.358 . S
C1063 H1121 0.930 . S
C1064 N1061 1.314 . S
C1064 C1062 1.353 . S
C1064 H1122 0.930 . S
C1065 N1061 1.279 . S
C1065 C1063 1.358 . S
C1065 H1123 0.930 . S
C1066 C1069 1.348 . S
C1066 C1070 1.356 . S
C1066 O1117 1.325 . S
C1067 N1068 1.279 . S
C1067 C1070 1.358 . S
C1067 H1124 0.930 . S
N1068 C1067 1.279 . S
N1068 C1071 1.314 . S
C1069 C1066 1.348 . S
C1069 C1071 1.353 . S
C1069 H1125 0.929 . S
C1070 C1066 1.356 . S
C1070 C1067 1.358 . S
C1070 H1126 0.930 . S
C1071 N1068 1.314 . S
C1071 C1069 1.353 . S
C1071 H1127 0.930 . S
C1072 N1073 1.314 . S
C1072 C1077 1.353 . S
C1072 H1078 0.930 . S
N1073 Li1056 1.990 . S
N1073 C1072 1.314 . S
N1073 C1075 1.279 . S
C1074 C1075 1.358 . S
C1074 C1076 1.356 . S
C1074 H1128 0.930 . S
C1075 N1073 1.279 . S
C1075 C1074 1.358 . S
C1075 H1079 0.930 . S
C1076 C1074 1.356 . S
C1076 C1077 1.348 . S
C1077 C1072 1.353 . S
C1077 C1076 1.348 . S
C1077 H1129 0.929 . S
H1078 C1072 0.930 . S
H1079 C1075 0.930 . S
C1080 N1081 1.314 . S
C1080 C1082 1.353 . S
C1080 H1086 0.930 . S
N1081 Li1057 1.990 . S
N1081 C1080 1.314 . S
N1081 C1084 1.279 . S
C1082 C1080 1.353 . S
C1082 C1085 1.348 . S
C1082 H1130 0.929 . S
C1083 C1084 1.358 . S
C1083 C1085 1.356 . S
C1083 H1131 0.930 . S
C1084 N1081 1.279 . S
C1084 C1083 1.358 . S
C1084 H1087 0.930 . S
C1085 C1082 1.348 . S
C1085 C1083 1.356 . S
H1086 C1080 0.930 . S
H1087 C1084 0.930 . S
C1088 C1090 1.348 . S
C1088 C1091 1.356 . S
C1088 O1118 1.325 . S
N1089 C1092 1.314 . S
N1089 C1093 1.279 . S
C1090 C1088 1.348 . S
C1090 C1092 1.353 . S
C1090 H1132 0.929 . S
C1091 C1088 1.356 . S
C1091 C1093 1.358 . S
C1091 H1133 0.930 . S
C1092 N1089 1.314 . S
C1092 C1090 1.353 . S
C1092 H1134 0.930 . S
C1093 N1089 1.279 . S
C1093 C1091 1.358 . S
C1093 H1135 0.930 . S
C1094 C1095 1.348 . S
C1094 C1096 1.356 . S
C1094 O1119 1.325 . S
C1095 C1094 1.348 . S
C1095 C1097 1.353 . S
C1095 H1136 0.929 . S
C1096 C1094 1.356 . S
C1096 C1098 1.358 . S
C1096 H1137 0.930 . S
C1097 C1095 1.353 . S
C1097 N1099 1.314 . S
C1097 H1138 0.930 . S
C1098 C1096 1.358 . S
C1098 N1099 1.279 . S
C1098 H1139 0.930 . S
N1099 C1097 1.314 . S
N1099 C1098 1.279 . S
C1100 C1102 1.353 . S
C1100 N1103 1.314 . S
C1100 H1106 0.930 . S
C1101 N1103 1.279 . S
C1101 C1104 1.358 . S
C1101 H1107 0.930 . S
C1102 C1100 1.353 . S
C1102 C1105 1.348 . S
C1102 H1140 0.929 . S
N1103 Li1058 1.990 . S
N1103 C1100 1.314 . S
N1103 C1101 1.279 . S
C1104 C1101 1.358 . S
C1104 C1105 1.356 . S
C1104 H1141 0.930 . S
C1105 C1102 1.348 . S
C1105 C1104 1.356 . S
H1106 C1100 0.930 . S
H1107 C1101 0.930 . S
C1108 N1109 1.314 . S
C1108 C1110 1.353 . S
C1108 H1114 0.930 . S
N1109 Li1059 1.990 . S
N1109 C1108 1.314 . S
N1109 C1112 1.279 . S
C1110 C1108 1.353 . S
C1110 C1113 1.348 . S
C1110 H1142 0.929 . S
C1111 C1112 1.358 . S
C1111 C1113 1.356 . S
C1111 H1143 0.930 . S
C1112 N1109 1.279 . S
C1112 C1111 1.358 . S
C1112 H1115 0.930 . S
C1113 C1110 1.348 . S
C1113 C1111 1.356 . S
H1114 C1108 0.930 . S
H1115 C1112 0.930 . S
O1116 Li1056 1.956 . S
O1116 Li1057 1.970 . S
O1116 Li1058 1.961 . S
O1116 C1060 1.325 . S
O1117 Li1056 1.970 . S
O1117 Li1057 1.956 . S
O1117 Li1059 1.961 . S
O1117 C1066 1.325 . S
O1118 Li1056 1.961 . S
O1118 Li1058 1.956 . S
O1118 Li1059 1.970 . S
O1118 C1088 1.325 . S
O1119 Li1057 1.961 . S
O1119 Li1058 1.970 . S
O1119 Li1059 1.956 . S
O1119 C1094 1.325 . S
H1120 C1062 0.929 . S
H1121 C1063 0.930 . S
H1122 C1064 0.930 . S
H1123 C1065 0.930 . S
H1124 C1067 0.930 . S
H1125 C1069 0.929 . S
H1126 C1070 0.930 . S
H1127 C1071 0.930 . S
H1128 C1074 0.930 . S
H1129 C1077 0.929 . S
H1130 C1082 0.929 . S
H1131 C1083 0.930 . S
H1132 C1090 0.929 . S
H1133 C1091 0.930 . S
H1134 C1092 0.930 . S
H1135 C1093 0.930 . S
H1136 C1095 0.929 . S
H1137 C1096 0.930 . S
H1138 C1097 0.930 . S
H1139 C1098 0.930 . S
H1140 C1102 0.929 . S
H1141 C1104 0.930 . S
H1142 C1110 0.929 . S
H1143 C1111 0.930 . S
Li1144 N1161 1.990 . S
Li1144 O1204 1.956 . S
Li1144 O1205 1.970 . S
Li1144 O1206 1.961 . S
Li1145 N1169 1.990 . S
Li1145 O1204 1.970 . S
Li1145 O1205 1.956 . S
Li1145 O1207 1.961 . S
Li1146 N1191 1.990 . S
Li1146 O1204 1.961 . S
Li1146 O1206 1.956 . S
Li1146 O1207 1.970 . S
Li1147 N1197 1.990 . S
Li1147 O1205 1.961 . S
Li1147 O1206 1.970 . S
Li1147 O1207 1.956 . S
C1148 C1150 1.348 . S
C1148 C1151 1.356 . S
C1148 O1204 1.325 . S
N1149 C1152 1.314 . S
N1149 C1153 1.279 . S
C1150 C1148 1.348 . S
C1150 C1152 1.353 . S
C1150 H1208 0.929 . S
C1151 C1148 1.356 . S
C1151 C1153 1.358 . S
C1151 H1209 0.930 . S
C1152 N1149 1.314 . S
C1152 C1150 1.353 . S
C1152 H1210 0.930 . S
C1153 N1149 1.279 . S
C1153 C1151 1.358 . S
C1153 H1211 0.930 . S
C1154 C1157 1.348 . S
C1154 C1158 1.356 . S
C1154 O1205 1.325 . S
C1155 N1156 1.279 . S
C1155 C1158 1.358 . S
C1155 H1212 0.930 . S
N1156 C1155 1.279 . S
N1156 C1159 1.314 . S
C1157 C1154 1.348 . S
C1157 C1159 1.353 . S
C1157 H1213 0.929 . S
C1158 C1154 1.356 . S
C1158 C1155 1.358 . S
C1158 H1214 0.930 . S
C1159 N1156 1.314 . S
C1159 C1157 1.353 . S
C1159 H1215 0.930 . S
C1160 N1161 1.314 . S
C1160 C1165 1.353 . S
C1160 H1166 0.930 . S
N1161 Li1144 1.990 . S
N1161 C1160 1.314 . S
N1161 C1163 1.279 . S
C1162 C1163 1.358 . S
C1162 C1164 1.356 . S
C1162 H1216 0.930 . S
C1163 N1161 1.279 . S
C1163 C1162 1.358 . S
C1163 H1167 0.930 . S
C1164 C1162 1.356 . S
C1164 C1165 1.348 . S
C1165 C1160 1.353 . S
C1165 C1164 1.348 . S
C1165 H1217 0.929 . S
H1166 C1160 0.930 . S
H1167 C1163 0.930 . S
C1168 N1169 1.314 . S
C1168 C1170 1.353 . S
C1168 H1174 0.930 . S
N1169 Li1145 1.990 . S
N1169 C1168 1.314 . S
N1169 C1172 1.279 . S
C1170 C1168 1.353 . S
C1170 C1173 1.348 . S
C1170 H1218 0.929 . S
C1171 C1172 1.358 . S
C1171 C1173 1.356 . S
C1171 H1219 0.930 . S
C1172 N1169 1.279 . S
C1172 C1171 1.358 . S
C1172 H1175 0.930 . S
C1173 C1170 1.348 . S
C1173 C1171 1.356 . S
H1174 C1168 0.930 . S
H1175 C1172 0.930 . S
C1176 C1178 1.348 . S
C1176 C1179 1.356 . S
C1176 O1206 1.325 . S
N1177 C1180 1.314 . S
N1177 C1181 1.279 . S
C1178 C1176 1.348 . S
C1178 C1180 1.353 . S
C1178 H1220 0.929 . S
C1179 C1176 1.356 . S
C1179 C1181 1.358 . S
C1179 H1221 0.930 . S
C1180 N1177 1.314 . S
C1180 C1178 1.353 . S
C1180 H1222 0.930 . S
C1181 N1177 1.279 . S
C1181 C1179 1.358 . S
C1181 H1223 0.930 . S
C1182 C1183 1.348 . S
C1182 C1184 1.356 . S
C1182 O1207 1.325 . S
C1183 C1182 1.348 . S
C1183 C1185 1.353 . S
C1183 H1224 0.929 . S
C1184 C1182 1.356 . S
C1184 C1186 1.358 . S
C1184 H1225 0.930 . S
C1185 C1183 1.353 . S
C1185 N1187 1.314 . S
C1185 H1226 0.930 . S
C1186 C1184 1.358 . S
C1186 N1187 1.279 . S
C1186 H1227 0.930 . S
N1187 C1185 1.314 . S
N1187 C1186 1.279 . S
C1188 C1190 1.353 . S
C1188 N1191 1.314 . S
C1188 H1194 0.930 . S
C1189 N1191 1.279 . S
C1189 C1192 1.358 . S
C1189 H1195 0.930 . S
C1190 C1188 1.353 . S
C1190 C1193 1.348 . S
C1190 H1228 0.929 . S
N1191 Li1146 1.990 . S
N1191 C1188 1.314 . S
N1191 C1189 1.279 . S
C1192 C1189 1.358 . S
C1192 C1193 1.356 . S
C1192 H1229 0.930 . S
C1193 C1190 1.348 . S
C1193 C1192 1.356 . S
H1194 C1188 0.930 . S
H1195 C1189 0.930 . S
C1196 N1197 1.314 . S
C1196 C1198 1.353 . S
C1196 H1202 0.930 . S
N1197 Li1147 1.990 . S
N1197 C1196 1.314 . S
N1197 C1200 1.279 . S
C1198 C1196 1.353 . S
C1198 C1201 1.348 . S
C1198 H1230 0.929 . S
C1199 C1200 1.358 . S
C1199 C1201 1.356 . S
C1199 H1231 0.930 . S
C1200 N1197 1.279 . S
C1200 C1199 1.358 . S
C1200 H1203 0.930 . S
C1201 C1198 1.348 . S
C1201 C1199 1.356 . S
H1202 C1196 0.930 . S
H1203 C1200 0.930 . S
O1204 Li1144 1.956 . S
O1204 Li1145 1.970 . S
O1204 Li1146 1.961 . S
O1204 C1148 1.325 . S
O1205 Li1144 1.970 . S
O1205 Li1145 1.956 . S
O1205 Li1147 1.961 . S
O1205 C1154 1.325 . S
O1206 Li1144 1.961 . S
O1206 Li1146 1.956 . S
O1206 Li1147 1.970 . S
O1206 C1176 1.325 . S
O1207 Li1145 1.961 . S
O1207 Li1146 1.970 . S
O1207 Li1147 1.956 . S
O1207 C1182 1.325 . S
H1208 C1150 0.929 . S
H1209 C1151 0.930 . S
H1210 C1152 0.930 . S
H1211 C1153 0.930 . S
H1212 C1155 0.930 . S
H1213 C1157 0.929 . S
H1214 C1158 0.930 . S
H1215 C1159 0.930 . S
H1216 C1162 0.930 . S
H1217 C1165 0.929 . S
H1218 C1170 0.929 . S
H1219 C1171 0.930 . S
H1220 C1178 0.929 . S
H1221 C1179 0.930 . S
H1222 C1180 0.930 . S
H1223 C1181 0.930 . S
H1224 C1183 0.929 . S
H1225 C1184 0.930 . S
H1226 C1185 0.930 . S
H1227 C1186 0.930 . S
H1228 C1190 0.929 . S
H1229 C1192 0.930 . S
H1230 C1198 0.929 . S
H1231 C1199 0.930 . S
Li1232 N1249 1.990 . S
Li1232 O1292 1.956 . S
Li1232 O1293 1.970 . S
Li1232 O1294 1.961 . S
Li1233 N1257 1.990 . S
Li1233 O1292 1.970 . S
Li1233 O1293 1.956 . S
Li1233 O1295 1.961 . S
Li1234 N1279 1.990 . S
Li1234 O1292 1.961 . S
Li1234 O1294 1.956 . S
Li1234 O1295 1.970 . S
Li1235 N1285 1.990 . S
Li1235 O1293 1.961 . S
Li1235 O1294 1.970 . S
Li1235 O1295 1.956 . S
C1236 C1238 1.348 . S
C1236 C1239 1.356 . S
C1236 O1292 1.325 . S
N1237 C1240 1.314 . S
N1237 C1241 1.279 . S
C1238 C1236 1.348 . S
C1238 C1240 1.353 . S
C1238 H1296 0.929 . S
C1239 C1236 1.356 . S
C1239 C1241 1.358 . S
C1239 H1297 0.930 . S
C1240 N1237 1.314 . S
C1240 C1238 1.353 . S
C1240 H1298 0.930 . S
C1241 N1237 1.279 . S
C1241 C1239 1.358 . S
C1241 H1299 0.930 . S
C1242 C1245 1.348 . S
C1242 C1246 1.356 . S
C1242 O1293 1.325 . S
C1243 N1244 1.279 . S
C1243 C1246 1.358 . S
C1243 H1300 0.930 . S
N1244 C1243 1.279 . S
N1244 C1247 1.314 . S
C1245 C1242 1.348 . S
C1245 C1247 1.353 . S
C1245 H1301 0.929 . S
C1246 C1242 1.356 . S
C1246 C1243 1.358 . S
C1246 H1302 0.930 . S
C1247 N1244 1.314 . S
C1247 C1245 1.353 . S
C1247 H1303 0.930 . S
C1248 N1249 1.314 . S
C1248 C1253 1.353 . S
C1248 H1254 0.930 . S
N1249 Li1232 1.990 . S
N1249 C1248 1.314 . S
N1249 C1251 1.279 . S
C1250 C1251 1.358 . S
C1250 C1252 1.356 . S
C1250 H1304 0.930 . S
C1251 N1249 1.279 . S
C1251 C1250 1.358 . S
C1251 H1255 0.930 . S
C1252 C1250 1.356 . S
C1252 C1253 1.348 . S
C1253 C1248 1.353 . S
C1253 C1252 1.348 . S
C1253 H1305 0.929 . S
H1254 C1248 0.930 . S
H1255 C1251 0.930 . S
C1256 N1257 1.314 . S
C1256 C1258 1.353 . S
C1256 H1262 0.930 . S
N1257 Li1233 1.990 . S
N1257 C1256 1.314 . S
N1257 C1260 1.279 . S
C1258 C1256 1.353 . S
C1258 C1261 1.348 . S
C1258 H1306 0.929 . S
C1259 C1260 1.358 . S
C1259 C1261 1.356 . S
C1259 H1307 0.930 . S
C1260 N1257 1.279 . S
C1260 C1259 1.358 . S
C1260 H1263 0.930 . S
C1261 C1258 1.348 . S
C1261 C1259 1.356 . S
H1262 C1256 0.930 . S
H1263 C1260 0.930 . S
C1264 C1266 1.348 . S
C1264 C1267 1.356 . S
C1264 O1294 1.325 . S
N1265 C1268 1.314 . S
N1265 C1269 1.279 . S
C1266 C1264 1.348 . S
C1266 C1268 1.353 . S
C1266 H1308 0.929 . S
C1267 C1264 1.356 . S
C1267 C1269 1.358 . S
C1267 H1309 0.930 . S
C1268 N1265 1.314 . S
C1268 C1266 1.353 . S
C1268 H1310 0.930 . S
C1269 N1265 1.279 . S
C1269 C1267 1.358 . S
C1269 H1311 0.930 . S
C1270 C1271 1.348 . S
C1270 C1272 1.356 . S
C1270 O1295 1.325 . S
C1271 C1270 1.348 . S
C1271 C1273 1.353 . S
C1271 H1312 0.929 . S
C1272 C1270 1.356 . S
C1272 C1274 1.358 . S
C1272 H1313 0.930 . S
C1273 C1271 1.353 . S
C1273 N1275 1.314 . S
C1273 H1314 0.930 . S
C1274 C1272 1.358 . S
C1274 N1275 1.279 . S
C1274 H1315 0.930 . S
N1275 C1273 1.314 . S
N1275 C1274 1.279 . S
C1276 C1278 1.353 . S
C1276 N1279 1.314 . S
C1276 H1282 0.930 . S
C1277 N1279 1.279 . S
C1277 C1280 1.358 . S
C1277 H1283 0.930 . S
C1278 C1276 1.353 . S
C1278 C1281 1.348 . S
C1278 H1316 0.929 . S
N1279 Li1234 1.990 . S
N1279 C1276 1.314 . S
N1279 C1277 1.279 . S
C1280 C1277 1.358 . S
C1280 C1281 1.356 . S
C1280 H1317 0.930 . S
C1281 C1278 1.348 . S
C1281 C1280 1.356 . S
H1282 C1276 0.930 . S
H1283 C1277 0.930 . S
C1284 N1285 1.314 . S
C1284 C1286 1.353 . S
C1284 H1290 0.930 . S
N1285 Li1235 1.990 . S
N1285 C1284 1.314 . S
N1285 C1288 1.279 . S
C1286 C1284 1.353 . S
C1286 C1289 1.348 . S
C1286 H1318 0.929 . S
C1287 C1288 1.358 . S
C1287 C1289 1.356 . S
C1287 H1319 0.930 . S
C1288 N1285 1.279 . S
C1288 C1287 1.358 . S
C1288 H1291 0.930 . S
C1289 C1286 1.348 . S
C1289 C1287 1.356 . S
H1290 C1284 0.930 . S
H1291 C1288 0.930 . S
O1292 Li1232 1.956 . S
O1292 Li1233 1.970 . S
O1292 Li1234 1.961 . S
O1292 C1236 1.325 . S
O1293 Li1232 1.970 . S
O1293 Li1233 1.956 . S
O1293 Li1235 1.961 . S
O1293 C1242 1.325 . S
O1294 Li1232 1.961 . S
O1294 Li1234 1.956 . S
O1294 Li1235 1.970 . S
O1294 C1264 1.325 . S
O1295 Li1233 1.961 . S
O1295 Li1234 1.970 . S
O1295 Li1235 1.956 . S
O1295 C1270 1.325 . S
H1296 C1238 0.929 . S
H1297 C1239 0.930 . S
H1298 C1240 0.930 . S
H1299 C1241 0.930 . S
H1300 C1243 0.930 . S
H1301 C1245 0.929 . S
H1302 C1246 0.930 . S
H1303 C1247 0.930 . S
H1304 C1250 0.930 . S
H1305 C1253 0.929 . S
H1306 C1258 0.929 . S
H1307 C1259 0.930 . S
H1308 C1266 0.929 . S
H1309 C1267 0.930 . S
H1310 C1268 0.930 . S
H1311 C1269 0.930 . S
H1312 C1271 0.929 . S
H1313 C1272 0.930 . S
H1314 C1273 0.930 . S
H1315 C1274 0.930 . S
H1316 C1278 0.929 . S
H1317 C1280 0.930 . S
H1318 C1286 0.929 . S
H1319 C1287 0.930 . S
Li1320 N1337 1.990 . S
Li1320 O1380 1.956 . S
Li1320 O1381 1.970 . S
Li1320 O1382 1.961 . S
Li1321 N1345 1.990 . S
Li1321 O1380 1.970 . S
Li1321 O1381 1.956 . S
Li1321 O1383 1.961 . S
Li1322 N1367 1.990 . S
Li1322 O1380 1.961 . S
Li1322 O1382 1.956 . S
Li1322 O1383 1.970 . S
Li1323 N1373 1.990 . S
Li1323 O1381 1.961 . S
Li1323 O1382 1.970 . S
Li1323 O1383 1.956 . S
C1324 C1326 1.348 . S
C1324 C1327 1.356 . S
C1324 O1380 1.325 . S
N1325 C1328 1.314 . S
N1325 C1329 1.279 . S
C1326 C1324 1.348 . S
C1326 C1328 1.353 . S
C1326 H1384 0.929 . S
C1327 C1324 1.356 . S
C1327 C1329 1.358 . S
C1327 H1385 0.930 . S
C1328 N1325 1.314 . S
C1328 C1326 1.353 . S
C1328 H1386 0.930 . S
C1329 N1325 1.279 . S
C1329 C1327 1.358 . S
C1329 H1387 0.930 . S
C1330 C1333 1.348 . S
C1330 C1334 1.356 . S
C1330 O1381 1.325 . S
C1331 N1332 1.279 . S
C1331 C1334 1.358 . S
C1331 H1388 0.930 . S
N1332 C1331 1.279 . S
N1332 C1335 1.314 . S
C1333 C1330 1.348 . S
C1333 C1335 1.353 . S
C1333 H1389 0.929 . S
C1334 C1330 1.356 . S
C1334 C1331 1.358 . S
C1334 H1390 0.930 . S
C1335 N1332 1.314 . S
C1335 C1333 1.353 . S
C1335 H1391 0.930 . S
C1336 N1337 1.314 . S
C1336 C1341 1.353 . S
C1336 H1342 0.930 . S
N1337 Li1320 1.990 . S
N1337 C1336 1.314 . S
N1337 C1339 1.279 . S
C1338 C1339 1.358 . S
C1338 C1340 1.356 . S
C1338 H1392 0.930 . S
C1339 N1337 1.279 . S
C1339 C1338 1.358 . S
C1339 H1343 0.930 . S
C1340 C1338 1.356 . S
C1340 C1341 1.348 . S
C1341 C1336 1.353 . S
C1341 C1340 1.348 . S
C1341 H1393 0.929 . S
H1342 C1336 0.930 . S
H1343 C1339 0.930 . S
C1344 N1345 1.314 . S
C1344 C1346 1.353 . S
C1344 H1350 0.930 . S
N1345 Li1321 1.990 . S
N1345 C1344 1.314 . S
N1345 C1348 1.279 . S
C1346 C1344 1.353 . S
C1346 C1349 1.348 . S
C1346 H1394 0.929 . S
C1347 C1348 1.358 . S
C1347 C1349 1.356 . S
C1347 H1395 0.930 . S
C1348 N1345 1.279 . S
C1348 C1347 1.358 . S
C1348 H1351 0.930 . S
C1349 C1346 1.348 . S
C1349 C1347 1.356 . S
H1350 C1344 0.930 . S
H1351 C1348 0.930 . S
C1352 C1354 1.348 . S
C1352 C1355 1.356 . S
C1352 O1382 1.325 . S
N1353 C1356 1.314 . S
N1353 C1357 1.279 . S
C1354 C1352 1.348 . S
C1354 C1356 1.353 . S
C1354 H1396 0.929 . S
C1355 C1352 1.356 . S
C1355 C1357 1.358 . S
C1355 H1397 0.930 . S
C1356 N1353 1.314 . S
C1356 C1354 1.353 . S
C1356 H1398 0.930 . S
C1357 N1353 1.279 . S
C1357 C1355 1.358 . S
C1357 H1399 0.930 . S
C1358 C1359 1.348 . S
C1358 C1360 1.356 . S
C1358 O1383 1.325 . S
C1359 C1358 1.348 . S
C1359 C1361 1.353 . S
C1359 H1400 0.929 . S
C1360 C1358 1.356 . S
C1360 C1362 1.358 . S
C1360 H1401 0.930 . S
C1361 C1359 1.353 . S
C1361 N1363 1.314 . S
C1361 H1402 0.930 . S
C1362 C1360 1.358 . S
C1362 N1363 1.279 . S
C1362 H1403 0.930 . S
N1363 C1361 1.314 . S
N1363 C1362 1.279 . S
C1364 C1366 1.353 . S
C1364 N1367 1.314 . S
C1364 H1370 0.930 . S
C1365 N1367 1.279 . S
C1365 C1368 1.358 . S
C1365 H1371 0.930 . S
C1366 C1364 1.353 . S
C1366 C1369 1.348 . S
C1366 H1404 0.929 . S
N1367 Li1322 1.990 . S
N1367 C1364 1.314 . S
N1367 C1365 1.279 . S
C1368 C1365 1.358 . S
C1368 C1369 1.356 . S
C1368 H1405 0.930 . S
C1369 C1366 1.348 . S
C1369 C1368 1.356 . S
H1370 C1364 0.930 . S
H1371 C1365 0.930 . S
C1372 N1373 1.314 . S
C1372 C1374 1.353 . S
C1372 H1378 0.930 . S
N1373 Li1323 1.990 . S
N1373 C1372 1.314 . S
N1373 C1376 1.279 . S
C1374 C1372 1.353 . S
C1374 C1377 1.348 . S
C1374 H1406 0.929 . S
C1375 C1376 1.358 . S
C1375 C1377 1.356 . S
C1375 H1407 0.930 . S
C1376 N1373 1.279 . S
C1376 C1375 1.358 . S
C1376 H1379 0.930 . S
C1377 C1374 1.348 . S
C1377 C1375 1.356 . S
H1378 C1372 0.930 . S
H1379 C1376 0.930 . S
O1380 Li1320 1.956 . S
O1380 Li1321 1.970 . S
O1380 Li1322 1.961 . S
O1380 C1324 1.325 . S
O1381 Li1320 1.970 . S
O1381 Li1321 1.956 . S
O1381 Li1323 1.961 . S
O1381 C1330 1.325 . S
O1382 Li1320 1.961 . S
O1382 Li1322 1.956 . S
O1382 Li1323 1.970 . S
O1382 C1352 1.325 . S
O1383 Li1321 1.961 . S
O1383 Li1322 1.970 . S
O1383 Li1323 1.956 . S
O1383 C1358 1.325 . S
H1384 C1326 0.929 . S
H1385 C1327 0.930 . S
H1386 C1328 0.930 . S
H1387 C1329 0.930 . S
H1388 C1331 0.930 . S
H1389 C1333 0.929 . S
H1390 C1334 0.930 . S
H1391 C1335 0.930 . S
H1392 C1338 0.930 . S
H1393 C1341 0.929 . S
H1394 C1346 0.929 . S
H1395 C1347 0.930 . S
H1396 C1354 0.929 . S
H1397 C1355 0.930 . S
H1398 C1356 0.930 . S
H1399 C1357 0.930 . S
H1400 C1359 0.929 . S
H1401 C1360 0.930 . S
H1402 C1361 0.930 . S
H1403 C1362 0.930 . S
H1404 C1366 0.929 . S
H1405 C1368 0.930 . S
H1406 C1374 0.929 . S
H1407 C1375 0.930 . S
Li1408 N1425 1.990 . S
Li1408 O1468 1.956 . S
Li1408 O1469 1.970 . S
Li1408 O1470 1.961 . S
Li1409 N1433 1.990 . S
Li1409 O1468 1.970 . S
Li1409 O1469 1.956 . S
Li1409 O1471 1.961 . S
Li1410 N1455 1.990 . S
Li1410 O1468 1.961 . S
Li1410 O1470 1.956 . S
Li1410 O1471 1.970 . S
Li1411 N1461 1.990 . S
Li1411 O1469 1.961 . S
Li1411 O1470 1.970 . S
Li1411 O1471 1.956 . S
C1412 C1414 1.348 . S
C1412 C1415 1.356 . S
C1412 O1468 1.325 . S
N1413 C1416 1.314 . S
N1413 C1417 1.279 . S
C1414 C1412 1.348 . S
C1414 C1416 1.353 . S
C1414 H1472 0.929 . S
C1415 C1412 1.356 . S
C1415 C1417 1.358 . S
C1415 H1473 0.930 . S
C1416 N1413 1.314 . S
C1416 C1414 1.353 . S
C1416 H1474 0.930 . S
C1417 N1413 1.279 . S
C1417 C1415 1.358 . S
C1417 H1475 0.930 . S
C1418 C1421 1.348 . S
C1418 C1422 1.356 . S
C1418 O1469 1.325 . S
C1419 N1420 1.279 . S
C1419 C1422 1.358 . S
C1419 H1476 0.930 . S
N1420 C1419 1.279 . S
N1420 C1423 1.314 . S
C1421 C1418 1.348 . S
C1421 C1423 1.353 . S
C1421 H1477 0.929 . S
C1422 C1418 1.356 . S
C1422 C1419 1.358 . S
C1422 H1478 0.930 . S
C1423 N1420 1.314 . S
C1423 C1421 1.353 . S
C1423 H1479 0.930 . S
C1424 N1425 1.314 . S
C1424 C1429 1.353 . S
C1424 H1430 0.930 . S
N1425 Li1408 1.990 . S
N1425 C1424 1.314 . S
N1425 C1427 1.279 . S
C1426 C1427 1.358 . S
C1426 C1428 1.356 . S
C1426 H1480 0.930 . S
C1427 N1425 1.279 . S
C1427 C1426 1.358 . S
C1427 H1431 0.930 . S
C1428 C1426 1.356 . S
C1428 C1429 1.348 . S
C1429 C1424 1.353 . S
C1429 C1428 1.348 . S
C1429 H1481 0.929 . S
H1430 C1424 0.930 . S
H1431 C1427 0.930 . S
C1432 N1433 1.314 . S
C1432 C1434 1.353 . S
C1432 H1438 0.930 . S
N1433 Li1409 1.990 . S
N1433 C1432 1.314 . S
N1433 C1436 1.279 . S
C1434 C1432 1.353 . S
C1434 C1437 1.348 . S
C1434 H1482 0.929 . S
C1435 C1436 1.358 . S
C1435 C1437 1.356 . S
C1435 H1483 0.930 . S
C1436 N1433 1.279 . S
C1436 C1435 1.358 . S
C1436 H1439 0.930 . S
C1437 C1434 1.348 . S
C1437 C1435 1.356 . S
H1438 C1432 0.930 . S
H1439 C1436 0.930 . S
C1440 C1442 1.348 . S
C1440 C1443 1.356 . S
C1440 O1470 1.325 . S
N1441 C1444 1.314 . S
N1441 C1445 1.279 . S
C1442 C1440 1.348 . S
C1442 C1444 1.353 . S
C1442 H1484 0.929 . S
C1443 C1440 1.356 . S
C1443 C1445 1.358 . S
C1443 H1485 0.930 . S
C1444 N1441 1.314 . S
C1444 C1442 1.353 . S
C1444 H1486 0.930 . S
C1445 N1441 1.279 . S
C1445 C1443 1.358 . S
C1445 H1487 0.930 . S
C1446 C1447 1.348 . S
C1446 C1448 1.356 . S
C1446 O1471 1.325 . S
C1447 C1446 1.348 . S
C1447 C1449 1.353 . S
C1447 H1488 0.929 . S
C1448 C1446 1.356 . S
C1448 C1450 1.358 . S
C1448 H1489 0.930 . S
C1449 C1447 1.353 . S
C1449 N1451 1.314 . S
C1449 H1490 0.930 . S
C1450 C1448 1.358 . S
C1450 N1451 1.279 . S
C1450 H1491 0.930 . S
N1451 C1449 1.314 . S
N1451 C1450 1.279 . S
C1452 C1454 1.353 . S
C1452 N1455 1.314 . S
C1452 H1458 0.930 . S
C1453 N1455 1.279 . S
C1453 C1456 1.358 . S
C1453 H1459 0.930 . S
C1454 C1452 1.353 . S
C1454 C1457 1.348 . S
C1454 H1492 0.929 . S
N1455 Li1410 1.990 . S
N1455 C1452 1.314 . S
N1455 C1453 1.279 . S
C1456 C1453 1.358 . S
C1456 C1457 1.356 . S
C1456 H1493 0.930 . S
C1457 C1454 1.348 . S
C1457 C1456 1.356 . S
H1458 C1452 0.930 . S
H1459 C1453 0.930 . S
C1460 N1461 1.314 . S
C1460 C1462 1.353 . S
C1460 H1466 0.930 . S
N1461 Li1411 1.990 . S
N1461 C1460 1.314 . S
N1461 C1464 1.279 . S
C1462 C1460 1.353 . S
C1462 C1465 1.348 . S
C1462 H1494 0.929 . S
C1463 C1464 1.358 . S
C1463 C1465 1.356 . S
C1463 H1495 0.930 . S
C1464 N1461 1.279 . S
C1464 C1463 1.358 . S
C1464 H1467 0.930 . S
C1465 C1462 1.348 . S
C1465 C1463 1.356 . S
H1466 C1460 0.930 . S
H1467 C1464 0.930 . S
O1468 Li1408 1.956 . S
O1468 Li1409 1.970 . S
O1468 Li1410 1.961 . S
O1468 C1412 1.325 . S
O1469 Li1408 1.970 . S
O1469 Li1409 1.956 . S
O1469 Li1411 1.961 . S
O1469 C1418 1.325 . S
O1470 Li1408 1.961 . S
O1470 Li1410 1.956 . S
O1470 Li1411 1.970 . S
O1470 C1440 1.325 . S
O1471 Li1409 1.961 . S
O1471 Li1410 1.970 . S
O1471 Li1411 1.956 . S
O1471 C1446 1.325 . S
H1472 C1414 0.929 . S
H1473 C1415 0.930 . S
H1474 C1416 0.930 . S
H1475 C1417 0.930 . S
H1476 C1419 0.930 . S
H1477 C1421 0.929 . S
H1478 C1422 0.930 . S
H1479 C1423 0.930 . S
H1480 C1426 0.930 . S
H1481 C1429 0.929 . S
H1482 C1434 0.929 . S
H1483 C1435 0.930 . S
H1484 C1442 0.929 . S
H1485 C1443 0.930 . S
H1486 C1444 0.930 . S
H1487 C1445 0.930 . S
H1488 C1447 0.929 . S
H1489 C1448 0.930 . S
H1490 C1449 0.930 . S
H1491 C1450 0.930 . S
H1492 C1454 0.929 . S
H1493 C1456 0.930 . S
H1494 C1462 0.929 . S
H1495 C1463 0.930 . S
Li1496 N1513 1.990 . S
Li1496 O1556 1.956 . S
Li1496 O1557 1.970 . S
Li1496 O1558 1.961 . S
Li1497 N1521 1.990 . S
Li1497 O1556 1.970 . S
Li1497 O1557 1.956 . S
Li1497 O1559 1.961 . S
Li1498 N1543 1.990 . S
Li1498 O1556 1.961 . S
Li1498 O1558 1.956 . S
Li1498 O1559 1.970 . S
Li1499 N1549 1.990 . S
Li1499 O1557 1.961 . S
Li1499 O1558 1.970 . S
Li1499 O1559 1.956 . S
C1500 C1502 1.348 . S
C1500 C1503 1.356 . S
C1500 O1556 1.325 . S
N1501 C1504 1.314 . S
N1501 C1505 1.279 . S
C1502 C1500 1.348 . S
C1502 C1504 1.353 . S
C1502 H1560 0.929 . S
C1503 C1500 1.356 . S
C1503 C1505 1.358 . S
C1503 H1561 0.930 . S
C1504 N1501 1.314 . S
C1504 C1502 1.353 . S
C1504 H1562 0.930 . S
C1505 N1501 1.279 . S
C1505 C1503 1.358 . S
C1505 H1563 0.930 . S
C1506 C1509 1.348 . S
C1506 C1510 1.356 . S
C1506 O1557 1.325 . S
C1507 N1508 1.279 . S
C1507 C1510 1.358 . S
C1507 H1564 0.930 . S
N1508 C1507 1.279 . S
N1508 C1511 1.314 . S
C1509 C1506 1.348 . S
C1509 C1511 1.353 . S
C1509 H1565 0.929 . S
C1510 C1506 1.356 . S
C1510 C1507 1.358 . S
C1510 H1566 0.930 . S
C1511 N1508 1.314 . S
C1511 C1509 1.353 . S
C1511 H1567 0.930 . S
C1512 N1513 1.314 . S
C1512 C1517 1.353 . S
C1512 H1518 0.930 . S
N1513 Li1496 1.990 . S
N1513 C1512 1.314 . S
N1513 C1515 1.279 . S
C1514 C1515 1.358 . S
C1514 C1516 1.356 . S
C1514 H1568 0.930 . S
C1515 N1513 1.279 . S
C1515 C1514 1.358 . S
C1515 H1519 0.930 . S
C1516 C1514 1.356 . S
C1516 C1517 1.348 . S
C1517 C1512 1.353 . S
C1517 C1516 1.348 . S
C1517 H1569 0.929 . S
H1518 C1512 0.930 . S
H1519 C1515 0.930 . S
C1520 N1521 1.314 . S
C1520 C1522 1.353 . S
C1520 H1526 0.930 . S
N1521 Li1497 1.990 . S
N1521 C1520 1.314 . S
N1521 C1524 1.279 . S
C1522 C1520 1.353 . S
C1522 C1525 1.348 . S
C1522 H1570 0.929 . S
C1523 C1524 1.358 . S
C1523 C1525 1.356 . S
C1523 H1571 0.930 . S
C1524 N1521 1.279 . S
C1524 C1523 1.358 . S
C1524 H1527 0.930 . S
C1525 C1522 1.348 . S
C1525 C1523 1.356 . S
H1526 C1520 0.930 . S
H1527 C1524 0.930 . S
C1528 C1530 1.348 . S
C1528 C1531 1.356 . S
C1528 O1558 1.325 . S
N1529 C1532 1.314 . S
N1529 C1533 1.279 . S
C1530 C1528 1.348 . S
C1530 C1532 1.353 . S
C1530 H1572 0.929 . S
C1531 C1528 1.356 . S
C1531 C1533 1.358 . S
C1531 H1573 0.930 . S
C1532 N1529 1.314 . S
C1532 C1530 1.353 . S
C1532 H1574 0.930 . S
C1533 N1529 1.279 . S
C1533 C1531 1.358 . S
C1533 H1575 0.930 . S
C1534 C1535 1.348 . S
C1534 C1536 1.356 . S
C1534 O1559 1.325 . S
C1535 C1534 1.348 . S
C1535 C1537 1.353 . S
C1535 H1576 0.929 . S
C1536 C1534 1.356 . S
C1536 C1538 1.358 . S
C1536 H1577 0.930 . S
C1537 C1535 1.353 . S
C1537 N1539 1.314 . S
C1537 H1578 0.930 . S
C1538 C1536 1.358 . S
C1538 N1539 1.279 . S
C1538 H1579 0.930 . S
N1539 C1537 1.314 . S
N1539 C1538 1.279 . S
C1540 C1542 1.353 . S
C1540 N1543 1.314 . S
C1540 H1546 0.930 . S
C1541 N1543 1.279 . S
C1541 C1544 1.358 . S
C1541 H1547 0.930 . S
C1542 C1540 1.353 . S
C1542 C1545 1.348 . S
C1542 H1580 0.929 . S
N1543 Li1498 1.990 . S
N1543 C1540 1.314 . S
N1543 C1541 1.279 . S
C1544 C1541 1.358 . S
C1544 C1545 1.356 . S
C1544 H1581 0.930 . S
C1545 C1542 1.348 . S
C1545 C1544 1.356 . S
H1546 C1540 0.930 . S
H1547 C1541 0.930 . S
C1548 N1549 1.314 . S
C1548 C1550 1.353 . S
C1548 H1554 0.930 . S
N1549 Li1499 1.990 . S
N1549 C1548 1.314 . S
N1549 C1552 1.279 . S
C1550 C1548 1.353 . S
C1550 C1553 1.348 . S
C1550 H1582 0.929 . S
C1551 C1552 1.358 . S
C1551 C1553 1.356 . S
C1551 H1583 0.930 . S
C1552 N1549 1.279 . S
C1552 C1551 1.358 . S
C1552 H1555 0.930 . S
C1553 C1550 1.348 . S
C1553 C1551 1.356 . S
H1554 C1548 0.930 . S
H1555 C1552 0.930 . S
O1556 Li1496 1.956 . S
O1556 Li1497 1.970 . S
O1556 Li1498 1.961 . S
O1556 C1500 1.325 . S
O1557 Li1496 1.970 . S
O1557 Li1497 1.956 . S
O1557 Li1499 1.961 . S
O1557 C1506 1.325 . S
O1558 Li1496 1.961 . S
O1558 Li1498 1.956 . S
O1558 Li1499 1.970 . S
O1558 C1528 1.325 . S
O1559 Li1497 1.961 . S
O1559 Li1498 1.970 . S
O1559 Li1499 1.956 . S
O1559 C1534 1.325 . S
H1560 C1502 0.929 . S
H1561 C1503 0.930 . S
H1562 C1504 0.930 . S
H1563 C1505 0.930 . S
H1564 C1507 0.930 . S
H1565 C1509 0.929 . S
H1566 C1510 0.930 . S
H1567 C1511 0.930 . S
H1568 C1514 0.930 . S
H1569 C1517 0.929 . S
H1570 C1522 0.929 . S
H1571 C1523 0.930 . S
H1572 C1530 0.929 . S
H1573 C1531 0.930 . S
H1574 C1532 0.930 . S
H1575 C1533 0.930 . S
H1576 C1535 0.929 . S
H1577 C1536 0.930 . S
H1578 C1537 0.930 . S
H1579 C1538 0.930 . S
H1580 C1542 0.929 . S
H1581 C1544 0.930 . S
H1582 C1550 0.929 . S
H1583 C1551 0.930 . S
Li1584 N1601 1.990 . S
Li1584 O1644 1.956 . S
Li1584 O1645 1.970 . S
Li1584 O1646 1.961 . S
Li1585 N1609 1.990 . S
Li1585 O1644 1.970 . S
Li1585 O1645 1.956 . S
Li1585 O1647 1.961 . S
Li1586 N1631 1.990 . S
Li1586 O1644 1.961 . S
Li1586 O1646 1.956 . S
Li1586 O1647 1.970 . S
Li1587 N1637 1.990 . S
Li1587 O1645 1.961 . S
Li1587 O1646 1.970 . S
Li1587 O1647 1.956 . S
C1588 C1590 1.348 . S
C1588 C1591 1.356 . S
C1588 O1644 1.325 . S
N1589 C1592 1.314 . S
N1589 C1593 1.279 . S
C1590 C1588 1.348 . S
C1590 C1592 1.353 . S
C1590 H1648 0.929 . S
C1591 C1588 1.356 . S
C1591 C1593 1.358 . S
C1591 H1649 0.930 . S
C1592 N1589 1.314 . S
C1592 C1590 1.353 . S
C1592 H1650 0.930 . S
C1593 N1589 1.279 . S
C1593 C1591 1.358 . S
C1593 H1651 0.930 . S
C1594 C1597 1.348 . S
C1594 C1598 1.356 . S
C1594 O1645 1.325 . S
C1595 N1596 1.279 . S
C1595 C1598 1.358 . S
C1595 H1652 0.930 . S
N1596 C1595 1.279 . S
N1596 C1599 1.314 . S
C1597 C1594 1.348 . S
C1597 C1599 1.353 . S
C1597 H1653 0.929 . S
C1598 C1594 1.356 . S
C1598 C1595 1.358 . S
C1598 H1654 0.930 . S
C1599 N1596 1.314 . S
C1599 C1597 1.353 . S
C1599 H1655 0.930 . S
C1600 N1601 1.314 . S
C1600 C1605 1.353 . S
C1600 H1606 0.930 . S
N1601 Li1584 1.990 . S
N1601 C1600 1.314 . S
N1601 C1603 1.279 . S
C1602 C1603 1.358 . S
C1602 C1604 1.356 . S
C1602 H1656 0.930 . S
C1603 N1601 1.279 . S
C1603 C1602 1.358 . S
C1603 H1607 0.930 . S
C1604 C1602 1.356 . S
C1604 C1605 1.348 . S
C1605 C1600 1.353 . S
C1605 C1604 1.348 . S
C1605 H1657 0.929 . S
H1606 C1600 0.930 . S
H1607 C1603 0.930 . S
C1608 N1609 1.314 . S
C1608 C1610 1.353 . S
C1608 H1614 0.930 . S
N1609 Li1585 1.990 . S
N1609 C1608 1.314 . S
N1609 C1612 1.279 . S
C1610 C1608 1.353 . S
C1610 C1613 1.348 . S
C1610 H1658 0.929 . S
C1611 C1612 1.358 . S
C1611 C1613 1.356 . S
C1611 H1659 0.930 . S
C1612 N1609 1.279 . S
C1612 C1611 1.358 . S
C1612 H1615 0.930 . S
C1613 C1610 1.348 . S
C1613 C1611 1.356 . S
H1614 C1608 0.930 . S
H1615 C1612 0.930 . S
C1616 C1618 1.348 . S
C1616 C1619 1.356 . S
C1616 O1646 1.325 . S
N1617 C1620 1.314 . S
N1617 C1621 1.279 . S
C1618 C1616 1.348 . S
C1618 C1620 1.353 . S
C1618 H1660 0.929 . S
C1619 C1616 1.356 . S
C1619 C1621 1.358 . S
C1619 H1661 0.930 . S
C1620 N1617 1.314 . S
C1620 C1618 1.353 . S
C1620 H1662 0.930 . S
C1621 N1617 1.279 . S
C1621 C1619 1.358 . S
C1621 H1663 0.930 . S
C1622 C1623 1.348 . S
C1622 C1624 1.356 . S
C1622 O1647 1.325 . S
C1623 C1622 1.348 . S
C1623 C1625 1.353 . S
C1623 H1664 0.929 . S
C1624 C1622 1.356 . S
C1624 C1626 1.358 . S
C1624 H1665 0.930 . S
C1625 C1623 1.353 . S
C1625 N1627 1.314 . S
C1625 H1666 0.930 . S
C1626 C1624 1.358 . S
C1626 N1627 1.279 . S
C1626 H1667 0.930 . S
N1627 C1625 1.314 . S
N1627 C1626 1.279 . S
C1628 C1630 1.353 . S
C1628 N1631 1.314 . S
C1628 H1634 0.930 . S
C1629 N1631 1.279 . S
C1629 C1632 1.358 . S
C1629 H1635 0.930 . S
C1630 C1628 1.353 . S
C1630 C1633 1.348 . S
C1630 H1668 0.929 . S
N1631 Li1586 1.990 . S
N1631 C1628 1.314 . S
N1631 C1629 1.279 . S
C1632 C1629 1.358 . S
C1632 C1633 1.356 . S
C1632 H1669 0.930 . S
C1633 C1630 1.348 . S
C1633 C1632 1.356 . S
H1634 C1628 0.930 . S
H1635 C1629 0.930 . S
C1636 N1637 1.314 . S
C1636 C1638 1.353 . S
C1636 H1642 0.930 . S
N1637 Li1587 1.990 . S
N1637 C1636 1.314 . S
N1637 C1640 1.279 . S
C1638 C1636 1.353 . S
C1638 C1641 1.348 . S
C1638 H1670 0.929 . S
C1639 C1640 1.358 . S
C1639 C1641 1.356 . S
C1639 H1671 0.930 . S
C1640 N1637 1.279 . S
C1640 C1639 1.358 . S
C1640 H1643 0.930 . S
C1641 C1638 1.348 . S
C1641 C1639 1.356 . S
H1642 C1636 0.930 . S
H1643 C1640 0.930 . S
O1644 Li1584 1.956 . S
O1644 Li1585 1.970 . S
O1644 Li1586 1.961 . S
O1644 C1588 1.325 . S
O1645 Li1584 1.970 . S
O1645 Li1585 1.956 . S
O1645 Li1587 1.961 . S
O1645 C1594 1.325 . S
O1646 Li1584 1.961 . S
O1646 Li1586 1.956 . S
O1646 Li1587 1.970 . S
O1646 C1616 1.325 . S
O1647 Li1585 1.961 . S
O1647 Li1586 1.970 . S
O1647 Li1587 1.956 . S
O1647 C1622 1.325 . S
H1648 C1590 0.929 . S
H1649 C1591 0.930 . S
H1650 C1592 0.930 . S
H1651 C1593 0.930 . S
H1652 C1595 0.930 . S
H1653 C1597 0.929 . S
H1654 C1598 0.930 . S
H1655 C1599 0.930 . S
H1656 C1602 0.930 . S
H1657 C1605 0.929 . S
H1658 C1610 0.929 . S
H1659 C1611 0.930 . S
H1660 C1618 0.929 . S
H1661 C1619 0.930 . S
H1662 C1620 0.930 . S
H1663 C1621 0.930 . S
H1664 C1623 0.929 . S
H1665 C1624 0.930 . S
H1666 C1625 0.930 . S
H1667 C1626 0.930 . S
H1668 C1630 0.929 . S
H1669 C1632 0.930 . S
H1670 C1638 0.929 . S
H1671 C1639 0.930 . S
Li1672 N1689 1.990 . S
Li1672 O1732 1.956 . S
Li1672 O1733 1.970 . S
Li1672 O1734 1.961 . S
Li1673 N1697 1.990 . S
Li1673 O1732 1.970 . S
Li1673 O1733 1.956 . S
Li1673 O1735 1.961 . S
Li1674 N1719 1.990 . S
Li1674 O1732 1.961 . S
Li1674 O1734 1.956 . S
Li1674 O1735 1.970 . S
Li1675 N1725 1.990 . S
Li1675 O1733 1.961 . S
Li1675 O1734 1.970 . S
Li1675 O1735 1.956 . S
C1676 C1678 1.348 . S
C1676 C1679 1.356 . S
C1676 O1732 1.325 . S
N1677 C1680 1.314 . S
N1677 C1681 1.279 . S
C1678 C1676 1.348 . S
C1678 C1680 1.353 . S
C1678 H1736 0.929 . S
C1679 C1676 1.356 . S
C1679 C1681 1.358 . S
C1679 H1737 0.930 . S
C1680 N1677 1.314 . S
C1680 C1678 1.353 . S
C1680 H1738 0.930 . S
C1681 N1677 1.279 . S
C1681 C1679 1.358 . S
C1681 H1739 0.930 . S
C1682 C1685 1.348 . S
C1682 C1686 1.356 . S
C1682 O1733 1.325 . S
C1683 N1684 1.279 . S
C1683 C1686 1.358 . S
C1683 H1740 0.930 . S
N1684 C1683 1.279 . S
N1684 C1687 1.314 . S
C1685 C1682 1.348 . S
C1685 C1687 1.353 . S
C1685 H1741 0.929 . S
C1686 C1682 1.356 . S
C1686 C1683 1.358 . S
C1686 H1742 0.930 . S
C1687 N1684 1.314 . S
C1687 C1685 1.353 . S
C1687 H1743 0.930 . S
C1688 N1689 1.314 . S
C1688 C1693 1.353 . S
C1688 H1694 0.930 . S
N1689 Li1672 1.990 . S
N1689 C1688 1.314 . S
N1689 C1691 1.279 . S
C1690 C1691 1.358 . S
C1690 C1692 1.356 . S
C1690 H1744 0.930 . S
C1691 N1689 1.279 . S
C1691 C1690 1.358 . S
C1691 H1695 0.930 . S
C1692 C1690 1.356 . S
C1692 C1693 1.348 . S
C1693 C1688 1.353 . S
C1693 C1692 1.348 . S
C1693 H1745 0.929 . S
H1694 C1688 0.930 . S
H1695 C1691 0.930 . S
C1696 N1697 1.314 . S
C1696 C1698 1.353 . S
C1696 H1702 0.930 . S
N1697 Li1673 1.990 . S
N1697 C1696 1.314 . S
N1697 C1700 1.279 . S
C1698 C1696 1.353 . S
C1698 C1701 1.348 . S
C1698 H1746 0.929 . S
C1699 C1700 1.358 . S
C1699 C1701 1.356 . S
C1699 H1747 0.930 . S
C1700 N1697 1.279 . S
C1700 C1699 1.358 . S
C1700 H1703 0.930 . S
C1701 C1698 1.348 . S
C1701 C1699 1.356 . S
H1702 C1696 0.930 . S
H1703 C1700 0.930 . S
C1704 C1706 1.348 . S
C1704 C1707 1.356 . S
C1704 O1734 1.325 . S
N1705 C1708 1.314 . S
N1705 C1709 1.279 . S
C1706 C1704 1.348 . S
C1706 C1708 1.353 . S
C1706 H1748 0.929 . S
C1707 C1704 1.356 . S
C1707 C1709 1.358 . S
C1707 H1749 0.930 . S
C1708 N1705 1.314 . S
C1708 C1706 1.353 . S
C1708 H1750 0.930 . S
C1709 N1705 1.279 . S
C1709 C1707 1.358 . S
C1709 H1751 0.930 . S
C1710 C1711 1.348 . S
C1710 C1712 1.356 . S
C1710 O1735 1.325 . S
C1711 C1710 1.348 . S
C1711 C1713 1.353 . S
C1711 H1752 0.929 . S
C1712 C1710 1.356 . S
C1712 C1714 1.358 . S
C1712 H1753 0.930 . S
C1713 C1711 1.353 . S
C1713 N1715 1.314 . S
C1713 H1754 0.930 . S
C1714 C1712 1.358 . S
C1714 N1715 1.279 . S
C1714 H1755 0.930 . S
N1715 C1713 1.314 . S
N1715 C1714 1.279 . S
C1716 C1718 1.353 . S
C1716 N1719 1.314 . S
C1716 H1722 0.930 . S
C1717 N1719 1.279 . S
C1717 C1720 1.358 . S
C1717 H1723 0.930 . S
C1718 C1716 1.353 . S
C1718 C1721 1.348 . S
C1718 H1756 0.929 . S
N1719 Li1674 1.990 . S
N1719 C1716 1.314 . S
N1719 C1717 1.279 . S
C1720 C1717 1.358 . S
C1720 C1721 1.356 . S
C1720 H1757 0.930 . S
C1721 C1718 1.348 . S
C1721 C1720 1.356 . S
H1722 C1716 0.930 . S
H1723 C1717 0.930 . S
C1724 N1725 1.314 . S
C1724 C1726 1.353 . S
C1724 H1730 0.930 . S
N1725 Li1675 1.990 . S
N1725 C1724 1.314 . S
N1725 C1728 1.279 . S
C1726 C1724 1.353 . S
C1726 C1729 1.348 . S
C1726 H1758 0.929 . S
C1727 C1728 1.358 . S
C1727 C1729 1.356 . S
C1727 H1759 0.930 . S
C1728 N1725 1.279 . S
C1728 C1727 1.358 . S
C1728 H1731 0.930 . S
C1729 C1726 1.348 . S
C1729 C1727 1.356 . S
H1730 C1724 0.930 . S
H1731 C1728 0.930 . S
O1732 Li1672 1.956 . S
O1732 Li1673 1.970 . S
O1732 Li1674 1.961 . S
O1732 C1676 1.325 . S
O1733 Li1672 1.970 . S
O1733 Li1673 1.956 . S
O1733 Li1675 1.961 . S
O1733 C1682 1.325 . S
O1734 Li1672 1.961 . S
O1734 Li1674 1.956 . S
O1734 Li1675 1.970 . S
O1734 C1704 1.325 . S
O1735 Li1673 1.961 . S
O1735 Li1674 1.970 . S
O1735 Li1675 1.956 . S
O1735 C1710 1.325 . S
H1736 C1678 0.929 . S
H1737 C1679 0.930 . S
H1738 C1680 0.930 . S
H1739 C1681 0.930 . S
H1740 C1683 0.930 . S
H1741 C1685 0.929 . S
H1742 C1686 0.930 . S
H1743 C1687 0.930 . S
H1744 C1690 0.930 . S
H1745 C1693 0.929 . S
H1746 C1698 0.929 . S
H1747 C1699 0.930 . S
H1748 C1706 0.929 . S
H1749 C1707 0.930 . S
H1750 C1708 0.930 . S
H1751 C1709 0.930 . S
H1752 C1711 0.929 . S
H1753 C1712 0.930 . S
H1754 C1713 0.930 . S
H1755 C1714 0.930 . S
H1756 C1718 0.929 . S
H1757 C1720 0.930 . S
H1758 C1726 0.929 . S
H1759 C1727 0.930 . S
Li1760 N1777 1.990 . S
Li1760 O1820 1.956 . S
Li1760 O1821 1.970 . S
Li1760 O1822 1.961 . S
Li1761 N1785 1.990 . S
Li1761 O1820 1.970 . S
Li1761 O1821 1.956 . S
Li1761 O1823 1.961 . S
Li1762 N1807 1.990 . S
Li1762 O1820 1.961 . S
Li1762 O1822 1.956 . S
Li1762 O1823 1.970 . S
Li1763 N1813 1.990 . S
Li1763 O1821 1.961 . S
Li1763 O1822 1.970 . S
Li1763 O1823 1.956 . S
C1764 C1766 1.348 . S
C1764 C1767 1.356 . S
C1764 O1820 1.325 . S
N1765 C1768 1.314 . S
N1765 C1769 1.279 . S
C1766 C1764 1.348 . S
C1766 C1768 1.353 . S
C1766 H1824 0.929 . S
C1767 C1764 1.356 . S
C1767 C1769 1.358 . S
C1767 H1825 0.930 . S
C1768 N1765 1.314 . S
C1768 C1766 1.353 . S
C1768 H1826 0.930 . S
C1769 N1765 1.279 . S
C1769 C1767 1.358 . S
C1769 H1827 0.930 . S
C1770 C1773 1.348 . S
C1770 C1774 1.356 . S
C1770 O1821 1.325 . S
C1771 N1772 1.279 . S
C1771 C1774 1.358 . S
C1771 H1828 0.930 . S
N1772 C1771 1.279 . S
N1772 C1775 1.314 . S
C1773 C1770 1.348 . S
C1773 C1775 1.353 . S
C1773 H1829 0.929 . S
C1774 C1770 1.356 . S
C1774 C1771 1.358 . S
C1774 H1830 0.930 . S
C1775 N1772 1.314 . S
C1775 C1773 1.353 . S
C1775 H1831 0.930 . S
C1776 N1777 1.314 . S
C1776 C1781 1.353 . S
C1776 H1782 0.930 . S
N1777 Li1760 1.990 . S
N1777 C1776 1.314 . S
N1777 C1779 1.279 . S
C1778 C1779 1.358 . S
C1778 C1780 1.356 . S
C1778 H1832 0.930 . S
C1779 N1777 1.279 . S
C1779 C1778 1.358 . S
C1779 H1783 0.930 . S
C1780 C1778 1.356 . S
C1780 C1781 1.348 . S
C1781 C1776 1.353 . S
C1781 C1780 1.348 . S
C1781 H1833 0.929 . S
H1782 C1776 0.930 . S
H1783 C1779 0.930 . S
C1784 N1785 1.314 . S
C1784 C1786 1.353 . S
C1784 H1790 0.930 . S
N1785 Li1761 1.990 . S
N1785 C1784 1.314 . S
N1785 C1788 1.279 . S
C1786 C1784 1.353 . S
C1786 C1789 1.348 . S
C1786 H1834 0.929 . S
C1787 C1788 1.358 . S
C1787 C1789 1.356 . S
C1787 H1835 0.930 . S
C1788 N1785 1.279 . S
C1788 C1787 1.358 . S
C1788 H1791 0.930 . S
C1789 C1786 1.348 . S
C1789 C1787 1.356 . S
H1790 C1784 0.930 . S
H1791 C1788 0.930 . S
C1792 C1794 1.348 . S
C1792 C1795 1.356 . S
C1792 O1822 1.325 . S
N1793 C1796 1.314 . S
N1793 C1797 1.279 . S
C1794 C1792 1.348 . S
C1794 C1796 1.353 . S
C1794 H1836 0.929 . S
C1795 C1792 1.356 . S
C1795 C1797 1.358 . S
C1795 H1837 0.930 . S
C1796 N1793 1.314 . S
C1796 C1794 1.353 . S
C1796 H1838 0.930 . S
C1797 N1793 1.279 . S
C1797 C1795 1.358 . S
C1797 H1839 0.930 . S
C1798 C1799 1.348 . S
C1798 C1800 1.356 . S
C1798 O1823 1.325 . S
C1799 C1798 1.348 . S
C1799 C1801 1.353 . S
C1799 H1840 0.929 . S
C1800 C1798 1.356 . S
C1800 C1802 1.358 . S
C1800 H1841 0.930 . S
C1801 C1799 1.353 . S
C1801 N1803 1.314 . S
C1801 H1842 0.930 . S
C1802 C1800 1.358 . S
C1802 N1803 1.279 . S
C1802 H1843 0.930 . S
N1803 C1801 1.314 . S
N1803 C1802 1.279 . S
C1804 C1806 1.353 . S
C1804 N1807 1.314 . S
C1804 H1810 0.930 . S
C1805 N1807 1.279 . S
C1805 C1808 1.358 . S
C1805 H1811 0.930 . S
C1806 C1804 1.353 . S
C1806 C1809 1.348 . S
C1806 H1844 0.929 . S
N1807 Li1762 1.990 . S
N1807 C1804 1.314 . S
N1807 C1805 1.279 . S
C1808 C1805 1.358 . S
C1808 C1809 1.356 . S
C1808 H1845 0.930 . S
C1809 C1806 1.348 . S
C1809 C1808 1.356 . S
H1810 C1804 0.930 . S
H1811 C1805 0.930 . S
C1812 N1813 1.314 . S
C1812 C1814 1.353 . S
C1812 H1818 0.930 . S
N1813 Li1763 1.990 . S
N1813 C1812 1.314 . S
N1813 C1816 1.279 . S
C1814 C1812 1.353 . S
C1814 C1817 1.348 . S
C1814 H1846 0.929 . S
C1815 C1816 1.358 . S
C1815 C1817 1.356 . S
C1815 H1847 0.930 . S
C1816 N1813 1.279 . S
C1816 C1815 1.358 . S
C1816 H1819 0.930 . S
C1817 C1814 1.348 . S
C1817 C1815 1.356 . S
H1818 C1812 0.930 . S
H1819 C1816 0.930 . S
O1820 Li1760 1.956 . S
O1820 Li1761 1.970 . S
O1820 Li1762 1.961 . S
O1820 C1764 1.325 . S
O1821 Li1760 1.970 . S
O1821 Li1761 1.956 . S
O1821 Li1763 1.961 . S
O1821 C1770 1.325 . S
O1822 Li1760 1.961 . S
O1822 Li1762 1.956 . S
O1822 Li1763 1.970 . S
O1822 C1792 1.325 . S
O1823 Li1761 1.961 . S
O1823 Li1762 1.970 . S
O1823 Li1763 1.956 . S
O1823 C1798 1.325 . S
H1824 C1766 0.929 . S
H1825 C1767 0.930 . S
H1826 C1768 0.930 . S
H1827 C1769 0.930 . S
H1828 C1771 0.930 . S
H1829 C1773 0.929 . S
H1830 C1774 0.930 . S
H1831 C1775 0.930 . S
H1832 C1778 0.930 . S
H1833 C1781 0.929 . S
H1834 C1786 0.929 . S
H1835 C1787 0.930 . S
H1836 C1794 0.929 . S
H1837 C1795 0.930 . S
H1838 C1796 0.930 . S
H1839 C1797 0.930 . S
H1840 C1799 0.929 . S
H1841 C1800 0.930 . S
H1842 C1801 0.930 . S
H1843 C1802 0.930 . S
H1844 C1806 0.929 . S
H1845 C1808 0.930 . S
H1846 C1814 0.929 . S
H1847 C1815 0.930 . S
Li1848 N1865 1.990 . S
Li1848 O1908 1.956 . S
Li1848 O1909 1.970 . S
Li1848 O1910 1.961 . S
Li1849 N1873 1.990 . S
Li1849 O1908 1.970 . S
Li1849 O1909 1.956 . S
Li1849 O1911 1.961 . S
Li1850 N1895 1.990 . S
Li1850 O1908 1.961 . S
Li1850 O1910 1.956 . S
Li1850 O1911 1.970 . S
Li1851 N1901 1.990 . S
Li1851 O1909 1.961 . S
Li1851 O1910 1.970 . S
Li1851 O1911 1.956 . S
C1852 C1854 1.348 . S
C1852 C1855 1.356 . S
C1852 O1908 1.325 . S
N1853 C1856 1.314 . S
N1853 C1857 1.279 . S
C1854 C1852 1.348 . S
C1854 C1856 1.353 . S
C1854 H1912 0.929 . S
C1855 C1852 1.356 . S
C1855 C1857 1.358 . S
C1855 H1913 0.930 . S
C1856 N1853 1.314 . S
C1856 C1854 1.353 . S
C1856 H1914 0.930 . S
C1857 N1853 1.279 . S
C1857 C1855 1.358 . S
C1857 H1915 0.930 . S
C1858 C1861 1.348 . S
C1858 C1862 1.356 . S
C1858 O1909 1.325 . S
C1859 N1860 1.279 . S
C1859 C1862 1.358 . S
C1859 H1916 0.930 . S
N1860 C1859 1.279 . S
N1860 C1863 1.314 . S
C1861 C1858 1.348 . S
C1861 C1863 1.353 . S
C1861 H1917 0.929 . S
C1862 C1858 1.356 . S
C1862 C1859 1.358 . S
C1862 H1918 0.930 . S
C1863 N1860 1.314 . S
C1863 C1861 1.353 . S
C1863 H1919 0.930 . S
C1864 N1865 1.314 . S
C1864 C1869 1.353 . S
C1864 H1870 0.930 . S
N1865 Li1848 1.990 . S
N1865 C1864 1.314 . S
N1865 C1867 1.279 . S
C1866 C1867 1.358 . S
C1866 C1868 1.356 . S
C1866 H1920 0.930 . S
C1867 N1865 1.279 . S
C1867 C1866 1.358 . S
C1867 H1871 0.930 . S
C1868 C1866 1.356 . S
C1868 C1869 1.348 . S
C1869 C1864 1.353 . S
C1869 C1868 1.348 . S
C1869 H1921 0.929 . S
H1870 C1864 0.930 . S
H1871 C1867 0.930 . S
C1872 N1873 1.314 . S
C1872 C1874 1.353 . S
C1872 H1878 0.930 . S
N1873 Li1849 1.990 . S
N1873 C1872 1.314 . S
N1873 C1876 1.279 . S
C1874 C1872 1.353 . S
C1874 C1877 1.348 . S
C1874 H1922 0.929 . S
C1875 C1876 1.358 . S
C1875 C1877 1.356 . S
C1875 H1923 0.930 . S
C1876 N1873 1.279 . S
C1876 C1875 1.358 . S
C1876 H1879 0.930 . S
C1877 C1874 1.348 . S
C1877 C1875 1.356 . S
H1878 C1872 0.930 . S
H1879 C1876 0.930 . S
C1880 C1882 1.348 . S
C1880 C1883 1.356 . S
C1880 O1910 1.325 . S
N1881 C1884 1.314 . S
N1881 C1885 1.279 . S
C1882 C1880 1.348 . S
C1882 C1884 1.353 . S
C1882 H1924 0.929 . S
C1883 C1880 1.356 . S
C1883 C1885 1.358 . S
C1883 H1925 0.930 . S
C1884 N1881 1.314 . S
C1884 C1882 1.353 . S
C1884 H1926 0.930 . S
C1885 N1881 1.279 . S
C1885 C1883 1.358 . S
C1885 H1927 0.930 . S
C1886 C1887 1.348 . S
C1886 C1888 1.356 . S
C1886 O1911 1.325 . S
C1887 C1886 1.348 . S
C1887 C1889 1.353 . S
C1887 H1928 0.929 . S
C1888 C1886 1.356 . S
C1888 C1890 1.358 . S
C1888 H1929 0.930 . S
C1889 C1887 1.353 . S
C1889 N1891 1.314 . S
C1889 H1930 0.930 . S
C1890 C1888 1.358 . S
C1890 N1891 1.279 . S
C1890 H1931 0.930 . S
N1891 C1889 1.314 . S
N1891 C1890 1.279 . S
C1892 C1894 1.353 . S
C1892 N1895 1.314 . S
C1892 H1898 0.930 . S
C1893 N1895 1.279 . S
C1893 C1896 1.358 . S
C1893 H1899 0.930 . S
C1894 C1892 1.353 . S
C1894 C1897 1.348 . S
C1894 H1932 0.929 . S
N1895 Li1850 1.990 . S
N1895 C1892 1.314 . S
N1895 C1893 1.279 . S
C1896 C1893 1.358 . S
C1896 C1897 1.356 . S
C1896 H1933 0.930 . S
C1897 C1894 1.348 . S
C1897 C1896 1.356 . S
H1898 C1892 0.930 . S
H1899 C1893 0.930 . S
C1900 N1901 1.314 . S
C1900 C1902 1.353 . S
C1900 H1906 0.930 . S
N1901 Li1851 1.990 . S
N1901 C1900 1.314 . S
N1901 C1904 1.279 . S
C1902 C1900 1.353 . S
C1902 C1905 1.348 . S
C1902 H1934 0.929 . S
C1903 C1904 1.358 . S
C1903 C1905 1.356 . S
C1903 H1935 0.930 . S
C1904 N1901 1.279 . S
C1904 C1903 1.358 . S
C1904 H1907 0.930 . S
C1905 C1902 1.348 . S
C1905 C1903 1.356 . S
H1906 C1900 0.930 . S
H1907 C1904 0.930 . S
O1908 Li1848 1.956 . S
O1908 Li1849 1.970 . S
O1908 Li1850 1.961 . S
O1908 C1852 1.325 . S
O1909 Li1848 1.970 . S
O1909 Li1849 1.956 . S
O1909 Li1851 1.961 . S
O1909 C1858 1.325 . S
O1910 Li1848 1.961 . S
O1910 Li1850 1.956 . S
O1910 Li1851 1.970 . S
O1910 C1880 1.325 . S
O1911 Li1849 1.961 . S
O1911 Li1850 1.970 . S
O1911 Li1851 1.956 . S
O1911 C1886 1.325 . S
H1912 C1854 0.929 . S
H1913 C1855 0.930 . S
H1914 C1856 0.930 . S
H1915 C1857 0.930 . S
H1916 C1859 0.930 . S
H1917 C1861 0.929 . S
H1918 C1862 0.930 . S
H1919 C1863 0.930 . S
H1920 C1866 0.930 . S
H1921 C1869 0.929 . S
H1922 C1874 0.929 . S
H1923 C1875 0.930 . S
H1924 C1882 0.929 . S
H1925 C1883 0.930 . S
H1926 C1884 0.930 . S
H1927 C1885 0.930 . S
H1928 C1887 0.929 . S
H1929 C1888 0.930 . S
H1930 C1889 0.930 . S
H1931 C1890 0.930 . S
H1932 C1894 0.929 . S
H1933 C1896 0.930 . S
H1934 C1902 0.929 . S
H1935 C1903 0.930 . S
Li1936 N1953 1.990 . S
Li1936 O1996 1.956 . S
Li1936 O1997 1.970 . S
Li1936 O1998 1.961 . S
Li1937 N1961 1.990 . S
Li1937 O1996 1.970 . S
Li1937 O1997 1.956 . S
Li1937 O1999 1.961 . S
Li1938 N1983 1.990 . S
Li1938 O1996 1.961 . S
Li1938 O1998 1.956 . S
Li1938 O1999 1.970 . S
Li1939 N1989 1.990 . S
Li1939 O1997 1.961 . S
Li1939 O1998 1.970 . S
Li1939 O1999 1.956 . S
C1940 C1942 1.348 . S
C1940 C1943 1.356 . S
C1940 O1996 1.325 . S
N1941 C1944 1.314 . S
N1941 C1945 1.279 . S
C1942 C1940 1.348 . S
C1942 C1944 1.353 . S
C1942 H2000 0.929 . S
C1943 C1940 1.356 . S
C1943 C1945 1.358 . S
C1943 H2001 0.930 . S
C1944 N1941 1.314 . S
C1944 C1942 1.353 . S
C1944 H2002 0.930 . S
C1945 N1941 1.279 . S
C1945 C1943 1.358 . S
C1945 H2003 0.930 . S
C1946 C1949 1.348 . S
C1946 C1950 1.356 . S
C1946 O1997 1.325 . S
C1947 N1948 1.279 . S
C1947 C1950 1.358 . S
C1947 H2004 0.930 . S
N1948 C1947 1.279 . S
N1948 C1951 1.314 . S
C1949 C1946 1.348 . S
C1949 C1951 1.353 . S
C1949 H2005 0.929 . S
C1950 C1946 1.356 . S
C1950 C1947 1.358 . S
C1950 H2006 0.930 . S
C1951 N1948 1.314 . S
C1951 C1949 1.353 . S
C1951 H2007 0.930 . S
C1952 N1953 1.314 . S
C1952 C1957 1.353 . S
C1952 H1958 0.930 . S
N1953 Li1936 1.990 . S
N1953 C1952 1.314 . S
N1953 C1955 1.279 . S
C1954 C1955 1.358 . S
C1954 C1956 1.356 . S
C1954 H2008 0.930 . S
C1955 N1953 1.279 . S
C1955 C1954 1.358 . S
C1955 H1959 0.930 . S
C1956 C1954 1.356 . S
C1956 C1957 1.348 . S
C1957 C1952 1.353 . S
C1957 C1956 1.348 . S
C1957 H2009 0.929 . S
H1958 C1952 0.930 . S
H1959 C1955 0.930 . S
C1960 N1961 1.314 . S
C1960 C1962 1.353 . S
C1960 H1966 0.930 . S
N1961 Li1937 1.990 . S
N1961 C1960 1.314 . S
N1961 C1964 1.279 . S
C1962 C1960 1.353 . S
C1962 C1965 1.348 . S
C1962 H2010 0.929 . S
C1963 C1964 1.358 . S
C1963 C1965 1.356 . S
C1963 H2011 0.930 . S
C1964 N1961 1.279 . S
C1964 C1963 1.358 . S
C1964 H1967 0.930 . S
C1965 C1962 1.348 . S
C1965 C1963 1.356 . S
H1966 C1960 0.930 . S
H1967 C1964 0.930 . S
C1968 C1970 1.348 . S
C1968 C1971 1.356 . S
C1968 O1998 1.325 . S
N1969 C1972 1.314 . S
N1969 C1973 1.279 . S
C1970 C1968 1.348 . S
C1970 C1972 1.353 . S
C1970 H2012 0.929 . S
C1971 C1968 1.356 . S
C1971 C1973 1.358 . S
C1971 H2013 0.930 . S
C1972 N1969 1.314 . S
C1972 C1970 1.353 . S
C1972 H2014 0.930 . S
C1973 N1969 1.279 . S
C1973 C1971 1.358 . S
C1973 H2015 0.930 . S
C1974 C1975 1.348 . S
C1974 C1976 1.356 . S
C1974 O1999 1.325 . S
C1975 C1974 1.348 . S
C1975 C1977 1.353 . S
C1975 H2016 0.929 . S
C1976 C1974 1.356 . S
C1976 C1978 1.358 . S
C1976 H2017 0.930 . S
C1977 C1975 1.353 . S
C1977 N1979 1.314 . S
C1977 H2018 0.930 . S
C1978 C1976 1.358 . S
C1978 N1979 1.279 . S
C1978 H2019 0.930 . S
N1979 C1977 1.314 . S
N1979 C1978 1.279 . S
C1980 C1982 1.353 . S
C1980 N1983 1.314 . S
C1980 H1986 0.930 . S
C1981 N1983 1.279 . S
C1981 C1984 1.358 . S
C1981 H1987 0.930 . S
C1982 C1980 1.353 . S
C1982 C1985 1.348 . S
C1982 H2020 0.929 . S
N1983 Li1938 1.990 . S
N1983 C1980 1.314 . S
N1983 C1981 1.279 . S
C1984 C1981 1.358 . S
C1984 C1985 1.356 . S
C1984 H2021 0.930 . S
C1985 C1982 1.348 . S
C1985 C1984 1.356 . S
H1986 C1980 0.930 . S
H1987 C1981 0.930 . S
C1988 N1989 1.314 . S
C1988 C1990 1.353 . S
C1988 H1994 0.930 . S
N1989 Li1939 1.990 . S
N1989 C1988 1.314 . S
N1989 C1992 1.279 . S
C1990 C1988 1.353 . S
C1990 C1993 1.348 . S
C1990 H2022 0.929 . S
C1991 C1992 1.358 . S
C1991 C1993 1.356 . S
C1991 H2023 0.930 . S
C1992 N1989 1.279 . S
C1992 C1991 1.358 . S
C1992 H1995 0.930 . S
C1993 C1990 1.348 . S
C1993 C1991 1.356 . S
H1994 C1988 0.930 . S
H1995 C1992 0.930 . S
O1996 Li1936 1.956 . S
O1996 Li1937 1.970 . S
O1996 Li1938 1.961 . S
O1996 C1940 1.325 . S
O1997 Li1936 1.970 . S
O1997 Li1937 1.956 . S
O1997 Li1939 1.961 . S
O1997 C1946 1.325 . S
O1998 Li1936 1.961 . S
O1998 Li1938 1.956 . S
O1998 Li1939 1.970 . S
O1998 C1968 1.325 . S
O1999 Li1937 1.961 . S
O1999 Li1938 1.970 . S
O1999 Li1939 1.956 . S
O1999 C1974 1.325 . S
H2000 C1942 0.929 . S
H2001 C1943 0.930 . S
H2002 C1944 0.930 . S
H2003 C1945 0.930 . S
H2004 C1947 0.930 . S
H2005 C1949 0.929 . S
H2006 C1950 0.930 . S
H2007 C1951 0.930 . S
H2008 C1954 0.930 . S
H2009 C1957 0.929 . S
H2010 C1962 0.929 . S
H2011 C1963 0.930 . S
H2012 C1970 0.929 . S
H2013 C1971 0.930 . S
H2014 C1972 0.930 . S
H2015 C1973 0.930 . S
H2016 C1975 0.929 . S
H2017 C1976 0.930 . S
H2018 C1977 0.930 . S
H2019 C1978 0.930 . S
H2020 C1982 0.929 . S
H2021 C1984 0.930 . S
H2022 C1990 0.929 . S
H2023 C1991 0.930 . S
Li2024 N2041 1.990 . S
Li2024 O2084 1.956 . S
Li2024 O2085 1.970 . S
Li2024 O2086 1.961 . S
Li2025 N2049 1.990 . S
Li2025 O2084 1.970 . S
Li2025 O2085 1.956 . S
Li2025 O2087 1.961 . S
Li2026 N2071 1.990 . S
Li2026 O2084 1.961 . S
Li2026 O2086 1.956 . S
Li2026 O2087 1.970 . S
Li2027 N2077 1.990 . S
Li2027 O2085 1.961 . S
Li2027 O2086 1.970 . S
Li2027 O2087 1.956 . S
C2028 C2030 1.348 . S
C2028 C2031 1.356 . S
C2028 O2084 1.325 . S
N2029 C2032 1.314 . S
N2029 C2033 1.279 . S
C2030 C2028 1.348 . S
C2030 C2032 1.353 . S
C2030 H2088 0.929 . S
C2031 C2028 1.356 . S
C2031 C2033 1.358 . S
C2031 H2089 0.930 . S
C2032 N2029 1.314 . S
C2032 C2030 1.353 . S
C2032 H2090 0.930 . S
C2033 N2029 1.279 . S
C2033 C2031 1.358 . S
C2033 H2091 0.930 . S
C2034 C2037 1.348 . S
C2034 C2038 1.356 . S
C2034 O2085 1.325 . S
C2035 N2036 1.279 . S
C2035 C2038 1.358 . S
C2035 H2092 0.930 . S
N2036 C2035 1.279 . S
N2036 C2039 1.314 . S
C2037 C2034 1.348 . S
C2037 C2039 1.353 . S
C2037 H2093 0.929 . S
C2038 C2034 1.356 . S
C2038 C2035 1.358 . S
C2038 H2094 0.930 . S
C2039 N2036 1.314 . S
C2039 C2037 1.353 . S
C2039 H2095 0.930 . S
C2040 N2041 1.314 . S
C2040 C2045 1.353 . S
C2040 H2046 0.930 . S
N2041 Li2024 1.990 . S
N2041 C2040 1.314 . S
N2041 C2043 1.279 . S
C2042 C2043 1.358 . S
C2042 C2044 1.356 . S
C2042 H2096 0.930 . S
C2043 N2041 1.279 . S
C2043 C2042 1.358 . S
C2043 H2047 0.930 . S
C2044 C2042 1.356 . S
C2044 C2045 1.348 . S
C2045 C2040 1.353 . S
C2045 C2044 1.348 . S
C2045 H2097 0.929 . S
H2046 C2040 0.930 . S
H2047 C2043 0.930 . S
C2048 N2049 1.314 . S
C2048 C2050 1.353 . S
C2048 H2054 0.930 . S
N2049 Li2025 1.990 . S
N2049 C2048 1.314 . S
N2049 C2052 1.279 . S
C2050 C2048 1.353 . S
C2050 C2053 1.348 . S
C2050 H2098 0.929 . S
C2051 C2052 1.358 . S
C2051 C2053 1.356 . S
C2051 H2099 0.930 . S
C2052 N2049 1.279 . S
C2052 C2051 1.358 . S
C2052 H2055 0.930 . S
C2053 C2050 1.348 . S
C2053 C2051 1.356 . S
H2054 C2048 0.930 . S
H2055 C2052 0.930 . S
C2056 C2058 1.348 . S
C2056 C2059 1.356 . S
C2056 O2086 1.325 . S
N2057 C2060 1.314 . S
N2057 C2061 1.279 . S
C2058 C2056 1.348 . S
C2058 C2060 1.353 . S
C2058 H2100 0.929 . S
C2059 C2056 1.356 . S
C2059 C2061 1.358 . S
C2059 H2101 0.930 . S
C2060 N2057 1.314 . S
C2060 C2058 1.353 . S
C2060 H2102 0.930 . S
C2061 N2057 1.279 . S
C2061 C2059 1.358 . S
C2061 H2103 0.930 . S
C2062 C2063 1.348 . S
C2062 C2064 1.356 . S
C2062 O2087 1.325 . S
C2063 C2062 1.348 . S
C2063 C2065 1.353 . S
C2063 H2104 0.929 . S
C2064 C2062 1.356 . S
C2064 C2066 1.358 . S
C2064 H2105 0.930 . S
C2065 C2063 1.353 . S
C2065 N2067 1.314 . S
C2065 H2106 0.930 . S
C2066 C2064 1.358 . S
C2066 N2067 1.279 . S
C2066 H2107 0.930 . S
N2067 C2065 1.314 . S
N2067 C2066 1.279 . S
C2068 C2070 1.353 . S
C2068 N2071 1.314 . S
C2068 H2074 0.930 . S
C2069 N2071 1.279 . S
C2069 C2072 1.358 . S
C2069 H2075 0.930 . S
C2070 C2068 1.353 . S
C2070 C2073 1.348 . S
C2070 H2108 0.929 . S
N2071 Li2026 1.990 . S
N2071 C2068 1.314 . S
N2071 C2069 1.279 . S
C2072 C2069 1.358 . S
C2072 C2073 1.356 . S
C2072 H2109 0.930 . S
C2073 C2070 1.348 . S
C2073 C2072 1.356 . S
H2074 C2068 0.930 . S
H2075 C2069 0.930 . S
C2076 N2077 1.314 . S
C2076 C2078 1.353 . S
C2076 H2082 0.930 . S
N2077 Li2027 1.990 . S
N2077 C2076 1.314 . S
N2077 C2080 1.279 . S
C2078 C2076 1.353 . S
C2078 C2081 1.348 . S
C2078 H2110 0.929 . S
C2079 C2080 1.358 . S
C2079 C2081 1.356 . S
C2079 H2111 0.930 . S
C2080 N2077 1.279 . S
C2080 C2079 1.358 . S
C2080 H2083 0.930 . S
C2081 C2078 1.348 . S
C2081 C2079 1.356 . S
H2082 C2076 0.930 . S
H2083 C2080 0.930 . S
O2084 Li2024 1.956 . S
O2084 Li2025 1.970 . S
O2084 Li2026 1.961 . S
O2084 C2028 1.325 . S
O2085 Li2024 1.970 . S
O2085 Li2025 1.956 . S
O2085 Li2027 1.961 . S
O2085 C2034 1.325 . S
O2086 Li2024 1.961 . S
O2086 Li2026 1.956 . S
O2086 Li2027 1.970 . S
O2086 C2056 1.325 . S
O2087 Li2025 1.961 . S
O2087 Li2026 1.970 . S
O2087 Li2027 1.956 . S
O2087 C2062 1.325 . S
H2088 C2030 0.929 . S
H2089 C2031 0.930 . S
H2090 C2032 0.930 . S
H2091 C2033 0.930 . S
H2092 C2035 0.930 . S
H2093 C2037 0.929 . S
H2094 C2038 0.930 . S
H2095 C2039 0.930 . S
H2096 C2042 0.930 . S
H2097 C2045 0.929 . S
H2098 C2050 0.929 . S
H2099 C2051 0.930 . S
H2100 C2058 0.929 . S
H2101 C2059 0.930 . S
H2102 C2060 0.930 . S
H2103 C2061 0.930 . S
H2104 C2063 0.929 . S
H2105 C2064 0.930 . S
H2106 C2065 0.930 . S
H2107 C2066 0.930 . S
H2108 C2070 0.929 . S
H2109 C2072 0.930 . S
H2110 C2078 0.929 . S
H2111 C2079 0.930 . S
H2112 C2118 0.930 . S
H2113 C2121 0.930 . S
H2114 C2122 0.930 . S
H2115 C2123 0.930 . S
H2116 C2126 0.930 . S
H2117 C2127 0.930 . S
C2118 H2112 0.930 . S
C2118 C2119 1.355 . S
C2118 C2120 1.415 . S
C2119 C2118 1.355 . S
C2119 C2121 1.419 . S
C2120 C2118 1.415 . S
C2120 C2125 1.425 1_545 S
C2120 C2127 1.409 1_545 S
C2121 H2113 0.930 . S
C2121 C2119 1.419 . S
C2121 C2122 1.362 . S
C2122 H2114 0.930 . S
C2122 C2121 1.362 . S
C2122 C2125 1.409 1_545 S
C2123 H2115 0.930 . S
C2123 C2124 1.355 . S
C2123 C2125 1.415 . S
C2124 C2123 1.355 . S
C2124 C2126 1.419 . S
C2125 C2120 1.425 1_565 S
C2125 C2122 1.409 1_565 S
C2125 C2123 1.415 . S
C2126 H2116 0.930 . S
C2126 C2124 1.419 . S
C2126 C2127 1.362 . S
C2127 H2117 0.930 . S
C2127 C2120 1.409 1_565 S
C2127 C2126 1.362 . S
H2128 C2134 0.930 . S
H2129 C2137 0.930 . S
H2130 C2138 0.930 . S
H2131 C2139 0.930 . S
H2132 C2142 0.930 . S
H2133 C2143 0.930 . S
C2134 H2128 0.930 . S
C2134 C2135 1.355 . S
C2134 C2136 1.415 . S
C2135 C2134 1.355 . S
C2135 C2137 1.419 . S
C2136 C2134 1.415 . S
C2136 C2141 1.425 . S
C2136 C2143 1.409 . S
C2137 H2129 0.930 . S
C2137 C2135 1.419 . S
C2137 C2138 1.362 . S
C2138 H2130 0.930 . S
C2138 C2137 1.362 . S
C2138 C2141 1.409 . S
C2139 H2131 0.930 . S
C2139 C2140 1.355 . S
C2139 C2141 1.415 . S
C2140 C2139 1.355 . S
C2140 C2142 1.419 . S
C2141 C2136 1.425 . S
C2141 C2138 1.409 . S
C2141 C2139 1.415 . S
C2142 H2132 0.930 . S
C2142 C2140 1.419 . S
C2142 C2143 1.362 . S
C2143 H2133 0.930 . S
C2143 C2136 1.409 . S
C2143 C2142 1.362 . S
H2144 C2150 0.930 . S
H2145 C2153 0.930 . S
H2146 C2154 0.930 . S
H2147 C2155 0.930 . S
H2148 C2158 0.930 . S
H2149 C2159 0.930 . S
C2150 H2144 0.930 . S
C2150 C2151 1.355 . S
C2150 C2152 1.415 . S
C2151 C2150 1.355 . S
C2151 C2153 1.419 . S
C2152 C2150 1.415 . S
C2152 C2157 1.425 1_655 S
C2152 C2159 1.409 1_655 S
C2153 H2145 0.930 . S
C2153 C2151 1.419 . S
C2153 C2154 1.362 . S
C2154 H2146 0.930 . S
C2154 C2153 1.362 . S
C2154 C2157 1.409 1_655 S
C2155 H2147 0.930 . S
C2155 C2156 1.355 . S
C2155 C2157 1.415 . S
C2156 C2155 1.355 . S
C2156 C2158 1.419 . S
C2157 C2152 1.425 1_455 S
C2157 C2154 1.409 1_455 S
C2157 C2155 1.415 . S
C2158 H2148 0.930 . S
C2158 C2156 1.419 . S
C2158 C2159 1.362 . S
C2159 H2149 0.930 . S
C2159 C2152 1.409 1_455 S
C2159 C2158 1.362 . S
H2160 C2166 0.930 . S
H2161 C2169 0.930 . S
H2162 C2170 0.930 . S
H2163 C2171 0.930 . S
H2164 C2174 0.930 . S
H2165 C2175 0.930 . S
C2166 H2160 0.930 . S
C2166 C2167 1.355 . S
C2166 C2168 1.412 . S
C2167 C2166 1.355 . S
C2167 C2169 1.419 . S
C2168 C2166 1.412 . S
C2168 C2173 1.425 1_565 S
C2168 C2175 1.412 1_565 S
C2169 H2161 0.930 . S
C2169 C2167 1.419 . S
C2169 C2170 1.362 . S
C2170 H2162 0.930 . S
C2170 C2169 1.362 . S
C2170 C2173 1.412 1_565 S
C2171 H2163 0.930 . S
C2171 C2172 1.355 . S
C2171 C2173 1.412 . S
C2172 C2171 1.355 . S
C2172 C2174 1.419 . S
C2173 C2168 1.425 1_545 S
C2173 C2170 1.412 1_545 S
C2173 C2171 1.412 . S
C2174 H2164 0.930 . S
C2174 C2172 1.419 . S
C2174 C2175 1.362 . S
C2175 H2165 0.930 . S
C2175 C2168 1.412 1_545 S
C2175 C2174 1.362 . S
H2176 C2182 0.930 . S
H2177 C2185 0.930 . S
H2178 C2186 0.930 . S
H2179 C2187 0.930 . S
H2180 C2190 0.930 . S
H2181 C2191 0.930 . S
C2182 H2176 0.930 . S
C2182 C2183 1.355 . S
C2182 C2184 1.415 . S
C2183 C2182 1.355 . S
C2183 C2185 1.419 . S
C2184 C2182 1.415 . S
C2184 C2189 1.425 . S
C2184 C2191 1.409 . S
C2185 H2177 0.930 . S
C2185 C2183 1.419 . S
C2185 C2186 1.362 . S
C2186 H2178 0.930 . S
C2186 C2185 1.362 . S
C2186 C2189 1.409 . S
C2187 H2179 0.930 . S
C2187 C2188 1.355 . S
C2187 C2189 1.415 . S
C2188 C2187 1.355 . S
C2188 C2190 1.419 . S
C2189 C2184 1.425 . S
C2189 C2186 1.409 . S
C2189 C2187 1.415 . S
C2190 H2180 0.930 . S
C2190 C2188 1.419 . S
C2190 C2191 1.362 . S
C2191 H2181 0.930 . S
C2191 C2184 1.409 . S
C2191 C2190 1.362 . S
H2192 C2198 0.930 . S
H2193 C2201 0.930 . S
H2194 C2202 0.930 1_655 S
H2195 C2203 0.930 . S
H2196 C2206 0.930 . S
H2197 C2207 0.930 1_455 S
C2198 H2192 0.930 . S
C2198 C2199 1.355 . S
C2198 C2200 1.415 . S
C2199 C2198 1.355 . S
C2199 C2201 1.419 . S
C2200 C2198 1.415 . S
C2200 C2205 1.425 1_455 S
C2200 C2207 1.409 1_455 S
C2201 H2193 0.930 . S
C2201 C2199 1.419 . S
C2201 C2202 1.362 . S
C2202 H2194 0.930 1_455 S
C2202 C2201 1.362 . S
C2202 C2205 1.409 1_455 S
C2203 H2195 0.930 . S
C2203 C2204 1.355 . S
C2203 C2205 1.415 . S
C2204 C2203 1.355 . S
C2204 C2206 1.419 . S
C2205 C2200 1.425 1_655 S
C2205 C2202 1.409 1_655 S
C2205 C2203 1.415 . S
C2206 H2196 0.930 . S
C2206 C2204 1.419 . S
C2206 C2207 1.362 . S
C2207 H2197 0.930 1_655 S
C2207 C2200 1.409 1_655 S
C2207 C2206 1.362 . S
H2208 C2214 0.930 . S
H2209 C2217 0.930 . S
H2210 C2218 0.930 1_545 S
H2211 C2219 0.930 . S
H2212 C2222 0.930 . S
H2213 C2223 0.930 1_565 S
C2214 H2208 0.930 . S
C2214 C2215 1.355 . S
C2214 C2216 1.415 . S
C2215 C2214 1.355 . S
C2215 C2217 1.419 . S
C2216 C2214 1.415 . S
C2216 C2221 1.425 1_565 S
C2216 C2223 1.409 1_565 S
C2217 H2209 0.930 . S
C2217 C2215 1.419 . S
C2217 C2218 1.362 . S
C2218 H2210 0.930 1_565 S
C2218 C2217 1.362 . S
C2218 C2221 1.409 1_565 S
C2219 H2211 0.930 . S
C2219 C2220 1.355 . S
C2219 C2221 1.415 . S
C2220 C2219 1.355 . S
C2220 C2222 1.419 . S
C2221 C2216 1.425 1_545 S
C2221 C2218 1.409 1_545 S
C2221 C2219 1.415 . S
C2222 H2212 0.930 . S
C2222 C2220 1.419 . S
C2222 C2223 1.362 . S
C2223 H2213 0.930 1_545 S
C2223 C2216 1.409 1_545 S
C2223 C2222 1.362 . S
H2224 C2230 0.930 . S
H2225 C2233 0.930 . S
H2226 C2234 0.930 . S
H2227 C2235 0.930 . S
H2228 C2238 0.930 . S
H2229 C2239 0.930 . S
C2230 H2224 0.930 . S
C2230 C2231 1.355 . S
C2230 C2232 1.415 . S
C2231 C2230 1.355 . S
C2231 C2233 1.419 . S
C2232 C2230 1.415 . S
C2232 C2237 1.425 . S
C2232 C2239 1.409 . S
C2233 H2225 0.930 . S
C2233 C2231 1.419 . S
C2233 C2234 1.362 . S
C2234 H2226 0.930 . S
C2234 C2233 1.362 . S
C2234 C2237 1.409 . S
C2235 H2227 0.930 . S
C2235 C2236 1.355 . S
C2235 C2237 1.415 . S
C2236 C2235 1.355 . S
C2236 C2238 1.419 . S
C2237 C2232 1.425 . S
C2237 C2234 1.409 . S
C2237 C2235 1.415 . S
C2238 H2228 0.930 . S
C2238 C2236 1.419 . S
C2238 C2239 1.362 . S
C2239 H2229 0.930 . S
C2239 C2232 1.409 . S
C2239 C2238 1.362 . S
H2240 C2246 0.930 . S
H2241 C2249 0.930 . S
H2242 C2250 0.930 . S
H2243 C2251 0.930 . S
H2244 C2254 0.930 . S
H2245 C2255 0.930 . S
C2246 H2240 0.930 . S
C2246 C2247 1.355 . S
C2246 C2248 1.415 . S
C2247 C2246 1.355 . S
C2247 C2249 1.419 . S
C2248 C2246 1.415 . S
C2248 C2253 1.425 1_655 S
C2248 C2255 1.409 1_655 S
C2249 H2241 0.930 . S
C2249 C2247 1.419 . S
C2249 C2250 1.362 . S
C2250 H2242 0.930 . S
C2250 C2249 1.362 . S
C2250 C2253 1.409 1_655 S
C2251 H2243 0.930 . S
C2251 C2252 1.355 . S
C2251 C2253 1.415 . S
C2252 C2251 1.355 . S
C2252 C2254 1.419 . S
C2253 C2248 1.425 1_455 S
C2253 C2250 1.409 1_455 S
C2253 C2251 1.415 . S
C2254 H2244 0.930 . S
C2254 C2252 1.419 . S
C2254 C2255 1.362 . S
C2255 H2245 0.930 . S
C2255 C2248 1.409 1_455 S
C2255 C2254 1.362 . S
H2256 C2262 0.930 . S
H2257 C2265 0.930 . S
H2258 C2266 0.930 1_565 S
H2259 C2267 0.930 . S
H2260 C2270 0.930 . S
H2261 C2271 0.930 1_545 S
C2262 H2256 0.930 . S
C2262 C2263 1.355 . S
C2262 C2264 1.415 . S
C2263 C2262 1.355 . S
C2263 C2265 1.419 . S
C2264 C2262 1.415 . S
C2264 C2269 1.425 1_545 S
C2264 C2271 1.409 1_545 S
C2265 H2257 0.930 . S
C2265 C2263 1.419 . S
C2265 C2266 1.362 . S
C2266 H2258 0.930 1_545 S
C2266 C2265 1.362 . S
C2266 C2269 1.409 1_545 S
C2267 H2259 0.930 . S
C2267 C2268 1.355 . S
C2267 C2269 1.415 . S
C2268 C2267 1.355 . S
C2268 C2270 1.419 . S
C2269 C2264 1.425 1_565 S
C2269 C2266 1.409 1_565 S
C2269 C2267 1.415 . S
C2270 H2260 0.930 . S
C2270 C2268 1.419 . S
C2270 C2271 1.362 . S
C2271 H2261 0.930 1_565 S
C2271 C2264 1.409 1_565 S
C2271 C2270 1.362 . S
H2272 C2278 0.930 . S
H2273 C2281 0.930 . S
H2274 C2282 0.930 . S
H2275 C2283 0.930 . S
H2276 C2286 0.930 . S
H2277 C2287 0.930 . S
C2278 H2272 0.930 . S
C2278 C2279 1.355 . S
C2278 C2280 1.415 . S
C2279 C2278 1.355 . S
C2279 C2281 1.419 . S
C2280 C2278 1.415 . S
C2280 C2285 1.425 . S
C2280 C2287 1.409 . S
C2281 H2273 0.930 . S
C2281 C2279 1.419 . S
C2281 C2282 1.362 . S
C2282 H2274 0.930 . S
C2282 C2281 1.362 . S
C2282 C2285 1.409 . S
C2283 H2275 0.930 . S
C2283 C2284 1.355 . S
C2283 C2285 1.415 . S
C2284 C2283 1.355 . S
C2284 C2286 1.419 . S
C2285 C2280 1.425 . S
C2285 C2282 1.409 . S
C2285 C2283 1.415 . S
C2286 H2276 0.930 . S
C2286 C2284 1.419 . S
C2286 C2287 1.362 . S
C2287 H2277 0.930 . S
C2287 C2280 1.409 . S
C2287 C2286 1.362 . S
H2288 C2294 0.930 . S
H2289 C2297 0.930 . S
H2290 C2298 0.930 . S
H2291 C2299 0.930 . S
H2292 C2302 0.930 . S
H2293 C2303 0.930 . S
C2294 H2288 0.930 . S
C2294 C2295 1.355 . S
C2294 C2296 1.415 . S
C2295 C2294 1.355 . S
C2295 C2297 1.419 . S
C2296 C2294 1.415 . S
C2296 C2301 1.425 1_455 S
C2296 C2303 1.409 1_455 S
C2297 H2289 0.930 . S
C2297 C2295 1.419 . S
C2297 C2298 1.362 . S
C2298 H2290 0.930 . S
C2298 C2297 1.362 . S
C2298 C2301 1.409 1_455 S
C2299 H2291 0.930 . S
C2299 C2300 1.355 . S
C2299 C2301 1.415 . S
C2300 C2299 1.355 . S
C2300 C2302 1.419 . S
C2301 C2296 1.425 1_655 S
C2301 C2298 1.409 1_655 S
C2301 C2299 1.415 . S
C2302 H2292 0.930 . S
C2302 C2300 1.419 . S
C2302 C2303 1.362 . S
C2303 H2293 0.930 . S
C2303 C2296 1.409 1_655 S
C2303 C2302 1.362 . S
H2304 C2310 0.930 . S
H2305 C2313 0.930 . S
H2306 C2314 0.930 . S
H2307 C2315 0.930 . S
H2308 C2318 0.930 . S
H2309 C2319 0.930 . S
C2310 H2304 0.930 . S
C2310 C2311 1.355 . S
C2310 C2312 1.415 . S
C2311 C2310 1.355 . S
C2311 C2313 1.419 . S
C2312 C2310 1.415 . S
C2312 C2317 1.425 . S
C2312 C2319 1.409 . S
C2313 H2305 0.930 . S
C2313 C2311 1.419 . S
C2313 C2314 1.362 . S
C2314 H2306 0.930 . S
C2314 C2313 1.362 . S
C2314 C2317 1.409 . S
C2315 H2307 0.930 . S
C2315 C2316 1.355 . S
C2315 C2317 1.415 . S
C2316 C2315 1.355 . S
C2316 C2318 1.419 . S
C2317 C2312 1.425 . S
C2317 C2314 1.409 . S
C2317 C2315 1.415 . S
C2318 H2308 0.930 . S
C2318 C2316 1.419 . S
C2318 C2319 1.362 . S
C2319 H2309 0.930 . S
C2319 C2312 1.409 . S
C2319 C2318 1.362 . S
H2320 C2326 0.930 . S
H2321 C2329 0.930 . S
H2322 C2330 0.930 . S
H2323 C2331 0.930 . S
H2324 C2334 0.930 . S
H2325 C2335 0.930 . S
C2326 H2320 0.930 . S
C2326 C2327 1.355 . S
C2326 C2328 1.415 . S
C2327 C2326 1.355 . S
C2327 C2329 1.419 . S
C2328 C2326 1.415 . S
C2328 C2333 1.425 . S
C2328 C2335 1.409 . S
C2329 H2321 0.930 . S
C2329 C2327 1.419 . S
C2329 C2330 1.362 . S
C2330 H2322 0.930 . S
C2330 C2329 1.362 . S
C2330 C2333 1.409 . S
C2331 H2323 0.930 . S
C2331 C2332 1.355 . S
C2331 C2333 1.415 . S
C2332 C2331 1.355 . S
C2332 C2334 1.419 . S
C2333 C2328 1.425 . S
C2333 C2330 1.409 . S
C2333 C2331 1.415 . S
C2334 H2324 0.930 . S
C2334 C2332 1.419 . S
C2334 C2335 1.362 . S
C2335 H2325 0.930 . S
C2335 C2328 1.409 . S
C2335 C2334 1.362 . S
H2336 C2342 0.930 . S
H2337 C2345 0.930 . S
H2338 C2346 0.930 . S
H2339 C2347 0.930 . S
H2340 C2350 0.930 . S
H2341 C2351 0.930 . S
C2342 H2336 0.930 . S
C2342 C2343 1.355 . S
C2342 C2344 1.415 . S
C2343 C2342 1.355 . S
C2343 C2345 1.419 . S
C2344 C2342 1.415 . S
C2344 C2349 1.425 . S
C2344 C2351 1.409 . S
C2345 H2337 0.930 . S
C2345 C2343 1.419 . S
C2345 C2346 1.362 . S
C2346 H2338 0.930 . S
C2346 C2345 1.362 . S
C2346 C2349 1.409 . S
C2347 H2339 0.930 . S
C2347 C2348 1.355 . S
C2347 C2349 1.415 . S
C2348 C2347 1.355 . S
C2348 C2350 1.419 . S
C2349 C2344 1.425 . S
C2349 C2346 1.409 . S
C2349 C2347 1.415 . S
C2350 H2340 0.930 . S
C2350 C2348 1.419 . S
C2350 C2351 1.362 . S
C2351 H2341 0.930 . S
C2351 C2344 1.409 . S
C2351 C2350 1.362 . S
H2352 C2358 0.930 . S
H2353 C2361 0.930 . S
H2354 C2362 0.930 . S
H2355 C2363 0.930 . S
H2356 C2366 0.930 . S
H2357 C2367 0.930 . S
C2358 H2352 0.930 . S
C2358 C2359 1.355 . S
C2358 C2360 1.415 . S
C2359 C2358 1.355 . S
C2359 C2361 1.419 . S
C2360 C2358 1.415 . S
C2360 C2365 1.425 . S
C2360 C2367 1.409 . S
C2361 H2353 0.930 . S
C2361 C2359 1.419 . S
C2361 C2362 1.362 . S
C2362 H2354 0.930 . S
C2362 C2361 1.362 . S
C2362 C2365 1.409 . S
C2363 H2355 0.930 . S
C2363 C2364 1.355 . S
C2363 C2365 1.415 . S
C2364 C2363 1.355 . S
C2364 C2366 1.419 . S
C2365 C2360 1.425 . S
C2365 C2362 1.409 . S
C2365 C2363 1.415 . S
C2366 H2356 0.930 . S
C2366 C2364 1.419 . S
C2366 C2367 1.362 . S
C2367 H2357 0.930 . S
C2367 C2360 1.409 . S
C2367 C2366 1.362 . S
H2368 C2374 0.930 . S
H2369 C2377 0.930 . S
H2370 C2378 0.930 . S
H2371 C2379 0.930 . S
H2372 C2382 0.930 . S
H2373 C2383 0.930 . S
C2374 H2368 0.930 . S
C2374 C2375 1.355 . S
C2374 C2376 1.415 . S
C2375 C2374 1.355 . S
C2375 C2377 1.419 . S
C2376 C2374 1.415 . S
C2376 C2381 1.425 . S
C2376 C2383 1.409 . S
C2377 H2369 0.930 . S
C2377 C2375 1.419 . S
C2377 C2378 1.362 . S
C2378 H2370 0.930 . S
C2378 C2377 1.362 . S
C2378 C2381 1.409 . S
C2379 H2371 0.930 . S
C2379 C2380 1.355 . S
C2379 C2381 1.415 . S
C2380 C2379 1.355 . S
C2380 C2382 1.419 . S
C2381 C2376 1.425 . S
C2381 C2378 1.409 . S
C2381 C2379 1.415 . S
C2382 H2372 0.930 . S
C2382 C2380 1.419 . S
C2382 C2383 1.362 . S
C2383 H2373 0.930 . S
C2383 C2376 1.409 . S
C2383 C2382 1.362 . S
H2384 C2390 0.930 . S
H2385 C2393 0.930 . S
H2386 C2394 0.930 . S
H2387 C2395 0.930 . S
H2388 C2398 0.930 . S
H2389 C2399 0.930 . S
C2390 H2384 0.930 . S
C2390 C2391 1.355 . S
C2390 C2392 1.415 . S
C2391 C2390 1.355 . S
C2391 C2393 1.419 . S
C2392 C2390 1.415 . S
C2392 C2397 1.425 . S
C2392 C2399 1.409 . S
C2393 H2385 0.930 . S
C2393 C2391 1.419 . S
C2393 C2394 1.362 . S
C2394 H2386 0.930 . S
C2394 C2393 1.362 . S
C2394 C2397 1.409 . S
C2395 H2387 0.930 . S
C2395 C2396 1.355 . S
C2395 C2397 1.415 . S
C2396 C2395 1.355 . S
C2396 C2398 1.419 . S
C2397 C2392 1.425 . S
C2397 C2394 1.409 . S
C2397 C2395 1.415 . S
C2398 H2388 0.930 . S
C2398 C2396 1.419 . S
C2398 C2399 1.362 . S
C2399 H2389 0.930 . S
C2399 C2392 1.409 . S
C2399 C2398 1.362 . S
H2400 C2406 0.930 . S
H2401 C2409 0.930 . S
H2402 C2410 0.930 . S
H2403 C2411 0.930 . S
H2404 C2414 0.930 . S
H2405 C2415 0.930 . S
C2406 H2400 0.930 . S
C2406 C2407 1.355 . S
C2406 C2408 1.415 . S
C2407 C2406 1.355 . S
C2407 C2409 1.419 . S
C2408 C2406 1.415 . S
C2408 C2413 1.425 . S
C2408 C2415 1.409 . S
C2409 H2401 0.930 . S
C2409 C2407 1.419 . S
C2409 C2410 1.362 . S
C2410 H2402 0.930 . S
C2410 C2409 1.362 . S
C2410 C2413 1.409 . S
C2411 H2403 0.930 . S
C2411 C2412 1.355 . S
C2411 C2413 1.415 . S
C2412 C2411 1.355 . S
C2412 C2414 1.419 . S
C2413 C2408 1.425 . S
C2413 C2410 1.409 . S
C2413 C2411 1.415 . S
C2414 H2404 0.930 . S
C2414 C2412 1.419 . S
C2414 C2415 1.362 . S
C2415 H2405 0.930 . S
C2415 C2408 1.409 . S
C2415 C2414 1.362 . S
H2416 C2422 0.930 . S
H2417 C2425 0.930 . S
H2418 C2426 0.930 . S
H2419 C2427 0.930 . S
H2420 C2430 0.930 . S
H2421 C2431 0.930 . S
C2422 H2416 0.930 . S
C2422 C2423 1.355 . S
C2422 C2424 1.415 . S
C2423 C2422 1.355 . S
C2423 C2425 1.419 . S
C2424 C2422 1.415 . S
C2424 C2429 1.425 . S
C2424 C2431 1.409 . S
C2425 H2417 0.930 . S
C2425 C2423 1.419 . S
C2425 C2426 1.362 . S
C2426 H2418 0.930 . S
C2426 C2425 1.362 . S
C2426 C2429 1.409 . S
C2427 H2419 0.930 . S
C2427 C2428 1.355 . S
C2427 C2429 1.415 . S
C2428 C2427 1.355 . S
C2428 C2430 1.419 . S
C2429 C2424 1.425 . S
C2429 C2426 1.409 . S
C2429 C2427 1.415 . S
C2430 H2420 0.930 . S
C2430 C2428 1.419 . S
C2430 C2431 1.362 . S
C2431 H2421 0.930 . S
C2431 C2424 1.409 . S
C2431 C2430 1.362 . S
H2432 C2438 0.930 . S
H2433 C2441 0.930 . S
H2434 C2442 0.930 . S
H2435 C2443 0.930 . S
H2436 C2446 0.930 . S
H2437 C2447 0.930 . S
C2438 H2432 0.930 . S
C2438 C2439 1.355 . S
C2438 C2440 1.415 . S
C2439 C2438 1.355 . S
C2439 C2441 1.419 . S
C2440 C2438 1.415 . S
C2440 C2445 1.425 . S
C2440 C2447 1.409 . S
C2441 H2433 0.930 . S
C2441 C2439 1.419 . S
C2441 C2442 1.362 . S
C2442 H2434 0.930 . S
C2442 C2441 1.362 . S
C2442 C2445 1.409 . S
C2443 H2435 0.930 . S
C2443 C2444 1.355 . S
C2443 C2445 1.415 . S
C2444 C2443 1.355 . S
C2444 C2446 1.419 . S
C2445 C2440 1.425 . S
C2445 C2442 1.409 . S
C2445 C2443 1.415 . S
C2446 H2436 0.930 . S
C2446 C2444 1.419 . S
C2446 C2447 1.362 . S
C2447 H2437 0.930 . S
C2447 C2440 1.409 . S
C2447 C2446 1.362 . S
H2448 C2454 0.930 . S
H2449 C2457 0.930 . S
H2450 C2458 0.930 . S
H2451 C2459 0.930 . S
H2452 C2462 0.930 . S
H2453 C2463 0.930 . S
C2454 H2448 0.930 . S
C2454 C2455 1.355 . S
C2454 C2456 1.415 . S
C2455 C2454 1.355 . S
C2455 C2457 1.419 . S
C2456 C2454 1.415 . S
C2456 C2461 1.425 . S
C2456 C2463 1.409 . S
C2457 H2449 0.930 . S
C2457 C2455 1.419 . S
C2457 C2458 1.362 . S
C2458 H2450 0.930 . S
C2458 C2457 1.362 . S
C2458 C2461 1.409 . S
C2459 H2451 0.930 . S
C2459 C2460 1.355 . S
C2459 C2461 1.415 . S
C2460 C2459 1.355 . S
C2460 C2462 1.419 . S
C2461 C2456 1.425 . S
C2461 C2458 1.409 . S
C2461 C2459 1.415 . S
C2462 H2452 0.930 . S
C2462 C2460 1.419 . S
C2462 C2463 1.362 . S
C2463 H2453 0.930 . S
C2463 C2456 1.409 . S
C2463 C2462 1.362 . S
H2464 C2470 0.930 . S
H2465 C2473 0.930 . S
H2466 C2474 0.930 . S
H2467 C2475 0.930 . S
H2468 C2478 0.930 . S
H2469 C2479 0.930 . S
C2470 H2464 0.930 . S
C2470 C2471 1.355 . S
C2470 C2472 1.415 . S
C2471 C2470 1.355 . S
C2471 C2473 1.419 . S
C2472 C2470 1.415 . S
C2472 C2477 1.425 . S
C2472 C2479 1.409 . S
C2473 H2465 0.930 . S
C2473 C2471 1.419 . S
C2473 C2474 1.362 . S
C2474 H2466 0.930 . S
C2474 C2473 1.362 . S
C2474 C2477 1.409 . S
C2475 H2467 0.930 . S
C2475 C2476 1.355 . S
C2475 C2477 1.415 . S
C2476 C2475 1.355 . S
C2476 C2478 1.419 . S
C2477 C2472 1.425 . S
C2477 C2474 1.409 . S
C2477 C2475 1.415 . S
C2478 H2468 0.930 . S
C2478 C2476 1.419 . S
C2478 C2479 1.362 . S
C2479 H2469 0.930 . S
C2479 C2472 1.409 . S
C2479 C2478 1.362 . S
H2480 C2486 0.930 . S
H2481 C2489 0.930 . S
H2482 C2490 0.930 . S
H2483 C2491 0.930 . S
H2484 C2494 0.930 . S
H2485 C2495 0.930 . S
C2486 H2480 0.930 . S
C2486 C2487 1.355 . S
C2486 C2488 1.415 . S
C2487 C2486 1.355 . S
C2487 C2489 1.419 . S
C2488 C2486 1.415 . S
C2488 C2493 1.425 . S
C2488 C2495 1.409 . S
C2489 H2481 0.930 . S
C2489 C2487 1.419 . S
C2489 C2490 1.362 . S
C2490 H2482 0.930 . S
C2490 C2489 1.362 . S
C2490 C2493 1.409 . S
C2491 H2483 0.930 . S
C2491 C2492 1.355 . S
C2491 C2493 1.415 . S
C2492 C2491 1.355 . S
C2492 C2494 1.419 . S
C2493 C2488 1.425 . S
C2493 C2490 1.409 . S
C2493 C2491 1.415 . S
C2494 H2484 0.930 . S
C2494 C2492 1.419 . S
C2494 C2495 1.362 . S
C2495 H2485 0.930 . S
C2495 C2488 1.409 . S
C2495 C2494 1.362 . S
H2496 C2502 0.930 . S
H2497 C2505 0.930 . S
H2498 C2506 0.930 . S
H2499 C2507 0.930 . S
H2500 C2510 0.930 . S
H2501 C2511 0.930 . S
C2502 H2496 0.930 . S
C2502 C2503 1.355 . S
C2502 C2504 1.415 . S
C2503 C2502 1.355 . S
C2503 C2505 1.419 . S
C2504 C2502 1.415 . S
C2504 C2509 1.425 1_554 S
C2504 C2511 1.409 1_554 S
C2505 H2497 0.930 . S
C2505 C2503 1.419 . S
C2505 C2506 1.362 . S
C2506 H2498 0.930 . S
C2506 C2505 1.362 . S
C2506 C2509 1.409 1_554 S
C2507 H2499 0.930 . S
C2507 C2508 1.355 . S
C2507 C2509 1.415 . S
C2508 C2507 1.355 . S
C2508 C2510 1.419 . S
C2509 C2504 1.425 1_556 S
C2509 C2506 1.409 1_556 S
C2509 C2507 1.415 . S
C2510 H2500 0.930 . S
C2510 C2508 1.419 . S
C2510 C2511 1.362 . S
C2511 H2501 0.930 . S
C2511 C2504 1.409 1_556 S
C2511 C2510 1.362 . S
H2512 C2518 0.930 . S
H2513 C2521 0.930 . S
H2514 C2522 0.930 . S
H2515 C2523 0.930 . S
H2516 C2526 0.930 . S
H2517 C2527 0.930 . S
C2518 H2512 0.930 . S
C2518 C2519 1.355 . S
C2518 C2520 1.415 . S
C2519 C2518 1.355 . S
C2519 C2521 1.419 . S
C2520 C2518 1.415 . S
C2520 C2525 1.425 1_556 S
C2520 C2527 1.409 1_556 S
C2521 H2513 0.930 . S
C2521 C2519 1.419 . S
C2521 C2522 1.362 . S
C2522 H2514 0.930 . S
C2522 C2521 1.362 . S
C2522 C2525 1.409 1_556 S
C2523 H2515 0.930 . S
C2523 C2524 1.355 . S
C2523 C2525 1.415 . S
C2524 C2523 1.355 . S
C2524 C2526 1.419 . S
C2525 C2520 1.425 1_554 S
C2525 C2522 1.409 1_554 S
C2525 C2523 1.415 . S
C2526 H2516 0.930 . S
C2526 C2524 1.419 . S
C2526 C2527 1.362 . S
C2527 H2517 0.930 . S
C2527 C2520 1.409 1_554 S
C2527 C2526 1.362 . S
H2528 C2534 0.930 . S
H2529 C2537 0.930 . S
H2530 C2538 0.930 . S
H2531 C2539 0.930 . S
H2532 C2542 0.930 . S
H2533 C2543 0.930 . S
C2534 H2528 0.930 . S
C2534 C2535 1.355 . S
C2534 C2536 1.415 . S
C2535 C2534 1.355 . S
C2535 C2537 1.419 . S
C2536 C2534 1.415 . S
C2536 C2541 1.425 1_556 S
C2536 C2543 1.409 1_556 S
C2537 H2529 0.930 . S
C2537 C2535 1.419 . S
C2537 C2538 1.362 . S
C2538 H2530 0.930 . S
C2538 C2537 1.362 . S
C2538 C2541 1.409 1_556 S
C2539 H2531 0.930 . S
C2539 C2540 1.355 . S
C2539 C2541 1.415 . S
C2540 C2539 1.355 . S
C2540 C2542 1.419 . S
C2541 C2536 1.425 1_554 S
C2541 C2538 1.409 1_554 S
C2541 C2539 1.415 . S
C2542 H2532 0.930 . S
C2542 C2540 1.419 . S
C2542 C2543 1.362 . S
C2543 H2533 0.930 . S
C2543 C2536 1.409 1_554 S
C2543 C2542 1.362 . S
H2544 C2550 0.930 . S
H2545 C2553 0.930 . S
H2546 C2554 0.930 . S
H2547 C2555 0.930 . S
H2548 C2558 0.930 . S
H2549 C2559 0.930 . S
C2550 H2544 0.930 . S
C2550 C2551 1.355 . S
C2550 C2552 1.415 . S
C2551 C2550 1.355 . S
C2551 C2553 1.419 . S
C2552 C2550 1.415 . S
C2552 C2557 1.425 1_554 S
C2552 C2559 1.409 1_554 S
C2553 H2545 0.930 . S
C2553 C2551 1.419 . S
C2553 C2554 1.362 . S
C2554 H2546 0.930 . S
C2554 C2553 1.362 . S
C2554 C2557 1.409 1_554 S
C2555 H2547 0.930 . S
C2555 C2556 1.355 . S
C2555 C2557 1.415 . S
C2556 C2555 1.355 . S
C2556 C2558 1.419 . S
C2557 C2552 1.425 1_556 S
C2557 C2554 1.409 1_556 S
C2557 C2555 1.415 . S
C2558 H2548 0.930 . S
C2558 C2556 1.419 . S
C2558 C2559 1.362 . S
C2559 H2549 0.930 . S
C2559 C2552 1.409 1_556 S
C2559 C2558 1.362 . S
H2560 C2566 0.930 . S
H2561 C2569 0.930 . S
H2562 C2570 0.930 . S
H2563 C2571 0.930 . S
H2564 C2574 0.930 . S
H2565 C2575 0.930 . S
C2566 H2560 0.930 . S
C2566 C2567 1.355 . S
C2566 C2568 1.415 . S
C2567 C2566 1.355 . S
C2567 C2569 1.419 . S
C2568 C2566 1.415 . S
C2568 C2573 1.425 1_554 S
C2568 C2575 1.409 1_554 S
C2569 H2561 0.930 . S
C2569 C2567 1.419 . S
C2569 C2570 1.362 . S
C2570 H2562 0.930 . S
C2570 C2569 1.362 . S
C2570 C2573 1.409 1_554 S
C2571 H2563 0.930 . S
C2571 C2572 1.355 . S
C2571 C2573 1.415 . S
C2572 C2571 1.355 . S
C2572 C2574 1.419 . S
C2573 C2568 1.425 1_556 S
C2573 C2570 1.409 1_556 S
C2573 C2571 1.415 . S
C2574 H2564 0.930 . S
C2574 C2572 1.419 . S
C2574 C2575 1.362 . S
C2575 H2565 0.930 . S
C2575 C2568 1.409 1_556 S
C2575 C2574 1.362 . S
H2576 C2582 0.930 . S
H2577 C2585 0.930 . S
H2578 C2586 0.930 . S
H2579 C2587 0.930 . S
H2580 C2590 0.930 . S
H2581 C2591 0.930 . S
C2582 H2576 0.930 . S
C2582 C2583 1.355 . S
C2582 C2584 1.415 . S
C2583 C2582 1.355 . S
C2583 C2585 1.419 . S
C2584 C2582 1.415 . S
C2584 C2589 1.425 1_556 S
C2584 C2591 1.409 1_556 S
C2585 H2577 0.930 . S
C2585 C2583 1.419 . S
C2585 C2586 1.362 . S
C2586 H2578 0.930 . S
C2586 C2585 1.362 . S
C2586 C2589 1.409 1_556 S
C2587 H2579 0.930 . S
C2587 C2588 1.355 . S
C2587 C2589 1.415 . S
C2588 C2587 1.355 . S
C2588 C2590 1.419 . S
C2589 C2584 1.425 1_554 S
C2589 C2586 1.409 1_554 S
C2589 C2587 1.415 . S
C2590 H2580 0.930 . S
C2590 C2588 1.419 . S
C2590 C2591 1.362 . S
C2591 H2581 0.930 . S
C2591 C2584 1.409 1_554 S
C2591 C2590 1.362 . S
H2592 C2598 0.930 . S
H2593 C2601 0.930 . S
H2594 C2602 0.930 . S
H2595 C2603 0.930 . S
H2596 C2606 0.930 . S
H2597 C2607 0.930 . S
C2598 H2592 0.930 . S
C2598 C2599 1.355 . S
C2598 C2600 1.415 . S
C2599 C2598 1.355 . S
C2599 C2601 1.419 . S
C2600 C2598 1.415 . S
C2600 C2605 1.425 . S
C2600 C2607 1.409 . S
C2601 H2593 0.930 . S
C2601 C2599 1.419 . S
C2601 C2602 1.362 . S
C2602 H2594 0.930 . S
C2602 C2601 1.362 . S
C2602 C2605 1.409 . S
C2603 H2595 0.930 . S
C2603 C2604 1.355 . S
C2603 C2605 1.415 . S
C2604 C2603 1.355 . S
C2604 C2606 1.419 . S
C2605 C2600 1.425 . S
C2605 C2602 1.409 . S
C2605 C2603 1.415 . S
C2606 H2596 0.930 . S
C2606 C2604 1.419 . S
C2606 C2607 1.362 . S
C2607 H2597 0.930 . S
C2607 C2600 1.409 . S
C2607 C2606 1.362 . S
H2608 C2614 0.930 . S
H2609 C2617 0.930 . S
H2610 C2618 0.930 . S
H2611 C2619 0.930 . S
H2612 C2622 0.930 . S
H2613 C2623 0.930 . S
C2614 H2608 0.930 . S
C2614 C2615 1.355 . S
C2614 C2616 1.415 . S
C2615 C2614 1.355 . S
C2615 C2617 1.419 . S
C2616 C2614 1.415 . S
C2616 C2621 1.425 . S
C2616 C2623 1.409 . S
C2617 H2609 0.930 . S
C2617 C2615 1.419 . S
C2617 C2618 1.362 . S
C2618 H2610 0.930 . S
C2618 C2617 1.362 . S
C2618 C2621 1.409 . S
C2619 H2611 0.930 . S
C2619 C2620 1.355 . S
C2619 C2621 1.415 . S
C2620 C2619 1.355 . S
C2620 C2622 1.419 . S
C2621 C2616 1.425 . S
C2621 C2618 1.409 . S
C2621 C2619 1.415 . S
C2622 H2612 0.930 . S
C2622 C2620 1.419 . S
C2622 C2623 1.362 . S
C2623 H2613 0.930 . S
C2623 C2616 1.409 . S
C2623 C2622 1.362 . S
H2624 C2630 0.930 . S
H2625 C2633 0.930 . S
H2626 C2634 0.930 . S
H2627 C2635 0.930 . S
H2628 C2638 0.930 . S
H2629 C2639 0.930 . S
C2630 H2624 0.930 . S
C2630 C2631 1.355 . S
C2630 C2632 1.415 . S
C2631 C2630 1.355 . S
C2631 C2633 1.419 . S
C2632 C2630 1.415 . S
C2632 C2637 1.425 . S
C2632 C2639 1.409 . S
C2633 H2625 0.930 . S
C2633 C2631 1.419 . S
C2633 C2634 1.362 . S
C2634 H2626 0.930 . S
C2634 C2633 1.362 . S
C2634 C2637 1.409 . S
C2635 H2627 0.930 . S
C2635 C2636 1.355 . S
C2635 C2637 1.415 . S
C2636 C2635 1.355 . S
C2636 C2638 1.419 . S
C2637 C2632 1.425 . S
C2637 C2634 1.409 . S
C2637 C2635 1.415 . S
C2638 H2628 0.930 . S
C2638 C2636 1.419 . S
C2638 C2639 1.362 . S
C2639 H2629 0.930 . S
C2639 C2632 1.409 . S
C2639 C2638 1.362 . S
H2640 C2646 0.930 . S
H2641 C2649 0.930 . S
H2642 C2650 0.930 . S
H2643 C2651 0.930 . S
H2644 C2654 0.930 . S
H2645 C2655 0.930 . S
C2646 H2640 0.930 . S
C2646 C2647 1.355 . S
C2646 C2648 1.415 . S
C2647 C2646 1.355 . S
C2647 C2649 1.419 . S
C2648 C2646 1.415 . S
C2648 C2653 1.425 . S
C2648 C2655 1.409 . S
C2649 H2641 0.930 . S
C2649 C2647 1.419 . S
C2649 C2650 1.362 . S
C2650 H2642 0.930 . S
C2650 C2649 1.362 . S
C2650 C2653 1.409 . S
C2651 H2643 0.930 . S
C2651 C2652 1.355 . S
C2651 C2653 1.415 . S
C2652 C2651 1.355 . S
C2652 C2654 1.419 . S
C2653 C2648 1.425 . S
C2653 C2650 1.409 . S
C2653 C2651 1.415 . S
C2654 H2644 0.930 . S
C2654 C2652 1.419 . S
C2654 C2655 1.362 . S
C2655 H2645 0.930 . S
C2655 C2648 1.409 . S
C2655 C2654 1.362 . S
H2656 C2662 0.930 . S
H2657 C2665 0.930 . S
H2658 C2666 0.930 . S
H2659 C2667 0.930 . S
H2660 C2670 0.930 . S
H2661 C2671 0.930 . S
C2662 H2656 0.930 . S
C2662 C2663 1.355 . S
C2662 C2664 1.415 . S
C2663 C2662 1.355 . S
C2663 C2665 1.419 . S
C2664 C2662 1.415 . S
C2664 C2669 1.425 . S
C2664 C2671 1.409 . S
C2665 H2657 0.930 . S
C2665 C2663 1.419 . S
C2665 C2666 1.362 . S
C2666 H2658 0.930 . S
C2666 C2665 1.362 . S
C2666 C2669 1.409 . S
C2667 H2659 0.930 . S
C2667 C2668 1.355 . S
C2667 C2669 1.415 . S
C2668 C2667 1.355 . S
C2668 C2670 1.419 . S
C2669 C2664 1.425 . S
C2669 C2666 1.409 . S
C2669 C2667 1.415 . S
C2670 H2660 0.930 . S
C2670 C2668 1.419 . S
C2670 C2671 1.362 . S
C2671 H2661 0.930 . S
C2671 C2664 1.409 . S
C2671 C2670 1.362 . S
H2672 C2678 0.930 . S
H2673 C2681 0.930 . S
H2674 C2682 0.930 . S
H2675 C2683 0.930 . S
H2676 C2686 0.930 . S
H2677 C2687 0.930 . S
C2678 H2672 0.930 . S
C2678 C2679 1.355 . S
C2678 C2680 1.415 . S
C2679 C2678 1.355 . S
C2679 C2681 1.419 . S
C2680 C2678 1.415 . S
C2680 C2685 1.425 . S
C2680 C2687 1.409 . S
C2681 H2673 0.930 . S
C2681 C2679 1.419 . S
C2681 C2682 1.362 . S
C2682 H2674 0.930 . S
C2682 C2681 1.362 . S
C2682 C2685 1.409 . S
C2683 H2675 0.930 . S
C2683 C2684 1.355 . S
C2683 C2685 1.415 . S
C2684 C2683 1.355 . S
C2684 C2686 1.419 . S
C2685 C2680 1.425 . S
C2685 C2682 1.409 . S
C2685 C2683 1.415 . S
C2686 H2676 0.930 . S
C2686 C2684 1.419 . S
C2686 C2687 1.362 . S
C2687 H2677 0.930 . S
C2687 C2680 1.409 . S
C2687 C2686 1.362 . S
H2688 C2694 0.930 . S
H2689 C2697 0.930 . S
H2690 C2698 0.930 . S
H2691 C2699 0.930 . S
H2692 C2702 0.930 . S
H2693 C2703 0.930 . S
C2694 H2688 0.930 . S
C2694 C2695 1.355 . S
C2694 C2696 1.415 . S
C2695 C2694 1.355 . S
C2695 C2697 1.419 . S
C2696 C2694 1.415 . S
C2696 C2701 1.425 . S
C2696 C2703 1.409 . S
C2697 H2689 0.930 . S
C2697 C2695 1.419 . S
C2697 C2698 1.362 . S
C2698 H2690 0.930 . S
C2698 C2697 1.362 . S
C2698 C2701 1.409 . S
C2699 H2691 0.930 . S
C2699 C2700 1.355 . S
C2699 C2701 1.415 . S
C2700 C2699 1.355 . S
C2700 C2702 1.419 . S
C2701 C2696 1.425 . S
C2701 C2698 1.409 . S
C2701 C2699 1.415 . S
C2702 H2692 0.930 . S
C2702 C2700 1.419 . S
C2702 C2703 1.362 . S
C2703 H2693 0.930 . S
C2703 C2696 1.409 . S
C2703 C2702 1.362 . S
H2704 C2710 0.930 . S
H2705 C2713 0.930 . S
H2706 C2714 0.930 . S
H2707 C2715 0.930 . S
H2708 C2718 0.930 . S
H2709 C2719 0.930 . S
C2710 H2704 0.930 . S
C2710 C2711 1.355 . S
C2710 C2712 1.415 . S
C2711 C2710 1.355 . S
C2711 C2713 1.419 . S
C2712 C2710 1.415 . S
C2712 C2717 1.425 . S
C2712 C2719 1.409 . S
C2713 H2705 0.930 . S
C2713 C2711 1.419 . S
C2713 C2714 1.362 . S
C2714 H2706 0.930 . S
C2714 C2713 1.362 . S
C2714 C2717 1.409 . S
C2715 H2707 0.930 . S
C2715 C2716 1.355 . S
C2715 C2717 1.415 . S
C2716 C2715 1.355 . S
C2716 C2718 1.419 . S
C2717 C2712 1.425 . S
C2717 C2714 1.409 . S
C2717 C2715 1.415 . S
C2718 H2708 0.930 . S
C2718 C2716 1.419 . S
C2718 C2719 1.362 . S
C2719 H2709 0.930 . S
C2719 C2712 1.409 . S
C2719 C2718 1.362 . S
H2720 C2726 0.930 . S
H2721 C2729 0.930 . S
H2722 C2730 0.930 . S
H2723 C2731 0.930 . S
H2724 C2734 0.930 . S
H2725 C2735 0.930 . S
C2726 H2720 0.930 . S
C2726 C2727 1.355 . S
C2726 C2728 1.415 . S
C2727 C2726 1.355 . S
C2727 C2729 1.419 . S
C2728 C2726 1.415 . S
C2728 C2733 1.425 . S
C2728 C2735 1.409 . S
C2729 H2721 0.930 . S
C2729 C2727 1.419 . S
C2729 C2730 1.362 . S
C2730 H2722 0.930 . S
C2730 C2729 1.362 . S
C2730 C2733 1.409 . S
C2731 H2723 0.930 . S
C2731 C2732 1.355 . S
C2731 C2733 1.415 . S
C2732 C2731 1.355 . S
C2732 C2734 1.419 . S
C2733 C2728 1.425 . S
C2733 C2730 1.409 . S
C2733 C2731 1.415 . S
C2734 H2724 0.930 . S
C2734 C2732 1.419 . S
C2734 C2735 1.362 . S
C2735 H2725 0.930 . S
C2735 C2728 1.409 . S
C2735 C2734 1.362 . S
H2736 C2742 0.930 . S
H2737 C2745 0.930 . S
H2738 C2746 0.930 . S
H2739 C2747 0.930 . S
H2740 C2750 0.930 . S
H2741 C2751 0.930 . S
C2742 H2736 0.930 . S
C2742 C2743 1.355 . S
C2742 C2744 1.415 . S
C2743 C2742 1.355 . S
C2743 C2745 1.419 . S
C2744 C2742 1.415 . S
C2744 C2749 1.425 . S
C2744 C2751 1.409 . S
C2745 H2737 0.930 . S
C2745 C2743 1.419 . S
C2745 C2746 1.362 . S
C2746 H2738 0.930 . S
C2746 C2745 1.362 . S
C2746 C2749 1.409 . S
C2747 H2739 0.930 . S
C2747 C2748 1.355 . S
C2747 C2749 1.415 . S
C2748 C2747 1.355 . S
C2748 C2750 1.419 . S
C2749 C2744 1.425 . S
C2749 C2746 1.409 . S
C2749 C2747 1.415 . S
C2750 H2740 0.930 . S
C2750 C2748 1.419 . S
C2750 C2751 1.362 . S
C2751 H2741 0.930 . S
C2751 C2744 1.409 . S
C2751 C2750 1.362 . S
H2752 C2758 0.930 . S
H2753 C2761 0.930 . S
H2754 C2762 0.930 . S
H2755 C2763 0.930 . S
H2756 C2766 0.930 . S
H2757 C2767 0.930 . S
C2758 H2752 0.930 . S
C2758 C2759 1.355 . S
C2758 C2760 1.415 . S
C2759 C2758 1.355 . S
C2759 C2761 1.419 . S
C2760 C2758 1.415 . S
C2760 C2765 1.425 . S
C2760 C2767 1.409 . S
C2761 H2753 0.930 . S
C2761 C2759 1.419 . S
C2761 C2762 1.362 . S
C2762 H2754 0.930 . S
C2762 C2761 1.362 . S
C2762 C2765 1.409 . S
C2763 H2755 0.930 . S
C2763 C2764 1.355 . S
C2763 C2765 1.415 . S
C2764 C2763 1.355 . S
C2764 C2766 1.419 . S
C2765 C2760 1.425 . S
C2765 C2762 1.409 . S
C2765 C2763 1.415 . S
C2766 H2756 0.930 . S
C2766 C2764 1.419 . S
C2766 C2767 1.362 . S
C2767 H2757 0.930 . S
C2767 C2760 1.409 . S
C2767 C2766 1.362 . S
H2768 C2774 0.930 . S
H2769 C2777 0.930 . S
H2770 C2778 0.930 . S
H2771 C2779 0.930 . S
H2772 C2782 0.930 . S
H2773 C2783 0.930 . S
C2774 H2768 0.930 . S
C2774 C2775 1.355 . S
C2774 C2776 1.415 . S
C2775 C2774 1.355 . S
C2775 C2777 1.419 . S
C2776 C2774 1.415 . S
C2776 C2781 1.425 . S
C2776 C2783 1.409 . S
C2777 H2769 0.930 . S
C2777 C2775 1.419 . S
C2777 C2778 1.362 . S
C2778 H2770 0.930 . S
C2778 C2777 1.362 . S
C2778 C2781 1.409 . S
C2779 H2771 0.930 . S
C2779 C2780 1.355 . S
C2779 C2781 1.415 . S
C2780 C2779 1.355 . S
C2780 C2782 1.419 . S
C2781 C2776 1.425 . S
C2781 C2778 1.409 . S
C2781 C2779 1.415 . S
C2782 H2772 0.930 . S
C2782 C2780 1.419 . S
C2782 C2783 1.362 . S
C2783 H2773 0.930 . S
C2783 C2776 1.409 . S
C2783 C2782 1.362 . S
H2784 C2790 0.930 . S
H2785 C2793 0.930 . S
H2786 C2794 0.930 . S
H2787 C2795 0.930 . S
H2788 C2798 0.930 . S
H2789 C2799 0.930 . S
C2790 H2784 0.930 . S
C2790 C2791 1.355 . S
C2790 C2792 1.415 . S
C2791 C2790 1.355 . S
C2791 C2793 1.419 . S
C2792 C2790 1.415 . S
C2792 C2797 1.425 . S
C2792 C2799 1.409 . S
C2793 H2785 0.930 . S
C2793 C2791 1.419 . S
C2793 C2794 1.362 . S
C2794 H2786 0.930 . S
C2794 C2793 1.362 . S
C2794 C2797 1.409 . S
C2795 H2787 0.930 . S
C2795 C2796 1.355 . S
C2795 C2797 1.415 . S
C2796 C2795 1.355 . S
C2796 C2798 1.419 . S
C2797 C2792 1.425 . S
C2797 C2794 1.409 . S
C2797 C2795 1.415 . S
C2798 H2788 0.930 . S
C2798 C2796 1.419 . S
C2798 C2799 1.362 . S
C2799 H2789 0.930 . S
C2799 C2792 1.409 . S
C2799 C2798 1.362 . S
H2800 C2806 0.930 . S
H2801 C2809 0.930 . S
H2802 C2810 0.930 . S
H2803 C2811 0.930 . S
H2804 C2814 0.930 . S
H2805 C2815 0.930 . S
C2806 H2800 0.930 . S
C2806 C2807 1.355 . S
C2806 C2808 1.415 . S
C2807 C2806 1.355 . S
C2807 C2809 1.419 . S
C2808 C2806 1.415 . S
C2808 C2813 1.425 . S
C2808 C2815 1.409 . S
C2809 H2801 0.930 . S
C2809 C2807 1.419 . S
C2809 C2810 1.362 . S
C2810 H2802 0.930 . S
C2810 C2809 1.362 . S
C2810 C2813 1.409 . S
C2811 H2803 0.930 . S
C2811 C2812 1.355 . S
C2811 C2813 1.415 . S
C2812 C2811 1.355 . S
C2812 C2814 1.419 . S
C2813 C2808 1.425 . S
C2813 C2810 1.409 . S
C2813 C2811 1.415 . S
C2814 H2804 0.930 . S
C2814 C2812 1.419 . S
C2814 C2815 1.362 . S
C2815 H2805 0.930 . S
C2815 C2808 1.409 . S
C2815 C2814 1.362 . S
H2816 C2822 0.930 . S
H2817 C2825 0.930 . S
H2818 C2826 0.930 . S
H2819 C2827 0.930 . S
H2820 C2830 0.930 . S
H2821 C2831 0.930 . S
C2822 H2816 0.930 . S
C2822 C2823 1.355 . S
C2822 C2824 1.415 . S
C2823 C2822 1.355 . S
C2823 C2825 1.419 . S
C2824 C2822 1.415 . S
C2824 C2829 1.425 . S
C2824 C2831 1.409 . S
C2825 H2817 0.930 . S
C2825 C2823 1.419 . S
C2825 C2826 1.362 . S
C2826 H2818 0.930 . S
C2826 C2825 1.362 . S
C2826 C2829 1.409 . S
C2827 H2819 0.930 . S
C2827 C2828 1.355 . S
C2827 C2829 1.415 . S
C2828 C2827 1.355 . S
C2828 C2830 1.419 . S
C2829 C2824 1.425 . S
C2829 C2826 1.409 . S
C2829 C2827 1.415 . S
C2830 H2820 0.930 . S
C2830 C2828 1.419 . S
C2830 C2831 1.362 . S
C2831 H2821 0.930 . S
C2831 C2824 1.409 . S
C2831 C2830 1.362 . S
H2832 C2838 0.930 . S
H2833 C2841 0.930 . S
H2834 C2842 0.930 . S
H2835 C2843 0.930 . S
H2836 C2846 0.930 . S
H2837 C2847 0.930 . S
C2838 H2832 0.930 . S
C2838 C2839 1.355 . S
C2838 C2840 1.415 . S
C2839 C2838 1.355 . S
C2839 C2841 1.419 . S
C2840 C2838 1.415 . S
C2840 C2845 1.425 . S
C2840 C2847 1.409 . S
C2841 H2833 0.930 . S
C2841 C2839 1.419 . S
C2841 C2842 1.362 . S
C2842 H2834 0.930 . S
C2842 C2841 1.362 . S
C2842 C2845 1.409 . S
C2843 H2835 0.930 . S
C2843 C2844 1.355 . S
C2843 C2845 1.415 . S
C2844 C2843 1.355 . S
C2844 C2846 1.419 . S
C2845 C2840 1.425 . S
C2845 C2842 1.409 . S
C2845 C2843 1.415 . S
C2846 H2836 0.930 . S
C2846 C2844 1.419 . S
C2846 C2847 1.362 . S
C2847 H2837 0.930 . S
C2847 C2840 1.409 . S
C2847 C2846 1.362 . S
H2848 C2854 0.930 . S
H2849 C2857 0.930 . S
H2850 C2858 0.930 . S
H2851 C2859 0.930 . S
H2852 C2862 0.930 . S
H2853 C2863 0.930 . S
C2854 H2848 0.930 . S
C2854 C2855 1.355 . S
C2854 C2856 1.415 . S
C2855 C2854 1.355 . S
C2855 C2857 1.419 . S
C2856 C2854 1.415 . S
C2856 C2861 1.425 . S
C2856 C2863 1.409 . S
C2857 H2849 0.930 . S
C2857 C2855 1.419 . S
C2857 C2858 1.362 . S
C2858 H2850 0.930 . S
C2858 C2857 1.362 . S
C2858 C2861 1.409 . S
C2859 H2851 0.930 . S
C2859 C2860 1.355 . S
C2859 C2861 1.415 . S
C2860 C2859 1.355 . S
C2860 C2862 1.419 . S
C2861 C2856 1.425 . S
C2861 C2858 1.409 . S
C2861 C2859 1.415 . S
C2862 H2852 0.930 . S
C2862 C2860 1.419 . S
C2862 C2863 1.362 . S
C2863 H2853 0.930 . S
C2863 C2856 1.409 . S
C2863 C2862 1.362 . S
H2864 C2870 0.930 . S
H2865 C2873 0.930 . S
H2866 C2874 0.930 . S
H2867 C2875 0.930 . S
H2868 C2878 0.930 . S
H2869 C2879 0.930 . S
C2870 H2864 0.930 . S
C2870 C2871 1.355 . S
C2870 C2872 1.415 . S
C2871 C2870 1.355 . S
C2871 C2873 1.419 . S
C2872 C2870 1.415 . S
C2872 C2877 1.425 . S
C2872 C2879 1.409 . S
C2873 H2865 0.930 . S
C2873 C2871 1.419 . S
C2873 C2874 1.362 . S
C2874 H2866 0.930 . S
C2874 C2873 1.362 . S
C2874 C2877 1.409 . S
C2875 H2867 0.930 . S
C2875 C2876 1.355 . S
C2875 C2877 1.415 . S
C2876 C2875 1.355 . S
C2876 C2878 1.419 . S
C2877 C2872 1.425 . S
C2877 C2874 1.409 . S
C2877 C2875 1.415 . S
C2878 H2868 0.930 . S
C2878 C2876 1.419 . S
C2878 C2879 1.362 . S
C2879 H2869 0.930 . S
C2879 C2872 1.409 . S
C2879 C2878 1.362 . S
C2119 C29 1.253 . S
C2124 C673 1.298 . S
C2135 C724 1.265 . S
C2140 C117 1.287 . S
C2151 C205 1.258 . S
C2156 C821 1.293 . S
C2167 C284 1.284 . S
C2172 C937 1.268 . S
C2183 C1017 1.273 . S
C2188 C381 1.278 . S
C2199 C497 1.287 . S
C2204 C577 1.266 . S
C2215 C1076 1.274 . S
C2220 C1721 1.253 . S
C2231 C1173 1.278 . S
C2236 C1809 1.254 . S
C2247 C1905 1.279 . S
C2252 C1252 1.253 . S
C2263 C1340 1.251 . S
C2268 C1993 1.276 . S
C2279 C1437 1.252 . S
C2284 C2073 1.274 . S
C2295 C1633 1.277 . S
C2300 C1516 1.255 . S
C2311 C57 1.048 . S
C2316 C753 1.067 . S
C2327 C849 1.068 . S
C2332 C145 1.061 . S
C2343 C909 1.059 . S
C2348 C233 1.040 . S
C2359 C313 1.039 . S
C2364 C988 1.059 . S
C2375 C409 1.047 . S
C2380 C548 1.037 . S
C2391 C469 1.050 . S
C2396 C645 1.037 . S
C2407 C1780 1.069 . S
C2412 C1105 1.047 . S
C2423 C1201 1.047 . S
C2428 C1877 1.067 . S
C2439 C1965 1.053 . S
C2444 C1281 1.075 . S
C2455 C2044 1.065 . S
C2460 C1369 1.047 . S
C2471 C1604 1.049 . S
C2476 C1465 1.071 . S
C2487 C1545 1.072 . S
C2492 C1692 1.070 . S
C2503 C49 1.515 . S
C2508 C1349 1.523 . S
C2519 C1428 1.522 . S
C2524 C137 1.516 . S
C2535 C1525 1.513 . S
C2540 C225 1.525 . S
C2551 C321 1.526 . S
C2556 C1085 1.512 . S
C2567 C401 1.518 . S
C2572 C1164 1.523 . S
C2583 C1261 1.520 . S
C2588 C460 1.521 . S
C2599 C1897 1.512 . S
C2604 C557 1.526 . S
C2615 C1985 1.522 . S
C2620 C636 1.516 . S
C2631 C2081 1.522 . S
C2636 C761 1.516 . S
C2647 C1641 1.512 . S
C2652 C841 1.526 . S
C2663 C900 1.518 . S
C2668 C1729 1.519 . S
C2679 C997 1.515 . S
C2684 C1817 1.525 . S
C2695 C20 1.604 . S
C2700 C929 1.614 . S
C2711 C1025 1.620 . S
C2716 C108 1.603 . S
C2727 C585 1.610 . S
C2732 C196 1.628 . S
C2743 C293 1.603 . S
C2748 C665 1.617 . S
C2759 C372 1.626 . S
C2764 C733 1.617 . S
C2775 C489 1.625 . S
C2780 C812 1.619 . S
C2791 C1113 1.624 . S
C2796 C1956 1.622 . S
C2807 C1193 1.609 . S
C2812 C2053 1.609 . S
C2823 C1289 1.605 . S
C2828 C1613 1.619 . S
C2839 C1701 1.626 . S
C2844 C1377 1.619 . S
C2855 C1457 1.627 . S
C2860 C1789 1.616 . S
C2871 C1553 1.619 . S
C2876 C1868 1.605 . S
