# Generated by pormake.
# Topology wna, (6)-cn, num edge types: 1
# Building blocks:
#     Node 0, Type 0, BuildingBlock: UKALOJ_clean_sbu_0, # of connection points: 6
#     Node 1, Type 0, BuildingBlock: UKALOJ_clean_sbu_0, # of connection points: 6
#     Node 2, Type 0, BuildingBlock: UKALOJ_clean_sbu_0, # of connection points: 6
#     Node 3, Type 0, BuildingBlock: UKALOJ_clean_sbu_0, # of connection points: 6
#     Node 4, Type 0, BuildingBlock: UKALOJ_clean_sbu_0, # of connection points: 6
#     Node 5, Type 0, BuildingBlock: UKALOJ_clean_sbu_0, # of connection points: 6
#     Node 6, Type 0, BuildingBlock: UKALOJ_clean_sbu_0, # of connection points: 6
#     Node 7, Type 0, BuildingBlock: UKALOJ_clean_sbu_0, # of connection points: 6
#     Node 8, Type 0, BuildingBlock: UKALOJ_clean_sbu_0, # of connection points: 6
#     Node 9, Type 0, BuildingBlock: UKALOJ_clean_sbu_0, # of connection points: 6
#     Node 10, Type 0, BuildingBlock: UKALOJ_clean_sbu_0, # of connection points: 6
#     Node 11, Type 0, BuildingBlock: UKALOJ_clean_sbu_0, # of connection points: 6
#     Node 12, Type 0, BuildingBlock: UKALOJ_clean_sbu_0, # of connection points: 6
#     Node 13, Type 0, BuildingBlock: UKALOJ_clean_sbu_0, # of connection points: 6
#     Node 14, Type 0, BuildingBlock: UKALOJ_clean_sbu_0, # of connection points: 6
#     Node 15, Type 0, BuildingBlock: UKALOJ_clean_sbu_0, # of connection points: 6
#     Node 16, Type 0, BuildingBlock: UKALOJ_clean_sbu_0, # of connection points: 6
#     Node 17, Type 0, BuildingBlock: UKALOJ_clean_sbu_0, # of connection points: 6
#     Node 18, Type 0, BuildingBlock: UKALOJ_clean_sbu_0, # of connection points: 6
#     Node 19, Type 0, BuildingBlock: UKALOJ_clean_sbu_0, # of connection points: 6
#     Node 20, Type 0, BuildingBlock: UKALOJ_clean_sbu_0, # of connection points: 6
#     Node 21, Type 0, BuildingBlock: UKALOJ_clean_sbu_0, # of connection points: 6
#     Node 22, Type 0, BuildingBlock: UKALOJ_clean_sbu_0, # of connection points: 6
#     Node 23, Type 0, BuildingBlock: UKALOJ_clean_sbu_0, # of connection points: 6
#     Node 24, Type 0, BuildingBlock: UKALOJ_clean_sbu_0, # of connection points: 6
#     Node 25, Type 0, BuildingBlock: UKALOJ_clean_sbu_0, # of connection points: 6
#     Node 26, Type 0, BuildingBlock: UKALOJ_clean_sbu_0, # of connection points: 6
#     Node 27, Type 0, BuildingBlock: UKALOJ_clean_sbu_0, # of connection points: 6
#     Node 28, Type 0, BuildingBlock: UKALOJ_clean_sbu_0, # of connection points: 6
#     Node 29, Type 0, BuildingBlock: UKALOJ_clean_sbu_0, # of connection points: 6
#     Node 30, Type 0, BuildingBlock: UKALOJ_clean_sbu_0, # of connection points: 6
#     Node 31, Type 0, BuildingBlock: UKALOJ_clean_sbu_0, # of connection points: 6
#     Node 32, Type 0, BuildingBlock: UKALOJ_clean_sbu_0, # of connection points: 6
#     Node 33, Type 0, BuildingBlock: UKALOJ_clean_sbu_0, # of connection points: 6
#     Node 34, Type 0, BuildingBlock: UKALOJ_clean_sbu_0, # of connection points: 6
#     Node 35, Type 0, BuildingBlock: UKALOJ_clean_sbu_0, # of connection points: 6
#     Edge 36, Type (0, 0), BuildingBlock: XIVTED_clean_linker_0, # of connection points: 2
#     Edge 37, Type (0, 0), BuildingBlock: XIVTED_clean_linker_0, # of connection points: 2
#     Edge 38, Type (0, 0), BuildingBlock: XIVTED_clean_linker_0, # of connection points: 2
#     Edge 39, Type (0, 0), BuildingBlock: XIVTED_clean_linker_0, # of connection points: 2
#     Edge 40, Type (0, 0), BuildingBlock: XIVTED_clean_linker_0, # of connection points: 2
#     Edge 41, Type (0, 0), BuildingBlock: XIVTED_clean_linker_0, # of connection points: 2
#     Edge 42, Type (0, 0), BuildingBlock: XIVTED_clean_linker_0, # of connection points: 2
#     Edge 43, Type (0, 0), BuildingBlock: XIVTED_clean_linker_0, # of connection points: 2
#     Edge 44, Type (0, 0), BuildingBlock: XIVTED_clean_linker_0, # of connection points: 2
#     Edge 45, Type (0, 0), BuildingBlock: XIVTED_clean_linker_0, # of connection points: 2
#     Edge 46, Type (0, 0), BuildingBlock: XIVTED_clean_linker_0, # of connection points: 2
#     Edge 47, Type (0, 0), BuildingBlock: XIVTED_clean_linker_0, # of connection points: 2
#     Edge 48, Type (0, 0), BuildingBlock: XIVTED_clean_linker_0, # of connection points: 2
#     Edge 49, Type (0, 0), BuildingBlock: XIVTED_clean_linker_0, # of connection points: 2
#     Edge 50, Type (0, 0), BuildingBlock: XIVTED_clean_linker_0, # of connection points: 2
#     Edge 51, Type (0, 0), BuildingBlock: XIVTED_clean_linker_0, # of connection points: 2
#     Edge 52, Type (0, 0), BuildingBlock: XIVTED_clean_linker_0, # of connection points: 2
#     Edge 53, Type (0, 0), BuildingBlock: XIVTED_clean_linker_0, # of connection points: 2
#     Edge 54, Type (0, 0), BuildingBlock: XIVTED_clean_linker_0, # of connection points: 2
#     Edge 55, Type (0, 0), BuildingBlock: XIVTED_clean_linker_0, # of connection points: 2
#     Edge 56, Type (0, 0), BuildingBlock: XIVTED_clean_linker_0, # of connection points: 2
#     Edge 57, Type (0, 0), BuildingBlock: XIVTED_clean_linker_0, # of connection points: 2
#     Edge 58, Type (0, 0), BuildingBlock: XIVTED_clean_linker_0, # of connection points: 2
#     Edge 59, Type (0, 0), BuildingBlock: XIVTED_clean_linker_0, # of connection points: 2
#     Edge 60, Type (0, 0), BuildingBlock: XIVTED_clean_linker_0, # of connection points: 2
#     Edge 61, Type (0, 0), BuildingBlock: XIVTED_clean_linker_0, # of connection points: 2
#     Edge 62, Type (0, 0), BuildingBlock: XIVTED_clean_linker_0, # of connection points: 2
#     Edge 63, Type (0, 0), BuildingBlock: XIVTED_clean_linker_0, # of connection points: 2
#     Edge 64, Type (0, 0), BuildingBlock: XIVTED_clean_linker_0, # of connection points: 2
#     Edge 65, Type (0, 0), BuildingBlock: XIVTED_clean_linker_0, # of connection points: 2
#     Edge 66, Type (0, 0), BuildingBlock: XIVTED_clean_linker_0, # of connection points: 2
#     Edge 67, Type (0, 0), BuildingBlock: XIVTED_clean_linker_0, # of connection points: 2
#     Edge 68, Type (0, 0), BuildingBlock: XIVTED_clean_linker_0, # of connection points: 2
#     Edge 69, Type (0, 0), BuildingBlock: XIVTED_clean_linker_0, # of connection points: 2
#     Edge 70, Type (0, 0), BuildingBlock: XIVTED_clean_linker_0, # of connection points: 2
#     Edge 71, Type (0, 0), BuildingBlock: XIVTED_clean_linker_0, # of connection points: 2
#     Edge 72, Type (0, 0), BuildingBlock: XIVTED_clean_linker_0, # of connection points: 2
#     Edge 73, Type (0, 0), BuildingBlock: XIVTED_clean_linker_0, # of connection points: 2
#     Edge 74, Type (0, 0), BuildingBlock: XIVTED_clean_linker_0, # of connection points: 2
#     Edge 75, Type (0, 0), BuildingBlock: XIVTED_clean_linker_0, # of connection points: 2
#     Edge 76, Type (0, 0), BuildingBlock: XIVTED_clean_linker_0, # of connection points: 2
#     Edge 77, Type (0, 0), BuildingBlock: XIVTED_clean_linker_0, # of connection points: 2
#     Edge 78, Type (0, 0), BuildingBlock: XIVTED_clean_linker_0, # of connection points: 2
#     Edge 79, Type (0, 0), BuildingBlock: XIVTED_clean_linker_0, # of connection points: 2
#     Edge 80, Type (0, 0), BuildingBlock: XIVTED_clean_linker_0, # of connection points: 2
#     Edge 81, Type (0, 0), BuildingBlock: XIVTED_clean_linker_0, # of connection points: 2
#     Edge 82, Type (0, 0), BuildingBlock: XIVTED_clean_linker_0, # of connection points: 2
#     Edge 83, Type (0, 0), BuildingBlock: XIVTED_clean_linker_0, # of connection points: 2
#     Edge 84, Type (0, 0), BuildingBlock: XIVTED_clean_linker_0, # of connection points: 2
#     Edge 85, Type (0, 0), BuildingBlock: XIVTED_clean_linker_0, # of connection points: 2
#     Edge 86, Type (0, 0), BuildingBlock: XIVTED_clean_linker_0, # of connection points: 2
#     Edge 87, Type (0, 0), BuildingBlock: XIVTED_clean_linker_0, # of connection points: 2
#     Edge 88, Type (0, 0), BuildingBlock: XIVTED_clean_linker_0, # of connection points: 2
#     Edge 89, Type (0, 0), BuildingBlock: XIVTED_clean_linker_0, # of connection points: 2
#     Edge 90, Type (0, 0), BuildingBlock: XIVTED_clean_linker_0, # of connection points: 2
#     Edge 91, Type (0, 0), BuildingBlock: XIVTED_clean_linker_0, # of connection points: 2
#     Edge 92, Type (0, 0), BuildingBlock: XIVTED_clean_linker_0, # of connection points: 2
#     Edge 93, Type (0, 0), BuildingBlock: XIVTED_clean_linker_0, # of connection points: 2
#     Edge 94, Type (0, 0), BuildingBlock: XIVTED_clean_linker_0, # of connection points: 2
#     Edge 95, Type (0, 0), BuildingBlock: XIVTED_clean_linker_0, # of connection points: 2
#     Edge 96, Type (0, 0), BuildingBlock: XIVTED_clean_linker_0, # of connection points: 2
#     Edge 97, Type (0, 0), BuildingBlock: XIVTED_clean_linker_0, # of connection points: 2
#     Edge 98, Type (0, 0), BuildingBlock: XIVTED_clean_linker_0, # of connection points: 2
#     Edge 99, Type (0, 0), BuildingBlock: XIVTED_clean_linker_0, # of connection points: 2
#     Edge 100, Type (0, 0), BuildingBlock: XIVTED_clean_linker_0, # of connection points: 2
#     Edge 101, Type (0, 0), BuildingBlock: XIVTED_clean_linker_0, # of connection points: 2
#     Edge 102, Type (0, 0), BuildingBlock: XIVTED_clean_linker_0, # of connection points: 2
#     Edge 103, Type (0, 0), BuildingBlock: XIVTED_clean_linker_0, # of connection points: 2
#     Edge 104, Type (0, 0), BuildingBlock: XIVTED_clean_linker_0, # of connection points: 2
#     Edge 105, Type (0, 0), BuildingBlock: XIVTED_clean_linker_0, # of connection points: 2
#     Edge 106, Type (0, 0), BuildingBlock: XIVTED_clean_linker_0, # of connection points: 2
#     Edge 107, Type (0, 0), BuildingBlock: XIVTED_clean_linker_0, # of connection points: 2
#     Edge 108, Type (0, 0), BuildingBlock: XIVTED_clean_linker_0, # of connection points: 2
#     Edge 109, Type (0, 0), BuildingBlock: XIVTED_clean_linker_0, # of connection points: 2
#     Edge 110, Type (0, 0), BuildingBlock: XIVTED_clean_linker_0, # of connection points: 2
#     Edge 111, Type (0, 0), BuildingBlock: XIVTED_clean_linker_0, # of connection points: 2
#     Edge 112, Type (0, 0), BuildingBlock: XIVTED_clean_linker_0, # of connection points: 2
#     Edge 113, Type (0, 0), BuildingBlock: XIVTED_clean_linker_0, # of connection points: 2
#     Edge 114, Type (0, 0), BuildingBlock: XIVTED_clean_linker_0, # of connection points: 2
#     Edge 115, Type (0, 0), BuildingBlock: XIVTED_clean_linker_0, # of connection points: 2
#     Edge 116, Type (0, 0), BuildingBlock: XIVTED_clean_linker_0, # of connection points: 2
#     Edge 117, Type (0, 0), BuildingBlock: XIVTED_clean_linker_0, # of connection points: 2
#     Edge 118, Type (0, 0), BuildingBlock: XIVTED_clean_linker_0, # of connection points: 2
#     Edge 119, Type (0, 0), BuildingBlock: XIVTED_clean_linker_0, # of connection points: 2
#     Edge 120, Type (0, 0), BuildingBlock: XIVTED_clean_linker_0, # of connection points: 2
#     Edge 121, Type (0, 0), BuildingBlock: XIVTED_clean_linker_0, # of connection points: 2
#     Edge 122, Type (0, 0), BuildingBlock: XIVTED_clean_linker_0, # of connection points: 2
#     Edge 123, Type (0, 0), BuildingBlock: XIVTED_clean_linker_0, # of connection points: 2
#     Edge 124, Type (0, 0), BuildingBlock: XIVTED_clean_linker_0, # of connection points: 2
#     Edge 125, Type (0, 0), BuildingBlock: XIVTED_clean_linker_0, # of connection points: 2
#     Edge 126, Type (0, 0), BuildingBlock: XIVTED_clean_linker_0, # of connection points: 2
#     Edge 127, Type (0, 0), BuildingBlock: XIVTED_clean_linker_0, # of connection points: 2
#     Edge 128, Type (0, 0), BuildingBlock: XIVTED_clean_linker_0, # of connection points: 2
#     Edge 129, Type (0, 0), BuildingBlock: XIVTED_clean_linker_0, # of connection points: 2
#     Edge 130, Type (0, 0), BuildingBlock: XIVTED_clean_linker_0, # of connection points: 2
#     Edge 131, Type (0, 0), BuildingBlock: XIVTED_clean_linker_0, # of connection points: 2
#     Edge 132, Type (0, 0), BuildingBlock: XIVTED_clean_linker_0, # of connection points: 2
#     Edge 133, Type (0, 0), BuildingBlock: XIVTED_clean_linker_0, # of connection points: 2
#     Edge 134, Type (0, 0), BuildingBlock: XIVTED_clean_linker_0, # of connection points: 2
#     Edge 135, Type (0, 0), BuildingBlock: XIVTED_clean_linker_0, # of connection points: 2
#     Edge 136, Type (0, 0), BuildingBlock: XIVTED_clean_linker_0, # of connection points: 2
#     Edge 137, Type (0, 0), BuildingBlock: XIVTED_clean_linker_0, # of connection points: 2
#     Edge 138, Type (0, 0), BuildingBlock: XIVTED_clean_linker_0, # of connection points: 2
#     Edge 139, Type (0, 0), BuildingBlock: XIVTED_clean_linker_0, # of connection points: 2
#     Edge 140, Type (0, 0), BuildingBlock: XIVTED_clean_linker_0, # of connection points: 2
#     Edge 141, Type (0, 0), BuildingBlock: XIVTED_clean_linker_0, # of connection points: 2
#     Edge 142, Type (0, 0), BuildingBlock: XIVTED_clean_linker_0, # of connection points: 2
#     Edge 143, Type (0, 0), BuildingBlock: XIVTED_clean_linker_0, # of connection points: 2
# Relax obj value: 0.390
# Max RMSD: 0.263
# Mean RMSD: 0.253
data_MOF--net-wna--node1-UKALOJ_clean_sbu_0--edge1-XIVTED_clean_linker_0
_symmetry_space_group_name_H-M    P1
_symmetry_Int_Tables_number       1
_symmetry_cell_setting            triclinic
loop_
_symmetry_equiv_pos_as_xyz
'x, y, z'
_cell_length_a     46.105257
_cell_length_b     46.075224
_cell_length_c     80.059645
_cell_angle_alpha  90.024792
_cell_angle_beta   89.991437
_cell_angle_gamma 120.02791
loop_
_atom_site_label
_atom_site_type_symbol
_atom_site_fract_x
_atom_site_fract_y
_atom_site_fract_z
_atom_type_partial_charge
Zn0 Zn 0.10366 0.22151 0.17313 0.0
O1 O 0.0776 0.19347 0.19624 0.0
C2 C 0.03761 0.20924 0.16338 0.0
Zn3 Zn 0.09775 0.26427 0.1806 0.0
C4 C 0.07092 0.20984 0.20701 0.0
O5 O 0.07988 0.24018 0.20383 0.0
C6 C 0.12683 0.27671 0.14646 0.0
O7 O 0.14869 0.29021 0.1898 0.0
O8 O 0.15025 0.24413 0.18494 0.0
N9 N 0.08946 0.30122 0.18902 0.0
C10 C 0.1043 0.33442 0.18606 0.0
C11 C 0.06365 0.32176 0.20273 0.0
N12 N 0.06435 0.29349 0.19945 0.0
N13 N 0.08846 0.34789 0.1945 0.0
C14 C 0.12623 0.16762 0.17031 0.0
C15 C 0.11382 0.15321 0.14487 0.0
N16 N 0.11151 0.18442 0.16423 0.0
N17 N 0.10389 0.17539 0.14844 0.0
N18 N 0.12823 0.1479 0.15829 0.0
H19 H 0.1247 0.17968 0.19621 0.0
H20 H 0.16469 0.18749 0.18884 0.0
H21 H 0.13189 0.14499 0.19267 0.0
C22 C 0.13732 0.16993 0.18807 0.0
C23 C 0.13512 0.35367 0.17563 0.0
H24 H 0.15095 0.34187 0.17604 0.0
H25 H 0.1499 0.38002 0.17999 0.0
H26 H 0.12753 0.35365 0.16249 0.0
O27 O 0.11496 0.28855 0.15705 0.0
O28 O 0.12678 0.2497 0.15005 0.0
C29 C 0.1644 0.274 0.19034 0.0
O30 O 0.05828 0.1991 0.16142 0.0
O31 O 0.04647 0.23627 0.17144 0.0
Zn32 Zn 0.77111 0.88486 0.17325 0.0
O33 O 0.79923 0.88855 0.19666 0.0
C34 C 0.79059 0.83656 0.16439 0.0
Zn35 Zn 0.73098 0.83546 0.18076 0.0
C36 C 0.78351 0.86574 0.20765 0.0
O37 O 0.75333 0.84357 0.20463 0.0
C38 C 0.71829 0.84911 0.14607 0.0
O39 O 0.69943 0.85537 0.1889 0.0
O40 O 0.74445 0.90414 0.18537 0.0
N41 N 0.69615 0.78866 0.18821 0.0
C42 C 0.66358 0.76908 0.18417 0.0
C43 C 0.67624 0.74156 0.20117 0.0
N44 N 0.70392 0.77159 0.19883 0.0
N45 N 0.65058 0.73932 0.1921 0.0
C46 C 0.834 0.95776 0.16906 0.0
C47 C 0.81064 0.97871 0.15413 0.0
N48 N 0.80262 0.93292 0.16571 0.0
N49 N 0.78839 0.9461 0.15638 0.0
N50 N 0.8394 0.98671 0.16199 0.0
H51 H 0.85183 0.95644 0.19345 0.0
H52 H 0.88414 0.97389 0.17777 0.0
H53 H 0.85522 0.92897 0.17861 0.0
C54 C 0.85791 0.95412 0.18028 0.0
C55 C 0.64422 0.77971 0.17316 0.0
H56 H 0.65416 0.80703 0.17397 0.0
H57 H 0.61733 0.76644 0.17666 0.0
H58 H 0.64643 0.77355 0.15999 0.0
O59 O 0.70914 0.82572 0.15667 0.0
O60 O 0.74245 0.87802 0.14992 0.0
C61 C 0.71423 0.88716 0.18997 0.0
O62 O 0.79841 0.86661 0.16126 0.0
O63 O 0.76419 0.81779 0.17279 0.0
Zn64 Zn 0.11582 0.89635 0.17154 0.0
O65 O 0.11441 0.92062 0.19546 0.0
C66 C 0.17142 0.96363 0.16435 0.0
Zn67 Zn 0.16323 0.90091 0.17966 0.0
C68 C 0.13614 0.92553 0.20671 0.0
O69 O 0.1567 0.91535 0.20385 0.0
C70 C 0.14801 0.87647 0.14421 0.0
O71 O 0.13659 0.8479 0.18654 0.0
O72 O 0.09011 0.84838 0.18172 0.0
N73 N 0.20762 0.90605 0.18734 0.0
C74 C 0.22507 0.89126 0.18238 0.0
C75 C 0.25446 0.92793 0.20066 0.0
N76 N 0.22582 0.92863 0.19879 0.0
N77 N 0.25468 0.90471 0.1905 0.0
C78 C 0.04114 0.87925 0.1706 0.0
C79 C 0.03648 0.88927 0.14506 0.0
N80 N 0.07159 0.89153 0.16347 0.0
N81 N 0.06862 0.89791 0.14765 0.0
N82 N 0.01846 0.87734 0.15922 0.0
H83 H 0.05421 0.8659 0.19429 0.0
H84 H 0.00997 0.84371 0.18933 0.0
H85 H 0.03103 0.88705 0.19575 0.0
C86 C 0.03369 0.86806 0.18846 0.0
C87 C 0.21234 0.86256 0.17032 0.0
H88 H 0.18477 0.84662 0.17127 0.0
H89 H 0.2241 0.84704 0.17273 0.0
H90 H 0.21856 0.87246 0.15739 0.0
O91 O 0.17104 0.88834 0.15515 0.0
O92 O 0.12004 0.8744 0.14776 0.0
C93 C 0.10465 0.83264 0.1864 0.0
O94 O 0.14095 0.94342 0.16104 0.0
O95 O 0.18808 0.95356 0.17283 0.0
Zn96 Zn 0.26789 0.11465 0.33129 0.0
O97 O 0.30289 0.16433 0.32242 0.0
C98 C 0.27711 0.1454 0.36498 0.0
Zn99 Zn 0.22968 0.12839 0.33534 0.0
C100 C 0.29064 0.18304 0.31933 0.0
O101 O 0.26015 0.17251 0.32254 0.0
C102 C 0.20479 0.06075 0.34699 0.0
O103 O 0.20477 0.10277 0.31139 0.0
O104 O 0.24932 0.09855 0.30691 0.0
N105 N 0.19841 0.14676 0.33942 0.0
C106 C 0.16501 0.13411 0.33996 0.0
C107 C 0.18815 0.18652 0.34499 0.0
N108 N 0.21262 0.17925 0.34261 0.0
N109 N 0.15797 0.15867 0.34347 0.0
C110 C 0.33385 0.11322 0.33262 0.0
C111 C 0.32338 0.07214 0.31659 0.0
N112 N 0.30212 0.10033 0.32716 0.0
N113 N 0.29568 0.07492 0.31714 0.0
N114 N 0.34762 0.09593 0.32618 0.0
H115 H 0.34309 0.16154 0.3415 0.0
H116 H 0.37938 0.15649 0.34124 0.0
H117 H 0.3475 0.13567 0.35685 0.0
C118 C 0.35199 0.14359 0.34358 0.0
C119 C 0.1398 0.09824 0.33635 0.0
H120 H 0.15093 0.08647 0.32853 0.0
H121 H 0.11756 0.09635 0.32996 0.0
H122 H 0.13158 0.08424 0.3483 0.0
O123 O 0.19884 0.08474 0.3479 0.0
O124 O 0.23181 0.06549 0.34014 0.0
C125 C 0.22072 0.09288 0.30205 0.0
O126 O 0.28576 0.12869 0.35576 0.0
O127 O 0.25503 0.15191 0.35942 0.0
Zn128 Zn 0.88416 0.1571 0.33132 0.0
O129 O 0.83473 0.14434 0.32264 0.0
C130 C 0.85416 0.13626 0.36516 0.0
Zn131 Zn 0.86914 0.10458 0.33544 0.0
C132 C 0.81523 0.11334 0.31979 0.0
O133 O 0.82505 0.09282 0.32305 0.0
C134 C 0.93732 0.14552 0.34661 0.0
O135 O 0.89327 0.10414 0.31137 0.0
O136 O 0.89955 0.15381 0.30684 0.0
N137 N 0.84896 0.05446 0.3392 0.0
C138 C 0.86064 0.0329 0.33959 0.0
C139 C 0.80796 0.00459 0.344 0.0
N140 N 0.81629 0.03678 0.342 0.0
N141 N 0.83531 0.00141 0.34262 0.0
C142 C 0.89022 0.22691 0.33331 0.0
C143 C 0.93206 0.25609 0.31745 0.0
N144 N 0.9009 0.20647 0.3274 0.0
N145 N 0.92681 0.2246 0.31751 0.0
N146 N 0.90945 0.25815 0.32728 0.0
H147 H 0.84087 0.18966 0.34179 0.0
H148 H 0.84884 0.23216 0.34217 0.0
H149 H 0.86775 0.2183 0.35751 0.0
C150 C 0.86006 0.21605 0.34423 0.0
C151 C 0.89633 0.0426 0.33623 0.0
H152 H 0.9088 0.0655 0.32843 0.0
H153 H 0.89772 0.02188 0.32992 0.0
H154 H 0.90997 0.04799 0.34828 0.0
O155 O 0.91298 0.11572 0.3476 0.0
O156 O 0.93277 0.16814 0.34001 0.0
C157 C 0.90395 0.13001 0.302 0.0
O158 O 0.87086 0.16147 0.35585 0.0
O159 O 0.84701 0.10742 0.35966 0.0
Zn160 Zn 0.84315 0.73215 0.32847 0.0
O161 O 0.8629 0.69981 0.32122 0.0
C162 C 0.8589 0.7219 0.36305 0.0
Zn163 Zn 0.89297 0.77195 0.33486 0.0
C164 C 0.89457 0.71421 0.31963 0.0
O165 O 0.91202 0.74502 0.32306 0.0
C166 C 0.84527 0.79248 0.34396 0.0
O167 O 0.89517 0.79843 0.31111 0.0
O168 O 0.84958 0.75221 0.30408 0.0
N169 N 0.94076 0.80451 0.34162 0.0
C170 C 0.96277 0.83734 0.33947 0.0
C171 C 0.98838 0.81588 0.35211 0.0
N172 N 0.95672 0.79137 0.34952 0.0
N173 N 0.99286 0.84496 0.34594 0.0
C174 C 0.77704 0.66449 0.32751 0.0
C175 C 0.7477 0.67445 0.3104 0.0
N176 N 0.79615 0.69627 0.32213 0.0
N177 N 0.77798 0.70236 0.31141 0.0
N178 N 0.7465 0.65037 0.3204 0.0
H179 H 0.81569 0.65597 0.33757 0.0
H180 H 0.77452 0.61931 0.33683 0.0
H181 H 0.78422 0.65137 0.35222 0.0
C182 C 0.78862 0.64674 0.33911 0.0
C183 C 0.95536 0.86057 0.3297 0.0
H184 H 0.95796 0.85696 0.31619 0.0
H185 H 0.97287 0.88717 0.33284 0.0
H186 H 0.92917 0.85452 0.33198 0.0
O187 O 0.87528 0.79973 0.3466 0.0
O188 O 0.8256 0.76572 0.336 0.0
C189 C 0.87163 0.78219 0.30053 0.0
O190 O 0.835 0.71295 0.35283 0.0
O191 O 0.88795 0.745 0.35864 0.0
Zn192 Zn 0.9179 0.74343 0.83887 0.0
O193 O 0.93857 0.71114 0.83974 0.0
C194 C 0.91446 0.74019 0.87585 0.0
Zn195 Zn 0.96397 0.78157 0.85171 0.0
C196 C 0.96738 0.72038 0.84584 0.0
O197 O 0.98502 0.75018 0.85126 0.0
C198 C 0.91347 0.80342 0.84603 0.0
O199 O 0.98251 0.7988 0.82743 0.0
O200 O 0.937 0.7592 0.81548 0.0
N201 N 0.00678 0.81965 0.86181 0.0
C202 C 0.02605 0.85135 0.85637 0.0
C203 C 0.04813 0.84664 0.87887 0.0
N204 N 0.02048 0.81673 0.87581 0.0
N205 N 0.05212 0.86848 0.86671 0.0
C206 C 0.85208 0.67611 0.83495 0.0
C207 C 0.83033 0.68515 0.81356 0.0
N208 N 0.87474 0.7063 0.8288 0.0
N209 N 0.8614 0.71166 0.81535 0.0
N210 N 0.82373 0.6625 0.82576 0.0
H211 H 0.88444 0.6655 0.85009 0.0
H212 H 0.84159 0.63172 0.84879 0.0
H213 H 0.85227 0.66799 0.86138 0.0
C214 C 0.858 0.65934 0.84958 0.0
C215 C 0.01907 0.86632 0.8413 0.0
H216 H 0.99209 0.85369 0.83833 0.0
H217 H 0.03269 0.864 0.83043 0.0
H218 H 0.02825 0.89339 0.84327 0.0
O219 O 0.94155 0.81184 0.85274 0.0
O220 O 0.89776 0.7756 0.8384 0.0
C221 C 0.96576 0.78497 0.81434 0.0
O222 O 0.89847 0.72871 0.86237 0.0
O223 O 0.94492 0.76327 0.87554 0.0
Zn224 Zn 0.22381 0.18486 0.85189 0.0
O225 O 0.21434 0.19141 0.82685 0.0
C226 C 0.19801 0.11161 0.84524 0.0
Zn227 Zn 0.26178 0.17361 0.8414 0.0
C228 C 0.22992 0.18809 0.81459 0.0
O229 O 0.25247 0.18059 0.81713 0.0
C230 C 0.25603 0.16993 0.87844 0.0
O231 O 0.29657 0.22545 0.84361 0.0
O232 O 0.25916 0.2369 0.85373 0.0
N233 N 0.29902 0.16521 0.8337 0.0
C234 C 0.32765 0.17132 0.84127 0.0
C235 C 0.32292 0.1439 0.81904 0.0
N236 N 0.2963 0.14849 0.81979 0.0
N237 N 0.34295 0.1579 0.8324 0.0
C238 C 0.15526 0.1818 0.85283 0.0
C239 C 0.15643 0.20477 0.87613 0.0
N240 N 0.18563 0.19219 0.85968 0.0
N241 N 0.18636 0.20655 0.87413 0.0
N242 N 0.1367 0.1897 0.86282 0.0
H243 H 0.15601 0.14823 0.83398 0.0
H244 H 0.14626 0.17915 0.82654 0.0
H245 H 0.11547 0.14341 0.83793 0.0
C246 C 0.14264 0.16184 0.83699 0.0
C247 C 0.34131 0.19149 0.85698 0.0
H248 H 0.33452 0.21126 0.85795 0.0
H249 H 0.369 0.20329 0.85741 0.0
H250 H 0.33069 0.17485 0.86797 0.0
O251 O 0.27008 0.16579 0.8658 0.0
O252 O 0.23451 0.17913 0.87657 0.0
C253 C 0.28928 0.24662 0.8495 0.0
O254 O 0.18995 0.13241 0.85086 0.0
O255 O 0.22727 0.12229 0.83949 0.0
Zn256 Zn 0.8197 0.04196 0.84841 0.0
O257 O 0.81802 0.02667 0.8235 0.0
C258 C 0.89215 0.09257 0.84343 0.0
Zn259 Zn 0.82764 0.08999 0.83796 0.0
C260 C 0.82025 0.04513 0.81123 0.0
O261 O 0.82339 0.07368 0.81378 0.0
C262 C 0.82841 0.08806 0.87478 0.0
O263 O 0.77447 0.06987 0.83935 0.0
O264 O 0.76723 0.02164 0.84824 0.0
N265 N 0.83455 0.13482 0.82966 0.0
C266 C 0.82794 0.15733 0.83686 0.0
C267 C 0.85642 0.17993 0.8149 0.0
N268 N 0.85191 0.14877 0.8159 0.0
N269 N 0.84177 0.18607 0.82795 0.0
C270 C 0.82528 0.97801 0.85081 0.0
C271 C 0.7986 0.95508 0.87322 0.0
N272 N 0.81366 0.99754 0.85688 0.0
N273 N 0.79703 0.98324 0.87079 0.0
N274 N 0.81584 0.95115 0.86072 0.0
H275 H 0.832 0.97306 0.82477 0.0
H276 H 0.86571 0.97716 0.83764 0.0
H277 H 0.86172 0.0133 0.83326 0.0
C278 C 0.84762 0.98611 0.83583 0.0
C279 C 0.80667 0.15059 0.85216 0.0
H280 H 0.78691 0.12389 0.85279 0.0
H281 H 0.79482 0.16645 0.8522 0.0
H282 H 0.82243 0.15643 0.86348 0.0
O283 O 0.83302 0.10632 0.86214 0.0
O284 O 0.82088 0.05775 0.87295 0.0
C285 C 0.75493 0.04 0.8443 0.0
O286 O 0.87244 0.06352 0.8492 0.0
O287 O 0.88003 0.10943 0.83701 0.0
Zn288 Zn 0.7444 0.92252 0.66791 0.0
O289 O 0.71104 0.94188 0.66598 0.0
C290 C 0.74716 0.92273 0.63093 0.0
Zn291 Zn 0.78369 0.97022 0.65685 0.0
C292 C 0.72048 0.97131 0.66064 0.0
O293 O 0.75096 0.99016 0.65642 0.0
C294 C 0.80633 0.92021 0.66291 0.0
O295 O 0.79687 0.98665 0.68174 0.0
O296 O 0.75605 0.93972 0.6919 0.0
N297 N 0.82268 0.01431 0.64834 0.0
C298 C 0.85364 0.03315 0.65479 0.0
C299 C 0.85225 0.05603 0.63188 0.0
N300 N 0.82183 0.02856 0.6341 0.0
N301 N 0.87236 0.05952 0.64483 0.0
C302 C 0.67829 0.85453 0.66968 0.0
C303 C 0.68494 0.83412 0.69223 0.0
N304 N 0.70705 0.87812 0.67671 0.0
N305 N 0.71091 0.86557 0.69084 0.0
N306 N 0.6641 0.82641 0.67907 0.0
H307 H 0.66913 0.88607 0.65317 0.0
H308 H 0.63574 0.84285 0.65399 0.0
H309 H 0.67401 0.85417 0.64299 0.0
C310 C 0.66332 0.85972 0.65411 0.0
C311 C 0.86658 0.02494 0.67025 0.0
H312 H 0.86364 0.03842 0.68101 0.0
H313 H 0.89362 0.03336 0.66899 0.0
H314 H 0.85303 0.99783 0.67299 0.0
O315 O 0.81519 0.94877 0.65664 0.0
O316 O 0.77753 0.90353 0.6695 0.0
C317 C 0.78103 0.96863 0.69418 0.0
O318 O 0.73377 0.90515 0.64382 0.0
O319 O 0.76946 0.95335 0.63236 0.0
Zn320 Zn 0.08771 0.82479 0.67291 0.0
O321 O 0.06502 0.77159 0.67497 0.0
C322 C 0.08261 0.81696 0.63627 0.0
Zn323 Zn 0.04005 0.81793 0.66217 0.0
C324 C 0.03539 0.75228 0.66964 0.0
O325 O 0.01831 0.76503 0.66413 0.0
C326 C 0.09312 0.88998 0.66403 0.0
O327 O 0.02642 0.82041 0.68693 0.0
O328 O 0.07411 0.82833 0.697 0.0
N329 N 0.99579 0.81302 0.65376 0.0
C330 C 0.97826 0.82737 0.6593 0.0
C331 C 0.9526 0.79811 0.63794 0.0
N332 N 0.97979 0.79485 0.64048 0.0
N333 N 0.95103 0.81813 0.64972 0.0
C334 C 0.15398 0.82287 0.67497 0.0
C335 C 0.17854 0.85588 0.69534 0.0
N336 N 0.13239 0.83156 0.68143 0.0
N337 N 0.14756 0.85173 0.69423 0.0
N338 N 0.18338 0.83819 0.68334 0.0
H339 H 0.11887 0.77834 0.66167 0.0
H340 H 0.1614 0.78613 0.6619 0.0
H341 H 0.15027 0.81091 0.64888 0.0
C342 C 0.14563 0.79802 0.6611 0.0
C343 C 0.98847 0.85201 0.67344 0.0
H344 H 0.97462 0.8386 0.68484 0.0
H345 H 0.98171 0.87147 0.67061 0.0
H346 H 0.01559 0.8645 0.67601 0.0
O347 O 0.06298 0.87038 0.65971 0.0
O348 O 0.11006 0.87774 0.67022 0.0
C349 C 0.04575 0.82579 0.69926 0.0
O350 O 0.10073 0.82144 0.64894 0.0
O351 O 0.05431 0.815 0.63771 0.0
Zn352 Zn 0.17789 0.26455 0.67056 0.0
O353 O 0.22927 0.29919 0.66761 0.0
C354 C 0.17246 0.25559 0.63355 0.0
Zn355 Zn 0.18847 0.22568 0.66061 0.0
C356 C 0.25035 0.29166 0.6619 0.0
O357 O 0.24071 0.26123 0.65827 0.0
C358 C 0.11559 0.20076 0.66783 0.0
O359 O 0.19534 0.21757 0.6857 0.0
O360 O 0.18606 0.25702 0.69504 0.0
N361 N 0.19587 0.18691 0.65369 0.0
C362 C 0.17879 0.15434 0.6582 0.0
C363 C 0.21668 0.15995 0.6411 0.0
N364 N 0.21952 0.19039 0.64311 0.0
N365 N 0.19114 0.13694 0.65038 0.0
C366 C 0.17481 0.33007 0.66964 0.0
C367 C 0.14847 0.32654 0.6921 0.0
N368 N 0.16956 0.30215 0.67768 0.0
N369 N 0.15352 0.30019 0.69171 0.0
N370 N 0.16146 0.34567 0.67836 0.0
H371 H 0.21428 0.33638 0.65284 0.0
H372 H 0.20558 0.37041 0.65272 0.0
H373 H 0.17721 0.33106 0.6429 0.0
C374 C 0.19423 0.3428 0.65367 0.0
C375 C 0.15108 0.13967 0.67088 0.0
H376 H 0.15067 0.11828 0.67746 0.0
H377 H 0.1267 0.13027 0.66443 0.0
H378 H 0.15382 0.15851 0.68025 0.0
O379 O 0.13588 0.19216 0.66208 0.0
O380 O 0.12682 0.23031 0.67328 0.0
C381 C 0.19292 0.23405 0.6978 0.0
O382 O 0.16886 0.27081 0.64586 0.0
O383 O 0.18201 0.23445 0.63588 0.0
Zn384 Zn 0.772 0.55265 0.50219 0.0
O385 O 0.74644 0.52616 0.52567 0.0
C386 C 0.70541 0.54339 0.49491 0.0
Zn387 Zn 0.76839 0.59594 0.51005 0.0
C388 C 0.74266 0.54355 0.53702 0.0
O389 O 0.75405 0.57457 0.53424 0.0
C390 C 0.79358 0.60555 0.47514 0.0
O391 O 0.82102 0.62059 0.5163 0.0
O392 O 0.81961 0.5727 0.51278 0.0
N393 N 0.76486 0.6358 0.51829 0.0
C394 C 0.77978 0.66815 0.51348 0.0
C395 C 0.74431 0.66112 0.53238 0.0
N396 N 0.74306 0.63159 0.53013 0.0
N397 N 0.76714 0.68455 0.52208 0.0
C398 C 0.78816 0.4945 0.4988 0.0
C399 C 0.77149 0.47858 0.4739 0.0
N400 N 0.77517 0.51309 0.49304 0.0
N401 N 0.76492 0.50316 0.47757 0.0
N402 N 0.78634 0.47269 0.48693 0.0
H403 H 0.82887 0.51319 0.51608 0.0
H404 H 0.79469 0.47196 0.52099 0.0
H405 H 0.79093 0.50871 0.52468 0.0
C406 C 0.80121 0.4971 0.51619 0.0
C407 C 0.80788 0.68395 0.5011 0.0
H408 H 0.82367 0.67211 0.50174 0.0
H409 H 0.82367 0.71124 0.50349 0.0
H410 H 0.79739 0.6803 0.48831 0.0
O411 O 0.78103 0.61671 0.48569 0.0
O412 O 0.79533 0.57961 0.47895 0.0
C413 C 0.83593 0.60359 0.51652 0.0
O414 O 0.72518 0.53272 0.49136 0.0
O415 O 0.71612 0.57002 0.50355 0.0
Zn416 Zn 0.42901 0.228 0.51042 0.0
O417 O 0.45382 0.22736 0.5342 0.0
C418 C 0.45883 0.1904 0.49788 0.0
Zn419 Zn 0.39273 0.17471 0.51319 0.0
C420 C 0.43901 0.20052 0.54294 0.0
O421 O 0.4113 0.17665 0.53763 0.0
C422 C 0.38296 0.19781 0.48013 0.0
O423 O 0.3545 0.18466 0.52238 0.0
O424 O 0.39523 0.23658 0.52351 0.0
N425 N 0.36142 0.12471 0.51614 0.0
C426 C 0.33026 0.10414 0.51032 0.0
C427 C 0.34392 0.07476 0.52543 0.0
N428 N 0.36984 0.10645 0.52556 0.0
N429 N 0.31885 0.07271 0.51594 0.0
C430 C 0.48957 0.3019 0.50649 0.0
C431 C 0.46216 0.32788 0.50517 0.0
N432 N 0.45684 0.27882 0.50789 0.0
N433 N 0.43999 0.29512 0.50703 0.0
N434 N 0.49348 0.33289 0.50474 0.0
H435 H 0.54025 0.31564 0.51293 0.0
H436 H 0.52322 0.28893 0.49491 0.0
H437 H 0.50965 0.27151 0.51543 0.0
C438 C 0.51736 0.29409 0.50762 0.0
C439 C 0.31031 0.11498 0.49988 0.0
H440 H 0.31732 0.14124 0.5025 0.0
H441 H 0.28308 0.09864 0.5022 0.0
H442 H 0.31523 0.11303 0.48649 0.0
O443 O 0.37525 0.17182 0.48869 0.0
O444 O 0.40381 0.22631 0.48634 0.0
C445 C 0.36495 0.21507 0.52618 0.0
O446 O 0.46323 0.21988 0.49763 0.0
O447 O 0.43181 0.16652 0.50396 0.0
Zn448 Zn 0.77113 0.21119 0.50829 0.0
O449 O 0.77064 0.2368 0.5319 0.0
C450 C 0.81834 0.27903 0.49712 0.0
Zn451 Zn 0.82211 0.22279 0.51341 0.0
C452 C 0.79552 0.24564 0.54179 0.0
O453 O 0.81803 0.23883 0.5376 0.0
C454 C 0.80246 0.19271 0.47958 0.0
O455 O 0.80312 0.17165 0.52199 0.0
O456 O 0.75319 0.16596 0.52076 0.0
N457 N 0.8695 0.2343 0.51896 0.0
C458 C 0.88783 0.22049 0.51398 0.0
C459 C 0.91837 0.2611 0.53025 0.0
N460 N 0.88843 0.25939 0.52914 0.0
N461 N 0.9186 0.23695 0.52086 0.0
C462 C 0.70204 0.20839 0.50417 0.0
C463 C 0.67433 0.16042 0.49252 0.0
N464 N 0.72287 0.19605 0.50235 0.0
N465 N 0.70561 0.16637 0.49507 0.0
N466 N 0.67138 0.18637 0.49807 0.0
H467 H 0.71192 0.23588 0.5269 0.0
H468 H 0.69288 0.24869 0.51119 0.0
H469 H 0.73658 0.26017 0.50953 0.0
C470 C 0.7112 0.24022 0.51332 0.0
C471 C 0.87522 0.19004 0.50305 0.0
H472 H 0.84808 0.17288 0.50484 0.0
H473 H 0.88874 0.1763 0.50576 0.0
H474 H 0.87951 0.19794 0.48978 0.0
O475 O 0.82758 0.20871 0.48905 0.0
O476 O 0.77406 0.18755 0.48469 0.0
C477 C 0.77166 0.15377 0.52423 0.0
O478 O 0.78807 0.25588 0.49578 0.0
O479 O 0.83927 0.27332 0.50473 0.0
Zn480 Zn 0.9311 0.43579 0.66421 0.0
O481 O 0.95754 0.489 0.65813 0.0
C482 C 0.94213 0.46074 0.69922 0.0
Zn483 Zn 0.88929 0.44114 0.67241 0.0
C484 C 0.94101 0.5044 0.65781 0.0
O485 O 0.91019 0.48852 0.66158 0.0
C486 C 0.87725 0.37363 0.67966 0.0
O487 O 0.86205 0.41577 0.649 0.0
O488 O 0.9099 0.42267 0.64002 0.0
N489 N 0.85141 0.447 0.68153 0.0
C490 C 0.82821 0.45241 0.67426 0.0
C491 C 0.82409 0.45648 0.7006 0.0
N492 N 0.84878 0.44953 0.69788 0.0
N493 N 0.81095 0.45857 0.68597 0.0
C494 C 0.00243 0.44567 0.66082 0.0
C495 C 0.99488 0.40921 0.64237 0.0
N496 N 0.97011 0.43086 0.65602 0.0
N497 N 0.96554 0.40842 0.64446 0.0
N498 N 0.01848 0.43234 0.6525 0.0
H499 H 0.00698 0.49019 0.67226 0.0
H500 H 0.04584 0.48983 0.67042 0.0
H501 H 0.01522 0.46421 0.68585 0.0
C502 C 0.0186 0.47424 0.67296 0.0
C503 C 0.82389 0.45361 0.65578 0.0
H504 H 0.84853 0.465 0.64942 0.0
H505 H 0.81131 0.46812 0.65272 0.0
H506 H 0.80823 0.42765 0.65104 0.0
O507 O 0.86811 0.39451 0.68351 0.0
O508 O 0.90304 0.383 0.67051 0.0
C509 C 0.87895 0.41185 0.63743 0.0
O510 O 0.95187 0.44709 0.68857 0.0
O511 O 0.91722 0.46432 0.69553 0.0
Zn512 Zn 0.55659 0.49152 0.66225 0.0
O513 O 0.50877 0.48275 0.65266 0.0
C514 C 0.52321 0.46983 0.69522 0.0
Zn515 Zn 0.53764 0.43777 0.66496 0.0
C516 C 0.48819 0.45245 0.6489 0.0
O517 O 0.49594 0.4303 0.65185 0.0
C518 C 0.60512 0.47353 0.67784 0.0
O519 O 0.56274 0.43723 0.64108 0.0
O520 O 0.57308 0.48873 0.63799 0.0
N521 N 0.5132 0.3868 0.66775 0.0
C522 C 0.52172 0.36281 0.66876 0.0
C523 C 0.46852 0.33858 0.67102 0.0
N524 N 0.48016 0.37157 0.66919 0.0
N525 N 0.49405 0.33234 0.67084 0.0
C526 C 0.56706 0.56324 0.66404 0.0
C527 C 0.61095 0.59069 0.64919 0.0
N528 N 0.57694 0.54162 0.65899 0.0
N529 N 0.60419 0.55871 0.64977 0.0
N530 N 0.58804 0.59416 0.65806 0.0
H531 H 0.51667 0.52737 0.67202 0.0
H532 H 0.52553 0.57009 0.6708 0.0
H533 H 0.5426 0.55714 0.68753 0.0
C534 C 0.53606 0.55381 0.67406 0.0
C535 C 0.55671 0.36916 0.6669 0.0
H536 H 0.55665 0.34767 0.6606 0.0
H537 H 0.56792 0.3721 0.67947 0.0
H538 H 0.57227 0.39247 0.6597 0.0
O539 O 0.57921 0.44461 0.67775 0.0
O540 O 0.60346 0.49834 0.67185 0.0
C541 C 0.57576 0.46432 0.63248 0.0
O542 O 0.54202 0.49544 0.68654 0.0
O543 O 0.51473 0.44097 0.68915 0.0
Zn544 Zn 0.50411 0.06824 0.66443 0.0
O545 O 0.53069 0.04343 0.65607 0.0
C546 C 0.52278 0.05988 0.69899 0.0
Zn547 Zn 0.55181 0.11292 0.67152 0.0
C548 C 0.56259 0.06042 0.65576 0.0
O549 O 0.57734 0.09077 0.66052 0.0
C550 C 0.49597 0.12262 0.68049 0.0
O551 O 0.55173 0.13822 0.64783 0.0
O552 O 0.50837 0.09023 0.64064 0.0
N553 N 0.59626 0.15214 0.67961 0.0
C554 C 0.62757 0.16858 0.67325 0.0
C555 C 0.63014 0.18585 0.69817 0.0
N556 N 0.598 0.16299 0.69507 0.0
N557 N 0.64953 0.18979 0.68478 0.0
C558 C 0.44196 0.99647 0.66169 0.0
C559 C 0.4111 0.00473 0.64483 0.0
N560 N 0.45923 0.02891 0.65703 0.0
N561 N 0.4401 0.03388 0.64643 0.0
N562 N 0.41155 0.9808 0.65431 0.0
H563 H 0.48294 0.99178 0.6715 0.0
H564 H 0.44357 0.95276 0.66989 0.0
H565 H 0.44954 0.98255 0.68596 0.0
C566 C 0.4554 0.97987 0.67283 0.0
C567 C 0.63586 0.16453 0.65563 0.0
H568 H 0.61329 0.15411 0.64762 0.0
H569 H 0.64554 0.14684 0.65542 0.0
H570 H 0.65532 0.18897 0.6505 0.0
O571 O 0.52712 0.13464 0.68253 0.0
O572 O 0.47903 0.09475 0.6729 0.0
C573 C 0.52873 0.12079 0.63722 0.0
O574 O 0.4991 0.04645 0.68844 0.0
O575 O 0.54885 0.08751 0.69518 0.0
Zn576 Zn 0.58153 0.07065 0.17551 0.0
O577 O 0.59928 0.03704 0.18093 0.0
C578 C 0.58282 0.08419 0.21171 0.0
Zn579 Zn 0.63057 0.11168 0.18468 0.0
C580 C 0.62863 0.04664 0.18639 0.0
O581 O 0.64858 0.07779 0.1889 0.0
C582 C 0.58202 0.13436 0.17476 0.0
O583 O 0.64698 0.11728 0.15981 0.0
O584 O 0.59874 0.07533 0.15154 0.0
N585 N 0.67546 0.15203 0.1917 0.0
C586 C 0.6947 0.18171 0.18401 0.0
C587 C 0.71595 0.18491 0.20805 0.0
N588 N 0.68881 0.15404 0.20661 0.0
N589 N 0.72034 0.20258 0.19394 0.0
C590 C 0.51281 0.00492 0.1765 0.0
C591 C 0.49331 0.00457 0.15234 0.0
N592 N 0.5365 0.03172 0.16815 0.0
N593 N 0.52448 0.03126 0.15308 0.0
N594 N 0.4853 0.9876 0.16688 0.0
H595 H 0.54371 0.00186 0.19586 0.0
H596 H 0.50098 0.96745 0.19553 0.0
H597 H 0.51039 0.00805 0.2031 0.0
C598 C 0.51727 0.99487 0.1937 0.0
C599 C 0.6873 0.19136 0.1673 0.0
H600 H 0.66061 0.17613 0.16389 0.0
H601 H 0.7024 0.18767 0.15763 0.0
H602 H 0.69438 0.21819 0.16719 0.0
O603 O 0.61079 0.14412 0.18101 0.0
O604 O 0.56409 0.10399 0.17032 0.0
C605 C 0.62829 0.09825 0.14827 0.0
O606 O 0.56452 0.0672 0.19959 0.0
O607 O 0.61362 0.105 0.20936 0.0
Zn608 Zn 0.92638 0.51252 0.17412 0.0
O609 O 0.95874 0.56448 0.17865 0.0
C610 C 0.90738 0.50572 0.21001 0.0
Zn611 Zn 0.88362 0.52005 0.17989 0.0
C612 C 0.94792 0.58466 0.18121 0.0
O613 O 0.91637 0.57326 0.18165 0.0
C614 C 0.86363 0.44793 0.17403 0.0
O615 O 0.87975 0.52407 0.1541 0.0
O616 O 0.92583 0.52261 0.149 0.0
N617 N 0.84199 0.52455 0.18332 0.0
C618 C 0.8106 0.50513 0.17745 0.0
C619 C 0.80996 0.54231 0.19304 0.0
N620 N 0.8416 0.54776 0.19294 0.0
N621 N 0.79007 0.51554 0.18349 0.0
C622 C 0.99144 0.50913 0.17976 0.0
C623 C 0.99628 0.4903 0.15626 0.0
N624 N 0.96638 0.50614 0.16992 0.0
N625 N 0.96964 0.49473 0.15528 0.0
N626 N 0.01048 0.49908 0.1715 0.0
H627 H 0.99117 0.54336 0.19799 0.0
H628 H 0.0251 0.53459 0.20028 0.0
H629 H 0.98299 0.50366 0.20615 0.0
C630 C 0.99823 0.52368 0.19702 0.0
C631 C 0.80009 0.47688 0.16521 0.0
H632 H 0.77943 0.47454 0.15716 0.0
H633 H 0.79088 0.45302 0.17214 0.0
H634 H 0.8211 0.48058 0.15715 0.0
O635 O 0.85298 0.46715 0.1789 0.0
O636 O 0.89414 0.46061 0.16982 0.0
C637 C 0.90131 0.52528 0.14388 0.0
O638 O 0.92557 0.50188 0.19934 0.0
O639 O 0.8877 0.51594 0.20546 0.0
Zn640 Zn 0.47262 0.36239 0.184 0.0
O641 O 0.45882 0.34654 0.15926 0.0
C642 C 0.54269 0.41118 0.17242 0.0
Zn643 Zn 0.47962 0.41145 0.17575 0.0
C644 C 0.45724 0.36533 0.14815 0.0
O645 O 0.4645 0.39496 0.15178 0.0
C646 C 0.49642 0.40941 0.21133 0.0
O647 O 0.42908 0.39363 0.18259 0.0
O648 O 0.42126 0.3443 0.18987 0.0
N649 N 0.48538 0.45681 0.16962 0.0
C650 C 0.48305 0.47997 0.1789 0.0
C651 C 0.50245 0.50179 0.15513 0.0
N652 N 0.49705 0.47027 0.15479 0.0
N653 N 0.49404 0.50866 0.17015 0.0
C654 C 0.47893 0.29868 0.18217 0.0
C655 C 0.46147 0.27684 0.20617 0.0
N656 N 0.46828 0.31742 0.19015 0.0
N657 N 0.4572 0.30365 0.20501 0.0
N658 N 0.47473 0.27302 0.19192 0.0
H659 H 0.47817 0.28874 0.15605 0.0
H660 H 0.51815 0.30351 0.16578 0.0
H661 H 0.50354 0.3323 0.16121 0.0
C662 C 0.49581 0.30665 0.16541 0.0
C663 C 0.46854 0.47386 0.19619 0.0
H664 H 0.44856 0.44744 0.19773 0.0
H665 H 0.4581 0.49047 0.19884 0.0
H666 H 0.48838 0.47905 0.20548 0.0
O667 O 0.49586 0.42775 0.19971 0.0
O668 O 0.48599 0.37863 0.20864 0.0
C669 C 0.40985 0.36422 0.18811 0.0
O670 O 0.52445 0.38211 0.17857 0.0
O671 O 0.52967 0.42911 0.16912 0.0
Zn672 Zn 0.44432 0.29818 0.99368 0.0
O673 O 0.44837 0.31254 0.01886 0.0
C674 C 0.46581 0.24827 0.00268 0.0
Zn675 Zn 0.40245 0.24859 0.00163 0.0
C676 C 0.42852 0.29295 0.02993 0.0
O677 O 0.4059 0.26363 0.02599 0.0
C678 C 0.41806 0.25286 0.9656 0.0
O679 O 0.36948 0.26731 0.99655 0.0
O680 O 0.41102 0.31696 0.98963 0.0
N681 N 0.36308 0.20296 0.00781 0.0
C682 C 0.33676 0.1801 0.99886 0.0
C683 C 0.33578 0.15789 0.02232 0.0
N684 N 0.36222 0.18924 0.02245 0.0
N685 N 0.31937 0.15136 0.00763 0.0
C686 C 0.51456 0.36179 0.99547 0.0
C687 C 0.51831 0.38483 0.97188 0.0
N688 N 0.48493 0.34343 0.98762 0.0
N689 N 0.48725 0.35793 0.97301 0.0
N690 N 0.53576 0.38797 0.98591 0.0
H691 H 0.50728 0.32648 0.01529 0.0
H692 H 0.5219 0.36884 0.02183 0.0
H693 H 0.55011 0.35833 0.01166 0.0
C694 C 0.52383 0.35302 0.01193 0.0
C695 C 0.32725 0.18664 0.98194 0.0
H696 H 0.33419 0.21327 0.98066 0.0
H697 H 0.29993 0.17052 0.97978 0.0
H698 H 0.34085 0.1811 0.97218 0.0
O699 O 0.40016 0.23379 0.97728 0.0
O700 O 0.43907 0.28336 0.9686 0.0
C701 C 0.37973 0.29721 0.99172 0.0
O702 O 0.47641 0.27782 0.99725 0.0
O703 O 0.43508 0.23019 0.00641 0.0
Zn704 Zn 0.74899 0.14997 0.0022 0.0
O705 O 0.72891 0.09732 0.99837 0.0
C706 C 0.7418 0.15695 0.96574 0.0
Zn707 Zn 0.69944 0.14228 0.99422 0.0
C708 C 0.69857 0.07772 0.99414 0.0
O709 O 0.67923 0.0897 0.99196 0.0
C710 C 0.75104 0.2144 0.00093 0.0
O711 O 0.68761 0.1362 0.01964 0.0
O712 O 0.73586 0.14146 0.027 0.0
N713 N 0.65397 0.13813 0.98909 0.0
C714 C 0.64109 0.15696 0.99465 0.0
C715 C 0.60545 0.12087 0.97783 0.0
N716 N 0.63173 0.11561 0.97868 0.0
N717 N 0.61095 0.14687 0.98766 0.0
C718 C 0.81733 0.15225 0.99906 0.0
C719 C 0.83976 0.17338 0.02251 0.0
N720 N 0.7947 0.15601 0.00803 0.0
N721 N 0.80857 0.16882 0.02266 0.0
N722 N 0.84603 0.16329 0.00782 0.0
H723 H 0.78383 0.11635 0.98106 0.0
H724 H 0.82658 0.12481 0.97995 0.0
H725 H 0.81595 0.15516 0.97241 0.0
C726 C 0.81052 0.13605 0.98217 0.0
C727 C 0.65703 0.18423 0.00753 0.0
H728 H 0.6376 0.18566 0.01509 0.0
H729 H 0.67221 0.20866 0.00116 0.0
H730 H 0.67353 0.18018 0.01603 0.0
O731 O 0.72144 0.19497 0.99578 0.0
O732 O 0.7688 0.20199 0.00565 0.0
C733 C 0.70719 0.13664 0.03089 0.0
O734 O 0.76166 0.15951 0.97734 0.0
O735 O 0.71152 0.14786 0.96898 0.0
Zn736 Zn 0.85377 0.54835 0.98972 0.0
O737 O 0.86341 0.54133 0.01445 0.0
C738 C 0.78296 0.52527 0.99966 0.0
Zn739 Zn 0.84674 0.58961 0.99941 0.0
C740 C 0.86572 0.56089 0.02616 0.0
O741 O 0.86051 0.58495 0.02338 0.0
C742 C 0.8344 0.57696 0.96301 0.0
O743 O 0.89788 0.6236 0.99395 0.0
O744 O 0.90587 0.58244 0.9861 0.0
N745 N 0.83962 0.62784 0.00704 0.0
C746 C 0.84242 0.65469 0.99884 0.0
C747 C 0.82006 0.65243 0.02243 0.0
N748 N 0.82605 0.62671 0.02177 0.0
N749 N 0.8299 0.67037 0.00817 0.0
C750 C 0.84921 0.47906 0.9898 0.0
C751 C 0.86853 0.47717 0.96589 0.0
N752 N 0.859 0.50872 0.98227 0.0
N753 N 0.87111 0.50756 0.96743 0.0
N754 N 0.85529 0.4591 0.97988 0.0
H755 H 0.81877 0.4825 0.00958 0.0
H756 H 0.8504 0.47305 0.01619 0.0
H757 H 0.81289 0.44132 0.00635 0.0
C758 C 0.83163 0.46849 0.00636 0.0
C759 C 0.85893 0.66635 0.98212 0.0
H760 H 0.87909 0.66023 0.98045 0.0
H761 H 0.86961 0.6938 0.98075 0.0
H762 H 0.84021 0.65349 0.97211 0.0
O763 O 0.83274 0.59342 0.9753 0.0
O764 O 0.84442 0.55614 0.96519 0.0
C765 C 0.91744 0.61363 0.98865 0.0
O766 O 0.80171 0.51575 0.99287 0.0
O767 O 0.79574 0.55535 0.0047 0.0
Zn768 Zn 0.44316 0.89016 0.83817 0.0
O769 O 0.41988 0.86367 0.86192 0.0
C770 C 0.37651 0.87927 0.8304 0.0
Zn771 Zn 0.43933 0.93386 0.84603 0.0
C772 C 0.41461 0.88054 0.87299 0.0
O773 O 0.42358 0.91088 0.86976 0.0
C774 C 0.46472 0.94424 0.81115 0.0
O775 O 0.49131 0.95927 0.85354 0.0
O776 O 0.4914 0.91259 0.84834 0.0
N777 N 0.43356 0.97216 0.85469 0.0
C778 C 0.44865 0.00498 0.85082 0.0
C779 C 0.41018 0.99519 0.86842 0.0
N780 N 0.40988 0.96621 0.86576 0.0
N781 N 0.43427 0.01996 0.85918 0.0
C782 C 0.4557 0.82968 0.8363 0.0
C783 C 0.45839 0.82481 0.80992 0.0
N784 N 0.44944 0.85238 0.82909 0.0
N785 N 0.45112 0.84928 0.81271 0.0
N786 N 0.46156 0.81229 0.82453 0.0
H787 H 0.46961 0.85089 0.86092 0.0
H788 H 0.47283 0.81369 0.85765 0.0
H789 H 0.43237 0.81038 0.85987 0.0
C790 C 0.458 0.82601 0.85476 0.0
C791 C 0.47817 0.02257 0.83941 0.0
H792 H 0.49383 0.01058 0.83975 0.0
H793 H 0.49364 0.04939 0.84291 0.0
H794 H 0.469 0.0211 0.82649 0.0
O795 O 0.45436 0.95696 0.82205 0.0
O796 O 0.46399 0.91689 0.81462 0.0
C797 C 0.50683 0.94288 0.85316 0.0
O798 O 0.39606 0.86789 0.82784 0.0
O799 O 0.38706 0.90675 0.83832 0.0
Zn800 Zn 0.1122 0.55686 0.83842 0.0
O801 O 0.13825 0.55865 0.86218 0.0
C802 C 0.12522 0.50222 0.83045 0.0
Zn803 Zn 0.07 0.5083 0.84574 0.0
C804 C 0.12112 0.53646 0.8732 0.0
O805 O 0.09078 0.51524 0.86988 0.0
C806 C 0.06043 0.52388 0.81087 0.0
O807 O 0.04283 0.5335 0.85262 0.0
O808 O 0.08944 0.58137 0.84925 0.0
N809 N 0.03137 0.46335 0.85331 0.0
C810 C -0.00074 0.44521 0.84822 0.0
C811 C 0.00719 0.41633 0.86652 0.0
N812 N 0.03615 0.44546 0.86476 0.0
N813 N 0.9836 0.4155 0.85627 0.0
C814 C 0.16684 0.63311 0.83607 0.0
C815 C 0.18342 0.6351 0.81105 0.0
N816 N 0.15037 0.6016 0.82991 0.0
N817 N 0.16074 0.603 0.81438 0.0
N818 N 0.18772 0.65482 0.82436 0.0
H819 H 0.15262 0.61945 0.86178 0.0
H820 H 0.14541 0.65162 0.8538 0.0
H821 H 0.18755 0.66134 0.85868 0.0
C822 C 0.16303 0.64184 0.85364 0.0
C823 C 0.98285 0.45733 0.8361 0.0
H824 H 0.99374 0.48482 0.83713 0.0
H825 H 0.95547 0.4448 0.83839 0.0
H826 H 0.98701 0.45146 0.82319 0.0
O827 O 0.04988 0.50026 0.82142 0.0
O828 O 0.0854 0.55226 0.81482 0.0
C829 C 0.05879 0.56541 0.85335 0.0
O830 O 0.13499 0.53275 0.8275 0.0
O831 O 0.09842 0.48479 0.83875 0.0
Zn832 Zn 0.43859 0.53701 0.84114 0.0
O833 O 0.43811 0.56137 0.86521 0.0
C834 C 0.47523 0.60519 0.82908 0.0
Zn835 Zn 0.49196 0.55503 0.84367 0.0
C836 C 0.46492 0.5732 0.87394 0.0
O837 O 0.489 0.57013 0.8683 0.0
C838 C 0.47001 0.52294 0.81049 0.0
O839 O 0.48237 0.50637 0.85244 0.0
O840 O 0.43033 0.49461 0.85389 0.0
N841 N 0.5417 0.57416 0.84727 0.0
C842 C 0.563 0.56421 0.84181 0.0
C843 C 0.59003 0.60489 0.85868 0.0
N844 N 0.55853 0.59942 0.85774 0.0
N845 N 0.59333 0.58308 0.84881 0.0
C846 C 0.3644 0.52268 0.83789 0.0
C847 C 0.33933 0.46967 0.83436 0.0
N848 N 0.38791 0.51349 0.83823 0.0
N849 N 0.37219 0.48059 0.836 0.0
N850 N 0.33372 0.49556 0.83545 0.0
H851 H 0.3951 0.57251 0.84777 0.0
H852 H 0.35041 0.55745 0.84768 0.0
H853 H 0.37381 0.56993 0.82851 0.0
C854 C 0.37139 0.5577 0.84076 0.0
C855 C 0.55381 0.53501 0.83041 0.0
H856 H 0.52746 0.51512 0.83223 0.0
H857 H 0.57034 0.52428 0.83255 0.0
H858 H 0.55698 0.54373 0.81728 0.0
O859 O 0.49591 0.54168 0.81902 0.0
O860 O 0.4414 0.51451 0.81682 0.0
C861 C 0.45211 0.48617 0.8564 0.0
O862 O 0.44623 0.57939 0.82877 0.0
O863 O 0.49975 0.60287 0.83494 0.0
Zn864 Zn 0.5952 0.76143 0.99812 0.0
O865 O 0.62193 0.81396 0.99072 0.0
C866 C 0.60566 0.78852 0.03273 0.0
Zn867 Zn 0.55313 0.76797 0.00531 0.0
C868 C 0.60589 0.82984 0.98987 0.0
O869 O 0.57521 0.81499 0.99398 0.0
C870 C 0.54081 0.70067 0.01416 0.0
O871 O 0.52618 0.74217 0.98191 0.0
O872 O 0.57356 0.74626 0.97409 0.0
N873 N 0.51493 0.7742 0.01403 0.0
C874 C 0.49789 0.7887 0.00801 0.0
C875 C 0.48218 0.77434 0.03315 0.0
N876 N 0.50509 0.76536 0.02964 0.0
N877 N 0.4772 0.78934 0.01988 0.0
C878 C 0.66596 0.76878 0.995 0.0
C879 C 0.65683 0.73178 0.97658 0.0
N880 N 0.63363 0.75496 0.99032 0.0
N881 N 0.62811 0.73215 0.9788 0.0
N882 N 0.68103 0.75451 0.9866 0.0
H883 H 0.67219 0.81408 0.00619 0.0
H884 H 0.71032 0.81217 0.00444 0.0
H885 H 0.67933 0.78747 0.01994 0.0
C886 C 0.68303 0.79742 0.00702 0.0
C887 C 0.50086 0.80082 0.9904 0.0
H888 H 0.51108 0.78878 0.98216 0.0
H889 H 0.51829 0.82828 0.99006 0.0
H890 H 0.47608 0.7955 0.98563 0.0
O891 O 0.5312 0.72163 0.01681 0.0
O892 O 0.56717 0.7094 0.0056 0.0
C893 C 0.54303 0.73659 0.97095 0.0
O894 O 0.6162 0.77491 0.02245 0.0
O895 O 0.58056 0.79149 0.02855 0.0
Zn896 Zn 0.23224 0.82813 0.99792 0.0
O897 O 0.17987 0.80284 0.99041 0.0
C898 C 0.20563 0.81374 0.03271 0.0
Zn899 Zn 0.22501 0.77958 0.00582 0.0
C900 C 0.1638 0.77089 0.98979 0.0
O901 O 0.17811 0.75494 0.99454 0.0
C902 C 0.29295 0.8339 0.01397 0.0
O903 O 0.25009 0.77692 0.9824 0.0
O904 O 0.24662 0.82034 0.97414 0.0
N905 N 0.21784 0.73499 0.01497 0.0
C906 C 0.20315 0.70328 0.00909 0.0
C907 C 0.21673 0.70218 0.03441 0.0
N908 N 0.22618 0.73413 0.03069 0.0
N909 N 0.20191 0.68201 0.02116 0.0
C910 C 0.22489 0.89119 0.99383 0.0
C911 C 0.26292 0.9193 0.97591 0.0
N912 N 0.23932 0.87297 0.98969 0.0
N913 N 0.26278 0.89038 0.97848 0.0
N914 N 0.2394 0.92051 0.98539 0.0
H915 H 0.17932 0.85187 0.00475 0.0
H916 H 0.18052 0.89143 0.00226 0.0
H917 H 0.20474 0.8862 0.01843 0.0
C918 C 0.19555 0.87945 0.00541 0.0
C919 C 0.19135 0.69389 0.99145 0.0
H920 H 0.20347 0.71604 0.98315 0.0
H921 H 0.16392 0.68381 0.99097 0.0
H922 H 0.1968 0.67439 0.98685 0.0
O923 O 0.27154 0.80366 0.01713 0.0
O924 O 0.2844 0.8515 0.00525 0.0
C925 C 0.25562 0.79892 0.97118 0.0
O926 O 0.21937 0.83716 0.02206 0.0
O927 O 0.20209 0.78517 0.02902 0.0
Zn928 Zn 0.16787 0.39994 0.99852 0.0
O929 O 0.19364 0.3741 0.99018 0.0
C930 C 0.1836 0.38914 0.03322 0.0
Zn931 Zn 0.21615 0.44332 0.00613 0.0
C932 C 0.22557 0.39025 0.99019 0.0
O933 O 0.24094 0.42024 0.99545 0.0
C934 C 0.16116 0.45513 0.01459 0.0
O935 O 0.21919 0.47005 0.98248 0.0
O936 O 0.17467 0.42333 0.97498 0.0
N937 N 0.26066 0.48105 0.01505 0.0
C938 C 0.29232 0.49701 0.00913 0.0
C939 C 0.294 0.51341 0.03417 0.0
N940 N 0.26184 0.49133 0.03059 0.0
N941 N 0.31391 0.51734 0.02101 0.0
C942 C 0.1049 0.3292 0.99352 0.0
C943 C 0.07695 0.34034 0.97608 0.0
N944 N 0.12308 0.36219 0.99003 0.0
N945 N 0.10574 0.36897 0.97911 0.0
N946 N 0.07572 0.31493 0.98497 0.0
H947 H 0.14414 0.3227 0.00428 0.0
H948 H 0.10503 0.2842 0.00079 0.0
H949 H 0.10882 0.31183 0.01763 0.0
C950 C 0.11649 0.31085 0.00462 0.0
C951 C 0.30141 0.49337 0.99161 0.0
H952 H 0.31065 0.47532 0.99147 0.0
H953 H 0.32146 0.51784 0.98679 0.0
H954 H 0.27936 0.4836 0.98327 0.0
O955 O 0.19212 0.46612 0.01676 0.0
O956 O 0.14357 0.42757 0.00683 0.0
C957 C 0.19645 0.45346 0.97162 0.0
O958 O 0.1604 0.37654 0.02236 0.0
O959 O 0.21036 0.41643 0.02971 0.0
Zn960 Zn 0.29066 0.44064 0.51321 0.0
O961 O 0.30694 0.45153 0.48831 0.0
C962 C 0.24252 0.4655 0.507 0.0
Zn963 Zn 0.24201 0.40233 0.50241 0.0
C964 C 0.2882 0.4369 0.47585 0.0
O965 O 0.25834 0.41359 0.47813 0.0
C966 C 0.24343 0.40633 0.53947 0.0
O967 O 0.26013 0.36839 0.50388 0.0
O968 O 0.30807 0.40594 0.51478 0.0
N969 N 0.19694 0.3649 0.49439 0.0
C970 C 0.17498 0.33553 0.50157 0.0
C971 C 0.15127 0.34161 0.48011 0.0
N972 N 0.18235 0.36845 0.48093 0.0
N973 N 0.14593 0.3206 0.49296 0.0
C974 C 0.35565 0.50953 0.51496 0.0
C975 C 0.37775 0.50694 0.5379 0.0
N976 N 0.33574 0.47873 0.52139 0.0
N977 N 0.34955 0.47713 0.53563 0.0
N978 N 0.38223 0.52741 0.52496 0.0
H979 H 0.32161 0.5091 0.496 0.0
H980 H 0.36353 0.52238 0.48908 0.0
H981 H 0.35549 0.54993 0.50148 0.0
C982 C 0.34828 0.52329 0.49956 0.0
C983 C 0.18231 0.32086 0.51666 0.0
H984 H 0.20875 0.32712 0.51692 0.0
H985 H 0.16611 0.29318 0.51682 0.0
H986 H 0.1775 0.33115 0.52817 0.0
O987 O 0.22561 0.3921 0.52676 0.0
O988 O 0.27386 0.42883 0.53774 0.0
C989 C 0.28834 0.37591 0.51014 0.0
O990 O 0.2716 0.47399 0.51242 0.0
O991 O 0.22409 0.4361 0.50132 0.0
Zn992 Zn 0.55141 0.84528 0.51591 0.0
O993 O 0.54284 0.85135 0.49073 0.0
C994 C 0.52811 0.773 0.50906 0.0
Zn995 Zn 0.5918 0.83665 0.50638 0.0
C996 C 0.56005 0.84961 0.4788 0.0
O997 O 0.5838 0.84407 0.48183 0.0
C998 C 0.58308 0.83139 0.54322 0.0
O999 O 0.62574 0.8891 0.50928 0.0
O1000 O 0.58531 0.89743 0.51792 0.0
N1001 N 0.63001 0.82929 0.49919 0.0
C1002 C 0.65827 0.83516 0.50709 0.0
C1003 C 0.65518 0.80942 0.48447 0.0
N1004 N 0.62832 0.8136 0.48506 0.0
N1005 N 0.67439 0.8226 0.49818 0.0
C1006 C 0.48239 0.84161 0.51594 0.0
C1007 C 0.48329 0.86577 0.5388 0.0
N1008 N 0.51247 0.85187 0.52309 0.0
N1009 N 0.51301 0.86696 0.53728 0.0
N1010 N 0.46385 0.85034 0.52545 0.0
H1011 H 0.4838 0.80771 0.49753 0.0
H1012 H 0.47357 0.838 0.48962 0.0
H1013 H 0.44297 0.80255 0.50123 0.0
C1014 C 0.4701 0.82112 0.50025 0.0
C1015 C 0.67075 0.8545 0.52309 0.0
H1016 H 0.66338 0.87388 0.5241 0.0
H1017 H 0.69844 0.86671 0.52392 0.0
H1018 H 0.65963 0.8372 0.53383 0.0
O1019 O 0.59869 0.82829 0.53097 0.0
O1020 O 0.56104 0.83972 0.54077 0.0
C1021 C 0.61617 0.90894 0.51464 0.0
O1022 O 0.51872 0.79283 0.5146 0.0
O1023 O 0.55796 0.78483 0.50387 0.0
Zn1024 Zn 0.15503 0.7513 0.4968 0.0
O1025 O 0.1017 0.72898 0.49573 0.0
C1026 C 0.14986 0.74905 0.53356 0.0
Zn1027 Zn 0.14801 0.70409 0.50787 0.0
C1028 C 0.08257 0.69908 0.50072 0.0
O1029 O 0.09548 0.68184 0.50568 0.0
C1030 C 0.22005 0.75696 0.50557 0.0
O1031 O 0.15128 0.68915 0.48353 0.0
O1032 O 0.1565 0.73542 0.47293 0.0
N1033 N 0.14261 0.66029 0.51695 0.0
C1034 C 0.16211 0.64645 0.51487 0.0
C1035 C 0.11976 0.61214 0.52925 0.0
N1036 N 0.11632 0.63897 0.52591 0.0
N1037 N 0.1485 0.6165 0.52259 0.0
C1038 C 0.15256 0.81688 0.49307 0.0
C1039 C 0.18631 0.84044 0.47288 0.0
N1040 N 0.16151 0.79502 0.4873 0.0
N1041 N 0.18205 0.8095 0.47456 0.0
N1042 N 0.16822 0.84587 0.4844 0.0
H1043 H 0.13947 0.81411 0.51897 0.0
H1044 H 0.1073 0.78265 0.50619 0.0
H1045 H 0.11583 0.82543 0.50531 0.0
C1046 C 0.12724 0.80929 0.50661 0.0
C1047 C 0.19337 0.66106 0.50441 0.0
H1048 H 0.19605 0.64093 0.49828 0.0
H1049 H 0.21544 0.67554 0.5126 0.0
H1050 H 0.19352 0.678 0.49465 0.0
O1051 O 0.20028 0.7275 0.51078 0.0
O1052 O 0.20806 0.77325 0.4984 0.0
C1053 C 0.15571 0.70776 0.471 0.0
O1054 O 0.15483 0.76734 0.52085 0.0
O1055 O 0.14506 0.71959 0.53185 0.0
Zn1056 Zn 0.07716 0.58045 0.33655 0.0
O1057 O 0.0477 0.60405 0.33888 0.0
C1058 C 0.06169 0.57573 0.30066 0.0
Zn1059 Zn 0.11325 0.62513 0.32199 0.0
C1060 C 0.05659 0.63288 0.33285 0.0
O1061 O 0.08522 0.64954 0.32595 0.0
C1062 C 0.13185 0.57136 0.3242 0.0
O1063 O 0.1396 0.6434 0.34478 0.0
O1064 O 0.10084 0.60039 0.35872 0.0
N1065 N 0.14986 0.66517 0.30905 0.0
C1066 C 0.17413 0.69555 0.31427 0.0
C1067 C 0.18874 0.68701 0.29044 0.0
N1068 N 0.15869 0.66028 0.29404 0.0
N1069 N 0.19918 0.70961 0.30296 0.0
C1070 C 0.00977 0.51702 0.34474 0.0
C1071 C 0.02399 0.49479 0.36398 0.0
N1072 N 0.04189 0.5389 0.34871 0.0
N1073 N 0.05052 0.52528 0.36087 0.0
N1074 N 0.99808 0.48879 0.35394 0.0
H1075 H 0.99641 0.55058 0.33265 0.0
H1076 H 0.9622 0.50828 0.33531 0.0
H1077 H 0.9936 0.51775 0.31962 0.0
C1078 C 0.98931 0.52384 0.33243 0.0
C1079 C 0.17482 0.71021 0.33105 0.0
H1080 H 0.14923 0.69896 0.33637 0.0
H1081 H 0.18519 0.73763 0.33006 0.0
H1082 H 0.19138 0.70589 0.33948 0.0
O1083 O 0.13996 0.59944 0.31755 0.0
O1084 O 0.10637 0.55746 0.33366 0.0
C1085 C 0.12851 0.62763 0.35842 0.0
O1086 O 0.0543 0.56 0.31434 0.0
O1087 O 0.08607 0.60555 0.29986 0.0
Zn1088 Zn 0.42253 0.49779 0.33565 0.0
O1089 O 0.40328 0.44536 0.33496 0.0
C1090 C 0.42604 0.49854 0.29879 0.0
Zn1091 Zn 0.37566 0.48841 0.3231 0.0
C1092 C 0.37525 0.42508 0.32837 0.0
O1093 O 0.35689 0.43618 0.32273 0.0
C1094 C 0.42439 0.56115 0.32906 0.0
O1095 O 0.35618 0.48477 0.34742 0.0
O1096 O 0.40323 0.49391 0.35898 0.0
N1097 N 0.33227 0.48163 0.31271 0.0
C1098 C 0.31102 0.49179 0.31798 0.0
C1099 C 0.29233 0.46661 0.29474 0.0
N1100 N 0.32063 0.46597 0.29827 0.0
N1101 N 0.28569 0.48236 0.30703 0.0
C1102 C 0.48832 0.49634 0.33979 0.0
C1103 C 0.51124 0.52936 0.36035 0.0
N1104 N 0.46621 0.50495 0.3456 0.0
N1105 N 0.4803 0.52507 0.35854 0.0
N1106 N 0.51702 0.51176 0.34868 0.0
H1107 H 0.45542 0.45138 0.32588 0.0
H1108 H 0.49831 0.46126 0.32667 0.0
H1109 H 0.48619 0.48513 0.3136 0.0
C1110 C 0.48162 0.47209 0.32575 0.0
C1111 C 0.31601 0.51271 0.33325 0.0
H1112 H 0.3428 0.52807 0.33654 0.0
H1113 H 0.30257 0.49591 0.3439 0.0
H1114 H 0.30564 0.52961 0.33132 0.0
O1115 O 0.39594 0.541 0.3228 0.0
O1116 O 0.44128 0.54966 0.33603 0.0
C1117 C 0.37361 0.48858 0.36039 0.0
O1118 O 0.44215 0.50272 0.31219 0.0
O1119 O 0.39567 0.49137 0.29929 0.0
Zn1120 Zn 0.50092 0.92739 0.33714 0.0
O1121 O 0.55335 0.96178 0.33496 0.0
C1122 C 0.49609 0.92517 0.30047 0.0
Zn1123 Zn 0.51117 0.88962 0.32576 0.0
C1124 C 0.57364 0.95407 0.32835 0.0
O1125 O 0.56287 0.92408 0.32358 0.0
C1126 C 0.43815 0.86398 0.33303 0.0
O1127 O 0.5187 0.87759 0.35025 0.0
O1128 O 0.50785 0.91511 0.36076 0.0
N1129 N 0.51798 0.85258 0.31613 0.0
C1130 C 0.50869 0.82184 0.32214 0.0
C1131 C 0.53089 0.82578 0.29825 0.0
N1132 N 0.53185 0.85505 0.30131 0.0
N1133 N 0.51686 0.80481 0.31126 0.0
C1134 C 0.50157 0.99428 0.34029 0.0
C1135 C 0.47582 0.98827 0.36325 0.0
N1136 N 0.49438 0.96441 0.34672 0.0
N1137 N 0.47879 0.96088 0.3611 0.0
N1138 N 0.48993 0.00963 0.35037 0.0
H1139 H 0.5402 0.00196 0.32253 0.0
H1140 H 0.53289 0.03672 0.32457 0.0
H1141 H 0.50344 -0.00063 0.31362 0.0
C1142 C 0.52077 0.00898 0.32441 0.0
C1143 C 0.48965 0.8075 0.33808 0.0
H1144 H 0.50767 0.81129 0.34819 0.0
H1145 H 0.47208 0.78017 0.3368 0.0
H1146 H 0.47521 0.81965 0.3418 0.0
O1147 O 0.45891 0.85601 0.32727 0.0
O1148 O 0.44891 0.89327 0.33884 0.0
C1149 C 0.51526 0.89237 0.36283 0.0
O1150 O 0.49294 0.93883 0.31351 0.0
O1151 O 0.50442 0.90285 0.30163 0.0
H1152 H 0.10711 0.09286 0.13936 0.0
H1153 H 0.2023 0.01682 0.18573 0.0
H1154 H 0.18091 0.15193 0.17666 0.0
H1155 H 0.16515 0.98998 0.13543 0.0
H1156 H 0.19895 0.06824 0.18311 0.0
H1157 H 0.12939 0.05506 0.13842 0.0
C1158 C 0.1279 0.09783 0.14746 0.0
C1159 C 0.14131 0.1252 0.15847 0.0
C1160 C 0.19274 0.0517 0.17245 0.0
C1161 C 0.16723 0.08167 0.15746 0.0
C1162 C 0.19513 0.02263 0.17385 0.0
C1163 C 0.18386 0.99922 0.16077 0.0
C1164 C 0.17867 0.0568 0.15795 0.0
C1165 C 0.17396 0.00743 0.1458 0.0
C1166 C 0.1408 0.0763 0.14684 0.0
C1167 C 0.16854 0.1304 0.16856 0.0
N1168 N 0.17089 0.03514 0.14492 0.0
N1169 N 0.18032 0.10853 0.16799 0.0
H1170 H 0.98154 0.1943 0.18158 0.0
H1171 H 0.90051 0.00839 0.14889 0.0
H1172 H 0.01482 0.16729 0.13693 0.0
H1173 H 0.84087 0.04033 0.17606 0.0
H1174 H 0.94546 0.06715 0.14669 0.0
H1175 H 0.92979 0.13952 0.18085 0.0
C1176 C 0.97727 0.17751 0.1712 0.0
C1177 C 0.00247 0.18512 0.15934 0.0
C1178 C 0.92258 0.06133 0.1532 0.0
C1179 C 0.9446 0.1223 0.15891 0.0
C1180 C 0.89737 0.0279 0.15467 0.0
C1181 C 0.86759 0.01991 0.16291 0.0
C1182 C 0.91793 0.08677 0.16016 0.0
C1183 C 0.86392 0.04586 0.16983 0.0
C1184 C 0.94805 0.14606 0.17095 0.0
C1185 C 0.99602 0.1622 0.14636 0.0
N1186 N 0.88894 0.07826 0.16842 0.0
N1187 N 0.9681 0.1315 0.14671 0.0
H1188 H 0.98147 0.87828 0.18594 0.0
H1189 H 0.8263 0.84491 0.13601 0.0
H1190 H 0.97325 0.84591 0.13469 0.0
H1191 H 0.81488 0.8102 0.18686 0.0
H1192 H 0.88017 0.84644 0.13451 0.0
H1193 H 0.92118 0.85579 0.18661 0.0
C1194 C 0.9671 0.86553 0.17499 0.0
C1195 C 0.98262 0.8632 0.16037 0.0
C1196 C 0.86538 0.8375 0.14581 0.0
C1197 C 0.91357 0.83907 0.16083 0.0
C1198 C 0.83463 0.83642 0.14662 0.0
C1199 C 0.81617 0.82707 0.1615 0.0
C1200 C 0.87815 0.83048 0.1602 0.0
C1201 C 0.82825 0.81702 0.17508 0.0
C1202 C 0.93257 0.85295 0.17535 0.0
C1203 C 0.9624 0.84822 0.14624 0.0
N1204 N 0.85902 0.81987 0.17427 0.0
N1205 N 0.92901 0.83715 0.14674 0.0
H1206 H 0.1438 0.20515 0.33237 0.0
H1207 H 0.95426 0.105 0.36374 0.0
H1208 H 0.10138 0.1115 0.35905 0.0
H1209 H 0.99756 0.1999 0.33794 0.0
H1210 H 0.00929 0.10973 0.36473 0.0
H1211 H 0.09156 0.20576 0.3362 0.0
C1212 C 0.12328 0.18457 0.33893 0.0
C1213 C 0.12652 0.1578 0.34502 0.0
C1214 C 0.00689 0.12975 0.35905 0.0
C1215 C 0.06682 0.15844 0.34967 0.0
C1216 C 0.97548 0.12716 0.35855 0.0
C1217 C 0.97126 0.15194 0.35057 0.0
C1218 C 0.03424 0.1572 0.35142 0.0
C1219 C -0.00034 0.18018 0.34417 0.0
C1220 C 0.09355 0.18498 0.34118 0.0
C1221 C 0.09946 0.13195 0.35363 0.0
N1222 N 0.02991 0.18183 0.34454 0.0
N1223 N 0.07064 0.13284 0.35565 0.0
H1224 H 0.79352 0.7987 0.33095 0.0
H1225 H 0.8796 0.99014 0.35962 0.0
H1226 H 0.87715 0.84557 0.36502 0.0
H1227 H 0.78983 0.94179 0.32982 0.0
H1228 H 0.8774 0.93626 0.36275 0.0
H1229 H 0.78824 0.84898 0.33226 0.0
C1230 C 0.81018 0.81917 0.33904 0.0
C1231 C 0.83605 0.81814 0.34774 0.0
C1232 C 0.85816 0.93738 0.3555 0.0
C1233 C 0.83073 0.87586 0.34898 0.0
C1234 C 0.85978 0.96823 0.35351 0.0
C1235 C 0.83538 0.9704 0.34408 0.0
C1236 C 0.83193 0.90854 0.34799 0.0
C1237 C 0.8093 0.94102 0.33703 0.0
C1238 C 0.80739 0.848 0.33966 0.0
C1239 C 0.85709 0.84547 0.35795 0.0
N1240 N 0.80837 0.91131 0.33901 0.0
N1241 N 0.85427 0.87337 0.3581 0.0
H1242 H 0.05185 0.85458 0.33485 0.0
H1243 H 0.15048 0.04442 0.36648 0.0
H1244 H 0.00484 0.90413 0.35875 0.0
H1245 H 0.1963 0.0003 0.33653 0.0
H1246 H 0.09899 0.99039 0.36744 0.0
H1247 H 0.1065 0.90563 0.33798 0.0
C1248 C 0.05321 0.87656 0.34055 0.0
C1249 C 0.02406 0.87581 0.34614 0.0
C1250 C 0.12041 0.99236 0.36084 0.0
C1251 C 0.08608 0.93365 0.35022 0.0
C1252 C 0.14992 0.02314 0.36039 0.0
C1253 C 0.17755 0.02689 0.35123 0.0
C1254 C 0.11844 0.96514 0.35201 0.0
C1255 C 0.17554 0.99847 0.34371 0.0
C1256 C 0.08425 0.90549 0.34244 0.0
C1257 C 0.02678 0.90434 0.35379 0.0
N1258 N 0.14623 0.9688 0.34406 0.0
N1259 N 0.05733 0.93222 0.35561 0.0
H1260 H 0.93288 0.85596 0.86746 0.0
H1261 H 0.80454 0.91 0.83459 0.0
H1262 H 0.85945 0.79932 0.82952 0.0
H1263 H 0.84887 0.93594 0.88355 0.0
H1264 H 0.827 0.87196 0.83102 0.0
H1265 H 0.90601 0.88947 0.87183 0.0
C1266 C 0.91121 0.85069 0.85997 0.0
C1267 C 0.89838 0.82485 0.84808 0.0
C1268 C 0.8315 0.88568 0.84262 0.0
C1269 C 0.86755 0.86307 0.85307 0.0
C1270 C 0.81875 0.90725 0.84462 0.0
C1271 C 0.82515 0.92592 0.85933 0.0
C1272 C 0.85119 0.88335 0.85534 0.0
C1273 C 0.84347 0.92172 0.87207 0.0
C1274 C 0.89575 0.86965 0.86258 0.0
C1275 C 0.87012 0.81902 0.83882 0.0
N1276 N 0.85628 0.90114 0.86971 0.0
N1277 N 0.85572 0.83814 0.84144 0.0
H1278 H 0.14018 0.08057 0.86344 0.0
H1279 H 0.09974 0.89497 0.84321 0.0
H1280 H 0.20436 0.06007 0.83232 0.0
H1281 H 0.06013 0.9195 0.88614 0.0
H1282 H 0.1362 0.95501 0.8375 0.0
H1283 H 0.10666 0.02082 0.86976 0.0
C1284 C 0.14698 0.06347 0.85776 0.0
C1285 C 0.17514 0.0753 0.84735 0.0
C1286 C 0.11997 0.94733 0.84833 0.0
C1287 C 0.1371 0.00705 0.85467 0.0
C1288 C 0.09951 0.91327 0.85162 0.0
C1289 C 0.0776 0.90284 0.86525 0.0
C1290 C 0.11782 0.9709 0.8586 0.0
C1291 C 0.07727 0.92698 0.87569 0.0
C1292 C 0.12805 0.02943 0.86152 0.0
C1293 C 0.18288 0.05201 0.84042 0.0
N1294 N 0.09687 0.96005 0.87205 0.0
N1295 N 0.16394 0.01894 0.8442 0.0
H1296 H 0.94225 0.14875 0.82826 0.0
H1297 H 0.08721 0.15277 0.88448 0.0
H1298 H 0.92529 0.07102 0.86358 0.0
H1299 H 0.10754 0.20296 0.83698 0.0
H1300 H 0.02693 0.12956 0.87972 0.0
H1301 H 0.00264 0.17504 0.83349 0.0
C1302 C 0.95123 0.13714 0.83704 0.0
C1303 C 0.92874 0.1076 0.84546 0.0
C1304 C 0.04459 0.14582 0.87038 0.0
C1305 C 0.99746 0.13785 0.85172 0.0
C1306 C 0.07881 0.15924 0.87318 0.0
C1307 C 0.10195 0.17953 0.86105 0.0
C1308 C 0.03362 0.15323 0.85544 0.0
C1309 C 0.09017 0.18716 0.84652 0.0
C1310 C 0.98562 0.15216 0.84002 0.0
C1311 C 0.94172 0.09366 0.85674 0.0
N1312 N 0.05672 0.17397 0.84408 0.0
N1313 N 0.9752 0.10905 0.85963 0.0
H1314 H 0.86084 0.9407 0.64265 0.0
H1315 H 0.91062 0.80896 0.67583 0.0
H1316 H 0.80138 0.86586 0.67947 0.0
H1317 H 0.93809 0.85302 0.62689 0.0
H1318 H 0.87429 0.83345 0.67929 0.0
H1319 H 0.89447 0.91366 0.63882 0.0
C1320 C 0.85502 0.91874 0.65003 0.0
C1321 C 0.82827 0.9055 0.6614 0.0
C1322 C 0.88799 0.8375 0.66772 0.0
C1323 C 0.86662 0.87451 0.65706 0.0
C1324 C 0.90856 0.82355 0.66578 0.0
C1325 C 0.927 0.82907 0.65106 0.0
C1326 C 0.8865 0.8576 0.65496 0.0
C1327 C 0.92389 0.84814 0.63833 0.0
C1328 C 0.87405 0.90319 0.64773 0.0
C1329 C 0.82175 0.87686 0.67055 0.0
N1330 N 0.90428 0.86211 0.64064 0.0
N1331 N 0.84092 0.8624 0.66824 0.0
H1332 H 0.2266 0.10575 0.65627 0.0
H1333 H 0.06208 0.92364 0.65311 0.0
H1334 H 0.12754 0.08776 0.64533 0.0
H1335 H 0.15842 0.93966 0.66916 0.0
H1336 H 0.0869 0.98366 0.6486 0.0
H1337 H 0.20364 0.04485 0.65909 0.0
C1338 C 0.20007 0.08884 0.65438 0.0
C1339 C 0.17871 0.10149 0.65088 0.0
C1340 C 0.1027 0.97414 0.65311 0.0
C1341 C 0.15233 0.03237 0.65402 0.0
C1342 C 0.08851 0.93979 0.6557 0.0
C1343 C 0.10818 0.92655 0.66156 0.0
C1344 C 0.13691 0.99562 0.65636 0.0
C1345 C 0.1423 0.9488 0.66469 0.0
C1346 C 0.18694 0.05424 0.65606 0.0
C1347 C 0.14457 0.07885 0.64844 0.0
N1348 N 0.15561 0.98228 0.66204 0.0
N1349 N 0.13242 0.04542 0.65011 0.0
H1350 H 0.92254 0.06895 0.62437 0.0
H1351 H 0.06543 0.20653 0.68282 0.0
H1352 H 0.90062 0.10316 0.67011 0.0
H1353 H 0.08292 0.14488 0.64829 0.0
H1354 H 0.00552 0.17382 0.67657 0.0
H1355 H 0.98275 0.10341 0.63045 0.0
C1356 C 0.93066 0.0844 0.63549 0.0
C1357 C 0.90712 0.08364 0.64676 0.0
C1358 C 0.02248 0.16732 0.67048 0.0
C1359 C 0.97514 0.12231 0.65396 0.0
C1360 C 0.05661 0.18586 0.67408 0.0
C1361 C 0.07914 0.17835 0.66608 0.0
C1362 C 0.01093 0.1415 0.6586 0.0
C1363 C 0.06639 0.15139 0.65482 0.0
C1364 C 0.96478 0.10361 0.63908 0.0
C1365 C 0.91838 0.10343 0.66118 0.0
N1366 N 0.03313 0.13413 0.65128 0.0
N1367 N 0.95169 0.12201 0.66441 0.0
H1368 H 0.85944 0.33908 0.5126 0.0
H1369 H 0.75544 0.41366 0.47092 0.0
H1370 H 0.79392 0.29519 0.47027 0.0
H1371 H 0.84047 0.47456 0.50245 0.0
H1372 H 0.77154 0.37092 0.4703 0.0
H1373 H 0.85714 0.3908 0.50844 0.0
C1374 C 0.84566 0.34083 0.50206 0.0
C1375 C 0.8266 0.31288 0.49183 0.0
C1376 C 0.78678 0.39359 0.4774 0.0
C1377 C 0.82307 0.37109 0.48731 0.0
C1378 C 0.77745 0.41796 0.47781 0.0
C1379 C 0.79595 0.44734 0.48716 0.0
C1380 C 0.81484 0.39832 0.4865 0.0
C1381 C 0.82452 0.45171 0.49571 0.0
C1382 C 0.84403 0.37014 0.4998 0.0
C1383 C 0.80871 0.31613 0.47852 0.0
N1384 N 0.83291 0.42724 0.49534 0.0
N1385 N 0.80696 0.34445 0.47681 0.0
H1386 H 0.54471 0.34739 0.48353 0.0
H1387 H 0.65243 0.53653 0.51348 0.0
H1388 H 0.50799 0.39126 0.51925 0.0
H1389 H 0.6771 0.49656 0.47051 0.0
H1390 H 0.59708 0.48591 0.51434 0.0
H1391 H 0.59279 0.403 0.47803 0.0
C1392 C 0.54718 0.36873 0.49041 0.0
C1393 C 0.52302 0.36482 0.50216 0.0
C1394 C 0.61432 0.4886 0.50447 0.0
C1395 C 0.57716 0.42857 0.49564 0.0
C1396 C 0.64573 0.51771 0.50384 0.0
C1397 C 0.66944 0.52046 0.49204 0.0
C1398 C 0.60693 0.46223 0.49329 0.0
C1399 C 0.65962 0.49517 0.47996 0.0
C1400 C 0.57424 0.40054 0.48709 0.0
C1401 C 0.5265 0.39341 0.51026 0.0
N1402 N 0.62937 0.46681 0.48109 0.0
N1403 N 0.55325 0.42409 0.50697 0.0
H1404 H 0.46561 0.1357 0.50434 0.0
H1405 H 0.66257 0.23577 0.48529 0.0
H1406 H 0.51752 0.23474 0.48265 0.0
H1407 H 0.61091 0.13845 0.50843 0.0
H1408 H 0.60899 0.23462 0.48248 0.0
H1409 H 0.51753 0.13371 0.50309 0.0
C1410 C 0.48772 0.15673 0.49899 0.0
C1411 C 0.48734 0.18559 0.49379 0.0
C1412 C 0.60936 0.21358 0.48827 0.0
C1413 C 0.54695 0.18381 0.49265 0.0
C1414 C 0.63994 0.21454 0.4901 0.0
C1415 C 0.64099 0.18764 0.49758 0.0
C1416 C 0.57972 0.18533 0.49383 0.0
C1417 C 0.61095 0.15988 0.50287 0.0
C1418 C 0.51746 0.15573 0.49843 0.0
C1419 C 0.51678 0.21215 0.487 0.0
N1420 N 0.58151 0.15947 0.50097 0.0
N1421 N 0.5455 0.21078 0.48681 0.0
H1422 H 0.75211 0.41717 0.67136 0.0
H1423 H 0.66878 0.52872 0.67569 0.0
H1424 H 0.80699 0.51183 0.69681 0.0
H1425 H 0.61528 0.42429 0.68995 0.0
H1426 H 0.72174 0.52796 0.67797 0.0
H1427 H 0.70251 0.42396 0.67093 0.0
C1428 C 0.75368 0.43961 0.67657 0.0
C1429 C 0.78325 0.46406 0.68406 0.0
C1430 C 0.69825 0.50548 0.68076 0.0
C1431 C 0.72741 0.47207 0.68362 0.0
C1432 C 0.66815 0.50589 0.67956 0.0
C1433 C 0.6375 0.47638 0.68239 0.0
C1434 C 0.69727 0.47522 0.6844 0.0
C1435 C 0.63816 0.44747 0.68735 0.0
C1436 C 0.72556 0.44337 0.67646 0.0
C1437 C 0.78434 0.4926 0.69092 0.0
N1438 N 0.66747 0.44744 0.68786 0.0
N1439 N 0.75672 0.49604 0.69047 0.0
H1440 H 0.51411 0.16795 0.70553 0.0
H1441 H 0.44812 0.27458 0.65654 0.0
H1442 H 0.44974 0.13005 0.66241 0.0
H1443 H 0.53039 0.31595 0.69133 0.0
H1444 H 0.43957 0.21839 0.66199 0.0
H1445 H 0.50895 0.2181 0.70491 0.0
C1446 C 0.4979 0.16971 0.69628 0.0
C1447 C 0.48255 0.14504 0.68391 0.0
C1448 C 0.45954 0.23976 0.6684 0.0
C1449 C 0.47749 0.20282 0.68276 0.0
C1450 C 0.46452 0.27172 0.66522 0.0
C1451 C 0.49056 0.29986 0.67317 0.0
C1452 C 0.48042 0.23593 0.67984 0.0
C1453 C 0.51081 0.29502 0.68454 0.0
C1454 C 0.49535 0.19854 0.69579 0.0
C1455 C 0.46188 0.14849 0.67219 0.0
N1456 N 0.50533 0.26364 0.68753 0.0
N1457 N 0.46048 0.17729 0.67168 0.0
H1458 H 0.84463 0.34821 0.70869 0.0
H1459 H 0.69728 0.18294 0.66709 0.0
H1460 H 0.85403 0.3198 0.65857 0.0
H1461 H 0.68464 0.24653 0.70245 0.0
H1462 H 0.75784 0.22193 0.66737 0.0
H1463 H 0.79035 0.29705 0.71116 0.0
C1464 C 0.83584 0.33041 0.69846 0.0
C1465 C 0.85362 0.3382 0.68339 0.0
C1466 C 0.7416 0.22715 0.67502 0.0
C1467 C 0.79108 0.28038 0.68587 0.0
C1468 C 0.70687 0.20529 0.67462 0.0
C1469 C 0.68539 0.21205 0.68427 0.0
C1470 C 0.75492 0.25522 0.68556 0.0
C1471 C 0.70001 0.24043 0.69464 0.0
C1472 C 0.80468 0.3015 0.69978 0.0
C1473 C 0.84107 0.3145 0.67043 0.0
N1474 N 0.7337 0.26086 0.69501 0.0
N1475 N 0.81003 0.28683 0.67181 0.0
H1476 H 0.52502 0.12513 0.15919 0.0
H1477 H 0.5186 0.26784 0.21191 0.0
H1478 H 0.60619 0.19428 0.19086 0.0
H1479 H 0.46275 0.23031 0.16625 0.0
H1480 H 0.5463 0.23515 0.20644 0.0
H1481 H 0.49807 0.15902 0.16289 0.0
C1482 C 0.53737 0.14764 0.16673 0.0
C1483 C 0.56785 0.15686 0.17477 0.0
C1484 C 0.52797 0.23402 0.19761 0.0
C1485 C 0.53684 0.19508 0.17933 0.0
C1486 C 0.512 0.25231 0.20083 0.0
C1487 C 0.48859 0.25159 0.18948 0.0
C1488 C 0.52001 0.21449 0.18305 0.0
C1489 C 0.48091 0.23149 0.17519 0.0
C1490 C 0.52195 0.16687 0.16886 0.0
C1491 C 0.58273 0.18624 0.18442 0.0
N1492 N 0.49653 0.21354 0.17237 0.0
N1493 N 0.56686 0.20406 0.1866 0.0
H1494 H 0.87331 0.39874 0.1603 0.0
H1495 H 0.72825 0.25287 0.21392 0.0
H1496 H 0.80458 0.41343 0.19089 0.0
H1497 H 0.76368 0.23171 0.16834 0.0
H1498 H 0.76323 0.31312 0.20832 0.0
H1499 H 0.83916 0.33808 0.16509 0.0
C1500 C 0.85092 0.38921 0.16788 0.0
C1501 C 0.84173 0.41116 0.17517 0.0
C1502 C 0.76346 0.29531 0.19956 0.0
C1503 C 0.80324 0.3422 0.18099 0.0
C1504 C 0.74382 0.26111 0.20285 0.0
C1505 C 0.74322 0.23768 0.19153 0.0
C1506 C 0.78302 0.30606 0.18498 0.0
C1507 C 0.76352 0.24928 0.17726 0.0
C1508 C 0.83153 0.35467 0.17061 0.0
C1509 C 0.81252 0.39747 0.18493 0.0
N1510 N 0.78274 0.28277 0.17438 0.0
N1511 N 0.79454 0.36393 0.1877 0.0
H1512 H 0.74419 0.45031 0.18782 0.0
H1513 H 0.58968 0.47492 0.16319 0.0
H1514 H 0.75511 0.54599 0.17495 0.0
H1515 H 0.57933 0.38067 0.17916 0.0
H1516 H 0.65048 0.50055 0.1651 0.0
H1517 H 0.68391 0.42378 0.18301 0.0
C1518 C 0.73376 0.46561 0.18381 0.0
C1519 C 0.75447 0.50018 0.18143 0.0
C1520 C 0.63492 0.47421 0.16807 0.0
C1521 C 0.68554 0.47027 0.17617 0.0
C1522 C 0.60018 0.45947 0.16688 0.0
C1523 C 0.57934 0.42561 0.17113 0.0
C1524 C 0.64894 0.45496 0.17353 0.0
C1525 C 0.59439 0.40689 0.17584 0.0
C1526 C 0.69938 0.45055 0.18114 0.0
C1527 C 0.73978 0.51921 0.17681 0.0
N1528 N 0.62826 0.42187 0.17702 0.0
N1529 N 0.70614 0.50398 0.17424 0.0
H1530 H 0.62946 0.21201 0.98407 0.0
H1531 H 0.44933 0.18367 0.00983 0.0
H1532 H 0.54499 0.11493 0.99514 0.0
H1533 H 0.53269 0.27946 0.9952 0.0
H1534 H 0.48467 0.15851 0.00631 0.0
H1535 H 0.59479 0.23747 0.98921 0.0
C1536 C 0.60354 0.19616 0.98768 0.0
C1537 C 0.59003 0.16152 0.98949 0.0
C1538 C 0.49527 0.18507 0.00396 0.0
C1539 C 0.55007 0.1902 0.99524 0.0
C1540 C 0.47518 0.19952 0.00608 0.0
C1541 C 0.48803 0.23374 0.00274 0.0
C1542 C 0.52847 0.20495 0.9985 0.0
C1543 C 0.52168 0.25298 0.99787 0.0
C1544 C 0.58373 0.2106 0.99056 0.0
C1545 C 0.55615 0.14178 0.9937 0.0
N1546 N 0.54067 0.23828 0.99582 0.0
N1547 N 0.53729 0.15643 0.99654 0.0
H1548 H 0.72571 0.24791 0.98385 0.0
H1549 H 0.87228 0.43182 0.00514 0.0
H1550 H 0.81046 0.2643 0.01384 0.0
H1551 H 0.81257 0.40779 0.96052 0.0
H1552 H 0.84712 0.37153 0.01113 0.0
H1553 H 0.75321 0.30794 0.97836 0.0
C1554 C 0.74991 0.26417 0.98949 0.0
C1555 C 0.76583 0.25105 0.99933 0.0
C1556 C 0.83982 0.37947 0.99994 0.0
C1557 C 0.79752 0.31981 0.99294 0.0
C1558 C 0.85417 0.41365 0.99654 0.0
C1559 C 0.84437 0.42433 0.98233 0.0
C1560 C 0.8151 0.35608 0.98919 0.0
C1561 C 0.82081 0.40024 0.97151 0.0
C1562 C 0.76573 0.2984 0.98619 0.0
C1563 C 0.79734 0.27338 0.00617 0.0
N1564 N 0.80662 0.36716 0.97526 0.0
N1565 N 0.81218 0.30677 0.00287 0.0
H1566 H 0.56654 0.42981 0.01187 0.0
H1567 H 0.74704 0.46523 0.98369 0.0
H1568 H 0.5848 0.39429 0.96553 0.0
H1569 H 0.73518 0.53438 0.01545 0.0
H1570 H 0.68628 0.43202 0.98076 0.0
H1571 H 0.62748 0.4629 0.01668 0.0
C1572 C 0.58355 0.42927 0.00271 0.0
C1573 C 0.57106 0.4096 0.98828 0.0
C1574 C 0.697 0.45438 0.98844 0.0
C1575 C 0.64 0.44635 0.99377 0.0
C1576 C 0.73167 0.47322 0.99024 0.0
C1577 C 0.74624 0.50277 0.99976 0.0
C1578 C 0.67667 0.46485 0.99637 0.0
C1579 C 0.72498 0.51185 0.00794 0.0
C1580 C 0.61809 0.448 0.00543 0.0
C1581 C 0.59373 0.40947 0.97671 0.0
N1582 N 0.69118 0.49295 0.00605 0.0
N1583 N 0.62715 0.42732 0.97977 0.0
H1584 H 0.42141 0.75373 0.83976 0.0
H1585 H 0.53087 0.66851 0.83186 0.0
H1586 H 0.51421 0.80827 0.81278 0.0
H1587 H 0.42624 0.6168 0.81806 0.0
H1588 H 0.53074 0.72197 0.83081 0.0
H1589 H 0.42808 0.704 0.83957 0.0
C1590 C 0.44348 0.75524 0.83412 0.0
C1591 C 0.46739 0.78474 0.82634 0.0
C1592 C 0.50806 0.69875 0.82786 0.0
C1593 C 0.47524 0.72873 0.82608 0.0
C1594 C 0.50812 0.66838 0.82835 0.0
C1595 C 0.47839 0.63805 0.82527 0.0
C1596 C 0.47794 0.69836 0.8247 0.0
C1597 C 0.4496 0.63938 0.82082 0.0
C1598 C 0.44716 0.72704 0.83388 0.0
C1599 C 0.49541 0.7857 0.81891 0.0
N1600 N 0.44992 0.66891 0.821 0.0
N1601 N 0.49876 0.75799 0.81901 0.0
H1602 H 0.18275 0.70363 0.84219 0.0
H1603 H 0.35132 0.84743 0.8012 0.0
H1604 H 0.24407 0.68878 0.80631 0.0
H1605 H 0.32223 0.85812 0.85094 0.0
H1606 H 0.29889 0.79443 0.79829 0.0
H1607 H 0.22321 0.76391 0.84197 0.0
C1608 C 0.20487 0.71267 0.83454 0.0
C1609 C 0.21059 0.69062 0.82475 0.0
C1610 C 0.30348 0.80878 0.80968 0.0
C1611 C 0.25549 0.75989 0.82355 0.0
C1612 C 0.33314 0.83925 0.81124 0.0
C1613 C 0.341 0.85699 0.82632 0.0
C1614 C 0.28172 0.79575 0.82339 0.0
C1615 C 0.31684 0.84518 0.83906 0.0
C1616 C 0.22759 0.74726 0.83418 0.0
C1617 C 0.23874 0.70458 0.81423 0.0
N1618 N 0.28844 0.81475 0.83747 0.0
N1619 N 0.26003 0.73814 0.81393 0.0
H1620 H 0.27598 0.44932 0.84958 0.0
H1621 H 0.17156 0.52363 0.80573 0.0
H1622 H 0.31806 0.53444 0.81652 0.0
H1623 H 0.13344 0.45508 0.84733 0.0
H1624 H 0.2211 0.51756 0.80512 0.0
H1625 H 0.22032 0.44293 0.84537 0.0
C1626 C 0.27339 0.46677 0.84153 0.0
C1627 C 0.30156 0.493 0.83374 0.0
C1628 C 0.20167 0.50337 0.8142 0.0
C1629 C 0.2383 0.48541 0.8285 0.0
C1630 C 0.17323 0.50655 0.81445 0.0
C1631 C 0.14864 0.49015 0.82674 0.0
C1632 C 0.20565 0.48381 0.8264 0.0
C1633 C 0.15189 0.46817 0.83767 0.0
C1634 C 0.24175 0.46304 0.83907 0.0
C1635 C 0.2971 0.51467 0.8232 0.0
N1636 N 0.1803 0.46609 0.83745 0.0
N1637 N 0.26603 0.51042 0.8209 0.0
H1638 H 0.42054 0.76545 0.03772 0.0
H1639 H 0.34782 0.86674 0.9937 0.0
H1640 H 0.48176 0.84335 0.00261 0.0
H1641 H 0.31675 0.82247 0.04252 0.0
H1642 H 0.39863 0.86233 0.99631 0.0
H1643 H 0.38217 0.78705 0.03886 0.0
C1644 C 0.42584 0.787 0.03013 0.0
C1645 C 0.45404 0.80185 0.01969 0.0
C1646 C 0.38124 0.85468 0.00668 0.0
C1647 C 0.40993 0.82703 0.02095 0.0
C1648 C 0.35251 0.85764 0.00529 0.0
C1649 C 0.3281 0.84477 0.01791 0.0
C1650 C 0.38504 0.83846 0.02067 0.0
C1651 C 0.33494 0.83251 0.0325 0.0
C1652 C 0.404 0.7995 0.03087 0.0
C1653 C 0.45967 0.82999 0.01024 0.0
N1654 N 0.36239 0.829 0.03333 0.0
N1655 N 0.43754 0.84143 0.01093 0.0
H1656 H 0.22472 0.64918 0.03977 0.0
H1657 H 0.12744 0.47611 0.9944 0.0
H1658 H 0.14866 0.63237 0.00348 0.0
H1659 H 0.17039 0.48873 0.04349 0.0
H1660 H 0.13044 0.53069 0.99732 0.0
H1661 H 0.20341 0.58922 0.04086 0.0
C1662 C 0.20363 0.63292 0.03192 0.0
C1663 C 0.1893 0.64627 0.02113 0.0
C1664 C 0.13805 0.52092 0.00769 0.0
C1665 C 0.16448 0.57695 0.02232 0.0
C1666 C 0.13586 0.48956 0.00612 0.0
C1667 C 0.14876 0.47809 0.01874 0.0
C1668 C 0.15357 0.5407 0.02186 0.0
C1669 C 0.16024 0.49681 0.03349 0.0
C1670 C 0.19129 0.59856 0.03263 0.0
C1671 C 0.16172 0.6237 0.01137 0.0
N1672 N 0.16305 0.52748 0.0345 0.0
N1673 N 0.15047 0.59013 0.01203 0.0
H1674 H 0.36178 0.50964 0.00403 0.0
H1675 H 0.50843 0.67832 0.04349 0.0
H1676 H 0.34891 0.57392 0.03881 0.0
H1677 H 0.5181 0.64469 0.99467 0.0
H1678 H 0.45458 0.62704 0.04695 0.0
H1679 H 0.42234 0.54851 0.0044 0.0
C1680 C 0.37136 0.53211 0.01146 0.0
C1681 C 0.34983 0.53919 0.02086 0.0
C1682 C 0.46887 0.63039 0.03565 0.0
C1683 C 0.41932 0.58228 0.02226 0.0
C1684 C 0.49978 0.65939 0.03379 0.0
C1685 C 0.51749 0.66567 0.01876 0.0
C1686 C 0.45539 0.60772 0.02231 0.0
C1687 C 0.50517 0.64056 0.00648 0.0
C1688 C 0.40608 0.55391 0.01192 0.0
C1689 C 0.36436 0.56765 0.03117 0.0
N1690 N 0.47433 0.61285 0.00835 0.0
N1691 N 0.39805 0.58809 0.03156 0.0
H1692 H 0.27536 0.53011 0.51837 0.0
H1693 H 0.11339 0.55135 0.51389 0.0
H1694 H 0.1792 0.45313 0.5 0.0
H1695 H 0.21017 0.62848 0.53093 0.0
H1696 H 0.13602 0.51353 0.51017 0.0
H1697 H 0.25151 0.56605 0.5236 0.0
C1698 C 0.24928 0.52085 0.51532 0.0
C1699 C 0.22924 0.48857 0.50873 0.0
C1700 C 0.1523 0.53868 0.51479 0.0
C1701 C 0.20167 0.52945 0.51487 0.0
C1702 C 0.1393 0.56003 0.51704 0.0
C1703 C 0.16021 0.59298 0.52246 0.0
C1704 C 0.18637 0.55051 0.51811 0.0
C1705 C 0.19359 0.60336 0.5264 0.0
C1706 C 0.23563 0.54133 0.51838 0.0
C1707 C 0.19559 0.47788 0.50505 0.0
N1708 N 0.20575 0.58226 0.52403 0.0
N1709 N 0.18283 0.49826 0.50822 0.0
H1710 H 0.47004 0.73967 0.52685 0.0
H1711 H 0.42634 0.55638 0.49987 0.0
H1712 H 0.53548 0.72308 0.49462 0.0
H1713 H 0.39274 0.57692 0.54618 0.0
H1714 H 0.46293 0.61698 0.49544 0.0
H1715 H 0.43626 0.67926 0.53132 0.0
C1716 C 0.4771 0.72331 0.52056 0.0
C1717 C 0.50565 0.73642 0.51035 0.0
C1718 C 0.44785 0.60821 0.50666 0.0
C1719 C 0.46716 0.66735 0.5155 0.0
C1720 C 0.4272 0.57384 0.50918 0.0
C1721 C 0.40693 0.56213 0.52342 0.0
C1722 C 0.44753 0.63079 0.51834 0.0
C1723 C 0.40841 0.58531 0.53516 0.0
C1724 C 0.45799 0.68888 0.52326 0.0
C1725 C 0.5137 0.71401 0.5026 0.0
N1726 N 0.4281 0.61868 0.53227 0.0
N1727 N 0.49446 0.68048 0.5053 0.0
H1728 H 0.4367 0.86308 0.49854 0.0
H1729 H 0.25096 0.73617 0.52753 0.0
H1730 H 0.41327 0.81694 0.54712 0.0
H1731 H 0.27177 0.81274 0.49079 0.0
H1732 H 0.31083 0.76192 0.53305 0.0
H1733 H 0.37672 0.84222 0.49377 0.0
C1734 C 0.41879 0.84872 0.5082 0.0
C1735 C 0.42952 0.84138 0.52317 0.0
C1736 C 0.30231 0.77317 0.52382 0.0
C1737 C 0.36146 0.81729 0.51784 0.0
C1738 C 0.26816 0.75836 0.52056 0.0
C1739 C 0.25638 0.77231 0.50864 0.0
C1740 C 0.32501 0.80186 0.51492 0.0
C1741 C 0.27983 0.80122 0.50009 0.0
C1742 C 0.38475 0.83695 0.50553 0.0
C1743 C 0.40572 0.82304 0.53545 0.0
N1744 N 0.31314 0.81495 0.5033 0.0
N1745 N 0.37268 0.8112 0.53244 0.0
H1746 H 0.12827 0.51708 0.34008 0.0
H1747 H 0.26999 0.51407 0.28359 0.0
H1748 H 0.18023 0.58795 0.30044 0.0
H1749 H 0.24116 0.46735 0.33193 0.0
H1750 H 0.22892 0.53297 0.28654 0.0
H1751 H 0.16209 0.49084 0.33444 0.0
C1752 C 0.14671 0.52705 0.33016 0.0
C1753 C 0.15166 0.5549 0.3208 0.0
C1754 C 0.23138 0.51833 0.29644 0.0
C1755 C 0.19009 0.52482 0.31421 0.0
C1756 C 0.25452 0.50741 0.29468 0.0
C1757 C 0.25891 0.4896 0.30763 0.0
C1758 C 0.21239 0.51092 0.31118 0.0
C1759 C 0.23856 0.48147 0.32182 0.0
C1760 C 0.16598 0.51207 0.32696 0.0
C1761 C 0.17581 0.5667 0.30806 0.0
N1762 N 0.21622 0.49235 0.32328 0.0
N1763 N 0.19415 0.55159 0.30513 0.0
H1764 H 0.47988 0.61152 0.34437 0.0
H1765 H 0.47997 0.75606 0.28926 0.0
H1766 H 0.40246 0.59363 0.30866 0.0
H1767 H 0.53365 0.77585 0.3357 0.0
H1768 H 0.45828 0.69578 0.29328 0.0
H1769 H 0.50581 0.67173 0.33902 0.0
C1770 C 0.46825 0.62027 0.33548 0.0
C1771 C 0.43892 0.59759 0.32698 0.0
C1772 C 0.47503 0.71333 0.30253 0.0
C1773 C 0.46873 0.66614 0.32061 0.0
C1774 C 0.48759 0.74754 0.30013 0.0
C1775 C 0.5083 0.77043 0.31223 0.0
C1776 C 0.48366 0.70225 0.31705 0.0
C1777 C 0.51747 0.7586 0.32621 0.0
C1778 C 0.48309 0.65457 0.33241 0.0
C1779 C 0.42495 0.61026 0.31556 0.0
N1780 N 0.50497 0.72519 0.3283 0.0
N1781 N 0.44011 0.64371 0.31263 0.0
H1782 H 0.24927 0.69601 0.30281 0.0
H1783 H 0.38638 0.87669 0.33715 0.0
H1784 H 0.2275 0.77531 0.31181 0.0
H1785 H 0.40729 0.79813 0.32392 0.0
H1786 H 0.32741 0.83935 0.3299 0.0
H1787 H 0.30707 0.73307 0.31153 0.0
C1788 C 0.25693 0.72148 0.30648 0.0
C1789 C 0.23376 0.73271 0.30665 0.0
C1790 C 0.3449 0.83027 0.3287 0.0
C1791 C 0.29972 0.77524 0.31696 0.0
C1792 C 0.3785 0.85145 0.33296 0.0
C1793 C 0.40183 0.84055 0.33107 0.0
C1794 C 0.33463 0.79798 0.32256 0.0
C1795 C 0.39026 0.80769 0.32549 0.0
C1796 C 0.2898 0.74255 0.31159 0.0
C1797 C 0.24464 0.76571 0.31173 0.0
N1798 N 0.35756 0.78768 0.32137 0.0
N1799 N 0.27692 0.78589 0.31673 0.0
H1800 H 0.19702 0.24326 0.20267 0.0
H1801 H 0.37827 0.40109 0.18594 0.0
H1802 H 0.21294 0.34064 0.18891 0.0
H1803 H 0.36038 0.30253 0.19892 0.0
H1804 H 0.31888 0.38166 0.19035 0.0
H1805 H 0.25736 0.26693 0.20525 0.0
C1806 C 0.21327 0.26981 0.20043 0.0
C1807 C 0.19998 0.28994 0.19538 0.0
C1808 C 0.32798 0.36435 0.19236 0.0
C1809 C 0.26937 0.31723 0.19806 0.0
C1810 C 0.36192 0.37539 0.18982 0.0
C1811 C 0.37434 0.35328 0.19188 0.0
C1812 C 0.30618 0.33092 0.19698 0.0
C1813 C 0.35195 0.32039 0.19705 0.0
C1814 C 0.24778 0.28332 0.20188 0.0
C1815 C 0.22216 0.32425 0.19285 0.0
N1816 N 0.31896 0.31017 0.1993 0.0
N1817 N 0.25586 0.33675 0.19397 0.0
H1818 H 0.68831 0.05742 0.19932 0.0
H1819 H 0.64773 0.86839 0.18567 0.0
H1820 H 0.59301 0.97863 0.18115 0.0
H1821 H 0.74181 0.9489 0.2039 0.0
H1822 H 0.62419 0.90591 0.18726 0.0
H1823 H 0.70585 0.01608 0.20383 0.0
C1824 C 0.67102 0.03142 0.1963 0.0
C1825 C 0.63926 0.02162 0.18969 0.0
C1826 C 0.64981 0.91513 0.19118 0.0
C1827 C 0.6592 0.97388 0.19484 0.0
C1828 C 0.6631 0.8936 0.19045 0.0
C1829 C 0.6968 0.90563 0.19457 0.0
C1830 C 0.67044 0.94877 0.19609 0.0
C1831 C 0.71577 0.93867 0.20047 0.0
C1832 C 0.68101 0.00773 0.19893 0.0
C1833 C 0.61785 0.98741 0.18615 0.0
N1834 N 0.70247 0.9591 0.20089 0.0
N1835 N 0.62828 0.96484 0.18866 0.0
H1836 H 0.03875 0.79876 0.19487 0.0
H1837 H 0.01662 0.61682 0.18047 0.0
H1838 H 0.12202 0.78329 0.18498 0.0
H1839 H 0.93456 0.63534 0.18793 0.0
H1840 H 0.05607 0.67664 0.18441 0.0
H1841 H 0.00132 0.73835 0.19536 0.0
C1842 C 0.04929 0.7826 0.19304 0.0
C1843 C 0.08364 0.7962 0.18979 0.0
C1844 C 0.02945 0.66761 0.18524 0.0
C1845 C 0.04047 0.7265 0.19005 0.0
C1846 C 0.00684 0.63342 0.18296 0.0
C1847 C 0.97208 0.62093 0.18375 0.0
C1848 C 0.01735 0.68963 0.18839 0.0
C1849 C 0.96104 0.64374 0.1871 0.0
C1850 C 0.02779 0.748 0.19324 0.0
C1851 C 0.09577 0.77392 0.18759 0.0
N1852 N 0.98355 0.67689 0.18925 0.0
N1853 N 0.07414 0.74014 0.18757 0.0
H1854 H 0.27395 0.21846 0.29851 0.0
H1855 H 0.408 0.39274 0.3394 0.0
H1856 H 0.35292 0.22845 0.33104 0.0
H1857 H 0.32167 0.37692 0.31099 0.0
H1858 H 0.39366 0.33496 0.33343 0.0
H1859 H 0.29843 0.27916 0.2986 0.0
C1860 C 0.29714 0.23366 0.30524 0.0
C1861 C 0.31144 0.21857 0.31482 0.0
C1862 C 0.37793 0.3442 0.32849 0.0
C1863 C 0.33886 0.28797 0.31559 0.0
C1864 C 0.38594 0.3771 0.33198 0.0
C1865 C 0.36578 0.38961 0.32584 0.0
C1866 C 0.34967 0.32371 0.31871 0.0
C1867 C 0.33773 0.3683 0.31615 0.0
C1868 C 0.31089 0.26828 0.30548 0.0
C1869 C 0.34133 0.23925 0.3234 0.0
N1870 N 0.33052 0.33644 0.31292 0.0
N1871 N 0.35375 0.27299 0.32387 0.0
H1872 H 0.6208 0.94815 0.3104 0.0
H1873 H 0.77059 0.13141 0.3315 0.0
H1874 H 0.60637 0.01993 0.3385 0.0
H1875 H 0.77896 0.06127 0.29907 0.0
H1876 H 0.70939 0.09476 0.3315 0.0
H1877 H 0.67802 0.99173 0.30435 0.0
C1878 C 0.62972 0.97307 0.31538 0.0
C1879 C 0.60884 0.98024 0.32515 0.0
C1880 C 0.72458 0.08784 0.32404 0.0
C1881 C 0.67458 0.03064 0.31814 0.0
C1882 C 0.75944 0.10901 0.32384 0.0
C1883 C 0.7797 0.0992 0.31531 0.0
C1884 C 0.71024 0.05678 0.3157 0.0
C1885 C 0.76413 0.06962 0.30586 0.0
C1886 C 0.66239 0.9981 0.3118 0.0
C1887 C 0.62171 0.01319 0.33105 0.0
N1888 N 0.73044 0.04924 0.30652 0.0
N1889 N 0.65385 0.03712 0.32756 0.0
H1890 H 0.95233 0.73583 0.30248 0.0
H1891 H 0.99185 0.60183 0.34455 0.0
H1892 H 0.87958 0.6524 0.33162 0.0
H1893 H 0.06406 0.68922 0.31732 0.0
H1894 H 0.94916 0.61722 0.33869 0.0
H1895 H 0.9911 0.71466 0.30515 0.0
C1896 C 0.94417 0.71242 0.30903 0.0
C1897 C 0.91266 0.69576 0.31678 0.0
C1898 C 0.97438 0.63306 0.33405 0.0
C1899 C 0.95753 0.67197 0.3205 0.0
C1900 C -0.00111 0.62448 0.33752 0.0
C1901 C 0.03177 0.64435 0.3315 0.0
C1902 C 0.98269 0.66168 0.32445 0.0
C1903 C 0.0392 0.67323 0.32233 0.0
C1904 C 0.96649 0.70056 0.31075 0.0
C1905 C 0.90348 0.66575 0.32528 0.0
N1906 N 0.01489 0.68092 0.31906 0.0
N1907 N 0.92605 0.65504 0.32714 0.0
H1908 H 0.63131 0.57771 0.87261 0.0
H1909 H 0.79738 0.65195 0.85687 0.0
H1910 H 0.62312 0.58555 0.81947 0.0
H1911 H 0.77335 0.61934 0.80575 0.0
H1912 H 0.73926 0.62001 0.86407 0.0
H1913 H 0.6862 0.58274 0.86865 0.0
C1914 C 0.64132 0.58047 0.8601 0.0
C1915 C 0.62335 0.58179 0.84636 0.0
C1916 C 0.74633 0.61819 0.85141 0.0
C1917 C 0.68663 0.58959 0.84166 0.0
C1918 C 0.78006 0.63645 0.84729 0.0
C1919 C 0.7905 0.63761 0.83073 0.0
C1920 C 0.72251 0.60148 0.8388 0.0
C1921 C 0.76624 0.61877 0.81868 0.0
C1922 C 0.67272 0.58366 0.8578 0.0
C1923 C 0.6366 0.58463 0.83033 0.0
N1924 N 0.73324 0.60194 0.82288 0.0
N1925 N 0.66781 0.58905 0.82842 0.0
H1926 H 0.38995 0.15729 0.8126 0.0
H1927 H 0.43105 0.06042 0.88242 0.0
H1928 H 0.35398 0.14133 0.86335 0.0
H1929 H 0.44084 0.05096 0.82946 0.0
H1930 H 0.42153 0.10735 0.87697 0.0
H1931 H 0.42674 0.13502 0.82009 0.0
C1932 C 0.39063 0.15013 0.82542 0.0
C1933 C 0.36926 0.15164 0.8374 0.0
C1934 C 0.42682 0.09562 0.86658 0.0
C1935 C 0.41072 0.126 0.84603 0.0
C1936 C 0.43229 0.06899 0.86971 0.0
C1937 C 0.43695 0.05198 0.85641 0.0
C1938 C 0.42553 0.1049 0.85001 0.0
C1939 C 0.43818 0.06379 0.84012 0.0
C1940 C 0.41153 0.13748 0.82969 0.0
C1941 C 0.37073 0.14178 0.85382 0.0
N1942 N 0.43196 0.08921 0.83735 0.0
N1943 N 0.39081 0.12905 0.85759 0.0
H1944 H 0.84596 0.23492 0.80781 0.0
H1945 H 0.94105 0.37137 0.87875 0.0
H1946 H 0.85629 0.21318 0.85912 0.0
H1947 H 0.95532 0.39157 0.82594 0.0
H1948 H 0.89397 0.31539 0.87257 0.0
H1949 H 0.87038 0.29431 0.81526 0.0
C1950 C 0.85229 0.24247 0.82072 0.0
C1951 C 0.8486 0.21893 0.83287 0.0
C1952 C 0.90684 0.33245 0.86235 0.0
C1953 C 0.87675 0.28649 0.84145 0.0
C1954 C 0.93358 0.36431 0.86589 0.0
C1955 C 0.9519 0.38613 0.85286 0.0
C1956 C 0.89872 0.32226 0.84565 0.0
C1957 C 0.94146 0.37589 0.83637 0.0
C1958 C 0.86624 0.27625 0.82496 0.0
C1959 C 0.8575 0.22997 0.84941 0.0
N1960 N 0.91583 0.34447 0.83322 0.0
N1961 N 0.87148 0.26297 0.85316 0.0
H1962 H 0.57787 0.61845 0.68697 0.0
H1963 H 0.65362 0.79823 0.64818 0.0
H1964 H 0.59875 0.64006 0.63458 0.0
H1965 H 0.62157 0.77675 0.69952 0.0
H1966 H 0.62283 0.73909 0.64195 0.0
H1967 H 0.58383 0.67375 0.69104 0.0
C1968 C 0.58278 0.63454 0.67625 0.0
C1969 C 0.58764 0.6248 0.66039 0.0
C1970 C 0.62166 0.74718 0.65451 0.0
C1971 C 0.5955 0.68832 0.66498 0.0
C1972 C 0.63886 0.7813 0.65804 0.0
C1973 C 0.6398 0.79269 0.6744 0.0
C1974 C 0.60621 0.7241 0.66754 0.0
C1975 C 0.62145 0.76893 0.68676 0.0
C1976 C 0.58639 0.66618 0.67858 0.0
C1977 C 0.59504 0.64691 0.647 0.0
N1978 N 0.60591 0.73567 0.68316 0.0
N1979 N 0.59906 0.67779 0.64962 0.0
H1980 H 0.39086 0.95153 0.68475 0.0
H1981 H 0.20763 0.84575 0.65167 0.0
H1982 H 0.36501 0.93874 0.6325 0.0
H1983 H 0.23421 0.84723 0.70341 0.0
H1984 H 0.26573 0.86861 0.6439 0.0
H1985 H 0.33624 0.90384 0.69128 0.0
C1986 C 0.37424 0.93783 0.67456 0.0
C1987 C 0.38264 0.94888 0.658 0.0
C1988 C 0.25889 0.86309 0.65693 0.0
C1989 C 0.31916 0.89517 0.66549 0.0
C1990 C 0.22537 0.84939 0.66138 0.0
C1991 C 0.21582 0.84405 0.67826 0.0
C1992 C 0.28329 0.87256 0.66945 0.0
C1993 C 0.2406 0.85104 0.69028 0.0
C1994 C 0.34274 0.91076 0.67832 0.0
C1995 C 0.35937 0.93097 0.64541 0.0
N1996 N 0.2733 0.86553 0.68569 0.0
N1997 N 0.32849 0.90532 0.64943 0.0
H1998 H 0.04826 0.43851 0.68261 0.0
H1999 H 0.14488 0.35578 0.64714 0.0
H2000 H 0.06043 0.43039 0.62975 0.0
H2001 H 0.15874 0.39204 0.69782 0.0
H2002 H 0.12254 0.39159 0.63977 0.0
H2003 H 0.09601 0.43116 0.68797 0.0
C2004 C 0.06185 0.43665 0.67206 0.0
C2005 C 0.05056 0.43541 0.65566 0.0
C2006 C 0.13138 0.39262 0.6524 0.0
C2007 C 0.10427 0.42507 0.66178 0.0
C2008 C 0.14472 0.37239 0.65659 0.0
C2009 C 0.15439 0.37134 0.6731 0.0
C2010 C 0.1264 0.41099 0.66493 0.0
C2011 C 0.15155 0.39217 0.68497 0.0
C2012 C 0.089 0.43203 0.67515 0.0
C2013 C 0.06836 0.43135 0.64256 0.0
N2014 N 0.13721 0.4107 0.68073 0.0
N2015 N 0.09398 0.4257 0.6459 0.0
H2016 H 0.87269 0.57408 0.52432 0.0
H2017 H 0.04692 0.73157 0.49559 0.0
H2018 H 0.88315 0.66977 0.51146 0.0
H2019 H 0.03497 0.63632 0.51085 0.0
H2020 H 0.98756 0.7103 0.5017 0.0
H2021 H 0.93291 0.59795 0.52092 0.0
C2022 C 0.88778 0.60034 0.52107 0.0
C2023 C 0.87281 0.61992 0.51814 0.0
C2024 C 0.99795 0.69406 0.50367 0.0
C2025 C 0.94198 0.64736 0.5138 0.0
C2026 C 0.03179 0.70608 0.50005 0.0
C2027 C 0.04601 0.68566 0.50262 0.0
C2028 C 0.97814 0.66137 0.5099 0.0
C2029 C 0.02518 0.65297 0.5086 0.0
C2030 C 0.92221 0.61393 0.51902 0.0
C2031 C 0.89366 0.65382 0.51395 0.0
N2032 N 0.99241 0.64191 0.51202 0.0
N2033 N 0.92716 0.66638 0.51171 0.0
H2034 H 0.37579 0.26324 0.54863 0.0
H2035 H 0.25402 0.31041 0.49981 0.0
H2036 H 0.30521 0.19877 0.51152 0.0
H2037 H 0.33951 0.37969 0.52913 0.0
H2038 H 0.26483 0.26532 0.50765 0.0
H2039 H 0.35253 0.30043 0.54668 0.0
C2040 C 0.3544 0.25623 0.54057 0.0
C2041 C 0.3424 0.22801 0.5302 0.0
C2042 C 0.28116 0.29039 0.51236 0.0
C2043 C 0.31668 0.27121 0.5273 0.0
C2044 C 0.2752 0.31621 0.50781 0.0
C2045 C 0.29617 0.34903 0.51366 0.0
C2046 C 0.30808 0.29732 0.52298 0.0
C2047 C 0.32295 0.35493 0.52414 0.0
C2048 C 0.34151 0.27776 0.53924 0.0
C2049 C 0.31494 0.22018 0.51982 0.0
N2050 N 0.32811 0.32935 0.52846 0.0
N2051 N 0.30342 0.24212 0.51835 0.0
H2052 H 0.60513 0.95622 0.5292 0.0
H2053 H 0.79169 0.10844 0.51606 0.0
H2054 H 0.68381 0.94299 0.50795 0.0
H2055 H 0.71258 0.11667 0.54029 0.0
H2056 H 0.75535 0.04714 0.51564 0.0
H2057 H 0.64604 0.01451 0.53514 0.0
C2058 C 0.63102 0.9656 0.52571 0.0
C2059 C 0.64091 0.94469 0.51789 0.0
C2060 C 0.74624 0.06236 0.52135 0.0
C2061 C 0.68826 0.01176 0.52479 0.0
C2062 C 0.76713 0.09729 0.52179 0.0
C2063 C 0.75502 0.11761 0.52814 0.0
C2064 C 0.71314 0.04789 0.52731 0.0
C2065 C 0.72282 0.10193 0.53516 0.0
C2066 C 0.6545 0.99892 0.52921 0.0
C2067 C 0.67498 0.95827 0.51386 0.0
N2068 N 0.70292 0.06815 0.53437 0.0
N2069 N 0.6974 0.991 0.51726 0.0
H2070 H 0.06795 0.71716 0.6761 0.0
H2071 H 0.9118 0.54068 0.64867 0.0
H2072 H 0.97317 0.70383 0.65914 0.0
H2073 H 0.00708 0.55215 0.6632 0.0
H2074 H 0.93545 0.60108 0.65101 0.0
H2075 H 0.04715 0.65747 0.67106 0.0
C2076 C 0.04266 0.70167 0.67148 0.0
C2077 C 0.02222 0.71561 0.66815 0.0
C2078 C 0.95141 0.59058 0.65351 0.0
C2079 C 0.99845 0.64726 0.6621 0.0
C2080 C 0.93796 0.55603 0.65206 0.0
C2081 C 0.95748 0.54128 0.65574 0.0
C2082 C 0.98465 0.61078 0.65888 0.0
C2083 C 0.9912 0.56247 0.66011 0.0
C2084 C 0.0309 0.66762 0.66848 0.0
C2085 C 0.98982 0.69428 0.66198 0.0
N2086 N 0.00363 0.59614 0.66176 0.0
N2087 N 0.979 0.66131 0.65917 0.0
H2088 H 0.28036 0.35728 0.67175 0.0
H2089 H 0.45218 0.40623 0.62542 0.0
H2090 H 0.2988 0.28836 0.64346 0.0
H2091 H 0.44418 0.46841 0.66323 0.0
H2092 H 0.39159 0.36911 0.62641 0.0
H2093 H 0.33649 0.40263 0.66455 0.0
C2094 C 0.29624 0.35162 0.66407 0.0
C2095 C 0.28497 0.3188 0.65837 0.0
C2096 C 0.40288 0.39131 0.6342 0.0
C2097 C 0.34897 0.37087 0.64978 0.0
C2098 C 0.43739 0.41284 0.63341 0.0
C2099 C 0.4531 0.44036 0.64427 0.0
C2100 C 0.38396 0.39719 0.64603 0.0
C2101 C 0.43292 0.4476 0.65455 0.0
C2102 C 0.3282 0.37761 0.65989 0.0
C2103 C 0.30655 0.31311 0.64832 0.0
N2104 N 0.39935 0.42568 0.65545 0.0
N2105 N 0.33748 0.33887 0.64435 0.0
H2106 H 0.65274 0.93626 0.66668 0.0
H2107 H 0.62681 0.09104 0.64442 0.0
H2108 H 0.73183 0.03256 0.64975 0.0
H2109 H 0.54578 0.9945 0.65957 0.0
H2110 H 0.66443 0.06822 0.64413 0.0
H2111 H 0.6125 0.95561 0.66274 0.0
C2112 C 0.6617 0.96151 0.66218 0.0
C2113 C 0.69585 0.98291 0.65867 0.0
C2114 C 0.63837 0.05182 0.64734 0.0
C2115 C 0.64974 0.0051 0.65398 0.0
C2116 C 0.61682 0.06485 0.64746 0.0
C2117 C 0.58317 0.04473 0.65215 0.0
C2118 C 0.62636 0.01839 0.65212 0.0
C2119 C 0.57152 0.01086 0.65581 0.0
C2120 C 0.63864 0.97247 0.65985 0.0
C2121 C 0.70585 0.01523 0.65273 0.0
N2122 N 0.5932 0.99884 0.65594 0.0
N2123 N 0.68296 0.02533 0.65063 0.0
H2124 H 0.27801 0.8986 0.16033 0.0
H2125 H 0.44016 0.93621 0.14805 0.0
H2126 H 0.29867 0.90646 0.21314 0.0
H2127 H 0.45357 0.98368 0.19606 0.0
H2128 H 0.38008 0.90157 0.15393 0.0
H2129 H 0.33287 0.90569 0.15481 0.0
C2130 C 0.29345 0.90014 0.17083 0.0
C2131 C 0.28355 0.90143 0.18726 0.0
C2132 C 0.39627 0.91926 0.16327 0.0
C2133 C 0.34719 0.9106 0.18103 0.0
C2134 C 0.43052 0.93873 0.15997 0.0
C2135 C 0.45191 0.96263 0.17162 0.0
C2136 C 0.38339 0.9243 0.17821 0.0
C2137 C 0.43834 0.96506 0.18689 0.0
C2138 C 0.32507 0.90438 0.16767 0.0
C2139 C 0.30545 0.9053 0.20031 0.0
N2140 N 0.40492 0.9464 0.18965 0.0
N2141 N 0.33651 0.9104 0.19691 0.0
H2142 H 0.06338 0.5041 0.1547 0.0
H2143 H 0.08023 0.38227 0.21943 0.0
H2144 H 0.01169 0.47322 0.20188 0.0
H2145 H 0.102 0.38688 0.16683 0.0
H2146 H 0.07316 0.43128 0.21628 0.0
H2147 H 0.09566 0.47703 0.16239 0.0
C2148 C 0.05966 0.49261 0.1669 0.0
C2149 C 0.03495 0.4911 0.17768 0.0
C2150 C 0.08045 0.42211 0.20554 0.0
C2151 C 0.07133 0.45988 0.18648 0.0
C2152 C 0.08452 0.39425 0.20734 0.0
C2153 C 0.0919 0.38062 0.19341 0.0
C2154 C 0.08356 0.43623 0.18965 0.0
C2155 C 0.0971 0.39691 0.17798 0.0
C2156 C 0.07796 0.47713 0.17125 0.0
C2157 C 0.03091 0.47578 0.19332 0.0
N2158 N 0.09238 0.42361 0.17647 0.0
N2159 N 0.04859 0.46036 0.19715 0.0
H2160 H 0.52012 0.53575 0.20055 0.0
H2161 H 0.61518 0.71412 0.16343 0.0
H2162 H 0.49395 0.55848 0.15253 0.0
H2163 H 0.61403 0.69564 0.21627 0.0
H2164 H 0.56546 0.65931 0.15998 0.0
H2165 H 0.54772 0.59445 0.2078 0.0
C2166 C 0.51871 0.55275 0.19177 0.0
C2167 C 0.50402 0.5419 0.17597 0.0
C2168 C 0.57543 0.66755 0.17242 0.0
C2169 C 0.53798 0.61007 0.18383 0.0
C2170 C 0.60372 0.69907 0.17442 0.0
C2171 C 0.61846 0.7096 0.19022 0.0
C2172 C 0.56243 0.64604 0.18623 0.0
C2173 C 0.60338 0.68829 0.20389 0.0
C2174 C 0.53508 0.58663 0.19585 0.0
C2175 C 0.50498 0.56587 0.16484 0.0
N2176 N 0.57645 0.65728 0.20155 0.0
N2177 N 0.5223 0.59895 0.16884 0.0
H2178 H 0.23008 0.94552 0.0144 0.0
H2179 H 0.31427 0.12376 0.97689 0.0
H2180 H 0.24397 0.96348 0.96139 0.0
H2181 H 0.27041 0.10249 0.02611 0.0
H2182 H 0.28098 0.065 0.96984 0.0
H2183 H 0.23637 0.00073 0.01822 0.0
C2184 C 0.23306 0.96049 0.00346 0.0
C2185 C 0.23616 0.94973 0.98751 0.0
C2186 C 0.27776 0.07318 0.98204 0.0
C2187 C 0.24515 0.01384 0.99189 0.0
C2188 C 0.29654 0.10709 0.98601 0.0
C2189 C 0.2948 0.11833 0.00208 0.0
C2190 C 0.25798 0.0501 0.99438 0.0
C2191 C 0.27249 0.0948 0.0136 0.0
C2192 C 0.23704 0.9923 0.00567 0.0
C2193 C 0.24156 0.97098 0.97389 0.0
N2194 N 0.25543 0.06167 0.00965 0.0
N2195 N 0.24648 0.00226 0.97642 0.0
H2196 H 0.03359 0.27806 0.96035 0.0
H2197 H 0.89407 0.16139 0.02613 0.0
H2198 H 0.05002 0.27855 0.01337 0.0
H2199 H 0.87399 0.1866 0.97727 0.0
H2200 H 0.95374 0.18869 0.01898 0.0
H2201 H 0.97769 0.229 0.96399 0.0
C2202 C 0.02577 0.26719 0.97267 0.0
C2203 C 0.04653 0.28224 0.98654 0.0
C2204 C 0.93603 0.18726 0.00966 0.0
C2205 C 0.98275 0.22661 0.99085 0.0
C2206 C 0.90207 0.17165 0.01371 0.0
C2207 C 0.87893 0.17144 0.00226 0.0
C2208 C 0.94689 0.20292 0.99406 0.0
C2209 C 0.89055 0.18527 0.98637 0.0
C2210 C 0.99395 0.23931 0.97475 0.0
C2211 C 0.03528 0.26738 0.00227 0.0
N2212 N 0.92377 0.20082 0.98283 0.0
N2213 N 0.00395 0.24063 0.00403 0.0
H2214 H 0.80831 0.67806 0.97766 0.0
H2215 H 0.71267 0.76056 0.01616 0.0
H2216 H 0.82707 0.71619 0.02808 0.0
H2217 H 0.72098 0.75145 0.96304 0.0
H2218 H 0.76027 0.75214 0.02046 0.0
H2219 H 0.78305 0.71179 0.97139 0.0
C2220 C 0.80856 0.69463 0.98726 0.0
C2221 C 0.82064 0.69477 0.00337 0.0
C2222 C 0.75237 0.75296 0.00782 0.0
C2223 C 0.78931 0.73203 0.99651 0.0
C2224 C 0.72535 0.75816 0.00534 0.0
C2225 C 0.71304 0.75698 0.98918 0.0
C2226 C 0.76658 0.74571 0.99406 0.0
C2227 C 0.7297 0.75238 0.97568 0.0
C2228 C 0.79352 0.71364 0.98371 0.0
C2229 C 0.81814 0.71544 0.01549 0.0
N2230 N 0.75526 0.74636 0.97843 0.0
N2231 N 0.80221 0.7328 0.01192 0.0
H2232 H 0.72025 0.07377 0.83999 0.0
H2233 H 0.54286 0.91284 0.86124 0.0
H2234 H 0.70658 0.97718 0.85388 0.0
H2235 H 0.55428 0.00981 0.85063 0.0
H2236 H 0.60349 0.93758 0.86036 0.0
H2237 H 0.66031 0.05214 0.84473 0.0
C2238 C 0.70467 0.04799 0.84395 0.0
C2239 C 0.71851 0.0272 0.84641 0.0
C2240 C 0.59291 0.95365 0.85841 0.0
C2241 C 0.64995 0.00243 0.85203 0.0
C2242 C 0.55821 0.93953 0.859 0.0
C2243 C 0.54344 0.95927 0.85597 0.0
C2244 C 0.61322 0.98778 0.85454 0.0
C2245 C 0.56463 0.99372 0.85313 0.0
C2246 C 0.67048 0.03574 0.84676 0.0
C2247 C 0.69711 0.99413 0.85172 0.0
N2248 N 0.59846 0.00683 0.85227 0.0
N2249 N 0.66402 0.98282 0.8543 0.0
H2250 H 0.93423 0.65336 0.83792 0.0
H2251 H 0.08645 0.62819 0.86618 0.0
H2252 H 0.02716 0.73165 0.85862 0.0
H2253 H 0.99321 0.54737 0.84734 0.0
H2254 H 0.06262 0.6649 0.86579 0.0
H2255 H 0.9535 0.61322 0.8426 0.0
C2256 C 0.95875 0.66217 0.84336 0.0
C2257 C 0.97923 0.69604 0.84775 0.0
C2258 C 0.04711 0.63905 0.86193 0.0
C2259 C 0.00121 0.6501 0.85334 0.0
C2260 C 0.06068 0.61802 0.86223 0.0
C2261 C 0.04182 0.58477 0.85669 0.0
C2262 C 0.0145 0.62695 0.85582 0.0
C2263 C 0.00852 0.57283 0.85179 0.0
C2264 C 0.96962 0.63917 0.84614 0.0
C2265 C 0.01059 0.70589 0.85492 0.0
N2266 N 0.99603 0.59408 0.85123 0.0
N2267 N 0.02059 0.68308 0.85745 0.0
H2268 H 0.28607 0.29539 0.86756 0.0
H2269 H 0.46763 0.44129 0.84256 0.0
H2270 H 0.35435 0.27713 0.83862 0.0
H2271 H 0.40585 0.45107 0.87996 0.0
H2272 H 0.43014 0.38023 0.84294 0.0
H2273 H 0.33157 0.35214 0.87323 0.0
C2274 C 0.31059 0.30338 0.86231 0.0
C2275 C 0.31627 0.28158 0.85244 0.0
C2276 C 0.42535 0.39566 0.85142 0.0
C2277 C 0.36875 0.34659 0.85902 0.0
C2278 C 0.44709 0.43044 0.8514 0.0
C2279 C 0.43968 0.45109 0.86122 0.0
C2280 C 0.39608 0.38184 0.86122 0.0
C2281 C 0.41231 0.43591 0.87217 0.0
C2282 C 0.33671 0.33571 0.8657 0.0
C2283 C 0.34876 0.2932 0.84618 0.0
N2284 N 0.39116 0.40231 0.87165 0.0
N2285 N 0.37371 0.325 0.84945 0.0
H2286 H 0.6729 0.87717 0.99266 0.0
H2287 H 0.63596 0.0292 0.98418 0.0
H2288 H 0.57699 0.86572 0.97951 0.0
H2289 H 0.73269 0.04336 0.99801 0.0
H2290 H 0.61558 0.96957 0.98023 0.0
H2291 H 0.69726 0.93837 0.9919 0.0
C2292 C 0.65714 0.88749 0.98926 0.0
C2293 C 0.62279 0.86628 0.98626 0.0
C2294 C 0.64132 0.98567 0.98408 0.0
C2295 C 0.65028 0.93611 0.98565 0.0
C2296 C 0.65296 0.0198 0.98639 0.0
C2297 C 0.68604 0.0414 0.99157 0.0
C2298 C 0.6628 0.97277 0.987 0.0
C2299 C 0.70692 0.02766 0.99412 0.0
C2300 C 0.67097 0.92241 0.98898 0.0
C2301 C 0.6035 0.88106 0.98209 0.0
N2302 N 0.69493 0.99423 0.99189 0.0
N2303 N 0.6174 0.91491 0.98204 0.0
H2304 H 0.96651 0.60146 0.97739 0.0
H2305 H 0.11599 0.79006 0.99143 0.0
H2306 H 0.95048 0.68177 0.99352 0.0
H2307 H 0.12978 0.70703 0.97812 0.0
H2308 H 0.0551 0.75305 0.9886 0.0
H2309 H 0.02613 0.64175 0.97431 0.0
C2310 C 0.97548 0.62759 0.98022 0.0
C2311 C 0.95343 0.63812 0.98588 0.0
C2312 C 0.07154 0.74309 0.9861 0.0
C2313 C 0.02193 0.68459 0.9824 0.0
C2314 C 0.10627 0.76428 0.98758 0.0
C2315 C 0.12792 0.75149 0.98518 0.0
C2316 C 0.05854 0.70902 0.98213 0.0
C2317 C 0.11398 0.71783 0.98033 0.0
C2318 C 0.00959 0.65065 0.97844 0.0
C2319 C 0.96657 0.67243 0.98924 0.0
N2320 N 0.08028 0.69777 0.9791 0.0
N2321 N -3e-05 0.69438 0.98756 0.0
H2322 H 0.28962 0.42064 0.97873 0.0
H2323 H 0.3113 0.26134 0.99499 0.0
H2324 H 0.20731 0.32356 0.99219 0.0
H2325 H 0.39242 0.35955 0.98186 0.0
H2326 H 0.27182 0.28173 0.99145 0.0
H2327 H 0.32609 0.39666 0.97673 0.0
C2328 C 0.27912 0.39412 0.98108 0.0
C2329 C 0.24547 0.37416 0.98582 0.0
C2330 C 0.29822 0.29875 0.98925 0.0
C2331 C 0.28732 0.34642 0.98375 0.0
C2332 C 0.32084 0.28717 0.9913 0.0
C2333 C 0.35536 0.30885 0.98887 0.0
C2334 C 0.31013 0.3323 0.98474 0.0
C2335 C 0.36613 0.34197 0.98398 0.0
C2336 C 0.3 0.38041 0.97996 0.0
C2337 C 0.2331 0.33983 0.98847 0.0
N2338 N 0.34365 0.35268 0.98217 0.0
N2339 N 0.25415 0.3271 0.98762 0.0
H2340 H 0.1208 0.30761 0.52453 0.0
H2341 H 0.93969 0.22806 0.49069 0.0
H2342 H 0.09587 0.27614 0.47326 0.0
H2343 H 0.96419 0.24116 0.5431 0.0
H2344 H 0.99403 0.23373 0.48465 0.0
H2345 H 0.06307 0.2718 0.53229 0.0
C2346 C 0.10356 0.29197 0.51496 0.0
C2347 C 0.11346 0.29445 0.49821 0.0
C2348 C 0.98725 0.23439 0.49753 0.0
C2349 C 0.04616 0.25505 0.50691 0.0
C2350 C 0.95604 0.23084 0.501 0.0
C2351 C 0.9475 0.23397 0.51745 0.0
C2352 C 0.01032 0.24201 0.51057 0.0
C2353 C 0.97012 0.23886 0.53026 0.0
C2354 C 0.07017 0.27179 0.5194 0.0
C2355 C 0.08916 0.2749 0.4863 0.0
N2356 N 0.00075 0.24325 0.52654 0.0
N2357 N 0.05644 0.25651 0.49082 0.0
H2358 H 0.68686 0.80715 0.52921 0.0
H2359 H 0.77228 0.71435 0.49206 0.0
H2360 H 0.72076 0.82143 0.47809 0.0
H2361 H 0.76604 0.72658 0.54507 0.0
H2362 H 0.76329 0.76126 0.48705 0.0
H2363 H 0.72438 0.78646 0.53595 0.0
C2364 C 0.70326 0.80742 0.51951 0.0
C2365 C 0.70102 0.81668 0.50307 0.0
C2366 C 0.76493 0.75446 0.49982 0.0
C2367 C 0.74272 0.79064 0.51053 0.0
C2368 C 0.77051 0.72781 0.5027 0.0
C2369 C 0.77013 0.71667 0.51905 0.0
C2370 C 0.75797 0.7694 0.51336 0.0
C2371 C 0.76629 0.73436 0.5323 0.0
C2372 C 0.72449 0.79504 0.52334 0.0
C2373 C 0.72175 0.8145 0.49091 0.0
N2374 N 0.7597 0.75944 0.52916 0.0
N2375 N 0.74128 0.80109 0.4948 0.0
H2376 H 0.17851 0.89733 0.46449 0.0
H2377 H 0.27855 0.02518 0.53771 0.0
H2378 H 0.1782 0.87017 0.51603 0.0
H2379 H 0.29016 0.0516 0.48556 0.0
H2380 H 0.2298 0.97081 0.53079 0.0
H2381 H 0.20681 0.9565 0.47281 0.0
C2382 C 0.18325 0.90376 0.47761 0.0
C2383 C 0.17566 0.87875 0.48957 0.0
C2384 C 0.24258 0.98873 0.52087 0.0
C2385 C 0.20855 0.946 0.49915 0.0
C2386 C 0.27036 0.01958 0.52484 0.0
C2387 C 0.28808 0.04268 0.51219 0.0
C2388 C 0.23295 0.98077 0.50408 0.0
C2389 C 0.27672 0.03458 0.49568 0.0
C2390 C 0.19952 0.93743 0.48235 0.0
C2391 C 0.18259 0.88828 0.5064 0.0
N2392 N 0.25007 0.00406 0.49205 0.0
N2393 N 0.19908 0.92115 0.51064 0.0
H2394 H 0.97423 0.46209 0.32325 0.0
H2395 H 0.9041 0.27967 0.358 0.0
H2396 H 0.96241 0.43889 0.37586 0.0
H2397 H 0.9159 0.30578 0.30581 0.0
H2398 H 0.91218 0.33495 0.36484 0.0
H2399 H 0.93883 0.40352 0.31688 0.0
C2400 C 0.96294 0.44499 0.33357 0.0
C2401 C 0.97094 0.45572 0.3502 0.0
C2402 C 0.91221 0.32836 0.35186 0.0
C2403 C 0.93213 0.38755 0.34283 0.0
C2404 C 0.90735 0.29674 0.34796 0.0
C2405 C 0.9092 0.28832 0.33131 0.0
C2406 C 0.91944 0.35177 0.33902 0.0
C2407 C 0.91451 0.3116 0.31879 0.0
C2408 C 0.9431 0.41114 0.32987 0.0
C2409 C 0.95681 0.4316 0.36289 0.0
N2410 N 0.91979 0.34242 0.3229 0.0
N2411 N 0.93861 0.39851 0.35895 0.0
H2412 H 0.72452 0.6241 0.35118 0.0
H2413 H 0.5428 0.52046 0.31736 0.0
H2414 H 0.70005 0.60763 0.29882 0.0
H2415 H 0.56698 0.52061 0.3694 0.0
H2416 H 0.60063 0.54152 0.31012 0.0
H2417 H 0.66939 0.57725 0.35795 0.0
C2418 C 0.70798 0.60977 0.34107 0.0
C2419 C 0.71683 0.61945 0.32439 0.0
C2420 C 0.59335 0.53609 0.32311 0.0
C2421 C 0.65313 0.56679 0.33206 0.0
C2422 C 0.55992 0.52336 0.32727 0.0
C2423 C 0.54973 0.51792 0.34404 0.0
C2424 C 0.61718 0.5449 0.33585 0.0
C2425 C 0.57389 0.5244 0.35633 0.0
C2426 C 0.67632 0.58318 0.34495 0.0
C2427 C 0.69393 0.60089 0.31182 0.0
N2428 N 0.60667 0.53818 0.35202 0.0
N2429 N 0.66291 0.5757 0.31592 0.0
H2430 H 0.37511 0.10189 0.35666 0.0
H2431 H 0.4938 0.05758 0.37115 0.0
H2432 H 0.39069 0.09417 0.3042 0.0
H2433 H 0.469 0.02049 0.32072 0.0
H2434 H 0.47103 0.0947 0.36565 0.0
H2435 H 0.42316 0.09564 0.36308 0.0
C2436 C 0.38964 0.10028 0.34647 0.0
C2437 C 0.3792 0.0986 0.32989 0.0
C2438 C 0.47103 0.07879 0.35571 0.0
C2439 C 0.4341 0.09102 0.33702 0.0
C2440 C 0.48432 0.05794 0.35883 0.0
C2441 C 0.48354 0.03623 0.34635 0.0
C2442 C 0.45624 0.07711 0.34011 0.0
C2443 C 0.47106 0.03741 0.33057 0.0
C2444 C 0.41724 0.09674 0.35011 0.0
C2445 C 0.39804 0.09532 0.31713 0.0
N2446 N 0.45758 0.05719 0.32798 0.0
N2447 N 0.42432 0.09111 0.32098 0.0
H2448 H 0.1463 0.3221 0.04041 0.0
H2449 H 0.15403 0.34353 0.13925 0.0
H2450 H 0.2097 0.41756 0.06392 0.0
H2451 H 0.12803 0.24923 0.11599 0.0
H2452 H 0.17067 0.37099 0.11192 0.0
H2453 H 0.13539 0.29487 0.0678 0.0
C2454 C 0.15792 0.33739 0.05133 0.0
C2455 C 0.1788 0.37228 0.04979 0.0
C2456 C 0.16153 0.34434 0.11279 0.0
C2457 C 0.1661 0.3411 0.08141 0.0
C2458 C 0.15183 0.32856 0.12841 0.0
C2459 C 0.1394 0.2939 0.13 0.0
C2460 C 0.15818 0.32533 0.09844 0.0
C2461 C 0.13755 0.27598 0.11543 0.0
C2462 C 0.15183 0.32175 0.06698 0.0
C2463 C 0.19352 0.39062 0.06445 0.0
N2464 N 0.14639 0.29177 0.10028 0.0
N2465 N 0.18657 0.37492 0.07963 0.0
H2466 H 0.60817 0.83719 0.05411 0.0
H2467 H 0.68589 0.7887 0.13028 0.0
H2468 H 0.64074 0.76461 0.0496 0.0
H2469 H 0.71245 0.89196 0.1236 0.0
H2470 H 0.65884 0.77542 0.10289 0.0
H2471 H 0.63634 0.85402 0.08158 0.0
C2472 C 0.62108 0.82472 0.05888 0.0
C2473 C 0.62204 0.79941 0.04947 0.0
C2474 C 0.67054 0.80099 0.1074 0.0
C2475 C 0.65371 0.81812 0.08096 0.0
C2476 C 0.68594 0.80864 0.12309 0.0
C2477 C 0.70169 0.84159 0.12931 0.0
C2478 C 0.66993 0.8262 0.09783 0.0
C2479 C 0.70085 0.86628 0.11929 0.0
C2480 C 0.63729 0.83448 0.0745 0.0
C2481 C 0.63935 0.78429 0.05631 0.0
N2482 N 0.68498 0.85805 0.10411 0.0
N2483 N 0.65406 0.79356 0.07163 0.0
H2484 H 0.20825 0.90182 0.12852 0.0
H2485 H 0.15611 0.76999 0.05457 0.0
H2486 H 0.104 0.82798 0.12195 0.0
H2487 H 0.23151 0.87394 0.04863 0.0
H2488 H 0.13989 0.78422 0.0815 0.0
H2489 H 0.22082 0.88546 0.10161 0.0
C2490 C 0.18793 0.88208 0.12143 0.0
C2491 C 0.15492 0.86644 0.12754 0.0
C2492 C 0.15993 0.80381 0.07423 0.0
C2493 C 0.16948 0.84696 0.09666 0.0
C2494 C 0.16935 0.79569 0.05893 0.0
C2495 C 0.19526 0.82078 0.04926 0.0
C2496 C 0.17721 0.83705 0.08013 0.0
C2497 C 0.21135 0.85373 0.05555 0.0
C2498 C 0.19517 0.87281 0.10602 0.0
C2499 C 0.12973 0.84095 0.11769 0.0
N2500 N 0.20237 0.86076 0.07057 0.0
N2501 N 0.13756 0.83175 0.10282 0.0
H2502 H 0.3757 0.24358 0.4601 0.0
H2503 H 0.30711 0.11738 0.38255 0.0
H2504 H 0.35584 0.14164 0.461 0.0
H2505 H 0.28214 0.1957 0.38657 0.0
H2506 H 0.33305 0.13234 0.40993 0.0
H2507 H 0.34909 0.23276 0.43214 0.0
C2508 C 0.36594 0.21908 0.45446 0.0
C2509 C 0.36809 0.19351 0.46302 0.0
C2510 C 0.32192 0.14636 0.40493 0.0
C2511 C 0.33797 0.18111 0.43107 0.0
C2512 C 0.3071 0.13789 0.38917 0.0
C2513 C 0.29222 0.1552 0.38209 0.0
C2514 C 0.32256 0.17281 0.41395 0.0
C2515 C 0.29308 0.18148 0.39152 0.0
C2516 C 0.35058 0.21287 0.43856 0.0
C2517 C 0.35477 0.16218 0.45506 0.0
N2518 N 0.30817 0.18965 0.40693 0.0
N2519 N 0.34065 0.15706 0.43965 0.0
H2520 H 0.8861 0.19332 0.38342 0.0
H2521 H 0.75568 0.14393 0.45821 0.0
H2522 H 0.80159 0.09286 0.38607 0.0
H2523 H 0.86095 0.21645 0.46243 0.0
H2524 H 0.7667 0.12734 0.43056 0.0
H2525 H 0.87192 0.20504 0.4109 0.0
C2526 C 0.86444 0.1736 0.38978 0.0
C2527 C 0.84511 0.14195 0.38232 0.0
C2528 C 0.78728 0.14676 0.43764 0.0
C2529 C 0.82835 0.15559 0.41413 0.0
C2530 C 0.781 0.15639 0.45336 0.0
C2531 C 0.8074 0.18168 0.46274 0.0
C2532 C 0.82004 0.1631 0.43111 0.0
C2533 C 0.83974 0.19678 0.4558 0.0
C2534 C 0.85641 0.18035 0.40556 0.0
C2535 C 0.81736 0.11752 0.39135 0.0
N2536 N 0.845 0.18752 0.44048 0.0
N2537 N 0.80961 0.12492 0.40674 0.0
H2538 H 0.80034 0.69619 0.38005 0.0
H2539 H 0.84008 0.60527 0.45324 0.0
H2540 H 0.90004 0.71092 0.38452 0.0
H2541 H 0.77383 0.64525 0.4594 0.0
H2542 H 0.85868 0.63508 0.42626 0.0
H2543 H 0.78616 0.66848 0.40719 0.0
C2544 C 0.81934 0.69361 0.38675 0.0
C2545 C 0.85154 0.70613 0.37996 0.0
C2546 C 0.84017 0.63731 0.4336 0.0
C2547 C 0.83503 0.67355 0.41116 0.0
C2548 C 0.82937 0.62015 0.44892 0.0
C2549 C 0.80527 0.62266 0.45864 0.0
C2550 C 0.82611 0.65637 0.42777 0.0
C2551 C 0.79246 0.64254 0.45243 0.0
C2552 C 0.81119 0.67781 0.4023 0.0
C2553 C 0.87503 0.70194 0.38932 0.0
N2554 N 0.80272 0.65822 0.4374 0.0
N2555 N 0.86622 0.68567 0.40439 0.0
H2556 H 0.84998 0.71356 0.88588 0.0
H2557 H 0.86847 0.57643 0.93558 0.0
H2558 H 0.94428 0.7206 0.89848 0.0
H2559 H 0.79716 0.60448 0.95284 0.0
H2560 H 0.88444 0.61718 0.91301 0.0
H2561 H 0.82123 0.6651 0.90464 0.0
C2562 C 0.86463 0.70555 0.89308 0.0
C2563 C 0.89941 0.72092 0.89088 0.0
C2564 C 0.86463 0.61363 0.92151 0.0
C2565 C 0.86691 0.66516 0.91109 0.0
C2566 C 0.85511 0.59007 0.93417 0.0
C2567 C 0.83237 0.58818 0.94628 0.0
C2568 C 0.85081 0.63465 0.92102 0.0
C2569 C 0.81553 0.60613 0.94388 0.0
C2570 C 0.84824 0.67775 0.90343 0.0
C2571 C 0.91748 0.70957 0.90009 0.0
N2572 N 0.8257 0.62948 0.93164 0.0
N2573 N 0.90086 0.68177 0.90961 0.0
H2574 H 0.26711 0.21517 0.90258 0.0
H2575 H 0.3979 0.19082 0.95333 0.0
H2576 H 0.28276 0.13298 0.88989 0.0
H2577 H 0.41143 0.28765 0.94029 0.0
H2578 H 0.35394 0.16496 0.93214 0.0
H2579 H 0.31405 0.23595 0.92201 0.0
C2580 C 0.27952 0.20072 0.90444 0.0
C2581 C 0.2717 0.17275 0.89455 0.0
C2582 C 0.36734 0.19197 0.93359 0.0
C2583 C 0.32565 0.19686 0.91599 0.0
C2584 C 0.39272 0.20675 0.94539 0.0
C2585 C 0.4075 0.24117 0.94865 0.0
C2586 C 0.35692 0.21198 0.92538 0.0
C2587 C 0.40023 0.26094 0.93819 0.0
C2588 C 0.3068 0.21306 0.91513 0.0
C2589 C 0.28856 0.15492 0.89729 0.0
N2590 N 0.37444 0.24585 0.92731 0.0
N2591 N 0.31536 0.16762 0.90765 0.0
H2592 H 0.86376 0.15122 0.88697 0.0
H2593 H 0.7055 0.11632 0.94036 0.0
H2594 H 0.78021 0.05278 0.89739 0.0
H2595 H 0.80354 0.19808 0.95312 0.0
H2596 H 0.73043 0.10152 0.91734 0.0
H2597 H 0.84134 0.17517 0.90705 0.0
C2598 C 0.84139 0.13463 0.89398 0.0
C2599 C 0.82362 0.10014 0.89067 0.0
C2600 C 0.74627 0.1232 0.92497 0.0
C2601 C 0.79732 0.12719 0.91254 0.0
C2602 C 0.73202 0.13204 0.93781 0.0
C2603 C 0.75283 0.15786 0.94869 0.0
C2604 C 0.78121 0.14067 0.92311 0.0
C2605 C 0.787 0.17758 0.94502 0.0
C2606 C 0.82838 0.14829 0.9051 0.0
C2607 C 0.79464 0.07948 0.89977 0.0
N2608 N 0.80046 0.16812 0.93263 0.0
N2609 N 0.78189 0.09348 0.91012 0.0
H2610 H 0.61026 0.79542 0.55545 0.0
H2611 H 0.73358 0.95488 0.6067 0.0
H2612 H 0.5901 0.8749 0.56758 0.0
H2613 H 0.72204 0.85894 0.62011 0.0
H2614 H 0.68794 0.92673 0.58659 0.0
H2615 H 0.65476 0.81716 0.57651 0.0
C2616 C 0.61433 0.81659 0.56307 0.0
C2617 C 0.59711 0.83384 0.55975 0.0
C2618 C 0.69587 0.91199 0.59377 0.0
C2619 C 0.64823 0.85933 0.58288 0.0
C2620 C 0.72233 0.92807 0.60488 0.0
C2621 C 0.73104 0.90896 0.61503 0.0
C2622 C 0.67872 0.87689 0.5928 0.0
C2623 C 0.7156 0.87427 0.61245 0.0
C2624 C 0.63991 0.8292 0.57482 0.0
C2625 C 0.60305 0.86109 0.56979 0.0
N2626 N 0.68967 0.85908 0.60164 0.0
N2627 N 0.62896 0.8737 0.58066 0.0
H2628 H 0.16932 0.81326 0.54246 0.0
H2629 H 0.08871 0.76296 0.63277 0.0
H2630 H 0.123 0.71223 0.56174 0.0
H2631 H 0.09803 0.8484 0.60599 0.0
H2632 H 0.11017 0.74775 0.60849 0.0
H2633 H 0.15353 0.83092 0.56797 0.0
C2634 C 0.15589 0.79484 0.55209 0.0
C2635 C 0.14642 0.76106 0.54987 0.0
C2636 C 0.10736 0.7697 0.60786 0.0
C2637 C 0.12902 0.78111 0.57891 0.0
C2638 C 0.0951 0.77827 0.6216 0.0
C2639 C 0.09167 0.80671 0.62105 0.0
C2640 C 0.11644 0.79 0.59362 0.0
C2641 C 0.10017 0.82607 0.60658 0.0
C2642 C 0.14698 0.80495 0.56658 0.0
C2643 C 0.13036 0.73844 0.56292 0.0
N2644 N 0.11247 0.8174 0.59329 0.0
N2645 N 0.12184 0.74886 0.57691 0.0
H2646 H 0.17934 0.37828 0.55052 0.0
H2647 H 0.21104 0.25874 0.6074 0.0
H2648 H 0.27793 0.39717 0.56407 0.0
H2649 H 0.13525 0.28236 0.62243 0.0
H2650 H 0.22612 0.29822 0.58427 0.0
H2651 H 0.15523 0.33546 0.57249 0.0
C2652 C 0.19589 0.37415 0.55853 0.0
C2653 C 0.23052 0.39092 0.55561 0.0
C2654 C 0.20572 0.29412 0.59248 0.0
C2655 C 0.20332 0.3416 0.57967 0.0
C2656 C 0.19672 0.27125 0.60543 0.0
C2657 C 0.17243 0.26808 0.61689 0.0
C2658 C 0.18986 0.31318 0.59101 0.0
C2659 C 0.15456 0.28481 0.61389 0.0
C2660 C 0.18215 0.34958 0.57079 0.0
C2661 C 0.25111 0.38478 0.56606 0.0
N2662 N 0.16401 0.30728 0.60126 0.0
N2663 N 0.23706 0.35988 0.57746 0.0
H2664 H 0.97718 0.43566 0.71497 0.0
H2665 H 0.05535 0.56789 0.78895 0.0
H2666 H 0.94725 0.50999 0.72102 0.0
H2667 H 0.02769 0.46412 0.79464 0.0
H2668 H 0.02588 0.55384 0.76175 0.0
H2669 H 0.00628 0.45254 0.7418 0.0
C2670 C 0.97678 0.45564 0.72192 0.0
C2671 C 0.95949 0.47125 0.71572 0.0
C2672 C 0.02636 0.53428 0.76903 0.0
C2673 C 0.99359 0.49124 0.74648 0.0
C2674 C 0.04333 0.54229 0.78446 0.0
C2675 C 0.04403 0.51716 0.79412 0.0
C2676 C 0.01088 0.50113 0.76303 0.0
C2677 C 0.02778 0.48433 0.78771 0.0
C2678 C 0.99337 0.4652 0.73727 0.0
C2679 C 0.95997 0.49705 0.72537 0.0
N2680 N 0.01227 0.4774 0.77258 0.0
N2681 N 0.97699 0.50646 0.74022 0.0
H2682 H 0.55253 0.52721 0.71342 0.0
H2683 H 0.42428 0.47025 0.7902 0.0
H2684 H 0.47107 0.42509 0.71623 0.0
H2685 H 0.52641 0.55185 0.79149 0.0
H2686 H 0.43522 0.45461 0.76223 0.0
H2687 H 0.53748 0.53813 0.74076 0.0
C2688 C 0.53131 0.50692 0.71975 0.0
C2689 C 0.51317 0.47506 0.71233 0.0
C2690 C 0.45513 0.47586 0.76873 0.0
C2691 C 0.49543 0.48777 0.74421 0.0
C2692 C 0.44886 0.48493 0.78465 0.0
C2693 C 0.47443 0.51248 0.79334 0.0
C2694 C 0.48698 0.49487 0.76133 0.0
C2695 C 0.50584 0.53037 0.78547 0.0
C2696 C 0.52277 0.51324 0.73551 0.0
C2697 C 0.48596 0.44997 0.72144 0.0
N2698 N 0.51104 0.52143 0.77005 0.0
N2699 N 0.47778 0.45689 0.73686 0.0
H2700 H 0.54716 0.08959 0.7296 0.0
H2701 H 0.46454 0.91589 0.78079 0.0
H2702 H 0.49006 0.99282 0.70624 0.0
H2703 H 0.49325 0.01115 0.8037 0.0
H2704 H 0.48173 0.94406 0.75352 0.0
H2705 H 0.53584 0.06172 0.757 0.0
C2706 C 0.53251 0.06249 0.7302 0.0
C2707 C 0.51911 0.04357 0.71558 0.0
C2708 C 0.48431 0.9588 0.76454 0.0
C2709 C 0.50619 0.01141 0.7469 0.0
C2710 C 0.47462 0.94274 0.78013 0.0
C2711 C 0.47693 0.96105 0.7946 0.0
C2712 C 0.49703 0.99361 0.76339 0.0
C2713 C 0.49026 0.99584 0.79291 0.0
C2714 C 0.52587 0.04659 0.74585 0.0
C2715 C 0.50023 0.00849 0.71717 0.0
N2716 N 0.4998 0.01093 0.77767 0.0
N2717 N 0.49437 0.9936 0.73246 0.0
H2718 H 0.61655 0.0812 0.23864 0.0
H2719 H 0.45968 0.95345 0.2903 0.0
H2720 H 0.51893 0.06074 0.22222 0.0
H2721 H 0.54079 0.93731 0.27599 0.0
H2722 H 0.48047 0.00033 0.27047 0.0
H2723 H 0.58986 0.03991 0.26086 0.0
C2724 C 0.58964 0.06919 0.24021 0.0
C2725 C 0.56965 0.07343 0.22846 0.0
C2726 C 0.49313 0.98594 0.27151 0.0
C2727 C 0.53941 0.02625 0.25325 0.0
C2728 C 0.48106 0.95901 0.28249 0.0
C2729 C 0.49879 0.94188 0.2847 0.0
C2730 C 0.5233 0.99577 0.26318 0.0
C2731 C 0.52645 0.94994 0.27455 0.0
C2732 C 0.57446 0.04525 0.25263 0.0
C2733 C 0.53491 0.05738 0.23098 0.0
N2734 N 0.53846 0.97703 0.26446 0.0
N2735 N 0.52057 0.03367 0.24299 0.0
H2736 H 0.02643 0.51034 0.29182 0.0
H2737 H 0.90608 0.54479 0.23495 0.0
H2738 H 0.04052 0.6081 0.28037 0.0
H2739 H 0.92547 0.46412 0.2246 0.0
H2740 H 0.93947 0.55748 0.26043 0.0
H2741 H 0.97678 0.48489 0.27375 0.0
C2742 C 0.01937 0.52637 0.28518 0.0
C2743 C 0.03765 0.56125 0.28716 0.0
C2744 C 0.93544 0.53634 0.25281 0.0
C2745 C 0.98061 0.53255 0.26759 0.0
C2746 C 0.91612 0.52883 0.23845 0.0
C2747 C 0.91416 0.50412 0.2276 0.0
C2748 C 0.95227 0.51869 0.25614 0.0
C2749 C 0.92736 0.48396 0.2326 0.0
C2750 C 0.99091 0.51188 0.27522 0.0
C2751 C 0.0274 0.58114 0.27875 0.0
N2752 N 0.94669 0.49219 0.24644 0.0
N2753 N -0.00075 0.56641 0.26935 0.0
H2754 H 0.53983 0.47288 0.22146 0.0
H2755 H 0.39323 0.45258 0.27477 0.0
H2756 H 0.46275 0.3762 0.23903 0.0
H2757 H 0.49147 0.53144 0.28954 0.0
H2758 H 0.41947 0.43022 0.25631 0.0
H2759 H 0.52662 0.49958 0.24435 0.0
C2760 C 0.52131 0.45724 0.23066 0.0
C2761 C 0.50155 0.42253 0.22824 0.0
C2762 C 0.43518 0.45265 0.26349 0.0
C2763 C 0.48579 0.45257 0.25356 0.0
C2764 C 0.42028 0.4659 0.27361 0.0
C2765 C 0.44038 0.49365 0.28363 0.0
C2766 C 0.47018 0.46775 0.26328 0.0
C2767 C 0.47534 0.50985 0.28192 0.0
C2768 C 0.51358 0.47247 0.24352 0.0
C2769 C 0.47806 0.40313 0.24039 0.0
N2770 N 0.48938 0.49647 0.27195 0.0
N2771 N 0.46981 0.41859 0.25228 0.0
H2772 H 0.92796 0.09005 0.28805 0.0
H2773 H 0.06221 0.24239 0.23312 0.0
H2774 H 0.93029 0.1841 0.28124 0.0
H2775 H 0.02959 0.14204 0.21572 0.0
H2776 H 0.02094 0.21957 0.25531 0.0
H2777 H 0.96953 0.10602 0.26517 0.0
C2778 C 0.93669 0.11371 0.28167 0.0
C2779 C 0.92534 0.13567 0.28675 0.0
C2780 C 0.02282 0.20236 0.24676 0.0
C2781 C 0.97363 0.15443 0.26093 0.0
C2782 C 0.04669 0.21539 0.23404 0.0
C2783 C 0.04956 0.19428 0.22226 0.0
C2784 C 0.00126 0.16763 0.24813 0.0
C2785 C 0.0285 0.1594 0.22446 0.0
C2786 C 0.96053 0.12284 0.26866 0.0
C2787 C 0.93803 0.16616 0.27801 0.0
N2788 N 0.00514 0.14713 0.23708 0.0
N2789 N 0.96149 0.17464 0.26583 0.0
H2790 H 0.90669 0.84893 0.28922 0.0
H2791 H 0.75309 0.82204 0.23328 0.0
H2792 H 0.8213 0.75235 0.27768 0.0
H2793 H 0.85168 0.8962 0.21642 0.0
H2794 H 0.77834 0.80492 0.2549 0.0
H2795 H 0.88876 0.87394 0.26689 0.0
C2796 C 0.88462 0.83286 0.2819 0.0
C2797 C 0.86561 0.79827 0.28551 0.0
C2798 C 0.79459 0.82518 0.24661 0.0
C2799 C 0.84442 0.82704 0.26034 0.0
C2800 C 0.78015 0.83526 0.23422 0.0
C2801 C 0.80008 0.86067 0.22274 0.0
C2802 C 0.82955 0.84063 0.24799 0.0
C2803 C 0.83517 0.87662 0.22494 0.0
C2804 C 0.87435 0.84723 0.2692 0.0
C2805 C 0.83697 0.77902 0.27559 0.0
N2806 N 0.84881 0.86631 0.23726 0.0
N2807 N 0.82717 0.79362 0.26381 0.0
H2808 H 0.25198 0.07185 0.28043 0.0
H2809 H 0.10495 0.96186 0.21647 0.0
H2810 H 0.1555 0.06329 0.28869 0.0
H2811 H 0.18206 0.94029 0.23149 0.0
H2812 H 0.12278 0.00367 0.23934 0.0
H2813 H 0.22801 0.03077 0.2582 0.0
C2814 C 0.22571 0.0617 0.2775 0.0
C2815 C 0.20589 0.07132 0.28673 0.0
C2816 C 0.13541 0.98939 0.23767 0.0
C2817 C 0.17784 0.0232 0.26074 0.0
C2818 C 0.12515 0.96537 0.22466 0.0
C2819 C 0.14191 0.94721 0.22188 0.0
C2820 C 0.16306 0.99582 0.24775 0.0
C2821 C 0.16821 0.9534 0.23291 0.0
C2822 C 0.21194 0.03787 0.26476 0.0
C2823 C 0.17192 0.05688 0.28199 0.0
N2824 N 0.17806 0.97719 0.24505 0.0
N2825 N 0.15894 0.03354 0.26934 0.0
H2826 H 0.03082 0.82829 0.80566 0.0
H2827 H 0.98391 0.81291 0.7092 0.0
H2828 H 0.93025 0.77426 0.78585 0.0
H2829 H 0.08369 0.84538 0.72756 0.0
H2830 H 0.96561 0.81286 0.73771 0.0
H2831 H 0.0519 0.8482 0.77744 0.0
C2832 C 0.01322 0.82094 0.7954 0.0
C2833 C 0.97893 0.7991 0.7979 0.0
C2834 C 0.9916 0.82035 0.73547 0.0
C2835 C 0.00257 0.82175 0.76596 0.0
C2836 C 0.00205 0.82043 0.71921 0.0
C2837 C 0.03516 0.82854 0.71612 0.0
C2838 C 0.01439 0.8282 0.74864 0.0
C2839 C 0.05772 0.83827 0.7295 0.0
C2840 C 0.0252 0.83228 0.77937 0.0
C2841 C 0.95701 0.79045 0.78432 0.0
N2842 N 0.04679 0.83743 0.74528 0.0
N2843 N 0.96927 0.80162 0.76887 0.0
H2844 H 0.21378 0.19103 0.70789 0.0
H2845 H 0.19208 0.21533 0.80467 0.0
H2846 H 0.18167 0.25848 0.72657 0.0
H2847 H 0.2501 0.17228 0.78581 0.0
H2848 H 0.18106 0.22501 0.77597 0.0
H2849 H 0.22059 0.17771 0.73656 0.0
C2850 C 0.2082 0.20304 0.71803 0.0
C2851 C 0.19736 0.22602 0.71493 0.0
C2852 C 0.19616 0.21342 0.77817 0.0
C2853 C 0.20488 0.2108 0.74757 0.0
C2854 C 0.20233 0.20779 0.79449 0.0
C2855 C 0.22213 0.19317 0.79753 0.0
C2856 C 0.20972 0.2041 0.76492 0.0
C2857 C 0.23491 0.18388 0.78396 0.0
C2858 C 0.21211 0.19546 0.73435 0.0
C2859 C 0.19032 0.24078 0.72847 0.0
N2860 N 0.22847 0.18953 0.76819 0.0
N2861 N 0.19419 0.23288 0.74427 0.0
H2862 H 0.80173 0.98189 0.80067 0.0
H2863 H 0.8239 0.03274 0.70438 0.0
H2864 H 0.83757 0.08283 0.78301 0.0
H2865 H 0.76308 0.93139 0.7225 0.0
H2866 H 0.83967 0.05185 0.73318 0.0
H2867 H 0.79813 0.96339 0.77178 0.0
C2868 C 0.80906 0.00015 0.79072 0.0
C2869 C 0.81949 0.03378 0.79412 0.0
C2870 C 0.82303 0.02542 0.73078 0.0
C2871 C 0.81549 0.01295 0.7613 0.0
C2872 C 0.81409 0.01455 0.71441 0.0
C2873 C 0.79186 0.98059 0.71118 0.0
C2874 C 0.80973 0.00206 0.74385 0.0
C2875 C 0.77987 0.95792 0.72454 0.0
C2876 C 0.80697 0.98961 0.77428 0.0
C2877 C 0.82887 0.05654 0.78084 0.0
N2878 N 0.78888 0.96912 0.74035 0.0
N2879 N 0.82646 0.04564 0.76494 0.0
H2880 H 0.59663 0.42295 0.61691 0.0
H2881 H 0.73535 0.57658 0.56347 0.0
H2882 H 0.60606 0.52077 0.61342 0.0
H2883 H 0.69972 0.47603 0.5455 0.0
H2884 H 0.69438 0.55426 0.58586 0.0
H2885 H 0.63818 0.43906 0.59399 0.0
C2886 C 0.60695 0.44752 0.61128 0.0
C2887 C 0.5975 0.47041 0.61729 0.0
C2888 C 0.69552 0.53688 0.57714 0.0
C2889 C 0.64582 0.4893 0.59139 0.0
C2890 C 0.71925 0.54965 0.56431 0.0
C2891 C 0.72126 0.52835 0.55234 0.0
C2892 C 0.67321 0.50224 0.57841 0.0
C2893 C 0.69935 0.49355 0.55439 0.0
C2894 C 0.63079 0.45674 0.59823 0.0
C2895 C 0.61223 0.50204 0.60946 0.0
N2896 N 0.67618 0.48157 0.56711 0.0
N2897 N 0.63558 0.51047 0.59723 0.0
H2898 H 0.48476 0.08718 0.61208 0.0
H2899 H 0.50207 0.24083 0.55776 0.0
H2900 H 0.55508 0.18808 0.62776 0.0
H2901 H 0.41216 0.14445 0.56237 0.0
H2902 H 0.5277 0.2243 0.58035 0.0
H2903 H 0.46535 0.10938 0.59002 0.0
C2904 C 0.49658 0.11414 0.61081 0.0
C2905 C 0.52168 0.13561 0.62204 0.0
C2906 C 0.50227 0.20703 0.57644 0.0
C2907 C 0.49886 0.16161 0.59635 0.0
C2908 C 0.48753 0.21649 0.56359 0.0
C2909 C 0.4547 0.19412 0.55799 0.0
C2910 C 0.48433 0.17474 0.58353 0.0
C2911 C 0.43742 0.16276 0.56604 0.0
C2912 C 0.48518 0.12686 0.59817 0.0
C2913 C 0.5358 0.17043 0.61944 0.0
N2914 N 0.45244 0.15407 0.57811 0.0
N2915 N 0.52415 0.18236 0.60692 0.0
H2916 H 0.91099 0.40284 0.61107 0.0
H2917 H 0.75743 0.27222 0.55545 0.0
H2918 H 0.81115 0.37157 0.62868 0.0
H2919 H 0.84941 0.27064 0.56262 0.0
H2920 H 0.77447 0.3138 0.57843 0.0
H2921 H 0.8874 0.36216 0.58858 0.0
C2922 C 0.88397 0.38779 0.61013 0.0
C2923 C 0.86321 0.39085 0.62205 0.0
C2924 C 0.7906 0.30396 0.57499 0.0
C2925 C 0.83568 0.3433 0.59583 0.0
C2926 C 0.78086 0.28013 0.5619 0.0
C2927 C 0.80187 0.26757 0.55693 0.0
C2928 C 0.8219 0.31592 0.58286 0.0
C2929 C 0.83214 0.27925 0.56578 0.0
C2930 C 0.87049 0.36426 0.59724 0.0
C2931 C 0.82826 0.37032 0.61985 0.0
N2932 N 0.84124 0.30276 0.578 0.0
N2933 N 0.81557 0.34735 0.60705 0.0
H2934 H 0.74587 0.14697 0.05845 0.0
H2935 H 0.59107 0.07083 0.12037 0.0
H2936 H 0.64443 0.11463 0.04282 0.0
H2937 H 0.69248 0.13696 0.13715 0.0
H2938 H 0.61087 0.08024 0.09165 0.0
H2939 H 0.72708 0.13743 0.0875 0.0
C2940 C 0.71967 0.13784 0.06115 0.0
C2941 C 0.69656 0.13145 0.04832 0.0
C2942 C 0.62874 0.09271 0.10163 0.0
C2943 C 0.67517 0.12048 0.08121 0.0
C2944 C 0.61754 0.08724 0.118 0.0
C2945 C 0.64026 0.10323 0.13107 0.0
C2946 C 0.66287 0.11403 0.09839 0.0
C2947 C 0.67422 0.12432 0.12735 0.0
C2948 C 0.70907 0.13256 0.07767 0.0
C2949 C 0.663 0.11985 0.05239 0.0
N2950 N 0.68461 0.12909 0.11125 0.0
N2951 N 0.65323 0.11456 0.06855 0.0
H2952 H 0.84338 0.49705 0.12647 0.0
H2953 H 0.90746 0.60788 0.04819 0.0
H2954 H 0.95026 0.56184 0.12143 0.0
H2955 H 0.84203 0.50136 0.04186 0.0
H2956 H 0.9191 0.59773 0.07691 0.0
H2957 H 0.83691 0.50421 0.09662 0.0
C2958 C 0.86538 0.51279 0.11902 0.0
C2959 C 0.89735 0.529 0.12617 0.0
C2960 C 0.9025 0.57672 0.06908 0.0
C2961 C 0.8901 0.53756 0.09263 0.0
C2962 C 0.89572 0.58243 0.0529 0.0
C2963 C 0.87385 0.55531 0.04291 0.0
C2964 C 0.88637 0.54388 0.07523 0.0
C2965 C 0.85921 0.52274 0.0493 0.0
C2966 C 0.86171 0.51662 0.10212 0.0
C2967 C 0.92527 0.54895 0.11617 0.0
N2968 N 0.86529 0.51788 0.06529 0.0
N2969 N 0.92097 0.55319 0.0998 0.0
H2970 H 0.43222 0.3015 0.1367 0.0
H2971 H 0.4651 0.35667 0.04192 0.0
H2972 H 0.46389 0.40258 0.12057 0.0
H2973 H 0.39838 0.25427 0.05714 0.0
H2974 H 0.46919 0.37425 0.07103 0.0
H2975 H 0.42305 0.2835 0.10755 0.0
C2976 C 0.43699 0.31981 0.12703 0.0
C2977 C 0.44896 0.35355 0.13095 0.0
C2978 C 0.45352 0.34799 0.06792 0.0
C2979 C 0.43891 0.33333 0.09785 0.0
C2980 C 0.45135 0.33795 0.05139 0.0
C2981 C 0.43143 0.30403 0.04723 0.0
C2982 C 0.43599 0.32382 0.08025 0.0
C2983 C 0.41398 0.28071 0.05988 0.0
C2984 C 0.43169 0.30954 0.11046 0.0
C2985 C 0.45467 0.37631 0.11803 0.0
N2986 N 0.41684 0.29104 0.07591 0.0
N2987 N 0.44988 0.36581 0.10197 0.0
H2988 H 0.40134 0.91269 0.89776 0.0
H2989 H 0.28978 0.76584 0.96059 0.0
H2990 H 0.38082 0.81357 0.88404 0.0
H2991 H 0.26969 0.84444 0.94638 0.0
H2992 H 0.32969 0.78225 0.93689 0.0
H2993 H 0.3623 0.88881 0.92084 0.0
C2994 C 0.38902 0.88584 0.89966 0.0
C2995 C 0.39452 0.86526 0.88864 0.0
C2996 C 0.31611 0.79547 0.93895 0.0
C2997 C 0.34902 0.83745 0.91561 0.0
C2998 C 0.29322 0.78607 0.95244 0.0
C2999 C 0.27615 0.80374 0.95569 0.0
C3000 C 0.32247 0.82318 0.92891 0.0
C3001 C 0.2821 0.82998 0.94465 0.0
C3002 C 0.36644 0.87219 0.9129 0.0
C3003 C 0.37751 0.83054 0.89212 0.0
N3004 N 0.30486 0.83905 0.93209 0.0
N3005 N 0.35546 0.81767 0.90527 0.0
H3006 H 0.15034 0.42158 0.94712 0.0
H3007 H 0.18779 0.56954 0.88448 0.0
H3008 H 0.23026 0.52033 0.96042 0.0
H3009 H 0.08874 0.49006 0.89755 0.0
H3010 H 0.21051 0.55265 0.90831 0.0
H3011 H 0.13536 0.44562 0.92407 0.0
C3012 C 0.16517 0.44839 0.94514 0.0
C3013 C 0.19161 0.46882 0.95602 0.0
C3014 C 0.18379 0.53933 0.90597 0.0
C3015 C 0.1741 0.49683 0.9291 0.0
C3016 C 0.17075 0.549 0.89242 0.0
C3017 C 0.13615 0.53124 0.88881 0.0
C3018 C 0.16217 0.51127 0.91573 0.0
C3019 C 0.11552 0.50461 0.89958 0.0
C3020 C 0.15635 0.46214 0.93193 0.0
C3021 C 0.20971 0.50348 0.95245 0.0
N3022 N 0.1288 0.49531 0.91223 0.0
N3023 N 0.20061 0.51645 0.93931 0.0
H3024 H 0.51824 0.59601 0.89498 0.0
H3025 H 0.4756 0.69903 0.96105 0.0
H3026 H 0.42683 0.59895 0.88853 0.0
H3027 H 0.57523 0.72384 0.94596 0.0
H3028 H 0.45274 0.6579 0.93784 0.0
H3029 H 0.53411 0.6359 0.91769 0.0
C3030 C 0.50113 0.6047 0.8984 0.0
C3031 C 0.47106 0.59386 0.88955 0.0
C3032 C 0.47959 0.67272 0.93958 0.0
C3033 C 0.48967 0.64065 0.91608 0.0
C3034 C 0.49271 0.69636 0.95278 0.0
C3035 C 0.52757 0.71519 0.95565 0.0
C3036 C 0.50143 0.66742 0.92936 0.0
C3037 C 0.54827 0.71011 0.9445 0.0
C3038 C 0.51045 0.62784 0.91143 0.0
C3039 C 0.45019 0.60636 0.89493 0.0
N3040 N 0.53497 0.68673 0.93216 0.0
N3041 N 0.45989 0.62911 0.90782 0.0
H3042 H 0.352 0.4817 0.46638 0.0
H3043 H 0.30783 0.46193 0.36925 0.0
H3044 H 0.25236 0.41767 0.44689 0.0
H3045 H 0.4083 0.51051 0.38931 0.0
H3046 H 0.28587 0.45374 0.39776 0.0
H3047 H 0.37194 0.5003 0.43811 0.0
C3048 C 0.33432 0.47164 0.45615 0.0
C3049 C 0.30059 0.44795 0.4589 0.0
C3050 C 0.31272 0.46642 0.39585 0.0
C3051 C 0.32315 0.46897 0.42662 0.0
C3052 C 0.3252 0.47116 0.37964 0.0
C3053 C 0.3598 0.48633 0.37705 0.0
C3054 C 0.33514 0.47713 0.40936 0.0
C3055 C 0.38137 0.49808 0.39083 0.0
C3056 C 0.34568 0.48226 0.44002 0.0
C3057 C 0.27869 0.4357 0.44523 0.0
N3058 N 0.36864 0.493 0.40644 0.0
N3059 N 0.29042 0.44628 0.4296 0.0
H3060 H 0.49743 0.91011 0.39165 0.0
H3061 H 0.58429 0.83705 0.45029 0.0
H3062 H 0.54282 0.85446 0.37249 0.0
H3063 H 0.51806 0.87125 0.46819 0.0
H3064 H 0.57127 0.84469 0.42163 0.0
H3065 H 0.50655 0.89737 0.41989 0.0
C3066 C 0.50929 0.89512 0.39341 0.0
C3067 C 0.51962 0.88346 0.37978 0.0
C3068 C 0.55946 0.85028 0.43186 0.0
C3069 C 0.53012 0.86883 0.41204 0.0
C3070 C 0.56699 0.84613 0.44818 0.0
C3071 C 0.55227 0.85367 0.46157 0.0
C3072 C 0.53734 0.86231 0.42902 0.0
C3073 C 0.52989 0.86509 0.45821 0.0
C3074 C 0.51435 0.88774 0.40953 0.0
C3075 C 0.53456 0.86392 0.38273 0.0
N3076 N 0.52322 0.86924 0.44222 0.0
N3077 N 0.53963 0.85737 0.39863 0.0
H3078 H 0.17708 0.74669 0.44315 0.0
H3079 H 0.12936 0.59242 0.38524 0.0
H3080 H 0.14989 0.64814 0.46155 0.0
H3081 H 0.16788 0.69326 0.36709 0.0
H3082 H 0.14887 0.61452 0.41317 0.0
H3083 H 0.18493 0.73012 0.41545 0.0
C3084 C 0.17275 0.72153 0.44134 0.0
C3085 C 0.16179 0.69835 0.45448 0.0
C3086 C 0.15377 0.63194 0.40303 0.0
C3087 C 0.17092 0.67933 0.42291 0.0
C3088 C 0.14255 0.61932 0.38714 0.0
C3089 C 0.14644 0.64115 0.37406 0.0
C3090 C 0.16816 0.6665 0.40583 0.0
C3091 C 0.16424 0.6757 0.37692 0.0
C3092 C 0.17762 0.7122 0.42557 0.0
C3093 C 0.15756 0.66647 0.45162 0.0
N3094 N 0.17382 0.68736 0.39266 0.0
N3095 N 0.16161 0.65768 0.43602 0.0
loop_
_geom_bond_atom_site_label_1
_geom_bond_atom_site_label_2
_geom_bond_distance
_geom_bond_site_symmetry_2
_ccdc_geom_bond_type
Zn0 O1 2.055 . S
Zn0 O8 2.046 . S
Zn0 N16 2.036 . S
Zn0 O28 2.053 . S
Zn0 O30 2.066 . S
O1 Zn0 2.055 . S
O1 C4 1.259 . S
C2 O30 1.256 . S
C2 O31 1.244 . S
Zn3 O5 2.046 . S
Zn3 O7 2.055 . S
Zn3 N9 2.036 . S
Zn3 O27 2.066 . S
Zn3 O31 2.053 . S
C4 O1 1.259 . S
C4 O5 1.254 . S
O5 Zn3 2.046 . S
O5 C4 1.254 . S
C6 O27 1.256 . S
C6 O28 1.244 . S
O7 Zn3 2.055 . S
O7 C29 1.259 . S
O8 Zn0 2.046 . S
O8 C29 1.254 . S
N9 Zn3 2.036 . S
N9 C10 1.298 . S
N9 N12 1.398 . S
C10 N9 1.298 . S
C10 N13 1.367 . S
C10 C23 1.481 . S
C11 N12 1.299 . S
C11 N13 1.379 . S
N12 N9 1.398 . S
N12 C11 1.299 . S
N13 C10 1.367 . S
N13 C11 1.379 . S
C14 N16 1.298 . S
C14 N18 1.367 . S
C14 C22 1.481 . S
C15 N17 1.299 . S
C15 N18 1.379 . S
N16 Zn0 2.036 . S
N16 C14 1.298 . S
N16 N17 1.398 . S
N17 C15 1.299 . S
N17 N16 1.398 . S
N18 C14 1.367 . S
N18 C15 1.379 . S
H19 C22 0.980 . S
H20 C22 0.981 . S
H21 C22 0.981 . S
C22 C14 1.481 . S
C22 H19 0.980 . S
C22 H20 0.981 . S
C22 H21 0.981 . S
C23 C10 1.481 . S
C23 H24 0.980 . S
C23 H25 0.981 . S
C23 H26 0.981 . S
H24 C23 0.980 . S
H25 C23 0.981 . S
H26 C23 0.981 . S
O27 Zn3 2.066 . S
O27 C6 1.256 . S
O28 Zn0 2.053 . S
O28 C6 1.244 . S
C29 O7 1.259 . S
C29 O8 1.254 . S
O30 Zn0 2.066 . S
O30 C2 1.256 . S
O31 C2 1.244 . S
O31 Zn3 2.053 . S
Zn32 O33 2.055 . S
Zn32 O40 2.046 . S
Zn32 N48 2.036 . S
Zn32 O60 2.053 . S
Zn32 O62 2.066 . S
O33 Zn32 2.055 . S
O33 C36 1.259 . S
C34 O62 1.256 . S
C34 O63 1.244 . S
Zn35 O37 2.046 . S
Zn35 O39 2.055 . S
Zn35 N41 2.036 . S
Zn35 O59 2.066 . S
Zn35 O63 2.053 . S
C36 O33 1.259 . S
C36 O37 1.254 . S
O37 Zn35 2.046 . S
O37 C36 1.254 . S
C38 O59 1.256 . S
C38 O60 1.244 . S
O39 Zn35 2.055 . S
O39 C61 1.259 . S
O40 Zn32 2.046 . S
O40 C61 1.254 . S
N41 Zn35 2.036 . S
N41 C42 1.298 . S
N41 N44 1.398 . S
C42 N41 1.298 . S
C42 N45 1.367 . S
C42 C55 1.481 . S
C43 N44 1.299 . S
C43 N45 1.379 . S
N44 N41 1.398 . S
N44 C43 1.299 . S
N45 C42 1.367 . S
N45 C43 1.379 . S
C46 N48 1.298 . S
C46 N50 1.367 1_565 S
C46 C54 1.481 . S
C47 N49 1.299 1_545 S
C47 N50 1.379 . S
N48 Zn32 2.036 . S
N48 C46 1.298 . S
N48 N49 1.398 . S
N49 C47 1.299 1_565 S
N49 N48 1.398 . S
N50 C46 1.367 1_545 S
N50 C47 1.379 . S
H51 C54 0.980 . S
H52 C54 0.981 . S
H53 C54 0.981 . S
C54 C46 1.481 . S
C54 H51 0.980 . S
C54 H52 0.981 . S
C54 H53 0.981 . S
C55 C42 1.481 . S
C55 H56 0.980 . S
C55 H57 0.981 . S
C55 H58 0.981 . S
H56 C55 0.980 . S
H57 C55 0.981 . S
H58 C55 0.981 . S
O59 Zn35 2.066 . S
O59 C38 1.256 . S
O60 Zn32 2.053 . S
O60 C38 1.244 . S
C61 O39 1.259 . S
C61 O40 1.254 . S
O62 Zn32 2.066 . S
O62 C34 1.256 . S
O63 C34 1.244 . S
O63 Zn35 2.053 . S
Zn64 O65 2.055 . S
Zn64 O72 2.046 . S
Zn64 N80 2.036 . S
Zn64 O92 2.053 . S
Zn64 O94 2.066 . S
O65 Zn64 2.055 . S
O65 C68 1.259 . S
C66 O94 1.256 . S
C66 O95 1.244 . S
Zn67 O69 2.046 . S
Zn67 O71 2.055 . S
Zn67 N73 2.036 . S
Zn67 O91 2.066 . S
Zn67 O95 2.053 . S
C68 O65 1.259 . S
C68 O69 1.254 . S
O69 Zn67 2.046 . S
O69 C68 1.254 . S
C70 O91 1.256 . S
C70 O92 1.244 . S
O71 Zn67 2.055 . S
O71 C93 1.259 . S
O72 Zn64 2.046 . S
O72 C93 1.254 . S
N73 Zn67 2.036 . S
N73 C74 1.298 . S
N73 N76 1.398 . S
C74 N73 1.298 . S
C74 N77 1.367 . S
C74 C87 1.481 . S
C75 N76 1.299 . S
C75 N77 1.379 . S
N76 N73 1.398 . S
N76 C75 1.299 . S
N77 C74 1.367 . S
N77 C75 1.379 . S
C78 N80 1.298 . S
C78 N82 1.367 1_455 S
C78 C86 1.481 . S
C79 N81 1.299 1_655 S
C79 N82 1.379 . S
N80 Zn64 2.036 . S
N80 C78 1.298 . S
N80 N81 1.398 . S
N81 C79 1.299 1_455 S
N81 N80 1.398 . S
N82 C78 1.367 1_655 S
N82 C79 1.379 . S
H83 C86 0.980 . S
H84 C86 0.981 . S
H85 C86 0.981 . S
C86 C78 1.481 . S
C86 H83 0.980 . S
C86 H84 0.981 . S
C86 H85 0.981 . S
C87 C74 1.481 . S
C87 H88 0.980 . S
C87 H89 0.981 . S
C87 H90 0.981 . S
H88 C87 0.980 . S
H89 C87 0.981 . S
H90 C87 0.981 . S
O91 Zn67 2.066 . S
O91 C70 1.256 . S
O92 Zn64 2.053 . S
O92 C70 1.244 . S
C93 O71 1.259 . S
C93 O72 1.254 . S
O94 Zn64 2.066 . S
O94 C66 1.256 . S
O95 C66 1.244 . S
O95 Zn67 2.053 . S
Zn96 O97 2.055 . S
Zn96 O104 2.046 . S
Zn96 N112 2.036 . S
Zn96 O124 2.053 . S
Zn96 O126 2.066 . S
O97 Zn96 2.055 . S
O97 C100 1.259 . S
C98 O126 1.256 . S
C98 O127 1.244 . S
Zn99 O101 2.046 . S
Zn99 O103 2.055 . S
Zn99 N105 2.036 . S
Zn99 O123 2.066 . S
Zn99 O127 2.053 . S
C100 O97 1.259 . S
C100 O101 1.254 . S
O101 Zn99 2.046 . S
O101 C100 1.254 . S
C102 O123 1.256 . S
C102 O124 1.244 . S
O103 Zn99 2.055 . S
O103 C125 1.259 . S
O104 Zn96 2.046 . S
O104 C125 1.254 . S
N105 Zn99 2.036 . S
N105 C106 1.298 . S
N105 N108 1.398 . S
C106 N105 1.298 . S
C106 N109 1.367 . S
C106 C119 1.481 . S
C107 N108 1.299 . S
C107 N109 1.379 . S
N108 N105 1.398 . S
N108 C107 1.299 . S
N109 C106 1.367 . S
N109 C107 1.379 . S
C110 N112 1.298 . S
C110 N114 1.367 . S
C110 C118 1.481 . S
C111 N113 1.299 . S
C111 N114 1.379 . S
N112 Zn96 2.036 . S
N112 C110 1.298 . S
N112 N113 1.398 . S
N113 C111 1.299 . S
N113 N112 1.398 . S
N114 C110 1.367 . S
N114 C111 1.379 . S
H115 C118 0.980 . S
H116 C118 0.981 . S
H117 C118 0.981 . S
C118 C110 1.481 . S
C118 H115 0.980 . S
C118 H116 0.981 . S
C118 H117 0.981 . S
C119 C106 1.481 . S
C119 H120 0.980 . S
C119 H121 0.981 . S
C119 H122 0.981 . S
H120 C119 0.980 . S
H121 C119 0.981 . S
H122 C119 0.981 . S
O123 Zn99 2.066 . S
O123 C102 1.256 . S
O124 Zn96 2.053 . S
O124 C102 1.244 . S
C125 O103 1.259 . S
C125 O104 1.254 . S
O126 Zn96 2.066 . S
O126 C98 1.256 . S
O127 C98 1.244 . S
O127 Zn99 2.053 . S
Zn128 O129 2.055 . S
Zn128 O136 2.046 . S
Zn128 N144 2.036 . S
Zn128 O156 2.053 . S
Zn128 O158 2.066 . S
O129 Zn128 2.055 . S
O129 C132 1.259 . S
C130 O158 1.256 . S
C130 O159 1.244 . S
Zn131 O133 2.046 . S
Zn131 O135 2.055 . S
Zn131 N137 2.036 . S
Zn131 O155 2.066 . S
Zn131 O159 2.053 . S
C132 O129 1.259 . S
C132 O133 1.254 . S
O133 Zn131 2.046 . S
O133 C132 1.254 . S
C134 O155 1.256 . S
C134 O156 1.244 . S
O135 Zn131 2.055 . S
O135 C157 1.259 . S
O136 Zn128 2.046 . S
O136 C157 1.254 . S
N137 Zn131 2.036 . S
N137 C138 1.298 . S
N137 N140 1.398 . S
C138 N137 1.298 . S
C138 N141 1.367 1_545 S
C138 C151 1.481 . S
C139 N140 1.299 1_565 S
C139 N141 1.379 . S
N140 N137 1.398 . S
N140 C139 1.299 1_545 S
N141 C138 1.367 1_565 S
N141 C139 1.379 . S
C142 N144 1.298 . S
C142 N146 1.367 . S
C142 C150 1.481 . S
C143 N145 1.299 . S
C143 N146 1.379 . S
N144 Zn128 2.036 . S
N144 C142 1.298 . S
N144 N145 1.398 . S
N145 C143 1.299 . S
N145 N144 1.398 . S
N146 C142 1.367 . S
N146 C143 1.379 . S
H147 C150 0.980 . S
H148 C150 0.981 . S
H149 C150 0.981 . S
C150 C142 1.481 . S
C150 H147 0.980 . S
C150 H148 0.981 . S
C150 H149 0.981 . S
C151 C138 1.481 . S
C151 H152 0.980 . S
C151 H153 0.981 . S
C151 H154 0.981 . S
H152 C151 0.980 . S
H153 C151 0.981 . S
H154 C151 0.981 . S
O155 Zn131 2.066 . S
O155 C134 1.256 . S
O156 Zn128 2.053 . S
O156 C134 1.244 . S
C157 O135 1.259 . S
C157 O136 1.254 . S
O158 Zn128 2.066 . S
O158 C130 1.256 . S
O159 C130 1.244 . S
O159 Zn131 2.053 . S
Zn160 O161 2.055 . S
Zn160 O168 2.046 . S
Zn160 N176 2.036 . S
Zn160 O188 2.053 . S
Zn160 O190 2.066 . S
O161 Zn160 2.055 . S
O161 C164 1.259 . S
C162 O190 1.256 . S
C162 O191 1.244 . S
Zn163 O165 2.046 . S
Zn163 O167 2.055 . S
Zn163 N169 2.036 . S
Zn163 O187 2.066 . S
Zn163 O191 2.053 . S
C164 O161 1.259 . S
C164 O165 1.254 . S
O165 Zn163 2.046 . S
O165 C164 1.254 . S
C166 O187 1.256 . S
C166 O188 1.244 . S
O167 Zn163 2.055 . S
O167 C189 1.259 . S
O168 Zn160 2.046 . S
O168 C189 1.254 . S
N169 Zn163 2.036 . S
N169 C170 1.298 . S
N169 N172 1.398 . S
C170 N169 1.298 . S
C170 N173 1.367 1_655 S
C170 C183 1.481 . S
C171 N172 1.299 1_455 S
C171 N173 1.379 . S
N172 N169 1.398 . S
N172 C171 1.299 1_655 S
N173 C170 1.367 1_455 S
N173 C171 1.379 . S
C174 N176 1.298 . S
C174 N178 1.367 . S
C174 C182 1.481 . S
C175 N177 1.299 . S
C175 N178 1.379 . S
N176 Zn160 2.036 . S
N176 C174 1.298 . S
N176 N177 1.398 . S
N177 C175 1.299 . S
N177 N176 1.398 . S
N178 C174 1.367 . S
N178 C175 1.379 . S
H179 C182 0.980 . S
H180 C182 0.981 . S
H181 C182 0.981 . S
C182 C174 1.481 . S
C182 H179 0.980 . S
C182 H180 0.981 . S
C182 H181 0.981 . S
C183 C170 1.481 . S
C183 H184 0.980 . S
C183 H185 0.981 . S
C183 H186 0.981 . S
H184 C183 0.980 . S
H185 C183 0.981 . S
H186 C183 0.981 . S
O187 Zn163 2.066 . S
O187 C166 1.256 . S
O188 Zn160 2.053 . S
O188 C166 1.244 . S
C189 O167 1.259 . S
C189 O168 1.254 . S
O190 Zn160 2.066 . S
O190 C162 1.256 . S
O191 C162 1.244 . S
O191 Zn163 2.053 . S
Zn192 O193 2.055 . S
Zn192 O200 2.046 . S
Zn192 N208 2.036 . S
Zn192 O220 2.053 . S
Zn192 O222 2.066 . S
O193 Zn192 2.055 . S
O193 C196 1.259 . S
C194 O222 1.256 . S
C194 O223 1.244 . S
Zn195 O197 2.046 . S
Zn195 O199 2.055 . S
Zn195 N201 2.036 1_655 S
Zn195 O219 2.066 . S
Zn195 O223 2.053 . S
C196 O193 1.259 . S
C196 O197 1.254 . S
O197 Zn195 2.046 . S
O197 C196 1.254 . S
C198 O219 1.256 . S
C198 O220 1.244 . S
O199 Zn195 2.055 . S
O199 C221 1.259 . S
O200 Zn192 2.046 . S
O200 C221 1.254 . S
N201 Zn195 2.036 1_455 S
N201 C202 1.298 . S
N201 N204 1.398 . S
C202 N201 1.298 . S
C202 N205 1.367 . S
C202 C215 1.481 . S
C203 N204 1.299 . S
C203 N205 1.379 . S
N204 N201 1.398 . S
N204 C203 1.299 . S
N205 C202 1.367 . S
N205 C203 1.379 . S
C206 N208 1.298 . S
C206 N210 1.367 . S
C206 C214 1.481 . S
C207 N209 1.299 . S
C207 N210 1.379 . S
N208 Zn192 2.036 . S
N208 C206 1.298 . S
N208 N209 1.398 . S
N209 C207 1.299 . S
N209 N208 1.398 . S
N210 C206 1.367 . S
N210 C207 1.379 . S
H211 C214 0.980 . S
H212 C214 0.981 . S
H213 C214 0.981 . S
C214 C206 1.481 . S
C214 H211 0.980 . S
C214 H212 0.981 . S
C214 H213 0.981 . S
C215 C202 1.481 . S
C215 H216 0.980 . S
C215 H217 0.981 . S
C215 H218 0.981 . S
H216 C215 0.980 . S
H217 C215 0.981 . S
H218 C215 0.981 . S
O219 Zn195 2.066 . S
O219 C198 1.256 . S
O220 Zn192 2.053 . S
O220 C198 1.244 . S
C221 O199 1.259 . S
C221 O200 1.254 . S
O222 Zn192 2.066 . S
O222 C194 1.256 . S
O223 C194 1.244 . S
O223 Zn195 2.053 . S
Zn224 O225 2.055 . S
Zn224 O232 2.046 . S
Zn224 N240 2.036 . S
Zn224 O252 2.053 . S
Zn224 O254 2.066 . S
O225 Zn224 2.055 . S
O225 C228 1.259 . S
C226 O254 1.256 . S
C226 O255 1.244 . S
Zn227 O229 2.046 . S
Zn227 O231 2.055 . S
Zn227 N233 2.036 . S
Zn227 O251 2.066 . S
Zn227 O255 2.053 . S
C228 O225 1.259 . S
C228 O229 1.254 . S
O229 Zn227 2.046 . S
O229 C228 1.254 . S
C230 O251 1.256 . S
C230 O252 1.244 . S
O231 Zn227 2.055 . S
O231 C253 1.259 . S
O232 Zn224 2.046 . S
O232 C253 1.254 . S
N233 Zn227 2.036 . S
N233 C234 1.298 . S
N233 N236 1.398 . S
C234 N233 1.298 . S
C234 N237 1.367 . S
C234 C247 1.481 . S
C235 N236 1.299 . S
C235 N237 1.379 . S
N236 N233 1.398 . S
N236 C235 1.299 . S
N237 C234 1.367 . S
N237 C235 1.379 . S
C238 N240 1.298 . S
C238 N242 1.367 . S
C238 C246 1.481 . S
C239 N241 1.299 . S
C239 N242 1.379 . S
N240 Zn224 2.036 . S
N240 C238 1.298 . S
N240 N241 1.398 . S
N241 C239 1.299 . S
N241 N240 1.398 . S
N242 C238 1.367 . S
N242 C239 1.379 . S
H243 C246 0.980 . S
H244 C246 0.981 . S
H245 C246 0.981 . S
C246 C238 1.481 . S
C246 H243 0.980 . S
C246 H244 0.981 . S
C246 H245 0.981 . S
C247 C234 1.481 . S
C247 H248 0.980 . S
C247 H249 0.981 . S
C247 H250 0.981 . S
H248 C247 0.980 . S
H249 C247 0.981 . S
H250 C247 0.981 . S
O251 Zn227 2.066 . S
O251 C230 1.256 . S
O252 Zn224 2.053 . S
O252 C230 1.244 . S
C253 O231 1.259 . S
C253 O232 1.254 . S
O254 Zn224 2.066 . S
O254 C226 1.256 . S
O255 C226 1.244 . S
O255 Zn227 2.053 . S
Zn256 O257 2.055 . S
Zn256 O264 2.046 . S
Zn256 N272 2.036 1_545 S
Zn256 O284 2.053 . S
Zn256 O286 2.066 . S
O257 Zn256 2.055 . S
O257 C260 1.259 . S
C258 O286 1.256 . S
C258 O287 1.244 . S
Zn259 O261 2.046 . S
Zn259 O263 2.055 . S
Zn259 N265 2.036 . S
Zn259 O283 2.066 . S
Zn259 O287 2.053 . S
C260 O257 1.259 . S
C260 O261 1.254 . S
O261 Zn259 2.046 . S
O261 C260 1.254 . S
C262 O283 1.256 . S
C262 O284 1.244 . S
O263 Zn259 2.055 . S
O263 C285 1.259 . S
O264 Zn256 2.046 . S
O264 C285 1.254 . S
N265 Zn259 2.036 . S
N265 C266 1.298 . S
N265 N268 1.398 . S
C266 N265 1.298 . S
C266 N269 1.367 . S
C266 C279 1.481 . S
C267 N268 1.299 . S
C267 N269 1.379 . S
N268 N265 1.398 . S
N268 C267 1.299 . S
N269 C266 1.367 . S
N269 C267 1.379 . S
C270 N272 1.298 . S
C270 N274 1.367 . S
C270 C278 1.481 . S
C271 N273 1.299 . S
C271 N274 1.379 . S
N272 Zn256 2.036 1_565 S
N272 C270 1.298 . S
N272 N273 1.398 . S
N273 C271 1.299 . S
N273 N272 1.398 . S
N274 C270 1.367 . S
N274 C271 1.379 . S
H275 C278 0.980 . S
H276 C278 0.981 . S
H277 C278 0.981 . S
C278 C270 1.481 . S
C278 H275 0.980 . S
C278 H276 0.981 . S
C278 H277 0.981 . S
C279 C266 1.481 . S
C279 H280 0.980 . S
C279 H281 0.981 . S
C279 H282 0.981 . S
H280 C279 0.980 . S
H281 C279 0.981 . S
H282 C279 0.981 . S
O283 Zn259 2.066 . S
O283 C262 1.256 . S
O284 Zn256 2.053 . S
O284 C262 1.244 . S
C285 O263 1.259 . S
C285 O264 1.254 . S
O286 Zn256 2.066 . S
O286 C258 1.256 . S
O287 C258 1.244 . S
O287 Zn259 2.053 . S
Zn288 O289 2.055 . S
Zn288 O296 2.046 . S
Zn288 N304 2.036 . S
Zn288 O316 2.053 . S
Zn288 O318 2.066 . S
O289 Zn288 2.055 . S
O289 C292 1.259 . S
C290 O318 1.256 . S
C290 O319 1.244 . S
Zn291 O293 2.046 . S
Zn291 O295 2.055 . S
Zn291 N297 2.036 1_565 S
Zn291 O315 2.066 . S
Zn291 O319 2.053 . S
C292 O289 1.259 . S
C292 O293 1.254 . S
O293 Zn291 2.046 . S
O293 C292 1.254 . S
C294 O315 1.256 . S
C294 O316 1.244 . S
O295 Zn291 2.055 . S
O295 C317 1.259 . S
O296 Zn288 2.046 . S
O296 C317 1.254 . S
N297 Zn291 2.036 1_545 S
N297 C298 1.298 . S
N297 N300 1.398 . S
C298 N297 1.298 . S
C298 N301 1.367 . S
C298 C311 1.481 . S
C299 N300 1.299 . S
C299 N301 1.379 . S
N300 N297 1.398 . S
N300 C299 1.299 . S
N301 C298 1.367 . S
N301 C299 1.379 . S
C302 N304 1.298 . S
C302 N306 1.367 . S
C302 C310 1.481 . S
C303 N305 1.299 . S
C303 N306 1.379 . S
N304 Zn288 2.036 . S
N304 C302 1.298 . S
N304 N305 1.398 . S
N305 C303 1.299 . S
N305 N304 1.398 . S
N306 C302 1.367 . S
N306 C303 1.379 . S
H307 C310 0.980 . S
H308 C310 0.981 . S
H309 C310 0.981 . S
C310 C302 1.481 . S
C310 H307 0.980 . S
C310 H308 0.981 . S
C310 H309 0.981 . S
C311 C298 1.481 . S
C311 H312 0.980 . S
C311 H313 0.981 . S
C311 H314 0.981 . S
H312 C311 0.980 . S
H313 C311 0.981 . S
H314 C311 0.981 . S
O315 Zn291 2.066 . S
O315 C294 1.256 . S
O316 Zn288 2.053 . S
O316 C294 1.244 . S
C317 O295 1.259 . S
C317 O296 1.254 . S
O318 Zn288 2.066 . S
O318 C290 1.256 . S
O319 C290 1.244 . S
O319 Zn291 2.053 . S
Zn320 O321 2.055 . S
Zn320 O328 2.046 . S
Zn320 N336 2.036 . S
Zn320 O348 2.053 . S
Zn320 O350 2.066 . S
O321 Zn320 2.055 . S
O321 C324 1.259 . S
C322 O350 1.256 . S
C322 O351 1.244 . S
Zn323 O325 2.046 . S
Zn323 O327 2.055 . S
Zn323 N329 2.036 1_455 S
Zn323 O347 2.066 . S
Zn323 O351 2.053 . S
C324 O321 1.259 . S
C324 O325 1.254 . S
O325 Zn323 2.046 . S
O325 C324 1.254 . S
C326 O347 1.256 . S
C326 O348 1.244 . S
O327 Zn323 2.055 . S
O327 C349 1.259 . S
O328 Zn320 2.046 . S
O328 C349 1.254 . S
N329 Zn323 2.036 1_655 S
N329 C330 1.298 . S
N329 N332 1.398 . S
C330 N329 1.298 . S
C330 N333 1.367 . S
C330 C343 1.481 . S
C331 N332 1.299 . S
C331 N333 1.379 . S
N332 N329 1.398 . S
N332 C331 1.299 . S
N333 C330 1.367 . S
N333 C331 1.379 . S
C334 N336 1.298 . S
C334 N338 1.367 . S
C334 C342 1.481 . S
C335 N337 1.299 . S
C335 N338 1.379 . S
N336 Zn320 2.036 . S
N336 C334 1.298 . S
N336 N337 1.398 . S
N337 C335 1.299 . S
N337 N336 1.398 . S
N338 C334 1.367 . S
N338 C335 1.379 . S
H339 C342 0.980 . S
H340 C342 0.981 . S
H341 C342 0.981 . S
C342 C334 1.481 . S
C342 H339 0.980 . S
C342 H340 0.981 . S
C342 H341 0.981 . S
C343 C330 1.481 . S
C343 H344 0.980 . S
C343 H345 0.981 . S
C343 H346 0.981 . S
H344 C343 0.980 . S
H345 C343 0.981 . S
H346 C343 0.981 . S
O347 Zn323 2.066 . S
O347 C326 1.256 . S
O348 Zn320 2.053 . S
O348 C326 1.244 . S
C349 O327 1.259 . S
C349 O328 1.254 . S
O350 Zn320 2.066 . S
O350 C322 1.256 . S
O351 C322 1.244 . S
O351 Zn323 2.053 . S
Zn352 O353 2.055 . S
Zn352 O360 2.046 . S
Zn352 N368 2.036 . S
Zn352 O380 2.053 . S
Zn352 O382 2.066 . S
O353 Zn352 2.055 . S
O353 C356 1.259 . S
C354 O382 1.256 . S
C354 O383 1.244 . S
Zn355 O357 2.046 . S
Zn355 O359 2.055 . S
Zn355 N361 2.036 . S
Zn355 O379 2.066 . S
Zn355 O383 2.053 . S
C356 O353 1.259 . S
C356 O357 1.254 . S
O357 Zn355 2.046 . S
O357 C356 1.254 . S
C358 O379 1.256 . S
C358 O380 1.244 . S
O359 Zn355 2.055 . S
O359 C381 1.259 . S
O360 Zn352 2.046 . S
O360 C381 1.254 . S
N361 Zn355 2.036 . S
N361 C362 1.298 . S
N361 N364 1.398 . S
C362 N361 1.298 . S
C362 N365 1.367 . S
C362 C375 1.481 . S
C363 N364 1.299 . S
C363 N365 1.379 . S
N364 N361 1.398 . S
N364 C363 1.299 . S
N365 C362 1.367 . S
N365 C363 1.379 . S
C366 N368 1.298 . S
C366 N370 1.367 . S
C366 C374 1.481 . S
C367 N369 1.299 . S
C367 N370 1.379 . S
N368 Zn352 2.036 . S
N368 C366 1.298 . S
N368 N369 1.398 . S
N369 C367 1.299 . S
N369 N368 1.398 . S
N370 C366 1.367 . S
N370 C367 1.379 . S
H371 C374 0.980 . S
H372 C374 0.981 . S
H373 C374 0.981 . S
C374 C366 1.481 . S
C374 H371 0.980 . S
C374 H372 0.981 . S
C374 H373 0.981 . S
C375 C362 1.481 . S
C375 H376 0.980 . S
C375 H377 0.981 . S
C375 H378 0.981 . S
H376 C375 0.980 . S
H377 C375 0.981 . S
H378 C375 0.981 . S
O379 Zn355 2.066 . S
O379 C358 1.256 . S
O380 Zn352 2.053 . S
O380 C358 1.244 . S
C381 O359 1.259 . S
C381 O360 1.254 . S
O382 Zn352 2.066 . S
O382 C354 1.256 . S
O383 C354 1.244 . S
O383 Zn355 2.053 . S
Zn384 O385 2.055 . S
Zn384 O392 2.046 . S
Zn384 N400 2.036 . S
Zn384 O412 2.053 . S
Zn384 O414 2.066 . S
O385 Zn384 2.055 . S
O385 C388 1.259 . S
C386 O414 1.256 . S
C386 O415 1.244 . S
Zn387 O389 2.046 . S
Zn387 O391 2.055 . S
Zn387 N393 2.036 . S
Zn387 O411 2.066 . S
Zn387 O415 2.053 . S
C388 O385 1.259 . S
C388 O389 1.254 . S
O389 Zn387 2.046 . S
O389 C388 1.254 . S
C390 O411 1.256 . S
C390 O412 1.244 . S
O391 Zn387 2.055 . S
O391 C413 1.259 . S
O392 Zn384 2.046 . S
O392 C413 1.254 . S
N393 Zn387 2.036 . S
N393 C394 1.298 . S
N393 N396 1.398 . S
C394 N393 1.298 . S
C394 N397 1.367 . S
C394 C407 1.481 . S
C395 N396 1.299 . S
C395 N397 1.379 . S
N396 N393 1.398 . S
N396 C395 1.299 . S
N397 C394 1.367 . S
N397 C395 1.379 . S
C398 N400 1.298 . S
C398 N402 1.367 . S
C398 C406 1.481 . S
C399 N401 1.299 . S
C399 N402 1.379 . S
N400 Zn384 2.036 . S
N400 C398 1.298 . S
N400 N401 1.398 . S
N401 C399 1.299 . S
N401 N400 1.398 . S
N402 C398 1.367 . S
N402 C399 1.379 . S
H403 C406 0.980 . S
H404 C406 0.981 . S
H405 C406 0.981 . S
C406 C398 1.481 . S
C406 H403 0.980 . S
C406 H404 0.981 . S
C406 H405 0.981 . S
C407 C394 1.481 . S
C407 H408 0.980 . S
C407 H409 0.981 . S
C407 H410 0.981 . S
H408 C407 0.980 . S
H409 C407 0.981 . S
H410 C407 0.981 . S
O411 Zn387 2.066 . S
O411 C390 1.256 . S
O412 Zn384 2.053 . S
O412 C390 1.244 . S
C413 O391 1.259 . S
C413 O392 1.254 . S
O414 Zn384 2.066 . S
O414 C386 1.256 . S
O415 C386 1.244 . S
O415 Zn387 2.053 . S
Zn416 O417 2.055 . S
Zn416 O424 2.046 . S
Zn416 N432 2.036 . S
Zn416 O444 2.053 . S
Zn416 O446 2.066 . S
O417 Zn416 2.055 . S
O417 C420 1.259 . S
C418 O446 1.256 . S
C418 O447 1.244 . S
Zn419 O421 2.046 . S
Zn419 O423 2.055 . S
Zn419 N425 2.036 . S
Zn419 O443 2.066 . S
Zn419 O447 2.053 . S
C420 O417 1.259 . S
C420 O421 1.254 . S
O421 Zn419 2.046 . S
O421 C420 1.254 . S
C422 O443 1.256 . S
C422 O444 1.244 . S
O423 Zn419 2.055 . S
O423 C445 1.259 . S
O424 Zn416 2.046 . S
O424 C445 1.254 . S
N425 Zn419 2.036 . S
N425 C426 1.298 . S
N425 N428 1.398 . S
C426 N425 1.298 . S
C426 N429 1.367 . S
C426 C439 1.481 . S
C427 N428 1.299 . S
C427 N429 1.379 . S
N428 N425 1.398 . S
N428 C427 1.299 . S
N429 C426 1.367 . S
N429 C427 1.379 . S
C430 N432 1.298 . S
C430 N434 1.367 . S
C430 C438 1.481 . S
C431 N433 1.299 . S
C431 N434 1.379 . S
N432 Zn416 2.036 . S
N432 C430 1.298 . S
N432 N433 1.398 . S
N433 C431 1.299 . S
N433 N432 1.398 . S
N434 C430 1.367 . S
N434 C431 1.379 . S
H435 C438 0.980 . S
H436 C438 0.981 . S
H437 C438 0.981 . S
C438 C430 1.481 . S
C438 H435 0.980 . S
C438 H436 0.981 . S
C438 H437 0.981 . S
C439 C426 1.481 . S
C439 H440 0.980 . S
C439 H441 0.981 . S
C439 H442 0.981 . S
H440 C439 0.980 . S
H441 C439 0.981 . S
H442 C439 0.981 . S
O443 Zn419 2.066 . S
O443 C422 1.256 . S
O444 Zn416 2.053 . S
O444 C422 1.244 . S
C445 O423 1.259 . S
C445 O424 1.254 . S
O446 Zn416 2.066 . S
O446 C418 1.256 . S
O447 C418 1.244 . S
O447 Zn419 2.053 . S
Zn448 O449 2.055 . S
Zn448 O456 2.046 . S
Zn448 N464 2.036 . S
Zn448 O476 2.053 . S
Zn448 O478 2.066 . S
O449 Zn448 2.055 . S
O449 C452 1.259 . S
C450 O478 1.256 . S
C450 O479 1.244 . S
Zn451 O453 2.046 . S
Zn451 O455 2.055 . S
Zn451 N457 2.036 . S
Zn451 O475 2.066 . S
Zn451 O479 2.053 . S
C452 O449 1.259 . S
C452 O453 1.254 . S
O453 Zn451 2.046 . S
O453 C452 1.254 . S
C454 O475 1.256 . S
C454 O476 1.244 . S
O455 Zn451 2.055 . S
O455 C477 1.259 . S
O456 Zn448 2.046 . S
O456 C477 1.254 . S
N457 Zn451 2.036 . S
N457 C458 1.298 . S
N457 N460 1.398 . S
C458 N457 1.298 . S
C458 N461 1.367 . S
C458 C471 1.481 . S
C459 N460 1.299 . S
C459 N461 1.379 . S
N460 N457 1.398 . S
N460 C459 1.299 . S
N461 C458 1.367 . S
N461 C459 1.379 . S
C462 N464 1.298 . S
C462 N466 1.367 . S
C462 C470 1.481 . S
C463 N465 1.299 . S
C463 N466 1.379 . S
N464 Zn448 2.036 . S
N464 C462 1.298 . S
N464 N465 1.398 . S
N465 C463 1.299 . S
N465 N464 1.398 . S
N466 C462 1.367 . S
N466 C463 1.379 . S
H467 C470 0.980 . S
H468 C470 0.981 . S
H469 C470 0.981 . S
C470 C462 1.481 . S
C470 H467 0.980 . S
C470 H468 0.981 . S
C470 H469 0.981 . S
C471 C458 1.481 . S
C471 H472 0.980 . S
C471 H473 0.981 . S
C471 H474 0.981 . S
H472 C471 0.980 . S
H473 C471 0.981 . S
H474 C471 0.981 . S
O475 Zn451 2.066 . S
O475 C454 1.256 . S
O476 Zn448 2.053 . S
O476 C454 1.244 . S
C477 O455 1.259 . S
C477 O456 1.254 . S
O478 Zn448 2.066 . S
O478 C450 1.256 . S
O479 C450 1.244 . S
O479 Zn451 2.053 . S
Zn480 O481 2.055 . S
Zn480 O488 2.046 . S
Zn480 N496 2.036 . S
Zn480 O508 2.053 . S
Zn480 O510 2.066 . S
O481 Zn480 2.055 . S
O481 C484 1.259 . S
C482 O510 1.256 . S
C482 O511 1.244 . S
Zn483 O485 2.046 . S
Zn483 O487 2.055 . S
Zn483 N489 2.036 . S
Zn483 O507 2.066 . S
Zn483 O511 2.053 . S
C484 O481 1.259 . S
C484 O485 1.254 . S
O485 Zn483 2.046 . S
O485 C484 1.254 . S
C486 O507 1.256 . S
C486 O508 1.244 . S
O487 Zn483 2.055 . S
O487 C509 1.259 . S
O488 Zn480 2.046 . S
O488 C509 1.254 . S
N489 Zn483 2.036 . S
N489 C490 1.298 . S
N489 N492 1.398 . S
C490 N489 1.298 . S
C490 N493 1.367 . S
C490 C503 1.481 . S
C491 N492 1.299 . S
C491 N493 1.379 . S
N492 N489 1.398 . S
N492 C491 1.299 . S
N493 C490 1.367 . S
N493 C491 1.379 . S
C494 N496 1.298 1_455 S
C494 N498 1.367 . S
C494 C502 1.481 . S
C495 N497 1.299 . S
C495 N498 1.379 1_655 S
N496 Zn480 2.036 . S
N496 C494 1.298 1_655 S
N496 N497 1.398 . S
N497 C495 1.299 . S
N497 N496 1.398 . S
N498 C494 1.367 . S
N498 C495 1.379 1_455 S
H499 C502 0.980 . S
H500 C502 0.981 . S
H501 C502 0.981 . S
C502 C494 1.481 . S
C502 H499 0.980 . S
C502 H500 0.981 . S
C502 H501 0.981 . S
C503 C490 1.481 . S
C503 H504 0.980 . S
C503 H505 0.981 . S
C503 H506 0.981 . S
H504 C503 0.980 . S
H505 C503 0.981 . S
H506 C503 0.981 . S
O507 Zn483 2.066 . S
O507 C486 1.256 . S
O508 Zn480 2.053 . S
O508 C486 1.244 . S
C509 O487 1.259 . S
C509 O488 1.254 . S
O510 Zn480 2.066 . S
O510 C482 1.256 . S
O511 C482 1.244 . S
O511 Zn483 2.053 . S
Zn512 O513 2.055 . S
Zn512 O520 2.046 . S
Zn512 N528 2.036 . S
Zn512 O540 2.053 . S
Zn512 O542 2.066 . S
O513 Zn512 2.055 . S
O513 C516 1.259 . S
C514 O542 1.256 . S
C514 O543 1.244 . S
Zn515 O517 2.046 . S
Zn515 O519 2.055 . S
Zn515 N521 2.036 . S
Zn515 O539 2.066 . S
Zn515 O543 2.053 . S
C516 O513 1.259 . S
C516 O517 1.254 . S
O517 Zn515 2.046 . S
O517 C516 1.254 . S
C518 O539 1.256 . S
C518 O540 1.244 . S
O519 Zn515 2.055 . S
O519 C541 1.259 . S
O520 Zn512 2.046 . S
O520 C541 1.254 . S
N521 Zn515 2.036 . S
N521 C522 1.298 . S
N521 N524 1.398 . S
C522 N521 1.298 . S
C522 N525 1.367 . S
C522 C535 1.481 . S
C523 N524 1.299 . S
C523 N525 1.379 . S
N524 N521 1.398 . S
N524 C523 1.299 . S
N525 C522 1.367 . S
N525 C523 1.379 . S
C526 N528 1.298 . S
C526 N530 1.367 . S
C526 C534 1.481 . S
C527 N529 1.299 . S
C527 N530 1.379 . S
N528 Zn512 2.036 . S
N528 C526 1.298 . S
N528 N529 1.398 . S
N529 C527 1.299 . S
N529 N528 1.398 . S
N530 C526 1.367 . S
N530 C527 1.379 . S
H531 C534 0.980 . S
H532 C534 0.981 . S
H533 C534 0.981 . S
C534 C526 1.481 . S
C534 H531 0.980 . S
C534 H532 0.981 . S
C534 H533 0.981 . S
C535 C522 1.481 . S
C535 H536 0.980 . S
C535 H537 0.981 . S
C535 H538 0.981 . S
H536 C535 0.980 . S
H537 C535 0.981 . S
H538 C535 0.981 . S
O539 Zn515 2.066 . S
O539 C518 1.256 . S
O540 Zn512 2.053 . S
O540 C518 1.244 . S
C541 O519 1.259 . S
C541 O520 1.254 . S
O542 Zn512 2.066 . S
O542 C514 1.256 . S
O543 C514 1.244 . S
O543 Zn515 2.053 . S
Zn544 O545 2.055 . S
Zn544 O552 2.046 . S
Zn544 N560 2.036 . S
Zn544 O572 2.053 . S
Zn544 O574 2.066 . S
O545 Zn544 2.055 . S
O545 C548 1.259 . S
C546 O574 1.256 . S
C546 O575 1.244 . S
Zn547 O549 2.046 . S
Zn547 O551 2.055 . S
Zn547 N553 2.036 . S
Zn547 O571 2.066 . S
Zn547 O575 2.053 . S
C548 O545 1.259 . S
C548 O549 1.254 . S
O549 Zn547 2.046 . S
O549 C548 1.254 . S
C550 O571 1.256 . S
C550 O572 1.244 . S
O551 Zn547 2.055 . S
O551 C573 1.259 . S
O552 Zn544 2.046 . S
O552 C573 1.254 . S
N553 Zn547 2.036 . S
N553 C554 1.298 . S
N553 N556 1.398 . S
C554 N553 1.298 . S
C554 N557 1.367 . S
C554 C567 1.481 . S
C555 N556 1.299 . S
C555 N557 1.379 . S
N556 N553 1.398 . S
N556 C555 1.299 . S
N557 C554 1.367 . S
N557 C555 1.379 . S
C558 N560 1.298 1_565 S
C558 N562 1.367 . S
C558 C566 1.481 . S
C559 N561 1.299 . S
C559 N562 1.379 1_545 S
N560 Zn544 2.036 . S
N560 C558 1.298 1_545 S
N560 N561 1.398 . S
N561 C559 1.299 . S
N561 N560 1.398 . S
N562 C558 1.367 . S
N562 C559 1.379 1_565 S
H563 C566 0.980 . S
H564 C566 0.981 . S
H565 C566 0.981 . S
C566 C558 1.481 . S
C566 H563 0.980 . S
C566 H564 0.981 . S
C566 H565 0.981 . S
C567 C554 1.481 . S
C567 H568 0.980 . S
C567 H569 0.981 . S
C567 H570 0.981 . S
H568 C567 0.980 . S
H569 C567 0.981 . S
H570 C567 0.981 . S
O571 Zn547 2.066 . S
O571 C550 1.256 . S
O572 Zn544 2.053 . S
O572 C550 1.244 . S
C573 O551 1.259 . S
C573 O552 1.254 . S
O574 Zn544 2.066 . S
O574 C546 1.256 . S
O575 C546 1.244 . S
O575 Zn547 2.053 . S
Zn576 O577 2.055 . S
Zn576 O584 2.046 . S
Zn576 N592 2.036 . S
Zn576 O604 2.053 . S
Zn576 O606 2.066 . S
O577 Zn576 2.055 . S
O577 C580 1.259 . S
C578 O606 1.256 . S
C578 O607 1.244 . S
Zn579 O581 2.046 . S
Zn579 O583 2.055 . S
Zn579 N585 2.036 . S
Zn579 O603 2.066 . S
Zn579 O607 2.053 . S
C580 O577 1.259 . S
C580 O581 1.254 . S
O581 Zn579 2.046 . S
O581 C580 1.254 . S
C582 O603 1.256 . S
C582 O604 1.244 . S
O583 Zn579 2.055 . S
O583 C605 1.259 . S
O584 Zn576 2.046 . S
O584 C605 1.254 . S
N585 Zn579 2.036 . S
N585 C586 1.298 . S
N585 N588 1.398 . S
C586 N585 1.298 . S
C586 N589 1.367 . S
C586 C599 1.481 . S
C587 N588 1.299 . S
C587 N589 1.379 . S
N588 N585 1.398 . S
N588 C587 1.299 . S
N589 C586 1.367 . S
N589 C587 1.379 . S
C590 N592 1.298 1_565 S
C590 N594 1.367 . S
C590 C598 1.481 . S
C591 N593 1.299 . S
C591 N594 1.379 1_545 S
N592 Zn576 2.036 . S
N592 C590 1.298 1_545 S
N592 N593 1.398 . S
N593 C591 1.299 . S
N593 N592 1.398 . S
N594 C590 1.367 . S
N594 C591 1.379 1_565 S
H595 C598 0.980 . S
H596 C598 0.981 . S
H597 C598 0.981 . S
C598 C590 1.481 . S
C598 H595 0.980 . S
C598 H596 0.981 . S
C598 H597 0.981 . S
C599 C586 1.481 . S
C599 H600 0.980 . S
C599 H601 0.981 . S
C599 H602 0.981 . S
H600 C599 0.980 . S
H601 C599 0.981 . S
H602 C599 0.981 . S
O603 Zn579 2.066 . S
O603 C582 1.256 . S
O604 Zn576 2.053 . S
O604 C582 1.244 . S
C605 O583 1.259 . S
C605 O584 1.254 . S
O606 Zn576 2.066 . S
O606 C578 1.256 . S
O607 C578 1.244 . S
O607 Zn579 2.053 . S
Zn608 O609 2.055 . S
Zn608 O616 2.046 . S
Zn608 N624 2.036 . S
Zn608 O636 2.053 . S
Zn608 O638 2.066 . S
O609 Zn608 2.055 . S
O609 C612 1.259 . S
C610 O638 1.256 . S
C610 O639 1.244 . S
Zn611 O613 2.046 . S
Zn611 O615 2.055 . S
Zn611 N617 2.036 . S
Zn611 O635 2.066 . S
Zn611 O639 2.053 . S
C612 O609 1.259 . S
C612 O613 1.254 . S
O613 Zn611 2.046 . S
O613 C612 1.254 . S
C614 O635 1.256 . S
C614 O636 1.244 . S
O615 Zn611 2.055 . S
O615 C637 1.259 . S
O616 Zn608 2.046 . S
O616 C637 1.254 . S
N617 Zn611 2.036 . S
N617 C618 1.298 . S
N617 N620 1.398 . S
C618 N617 1.298 . S
C618 N621 1.367 . S
C618 C631 1.481 . S
C619 N620 1.299 . S
C619 N621 1.379 . S
N620 N617 1.398 . S
N620 C619 1.299 . S
N621 C618 1.367 . S
N621 C619 1.379 . S
C622 N624 1.298 1_455 S
C622 N626 1.367 . S
C622 C630 1.481 . S
C623 N625 1.299 . S
C623 N626 1.379 1_655 S
N624 Zn608 2.036 . S
N624 C622 1.298 1_655 S
N624 N625 1.398 . S
N625 C623 1.299 . S
N625 N624 1.398 . S
N626 C622 1.367 . S
N626 C623 1.379 1_455 S
H627 C630 0.980 . S
H628 C630 0.981 . S
H629 C630 0.981 . S
C630 C622 1.481 . S
C630 H627 0.980 . S
C630 H628 0.981 . S
C630 H629 0.981 . S
C631 C618 1.481 . S
C631 H632 0.980 . S
C631 H633 0.981 . S
C631 H634 0.981 . S
H632 C631 0.980 . S
H633 C631 0.981 . S
H634 C631 0.981 . S
O635 Zn611 2.066 . S
O635 C614 1.256 . S
O636 Zn608 2.053 . S
O636 C614 1.244 . S
C637 O615 1.259 . S
C637 O616 1.254 . S
O638 Zn608 2.066 . S
O638 C610 1.256 . S
O639 C610 1.244 . S
O639 Zn611 2.053 . S
Zn640 O641 2.055 . S
Zn640 O648 2.046 . S
Zn640 N656 2.036 . S
Zn640 O668 2.053 . S
Zn640 O670 2.066 . S
O641 Zn640 2.055 . S
O641 C644 1.259 . S
C642 O670 1.256 . S
C642 O671 1.244 . S
Zn643 O645 2.046 . S
Zn643 O647 2.055 . S
Zn643 N649 2.036 . S
Zn643 O667 2.066 . S
Zn643 O671 2.053 . S
C644 O641 1.259 . S
C644 O645 1.254 . S
O645 Zn643 2.046 . S
O645 C644 1.254 . S
C646 O667 1.256 . S
C646 O668 1.244 . S
O647 Zn643 2.055 . S
O647 C669 1.259 . S
O648 Zn640 2.046 . S
O648 C669 1.254 . S
N649 Zn643 2.036 . S
N649 C650 1.298 . S
N649 N652 1.398 . S
C650 N649 1.298 . S
C650 N653 1.367 . S
C650 C663 1.481 . S
C651 N652 1.299 . S
C651 N653 1.379 . S
N652 N649 1.398 . S
N652 C651 1.299 . S
N653 C650 1.367 . S
N653 C651 1.379 . S
C654 N656 1.298 . S
C654 N658 1.367 . S
C654 C662 1.481 . S
C655 N657 1.299 . S
C655 N658 1.379 . S
N656 Zn640 2.036 . S
N656 C654 1.298 . S
N656 N657 1.398 . S
N657 C655 1.299 . S
N657 N656 1.398 . S
N658 C654 1.367 . S
N658 C655 1.379 . S
H659 C662 0.980 . S
H660 C662 0.981 . S
H661 C662 0.981 . S
C662 C654 1.481 . S
C662 H659 0.980 . S
C662 H660 0.981 . S
C662 H661 0.981 . S
C663 C650 1.481 . S
C663 H664 0.980 . S
C663 H665 0.981 . S
C663 H666 0.981 . S
H664 C663 0.980 . S
H665 C663 0.981 . S
H666 C663 0.981 . S
O667 Zn643 2.066 . S
O667 C646 1.256 . S
O668 Zn640 2.053 . S
O668 C646 1.244 . S
C669 O647 1.259 . S
C669 O648 1.254 . S
O670 Zn640 2.066 . S
O670 C642 1.256 . S
O671 C642 1.244 . S
O671 Zn643 2.053 . S
Zn672 O673 2.055 1_556 S
Zn672 O680 2.045 1_556 S
Zn672 N688 2.036 . S
Zn672 O700 2.053 . S
Zn672 O702 2.066 . S
O673 Zn672 2.055 1_554 S
O673 C676 1.259 . S
C674 O702 1.256 1_554 S
C674 O703 1.244 . S
Zn675 O677 2.046 . S
Zn675 O679 2.055 . S
Zn675 N681 2.036 . S
Zn675 O699 2.066 1_554 S
Zn675 O703 2.053 . S
C676 O673 1.259 . S
C676 O677 1.254 . S
O677 Zn675 2.046 . S
O677 C676 1.254 . S
C678 O699 1.256 . S
C678 O700 1.244 . S
O679 Zn675 2.055 . S
O679 C701 1.259 . S
O680 Zn672 2.045 1_554 S
O680 C701 1.255 . S
N681 Zn675 2.036 . S
N681 C682 1.298 . S
N681 N684 1.398 . S
C682 N681 1.298 . S
C682 N685 1.367 . S
C682 C695 1.479 1_554 S
C683 N684 1.299 . S
C683 N685 1.379 . S
N684 N681 1.398 . S
N684 C683 1.299 . S
N685 C682 1.367 . S
N685 C683 1.379 . S
C686 N688 1.298 . S
C686 N690 1.367 . S
C686 C694 1.481 1_556 S
C687 N689 1.299 . S
C687 N690 1.379 . S
N688 Zn672 2.036 . S
N688 C686 1.298 . S
N688 N689 1.398 . S
N689 C687 1.299 . S
N689 N688 1.398 . S
N690 C686 1.367 . S
N690 C687 1.379 . S
H691 C694 0.980 . S
H692 C694 0.981 . S
H693 C694 0.981 . S
C694 C686 1.481 1_554 S
C694 H691 0.980 . S
C694 H692 0.981 . S
C694 H693 0.981 . S
C695 C682 1.479 1_556 S
C695 H696 0.979 1_556 S
C695 H697 0.979 1_556 S
C695 H698 0.987 . S
H696 C695 0.979 1_554 S
H697 C695 0.979 1_554 S
H698 C695 0.987 . S
O699 Zn675 2.066 1_556 S
O699 C678 1.256 . S
O700 Zn672 2.053 . S
O700 C678 1.244 . S
C701 O679 1.259 . S
C701 O680 1.255 . S
O702 Zn672 2.066 . S
O702 C674 1.256 1_556 S
O703 C674 1.244 . S
O703 Zn675 2.053 . S
Zn704 O705 2.055 . S
Zn704 O712 2.046 . S
Zn704 N720 2.036 . S
Zn704 O732 2.053 . S
Zn704 O734 2.066 1_554 S
O705 Zn704 2.055 . S
O705 C708 1.259 . S
C706 O734 1.256 . S
C706 O735 1.244 . S
Zn707 O709 2.045 1_556 S
Zn707 O711 2.055 1_556 S
Zn707 N713 2.036 . S
Zn707 O731 2.066 . S
Zn707 O735 2.053 . S
C708 O705 1.259 . S
C708 O709 1.255 . S
O709 Zn707 2.045 1_554 S
O709 C708 1.255 . S
C710 O731 1.256 1_554 S
C710 O732 1.244 . S
O711 Zn707 2.055 1_554 S
O711 C733 1.259 . S
O712 Zn704 2.046 . S
O712 C733 1.254 . S
N713 Zn707 2.036 . S
N713 C714 1.298 . S
N713 N716 1.398 . S
C714 N713 1.298 . S
C714 N717 1.367 . S
C714 C727 1.481 1_556 S
C715 N716 1.299 . S
C715 N717 1.379 . S
N716 N713 1.398 . S
N716 C715 1.299 . S
N717 C714 1.367 . S
N717 C715 1.379 . S
C718 N720 1.298 . S
C718 N722 1.367 . S
C718 C726 1.479 1_554 S
C719 N721 1.299 . S
C719 N722 1.379 . S
N720 Zn704 2.036 . S
N720 C718 1.298 . S
N720 N721 1.398 . S
N721 C719 1.299 . S
N721 N720 1.398 . S
N722 C718 1.367 . S
N722 C719 1.379 . S
H723 C726 0.979 1_554 S
H724 C726 0.979 1_554 S
H725 C726 0.987 . S
C726 C718 1.479 1_556 S
C726 H723 0.979 1_556 S
C726 H724 0.979 1_556 S
C726 H725 0.987 . S
C727 C714 1.481 1_554 S
C727 H728 0.980 . S
C727 H729 0.981 . S
C727 H730 0.981 . S
H728 C727 0.980 . S
H729 C727 0.981 . S
H730 C727 0.981 . S
O731 Zn707 2.066 . S
O731 C710 1.256 1_556 S
O732 Zn704 2.053 . S
O732 C710 1.244 . S
C733 O711 1.259 . S
C733 O712 1.254 . S
O734 Zn704 2.066 1_556 S
O734 C706 1.256 . S
O735 C706 1.244 . S
O735 Zn707 2.053 . S
Zn736 O737 2.055 1_556 S
Zn736 O744 2.045 1_556 S
Zn736 N752 2.036 . S
Zn736 O764 2.053 . S
Zn736 O766 2.066 . S
O737 Zn736 2.055 1_554 S
O737 C740 1.259 . S
C738 O766 1.256 1_554 S
C738 O767 1.244 . S
Zn739 O741 2.046 . S
Zn739 O743 2.055 . S
Zn739 N745 2.036 . S
Zn739 O763 2.066 1_554 S
Zn739 O767 2.053 . S
C740 O737 1.259 . S
C740 O741 1.254 . S
O741 Zn739 2.046 . S
O741 C740 1.254 . S
C742 O763 1.256 . S
C742 O764 1.244 . S
O743 Zn739 2.055 . S
O743 C765 1.259 . S
O744 Zn736 2.045 1_554 S
O744 C765 1.255 . S
N745 Zn739 2.036 . S
N745 C746 1.298 . S
N745 N748 1.398 . S
C746 N745 1.298 . S
C746 N749 1.367 . S
C746 C759 1.479 1_554 S
C747 N748 1.299 . S
C747 N749 1.379 . S
N748 N745 1.398 . S
N748 C747 1.299 . S
N749 C746 1.367 . S
N749 C747 1.379 . S
C750 N752 1.298 . S
C750 N754 1.367 . S
C750 C758 1.481 1_556 S
C751 N753 1.299 . S
C751 N754 1.379 . S
N752 Zn736 2.036 . S
N752 C750 1.298 . S
N752 N753 1.398 . S
N753 C751 1.299 . S
N753 N752 1.398 . S
N754 C750 1.367 . S
N754 C751 1.379 . S
H755 C758 0.980 . S
H756 C758 0.981 . S
H757 C758 0.981 . S
C758 C750 1.481 1_554 S
C758 H755 0.980 . S
C758 H756 0.981 . S
C758 H757 0.981 . S
C759 C746 1.479 1_556 S
C759 H760 0.979 1_556 S
C759 H761 0.979 1_556 S
C759 H762 0.987 . S
H760 C759 0.979 1_554 S
H761 C759 0.979 1_554 S
H762 C759 0.987 . S
O763 Zn739 2.066 1_556 S
O763 C742 1.256 . S
O764 Zn736 2.053 . S
O764 C742 1.244 . S
C765 O743 1.259 . S
C765 O744 1.255 . S
O766 Zn736 2.066 . S
O766 C738 1.256 1_556 S
O767 C738 1.244 . S
O767 Zn739 2.053 . S
Zn768 O769 2.055 . S
Zn768 O776 2.046 . S
Zn768 N784 2.036 . S
Zn768 O796 2.053 . S
Zn768 O798 2.066 . S
O769 Zn768 2.055 . S
O769 C772 1.259 . S
C770 O798 1.256 . S
C770 O799 1.244 . S
Zn771 O773 2.046 . S
Zn771 O775 2.055 . S
Zn771 N777 2.036 . S
Zn771 O795 2.066 . S
Zn771 O799 2.053 . S
C772 O769 1.259 . S
C772 O773 1.254 . S
O773 Zn771 2.046 . S
O773 C772 1.254 . S
C774 O795 1.256 . S
C774 O796 1.244 . S
O775 Zn771 2.055 . S
O775 C797 1.259 . S
O776 Zn768 2.046 . S
O776 C797 1.254 . S
N777 Zn771 2.036 . S
N777 C778 1.298 1_565 S
N777 N780 1.398 . S
C778 N777 1.298 1_545 S
C778 N781 1.367 . S
C778 C791 1.481 . S
C779 N780 1.299 . S
C779 N781 1.379 1_565 S
N780 N777 1.398 . S
N780 C779 1.299 . S
N781 C778 1.367 . S
N781 C779 1.379 1_545 S
C782 N784 1.298 . S
C782 N786 1.367 . S
C782 C790 1.481 . S
C783 N785 1.299 . S
C783 N786 1.379 . S
N784 Zn768 2.036 . S
N784 C782 1.298 . S
N784 N785 1.398 . S
N785 C783 1.299 . S
N785 N784 1.398 . S
N786 C782 1.367 . S
N786 C783 1.379 . S
H787 C790 0.980 . S
H788 C790 0.981 . S
H789 C790 0.981 . S
C790 C782 1.481 . S
C790 H787 0.980 . S
C790 H788 0.981 . S
C790 H789 0.981 . S
C791 C778 1.481 . S
C791 H792 0.980 . S
C791 H793 0.981 . S
C791 H794 0.981 . S
H792 C791 0.980 . S
H793 C791 0.981 . S
H794 C791 0.981 . S
O795 Zn771 2.066 . S
O795 C774 1.256 . S
O796 Zn768 2.053 . S
O796 C774 1.244 . S
C797 O775 1.259 . S
C797 O776 1.254 . S
O798 Zn768 2.066 . S
O798 C770 1.256 . S
O799 C770 1.244 . S
O799 Zn771 2.053 . S
Zn800 O801 2.055 . S
Zn800 O808 2.046 . S
Zn800 N816 2.036 . S
Zn800 O828 2.053 . S
Zn800 O830 2.066 . S
O801 Zn800 2.055 . S
O801 C804 1.259 . S
C802 O830 1.256 . S
C802 O831 1.244 . S
Zn803 O805 2.046 . S
Zn803 O807 2.055 . S
Zn803 N809 2.036 . S
Zn803 O827 2.066 . S
Zn803 O831 2.053 . S
C804 O801 1.259 . S
C804 O805 1.254 . S
O805 Zn803 2.046 . S
O805 C804 1.254 . S
C806 O827 1.256 . S
C806 O828 1.244 . S
O807 Zn803 2.055 . S
O807 C829 1.259 . S
O808 Zn800 2.046 . S
O808 C829 1.254 . S
N809 Zn803 2.036 . S
N809 C810 1.298 1_455 S
N809 N812 1.398 . S
C810 N809 1.298 1_655 S
C810 N813 1.367 . S
C810 C823 1.481 . S
C811 N812 1.299 . S
C811 N813 1.379 1_455 S
N812 N809 1.398 . S
N812 C811 1.299 . S
N813 C810 1.367 . S
N813 C811 1.379 1_655 S
C814 N816 1.298 . S
C814 N818 1.367 . S
C814 C822 1.481 . S
C815 N817 1.299 . S
C815 N818 1.379 . S
N816 Zn800 2.036 . S
N816 C814 1.298 . S
N816 N817 1.398 . S
N817 C815 1.299 . S
N817 N816 1.398 . S
N818 C814 1.367 . S
N818 C815 1.379 . S
H819 C822 0.980 . S
H820 C822 0.981 . S
H821 C822 0.981 . S
C822 C814 1.481 . S
C822 H819 0.980 . S
C822 H820 0.981 . S
C822 H821 0.981 . S
C823 C810 1.481 . S
C823 H824 0.980 . S
C823 H825 0.981 . S
C823 H826 0.981 . S
H824 C823 0.980 . S
H825 C823 0.981 . S
H826 C823 0.981 . S
O827 Zn803 2.066 . S
O827 C806 1.256 . S
O828 Zn800 2.053 . S
O828 C806 1.244 . S
C829 O807 1.259 . S
C829 O808 1.254 . S
O830 Zn800 2.066 . S
O830 C802 1.256 . S
O831 C802 1.244 . S
O831 Zn803 2.053 . S
Zn832 O833 2.055 . S
Zn832 O840 2.046 . S
Zn832 N848 2.036 . S
Zn832 O860 2.053 . S
Zn832 O862 2.066 . S
O833 Zn832 2.055 . S
O833 C836 1.259 . S
C834 O862 1.256 . S
C834 O863 1.244 . S
Zn835 O837 2.046 . S
Zn835 O839 2.055 . S
Zn835 N841 2.036 . S
Zn835 O859 2.066 . S
Zn835 O863 2.053 . S
C836 O833 1.259 . S
C836 O837 1.254 . S
O837 Zn835 2.046 . S
O837 C836 1.254 . S
C838 O859 1.256 . S
C838 O860 1.244 . S
O839 Zn835 2.055 . S
O839 C861 1.259 . S
O840 Zn832 2.046 . S
O840 C861 1.254 . S
N841 Zn835 2.036 . S
N841 C842 1.298 . S
N841 N844 1.398 . S
C842 N841 1.298 . S
C842 N845 1.367 . S
C842 C855 1.481 . S
C843 N844 1.299 . S
C843 N845 1.379 . S
N844 N841 1.398 . S
N844 C843 1.299 . S
N845 C842 1.367 . S
N845 C843 1.379 . S
C846 N848 1.298 . S
C846 N850 1.367 . S
C846 C854 1.481 . S
C847 N849 1.299 . S
C847 N850 1.379 . S
N848 Zn832 2.036 . S
N848 C846 1.298 . S
N848 N849 1.398 . S
N849 C847 1.299 . S
N849 N848 1.398 . S
N850 C846 1.367 . S
N850 C847 1.379 . S
H851 C854 0.980 . S
H852 C854 0.981 . S
H853 C854 0.981 . S
C854 C846 1.481 . S
C854 H851 0.980 . S
C854 H852 0.981 . S
C854 H853 0.981 . S
C855 C842 1.481 . S
C855 H856 0.980 . S
C855 H857 0.981 . S
C855 H858 0.981 . S
H856 C855 0.980 . S
H857 C855 0.981 . S
H858 C855 0.981 . S
O859 Zn835 2.066 . S
O859 C838 1.256 . S
O860 Zn832 2.053 . S
O860 C838 1.244 . S
C861 O839 1.259 . S
C861 O840 1.254 . S
O862 Zn832 2.066 . S
O862 C834 1.256 . S
O863 C834 1.244 . S
O863 Zn835 2.053 . S
Zn864 O865 2.055 . S
Zn864 O872 2.046 . S
Zn864 N880 2.036 . S
Zn864 O892 2.053 1_556 S
Zn864 O894 2.066 1_556 S
O865 Zn864 2.055 . S
O865 C868 1.259 . S
C866 O894 1.256 . S
C866 O895 1.244 . S
Zn867 O869 2.046 1_554 S
Zn867 O871 2.055 1_554 S
Zn867 N873 2.036 . S
Zn867 O891 2.066 . S
Zn867 O895 2.053 . S
C868 O865 1.259 . S
C868 O869 1.254 . S
O869 Zn867 2.046 1_556 S
O869 C868 1.254 . S
C870 O891 1.256 . S
C870 O892 1.244 . S
O871 Zn867 2.055 1_556 S
O871 C893 1.259 . S
O872 Zn864 2.046 . S
O872 C893 1.254 . S
N873 Zn867 2.036 . S
N873 C874 1.274 1_554 S
N873 N876 1.398 . S
C874 N873 1.274 1_556 S
C874 N877 1.335 1_556 S
C874 C887 1.531 . S
C875 N876 1.299 . S
C875 N877 1.379 . S
N876 N873 1.398 . S
N876 C875 1.299 . S
N877 C874 1.335 1_554 S
N877 C875 1.379 . S
C878 N880 1.298 1_554 S
C878 N882 1.367 . S
C878 C886 1.481 . S
C879 N881 1.285 1_554 S
C879 N882 1.394 . S
N880 Zn864 2.036 . S
N880 C878 1.298 1_556 S
N880 N881 1.398 . S
N881 C879 1.285 1_556 S
N881 N880 1.398 . S
N882 C878 1.367 . S
N882 C879 1.394 . S
H883 C886 0.989 . S
H884 C886 0.997 . S
H885 C886 0.981 . S
C886 C878 1.481 . S
C886 H883 0.989 . S
C886 H884 0.997 . S
C886 H885 0.981 . S
C887 C874 1.531 . S
C887 H888 0.980 . S
C887 H889 0.981 . S
C887 H890 0.981 . S
H888 C887 0.980 . S
H889 C887 0.981 . S
H890 C887 0.981 . S
O891 Zn867 2.066 . S
O891 C870 1.256 . S
O892 Zn864 2.053 1_554 S
O892 C870 1.244 . S
C893 O871 1.259 . S
C893 O872 1.254 . S
O894 Zn864 2.066 1_554 S
O894 C866 1.256 . S
O895 C866 1.244 . S
O895 Zn867 2.053 . S
Zn896 O897 2.055 . S
Zn896 O904 2.046 . S
Zn896 N912 2.036 . S
Zn896 O924 2.053 1_556 S
Zn896 O926 2.066 1_556 S
O897 Zn896 2.055 . S
O897 C900 1.259 . S
C898 O926 1.256 . S
C898 O927 1.244 . S
Zn899 O901 2.046 1_554 S
Zn899 O903 2.055 1_554 S
Zn899 N905 2.036 . S
Zn899 O923 2.066 . S
Zn899 O927 2.053 . S
C900 O897 1.259 . S
C900 O901 1.254 . S
O901 Zn899 2.046 1_556 S
O901 C900 1.254 . S
C902 O923 1.256 . S
C902 O924 1.244 . S
O903 Zn899 2.055 1_556 S
O903 C925 1.259 . S
O904 Zn896 2.046 . S
O904 C925 1.254 . S
N905 Zn899 2.036 . S
N905 C906 1.274 1_554 S
N905 N908 1.398 . S
C906 N905 1.274 1_556 S
C906 N909 1.335 1_556 S
C906 C919 1.531 . S
C907 N908 1.299 . S
C907 N909 1.379 . S
N908 N905 1.398 . S
N908 C907 1.299 . S
N909 C906 1.335 1_554 S
N909 C907 1.379 . S
C910 N912 1.298 1_554 S
C910 N914 1.367 . S
C910 C918 1.481 . S
C911 N913 1.285 1_554 S
C911 N914 1.394 . S
N912 Zn896 2.036 . S
N912 C910 1.298 1_556 S
N912 N913 1.398 . S
N913 C911 1.285 1_556 S
N913 N912 1.398 . S
N914 C910 1.367 . S
N914 C911 1.394 . S
H915 C918 0.989 . S
H916 C918 0.997 . S
H917 C918 0.981 . S
C918 C910 1.481 . S
C918 H915 0.989 . S
C918 H916 0.997 . S
C918 H917 0.981 . S
C919 C906 1.531 . S
C919 H920 0.980 . S
C919 H921 0.981 . S
C919 H922 0.981 . S
H920 C919 0.980 . S
H921 C919 0.981 . S
H922 C919 0.981 . S
O923 Zn899 2.066 . S
O923 C902 1.256 . S
O924 Zn896 2.053 1_554 S
O924 C902 1.244 . S
C925 O903 1.259 . S
C925 O904 1.254 . S
O926 Zn896 2.066 1_554 S
O926 C898 1.256 . S
O927 C898 1.244 . S
O927 Zn899 2.053 . S
Zn928 O929 2.055 . S
Zn928 O936 2.046 . S
Zn928 N944 2.036 . S
Zn928 O956 2.053 1_556 S
Zn928 O958 2.066 1_556 S
O929 Zn928 2.055 . S
O929 C932 1.259 . S
C930 O958 1.256 . S
C930 O959 1.244 . S
Zn931 O933 2.046 1_554 S
Zn931 O935 2.055 1_554 S
Zn931 N937 2.036 . S
Zn931 O955 2.066 . S
Zn931 O959 2.053 . S
C932 O929 1.259 . S
C932 O933 1.254 . S
O933 Zn931 2.046 1_556 S
O933 C932 1.254 . S
C934 O955 1.256 . S
C934 O956 1.244 . S
O935 Zn931 2.055 1_556 S
O935 C957 1.259 . S
O936 Zn928 2.046 . S
O936 C957 1.254 . S
N937 Zn931 2.036 . S
N937 C938 1.274 1_554 S
N937 N940 1.398 . S
C938 N937 1.274 1_556 S
C938 N941 1.335 1_556 S
C938 C951 1.531 . S
C939 N940 1.299 . S
C939 N941 1.379 . S
N940 N937 1.398 . S
N940 C939 1.299 . S
N941 C938 1.335 1_554 S
N941 C939 1.379 . S
C942 N944 1.298 1_554 S
C942 N946 1.367 . S
C942 C950 1.481 . S
C943 N945 1.285 1_554 S
C943 N946 1.394 . S
N944 Zn928 2.036 . S
N944 C942 1.298 1_556 S
N944 N945 1.398 . S
N945 C943 1.285 1_556 S
N945 N944 1.398 . S
N946 C942 1.367 . S
N946 C943 1.394 . S
H947 C950 0.989 . S
H948 C950 0.997 . S
H949 C950 0.981 . S
C950 C942 1.481 . S
C950 H947 0.989 . S
C950 H948 0.997 . S
C950 H949 0.981 . S
C951 C938 1.531 . S
C951 H952 0.980 . S
C951 H953 0.981 . S
C951 H954 0.981 . S
H952 C951 0.980 . S
H953 C951 0.981 . S
H954 C951 0.981 . S
O955 Zn931 2.066 . S
O955 C934 1.256 . S
O956 Zn928 2.053 1_554 S
O956 C934 1.244 . S
C957 O935 1.259 . S
C957 O936 1.254 . S
O958 Zn928 2.066 1_554 S
O958 C930 1.256 . S
O959 C930 1.244 . S
O959 Zn931 2.053 . S
Zn960 O961 2.055 . S
Zn960 O968 2.046 . S
Zn960 N976 2.036 . S
Zn960 O988 2.053 . S
Zn960 O990 2.066 . S
O961 Zn960 2.055 . S
O961 C964 1.259 . S
C962 O990 1.256 . S
C962 O991 1.244 . S
Zn963 O965 2.046 . S
Zn963 O967 2.055 . S
Zn963 N969 2.036 . S
Zn963 O987 2.066 . S
Zn963 O991 2.053 . S
C964 O961 1.259 . S
C964 O965 1.254 . S
O965 Zn963 2.046 . S
O965 C964 1.254 . S
C966 O987 1.256 . S
C966 O988 1.244 . S
O967 Zn963 2.055 . S
O967 C989 1.259 . S
O968 Zn960 2.046 . S
O968 C989 1.254 . S
N969 Zn963 2.036 . S
N969 C970 1.298 . S
N969 N972 1.398 . S
C970 N969 1.298 . S
C970 N973 1.367 . S
C970 C983 1.481 . S
C971 N972 1.299 . S
C971 N973 1.379 . S
N972 N969 1.398 . S
N972 C971 1.299 . S
N973 C970 1.367 . S
N973 C971 1.379 . S
C974 N976 1.298 . S
C974 N978 1.367 . S
C974 C982 1.481 . S
C975 N977 1.299 . S
C975 N978 1.379 . S
N976 Zn960 2.036 . S
N976 C974 1.298 . S
N976 N977 1.398 . S
N977 C975 1.299 . S
N977 N976 1.398 . S
N978 C974 1.367 . S
N978 C975 1.379 . S
H979 C982 0.980 . S
H980 C982 0.981 . S
H981 C982 0.981 . S
C982 C974 1.481 . S
C982 H979 0.980 . S
C982 H980 0.981 . S
C982 H981 0.981 . S
C983 C970 1.481 . S
C983 H984 0.980 . S
C983 H985 0.981 . S
C983 H986 0.981 . S
H984 C983 0.980 . S
H985 C983 0.981 . S
H986 C983 0.981 . S
O987 Zn963 2.066 . S
O987 C966 1.256 . S
O988 Zn960 2.053 . S
O988 C966 1.244 . S
C989 O967 1.259 . S
C989 O968 1.254 . S
O990 Zn960 2.066 . S
O990 C962 1.256 . S
O991 C962 1.244 . S
O991 Zn963 2.053 . S
Zn992 O993 2.055 . S
Zn992 O1000 2.046 . S
Zn992 N1008 2.036 . S
Zn992 O1020 2.053 . S
Zn992 O1022 2.066 . S
O993 Zn992 2.055 . S
O993 C996 1.259 . S
C994 O1022 1.256 . S
C994 O1023 1.244 . S
Zn995 O997 2.046 . S
Zn995 O999 2.055 . S
Zn995 N1001 2.036 . S
Zn995 O1019 2.066 . S
Zn995 O1023 2.053 . S
C996 O993 1.259 . S
C996 O997 1.254 . S
O997 Zn995 2.046 . S
O997 C996 1.254 . S
C998 O1019 1.256 . S
C998 O1020 1.244 . S
O999 Zn995 2.055 . S
O999 C1021 1.259 . S
O1000 Zn992 2.046 . S
O1000 C1021 1.254 . S
N1001 Zn995 2.036 . S
N1001 C1002 1.298 . S
N1001 N1004 1.398 . S
C1002 N1001 1.298 . S
C1002 N1005 1.367 . S
C1002 C1015 1.481 . S
C1003 N1004 1.299 . S
C1003 N1005 1.379 . S
N1004 N1001 1.398 . S
N1004 C1003 1.299 . S
N1005 C1002 1.367 . S
N1005 C1003 1.379 . S
C1006 N1008 1.298 . S
C1006 N1010 1.367 . S
C1006 C1014 1.481 . S
C1007 N1009 1.299 . S
C1007 N1010 1.379 . S
N1008 Zn992 2.036 . S
N1008 C1006 1.298 . S
N1008 N1009 1.398 . S
N1009 C1007 1.299 . S
N1009 N1008 1.398 . S
N1010 C1006 1.367 . S
N1010 C1007 1.379 . S
H1011 C1014 0.980 . S
H1012 C1014 0.981 . S
H1013 C1014 0.981 . S
C1014 C1006 1.481 . S
C1014 H1011 0.980 . S
C1014 H1012 0.981 . S
C1014 H1013 0.981 . S
C1015 C1002 1.481 . S
C1015 H1016 0.980 . S
C1015 H1017 0.981 . S
C1015 H1018 0.981 . S
H1016 C1015 0.980 . S
H1017 C1015 0.981 . S
H1018 C1015 0.981 . S
O1019 Zn995 2.066 . S
O1019 C998 1.256 . S
O1020 Zn992 2.053 . S
O1020 C998 1.244 . S
C1021 O999 1.259 . S
C1021 O1000 1.254 . S
O1022 Zn992 2.066 . S
O1022 C994 1.256 . S
O1023 C994 1.244 . S
O1023 Zn995 2.053 . S
Zn1024 O1025 2.055 . S
Zn1024 O1032 2.046 . S
Zn1024 N1040 2.036 . S
Zn1024 O1052 2.053 . S
Zn1024 O1054 2.066 . S
O1025 Zn1024 2.055 . S
O1025 C1028 1.259 . S
C1026 O1054 1.256 . S
C1026 O1055 1.244 . S
Zn1027 O1029 2.046 . S
Zn1027 O1031 2.055 . S
Zn1027 N1033 2.036 . S
Zn1027 O1051 2.066 . S
Zn1027 O1055 2.053 . S
C1028 O1025 1.259 . S
C1028 O1029 1.254 . S
O1029 Zn1027 2.046 . S
O1029 C1028 1.254 . S
C1030 O1051 1.256 . S
C1030 O1052 1.244 . S
O1031 Zn1027 2.055 . S
O1031 C1053 1.259 . S
O1032 Zn1024 2.046 . S
O1032 C1053 1.254 . S
N1033 Zn1027 2.036 . S
N1033 C1034 1.298 . S
N1033 N1036 1.398 . S
C1034 N1033 1.298 . S
C1034 N1037 1.367 . S
C1034 C1047 1.481 . S
C1035 N1036 1.299 . S
C1035 N1037 1.379 . S
N1036 N1033 1.398 . S
N1036 C1035 1.299 . S
N1037 C1034 1.367 . S
N1037 C1035 1.379 . S
C1038 N1040 1.298 . S
C1038 N1042 1.367 . S
C1038 C1046 1.481 . S
C1039 N1041 1.299 . S
C1039 N1042 1.379 . S
N1040 Zn1024 2.036 . S
N1040 C1038 1.298 . S
N1040 N1041 1.398 . S
N1041 C1039 1.299 . S
N1041 N1040 1.398 . S
N1042 C1038 1.367 . S
N1042 C1039 1.379 . S
H1043 C1046 0.980 . S
H1044 C1046 0.981 . S
H1045 C1046 0.981 . S
C1046 C1038 1.481 . S
C1046 H1043 0.980 . S
C1046 H1044 0.981 . S
C1046 H1045 0.981 . S
C1047 C1034 1.481 . S
C1047 H1048 0.980 . S
C1047 H1049 0.981 . S
C1047 H1050 0.981 . S
H1048 C1047 0.980 . S
H1049 C1047 0.981 . S
H1050 C1047 0.981 . S
O1051 Zn1027 2.066 . S
O1051 C1030 1.256 . S
O1052 Zn1024 2.053 . S
O1052 C1030 1.244 . S
C1053 O1031 1.259 . S
C1053 O1032 1.254 . S
O1054 Zn1024 2.066 . S
O1054 C1026 1.256 . S
O1055 C1026 1.244 . S
O1055 Zn1027 2.053 . S
Zn1056 O1057 2.055 . S
Zn1056 O1064 2.046 . S
Zn1056 N1072 2.036 . S
Zn1056 O1084 2.053 . S
Zn1056 O1086 2.066 . S
O1057 Zn1056 2.055 . S
O1057 C1060 1.259 . S
C1058 O1086 1.256 . S
C1058 O1087 1.244 . S
Zn1059 O1061 2.046 . S
Zn1059 O1063 2.055 . S
Zn1059 N1065 2.036 . S
Zn1059 O1083 2.066 . S
Zn1059 O1087 2.053 . S
C1060 O1057 1.259 . S
C1060 O1061 1.254 . S
O1061 Zn1059 2.046 . S
O1061 C1060 1.254 . S
C1062 O1083 1.256 . S
C1062 O1084 1.244 . S
O1063 Zn1059 2.055 . S
O1063 C1085 1.259 . S
O1064 Zn1056 2.046 . S
O1064 C1085 1.254 . S
N1065 Zn1059 2.036 . S
N1065 C1066 1.298 . S
N1065 N1068 1.398 . S
C1066 N1065 1.298 . S
C1066 N1069 1.367 . S
C1066 C1079 1.481 . S
C1067 N1068 1.299 . S
C1067 N1069 1.379 . S
N1068 N1065 1.398 . S
N1068 C1067 1.299 . S
N1069 C1066 1.367 . S
N1069 C1067 1.379 . S
C1070 N1072 1.298 1_655 S
C1070 N1074 1.367 . S
C1070 C1078 1.481 . S
C1071 N1073 1.299 . S
C1071 N1074 1.379 1_455 S
N1072 Zn1056 2.036 . S
N1072 C1070 1.298 1_455 S
N1072 N1073 1.398 . S
N1073 C1071 1.299 . S
N1073 N1072 1.398 . S
N1074 C1070 1.367 . S
N1074 C1071 1.379 1_655 S
H1075 C1078 0.980 . S
H1076 C1078 0.981 . S
H1077 C1078 0.981 . S
C1078 C1070 1.481 . S
C1078 H1075 0.980 . S
C1078 H1076 0.981 . S
C1078 H1077 0.981 . S
C1079 C1066 1.481 . S
C1079 H1080 0.980 . S
C1079 H1081 0.981 . S
C1079 H1082 0.981 . S
H1080 C1079 0.980 . S
H1081 C1079 0.981 . S
H1082 C1079 0.981 . S
O1083 Zn1059 2.066 . S
O1083 C1062 1.256 . S
O1084 Zn1056 2.053 . S
O1084 C1062 1.244 . S
C1085 O1063 1.259 . S
C1085 O1064 1.254 . S
O1086 Zn1056 2.066 . S
O1086 C1058 1.256 . S
O1087 C1058 1.244 . S
O1087 Zn1059 2.053 . S
Zn1088 O1089 2.055 . S
Zn1088 O1096 2.046 . S
Zn1088 N1104 2.036 . S
Zn1088 O1116 2.053 . S
Zn1088 O1118 2.066 . S
O1089 Zn1088 2.055 . S
O1089 C1092 1.259 . S
C1090 O1118 1.256 . S
C1090 O1119 1.244 . S
Zn1091 O1093 2.046 . S
Zn1091 O1095 2.055 . S
Zn1091 N1097 2.036 . S
Zn1091 O1115 2.066 . S
Zn1091 O1119 2.053 . S
C1092 O1089 1.259 . S
C1092 O1093 1.254 . S
O1093 Zn1091 2.046 . S
O1093 C1092 1.254 . S
C1094 O1115 1.256 . S
C1094 O1116 1.244 . S
O1095 Zn1091 2.055 . S
O1095 C1117 1.259 . S
O1096 Zn1088 2.046 . S
O1096 C1117 1.254 . S
N1097 Zn1091 2.036 . S
N1097 C1098 1.298 . S
N1097 N1100 1.398 . S
C1098 N1097 1.298 . S
C1098 N1101 1.367 . S
C1098 C1111 1.481 . S
C1099 N1100 1.299 . S
C1099 N1101 1.379 . S
N1100 N1097 1.398 . S
N1100 C1099 1.299 . S
N1101 C1098 1.367 . S
N1101 C1099 1.379 . S
C1102 N1104 1.298 . S
C1102 N1106 1.367 . S
C1102 C1110 1.481 . S
C1103 N1105 1.299 . S
C1103 N1106 1.379 . S
N1104 Zn1088 2.036 . S
N1104 C1102 1.298 . S
N1104 N1105 1.398 . S
N1105 C1103 1.299 . S
N1105 N1104 1.398 . S
N1106 C1102 1.367 . S
N1106 C1103 1.379 . S
H1107 C1110 0.980 . S
H1108 C1110 0.981 . S
H1109 C1110 0.981 . S
C1110 C1102 1.481 . S
C1110 H1107 0.980 . S
C1110 H1108 0.981 . S
C1110 H1109 0.981 . S
C1111 C1098 1.481 . S
C1111 H1112 0.980 . S
C1111 H1113 0.981 . S
C1111 H1114 0.981 . S
H1112 C1111 0.980 . S
H1113 C1111 0.981 . S
H1114 C1111 0.981 . S
O1115 Zn1091 2.066 . S
O1115 C1094 1.256 . S
O1116 Zn1088 2.053 . S
O1116 C1094 1.244 . S
C1117 O1095 1.259 . S
C1117 O1096 1.254 . S
O1118 Zn1088 2.066 . S
O1118 C1090 1.256 . S
O1119 C1090 1.244 . S
O1119 Zn1091 2.053 . S
Zn1120 O1121 2.055 . S
Zn1120 O1128 2.046 . S
Zn1120 N1136 2.036 . S
Zn1120 O1148 2.053 . S
Zn1120 O1150 2.066 . S
O1121 Zn1120 2.055 . S
O1121 C1124 1.259 . S
C1122 O1150 1.256 . S
C1122 O1151 1.244 . S
Zn1123 O1125 2.046 . S
Zn1123 O1127 2.055 . S
Zn1123 N1129 2.036 . S
Zn1123 O1147 2.066 . S
Zn1123 O1151 2.053 . S
C1124 O1121 1.259 . S
C1124 O1125 1.254 . S
O1125 Zn1123 2.046 . S
O1125 C1124 1.254 . S
C1126 O1147 1.256 . S
C1126 O1148 1.244 . S
O1127 Zn1123 2.055 . S
O1127 C1149 1.259 . S
O1128 Zn1120 2.046 . S
O1128 C1149 1.254 . S
N1129 Zn1123 2.036 . S
N1129 C1130 1.298 . S
N1129 N1132 1.398 . S
C1130 N1129 1.298 . S
C1130 N1133 1.367 . S
C1130 C1143 1.481 . S
C1131 N1132 1.299 . S
C1131 N1133 1.379 . S
N1132 N1129 1.398 . S
N1132 C1131 1.299 . S
N1133 C1130 1.367 . S
N1133 C1131 1.379 . S
C1134 N1136 1.298 1_545 S
C1134 N1138 1.367 . S
C1134 C1142 1.481 . S
C1135 N1137 1.299 . S
C1135 N1138 1.379 1_565 S
N1136 Zn1120 2.036 . S
N1136 C1134 1.298 1_565 S
N1136 N1137 1.398 . S
N1137 C1135 1.299 . S
N1137 N1136 1.398 . S
N1138 C1134 1.367 . S
N1138 C1135 1.379 1_545 S
H1139 C1142 0.980 . S
H1140 C1142 0.981 . S
H1141 C1142 0.981 . S
C1142 C1134 1.481 . S
C1142 H1139 0.980 . S
C1142 H1140 0.981 . S
C1142 H1141 0.981 . S
C1143 C1130 1.481 . S
C1143 H1144 0.980 . S
C1143 H1145 0.981 . S
C1143 H1146 0.981 . S
H1144 C1143 0.980 . S
H1145 C1143 0.981 . S
H1146 C1143 0.981 . S
O1147 Zn1123 2.066 . S
O1147 C1126 1.256 . S
O1148 Zn1120 2.053 . S
O1148 C1126 1.244 . S
C1149 O1127 1.259 . S
C1149 O1128 1.254 . S
O1150 Zn1120 2.066 . S
O1150 C1122 1.256 . S
O1151 C1122 1.244 . S
O1151 Zn1123 2.053 . S
H1152 C1158 0.930 . S
H1153 C1162 0.930 . S
H1154 C1167 0.929 . S
H1155 C1165 0.929 . S
H1156 C1160 0.929 . S
H1157 C1166 0.929 . S
C1158 H1152 0.930 . S
C1158 C1159 1.367 . S
C1158 C1166 1.378 . S
C1159 C1158 1.367 . S
C1159 C1167 1.433 . S
C1160 H1156 0.929 . S
C1160 C1162 1.377 1_545 S
C1160 C1164 1.350 . S
C1161 C1164 1.463 . S
C1161 C1166 1.350 . S
C1161 N1169 1.427 . S
C1162 H1153 0.930 . S
C1162 C1160 1.377 1_565 S
C1162 C1163 1.367 . S
C1163 C1162 1.367 . S
C1163 C1165 1.433 . S
C1164 C1160 1.350 . S
C1164 C1161 1.463 . S
C1164 N1168 1.427 . S
C1165 H1155 0.929 . S
C1165 C1163 1.433 . S
C1165 N1168 1.384 1_565 S
C1166 H1157 0.929 . S
C1166 C1158 1.378 . S
C1166 C1161 1.350 . S
C1167 H1154 0.929 . S
C1167 C1159 1.433 . S
C1167 N1169 1.384 . S
N1168 C1164 1.427 . S
N1168 C1165 1.384 1_545 S
N1169 C1161 1.427 . S
N1169 C1167 1.384 . S
H1170 C1176 0.930 . S
H1171 C1180 0.930 . S
H1172 C1185 0.929 . S
H1173 C1183 0.929 . S
H1174 C1178 0.929 . S
H1175 C1184 0.929 . S
C1176 H1170 0.930 . S
C1176 C1177 1.367 . S
C1176 C1184 1.378 1_455 S
C1177 C1176 1.367 . S
C1177 C1185 1.433 . S
C1178 H1174 0.929 . S
C1178 C1180 1.378 . S
C1178 C1182 1.350 . S
C1179 C1182 1.463 . S
C1179 C1184 1.350 . S
C1179 N1187 1.419 1_655 S
C1180 H1171 0.930 . S
C1180 C1178 1.378 . S
C1180 C1181 1.367 . S
C1181 C1180 1.367 . S
C1181 C1183 1.433 . S
C1182 C1178 1.350 . S
C1182 C1179 1.463 . S
C1182 N1186 1.427 . S
C1183 H1173 0.929 . S
C1183 C1181 1.433 . S
C1183 N1186 1.384 . S
C1184 H1175 0.929 . S
C1184 C1176 1.378 1_655 S
C1184 C1179 1.350 . S
C1185 H1172 0.929 . S
C1185 C1177 1.433 . S
C1185 N1187 1.392 . S
N1186 C1182 1.427 . S
N1186 C1183 1.384 . S
N1187 C1179 1.419 1_455 S
N1187 C1185 1.392 . S
H1188 C1194 0.930 . S
H1189 C1198 0.930 . S
H1190 C1203 0.929 . S
H1191 C1201 0.929 . S
H1192 C1196 0.929 . S
H1193 C1202 0.929 . S
C1194 H1188 0.930 . S
C1194 C1195 1.367 . S
C1194 C1202 1.378 . S
C1195 C1194 1.367 . S
C1195 C1203 1.433 . S
C1196 H1192 0.929 . S
C1196 C1198 1.378 . S
C1196 C1200 1.350 . S
C1197 C1200 1.463 . S
C1197 C1202 1.350 . S
C1197 N1205 1.427 . S
C1198 H1189 0.930 . S
C1198 C1196 1.378 . S
C1198 C1199 1.367 . S
C1199 C1198 1.367 . S
C1199 C1201 1.433 . S
C1200 C1196 1.350 . S
C1200 C1197 1.463 . S
C1200 N1204 1.427 . S
C1201 H1191 0.929 . S
C1201 C1199 1.433 . S
C1201 N1204 1.384 . S
C1202 H1193 0.929 . S
C1202 C1194 1.378 . S
C1202 C1197 1.350 . S
C1203 H1190 0.929 . S
C1203 C1195 1.433 . S
C1203 N1205 1.384 . S
N1204 C1200 1.427 . S
N1204 C1201 1.384 . S
N1205 C1197 1.427 . S
N1205 C1203 1.384 . S
H1206 C1212 0.930 . S
H1207 C1216 0.930 . S
H1208 C1221 0.929 . S
H1209 C1219 0.929 . S
H1210 C1214 0.929 . S
H1211 C1220 0.929 . S
C1212 H1206 0.930 . S
C1212 C1213 1.367 . S
C1212 C1220 1.378 . S
C1213 C1212 1.367 . S
C1213 C1221 1.433 . S
C1214 H1210 0.929 . S
C1214 C1216 1.378 . S
C1214 C1218 1.350 1_655 S
C1215 C1218 1.463 . S
C1215 C1220 1.350 . S
C1215 N1223 1.427 . S
C1216 H1207 0.930 . S
C1216 C1214 1.378 . S
C1216 C1217 1.367 . S
C1217 C1216 1.367 . S
C1217 C1219 1.433 . S
C1218 C1214 1.350 1_455 S
C1218 C1215 1.463 . S
C1218 N1222 1.427 . S
C1219 H1209 0.929 . S
C1219 C1217 1.433 . S
C1219 N1222 1.384 1_655 S
C1220 H1211 0.929 . S
C1220 C1212 1.378 . S
C1220 C1215 1.350 . S
C1221 H1208 0.929 . S
C1221 C1213 1.433 . S
C1221 N1223 1.384 . S
N1222 C1218 1.427 . S
N1222 C1219 1.384 1_455 S
N1223 C1215 1.427 . S
N1223 C1221 1.384 . S
H1224 C1230 0.930 . S
H1225 C1234 0.930 . S
H1226 C1239 0.929 . S
H1227 C1237 0.929 . S
H1228 C1232 0.929 . S
H1229 C1238 0.929 . S
C1230 H1224 0.930 . S
C1230 C1231 1.367 . S
C1230 C1238 1.378 . S
C1231 C1230 1.367 . S
C1231 C1239 1.433 . S
C1232 H1228 0.929 . S
C1232 C1234 1.378 . S
C1232 C1236 1.350 . S
C1233 C1236 1.463 . S
C1233 C1238 1.350 . S
C1233 N1241 1.427 . S
C1234 H1225 0.930 . S
C1234 C1232 1.378 . S
C1234 C1235 1.367 . S
C1235 C1234 1.367 . S
C1235 C1237 1.433 . S
C1236 C1232 1.350 . S
C1236 C1233 1.463 . S
C1236 N1240 1.427 . S
C1237 H1227 0.929 . S
C1237 C1235 1.433 . S
C1237 N1240 1.384 . S
C1238 H1229 0.929 . S
C1238 C1230 1.378 . S
C1238 C1233 1.350 . S
C1239 H1226 0.929 . S
C1239 C1231 1.433 . S
C1239 N1241 1.384 . S
N1240 C1236 1.427 . S
N1240 C1237 1.384 . S
N1241 C1233 1.427 . S
N1241 C1239 1.384 . S
H1242 C1248 0.930 . S
H1243 C1252 0.930 . S
H1244 C1257 0.929 . S
H1245 C1255 0.929 . S
H1246 C1250 0.929 . S
H1247 C1256 0.929 . S
C1248 H1242 0.930 . S
C1248 C1249 1.367 . S
C1248 C1256 1.378 . S
C1249 C1248 1.367 . S
C1249 C1257 1.433 . S
C1250 H1246 0.929 . S
C1250 C1252 1.378 . S
C1250 C1254 1.350 1_545 S
C1251 C1254 1.463 . S
C1251 C1256 1.350 . S
C1251 N1259 1.427 . S
C1252 H1243 0.930 . S
C1252 C1250 1.378 . S
C1252 C1253 1.367 . S
C1253 C1252 1.367 . S
C1253 C1255 1.433 . S
C1254 C1250 1.350 1_565 S
C1254 C1251 1.463 . S
C1254 N1258 1.427 . S
C1255 H1245 0.929 . S
C1255 C1253 1.433 . S
C1255 N1258 1.384 1_545 S
C1256 H1247 0.929 . S
C1256 C1248 1.378 . S
C1256 C1251 1.350 . S
C1257 H1244 0.929 . S
C1257 C1249 1.433 . S
C1257 N1259 1.384 . S
N1258 C1254 1.427 . S
N1258 C1255 1.384 1_565 S
N1259 C1251 1.427 . S
N1259 C1257 1.384 . S
H1260 C1266 0.930 . S
H1261 C1270 0.930 . S
H1262 C1275 0.929 . S
H1263 C1273 0.929 . S
H1264 C1268 0.929 . S
H1265 C1274 0.929 . S
C1266 H1260 0.930 . S
C1266 C1267 1.367 . S
C1266 C1274 1.378 . S
C1267 C1266 1.367 . S
C1267 C1275 1.433 . S
C1268 H1264 0.929 . S
C1268 C1270 1.378 . S
C1268 C1272 1.350 . S
C1269 C1272 1.463 . S
C1269 C1274 1.350 . S
C1269 N1277 1.427 . S
C1270 H1261 0.930 . S
C1270 C1268 1.378 . S
C1270 C1271 1.367 . S
C1271 C1270 1.367 . S
C1271 C1273 1.433 . S
C1272 C1268 1.350 . S
C1272 C1269 1.463 . S
C1272 N1276 1.427 . S
C1273 H1263 0.929 . S
C1273 C1271 1.433 . S
C1273 N1276 1.384 . S
C1274 H1265 0.929 . S
C1274 C1266 1.378 . S
C1274 C1269 1.350 . S
C1275 H1262 0.929 . S
C1275 C1267 1.433 . S
C1275 N1277 1.384 . S
N1276 C1272 1.427 . S
N1276 C1273 1.384 . S
N1277 C1269 1.427 . S
N1277 C1275 1.384 . S
H1278 C1284 0.930 . S
H1279 C1288 0.930 . S
H1280 C1293 0.929 . S
H1281 C1291 0.929 . S
H1282 C1286 0.929 . S
H1283 C1292 0.929 . S
C1284 H1278 0.930 . S
C1284 C1285 1.367 . S
C1284 C1292 1.378 . S
C1285 C1284 1.367 . S
C1285 C1293 1.433 . S
C1286 H1282 0.929 . S
C1286 C1288 1.378 . S
C1286 C1290 1.350 . S
C1287 C1290 1.463 1_545 S
C1287 C1292 1.350 . S
C1287 N1295 1.427 . S
C1288 H1279 0.930 . S
C1288 C1286 1.378 . S
C1288 C1289 1.367 . S
C1289 C1288 1.367 . S
C1289 C1291 1.433 . S
C1290 C1286 1.350 . S
C1290 C1287 1.463 1_565 S
C1290 N1294 1.427 . S
C1291 H1281 0.929 . S
C1291 C1289 1.433 . S
C1291 N1294 1.384 . S
C1292 H1283 0.929 . S
C1292 C1284 1.378 . S
C1292 C1287 1.350 . S
C1293 H1280 0.929 . S
C1293 C1285 1.433 . S
C1293 N1295 1.384 . S
N1294 C1290 1.427 . S
N1294 C1291 1.384 . S
N1295 C1287 1.427 . S
N1295 C1293 1.384 . S
H1296 C1302 0.930 . S
H1297 C1306 0.930 . S
H1298 C1311 0.929 . S
H1299 C1309 0.929 . S
H1300 C1304 0.929 . S
H1301 C1310 0.929 . S
C1302 H1296 0.930 . S
C1302 C1303 1.367 . S
C1302 C1310 1.378 . S
C1303 C1302 1.367 . S
C1303 C1311 1.433 . S
C1304 H1300 0.929 . S
C1304 C1306 1.378 . S
C1304 C1308 1.350 . S
C1305 C1308 1.463 1_655 S
C1305 C1310 1.350 . S
C1305 N1313 1.427 . S
C1306 H1297 0.930 . S
C1306 C1304 1.378 . S
C1306 C1307 1.367 . S
C1307 C1306 1.367 . S
C1307 C1309 1.433 . S
C1308 C1304 1.350 . S
C1308 C1305 1.463 1_455 S
C1308 N1312 1.427 . S
C1309 H1299 0.929 . S
C1309 C1307 1.433 . S
C1309 N1312 1.384 . S
C1310 H1301 0.929 . S
C1310 C1302 1.378 . S
C1310 C1305 1.350 . S
C1311 H1298 0.929 . S
C1311 C1303 1.433 . S
C1311 N1313 1.384 . S
N1312 C1308 1.427 . S
N1312 C1309 1.384 . S
N1313 C1305 1.427 . S
N1313 C1311 1.384 . S
H1314 C1320 0.930 . S
H1315 C1324 0.930 . S
H1316 C1329 0.929 . S
H1317 C1327 0.929 . S
H1318 C1322 0.929 . S
H1319 C1328 0.929 . S
C1320 H1314 0.930 . S
C1320 C1321 1.367 . S
C1320 C1328 1.378 . S
C1321 C1320 1.367 . S
C1321 C1329 1.433 . S
C1322 H1318 0.929 . S
C1322 C1324 1.378 . S
C1322 C1326 1.350 . S
C1323 C1326 1.463 . S
C1323 C1328 1.350 . S
C1323 N1331 1.427 . S
C1324 H1315 0.930 . S
C1324 C1322 1.378 . S
C1324 C1325 1.367 . S
C1325 C1324 1.367 . S
C1325 C1327 1.433 . S
C1326 C1322 1.350 . S
C1326 C1323 1.463 . S
C1326 N1330 1.427 . S
C1327 H1317 0.929 . S
C1327 C1325 1.433 . S
C1327 N1330 1.384 . S
C1328 H1319 0.929 . S
C1328 C1320 1.378 . S
C1328 C1323 1.350 . S
C1329 H1316 0.929 . S
C1329 C1321 1.433 . S
C1329 N1331 1.384 . S
N1330 C1326 1.427 . S
N1330 C1327 1.384 . S
N1331 C1323 1.427 . S
N1331 C1329 1.384 . S
H1332 C1338 0.930 . S
H1333 C1342 0.930 . S
H1334 C1347 0.929 . S
H1335 C1345 0.929 . S
H1336 C1340 0.929 . S
H1337 C1346 0.929 . S
C1338 H1332 0.930 . S
C1338 C1339 1.367 . S
C1338 C1346 1.378 . S
C1339 C1338 1.367 . S
C1339 C1347 1.433 . S
C1340 H1336 0.929 . S
C1340 C1342 1.378 . S
C1340 C1344 1.350 . S
C1341 C1344 1.463 1_545 S
C1341 C1346 1.350 . S
C1341 N1349 1.427 . S
C1342 H1333 0.930 . S
C1342 C1340 1.378 . S
C1342 C1343 1.367 . S
C1343 C1342 1.367 . S
C1343 C1345 1.433 . S
C1344 C1340 1.350 . S
C1344 C1341 1.463 1_565 S
C1344 N1348 1.427 . S
C1345 H1335 0.929 . S
C1345 C1343 1.433 . S
C1345 N1348 1.384 . S
C1346 H1337 0.929 . S
C1346 C1338 1.378 . S
C1346 C1341 1.350 . S
C1347 H1334 0.929 . S
C1347 C1339 1.433 . S
C1347 N1349 1.384 . S
N1348 C1344 1.427 . S
N1348 C1345 1.384 . S
N1349 C1341 1.427 . S
N1349 C1347 1.384 . S
H1350 C1356 0.930 . S
H1351 C1360 0.930 . S
H1352 C1365 0.929 . S
H1353 C1363 0.929 . S
H1354 C1358 0.929 . S
H1355 C1364 0.929 . S
C1356 H1350 0.930 . S
C1356 C1357 1.367 . S
C1356 C1364 1.378 . S
C1357 C1356 1.367 . S
C1357 C1365 1.433 . S
C1358 H1354 0.929 . S
C1358 C1360 1.378 . S
C1358 C1362 1.350 . S
C1359 C1362 1.463 1_655 S
C1359 C1364 1.350 . S
C1359 N1367 1.427 . S
C1360 H1351 0.930 . S
C1360 C1358 1.378 . S
C1360 C1361 1.367 . S
C1361 C1360 1.367 . S
C1361 C1363 1.433 . S
C1362 C1358 1.350 . S
C1362 C1359 1.463 1_455 S
C1362 N1366 1.427 . S
C1363 H1353 0.929 . S
C1363 C1361 1.433 . S
C1363 N1366 1.384 . S
C1364 H1355 0.929 . S
C1364 C1356 1.378 . S
C1364 C1359 1.350 . S
C1365 H1352 0.929 . S
C1365 C1357 1.433 . S
C1365 N1367 1.384 . S
N1366 C1362 1.427 . S
N1366 C1363 1.384 . S
N1367 C1359 1.427 . S
N1367 C1365 1.384 . S
H1368 C1374 0.930 . S
H1369 C1378 0.930 . S
H1370 C1383 0.929 . S
H1371 C1381 0.929 . S
H1372 C1376 0.929 . S
H1373 C1382 0.929 . S
C1374 H1368 0.930 . S
C1374 C1375 1.367 . S
C1374 C1382 1.378 . S
C1375 C1374 1.367 . S
C1375 C1383 1.433 . S
C1376 H1372 0.929 . S
C1376 C1378 1.378 . S
C1376 C1380 1.350 . S
C1377 C1380 1.463 . S
C1377 C1382 1.350 . S
C1377 N1385 1.427 . S
C1378 H1369 0.930 . S
C1378 C1376 1.378 . S
C1378 C1379 1.367 . S
C1379 C1378 1.367 . S
C1379 C1381 1.433 . S
C1380 C1376 1.350 . S
C1380 C1377 1.463 . S
C1380 N1384 1.427 . S
C1381 H1371 0.929 . S
C1381 C1379 1.433 . S
C1381 N1384 1.384 . S
C1382 H1373 0.929 . S
C1382 C1374 1.378 . S
C1382 C1377 1.350 . S
C1383 H1370 0.929 . S
C1383 C1375 1.433 . S
C1383 N1385 1.384 . S
N1384 C1380 1.427 . S
N1384 C1381 1.384 . S
N1385 C1377 1.427 . S
N1385 C1383 1.384 . S
H1386 C1392 0.930 . S
H1387 C1396 0.930 . S
H1388 C1401 0.929 . S
H1389 C1399 0.929 . S
H1390 C1394 0.929 . S
H1391 C1400 0.929 . S
C1392 H1386 0.930 . S
C1392 C1393 1.367 . S
C1392 C1400 1.378 . S
C1393 C1392 1.367 . S
C1393 C1401 1.433 . S
C1394 H1390 0.929 . S
C1394 C1396 1.378 . S
C1394 C1398 1.350 . S
C1395 C1398 1.463 . S
C1395 C1400 1.350 . S
C1395 N1403 1.427 . S
C1396 H1387 0.930 . S
C1396 C1394 1.378 . S
C1396 C1397 1.367 . S
C1397 C1396 1.367 . S
C1397 C1399 1.433 . S
C1398 C1394 1.350 . S
C1398 C1395 1.463 . S
C1398 N1402 1.427 . S
C1399 H1389 0.929 . S
C1399 C1397 1.433 . S
C1399 N1402 1.384 . S
C1400 H1391 0.929 . S
C1400 C1392 1.378 . S
C1400 C1395 1.350 . S
C1401 H1388 0.929 . S
C1401 C1393 1.433 . S
C1401 N1403 1.384 . S
N1402 C1398 1.427 . S
N1402 C1399 1.384 . S
N1403 C1395 1.427 . S
N1403 C1401 1.384 . S
H1404 C1410 0.930 . S
H1405 C1414 0.930 . S
H1406 C1419 0.929 . S
H1407 C1417 0.929 . S
H1408 C1412 0.929 . S
H1409 C1418 0.929 . S
C1410 H1404 0.930 . S
C1410 C1411 1.367 . S
C1410 C1418 1.378 . S
C1411 C1410 1.367 . S
C1411 C1419 1.433 . S
C1412 H1408 0.929 . S
C1412 C1414 1.378 . S
C1412 C1416 1.350 . S
C1413 C1416 1.463 . S
C1413 C1418 1.350 . S
C1413 N1421 1.427 . S
C1414 H1405 0.930 . S
C1414 C1412 1.378 . S
C1414 C1415 1.367 . S
C1415 C1414 1.367 . S
C1415 C1417 1.433 . S
C1416 C1412 1.350 . S
C1416 C1413 1.463 . S
C1416 N1420 1.427 . S
C1417 H1407 0.929 . S
C1417 C1415 1.433 . S
C1417 N1420 1.384 . S
C1418 H1409 0.929 . S
C1418 C1410 1.378 . S
C1418 C1413 1.350 . S
C1419 H1406 0.929 . S
C1419 C1411 1.433 . S
C1419 N1421 1.384 . S
N1420 C1416 1.427 . S
N1420 C1417 1.384 . S
N1421 C1413 1.427 . S
N1421 C1419 1.384 . S
H1422 C1428 0.930 . S
H1423 C1432 0.930 . S
H1424 C1437 0.929 . S
H1425 C1435 0.929 . S
H1426 C1430 0.929 . S
H1427 C1436 0.929 . S
C1428 H1422 0.930 . S
C1428 C1429 1.367 . S
C1428 C1436 1.378 . S
C1429 C1428 1.367 . S
C1429 C1437 1.433 . S
C1430 H1426 0.929 . S
C1430 C1432 1.378 . S
C1430 C1434 1.350 . S
C1431 C1434 1.463 . S
C1431 C1436 1.350 . S
C1431 N1439 1.427 . S
C1432 H1423 0.930 . S
C1432 C1430 1.378 . S
C1432 C1433 1.367 . S
C1433 C1432 1.367 . S
C1433 C1435 1.433 . S
C1434 C1430 1.350 . S
C1434 C1431 1.463 . S
C1434 N1438 1.427 . S
C1435 H1425 0.929 . S
C1435 C1433 1.433 . S
C1435 N1438 1.384 . S
C1436 H1427 0.929 . S
C1436 C1428 1.378 . S
C1436 C1431 1.350 . S
C1437 H1424 0.929 . S
C1437 C1429 1.433 . S
C1437 N1439 1.384 . S
N1438 C1434 1.427 . S
N1438 C1435 1.384 . S
N1439 C1431 1.427 . S
N1439 C1437 1.384 . S
H1440 C1446 0.930 . S
H1441 C1450 0.930 . S
H1442 C1455 0.929 . S
H1443 C1453 0.929 . S
H1444 C1448 0.929 . S
H1445 C1454 0.929 . S
C1446 H1440 0.930 . S
C1446 C1447 1.367 . S
C1446 C1454 1.378 . S
C1447 C1446 1.367 . S
C1447 C1455 1.433 . S
C1448 H1444 0.929 . S
C1448 C1450 1.378 . S
C1448 C1452 1.350 . S
C1449 C1452 1.463 . S
C1449 C1454 1.350 . S
C1449 N1457 1.427 . S
C1450 H1441 0.930 . S
C1450 C1448 1.378 . S
C1450 C1451 1.367 . S
C1451 C1450 1.367 . S
C1451 C1453 1.433 . S
C1452 C1448 1.350 . S
C1452 C1449 1.463 . S
C1452 N1456 1.427 . S
C1453 H1443 0.929 . S
C1453 C1451 1.433 . S
C1453 N1456 1.384 . S
C1454 H1445 0.929 . S
C1454 C1446 1.378 . S
C1454 C1449 1.350 . S
C1455 H1442 0.929 . S
C1455 C1447 1.433 . S
C1455 N1457 1.384 . S
N1456 C1452 1.427 . S
N1456 C1453 1.384 . S
N1457 C1449 1.427 . S
N1457 C1455 1.384 . S
H1458 C1464 0.930 . S
H1459 C1468 0.930 . S
H1460 C1473 0.929 . S
H1461 C1471 0.929 . S
H1462 C1466 0.929 . S
H1463 C1472 0.929 . S
C1464 H1458 0.930 . S
C1464 C1465 1.367 . S
C1464 C1472 1.378 . S
C1465 C1464 1.367 . S
C1465 C1473 1.433 . S
C1466 H1462 0.929 . S
C1466 C1468 1.378 . S
C1466 C1470 1.350 . S
C1467 C1470 1.463 . S
C1467 C1472 1.350 . S
C1467 N1475 1.427 . S
C1468 H1459 0.930 . S
C1468 C1466 1.378 . S
C1468 C1469 1.367 . S
C1469 C1468 1.367 . S
C1469 C1471 1.433 . S
C1470 C1466 1.350 . S
C1470 C1467 1.463 . S
C1470 N1474 1.427 . S
C1471 H1461 0.929 . S
C1471 C1469 1.433 . S
C1471 N1474 1.384 . S
C1472 H1463 0.929 . S
C1472 C1464 1.378 . S
C1472 C1467 1.350 . S
C1473 H1460 0.929 . S
C1473 C1465 1.433 . S
C1473 N1475 1.384 . S
N1474 C1470 1.427 . S
N1474 C1471 1.384 . S
N1475 C1467 1.427 . S
N1475 C1473 1.384 . S
H1476 C1482 0.930 . S
H1477 C1486 0.930 . S
H1478 C1491 0.929 . S
H1479 C1489 0.929 . S
H1480 C1484 0.929 . S
H1481 C1490 0.929 . S
C1482 H1476 0.930 . S
C1482 C1483 1.367 . S
C1482 C1490 1.378 . S
C1483 C1482 1.367 . S
C1483 C1491 1.433 . S
C1484 H1480 0.929 . S
C1484 C1486 1.378 . S
C1484 C1488 1.350 . S
C1485 C1488 1.463 . S
C1485 C1490 1.350 . S
C1485 N1493 1.427 . S
C1486 H1477 0.930 . S
C1486 C1484 1.378 . S
C1486 C1487 1.367 . S
C1487 C1486 1.367 . S
C1487 C1489 1.433 . S
C1488 C1484 1.350 . S
C1488 C1485 1.463 . S
C1488 N1492 1.427 . S
C1489 H1479 0.929 . S
C1489 C1487 1.433 . S
C1489 N1492 1.384 . S
C1490 H1481 0.929 . S
C1490 C1482 1.378 . S
C1490 C1485 1.350 . S
C1491 H1478 0.929 . S
C1491 C1483 1.433 . S
C1491 N1493 1.384 . S
N1492 C1488 1.427 . S
N1492 C1489 1.384 . S
N1493 C1485 1.427 . S
N1493 C1491 1.384 . S
H1494 C1500 0.930 . S
H1495 C1504 0.930 . S
H1496 C1509 0.929 . S
H1497 C1507 0.929 . S
H1498 C1502 0.929 . S
H1499 C1508 0.929 . S
C1500 H1494 0.930 . S
C1500 C1501 1.367 . S
C1500 C1508 1.378 . S
C1501 C1500 1.367 . S
C1501 C1509 1.433 . S
C1502 H1498 0.929 . S
C1502 C1504 1.378 . S
C1502 C1506 1.350 . S
C1503 C1506 1.463 . S
C1503 C1508 1.350 . S
C1503 N1511 1.427 . S
C1504 H1495 0.930 . S
C1504 C1502 1.378 . S
C1504 C1505 1.367 . S
C1505 C1504 1.367 . S
C1505 C1507 1.433 . S
C1506 C1502 1.350 . S
C1506 C1503 1.463 . S
C1506 N1510 1.427 . S
C1507 H1497 0.929 . S
C1507 C1505 1.433 . S
C1507 N1510 1.384 . S
C1508 H1499 0.929 . S
C1508 C1500 1.378 . S
C1508 C1503 1.350 . S
C1509 H1496 0.929 . S
C1509 C1501 1.433 . S
C1509 N1511 1.384 . S
N1510 C1506 1.427 . S
N1510 C1507 1.384 . S
N1511 C1503 1.427 . S
N1511 C1509 1.384 . S
H1512 C1518 0.930 . S
H1513 C1522 0.930 . S
H1514 C1527 0.929 . S
H1515 C1525 0.929 . S
H1516 C1520 0.929 . S
H1517 C1526 0.929 . S
C1518 H1512 0.930 . S
C1518 C1519 1.367 . S
C1518 C1526 1.378 . S
C1519 C1518 1.367 . S
C1519 C1527 1.433 . S
C1520 H1516 0.929 . S
C1520 C1522 1.378 . S
C1520 C1524 1.350 . S
C1521 C1524 1.463 . S
C1521 C1526 1.350 . S
C1521 N1529 1.427 . S
C1522 H1513 0.930 . S
C1522 C1520 1.378 . S
C1522 C1523 1.367 . S
C1523 C1522 1.367 . S
C1523 C1525 1.433 . S
C1524 C1520 1.350 . S
C1524 C1521 1.463 . S
C1524 N1528 1.427 . S
C1525 H1515 0.929 . S
C1525 C1523 1.433 . S
C1525 N1528 1.384 . S
C1526 H1517 0.929 . S
C1526 C1518 1.378 . S
C1526 C1521 1.350 . S
C1527 H1514 0.929 . S
C1527 C1519 1.433 . S
C1527 N1529 1.384 . S
N1528 C1524 1.427 . S
N1528 C1525 1.384 . S
N1529 C1521 1.427 . S
N1529 C1527 1.384 . S
H1530 C1536 0.930 . S
H1531 C1540 0.930 . S
H1532 C1545 0.929 . S
H1533 C1543 0.929 . S
H1534 C1538 0.929 . S
H1535 C1544 0.929 1_554 S
C1536 H1530 0.930 . S
C1536 C1537 1.367 . S
C1536 C1544 1.378 . S
C1537 C1536 1.367 . S
C1537 C1545 1.433 . S
C1538 H1534 0.929 . S
C1538 C1540 1.378 . S
C1538 C1542 1.350 . S
C1539 C1542 1.463 . S
C1539 C1544 1.350 . S
C1539 N1547 1.427 . S
C1540 H1531 0.930 . S
C1540 C1538 1.378 . S
C1540 C1541 1.367 . S
C1541 C1540 1.367 . S
C1541 C1543 1.433 1_556 S
C1542 C1538 1.350 . S
C1542 C1539 1.463 . S
C1542 N1546 1.427 1_556 S
C1543 H1533 0.929 . S
C1543 C1541 1.433 1_554 S
C1543 N1546 1.384 . S
C1544 H1535 0.929 1_556 S
C1544 C1536 1.378 . S
C1544 C1539 1.350 . S
C1545 H1532 0.929 . S
C1545 C1537 1.433 . S
C1545 N1547 1.384 . S
N1546 C1542 1.427 1_554 S
N1546 C1543 1.384 . S
N1547 C1539 1.427 . S
N1547 C1545 1.384 . S
H1548 C1554 0.930 . S
H1549 C1558 0.930 . S
H1550 C1563 0.929 . S
H1551 C1561 0.929 . S
H1552 C1556 0.929 . S
H1553 C1562 0.929 . S
C1554 H1548 0.930 . S
C1554 C1555 1.382 . S
C1554 C1562 1.378 . S
C1555 C1554 1.382 . S
C1555 C1563 1.420 1_556 S
C1556 H1552 0.929 . S
C1556 C1558 1.378 . S
C1556 C1560 1.350 1_554 S
C1557 C1560 1.463 . S
C1557 C1562 1.350 . S
C1557 N1565 1.427 1_556 S
C1558 H1549 0.930 . S
C1558 C1556 1.378 . S
C1558 C1559 1.367 1_554 S
C1559 C1558 1.367 1_556 S
C1559 C1561 1.433 . S
C1560 C1556 1.350 1_556 S
C1560 C1557 1.463 . S
C1560 N1564 1.427 . S
C1561 H1551 0.929 . S
C1561 C1559 1.433 . S
C1561 N1564 1.384 . S
C1562 H1553 0.929 . S
C1562 C1554 1.378 . S
C1562 C1557 1.350 . S
C1563 H1550 0.929 . S
C1563 C1555 1.420 1_554 S
C1563 N1565 1.384 . S
N1564 C1560 1.427 . S
N1564 C1561 1.384 . S
N1565 C1557 1.427 1_554 S
N1565 C1563 1.384 . S
H1566 C1572 0.930 . S
H1567 C1576 0.930 . S
H1568 C1581 0.929 . S
H1569 C1579 0.929 . S
H1570 C1574 0.929 . S
H1571 C1580 0.929 . S
C1572 H1566 0.930 . S
C1572 C1573 1.367 1_554 S
C1572 C1580 1.378 . S
C1573 C1572 1.367 1_556 S
C1573 C1581 1.433 . S
C1574 H1570 0.929 . S
C1574 C1576 1.378 . S
C1574 C1578 1.350 . S
C1575 C1578 1.463 . S
C1575 C1580 1.350 1_556 S
C1575 N1583 1.427 . S
C1576 H1567 0.930 . S
C1576 C1574 1.378 . S
C1576 C1577 1.382 . S
C1577 C1576 1.382 . S
C1577 C1579 1.421 1_556 S
C1578 C1574 1.350 . S
C1578 C1575 1.463 . S
C1578 N1582 1.427 1_556 S
C1579 H1569 0.929 . S
C1579 C1577 1.421 1_554 S
C1579 N1582 1.384 . S
C1580 H1571 0.929 . S
C1580 C1572 1.378 . S
C1580 C1575 1.350 1_554 S
C1581 H1568 0.929 . S
C1581 C1573 1.433 . S
C1581 N1583 1.384 . S
N1582 C1578 1.427 1_554 S
N1582 C1579 1.384 . S
N1583 C1575 1.427 . S
N1583 C1581 1.384 . S
H1584 C1590 0.930 . S
H1585 C1594 0.930 . S
H1586 C1599 0.929 . S
H1587 C1597 0.929 . S
H1588 C1592 0.929 . S
H1589 C1598 0.929 . S
C1590 H1584 0.930 . S
C1590 C1591 1.367 . S
C1590 C1598 1.378 . S
C1591 C1590 1.367 . S
C1591 C1599 1.433 . S
C1592 H1588 0.929 . S
C1592 C1594 1.378 . S
C1592 C1596 1.350 . S
C1593 C1596 1.463 . S
C1593 C1598 1.350 . S
C1593 N1601 1.427 . S
C1594 H1585 0.930 . S
C1594 C1592 1.378 . S
C1594 C1595 1.367 . S
C1595 C1594 1.367 . S
C1595 C1597 1.433 . S
C1596 C1592 1.350 . S
C1596 C1593 1.463 . S
C1596 N1600 1.427 . S
C1597 H1587 0.929 . S
C1597 C1595 1.433 . S
C1597 N1600 1.384 . S
C1598 H1589 0.929 . S
C1598 C1590 1.378 . S
C1598 C1593 1.350 . S
C1599 H1586 0.929 . S
C1599 C1591 1.433 . S
C1599 N1601 1.384 . S
N1600 C1596 1.427 . S
N1600 C1597 1.384 . S
N1601 C1593 1.427 . S
N1601 C1599 1.384 . S
H1602 C1608 0.930 . S
H1603 C1612 0.930 . S
H1604 C1617 0.929 . S
H1605 C1615 0.929 . S
H1606 C1610 0.929 . S
H1607 C1616 0.929 . S
C1608 H1602 0.930 . S
C1608 C1609 1.367 . S
C1608 C1616 1.378 . S
C1609 C1608 1.367 . S
C1609 C1617 1.433 . S
C1610 H1606 0.929 . S
C1610 C1612 1.378 . S
C1610 C1614 1.350 . S
C1611 C1614 1.463 . S
C1611 C1616 1.350 . S
C1611 N1619 1.427 . S
C1612 H1603 0.930 . S
C1612 C1610 1.378 . S
C1612 C1613 1.367 . S
C1613 C1612 1.367 . S
C1613 C1615 1.433 . S
C1614 C1610 1.350 . S
C1614 C1611 1.463 . S
C1614 N1618 1.427 . S
C1615 H1605 0.929 . S
C1615 C1613 1.433 . S
C1615 N1618 1.384 . S
C1616 H1607 0.929 . S
C1616 C1608 1.378 . S
C1616 C1611 1.350 . S
C1617 H1604 0.929 . S
C1617 C1609 1.433 . S
C1617 N1619 1.384 . S
N1618 C1614 1.427 . S
N1618 C1615 1.384 . S
N1619 C1611 1.427 . S
N1619 C1617 1.384 . S
H1620 C1626 0.930 . S
H1621 C1630 0.930 . S
H1622 C1635 0.929 . S
H1623 C1633 0.929 . S
H1624 C1628 0.929 . S
H1625 C1634 0.929 . S
C1626 H1620 0.930 . S
C1626 C1627 1.367 . S
C1626 C1634 1.378 . S
C1627 C1626 1.367 . S
C1627 C1635 1.433 . S
C1628 H1624 0.929 . S
C1628 C1630 1.378 . S
C1628 C1632 1.350 . S
C1629 C1632 1.463 . S
C1629 C1634 1.350 . S
C1629 N1637 1.427 . S
C1630 H1621 0.930 . S
C1630 C1628 1.378 . S
C1630 C1631 1.367 . S
C1631 C1630 1.367 . S
C1631 C1633 1.433 . S
C1632 C1628 1.350 . S
C1632 C1629 1.463 . S
C1632 N1636 1.427 . S
C1633 H1623 0.929 . S
C1633 C1631 1.433 . S
C1633 N1636 1.384 . S
C1634 H1625 0.929 . S
C1634 C1626 1.378 . S
C1634 C1629 1.350 . S
C1635 H1622 0.929 . S
C1635 C1627 1.433 . S
C1635 N1637 1.384 . S
N1636 C1632 1.427 . S
N1636 C1633 1.384 . S
N1637 C1629 1.427 . S
N1637 C1635 1.384 . S
H1638 C1644 0.930 . S
H1639 C1648 0.930 . S
H1640 C1653 0.929 . S
H1641 C1651 0.929 . S
H1642 C1646 0.929 . S
H1643 C1652 0.929 . S
C1644 H1638 0.930 . S
C1644 C1645 1.367 . S
C1644 C1652 1.378 . S
C1645 C1644 1.367 . S
C1645 C1653 1.433 1_554 S
C1646 H1642 0.929 . S
C1646 C1648 1.378 . S
C1646 C1650 1.350 1_556 S
C1647 C1650 1.463 . S
C1647 C1652 1.350 . S
C1647 N1655 1.427 1_554 S
C1648 H1639 0.930 . S
C1648 C1646 1.378 . S
C1648 C1649 1.367 1_556 S
C1649 C1648 1.367 1_554 S
C1649 C1651 1.433 . S
C1650 C1646 1.350 1_554 S
C1650 C1647 1.463 . S
C1650 N1654 1.427 . S
C1651 H1641 0.929 . S
C1651 C1649 1.433 . S
C1651 N1654 1.384 . S
C1652 H1643 0.929 . S
C1652 C1644 1.378 . S
C1652 C1647 1.350 . S
C1653 H1640 0.929 . S
C1653 C1645 1.433 1_556 S
C1653 N1655 1.384 . S
N1654 C1650 1.427 . S
N1654 C1651 1.384 . S
N1655 C1647 1.427 1_556 S
N1655 C1653 1.384 . S
H1656 C1662 0.930 . S
H1657 C1666 0.930 . S
H1658 C1671 0.929 . S
H1659 C1669 0.929 . S
H1660 C1664 0.929 . S
H1661 C1670 0.929 . S
C1662 H1656 0.930 . S
C1662 C1663 1.367 . S
C1662 C1670 1.378 . S
C1663 C1662 1.367 . S
C1663 C1671 1.433 1_554 S
C1664 H1660 0.929 . S
C1664 C1666 1.378 . S
C1664 C1668 1.350 1_556 S
C1665 C1668 1.463 . S
C1665 C1670 1.350 . S
C1665 N1673 1.427 1_554 S
C1666 H1657 0.930 . S
C1666 C1664 1.378 . S
C1666 C1667 1.367 1_556 S
C1667 C1666 1.367 1_554 S
C1667 C1669 1.433 . S
C1668 C1664 1.350 1_554 S
C1668 C1665 1.463 . S
C1668 N1672 1.427 . S
C1669 H1659 0.929 . S
C1669 C1667 1.433 . S
C1669 N1672 1.384 . S
C1670 H1661 0.929 . S
C1670 C1662 1.378 . S
C1670 C1665 1.350 . S
C1671 H1658 0.929 . S
C1671 C1663 1.433 1_556 S
C1671 N1673 1.384 . S
N1672 C1668 1.427 . S
N1672 C1669 1.384 . S
N1673 C1665 1.427 1_556 S
N1673 C1671 1.384 . S
H1674 C1680 0.930 . S
H1675 C1684 0.930 . S
H1676 C1689 0.929 . S
H1677 C1687 0.929 . S
H1678 C1682 0.929 . S
H1679 C1688 0.929 . S
C1680 H1674 0.930 . S
C1680 C1681 1.367 1_556 S
C1680 C1688 1.378 . S
C1681 C1680 1.367 1_554 S
C1681 C1689 1.433 . S
C1682 H1678 0.929 . S
C1682 C1684 1.378 . S
C1682 C1686 1.350 . S
C1683 C1686 1.463 . S
C1683 C1688 1.350 1_554 S
C1683 N1691 1.427 . S
C1684 H1675 0.930 . S
C1684 C1682 1.378 . S
C1684 C1685 1.367 . S
C1685 C1684 1.367 . S
C1685 C1687 1.433 1_554 S
C1686 C1682 1.350 . S
C1686 C1683 1.463 . S
C1686 N1690 1.427 1_554 S
C1687 H1677 0.929 . S
C1687 C1685 1.433 1_556 S
C1687 N1690 1.384 . S
C1688 H1679 0.929 . S
C1688 C1680 1.378 . S
C1688 C1683 1.350 1_556 S
C1689 H1676 0.929 . S
C1689 C1681 1.433 . S
C1689 N1691 1.384 . S
N1690 C1686 1.427 1_556 S
N1690 C1687 1.384 . S
N1691 C1683 1.427 . S
N1691 C1689 1.384 . S
H1692 C1698 0.930 . S
H1693 C1702 0.930 . S
H1694 C1707 0.929 . S
H1695 C1705 0.929 . S
H1696 C1700 0.929 . S
H1697 C1706 0.929 . S
C1698 H1692 0.930 . S
C1698 C1699 1.367 . S
C1698 C1706 1.378 . S
C1699 C1698 1.367 . S
C1699 C1707 1.433 . S
C1700 H1696 0.929 . S
C1700 C1702 1.378 . S
C1700 C1704 1.350 . S
C1701 C1704 1.463 . S
C1701 C1706 1.350 . S
C1701 N1709 1.427 . S
C1702 H1693 0.930 . S
C1702 C1700 1.378 . S
C1702 C1703 1.367 . S
C1703 C1702 1.367 . S
C1703 C1705 1.433 . S
C1704 C1700 1.350 . S
C1704 C1701 1.463 . S
C1704 N1708 1.427 . S
C1705 H1695 0.929 . S
C1705 C1703 1.433 . S
C1705 N1708 1.384 . S
C1706 H1697 0.929 . S
C1706 C1698 1.378 . S
C1706 C1701 1.350 . S
C1707 H1694 0.929 . S
C1707 C1699 1.433 . S
C1707 N1709 1.384 . S
N1708 C1704 1.427 . S
N1708 C1705 1.384 . S
N1709 C1701 1.427 . S
N1709 C1707 1.384 . S
H1710 C1716 0.930 . S
H1711 C1720 0.930 . S
H1712 C1725 0.929 . S
H1713 C1723 0.929 . S
H1714 C1718 0.929 . S
H1715 C1724 0.929 . S
C1716 H1710 0.930 . S
C1716 C1717 1.367 . S
C1716 C1724 1.378 . S
C1717 C1716 1.367 . S
C1717 C1725 1.433 . S
C1718 H1714 0.929 . S
C1718 C1720 1.378 . S
C1718 C1722 1.350 . S
C1719 C1722 1.463 . S
C1719 C1724 1.350 . S
C1719 N1727 1.427 . S
C1720 H1711 0.930 . S
C1720 C1718 1.378 . S
C1720 C1721 1.367 . S
C1721 C1720 1.367 . S
C1721 C1723 1.433 . S
C1722 C1718 1.350 . S
C1722 C1719 1.463 . S
C1722 N1726 1.427 . S
C1723 H1713 0.929 . S
C1723 C1721 1.433 . S
C1723 N1726 1.384 . S
C1724 H1715 0.929 . S
C1724 C1716 1.378 . S
C1724 C1719 1.350 . S
C1725 H1712 0.929 . S
C1725 C1717 1.433 . S
C1725 N1727 1.384 . S
N1726 C1722 1.427 . S
N1726 C1723 1.384 . S
N1727 C1719 1.427 . S
N1727 C1725 1.384 . S
H1728 C1734 0.930 . S
H1729 C1738 0.930 . S
H1730 C1743 0.929 . S
H1731 C1741 0.929 . S
H1732 C1736 0.929 . S
H1733 C1742 0.929 . S
C1734 H1728 0.930 . S
C1734 C1735 1.367 . S
C1734 C1742 1.378 . S
C1735 C1734 1.367 . S
C1735 C1743 1.433 . S
C1736 H1732 0.929 . S
C1736 C1738 1.378 . S
C1736 C1740 1.350 . S
C1737 C1740 1.463 . S
C1737 C1742 1.350 . S
C1737 N1745 1.427 . S
C1738 H1729 0.930 . S
C1738 C1736 1.378 . S
C1738 C1739 1.367 . S
C1739 C1738 1.367 . S
C1739 C1741 1.433 . S
C1740 C1736 1.350 . S
C1740 C1737 1.463 . S
C1740 N1744 1.427 . S
C1741 H1731 0.929 . S
C1741 C1739 1.433 . S
C1741 N1744 1.384 . S
C1742 H1733 0.929 . S
C1742 C1734 1.378 . S
C1742 C1737 1.350 . S
C1743 H1730 0.929 . S
C1743 C1735 1.433 . S
C1743 N1745 1.384 . S
N1744 C1740 1.427 . S
N1744 C1741 1.384 . S
N1745 C1737 1.427 . S
N1745 C1743 1.384 . S
H1746 C1752 0.930 . S
H1747 C1756 0.930 . S
H1748 C1761 0.929 . S
H1749 C1759 0.929 . S
H1750 C1754 0.929 . S
H1751 C1760 0.929 . S
C1752 H1746 0.930 . S
C1752 C1753 1.367 . S
C1752 C1760 1.378 . S
C1753 C1752 1.367 . S
C1753 C1761 1.433 . S
C1754 H1750 0.929 . S
C1754 C1756 1.378 . S
C1754 C1758 1.350 . S
C1755 C1758 1.463 . S
C1755 C1760 1.350 . S
C1755 N1763 1.427 . S
C1756 H1747 0.930 . S
C1756 C1754 1.378 . S
C1756 C1757 1.367 . S
C1757 C1756 1.367 . S
C1757 C1759 1.433 . S
C1758 C1754 1.350 . S
C1758 C1755 1.463 . S
C1758 N1762 1.427 . S
C1759 H1749 0.929 . S
C1759 C1757 1.433 . S
C1759 N1762 1.384 . S
C1760 H1751 0.929 . S
C1760 C1752 1.378 . S
C1760 C1755 1.350 . S
C1761 H1748 0.929 . S
C1761 C1753 1.433 . S
C1761 N1763 1.384 . S
N1762 C1758 1.427 . S
N1762 C1759 1.384 . S
N1763 C1755 1.427 . S
N1763 C1761 1.384 . S
H1764 C1770 0.930 . S
H1765 C1774 0.930 . S
H1766 C1779 0.929 . S
H1767 C1777 0.929 . S
H1768 C1772 0.929 . S
H1769 C1778 0.929 . S
C1770 H1764 0.930 . S
C1770 C1771 1.367 . S
C1770 C1778 1.378 . S
C1771 C1770 1.367 . S
C1771 C1779 1.433 . S
C1772 H1768 0.929 . S
C1772 C1774 1.378 . S
C1772 C1776 1.350 . S
C1773 C1776 1.463 . S
C1773 C1778 1.350 . S
C1773 N1781 1.427 . S
C1774 H1765 0.930 . S
C1774 C1772 1.378 . S
C1774 C1775 1.367 . S
C1775 C1774 1.367 . S
C1775 C1777 1.433 . S
C1776 C1772 1.350 . S
C1776 C1773 1.463 . S
C1776 N1780 1.427 . S
C1777 H1767 0.929 . S
C1777 C1775 1.433 . S
C1777 N1780 1.384 . S
C1778 H1769 0.929 . S
C1778 C1770 1.378 . S
C1778 C1773 1.350 . S
C1779 H1766 0.929 . S
C1779 C1771 1.433 . S
C1779 N1781 1.384 . S
N1780 C1776 1.427 . S
N1780 C1777 1.384 . S
N1781 C1773 1.427 . S
N1781 C1779 1.384 . S
H1782 C1788 0.930 . S
H1783 C1792 0.930 . S
H1784 C1797 0.929 . S
H1785 C1795 0.929 . S
H1786 C1790 0.929 . S
H1787 C1796 0.929 . S
C1788 H1782 0.930 . S
C1788 C1789 1.367 . S
C1788 C1796 1.378 . S
C1789 C1788 1.367 . S
C1789 C1797 1.433 . S
C1790 H1786 0.929 . S
C1790 C1792 1.378 . S
C1790 C1794 1.350 . S
C1791 C1794 1.463 . S
C1791 C1796 1.350 . S
C1791 N1799 1.427 . S
C1792 H1783 0.930 . S
C1792 C1790 1.378 . S
C1792 C1793 1.367 . S
C1793 C1792 1.367 . S
C1793 C1795 1.433 . S
C1794 C1790 1.350 . S
C1794 C1791 1.463 . S
C1794 N1798 1.427 . S
C1795 H1785 0.929 . S
C1795 C1793 1.433 . S
C1795 N1798 1.384 . S
C1796 H1787 0.929 . S
C1796 C1788 1.378 . S
C1796 C1791 1.350 . S
C1797 H1784 0.929 . S
C1797 C1789 1.433 . S
C1797 N1799 1.384 . S
N1798 C1794 1.427 . S
N1798 C1795 1.384 . S
N1799 C1791 1.427 . S
N1799 C1797 1.384 . S
H1800 C1806 0.930 . S
H1801 C1810 0.930 . S
H1802 C1815 0.929 . S
H1803 C1813 0.929 . S
H1804 C1808 0.929 . S
H1805 C1814 0.929 . S
C1806 H1800 0.930 . S
C1806 C1807 1.367 . S
C1806 C1814 1.378 . S
C1807 C1806 1.367 . S
C1807 C1815 1.433 . S
C1808 H1804 0.929 . S
C1808 C1810 1.378 . S
C1808 C1812 1.350 . S
C1809 C1812 1.463 . S
C1809 C1814 1.350 . S
C1809 N1817 1.427 . S
C1810 H1801 0.930 . S
C1810 C1808 1.378 . S
C1810 C1811 1.367 . S
C1811 C1810 1.367 . S
C1811 C1813 1.433 . S
C1812 C1808 1.350 . S
C1812 C1809 1.463 . S
C1812 N1816 1.427 . S
C1813 H1803 0.929 . S
C1813 C1811 1.433 . S
C1813 N1816 1.384 . S
C1814 H1805 0.929 . S
C1814 C1806 1.378 . S
C1814 C1809 1.350 . S
C1815 H1802 0.929 . S
C1815 C1807 1.433 . S
C1815 N1817 1.384 . S
N1816 C1812 1.427 . S
N1816 C1813 1.384 . S
N1817 C1809 1.427 . S
N1817 C1815 1.384 . S
H1818 C1824 0.930 . S
H1819 C1828 0.930 . S
H1820 C1833 0.929 . S
H1821 C1831 0.929 . S
H1822 C1826 0.929 . S
H1823 C1832 0.940 1_545 S
C1824 H1818 0.930 . S
C1824 C1825 1.367 . S
C1824 C1832 1.345 1_545 S
C1825 C1824 1.367 . S
C1825 C1833 1.433 1_545 S
C1826 H1822 0.929 . S
C1826 C1828 1.378 . S
C1826 C1830 1.350 . S
C1827 C1830 1.463 . S
C1827 C1832 1.372 . S
C1827 N1835 1.427 . S
C1828 H1819 0.930 . S
C1828 C1826 1.378 . S
C1828 C1829 1.367 . S
C1829 C1828 1.367 . S
C1829 C1831 1.433 . S
C1830 C1826 1.350 . S
C1830 C1827 1.463 . S
C1830 N1834 1.427 . S
C1831 H1821 0.929 . S
C1831 C1829 1.433 . S
C1831 N1834 1.384 . S
C1832 H1823 0.940 1_565 S
C1832 C1824 1.345 1_565 S
C1832 C1827 1.372 . S
C1833 H1820 0.929 . S
C1833 C1825 1.433 1_565 S
C1833 N1835 1.384 . S
N1834 C1830 1.427 . S
N1834 C1831 1.384 . S
N1835 C1827 1.427 . S
N1835 C1833 1.384 . S
H1836 C1842 0.930 . S
H1837 C1846 0.930 . S
H1838 C1851 0.929 . S
H1839 C1849 0.929 . S
H1840 C1844 0.929 . S
H1841 C1850 0.929 . S
C1842 H1836 0.930 . S
C1842 C1843 1.367 . S
C1842 C1850 1.378 . S
C1843 C1842 1.367 . S
C1843 C1851 1.433 . S
C1844 H1840 0.929 . S
C1844 C1846 1.378 . S
C1844 C1848 1.350 . S
C1845 C1848 1.463 . S
C1845 C1850 1.350 . S
C1845 N1853 1.427 . S
C1846 H1837 0.930 . S
C1846 C1844 1.378 . S
C1846 C1847 1.367 1_455 S
C1847 C1846 1.367 1_655 S
C1847 C1849 1.433 . S
C1848 C1844 1.350 . S
C1848 C1845 1.463 . S
C1848 N1852 1.427 1_455 S
C1849 H1839 0.929 . S
C1849 C1847 1.433 . S
C1849 N1852 1.384 . S
C1850 H1841 0.929 . S
C1850 C1842 1.378 . S
C1850 C1845 1.350 . S
C1851 H1838 0.929 . S
C1851 C1843 1.433 . S
C1851 N1853 1.384 . S
N1852 C1848 1.427 1_655 S
N1852 C1849 1.384 . S
N1853 C1845 1.427 . S
N1853 C1851 1.384 . S
H1854 C1860 0.930 . S
H1855 C1864 0.930 . S
H1856 C1869 0.929 . S
H1857 C1867 0.929 . S
H1858 C1862 0.929 . S
H1859 C1868 0.929 . S
C1860 H1854 0.930 . S
C1860 C1861 1.367 . S
C1860 C1868 1.378 . S
C1861 C1860 1.367 . S
C1861 C1869 1.433 . S
C1862 H1858 0.929 . S
C1862 C1864 1.378 . S
C1862 C1866 1.350 . S
C1863 C1866 1.463 . S
C1863 C1868 1.350 . S
C1863 N1871 1.427 . S
C1864 H1855 0.930 . S
C1864 C1862 1.378 . S
C1864 C1865 1.367 . S
C1865 C1864 1.367 . S
C1865 C1867 1.433 . S
C1866 C1862 1.350 . S
C1866 C1863 1.463 . S
C1866 N1870 1.427 . S
C1867 H1857 0.929 . S
C1867 C1865 1.433 . S
C1867 N1870 1.384 . S
C1868 H1859 0.929 . S
C1868 C1860 1.378 . S
C1868 C1863 1.350 . S
C1869 H1856 0.929 . S
C1869 C1861 1.433 . S
C1869 N1871 1.384 . S
N1870 C1866 1.427 . S
N1870 C1867 1.384 . S
N1871 C1863 1.427 . S
N1871 C1869 1.384 . S
H1872 C1878 0.930 . S
H1873 C1882 0.930 . S
H1874 C1887 0.929 . S
H1875 C1885 0.929 . S
H1876 C1880 0.929 . S
H1877 C1886 0.929 . S
C1878 H1872 0.930 . S
C1878 C1879 1.367 1_545 S
C1878 C1886 1.378 . S
C1879 C1878 1.367 1_565 S
C1879 C1887 1.433 . S
C1880 H1876 0.929 . S
C1880 C1882 1.378 . S
C1880 C1884 1.350 . S
C1881 C1884 1.463 . S
C1881 C1886 1.350 . S
C1881 N1889 1.427 . S
C1882 H1873 0.930 . S
C1882 C1880 1.378 . S
C1882 C1883 1.367 . S
C1883 C1882 1.367 . S
C1883 C1885 1.433 . S
C1884 C1880 1.350 . S
C1884 C1881 1.463 . S
C1884 N1888 1.427 . S
C1885 H1875 0.929 . S
C1885 C1883 1.433 . S
C1885 N1888 1.384 . S
C1886 H1877 0.929 . S
C1886 C1878 1.378 . S
C1886 C1881 1.350 . S
C1887 H1874 0.929 . S
C1887 C1879 1.433 . S
C1887 N1889 1.384 1_565 S
N1888 C1884 1.427 . S
N1888 C1885 1.384 . S
N1889 C1881 1.427 . S
N1889 C1887 1.384 1_545 S
H1890 C1896 0.930 . S
H1891 C1900 0.928 1_455 S
H1892 C1905 0.929 . S
H1893 C1903 0.929 . S
H1894 C1898 0.929 . S
H1895 C1904 0.929 . S
C1896 H1890 0.930 . S
C1896 C1897 1.367 . S
C1896 C1904 1.378 . S
C1897 C1896 1.367 . S
C1897 C1905 1.433 . S
C1898 H1894 0.929 . S
C1898 C1900 1.378 . S
C1898 C1902 1.350 . S
C1899 C1902 1.463 . S
C1899 C1904 1.350 . S
C1899 N1907 1.427 . S
C1900 H1891 0.928 1_655 S
C1900 C1898 1.378 . S
C1900 C1901 1.367 1_655 S
C1901 C1900 1.367 1_455 S
C1901 C1903 1.433 . S
C1902 C1898 1.350 . S
C1902 C1899 1.463 . S
C1902 N1906 1.427 . S
C1903 H1893 0.929 . S
C1903 C1901 1.433 . S
C1903 N1906 1.384 1_455 S
C1904 H1895 0.929 . S
C1904 C1896 1.378 . S
C1904 C1899 1.350 . S
C1905 H1892 0.929 . S
C1905 C1897 1.433 . S
C1905 N1907 1.384 . S
N1906 C1902 1.427 . S
N1906 C1903 1.384 1_655 S
N1907 C1899 1.427 . S
N1907 C1905 1.384 . S
H1908 C1914 0.930 . S
H1909 C1918 0.930 . S
H1910 C1923 0.929 . S
H1911 C1921 0.929 . S
H1912 C1916 0.929 . S
H1913 C1922 0.929 . S
C1914 H1908 0.930 . S
C1914 C1915 1.367 . S
C1914 C1922 1.378 . S
C1915 C1914 1.367 . S
C1915 C1923 1.433 . S
C1916 H1912 0.929 . S
C1916 C1918 1.378 . S
C1916 C1920 1.350 . S
C1917 C1920 1.463 . S
C1917 C1922 1.350 . S
C1917 N1925 1.427 . S
C1918 H1909 0.930 . S
C1918 C1916 1.378 . S
C1918 C1919 1.367 . S
C1919 C1918 1.367 . S
C1919 C1921 1.433 . S
C1920 C1916 1.350 . S
C1920 C1917 1.463 . S
C1920 N1924 1.427 . S
C1921 H1911 0.929 . S
C1921 C1919 1.433 . S
C1921 N1924 1.384 . S
C1922 H1913 0.929 . S
C1922 C1914 1.378 . S
C1922 C1917 1.350 . S
C1923 H1910 0.929 . S
C1923 C1915 1.433 . S
C1923 N1925 1.384 . S
N1924 C1920 1.427 . S
N1924 C1921 1.384 . S
N1925 C1917 1.427 . S
N1925 C1923 1.384 . S
H1926 C1932 0.930 . S
H1927 C1936 0.930 . S
H1928 C1941 0.929 . S
H1929 C1939 0.929 . S
H1930 C1934 0.929 . S
H1931 C1940 0.929 . S
C1932 H1926 0.930 . S
C1932 C1933 1.367 . S
C1932 C1940 1.378 . S
C1933 C1932 1.367 . S
C1933 C1941 1.433 . S
C1934 H1930 0.929 . S
C1934 C1936 1.378 . S
C1934 C1938 1.350 . S
C1935 C1938 1.463 . S
C1935 C1940 1.350 . S
C1935 N1943 1.427 . S
C1936 H1927 0.930 . S
C1936 C1934 1.378 . S
C1936 C1937 1.367 . S
C1937 C1936 1.367 . S
C1937 C1939 1.433 . S
C1938 C1934 1.350 . S
C1938 C1935 1.463 . S
C1938 N1942 1.427 . S
C1939 H1929 0.929 . S
C1939 C1937 1.433 . S
C1939 N1942 1.384 . S
C1940 H1931 0.929 . S
C1940 C1932 1.378 . S
C1940 C1935 1.350 . S
C1941 H1928 0.929 . S
C1941 C1933 1.433 . S
C1941 N1943 1.384 . S
N1942 C1938 1.427 . S
N1942 C1939 1.384 . S
N1943 C1935 1.427 . S
N1943 C1941 1.384 . S
H1944 C1950 0.930 . S
H1945 C1954 0.930 . S
H1946 C1959 0.929 . S
H1947 C1957 0.929 . S
H1948 C1952 0.929 . S
H1949 C1958 0.929 . S
C1950 H1944 0.930 . S
C1950 C1951 1.367 . S
C1950 C1958 1.378 . S
C1951 C1950 1.367 . S
C1951 C1959 1.433 . S
C1952 H1948 0.929 . S
C1952 C1954 1.378 . S
C1952 C1956 1.350 . S
C1953 C1956 1.463 . S
C1953 C1958 1.350 . S
C1953 N1961 1.427 . S
C1954 H1945 0.930 . S
C1954 C1952 1.378 . S
C1954 C1955 1.367 . S
C1955 C1954 1.367 . S
C1955 C1957 1.433 . S
C1956 C1952 1.350 . S
C1956 C1953 1.463 . S
C1956 N1960 1.427 . S
C1957 H1947 0.929 . S
C1957 C1955 1.433 . S
C1957 N1960 1.384 . S
C1958 H1949 0.929 . S
C1958 C1950 1.378 . S
C1958 C1953 1.350 . S
C1959 H1946 0.929 . S
C1959 C1951 1.433 . S
C1959 N1961 1.384 . S
N1960 C1956 1.427 . S
N1960 C1957 1.384 . S
N1961 C1953 1.427 . S
N1961 C1959 1.384 . S
H1962 C1968 0.930 . S
H1963 C1972 0.930 . S
H1964 C1977 0.929 . S
H1965 C1975 0.929 . S
H1966 C1970 0.929 . S
H1967 C1976 0.929 . S
C1968 H1962 0.930 . S
C1968 C1969 1.367 . S
C1968 C1976 1.378 . S
C1969 C1968 1.367 . S
C1969 C1977 1.433 . S
C1970 H1966 0.929 . S
C1970 C1972 1.378 . S
C1970 C1974 1.350 . S
C1971 C1974 1.463 . S
C1971 C1976 1.350 . S
C1971 N1979 1.427 . S
C1972 H1963 0.930 . S
C1972 C1970 1.378 . S
C1972 C1973 1.367 . S
C1973 C1972 1.367 . S
C1973 C1975 1.433 . S
C1974 C1970 1.350 . S
C1974 C1971 1.463 . S
C1974 N1978 1.427 . S
C1975 H1965 0.929 . S
C1975 C1973 1.433 . S
C1975 N1978 1.384 . S
C1976 H1967 0.929 . S
C1976 C1968 1.378 . S
C1976 C1971 1.350 . S
C1977 H1964 0.929 . S
C1977 C1969 1.433 . S
C1977 N1979 1.384 . S
N1978 C1974 1.427 . S
N1978 C1975 1.384 . S
N1979 C1971 1.427 . S
N1979 C1977 1.384 . S
H1980 C1986 0.930 . S
H1981 C1990 0.930 . S
H1982 C1995 0.929 . S
H1983 C1993 0.929 . S
H1984 C1988 0.929 . S
H1985 C1994 0.929 . S
C1986 H1980 0.930 . S
C1986 C1987 1.367 . S
C1986 C1994 1.378 . S
C1987 C1986 1.367 . S
C1987 C1995 1.433 . S
C1988 H1984 0.929 . S
C1988 C1990 1.378 . S
C1988 C1992 1.350 . S
C1989 C1992 1.463 . S
C1989 C1994 1.350 . S
C1989 N1997 1.427 . S
C1990 H1981 0.930 . S
C1990 C1988 1.378 . S
C1990 C1991 1.367 . S
C1991 C1990 1.367 . S
C1991 C1993 1.433 . S
C1992 C1988 1.350 . S
C1992 C1989 1.463 . S
C1992 N1996 1.427 . S
C1993 H1983 0.929 . S
C1993 C1991 1.433 . S
C1993 N1996 1.384 . S
C1994 H1985 0.929 . S
C1994 C1986 1.378 . S
C1994 C1989 1.350 . S
C1995 H1982 0.929 . S
C1995 C1987 1.433 . S
C1995 N1997 1.384 . S
N1996 C1992 1.427 . S
N1996 C1993 1.384 . S
N1997 C1989 1.427 . S
N1997 C1995 1.384 . S
H1998 C2004 0.930 . S
H1999 C2008 0.930 . S
H2000 C2013 0.929 . S
H2001 C2011 0.929 . S
H2002 C2006 0.929 . S
H2003 C2012 0.929 . S
C2004 H1998 0.930 . S
C2004 C2005 1.367 . S
C2004 C2012 1.378 . S
C2005 C2004 1.367 . S
C2005 C2013 1.433 . S
C2006 H2002 0.929 . S
C2006 C2008 1.378 . S
C2006 C2010 1.350 . S
C2007 C2010 1.463 . S
C2007 C2012 1.350 . S
C2007 N2015 1.427 . S
C2008 H1999 0.930 . S
C2008 C2006 1.378 . S
C2008 C2009 1.367 . S
C2009 C2008 1.367 . S
C2009 C2011 1.433 . S
C2010 C2006 1.350 . S
C2010 C2007 1.463 . S
C2010 N2014 1.427 . S
C2011 H2001 0.929 . S
C2011 C2009 1.433 . S
C2011 N2014 1.384 . S
C2012 H2003 0.929 . S
C2012 C2004 1.378 . S
C2012 C2007 1.350 . S
C2013 H2000 0.929 . S
C2013 C2005 1.433 . S
C2013 N2015 1.384 . S
N2014 C2010 1.427 . S
N2014 C2011 1.384 . S
N2015 C2007 1.427 . S
N2015 C2013 1.384 . S
H2016 C2022 0.930 . S
H2017 C2026 0.930 . S
H2018 C2031 0.929 . S
H2019 C2029 0.929 . S
H2020 C2024 0.929 1_655 S
H2021 C2030 0.929 . S
C2022 H2016 0.930 . S
C2022 C2023 1.367 . S
C2022 C2030 1.378 . S
C2023 C2022 1.367 . S
C2023 C2031 1.433 . S
C2024 H2020 0.929 1_455 S
C2024 C2026 1.378 . S
C2024 C2028 1.350 1_455 S
C2025 C2028 1.463 . S
C2025 C2030 1.350 . S
C2025 N2033 1.427 . S
C2026 H2017 0.930 . S
C2026 C2024 1.378 . S
C2026 C2027 1.367 . S
C2027 C2026 1.367 . S
C2027 C2029 1.433 . S
C2028 C2024 1.350 1_655 S
C2028 C2025 1.463 . S
C2028 N2032 1.427 1_655 S
C2029 H2019 0.929 . S
C2029 C2027 1.433 . S
C2029 N2032 1.384 . S
C2030 H2021 0.929 . S
C2030 C2022 1.378 . S
C2030 C2025 1.350 . S
C2031 H2018 0.929 . S
C2031 C2023 1.433 . S
C2031 N2033 1.384 . S
N2032 C2028 1.427 1_455 S
N2032 C2029 1.384 . S
N2033 C2025 1.427 . S
N2033 C2031 1.384 . S
H2034 C2040 0.930 . S
H2035 C2044 0.930 . S
H2036 C2049 0.929 . S
H2037 C2047 0.929 . S
H2038 C2042 0.929 . S
H2039 C2048 0.929 . S
C2040 H2034 0.930 . S
C2040 C2041 1.367 . S
C2040 C2048 1.378 . S
C2041 C2040 1.367 . S
C2041 C2049 1.433 . S
C2042 H2038 0.929 . S
C2042 C2044 1.378 . S
C2042 C2046 1.350 . S
C2043 C2046 1.463 . S
C2043 C2048 1.350 . S
C2043 N2051 1.427 . S
C2044 H2035 0.930 . S
C2044 C2042 1.378 . S
C2044 C2045 1.367 . S
C2045 C2044 1.367 . S
C2045 C2047 1.433 . S
C2046 C2042 1.350 . S
C2046 C2043 1.463 . S
C2046 N2050 1.427 . S
C2047 H2037 0.929 . S
C2047 C2045 1.433 . S
C2047 N2050 1.384 . S
C2048 H2039 0.929 . S
C2048 C2040 1.378 . S
C2048 C2043 1.350 . S
C2049 H2036 0.929 . S
C2049 C2041 1.433 . S
C2049 N2051 1.384 . S
N2050 C2046 1.427 . S
N2050 C2047 1.384 . S
N2051 C2043 1.427 . S
N2051 C2049 1.384 . S
H2052 C2058 0.930 . S
H2053 C2062 0.930 . S
H2054 C2067 0.929 . S
H2055 C2065 0.929 . S
H2056 C2060 0.929 . S
H2057 C2066 0.923 1_545 S
C2058 H2052 0.930 . S
C2058 C2059 1.367 . S
C2058 C2066 1.378 . S
C2059 C2058 1.367 . S
C2059 C2067 1.433 . S
C2060 H2056 0.929 . S
C2060 C2062 1.378 . S
C2060 C2064 1.350 . S
C2061 C2064 1.463 . S
C2061 C2066 1.350 1_545 S
C2061 N2069 1.427 1_545 S
C2062 H2053 0.930 . S
C2062 C2060 1.378 . S
C2062 C2063 1.367 . S
C2063 C2062 1.367 . S
C2063 C2065 1.433 . S
C2064 C2060 1.350 . S
C2064 C2061 1.463 . S
C2064 N2068 1.427 . S
C2065 H2055 0.929 . S
C2065 C2063 1.433 . S
C2065 N2068 1.384 . S
C2066 H2057 0.923 1_565 S
C2066 C2058 1.378 . S
C2066 C2061 1.350 1_565 S
C2067 H2054 0.929 . S
C2067 C2059 1.433 . S
C2067 N2069 1.384 . S
N2068 C2064 1.427 . S
N2068 C2065 1.384 . S
N2069 C2061 1.427 1_565 S
N2069 C2067 1.384 . S
H2070 C2076 0.930 . S
H2071 C2080 0.930 . S
H2072 C2085 0.929 . S
H2073 C2083 0.929 . S
H2074 C2078 0.929 . S
H2075 C2084 0.929 . S
C2076 H2070 0.930 . S
C2076 C2077 1.367 . S
C2076 C2084 1.378 . S
C2077 C2076 1.367 . S
C2077 C2085 1.433 . S
C2078 H2074 0.929 . S
C2078 C2080 1.378 1_455 S
C2078 C2082 1.350 . S
C2079 C2082 1.463 . S
C2079 C2084 1.350 . S
C2079 N2087 1.427 . S
C2080 H2071 0.930 . S
C2080 C2078 1.378 1_655 S
C2080 C2081 1.367 . S
C2081 C2080 1.367 . S
C2081 C2083 1.433 . S
C2082 C2078 1.350 . S
C2082 C2079 1.463 . S
C2082 N2086 1.427 1_455 S
C2083 H2073 0.929 . S
C2083 C2081 1.433 . S
C2083 N2086 1.384 . S
C2084 H2075 0.929 . S
C2084 C2076 1.378 . S
C2084 C2079 1.350 . S
C2085 H2072 0.929 . S
C2085 C2077 1.433 . S
C2085 N2087 1.384 . S
N2086 C2082 1.427 1_655 S
N2086 C2083 1.384 . S
N2087 C2079 1.427 . S
N2087 C2085 1.384 . S
H2088 C2094 0.930 . S
H2089 C2098 0.930 . S
H2090 C2103 0.929 . S
H2091 C2101 0.929 . S
H2092 C2096 0.929 . S
H2093 C2102 0.929 . S
C2094 H2088 0.930 . S
C2094 C2095 1.367 . S
C2094 C2102 1.378 . S
C2095 C2094 1.367 . S
C2095 C2103 1.433 . S
C2096 H2092 0.929 . S
C2096 C2098 1.378 . S
C2096 C2100 1.350 . S
C2097 C2100 1.463 . S
C2097 C2102 1.350 . S
C2097 N2105 1.427 . S
C2098 H2089 0.930 . S
C2098 C2096 1.378 . S
C2098 C2099 1.367 . S
C2099 C2098 1.367 . S
C2099 C2101 1.433 . S
C2100 C2096 1.350 . S
C2100 C2097 1.463 . S
C2100 N2104 1.427 . S
C2101 H2091 0.929 . S
C2101 C2099 1.433 . S
C2101 N2104 1.384 . S
C2102 H2093 0.929 . S
C2102 C2094 1.378 . S
C2102 C2097 1.350 . S
C2103 H2090 0.929 . S
C2103 C2095 1.433 . S
C2103 N2105 1.384 . S
N2104 C2100 1.427 . S
N2104 C2101 1.384 . S
N2105 C2097 1.427 . S
N2105 C2103 1.384 . S
H2106 C2112 0.930 . S
H2107 C2116 0.930 . S
H2108 C2121 0.929 . S
H2109 C2119 0.933 1_565 S
H2110 C2114 0.929 . S
H2111 C2120 0.929 . S
C2112 H2106 0.930 . S
C2112 C2113 1.367 . S
C2112 C2120 1.378 . S
C2113 C2112 1.367 . S
C2113 C2121 1.433 . S
C2114 H2110 0.929 . S
C2114 C2116 1.378 . S
C2114 C2118 1.350 1_545 S
C2115 C2118 1.463 . S
C2115 C2120 1.350 . S
C2115 N2123 1.427 . S
C2116 H2107 0.930 . S
C2116 C2114 1.378 . S
C2116 C2117 1.367 . S
C2117 C2116 1.367 . S
C2117 C2119 1.455 . S
C2118 C2114 1.350 1_565 S
C2118 C2115 1.463 . S
C2118 N2122 1.427 . S
C2119 H2109 0.933 1_545 S
C2119 C2117 1.455 . S
C2119 N2122 1.359 1_545 S
C2120 H2111 0.929 . S
C2120 C2112 1.378 . S
C2120 C2115 1.350 . S
C2121 H2108 0.929 . S
C2121 C2113 1.433 . S
C2121 N2123 1.384 . S
N2122 C2118 1.427 . S
N2122 C2119 1.359 1_565 S
N2123 C2115 1.427 . S
N2123 C2121 1.384 . S
H2124 C2130 0.930 . S
H2125 C2134 0.930 . S
H2126 C2139 0.929 . S
H2127 C2137 0.929 1_545 S
H2128 C2132 0.929 . S
H2129 C2138 0.929 . S
C2130 H2124 0.930 . S
C2130 C2131 1.367 . S
C2130 C2138 1.378 . S
C2131 C2130 1.367 . S
C2131 C2139 1.433 . S
C2132 H2128 0.929 . S
C2132 C2134 1.378 . S
C2132 C2136 1.350 . S
C2133 C2136 1.463 . S
C2133 C2138 1.350 . S
C2133 N2141 1.427 . S
C2134 H2125 0.930 . S
C2134 C2132 1.378 . S
C2134 C2135 1.367 . S
C2135 C2134 1.367 . S
C2135 C2137 1.433 . S
C2136 C2132 1.350 . S
C2136 C2133 1.463 . S
C2136 N2140 1.427 . S
C2137 H2127 0.929 1_565 S
C2137 C2135 1.433 . S
C2137 N2140 1.384 . S
C2138 H2129 0.929 . S
C2138 C2130 1.378 . S
C2138 C2133 1.350 . S
C2139 H2126 0.929 . S
C2139 C2131 1.433 . S
C2139 N2141 1.384 . S
N2140 C2136 1.427 . S
N2140 C2137 1.384 . S
N2141 C2133 1.427 . S
N2141 C2139 1.384 . S
H2142 C2148 0.930 . S
H2143 C2152 0.930 . S
H2144 C2157 0.929 1_655 S
H2145 C2155 0.929 . S
H2146 C2150 0.929 . S
H2147 C2156 0.929 . S
C2148 H2142 0.930 . S
C2148 C2149 1.367 . S
C2148 C2156 1.378 . S
C2149 C2148 1.367 . S
C2149 C2157 1.433 . S
C2150 H2146 0.929 . S
C2150 C2152 1.378 . S
C2150 C2154 1.350 . S
C2151 C2154 1.463 . S
C2151 C2156 1.350 . S
C2151 N2159 1.427 . S
C2152 H2143 0.930 . S
C2152 C2150 1.378 . S
C2152 C2153 1.367 . S
C2153 C2152 1.367 . S
C2153 C2155 1.433 . S
C2154 C2150 1.350 . S
C2154 C2151 1.463 . S
C2154 N2158 1.427 . S
C2155 H2145 0.929 . S
C2155 C2153 1.433 . S
C2155 N2158 1.384 . S
C2156 H2147 0.929 . S
C2156 C2148 1.378 . S
C2156 C2151 1.350 . S
C2157 H2144 0.929 1_455 S
C2157 C2149 1.433 . S
C2157 N2159 1.384 . S
N2158 C2154 1.427 . S
N2158 C2155 1.384 . S
N2159 C2151 1.427 . S
N2159 C2157 1.384 . S
H2160 C2166 0.930 . S
H2161 C2170 0.930 . S
H2162 C2175 0.929 . S
H2163 C2173 0.929 . S
H2164 C2168 0.929 . S
H2165 C2174 0.929 . S
C2166 H2160 0.930 . S
C2166 C2167 1.367 . S
C2166 C2174 1.378 . S
C2167 C2166 1.367 . S
C2167 C2175 1.433 . S
C2168 H2164 0.929 . S
C2168 C2170 1.378 . S
C2168 C2172 1.350 . S
C2169 C2172 1.463 . S
C2169 C2174 1.350 . S
C2169 N2177 1.427 . S
C2170 H2161 0.930 . S
C2170 C2168 1.378 . S
C2170 C2171 1.367 . S
C2171 C2170 1.367 . S
C2171 C2173 1.433 . S
C2172 C2168 1.350 . S
C2172 C2169 1.463 . S
C2172 N2176 1.427 . S
C2173 H2163 0.929 . S
C2173 C2171 1.433 . S
C2173 N2176 1.384 . S
C2174 H2165 0.929 . S
C2174 C2166 1.378 . S
C2174 C2169 1.350 . S
C2175 H2162 0.929 . S
C2175 C2167 1.433 . S
C2175 N2177 1.384 . S
N2176 C2172 1.427 . S
N2176 C2173 1.384 . S
N2177 C2169 1.427 . S
N2177 C2175 1.384 . S
H2178 C2184 0.930 . S
H2179 C2188 0.930 . S
H2180 C2193 0.929 . S
H2181 C2191 0.929 . S
H2182 C2186 0.929 . S
H2183 C2192 0.929 1_545 S
C2184 H2178 0.930 . S
C2184 C2185 1.367 . S
C2184 C2192 1.378 . S
C2185 C2184 1.367 . S
C2185 C2193 1.433 1_554 S
C2186 H2182 0.929 . S
C2186 C2188 1.378 . S
C2186 C2190 1.350 1_556 S
C2187 C2190 1.463 . S
C2187 C2192 1.350 1_545 S
C2187 N2195 1.427 1_544 S
C2188 H2179 0.930 . S
C2188 C2186 1.378 . S
C2188 C2189 1.367 1_556 S
C2189 C2188 1.367 1_554 S
C2189 C2191 1.433 . S
C2190 C2186 1.350 1_554 S
C2190 C2187 1.463 . S
C2190 N2194 1.427 . S
C2191 H2181 0.929 . S
C2191 C2189 1.433 . S
C2191 N2194 1.384 . S
C2192 H2183 0.929 1_565 S
C2192 C2184 1.378 . S
C2192 C2187 1.350 1_565 S
C2193 H2180 0.929 . S
C2193 C2185 1.433 1_556 S
C2193 N2195 1.384 . S
N2194 C2190 1.427 . S
N2194 C2191 1.384 . S
N2195 C2187 1.427 1_566 S
N2195 C2193 1.384 . S
H2196 C2202 0.930 . S
H2197 C2206 0.930 . S
H2198 C2211 0.929 . S
H2199 C2209 0.929 . S
H2200 C2204 0.929 . S
H2201 C2210 0.929 1_655 S
C2202 H2196 0.930 . S
C2202 C2203 1.367 1_556 S
C2202 C2210 1.378 . S
C2203 C2202 1.367 1_554 S
C2203 C2211 1.433 . S
C2204 H2200 0.929 . S
C2204 C2206 1.378 . S
C2204 C2208 1.350 . S
C2205 C2208 1.463 . S
C2205 C2210 1.350 1_654 S
C2205 N2213 1.427 1_655 S
C2206 H2197 0.930 . S
C2206 C2204 1.378 . S
C2206 C2207 1.367 . S
C2207 C2206 1.367 . S
C2207 C2209 1.433 1_554 S
C2208 C2204 1.350 . S
C2208 C2205 1.463 . S
C2208 N2212 1.427 1_554 S
C2209 H2199 0.929 . S
C2209 C2207 1.433 1_556 S
C2209 N2212 1.384 . S
C2210 H2201 0.929 1_455 S
C2210 C2202 1.378 . S
C2210 C2205 1.350 1_456 S
C2211 H2198 0.929 . S
C2211 C2203 1.433 . S
C2211 N2213 1.384 . S
N2212 C2208 1.427 1_556 S
N2212 C2209 1.384 . S
N2213 C2205 1.427 1_455 S
N2213 C2211 1.384 . S
H2214 C2220 0.930 . S
H2215 C2224 0.930 . S
H2216 C2229 0.929 . S
H2217 C2227 0.929 . S
H2218 C2222 0.929 . S
H2219 C2228 0.929 . S
C2220 H2214 0.930 . S
C2220 C2221 1.367 1_556 S
C2220 C2228 1.378 . S
C2221 C2220 1.367 1_554 S
C2221 C2229 1.433 . S
C2222 H2218 0.929 . S
C2222 C2224 1.378 . S
C2222 C2226 1.350 . S
C2223 C2226 1.463 . S
C2223 C2228 1.350 1_554 S
C2223 N2231 1.427 . S
C2224 H2215 0.930 . S
C2224 C2222 1.378 . S
C2224 C2225 1.367 . S
C2225 C2224 1.367 . S
C2225 C2227 1.433 1_554 S
C2226 C2222 1.350 . S
C2226 C2223 1.463 . S
C2226 N2230 1.427 1_554 S
C2227 H2217 0.929 . S
C2227 C2225 1.433 1_556 S
C2227 N2230 1.384 . S
C2228 H2219 0.929 . S
C2228 C2220 1.378 . S
C2228 C2223 1.350 1_556 S
C2229 H2216 0.929 . S
C2229 C2221 1.433 . S
C2229 N2231 1.384 . S
N2230 C2226 1.427 1_556 S
N2230 C2227 1.384 . S
N2231 C2223 1.427 . S
N2231 C2229 1.384 . S
H2232 C2238 0.930 . S
H2233 C2242 0.930 . S
H2234 C2247 0.929 . S
H2235 C2245 0.929 . S
H2236 C2240 0.929 . S
H2237 C2246 0.929 . S
C2238 H2232 0.930 . S
C2238 C2239 1.367 . S
C2238 C2246 1.378 . S
C2239 C2238 1.367 . S
C2239 C2247 1.433 . S
C2240 H2236 0.929 . S
C2240 C2242 1.378 . S
C2240 C2244 1.350 1_565 S
C2241 C2244 1.463 . S
C2241 C2246 1.350 . S
C2241 N2249 1.427 . S
C2242 H2233 0.930 . S
C2242 C2240 1.378 . S
C2242 C2243 1.367 . S
C2243 C2242 1.367 . S
C2243 C2245 1.433 1_565 S
C2244 C2240 1.350 1_545 S
C2244 C2241 1.463 . S
C2244 N2248 1.427 . S
C2245 H2235 0.929 . S
C2245 C2243 1.433 1_545 S
C2245 N2248 1.384 . S
C2246 H2237 0.929 . S
C2246 C2238 1.378 . S
C2246 C2241 1.350 . S
C2247 H2234 0.929 . S
C2247 C2239 1.433 . S
C2247 N2249 1.384 . S
N2248 C2244 1.427 . S
N2248 C2245 1.384 . S
N2249 C2241 1.427 . S
N2249 C2247 1.384 . S
H2250 C2256 0.930 . S
H2251 C2260 0.930 . S
H2252 C2265 0.929 . S
H2253 C2263 0.929 . S
H2254 C2258 0.946 . S
H2255 C2264 0.929 . S
C2256 H2250 0.930 . S
C2256 C2257 1.367 . S
C2256 C2264 1.378 . S
C2257 C2256 1.367 . S
C2257 C2265 1.433 . S
C2258 H2254 0.946 . S
C2258 C2260 1.352 1_655 S
C2258 C2262 1.360 . S
C2259 C2262 1.463 . S
C2259 C2264 1.350 . S
C2259 N2267 1.427 . S
C2260 H2251 0.930 . S
C2260 C2258 1.352 1_455 S
C2260 C2261 1.367 . S
C2261 C2260 1.367 . S
C2261 C2263 1.433 . S
C2262 C2258 1.360 . S
C2262 C2259 1.463 . S
C2262 N2266 1.427 1_655 S
C2263 H2253 0.929 . S
C2263 C2261 1.433 . S
C2263 N2266 1.384 . S
C2264 H2255 0.929 . S
C2264 C2256 1.378 . S
C2264 C2259 1.350 . S
C2265 H2252 0.929 . S
C2265 C2257 1.433 . S
C2265 N2267 1.384 . S
N2266 C2262 1.427 1_455 S
N2266 C2263 1.384 . S
N2267 C2259 1.427 . S
N2267 C2265 1.384 . S
H2268 C2274 0.930 . S
H2269 C2278 0.930 . S
H2270 C2283 0.929 . S
H2271 C2281 0.929 . S
H2272 C2276 0.929 . S
H2273 C2282 0.929 . S
C2274 H2268 0.930 . S
C2274 C2275 1.367 . S
C2274 C2282 1.378 . S
C2275 C2274 1.367 . S
C2275 C2283 1.433 . S
C2276 H2272 0.929 . S
C2276 C2278 1.378 . S
C2276 C2280 1.350 . S
C2277 C2280 1.463 . S
C2277 C2282 1.350 . S
C2277 N2285 1.427 . S
C2278 H2269 0.930 . S
C2278 C2276 1.378 . S
C2278 C2279 1.367 . S
C2279 C2278 1.367 . S
C2279 C2281 1.433 . S
C2280 C2276 1.350 . S
C2280 C2277 1.463 . S
C2280 N2284 1.427 . S
C2281 H2271 0.929 . S
C2281 C2279 1.433 . S
C2281 N2284 1.384 . S
C2282 H2273 0.929 . S
C2282 C2274 1.378 . S
C2282 C2277 1.350 . S
C2283 H2270 0.929 . S
C2283 C2275 1.433 . S
C2283 N2285 1.384 . S
N2284 C2280 1.427 . S
N2284 C2281 1.384 . S
N2285 C2277 1.427 . S
N2285 C2283 1.384 . S
H2286 C2292 0.930 . S
H2287 C2296 0.930 . S
H2288 C2301 0.929 . S
H2289 C2299 0.929 . S
H2290 C2294 0.946 . S
H2291 C2300 0.929 . S
C2292 H2286 0.930 . S
C2292 C2293 1.367 1_554 S
C2292 C2300 1.378 . S
C2293 C2292 1.367 1_556 S
C2293 C2301 1.433 . S
C2294 H2290 0.946 . S
C2294 C2296 1.378 . S
C2294 C2298 1.350 1_545 S
C2295 C2298 1.463 . S
C2295 C2300 1.350 1_556 S
C2295 N2303 1.427 . S
C2296 H2287 0.930 . S
C2296 C2294 1.378 . S
C2296 C2297 1.367 . S
C2297 C2296 1.367 . S
C2297 C2299 1.433 1_556 S
C2298 C2294 1.350 1_565 S
C2298 C2295 1.463 . S
C2298 N2302 1.427 1_566 S
C2299 H2289 0.929 . S
C2299 C2297 1.433 1_554 S
C2299 N2302 1.384 . S
C2300 H2291 0.929 . S
C2300 C2292 1.378 . S
C2300 C2295 1.350 1_554 S
C2301 H2288 0.929 . S
C2301 C2293 1.433 . S
C2301 N2303 1.384 . S
N2302 C2298 1.427 1_544 S
N2302 C2299 1.384 . S
N2303 C2295 1.427 . S
N2303 C2301 1.384 . S
H2304 C2310 0.930 . S
H2305 C2314 0.930 . S
H2306 C2319 0.929 . S
H2307 C2317 0.929 . S
H2308 C2312 0.929 . S
H2309 C2318 0.929 1_455 S
C2310 H2304 0.930 . S
C2310 C2311 1.367 . S
C2310 C2318 1.378 . S
C2311 C2310 1.367 . S
C2311 C2319 1.433 1_556 S
C2312 H2308 0.929 . S
C2312 C2314 1.378 . S
C2312 C2316 1.350 1_554 S
C2313 C2316 1.463 . S
C2313 C2318 1.350 1_455 S
C2313 N2321 1.427 1_456 S
C2314 H2305 0.930 . S
C2314 C2312 1.378 . S
C2314 C2315 1.367 1_554 S
C2315 C2314 1.367 1_556 S
C2315 C2317 1.433 . S
C2316 C2312 1.350 1_556 S
C2316 C2313 1.463 . S
C2316 N2320 1.427 . S
C2317 H2307 0.929 . S
C2317 C2315 1.433 . S
C2317 N2320 1.384 . S
C2318 H2309 0.929 1_655 S
C2318 C2310 1.378 . S
C2318 C2313 1.350 1_655 S
C2319 H2306 0.929 . S
C2319 C2311 1.433 1_554 S
C2319 N2321 1.384 . S
N2320 C2316 1.427 . S
N2320 C2317 1.384 . S
N2321 C2313 1.427 1_654 S
N2321 C2319 1.384 . S
H2322 C2328 0.930 . S
H2323 C2332 0.930 . S
H2324 C2337 0.929 . S
H2325 C2335 0.930 1_554 S
H2326 C2330 0.929 . S
H2327 C2336 0.929 . S
C2328 H2322 0.930 . S
C2328 C2329 1.367 . S
C2328 C2336 1.378 . S
C2329 C2328 1.367 . S
C2329 C2337 1.433 . S
C2330 H2326 0.929 . S
C2330 C2332 1.378 . S
C2330 C2334 1.350 . S
C2331 C2334 1.463 . S
C2331 C2336 1.350 . S
C2331 N2339 1.427 . S
C2332 H2323 0.930 . S
C2332 C2330 1.378 . S
C2332 C2333 1.367 . S
C2333 C2332 1.367 . S
C2333 C2335 1.433 . S
C2334 C2330 1.350 . S
C2334 C2331 1.463 . S
C2334 N2338 1.436 . S
C2335 H2325 0.930 1_556 S
C2335 C2333 1.433 . S
C2335 N2338 1.382 . S
C2336 H2327 0.929 . S
C2336 C2328 1.378 . S
C2336 C2331 1.350 . S
C2337 H2324 0.929 . S
C2337 C2329 1.433 . S
C2337 N2339 1.384 . S
N2338 C2334 1.436 . S
N2338 C2335 1.382 . S
N2339 C2331 1.427 . S
N2339 C2337 1.384 . S
H2340 C2346 0.930 . S
H2341 C2350 0.930 . S
H2342 C2355 0.929 . S
H2343 C2353 0.929 . S
H2344 C2348 0.929 1_455 S
H2345 C2354 0.929 . S
C2346 H2340 0.930 . S
C2346 C2347 1.367 . S
C2346 C2354 1.378 . S
C2347 C2346 1.367 . S
C2347 C2355 1.433 . S
C2348 H2344 0.929 1_655 S
C2348 C2350 1.378 . S
C2348 C2352 1.350 1_655 S
C2349 C2352 1.463 . S
C2349 C2354 1.350 . S
C2349 N2357 1.427 . S
C2350 H2341 0.930 . S
C2350 C2348 1.378 . S
C2350 C2351 1.367 . S
C2351 C2350 1.367 . S
C2351 C2353 1.433 . S
C2352 C2348 1.350 1_455 S
C2352 C2349 1.463 . S
C2352 N2356 1.427 1_455 S
C2353 H2343 0.929 . S
C2353 C2351 1.433 . S
C2353 N2356 1.384 . S
C2354 H2345 0.929 . S
C2354 C2346 1.378 . S
C2354 C2349 1.350 . S
C2355 H2342 0.929 . S
C2355 C2347 1.433 . S
C2355 N2357 1.384 . S
N2356 C2352 1.427 1_655 S
N2356 C2353 1.384 . S
N2357 C2349 1.427 . S
N2357 C2355 1.384 . S
H2358 C2364 0.930 . S
H2359 C2368 0.930 . S
H2360 C2373 0.929 . S
H2361 C2371 0.929 . S
H2362 C2366 0.929 . S
H2363 C2372 0.929 . S
C2364 H2358 0.930 . S
C2364 C2365 1.367 . S
C2364 C2372 1.378 . S
C2365 C2364 1.367 . S
C2365 C2373 1.433 . S
C2366 H2362 0.929 . S
C2366 C2368 1.378 . S
C2366 C2370 1.350 . S
C2367 C2370 1.463 . S
C2367 C2372 1.350 . S
C2367 N2375 1.427 . S
C2368 H2359 0.930 . S
C2368 C2366 1.378 . S
C2368 C2369 1.367 . S
C2369 C2368 1.367 . S
C2369 C2371 1.433 . S
C2370 C2366 1.350 . S
C2370 C2367 1.463 . S
C2370 N2374 1.427 . S
C2371 H2361 0.929 . S
C2371 C2369 1.433 . S
C2371 N2374 1.384 . S
C2372 H2363 0.929 . S
C2372 C2364 1.378 . S
C2372 C2367 1.350 . S
C2373 H2360 0.929 . S
C2373 C2365 1.433 . S
C2373 N2375 1.384 . S
N2374 C2370 1.427 . S
N2374 C2371 1.384 . S
N2375 C2367 1.427 . S
N2375 C2373 1.384 . S
H2376 C2382 0.930 . S
H2377 C2386 0.930 . S
H2378 C2391 0.929 . S
H2379 C2389 0.929 . S
H2380 C2384 0.929 1_565 S
H2381 C2390 0.929 . S
C2382 H2376 0.930 . S
C2382 C2383 1.367 . S
C2382 C2390 1.378 . S
C2383 C2382 1.367 . S
C2383 C2391 1.433 . S
C2384 H2380 0.929 1_545 S
C2384 C2386 1.378 . S
C2384 C2388 1.350 1_545 S
C2385 C2388 1.463 . S
C2385 C2390 1.350 . S
C2385 N2393 1.427 . S
C2386 H2377 0.930 . S
C2386 C2384 1.378 . S
C2386 C2387 1.367 . S
C2387 C2386 1.367 . S
C2387 C2389 1.433 . S
C2388 C2384 1.350 1_565 S
C2388 C2385 1.463 . S
C2388 N2392 1.427 1_565 S
C2389 H2379 0.929 . S
C2389 C2387 1.433 . S
C2389 N2392 1.384 . S
C2390 H2381 0.929 . S
C2390 C2382 1.378 . S
C2390 C2385 1.350 . S
C2391 H2378 0.929 . S
C2391 C2383 1.433 . S
C2391 N2393 1.384 . S
N2392 C2388 1.427 1_545 S
N2392 C2389 1.384 . S
N2393 C2385 1.427 . S
N2393 C2391 1.384 . S
H2394 C2400 0.930 1_455 S
H2395 C2404 0.930 . S
H2396 C2409 0.929 . S
H2397 C2407 0.929 . S
H2398 C2402 0.929 . S
H2399 C2408 0.929 . S
C2400 H2394 0.930 1_655 S
C2400 C2401 1.367 . S
C2400 C2408 1.378 . S
C2401 C2400 1.367 . S
C2401 C2409 1.433 . S
C2402 H2398 0.929 . S
C2402 C2404 1.378 . S
C2402 C2406 1.350 . S
C2403 C2406 1.463 . S
C2403 C2408 1.350 . S
C2403 N2411 1.427 . S
C2404 H2395 0.930 . S
C2404 C2402 1.378 . S
C2404 C2405 1.367 . S
C2405 C2404 1.367 . S
C2405 C2407 1.433 . S
C2406 C2402 1.350 . S
C2406 C2403 1.463 . S
C2406 N2410 1.427 . S
C2407 H2397 0.929 . S
C2407 C2405 1.433 . S
C2407 N2410 1.384 . S
C2408 H2399 0.929 . S
C2408 C2400 1.378 . S
C2408 C2403 1.350 . S
C2409 H2396 0.929 . S
C2409 C2401 1.433 . S
C2409 N2411 1.384 . S
N2410 C2406 1.427 . S
N2410 C2407 1.384 . S
N2411 C2403 1.427 . S
N2411 C2409 1.384 . S
H2412 C2418 0.930 . S
H2413 C2422 0.930 . S
H2414 C2427 0.929 . S
H2415 C2425 0.929 . S
H2416 C2420 0.929 . S
H2417 C2426 0.929 . S
C2418 H2412 0.930 . S
C2418 C2419 1.367 . S
C2418 C2426 1.378 . S
C2419 C2418 1.367 . S
C2419 C2427 1.433 . S
C2420 H2416 0.929 . S
C2420 C2422 1.378 . S
C2420 C2424 1.350 . S
C2421 C2424 1.463 . S
C2421 C2426 1.350 . S
C2421 N2429 1.427 . S
C2422 H2413 0.930 . S
C2422 C2420 1.378 . S
C2422 C2423 1.367 . S
C2423 C2422 1.367 . S
C2423 C2425 1.433 . S
C2424 C2420 1.350 . S
C2424 C2421 1.463 . S
C2424 N2428 1.427 . S
C2425 H2415 0.929 . S
C2425 C2423 1.433 . S
C2425 N2428 1.384 . S
C2426 H2417 0.929 . S
C2426 C2418 1.378 . S
C2426 C2421 1.350 . S
C2427 H2414 0.929 . S
C2427 C2419 1.433 . S
C2427 N2429 1.384 . S
N2428 C2424 1.427 . S
N2428 C2425 1.384 . S
N2429 C2421 1.427 . S
N2429 C2427 1.384 . S
H2430 C2436 0.930 . S
H2431 C2440 0.930 . S
H2432 C2445 0.929 . S
H2433 C2443 0.929 1_565 S
H2434 C2438 0.929 . S
H2435 C2444 0.929 . S
C2436 H2430 0.930 . S
C2436 C2437 1.367 . S
C2436 C2444 1.378 . S
C2437 C2436 1.367 . S
C2437 C2445 1.433 . S
C2438 H2434 0.929 . S
C2438 C2440 1.378 . S
C2438 C2442 1.350 . S
C2439 C2442 1.463 . S
C2439 C2444 1.350 . S
C2439 N2447 1.427 . S
C2440 H2431 0.930 . S
C2440 C2438 1.378 . S
C2440 C2441 1.367 . S
C2441 C2440 1.367 . S
C2441 C2443 1.433 . S
C2442 C2438 1.350 . S
C2442 C2439 1.463 . S
C2442 N2446 1.427 . S
C2443 H2433 0.929 1_545 S
C2443 C2441 1.433 . S
C2443 N2446 1.384 . S
C2444 H2435 0.929 . S
C2444 C2436 1.378 . S
C2444 C2439 1.350 . S
C2445 H2432 0.929 . S
C2445 C2437 1.433 . S
C2445 N2447 1.384 . S
N2446 C2442 1.427 . S
N2446 C2443 1.384 . S
N2447 C2439 1.427 . S
N2447 C2445 1.384 . S
H2448 C2454 0.930 . S
H2449 C2458 0.930 . S
H2450 C2463 0.929 . S
H2451 C2461 0.929 . S
H2452 C2456 0.929 . S
H2453 C2462 0.929 . S
C2454 H2448 0.930 . S
C2454 C2455 1.367 . S
C2454 C2462 1.378 . S
C2455 C2454 1.367 . S
C2455 C2463 1.433 . S
C2456 H2452 0.929 . S
C2456 C2458 1.378 . S
C2456 C2460 1.350 . S
C2457 C2460 1.463 . S
C2457 C2462 1.350 . S
C2457 N2465 1.427 . S
C2458 H2449 0.930 . S
C2458 C2456 1.378 . S
C2458 C2459 1.367 . S
C2459 C2458 1.367 . S
C2459 C2461 1.433 . S
C2460 C2456 1.350 . S
C2460 C2457 1.463 . S
C2460 N2464 1.427 . S
C2461 H2451 0.929 . S
C2461 C2459 1.433 . S
C2461 N2464 1.384 . S
C2462 H2453 0.929 . S
C2462 C2454 1.378 . S
C2462 C2457 1.350 . S
C2463 H2450 0.929 . S
C2463 C2455 1.433 . S
C2463 N2465 1.384 . S
N2464 C2460 1.427 . S
N2464 C2461 1.384 . S
N2465 C2457 1.427 . S
N2465 C2463 1.384 . S
H2466 C2472 0.930 . S
H2467 C2476 0.930 . S
H2468 C2481 0.929 . S
H2469 C2479 0.929 . S
H2470 C2474 0.929 . S
H2471 C2480 0.929 . S
C2472 H2466 0.930 . S
C2472 C2473 1.367 . S
C2472 C2480 1.378 . S
C2473 C2472 1.367 . S
C2473 C2481 1.433 . S
C2474 H2470 0.929 . S
C2474 C2476 1.378 . S
C2474 C2478 1.350 . S
C2475 C2478 1.463 . S
C2475 C2480 1.350 . S
C2475 N2483 1.427 . S
C2476 H2467 0.930 . S
C2476 C2474 1.378 . S
C2476 C2477 1.367 . S
C2477 C2476 1.367 . S
C2477 C2479 1.433 . S
C2478 C2474 1.350 . S
C2478 C2475 1.463 . S
C2478 N2482 1.427 . S
C2479 H2469 0.929 . S
C2479 C2477 1.433 . S
C2479 N2482 1.384 . S
C2480 H2471 0.929 . S
C2480 C2472 1.378 . S
C2480 C2475 1.350 . S
C2481 H2468 0.929 . S
C2481 C2473 1.433 . S
C2481 N2483 1.384 . S
N2482 C2478 1.427 . S
N2482 C2479 1.384 . S
N2483 C2475 1.427 . S
N2483 C2481 1.384 . S
H2484 C2490 0.930 . S
H2485 C2494 0.930 . S
H2486 C2499 0.929 . S
H2487 C2497 0.929 . S
H2488 C2492 0.929 . S
H2489 C2498 0.929 . S
C2490 H2484 0.930 . S
C2490 C2491 1.367 . S
C2490 C2498 1.378 . S
C2491 C2490 1.367 . S
C2491 C2499 1.433 . S
C2492 H2488 0.929 . S
C2492 C2494 1.378 . S
C2492 C2496 1.350 . S
C2493 C2496 1.463 . S
C2493 C2498 1.350 . S
C2493 N2501 1.427 . S
C2494 H2485 0.930 . S
C2494 C2492 1.378 . S
C2494 C2495 1.367 . S
C2495 C2494 1.367 . S
C2495 C2497 1.433 . S
C2496 C2492 1.350 . S
C2496 C2493 1.463 . S
C2496 N2500 1.427 . S
C2497 H2487 0.929 . S
C2497 C2495 1.433 . S
C2497 N2500 1.384 . S
C2498 H2489 0.929 . S
C2498 C2490 1.378 . S
C2498 C2493 1.350 . S
C2499 H2486 0.929 . S
C2499 C2491 1.433 . S
C2499 N2501 1.384 . S
N2500 C2496 1.427 . S
N2500 C2497 1.384 . S
N2501 C2493 1.427 . S
N2501 C2499 1.384 . S
H2502 C2508 0.930 . S
H2503 C2512 0.930 . S
H2504 C2517 0.929 . S
H2505 C2515 0.929 . S
H2506 C2510 0.929 . S
H2507 C2516 0.929 . S
C2508 H2502 0.930 . S
C2508 C2509 1.367 . S
C2508 C2516 1.378 . S
C2509 C2508 1.367 . S
C2509 C2517 1.433 . S
C2510 H2506 0.929 . S
C2510 C2512 1.378 . S
C2510 C2514 1.350 . S
C2511 C2514 1.463 . S
C2511 C2516 1.350 . S
C2511 N2519 1.427 . S
C2512 H2503 0.930 . S
C2512 C2510 1.378 . S
C2512 C2513 1.367 . S
C2513 C2512 1.367 . S
C2513 C2515 1.433 . S
C2514 C2510 1.350 . S
C2514 C2511 1.463 . S
C2514 N2518 1.427 . S
C2515 H2505 0.929 . S
C2515 C2513 1.433 . S
C2515 N2518 1.384 . S
C2516 H2507 0.929 . S
C2516 C2508 1.378 . S
C2516 C2511 1.350 . S
C2517 H2504 0.929 . S
C2517 C2509 1.433 . S
C2517 N2519 1.384 . S
N2518 C2514 1.427 . S
N2518 C2515 1.384 . S
N2519 C2511 1.427 . S
N2519 C2517 1.384 . S
H2520 C2526 0.930 . S
H2521 C2530 0.930 . S
H2522 C2535 0.929 . S
H2523 C2533 0.929 . S
H2524 C2528 0.929 . S
H2525 C2534 0.929 . S
C2526 H2520 0.930 . S
C2526 C2527 1.367 . S
C2526 C2534 1.378 . S
C2527 C2526 1.367 . S
C2527 C2535 1.433 . S
C2528 H2524 0.929 . S
C2528 C2530 1.378 . S
C2528 C2532 1.350 . S
C2529 C2532 1.463 . S
C2529 C2534 1.350 . S
C2529 N2537 1.427 . S
C2530 H2521 0.930 . S
C2530 C2528 1.378 . S
C2530 C2531 1.367 . S
C2531 C2530 1.367 . S
C2531 C2533 1.433 . S
C2532 C2528 1.350 . S
C2532 C2529 1.463 . S
C2532 N2536 1.427 . S
C2533 H2523 0.929 . S
C2533 C2531 1.433 . S
C2533 N2536 1.384 . S
C2534 H2525 0.929 . S
C2534 C2526 1.378 . S
C2534 C2529 1.350 . S
C2535 H2522 0.929 . S
C2535 C2527 1.433 . S
C2535 N2537 1.384 . S
N2536 C2532 1.427 . S
N2536 C2533 1.384 . S
N2537 C2529 1.427 . S
N2537 C2535 1.384 . S
H2538 C2544 0.930 . S
H2539 C2548 0.930 . S
H2540 C2553 0.929 . S
H2541 C2551 0.929 . S
H2542 C2546 0.929 . S
H2543 C2552 0.929 . S
C2544 H2538 0.930 . S
C2544 C2545 1.367 . S
C2544 C2552 1.378 . S
C2545 C2544 1.367 . S
C2545 C2553 1.433 . S
C2546 H2542 0.929 . S
C2546 C2548 1.378 . S
C2546 C2550 1.350 . S
C2547 C2550 1.463 . S
C2547 C2552 1.350 . S
C2547 N2555 1.427 . S
C2548 H2539 0.930 . S
C2548 C2546 1.378 . S
C2548 C2549 1.367 . S
C2549 C2548 1.367 . S
C2549 C2551 1.433 . S
C2550 C2546 1.350 . S
C2550 C2547 1.463 . S
C2550 N2554 1.427 . S
C2551 H2541 0.929 . S
C2551 C2549 1.433 . S
C2551 N2554 1.384 . S
C2552 H2543 0.929 . S
C2552 C2544 1.378 . S
C2552 C2547 1.350 . S
C2553 H2540 0.929 . S
C2553 C2545 1.433 . S
C2553 N2555 1.384 . S
N2554 C2550 1.427 . S
N2554 C2551 1.384 . S
N2555 C2547 1.427 . S
N2555 C2553 1.384 . S
H2556 C2562 0.930 . S
H2557 C2566 0.930 . S
H2558 C2571 0.929 . S
H2559 C2569 0.929 . S
H2560 C2564 0.929 . S
H2561 C2570 0.929 . S
C2562 H2556 0.930 . S
C2562 C2563 1.367 . S
C2562 C2570 1.378 . S
C2563 C2562 1.367 . S
C2563 C2571 1.433 . S
C2564 H2560 0.929 . S
C2564 C2566 1.378 . S
C2564 C2568 1.350 . S
C2565 C2568 1.463 . S
C2565 C2570 1.350 . S
C2565 N2573 1.427 . S
C2566 H2557 0.930 . S
C2566 C2564 1.378 . S
C2566 C2567 1.367 . S
C2567 C2566 1.367 . S
C2567 C2569 1.433 . S
C2568 C2564 1.350 . S
C2568 C2565 1.463 . S
C2568 N2572 1.427 . S
C2569 H2559 0.929 . S
C2569 C2567 1.433 . S
C2569 N2572 1.384 . S
C2570 H2561 0.929 . S
C2570 C2562 1.378 . S
C2570 C2565 1.350 . S
C2571 H2558 0.929 . S
C2571 C2563 1.433 . S
C2571 N2573 1.384 . S
N2572 C2568 1.427 . S
N2572 C2569 1.384 . S
N2573 C2565 1.427 . S
N2573 C2571 1.384 . S
H2574 C2580 0.930 . S
H2575 C2584 0.930 . S
H2576 C2589 0.929 . S
H2577 C2587 0.929 . S
H2578 C2582 0.929 . S
H2579 C2588 0.929 . S
C2580 H2574 0.930 . S
C2580 C2581 1.367 . S
C2580 C2588 1.378 . S
C2581 C2580 1.367 . S
C2581 C2589 1.433 . S
C2582 H2578 0.929 . S
C2582 C2584 1.378 . S
C2582 C2586 1.350 . S
C2583 C2586 1.463 . S
C2583 C2588 1.350 . S
C2583 N2591 1.427 . S
C2584 H2575 0.930 . S
C2584 C2582 1.378 . S
C2584 C2585 1.367 . S
C2585 C2584 1.367 . S
C2585 C2587 1.433 . S
C2586 C2582 1.350 . S
C2586 C2583 1.463 . S
C2586 N2590 1.427 . S
C2587 H2577 0.929 . S
C2587 C2585 1.433 . S
C2587 N2590 1.384 . S
C2588 H2579 0.929 . S
C2588 C2580 1.378 . S
C2588 C2583 1.350 . S
C2589 H2576 0.929 . S
C2589 C2581 1.433 . S
C2589 N2591 1.384 . S
N2590 C2586 1.427 . S
N2590 C2587 1.384 . S
N2591 C2583 1.427 . S
N2591 C2589 1.384 . S
H2592 C2598 0.930 . S
H2593 C2602 0.930 . S
H2594 C2607 0.929 . S
H2595 C2605 0.929 . S
H2596 C2600 0.929 . S
H2597 C2606 0.929 . S
C2598 H2592 0.930 . S
C2598 C2599 1.367 . S
C2598 C2606 1.378 . S
C2599 C2598 1.367 . S
C2599 C2607 1.433 . S
C2600 H2596 0.929 . S
C2600 C2602 1.378 . S
C2600 C2604 1.350 . S
C2601 C2604 1.463 . S
C2601 C2606 1.350 . S
C2601 N2609 1.427 . S
C2602 H2593 0.930 . S
C2602 C2600 1.378 . S
C2602 C2603 1.367 . S
C2603 C2602 1.367 . S
C2603 C2605 1.433 . S
C2604 C2600 1.350 . S
C2604 C2601 1.463 . S
C2604 N2608 1.427 . S
C2605 H2595 0.929 . S
C2605 C2603 1.433 . S
C2605 N2608 1.384 . S
C2606 H2597 0.929 . S
C2606 C2598 1.378 . S
C2606 C2601 1.350 . S
C2607 H2594 0.929 . S
C2607 C2599 1.433 . S
C2607 N2609 1.384 . S
N2608 C2604 1.427 . S
N2608 C2605 1.384 . S
N2609 C2601 1.427 . S
N2609 C2607 1.384 . S
H2610 C2616 0.930 . S
H2611 C2620 0.930 . S
H2612 C2625 0.929 . S
H2613 C2623 0.929 . S
H2614 C2618 0.929 . S
H2615 C2624 0.929 . S
C2616 H2610 0.930 . S
C2616 C2617 1.367 . S
C2616 C2624 1.378 . S
C2617 C2616 1.367 . S
C2617 C2625 1.433 . S
C2618 H2614 0.929 . S
C2618 C2620 1.378 . S
C2618 C2622 1.350 . S
C2619 C2622 1.463 . S
C2619 C2624 1.350 . S
C2619 N2627 1.427 . S
C2620 H2611 0.930 . S
C2620 C2618 1.378 . S
C2620 C2621 1.367 . S
C2621 C2620 1.367 . S
C2621 C2623 1.433 . S
C2622 C2618 1.350 . S
C2622 C2619 1.463 . S
C2622 N2626 1.427 . S
C2623 H2613 0.929 . S
C2623 C2621 1.433 . S
C2623 N2626 1.384 . S
C2624 H2615 0.929 . S
C2624 C2616 1.378 . S
C2624 C2619 1.350 . S
C2625 H2612 0.929 . S
C2625 C2617 1.433 . S
C2625 N2627 1.384 . S
N2626 C2622 1.427 . S
N2626 C2623 1.384 . S
N2627 C2619 1.427 . S
N2627 C2625 1.384 . S
H2628 C2634 0.930 . S
H2629 C2638 0.930 . S
H2630 C2643 0.929 . S
H2631 C2641 0.929 . S
H2632 C2636 0.929 . S
H2633 C2642 0.929 . S
C2634 H2628 0.930 . S
C2634 C2635 1.367 . S
C2634 C2642 1.378 . S
C2635 C2634 1.367 . S
C2635 C2643 1.433 . S
C2636 H2632 0.929 . S
C2636 C2638 1.378 . S
C2636 C2640 1.350 . S
C2637 C2640 1.463 . S
C2637 C2642 1.350 . S
C2637 N2645 1.427 . S
C2638 H2629 0.930 . S
C2638 C2636 1.378 . S
C2638 C2639 1.367 . S
C2639 C2638 1.367 . S
C2639 C2641 1.433 . S
C2640 C2636 1.350 . S
C2640 C2637 1.463 . S
C2640 N2644 1.427 . S
C2641 H2631 0.929 . S
C2641 C2639 1.433 . S
C2641 N2644 1.384 . S
C2642 H2633 0.929 . S
C2642 C2634 1.378 . S
C2642 C2637 1.350 . S
C2643 H2630 0.929 . S
C2643 C2635 1.433 . S
C2643 N2645 1.384 . S
N2644 C2640 1.427 . S
N2644 C2641 1.384 . S
N2645 C2637 1.427 . S
N2645 C2643 1.384 . S
H2646 C2652 0.930 . S
H2647 C2656 0.930 . S
H2648 C2661 0.929 . S
H2649 C2659 0.929 . S
H2650 C2654 0.929 . S
H2651 C2660 0.929 . S
C2652 H2646 0.930 . S
C2652 C2653 1.367 . S
C2652 C2660 1.378 . S
C2653 C2652 1.367 . S
C2653 C2661 1.433 . S
C2654 H2650 0.929 . S
C2654 C2656 1.378 . S
C2654 C2658 1.350 . S
C2655 C2658 1.463 . S
C2655 C2660 1.350 . S
C2655 N2663 1.427 . S
C2656 H2647 0.930 . S
C2656 C2654 1.378 . S
C2656 C2657 1.367 . S
C2657 C2656 1.367 . S
C2657 C2659 1.433 . S
C2658 C2654 1.350 . S
C2658 C2655 1.463 . S
C2658 N2662 1.427 . S
C2659 H2649 0.929 . S
C2659 C2657 1.433 . S
C2659 N2662 1.384 . S
C2660 H2651 0.929 . S
C2660 C2652 1.378 . S
C2660 C2655 1.350 . S
C2661 H2648 0.929 . S
C2661 C2653 1.433 . S
C2661 N2663 1.384 . S
N2662 C2658 1.427 . S
N2662 C2659 1.384 . S
N2663 C2655 1.427 . S
N2663 C2661 1.384 . S
H2664 C2670 0.930 . S
H2665 C2674 0.930 . S
H2666 C2679 0.929 . S
H2667 C2677 0.929 . S
H2668 C2672 0.929 1_655 S
H2669 C2678 0.929 1_455 S
C2670 H2664 0.930 . S
C2670 C2671 1.367 . S
C2670 C2678 1.378 . S
C2671 C2670 1.367 . S
C2671 C2679 1.433 . S
C2672 H2668 0.929 1_455 S
C2672 C2674 1.378 . S
C2672 C2676 1.350 . S
C2673 C2676 1.463 1_655 S
C2673 C2678 1.350 . S
C2673 N2681 1.427 . S
C2674 H2665 0.930 . S
C2674 C2672 1.378 . S
C2674 C2675 1.367 . S
C2675 C2674 1.367 . S
C2675 C2677 1.433 . S
C2676 C2672 1.350 . S
C2676 C2673 1.463 1_455 S
C2676 N2680 1.427 . S
C2677 H2667 0.929 . S
C2677 C2675 1.433 . S
C2677 N2680 1.384 . S
C2678 H2669 0.929 1_655 S
C2678 C2670 1.378 . S
C2678 C2673 1.350 . S
C2679 H2666 0.929 . S
C2679 C2671 1.433 . S
C2679 N2681 1.384 . S
N2680 C2676 1.427 . S
N2680 C2677 1.384 . S
N2681 C2673 1.427 . S
N2681 C2679 1.384 . S
H2682 C2688 0.930 . S
H2683 C2692 0.930 . S
H2684 C2697 0.929 . S
H2685 C2695 0.929 . S
H2686 C2690 0.929 . S
H2687 C2696 0.929 . S
C2688 H2682 0.930 . S
C2688 C2689 1.367 . S
C2688 C2696 1.378 . S
C2689 C2688 1.367 . S
C2689 C2697 1.433 . S
C2690 H2686 0.929 . S
C2690 C2692 1.378 . S
C2690 C2694 1.350 . S
C2691 C2694 1.463 . S
C2691 C2696 1.350 . S
C2691 N2699 1.427 . S
C2692 H2683 0.930 . S
C2692 C2690 1.378 . S
C2692 C2693 1.367 . S
C2693 C2692 1.367 . S
C2693 C2695 1.433 . S
C2694 C2690 1.350 . S
C2694 C2691 1.463 . S
C2694 N2698 1.427 . S
C2695 H2685 0.929 . S
C2695 C2693 1.433 . S
C2695 N2698 1.384 . S
C2696 H2687 0.929 . S
C2696 C2688 1.378 . S
C2696 C2691 1.350 . S
C2697 H2684 0.929 . S
C2697 C2689 1.433 . S
C2697 N2699 1.384 . S
N2698 C2694 1.427 . S
N2698 C2695 1.384 . S
N2699 C2691 1.427 . S
N2699 C2697 1.384 . S
H2700 C2706 0.930 . S
H2701 C2710 0.930 . S
H2702 C2715 0.929 . S
H2703 C2713 0.929 . S
H2704 C2708 0.929 . S
H2705 C2714 0.929 . S
C2706 H2700 0.930 . S
C2706 C2707 1.367 . S
C2706 C2714 1.378 . S
C2707 C2706 1.367 . S
C2707 C2715 1.433 . S
C2708 H2704 0.929 . S
C2708 C2710 1.378 . S
C2708 C2712 1.350 . S
C2709 C2712 1.463 1_545 S
C2709 C2714 1.350 . S
C2709 N2717 1.427 1_545 S
C2710 H2701 0.930 . S
C2710 C2708 1.378 . S
C2710 C2711 1.367 . S
C2711 C2710 1.367 . S
C2711 C2713 1.433 . S
C2712 C2708 1.350 . S
C2712 C2709 1.463 1_565 S
C2712 N2716 1.427 1_565 S
C2713 H2703 0.929 . S
C2713 C2711 1.433 . S
C2713 N2716 1.384 1_565 S
C2714 H2705 0.929 . S
C2714 C2706 1.378 . S
C2714 C2709 1.350 . S
C2715 H2702 0.929 . S
C2715 C2707 1.433 . S
C2715 N2717 1.384 1_545 S
N2716 C2712 1.427 1_545 S
N2716 C2713 1.384 1_545 S
N2717 C2709 1.427 1_565 S
N2717 C2715 1.384 1_565 S
H2718 C2724 0.930 . S
H2719 C2728 0.930 . S
H2720 C2733 0.929 . S
H2721 C2731 0.929 . S
H2722 C2726 0.929 . S
H2723 C2732 0.929 . S
C2724 H2718 0.930 . S
C2724 C2725 1.367 . S
C2724 C2732 1.378 1_545 S
C2725 C2724 1.367 . S
C2725 C2733 1.433 . S
C2726 H2722 0.929 . S
C2726 C2728 1.378 1_545 S
C2726 C2730 1.350 1_545 S
C2727 C2730 1.463 1_545 S
C2727 C2732 1.350 1_545 S
C2727 N2735 1.427 . S
C2728 H2719 0.930 . S
C2728 C2726 1.378 1_565 S
C2728 C2729 1.367 . S
C2729 C2728 1.367 . S
C2729 C2731 1.433 . S
C2730 C2726 1.350 1_565 S
C2730 C2727 1.463 1_565 S
C2730 N2734 1.427 . S
C2731 H2721 0.929 . S
C2731 C2729 1.433 . S
C2731 N2734 1.384 . S
C2732 H2723 0.929 . S
C2732 C2724 1.378 1_565 S
C2732 C2727 1.350 1_565 S
C2733 H2720 0.929 . S
C2733 C2725 1.433 . S
C2733 N2735 1.384 . S
N2734 C2730 1.427 . S
N2734 C2731 1.384 . S
N2735 C2727 1.427 . S
N2735 C2733 1.384 . S
H2736 C2742 0.930 . S
H2737 C2746 0.930 . S
H2738 C2751 0.929 . S
H2739 C2749 0.929 . S
H2740 C2744 0.929 . S
H2741 C2750 0.929 . S
C2742 H2736 0.930 . S
C2742 C2743 1.367 . S
C2742 C2750 1.378 1_455 S
C2743 C2742 1.367 . S
C2743 C2751 1.433 . S
C2744 H2740 0.929 . S
C2744 C2746 1.378 1_455 S
C2744 C2748 1.350 1_455 S
C2745 C2748 1.463 1_455 S
C2745 C2750 1.350 1_455 S
C2745 N2753 1.427 . S
C2746 H2737 0.930 . S
C2746 C2744 1.378 1_655 S
C2746 C2747 1.367 . S
C2747 C2746 1.367 . S
C2747 C2749 1.433 . S
C2748 C2744 1.350 1_655 S
C2748 C2745 1.463 1_655 S
C2748 N2752 1.427 . S
C2749 H2739 0.929 . S
C2749 C2747 1.433 . S
C2749 N2752 1.384 . S
C2750 H2741 0.929 . S
C2750 C2742 1.378 1_655 S
C2750 C2745 1.350 1_655 S
C2751 H2738 0.929 . S
C2751 C2743 1.433 . S
C2751 N2753 1.384 . S
N2752 C2748 1.427 . S
N2752 C2749 1.384 . S
N2753 C2745 1.427 . S
N2753 C2751 1.384 . S
H2754 C2760 0.930 . S
H2755 C2764 0.930 . S
H2756 C2769 0.929 . S
H2757 C2767 0.929 . S
H2758 C2762 0.929 . S
H2759 C2768 0.929 . S
C2760 H2754 0.930 . S
C2760 C2761 1.367 . S
C2760 C2768 1.378 . S
C2761 C2760 1.367 . S
C2761 C2769 1.433 . S
C2762 H2758 0.929 . S
C2762 C2764 1.378 . S
C2762 C2766 1.350 . S
C2763 C2766 1.463 . S
C2763 C2768 1.350 . S
C2763 N2771 1.427 . S
C2764 H2755 0.930 . S
C2764 C2762 1.378 . S
C2764 C2765 1.367 . S
C2765 C2764 1.367 . S
C2765 C2767 1.433 . S
C2766 C2762 1.350 . S
C2766 C2763 1.463 . S
C2766 N2770 1.427 . S
C2767 H2757 0.929 . S
C2767 C2765 1.433 . S
C2767 N2770 1.384 . S
C2768 H2759 0.929 . S
C2768 C2760 1.378 . S
C2768 C2763 1.350 . S
C2769 H2756 0.929 . S
C2769 C2761 1.433 . S
C2769 N2771 1.384 . S
N2770 C2766 1.427 . S
N2770 C2767 1.384 . S
N2771 C2763 1.427 . S
N2771 C2769 1.384 . S
H2772 C2778 0.930 . S
H2773 C2782 0.930 . S
H2774 C2787 0.929 . S
H2775 C2785 0.929 . S
H2776 C2780 0.929 . S
H2777 C2786 0.929 . S
C2778 H2772 0.930 . S
C2778 C2779 1.367 . S
C2778 C2786 1.378 . S
C2779 C2778 1.367 . S
C2779 C2787 1.433 . S
C2780 H2776 0.929 . S
C2780 C2782 1.378 . S
C2780 C2784 1.350 . S
C2781 C2784 1.463 1_655 S
C2781 C2786 1.350 . S
C2781 N2789 1.427 . S
C2782 H2773 0.930 . S
C2782 C2780 1.378 . S
C2782 C2783 1.367 . S
C2783 C2782 1.367 . S
C2783 C2785 1.433 . S
C2784 C2780 1.350 . S
C2784 C2781 1.463 1_455 S
C2784 N2788 1.427 . S
C2785 H2775 0.929 . S
C2785 C2783 1.433 . S
C2785 N2788 1.384 . S
C2786 H2777 0.929 . S
C2786 C2778 1.378 . S
C2786 C2781 1.350 . S
C2787 H2774 0.929 . S
C2787 C2779 1.433 . S
C2787 N2789 1.384 . S
N2788 C2784 1.427 . S
N2788 C2785 1.384 . S
N2789 C2781 1.427 . S
N2789 C2787 1.384 . S
H2790 C2796 0.930 . S
H2791 C2800 0.930 . S
H2792 C2805 0.929 . S
H2793 C2803 0.929 . S
H2794 C2798 0.929 . S
H2795 C2804 0.929 . S
C2796 H2790 0.930 . S
C2796 C2797 1.367 . S
C2796 C2804 1.378 . S
C2797 C2796 1.367 . S
C2797 C2805 1.433 . S
C2798 H2794 0.929 . S
C2798 C2800 1.378 . S
C2798 C2802 1.350 . S
C2799 C2802 1.463 . S
C2799 C2804 1.350 . S
C2799 N2807 1.427 . S
C2800 H2791 0.930 . S
C2800 C2798 1.378 . S
C2800 C2801 1.367 . S
C2801 C2800 1.367 . S
C2801 C2803 1.433 . S
C2802 C2798 1.350 . S
C2802 C2799 1.463 . S
C2802 N2806 1.427 . S
C2803 H2793 0.929 . S
C2803 C2801 1.433 . S
C2803 N2806 1.384 . S
C2804 H2795 0.929 . S
C2804 C2796 1.378 . S
C2804 C2799 1.350 . S
C2805 H2792 0.929 . S
C2805 C2797 1.433 . S
C2805 N2807 1.384 . S
N2806 C2802 1.427 . S
N2806 C2803 1.384 . S
N2807 C2799 1.427 . S
N2807 C2805 1.384 . S
H2808 C2814 0.930 . S
H2809 C2818 0.930 . S
H2810 C2823 0.929 . S
H2811 C2821 0.929 . S
H2812 C2816 0.929 . S
H2813 C2822 0.929 . S
C2814 H2808 0.930 . S
C2814 C2815 1.367 . S
C2814 C2822 1.378 . S
C2815 C2814 1.367 . S
C2815 C2823 1.433 . S
C2816 H2812 0.929 . S
C2816 C2818 1.378 . S
C2816 C2820 1.350 . S
C2817 C2820 1.463 1_545 S
C2817 C2822 1.350 . S
C2817 N2825 1.427 . S
C2818 H2809 0.930 . S
C2818 C2816 1.378 . S
C2818 C2819 1.367 . S
C2819 C2818 1.367 . S
C2819 C2821 1.433 . S
C2820 C2816 1.350 . S
C2820 C2817 1.463 1_565 S
C2820 N2824 1.427 . S
C2821 H2811 0.929 . S
C2821 C2819 1.433 . S
C2821 N2824 1.384 . S
C2822 H2813 0.929 . S
C2822 C2814 1.378 . S
C2822 C2817 1.350 . S
C2823 H2810 0.929 . S
C2823 C2815 1.433 . S
C2823 N2825 1.384 . S
N2824 C2820 1.427 . S
N2824 C2821 1.384 . S
N2825 C2817 1.427 . S
N2825 C2823 1.384 . S
H2826 C2832 0.930 . S
H2827 C2836 0.930 . S
H2828 C2841 0.929 . S
H2829 C2839 0.929 . S
H2830 C2834 0.929 . S
H2831 C2840 0.929 . S
C2832 H2826 0.930 . S
C2832 C2833 1.367 . S
C2832 C2840 1.378 1_655 S
C2833 C2832 1.367 . S
C2833 C2841 1.433 . S
C2834 H2830 0.929 . S
C2834 C2836 1.378 1_655 S
C2834 C2838 1.350 1_655 S
C2835 C2838 1.463 1_655 S
C2835 C2840 1.350 1_655 S
C2835 N2843 1.427 . S
C2836 H2827 0.930 . S
C2836 C2834 1.378 1_455 S
C2836 C2837 1.367 . S
C2837 C2836 1.367 . S
C2837 C2839 1.433 . S
C2838 C2834 1.350 1_455 S
C2838 C2835 1.463 1_455 S
C2838 N2842 1.427 . S
C2839 H2829 0.929 . S
C2839 C2837 1.433 . S
C2839 N2842 1.384 . S
C2840 H2831 0.929 . S
C2840 C2832 1.378 1_455 S
C2840 C2835 1.350 1_455 S
C2841 H2828 0.929 . S
C2841 C2833 1.433 . S
C2841 N2843 1.384 . S
N2842 C2838 1.427 . S
N2842 C2839 1.384 . S
N2843 C2835 1.427 . S
N2843 C2841 1.384 . S
H2844 C2850 0.930 . S
H2845 C2854 0.930 . S
H2846 C2859 0.929 . S
H2847 C2857 0.929 . S
H2848 C2852 0.929 . S
H2849 C2858 0.929 . S
C2850 H2844 0.930 . S
C2850 C2851 1.367 . S
C2850 C2858 1.378 . S
C2851 C2850 1.367 . S
C2851 C2859 1.433 . S
C2852 H2848 0.929 . S
C2852 C2854 1.378 . S
C2852 C2856 1.350 . S
C2853 C2856 1.463 . S
C2853 C2858 1.350 . S
C2853 N2861 1.427 . S
C2854 H2845 0.930 . S
C2854 C2852 1.378 . S
C2854 C2855 1.367 . S
C2855 C2854 1.367 . S
C2855 C2857 1.433 . S
C2856 C2852 1.350 . S
C2856 C2853 1.463 . S
C2856 N2860 1.427 . S
C2857 H2847 0.929 . S
C2857 C2855 1.433 . S
C2857 N2860 1.384 . S
C2858 H2849 0.929 . S
C2858 C2850 1.378 . S
C2858 C2853 1.350 . S
C2859 H2846 0.929 . S
C2859 C2851 1.433 . S
C2859 N2861 1.384 . S
N2860 C2856 1.427 . S
N2860 C2857 1.384 . S
N2861 C2853 1.427 . S
N2861 C2859 1.384 . S
H2862 C2868 0.930 . S
H2863 C2872 0.930 . S
H2864 C2877 0.929 . S
H2865 C2875 0.929 . S
H2866 C2870 0.929 . S
H2867 C2876 0.929 . S
C2868 H2862 0.930 . S
C2868 C2869 1.367 . S
C2868 C2876 1.378 1_545 S
C2869 C2868 1.367 . S
C2869 C2877 1.433 . S
C2870 H2866 0.929 . S
C2870 C2872 1.378 1_545 S
C2870 C2874 1.350 1_545 S
C2871 C2874 1.463 1_545 S
C2871 C2876 1.350 1_545 S
C2871 N2879 1.427 . S
C2872 H2863 0.930 . S
C2872 C2870 1.378 1_565 S
C2872 C2873 1.367 . S
C2873 C2872 1.367 . S
C2873 C2875 1.433 . S
C2874 C2870 1.350 1_565 S
C2874 C2871 1.463 1_565 S
C2874 N2878 1.427 . S
C2875 H2865 0.929 . S
C2875 C2873 1.433 . S
C2875 N2878 1.384 . S
C2876 H2867 0.929 . S
C2876 C2868 1.378 1_565 S
C2876 C2871 1.350 1_565 S
C2877 H2864 0.929 . S
C2877 C2869 1.433 . S
C2877 N2879 1.384 . S
N2878 C2874 1.427 . S
N2878 C2875 1.384 . S
N2879 C2871 1.427 . S
N2879 C2877 1.384 . S
H2880 C2886 0.930 . S
H2881 C2890 0.930 . S
H2882 C2895 0.929 . S
H2883 C2893 0.929 . S
H2884 C2888 0.929 . S
H2885 C2894 0.929 . S
C2886 H2880 0.930 . S
C2886 C2887 1.367 . S
C2886 C2894 1.378 . S
C2887 C2886 1.367 . S
C2887 C2895 1.433 . S
C2888 H2884 0.929 . S
C2888 C2890 1.378 . S
C2888 C2892 1.350 . S
C2889 C2892 1.463 . S
C2889 C2894 1.350 . S
C2889 N2897 1.427 . S
C2890 H2881 0.930 . S
C2890 C2888 1.378 . S
C2890 C2891 1.367 . S
C2891 C2890 1.367 . S
C2891 C2893 1.433 . S
C2892 C2888 1.350 . S
C2892 C2889 1.463 . S
C2892 N2896 1.427 . S
C2893 H2883 0.929 . S
C2893 C2891 1.433 . S
C2893 N2896 1.384 . S
C2894 H2885 0.929 . S
C2894 C2886 1.378 . S
C2894 C2889 1.350 . S
C2895 H2882 0.929 . S
C2895 C2887 1.433 . S
C2895 N2897 1.384 . S
N2896 C2892 1.427 . S
N2896 C2893 1.384 . S
N2897 C2889 1.427 . S
N2897 C2895 1.384 . S
H2898 C2904 0.930 . S
H2899 C2908 0.930 . S
H2900 C2913 0.929 . S
H2901 C2911 0.929 . S
H2902 C2906 0.929 . S
H2903 C2912 0.929 . S
C2904 H2898 0.930 . S
C2904 C2905 1.367 . S
C2904 C2912 1.378 . S
C2905 C2904 1.367 . S
C2905 C2913 1.433 . S
C2906 H2902 0.929 . S
C2906 C2908 1.378 . S
C2906 C2910 1.350 . S
C2907 C2910 1.463 . S
C2907 C2912 1.350 . S
C2907 N2915 1.427 . S
C2908 H2899 0.930 . S
C2908 C2906 1.378 . S
C2908 C2909 1.367 . S
C2909 C2908 1.367 . S
C2909 C2911 1.433 . S
C2910 C2906 1.350 . S
C2910 C2907 1.463 . S
C2910 N2914 1.427 . S
C2911 H2901 0.929 . S
C2911 C2909 1.433 . S
C2911 N2914 1.384 . S
C2912 H2903 0.929 . S
C2912 C2904 1.378 . S
C2912 C2907 1.350 . S
C2913 H2900 0.929 . S
C2913 C2905 1.433 . S
C2913 N2915 1.384 . S
N2914 C2910 1.427 . S
N2914 C2911 1.384 . S
N2915 C2907 1.427 . S
N2915 C2913 1.384 . S
H2916 C2922 0.930 . S
H2917 C2926 0.930 . S
H2918 C2931 0.929 . S
H2919 C2929 0.929 . S
H2920 C2924 0.929 . S
H2921 C2930 0.929 . S
C2922 H2916 0.930 . S
C2922 C2923 1.367 . S
C2922 C2930 1.378 . S
C2923 C2922 1.367 . S
C2923 C2931 1.433 . S
C2924 H2920 0.929 . S
C2924 C2926 1.378 . S
C2924 C2928 1.350 . S
C2925 C2928 1.463 . S
C2925 C2930 1.350 . S
C2925 N2933 1.427 . S
C2926 H2917 0.930 . S
C2926 C2924 1.378 . S
C2926 C2927 1.367 . S
C2927 C2926 1.367 . S
C2927 C2929 1.433 . S
C2928 C2924 1.350 . S
C2928 C2925 1.463 . S
C2928 N2932 1.427 . S
C2929 H2919 0.929 . S
C2929 C2927 1.433 . S
C2929 N2932 1.384 . S
C2930 H2921 0.929 . S
C2930 C2922 1.378 . S
C2930 C2925 1.350 . S
C2931 H2918 0.929 . S
C2931 C2923 1.433 . S
C2931 N2933 1.384 . S
N2932 C2928 1.427 . S
N2932 C2929 1.384 . S
N2933 C2925 1.427 . S
N2933 C2931 1.384 . S
H2934 C2940 0.930 . S
H2935 C2944 0.930 . S
H2936 C2949 0.929 . S
H2937 C2947 0.929 . S
H2938 C2942 0.929 . S
H2939 C2948 0.929 . S
C2940 H2934 0.930 . S
C2940 C2941 1.367 . S
C2940 C2948 1.378 . S
C2941 C2940 1.367 . S
C2941 C2949 1.433 . S
C2942 H2938 0.929 . S
C2942 C2944 1.378 . S
C2942 C2946 1.350 . S
C2943 C2946 1.463 . S
C2943 C2948 1.350 . S
C2943 N2951 1.427 . S
C2944 H2935 0.930 . S
C2944 C2942 1.378 . S
C2944 C2945 1.367 . S
C2945 C2944 1.367 . S
C2945 C2947 1.433 . S
C2946 C2942 1.350 . S
C2946 C2943 1.463 . S
C2946 N2950 1.427 . S
C2947 H2937 0.929 . S
C2947 C2945 1.433 . S
C2947 N2950 1.384 . S
C2948 H2939 0.929 . S
C2948 C2940 1.378 . S
C2948 C2943 1.350 . S
C2949 H2936 0.929 . S
C2949 C2941 1.433 . S
C2949 N2951 1.384 . S
N2950 C2946 1.427 . S
N2950 C2947 1.384 . S
N2951 C2943 1.427 . S
N2951 C2949 1.384 . S
H2952 C2958 0.930 . S
H2953 C2962 0.930 . S
H2954 C2967 0.929 . S
H2955 C2965 0.929 . S
H2956 C2960 0.929 . S
H2957 C2966 0.929 . S
C2958 H2952 0.930 . S
C2958 C2959 1.367 . S
C2958 C2966 1.378 . S
C2959 C2958 1.367 . S
C2959 C2967 1.433 . S
C2960 H2956 0.929 . S
C2960 C2962 1.378 . S
C2960 C2964 1.350 . S
C2961 C2964 1.463 . S
C2961 C2966 1.350 . S
C2961 N2969 1.427 . S
C2962 H2953 0.930 . S
C2962 C2960 1.378 . S
C2962 C2963 1.367 . S
C2963 C2962 1.367 . S
C2963 C2965 1.433 . S
C2964 C2960 1.350 . S
C2964 C2961 1.463 . S
C2964 N2968 1.427 . S
C2965 H2955 0.929 . S
C2965 C2963 1.433 . S
C2965 N2968 1.384 . S
C2966 H2957 0.929 . S
C2966 C2958 1.378 . S
C2966 C2961 1.350 . S
C2967 H2954 0.929 . S
C2967 C2959 1.433 . S
C2967 N2969 1.384 . S
N2968 C2964 1.427 . S
N2968 C2965 1.384 . S
N2969 C2961 1.427 . S
N2969 C2967 1.384 . S
H2970 C2976 0.930 . S
H2971 C2980 0.930 . S
H2972 C2985 0.929 . S
H2973 C2983 0.929 . S
H2974 C2978 0.929 . S
H2975 C2984 0.929 . S
C2976 H2970 0.930 . S
C2976 C2977 1.367 . S
C2976 C2984 1.378 . S
C2977 C2976 1.367 . S
C2977 C2985 1.433 . S
C2978 H2974 0.929 . S
C2978 C2980 1.378 . S
C2978 C2982 1.350 . S
C2979 C2982 1.463 . S
C2979 C2984 1.350 . S
C2979 N2987 1.427 . S
C2980 H2971 0.930 . S
C2980 C2978 1.378 . S
C2980 C2981 1.367 . S
C2981 C2980 1.367 . S
C2981 C2983 1.433 . S
C2982 C2978 1.350 . S
C2982 C2979 1.463 . S
C2982 N2986 1.427 . S
C2983 H2973 0.929 . S
C2983 C2981 1.433 . S
C2983 N2986 1.384 . S
C2984 H2975 0.929 . S
C2984 C2976 1.378 . S
C2984 C2979 1.350 . S
C2985 H2972 0.929 . S
C2985 C2977 1.433 . S
C2985 N2987 1.384 . S
N2986 C2982 1.427 . S
N2986 C2983 1.384 . S
N2987 C2979 1.427 . S
N2987 C2985 1.384 . S
H2988 C2994 0.930 . S
H2989 C2998 0.930 . S
H2990 C3003 0.929 . S
H2991 C3001 0.929 . S
H2992 C2996 0.929 . S
H2993 C3002 0.929 . S
C2994 H2988 0.930 . S
C2994 C2995 1.367 . S
C2994 C3002 1.378 . S
C2995 C2994 1.367 . S
C2995 C3003 1.433 . S
C2996 H2992 0.929 . S
C2996 C2998 1.378 . S
C2996 C3000 1.350 . S
C2997 C3000 1.463 . S
C2997 C3002 1.350 . S
C2997 N3005 1.427 . S
C2998 H2989 0.930 . S
C2998 C2996 1.378 . S
C2998 C2999 1.367 . S
C2999 C2998 1.367 . S
C2999 C3001 1.433 . S
C3000 C2996 1.350 . S
C3000 C2997 1.463 . S
C3000 N3004 1.427 . S
C3001 H2991 0.929 . S
C3001 C2999 1.433 . S
C3001 N3004 1.384 . S
C3002 H2993 0.929 . S
C3002 C2994 1.378 . S
C3002 C2997 1.350 . S
C3003 H2990 0.929 . S
C3003 C2995 1.433 . S
C3003 N3005 1.384 . S
N3004 C3000 1.427 . S
N3004 C3001 1.384 . S
N3005 C2997 1.427 . S
N3005 C3003 1.384 . S
H3006 C3012 0.930 . S
H3007 C3016 0.930 . S
H3008 C3021 0.929 . S
H3009 C3019 0.929 . S
H3010 C3014 0.929 . S
H3011 C3020 0.929 . S
C3012 H3006 0.930 . S
C3012 C3013 1.367 . S
C3012 C3020 1.378 . S
C3013 C3012 1.367 . S
C3013 C3021 1.433 . S
C3014 H3010 0.929 . S
C3014 C3016 1.378 . S
C3014 C3018 1.350 . S
C3015 C3018 1.463 . S
C3015 C3020 1.350 . S
C3015 N3023 1.427 . S
C3016 H3007 0.930 . S
C3016 C3014 1.378 . S
C3016 C3017 1.367 . S
C3017 C3016 1.367 . S
C3017 C3019 1.433 . S
C3018 C3014 1.350 . S
C3018 C3015 1.463 . S
C3018 N3022 1.427 . S
C3019 H3009 0.929 . S
C3019 C3017 1.433 . S
C3019 N3022 1.384 . S
C3020 H3011 0.929 . S
C3020 C3012 1.378 . S
C3020 C3015 1.350 . S
C3021 H3008 0.929 . S
C3021 C3013 1.433 . S
C3021 N3023 1.384 . S
N3022 C3018 1.427 . S
N3022 C3019 1.384 . S
N3023 C3015 1.427 . S
N3023 C3021 1.384 . S
H3024 C3030 0.930 . S
H3025 C3034 0.930 . S
H3026 C3039 0.929 . S
H3027 C3037 0.929 . S
H3028 C3032 0.929 . S
H3029 C3038 0.929 . S
C3030 H3024 0.930 . S
C3030 C3031 1.367 . S
C3030 C3038 1.378 . S
C3031 C3030 1.367 . S
C3031 C3039 1.433 . S
C3032 H3028 0.929 . S
C3032 C3034 1.378 . S
C3032 C3036 1.350 . S
C3033 C3036 1.463 . S
C3033 C3038 1.350 . S
C3033 N3041 1.427 . S
C3034 H3025 0.930 . S
C3034 C3032 1.378 . S
C3034 C3035 1.367 . S
C3035 C3034 1.367 . S
C3035 C3037 1.433 . S
C3036 C3032 1.350 . S
C3036 C3033 1.463 . S
C3036 N3040 1.427 . S
C3037 H3027 0.929 . S
C3037 C3035 1.433 . S
C3037 N3040 1.384 . S
C3038 H3029 0.929 . S
C3038 C3030 1.378 . S
C3038 C3033 1.350 . S
C3039 H3026 0.929 . S
C3039 C3031 1.433 . S
C3039 N3041 1.384 . S
N3040 C3036 1.427 . S
N3040 C3037 1.384 . S
N3041 C3033 1.427 . S
N3041 C3039 1.384 . S
H3042 C3048 0.930 . S
H3043 C3052 0.930 . S
H3044 C3057 0.929 . S
H3045 C3055 0.929 . S
H3046 C3050 0.929 . S
H3047 C3056 0.929 . S
C3048 H3042 0.930 . S
C3048 C3049 1.367 . S
C3048 C3056 1.378 . S
C3049 C3048 1.367 . S
C3049 C3057 1.433 . S
C3050 H3046 0.929 . S
C3050 C3052 1.378 . S
C3050 C3054 1.350 . S
C3051 C3054 1.463 . S
C3051 C3056 1.350 . S
C3051 N3059 1.427 . S
C3052 H3043 0.930 . S
C3052 C3050 1.378 . S
C3052 C3053 1.367 . S
C3053 C3052 1.367 . S
C3053 C3055 1.433 . S
C3054 C3050 1.350 . S
C3054 C3051 1.463 . S
C3054 N3058 1.427 . S
C3055 H3045 0.929 . S
C3055 C3053 1.433 . S
C3055 N3058 1.384 . S
C3056 H3047 0.929 . S
C3056 C3048 1.378 . S
C3056 C3051 1.350 . S
C3057 H3044 0.929 . S
C3057 C3049 1.433 . S
C3057 N3059 1.384 . S
N3058 C3054 1.427 . S
N3058 C3055 1.384 . S
N3059 C3051 1.427 . S
N3059 C3057 1.384 . S
H3060 C3066 0.930 . S
H3061 C3070 0.930 . S
H3062 C3075 0.929 . S
H3063 C3073 0.929 . S
H3064 C3068 0.929 . S
H3065 C3074 0.929 . S
C3066 H3060 0.930 . S
C3066 C3067 1.367 . S
C3066 C3074 1.378 . S
C3067 C3066 1.367 . S
C3067 C3075 1.433 . S
C3068 H3064 0.929 . S
C3068 C3070 1.378 . S
C3068 C3072 1.350 . S
C3069 C3072 1.463 . S
C3069 C3074 1.350 . S
C3069 N3077 1.427 . S
C3070 H3061 0.930 . S
C3070 C3068 1.378 . S
C3070 C3071 1.367 . S
C3071 C3070 1.367 . S
C3071 C3073 1.433 . S
C3072 C3068 1.350 . S
C3072 C3069 1.463 . S
C3072 N3076 1.427 . S
C3073 H3063 0.929 . S
C3073 C3071 1.433 . S
C3073 N3076 1.384 . S
C3074 H3065 0.929 . S
C3074 C3066 1.378 . S
C3074 C3069 1.350 . S
C3075 H3062 0.929 . S
C3075 C3067 1.433 . S
C3075 N3077 1.384 . S
N3076 C3072 1.427 . S
N3076 C3073 1.384 . S
N3077 C3069 1.427 . S
N3077 C3075 1.384 . S
H3078 C3084 0.930 . S
H3079 C3088 0.930 . S
H3080 C3093 0.929 . S
H3081 C3091 0.929 . S
H3082 C3086 0.929 . S
H3083 C3092 0.929 . S
C3084 H3078 0.930 . S
C3084 C3085 1.367 . S
C3084 C3092 1.378 . S
C3085 C3084 1.367 . S
C3085 C3093 1.433 . S
C3086 H3082 0.929 . S
C3086 C3088 1.378 . S
C3086 C3090 1.350 . S
C3087 C3090 1.463 . S
C3087 C3092 1.350 . S
C3087 N3095 1.427 . S
C3088 H3079 0.930 . S
C3088 C3086 1.378 . S
C3088 C3089 1.367 . S
C3089 C3088 1.367 . S
C3089 C3091 1.433 . S
C3090 C3086 1.350 . S
C3090 C3087 1.463 . S
C3090 N3094 1.427 . S
C3091 H3081 0.929 . S
C3091 C3089 1.433 . S
C3091 N3094 1.384 . S
C3092 H3083 0.929 . S
C3092 C3084 1.378 . S
C3092 C3087 1.350 . S
C3093 H3080 0.929 . S
C3093 C3085 1.433 . S
C3093 N3095 1.384 . S
N3094 C3090 1.427 . S
N3094 C3091 1.384 . S
N3095 C3087 1.427 . S
N3095 C3093 1.384 . S
C1159 N18 1.098 . S
C1163 C66 1.100 . S
C1177 C2 1.103 . S
C1181 N50 1.101 . S
C1195 N82 1.107 . S
C1199 C34 1.108 . S
C1213 N109 1.098 . S
C1217 C134 1.099 . S
C1231 C166 1.108 . S
C1235 N141 1.107 . S
C1249 N173 1.100 . S
C1253 C102 1.101 . S
C1267 C198 1.701 . S
C1271 N274 1.713 . S
C1285 C226 1.699 . S
C1289 N205 1.711 . S
C1303 C258 1.705 . S
C1307 N242 1.713 . S
C1321 C294 1.701 . S
C1325 N333 1.713 . S
C1339 N365 1.713 . S
C1343 C326 1.703 . S
C1357 N301 1.710 . S
C1361 C358 1.701 . S
C1375 C450 1.102 . S
C1379 N402 1.100 . S
C1393 N434 1.100 . S
C1397 C386 1.102 . S
C1411 C418 1.108 . S
C1415 N466 1.107 . S
C1429 N493 1.107 . S
C1433 C518 1.108 . S
C1447 C550 1.103 . S
C1451 N525 1.102 . S
C1465 C486 1.106 . S
C1469 N557 1.106 . S
C1483 C582 1.703 . S
C1487 N658 1.710 . S
C1501 C614 1.704 . S
C1505 N589 1.711 . S
C1519 N621 1.710 . S
C1523 C642 1.700 . S
C1537 N717 1.709 . S
C1541 C674 1.699 1_556 S
C1555 C710 1.698 1_556 S
C1559 N754 1.711 . S
C1573 N690 1.712 . S
C1577 C738 1.698 1_556 S
C1591 N786 1.107 . S
C1595 C834 1.108 . S
C1609 N818 1.106 . S
C1613 C770 1.107 . S
C1627 N850 1.100 . S
C1631 C802 1.102 . S
C1645 N877 1.098 . S
C1649 C902 1.100 . S
C1663 N909 1.098 . S
C1667 C934 1.100 . S
C1681 N941 1.104 . S
C1685 C870 1.105 . S
C1699 C962 1.705 . S
C1703 N1037 1.713 . S
C1717 C994 1.698 . S
C1721 N978 1.711 . S
C1735 N1010 1.712 . S
C1739 C1030 1.700 . S
C1753 C1062 1.704 . S
C1757 N1101 1.711 . S
C1771 C1094 1.702 . S
C1775 N1133 1.710 . S
C1789 N1069 1.710 . S
C1793 C1126 1.698 . S
C1807 C29 1.346 . S
C1811 C669 1.374 . S
C1825 C580 1.374 . S
C1829 C61 1.348 . S
C1843 C93 1.335 . S
C1847 C612 1.378 . S
C1861 C100 1.338 . S
C1865 C1092 1.376 . S
C1879 C1124 1.379 . S
C1883 C132 1.337 . S
C1897 C164 1.341 . S
C1901 C1060 1.375 . S
C1915 N845 0.843 . S
C1919 N210 0.793 . S
C1933 N237 0.817 . S
C1937 N781 0.819 . S
C1951 N269 0.814 . S
C1955 N813 0.820 . S
C1969 N530 0.838 . S
C1973 N306 0.820 . S
C1987 N562 0.831 . S
C1991 N338 0.829 . S
C2005 N498 0.827 . S
C2009 N370 0.831 . S
C2023 C413 1.339 . S
C2027 C1028 1.376 . S
C2041 C445 1.344 . S
C2045 C989 1.374 . S
C2059 C1021 1.378 . S
C2063 C477 1.340 . S
C2077 C324 1.374 . S
C2081 C484 1.344 . S
C2095 C356 1.377 . S
C2099 C516 1.336 . S
C2113 C292 1.379 . S
C2117 C548 1.338 . S
C2131 N77 0.820 . S
C2135 N594 0.831 . S
C2149 N626 0.826 . S
C2153 N13 0.818 . S
C2167 N653 0.818 . S
C2171 N45 0.839 . S
C2185 N914 0.842 . S
C2189 N685 0.813 . S
C2203 N946 0.818 . S
C2207 N722 0.820 . S
C2221 N749 0.806 . S
C2225 N882 0.844 . S
C2239 C285 1.379 . S
C2243 C797 1.338 . S
C2257 C196 1.374 . S
C2261 C829 1.344 . S
C2275 C253 1.377 . S
C2279 C861 1.345 . S
C2293 C868 1.339 . S
C2297 C708 1.379 1_556 S
C2311 C765 1.378 1_556 S
C2315 C900 1.341 . S
C2329 C932 1.335 . S
C2333 C701 1.378 1_556 S
C2347 N973 0.825 . S
C2351 N461 0.835 . S
C2365 N1005 0.818 . S
C2369 N397 0.840 . S
C2383 N1042 0.805 . S
C2387 N429 0.824 . S
C2401 N1074 0.799 . S
C2405 N146 0.845 . S
C2419 N178 0.832 . S
C2423 N1106 0.828 . S
C2437 N114 0.822 . S
C2441 N1138 0.832 . S
C2455 C930 1.893 . S
C2459 C6 1.890 . S
C2473 C866 1.893 . S
C2477 C38 1.890 . S
C2491 C70 1.891 . S
C2495 C898 1.895 . S
C2509 C422 1.897 . S
C2513 C98 1.893 . S
C2527 C130 1.891 . S
C2531 C454 1.896 . S
C2545 C162 1.892 . S
C2549 C390 1.897 . S
C2563 C194 1.394 . S
C2567 C742 1.394 . S
C2581 C230 1.397 . S
C2585 C678 1.397 . S
C2599 C262 1.392 . S
C2603 C706 1.392 . S
C2617 C998 1.396 . S
C2621 C290 1.395 . S
C2635 C1026 1.389 . S
C2639 C322 1.389 . S
C2653 C966 1.398 . S
C2657 C354 1.398 . S
C2671 C482 1.890 . S
C2675 C806 1.894 . S
C2689 C514 1.890 . S
C2693 C838 1.894 . S
C2707 C546 1.895 . S
C2711 C774 1.897 . S
C2725 C578 1.389 . S
C2729 C1122 1.389 . S
C2743 C1058 1.389 . S
C2747 C610 1.389 . S
C2761 C646 1.390 . S
C2765 C1090 1.390 . S
C2779 C157 2.352 . S
C2783 C4 2.351 . S
C2797 C189 2.345 . S
C2801 C36 2.344 . S
C2815 C125 2.352 . S
C2819 C68 2.352 . S
C2833 C221 1.577 . S
C2837 C349 1.572 . S
C2851 C381 1.577 . S
C2855 C228 1.572 . S
C2869 C260 1.572 . S
C2873 C317 1.577 . S
C2887 C541 2.352 . S
C2891 C388 2.348 . S
C2905 C573 2.348 . S
C2909 C420 2.351 . S
C2923 C509 2.351 . S
C2927 C452 2.352 . S
C2941 C733 1.585 . S
C2945 C605 1.579 . S
C2959 C637 1.582 . S
C2963 C740 1.573 . S
C2977 C644 1.579 . S
C2981 C676 1.572 . S
C2995 C772 2.347 . S
C2999 C925 2.351 . S
C3013 C957 2.344 . S
C3017 C804 2.345 . S
C3031 C836 2.351 . S
C3035 C893 2.352 . S
C3049 C964 1.577 . S
C3053 C1117 1.572 . S
C3067 C1149 1.584 . S
C3071 C996 1.582 . S
C3085 C1053 1.585 . S
C3089 C1085 1.581 . S
