# Generated by pormake.
# Topology mdf, (4)-cn, num edge types: 1
# Building blocks:
#     Node 0, Type 0, BuildingBlock: TATPOV_clean_sbu_0, # of connection points: 4
#     Node 1, Type 0, BuildingBlock: TATPOV_clean_sbu_0, # of connection points: 4
#     Node 2, Type 0, BuildingBlock: TATPOV_clean_sbu_0, # of connection points: 4
#     Node 3, Type 0, BuildingBlock: TATPOV_clean_sbu_0, # of connection points: 4
#     Node 4, Type 0, BuildingBlock: TATPOV_clean_sbu_0, # of connection points: 4
#     Node 5, Type 0, BuildingBlock: TATPOV_clean_sbu_0, # of connection points: 4
#     Node 6, Type 0, BuildingBlock: TATPOV_clean_sbu_0, # of connection points: 4
#     Node 7, Type 0, BuildingBlock: TATPOV_clean_sbu_0, # of connection points: 4
#     Edge 8, Type (0, 0), BuildingBlock: MIFKUJ_clean_linker_0, # of connection points: 2
#     Edge 9, Type (0, 0), BuildingBlock: MIFKUJ_clean_linker_0, # of connection points: 2
#     Edge 10, Type (0, 0), BuildingBlock: MIFKUJ_clean_linker_0, # of connection points: 2
#     Edge 11, Type (0, 0), BuildingBlock: MIFKUJ_clean_linker_0, # of connection points: 2
#     Edge 12, Type (0, 0), BuildingBlock: MIFKUJ_clean_linker_0, # of connection points: 2
#     Edge 13, Type (0, 0), BuildingBlock: MIFKUJ_clean_linker_0, # of connection points: 2
#     Edge 14, Type (0, 0), BuildingBlock: MIFKUJ_clean_linker_0, # of connection points: 2
#     Edge 15, Type (0, 0), BuildingBlock: MIFKUJ_clean_linker_0, # of connection points: 2
#     Edge 16, Type (0, 0), BuildingBlock: MIFKUJ_clean_linker_0, # of connection points: 2
#     Edge 17, Type (0, 0), BuildingBlock: MIFKUJ_clean_linker_0, # of connection points: 2
#     Edge 18, Type (0, 0), BuildingBlock: MIFKUJ_clean_linker_0, # of connection points: 2
#     Edge 19, Type (0, 0), BuildingBlock: MIFKUJ_clean_linker_0, # of connection points: 2
#     Edge 20, Type (0, 0), BuildingBlock: MIFKUJ_clean_linker_0, # of connection points: 2
#     Edge 21, Type (0, 0), BuildingBlock: MIFKUJ_clean_linker_0, # of connection points: 2
#     Edge 22, Type (0, 0), BuildingBlock: MIFKUJ_clean_linker_0, # of connection points: 2
#     Edge 23, Type (0, 0), BuildingBlock: MIFKUJ_clean_linker_0, # of connection points: 2
# Relax obj value: 0.042
# Max RMSD: 0.066
# Mean RMSD: 0.055
data_MOF--net-mdf--node1-TATPOV_clean_sbu_0--edge1-MIFKUJ_clean_linker_0
_symmetry_space_group_name_H-M    P1
_symmetry_Int_Tables_number       1
_symmetry_cell_setting            triclinic
loop_
_symmetry_equiv_pos_as_xyz
'x, y, z'
_cell_length_a     45.4565
_cell_length_b     45.451532
_cell_length_c     19.069084
_cell_angle_alpha  92.370691
_cell_angle_beta   92.362625
_cell_angle_gamma 90.181917
loop_
_atom_site_label
_atom_site_type_symbol
_atom_site_fract_x
_atom_site_fract_y
_atom_site_fract_z
_atom_type_partial_charge
Zn0 Zn 0.25768 0.51262 0.51533 0.0
Zn1 Zn 0.26292 0.54439 0.40643 0.0
O2 O 0.25463 0.57555 0.48822 0.0
O3 O 0.24596 0.54678 0.5754 0.0
O4 O 0.27027 0.56842 0.32032 0.0
O5 O 0.29962 0.5 0.51649 0.0
O6 O 0.30295 0.52222 0.41685 0.0
C7 C 0.24739 0.57224 0.55156 0.0
C8 C 0.2159 0.49478 0.40689 0.0
O9 O 0.227 0.5166 0.3766 0.0
O10 O 0.22625 0.48778 0.46646 0.0
C11 C 0.26092 0.59419 0.30816 0.0
O12 O 0.24369 0.60747 0.35306 0.0
C13 C 0.31441 0.50647 0.46454 0.0
Zn14 Zn 0.4609 0.74454 0.50643 0.0
Zn15 Zn 0.43436 0.73936 0.62495 0.0
O16 O 0.39995 0.74915 0.55231 0.0
O17 O 0.4231 0.75068 0.45339 0.0
O18 O 0.41345 0.72933 0.71371 0.0
O19 O 0.47792 0.70415 0.50632 0.0
O20 O 0.45707 0.69994 0.60751 0.0
C21 C 0.39946 0.75237 0.48594 0.0
C22 C 0.48045 0.78828 0.61284 0.0
O23 O 0.46243 0.77511 0.65089 0.0
O24 O 0.48345 0.77942 0.54969 0.0
C25 C 0.39249 0.74275 0.74346 0.0
O26 O 0.38263 0.76747 0.71814 0.0
C27 C 0.47279 0.68917 0.55887 0.0
Zn28 Zn 0.24304 0.97682 0.75156 0.0
Zn29 Zn 0.25845 0.95213 0.86876 0.0
O30 O 0.25387 0.91695 0.79652 0.0
O31 O 0.24618 0.9386 0.69641 0.0
O32 O 0.26895 0.9315 0.95816 0.0
O33 O 0.27793 0.00345 0.76107 0.0
O34 O 0.29414 0.98003 0.85369 0.0
C35 C 0.25025 0.9154 0.72983 0.0
C36 C 0.2003 0.98671 0.8546 0.0
O37 O 0.21938 0.97326 0.89221 0.0
O38 O 0.20467 0.99017 0.79033 0.0
C39 C 0.25014 0.9142 0.98236 0.0
O40 O 0.22437 0.91081 0.94915 0.0
C41 C 0.2976 0.99968 0.80867 0.0
Zn42 Zn 0.00997 0.78719 0.18543 0.0
Zn43 Zn 0.04612 0.75999 0.09834 0.0
O44 O 0.0729 0.77213 0.18405 0.0
O45 O 0.04239 0.79102 0.26036 0.0
O46 O 0.07548 0.74133 0.03387 0.0
O47 O 0.98455 0.75113 0.18187 0.0
O48 O 0.01673 0.72645 0.11945 0.0
C49 C 0.06807 0.7831 0.24495 0.0
C50 C 0.01231 0.81567 0.05588 0.0
O51 O 0.02886 0.794 0.04028 0.0
O52 O 0.00194 0.81857 0.11628 0.0
C53 C 0.09819 0.75591 0.01881 0.0
O54 O 0.10152 0.78308 0.04426 0.0
C55 C 0.99286 0.72726 0.15259 0.0
Zn56 Zn 0.74547 0.01432 0.97335 0.0
Zn57 Zn 0.75006 0.0451 0.86205 0.0
O58 O 0.73993 0.07586 0.94199 0.0
O59 O 0.73906 0.04954 0.03601 0.0
O60 O 0.75841 0.07188 0.78219 0.0
O61 O 0.78577 0.9977 0.96743 0.0
O62 O 0.79047 0.02372 0.87391 0.0
C63 C 0.73683 0.07419 0.00798 0.0
C64 C 0.70154 0.99798 0.86515 0.0
O65 O 0.71454 0.01722 0.83001 0.0
O66 O 0.71069 0.99316 0.9272 0.0
C67 C 0.76486 0.06278 0.72075 0.0
O68 O 0.76379 0.03439 0.70475 0.0
C69 C 0.80118 0.00584 0.91801 0.0
Zn70 Zn 0.97969 0.2543 0.99573 0.0
Zn71 Zn 0.95208 0.24149 0.1075 0.0
O72 O 0.91884 0.2535 0.03461 0.0
O73 O 0.94285 0.25932 0.9383 0.0
O74 O 0.92816 0.22688 0.18754 0.0
O75 O 1.00023 0.21582 0.98892 0.0
O76 O 0.97596 0.20359 0.08083 0.0
C77 C 0.91885 0.25885 0.96935 0.0
C78 C 0.99508 0.29386 0.11324 0.0
O79 O 0.97852 0.27692 0.14653 0.0
O80 O 0.99834 0.28911 0.04815 0.0
C81 C 0.92324 0.2388 0.2475 0.0
O82 O 0.93486 0.26468 0.2653 0.0
C83 C 0.99398 0.19701 0.03303 0.0
Zn84 Zn 0.72882 0.49492 0.27845 0.0
Zn85 Zn 0.74936 0.46493 0.38597 0.0
O86 O 0.74693 0.43371 0.3041 0.0
O87 O 0.73204 0.45914 0.2138 0.0
O88 O 0.76238 0.44129 0.4693 0.0
O89 O 0.7634 0.52257 0.29251 0.0
O90 O 0.78315 0.4949 0.3741 0.0
C91 C 0.74034 0.43501 0.23872 0.0
C92 C 0.68889 0.49676 0.38847 0.0
O93 O 0.70975 0.48273 0.4188 0.0
O94 O 0.69103 0.50383 0.32542 0.0
C95 C 0.7535 0.41492 0.47504 0.0
O96 O 0.73596 0.40277 0.4255 0.0
C97 C 0.78457 0.51695 0.33503 0.0
Zn98 Zn 0.53383 0.27728 0.74763 0.0
Zn99 Zn 0.56293 0.25091 0.64601 0.0
O100 O 0.59599 0.26169 0.72104 0.0
O101 O 0.57087 0.2816 0.80683 0.0
O102 O 0.58554 0.23316 0.56593 0.0
O103 O 0.50933 0.24053 0.75426 0.0
O104 O 0.53581 0.21728 0.67548 0.0
C105 C 0.59518 0.27331 0.78296 0.0
C106 C 0.52639 0.30742 0.62187 0.0
O107 O 0.54092 0.2854 0.59877 0.0
O108 O 0.52108 0.31015 0.68637 0.0
C109 C 0.59837 0.24968 0.52424 0.0
O110 O 0.59688 0.2784 0.53426 0.0
C111 C 0.5153 0.21717 0.71921 0.0
H112 H 0.35014 0.76676 0.82738 0.0
H113 H 0.32535 0.74344 0.92278 0.0
H114 H 0.37717 0.66516 0.88977 0.0
H115 H 0.40203 0.68821 0.79505 0.0
H116 H 0.31921 0.65221 0.89903 0.0
H117 H 0.39211 0.71145 0.024 0.0
H118 H 0.4193 0.75655 0.06292 0.0
H119 H 0.34122 0.79266 0.15075 0.0
H120 H 0.3133 0.7478 0.11144 0.0
H121 H 0.29875 0.57423 0.20872 0.0
H122 H 0.31747 0.60079 0.11109 0.0
H123 H 0.26469 0.676 0.16856 0.0
H124 H 0.24606 0.64964 0.26709 0.0
H125 H 0.31924 0.69276 0.14443 0.0
H126 H 0.24804 0.62913 0.02388 0.0
H127 H 0.22344 0.58236 0.98539 0.0
H128 H 0.30274 0.55209 0.89217 0.0
H129 H 0.32794 0.59835 0.93125 0.0
C130 C 0.35638 0.74464 0.8407 0.0
C131 C 0.37814 0.7294 0.80344 0.0
C132 C 0.34222 0.73136 0.89537 0.0
C133 C 0.34942 0.70253 0.9136 0.0
C134 C 0.37117 0.68737 0.87661 0.0
C135 C 0.38548 0.70068 0.82255 0.0
C136 C 0.33401 0.6877 0.97004 0.0
C137 C 0.31945 0.66092 0.9529 0.0
C138 C 0.33374 0.69943 0.03999 0.0
C139 C 0.35037 0.72655 0.06308 0.0
C140 C 0.38054 0.72918 0.05052 0.0
C141 C 0.39613 0.75465 0.07297 0.0
C142 C 0.38189 0.77755 0.10879 0.0
C143 C 0.35208 0.77497 0.12249 0.0
C144 C 0.33637 0.74954 0.10013 0.0
C145 C 0.29087 0.59632 0.20036 0.0
C146 C 0.27087 0.60975 0.24601 0.0
C147 C 0.30152 0.61147 0.14412 0.0
C148 C 0.29227 0.64034 0.13166 0.0
C149 C 0.2721 0.65373 0.17677 0.0
C150 C 0.26142 0.63858 0.23312 0.0
C151 C 0.30475 0.65695 0.07372 0.0
C152 C 0.31872 0.68413 0.09048 0.0
C153 C 0.30492 0.64533 0.00355 0.0
C154 C 0.28989 0.61722 0.98098 0.0
C155 C 0.26025 0.61243 0.99565 0.0
C156 C 0.2462 0.58603 0.97364 0.0
C157 C 0.26149 0.56432 0.93633 0.0
C158 C 0.2909 0.56893 0.92107 0.0
C159 C 0.30507 0.59524 0.94318 0.0
H160 H 0.25056 0.54392 0.91924 0.0
H161 H 0.39401 0.79722 0.1263 0.0
H162 H 0.38934 0.74574 0.3453 0.0
H163 H 0.35102 0.76842 0.27439 0.0
H164 H 0.30874 0.7993 0.46194 0.0
H165 H 0.34819 0.77714 0.5343 0.0
H166 H 0.29533 0.76932 0.24612 0.0
H167 H 0.28397 0.86843 0.43569 0.0
H168 H 0.31008 0.89283 0.53859 0.0
H169 H 0.39282 0.86234 0.46347 0.0
H170 H 0.36723 0.83806 0.35991 0.0
H171 H 0.215 0.87528 0.04669 0.0
H172 H 0.22832 0.84494 0.14614 0.0
H173 H 0.31536 0.88338 0.15823 0.0
H174 H 0.30213 0.91405 0.05981 0.0
H175 H 0.29529 0.87776 0.28705 0.0
H176 H 0.30014 0.81666 0.07157 0.0
H177 H 0.28057 0.7911 0.96285 0.0
H178 H 0.21669 0.74643 0.08029 0.0
H179 H 0.23593 0.77171 0.18957 0.0
C180 C 0.37168 0.75693 0.37184 0.0
C181 C 0.37224 0.76029 0.44554 0.0
C182 C 0.34953 0.76974 0.33094 0.0
C183 C 0.3273 0.78625 0.36252 0.0
C184 C 0.32605 0.78719 0.43631 0.0
C185 C 0.34849 0.77439 0.47765 0.0
C186 C 0.30851 0.80535 0.31768 0.0
C187 C 0.29449 0.79295 0.25626 0.0
C188 C 0.30806 0.83633 0.32943 0.0
C189 C 0.32368 0.85118 0.39077 0.0
C190 C 0.30773 0.867 0.44123 0.0
C191 C 0.32242 0.88078 0.4996 0.0
C192 C 0.35305 0.87902 0.50771 0.0
C193 C 0.36909 0.86361 0.45726 0.0
C194 C 0.35452 0.84984 0.39875 0.0
C195 C 0.23691 0.87745 0.07088 0.0
C196 C 0.25758 0.89698 0.04498 0.0
C197 C 0.24448 0.86005 0.12769 0.0
C198 C 0.2729 0.86172 0.15934 0.0
C199 C 0.29326 0.88179 0.13483 0.0
C200 C 0.2857 0.89923 0.07826 0.0
C201 C 0.28229 0.84168 0.21557 0.0
C202 C 0.29468 0.854 0.27877 0.0
C203 C 0.2815 0.81067 0.20496 0.0
C204 C 0.26942 0.79613 0.1388 0.0
C205 C 0.28178 0.80155 0.07412 0.0
C206 C 0.27083 0.78701 0.01239 0.0
C207 C 0.24744 0.76709 0.01462 0.0
C208 C 0.23493 0.76171 0.07859 0.0
C209 C 0.24593 0.77605 0.14051 0.0
H210 H 0.23903 0.75584 0.96679 0.0
H211 H 0.36437 0.88967 0.55298 0.0
H212 H 0.12626 0.79436 0.22669 0.0
H213 H 0.16502 0.8022 0.31872 0.0
H214 H 0.10277 0.78307 0.47611 0.0
H215 H 0.0638 0.7772 0.38478 0.0
H216 H 0.1287 0.82884 0.51568 0.0
H217 H 0.16162 0.73783 0.42684 0.0
H218 H 0.1775 0.69877 0.34377 0.0
H219 H 0.25401 0.74931 0.30142 0.0
H220 H 0.23789 0.78969 0.38092 0.0
H221 H 0.23088 0.86325 0.77826 0.0
H222 H 0.21031 0.82218 0.70451 0.0
H223 H 0.24155 0.86214 0.52028 0.0
H224 H 0.26167 0.9033 0.59317 0.0
H225 H 0.23258 0.79594 0.50929 0.0
H226 H 0.18306 0.89136 0.56851 0.0
H227 H 0.1683 0.92846 0.65843 0.0
H228 H 0.12325 0.8616 0.76589 0.0
H229 H 0.13822 0.82406 0.67705 0.0
C230 C 0.12104 0.79169 0.281 0.0
C231 C 0.09208 0.78563 0.299 0.0
C232 C 0.14322 0.79585 0.33352 0.0
C233 C 0.13694 0.793 0.40458 0.0
C234 C 0.10818 0.78561 0.42188 0.0
C235 C 0.08591 0.78232 0.36972 0.0
C236 C 0.15935 0.80072 0.46133 0.0
C237 C 0.15113 0.82078 0.51488 0.0
C238 C 0.18888 0.79065 0.4604 0.0
C239 C 0.19821 0.76712 0.4095 0.0
C240 C 0.18146 0.74108 0.39851 0.0
C241 C 0.19052 0.71869 0.3519 0.0
C242 C 0.21662 0.72175 0.31674 0.0
C243 C 0.23364 0.74725 0.32799 0.0
C244 C 0.22446 0.76998 0.37358 0.0
C245 C 0.23458 0.86256 0.72247 0.0
C246 C 0.24713 0.88675 0.69102 0.0
C247 C 0.22299 0.83898 0.68045 0.0
C248 C 0.22409 0.83944 0.60696 0.0
C249 C 0.24055 0.86138 0.57685 0.0
C250 C 0.25174 0.88507 0.61855 0.0
C251 C 0.20149 0.82365 0.56192 0.0
C252 C 0.20976 0.80273 0.51038 0.0
C253 C 0.17174 0.83232 0.5648 0.0
C254 C 0.16192 0.85497 0.6167 0.0
C255 C 0.17007 0.88462 0.61147 0.0
C256 C 0.16171 0.90569 0.66222 0.0
C257 C 0.14489 0.89738 0.71791 0.0
C258 C 0.13631 0.86799 0.72279 0.0
C259 C 0.14473 0.84682 0.6723 0.0
H260 H 0.13846 0.91372 0.75721 0.0
H261 H 0.22375 0.70429 0.2811 0.0
H262 H 0.099 0.69975 0.96284 0.0
H263 H 0.13672 0.6767 0.8924 0.0
H264 H 0.187 0.75751 0.90459 0.0
H265 H 0.14905 0.781 0.97542 0.0
H266 H 0.18519 0.73186 0.77061 0.0
H267 H 0.21757 0.70303 0.99391 0.0
H268 H 0.21199 0.68776 0.11536 0.0
H269 H 0.17134 0.60683 0.03725 0.0
H270 H 0.17656 0.62178 0.91534 0.0
H271 H 0.27356 0.62711 0.56945 0.0
H272 H 0.26226 0.6655 0.65946 0.0
H273 H 0.19138 0.61153 0.72767 0.0
H274 H 0.20347 0.57317 0.64132 0.0
H275 H 0.22201 0.6339 0.83837 0.0
H276 H 0.18596 0.67407 0.60749 0.0
H277 H 0.20074 0.6908 0.49256 0.0
H278 H 0.25837 0.75556 0.59578 0.0
H279 H 0.24444 0.7387 0.7113 0.0
C280 C 0.11804 0.7127 0.95075 0.0
C281 C 0.12101 0.74219 0.97498 0.0
C282 C 0.1397 0.69944 0.91072 0.0
C283 C 0.16492 0.71526 0.8942 0.0
C284 C 0.16783 0.74487 0.91717 0.0
C285 C 0.14611 0.7582 0.95763 0.0
C286 C 0.18762 0.70031 0.852 0.0
C287 C 0.19375 0.71071 0.78586 0.0
C288 C 0.19983 0.67334 0.8728 0.0
C289 C 0.19738 0.66358 0.94564 0.0
C290 C 0.20736 0.68204 0.00277 0.0
C291 C 0.20428 0.67344 0.07163 0.0
C292 C 0.19129 0.64635 0.08403 0.0
C293 C 0.18137 0.62782 0.02755 0.0
C294 C 0.18451 0.63629 0.95853 0.0
C295 C 0.25544 0.62378 0.60342 0.0
C296 C 0.23927 0.59732 0.59838 0.0
C297 C 0.24906 0.64559 0.65499 0.0
C298 C 0.22588 0.64148 0.70053 0.0
C299 C 0.20955 0.6152 0.69398 0.0
C300 C 0.21629 0.59337 0.64406 0.0
C301 C 0.2173 0.66417 0.75435 0.0
C302 C 0.21408 0.65535 0.82346 0.0
C303 C 0.20869 0.69299 0.73687 0.0
C304 C 0.21448 0.70489 0.66776 0.0
C305 C 0.20165 0.69198 0.60555 0.0
C306 C 0.20999 0.70139 0.54037 0.0
C307 C 0.23071 0.72403 0.53696 0.0
C308 C 0.24252 0.73786 0.5986 0.0
C309 C 0.23444 0.72837 0.66389 0.0
H310 H 0.23778 0.73075 0.48664 0.0
H311 H 0.18898 0.63968 0.13737 0.0
H312 H 0.77388 0.05272 0.58077 0.0
H313 H 0.79772 0.08526 0.50126 0.0
H314 H 0.80799 0.1519 0.66836 0.0
H315 H 0.78317 0.11984 0.74745 0.0
H316 H 0.79602 0.17778 0.55162 0.0
H317 H 0.86556 0.10523 0.62106 0.0
H318 H 0.88455 0.0553 0.64016 0.0
H319 H 0.87493 0.03403 0.41887 0.0
H320 H 0.8555 0.08373 0.39856 0.0
H321 H 0.91118 0.25512 0.38391 0.0
H322 H 0.88178 0.2282 0.46527 0.0
H323 H 0.86337 0.16067 0.30368 0.0
H324 H 0.89305 0.18703 0.22285 0.0
H325 H 0.88021 0.13686 0.42265 0.0
H326 H 0.81212 0.21424 0.3582 0.0
H327 H 0.79638 0.2658 0.34793 0.0
H328 H 0.80697 0.28011 0.57158 0.0
H329 H 0.8235 0.22884 0.58304 0.0
C330 C 0.78093 0.07441 0.60045 0.0
C331 C 0.77681 0.08354 0.67069 0.0
C332 C 0.79474 0.09298 0.55499 0.0
C333 C 0.80536 0.12086 0.57907 0.0
C334 C 0.80017 0.13049 0.64842 0.0
C335 C 0.78599 0.11207 0.69369 0.0
C336 C 0.82274 0.13943 0.53274 0.0
C337 C 0.81463 0.16892 0.52399 0.0
C338 C 0.84706 0.12801 0.49646 0.0
C339 C 0.8588 0.09811 0.50839 0.0
C340 C 0.86729 0.08983 0.57654 0.0
C341 C 0.87816 0.06159 0.58757 0.0
C342 C 0.88087 0.04148 0.53079 0.0
C343 C 0.87278 0.04962 0.46282 0.0
C344 C 0.86186 0.07783 0.4515 0.0
C345 C 0.90075 0.2346 0.36559 0.0
C346 C 0.90461 0.22323 0.29678 0.0
C347 C 0.88378 0.2193 0.41212 0.0
C348 C 0.87006 0.19246 0.39058 0.0
C349 C 0.87369 0.18129 0.3217 0.0
C350 C 0.89071 0.19645 0.27542 0.0
C351 C 0.85315 0.17506 0.44017 0.0
C352 C 0.86152 0.14575 0.44997 0.0
C353 C 0.82953 0.18694 0.47846 0.0
C354 C 0.81946 0.21776 0.47134 0.0
C355 C 0.81142 0.22845 0.40511 0.0
C356 C 0.80235 0.25764 0.39909 0.0
C357 C 0.80083 0.27626 0.45903 0.0
C358 C 0.80827 0.2657 0.52516 0.0
C359 C 0.81754 0.23659 0.53142 0.0
H360 H 0.79379 0.29885 0.45428 0.0
H361 H 0.88929 0.01963 0.53944 0.0
H362 H 0.90919 0.25414 0.82834 0.0
H363 H 0.87052 0.27772 0.75914 0.0
H364 H 0.82829 0.30563 0.94866 0.0
H365 H 0.8674 0.28208 0.01925 0.0
H366 H 0.78898 0.28963 0.81301 0.0
H367 H 0.86897 0.35196 0.90695 0.0
H368 H 0.92127 0.36353 0.93433 0.0
H369 H 0.93915 0.35539 0.71504 0.0
H370 H 0.88696 0.34331 0.68652 0.0
H371 H 0.77647 0.43621 0.60162 0.0
H372 H 0.79399 0.40806 0.70128 0.0
H373 H 0.77086 0.32705 0.58566 0.0
H374 H 0.75226 0.35518 0.48686 0.0
H375 H 0.83776 0.37352 0.70544 0.0
H376 H 0.76079 0.27049 0.7021 0.0
H377 H 0.70898 0.25743 0.67224 0.0
H378 H 0.68369 0.34748 0.7087 0.0
H379 H 0.73522 0.36114 0.73896 0.0
C380 C 0.89133 0.26467 0.85553 0.0
C381 C 0.89167 0.26684 0.92933 0.0
C382 C 0.86914 0.27797 0.81578 0.0
C383 C 0.84689 0.29383 0.8489 0.0
C384 C 0.8454 0.2936 0.9223 0.0
C385 C 0.86775 0.28017 0.96249 0.0
C386 C 0.82904 0.31449 0.8071 0.0
C387 C 0.79937 0.30814 0.78963 0.0
C388 C 0.84271 0.33882 0.77774 0.0
C389 C 0.87403 0.34661 0.7947 0.0
C390 C 0.88404 0.35251 0.86462 0.0
C391 C 0.91369 0.35915 0.88034 0.0
C392 C 0.93353 0.36017 0.82647 0.0
C393 C 0.92375 0.3546 0.75674 0.0
C394 C 0.89413 0.34788 0.74078 0.0
C395 C 0.77483 0.41241 0.59774 0.0
C396 C 0.7631 0.39792 0.53633 0.0
C397 C 0.78477 0.39633 0.65482 0.0
C398 C 0.78351 0.3654 0.65148 0.0
C399 C 0.77147 0.35087 0.59038 0.0
C400 C 0.76107 0.36699 0.53363 0.0
C401 C 0.79751 0.3485 0.70898 0.0
C402 C 0.82681 0.35544 0.72929 0.0
C403 C 0.78331 0.32481 0.74052 0.0
C404 C 0.75204 0.31686 0.7229 0.0
C405 C 0.74418 0.28751 0.70424 0.0
C406 C 0.71485 0.28001 0.6869 0.0
C407 C 0.69309 0.30163 0.6883 0.0
C408 C 0.70059 0.33077 0.70737 0.0
C409 C 0.7299 0.33841 0.7245 0.0
H410 H 0.6704 0.29581 0.6747 0.0
H411 H 0.95648 0.3653 0.83874 0.0
H412 H 0.75911 0.3793 0.27013 0.0
H413 H 0.75748 0.33511 0.19156 0.0
H414 H 0.72177 0.38682 0.02355 0.0
H415 H 0.72442 0.43061 0.09982 0.0
H416 H 0.71226 0.309 0.1396 0.0
H417 H 0.73194 0.36416 0.86958 0.0
H418 H 0.76944 0.39587 0.8209 0.0
H419 H 0.83175 0.37228 0.98404 0.0
H420 H 0.79501 0.33965 0.03224 0.0
H421 H 0.59959 0.30136 0.91097 0.0
H422 H 0.64287 0.30949 0.98674 0.0
H423 H 0.69592 0.26266 0.83675 0.0
H424 H 0.65186 0.25456 0.75851 0.0
H425 H 0.72243 0.3122 0.88197 0.0
H426 H 0.68891 0.23241 1.00035 0.0
H427 H 0.65347 0.19815 0.04806 0.0
H428 H 0.62473 0.26624 0.19163 0.0
H429 H 0.65945 0.30119 0.14399 0.0
C430 C 0.75146 0.38124 0.21597 0.0
C431 C 0.74166 0.40845 0.19139 0.0
C432 C 0.75064 0.356 0.17111 0.0
C433 C 0.73997 0.35757 0.10112 0.0
C434 C 0.73106 0.38497 0.0764 0.0
C435 C 0.73213 0.41008 0.12067 0.0
C436 C 0.73328 0.33062 0.05645 0.0
C437 C 0.71511 0.3092 0.08348 0.0
C438 C 0.73842 0.32957 0.98359 0.0
C439 C 0.76074 0.34903 0.95395 0.0
C440 C 0.75381 0.36523 0.89423 0.0
C441 C 0.77493 0.3835 0.86688 0.0
C442 C 0.80306 0.3859 0.89893 0.0
C443 C 0.81004 0.37023 0.95879 0.0
C444 C 0.78906 0.35184 0.98618 0.0
C445 C 0.62028 0.29241 0.89384 0.0
C446 C 0.6222 0.27729 0.82847 0.0
C447 C 0.64509 0.2968 0.9379 0.0
C448 C 0.67256 0.28591 0.91858 0.0
C449 C 0.67482 0.2708 0.85322 0.0
C450 C 0.64971 0.26635 0.80854 0.0
C451 C 0.69867 0.29357 0.96499 0.0
C452 C 0.72076 0.31105 0.93836 0.0
C453 C 0.6978 0.29041 0.03845 0.0
C454 C 0.67702 0.26944 0.06864 0.0
C455 C 0.67502 0.24014 0.04204 0.0
C456 C 0.65504 0.22058 0.06911 0.0
C457 C 0.63701 0.22995 0.12311 0.0
C458 C 0.63886 0.25895 0.1501 0.0
C459 C 0.65872 0.27867 0.12308 0.0
H460 H 0.62152 0.21476 0.14388 0.0
H461 H 0.81941 0.39997 0.87752 0.0
H462 H 0.73378 0.07736 0.14999 0.0
H463 H 0.71292 0.11652 0.22255 0.0
H464 H 0.70047 0.1695 0.04151 0.0
H465 H 0.72107 0.1298 0.96703 0.0
H466 H 0.72253 0.19764 0.19806 0.0
H467 H 0.64456 0.14563 0.06115 0.0
H468 H 0.62077 0.1008 0.00808 0.0
H469 H 0.61535 0.0651 0.21216 0.0
H470 H 0.63957 0.10959 0.26634 0.0
H471 H 0.61999 0.27802 0.41308 0.0
H472 H 0.64531 0.25617 0.31299 0.0
H473 H 0.63895 0.17058 0.40125 0.0
H474 H 0.613 0.19209 0.50015 0.0
H475 H 0.62368 0.16652 0.26897 0.0
H476 H 0.70352 0.21494 0.40644 0.0
H477 H 0.72788 0.2585 0.46483 0.0
H478 H 0.73177 0.29946 0.2666 0.0
H479 H 0.70742 0.25616 0.20704 0.0
C480 C 0.72705 0.09743 0.12528 0.0
C481 C 0.72862 0.1002 0.05231 0.0
C482 C 0.7153 0.11989 0.16712 0.0
C483 C 0.70498 0.1457 0.13723 0.0
C484 C 0.70833 0.14964 0.06537 0.0
C485 C 0.72002 0.12693 0.02297 0.0
C486 C 0.68733 0.16609 0.18057 0.0
C487 C 0.70061 0.1914 0.21253 0.0
C488 C 0.65903 0.15748 0.20008 0.0
C489 C 0.64406 0.13088 0.16772 0.0
C490 C 0.6385 0.12816 0.09467 0.0
C491 C 0.6249 0.10281 0.06439 0.0
C492 C 0.61659 0.08009 0.1067 0.0
C493 C 0.62181 0.08271 0.17943 0.0
C494 C 0.63544 0.10801 0.20995 0.0
C495 C 0.62404 0.25454 0.41116 0.0
C496 C 0.61442 0.23675 0.46449 0.0
C497 C 0.6386 0.2421 0.35393 0.0
C498 C 0.64417 0.21173 0.34956 0.0
C499 C 0.63478 0.19405 0.40318 0.0
C500 C 0.61999 0.20638 0.45986 0.0
C501 C 0.65911 0.1978 0.28881 0.0
C502 C 0.64528 0.17345 0.25367 0.0
C503 C 0.68695 0.2073 0.26705 0.0
C504 C 0.70295 0.23263 0.30249 0.0
C505 C 0.70938 0.23332 0.37535 0.0
C506 C 0.72322 0.25795 0.40866 0.0
C507 C 0.73099 0.2819 0.36953 0.0
C508 C 0.72547 0.28102 0.29686 0.0
C509 C 0.71167 0.25644 0.26332 0.0
H510 H 0.74149 0.30104 0.39542 0.0
H511 H 0.60608 0.06047 0.08316 0.0
H512 H 0.34385 0.49229 0.34463 0.0
H513 H 0.38757 0.46063 0.33695 0.0
H514 H 0.39505 0.46007 0.56299 0.0
H515 H 0.35163 0.49109 0.57106 0.0
H516 H 0.44979 0.45903 0.40518 0.0
H517 H 0.38966 0.38881 0.59926 0.0
H518 H 0.33882 0.37915 0.63297 0.0
H519 H 0.30638 0.39792 0.42497 0.0
H520 H 0.35707 0.40719 0.38973 0.0
H521 H 0.52483 0.36655 0.64488 0.0
H522 H 0.49655 0.40201 0.57673 0.0
H523 H 0.47001 0.33276 0.42576 0.0
H524 H 0.49946 0.29728 0.49251 0.0
H525 H 0.42385 0.36366 0.50526 0.0
H526 H 0.49996 0.38027 0.35534 0.0
H527 H 0.55014 0.38955 0.31738 0.0
H528 H 0.55044 0.47462 0.42314 0.0
H529 H 0.50049 0.46565 0.464 0.0
C530 C 0.35541 0.4861 0.39256 0.0
C531 C 0.34406 0.49362 0.45843 0.0
C532 C 0.38036 0.46811 0.38808 0.0
C533 C 0.39414 0.45772 0.44942 0.0
C534 C 0.38449 0.46765 0.51508 0.0
C535 C 0.3596 0.48527 0.51957 0.0
C536 C 0.41535 0.43311 0.44658 0.0
C537 C 0.44422 0.43806 0.42636 0.0
C538 C 0.40762 0.40544 0.472 0.0
C539 C 0.37715 0.39884 0.492 0.0
C540 C 0.3717 0.39063 0.56057 0.0
C541 C 0.34291 0.38527 0.57998 0.0
C542 C 0.31938 0.38797 0.53118 0.0
C543 C 0.32461 0.3959 0.46277 0.0
C544 C 0.35337 0.40122 0.44306 0.0
C545 C 0.51374 0.35911 0.59591 0.0
C546 C 0.51415 0.32927 0.57389 0.0
C547 C 0.49777 0.37938 0.55686 0.0
C548 C 0.48136 0.36999 0.49613 0.0
C549 C 0.48286 0.34043 0.47207 0.0
C550 C 0.49961 0.32025 0.51015 0.0
C551 C 0.45875 0.3899 0.46685 0.0
C552 C 0.42945 0.38423 0.48201 0.0
C553 C 0.46614 0.41656 0.43592 0.0
C554 C 0.49646 0.42215 0.41325 0.0
C555 C 0.51083 0.40083 0.37152 0.0
C556 C 0.53924 0.40607 0.34942 0.0
C557 C 0.55349 0.43266 0.36819 0.0
C558 C 0.53934 0.45405 0.4091 0.0
C559 C 0.51097 0.4489 0.43172 0.0
H560 H 0.57545 0.43674 0.35088 0.0
H561 H 0.2971 0.38389 0.54636 0.0
H562 H 0.66327 0.96641 0.93786 0.0
H563 H 0.62341 0.93442 0.89279 0.0
H564 H 0.64085 0.95731 0.68123 0.0
H565 H 0.68115 0.99017 0.72655 0.0
H566 H 0.5808 0.95348 0.70399 0.0
H567 H 0.66574 0.89328 0.74007 0.0
H568 H 0.70892 0.87401 0.80556 0.0
H569 H 0.65284 0.84252 0.96228 0.0
H570 H 0.60934 0.86199 0.89824 0.0
H571 H 0.50955 0.82796 0.53786 0.0
H572 H 0.5433 0.86686 0.58136 0.0
H573 H 0.5274 0.84512 0.79454 0.0
H574 H 0.49329 0.80574 0.75106 0.0
H575 H 0.58633 0.84902 0.76957 0.0
H576 H 0.50103 0.90834 0.73091 0.0
H577 H 0.45809 0.92755 0.66444 0.0
H578 H 0.5149 0.96018 0.51059 0.0
H579 H 0.55818 0.94078 0.5756 0.0
C580 C 0.65873 0.96486 0.88161 0.0
C581 C 0.67578 0.98061 0.83571 0.0
C582 C 0.63584 0.94645 0.85595 0.0
C583 C 0.62948 0.94293 0.78357 0.0
C584 C 0.64552 0.95955 0.73736 0.0
C585 C 0.66854 0.97828 0.76324 0.0
C586 C 0.60675 0.92104 0.75724 0.0
C587 C 0.58221 0.93054 0.71734 0.0
C588 C 0.6082 0.89123 0.77615 0.0
C589 C 0.6343 0.87933 0.81464 0.0
C590 C 0.66263 0.88244 0.78877 0.0
C591 C 0.68716 0.87145 0.82559 0.0
C592 C 0.68363 0.85711 0.88812 0.0
C593 C 0.65554 0.85366 0.91387 0.0
C594 C 0.63094 0.86465 0.8773 0.0
C595 C 0.51293 0.83154 0.59413 0.0
C596 C 0.49875 0.81359 0.64102 0.0
C597 C 0.53216 0.85399 0.6189 0.0
C598 C 0.53779 0.8591 0.69121 0.0
C599 C 0.52331 0.84161 0.73845 0.0
C600 C 0.50375 0.8192 0.71361 0.0
C601 C 0.56022 0.88143 0.71667 0.0
C602 C 0.58483 0.87197 0.75628 0.0
C603 C 0.55884 0.91118 0.69715 0.0
C604 C 0.53284 0.92285 0.65782 0.0
C605 C 0.50436 0.91938 0.68257 0.0
C606 C 0.47996 0.93035 0.64522 0.0
C607 C 0.48376 0.94501 0.58324 0.0
C608 C 0.51199 0.94878 0.55856 0.0
C609 C 0.53647 0.93783 0.59569 0.0
H610 H 0.46484 0.9535 0.55442 0.0
H611 H 0.70265 0.84861 0.91655 0.0
H612 H 0.0199 0.17249 0.91945 0.0
H613 H 0.04588 0.12602 0.90974 0.0
H614 H 0.02614 0.10798 0.12309 0.0
H615 H 0.99966 0.1551 0.13341 0.0
H616 H 0.08609 0.10147 0.09253 0.0
H617 H 0.99337 0.0678 0.99494 0.0
H618 H 0.94824 0.06999 0.9189 0.0
H619 H 0.99972 0.06377 0.73551 0.0
H620 H 0.04526 0.06285 0.80985 0.0
H621 H 0.18084 0.98214 0.98898 0.0
H622 H 0.13782 0.00633 0.03933 0.0
H623 H 0.1173 0.04522 0.84059 0.0
H624 H 0.15915 0.02069 0.78995 0.0
H625 H 0.06874 0.02883 0.89378 0.0
H626 H 0.15725 0.08198 0.98426 0.0
H627 H 0.20477 0.08622 0.05139 0.0
H628 H 0.16316 0.06 0.23723 0.0
H629 H 0.11544 0.05533 0.17088 0.0
C630 C 0.02078 0.15864 0.96436 0.0
C631 C 0.00782 0.16759 0.02739 0.0
C632 C 0.03548 0.1319 0.95846 0.0
C633 C 0.03765 0.11336 0.01536 0.0
C634 C 0.02449 0.12191 0.07838 0.0
C635 C 0.00937 0.14875 0.08415 0.0
C636 C 0.05574 0.08634 0.00899 0.0
C637 C 0.08191 0.08501 0.0504 0.0
C638 C 0.05041 0.06516 0.95332 0.0
C639 C 0.02287 0.06524 0.90829 0.0
C640 C 0.99515 0.06709 0.93842 0.0
C641 C 0.96947 0.06812 0.8956 0.0
C642 C 0.97111 0.0668 0.82259 0.0
C643 C 0.99847 0.06467 0.79211 0.0
C644 C 0.02424 0.06395 0.83459 0.0
C645 C 0.16694 0.99564 0.956 0.0
C646 C 0.17359 0.99962 0.88554 0.0
C647 C 0.14241 0.00951 0.98488 0.0
C648 C 0.1244 0.02786 0.94399 0.0
C649 C 0.13066 0.03108 0.87327 0.0
C650 C 0.15482 0.01711 0.84439 0.0
C651 C 0.09991 0.04529 0.97408 0.0
C652 C 0.07245 0.04464 0.93744 0.0
C653 C 0.10432 0.06517 0.03279 0.0
C654 C 0.13294 0.0679 0.07248 0.0
C655 C 0.15832 0.07692 0.03932 0.0
C656 C 0.18526 0.07943 0.07722 0.0
C657 C 0.18701 0.07327 0.14847 0.0
C658 C 0.16179 0.06467 0.182 0.0
C659 C 0.1348 0.06208 0.14429 0.0
H660 H 0.20788 0.07524 0.17774 0.0
H661 H 0.95118 0.06751 0.78963 0.0
H662 H 0.01147 0.66962 0.15411 0.0
H663 H 0.98338 0.62735 0.19337 0.0
H664 H 0.90696 0.68261 0.21414 0.0
H665 H 0.93473 0.7245 0.1764 0.0
H666 H 0.91895 0.65447 0.33223 0.0
H667 H 0.91236 0.62947 0.08112 0.0
H668 H 0.93289 0.61671 0.96612 0.0
H669 H 0.97574 0.54145 0.05232 0.0
H670 H 0.95573 0.554 0.16813 0.0
H671 H 0.78732 0.57516 0.31183 0.0
H672 H 0.83107 0.60461 0.29332 0.0
H673 H 0.88623 0.52969 0.334 0.0
H674 H 0.84213 0.49999 0.35425 0.0
H675 H 0.89604 0.5598 0.20257 0.0
H676 H 0.89367 0.58052 0.44827 0.0
H677 H 0.87115 0.59325 0.56088 0.0
H678 H 0.84418 0.67683 0.48383 0.0
H679 H 0.86614 0.66444 0.37032 0.0
C680 C 0.9885 0.67247 0.16562 0.0
C681 C 0.97534 0.70039 0.16274 0.0
C682 C 0.97252 0.64838 0.18831 0.0
C683 C 0.94315 0.65192 0.20754 0.0
C684 C 0.92969 0.67942 0.20064 0.0
C685 C 0.94557 0.70335 0.17868 0.0
C686 C 0.92635 0.6279 0.23844 0.0
C687 C 0.91396 0.63376 0.30382 0.0
C688 C 0.92084 0.60035 0.20292 0.0
C689 C 0.9329 0.5929 0.13344 0.0
C690 C 0.92639 0.61036 0.07569 0.0
C691 C 0.93788 0.60313 0.01034 0.0
C692 C 0.9557 0.57835 0.00198 0.0
C693 C 0.962 0.56068 0.05892 0.0
C694 C 0.95058 0.56784 0.1244 0.0
C695 C 0.80878 0.56508 0.31819 0.0
C696 C 0.81138 0.53535 0.3347 0.0
C697 C 0.83374 0.58191 0.30756 0.0
C698 C 0.86183 0.5693 0.31224 0.0
C699 C 0.86469 0.53977 0.33027 0.0
C700 C 0.83959 0.52297 0.34237 0.0
C701 C 0.8876 0.58714 0.29445 0.0
C702 C 0.90172 0.58015 0.23182 0.0
C703 C 0.89466 0.61378 0.33226 0.0
C704 C 0.88147 0.62146 0.40058 0.0
C705 C 0.88276 0.60153 0.45512 0.0
C706 C 0.87012 0.60871 0.51917 0.0
C707 C 0.85622 0.63582 0.52948 0.0
C708 C 0.85497 0.65584 0.47578 0.0
C709 C 0.86756 0.64877 0.4116 0.0
H710 H 0.84645 0.64134 0.57911 0.0
H711 H 0.96456 0.57278 0.95134 0.0
H712 H 0.35233 0.98972 0.87174 0.0
H713 H 0.39736 0.01918 0.86069 0.0
H714 H 0.34806 0.08052 0.73573 0.0
H715 H 0.30378 0.05136 0.74536 0.0
H716 H 0.39742 0.06666 0.67478 0.0
H717 H 0.36805 0.09469 0.91235 0.0
H718 H 0.35766 0.08451 0.03503 0.0
H719 H 0.44501 0.0505 0.06683 0.0
H720 H 0.45578 0.0602 0.94402 0.0
H721 H 0.46914 0.21129 0.80416 0.0
H722 H 0.44078 0.16724 0.8239 0.0
H723 H 0.49512 0.11671 0.68351 0.0
H724 H 0.52356 0.16123 0.6622 0.0
H725 H 0.45275 0.11538 0.87717 0.0
H726 H 0.45048 0.06365 0.59886 0.0
H727 H 0.45686 0.07745 0.47649 0.0
H728 H 0.4264 0.16482 0.5271 0.0
H729 H 0.41955 0.15141 0.64946 0.0
C730 C 0.35118 0.00963 0.84249 0.0
C731 C 0.32454 0.0181 0.80909 0.0
C732 C 0.37689 0.02638 0.83602 0.0
C733 C 0.37613 0.05194 0.7968 0.0
C734 C 0.34934 0.06067 0.76529 0.0
C735 C 0.32395 0.04399 0.7712 0.0
C736 C 0.40275 0.07022 0.78768 0.0
C737 C 0.40982 0.07696 0.7191 0.0
C738 C 0.41907 0.08358 0.84526 0.0
C739 C 0.41258 0.0778 0.9189 0.0
C740 C 0.38494 0.08483 0.94539 0.0
C741 C 0.37901 0.07919 0.01495 0.0
C742 C 0.40062 0.06677 0.05863 0.0
C743 C 0.42826 0.06005 0.03289 0.0
C744 C 0.4343 0.06562 0.96335 0.0
C745 C 0.47522 0.19086 0.77738 0.0
C746 C 0.49852 0.1899 0.73103 0.0
C747 C 0.45907 0.16558 0.78928 0.0
C748 C 0.46575 0.13864 0.75523 0.0
C749 C 0.48942 0.13732 0.71 0.0
C750 C 0.50561 0.16278 0.69775 0.0
C751 C 0.44643 0.11277 0.7644 0.0
C752 C 0.44094 0.10442 0.83284 0.0
C753 C 0.43106 0.09834 0.70674 0.0
C754 C 0.43492 0.10664 0.63336 0.0
C755 C 0.44514 0.08579 0.58375 0.0
C756 C 0.44882 0.09354 0.51444 0.0
C757 C 0.44216 0.12203 0.49412 0.0
C758 C 0.43167 0.1428 0.54298 0.0
C759 C 0.42792 0.13515 0.61231 0.0
H760 H 0.44504 0.12799 0.44045 0.0
H761 H 0.39599 0.06243 0.11246 0.0
H762 H 0.83172 0.97477 0.01498 0.0
H763 H 0.87993 0.9527 0.0063 0.0
H764 H 0.88828 0.98788 0.80134 0.0
H765 H 0.83915 0.01015 0.80935 0.0
H766 H 0.90275 0.93008 0.80206 0.0
H767 H 0.93201 0.01492 0.93627 0.0
H768 H 0.93007 0.05432 0.02907 0.0
H769 H 0.94188 0.99061 0.18745 0.0
H770 H 0.94307 0.95075 0.0962 0.0
H771 H 0.04102 0.86467 0.01694 0.0
H772 H 0.01871 0.90557 0.9534 0.0
H773 H 0.93846 0.85494 0.91935 0.0
H774 H 0.96092 0.81433 0.98134 0.0
H775 H 0.97577 0.93493 0.00277 0.0
H776 H 0.89551 0.87603 0.79099 0.0
H777 H 0.89823 0.83698 0.69801 0.0
H778 H 0.99151 0.85063 0.68995 0.0
H779 H 0.98935 0.89011 0.78213 0.0
C780 C 0.84375 0.97813 0.96808 0.0
C781 C 0.83146 0.99418 0.9127 0.0
C782 C 0.87155 0.96567 0.96351 0.0
C783 C 0.88799 0.96903 0.90372 0.0
C784 C 0.87605 0.98526 0.84826 0.0
C785 C 0.84804 0.99796 0.85293 0.0
C786 C 0.91643 0.95329 0.89864 0.0
C787 C 0.91905 0.93137 0.84524 0.0
C788 C 0.93834 0.9558 0.95357 0.0
C789 C 0.93774 0.97979 0.00905 0.0
C790 C 0.93407 0.00927 0.99087 0.0
C791 C 0.9331 0.0317 0.04321 0.0
C792 C 0.93599 0.02498 0.11395 0.0
C793 C 0.93975 0.9958 0.13259 0.0
C794 C 0.9406 0.97328 0.08055 0.0
C795 C 0.0191 0.86199 0.99298 0.0
C796 C 0.00267 0.83645 0.00292 0.0
C797 C 0.00631 0.88534 0.95705 0.0
C798 C 0.97694 0.88336 0.9309 0.0
C799 C 0.96135 0.85689 0.93717 0.0
C800 C 0.9741 0.83368 0.97293 0.0
C801 C 0.96054 0.91005 0.90965 0.0
C802 C 0.96019 0.93414 0.9581 0.0
C803 C 0.94092 0.90964 0.84996 0.0
C804 C 0.94225 0.88611 0.79368 0.0
C805 C 0.91659 0.87094 0.76901 0.0
C806 C 0.91804 0.84865 0.71652 0.0
C807 C 0.94502 0.84132 0.68811 0.0
C808 C 0.97062 0.8563 0.71209 0.0
C809 C 0.9693 0.87861 0.76455 0.0
H810 H 0.9461 0.82404 0.64752 0.0
H811 H 0.93526 0.04238 0.15432 0.0
H812 H 0.01453 0.30055 0.25194 0.0
H813 H 0.04839 0.33868 0.30296 0.0
H814 H 0.04662 0.38149 0.105 0.0
H815 H 0.01375 0.3433 0.05378 0.0
H816 H 0.10065 0.37565 0.14818 0.0
H817 H 0.01341 0.41141 0.25503 0.0
H818 H 0.9689 0.40855 0.32415 0.0
H819 H 0.02181 0.386 0.50566 0.0
H820 H 0.06663 0.38835 0.43735 0.0
H821 H 0.18714 0.50032 0.27733 0.0
H822 H 0.14572 0.47035 0.22703 0.0
H823 H 0.14659 0.41988 0.41371 0.0
H824 H 0.18726 0.44952 0.46415 0.0
H825 H 0.09129 0.43261 0.37346 0.0
H826 H 0.17774 0.39362 0.26319 0.0
H827 H 0.22216 0.39648 0.1937 0.0
H828 H 0.16982 0.42566 0.01749 0.0
H829 H 0.12512 0.42331 0.08631 0.0
C830 C 0.02099 0.31841 0.21989 0.0
C831 C 0.01166 0.31878 0.14876 0.0
C832 C 0.04033 0.34023 0.24902 0.0
C833 C 0.05018 0.36305 0.20781 0.0
C834 C 0.03966 0.36406 0.13778 0.0
C835 C 0.02075 0.34219 0.10861 0.0
C836 C 0.07289 0.3848 0.23544 0.0
C837 C 0.09828 0.38846 0.19689 0.0
C838 C 0.07025 0.40119 0.29962 0.0
C839 C 0.04335 0.39979 0.34087 0.0
C840 C 0.01554 0.40562 0.30953 0.0
C841 C 0.99026 0.40413 0.3486 0.0
C842 C 0.99252 0.39702 0.4192 0.0
C843 C 0.02009 0.39147 0.45094 0.0
C844 C 0.04544 0.39291 0.4121 0.0
C845 C 0.17844 0.48288 0.30759 0.0
C846 C 0.1907 0.47733 0.37465 0.0
C847 C 0.1548 0.46573 0.2788 0.0
C848 C 0.1431 0.44272 0.31651 0.0
C849 C 0.15508 0.43752 0.38368 0.0
C850 C 0.17856 0.4545 0.41228 0.0
C851 C 0.11892 0.42332 0.2862 0.0
C852 C 0.09338 0.42001 0.32435 0.0
C853 C 0.12133 0.40728 0.22155 0.0
C854 C 0.14816 0.40862 0.18013 0.0
C855 C 0.17575 0.40086 0.20981 0.0
C856 C 0.20097 0.40235 0.17051 0.0
C857 C 0.19883 0.41133 0.10129 0.0
C858 C 0.17145 0.41876 0.07115 0.0
C859 C 0.14617 0.41734 0.11026 0.0
H860 H 0.21838 0.41247 0.07095 0.0
H861 H 0.97292 0.39588 0.44936 0.0
H862 H 0.48397 0.65068 0.45125 0.0
H863 H 0.51356 0.60611 0.45527 0.0
H864 H 0.52348 0.61721 0.68077 0.0
H865 H 0.49308 0.66191 0.67705 0.0
H866 H 0.57663 0.61365 0.61411 0.0
H867 H 0.48988 0.55675 0.6172 0.0
H868 H 0.43962 0.53886 0.58565 0.0
H869 H 0.46557 0.51512 0.37703 0.0
H870 H 0.51587 0.53321 0.40678 0.0
H871 H 0.68179 0.50114 0.53134 0.0
H872 H 0.6397 0.52261 0.59192 0.0
H873 H 0.59477 0.53513 0.39173 0.0
H874 H 0.63625 0.51381 0.3315 0.0
H875 H 0.5568 0.51782 0.4876 0.0
H876 H 0.6367 0.59013 0.47647 0.0
H877 H 0.6872 0.60835 0.50437 0.0
H878 H 0.67313 0.60304 0.72483 0.0
H879 H 0.62262 0.58445 0.69805 0.0
C880 C 0.49183 0.64325 0.50191 0.0
C881 C 0.48638 0.6598 0.56381 0.0
C882 C 0.50858 0.61764 0.50421 0.0
C883 C 0.5206 0.60821 0.56837 0.0
C884 C 0.5142 0.62399 0.6308 0.0
C885 C 0.49683 0.64944 0.62863 0.0
C886 C 0.54304 0.58457 0.56749 0.0
C887 C 0.57214 0.59226 0.58843 0.0
C888 C 0.53726 0.5568 0.53331 0.0
C889 C 0.50673 0.54654 0.51429 0.0
C890 C 0.48484 0.54801 0.56435 0.0
C891 C 0.45633 0.53775 0.54681 0.0
C892 C 0.4494 0.5259 0.47936 0.0
C893 C 0.47096 0.52433 0.42925 0.0
C894 C 0.4995 0.53454 0.44649 0.0
C895 C 0.6627 0.50804 0.50046 0.0
C896 C 0.6625 0.50613 0.42659 0.0
C897 C 0.63872 0.52036 0.53511 0.0
C898 C 0.6142 0.53077 0.49633 0.0
C899 C 0.6134 0.52728 0.42284 0.0
C900 C 0.63728 0.51525 0.38839 0.0
C901 C 0.59028 0.54764 0.53019 0.0
C902 C 0.56102 0.5387 0.51544 0.0
C903 C 0.59585 0.57435 0.56932 0.0
C904 C 0.62611 0.58555 0.58529 0.0
C905 C 0.64448 0.59265 0.53085 0.0
C906 C 0.67307 0.60307 0.54646 0.0
C907 C 0.68341 0.60675 0.61633 0.0
C908 C 0.66513 0.6001 0.67074 0.0
C909 C 0.63653 0.58962 0.65539 0.0
H910 H 0.70554 0.61483 0.62831 0.0
H911 H 0.42733 0.51794 0.46593 0.0
loop_
_geom_bond_atom_site_label_1
_geom_bond_atom_site_label_2
_geom_bond_distance
_geom_bond_site_symmetry_2
_ccdc_geom_bond_type
Zn0 O3 2.031 . S
Zn0 O5 2.049 . S
Zn0 O10 2.067 . S
Zn1 O2 1.962 . S
Zn1 O4 1.986 . S
Zn1 O6 1.996 . S
Zn1 O9 1.943 . S
O2 Zn1 1.962 . S
O2 C7 1.254 . S
O3 Zn0 2.031 . S
O3 C7 1.269 . S
O4 Zn1 1.986 . S
O4 C11 1.262 . S
O5 Zn0 2.049 . S
O5 C13 1.260 . S
O6 Zn1 1.996 . S
O6 C13 1.257 . S
C7 O2 1.254 . S
C7 O3 1.269 . S
C8 O9 1.249 . S
C8 O10 1.270 . S
O9 Zn1 1.943 . S
O9 C8 1.249 . S
O10 Zn0 2.067 . S
O10 C8 1.270 . S
C11 O4 1.262 . S
C11 O12 1.232 . S
O12 C11 1.232 . S
C13 O5 1.260 . S
C13 O6 1.257 . S
Zn14 O17 2.031 . S
Zn14 O19 2.049 . S
Zn14 O24 2.067 . S
Zn15 O16 1.962 . S
Zn15 O18 1.986 . S
Zn15 O20 1.996 . S
Zn15 O23 1.943 . S
O16 Zn15 1.962 . S
O16 C21 1.254 . S
O17 Zn14 2.031 . S
O17 C21 1.269 . S
O18 Zn15 1.986 . S
O18 C25 1.262 . S
O19 Zn14 2.049 . S
O19 C27 1.260 . S
O20 Zn15 1.996 . S
O20 C27 1.257 . S
C21 O16 1.254 . S
C21 O17 1.269 . S
C22 O23 1.249 . S
C22 O24 1.270 . S
O23 Zn15 1.943 . S
O23 C22 1.249 . S
O24 Zn14 2.067 . S
O24 C22 1.270 . S
C25 O18 1.262 . S
C25 O26 1.232 . S
O26 C25 1.232 . S
C27 O19 1.260 . S
C27 O20 1.257 . S
Zn28 O31 2.031 . S
Zn28 O33 2.049 1_565 S
Zn28 O38 2.067 1_565 S
Zn29 O30 1.962 . S
Zn29 O32 1.986 . S
Zn29 O34 1.996 . S
Zn29 O37 1.943 . S
O30 Zn29 1.962 . S
O30 C35 1.254 . S
O31 Zn28 2.031 . S
O31 C35 1.269 . S
O32 Zn29 1.986 . S
O32 C39 1.262 . S
O33 Zn28 2.049 1_545 S
O33 C41 1.260 . S
O34 Zn29 1.996 . S
O34 C41 1.257 1_565 S
C35 O30 1.254 . S
C35 O31 1.269 . S
C36 O37 1.249 . S
C36 O38 1.270 1_565 S
O37 Zn29 1.943 . S
O37 C36 1.249 . S
O38 Zn28 2.067 1_545 S
O38 C36 1.270 1_545 S
C39 O32 1.262 . S
C39 O40 1.232 . S
O40 C39 1.232 . S
C41 O33 1.260 . S
C41 O34 1.257 1_545 S
Zn42 O45 2.031 . S
Zn42 O47 2.049 1_455 S
Zn42 O52 2.067 1_455 S
Zn43 O44 1.962 . S
Zn43 O46 1.986 . S
Zn43 O48 1.996 . S
Zn43 O51 1.943 . S
O44 Zn43 1.962 . S
O44 C49 1.254 . S
O45 Zn42 2.031 . S
O45 C49 1.269 . S
O46 Zn43 1.986 . S
O46 C53 1.262 . S
O47 Zn42 2.049 1_655 S
O47 C55 1.260 . S
O48 Zn43 1.996 . S
O48 C55 1.257 1_455 S
C49 O44 1.254 . S
C49 O45 1.269 . S
C50 O51 1.249 . S
C50 O52 1.270 1_455 S
O51 Zn43 1.943 . S
O51 C50 1.249 . S
O52 Zn42 2.067 1_655 S
O52 C50 1.270 1_655 S
C53 O46 1.262 . S
C53 O54 1.232 . S
O54 C53 1.232 . S
C55 O47 1.260 . S
C55 O48 1.257 1_655 S
Zn56 O59 2.031 . S
Zn56 O61 2.049 1_545 S
Zn56 O66 2.067 1_545 S
Zn57 O58 1.962 . S
Zn57 O60 1.986 . S
Zn57 O62 1.996 . S
Zn57 O65 1.943 . S
O58 Zn57 1.962 . S
O58 C63 1.254 . S
O59 Zn56 2.031 . S
O59 C63 1.269 . S
O60 Zn57 1.986 . S
O60 C67 1.262 . S
O61 Zn56 2.049 1_565 S
O61 C69 1.260 . S
O62 Zn57 1.996 . S
O62 C69 1.257 1_545 S
C63 O58 1.254 . S
C63 O59 1.269 . S
C64 O65 1.249 . S
C64 O66 1.270 1_545 S
O65 Zn57 1.943 . S
O65 C64 1.249 . S
O66 Zn56 2.067 1_565 S
O66 C64 1.270 1_565 S
C67 O60 1.262 . S
C67 O68 1.232 . S
O68 C67 1.232 . S
C69 O61 1.260 . S
C69 O62 1.257 1_565 S
Zn70 O73 2.031 . S
Zn70 O75 2.049 1_655 S
Zn70 O80 2.067 1_655 S
Zn71 O72 1.962 . S
Zn71 O74 1.986 . S
Zn71 O76 1.996 . S
Zn71 O79 1.943 . S
O72 Zn71 1.962 . S
O72 C77 1.254 . S
O73 Zn70 2.031 . S
O73 C77 1.269 . S
O74 Zn71 1.986 . S
O74 C81 1.262 . S
O75 Zn70 2.049 1_455 S
O75 C83 1.260 . S
O76 Zn71 1.996 . S
O76 C83 1.257 1_655 S
C77 O72 1.254 . S
C77 O73 1.269 . S
C78 O79 1.249 . S
C78 O80 1.270 1_655 S
O79 Zn71 1.943 . S
O79 C78 1.249 . S
O80 Zn70 2.067 1_455 S
O80 C78 1.270 1_455 S
C81 O74 1.262 . S
C81 O82 1.232 . S
O82 C81 1.232 . S
C83 O75 1.260 . S
C83 O76 1.257 1_455 S
Zn84 O87 2.031 . S
Zn84 O89 2.049 . S
Zn84 O94 2.067 . S
Zn85 O86 1.962 . S
Zn85 O88 1.986 . S
Zn85 O90 1.996 . S
Zn85 O93 1.943 . S
O86 Zn85 1.962 . S
O86 C91 1.254 . S
O87 Zn84 2.031 . S
O87 C91 1.269 . S
O88 Zn85 1.986 . S
O88 C95 1.262 . S
O89 Zn84 2.049 . S
O89 C97 1.260 . S
O90 Zn85 1.996 . S
O90 C97 1.257 . S
C91 O86 1.254 . S
C91 O87 1.269 . S
C92 O93 1.249 . S
C92 O94 1.270 . S
O93 Zn85 1.943 . S
O93 C92 1.249 . S
O94 Zn84 2.067 . S
O94 C92 1.270 . S
C95 O88 1.262 . S
C95 O96 1.232 . S
O96 C95 1.232 . S
C97 O89 1.260 . S
C97 O90 1.257 . S
Zn98 O101 2.031 . S
Zn98 O103 2.049 . S
Zn98 O108 2.067 . S
Zn99 O100 1.962 . S
Zn99 O102 1.986 . S
Zn99 O104 1.996 . S
Zn99 O107 1.943 . S
O100 Zn99 1.962 . S
O100 C105 1.254 . S
O101 Zn98 2.031 . S
O101 C105 1.269 . S
O102 Zn99 1.986 . S
O102 C109 1.262 . S
O103 Zn98 2.049 . S
O103 C111 1.260 . S
O104 Zn99 1.996 . S
O104 C111 1.257 . S
C105 O100 1.254 . S
C105 O101 1.269 . S
C106 O107 1.249 . S
C106 O108 1.270 . S
O107 Zn99 1.943 . S
O107 C106 1.249 . S
O108 Zn98 2.067 . S
O108 C106 1.270 . S
C109 O102 1.262 . S
C109 O110 1.232 . S
O110 C109 1.232 . S
C111 O103 1.260 . S
C111 O104 1.257 . S
H112 C130 0.951 . S
H113 C132 0.951 . S
H114 C134 0.950 . S
H115 C135 0.950 . S
H116 C137 0.950 . S
H117 C140 0.950 . S
H118 C141 0.950 . S
H119 C143 0.950 . S
H120 C144 0.950 . S
H121 C145 0.951 . S
H122 C147 0.951 . S
H123 C149 0.950 . S
H124 C150 0.950 . S
H125 C152 0.950 . S
H126 C155 0.950 . S
H127 C156 0.950 . S
H128 C158 0.950 . S
H129 C159 0.950 . S
C130 H112 0.951 . S
C130 C131 1.366 . S
C130 C132 1.388 . S
C131 C130 1.366 . S
C131 C135 1.385 . S
C132 H113 0.951 . S
C132 C130 1.388 . S
C132 C133 1.366 . S
C133 C132 1.366 . S
C133 C134 1.414 . S
C133 C136 1.499 . S
C134 H114 0.950 . S
C134 C133 1.414 . S
C134 C135 1.374 . S
C135 H115 0.950 . S
C135 C131 1.385 . S
C135 C134 1.374 . S
C136 C133 1.499 . S
C136 C137 1.373 . S
C136 C138 1.389 1_556 S
C137 H116 0.950 . S
C137 C136 1.373 . S
C137 C153 1.377 . S
C138 C136 1.389 1_554 S
C138 C139 1.524 . S
C138 C152 1.377 . S
C139 C138 1.524 . S
C139 C140 1.397 . S
C139 C144 1.363 . S
C140 H117 0.950 . S
C140 C139 1.397 . S
C140 C141 1.334 . S
C141 H118 0.950 . S
C141 C140 1.334 . S
C141 C142 1.287 . S
C142 C141 1.287 . S
C142 C143 1.524 . S
C142 H161 0.913 . S
C143 H119 0.950 . S
C143 C142 1.524 . S
C143 C144 1.415 . S
C144 H120 0.950 . S
C144 C139 1.363 . S
C144 C143 1.415 . S
C145 H121 0.951 . S
C145 C146 1.366 . S
C145 C147 1.388 . S
C146 C145 1.366 . S
C146 C150 1.385 . S
C147 H122 0.951 . S
C147 C145 1.388 . S
C147 C148 1.366 . S
C148 C147 1.366 . S
C148 C149 1.414 . S
C148 C151 1.499 . S
C149 H123 0.950 . S
C149 C148 1.414 . S
C149 C150 1.374 . S
C150 H124 0.950 . S
C150 C146 1.385 . S
C150 C149 1.374 . S
C151 C148 1.499 . S
C151 C152 1.373 . S
C151 C153 1.389 1_554 S
C152 H125 0.950 . S
C152 C138 1.377 . S
C152 C151 1.373 . S
C153 C137 1.377 . S
C153 C151 1.389 1_556 S
C153 C154 1.524 . S
C154 C153 1.524 . S
C154 C155 1.397 . S
C154 C159 1.363 . S
C155 H126 0.950 . S
C155 C154 1.397 . S
C155 C156 1.334 . S
C156 H127 0.950 . S
C156 C155 1.334 . S
C156 C157 1.287 . S
C157 C156 1.287 . S
C157 C158 1.524 . S
C157 H160 0.999 . S
C158 H128 0.950 . S
C158 C157 1.524 . S
C158 C159 1.415 . S
C159 H129 0.950 . S
C159 C154 1.363 . S
C159 C158 1.415 . S
H160 C157 0.999 . S
H161 C142 0.913 . S
H162 C180 0.951 . S
H163 C182 0.951 . S
H164 C184 0.950 . S
H165 C185 0.950 . S
H166 C187 0.950 . S
H167 C190 0.950 . S
H168 C191 0.950 . S
H169 C193 0.950 . S
H170 C194 0.950 . S
H171 C195 0.951 . S
H172 C197 0.951 . S
H173 C199 0.950 . S
H174 C200 0.950 . S
H175 C202 0.950 . S
H176 C205 0.950 . S
H177 C206 0.950 . S
H178 C208 0.950 . S
H179 C209 0.950 . S
C180 H162 0.951 . S
C180 C181 1.366 . S
C180 C182 1.388 . S
C181 C180 1.366 . S
C181 C185 1.385 . S
C182 H163 0.951 . S
C182 C180 1.388 . S
C182 C183 1.366 . S
C183 C182 1.366 . S
C183 C184 1.414 . S
C183 C186 1.499 . S
C184 H164 0.950 . S
C184 C183 1.414 . S
C184 C185 1.374 . S
C185 H165 0.950 . S
C185 C181 1.385 . S
C185 C184 1.374 . S
C186 C183 1.499 . S
C186 C187 1.373 . S
C186 C188 1.389 . S
C187 H166 0.950 . S
C187 C186 1.373 . S
C187 C203 1.377 . S
C188 C186 1.389 . S
C188 C189 1.524 . S
C188 C202 1.377 . S
C189 C188 1.524 . S
C189 C190 1.397 . S
C189 C194 1.363 . S
C190 H167 0.950 . S
C190 C189 1.397 . S
C190 C191 1.334 . S
C191 H168 0.950 . S
C191 C190 1.334 . S
C191 C192 1.287 . S
C192 C191 1.287 . S
C192 C193 1.524 . S
C192 H211 0.913 . S
C193 H169 0.950 . S
C193 C192 1.524 . S
C193 C194 1.415 . S
C194 H170 0.950 . S
C194 C189 1.363 . S
C194 C193 1.415 . S
C195 H171 0.951 . S
C195 C196 1.366 . S
C195 C197 1.388 . S
C196 C195 1.366 . S
C196 C200 1.385 . S
C197 H172 0.951 . S
C197 C195 1.388 . S
C197 C198 1.366 . S
C198 C197 1.366 . S
C198 C199 1.414 . S
C198 C201 1.499 . S
C199 H173 0.950 . S
C199 C198 1.414 . S
C199 C200 1.374 . S
C200 H174 0.950 . S
C200 C196 1.385 . S
C200 C199 1.374 . S
C201 C198 1.499 . S
C201 C202 1.373 . S
C201 C203 1.389 . S
C202 H175 0.950 . S
C202 C188 1.377 . S
C202 C201 1.373 . S
C203 C187 1.377 . S
C203 C201 1.389 . S
C203 C204 1.524 . S
C204 C203 1.524 . S
C204 C205 1.397 . S
C204 C209 1.363 . S
C205 H176 0.950 . S
C205 C204 1.397 . S
C205 C206 1.334 . S
C206 H177 0.950 . S
C206 C205 1.334 . S
C206 C207 1.287 . S
C207 C206 1.287 . S
C207 C208 1.524 . S
C207 H210 0.999 . S
C208 H178 0.950 . S
C208 C207 1.524 . S
C208 C209 1.415 . S
C209 H179 0.950 . S
C209 C204 1.363 . S
C209 C208 1.415 . S
H210 C207 0.999 . S
H211 C192 0.913 . S
H212 C230 0.951 . S
H213 C232 0.951 . S
H214 C234 0.950 . S
H215 C235 0.950 . S
H216 C237 0.950 . S
H217 C240 0.950 . S
H218 C241 0.950 . S
H219 C243 0.950 . S
H220 C244 0.950 . S
H221 C245 0.951 . S
H222 C247 0.951 . S
H223 C249 0.950 . S
H224 C250 0.950 . S
H225 C252 0.950 . S
H226 C255 0.950 . S
H227 C256 0.950 . S
H228 C258 0.950 . S
H229 C259 0.950 . S
C230 H212 0.951 . S
C230 C231 1.366 . S
C230 C232 1.388 . S
C231 C230 1.366 . S
C231 C235 1.385 . S
C232 H213 0.951 . S
C232 C230 1.388 . S
C232 C233 1.366 . S
C233 C232 1.366 . S
C233 C234 1.414 . S
C233 C236 1.499 . S
C234 H214 0.950 . S
C234 C233 1.414 . S
C234 C235 1.374 . S
C235 H215 0.950 . S
C235 C231 1.385 . S
C235 C234 1.374 . S
C236 C233 1.499 . S
C236 C237 1.373 . S
C236 C238 1.389 . S
C237 H216 0.950 . S
C237 C236 1.373 . S
C237 C253 1.377 . S
C238 C236 1.389 . S
C238 C239 1.524 . S
C238 C252 1.377 . S
C239 C238 1.524 . S
C239 C240 1.397 . S
C239 C244 1.363 . S
C240 H217 0.950 . S
C240 C239 1.397 . S
C240 C241 1.334 . S
C241 H218 0.950 . S
C241 C240 1.334 . S
C241 C242 1.287 . S
C242 C241 1.287 . S
C242 C243 1.524 . S
C242 H261 0.913 . S
C243 H219 0.950 . S
C243 C242 1.524 . S
C243 C244 1.415 . S
C244 H220 0.950 . S
C244 C239 1.363 . S
C244 C243 1.415 . S
C245 H221 0.951 . S
C245 C246 1.366 . S
C245 C247 1.388 . S
C246 C245 1.366 . S
C246 C250 1.385 . S
C247 H222 0.951 . S
C247 C245 1.388 . S
C247 C248 1.366 . S
C248 C247 1.366 . S
C248 C249 1.414 . S
C248 C251 1.499 . S
C249 H223 0.950 . S
C249 C248 1.414 . S
C249 C250 1.374 . S
C250 H224 0.950 . S
C250 C246 1.385 . S
C250 C249 1.374 . S
C251 C248 1.499 . S
C251 C252 1.373 . S
C251 C253 1.389 . S
C252 H225 0.950 . S
C252 C238 1.377 . S
C252 C251 1.373 . S
C253 C237 1.377 . S
C253 C251 1.389 . S
C253 C254 1.524 . S
C254 C253 1.524 . S
C254 C255 1.397 . S
C254 C259 1.363 . S
C255 H226 0.950 . S
C255 C254 1.397 . S
C255 C256 1.334 . S
C256 H227 0.950 . S
C256 C255 1.334 . S
C256 C257 1.287 . S
C257 C256 1.287 . S
C257 C258 1.524 . S
C257 H260 0.999 . S
C258 H228 0.950 . S
C258 C257 1.524 . S
C258 C259 1.415 . S
C259 H229 0.950 . S
C259 C254 1.363 . S
C259 C258 1.415 . S
H260 C257 0.999 . S
H261 C242 0.913 . S
H262 C280 0.951 . S
H263 C282 0.951 . S
H264 C284 0.950 . S
H265 C285 0.950 . S
H266 C287 0.950 . S
H267 C290 0.950 . S
H268 C291 0.950 1_554 S
H269 C293 0.950 . S
H270 C294 0.950 . S
H271 C295 0.951 . S
H272 C297 0.951 . S
H273 C299 0.950 . S
H274 C300 0.950 . S
H275 C302 0.950 . S
H276 C305 0.950 . S
H277 C306 0.950 . S
H278 C308 0.950 . S
H279 C309 0.950 . S
C280 H262 0.951 . S
C280 C281 1.366 . S
C280 C282 1.388 . S
C281 C280 1.366 . S
C281 C285 1.385 . S
C282 H263 0.951 . S
C282 C280 1.388 . S
C282 C283 1.366 . S
C283 C282 1.366 . S
C283 C284 1.414 . S
C283 C286 1.499 . S
C284 H264 0.950 . S
C284 C283 1.414 . S
C284 C285 1.374 . S
C285 H265 0.950 . S
C285 C281 1.385 . S
C285 C284 1.374 . S
C286 C283 1.499 . S
C286 C287 1.373 . S
C286 C288 1.389 . S
C287 H266 0.950 . S
C287 C286 1.373 . S
C287 C303 1.377 . S
C288 C286 1.389 . S
C288 C289 1.524 . S
C288 C302 1.377 . S
C289 C288 1.524 . S
C289 C290 1.397 . S
C289 C294 1.363 . S
C290 H267 0.950 . S
C290 C289 1.397 . S
C290 C291 1.334 . S
C291 H268 0.950 1_556 S
C291 C290 1.334 . S
C291 C292 1.287 . S
C292 C291 1.287 . S
C292 C293 1.524 . S
C292 H311 0.913 . S
C293 H269 0.950 . S
C293 C292 1.524 . S
C293 C294 1.415 . S
C294 H270 0.950 . S
C294 C289 1.363 . S
C294 C293 1.415 . S
C295 H271 0.951 . S
C295 C296 1.366 . S
C295 C297 1.388 . S
C296 C295 1.366 . S
C296 C300 1.385 . S
C297 H272 0.951 . S
C297 C295 1.388 . S
C297 C298 1.366 . S
C298 C297 1.366 . S
C298 C299 1.414 . S
C298 C301 1.499 . S
C299 H273 0.950 . S
C299 C298 1.414 . S
C299 C300 1.374 . S
C300 H274 0.950 . S
C300 C296 1.385 . S
C300 C299 1.374 . S
C301 C298 1.499 . S
C301 C302 1.373 . S
C301 C303 1.389 . S
C302 H275 0.950 . S
C302 C288 1.377 . S
C302 C301 1.373 . S
C303 C287 1.377 . S
C303 C301 1.389 . S
C303 C304 1.524 . S
C304 C303 1.524 . S
C304 C305 1.397 . S
C304 C309 1.363 . S
C305 H276 0.950 . S
C305 C304 1.397 . S
C305 C306 1.334 . S
C306 H277 0.950 . S
C306 C305 1.334 . S
C306 C307 1.287 . S
C307 C306 1.287 . S
C307 C308 1.524 . S
C307 H310 0.999 . S
C308 H278 0.950 . S
C308 C307 1.524 . S
C308 C309 1.415 . S
C309 H279 0.950 . S
C309 C304 1.363 . S
C309 C308 1.415 . S
H310 C307 0.999 . S
H311 C292 0.913 . S
H312 C330 0.951 . S
H313 C332 0.951 . S
H314 C334 0.950 . S
H315 C335 0.950 . S
H316 C337 0.950 . S
H317 C340 0.950 . S
H318 C341 0.950 . S
H319 C343 0.950 . S
H320 C344 0.950 . S
H321 C345 0.951 . S
H322 C347 0.951 . S
H323 C349 0.950 . S
H324 C350 0.950 . S
H325 C352 0.950 . S
H326 C355 0.950 . S
H327 C356 0.950 . S
H328 C358 0.950 . S
H329 C359 0.950 . S
C330 H312 0.951 . S
C330 C331 1.366 . S
C330 C332 1.388 . S
C331 C330 1.366 . S
C331 C335 1.385 . S
C332 H313 0.951 . S
C332 C330 1.388 . S
C332 C333 1.366 . S
C333 C332 1.366 . S
C333 C334 1.414 . S
C333 C336 1.499 . S
C334 H314 0.950 . S
C334 C333 1.414 . S
C334 C335 1.374 . S
C335 H315 0.950 . S
C335 C331 1.385 . S
C335 C334 1.374 . S
C336 C333 1.499 . S
C336 C337 1.373 . S
C336 C338 1.389 . S
C337 H316 0.950 . S
C337 C336 1.373 . S
C337 C353 1.377 . S
C338 C336 1.389 . S
C338 C339 1.524 . S
C338 C352 1.377 . S
C339 C338 1.524 . S
C339 C340 1.397 . S
C339 C344 1.363 . S
C340 H317 0.950 . S
C340 C339 1.397 . S
C340 C341 1.334 . S
C341 H318 0.950 . S
C341 C340 1.334 . S
C341 C342 1.287 . S
C342 C341 1.287 . S
C342 C343 1.524 . S
C342 H361 0.913 . S
C343 H319 0.950 . S
C343 C342 1.524 . S
C343 C344 1.415 . S
C344 H320 0.950 . S
C344 C339 1.363 . S
C344 C343 1.415 . S
C345 H321 0.951 . S
C345 C346 1.366 . S
C345 C347 1.388 . S
C346 C345 1.366 . S
C346 C350 1.385 . S
C347 H322 0.951 . S
C347 C345 1.388 . S
C347 C348 1.366 . S
C348 C347 1.366 . S
C348 C349 1.414 . S
C348 C351 1.499 . S
C349 H323 0.950 . S
C349 C348 1.414 . S
C349 C350 1.374 . S
C350 H324 0.950 . S
C350 C346 1.385 . S
C350 C349 1.374 . S
C351 C348 1.499 . S
C351 C352 1.373 . S
C351 C353 1.389 . S
C352 H325 0.950 . S
C352 C338 1.377 . S
C352 C351 1.373 . S
C353 C337 1.377 . S
C353 C351 1.389 . S
C353 C354 1.524 . S
C354 C353 1.524 . S
C354 C355 1.397 . S
C354 C359 1.363 . S
C355 H326 0.950 . S
C355 C354 1.397 . S
C355 C356 1.334 . S
C356 H327 0.950 . S
C356 C355 1.334 . S
C356 C357 1.287 . S
C357 C356 1.287 . S
C357 C358 1.524 . S
C357 H360 0.999 . S
C358 H328 0.950 . S
C358 C357 1.524 . S
C358 C359 1.415 . S
C359 H329 0.950 . S
C359 C354 1.363 . S
C359 C358 1.415 . S
H360 C357 0.999 . S
H361 C342 0.913 . S
H362 C380 0.951 . S
H363 C382 0.951 . S
H364 C384 0.950 . S
H365 C385 0.950 1_554 S
H366 C387 0.950 . S
H367 C390 0.950 . S
H368 C391 0.950 . S
H369 C393 0.950 . S
H370 C394 0.950 . S
H371 C395 0.951 . S
H372 C397 0.951 . S
H373 C399 0.950 . S
H374 C400 0.950 . S
H375 C402 0.950 . S
H376 C405 0.950 . S
H377 C406 0.950 . S
H378 C408 0.950 . S
H379 C409 0.950 . S
C380 H362 0.951 . S
C380 C381 1.366 . S
C380 C382 1.388 . S
C381 C380 1.366 . S
C381 C385 1.385 . S
C382 H363 0.951 . S
C382 C380 1.388 . S
C382 C383 1.366 . S
C383 C382 1.366 . S
C383 C384 1.414 . S
C383 C386 1.499 . S
C384 H364 0.950 . S
C384 C383 1.414 . S
C384 C385 1.374 . S
C385 H365 0.950 1_556 S
C385 C381 1.385 . S
C385 C384 1.374 . S
C386 C383 1.499 . S
C386 C387 1.373 . S
C386 C388 1.389 . S
C387 H366 0.950 . S
C387 C386 1.373 . S
C387 C403 1.377 . S
C388 C386 1.389 . S
C388 C389 1.524 . S
C388 C402 1.377 . S
C389 C388 1.524 . S
C389 C390 1.397 . S
C389 C394 1.363 . S
C390 H367 0.950 . S
C390 C389 1.397 . S
C390 C391 1.334 . S
C391 H368 0.950 . S
C391 C390 1.334 . S
C391 C392 1.287 . S
C392 C391 1.287 . S
C392 C393 1.524 . S
C392 H411 0.913 . S
C393 H369 0.950 . S
C393 C392 1.524 . S
C393 C394 1.415 . S
C394 H370 0.950 . S
C394 C389 1.363 . S
C394 C393 1.415 . S
C395 H371 0.951 . S
C395 C396 1.366 . S
C395 C397 1.388 . S
C396 C395 1.366 . S
C396 C400 1.385 . S
C397 H372 0.951 . S
C397 C395 1.388 . S
C397 C398 1.366 . S
C398 C397 1.366 . S
C398 C399 1.414 . S
C398 C401 1.499 . S
C399 H373 0.950 . S
C399 C398 1.414 . S
C399 C400 1.374 . S
C400 H374 0.950 . S
C400 C396 1.385 . S
C400 C399 1.374 . S
C401 C398 1.499 . S
C401 C402 1.373 . S
C401 C403 1.389 . S
C402 H375 0.950 . S
C402 C388 1.377 . S
C402 C401 1.373 . S
C403 C387 1.377 . S
C403 C401 1.389 . S
C403 C404 1.524 . S
C404 C403 1.524 . S
C404 C405 1.397 . S
C404 C409 1.363 . S
C405 H376 0.950 . S
C405 C404 1.397 . S
C405 C406 1.334 . S
C406 H377 0.950 . S
C406 C405 1.334 . S
C406 C407 1.287 . S
C407 C406 1.287 . S
C407 C408 1.524 . S
C407 H410 0.999 . S
C408 H378 0.950 . S
C408 C407 1.524 . S
C408 C409 1.415 . S
C409 H379 0.950 . S
C409 C404 1.363 . S
C409 C408 1.415 . S
H410 C407 0.999 . S
H411 C392 0.913 . S
H412 C430 0.951 . S
H413 C432 0.951 . S
H414 C434 0.950 . S
H415 C435 0.950 . S
H416 C437 0.950 . S
H417 C440 0.950 . S
H418 C441 0.950 . S
H419 C443 0.950 . S
H420 C444 0.950 . S
H421 C445 0.951 . S
H422 C447 0.951 . S
H423 C449 0.950 . S
H424 C450 0.950 . S
H425 C452 0.950 . S
H426 C455 0.950 . S
H427 C456 0.950 . S
H428 C458 0.950 . S
H429 C459 0.950 . S
C430 H412 0.951 . S
C430 C431 1.366 . S
C430 C432 1.388 . S
C431 C430 1.366 . S
C431 C435 1.385 . S
C432 H413 0.951 . S
C432 C430 1.388 . S
C432 C433 1.366 . S
C433 C432 1.366 . S
C433 C434 1.414 . S
C433 C436 1.499 . S
C434 H414 0.950 . S
C434 C433 1.414 . S
C434 C435 1.374 . S
C435 H415 0.950 . S
C435 C431 1.385 . S
C435 C434 1.374 . S
C436 C433 1.499 . S
C436 C437 1.373 . S
C436 C438 1.383 1_554 S
C437 H416 0.950 . S
C437 C436 1.373 . S
C437 C453 1.383 . S
C438 C436 1.383 1_556 S
C438 C439 1.526 . S
C438 C452 1.383 . S
C439 C438 1.526 . S
C439 C440 1.397 . S
C439 C444 1.363 . S
C440 H417 0.950 . S
C440 C439 1.397 . S
C440 C441 1.334 . S
C441 H418 0.950 . S
C441 C440 1.334 . S
C441 C442 1.287 . S
C442 C441 1.287 . S
C442 C443 1.524 . S
C442 H461 0.913 . S
C443 H419 0.950 . S
C443 C442 1.524 . S
C443 C444 1.415 . S
C444 H420 0.950 . S
C444 C439 1.363 . S
C444 C443 1.415 . S
C445 H421 0.951 . S
C445 C446 1.366 . S
C445 C447 1.388 . S
C446 C445 1.366 . S
C446 C450 1.385 . S
C447 H422 0.951 . S
C447 C445 1.388 . S
C447 C448 1.366 . S
C448 C447 1.366 . S
C448 C449 1.414 . S
C448 C451 1.499 . S
C449 H423 0.950 . S
C449 C448 1.414 . S
C449 C450 1.374 . S
C450 H424 0.950 . S
C450 C446 1.385 . S
C450 C449 1.374 . S
C451 C448 1.499 . S
C451 C452 1.373 . S
C451 C453 1.383 1_556 S
C452 H425 0.950 . S
C452 C438 1.383 . S
C452 C451 1.373 . S
C453 C437 1.383 . S
C453 C451 1.383 1_554 S
C453 C454 1.526 . S
C454 C453 1.526 . S
C454 C455 1.397 . S
C454 C459 1.363 . S
C455 H426 0.950 . S
C455 C454 1.397 . S
C455 C456 1.334 . S
C456 H427 0.950 . S
C456 C455 1.334 . S
C456 C457 1.287 . S
C457 C456 1.287 . S
C457 C458 1.524 . S
C457 H460 0.999 . S
C458 H428 0.950 . S
C458 C457 1.524 . S
C458 C459 1.415 . S
C459 H429 0.950 . S
C459 C454 1.363 . S
C459 C458 1.415 . S
H460 C457 0.999 . S
H461 C442 0.913 . S
H462 C480 0.951 . S
H463 C482 0.951 . S
H464 C484 0.950 . S
H465 C485 0.950 1_556 S
H466 C487 0.950 . S
H467 C490 0.950 . S
H468 C491 0.950 . S
H469 C493 0.950 . S
H470 C494 0.950 . S
H471 C495 0.951 . S
H472 C497 0.951 . S
H473 C499 0.950 . S
H474 C500 0.950 . S
H475 C502 0.950 . S
H476 C505 0.950 . S
H477 C506 0.950 . S
H478 C508 0.950 . S
H479 C509 0.950 . S
C480 H462 0.951 . S
C480 C481 1.366 . S
C480 C482 1.388 . S
C481 C480 1.366 . S
C481 C485 1.385 . S
C482 H463 0.951 . S
C482 C480 1.388 . S
C482 C483 1.366 . S
C483 C482 1.366 . S
C483 C484 1.414 . S
C483 C486 1.499 . S
C484 H464 0.950 . S
C484 C483 1.414 . S
C484 C485 1.374 . S
C485 H465 0.950 1_554 S
C485 C481 1.385 . S
C485 C484 1.374 . S
C486 C483 1.499 . S
C486 C487 1.373 . S
C486 C488 1.389 . S
C487 H466 0.950 . S
C487 C486 1.373 . S
C487 C503 1.377 . S
C488 C486 1.389 . S
C488 C489 1.524 . S
C488 C502 1.377 . S
C489 C488 1.524 . S
C489 C490 1.397 . S
C489 C494 1.363 . S
C490 H467 0.950 . S
C490 C489 1.397 . S
C490 C491 1.334 . S
C491 H468 0.950 . S
C491 C490 1.334 . S
C491 C492 1.287 . S
C492 C491 1.287 . S
C492 C493 1.524 . S
C492 H511 0.913 . S
C493 H469 0.950 . S
C493 C492 1.524 . S
C493 C494 1.415 . S
C494 H470 0.950 . S
C494 C489 1.363 . S
C494 C493 1.415 . S
C495 H471 0.951 . S
C495 C496 1.366 . S
C495 C497 1.388 . S
C496 C495 1.366 . S
C496 C500 1.385 . S
C497 H472 0.951 . S
C497 C495 1.388 . S
C497 C498 1.366 . S
C498 C497 1.366 . S
C498 C499 1.414 . S
C498 C501 1.499 . S
C499 H473 0.950 . S
C499 C498 1.414 . S
C499 C500 1.374 . S
C500 H474 0.950 . S
C500 C496 1.385 . S
C500 C499 1.374 . S
C501 C498 1.499 . S
C501 C502 1.373 . S
C501 C503 1.389 . S
C502 H475 0.950 . S
C502 C488 1.377 . S
C502 C501 1.373 . S
C503 C487 1.377 . S
C503 C501 1.389 . S
C503 C504 1.524 . S
C504 C503 1.524 . S
C504 C505 1.397 . S
C504 C509 1.363 . S
C505 H476 0.950 . S
C505 C504 1.397 . S
C505 C506 1.334 . S
C506 H477 0.950 . S
C506 C505 1.334 . S
C506 C507 1.287 . S
C507 C506 1.287 . S
C507 C508 1.524 . S
C507 H510 0.999 . S
C508 H478 0.950 . S
C508 C507 1.524 . S
C508 C509 1.415 . S
C509 H479 0.950 . S
C509 C504 1.363 . S
C509 C508 1.415 . S
H510 C507 0.999 . S
H511 C492 0.913 . S
H512 C530 0.951 . S
H513 C532 0.951 . S
H514 C534 0.950 . S
H515 C535 0.950 . S
H516 C537 0.950 . S
H517 C540 0.950 . S
H518 C541 0.950 . S
H519 C543 0.950 . S
H520 C544 0.950 . S
H521 C545 0.951 . S
H522 C547 0.951 . S
H523 C549 0.950 . S
H524 C550 0.950 . S
H525 C552 0.950 . S
H526 C555 0.950 . S
H527 C556 0.950 . S
H528 C558 0.950 . S
H529 C559 0.950 . S
C530 H512 0.951 . S
C530 C531 1.366 . S
C530 C532 1.388 . S
C531 C530 1.366 . S
C531 C535 1.385 . S
C532 H513 0.951 . S
C532 C530 1.388 . S
C532 C533 1.366 . S
C533 C532 1.366 . S
C533 C534 1.414 . S
C533 C536 1.499 . S
C534 H514 0.950 . S
C534 C533 1.414 . S
C534 C535 1.374 . S
C535 H515 0.950 . S
C535 C531 1.385 . S
C535 C534 1.374 . S
C536 C533 1.499 . S
C536 C537 1.373 . S
C536 C538 1.389 . S
C537 H516 0.950 . S
C537 C536 1.373 . S
C537 C553 1.377 . S
C538 C536 1.389 . S
C538 C539 1.524 . S
C538 C552 1.377 . S
C539 C538 1.524 . S
C539 C540 1.397 . S
C539 C544 1.363 . S
C540 H517 0.950 . S
C540 C539 1.397 . S
C540 C541 1.334 . S
C541 H518 0.950 . S
C541 C540 1.334 . S
C541 C542 1.287 . S
C542 C541 1.287 . S
C542 C543 1.524 . S
C542 H561 0.913 . S
C543 H519 0.950 . S
C543 C542 1.524 . S
C543 C544 1.415 . S
C544 H520 0.950 . S
C544 C539 1.363 . S
C544 C543 1.415 . S
C545 H521 0.951 . S
C545 C546 1.366 . S
C545 C547 1.388 . S
C546 C545 1.366 . S
C546 C550 1.385 . S
C547 H522 0.951 . S
C547 C545 1.388 . S
C547 C548 1.366 . S
C548 C547 1.366 . S
C548 C549 1.414 . S
C548 C551 1.499 . S
C549 H523 0.950 . S
C549 C548 1.414 . S
C549 C550 1.374 . S
C550 H524 0.950 . S
C550 C546 1.385 . S
C550 C549 1.374 . S
C551 C548 1.499 . S
C551 C552 1.373 . S
C551 C553 1.389 . S
C552 H525 0.950 . S
C552 C538 1.377 . S
C552 C551 1.373 . S
C553 C537 1.377 . S
C553 C551 1.389 . S
C553 C554 1.524 . S
C554 C553 1.524 . S
C554 C555 1.397 . S
C554 C559 1.363 . S
C555 H526 0.950 . S
C555 C554 1.397 . S
C555 C556 1.334 . S
C556 H527 0.950 . S
C556 C555 1.334 . S
C556 C557 1.287 . S
C557 C556 1.287 . S
C557 C558 1.524 . S
C557 H560 0.999 . S
C558 H528 0.950 . S
C558 C557 1.524 . S
C558 C559 1.415 . S
C559 H529 0.950 . S
C559 C554 1.363 . S
C559 C558 1.415 . S
H560 C557 0.999 . S
H561 C542 0.913 . S
H562 C580 0.951 . S
H563 C582 0.951 . S
H564 C584 0.950 . S
H565 C585 0.950 . S
H566 C587 0.950 . S
H567 C590 0.950 . S
H568 C591 0.950 . S
H569 C593 0.950 . S
H570 C594 0.950 . S
H571 C595 0.951 . S
H572 C597 0.951 . S
H573 C599 0.950 . S
H574 C600 0.950 . S
H575 C602 0.950 . S
H576 C605 0.950 . S
H577 C606 0.950 . S
H578 C608 0.950 . S
H579 C609 0.950 . S
C580 H562 0.951 . S
C580 C581 1.366 . S
C580 C582 1.388 . S
C581 C580 1.366 . S
C581 C585 1.385 . S
C582 H563 0.951 . S
C582 C580 1.388 . S
C582 C583 1.366 . S
C583 C582 1.366 . S
C583 C584 1.414 . S
C583 C586 1.499 . S
C584 H564 0.950 . S
C584 C583 1.414 . S
C584 C585 1.374 . S
C585 H565 0.950 . S
C585 C581 1.385 . S
C585 C584 1.374 . S
C586 C583 1.499 . S
C586 C587 1.373 . S
C586 C588 1.389 . S
C587 H566 0.950 . S
C587 C586 1.373 . S
C587 C603 1.377 . S
C588 C586 1.389 . S
C588 C589 1.524 . S
C588 C602 1.377 . S
C589 C588 1.524 . S
C589 C590 1.397 . S
C589 C594 1.363 . S
C590 H567 0.950 . S
C590 C589 1.397 . S
C590 C591 1.334 . S
C591 H568 0.950 . S
C591 C590 1.334 . S
C591 C592 1.287 . S
C592 C591 1.287 . S
C592 C593 1.524 . S
C592 H611 0.913 . S
C593 H569 0.950 . S
C593 C592 1.524 . S
C593 C594 1.415 . S
C594 H570 0.950 . S
C594 C589 1.363 . S
C594 C593 1.415 . S
C595 H571 0.951 . S
C595 C596 1.366 . S
C595 C597 1.388 . S
C596 C595 1.366 . S
C596 C600 1.385 . S
C597 H572 0.951 . S
C597 C595 1.388 . S
C597 C598 1.366 . S
C598 C597 1.366 . S
C598 C599 1.414 . S
C598 C601 1.499 . S
C599 H573 0.950 . S
C599 C598 1.414 . S
C599 C600 1.374 . S
C600 H574 0.950 . S
C600 C596 1.385 . S
C600 C599 1.374 . S
C601 C598 1.499 . S
C601 C602 1.373 . S
C601 C603 1.389 . S
C602 H575 0.950 . S
C602 C588 1.377 . S
C602 C601 1.373 . S
C603 C587 1.377 . S
C603 C601 1.389 . S
C603 C604 1.524 . S
C604 C603 1.524 . S
C604 C605 1.397 . S
C604 C609 1.363 . S
C605 H576 0.950 . S
C605 C604 1.397 . S
C605 C606 1.334 . S
C606 H577 0.950 . S
C606 C605 1.334 . S
C606 C607 1.287 . S
C607 C606 1.287 . S
C607 C608 1.524 . S
C607 H610 0.999 . S
C608 H578 0.950 . S
C608 C607 1.524 . S
C608 C609 1.415 . S
C609 H579 0.950 . S
C609 C604 1.363 . S
C609 C608 1.415 . S
H610 C607 0.999 . S
H611 C592 0.913 . S
H612 C630 0.951 1_556 S
H613 C632 0.951 . S
H614 C634 0.950 . S
H615 C635 0.950 . S
H616 C637 0.950 . S
H617 C640 0.950 . S
H618 C641 0.919 1_655 S
H619 C643 0.950 . S
H620 C644 0.950 . S
H621 C645 0.951 1_564 S
H622 C647 0.947 1_554 S
H623 C649 0.950 . S
H624 C650 0.950 . S
H625 C652 0.950 . S
H626 C655 0.950 . S
H627 C656 0.950 . S
H628 C658 0.950 . S
H629 C659 0.950 . S
C630 H612 0.951 1_554 S
C630 C631 1.366 . S
C630 C632 1.388 1_554 S
C631 C630 1.366 . S
C631 C635 1.385 . S
C632 H613 0.951 . S
C632 C630 1.388 1_556 S
C632 C633 1.366 1_556 S
C633 C632 1.366 1_554 S
C633 C634 1.414 . S
C633 C636 1.499 . S
C634 H614 0.950 . S
C634 C633 1.414 . S
C634 C635 1.374 . S
C635 H615 0.950 . S
C635 C631 1.385 . S
C635 C634 1.374 . S
C636 C633 1.499 . S
C636 C637 1.373 . S
C636 C638 1.389 1_554 S
C637 H616 0.950 . S
C637 C636 1.373 . S
C637 C653 1.377 . S
C638 C636 1.389 1_556 S
C638 C639 1.524 . S
C638 C652 1.377 . S
C639 C638 1.524 . S
C639 C640 1.397 . S
C639 C644 1.363 . S
C640 H617 0.950 . S
C640 C639 1.397 . S
C640 C641 1.334 . S
C641 H618 0.919 1_455 S
C641 C640 1.334 . S
C641 C642 1.287 . S
C642 C641 1.287 . S
C642 C643 1.524 . S
C642 H661 0.913 . S
C643 H619 0.950 . S
C643 C642 1.524 . S
C643 C644 1.415 . S
C644 H620 0.950 . S
C644 C639 1.363 . S
C644 C643 1.415 . S
C645 H621 0.951 1_546 S
C645 C646 1.366 . S
C645 C647 1.389 . S
C646 C645 1.366 . S
C646 C650 1.385 . S
C647 H622 0.947 1_556 S
C647 C645 1.389 . S
C647 C648 1.368 . S
C648 C647 1.368 . S
C648 C649 1.414 . S
C648 C651 1.499 . S
C649 H623 0.950 . S
C649 C648 1.414 . S
C649 C650 1.374 . S
C650 H624 0.950 . S
C650 C646 1.385 . S
C650 C649 1.374 . S
C651 C648 1.499 . S
C651 C652 1.373 . S
C651 C653 1.389 1_556 S
C652 H625 0.950 . S
C652 C638 1.377 . S
C652 C651 1.373 . S
C653 C637 1.377 . S
C653 C651 1.389 1_554 S
C653 C654 1.524 . S
C654 C653 1.524 . S
C654 C655 1.397 . S
C654 C659 1.363 . S
C655 H626 0.950 . S
C655 C654 1.397 . S
C655 C656 1.334 . S
C656 H627 0.950 . S
C656 C655 1.334 . S
C656 C657 1.287 . S
C657 C656 1.287 . S
C657 C658 1.524 . S
C657 H660 0.999 . S
C658 H628 0.950 . S
C658 C657 1.524 . S
C658 C659 1.415 . S
C659 H629 0.950 . S
C659 C654 1.363 . S
C659 C658 1.415 . S
H660 C657 0.999 . S
H661 C642 0.913 . S
H662 C680 0.951 1_455 S
H663 C682 0.951 . S
H664 C684 0.950 . S
H665 C685 0.950 . S
H666 C687 0.950 . S
H667 C690 0.950 . S
H668 C691 0.950 1_556 S
H669 C693 0.950 . S
H670 C694 0.950 . S
H671 C695 0.951 . S
H672 C697 0.951 . S
H673 C699 0.950 . S
H674 C700 0.950 . S
H675 C702 0.950 . S
H676 C705 0.950 . S
H677 C706 0.950 . S
H678 C708 0.950 . S
H679 C709 0.950 . S
C680 H662 0.951 1_655 S
C680 C681 1.366 . S
C680 C682 1.388 . S
C681 C680 1.366 . S
C681 C685 1.385 . S
C682 H663 0.951 . S
C682 C680 1.388 . S
C682 C683 1.366 . S
C683 C682 1.366 . S
C683 C684 1.414 . S
C683 C686 1.499 . S
C684 H664 0.950 . S
C684 C683 1.414 . S
C684 C685 1.374 . S
C685 H665 0.950 . S
C685 C681 1.385 . S
C685 C684 1.374 . S
C686 C683 1.499 . S
C686 C687 1.373 . S
C686 C688 1.389 . S
C687 H666 0.950 . S
C687 C686 1.373 . S
C687 C703 1.377 . S
C688 C686 1.389 . S
C688 C689 1.524 . S
C688 C702 1.377 . S
C689 C688 1.524 . S
C689 C690 1.397 . S
C689 C694 1.363 . S
C690 H667 0.950 . S
C690 C689 1.397 . S
C690 C691 1.334 . S
C691 H668 0.950 1_554 S
C691 C690 1.334 . S
C691 C692 1.287 . S
C692 C691 1.287 . S
C692 C693 1.524 . S
C692 H711 0.913 . S
C693 H669 0.950 . S
C693 C692 1.524 . S
C693 C694 1.415 . S
C694 H670 0.950 . S
C694 C689 1.363 . S
C694 C693 1.415 . S
C695 H671 0.951 . S
C695 C696 1.366 . S
C695 C697 1.388 . S
C696 C695 1.366 . S
C696 C700 1.385 . S
C697 H672 0.951 . S
C697 C695 1.388 . S
C697 C698 1.366 . S
C698 C697 1.366 . S
C698 C699 1.414 . S
C698 C701 1.499 . S
C699 H673 0.950 . S
C699 C698 1.414 . S
C699 C700 1.374 . S
C700 H674 0.950 . S
C700 C696 1.385 . S
C700 C699 1.374 . S
C701 C698 1.499 . S
C701 C702 1.373 . S
C701 C703 1.389 . S
C702 H675 0.950 . S
C702 C688 1.377 . S
C702 C701 1.373 . S
C703 C687 1.377 . S
C703 C701 1.389 . S
C703 C704 1.524 . S
C704 C703 1.524 . S
C704 C705 1.397 . S
C704 C709 1.363 . S
C705 H676 0.950 . S
C705 C704 1.397 . S
C705 C706 1.334 . S
C706 H677 0.950 . S
C706 C705 1.334 . S
C706 C707 1.287 . S
C707 C706 1.287 . S
C707 C708 1.524 . S
C707 H710 0.999 . S
C708 H678 0.950 . S
C708 C707 1.524 . S
C708 C709 1.415 . S
C709 H679 0.950 . S
C709 C704 1.363 . S
C709 C708 1.415 . S
H710 C707 0.999 . S
H711 C692 0.913 . S
H712 C730 0.951 1_565 S
H713 C732 0.951 . S
H714 C734 0.950 . S
H715 C735 0.950 . S
H716 C737 0.950 . S
H717 C740 0.950 . S
H718 C741 0.950 1_554 S
H719 C743 0.950 . S
H720 C744 0.950 . S
H721 C745 0.951 . S
H722 C747 0.951 . S
H723 C749 0.950 . S
H724 C750 0.950 . S
H725 C752 0.950 . S
H726 C755 0.950 . S
H727 C756 0.950 . S
H728 C758 0.950 . S
H729 C759 0.950 . S
C730 H712 0.951 1_545 S
C730 C731 1.366 . S
C730 C732 1.388 . S
C731 C730 1.366 . S
C731 C735 1.385 . S
C732 H713 0.951 . S
C732 C730 1.388 . S
C732 C733 1.366 . S
C733 C732 1.366 . S
C733 C734 1.414 . S
C733 C736 1.499 . S
C734 H714 0.950 . S
C734 C733 1.414 . S
C734 C735 1.374 . S
C735 H715 0.950 . S
C735 C731 1.385 . S
C735 C734 1.374 . S
C736 C733 1.499 . S
C736 C737 1.373 . S
C736 C738 1.389 . S
C737 H716 0.950 . S
C737 C736 1.373 . S
C737 C753 1.377 . S
C738 C736 1.389 . S
C738 C739 1.524 . S
C738 C752 1.377 . S
C739 C738 1.524 . S
C739 C740 1.397 . S
C739 C744 1.363 . S
C740 H717 0.950 . S
C740 C739 1.397 . S
C740 C741 1.334 . S
C741 H718 0.950 1_556 S
C741 C740 1.334 . S
C741 C742 1.289 . S
C742 C741 1.289 . S
C742 C743 1.535 . S
C742 H761 0.899 1_556 S
C743 H719 0.950 . S
C743 C742 1.535 . S
C743 C744 1.415 . S
C744 H720 0.950 . S
C744 C739 1.363 . S
C744 C743 1.415 . S
C745 H721 0.951 . S
C745 C746 1.366 . S
C745 C747 1.388 . S
C746 C745 1.366 . S
C746 C750 1.385 . S
C747 H722 0.951 . S
C747 C745 1.388 . S
C747 C748 1.366 . S
C748 C747 1.366 . S
C748 C749 1.414 . S
C748 C751 1.499 . S
C749 H723 0.950 . S
C749 C748 1.414 . S
C749 C750 1.374 . S
C750 H724 0.950 . S
C750 C746 1.385 . S
C750 C749 1.374 . S
C751 C748 1.499 . S
C751 C752 1.373 . S
C751 C753 1.389 . S
C752 H725 0.950 . S
C752 C738 1.377 . S
C752 C751 1.373 . S
C753 C737 1.377 . S
C753 C751 1.389 . S
C753 C754 1.524 . S
C754 C753 1.524 . S
C754 C755 1.397 . S
C754 C759 1.363 . S
C755 H726 0.950 . S
C755 C754 1.397 . S
C755 C756 1.334 . S
C756 H727 0.950 . S
C756 C755 1.334 . S
C756 C757 1.287 . S
C757 C756 1.287 . S
C757 C758 1.524 . S
C757 H760 0.999 . S
C758 H728 0.950 . S
C758 C757 1.524 . S
C758 C759 1.415 . S
C759 H729 0.950 . S
C759 C754 1.363 . S
C759 C758 1.415 . S
H760 C757 0.999 . S
H761 C742 0.899 1_554 S
H762 C780 0.951 1_554 S
H763 C782 0.951 . S
H764 C784 0.950 . S
H765 C785 0.950 . S
H766 C787 0.950 . S
H767 C790 0.950 . S
H768 C791 0.950 . S
H769 C793 0.950 . S
H770 C794 0.950 . S
H771 C795 0.951 1_456 S
H772 C797 0.951 1_556 S
H773 C799 0.950 . S
H774 C800 0.950 . S
H775 C802 0.950 . S
H776 C805 0.950 . S
H777 C806 0.950 . S
H778 C808 0.950 . S
H779 C809 0.950 . S
C780 H762 0.951 1_556 S
C780 C781 1.366 . S
C780 C782 1.388 1_556 S
C781 C780 1.366 . S
C781 C785 1.385 . S
C782 H763 0.951 . S
C782 C780 1.388 1_554 S
C782 C783 1.366 1_554 S
C783 C782 1.366 1_556 S
C783 C784 1.414 . S
C783 C786 1.499 . S
C784 H764 0.950 . S
C784 C783 1.414 . S
C784 C785 1.374 . S
C785 H765 0.950 . S
C785 C781 1.385 . S
C785 C784 1.374 . S
C786 C783 1.499 . S
C786 C787 1.373 . S
C786 C788 1.389 1_556 S
C787 H766 0.950 . S
C787 C786 1.373 . S
C787 C803 1.377 . S
C788 C786 1.389 1_554 S
C788 C789 1.524 . S
C788 C802 1.377 . S
C789 C788 1.524 . S
C789 C790 1.397 . S
C789 C794 1.363 . S
C790 H767 0.950 . S
C790 C789 1.397 . S
C790 C791 1.334 . S
C791 H768 0.950 . S
C791 C790 1.334 . S
C791 C792 1.287 . S
C792 C791 1.287 . S
C792 C793 1.524 . S
C792 H811 0.913 . S
C793 H769 0.950 . S
C793 C792 1.524 . S
C793 C794 1.415 . S
C794 H770 0.950 . S
C794 C789 1.363 . S
C794 C793 1.415 . S
C795 H771 0.951 1_654 S
C795 C796 1.366 . S
C795 C797 1.388 . S
C796 C795 1.366 . S
C796 C800 1.385 . S
C797 H772 0.951 1_554 S
C797 C795 1.388 . S
C797 C798 1.366 . S
C798 C797 1.366 . S
C798 C799 1.414 . S
C798 C801 1.499 . S
C799 H773 0.950 . S
C799 C798 1.414 . S
C799 C800 1.374 . S
C800 H774 0.950 . S
C800 C796 1.385 . S
C800 C799 1.374 . S
C801 C798 1.499 . S
C801 C802 1.373 . S
C801 C803 1.389 1_554 S
C802 H775 0.950 . S
C802 C788 1.377 . S
C802 C801 1.373 . S
C803 C787 1.377 . S
C803 C801 1.389 1_556 S
C803 C804 1.524 . S
C804 C803 1.524 . S
C804 C805 1.397 . S
C804 C809 1.363 . S
C805 H776 0.950 . S
C805 C804 1.397 . S
C805 C806 1.334 . S
C806 H777 0.950 . S
C806 C805 1.334 . S
C806 C807 1.287 . S
C807 C806 1.287 . S
C807 C808 1.524 . S
C807 H810 0.999 . S
C808 H778 0.950 . S
C808 C807 1.524 . S
C808 C809 1.415 . S
C809 H779 0.950 . S
C809 C804 1.363 . S
C809 C808 1.415 . S
H810 C807 0.999 . S
H811 C792 0.913 . S
H812 C830 0.951 . S
H813 C832 0.951 . S
H814 C834 0.950 . S
H815 C835 0.950 1_655 S
H816 C837 0.950 . S
H817 C840 0.950 . S
H818 C841 0.950 . S
H819 C843 0.950 . S
H820 C844 0.950 . S
H821 C845 0.951 . S
H822 C847 0.951 . S
H823 C849 0.950 . S
H824 C850 0.950 . S
H825 C852 0.950 . S
H826 C855 0.950 . S
H827 C856 0.950 . S
H828 C858 0.950 1_556 S
H829 C859 0.950 . S
C830 H812 0.951 . S
C830 C831 1.366 . S
C830 C832 1.388 . S
C831 C830 1.366 . S
C831 C835 1.385 . S
C832 H813 0.951 . S
C832 C830 1.388 . S
C832 C833 1.366 . S
C833 C832 1.366 . S
C833 C834 1.414 . S
C833 C836 1.499 . S
C834 H814 0.950 . S
C834 C833 1.414 . S
C834 C835 1.374 . S
C835 H815 0.950 1_455 S
C835 C831 1.385 . S
C835 C834 1.374 . S
C836 C833 1.499 . S
C836 C837 1.373 . S
C836 C838 1.389 . S
C837 H816 0.950 . S
C837 C836 1.373 . S
C837 C853 1.377 . S
C838 C836 1.389 . S
C838 C839 1.524 . S
C838 C852 1.377 . S
C839 C838 1.524 . S
C839 C840 1.397 . S
C839 C844 1.363 . S
C840 H817 0.950 . S
C840 C839 1.397 . S
C840 C841 1.334 . S
C841 H818 0.950 . S
C841 C840 1.334 . S
C841 C842 1.287 . S
C842 C841 1.287 . S
C842 C843 1.524 . S
C842 H861 0.913 . S
C843 H819 0.950 . S
C843 C842 1.524 . S
C843 C844 1.415 . S
C844 H820 0.950 . S
C844 C839 1.363 . S
C844 C843 1.415 . S
C845 H821 0.951 . S
C845 C846 1.366 . S
C845 C847 1.388 . S
C846 C845 1.366 . S
C846 C850 1.385 . S
C847 H822 0.951 . S
C847 C845 1.388 . S
C847 C848 1.366 . S
C848 C847 1.366 . S
C848 C849 1.414 . S
C848 C851 1.499 . S
C849 H823 0.950 . S
C849 C848 1.414 . S
C849 C850 1.374 . S
C850 H824 0.950 . S
C850 C846 1.385 . S
C850 C849 1.374 . S
C851 C848 1.499 . S
C851 C852 1.373 . S
C851 C853 1.389 . S
C852 H825 0.950 . S
C852 C838 1.377 . S
C852 C851 1.373 . S
C853 C837 1.377 . S
C853 C851 1.389 . S
C853 C854 1.524 . S
C854 C853 1.524 . S
C854 C855 1.397 . S
C854 C859 1.363 . S
C855 H826 0.950 . S
C855 C854 1.397 . S
C855 C856 1.334 . S
C856 H827 0.950 . S
C856 C855 1.334 . S
C856 C857 1.287 . S
C857 C856 1.287 . S
C857 C858 1.524 . S
C857 H860 0.999 1_554 S
C858 H828 0.950 1_554 S
C858 C857 1.524 . S
C858 C859 1.415 . S
C859 H829 0.950 . S
C859 C854 1.363 . S
C859 C858 1.415 . S
H860 C857 0.999 1_556 S
H861 C842 0.913 . S
H862 C880 0.951 . S
H863 C882 0.951 . S
H864 C884 0.950 . S
H865 C885 0.950 . S
H866 C887 0.950 . S
H867 C890 0.950 . S
H868 C891 0.950 . S
H869 C893 0.950 . S
H870 C894 0.950 . S
H871 C895 0.951 . S
H872 C897 0.951 . S
H873 C899 0.950 . S
H874 C900 0.950 . S
H875 C902 0.950 . S
H876 C905 0.950 . S
H877 C906 0.950 . S
H878 C908 0.950 . S
H879 C909 0.950 . S
C880 H862 0.951 . S
C880 C881 1.366 . S
C880 C882 1.388 . S
C881 C880 1.366 . S
C881 C885 1.385 . S
C882 H863 0.951 . S
C882 C880 1.388 . S
C882 C883 1.366 . S
C883 C882 1.366 . S
C883 C884 1.414 . S
C883 C886 1.499 . S
C884 H864 0.950 . S
C884 C883 1.414 . S
C884 C885 1.374 . S
C885 H865 0.950 . S
C885 C881 1.385 . S
C885 C884 1.374 . S
C886 C883 1.499 . S
C886 C887 1.373 . S
C886 C888 1.389 . S
C887 H866 0.950 . S
C887 C886 1.373 . S
C887 C903 1.377 . S
C888 C886 1.389 . S
C888 C889 1.524 . S
C888 C902 1.377 . S
C889 C888 1.524 . S
C889 C890 1.397 . S
C889 C894 1.363 . S
C890 H867 0.950 . S
C890 C889 1.397 . S
C890 C891 1.334 . S
C891 H868 0.950 . S
C891 C890 1.334 . S
C891 C892 1.287 . S
C892 C891 1.287 . S
C892 C893 1.524 . S
C892 H911 0.913 . S
C893 H869 0.950 . S
C893 C892 1.524 . S
C893 C894 1.415 . S
C894 H870 0.950 . S
C894 C889 1.363 . S
C894 C893 1.415 . S
C895 H871 0.951 . S
C895 C896 1.366 . S
C895 C897 1.388 . S
C896 C895 1.366 . S
C896 C900 1.385 . S
C897 H872 0.951 . S
C897 C895 1.388 . S
C897 C898 1.366 . S
C898 C897 1.366 . S
C898 C899 1.414 . S
C898 C901 1.499 . S
C899 H873 0.950 . S
C899 C898 1.414 . S
C899 C900 1.374 . S
C900 H874 0.950 . S
C900 C896 1.385 . S
C900 C899 1.374 . S
C901 C898 1.499 . S
C901 C902 1.373 . S
C901 C903 1.389 . S
C902 H875 0.950 . S
C902 C888 1.377 . S
C902 C901 1.373 . S
C903 C887 1.377 . S
C903 C901 1.389 . S
C903 C904 1.524 . S
C904 C903 1.524 . S
C904 C905 1.397 . S
C904 C909 1.363 . S
C905 H876 0.950 . S
C905 C904 1.397 . S
C905 C906 1.334 . S
C906 H877 0.950 . S
C906 C905 1.334 . S
C906 C907 1.287 . S
C907 C906 1.287 . S
C907 C908 1.524 . S
C907 H910 0.999 . S
C908 H878 0.950 . S
C908 C907 1.524 . S
C908 C909 1.415 . S
C909 H879 0.950 . S
C909 C904 1.363 . S
C909 C908 1.415 . S
H910 C907 0.999 . S
H911 C892 0.913 . S
C131 C25 1.431 . S
C146 C11 1.431 . S
C181 C21 1.372 . S
C196 C39 1.387 1_554 S
C231 C49 1.340 . S
C246 C35 1.340 . S
C281 C53 1.387 1_556 S
C296 C7 1.372 . S
C331 C67 1.431 . S
C346 C81 1.431 . S
C381 C77 1.373 1_556 S
C396 C95 1.387 . S
C431 C91 1.340 . S
C446 C105 1.340 . S
C481 C63 1.373 1_554 S
C496 C109 1.387 . S
C531 C13 1.372 . S
C546 C106 1.399 . S
C581 C64 1.547 1_565 S
C596 C22 1.546 . S
C631 C83 1.371 . S
C646 C36 1.399 1_545 S
C681 C55 1.221 . S
C696 C97 1.221 . S
C731 C41 1.221 . S
C746 C111 1.221 . S
C781 C69 1.371 . S
C796 C50 1.399 1_655 S
C831 C78 1.546 1_455 S
C846 C8 1.546 . S
C881 C27 1.370 . S
C896 C92 1.400 . S
