# Generated by pormake.
# Topology cha, (4)-cn, num edge types: 1
# Building blocks:
#     Node 0, Type 0, BuildingBlock: UXUYUI_clean_sbu_0, # of connection points: 4
#     Node 1, Type 0, BuildingBlock: UXUYUI_clean_sbu_0, # of connection points: 4
#     Node 2, Type 0, BuildingBlock: UXUYUI_clean_sbu_0, # of connection points: 4
#     Node 3, Type 0, BuildingBlock: UXUYUI_clean_sbu_0, # of connection points: 4
#     Node 4, Type 0, BuildingBlock: UXUYUI_clean_sbu_0, # of connection points: 4
#     Node 5, Type 0, BuildingBlock: UXUYUI_clean_sbu_0, # of connection points: 4
#     Node 6, Type 0, BuildingBlock: UXUYUI_clean_sbu_0, # of connection points: 4
#     Node 7, Type 0, BuildingBlock: UXUYUI_clean_sbu_0, # of connection points: 4
#     Node 8, Type 0, BuildingBlock: UXUYUI_clean_sbu_0, # of connection points: 4
#     Node 9, Type 0, BuildingBlock: UXUYUI_clean_sbu_0, # of connection points: 4
#     Node 10, Type 0, BuildingBlock: UXUYUI_clean_sbu_0, # of connection points: 4
#     Node 11, Type 0, BuildingBlock: UXUYUI_clean_sbu_0, # of connection points: 4
#     Node 12, Type 0, BuildingBlock: UXUYUI_clean_sbu_0, # of connection points: 4
#     Node 13, Type 0, BuildingBlock: UXUYUI_clean_sbu_0, # of connection points: 4
#     Node 14, Type 0, BuildingBlock: UXUYUI_clean_sbu_0, # of connection points: 4
#     Node 15, Type 0, BuildingBlock: UXUYUI_clean_sbu_0, # of connection points: 4
#     Node 16, Type 0, BuildingBlock: UXUYUI_clean_sbu_0, # of connection points: 4
#     Node 17, Type 0, BuildingBlock: UXUYUI_clean_sbu_0, # of connection points: 4
#     Node 18, Type 0, BuildingBlock: UXUYUI_clean_sbu_0, # of connection points: 4
#     Node 19, Type 0, BuildingBlock: UXUYUI_clean_sbu_0, # of connection points: 4
#     Node 20, Type 0, BuildingBlock: UXUYUI_clean_sbu_0, # of connection points: 4
#     Node 21, Type 0, BuildingBlock: UXUYUI_clean_sbu_0, # of connection points: 4
#     Node 22, Type 0, BuildingBlock: UXUYUI_clean_sbu_0, # of connection points: 4
#     Node 23, Type 0, BuildingBlock: UXUYUI_clean_sbu_0, # of connection points: 4
#     Node 24, Type 0, BuildingBlock: UXUYUI_clean_sbu_0, # of connection points: 4
#     Node 25, Type 0, BuildingBlock: UXUYUI_clean_sbu_0, # of connection points: 4
#     Node 26, Type 0, BuildingBlock: UXUYUI_clean_sbu_0, # of connection points: 4
#     Node 27, Type 0, BuildingBlock: UXUYUI_clean_sbu_0, # of connection points: 4
#     Node 28, Type 0, BuildingBlock: UXUYUI_clean_sbu_0, # of connection points: 4
#     Node 29, Type 0, BuildingBlock: UXUYUI_clean_sbu_0, # of connection points: 4
#     Node 30, Type 0, BuildingBlock: UXUYUI_clean_sbu_0, # of connection points: 4
#     Node 31, Type 0, BuildingBlock: UXUYUI_clean_sbu_0, # of connection points: 4
#     Node 32, Type 0, BuildingBlock: UXUYUI_clean_sbu_0, # of connection points: 4
#     Node 33, Type 0, BuildingBlock: UXUYUI_clean_sbu_0, # of connection points: 4
#     Node 34, Type 0, BuildingBlock: UXUYUI_clean_sbu_0, # of connection points: 4
#     Node 35, Type 0, BuildingBlock: UXUYUI_clean_sbu_0, # of connection points: 4
#     Edge 36, Type (0, 0), BuildingBlock: XIVTED_clean_linker_0, # of connection points: 2
#     Edge 37, Type (0, 0), BuildingBlock: XIVTED_clean_linker_0, # of connection points: 2
#     Edge 38, Type (0, 0), BuildingBlock: XIVTED_clean_linker_0, # of connection points: 2
#     Edge 39, Type (0, 0), BuildingBlock: XIVTED_clean_linker_0, # of connection points: 2
#     Edge 40, Type (0, 0), BuildingBlock: XIVTED_clean_linker_0, # of connection points: 2
#     Edge 41, Type (0, 0), BuildingBlock: XIVTED_clean_linker_0, # of connection points: 2
#     Edge 42, Type (0, 0), BuildingBlock: XIVTED_clean_linker_0, # of connection points: 2
#     Edge 43, Type (0, 0), BuildingBlock: XIVTED_clean_linker_0, # of connection points: 2
#     Edge 44, Type (0, 0), BuildingBlock: XIVTED_clean_linker_0, # of connection points: 2
#     Edge 45, Type (0, 0), BuildingBlock: XIVTED_clean_linker_0, # of connection points: 2
#     Edge 46, Type (0, 0), BuildingBlock: XIVTED_clean_linker_0, # of connection points: 2
#     Edge 47, Type (0, 0), BuildingBlock: XIVTED_clean_linker_0, # of connection points: 2
#     Edge 48, Type (0, 0), BuildingBlock: XIVTED_clean_linker_0, # of connection points: 2
#     Edge 49, Type (0, 0), BuildingBlock: XIVTED_clean_linker_0, # of connection points: 2
#     Edge 50, Type (0, 0), BuildingBlock: XIVTED_clean_linker_0, # of connection points: 2
#     Edge 51, Type (0, 0), BuildingBlock: XIVTED_clean_linker_0, # of connection points: 2
#     Edge 52, Type (0, 0), BuildingBlock: XIVTED_clean_linker_0, # of connection points: 2
#     Edge 53, Type (0, 0), BuildingBlock: XIVTED_clean_linker_0, # of connection points: 2
#     Edge 54, Type (0, 0), BuildingBlock: XIVTED_clean_linker_0, # of connection points: 2
#     Edge 55, Type (0, 0), BuildingBlock: XIVTED_clean_linker_0, # of connection points: 2
#     Edge 56, Type (0, 0), BuildingBlock: XIVTED_clean_linker_0, # of connection points: 2
#     Edge 57, Type (0, 0), BuildingBlock: XIVTED_clean_linker_0, # of connection points: 2
#     Edge 58, Type (0, 0), BuildingBlock: XIVTED_clean_linker_0, # of connection points: 2
#     Edge 59, Type (0, 0), BuildingBlock: XIVTED_clean_linker_0, # of connection points: 2
#     Edge 60, Type (0, 0), BuildingBlock: XIVTED_clean_linker_0, # of connection points: 2
#     Edge 61, Type (0, 0), BuildingBlock: XIVTED_clean_linker_0, # of connection points: 2
#     Edge 62, Type (0, 0), BuildingBlock: XIVTED_clean_linker_0, # of connection points: 2
#     Edge 63, Type (0, 0), BuildingBlock: XIVTED_clean_linker_0, # of connection points: 2
#     Edge 64, Type (0, 0), BuildingBlock: XIVTED_clean_linker_0, # of connection points: 2
#     Edge 65, Type (0, 0), BuildingBlock: XIVTED_clean_linker_0, # of connection points: 2
#     Edge 66, Type (0, 0), BuildingBlock: XIVTED_clean_linker_0, # of connection points: 2
#     Edge 67, Type (0, 0), BuildingBlock: XIVTED_clean_linker_0, # of connection points: 2
#     Edge 68, Type (0, 0), BuildingBlock: XIVTED_clean_linker_0, # of connection points: 2
#     Edge 69, Type (0, 0), BuildingBlock: XIVTED_clean_linker_0, # of connection points: 2
#     Edge 70, Type (0, 0), BuildingBlock: XIVTED_clean_linker_0, # of connection points: 2
#     Edge 71, Type (0, 0), BuildingBlock: XIVTED_clean_linker_0, # of connection points: 2
#     Edge 72, Type (0, 0), BuildingBlock: XIVTED_clean_linker_0, # of connection points: 2
#     Edge 73, Type (0, 0), BuildingBlock: XIVTED_clean_linker_0, # of connection points: 2
#     Edge 74, Type (0, 0), BuildingBlock: XIVTED_clean_linker_0, # of connection points: 2
#     Edge 75, Type (0, 0), BuildingBlock: XIVTED_clean_linker_0, # of connection points: 2
#     Edge 76, Type (0, 0), BuildingBlock: XIVTED_clean_linker_0, # of connection points: 2
#     Edge 77, Type (0, 0), BuildingBlock: XIVTED_clean_linker_0, # of connection points: 2
#     Edge 78, Type (0, 0), BuildingBlock: XIVTED_clean_linker_0, # of connection points: 2
#     Edge 79, Type (0, 0), BuildingBlock: XIVTED_clean_linker_0, # of connection points: 2
#     Edge 80, Type (0, 0), BuildingBlock: XIVTED_clean_linker_0, # of connection points: 2
#     Edge 81, Type (0, 0), BuildingBlock: XIVTED_clean_linker_0, # of connection points: 2
#     Edge 82, Type (0, 0), BuildingBlock: XIVTED_clean_linker_0, # of connection points: 2
#     Edge 83, Type (0, 0), BuildingBlock: XIVTED_clean_linker_0, # of connection points: 2
#     Edge 84, Type (0, 0), BuildingBlock: XIVTED_clean_linker_0, # of connection points: 2
#     Edge 85, Type (0, 0), BuildingBlock: XIVTED_clean_linker_0, # of connection points: 2
#     Edge 86, Type (0, 0), BuildingBlock: XIVTED_clean_linker_0, # of connection points: 2
#     Edge 87, Type (0, 0), BuildingBlock: XIVTED_clean_linker_0, # of connection points: 2
#     Edge 88, Type (0, 0), BuildingBlock: XIVTED_clean_linker_0, # of connection points: 2
#     Edge 89, Type (0, 0), BuildingBlock: XIVTED_clean_linker_0, # of connection points: 2
#     Edge 90, Type (0, 0), BuildingBlock: XIVTED_clean_linker_0, # of connection points: 2
#     Edge 91, Type (0, 0), BuildingBlock: XIVTED_clean_linker_0, # of connection points: 2
#     Edge 92, Type (0, 0), BuildingBlock: XIVTED_clean_linker_0, # of connection points: 2
#     Edge 93, Type (0, 0), BuildingBlock: XIVTED_clean_linker_0, # of connection points: 2
#     Edge 94, Type (0, 0), BuildingBlock: XIVTED_clean_linker_0, # of connection points: 2
#     Edge 95, Type (0, 0), BuildingBlock: XIVTED_clean_linker_0, # of connection points: 2
#     Edge 96, Type (0, 0), BuildingBlock: XIVTED_clean_linker_0, # of connection points: 2
#     Edge 97, Type (0, 0), BuildingBlock: XIVTED_clean_linker_0, # of connection points: 2
#     Edge 98, Type (0, 0), BuildingBlock: XIVTED_clean_linker_0, # of connection points: 2
#     Edge 99, Type (0, 0), BuildingBlock: XIVTED_clean_linker_0, # of connection points: 2
#     Edge 100, Type (0, 0), BuildingBlock: XIVTED_clean_linker_0, # of connection points: 2
#     Edge 101, Type (0, 0), BuildingBlock: XIVTED_clean_linker_0, # of connection points: 2
#     Edge 102, Type (0, 0), BuildingBlock: XIVTED_clean_linker_0, # of connection points: 2
#     Edge 103, Type (0, 0), BuildingBlock: XIVTED_clean_linker_0, # of connection points: 2
#     Edge 104, Type (0, 0), BuildingBlock: XIVTED_clean_linker_0, # of connection points: 2
#     Edge 105, Type (0, 0), BuildingBlock: XIVTED_clean_linker_0, # of connection points: 2
#     Edge 106, Type (0, 0), BuildingBlock: XIVTED_clean_linker_0, # of connection points: 2
#     Edge 107, Type (0, 0), BuildingBlock: XIVTED_clean_linker_0, # of connection points: 2
# Relax obj value: 0.245
# Max RMSD: 0.173
# Mean RMSD: 0.173
data_MOF--net-cha--node1-UXUYUI_clean_sbu_0--edge1-XIVTED_clean_linker_0
_symmetry_space_group_name_H-M    P1
_symmetry_Int_Tables_number       1
_symmetry_cell_setting            triclinic
loop_
_symmetry_equiv_pos_as_xyz
'x, y, z'
_cell_length_a     95.071766
_cell_length_b     95.059639
_cell_length_c     102.86116
_cell_angle_alpha  90.012433
_cell_angle_beta   90.002734
_cell_angle_gamma 119.99949
loop_
_atom_site_label
_atom_site_type_symbol
_atom_site_fract_x
_atom_site_fract_y
_atom_site_fract_z
_atom_type_partial_charge
Li0 Li 0.02509 0.2661 0.10914 0.0
Li1 Li 0.04168 0.2541 0.11071 0.0
Li2 Li 0.03065 0.25712 0.08887 0.0
Li3 Li 0.01229 0.23728 0.10594 0.0
C4 C 0.0543 0.29007 0.10333 0.0
N5 N 0.06933 0.32282 0.10892 0.0
C6 C 0.06097 0.2957 0.11564 0.0
C7 C 0.05538 0.30105 0.09382 0.0
C8 C 0.06849 0.31232 0.11829 0.0
C9 C 0.06301 0.31758 0.09685 0.0
C10 C 0.02136 0.23842 0.13151 0.0
C11 C 0.01992 0.21313 0.13736 0.0
N12 N 0.01817 0.21593 0.15006 0.0
C13 C 0.01946 0.24097 0.14463 0.0
C14 C 0.02152 0.22433 0.12785 0.0
C15 C 0.0179 0.22949 0.15385 0.0
C16 C 0.02121 0.2944 0.10962 0.0
N17 N 0.02213 0.2828 0.11669 0.0
C18 C 0.01893 0.29404 0.13647 0.0
C19 C 0.02133 0.28262 0.12987 0.0
C20 C 0.01735 0.30582 0.12943 0.0
C21 C 0.01871 0.30604 0.11582 0.0
H22 H 0.02248 0.29471 0.09919 0.0
H23 H 0.02242 0.27351 0.13528 0.0
C24 C 0.07256 0.259 0.10911 0.0
N25 N 0.06062 0.2555 0.11792 0.0
C26 C 0.08762 0.26152 0.11317 0.0
C27 C 0.07776 0.25651 0.13532 0.0
C28 C 0.06292 0.25431 0.13084 0.0
C29 C 0.09036 0.26036 0.12643 0.0
H30 H 0.07039 0.26004 0.09892 0.0
H31 H 0.05343 0.25197 0.13772 0.0
C32 C -0.00058 0.25828 0.09117 0.0
N33 N 0.97843 0.26793 0.08156 0.0
C34 C 0.98325 0.25047 0.09526 0.0
C35 C 0.00491 0.27094 0.08215 0.0
C36 C 0.97282 0.25554 0.09029 0.0
C37 C 0.99413 0.27568 0.07744 0.0
C38 C 0.03259 0.226 0.09071 0.0
C39 C 0.02604 0.22042 0.07835 0.0
C40 C 0.04111 0.21946 0.09692 0.0
C41 C 0.02796 0.20823 0.07248 0.0
C42 C 0.04277 0.20729 0.09072 0.0
N43 N 0.03621 0.20197 0.07873 0.0
C44 C 0.04943 0.26859 0.06582 0.0
C45 C 0.02084 0.25376 0.06295 0.0
C46 C 0.05176 0.27098 0.05241 0.0
N47 N 0.03415 0.26017 0.07077 0.0
C48 C 0.02259 0.25608 0.04956 0.0
C49 C 0.03819 0.26482 0.04416 0.0
H50 H 0.05977 0.2735 0.07231 0.0
H51 H 0.00885 0.24687 0.06716 0.0
C52 C 0.98303 0.21483 0.11816 0.0
N53 N 0.99283 0.21703 0.10781 0.0
C54 C 0.96805 0.20056 0.11932 0.0
C55 C 0.97357 0.19112 0.09917 0.0
C56 C 0.98843 0.20554 0.09842 0.0
C57 C 0.96307 0.18856 0.10966 0.0
H58 H 0.9867 0.22432 0.12535 0.0
H59 H 0.99629 0.20771 0.09019 0.0
O60 O 0.04665 0.27383 0.10064 0.0
O61 O 0.02288 0.24961 0.12238 0.0
O62 O 0.00952 0.25283 0.09533 0.0
O63 O 0.03105 0.23811 0.09655 0.0
H64 H 0.0602 0.2873 0.12309 0.0
H65 H 0.05025 0.29683 0.08425 0.0
H66 H 0.07362 0.31687 0.1278 0.0
H67 H 0.06387 0.32624 0.08962 0.0
H68 H 0.02003 0.2022 0.13463 0.0
H69 H 0.01921 0.25172 0.14772 0.0
H70 H 0.0227 0.22194 0.1178 0.0
H71 H 0.01647 0.23136 0.16403 0.0
H72 H 0.01778 0.29328 0.14696 0.0
H73 H 0.01779 0.31508 0.11004 0.0
H74 H 0.09701 0.26431 0.10601 0.0
H75 H 0.07953 0.25566 0.14563 0.0
H76 H 0.97875 0.24048 0.10209 0.0
H77 H 0.01739 0.27708 0.07885 0.0
H78 H 0.96025 0.24956 0.09332 0.0
H79 H -0.00177 0.28549 0.07048 0.0
H80 H 0.01941 0.22532 0.07341 0.0
H81 H 0.0464 0.22372 0.10643 0.0
H82 H 0.02288 0.20374 0.06295 0.0
H83 H 0.0493 0.2021 0.09543 0.0
H84 H 0.06397 0.2778 0.04854 0.0
H85 H 0.01186 0.25093 0.04346 0.0
H86 H 0.96024 0.19918 0.12746 0.0
H87 H 0.97029 0.18213 0.09157 0.0
Li88 Li 0.79175 0.80776 0.10975 0.0
Li89 Li 0.77848 0.78027 0.11518 0.0
Li90 Li 0.80837 0.79488 0.10995 0.0
Li91 Li 0.78661 0.78783 0.09307 0.0
C92 C 0.80277 0.81053 0.13375 0.0
N93 N 0.81452 0.83564 0.15159 0.0
C94 C 0.7922 0.81471 0.13982 0.0
C95 C 0.81931 0.81908 0.13681 0.0
C96 C 0.79838 0.82746 0.14878 0.0
C97 C 0.82501 0.83174 0.14585 0.0
C98 C 0.75445 0.7819 0.10573 0.0
C99 C 0.72809 0.75829 0.10224 0.0
N100 N 0.72195 0.76317 0.11207 0.0
C101 C 0.74785 0.78671 0.11577 0.0
C102 C 0.74448 0.76761 0.09887 0.0
C103 C 0.7314 0.77706 0.11883 0.0
C104 C 0.77922 0.82869 0.10827 0.0
N105 N 0.79263 0.82815 0.11203 0.0
C106 C 0.8066 0.85659 0.11676 0.0
C107 C 0.80621 0.84171 0.11624 0.0
C108 C 0.79289 0.85748 0.11289 0.0
C109 C 0.779 0.84319 0.10879 0.0
H110 H 0.76877 0.81792 0.10457 0.0
H111 H 0.81688 0.84109 0.11889 0.0
C112 C 0.75581 0.74807 0.12235 0.0
N113 N 0.76246 0.76386 0.12598 0.0
C114 C 0.74385 0.73581 0.12998 0.0
C115 C 0.74567 0.75632 0.1449 0.0
C116 C 0.7577 0.76816 0.13702 0.0
C117 C 0.73866 0.73986 0.14147 0.0
H118 H 0.75991 0.74497 0.11361 0.0
H119 H 0.76314 0.78079 0.13967 0.0
C120 C 0.8128 0.82341 0.09072 0.0
N121 N 0.82378 0.85396 0.08033 0.0
C122 C 0.80307 0.82611 0.08205 0.0
C123 C 0.82812 0.83625 0.09411 0.0
C124 C 0.80884 0.84164 0.07691 0.0
C125 C 0.83345 0.85161 0.08874 0.0
C126 C 0.79063 0.76186 0.09549 0.0
C127 C 0.80495 0.76165 0.09285 0.0
C128 C 0.77625 0.75078 0.08921 0.0
C129 C 0.80467 0.75047 0.08388 0.0
C130 C 0.77647 0.73981 0.08029 0.0
N131 N 0.79056 0.73989 0.07782 0.0
C132 C 0.83142 0.78879 0.12257 0.0
C133 C 0.84063 0.80524 0.10368 0.0
C134 C 0.84627 0.78917 0.1237 0.0
N135 N 0.82891 0.79669 0.11262 0.0
C136 C 0.85566 0.80609 0.10451 0.0
C137 C 0.85859 0.79776 0.11449 0.0
H138 H 0.82175 0.78189 0.12942 0.0
H139 H 0.83817 0.81108 0.09571 0.0
C140 C 0.76991 0.78432 0.06952 0.0
N141 N 0.7824 0.78337 0.07504 0.0
C142 C 0.7677 0.78295 0.05607 0.0
C143 C 0.79097 0.77918 0.05429 0.0
C144 C 0.79295 0.781 0.06773 0.0
C145 C 0.77838 0.78043 0.04833 0.0
H146 H 0.76206 0.78681 0.0755 0.0
H147 H 0.80319 0.781 0.07228 0.0
O148 O 0.79697 0.79802 0.12499 0.0
O149 O 0.77063 0.79099 0.10278 0.0
O150 O 0.80716 0.80838 0.09611 0.0
O151 O 0.79069 0.77277 0.10422 0.0
H152 H 0.77942 0.80845 0.13742 0.0
H153 H 0.82768 0.81605 0.13223 0.0
H154 H 0.79036 0.83091 0.15346 0.0
H155 H 0.83779 0.83848 0.14828 0.0
H156 H 0.72027 0.74716 0.09705 0.0
H157 H 0.7554 0.7976 0.12132 0.0
H158 H 0.74934 0.76367 0.09109 0.0
H159 H 0.72617 0.78058 0.12664 0.0
H160 H 0.81768 0.86732 0.11977 0.0
H161 H 0.76805 0.84319 0.10589 0.0
H162 H 0.73909 0.72329 0.12709 0.0
H163 H 0.74196 0.76002 0.15359 0.0
H164 H 0.79109 0.81639 0.07948 0.0
H165 H 0.83569 0.83448 0.101 0.0
H166 H 0.8014 0.84392 0.07025 0.0
H167 H 0.84524 0.86167 0.09133 0.0
H168 H 0.81619 0.77002 0.09763 0.0
H169 H 0.76506 0.75077 0.09106 0.0
H170 H 0.81569 0.75023 0.08172 0.0
H171 H 0.76545 0.73126 0.0753 0.0
H172 H 0.84787 0.78239 0.13145 0.0
H173 H 0.86483 0.81309 0.09731 0.0
H174 H 0.75797 0.78416 0.05174 0.0
H175 H 0.79964 0.7776 0.04855 0.0
Li176 Li 0.23625 0.00949 0.10561 0.0
Li177 Li 0.26456 0.02782 0.11163 0.0
Li178 Li 0.24563 0.03765 0.10645 0.0
Li179 Li 0.25475 0.02599 0.08888 0.0
C180 C 0.24101 0.03003 0.13149 0.0
N181 N 0.23401 0.04396 0.15228 0.0
C182 C 0.25208 0.03701 0.14171 0.0
C183 C 0.22625 0.02992 0.13197 0.0
C184 C 0.24835 0.04404 0.1521 0.0
C185 C 0.22298 0.0371 0.14251 0.0
C186 C 0.26864 0.00715 0.09514 0.0
C187 C 0.29577 0.0186 0.08649 0.0
N188 N 0.29449 0.00371 0.08705 0.0
C189 C 0.2676 0.99196 0.09563 0.0
C190 C 0.28284 0.02058 0.09054 0.0
C191 C 0.2808 0.99047 0.0915 0.0
C192 C 0.21897 0.97553 0.1038 0.0
N193 N 0.21853 0.98841 0.10906 0.0
C194 C 0.19272 0.97086 0.11873 0.0
C195 C 0.20589 0.98637 0.11656 0.0
C196 C 0.19274 0.95725 0.11338 0.0
C197 C 0.20624 0.95978 0.10595 0.0
H198 H 0.22918 0.97752 0.09788 0.0
H199 H 0.20586 0.99681 0.12065 0.0
C200 C 0.29124 0.04693 0.12718 0.0
N201 N 0.28206 0.03161 0.12249 0.0
C202 C 0.30329 0.05032 0.13635 0.0
C203 C 0.29653 0.02219 0.13546 0.0
C204 C 0.28449 0.0193 0.12633 0.0
C205 C 0.30587 0.03781 0.14075 0.0
H206 H 0.28876 0.05636 0.12415 0.0
H207 H 0.27676 0.00717 0.12262 0.0
C208 C 0.21722 0.01124 0.08878 0.0
N209 N 0.18606 0.98734 0.08231 0.0
C210 C 0.21472 -0.00021 0.07919 0.0
C211 C 0.20383 0.01055 0.09503 0.0
C212 C 0.19889 0.98779 0.07608 0.0
C213 C 0.18818 0.99838 0.09163 0.0
C214 C 0.27874 0.06075 0.0958 0.0
C215 C 0.2732 0.07068 0.09057 0.0
C216 C 0.29544 0.06666 0.09679 0.0
C217 C 0.28445 0.08638 0.08649 0.0
C218 C 0.30631 0.08243 0.0926 0.0
N219 N 0.30064 0.09188 0.08759 0.0
C220 C 0.25222 0.06685 0.11861 0.0
C221 C 0.22948 0.05588 0.10449 0.0
C222 C 0.25054 0.08036 0.1211 0.0
N223 N 0.24179 0.055 0.1104 0.0
C224 C 0.22725 0.06909 0.10679 0.0
C225 C 0.23799 0.0817 0.11506 0.0
H226 H 0.2621 0.06596 0.12298 0.0
H227 H 0.22164 0.04654 0.09774 0.0
C228 C 0.25625 0.0133 0.06433 0.0
N229 N 0.26034 0.02727 0.07086 0.0
C230 C 0.25853 0.01356 0.05089 0.0
C231 C 0.27023 0.04269 0.05129 0.0
C232 C 0.26741 0.04182 0.06464 0.0
C233 C 0.26536 0.02839 0.04412 0.0
H234 H 0.2507 0.00187 0.0695 0.0
H235 H 0.27057 0.05276 0.06993 0.0
O236 O 0.24453 0.02321 0.12117 0.0
O237 O 0.25582 0.00876 0.09928 0.0
O238 O 0.23268 0.02282 0.09218 0.0
O239 O 0.26793 0.04541 0.10007 0.0
H240 H 0.2634 0.03692 0.14168 0.0
H241 H 0.21758 0.02471 0.12413 0.0
H242 H 0.25685 0.04952 0.16004 0.0
H243 H 0.2117 0.03727 0.14291 0.0
H244 H 0.30681 0.0289 0.08289 0.0
H245 H 0.25676 0.98144 0.09925 0.0
H246 H 0.28389 0.0324 0.09003 0.0
H247 H 0.28016 0.9788 0.09185 0.0
H248 H 0.18253 0.96967 0.12429 0.0
H249 H 0.20705 0.94973 0.10183 0.0
H250 H 0.31036 0.06257 0.1401 0.0
H251 H 0.29808 0.01221 0.1387 0.0
H252 H 0.22488 4e-05 0.07431 0.0
H253 H 0.20545 0.0191 0.10262 0.0
H254 H 0.19682 0.97881 0.06873 0.0
H255 H 0.17773 0.99765 0.09647 0.0
H256 H 0.26035 0.06624 0.08943 0.0
H257 H 0.3 0.05916 0.10075 0.0
H258 H 0.28031 0.09417 0.08241 0.0
H259 H 0.31926 0.08715 0.09333 0.0
H260 H 0.2593 0.08989 0.12735 0.0
H261 H 0.2173 0.06948 0.10202 0.0
H262 H 0.25441 0.00216 0.04585 0.0
H263 H 0.27594 0.05449 0.04664 0.0
Li264 Li 0.24228 0.01188 0.88314 0.0
Li265 Li 0.25997 0.02683 0.90137 0.0
Li266 Li 0.25774 0.04089 0.88221 0.0
Li267 Li 0.27188 0.02552 0.88111 0.0
C268 C 0.23461 0.03732 0.89789 0.0
N269 N 0.22393 0.05893 0.90331 0.0
C270 C 0.23882 0.0459 0.90962 0.0
C271 C 0.22492 0.0397 0.88894 0.0
C272 C 0.23329 0.05676 0.91218 0.0
C273 C 0.21968 0.0507 0.89184 0.0
C274 C 0.2579 0.99813 0.90268 0.0
C275 C 0.27224 0.99327 0.91985 0.0
N276 N 0.25798 0.98052 0.92404 0.0
C277 C 0.24339 0.98496 0.90715 0.0
C278 C 0.27246 0.00229 0.90906 0.0
C279 C 0.24369 0.97621 0.91795 0.0
C280 C 0.22228 0.97881 0.87641 0.0
N281 N 0.22239 0.99297 0.8785 0.0
C282 C 0.1938 0.97995 0.87479 0.0
C283 C 0.20859 0.99382 0.87762 0.0
C284 C 0.1931 0.96491 0.87314 0.0
C285 C 0.2077 0.96454 0.87382 0.0
H286 H 0.23349 0.97851 0.8771 0.0
H287 H 0.20902 0.00525 0.87922 0.0
C288 C 0.2758 0.03925 0.92552 0.0
N289 N 0.26207 0.02741 0.91979 0.0
C290 C 0.27748 0.03967 0.93902 0.0
C291 C 0.25085 0.01572 0.94046 0.0
C292 C 0.24957 0.01595 0.92696 0.0
C293 C 0.26495 0.0277 0.94662 0.0
H294 H 0.2854 0.04841 0.91961 0.0
H295 H 0.23859 0.00699 0.92217 0.0
C296 C 0.248 0.01556 0.85848 0.0
N297 N 0.23067 0.99379 0.83892 0.0
C298 C 0.25297 0.00494 0.85378 0.0
C299 C 0.23422 0.01511 0.85323 0.0
C300 C 0.24406 0.99403 0.84387 0.0
C301 C 0.22562 0.00401 0.84335 0.0
C302 C 0.29379 0.05447 0.88989 0.0
C303 C 0.29974 0.06731 0.88101 0.0
C304 C 0.30462 0.0511 0.89648 0.0
C305 C 0.31646 0.0765 0.87881 0.0
C306 C 0.32125 0.06056 0.89399 0.0
N307 N 0.32678 0.07295 0.88528 0.0
C308 C 0.26458 0.07286 0.88513 0.0
C309 C 0.25345 0.06154 0.86454 0.0
C310 C 0.26549 0.08747 0.8817 0.0
N311 N 0.25856 0.06028 0.87659 0.0
C312 C 0.25402 0.07592 0.86073 0.0
C313 C 0.26012 0.08911 0.86937 0.0
H314 H 0.26862 0.07149 0.89463 0.0
H315 H 0.24892 0.0514 0.85789 0.0
C316 C 0.29353 0.01368 0.87628 0.0
N317 N 0.28952 0.02505 0.87295 0.0
C318 C 0.30604 0.01298 0.86977 0.0
C319 C 0.31016 0.03585 0.85666 0.0
C320 C 0.29747 0.03598 0.86333 0.0
C321 C 0.31446 0.02408 0.85972 0.0
H322 H 0.28673 0.00486 0.88373 0.0
H323 H 0.29376 0.04467 0.86072 0.0
O324 O 0.24016 0.02686 0.89509 0.0
O325 O 0.25784 0.00701 0.89223 0.0
O326 O 0.25629 0.026 0.86844 0.0
O327 O 0.27743 0.04517 0.89205 0.0
H328 H 0.24636 0.04431 0.91665 0.0
H329 H 0.22182 0.03344 0.87969 0.0
H330 H 0.2365 0.06351 0.9212 0.0
H331 H 0.21231 0.05277 0.88495 0.0
H332 H 0.28341 0.99643 0.92492 0.0
H333 H 0.23197 0.98168 0.90248 0.0
H334 H 0.28378 0.0125 0.90581 0.0
H335 H 0.23253 0.96605 0.92155 0.0
H336 H 0.18303 0.98104 0.87403 0.0
H337 H 0.20787 0.9533 0.87281 0.0
H338 H 0.28849 0.04913 0.94347 0.0
H339 H 0.24082 0.00648 0.94604 0.0
H340 H 0.26349 0.00497 0.85781 0.0
H341 H 0.23 0.02301 0.85693 0.0
H342 H 0.24774 0.98571 0.84016 0.0
H343 H 0.21486 0.00345 0.83927 0.0
H344 H 0.29156 0.07002 0.87572 0.0
H345 H 0.30025 0.04121 0.90337 0.0
H346 H 0.32123 0.08642 0.87191 0.0
H347 H 0.32976 0.05802 0.89898 0.0
H348 H 0.27006 0.09727 0.88872 0.0
H349 H 0.24988 0.07677 0.8511 0.0
H350 H 0.30862 0.00343 0.87225 0.0
H351 H 0.31636 0.04471 0.84906 0.0
Li352 Li 0.02995 0.26059 0.90192 0.0
Li353 Li 0.04182 0.25618 0.8821 0.0
Li354 Li 0.02547 0.27047 0.88214 0.0
Li355 Li 0.01223 0.24187 0.88567 0.0
C356 C 0.05788 0.28709 0.89968 0.0
N357 N 0.07936 0.30629 0.91883 0.0
C358 C 0.07142 0.28561 0.90269 0.0
C359 C 0.05529 0.29837 0.90644 0.0
C360 C 0.08214 0.29543 0.91238 0.0
C361 C 0.06627 0.30794 0.91609 0.0
C362 C 0.02286 0.22807 0.90452 0.0
C363 C 0.02211 0.2047 0.9144 0.0
N364 N 0.00972 0.2028 0.92219 0.0
C365 C 0.01015 0.22591 0.91265 0.0
C366 C 0.02892 0.2174 0.90541 0.0
C367 C 0.00366 0.21306 0.92151 0.0
C368 C 0.02304 0.26604 0.92765 0.0
N369 N 0.03339 0.26352 0.92022 0.0
C370 C 0.04842 0.26406 0.93902 0.0
C371 C 0.04573 0.26221 0.92564 0.0
C372 C 0.03801 0.26681 0.94698 0.0
C373 C 0.02512 0.26771 0.94109 0.0
H374 H 0.01294 0.26637 0.92318 0.0
H375 H 0.05344 0.25964 0.91955 0.0
C376 C 0.07378 0.26738 0.87258 0.0
N377 N 0.05911 0.25412 0.87512 0.0
C378 C 0.08703 0.26554 0.8693 0.0
C379 C 0.06939 0.23641 0.87016 0.0
C380 C 0.05659 0.23884 0.87368 0.0
C381 C 0.08504 0.24987 0.86838 0.0
H382 H 0.07537 0.27941 0.87371 0.0
H383 H 0.04469 0.22852 0.87558 0.0
C384 C 9e-05 0.26543 0.89507 0.0
N385 N 0.98246 0.2813 0.89337 0.0
C386 C 0.98556 0.25854 0.88804 0.0
C387 C 0.0056 0.28037 0.90127 0.0
C388 C 0.97682 0.26675 0.8873 0.0
C389 C 0.99654 0.28822 0.90028 0.0
C390 C 0.01627 0.24395 0.85966 0.0
C391 C 0.00034 0.24021 0.85701 0.0
C392 C 0.02366 0.23751 0.8518 0.0
C393 C 0.992 0.2299 0.84663 0.0
C394 C 0.01493 0.22727 0.8415 0.0
N395 N -0.00059 0.2237 0.83916 0.0
C396 C 0.0364 0.30306 0.87562 0.0
C397 C 0.01129 0.28441 0.8659 0.0
C398 C 0.0362 0.31603 0.86949 0.0
N399 N 0.02405 0.28764 0.87378 0.0
C400 C 0.01057 0.29702 0.85957 0.0
C401 C 0.02321 0.31309 0.86126 0.0
H402 H 0.04664 0.3053 0.8816 0.0
H403 H 0.00172 0.27205 0.86443 0.0
C404 C 0.98013 0.21777 0.89084 0.0
N405 N 0.9934 0.22106 0.88363 0.0
C406 C 0.96626 0.20248 0.89031 0.0
C407 C 0.97998 0.19408 0.87503 0.0
C408 C 0.9937 0.20952 0.876 0.0
C409 C 0.96608 0.19043 0.88232 0.0
H410 H 0.98044 0.22693 0.89724 0.0
H411 H 0.00464 0.21223 0.87079 0.0
O412 O 0.04712 0.27743 0.89031 0.0
O413 O 0.02939 0.24052 0.89572 0.0
O414 O 0.00895 0.25767 0.8958 0.0
O415 O 0.02466 0.25398 0.8698 0.0
H416 H 0.07347 0.27672 0.89783 0.0
H417 H 0.04488 0.29968 0.90433 0.0
H418 H 0.09261 0.29432 0.91485 0.0
H419 H 0.06436 0.31666 0.92141 0.0
H420 H 0.02667 0.19634 0.91519 0.0
H421 H 0.00531 0.23405 0.91212 0.0
H422 H 0.0388 0.21893 0.89923 0.0
H423 H 0.9938 0.21124 0.92784 0.0
H424 H 0.05856 0.26335 0.94305 0.0
H425 H 0.01646 0.2693 0.94681 0.0
H426 H 0.09881 0.27632 0.86816 0.0
H427 H 0.06709 0.2241 0.86919 0.0
H428 H 0.98116 0.24712 0.88301 0.0
H429 H 0.0168 0.28593 0.90673 0.0
H430 H 0.96561 0.26159 0.88183 0.0
H431 H 0.00072 0.29982 0.90498 0.0
H432 H 0.99435 0.2449 0.86307 0.0
H433 H 0.03603 0.24041 0.85362 0.0
H434 H 0.97962 0.22678 0.84455 0.0
H435 H 0.02049 0.22217 0.83536 0.0
H436 H 0.04644 0.32815 0.8708 0.0
H437 H 0.00032 0.29421 0.85333 0.0
H438 H 0.95578 0.2001 0.8961 0.0
H439 H 0.98037 0.18499 0.86894 0.0
Li440 Li 0.80044 0.81541 0.88844 0.0
Li441 Li 0.79508 0.79666 0.90655 0.0
Li442 Li 0.81404 0.80008 0.88918 0.0
Li443 Li 0.78506 0.78605 0.88525 0.0
C444 C 0.83124 0.8227 0.90595 0.0
N445 N 0.863 0.83397 0.91353 0.0
C446 C 0.83456 0.81758 0.91771 0.0
C447 C 0.84407 0.83364 0.89809 0.0
C448 C 0.8507 0.82341 0.92136 0.0
C449 C 0.86004 0.83916 0.90207 0.0
C450 C 0.7688 0.79968 0.90498 0.0
C451 C 0.74785 0.78604 0.92112 0.0
N452 N 0.74852 0.80035 0.92392 0.0
C453 C 0.76925 0.81424 0.908 0.0
C454 C 0.75797 0.78545 0.91156 0.0
C455 C 0.7589 0.81433 0.91761 0.0
C456 C 0.78962 0.83553 0.87729 0.0
N457 N 0.80187 0.83549 0.88408 0.0
C458 C 0.81509 0.86423 0.88691 0.0
C459 C 0.81457 0.84944 0.88874 0.0
C460 C 0.80236 0.86462 0.8803 0.0
C461 C 0.78967 0.85007 0.87521 0.0
H462 H 0.77952 0.82419 0.87392 0.0
H463 H 0.82403 0.84902 0.89423 0.0
C464 C 0.78991 0.78032 0.93059 0.0
N465 N 0.79128 0.79374 0.9247 0.0
C466 C 0.78748 0.77828 0.944 0.0
C467 C 0.78771 0.8038 0.94496 0.0
C468 C 0.79052 0.80552 0.9316 0.0
C469 C 0.78627 0.79009 0.95141 0.0
H470 H 0.79099 0.77134 0.92491 0.0
H471 H 0.79207 0.81626 0.9267 0.0
C472 C 0.8029 0.81133 0.86368 0.0
N473 N 0.80293 0.82987 0.84298 0.0
C474 C 0.78896 0.80601 0.85607 0.0
C475 C 0.81688 0.82604 0.86073 0.0
C476 C 0.78923 0.81556 0.84565 0.0
C477 C 0.81663 0.83525 0.85025 0.0
C478 C 0.79031 0.7636 0.89483 0.0
C479 C 0.79779 0.75805 0.88616 0.0
C480 C 0.77546 0.75255 0.90049 0.0
C481 C 0.79021 0.74149 0.88324 0.0
C482 C 0.76825 0.7361 0.89729 0.0
N483 N 0.77572 0.73096 0.88881 0.0
C484 C 0.8382 0.79272 0.89484 0.0
C485 C 0.84182 0.80587 0.87451 0.0
C486 C 0.85224 0.79184 0.89296 0.0
N487 N 0.83334 0.79968 0.8857 0.0
C488 C 0.856 0.80529 0.87223 0.0
C489 C 0.86132 0.79815 0.88152 0.0
H490 H 0.83112 0.78785 0.90362 0.0
H491 H 0.83754 0.81116 0.86735 0.0
C492 C 0.75244 0.76454 0.87886 0.0
N493 N 0.768 0.76899 0.8758 0.0
C494 C 0.73964 0.75254 0.87168 0.0
C495 C 0.75912 0.74981 0.85838 0.0
C496 C 0.77157 0.7619 0.86583 0.0
C497 C 0.7429 0.74511 0.8612 0.0
H498 H 0.74997 0.7706 0.88664 0.0
H499 H 0.78411 0.76587 0.86354 0.0
O500 O 0.81553 0.81681 0.90204 0.0
O501 O 0.77892 0.79936 0.89566 0.0
O502 O 0.80283 0.80227 0.87404 0.0
O503 O 0.79738 0.7798 0.89763 0.0
H504 H 0.82481 0.80907 0.92389 0.0
H505 H 0.84171 0.83761 0.88889 0.0
H506 H 0.85345 0.81949 0.93041 0.0
H507 H 0.87008 0.84752 0.89603 0.0
H508 H 0.73949 0.77514 0.92634 0.0
H509 H 0.77759 0.8254 0.9031 0.0
H510 H 0.75755 0.7741 0.90944 0.0
H511 H 0.75917 0.82552 0.92008 0.0
H512 H 0.82519 0.87519 0.89087 0.0
H513 H 0.7795 0.84979 0.87022 0.0
H514 H 0.78689 0.76771 0.94851 0.0
H515 H 0.78665 0.81315 0.95011 0.0
H516 H 0.77801 0.79472 0.85825 0.0
H517 H 0.82771 0.83042 0.86661 0.0
H518 H 0.77851 0.81163 0.8397 0.0
H519 H 0.82732 0.84671 0.84791 0.0
H520 H 0.80923 0.76645 0.88162 0.0
H521 H 0.76949 0.75665 0.90718 0.0
H522 H 0.79582 0.73703 0.87651 0.0
H523 H 0.75672 0.72742 0.90154 0.0
H524 H 0.85604 0.78644 0.90045 0.0
H525 H 0.86258 0.81014 0.86323 0.0
H526 H 0.72736 0.7496 0.87401 0.0
H527 H 0.76216 0.74437 0.85041 0.0
Li528 Li 0.02708 0.77948 0.87987 0.0
Li529 Li 0.04221 0.80896 0.88273 0.0
Li530 Li 0.02921 0.79057 0.90107 0.0
Li531 Li 0.01311 0.79435 0.88444 0.0
C532 C 0.05775 0.79327 0.89919 0.0
N533 N 0.07838 0.79499 0.91884 0.0
C534 C 0.07144 0.80812 0.90232 0.0
C535 C 0.05461 0.77926 0.90601 0.0
C536 C 0.08172 0.80874 0.91229 0.0
C537 C 0.06516 0.7804 0.91593 0.0
C538 C 0.03356 0.80447 0.858 0.0
C539 C 0.04302 0.82806 0.84428 0.0
N540 N 0.04978 0.82184 0.83611 0.0
C541 C 0.04058 0.79829 0.84946 0.0
C542 C 0.03474 0.81945 0.85539 0.0
C543 C 0.04873 0.80726 0.83844 0.0
C544 C 0.01422 0.75518 0.86064 0.0
N545 N 0.02542 0.76171 0.87032 0.0
C546 C 0.03396 0.74237 0.86662 0.0
C547 C 0.03521 0.75563 0.87341 0.0
C548 C 0.02255 0.73535 0.85651 0.0
C549 C 0.01255 0.74189 0.85358 0.0
H550 H 0.00662 0.76034 0.85841 0.0
H551 H 0.04409 0.76117 0.88107 0.0
C552 C 0.06348 0.84245 0.88461 0.0
N553 N 0.06087 0.82899 0.878 0.0
C554 C 0.07733 0.85739 0.8822 0.0
C555 C 0.08558 0.84442 0.86612 0.0
C556 C 0.07163 0.82964 0.86898 0.0
C557 C 0.08865 0.85858 0.87284 0.0
H558 H 0.055 0.84152 0.89201 0.0
H559 H 0.06949 0.81867 0.8641 0.0
C560 C -0.0005 0.75783 0.89013 0.0
N561 N 0.98021 0.7253 0.88411 0.0
C562 C 0.98588 0.7527 0.88217 0.0
C563 C 0.00329 0.74642 0.89506 0.0
C564 C 0.97627 0.73619 0.87925 0.0
C565 C 0.99341 0.73003 0.89188 0.0
C566 C 0.02054 0.81783 0.90087 0.0
C567 C 0.01189 0.8128 0.91254 0.0
C568 C 0.01982 0.82967 0.89332 0.0
C569 C 0.00257 0.81968 0.91644 0.0
C570 C 0.01034 0.83623 0.89754 0.0
N571 N 0.00199 0.83114 0.90891 0.0
C572 C 0.04179 0.80195 0.92582 0.0
C573 C 0.02061 0.77445 0.92552 0.0
C574 C 0.0426 0.80171 0.93934 0.0
N575 N 0.03085 0.78848 0.91924 0.0
C576 C 0.02102 0.77365 0.93906 0.0
C577 C 0.03196 0.78749 0.94614 0.0
H578 H 0.04962 0.813 0.92054 0.0
H579 H 0.01179 0.76405 0.92007 0.0
C580 C 0.99115 0.80145 0.87101 0.0
N581 N 0.99369 0.79484 0.88184 0.0
C582 C 0.97659 0.80151 0.86947 0.0
C583 C 0.96758 0.7878 0.89018 0.0
C584 C 0.9823 0.78807 0.89134 0.0
C585 C 0.96456 0.79455 0.87912 0.0
H586 H 0.00038 0.8066 0.86357 0.0
H587 H 0.98469 0.78287 0.89982 0.0
O588 O 0.04738 0.79246 0.88961 0.0
O589 O 0.0256 0.79591 0.86888 0.0
O590 O 0.00925 0.77398 0.8929 0.0
O591 O 0.02939 0.81094 0.8967 0.0
H592 H 0.07407 0.81909 0.89718 0.0
H593 H 0.04399 0.76769 0.90382 0.0
H594 H 0.09232 0.82017 0.91484 0.0
H595 H 0.0628 0.76968 0.92135 0.0
H596 H 0.04411 0.83972 0.84218 0.0
H597 H 0.03987 0.78676 0.85136 0.0
H598 H 0.02952 0.82448 0.86196 0.0
H599 H 0.05426 0.80265 0.83176 0.0
H600 H 0.04218 0.73797 0.86901 0.0
H601 H 0.00358 0.73683 0.84589 0.0
H602 H 0.07932 0.86778 0.88793 0.0
H603 H 0.09387 0.84469 0.85877 0.0
H604 H 0.98285 0.76136 0.87815 0.0
H605 H 0.01391 0.75019 0.90108 0.0
H606 H 0.96573 0.73206 0.87306 0.0
H607 H 0.99626 0.72109 0.89554 0.0
H608 H 0.01217 0.80354 0.91845 0.0
H609 H 0.02635 0.83361 0.88421 0.0
H610 H 0.99575 0.81586 0.92542 0.0
H611 H 0.00959 0.84533 0.89175 0.0
H612 H 0.0513 0.8126 0.94442 0.0
H613 H 0.01245 0.76253 0.94394 0.0
H614 H 0.97465 0.8067 0.86075 0.0
H615 H 0.95873 0.78253 0.89792 0.0
Li616 Li 0.25094 0.23312 0.88768 0.0
Li617 Li 0.25102 0.24778 0.90725 0.0
Li618 Li 0.23444 0.24616 0.8888 0.0
Li619 Li 0.26426 0.26235 0.88854 0.0
C620 C 0.22835 0.2148 0.90729 0.0
N621 N 0.22054 0.18824 0.92293 0.0
C622 C 0.24063 0.21257 0.91263 0.0
C623 C 0.2121 0.20352 0.90994 0.0
C624 C 0.23643 0.19907 0.9205 0.0
C625 C 0.2084 0.19017 0.91785 0.0
C626 C 0.28639 0.25675 0.89884 0.0
C627 C 0.31138 0.28097 0.90459 0.0
N628 N 0.31996 0.27474 0.89884 0.0
C629 C 0.29547 0.25047 0.89319 0.0
C630 C 0.29443 0.27201 0.90478 0.0
C631 C 0.31241 0.25978 0.89322 0.0
C632 C 0.26446 0.21859 0.87213 0.0
N633 N 0.25158 0.21522 0.87989 0.0
C634 C 0.24058 0.18674 0.87665 0.0
C635 C 0.23941 0.19969 0.88179 0.0
C636 C 0.25429 0.18981 0.86933 0.0
C637 C 0.26617 0.206 0.86683 0.0
H638 H 0.27352 0.23108 0.8702 0.0
H639 H 0.22885 0.19724 0.88739 0.0
C640 C 0.23656 0.24276 0.93179 0.0
N641 N 0.25094 0.24751 0.92572 0.0
C642 C 0.23585 0.24319 0.94531 0.0
C643 C 0.26471 0.25292 0.9461 0.0
C644 C 0.26485 0.25233 0.93254 0.0
C645 C 0.25009 0.24845 0.95265 0.0
H646 H 0.22568 0.23894 0.92608 0.0
H647 H 0.27607 0.25584 0.92747 0.0
C648 C 0.24111 0.23898 0.86413 0.0
N649 N 0.224 0.22141 0.84258 0.0
C650 C 0.24694 0.24474 0.85165 0.0
C651 C 0.22659 0.22426 0.86566 0.0
C652 C 0.2381 0.23568 0.84087 0.0
C653 C 0.21812 0.21557 0.85464 0.0
C654 C 0.24557 0.27218 0.90985 0.0
C655 C 0.22965 0.26849 0.91241 0.0
C656 C 0.25801 0.28236 0.91837 0.0
C657 C 0.22638 0.27479 0.92355 0.0
C658 C 0.25425 0.28838 0.92942 0.0
N659 N 0.23864 0.28449 0.93176 0.0
C660 C 0.20097 0.23505 0.88961 0.0
C661 C 0.21497 0.25342 0.87244 0.0
C662 C 0.18641 0.2341 0.88589 0.0
N663 N 0.21485 0.24471 0.88296 0.0
C664 C 0.20064 0.2527 0.86829 0.0
C665 C 0.18609 0.24305 0.87512 0.0
H666 H 0.20131 0.22844 0.89803 0.0
H667 H 0.22623 0.26097 0.86732 0.0
C668 C 0.28947 0.28074 0.87079 0.0
N669 N 0.28142 0.2816 0.8814 0.0
C670 C 0.3002 0.29488 0.86409 0.0
C671 C 0.29478 0.31046 0.87987 0.0
C672 C 0.28415 0.29605 0.88621 0.0
C673 C 0.30247 0.30992 0.86838 0.0
H674 H 0.2869 0.26901 0.86715 0.0
H675 H 0.27747 0.29634 0.8946 0.0
O676 O 0.23211 0.22803 0.89965 0.0
O677 O 0.26975 0.24782 0.89886 0.0
O678 O 0.24969 0.24772 0.87475 0.0
O679 O 0.24894 0.26583 0.89911 0.0
H680 H 0.25327 0.22112 0.91074 0.0
H681 H 0.20243 0.20502 0.90589 0.0
H682 H 0.24581 0.1972 0.92469 0.0
H683 H 0.19588 0.18134 0.91996 0.0
H684 H 0.31772 0.29288 0.90903 0.0
H685 H 0.28956 0.23845 0.88901 0.0
H686 H 0.28764 0.27696 0.90936 0.0
H687 H 0.31957 0.25508 0.88883 0.0
H688 H 0.2311 0.17446 0.87882 0.0
H689 H 0.27675 0.20889 0.86098 0.0
H690 H 0.22436 0.2398 0.94993 0.0
H691 H 0.2759 0.25679 0.95138 0.0
H692 H 0.25817 0.2561 0.85032 0.0
H693 H 0.22191 0.21958 0.87524 0.0
H694 H 0.24246 0.24 0.83115 0.0
H695 H 0.20687 0.20417 0.85568 0.0
H696 H 0.21987 0.26079 0.90594 0.0
H697 H 0.27041 0.28544 0.91659 0.0
H698 H 0.21409 0.27194 0.92566 0.0
H699 H 0.26375 0.29612 0.93614 0.0
H700 H 0.17564 0.22677 0.89165 0.0
H701 H 0.20097 0.25965 0.85984 0.0
H702 H 0.30575 0.29394 0.85519 0.0
H703 H 0.29635 0.32183 0.88356 0.0
Li704 Li 0.80827 0.04153 0.88737 0.0
Li705 Li 0.78704 0.02832 0.90376 0.0
Li706 Li 0.79086 0.01262 0.88665 0.0
Li707 Li 0.77974 0.03021 0.88186 0.0
C708 C 0.81099 0.01545 0.90523 0.0
N709 N 0.81944 0.99311 0.9138 0.0
C710 C 0.80402 0.00648 0.91654 0.0
C711 C 0.82234 0.01312 0.89833 0.0
C712 C 0.80846 0.99525 0.92071 0.0
C713 C 0.82641 0.00174 0.90279 0.0
C714 C 0.79341 0.05849 0.90324 0.0
C715 C 0.77985 0.06618 0.91917 0.0
N716 N 0.79453 0.0781 0.92352 0.0
C717 C 0.80835 0.07085 0.90785 0.0
C718 C 0.77903 0.05617 0.90891 0.0
C719 C 0.80866 0.08063 0.91811 0.0
C720 C 0.83217 0.07203 0.8775 0.0
N721 N 0.82968 0.059 0.8847 0.0
C722 C 0.85792 0.07156 0.88969 0.0
C723 C 0.84213 0.0585 0.89073 0.0
C724 C 0.86088 0.08527 0.88243 0.0
C725 C 0.8478 0.08534 0.87613 0.0
H726 H 0.82196 0.07223 0.87307 0.0
H727 H 0.83977 0.04814 0.8966 0.0
C728 C 0.7674 0.01902 0.9266 0.0
N729 N 0.78255 0.0286 0.9217 0.0
C730 C 0.76455 0.01924 0.93991 0.0
C731 C 0.79295 0.03915 0.94279 0.0
C732 C 0.79526 0.03846 0.92948 0.0
C733 C 0.77744 0.02942 0.94817 0.0
H734 H 0.75757 0.01112 0.92021 0.0
H735 H 0.80724 0.04569 0.92532 0.0
C736 C 0.80705 0.03639 0.86236 0.0
N737 N 0.82917 0.05472 0.84331 0.0
C738 C 0.80406 0.04641 0.85426 0.0
C739 C 0.82127 0.03566 0.86075 0.0
C740 C 0.81539 0.05557 0.84468 0.0
C741 C 0.83232 0.04504 0.85108 0.0
C742 C 0.75479 0.0025 0.8889 0.0
C743 C 0.7501 0.99019 0.87964 0.0
C744 C 0.74359 0.00695 0.89316 0.0
C745 C 0.73428 0.98258 0.87474 0.0
C746 C 0.7279 -0.00092 0.88799 0.0
N747 N 0.72361 0.98717 0.87896 0.0
C748 C 0.78205 0.98055 0.89227 0.0
C749 C 0.7973 0.99041 0.87283 0.0
C750 C 0.78261 0.9662 0.89139 0.0
N751 N 0.78972 0.99244 0.88326 0.0
C752 C 0.79807 0.97618 0.87151 0.0
C753 C 0.791 0.96404 0.88106 0.0
H754 H 0.77601 0.98248 0.90041 0.0
H755 H 0.80318 3e-05 0.86576 0.0
C756 C 0.75776 0.04113 0.87466 0.0
N757 N 0.7645 0.03202 0.87114 0.0
C758 C 0.74507 0.0405 0.86735 0.0
C759 C 0.74718 0.02181 0.85262 0.0
C760 C 0.75971 0.02272 0.86024 0.0
C761 C 0.73948 0.03054 0.85628 0.0
H762 H 0.76186 0.04847 0.88335 0.0
H763 H 0.76526 0.01554 0.85774 0.0
O764 O 0.80647 0.02619 0.90078 0.0
O765 O 0.79286 0.0486 0.89335 0.0
O766 O 0.79621 0.02748 0.87191 0.0
O767 O 0.77036 0.01043 0.89353 0.0
H768 H 0.79513 0.008 0.92196 0.0
H769 H 0.82771 0.01981 0.88947 0.0
H770 H 0.8031 0.98817 0.92941 0.0
H771 H 0.83505 -0.0003 0.89748 0.0
H772 H 0.76883 0.06441 0.92372 0.0
H773 H 0.81961 0.0728 0.90364 0.0
H774 H 0.76736 0.0465 0.90561 0.0
H775 H 0.82014 0.0902 0.92181 0.0
H776 H 0.86769 0.07101 0.89465 0.0
H777 H 0.84953 0.0958 0.87063 0.0
H778 H 0.75241 0.01157 0.94368 0.0
H779 H 0.80328 0.04693 0.94885 0.0
H780 H 0.7932 0.04726 0.85543 0.0
H781 H 0.8239 0.02815 0.86705 0.0
H782 H 0.81326 0.06343 0.83837 0.0
H783 H 0.84343 0.04468 0.84979 0.0
H784 H 0.75865 0.98668 0.87615 0.0
H785 H 0.74707 0.01659 0.90021 0.0
H786 H 0.73051 0.97309 0.86752 0.0
H787 H 0.71916 0.00251 0.8911 0.0
H788 H 0.77677 0.95702 0.89885 0.0
H789 H 0.80469 0.97499 0.86342 0.0
H790 H 0.73951 0.0475 0.87044 0.0
H791 H 0.74308 0.01376 0.84429 0.0
Li792 Li 0.80369 0.03889 0.10757 0.0
Li793 Li 0.77572 0.02434 0.11276 0.0
Li794 Li 0.79006 0.01031 0.10632 0.0
Li795 Li 0.78438 0.02594 0.08966 0.0
C796 C 0.80266 0.0311 0.13253 0.0
N797 N 0.82194 0.04712 0.1537 0.0
C798 C 0.79741 0.0383 0.14172 0.0
C799 C 0.81765 0.03192 0.13416 0.0
C800 C 0.80735 0.04636 0.15236 0.0
C801 C 0.82725 0.04013 0.1449 0.0
C802 C 0.79357 0.05978 0.10337 0.0
C803 C 0.81137 0.08725 0.09617 0.0
N804 N 0.80915 0.09288 0.1077 0.0
C805 C 0.79144 0.06583 0.11515 0.0
C806 C 0.80355 0.07056 0.09377 0.0
C807 C 0.79942 0.08261 0.11714 0.0
C808 C 0.83574 0.06125 0.10128 0.0
N809 N 0.82439 0.05802 0.1106 0.0
C810 C 0.84249 0.08276 0.12165 0.0
C811 C 0.82749 0.06843 0.12071 0.0
C812 C 0.8543 0.08646 0.11202 0.0
C813 C 0.85082 0.07539 0.10182 0.0
H814 H 0.83297 0.05301 0.09321 0.0
H815 H 0.81822 0.06591 0.12785 0.0
C816 C 0.7537 0.01224 0.13364 0.0
N817 N 0.75853 0.0224 0.12324 0.0
C818 C 0.74106 0.01066 0.14154 0.0
C819 C 0.73849 0.02981 0.12768 0.0
C820 C 0.75108 0.03092 0.12001 0.0
C821 C 0.73342 0.0197 0.13871 0.0
H822 H 0.75976 0.00546 0.13583 0.0
H823 H 0.75509 0.03874 0.11156 0.0
C824 C 0.8125 0.01838 0.08823 0.0
N825 N 0.82738 0.00192 0.07866 0.0
C826 C 0.80778 0.01046 0.07622 0.0
C827 C 0.82489 0.01807 0.0953 0.0
C828 C 0.81543 0.00218 0.07157 0.0
C829 C 0.83222 0.00963 0.09032 0.0
C830 C 0.75324 0.99613 0.1032 0.0
C831 C 0.74948 0.98306 0.11148 0.0
C832 C 0.74094 -0.0009 0.0991 0.0
C833 C 0.73344 0.97316 0.11554 0.0
C834 C 0.72505 0.98894 0.10341 0.0
N835 N 0.72166 0.97629 0.11147 0.0
C836 C 0.79654 0.98803 0.11967 0.0
C837 C 0.78603 0.98057 0.0983 0.0
C838 C 0.79705 0.97368 0.12103 0.0
N839 N 0.79115 0.99117 0.10841 0.0
C840 C 0.78653 0.96622 0.09917 0.0
C841 C 0.79199 0.96253 0.11068 0.0
H842 H 0.80027 0.99658 0.12762 0.0
H843 H 0.78158 0.98333 0.08955 0.0
C844 C 0.79236 0.03826 0.06449 0.0
N845 N 0.78002 0.02703 0.0719 0.0
C846 C 0.79027 0.03903 0.05115 0.0
C847 C 0.76277 0.01665 0.05329 0.0
C848 C 0.76541 0.01631 0.06662 0.0
C849 C 0.77534 0.02806 0.04535 0.0
H850 H 0.80398 0.04633 0.06893 0.0
H851 H 0.75591 0.00731 0.0727 0.0
O852 O 0.79303 0.023 0.12213 0.0
O853 O 0.78606 0.04338 0.10131 0.0
O854 O 0.80497 0.02631 0.09308 0.0
O855 O 0.76895 0.00622 0.0994 0.0
H856 H 0.78586 0.03781 0.14062 0.0
H857 H 0.82186 0.02636 0.12715 0.0
H858 H 0.80348 0.05206 0.15952 0.0
H859 H 0.83892 0.04094 0.14625 0.0
H860 H 0.81921 0.09573 0.08886 0.0
H861 H 0.78392 0.05767 0.12274 0.0
H862 H 0.80537 0.06608 0.08463 0.0
H863 H 0.79796 0.08746 0.12623 0.0
H864 H 0.8446 0.09107 0.12958 0.0
H865 H 0.85964 0.07767 0.09426 0.0
H866 H 0.73741 0.00256 0.14983 0.0
H867 H 0.73317 0.03723 0.12522 0.0
H868 H 0.79818 0.01054 0.07064 0.0
H869 H 0.82872 0.02419 0.10458 0.0
H870 H 0.81184 0.99591 0.06233 0.0
H871 H 0.84176 0.00919 0.09573 0.0
H872 H 0.75887 0.98067 0.11484 0.0
H873 H 0.74369 0.00933 0.09287 0.0
H874 H 0.73036 0.96303 0.12198 0.0
H875 H 0.71543 0.99116 0.1004 0.0
H876 H 0.80108 0.97124 0.13016 0.0
H877 H 0.78277 0.95817 0.09084 0.0
H878 H 0.80042 0.04778 0.04538 0.0
H879 H 0.75105 0.00802 0.04925 0.0
Li880 Li 0.01024 0.79343 0.10728 0.0
Li881 Li 0.02243 0.77626 0.109 0.0
Li882 Li 0.03921 0.80564 0.10778 0.0
Li883 Li 0.02437 0.7897 0.08885 0.0
C884 C 0.0156 0.7935 0.13214 0.0
N885 N 0.99759 0.79465 0.15277 0.0
C886 C 0.00488 0.77927 0.13877 0.0
C887 C 0.01718 0.80831 0.13603 0.0
C888 C 0.99589 0.78011 0.14918 0.0
C889 C 0.00795 0.80864 0.14647 0.0
C890 C 0.99438 0.76573 0.08732 0.0
C891 C 0.98727 0.74878 0.06821 0.0
N892 N 0.9751 0.75196 0.06563 0.0
C893 C 0.9818 0.76883 0.08447 0.0
C894 C 0.99712 0.7556 0.07913 0.0
C895 C 0.97218 0.76174 0.07347 0.0
C896 C 0.99188 0.80922 0.10759 0.0
N897 N 0.99209 0.79577 0.11178 0.0
C898 C 0.96508 0.78447 0.12009 0.0
C899 C 0.97911 0.78353 0.118 0.0
C900 C 0.96436 0.798 0.11549 0.0
C901 C 0.97808 0.8106 0.10936 0.0
H902 H 0.00221 0.81862 0.10246 0.0
H903 H 0.97943 0.77275 0.12088 0.0
C904 C 0.02688 0.75864 0.12891 0.0
N905 N 0.02101 0.75749 0.11668 0.0
C906 C 0.02593 0.74505 0.13493 0.0
C907 C 0.01378 0.72962 0.11535 0.0
C908 C 0.01466 0.74342 0.10983 0.0
C909 C 0.01914 0.7302 0.12819 0.0
H910 H 0.03208 0.77009 0.13405 0.0
H911 H 0.01036 0.74292 0.10005 0.0
C912 C 0.03574 0.82603 0.09269 0.0
N913 N 0.05691 0.85857 0.08788 0.0
C914 C 0.04468 0.83087 0.08114 0.0
C915 C 0.03748 0.83777 0.10175 0.0
C916 C 0.05533 0.84737 0.0789 0.0
C917 C 0.04828 0.85415 0.09916 0.0
C918 C 0.05087 0.78197 0.10145 0.0
C919 C 0.06143 0.7877 0.11209 0.0
C920 C 0.04881 0.76832 0.09464 0.0
C921 C 0.06981 0.77972 0.1157 0.0
C922 C 0.05739 0.76068 0.09858 0.0
N923 N 0.06763 0.76649 0.10893 0.0
C924 C 0.06285 0.83091 0.12431 0.0
C925 C 0.07062 0.82921 0.10272 0.0
C926 C 0.07814 0.84441 0.12675 0.0
N927 N 0.05942 0.82378 0.11239 0.0
C928 C 0.0859 0.84269 0.10467 0.0
C929 C 0.08988 0.85052 0.11681 0.0
H930 H 0.05378 0.82612 0.1319 0.0
H931 H 0.06756 0.82312 0.0934 0.0
C932 C 0.0153 0.7926 0.06341 0.0
N933 N 0.025 0.78876 0.07045 0.0
C934 C 0.01558 0.79226 0.04986 0.0
C935 C 0.03596 0.78416 0.05109 0.0
C936 C 0.03531 0.78472 0.06462 0.0
C937 C 0.02603 0.788 0.04354 0.0
H938 H 0.00737 0.79597 0.06835 0.0
H939 H 0.04317 0.78212 0.07045 0.0
O940 O 0.02436 0.79291 0.12182 0.0
O941 O 0.00406 0.77271 0.09797 0.0
O942 O 0.02552 0.8099 0.0952 0.0
O943 O 0.04218 0.78932 0.09799 0.0
H944 H 0.00333 0.76766 0.13581 0.0
H945 H 0.02533 0.81941 0.13096 0.0
H946 H 0.9875 0.76919 0.15436 0.0
H947 H 0.009 0.82001 0.14953 0.0
H948 H 0.98937 0.74105 0.06173 0.0
H949 H 0.97951 0.7767 0.0906 0.0
H950 H 0.00703 0.75337 0.08096 0.0
H951 H 0.96243 0.76407 0.07115 0.0
H952 H 0.95466 0.77439 0.12467 0.0
H953 H 0.978 0.82125 0.10572 0.0
H954 H 0.03001 0.74612 0.14489 0.0
H955 H 0.00881 0.7186 0.10963 0.0
H956 H 0.04359 0.82198 0.07405 0.0
H957 H 0.03071 0.83425 0.11075 0.0
H958 H 0.06239 0.85128 0.07004 0.0
H959 H 0.04983 0.86334 0.10612 0.0
H960 H 0.06298 0.79804 0.11763 0.0
H961 H 0.0404 0.76345 0.08659 0.0
H962 H 0.07797 0.784 0.12394 0.0
H963 H 0.05583 0.75005 0.09345 0.0
H964 H 0.08074 0.84991 0.13631 0.0
H965 H 0.09435 0.8471 0.09661 0.0
H966 H 0.00766 0.7952 0.04439 0.0
H967 H 0.04439 0.78111 0.04659 0.0
Li968 Li 0.26624 0.26819 0.11358 0.0
Li969 Li 0.2466 0.23918 0.11356 0.0
Li970 Li 0.24886 0.25641 0.09517 0.0
Li971 Li 0.23747 0.25836 0.11589 0.0
C972 C 0.27066 0.24778 0.09076 0.0
N973 N 0.27983 0.24014 0.0675 0.0
C974 C 0.26555 0.2316 0.08767 0.0
C975 C 0.28048 0.26007 0.08201 0.0
C976 C 0.27033 0.22799 0.07587 0.0
C977 C 0.28495 0.25596 0.07029 0.0
C978 C 0.25266 0.24636 0.13803 0.0
C979 C 0.24004 0.2243 0.15339 0.0
N980 N 0.25497 0.22795 0.15782 0.0
C981 C 0.26788 0.24989 0.14273 0.0
C982 C 0.23861 0.23347 0.14341 0.0
C983 C 0.26879 0.24045 0.15274 0.0
C984 C 0.28772 0.29195 0.13081 0.0
N985 N 0.28696 0.28456 0.11932 0.0
C986 C 0.31562 0.30088 0.1165 0.0
C987 C 0.30046 0.2888 0.11211 0.0
C988 C 0.3169 0.30847 0.12852 0.0
C989 C 0.30264 0.30396 0.13564 0.0
H990 H 0.27673 0.2883 0.13631 0.0
H991 H 0.2995 0.28274 0.10301 0.0
C992 C 0.2281 0.2051 0.11532 0.0
N993 N 0.24295 0.21815 0.11779 0.0
C994 C 0.22552 0.1894 0.1168 0.0
C995 C 0.25345 0.20086 0.12368 0.0
C996 C 0.25552 0.21636 0.12201 0.0
C997 C 0.23838 0.18714 0.12079 0.0
H998 H 0.21842 0.20687 0.11175 0.0
H999 H 0.26731 0.22697 0.12357 0.0
C1000 C 0.2628 0.29243 0.10632 0.0
N1001 N 0.28337 0.32516 0.11089 0.0
C1002 C 0.25996 0.30006 0.1168 0.0
C1003 C 0.27611 0.30146 0.09817 0.0
C1004 C 0.27049 0.31662 0.11893 0.0
C1005 C 0.28637 0.31798 0.10065 0.0
C1006 C 0.21316 0.2355 0.10309 0.0
C1007 C 0.20781 0.24113 0.09273 0.0
C1008 C 0.20232 0.22642 0.11299 0.0
C1009 C 0.19169 0.23765 0.09248 0.0
C1010 C 0.18631 0.22323 0.1124 0.0
N1011 N 0.18137 0.22886 0.10224 0.0
C1012 C 0.24024 0.24156 0.07085 0.0
C1013 C 0.25241 0.27023 0.06994 0.0
C1014 C 0.23957 0.24056 0.05732 0.0
N1015 N 0.24687 0.25625 0.07683 0.0
C1016 C 0.25196 0.2698 0.05637 0.0
C1017 C 0.24566 0.25482 0.04989 0.0
H1018 H 0.23585 0.23065 0.07662 0.0
H1019 H 0.25736 0.28171 0.07497 0.0
C1020 C 0.21515 0.25729 0.13513 0.0
N1021 N 0.22168 0.2626 0.12314 0.0
C1022 C 0.20249 0.25955 0.13947 0.0
C1023 C 0.20413 0.27331 0.11926 0.0
C1024 C 0.21663 0.27069 0.1153 0.0
C1025 C 0.19674 0.26752 0.13141 0.0
H1026 H 0.21949 0.25098 0.14118 0.0
H1027 H 0.22204 0.27472 0.1058 0.0
O1028 O 0.26586 0.25154 0.10216 0.0
O1029 O 0.25151 0.25532 0.12812 0.0
O1030 O 0.25287 0.27614 0.10427 0.0
O1031 O 0.22903 0.23921 0.10372 0.0
H1032 H 0.25785 0.22189 0.09423 0.0
H1033 H 0.28426 0.27262 0.08407 0.0
H1034 H 0.26642 0.21552 0.07335 0.0
H1035 H 0.2924 0.26534 0.06339 0.0
H1036 H 0.22927 0.21422 0.15758 0.0
H1037 H 0.27889 0.25969 0.1386 0.0
H1038 H 0.22674 0.23039 0.13975 0.0
H1039 H 0.28049 0.24302 0.15644 0.0
H1040 H 0.32624 0.3041 0.11059 0.0
H1041 H 0.303 0.30921 0.14506 0.0
H1042 H 0.21368 0.17914 0.11455 0.0
H1043 H 0.26376 0.19966 0.12657 0.0
H1044 H 0.24988 0.29324 0.12333 0.0
H1045 H 0.2787 0.29571 0.09018 0.0
H1046 H 0.26847 0.32266 0.12703 0.0
H1047 H 0.29678 0.32508 0.09448 0.0
H1048 H 0.21606 0.2483 0.08505 0.0
H1049 H 0.2063 0.22213 0.12116 0.0
H1050 H 0.1874 0.242 0.08456 0.0
H1051 H 0.17782 0.21634 0.12005 0.0
H1052 H 0.23476 0.22877 0.05275 0.0
H1053 H 0.25651 0.28106 0.05102 0.0
H1054 H 0.19714 0.25498 0.14892 0.0
H1055 H 0.19988 0.27924 0.11264 0.0
Li1056 Li 0.68893 0.60237 0.45056 0.0
Li1057 Li 0.70292 0.58798 0.4455 0.0
Li1058 Li 0.68834 0.59345 0.42806 0.0
Li1059 Li 0.67374 0.57331 0.44488 0.0
C1060 C 0.72197 0.62153 0.44291 0.0
N1061 N 0.75157 0.64587 0.45197 0.0
C1062 C 0.72517 0.62335 0.45624 0.0
C1063 C 0.73381 0.63208 0.43417 0.0
C1064 C 0.74021 0.63572 0.46064 0.0
C1065 C 0.7487 0.64432 0.43895 0.0
C1066 C 0.69289 0.57849 0.4705 0.0
C1067 C 0.69835 0.55864 0.48028 0.0
N1068 N 0.70385 0.56798 0.49116 0.0
C1069 C 0.69854 0.58787 0.48181 0.0
C1070 C 0.69273 0.56374 0.46975 0.0
C1071 C 0.70405 0.58235 0.49214 0.0
C1072 C 0.68028 0.61359 0.47229 0.0
N1073 N 0.68871 0.61861 0.46099 0.0
C1074 C 0.69575 0.64608 0.46519 0.0
C1075 C 0.69644 0.63447 0.45731 0.0
C1076 C 0.68719 0.64124 0.47698 0.0
C1077 C 0.67945 0.62478 0.48053 0.0
H1078 H 0.67409 0.60085 0.47485 0.0
H1079 H 0.70304 0.6381 0.44822 0.0
C1080 C 0.72768 0.58269 0.43762 0.0
N1081 N 0.72214 0.58693 0.44825 0.0
C1082 C 0.74228 0.58261 0.43817 0.0
C1083 C 0.7451 0.59094 0.46068 0.0
C1084 C 0.73058 0.59116 0.45963 0.0
C1085 C 0.75115 0.58679 0.4498 0.0
H1086 H 0.72088 0.57968 0.42863 0.0
H1087 H 0.72632 0.59508 0.46781 0.0
C1088 C 0.66457 0.60136 0.43505 0.0
N1089 N 0.6541 0.62265 0.42798 0.0
C1090 C 0.64829 0.59699 0.43667 0.0
C1091 C 0.67553 0.61655 0.42984 0.0
C1092 C 0.64324 0.60793 0.43303 0.0
C1093 C 0.67 0.62715 0.42633 0.0
C1094 C 0.68213 0.55812 0.42676 0.0
C1095 C 0.67179 0.55372 0.41601 0.0
C1096 C 0.68549 0.54674 0.43238 0.0
C1097 C 0.66464 0.53785 0.41126 0.0
C1098 C 0.67811 0.53099 0.42734 0.0
N1099 N 0.6679 0.5269 0.41699 0.0
C1100 C 0.70266 0.60335 0.40356 0.0
C1101 C 0.67445 0.59424 0.4039 0.0
C1102 C 0.70312 0.60535 0.3901 0.0
N1103 N 0.68845 0.59778 0.41011 0.0
C1104 C 0.67437 0.59618 0.39046 0.0
C1105 C 0.6888 0.60157 0.38334 0.0
H1106 H 0.71353 0.60578 0.40878 0.0
H1107 H 0.66325 0.58954 0.40932 0.0
C1108 C 0.65105 0.54403 0.45819 0.0
N1109 N 0.65425 0.55318 0.44725 0.0
C1110 C 0.63679 0.52899 0.4591 0.0
C1111 C 0.62925 0.53332 0.43766 0.0
C1112 C 0.64354 0.54831 0.43722 0.0
C1113 C 0.62581 0.52338 0.44865 0.0
H1114 H 0.65954 0.54834 0.46618 0.0
H1115 H 0.6462 0.55604 0.4288 0.0
O1116 O 0.70738 0.60943 0.43835 0.0
O1117 O 0.68753 0.58374 0.46026 0.0
O1118 O 0.66967 0.59078 0.43866 0.0
O1119 O 0.68914 0.57356 0.43163 0.0
H1120 H 0.71616 0.61527 0.46313 0.0
H1121 H 0.73151 0.63082 0.42381 0.0
H1122 H 0.74285 0.63725 0.47094 0.0
H1123 H 0.75799 0.65257 0.4323 0.0
H1124 H 0.69833 0.54727 0.4798 0.0
H1125 H 0.69881 0.59934 0.48258 0.0
H1126 H 0.68833 0.55631 0.46111 0.0
H1127 H 0.70851 0.58951 0.50092 0.0
H1128 H 0.70184 0.65867 0.46213 0.0
H1129 H 0.67245 0.62053 0.48942 0.0
H1130 H 0.74664 0.57936 0.42959 0.0
H1131 H 0.7518 0.5945 0.46974 0.0
H1132 H 0.63967 0.58527 0.4407 0.0
H1133 H 0.68817 0.62014 0.42852 0.0
H1134 H 0.63067 0.60472 0.43422 0.0
H1135 H 0.67835 0.63894 0.42229 0.0
H1136 H 0.66917 0.56241 0.41147 0.0
H1137 H 0.6938 0.55005 0.44049 0.0
H1138 H 0.65648 0.53423 0.40303 0.0
H1139 H 0.68055 0.52204 0.43164 0.0
H1140 H 0.71445 0.60925 0.38502 0.0
H1141 H 0.66308 0.59329 0.3857 0.0
H1142 H 0.63454 0.52169 0.46777 0.0
H1143 H 0.62094 0.52959 0.4295 0.0
Li1144 Li 0.44842 0.11446 0.45009 0.0
Li1145 Li 0.46578 0.14331 0.44628 0.0
Li1146 Li 0.46172 0.12336 0.42947 0.0
Li1147 Li 0.47787 0.12663 0.44896 0.0
C1148 C 0.42957 0.12315 0.43858 0.0
N1149 N 0.39704 0.11228 0.44283 0.0
C1150 C 0.42489 0.13198 0.44659 0.0
C1151 C 0.41773 0.10886 0.43267 0.0
C1152 C 0.40837 0.12627 0.44862 0.0
C1153 C 0.40134 0.10354 0.43497 0.0
C1154 C 0.47216 0.13047 0.47308 0.0
C1155 C 0.49461 0.14265 0.48812 0.0
N1156 N 0.4875 0.12884 0.49537 0.0
C1157 C 0.46506 0.11639 0.48068 0.0
C1158 C 0.48703 0.14373 0.47683 0.0
C1159 C 0.47301 0.11582 0.49192 0.0
C1160 C 0.42298 0.08298 0.45595 0.0
N1161 N 0.4295 0.09895 0.45891 0.0
C1162 C 0.41051 0.09268 0.47621 0.0
C1163 C 0.42344 0.10401 0.46868 0.0
C1164 C 0.40387 0.07602 0.47366 0.0
C1165 C 0.41005 0.07125 0.4632 0.0
H1166 H 0.42821 0.0793 0.44829 0.0
H1167 H 0.42902 0.11683 0.47086 0.0
C1168 C 0.46567 0.17143 0.43871 0.0
N1169 N 0.46797 0.16397 0.44907 0.0
C1170 C 0.46745 0.18682 0.44007 0.0
C1171 C 0.47322 0.18624 0.46292 0.0
C1172 C 0.47154 0.17092 0.46106 0.0
C1173 C 0.4713 0.1944 0.4523 0.0
H1174 H 0.4625 0.16542 0.42936 0.0
H1175 H 0.47305 0.16456 0.46917 0.0
C1176 C 0.46075 0.09512 0.43238 0.0
N1177 N 0.46068 0.0735 0.41438 0.0
C1178 C 0.4745 0.09354 0.4308 0.0
C1179 C 0.44693 0.08563 0.42485 0.0
C1180 C 0.47423 0.08255 0.42164 0.0
C1181 C 0.44715 0.07481 0.41578 0.0
C1182 C 0.49104 0.15812 0.43079 0.0
C1183 C 0.48897 0.16207 0.41811 0.0
C1184 C 0.50165 0.1704 0.43923 0.0
C1185 C 0.49745 0.17829 0.41413 0.0
C1186 C 0.50987 0.18647 0.43488 0.0
N1187 N 0.50762 0.19005 0.42253 0.0
C1188 C 0.44881 0.12067 0.40428 0.0
C1189 C 0.47185 0.11731 0.40538 0.0
C1190 C 0.44829 0.11903 0.39078 0.0
N1191 N 0.46047 0.11978 0.41125 0.0
C1192 C 0.47157 0.11522 0.39195 0.0
C1193 C 0.45979 0.11626 0.38438 0.0
H1194 H 0.44016 0.12306 0.40918 0.0
H1195 H 0.48125 0.11709 0.41114 0.0
C1196 C 0.49459 0.11331 0.46267 0.0
N1197 N 0.4963 0.12588 0.4552 0.0
C1198 C 0.50827 0.11254 0.46659 0.0
C1199 C 0.52511 0.13768 0.4551 0.0
C1200 C 0.51116 0.13795 0.45142 0.0
C1201 C 0.5238 0.1248 0.46271 0.0
H1202 H 0.48258 0.10375 0.46538 0.0
H1203 H 0.51216 0.1476 0.44527 0.0
O1204 O 0.44567 0.12835 0.4367 0.0
O1205 O 0.46471 0.13119 0.46193 0.0
O1206 O 0.46082 0.10589 0.44125 0.0
O1207 O 0.48262 0.14234 0.43496 0.0
H1208 H 0.43391 0.14303 0.45129 0.0
H1209 H 0.42116 0.10188 0.42647 0.0
H1210 H 0.40456 0.13293 0.45484 0.0
H1211 H 0.39204 0.09246 0.43052 0.0
H1212 H 0.50617 0.15279 0.49109 0.0
H1213 H 0.45364 0.10596 0.47788 0.0
H1214 H 0.49276 0.15465 0.471 0.0
H1215 H 0.4677 0.10499 0.49788 0.0
H1216 H 0.40608 0.09687 0.48416 0.0
H1217 H 0.40554 0.05855 0.46105 0.0
H1218 H 0.46559 0.19262 0.43171 0.0
H1219 H 0.47617 0.19172 0.47249 0.0
H1220 H 0.48533 0.10082 0.4365 0.0
H1221 H 0.43623 0.08679 0.42585 0.0
H1222 H 0.48481 0.08125 0.42029 0.0
H1223 H 0.43658 0.06748 0.40982 0.0
H1224 H 0.48081 0.15276 0.41145 0.0
H1225 H 0.5033 0.16758 0.44911 0.0
H1226 H 0.4959 0.18152 0.40436 0.0
H1227 H 0.518 0.19611 0.44135 0.0
H1228 H 0.43923 0.12036 0.38543 0.0
H1229 H 0.48056 0.11288 0.38759 0.0
H1230 H 0.5067 0.10242 0.47248 0.0
H1231 H 0.53678 0.14719 0.45162 0.0
Li1232 Li 0.93185 0.35323 0.44439 0.0
Li1233 Li 0.90243 0.33814 0.44338 0.0
Li1234 Li 0.91886 0.35045 0.42391 0.0
Li1235 Li 0.91638 0.36713 0.44098 0.0
C1236 C 0.92474 0.32393 0.43834 0.0
N1237 N 0.93957 0.30687 0.44662 0.0
C1238 C 0.91798 0.31274 0.4485 0.0
C1239 C 0.93898 0.32639 0.43235 0.0
C1240 C 0.92567 0.30424 0.45255 0.0
C1241 C 0.94632 0.31767 0.43669 0.0
C1242 C 0.91689 0.36431 0.4662 0.0
C1243 C 0.90436 0.37594 0.47946 0.0
N1244 N 0.91885 0.3855 0.48544 0.0
C1245 C 0.93165 0.37423 0.47249 0.0
C1246 C 0.90311 0.36513 0.46972 0.0
C1247 C 0.93239 0.38486 0.4822 0.0
C1248 C 0.96519 0.36561 0.44814 0.0
N1249 N 0.95029 0.35508 0.45301 0.0
C1250 C 0.9621 0.35063 0.47193 0.0
C1251 C 0.94848 0.34729 0.4645 0.0
C1252 C 0.97761 0.36219 0.46747 0.0
C1253 C 0.9791 0.36929 0.45521 0.0
H1254 H 0.96628 0.37178 0.43908 0.0
H1255 H 0.93643 0.33914 0.4682 0.0
C1256 C 0.87481 0.30769 0.44091 0.0
N1257 N 0.88323 0.31988 0.44955 0.0
C1258 C 0.85954 0.29487 0.44418 0.0
C1259 C 0.86251 0.30661 0.46558 0.0
C1260 C 0.87764 0.31943 0.4618 0.0
C1261 C 0.85314 0.29442 0.45655 0.0
H1262 H 0.87973 0.30828 0.43132 0.0
H1263 H 0.88474 0.32919 0.46852 0.0
C1264 C 0.94496 0.37955 0.42152 0.0
N1265 N 0.96151 0.39675 0.39965 0.0
C1266 C 0.94381 0.39297 0.41745 0.0
C1267 C 0.9546 0.37493 0.41451 0.0
C1268 C 0.95227 0.4015 0.40637 0.0
C1269 C 0.96284 0.38376 0.40346 0.0
C1270 C 0.88319 0.34207 0.42687 0.0
C1271 C 0.87799 0.3327 0.41554 0.0
C1272 C 0.87171 0.34169 0.43558 0.0
C1273 C 0.86135 0.32299 0.41317 0.0
C1274 C 0.85519 0.33178 0.43288 0.0
N1275 N 0.8504 0.32271 0.42183 0.0
C1276 C 0.92273 0.33697 0.40038 0.0
C1277 C 0.9189 0.35965 0.39806 0.0
C1278 C 0.9244 0.33628 0.38693 0.0
N1279 N 0.92022 0.34865 0.40563 0.0
C1280 C 0.92082 0.35963 0.38463 0.0
C1281 C 0.92367 0.34787 0.37895 0.0
H1282 H 0.92355 0.32827 0.40663 0.0
H1283 H 0.91658 0.36861 0.40251 0.0
C1284 C 0.9283 0.39957 0.44956 0.0
N1285 N 0.91551 0.38641 0.44399 0.0
C1286 C 0.92803 0.41405 0.45102 0.0
C1287 C 0.90146 0.4011 0.441 0.0
C1288 C 0.90223 0.3869 0.43978 0.0
C1289 C 0.91457 0.41499 0.44653 0.0
H1290 H 0.93885 0.39892 0.45258 0.0
H1291 H 0.89235 0.37636 0.43522 0.0
O1292 O 0.91757 0.3326 0.43441 0.0
O1293 O 0.91595 0.35397 0.45655 0.0
O1294 O 0.93658 0.3709 0.43225 0.0
O1295 O 0.89943 0.35143 0.42948 0.0
H1296 H 0.90699 0.31075 0.45329 0.0
H1297 H 0.94442 0.33508 0.42452 0.0
H1298 H 0.92061 0.2956 0.46044 0.0
H1299 H 0.9574 0.31952 0.4322 0.0
H1300 H 0.89382 0.37677 0.48223 0.0
H1301 H 0.94247 0.37387 0.46982 0.0
H1302 H 0.89163 0.35764 0.46488 0.0
H1303 H 0.94375 0.39265 0.48712 0.0
H1304 H 0.96044 0.34505 0.48141 0.0
H1305 H 0.99087 0.37818 0.45141 0.0
H1306 H 0.85269 0.28551 0.43705 0.0
H1307 H 0.8579 0.30655 0.47522 0.0
H1308 H 0.93636 0.39669 0.42269 0.0
H1309 H 0.95547 0.36445 0.41741 0.0
H1310 H 0.95144 0.41187 0.40308 0.0
H1311 H 0.97022 0.38023 0.39788 0.0
H1312 H 0.88668 0.33279 0.40871 0.0
H1313 H 0.87552 0.34877 0.44444 0.0
H1314 H 0.85715 0.31562 0.40448 0.0
H1315 H 0.84619 0.33125 0.43959 0.0
H1316 H 0.92653 0.32701 0.38283 0.0
H1317 H 0.91995 0.3686 0.37874 0.0
H1318 H 0.93848 0.42454 0.45517 0.0
H1319 H 0.89079 0.40125 0.43753 0.0
Li1320 Li 0.921 0.35507 0.23727 0.0
Li1321 Li 0.90113 0.34157 0.21971 0.0
Li1322 Li 0.92994 0.35528 0.215 0.0
Li1323 Li 0.91613 0.37007 0.2207 0.0
C1324 C 0.92736 0.33046 0.23041 0.0
N1325 N 0.94716 0.31865 0.23864 0.0
C1326 C 0.92167 0.31377 0.23025 0.0
C1327 C 0.94314 0.34116 0.23473 0.0
C1328 C 0.93186 0.30803 0.23446 0.0
C1329 C 0.95295 0.33495 0.23885 0.0
C1330 C 0.89468 0.36478 0.23858 0.0
C1331 C 0.8766 0.37565 0.23685 0.0
N1332 N 0.88363 0.38497 0.24754 0.0
C1333 C 0.90161 0.37437 0.24962 0.0
C1334 C 0.88196 0.36532 0.23221 0.0
C1335 C 0.89589 0.38452 0.25398 0.0
C1336 C 0.93478 0.36688 0.26218 0.0
N1337 N 0.92507 0.3534 0.25507 0.0
C1338 C 0.91862 0.33659 0.27389 0.0
C1339 C 0.91719 0.33843 0.26059 0.0
C1340 C 0.92793 0.35036 0.28168 0.0
C1341 C 0.93628 0.36566 0.27558 0.0
H1342 H 0.94081 0.37865 0.25751 0.0
H1343 H 0.90955 0.32792 0.25467 0.0
C1344 C 0.88022 0.31121 0.20783 0.0
N1345 N 0.88103 0.32261 0.21625 0.0
C1346 C 0.86567 0.29655 0.20626 0.0
C1347 C 0.85313 0.30587 0.2219 0.0
C1348 C 0.86786 0.32031 0.22314 0.0
C1349 C 0.85198 0.29363 0.21356 0.0
H1350 H 0.89099 0.31334 0.2026 0.0
H1351 H 0.86892 0.32951 0.22987 0.0
C1352 C 0.95005 0.38788 0.22238 0.0
N1353 N 0.97512 0.41632 0.21224 0.0
C1354 C 0.94967 0.39194 0.20936 0.0
C1355 C 0.96315 0.39832 0.23024 0.0
C1356 C 0.96247 0.40636 0.20442 0.0
C1357 C 0.97572 0.41262 0.22492 0.0
C1358 C 0.9023 0.34998 0.19488 0.0
C1359 C 0.90717 0.34538 0.1836 0.0
C1360 C 0.88668 0.34787 0.19556 0.0
C1361 C 0.89616 0.33828 0.17336 0.0
C1362 C 0.87601 0.3407 0.18514 0.0
N1363 N 0.88092 0.33607 0.17435 0.0
C1364 C 0.93914 0.34024 0.19689 0.0
C1365 C 0.9618 0.36439 0.20473 0.0
C1366 C 0.94895 0.33787 0.18816 0.0
N1367 N 0.94557 0.35358 0.20464 0.0
C1368 C 0.97213 0.36244 0.19619 0.0
C1369 C 0.96563 0.3492 0.18758 0.0
H1370 H 0.92628 0.33155 0.19738 0.0
H1371 H 0.96679 0.37457 0.21135 0.0
C1372 C 0.92372 0.40185 0.22644 0.0
N1373 N 0.91597 0.38966 0.21767 0.0
C1374 C 0.9245 0.41673 0.22452 0.0
C1375 C 0.9093 0.40623 0.20457 0.0
C1376 C 0.90884 0.39154 0.20687 0.0
C1377 C 0.9173 0.41908 0.21343 0.0
H1378 H 0.92936 0.40002 0.2349 0.0
H1379 H 0.90297 0.38172 0.19997 0.0
O1380 O 0.91749 0.3362 0.22628 0.0
O1381 O 0.90041 0.35506 0.23399 0.0
O1382 O 0.93755 0.37399 0.22757 0.0
O1383 O 0.91291 0.35687 0.20505 0.0
H1384 H 0.90949 0.30534 0.22691 0.0
H1385 H 0.94778 0.35412 0.23489 0.0
H1386 H 0.92761 0.29514 0.2344 0.0
H1387 H 0.96518 0.34308 0.24222 0.0
H1388 H 0.86685 0.37626 0.23194 0.0
H1389 H 0.91142 0.37415 0.2547 0.0
H1390 H 0.8763 0.35791 0.22374 0.0
H1391 H 0.90124 0.39208 0.26246 0.0
H1392 H 0.91227 0.3245 0.27801 0.0
H1393 H 0.9434 0.37667 0.28113 0.0
H1394 H 0.86532 0.28736 0.19983 0.0
H1395 H 0.84281 0.30418 0.22759 0.0
H1396 H 0.93965 0.38407 0.20311 0.0
H1397 H 0.96358 0.39538 0.24034 0.0
H1398 H 0.96234 0.40964 0.19437 0.0
H1399 H 0.98594 0.4208 0.23089 0.0
H1400 H 0.91938 0.34747 0.18264 0.0
H1401 H 0.88278 0.35156 0.2041 0.0
H1402 H 0.89977 0.33461 0.16461 0.0
H1403 H 0.86382 0.33883 0.18563 0.0
H1404 H 0.94355 0.32724 0.18196 0.0
H1405 H 0.98497 0.37133 0.19614 0.0
H1406 H 0.93059 0.42624 0.23169 0.0
H1407 H 0.90375 0.40762 0.19584 0.0
Li1408 Li 0.69216 0.59172 0.24112 0.0
Li1409 Li 0.7078 0.58775 0.22389 0.0
Li1410 Li 0.69191 0.60209 0.21994 0.0
Li1411 Li 0.67794 0.5729 0.22274 0.0
C1412 C 0.7204 0.61882 0.24105 0.0
N1413 N 0.73859 0.6389 0.26121 0.0
C1414 C 0.73449 0.619 0.24519 0.0
C1415 C 0.71566 0.629 0.24705 0.0
C1416 C 0.7435 0.62922 0.25542 0.0
C1417 C 0.72499 0.63901 0.25727 0.0
C1418 C 0.69211 0.55739 0.23805 0.0
C1419 C 0.68996 0.53279 0.22947 0.0
N1420 N 0.69218 0.52863 0.24164 0.0
C1421 C 0.69427 0.55284 0.25048 0.0
C1422 C 0.68987 0.54727 0.22746 0.0
C1423 C 0.69432 0.53827 0.25209 0.0
C1424 C 0.67913 0.59585 0.26453 0.0
N1425 N 0.69152 0.59447 0.25932 0.0
C1426 C 0.70314 0.59665 0.28032 0.0
C1427 C 0.70333 0.59467 0.26689 0.0
C1428 C 0.6905 0.59812 0.28598 0.0
C1429 C 0.67837 0.59768 0.27792 0.0
H1430 H 0.66975 0.59537 0.2583 0.0
H1431 H 0.71285 0.5932 0.26249 0.0
C1432 C 0.73545 0.59333 0.20928 0.0
N1433 N 0.72708 0.58708 0.22051 0.0
C1434 C 0.74967 0.59286 0.20683 0.0
C1435 C 0.7465 0.57985 0.22768 0.0
C1436 C 0.7324 0.58059 0.22971 0.0
C1437 C 0.75531 0.58596 0.21609 0.0
H1438 H 0.73102 0.59861 0.20221 0.0
H1439 H 0.72582 0.5762 0.23874 0.0
C1440 C 0.66263 0.59434 0.22893 0.0
N1441 N 0.64176 0.60602 0.22391 0.0
C1442 C 0.64907 0.58556 0.22096 0.0
C1443 C 0.66551 0.609 0.23441 0.0
C1444 C 0.63867 0.59168 0.21853 0.0
C1445 C 0.65485 0.61473 0.23172 0.0
C1446 C 0.69069 0.57795 0.19715 0.0
C1447 C 0.68071 0.5795 0.18797 0.0
C1448 C 0.6978 0.56853 0.19421 0.0
C1449 C 0.6779 0.57149 0.17604 0.0
C1450 C 0.69468 0.5607 0.18218 0.0
N1451 N 0.68488 0.56232 0.17342 0.0
C1452 C 0.70431 0.6347 0.21326 0.0
C1453 C 0.67951 0.61678 0.20273 0.0
C1454 C 0.70487 0.648 0.20706 0.0
N1455 N 0.69178 0.61948 0.211 0.0
C1456 C 0.67957 0.62974 0.19632 0.0
C1457 C 0.69243 0.6456 0.19841 0.0
H1458 H 0.714 0.6365 0.21975 0.0
H1459 H 0.66965 0.60458 0.20112 0.0
C1460 C 0.64815 0.54793 0.22923 0.0
N1461 N 0.65886 0.55288 0.2192 0.0
C1462 C 0.63308 0.53389 0.22814 0.0
C1463 C 0.64048 0.52989 0.20653 0.0
C1464 C 0.65544 0.5441 0.20803 0.0
C1465 C 0.62902 0.52476 0.21663 0.0
H1466 H 0.6513 0.5551 0.23804 0.0
H1467 H 0.66416 0.54806 0.20024 0.0
O1468 O 0.71127 0.60872 0.23117 0.0
O1469 O 0.69214 0.57167 0.23633 0.0
O1470 O 0.67299 0.58858 0.23139 0.0
O1471 O 0.69381 0.58595 0.2088 0.0
H1472 H 0.73838 0.61129 0.24061 0.0
H1473 H 0.70483 0.62904 0.24394 0.0
H1474 H 0.75439 0.62942 0.25877 0.0
H1475 H 0.7214 0.64685 0.26207 0.0
H1476 H 0.68824 0.52483 0.22136 0.0
H1477 H 0.69597 0.56053 0.25878 0.0
H1478 H 0.68798 0.5505 0.21783 0.0
H1479 H 0.69605 0.53463 0.26164 0.0
H1480 H 0.71257 0.59665 0.28623 0.0
H1481 H 0.66844 0.59882 0.28192 0.0
H1482 H 0.75606 0.59767 0.19776 0.0
H1483 H 0.75063 0.57483 0.23523 0.0
H1484 H 0.64669 0.57425 0.21654 0.0
H1485 H 0.67594 0.61596 0.24059 0.0
H1486 H 0.62818 0.58505 0.21233 0.0
H1487 H 0.65699 0.62611 0.23584 0.0
H1488 H 0.67513 0.58674 0.19002 0.0
H1489 H 0.70561 0.5672 0.20112 0.0
H1490 H 0.67016 0.57256 0.16887 0.0
H1491 H 0.70006 0.55333 0.17981 0.0
H1492 H 0.71522 0.65997 0.20873 0.0
H1493 H 0.6697 0.62736 0.18977 0.0
H1494 H 0.62472 0.53017 0.23626 0.0
H1495 H 0.63779 0.52317 0.1975 0.0
Li1496 Li 0.46273 0.1242 0.24212 0.0
Li1497 Li 0.46591 0.14343 0.22499 0.0
Li1498 Li 0.44746 0.11432 0.22235 0.0
Li1499 Li 0.47662 0.12569 0.22179 0.0
C1500 C 0.43872 0.13039 0.24595 0.0
N1501 N 0.42474 0.13341 0.26858 0.0
C1502 C 0.4414 0.14562 0.2499 0.0
C1503 C 0.42887 0.1167 0.2535 0.0
C1504 C 0.43422 0.14688 0.26136 0.0
C1505 C 0.42195 0.11848 0.26492 0.0
C1506 C 0.4989 0.1473 0.23682 0.0
C1507 C 0.52659 0.16152 0.22918 0.0
N1508 N 0.53092 0.15497 0.23908 0.0
C1509 C 0.50363 0.14075 0.24694 0.0
C1510 C 0.51047 0.15782 0.22789 0.0
C1511 C 0.51988 0.14478 0.24792 0.0
C1512 C 0.4604 0.10739 0.2656 0.0
N1513 N 0.46284 0.12159 0.2604 0.0
C1514 C 0.4645 0.13271 0.28153 0.0
C1515 C 0.46533 0.13431 0.26804 0.0
C1516 C 0.46167 0.11809 0.28713 0.0
C1517 C 0.45988 0.1054 0.27908 0.0
H1518 H 0.45879 0.09761 0.25928 0.0
H1519 H 0.46768 0.1456 0.26362 0.0
C1520 C 0.45567 0.1654 0.21756 0.0
N1521 N 0.46859 0.16434 0.22194 0.0
C1522 C 0.45692 0.18054 0.21588 0.0
C1523 C 0.48479 0.19323 0.22321 0.0
C1524 C 0.483 0.17782 0.22471 0.0
C1525 C 0.47158 0.19472 0.21887 0.0
H1526 H 0.44426 0.15443 0.21567 0.0
H1527 H 0.49301 0.17662 0.22833 0.0
C1528 C 0.4514 0.09009 0.22837 0.0
N1529 N 0.43219 0.05784 0.22153 0.0
C1530 C 0.45515 0.084 0.21735 0.0
C1531 C 0.4379 0.07979 0.23592 0.0
C1532 C 0.44529 0.06765 0.21406 0.0
C1533 C 0.42833 0.06352 0.23229 0.0
C1534 C 0.46272 0.13935 0.19994 0.0
C1535 C 0.44785 0.13584 0.19448 0.0
C1536 C 0.47697 0.15319 0.19592 0.0
C1537 C 0.44748 0.14624 0.18507 0.0
C1538 C 0.47609 0.16331 0.18651 0.0
N1539 N 0.46149 0.15965 0.18131 0.0
C1540 C 0.41338 0.09363 0.22108 0.0
C1541 C 0.42808 0.09277 0.20278 0.0
C1542 C 0.39869 0.08305 0.21505 0.0
N1543 N 0.42764 0.09845 0.2148 0.0
C1544 C 0.41367 0.08229 0.19632 0.0
C1545 C 0.39869 0.0776 0.20234 0.0
H1546 H 0.41337 0.09836 0.23061 0.0
H1547 H 0.43963 0.0969 0.19801 0.0
C1548 C 0.49814 0.11412 0.22211 0.0
N1549 N 0.49363 0.12313 0.21484 0.0
C1550 C 0.51108 0.11217 0.2182 0.0
C1551 C 0.51443 0.12869 0.19929 0.0
C1552 C 0.50128 0.13019 0.20352 0.0
C1553 C 0.51949 0.11964 0.20672 0.0
H1554 H 0.49183 0.10869 0.23109 0.0
H1555 H 0.49734 0.13718 0.19789 0.0
O1556 O 0.44579 0.12893 0.23482 0.0
O1557 O 0.48295 0.1431 0.23547 0.0
O1558 O 0.46066 0.10616 0.23156 0.0
O1559 O 0.46332 0.12945 0.20932 0.0
H1560 H 0.44906 0.15638 0.24427 0.0
H1561 H 0.42689 0.10486 0.25075 0.0
H1562 H 0.43624 0.1586 0.26455 0.0
H1563 H 0.41444 0.108 0.2709 0.0
H1564 H 0.53564 0.16952 0.22227 0.0
H1565 H 0.49483 0.13251 0.25389 0.0
H1566 H 0.50699 0.16284 0.21991 0.0
H1567 H 0.5237 0.13974 0.25566 0.0
H1568 H 0.46612 0.14278 0.28753 0.0
H1569 H 0.45778 0.09401 0.28317 0.0
H1570 H 0.44634 0.18111 0.21273 0.0
H1571 H 0.49634 0.20384 0.22552 0.0
H1572 H 0.46543 0.09184 0.2113 0.0
H1573 H 0.43474 0.08434 0.24441 0.0
H1574 H 0.448 0.06278 0.20553 0.0
H1575 H 0.4178 0.05542 0.23801 0.0
H1576 H 0.43667 0.12532 0.19758 0.0
H1577 H 0.48854 0.15628 0.20021 0.0
H1578 H 0.43605 0.1437 0.18079 0.0
H1579 H 0.487 0.17413 0.18338 0.0
H1580 H 0.38745 0.07955 0.22015 0.0
H1581 H 0.41429 0.0786 0.18647 0.0
H1582 H 0.51477 0.10531 0.22431 0.0
H1583 H 0.52059 0.13457 0.19035 0.0
Li1584 Li 0.67175 0.12196 0.21949 0.0
Li1585 Li 0.68541 0.12025 0.23867 0.0
Li1586 Li 0.70049 0.13662 0.2196 0.0
Li1587 Li 0.68661 0.1073 0.21834 0.0
C1588 C 0.67673 0.14691 0.23292 0.0
N1589 N 0.65713 0.16057 0.23516 0.0
C1590 C 0.66453 0.14126 0.24235 0.0
C1591 C 0.67907 0.15962 0.22471 0.0
C1592 C 0.65472 0.1483 0.24331 0.0
C1593 C 0.66901 0.16634 0.22598 0.0
C1594 C 0.66248 0.08777 0.23571 0.0
C1595 C 0.66891 0.07039 0.24843 0.0
N1596 N 0.65292 0.0588 0.2485 0.0
C1597 C 0.64613 0.07567 0.23589 0.0
C1598 C 0.67399 0.08511 0.24201 0.0
C1599 C 0.64153 0.06112 0.24242 0.0
C1600 C 0.65204 0.12943 0.20321 0.0
N1601 N 0.65246 0.12139 0.21399 0.0
C1602 C 0.62436 0.11154 0.21805 0.0
C1603 C 0.63902 0.11251 0.22137 0.0
C1604 C 0.62354 0.11979 0.20701 0.0
C1605 C 0.63762 0.12885 0.19954 0.0
H1606 H 0.66287 0.13633 0.19748 0.0
H1607 H 0.63977 0.10633 0.22995 0.0
C1608 C 0.69993 0.12815 0.26311 0.0
N1609 N 0.68536 0.11953 0.25707 0.0
C1610 C 0.70087 0.12849 0.27664 0.0
C1611 C 0.67167 0.11134 0.2775 0.0
C1612 C 0.67134 0.11119 0.26392 0.0
C1613 C 0.6866 0.12011 0.28406 0.0
H1614 H 0.71083 0.13489 0.25738 0.0
H1615 H 0.65987 0.10463 0.25884 0.0
C1616 C 0.69332 0.13022 0.19415 0.0
N1617 N 0.70813 0.14597 0.1713 0.0
C1618 C 0.69853 0.12278 0.18514 0.0
C1619 C 0.69548 0.1456 0.19145 0.0
C1620 C 0.70604 0.13096 0.17366 0.0
C1621 C 0.70304 0.15338 0.17987 0.0
C1622 C 0.71976 0.1235 0.22695 0.0
C1623 C 0.72331 0.1216 0.21411 0.0
C1624 C 0.73159 0.12758 0.23656 0.0
C1625 C 0.73863 0.12389 0.21106 0.0
C1626 C 0.74678 0.12979 0.23313 0.0
N1627 N 0.74996 0.12792 0.22055 0.0
C1628 C 0.72271 0.16896 0.22381 0.0
C1629 C 0.73041 0.15853 0.20597 0.0
C1630 C 0.73693 0.1839 0.22271 0.0
N1631 N 0.71974 0.15662 0.21557 0.0
C1632 C 0.74488 0.17332 0.20454 0.0
C1633 C 0.74839 0.18615 0.21313 0.0
H1634 H 0.71416 0.16712 0.23145 0.0
H1635 H 0.7279 0.14854 0.19955 0.0
C1636 C 0.67463 0.08101 0.20157 0.0
N1637 N 0.68571 0.08856 0.21117 0.0
C1638 C 0.67386 0.06778 0.19505 0.0
C1639 C 0.69549 0.06998 0.20881 0.0
C1640 C 0.69564 0.08299 0.21521 0.0
C1641 C 0.68477 0.06242 0.19835 0.0
H1642 H 0.66666 0.08555 0.19879 0.0
H1643 H 0.70403 0.08894 0.22313 0.0
O1644 O 0.68611 0.13983 0.23156 0.0
O1645 O 0.66711 0.10204 0.22929 0.0
O1646 O 0.6859 0.12235 0.20542 0.0
O1647 O 0.70485 0.12142 0.23013 0.0
H1648 H 0.66251 0.13138 0.24873 0.0
H1649 H 0.68852 0.1642 0.2174 0.0
H1650 H 0.64515 0.14395 0.2505 0.0
H1651 H 0.67062 0.17612 0.21964 0.0
H1652 H 0.67768 0.06819 0.25335 0.0
H1653 H 0.63708 0.07751 0.23103 0.0
H1654 H 0.6867 0.09428 0.24199 0.0
H1655 H 0.62891 0.05166 0.24264 0.0
H1656 H 0.61386 0.10467 0.22421 0.0
H1657 H 0.63747 0.1353 0.19091 0.0
H1658 H 0.71268 0.13523 0.28121 0.0
H1659 H 0.66032 0.10493 0.28277 0.0
H1660 H 0.69681 0.11082 0.18698 0.0
H1661 H 0.69164 0.15159 0.19833 0.0
H1662 H 0.71019 0.12537 0.16664 0.0
H1663 H 0.70492 0.16534 0.17773 0.0
H1664 H 0.71432 0.1184 0.20657 0.0
H1665 H 0.72908 0.12901 0.24657 0.0
H1666 H 0.7415 0.12248 0.20114 0.0
H1667 H 0.75604 0.13297 0.24047 0.0
H1668 H 0.739 0.19353 0.22942 0.0
H1669 H 0.75344 0.17449 0.19707 0.0
H1670 H 0.6651 0.06212 0.18729 0.0
H1671 H 0.70424 0.06644 0.21168 0.0
Li1672 Li 0.93054 0.59483 0.23893 0.0
Li1673 Li 0.92419 0.57509 0.22212 0.0
Li1674 Li 0.94007 0.60343 0.21737 0.0
Li1675 Li 0.91166 0.59153 0.222 0.0
C1676 C 0.96147 0.60031 0.2335 0.0
N1677 N 0.99278 0.61964 0.24257 0.0
C1678 C 0.97239 0.59453 0.23345 0.0
C1679 C 0.96646 0.61592 0.23817 0.0
C1680 C 0.98817 0.60449 0.23807 0.0
C1681 C 0.98234 0.62551 0.24271 0.0
C1682 C 0.90574 0.56393 0.24476 0.0
C1683 C 0.88734 0.54479 0.26053 0.0
N1684 N 0.89882 0.54088 0.26382 0.0
C1685 C 0.91734 0.55969 0.24829 0.0
C1686 C 0.89061 0.55641 0.25091 0.0
C1687 C 0.91361 0.54802 0.25795 0.0
C1688 C 0.92875 0.60811 0.26262 0.0
N1689 N 0.93482 0.59939 0.25691 0.0
C1690 C 0.94517 0.59638 0.27723 0.0
C1691 C 0.94308 0.59369 0.26385 0.0
C1692 C 0.93877 0.6051 0.28349 0.0
C1693 C 0.93066 0.61119 0.27595 0.0
H1694 H 0.92223 0.61247 0.25682 0.0
H1695 H 0.94779 0.58677 0.25906 0.0
C1696 C 0.93521 0.55539 0.21208 0.0
N1697 N 0.92199 0.55482 0.21764 0.0
C1698 C 0.93512 0.54106 0.20904 0.0
C1699 C 0.9076 0.52585 0.21717 0.0
C1700 C 0.9082 0.54049 0.21999 0.0
C1701 C 0.92129 0.52602 0.21181 0.0
H1702 H 0.94592 0.56702 0.2102 0.0
H1703 H 0.8978 0.54041 0.22432 0.0
C1704 C 0.9291 0.62495 0.22322 0.0
N1705 N 0.92811 0.65066 0.21161 0.0
C1706 C 0.92736 0.62525 0.20974 0.0
C1707 C 0.93036 0.63774 0.23078 0.0
C1708 C 0.92689 0.63835 0.20406 0.0
C1709 C 0.92982 0.65063 0.22473 0.0
C1710 C 0.91005 0.57575 0.19888 0.0
C1711 C 0.9128 0.57699 0.18548 0.0
C1712 C 0.8953 0.56339 0.20379 0.0
C1713 C 0.90075 0.5658 0.17719 0.0
C1714 C 0.88355 0.55244 0.19518 0.0
N1715 N 0.88649 0.55386 0.18217 0.0
C1716 C 0.96018 0.61207 0.19588 0.0
C1717 C 0.96612 0.63438 0.20966 0.0
C1718 C 0.97155 0.62236 0.1868 0.0
N1719 N 0.95741 0.61827 0.20684 0.0
C1720 C 0.97759 0.64513 0.20083 0.0
C1721 C 0.98007 0.63919 0.18905 0.0
H1722 H 0.95315 0.59915 0.19402 0.0
H1723 H 0.96369 0.63896 0.2185 0.0
C1724 C 0.88187 0.58791 0.22893 0.0
N1725 N 0.8921 0.59167 0.21866 0.0
C1726 C 0.86685 0.58694 0.22738 0.0
C1727 C 0.87333 0.59418 0.20475 0.0
C1728 C 0.88821 0.59489 0.20672 0.0
C1729 C 0.86237 0.58999 0.21514 0.0
H1730 H 0.88538 0.58556 0.23832 0.0
H1731 H 0.89656 0.59779 0.19869 0.0
O1732 O 0.94599 0.59061 0.229 0.0
O1733 O 0.90903 0.57533 0.23533 0.0
O1734 O 0.92962 0.6123 0.22909 0.0
O1735 O 0.92179 0.58669 0.20705 0.0
H1736 H 0.9687 0.58245 0.22988 0.0
H1737 H 0.95819 0.62062 0.23835 0.0
H1738 H 0.99676 0.60016 0.23809 0.0
H1739 H 0.98636 0.63761 0.24635 0.0
H1740 H 0.87568 0.53888 0.26537 0.0
H1741 H 0.92908 0.56527 0.24361 0.0
H1742 H 0.88146 0.55949 0.24827 0.0
H1743 H 0.92249 0.54463 0.26077 0.0
H1744 H 0.95131 0.59125 0.28264 0.0
H1745 H 0.92575 0.6182 0.2803 0.0
H1746 H 0.94584 0.54177 0.2047 0.0
H1747 H 0.89675 0.51455 0.21959 0.0
H1748 H 0.92646 0.61555 0.20368 0.0
H1749 H 0.93174 0.63771 0.24123 0.0
H1750 H 0.92556 0.63874 0.19364 0.0
H1751 H 0.93078 0.6606 0.23048 0.0
H1752 H 0.92415 0.58651 0.18152 0.0
H1753 H 0.89288 0.56225 0.21411 0.0
H1754 H 0.90272 0.56662 0.16679 0.0
H1755 H 0.87208 0.54283 0.19885 0.0
H1756 H 0.97325 0.61728 0.17791 0.0
H1757 H 0.98373 0.65803 0.20289 0.0
H1758 H 0.85886 0.58393 0.23569 0.0
H1759 H 0.87027 0.59653 0.19515 0.0
Li1760 Li 0.4743 0.37222 0.2245 0.0
Li1761 Li 0.45193 0.3572 0.24068 0.0
Li1762 Li 0.46051 0.34329 0.22429 0.0
Li1763 Li 0.44675 0.35697 0.21754 0.0
C1764 C 0.48785 0.36717 0.2449 0.0
N1765 N 0.51749 0.38712 0.25661 0.0
C1766 C 0.48853 0.37405 0.25705 0.0
C1767 C 0.50228 0.37035 0.23875 0.0
C1768 C 0.50363 0.38411 0.26281 0.0
C1769 C 0.51713 0.3805 0.24481 0.0
C1770 C 0.45014 0.385 0.22515 0.0
C1771 C 0.42937 0.3925 0.22523 0.0
N1772 N 0.43696 0.40285 0.21516 0.0
C1773 C 0.45778 0.39575 0.21485 0.0
C1774 C 0.43585 0.38337 0.23042 0.0
C1775 C 0.45091 0.40465 0.20992 0.0
C1776 C 0.50233 0.39446 0.21064 0.0
N1777 N 0.49392 0.39192 0.2219 0.0
C1778 C 0.51335 0.41821 0.22973 0.0
C1779 C 0.49897 0.40348 0.2313 0.0
C1780 C 0.52247 0.4211 0.21829 0.0
C1781 C 0.51677 0.40903 0.20864 0.0
H1782 H 0.49774 0.38526 0.20317 0.0
H1783 H 0.49184 0.40118 0.24005 0.0
C1784 C 0.44146 0.34324 0.26507 0.0
N1785 N 0.44515 0.3567 0.25799 0.0
C1786 C 0.43768 0.34257 0.27823 0.0
C1787 C 0.44133 0.36958 0.27651 0.0
C1788 C 0.44507 0.36972 0.26335 0.0
C1789 C 0.43777 0.35594 0.28417 0.0
H1790 H 0.44185 0.33317 0.26052 0.0
H1791 H 0.4483 0.38036 0.2575 0.0
C1792 C 0.46885 0.34885 0.20064 0.0
N1793 N 0.47442 0.32927 0.18404 0.0
C1794 C 0.4564 0.33761 0.19264 0.0
C1795 C 0.48415 0.35014 0.20017 0.0
C1796 C 0.45945 0.32783 0.18432 0.0
C1797 C 0.48672 0.34012 0.19172 0.0
C1798 C 0.4218 0.32979 0.22761 0.0
C1799 C 0.41525 0.3208 0.21623 0.0
C1800 C 0.41142 0.33023 0.23704 0.0
C1801 C 0.39843 0.31247 0.21444 0.0
C1802 C 0.39467 0.32171 0.23489 0.0
N1803 N 0.38857 0.3131 0.22372 0.0
C1804 C 0.47718 0.32571 0.2264 0.0
C1805 C 0.45111 0.31094 0.21681 0.0
C1806 C 0.47956 0.31244 0.22506 0.0
N1807 N 0.46316 0.32475 0.22226 0.0
C1808 C 0.45294 0.29735 0.2153 0.0
C1809 C 0.4673 0.29797 0.2195 0.0
H1810 H 0.48654 0.33678 0.23076 0.0
H1811 H 0.44004 0.31043 0.21367 0.0
C1812 C 0.43859 0.36276 0.19287 0.0
N1813 N 0.43243 0.35807 0.20503 0.0
C1814 C 0.42884 0.36293 0.18283 0.0
C1815 C 0.4069 0.35466 0.19823 0.0
C1816 C 0.41713 0.35475 0.20798 0.0
C1817 C 0.4126 0.35833 0.18538 0.0
H1818 H 0.45104 0.36608 0.19088 0.0
H1819 H 0.41272 0.35182 0.21784 0.0
O1820 O 0.47318 0.35745 0.23902 0.0
O1821 O 0.45648 0.37593 0.2299 0.0
O1822 O 0.46597 0.35823 0.20912 0.0
O1823 O 0.43823 0.33792 0.22963 0.0
H1824 H 0.47755 0.37173 0.262 0.0
H1825 H 0.50204 0.36533 0.22926 0.0
H1826 H 0.50432 0.38955 0.2722 0.0
H1827 H 0.52837 0.38319 0.24009 0.0
H1828 H 0.41827 0.3913 0.22915 0.0
H1829 H 0.4688 0.39707 0.21061 0.0
H1830 H 0.4297 0.37497 0.23831 0.0
H1831 H 0.45663 0.41295 0.2019 0.0
H1832 H 0.51737 0.42713 0.23745 0.0
H1833 H 0.52328 0.4109 0.19958 0.0
H1834 H 0.43533 0.33194 0.28379 0.0
H1835 H 0.44142 0.38009 0.28065 0.0
H1836 H 0.44443 0.33628 0.19296 0.0
H1837 H 0.49388 0.35857 0.20641 0.0
H1838 H 0.4499 0.31904 0.17812 0.0
H1839 H 0.49847 0.34092 0.19133 0.0
H1840 H 0.42305 0.32048 0.20875 0.0
H1841 H 0.41622 0.33713 0.24589 0.0
H1842 H 0.39322 0.30558 0.20563 0.0
H1843 H 0.38651 0.32199 0.24208 0.0
H1844 H 0.4909 0.31354 0.22831 0.0
H1845 H 0.44307 0.28638 0.21114 0.0
H1846 H 0.43386 0.36627 0.17313 0.0
H1847 H 0.39446 0.35105 0.20066 0.0
Li1848 Li 0.47169 0.36899 0.44163 0.0
Li1849 Li 0.44209 0.35181 0.44696 0.0
Li1850 Li 0.4581 0.33956 0.44188 0.0
Li1851 Li 0.4502 0.35146 0.42516 0.0
C1852 C 0.46218 0.34621 0.46701 0.0
N1853 N 0.46362 0.32824 0.48753 0.0
C1854 C 0.44788 0.33371 0.47241 0.0
C1855 C 0.47721 0.3496 0.47205 0.0
C1856 C 0.44887 0.32476 0.48278 0.0
C1857 C 0.47768 0.34037 0.48242 0.0
C1858 C 0.44661 0.38007 0.43918 0.0
C1859 C 0.4245 0.3856 0.44061 0.0
N1860 N 0.43352 0.39819 0.44879 0.0
C1861 C 0.45569 0.39312 0.44755 0.0
C1862 C 0.43092 0.37633 0.4356 0.0
C1863 C 0.44885 0.40212 0.45231 0.0
C1864 C 0.49833 0.39762 0.43317 0.0
N1865 N 0.49134 0.3887 0.44402 0.0
C1866 C 0.51325 0.40791 0.45719 0.0
C1867 C 0.49832 0.39358 0.45592 0.0
C1868 C 0.52097 0.41726 0.44609 0.0
C1869 C 0.51321 0.412 0.43398 0.0
H1870 H 0.49239 0.39342 0.42386 0.0
H1871 H 0.49236 0.3863 0.46439 0.0
C1872 C 0.40983 0.34115 0.45575 0.0
N1873 N 0.42591 0.3513 0.45803 0.0
C1874 C 0.39822 0.34202 0.46349 0.0
C1875 C 0.41999 0.36313 0.47614 0.0
C1876 C 0.43114 0.36189 0.46814 0.0
C1877 C 0.40328 0.35328 0.47373 0.0
H1878 H 0.40599 0.33255 0.44785 0.0
H1879 H 0.44403 0.3697 0.46977 0.0
C1880 C 0.48225 0.34895 0.42418 0.0
N1881 N 0.50268 0.3376 0.41662 0.0
C1882 C 0.47591 0.33373 0.41826 0.0
C1883 C 0.49899 0.35843 0.4262 0.0
C1884 C 0.48643 0.32819 0.41454 0.0
C1885 C 0.50912 0.35247 0.42231 0.0
C1886 C 0.4249 0.32323 0.42664 0.0
C1887 C 0.42539 0.30997 0.42125 0.0
C1888 C 0.41361 0.32735 0.42196 0.0
C1889 C 0.41456 0.30105 0.4113 0.0
C1890 C 0.40302 0.31815 0.41198 0.0
N1891 N 0.40371 0.3053 0.4069 0.0
C1892 C 0.44888 0.30736 0.44874 0.0
C1893 C 0.47732 0.32538 0.44889 0.0
C1894 C 0.45109 0.29433 0.45189 0.0
N1895 N 0.46192 0.3224 0.44688 0.0
C1896 C 0.48011 0.3127 0.45194 0.0
C1897 C 0.46689 0.29687 0.45323 0.0
H1898 H 0.43674 0.30546 0.44765 0.0
H1899 H 0.48746 0.33759 0.44801 0.0
C1900 C 0.4417 0.36309 0.40298 0.0
N1901 N 0.44496 0.35147 0.40722 0.0
C1902 C 0.43842 0.36394 0.38986 0.0
C1903 C 0.44175 0.34074 0.38572 0.0
C1904 C 0.44509 0.34043 0.39889 0.0
C1905 C 0.43848 0.35269 0.38104 0.0
H1906 H 0.44187 0.37186 0.40975 0.0
H1907 H 0.44789 0.33143 0.40241 0.0
O1908 O 0.46145 0.35482 0.45664 0.0
O1909 O 0.45294 0.37084 0.43469 0.0
O1910 O 0.47218 0.3546 0.42797 0.0
O1911 O 0.43551 0.33224 0.43632 0.0
H1912 H 0.43616 0.3308 0.46853 0.0
H1913 H 0.48839 0.35908 0.46785 0.0
H1914 H 0.43792 0.315 0.48702 0.0
H1915 H 0.48922 0.34279 0.48638 0.0
H1916 H 0.41233 0.38275 0.43801 0.0
H1917 H 0.46781 0.39616 0.45046 0.0
H1918 H 0.42371 0.36627 0.42916 0.0
H1919 H 0.4557 0.41219 0.45886 0.0
H1920 H 0.51883 0.41145 0.4667 0.0
H1921 H 0.51853 0.41896 0.42522 0.0
H1922 H 0.38544 0.33406 0.46143 0.0
H1923 H 0.42443 0.37212 0.48382 0.0
H1924 H 0.46298 0.32609 0.41688 0.0
H1925 H 0.50411 0.37021 0.4308 0.0
H1926 H 0.48167 0.31637 0.41007 0.0
H1927 H 0.52209 0.35965 0.42385 0.0
H1928 H 0.43417 0.30671 0.42454 0.0
H1929 H 0.41323 0.33773 0.42581 0.0
H1930 H 0.41486 0.29081 0.40702 0.0
H1931 H 0.39432 0.32129 0.40822 0.0
H1932 H 0.44056 0.28231 0.45283 0.0
H1933 H 0.49247 0.31521 0.45319 0.0
H1934 H 0.43591 0.37331 0.38665 0.0
H1935 H 0.44219 0.33201 0.37922 0.0
Li1936 Li 0.6747 0.12464 0.44561 0.0
Li1937 Li 0.6941 0.11454 0.44678 0.0
Li1938 Li 0.70434 0.14322 0.44636 0.0
Li1939 Li 0.69173 0.12602 0.42701 0.0
C1940 C 0.68681 0.13458 0.47028 0.0
N1941 N 0.67883 0.14792 0.4909 0.0
C1942 C 0.68338 0.1271 0.48247 0.0
C1943 C 0.68604 0.14876 0.46856 0.0
C1944 C 0.67941 0.13405 0.49278 0.0
C1945 C 0.68203 0.15534 0.4791 0.0
C1946 C 0.6651 0.09686 0.42594 0.0
C1947 C 0.66188 0.08057 0.40697 0.0
N1948 N 0.64672 0.07833 0.40517 0.0
C1949 C 0.64946 0.09432 0.42394 0.0
C1950 C 0.67134 0.08984 0.41744 0.0
C1951 C 0.64037 0.08493 0.41338 0.0
C1952 C 0.64856 0.1299 0.44314 0.0
N1953 N 0.65444 0.12219 0.45058 0.0
C1954 C 0.63192 0.11283 0.46514 0.0
C1955 C 0.6464 0.11357 0.46132 0.0
C1956 C 0.6259 0.12118 0.45787 0.0
C1957 C 0.63431 0.12965 0.44668 0.0
H1958 H 0.65502 0.13632 0.43449 0.0
H1959 H 0.65135 0.10748 0.46699 0.0
C1960 C 0.70064 0.09934 0.46734 0.0
N1961 N 0.69719 0.09814 0.45444 0.0
C1962 C 0.70087 0.08659 0.47384 0.0
C1963 C 0.69536 0.07219 0.45341 0.0
C1964 C 0.69494 0.0851 0.44737 0.0
C1965 C 0.69771 0.07252 0.46694 0.0
H1966 H 0.70258 0.10996 0.47267 0.0
H1967 H 0.69241 0.08453 0.4371 0.0
C1968 C 0.69171 0.15785 0.42888 0.0
N1969 N 0.69912 0.18736 0.41795 0.0
C1970 C 0.70149 0.16351 0.41778 0.0
C1971 C 0.68554 0.16716 0.4343 0.0
C1972 C 0.70516 0.17847 0.41244 0.0
C1973 C 0.68947 0.18206 0.42867 0.0
C1974 C 0.7234 0.12653 0.43857 0.0
C1975 C 0.73341 0.13292 0.44947 0.0
C1976 C 0.72462 0.11515 0.43076 0.0
C1977 C 0.74449 0.12779 0.45239 0.0
C1978 C 0.73586 0.11034 0.43401 0.0
N1979 N 0.74548 0.11671 0.44466 0.0
C1980 C 0.72554 0.16775 0.46466 0.0
C1981 C 0.72999 0.17453 0.44231 0.0
C1982 C 0.73822 0.18316 0.46809 0.0
N1983 N 0.72145 0.16391 0.45194 0.0
C1984 C 0.74256 0.19005 0.44527 0.0
C1985 C 0.74672 0.19458 0.4583 0.0
H1986 H 0.71914 0.15886 0.47217 0.0
H1987 H 0.72726 0.17085 0.43229 0.0
C1988 C 0.67842 0.12394 0.40224 0.0
N1989 N 0.69167 0.1254 0.40853 0.0
C1990 C 0.67754 0.12298 0.38871 0.0
C1991 C 0.70433 0.12594 0.38834 0.0
C1992 C 0.70459 0.12659 0.40191 0.0
C1993 C 0.6906 0.12395 0.38161 0.0
H1994 H 0.66849 0.12341 0.40776 0.0
H1995 H 0.71511 0.12812 0.40715 0.0
O1996 O 0.6902 0.12764 0.45998 0.0
O1997 O 0.67424 0.10615 0.43616 0.0
O1998 O 0.68774 0.14305 0.43413 0.0
O1999 O 0.7122 0.13111 0.43576 0.0
H2000 H 0.68363 0.11596 0.48395 0.0
H2001 H 0.68865 0.15467 0.45922 0.0
H2002 H 0.67673 0.12839 0.50227 0.0
H2003 H 0.68147 0.16635 0.47789 0.0
H2004 H 0.66663 0.07524 0.40024 0.0
H2005 H 0.64439 0.09957 0.43045 0.0
H2006 H 0.68351 0.0919 0.41869 0.0
H2007 H 0.62827 0.08292 0.41169 0.0
H2008 H 0.62572 0.10614 0.47381 0.0
H2009 H 0.62985 0.13597 0.4407 0.0
H2010 H 0.70258 0.08743 0.48427 0.0
H2011 H 0.69327 0.06181 0.44761 0.0
H2012 H 0.70651 0.15662 0.41347 0.0
H2013 H 0.67772 0.16294 0.44273 0.0
H2014 H 0.71283 0.18303 0.40393 0.0
H2015 H 0.6848 0.18937 0.4328 0.0
H2016 H 0.73251 0.14161 0.45569 0.0
H2017 H 0.71679 0.10988 0.42241 0.0
H2018 H 0.75228 0.13259 0.46082 0.0
H2019 H 0.73688 0.10148 0.42809 0.0
H2020 H 0.74128 0.18612 0.47825 0.0
H2021 H 0.74924 0.1983 0.43741 0.0
H2022 H 0.66687 0.12171 0.38384 0.0
H2023 H 0.71465 0.12675 0.38318 0.0
Li2024 Li 0.93319 0.59916 0.44711 0.0
Li2025 Li 0.91785 0.57107 0.44072 0.0
Li2026 Li 0.92514 0.59252 0.42452 0.0
Li2027 Li 0.90467 0.58641 0.44087 0.0
C2028 C 0.95558 0.59767 0.43098 0.0
N2029 N 0.98731 0.6179 0.42326 0.0
C2030 C 0.96631 0.5917 0.43005 0.0
C2031 C 0.96098 0.61394 0.428 0.0
C2032 C 0.98231 0.60212 0.42612 0.0
C2033 C 0.97707 0.62397 0.42411 0.0
C2034 C 0.90957 0.56939 0.46515 0.0
C2035 C 0.89049 0.54259 0.47308 0.0
N2036 N 0.90078 0.54464 0.48302 0.0
C2037 C 0.91984 0.5713 0.47555 0.0
C2038 C 0.89467 0.555 0.46402 0.0
C2039 C 0.91522 0.55862 0.48444 0.0
C2040 C 0.95536 0.62957 0.45999 0.0
N2041 N 0.95044 0.61357 0.45819 0.0
C2042 C 0.97024 0.61519 0.47329 0.0
C2043 C 0.95793 0.60647 0.46432 0.0
C2044 C 0.97505 0.6315 0.47585 0.0
C2045 C 0.96769 0.6388 0.46888 0.0
H2046 H 0.94977 0.63523 0.45464 0.0
H2047 H 0.95418 0.59391 0.46232 0.0
C2048 C 0.90335 0.53715 0.43781 0.0
N2049 N 0.91602 0.55048 0.44326 0.0
C2050 C 0.90226 0.52201 0.43892 0.0
C2051 C 0.92719 0.53458 0.45135 0.0
C2052 C 0.92777 0.5495 0.45003 0.0
C2053 C 0.91441 0.52062 0.44559 0.0
H2054 H 0.89423 0.53831 0.43243 0.0
H2055 H 0.93776 0.56037 0.45418 0.0
C2056 C 0.92136 0.62029 0.44159 0.0
N2057 N 0.91823 0.64448 0.45384 0.0
C2058 C 0.91583 0.61825 0.45444 0.0
C2059 C 0.92529 0.63465 0.43499 0.0
C2060 C 0.91433 0.63061 0.46045 0.0
C2061 C 0.92364 0.64674 0.44136 0.0
C2062 C 0.88943 0.56688 0.421 0.0
C2063 C 0.88833 0.57382 0.40932 0.0
C2064 C 0.87525 0.55476 0.42686 0.0
C2065 C 0.87308 0.56874 0.40386 0.0
C2066 C 0.86022 0.55004 0.42111 0.0
N2067 N 0.85945 0.55709 0.40983 0.0
C2068 C 0.93632 0.58992 0.39988 0.0
C2069 C 0.92991 0.61095 0.40183 0.0
C2070 C 0.9395 0.59313 0.38664 0.0
N2071 N 0.93141 0.59866 0.40708 0.0
C2072 C 0.93287 0.61452 0.38862 0.0
C2073 C 0.93746 0.60536 0.3808 0.0
H2074 H 0.93729 0.58015 0.40436 0.0
H2075 H 0.92583 0.61756 0.4078 0.0
C2076 C 0.87649 0.58089 0.45496 0.0
N2077 N 0.88507 0.58657 0.44375 0.0
C2078 C 0.86233 0.58163 0.45687 0.0
C2079 C 0.86621 0.59404 0.43567 0.0
C2080 C 0.88036 0.59326 0.43426 0.0
C2081 C 0.85698 0.58823 0.44711 0.0
H2082 H 0.88077 0.57603 0.46249 0.0
H2083 H 0.88765 0.598 0.42558 0.0
O2084 O 0.93991 0.58758 0.43487 0.0
O2085 O 0.91399 0.58155 0.45619 0.0
O2086 O 0.92268 0.60827 0.43535 0.0
O2087 O 0.90428 0.57186 0.42659 0.0
H2088 H 0.9623 0.57914 0.43236 0.0
H2089 H 0.95289 0.61882 0.4287 0.0
H2090 H 0.99075 0.59766 0.42535 0.0
H2091 H 0.98142 0.63658 0.42177 0.0
H2092 H 0.87906 0.53134 0.47222 0.0
H2093 H 0.93119 0.58247 0.47684 0.0
H2094 H 0.88649 0.55338 0.45615 0.0
H2095 H 0.92311 0.55993 0.4925 0.0
H2096 H 0.97594 0.60923 0.47815 0.0
H2097 H 0.97117 0.65139 0.47049 0.0
H2098 H 0.89206 0.51154 0.43449 0.0
H2099 H 0.9369 0.53411 0.45646 0.0
H2100 H 0.91276 0.60729 0.45976 0.0
H2101 H 0.9296 0.63648 0.42507 0.0
H2102 H 0.91006 0.62917 0.47037 0.0
H2103 H 0.92665 0.65791 0.43636 0.0
H2104 H 0.89909 0.58309 0.40455 0.0
H2105 H 0.87578 0.54911 0.4358 0.0
H2106 H 0.87208 0.5741 0.39488 0.0
H2107 H 0.84916 0.54078 0.42562 0.0
H2108 H 0.94282 0.58566 0.38094 0.0
H2109 H 0.93129 0.62413 0.38451 0.0
H2110 H 0.85581 0.5773 0.46595 0.0
H2111 H 0.86249 0.59901 0.42779 0.0
Li2112 Li 0.36103 0.93597 0.77873 0.0
Li2113 Li 0.37273 0.91875 0.77713 0.0
Li2114 Li 0.35925 0.92355 0.75865 0.0
Li2115 Li 0.3432 0.90648 0.7765 0.0
C2116 C 0.38976 0.95572 0.76871 0.0
N2117 N 0.41001 0.98886 0.77156 0.0
C2118 C 0.40457 0.96178 0.77523 0.0
C2119 C 0.38545 0.96656 0.76337 0.0
C2120 C 0.41459 0.97856 0.77664 0.0
C2121 C 0.39578 0.98326 0.765 0.0
C2122 C 0.35686 0.90799 0.80057 0.0
C2123 C 0.35326 0.88206 0.80725 0.0
N2124 N 0.35399 0.88654 0.81991 0.0
C2125 C 0.35761 0.91234 0.81363 0.0
C2126 C 0.3547 0.89273 0.79733 0.0
C2127 C 0.35612 0.90132 0.82327 0.0
C2128 C 0.35293 0.95994 0.78436 0.0
N2129 N 0.36313 0.95437 0.78754 0.0
C2130 C 0.37475 0.97377 0.80472 0.0
C2131 C 0.37406 0.96108 0.79737 0.0
C2132 C 0.36401 0.97947 0.80191 0.0
C2133 C 0.3532 0.97258 0.79141 0.0
H2134 H 0.34421 0.95421 0.77662 0.0
H2135 H 0.38196 0.95629 0.79969 0.0
C2136 C 0.39262 0.90383 0.77961 0.0
N2137 N 0.38978 0.91574 0.78383 0.0
C2138 C 0.40578 0.90279 0.78443 0.0
C2139 C 0.41224 0.92559 0.79851 0.0
C2140 C 0.39891 0.92614 0.79343 0.0
C2141 C 0.41601 0.914 0.7938 0.0
H2142 H 0.38484 0.89518 0.77242 0.0
H2143 H 0.39598 0.93508 0.79698 0.0
C2144 C 0.33183 0.92424 0.75801 0.0
N2145 N 0.31319 0.92413 0.7373 0.0
C2146 C 0.31745 0.91008 0.75473 0.0
C2147 C 0.33653 0.93844 0.75087 0.0
C2148 C 0.30824 0.91025 0.74421 0.0
C2149 C 0.32702 0.93811 0.7404 0.0
C2150 C 0.3643 0.89716 0.7559 0.0
C2151 C 0.37889 0.90829 0.7499 0.0
C2152 C 0.35722 0.88063 0.753 0.0
C2153 C 0.38616 0.90266 0.74112 0.0
C2154 C 0.36489 0.87549 0.74417 0.0
N2155 N 0.37907 0.88652 0.73845 0.0
C2156 C 0.36967 0.93845 0.73364 0.0
C2157 C 0.34685 0.91185 0.73395 0.0
C2158 C 0.36877 0.93906 0.72011 0.0
N2159 N 0.35873 0.92501 0.74023 0.0
C2160 C 0.34543 0.91195 0.72048 0.0
C2161 C 0.3565 0.92567 0.71335 0.0
H2162 H 0.37915 0.94866 0.73887 0.0
H2163 H 0.33838 0.90128 0.73947 0.0
C2164 C 0.31535 0.88724 0.79224 0.0
N2165 N 0.32326 0.88789 0.78105 0.0
C2166 C 0.30011 0.87377 0.79487 0.0
C2167 C 0.30164 0.86199 0.77444 0.0
C2168 C 0.31689 0.87552 0.77231 0.0
C2169 C 0.29299 0.86111 0.78575 0.0
H2170 H 0.32073 0.89732 0.79899 0.0
H2171 H 0.32344 0.87647 0.76346 0.0
O2172 O 0.37966 0.9393 0.76739 0.0
O2173 O 0.35842 0.91874 0.79106 0.0
O2174 O 0.34117 0.92422 0.76816 0.0
O2175 O 0.35677 0.90235 0.76441 0.0
H2176 H 0.40841 0.95367 0.77906 0.0
H2177 H 0.37419 0.96215 0.75814 0.0
H2178 H 0.42605 0.98338 0.78172 0.0
H2179 H 0.39248 0.99175 0.76103 0.0
H2180 H 0.35157 0.87023 0.80489 0.0
H2181 H 0.35934 0.92413 0.81628 0.0
H2182 H 0.35415 0.88915 0.78729 0.0
H2183 H 0.35666 0.90453 0.83342 0.0
H2184 H 0.38332 0.97879 0.81267 0.0
H2185 H 0.34446 0.97633 0.78906 0.0
H2186 H 0.40822 0.89365 0.78052 0.0
H2187 H 0.41961 0.93425 0.80592 0.0
H2188 H 0.31341 0.89905 0.76021 0.0
H2189 H 0.34746 0.94958 0.75331 0.0
H2190 H 0.29715 0.89932 0.74154 0.0
H2191 H 0.33063 0.94898 0.73474 0.0
H2192 H 0.3846 0.92112 0.75199 0.0
H2193 H 0.34595 0.87185 0.75756 0.0
H2194 H 0.39745 0.91113 0.73641 0.0
H2195 H 0.35955 0.86273 0.74185 0.0
H2196 H 0.37772 0.94978 0.715 0.0
H2197 H 0.33566 0.90144 0.71572 0.0
H2198 H 0.29374 0.87351 0.80367 0.0
H2199 H 0.29658 0.85238 0.76724 0.0
Li2200 Li 0.11186 0.449 0.78329 0.0
Li2201 Li 0.12749 0.47776 0.78099 0.0
Li2202 Li 0.12305 0.45931 0.76182 0.0
Li2203 Li 0.14098 0.46234 0.77996 0.0
C2204 C 0.09059 0.45454 0.77135 0.0
N2205 N 0.05705 0.43708 0.77128 0.0
C2206 C 0.08178 0.45982 0.77875 0.0
C2207 C 0.08236 0.44046 0.76384 0.0
C2208 C 0.06483 0.45081 0.7786 0.0
C2209 C 0.06539 0.43178 0.76395 0.0
C2210 C 0.13418 0.4741 0.80575 0.0
C2211 C 0.15341 0.49903 0.81639 0.0
N2212 N 0.14402 0.49425 0.82726 0.0
C2213 C 0.12482 0.46935 0.81708 0.0
C2214 C 0.14868 0.48898 0.80545 0.0
C2215 C 0.12996 0.47973 0.82784 0.0
C2216 C 0.08692 0.41649 0.78799 0.0
N2217 N 0.09319 0.43222 0.7917 0.0
C2218 C 0.07329 0.42451 0.80845 0.0
C2219 C 0.08635 0.43646 0.80141 0.0
C2220 C 0.06725 0.40805 0.80545 0.0
C2221 C 0.07398 0.40414 0.79483 0.0
H2222 H 0.0922 0.41348 0.77993 0.0
H2223 H 0.09117 0.44913 0.80377 0.0
C2224 C 0.14001 0.51141 0.77978 0.0
N2225 N 0.12915 0.49764 0.78604 0.0
C2226 C 0.1417 0.52633 0.78332 0.0
C2227 C 0.12095 0.51257 0.79968 0.0
C2228 C 0.11966 0.49791 0.7958 0.0
C2229 C 0.13207 0.52704 0.79338 0.0
H2230 H 0.14727 0.51077 0.77196 0.0
H2231 H 0.11113 0.48672 0.8006 0.0
C2232 C 0.12553 0.42928 0.77605 0.0
N2233 N 0.12936 0.40406 0.78517 0.0
C2234 C 0.12599 0.4269 0.78943 0.0
C2235 C 0.12717 0.41892 0.76733 0.0
C2236 C 0.12788 0.41404 0.79384 0.0
C2237 C 0.12906 0.40622 0.77213 0.0
C2238 C 0.1587 0.48597 0.76278 0.0
C2239 C 0.16177 0.47974 0.7515 0.0
C2240 C 0.1716 0.49898 0.76923 0.0
C2241 C 0.17771 0.48642 0.747 0.0
C2242 C 0.18737 0.5053 0.76443 0.0
N2243 N 0.19007 0.49894 0.75352 0.0
C2244 C 0.12332 0.46942 0.73618 0.0
C2245 C 0.11437 0.44137 0.73852 0.0
C2246 C 0.12203 0.46783 0.72268 0.0
N2247 N 0.11968 0.45633 0.74373 0.0
C2248 C 0.11287 0.43921 0.72507 0.0
C2249 C 0.11689 0.45259 0.71695 0.0
H2250 H 0.12762 0.48118 0.74064 0.0
H2251 H 0.11148 0.43118 0.74482 0.0
C2252 C 0.16811 0.46663 0.79528 0.0
N2253 N 0.16052 0.4621 0.78355 0.0
C2254 C 0.18314 0.46759 0.79709 0.0
C2255 C 0.18193 0.45871 0.77489 0.0
C2256 C 0.16684 0.45762 0.77359 0.0
C2257 C 0.19036 0.46398 0.78669 0.0
H2258 H 0.16266 0.4697 0.80316 0.0
H2259 H 0.16028 0.45353 0.76452 0.0
O2260 O 0.10718 0.46295 0.77161 0.0
O2261 O 0.1292 0.46421 0.79504 0.0
O2262 O 0.12401 0.44197 0.77148 0.0
O2263 O 0.14317 0.47944 0.76743 0.0
H2264 H 0.08798 0.47069 0.78462 0.0
H2265 H 0.08901 0.43615 0.75813 0.0
H2266 H 0.05785 0.4547 0.78433 0.0
H2267 H 0.05886 0.4208 0.75826 0.0
H2268 H 0.16455 0.51064 0.81623 0.0
H2269 H 0.11376 0.45773 0.81764 0.0
H2270 H 0.15613 0.49275 0.79683 0.0
H2271 H 0.1228 0.47622 0.83665 0.0
H2272 H 0.06822 0.42812 0.81634 0.0
H2273 H 0.06984 0.39166 0.79217 0.0
H2274 H 0.15018 0.53712 0.77802 0.0
H2275 H 0.11338 0.5126 0.80754 0.0
H2276 H 0.12489 0.43485 0.79635 0.0
H2277 H 0.12707 0.42073 0.75695 0.0
H2278 H 0.12821 0.41203 0.80416 0.0
H2279 H 0.13033 0.3981 0.76548 0.0
H2280 H 0.15202 0.46961 0.74641 0.0
H2281 H 0.1695 0.50419 0.77783 0.0
H2282 H 0.18025 0.48159 0.73836 0.0
H2283 H 0.19745 0.5153 0.76938 0.0
H2284 H 0.12548 0.47852 0.7168 0.0
H2285 H 0.10864 0.42721 0.72108 0.0
H2286 H 0.18928 0.47159 0.80637 0.0
H2287 H 0.18701 0.45552 0.76674 0.0
Li2288 Li 0.60052 0.69177 0.78278 0.0
Li2289 Li 0.57235 0.6751 0.77957 0.0
Li2290 Li 0.58929 0.69131 0.76193 0.0
Li2291 Li 0.58312 0.70462 0.78014 0.0
C2292 C 0.60019 0.66727 0.77216 0.0
N2293 N 0.62197 0.65632 0.77563 0.0
C2294 C 0.59694 0.655 0.78119 0.0
C2295 C 0.61454 0.67394 0.76491 0.0
C2296 C 0.60808 0.64962 0.78278 0.0
C2297 C 0.62539 0.66826 0.76681 0.0
C2298 C 0.57219 0.68257 0.80419 0.0
C2299 C 0.55197 0.68101 0.81921 0.0
N2300 N 0.54998 0.66674 0.82386 0.0
C2301 C 0.57003 0.66794 0.80919 0.0
C2302 C 0.56315 0.68921 0.80928 0.0
C2303 C 0.55871 0.66009 0.8191 0.0
C2304 C 0.63396 0.70654 0.78899 0.0
N2305 N 0.61892 0.69418 0.79207 0.0
C2306 C 0.62993 0.68502 0.80874 0.0
C2307 C 0.61668 0.68361 0.80181 0.0
C2308 C 0.64563 0.69769 0.80581 0.0
C2309 C 0.64755 0.70853 0.79576 0.0
H2310 H 0.63539 0.71505 0.78145 0.0
H2311 H 0.60461 0.67402 0.80418 0.0
C2312 C 0.55322 0.64129 0.77843 0.0
N2313 N 0.55319 0.65479 0.78269 0.0
C2314 C 0.53931 0.62611 0.77942 0.0
C2315 C 0.52528 0.63897 0.78884 0.0
C2316 C 0.53958 0.65395 0.78775 0.0
C2317 C 0.525 0.62479 0.78453 0.0
H2318 H 0.56389 0.64234 0.77382 0.0
H2319 H 0.53971 0.66496 0.79062 0.0
C2320 C 0.61344 0.72163 0.76236 0.0
N2321 N 0.63078 0.74283 0.74245 0.0
C2322 C 0.60978 0.73352 0.75843 0.0
C2323 C 0.62597 0.72058 0.75615 0.0
C2324 C 0.61868 0.74412 0.74836 0.0
C2325 C 0.63456 0.73138 0.7461 0.0
C2326 C 0.55469 0.67862 0.76018 0.0
C2327 C 0.55453 0.66604 0.75301 0.0
C2328 C 0.54081 0.68013 0.76047 0.0
C2329 C 0.54052 0.65524 0.74621 0.0
C2330 C 0.52702 0.66907 0.75355 0.0
N2331 N 0.52716 0.65695 0.74662 0.0
C2332 C 0.59413 0.68079 0.73733 0.0
C2333 C 0.58951 0.70308 0.73665 0.0
C2334 C 0.59478 0.68053 0.72378 0.0
N2335 N 0.59165 0.69204 0.74347 0.0
C2336 C 0.59038 0.70346 0.72311 0.0
C2337 C 0.59292 0.69199 0.71653 0.0
H2338 H 0.59509 0.67169 0.74291 0.0
H2339 H 0.58675 0.71136 0.74172 0.0
C2340 C 0.59362 0.73638 0.78864 0.0
N2341 N 0.58024 0.72228 0.78504 0.0
C2342 C 0.59253 0.75026 0.79101 0.0
C2343 C 0.56368 0.73455 0.78682 0.0
C2344 C 0.56538 0.72102 0.78436 0.0
C2345 C 0.57744 0.74956 0.78989 0.0
H2346 H 0.60528 0.73699 0.78913 0.0
H2347 H 0.5549 0.70956 0.78176 0.0
O2348 O 0.58955 0.67293 0.7706 0.0
O2349 O 0.58318 0.69044 0.79446 0.0
O2350 O 0.60477 0.71104 0.77216 0.0
O2351 O 0.56804 0.68886 0.76741 0.0
H2352 H 0.58615 0.64994 0.78716 0.0
H2353 H 0.61734 0.68347 0.75794 0.0
H2354 H 0.60576 0.64023 0.78979 0.0
H2355 H 0.63656 0.67338 0.76129 0.0
H2356 H 0.54486 0.68599 0.82321 0.0
H2357 H 0.57673 0.66248 0.80526 0.0
H2358 H 0.56475 0.70057 0.80563 0.0
H2359 H 0.5568 0.64869 0.82296 0.0
H2360 H 0.62785 0.6763 0.81632 0.0
H2361 H 0.65935 0.71874 0.79337 0.0
H2362 H 0.53973 0.61554 0.77605 0.0
H2363 H 0.51445 0.63858 0.79259 0.0
H2364 H 0.59994 0.73437 0.76288 0.0
H2365 H 0.629 0.71148 0.75898 0.0
H2366 H 0.61589 0.7533 0.74519 0.0
H2367 H 0.64424 0.73064 0.7412 0.0
H2368 H 0.56497 0.66438 0.75293 0.0
H2369 H 0.5406 0.68965 0.76606 0.0
H2370 H 0.54022 0.6454 0.74069 0.0
H2371 H 0.51618 0.67008 0.75373 0.0
H2372 H 0.59661 0.6714 0.71901 0.0
H2373 H 0.58852 0.71224 0.71781 0.0
H2374 H 0.60353 0.76154 0.79318 0.0
H2375 H 0.55174 0.73328 0.78616 0.0
Li2376 Li 0.58136 0.69019 0.57397 0.0
Li2377 Li 0.56501 0.67668 0.5544 0.0
Li2378 Li 0.59404 0.68908 0.55318 0.0
Li2379 Li 0.58058 0.70529 0.55487 0.0
C2380 C 0.58671 0.66418 0.57166 0.0
N2381 N 0.60181 0.65123 0.58637 0.0
C2382 C 0.57909 0.64742 0.57372 0.0
C2383 C 0.60196 0.67435 0.57714 0.0
C2384 C 0.58694 0.64111 0.58117 0.0
C2385 C 0.60941 0.66757 0.58453 0.0
C2386 C 0.55599 0.70088 0.56929 0.0
C2387 C 0.54191 0.71468 0.56203 0.0
N2388 N 0.54398 0.72155 0.57399 0.0
C2389 C 0.55787 0.70799 0.58153 0.0
C2390 C 0.54782 0.70414 0.55948 0.0
C2391 C 0.55174 0.71843 0.58371 0.0
C2392 C 0.59177 0.7048 0.5985 0.0
N2393 N 0.58308 0.69032 0.59232 0.0
C2394 C 0.5774 0.67602 0.61246 0.0
C2395 C 0.57579 0.67608 0.59898 0.0
C2396 C 0.58629 0.6908 0.6192 0.0
C2397 C 0.59345 0.70534 0.612 0.0
H2398 H 0.59726 0.71594 0.59293 0.0
H2399 H 0.56884 0.66474 0.59381 0.0
C2400 C 0.54512 0.6439 0.54739 0.0
N2401 N 0.54529 0.65817 0.54901 0.0
C2402 C 0.53067 0.62975 0.54431 0.0
C2403 C 0.51699 0.64541 0.54407 0.0
C2404 C 0.53166 0.6592 0.54731 0.0
C2405 C 0.51625 0.63032 0.54279 0.0
H2406 H 0.55618 0.64347 0.54874 0.0
H2407 H 0.53213 0.67069 0.54861 0.0
C2408 C 0.61523 0.72049 0.56418 0.0
N2409 N 0.6468 0.74611 0.56305 0.0
C2410 C 0.62035 0.73121 0.55365 0.0
C2411 C 0.62614 0.72293 0.57422 0.0
C2412 C 0.63636 0.74405 0.55323 0.0
C2413 C 0.64205 0.73592 0.57345 0.0
C2414 C 0.57138 0.6817 0.53008 0.0
C2415 C 0.57541 0.67042 0.52525 0.0
C2416 C 0.55851 0.68274 0.52453 0.0
C2417 C 0.56644 0.66032 0.51495 0.0
C2418 C 0.54983 0.67241 0.51425 0.0
N2419 N 0.55394 0.66151 0.50972 0.0
C2420 C 0.61401 0.67537 0.54669 0.0
C2421 C 0.62139 0.70068 0.53692 0.0
C2422 C 0.62662 0.67479 0.5403 0.0
N2423 N 0.61179 0.68834 0.54512 0.0
C2424 C 0.63414 0.70057 0.53027 0.0
C2425 C 0.63687 0.68748 0.53193 0.0
H2426 H 0.60572 0.66516 0.55253 0.0
H2427 H 0.61886 0.71039 0.53522 0.0
C2428 C 0.58803 0.73687 0.5601 0.0
N2429 N 0.58256 0.72556 0.55049 0.0
C2430 C 0.58988 0.75214 0.55785 0.0
C2431 C 0.58041 0.74385 0.53582 0.0
C2432 C 0.57886 0.72873 0.53848 0.0
C2433 C 0.58604 0.75577 0.54559 0.0
H2434 H 0.59089 0.73395 0.56954 0.0
H2435 H 0.57472 0.71954 0.53099 0.0
O2436 O 0.579 0.67056 0.56463 0.0
O2437 O 0.56217 0.69085 0.56691 0.0
O2438 O 0.59951 0.70797 0.56489 0.0
O2439 O 0.57972 0.69138 0.54039 0.0
H2440 H 0.5672 0.63938 0.56967 0.0
H2441 H 0.60801 0.6873 0.57565 0.0
H2442 H 0.58119 0.62816 0.58284 0.0
H2443 H 0.62124 0.67531 0.5888 0.0
H2444 H 0.53576 0.71747 0.55448 0.0
H2445 H 0.56401 0.70551 0.58926 0.0
H2446 H 0.54646 0.69895 0.54989 0.0
H2447 H 0.55318 0.72407 0.59312 0.0
H2448 H 0.57187 0.66447 0.61748 0.0
H2449 H 0.60011 0.71705 0.61673 0.0
H2450 H 0.53072 0.61842 0.5436 0.0
H2451 H 0.50632 0.64656 0.54273 0.0
H2452 H 0.61211 0.72957 0.54579 0.0
H2453 H 0.62236 0.71495 0.58257 0.0
H2454 H 0.6405 0.75237 0.54509 0.0
H2455 H 0.65062 0.73791 0.58114 0.0
H2456 H 0.58523 0.66934 0.5295 0.0
H2457 H 0.55506 0.69123 0.52826 0.0
H2458 H 0.56939 0.65149 0.51116 0.0
H2459 H 0.53977 0.67301 0.50992 0.0
H2460 H 0.62789 0.66415 0.54148 0.0
H2461 H 0.64162 0.7105 0.52377 0.0
H2462 H 0.59404 0.76092 0.56569 0.0
H2463 H 0.57744 0.74627 0.52622 0.0
Li2464 Li 0.35407 0.92383 0.57072 0.0
Li2465 Li 0.37172 0.92283 0.55289 0.0
Li2466 Li 0.35557 0.93572 0.54954 0.0
Li2467 Li 0.34268 0.90722 0.55013 0.0
C2468 C 0.38316 0.95787 0.56016 0.0
N2469 N 0.40212 0.9906 0.55477 0.0
C2470 C 0.39356 0.96302 0.54942 0.0
C2471 C 0.38243 0.96935 0.56819 0.0
C2472 C 0.40303 0.97962 0.54685 0.0
C2473 C 0.39211 0.98585 0.5653 0.0
C2474 C 0.36335 0.89689 0.56872 0.0
C2475 C 0.37406 0.87891 0.56529 0.0
N2476 N 0.37951 0.88143 0.57777 0.0
C2477 C 0.36892 0.89918 0.58156 0.0
C2478 C 0.36581 0.88656 0.56056 0.0
C2479 C 0.3771 0.89129 0.58594 0.0
C2480 C 0.33862 0.91337 0.59507 0.0
N2481 N 0.35219 0.92485 0.58893 0.0
C2482 C 0.36443 0.93714 0.60918 0.0
C2483 C 0.36497 0.93662 0.59565 0.0
C2484 C 0.35067 0.92533 0.61585 0.0
C2485 C 0.33759 0.91338 0.60861 0.0
H2486 H 0.32871 0.90409 0.58943 0.0
H2487 H 0.37575 0.94534 0.59051 0.0
C2488 C 0.39839 0.92479 0.53839 0.0
N2489 N 0.39228 0.92431 0.55044 0.0
C2490 C 0.41357 0.92596 0.53699 0.0
C2491 C 0.41594 0.92641 0.56039 0.0
C2492 C 0.40088 0.92549 0.56132 0.0
C2493 C 0.42254 0.92667 0.5481 0.0
H2494 H 0.39158 0.92446 0.52987 0.0
H2495 H 0.39602 0.92569 0.57077 0.0
C2496 C 0.32675 0.92857 0.55964 0.0
N2497 N 0.30853 0.94389 0.55969 0.0
C2498 C 0.31934 0.92956 0.5482 0.0
C2499 C 0.32482 0.93531 0.57112 0.0
C2500 C 0.31022 0.93739 0.54842 0.0
C2501 C 0.31557 0.94301 0.57094 0.0
C2502 C 0.35371 0.91203 0.52653 0.0
C2503 C 0.34363 0.91374 0.51754 0.0
C2504 C 0.3579 0.90003 0.52459 0.0
C2505 C 0.33785 0.90336 0.5068 0.0
C2506 C 0.35187 0.88989 0.51374 0.0
N2507 N 0.34205 0.89174 0.50515 0.0
C2508 C 0.35992 0.95637 0.52863 0.0
C2509 C 0.3531 0.96463 0.54824 0.0
C2510 C 0.36045 0.96939 0.522 0.0
N2511 N 0.35602 0.95406 0.54145 0.0
C2512 C 0.35363 0.97794 0.54201 0.0
C2513 C 0.35724 0.98036 0.52869 0.0
H2514 H 0.36292 0.94826 0.52359 0.0
H2515 H 0.3505 0.96283 0.55853 0.0
C2516 C 0.32276 0.87298 0.5483 0.0
N2517 N 0.32486 0.88741 0.54396 0.0
C2518 C 0.30897 0.85844 0.54474 0.0
C2519 C 0.30002 0.87388 0.53201 0.0
C2520 C 0.31388 0.88807 0.53592 0.0
C2521 C 0.29722 0.85881 0.53666 0.0
H2522 H 0.33149 0.87277 0.5549 0.0
H2523 H 0.3157 0.89965 0.53269 0.0
O2524 O 0.37345 0.94165 0.56259 0.0
O2525 O 0.35545 0.90464 0.56423 0.0
O2526 O 0.33566 0.92088 0.55969 0.0
O2527 O 0.35935 0.92195 0.53721 0.0
H2528 H 0.39413 0.95427 0.54303 0.0
H2529 H 0.37428 0.96556 0.57643 0.0
H2530 H 0.41107 0.98378 0.53854 0.0
H2531 H 0.39161 0.99487 0.57137 0.0
H2532 H 0.37612 0.87096 0.55905 0.0
H2533 H 0.36711 0.90706 0.58806 0.0
H2534 H 0.3614 0.88445 0.55067 0.0
H2535 H 0.38157 0.89304 0.59582 0.0
H2536 H 0.37488 0.94638 0.61439 0.0
H2537 H 0.32673 0.90412 0.61338 0.0
H2538 H 0.41828 0.92652 0.52731 0.0
H2539 H 0.42221 0.92674 0.56927 0.0
H2540 H 0.32094 0.92472 0.53918 0.0
H2541 H 0.33046 0.93468 0.58006 0.0
H2542 H 0.30455 0.93837 0.53961 0.0
H2543 H 0.31402 0.94832 0.57974 0.0
H2544 H 0.33999 0.92274 0.51896 0.0
H2545 H 0.36571 0.89855 0.53139 0.0
H2546 H 0.32995 0.90449 0.49983 0.0
H2547 H 0.35499 0.88053 0.51215 0.0
H2548 H 0.36381 0.97113 0.51182 0.0
H2549 H 0.35126 0.98623 0.54754 0.0
H2550 H 0.3072 0.84714 0.54874 0.0
H2551 H 0.29141 0.87474 0.52564 0.0
Li2552 Li 0.13277 0.4761 0.55803 0.0
Li2553 Li 0.12908 0.45643 0.57459 0.0
Li2554 Li 0.14468 0.45881 0.55495 0.0
Li2555 Li 0.11556 0.4466 0.55467 0.0
C2556 C 0.16211 0.47777 0.57679 0.0
N2557 N 0.18668 0.48181 0.59343 0.0
C2558 C 0.16425 0.4646 0.57979 0.0
C2559 C 0.17239 0.49294 0.58234 0.0
C2560 C 0.17677 0.46691 0.58819 0.0
C2561 C 0.18477 0.49475 0.59071 0.0
C2562 C 0.10533 0.46289 0.57774 0.0
C2563 C 0.08597 0.45203 0.59532 0.0
N2564 N 0.0918 0.46731 0.60007 0.0
C2565 C 0.11105 0.4785 0.58276 0.0
C2566 C 0.0926 0.44955 0.58402 0.0
C2567 C 0.10407 0.48047 0.59406 0.0
C2568 C 0.12232 0.49773 0.55013 0.0
N2569 N 0.13524 0.49677 0.55466 0.0
C2570 C 0.15123 0.52564 0.55613 0.0
C2571 C 0.14958 0.5103 0.55751 0.0
C2572 C 0.13794 0.52706 0.55185 0.0
C2573 C 0.12341 0.51284 0.54864 0.0
H2574 H 0.11104 0.48671 0.54804 0.0
H2575 H 0.15965 0.50914 0.56105 0.0
C2576 C 0.12107 0.43902 0.59873 0.0
N2577 N 0.12782 0.45386 0.59298 0.0
C2578 C 0.11912 0.43763 0.61222 0.0
C2579 C 0.1315 0.46684 0.61356 0.0
C2580 C 0.13329 0.46766 0.6001 0.0
C2581 C 0.12413 0.45167 0.61977 0.0
H2582 H 0.11694 0.42824 0.59286 0.0
H2583 H 0.13872 0.47931 0.59527 0.0
C2584 C 0.14062 0.47265 0.53248 0.0
N2585 N 0.15923 0.49208 0.51219 0.0
C2586 C 0.13494 0.46885 0.51972 0.0
C2587 C 0.15577 0.4863 0.53494 0.0
C2588 C 0.14453 0.47883 0.50959 0.0
C2589 C 0.165 0.49598 0.52455 0.0
C2590 C 0.11898 0.42223 0.56323 0.0
C2591 C 0.12468 0.41294 0.55706 0.0
C2592 C 0.10335 0.41453 0.56851 0.0
C2593 C 0.11449 0.39615 0.55601 0.0
C2594 C 0.09351 0.39772 0.56725 0.0
N2595 N 0.09923 0.38895 0.56105 0.0
C2596 C 0.178 0.47085 0.54918 0.0
C2597 C 0.15955 0.44662 0.53822 0.0
C2598 C 0.19113 0.47078 0.54326 0.0
N2599 N 0.16261 0.45865 0.54685 0.0
C2600 C 0.17236 0.44602 0.5321 0.0
C2601 C 0.18842 0.45814 0.53472 0.0
H2602 H 0.18015 0.4807 0.55561 0.0
H2603 H 0.14714 0.43751 0.53607 0.0
C2604 C 0.08252 0.43098 0.54867 0.0
N2605 N 0.09659 0.43119 0.54595 0.0
C2606 C 0.06864 0.42136 0.54135 0.0
C2607 C 0.08383 0.41183 0.52889 0.0
C2608 C 0.09749 0.42175 0.53642 0.0
C2609 C 0.06932 0.41195 0.53112 0.0
H2610 H 0.08224 0.43877 0.55619 0.0
H2611 H 0.10896 0.42239 0.53438 0.0
O2612 O 0.14976 0.47578 0.56875 0.0
O2613 O 0.11226 0.46067 0.56683 0.0
O2614 O 0.13139 0.46291 0.54247 0.0
O2615 O 0.12876 0.43872 0.56427 0.0
H2616 H 0.1564 0.45274 0.57567 0.0
H2617 H 0.17079 0.50322 0.58027 0.0
H2618 H 0.17859 0.45685 0.59056 0.0
H2619 H 0.19282 0.50644 0.59507 0.0
H2620 H 0.07619 0.4418 0.60032 0.0
H2621 H 0.12097 0.48896 0.57814 0.0
H2622 H 0.08791 0.4374 0.58027 0.0
H2623 H 0.10848 0.49247 0.5981 0.0
H2624 H 0.16274 0.53627 0.55851 0.0
H2625 H 0.11281 0.51334 0.54547 0.0
H2626 H 0.11336 0.4257 0.61665 0.0
H2627 H 0.1358 0.47798 0.61904 0.0
H2628 H 0.12325 0.45828 0.51766 0.0
H2629 H 0.1604 0.48936 0.54475 0.0
H2630 H 0.14029 0.47605 0.49965 0.0
H2631 H 0.17675 0.50657 0.52631 0.0
H2632 H 0.13689 0.41859 0.55324 0.0
H2633 H 0.09879 0.4215 0.5734 0.0
H2634 H 0.11873 0.38883 0.55121 0.0
H2635 H 0.08132 0.39165 0.57118 0.0
H2636 H 0.20331 0.48034 0.54563 0.0
H2637 H 0.16973 0.43623 0.52539 0.0
H2638 H 0.05762 0.42169 0.54337 0.0
H2639 H 0.08485 0.40487 0.52098 0.0
Li2640 Li 0.33642 0.45906 0.54922 0.0
Li2641 Li 0.34953 0.45523 0.56834 0.0
Li2642 Li 0.36585 0.47414 0.55154 0.0
Li2643 Li 0.35114 0.44457 0.54816 0.0
C2644 C 0.34021 0.47859 0.57096 0.0
N2645 N 0.32095 0.48484 0.58737 0.0
C2646 C 0.32537 0.46586 0.57541 0.0
C2647 C 0.34523 0.49449 0.57487 0.0
C2648 C 0.31582 0.46927 0.5837 0.0
C2649 C 0.33532 0.4974 0.58317 0.0
C2650 C 0.32224 0.42197 0.55733 0.0
C2651 C 0.31951 0.39563 0.56092 0.0
N2652 N 0.30465 0.3885 0.55516 0.0
C2653 C 0.30681 0.41435 0.55165 0.0
C2654 C 0.32851 0.41251 0.56219 0.0
C2655 C 0.29815 0.39743 0.55057 0.0
C2656 C 0.30943 0.44853 0.53295 0.0
N2657 N 0.3187 0.46019 0.54176 0.0
C2658 C 0.30231 0.47255 0.53946 0.0
C2659 C 0.31572 0.47239 0.54474 0.0
C2660 C 0.29195 0.46012 0.53092 0.0
C2661 C 0.2958 0.44815 0.52749 0.0
H2662 H 0.31254 0.43942 0.5303 0.0
H2663 H 0.32365 0.48197 0.55128 0.0
C2664 C 0.35822 0.46564 0.59402 0.0
N2665 N 0.34836 0.45243 0.5867 0.0
C2666 C 0.35854 0.46433 0.6075 0.0
C2667 C 0.33804 0.43596 0.60571 0.0
C2668 C 0.33822 0.4378 0.59223 0.0
C2669 C 0.34842 0.44931 0.6135 0.0
H2670 H 0.36597 0.47718 0.58934 0.0
H2671 H 0.33034 0.42755 0.58621 0.0
C2672 C 0.35366 0.4722 0.52667 0.0
N2673 N 0.35549 0.49338 0.50748 0.0
C2674 C 0.35428 0.46855 0.5136 0.0
C2675 C 0.35394 0.4866 0.52999 0.0
C2676 C 0.35521 0.47942 0.50404 0.0
C2677 C 0.35488 0.49715 0.52015 0.0
C2678 C 0.37859 0.45841 0.57064 0.0
C2679 C 0.39069 0.47351 0.57522 0.0
C2680 C 0.37569 0.44428 0.57712 0.0
C2681 C 0.39946 0.47424 0.58635 0.0
C2682 C 0.38468 0.44551 0.58823 0.0
N2683 N 0.39627 0.46034 0.59259 0.0
C2684 C 0.38844 0.50675 0.55617 0.0
C2685 C 0.39393 0.4962 0.53717 0.0
C2686 C 0.40206 0.52193 0.55399 0.0
N2687 N 0.38469 0.49429 0.54783 0.0
C2688 C 0.40766 0.51125 0.53456 0.0
C2689 C 0.41188 0.52437 0.54304 0.0
H2690 H 0.38097 0.50478 0.56464 0.0
H2691 H 0.39059 0.48605 0.53068 0.0
C2692 C 0.34072 0.41922 0.52992 0.0
N2693 N 0.35184 0.42752 0.53935 0.0
C2694 C 0.34131 0.40685 0.52307 0.0
C2695 C 0.36472 0.41183 0.53587 0.0
C2696 C 0.36365 0.42406 0.54247 0.0
C2697 C 0.35355 0.40313 0.52594 0.0
H2698 H 0.33147 0.42231 0.52769 0.0
H2699 H 0.37243 0.431 0.54992 0.0
O2700 O 0.3499 0.47561 0.5629 0.0
O2701 O 0.33097 0.43857 0.55836 0.0
O2702 O 0.35268 0.4616 0.53611 0.0
O2703 O 0.36962 0.4575 0.55991 0.0
H2704 H 0.3212 0.45347 0.57252 0.0
H2705 H 0.35662 0.50452 0.5715 0.0
H2706 H 0.30432 0.45953 0.58721 0.0
H2707 H 0.33906 0.50966 0.58626 0.0
H2708 H 0.32434 0.3882 0.56451 0.0
H2709 H 0.30146 0.42137 0.54824 0.0
H2710 H 0.3403 0.41815 0.56676 0.0
H2711 H 0.28624 0.3914 0.54614 0.0
H2712 H 0.29978 0.48201 0.54239 0.0
H2713 H 0.28829 0.43853 0.52075 0.0
H2714 H 0.36651 0.47499 0.61317 0.0
H2715 H 0.33008 0.42417 0.60997 0.0
H2716 H 0.35403 0.45743 0.51089 0.0
H2717 H 0.35343 0.48963 0.54005 0.0
H2718 H 0.35571 0.47676 0.49388 0.0
H2719 H 0.35511 0.50834 0.52257 0.0
H2720 H 0.39322 0.48457 0.57033 0.0
H2721 H 0.36654 0.43247 0.57368 0.0
H2722 H 0.40877 0.48586 0.59005 0.0
H2723 H 0.38245 0.43467 0.59339 0.0
H2724 H 0.405 0.53155 0.56096 0.0
H2725 H 0.41479 0.51261 0.52595 0.0
H2726 H 0.33241 0.40038 0.51555 0.0
H2727 H 0.37456 0.40963 0.53821 0.0
Li2728 Li 0.59483 0.93034 0.57211 0.0
Li2729 Li 0.59063 0.91096 0.55484 0.0
Li2730 Li 0.60555 0.93991 0.55091 0.0
Li2731 Li 0.57607 0.92563 0.5542 0.0
C2732 C 0.62731 0.9336 0.56038 0.0
N2733 N 0.65975 0.94707 0.55399 0.0
C2734 C 0.63235 0.92537 0.55203 0.0
C2735 C 0.63878 0.94864 0.56553 0.0
C2736 C 0.64881 0.93239 0.54892 0.0
C2737 C 0.65512 0.95526 0.56216 0.0
C2738 C 0.56739 0.89442 0.57132 0.0
C2739 C 0.54853 0.86603 0.56747 0.0
N2740 N 0.55387 0.86221 0.57845 0.0
C2741 C 0.57266 0.89022 0.58259 0.0
C2742 C 0.55519 0.88225 0.56372 0.0
C2743 C 0.56568 0.87386 0.58602 0.0
C2744 C 0.58301 0.93033 0.59669 0.0
N2745 N 0.59684 0.93355 0.59036 0.0
C2746 C 0.61123 0.93889 0.61045 0.0
C2747 C 0.61085 0.93786 0.59688 0.0
C2748 C 0.597 0.93529 0.61728 0.0
C2749 C 0.58283 0.9312 0.6102 0.0
H2750 H 0.57202 0.92679 0.59122 0.0
H2751 H 0.62159 0.94009 0.5916 0.0
C2752 C 0.5836 0.88289 0.54 0.0
N2753 N 0.58999 0.89113 0.55125 0.0
C2754 C 0.58371 0.8685 0.5375 0.0
C2755 C 0.59707 0.87154 0.55817 0.0
C2756 C 0.59666 0.88579 0.56028 0.0
C2757 C 0.59061 0.86273 0.54663 0.0
H2758 H 0.57858 0.88755 0.53292 0.0
H2759 H 0.60175 0.89271 0.56909 0.0
C2760 C 0.5927 0.95661 0.57111 0.0
N2761 N 0.59223 0.97543 0.59139 0.0
C2762 C 0.57808 0.95547 0.57498 0.0
C2763 C 0.60711 0.9674 0.5775 0.0
C2764 C 0.57809 0.96508 0.58526 0.0
C2765 C 0.60661 0.97678 0.58775 0.0
C2766 C 0.57988 0.92219 0.52921 0.0
C2767 C 0.58591 0.93559 0.52089 0.0
C2768 C 0.56478 0.90851 0.52665 0.0
C2769 C 0.57668 0.93509 0.51014 0.0
C2770 C 0.55591 0.9085 0.51582 0.0
N2771 N 0.56199 0.92168 0.50786 0.0
C2772 C 0.62862 0.9509 0.53105 0.0
C2773 C 0.62919 0.97205 0.54368 0.0
C2774 C 0.64089 0.96216 0.523 0.0
N2775 N 0.62297 0.95602 0.54105 0.0
C2776 C 0.64146 0.98375 0.53586 0.0
C2777 C 0.64728 0.97884 0.52523 0.0
H2778 H 0.62334 0.93804 0.52918 0.0
H2779 H 0.62433 0.97575 0.55162 0.0
C2780 C 0.54305 0.91449 0.55779 0.0
N2781 N 0.55603 0.92472 0.5504 0.0
C2782 C 0.52842 0.91446 0.5567 0.0
C2783 C 0.54055 0.93511 0.54007 0.0
C2784 C 0.55509 0.93498 0.54167 0.0
C2785 C 0.52712 0.92496 0.54784 0.0
H2786 H 0.54422 0.90676 0.56489 0.0
H2787 H 0.56575 0.94339 0.53624 0.0
O2788 O 0.61121 0.92709 0.56335 0.0
O2789 O 0.57437 0.91032 0.5676 0.0
O2790 O 0.5929 0.94704 0.56125 0.0
O2791 O 0.5887 0.92245 0.53981 0.0
H2792 H 0.62364 0.9138 0.54785 0.0
H2793 H 0.63508 0.95524 0.57191 0.0
H2794 H 0.65287 0.92619 0.54242 0.0
H2795 H 0.6641 0.96694 0.566 0.0
H2796 H 0.53915 0.85648 0.56163 0.0
H2797 H 0.58219 0.89947 0.58853 0.0
H2798 H 0.55102 0.8853 0.55494 0.0
H2799 H 0.56969 0.87043 0.59468 0.0
H2800 H 0.62235 0.94191 0.61556 0.0
H2801 H 0.57165 0.92852 0.61506 0.0
H2802 H 0.57874 0.86215 0.52842 0.0
H2803 H 0.60229 0.86739 0.56555 0.0
H2804 H 0.56681 0.94718 0.57017 0.0
H2805 H 0.61852 0.96836 0.57469 0.0
H2806 H 0.56685 0.96428 0.58839 0.0
H2807 H 0.61764 0.98509 0.59284 0.0
H2808 H 0.59751 0.94632 0.52276 0.0
H2809 H 0.55987 0.89809 0.53305 0.0
H2810 H 0.58117 0.94539 0.50365 0.0
H2811 H 0.54417 0.89803 0.51376 0.0
H2812 H 0.6451 0.95785 0.51497 0.0
H2813 H 0.64584 0.99647 0.53779 0.0
H2814 H 0.51829 0.9065 0.56286 0.0
H2815 H 0.54002 0.94354 0.53328 0.0
Li2816 Li 0.14693 0.70838 0.55541 0.0
Li2817 Li 0.13278 0.69675 0.5758 0.0
Li2818 Li 0.13482 0.67977 0.55892 0.0
Li2819 Li 0.1176 0.69178 0.55611 0.0
C2820 C 0.16856 0.70796 0.57064 0.0
N2821 N 0.20102 0.73112 0.57303 0.0
C2822 C 0.17371 0.71936 0.5807 0.0
C2823 C 0.17993 0.7083 0.56183 0.0
C2824 C 0.19018 0.73097 0.58174 0.0
C2825 C 0.19627 0.72013 0.56319 0.0
C2826 C 0.12321 0.72066 0.56134 0.0
C2827 C 0.10083 0.72554 0.5642 0.0
N2828 N 0.10556 0.735 0.55336 0.0
C2829 C 0.12784 0.73041 0.55022 0.0
C2830 C 0.10959 0.71819 0.5684 0.0
C2831 C 0.11877 0.73757 0.54635 0.0
C2832 C 0.17212 0.72714 0.53703 0.0
N2833 N 0.16474 0.72731 0.54831 0.0
C2834 C 0.18379 0.75541 0.55149 0.0
C2835 C 0.17017 0.74108 0.55546 0.0
C2836 C 0.19194 0.75555 0.54006 0.0
C2837 C 0.18593 0.74121 0.53275 0.0
H2838 H 0.16746 0.71606 0.53149 0.0
H2839 H 0.16406 0.7408 0.56441 0.0
C2840 C 0.13718 0.69008 0.60135 0.0
N2841 N 0.13302 0.69939 0.5941 0.0
C2842 C 0.13598 0.68996 0.61485 0.0
C2843 C 0.12722 0.7098 0.61324 0.0
C2844 C 0.12843 0.70942 0.59972 0.0
C2845 C 0.1307 0.69972 0.62094 0.0
H2846 H 0.14098 0.68239 0.59658 0.0
H2847 H 0.12539 0.71683 0.59371 0.0
C2848 C 0.13173 0.68043 0.5339 0.0
N2849 N 0.12923 0.65792 0.51566 0.0
C2850 C 0.11661 0.66939 0.52861 0.0
C2851 C 0.14557 0.67999 0.52992 0.0
C2852 C 0.11561 0.65813 0.51939 0.0
C2853 C 0.14405 0.66852 0.5207 0.0
C2854 C 0.10845 0.66731 0.5802 0.0
C2855 C 0.11149 0.65512 0.58449 0.0
C2856 C 0.09886 0.67148 0.58778 0.0
C2857 C 0.10491 0.64733 0.5963 0.0
C2858 C 0.09255 0.66344 0.59955 0.0
N2859 N 0.09567 0.65163 0.60353 0.0
C2860 C 0.15062 0.66125 0.55857 0.0
C2861 C 0.12308 0.64706 0.55187 0.0
C2862 C 0.15181 0.64731 0.55698 0.0
N2863 N 0.13641 0.66086 0.55602 0.0
C2864 C 0.12372 0.63283 0.55013 0.0
C2865 C 0.1382 0.63281 0.55281 0.0
H2866 H 0.16096 0.67233 0.56203 0.0
H2867 H 0.11185 0.64706 0.55014 0.0
C2868 C 0.09862 0.69419 0.53625 0.0
N2869 N 0.09807 0.68869 0.54854 0.0
C2870 C 0.08431 0.69078 0.52987 0.0
C2871 C 0.06929 0.67706 0.54924 0.0
C2872 C 0.08386 0.68051 0.55515 0.0
C2873 C 0.06932 0.68177 0.53627 0.0
H2874 H 0.11014 0.70067 0.53124 0.0
H2875 H 0.08376 0.67631 0.5649 0.0
O2876 O 0.15242 0.6968 0.56921 0.0
O2877 O 0.13168 0.7132 0.56509 0.0
O2878 O 0.13294 0.69139 0.54311 0.0
O2879 O 0.11504 0.6753 0.56877 0.0
H2880 H 0.16509 0.71939 0.58753 0.0
H2881 H 0.17613 0.69974 0.55386 0.0
H2882 H 0.19432 0.73991 0.58945 0.0
H2883 H 0.20517 0.72063 0.55637 0.0
H2884 H 0.09021 0.72366 0.56952 0.0
H2885 H 0.1382 0.73227 0.54452 0.0
H2886 H 0.10565 0.71044 0.57689 0.0
H2887 H 0.12218 0.74509 0.53774 0.0
H2888 H 0.18818 0.76616 0.5575 0.0
H2889 H 0.19185 0.7409 0.52384 0.0
H2890 H 0.13905 0.68223 0.62046 0.0
H2891 H 0.1231 0.71749 0.61759 0.0
H2892 H 0.10572 0.66933 0.53171 0.0
H2893 H 0.15731 0.68817 0.53412 0.0
H2894 H 0.10398 0.64949 0.51524 0.0
H2895 H 0.15464 0.66797 0.51761 0.0
H2896 H 0.11898 0.65181 0.57886 0.0
H2897 H 0.09669 0.68114 0.58482 0.0
H2898 H 0.10721 0.63792 0.59974 0.0
H2899 H 0.08527 0.66667 0.60557 0.0
H2900 H 0.16325 0.64787 0.55905 0.0
H2901 H 0.11287 0.62187 0.5471 0.0
H2902 H 0.08497 0.6945 0.51984 0.0
H2903 H 0.05809 0.67039 0.55466 0.0
Li2904 Li 0.1415 0.7072 0.78222 0.0
Li2905 Li 0.11282 0.68791 0.78405 0.0
Li2906 Li 0.13178 0.67773 0.78194 0.0
Li2907 Li 0.12503 0.68964 0.76339 0.0
C2908 C 0.14128 0.69346 0.8062 0.0
N2909 N 0.16318 0.69809 0.82573 0.0
C2910 C 0.13779 0.69522 0.8191 0.0
C2911 C 0.15584 0.69389 0.80328 0.0
C2912 C 0.14904 0.6976 0.82883 0.0
C2913 C 0.16677 0.69627 0.81326 0.0
C2914 C 0.11387 0.71373 0.77497 0.0
C2915 C 0.08977 0.71533 0.77073 0.0
N2916 N 0.09368 0.72595 0.78078 0.0
C2917 C 0.11771 0.72472 0.7852 0.0
C2918 C 0.09985 0.70903 0.76762 0.0
C2919 C 0.10732 0.73075 0.788 0.0
C2920 C 0.16651 0.73704 0.77507 0.0
N2921 N 0.1589 0.72833 0.78586 0.0
C2922 C 0.177 0.75027 0.79958 0.0
C2923 C 0.16369 0.73463 0.79799 0.0
C2924 C 0.1853 0.75946 0.78858 0.0
C2925 C 0.17982 0.75264 0.7762 0.0
H2926 H 0.16235 0.73168 0.76556 0.0
H2927 H 0.15723 0.72758 0.80642 0.0
C2928 C 0.07879 0.67663 0.78695 0.0
N2929 N 0.09373 0.68458 0.79259 0.0
C2930 C 0.06535 0.67566 0.79334 0.0
C2931 C 0.08288 0.69037 0.8114 0.0
C2932 C 0.09596 0.69132 0.80458 0.0
C2933 C 0.06739 0.68264 0.80571 0.0
H2934 H 0.07737 0.67145 0.77737 0.0
H2935 H 0.10802 0.6979 0.80865 0.0
C2936 C 0.16083 0.69599 0.76492 0.0
N2937 N 0.18933 0.6991 0.75506 0.0
C2938 C 0.16051 0.68721 0.75391 0.0
C2939 C 0.17573 0.70645 0.77086 0.0
C2940 C 0.17502 0.68891 0.74909 0.0
C2941 C 0.18998 0.70782 0.76575 0.0
C2942 C 0.10172 0.65824 0.76417 0.0
C2943 C 0.1041 0.64501 0.76235 0.0
C2944 C 0.09047 0.65979 0.75643 0.0
C2945 C 0.09522 0.63356 0.75275 0.0
C2946 C 0.08186 0.64809 0.74693 0.0
N2947 N 0.08439 0.63533 0.7453 0.0
C2948 C 0.12649 0.65175 0.79748 0.0
C2949 C 0.1463 0.65759 0.78119 0.0
C2950 C 0.12742 0.63824 0.80153 0.0
N2951 N 0.13569 0.66094 0.78737 0.0
C2952 C 0.14763 0.6442 0.78492 0.0
C2953 C 0.1379 0.63417 0.79507 0.0
H2954 H 0.11814 0.65474 0.80219 0.0
H2955 H 0.15339 0.66497 0.77314 0.0
C2956 C 0.12274 0.70268 0.73952 0.0
N2957 N 0.12295 0.68975 0.74494 0.0
C2958 C 0.12193 0.70384 0.72604 0.0
C2959 C 0.12155 0.67833 0.72396 0.0
C2960 C 0.12231 0.67765 0.73746 0.0
C2961 C 0.12144 0.69161 0.71805 0.0
H2962 H 0.12339 0.71221 0.74568 0.0
H2963 H 0.12258 0.66752 0.74195 0.0
O2964 O 0.13039 0.69118 0.79656 0.0
O2965 O 0.1236 0.70728 0.77238 0.0
O2966 O 0.14673 0.69466 0.76967 0.0
O2967 O 0.11027 0.66955 0.77354 0.0
H2968 H 0.12654 0.69477 0.82163 0.0
H2969 H 0.1586 0.69222 0.79345 0.0
H2970 H 0.14651 0.69904 0.83884 0.0
H2971 H 0.17808 0.69663 0.8111 0.0
H2972 H 0.07881 0.71171 0.7652 0.0
H2973 H 0.12848 0.72839 0.79103 0.0
H2974 H 0.09667 0.70044 0.75972 0.0
H2975 H 0.11007 0.73919 0.79595 0.0
H2976 H 0.18069 0.75514 0.8093 0.0
H2977 H 0.18598 0.75912 0.76745 0.0
H2978 H 0.05358 0.66972 0.78863 0.0
H2979 H 0.08498 0.69625 0.82079 0.0
H2980 H 0.14917 0.67895 0.74926 0.0
H2981 H 0.17637 0.71345 0.77934 0.0
H2982 H 0.17489 0.6821 0.74062 0.0
H2983 H 0.20156 0.71584 0.77027 0.0
H2984 H 0.11271 0.64358 0.76827 0.0
H2985 H 0.08867 0.67009 0.75755 0.0
H2986 H 0.09696 0.62327 0.75122 0.0
H2987 H 0.07322 0.64921 0.7408 0.0
H2988 H 0.11982 0.63092 0.80949 0.0
H2989 H 0.15569 0.64136 0.77953 0.0
H2990 H 0.12168 0.71421 0.72194 0.0
H2991 H 0.12146 0.66874 0.71821 0.0
Li2992 Li 0.3406 0.46012 0.77387 0.0
Li2993 Li 0.3532 0.44301 0.77676 0.0
Li2994 Li 0.37045 0.47165 0.7733 0.0
Li2995 Li 0.35327 0.4533 0.75589 0.0
C2996 C 0.35628 0.4713 0.79774 0.0
N2997 N 0.35762 0.49201 0.81716 0.0
C2998 C 0.35528 0.46676 0.81077 0.0
C2999 C 0.35791 0.48634 0.79458 0.0
C3000 C 0.35599 0.47741 0.82046 0.0
C3001 C 0.35858 0.49665 0.80453 0.0
C3002 C 0.32337 0.42896 0.75684 0.0
C3003 C 0.31561 0.40872 0.74001 0.0
N3004 N 0.30278 0.41068 0.73693 0.0
C3005 C 0.31003 0.43067 0.75358 0.0
C3006 C 0.32611 0.41779 0.75008 0.0
C3007 C 0.29979 0.42135 0.74347 0.0
C3008 C 0.3182 0.47028 0.76901 0.0
N3009 N 0.3235 0.46394 0.77834 0.0
C3010 C 0.30329 0.46208 0.79315 0.0
C3011 C 0.31641 0.45987 0.79026 0.0
C3012 C 0.29729 0.46832 0.78361 0.0
C3013 C 0.30502 0.47253 0.77142 0.0
H3014 H 0.32393 0.47316 0.75955 0.0
H3015 H 0.32083 0.45472 0.79746 0.0
C3016 C 0.36074 0.42785 0.79704 0.0
N3017 N 0.35096 0.42519 0.78659 0.0
C3018 C 0.35774 0.41507 0.8054 0.0
C3019 C 0.33492 0.39711 0.79187 0.0
C3020 C 0.33843 0.41017 0.78375 0.0
C3021 C 0.34438 0.39959 0.80303 0.0
H3022 H 0.37043 0.44003 0.79917 0.0
H3023 H 0.33071 0.40845 0.7755 0.0
C3024 C 0.36245 0.48873 0.75393 0.0
N3025 N 0.37524 0.51713 0.73964 0.0
C3026 C 0.37187 0.49074 0.74289 0.0
C3027 C 0.35936 0.50109 0.75758 0.0
C3028 C 0.37828 0.50521 0.73584 0.0
C3029 C 0.36598 0.51538 0.75026 0.0
C3030 C 0.37999 0.44584 0.76801 0.0
C3031 C 0.39311 0.45297 0.77662 0.0
C3032 C 0.37488 0.43031 0.76311 0.0
C3033 C 0.40083 0.44435 0.78027 0.0
C3034 C 0.38291 0.42208 0.76701 0.0
N3035 N 0.3956 0.42921 0.77545 0.0
C3036 C 0.39632 0.49593 0.78902 0.0
C3037 C 0.40059 0.49756 0.76627 0.0
C3038 C 0.41141 0.50986 0.79094 0.0
N3039 N 0.39104 0.49034 0.77678 0.0
C3040 C 0.41569 0.51152 0.76771 0.0
C3041 C 0.42125 0.51794 0.78018 0.0
H3042 H 0.38898 0.48956 0.79734 0.0
H3043 H 0.39653 0.49241 0.75673 0.0
C3044 C 0.34131 0.45304 0.73094 0.0
N3045 N 0.35174 0.4499 0.73765 0.0
C3046 C 0.34003 0.45116 0.71747 0.0
C3047 C 0.36038 0.443 0.71808 0.0
C3048 C 0.3612 0.44495 0.73156 0.0
C3049 C 0.34973 0.44618 0.71087 0.0
H3050 H 0.33412 0.45719 0.73606 0.0
H3051 H 0.36949 0.44269 0.73716 0.0
O3052 O 0.35536 0.46089 0.78817 0.0
O3053 O 0.33371 0.4382 0.76657 0.0
O3054 O 0.35582 0.47453 0.76086 0.0
O3055 O 0.3721 0.45397 0.7645 0.0
H3056 H 0.35394 0.45511 0.81337 0.0
H3057 H 0.35876 0.49003 0.78456 0.0
H3058 H 0.35524 0.47407 0.83059 0.0
H3059 H 0.35988 0.50834 0.80222 0.0
H3060 H 0.31769 0.40016 0.73462 0.0
H3061 H 0.30761 0.43912 0.75877 0.0
H3062 H 0.33639 0.41634 0.75244 0.0
H3063 H 0.28946 0.42261 0.74081 0.0
H3064 H 0.29787 0.45883 0.80273 0.0
H3065 H 0.30066 0.47702 0.76365 0.0
H3066 H 0.36516 0.41746 0.81401 0.0
H3067 H 0.32453 0.3853 0.78974 0.0
H3068 H 0.37441 0.48134 0.73989 0.0
H3069 H 0.35184 0.49968 0.76592 0.0
H3070 H 0.38569 0.50696 0.72734 0.0
H3071 H 0.36371 0.52505 0.75301 0.0
H3072 H 0.3972 0.46496 0.78054 0.0
H3073 H 0.36473 0.42459 0.75646 0.0
H3074 H 0.41095 0.44969 0.78698 0.0
H3075 H 0.37902 0.41001 0.76336 0.0
H3076 H 0.4154 0.51413 0.80076 0.0
H3077 H 0.42283 0.51731 0.75912 0.0
H3078 H 0.33185 0.45399 0.71226 0.0
H3079 H 0.368 0.43905 0.71336 0.0
Li3080 Li 0.59839 0.93598 0.78075 0.0
Li3081 Li 0.58447 0.90647 0.77686 0.0
Li3082 Li 0.58825 0.92587 0.76001 0.0
Li3083 Li 0.56931 0.92101 0.77801 0.0
C3084 C 0.61454 0.92346 0.75935 0.0
N3085 N 0.6324 0.92284 0.73836 0.0
C3086 C 0.6129 0.90875 0.75508 0.0
C3087 C 0.62548 0.93788 0.75306 0.0
C3088 C 0.62199 0.90868 0.74443 0.0
C3089 C 0.63433 0.93731 0.74243 0.0
C3090 C 0.57176 0.90749 0.80097 0.0
C3091 C 0.54775 0.88217 0.80636 0.0
N3092 N 0.55095 0.88568 0.81921 0.0
C3093 C 0.5748 0.91087 0.81422 0.0
C3094 C 0.55811 0.89305 0.79699 0.0
C3095 C 0.56414 0.89968 0.8233 0.0
C3096 C 0.61135 0.96029 0.80012 0.0
N3097 N 0.61516 0.95308 0.7904 0.0
C3098 C 0.64347 0.97024 0.7944 0.0
C3099 C 0.63081 0.95779 0.78742 0.0
C3100 C 0.63998 0.97786 0.8046 0.0
C3101 C 0.62366 0.9728 0.80739 0.0
H3102 H 0.59875 0.95624 0.80223 0.0
H3103 H 0.63346 0.95171 0.77974 0.0
C3104 C 0.57619 0.87447 0.77144 0.0
N3105 N 0.58306 0.88624 0.78064 0.0
C3106 C 0.57441 0.85919 0.77359 0.0
C3107 C 0.5867 0.86834 0.79476 0.0
C3108 C 0.58836 0.88353 0.79214 0.0
C3109 C 0.57962 0.85589 0.78542 0.0
H3110 H 0.57229 0.87706 0.76233 0.0
H3111 H 0.59374 0.89313 0.7993 0.0
C3112 C 0.5922 0.95837 0.77145 0.0
N3113 N 0.60713 0.99155 0.77544 0.0
C3114 C 0.58381 0.96512 0.77756 0.0
C3115 C 0.60806 0.96858 0.76709 0.0
C3116 C 0.59159 0.98189 0.77956 0.0
C3117 C 0.61545 0.98529 0.76929 0.0
C3118 C 0.55621 0.90183 0.75545 0.0
C3119 C 0.55397 0.91429 0.75052 0.0
C3120 C 0.54636 0.88594 0.751 0.0
C3121 C 0.54192 0.91062 0.74121 0.0
C3122 C 0.53444 0.88276 0.74169 0.0
N3123 N 0.53249 0.89507 0.73702 0.0
C3124 C 0.58816 0.91574 0.73454 0.0
C3125 C 0.59564 0.94352 0.73604 0.0
C3126 C 0.58954 0.91682 0.72105 0.0
N3127 N 0.59118 0.92896 0.74172 0.0
C3128 C 0.59723 0.94516 0.72254 0.0
C3129 C 0.59403 0.93165 0.71487 0.0
H3130 H 0.58456 0.90431 0.73933 0.0
H3131 H 0.59774 0.95377 0.74196 0.0
C3132 C 0.55042 0.9292 0.79381 0.0
N3133 N 0.5494 0.91884 0.78425 0.0
C3134 C 0.53639 0.92854 0.79868 0.0
C3135 C 0.52044 0.90584 0.78441 0.0
C3136 C 0.53475 0.90696 0.77982 0.0
C3137 C 0.52115 0.91689 0.79382 0.0
H3138 H 0.56219 0.93802 0.79762 0.0
H3139 H 0.53406 0.89829 0.77273 0.0
O3140 O 0.60548 0.92371 0.76962 0.0
O3141 O 0.58206 0.91843 0.79201 0.0
O3142 O 0.58482 0.94192 0.76955 0.0
O3143 O 0.5681 0.90512 0.76443 0.0
H3144 H 0.60468 0.8975 0.75987 0.0
H3145 H 0.62707 0.9494 0.75625 0.0
H3146 H 0.62075 0.89736 0.74098 0.0
H3147 H 0.64272 0.94837 0.73741 0.0
H3148 H 0.53715 0.87095 0.80341 0.0
H3149 H 0.58528 0.92203 0.81745 0.0
H3150 H 0.55551 0.89024 0.78678 0.0
H3151 H 0.56634 0.90213 0.83359 0.0
H3152 H 0.65585 0.97349 0.79209 0.0
H3153 H 0.62045 0.97839 0.81514 0.0
H3154 H 0.56924 0.85015 0.76597 0.0
H3155 H 0.59074 0.86632 0.80406 0.0
H3156 H 0.57136 0.95754 0.78061 0.0
H3157 H 0.61468 0.96364 0.76222 0.0
H3158 H 0.58524 0.98724 0.78433 0.0
H3159 H 0.62779 0.99328 0.7661 0.0
H3160 H 0.56142 0.92666 0.7538 0.0
H3161 H 0.54786 0.87613 0.75472 0.0
H3162 H 0.54008 0.92014 0.73731 0.0
H3163 H 0.52673 0.87052 0.73817 0.0
H3164 H 0.58715 0.90615 0.71552 0.0
H3165 H 0.60051 0.95675 0.71814 0.0
H3166 H 0.53747 0.93707 0.80614 0.0
H3167 H 0.50896 0.89666 0.78036 0.0
H3168 H 0.097 0.24158 0.14265 0.0
H3169 H 0.19228 0.29362 0.12848 0.0
H3170 H 0.12007 0.28575 0.12013 0.0
H3171 H 0.16833 0.24418 0.14238 0.0
H3172 H 0.16674 0.29372 0.13061 0.0
H3173 H 0.12387 0.24519 0.14763 0.0
C3174 C 0.10775 0.25216 0.13894 0.0
C3175 C 0.10639 0.26326 0.13081 0.0
C3176 C 0.16713 0.28292 0.13337 0.0
C3177 C 0.13697 0.26747 0.13645 0.0
C3178 C 0.18168 0.28285 0.13214 0.0
C3179 C 0.18233 0.26877 0.13502 0.0
C3180 C 0.1531 0.26878 0.13747 0.0
C3181 C 0.16835 0.25528 0.14002 0.0
C3182 C 0.12303 0.25418 0.14173 0.0
C3183 C 0.12063 0.27676 0.12623 0.0
N3184 N 0.15421 0.25553 0.1409 0.0
N3185 N 0.13532 0.27842 0.12904 0.0
H3186 H 0.81439 0.95701 0.12324 0.0
H3187 H 0.7788 0.86797 0.09504 0.0
H3188 H 0.77006 0.93268 0.10083 0.0
H3189 H 0.8077 0.88307 0.13011 0.0
H3190 H 0.77838 0.89334 0.09514 0.0
H3191 H 0.81474 0.93145 0.12431 0.0
C3192 C 0.80467 0.94632 0.11863 0.0
C3193 C 0.79224 0.94708 0.11183 0.0
C3194 C 0.78476 0.89106 0.10284 0.0
C3195 C 0.79284 0.918 0.11279 0.0
C3196 C 0.78494 0.87653 0.10285 0.0
C3197 C 0.79311 0.87321 0.1127 0.0
C3198 C 0.79301 0.90256 0.11262 0.0
C3199 C 0.80134 0.88512 0.12227 0.0
C3200 C 0.80495 0.93178 0.1192 0.0
C3201 C 0.78011 0.93284 0.1059 0.0
N3202 N 0.8011 0.8993 0.12199 0.0
N3203 N 0.78079 0.91894 0.10644 0.0
H3204 H 0.09737 0.87796 0.13103 0.0
H3205 H 0.18071 0.93156 0.09629 0.0
H3206 H 0.11933 0.85681 0.10706 0.0
H3207 H 0.17212 0.9448 0.13448 0.0
H3208 H 0.15701 0.90477 0.09904 0.0
H3209 H 0.12352 0.90325 0.13182 0.0
C3210 C 0.10769 0.87849 0.1261 0.0
C3211 C 0.10602 0.86526 0.11877 0.0
C3212 C 0.16043 0.91352 0.10686 0.0
C3213 C 0.13576 0.89427 0.11939 0.0
C3214 C 0.17405 0.92885 0.10535 0.0
C3215 C 0.17857 0.94061 0.11517 0.0
C3216 C 0.15098 0.90996 0.11813 0.0
C3217 C 0.169 0.93633 0.12651 0.0
C3218 C 0.12258 0.89297 0.12652 0.0
C3219 C 0.11986 0.86681 0.11249 0.0
N3220 N 0.15554 0.92141 0.12762 0.0
N3221 N 0.13406 0.88113 0.11277 0.0
H3222 H 0.23638 0.09272 0.8574 0.0
H3223 H 0.28226 0.18833 0.87029 0.0
H3224 H 0.28473 0.12026 0.87329 0.0
H3225 H 0.23173 0.16012 0.85943 0.0
H3226 H 0.28504 0.16443 0.86697 0.0
H3227 H 0.23617 0.11807 0.85387 0.0
C3228 C 0.24705 0.10412 0.85996 0.0
C3229 C 0.26051 0.1044 0.86581 0.0
C3230 C 0.27338 0.1635 0.86516 0.0
C3231 C 0.26031 0.13338 0.8619 0.0
C3232 C 0.27182 0.1772 0.86695 0.0
C3233 C 0.25668 0.17616 0.86531 0.0
C3234 C 0.2597 0.14865 0.86174 0.0
C3235 C 0.24354 0.16135 0.86108 0.0
C3236 C 0.24689 0.11858 0.858 0.0
C3237 C 0.27397 0.11949 0.86899 0.0
N3238 N 0.24531 0.14812 0.85958 0.0
N3239 N 0.27348 0.13337 0.86709 0.0
H3240 H 0.95075 0.17197 0.86088 0.0
H3241 H 0.88186 0.09915 0.90271 0.0
H3242 H 0.94839 0.17172 0.90277 0.0
H3243 H 0.87718 0.10456 0.86154 0.0
H3244 H 0.90837 0.12384 0.90242 0.0
H3245 H 0.92578 0.14538 0.8605 0.0
C3246 C 0.94503 0.16624 0.86998 0.0
C3247 C 0.95152 0.17406 0.88187 0.0
C3248 C 0.90158 0.11961 0.89343 0.0
C3249 C 0.92311 0.14381 0.88152 0.0
C3250 C 0.88651 0.10545 0.89357 0.0
C3251 C 0.87731 0.09981 0.88213 0.0
C3252 C 0.90758 0.12821 0.88176 0.0
C3253 C 0.88382 0.1086 0.8706 0.0
C3254 C 0.93077 0.15115 0.86976 0.0
C3255 C 0.94363 0.1662 0.89339 0.0
N3256 N 0.89859 0.12239 0.8707 0.0
N3257 N 0.92984 0.15151 0.89293 0.0
H3258 H 0.89057 0.82169 0.87178 0.0
H3259 H 0.93411 0.7695 0.88446 0.0
H3260 H 0.86604 0.77255 0.88639 0.0
H3261 H 0.95947 0.81901 0.87069 0.0
H3262 H 0.90864 0.76982 0.88361 0.0
H3263 H 0.91549 0.82032 0.86954 0.0
C3264 C 0.89039 0.81056 0.87439 0.0
C3265 C 0.87626 0.79726 0.87939 0.0
C3266 C 0.91975 0.7806 0.88071 0.0
C3267 C 0.9047 0.79565 0.87696 0.0
C3268 C 0.9343 0.78045 0.88126 0.0
C3269 C 0.94894 0.7943 0.87777 0.0
C3270 C 0.9198 0.79475 0.87669 0.0
C3271 C 0.94844 0.80804 0.87342 0.0
C3272 C 0.90463 0.80981 0.87317 0.0
C3273 C 0.87674 0.78319 0.88273 0.0
N3274 N 0.93411 0.80796 0.8731 0.0
N3275 N 0.89074 0.78279 0.8815 0.0
H3276 H 0.76129 0.57232 0.46752 0.0
H3277 H 0.85096 0.6122 0.43891 0.0
H3278 H 0.77685 0.60291 0.4335 0.0
H3279 H 0.82851 0.56622 0.45917 0.0
H3280 H 0.82543 0.61234 0.44026 0.0
H3281 H 0.78765 0.57333 0.46795 0.0
C3282 C 0.77031 0.57929 0.4602 0.0
C3283 C 0.76697 0.58745 0.4504 0.0
C3284 C 0.82615 0.60226 0.44442 0.0
C3285 C 0.79694 0.58884 0.45093 0.0
C3286 C 0.84068 0.60209 0.4436 0.0
C3287 C 0.84187 0.58904 0.44875 0.0
C3288 C 0.81274 0.58942 0.45061 0.0
C3289 C 0.82824 0.57659 0.45512 0.0
C3290 C 0.78525 0.57982 0.46042 0.0
C3291 C 0.77896 0.59631 0.44111 0.0
N3292 N 0.81421 0.57707 0.45585 0.0
N3293 N 0.79347 0.59683 0.44163 0.0
H3294 H 0.45079 0.27091 0.4697 0.0
H3295 H 0.48833 0.22112 0.43701 0.0
H3296 H 0.4889 0.29107 0.44092 0.0
H3297 H 0.45799 0.20445 0.47117 0.0
H3298 H 0.48918 0.24716 0.43872 0.0
H3299 H 0.45367 0.24674 0.47092 0.0
C3300 C 0.45983 0.27028 0.46371 0.0
C3301 C 0.46956 0.28295 0.45514 0.0
C3302 C 0.48245 0.23788 0.44592 0.0
C3303 C 0.47288 0.2554 0.45645 0.0
C3304 C 0.4819 0.223 0.4449 0.0
C3305 C 0.47297 0.21062 0.4539 0.0
C3306 C 0.47383 0.24033 0.45591 0.0
C3307 C 0.46505 0.21373 0.46405 0.0
C3308 C 0.46152 0.25654 0.46445 0.0
C3309 C 0.48122 0.28163 0.44772 0.0
N3310 N 0.4655 0.22823 0.46471 0.0
N3311 N 0.48244 0.26802 0.44845 0.0
H3312 H 0.8427 0.27312 0.47703 0.0
H3313 H 0.75262 0.22353 0.44827 0.0
H3314 H 0.82581 0.28681 0.44305 0.0
H3315 H 0.77197 0.20277 0.47524 0.0
H3316 H 0.77746 0.24975 0.45047 0.0
H3317 H 0.81506 0.25009 0.48037 0.0
C3318 C 0.83309 0.27137 0.47041 0.0
C3319 C 0.83645 0.28161 0.45965 0.0
C3320 C 0.77622 0.23951 0.45603 0.0
C3321 C 0.80507 0.25565 0.46342 0.0
C3322 C 0.76206 0.22456 0.45477 0.0
C3323 C 0.76042 0.21093 0.46138 0.0
C3324 C 0.78888 0.24084 0.4639 0.0
C3325 C 0.77283 0.21299 0.46992 0.0
C3326 C 0.8174 0.25827 0.47229 0.0
C3327 C 0.82369 0.27897 0.45133 0.0
N3328 N 0.7867 0.22764 0.47079 0.0
N3329 N 0.80858 0.2662 0.45336 0.0
H3330 H 0.89328 0.42472 0.20472 0.0
H3331 H 0.94636 0.52039 0.21649 0.0
H3332 H 0.94343 0.44945 0.21697 0.0
H3333 H 0.89671 0.4966 0.20298 0.0
H3334 H 0.94604 0.49471 0.21491 0.0
H3335 H 0.89477 0.45104 0.20231 0.0
C3336 C 0.90465 0.43569 0.20678 0.0
C3337 C 0.9182 0.4349 0.21119 0.0
C3338 C 0.93524 0.49509 0.2122 0.0
C3339 C 0.91995 0.46499 0.20856 0.0
C3340 C 0.93545 0.50981 0.21301 0.0
C3341 C 0.92152 0.51067 0.20991 0.0
C3342 C 0.92096 0.48104 0.20835 0.0
C3343 C 0.90764 0.49645 0.20568 0.0
C3344 C 0.90547 0.4507 0.20545 0.0
C3345 C 0.93258 0.44949 0.2138 0.0
N3346 N 0.90768 0.48219 0.2051 0.0
N3347 N 0.93305 0.46391 0.21252 0.0
H3348 H 0.59956 0.52073 0.22374 0.0
H3349 H 0.55103 0.42568 0.20795 0.0
H3350 H 0.62177 0.49523 0.20642 0.0
H3351 H 0.52902 0.4518 0.2245 0.0
H3352 H 0.57666 0.45127 0.20593 0.0
H3353 H 0.57326 0.49582 0.22286 0.0
C3354 C 0.59888 0.50986 0.21975 0.0
C3355 C 0.61288 0.50998 0.21528 0.0
C3356 C 0.5662 0.45141 0.20995 0.0
C3357 C 0.5828 0.48143 0.21416 0.0
C3358 C 0.55155 0.43682 0.21104 0.0
C3359 C 0.5379 0.43659 0.21648 0.0
C3360 C 0.56721 0.46588 0.21434 0.0
C3361 C 0.53931 0.45137 0.22047 0.0
C3362 C 0.58385 0.49566 0.21919 0.0
C3363 C 0.61126 0.49566 0.20994 0.0
N3364 N 0.55372 0.46539 0.21937 0.0
N3365 N 0.5965 0.48191 0.20962 0.0
H3366 H 0.52298 0.09281 0.20668 0.0
H3367 H 0.61923 0.14486 0.19894 0.0
H3368 H 0.54904 0.14423 0.19862 0.0
H3369 H 0.5928 0.09351 0.20735 0.0
H3370 H 0.59344 0.14418 0.19554 0.0
H3371 H 0.54812 0.09212 0.20374 0.0
C3372 C 0.534 0.10393 0.20417 0.0
C3373 C 0.53401 0.11863 0.20306 0.0
C3374 C 0.59329 0.13303 0.198 0.0
C3375 C 0.56283 0.11799 0.19975 0.0
C3376 C 0.60801 0.1334 0.19988 0.0
C3377 C 0.60814 0.11926 0.20361 0.0
C3378 C 0.57862 0.11843 0.19989 0.0
C3379 C 0.59324 0.10477 0.20477 0.0
C3380 C 0.54833 0.10354 0.20246 0.0
C3381 C 0.54852 0.13263 0.19955 0.0
N3382 N 0.57909 0.10475 0.20303 0.0
N3383 N 0.56242 0.13202 0.1982 0.0
H3384 H 0.42032 0.88813 0.79928 0.0
H3385 H 0.5168 0.94292 0.79796 0.0
H3386 H 0.44617 0.9405 0.79742 0.0
H3387 H 0.49115 0.8905 0.79885 0.0
H3388 H 0.49117 0.94237 0.80164 0.0
H3389 H 0.44611 0.88886 0.80275 0.0
C3390 C 0.43141 0.89979 0.79972 0.0
C3391 C 0.43111 0.91426 0.79787 0.0
C3392 C 0.49116 0.93098 0.80118 0.0
C3393 C 0.46066 0.9152 0.80185 0.0
C3394 C 0.50582 0.93129 0.79917 0.0
C3395 C 0.50609 0.91673 0.7979 0.0
C3396 C 0.47664 0.916 0.80186 0.0
C3397 C 0.49145 0.90202 0.79945 0.0
C3398 C 0.44612 0.9002 0.80175 0.0
C3399 C 0.4458 0.92904 0.79882 0.0
N3400 N 0.47729 0.90203 0.8012 0.0
N3401 N 0.46 0.92912 0.80057 0.0
H3402 H 0.1072 0.53271 0.79915 0.0
H3403 H 0.16384 0.62907 0.79663 0.0
H3404 H 0.15938 0.55709 0.79534 0.0
H3405 H 0.11164 0.60436 0.80031 0.0
H3406 H 0.16285 0.60299 0.79894 0.0
H3407 H 0.109 0.55894 0.8026 0.0
C3408 C 0.11907 0.54355 0.79924 0.0
C3409 C 0.13315 0.54271 0.7968 0.0
C3410 C 0.15163 0.6033 0.79939 0.0
C3411 C 0.13527 0.57284 0.80053 0.0
C3412 C 0.15219 0.61817 0.79802 0.0
C3413 C 0.13779 0.61887 0.79814 0.0
C3414 C 0.13655 0.58902 0.8008 0.0
C3415 C 0.12305 0.60443 0.80023 0.0
C3416 C 0.12008 0.55855 0.80113 0.0
C3417 C 0.14818 0.5572 0.7969 0.0
N3418 N 0.1228 0.59008 0.80133 0.0
N3419 N 0.14883 0.57168 0.7986 0.0
H3420 H 0.4496 0.52705 0.76705 0.0
H3421 H 0.50103 0.61236 0.80322 0.0
H3422 H 0.42921 0.5432 0.79712 0.0
H3423 H 0.51412 0.6008 0.76615 0.0
H3424 H 0.47601 0.58588 0.80301 0.0
H3425 H 0.47501 0.55276 0.76871 0.0
C3426 C 0.45044 0.53601 0.77399 0.0
C3427 C 0.43715 0.53302 0.78184 0.0
C3428 C 0.48442 0.58918 0.79496 0.0
C3429 C 0.46636 0.56245 0.7839 0.0
C3430 C 0.49865 0.60431 0.79503 0.0
C3431 C 0.50978 0.60881 0.78472 0.0
C3432 C 0.48136 0.57848 0.78454 0.0
C3433 C 0.50613 0.59777 0.77445 0.0
C3434 C 0.46499 0.55067 0.77496 0.0
C3435 C 0.43915 0.54494 0.79092 0.0
N3436 N 0.49228 0.58314 0.77465 0.0
N3437 N 0.45347 0.55918 0.79166 0.0
H3438 H 0.56454 0.76268 0.53345 0.0
H3439 H 0.61571 0.85717 0.55127 0.0
H3440 H 0.61131 0.78548 0.55237 0.0
H3441 H 0.56668 0.83393 0.53647 0.0
H3442 H 0.61564 0.8316 0.54894 0.0
H3443 H 0.56654 0.78932 0.53153 0.0
C3444 C 0.57531 0.77333 0.53704 0.0
C3445 C 0.5877 0.77189 0.5432 0.0
C3446 C 0.60491 0.83209 0.54613 0.0
C3447 C 0.59002 0.80228 0.54114 0.0
C3448 C 0.60492 0.84667 0.54752 0.0
C3449 C 0.5911 0.84761 0.54423 0.0
C3450 C 0.59095 0.8183 0.54145 0.0
C3451 C 0.5776 0.83373 0.53911 0.0
C3452 C 0.57641 0.78849 0.53601 0.0
C3453 C 0.60135 0.78603 0.54776 0.0
N3454 N 0.57781 0.81959 0.53798 0.0
N3455 N 0.6021 0.80061 0.5467 0.0
H3456 H 0.22076 0.7585 0.53204 0.0
H3457 H 0.26689 0.85532 0.53586 0.0
H3458 H 0.19733 0.78657 0.5395 0.0
H3459 H 0.29172 0.82797 0.53171 0.0
H3460 H 0.24103 0.83031 0.5336 0.0
H3461 H 0.24642 0.78377 0.52837 0.0
C3462 C 0.22097 0.76998 0.53269 0.0
C3463 C 0.20698 0.77049 0.53622 0.0
C3464 C 0.25213 0.82976 0.53307 0.0
C3465 C 0.23622 0.79936 0.53218 0.0
C3466 C 0.26695 0.84409 0.53425 0.0
C3467 C 0.28155 0.84378 0.53404 0.0
C3468 C 0.25181 0.81491 0.53175 0.0
C3469 C 0.28076 0.82876 0.53215 0.0
C3470 C 0.23562 0.78438 0.53067 0.0
C3471 C 0.20792 0.78566 0.53702 0.0
N3472 N 0.26612 0.8149 0.53119 0.0
N3473 N 0.22231 0.79949 0.53511 0.0
H3474 H 0.28716 0.48475 0.52242 0.0
H3475 H 0.1917 0.43125 0.53207 0.0
H3476 H 0.26178 0.43311 0.52959 0.0
H3477 H 0.21704 0.48295 0.52512 0.0
H3478 H 0.21644 0.43075 0.52668 0.0
H3479 H 0.26109 0.48342 0.51905 0.0
C3480 C 0.2761 0.4731 0.52313 0.0
C3481 C 0.27661 0.45907 0.52652 0.0
C3482 C 0.21654 0.44218 0.52614 0.0
C3483 C 0.24674 0.45745 0.52274 0.0
C3484 C 0.20237 0.44245 0.52915 0.0
C3485 C 0.20239 0.45723 0.5293 0.0
C3486 C 0.23085 0.45679 0.52336 0.0
C3487 C 0.21661 0.47136 0.52548 0.0
C3488 C 0.26122 0.47233 0.52116 0.0
C3489 C 0.26195 0.44423 0.52702 0.0
N3490 N 0.23033 0.47084 0.52284 0.0
N3491 N 0.24759 0.44386 0.52537 0.0
H3492 H 0.99526 0.31472 0.12206 0.0
H3493 H 0.99567 0.35245 0.19148 0.0
H3494 H 0.02952 0.32194 0.15248 0.0
H3495 H 0.95924 0.34103 0.16198 0.0
H3496 H 0.01123 0.34603 0.176 0.0
H3497 H 0.98524 0.32931 0.13508 0.0
C3498 C 0.00091 0.31966 0.13137 0.0
C3499 C 0.01308 0.3169 0.13628 0.0
C3500 C -9e-05 0.34509 0.17288 0.0
C3501 C 0.00142 0.33333 0.15136 0.0
C3502 C 0.99107 0.34881 0.18169 0.0
C3503 C 0.97603 0.347 0.17805 0.0
C3504 C 0.99366 0.33958 0.16035 0.0
C3505 C 0.97061 0.34222 0.16526 0.0
C3506 C 0.99508 0.32788 0.13885 0.0
C3507 C 0.01985 0.32348 0.14846 0.0
N3508 N 0.97935 0.33855 0.15691 0.0
N3509 N 0.0138 0.33123 0.15565 0.0
H3510 H 0.7118 0.71077 0.13492 0.0
H3511 H 0.70237 0.67647 0.20702 0.0
H3512 H 0.7389 0.73933 0.1681 0.0
H3513 H 0.68539 0.64637 0.17269 0.0
H3514 H 0.70916 0.70024 0.19359 0.0
H3515 H 0.69568 0.68789 0.14945 0.0
C3516 C 0.71426 0.7123 0.14526 0.0
C3517 C 0.72698 0.7269 0.15025 0.0
C3518 C 0.70371 0.68838 0.18904 0.0
C3519 C 0.70845 0.70088 0.1669 0.0
C3520 C 0.6999 0.67484 0.19668 0.0
C3521 C 0.69367 0.65948 0.19091 0.0
C3522 C 0.70131 0.68656 0.17555 0.0
C3523 C 0.69025 0.65798 0.17754 0.0
C3524 C 0.70499 0.69927 0.15354 0.0
C3525 C 0.72927 0.72834 0.16377 0.0
N3526 N 0.69436 0.6714 0.17027 0.0
N3527 N 0.72024 0.71542 0.1716 0.0
H3528 H 0.31013 0.05474 0.16314 0.0
H3529 H 0.38985 0.05269 0.18471 0.0
H3530 H 0.32863 0.0281 0.14215 0.0
H3531 H 0.3725 0.08214 0.20287 0.0
H3532 H 0.36574 0.04058 0.17076 0.0
H3533 H 0.33107 0.06182 0.17956 0.0
C3534 C 0.31865 0.0504 0.16199 0.0
C3535 C 0.31785 0.04107 0.15116 0.0
C3536 C 0.36716 0.04956 0.17792 0.0
C3537 C 0.34185 0.04906 0.16998 0.0
C3538 C 0.38094 0.05652 0.18585 0.0
C3539 C 0.38329 0.06855 0.19494 0.0
C3540 C 0.35569 0.05468 0.17909 0.0
C3541 C 0.37119 0.07281 0.19613 0.0
C3542 C 0.33055 0.05437 0.1714 0.0
C3543 C 0.32889 0.03538 0.15034 0.0
N3544 N 0.35801 0.06599 0.18824 0.0
N3545 N 0.34058 0.03962 0.15957 0.0
H3546 H 0.33697 0.0158 0.86783 0.0
H3547 H 0.35917 0.00468 0.79515 0.0
H3548 H 0.3197 0.02852 0.83344 0.0
H3549 H 0.36559 0.9809 0.82851 0.0
H3550 H 0.35145 0.02001 0.8097 0.0
H3551 H 0.3539 0.00926 0.85406 0.0
C3552 C 0.33683 0.01736 0.85741 0.0
C3553 C 0.32665 0.02245 0.85179 0.0
C3554 C 0.3548 0.01162 0.81384 0.0
C3555 C 0.34616 0.01523 0.83603 0.0
C3556 C 0.35917 0.00284 0.80554 0.0
C3557 C 0.3627 0.99123 0.81059 0.0
C3558 C 0.35394 0.00876 0.82728 0.0
C3559 C 0.36293 0.98968 0.82416 0.0
C3560 C 0.34657 0.01372 0.84958 0.0
C3561 C 0.32734 0.02469 0.83826 0.0
N3562 N 0.35835 0.99815 0.83203 0.0
N3563 N 0.33677 0.02089 0.83084 0.0
H3564 H 0.06511 0.40846 0.83199 0.0
H3565 H 0.01462 0.31292 0.83579 0.0
H3566 H 0.04219 0.37776 0.79866 0.0
H3567 H 0.03306 0.34413 0.86942 0.0
H3568 H 0.02008 0.3364 0.82257 0.0
H3569 H 0.04906 0.38547 0.84617 0.0
C3570 C 0.05643 0.39699 0.82762 0.0
C3571 C 0.05528 0.39501 0.81406 0.0
C3572 C 0.02268 0.33809 0.83289 0.0
C3573 C 0.03715 0.3684 0.83034 0.0
C3574 C 0.01948 0.32465 0.84047 0.0
C3575 C 0.02371 0.32661 0.85369 0.0
C3576 C 0.03031 0.35362 0.83854 0.0
C3577 C 0.03005 0.34214 0.85919 0.0
C3578 C 0.04732 0.38379 0.83577 0.0
C3579 C 0.04386 0.37975 0.80905 0.0
N3580 N 0.03341 0.35508 0.85154 0.0
N3581 N 0.03546 0.36696 0.81718 0.0
H3582 H 0.64677 0.69331 0.83206 0.0
H3583 H 0.74263 0.74311 0.83462 0.0
H3584 H 0.67686 0.70804 0.79767 0.0
H3585 H 0.71244 0.72111 0.86833 0.0
H3586 H 0.71907 0.72747 0.82071 0.0
H3587 H 0.67066 0.70047 0.84522 0.0
C3588 C 0.65834 0.69777 0.82722 0.0
C3589 C 0.6598 0.70027 0.81371 0.0
C3590 C 0.71764 0.72586 0.83114 0.0
C3591 C 0.68736 0.70888 0.82885 0.0
C3592 C 0.73113 0.73472 0.8391 0.0
C3593 C 0.72945 0.73364 0.85268 0.0
C3594 C 0.70234 0.71597 0.83681 0.0
C3595 C 0.7142 0.72265 0.85792 0.0
C3596 C 0.67203 0.70195 0.83478 0.0
C3597 C 0.67521 0.7063 0.80807 0.0
N3598 N 0.70118 0.71443 0.84998 0.0
N3599 N 0.68843 0.7106 0.81568 0.0
H3600 H 0.0194 0.73155 0.83007 0.0
H3601 H 0.05725 0.67451 0.83078 0.0
H3602 H 0.02479 0.70911 0.86475 0.0
H3603 H 0.04757 0.69297 0.79567 0.0
H3604 H 0.03987 0.68205 0.84283 0.0
H3605 H 0.02391 0.71282 0.81691 0.0
C3606 C 0.02116 0.72244 0.83493 0.0
C3607 C 0.02212 0.72215 0.84854 0.0
C3608 C 0.04123 0.68415 0.83244 0.0
C3609 C 0.02761 0.70089 0.83352 0.0
C3610 C 0.05114 0.67984 0.82558 0.0
C3611 C 0.05401 0.68339 0.8123 0.0
C3612 C 0.03443 0.69239 0.826 0.0
C3613 C 0.0457 0.69012 0.80594 0.0
C3614 C 0.02381 0.71178 0.8274 0.0
C3615 C 0.02446 0.71009 0.85428 0.0
N3616 N 0.03655 0.69474 0.81291 0.0
N3617 N 0.02741 0.70013 0.84675 0.0
H3618 H 0.31422 0.38166 0.81311 0.0
H3619 H 0.33119 0.3215 0.85478 0.0
H3620 H 0.3625 0.38835 0.81547 0.0
H3621 H 0.29214 0.3311 0.8625 0.0
H3622 H 0.3426 0.34413 0.83912 0.0
H3623 H 0.30524 0.36068 0.82972 0.0
C3624 C 0.3229 0.37857 0.81708 0.0
C3625 C 0.33907 0.38661 0.81287 0.0
C3626 C 0.33166 0.34134 0.84441 0.0
C3627 C 0.32892 0.36269 0.83199 0.0
C3628 C 0.32514 0.32846 0.85328 0.0
C3629 C 0.31074 0.32447 0.85998 0.0
C3630 C 0.3235 0.34999 0.84209 0.0
C3631 C 0.30337 0.33386 0.85771 0.0
C3632 C 0.31781 0.36672 0.82664 0.0
C3633 C 0.34991 0.38238 0.81849 0.0
N3634 N 0.30974 0.34605 0.84888 0.0
N3635 N 0.3446 0.37056 0.82774 0.0
H3636 H 0.71095 0.0264 0.86631 0.0
H3637 H 0.64073 0.9809 0.83109 0.0
H3638 H 0.73476 0.029 0.82995 0.0
H3639 H 0.66978 0.00247 0.7968 0.0
H3640 H 0.66424 0.99782 0.84453 0.0
H3641 H 0.68571 0.01804 0.85454 0.0
C3642 C 0.71091 0.02541 0.85582 0.0
C3643 C 0.72489 0.02807 0.84912 0.0
C3644 C 0.66546 -0.00068 0.8341 0.0
C3645 C 0.69586 0.01779 0.83561 0.0
C3646 C 0.65195 0.98957 0.82639 0.0
C3647 C 0.65334 0.99011 0.81279 0.0
C3648 C 0.68048 0.00971 0.82816 0.0
C3649 C 0.66827 0.0014 0.80725 0.0
C3650 C 0.69639 0.02035 0.84911 0.0
C3651 C 0.72415 0.02664 0.83553 0.0
N3652 N 0.68131 0.01055 0.81495 0.0
N3653 N 0.70983 0.02143 0.82925 0.0
H3654 H 0.70596 0.02103 0.13258 0.0
H3655 H 0.69231 0.03907 0.20584 0.0
H3656 H 0.73299 0.01847 0.16536 0.0
H3657 H 0.68068 0.05819 0.17195 0.0
H3658 H 0.6998 0.02332 0.19152 0.0
H3659 H 0.68916 0.0263 0.14756 0.0
C3660 C 0.70826 0.02139 0.14292 0.0
C3661 C 0.72119 0.01971 0.14768 0.0
C3662 C 0.6953 0.03076 0.18729 0.0
C3663 C 0.70185 0.02546 0.16484 0.0
C3664 C 0.69113 0.03984 0.19543 0.0
C3665 C 0.6862 0.05032 0.19013 0.0
C3666 C 0.6944 0.03204 0.17377 0.0
C3667 C 0.68438 0.05033 0.17656 0.0
C3668 C 0.69861 0.0243 0.15145 0.0
C3669 C 0.72323 0.01974 0.16122 0.0
N3670 N 0.68868 0.04151 0.16886 0.0
N3671 N 0.71381 0.02283 0.16931 0.0
H3672 H 0.9938 0.69911 0.12496 0.0
H3673 H 0.00931 0.66769 0.19097 0.0
H3674 H 0.03822 0.72683 0.14679 0.0
H3675 H 0.97264 0.63689 0.16325 0.0
H3676 H 0.02193 0.68865 0.1742 0.0
H3677 H 0.98773 0.67537 0.13775 0.0
C3678 C 0.0025 0.7002 0.13225 0.0
C3679 C 0.01648 0.71518 0.13486 0.0
C3680 C 0.01132 0.67716 0.17173 0.0
C3681 C 0.00922 0.68791 0.14995 0.0
C3682 C 0.00408 0.66524 0.18131 0.0
C3683 C 0.98977 0.65062 0.17856 0.0
C3684 C 0.00405 0.6745 0.15941 0.0
C3685 C 0.98367 0.64795 0.16583 0.0
C3686 C -0.00106 0.68657 0.13965 0.0
C3687 C 0.02706 0.71571 0.14466 0.0
N3688 N 0.99068 0.65988 0.1568 0.0
N3689 N 0.02307 0.70234 0.152 0.0
H3690 H 0.3256 0.33583 0.14327 0.0
H3691 H 0.41128 0.34502 0.16157 0.0
H3692 H 0.34505 0.30731 0.12674 0.0
H3693 H 0.38786 0.36546 0.18456 0.0
H3694 H 0.39018 0.33696 0.14519 0.0
H3695 H 0.35111 0.35195 0.15508 0.0
C3696 C 0.33525 0.33303 0.14202 0.0
C3697 C 0.33302 0.31998 0.13415 0.0
C3698 C 0.38976 0.34339 0.15374 0.0
C3699 C 0.36227 0.33854 0.14746 0.0
C3700 C 0.4019 0.34814 0.16307 0.0
C3701 C 0.40124 0.35576 0.17456 0.0
C3702 C 0.37678 0.34617 0.15592 0.0
C3703 C 0.38864 0.35929 0.17598 0.0
C3704 C 0.34982 0.3423 0.14871 0.0
C3705 C 0.34614 0.31725 0.13262 0.0
N3706 N 0.37677 0.35429 0.16683 0.0
N3707 N 0.36012 0.32633 0.13932 0.0
H3708 H 0.64446 0.69481 0.5062 0.0
H3709 H 0.69071 0.64484 0.50332 0.0
H3710 H 0.65757 0.67707 0.54006 0.0
H3711 H 0.67939 0.66408 0.46946 0.0
H3712 H 0.68314 0.66088 0.51714 0.0
H3713 H 0.6617 0.68827 0.49292 0.0
C3714 C 0.65124 0.68986 0.5109 0.0
C3715 C 0.64935 0.6862 0.52422 0.0
C3716 C 0.68253 0.66181 0.50668 0.0
C3717 C 0.66885 0.6784 0.50904 0.0
C3718 C 0.68681 0.65262 0.49881 0.0
C3719 C 0.68539 0.65295 0.48526 0.0
C3720 C 0.67657 0.67122 0.50097 0.0
C3721 C 0.68059 0.66345 0.47987 0.0
C3722 C 0.66102 0.68604 0.50329 0.0
C3723 C 0.65836 0.67971 0.52976 0.0
N3724 N 0.67607 0.67197 0.48776 0.0
N3725 N 0.66754 0.6758 0.52212 0.0
H3726 H 0.40356 0.07696 0.50026 0.0
H3727 H 0.34558 0.98159 0.50468 0.0
H3728 H 0.37723 0.04661 0.46762 0.0
H3729 H 0.37256 0.01188 0.53711 0.0
H3730 H 0.35232 0.00595 0.49208 0.0
H3731 H 0.38746 0.05432 0.51486 0.0
C3732 C 0.39411 0.06566 0.49617 0.0
C3733 C 0.39195 0.06358 0.48266 0.0
C3734 C 0.35656 0.00729 0.50202 0.0
C3735 C 0.37374 0.03747 0.49933 0.0
C3736 C 0.35276 0.99339 0.50919 0.0
C3737 C 0.35879 0.99476 0.52186 0.0
C3738 C 0.36662 0.02267 0.50751 0.0
C3739 C 0.36773 0.0103 0.52735 0.0
C3740 C 0.38499 0.05267 0.50452 0.0
C3741 C 0.37958 0.04861 0.47795 0.0
N3742 N 0.37162 0.02367 0.52007 0.0
N3743 N 0.37112 0.03604 0.48625 0.0
H3744 H 0.98721 0.34509 0.48329 0.0
H3745 H 0.05274 0.42496 0.51974 0.0
H3746 H 4e-05 0.39375 0.47186 0.0
H3747 H 0.05496 0.38076 0.52149 0.0
H3748 H 0.03073 0.41226 0.50403 0.0
H3749 H 0.00986 0.35661 0.49894 0.0
C3750 C 0.99486 0.35815 0.48401 0.0
C3751 C 0.99184 0.3685 0.47622 0.0
C3752 C 0.036 0.40529 0.50783 0.0
C3753 C 0.01738 0.38162 0.49408 0.0
C3754 C 0.04845 0.41249 0.5169 0.0
C3755 C 0.05557 0.40384 0.52196 0.0
C3756 C 0.03048 0.38925 0.50384 0.0
C3757 C 0.04976 0.38781 0.51775 0.0
C3758 C 0.00775 0.36468 0.49287 0.0
C3759 C 0.00207 0.38532 0.47751 0.0
N3760 N 0.03743 0.38095 0.50895 0.0
N3761 N 0.01427 0.39134 0.48633 0.0
H3762 H 0.35015 0.39859 0.49959 0.0
H3763 H 0.37655 0.35413 0.46485 0.0
H3764 H 0.36193 0.38083 0.53415 0.0
H3765 H 0.40293 0.35771 0.5 0.0
H3766 H 0.35939 0.3617 0.47714 0.0
H3767 H 0.35787 0.38236 0.48639 0.0
C3768 C 0.35391 0.39089 0.50443 0.0
C3769 C 0.35557 0.39123 0.518 0.0
C3770 C 0.36897 0.36093 0.48218 0.0
C3771 C 0.36444 0.37246 0.5029 0.0
C3772 C 0.37862 0.35634 0.47519 0.0
C3773 C 0.3914 0.35561 0.48137 0.0
C3774 C 0.37225 0.36495 0.49541 0.0
C3775 C 0.39349 0.35856 0.49479 0.0
C3776 C 0.3583 0.38154 0.49686 0.0
C3777 C 0.3608 0.38121 0.5237 0.0
N3778 N 0.38412 0.36325 0.50133 0.0
N3779 N 0.3653 0.37245 0.51611 0.0
H3780 H 0.64645 0.97685 0.49871 0.0
H3781 H 0.71288 0.07023 0.48911 0.0
H3782 H 0.67405 0.00864 0.5303 0.0
H3783 H 0.67578 0.04078 0.46113 0.0
H3784 H 0.70401 0.04609 0.50268 0.0
H3785 H 0.66277 0.99843 0.48334 0.0
C3786 C 0.65617 0.98826 0.50242 0.0
C3787 C 0.65874 0.99102 0.51584 0.0
C3788 C 0.69804 0.04494 0.49345 0.0
C3789 C 0.67727 0.01589 0.49827 0.0
C3790 C 0.70303 0.05871 0.48572 0.0
C3791 C 0.69488 0.05769 0.47403 0.0
C3792 C 0.68492 0.03003 0.48942 0.0
C3793 C 0.68252 0.04229 0.46999 0.0
C3794 C 0.66541 0.00062 0.49363 0.0
C3795 C 0.67143 0.00612 0.52005 0.0
N3796 N 0.67782 0.02915 0.47773 0.0
N3797 N 0.68012 0.01808 0.51129 0.0
H3798 H 0.00056 0.66287 0.47466 0.0
H3799 H 0.04137 0.65242 0.53865 0.0
H3800 H 0.97798 0.62093 0.49978 0.0
H3801 H 0.06188 0.69754 0.51728 0.0
H3802 H 0.01713 0.64174 0.52537 0.0
H3803 H 0.02222 0.67674 0.49077 0.0
C3804 C 7e-05 0.65666 0.48362 0.0
C3805 C 0.98761 0.64064 0.48581 0.0
C3806 C 0.02684 0.65405 0.52364 0.0
C3807 C 0.01232 0.65633 0.50417 0.0
C3808 C 0.0407 0.66025 0.53133 0.0
C3809 C 0.05381 0.67593 0.52909 0.0
C3810 C 0.02606 0.66346 0.51346 0.0
C3811 C 0.05223 0.68527 0.51921 0.0
C3812 C 0.01244 0.66456 0.49279 0.0
C3813 C 0.98757 0.63314 0.49756 0.0
N3814 N 0.03868 0.67883 0.51166 0.0
N3815 N -0.0002 0.64099 0.50624 0.0
H3816 H 0.02322 0.27623 0.02827 0.0
H3817 H 0.04846 0.2507 0.96304 0.0
H3818 H 0.05735 0.25889 0.02783 0.0
H3819 H 0.03244 0.28598 0.96384 0.0
H3820 H 0.05061 0.25219 0.98669 0.0
H3821 H 0.02491 0.27838 0.00454 0.0
C3822 C 0.03113 0.27296 0.02314 0.0
C3823 C 0.04012 0.26732 0.02995 0.0
C3824 C 0.04676 0.25969 0.98165 0.0
C3825 C 0.04199 0.2696 0.00289 0.0
C3826 C 0.04559 0.25892 0.96812 0.0
C3827 C 0.04017 0.26817 0.96135 0.0
C3828 C 0.04224 0.26956 0.98851 0.0
C3829 C 0.03632 0.27834 0.9686 0.0
C3830 C 0.03215 0.27426 0.00964 0.0
C3831 C 0.05028 0.26335 0.02291 0.0
N3832 N 0.03727 0.27863 0.98178 0.0
N3833 N 0.05081 0.26437 0.00971 0.0
H3834 H 0.79798 0.81422 0.96996 0.0
H3835 H 0.77666 0.75763 0.03119 0.0
H3836 H 0.76942 0.762 0.96587 0.0
H3837 H 0.77822 0.8037 0.03311 0.0
H3838 H 0.77721 0.75936 0.00731 0.0
H3839 H 0.79412 0.81115 0.99338 0.0
C3840 C 0.79074 0.80211 0.97389 0.0
C3841 C 0.78395 0.78836 0.96577 0.0
C3842 C 0.77726 0.76898 0.01299 0.0
C3843 C 0.78003 0.78483 0.99275 0.0
C3844 C 0.77699 0.76802 0.02655 0.0
C3845 C 0.77734 0.78052 0.03402 0.0
C3846 C 0.77832 0.78273 0.00698 0.0
C3847 C 0.7778 0.79377 0.02763 0.0
C3848 C 0.78864 0.8004 0.98731 0.0
C3849 C 0.77515 0.77297 0.97166 0.0
N3850 N 0.77849 0.79464 0.01446 0.0
N3851 N 0.77355 0.77162 0.9848 0.0
H3852 H 0.25956 0.00262 0.96273 0.0
H3853 H 0.26203 0.04902 0.02729 0.0
H3854 H 0.27332 0.05327 0.96298 0.0
H3855 H 0.27122 0.00884 0.02772 0.0
H3856 H 0.26344 0.0494 0.00369 0.0
H3857 H 0.26087 0.0031 0.98659 0.0
C3858 C 0.26288 0.01383 0.96784 0.0
C3859 C 0.26633 0.02793 0.96095 0.0
C3860 C 0.26526 0.04058 0.00897 0.0
C3861 C 0.26768 0.02852 0.98807 0.0
C3862 C 0.26457 0.0404 0.0225 0.0
C3863 C 0.26662 0.02893 0.02965 0.0
C3864 C 0.26768 0.02903 0.00244 0.0
C3865 C 0.26933 0.01776 0.0227 0.0
C3866 C 0.26371 0.01412 0.9814 0.0
C3867 C 0.27067 0.04218 0.96796 0.0
N3868 N 0.26967 0.01801 0.00948 0.0
N3869 N 0.27107 0.04207 0.98116 0.0
H3870 H 0.02935 0.76368 0.96274 0.0
H3871 H 0.02644 0.81036 0.02658 0.0
H3872 H 0.03354 0.81103 0.96232 0.0
H3873 H 0.02757 0.76555 0.02777 0.0
H3874 H 0.02804 0.81021 0.00291 0.0
H3875 H 0.02785 0.7636 0.98651 0.0
C3876 C 0.02995 0.77405 0.96765 0.0
C3877 C 0.03162 0.78741 0.96055 0.0
C3878 C 0.02795 0.80041 0.00833 0.0
C3879 C 0.02992 0.7874 0.98769 0.0
C3880 C 0.02692 0.80043 0.02185 0.0
C3881 C 0.02684 0.78793 0.02915 0.0
C3882 C 0.02884 0.78776 0.00204 0.0
C3883 C 0.02776 0.77551 0.02251 0.0
C3884 C 0.02916 0.77403 0.98121 0.0
C3885 C 0.03249 0.80058 0.9674 0.0
N3886 N 0.02868 0.77571 0.00932 0.0
N3887 N 0.03158 0.80022 0.98058 0.0
H3888 H 0.22206 0.23255 0.03374 0.0
H3889 H 0.27244 0.27228 0.96857 0.0
H3890 H 0.26972 0.27531 0.03322 0.0
H3891 H 0.22679 0.22714 0.96949 0.0
H3892 H 0.27134 0.27403 0.99219 0.0
H3893 H 0.22314 0.23091 0.01011 0.0
C3894 C 0.23277 0.24158 0.02866 0.0
C3895 C 0.24583 0.25407 0.03549 0.0
C3896 C 0.26157 0.26373 0.98723 0.0
C3897 C 0.2471 0.25233 0.0084 0.0
C3898 C 0.26224 0.26267 0.97374 0.0
C3899 C 0.2497 0.24953 0.96702 0.0
C3900 C 0.24824 0.25158 0.99407 0.0
C3901 C 0.23663 0.23759 0.97423 0.0
C3902 C 0.23336 0.24066 0.01516 0.0
C3903 C 0.25928 0.26558 0.02836 0.0
N3904 N 0.23625 0.23891 0.98736 0.0
N3905 N 0.25958 0.26442 0.01521 0.0
H3906 H 0.78942 0.0557 0.96444 0.0
H3907 H 0.7597 0.00188 0.029 0.0
H3908 H 0.75996 0.00343 0.96428 0.0
H3909 H 0.78632 0.05432 0.02905 0.0
H3910 H 0.75811 0.00222 0.00533 0.0
H3911 H 0.78711 0.0555 0.9881 0.0
C3912 C 0.78242 0.04418 0.96939 0.0
C3913 C 0.77498 0.02955 0.96239 0.0
C3914 C 0.7642 0.01366 0.01052 0.0
C3915 C 0.77224 0.02921 0.98948 0.0
C3916 C 0.76503 0.01348 0.02406 0.0
C3917 C 0.77325 0.0281 0.03104 0.0
C3918 C 0.7717 0.02857 0.00389 0.0
C3919 C 0.78012 0.04275 0.02406 0.0
C3920 C 0.78104 0.04407 0.98289 0.0
C3921 C 0.76582 0.01499 0.96928 0.0
N3922 N 0.77927 0.04261 0.01088 0.0
N3923 N 0.76483 0.01518 0.98245 0.0
H3924 H 0.66402 0.58214 0.3018 0.0
H3925 H 0.71238 0.62417 0.36722 0.0
H3926 H 0.71521 0.61742 0.30263 0.0
H3927 H 0.66515 0.58078 0.36646 0.0
H3928 H 0.7126 0.62421 0.34345 0.0
H3929 H 0.66314 0.58403 0.32546 0.0
C3930 C 0.67504 0.5904 0.30696 0.0
C3931 C 0.68972 0.59961 0.30026 0.0
C3932 C 0.70217 0.61473 0.34852 0.0
C3933 C 0.68883 0.60177 0.32732 0.0
C3934 C 0.70206 0.61465 0.36209 0.0
C3935 C 0.68875 0.60242 0.3689 0.0
C3936 C 0.68886 0.60254 0.34169 0.0
C3937 C 0.67558 0.59059 0.36168 0.0
C3938 C 0.67456 0.59139 0.32046 0.0
C3939 C 0.70369 0.60997 0.30745 0.0
N3940 N 0.67599 0.59094 0.34849 0.0
N3941 N 0.7029 0.61078 0.32059 0.0
H3942 H 0.48605 0.12613 0.36802 0.0
H3943 H 0.43931 0.11889 0.30305 0.0
H3944 H 0.43371 0.10381 0.36752 0.0
H3945 H 0.48149 0.11316 0.3033 0.0
H3946 H 0.43822 0.11692 0.32689 0.0
H3947 H 0.4859 0.12476 0.34437 0.0
C3948 C 0.47449 0.12075 0.36304 0.0
C3949 C 0.45985 0.11507 0.36993 0.0
C3950 C 0.44763 0.11597 0.32171 0.0
C3951 C 0.45978 0.11404 0.34273 0.0
C3952 C 0.44828 0.11716 0.30818 0.0
C3953 C 0.46049 0.11616 0.30135 0.0
C3954 C 0.45952 0.1142 0.32839 0.0
C3955 C 0.47187 0.11391 0.30832 0.0
C3956 C 0.47447 0.12008 0.34949 0.0
C3957 C 0.44535 0.10867 0.36272 0.0
N3958 N 0.47125 0.1132 0.32152 0.0
N3959 N 0.4457 0.10849 0.34952 0.0
H3960 H 0.9443 0.37306 0.36343 0.0
H3961 H 0.90338 0.32874 0.29766 0.0
H3962 H 0.90758 0.32239 0.36224 0.0
H3963 H 0.95286 0.36867 0.29884 0.0
H3964 H 0.90351 0.32722 0.32126 0.0
H3965 H 0.94644 0.37298 0.33966 0.0
C3966 C 0.93674 0.36192 0.35813 0.0
C3967 C 0.92572 0.34772 0.36472 0.0
C3968 C 0.91437 0.33622 0.31632 0.0
C3969 C 0.92795 0.34757 0.33768 0.0
C3970 C 0.91438 0.33706 0.30279 0.0
C3971 C 0.92816 0.34886 0.2961 0.0
C3972 C 0.92809 0.34744 0.3233 0.0
C3973 C 0.94184 0.35956 0.30349 0.0
C3974 C 0.93802 0.36185 0.34462 0.0
C3975 C 0.91626 0.33355 0.35748 0.0
N3976 N 0.9414 0.3587 0.31669 0.0
N3977 N 0.91745 0.33388 0.3443 0.0
H3978 H 0.66574 0.10196 0.36639 0.0
H3979 H 0.70688 0.1458 0.29969 0.0
H3980 H 0.71387 0.14379 0.36423 0.0
H3981 H 0.66789 0.09594 0.30153 0.0
H3982 H 0.70811 0.14649 0.32337 0.0
H3983 H 0.66467 0.10084 0.34259 0.0
C3984 C 0.67605 0.11092 0.36088 0.0
C3985 C 0.68991 0.12299 0.36725 0.0
C3986 C 0.69932 0.1354 0.31857 0.0
C3987 C 0.68876 0.12182 0.34011 0.0
C3988 C 0.69865 0.13493 0.30503 0.0
C3989 C 0.68731 0.12074 0.29852 0.0
C3990 C 0.68845 0.12165 0.32572 0.0
C3991 C 0.67669 0.10722 0.30606 0.0
C3992 C 0.67548 0.11023 0.34733 0.0
C3993 C 0.70302 0.13422 0.35969 0.0
N3994 N 0.67749 0.10803 0.31926 0.0
N3995 N 0.70208 0.13343 0.3465 0.0
H3996 H 0.9174 0.60987 0.36448 0.0
H3997 H 0.96421 0.61073 0.29958 0.0
H3998 H 0.96069 0.60591 0.36459 0.0
H3999 H 0.91583 0.60411 0.30021 0.0
H4000 H 0.96496 0.61249 0.32332 0.0
H4001 H 0.91877 0.61175 0.34082 0.0
C4002 C 0.92733 0.60962 0.35953 0.0
C4003 C 0.93895 0.60771 0.36652 0.0
C4004 C 0.95423 0.61073 0.31823 0.0
C4005 C 0.94044 0.60963 0.33939 0.0
C4006 C 0.95374 0.60964 0.30468 0.0
C4007 C 0.9399 0.6072 0.29784 0.0
C4008 C 0.94081 0.60943 0.325 0.0
C4009 C 0.92685 0.60621 0.30499 0.0
C4010 C 0.92803 0.61056 0.34601 0.0
C4011 C 0.95139 0.60719 0.35956 0.0
N4012 N 0.92762 0.60729 0.31816 0.0
N4013 N 0.9518 0.60811 0.34637 0.0
H4014 H 0.45111 0.38003 0.36593 0.0
H4015 H 0.41612 0.33073 0.29955 0.0
H4016 H 0.42026 0.32796 0.36404 0.0
H4017 H 0.45365 0.38117 0.30134 0.0
H4018 H 0.41424 0.33031 0.32325 0.0
H4019 H 0.44871 0.38144 0.34237 0.0
C4020 C 0.44365 0.36892 0.36058 0.0
C4021 C 0.43597 0.35384 0.36694 0.0
C4022 C 0.42279 0.3415 0.31844 0.0
C4023 C 0.4333 0.35535 0.33996 0.0
C4024 C 0.42392 0.34174 0.30491 0.0
C4025 C 0.43518 0.35596 0.29842 0.0
C4026 C 0.43298 0.35559 0.32556 0.0
C4027 C 0.44471 0.36996 0.30588 0.0
C4028 C 0.44237 0.36972 0.34712 0.0
C4029 C 0.42659 0.33981 0.35949 0.0
N4030 N 0.44348 0.36938 0.31905 0.0
N4031 N 0.42558 0.3409 0.34639 0.0
H4032 H 0.36146 0.95112 0.6976 0.0
H4033 H 0.34002 0.89906 0.63198 0.0
H4034 H 0.34876 0.90072 0.69622 0.0
H4035 H 0.36068 0.95111 0.63254 0.0
H4036 H 0.34078 0.89907 0.65571 0.0
H4037 H 0.3594 0.95108 0.6739 0.0
C4038 C 0.35833 0.94007 0.69233 0.0
C4039 C 0.35529 0.9259 0.69895 0.0
C4040 C 0.34512 0.91049 0.65065 0.0
C4041 C 0.35267 0.92572 0.67182 0.0
C4042 C 0.34456 0.91048 0.6371 0.0
C4043 C 0.35032 0.92511 0.63027 0.0
C4044 C 0.3514 0.92524 0.65745 0.0
C4045 C 0.3563 0.93958 0.63742 0.0
C4046 C 0.35706 0.94004 0.6788 0.0
C4047 C 0.35098 0.91186 0.69158 0.0
N4048 N 0.35669 0.93928 0.65062 0.0
N4049 N 0.3498 0.91214 0.67844 0.0
H4050 H 0.126 0.43446 0.70216 0.0
H4051 H 0.11302 0.46793 0.63458 0.0
H4052 H 0.10658 0.46679 0.69896 0.0
H4053 H 0.12917 0.43293 0.63736 0.0
H4054 H 0.1099 0.46705 0.65816 0.0
H4055 H 0.12628 0.43287 0.67848 0.0
C4056 C 0.12162 0.44108 0.69649 0.0
C4057 C 0.11631 0.45083 0.70258 0.0
C4058 C 0.11407 0.45951 0.65364 0.0
C4059 C 0.11685 0.44925 0.67543 0.0
C4060 C 0.11595 0.46008 0.64018 0.0
C4061 C 0.12151 0.4506 0.63402 0.0
C4062 C 0.11786 0.44944 0.66104 0.0
C4063 C 0.1248 0.44039 0.64172 0.0
C4064 C 0.12188 0.44024 0.68295 0.0
C4065 C 0.11102 0.45934 0.6947 0.0
N4066 N 0.12302 0.44016 0.65484 0.0
N4067 N 0.11149 0.4584 0.68155 0.0
H4068 H 0.57525 0.66573 0.70095 0.0
H4069 H 0.61236 0.71193 0.63429 0.0
H4070 H 0.61001 0.71703 0.69958 0.0
H4071 H 0.56406 0.6702 0.63717 0.0
H4072 H 0.61449 0.71226 0.65797 0.0
H4073 H 0.57409 0.66525 0.67714 0.0
C4074 C 0.58274 0.67685 0.6956 0.0
C4075 C 0.59272 0.69145 0.70217 0.0
C4076 C 0.60346 0.70305 0.65336 0.0
C4077 C 0.5915 0.69097 0.67506 0.0
C4078 C 0.60215 0.70289 0.63984 0.0
C4079 C 0.58796 0.69104 0.63361 0.0
C4080 C 0.59061 0.69114 0.66072 0.0
C4081 C 0.57536 0.67941 0.64141 0.0
C4082 C 0.582 0.67659 0.68206 0.0
C4083 C 0.60208 0.70556 0.69483 0.0
N4084 N 0.57701 0.67972 0.65454 0.0
N4085 N 0.6013 0.70497 0.68163 0.0
H4086 H 0.32294 0.43311 0.69504 0.0
H4087 H 0.37496 0.46144 0.62943 0.0
H4088 H 0.37524 0.45661 0.69396 0.0
H4089 H 0.3226 0.43343 0.6301 0.0
H4090 H 0.37526 0.45954 0.6531 0.0
H4091 H 0.32246 0.43277 0.67127 0.0
C4092 C 0.33432 0.43818 0.68979 0.0
C4093 C 0.34916 0.44495 0.69649 0.0
C4094 C 0.3637 0.45374 0.64808 0.0
C4095 C 0.34871 0.44458 0.6693 0.0
C4096 C 0.36352 0.45491 0.63458 0.0
C4097 C 0.34873 0.44767 0.62781 0.0
C4098 C 0.34896 0.44536 0.6549 0.0
C4099 C 0.33428 0.43911 0.63494 0.0
C4100 C 0.33404 0.43791 0.67623 0.0
C4101 C 0.36352 0.45114 0.6892 0.0
N4102 N 0.33475 0.43828 0.64811 0.0
N4103 N 0.36295 0.4509 0.67601 0.0
H4104 H 0.61706 0.9561 0.69967 0.0
H4105 H 0.57338 0.91273 0.63301 0.0
H4106 H 0.57276 0.90981 0.69731 0.0
H4107 H 0.61979 0.957 0.63437 0.0
H4108 H 0.57267 0.91222 0.65667 0.0
H4109 H 0.61799 0.95743 0.67586 0.0
C4110 C 0.60751 0.94626 0.69414 0.0
C4111 C 0.59485 0.93279 0.70048 0.0
C4112 C 0.58302 0.92207 0.65183 0.0
C4113 C 0.59588 0.93418 0.6733 0.0
C4114 C 0.58338 0.92243 0.6383 0.0
C4115 C 0.59662 0.93499 0.63169 0.0
C4116 C 0.59599 0.93437 0.65888 0.0
C4117 C 0.6094 0.94704 0.63908 0.0
C4118 C 0.60809 0.94698 0.68057 0.0
C4119 C 0.58288 0.9203 0.69285 0.0
N4120 N 0.60875 0.94646 0.65229 0.0
N4121 N 0.58368 0.92132 0.67969 0.0
H4122 H 0.10476 0.66723 0.70032 0.0
H4123 H 0.14011 0.72502 0.63803 0.0
H4124 H 0.13793 0.7189 0.70291 0.0
H4125 H 0.11604 0.67272 0.63627 0.0
H4126 H 0.13669 0.72332 0.6617 0.0
H4127 H 0.10615 0.66934 0.67666 0.0
C4128 C 0.11236 0.67902 0.69593 0.0
C4129 C 0.12134 0.69288 0.70366 0.0
C4130 C 0.13215 0.71223 0.65612 0.0
C4131 C 0.12281 0.69541 0.67653 0.0
C4132 C 0.13403 0.71319 0.64263 0.0
C4133 C 0.12846 0.699 0.63522 0.0
C4134 C 0.12451 0.69695 0.6622 0.0
C4135 C 0.12074 0.68397 0.64165 0.0
C4136 C 0.11309 0.68022 0.68241 0.0
C4137 C 0.13067 0.7079 0.69738 0.0
N4138 N 0.11899 0.68334 0.65477 0.0
N4139 N 0.1312 0.70875 0.68419 0.0
H4140 H 0.87415 0.1017 0.13296 0.0
H4141 H 0.94175 0.1739 0.08964 0.0
H4142 H 0.87009 0.10663 0.09163 0.0
H4143 H 0.94717 0.16963 0.13087 0.0
H4144 H 0.91512 0.14948 0.09048 0.0
H4145 H 0.90043 0.12698 0.13276 0.0
C4146 C 0.87874 0.10814 0.12387 0.0
C4147 C 0.86999 0.10197 0.11227 0.0
C4148 C 0.92211 0.15385 0.09936 0.0
C4149 C 0.90001 0.13078 0.11196 0.0
C4150 C 0.93739 0.16775 0.09887 0.0
C4151 C 0.94678 0.17375 0.11018 0.0
C4152 C 0.9161 0.14581 0.11126 0.0
C4153 C 0.9403 0.16547 0.12192 0.0
C4154 C 0.89376 0.12252 0.12375 0.0
C4155 C 0.87656 0.11076 0.10075 0.0
N4156 N 0.92537 0.15188 0.12216 0.0
N4157 N 0.89115 0.12467 0.10089 0.0
H4158 H 0.94347 0.79067 0.13616 0.0
H4159 H 0.87635 0.79665 0.09395 0.0
H4160 H 0.95014 0.80589 0.09604 0.0
H4161 H 0.87632 0.7982 0.13592 0.0
H4162 H 0.90214 0.79712 0.09457 0.0
H4163 H 0.91753 0.79052 0.13633 0.0
C4164 C 0.93948 0.794 0.12741 0.0
C4165 C 0.94898 0.79839 0.11608 0.0
C4166 C 0.89653 0.79743 0.10366 0.0
C4167 C 0.91942 0.79808 0.11618 0.0
C4168 C 0.88181 0.79726 0.10332 0.0
C4169 C 0.87417 0.79762 0.1149 0.0
C4170 C 0.90368 0.79775 0.11566 0.0
C4171 C 0.88167 0.79781 0.12674 0.0
C4172 C 0.92475 0.79397 0.12753 0.0
C4173 C 0.94331 0.80265 0.10503 0.0
N4174 N 0.89602 0.79787 0.12682 0.0
N4175 N 0.92887 0.8023 0.10533 0.0
H4176 H 0.24357 0.10017 0.13717 0.0
H4177 H 0.22338 0.16333 0.10256 0.0
H4178 H 0.22949 0.09722 0.09689 0.0
H4179 H 0.24933 0.17359 0.13893 0.0
H4180 H 0.22182 0.13695 0.10187 0.0
H4181 H 0.24253 0.12528 0.13931 0.0
C4182 C 0.24027 0.10476 0.12878 0.0
C4183 C 0.23663 0.09651 0.11682 0.0
C4184 C 0.22779 0.14493 0.11004 0.0
C4185 C 0.23518 0.12509 0.11929 0.0
C4186 C 0.22856 0.15994 0.1105 0.0
C4187 C 0.23649 0.17068 0.12083 0.0
C4188 C 0.23495 0.14054 0.12 0.0
C4189 C 0.24324 0.16573 0.13074 0.0
C4190 C 0.23961 0.11906 0.13004 0.0
C4191 C 0.23213 0.10293 0.10636 0.0
N4192 N 0.24233 0.15101 0.13008 0.0
N4193 N 0.23156 0.11682 0.10785 0.0
H4194 H 0.16337 0.95735 0.88333 0.0
H4195 H 0.11931 0.86396 0.86711 0.0
H4196 H 0.18632 0.93735 0.85916 0.0
H4197 H 0.09283 0.88937 0.8735 0.0
H4198 H 0.14438 0.89012 0.86534 0.0
H4199 H 0.13778 0.93202 0.88123 0.0
C4200 C 0.16307 0.94779 0.8774 0.0
C4201 C 0.17719 0.94966 0.87139 0.0
C4202 C 0.13303 0.88991 0.86701 0.0
C4203 C 0.1478 0.92027 0.86936 0.0
C4204 C 0.11866 0.87498 0.86796 0.0
C4205 C 0.10384 0.87436 0.87061 0.0
C4206 C 0.13265 0.90433 0.86892 0.0
C4207 C 0.10395 0.88915 0.87181 0.0
C4208 C 0.1484 0.93325 0.8763 0.0
C4209 C 0.17592 0.93648 0.86419 0.0
N4210 N 0.11814 0.90349 0.87112 0.0
N4211 N 0.16153 0.92229 0.86348 0.0
H4212 H 0.15484 0.21729 0.87592 0.0
H4213 H 0.11314 0.26863 0.85429 0.0
H4214 H 0.18238 0.2682 0.86593 0.0
H4215 H 0.08991 0.22602 0.87878 0.0
H4216 H 0.13756 0.26615 0.85387 0.0
H4217 H 0.1298 0.21789 0.87219 0.0
C4218 C 0.15567 0.2286 0.87292 0.0
C4219 C 0.17081 0.24279 0.87146 0.0
C4220 C 0.127 0.25729 0.85921 0.0
C4221 C 0.14211 0.24342 0.86691 0.0
C4222 C 0.11308 0.25872 0.85953 0.0
C4223 C 0.09937 0.2476 0.86668 0.0
C4224 C 0.12718 0.24455 0.86595 0.0
C4225 C 0.09998 0.23478 0.87298 0.0
C4226 C 0.14135 0.22889 0.87072 0.0
C4227 C 0.17104 0.25694 0.86714 0.0
N4228 N 0.11364 0.23366 0.8725 0.0
N4229 N 0.1569 0.25692 0.8651 0.0
H4230 H 0.79334 0.8768 0.85967 0.0
H4231 H 0.79888 0.95062 0.90117 0.0
H4232 H 0.80958 0.88701 0.89952 0.0
H4233 H 0.78815 0.94481 0.86011 0.0
H4234 H 0.8023 0.92688 0.90063 0.0
H4235 H 0.79095 0.90132 0.85945 0.0
C4236 C 0.79644 0.88422 0.86835 0.0
C4237 C 0.80171 0.87988 0.87962 0.0
C4238 C 0.7992 0.93077 0.89172 0.0
C4239 C 0.79899 0.90786 0.87945 0.0
C4240 C 0.79712 0.94425 0.89205 0.0
C4241 C 0.79308 0.9496 0.88069 0.0
C4242 C 0.79717 0.92246 0.87995 0.0
C4243 C 0.79132 0.94111 0.86908 0.0
C4244 C 0.79514 0.89823 0.8682 0.0
C4245 C 0.8057 0.89 0.89056 0.0
N4246 N 0.79329 0.92789 0.86901 0.0
N4247 N 0.80418 0.90344 0.89021 0.0
H4248 H 0.54661 0.42803 0.42925 0.0
H4249 H 0.60418 0.50954 0.46876 0.0
H4250 H 0.53213 0.44075 0.46513 0.0
H4251 H 0.61355 0.50043 0.42951 0.0
H4252 H 0.5791 0.48309 0.46881 0.0
H4253 H 0.57251 0.45332 0.43035 0.0
C4254 C 0.54883 0.43618 0.43734 0.0
C4255 C 0.53706 0.43231 0.44703 0.0
C4256 C 0.58667 0.48688 0.46021 0.0
C4257 C 0.56689 0.46127 0.44845 0.0
C4258 C 0.601 0.50192 0.4602 0.0
C4259 C 0.61088 0.50721 0.44908 0.0
C4260 C 0.58228 0.47704 0.44906 0.0
C4261 C 0.60616 0.49692 0.43821 0.0
C4262 C 0.56368 0.45059 0.438 0.0
C4263 C 0.54086 0.44317 0.45747 0.0
N4264 N 0.59221 0.48234 0.43848 0.0
N4265 N 0.55542 0.45719 0.45788 0.0
H4266 H 0.59635 0.09519 0.46445 0.0
H4267 H 0.55394 0.14951 0.46967 0.0
H4268 H 0.62158 0.14729 0.4602 0.0
H4269 H 0.52733 0.09783 0.46259 0.0
H4270 H 0.57895 0.14834 0.47131 0.0
H4271 H 0.57112 0.09555 0.46877 0.0
C4272 C 0.5966 0.1067 0.46462 0.0
C4273 C 0.61096 0.12121 0.46182 0.0
C4274 C 0.5676 0.13723 0.46953 0.0
C4275 C 0.58234 0.12173 0.46676 0.0
C4276 C 0.55333 0.13789 0.46856 0.0
C4277 C 0.53854 0.1238 0.46575 0.0
C4278 C 0.56713 0.12236 0.46773 0.0
C4279 C 0.53844 0.109 0.46476 0.0
C4280 C 0.58223 0.1069 0.46702 0.0
C4281 C 0.61068 0.13582 0.46211 0.0
N4282 N 0.55255 0.10869 0.4656 0.0
N4283 N 0.59658 0.1357 0.46447 0.0
H4284 H 0.92458 0.43742 0.46633 0.0
H4285 H 0.90601 0.49836 0.42602 0.0
H4286 H 0.90451 0.42807 0.42758 0.0
H4287 H 0.92237 0.50701 0.4659 0.0
H4288 H 0.90576 0.47266 0.42655 0.0
H4289 H 0.92452 0.46319 0.46644 0.0
C4290 C 0.92019 0.4408 0.45785 0.0
C4291 C 0.91447 0.43055 0.44695 0.0
C4292 C 0.90937 0.48013 0.43522 0.0
C4293 C 0.91432 0.45992 0.44702 0.0
C4294 C 0.9094 0.49479 0.43495 0.0
C4295 C 0.91411 0.50485 0.44596 0.0
C4296 C 0.91413 0.47542 0.44657 0.0
C4297 C 0.91878 0.49971 0.45715 0.0
C4298 C 0.92009 0.45546 0.45794 0.0
C4299 C 0.90879 0.43545 0.43627 0.0
N4300 N 0.91867 0.48534 0.45717 0.0
N4301 N 0.90889 0.44977 0.43657 0.0
H4302 H 0.76539 0.20352 0.19155 0.0
H4303 H 0.83347 0.27612 0.23412 0.0
H4304 H 0.76738 0.20392 0.23348 0.0
H4305 H 0.83633 0.2745 0.19232 0.0
H4306 H 0.80866 0.24985 0.23372 0.0
H4307 H 0.79104 0.22949 0.19124 0.0
C4308 C 0.77125 0.20901 0.20067 0.0
C4309 C 0.76413 0.20162 0.21257 0.0
C4310 C 0.81466 0.25519 0.2246 0.0
C4311 C 0.79331 0.2313 0.21229 0.0
C4312 C 0.82879 0.27027 0.22483 0.0
C4313 C 0.8369 0.27758 0.21322 0.0
C4314 C 0.80849 0.24728 0.21269 0.0
C4315 C 0.83046 0.26925 0.20149 0.0
C4316 C 0.78584 0.22385 0.20049 0.0
C4317 C 0.7722 0.20933 0.22409 0.0
N4318 N 0.81657 0.25454 0.20151 0.0
N4319 N 0.78629 0.22373 0.22366 0.0
H4320 H 0.85511 0.61076 0.20212 0.0
H4321 H 0.76105 0.56116 0.22176 0.0
H4322 H 0.83301 0.56609 0.22404 0.0
H4323 H 0.78408 0.60944 0.20545 0.0
H4324 H 0.78669 0.56128 0.21994 0.0
H4325 H 0.82852 0.60894 0.20049 0.0
C4326 C 0.84463 0.6005 0.20647 0.0
C4327 C 0.84628 0.58864 0.21334 0.0
C4328 C 0.78613 0.57183 0.2167 0.0
C4329 C 0.81591 0.58651 0.21155 0.0
C4330 C 0.77151 0.5718 0.21779 0.0
C4331 C 0.77046 0.5854 0.21392 0.0
C4332 C 0.79988 0.58557 0.2117 0.0
C4333 C 0.78432 0.59868 0.20852 0.0
C4334 C 0.82949 0.59951 0.2056 0.0
C4335 C 0.83233 0.57565 0.21886 0.0
N4336 N 0.79849 0.59848 0.20767 0.0
N4337 N 0.81777 0.57496 0.21788 0.0
H4338 H 0.458 0.2759 0.19951 0.0
H4339 H 0.48627 0.21989 0.23613 0.0
H4340 H 0.48102 0.28688 0.23722 0.0
H4341 H 0.4594 0.20628 0.20009 0.0
H4342 H 0.4867 0.24574 0.23557 0.0
H4343 H 0.46027 0.2514 0.19861 0.0
C4344 C 0.46352 0.27317 0.2076 0.0
C4345 C 0.46927 0.28346 0.21848 0.0
C4346 C 0.48077 0.23715 0.22774 0.0
C4347 C 0.47205 0.25552 0.21745 0.0
C4348 C 0.48063 0.22242 0.22801 0.0
C4349 C 0.47275 0.21087 0.21816 0.0
C4350 C 0.47298 0.2404 0.21756 0.0
C4351 C 0.46542 0.21473 0.20798 0.0
C4352 C 0.46488 0.25922 0.20705 0.0
C4353 C 0.47658 0.27944 0.22858 0.0
N4354 N 0.46567 0.22916 0.20797 0.0
N4355 N 0.4777 0.26577 0.22783 0.0
H4356 H 0.2801 0.84186 0.80733 0.0
H4357 H 0.19365 0.78632 0.77361 0.0
H4358 H 0.26807 0.84917 0.76843 0.0
H4359 H 0.21014 0.77007 0.80639 0.0
H4360 H 0.21909 0.81215 0.77408 0.0
H4361 H 0.25271 0.81808 0.80949 0.0
C4362 C 0.27163 0.83852 0.79931 0.0
C4363 C 0.27633 0.84732 0.78764 0.0
C4364 C 0.21711 0.80297 0.78122 0.0
C4365 C 0.24517 0.82041 0.79005 0.0
C4366 C 0.2026 0.78819 0.78094 0.0
C4367 C 0.19985 0.77587 0.78983 0.0
C4368 C 0.22898 0.80555 0.7905 0.0
C4369 C 0.21173 0.7792 0.79935 0.0
C4370 C 0.25608 0.82496 0.80052 0.0
C4371 C 0.26497 0.84254 0.77752 0.0
N4372 N 0.22585 0.7937 0.79937 0.0
N4373 N 0.24993 0.82941 0.77895 0.0
H4374 H 0.29085 0.49188 0.77493 0.0
H4375 H 0.20175 0.45175 0.80543 0.0
H4376 H 0.27007 0.44791 0.79783 0.0
H4377 H 0.21618 0.4811 0.77072 0.0
H4378 H 0.22882 0.45437 0.80636 0.0
H4379 H 0.26543 0.49218 0.77698 0.0
C4380 C 0.281 0.4823 0.78041 0.0
C4381 C 0.28259 0.4697 0.78603 0.0
C4382 C 0.22604 0.46029 0.7986 0.0
C4383 C 0.25357 0.47023 0.78863 0.0
C4384 C 0.21069 0.45886 0.7981 0.0
C4385 C 0.20678 0.4661 0.78792 0.0
C4386 C 0.23757 0.46928 0.78899 0.0
C4387 C 0.21871 0.47517 0.77862 0.0
C4388 C 0.26652 0.48254 0.78162 0.0
C4389 C 0.2695 0.45792 0.79337 0.0
N4390 N 0.23358 0.47651 0.77938 0.0
N4391 N 0.25551 0.45842 0.7944 0.0
H4392 H 0.59452 0.77573 0.80627 0.0
H4393 H 0.55447 0.82602 0.7782 0.0
H4394 H 0.55789 0.75791 0.77619 0.0
H4395 H 0.60066 0.84855 0.7981 0.0
H4396 H 0.55278 0.79969 0.78061 0.0
H4397 H 0.59413 0.80125 0.80651 0.0
C4398 C 0.58637 0.77711 0.79973 0.0
C4399 C 0.57631 0.76459 0.79112 0.0
C4400 C 0.56325 0.8104 0.7845 0.0
C4401 C 0.57564 0.79373 0.79155 0.0
C4402 C 0.56428 0.82547 0.78306 0.0
C4403 C 0.57785 0.83963 0.78778 0.0
C4404 C 0.5758 0.80938 0.79079 0.0
C4405 C 0.58993 0.83801 0.79435 0.0
C4406 C 0.58612 0.79168 0.79993 0.0
C4407 C 0.56573 0.76704 0.78311 0.0
N4408 N 0.58866 0.82317 0.79561 0.0
N4409 N 0.56572 0.78132 0.7835 0.0
H4410 H 0.50992 0.60322 0.52846 0.0
H4411 H 0.41561 0.55459 0.54695 0.0
H4412 H 0.48636 0.62266 0.55248 0.0
H4413 H 0.44177 0.5309 0.53394 0.0
H4414 H 0.44055 0.58077 0.54522 0.0
H4415 H 0.4841 0.57768 0.5268 0.0
C4416 C 0.49936 0.60218 0.53336 0.0
C4417 C 0.50043 0.61517 0.54069 0.0
C4418 C 0.44081 0.56984 0.54269 0.0
C4419 C 0.47079 0.58605 0.5386 0.0
C4420 C 0.42659 0.55487 0.54373 0.0
C4421 C 0.42661 0.54045 0.54079 0.0
C4422 C 0.4552 0.57048 0.5386 0.0
C4423 C 0.44113 0.54167 0.53627 0.0
C4424 C 0.48461 0.58762 0.53234 0.0
C4425 C 0.48619 0.61316 0.54657 0.0
N4426 N 0.45488 0.55642 0.5354 0.0
N4427 N 0.47201 0.59889 0.54543 0.0
H4428 H 0.43271 0.9125 0.52973 0.0
H4429 H 0.51202 0.93022 0.56808 0.0
H4430 H 0.44929 0.94304 0.56389 0.0
H4431 H 0.50838 0.92222 0.52666 0.0
H4432 H 0.48706 0.9317 0.56751 0.0
H4433 H 0.45876 0.91317 0.5289 0.0
C4434 C 0.44181 0.91948 0.53698 0.0
C4435 C 0.43862 0.9276 0.54698 0.0
C4436 C 0.49175 0.92968 0.55853 0.0
C4437 C 0.46828 0.92801 0.54623 0.0
C4438 C 0.5059 0.92874 0.55887 0.0
C4439 C 0.51216 0.92604 0.54741 0.0
C4440 C 0.48363 0.92762 0.54668 0.0
C4441 C 0.5039 0.92435 0.53569 0.0
C4442 C 0.45665 0.91977 0.53652 0.0
C4443 C 0.45091 0.93621 0.5562 0.0
N4444 N 0.48991 0.925 0.53563 0.0
N4445 N 0.46509 0.93605 0.55568 0.0
H4446 H 0.12492 0.60911 0.53402 0.0
H4447 H 0.15278 0.55199 0.56931 0.0
H4448 H 0.15294 0.62174 0.56947 0.0
H4449 H 0.12533 0.53882 0.53354 0.0
H4450 H 0.15375 0.57806 0.56894 0.0
H4451 H 0.12543 0.58363 0.53322 0.0
C4452 C 0.13117 0.60652 0.54163 0.0
C4453 C 0.1389 0.61759 0.55183 0.0
C4454 C 0.14756 0.56951 0.56113 0.0
C4455 C 0.13961 0.58852 0.55094 0.0
C4456 C 0.1471 0.55464 0.56128 0.0
C4457 C 0.139 0.54318 0.55142 0.0
C4458 C 0.13981 0.57302 0.55106 0.0
C4459 C 0.13156 0.54721 0.54143 0.0
C4460 C 0.13152 0.59202 0.54114 0.0
C4461 C 0.147 0.6137 0.56133 0.0
N4462 N 0.13212 0.56179 0.54152 0.0
N4463 N 0.14709 0.59949 0.56068 0.0
loop_
_geom_bond_atom_site_label_1
_geom_bond_atom_site_label_2
_geom_bond_distance
_geom_bond_site_symmetry_2
_ccdc_geom_bond_type
Li0 N17 1.990 . S
Li0 O60 1.956 . S
Li0 O61 1.970 . S
Li0 O62 1.961 . S
Li1 N25 1.990 . S
Li1 O60 1.970 . S
Li1 O61 1.956 . S
Li1 O63 1.961 . S
Li2 N47 1.990 . S
Li2 O60 1.961 . S
Li2 O62 1.956 . S
Li2 O63 1.970 . S
Li3 N53 1.990 1_455 S
Li3 O61 1.961 . S
Li3 O62 1.970 . S
Li3 O63 1.956 . S
C4 C6 1.348 . S
C4 C7 1.356 . S
C4 O60 1.325 . S
N5 C8 1.314 . S
N5 C9 1.279 . S
C6 C4 1.348 . S
C6 C8 1.353 . S
C6 H64 0.929 . S
C7 C4 1.356 . S
C7 C9 1.358 . S
C7 H65 0.930 . S
C8 N5 1.314 . S
C8 C6 1.353 . S
C8 H66 0.930 . S
C9 N5 1.279 . S
C9 C7 1.358 . S
C9 H67 0.930 . S
C10 C13 1.348 . S
C10 C14 1.356 . S
C10 O61 1.325 . S
C11 N12 1.279 . S
C11 C14 1.358 . S
C11 H68 0.930 . S
N12 C11 1.279 . S
N12 C15 1.314 . S
C13 C10 1.348 . S
C13 C15 1.353 . S
C13 H69 0.929 . S
C14 C10 1.356 . S
C14 C11 1.358 . S
C14 H70 0.930 . S
C15 N12 1.314 . S
C15 C13 1.353 . S
C15 H71 0.930 . S
C16 N17 1.314 . S
C16 C21 1.353 . S
C16 H22 0.930 . S
N17 Li0 1.990 . S
N17 C16 1.314 . S
N17 C19 1.279 . S
C18 C19 1.358 . S
C18 C20 1.356 . S
C18 H72 0.930 . S
C19 N17 1.279 . S
C19 C18 1.358 . S
C19 H23 0.930 . S
C20 C18 1.356 . S
C20 C21 1.348 . S
C21 C16 1.353 . S
C21 C20 1.348 . S
C21 H73 0.929 1_455 S
H22 C16 0.930 . S
H23 C19 0.930 . S
C24 N25 1.314 . S
C24 C26 1.353 . S
C24 H30 0.930 . S
N25 Li1 1.990 . S
N25 C24 1.314 . S
N25 C28 1.279 . S
C26 C24 1.353 . S
C26 C29 1.348 . S
C26 H74 0.929 . S
C27 C28 1.358 . S
C27 C29 1.356 . S
C27 H75 0.930 . S
C28 N25 1.279 . S
C28 C27 1.358 . S
C28 H31 0.930 . S
C29 C26 1.348 . S
C29 C27 1.356 . S
H30 C24 0.930 . S
H31 C28 0.930 . S
C32 C34 1.348 . S
C32 C35 1.356 . S
C32 O62 1.325 1_655 S
N33 C36 1.314 . S
N33 C37 1.279 . S
C34 C32 1.348 . S
C34 C36 1.353 . S
C34 H76 0.929 . S
C35 C32 1.356 . S
C35 C37 1.358 . S
C35 H77 0.930 1_655 S
C36 N33 1.314 . S
C36 C34 1.353 . S
C36 H78 0.930 . S
C37 N33 1.279 . S
C37 C35 1.358 . S
C37 H79 0.930 . S
C38 C39 1.348 . S
C38 C40 1.356 . S
C38 O63 1.325 . S
C39 C38 1.348 . S
C39 C41 1.353 . S
C39 H80 0.929 . S
C40 C38 1.356 . S
C40 C42 1.358 . S
C40 H81 0.930 . S
C41 C39 1.353 . S
C41 N43 1.314 . S
C41 H82 0.930 . S
C42 C40 1.358 . S
C42 N43 1.279 . S
C42 H83 0.930 . S
N43 C41 1.314 . S
N43 C42 1.279 . S
C44 C46 1.353 . S
C44 N47 1.314 . S
C44 H50 0.930 . S
C45 N47 1.279 . S
C45 C48 1.358 . S
C45 H51 0.930 . S
C46 C44 1.353 . S
C46 C49 1.348 . S
C46 H84 0.929 . S
N47 Li2 1.990 . S
N47 C44 1.314 . S
N47 C45 1.279 . S
C48 C45 1.358 . S
C48 C49 1.356 . S
C48 H85 0.930 . S
C49 C46 1.348 . S
C49 C48 1.356 . S
H50 C44 0.930 . S
H51 C45 0.930 . S
C52 N53 1.314 . S
C52 C54 1.353 . S
C52 H58 0.930 . S
N53 Li3 1.990 1_655 S
N53 C52 1.314 . S
N53 C56 1.279 . S
C54 C52 1.353 . S
C54 C57 1.348 . S
C54 H86 0.929 . S
C55 C56 1.358 . S
C55 C57 1.356 . S
C55 H87 0.930 . S
C56 N53 1.279 . S
C56 C55 1.358 . S
C56 H59 0.922 1_655 S
C57 C54 1.348 . S
C57 C55 1.356 . S
H58 C52 0.930 . S
H59 C56 0.922 1_455 S
O60 Li0 1.956 . S
O60 Li1 1.970 . S
O60 Li2 1.961 . S
O60 C4 1.325 . S
O61 Li0 1.970 . S
O61 Li1 1.956 . S
O61 Li3 1.961 . S
O61 C10 1.325 . S
O62 Li0 1.961 . S
O62 Li2 1.956 . S
O62 Li3 1.970 . S
O62 C32 1.325 1_455 S
O63 Li1 1.961 . S
O63 Li2 1.970 . S
O63 Li3 1.956 . S
O63 C38 1.325 . S
H64 C6 0.929 . S
H65 C7 0.930 . S
H66 C8 0.930 . S
H67 C9 0.930 . S
H68 C11 0.930 . S
H69 C13 0.929 . S
H70 C14 0.930 . S
H71 C15 0.930 . S
H72 C18 0.930 . S
H73 C21 0.929 1_655 S
H74 C26 0.929 . S
H75 C27 0.930 . S
H76 C34 0.929 . S
H77 C35 0.930 1_455 S
H78 C36 0.930 . S
H79 C37 0.930 . S
H80 C39 0.929 . S
H81 C40 0.930 . S
H82 C41 0.930 . S
H83 C42 0.930 . S
H84 C46 0.929 . S
H85 C48 0.930 . S
H86 C54 0.929 . S
H87 C55 0.930 . S
Li88 N105 1.990 . S
Li88 O148 1.956 . S
Li88 O149 1.970 . S
Li88 O150 1.961 . S
Li89 N113 1.990 . S
Li89 O148 1.970 . S
Li89 O149 1.956 . S
Li89 O151 1.961 . S
Li90 N135 1.990 . S
Li90 O148 1.961 . S
Li90 O150 1.956 . S
Li90 O151 1.970 . S
Li91 N141 1.990 . S
Li91 O149 1.961 . S
Li91 O150 1.970 . S
Li91 O151 1.956 . S
C92 C94 1.348 . S
C92 C95 1.356 . S
C92 O148 1.325 . S
N93 C96 1.314 . S
N93 C97 1.279 . S
C94 C92 1.348 . S
C94 C96 1.353 . S
C94 H152 0.929 . S
C95 C92 1.356 . S
C95 C97 1.358 . S
C95 H153 0.930 . S
C96 N93 1.314 . S
C96 C94 1.353 . S
C96 H154 0.930 . S
C97 N93 1.279 . S
C97 C95 1.358 . S
C97 H155 0.930 . S
C98 C101 1.348 . S
C98 C102 1.356 . S
C98 O149 1.325 . S
C99 N100 1.279 . S
C99 C102 1.358 . S
C99 H156 0.930 . S
N100 C99 1.279 . S
N100 C103 1.314 . S
C101 C98 1.348 . S
C101 C103 1.353 . S
C101 H157 0.929 . S
C102 C98 1.356 . S
C102 C99 1.358 . S
C102 H158 0.930 . S
C103 N100 1.314 . S
C103 C101 1.353 . S
C103 H159 0.930 . S
C104 N105 1.314 . S
C104 C109 1.353 . S
C104 H110 0.930 . S
N105 Li88 1.990 . S
N105 C104 1.314 . S
N105 C107 1.279 . S
C106 C107 1.358 . S
C106 C108 1.356 . S
C106 H160 0.930 . S
C107 N105 1.279 . S
C107 C106 1.358 . S
C107 H111 0.930 . S
C108 C106 1.356 . S
C108 C109 1.348 . S
C109 C104 1.353 . S
C109 C108 1.348 . S
C109 H161 0.929 . S
H110 C104 0.930 . S
H111 C107 0.930 . S
C112 N113 1.314 . S
C112 C114 1.353 . S
C112 H118 0.930 . S
N113 Li89 1.990 . S
N113 C112 1.314 . S
N113 C116 1.279 . S
C114 C112 1.353 . S
C114 C117 1.348 . S
C114 H162 0.929 . S
C115 C116 1.358 . S
C115 C117 1.356 . S
C115 H163 0.930 . S
C116 N113 1.279 . S
C116 C115 1.358 . S
C116 H119 0.930 . S
C117 C114 1.348 . S
C117 C115 1.356 . S
H118 C112 0.930 . S
H119 C116 0.930 . S
C120 C122 1.348 . S
C120 C123 1.356 . S
C120 O150 1.325 . S
N121 C124 1.314 . S
N121 C125 1.279 . S
C122 C120 1.348 . S
C122 C124 1.353 . S
C122 H164 0.929 . S
C123 C120 1.356 . S
C123 C125 1.358 . S
C123 H165 0.930 . S
C124 N121 1.314 . S
C124 C122 1.353 . S
C124 H166 0.930 . S
C125 N121 1.279 . S
C125 C123 1.358 . S
C125 H167 0.930 . S
C126 C127 1.348 . S
C126 C128 1.356 . S
C126 O151 1.325 . S
C127 C126 1.348 . S
C127 C129 1.353 . S
C127 H168 0.929 . S
C128 C126 1.356 . S
C128 C130 1.358 . S
C128 H169 0.930 . S
C129 C127 1.353 . S
C129 N131 1.314 . S
C129 H170 0.930 . S
C130 C128 1.358 . S
C130 N131 1.279 . S
C130 H171 0.930 . S
N131 C129 1.314 . S
N131 C130 1.279 . S
C132 C134 1.353 . S
C132 N135 1.314 . S
C132 H138 0.930 . S
C133 N135 1.279 . S
C133 C136 1.358 . S
C133 H139 0.930 . S
C134 C132 1.353 . S
C134 C137 1.348 . S
C134 H172 0.929 . S
N135 Li90 1.990 . S
N135 C132 1.314 . S
N135 C133 1.279 . S
C136 C133 1.358 . S
C136 C137 1.356 . S
C136 H173 0.930 . S
C137 C134 1.348 . S
C137 C136 1.356 . S
H138 C132 0.930 . S
H139 C133 0.930 . S
C140 N141 1.314 . S
C140 C142 1.353 . S
C140 H146 0.930 . S
N141 Li91 1.990 . S
N141 C140 1.314 . S
N141 C144 1.279 . S
C142 C140 1.353 . S
C142 C145 1.348 . S
C142 H174 0.929 . S
C143 C144 1.358 . S
C143 C145 1.356 . S
C143 H175 0.930 . S
C144 N141 1.279 . S
C144 C143 1.358 . S
C144 H147 0.930 . S
C145 C142 1.348 . S
C145 C143 1.356 . S
H146 C140 0.930 . S
H147 C144 0.930 . S
O148 Li88 1.956 . S
O148 Li89 1.970 . S
O148 Li90 1.961 . S
O148 C92 1.325 . S
O149 Li88 1.970 . S
O149 Li89 1.956 . S
O149 Li91 1.961 . S
O149 C98 1.325 . S
O150 Li88 1.961 . S
O150 Li90 1.956 . S
O150 Li91 1.970 . S
O150 C120 1.325 . S
O151 Li89 1.961 . S
O151 Li90 1.970 . S
O151 Li91 1.956 . S
O151 C126 1.325 . S
H152 C94 0.929 . S
H153 C95 0.930 . S
H154 C96 0.930 . S
H155 C97 0.930 . S
H156 C99 0.930 . S
H157 C101 0.929 . S
H158 C102 0.930 . S
H159 C103 0.930 . S
H160 C106 0.930 . S
H161 C109 0.929 . S
H162 C114 0.929 . S
H163 C115 0.930 . S
H164 C122 0.929 . S
H165 C123 0.930 . S
H166 C124 0.930 . S
H167 C125 0.930 . S
H168 C127 0.929 . S
H169 C128 0.930 . S
H170 C129 0.930 . S
H171 C130 0.930 . S
H172 C134 0.929 . S
H173 C136 0.930 . S
H174 C142 0.929 . S
H175 C143 0.930 . S
Li176 N193 1.990 1_545 S
Li176 O236 1.956 . S
Li176 O237 1.970 . S
Li176 O238 1.961 . S
Li177 N201 1.990 . S
Li177 O236 1.970 . S
Li177 O237 1.956 . S
Li177 O239 1.961 . S
Li178 N223 1.990 . S
Li178 O236 1.961 . S
Li178 O238 1.956 . S
Li178 O239 1.970 . S
Li179 N229 1.990 . S
Li179 O237 1.961 . S
Li179 O238 1.970 . S
Li179 O239 1.956 . S
C180 C182 1.348 . S
C180 C183 1.356 . S
C180 O236 1.325 . S
N181 C184 1.314 . S
N181 C185 1.279 . S
C182 C180 1.348 . S
C182 C184 1.353 . S
C182 H240 0.929 . S
C183 C180 1.356 . S
C183 C185 1.358 . S
C183 H241 0.930 . S
C184 N181 1.314 . S
C184 C182 1.353 . S
C184 H242 0.930 . S
C185 N181 1.279 . S
C185 C183 1.358 . S
C185 H243 0.930 . S
C186 C189 1.348 . S
C186 C190 1.356 . S
C186 O237 1.325 1_565 S
C187 N188 1.279 . S
C187 C190 1.358 . S
C187 H244 0.930 . S
N188 C187 1.279 . S
N188 C191 1.314 . S
C189 C186 1.348 . S
C189 C191 1.353 . S
C189 H245 0.929 . S
C190 C186 1.356 . S
C190 C187 1.358 . S
C190 H246 0.930 1_565 S
C191 N188 1.314 . S
C191 C189 1.353 . S
C191 H247 0.930 . S
C192 N193 1.314 . S
C192 C197 1.353 . S
C192 H198 0.930 . S
N193 Li176 1.990 1_565 S
N193 C192 1.314 . S
N193 C195 1.279 . S
C194 C195 1.358 . S
C194 C196 1.356 . S
C194 H248 0.930 . S
C195 N193 1.279 . S
C195 C194 1.358 . S
C195 H199 0.930 . S
C196 C194 1.356 . S
C196 C197 1.348 . S
C197 C192 1.353 . S
C197 C196 1.348 . S
C197 H249 0.929 . S
H198 C192 0.930 . S
H199 C195 0.930 . S
C200 N201 1.314 . S
C200 C202 1.353 . S
C200 H206 0.930 . S
N201 Li177 1.990 . S
N201 C200 1.314 . S
N201 C204 1.279 . S
C202 C200 1.353 . S
C202 C205 1.348 . S
C202 H250 0.929 . S
C203 C204 1.358 . S
C203 C205 1.356 . S
C203 H251 0.930 . S
C204 N201 1.279 . S
C204 C203 1.358 . S
C204 H207 0.930 . S
C205 C202 1.348 . S
C205 C203 1.356 . S
H206 C200 0.930 . S
H207 C204 0.930 . S
C208 C210 1.348 . S
C208 C211 1.356 . S
C208 O238 1.325 . S
N209 C212 1.314 . S
N209 C213 1.279 . S
C210 C208 1.348 . S
C210 C212 1.353 . S
C210 H252 0.929 . S
C211 C208 1.356 . S
C211 C213 1.358 . S
C211 H253 0.930 . S
C212 N209 1.314 . S
C212 C210 1.353 . S
C212 H254 0.930 . S
C213 N209 1.279 . S
C213 C211 1.358 . S
C213 H255 0.930 . S
C214 C215 1.348 . S
C214 C216 1.356 . S
C214 O239 1.325 . S
C215 C214 1.348 . S
C215 C217 1.353 . S
C215 H256 0.929 . S
C216 C214 1.356 . S
C216 C218 1.358 . S
C216 H257 0.930 . S
C217 C215 1.353 . S
C217 N219 1.314 . S
C217 H258 0.930 . S
C218 C216 1.358 . S
C218 N219 1.279 . S
C218 H259 0.930 . S
N219 C217 1.314 . S
N219 C218 1.279 . S
C220 C222 1.353 . S
C220 N223 1.314 . S
C220 H226 0.930 . S
C221 N223 1.279 . S
C221 C224 1.358 . S
C221 H227 0.930 . S
C222 C220 1.353 . S
C222 C225 1.348 . S
C222 H260 0.929 . S
N223 Li178 1.990 . S
N223 C220 1.314 . S
N223 C221 1.279 . S
C224 C221 1.358 . S
C224 C225 1.356 . S
C224 H261 0.930 . S
C225 C222 1.348 . S
C225 C224 1.356 . S
H226 C220 0.930 . S
H227 C221 0.930 . S
C228 N229 1.314 . S
C228 C230 1.353 . S
C228 H234 0.930 1_545 S
N229 Li179 1.990 . S
N229 C228 1.314 . S
N229 C232 1.279 . S
C230 C228 1.353 . S
C230 C233 1.348 . S
C230 H262 0.929 1_545 S
C231 C232 1.358 . S
C231 C233 1.356 . S
C231 H263 0.930 . S
C232 N229 1.279 . S
C232 C231 1.358 . S
C232 H235 0.930 . S
C233 C230 1.348 . S
C233 C231 1.356 . S
H234 C228 0.930 1_565 S
H235 C232 0.930 . S
O236 Li176 1.956 . S
O236 Li177 1.970 . S
O236 Li178 1.961 . S
O236 C180 1.325 . S
O237 Li176 1.970 . S
O237 Li177 1.956 . S
O237 Li179 1.961 . S
O237 C186 1.325 1_545 S
O238 Li176 1.961 . S
O238 Li178 1.956 . S
O238 Li179 1.970 . S
O238 C208 1.325 . S
O239 Li177 1.961 . S
O239 Li178 1.970 . S
O239 Li179 1.956 . S
O239 C214 1.325 . S
H240 C182 0.929 . S
H241 C183 0.930 . S
H242 C184 0.930 . S
H243 C185 0.930 . S
H244 C187 0.930 . S
H245 C189 0.929 . S
H246 C190 0.930 1_545 S
H247 C191 0.930 . S
H248 C194 0.930 . S
H249 C197 0.929 . S
H250 C202 0.929 . S
H251 C203 0.930 . S
H252 C210 0.929 . S
H253 C211 0.930 . S
H254 C212 0.930 . S
H255 C213 0.930 . S
H256 C215 0.929 . S
H257 C216 0.930 . S
H258 C217 0.930 . S
H259 C218 0.930 . S
H260 C222 0.929 . S
H261 C224 0.930 . S
H262 C230 0.929 1_565 S
H263 C231 0.930 . S
Li264 N281 1.990 1_545 S
Li264 O324 1.956 . S
Li264 O325 1.970 . S
Li264 O326 1.961 . S
Li265 N289 1.990 . S
Li265 O324 1.970 . S
Li265 O325 1.956 . S
Li265 O327 1.961 . S
Li266 N311 1.990 . S
Li266 O324 1.961 . S
Li266 O326 1.956 . S
Li266 O327 1.970 . S
Li267 N317 1.990 . S
Li267 O325 1.961 . S
Li267 O326 1.970 . S
Li267 O327 1.956 . S
C268 C270 1.348 . S
C268 C271 1.356 . S
C268 O324 1.325 . S
N269 C272 1.314 . S
N269 C273 1.279 . S
C270 C268 1.348 . S
C270 C272 1.353 . S
C270 H328 0.929 . S
C271 C268 1.356 . S
C271 C273 1.358 . S
C271 H329 0.930 . S
C272 N269 1.314 . S
C272 C270 1.353 . S
C272 H330 0.930 . S
C273 N269 1.279 . S
C273 C271 1.358 . S
C273 H331 0.930 . S
C274 C277 1.348 . S
C274 C278 1.356 . S
C274 O325 1.325 1_565 S
C275 N276 1.279 . S
C275 C278 1.358 . S
C275 H332 0.930 . S
N276 C275 1.279 . S
N276 C279 1.314 . S
C277 C274 1.348 . S
C277 C279 1.353 . S
C277 H333 0.929 . S
C278 C274 1.356 . S
C278 C275 1.358 . S
C278 H334 0.930 1_565 S
C279 N276 1.314 . S
C279 C277 1.353 . S
C279 H335 0.930 . S
C280 N281 1.314 . S
C280 C285 1.353 . S
C280 H286 0.930 . S
N281 Li264 1.990 1_565 S
N281 C280 1.314 . S
N281 C283 1.279 . S
C282 C283 1.358 . S
C282 C284 1.356 . S
C282 H336 0.930 . S
C283 N281 1.279 . S
C283 C282 1.358 . S
C283 H287 0.922 1_565 S
C284 C282 1.356 . S
C284 C285 1.348 . S
C285 C280 1.353 . S
C285 C284 1.348 . S
C285 H337 0.929 . S
H286 C280 0.930 . S
H287 C283 0.922 1_545 S
C288 N289 1.314 . S
C288 C290 1.353 . S
C288 H294 0.930 . S
N289 Li265 1.990 . S
N289 C288 1.314 . S
N289 C292 1.279 . S
C290 C288 1.353 . S
C290 C293 1.348 . S
C290 H338 0.929 . S
C291 C292 1.358 . S
C291 C293 1.356 . S
C291 H339 0.930 . S
C292 N289 1.279 . S
C292 C291 1.358 . S
C292 H295 0.930 . S
C293 C290 1.348 . S
C293 C291 1.356 . S
H294 C288 0.930 . S
H295 C292 0.930 . S
C296 C298 1.348 . S
C296 C299 1.356 . S
C296 O326 1.325 . S
N297 C300 1.314 . S
N297 C301 1.279 . S
C298 C296 1.348 . S
C298 C300 1.353 . S
C298 H340 0.929 . S
C299 C296 1.356 . S
C299 C301 1.358 . S
C299 H341 0.930 . S
C300 N297 1.314 . S
C300 C298 1.353 . S
C300 H342 0.930 . S
C301 N297 1.279 . S
C301 C299 1.358 . S
C301 H343 0.930 . S
C302 C303 1.348 . S
C302 C304 1.356 . S
C302 O327 1.325 . S
C303 C302 1.348 . S
C303 C305 1.353 . S
C303 H344 0.929 . S
C304 C302 1.356 . S
C304 C306 1.358 . S
C304 H345 0.930 . S
C305 C303 1.353 . S
C305 N307 1.314 . S
C305 H346 0.930 . S
C306 C304 1.358 . S
C306 N307 1.279 . S
C306 H347 0.930 . S
N307 C305 1.314 . S
N307 C306 1.279 . S
C308 C310 1.353 . S
C308 N311 1.314 . S
C308 H314 0.930 . S
C309 N311 1.279 . S
C309 C312 1.358 . S
C309 H315 0.930 . S
C310 C308 1.353 . S
C310 C313 1.348 . S
C310 H348 0.929 . S
N311 Li266 1.990 . S
N311 C308 1.314 . S
N311 C309 1.279 . S
C312 C309 1.358 . S
C312 C313 1.356 . S
C312 H349 0.930 . S
C313 C310 1.348 . S
C313 C312 1.356 . S
H314 C308 0.930 . S
H315 C309 0.930 . S
C316 N317 1.314 . S
C316 C318 1.353 . S
C316 H322 0.930 . S
N317 Li267 1.990 . S
N317 C316 1.314 . S
N317 C320 1.279 . S
C318 C316 1.353 . S
C318 C321 1.348 . S
C318 H350 0.929 1_545 S
C319 C320 1.358 . S
C319 C321 1.356 . S
C319 H351 0.930 . S
C320 N317 1.279 . S
C320 C319 1.358 . S
C320 H323 0.930 . S
C321 C318 1.348 . S
C321 C319 1.356 . S
H322 C316 0.930 . S
H323 C320 0.930 . S
O324 Li264 1.956 . S
O324 Li265 1.970 . S
O324 Li266 1.961 . S
O324 C268 1.325 . S
O325 Li264 1.970 . S
O325 Li265 1.956 . S
O325 Li267 1.961 . S
O325 C274 1.325 1_545 S
O326 Li264 1.961 . S
O326 Li266 1.956 . S
O326 Li267 1.970 . S
O326 C296 1.325 . S
O327 Li265 1.961 . S
O327 Li266 1.970 . S
O327 Li267 1.956 . S
O327 C302 1.325 . S
H328 C270 0.929 . S
H329 C271 0.930 . S
H330 C272 0.930 . S
H331 C273 0.930 . S
H332 C275 0.930 . S
H333 C277 0.929 . S
H334 C278 0.930 1_545 S
H335 C279 0.930 . S
H336 C282 0.930 . S
H337 C285 0.929 . S
H338 C290 0.929 . S
H339 C291 0.930 . S
H340 C298 0.929 . S
H341 C299 0.930 . S
H342 C300 0.930 . S
H343 C301 0.930 . S
H344 C303 0.929 . S
H345 C304 0.930 . S
H346 C305 0.930 . S
H347 C306 0.930 . S
H348 C310 0.929 . S
H349 C312 0.930 . S
H350 C318 0.929 1_565 S
H351 C319 0.930 . S
Li352 N369 1.990 . S
Li352 O412 1.956 . S
Li352 O413 1.970 . S
Li352 O414 1.961 . S
Li353 N377 1.990 . S
Li353 O412 1.970 . S
Li353 O413 1.956 . S
Li353 O415 1.961 . S
Li354 N399 1.990 . S
Li354 O412 1.961 . S
Li354 O414 1.956 . S
Li354 O415 1.970 . S
Li355 N405 1.990 1_455 S
Li355 O413 1.961 . S
Li355 O414 1.970 . S
Li355 O415 1.956 . S
C356 C358 1.348 . S
C356 C359 1.356 . S
C356 O412 1.325 . S
N357 C360 1.314 . S
N357 C361 1.279 . S
C358 C356 1.348 . S
C358 C360 1.353 . S
C358 H416 0.929 . S
C359 C356 1.356 . S
C359 C361 1.358 . S
C359 H417 0.930 . S
C360 N357 1.314 . S
C360 C358 1.353 . S
C360 H418 0.930 . S
C361 N357 1.279 . S
C361 C359 1.358 . S
C361 H419 0.930 . S
C362 C365 1.348 . S
C362 C366 1.356 . S
C362 O413 1.325 . S
C363 N364 1.279 . S
C363 C366 1.358 . S
C363 H420 0.930 . S
N364 C363 1.279 . S
N364 C367 1.314 . S
C365 C362 1.348 . S
C365 C367 1.353 . S
C365 H421 0.929 . S
C366 C362 1.356 . S
C366 C363 1.358 . S
C366 H422 0.930 . S
C367 N364 1.314 . S
C367 C365 1.353 . S
C367 H423 0.930 . S
C368 N369 1.314 . S
C368 C373 1.353 . S
C368 H374 0.930 1_455 S
N369 Li352 1.990 . S
N369 C368 1.314 . S
N369 C371 1.279 . S
C370 C371 1.358 . S
C370 C372 1.356 . S
C370 H424 0.930 . S
C371 N369 1.279 . S
C371 C370 1.358 . S
C371 H375 0.930 . S
C372 C370 1.356 . S
C372 C373 1.348 . S
C373 C368 1.353 . S
C373 C372 1.348 . S
C373 H425 0.929 1_455 S
H374 C368 0.930 1_655 S
H375 C371 0.930 . S
C376 N377 1.314 . S
C376 C378 1.353 . S
C376 H382 0.930 . S
N377 Li353 1.990 . S
N377 C376 1.314 . S
N377 C380 1.279 . S
C378 C376 1.353 . S
C378 C381 1.348 . S
C378 H426 0.929 . S
C379 C380 1.358 . S
C379 C381 1.356 . S
C379 H427 0.930 . S
C380 N377 1.279 . S
C380 C379 1.358 . S
C380 H383 0.930 . S
C381 C378 1.348 . S
C381 C379 1.356 . S
H382 C376 0.930 . S
H383 C380 0.930 . S
C384 C386 1.348 . S
C384 C387 1.356 . S
C384 O414 1.325 1_655 S
N385 C388 1.314 . S
N385 C389 1.279 . S
C386 C384 1.348 . S
C386 C388 1.353 . S
C386 H428 0.929 . S
C387 C384 1.356 . S
C387 C389 1.358 . S
C387 H429 0.930 1_655 S
C388 N385 1.314 . S
C388 C386 1.353 . S
C388 H430 0.930 . S
C389 N385 1.279 . S
C389 C387 1.358 . S
C389 H431 0.930 . S
C390 C391 1.348 . S
C390 C392 1.356 . S
C390 O415 1.325 . S
C391 C390 1.348 . S
C391 C393 1.353 . S
C391 H432 0.929 . S
C392 C390 1.356 . S
C392 C394 1.358 . S
C392 H433 0.930 . S
C393 C391 1.353 . S
C393 N395 1.314 . S
C393 H434 0.930 . S
C394 C392 1.358 . S
C394 N395 1.279 . S
C394 H435 0.930 . S
N395 C393 1.314 . S
N395 C394 1.279 . S
C396 C398 1.353 . S
C396 N399 1.314 . S
C396 H402 0.930 . S
C397 N399 1.279 . S
C397 C400 1.358 . S
C397 H403 0.930 . S
C398 C396 1.353 . S
C398 C401 1.348 . S
C398 H436 0.929 . S
N399 Li354 1.990 . S
N399 C396 1.314 . S
N399 C397 1.279 . S
C400 C397 1.358 . S
C400 C401 1.356 . S
C400 H437 0.930 . S
C401 C398 1.348 . S
C401 C400 1.356 . S
H402 C396 0.930 . S
H403 C397 0.930 . S
C404 N405 1.314 . S
C404 C406 1.353 . S
C404 H410 0.930 . S
N405 Li355 1.990 1_655 S
N405 C404 1.314 . S
N405 C408 1.279 . S
C406 C404 1.353 . S
C406 C409 1.348 . S
C406 H438 0.929 . S
C407 C408 1.358 . S
C407 C409 1.356 . S
C407 H439 0.930 . S
C408 N405 1.279 . S
C408 C407 1.358 . S
C408 H411 0.930 . S
C409 C406 1.348 . S
C409 C407 1.356 . S
H410 C404 0.930 . S
H411 C408 0.930 . S
O412 Li352 1.956 . S
O412 Li353 1.970 . S
O412 Li354 1.961 . S
O412 C356 1.325 . S
O413 Li352 1.970 . S
O413 Li353 1.956 . S
O413 Li355 1.961 . S
O413 C362 1.325 . S
O414 Li352 1.961 . S
O414 Li354 1.956 . S
O414 Li355 1.970 . S
O414 C384 1.325 1_455 S
O415 Li353 1.961 . S
O415 Li354 1.970 . S
O415 Li355 1.956 . S
O415 C390 1.325 . S
H416 C358 0.929 . S
H417 C359 0.930 . S
H418 C360 0.930 . S
H419 C361 0.930 . S
H420 C363 0.930 . S
H421 C365 0.929 . S
H422 C366 0.930 . S
H423 C367 0.930 . S
H424 C370 0.930 . S
H425 C373 0.929 1_655 S
H426 C378 0.929 . S
H427 C379 0.930 . S
H428 C386 0.929 . S
H429 C387 0.930 1_455 S
H430 C388 0.930 . S
H431 C389 0.930 . S
H432 C391 0.929 . S
H433 C392 0.930 . S
H434 C393 0.930 . S
H435 C394 0.930 . S
H436 C398 0.929 . S
H437 C400 0.930 . S
H438 C406 0.929 . S
H439 C407 0.930 . S
Li440 N457 1.990 . S
Li440 O500 1.956 . S
Li440 O501 1.970 . S
Li440 O502 1.961 . S
Li441 N465 1.990 . S
Li441 O500 1.970 . S
Li441 O501 1.956 . S
Li441 O503 1.961 . S
Li442 N487 1.990 . S
Li442 O500 1.961 . S
Li442 O502 1.956 . S
Li442 O503 1.970 . S
Li443 N493 1.990 . S
Li443 O501 1.961 . S
Li443 O502 1.970 . S
Li443 O503 1.956 . S
C444 C446 1.348 . S
C444 C447 1.356 . S
C444 O500 1.325 . S
N445 C448 1.314 . S
N445 C449 1.279 . S
C446 C444 1.348 . S
C446 C448 1.353 . S
C446 H504 0.929 . S
C447 C444 1.356 . S
C447 C449 1.358 . S
C447 H505 0.930 . S
C448 N445 1.314 . S
C448 C446 1.353 . S
C448 H506 0.930 . S
C449 N445 1.279 . S
C449 C447 1.358 . S
C449 H507 0.930 . S
C450 C453 1.348 . S
C450 C454 1.356 . S
C450 O501 1.325 . S
C451 N452 1.279 . S
C451 C454 1.358 . S
C451 H508 0.930 . S
N452 C451 1.279 . S
N452 C455 1.314 . S
C453 C450 1.348 . S
C453 C455 1.353 . S
C453 H509 0.929 . S
C454 C450 1.356 . S
C454 C451 1.358 . S
C454 H510 0.930 . S
C455 N452 1.314 . S
C455 C453 1.353 . S
C455 H511 0.930 . S
C456 N457 1.314 . S
C456 C461 1.353 . S
C456 H462 0.930 . S
N457 Li440 1.990 . S
N457 C456 1.314 . S
N457 C459 1.279 . S
C458 C459 1.358 . S
C458 C460 1.356 . S
C458 H512 0.930 . S
C459 N457 1.279 . S
C459 C458 1.358 . S
C459 H463 0.930 . S
C460 C458 1.356 . S
C460 C461 1.348 . S
C461 C456 1.353 . S
C461 C460 1.348 . S
C461 H513 0.929 . S
H462 C456 0.930 . S
H463 C459 0.930 . S
C464 N465 1.314 . S
C464 C466 1.353 . S
C464 H470 0.930 . S
N465 Li441 1.990 . S
N465 C464 1.314 . S
N465 C468 1.279 . S
C466 C464 1.353 . S
C466 C469 1.348 . S
C466 H514 0.929 . S
C467 C468 1.358 . S
C467 C469 1.356 . S
C467 H515 0.930 . S
C468 N465 1.279 . S
C468 C467 1.358 . S
C468 H471 0.930 . S
C469 C466 1.348 . S
C469 C467 1.356 . S
H470 C464 0.930 . S
H471 C468 0.930 . S
C472 C474 1.348 . S
C472 C475 1.356 . S
C472 O502 1.325 . S
N473 C476 1.314 . S
N473 C477 1.279 . S
C474 C472 1.348 . S
C474 C476 1.353 . S
C474 H516 0.929 . S
C475 C472 1.356 . S
C475 C477 1.358 . S
C475 H517 0.930 . S
C476 N473 1.314 . S
C476 C474 1.353 . S
C476 H518 0.930 . S
C477 N473 1.279 . S
C477 C475 1.358 . S
C477 H519 0.930 . S
C478 C479 1.348 . S
C478 C480 1.356 . S
C478 O503 1.325 . S
C479 C478 1.348 . S
C479 C481 1.353 . S
C479 H520 0.929 . S
C480 C478 1.356 . S
C480 C482 1.358 . S
C480 H521 0.930 . S
C481 C479 1.353 . S
C481 N483 1.314 . S
C481 H522 0.930 . S
C482 C480 1.358 . S
C482 N483 1.279 . S
C482 H523 0.930 . S
N483 C481 1.314 . S
N483 C482 1.279 . S
C484 C486 1.353 . S
C484 N487 1.314 . S
C484 H490 0.930 . S
C485 N487 1.279 . S
C485 C488 1.358 . S
C485 H491 0.930 . S
C486 C484 1.353 . S
C486 C489 1.348 . S
C486 H524 0.929 . S
N487 Li442 1.990 . S
N487 C484 1.314 . S
N487 C485 1.279 . S
C488 C485 1.358 . S
C488 C489 1.356 . S
C488 H525 0.930 . S
C489 C486 1.348 . S
C489 C488 1.356 . S
H490 C484 0.930 . S
H491 C485 0.930 . S
C492 N493 1.314 . S
C492 C494 1.353 . S
C492 H498 0.930 . S
N493 Li443 1.990 . S
N493 C492 1.314 . S
N493 C496 1.279 . S
C494 C492 1.353 . S
C494 C497 1.348 . S
C494 H526 0.929 . S
C495 C496 1.358 . S
C495 C497 1.356 . S
C495 H527 0.930 . S
C496 N493 1.279 . S
C496 C495 1.358 . S
C496 H499 0.930 . S
C497 C494 1.348 . S
C497 C495 1.356 . S
H498 C492 0.930 . S
H499 C496 0.930 . S
O500 Li440 1.956 . S
O500 Li441 1.970 . S
O500 Li442 1.961 . S
O500 C444 1.325 . S
O501 Li440 1.970 . S
O501 Li441 1.956 . S
O501 Li443 1.961 . S
O501 C450 1.325 . S
O502 Li440 1.961 . S
O502 Li442 1.956 . S
O502 Li443 1.970 . S
O502 C472 1.325 . S
O503 Li441 1.961 . S
O503 Li442 1.970 . S
O503 Li443 1.956 . S
O503 C478 1.325 . S
H504 C446 0.929 . S
H505 C447 0.930 . S
H506 C448 0.930 . S
H507 C449 0.930 . S
H508 C451 0.930 . S
H509 C453 0.929 . S
H510 C454 0.930 . S
H511 C455 0.930 . S
H512 C458 0.930 . S
H513 C461 0.929 . S
H514 C466 0.929 . S
H515 C467 0.930 . S
H516 C474 0.929 . S
H517 C475 0.930 . S
H518 C476 0.930 . S
H519 C477 0.930 . S
H520 C479 0.929 . S
H521 C480 0.930 . S
H522 C481 0.930 . S
H523 C482 0.930 . S
H524 C486 0.929 . S
H525 C488 0.930 . S
H526 C494 0.929 . S
H527 C495 0.930 . S
Li528 N545 1.990 . S
Li528 O588 1.956 . S
Li528 O589 1.970 . S
Li528 O590 1.961 . S
Li529 N553 1.990 . S
Li529 O588 1.970 . S
Li529 O589 1.956 . S
Li529 O591 1.961 . S
Li530 N575 1.990 . S
Li530 O588 1.961 . S
Li530 O590 1.956 . S
Li530 O591 1.970 . S
Li531 N581 1.990 1_455 S
Li531 O589 1.961 . S
Li531 O590 1.970 . S
Li531 O591 1.956 . S
C532 C534 1.348 . S
C532 C535 1.356 . S
C532 O588 1.325 . S
N533 C536 1.314 . S
N533 C537 1.279 . S
C534 C532 1.348 . S
C534 C536 1.353 . S
C534 H592 0.929 . S
C535 C532 1.356 . S
C535 C537 1.358 . S
C535 H593 0.930 . S
C536 N533 1.314 . S
C536 C534 1.353 . S
C536 H594 0.930 . S
C537 N533 1.279 . S
C537 C535 1.358 . S
C537 H595 0.930 . S
C538 C541 1.348 . S
C538 C542 1.356 . S
C538 O589 1.325 . S
C539 N540 1.279 . S
C539 C542 1.358 . S
C539 H596 0.930 . S
N540 C539 1.279 . S
N540 C543 1.314 . S
C541 C538 1.348 . S
C541 C543 1.353 . S
C541 H597 0.929 . S
C542 C538 1.356 . S
C542 C539 1.358 . S
C542 H598 0.930 . S
C543 N540 1.314 . S
C543 C541 1.353 . S
C543 H599 0.930 . S
C544 N545 1.314 . S
C544 C549 1.353 . S
C544 H550 0.930 . S
N545 Li528 1.990 . S
N545 C544 1.314 . S
N545 C547 1.279 . S
C546 C547 1.358 . S
C546 C548 1.356 . S
C546 H600 0.930 . S
C547 N545 1.279 . S
C547 C546 1.358 . S
C547 H551 0.930 . S
C548 C546 1.356 . S
C548 C549 1.348 . S
C549 C544 1.353 . S
C549 C548 1.348 . S
C549 H601 0.929 . S
H550 C544 0.930 . S
H551 C547 0.930 . S
C552 N553 1.314 . S
C552 C554 1.353 . S
C552 H558 0.930 . S
N553 Li529 1.990 . S
N553 C552 1.314 . S
N553 C556 1.279 . S
C554 C552 1.353 . S
C554 C557 1.348 . S
C554 H602 0.929 . S
C555 C556 1.358 . S
C555 C557 1.356 . S
C555 H603 0.930 . S
C556 N553 1.279 . S
C556 C555 1.358 . S
C556 H559 0.930 . S
C557 C554 1.348 . S
C557 C555 1.356 . S
H558 C552 0.930 . S
H559 C556 0.930 . S
C560 C562 1.348 . S
C560 C563 1.356 . S
C560 O590 1.325 1_655 S
N561 C564 1.314 . S
N561 C565 1.279 . S
C562 C560 1.348 . S
C562 C564 1.353 . S
C562 H604 0.929 . S
C563 C560 1.356 . S
C563 C565 1.358 . S
C563 H605 0.930 1_655 S
C564 N561 1.314 . S
C564 C562 1.353 . S
C564 H606 0.930 . S
C565 N561 1.279 . S
C565 C563 1.358 . S
C565 H607 0.930 . S
C566 C567 1.348 . S
C566 C568 1.356 . S
C566 O591 1.325 . S
C567 C566 1.348 . S
C567 C569 1.353 . S
C567 H608 0.929 . S
C568 C566 1.356 . S
C568 C570 1.358 . S
C568 H609 0.930 . S
C569 C567 1.353 . S
C569 N571 1.314 . S
C569 H610 0.930 . S
C570 C568 1.358 . S
C570 N571 1.279 . S
C570 H611 0.930 . S
N571 C569 1.314 . S
N571 C570 1.279 . S
C572 C574 1.353 . S
C572 N575 1.314 . S
C572 H578 0.930 . S
C573 N575 1.279 . S
C573 C576 1.358 . S
C573 H579 0.930 1_455 S
C574 C572 1.353 . S
C574 C577 1.348 . S
C574 H612 0.929 . S
N575 Li530 1.990 . S
N575 C572 1.314 . S
N575 C573 1.279 . S
C576 C573 1.358 . S
C576 C577 1.356 . S
C576 H613 0.930 1_455 S
C577 C574 1.348 . S
C577 C576 1.356 . S
H578 C572 0.930 . S
H579 C573 0.930 1_655 S
C580 N581 1.314 . S
C580 C582 1.353 . S
C580 H586 0.930 . S
N581 Li531 1.990 1_655 S
N581 C580 1.314 . S
N581 C584 1.279 . S
C582 C580 1.353 . S
C582 C585 1.348 . S
C582 H614 0.929 . S
C583 C584 1.358 . S
C583 C585 1.356 . S
C583 H615 0.930 . S
C584 N581 1.279 . S
C584 C583 1.358 . S
C584 H587 0.930 . S
C585 C582 1.348 . S
C585 C583 1.356 . S
H586 C580 0.930 . S
H587 C584 0.930 . S
O588 Li528 1.956 . S
O588 Li529 1.970 . S
O588 Li530 1.961 . S
O588 C532 1.325 . S
O589 Li528 1.970 . S
O589 Li529 1.956 . S
O589 Li531 1.961 . S
O589 C538 1.325 . S
O590 Li528 1.961 . S
O590 Li530 1.956 . S
O590 Li531 1.970 . S
O590 C560 1.325 1_455 S
O591 Li529 1.961 . S
O591 Li530 1.970 . S
O591 Li531 1.956 . S
O591 C566 1.325 . S
H592 C534 0.929 . S
H593 C535 0.930 . S
H594 C536 0.930 . S
H595 C537 0.930 . S
H596 C539 0.930 . S
H597 C541 0.929 . S
H598 C542 0.930 . S
H599 C543 0.930 . S
H600 C546 0.930 . S
H601 C549 0.929 . S
H602 C554 0.929 . S
H603 C555 0.930 . S
H604 C562 0.929 . S
H605 C563 0.930 1_455 S
H606 C564 0.930 . S
H607 C565 0.930 . S
H608 C567 0.929 . S
H609 C568 0.930 . S
H610 C569 0.930 . S
H611 C570 0.930 . S
H612 C574 0.929 . S
H613 C576 0.930 1_655 S
H614 C582 0.929 . S
H615 C583 0.930 . S
Li616 N633 1.990 . S
Li616 O676 1.956 . S
Li616 O677 1.970 . S
Li616 O678 1.961 . S
Li617 N641 1.990 . S
Li617 O676 1.970 . S
Li617 O677 1.956 . S
Li617 O679 1.961 . S
Li618 N663 1.990 . S
Li618 O676 1.961 . S
Li618 O678 1.956 . S
Li618 O679 1.970 . S
Li619 N669 1.990 . S
Li619 O677 1.961 . S
Li619 O678 1.970 . S
Li619 O679 1.956 . S
C620 C622 1.348 . S
C620 C623 1.356 . S
C620 O676 1.325 . S
N621 C624 1.314 . S
N621 C625 1.279 . S
C622 C620 1.348 . S
C622 C624 1.353 . S
C622 H680 0.929 . S
C623 C620 1.356 . S
C623 C625 1.358 . S
C623 H681 0.930 . S
C624 N621 1.314 . S
C624 C622 1.353 . S
C624 H682 0.930 . S
C625 N621 1.279 . S
C625 C623 1.358 . S
C625 H683 0.930 . S
C626 C629 1.348 . S
C626 C630 1.356 . S
C626 O677 1.325 . S
C627 N628 1.279 . S
C627 C630 1.358 . S
C627 H684 0.930 . S
N628 C627 1.279 . S
N628 C631 1.314 . S
C629 C626 1.348 . S
C629 C631 1.353 . S
C629 H685 0.929 . S
C630 C626 1.356 . S
C630 C627 1.358 . S
C630 H686 0.930 . S
C631 N628 1.314 . S
C631 C629 1.353 . S
C631 H687 0.930 . S
C632 N633 1.314 . S
C632 C637 1.353 . S
C632 H638 0.930 . S
N633 Li616 1.990 . S
N633 C632 1.314 . S
N633 C635 1.279 . S
C634 C635 1.358 . S
C634 C636 1.356 . S
C634 H688 0.930 . S
C635 N633 1.279 . S
C635 C634 1.358 . S
C635 H639 0.930 . S
C636 C634 1.356 . S
C636 C637 1.348 . S
C637 C632 1.353 . S
C637 C636 1.348 . S
C637 H689 0.929 . S
H638 C632 0.930 . S
H639 C635 0.930 . S
C640 N641 1.314 . S
C640 C642 1.353 . S
C640 H646 0.930 . S
N641 Li617 1.990 . S
N641 C640 1.314 . S
N641 C644 1.279 . S
C642 C640 1.353 . S
C642 C645 1.348 . S
C642 H690 0.929 . S
C643 C644 1.358 . S
C643 C645 1.356 . S
C643 H691 0.930 . S
C644 N641 1.279 . S
C644 C643 1.358 . S
C644 H647 0.930 . S
C645 C642 1.348 . S
C645 C643 1.356 . S
H646 C640 0.930 . S
H647 C644 0.930 . S
C648 C650 1.348 . S
C648 C651 1.356 . S
C648 O678 1.325 . S
N649 C652 1.314 . S
N649 C653 1.279 . S
C650 C648 1.348 . S
C650 C652 1.353 . S
C650 H692 0.929 . S
C651 C648 1.356 . S
C651 C653 1.358 . S
C651 H693 0.930 . S
C652 N649 1.314 . S
C652 C650 1.353 . S
C652 H694 0.930 . S
C653 N649 1.279 . S
C653 C651 1.358 . S
C653 H695 0.930 . S
C654 C655 1.348 . S
C654 C656 1.356 . S
C654 O679 1.325 . S
C655 C654 1.348 . S
C655 C657 1.353 . S
C655 H696 0.929 . S
C656 C654 1.356 . S
C656 C658 1.358 . S
C656 H697 0.930 . S
C657 C655 1.353 . S
C657 N659 1.314 . S
C657 H698 0.930 . S
C658 C656 1.358 . S
C658 N659 1.279 . S
C658 H699 0.930 . S
N659 C657 1.314 . S
N659 C658 1.279 . S
C660 C662 1.353 . S
C660 N663 1.314 . S
C660 H666 0.930 . S
C661 N663 1.279 . S
C661 C664 1.358 . S
C661 H667 0.930 . S
C662 C660 1.353 . S
C662 C665 1.348 . S
C662 H700 0.929 . S
N663 Li618 1.990 . S
N663 C660 1.314 . S
N663 C661 1.279 . S
C664 C661 1.358 . S
C664 C665 1.356 . S
C664 H701 0.930 . S
C665 C662 1.348 . S
C665 C664 1.356 . S
H666 C660 0.930 . S
H667 C661 0.930 . S
C668 N669 1.314 . S
C668 C670 1.353 . S
C668 H674 0.930 . S
N669 Li619 1.990 . S
N669 C668 1.314 . S
N669 C672 1.279 . S
C670 C668 1.353 . S
C670 C673 1.348 . S
C670 H702 0.929 . S
C671 C672 1.358 . S
C671 C673 1.356 . S
C671 H703 0.930 . S
C672 N669 1.279 . S
C672 C671 1.358 . S
C672 H675 0.930 . S
C673 C670 1.348 . S
C673 C671 1.356 . S
H674 C668 0.930 . S
H675 C672 0.930 . S
O676 Li616 1.956 . S
O676 Li617 1.970 . S
O676 Li618 1.961 . S
O676 C620 1.325 . S
O677 Li616 1.970 . S
O677 Li617 1.956 . S
O677 Li619 1.961 . S
O677 C626 1.325 . S
O678 Li616 1.961 . S
O678 Li618 1.956 . S
O678 Li619 1.970 . S
O678 C648 1.325 . S
O679 Li617 1.961 . S
O679 Li618 1.970 . S
O679 Li619 1.956 . S
O679 C654 1.325 . S
H680 C622 0.929 . S
H681 C623 0.930 . S
H682 C624 0.930 . S
H683 C625 0.930 . S
H684 C627 0.930 . S
H685 C629 0.929 . S
H686 C630 0.930 . S
H687 C631 0.930 . S
H688 C634 0.930 . S
H689 C637 0.929 . S
H690 C642 0.929 . S
H691 C643 0.930 . S
H692 C650 0.929 . S
H693 C651 0.930 . S
H694 C652 0.930 . S
H695 C653 0.930 . S
H696 C655 0.929 . S
H697 C656 0.930 . S
H698 C657 0.930 . S
H699 C658 0.930 . S
H700 C662 0.929 . S
H701 C664 0.930 . S
H702 C670 0.929 . S
H703 C671 0.930 . S
Li704 N721 1.990 . S
Li704 O764 1.956 . S
Li704 O765 1.970 . S
Li704 O766 1.961 . S
Li705 N729 1.990 . S
Li705 O764 1.970 . S
Li705 O765 1.956 . S
Li705 O767 1.961 . S
Li706 N751 1.990 1_545 S
Li706 O764 1.961 . S
Li706 O766 1.956 . S
Li706 O767 1.970 . S
Li707 N757 1.990 . S
Li707 O765 1.961 . S
Li707 O766 1.970 . S
Li707 O767 1.956 . S
C708 C710 1.348 . S
C708 C711 1.356 . S
C708 O764 1.325 . S
N709 C712 1.314 . S
N709 C713 1.279 . S
C710 C708 1.348 . S
C710 C712 1.353 . S
C710 H768 0.929 . S
C711 C708 1.356 . S
C711 C713 1.358 . S
C711 H769 0.930 . S
C712 N709 1.314 . S
C712 C710 1.353 . S
C712 H770 0.930 . S
C713 N709 1.279 . S
C713 C711 1.358 . S
C713 H771 0.930 . S
C714 C717 1.348 . S
C714 C718 1.356 . S
C714 O765 1.325 . S
C715 N716 1.279 . S
C715 C718 1.358 . S
C715 H772 0.930 . S
N716 C715 1.279 . S
N716 C719 1.314 . S
C717 C714 1.348 . S
C717 C719 1.353 . S
C717 H773 0.929 . S
C718 C714 1.356 . S
C718 C715 1.358 . S
C718 H774 0.930 . S
C719 N716 1.314 . S
C719 C717 1.353 . S
C719 H775 0.930 . S
C720 N721 1.314 . S
C720 C725 1.353 . S
C720 H726 0.930 . S
N721 Li704 1.990 . S
N721 C720 1.314 . S
N721 C723 1.279 . S
C722 C723 1.358 . S
C722 C724 1.356 . S
C722 H776 0.930 . S
C723 N721 1.279 . S
C723 C722 1.358 . S
C723 H727 0.930 . S
C724 C722 1.356 . S
C724 C725 1.348 . S
C725 C720 1.353 . S
C725 C724 1.348 . S
C725 H777 0.929 . S
H726 C720 0.930 . S
H727 C723 0.930 . S
C728 N729 1.314 . S
C728 C730 1.353 . S
C728 H734 0.930 . S
N729 Li705 1.990 . S
N729 C728 1.314 . S
N729 C732 1.279 . S
C730 C728 1.353 . S
C730 C733 1.348 . S
C730 H778 0.929 . S
C731 C732 1.358 . S
C731 C733 1.356 . S
C731 H779 0.930 . S
C732 N729 1.279 . S
C732 C731 1.358 . S
C732 H735 0.930 . S
C733 C730 1.348 . S
C733 C731 1.356 . S
H734 C728 0.930 . S
H735 C732 0.930 . S
C736 C738 1.348 . S
C736 C739 1.356 . S
C736 O766 1.325 . S
N737 C740 1.314 . S
N737 C741 1.279 . S
C738 C736 1.348 . S
C738 C740 1.353 . S
C738 H780 0.929 . S
C739 C736 1.356 . S
C739 C741 1.358 . S
C739 H781 0.930 . S
C740 N737 1.314 . S
C740 C738 1.353 . S
C740 H782 0.930 . S
C741 N737 1.279 . S
C741 C739 1.358 . S
C741 H783 0.930 . S
C742 C743 1.348 . S
C742 C744 1.356 . S
C742 O767 1.325 1_565 S
C743 C742 1.348 . S
C743 C745 1.353 . S
C743 H784 0.929 . S
C744 C742 1.356 . S
C744 C746 1.358 . S
C744 H785 0.930 1_565 S
C745 C743 1.353 . S
C745 N747 1.314 . S
C745 H786 0.930 . S
C746 C744 1.358 . S
C746 N747 1.279 . S
C746 H787 0.930 . S
N747 C745 1.314 . S
N747 C746 1.279 . S
C748 C750 1.353 . S
C748 N751 1.314 . S
C748 H754 0.930 . S
C749 N751 1.279 . S
C749 C752 1.358 . S
C749 H755 0.930 . S
C750 C748 1.353 . S
C750 C753 1.348 . S
C750 H788 0.929 . S
N751 Li706 1.990 1_565 S
N751 C748 1.314 . S
N751 C749 1.279 . S
C752 C749 1.358 . S
C752 C753 1.356 . S
C752 H789 0.930 . S
C753 C750 1.348 . S
C753 C752 1.356 . S
H754 C748 0.930 . S
H755 C749 0.930 . S
C756 N757 1.314 . S
C756 C758 1.353 . S
C756 H762 0.930 . S
N757 Li707 1.990 . S
N757 C756 1.314 . S
N757 C760 1.279 . S
C758 C756 1.353 . S
C758 C761 1.348 . S
C758 H790 0.929 . S
C759 C760 1.358 . S
C759 C761 1.356 . S
C759 H791 0.930 1_545 S
C760 N757 1.279 . S
C760 C759 1.358 . S
C760 H763 0.930 . S
C761 C758 1.348 . S
C761 C759 1.356 . S
H762 C756 0.930 . S
H763 C760 0.930 . S
O764 Li704 1.956 . S
O764 Li705 1.970 . S
O764 Li706 1.961 . S
O764 C708 1.325 . S
O765 Li704 1.970 . S
O765 Li705 1.956 . S
O765 Li707 1.961 . S
O765 C714 1.325 . S
O766 Li704 1.961 . S
O766 Li706 1.956 . S
O766 Li707 1.970 . S
O766 C736 1.325 . S
O767 Li705 1.961 . S
O767 Li706 1.970 . S
O767 Li707 1.956 . S
O767 C742 1.325 1_545 S
H768 C710 0.929 . S
H769 C711 0.930 . S
H770 C712 0.930 . S
H771 C713 0.930 . S
H772 C715 0.930 . S
H773 C717 0.929 . S
H774 C718 0.930 . S
H775 C719 0.930 . S
H776 C722 0.930 . S
H777 C725 0.929 . S
H778 C730 0.929 . S
H779 C731 0.930 . S
H780 C738 0.929 . S
H781 C739 0.930 . S
H782 C740 0.930 . S
H783 C741 0.930 . S
H784 C743 0.929 . S
H785 C744 0.930 1_545 S
H786 C745 0.930 . S
H787 C746 0.930 . S
H788 C750 0.929 . S
H789 C752 0.930 . S
H790 C758 0.929 . S
H791 C759 0.930 1_565 S
Li792 N809 1.990 . S
Li792 O852 1.956 . S
Li792 O853 1.970 . S
Li792 O854 1.961 . S
Li793 N817 1.990 . S
Li793 O852 1.970 . S
Li793 O853 1.956 . S
Li793 O855 1.961 . S
Li794 N839 1.990 1_545 S
Li794 O852 1.961 . S
Li794 O854 1.956 . S
Li794 O855 1.970 . S
Li795 N845 1.990 . S
Li795 O853 1.961 . S
Li795 O854 1.970 . S
Li795 O855 1.956 . S
C796 C798 1.348 . S
C796 C799 1.356 . S
C796 O852 1.325 . S
N797 C800 1.314 . S
N797 C801 1.279 . S
C798 C796 1.348 . S
C798 C800 1.353 . S
C798 H856 0.929 . S
C799 C796 1.356 . S
C799 C801 1.358 . S
C799 H857 0.930 . S
C800 N797 1.314 . S
C800 C798 1.353 . S
C800 H858 0.930 . S
C801 N797 1.279 . S
C801 C799 1.358 . S
C801 H859 0.930 . S
C802 C805 1.348 . S
C802 C806 1.356 . S
C802 O853 1.325 . S
C803 N804 1.279 . S
C803 C806 1.358 . S
C803 H860 0.930 . S
N804 C803 1.279 . S
N804 C807 1.314 . S
C805 C802 1.348 . S
C805 C807 1.353 . S
C805 H861 0.929 . S
C806 C802 1.356 . S
C806 C803 1.358 . S
C806 H862 0.930 . S
C807 N804 1.314 . S
C807 C805 1.353 . S
C807 H863 0.930 . S
C808 N809 1.314 . S
C808 C813 1.353 . S
C808 H814 0.930 . S
N809 Li792 1.990 . S
N809 C808 1.314 . S
N809 C811 1.279 . S
C810 C811 1.358 . S
C810 C812 1.356 . S
C810 H864 0.930 . S
C811 N809 1.279 . S
C811 C810 1.358 . S
C811 H815 0.930 . S
C812 C810 1.356 . S
C812 C813 1.348 . S
C813 C808 1.353 . S
C813 C812 1.348 . S
C813 H865 0.929 . S
H814 C808 0.930 . S
H815 C811 0.930 . S
C816 N817 1.314 . S
C816 C818 1.353 . S
C816 H822 0.930 . S
N817 Li793 1.990 . S
N817 C816 1.314 . S
N817 C820 1.279 . S
C818 C816 1.353 . S
C818 C821 1.348 . S
C818 H866 0.929 . S
C819 C820 1.358 . S
C819 C821 1.356 . S
C819 H867 0.930 . S
C820 N817 1.279 . S
C820 C819 1.358 . S
C820 H823 0.930 . S
C821 C818 1.348 . S
C821 C819 1.356 . S
H822 C816 0.930 . S
H823 C820 0.930 . S
C824 C826 1.348 . S
C824 C827 1.356 . S
C824 O854 1.325 . S
N825 C828 1.314 . S
N825 C829 1.279 . S
C826 C824 1.348 . S
C826 C828 1.353 . S
C826 H868 0.929 . S
C827 C824 1.356 . S
C827 C829 1.358 . S
C827 H869 0.930 . S
C828 N825 1.314 . S
C828 C826 1.353 . S
C828 H870 0.930 . S
C829 N825 1.279 . S
C829 C827 1.358 . S
C829 H871 0.930 . S
C830 C831 1.348 . S
C830 C832 1.356 . S
C830 O855 1.325 1_565 S
C831 C830 1.348 . S
C831 C833 1.353 . S
C831 H872 0.929 . S
C832 C830 1.356 . S
C832 C834 1.358 . S
C832 H873 0.930 1_565 S
C833 C831 1.353 . S
C833 N835 1.314 . S
C833 H874 0.930 . S
C834 C832 1.358 . S
C834 N835 1.279 . S
C834 H875 0.930 . S
N835 C833 1.314 . S
N835 C834 1.279 . S
C836 C838 1.353 . S
C836 N839 1.314 . S
C836 H842 0.930 . S
C837 N839 1.279 . S
C837 C840 1.358 . S
C837 H843 0.930 . S
C838 C836 1.353 . S
C838 C841 1.348 . S
C838 H876 0.929 . S
N839 Li794 1.990 1_565 S
N839 C836 1.314 . S
N839 C837 1.279 . S
C840 C837 1.358 . S
C840 C841 1.356 . S
C840 H877 0.930 . S
C841 C838 1.348 . S
C841 C840 1.356 . S
H842 C836 0.930 . S
H843 C837 0.930 . S
C844 N845 1.314 . S
C844 C846 1.353 . S
C844 H850 0.930 . S
N845 Li795 1.990 . S
N845 C844 1.314 . S
N845 C848 1.279 . S
C846 C844 1.353 . S
C846 C849 1.348 . S
C846 H878 0.929 . S
C847 C848 1.358 . S
C847 C849 1.356 . S
C847 H879 0.930 1_545 S
C848 N845 1.279 . S
C848 C847 1.358 . S
C848 H851 0.930 1_545 S
C849 C846 1.348 . S
C849 C847 1.356 . S
H850 C844 0.930 . S
H851 C848 0.930 1_565 S
O852 Li792 1.956 . S
O852 Li793 1.970 . S
O852 Li794 1.961 . S
O852 C796 1.325 . S
O853 Li792 1.970 . S
O853 Li793 1.956 . S
O853 Li795 1.961 . S
O853 C802 1.325 . S
O854 Li792 1.961 . S
O854 Li794 1.956 . S
O854 Li795 1.970 . S
O854 C824 1.325 . S
O855 Li793 1.961 . S
O855 Li794 1.970 . S
O855 Li795 1.956 . S
O855 C830 1.325 1_545 S
H856 C798 0.929 . S
H857 C799 0.930 . S
H858 C800 0.930 . S
H859 C801 0.930 . S
H860 C803 0.930 . S
H861 C805 0.929 . S
H862 C806 0.930 . S
H863 C807 0.930 . S
H864 C810 0.930 . S
H865 C813 0.929 . S
H866 C818 0.929 . S
H867 C819 0.930 . S
H868 C826 0.929 . S
H869 C827 0.930 . S
H870 C828 0.930 . S
H871 C829 0.930 . S
H872 C831 0.929 . S
H873 C832 0.930 1_545 S
H874 C833 0.930 . S
H875 C834 0.930 . S
H876 C838 0.929 . S
H877 C840 0.930 . S
H878 C846 0.929 . S
H879 C847 0.930 1_565 S
Li880 N897 1.990 1_455 S
Li880 O940 1.956 . S
Li880 O941 1.970 . S
Li880 O942 1.961 . S
Li881 N905 1.990 . S
Li881 O940 1.970 . S
Li881 O941 1.956 . S
Li881 O943 1.961 . S
Li882 N927 1.990 . S
Li882 O940 1.961 . S
Li882 O942 1.956 . S
Li882 O943 1.970 . S
Li883 N933 1.990 . S
Li883 O941 1.961 . S
Li883 O942 1.970 . S
Li883 O943 1.956 . S
C884 C886 1.348 . S
C884 C887 1.356 . S
C884 O940 1.325 . S
N885 C888 1.314 . S
N885 C889 1.279 . S
C886 C884 1.348 . S
C886 C888 1.353 . S
C886 H944 0.929 . S
C887 C884 1.356 . S
C887 C889 1.358 . S
C887 H945 0.930 . S
C888 N885 1.314 . S
C888 C886 1.353 . S
C888 H946 0.930 . S
C889 N885 1.279 . S
C889 C887 1.358 . S
C889 H947 0.930 . S
C890 C893 1.348 . S
C890 C894 1.356 . S
C890 O941 1.325 1_655 S
C891 N892 1.279 . S
C891 C894 1.358 . S
C891 H948 0.930 . S
N892 C891 1.279 . S
N892 C895 1.314 . S
C893 C890 1.348 . S
C893 C895 1.353 . S
C893 H949 0.929 . S
C894 C890 1.356 . S
C894 C891 1.358 . S
C894 H950 0.930 1_655 S
C895 N892 1.314 . S
C895 C893 1.353 . S
C895 H951 0.930 . S
C896 N897 1.314 . S
C896 C901 1.353 . S
C896 H902 0.930 . S
N897 Li880 1.990 1_655 S
N897 C896 1.314 . S
N897 C899 1.279 . S
C898 C899 1.358 . S
C898 C900 1.356 . S
C898 H952 0.930 . S
C899 N897 1.279 . S
C899 C898 1.358 . S
C899 H903 0.930 . S
C900 C898 1.356 . S
C900 C901 1.348 . S
C901 C896 1.353 . S
C901 C900 1.348 . S
C901 H953 0.929 . S
H902 C896 0.930 . S
H903 C899 0.930 . S
C904 N905 1.314 . S
C904 C906 1.353 . S
C904 H910 0.930 . S
N905 Li881 1.990 . S
N905 C904 1.314 . S
N905 C908 1.279 . S
C906 C904 1.353 . S
C906 C909 1.348 . S
C906 H954 0.929 . S
C907 C908 1.358 . S
C907 C909 1.356 . S
C907 H955 0.930 1_455 S
C908 N905 1.279 . S
C908 C907 1.358 . S
C908 H911 0.930 . S
C909 C906 1.348 . S
C909 C907 1.356 . S
H910 C904 0.930 . S
H911 C908 0.930 . S
C912 C914 1.348 . S
C912 C915 1.356 . S
C912 O942 1.325 . S
N913 C916 1.314 . S
N913 C917 1.279 . S
C914 C912 1.348 . S
C914 C916 1.353 . S
C914 H956 0.929 . S
C915 C912 1.356 . S
C915 C917 1.358 . S
C915 H957 0.930 . S
C916 N913 1.314 . S
C916 C914 1.353 . S
C916 H958 0.930 . S
C917 N913 1.279 . S
C917 C915 1.358 . S
C917 H959 0.930 . S
C918 C919 1.348 . S
C918 C920 1.356 . S
C918 O943 1.325 . S
C919 C918 1.348 . S
C919 C921 1.353 . S
C919 H960 0.929 . S
C920 C918 1.356 . S
C920 C922 1.358 . S
C920 H961 0.930 . S
C921 C919 1.353 . S
C921 N923 1.314 . S
C921 H962 0.930 . S
C922 C920 1.358 . S
C922 N923 1.279 . S
C922 H963 0.930 . S
N923 C921 1.314 . S
N923 C922 1.279 . S
C924 C926 1.353 . S
C924 N927 1.314 . S
C924 H930 0.930 . S
C925 N927 1.279 . S
C925 C928 1.358 . S
C925 H931 0.930 . S
C926 C924 1.353 . S
C926 C929 1.348 . S
C926 H964 0.929 . S
N927 Li882 1.990 . S
N927 C924 1.314 . S
N927 C925 1.279 . S
C928 C925 1.358 . S
C928 C929 1.356 . S
C928 H965 0.930 . S
C929 C926 1.348 . S
C929 C928 1.356 . S
H930 C924 0.930 . S
H931 C925 0.930 . S
C932 N933 1.314 . S
C932 C934 1.353 . S
C932 H938 0.930 . S
N933 Li883 1.990 . S
N933 C932 1.314 . S
N933 C936 1.279 . S
C934 C932 1.353 . S
C934 C937 1.348 . S
C934 H966 0.929 . S
C935 C936 1.358 . S
C935 C937 1.356 . S
C935 H967 0.930 . S
C936 N933 1.279 . S
C936 C935 1.358 . S
C936 H939 0.930 . S
C937 C934 1.348 . S
C937 C935 1.356 . S
H938 C932 0.930 . S
H939 C936 0.930 . S
O940 Li880 1.956 . S
O940 Li881 1.970 . S
O940 Li882 1.961 . S
O940 C884 1.325 . S
O941 Li880 1.970 . S
O941 Li881 1.956 . S
O941 Li883 1.961 . S
O941 C890 1.325 1_455 S
O942 Li880 1.961 . S
O942 Li882 1.956 . S
O942 Li883 1.970 . S
O942 C912 1.325 . S
O943 Li881 1.961 . S
O943 Li882 1.970 . S
O943 Li883 1.956 . S
O943 C918 1.325 . S
H944 C886 0.929 . S
H945 C887 0.930 . S
H946 C888 0.930 . S
H947 C889 0.930 . S
H948 C891 0.930 . S
H949 C893 0.929 . S
H950 C894 0.930 1_455 S
H951 C895 0.930 . S
H952 C898 0.930 . S
H953 C901 0.929 . S
H954 C906 0.929 . S
H955 C907 0.930 1_655 S
H956 C914 0.929 . S
H957 C915 0.930 . S
H958 C916 0.930 . S
H959 C917 0.930 . S
H960 C919 0.929 . S
H961 C920 0.930 . S
H962 C921 0.930 . S
H963 C922 0.930 . S
H964 C926 0.929 . S
H965 C928 0.930 . S
H966 C934 0.929 . S
H967 C935 0.930 . S
Li968 N985 1.990 . S
Li968 O1028 1.956 . S
Li968 O1029 1.970 . S
Li968 O1030 1.961 . S
Li969 N993 1.990 . S
Li969 O1028 1.970 . S
Li969 O1029 1.956 . S
Li969 O1031 1.961 . S
Li970 N1015 1.990 . S
Li970 O1028 1.961 . S
Li970 O1030 1.956 . S
Li970 O1031 1.970 . S
Li971 N1021 1.990 . S
Li971 O1029 1.961 . S
Li971 O1030 1.970 . S
Li971 O1031 1.956 . S
C972 C974 1.348 . S
C972 C975 1.356 . S
C972 O1028 1.325 . S
N973 C976 1.314 . S
N973 C977 1.279 . S
C974 C972 1.348 . S
C974 C976 1.353 . S
C974 H1032 0.929 . S
C975 C972 1.356 . S
C975 C977 1.358 . S
C975 H1033 0.930 . S
C976 N973 1.314 . S
C976 C974 1.353 . S
C976 H1034 0.930 . S
C977 N973 1.279 . S
C977 C975 1.358 . S
C977 H1035 0.930 . S
C978 C981 1.348 . S
C978 C982 1.356 . S
C978 O1029 1.325 . S
C979 N980 1.279 . S
C979 C982 1.358 . S
C979 H1036 0.930 . S
N980 C979 1.279 . S
N980 C983 1.314 . S
C981 C978 1.348 . S
C981 C983 1.353 . S
C981 H1037 0.929 . S
C982 C978 1.356 . S
C982 C979 1.358 . S
C982 H1038 0.930 . S
C983 N980 1.314 . S
C983 C981 1.353 . S
C983 H1039 0.930 . S
C984 N985 1.314 . S
C984 C989 1.353 . S
C984 H990 0.930 . S
N985 Li968 1.990 . S
N985 C984 1.314 . S
N985 C987 1.279 . S
C986 C987 1.358 . S
C986 C988 1.356 . S
C986 H1040 0.930 . S
C987 N985 1.279 . S
C987 C986 1.358 . S
C987 H991 0.930 . S
C988 C986 1.356 . S
C988 C989 1.348 . S
C989 C984 1.353 . S
C989 C988 1.348 . S
C989 H1041 0.929 . S
H990 C984 0.930 . S
H991 C987 0.930 . S
C992 N993 1.314 . S
C992 C994 1.353 . S
C992 H998 0.930 . S
N993 Li969 1.990 . S
N993 C992 1.314 . S
N993 C996 1.279 . S
C994 C992 1.353 . S
C994 C997 1.348 . S
C994 H1042 0.929 . S
C995 C996 1.358 . S
C995 C997 1.356 . S
C995 H1043 0.930 . S
C996 N993 1.279 . S
C996 C995 1.358 . S
C996 H999 0.930 . S
C997 C994 1.348 . S
C997 C995 1.356 . S
H998 C992 0.930 . S
H999 C996 0.930 . S
C1000 C1002 1.348 . S
C1000 C1003 1.356 . S
C1000 O1030 1.325 . S
N1001 C1004 1.314 . S
N1001 C1005 1.279 . S
C1002 C1000 1.348 . S
C1002 C1004 1.353 . S
C1002 H1044 0.929 . S
C1003 C1000 1.356 . S
C1003 C1005 1.358 . S
C1003 H1045 0.930 . S
C1004 N1001 1.314 . S
C1004 C1002 1.353 . S
C1004 H1046 0.930 . S
C1005 N1001 1.279 . S
C1005 C1003 1.358 . S
C1005 H1047 0.930 . S
C1006 C1007 1.348 . S
C1006 C1008 1.356 . S
C1006 O1031 1.325 . S
C1007 C1006 1.348 . S
C1007 C1009 1.353 . S
C1007 H1048 0.929 . S
C1008 C1006 1.356 . S
C1008 C1010 1.358 . S
C1008 H1049 0.930 . S
C1009 C1007 1.353 . S
C1009 N1011 1.314 . S
C1009 H1050 0.930 . S
C1010 C1008 1.358 . S
C1010 N1011 1.279 . S
C1010 H1051 0.930 . S
N1011 C1009 1.314 . S
N1011 C1010 1.279 . S
C1012 C1014 1.353 . S
C1012 N1015 1.314 . S
C1012 H1018 0.930 . S
C1013 N1015 1.279 . S
C1013 C1016 1.358 . S
C1013 H1019 0.930 . S
C1014 C1012 1.353 . S
C1014 C1017 1.348 . S
C1014 H1052 0.929 . S
N1015 Li970 1.990 . S
N1015 C1012 1.314 . S
N1015 C1013 1.279 . S
C1016 C1013 1.358 . S
C1016 C1017 1.356 . S
C1016 H1053 0.930 . S
C1017 C1014 1.348 . S
C1017 C1016 1.356 . S
H1018 C1012 0.930 . S
H1019 C1013 0.930 . S
C1020 N1021 1.314 . S
C1020 C1022 1.353 . S
C1020 H1026 0.930 . S
N1021 Li971 1.990 . S
N1021 C1020 1.314 . S
N1021 C1024 1.279 . S
C1022 C1020 1.353 . S
C1022 C1025 1.348 . S
C1022 H1054 0.929 . S
C1023 C1024 1.358 . S
C1023 C1025 1.356 . S
C1023 H1055 0.930 . S
C1024 N1021 1.279 . S
C1024 C1023 1.358 . S
C1024 H1027 0.930 . S
C1025 C1022 1.348 . S
C1025 C1023 1.356 . S
H1026 C1020 0.930 . S
H1027 C1024 0.930 . S
O1028 Li968 1.956 . S
O1028 Li969 1.970 . S
O1028 Li970 1.961 . S
O1028 C972 1.325 . S
O1029 Li968 1.970 . S
O1029 Li969 1.956 . S
O1029 Li971 1.961 . S
O1029 C978 1.325 . S
O1030 Li968 1.961 . S
O1030 Li970 1.956 . S
O1030 Li971 1.970 . S
O1030 C1000 1.325 . S
O1031 Li969 1.961 . S
O1031 Li970 1.970 . S
O1031 Li971 1.956 . S
O1031 C1006 1.325 . S
H1032 C974 0.929 . S
H1033 C975 0.930 . S
H1034 C976 0.930 . S
H1035 C977 0.930 . S
H1036 C979 0.930 . S
H1037 C981 0.929 . S
H1038 C982 0.930 . S
H1039 C983 0.930 . S
H1040 C986 0.930 . S
H1041 C989 0.929 . S
H1042 C994 0.929 . S
H1043 C995 0.930 . S
H1044 C1002 0.929 . S
H1045 C1003 0.930 . S
H1046 C1004 0.930 . S
H1047 C1005 0.930 . S
H1048 C1007 0.929 . S
H1049 C1008 0.930 . S
H1050 C1009 0.930 . S
H1051 C1010 0.930 . S
H1052 C1014 0.929 . S
H1053 C1016 0.930 . S
H1054 C1022 0.929 . S
H1055 C1023 0.930 . S
Li1056 N1073 1.990 . S
Li1056 O1116 1.956 . S
Li1056 O1117 1.970 . S
Li1056 O1118 1.961 . S
Li1057 N1081 1.990 . S
Li1057 O1116 1.970 . S
Li1057 O1117 1.956 . S
Li1057 O1119 1.961 . S
Li1058 N1103 1.990 . S
Li1058 O1116 1.961 . S
Li1058 O1118 1.956 . S
Li1058 O1119 1.970 . S
Li1059 N1109 1.990 . S
Li1059 O1117 1.961 . S
Li1059 O1118 1.970 . S
Li1059 O1119 1.956 . S
C1060 C1062 1.348 . S
C1060 C1063 1.356 . S
C1060 O1116 1.325 . S
N1061 C1064 1.314 . S
N1061 C1065 1.279 . S
C1062 C1060 1.348 . S
C1062 C1064 1.353 . S
C1062 H1120 0.929 . S
C1063 C1060 1.356 . S
C1063 C1065 1.358 . S
C1063 H1121 0.930 . S
C1064 N1061 1.314 . S
C1064 C1062 1.353 . S
C1064 H1122 0.930 . S
C1065 N1061 1.279 . S
C1065 C1063 1.358 . S
C1065 H1123 0.930 . S
C1066 C1069 1.348 . S
C1066 C1070 1.356 . S
C1066 O1117 1.325 . S
C1067 N1068 1.279 . S
C1067 C1070 1.358 . S
C1067 H1124 0.930 . S
N1068 C1067 1.279 . S
N1068 C1071 1.314 . S
C1069 C1066 1.348 . S
C1069 C1071 1.353 . S
C1069 H1125 0.929 . S
C1070 C1066 1.356 . S
C1070 C1067 1.358 . S
C1070 H1126 0.930 . S
C1071 N1068 1.314 . S
C1071 C1069 1.353 . S
C1071 H1127 0.930 . S
C1072 N1073 1.314 . S
C1072 C1077 1.353 . S
C1072 H1078 0.930 . S
N1073 Li1056 1.990 . S
N1073 C1072 1.314 . S
N1073 C1075 1.279 . S
C1074 C1075 1.358 . S
C1074 C1076 1.356 . S
C1074 H1128 0.930 . S
C1075 N1073 1.279 . S
C1075 C1074 1.358 . S
C1075 H1079 0.930 . S
C1076 C1074 1.356 . S
C1076 C1077 1.348 . S
C1077 C1072 1.353 . S
C1077 C1076 1.348 . S
C1077 H1129 0.929 . S
H1078 C1072 0.930 . S
H1079 C1075 0.930 . S
C1080 N1081 1.314 . S
C1080 C1082 1.353 . S
C1080 H1086 0.930 . S
N1081 Li1057 1.990 . S
N1081 C1080 1.314 . S
N1081 C1084 1.279 . S
C1082 C1080 1.353 . S
C1082 C1085 1.348 . S
C1082 H1130 0.929 . S
C1083 C1084 1.358 . S
C1083 C1085 1.356 . S
C1083 H1131 0.930 . S
C1084 N1081 1.279 . S
C1084 C1083 1.358 . S
C1084 H1087 0.930 . S
C1085 C1082 1.348 . S
C1085 C1083 1.356 . S
H1086 C1080 0.930 . S
H1087 C1084 0.930 . S
C1088 C1090 1.348 . S
C1088 C1091 1.356 . S
C1088 O1118 1.325 . S
N1089 C1092 1.314 . S
N1089 C1093 1.279 . S
C1090 C1088 1.348 . S
C1090 C1092 1.353 . S
C1090 H1132 0.929 . S
C1091 C1088 1.356 . S
C1091 C1093 1.358 . S
C1091 H1133 0.930 . S
C1092 N1089 1.314 . S
C1092 C1090 1.353 . S
C1092 H1134 0.930 . S
C1093 N1089 1.279 . S
C1093 C1091 1.358 . S
C1093 H1135 0.930 . S
C1094 C1095 1.348 . S
C1094 C1096 1.356 . S
C1094 O1119 1.325 . S
C1095 C1094 1.348 . S
C1095 C1097 1.353 . S
C1095 H1136 0.929 . S
C1096 C1094 1.356 . S
C1096 C1098 1.358 . S
C1096 H1137 0.930 . S
C1097 C1095 1.353 . S
C1097 N1099 1.314 . S
C1097 H1138 0.930 . S
C1098 C1096 1.358 . S
C1098 N1099 1.279 . S
C1098 H1139 0.930 . S
N1099 C1097 1.314 . S
N1099 C1098 1.279 . S
C1100 C1102 1.353 . S
C1100 N1103 1.314 . S
C1100 H1106 0.930 . S
C1101 N1103 1.279 . S
C1101 C1104 1.358 . S
C1101 H1107 0.930 . S
C1102 C1100 1.353 . S
C1102 C1105 1.348 . S
C1102 H1140 0.929 . S
N1103 Li1058 1.990 . S
N1103 C1100 1.314 . S
N1103 C1101 1.279 . S
C1104 C1101 1.358 . S
C1104 C1105 1.356 . S
C1104 H1141 0.930 . S
C1105 C1102 1.348 . S
C1105 C1104 1.356 . S
H1106 C1100 0.930 . S
H1107 C1101 0.930 . S
C1108 N1109 1.314 . S
C1108 C1110 1.353 . S
C1108 H1114 0.930 . S
N1109 Li1059 1.990 . S
N1109 C1108 1.314 . S
N1109 C1112 1.279 . S
C1110 C1108 1.353 . S
C1110 C1113 1.348 . S
C1110 H1142 0.929 . S
C1111 C1112 1.358 . S
C1111 C1113 1.356 . S
C1111 H1143 0.930 . S
C1112 N1109 1.279 . S
C1112 C1111 1.358 . S
C1112 H1115 0.930 . S
C1113 C1110 1.348 . S
C1113 C1111 1.356 . S
H1114 C1108 0.930 . S
H1115 C1112 0.930 . S
O1116 Li1056 1.956 . S
O1116 Li1057 1.970 . S
O1116 Li1058 1.961 . S
O1116 C1060 1.325 . S
O1117 Li1056 1.970 . S
O1117 Li1057 1.956 . S
O1117 Li1059 1.961 . S
O1117 C1066 1.325 . S
O1118 Li1056 1.961 . S
O1118 Li1058 1.956 . S
O1118 Li1059 1.970 . S
O1118 C1088 1.325 . S
O1119 Li1057 1.961 . S
O1119 Li1058 1.970 . S
O1119 Li1059 1.956 . S
O1119 C1094 1.325 . S
H1120 C1062 0.929 . S
H1121 C1063 0.930 . S
H1122 C1064 0.930 . S
H1123 C1065 0.930 . S
H1124 C1067 0.930 . S
H1125 C1069 0.929 . S
H1126 C1070 0.930 . S
H1127 C1071 0.930 . S
H1128 C1074 0.930 . S
H1129 C1077 0.929 . S
H1130 C1082 0.929 . S
H1131 C1083 0.930 . S
H1132 C1090 0.929 . S
H1133 C1091 0.930 . S
H1134 C1092 0.930 . S
H1135 C1093 0.930 . S
H1136 C1095 0.929 . S
H1137 C1096 0.930 . S
H1138 C1097 0.930 . S
H1139 C1098 0.930 . S
H1140 C1102 0.929 . S
H1141 C1104 0.930 . S
H1142 C1110 0.929 . S
H1143 C1111 0.930 . S
Li1144 N1161 1.990 . S
Li1144 O1204 1.956 . S
Li1144 O1205 1.970 . S
Li1144 O1206 1.961 . S
Li1145 N1169 1.990 . S
Li1145 O1204 1.970 . S
Li1145 O1205 1.956 . S
Li1145 O1207 1.961 . S
Li1146 N1191 1.990 . S
Li1146 O1204 1.961 . S
Li1146 O1206 1.956 . S
Li1146 O1207 1.970 . S
Li1147 N1197 1.990 . S
Li1147 O1205 1.961 . S
Li1147 O1206 1.970 . S
Li1147 O1207 1.956 . S
C1148 C1150 1.348 . S
C1148 C1151 1.356 . S
C1148 O1204 1.325 . S
N1149 C1152 1.314 . S
N1149 C1153 1.279 . S
C1150 C1148 1.348 . S
C1150 C1152 1.353 . S
C1150 H1208 0.929 . S
C1151 C1148 1.356 . S
C1151 C1153 1.358 . S
C1151 H1209 0.930 . S
C1152 N1149 1.314 . S
C1152 C1150 1.353 . S
C1152 H1210 0.930 . S
C1153 N1149 1.279 . S
C1153 C1151 1.358 . S
C1153 H1211 0.930 . S
C1154 C1157 1.348 . S
C1154 C1158 1.356 . S
C1154 O1205 1.325 . S
C1155 N1156 1.279 . S
C1155 C1158 1.358 . S
C1155 H1212 0.930 . S
N1156 C1155 1.279 . S
N1156 C1159 1.314 . S
C1157 C1154 1.348 . S
C1157 C1159 1.353 . S
C1157 H1213 0.929 . S
C1158 C1154 1.356 . S
C1158 C1155 1.358 . S
C1158 H1214 0.930 . S
C1159 N1156 1.314 . S
C1159 C1157 1.353 . S
C1159 H1215 0.930 . S
C1160 N1161 1.314 . S
C1160 C1165 1.353 . S
C1160 H1166 0.930 . S
N1161 Li1144 1.990 . S
N1161 C1160 1.314 . S
N1161 C1163 1.279 . S
C1162 C1163 1.358 . S
C1162 C1164 1.356 . S
C1162 H1216 0.930 . S
C1163 N1161 1.279 . S
C1163 C1162 1.358 . S
C1163 H1167 0.930 . S
C1164 C1162 1.356 . S
C1164 C1165 1.348 . S
C1165 C1160 1.353 . S
C1165 C1164 1.348 . S
C1165 H1217 0.929 . S
H1166 C1160 0.930 . S
H1167 C1163 0.930 . S
C1168 N1169 1.314 . S
C1168 C1170 1.353 . S
C1168 H1174 0.930 . S
N1169 Li1145 1.990 . S
N1169 C1168 1.314 . S
N1169 C1172 1.279 . S
C1170 C1168 1.353 . S
C1170 C1173 1.348 . S
C1170 H1218 0.929 . S
C1171 C1172 1.358 . S
C1171 C1173 1.356 . S
C1171 H1219 0.930 . S
C1172 N1169 1.279 . S
C1172 C1171 1.358 . S
C1172 H1175 0.930 . S
C1173 C1170 1.348 . S
C1173 C1171 1.356 . S
H1174 C1168 0.930 . S
H1175 C1172 0.930 . S
C1176 C1178 1.348 . S
C1176 C1179 1.356 . S
C1176 O1206 1.325 . S
N1177 C1180 1.314 . S
N1177 C1181 1.279 . S
C1178 C1176 1.348 . S
C1178 C1180 1.353 . S
C1178 H1220 0.929 . S
C1179 C1176 1.356 . S
C1179 C1181 1.358 . S
C1179 H1221 0.930 . S
C1180 N1177 1.314 . S
C1180 C1178 1.353 . S
C1180 H1222 0.930 . S
C1181 N1177 1.279 . S
C1181 C1179 1.358 . S
C1181 H1223 0.930 . S
C1182 C1183 1.348 . S
C1182 C1184 1.356 . S
C1182 O1207 1.325 . S
C1183 C1182 1.348 . S
C1183 C1185 1.353 . S
C1183 H1224 0.929 . S
C1184 C1182 1.356 . S
C1184 C1186 1.358 . S
C1184 H1225 0.930 . S
C1185 C1183 1.353 . S
C1185 N1187 1.314 . S
C1185 H1226 0.930 . S
C1186 C1184 1.358 . S
C1186 N1187 1.279 . S
C1186 H1227 0.930 . S
N1187 C1185 1.314 . S
N1187 C1186 1.279 . S
C1188 C1190 1.353 . S
C1188 N1191 1.314 . S
C1188 H1194 0.930 . S
C1189 N1191 1.279 . S
C1189 C1192 1.358 . S
C1189 H1195 0.930 . S
C1190 C1188 1.353 . S
C1190 C1193 1.348 . S
C1190 H1228 0.929 . S
N1191 Li1146 1.990 . S
N1191 C1188 1.314 . S
N1191 C1189 1.279 . S
C1192 C1189 1.358 . S
C1192 C1193 1.356 . S
C1192 H1229 0.930 . S
C1193 C1190 1.348 . S
C1193 C1192 1.356 . S
H1194 C1188 0.930 . S
H1195 C1189 0.930 . S
C1196 N1197 1.314 . S
C1196 C1198 1.353 . S
C1196 H1202 0.930 . S
N1197 Li1147 1.990 . S
N1197 C1196 1.314 . S
N1197 C1200 1.279 . S
C1198 C1196 1.353 . S
C1198 C1201 1.348 . S
C1198 H1230 0.929 . S
C1199 C1200 1.358 . S
C1199 C1201 1.356 . S
C1199 H1231 0.930 . S
C1200 N1197 1.279 . S
C1200 C1199 1.358 . S
C1200 H1203 0.930 . S
C1201 C1198 1.348 . S
C1201 C1199 1.356 . S
H1202 C1196 0.930 . S
H1203 C1200 0.930 . S
O1204 Li1144 1.956 . S
O1204 Li1145 1.970 . S
O1204 Li1146 1.961 . S
O1204 C1148 1.325 . S
O1205 Li1144 1.970 . S
O1205 Li1145 1.956 . S
O1205 Li1147 1.961 . S
O1205 C1154 1.325 . S
O1206 Li1144 1.961 . S
O1206 Li1146 1.956 . S
O1206 Li1147 1.970 . S
O1206 C1176 1.325 . S
O1207 Li1145 1.961 . S
O1207 Li1146 1.970 . S
O1207 Li1147 1.956 . S
O1207 C1182 1.325 . S
H1208 C1150 0.929 . S
H1209 C1151 0.930 . S
H1210 C1152 0.930 . S
H1211 C1153 0.930 . S
H1212 C1155 0.930 . S
H1213 C1157 0.929 . S
H1214 C1158 0.930 . S
H1215 C1159 0.930 . S
H1216 C1162 0.930 . S
H1217 C1165 0.929 . S
H1218 C1170 0.929 . S
H1219 C1171 0.930 . S
H1220 C1178 0.929 . S
H1221 C1179 0.930 . S
H1222 C1180 0.930 . S
H1223 C1181 0.930 . S
H1224 C1183 0.929 . S
H1225 C1184 0.930 . S
H1226 C1185 0.930 . S
H1227 C1186 0.930 . S
H1228 C1190 0.929 . S
H1229 C1192 0.930 . S
H1230 C1198 0.929 . S
H1231 C1199 0.930 . S
Li1232 N1249 1.990 . S
Li1232 O1292 1.956 . S
Li1232 O1293 1.970 . S
Li1232 O1294 1.961 . S
Li1233 N1257 1.990 . S
Li1233 O1292 1.970 . S
Li1233 O1293 1.956 . S
Li1233 O1295 1.961 . S
Li1234 N1279 1.990 . S
Li1234 O1292 1.961 . S
Li1234 O1294 1.956 . S
Li1234 O1295 1.970 . S
Li1235 N1285 1.990 . S
Li1235 O1293 1.961 . S
Li1235 O1294 1.970 . S
Li1235 O1295 1.956 . S
C1236 C1238 1.348 . S
C1236 C1239 1.356 . S
C1236 O1292 1.325 . S
N1237 C1240 1.314 . S
N1237 C1241 1.279 . S
C1238 C1236 1.348 . S
C1238 C1240 1.353 . S
C1238 H1296 0.929 . S
C1239 C1236 1.356 . S
C1239 C1241 1.358 . S
C1239 H1297 0.930 . S
C1240 N1237 1.314 . S
C1240 C1238 1.353 . S
C1240 H1298 0.930 . S
C1241 N1237 1.279 . S
C1241 C1239 1.358 . S
C1241 H1299 0.930 . S
C1242 C1245 1.348 . S
C1242 C1246 1.356 . S
C1242 O1293 1.325 . S
C1243 N1244 1.279 . S
C1243 C1246 1.358 . S
C1243 H1300 0.930 . S
N1244 C1243 1.279 . S
N1244 C1247 1.314 . S
C1245 C1242 1.348 . S
C1245 C1247 1.353 . S
C1245 H1301 0.929 . S
C1246 C1242 1.356 . S
C1246 C1243 1.358 . S
C1246 H1302 0.930 . S
C1247 N1244 1.314 . S
C1247 C1245 1.353 . S
C1247 H1303 0.930 . S
C1248 N1249 1.314 . S
C1248 C1253 1.353 . S
C1248 H1254 0.930 . S
N1249 Li1232 1.990 . S
N1249 C1248 1.314 . S
N1249 C1251 1.279 . S
C1250 C1251 1.358 . S
C1250 C1252 1.356 . S
C1250 H1304 0.930 . S
C1251 N1249 1.279 . S
C1251 C1250 1.358 . S
C1251 H1255 0.930 . S
C1252 C1250 1.356 . S
C1252 C1253 1.348 . S
C1253 C1248 1.353 . S
C1253 C1252 1.348 . S
C1253 H1305 0.929 . S
H1254 C1248 0.930 . S
H1255 C1251 0.930 . S
C1256 N1257 1.314 . S
C1256 C1258 1.353 . S
C1256 H1262 0.930 . S
N1257 Li1233 1.990 . S
N1257 C1256 1.314 . S
N1257 C1260 1.279 . S
C1258 C1256 1.353 . S
C1258 C1261 1.348 . S
C1258 H1306 0.929 . S
C1259 C1260 1.358 . S
C1259 C1261 1.356 . S
C1259 H1307 0.930 . S
C1260 N1257 1.279 . S
C1260 C1259 1.358 . S
C1260 H1263 0.930 . S
C1261 C1258 1.348 . S
C1261 C1259 1.356 . S
H1262 C1256 0.930 . S
H1263 C1260 0.930 . S
C1264 C1266 1.348 . S
C1264 C1267 1.356 . S
C1264 O1294 1.325 . S
N1265 C1268 1.314 . S
N1265 C1269 1.279 . S
C1266 C1264 1.348 . S
C1266 C1268 1.353 . S
C1266 H1308 0.929 . S
C1267 C1264 1.356 . S
C1267 C1269 1.358 . S
C1267 H1309 0.930 . S
C1268 N1265 1.314 . S
C1268 C1266 1.353 . S
C1268 H1310 0.930 . S
C1269 N1265 1.279 . S
C1269 C1267 1.358 . S
C1269 H1311 0.930 . S
C1270 C1271 1.348 . S
C1270 C1272 1.356 . S
C1270 O1295 1.325 . S
C1271 C1270 1.348 . S
C1271 C1273 1.353 . S
C1271 H1312 0.929 . S
C1272 C1270 1.356 . S
C1272 C1274 1.358 . S
C1272 H1313 0.930 . S
C1273 C1271 1.353 . S
C1273 N1275 1.314 . S
C1273 H1314 0.930 . S
C1274 C1272 1.358 . S
C1274 N1275 1.279 . S
C1274 H1315 0.930 . S
N1275 C1273 1.314 . S
N1275 C1274 1.279 . S
C1276 C1278 1.353 . S
C1276 N1279 1.314 . S
C1276 H1282 0.930 . S
C1277 N1279 1.279 . S
C1277 C1280 1.358 . S
C1277 H1283 0.930 . S
C1278 C1276 1.353 . S
C1278 C1281 1.348 . S
C1278 H1316 0.929 . S
N1279 Li1234 1.990 . S
N1279 C1276 1.314 . S
N1279 C1277 1.279 . S
C1280 C1277 1.358 . S
C1280 C1281 1.356 . S
C1280 H1317 0.930 . S
C1281 C1278 1.348 . S
C1281 C1280 1.356 . S
H1282 C1276 0.930 . S
H1283 C1277 0.930 . S
C1284 N1285 1.314 . S
C1284 C1286 1.353 . S
C1284 H1290 0.930 . S
N1285 Li1235 1.990 . S
N1285 C1284 1.314 . S
N1285 C1288 1.279 . S
C1286 C1284 1.353 . S
C1286 C1289 1.348 . S
C1286 H1318 0.929 . S
C1287 C1288 1.358 . S
C1287 C1289 1.356 . S
C1287 H1319 0.930 . S
C1288 N1285 1.279 . S
C1288 C1287 1.358 . S
C1288 H1291 0.930 . S
C1289 C1286 1.348 . S
C1289 C1287 1.356 . S
H1290 C1284 0.930 . S
H1291 C1288 0.930 . S
O1292 Li1232 1.956 . S
O1292 Li1233 1.970 . S
O1292 Li1234 1.961 . S
O1292 C1236 1.325 . S
O1293 Li1232 1.970 . S
O1293 Li1233 1.956 . S
O1293 Li1235 1.961 . S
O1293 C1242 1.325 . S
O1294 Li1232 1.961 . S
O1294 Li1234 1.956 . S
O1294 Li1235 1.970 . S
O1294 C1264 1.325 . S
O1295 Li1233 1.961 . S
O1295 Li1234 1.970 . S
O1295 Li1235 1.956 . S
O1295 C1270 1.325 . S
H1296 C1238 0.929 . S
H1297 C1239 0.930 . S
H1298 C1240 0.930 . S
H1299 C1241 0.930 . S
H1300 C1243 0.930 . S
H1301 C1245 0.929 . S
H1302 C1246 0.930 . S
H1303 C1247 0.930 . S
H1304 C1250 0.930 . S
H1305 C1253 0.929 . S
H1306 C1258 0.929 . S
H1307 C1259 0.930 . S
H1308 C1266 0.929 . S
H1309 C1267 0.930 . S
H1310 C1268 0.930 . S
H1311 C1269 0.930 . S
H1312 C1271 0.929 . S
H1313 C1272 0.930 . S
H1314 C1273 0.930 . S
H1315 C1274 0.930 . S
H1316 C1278 0.929 . S
H1317 C1280 0.930 . S
H1318 C1286 0.929 . S
H1319 C1287 0.930 . S
Li1320 N1337 1.990 . S
Li1320 O1380 1.956 . S
Li1320 O1381 1.970 . S
Li1320 O1382 1.961 . S
Li1321 N1345 1.990 . S
Li1321 O1380 1.970 . S
Li1321 O1381 1.956 . S
Li1321 O1383 1.961 . S
Li1322 N1367 1.990 . S
Li1322 O1380 1.961 . S
Li1322 O1382 1.956 . S
Li1322 O1383 1.970 . S
Li1323 N1373 1.990 . S
Li1323 O1381 1.961 . S
Li1323 O1382 1.970 . S
Li1323 O1383 1.956 . S
C1324 C1326 1.348 . S
C1324 C1327 1.356 . S
C1324 O1380 1.325 . S
N1325 C1328 1.314 . S
N1325 C1329 1.279 . S
C1326 C1324 1.348 . S
C1326 C1328 1.353 . S
C1326 H1384 0.929 . S
C1327 C1324 1.356 . S
C1327 C1329 1.358 . S
C1327 H1385 0.930 . S
C1328 N1325 1.314 . S
C1328 C1326 1.353 . S
C1328 H1386 0.930 . S
C1329 N1325 1.279 . S
C1329 C1327 1.358 . S
C1329 H1387 0.930 . S
C1330 C1333 1.348 . S
C1330 C1334 1.356 . S
C1330 O1381 1.325 . S
C1331 N1332 1.279 . S
C1331 C1334 1.358 . S
C1331 H1388 0.930 . S
N1332 C1331 1.279 . S
N1332 C1335 1.314 . S
C1333 C1330 1.348 . S
C1333 C1335 1.353 . S
C1333 H1389 0.929 . S
C1334 C1330 1.356 . S
C1334 C1331 1.358 . S
C1334 H1390 0.930 . S
C1335 N1332 1.314 . S
C1335 C1333 1.353 . S
C1335 H1391 0.930 . S
C1336 N1337 1.314 . S
C1336 C1341 1.353 . S
C1336 H1342 0.930 . S
N1337 Li1320 1.990 . S
N1337 C1336 1.314 . S
N1337 C1339 1.279 . S
C1338 C1339 1.358 . S
C1338 C1340 1.356 . S
C1338 H1392 0.930 . S
C1339 N1337 1.279 . S
C1339 C1338 1.358 . S
C1339 H1343 0.930 . S
C1340 C1338 1.356 . S
C1340 C1341 1.348 . S
C1341 C1336 1.353 . S
C1341 C1340 1.348 . S
C1341 H1393 0.929 . S
H1342 C1336 0.930 . S
H1343 C1339 0.930 . S
C1344 N1345 1.314 . S
C1344 C1346 1.353 . S
C1344 H1350 0.930 . S
N1345 Li1321 1.990 . S
N1345 C1344 1.314 . S
N1345 C1348 1.279 . S
C1346 C1344 1.353 . S
C1346 C1349 1.348 . S
C1346 H1394 0.929 . S
C1347 C1348 1.358 . S
C1347 C1349 1.356 . S
C1347 H1395 0.930 . S
C1348 N1345 1.279 . S
C1348 C1347 1.358 . S
C1348 H1351 0.930 . S
C1349 C1346 1.348 . S
C1349 C1347 1.356 . S
H1350 C1344 0.930 . S
H1351 C1348 0.930 . S
C1352 C1354 1.348 . S
C1352 C1355 1.356 . S
C1352 O1382 1.325 . S
N1353 C1356 1.314 . S
N1353 C1357 1.279 . S
C1354 C1352 1.348 . S
C1354 C1356 1.353 . S
C1354 H1396 0.929 . S
C1355 C1352 1.356 . S
C1355 C1357 1.358 . S
C1355 H1397 0.930 . S
C1356 N1353 1.314 . S
C1356 C1354 1.353 . S
C1356 H1398 0.930 . S
C1357 N1353 1.279 . S
C1357 C1355 1.358 . S
C1357 H1399 0.930 . S
C1358 C1359 1.348 . S
C1358 C1360 1.356 . S
C1358 O1383 1.325 . S
C1359 C1358 1.348 . S
C1359 C1361 1.353 . S
C1359 H1400 0.929 . S
C1360 C1358 1.356 . S
C1360 C1362 1.358 . S
C1360 H1401 0.930 . S
C1361 C1359 1.353 . S
C1361 N1363 1.314 . S
C1361 H1402 0.930 . S
C1362 C1360 1.358 . S
C1362 N1363 1.279 . S
C1362 H1403 0.930 . S
N1363 C1361 1.314 . S
N1363 C1362 1.279 . S
C1364 C1366 1.353 . S
C1364 N1367 1.314 . S
C1364 H1370 0.930 . S
C1365 N1367 1.279 . S
C1365 C1368 1.358 . S
C1365 H1371 0.930 . S
C1366 C1364 1.353 . S
C1366 C1369 1.348 . S
C1366 H1404 0.929 . S
N1367 Li1322 1.990 . S
N1367 C1364 1.314 . S
N1367 C1365 1.279 . S
C1368 C1365 1.358 . S
C1368 C1369 1.356 . S
C1368 H1405 0.930 . S
C1369 C1366 1.348 . S
C1369 C1368 1.356 . S
H1370 C1364 0.930 . S
H1371 C1365 0.930 . S
C1372 N1373 1.314 . S
C1372 C1374 1.353 . S
C1372 H1378 0.930 . S
N1373 Li1323 1.990 . S
N1373 C1372 1.314 . S
N1373 C1376 1.279 . S
C1374 C1372 1.353 . S
C1374 C1377 1.348 . S
C1374 H1406 0.929 . S
C1375 C1376 1.358 . S
C1375 C1377 1.356 . S
C1375 H1407 0.930 . S
C1376 N1373 1.279 . S
C1376 C1375 1.358 . S
C1376 H1379 0.930 . S
C1377 C1374 1.348 . S
C1377 C1375 1.356 . S
H1378 C1372 0.930 . S
H1379 C1376 0.930 . S
O1380 Li1320 1.956 . S
O1380 Li1321 1.970 . S
O1380 Li1322 1.961 . S
O1380 C1324 1.325 . S
O1381 Li1320 1.970 . S
O1381 Li1321 1.956 . S
O1381 Li1323 1.961 . S
O1381 C1330 1.325 . S
O1382 Li1320 1.961 . S
O1382 Li1322 1.956 . S
O1382 Li1323 1.970 . S
O1382 C1352 1.325 . S
O1383 Li1321 1.961 . S
O1383 Li1322 1.970 . S
O1383 Li1323 1.956 . S
O1383 C1358 1.325 . S
H1384 C1326 0.929 . S
H1385 C1327 0.930 . S
H1386 C1328 0.930 . S
H1387 C1329 0.930 . S
H1388 C1331 0.930 . S
H1389 C1333 0.929 . S
H1390 C1334 0.930 . S
H1391 C1335 0.930 . S
H1392 C1338 0.930 . S
H1393 C1341 0.929 . S
H1394 C1346 0.929 . S
H1395 C1347 0.930 . S
H1396 C1354 0.929 . S
H1397 C1355 0.930 . S
H1398 C1356 0.930 . S
H1399 C1357 0.930 . S
H1400 C1359 0.929 . S
H1401 C1360 0.930 . S
H1402 C1361 0.930 . S
H1403 C1362 0.930 . S
H1404 C1366 0.929 . S
H1405 C1368 0.930 . S
H1406 C1374 0.929 . S
H1407 C1375 0.930 . S
Li1408 N1425 1.990 . S
Li1408 O1468 1.956 . S
Li1408 O1469 1.970 . S
Li1408 O1470 1.961 . S
Li1409 N1433 1.990 . S
Li1409 O1468 1.970 . S
Li1409 O1469 1.956 . S
Li1409 O1471 1.961 . S
Li1410 N1455 1.990 . S
Li1410 O1468 1.961 . S
Li1410 O1470 1.956 . S
Li1410 O1471 1.970 . S
Li1411 N1461 1.990 . S
Li1411 O1469 1.961 . S
Li1411 O1470 1.970 . S
Li1411 O1471 1.956 . S
C1412 C1414 1.348 . S
C1412 C1415 1.356 . S
C1412 O1468 1.325 . S
N1413 C1416 1.314 . S
N1413 C1417 1.279 . S
C1414 C1412 1.348 . S
C1414 C1416 1.353 . S
C1414 H1472 0.929 . S
C1415 C1412 1.356 . S
C1415 C1417 1.358 . S
C1415 H1473 0.930 . S
C1416 N1413 1.314 . S
C1416 C1414 1.353 . S
C1416 H1474 0.930 . S
C1417 N1413 1.279 . S
C1417 C1415 1.358 . S
C1417 H1475 0.930 . S
C1418 C1421 1.348 . S
C1418 C1422 1.356 . S
C1418 O1469 1.325 . S
C1419 N1420 1.279 . S
C1419 C1422 1.358 . S
C1419 H1476 0.930 . S
N1420 C1419 1.279 . S
N1420 C1423 1.314 . S
C1421 C1418 1.348 . S
C1421 C1423 1.353 . S
C1421 H1477 0.929 . S
C1422 C1418 1.356 . S
C1422 C1419 1.358 . S
C1422 H1478 0.930 . S
C1423 N1420 1.314 . S
C1423 C1421 1.353 . S
C1423 H1479 0.930 . S
C1424 N1425 1.314 . S
C1424 C1429 1.353 . S
C1424 H1430 0.930 . S
N1425 Li1408 1.990 . S
N1425 C1424 1.314 . S
N1425 C1427 1.279 . S
C1426 C1427 1.358 . S
C1426 C1428 1.356 . S
C1426 H1480 0.930 . S
C1427 N1425 1.279 . S
C1427 C1426 1.358 . S
C1427 H1431 0.930 . S
C1428 C1426 1.356 . S
C1428 C1429 1.348 . S
C1429 C1424 1.353 . S
C1429 C1428 1.348 . S
C1429 H1481 0.929 . S
H1430 C1424 0.930 . S
H1431 C1427 0.930 . S
C1432 N1433 1.314 . S
C1432 C1434 1.353 . S
C1432 H1438 0.930 . S
N1433 Li1409 1.990 . S
N1433 C1432 1.314 . S
N1433 C1436 1.279 . S
C1434 C1432 1.353 . S
C1434 C1437 1.348 . S
C1434 H1482 0.929 . S
C1435 C1436 1.358 . S
C1435 C1437 1.356 . S
C1435 H1483 0.930 . S
C1436 N1433 1.279 . S
C1436 C1435 1.358 . S
C1436 H1439 0.930 . S
C1437 C1434 1.348 . S
C1437 C1435 1.356 . S
H1438 C1432 0.930 . S
H1439 C1436 0.930 . S
C1440 C1442 1.348 . S
C1440 C1443 1.356 . S
C1440 O1470 1.325 . S
N1441 C1444 1.314 . S
N1441 C1445 1.279 . S
C1442 C1440 1.348 . S
C1442 C1444 1.353 . S
C1442 H1484 0.929 . S
C1443 C1440 1.356 . S
C1443 C1445 1.358 . S
C1443 H1485 0.930 . S
C1444 N1441 1.314 . S
C1444 C1442 1.353 . S
C1444 H1486 0.930 . S
C1445 N1441 1.279 . S
C1445 C1443 1.358 . S
C1445 H1487 0.930 . S
C1446 C1447 1.348 . S
C1446 C1448 1.356 . S
C1446 O1471 1.325 . S
C1447 C1446 1.348 . S
C1447 C1449 1.353 . S
C1447 H1488 0.929 . S
C1448 C1446 1.356 . S
C1448 C1450 1.358 . S
C1448 H1489 0.930 . S
C1449 C1447 1.353 . S
C1449 N1451 1.314 . S
C1449 H1490 0.930 . S
C1450 C1448 1.358 . S
C1450 N1451 1.279 . S
C1450 H1491 0.930 . S
N1451 C1449 1.314 . S
N1451 C1450 1.279 . S
C1452 C1454 1.353 . S
C1452 N1455 1.314 . S
C1452 H1458 0.930 . S
C1453 N1455 1.279 . S
C1453 C1456 1.358 . S
C1453 H1459 0.930 . S
C1454 C1452 1.353 . S
C1454 C1457 1.348 . S
C1454 H1492 0.929 . S
N1455 Li1410 1.990 . S
N1455 C1452 1.314 . S
N1455 C1453 1.279 . S
C1456 C1453 1.358 . S
C1456 C1457 1.356 . S
C1456 H1493 0.930 . S
C1457 C1454 1.348 . S
C1457 C1456 1.356 . S
H1458 C1452 0.930 . S
H1459 C1453 0.930 . S
C1460 N1461 1.314 . S
C1460 C1462 1.353 . S
C1460 H1466 0.930 . S
N1461 Li1411 1.990 . S
N1461 C1460 1.314 . S
N1461 C1464 1.279 . S
C1462 C1460 1.353 . S
C1462 C1465 1.348 . S
C1462 H1494 0.929 . S
C1463 C1464 1.358 . S
C1463 C1465 1.356 . S
C1463 H1495 0.930 . S
C1464 N1461 1.279 . S
C1464 C1463 1.358 . S
C1464 H1467 0.930 . S
C1465 C1462 1.348 . S
C1465 C1463 1.356 . S
H1466 C1460 0.930 . S
H1467 C1464 0.930 . S
O1468 Li1408 1.956 . S
O1468 Li1409 1.970 . S
O1468 Li1410 1.961 . S
O1468 C1412 1.325 . S
O1469 Li1408 1.970 . S
O1469 Li1409 1.956 . S
O1469 Li1411 1.961 . S
O1469 C1418 1.325 . S
O1470 Li1408 1.961 . S
O1470 Li1410 1.956 . S
O1470 Li1411 1.970 . S
O1470 C1440 1.325 . S
O1471 Li1409 1.961 . S
O1471 Li1410 1.970 . S
O1471 Li1411 1.956 . S
O1471 C1446 1.325 . S
H1472 C1414 0.929 . S
H1473 C1415 0.930 . S
H1474 C1416 0.930 . S
H1475 C1417 0.930 . S
H1476 C1419 0.930 . S
H1477 C1421 0.929 . S
H1478 C1422 0.930 . S
H1479 C1423 0.930 . S
H1480 C1426 0.930 . S
H1481 C1429 0.929 . S
H1482 C1434 0.929 . S
H1483 C1435 0.930 . S
H1484 C1442 0.929 . S
H1485 C1443 0.930 . S
H1486 C1444 0.930 . S
H1487 C1445 0.930 . S
H1488 C1447 0.929 . S
H1489 C1448 0.930 . S
H1490 C1449 0.930 . S
H1491 C1450 0.930 . S
H1492 C1454 0.929 . S
H1493 C1456 0.930 . S
H1494 C1462 0.929 . S
H1495 C1463 0.930 . S
Li1496 N1513 1.990 . S
Li1496 O1556 1.956 . S
Li1496 O1557 1.970 . S
Li1496 O1558 1.961 . S
Li1497 N1521 1.990 . S
Li1497 O1556 1.970 . S
Li1497 O1557 1.956 . S
Li1497 O1559 1.961 . S
Li1498 N1543 1.990 . S
Li1498 O1556 1.961 . S
Li1498 O1558 1.956 . S
Li1498 O1559 1.970 . S
Li1499 N1549 1.990 . S
Li1499 O1557 1.961 . S
Li1499 O1558 1.970 . S
Li1499 O1559 1.956 . S
C1500 C1502 1.348 . S
C1500 C1503 1.356 . S
C1500 O1556 1.325 . S
N1501 C1504 1.314 . S
N1501 C1505 1.279 . S
C1502 C1500 1.348 . S
C1502 C1504 1.353 . S
C1502 H1560 0.929 . S
C1503 C1500 1.356 . S
C1503 C1505 1.358 . S
C1503 H1561 0.930 . S
C1504 N1501 1.314 . S
C1504 C1502 1.353 . S
C1504 H1562 0.930 . S
C1505 N1501 1.279 . S
C1505 C1503 1.358 . S
C1505 H1563 0.930 . S
C1506 C1509 1.348 . S
C1506 C1510 1.356 . S
C1506 O1557 1.325 . S
C1507 N1508 1.279 . S
C1507 C1510 1.358 . S
C1507 H1564 0.930 . S
N1508 C1507 1.279 . S
N1508 C1511 1.314 . S
C1509 C1506 1.348 . S
C1509 C1511 1.353 . S
C1509 H1565 0.929 . S
C1510 C1506 1.356 . S
C1510 C1507 1.358 . S
C1510 H1566 0.930 . S
C1511 N1508 1.314 . S
C1511 C1509 1.353 . S
C1511 H1567 0.930 . S
C1512 N1513 1.314 . S
C1512 C1517 1.353 . S
C1512 H1518 0.930 . S
N1513 Li1496 1.990 . S
N1513 C1512 1.314 . S
N1513 C1515 1.279 . S
C1514 C1515 1.358 . S
C1514 C1516 1.356 . S
C1514 H1568 0.930 . S
C1515 N1513 1.279 . S
C1515 C1514 1.358 . S
C1515 H1519 0.930 . S
C1516 C1514 1.356 . S
C1516 C1517 1.348 . S
C1517 C1512 1.353 . S
C1517 C1516 1.348 . S
C1517 H1569 0.929 . S
H1518 C1512 0.930 . S
H1519 C1515 0.930 . S
C1520 N1521 1.314 . S
C1520 C1522 1.353 . S
C1520 H1526 0.930 . S
N1521 Li1497 1.990 . S
N1521 C1520 1.314 . S
N1521 C1524 1.279 . S
C1522 C1520 1.353 . S
C1522 C1525 1.348 . S
C1522 H1570 0.929 . S
C1523 C1524 1.358 . S
C1523 C1525 1.356 . S
C1523 H1571 0.930 . S
C1524 N1521 1.279 . S
C1524 C1523 1.358 . S
C1524 H1527 0.930 . S
C1525 C1522 1.348 . S
C1525 C1523 1.356 . S
H1526 C1520 0.930 . S
H1527 C1524 0.930 . S
C1528 C1530 1.348 . S
C1528 C1531 1.356 . S
C1528 O1558 1.325 . S
N1529 C1532 1.314 . S
N1529 C1533 1.279 . S
C1530 C1528 1.348 . S
C1530 C1532 1.353 . S
C1530 H1572 0.929 . S
C1531 C1528 1.356 . S
C1531 C1533 1.358 . S
C1531 H1573 0.930 . S
C1532 N1529 1.314 . S
C1532 C1530 1.353 . S
C1532 H1574 0.930 . S
C1533 N1529 1.279 . S
C1533 C1531 1.358 . S
C1533 H1575 0.930 . S
C1534 C1535 1.348 . S
C1534 C1536 1.356 . S
C1534 O1559 1.325 . S
C1535 C1534 1.348 . S
C1535 C1537 1.353 . S
C1535 H1576 0.929 . S
C1536 C1534 1.356 . S
C1536 C1538 1.358 . S
C1536 H1577 0.930 . S
C1537 C1535 1.353 . S
C1537 N1539 1.314 . S
C1537 H1578 0.930 . S
C1538 C1536 1.358 . S
C1538 N1539 1.279 . S
C1538 H1579 0.930 . S
N1539 C1537 1.314 . S
N1539 C1538 1.279 . S
C1540 C1542 1.353 . S
C1540 N1543 1.314 . S
C1540 H1546 0.930 . S
C1541 N1543 1.279 . S
C1541 C1544 1.358 . S
C1541 H1547 0.930 . S
C1542 C1540 1.353 . S
C1542 C1545 1.348 . S
C1542 H1580 0.929 . S
N1543 Li1498 1.990 . S
N1543 C1540 1.314 . S
N1543 C1541 1.279 . S
C1544 C1541 1.358 . S
C1544 C1545 1.356 . S
C1544 H1581 0.930 . S
C1545 C1542 1.348 . S
C1545 C1544 1.356 . S
H1546 C1540 0.930 . S
H1547 C1541 0.930 . S
C1548 N1549 1.314 . S
C1548 C1550 1.353 . S
C1548 H1554 0.930 . S
N1549 Li1499 1.990 . S
N1549 C1548 1.314 . S
N1549 C1552 1.279 . S
C1550 C1548 1.353 . S
C1550 C1553 1.348 . S
C1550 H1582 0.929 . S
C1551 C1552 1.358 . S
C1551 C1553 1.356 . S
C1551 H1583 0.930 . S
C1552 N1549 1.279 . S
C1552 C1551 1.358 . S
C1552 H1555 0.930 . S
C1553 C1550 1.348 . S
C1553 C1551 1.356 . S
H1554 C1548 0.930 . S
H1555 C1552 0.930 . S
O1556 Li1496 1.956 . S
O1556 Li1497 1.970 . S
O1556 Li1498 1.961 . S
O1556 C1500 1.325 . S
O1557 Li1496 1.970 . S
O1557 Li1497 1.956 . S
O1557 Li1499 1.961 . S
O1557 C1506 1.325 . S
O1558 Li1496 1.961 . S
O1558 Li1498 1.956 . S
O1558 Li1499 1.970 . S
O1558 C1528 1.325 . S
O1559 Li1497 1.961 . S
O1559 Li1498 1.970 . S
O1559 Li1499 1.956 . S
O1559 C1534 1.325 . S
H1560 C1502 0.929 . S
H1561 C1503 0.930 . S
H1562 C1504 0.930 . S
H1563 C1505 0.930 . S
H1564 C1507 0.930 . S
H1565 C1509 0.929 . S
H1566 C1510 0.930 . S
H1567 C1511 0.930 . S
H1568 C1514 0.930 . S
H1569 C1517 0.929 . S
H1570 C1522 0.929 . S
H1571 C1523 0.930 . S
H1572 C1530 0.929 . S
H1573 C1531 0.930 . S
H1574 C1532 0.930 . S
H1575 C1533 0.930 . S
H1576 C1535 0.929 . S
H1577 C1536 0.930 . S
H1578 C1537 0.930 . S
H1579 C1538 0.930 . S
H1580 C1542 0.929 . S
H1581 C1544 0.930 . S
H1582 C1550 0.929 . S
H1583 C1551 0.930 . S
Li1584 N1601 1.990 . S
Li1584 O1644 1.956 . S
Li1584 O1645 1.970 . S
Li1584 O1646 1.961 . S
Li1585 N1609 1.990 . S
Li1585 O1644 1.970 . S
Li1585 O1645 1.956 . S
Li1585 O1647 1.961 . S
Li1586 N1631 1.990 . S
Li1586 O1644 1.961 . S
Li1586 O1646 1.956 . S
Li1586 O1647 1.970 . S
Li1587 N1637 1.990 . S
Li1587 O1645 1.961 . S
Li1587 O1646 1.970 . S
Li1587 O1647 1.956 . S
C1588 C1590 1.348 . S
C1588 C1591 1.356 . S
C1588 O1644 1.325 . S
N1589 C1592 1.314 . S
N1589 C1593 1.279 . S
C1590 C1588 1.348 . S
C1590 C1592 1.353 . S
C1590 H1648 0.929 . S
C1591 C1588 1.356 . S
C1591 C1593 1.358 . S
C1591 H1649 0.930 . S
C1592 N1589 1.314 . S
C1592 C1590 1.353 . S
C1592 H1650 0.930 . S
C1593 N1589 1.279 . S
C1593 C1591 1.358 . S
C1593 H1651 0.930 . S
C1594 C1597 1.348 . S
C1594 C1598 1.356 . S
C1594 O1645 1.325 . S
C1595 N1596 1.279 . S
C1595 C1598 1.358 . S
C1595 H1652 0.930 . S
N1596 C1595 1.279 . S
N1596 C1599 1.314 . S
C1597 C1594 1.348 . S
C1597 C1599 1.353 . S
C1597 H1653 0.929 . S
C1598 C1594 1.356 . S
C1598 C1595 1.358 . S
C1598 H1654 0.930 . S
C1599 N1596 1.314 . S
C1599 C1597 1.353 . S
C1599 H1655 0.930 . S
C1600 N1601 1.314 . S
C1600 C1605 1.353 . S
C1600 H1606 0.930 . S
N1601 Li1584 1.990 . S
N1601 C1600 1.314 . S
N1601 C1603 1.279 . S
C1602 C1603 1.358 . S
C1602 C1604 1.356 . S
C1602 H1656 0.930 . S
C1603 N1601 1.279 . S
C1603 C1602 1.358 . S
C1603 H1607 0.930 . S
C1604 C1602 1.356 . S
C1604 C1605 1.348 . S
C1605 C1600 1.353 . S
C1605 C1604 1.348 . S
C1605 H1657 0.929 . S
H1606 C1600 0.930 . S
H1607 C1603 0.930 . S
C1608 N1609 1.314 . S
C1608 C1610 1.353 . S
C1608 H1614 0.930 . S
N1609 Li1585 1.990 . S
N1609 C1608 1.314 . S
N1609 C1612 1.279 . S
C1610 C1608 1.353 . S
C1610 C1613 1.348 . S
C1610 H1658 0.929 . S
C1611 C1612 1.358 . S
C1611 C1613 1.356 . S
C1611 H1659 0.930 . S
C1612 N1609 1.279 . S
C1612 C1611 1.358 . S
C1612 H1615 0.930 . S
C1613 C1610 1.348 . S
C1613 C1611 1.356 . S
H1614 C1608 0.930 . S
H1615 C1612 0.930 . S
C1616 C1618 1.348 . S
C1616 C1619 1.356 . S
C1616 O1646 1.325 . S
N1617 C1620 1.314 . S
N1617 C1621 1.279 . S
C1618 C1616 1.348 . S
C1618 C1620 1.353 . S
C1618 H1660 0.929 . S
C1619 C1616 1.356 . S
C1619 C1621 1.358 . S
C1619 H1661 0.930 . S
C1620 N1617 1.314 . S
C1620 C1618 1.353 . S
C1620 H1662 0.930 . S
C1621 N1617 1.279 . S
C1621 C1619 1.358 . S
C1621 H1663 0.930 . S
C1622 C1623 1.348 . S
C1622 C1624 1.356 . S
C1622 O1647 1.325 . S
C1623 C1622 1.348 . S
C1623 C1625 1.353 . S
C1623 H1664 0.929 . S
C1624 C1622 1.356 . S
C1624 C1626 1.358 . S
C1624 H1665 0.930 . S
C1625 C1623 1.353 . S
C1625 N1627 1.314 . S
C1625 H1666 0.930 . S
C1626 C1624 1.358 . S
C1626 N1627 1.279 . S
C1626 H1667 0.930 . S
N1627 C1625 1.314 . S
N1627 C1626 1.279 . S
C1628 C1630 1.353 . S
C1628 N1631 1.314 . S
C1628 H1634 0.930 . S
C1629 N1631 1.279 . S
C1629 C1632 1.358 . S
C1629 H1635 0.930 . S
C1630 C1628 1.353 . S
C1630 C1633 1.348 . S
C1630 H1668 0.929 . S
N1631 Li1586 1.990 . S
N1631 C1628 1.314 . S
N1631 C1629 1.279 . S
C1632 C1629 1.358 . S
C1632 C1633 1.356 . S
C1632 H1669 0.930 . S
C1633 C1630 1.348 . S
C1633 C1632 1.356 . S
H1634 C1628 0.930 . S
H1635 C1629 0.930 . S
C1636 N1637 1.314 . S
C1636 C1638 1.353 . S
C1636 H1642 0.930 . S
N1637 Li1587 1.990 . S
N1637 C1636 1.314 . S
N1637 C1640 1.279 . S
C1638 C1636 1.353 . S
C1638 C1641 1.348 . S
C1638 H1670 0.929 . S
C1639 C1640 1.358 . S
C1639 C1641 1.356 . S
C1639 H1671 0.930 . S
C1640 N1637 1.279 . S
C1640 C1639 1.358 . S
C1640 H1643 0.930 . S
C1641 C1638 1.348 . S
C1641 C1639 1.356 . S
H1642 C1636 0.930 . S
H1643 C1640 0.930 . S
O1644 Li1584 1.956 . S
O1644 Li1585 1.970 . S
O1644 Li1586 1.961 . S
O1644 C1588 1.325 . S
O1645 Li1584 1.970 . S
O1645 Li1585 1.956 . S
O1645 Li1587 1.961 . S
O1645 C1594 1.325 . S
O1646 Li1584 1.961 . S
O1646 Li1586 1.956 . S
O1646 Li1587 1.970 . S
O1646 C1616 1.325 . S
O1647 Li1585 1.961 . S
O1647 Li1586 1.970 . S
O1647 Li1587 1.956 . S
O1647 C1622 1.325 . S
H1648 C1590 0.929 . S
H1649 C1591 0.930 . S
H1650 C1592 0.930 . S
H1651 C1593 0.930 . S
H1652 C1595 0.930 . S
H1653 C1597 0.929 . S
H1654 C1598 0.930 . S
H1655 C1599 0.930 . S
H1656 C1602 0.930 . S
H1657 C1605 0.929 . S
H1658 C1610 0.929 . S
H1659 C1611 0.930 . S
H1660 C1618 0.929 . S
H1661 C1619 0.930 . S
H1662 C1620 0.930 . S
H1663 C1621 0.930 . S
H1664 C1623 0.929 . S
H1665 C1624 0.930 . S
H1666 C1625 0.930 . S
H1667 C1626 0.930 . S
H1668 C1630 0.929 . S
H1669 C1632 0.930 . S
H1670 C1638 0.929 . S
H1671 C1639 0.930 . S
Li1672 N1689 1.990 . S
Li1672 O1732 1.956 . S
Li1672 O1733 1.970 . S
Li1672 O1734 1.961 . S
Li1673 N1697 1.990 . S
Li1673 O1732 1.970 . S
Li1673 O1733 1.956 . S
Li1673 O1735 1.961 . S
Li1674 N1719 1.990 . S
Li1674 O1732 1.961 . S
Li1674 O1734 1.956 . S
Li1674 O1735 1.970 . S
Li1675 N1725 1.990 . S
Li1675 O1733 1.961 . S
Li1675 O1734 1.970 . S
Li1675 O1735 1.956 . S
C1676 C1678 1.348 . S
C1676 C1679 1.356 . S
C1676 O1732 1.325 . S
N1677 C1680 1.314 . S
N1677 C1681 1.279 . S
C1678 C1676 1.348 . S
C1678 C1680 1.353 . S
C1678 H1736 0.929 . S
C1679 C1676 1.356 . S
C1679 C1681 1.358 . S
C1679 H1737 0.930 . S
C1680 N1677 1.314 . S
C1680 C1678 1.353 . S
C1680 H1738 0.930 . S
C1681 N1677 1.279 . S
C1681 C1679 1.358 . S
C1681 H1739 0.930 . S
C1682 C1685 1.348 . S
C1682 C1686 1.356 . S
C1682 O1733 1.325 . S
C1683 N1684 1.279 . S
C1683 C1686 1.358 . S
C1683 H1740 0.930 . S
N1684 C1683 1.279 . S
N1684 C1687 1.314 . S
C1685 C1682 1.348 . S
C1685 C1687 1.353 . S
C1685 H1741 0.929 . S
C1686 C1682 1.356 . S
C1686 C1683 1.358 . S
C1686 H1742 0.930 . S
C1687 N1684 1.314 . S
C1687 C1685 1.353 . S
C1687 H1743 0.930 . S
C1688 N1689 1.314 . S
C1688 C1693 1.353 . S
C1688 H1694 0.930 . S
N1689 Li1672 1.990 . S
N1689 C1688 1.314 . S
N1689 C1691 1.279 . S
C1690 C1691 1.358 . S
C1690 C1692 1.356 . S
C1690 H1744 0.930 . S
C1691 N1689 1.279 . S
C1691 C1690 1.358 . S
C1691 H1695 0.930 . S
C1692 C1690 1.356 . S
C1692 C1693 1.348 . S
C1693 C1688 1.353 . S
C1693 C1692 1.348 . S
C1693 H1745 0.929 . S
H1694 C1688 0.930 . S
H1695 C1691 0.930 . S
C1696 N1697 1.314 . S
C1696 C1698 1.353 . S
C1696 H1702 0.930 . S
N1697 Li1673 1.990 . S
N1697 C1696 1.314 . S
N1697 C1700 1.279 . S
C1698 C1696 1.353 . S
C1698 C1701 1.348 . S
C1698 H1746 0.929 . S
C1699 C1700 1.358 . S
C1699 C1701 1.356 . S
C1699 H1747 0.930 . S
C1700 N1697 1.279 . S
C1700 C1699 1.358 . S
C1700 H1703 0.930 . S
C1701 C1698 1.348 . S
C1701 C1699 1.356 . S
H1702 C1696 0.930 . S
H1703 C1700 0.930 . S
C1704 C1706 1.348 . S
C1704 C1707 1.356 . S
C1704 O1734 1.325 . S
N1705 C1708 1.314 . S
N1705 C1709 1.279 . S
C1706 C1704 1.348 . S
C1706 C1708 1.353 . S
C1706 H1748 0.929 . S
C1707 C1704 1.356 . S
C1707 C1709 1.358 . S
C1707 H1749 0.930 . S
C1708 N1705 1.314 . S
C1708 C1706 1.353 . S
C1708 H1750 0.930 . S
C1709 N1705 1.279 . S
C1709 C1707 1.358 . S
C1709 H1751 0.930 . S
C1710 C1711 1.348 . S
C1710 C1712 1.356 . S
C1710 O1735 1.325 . S
C1711 C1710 1.348 . S
C1711 C1713 1.353 . S
C1711 H1752 0.929 . S
C1712 C1710 1.356 . S
C1712 C1714 1.358 . S
C1712 H1753 0.930 . S
C1713 C1711 1.353 . S
C1713 N1715 1.314 . S
C1713 H1754 0.930 . S
C1714 C1712 1.358 . S
C1714 N1715 1.279 . S
C1714 H1755 0.930 . S
N1715 C1713 1.314 . S
N1715 C1714 1.279 . S
C1716 C1718 1.353 . S
C1716 N1719 1.314 . S
C1716 H1722 0.930 . S
C1717 N1719 1.279 . S
C1717 C1720 1.358 . S
C1717 H1723 0.930 . S
C1718 C1716 1.353 . S
C1718 C1721 1.348 . S
C1718 H1756 0.929 . S
N1719 Li1674 1.990 . S
N1719 C1716 1.314 . S
N1719 C1717 1.279 . S
C1720 C1717 1.358 . S
C1720 C1721 1.356 . S
C1720 H1757 0.930 . S
C1721 C1718 1.348 . S
C1721 C1720 1.356 . S
H1722 C1716 0.930 . S
H1723 C1717 0.930 . S
C1724 N1725 1.314 . S
C1724 C1726 1.353 . S
C1724 H1730 0.930 . S
N1725 Li1675 1.990 . S
N1725 C1724 1.314 . S
N1725 C1728 1.279 . S
C1726 C1724 1.353 . S
C1726 C1729 1.348 . S
C1726 H1758 0.929 . S
C1727 C1728 1.358 . S
C1727 C1729 1.356 . S
C1727 H1759 0.930 . S
C1728 N1725 1.279 . S
C1728 C1727 1.358 . S
C1728 H1731 0.930 . S
C1729 C1726 1.348 . S
C1729 C1727 1.356 . S
H1730 C1724 0.930 . S
H1731 C1728 0.930 . S
O1732 Li1672 1.956 . S
O1732 Li1673 1.970 . S
O1732 Li1674 1.961 . S
O1732 C1676 1.325 . S
O1733 Li1672 1.970 . S
O1733 Li1673 1.956 . S
O1733 Li1675 1.961 . S
O1733 C1682 1.325 . S
O1734 Li1672 1.961 . S
O1734 Li1674 1.956 . S
O1734 Li1675 1.970 . S
O1734 C1704 1.325 . S
O1735 Li1673 1.961 . S
O1735 Li1674 1.970 . S
O1735 Li1675 1.956 . S
O1735 C1710 1.325 . S
H1736 C1678 0.929 . S
H1737 C1679 0.930 . S
H1738 C1680 0.930 . S
H1739 C1681 0.930 . S
H1740 C1683 0.930 . S
H1741 C1685 0.929 . S
H1742 C1686 0.930 . S
H1743 C1687 0.930 . S
H1744 C1690 0.930 . S
H1745 C1693 0.929 . S
H1746 C1698 0.929 . S
H1747 C1699 0.930 . S
H1748 C1706 0.929 . S
H1749 C1707 0.930 . S
H1750 C1708 0.930 . S
H1751 C1709 0.930 . S
H1752 C1711 0.929 . S
H1753 C1712 0.930 . S
H1754 C1713 0.930 . S
H1755 C1714 0.930 . S
H1756 C1718 0.929 . S
H1757 C1720 0.930 . S
H1758 C1726 0.929 . S
H1759 C1727 0.930 . S
Li1760 N1777 1.990 . S
Li1760 O1820 1.956 . S
Li1760 O1821 1.970 . S
Li1760 O1822 1.961 . S
Li1761 N1785 1.990 . S
Li1761 O1820 1.970 . S
Li1761 O1821 1.956 . S
Li1761 O1823 1.961 . S
Li1762 N1807 1.990 . S
Li1762 O1820 1.961 . S
Li1762 O1822 1.956 . S
Li1762 O1823 1.970 . S
Li1763 N1813 1.990 . S
Li1763 O1821 1.961 . S
Li1763 O1822 1.970 . S
Li1763 O1823 1.956 . S
C1764 C1766 1.348 . S
C1764 C1767 1.356 . S
C1764 O1820 1.325 . S
N1765 C1768 1.314 . S
N1765 C1769 1.279 . S
C1766 C1764 1.348 . S
C1766 C1768 1.353 . S
C1766 H1824 0.929 . S
C1767 C1764 1.356 . S
C1767 C1769 1.358 . S
C1767 H1825 0.930 . S
C1768 N1765 1.314 . S
C1768 C1766 1.353 . S
C1768 H1826 0.930 . S
C1769 N1765 1.279 . S
C1769 C1767 1.358 . S
C1769 H1827 0.930 . S
C1770 C1773 1.348 . S
C1770 C1774 1.356 . S
C1770 O1821 1.325 . S
C1771 N1772 1.279 . S
C1771 C1774 1.358 . S
C1771 H1828 0.930 . S
N1772 C1771 1.279 . S
N1772 C1775 1.314 . S
C1773 C1770 1.348 . S
C1773 C1775 1.353 . S
C1773 H1829 0.929 . S
C1774 C1770 1.356 . S
C1774 C1771 1.358 . S
C1774 H1830 0.930 . S
C1775 N1772 1.314 . S
C1775 C1773 1.353 . S
C1775 H1831 0.930 . S
C1776 N1777 1.314 . S
C1776 C1781 1.353 . S
C1776 H1782 0.930 . S
N1777 Li1760 1.990 . S
N1777 C1776 1.314 . S
N1777 C1779 1.279 . S
C1778 C1779 1.358 . S
C1778 C1780 1.356 . S
C1778 H1832 0.930 . S
C1779 N1777 1.279 . S
C1779 C1778 1.358 . S
C1779 H1783 0.930 . S
C1780 C1778 1.356 . S
C1780 C1781 1.348 . S
C1781 C1776 1.353 . S
C1781 C1780 1.348 . S
C1781 H1833 0.929 . S
H1782 C1776 0.930 . S
H1783 C1779 0.930 . S
C1784 N1785 1.314 . S
C1784 C1786 1.353 . S
C1784 H1790 0.930 . S
N1785 Li1761 1.990 . S
N1785 C1784 1.314 . S
N1785 C1788 1.279 . S
C1786 C1784 1.353 . S
C1786 C1789 1.348 . S
C1786 H1834 0.929 . S
C1787 C1788 1.358 . S
C1787 C1789 1.356 . S
C1787 H1835 0.930 . S
C1788 N1785 1.279 . S
C1788 C1787 1.358 . S
C1788 H1791 0.930 . S
C1789 C1786 1.348 . S
C1789 C1787 1.356 . S
H1790 C1784 0.930 . S
H1791 C1788 0.930 . S
C1792 C1794 1.348 . S
C1792 C1795 1.356 . S
C1792 O1822 1.325 . S
N1793 C1796 1.314 . S
N1793 C1797 1.279 . S
C1794 C1792 1.348 . S
C1794 C1796 1.353 . S
C1794 H1836 0.929 . S
C1795 C1792 1.356 . S
C1795 C1797 1.358 . S
C1795 H1837 0.930 . S
C1796 N1793 1.314 . S
C1796 C1794 1.353 . S
C1796 H1838 0.930 . S
C1797 N1793 1.279 . S
C1797 C1795 1.358 . S
C1797 H1839 0.930 . S
C1798 C1799 1.348 . S
C1798 C1800 1.356 . S
C1798 O1823 1.325 . S
C1799 C1798 1.348 . S
C1799 C1801 1.353 . S
C1799 H1840 0.929 . S
C1800 C1798 1.356 . S
C1800 C1802 1.358 . S
C1800 H1841 0.930 . S
C1801 C1799 1.353 . S
C1801 N1803 1.314 . S
C1801 H1842 0.930 . S
C1802 C1800 1.358 . S
C1802 N1803 1.279 . S
C1802 H1843 0.930 . S
N1803 C1801 1.314 . S
N1803 C1802 1.279 . S
C1804 C1806 1.353 . S
C1804 N1807 1.314 . S
C1804 H1810 0.930 . S
C1805 N1807 1.279 . S
C1805 C1808 1.358 . S
C1805 H1811 0.930 . S
C1806 C1804 1.353 . S
C1806 C1809 1.348 . S
C1806 H1844 0.929 . S
N1807 Li1762 1.990 . S
N1807 C1804 1.314 . S
N1807 C1805 1.279 . S
C1808 C1805 1.358 . S
C1808 C1809 1.356 . S
C1808 H1845 0.930 . S
C1809 C1806 1.348 . S
C1809 C1808 1.356 . S
H1810 C1804 0.930 . S
H1811 C1805 0.930 . S
C1812 N1813 1.314 . S
C1812 C1814 1.353 . S
C1812 H1818 0.930 . S
N1813 Li1763 1.990 . S
N1813 C1812 1.314 . S
N1813 C1816 1.279 . S
C1814 C1812 1.353 . S
C1814 C1817 1.348 . S
C1814 H1846 0.929 . S
C1815 C1816 1.358 . S
C1815 C1817 1.356 . S
C1815 H1847 0.930 . S
C1816 N1813 1.279 . S
C1816 C1815 1.358 . S
C1816 H1819 0.930 . S
C1817 C1814 1.348 . S
C1817 C1815 1.356 . S
H1818 C1812 0.930 . S
H1819 C1816 0.930 . S
O1820 Li1760 1.956 . S
O1820 Li1761 1.970 . S
O1820 Li1762 1.961 . S
O1820 C1764 1.325 . S
O1821 Li1760 1.970 . S
O1821 Li1761 1.956 . S
O1821 Li1763 1.961 . S
O1821 C1770 1.325 . S
O1822 Li1760 1.961 . S
O1822 Li1762 1.956 . S
O1822 Li1763 1.970 . S
O1822 C1792 1.325 . S
O1823 Li1761 1.961 . S
O1823 Li1762 1.970 . S
O1823 Li1763 1.956 . S
O1823 C1798 1.325 . S
H1824 C1766 0.929 . S
H1825 C1767 0.930 . S
H1826 C1768 0.930 . S
H1827 C1769 0.930 . S
H1828 C1771 0.930 . S
H1829 C1773 0.929 . S
H1830 C1774 0.930 . S
H1831 C1775 0.930 . S
H1832 C1778 0.930 . S
H1833 C1781 0.929 . S
H1834 C1786 0.929 . S
H1835 C1787 0.930 . S
H1836 C1794 0.929 . S
H1837 C1795 0.930 . S
H1838 C1796 0.930 . S
H1839 C1797 0.930 . S
H1840 C1799 0.929 . S
H1841 C1800 0.930 . S
H1842 C1801 0.930 . S
H1843 C1802 0.930 . S
H1844 C1806 0.929 . S
H1845 C1808 0.930 . S
H1846 C1814 0.929 . S
H1847 C1815 0.930 . S
Li1848 N1865 1.990 . S
Li1848 O1908 1.956 . S
Li1848 O1909 1.970 . S
Li1848 O1910 1.961 . S
Li1849 N1873 1.990 . S
Li1849 O1908 1.970 . S
Li1849 O1909 1.956 . S
Li1849 O1911 1.961 . S
Li1850 N1895 1.990 . S
Li1850 O1908 1.961 . S
Li1850 O1910 1.956 . S
Li1850 O1911 1.970 . S
Li1851 N1901 1.990 . S
Li1851 O1909 1.961 . S
Li1851 O1910 1.970 . S
Li1851 O1911 1.956 . S
C1852 C1854 1.348 . S
C1852 C1855 1.356 . S
C1852 O1908 1.325 . S
N1853 C1856 1.314 . S
N1853 C1857 1.279 . S
C1854 C1852 1.348 . S
C1854 C1856 1.353 . S
C1854 H1912 0.929 . S
C1855 C1852 1.356 . S
C1855 C1857 1.358 . S
C1855 H1913 0.930 . S
C1856 N1853 1.314 . S
C1856 C1854 1.353 . S
C1856 H1914 0.930 . S
C1857 N1853 1.279 . S
C1857 C1855 1.358 . S
C1857 H1915 0.930 . S
C1858 C1861 1.348 . S
C1858 C1862 1.356 . S
C1858 O1909 1.325 . S
C1859 N1860 1.279 . S
C1859 C1862 1.358 . S
C1859 H1916 0.930 . S
N1860 C1859 1.279 . S
N1860 C1863 1.314 . S
C1861 C1858 1.348 . S
C1861 C1863 1.353 . S
C1861 H1917 0.929 . S
C1862 C1858 1.356 . S
C1862 C1859 1.358 . S
C1862 H1918 0.930 . S
C1863 N1860 1.314 . S
C1863 C1861 1.353 . S
C1863 H1919 0.930 . S
C1864 N1865 1.314 . S
C1864 C1869 1.353 . S
C1864 H1870 0.930 . S
N1865 Li1848 1.990 . S
N1865 C1864 1.314 . S
N1865 C1867 1.279 . S
C1866 C1867 1.358 . S
C1866 C1868 1.356 . S
C1866 H1920 0.930 . S
C1867 N1865 1.279 . S
C1867 C1866 1.358 . S
C1867 H1871 0.930 . S
C1868 C1866 1.356 . S
C1868 C1869 1.348 . S
C1869 C1864 1.353 . S
C1869 C1868 1.348 . S
C1869 H1921 0.929 . S
H1870 C1864 0.930 . S
H1871 C1867 0.930 . S
C1872 N1873 1.314 . S
C1872 C1874 1.353 . S
C1872 H1878 0.930 . S
N1873 Li1849 1.990 . S
N1873 C1872 1.314 . S
N1873 C1876 1.279 . S
C1874 C1872 1.353 . S
C1874 C1877 1.348 . S
C1874 H1922 0.929 . S
C1875 C1876 1.358 . S
C1875 C1877 1.356 . S
C1875 H1923 0.930 . S
C1876 N1873 1.279 . S
C1876 C1875 1.358 . S
C1876 H1879 0.930 . S
C1877 C1874 1.348 . S
C1877 C1875 1.356 . S
H1878 C1872 0.930 . S
H1879 C1876 0.930 . S
C1880 C1882 1.348 . S
C1880 C1883 1.356 . S
C1880 O1910 1.325 . S
N1881 C1884 1.314 . S
N1881 C1885 1.279 . S
C1882 C1880 1.348 . S
C1882 C1884 1.353 . S
C1882 H1924 0.929 . S
C1883 C1880 1.356 . S
C1883 C1885 1.358 . S
C1883 H1925 0.930 . S
C1884 N1881 1.314 . S
C1884 C1882 1.353 . S
C1884 H1926 0.930 . S
C1885 N1881 1.279 . S
C1885 C1883 1.358 . S
C1885 H1927 0.930 . S
C1886 C1887 1.348 . S
C1886 C1888 1.356 . S
C1886 O1911 1.325 . S
C1887 C1886 1.348 . S
C1887 C1889 1.353 . S
C1887 H1928 0.929 . S
C1888 C1886 1.356 . S
C1888 C1890 1.358 . S
C1888 H1929 0.930 . S
C1889 C1887 1.353 . S
C1889 N1891 1.314 . S
C1889 H1930 0.930 . S
C1890 C1888 1.358 . S
C1890 N1891 1.279 . S
C1890 H1931 0.930 . S
N1891 C1889 1.314 . S
N1891 C1890 1.279 . S
C1892 C1894 1.353 . S
C1892 N1895 1.314 . S
C1892 H1898 0.930 . S
C1893 N1895 1.279 . S
C1893 C1896 1.358 . S
C1893 H1899 0.930 . S
C1894 C1892 1.353 . S
C1894 C1897 1.348 . S
C1894 H1932 0.929 . S
N1895 Li1850 1.990 . S
N1895 C1892 1.314 . S
N1895 C1893 1.279 . S
C1896 C1893 1.358 . S
C1896 C1897 1.356 . S
C1896 H1933 0.930 . S
C1897 C1894 1.348 . S
C1897 C1896 1.356 . S
H1898 C1892 0.930 . S
H1899 C1893 0.930 . S
C1900 N1901 1.314 . S
C1900 C1902 1.353 . S
C1900 H1906 0.930 . S
N1901 Li1851 1.990 . S
N1901 C1900 1.314 . S
N1901 C1904 1.279 . S
C1902 C1900 1.353 . S
C1902 C1905 1.348 . S
C1902 H1934 0.929 . S
C1903 C1904 1.358 . S
C1903 C1905 1.356 . S
C1903 H1935 0.930 . S
C1904 N1901 1.279 . S
C1904 C1903 1.358 . S
C1904 H1907 0.930 . S
C1905 C1902 1.348 . S
C1905 C1903 1.356 . S
H1906 C1900 0.930 . S
H1907 C1904 0.930 . S
O1908 Li1848 1.956 . S
O1908 Li1849 1.970 . S
O1908 Li1850 1.961 . S
O1908 C1852 1.325 . S
O1909 Li1848 1.970 . S
O1909 Li1849 1.956 . S
O1909 Li1851 1.961 . S
O1909 C1858 1.325 . S
O1910 Li1848 1.961 . S
O1910 Li1850 1.956 . S
O1910 Li1851 1.970 . S
O1910 C1880 1.325 . S
O1911 Li1849 1.961 . S
O1911 Li1850 1.970 . S
O1911 Li1851 1.956 . S
O1911 C1886 1.325 . S
H1912 C1854 0.929 . S
H1913 C1855 0.930 . S
H1914 C1856 0.930 . S
H1915 C1857 0.930 . S
H1916 C1859 0.930 . S
H1917 C1861 0.929 . S
H1918 C1862 0.930 . S
H1919 C1863 0.930 . S
H1920 C1866 0.930 . S
H1921 C1869 0.929 . S
H1922 C1874 0.929 . S
H1923 C1875 0.930 . S
H1924 C1882 0.929 . S
H1925 C1883 0.930 . S
H1926 C1884 0.930 . S
H1927 C1885 0.930 . S
H1928 C1887 0.929 . S
H1929 C1888 0.930 . S
H1930 C1889 0.930 . S
H1931 C1890 0.930 . S
H1932 C1894 0.929 . S
H1933 C1896 0.930 . S
H1934 C1902 0.929 . S
H1935 C1903 0.930 . S
Li1936 N1953 1.990 . S
Li1936 O1996 1.956 . S
Li1936 O1997 1.970 . S
Li1936 O1998 1.961 . S
Li1937 N1961 1.990 . S
Li1937 O1996 1.970 . S
Li1937 O1997 1.956 . S
Li1937 O1999 1.961 . S
Li1938 N1983 1.990 . S
Li1938 O1996 1.961 . S
Li1938 O1998 1.956 . S
Li1938 O1999 1.970 . S
Li1939 N1989 1.990 . S
Li1939 O1997 1.961 . S
Li1939 O1998 1.970 . S
Li1939 O1999 1.956 . S
C1940 C1942 1.348 . S
C1940 C1943 1.356 . S
C1940 O1996 1.325 . S
N1941 C1944 1.314 . S
N1941 C1945 1.279 . S
C1942 C1940 1.348 . S
C1942 C1944 1.353 . S
C1942 H2000 0.929 . S
C1943 C1940 1.356 . S
C1943 C1945 1.358 . S
C1943 H2001 0.930 . S
C1944 N1941 1.314 . S
C1944 C1942 1.353 . S
C1944 H2002 0.930 . S
C1945 N1941 1.279 . S
C1945 C1943 1.358 . S
C1945 H2003 0.930 . S
C1946 C1949 1.348 . S
C1946 C1950 1.356 . S
C1946 O1997 1.325 . S
C1947 N1948 1.279 . S
C1947 C1950 1.358 . S
C1947 H2004 0.930 . S
N1948 C1947 1.279 . S
N1948 C1951 1.314 . S
C1949 C1946 1.348 . S
C1949 C1951 1.353 . S
C1949 H2005 0.929 . S
C1950 C1946 1.356 . S
C1950 C1947 1.358 . S
C1950 H2006 0.930 . S
C1951 N1948 1.314 . S
C1951 C1949 1.353 . S
C1951 H2007 0.930 . S
C1952 N1953 1.314 . S
C1952 C1957 1.353 . S
C1952 H1958 0.930 . S
N1953 Li1936 1.990 . S
N1953 C1952 1.314 . S
N1953 C1955 1.279 . S
C1954 C1955 1.358 . S
C1954 C1956 1.356 . S
C1954 H2008 0.930 . S
C1955 N1953 1.279 . S
C1955 C1954 1.358 . S
C1955 H1959 0.930 . S
C1956 C1954 1.356 . S
C1956 C1957 1.348 . S
C1957 C1952 1.353 . S
C1957 C1956 1.348 . S
C1957 H2009 0.929 . S
H1958 C1952 0.930 . S
H1959 C1955 0.930 . S
C1960 N1961 1.314 . S
C1960 C1962 1.353 . S
C1960 H1966 0.930 . S
N1961 Li1937 1.990 . S
N1961 C1960 1.314 . S
N1961 C1964 1.279 . S
C1962 C1960 1.353 . S
C1962 C1965 1.348 . S
C1962 H2010 0.929 . S
C1963 C1964 1.358 . S
C1963 C1965 1.356 . S
C1963 H2011 0.930 . S
C1964 N1961 1.279 . S
C1964 C1963 1.358 . S
C1964 H1967 0.930 . S
C1965 C1962 1.348 . S
C1965 C1963 1.356 . S
H1966 C1960 0.930 . S
H1967 C1964 0.930 . S
C1968 C1970 1.348 . S
C1968 C1971 1.356 . S
C1968 O1998 1.325 . S
N1969 C1972 1.314 . S
N1969 C1973 1.279 . S
C1970 C1968 1.348 . S
C1970 C1972 1.353 . S
C1970 H2012 0.929 . S
C1971 C1968 1.356 . S
C1971 C1973 1.358 . S
C1971 H2013 0.930 . S
C1972 N1969 1.314 . S
C1972 C1970 1.353 . S
C1972 H2014 0.930 . S
C1973 N1969 1.279 . S
C1973 C1971 1.358 . S
C1973 H2015 0.930 . S
C1974 C1975 1.348 . S
C1974 C1976 1.356 . S
C1974 O1999 1.325 . S
C1975 C1974 1.348 . S
C1975 C1977 1.353 . S
C1975 H2016 0.929 . S
C1976 C1974 1.356 . S
C1976 C1978 1.358 . S
C1976 H2017 0.930 . S
C1977 C1975 1.353 . S
C1977 N1979 1.314 . S
C1977 H2018 0.930 . S
C1978 C1976 1.358 . S
C1978 N1979 1.279 . S
C1978 H2019 0.930 . S
N1979 C1977 1.314 . S
N1979 C1978 1.279 . S
C1980 C1982 1.353 . S
C1980 N1983 1.314 . S
C1980 H1986 0.930 . S
C1981 N1983 1.279 . S
C1981 C1984 1.358 . S
C1981 H1987 0.930 . S
C1982 C1980 1.353 . S
C1982 C1985 1.348 . S
C1982 H2020 0.929 . S
N1983 Li1938 1.990 . S
N1983 C1980 1.314 . S
N1983 C1981 1.279 . S
C1984 C1981 1.358 . S
C1984 C1985 1.356 . S
C1984 H2021 0.930 . S
C1985 C1982 1.348 . S
C1985 C1984 1.356 . S
H1986 C1980 0.930 . S
H1987 C1981 0.930 . S
C1988 N1989 1.314 . S
C1988 C1990 1.353 . S
C1988 H1994 0.930 . S
N1989 Li1939 1.990 . S
N1989 C1988 1.314 . S
N1989 C1992 1.279 . S
C1990 C1988 1.353 . S
C1990 C1993 1.348 . S
C1990 H2022 0.929 . S
C1991 C1992 1.358 . S
C1991 C1993 1.356 . S
C1991 H2023 0.930 . S
C1992 N1989 1.279 . S
C1992 C1991 1.358 . S
C1992 H1995 0.930 . S
C1993 C1990 1.348 . S
C1993 C1991 1.356 . S
H1994 C1988 0.930 . S
H1995 C1992 0.930 . S
O1996 Li1936 1.956 . S
O1996 Li1937 1.970 . S
O1996 Li1938 1.961 . S
O1996 C1940 1.325 . S
O1997 Li1936 1.970 . S
O1997 Li1937 1.956 . S
O1997 Li1939 1.961 . S
O1997 C1946 1.325 . S
O1998 Li1936 1.961 . S
O1998 Li1938 1.956 . S
O1998 Li1939 1.970 . S
O1998 C1968 1.325 . S
O1999 Li1937 1.961 . S
O1999 Li1938 1.970 . S
O1999 Li1939 1.956 . S
O1999 C1974 1.325 . S
H2000 C1942 0.929 . S
H2001 C1943 0.930 . S
H2002 C1944 0.930 . S
H2003 C1945 0.930 . S
H2004 C1947 0.930 . S
H2005 C1949 0.929 . S
H2006 C1950 0.930 . S
H2007 C1951 0.930 . S
H2008 C1954 0.930 . S
H2009 C1957 0.929 . S
H2010 C1962 0.929 . S
H2011 C1963 0.930 . S
H2012 C1970 0.929 . S
H2013 C1971 0.930 . S
H2014 C1972 0.930 . S
H2015 C1973 0.930 . S
H2016 C1975 0.929 . S
H2017 C1976 0.930 . S
H2018 C1977 0.930 . S
H2019 C1978 0.930 . S
H2020 C1982 0.929 . S
H2021 C1984 0.930 . S
H2022 C1990 0.929 . S
H2023 C1991 0.930 . S
Li2024 N2041 1.990 . S
Li2024 O2084 1.956 . S
Li2024 O2085 1.970 . S
Li2024 O2086 1.961 . S
Li2025 N2049 1.990 . S
Li2025 O2084 1.970 . S
Li2025 O2085 1.956 . S
Li2025 O2087 1.961 . S
Li2026 N2071 1.990 . S
Li2026 O2084 1.961 . S
Li2026 O2086 1.956 . S
Li2026 O2087 1.970 . S
Li2027 N2077 1.990 . S
Li2027 O2085 1.961 . S
Li2027 O2086 1.970 . S
Li2027 O2087 1.956 . S
C2028 C2030 1.348 . S
C2028 C2031 1.356 . S
C2028 O2084 1.325 . S
N2029 C2032 1.314 . S
N2029 C2033 1.279 . S
C2030 C2028 1.348 . S
C2030 C2032 1.353 . S
C2030 H2088 0.929 . S
C2031 C2028 1.356 . S
C2031 C2033 1.358 . S
C2031 H2089 0.930 . S
C2032 N2029 1.314 . S
C2032 C2030 1.353 . S
C2032 H2090 0.930 . S
C2033 N2029 1.279 . S
C2033 C2031 1.358 . S
C2033 H2091 0.930 . S
C2034 C2037 1.348 . S
C2034 C2038 1.356 . S
C2034 O2085 1.325 . S
C2035 N2036 1.279 . S
C2035 C2038 1.358 . S
C2035 H2092 0.930 . S
N2036 C2035 1.279 . S
N2036 C2039 1.314 . S
C2037 C2034 1.348 . S
C2037 C2039 1.353 . S
C2037 H2093 0.929 . S
C2038 C2034 1.356 . S
C2038 C2035 1.358 . S
C2038 H2094 0.930 . S
C2039 N2036 1.314 . S
C2039 C2037 1.353 . S
C2039 H2095 0.930 . S
C2040 N2041 1.314 . S
C2040 C2045 1.353 . S
C2040 H2046 0.930 . S
N2041 Li2024 1.990 . S
N2041 C2040 1.314 . S
N2041 C2043 1.279 . S
C2042 C2043 1.358 . S
C2042 C2044 1.356 . S
C2042 H2096 0.930 . S
C2043 N2041 1.279 . S
C2043 C2042 1.358 . S
C2043 H2047 0.930 . S
C2044 C2042 1.356 . S
C2044 C2045 1.348 . S
C2045 C2040 1.353 . S
C2045 C2044 1.348 . S
C2045 H2097 0.929 . S
H2046 C2040 0.930 . S
H2047 C2043 0.930 . S
C2048 N2049 1.314 . S
C2048 C2050 1.353 . S
C2048 H2054 0.930 . S
N2049 Li2025 1.990 . S
N2049 C2048 1.314 . S
N2049 C2052 1.279 . S
C2050 C2048 1.353 . S
C2050 C2053 1.348 . S
C2050 H2098 0.929 . S
C2051 C2052 1.358 . S
C2051 C2053 1.356 . S
C2051 H2099 0.930 . S
C2052 N2049 1.279 . S
C2052 C2051 1.358 . S
C2052 H2055 0.930 . S
C2053 C2050 1.348 . S
C2053 C2051 1.356 . S
H2054 C2048 0.930 . S
H2055 C2052 0.930 . S
C2056 C2058 1.348 . S
C2056 C2059 1.356 . S
C2056 O2086 1.325 . S
N2057 C2060 1.314 . S
N2057 C2061 1.279 . S
C2058 C2056 1.348 . S
C2058 C2060 1.353 . S
C2058 H2100 0.929 . S
C2059 C2056 1.356 . S
C2059 C2061 1.358 . S
C2059 H2101 0.930 . S
C2060 N2057 1.314 . S
C2060 C2058 1.353 . S
C2060 H2102 0.930 . S
C2061 N2057 1.279 . S
C2061 C2059 1.358 . S
C2061 H2103 0.930 . S
C2062 C2063 1.348 . S
C2062 C2064 1.356 . S
C2062 O2087 1.325 . S
C2063 C2062 1.348 . S
C2063 C2065 1.353 . S
C2063 H2104 0.929 . S
C2064 C2062 1.356 . S
C2064 C2066 1.358 . S
C2064 H2105 0.930 . S
C2065 C2063 1.353 . S
C2065 N2067 1.314 . S
C2065 H2106 0.930 . S
C2066 C2064 1.358 . S
C2066 N2067 1.279 . S
C2066 H2107 0.930 . S
N2067 C2065 1.314 . S
N2067 C2066 1.279 . S
C2068 C2070 1.353 . S
C2068 N2071 1.314 . S
C2068 H2074 0.930 . S
C2069 N2071 1.279 . S
C2069 C2072 1.358 . S
C2069 H2075 0.930 . S
C2070 C2068 1.353 . S
C2070 C2073 1.348 . S
C2070 H2108 0.929 . S
N2071 Li2026 1.990 . S
N2071 C2068 1.314 . S
N2071 C2069 1.279 . S
C2072 C2069 1.358 . S
C2072 C2073 1.356 . S
C2072 H2109 0.930 . S
C2073 C2070 1.348 . S
C2073 C2072 1.356 . S
H2074 C2068 0.930 . S
H2075 C2069 0.930 . S
C2076 N2077 1.314 . S
C2076 C2078 1.353 . S
C2076 H2082 0.930 . S
N2077 Li2027 1.990 . S
N2077 C2076 1.314 . S
N2077 C2080 1.279 . S
C2078 C2076 1.353 . S
C2078 C2081 1.348 . S
C2078 H2110 0.929 . S
C2079 C2080 1.358 . S
C2079 C2081 1.356 . S
C2079 H2111 0.930 . S
C2080 N2077 1.279 . S
C2080 C2079 1.358 . S
C2080 H2083 0.930 . S
C2081 C2078 1.348 . S
C2081 C2079 1.356 . S
H2082 C2076 0.930 . S
H2083 C2080 0.930 . S
O2084 Li2024 1.956 . S
O2084 Li2025 1.970 . S
O2084 Li2026 1.961 . S
O2084 C2028 1.325 . S
O2085 Li2024 1.970 . S
O2085 Li2025 1.956 . S
O2085 Li2027 1.961 . S
O2085 C2034 1.325 . S
O2086 Li2024 1.961 . S
O2086 Li2026 1.956 . S
O2086 Li2027 1.970 . S
O2086 C2056 1.325 . S
O2087 Li2025 1.961 . S
O2087 Li2026 1.970 . S
O2087 Li2027 1.956 . S
O2087 C2062 1.325 . S
H2088 C2030 0.929 . S
H2089 C2031 0.930 . S
H2090 C2032 0.930 . S
H2091 C2033 0.930 . S
H2092 C2035 0.930 . S
H2093 C2037 0.929 . S
H2094 C2038 0.930 . S
H2095 C2039 0.930 . S
H2096 C2042 0.930 . S
H2097 C2045 0.929 . S
H2098 C2050 0.929 . S
H2099 C2051 0.930 . S
H2100 C2058 0.929 . S
H2101 C2059 0.930 . S
H2102 C2060 0.930 . S
H2103 C2061 0.930 . S
H2104 C2063 0.929 . S
H2105 C2064 0.930 . S
H2106 C2065 0.930 . S
H2107 C2066 0.930 . S
H2108 C2070 0.929 . S
H2109 C2072 0.930 . S
H2110 C2078 0.929 . S
H2111 C2079 0.930 . S
Li2112 N2129 1.990 . S
Li2112 O2172 1.956 . S
Li2112 O2173 1.970 . S
Li2112 O2174 1.961 . S
Li2113 N2137 1.990 . S
Li2113 O2172 1.970 . S
Li2113 O2173 1.956 . S
Li2113 O2175 1.961 . S
Li2114 N2159 1.990 . S
Li2114 O2172 1.961 . S
Li2114 O2174 1.956 . S
Li2114 O2175 1.970 . S
Li2115 N2165 1.990 . S
Li2115 O2173 1.961 . S
Li2115 O2174 1.970 . S
Li2115 O2175 1.956 . S
C2116 C2118 1.348 . S
C2116 C2119 1.356 . S
C2116 O2172 1.325 . S
N2117 C2120 1.314 . S
N2117 C2121 1.279 . S
C2118 C2116 1.348 . S
C2118 C2120 1.353 . S
C2118 H2176 0.929 . S
C2119 C2116 1.356 . S
C2119 C2121 1.358 . S
C2119 H2177 0.930 . S
C2120 N2117 1.314 . S
C2120 C2118 1.353 . S
C2120 H2178 0.930 . S
C2121 N2117 1.279 . S
C2121 C2119 1.358 . S
C2121 H2179 0.930 . S
C2122 C2125 1.348 . S
C2122 C2126 1.356 . S
C2122 O2173 1.325 . S
C2123 N2124 1.279 . S
C2123 C2126 1.358 . S
C2123 H2180 0.930 . S
N2124 C2123 1.279 . S
N2124 C2127 1.314 . S
C2125 C2122 1.348 . S
C2125 C2127 1.353 . S
C2125 H2181 0.929 . S
C2126 C2122 1.356 . S
C2126 C2123 1.358 . S
C2126 H2182 0.930 . S
C2127 N2124 1.314 . S
C2127 C2125 1.353 . S
C2127 H2183 0.930 . S
C2128 N2129 1.314 . S
C2128 C2133 1.353 . S
C2128 H2134 0.930 . S
N2129 Li2112 1.990 . S
N2129 C2128 1.314 . S
N2129 C2131 1.279 . S
C2130 C2131 1.358 . S
C2130 C2132 1.356 . S
C2130 H2184 0.930 . S
C2131 N2129 1.279 . S
C2131 C2130 1.358 . S
C2131 H2135 0.930 . S
C2132 C2130 1.356 . S
C2132 C2133 1.348 . S
C2133 C2128 1.353 . S
C2133 C2132 1.348 . S
C2133 H2185 0.929 . S
H2134 C2128 0.930 . S
H2135 C2131 0.930 . S
C2136 N2137 1.314 . S
C2136 C2138 1.353 . S
C2136 H2142 0.930 . S
N2137 Li2113 1.990 . S
N2137 C2136 1.314 . S
N2137 C2140 1.279 . S
C2138 C2136 1.353 . S
C2138 C2141 1.348 . S
C2138 H2186 0.929 . S
C2139 C2140 1.358 . S
C2139 C2141 1.356 . S
C2139 H2187 0.930 . S
C2140 N2137 1.279 . S
C2140 C2139 1.358 . S
C2140 H2143 0.930 . S
C2141 C2138 1.348 . S
C2141 C2139 1.356 . S
H2142 C2136 0.930 . S
H2143 C2140 0.930 . S
C2144 C2146 1.348 . S
C2144 C2147 1.356 . S
C2144 O2174 1.325 . S
N2145 C2148 1.314 . S
N2145 C2149 1.279 . S
C2146 C2144 1.348 . S
C2146 C2148 1.353 . S
C2146 H2188 0.929 . S
C2147 C2144 1.356 . S
C2147 C2149 1.358 . S
C2147 H2189 0.930 . S
C2148 N2145 1.314 . S
C2148 C2146 1.353 . S
C2148 H2190 0.930 . S
C2149 N2145 1.279 . S
C2149 C2147 1.358 . S
C2149 H2191 0.930 . S
C2150 C2151 1.348 . S
C2150 C2152 1.356 . S
C2150 O2175 1.325 . S
C2151 C2150 1.348 . S
C2151 C2153 1.353 . S
C2151 H2192 0.929 . S
C2152 C2150 1.356 . S
C2152 C2154 1.358 . S
C2152 H2193 0.930 . S
C2153 C2151 1.353 . S
C2153 N2155 1.314 . S
C2153 H2194 0.930 . S
C2154 C2152 1.358 . S
C2154 N2155 1.279 . S
C2154 H2195 0.930 . S
N2155 C2153 1.314 . S
N2155 C2154 1.279 . S
C2156 C2158 1.353 . S
C2156 N2159 1.314 . S
C2156 H2162 0.930 . S
C2157 N2159 1.279 . S
C2157 C2160 1.358 . S
C2157 H2163 0.930 . S
C2158 C2156 1.353 . S
C2158 C2161 1.348 . S
C2158 H2196 0.929 . S
N2159 Li2114 1.990 . S
N2159 C2156 1.314 . S
N2159 C2157 1.279 . S
C2160 C2157 1.358 . S
C2160 C2161 1.356 . S
C2160 H2197 0.930 . S
C2161 C2158 1.348 . S
C2161 C2160 1.356 . S
H2162 C2156 0.930 . S
H2163 C2157 0.930 . S
C2164 N2165 1.314 . S
C2164 C2166 1.353 . S
C2164 H2170 0.930 . S
N2165 Li2115 1.990 . S
N2165 C2164 1.314 . S
N2165 C2168 1.279 . S
C2166 C2164 1.353 . S
C2166 C2169 1.348 . S
C2166 H2198 0.929 . S
C2167 C2168 1.358 . S
C2167 C2169 1.356 . S
C2167 H2199 0.930 . S
C2168 N2165 1.279 . S
C2168 C2167 1.358 . S
C2168 H2171 0.930 . S
C2169 C2166 1.348 . S
C2169 C2167 1.356 . S
H2170 C2164 0.930 . S
H2171 C2168 0.930 . S
O2172 Li2112 1.956 . S
O2172 Li2113 1.970 . S
O2172 Li2114 1.961 . S
O2172 C2116 1.325 . S
O2173 Li2112 1.970 . S
O2173 Li2113 1.956 . S
O2173 Li2115 1.961 . S
O2173 C2122 1.325 . S
O2174 Li2112 1.961 . S
O2174 Li2114 1.956 . S
O2174 Li2115 1.970 . S
O2174 C2144 1.325 . S
O2175 Li2113 1.961 . S
O2175 Li2114 1.970 . S
O2175 Li2115 1.956 . S
O2175 C2150 1.325 . S
H2176 C2118 0.929 . S
H2177 C2119 0.930 . S
H2178 C2120 0.930 . S
H2179 C2121 0.930 . S
H2180 C2123 0.930 . S
H2181 C2125 0.929 . S
H2182 C2126 0.930 . S
H2183 C2127 0.930 . S
H2184 C2130 0.930 . S
H2185 C2133 0.929 . S
H2186 C2138 0.929 . S
H2187 C2139 0.930 . S
H2188 C2146 0.929 . S
H2189 C2147 0.930 . S
H2190 C2148 0.930 . S
H2191 C2149 0.930 . S
H2192 C2151 0.929 . S
H2193 C2152 0.930 . S
H2194 C2153 0.930 . S
H2195 C2154 0.930 . S
H2196 C2158 0.929 . S
H2197 C2160 0.930 . S
H2198 C2166 0.929 . S
H2199 C2167 0.930 . S
Li2200 N2217 1.990 . S
Li2200 O2260 1.956 . S
Li2200 O2261 1.970 . S
Li2200 O2262 1.961 . S
Li2201 N2225 1.990 . S
Li2201 O2260 1.970 . S
Li2201 O2261 1.956 . S
Li2201 O2263 1.961 . S
Li2202 N2247 1.990 . S
Li2202 O2260 1.961 . S
Li2202 O2262 1.956 . S
Li2202 O2263 1.970 . S
Li2203 N2253 1.990 . S
Li2203 O2261 1.961 . S
Li2203 O2262 1.970 . S
Li2203 O2263 1.956 . S
C2204 C2206 1.348 . S
C2204 C2207 1.356 . S
C2204 O2260 1.325 . S
N2205 C2208 1.314 . S
N2205 C2209 1.279 . S
C2206 C2204 1.348 . S
C2206 C2208 1.353 . S
C2206 H2264 0.929 . S
C2207 C2204 1.356 . S
C2207 C2209 1.358 . S
C2207 H2265 0.930 . S
C2208 N2205 1.314 . S
C2208 C2206 1.353 . S
C2208 H2266 0.930 . S
C2209 N2205 1.279 . S
C2209 C2207 1.358 . S
C2209 H2267 0.930 . S
C2210 C2213 1.348 . S
C2210 C2214 1.356 . S
C2210 O2261 1.325 . S
C2211 N2212 1.279 . S
C2211 C2214 1.358 . S
C2211 H2268 0.930 . S
N2212 C2211 1.279 . S
N2212 C2215 1.314 . S
C2213 C2210 1.348 . S
C2213 C2215 1.353 . S
C2213 H2269 0.929 . S
C2214 C2210 1.356 . S
C2214 C2211 1.358 . S
C2214 H2270 0.930 . S
C2215 N2212 1.314 . S
C2215 C2213 1.353 . S
C2215 H2271 0.930 . S
C2216 N2217 1.314 . S
C2216 C2221 1.353 . S
C2216 H2222 0.930 . S
N2217 Li2200 1.990 . S
N2217 C2216 1.314 . S
N2217 C2219 1.279 . S
C2218 C2219 1.358 . S
C2218 C2220 1.356 . S
C2218 H2272 0.930 . S
C2219 N2217 1.279 . S
C2219 C2218 1.358 . S
C2219 H2223 0.930 . S
C2220 C2218 1.356 . S
C2220 C2221 1.348 . S
C2221 C2216 1.353 . S
C2221 C2220 1.348 . S
C2221 H2273 0.929 . S
H2222 C2216 0.930 . S
H2223 C2219 0.930 . S
C2224 N2225 1.314 . S
C2224 C2226 1.353 . S
C2224 H2230 0.930 . S
N2225 Li2201 1.990 . S
N2225 C2224 1.314 . S
N2225 C2228 1.279 . S
C2226 C2224 1.353 . S
C2226 C2229 1.348 . S
C2226 H2274 0.929 . S
C2227 C2228 1.358 . S
C2227 C2229 1.356 . S
C2227 H2275 0.930 . S
C2228 N2225 1.279 . S
C2228 C2227 1.358 . S
C2228 H2231 0.930 . S
C2229 C2226 1.348 . S
C2229 C2227 1.356 . S
H2230 C2224 0.930 . S
H2231 C2228 0.930 . S
C2232 C2234 1.348 . S
C2232 C2235 1.356 . S
C2232 O2262 1.325 . S
N2233 C2236 1.314 . S
N2233 C2237 1.279 . S
C2234 C2232 1.348 . S
C2234 C2236 1.353 . S
C2234 H2276 0.929 . S
C2235 C2232 1.356 . S
C2235 C2237 1.358 . S
C2235 H2277 0.930 . S
C2236 N2233 1.314 . S
C2236 C2234 1.353 . S
C2236 H2278 0.930 . S
C2237 N2233 1.279 . S
C2237 C2235 1.358 . S
C2237 H2279 0.930 . S
C2238 C2239 1.348 . S
C2238 C2240 1.356 . S
C2238 O2263 1.325 . S
C2239 C2238 1.348 . S
C2239 C2241 1.353 . S
C2239 H2280 0.929 . S
C2240 C2238 1.356 . S
C2240 C2242 1.358 . S
C2240 H2281 0.930 . S
C2241 C2239 1.353 . S
C2241 N2243 1.314 . S
C2241 H2282 0.930 . S
C2242 C2240 1.358 . S
C2242 N2243 1.279 . S
C2242 H2283 0.930 . S
N2243 C2241 1.314 . S
N2243 C2242 1.279 . S
C2244 C2246 1.353 . S
C2244 N2247 1.314 . S
C2244 H2250 0.930 . S
C2245 N2247 1.279 . S
C2245 C2248 1.358 . S
C2245 H2251 0.930 . S
C2246 C2244 1.353 . S
C2246 C2249 1.348 . S
C2246 H2284 0.929 . S
N2247 Li2202 1.990 . S
N2247 C2244 1.314 . S
N2247 C2245 1.279 . S
C2248 C2245 1.358 . S
C2248 C2249 1.356 . S
C2248 H2285 0.930 . S
C2249 C2246 1.348 . S
C2249 C2248 1.356 . S
H2250 C2244 0.930 . S
H2251 C2245 0.930 . S
C2252 N2253 1.314 . S
C2252 C2254 1.353 . S
C2252 H2258 0.930 . S
N2253 Li2203 1.990 . S
N2253 C2252 1.314 . S
N2253 C2256 1.279 . S
C2254 C2252 1.353 . S
C2254 C2257 1.348 . S
C2254 H2286 0.929 . S
C2255 C2256 1.358 . S
C2255 C2257 1.356 . S
C2255 H2287 0.930 . S
C2256 N2253 1.279 . S
C2256 C2255 1.358 . S
C2256 H2259 0.930 . S
C2257 C2254 1.348 . S
C2257 C2255 1.356 . S
H2258 C2252 0.930 . S
H2259 C2256 0.930 . S
O2260 Li2200 1.956 . S
O2260 Li2201 1.970 . S
O2260 Li2202 1.961 . S
O2260 C2204 1.325 . S
O2261 Li2200 1.970 . S
O2261 Li2201 1.956 . S
O2261 Li2203 1.961 . S
O2261 C2210 1.325 . S
O2262 Li2200 1.961 . S
O2262 Li2202 1.956 . S
O2262 Li2203 1.970 . S
O2262 C2232 1.325 . S
O2263 Li2201 1.961 . S
O2263 Li2202 1.970 . S
O2263 Li2203 1.956 . S
O2263 C2238 1.325 . S
H2264 C2206 0.929 . S
H2265 C2207 0.930 . S
H2266 C2208 0.930 . S
H2267 C2209 0.930 . S
H2268 C2211 0.930 . S
H2269 C2213 0.929 . S
H2270 C2214 0.930 . S
H2271 C2215 0.930 . S
H2272 C2218 0.930 . S
H2273 C2221 0.929 . S
H2274 C2226 0.929 . S
H2275 C2227 0.930 . S
H2276 C2234 0.929 . S
H2277 C2235 0.930 . S
H2278 C2236 0.930 . S
H2279 C2237 0.930 . S
H2280 C2239 0.929 . S
H2281 C2240 0.930 . S
H2282 C2241 0.930 . S
H2283 C2242 0.930 . S
H2284 C2246 0.929 . S
H2285 C2248 0.930 . S
H2286 C2254 0.929 . S
H2287 C2255 0.930 . S
Li2288 N2305 1.990 . S
Li2288 O2348 1.956 . S
Li2288 O2349 1.970 . S
Li2288 O2350 1.961 . S
Li2289 N2313 1.990 . S
Li2289 O2348 1.970 . S
Li2289 O2349 1.956 . S
Li2289 O2351 1.961 . S
Li2290 N2335 1.990 . S
Li2290 O2348 1.961 . S
Li2290 O2350 1.956 . S
Li2290 O2351 1.970 . S
Li2291 N2341 1.990 . S
Li2291 O2349 1.961 . S
Li2291 O2350 1.970 . S
Li2291 O2351 1.956 . S
C2292 C2294 1.348 . S
C2292 C2295 1.356 . S
C2292 O2348 1.325 . S
N2293 C2296 1.314 . S
N2293 C2297 1.279 . S
C2294 C2292 1.348 . S
C2294 C2296 1.353 . S
C2294 H2352 0.929 . S
C2295 C2292 1.356 . S
C2295 C2297 1.358 . S
C2295 H2353 0.930 . S
C2296 N2293 1.314 . S
C2296 C2294 1.353 . S
C2296 H2354 0.930 . S
C2297 N2293 1.279 . S
C2297 C2295 1.358 . S
C2297 H2355 0.930 . S
C2298 C2301 1.348 . S
C2298 C2302 1.356 . S
C2298 O2349 1.325 . S
C2299 N2300 1.279 . S
C2299 C2302 1.358 . S
C2299 H2356 0.930 . S
N2300 C2299 1.279 . S
N2300 C2303 1.314 . S
C2301 C2298 1.348 . S
C2301 C2303 1.353 . S
C2301 H2357 0.929 . S
C2302 C2298 1.356 . S
C2302 C2299 1.358 . S
C2302 H2358 0.930 . S
C2303 N2300 1.314 . S
C2303 C2301 1.353 . S
C2303 H2359 0.930 . S
C2304 N2305 1.314 . S
C2304 C2309 1.353 . S
C2304 H2310 0.930 . S
N2305 Li2288 1.990 . S
N2305 C2304 1.314 . S
N2305 C2307 1.279 . S
C2306 C2307 1.358 . S
C2306 C2308 1.356 . S
C2306 H2360 0.930 . S
C2307 N2305 1.279 . S
C2307 C2306 1.358 . S
C2307 H2311 0.930 . S
C2308 C2306 1.356 . S
C2308 C2309 1.348 . S
C2309 C2304 1.353 . S
C2309 C2308 1.348 . S
C2309 H2361 0.929 . S
H2310 C2304 0.930 . S
H2311 C2307 0.930 . S
C2312 N2313 1.314 . S
C2312 C2314 1.353 . S
C2312 H2318 0.930 . S
N2313 Li2289 1.990 . S
N2313 C2312 1.314 . S
N2313 C2316 1.279 . S
C2314 C2312 1.353 . S
C2314 C2317 1.348 . S
C2314 H2362 0.929 . S
C2315 C2316 1.358 . S
C2315 C2317 1.356 . S
C2315 H2363 0.930 . S
C2316 N2313 1.279 . S
C2316 C2315 1.358 . S
C2316 H2319 0.930 . S
C2317 C2314 1.348 . S
C2317 C2315 1.356 . S
H2318 C2312 0.930 . S
H2319 C2316 0.930 . S
C2320 C2322 1.348 . S
C2320 C2323 1.356 . S
C2320 O2350 1.325 . S
N2321 C2324 1.314 . S
N2321 C2325 1.279 . S
C2322 C2320 1.348 . S
C2322 C2324 1.353 . S
C2322 H2364 0.929 . S
C2323 C2320 1.356 . S
C2323 C2325 1.358 . S
C2323 H2365 0.930 . S
C2324 N2321 1.314 . S
C2324 C2322 1.353 . S
C2324 H2366 0.930 . S
C2325 N2321 1.279 . S
C2325 C2323 1.358 . S
C2325 H2367 0.930 . S
C2326 C2327 1.348 . S
C2326 C2328 1.356 . S
C2326 O2351 1.325 . S
C2327 C2326 1.348 . S
C2327 C2329 1.353 . S
C2327 H2368 0.929 . S
C2328 C2326 1.356 . S
C2328 C2330 1.358 . S
C2328 H2369 0.930 . S
C2329 C2327 1.353 . S
C2329 N2331 1.314 . S
C2329 H2370 0.930 . S
C2330 C2328 1.358 . S
C2330 N2331 1.279 . S
C2330 H2371 0.930 . S
N2331 C2329 1.314 . S
N2331 C2330 1.279 . S
C2332 C2334 1.353 . S
C2332 N2335 1.314 . S
C2332 H2338 0.930 . S
C2333 N2335 1.279 . S
C2333 C2336 1.358 . S
C2333 H2339 0.930 . S
C2334 C2332 1.353 . S
C2334 C2337 1.348 . S
C2334 H2372 0.929 . S
N2335 Li2290 1.990 . S
N2335 C2332 1.314 . S
N2335 C2333 1.279 . S
C2336 C2333 1.358 . S
C2336 C2337 1.356 . S
C2336 H2373 0.930 . S
C2337 C2334 1.348 . S
C2337 C2336 1.356 . S
H2338 C2332 0.930 . S
H2339 C2333 0.930 . S
C2340 N2341 1.314 . S
C2340 C2342 1.353 . S
C2340 H2346 0.930 . S
N2341 Li2291 1.990 . S
N2341 C2340 1.314 . S
N2341 C2344 1.279 . S
C2342 C2340 1.353 . S
C2342 C2345 1.348 . S
C2342 H2374 0.929 . S
C2343 C2344 1.358 . S
C2343 C2345 1.356 . S
C2343 H2375 0.930 . S
C2344 N2341 1.279 . S
C2344 C2343 1.358 . S
C2344 H2347 0.930 . S
C2345 C2342 1.348 . S
C2345 C2343 1.356 . S
H2346 C2340 0.930 . S
H2347 C2344 0.930 . S
O2348 Li2288 1.956 . S
O2348 Li2289 1.970 . S
O2348 Li2290 1.961 . S
O2348 C2292 1.325 . S
O2349 Li2288 1.970 . S
O2349 Li2289 1.956 . S
O2349 Li2291 1.961 . S
O2349 C2298 1.325 . S
O2350 Li2288 1.961 . S
O2350 Li2290 1.956 . S
O2350 Li2291 1.970 . S
O2350 C2320 1.325 . S
O2351 Li2289 1.961 . S
O2351 Li2290 1.970 . S
O2351 Li2291 1.956 . S
O2351 C2326 1.325 . S
H2352 C2294 0.929 . S
H2353 C2295 0.930 . S
H2354 C2296 0.930 . S
H2355 C2297 0.930 . S
H2356 C2299 0.930 . S
H2357 C2301 0.929 . S
H2358 C2302 0.930 . S
H2359 C2303 0.930 . S
H2360 C2306 0.930 . S
H2361 C2309 0.929 . S
H2362 C2314 0.929 . S
H2363 C2315 0.930 . S
H2364 C2322 0.929 . S
H2365 C2323 0.930 . S
H2366 C2324 0.930 . S
H2367 C2325 0.930 . S
H2368 C2327 0.929 . S
H2369 C2328 0.930 . S
H2370 C2329 0.930 . S
H2371 C2330 0.930 . S
H2372 C2334 0.929 . S
H2373 C2336 0.930 . S
H2374 C2342 0.929 . S
H2375 C2343 0.930 . S
Li2376 N2393 1.990 . S
Li2376 O2436 1.956 . S
Li2376 O2437 1.970 . S
Li2376 O2438 1.961 . S
Li2377 N2401 1.990 . S
Li2377 O2436 1.970 . S
Li2377 O2437 1.956 . S
Li2377 O2439 1.961 . S
Li2378 N2423 1.990 . S
Li2378 O2436 1.961 . S
Li2378 O2438 1.956 . S
Li2378 O2439 1.970 . S
Li2379 N2429 1.990 . S
Li2379 O2437 1.961 . S
Li2379 O2438 1.970 . S
Li2379 O2439 1.956 . S
C2380 C2382 1.348 . S
C2380 C2383 1.356 . S
C2380 O2436 1.325 . S
N2381 C2384 1.314 . S
N2381 C2385 1.279 . S
C2382 C2380 1.348 . S
C2382 C2384 1.353 . S
C2382 H2440 0.929 . S
C2383 C2380 1.356 . S
C2383 C2385 1.358 . S
C2383 H2441 0.930 . S
C2384 N2381 1.314 . S
C2384 C2382 1.353 . S
C2384 H2442 0.930 . S
C2385 N2381 1.279 . S
C2385 C2383 1.358 . S
C2385 H2443 0.930 . S
C2386 C2389 1.348 . S
C2386 C2390 1.356 . S
C2386 O2437 1.325 . S
C2387 N2388 1.279 . S
C2387 C2390 1.358 . S
C2387 H2444 0.930 . S
N2388 C2387 1.279 . S
N2388 C2391 1.314 . S
C2389 C2386 1.348 . S
C2389 C2391 1.353 . S
C2389 H2445 0.929 . S
C2390 C2386 1.356 . S
C2390 C2387 1.358 . S
C2390 H2446 0.930 . S
C2391 N2388 1.314 . S
C2391 C2389 1.353 . S
C2391 H2447 0.930 . S
C2392 N2393 1.314 . S
C2392 C2397 1.353 . S
C2392 H2398 0.930 . S
N2393 Li2376 1.990 . S
N2393 C2392 1.314 . S
N2393 C2395 1.279 . S
C2394 C2395 1.358 . S
C2394 C2396 1.356 . S
C2394 H2448 0.930 . S
C2395 N2393 1.279 . S
C2395 C2394 1.358 . S
C2395 H2399 0.930 . S
C2396 C2394 1.356 . S
C2396 C2397 1.348 . S
C2397 C2392 1.353 . S
C2397 C2396 1.348 . S
C2397 H2449 0.929 . S
H2398 C2392 0.930 . S
H2399 C2395 0.930 . S
C2400 N2401 1.314 . S
C2400 C2402 1.353 . S
C2400 H2406 0.930 . S
N2401 Li2377 1.990 . S
N2401 C2400 1.314 . S
N2401 C2404 1.279 . S
C2402 C2400 1.353 . S
C2402 C2405 1.348 . S
C2402 H2450 0.929 . S
C2403 C2404 1.358 . S
C2403 C2405 1.356 . S
C2403 H2451 0.930 . S
C2404 N2401 1.279 . S
C2404 C2403 1.358 . S
C2404 H2407 0.930 . S
C2405 C2402 1.348 . S
C2405 C2403 1.356 . S
H2406 C2400 0.930 . S
H2407 C2404 0.930 . S
C2408 C2410 1.348 . S
C2408 C2411 1.356 . S
C2408 O2438 1.325 . S
N2409 C2412 1.314 . S
N2409 C2413 1.279 . S
C2410 C2408 1.348 . S
C2410 C2412 1.353 . S
C2410 H2452 0.929 . S
C2411 C2408 1.356 . S
C2411 C2413 1.358 . S
C2411 H2453 0.930 . S
C2412 N2409 1.314 . S
C2412 C2410 1.353 . S
C2412 H2454 0.930 . S
C2413 N2409 1.279 . S
C2413 C2411 1.358 . S
C2413 H2455 0.930 . S
C2414 C2415 1.348 . S
C2414 C2416 1.356 . S
C2414 O2439 1.325 . S
C2415 C2414 1.348 . S
C2415 C2417 1.353 . S
C2415 H2456 0.929 . S
C2416 C2414 1.356 . S
C2416 C2418 1.358 . S
C2416 H2457 0.930 . S
C2417 C2415 1.353 . S
C2417 N2419 1.314 . S
C2417 H2458 0.930 . S
C2418 C2416 1.358 . S
C2418 N2419 1.279 . S
C2418 H2459 0.930 . S
N2419 C2417 1.314 . S
N2419 C2418 1.279 . S
C2420 C2422 1.353 . S
C2420 N2423 1.314 . S
C2420 H2426 0.930 . S
C2421 N2423 1.279 . S
C2421 C2424 1.358 . S
C2421 H2427 0.930 . S
C2422 C2420 1.353 . S
C2422 C2425 1.348 . S
C2422 H2460 0.929 . S
N2423 Li2378 1.990 . S
N2423 C2420 1.314 . S
N2423 C2421 1.279 . S
C2424 C2421 1.358 . S
C2424 C2425 1.356 . S
C2424 H2461 0.930 . S
C2425 C2422 1.348 . S
C2425 C2424 1.356 . S
H2426 C2420 0.930 . S
H2427 C2421 0.930 . S
C2428 N2429 1.314 . S
C2428 C2430 1.353 . S
C2428 H2434 0.930 . S
N2429 Li2379 1.990 . S
N2429 C2428 1.314 . S
N2429 C2432 1.279 . S
C2430 C2428 1.353 . S
C2430 C2433 1.348 . S
C2430 H2462 0.929 . S
C2431 C2432 1.358 . S
C2431 C2433 1.356 . S
C2431 H2463 0.930 . S
C2432 N2429 1.279 . S
C2432 C2431 1.358 . S
C2432 H2435 0.930 . S
C2433 C2430 1.348 . S
C2433 C2431 1.356 . S
H2434 C2428 0.930 . S
H2435 C2432 0.930 . S
O2436 Li2376 1.956 . S
O2436 Li2377 1.970 . S
O2436 Li2378 1.961 . S
O2436 C2380 1.325 . S
O2437 Li2376 1.970 . S
O2437 Li2377 1.956 . S
O2437 Li2379 1.961 . S
O2437 C2386 1.325 . S
O2438 Li2376 1.961 . S
O2438 Li2378 1.956 . S
O2438 Li2379 1.970 . S
O2438 C2408 1.325 . S
O2439 Li2377 1.961 . S
O2439 Li2378 1.970 . S
O2439 Li2379 1.956 . S
O2439 C2414 1.325 . S
H2440 C2382 0.929 . S
H2441 C2383 0.930 . S
H2442 C2384 0.930 . S
H2443 C2385 0.930 . S
H2444 C2387 0.930 . S
H2445 C2389 0.929 . S
H2446 C2390 0.930 . S
H2447 C2391 0.930 . S
H2448 C2394 0.930 . S
H2449 C2397 0.929 . S
H2450 C2402 0.929 . S
H2451 C2403 0.930 . S
H2452 C2410 0.929 . S
H2453 C2411 0.930 . S
H2454 C2412 0.930 . S
H2455 C2413 0.930 . S
H2456 C2415 0.929 . S
H2457 C2416 0.930 . S
H2458 C2417 0.930 . S
H2459 C2418 0.930 . S
H2460 C2422 0.929 . S
H2461 C2424 0.930 . S
H2462 C2430 0.929 . S
H2463 C2431 0.930 . S
Li2464 N2481 1.990 . S
Li2464 O2524 1.956 . S
Li2464 O2525 1.970 . S
Li2464 O2526 1.961 . S
Li2465 N2489 1.990 . S
Li2465 O2524 1.970 . S
Li2465 O2525 1.956 . S
Li2465 O2527 1.961 . S
Li2466 N2511 1.990 . S
Li2466 O2524 1.961 . S
Li2466 O2526 1.956 . S
Li2466 O2527 1.970 . S
Li2467 N2517 1.990 . S
Li2467 O2525 1.961 . S
Li2467 O2526 1.970 . S
Li2467 O2527 1.956 . S
C2468 C2470 1.348 . S
C2468 C2471 1.356 . S
C2468 O2524 1.325 . S
N2469 C2472 1.314 . S
N2469 C2473 1.279 . S
C2470 C2468 1.348 . S
C2470 C2472 1.353 . S
C2470 H2528 0.929 . S
C2471 C2468 1.356 . S
C2471 C2473 1.358 . S
C2471 H2529 0.930 . S
C2472 N2469 1.314 . S
C2472 C2470 1.353 . S
C2472 H2530 0.930 . S
C2473 N2469 1.279 . S
C2473 C2471 1.358 . S
C2473 H2531 0.930 . S
C2474 C2477 1.348 . S
C2474 C2478 1.356 . S
C2474 O2525 1.325 . S
C2475 N2476 1.279 . S
C2475 C2478 1.358 . S
C2475 H2532 0.930 . S
N2476 C2475 1.279 . S
N2476 C2479 1.314 . S
C2477 C2474 1.348 . S
C2477 C2479 1.353 . S
C2477 H2533 0.929 . S
C2478 C2474 1.356 . S
C2478 C2475 1.358 . S
C2478 H2534 0.930 . S
C2479 N2476 1.314 . S
C2479 C2477 1.353 . S
C2479 H2535 0.930 . S
C2480 N2481 1.314 . S
C2480 C2485 1.353 . S
C2480 H2486 0.930 . S
N2481 Li2464 1.990 . S
N2481 C2480 1.314 . S
N2481 C2483 1.279 . S
C2482 C2483 1.358 . S
C2482 C2484 1.356 . S
C2482 H2536 0.930 . S
C2483 N2481 1.279 . S
C2483 C2482 1.358 . S
C2483 H2487 0.930 . S
C2484 C2482 1.356 . S
C2484 C2485 1.348 . S
C2485 C2480 1.353 . S
C2485 C2484 1.348 . S
C2485 H2537 0.929 . S
H2486 C2480 0.930 . S
H2487 C2483 0.930 . S
C2488 N2489 1.314 . S
C2488 C2490 1.353 . S
C2488 H2494 0.930 . S
N2489 Li2465 1.990 . S
N2489 C2488 1.314 . S
N2489 C2492 1.279 . S
C2490 C2488 1.353 . S
C2490 C2493 1.348 . S
C2490 H2538 0.929 . S
C2491 C2492 1.358 . S
C2491 C2493 1.356 . S
C2491 H2539 0.930 . S
C2492 N2489 1.279 . S
C2492 C2491 1.358 . S
C2492 H2495 0.930 . S
C2493 C2490 1.348 . S
C2493 C2491 1.356 . S
H2494 C2488 0.930 . S
H2495 C2492 0.930 . S
C2496 C2498 1.348 . S
C2496 C2499 1.356 . S
C2496 O2526 1.325 . S
N2497 C2500 1.314 . S
N2497 C2501 1.279 . S
C2498 C2496 1.348 . S
C2498 C2500 1.353 . S
C2498 H2540 0.929 . S
C2499 C2496 1.356 . S
C2499 C2501 1.358 . S
C2499 H2541 0.930 . S
C2500 N2497 1.314 . S
C2500 C2498 1.353 . S
C2500 H2542 0.930 . S
C2501 N2497 1.279 . S
C2501 C2499 1.358 . S
C2501 H2543 0.930 . S
C2502 C2503 1.348 . S
C2502 C2504 1.356 . S
C2502 O2527 1.325 . S
C2503 C2502 1.348 . S
C2503 C2505 1.353 . S
C2503 H2544 0.929 . S
C2504 C2502 1.356 . S
C2504 C2506 1.358 . S
C2504 H2545 0.930 . S
C2505 C2503 1.353 . S
C2505 N2507 1.314 . S
C2505 H2546 0.930 . S
C2506 C2504 1.358 . S
C2506 N2507 1.279 . S
C2506 H2547 0.930 . S
N2507 C2505 1.314 . S
N2507 C2506 1.279 . S
C2508 C2510 1.353 . S
C2508 N2511 1.314 . S
C2508 H2514 0.930 . S
C2509 N2511 1.279 . S
C2509 C2512 1.358 . S
C2509 H2515 0.930 . S
C2510 C2508 1.353 . S
C2510 C2513 1.348 . S
C2510 H2548 0.929 . S
N2511 Li2466 1.990 . S
N2511 C2508 1.314 . S
N2511 C2509 1.279 . S
C2512 C2509 1.358 . S
C2512 C2513 1.356 . S
C2512 H2549 0.930 . S
C2513 C2510 1.348 . S
C2513 C2512 1.356 . S
H2514 C2508 0.930 . S
H2515 C2509 0.930 . S
C2516 N2517 1.314 . S
C2516 C2518 1.353 . S
C2516 H2522 0.930 . S
N2517 Li2467 1.990 . S
N2517 C2516 1.314 . S
N2517 C2520 1.279 . S
C2518 C2516 1.353 . S
C2518 C2521 1.348 . S
C2518 H2550 0.929 . S
C2519 C2520 1.358 . S
C2519 C2521 1.356 . S
C2519 H2551 0.930 . S
C2520 N2517 1.279 . S
C2520 C2519 1.358 . S
C2520 H2523 0.930 . S
C2521 C2518 1.348 . S
C2521 C2519 1.356 . S
H2522 C2516 0.930 . S
H2523 C2520 0.930 . S
O2524 Li2464 1.956 . S
O2524 Li2465 1.970 . S
O2524 Li2466 1.961 . S
O2524 C2468 1.325 . S
O2525 Li2464 1.970 . S
O2525 Li2465 1.956 . S
O2525 Li2467 1.961 . S
O2525 C2474 1.325 . S
O2526 Li2464 1.961 . S
O2526 Li2466 1.956 . S
O2526 Li2467 1.970 . S
O2526 C2496 1.325 . S
O2527 Li2465 1.961 . S
O2527 Li2466 1.970 . S
O2527 Li2467 1.956 . S
O2527 C2502 1.325 . S
H2528 C2470 0.929 . S
H2529 C2471 0.930 . S
H2530 C2472 0.930 . S
H2531 C2473 0.930 . S
H2532 C2475 0.930 . S
H2533 C2477 0.929 . S
H2534 C2478 0.930 . S
H2535 C2479 0.930 . S
H2536 C2482 0.930 . S
H2537 C2485 0.929 . S
H2538 C2490 0.929 . S
H2539 C2491 0.930 . S
H2540 C2498 0.929 . S
H2541 C2499 0.930 . S
H2542 C2500 0.930 . S
H2543 C2501 0.930 . S
H2544 C2503 0.929 . S
H2545 C2504 0.930 . S
H2546 C2505 0.930 . S
H2547 C2506 0.930 . S
H2548 C2510 0.929 . S
H2549 C2512 0.930 . S
H2550 C2518 0.929 . S
H2551 C2519 0.930 . S
Li2552 N2569 1.990 . S
Li2552 O2612 1.956 . S
Li2552 O2613 1.970 . S
Li2552 O2614 1.961 . S
Li2553 N2577 1.990 . S
Li2553 O2612 1.970 . S
Li2553 O2613 1.956 . S
Li2553 O2615 1.961 . S
Li2554 N2599 1.990 . S
Li2554 O2612 1.961 . S
Li2554 O2614 1.956 . S
Li2554 O2615 1.970 . S
Li2555 N2605 1.990 . S
Li2555 O2613 1.961 . S
Li2555 O2614 1.970 . S
Li2555 O2615 1.956 . S
C2556 C2558 1.348 . S
C2556 C2559 1.356 . S
C2556 O2612 1.325 . S
N2557 C2560 1.314 . S
N2557 C2561 1.279 . S
C2558 C2556 1.348 . S
C2558 C2560 1.353 . S
C2558 H2616 0.929 . S
C2559 C2556 1.356 . S
C2559 C2561 1.358 . S
C2559 H2617 0.930 . S
C2560 N2557 1.314 . S
C2560 C2558 1.353 . S
C2560 H2618 0.930 . S
C2561 N2557 1.279 . S
C2561 C2559 1.358 . S
C2561 H2619 0.930 . S
C2562 C2565 1.348 . S
C2562 C2566 1.356 . S
C2562 O2613 1.325 . S
C2563 N2564 1.279 . S
C2563 C2566 1.358 . S
C2563 H2620 0.930 . S
N2564 C2563 1.279 . S
N2564 C2567 1.314 . S
C2565 C2562 1.348 . S
C2565 C2567 1.353 . S
C2565 H2621 0.929 . S
C2566 C2562 1.356 . S
C2566 C2563 1.358 . S
C2566 H2622 0.930 . S
C2567 N2564 1.314 . S
C2567 C2565 1.353 . S
C2567 H2623 0.930 . S
C2568 N2569 1.314 . S
C2568 C2573 1.353 . S
C2568 H2574 0.930 . S
N2569 Li2552 1.990 . S
N2569 C2568 1.314 . S
N2569 C2571 1.279 . S
C2570 C2571 1.358 . S
C2570 C2572 1.356 . S
C2570 H2624 0.930 . S
C2571 N2569 1.279 . S
C2571 C2570 1.358 . S
C2571 H2575 0.930 . S
C2572 C2570 1.356 . S
C2572 C2573 1.348 . S
C2573 C2568 1.353 . S
C2573 C2572 1.348 . S
C2573 H2625 0.929 . S
H2574 C2568 0.930 . S
H2575 C2571 0.930 . S
C2576 N2577 1.314 . S
C2576 C2578 1.353 . S
C2576 H2582 0.930 . S
N2577 Li2553 1.990 . S
N2577 C2576 1.314 . S
N2577 C2580 1.279 . S
C2578 C2576 1.353 . S
C2578 C2581 1.348 . S
C2578 H2626 0.929 . S
C2579 C2580 1.358 . S
C2579 C2581 1.356 . S
C2579 H2627 0.930 . S
C2580 N2577 1.279 . S
C2580 C2579 1.358 . S
C2580 H2583 0.930 . S
C2581 C2578 1.348 . S
C2581 C2579 1.356 . S
H2582 C2576 0.930 . S
H2583 C2580 0.930 . S
C2584 C2586 1.348 . S
C2584 C2587 1.356 . S
C2584 O2614 1.325 . S
N2585 C2588 1.314 . S
N2585 C2589 1.279 . S
C2586 C2584 1.348 . S
C2586 C2588 1.353 . S
C2586 H2628 0.929 . S
C2587 C2584 1.356 . S
C2587 C2589 1.358 . S
C2587 H2629 0.930 . S
C2588 N2585 1.314 . S
C2588 C2586 1.353 . S
C2588 H2630 0.930 . S
C2589 N2585 1.279 . S
C2589 C2587 1.358 . S
C2589 H2631 0.930 . S
C2590 C2591 1.348 . S
C2590 C2592 1.356 . S
C2590 O2615 1.325 . S
C2591 C2590 1.348 . S
C2591 C2593 1.353 . S
C2591 H2632 0.929 . S
C2592 C2590 1.356 . S
C2592 C2594 1.358 . S
C2592 H2633 0.930 . S
C2593 C2591 1.353 . S
C2593 N2595 1.314 . S
C2593 H2634 0.930 . S
C2594 C2592 1.358 . S
C2594 N2595 1.279 . S
C2594 H2635 0.930 . S
N2595 C2593 1.314 . S
N2595 C2594 1.279 . S
C2596 C2598 1.353 . S
C2596 N2599 1.314 . S
C2596 H2602 0.930 . S
C2597 N2599 1.279 . S
C2597 C2600 1.358 . S
C2597 H2603 0.930 . S
C2598 C2596 1.353 . S
C2598 C2601 1.348 . S
C2598 H2636 0.929 . S
N2599 Li2554 1.990 . S
N2599 C2596 1.314 . S
N2599 C2597 1.279 . S
C2600 C2597 1.358 . S
C2600 C2601 1.356 . S
C2600 H2637 0.930 . S
C2601 C2598 1.348 . S
C2601 C2600 1.356 . S
H2602 C2596 0.930 . S
H2603 C2597 0.930 . S
C2604 N2605 1.314 . S
C2604 C2606 1.353 . S
C2604 H2610 0.930 . S
N2605 Li2555 1.990 . S
N2605 C2604 1.314 . S
N2605 C2608 1.279 . S
C2606 C2604 1.353 . S
C2606 C2609 1.348 . S
C2606 H2638 0.929 . S
C2607 C2608 1.358 . S
C2607 C2609 1.356 . S
C2607 H2639 0.930 . S
C2608 N2605 1.279 . S
C2608 C2607 1.358 . S
C2608 H2611 0.930 . S
C2609 C2606 1.348 . S
C2609 C2607 1.356 . S
H2610 C2604 0.930 . S
H2611 C2608 0.930 . S
O2612 Li2552 1.956 . S
O2612 Li2553 1.970 . S
O2612 Li2554 1.961 . S
O2612 C2556 1.325 . S
O2613 Li2552 1.970 . S
O2613 Li2553 1.956 . S
O2613 Li2555 1.961 . S
O2613 C2562 1.325 . S
O2614 Li2552 1.961 . S
O2614 Li2554 1.956 . S
O2614 Li2555 1.970 . S
O2614 C2584 1.325 . S
O2615 Li2553 1.961 . S
O2615 Li2554 1.970 . S
O2615 Li2555 1.956 . S
O2615 C2590 1.325 . S
H2616 C2558 0.929 . S
H2617 C2559 0.930 . S
H2618 C2560 0.930 . S
H2619 C2561 0.930 . S
H2620 C2563 0.930 . S
H2621 C2565 0.929 . S
H2622 C2566 0.930 . S
H2623 C2567 0.930 . S
H2624 C2570 0.930 . S
H2625 C2573 0.929 . S
H2626 C2578 0.929 . S
H2627 C2579 0.930 . S
H2628 C2586 0.929 . S
H2629 C2587 0.930 . S
H2630 C2588 0.930 . S
H2631 C2589 0.930 . S
H2632 C2591 0.929 . S
H2633 C2592 0.930 . S
H2634 C2593 0.930 . S
H2635 C2594 0.930 . S
H2636 C2598 0.929 . S
H2637 C2600 0.930 . S
H2638 C2606 0.929 . S
H2639 C2607 0.930 . S
Li2640 N2657 1.990 . S
Li2640 O2700 1.956 . S
Li2640 O2701 1.970 . S
Li2640 O2702 1.961 . S
Li2641 N2665 1.990 . S
Li2641 O2700 1.970 . S
Li2641 O2701 1.956 . S
Li2641 O2703 1.961 . S
Li2642 N2687 1.990 . S
Li2642 O2700 1.961 . S
Li2642 O2702 1.956 . S
Li2642 O2703 1.970 . S
Li2643 N2693 1.990 . S
Li2643 O2701 1.961 . S
Li2643 O2702 1.970 . S
Li2643 O2703 1.956 . S
C2644 C2646 1.348 . S
C2644 C2647 1.356 . S
C2644 O2700 1.325 . S
N2645 C2648 1.314 . S
N2645 C2649 1.279 . S
C2646 C2644 1.348 . S
C2646 C2648 1.353 . S
C2646 H2704 0.929 . S
C2647 C2644 1.356 . S
C2647 C2649 1.358 . S
C2647 H2705 0.930 . S
C2648 N2645 1.314 . S
C2648 C2646 1.353 . S
C2648 H2706 0.930 . S
C2649 N2645 1.279 . S
C2649 C2647 1.358 . S
C2649 H2707 0.930 . S
C2650 C2653 1.348 . S
C2650 C2654 1.356 . S
C2650 O2701 1.325 . S
C2651 N2652 1.279 . S
C2651 C2654 1.358 . S
C2651 H2708 0.930 . S
N2652 C2651 1.279 . S
N2652 C2655 1.314 . S
C2653 C2650 1.348 . S
C2653 C2655 1.353 . S
C2653 H2709 0.929 . S
C2654 C2650 1.356 . S
C2654 C2651 1.358 . S
C2654 H2710 0.930 . S
C2655 N2652 1.314 . S
C2655 C2653 1.353 . S
C2655 H2711 0.930 . S
C2656 N2657 1.314 . S
C2656 C2661 1.353 . S
C2656 H2662 0.930 . S
N2657 Li2640 1.990 . S
N2657 C2656 1.314 . S
N2657 C2659 1.279 . S
C2658 C2659 1.358 . S
C2658 C2660 1.356 . S
C2658 H2712 0.930 . S
C2659 N2657 1.279 . S
C2659 C2658 1.358 . S
C2659 H2663 0.930 . S
C2660 C2658 1.356 . S
C2660 C2661 1.348 . S
C2661 C2656 1.353 . S
C2661 C2660 1.348 . S
C2661 H2713 0.929 . S
H2662 C2656 0.930 . S
H2663 C2659 0.930 . S
C2664 N2665 1.314 . S
C2664 C2666 1.353 . S
C2664 H2670 0.930 . S
N2665 Li2641 1.990 . S
N2665 C2664 1.314 . S
N2665 C2668 1.279 . S
C2666 C2664 1.353 . S
C2666 C2669 1.348 . S
C2666 H2714 0.929 . S
C2667 C2668 1.358 . S
C2667 C2669 1.356 . S
C2667 H2715 0.930 . S
C2668 N2665 1.279 . S
C2668 C2667 1.358 . S
C2668 H2671 0.930 . S
C2669 C2666 1.348 . S
C2669 C2667 1.356 . S
H2670 C2664 0.930 . S
H2671 C2668 0.930 . S
C2672 C2674 1.348 . S
C2672 C2675 1.356 . S
C2672 O2702 1.325 . S
N2673 C2676 1.314 . S
N2673 C2677 1.279 . S
C2674 C2672 1.348 . S
C2674 C2676 1.353 . S
C2674 H2716 0.929 . S
C2675 C2672 1.356 . S
C2675 C2677 1.358 . S
C2675 H2717 0.930 . S
C2676 N2673 1.314 . S
C2676 C2674 1.353 . S
C2676 H2718 0.930 . S
C2677 N2673 1.279 . S
C2677 C2675 1.358 . S
C2677 H2719 0.930 . S
C2678 C2679 1.348 . S
C2678 C2680 1.356 . S
C2678 O2703 1.325 . S
C2679 C2678 1.348 . S
C2679 C2681 1.353 . S
C2679 H2720 0.929 . S
C2680 C2678 1.356 . S
C2680 C2682 1.358 . S
C2680 H2721 0.930 . S
C2681 C2679 1.353 . S
C2681 N2683 1.314 . S
C2681 H2722 0.930 . S
C2682 C2680 1.358 . S
C2682 N2683 1.279 . S
C2682 H2723 0.930 . S
N2683 C2681 1.314 . S
N2683 C2682 1.279 . S
C2684 C2686 1.353 . S
C2684 N2687 1.314 . S
C2684 H2690 0.930 . S
C2685 N2687 1.279 . S
C2685 C2688 1.358 . S
C2685 H2691 0.930 . S
C2686 C2684 1.353 . S
C2686 C2689 1.348 . S
C2686 H2724 0.929 . S
N2687 Li2642 1.990 . S
N2687 C2684 1.314 . S
N2687 C2685 1.279 . S
C2688 C2685 1.358 . S
C2688 C2689 1.356 . S
C2688 H2725 0.930 . S
C2689 C2686 1.348 . S
C2689 C2688 1.356 . S
H2690 C2684 0.930 . S
H2691 C2685 0.930 . S
C2692 N2693 1.314 . S
C2692 C2694 1.353 . S
C2692 H2698 0.930 . S
N2693 Li2643 1.990 . S
N2693 C2692 1.314 . S
N2693 C2696 1.279 . S
C2694 C2692 1.353 . S
C2694 C2697 1.348 . S
C2694 H2726 0.929 . S
C2695 C2696 1.358 . S
C2695 C2697 1.356 . S
C2695 H2727 0.930 . S
C2696 N2693 1.279 . S
C2696 C2695 1.358 . S
C2696 H2699 0.930 . S
C2697 C2694 1.348 . S
C2697 C2695 1.356 . S
H2698 C2692 0.930 . S
H2699 C2696 0.930 . S
O2700 Li2640 1.956 . S
O2700 Li2641 1.970 . S
O2700 Li2642 1.961 . S
O2700 C2644 1.325 . S
O2701 Li2640 1.970 . S
O2701 Li2641 1.956 . S
O2701 Li2643 1.961 . S
O2701 C2650 1.325 . S
O2702 Li2640 1.961 . S
O2702 Li2642 1.956 . S
O2702 Li2643 1.970 . S
O2702 C2672 1.325 . S
O2703 Li2641 1.961 . S
O2703 Li2642 1.970 . S
O2703 Li2643 1.956 . S
O2703 C2678 1.325 . S
H2704 C2646 0.929 . S
H2705 C2647 0.930 . S
H2706 C2648 0.930 . S
H2707 C2649 0.930 . S
H2708 C2651 0.930 . S
H2709 C2653 0.929 . S
H2710 C2654 0.930 . S
H2711 C2655 0.930 . S
H2712 C2658 0.930 . S
H2713 C2661 0.929 . S
H2714 C2666 0.929 . S
H2715 C2667 0.930 . S
H2716 C2674 0.929 . S
H2717 C2675 0.930 . S
H2718 C2676 0.930 . S
H2719 C2677 0.930 . S
H2720 C2679 0.929 . S
H2721 C2680 0.930 . S
H2722 C2681 0.930 . S
H2723 C2682 0.930 . S
H2724 C2686 0.929 . S
H2725 C2688 0.930 . S
H2726 C2694 0.929 . S
H2727 C2695 0.930 . S
Li2728 N2745 1.990 . S
Li2728 O2788 1.956 . S
Li2728 O2789 1.970 . S
Li2728 O2790 1.961 . S
Li2729 N2753 1.990 . S
Li2729 O2788 1.970 . S
Li2729 O2789 1.956 . S
Li2729 O2791 1.961 . S
Li2730 N2775 1.990 . S
Li2730 O2788 1.961 . S
Li2730 O2790 1.956 . S
Li2730 O2791 1.970 . S
Li2731 N2781 1.990 . S
Li2731 O2789 1.961 . S
Li2731 O2790 1.970 . S
Li2731 O2791 1.956 . S
C2732 C2734 1.348 . S
C2732 C2735 1.356 . S
C2732 O2788 1.325 . S
N2733 C2736 1.314 . S
N2733 C2737 1.279 . S
C2734 C2732 1.348 . S
C2734 C2736 1.353 . S
C2734 H2792 0.929 . S
C2735 C2732 1.356 . S
C2735 C2737 1.358 . S
C2735 H2793 0.930 . S
C2736 N2733 1.314 . S
C2736 C2734 1.353 . S
C2736 H2794 0.930 . S
C2737 N2733 1.279 . S
C2737 C2735 1.358 . S
C2737 H2795 0.930 . S
C2738 C2741 1.348 . S
C2738 C2742 1.356 . S
C2738 O2789 1.325 . S
C2739 N2740 1.279 . S
C2739 C2742 1.358 . S
C2739 H2796 0.930 . S
N2740 C2739 1.279 . S
N2740 C2743 1.314 . S
C2741 C2738 1.348 . S
C2741 C2743 1.353 . S
C2741 H2797 0.929 . S
C2742 C2738 1.356 . S
C2742 C2739 1.358 . S
C2742 H2798 0.930 . S
C2743 N2740 1.314 . S
C2743 C2741 1.353 . S
C2743 H2799 0.930 . S
C2744 N2745 1.314 . S
C2744 C2749 1.353 . S
C2744 H2750 0.930 . S
N2745 Li2728 1.990 . S
N2745 C2744 1.314 . S
N2745 C2747 1.279 . S
C2746 C2747 1.358 . S
C2746 C2748 1.356 . S
C2746 H2800 0.930 . S
C2747 N2745 1.279 . S
C2747 C2746 1.358 . S
C2747 H2751 0.930 . S
C2748 C2746 1.356 . S
C2748 C2749 1.348 . S
C2749 C2744 1.353 . S
C2749 C2748 1.348 . S
C2749 H2801 0.929 . S
H2750 C2744 0.930 . S
H2751 C2747 0.930 . S
C2752 N2753 1.314 . S
C2752 C2754 1.353 . S
C2752 H2758 0.930 . S
N2753 Li2729 1.990 . S
N2753 C2752 1.314 . S
N2753 C2756 1.279 . S
C2754 C2752 1.353 . S
C2754 C2757 1.348 . S
C2754 H2802 0.929 . S
C2755 C2756 1.358 . S
C2755 C2757 1.356 . S
C2755 H2803 0.930 . S
C2756 N2753 1.279 . S
C2756 C2755 1.358 . S
C2756 H2759 0.930 . S
C2757 C2754 1.348 . S
C2757 C2755 1.356 . S
H2758 C2752 0.930 . S
H2759 C2756 0.930 . S
C2760 C2762 1.348 . S
C2760 C2763 1.356 . S
C2760 O2790 1.325 . S
N2761 C2764 1.314 . S
N2761 C2765 1.279 . S
C2762 C2760 1.348 . S
C2762 C2764 1.353 . S
C2762 H2804 0.929 . S
C2763 C2760 1.356 . S
C2763 C2765 1.358 . S
C2763 H2805 0.930 . S
C2764 N2761 1.314 . S
C2764 C2762 1.353 . S
C2764 H2806 0.930 . S
C2765 N2761 1.279 . S
C2765 C2763 1.358 . S
C2765 H2807 0.930 . S
C2766 C2767 1.348 . S
C2766 C2768 1.356 . S
C2766 O2791 1.325 . S
C2767 C2766 1.348 . S
C2767 C2769 1.353 . S
C2767 H2808 0.929 . S
C2768 C2766 1.356 . S
C2768 C2770 1.358 . S
C2768 H2809 0.930 . S
C2769 C2767 1.353 . S
C2769 N2771 1.314 . S
C2769 H2810 0.930 . S
C2770 C2768 1.358 . S
C2770 N2771 1.279 . S
C2770 H2811 0.930 . S
N2771 C2769 1.314 . S
N2771 C2770 1.279 . S
C2772 C2774 1.353 . S
C2772 N2775 1.314 . S
C2772 H2778 0.930 . S
C2773 N2775 1.279 . S
C2773 C2776 1.358 . S
C2773 H2779 0.930 . S
C2774 C2772 1.353 . S
C2774 C2777 1.348 . S
C2774 H2812 0.929 . S
N2775 Li2730 1.990 . S
N2775 C2772 1.314 . S
N2775 C2773 1.279 . S
C2776 C2773 1.358 . S
C2776 C2777 1.356 . S
C2776 H2813 0.930 . S
C2777 C2774 1.348 . S
C2777 C2776 1.356 . S
H2778 C2772 0.930 . S
H2779 C2773 0.930 . S
C2780 N2781 1.314 . S
C2780 C2782 1.353 . S
C2780 H2786 0.930 . S
N2781 Li2731 1.990 . S
N2781 C2780 1.314 . S
N2781 C2784 1.279 . S
C2782 C2780 1.353 . S
C2782 C2785 1.348 . S
C2782 H2814 0.929 . S
C2783 C2784 1.358 . S
C2783 C2785 1.356 . S
C2783 H2815 0.930 . S
C2784 N2781 1.279 . S
C2784 C2783 1.358 . S
C2784 H2787 0.930 . S
C2785 C2782 1.348 . S
C2785 C2783 1.356 . S
H2786 C2780 0.930 . S
H2787 C2784 0.930 . S
O2788 Li2728 1.956 . S
O2788 Li2729 1.970 . S
O2788 Li2730 1.961 . S
O2788 C2732 1.325 . S
O2789 Li2728 1.970 . S
O2789 Li2729 1.956 . S
O2789 Li2731 1.961 . S
O2789 C2738 1.325 . S
O2790 Li2728 1.961 . S
O2790 Li2730 1.956 . S
O2790 Li2731 1.970 . S
O2790 C2760 1.325 . S
O2791 Li2729 1.961 . S
O2791 Li2730 1.970 . S
O2791 Li2731 1.956 . S
O2791 C2766 1.325 . S
H2792 C2734 0.929 . S
H2793 C2735 0.930 . S
H2794 C2736 0.930 . S
H2795 C2737 0.930 . S
H2796 C2739 0.930 . S
H2797 C2741 0.929 . S
H2798 C2742 0.930 . S
H2799 C2743 0.930 . S
H2800 C2746 0.930 . S
H2801 C2749 0.929 . S
H2802 C2754 0.929 . S
H2803 C2755 0.930 . S
H2804 C2762 0.929 . S
H2805 C2763 0.930 . S
H2806 C2764 0.930 . S
H2807 C2765 0.930 . S
H2808 C2767 0.929 . S
H2809 C2768 0.930 . S
H2810 C2769 0.930 . S
H2811 C2770 0.930 . S
H2812 C2774 0.929 . S
H2813 C2776 0.930 . S
H2814 C2782 0.929 . S
H2815 C2783 0.930 . S
Li2816 N2833 1.990 . S
Li2816 O2876 1.956 . S
Li2816 O2877 1.970 . S
Li2816 O2878 1.961 . S
Li2817 N2841 1.990 . S
Li2817 O2876 1.970 . S
Li2817 O2877 1.956 . S
Li2817 O2879 1.961 . S
Li2818 N2863 1.990 . S
Li2818 O2876 1.961 . S
Li2818 O2878 1.956 . S
Li2818 O2879 1.970 . S
Li2819 N2869 1.990 . S
Li2819 O2877 1.961 . S
Li2819 O2878 1.970 . S
Li2819 O2879 1.956 . S
C2820 C2822 1.348 . S
C2820 C2823 1.356 . S
C2820 O2876 1.325 . S
N2821 C2824 1.314 . S
N2821 C2825 1.279 . S
C2822 C2820 1.348 . S
C2822 C2824 1.353 . S
C2822 H2880 0.929 . S
C2823 C2820 1.356 . S
C2823 C2825 1.358 . S
C2823 H2881 0.930 . S
C2824 N2821 1.314 . S
C2824 C2822 1.353 . S
C2824 H2882 0.930 . S
C2825 N2821 1.279 . S
C2825 C2823 1.358 . S
C2825 H2883 0.930 . S
C2826 C2829 1.348 . S
C2826 C2830 1.356 . S
C2826 O2877 1.325 . S
C2827 N2828 1.279 . S
C2827 C2830 1.358 . S
C2827 H2884 0.930 . S
N2828 C2827 1.279 . S
N2828 C2831 1.314 . S
C2829 C2826 1.348 . S
C2829 C2831 1.353 . S
C2829 H2885 0.929 . S
C2830 C2826 1.356 . S
C2830 C2827 1.358 . S
C2830 H2886 0.930 . S
C2831 N2828 1.314 . S
C2831 C2829 1.353 . S
C2831 H2887 0.930 . S
C2832 N2833 1.314 . S
C2832 C2837 1.353 . S
C2832 H2838 0.930 . S
N2833 Li2816 1.990 . S
N2833 C2832 1.314 . S
N2833 C2835 1.279 . S
C2834 C2835 1.358 . S
C2834 C2836 1.356 . S
C2834 H2888 0.930 . S
C2835 N2833 1.279 . S
C2835 C2834 1.358 . S
C2835 H2839 0.930 . S
C2836 C2834 1.356 . S
C2836 C2837 1.348 . S
C2837 C2832 1.353 . S
C2837 C2836 1.348 . S
C2837 H2889 0.929 . S
H2838 C2832 0.930 . S
H2839 C2835 0.930 . S
C2840 N2841 1.314 . S
C2840 C2842 1.353 . S
C2840 H2846 0.930 . S
N2841 Li2817 1.990 . S
N2841 C2840 1.314 . S
N2841 C2844 1.279 . S
C2842 C2840 1.353 . S
C2842 C2845 1.348 . S
C2842 H2890 0.929 . S
C2843 C2844 1.358 . S
C2843 C2845 1.356 . S
C2843 H2891 0.930 . S
C2844 N2841 1.279 . S
C2844 C2843 1.358 . S
C2844 H2847 0.930 . S
C2845 C2842 1.348 . S
C2845 C2843 1.356 . S
H2846 C2840 0.930 . S
H2847 C2844 0.930 . S
C2848 C2850 1.348 . S
C2848 C2851 1.356 . S
C2848 O2878 1.325 . S
N2849 C2852 1.314 . S
N2849 C2853 1.279 . S
C2850 C2848 1.348 . S
C2850 C2852 1.353 . S
C2850 H2892 0.929 . S
C2851 C2848 1.356 . S
C2851 C2853 1.358 . S
C2851 H2893 0.930 . S
C2852 N2849 1.314 . S
C2852 C2850 1.353 . S
C2852 H2894 0.930 . S
C2853 N2849 1.279 . S
C2853 C2851 1.358 . S
C2853 H2895 0.930 . S
C2854 C2855 1.348 . S
C2854 C2856 1.356 . S
C2854 O2879 1.325 . S
C2855 C2854 1.348 . S
C2855 C2857 1.353 . S
C2855 H2896 0.929 . S
C2856 C2854 1.356 . S
C2856 C2858 1.358 . S
C2856 H2897 0.930 . S
C2857 C2855 1.353 . S
C2857 N2859 1.314 . S
C2857 H2898 0.930 . S
C2858 C2856 1.358 . S
C2858 N2859 1.279 . S
C2858 H2899 0.930 . S
N2859 C2857 1.314 . S
N2859 C2858 1.279 . S
C2860 C2862 1.353 . S
C2860 N2863 1.314 . S
C2860 H2866 0.930 . S
C2861 N2863 1.279 . S
C2861 C2864 1.358 . S
C2861 H2867 0.930 . S
C2862 C2860 1.353 . S
C2862 C2865 1.348 . S
C2862 H2900 0.929 . S
N2863 Li2818 1.990 . S
N2863 C2860 1.314 . S
N2863 C2861 1.279 . S
C2864 C2861 1.358 . S
C2864 C2865 1.356 . S
C2864 H2901 0.930 . S
C2865 C2862 1.348 . S
C2865 C2864 1.356 . S
H2866 C2860 0.930 . S
H2867 C2861 0.930 . S
C2868 N2869 1.314 . S
C2868 C2870 1.353 . S
C2868 H2874 0.930 . S
N2869 Li2819 1.990 . S
N2869 C2868 1.314 . S
N2869 C2872 1.279 . S
C2870 C2868 1.353 . S
C2870 C2873 1.348 . S
C2870 H2902 0.929 . S
C2871 C2872 1.358 . S
C2871 C2873 1.356 . S
C2871 H2903 0.930 . S
C2872 N2869 1.279 . S
C2872 C2871 1.358 . S
C2872 H2875 0.930 . S
C2873 C2870 1.348 . S
C2873 C2871 1.356 . S
H2874 C2868 0.930 . S
H2875 C2872 0.930 . S
O2876 Li2816 1.956 . S
O2876 Li2817 1.970 . S
O2876 Li2818 1.961 . S
O2876 C2820 1.325 . S
O2877 Li2816 1.970 . S
O2877 Li2817 1.956 . S
O2877 Li2819 1.961 . S
O2877 C2826 1.325 . S
O2878 Li2816 1.961 . S
O2878 Li2818 1.956 . S
O2878 Li2819 1.970 . S
O2878 C2848 1.325 . S
O2879 Li2817 1.961 . S
O2879 Li2818 1.970 . S
O2879 Li2819 1.956 . S
O2879 C2854 1.325 . S
H2880 C2822 0.929 . S
H2881 C2823 0.930 . S
H2882 C2824 0.930 . S
H2883 C2825 0.930 . S
H2884 C2827 0.930 . S
H2885 C2829 0.929 . S
H2886 C2830 0.930 . S
H2887 C2831 0.930 . S
H2888 C2834 0.930 . S
H2889 C2837 0.929 . S
H2890 C2842 0.929 . S
H2891 C2843 0.930 . S
H2892 C2850 0.929 . S
H2893 C2851 0.930 . S
H2894 C2852 0.930 . S
H2895 C2853 0.930 . S
H2896 C2855 0.929 . S
H2897 C2856 0.930 . S
H2898 C2857 0.930 . S
H2899 C2858 0.930 . S
H2900 C2862 0.929 . S
H2901 C2864 0.930 . S
H2902 C2870 0.929 . S
H2903 C2871 0.930 . S
Li2904 N2921 1.990 . S
Li2904 O2964 1.956 . S
Li2904 O2965 1.970 . S
Li2904 O2966 1.961 . S
Li2905 N2929 1.990 . S
Li2905 O2964 1.970 . S
Li2905 O2965 1.956 . S
Li2905 O2967 1.961 . S
Li2906 N2951 1.990 . S
Li2906 O2964 1.961 . S
Li2906 O2966 1.956 . S
Li2906 O2967 1.970 . S
Li2907 N2957 1.990 . S
Li2907 O2965 1.961 . S
Li2907 O2966 1.970 . S
Li2907 O2967 1.956 . S
C2908 C2910 1.348 . S
C2908 C2911 1.356 . S
C2908 O2964 1.325 . S
N2909 C2912 1.314 . S
N2909 C2913 1.279 . S
C2910 C2908 1.348 . S
C2910 C2912 1.353 . S
C2910 H2968 0.929 . S
C2911 C2908 1.356 . S
C2911 C2913 1.358 . S
C2911 H2969 0.930 . S
C2912 N2909 1.314 . S
C2912 C2910 1.353 . S
C2912 H2970 0.930 . S
C2913 N2909 1.279 . S
C2913 C2911 1.358 . S
C2913 H2971 0.930 . S
C2914 C2917 1.348 . S
C2914 C2918 1.356 . S
C2914 O2965 1.325 . S
C2915 N2916 1.279 . S
C2915 C2918 1.358 . S
C2915 H2972 0.930 . S
N2916 C2915 1.279 . S
N2916 C2919 1.314 . S
C2917 C2914 1.348 . S
C2917 C2919 1.353 . S
C2917 H2973 0.929 . S
C2918 C2914 1.356 . S
C2918 C2915 1.358 . S
C2918 H2974 0.930 . S
C2919 N2916 1.314 . S
C2919 C2917 1.353 . S
C2919 H2975 0.930 . S
C2920 N2921 1.314 . S
C2920 C2925 1.353 . S
C2920 H2926 0.930 . S
N2921 Li2904 1.990 . S
N2921 C2920 1.314 . S
N2921 C2923 1.279 . S
C2922 C2923 1.358 . S
C2922 C2924 1.356 . S
C2922 H2976 0.930 . S
C2923 N2921 1.279 . S
C2923 C2922 1.358 . S
C2923 H2927 0.930 . S
C2924 C2922 1.356 . S
C2924 C2925 1.348 . S
C2925 C2920 1.353 . S
C2925 C2924 1.348 . S
C2925 H2977 0.929 . S
H2926 C2920 0.930 . S
H2927 C2923 0.930 . S
C2928 N2929 1.314 . S
C2928 C2930 1.353 . S
C2928 H2934 0.930 . S
N2929 Li2905 1.990 . S
N2929 C2928 1.314 . S
N2929 C2932 1.279 . S
C2930 C2928 1.353 . S
C2930 C2933 1.348 . S
C2930 H2978 0.929 . S
C2931 C2932 1.358 . S
C2931 C2933 1.356 . S
C2931 H2979 0.930 . S
C2932 N2929 1.279 . S
C2932 C2931 1.358 . S
C2932 H2935 0.930 . S
C2933 C2930 1.348 . S
C2933 C2931 1.356 . S
H2934 C2928 0.930 . S
H2935 C2932 0.930 . S
C2936 C2938 1.348 . S
C2936 C2939 1.356 . S
C2936 O2966 1.325 . S
N2937 C2940 1.314 . S
N2937 C2941 1.279 . S
C2938 C2936 1.348 . S
C2938 C2940 1.353 . S
C2938 H2980 0.929 . S
C2939 C2936 1.356 . S
C2939 C2941 1.358 . S
C2939 H2981 0.930 . S
C2940 N2937 1.314 . S
C2940 C2938 1.353 . S
C2940 H2982 0.930 . S
C2941 N2937 1.279 . S
C2941 C2939 1.358 . S
C2941 H2983 0.930 . S
C2942 C2943 1.348 . S
C2942 C2944 1.356 . S
C2942 O2967 1.325 . S
C2943 C2942 1.348 . S
C2943 C2945 1.353 . S
C2943 H2984 0.929 . S
C2944 C2942 1.356 . S
C2944 C2946 1.358 . S
C2944 H2985 0.930 . S
C2945 C2943 1.353 . S
C2945 N2947 1.314 . S
C2945 H2986 0.930 . S
C2946 C2944 1.358 . S
C2946 N2947 1.279 . S
C2946 H2987 0.930 . S
N2947 C2945 1.314 . S
N2947 C2946 1.279 . S
C2948 C2950 1.353 . S
C2948 N2951 1.314 . S
C2948 H2954 0.930 . S
C2949 N2951 1.279 . S
C2949 C2952 1.358 . S
C2949 H2955 0.930 . S
C2950 C2948 1.353 . S
C2950 C2953 1.348 . S
C2950 H2988 0.929 . S
N2951 Li2906 1.990 . S
N2951 C2948 1.314 . S
N2951 C2949 1.279 . S
C2952 C2949 1.358 . S
C2952 C2953 1.356 . S
C2952 H2989 0.930 . S
C2953 C2950 1.348 . S
C2953 C2952 1.356 . S
H2954 C2948 0.930 . S
H2955 C2949 0.930 . S
C2956 N2957 1.314 . S
C2956 C2958 1.353 . S
C2956 H2962 0.930 . S
N2957 Li2907 1.990 . S
N2957 C2956 1.314 . S
N2957 C2960 1.279 . S
C2958 C2956 1.353 . S
C2958 C2961 1.348 . S
C2958 H2990 0.929 . S
C2959 C2960 1.358 . S
C2959 C2961 1.356 . S
C2959 H2991 0.930 . S
C2960 N2957 1.279 . S
C2960 C2959 1.358 . S
C2960 H2963 0.930 . S
C2961 C2958 1.348 . S
C2961 C2959 1.356 . S
H2962 C2956 0.930 . S
H2963 C2960 0.930 . S
O2964 Li2904 1.956 . S
O2964 Li2905 1.970 . S
O2964 Li2906 1.961 . S
O2964 C2908 1.325 . S
O2965 Li2904 1.970 . S
O2965 Li2905 1.956 . S
O2965 Li2907 1.961 . S
O2965 C2914 1.325 . S
O2966 Li2904 1.961 . S
O2966 Li2906 1.956 . S
O2966 Li2907 1.970 . S
O2966 C2936 1.325 . S
O2967 Li2905 1.961 . S
O2967 Li2906 1.970 . S
O2967 Li2907 1.956 . S
O2967 C2942 1.325 . S
H2968 C2910 0.929 . S
H2969 C2911 0.930 . S
H2970 C2912 0.930 . S
H2971 C2913 0.930 . S
H2972 C2915 0.930 . S
H2973 C2917 0.929 . S
H2974 C2918 0.930 . S
H2975 C2919 0.930 . S
H2976 C2922 0.930 . S
H2977 C2925 0.929 . S
H2978 C2930 0.929 . S
H2979 C2931 0.930 . S
H2980 C2938 0.929 . S
H2981 C2939 0.930 . S
H2982 C2940 0.930 . S
H2983 C2941 0.930 . S
H2984 C2943 0.929 . S
H2985 C2944 0.930 . S
H2986 C2945 0.930 . S
H2987 C2946 0.930 . S
H2988 C2950 0.929 . S
H2989 C2952 0.930 . S
H2990 C2958 0.929 . S
H2991 C2959 0.930 . S
Li2992 N3009 1.990 . S
Li2992 O3052 1.956 . S
Li2992 O3053 1.970 . S
Li2992 O3054 1.961 . S
Li2993 N3017 1.990 . S
Li2993 O3052 1.970 . S
Li2993 O3053 1.956 . S
Li2993 O3055 1.961 . S
Li2994 N3039 1.990 . S
Li2994 O3052 1.961 . S
Li2994 O3054 1.956 . S
Li2994 O3055 1.970 . S
Li2995 N3045 1.990 . S
Li2995 O3053 1.961 . S
Li2995 O3054 1.970 . S
Li2995 O3055 1.956 . S
C2996 C2998 1.348 . S
C2996 C2999 1.356 . S
C2996 O3052 1.325 . S
N2997 C3000 1.314 . S
N2997 C3001 1.279 . S
C2998 C2996 1.348 . S
C2998 C3000 1.353 . S
C2998 H3056 0.929 . S
C2999 C2996 1.356 . S
C2999 C3001 1.358 . S
C2999 H3057 0.930 . S
C3000 N2997 1.314 . S
C3000 C2998 1.353 . S
C3000 H3058 0.930 . S
C3001 N2997 1.279 . S
C3001 C2999 1.358 . S
C3001 H3059 0.930 . S
C3002 C3005 1.348 . S
C3002 C3006 1.356 . S
C3002 O3053 1.325 . S
C3003 N3004 1.279 . S
C3003 C3006 1.358 . S
C3003 H3060 0.930 . S
N3004 C3003 1.279 . S
N3004 C3007 1.314 . S
C3005 C3002 1.348 . S
C3005 C3007 1.353 . S
C3005 H3061 0.929 . S
C3006 C3002 1.356 . S
C3006 C3003 1.358 . S
C3006 H3062 0.930 . S
C3007 N3004 1.314 . S
C3007 C3005 1.353 . S
C3007 H3063 0.930 . S
C3008 N3009 1.314 . S
C3008 C3013 1.353 . S
C3008 H3014 0.930 . S
N3009 Li2992 1.990 . S
N3009 C3008 1.314 . S
N3009 C3011 1.279 . S
C3010 C3011 1.358 . S
C3010 C3012 1.356 . S
C3010 H3064 0.930 . S
C3011 N3009 1.279 . S
C3011 C3010 1.358 . S
C3011 H3015 0.930 . S
C3012 C3010 1.356 . S
C3012 C3013 1.348 . S
C3013 C3008 1.353 . S
C3013 C3012 1.348 . S
C3013 H3065 0.929 . S
H3014 C3008 0.930 . S
H3015 C3011 0.930 . S
C3016 N3017 1.314 . S
C3016 C3018 1.353 . S
C3016 H3022 0.930 . S
N3017 Li2993 1.990 . S
N3017 C3016 1.314 . S
N3017 C3020 1.279 . S
C3018 C3016 1.353 . S
C3018 C3021 1.348 . S
C3018 H3066 0.929 . S
C3019 C3020 1.358 . S
C3019 C3021 1.356 . S
C3019 H3067 0.930 . S
C3020 N3017 1.279 . S
C3020 C3019 1.358 . S
C3020 H3023 0.930 . S
C3021 C3018 1.348 . S
C3021 C3019 1.356 . S
H3022 C3016 0.930 . S
H3023 C3020 0.930 . S
C3024 C3026 1.348 . S
C3024 C3027 1.356 . S
C3024 O3054 1.325 . S
N3025 C3028 1.314 . S
N3025 C3029 1.279 . S
C3026 C3024 1.348 . S
C3026 C3028 1.353 . S
C3026 H3068 0.929 . S
C3027 C3024 1.356 . S
C3027 C3029 1.358 . S
C3027 H3069 0.930 . S
C3028 N3025 1.314 . S
C3028 C3026 1.353 . S
C3028 H3070 0.930 . S
C3029 N3025 1.279 . S
C3029 C3027 1.358 . S
C3029 H3071 0.930 . S
C3030 C3031 1.348 . S
C3030 C3032 1.356 . S
C3030 O3055 1.325 . S
C3031 C3030 1.348 . S
C3031 C3033 1.353 . S
C3031 H3072 0.929 . S
C3032 C3030 1.356 . S
C3032 C3034 1.358 . S
C3032 H3073 0.930 . S
C3033 C3031 1.353 . S
C3033 N3035 1.314 . S
C3033 H3074 0.930 . S
C3034 C3032 1.358 . S
C3034 N3035 1.279 . S
C3034 H3075 0.930 . S
N3035 C3033 1.314 . S
N3035 C3034 1.279 . S
C3036 C3038 1.353 . S
C3036 N3039 1.314 . S
C3036 H3042 0.930 . S
C3037 N3039 1.279 . S
C3037 C3040 1.358 . S
C3037 H3043 0.930 . S
C3038 C3036 1.353 . S
C3038 C3041 1.348 . S
C3038 H3076 0.929 . S
N3039 Li2994 1.990 . S
N3039 C3036 1.314 . S
N3039 C3037 1.279 . S
C3040 C3037 1.358 . S
C3040 C3041 1.356 . S
C3040 H3077 0.930 . S
C3041 C3038 1.348 . S
C3041 C3040 1.356 . S
H3042 C3036 0.930 . S
H3043 C3037 0.930 . S
C3044 N3045 1.314 . S
C3044 C3046 1.353 . S
C3044 H3050 0.930 . S
N3045 Li2995 1.990 . S
N3045 C3044 1.314 . S
N3045 C3048 1.279 . S
C3046 C3044 1.353 . S
C3046 C3049 1.348 . S
C3046 H3078 0.929 . S
C3047 C3048 1.358 . S
C3047 C3049 1.356 . S
C3047 H3079 0.930 . S
C3048 N3045 1.279 . S
C3048 C3047 1.358 . S
C3048 H3051 0.930 . S
C3049 C3046 1.348 . S
C3049 C3047 1.356 . S
H3050 C3044 0.930 . S
H3051 C3048 0.930 . S
O3052 Li2992 1.956 . S
O3052 Li2993 1.970 . S
O3052 Li2994 1.961 . S
O3052 C2996 1.325 . S
O3053 Li2992 1.970 . S
O3053 Li2993 1.956 . S
O3053 Li2995 1.961 . S
O3053 C3002 1.325 . S
O3054 Li2992 1.961 . S
O3054 Li2994 1.956 . S
O3054 Li2995 1.970 . S
O3054 C3024 1.325 . S
O3055 Li2993 1.961 . S
O3055 Li2994 1.970 . S
O3055 Li2995 1.956 . S
O3055 C3030 1.325 . S
H3056 C2998 0.929 . S
H3057 C2999 0.930 . S
H3058 C3000 0.930 . S
H3059 C3001 0.930 . S
H3060 C3003 0.930 . S
H3061 C3005 0.929 . S
H3062 C3006 0.930 . S
H3063 C3007 0.930 . S
H3064 C3010 0.930 . S
H3065 C3013 0.929 . S
H3066 C3018 0.929 . S
H3067 C3019 0.930 . S
H3068 C3026 0.929 . S
H3069 C3027 0.930 . S
H3070 C3028 0.930 . S
H3071 C3029 0.930 . S
H3072 C3031 0.929 . S
H3073 C3032 0.930 . S
H3074 C3033 0.930 . S
H3075 C3034 0.930 . S
H3076 C3038 0.929 . S
H3077 C3040 0.930 . S
H3078 C3046 0.929 . S
H3079 C3047 0.930 . S
Li3080 N3097 1.990 . S
Li3080 O3140 1.956 . S
Li3080 O3141 1.970 . S
Li3080 O3142 1.961 . S
Li3081 N3105 1.990 . S
Li3081 O3140 1.970 . S
Li3081 O3141 1.956 . S
Li3081 O3143 1.961 . S
Li3082 N3127 1.990 . S
Li3082 O3140 1.961 . S
Li3082 O3142 1.956 . S
Li3082 O3143 1.970 . S
Li3083 N3133 1.990 . S
Li3083 O3141 1.961 . S
Li3083 O3142 1.970 . S
Li3083 O3143 1.956 . S
C3084 C3086 1.348 . S
C3084 C3087 1.356 . S
C3084 O3140 1.325 . S
N3085 C3088 1.314 . S
N3085 C3089 1.279 . S
C3086 C3084 1.348 . S
C3086 C3088 1.353 . S
C3086 H3144 0.929 . S
C3087 C3084 1.356 . S
C3087 C3089 1.358 . S
C3087 H3145 0.930 . S
C3088 N3085 1.314 . S
C3088 C3086 1.353 . S
C3088 H3146 0.930 . S
C3089 N3085 1.279 . S
C3089 C3087 1.358 . S
C3089 H3147 0.930 . S
C3090 C3093 1.348 . S
C3090 C3094 1.356 . S
C3090 O3141 1.325 . S
C3091 N3092 1.279 . S
C3091 C3094 1.358 . S
C3091 H3148 0.930 . S
N3092 C3091 1.279 . S
N3092 C3095 1.314 . S
C3093 C3090 1.348 . S
C3093 C3095 1.353 . S
C3093 H3149 0.929 . S
C3094 C3090 1.356 . S
C3094 C3091 1.358 . S
C3094 H3150 0.930 . S
C3095 N3092 1.314 . S
C3095 C3093 1.353 . S
C3095 H3151 0.930 . S
C3096 N3097 1.314 . S
C3096 C3101 1.353 . S
C3096 H3102 0.930 . S
N3097 Li3080 1.990 . S
N3097 C3096 1.314 . S
N3097 C3099 1.279 . S
C3098 C3099 1.358 . S
C3098 C3100 1.356 . S
C3098 H3152 0.930 . S
C3099 N3097 1.279 . S
C3099 C3098 1.358 . S
C3099 H3103 0.930 . S
C3100 C3098 1.356 . S
C3100 C3101 1.348 . S
C3101 C3096 1.353 . S
C3101 C3100 1.348 . S
C3101 H3153 0.929 . S
H3102 C3096 0.930 . S
H3103 C3099 0.930 . S
C3104 N3105 1.314 . S
C3104 C3106 1.353 . S
C3104 H3110 0.930 . S
N3105 Li3081 1.990 . S
N3105 C3104 1.314 . S
N3105 C3108 1.279 . S
C3106 C3104 1.353 . S
C3106 C3109 1.348 . S
C3106 H3154 0.929 . S
C3107 C3108 1.358 . S
C3107 C3109 1.356 . S
C3107 H3155 0.930 . S
C3108 N3105 1.279 . S
C3108 C3107 1.358 . S
C3108 H3111 0.930 . S
C3109 C3106 1.348 . S
C3109 C3107 1.356 . S
H3110 C3104 0.930 . S
H3111 C3108 0.930 . S
C3112 C3114 1.348 . S
C3112 C3115 1.356 . S
C3112 O3142 1.325 . S
N3113 C3116 1.314 . S
N3113 C3117 1.279 . S
C3114 C3112 1.348 . S
C3114 C3116 1.353 . S
C3114 H3156 0.929 . S
C3115 C3112 1.356 . S
C3115 C3117 1.358 . S
C3115 H3157 0.930 . S
C3116 N3113 1.314 . S
C3116 C3114 1.353 . S
C3116 H3158 0.930 . S
C3117 N3113 1.279 . S
C3117 C3115 1.358 . S
C3117 H3159 0.930 . S
C3118 C3119 1.348 . S
C3118 C3120 1.356 . S
C3118 O3143 1.325 . S
C3119 C3118 1.348 . S
C3119 C3121 1.353 . S
C3119 H3160 0.929 . S
C3120 C3118 1.356 . S
C3120 C3122 1.358 . S
C3120 H3161 0.930 . S
C3121 C3119 1.353 . S
C3121 N3123 1.314 . S
C3121 H3162 0.930 . S
C3122 C3120 1.358 . S
C3122 N3123 1.279 . S
C3122 H3163 0.930 . S
N3123 C3121 1.314 . S
N3123 C3122 1.279 . S
C3124 C3126 1.353 . S
C3124 N3127 1.314 . S
C3124 H3130 0.930 . S
C3125 N3127 1.279 . S
C3125 C3128 1.358 . S
C3125 H3131 0.930 . S
C3126 C3124 1.353 . S
C3126 C3129 1.348 . S
C3126 H3164 0.929 . S
N3127 Li3082 1.990 . S
N3127 C3124 1.314 . S
N3127 C3125 1.279 . S
C3128 C3125 1.358 . S
C3128 C3129 1.356 . S
C3128 H3165 0.930 . S
C3129 C3126 1.348 . S
C3129 C3128 1.356 . S
H3130 C3124 0.930 . S
H3131 C3125 0.930 . S
C3132 N3133 1.314 . S
C3132 C3134 1.353 . S
C3132 H3138 0.930 . S
N3133 Li3083 1.990 . S
N3133 C3132 1.314 . S
N3133 C3136 1.279 . S
C3134 C3132 1.353 . S
C3134 C3137 1.348 . S
C3134 H3166 0.929 . S
C3135 C3136 1.358 . S
C3135 C3137 1.356 . S
C3135 H3167 0.930 . S
C3136 N3133 1.279 . S
C3136 C3135 1.358 . S
C3136 H3139 0.930 . S
C3137 C3134 1.348 . S
C3137 C3135 1.356 . S
H3138 C3132 0.930 . S
H3139 C3136 0.930 . S
O3140 Li3080 1.956 . S
O3140 Li3081 1.970 . S
O3140 Li3082 1.961 . S
O3140 C3084 1.325 . S
O3141 Li3080 1.970 . S
O3141 Li3081 1.956 . S
O3141 Li3083 1.961 . S
O3141 C3090 1.325 . S
O3142 Li3080 1.961 . S
O3142 Li3082 1.956 . S
O3142 Li3083 1.970 . S
O3142 C3112 1.325 . S
O3143 Li3081 1.961 . S
O3143 Li3082 1.970 . S
O3143 Li3083 1.956 . S
O3143 C3118 1.325 . S
H3144 C3086 0.929 . S
H3145 C3087 0.930 . S
H3146 C3088 0.930 . S
H3147 C3089 0.930 . S
H3148 C3091 0.930 . S
H3149 C3093 0.929 . S
H3150 C3094 0.930 . S
H3151 C3095 0.930 . S
H3152 C3098 0.930 . S
H3153 C3101 0.929 . S
H3154 C3106 0.929 . S
H3155 C3107 0.930 . S
H3156 C3114 0.929 . S
H3157 C3115 0.930 . S
H3158 C3116 0.930 . S
H3159 C3117 0.930 . S
H3160 C3119 0.929 . S
H3161 C3120 0.930 . S
H3162 C3121 0.930 . S
H3163 C3122 0.930 . S
H3164 C3126 0.929 . S
H3165 C3128 0.930 . S
H3166 C3134 0.929 . S
H3167 C3135 0.930 . S
H3168 C3174 0.930 . S
H3169 C3178 0.930 . S
H3170 C3183 0.929 . S
H3171 C3181 0.929 . S
H3172 C3176 0.929 . S
H3173 C3182 0.929 . S
C3174 H3168 0.930 . S
C3174 C3175 1.367 . S
C3174 C3182 1.378 . S
C3175 C3174 1.367 . S
C3175 C3183 1.433 . S
C3176 H3172 0.929 . S
C3176 C3178 1.378 . S
C3176 C3180 1.350 . S
C3177 C3180 1.463 . S
C3177 C3182 1.350 . S
C3177 N3185 1.427 . S
C3178 H3169 0.930 . S
C3178 C3176 1.378 . S
C3178 C3179 1.367 . S
C3179 C3178 1.367 . S
C3179 C3181 1.433 . S
C3180 C3176 1.350 . S
C3180 C3177 1.463 . S
C3180 N3184 1.427 . S
C3181 H3171 0.929 . S
C3181 C3179 1.433 . S
C3181 N3184 1.384 . S
C3182 H3173 0.929 . S
C3182 C3174 1.378 . S
C3182 C3177 1.350 . S
C3183 H3170 0.929 . S
C3183 C3175 1.433 . S
C3183 N3185 1.384 . S
N3184 C3180 1.427 . S
N3184 C3181 1.384 . S
N3185 C3177 1.427 . S
N3185 C3183 1.384 . S
H3186 C3192 0.930 . S
H3187 C3196 0.930 . S
H3188 C3201 0.929 . S
H3189 C3199 0.929 . S
H3190 C3194 0.929 . S
H3191 C3200 0.929 . S
C3192 H3186 0.930 . S
C3192 C3193 1.367 . S
C3192 C3200 1.378 . S
C3193 C3192 1.367 . S
C3193 C3201 1.433 . S
C3194 H3190 0.929 . S
C3194 C3196 1.378 . S
C3194 C3198 1.350 . S
C3195 C3198 1.463 . S
C3195 C3200 1.350 . S
C3195 N3203 1.427 . S
C3196 H3187 0.930 . S
C3196 C3194 1.378 . S
C3196 C3197 1.367 . S
C3197 C3196 1.367 . S
C3197 C3199 1.433 . S
C3198 C3194 1.350 . S
C3198 C3195 1.463 . S
C3198 N3202 1.427 . S
C3199 H3189 0.929 . S
C3199 C3197 1.433 . S
C3199 N3202 1.384 . S
C3200 H3191 0.929 . S
C3200 C3192 1.378 . S
C3200 C3195 1.350 . S
C3201 H3188 0.929 . S
C3201 C3193 1.433 . S
C3201 N3203 1.384 . S
N3202 C3198 1.427 . S
N3202 C3199 1.384 . S
N3203 C3195 1.427 . S
N3203 C3201 1.384 . S
H3204 C3210 0.930 . S
H3205 C3214 0.930 . S
H3206 C3219 0.929 . S
H3207 C3217 0.929 . S
H3208 C3212 0.929 . S
H3209 C3218 0.929 . S
C3210 H3204 0.930 . S
C3210 C3211 1.367 . S
C3210 C3218 1.378 . S
C3211 C3210 1.367 . S
C3211 C3219 1.433 . S
C3212 H3208 0.929 . S
C3212 C3214 1.378 . S
C3212 C3216 1.350 . S
C3213 C3216 1.463 . S
C3213 C3218 1.350 . S
C3213 N3221 1.427 . S
C3214 H3205 0.930 . S
C3214 C3212 1.378 . S
C3214 C3215 1.367 . S
C3215 C3214 1.367 . S
C3215 C3217 1.433 . S
C3216 C3212 1.350 . S
C3216 C3213 1.463 . S
C3216 N3220 1.427 . S
C3217 H3207 0.929 . S
C3217 C3215 1.433 . S
C3217 N3220 1.384 . S
C3218 H3209 0.929 . S
C3218 C3210 1.378 . S
C3218 C3213 1.350 . S
C3219 H3206 0.929 . S
C3219 C3211 1.433 . S
C3219 N3221 1.384 . S
N3220 C3216 1.427 . S
N3220 C3217 1.384 . S
N3221 C3213 1.427 . S
N3221 C3219 1.384 . S
H3222 C3228 0.930 . S
H3223 C3232 0.930 . S
H3224 C3237 0.929 . S
H3225 C3235 0.929 . S
H3226 C3230 0.929 . S
H3227 C3236 0.929 . S
C3228 H3222 0.930 . S
C3228 C3229 1.367 . S
C3228 C3236 1.378 . S
C3229 C3228 1.367 . S
C3229 C3237 1.433 . S
C3230 H3226 0.929 . S
C3230 C3232 1.378 . S
C3230 C3234 1.350 . S
C3231 C3234 1.463 . S
C3231 C3236 1.350 . S
C3231 N3239 1.427 . S
C3232 H3223 0.930 . S
C3232 C3230 1.378 . S
C3232 C3233 1.367 . S
C3233 C3232 1.367 . S
C3233 C3235 1.433 . S
C3234 C3230 1.350 . S
C3234 C3231 1.463 . S
C3234 N3238 1.427 . S
C3235 H3225 0.929 . S
C3235 C3233 1.433 . S
C3235 N3238 1.384 . S
C3236 H3227 0.929 . S
C3236 C3228 1.378 . S
C3236 C3231 1.350 . S
C3237 H3224 0.929 . S
C3237 C3229 1.433 . S
C3237 N3239 1.384 . S
N3238 C3234 1.427 . S
N3238 C3235 1.384 . S
N3239 C3231 1.427 . S
N3239 C3237 1.384 . S
H3240 C3246 0.930 . S
H3241 C3250 0.930 . S
H3242 C3255 0.929 . S
H3243 C3253 0.929 . S
H3244 C3248 0.929 . S
H3245 C3254 0.929 . S
C3246 H3240 0.930 . S
C3246 C3247 1.367 . S
C3246 C3254 1.378 . S
C3247 C3246 1.367 . S
C3247 C3255 1.433 . S
C3248 H3244 0.929 . S
C3248 C3250 1.378 . S
C3248 C3252 1.350 . S
C3249 C3252 1.463 . S
C3249 C3254 1.350 . S
C3249 N3257 1.427 . S
C3250 H3241 0.930 . S
C3250 C3248 1.378 . S
C3250 C3251 1.367 . S
C3251 C3250 1.367 . S
C3251 C3253 1.433 . S
C3252 C3248 1.350 . S
C3252 C3249 1.463 . S
C3252 N3256 1.427 . S
C3253 H3243 0.929 . S
C3253 C3251 1.433 . S
C3253 N3256 1.384 . S
C3254 H3245 0.929 . S
C3254 C3246 1.378 . S
C3254 C3249 1.350 . S
C3255 H3242 0.929 . S
C3255 C3247 1.433 . S
C3255 N3257 1.384 . S
N3256 C3252 1.427 . S
N3256 C3253 1.384 . S
N3257 C3249 1.427 . S
N3257 C3255 1.384 . S
H3258 C3264 0.930 . S
H3259 C3268 0.930 . S
H3260 C3273 0.929 . S
H3261 C3271 0.929 . S
H3262 C3266 0.929 . S
H3263 C3272 0.929 . S
C3264 H3258 0.930 . S
C3264 C3265 1.367 . S
C3264 C3272 1.378 . S
C3265 C3264 1.367 . S
C3265 C3273 1.433 . S
C3266 H3262 0.929 . S
C3266 C3268 1.378 . S
C3266 C3270 1.350 . S
C3267 C3270 1.463 . S
C3267 C3272 1.350 . S
C3267 N3275 1.427 . S
C3268 H3259 0.930 . S
C3268 C3266 1.378 . S
C3268 C3269 1.367 . S
C3269 C3268 1.367 . S
C3269 C3271 1.433 . S
C3270 C3266 1.350 . S
C3270 C3267 1.463 . S
C3270 N3274 1.427 . S
C3271 H3261 0.929 . S
C3271 C3269 1.433 . S
C3271 N3274 1.384 . S
C3272 H3263 0.929 . S
C3272 C3264 1.378 . S
C3272 C3267 1.350 . S
C3273 H3260 0.929 . S
C3273 C3265 1.433 . S
C3273 N3275 1.384 . S
N3274 C3270 1.427 . S
N3274 C3271 1.384 . S
N3275 C3267 1.427 . S
N3275 C3273 1.384 . S
H3276 C3282 0.930 . S
H3277 C3286 0.930 . S
H3278 C3291 0.929 . S
H3279 C3289 0.929 . S
H3280 C3284 0.929 . S
H3281 C3290 0.929 . S
C3282 H3276 0.930 . S
C3282 C3283 1.367 . S
C3282 C3290 1.378 . S
C3283 C3282 1.367 . S
C3283 C3291 1.433 . S
C3284 H3280 0.929 . S
C3284 C3286 1.378 . S
C3284 C3288 1.350 . S
C3285 C3288 1.463 . S
C3285 C3290 1.350 . S
C3285 N3293 1.427 . S
C3286 H3277 0.930 . S
C3286 C3284 1.378 . S
C3286 C3287 1.367 . S
C3287 C3286 1.367 . S
C3287 C3289 1.433 . S
C3288 C3284 1.350 . S
C3288 C3285 1.463 . S
C3288 N3292 1.427 . S
C3289 H3279 0.929 . S
C3289 C3287 1.433 . S
C3289 N3292 1.384 . S
C3290 H3281 0.929 . S
C3290 C3282 1.378 . S
C3290 C3285 1.350 . S
C3291 H3278 0.929 . S
C3291 C3283 1.433 . S
C3291 N3293 1.384 . S
N3292 C3288 1.427 . S
N3292 C3289 1.384 . S
N3293 C3285 1.427 . S
N3293 C3291 1.384 . S
H3294 C3300 0.930 . S
H3295 C3304 0.930 . S
H3296 C3309 0.929 . S
H3297 C3307 0.929 . S
H3298 C3302 0.929 . S
H3299 C3308 0.929 . S
C3300 H3294 0.930 . S
C3300 C3301 1.367 . S
C3300 C3308 1.378 . S
C3301 C3300 1.367 . S
C3301 C3309 1.433 . S
C3302 H3298 0.929 . S
C3302 C3304 1.378 . S
C3302 C3306 1.350 . S
C3303 C3306 1.463 . S
C3303 C3308 1.350 . S
C3303 N3311 1.427 . S
C3304 H3295 0.930 . S
C3304 C3302 1.378 . S
C3304 C3305 1.367 . S
C3305 C3304 1.367 . S
C3305 C3307 1.433 . S
C3306 C3302 1.350 . S
C3306 C3303 1.463 . S
C3306 N3310 1.427 . S
C3307 H3297 0.929 . S
C3307 C3305 1.433 . S
C3307 N3310 1.384 . S
C3308 H3299 0.929 . S
C3308 C3300 1.378 . S
C3308 C3303 1.350 . S
C3309 H3296 0.929 . S
C3309 C3301 1.433 . S
C3309 N3311 1.384 . S
N3310 C3306 1.427 . S
N3310 C3307 1.384 . S
N3311 C3303 1.427 . S
N3311 C3309 1.384 . S
H3312 C3318 0.930 . S
H3313 C3322 0.930 . S
H3314 C3327 0.929 . S
H3315 C3325 0.929 . S
H3316 C3320 0.929 . S
H3317 C3326 0.929 . S
C3318 H3312 0.930 . S
C3318 C3319 1.367 . S
C3318 C3326 1.378 . S
C3319 C3318 1.367 . S
C3319 C3327 1.433 . S
C3320 H3316 0.929 . S
C3320 C3322 1.378 . S
C3320 C3324 1.350 . S
C3321 C3324 1.463 . S
C3321 C3326 1.350 . S
C3321 N3329 1.427 . S
C3322 H3313 0.930 . S
C3322 C3320 1.378 . S
C3322 C3323 1.367 . S
C3323 C3322 1.367 . S
C3323 C3325 1.433 . S
C3324 C3320 1.350 . S
C3324 C3321 1.463 . S
C3324 N3328 1.427 . S
C3325 H3315 0.929 . S
C3325 C3323 1.433 . S
C3325 N3328 1.384 . S
C3326 H3317 0.929 . S
C3326 C3318 1.378 . S
C3326 C3321 1.350 . S
C3327 H3314 0.929 . S
C3327 C3319 1.433 . S
C3327 N3329 1.384 . S
N3328 C3324 1.427 . S
N3328 C3325 1.384 . S
N3329 C3321 1.427 . S
N3329 C3327 1.384 . S
H3330 C3336 0.930 . S
H3331 C3340 0.930 . S
H3332 C3345 0.929 . S
H3333 C3343 0.929 . S
H3334 C3338 0.929 . S
H3335 C3344 0.929 . S
C3336 H3330 0.930 . S
C3336 C3337 1.367 . S
C3336 C3344 1.378 . S
C3337 C3336 1.367 . S
C3337 C3345 1.433 . S
C3338 H3334 0.929 . S
C3338 C3340 1.378 . S
C3338 C3342 1.350 . S
C3339 C3342 1.463 . S
C3339 C3344 1.350 . S
C3339 N3347 1.427 . S
C3340 H3331 0.930 . S
C3340 C3338 1.378 . S
C3340 C3341 1.367 . S
C3341 C3340 1.367 . S
C3341 C3343 1.433 . S
C3342 C3338 1.350 . S
C3342 C3339 1.463 . S
C3342 N3346 1.427 . S
C3343 H3333 0.929 . S
C3343 C3341 1.433 . S
C3343 N3346 1.384 . S
C3344 H3335 0.929 . S
C3344 C3336 1.378 . S
C3344 C3339 1.350 . S
C3345 H3332 0.929 . S
C3345 C3337 1.433 . S
C3345 N3347 1.384 . S
N3346 C3342 1.427 . S
N3346 C3343 1.384 . S
N3347 C3339 1.427 . S
N3347 C3345 1.384 . S
H3348 C3354 0.930 . S
H3349 C3358 0.930 . S
H3350 C3363 0.929 . S
H3351 C3361 0.929 . S
H3352 C3356 0.929 . S
H3353 C3362 0.929 . S
C3354 H3348 0.930 . S
C3354 C3355 1.367 . S
C3354 C3362 1.378 . S
C3355 C3354 1.367 . S
C3355 C3363 1.433 . S
C3356 H3352 0.929 . S
C3356 C3358 1.378 . S
C3356 C3360 1.350 . S
C3357 C3360 1.463 . S
C3357 C3362 1.350 . S
C3357 N3365 1.427 . S
C3358 H3349 0.930 . S
C3358 C3356 1.378 . S
C3358 C3359 1.367 . S
C3359 C3358 1.367 . S
C3359 C3361 1.433 . S
C3360 C3356 1.350 . S
C3360 C3357 1.463 . S
C3360 N3364 1.427 . S
C3361 H3351 0.929 . S
C3361 C3359 1.433 . S
C3361 N3364 1.384 . S
C3362 H3353 0.929 . S
C3362 C3354 1.378 . S
C3362 C3357 1.350 . S
C3363 H3350 0.929 . S
C3363 C3355 1.433 . S
C3363 N3365 1.384 . S
N3364 C3360 1.427 . S
N3364 C3361 1.384 . S
N3365 C3357 1.427 . S
N3365 C3363 1.384 . S
H3366 C3372 0.930 . S
H3367 C3376 0.930 . S
H3368 C3381 0.929 . S
H3369 C3379 0.929 . S
H3370 C3374 0.929 . S
H3371 C3380 0.929 . S
C3372 H3366 0.930 . S
C3372 C3373 1.367 . S
C3372 C3380 1.378 . S
C3373 C3372 1.367 . S
C3373 C3381 1.433 . S
C3374 H3370 0.929 . S
C3374 C3376 1.378 . S
C3374 C3378 1.350 . S
C3375 C3378 1.463 . S
C3375 C3380 1.350 . S
C3375 N3383 1.427 . S
C3376 H3367 0.930 . S
C3376 C3374 1.378 . S
C3376 C3377 1.367 . S
C3377 C3376 1.367 . S
C3377 C3379 1.433 . S
C3378 C3374 1.350 . S
C3378 C3375 1.463 . S
C3378 N3382 1.427 . S
C3379 H3369 0.929 . S
C3379 C3377 1.433 . S
C3379 N3382 1.384 . S
C3380 H3371 0.929 . S
C3380 C3372 1.378 . S
C3380 C3375 1.350 . S
C3381 H3368 0.929 . S
C3381 C3373 1.433 . S
C3381 N3383 1.384 . S
N3382 C3378 1.427 . S
N3382 C3379 1.384 . S
N3383 C3375 1.427 . S
N3383 C3381 1.384 . S
H3384 C3390 0.930 . S
H3385 C3394 0.930 . S
H3386 C3399 0.929 . S
H3387 C3397 0.929 . S
H3388 C3392 0.929 . S
H3389 C3398 0.929 . S
C3390 H3384 0.930 . S
C3390 C3391 1.367 . S
C3390 C3398 1.378 . S
C3391 C3390 1.367 . S
C3391 C3399 1.433 . S
C3392 H3388 0.929 . S
C3392 C3394 1.378 . S
C3392 C3396 1.350 . S
C3393 C3396 1.463 . S
C3393 C3398 1.350 . S
C3393 N3401 1.427 . S
C3394 H3385 0.930 . S
C3394 C3392 1.378 . S
C3394 C3395 1.367 . S
C3395 C3394 1.367 . S
C3395 C3397 1.433 . S
C3396 C3392 1.350 . S
C3396 C3393 1.463 . S
C3396 N3400 1.427 . S
C3397 H3387 0.929 . S
C3397 C3395 1.433 . S
C3397 N3400 1.384 . S
C3398 H3389 0.929 . S
C3398 C3390 1.378 . S
C3398 C3393 1.350 . S
C3399 H3386 0.929 . S
C3399 C3391 1.433 . S
C3399 N3401 1.384 . S
N3400 C3396 1.427 . S
N3400 C3397 1.384 . S
N3401 C3393 1.427 . S
N3401 C3399 1.384 . S
H3402 C3408 0.930 . S
H3403 C3412 0.930 . S
H3404 C3417 0.929 . S
H3405 C3415 0.929 . S
H3406 C3410 0.929 . S
H3407 C3416 0.929 . S
C3408 H3402 0.930 . S
C3408 C3409 1.367 . S
C3408 C3416 1.378 . S
C3409 C3408 1.367 . S
C3409 C3417 1.433 . S
C3410 H3406 0.929 . S
C3410 C3412 1.378 . S
C3410 C3414 1.350 . S
C3411 C3414 1.463 . S
C3411 C3416 1.350 . S
C3411 N3419 1.427 . S
C3412 H3403 0.930 . S
C3412 C3410 1.378 . S
C3412 C3413 1.367 . S
C3413 C3412 1.367 . S
C3413 C3415 1.433 . S
C3414 C3410 1.350 . S
C3414 C3411 1.463 . S
C3414 N3418 1.427 . S
C3415 H3405 0.929 . S
C3415 C3413 1.433 . S
C3415 N3418 1.384 . S
C3416 H3407 0.929 . S
C3416 C3408 1.378 . S
C3416 C3411 1.350 . S
C3417 H3404 0.929 . S
C3417 C3409 1.433 . S
C3417 N3419 1.384 . S
N3418 C3414 1.427 . S
N3418 C3415 1.384 . S
N3419 C3411 1.427 . S
N3419 C3417 1.384 . S
H3420 C3426 0.930 . S
H3421 C3430 0.930 . S
H3422 C3435 0.929 . S
H3423 C3433 0.929 . S
H3424 C3428 0.929 . S
H3425 C3434 0.929 . S
C3426 H3420 0.930 . S
C3426 C3427 1.367 . S
C3426 C3434 1.378 . S
C3427 C3426 1.367 . S
C3427 C3435 1.433 . S
C3428 H3424 0.929 . S
C3428 C3430 1.378 . S
C3428 C3432 1.350 . S
C3429 C3432 1.463 . S
C3429 C3434 1.350 . S
C3429 N3437 1.427 . S
C3430 H3421 0.930 . S
C3430 C3428 1.378 . S
C3430 C3431 1.367 . S
C3431 C3430 1.367 . S
C3431 C3433 1.433 . S
C3432 C3428 1.350 . S
C3432 C3429 1.463 . S
C3432 N3436 1.427 . S
C3433 H3423 0.929 . S
C3433 C3431 1.433 . S
C3433 N3436 1.384 . S
C3434 H3425 0.929 . S
C3434 C3426 1.378 . S
C3434 C3429 1.350 . S
C3435 H3422 0.929 . S
C3435 C3427 1.433 . S
C3435 N3437 1.384 . S
N3436 C3432 1.427 . S
N3436 C3433 1.384 . S
N3437 C3429 1.427 . S
N3437 C3435 1.384 . S
H3438 C3444 0.930 . S
H3439 C3448 0.930 . S
H3440 C3453 0.929 . S
H3441 C3451 0.929 . S
H3442 C3446 0.929 . S
H3443 C3452 0.929 . S
C3444 H3438 0.930 . S
C3444 C3445 1.367 . S
C3444 C3452 1.378 . S
C3445 C3444 1.367 . S
C3445 C3453 1.433 . S
C3446 H3442 0.929 . S
C3446 C3448 1.378 . S
C3446 C3450 1.350 . S
C3447 C3450 1.463 . S
C3447 C3452 1.350 . S
C3447 N3455 1.427 . S
C3448 H3439 0.930 . S
C3448 C3446 1.378 . S
C3448 C3449 1.367 . S
C3449 C3448 1.367 . S
C3449 C3451 1.433 . S
C3450 C3446 1.350 . S
C3450 C3447 1.463 . S
C3450 N3454 1.427 . S
C3451 H3441 0.929 . S
C3451 C3449 1.433 . S
C3451 N3454 1.384 . S
C3452 H3443 0.929 . S
C3452 C3444 1.378 . S
C3452 C3447 1.350 . S
C3453 H3440 0.929 . S
C3453 C3445 1.433 . S
C3453 N3455 1.384 . S
N3454 C3450 1.427 . S
N3454 C3451 1.384 . S
N3455 C3447 1.427 . S
N3455 C3453 1.384 . S
H3456 C3462 0.930 . S
H3457 C3466 0.930 . S
H3458 C3471 0.929 . S
H3459 C3469 0.929 . S
H3460 C3464 0.929 . S
H3461 C3470 0.929 . S
C3462 H3456 0.930 . S
C3462 C3463 1.367 . S
C3462 C3470 1.378 . S
C3463 C3462 1.367 . S
C3463 C3471 1.433 . S
C3464 H3460 0.929 . S
C3464 C3466 1.378 . S
C3464 C3468 1.350 . S
C3465 C3468 1.463 . S
C3465 C3470 1.350 . S
C3465 N3473 1.427 . S
C3466 H3457 0.930 . S
C3466 C3464 1.378 . S
C3466 C3467 1.367 . S
C3467 C3466 1.367 . S
C3467 C3469 1.433 . S
C3468 C3464 1.350 . S
C3468 C3465 1.463 . S
C3468 N3472 1.427 . S
C3469 H3459 0.929 . S
C3469 C3467 1.433 . S
C3469 N3472 1.384 . S
C3470 H3461 0.929 . S
C3470 C3462 1.378 . S
C3470 C3465 1.350 . S
C3471 H3458 0.929 . S
C3471 C3463 1.433 . S
C3471 N3473 1.384 . S
N3472 C3468 1.427 . S
N3472 C3469 1.384 . S
N3473 C3465 1.427 . S
N3473 C3471 1.384 . S
H3474 C3480 0.930 . S
H3475 C3484 0.930 . S
H3476 C3489 0.929 . S
H3477 C3487 0.929 . S
H3478 C3482 0.929 . S
H3479 C3488 0.929 . S
C3480 H3474 0.930 . S
C3480 C3481 1.367 . S
C3480 C3488 1.378 . S
C3481 C3480 1.367 . S
C3481 C3489 1.433 . S
C3482 H3478 0.929 . S
C3482 C3484 1.378 . S
C3482 C3486 1.350 . S
C3483 C3486 1.463 . S
C3483 C3488 1.350 . S
C3483 N3491 1.427 . S
C3484 H3475 0.930 . S
C3484 C3482 1.378 . S
C3484 C3485 1.367 . S
C3485 C3484 1.367 . S
C3485 C3487 1.433 . S
C3486 C3482 1.350 . S
C3486 C3483 1.463 . S
C3486 N3490 1.427 . S
C3487 H3477 0.929 . S
C3487 C3485 1.433 . S
C3487 N3490 1.384 . S
C3488 H3479 0.929 . S
C3488 C3480 1.378 . S
C3488 C3483 1.350 . S
C3489 H3476 0.929 . S
C3489 C3481 1.433 . S
C3489 N3491 1.384 . S
N3490 C3486 1.427 . S
N3490 C3487 1.384 . S
N3491 C3483 1.427 . S
N3491 C3489 1.384 . S
H3492 C3498 0.928 1_655 S
H3493 C3502 0.930 1_455 S
H3494 C3507 0.929 . S
H3495 C3505 0.929 . S
H3496 C3500 0.929 . S
H3497 C3506 0.929 . S
C3498 H3492 0.928 1_455 S
C3498 C3499 1.408 . S
C3498 C3506 1.341 1_455 S
C3499 C3498 1.408 . S
C3499 C3507 1.433 . S
C3500 H3496 0.929 . S
C3500 C3502 1.378 1_455 S
C3500 C3504 1.350 1_455 S
C3501 C3504 1.463 1_455 S
C3501 C3506 1.350 1_455 S
C3501 N3509 1.427 . S
C3502 H3493 0.930 1_655 S
C3502 C3500 1.378 1_655 S
C3502 C3503 1.367 . S
C3503 C3502 1.367 . S
C3503 C3505 1.433 . S
C3504 C3500 1.350 1_655 S
C3504 C3501 1.463 1_655 S
C3504 N3508 1.427 . S
C3505 H3495 0.929 . S
C3505 C3503 1.433 . S
C3505 N3508 1.384 . S
C3506 H3497 0.929 . S
C3506 C3498 1.341 1_655 S
C3506 C3501 1.350 1_655 S
C3507 H3494 0.929 . S
C3507 C3499 1.433 . S
C3507 N3509 1.384 . S
N3508 C3504 1.427 . S
N3508 C3505 1.384 . S
N3509 C3501 1.427 . S
N3509 C3507 1.384 . S
H3510 C3516 0.930 . S
H3511 C3520 0.930 . S
H3512 C3525 0.929 . S
H3513 C3523 0.929 . S
H3514 C3518 0.929 . S
H3515 C3524 0.929 . S
C3516 H3510 0.930 . S
C3516 C3517 1.367 . S
C3516 C3524 1.378 . S
C3517 C3516 1.367 . S
C3517 C3525 1.433 . S
C3518 H3514 0.929 . S
C3518 C3520 1.378 . S
C3518 C3522 1.350 . S
C3519 C3522 1.463 . S
C3519 C3524 1.350 . S
C3519 N3527 1.427 . S
C3520 H3511 0.930 . S
C3520 C3518 1.378 . S
C3520 C3521 1.367 . S
C3521 C3520 1.367 . S
C3521 C3523 1.433 . S
C3522 C3518 1.350 . S
C3522 C3519 1.463 . S
C3522 N3526 1.427 . S
C3523 H3513 0.929 . S
C3523 C3521 1.433 . S
C3523 N3526 1.384 . S
C3524 H3515 0.929 . S
C3524 C3516 1.378 . S
C3524 C3519 1.350 . S
C3525 H3512 0.929 . S
C3525 C3517 1.433 . S
C3525 N3527 1.384 . S
N3526 C3522 1.427 . S
N3526 C3523 1.384 . S
N3527 C3519 1.427 . S
N3527 C3525 1.384 . S
H3528 C3534 0.930 . S
H3529 C3538 0.930 . S
H3530 C3543 0.929 . S
H3531 C3541 0.929 . S
H3532 C3536 0.929 . S
H3533 C3542 0.929 . S
C3534 H3528 0.930 . S
C3534 C3535 1.367 . S
C3534 C3542 1.378 . S
C3535 C3534 1.367 . S
C3535 C3543 1.433 . S
C3536 H3532 0.929 . S
C3536 C3538 1.378 . S
C3536 C3540 1.350 . S
C3537 C3540 1.463 . S
C3537 C3542 1.350 . S
C3537 N3545 1.427 . S
C3538 H3529 0.930 . S
C3538 C3536 1.378 . S
C3538 C3539 1.367 . S
C3539 C3538 1.367 . S
C3539 C3541 1.433 . S
C3540 C3536 1.350 . S
C3540 C3537 1.463 . S
C3540 N3544 1.427 . S
C3541 H3531 0.929 . S
C3541 C3539 1.433 . S
C3541 N3544 1.384 . S
C3542 H3533 0.929 . S
C3542 C3534 1.378 . S
C3542 C3537 1.350 . S
C3543 H3530 0.929 . S
C3543 C3535 1.433 . S
C3543 N3545 1.384 . S
N3544 C3540 1.427 . S
N3544 C3541 1.384 . S
N3545 C3537 1.427 . S
N3545 C3543 1.384 . S
H3546 C3552 0.930 . S
H3547 C3556 0.930 . S
H3548 C3561 0.929 . S
H3549 C3559 0.929 . S
H3550 C3554 0.922 . S
H3551 C3560 0.929 . S
C3552 H3546 0.930 . S
C3552 C3553 1.367 . S
C3552 C3560 1.378 1_545 S
C3553 C3552 1.367 . S
C3553 C3561 1.433 . S
C3554 H3550 0.922 . S
C3554 C3556 1.383 1_545 S
C3554 C3558 1.351 1_545 S
C3555 C3558 1.463 1_545 S
C3555 C3560 1.350 1_545 S
C3555 N3563 1.427 . S
C3556 H3547 0.930 . S
C3556 C3554 1.383 1_565 S
C3556 C3557 1.367 . S
C3557 C3556 1.367 . S
C3557 C3559 1.433 . S
C3558 C3554 1.351 1_565 S
C3558 C3555 1.463 1_565 S
C3558 N3562 1.427 . S
C3559 H3549 0.929 . S
C3559 C3557 1.433 . S
C3559 N3562 1.384 . S
C3560 H3551 0.929 . S
C3560 C3552 1.378 1_565 S
C3560 C3555 1.350 1_565 S
C3561 H3548 0.929 . S
C3561 C3553 1.433 . S
C3561 N3563 1.384 . S
N3562 C3558 1.427 . S
N3562 C3559 1.384 . S
N3563 C3555 1.427 . S
N3563 C3561 1.384 . S
H3564 C3570 0.930 . S
H3565 C3574 0.930 . S
H3566 C3579 0.929 . S
H3567 C3577 0.929 . S
H3568 C3572 0.929 . S
H3569 C3578 0.929 . S
C3570 H3564 0.930 . S
C3570 C3571 1.367 . S
C3570 C3578 1.378 . S
C3571 C3570 1.367 . S
C3571 C3579 1.433 . S
C3572 H3568 0.929 . S
C3572 C3574 1.378 . S
C3572 C3576 1.350 . S
C3573 C3576 1.463 . S
C3573 C3578 1.350 . S
C3573 N3581 1.427 . S
C3574 H3565 0.930 . S
C3574 C3572 1.378 . S
C3574 C3575 1.367 . S
C3575 C3574 1.367 . S
C3575 C3577 1.433 . S
C3576 C3572 1.350 . S
C3576 C3573 1.463 . S
C3576 N3580 1.427 . S
C3577 H3567 0.929 . S
C3577 C3575 1.433 . S
C3577 N3580 1.384 . S
C3578 H3569 0.929 . S
C3578 C3570 1.378 . S
C3578 C3573 1.350 . S
C3579 H3566 0.929 . S
C3579 C3571 1.433 . S
C3579 N3581 1.384 . S
N3580 C3576 1.427 . S
N3580 C3577 1.384 . S
N3581 C3573 1.427 . S
N3581 C3579 1.384 . S
H3582 C3588 0.930 . S
H3583 C3592 0.930 . S
H3584 C3597 0.929 . S
H3585 C3595 0.929 . S
H3586 C3590 0.929 . S
H3587 C3596 0.929 . S
C3588 H3582 0.930 . S
C3588 C3589 1.367 . S
C3588 C3596 1.378 . S
C3589 C3588 1.367 . S
C3589 C3597 1.433 . S
C3590 H3586 0.929 . S
C3590 C3592 1.378 . S
C3590 C3594 1.350 . S
C3591 C3594 1.463 . S
C3591 C3596 1.350 . S
C3591 N3599 1.427 . S
C3592 H3583 0.930 . S
C3592 C3590 1.378 . S
C3592 C3593 1.367 . S
C3593 C3592 1.367 . S
C3593 C3595 1.433 . S
C3594 C3590 1.350 . S
C3594 C3591 1.463 . S
C3594 N3598 1.427 . S
C3595 H3585 0.929 . S
C3595 C3593 1.433 . S
C3595 N3598 1.384 . S
C3596 H3587 0.929 . S
C3596 C3588 1.378 . S
C3596 C3591 1.350 . S
C3597 H3584 0.929 . S
C3597 C3589 1.433 . S
C3597 N3599 1.384 . S
N3598 C3594 1.427 . S
N3598 C3595 1.384 . S
N3599 C3591 1.427 . S
N3599 C3597 1.384 . S
H3600 C3606 0.930 . S
H3601 C3610 0.930 . S
H3602 C3615 0.929 . S
H3603 C3613 0.929 . S
H3604 C3608 0.929 . S
H3605 C3614 0.929 . S
C3606 H3600 0.930 . S
C3606 C3607 1.367 . S
C3606 C3614 1.378 . S
C3607 C3606 1.367 . S
C3607 C3615 1.433 . S
C3608 H3604 0.929 . S
C3608 C3610 1.378 . S
C3608 C3612 1.350 . S
C3609 C3612 1.463 . S
C3609 C3614 1.350 . S
C3609 N3617 1.427 . S
C3610 H3601 0.930 . S
C3610 C3608 1.378 . S
C3610 C3611 1.367 . S
C3611 C3610 1.367 . S
C3611 C3613 1.433 . S
C3612 C3608 1.350 . S
C3612 C3609 1.463 . S
C3612 N3616 1.427 . S
C3613 H3603 0.929 . S
C3613 C3611 1.433 . S
C3613 N3616 1.384 . S
C3614 H3605 0.929 . S
C3614 C3606 1.378 . S
C3614 C3609 1.350 . S
C3615 H3602 0.929 . S
C3615 C3607 1.433 . S
C3615 N3617 1.384 . S
N3616 C3612 1.427 . S
N3616 C3613 1.384 . S
N3617 C3609 1.427 . S
N3617 C3615 1.384 . S
H3618 C3624 0.930 . S
H3619 C3628 0.930 . S
H3620 C3633 0.929 . S
H3621 C3631 0.929 . S
H3622 C3626 0.929 . S
H3623 C3632 0.929 . S
C3624 H3618 0.930 . S
C3624 C3625 1.367 . S
C3624 C3632 1.378 . S
C3625 C3624 1.367 . S
C3625 C3633 1.433 . S
C3626 H3622 0.929 . S
C3626 C3628 1.378 . S
C3626 C3630 1.350 . S
C3627 C3630 1.463 . S
C3627 C3632 1.350 . S
C3627 N3635 1.427 . S
C3628 H3619 0.930 . S
C3628 C3626 1.378 . S
C3628 C3629 1.367 . S
C3629 C3628 1.367 . S
C3629 C3631 1.433 . S
C3630 C3626 1.350 . S
C3630 C3627 1.463 . S
C3630 N3634 1.427 . S
C3631 H3621 0.929 . S
C3631 C3629 1.433 . S
C3631 N3634 1.384 . S
C3632 H3623 0.929 . S
C3632 C3624 1.378 . S
C3632 C3627 1.350 . S
C3633 H3620 0.929 . S
C3633 C3625 1.433 . S
C3633 N3635 1.384 . S
N3634 C3630 1.427 . S
N3634 C3631 1.384 . S
N3635 C3627 1.427 . S
N3635 C3633 1.384 . S
H3636 C3642 0.930 . S
H3637 C3646 0.930 . S
H3638 C3651 0.870 1_565 S
H3639 C3649 0.861 1_545 S
H3640 C3644 0.929 . S
H3641 C3650 0.929 . S
C3642 H3636 0.930 . S
C3642 C3643 1.367 . S
C3642 C3650 1.378 . S
C3643 C3642 1.367 . S
C3643 C3651 1.495 . S
C3644 H3640 0.929 . S
C3644 C3646 1.378 . S
C3644 C3648 1.350 . S
C3645 C3648 1.463 1_545 S
C3645 C3650 1.350 . S
C3645 N3653 1.427 1_545 S
C3646 H3637 0.930 . S
C3646 C3644 1.378 . S
C3646 C3647 1.367 . S
C3647 C3646 1.367 . S
C3647 C3649 1.505 . S
C3648 C3644 1.350 . S
C3648 C3645 1.463 1_565 S
C3648 N3652 1.427 1_565 S
C3649 H3639 0.861 1_565 S
C3649 C3647 1.505 . S
C3649 N3652 1.387 1_565 S
C3650 H3641 0.929 . S
C3650 C3642 1.378 . S
C3650 C3645 1.350 . S
C3651 H3638 0.870 1_545 S
C3651 C3643 1.495 . S
C3651 N3653 1.386 1_545 S
N3652 C3648 1.427 1_545 S
N3652 C3649 1.387 1_545 S
N3653 C3645 1.427 1_565 S
N3653 C3651 1.386 1_565 S
H3654 C3660 0.930 . S
H3655 C3664 0.930 . S
H3656 C3669 0.929 . S
H3657 C3667 0.929 . S
H3658 C3662 0.929 . S
H3659 C3668 0.929 . S
C3660 H3654 0.930 . S
C3660 C3661 1.367 . S
C3660 C3668 1.378 . S
C3661 C3660 1.367 . S
C3661 C3669 1.433 . S
C3662 H3658 0.929 . S
C3662 C3664 1.378 . S
C3662 C3666 1.350 . S
C3663 C3666 1.463 . S
C3663 C3668 1.350 . S
C3663 N3671 1.427 . S
C3664 H3655 0.930 . S
C3664 C3662 1.378 . S
C3664 C3665 1.367 . S
C3665 C3664 1.367 . S
C3665 C3667 1.433 . S
C3666 C3662 1.350 . S
C3666 C3663 1.463 . S
C3666 N3670 1.427 . S
C3667 H3657 0.929 . S
C3667 C3665 1.433 . S
C3667 N3670 1.384 . S
C3668 H3659 0.929 . S
C3668 C3660 1.378 . S
C3668 C3663 1.350 . S
C3669 H3656 0.929 . S
C3669 C3661 1.433 . S
C3669 N3671 1.384 . S
N3670 C3666 1.427 . S
N3670 C3667 1.384 . S
N3671 C3663 1.427 . S
N3671 C3669 1.384 . S
H3672 C3678 0.881 1_655 S
H3673 C3682 0.874 1_455 S
H3674 C3687 0.929 . S
H3675 C3685 0.929 . S
H3676 C3680 0.929 . S
H3677 C3686 0.929 . S
C3678 H3672 0.881 1_455 S
C3678 C3679 1.417 . S
C3678 C3686 1.379 1_455 S
C3679 C3678 1.417 . S
C3679 C3687 1.433 . S
C3680 H3676 0.929 . S
C3680 C3682 1.380 1_455 S
C3680 C3684 1.350 1_455 S
C3681 C3684 1.463 1_455 S
C3681 C3686 1.350 1_455 S
C3681 N3689 1.427 . S
C3682 H3673 0.874 1_655 S
C3682 C3680 1.380 1_655 S
C3682 C3683 1.426 . S
C3683 C3682 1.426 . S
C3683 C3685 1.433 . S
C3684 C3680 1.350 1_655 S
C3684 C3681 1.463 1_655 S
C3684 N3688 1.427 . S
C3685 H3675 0.929 . S
C3685 C3683 1.433 . S
C3685 N3688 1.384 . S
C3686 H3677 0.929 . S
C3686 C3678 1.379 1_655 S
C3686 C3681 1.350 1_655 S
C3687 H3674 0.929 . S
C3687 C3679 1.433 . S
C3687 N3689 1.384 . S
N3688 C3684 1.427 . S
N3688 C3685 1.384 . S
N3689 C3681 1.427 . S
N3689 C3687 1.384 . S
H3690 C3696 0.930 . S
H3691 C3700 0.930 . S
H3692 C3705 0.929 . S
H3693 C3703 0.929 . S
H3694 C3698 0.929 . S
H3695 C3704 0.929 . S
C3696 H3690 0.930 . S
C3696 C3697 1.367 . S
C3696 C3704 1.378 . S
C3697 C3696 1.367 . S
C3697 C3705 1.433 . S
C3698 H3694 0.929 . S
C3698 C3700 1.378 . S
C3698 C3702 1.350 . S
C3699 C3702 1.463 . S
C3699 C3704 1.350 . S
C3699 N3707 1.427 . S
C3700 H3691 0.930 . S
C3700 C3698 1.378 . S
C3700 C3701 1.367 . S
C3701 C3700 1.367 . S
C3701 C3703 1.433 . S
C3702 C3698 1.350 . S
C3702 C3699 1.463 . S
C3702 N3706 1.427 . S
C3703 H3693 0.929 . S
C3703 C3701 1.433 . S
C3703 N3706 1.384 . S
C3704 H3695 0.929 . S
C3704 C3696 1.378 . S
C3704 C3699 1.350 . S
C3705 H3692 0.929 . S
C3705 C3697 1.433 . S
C3705 N3707 1.384 . S
N3706 C3702 1.427 . S
N3706 C3703 1.384 . S
N3707 C3699 1.427 . S
N3707 C3705 1.384 . S
H3708 C3714 0.930 . S
H3709 C3718 0.930 . S
H3710 C3723 0.929 . S
H3711 C3721 0.929 . S
H3712 C3716 0.929 . S
H3713 C3722 0.929 . S
C3714 H3708 0.930 . S
C3714 C3715 1.367 . S
C3714 C3722 1.378 . S
C3715 C3714 1.367 . S
C3715 C3723 1.433 . S
C3716 H3712 0.929 . S
C3716 C3718 1.378 . S
C3716 C3720 1.350 . S
C3717 C3720 1.463 . S
C3717 C3722 1.350 . S
C3717 N3725 1.427 . S
C3718 H3709 0.930 . S
C3718 C3716 1.378 . S
C3718 C3719 1.367 . S
C3719 C3718 1.367 . S
C3719 C3721 1.433 . S
C3720 C3716 1.350 . S
C3720 C3717 1.463 . S
C3720 N3724 1.427 . S
C3721 H3711 0.929 . S
C3721 C3719 1.433 . S
C3721 N3724 1.384 . S
C3722 H3713 0.929 . S
C3722 C3714 1.378 . S
C3722 C3717 1.350 . S
C3723 H3710 0.929 . S
C3723 C3715 1.433 . S
C3723 N3725 1.384 . S
N3724 C3720 1.427 . S
N3724 C3721 1.384 . S
N3725 C3717 1.427 . S
N3725 C3723 1.384 . S
H3726 C3732 0.930 . S
H3727 C3736 0.930 . S
H3728 C3741 0.929 . S
H3729 C3739 0.921 . S
H3730 C3734 0.929 . S
H3731 C3740 0.929 . S
C3732 H3726 0.930 . S
C3732 C3733 1.367 . S
C3732 C3740 1.378 . S
C3733 C3732 1.367 . S
C3733 C3741 1.433 . S
C3734 H3730 0.929 . S
C3734 C3736 1.378 1_545 S
C3734 C3738 1.350 . S
C3735 C3738 1.463 . S
C3735 C3740 1.350 . S
C3735 N3743 1.427 . S
C3736 H3727 0.930 . S
C3736 C3734 1.378 1_565 S
C3736 C3737 1.367 . S
C3737 C3736 1.367 . S
C3737 C3739 1.433 1_565 S
C3738 C3734 1.350 . S
C3738 C3735 1.463 . S
C3738 N3742 1.427 . S
C3739 H3729 0.921 . S
C3739 C3737 1.433 1_545 S
C3739 N3742 1.384 . S
C3740 H3731 0.929 . S
C3740 C3732 1.378 . S
C3740 C3735 1.350 . S
C3741 H3728 0.929 . S
C3741 C3733 1.433 . S
C3741 N3743 1.384 . S
N3742 C3738 1.427 . S
N3742 C3739 1.384 . S
N3743 C3735 1.427 . S
N3743 C3741 1.384 . S
H3744 C3750 0.930 . S
H3745 C3754 0.930 . S
H3746 C3759 0.929 . S
H3747 C3757 0.929 . S
H3748 C3752 0.929 . S
H3749 C3758 0.929 . S
C3750 H3744 0.930 . S
C3750 C3751 1.367 . S
C3750 C3758 1.378 1_655 S
C3751 C3750 1.367 . S
C3751 C3759 1.433 . S
C3752 H3748 0.929 . S
C3752 C3754 1.378 . S
C3752 C3756 1.350 . S
C3753 C3756 1.463 . S
C3753 C3758 1.350 . S
C3753 N3761 1.427 . S
C3754 H3745 0.930 . S
C3754 C3752 1.378 . S
C3754 C3755 1.367 . S
C3755 C3754 1.367 . S
C3755 C3757 1.433 . S
C3756 C3752 1.350 . S
C3756 C3753 1.463 . S
C3756 N3760 1.427 . S
C3757 H3747 0.929 . S
C3757 C3755 1.433 . S
C3757 N3760 1.384 . S
C3758 H3749 0.929 . S
C3758 C3750 1.378 1_455 S
C3758 C3753 1.350 . S
C3759 H3746 0.929 . S
C3759 C3751 1.433 . S
C3759 N3761 1.384 1_655 S
N3760 C3756 1.427 . S
N3760 C3757 1.384 . S
N3761 C3753 1.427 . S
N3761 C3759 1.384 1_455 S
H3762 C3768 0.930 . S
H3763 C3772 0.930 . S
H3764 C3777 0.929 . S
H3765 C3775 0.929 . S
H3766 C3770 0.929 . S
H3767 C3776 0.929 . S
C3768 H3762 0.930 . S
C3768 C3769 1.367 . S
C3768 C3776 1.378 . S
C3769 C3768 1.367 . S
C3769 C3777 1.433 . S
C3770 H3766 0.929 . S
C3770 C3772 1.378 . S
C3770 C3774 1.350 . S
C3771 C3774 1.463 . S
C3771 C3776 1.350 . S
C3771 N3779 1.427 . S
C3772 H3763 0.930 . S
C3772 C3770 1.378 . S
C3772 C3773 1.367 . S
C3773 C3772 1.367 . S
C3773 C3775 1.433 . S
C3774 C3770 1.350 . S
C3774 C3771 1.463 . S
C3774 N3778 1.427 . S
C3775 H3765 0.929 . S
C3775 C3773 1.433 . S
C3775 N3778 1.384 . S
C3776 H3767 0.929 . S
C3776 C3768 1.378 . S
C3776 C3771 1.350 . S
C3777 H3764 0.929 . S
C3777 C3769 1.433 . S
C3777 N3779 1.384 . S
N3778 C3774 1.427 . S
N3778 C3775 1.384 . S
N3779 C3771 1.427 . S
N3779 C3777 1.384 . S
H3780 C3786 0.930 . S
H3781 C3790 0.930 . S
H3782 C3795 0.914 1_565 S
H3783 C3793 0.929 . S
H3784 C3788 0.929 . S
H3785 C3794 0.929 . S
C3786 H3780 0.930 . S
C3786 C3787 1.367 . S
C3786 C3794 1.378 1_565 S
C3787 C3786 1.367 . S
C3787 C3795 1.432 1_565 S
C3788 H3784 0.929 . S
C3788 C3790 1.378 . S
C3788 C3792 1.350 . S
C3789 C3792 1.463 . S
C3789 C3794 1.350 . S
C3789 N3797 1.427 . S
C3790 H3781 0.930 . S
C3790 C3788 1.378 . S
C3790 C3791 1.367 . S
C3791 C3790 1.367 . S
C3791 C3793 1.433 . S
C3792 C3788 1.350 . S
C3792 C3789 1.463 . S
C3792 N3796 1.427 . S
C3793 H3783 0.929 . S
C3793 C3791 1.433 . S
C3793 N3796 1.384 . S
C3794 H3785 0.929 . S
C3794 C3786 1.378 1_545 S
C3794 C3789 1.350 . S
C3795 H3782 0.914 1_545 S
C3795 C3787 1.432 1_545 S
C3795 N3797 1.402 . S
N3796 C3792 1.427 . S
N3796 C3793 1.384 . S
N3797 C3789 1.427 . S
N3797 C3795 1.402 . S
H3798 C3804 0.931 1_655 S
H3799 C3808 0.930 . S
H3800 C3813 0.929 . S
H3801 C3811 0.929 . S
H3802 C3806 0.929 . S
H3803 C3812 0.929 . S
C3804 H3798 0.931 1_455 S
C3804 C3805 1.367 1_455 S
C3804 C3812 1.378 . S
C3805 C3804 1.367 1_655 S
C3805 C3813 1.433 . S
C3806 H3802 0.929 . S
C3806 C3808 1.378 . S
C3806 C3810 1.350 . S
C3807 C3810 1.463 . S
C3807 C3812 1.350 . S
C3807 N3815 1.427 . S
C3808 H3799 0.930 . S
C3808 C3806 1.378 . S
C3808 C3809 1.367 . S
C3809 C3808 1.367 . S
C3809 C3811 1.433 . S
C3810 C3806 1.350 . S
C3810 C3807 1.463 . S
C3810 N3814 1.427 . S
C3811 H3801 0.929 . S
C3811 C3809 1.433 . S
C3811 N3814 1.384 . S
C3812 H3803 0.929 . S
C3812 C3804 1.378 . S
C3812 C3807 1.350 . S
C3813 H3800 0.929 . S
C3813 C3805 1.433 . S
C3813 N3815 1.384 1_655 S
N3814 C3810 1.427 . S
N3814 C3811 1.384 . S
N3815 C3807 1.427 . S
N3815 C3813 1.384 1_455 S
H3816 C3822 0.930 . S
H3817 C3826 0.930 . S
H3818 C3831 0.929 . S
H3819 C3829 0.934 . S
H3820 C3824 0.929 . S
H3821 C3830 0.929 . S
C3822 H3816 0.930 . S
C3822 C3823 1.367 . S
C3822 C3830 1.378 . S
C3823 C3822 1.367 . S
C3823 C3831 1.433 . S
C3824 H3820 0.929 . S
C3824 C3826 1.378 . S
C3824 C3828 1.350 . S
C3825 C3828 1.463 1_554 S
C3825 C3830 1.350 . S
C3825 N3833 1.427 . S
C3826 H3817 0.930 . S
C3826 C3824 1.378 . S
C3826 C3827 1.367 . S
C3827 C3826 1.367 . S
C3827 C3829 1.433 . S
C3828 C3824 1.350 . S
C3828 C3825 1.463 1_556 S
C3828 N3832 1.427 . S
C3829 H3819 0.934 . S
C3829 C3827 1.433 . S
C3829 N3832 1.384 . S
C3830 H3821 0.929 . S
C3830 C3822 1.378 . S
C3830 C3825 1.350 . S
C3831 H3818 0.929 . S
C3831 C3823 1.433 . S
C3831 N3833 1.384 . S
N3832 C3828 1.427 . S
N3832 C3829 1.384 . S
N3833 C3825 1.427 . S
N3833 C3831 1.384 . S
H3834 C3840 0.930 . S
H3835 C3844 0.930 . S
H3836 C3849 0.929 . S
H3837 C3847 0.929 . S
H3838 C3842 0.929 . S
H3839 C3848 0.929 . S
C3840 H3834 0.930 . S
C3840 C3841 1.367 . S
C3840 C3848 1.378 . S
C3841 C3840 1.367 . S
C3841 C3849 1.433 . S
C3842 H3838 0.929 . S
C3842 C3844 1.378 . S
C3842 C3846 1.350 . S
C3843 C3846 1.463 1_556 S
C3843 C3848 1.350 . S
C3843 N3851 1.427 . S
C3844 H3835 0.930 . S
C3844 C3842 1.378 . S
C3844 C3845 1.367 . S
C3845 C3844 1.367 . S
C3845 C3847 1.433 . S
C3846 C3842 1.350 . S
C3846 C3843 1.463 1_554 S
C3846 N3850 1.427 . S
C3847 H3837 0.929 . S
C3847 C3845 1.433 . S
C3847 N3850 1.384 . S
C3848 H3839 0.929 . S
C3848 C3840 1.378 . S
C3848 C3843 1.350 . S
C3849 H3836 0.929 . S
C3849 C3841 1.433 . S
C3849 N3851 1.384 . S
N3850 C3846 1.427 . S
N3850 C3847 1.384 . S
N3851 C3843 1.427 . S
N3851 C3849 1.384 . S
H3852 C3858 0.930 . S
H3853 C3862 0.930 . S
H3854 C3867 0.929 . S
H3855 C3865 0.929 1_565 S
H3856 C3860 0.929 . S
H3857 C3866 0.929 . S
C3858 H3852 0.930 . S
C3858 C3859 1.367 . S
C3858 C3866 1.378 . S
C3859 C3858 1.367 . S
C3859 C3867 1.433 . S
C3860 H3856 0.929 . S
C3860 C3862 1.378 . S
C3860 C3864 1.350 . S
C3861 C3864 1.463 1_556 S
C3861 C3866 1.350 . S
C3861 N3869 1.427 . S
C3862 H3853 0.930 . S
C3862 C3860 1.378 . S
C3862 C3863 1.367 . S
C3863 C3862 1.367 . S
C3863 C3865 1.433 . S
C3864 C3860 1.350 . S
C3864 C3861 1.463 1_554 S
C3864 N3868 1.427 . S
C3865 H3855 0.929 1_545 S
C3865 C3863 1.433 . S
C3865 N3868 1.384 . S
C3866 H3857 0.929 . S
C3866 C3858 1.378 . S
C3866 C3861 1.350 . S
C3867 H3854 0.929 . S
C3867 C3859 1.433 . S
C3867 N3869 1.384 . S
N3868 C3864 1.427 . S
N3868 C3865 1.384 . S
N3869 C3861 1.427 . S
N3869 C3867 1.384 . S
H3870 C3876 0.930 . S
H3871 C3880 0.930 . S
H3872 C3885 0.929 . S
H3873 C3883 0.929 . S
H3874 C3878 0.929 . S
H3875 C3884 0.929 . S
C3876 H3870 0.930 . S
C3876 C3877 1.367 . S
C3876 C3884 1.378 . S
C3877 C3876 1.367 . S
C3877 C3885 1.433 . S
C3878 H3874 0.929 . S
C3878 C3880 1.378 . S
C3878 C3882 1.350 . S
C3879 C3882 1.463 1_556 S
C3879 C3884 1.350 . S
C3879 N3887 1.427 . S
C3880 H3871 0.930 . S
C3880 C3878 1.378 . S
C3880 C3881 1.367 . S
C3881 C3880 1.367 . S
C3881 C3883 1.433 . S
C3882 C3878 1.350 . S
C3882 C3879 1.463 1_554 S
C3882 N3886 1.427 . S
C3883 H3873 0.929 . S
C3883 C3881 1.433 . S
C3883 N3886 1.384 . S
C3884 H3875 0.929 . S
C3884 C3876 1.378 . S
C3884 C3879 1.350 . S
C3885 H3872 0.929 . S
C3885 C3877 1.433 . S
C3885 N3887 1.384 . S
N3886 C3882 1.427 . S
N3886 C3883 1.384 . S
N3887 C3879 1.427 . S
N3887 C3885 1.384 . S
H3888 C3894 0.930 . S
H3889 C3898 0.930 . S
H3890 C3903 0.929 . S
H3891 C3901 0.929 . S
H3892 C3896 0.929 . S
H3893 C3902 0.929 . S
C3894 H3888 0.930 . S
C3894 C3895 1.367 . S
C3894 C3902 1.378 . S
C3895 C3894 1.367 . S
C3895 C3903 1.433 . S
C3896 H3892 0.929 . S
C3896 C3898 1.378 . S
C3896 C3900 1.350 . S
C3897 C3900 1.463 1_554 S
C3897 C3902 1.350 . S
C3897 N3905 1.427 . S
C3898 H3889 0.930 . S
C3898 C3896 1.378 . S
C3898 C3899 1.367 . S
C3899 C3898 1.367 . S
C3899 C3901 1.433 . S
C3900 C3896 1.350 . S
C3900 C3897 1.463 1_556 S
C3900 N3904 1.427 . S
C3901 H3891 0.929 . S
C3901 C3899 1.433 . S
C3901 N3904 1.384 . S
C3902 H3893 0.929 . S
C3902 C3894 1.378 . S
C3902 C3897 1.350 . S
C3903 H3890 0.929 . S
C3903 C3895 1.433 . S
C3903 N3905 1.384 . S
N3904 C3900 1.427 . S
N3904 C3901 1.384 . S
N3905 C3897 1.427 . S
N3905 C3903 1.384 . S
H3906 C3912 0.930 . S
H3907 C3916 0.908 1_565 S
H3908 C3921 0.929 . S
H3909 C3919 0.929 . S
H3910 C3914 0.929 . S
H3911 C3920 0.929 . S
C3912 H3906 0.930 . S
C3912 C3913 1.367 . S
C3912 C3920 1.378 . S
C3913 C3912 1.367 . S
C3913 C3921 1.433 . S
C3914 H3910 0.929 . S
C3914 C3916 1.378 . S
C3914 C3918 1.350 . S
C3915 C3918 1.463 1_556 S
C3915 C3920 1.350 . S
C3915 N3923 1.427 . S
C3916 H3907 0.908 1_545 S
C3916 C3914 1.378 . S
C3916 C3917 1.367 . S
C3917 C3916 1.367 . S
C3917 C3919 1.433 . S
C3918 C3914 1.350 . S
C3918 C3915 1.463 1_554 S
C3918 N3922 1.427 . S
C3919 H3909 0.929 . S
C3919 C3917 1.433 . S
C3919 N3922 1.384 . S
C3920 H3911 0.929 . S
C3920 C3912 1.378 . S
C3920 C3915 1.350 . S
C3921 H3908 0.929 . S
C3921 C3913 1.433 . S
C3921 N3923 1.384 . S
N3922 C3918 1.427 . S
N3922 C3919 1.384 . S
N3923 C3915 1.427 . S
N3923 C3921 1.384 . S
H3924 C3930 0.930 . S
H3925 C3934 0.930 . S
H3926 C3939 0.929 . S
H3927 C3937 0.929 . S
H3928 C3932 0.929 . S
H3929 C3938 0.929 . S
C3930 H3924 0.930 . S
C3930 C3931 1.367 . S
C3930 C3938 1.378 . S
C3931 C3930 1.367 . S
C3931 C3939 1.433 . S
C3932 H3928 0.929 . S
C3932 C3934 1.378 . S
C3932 C3936 1.350 . S
C3933 C3936 1.463 . S
C3933 C3938 1.350 . S
C3933 N3941 1.427 . S
C3934 H3925 0.930 . S
C3934 C3932 1.378 . S
C3934 C3935 1.367 . S
C3935 C3934 1.367 . S
C3935 C3937 1.433 . S
C3936 C3932 1.350 . S
C3936 C3933 1.463 . S
C3936 N3940 1.427 . S
C3937 H3927 0.929 . S
C3937 C3935 1.433 . S
C3937 N3940 1.384 . S
C3938 H3929 0.929 . S
C3938 C3930 1.378 . S
C3938 C3933 1.350 . S
C3939 H3926 0.929 . S
C3939 C3931 1.433 . S
C3939 N3941 1.384 . S
N3940 C3936 1.427 . S
N3940 C3937 1.384 . S
N3941 C3933 1.427 . S
N3941 C3939 1.384 . S
H3942 C3948 0.930 . S
H3943 C3952 0.930 . S
H3944 C3957 0.929 . S
H3945 C3955 0.929 . S
H3946 C3950 0.929 . S
H3947 C3956 0.929 . S
C3948 H3942 0.930 . S
C3948 C3949 1.367 . S
C3948 C3956 1.378 . S
C3949 C3948 1.367 . S
C3949 C3957 1.433 . S
C3950 H3946 0.929 . S
C3950 C3952 1.378 . S
C3950 C3954 1.350 . S
C3951 C3954 1.463 . S
C3951 C3956 1.350 . S
C3951 N3959 1.427 . S
C3952 H3943 0.930 . S
C3952 C3950 1.378 . S
C3952 C3953 1.367 . S
C3953 C3952 1.367 . S
C3953 C3955 1.433 . S
C3954 C3950 1.350 . S
C3954 C3951 1.463 . S
C3954 N3958 1.427 . S
C3955 H3945 0.929 . S
C3955 C3953 1.433 . S
C3955 N3958 1.384 . S
C3956 H3947 0.929 . S
C3956 C3948 1.378 . S
C3956 C3951 1.350 . S
C3957 H3944 0.929 . S
C3957 C3949 1.433 . S
C3957 N3959 1.384 . S
N3958 C3954 1.427 . S
N3958 C3955 1.384 . S
N3959 C3951 1.427 . S
N3959 C3957 1.384 . S
H3960 C3966 0.930 . S
H3961 C3970 0.930 . S
H3962 C3975 0.929 . S
H3963 C3973 0.929 . S
H3964 C3968 0.929 . S
H3965 C3974 0.929 . S
C3966 H3960 0.930 . S
C3966 C3967 1.367 . S
C3966 C3974 1.378 . S
C3967 C3966 1.367 . S
C3967 C3975 1.433 . S
C3968 H3964 0.929 . S
C3968 C3970 1.378 . S
C3968 C3972 1.350 . S
C3969 C3972 1.463 . S
C3969 C3974 1.350 . S
C3969 N3977 1.427 . S
C3970 H3961 0.930 . S
C3970 C3968 1.378 . S
C3970 C3971 1.367 . S
C3971 C3970 1.367 . S
C3971 C3973 1.433 . S
C3972 C3968 1.350 . S
C3972 C3969 1.463 . S
C3972 N3976 1.427 . S
C3973 H3963 0.929 . S
C3973 C3971 1.433 . S
C3973 N3976 1.384 . S
C3974 H3965 0.929 . S
C3974 C3966 1.378 . S
C3974 C3969 1.350 . S
C3975 H3962 0.929 . S
C3975 C3967 1.433 . S
C3975 N3977 1.384 . S
N3976 C3972 1.427 . S
N3976 C3973 1.384 . S
N3977 C3969 1.427 . S
N3977 C3975 1.384 . S
H3978 C3984 0.930 . S
H3979 C3988 0.930 . S
H3980 C3993 0.929 . S
H3981 C3991 0.929 . S
H3982 C3986 0.929 . S
H3983 C3992 0.929 . S
C3984 H3978 0.930 . S
C3984 C3985 1.367 . S
C3984 C3992 1.378 . S
C3985 C3984 1.367 . S
C3985 C3993 1.433 . S
C3986 H3982 0.929 . S
C3986 C3988 1.378 . S
C3986 C3990 1.350 . S
C3987 C3990 1.463 . S
C3987 C3992 1.350 . S
C3987 N3995 1.427 . S
C3988 H3979 0.930 . S
C3988 C3986 1.378 . S
C3988 C3989 1.367 . S
C3989 C3988 1.367 . S
C3989 C3991 1.433 . S
C3990 C3986 1.350 . S
C3990 C3987 1.463 . S
C3990 N3994 1.427 . S
C3991 H3981 0.929 . S
C3991 C3989 1.433 . S
C3991 N3994 1.384 . S
C3992 H3983 0.929 . S
C3992 C3984 1.378 . S
C3992 C3987 1.350 . S
C3993 H3980 0.929 . S
C3993 C3985 1.433 . S
C3993 N3995 1.384 . S
N3994 C3990 1.427 . S
N3994 C3991 1.384 . S
N3995 C3987 1.427 . S
N3995 C3993 1.384 . S
H3996 C4002 0.930 . S
H3997 C4006 0.930 . S
H3998 C4011 0.929 . S
H3999 C4009 0.929 . S
H4000 C4004 0.929 . S
H4001 C4010 0.929 . S
C4002 H3996 0.930 . S
C4002 C4003 1.367 . S
C4002 C4010 1.378 . S
C4003 C4002 1.367 . S
C4003 C4011 1.433 . S
C4004 H4000 0.929 . S
C4004 C4006 1.378 . S
C4004 C4008 1.350 . S
C4005 C4008 1.463 . S
C4005 C4010 1.350 . S
C4005 N4013 1.427 . S
C4006 H3997 0.930 . S
C4006 C4004 1.378 . S
C4006 C4007 1.367 . S
C4007 C4006 1.367 . S
C4007 C4009 1.433 . S
C4008 C4004 1.350 . S
C4008 C4005 1.463 . S
C4008 N4012 1.427 . S
C4009 H3999 0.929 . S
C4009 C4007 1.433 . S
C4009 N4012 1.384 . S
C4010 H4001 0.929 . S
C4010 C4002 1.378 . S
C4010 C4005 1.350 . S
C4011 H3998 0.929 . S
C4011 C4003 1.433 . S
C4011 N4013 1.384 . S
N4012 C4008 1.427 . S
N4012 C4009 1.384 . S
N4013 C4005 1.427 . S
N4013 C4011 1.384 . S
H4014 C4020 0.930 . S
H4015 C4024 0.930 . S
H4016 C4029 0.929 . S
H4017 C4027 0.929 . S
H4018 C4022 0.929 . S
H4019 C4028 0.929 . S
C4020 H4014 0.930 . S
C4020 C4021 1.367 . S
C4020 C4028 1.378 . S
C4021 C4020 1.367 . S
C4021 C4029 1.433 . S
C4022 H4018 0.929 . S
C4022 C4024 1.378 . S
C4022 C4026 1.350 . S
C4023 C4026 1.463 . S
C4023 C4028 1.350 . S
C4023 N4031 1.427 . S
C4024 H4015 0.930 . S
C4024 C4022 1.378 . S
C4024 C4025 1.367 . S
C4025 C4024 1.367 . S
C4025 C4027 1.433 . S
C4026 C4022 1.350 . S
C4026 C4023 1.463 . S
C4026 N4030 1.427 . S
C4027 H4017 0.929 . S
C4027 C4025 1.433 . S
C4027 N4030 1.384 . S
C4028 H4019 0.929 . S
C4028 C4020 1.378 . S
C4028 C4023 1.350 . S
C4029 H4016 0.929 . S
C4029 C4021 1.433 . S
C4029 N4031 1.384 . S
N4030 C4026 1.427 . S
N4030 C4027 1.384 . S
N4031 C4023 1.427 . S
N4031 C4029 1.384 . S
H4032 C4038 0.930 . S
H4033 C4042 0.930 . S
H4034 C4047 0.929 . S
H4035 C4045 0.929 . S
H4036 C4040 0.929 . S
H4037 C4046 0.929 . S
C4038 H4032 0.930 . S
C4038 C4039 1.367 . S
C4038 C4046 1.378 . S
C4039 C4038 1.367 . S
C4039 C4047 1.433 . S
C4040 H4036 0.929 . S
C4040 C4042 1.378 . S
C4040 C4044 1.350 . S
C4041 C4044 1.463 . S
C4041 C4046 1.350 . S
C4041 N4049 1.427 . S
C4042 H4033 0.930 . S
C4042 C4040 1.378 . S
C4042 C4043 1.367 . S
C4043 C4042 1.367 . S
C4043 C4045 1.433 . S
C4044 C4040 1.350 . S
C4044 C4041 1.463 . S
C4044 N4048 1.427 . S
C4045 H4035 0.929 . S
C4045 C4043 1.433 . S
C4045 N4048 1.384 . S
C4046 H4037 0.929 . S
C4046 C4038 1.378 . S
C4046 C4041 1.350 . S
C4047 H4034 0.929 . S
C4047 C4039 1.433 . S
C4047 N4049 1.384 . S
N4048 C4044 1.427 . S
N4048 C4045 1.384 . S
N4049 C4041 1.427 . S
N4049 C4047 1.384 . S
H4050 C4056 0.930 . S
H4051 C4060 0.930 . S
H4052 C4065 0.929 . S
H4053 C4063 0.929 . S
H4054 C4058 0.929 . S
H4055 C4064 0.929 . S
C4056 H4050 0.930 . S
C4056 C4057 1.367 . S
C4056 C4064 1.378 . S
C4057 C4056 1.367 . S
C4057 C4065 1.433 . S
C4058 H4054 0.929 . S
C4058 C4060 1.378 . S
C4058 C4062 1.350 . S
C4059 C4062 1.463 . S
C4059 C4064 1.350 . S
C4059 N4067 1.427 . S
C4060 H4051 0.930 . S
C4060 C4058 1.378 . S
C4060 C4061 1.367 . S
C4061 C4060 1.367 . S
C4061 C4063 1.433 . S
C4062 C4058 1.350 . S
C4062 C4059 1.463 . S
C4062 N4066 1.427 . S
C4063 H4053 0.929 . S
C4063 C4061 1.433 . S
C4063 N4066 1.384 . S
C4064 H4055 0.929 . S
C4064 C4056 1.378 . S
C4064 C4059 1.350 . S
C4065 H4052 0.929 . S
C4065 C4057 1.433 . S
C4065 N4067 1.384 . S
N4066 C4062 1.427 . S
N4066 C4063 1.384 . S
N4067 C4059 1.427 . S
N4067 C4065 1.384 . S
H4068 C4074 0.930 . S
H4069 C4078 0.930 . S
H4070 C4083 0.929 . S
H4071 C4081 0.929 . S
H4072 C4076 0.929 . S
H4073 C4082 0.929 . S
C4074 H4068 0.930 . S
C4074 C4075 1.367 . S
C4074 C4082 1.378 . S
C4075 C4074 1.367 . S
C4075 C4083 1.433 . S
C4076 H4072 0.929 . S
C4076 C4078 1.378 . S
C4076 C4080 1.350 . S
C4077 C4080 1.463 . S
C4077 C4082 1.350 . S
C4077 N4085 1.427 . S
C4078 H4069 0.930 . S
C4078 C4076 1.378 . S
C4078 C4079 1.367 . S
C4079 C4078 1.367 . S
C4079 C4081 1.433 . S
C4080 C4076 1.350 . S
C4080 C4077 1.463 . S
C4080 N4084 1.427 . S
C4081 H4071 0.929 . S
C4081 C4079 1.433 . S
C4081 N4084 1.384 . S
C4082 H4073 0.929 . S
C4082 C4074 1.378 . S
C4082 C4077 1.350 . S
C4083 H4070 0.929 . S
C4083 C4075 1.433 . S
C4083 N4085 1.384 . S
N4084 C4080 1.427 . S
N4084 C4081 1.384 . S
N4085 C4077 1.427 . S
N4085 C4083 1.384 . S
H4086 C4092 0.930 . S
H4087 C4096 0.930 . S
H4088 C4101 0.929 . S
H4089 C4099 0.929 . S
H4090 C4094 0.929 . S
H4091 C4100 0.929 . S
C4092 H4086 0.930 . S
C4092 C4093 1.367 . S
C4092 C4100 1.378 . S
C4093 C4092 1.367 . S
C4093 C4101 1.433 . S
C4094 H4090 0.929 . S
C4094 C4096 1.378 . S
C4094 C4098 1.350 . S
C4095 C4098 1.463 . S
C4095 C4100 1.350 . S
C4095 N4103 1.427 . S
C4096 H4087 0.930 . S
C4096 C4094 1.378 . S
C4096 C4097 1.367 . S
C4097 C4096 1.367 . S
C4097 C4099 1.433 . S
C4098 C4094 1.350 . S
C4098 C4095 1.463 . S
C4098 N4102 1.427 . S
C4099 H4089 0.929 . S
C4099 C4097 1.433 . S
C4099 N4102 1.384 . S
C4100 H4091 0.929 . S
C4100 C4092 1.378 . S
C4100 C4095 1.350 . S
C4101 H4088 0.929 . S
C4101 C4093 1.433 . S
C4101 N4103 1.384 . S
N4102 C4098 1.427 . S
N4102 C4099 1.384 . S
N4103 C4095 1.427 . S
N4103 C4101 1.384 . S
H4104 C4110 0.930 . S
H4105 C4114 0.930 . S
H4106 C4119 0.929 . S
H4107 C4117 0.929 . S
H4108 C4112 0.929 . S
H4109 C4118 0.929 . S
C4110 H4104 0.930 . S
C4110 C4111 1.367 . S
C4110 C4118 1.378 . S
C4111 C4110 1.367 . S
C4111 C4119 1.433 . S
C4112 H4108 0.929 . S
C4112 C4114 1.378 . S
C4112 C4116 1.350 . S
C4113 C4116 1.463 . S
C4113 C4118 1.350 . S
C4113 N4121 1.427 . S
C4114 H4105 0.930 . S
C4114 C4112 1.378 . S
C4114 C4115 1.367 . S
C4115 C4114 1.367 . S
C4115 C4117 1.433 . S
C4116 C4112 1.350 . S
C4116 C4113 1.463 . S
C4116 N4120 1.427 . S
C4117 H4107 0.929 . S
C4117 C4115 1.433 . S
C4117 N4120 1.384 . S
C4118 H4109 0.929 . S
C4118 C4110 1.378 . S
C4118 C4113 1.350 . S
C4119 H4106 0.929 . S
C4119 C4111 1.433 . S
C4119 N4121 1.384 . S
N4120 C4116 1.427 . S
N4120 C4117 1.384 . S
N4121 C4113 1.427 . S
N4121 C4119 1.384 . S
H4122 C4128 0.930 . S
H4123 C4132 0.930 . S
H4124 C4137 0.929 . S
H4125 C4135 0.929 . S
H4126 C4130 0.929 . S
H4127 C4136 0.929 . S
C4128 H4122 0.930 . S
C4128 C4129 1.367 . S
C4128 C4136 1.378 . S
C4129 C4128 1.367 . S
C4129 C4137 1.433 . S
C4130 H4126 0.929 . S
C4130 C4132 1.378 . S
C4130 C4134 1.350 . S
C4131 C4134 1.463 . S
C4131 C4136 1.350 . S
C4131 N4139 1.427 . S
C4132 H4123 0.930 . S
C4132 C4130 1.378 . S
C4132 C4133 1.367 . S
C4133 C4132 1.367 . S
C4133 C4135 1.433 . S
C4134 C4130 1.350 . S
C4134 C4131 1.463 . S
C4134 N4138 1.427 . S
C4135 H4125 0.929 . S
C4135 C4133 1.433 . S
C4135 N4138 1.384 . S
C4136 H4127 0.929 . S
C4136 C4128 1.378 . S
C4136 C4131 1.350 . S
C4137 H4124 0.929 . S
C4137 C4129 1.433 . S
C4137 N4139 1.384 . S
N4138 C4134 1.427 . S
N4138 C4135 1.384 . S
N4139 C4131 1.427 . S
N4139 C4137 1.384 . S
H4140 C4146 0.930 . S
H4141 C4150 0.930 . S
H4142 C4155 0.929 . S
H4143 C4153 0.929 . S
H4144 C4148 0.929 . S
H4145 C4154 0.929 . S
C4146 H4140 0.930 . S
C4146 C4147 1.367 . S
C4146 C4154 1.378 . S
C4147 C4146 1.367 . S
C4147 C4155 1.433 . S
C4148 H4144 0.929 . S
C4148 C4150 1.378 . S
C4148 C4152 1.350 . S
C4149 C4152 1.463 . S
C4149 C4154 1.350 . S
C4149 N4157 1.427 . S
C4150 H4141 0.930 . S
C4150 C4148 1.378 . S
C4150 C4151 1.367 . S
C4151 C4150 1.367 . S
C4151 C4153 1.433 . S
C4152 C4148 1.350 . S
C4152 C4149 1.463 . S
C4152 N4156 1.427 . S
C4153 H4143 0.929 . S
C4153 C4151 1.433 . S
C4153 N4156 1.384 . S
C4154 H4145 0.929 . S
C4154 C4146 1.378 . S
C4154 C4149 1.350 . S
C4155 H4142 0.929 . S
C4155 C4147 1.433 . S
C4155 N4157 1.384 . S
N4156 C4152 1.427 . S
N4156 C4153 1.384 . S
N4157 C4149 1.427 . S
N4157 C4155 1.384 . S
H4158 C4164 0.930 . S
H4159 C4168 0.930 . S
H4160 C4173 0.929 . S
H4161 C4171 0.929 . S
H4162 C4166 0.929 . S
H4163 C4172 0.929 . S
C4164 H4158 0.930 . S
C4164 C4165 1.367 . S
C4164 C4172 1.378 . S
C4165 C4164 1.367 . S
C4165 C4173 1.433 . S
C4166 H4162 0.929 . S
C4166 C4168 1.378 . S
C4166 C4170 1.350 . S
C4167 C4170 1.463 . S
C4167 C4172 1.350 . S
C4167 N4175 1.427 . S
C4168 H4159 0.930 . S
C4168 C4166 1.378 . S
C4168 C4169 1.367 . S
C4169 C4168 1.367 . S
C4169 C4171 1.433 . S
C4170 C4166 1.350 . S
C4170 C4167 1.463 . S
C4170 N4174 1.427 . S
C4171 H4161 0.929 . S
C4171 C4169 1.433 . S
C4171 N4174 1.384 . S
C4172 H4163 0.929 . S
C4172 C4164 1.378 . S
C4172 C4167 1.350 . S
C4173 H4160 0.929 . S
C4173 C4165 1.433 . S
C4173 N4175 1.384 . S
N4174 C4170 1.427 . S
N4174 C4171 1.384 . S
N4175 C4167 1.427 . S
N4175 C4173 1.384 . S
H4176 C4182 0.930 . S
H4177 C4186 0.930 . S
H4178 C4191 0.929 . S
H4179 C4189 0.929 . S
H4180 C4184 0.929 . S
H4181 C4190 0.929 . S
C4182 H4176 0.930 . S
C4182 C4183 1.367 . S
C4182 C4190 1.378 . S
C4183 C4182 1.367 . S
C4183 C4191 1.433 . S
C4184 H4180 0.929 . S
C4184 C4186 1.378 . S
C4184 C4188 1.350 . S
C4185 C4188 1.463 . S
C4185 C4190 1.350 . S
C4185 N4193 1.427 . S
C4186 H4177 0.930 . S
C4186 C4184 1.378 . S
C4186 C4187 1.367 . S
C4187 C4186 1.367 . S
C4187 C4189 1.433 . S
C4188 C4184 1.350 . S
C4188 C4185 1.463 . S
C4188 N4192 1.427 . S
C4189 H4179 0.929 . S
C4189 C4187 1.433 . S
C4189 N4192 1.384 . S
C4190 H4181 0.929 . S
C4190 C4182 1.378 . S
C4190 C4185 1.350 . S
C4191 H4178 0.929 . S
C4191 C4183 1.433 . S
C4191 N4193 1.384 . S
N4192 C4188 1.427 . S
N4192 C4189 1.384 . S
N4193 C4185 1.427 . S
N4193 C4191 1.384 . S
H4194 C4200 0.930 . S
H4195 C4204 0.930 . S
H4196 C4209 0.929 . S
H4197 C4207 0.929 . S
H4198 C4202 0.929 . S
H4199 C4208 0.929 . S
C4200 H4194 0.930 . S
C4200 C4201 1.367 . S
C4200 C4208 1.378 . S
C4201 C4200 1.367 . S
C4201 C4209 1.433 . S
C4202 H4198 0.929 . S
C4202 C4204 1.378 . S
C4202 C4206 1.350 . S
C4203 C4206 1.463 . S
C4203 C4208 1.350 . S
C4203 N4211 1.427 . S
C4204 H4195 0.930 . S
C4204 C4202 1.378 . S
C4204 C4205 1.367 . S
C4205 C4204 1.367 . S
C4205 C4207 1.433 . S
C4206 C4202 1.350 . S
C4206 C4203 1.463 . S
C4206 N4210 1.427 . S
C4207 H4197 0.929 . S
C4207 C4205 1.433 . S
C4207 N4210 1.384 . S
C4208 H4199 0.929 . S
C4208 C4200 1.378 . S
C4208 C4203 1.350 . S
C4209 H4196 0.929 . S
C4209 C4201 1.433 . S
C4209 N4211 1.384 . S
N4210 C4206 1.427 . S
N4210 C4207 1.384 . S
N4211 C4203 1.427 . S
N4211 C4209 1.384 . S
H4212 C4218 0.930 . S
H4213 C4222 0.930 . S
H4214 C4227 0.929 . S
H4215 C4225 0.929 . S
H4216 C4220 0.929 . S
H4217 C4226 0.929 . S
C4218 H4212 0.930 . S
C4218 C4219 1.367 . S
C4218 C4226 1.378 . S
C4219 C4218 1.367 . S
C4219 C4227 1.433 . S
C4220 H4216 0.929 . S
C4220 C4222 1.378 . S
C4220 C4224 1.350 . S
C4221 C4224 1.463 . S
C4221 C4226 1.350 . S
C4221 N4229 1.427 . S
C4222 H4213 0.930 . S
C4222 C4220 1.378 . S
C4222 C4223 1.367 . S
C4223 C4222 1.367 . S
C4223 C4225 1.433 . S
C4224 C4220 1.350 . S
C4224 C4221 1.463 . S
C4224 N4228 1.427 . S
C4225 H4215 0.929 . S
C4225 C4223 1.433 . S
C4225 N4228 1.384 . S
C4226 H4217 0.929 . S
C4226 C4218 1.378 . S
C4226 C4221 1.350 . S
C4227 H4214 0.929 . S
C4227 C4219 1.433 . S
C4227 N4229 1.384 . S
N4228 C4224 1.427 . S
N4228 C4225 1.384 . S
N4229 C4221 1.427 . S
N4229 C4227 1.384 . S
H4230 C4236 0.930 . S
H4231 C4240 0.930 . S
H4232 C4245 0.929 . S
H4233 C4243 0.929 . S
H4234 C4238 0.929 . S
H4235 C4244 0.929 . S
C4236 H4230 0.930 . S
C4236 C4237 1.367 . S
C4236 C4244 1.378 . S
C4237 C4236 1.367 . S
C4237 C4245 1.433 . S
C4238 H4234 0.929 . S
C4238 C4240 1.378 . S
C4238 C4242 1.350 . S
C4239 C4242 1.463 . S
C4239 C4244 1.350 . S
C4239 N4247 1.427 . S
C4240 H4231 0.930 . S
C4240 C4238 1.378 . S
C4240 C4241 1.367 . S
C4241 C4240 1.367 . S
C4241 C4243 1.433 . S
C4242 C4238 1.350 . S
C4242 C4239 1.463 . S
C4242 N4246 1.427 . S
C4243 H4233 0.929 . S
C4243 C4241 1.433 . S
C4243 N4246 1.384 . S
C4244 H4235 0.929 . S
C4244 C4236 1.378 . S
C4244 C4239 1.350 . S
C4245 H4232 0.929 . S
C4245 C4237 1.433 . S
C4245 N4247 1.384 . S
N4246 C4242 1.427 . S
N4246 C4243 1.384 . S
N4247 C4239 1.427 . S
N4247 C4245 1.384 . S
H4248 C4254 0.930 . S
H4249 C4258 0.930 . S
H4250 C4263 0.929 . S
H4251 C4261 0.929 . S
H4252 C4256 0.929 . S
H4253 C4262 0.929 . S
C4254 H4248 0.930 . S
C4254 C4255 1.367 . S
C4254 C4262 1.378 . S
C4255 C4254 1.367 . S
C4255 C4263 1.433 . S
C4256 H4252 0.929 . S
C4256 C4258 1.378 . S
C4256 C4260 1.350 . S
C4257 C4260 1.463 . S
C4257 C4262 1.350 . S
C4257 N4265 1.427 . S
C4258 H4249 0.930 . S
C4258 C4256 1.378 . S
C4258 C4259 1.367 . S
C4259 C4258 1.367 . S
C4259 C4261 1.433 . S
C4260 C4256 1.350 . S
C4260 C4257 1.463 . S
C4260 N4264 1.427 . S
C4261 H4251 0.929 . S
C4261 C4259 1.433 . S
C4261 N4264 1.384 . S
C4262 H4253 0.929 . S
C4262 C4254 1.378 . S
C4262 C4257 1.350 . S
C4263 H4250 0.929 . S
C4263 C4255 1.433 . S
C4263 N4265 1.384 . S
N4264 C4260 1.427 . S
N4264 C4261 1.384 . S
N4265 C4257 1.427 . S
N4265 C4263 1.384 . S
H4266 C4272 0.930 . S
H4267 C4276 0.930 . S
H4268 C4281 0.929 . S
H4269 C4279 0.929 . S
H4270 C4274 0.929 . S
H4271 C4280 0.929 . S
C4272 H4266 0.930 . S
C4272 C4273 1.367 . S
C4272 C4280 1.378 . S
C4273 C4272 1.367 . S
C4273 C4281 1.433 . S
C4274 H4270 0.929 . S
C4274 C4276 1.378 . S
C4274 C4278 1.350 . S
C4275 C4278 1.463 . S
C4275 C4280 1.350 . S
C4275 N4283 1.427 . S
C4276 H4267 0.930 . S
C4276 C4274 1.378 . S
C4276 C4277 1.367 . S
C4277 C4276 1.367 . S
C4277 C4279 1.433 . S
C4278 C4274 1.350 . S
C4278 C4275 1.463 . S
C4278 N4282 1.427 . S
C4279 H4269 0.929 . S
C4279 C4277 1.433 . S
C4279 N4282 1.384 . S
C4280 H4271 0.929 . S
C4280 C4272 1.378 . S
C4280 C4275 1.350 . S
C4281 H4268 0.929 . S
C4281 C4273 1.433 . S
C4281 N4283 1.384 . S
N4282 C4278 1.427 . S
N4282 C4279 1.384 . S
N4283 C4275 1.427 . S
N4283 C4281 1.384 . S
H4284 C4290 0.930 . S
H4285 C4294 0.930 . S
H4286 C4299 0.929 . S
H4287 C4297 0.929 . S
H4288 C4292 0.929 . S
H4289 C4298 0.929 . S
C4290 H4284 0.930 . S
C4290 C4291 1.367 . S
C4290 C4298 1.378 . S
C4291 C4290 1.367 . S
C4291 C4299 1.433 . S
C4292 H4288 0.929 . S
C4292 C4294 1.378 . S
C4292 C4296 1.350 . S
C4293 C4296 1.463 . S
C4293 C4298 1.350 . S
C4293 N4301 1.427 . S
C4294 H4285 0.930 . S
C4294 C4292 1.378 . S
C4294 C4295 1.367 . S
C4295 C4294 1.367 . S
C4295 C4297 1.433 . S
C4296 C4292 1.350 . S
C4296 C4293 1.463 . S
C4296 N4300 1.427 . S
C4297 H4287 0.929 . S
C4297 C4295 1.433 . S
C4297 N4300 1.384 . S
C4298 H4289 0.929 . S
C4298 C4290 1.378 . S
C4298 C4293 1.350 . S
C4299 H4286 0.929 . S
C4299 C4291 1.433 . S
C4299 N4301 1.384 . S
N4300 C4296 1.427 . S
N4300 C4297 1.384 . S
N4301 C4293 1.427 . S
N4301 C4299 1.384 . S
H4302 C4308 0.930 . S
H4303 C4312 0.930 . S
H4304 C4317 0.929 . S
H4305 C4315 0.929 . S
H4306 C4310 0.929 . S
H4307 C4316 0.929 . S
C4308 H4302 0.930 . S
C4308 C4309 1.367 . S
C4308 C4316 1.378 . S
C4309 C4308 1.367 . S
C4309 C4317 1.433 . S
C4310 H4306 0.929 . S
C4310 C4312 1.378 . S
C4310 C4314 1.350 . S
C4311 C4314 1.463 . S
C4311 C4316 1.350 . S
C4311 N4319 1.427 . S
C4312 H4303 0.930 . S
C4312 C4310 1.378 . S
C4312 C4313 1.367 . S
C4313 C4312 1.367 . S
C4313 C4315 1.433 . S
C4314 C4310 1.350 . S
C4314 C4311 1.463 . S
C4314 N4318 1.427 . S
C4315 H4305 0.929 . S
C4315 C4313 1.433 . S
C4315 N4318 1.384 . S
C4316 H4307 0.929 . S
C4316 C4308 1.378 . S
C4316 C4311 1.350 . S
C4317 H4304 0.929 . S
C4317 C4309 1.433 . S
C4317 N4319 1.384 . S
N4318 C4314 1.427 . S
N4318 C4315 1.384 . S
N4319 C4311 1.427 . S
N4319 C4317 1.384 . S
H4320 C4326 0.930 . S
H4321 C4330 0.930 . S
H4322 C4335 0.929 . S
H4323 C4333 0.929 . S
H4324 C4328 0.929 . S
H4325 C4334 0.929 . S
C4326 H4320 0.930 . S
C4326 C4327 1.367 . S
C4326 C4334 1.378 . S
C4327 C4326 1.367 . S
C4327 C4335 1.433 . S
C4328 H4324 0.929 . S
C4328 C4330 1.378 . S
C4328 C4332 1.350 . S
C4329 C4332 1.463 . S
C4329 C4334 1.350 . S
C4329 N4337 1.427 . S
C4330 H4321 0.930 . S
C4330 C4328 1.378 . S
C4330 C4331 1.367 . S
C4331 C4330 1.367 . S
C4331 C4333 1.433 . S
C4332 C4328 1.350 . S
C4332 C4329 1.463 . S
C4332 N4336 1.427 . S
C4333 H4323 0.929 . S
C4333 C4331 1.433 . S
C4333 N4336 1.384 . S
C4334 H4325 0.929 . S
C4334 C4326 1.378 . S
C4334 C4329 1.350 . S
C4335 H4322 0.929 . S
C4335 C4327 1.433 . S
C4335 N4337 1.384 . S
N4336 C4332 1.427 . S
N4336 C4333 1.384 . S
N4337 C4329 1.427 . S
N4337 C4335 1.384 . S
H4338 C4344 0.930 . S
H4339 C4348 0.930 . S
H4340 C4353 0.929 . S
H4341 C4351 0.929 . S
H4342 C4346 0.929 . S
H4343 C4352 0.929 . S
C4344 H4338 0.930 . S
C4344 C4345 1.367 . S
C4344 C4352 1.378 . S
C4345 C4344 1.367 . S
C4345 C4353 1.433 . S
C4346 H4342 0.929 . S
C4346 C4348 1.378 . S
C4346 C4350 1.350 . S
C4347 C4350 1.463 . S
C4347 C4352 1.350 . S
C4347 N4355 1.427 . S
C4348 H4339 0.930 . S
C4348 C4346 1.378 . S
C4348 C4349 1.367 . S
C4349 C4348 1.367 . S
C4349 C4351 1.433 . S
C4350 C4346 1.350 . S
C4350 C4347 1.463 . S
C4350 N4354 1.427 . S
C4351 H4341 0.929 . S
C4351 C4349 1.433 . S
C4351 N4354 1.384 . S
C4352 H4343 0.929 . S
C4352 C4344 1.378 . S
C4352 C4347 1.350 . S
C4353 H4340 0.929 . S
C4353 C4345 1.433 . S
C4353 N4355 1.384 . S
N4354 C4350 1.427 . S
N4354 C4351 1.384 . S
N4355 C4347 1.427 . S
N4355 C4353 1.384 . S
H4356 C4362 0.930 . S
H4357 C4366 0.930 . S
H4358 C4371 0.929 . S
H4359 C4369 0.929 . S
H4360 C4364 0.929 . S
H4361 C4370 0.929 . S
C4362 H4356 0.930 . S
C4362 C4363 1.367 . S
C4362 C4370 1.378 . S
C4363 C4362 1.367 . S
C4363 C4371 1.433 . S
C4364 H4360 0.929 . S
C4364 C4366 1.378 . S
C4364 C4368 1.350 . S
C4365 C4368 1.463 . S
C4365 C4370 1.350 . S
C4365 N4373 1.427 . S
C4366 H4357 0.930 . S
C4366 C4364 1.378 . S
C4366 C4367 1.367 . S
C4367 C4366 1.367 . S
C4367 C4369 1.433 . S
C4368 C4364 1.350 . S
C4368 C4365 1.463 . S
C4368 N4372 1.427 . S
C4369 H4359 0.929 . S
C4369 C4367 1.433 . S
C4369 N4372 1.384 . S
C4370 H4361 0.929 . S
C4370 C4362 1.378 . S
C4370 C4365 1.350 . S
C4371 H4358 0.929 . S
C4371 C4363 1.433 . S
C4371 N4373 1.384 . S
N4372 C4368 1.427 . S
N4372 C4369 1.384 . S
N4373 C4365 1.427 . S
N4373 C4371 1.384 . S
H4374 C4380 0.930 . S
H4375 C4384 0.930 . S
H4376 C4389 0.929 . S
H4377 C4387 0.929 . S
H4378 C4382 0.929 . S
H4379 C4388 0.929 . S
C4380 H4374 0.930 . S
C4380 C4381 1.367 . S
C4380 C4388 1.378 . S
C4381 C4380 1.367 . S
C4381 C4389 1.433 . S
C4382 H4378 0.929 . S
C4382 C4384 1.378 . S
C4382 C4386 1.350 . S
C4383 C4386 1.463 . S
C4383 C4388 1.350 . S
C4383 N4391 1.427 . S
C4384 H4375 0.930 . S
C4384 C4382 1.378 . S
C4384 C4385 1.367 . S
C4385 C4384 1.367 . S
C4385 C4387 1.433 . S
C4386 C4382 1.350 . S
C4386 C4383 1.463 . S
C4386 N4390 1.427 . S
C4387 H4377 0.929 . S
C4387 C4385 1.433 . S
C4387 N4390 1.384 . S
C4388 H4379 0.929 . S
C4388 C4380 1.378 . S
C4388 C4383 1.350 . S
C4389 H4376 0.929 . S
C4389 C4381 1.433 . S
C4389 N4391 1.384 . S
N4390 C4386 1.427 . S
N4390 C4387 1.384 . S
N4391 C4383 1.427 . S
N4391 C4389 1.384 . S
H4392 C4398 0.930 . S
H4393 C4402 0.930 . S
H4394 C4407 0.929 . S
H4395 C4405 0.929 . S
H4396 C4400 0.929 . S
H4397 C4406 0.929 . S
C4398 H4392 0.930 . S
C4398 C4399 1.367 . S
C4398 C4406 1.378 . S
C4399 C4398 1.367 . S
C4399 C4407 1.433 . S
C4400 H4396 0.929 . S
C4400 C4402 1.378 . S
C4400 C4404 1.350 . S
C4401 C4404 1.463 . S
C4401 C4406 1.350 . S
C4401 N4409 1.427 . S
C4402 H4393 0.930 . S
C4402 C4400 1.378 . S
C4402 C4403 1.367 . S
C4403 C4402 1.367 . S
C4403 C4405 1.433 . S
C4404 C4400 1.350 . S
C4404 C4401 1.463 . S
C4404 N4408 1.427 . S
C4405 H4395 0.929 . S
C4405 C4403 1.433 . S
C4405 N4408 1.384 . S
C4406 H4397 0.929 . S
C4406 C4398 1.378 . S
C4406 C4401 1.350 . S
C4407 H4394 0.929 . S
C4407 C4399 1.433 . S
C4407 N4409 1.384 . S
N4408 C4404 1.427 . S
N4408 C4405 1.384 . S
N4409 C4401 1.427 . S
N4409 C4407 1.384 . S
H4410 C4416 0.930 . S
H4411 C4420 0.930 . S
H4412 C4425 0.929 . S
H4413 C4423 0.929 . S
H4414 C4418 0.929 . S
H4415 C4424 0.929 . S
C4416 H4410 0.930 . S
C4416 C4417 1.367 . S
C4416 C4424 1.378 . S
C4417 C4416 1.367 . S
C4417 C4425 1.433 . S
C4418 H4414 0.929 . S
C4418 C4420 1.378 . S
C4418 C4422 1.350 . S
C4419 C4422 1.463 . S
C4419 C4424 1.350 . S
C4419 N4427 1.427 . S
C4420 H4411 0.930 . S
C4420 C4418 1.378 . S
C4420 C4421 1.367 . S
C4421 C4420 1.367 . S
C4421 C4423 1.433 . S
C4422 C4418 1.350 . S
C4422 C4419 1.463 . S
C4422 N4426 1.427 . S
C4423 H4413 0.929 . S
C4423 C4421 1.433 . S
C4423 N4426 1.384 . S
C4424 H4415 0.929 . S
C4424 C4416 1.378 . S
C4424 C4419 1.350 . S
C4425 H4412 0.929 . S
C4425 C4417 1.433 . S
C4425 N4427 1.384 . S
N4426 C4422 1.427 . S
N4426 C4423 1.384 . S
N4427 C4419 1.427 . S
N4427 C4425 1.384 . S
H4428 C4434 0.930 . S
H4429 C4438 0.930 . S
H4430 C4443 0.929 . S
H4431 C4441 0.929 . S
H4432 C4436 0.929 . S
H4433 C4442 0.929 . S
C4434 H4428 0.930 . S
C4434 C4435 1.367 . S
C4434 C4442 1.378 . S
C4435 C4434 1.367 . S
C4435 C4443 1.433 . S
C4436 H4432 0.929 . S
C4436 C4438 1.378 . S
C4436 C4440 1.350 . S
C4437 C4440 1.463 . S
C4437 C4442 1.350 . S
C4437 N4445 1.427 . S
C4438 H4429 0.930 . S
C4438 C4436 1.378 . S
C4438 C4439 1.367 . S
C4439 C4438 1.367 . S
C4439 C4441 1.433 . S
C4440 C4436 1.350 . S
C4440 C4437 1.463 . S
C4440 N4444 1.427 . S
C4441 H4431 0.929 . S
C4441 C4439 1.433 . S
C4441 N4444 1.384 . S
C4442 H4433 0.929 . S
C4442 C4434 1.378 . S
C4442 C4437 1.350 . S
C4443 H4430 0.929 . S
C4443 C4435 1.433 . S
C4443 N4445 1.384 . S
N4444 C4440 1.427 . S
N4444 C4441 1.384 . S
N4445 C4437 1.427 . S
N4445 C4443 1.384 . S
H4446 C4452 0.930 . S
H4447 C4456 0.930 . S
H4448 C4461 0.929 . S
H4449 C4459 0.929 . S
H4450 C4454 0.929 . S
H4451 C4460 0.929 . S
C4452 H4446 0.930 . S
C4452 C4453 1.367 . S
C4452 C4460 1.378 . S
C4453 C4452 1.367 . S
C4453 C4461 1.433 . S
C4454 H4450 0.929 . S
C4454 C4456 1.378 . S
C4454 C4458 1.350 . S
C4455 C4458 1.463 . S
C4455 C4460 1.350 . S
C4455 N4463 1.427 . S
C4456 H4447 0.930 . S
C4456 C4454 1.378 . S
C4456 C4457 1.367 . S
C4457 C4456 1.367 . S
C4457 C4459 1.433 . S
C4458 C4454 1.350 . S
C4458 C4455 1.463 . S
C4458 N4462 1.427 . S
C4459 H4449 0.929 . S
C4459 C4457 1.433 . S
C4459 N4462 1.384 . S
C4460 H4451 0.929 . S
C4460 C4452 1.378 . S
C4460 C4455 1.350 . S
C4461 H4448 0.929 . S
C4461 C4453 1.433 . S
C4461 N4463 1.384 . S
N4462 C4458 1.427 . S
N4462 C4459 1.384 . S
N4463 C4455 1.427 . S
N4463 C4461 1.384 . S
C3175 C29 1.001 . S
C3179 C1025 0.989 . S
C3193 C841 1.001 . S
C3197 C108 0.991 . S
C3211 C929 1.001 . S
C3215 C196 0.991 . S
C3229 C313 0.997 . S
C3233 C636 0.994 . S
C3247 C409 1.002 . S
C3251 C724 0.989 . S
C3265 C489 1.000 . S
C3269 C585 0.990 . S
C3283 C1085 1.001 . S
C3287 C2081 0.990 . S
C3301 C1897 1.000 . S
C3305 C1173 0.991 . S
C3319 C1261 1.001 . S
C3323 C1985 0.990 . S
C3337 C1377 0.996 . S
C3341 C1701 0.995 . S
C3355 C1465 0.993 . S
C3359 C1780 0.999 . S
C3373 C1553 0.993 . S
C3377 C1604 0.999 . S
C3391 C2141 0.994 . S
C3395 C3137 0.997 . S
C3409 C2229 0.999 . S
C3413 C2953 0.991 . S
C3427 C3041 0.989 . S
C3431 C2317 1.002 . S
C3445 C2433 1.000 . S
C3449 C2757 0.991 . S
C3463 C2836 0.990 . S
C3467 C2521 1.001 . S
C3481 C2660 0.991 . S
C3485 C2601 0.999 . S
C3499 C20 0.923 . S
C3503 C1369 0.936 . S
C3517 C117 0.929 . S
C3521 C1457 0.927 . S
C3535 C205 0.924 . S
C3539 C1545 0.936 . S
C3553 C321 0.926 . S
C3557 C2132 0.930 . S
C3571 C2220 0.932 . S
C3575 C401 0.931 . S
C3589 C2308 0.936 . S
C3593 C497 0.924 . S
C3607 C548 0.926 . S
C3611 C2933 0.937 . S
C3625 C3021 0.924 . S
C3629 C673 0.938 . S
C3643 C761 0.937 . S
C3647 C3100 0.924 . S
C3661 C821 0.926 . S
C3665 C1641 0.932 . S
C3679 C909 0.923 . S
C3683 C1721 0.936 . S
C3697 C988 0.937 . S
C3701 C1817 0.926 . S
C3715 C2425 0.936 . S
C3719 C1076 0.924 . S
C3733 C1164 0.936 . S
C3737 C2513 0.926 . S
C3751 C1252 0.936 . S
C3755 C2609 0.924 . S
C3769 C2697 0.923 . S
C3773 C1877 0.937 . S
C3787 C2777 0.925 . S
C3791 C1965 0.938 . S
C3805 C2044 0.937 . S
C3809 C2873 0.924 . S
C3823 C49 1.503 . S
C3827 C372 1.499 . S
C3841 C469 1.499 . S
C3845 C145 1.505 . S
C3859 C293 1.502 . S
C3863 C233 1.499 . S
C3877 C577 1.506 . S
C3881 C937 1.500 . S
C3895 C1017 1.500 . S
C3899 C645 1.506 . S
C3913 C733 1.506 . S
C3917 C849 1.503 . S
C3931 C1428 1.501 . S
C3935 C1105 1.507 . S
C3949 C1193 1.499 . S
C3953 C1516 1.505 . S
C3967 C1281 1.502 . S
C3971 C1340 1.499 . S
C3985 C1993 1.502 . S
C3989 C1613 1.499 . S
C4003 C2073 1.501 . S
C4007 C1692 1.506 . S
C4021 C1905 1.499 . S
C4025 C1789 1.503 . S
C4039 C2161 1.507 . S
C4043 C2484 1.501 . S
C4057 C2249 1.499 . S
C4061 C2581 1.501 . S
C4075 C2337 1.504 . S
C4079 C2396 1.507 . S
C4093 C3049 1.500 . S
C4097 C2669 1.500 . S
C4111 C3129 1.505 . S
C4115 C2748 1.499 . S
C4129 C2961 1.506 . S
C4133 C2845 1.501 . S
C4147 C812 1.497 . S
C4151 C57 1.491 . S
C4165 C900 1.496 . S
C4169 C137 1.492 . S
C4183 C225 1.496 . S
C4187 C997 1.493 . S
C4201 C284 1.493 . S
C4205 C557 1.495 . S
C4219 C665 1.494 . S
C4223 C381 1.495 . S
C4237 C460 1.495 . S
C4241 C753 1.494 . S
C4255 C1868 1.495 . S
C4259 C1113 1.494 . S
C4273 C1956 1.493 . S
C4277 C1201 1.495 . S
C4291 C1289 1.496 . S
C4295 C2053 1.493 . S
C4309 C1633 1.497 . S
C4313 C1349 1.491 . S
C4327 C1729 1.494 . S
C4331 C1437 1.494 . S
C4345 C1809 1.497 . S
C4349 C1525 1.491 . S
C4363 C2169 1.496 . S
C4367 C2924 1.492 . S
C4381 C3012 1.496 . S
C4385 C2257 1.493 . S
C4399 C2345 1.495 . S
C4403 C3109 1.494 . S
C4417 C2405 1.495 . S
C4421 C2689 1.493 . S
C4435 C2493 1.496 . S
C4439 C2785 1.492 . S
C4453 C2865 1.496 . S
C4457 C2572 1.492 . S
