# Generated by pormake.
# Topology sra, (4)-cn, num edge types: 1
# Building blocks:
#     Node 0, Type 0, BuildingBlock: NAHDIM_clean_sbu_0, # of connection points: 4
#     Node 1, Type 0, BuildingBlock: NAHDIM_clean_sbu_0, # of connection points: 4
#     Node 2, Type 0, BuildingBlock: NAHDIM_clean_sbu_0, # of connection points: 4
#     Node 3, Type 0, BuildingBlock: NAHDIM_clean_sbu_0, # of connection points: 4
#     Node 4, Type 0, BuildingBlock: NAHDIM_clean_sbu_0, # of connection points: 4
#     Node 5, Type 0, BuildingBlock: NAHDIM_clean_sbu_0, # of connection points: 4
#     Node 6, Type 0, BuildingBlock: NAHDIM_clean_sbu_0, # of connection points: 4
#     Node 7, Type 0, BuildingBlock: NAHDIM_clean_sbu_0, # of connection points: 4
#     Edge 8, Type (0, 0), BuildingBlock: ZUJKAS_clean_linker_0, # of connection points: 2
#     Edge 9, Type (0, 0), BuildingBlock: ZUJKAS_clean_linker_0, # of connection points: 2
#     Edge 10, Type (0, 0), BuildingBlock: ZUJKAS_clean_linker_0, # of connection points: 2
#     Edge 11, Type (0, 0), BuildingBlock: ZUJKAS_clean_linker_0, # of connection points: 2
#     Edge 12, Type (0, 0), BuildingBlock: ZUJKAS_clean_linker_0, # of connection points: 2
#     Edge 13, Type (0, 0), BuildingBlock: ZUJKAS_clean_linker_0, # of connection points: 2
#     Edge 14, Type (0, 0), BuildingBlock: ZUJKAS_clean_linker_0, # of connection points: 2
#     Edge 15, Type (0, 0), BuildingBlock: ZUJKAS_clean_linker_0, # of connection points: 2
#     Edge 16, Type (0, 0), BuildingBlock: ZUJKAS_clean_linker_0, # of connection points: 2
#     Edge 17, Type (0, 0), BuildingBlock: ZUJKAS_clean_linker_0, # of connection points: 2
#     Edge 18, Type (0, 0), BuildingBlock: ZUJKAS_clean_linker_0, # of connection points: 2
#     Edge 19, Type (0, 0), BuildingBlock: ZUJKAS_clean_linker_0, # of connection points: 2
#     Edge 20, Type (0, 0), BuildingBlock: ZUJKAS_clean_linker_0, # of connection points: 2
#     Edge 21, Type (0, 0), BuildingBlock: ZUJKAS_clean_linker_0, # of connection points: 2
#     Edge 22, Type (0, 0), BuildingBlock: ZUJKAS_clean_linker_0, # of connection points: 2
#     Edge 23, Type (0, 0), BuildingBlock: ZUJKAS_clean_linker_0, # of connection points: 2
# Relax obj value: 0.091
# Max RMSD: 0.091
# Mean RMSD: 0.091
data_MOF--net-sra--node1-NAHDIM_clean_sbu_0--edge1-ZUJKAS_clean_linker_0
_symmetry_space_group_name_H-M    P1
_symmetry_Int_Tables_number       1
_symmetry_cell_setting            triclinic
loop_
_symmetry_equiv_pos_as_xyz
'x, y, z'
_cell_length_a     32.766645
_cell_length_b     62.366035
_cell_length_c     52.89387
_cell_angle_alpha  90.053232
_cell_angle_beta   89.988963
_cell_angle_gamma 90.016979
loop_
_atom_site_label
_atom_site_type_symbol
_atom_site_fract_x
_atom_site_fract_y
_atom_site_fract_z
_atom_type_partial_charge
C0 C 0.03263 0.05955 0.11146 0.0
O1 O 0.05296 0.05072 0.13015 0.0
O2 O 0.96826 0.0815 0.17017 0.0
Zn3 Zn 0.01618 0.09124 0.14933 0.0
O4 O 0.06923 0.08421 0.16653 0.0
C5 C 0.00768 0.1344 0.16535 0.0
O6 O 0.00416 0.12463 0.18724 0.0
O7 O 0.01438 0.07725 0.11514 0.0
C8 C 0.0718 0.0767 0.18879 0.0
O9 O 0.03829 0.07301 0.20171 0.0
C10 C 0.95318 0.06273 0.16934 0.0
O11 O 0.96941 0.04834 0.15425 0.0
O12 O 0.01301 0.12322 0.14553 0.0
C13 C 0.00979 0.4413 0.11044 0.0
O14 O 0.00771 0.45253 0.13144 0.0
O15 O 0.06464 0.41783 0.16447 0.0
Zn16 Zn 0.01437 0.40777 0.14624 0.0
O17 O 0.96352 0.41596 0.1651 0.0
C18 C 0.00874 0.36468 0.16309 0.0
O19 O 0.00099 0.37471 0.1844 0.0
O20 O 0.01299 0.42105 0.11182 0.0
C21 C 0.9294 0.4126 0.15441 0.0
O22 O 0.92895 0.40465 0.1314 0.0
C23 C 0.06544 0.42127 0.18814 0.0
O24 O 0.03197 0.41861 0.20146 0.0
O25 O 0.0159 0.37565 0.14334 0.0
C26 C 0.99478 0.94515 0.87713 0.0
O27 O 0.98478 0.95472 0.85591 0.0
O28 O 0.94904 0.91394 0.82582 0.0
Zn29 Zn 0.00144 0.90852 0.84456 0.0
O30 O 0.04979 0.91659 0.8234 0.0
C31 C 0.97673 0.86538 0.85864 0.0
O32 O 0.94042 0.87406 0.86121 0.0
O33 O 0.00284 0.92524 0.8769 0.0
C34 C 0.05834 0.90477 0.80457 0.0
O35 O 0.0342 0.88858 0.79913 0.0
C36 C 0.94626 0.9276 0.80809 0.0
O37 O 0.9786 0.9388 0.80166 0.0
O38 O 0.00664 0.87711 0.85215 0.0
C39 C 0.00262 0.55628 0.87577 0.0
O40 O 0.00485 0.54689 0.85356 0.0
O41 O 0.05381 0.58601 0.82554 0.0
Zn42 Zn 0.00325 0.59389 0.84507 0.0
O43 O 0.95276 0.58757 0.82462 0.0
C44 C 0.03362 0.6377 0.85227 0.0
O45 O 0.06888 0.62993 0.84479 0.0
O46 O 0.00153 0.57661 0.87688 0.0
C47 C 0.93615 0.60247 0.81187 0.0
O48 O 0.95304 0.62157 0.8117 0.0
C49 C 0.05886 0.5915 0.80263 0.0
O50 O 0.03029 0.60266 0.79124 0.0
O51 O 0.00306 0.62526 0.85414 0.0
C52 C 0.49885 0.55152 0.60839 0.0
O53 O 0.48909 0.54211 0.62976 0.0
O54 O 0.44718 0.5838 0.65728 0.0
Zn55 Zn 0.50095 0.58896 0.63994 0.0
O56 O 0.54783 0.5816 0.6627 0.0
C57 C 0.4748 0.63177 0.6265 0.0
O58 O 0.43841 0.62291 0.62624 0.0
O59 O 0.50499 0.57163 0.60817 0.0
C60 C 0.55394 0.59308 0.68218 0.0
O61 O 0.52833 0.6087 0.68733 0.0
C62 C 0.44258 0.57136 0.67608 0.0
O63 O 0.47415 0.56069 0.68479 0.0
O64 O 0.50575 0.62024 0.63143 0.0
C65 C 0.5388 0.9249 0.60121 0.0
O66 O 0.57346 0.91618 0.60831 0.0
O67 O 0.55888 0.90687 0.66408 0.0
Zn68 Zn 0.50693 0.90261 0.64469 0.0
O69 O 0.45906 0.91062 0.66623 0.0
C70 C 0.53119 0.85928 0.63169 0.0
O71 O 0.56828 0.86699 0.63424 0.0
O72 O 0.50664 0.92113 0.61385 0.0
C73 C 0.44786 0.89798 0.68371 0.0
O74 O 0.46895 0.8804 0.68778 0.0
C75 C 0.56894 0.92522 0.67245 0.0
O76 O 0.54455 0.9416 0.66854 0.0
O77 O 0.50082 0.87166 0.6348 0.0
C78 C 0.52866 0.43264 0.37662 0.0
O79 O 0.54194 0.44188 0.35587 0.0
O80 O 0.45837 0.40578 0.32539 0.0
Zn81 Zn 0.51142 0.39832 0.34219 0.0
O82 O 0.55922 0.40653 0.32042 0.0
C83 C 0.49522 0.35405 0.33229 0.0
O84 O 0.47651 0.36242 0.31268 0.0
O85 O 0.51451 0.4137 0.37544 0.0
C86 C 0.55896 0.4039 0.2966 0.0
O87 O 0.52623 0.39597 0.2857 0.0
C88 C 0.45078 0.42332 0.31415 0.0
O89 O 0.47906 0.43823 0.31302 0.0
O90 O 0.51281 0.36642 0.34799 0.0
C91 C 0.50433 0.06304 0.38565 0.0
O92 O 0.46822 0.07023 0.37897 0.0
O93 O 0.57641 0.07558 0.31672 0.0
Zn94 Zn 0.52851 0.08236 0.33875 0.0
O95 O 0.4763 0.0736 0.32185 0.0
C96 C 0.49524 0.12457 0.34838 0.0
O97 O 0.46029 0.11424 0.3487 0.0
O98 O 0.53478 0.06657 0.37141 0.0
C99 C 0.46939 0.07873 0.29903 0.0
O100 O 0.49748 0.08922 0.28634 0.0
C101 C 0.58409 0.05688 0.30847 0.0
O102 O 0.55921 0.04104 0.31399 0.0
O103 O 0.52809 0.11414 0.34492 0.0
H104 H 0.99492 0.3369 0.20202 0.0
H105 H 0.99462 0.29775 0.20056 0.0
H106 H 0.02129 0.29957 0.12075 0.0
H107 H 0.02217 0.3388 0.12205 0.0
H108 H 0.94466 0.27091 0.17134 0.0
H109 H 0.10879 0.25897 0.14885 0.0
H110 H 0.08887 0.28419 0.1602 0.0
H111 H 0.08198 0.27655 0.12771 0.0
C112 C 0.00092 0.32901 0.18416 0.0
C113 C 0.00875 0.34097 0.16216 0.0
C114 C 0.00067 0.30663 0.18337 0.0
C115 C 0.00844 0.29579 0.16064 0.0
C116 C 0.01598 0.30765 0.13859 0.0
H117 H 0.01812 0.15976 0.12361 0.0
H118 H 0.01649 0.19898 0.12167 0.0
C119 C 0.01626 0.33005 0.13935 0.0
C120 C 0.00774 0.27207 0.16 0.0
H121 H 0.06697 0.22802 0.14897 0.0
C122 C 0.97139 0.26151 0.16648 0.0
C123 C 0.04266 0.25991 0.15358 0.0
C124 C 0.08293 0.27042 0.14739 0.0
C125 C 0.96894 0.23906 0.16659 0.0
C126 C 0.00397 0.2269 0.16041 0.0
C127 C 0.04019 0.23744 0.15365 0.0
C128 C 0.00397 0.2032 0.16152 0.0
C129 C 0.9288 0.22853 0.17303 0.0
C130 C -0.00218 0.19266 0.18462 0.0
C131 C -0.00122 0.1703 0.18582 0.0
C132 C 0.00607 0.15807 0.16393 0.0
C133 C 0.01231 0.16871 0.1408 0.0
C134 C 0.01144 0.19109 0.13965 0.0
H135 H 0.90277 0.23979 0.17087 0.0
H136 H 0.92333 0.21429 0.16086 0.0
H137 H 0.92955 0.2231 0.19299 0.0
H138 H 0.99276 0.20175 0.2018 0.0
H139 H 0.99402 0.16262 0.20394 0.0
H140 H 0.91934 0.83521 0.87101 0.0
H141 H 0.92894 0.79637 0.8742 0.0
H142 H 0.0565 0.80388 0.85616 0.0
H143 H 0.04741 0.84263 0.85326 0.0
H144 H 0.95575 0.76957 0.83559 0.0
H145 H 0.05984 0.76485 0.91807 0.0
H146 H 0.03063 0.7886 0.91078 0.0
H147 H 0.07698 0.78288 0.89386 0.0
C148 C 0.94953 0.82863 0.86801 0.0
C149 C 0.98262 0.84203 0.86192 0.0
C150 C 0.95495 0.80644 0.86984 0.0
C151 C 0.99354 0.7973 0.86579 0.0
C152 C 0.02666 0.81065 0.85993 0.0
H153 H 0.09062 0.6695 0.84671 0.0
H154 H 0.08011 0.7082 0.85117 0.0
C155 C 0.02131 0.8328 0.85811 0.0
C156 C -0.00129 0.77372 0.86599 0.0
H157 H 0.05271 0.73306 0.89332 0.0
C158 C 0.97662 0.76154 0.84838 0.0
C159 C 0.02617 0.76336 0.8826 0.0
C160 C 0.04951 0.77555 0.90256 0.0
C161 C 0.98198 0.73929 0.84648 0.0
C162 C 0.00967 0.72894 0.86296 0.0
C163 C 0.03155 0.74108 0.88072 0.0
C164 C 0.01655 0.70552 0.86178 0.0
C165 C 0.95884 0.72713 0.82638 0.0
C166 C 0.98453 0.69124 0.86687 0.0
C167 C 0.99037 0.66918 0.8643 0.0
C168 C 0.02846 0.66097 0.85673 0.0
C169 C 0.06089 0.6753 0.85249 0.0
C170 C 0.05497 0.6974 0.85505 0.0
H171 H 0.9466 0.73798 0.81156 0.0
H172 H 0.97865 0.71495 0.81721 0.0
H173 H 0.9327 0.71867 0.83523 0.0
H174 H 0.95486 0.6972 0.87256 0.0
H175 H 0.96481 0.65859 0.86789 0.0
H176 H 0.41471 0.66169 0.6198 0.0
H177 H 0.42283 0.70059 0.61616 0.0
H178 H 0.55348 0.69359 0.62137 0.0
H179 H 0.54578 0.65475 0.62485 0.0
H180 H 0.46041 0.72681 0.65296 0.0
H181 H 0.53842 0.73358 0.56015 0.0
H182 H 0.5111 0.70977 0.56973 0.0
H183 H 0.56157 0.71487 0.5816 0.0
C184 C 0.44521 0.66839 0.61985 0.0
C185 C 0.4796 0.65512 0.62262 0.0
C186 C 0.44977 0.69061 0.61778 0.0
C187 C 0.48876 0.6999 0.61818 0.0
C188 C 0.52316 0.68669 0.62053 0.0
H189 H 0.58875 0.82761 0.62832 0.0
H190 H 0.57705 0.78903 0.62385 0.0
C191 C 0.51866 0.6645 0.62268 0.0
C192 C 0.4934 0.72349 0.61799 0.0
H193 H 0.53734 0.76497 0.58586 0.0
C194 C 0.47686 0.73521 0.63818 0.0
C195 C 0.51512 0.73431 0.59874 0.0
C196 C 0.5323 0.72255 0.57619 0.0
C197 C 0.48237 0.75745 0.64001 0.0
C198 C 0.5043 0.76828 0.62084 0.0
C199 C 0.52053 0.75659 0.60051 0.0
C200 C 0.51129 0.79171 0.6219 0.0
C201 C 0.46579 0.76905 0.66288 0.0
C202 C 0.47824 0.80598 0.62164 0.0
C203 C 0.48477 0.82799 0.62429 0.0
C204 C 0.52457 0.83614 0.62705 0.0
C205 C 0.55773 0.82185 0.62634 0.0
C206 C 0.55112 0.79981 0.62376 0.0
H207 H 0.45883 0.75784 0.67861 0.0
H208 H 0.48779 0.78128 0.66977 0.0
H209 H 0.43708 0.77737 0.65765 0.0
H210 H 0.44731 0.80006 0.6197 0.0
H211 H 0.45857 0.83857 0.62454 0.0
H212 H 0.53245 0.33125 0.37007 0.0
H213 H 0.53458 0.29223 0.37508 0.0
H214 H 0.46151 0.28474 0.30785 0.0
H215 H 0.45956 0.3236 0.30249 0.0
H216 H 0.4698 0.26282 0.38039 0.0
H217 H 0.56122 0.2466 0.29416 0.0
H218 H 0.55662 0.27305 0.30776 0.0
H219 H 0.51628 0.26234 0.28847 0.0
C220 C 0.51689 0.3213 0.35632 0.0
C221 C 0.49607 0.33053 0.33578 0.0
C222 C 0.5181 0.29903 0.35924 0.0
C223 C 0.49873 0.28564 0.34162 0.0
C224 C 0.47733 0.2948 0.32138 0.0
H225 H 0.43052 0.15213 0.35183 0.0
H226 H 0.43247 0.19132 0.35223 0.0
C227 C 0.47612 0.31703 0.31842 0.0
C228 C 0.50058 0.26206 0.34442 0.0
H229 H 0.53086 0.21642 0.31419 0.0
C230 C 0.48336 0.25264 0.36602 0.0
C231 C 0.5188 0.2489 0.32579 0.0
C232 C 0.53964 0.25821 0.30284 0.0
C233 C 0.48291 0.23029 0.36917 0.0
C234 C 0.49962 0.2171 0.35002 0.0
C235 C 0.51776 0.22657 0.32875 0.0
C236 C 0.4984 0.1934 0.35145 0.0
C237 C 0.46489 0.22102 0.39302 0.0
C238 C 0.53479 0.18159 0.35057 0.0
C239 C 0.53379 0.15921 0.35013 0.0
C240 C 0.4963 0.14822 0.35045 0.0
C241 C 0.45989 0.1601 0.3517 0.0
C242 C 0.46094 0.1825 0.35209 0.0
H243 H 0.46389 0.23306 0.4085 0.0
H244 H 0.43315 0.21572 0.38919 0.0
H245 H 0.48263 0.2069 0.39955 0.0
H246 H 0.56401 0.18972 0.34995 0.0
H247 H 0.5624 0.15056 0.34917 0.0
H248 H 0.44408 0.08794 0.25099 0.0
H249 H 0.37562 0.08328 0.23335 0.0
H250 H 0.33504 0.05511 0.30339 0.0
H251 H 0.40325 0.05981 0.32131 0.0
H252 H 0.32566 0.04495 0.22845 0.0
H253 H 0.25748 0.10687 0.29146 0.0
H254 H 0.31185 0.1045 0.2867 0.0
H255 H 0.28565 0.08587 0.30685 0.0
C256 C 0.42069 0.08063 0.26261 0.0
C257 C 0.42901 0.07442 0.28763 0.0
C258 C 0.38165 0.07795 0.25248 0.0
C259 C 0.35029 0.06913 0.26721 0.0
C260 C 0.35877 0.06224 0.29188 0.0
H261 H 0.08884 0.06174 0.23629 0.0
H262 H 0.15614 0.05717 0.25566 0.0
C263 C 0.3978 0.06487 0.30203 0.0
C264 C 0.30839 0.06784 0.25699 0.0
H265 H 0.21302 0.08908 0.26349 0.0
C266 C 0.30093 0.05451 0.23613 0.0
C267 C 0.2763 0.08029 0.26719 0.0
C268 C 0.28305 0.09533 0.28917 0.0
C269 C 0.26206 0.05337 0.22507 0.0
C270 C 0.23021 0.06624 0.23486 0.0
C271 C 0.23751 0.07921 0.25607 0.0
C272 C 0.1897 0.06748 0.22259 0.0
C273 C 0.25541 0.03833 0.2031 0.0
C274 C 0.18634 0.07486 0.19765 0.0
C275 C 0.14805 0.07748 0.18654 0.0
C276 C 0.11232 0.07294 0.20026 0.0
C277 C 0.11576 0.06536 0.2252 0.0
C278 C 0.15416 0.06273 0.2363 0.0
H279 H 0.27827 0.02517 0.20295 0.0
H280 H 0.22437 0.03118 0.20362 0.0
H281 H 0.25867 0.04738 0.18516 0.0
H282 H 0.21334 0.07911 0.18694 0.0
H283 H 0.1465 0.08342 0.16733 0.0
H284 H 0.57071 0.3975 0.24594 0.0
H285 H 0.63376 0.40275 0.22191 0.0
H286 H 0.69369 0.42624 0.28901 0.0
H287 H 0.63105 0.42083 0.31329 0.0
H288 H 0.68306 0.44002 0.21423 0.0
H289 H 0.76545 0.37562 0.26588 0.0
H290 H 0.71073 0.37866 0.26735 0.0
H291 H 0.74323 0.39599 0.28557 0.0
C292 C 0.59723 0.40389 0.25557 0.0
C293 C 0.59601 0.40852 0.28159 0.0
C294 C 0.63318 0.40691 0.2418 0.0
C295 C 0.66846 0.41455 0.25381 0.0
C296 C 0.66694 0.41995 0.27953 0.0
H297 H 0.91976 0.42674 0.20302 0.0
H298 H 0.85605 0.42974 0.22688 0.0
C299 C 0.63107 0.41691 0.29333 0.0
C300 C 0.7072 0.41621 0.2396 0.0
H301 H 0.80357 0.39569 0.23637 0.0
C302 C 0.70947 0.43036 0.21904 0.0
C303 C 0.7415 0.40356 0.24598 0.0
C304 C 0.74021 0.38745 0.26725 0.0
C305 C 0.7454 0.43233 0.20475 0.0
C306 C 0.77956 0.41954 0.21102 0.0
C307 C 0.77736 0.40555 0.23172 0.0
C308 C 0.8175 0.41971 0.19584 0.0
C309 C 0.74664 0.44821 0.18327 0.0
C310 C 0.81684 0.41314 0.17047 0.0
C311 C 0.85315 0.41141 0.15679 0.0
C312 C 0.89081 0.41607 0.16831 0.0
C313 C 0.89127 0.42305 0.19359 0.0
C314 C 0.85492 0.42477 0.20726 0.0
H315 H 0.72281 0.46076 0.18538 0.0
H316 H 0.77695 0.45611 0.18204 0.0
H317 H 0.741 0.43965 0.16521 0.0
H318 H 0.78837 0.40872 0.16147 0.0
H319 H 0.85174 0.40593 0.13737 0.0
H320 H 0.08995 0.87934 0.76743 0.0
H321 H 0.1566 0.88254 0.74714 0.0
H322 H 0.18033 0.94052 0.78914 0.0
H323 H 0.11394 0.93723 0.80999 0.0
H324 H 0.1914 0.91433 0.71797 0.0
H325 H 0.2774 0.90258 0.8075 0.0
H326 H 0.22333 0.89757 0.80501 0.0
H327 H 0.24202 0.92457 0.80773 0.0
C328 C 0.10919 0.89286 0.77227 0.0
C329 C 0.09686 0.9079 0.79053 0.0
C330 C 0.14726 0.89467 0.76063 0.0
C331 C 0.17365 0.91154 0.767 0.0
C332 C 0.16075 0.92712 0.7844 0.0
H333 H 0.39894 0.93348 0.68135 0.0
H334 H 0.33323 0.93895 0.70235 0.0
C335 C 0.12273 0.92527 0.79617 0.0
C336 C 0.21504 0.91232 0.75585 0.0
H337 H 0.31621 0.90873 0.77065 0.0
C338 C 0.21875 0.91325 0.72946 0.0
C339 C 0.25054 0.91065 0.77095 0.0
C340 C 0.24832 0.90859 0.79935 0.0
C341 C 0.25705 0.91225 0.71767 0.0
C342 C 0.29256 0.91071 0.73277 0.0
C343 C 0.28889 0.91009 0.75918 0.0
C344 C 0.33361 0.90829 0.72147 0.0
C345 C 0.25901 0.912 0.68915 0.0
C346 C 0.35629 0.88963 0.7261 0.0
C347 C 0.39399 0.88654 0.71437 0.0
C348 C 0.40967 0.90208 0.69777 0.0
C349 C 0.38751 0.92111 0.69385 0.0
C350 C 0.34987 0.92423 0.70571 0.0
H351 H 0.22888 0.9083 0.68055 0.0
H352 H 0.26874 0.92802 0.68232 0.0
H353 H 0.28153 0.9 0.68238 0.0
H354 H 0.34431 0.87719 0.73832 0.0
H355 H 0.41033 0.87174 0.71785 0.0
H356 H 0.57893 0.61686 0.7227 0.0
H357 H 0.64385 0.61431 0.74523 0.0
H358 H 0.67822 0.56018 0.69914 0.0
H359 H 0.61356 0.56276 0.67621 0.0
H360 H 0.68101 0.58062 0.77248 0.0
H361 H 0.77048 0.60389 0.68743 0.0
H362 H 0.7158 0.60696 0.6892 0.0
H363 H 0.73774 0.58101 0.68352 0.0
C364 C 0.60012 0.6043 0.71746 0.0
C365 C 0.5913 0.59017 0.69746 0.0
C366 C 0.63716 0.60285 0.73039 0.0
C367 C 0.66602 0.58729 0.72354 0.0
C368 C 0.6566 0.57255 0.70436 0.0
H369 H 0.89168 0.56529 0.80912 0.0
H370 H 0.82641 0.55978 0.78747 0.0
C371 C 0.61958 0.57401 0.69137 0.0
C372 C 0.70657 0.58717 0.73581 0.0
H373 H 0.80768 0.59608 0.72441 0.0
C374 C 0.70879 0.58384 0.762 0.0
C375 C 0.74259 0.59165 0.72204 0.0
C376 C 0.74174 0.59627 0.69403 0.0
C377 C 0.74617 0.58507 0.77488 0.0
C378 C 0.78219 0.58946 0.76108 0.0
C379 C 0.77999 0.59255 0.73486 0.0
C380 C 0.82209 0.59235 0.77369 0.0
C381 C 0.74664 0.58242 0.80324 0.0
C382 C 0.84169 0.61231 0.77251 0.0
C383 C 0.87897 0.61548 0.78468 0.0
C384 C 0.89746 0.5987 0.7982 0.0
C385 C 0.87812 0.57857 0.79896 0.0
C386 C 0.84075 0.57541 0.78674 0.0
H387 H 0.71554 0.58354 0.8115 0.0
H388 H 0.75934 0.56644 0.80802 0.0
H389 H 0.7663 0.59478 0.81221 0.0
H390 H 0.82781 0.62556 0.76243 0.0
H391 H 0.89307 0.63117 0.78366 0.0
H392 H 0.59934 0.96193 0.69378 0.0
H393 H 0.66445 0.96639 0.71596 0.0
H394 H 0.69151 0.89945 0.70426 0.0
H395 H 0.62691 0.89485 0.68194 0.0
H396 H 0.69201 0.94505 0.75957 0.0
H397 H 0.79409 0.93006 0.67789 0.0
H398 H 0.74051 0.93611 0.67428 0.0
H399 H 0.75658 0.90941 0.68237 0.0
C400 C 0.61923 0.94818 0.69584 0.0
C401 C 0.60803 0.92806 0.68601 0.0
C402 C 0.65636 0.95076 0.70852 0.0
C403 C 0.683 0.93332 0.71136 0.0
C404 C 0.67173 0.9132 0.70179 0.0
H405 H 0.87441 0.90647 0.81621 0.0
H406 H 0.81047 0.91049 0.79303 0.0
C407 C 0.63466 0.91059 0.68918 0.0
C408 C 0.72209 0.93586 0.72501 0.0
H409 H 0.82475 0.92839 0.71888 0.0
C410 C 0.72111 0.94165 0.75064 0.0
C411 C 0.75999 0.93176 0.71318 0.0
C412 C 0.76303 0.9267 0.68535 0.0
C413 C 0.757 0.94251 0.76507 0.0
C414 C 0.79463 0.93712 0.7536 0.0
C415 C 0.79578 0.93228 0.7277 0.0
C416 C 0.83292 0.93549 0.76831 0.0
C417 C 0.75429 0.94908 0.79248 0.0
C418 C 0.86701 0.94792 0.76175 0.0
C419 C 0.90378 0.94554 0.77485 0.0
C420 C 0.90712 0.93058 0.79462 0.0
C421 C 0.87283 0.91821 0.80116 0.0
C422 C 0.83614 0.92059 0.78805 0.0
H423 H 0.72641 0.95871 0.79623 0.0
H424 H 0.75283 0.9345 0.80445 0.0
H425 H 0.78143 0.95856 0.79826 0.0
H426 H 0.86518 0.95939 0.74643 0.0
H427 H 0.92963 0.9553 0.76933 0.0
H428 H 0.37117 0.59043 0.66188 0.0
H429 H 0.30577 0.58964 0.68404 0.0
H430 H 0.35718 0.54806 0.74078 0.0
H431 H 0.423 0.54883 0.71883 0.0
H432 H 0.25547 0.55345 0.69831 0.0
H433 H 0.31211 0.60044 0.7807 0.0
H434 H 0.33934 0.59929 0.75105 0.0
H435 H 0.34095 0.57694 0.77239 0.0
C436 C 0.36861 0.58104 0.67902 0.0
C437 C 0.40241 0.56982 0.68871 0.0
C438 C 0.33118 0.58057 0.69161 0.0
C439 C 0.32689 0.56901 0.71416 0.0
C440 C 0.36014 0.55732 0.72356 0.0
H441 H 0.12321 0.56801 0.82043 0.0
H442 H 0.18744 0.56011 0.79878 0.0
C443 C 0.39764 0.55772 0.71095 0.0
C444 C 0.28778 0.56977 0.72808 0.0
H445 H 0.24352 0.58935 0.78173 0.0
C446 C 0.25279 0.5612 0.71661 0.0
C447 C 0.28458 0.57983 0.75196 0.0
C448 C 0.3211 0.58982 0.76477 0.0
C449 C 0.21447 0.56252 0.72836 0.0
C450 C 0.21107 0.57311 0.75194 0.0
C451 C 0.24625 0.58125 0.76365 0.0
C452 C 0.17115 0.57675 0.76436 0.0
C453 C 0.17808 0.55247 0.71552 0.0
C454 C 0.14079 0.5888 0.7522 0.0
C455 C 0.10403 0.59331 0.76448 0.0
C456 C 0.09713 0.58602 0.78926 0.0
C457 C 0.12755 0.57386 0.80135 0.0
C458 C 0.16426 0.56932 0.78902 0.0
H459 H 0.18748 0.53971 0.70205 0.0
H460 H 0.15668 0.54545 0.72955 0.0
H461 H 0.16151 0.56494 0.70467 0.0
H462 H 0.14587 0.59513 0.7334 0.0
H463 H 0.08134 0.60281 0.75469 0.0
H464 H 0.64289 0.08599 0.29635 0.0
H465 H 0.70609 0.07977 0.27319 0.0
H466 H 0.67448 0.01311 0.26404 0.0
H467 H 0.61066 0.01914 0.28734 0.0
H468 H 0.76879 0.04706 0.2874 0.0
H469 H 0.70267 0.03719 0.19089 0.0
H470 H 0.67535 0.05102 0.21569 0.0
H471 H 0.68076 0.02244 0.21685 0.0
C472 C 0.64913 0.06999 0.28937 0.0
C473 C 0.6217 0.05305 0.29369 0.0
C474 C 0.68533 0.06648 0.27618 0.0
C475 C 0.69473 0.04603 0.2669 0.0
C476 C 0.66746 0.02904 0.27095 0.0
H477 H 0.90978 0.02514 0.17016 0.0
H478 H 0.84867 0.01711 0.1952 0.0
C479 C 0.63113 0.03252 0.28427 0.0
C480 C 0.73364 0.0428 0.25338 0.0
H481 H 0.77408 0.0391 0.19412 0.0
C482 C 0.77006 0.04497 0.26705 0.0
C483 C 0.735 0.03987 0.22691 0.0
C484 C 0.69648 0.03755 0.21154 0.0
C485 C 0.80794 0.04525 0.25476 0.0
C486 C 0.80919 0.04378 0.22809 0.0
C487 C 0.77292 0.04033 0.21456 0.0
C488 C 0.84715 0.04799 0.21381 0.0
C489 C 0.8462 0.04759 0.27038 0.0
C490 C 0.86615 0.06807 0.21585 0.0
C491 C 0.90085 0.07272 0.20162 0.0
C492 C 0.91711 0.05741 0.18491 0.0
C493 C 0.89806 0.03725 0.18292 0.0
C494 C 0.86319 0.03263 0.19718 0.0
H495 H 0.84159 0.04149 0.28991 0.0
H496 H 0.87221 0.03889 0.26166 0.0
H497 H 0.85435 0.06482 0.27174 0.0
H498 H 0.85368 0.08033 0.22814 0.0
H499 H 0.91464 0.08842 0.20355 0.0
H500 H 0.13822 0.43131 0.16588 0.0
H501 H 0.2042 0.43639 0.1866 0.0
H502 H 0.14741 0.42761 0.25941 0.0
H503 H 0.08108 0.42291 0.23891 0.0
H504 H 0.20683 0.46042 0.25873 0.0
H505 H 0.2642 0.38459 0.21632 0.0
H506 H 0.24623 0.40404 0.19392 0.0
H507 H 0.21098 0.39196 0.21572 0.0
C508 C 0.13966 0.43065 0.18632 0.0
C509 C 0.10451 0.42641 0.20075 0.0
C510 C 0.1774 0.43351 0.19811 0.0
C511 C 0.18073 0.43196 0.22447 0.0
C512 C 0.14544 0.42877 0.23901 0.0
H513 H 0.38603 0.39591 0.3144 0.0
H514 H 0.32081 0.40008 0.29282 0.0
C515 C 0.1076 0.42604 0.22725 0.0
C516 C 0.22123 0.43231 0.23682 0.0
H517 H 0.31065 0.40452 0.24091 0.0
C518 C 0.22967 0.44828 0.2548 0.0
C519 C 0.25068 0.41628 0.23181 0.0
C520 C 0.2426 0.39812 0.21357 0.0
C521 C 0.26686 0.44858 0.26802 0.0
C522 C 0.29635 0.43262 0.26283 0.0
C523 C 0.288 0.4168 0.2447 0.0
C524 C 0.33519 0.43114 0.27697 0.0
C525 C 0.27382 0.46551 0.28794 0.0
C526 C 0.36488 0.44729 0.27523 0.0
C527 C 0.40237 0.44498 0.28763 0.0
C528 C 0.41073 0.42642 0.30179 0.0
C529 C 0.38066 0.4104 0.30363 0.0
C530 C 0.34333 0.41274 0.29132 0.0
H531 H 0.24507 0.47382 0.29324 0.0
H532 H 0.28746 0.45834 0.3052 0.0
H533 H 0.29546 0.47768 0.28057 0.0
H534 H 0.35942 0.46145 0.26389 0.0
H535 H 0.42495 0.45757 0.28579 0.0
H536 H -0.00247 0.07452 0.06801 0.0
H537 H 0.99033 0.0556 0.02767 0.0
H538 H 0.05286 0.00085 0.05882 0.0
H539 H 0.06029 0.01957 0.09921 0.0
H540 H 0.05659 0.03649 -0.0032 0.0
H541 H 0.94109 0.97774 0.03059 0.0
H542 H 0.95109 0.00271 0.04679 0.0
H543 H 0.98592 0.98066 0.04992 0.0
C544 C 0.0098 0.05846 0.06628 0.0
C545 C 0.02934 0.0485 0.08683 0.0
C546 C 0.00568 0.04772 0.04324 0.0
C547 C 0.02066 0.0268 0.04048 0.0
C548 C 0.04067 0.01692 0.06078 0.0
H549 H 0.02095 0.93091 0.92317 0.0
H550 H 0.02728 0.95152 0.96226 0.0
C551 C 0.04502 0.02767 0.08377 0.0
C552 C 0.01551 0.01528 0.01632 0.0
H553 H 0.96775 0.97232 0.98952 0.0
C554 C 0.03704 0.02252 -0.00492 0.0
C555 C 0.99002 -0.00291 0.01434 0.0
C556 C 0.9654 0.9891 0.03653 0.0
C557 C 0.03452 0.01166 0.97189 0.0
C558 C 0.00904 0.99341 0.96989 0.0
C559 C 0.98725 0.98632 0.99114 0.0
C560 C 0.00512 0.98116 0.94606 0.0
C561 C 0.06007 0.01944 0.94999 0.0
C562 C 0.99004 0.99095 0.9241 0.0
C563 C 0.98657 0.97925 0.90167 0.0
C564 C -0.00228 0.95749 0.90092 0.0
C565 C 0.01215 0.94765 0.92309 0.0
C566 C 0.01578 0.95939 0.94545 0.0
H567 H 0.08551 0.0299 0.9564 0.0
H568 H 0.07304 0.00576 0.93922 0.0
H569 H 0.0406 0.02892 0.93699 0.0
H570 H 0.98076 0.00762 0.92434 0.0
H571 H 0.97506 0.98725 0.88496 0.0
H572 H 0.00598 0.5126 0.88029 0.0
H573 H 0.00464 0.49151 0.91932 0.0
H574 H -0.00363 0.5497 0.96313 0.0
H575 H -0.00272 0.57089 0.92434 0.0
H576 H 0.05988 0.49385 0.96028 0.0
H577 H 0.90172 0.51304 0.9902 0.0
H578 H 0.91991 0.51762 0.95842 0.0
H579 H 0.93234 0.53619 0.98328 0.0
C580 C 0.00365 0.52091 0.89822 0.0
C581 C 0.00156 0.54342 0.89922 0.0
C582 C 0.00292 0.50884 0.92047 0.0
C583 C -0.00022 0.51906 0.94402 0.0
C584 C -0.00204 0.5415 0.94509 0.0
H585 H 0.00386 0.48425 0.10113 0.0
H586 H 0.00171 0.50209 0.06003 0.0
C587 C -0.00127 0.55358 0.9229 0.0
C588 C -0.00019 0.50637 0.9676 0.0
H589 H 0.94424 0.49618 0.02081 0.0
C590 C 0.03449 0.49416 0.97344 0.0
C591 C 0.96658 0.50687 0.98464 0.0
C592 C 0.92785 0.51897 0.97877 0.0
C593 C 0.0374 0.48296 -0.00364 0.0
C594 C 0.00445 0.48377 0.0136 0.0
C595 C 0.96949 0.49569 0.00755 0.0
C596 C 0.00597 0.47277 0.03831 0.0
C597 C 0.07619 0.47093 0.00229 0.0
C598 C 0.00866 0.45036 0.03964 0.0
C599 C 0.00997 0.44009 0.06309 0.0
C600 C 0.00836 0.4521 0.0856 0.0
C601 C 0.00526 0.47454 0.08416 0.0
C602 C 0.00397 0.48477 0.06071 0.0
H603 H 0.1018 0.47591 0.98984 0.0
H604 H 0.08535 0.47346 0.02229 0.0
H605 H 0.07098 0.45352 -0.00057 0.0
H606 H 0.00947 0.4408 0.02254 0.0
H607 H 0.01213 0.42277 0.06356 0.0
H608 H 0.50257 0.41834 0.42273 0.0
H609 H 0.49951 0.43853 0.46235 0.0
H610 H 0.55164 0.49361 0.42516 0.0
H611 H 0.55455 0.47365 0.38537 0.0
H612 H 0.56402 0.45942 0.48959 0.0
H613 H 0.44446 0.51623 0.4569 0.0
H614 H 0.45538 0.49141 0.44065 0.0
H615 H 0.48847 0.51414 0.43676 0.0
C616 C 0.51347 0.43474 0.42296 0.0
C617 C 0.52852 0.44446 0.40085 0.0
C618 C 0.51173 0.44622 0.44561 0.0
C619 C 0.52479 0.46761 0.44651 0.0
C620 C 0.54076 0.47721 0.42468 0.0
H621 H 0.52499 0.56562 0.56227 0.0
H622 H 0.53279 0.54472 0.5235 0.0
C623 C 0.54254 0.46575 0.40201 0.0
C624 C 0.52139 0.47992 0.47029 0.0
H625 H 0.47369 0.52296 0.49699 0.0
C626 C 0.54423 0.47328 0.4913 0.0
C627 C 0.49552 0.49798 0.47232 0.0
C628 C 0.46925 0.50532 0.45056 0.0
C629 C 0.54243 0.4845 0.51428 0.0
C630 C 0.51643 0.50253 0.51635 0.0
C631 C 0.4936 0.50914 0.49531 0.0
C632 C 0.51249 0.51488 0.54012 0.0
C633 C 0.56902 0.47724 0.53593 0.0
C634 C 0.49809 0.50504 0.56224 0.0
C635 C 0.49374 0.51692 0.58449 0.0
C636 C 0.50332 0.53889 0.58489 0.0
C637 C 0.51735 0.54872 0.56261 0.0
C638 C 0.52185 0.53682 0.54043 0.0
H639 H 0.59474 0.46708 0.5293 0.0
H640 H 0.58166 0.49117 0.54642 0.0
H641 H 0.55043 0.46758 0.54926 0.0
H642 H 0.48979 0.48823 0.56223 0.0
H643 H 0.48261 0.50891 0.60129 0.0
H644 H 0.4717 0.94461 0.58141 0.0
H645 H 0.46875 0.96859 0.54501 0.0
H646 H 0.59873 0.96213 0.5347 0.0
H647 H 0.60201 0.93785 0.57099 0.0
H648 H 0.50997 0.00776 0.53833 0.0
H649 H 0.55185 0.94821 0.46445 0.0
H650 H 0.53599 0.94045 0.49583 0.0
H651 H 0.58688 0.95017 0.49048 0.0
C652 C 0.49969 0.94818 0.57137 0.0
C653 C 0.5371 0.93924 0.57902 0.0
C654 C 0.49791 0.96192 0.5506 0.0
C655 C 0.53342 0.9669 0.53704 0.0
C656 C 0.57088 0.95815 0.54468 0.0
H657 H 0.57476 0.04593 0.40449 0.0
H658 H 0.58269 0.02366 0.44216 0.0
C659 C 0.5727 0.94436 0.56547 0.0
C660 C 0.53111 0.98159 0.51519 0.0
H661 H 0.54485 0.98425 0.45134 0.0
C662 C 0.51757 0.00265 0.51929 0.0
C663 C 0.54113 0.97482 0.49044 0.0
C664 C 0.55446 0.95214 0.48488 0.0
C665 C 0.51399 0.01723 0.49925 0.0
C666 C 0.52359 0.01039 0.47447 0.0
C667 C 0.53754 0.9894 0.4704 0.0
C668 C 0.51879 0.02464 0.45236 0.0
C669 C 0.5005 0.03988 0.5048 0.0
C670 C 0.48017 0.03248 0.44563 0.0
C671 C 0.47549 0.04524 0.42414 0.0
C672 C 0.50936 0.05024 0.40893 0.0
C673 C 0.54805 0.0424 0.41581 0.0
C674 C 0.55267 0.02967 0.43731 0.0
H675 H 0.50482 0.04408 0.52504 0.0
H676 H 0.51758 0.05158 0.49304 0.0
H677 H 0.46756 0.04149 0.50033 0.0
H678 H 0.45351 0.02841 0.45676 0.0
H679 H 0.44527 0.05093 0.41928 0.0
loop_
_geom_bond_atom_site_label_1
_geom_bond_atom_site_label_2
_geom_bond_distance
_geom_bond_site_symmetry_2
_ccdc_geom_bond_type
C0 O1 1.160 1_455 S
C0 O7 1.185 . S
O1 C0 1.160 1_655 S
O2 Zn3 1.899 1_655 S
O2 C10 1.284 . S
Zn3 O2 1.899 1_455 S
Zn3 O4 2.032 . S
Zn3 O7 2.086 . S
Zn3 O12 1.977 . S
O4 Zn3 2.032 . S
O4 C8 1.278 . S
C5 O6 1.203 1_455 S
C5 O12 1.267 . S
O6 C5 1.203 1_655 S
O7 C0 1.185 . S
O7 Zn3 2.086 . S
C8 O4 1.278 . S
C8 O9 1.211 . S
O9 C8 1.211 . S
C10 O2 1.284 . S
C10 O11 1.273 . S
O11 C10 1.273 . S
O12 Zn3 1.977 . S
O12 C5 1.267 . S
C13 O14 1.160 . S
C13 O20 1.185 . S
O14 C13 1.160 . S
O15 Zn16 1.899 . S
O15 C23 1.284 . S
Zn16 O15 1.899 . S
Zn16 O17 2.032 1_455 S
Zn16 O20 2.086 . S
Zn16 O25 1.977 . S
O17 Zn16 2.032 1_655 S
O17 C21 1.278 . S
C18 O19 1.203 . S
C18 O25 1.267 . S
O19 C18 1.203 . S
O20 C13 1.185 . S
O20 Zn16 2.086 . S
C21 O17 1.278 . S
C21 O22 1.211 . S
O22 C21 1.211 . S
C23 O15 1.284 . S
C23 O24 1.273 . S
O24 C23 1.273 . S
O25 Zn16 1.977 . S
O25 C18 1.267 . S
C26 O27 1.160 1_455 S
C26 O33 1.185 . S
O27 C26 1.160 1_655 S
O28 Zn29 1.899 1_655 S
O28 C36 1.284 . S
Zn29 O28 1.899 1_455 S
Zn29 O30 2.032 . S
Zn29 O33 2.086 . S
Zn29 O38 1.977 . S
O30 Zn29 2.032 . S
O30 C34 1.278 . S
C31 O32 1.203 1_455 S
C31 O38 1.267 . S
O32 C31 1.203 1_655 S
O33 C26 1.185 . S
O33 Zn29 2.086 . S
C34 O30 1.278 . S
C34 O35 1.211 . S
O35 C34 1.211 . S
C36 O28 1.284 . S
C36 O37 1.273 . S
O37 C36 1.273 . S
O38 Zn29 1.977 . S
O38 C31 1.267 . S
C39 O40 1.160 . S
C39 O46 1.185 . S
O40 C39 1.160 . S
O41 Zn42 1.899 . S
O41 C49 1.284 . S
Zn42 O41 1.899 . S
Zn42 O43 2.032 1_455 S
Zn42 O46 2.086 . S
Zn42 O51 1.977 . S
O43 Zn42 2.032 1_655 S
O43 C47 1.278 . S
C44 O45 1.203 . S
C44 O51 1.267 . S
O45 C44 1.203 . S
O46 C39 1.185 . S
O46 Zn42 2.086 . S
C47 O43 1.278 . S
C47 O48 1.211 . S
O48 C47 1.211 . S
C49 O41 1.284 . S
C49 O50 1.273 . S
O50 C49 1.273 . S
O51 Zn42 1.977 . S
O51 C44 1.267 . S
C52 O53 1.160 . S
C52 O59 1.185 . S
O53 C52 1.160 . S
O54 Zn55 1.899 . S
O54 C62 1.284 . S
Zn55 O54 1.899 . S
Zn55 O56 2.032 . S
Zn55 O59 2.086 . S
Zn55 O64 1.977 . S
O56 Zn55 2.032 . S
O56 C60 1.278 . S
C57 O58 1.203 . S
C57 O64 1.267 . S
O58 C57 1.203 . S
O59 C52 1.185 . S
O59 Zn55 2.086 . S
C60 O56 1.278 . S
C60 O61 1.211 . S
O61 C60 1.211 . S
C62 O54 1.284 . S
C62 O63 1.273 . S
O63 C62 1.273 . S
O64 Zn55 1.977 . S
O64 C57 1.267 . S
C65 O66 1.160 . S
C65 O72 1.185 . S
O66 C65 1.160 . S
O67 Zn68 1.899 . S
O67 C75 1.284 . S
Zn68 O67 1.899 . S
Zn68 O69 2.032 . S
Zn68 O72 2.086 . S
Zn68 O77 1.977 . S
O69 Zn68 2.032 . S
O69 C73 1.278 . S
C70 O71 1.203 . S
C70 O77 1.267 . S
O71 C70 1.203 . S
O72 C65 1.185 . S
O72 Zn68 2.086 . S
C73 O69 1.278 . S
C73 O74 1.211 . S
O74 C73 1.211 . S
C75 O67 1.284 . S
C75 O76 1.273 . S
O76 C75 1.273 . S
O77 Zn68 1.977 . S
O77 C70 1.267 . S
C78 O79 1.160 . S
C78 O85 1.185 . S
O79 C78 1.160 . S
O80 Zn81 1.899 . S
O80 C88 1.284 . S
Zn81 O80 1.899 . S
Zn81 O82 2.032 . S
Zn81 O85 2.086 . S
Zn81 O90 1.977 . S
O82 Zn81 2.032 . S
O82 C86 1.278 . S
C83 O84 1.203 . S
C83 O90 1.267 . S
O84 C83 1.203 . S
O85 C78 1.185 . S
O85 Zn81 2.086 . S
C86 O82 1.278 . S
C86 O87 1.211 . S
O87 C86 1.211 . S
C88 O80 1.284 . S
C88 O89 1.273 . S
O89 C88 1.273 . S
O90 Zn81 1.977 . S
O90 C83 1.267 . S
C91 O92 1.160 . S
C91 O98 1.185 . S
O92 C91 1.160 . S
O93 Zn94 1.899 . S
O93 C101 1.284 . S
Zn94 O93 1.899 . S
Zn94 O95 2.032 . S
Zn94 O98 2.086 . S
Zn94 O103 1.977 . S
O95 Zn94 2.032 . S
O95 C99 1.278 . S
C96 O97 1.203 . S
C96 O103 1.267 . S
O97 C96 1.203 . S
O98 C91 1.185 . S
O98 Zn94 2.086 . S
C99 O95 1.278 . S
C99 O100 1.211 . S
O100 C99 1.211 . S
C101 O93 1.284 . S
C101 O102 1.273 . S
O102 C101 1.273 . S
O103 Zn94 1.977 . S
O103 C96 1.267 . S
H104 C112 0.929 . S
H105 C114 0.930 . S
H106 C116 0.930 . S
H107 C119 0.929 . S
H108 C122 0.930 . S
H109 C124 0.960 . S
H110 C124 0.960 . S
H111 C124 0.960 . S
C112 H104 0.929 . S
C112 C113 1.377 1_655 S
C112 C114 1.384 . S
C113 C112 1.377 1_455 S
C113 C119 1.390 . S
C114 H105 0.930 . S
C114 C112 1.384 . S
C114 C115 1.372 1_655 S
C115 C114 1.372 1_455 S
C115 C116 1.400 . S
C115 C120 1.490 . S
C116 H106 0.930 . S
C116 C115 1.400 . S
C116 C119 1.386 . S
H117 C133 0.930 . S
H118 C134 0.931 . S
C119 H107 0.929 . S
C119 C113 1.390 . S
C119 C116 1.386 . S
C120 C115 1.490 . S
C120 C122 1.395 1_455 S
C120 C123 1.403 . S
H121 C127 0.930 . S
C122 H108 0.930 . S
C122 C120 1.395 1_655 S
C122 C125 1.403 . S
C123 C120 1.403 . S
C123 C124 1.524 . S
C123 C127 1.400 . S
C124 H109 0.960 . S
C124 H110 0.960 . S
C124 H111 0.960 . S
C124 C123 1.524 . S
C125 C122 1.403 . S
C125 C126 1.392 1_655 S
C125 C129 1.495 . S
C126 C125 1.392 1_455 S
C126 C127 1.385 . S
C126 C128 1.478 . S
C127 H121 0.930 . S
C127 C123 1.400 . S
C127 C126 1.385 . S
C128 C126 1.478 . S
C128 C130 1.381 1_455 S
C128 C134 1.383 . S
C129 C125 1.495 . S
C129 H135 0.959 . S
C129 H136 0.961 . S
C129 H137 0.960 . S
C130 C128 1.381 1_655 S
C130 C131 1.394 . S
C130 H138 0.930 . S
C131 C130 1.394 . S
C131 C132 1.383 1_655 S
C131 H139 0.929 . S
C132 C131 1.383 1_455 S
C132 C133 1.377 . S
C133 H117 0.930 . S
C133 C132 1.377 . S
C133 C134 1.379 . S
C134 H118 0.931 . S
C134 C128 1.383 . S
C134 C133 1.379 . S
H135 C129 0.959 . S
H136 C129 0.961 . S
H137 C129 0.960 . S
H138 C130 0.930 . S
H139 C131 0.929 . S
H140 C148 0.929 . S
H141 C150 0.930 . S
H142 C152 0.930 . S
H143 C155 0.929 . S
H144 C158 0.930 . S
H145 C160 0.960 . S
H146 C160 0.960 . S
H147 C160 0.960 . S
C148 H140 0.929 . S
C148 C149 1.377 1_655 S
C148 C150 1.384 . S
C149 C148 1.377 1_455 S
C149 C155 1.390 . S
C150 H141 0.930 . S
C150 C148 1.384 . S
C150 C151 1.372 1_655 S
C151 C150 1.372 1_455 S
C151 C152 1.400 . S
C151 C156 1.490 . S
C152 H142 0.930 . S
C152 C151 1.400 . S
C152 C155 1.386 . S
H153 C169 0.930 . S
H154 C170 0.931 . S
C155 H143 0.929 . S
C155 C149 1.390 . S
C155 C152 1.386 . S
C156 C151 1.490 . S
C156 C158 1.395 1_455 S
C156 C159 1.403 . S
H157 C163 0.930 . S
C158 H144 0.930 . S
C158 C156 1.395 1_655 S
C158 C161 1.403 . S
C159 C156 1.403 . S
C159 C160 1.524 . S
C159 C163 1.400 . S
C160 H145 0.960 . S
C160 H146 0.960 . S
C160 H147 0.960 . S
C160 C159 1.524 . S
C161 C158 1.403 . S
C161 C162 1.392 1_655 S
C161 C165 1.495 . S
C162 C161 1.392 1_455 S
C162 C163 1.385 . S
C162 C164 1.478 . S
C163 H157 0.930 . S
C163 C159 1.400 . S
C163 C162 1.385 . S
C164 C162 1.478 . S
C164 C166 1.381 1_455 S
C164 C170 1.383 . S
C165 C161 1.495 . S
C165 H171 0.959 . S
C165 H172 0.963 . S
C165 H173 0.960 . S
C166 C164 1.381 1_655 S
C166 C167 1.394 . S
C166 H174 0.930 . S
C167 C166 1.394 . S
C167 C168 1.383 1_655 S
C167 H175 0.929 . S
C168 C167 1.383 1_455 S
C168 C169 1.377 . S
C169 H153 0.930 . S
C169 C168 1.377 . S
C169 C170 1.379 . S
C170 H154 0.931 . S
C170 C164 1.383 . S
C170 C169 1.379 . S
H171 C165 0.959 . S
H172 C165 0.963 . S
H173 C165 0.960 . S
H174 C166 0.930 . S
H175 C167 0.929 . S
H176 C184 0.929 . S
H177 C186 0.930 . S
H178 C188 0.930 . S
H179 C191 0.929 . S
H180 C194 0.930 . S
H181 C196 0.960 . S
H182 C196 0.960 . S
H183 C196 0.960 . S
C184 H176 0.929 . S
C184 C185 1.377 . S
C184 C186 1.384 . S
C185 C184 1.377 . S
C185 C191 1.390 . S
C186 H177 0.930 . S
C186 C184 1.384 . S
C186 C187 1.372 . S
C187 C186 1.372 . S
C187 C188 1.400 . S
C187 C192 1.490 . S
C188 H178 0.930 . S
C188 C187 1.400 . S
C188 C191 1.386 . S
H189 C205 0.930 . S
H190 C206 0.931 . S
C191 H179 0.929 . S
C191 C185 1.390 . S
C191 C188 1.386 . S
C192 C187 1.490 . S
C192 C194 1.395 . S
C192 C195 1.403 . S
H193 C199 0.930 . S
C194 H180 0.930 . S
C194 C192 1.395 . S
C194 C197 1.403 . S
C195 C192 1.403 . S
C195 C196 1.524 . S
C195 C199 1.400 . S
C196 H181 0.960 . S
C196 H182 0.960 . S
C196 H183 0.960 . S
C196 C195 1.524 . S
C197 C194 1.403 . S
C197 C198 1.392 . S
C197 C201 1.495 . S
C198 C197 1.392 . S
C198 C199 1.385 . S
C198 C200 1.478 . S
C199 H193 0.930 . S
C199 C195 1.400 . S
C199 C198 1.385 . S
C200 C198 1.478 . S
C200 C202 1.381 . S
C200 C206 1.383 . S
C201 C197 1.495 . S
C201 H207 0.959 . S
C201 H208 0.961 . S
C201 H209 0.960 . S
C202 C200 1.381 . S
C202 C203 1.394 . S
C202 H210 0.930 . S
C203 C202 1.394 . S
C203 C204 1.383 . S
C203 H211 0.929 . S
C204 C203 1.383 . S
C204 C205 1.377 . S
C205 H189 0.930 . S
C205 C204 1.377 . S
C205 C206 1.379 . S
C206 H190 0.931 . S
C206 C200 1.383 . S
C206 C205 1.379 . S
H207 C201 0.959 . S
H208 C201 0.961 . S
H209 C201 0.960 . S
H210 C202 0.930 . S
H211 C203 0.929 . S
H212 C220 0.929 . S
H213 C222 0.930 . S
H214 C224 0.930 . S
H215 C227 0.929 . S
H216 C230 0.930 . S
H217 C232 0.960 . S
H218 C232 0.960 . S
H219 C232 0.960 . S
C220 H212 0.929 . S
C220 C221 1.377 . S
C220 C222 1.384 . S
C221 C220 1.377 . S
C221 C227 1.390 . S
C222 H213 0.930 . S
C222 C220 1.384 . S
C222 C223 1.372 . S
C223 C222 1.372 . S
C223 C224 1.400 . S
C223 C228 1.490 . S
C224 H214 0.930 . S
C224 C223 1.400 . S
C224 C227 1.386 . S
H225 C241 0.930 . S
H226 C242 0.931 . S
C227 H215 0.929 . S
C227 C221 1.390 . S
C227 C224 1.386 . S
C228 C223 1.490 . S
C228 C230 1.395 . S
C228 C231 1.403 . S
H229 C235 0.930 . S
C230 H216 0.930 . S
C230 C228 1.395 . S
C230 C233 1.403 . S
C231 C228 1.403 . S
C231 C232 1.524 . S
C231 C235 1.400 . S
C232 H217 0.960 . S
C232 H218 0.960 . S
C232 H219 0.960 . S
C232 C231 1.524 . S
C233 C230 1.403 . S
C233 C234 1.392 . S
C233 C237 1.495 . S
C234 C233 1.392 . S
C234 C235 1.385 . S
C234 C236 1.478 . S
C235 H229 0.930 . S
C235 C231 1.400 . S
C235 C234 1.385 . S
C236 C234 1.478 . S
C236 C238 1.381 . S
C236 C242 1.383 . S
C237 C233 1.495 . S
C237 H243 0.959 . S
C237 H244 0.961 . S
C237 H245 0.960 . S
C238 C236 1.381 . S
C238 C239 1.394 . S
C238 H246 0.930 . S
C239 C238 1.394 . S
C239 C240 1.383 . S
C239 H247 0.929 . S
C240 C239 1.383 . S
C240 C241 1.377 . S
C241 H225 0.930 . S
C241 C240 1.377 . S
C241 C242 1.379 . S
C242 H226 0.931 . S
C242 C236 1.383 . S
C242 C241 1.379 . S
H243 C237 0.959 . S
H244 C237 0.961 . S
H245 C237 0.960 . S
H246 C238 0.930 . S
H247 C239 0.929 . S
H248 C256 0.929 . S
H249 C258 0.930 . S
H250 C260 0.930 . S
H251 C263 0.929 . S
H252 C266 0.930 . S
H253 C268 0.960 . S
H254 C268 0.960 . S
H255 C268 0.960 . S
C256 H248 0.929 . S
C256 C257 1.377 . S
C256 C258 1.384 . S
C257 C256 1.377 . S
C257 C263 1.390 . S
C258 H249 0.930 . S
C258 C256 1.384 . S
C258 C259 1.372 . S
C259 C258 1.372 . S
C259 C260 1.400 . S
C259 C264 1.490 . S
C260 H250 0.930 . S
C260 C259 1.400 . S
C260 C263 1.386 . S
H261 C277 0.930 . S
H262 C278 0.931 . S
C263 H251 0.929 . S
C263 C257 1.390 . S
C263 C260 1.386 . S
C264 C259 1.490 . S
C264 C266 1.395 . S
C264 C267 1.403 . S
H265 C271 0.930 . S
C266 H252 0.930 . S
C266 C264 1.395 . S
C266 C269 1.403 . S
C267 C264 1.403 . S
C267 C268 1.524 . S
C267 C271 1.400 . S
C268 H253 0.960 . S
C268 H254 0.960 . S
C268 H255 0.960 . S
C268 C267 1.524 . S
C269 C266 1.403 . S
C269 C270 1.392 . S
C269 C273 1.495 . S
C270 C269 1.392 . S
C270 C271 1.385 . S
C270 C272 1.478 . S
C271 H265 0.930 . S
C271 C267 1.400 . S
C271 C270 1.385 . S
C272 C270 1.478 . S
C272 C274 1.381 . S
C272 C278 1.383 . S
C273 C269 1.495 . S
C273 H279 0.959 . S
C273 H280 0.961 . S
C273 H281 0.960 . S
C274 C272 1.381 . S
C274 C275 1.394 . S
C274 H282 0.930 . S
C275 C274 1.394 . S
C275 C276 1.383 . S
C275 H283 0.929 . S
C276 C275 1.383 . S
C276 C277 1.377 . S
C277 H261 0.930 . S
C277 C276 1.377 . S
C277 C278 1.379 . S
C278 H262 0.931 . S
C278 C272 1.383 . S
C278 C277 1.379 . S
H279 C273 0.959 . S
H280 C273 0.961 . S
H281 C273 0.960 . S
H282 C274 0.930 . S
H283 C275 0.929 . S
H284 C292 0.929 . S
H285 C294 0.930 . S
H286 C296 0.930 . S
H287 C299 0.929 . S
H288 C302 0.930 . S
H289 C304 0.960 . S
H290 C304 0.960 . S
H291 C304 0.960 . S
C292 H284 0.929 . S
C292 C293 1.377 . S
C292 C294 1.384 . S
C293 C292 1.377 . S
C293 C299 1.390 . S
C294 H285 0.930 . S
C294 C292 1.384 . S
C294 C295 1.372 . S
C295 C294 1.372 . S
C295 C296 1.400 . S
C295 C300 1.490 . S
C296 H286 0.930 . S
C296 C295 1.400 . S
C296 C299 1.386 . S
H297 C313 0.930 . S
H298 C314 0.931 . S
C299 H287 0.929 . S
C299 C293 1.390 . S
C299 C296 1.386 . S
C300 C295 1.490 . S
C300 C302 1.395 . S
C300 C303 1.403 . S
H301 C307 0.930 . S
C302 H288 0.930 . S
C302 C300 1.395 . S
C302 C305 1.403 . S
C303 C300 1.403 . S
C303 C304 1.524 . S
C303 C307 1.400 . S
C304 H289 0.960 . S
C304 H290 0.960 . S
C304 H291 0.960 . S
C304 C303 1.524 . S
C305 C302 1.403 . S
C305 C306 1.392 . S
C305 C309 1.495 . S
C306 C305 1.392 . S
C306 C307 1.385 . S
C306 C308 1.478 . S
C307 H301 0.930 . S
C307 C303 1.400 . S
C307 C306 1.385 . S
C308 C306 1.478 . S
C308 C310 1.381 . S
C308 C314 1.383 . S
C309 C305 1.495 . S
C309 H315 0.959 . S
C309 H316 0.961 . S
C309 H317 0.960 . S
C310 C308 1.381 . S
C310 C311 1.394 . S
C310 H318 0.930 . S
C311 C310 1.394 . S
C311 C312 1.383 . S
C311 H319 0.929 . S
C312 C311 1.383 . S
C312 C313 1.377 . S
C313 H297 0.930 . S
C313 C312 1.377 . S
C313 C314 1.379 . S
C314 H298 0.931 . S
C314 C308 1.383 . S
C314 C313 1.379 . S
H315 C309 0.959 . S
H316 C309 0.961 . S
H317 C309 0.960 . S
H318 C310 0.930 . S
H319 C311 0.929 . S
H320 C328 0.929 . S
H321 C330 0.930 . S
H322 C332 0.930 . S
H323 C335 0.929 . S
H324 C338 0.930 . S
H325 C340 0.960 . S
H326 C340 0.960 . S
H327 C340 0.960 . S
C328 H320 0.929 . S
C328 C329 1.377 . S
C328 C330 1.384 . S
C329 C328 1.377 . S
C329 C335 1.390 . S
C330 H321 0.930 . S
C330 C328 1.384 . S
C330 C331 1.372 . S
C331 C330 1.372 . S
C331 C332 1.400 . S
C331 C336 1.490 . S
C332 H322 0.930 . S
C332 C331 1.400 . S
C332 C335 1.386 . S
H333 C349 0.930 . S
H334 C350 0.931 . S
C335 H323 0.929 . S
C335 C329 1.390 . S
C335 C332 1.386 . S
C336 C331 1.490 . S
C336 C338 1.395 . S
C336 C339 1.403 . S
H337 C343 0.930 . S
C338 H324 0.930 . S
C338 C336 1.395 . S
C338 C341 1.403 . S
C339 C336 1.403 . S
C339 C340 1.524 . S
C339 C343 1.400 . S
C340 H325 0.960 . S
C340 H326 0.960 . S
C340 H327 0.960 . S
C340 C339 1.524 . S
C341 C338 1.403 . S
C341 C342 1.392 . S
C341 C345 1.495 . S
C342 C341 1.392 . S
C342 C343 1.385 . S
C342 C344 1.478 . S
C343 H337 0.930 . S
C343 C339 1.400 . S
C343 C342 1.385 . S
C344 C342 1.478 . S
C344 C346 1.381 . S
C344 C350 1.383 . S
C345 C341 1.495 . S
C345 H351 0.959 . S
C345 H352 0.961 . S
C345 H353 0.960 . S
C346 C344 1.381 . S
C346 C347 1.394 . S
C346 H354 0.930 . S
C347 C346 1.394 . S
C347 C348 1.383 . S
C347 H355 0.929 . S
C348 C347 1.383 . S
C348 C349 1.377 . S
C349 H333 0.930 . S
C349 C348 1.377 . S
C349 C350 1.379 . S
C350 H334 0.931 . S
C350 C344 1.383 . S
C350 C349 1.379 . S
H351 C345 0.959 . S
H352 C345 0.961 . S
H353 C345 0.960 . S
H354 C346 0.930 . S
H355 C347 0.929 . S
H356 C364 0.929 . S
H357 C366 0.930 . S
H358 C368 0.930 . S
H359 C371 0.929 . S
H360 C374 0.930 . S
H361 C376 0.960 . S
H362 C376 0.960 . S
H363 C376 0.960 . S
C364 H356 0.929 . S
C364 C365 1.377 . S
C364 C366 1.384 . S
C365 C364 1.377 . S
C365 C371 1.390 . S
C366 H357 0.930 . S
C366 C364 1.384 . S
C366 C367 1.372 . S
C367 C366 1.372 . S
C367 C368 1.400 . S
C367 C372 1.490 . S
C368 H358 0.930 . S
C368 C367 1.400 . S
C368 C371 1.386 . S
H369 C385 0.930 . S
H370 C386 0.931 . S
C371 H359 0.929 . S
C371 C365 1.390 . S
C371 C368 1.386 . S
C372 C367 1.490 . S
C372 C374 1.395 . S
C372 C375 1.403 . S
H373 C379 0.930 . S
C374 H360 0.930 . S
C374 C372 1.395 . S
C374 C377 1.403 . S
C375 C372 1.403 . S
C375 C376 1.524 . S
C375 C379 1.400 . S
C376 H361 0.960 . S
C376 H362 0.960 . S
C376 H363 0.960 . S
C376 C375 1.524 . S
C377 C374 1.403 . S
C377 C378 1.392 . S
C377 C381 1.495 . S
C378 C377 1.392 . S
C378 C379 1.385 . S
C378 C380 1.478 . S
C379 H373 0.930 . S
C379 C375 1.400 . S
C379 C378 1.385 . S
C380 C378 1.478 . S
C380 C382 1.381 . S
C380 C386 1.383 . S
C381 C377 1.495 . S
C381 H387 0.959 . S
C381 H388 0.961 . S
C381 H389 0.960 . S
C382 C380 1.381 . S
C382 C383 1.394 . S
C382 H390 0.930 . S
C383 C382 1.394 . S
C383 C384 1.383 . S
C383 H391 0.929 . S
C384 C383 1.383 . S
C384 C385 1.377 . S
C385 H369 0.930 . S
C385 C384 1.377 . S
C385 C386 1.379 . S
C386 H370 0.931 . S
C386 C380 1.383 . S
C386 C385 1.379 . S
H387 C381 0.959 . S
H388 C381 0.961 . S
H389 C381 0.960 . S
H390 C382 0.930 . S
H391 C383 0.929 . S
H392 C400 0.929 . S
H393 C402 0.930 . S
H394 C404 0.930 . S
H395 C407 0.929 . S
H396 C410 0.930 . S
H397 C412 0.960 . S
H398 C412 0.960 . S
H399 C412 0.960 . S
C400 H392 0.929 . S
C400 C401 1.377 . S
C400 C402 1.384 . S
C401 C400 1.377 . S
C401 C407 1.390 . S
C402 H393 0.930 . S
C402 C400 1.384 . S
C402 C403 1.372 . S
C403 C402 1.372 . S
C403 C404 1.400 . S
C403 C408 1.490 . S
C404 H394 0.930 . S
C404 C403 1.400 . S
C404 C407 1.386 . S
H405 C421 0.930 . S
H406 C422 0.931 . S
C407 H395 0.929 . S
C407 C401 1.390 . S
C407 C404 1.386 . S
C408 C403 1.490 . S
C408 C410 1.395 . S
C408 C411 1.403 . S
H409 C415 0.930 . S
C410 H396 0.930 . S
C410 C408 1.395 . S
C410 C413 1.403 . S
C411 C408 1.403 . S
C411 C412 1.524 . S
C411 C415 1.400 . S
C412 H397 0.960 . S
C412 H398 0.960 . S
C412 H399 0.960 . S
C412 C411 1.524 . S
C413 C410 1.403 . S
C413 C414 1.392 . S
C413 C417 1.495 . S
C414 C413 1.392 . S
C414 C415 1.385 . S
C414 C416 1.478 . S
C415 H409 0.930 . S
C415 C411 1.400 . S
C415 C414 1.385 . S
C416 C414 1.478 . S
C416 C418 1.381 . S
C416 C422 1.383 . S
C417 C413 1.495 . S
C417 H423 0.959 . S
C417 H424 0.961 . S
C417 H425 0.960 . S
C418 C416 1.381 . S
C418 C419 1.394 . S
C418 H426 0.930 . S
C419 C418 1.394 . S
C419 C420 1.383 . S
C419 H427 0.929 . S
C420 C419 1.383 . S
C420 C421 1.377 . S
C421 H405 0.930 . S
C421 C420 1.377 . S
C421 C422 1.379 . S
C422 H406 0.931 . S
C422 C416 1.383 . S
C422 C421 1.379 . S
H423 C417 0.959 . S
H424 C417 0.961 . S
H425 C417 0.960 . S
H426 C418 0.930 . S
H427 C419 0.929 . S
H428 C436 0.929 . S
H429 C438 0.930 . S
H430 C440 0.930 . S
H431 C443 0.929 . S
H432 C446 0.930 . S
H433 C448 0.960 . S
H434 C448 0.960 . S
H435 C448 0.960 . S
C436 H428 0.929 . S
C436 C437 1.377 . S
C436 C438 1.384 . S
C437 C436 1.377 . S
C437 C443 1.390 . S
C438 H429 0.930 . S
C438 C436 1.384 . S
C438 C439 1.372 . S
C439 C438 1.372 . S
C439 C440 1.400 . S
C439 C444 1.490 . S
C440 H430 0.930 . S
C440 C439 1.400 . S
C440 C443 1.386 . S
H441 C457 0.930 . S
H442 C458 0.931 . S
C443 H431 0.929 . S
C443 C437 1.390 . S
C443 C440 1.386 . S
C444 C439 1.490 . S
C444 C446 1.395 . S
C444 C447 1.403 . S
H445 C451 0.930 . S
C446 H432 0.930 . S
C446 C444 1.395 . S
C446 C449 1.403 . S
C447 C444 1.403 . S
C447 C448 1.524 . S
C447 C451 1.400 . S
C448 H433 0.960 . S
C448 H434 0.960 . S
C448 H435 0.960 . S
C448 C447 1.524 . S
C449 C446 1.403 . S
C449 C450 1.392 . S
C449 C453 1.495 . S
C450 C449 1.392 . S
C450 C451 1.385 . S
C450 C452 1.478 . S
C451 H445 0.930 . S
C451 C447 1.400 . S
C451 C450 1.385 . S
C452 C450 1.478 . S
C452 C454 1.381 . S
C452 C458 1.383 . S
C453 C449 1.495 . S
C453 H459 0.959 . S
C453 H460 0.961 . S
C453 H461 0.960 . S
C454 C452 1.381 . S
C454 C455 1.394 . S
C454 H462 0.930 . S
C455 C454 1.394 . S
C455 C456 1.383 . S
C455 H463 0.929 . S
C456 C455 1.383 . S
C456 C457 1.377 . S
C457 H441 0.930 . S
C457 C456 1.377 . S
C457 C458 1.379 . S
C458 H442 0.931 . S
C458 C452 1.383 . S
C458 C457 1.379 . S
H459 C453 0.959 . S
H460 C453 0.961 . S
H461 C453 0.960 . S
H462 C454 0.930 . S
H463 C455 0.929 . S
H464 C472 0.929 . S
H465 C474 0.930 . S
H466 C476 0.930 . S
H467 C479 0.929 . S
H468 C482 0.930 . S
H469 C484 0.960 . S
H470 C484 0.960 . S
H471 C484 0.960 . S
C472 H464 0.929 . S
C472 C473 1.377 . S
C472 C474 1.384 . S
C473 C472 1.377 . S
C473 C479 1.390 . S
C474 H465 0.930 . S
C474 C472 1.384 . S
C474 C475 1.372 . S
C475 C474 1.372 . S
C475 C476 1.400 . S
C475 C480 1.490 . S
C476 H466 0.930 . S
C476 C475 1.400 . S
C476 C479 1.386 . S
H477 C493 0.930 . S
H478 C494 0.931 . S
C479 H467 0.929 . S
C479 C473 1.390 . S
C479 C476 1.386 . S
C480 C475 1.490 . S
C480 C482 1.395 . S
C480 C483 1.403 . S
H481 C487 0.930 . S
C482 H468 0.930 . S
C482 C480 1.395 . S
C482 C485 1.403 . S
C483 C480 1.403 . S
C483 C484 1.524 . S
C483 C487 1.400 . S
C484 H469 0.960 . S
C484 H470 0.960 . S
C484 H471 0.960 . S
C484 C483 1.524 . S
C485 C482 1.403 . S
C485 C486 1.392 . S
C485 C489 1.495 . S
C486 C485 1.392 . S
C486 C487 1.385 . S
C486 C488 1.478 . S
C487 H481 0.930 . S
C487 C483 1.400 . S
C487 C486 1.385 . S
C488 C486 1.478 . S
C488 C490 1.381 . S
C488 C494 1.383 . S
C489 C485 1.495 . S
C489 H495 0.959 . S
C489 H496 0.961 . S
C489 H497 0.960 . S
C490 C488 1.381 . S
C490 C491 1.394 . S
C490 H498 0.930 . S
C491 C490 1.394 . S
C491 C492 1.383 . S
C491 H499 0.929 . S
C492 C491 1.383 . S
C492 C493 1.377 . S
C493 H477 0.930 . S
C493 C492 1.377 . S
C493 C494 1.379 . S
C494 H478 0.931 . S
C494 C488 1.383 . S
C494 C493 1.379 . S
H495 C489 0.959 . S
H496 C489 0.961 . S
H497 C489 0.960 . S
H498 C490 0.930 . S
H499 C491 0.929 . S
H500 C508 0.929 . S
H501 C510 0.930 . S
H502 C512 0.930 . S
H503 C515 0.929 . S
H504 C518 0.930 . S
H505 C520 0.960 . S
H506 C520 0.960 . S
H507 C520 0.960 . S
C508 H500 0.929 . S
C508 C509 1.377 . S
C508 C510 1.384 . S
C509 C508 1.377 . S
C509 C515 1.390 . S
C510 H501 0.930 . S
C510 C508 1.384 . S
C510 C511 1.372 . S
C511 C510 1.372 . S
C511 C512 1.400 . S
C511 C516 1.490 . S
C512 H502 0.930 . S
C512 C511 1.400 . S
C512 C515 1.386 . S
H513 C529 0.930 . S
H514 C530 0.931 . S
C515 H503 0.929 . S
C515 C509 1.390 . S
C515 C512 1.386 . S
C516 C511 1.490 . S
C516 C518 1.395 . S
C516 C519 1.403 . S
H517 C523 0.930 . S
C518 H504 0.930 . S
C518 C516 1.395 . S
C518 C521 1.403 . S
C519 C516 1.403 . S
C519 C520 1.524 . S
C519 C523 1.400 . S
C520 H505 0.960 . S
C520 H506 0.960 . S
C520 H507 0.960 . S
C520 C519 1.524 . S
C521 C518 1.403 . S
C521 C522 1.392 . S
C521 C525 1.495 . S
C522 C521 1.392 . S
C522 C523 1.385 . S
C522 C524 1.478 . S
C523 H517 0.930 . S
C523 C519 1.400 . S
C523 C522 1.385 . S
C524 C522 1.478 . S
C524 C526 1.381 . S
C524 C530 1.383 . S
C525 C521 1.495 . S
C525 H531 0.959 . S
C525 H532 0.961 . S
C525 H533 0.960 . S
C526 C524 1.381 . S
C526 C527 1.394 . S
C526 H534 0.930 . S
C527 C526 1.394 . S
C527 C528 1.383 . S
C527 H535 0.929 . S
C528 C527 1.383 . S
C528 C529 1.377 . S
C529 H513 0.930 . S
C529 C528 1.377 . S
C529 C530 1.379 . S
C530 H514 0.931 . S
C530 C524 1.383 . S
C530 C529 1.379 . S
H531 C525 0.959 . S
H532 C525 0.961 . S
H533 C525 0.960 . S
H534 C526 0.930 . S
H535 C527 0.929 . S
H536 C544 0.921 1_655 S
H537 C546 0.924 1_655 S
H538 C548 0.930 . S
H539 C551 0.929 . S
H540 C554 0.928 1_554 S
H541 C556 0.960 . S
H542 C556 0.960 . S
H543 C556 0.960 . S
C544 H536 0.921 1_455 S
C544 C545 1.385 . S
C544 C546 1.384 . S
C545 C544 1.385 . S
C545 C551 1.390 . S
C546 H537 0.924 1_455 S
C546 C544 1.384 . S
C546 C547 1.378 . S
C547 C546 1.378 . S
C547 C548 1.400 . S
C547 C552 1.490 . S
C548 H538 0.930 . S
C548 C547 1.400 . S
C548 C551 1.386 . S
H549 C565 0.930 . S
H550 C566 0.931 . S
C551 H539 0.929 . S
C551 C545 1.390 . S
C551 C548 1.386 . S
C552 C547 1.490 . S
C552 C554 1.379 1_554 S
C552 C555 1.403 1_545 S
H553 C559 0.930 1_655 S
C554 H540 0.928 1_556 S
C554 C552 1.379 1_556 S
C554 C557 1.421 . S
C555 C552 1.403 1_565 S
C555 C556 1.524 1_455 S
C555 C559 1.400 1_554 S
C556 H541 0.960 . S
C556 H542 0.960 . S
C556 H543 0.960 . S
C556 C555 1.524 1_655 S
C557 C554 1.421 . S
C557 C558 1.392 1_545 S
C557 C561 1.495 . S
C558 C557 1.392 1_565 S
C558 C559 1.385 . S
C558 C560 1.478 . S
C559 H553 0.930 1_455 S
C559 C555 1.400 1_556 S
C559 C558 1.385 . S
C560 C558 1.478 . S
C560 C562 1.381 . S
C560 C566 1.383 . S
C561 C557 1.495 . S
C561 H567 0.959 . S
C561 H568 0.961 . S
C561 H569 0.960 . S
C562 C560 1.381 . S
C562 C563 1.395 . S
C562 H570 0.930 1_455 S
C563 C562 1.395 . S
C563 C564 1.388 . S
C563 H571 0.924 1_455 S
C564 C563 1.388 . S
C564 C565 1.377 . S
C565 H549 0.930 . S
C565 C564 1.377 . S
C565 C566 1.379 . S
C566 H550 0.931 . S
C566 C560 1.383 . S
C566 C565 1.379 . S
H567 C561 0.959 . S
H568 C561 0.961 . S
H569 C561 0.960 . S
H570 C562 0.930 1_655 S
H571 C563 0.924 1_655 S
H572 C580 0.931 . S
H573 C582 0.931 . S
H574 C584 0.930 . S
H575 C587 0.929 . S
H576 C590 0.930 . S
H577 C592 0.960 1_554 S
H578 C592 0.960 . S
H579 C592 0.960 . S
C580 H572 0.931 . S
C580 C581 1.376 1_655 S
C580 C582 1.384 . S
C581 C580 1.376 1_455 S
C581 C587 1.390 . S
C582 H573 0.931 . S
C582 C580 1.384 . S
C582 C583 1.371 1_655 S
C583 C582 1.371 1_455 S
C583 C584 1.400 . S
C583 C588 1.490 . S
C584 H574 0.930 . S
C584 C583 1.400 . S
C584 C587 1.386 . S
H585 C601 0.930 . S
H586 C602 0.931 . S
C587 H575 0.929 . S
C587 C581 1.390 . S
C587 C584 1.386 . S
C588 C583 1.490 . S
C588 C590 1.395 . S
C588 C591 1.403 1_455 S
H589 C595 0.930 . S
C590 H576 0.930 . S
C590 C588 1.395 . S
C590 C593 1.373 1_556 S
C591 C588 1.403 1_655 S
C591 C592 1.524 . S
C591 C595 1.400 1_556 S
C592 H577 0.960 1_556 S
C592 H578 0.960 . S
C592 H579 0.960 . S
C592 C591 1.524 . S
C593 C590 1.373 1_554 S
C593 C594 1.420 . S
C593 C597 1.498 . S
C594 C593 1.420 . S
C594 C595 1.385 1_455 S
C594 C596 1.478 . S
C595 H589 0.930 . S
C595 C591 1.400 1_554 S
C595 C594 1.385 1_655 S
C596 C594 1.478 . S
C596 C598 1.381 . S
C596 C602 1.383 . S
C597 C593 1.498 . S
C597 H603 0.959 1_554 S
C597 H604 0.961 . S
C597 H605 0.960 . S
C598 C596 1.381 . S
C598 C599 1.394 1_455 S
C598 H606 0.930 1_455 S
C599 C598 1.394 1_655 S
C599 C600 1.383 1_655 S
C599 H607 0.930 . S
C600 C599 1.383 1_455 S
C600 C601 1.377 . S
C601 H585 0.930 . S
C601 C600 1.377 . S
C601 C602 1.379 . S
C602 H586 0.931 . S
C602 C596 1.383 . S
C602 C601 1.379 . S
H603 C597 0.959 1_556 S
H604 C597 0.961 . S
H605 C597 0.960 . S
H606 C598 0.930 1_655 S
H607 C599 0.930 . S
H608 C616 0.929 . S
H609 C618 0.930 . S
H610 C620 0.930 . S
H611 C623 0.929 . S
H612 C626 0.930 . S
H613 C628 0.960 . S
H614 C628 0.960 . S
H615 C628 0.960 . S
C616 H608 0.929 . S
C616 C617 1.377 . S
C616 C618 1.384 . S
C617 C616 1.377 . S
C617 C623 1.390 . S
C618 H609 0.930 . S
C618 C616 1.384 . S
C618 C619 1.372 . S
C619 C618 1.372 . S
C619 C620 1.400 . S
C619 C624 1.490 . S
C620 H610 0.930 . S
C620 C619 1.400 . S
C620 C623 1.386 . S
H621 C637 0.930 . S
H622 C638 0.931 . S
C623 H611 0.929 . S
C623 C617 1.390 . S
C623 C620 1.386 . S
C624 C619 1.490 . S
C624 C626 1.395 . S
C624 C627 1.403 . S
H625 C631 0.930 . S
C626 H612 0.930 . S
C626 C624 1.395 . S
C626 C629 1.403 . S
C627 C624 1.403 . S
C627 C628 1.524 . S
C627 C631 1.400 . S
C628 H613 0.960 . S
C628 H614 0.960 . S
C628 H615 0.960 . S
C628 C627 1.524 . S
C629 C626 1.403 . S
C629 C630 1.392 . S
C629 C633 1.495 . S
C630 C629 1.392 . S
C630 C631 1.385 . S
C630 C632 1.478 . S
C631 H625 0.930 . S
C631 C627 1.400 . S
C631 C630 1.385 . S
C632 C630 1.478 . S
C632 C634 1.381 . S
C632 C638 1.383 . S
C633 C629 1.495 . S
C633 H639 0.959 . S
C633 H640 0.961 . S
C633 H641 0.960 . S
C634 C632 1.381 . S
C634 C635 1.394 . S
C634 H642 0.930 . S
C635 C634 1.394 . S
C635 C636 1.383 . S
C635 H643 0.929 . S
C636 C635 1.383 . S
C636 C637 1.377 . S
C637 H621 0.930 . S
C637 C636 1.377 . S
C637 C638 1.379 . S
C638 H622 0.931 . S
C638 C632 1.383 . S
C638 C637 1.379 . S
H639 C633 0.959 . S
H640 C633 0.961 . S
H641 C633 0.960 . S
H642 C634 0.930 . S
H643 C635 0.929 . S
H644 C652 0.929 . S
H645 C654 0.930 . S
H646 C656 0.930 . S
H647 C659 0.929 . S
H648 C662 0.930 . S
H649 C664 0.960 . S
H650 C664 0.960 . S
H651 C664 0.960 . S
C652 H644 0.929 . S
C652 C653 1.377 . S
C652 C654 1.384 . S
C653 C652 1.377 . S
C653 C659 1.390 . S
C654 H645 0.930 . S
C654 C652 1.384 . S
C654 C655 1.372 . S
C655 C654 1.372 . S
C655 C656 1.400 . S
C655 C660 1.490 . S
C656 H646 0.930 . S
C656 C655 1.400 . S
C656 C659 1.386 . S
H657 C673 0.930 . S
H658 C674 0.931 . S
C659 H647 0.929 . S
C659 C653 1.390 . S
C659 C656 1.386 . S
C660 C655 1.490 . S
C660 C662 1.395 1_565 S
C660 C663 1.403 . S
H661 C667 0.930 . S
C662 H648 0.930 . S
C662 C660 1.395 1_545 S
C662 C665 1.403 . S
C663 C660 1.403 . S
C663 C664 1.524 . S
C663 C667 1.400 . S
C664 H649 0.960 . S
C664 H650 0.960 . S
C664 H651 0.960 . S
C664 C663 1.524 . S
C665 C662 1.403 . S
C665 C666 1.392 . S
C665 C669 1.495 . S
C666 C665 1.392 . S
C666 C667 1.385 1_545 S
C666 C668 1.478 . S
C667 H661 0.930 . S
C667 C663 1.400 . S
C667 C666 1.385 1_565 S
C668 C666 1.478 . S
C668 C670 1.381 . S
C668 C674 1.383 . S
C669 C665 1.495 . S
C669 H675 0.959 . S
C669 H676 0.961 . S
C669 H677 0.960 . S
C670 C668 1.381 . S
C670 C671 1.394 . S
C670 H678 0.930 . S
C671 C670 1.394 . S
C671 C672 1.383 . S
C671 H679 0.929 . S
C672 C671 1.383 . S
C672 C673 1.377 . S
C673 H657 0.930 . S
C673 C672 1.377 . S
C673 C674 1.379 . S
C674 H658 0.931 . S
C674 C668 1.383 . S
C674 C673 1.379 . S
H675 C669 0.959 . S
H676 C669 0.961 . S
H677 C669 0.960 . S
H678 C670 0.930 . S
H679 C671 0.929 . S
C113 C18 1.392 . S
C132 C5 1.388 . S
C149 C31 1.399 . S
C168 C44 1.374 . S
C185 C57 1.398 . S
C204 C70 1.370 . S
C221 C83 1.398 . S
C240 C96 1.420 . S
C257 C99 1.244 . S
C276 C8 1.274 . S
C293 C86 1.244 . S
C312 C21 1.262 . S
C329 C34 1.244 . S
C348 C73 1.258 . S
C365 C60 1.248 . S
C384 C47 1.229 . S
C401 C75 1.408 . S
C420 C36 1.414 . S
C437 C62 1.404 . S
C456 C49 1.396 . S
C473 C101 1.403 . S
C492 C10 1.391 . S
C509 C23 1.408 . S
C528 C88 1.414 . S
C545 C0 1.192 . S
C564 C26 1.201 . S
C581 C39 1.200 . S
C600 C13 1.180 . S
C617 C78 1.192 . S
C636 C52 1.181 . S
C653 C65 1.201 . S
C672 C91 1.214 . S
