# Generated by pormake.
# Topology qtz-e, (6)-cn, num edge types: 1
# Building blocks:
#     Node 0, Type 0, BuildingBlock: KUMBOL_clean_sbu_1, # of connection points: 6
#     Node 1, Type 0, BuildingBlock: KUMBOL_clean_sbu_1, # of connection points: 6
#     Node 2, Type 0, BuildingBlock: KUMBOL_clean_sbu_1, # of connection points: 6
#     Node 3, Type 0, BuildingBlock: KUMBOL_clean_sbu_1, # of connection points: 6
#     Node 4, Type 0, BuildingBlock: KUMBOL_clean_sbu_1, # of connection points: 6
#     Node 5, Type 0, BuildingBlock: KUMBOL_clean_sbu_1, # of connection points: 6
#     Edge 6, Type (0, 0), BuildingBlock: CIFDUS_clean_linker_0, # of connection points: 2
#     Edge 7, Type (0, 0), BuildingBlock: CIFDUS_clean_linker_0, # of connection points: 2
#     Edge 8, Type (0, 0), BuildingBlock: CIFDUS_clean_linker_0, # of connection points: 2
#     Edge 9, Type (0, 0), BuildingBlock: CIFDUS_clean_linker_0, # of connection points: 2
#     Edge 10, Type (0, 0), BuildingBlock: CIFDUS_clean_linker_0, # of connection points: 2
#     Edge 11, Type (0, 0), BuildingBlock: CIFDUS_clean_linker_0, # of connection points: 2
#     Edge 12, Type (0, 0), BuildingBlock: CIFDUS_clean_linker_0, # of connection points: 2
#     Edge 13, Type (0, 0), BuildingBlock: CIFDUS_clean_linker_0, # of connection points: 2
#     Edge 14, Type (0, 0), BuildingBlock: CIFDUS_clean_linker_0, # of connection points: 2
#     Edge 15, Type (0, 0), BuildingBlock: CIFDUS_clean_linker_0, # of connection points: 2
#     Edge 16, Type (0, 0), BuildingBlock: CIFDUS_clean_linker_0, # of connection points: 2
#     Edge 17, Type (0, 0), BuildingBlock: CIFDUS_clean_linker_0, # of connection points: 2
#     Edge 18, Type (0, 0), BuildingBlock: CIFDUS_clean_linker_0, # of connection points: 2
#     Edge 19, Type (0, 0), BuildingBlock: CIFDUS_clean_linker_0, # of connection points: 2
#     Edge 20, Type (0, 0), BuildingBlock: CIFDUS_clean_linker_0, # of connection points: 2
#     Edge 21, Type (0, 0), BuildingBlock: CIFDUS_clean_linker_0, # of connection points: 2
#     Edge 22, Type (0, 0), BuildingBlock: CIFDUS_clean_linker_0, # of connection points: 2
#     Edge 23, Type (0, 0), BuildingBlock: CIFDUS_clean_linker_0, # of connection points: 2
# Relax obj value: 0.147
# Max RMSD: 0.212
# Mean RMSD: 0.212
data_MOF--net-qtz-e--node1-KUMBOL_clean_sbu_1--edge1-CIFDUS_clean_linker_0
_symmetry_space_group_name_H-M    P1
_symmetry_Int_Tables_number       1
_symmetry_cell_setting            triclinic
loop_
_symmetry_equiv_pos_as_xyz
'x, y, z'
_cell_length_a     24.56528
_cell_length_b     24.551262
_cell_length_c     44.99664
_cell_angle_alpha  89.939509
_cell_angle_beta   89.95412
_cell_angle_gamma 119.95311
loop_
_atom_site_label
_atom_site_type_symbol
_atom_site_fract_x
_atom_site_fract_y
_atom_site_fract_z
_atom_type_partial_charge
C0 C 0.40088 0.63448 0.05066 0.0
C1 C 0.40041 0.71747 0.02138 0.0
C2 C 0.36879 0.65639 0.03353 0.0
C3 C 0.46529 0.7557 0.02604 0.0
C4 C 0.46549 0.67368 0.05638 0.0
C5 C 0.49776 0.73386 0.04348 0.0
N6 N 0.36832 0.57614 0.06293 0.0
C7 C 0.39597 0.55638 0.08316 0.0
C8 C 0.49521 0.65198 0.07568 0.0
C9 C 0.45997 0.5937 0.08964 0.0
Gd10 Gd 0.18359 0.35169 0.99077 0.0
Gd11 Gd 0.26157 0.51756 0.0509 0.0
N12 N 0.30623 0.61771 0.02885 0.0
C13 C 0.36562 0.73854 0.0053 0.0
C14 C 0.27139 0.63921 0.01466 0.0
C15 C 0.30072 0.69951 0.00225 0.0
H16 H 0.2214 0.60898 0.01213 0.0
H17 H 0.27329 0.71583 0.99033 0.0
H18 H 0.29181 0.31005 0.01253 0.0
H19 H 0.36828 0.51185 0.09439 0.0
H20 H 0.29271 0.22374 0.03908 0.0
H21 H 0.3882 0.78522 -0.00437 0.0
H22 H 0.49057 0.80264 0.0167 0.0
H23 H 0.03462 0.30279 0.9763 0.0
H24 H 0.54478 0.68068 0.08069 0.0
H25 H 0.48206 0.57753 0.10541 0.0
H26 H 0.0751 0.07128 0.05268 0.0
H27 H 0.54754 0.76441 0.04741 0.0
H28 H 0.92215 0.11756 0.01221 0.0
H29 H 0.93019 0.2095 0.98547 0.0
N30 N 0.0843 0.26383 -0.00227 0.0
C31 C 0.08116 0.21384 0.01209 0.0
C32 C 0.03128 0.26281 0.98799 0.0
C33 C 0.96792 0.15835 0.00824 0.0
C34 C 0.97225 0.21013 0.99313 0.0
C35 C 0.02278 0.15965 0.01785 0.0
H36 H 0.97662 0.06662 0.03752 0.0
N37 N 0.19201 0.26978 0.01427 0.0
C38 C 0.13666 0.21702 0.02082 0.0
C39 C 0.19205 0.16857 0.04256 0.0
C40 C 0.13516 0.16524 0.0353 0.0
C41 C 0.24758 0.27144 0.0198 0.0
C42 C 0.24844 0.22158 0.03444 0.0
O43 O 0.29929 0.54831 0.00421 0.0
O44 O 0.23593 0.45041 0.00045 0.0
O45 O 0.23539 0.34259 0.95372 0.0
O46 O 0.14513 0.3342 0.94589 0.0
O47 O 0.17021 0.48934 0.0264 0.0
O48 O 0.13297 0.4097 0.98909 0.0
O49 O 0.13146 0.34028 0.03366 0.0
O50 O 0.21559 0.41207 0.06092 0.0
O51 O 0.19274 0.53199 0.07455 0.0
O52 O 0.28066 0.55516 0.0957 0.0
O53 O 0.28747 0.40132 0.00446 0.0
O54 O 0.2869 0.43958 0.0515 0.0
C55 C 0.27386 0.50145 0.98641 0.0
C56 C 0.13046 0.45465 0.00502 0.0
C57 C 0.17493 0.27471 0.91515 0.0
C58 C 0.19687 0.22948 0.87118 0.0
C59 C 0.11162 0.16311 0.90508 0.0
C60 C 0.1257 0.21492 0.92294 0.0
C61 C 0.1467 0.17017 0.87945 0.0
C62 C 0.21044 0.28185 0.88927 0.0
C63 C 0.19124 0.32939 0.93443 0.0
C64 C 0.07711 0.11137 0.04151 0.0
C65 C 0.02103 0.1086 0.03281 0.0
H66 H 0.19293 0.12985 0.05368 0.0
C67 C 0.15503 0.37014 0.05883 0.0
C68 C 0.31647 0.42901 0.02958 0.0
C69 C 0.195 0.53132 0.12694 0.0
C70 C 0.16383 0.55438 0.17438 0.0
C71 C 0.1361 0.44733 0.16221 0.0
C72 C 0.16705 0.46806 0.13499 0.0
C73 C 0.13409 0.49026 0.18182 0.0
C74 C 0.19394 0.57465 0.14677 0.0
C75 C 0.22714 0.55339 0.09837 0.0
H76 H 0.07329 0.11716 0.91114 0.0
H77 H 0.09828 0.20822 0.94286 0.0
H78 H 0.13397 0.12911 0.86589 0.0
H79 H 0.24923 0.32791 0.8836 0.0
H80 H 0.11469 0.3983 0.16837 0.0
H81 H 0.17032 0.43558 0.12028 0.0
H82 H 0.11146 0.47385 0.20323 0.0
H83 H 0.21715 0.62412 0.14092 0.0
C84 C 0.75972 0.38424 0.36695 0.0
C85 C 0.68202 0.36338 0.3286 0.0
C86 C 0.71561 0.34324 0.34658 0.0
C87 C 0.69432 0.42556 0.33084 0.0
C88 C 0.77093 0.44621 0.36974 0.0
C89 C 0.73864 0.46684 0.35133 0.0
N90 N 0.79032 0.36313 0.38458 0.0
C91 C 0.83023 0.4002 0.40628 0.0
C92 C 0.81343 0.48527 0.39137 0.0
C93 C 0.84247 0.46185 0.40999 0.0
Gd94 Gd 0.84489 0.18321 0.32108 0.0
Gd95 Gd 0.76599 0.25944 0.3765 0.0
N96 N 0.70513 0.28333 0.34458 0.0
C97 C 0.63649 0.32013 0.30916 0.0
C98 C 0.65887 0.2403 0.3267 0.0
C99 C 0.62447 0.25819 0.30843 0.0
H100 H 0.64944 0.19267 0.3261 0.0
H101 H 0.58864 0.22419 0.29383 0.0
H102 H 0.9923 0.2797 0.34467 0.0
H103 H 0.85199 0.38173 0.42094 0.0
H104 H 0.07982 0.27099 0.36605 0.0
H105 H 0.60972 0.33381 0.29497 0.0
H106 H 0.66924 0.44199 0.31707 0.0
H107 H 0.72814 0.0344 0.30896 0.0
H108 H 0.82314 0.53312 0.39428 0.0
H109 H 0.87398 0.49117 0.42731 0.0
H110 H 0.99927 0.0491 0.37448 0.0
H111 H 0.74695 0.51441 0.35306 0.0
H112 H 0.78946 0.90994 0.34087 0.0
H113 H 0.70777 0.92699 0.31787 0.0
N114 N 0.81931 0.07847 0.32844 0.0
C115 C 0.8654 0.07016 0.34055 0.0
C116 C 0.7636 0.02802 0.31991 0.0
C117 C 0.79842 0.95742 0.33747 0.0
C118 C 0.75212 0.96685 0.32455 0.0
C119 C 0.85611 0.00933 0.34541 0.0
H120 H 0.89827 0.9558 0.36175 0.0
N121 N 0.9297 0.18088 0.34348 0.0
C122 C 0.92251 0.12279 0.34781 0.0
C123 C 0.02865 0.16974 0.36655 0.0
C124 C 0.97165 0.11571 0.3598 0.0
C125 C 0.98557 0.23372 0.34941 0.0
C126 C 0.03567 0.22896 0.36123 0.0
O127 O 0.79341 0.301 0.33013 0.0
O128 O 0.77673 0.21265 0.30745 0.0
O129 O 0.91331 0.23568 0.28635 0.0
O130 O 0.84137 0.13929 0.27878 0.0
O131 O 0.73234 0.15715 0.36798 0.0
O132 O 0.73716 0.13393 0.32011 0.0
O133 O 0.84165 0.16187 0.37057 0.0
O134 O 0.83224 0.23522 0.40036 0.0
O135 O 0.6739 0.19719 0.39485 0.0
O136 O 0.74433 0.27407 0.42149 0.0
O137 O 0.9008 0.28841 0.33155 0.0
O138 O 0.8718 0.3086 0.37789 0.0
C139 C 0.79314 0.27159 0.3059 0.0
C140 C 0.70347 0.12608 0.34421 0.0
C141 C 0.93859 0.17521 0.25416 0.0
C142 C 0.01494 0.19655 0.21437 0.0
C143 C 0.99376 0.11643 0.25176 0.0
C144 C 0.95047 0.129 0.26561 0.0
C145 C 0.02568 0.14972 0.22635 0.0
C146 C 0.97086 0.20889 0.2285 0.0
C147 C 0.89185 0.18775 0.26842 0.0
C148 C 0.96226 0.05523 0.36491 0.0
C149 C 0.90468 1.00218 0.35777 0.0
H150 H 0.06754 0.16624 0.37576 0.0
C151 C 0.84243 0.18759 0.39654 0.0
C152 C 0.90912 0.32608 0.35435 0.0
C153 C 0.63889 0.24514 0.42935 0.0
C154 C 0.57582 0.25198 0.46933 0.0
C155 C 0.57367 0.29161 0.41999 0.0
C156 C 0.61526 0.27281 0.40982 0.0
C157 C 0.55444 0.28189 0.4496 0.0
C158 C 0.61852 0.23402 0.45892 0.0
C159 C 0.68598 0.22909 0.41957 0.0
H160 H 1.00233 0.08041 0.26065 0.0
H161 H 0.92586 0.10211 0.28507 0.0
H162 H 0.05826 0.13812 0.21584 0.0
H163 H 0.96201 0.24491 0.21976 0.0
H164 H 0.55644 0.31394 0.40491 0.0
H165 H 0.62869 0.27985 0.38679 0.0
H166 H 0.52308 0.29819 0.45702 0.0
H167 H 0.63561 0.21086 0.47361 0.0
C168 C 0.3926 0.75776 0.70118 0.0
C169 C 0.32828 0.65067 0.68352 0.0
C170 C 0.38608 0.69962 0.6942 0.0
C171 C 0.27738 0.66101 0.67985 0.0
C172 C 0.34094 0.76757 0.69839 0.0
C173 C 0.28365 0.71924 0.68732 0.0
N174 N 0.44874 0.80384 0.71183 0.0
C175 C 0.45424 0.85803 0.72274 0.0
C176 C 0.3478 0.825 0.70771 0.0
C177 C 0.40426 0.86986 0.72052 0.0
Gd178 Gd 0.69256 0.84666 0.65495 0.0
Gd179 Gd 0.52905 0.77884 0.71583 0.0
N180 N 0.43666 0.69136 0.69759 0.0
C181 C 0.32319 0.59258 0.67708 0.0
C182 C 0.43084 0.63385 0.69261 0.0
C183 C 0.37451 0.58401 0.68192 0.0
H184 H 0.46871 0.62527 0.69734 0.0
H185 H 0.37056 0.53876 0.67771 0.0
H186 H 0.73541 0.99843 0.67275 0.0
H187 H 0.49594 0.89038 0.7346 0.0
H188 H 0.82599 0.09038 0.69408 0.0
H189 H 0.27957 0.55378 0.66886 0.0
H190 H 0.23269 0.62399 0.6716 0.0
H191 H 0.7322 0.73628 0.65174 0.0
H192 H 0.30908 0.83418 0.70619 0.0
H193 H 0.40855 0.91274 0.72936 0.0
H194 H 0.97813 0.02521 0.70926 0.0
H195 H 0.24359 0.7261 0.68488 0.0
H196 H 0.92121 0.81397 0.68321 0.0
H197 H 0.82421 0.72409 0.66302 0.0
N198 N 0.77706 0.8316 0.66557 0.0
C199 C 0.82979 0.88167 0.67643 0.0
C200 C 0.77443 0.77557 0.66061 0.0
C201 C 0.88108 0.81953 0.67826 0.0
C202 C 0.82638 0.76862 0.66692 0.0
C203 C 0.88328 0.87692 0.68323 0.0
H204 H 0.97841 0.92652 0.70032 0.0
N205 N 0.77618 0.93946 0.67531 0.0
C206 C 0.82921 0.93709 0.68165 0.0
C207 C 0.88124 0.045 0.6983 0.0
C208 C 0.88292 0.98961 0.6935 0.0
C209 C 0.77525 0.99421 0.67914 0.0
C210 C 0.82731 0.04735 0.69094 0.0
O211 O 0.4968 0.77533 0.66839 0.0
O212 O 0.59291 0.80035 0.6649 0.0
O213 O 0.71433 0.9027 0.61437 0.0
O214 O 0.70757 0.81034 0.61349 0.0
O215 O 0.56982 0.71532 0.70519 0.0
O216 O 0.62837 0.73886 0.6599 0.0
O217 O 0.71044 0.82578 0.70112 0.0
O218 O 0.63452 0.84242 0.71913 0.0
O219 O 0.51264 0.71679 0.75345 0.0
O220 O 0.51273 0.80437 0.7596 0.0
O221 O 0.64384 0.90558 0.65934 0.0
O222 O 0.5995 0.88319 0.70692 0.0
C223 C 0.54249 0.78814 0.65057 0.0
C224 C 0.59629 0.70129 0.6828 0.0
C225 C 0.7334 0.86788 0.56653 0.0
C226 C 0.76236 0.93045 0.52076 0.0
C227 C 0.75236 0.82674 0.52104 0.0
C228 C 0.73659 0.81985 0.55111 0.0
C229 C 0.76542 0.88162 0.50597 0.0
C230 C 0.74565 0.92301 0.55111 0.0
C231 C 0.71857 0.86044 0.59868 0.0
C232 C 0.93658 0.98534 0.70011 0.0
C233 C 0.93677 0.92916 0.69499 0.0
H234 H 0.9215 0.08636 0.70736 0.0
C235 C 0.67535 0.82348 0.72346 0.0
C236 C 0.61204 0.91398 0.68118 0.0
C237 C 0.4401 0.71698 0.78764 0.0
C238 C 0.37896 0.64799 0.82837 0.0
C239 C 0.33165 0.69045 0.79489 0.0
C240 C 0.38794 0.72245 0.77931 0.0
C241 C 0.32712 0.65377 0.81938 0.0
C242 C 0.43521 0.6792 0.81199 0.0
C243 C 0.49978 0.75068 0.77129 0.0
H244 H 0.75462 0.7894 0.50935 0.0
H245 H 0.72714 0.77691 0.56231 0.0
H246 H 0.77716 0.88555 0.48256 0.0
H247 H 0.74341 0.96047 0.56275 0.0
H248 H 0.29186 0.69531 0.78839 0.0
H249 H 0.39059 0.75212 0.76113 0.0
H250 H 0.2836 0.63187 0.83187 0.0
H251 H 0.47547 0.67491 0.81835 0.0
C252 C 0.64248 0.36353 0.02346 0.0
C253 C 0.69522 0.30876 0.0055 0.0
C254 C 0.69778 0.36338 0.01701 0.0
C255 C 0.63662 0.25523 -0.00014 0.0
C256 C 0.58361 0.30951 0.01847 0.0
C257 C 0.58098 0.25561 0.00632 0.0
N258 N 0.64656 0.41658 0.03512 0.0
C259 C 0.59405 0.41693 0.0444 0.0
C260 C 0.5292 0.31098 0.02639 0.0
C261 C 0.53452 0.36472 0.03977 0.0
Gd262 Gd 0.83009 0.66926 0.98623 0.0
Gd263 Gd 0.74802 0.50205 0.04259 0.0
N264 N 0.75389 0.41625 0.02259 0.0
C265 C 0.75162 0.30908 0.0006 0.0
C266 C 0.80854 0.41487 0.01997 0.0
C267 C 0.80843 0.36205 0.00829 0.0
H268 H 0.85229 0.45336 0.0277 0.0
H269 H 0.85214 0.36181 0.00576 0.0
H270 H 0.73145 0.71745 0.01365 0.0
H271 H 0.59856 0.45634 0.05659 0.0
H272 H 0.73985 0.81013 0.0382 0.0
H273 H 0.75168 0.26805 0.9918 0.0
H274 H 0.63381 0.21295 0.99091 0.0
H275 H 0.97642 0.70334 0.97238 0.0
H276 H 0.48305 0.27037 0.02302 0.0
H277 H 0.49292 0.36552 0.04706 0.0
H278 H 0.96131 0.95519 0.04297 0.0
H279 H 0.53618 0.21368 0.00225 0.0
H280 H 0.10106 0.89043 0.00304 0.0
H281 H 0.08435 0.79231 0.97933 0.0
N282 N 0.93324 0.75051 0.99244 0.0
C283 C 0.94113 0.80388 0.00536 0.0
C284 C 0.98345 0.74578 0.98302 0.0
C285 C 0.05371 0.85147 0.00016 0.0
C286 C 0.04449 0.79612 0.9868 0.0
C287 C 1.00173 0.85591 0.00963 0.0
H288 H 0.0547 0.95097 0.02666 0.0
N289 N 0.8305 0.75468 0.01031 0.0
C290 C 0.88829 0.80601 0.01462 0.0
C291 C 0.84094 0.86178 0.03707 0.0
C292 C 0.89502 0.86078 0.02825 0.0
C293 C 0.77756 0.75623 0.01818 0.0
C294 C 0.78201 0.8094 0.03189 0.0
O295 O 0.70827 0.47394 -0.00369 0.0
O296 O 0.77743 0.56988 -0.00604 0.0
O297 O 0.77965 0.68414 0.95069 0.0
O298 O 0.86858 0.6895 0.94135 0.0
O299 O 0.85171 0.55016 0.02829 0.0
O300 O 0.87167 0.60426 0.98232 0.0
O301 O 0.87419 0.68292 0.03159 0.0
O302 O 0.78498 0.6056 0.05222 0.0
O303 O 0.79609 0.4855 0.07894 0.0
O304 O 0.70269 0.47163 0.08554 0.0
O305 O 0.7254 0.62372 -0.00263 0.0
O306 O 0.70252 0.56415 0.04152 0.0
C307 C 0.73657 0.52164 0.97924 0.0
C308 C 0.88403 0.57341 0.00321 0.0
C309 C 0.84371 0.75893 0.91567 0.0
C310 C 0.81886 0.81765 0.87959 0.0
C311 C 0.90933 0.87234 0.91211 0.0
C312 C 0.89583 0.81532 0.92518 0.0
C313 C 0.87094 0.87369 0.88957 0.0
C314 C 0.80568 0.7603 0.89274 0.0
C315 C 0.82443 0.69944 0.93139 0.0
C316 C 0.95532 0.91283 0.03251 0.0
C317 C 1.00853 0.91043 0.02321 0.0
H318 H 0.84413 0.90296 0.04759 0.0
C319 C 0.84465 0.64833 0.05483 0.0
C320 C 0.68671 0.58929 0.01918 0.0
C321 C 0.72638 0.3991 0.10793 0.0
C322 C 0.74543 0.33158 0.14063 0.0
C323 C 0.65546 0.28613 0.10756 0.0
C324 C 0.67164 0.34604 0.09756 0.0
C325 C 0.69212 0.27873 0.12899 0.0
C326 C 0.76321 0.39157 0.1294 0.0
C327 C 0.74661 0.4621 0.096 0.0
H328 H 0.94952 0.91567 0.91958 0.0
H329 H 0.92554 0.81549 0.94293 0.0
H330 H 0.88258 0.91838 0.87957 0.0
H331 H 0.76493 0.71688 0.88563 0.0
H332 H 0.61342 0.24552 0.0993 0.0
H333 H 0.64082 0.35056 0.08207 0.0
H334 H 0.67679 0.23204 0.13758 0.0
H335 H 0.80482 0.43252 0.13789 0.0
C336 C 0.25319 0.62776 0.37706 0.0
C337 C 0.35006 0.644 0.35453 0.0
C338 C 0.31199 0.66766 0.36511 0.0
C339 C 0.3271 0.5789 0.35528 0.0
C340 C 0.23134 0.56281 0.3793 0.0
C341 C 0.26783 0.53837 0.36762 0.0
N342 N 0.22015 0.65337 0.38897 0.0
C343 C 0.16832 0.61769 0.40591 0.0
C344 C 0.17504 0.52497 0.39452 0.0
C345 C 0.14422 0.5528 0.40848 0.0
Gd346 Gd 0.17807 0.83602 0.31946 0.0
Gd347 Gd 0.26345 0.76245 0.3833 0.0
N348 N 0.33264 0.73041 0.36476 0.0
C349 C 0.41053 0.6867 0.34422 0.0
C350 C 0.39259 0.77254 0.35616 0.0
C351 C 0.43211 0.75127 0.34536 0.0
H352 H 0.40927 0.82241 0.35716 0.0
H353 H 0.4792 0.78464 0.338 0.0
H354 H 0.03192 0.73176 0.34629 0.0
H355 H 0.14616 0.63964 0.41779 0.0
H356 H 0.94386 0.73506 0.36961 0.0
H357 H 0.44135 0.67042 0.33595 0.0
H358 H 0.35542 0.55961 0.34706 0.0
H359 H 0.28005 0.98277 0.30101 0.0
H360 H 0.15659 0.47483 0.39679 0.0
H361 H 0.10241 0.52441 0.42157 0.0
H362 H 1.0047 0.95316 0.36928 0.0
H363 H 0.25156 0.48849 0.36889 0.0
H364 H 0.20422 0.09969 0.32654 0.0
H365 H 0.28987 0.08803 0.30407 0.0
N366 N 0.19039 0.93635 0.32171 0.0
C367 C 0.14261 0.94141 0.33386 0.0
C368 C 0.24271 0.98774 0.31095 0.0
C369 C 0.19978 0.05358 0.32527 0.0
C370 C 0.24828 0.04721 0.31259 0.0
C371 C 0.14607 1.00033 0.33609 0.0
H372 H 0.09782 0.04904 0.35094 0.0
N373 N 0.08863 0.83134 0.34154 0.0
C374 C 0.09034 0.8874 0.34423 0.0
C375 C 0.98705 0.83569 0.36661 0.0
C376 C 0.03979 0.89109 0.35698 0.0
C377 C 0.0361 0.77692 0.3499 0.0
C378 C 0.98506 0.77836 0.36284 0.0
O379 O 0.27372 0.73565 0.33621 0.0
O380 O 0.22372 0.78454 0.3317 0.0
O381 O 0.11356 0.78599 0.28357 0.0
O382 O 0.20446 0.86545 0.27335 0.0
O383 O 0.3248 0.8585 0.36212 0.0
O384 O 0.28685 0.88646 0.31911 0.0
O385 O 0.2117 0.89069 0.36253 0.0
O386 O 0.20084 0.80566 0.38676 0.0
O387 O 0.3403 0.82581 0.41211 0.0
O388 O 0.26013 0.7433 0.43038 0.0
O389 O 0.12383 0.73114 0.33304 0.0
O390 O 0.15797 0.72792 0.38087 0.0
C391 C 0.24738 0.75518 0.31793 0.0
C392 C 0.33168 0.89469 0.33867 0.0
C393 C 0.11861 0.84452 0.24149 0.0
C394 C 0.05328 0.8234 0.19713 0.0
C395 C 0.07769 0.91329 0.2286 0.0
C396 C 0.11266 0.89737 0.2475 0.0
C397 C 0.04779 0.8764 0.20372 0.0
C398 C 0.08936 0.80797 0.21607 0.0
C399 C 0.14991 0.82357 0.26289 0.0
C400 C 0.04309 0.94969 0.35944 0.0
C401 C 0.09605 1.00419 0.34899 0.0
H402 H 0.94725 0.83655 0.3765 0.0
C403 C 0.22038 0.8662 0.38683 0.0
C404 C 0.12092 0.69995 0.3578 0.0
C405 C 0.35872 0.76951 0.4492 0.0
C406 C 0.43235 0.78221 0.48836 0.0
C407 C 0.39397 0.69367 0.45426 0.0
C408 C 0.35732 0.71422 0.44015 0.0
C409 C 0.43063 0.72677 0.47844 0.0
C410 C 0.39733 0.80425 0.47285 0.0
C411 C 0.31721 0.78862 0.43498 0.0
H412 H 0.07322 0.95408 0.23342 0.0
H413 H 0.13416 0.92574 0.26701 0.0
H414 H 0.02085 0.88964 0.18941 0.0
H415 H 0.09312 0.76659 0.21154 0.0
H416 H 0.39188 0.65049 0.44725 0.0
H417 H 0.32636 0.68567 0.42284 0.0
H418 H 0.45475 0.70653 0.49016 0.0
H419 H 0.39807 0.8469 0.47971 0.0
C420 C 0.65938 0.27545 0.69983 0.0
C421 C 0.7176 0.3647 0.66689 0.0
C422 C 0.66344 0.32593 0.68381 0.0
C423 C 0.76743 0.35211 0.66624 0.0
C424 C 0.70953 0.26295 0.69932 0.0
C425 C 0.76338 0.30137 0.68237 0.0
N426 N 0.6064 0.2385 0.71578 0.0
C427 C 0.60199 0.19069 0.73295 0.0
C428 C 0.70417 0.21227 0.71597 0.0
C429 C 0.65042 0.17641 0.73311 0.0
Gd430 Gd 0.37129 0.182 0.65693 0.0
Gd431 Gd 0.52708 0.26497 0.71303 0.0
N432 N 0.61336 0.33558 0.68392 0.0
C433 C 0.71989 0.41475 0.65092 0.0
C434 C 0.61619 0.38533 0.66908 0.0
C435 C 0.66914 0.42534 0.6522 0.0
H436 H 0.57799 0.39447 0.67013 0.0
H437 H 0.67077 0.46438 0.64022 0.0
H438 H 0.33182 0.04513 0.69327 0.0
H439 H 0.5618 0.16501 0.74726 0.0
H440 H 0.24355 0.96601 0.72249 0.0
H441 H 0.76069 0.44565 0.63767 0.0
H442 H 0.80931 0.38131 0.65327 0.0
H443 H 0.32921 0.28557 0.63523 0.0
H444 H 0.74163 0.20109 0.71612 0.0
H445 H 0.64652 0.13815 0.74664 0.0
H446 H 0.09086 0.03311 0.71974 0.0
H447 H 0.80227 0.29234 0.68165 0.0
H448 H 0.14298 0.22306 0.66734 0.0
H449 H 0.23746 0.30093 0.63993 0.0
N450 N 0.28691 0.2003 0.65989 0.0
C451 C 0.23571 0.15701 0.67515 0.0
C452 C 0.28829 0.25163 0.64743 0.0
C453 C 0.1831 0.21616 0.6654 0.0
C454 C 0.23638 0.26029 0.64994 0.0
C455 C 0.1823 0.16382 0.6783 0.0
H456 H 0.08869 0.12313 0.697 0.0
N457 N 0.29019 0.1019 0.68535 0.0
C458 C 0.23727 0.10635 0.68818 0.0
C459 C 0.18776 0.01059 0.71714 0.0
C460 C 0.18492 0.06109 0.7044 0.0
C461 C 0.29214 0.05144 0.69687 0.0
C462 C 0.24143 1.00559 0.71319 0.0
O463 O 0.54573 0.24138 0.66654 0.0
O464 O 0.46973 0.25354 0.64591 0.0
O465 O 0.35801 0.11165 0.62389 0.0
O466 O 0.33221 0.1814 0.61334 0.0
O467 O 0.47913 0.32067 0.70098 0.0
O468 O 0.42802 0.28975 0.65516 0.0
O469 O 0.35618 0.20953 0.70314 0.0
O470 O 0.42862 0.1966 0.72956 0.0
O471 O 0.5452 0.34341 0.74185 0.0
O472 O 0.57001 0.27449 0.75611 0.0
O473 O 0.42263 0.12796 0.66721 0.0
O474 O 0.4598 0.16097 0.71446 0.0
C475 C 0.51425 0.24017 0.64295 0.0
C476 C 0.45447 0.33127 0.67709 0.0
C477 C 0.27627 0.08256 0.58892 0.0
C478 C 0.22848 1.00577 0.54859 0.0
C479 C 0.16318 0.01441 0.58696 0.0
C480 C 0.2164 0.06209 0.60089 0.0
C481 C 0.16909 0.98617 0.56116 0.0
C482 C 0.28218 0.05474 0.56249 0.0
C483 C 0.33279 0.13134 0.60429 0.0
C484 C 0.13145 0.06748 0.70737 0.0
C485 C 0.13016 0.1187 0.69438 0.0
H486 H 0.14854 0.97487 0.72976 0.0
C487 C 0.38126 0.20739 0.72858 0.0
C488 C 0.45099 0.12459 0.69146 0.0
C489 C 0.53422 0.31682 0.79268 0.0
C490 C 0.53418 0.36054 0.84135 0.0
C491 C 0.45321 0.25403 0.8286 0.0
C492 C 0.48065 0.26027 0.8008 0.0
C493 C 0.47972 0.30354 0.84879 0.0
C494 C 0.56054 0.36704 0.81283 0.0
C495 C 0.56434 0.32243 0.76378 0.0
H496 H 0.11713 0.99887 0.59635 0.0
H497 H 0.21081 0.08269 0.6211 0.0
H498 H 0.12707 0.94887 0.55092 0.0
H499 H 0.32836 0.07001 0.55323 0.0
H500 H 0.4124 0.21003 0.83491 0.0
H501 H 0.46096 0.22049 0.7859 0.0
H502 H 0.45893 0.29587 0.87071 0.0
H503 H 0.60219 0.41044 0.80647 0.0
H504 H 0.14225 0.69577 0.2848 0.0
H505 H 0.34342 0.78011 0.28095 0.0
H506 H 0.33533 0.73249 0.23215 0.0
H507 H 0.26979 0.65259 0.1954 0.0
H508 H 0.06812 0.55704 0.20354 0.0
H509 H 0.07693 0.62328 0.24603 0.0
C510 C 0.18429 0.7055 0.27288 0.0
C511 C 0.24329 0.74179 0.28609 0.0
C512 C 0.17879 0.67476 0.24593 0.0
C513 C 0.29756 0.75269 0.27079 0.0
C514 C 0.29286 0.72505 0.24313 0.0
C515 C 0.22791 0.64759 0.20609 0.0
C516 C 0.16844 0.6004 0.19663 0.0
C517 C 0.23355 0.6838 0.23115 0.0
C518 C 0.11427 0.59318 0.21072 0.0
C519 C 0.11936 0.63091 0.23492 0.0
H520 H 0.44907 0.22296 0.59321 0.0
H521 H 0.62613 0.24954 0.62488 0.0
H522 H 0.66089 0.25336 0.57329 0.0
H523 H 0.64221 0.25726 0.51942 0.0
H524 H 0.45859 0.21784 0.48973 0.0
H525 H 0.42421 0.20947 0.54095 0.0
C526 C 0.49445 0.22753 0.58904 0.0
C527 C 0.53476 0.2358 0.61276 0.0
C528 C 0.51297 0.22801 0.55977 0.0
C529 C 0.59425 0.24325 0.60689 0.0
C530 C 0.61405 0.24551 0.57745 0.0
C531 C 0.59428 0.24557 0.52405 0.0
C532 C 0.55367 0.2401 0.50062 0.0
C533 C 0.57403 0.23909 0.5537 0.0
C534 C 0.4917 0.22485 0.50723 0.0
C535 C 0.47173 0.21946 0.53651 0.0
H536 H 0.38586 0.5747 0.96082 0.0
H537 H 0.19097 0.44881 0.94115 0.0
H538 H 0.21071 0.47153 0.8884 0.0
H539 H 0.27964 0.54016 0.84929 0.0
H540 H 0.47045 0.68063 0.8706 0.0
H541 H 0.45722 0.63831 0.92072 0.0
C542 C 0.34829 0.55105 0.94476 0.0
C543 C 0.28757 0.5076 0.95454 0.0
C544 C 0.35942 0.56787 0.9147 0.0
C545 C 0.23868 0.47882 0.93391 0.0
C546 C 0.24981 0.49316 0.90377 0.0
C547 C 0.31848 0.56136 0.86484 0.0
C548 C 0.3754 0.61433 0.85634 0.0
C549 C 0.30949 0.53931 0.89411 0.0
C550 C 0.42601 0.63979 0.87643 0.0
C551 C 0.41831 0.61611 0.90528 0.0
H552 H 0.80448 0.22595 0.25345 0.0
H553 H 0.7998 0.38374 0.29288 0.0
H554 H 0.79622 0.42316 0.24345 0.0
H555 H 0.7772 0.4026 0.19015 0.0
H556 H 0.7807 0.24386 0.15109 0.0
H557 H 0.80435 0.21583 0.19961 0.0
C558 C 0.80397 0.26963 0.25127 0.0
C559 C 0.80069 0.30102 0.27666 0.0
C560 C 0.80178 0.29168 0.22298 0.0
C561 C 0.80094 0.35804 0.27357 0.0
C562 C 0.79905 0.38063 0.24536 0.0
C563 C 0.78524 0.36313 0.19204 0.0
C564 C 0.77611 0.32455 0.16732 0.0
C565 C 0.79701 0.34644 0.22001 0.0
C566 C 0.78637 0.2734 0.17005 0.0
C567 C 0.79963 0.2573 0.19772 0.0
H568 H 0.47925 0.83761 0.62377 0.0
H569 H 0.59354 0.75377 0.60672 0.0
H570 H 0.58736 0.76679 0.55333 0.0
H571 H 0.53701 0.78766 0.51207 0.0
H572 H 0.397 0.84105 0.53007 0.0
H573 H 0.42857 0.85901 0.58183 0.0
C574 C 0.50338 0.82313 0.60821 0.0
C575 C 0.53979 0.79796 0.61879 0.0
C576 C 0.49506 0.82597 0.57761 0.0
C577 C 0.56941 0.77755 0.59883 0.0
C578 C 0.56465 0.78379 0.56836 0.0
C579 C 0.51292 0.80284 0.52725 0.0
C580 C 0.46306 0.81052 0.51713 0.0
C581 C 0.52614 0.80629 0.55755 0.0
C582 C 0.43538 0.83421 0.5369 0.0
C583 C 0.45255 0.84345 0.5668 0.0
H584 H 0.6219 0.49552 0.96307 0.0
H585 H 0.80289 0.54086 0.92828 0.0
H586 H 0.75635 0.50218 0.87914 0.0
H587 H 0.66063 0.43587 0.85026 0.0
H588 H 0.48028 0.3963 0.88485 0.0
H589 H 0.53057 0.45398 0.93005 0.0
C590 C 0.65154 0.5 0.94428 0.0
C591 C 0.7154 0.5212 0.94888 0.0
C592 C 0.62437 0.47742 0.91645 0.0
C593 C 0.75362 0.52536 0.92487 0.0
C594 C 0.72683 0.50255 0.89696 0.0
C595 C 0.63235 0.44169 0.86708 0.0
C596 C 0.56631 0.40957 0.86455 0.0
C597 C 0.66164 0.47551 0.89298 0.0
C598 C 0.53086 0.41822 0.88671 0.0
C599 C 0.55956 0.45151 0.91252 0.0
H600 H 0.40389 0.49454 0.98757 0.0
H601 H 0.38093 0.42033 0.07637 0.0
H602 H 0.4951 0.47497 0.08283 0.0
H603 H 0.6006 0.54682 0.06385 0.0
H604 H 0.62453 0.60413 0.97193 0.0
H605 H 0.511 0.55954 0.96697 0.0
C606 C 0.42415 0.49023 0.00821 0.0
C607 C 0.38466 0.45505 0.03179 0.0
C608 C 0.48969 0.52111 0.01158 0.0
C609 C 0.41089 0.44828 0.05821 0.0
C610 C 0.47593 0.47978 0.06195 0.0
C611 C 0.58096 0.54815 0.04247 0.0
C612 C 0.62082 0.57583 0.01797 0.0
C613 C 0.51564 0.51711 0.03895 0.0
C614 C 0.59495 0.5819 0.99112 0.0
C615 C 0.5299 0.55554 0.98809 0.0
H616 H 0.09277 0.60876 0.3166 0.0
H617 H 0.04511 0.63993 0.40469 0.0
H618 H 0.98272 0.52653 0.41286 0.0
H619 H 0.946 0.419 0.39573 0.0
H620 H 0.97985 0.38696 0.30513 0.0
H621 H 0.04628 0.50012 0.29758 0.0
C622 C 0.06729 0.5907 0.33723 0.0
C623 C 0.07402 0.63245 0.36017 0.0
C624 C 0.03041 0.52533 0.34154 0.0
C625 C 0.04086 0.60846 0.38684 0.0
C626 C 1.0053 0.54369 0.39152 0.0
C627 C 0.96598 0.43654 0.37404 0.0
C628 C 0.95606 0.39409 0.35093 0.0
C629 C 1.00054 0.50171 0.3692 0.0
C630 C 0.98623 0.41814 0.32347 0.0
C631 C 0.02372 0.48303 0.31896 0.0
H632 H 0.49113 0.07972 0.64582 0.0
H633 H 0.46357 0.06906 0.74081 0.0
H634 H 0.52485 0.01645 0.74609 0.0
H635 H 0.58813 0.9758 0.72404 0.0
H636 H 0.59187 0.9591 0.62891 0.0
H637 H 0.54193 0.02364 0.62307 0.0
C638 C 0.49743 0.06457 0.66756 0.0
C639 C 0.47511 0.08039 0.69307 0.0
C640 C 0.52995 0.03111 0.67034 0.0
C641 C 0.48228 0.05929 0.72099 0.0
C642 C 0.51758 0.02956 0.72406 0.0
C643 C 0.57642 0.98473 0.70202 0.0
C644 C 0.5913 0.96062 0.67709 0.0
C645 C 0.54221 0.01595 0.69894 0.0
C646 C 0.57998 0.97637 0.64859 0.0
C647 C 0.55066 0.01251 0.64524 0.0
H648 H 0.54987 0.61363 0.63805 0.0
H649 H 0.6058 0.64085 0.73017 0.0
H650 H 0.56131 0.52859 0.73683 0.0
H651 H 0.50227 0.42337 0.71799 0.0
H652 H 0.44743 0.39007 0.62576 0.0
H653 H 0.49267 0.50372 0.618 0.0
C654 C 0.55394 0.59479 0.65921 0.0
C655 C 0.58261 0.63564 0.68342 0.0
C656 C 0.52625 0.52913 0.66321 0.0
C657 C 0.58564 0.61065 0.71105 0.0
C658 C 0.55915 0.54629 0.71503 0.0
C659 C 0.49996 0.44044 0.69605 0.0
C660 C 0.47156 0.39793 0.67249 0.0
C661 C 0.52837 0.50521 0.6915 0.0
C662 C 0.46853 0.42155 0.64441 0.0
C663 C 0.49522 0.48664 0.63987 0.0
H664 H 0.11779 0.54851 0.02963 0.0
H665 H 0.03266 0.40034 0.96435 0.0
H666 H 0.95178 0.42913 0.95504 0.0
H667 H 0.90194 0.49323 0.96819 0.0
H668 H 0.99083 0.64009 0.03342 0.0
H669 H 0.07586 0.61674 0.03904 0.0
C670 C 0.08257 0.52265 0.01289 0.0
C671 C 0.08175 0.47191 -0.0022 0.0
C672 C 0.0374 0.54007 0.00735 0.0
C673 C 0.03453 0.43922 0.97652 0.0
C674 C 0.98841 0.45593 0.97107 0.0
C675 C 0.94112 0.5211 0.98289 0.0
C676 C 0.94094 0.56864 0.0003 0.0
C677 C 0.98908 0.50601 0.98659 0.0
C678 C 0.99069 0.60372 0.01979 0.0
C679 C 0.03883 0.58995 0.02316 0.0
H680 H 0.42188 0.94833 0.38002 0.0
H681 H 0.39134 0.95268 0.28589 0.0
H682 H 0.50497 0.02314 0.27851 0.0
H683 H 0.61441 0.08043 0.29937 0.0
H684 H 0.63888 0.06875 0.39379 0.0
H685 H 0.52647 1.00237 0.4002 0.0
C686 C 0.43966 0.96447 0.35774 0.0
C687 C 0.39795 0.94471 0.33352 0.0
C688 C 0.50442 1.00283 0.35367 0.0
C689 C 0.42221 0.9674 0.305 0.0
C690 C 0.4873 1.00707 0.30076 0.0
C691 C 0.59493 0.06258 0.32121 0.0
C692 C 0.6352 0.08 0.34609 0.0
C693 C 0.52914 0.02429 0.32493 0.0
C694 C 0.60922 0.05687 0.3743 0.0
C695 C 0.54477 0.01894 0.37806 0.0
H696 H 0.34437 0.2882 0.74835 0.0
H697 H 0.33983 0.11517 0.77029 0.0
H698 H 0.28285 0.10687 0.81636 0.0
H699 H 0.23615 0.14983 0.8508 0.0
H700 H 0.24163 0.3239 0.82944 0.0
H701 H 0.29819 0.33198 0.7834 0.0
C702 C 0.33068 0.24874 0.7633 0.0
C703 C 0.34622 0.20239 0.75612 0.0
C704 C 0.29904 0.24503 0.79005 0.0
C705 C 0.32859 0.15151 0.77555 0.0
C706 C 0.29602 0.14679 0.80183 0.0
C707 C 0.24919 0.18935 0.836 0.0
C708 C 0.2341 0.23599 0.84368 0.0
C709 C 0.28133 0.19347 0.80942 0.0
C710 C 0.25293 0.28755 0.8244 0.0
C711 C 0.2849 0.29196 0.79788 0.0
H712 H 0.97042 0.23053 0.16603 0.0
H713 H 0.13898 0.24219 0.20171 0.0
H714 H 0.19622 0.29424 0.15654 0.0
H715 H 0.19904 0.33652 0.10667 0.0
H716 H 0.03226 0.32808 0.07106 0.0
H717 H 0.97376 0.27475 0.11623 0.0
C718 C 0.01981 0.24502 0.16405 0.0
C719 C 0.05005 0.23186 0.18727 0.0
C720 C 0.05277 0.27522 0.13788 0.0
C721 C 0.11407 0.25063 0.18409 0.0
C722 C 0.14703 0.28064 0.15826 0.0
C723 C 0.1499 0.323 0.10889 0.0
C724 C 0.12003 0.33689 0.08588 0.0
C725 C 0.11685 0.29287 0.13495 0.0
C726 C 0.05616 0.31826 0.0887 0.0
C727 C 0.02285 0.28795 0.11451 0.0
H728 H 0.86146 1.00001 0.48437 0.0
H729 H 0.69326 0.98998 0.51933 0.0
H730 H 0.70829 0.0762 0.48651 0.0
H731 H 0.76268 0.14565 0.44354 0.0
H732 H 0.92979 0.15395 0.40866 0.0
H733 H 0.92209 0.07732 0.44557 0.0
C734 C 0.82842 0.01712 0.48497 0.0
C735 C 0.77593 0.98819 0.50399 0.0
C736 C 0.83701 0.06607 0.46584 0.0
C737 C 0.73409 0.01155 0.50493 0.0
C738 C 0.74249 0.0606 0.48604 0.0
C739 C 0.79832 0.13192 0.44466 0.0
C740 C 0.84635 0.15446 0.42314 0.0
C741 C 0.79294 0.08718 0.46587 0.0
C742 C 0.89175 0.13588 0.42452 0.0
C743 C 0.88739 0.09229 0.44571 0.0
H744 H 0.6761 0.8733 0.77769 0.0
H745 H 0.70572 0.73425 0.73383 0.0
H746 H 0.74476 0.71387 0.77981 0.0
H747 H 0.7838 0.74537 0.83036 0.0
H748 H 0.76757 0.89363 0.87307 0.0
H749 H 0.71113 0.90155 0.82988 0.0
C750 C 0.68958 0.83746 0.77858 0.0
C751 C 0.68692 0.80434 0.75269 0.0
C752 C 0.71598 0.82888 0.80473 0.0
C753 C 0.70615 0.75927 0.75372 0.0
C754 C 0.72921 0.74814 0.7799 0.0
C755 C 0.76686 0.77859 0.8304 0.0
C756 C 0.77983 0.81889 0.85475 0.0
C757 C 0.7363 0.7841 0.80524 0.0
C758 C 0.75853 0.86247 0.85439 0.0
C759 C 0.72614 0.86687 0.82976 0.0
H760 H 0.93002 0.77101 0.18189 0.0
H761 H 0.10566 0.79015 0.15232 0.0
H762 H 0.05625 0.7361 0.10584 0.0
H763 H 0.96438 0.68945 0.07229 0.0
H764 H 0.78684 0.66283 0.10342 0.0
H765 H 0.83543 0.71402 0.15051 0.0
C766 C 0.95725 0.76288 0.16531 0.0
C767 C 0.02156 0.78507 0.17035 0.0
C768 C 0.92821 0.73084 0.13889 0.0
C769 C 0.05615 0.77351 0.14892 0.0
C770 C 0.02797 0.74289 0.12231 0.0
C771 C 0.93629 0.69407 0.0896 0.0
C772 C 0.87223 0.6725 0.08445 0.0
C773 C 0.96428 0.7222 0.11686 0.0
C774 C 0.83612 0.67862 0.107 0.0
C775 C 0.86399 0.70818 0.13385 0.0
H776 H 0.27672 0.05542 0.49379 0.0
H777 H 0.18785 0.88137 0.54286 0.0
H778 H 0.18253 0.8231 0.49786 0.0
H779 H 0.19563 0.82032 0.44371 0.0
H780 H 0.27765 0.99332 0.39368 0.0
H781 H 0.29358 0.05295 0.43951 0.0
C782 C 0.25719 1.00488 0.49462 0.0
C783 C 0.23291 0.97275 0.52166 0.0
C784 C 0.25256 0.9713 0.46833 0.0
C785 C 0.20686 0.90712 0.52233 0.0
C786 C 0.20367 0.87375 0.49657 0.0
C787 C 0.21772 0.87113 0.44286 0.0
C788 C 0.23527 0.90218 0.41519 0.0
C789 C 0.22523 0.9051 0.4693 0.0
C790 C 0.2634 0.96809 0.4146 0.0
C791 C 0.27248 1.0023 0.44085 0.0
loop_
_geom_bond_atom_site_label_1
_geom_bond_atom_site_label_2
_geom_bond_distance
_geom_bond_site_symmetry_2
_ccdc_geom_bond_type
C0 C2 1.422 . S
C0 C4 1.415 . S
C0 N6 1.369 . S
C1 C2 1.421 . S
C1 C3 1.417 . S
C1 C13 1.427 . S
C2 C0 1.422 . S
C2 C1 1.421 . S
C2 N12 1.359 . S
C3 C1 1.417 . S
C3 C5 1.329 . S
C3 H22 0.930 1_554 S
C4 C0 1.415 . S
C4 C5 1.437 . S
C4 C8 1.413 . S
C5 C3 1.329 . S
C5 C4 1.437 . S
C5 H27 0.929 . S
N6 C0 1.369 . S
N6 C7 1.338 . S
N6 Gd11 2.622 . S
C7 N6 1.338 . S
C7 C9 1.378 . S
C7 H19 0.929 . S
C8 C4 1.413 . S
C8 C9 1.348 . S
C8 H24 0.931 . S
C9 C7 1.378 . S
C9 C8 1.348 . S
C9 H25 0.930 . S
Gd10 N30 2.620 1_556 S
Gd10 N37 2.570 1_556 S
Gd10 O44 2.353 . S
Gd10 O45 2.468 . S
Gd10 O46 2.427 . S
Gd10 O48 2.388 . S
Gd10 O49 2.386 1_556 S
Gd10 O53 2.307 1_556 S
Gd10 C63 2.805 . S
Gd11 N6 2.622 . S
Gd11 N12 2.570 . S
Gd11 O43 2.386 1_554 S
Gd11 O47 2.307 . S
Gd11 O50 2.353 . S
Gd11 O51 2.468 . S
Gd11 O52 2.427 . S
Gd11 O54 2.388 . S
Gd11 C75 2.805 . S
N12 C2 1.359 . S
N12 Gd11 2.570 . S
N12 C14 1.343 . S
C13 C1 1.427 . S
C13 C15 1.324 . S
C13 H21 0.923 1_554 S
C14 N12 1.343 . S
C14 C15 1.390 . S
C14 H16 0.931 . S
C15 C13 1.324 . S
C15 C14 1.390 . S
C15 H17 0.935 . S
H16 C14 0.931 . S
H17 C15 0.935 . S
H18 C41 0.931 . S
H19 C7 0.929 . S
H20 C42 0.930 . S
H21 C13 0.923 1_556 S
H22 C3 0.930 1_556 S
H23 C32 0.929 . S
H24 C8 0.931 . S
H25 C9 0.930 . S
H26 C64 0.930 . S
H27 C5 0.929 . S
H28 C33 0.931 . S
H29 C34 0.930 . S
N30 Gd10 2.620 1_554 S
N30 C31 1.386 . S
N30 C32 1.327 1_554 S
C31 N30 1.386 . S
C31 C35 1.415 1_455 S
C31 C38 1.422 . S
C32 H23 0.929 . S
C32 N30 1.327 1_556 S
C32 C34 1.378 1_455 S
C33 H28 0.931 . S
C33 C34 1.348 1_554 S
C33 C35 1.413 . S
C34 H29 0.930 . S
C34 C32 1.378 1_655 S
C34 C33 1.348 1_556 S
C35 C31 1.415 1_655 S
C35 C33 1.413 . S
C35 C65 1.437 . S
H36 C65 0.929 . S
N37 Gd10 2.570 1_554 S
N37 C38 1.359 . S
N37 C41 1.343 . S
C38 C31 1.422 . S
C38 N37 1.359 . S
C38 C40 1.421 . S
C39 C40 1.422 . S
C39 C42 1.321 . S
C39 H66 0.931 . S
C40 C38 1.421 . S
C40 C39 1.422 . S
C40 C64 1.417 . S
C41 H18 0.931 . S
C41 N37 1.343 . S
C41 C42 1.390 . S
C42 H20 0.930 . S
C42 C39 1.321 . S
C42 C41 1.390 . S
O43 Gd11 2.386 1_556 S
O43 C55 1.265 . S
O44 Gd10 2.353 . S
O44 C55 1.242 . S
O45 Gd10 2.468 . S
O45 C63 1.263 . S
O46 Gd10 2.427 . S
O46 C63 1.252 . S
O47 Gd11 2.307 . S
O47 C56 1.261 . S
O48 Gd10 2.388 . S
O48 C56 1.252 1_556 S
O49 Gd10 2.386 1_554 S
O49 C67 1.265 . S
O50 Gd11 2.353 . S
O50 C67 1.242 . S
O51 Gd11 2.468 . S
O51 C75 1.263 . S
O52 Gd11 2.427 . S
O52 C75 1.252 . S
O53 Gd10 2.307 1_554 S
O53 C68 1.261 . S
O54 Gd11 2.388 . S
O54 C68 1.252 . S
C55 O43 1.265 . S
C55 O44 1.242 . S
C56 O47 1.261 . S
C56 O48 1.252 1_554 S
C57 C60 1.394 . S
C57 C62 1.370 . S
C57 C63 1.500 . S
C58 C61 1.383 . S
C58 C62 1.395 . S
C59 C60 1.396 . S
C59 C61 1.365 . S
C59 H76 0.929 . S
C60 C57 1.394 . S
C60 C59 1.396 . S
C60 H77 0.930 . S
C61 C58 1.383 . S
C61 C59 1.365 . S
C61 H78 0.931 . S
C62 C57 1.370 . S
C62 C58 1.395 . S
C62 H79 0.930 . S
C63 Gd10 2.805 . S
C63 O45 1.263 . S
C63 O46 1.252 . S
C63 C57 1.500 . S
C64 H26 0.930 . S
C64 C40 1.417 . S
C64 C65 1.329 1_455 S
C65 C35 1.437 . S
C65 H36 0.929 . S
C65 C64 1.329 1_655 S
H66 C39 0.931 . S
C67 O49 1.265 . S
C67 O50 1.242 . S
C68 O53 1.261 . S
C68 O54 1.252 . S
C69 C72 1.394 . S
C69 C74 1.370 . S
C69 C75 1.500 . S
C70 C73 1.383 . S
C70 C74 1.395 . S
C71 C72 1.396 . S
C71 C73 1.365 . S
C71 H80 0.929 . S
C72 C69 1.394 . S
C72 C71 1.396 . S
C72 H81 0.930 . S
C73 C70 1.383 . S
C73 C71 1.365 . S
C73 H82 0.931 . S
C74 C69 1.370 . S
C74 C70 1.395 . S
C74 H83 0.930 . S
C75 Gd11 2.805 . S
C75 O51 1.263 . S
C75 O52 1.252 . S
C75 C69 1.500 . S
H76 C59 0.929 . S
H77 C60 0.930 . S
H78 C61 0.931 . S
H79 C62 0.930 . S
H80 C71 0.929 . S
H81 C72 0.930 . S
H82 C73 0.931 . S
H83 C74 0.930 . S
C84 C86 1.422 . S
C84 C88 1.415 . S
C84 N90 1.369 . S
C85 C86 1.421 . S
C85 C87 1.417 . S
C85 C97 1.422 . S
C86 C84 1.422 . S
C86 C85 1.421 . S
C86 N96 1.359 . S
C87 C85 1.417 . S
C87 C89 1.329 . S
C87 H106 0.930 . S
C88 C84 1.415 . S
C88 C89 1.437 . S
C88 C92 1.413 . S
C89 C87 1.329 . S
C89 C88 1.437 . S
C89 H111 0.929 . S
N90 C84 1.369 . S
N90 C91 1.338 . S
N90 Gd95 2.622 . S
C91 N90 1.338 . S
C91 C93 1.378 . S
C91 H103 0.929 . S
C92 C88 1.413 . S
C92 C93 1.348 . S
C92 H108 0.931 . S
C93 C91 1.378 . S
C93 C92 1.348 . S
C93 H109 0.930 . S
Gd94 N114 2.622 . S
Gd94 N121 2.570 . S
Gd94 O128 2.353 . S
Gd94 O129 2.468 . S
Gd94 O130 2.427 . S
Gd94 O132 2.388 . S
Gd94 O133 2.386 . S
Gd94 O137 2.307 . S
Gd94 C147 2.805 . S
Gd95 N90 2.622 . S
Gd95 N96 2.570 . S
Gd95 O127 2.386 . S
Gd95 O131 2.307 . S
Gd95 O134 2.353 . S
Gd95 O135 2.468 . S
Gd95 O136 2.427 . S
Gd95 O138 2.388 . S
Gd95 C159 2.805 . S
N96 C86 1.359 . S
N96 Gd95 2.570 . S
N96 C98 1.343 . S
C97 C85 1.422 . S
C97 C99 1.321 . S
C97 H105 0.931 . S
C98 N96 1.343 . S
C98 C99 1.390 . S
C98 H100 0.931 . S
C99 C97 1.321 . S
C99 C98 1.390 . S
C99 H101 0.930 . S
H100 C98 0.931 . S
H101 C99 0.930 . S
H102 C125 0.931 . S
H103 C91 0.929 . S
H104 C126 0.930 . S
H105 C97 0.931 . S
H106 C87 0.930 . S
H107 C116 0.929 . S
H108 C92 0.931 . S
H109 C93 0.930 . S
H110 C148 0.930 . S
H111 C89 0.929 . S
H112 C117 0.931 . S
H113 C118 0.930 . S
N114 Gd94 2.622 . S
N114 C115 1.369 . S
N114 C116 1.338 . S
C115 N114 1.369 . S
C115 C119 1.415 1_545 S
C115 C122 1.422 . S
C116 H107 0.929 . S
C116 N114 1.338 . S
C116 C118 1.378 1_545 S
C117 H112 0.931 . S
C117 C118 1.348 . S
C117 C119 1.413 . S
C118 H113 0.930 . S
C118 C116 1.378 1_565 S
C118 C117 1.348 . S
C119 C115 1.415 1_565 S
C119 C117 1.413 . S
C119 C149 1.437 . S
H120 C149 0.929 . S
N121 Gd94 2.570 . S
N121 C122 1.359 . S
N121 C125 1.343 . S
C122 C115 1.422 . S
C122 N121 1.359 . S
C122 C124 1.421 . S
C123 C124 1.422 1_455 S
C123 C126 1.321 . S
C123 H150 0.931 . S
C124 C122 1.421 . S
C124 C123 1.422 1_655 S
C124 C148 1.417 . S
C125 H102 0.931 . S
C125 N121 1.343 . S
C125 C126 1.390 1_655 S
C126 H104 0.930 . S
C126 C123 1.321 . S
C126 C125 1.390 1_455 S
O127 Gd95 2.386 . S
O127 C139 1.265 . S
O128 Gd94 2.353 . S
O128 C139 1.242 . S
O129 Gd94 2.468 . S
O129 C147 1.263 . S
O130 Gd94 2.427 . S
O130 C147 1.252 . S
O131 Gd95 2.307 . S
O131 C140 1.261 . S
O132 Gd94 2.388 . S
O132 C140 1.252 . S
O133 Gd94 2.386 . S
O133 C151 1.265 . S
O134 Gd95 2.353 . S
O134 C151 1.242 . S
O135 Gd95 2.468 . S
O135 C159 1.263 . S
O136 Gd95 2.427 . S
O136 C159 1.252 . S
O137 Gd94 2.307 . S
O137 C152 1.261 . S
O138 Gd95 2.388 . S
O138 C152 1.252 . S
C139 O127 1.265 . S
C139 O128 1.242 . S
C140 O131 1.261 . S
C140 O132 1.252 . S
C141 C144 1.394 . S
C141 C146 1.370 . S
C141 C147 1.500 . S
C142 C145 1.383 1_455 S
C142 C146 1.395 1_455 S
C143 C144 1.396 . S
C143 C145 1.365 . S
C143 H160 0.929 . S
C144 C141 1.394 . S
C144 C143 1.396 . S
C144 H161 0.930 . S
C145 C142 1.383 1_655 S
C145 C143 1.365 . S
C145 H162 0.931 1_655 S
C146 C141 1.370 . S
C146 C142 1.395 1_655 S
C146 H163 0.930 1_655 S
C147 Gd94 2.805 . S
C147 O129 1.263 . S
C147 O130 1.252 . S
C147 C141 1.500 . S
C148 H110 0.930 . S
C148 C124 1.417 . S
C148 C149 1.329 1_545 S
C149 C119 1.437 . S
C149 H120 0.929 . S
C149 C148 1.329 1_565 S
H150 C123 0.931 . S
C151 O133 1.265 . S
C151 O134 1.242 . S
C152 O137 1.261 . S
C152 O138 1.252 . S
C153 C156 1.394 . S
C153 C158 1.370 . S
C153 C159 1.500 . S
C154 C157 1.383 . S
C154 C158 1.395 . S
C155 C156 1.396 . S
C155 C157 1.365 . S
C155 H164 0.929 . S
C156 C153 1.394 . S
C156 C155 1.396 . S
C156 H165 0.930 . S
C157 C154 1.383 . S
C157 C155 1.365 . S
C157 H166 0.931 . S
C158 C153 1.370 . S
C158 C154 1.395 . S
C158 H167 0.930 . S
C159 Gd95 2.805 . S
C159 O135 1.263 . S
C159 O136 1.252 . S
C159 C153 1.500 . S
H160 C143 0.929 . S
H161 C144 0.930 . S
H162 C145 0.931 1_455 S
H163 C146 0.930 1_455 S
H164 C155 0.929 . S
H165 C156 0.930 . S
H166 C157 0.931 . S
H167 C158 0.930 . S
C168 C170 1.422 . S
C168 C172 1.415 . S
C168 N174 1.369 . S
C169 C170 1.421 . S
C169 C171 1.417 . S
C169 C181 1.422 . S
C170 C168 1.422 . S
C170 C169 1.421 . S
C170 N180 1.359 . S
C171 C169 1.417 . S
C171 C173 1.329 . S
C171 H190 0.930 . S
C172 C168 1.415 . S
C172 C173 1.437 . S
C172 C176 1.413 . S
C173 C171 1.329 . S
C173 C172 1.437 . S
C173 H195 0.929 . S
N174 C168 1.369 . S
N174 C175 1.338 . S
N174 Gd179 2.622 . S
C175 N174 1.338 . S
C175 C177 1.378 . S
C175 H187 0.929 . S
C176 C172 1.413 . S
C176 C177 1.348 . S
C176 H192 0.931 . S
C177 C175 1.378 . S
C177 C176 1.348 . S
C177 H193 0.930 . S
Gd178 N198 2.622 . S
Gd178 N205 2.570 . S
Gd178 O212 2.353 . S
Gd178 O213 2.468 . S
Gd178 O214 2.427 . S
Gd178 O216 2.388 . S
Gd178 O217 2.386 . S
Gd178 O221 2.307 . S
Gd178 C231 2.805 . S
Gd179 N174 2.622 . S
Gd179 N180 2.570 . S
Gd179 O211 2.386 . S
Gd179 O215 2.307 . S
Gd179 O218 2.353 . S
Gd179 O219 2.468 . S
Gd179 O220 2.427 . S
Gd179 O222 2.388 . S
Gd179 C243 2.805 . S
N180 C170 1.359 . S
N180 Gd179 2.570 . S
N180 C182 1.343 . S
C181 C169 1.422 . S
C181 C183 1.321 . S
C181 H189 0.931 . S
C182 N180 1.343 . S
C182 C183 1.390 . S
C182 H184 0.931 . S
C183 C181 1.321 . S
C183 C182 1.390 . S
C183 H185 0.930 . S
H184 C182 0.931 . S
H185 C183 0.930 . S
H186 C209 0.931 . S
H187 C175 0.929 . S
H188 C210 0.930 . S
H189 C181 0.931 . S
H190 C171 0.930 . S
H191 C200 0.929 . S
H192 C176 0.931 . S
H193 C177 0.930 . S
H194 C232 0.930 . S
H195 C173 0.929 . S
H196 C201 0.931 . S
H197 C202 0.930 . S
N198 Gd178 2.622 . S
N198 C199 1.369 . S
N198 C200 1.338 . S
C199 N198 1.369 . S
C199 C203 1.415 . S
C199 C206 1.422 . S
C200 H191 0.929 . S
C200 N198 1.338 . S
C200 C202 1.378 . S
C201 H196 0.931 . S
C201 C202 1.348 . S
C201 C203 1.413 . S
C202 H197 0.930 . S
C202 C200 1.378 . S
C202 C201 1.348 . S
C203 C199 1.415 . S
C203 C201 1.413 . S
C203 C233 1.437 . S
H204 C233 0.929 . S
N205 Gd178 2.570 . S
N205 C206 1.359 . S
N205 C209 1.343 . S
C206 C199 1.422 . S
C206 N205 1.359 . S
C206 C208 1.421 . S
C207 C208 1.422 1_545 S
C207 C210 1.321 . S
C207 H234 0.931 . S
C208 C206 1.421 . S
C208 C207 1.422 1_565 S
C208 C232 1.417 . S
C209 H186 0.931 . S
C209 N205 1.343 . S
C209 C210 1.390 1_565 S
C210 H188 0.930 . S
C210 C207 1.321 . S
C210 C209 1.390 1_545 S
O211 Gd179 2.386 . S
O211 C223 1.265 . S
O212 Gd178 2.353 . S
O212 C223 1.242 . S
O213 Gd178 2.468 . S
O213 C231 1.263 . S
O214 Gd178 2.427 . S
O214 C231 1.252 . S
O215 Gd179 2.307 . S
O215 C224 1.261 . S
O216 Gd178 2.388 . S
O216 C224 1.252 . S
O217 Gd178 2.386 . S
O217 C235 1.265 . S
O218 Gd179 2.353 . S
O218 C235 1.242 . S
O219 Gd179 2.468 . S
O219 C243 1.263 . S
O220 Gd179 2.427 . S
O220 C243 1.252 . S
O221 Gd178 2.307 . S
O221 C236 1.261 . S
O222 Gd179 2.388 . S
O222 C236 1.252 . S
C223 O211 1.265 . S
C223 O212 1.242 . S
C224 O215 1.261 . S
C224 O216 1.252 . S
C225 C228 1.394 . S
C225 C230 1.370 . S
C225 C231 1.500 . S
C226 C229 1.383 1_545 S
C226 C230 1.395 1_545 S
C227 C228 1.396 . S
C227 C229 1.365 . S
C227 H244 0.929 . S
C228 C225 1.394 . S
C228 C227 1.396 . S
C228 H245 0.930 . S
C229 C226 1.383 1_565 S
C229 C227 1.365 . S
C229 H246 0.931 1_565 S
C230 C225 1.370 . S
C230 C226 1.395 1_565 S
C230 H247 0.930 1_565 S
C231 Gd178 2.805 . S
C231 O213 1.263 . S
C231 O214 1.252 . S
C231 C225 1.500 . S
C232 H194 0.930 . S
C232 C208 1.417 . S
C232 C233 1.329 . S
C233 C203 1.437 . S
C233 H204 0.929 . S
C233 C232 1.329 . S
H234 C207 0.931 . S
C235 O217 1.265 . S
C235 O218 1.242 . S
C236 O221 1.261 . S
C236 O222 1.252 . S
C237 C240 1.394 . S
C237 C242 1.370 . S
C237 C243 1.500 . S
C238 C241 1.383 . S
C238 C242 1.395 . S
C239 C240 1.396 . S
C239 C241 1.365 . S
C239 H248 0.929 . S
C240 C237 1.394 . S
C240 C239 1.396 . S
C240 H249 0.930 . S
C241 C238 1.383 . S
C241 C239 1.365 . S
C241 H250 0.931 . S
C242 C237 1.370 . S
C242 C238 1.395 . S
C242 H251 0.930 . S
C243 Gd179 2.805 . S
C243 O219 1.263 . S
C243 O220 1.252 . S
C243 C237 1.500 . S
H244 C227 0.929 . S
H245 C228 0.930 . S
H246 C229 0.931 1_545 S
H247 C230 0.930 1_545 S
H248 C239 0.929 . S
H249 C240 0.930 . S
H250 C241 0.931 . S
H251 C242 0.930 . S
C252 C254 1.422 . S
C252 C256 1.415 . S
C252 N258 1.369 . S
C253 C254 1.421 . S
C253 C255 1.417 . S
C253 C265 1.427 . S
C254 C252 1.422 . S
C254 C253 1.421 . S
C254 N264 1.359 . S
C255 C253 1.417 . S
C255 C257 1.329 . S
C255 H274 0.930 1_554 S
C256 C252 1.415 . S
C256 C257 1.437 . S
C256 C260 1.413 . S
C257 C255 1.329 . S
C257 C256 1.437 . S
C257 H279 0.929 . S
N258 C252 1.369 . S
N258 C259 1.338 . S
N258 Gd263 2.622 . S
C259 N258 1.338 . S
C259 C261 1.378 . S
C259 H271 0.929 . S
C260 C256 1.413 . S
C260 C261 1.348 . S
C260 H276 0.931 . S
C261 C259 1.378 . S
C261 C260 1.348 . S
C261 H277 0.930 . S
Gd262 N282 2.620 1_556 S
Gd262 N289 2.570 1_556 S
Gd262 O296 2.353 . S
Gd262 O297 2.468 . S
Gd262 O298 2.427 . S
Gd262 O300 2.388 . S
Gd262 O301 2.386 1_556 S
Gd262 O305 2.307 1_556 S
Gd262 C315 2.805 . S
Gd263 N258 2.622 . S
Gd263 N264 2.570 . S
Gd263 O295 2.386 1_554 S
Gd263 O299 2.307 . S
Gd263 O302 2.353 . S
Gd263 O303 2.468 . S
Gd263 O304 2.427 . S
Gd263 O306 2.388 . S
Gd263 C327 2.805 . S
N264 C254 1.359 . S
N264 Gd263 2.570 . S
N264 C266 1.343 . S
C265 C253 1.427 . S
C265 C267 1.324 . S
C265 H273 0.923 1_554 S
C266 N264 1.343 . S
C266 C267 1.390 . S
C266 H268 0.931 . S
C267 C265 1.324 . S
C267 C266 1.390 . S
C267 H269 0.935 . S
H268 C266 0.931 . S
H269 C267 0.935 . S
H270 C293 0.931 . S
H271 C259 0.929 . S
H272 C294 0.930 . S
H273 C265 0.923 1_556 S
H274 C255 0.930 1_556 S
H275 C284 0.929 . S
H276 C260 0.931 . S
H277 C261 0.930 . S
H278 C316 0.930 . S
H279 C257 0.929 . S
H280 C285 0.931 . S
H281 C286 0.930 . S
N282 Gd262 2.620 1_554 S
N282 C283 1.386 . S
N282 C284 1.327 1_554 S
C283 N282 1.386 . S
C283 C287 1.415 1_655 S
C283 C290 1.422 . S
C284 H275 0.929 . S
C284 N282 1.327 1_556 S
C284 C286 1.378 1_655 S
C285 H280 0.931 . S
C285 C286 1.348 1_554 S
C285 C287 1.413 . S
C286 H281 0.930 . S
C286 C284 1.378 1_455 S
C286 C285 1.348 1_556 S
C287 C283 1.415 1_455 S
C287 C285 1.413 . S
C287 C317 1.437 . S
H288 C317 0.929 . S
N289 Gd262 2.570 1_554 S
N289 C290 1.359 . S
N289 C293 1.343 . S
C290 C283 1.422 . S
C290 N289 1.359 . S
C290 C292 1.421 . S
C291 C292 1.422 . S
C291 C294 1.321 . S
C291 H318 0.931 . S
C292 C290 1.421 . S
C292 C291 1.422 . S
C292 C316 1.417 . S
C293 H270 0.931 . S
C293 N289 1.343 . S
C293 C294 1.390 . S
C294 H272 0.930 . S
C294 C291 1.321 . S
C294 C293 1.390 . S
O295 Gd263 2.386 1_556 S
O295 C307 1.265 . S
O296 Gd262 2.353 . S
O296 C307 1.242 . S
O297 Gd262 2.468 . S
O297 C315 1.263 . S
O298 Gd262 2.427 . S
O298 C315 1.252 . S
O299 Gd263 2.307 . S
O299 C308 1.261 . S
O300 Gd262 2.388 . S
O300 C308 1.252 1_556 S
O301 Gd262 2.386 1_554 S
O301 C319 1.265 . S
O302 Gd263 2.353 . S
O302 C319 1.242 . S
O303 Gd263 2.468 . S
O303 C327 1.263 . S
O304 Gd263 2.427 . S
O304 C327 1.252 . S
O305 Gd262 2.307 1_554 S
O305 C320 1.261 . S
O306 Gd263 2.388 . S
O306 C320 1.252 . S
C307 O295 1.265 . S
C307 O296 1.242 . S
C308 O299 1.261 . S
C308 O300 1.252 1_554 S
C309 C312 1.394 . S
C309 C314 1.370 . S
C309 C315 1.500 . S
C310 C313 1.383 . S
C310 C314 1.395 . S
C311 C312 1.396 . S
C311 C313 1.365 . S
C311 H328 0.929 . S
C312 C309 1.394 . S
C312 C311 1.396 . S
C312 H329 0.930 . S
C313 C310 1.383 . S
C313 C311 1.365 . S
C313 H330 0.931 . S
C314 C309 1.370 . S
C314 C310 1.395 . S
C314 H331 0.930 . S
C315 Gd262 2.805 . S
C315 O297 1.263 . S
C315 O298 1.252 . S
C315 C309 1.500 . S
C316 H278 0.930 . S
C316 C292 1.417 . S
C316 C317 1.329 1_655 S
C317 C287 1.437 . S
C317 H288 0.929 . S
C317 C316 1.329 1_455 S
H318 C291 0.931 . S
C319 O301 1.265 . S
C319 O302 1.242 . S
C320 O305 1.261 . S
C320 O306 1.252 . S
C321 C324 1.394 . S
C321 C326 1.370 . S
C321 C327 1.500 . S
C322 C325 1.383 . S
C322 C326 1.395 . S
C323 C324 1.396 . S
C323 C325 1.365 . S
C323 H332 0.929 . S
C324 C321 1.394 . S
C324 C323 1.396 . S
C324 H333 0.930 . S
C325 C322 1.383 . S
C325 C323 1.365 . S
C325 H334 0.931 . S
C326 C321 1.370 . S
C326 C322 1.395 . S
C326 H335 0.930 . S
C327 Gd263 2.805 . S
C327 O303 1.263 . S
C327 O304 1.252 . S
C327 C321 1.500 . S
H328 C311 0.929 . S
H329 C312 0.930 . S
H330 C313 0.931 . S
H331 C314 0.930 . S
H332 C323 0.929 . S
H333 C324 0.930 . S
H334 C325 0.931 . S
H335 C326 0.930 . S
C336 C338 1.422 . S
C336 C340 1.415 . S
C336 N342 1.369 . S
C337 C338 1.421 . S
C337 C339 1.417 . S
C337 C349 1.422 . S
C338 C336 1.422 . S
C338 C337 1.421 . S
C338 N348 1.359 . S
C339 C337 1.417 . S
C339 C341 1.329 . S
C339 H358 0.930 . S
C340 C336 1.415 . S
C340 C341 1.437 . S
C340 C344 1.413 . S
C341 C339 1.329 . S
C341 C340 1.437 . S
C341 H363 0.929 . S
N342 C336 1.369 . S
N342 C343 1.338 . S
N342 Gd347 2.622 . S
C343 N342 1.338 . S
C343 C345 1.378 . S
C343 H355 0.929 . S
C344 C340 1.413 . S
C344 C345 1.348 . S
C344 H360 0.931 . S
C345 C343 1.378 . S
C345 C344 1.348 . S
C345 H361 0.930 . S
Gd346 N366 2.622 . S
Gd346 N373 2.570 . S
Gd346 O380 2.353 . S
Gd346 O381 2.468 . S
Gd346 O382 2.427 . S
Gd346 O384 2.388 . S
Gd346 O385 2.386 . S
Gd346 O389 2.307 . S
Gd346 C399 2.805 . S
Gd347 N342 2.622 . S
Gd347 N348 2.570 . S
Gd347 O379 2.386 . S
Gd347 O383 2.307 . S
Gd347 O386 2.353 . S
Gd347 O387 2.468 . S
Gd347 O388 2.427 . S
Gd347 O390 2.388 . S
Gd347 C411 2.805 . S
N348 C338 1.359 . S
N348 Gd347 2.570 . S
N348 C350 1.343 . S
C349 C337 1.422 . S
C349 C351 1.321 . S
C349 H357 0.931 . S
C350 N348 1.343 . S
C350 C351 1.390 . S
C350 H352 0.931 . S
C351 C349 1.321 . S
C351 C350 1.390 . S
C351 H353 0.930 . S
H352 C350 0.931 . S
H353 C351 0.930 . S
H354 C377 0.931 . S
H355 C343 0.929 . S
H356 C378 0.930 . S
H357 C349 0.931 . S
H358 C339 0.930 . S
H359 C368 0.929 . S
H360 C344 0.931 . S
H361 C345 0.930 . S
H362 C400 0.930 . S
H363 C341 0.929 . S
H364 C369 0.931 . S
H365 C370 0.930 . S
N366 Gd346 2.622 . S
N366 C367 1.369 . S
N366 C368 1.338 . S
C367 N366 1.369 . S
C367 C371 1.415 1_565 S
C367 C374 1.422 . S
C368 H359 0.929 . S
C368 N366 1.338 . S
C368 C370 1.378 1_565 S
C369 H364 0.931 . S
C369 C370 1.348 . S
C369 C371 1.413 . S
C370 H365 0.930 . S
C370 C368 1.378 1_545 S
C370 C369 1.348 . S
C371 C367 1.415 1_545 S
C371 C369 1.413 . S
C371 C401 1.437 . S
H372 C401 0.929 . S
N373 Gd346 2.570 . S
N373 C374 1.359 . S
N373 C377 1.343 . S
C374 C367 1.422 . S
C374 N373 1.359 . S
C374 C376 1.421 . S
C375 C376 1.422 1_655 S
C375 C378 1.321 . S
C375 H402 0.931 . S
C376 C374 1.421 . S
C376 C375 1.422 1_455 S
C376 C400 1.417 . S
C377 H354 0.931 . S
C377 N373 1.343 . S
C377 C378 1.390 1_455 S
C378 H356 0.930 . S
C378 C375 1.321 . S
C378 C377 1.390 1_655 S
O379 Gd347 2.386 . S
O379 C391 1.265 . S
O380 Gd346 2.353 . S
O380 C391 1.242 . S
O381 Gd346 2.468 . S
O381 C399 1.263 . S
O382 Gd346 2.427 . S
O382 C399 1.252 . S
O383 Gd347 2.307 . S
O383 C392 1.261 . S
O384 Gd346 2.388 . S
O384 C392 1.252 . S
O385 Gd346 2.386 . S
O385 C403 1.265 . S
O386 Gd347 2.353 . S
O386 C403 1.242 . S
O387 Gd347 2.468 . S
O387 C411 1.263 . S
O388 Gd347 2.427 . S
O388 C411 1.252 . S
O389 Gd346 2.307 . S
O389 C404 1.261 . S
O390 Gd347 2.388 . S
O390 C404 1.252 . S
C391 O379 1.265 . S
C391 O380 1.242 . S
C392 O383 1.261 . S
C392 O384 1.252 . S
C393 C396 1.394 . S
C393 C398 1.370 . S
C393 C399 1.500 . S
C394 C397 1.383 1_655 S
C394 C398 1.395 1_655 S
C395 C396 1.396 . S
C395 C397 1.365 . S
C395 H412 0.929 . S
C396 C393 1.394 . S
C396 C395 1.396 . S
C396 H413 0.930 . S
C397 C394 1.383 1_455 S
C397 C395 1.365 . S
C397 H414 0.931 1_455 S
C398 C393 1.370 . S
C398 C394 1.395 1_455 S
C398 H415 0.930 1_455 S
C399 Gd346 2.805 . S
C399 O381 1.263 . S
C399 O382 1.252 . S
C399 C393 1.500 . S
C400 H362 0.930 . S
C400 C376 1.417 . S
C400 C401 1.329 1_565 S
C401 C371 1.437 . S
C401 H372 0.929 . S
C401 C400 1.329 1_545 S
H402 C375 0.931 . S
C403 O385 1.265 . S
C403 O386 1.242 . S
C404 O389 1.261 . S
C404 O390 1.252 . S
C405 C408 1.394 . S
C405 C410 1.370 . S
C405 C411 1.500 . S
C406 C409 1.383 . S
C406 C410 1.395 . S
C407 C408 1.396 . S
C407 C409 1.365 . S
C407 H416 0.929 . S
C408 C405 1.394 . S
C408 C407 1.396 . S
C408 H417 0.930 . S
C409 C406 1.383 . S
C409 C407 1.365 . S
C409 H418 0.931 . S
C410 C405 1.370 . S
C410 C406 1.395 . S
C410 H419 0.930 . S
C411 Gd347 2.805 . S
C411 O387 1.263 . S
C411 O388 1.252 . S
C411 C405 1.500 . S
H412 C395 0.929 . S
H413 C396 0.930 . S
H414 C397 0.931 1_655 S
H415 C398 0.930 1_655 S
H416 C407 0.929 . S
H417 C408 0.930 . S
H418 C409 0.931 . S
H419 C410 0.930 . S
C420 C422 1.422 . S
C420 C424 1.415 . S
C420 N426 1.369 . S
C421 C422 1.421 . S
C421 C423 1.417 . S
C421 C433 1.422 . S
C422 C420 1.422 . S
C422 C421 1.421 . S
C422 N432 1.359 . S
C423 C421 1.417 . S
C423 C425 1.329 . S
C423 H442 0.930 . S
C424 C420 1.415 . S
C424 C425 1.437 . S
C424 C428 1.413 . S
C425 C423 1.329 . S
C425 C424 1.437 . S
C425 H447 0.929 . S
N426 C420 1.369 . S
N426 C427 1.338 . S
N426 Gd431 2.622 . S
C427 N426 1.338 . S
C427 C429 1.378 . S
C427 H439 0.929 . S
C428 C424 1.413 . S
C428 C429 1.348 . S
C428 H444 0.931 . S
C429 C427 1.378 . S
C429 C428 1.348 . S
C429 H445 0.930 . S
Gd430 N450 2.622 . S
Gd430 N457 2.570 . S
Gd430 O464 2.353 . S
Gd430 O465 2.468 . S
Gd430 O466 2.427 . S
Gd430 O468 2.388 . S
Gd430 O469 2.386 . S
Gd430 O473 2.307 . S
Gd430 C483 2.805 . S
Gd431 N426 2.622 . S
Gd431 N432 2.570 . S
Gd431 O463 2.386 . S
Gd431 O467 2.307 . S
Gd431 O470 2.353 . S
Gd431 O471 2.468 . S
Gd431 O472 2.427 . S
Gd431 O474 2.388 . S
Gd431 C495 2.805 . S
N432 C422 1.359 . S
N432 Gd431 2.570 . S
N432 C434 1.343 . S
C433 C421 1.422 . S
C433 C435 1.321 . S
C433 H441 0.931 . S
C434 N432 1.343 . S
C434 C435 1.390 . S
C434 H436 0.931 . S
C435 C433 1.321 . S
C435 C434 1.390 . S
C435 H437 0.930 . S
H436 C434 0.931 . S
H437 C435 0.930 . S
H438 C461 0.931 . S
H439 C427 0.929 . S
H440 C462 0.930 . S
H441 C433 0.931 . S
H442 C423 0.930 . S
H443 C452 0.929 . S
H444 C428 0.931 . S
H445 C429 0.930 . S
H446 C484 0.930 . S
H447 C425 0.929 . S
H448 C453 0.931 . S
H449 C454 0.930 . S
N450 Gd430 2.622 . S
N450 C451 1.369 . S
N450 C452 1.338 . S
C451 N450 1.369 . S
C451 C455 1.415 . S
C451 C458 1.422 . S
C452 H443 0.929 . S
C452 N450 1.338 . S
C452 C454 1.378 . S
C453 H448 0.931 . S
C453 C454 1.348 . S
C453 C455 1.413 . S
C454 H449 0.930 . S
C454 C452 1.378 . S
C454 C453 1.348 . S
C455 C451 1.415 . S
C455 C453 1.413 . S
C455 C485 1.437 . S
H456 C485 0.929 . S
N457 Gd430 2.570 . S
N457 C458 1.359 . S
N457 C461 1.343 . S
C458 C451 1.422 . S
C458 N457 1.359 . S
C458 C460 1.421 . S
C459 C460 1.422 1_565 S
C459 C462 1.321 . S
C459 H486 0.931 . S
C460 C458 1.421 . S
C460 C459 1.422 1_545 S
C460 C484 1.417 . S
C461 H438 0.931 . S
C461 N457 1.343 . S
C461 C462 1.390 1_545 S
C462 H440 0.930 . S
C462 C459 1.321 . S
C462 C461 1.390 1_565 S
O463 Gd431 2.386 . S
O463 C475 1.265 . S
O464 Gd430 2.353 . S
O464 C475 1.242 . S
O465 Gd430 2.468 . S
O465 C483 1.263 . S
O466 Gd430 2.427 . S
O466 C483 1.252 . S
O467 Gd431 2.307 . S
O467 C476 1.261 . S
O468 Gd430 2.388 . S
O468 C476 1.252 . S
O469 Gd430 2.386 . S
O469 C487 1.265 . S
O470 Gd431 2.353 . S
O470 C487 1.242 . S
O471 Gd431 2.468 . S
O471 C495 1.263 . S
O472 Gd431 2.427 . S
O472 C495 1.252 . S
O473 Gd430 2.307 . S
O473 C488 1.261 . S
O474 Gd431 2.388 . S
O474 C488 1.252 . S
C475 O463 1.265 . S
C475 O464 1.242 . S
C476 O467 1.261 . S
C476 O468 1.252 . S
C477 C480 1.394 . S
C477 C482 1.370 . S
C477 C483 1.500 . S
C478 C481 1.383 1_565 S
C478 C482 1.395 1_565 S
C479 C480 1.396 . S
C479 C481 1.365 . S
C479 H496 0.929 . S
C480 C477 1.394 . S
C480 C479 1.396 . S
C480 H497 0.930 . S
C481 C478 1.383 1_545 S
C481 C479 1.365 . S
C481 H498 0.931 1_545 S
C482 C477 1.370 . S
C482 C478 1.395 1_545 S
C482 H499 0.930 1_545 S
C483 Gd430 2.805 . S
C483 O465 1.263 . S
C483 O466 1.252 . S
C483 C477 1.500 . S
C484 H446 0.930 . S
C484 C460 1.417 . S
C484 C485 1.329 . S
C485 C455 1.437 . S
C485 H456 0.929 . S
C485 C484 1.329 . S
H486 C459 0.931 . S
C487 O469 1.265 . S
C487 O470 1.242 . S
C488 O473 1.261 . S
C488 O474 1.252 . S
C489 C492 1.394 . S
C489 C494 1.370 . S
C489 C495 1.500 . S
C490 C493 1.383 . S
C490 C494 1.395 . S
C491 C492 1.396 . S
C491 C493 1.365 . S
C491 H500 0.929 . S
C492 C489 1.394 . S
C492 C491 1.396 . S
C492 H501 0.930 . S
C493 C490 1.383 . S
C493 C491 1.365 . S
C493 H502 0.931 . S
C494 C489 1.370 . S
C494 C490 1.395 . S
C494 H503 0.930 . S
C495 Gd431 2.805 . S
C495 O471 1.263 . S
C495 O472 1.252 . S
C495 C489 1.500 . S
H496 C479 0.929 . S
H497 C480 0.930 . S
H498 C481 0.931 1_565 S
H499 C482 0.930 1_565 S
H500 C491 0.929 . S
H501 C492 0.930 . S
H502 C493 0.931 . S
H503 C494 0.930 . S
H504 C510 0.930 . S
H505 C513 0.930 . S
H506 C514 0.930 . S
H507 C515 0.930 . S
H508 C518 0.930 . S
H509 C519 0.930 . S
C510 H504 0.930 . S
C510 C511 1.355 . S
C510 C512 1.415 . S
C511 C510 1.355 . S
C511 C513 1.419 . S
C512 C510 1.415 . S
C512 C517 1.425 . S
C512 C519 1.409 . S
C513 H505 0.930 . S
C513 C511 1.419 . S
C513 C514 1.362 . S
C514 H506 0.930 . S
C514 C513 1.362 . S
C514 C517 1.409 . S
C515 H507 0.930 . S
C515 C516 1.355 . S
C515 C517 1.415 . S
C516 C515 1.355 . S
C516 C518 1.419 . S
C517 C512 1.425 . S
C517 C514 1.409 . S
C517 C515 1.415 . S
C518 H508 0.930 . S
C518 C516 1.419 . S
C518 C519 1.362 . S
C519 H509 0.930 . S
C519 C512 1.409 . S
C519 C518 1.362 . S
H520 C526 0.930 . S
H521 C529 0.930 . S
H522 C530 0.930 . S
H523 C531 0.930 . S
H524 C534 0.930 . S
H525 C535 0.930 . S
C526 H520 0.930 . S
C526 C527 1.355 . S
C526 C528 1.415 . S
C527 C526 1.355 . S
C527 C529 1.419 . S
C528 C526 1.415 . S
C528 C533 1.425 . S
C528 C535 1.409 . S
C529 H521 0.930 . S
C529 C527 1.419 . S
C529 C530 1.362 . S
C530 H522 0.930 . S
C530 C529 1.362 . S
C530 C533 1.409 . S
C531 H523 0.930 . S
C531 C532 1.355 . S
C531 C533 1.415 . S
C532 C531 1.355 . S
C532 C534 1.419 . S
C533 C528 1.425 . S
C533 C530 1.409 . S
C533 C531 1.415 . S
C534 H524 0.930 . S
C534 C532 1.419 . S
C534 C535 1.362 . S
C535 H525 0.930 . S
C535 C528 1.409 . S
C535 C534 1.362 . S
H536 C542 0.930 . S
H537 C545 0.930 . S
H538 C546 0.930 . S
H539 C547 0.930 . S
H540 C550 0.930 . S
H541 C551 0.930 . S
C542 H536 0.930 . S
C542 C543 1.355 . S
C542 C544 1.415 . S
C543 C542 1.355 . S
C543 C545 1.419 . S
C544 C542 1.415 . S
C544 C549 1.425 . S
C544 C551 1.409 . S
C545 H537 0.930 . S
C545 C543 1.419 . S
C545 C546 1.362 . S
C546 H538 0.930 . S
C546 C545 1.362 . S
C546 C549 1.409 . S
C547 H539 0.930 . S
C547 C548 1.355 . S
C547 C549 1.415 . S
C548 C547 1.355 . S
C548 C550 1.419 . S
C549 C544 1.425 . S
C549 C546 1.409 . S
C549 C547 1.415 . S
C550 H540 0.930 . S
C550 C548 1.419 . S
C550 C551 1.362 . S
C551 H541 0.930 . S
C551 C544 1.409 . S
C551 C550 1.362 . S
H552 C558 0.930 . S
H553 C561 0.930 . S
H554 C562 0.930 . S
H555 C563 0.930 . S
H556 C566 0.930 . S
H557 C567 0.930 . S
C558 H552 0.930 . S
C558 C559 1.355 . S
C558 C560 1.415 . S
C559 C558 1.355 . S
C559 C561 1.419 . S
C560 C558 1.415 . S
C560 C565 1.425 . S
C560 C567 1.409 . S
C561 H553 0.930 . S
C561 C559 1.419 . S
C561 C562 1.362 . S
C562 H554 0.930 . S
C562 C561 1.362 . S
C562 C565 1.409 . S
C563 H555 0.930 . S
C563 C564 1.355 . S
C563 C565 1.415 . S
C564 C563 1.355 . S
C564 C566 1.419 . S
C565 C560 1.425 . S
C565 C562 1.409 . S
C565 C563 1.415 . S
C566 H556 0.930 . S
C566 C564 1.419 . S
C566 C567 1.362 . S
C567 H557 0.930 . S
C567 C560 1.409 . S
C567 C566 1.362 . S
H568 C574 0.930 . S
H569 C577 0.930 . S
H570 C578 0.930 . S
H571 C579 0.930 . S
H572 C582 0.930 . S
H573 C583 0.930 . S
C574 H568 0.930 . S
C574 C575 1.355 . S
C574 C576 1.415 . S
C575 C574 1.355 . S
C575 C577 1.419 . S
C576 C574 1.415 . S
C576 C581 1.425 . S
C576 C583 1.409 . S
C577 H569 0.930 . S
C577 C575 1.419 . S
C577 C578 1.362 . S
C578 H570 0.930 . S
C578 C577 1.362 . S
C578 C581 1.409 . S
C579 H571 0.930 . S
C579 C580 1.355 . S
C579 C581 1.415 . S
C580 C579 1.355 . S
C580 C582 1.419 . S
C581 C576 1.425 . S
C581 C578 1.409 . S
C581 C579 1.415 . S
C582 H572 0.930 . S
C582 C580 1.419 . S
C582 C583 1.362 . S
C583 H573 0.930 . S
C583 C576 1.409 . S
C583 C582 1.362 . S
H584 C590 0.930 . S
H585 C593 0.930 . S
H586 C594 0.930 . S
H587 C595 0.930 . S
H588 C598 0.930 . S
H589 C599 0.930 . S
C590 H584 0.930 . S
C590 C591 1.355 . S
C590 C592 1.415 . S
C591 C590 1.355 . S
C591 C593 1.419 . S
C592 C590 1.415 . S
C592 C597 1.425 . S
C592 C599 1.409 . S
C593 H585 0.930 . S
C593 C591 1.419 . S
C593 C594 1.362 . S
C594 H586 0.930 . S
C594 C593 1.362 . S
C594 C597 1.409 . S
C595 H587 0.930 . S
C595 C596 1.355 . S
C595 C597 1.415 . S
C596 C595 1.355 . S
C596 C598 1.419 . S
C597 C592 1.425 . S
C597 C594 1.409 . S
C597 C595 1.415 . S
C598 H588 0.930 . S
C598 C596 1.419 . S
C598 C599 1.362 . S
C599 H589 0.930 . S
C599 C592 1.409 . S
C599 C598 1.362 . S
H600 C606 0.930 . S
H601 C609 0.930 . S
H602 C610 0.930 . S
H603 C611 0.930 . S
H604 C614 0.930 . S
H605 C615 0.930 . S
C606 H600 0.930 . S
C606 C607 1.355 . S
C606 C608 1.415 . S
C607 C606 1.355 . S
C607 C609 1.419 . S
C608 C606 1.415 . S
C608 C613 1.425 . S
C608 C615 1.409 . S
C609 H601 0.930 . S
C609 C607 1.419 . S
C609 C610 1.362 . S
C610 H602 0.930 . S
C610 C609 1.362 . S
C610 C613 1.409 . S
C611 H603 0.930 . S
C611 C612 1.355 . S
C611 C613 1.415 . S
C612 C611 1.355 . S
C612 C614 1.419 . S
C613 C608 1.425 . S
C613 C610 1.409 . S
C613 C611 1.415 . S
C614 H604 0.930 . S
C614 C612 1.419 . S
C614 C615 1.362 . S
C615 H605 0.930 . S
C615 C608 1.409 . S
C615 C614 1.362 . S
H616 C622 0.930 . S
H617 C625 0.930 . S
H618 C626 0.930 . S
H619 C627 0.930 . S
H620 C630 0.930 . S
H621 C631 0.930 . S
C622 H616 0.930 . S
C622 C623 1.355 . S
C622 C624 1.415 . S
C623 C622 1.355 . S
C623 C625 1.419 1_455 S
C624 C622 1.415 . S
C624 C629 1.425 1_455 S
C624 C631 1.409 . S
C625 H617 0.930 . S
C625 C623 1.419 1_655 S
C625 C626 1.362 . S
C626 H618 0.930 . S
C626 C625 1.362 . S
C626 C629 1.409 . S
C627 H619 0.930 . S
C627 C628 1.355 . S
C627 C629 1.415 . S
C628 C627 1.355 . S
C628 C630 1.419 1_655 S
C629 C624 1.425 1_655 S
C629 C626 1.409 . S
C629 C627 1.415 . S
C630 H620 0.930 . S
C630 C628 1.419 1_455 S
C630 C631 1.362 . S
C631 H621 0.930 . S
C631 C624 1.409 . S
C631 C630 1.362 . S
H632 C638 0.930 . S
H633 C641 0.930 . S
H634 C642 0.930 . S
H635 C643 0.930 . S
H636 C646 0.930 . S
H637 C647 0.930 . S
C638 H632 0.930 . S
C638 C639 1.355 . S
C638 C640 1.415 . S
C639 C638 1.355 . S
C639 C641 1.419 1_545 S
C640 C638 1.415 . S
C640 C645 1.425 1_545 S
C640 C647 1.409 . S
C641 H633 0.930 . S
C641 C639 1.419 1_565 S
C641 C642 1.362 . S
C642 H634 0.930 . S
C642 C641 1.362 . S
C642 C645 1.409 . S
C643 H635 0.930 . S
C643 C644 1.355 . S
C643 C645 1.415 . S
C644 C643 1.355 . S
C644 C646 1.419 1_565 S
C645 C640 1.425 1_565 S
C645 C642 1.409 . S
C645 C643 1.415 . S
C646 H636 0.930 . S
C646 C644 1.419 1_545 S
C646 C647 1.362 . S
C647 H637 0.930 . S
C647 C640 1.409 . S
C647 C646 1.362 . S
H648 C654 0.930 . S
H649 C657 0.930 . S
H650 C658 0.930 . S
H651 C659 0.930 . S
H652 C662 0.930 . S
H653 C663 0.930 . S
C654 H648 0.930 . S
C654 C655 1.355 . S
C654 C656 1.415 . S
C655 C654 1.355 . S
C655 C657 1.419 . S
C656 C654 1.415 . S
C656 C661 1.425 . S
C656 C663 1.409 . S
C657 H649 0.930 . S
C657 C655 1.419 . S
C657 C658 1.362 . S
C658 H650 0.930 . S
C658 C657 1.362 . S
C658 C661 1.409 . S
C659 H651 0.930 . S
C659 C660 1.355 . S
C659 C661 1.415 . S
C660 C659 1.355 . S
C660 C662 1.419 . S
C661 C656 1.425 . S
C661 C658 1.409 . S
C661 C659 1.415 . S
C662 H652 0.930 . S
C662 C660 1.419 . S
C662 C663 1.362 . S
C663 H653 0.930 . S
C663 C656 1.409 . S
C663 C662 1.362 . S
H664 C670 0.930 . S
H665 C673 0.930 . S
H666 C674 0.930 . S
H667 C675 0.930 . S
H668 C678 0.930 . S
H669 C679 0.930 . S
C670 H664 0.930 . S
C670 C671 1.355 . S
C670 C672 1.415 . S
C671 C670 1.355 . S
C671 C673 1.419 1_554 S
C672 C670 1.415 . S
C672 C677 1.425 1_455 S
C672 C679 1.409 1_455 S
C673 H665 0.930 . S
C673 C671 1.419 1_556 S
C673 C674 1.362 . S
C674 H666 0.930 . S
C674 C673 1.362 . S
C674 C677 1.409 1_456 S
C675 H667 0.930 . S
C675 C676 1.355 1_556 S
C675 C677 1.415 1_556 S
C676 C675 1.355 1_554 S
C676 C678 1.419 . S
C677 C672 1.425 1_655 S
C677 C674 1.409 1_654 S
C677 C675 1.415 1_554 S
C678 H668 0.930 . S
C678 C676 1.419 . S
C678 C679 1.362 . S
C679 H669 0.930 . S
C679 C672 1.409 1_655 S
C679 C678 1.362 . S
H680 C686 0.930 1_545 S
H681 C689 0.930 . S
H682 C690 0.930 . S
H683 C691 0.930 1_565 S
H684 C694 0.930 . S
H685 C695 0.930 . S
C686 H680 0.930 1_565 S
C686 C687 1.355 . S
C686 C688 1.415 1_565 S
C687 C686 1.355 . S
C687 C689 1.419 . S
C688 C686 1.415 1_545 S
C688 C693 1.425 1_545 S
C688 C695 1.409 . S
C689 H681 0.930 . S
C689 C687 1.419 . S
C689 C690 1.362 . S
C690 H682 0.930 . S
C690 C689 1.362 . S
C690 C693 1.409 . S
C691 H683 0.930 1_545 S
C691 C692 1.355 . S
C691 C693 1.415 1_545 S
C692 C691 1.355 . S
C692 C694 1.419 . S
C693 C688 1.425 1_565 S
C693 C690 1.409 . S
C693 C691 1.415 1_565 S
C694 H684 0.930 . S
C694 C692 1.419 . S
C694 C695 1.362 . S
C695 H685 0.930 . S
C695 C688 1.409 . S
C695 C694 1.362 . S
H696 C702 0.930 . S
H697 C705 0.930 . S
H698 C706 0.930 . S
H699 C707 0.930 . S
H700 C710 0.930 . S
H701 C711 0.930 . S
C702 H696 0.930 . S
C702 C703 1.355 . S
C702 C704 1.415 . S
C703 C702 1.355 . S
C703 C705 1.419 . S
C704 C702 1.415 . S
C704 C709 1.425 . S
C704 C711 1.409 . S
C705 H697 0.930 . S
C705 C703 1.419 . S
C705 C706 1.362 . S
C706 H698 0.930 . S
C706 C705 1.362 . S
C706 C709 1.409 . S
C707 H699 0.930 . S
C707 C708 1.355 . S
C707 C709 1.415 . S
C708 C707 1.355 . S
C708 C710 1.419 . S
C709 C704 1.425 . S
C709 C706 1.409 . S
C709 C707 1.415 . S
C710 H700 0.930 . S
C710 C708 1.419 . S
C710 C711 1.362 . S
C711 H701 0.930 . S
C711 C704 1.409 . S
C711 C710 1.362 . S
H712 C718 0.930 1_655 S
H713 C721 0.930 . S
H714 C722 0.930 . S
H715 C723 0.930 . S
H716 C726 0.930 . S
H717 C727 0.930 1_655 S
C718 H712 0.930 1_455 S
C718 C719 1.355 . S
C718 C720 1.415 . S
C719 C718 1.355 . S
C719 C721 1.419 . S
C720 C718 1.415 . S
C720 C725 1.425 . S
C720 C727 1.409 . S
C721 H713 0.930 . S
C721 C719 1.419 . S
C721 C722 1.362 . S
C722 H714 0.930 . S
C722 C721 1.362 . S
C722 C725 1.409 . S
C723 H715 0.930 . S
C723 C724 1.355 . S
C723 C725 1.415 . S
C724 C723 1.355 . S
C724 C726 1.419 . S
C725 C720 1.425 . S
C725 C722 1.409 . S
C725 C723 1.415 . S
C726 H716 0.930 . S
C726 C724 1.419 . S
C726 C727 1.362 . S
C727 H717 0.930 1_455 S
C727 C720 1.409 . S
C727 C726 1.362 . S
H728 C734 0.930 . S
H729 C737 0.930 . S
H730 C738 0.930 . S
H731 C739 0.930 . S
H732 C742 0.930 . S
H733 C743 0.930 . S
C734 H728 0.930 . S
C734 C735 1.355 . S
C734 C736 1.415 . S
C735 C734 1.355 . S
C735 C737 1.419 . S
C736 C734 1.415 . S
C736 C741 1.425 . S
C736 C743 1.409 . S
C737 H729 0.930 . S
C737 C735 1.419 . S
C737 C738 1.362 . S
C738 H730 0.930 . S
C738 C737 1.362 . S
C738 C741 1.409 . S
C739 H731 0.930 . S
C739 C740 1.355 . S
C739 C741 1.415 . S
C740 C739 1.355 . S
C740 C742 1.419 . S
C741 C736 1.425 . S
C741 C738 1.409 . S
C741 C739 1.415 . S
C742 H732 0.930 . S
C742 C740 1.419 . S
C742 C743 1.362 . S
C743 H733 0.930 . S
C743 C736 1.409 . S
C743 C742 1.362 . S
H744 C750 0.930 . S
H745 C753 0.930 . S
H746 C754 0.930 . S
H747 C755 0.930 . S
H748 C758 0.930 . S
H749 C759 0.930 . S
C750 H744 0.930 . S
C750 C751 1.355 . S
C750 C752 1.415 . S
C751 C750 1.355 . S
C751 C753 1.419 . S
C752 C750 1.415 . S
C752 C757 1.425 . S
C752 C759 1.409 . S
C753 H745 0.930 . S
C753 C751 1.419 . S
C753 C754 1.362 . S
C754 H746 0.930 . S
C754 C753 1.362 . S
C754 C757 1.409 . S
C755 H747 0.930 . S
C755 C756 1.355 . S
C755 C757 1.415 . S
C756 C755 1.355 . S
C756 C758 1.419 . S
C757 C752 1.425 . S
C757 C754 1.409 . S
C757 C755 1.415 . S
C758 H748 0.930 . S
C758 C756 1.419 . S
C758 C759 1.362 . S
C759 H749 0.930 . S
C759 C752 1.409 . S
C759 C758 1.362 . S
H760 C766 0.930 . S
H761 C769 0.930 1_455 S
H762 C770 0.930 . S
H763 C771 0.930 . S
H764 C774 0.930 . S
H765 C775 0.930 . S
C766 H760 0.930 . S
C766 C767 1.355 . S
C766 C768 1.415 . S
C767 C766 1.355 . S
C767 C769 1.419 . S
C768 C766 1.415 . S
C768 C773 1.425 . S
C768 C775 1.409 . S
C769 H761 0.930 1_655 S
C769 C767 1.419 . S
C769 C770 1.362 . S
C770 H762 0.930 . S
C770 C769 1.362 . S
C770 C773 1.409 . S
C771 H763 0.930 . S
C771 C772 1.355 . S
C771 C773 1.415 . S
C772 C771 1.355 . S
C772 C774 1.419 . S
C773 C768 1.425 . S
C773 C770 1.409 . S
C773 C771 1.415 . S
C774 H764 0.930 . S
C774 C772 1.419 . S
C774 C775 1.362 . S
C775 H765 0.930 . S
C775 C768 1.409 . S
C775 C774 1.362 . S
H776 C782 0.930 . S
H777 C785 0.930 . S
H778 C786 0.930 . S
H779 C787 0.930 . S
H780 C790 0.930 . S
H781 C791 0.930 . S
C782 H776 0.930 . S
C782 C783 1.355 . S
C782 C784 1.415 . S
C783 C782 1.355 . S
C783 C785 1.419 . S
C784 C782 1.415 . S
C784 C789 1.425 . S
C784 C791 1.409 . S
C785 H777 0.930 . S
C785 C783 1.419 . S
C785 C786 1.362 . S
C786 H778 0.930 . S
C786 C785 1.362 . S
C786 C789 1.409 . S
C787 H779 0.930 . S
C787 C788 1.355 . S
C787 C789 1.415 . S
C788 C787 1.355 . S
C788 C790 1.419 . S
C789 C784 1.425 . S
C789 C786 1.409 . S
C789 C787 1.415 . S
C790 H780 0.930 . S
C790 C788 1.419 . S
C790 C791 1.362 . S
C791 H781 0.930 . S
C791 C784 1.409 . S
C791 C790 1.362 . S
C511 C391 1.236 . S
C516 C70 1.092 . S
C527 C475 1.228 . S
C532 C154 1.085 . S
C543 C55 1.188 . S
C548 C238 0.946 . S
C559 C139 1.224 . S
C564 C322 1.078 . S
C575 C223 1.185 . S
C580 C406 0.939 . S
C591 C307 1.237 . S
C596 C490 1.084 . S
C607 C68 1.663 . S
C612 C320 1.666 . S
C623 C404 1.653 . S
C628 C152 1.666 . S
C639 C488 1.655 . S
C644 C236 1.666 . S
C655 C224 1.746 . S
C660 C476 1.729 . S
C671 C56 1.740 . S
C676 C308 1.767 . S
C687 C392 1.730 . S
C692 C140 1.745 . S
C703 C487 1.166 . S
C708 C58 1.002 . S
C719 C142 1.090 . S
C724 C67 1.114 . S
C735 C226 1.111 . S
C740 C151 1.165 . S
C751 C235 1.125 . S
C756 C310 1.107 . S
C767 C394 1.053 . S
C772 C319 1.176 . S
C783 C478 1.042 . S
C788 C403 1.100 . S
