# Generated by pormake.
# Topology smm, (6)-cn, num edge types: 1
# Building blocks:
#     Node 0, Type 0, BuildingBlock: UKALOJ_clean_sbu_0, # of connection points: 6
#     Node 1, Type 0, BuildingBlock: UKALOJ_clean_sbu_0, # of connection points: 6
#     Node 2, Type 0, BuildingBlock: UKALOJ_clean_sbu_0, # of connection points: 6
#     Node 3, Type 0, BuildingBlock: UKALOJ_clean_sbu_0, # of connection points: 6
#     Node 4, Type 0, BuildingBlock: UKALOJ_clean_sbu_0, # of connection points: 6
#     Node 5, Type 0, BuildingBlock: UKALOJ_clean_sbu_0, # of connection points: 6
#     Node 6, Type 0, BuildingBlock: UKALOJ_clean_sbu_0, # of connection points: 6
#     Node 7, Type 0, BuildingBlock: UKALOJ_clean_sbu_0, # of connection points: 6
#     Node 8, Type 0, BuildingBlock: UKALOJ_clean_sbu_0, # of connection points: 6
#     Edge 9, Type (0, 0), BuildingBlock: EZIPEK_clean_linker_0, # of connection points: 2
#     Edge 10, Type (0, 0), BuildingBlock: EZIPEK_clean_linker_0, # of connection points: 2
#     Edge 11, Type (0, 0), BuildingBlock: EZIPEK_clean_linker_0, # of connection points: 2
#     Edge 12, Type (0, 0), BuildingBlock: EZIPEK_clean_linker_0, # of connection points: 2
#     Edge 13, Type (0, 0), BuildingBlock: EZIPEK_clean_linker_0, # of connection points: 2
#     Edge 14, Type (0, 0), BuildingBlock: EZIPEK_clean_linker_0, # of connection points: 2
#     Edge 15, Type (0, 0), BuildingBlock: EZIPEK_clean_linker_0, # of connection points: 2
#     Edge 16, Type (0, 0), BuildingBlock: EZIPEK_clean_linker_0, # of connection points: 2
#     Edge 17, Type (0, 0), BuildingBlock: EZIPEK_clean_linker_0, # of connection points: 2
#     Edge 18, Type (0, 0), BuildingBlock: EZIPEK_clean_linker_0, # of connection points: 2
#     Edge 19, Type (0, 0), BuildingBlock: EZIPEK_clean_linker_0, # of connection points: 2
#     Edge 20, Type (0, 0), BuildingBlock: EZIPEK_clean_linker_0, # of connection points: 2
#     Edge 21, Type (0, 0), BuildingBlock: EZIPEK_clean_linker_0, # of connection points: 2
#     Edge 22, Type (0, 0), BuildingBlock: EZIPEK_clean_linker_0, # of connection points: 2
#     Edge 23, Type (0, 0), BuildingBlock: EZIPEK_clean_linker_0, # of connection points: 2
#     Edge 24, Type (0, 0), BuildingBlock: EZIPEK_clean_linker_0, # of connection points: 2
#     Edge 25, Type (0, 0), BuildingBlock: EZIPEK_clean_linker_0, # of connection points: 2
#     Edge 26, Type (0, 0), BuildingBlock: EZIPEK_clean_linker_0, # of connection points: 2
#     Edge 27, Type (0, 0), BuildingBlock: EZIPEK_clean_linker_0, # of connection points: 2
#     Edge 28, Type (0, 0), BuildingBlock: EZIPEK_clean_linker_0, # of connection points: 2
#     Edge 29, Type (0, 0), BuildingBlock: EZIPEK_clean_linker_0, # of connection points: 2
#     Edge 30, Type (0, 0), BuildingBlock: EZIPEK_clean_linker_0, # of connection points: 2
#     Edge 31, Type (0, 0), BuildingBlock: EZIPEK_clean_linker_0, # of connection points: 2
#     Edge 32, Type (0, 0), BuildingBlock: EZIPEK_clean_linker_0, # of connection points: 2
#     Edge 33, Type (0, 0), BuildingBlock: EZIPEK_clean_linker_0, # of connection points: 2
#     Edge 34, Type (0, 0), BuildingBlock: EZIPEK_clean_linker_0, # of connection points: 2
#     Edge 35, Type (0, 0), BuildingBlock: EZIPEK_clean_linker_0, # of connection points: 2
# Relax obj value: 0.371
# Max RMSD: 0.288
# Mean RMSD: 0.274
data_MOF--net-smm--node1-UKALOJ_clean_sbu_0--edge1-EZIPEK_clean_linker_0
_symmetry_space_group_name_H-M    P1
_symmetry_Int_Tables_number       1
_symmetry_cell_setting            triclinic
loop_
_symmetry_equiv_pos_as_xyz
'x, y, z'
_cell_length_a     35.689413
_cell_length_b     34.868586
_cell_length_c     15.537536
_cell_angle_alpha  92.848573
_cell_angle_beta   92.811437
_cell_angle_gamma 120.07819
loop_
_atom_site_label
_atom_site_type_symbol
_atom_site_fract_x
_atom_site_fract_y
_atom_site_fract_z
_atom_type_partial_charge
Zn0 Zn 0.02097 0.22041 0.10799 0.0
O1 O 0.9802 0.14733 0.13169 0.0
C2 C 0.07273 0.18761 0.04699 0.0
Zn3 Zn -0.00706 0.19352 0.97599 0.0
C4 C 0.95322 0.11892 0.07141 0.0
O5 O 0.94958 0.13191 0.99929 0.0
C6 C 0.06153 0.29062 0.98974 0.0
O7 O 0.94108 0.21009 0.98158 0.0
O8 O 0.96799 0.2278 0.11679 0.0
N9 N 0.98082 0.17263 0.84925 0.0
C10 C 0.97606 0.19149 0.77925 0.0
C11 C -0.00469 0.14523 0.73717 0.0
N12 N -0.0081 0.1433 0.82272 0.0
N13 N 0.98618 0.17568 0.70856 0.0
C14 C 0.01216 0.22895 0.30371 0.0
C15 C 0.07717 0.25347 0.35663 0.0
N16 N 0.0373 0.23859 0.23704 0.0
N17 N 0.07778 0.25451 0.27019 0.0
N18 N 0.03631 0.2373 0.37905 0.0
H19 H 0.95646 0.23492 0.2733 0.0
H20 H 0.94928 0.19942 0.35742 0.0
H21 H 0.94852 0.18027 0.2468 0.0
C22 C 0.96381 0.20944 0.2952 0.0
C23 C 0.96379 0.22679 0.78086 0.0
H24 H 0.93495 0.21656 0.81787 0.0
H25 H 0.9564 0.23289 0.71444 0.0
H26 H 0.99073 0.25812 0.81348 0.0
O27 O 0.03699 0.25544 0.94221 0.0
O28 O 0.06096 0.28964 0.07197 0.0
C29 C 0.93874 0.22157 0.05979 0.0
O30 O 0.07443 0.21408 0.1067 0.0
O31 O 0.04389 0.175 0.98338 0.0
Zn32 Zn 0.81975 0.85624 0.1254 0.0
O33 O 0.75072 0.83715 0.09593 0.0
C34 C 0.79612 0.76086 0.11628 0.0
Zn35 Zn 0.82291 0.83114 0.99477 0.0
C36 C 0.73668 0.8212 0.0174 0.0
O37 O 0.76069 0.81502 0.96901 0.0
C38 C 0.9081 0.86948 0.08246 0.0
O39 O 0.84588 0.90079 0.96487 0.0
O40 O 0.83759 0.91785 0.09684 0.0
N41 N 0.82536 0.81348 0.86859 0.0
C42 C 0.80711 0.81856 0.79522 0.0
C43 C 0.85791 0.80714 0.76002 0.0
N44 N 0.8564 0.80561 0.84627 0.0
N45 N 0.82749 0.81557 0.72669 0.0
C46 C 0.80271 0.85402 0.31728 0.0
C47 C 0.86224 0.91091 0.36945 0.0
N48 N 0.82329 0.87666 0.2506 0.0
N49 N 0.85985 0.91235 0.28323 0.0
N50 N 0.82708 0.87433 0.39233 0.0
H51 H 0.74032 0.80878 0.24906 0.0
H52 H 0.74171 0.8092 0.36605 0.0
H53 H 0.76508 0.78244 0.30602 0.0
C54 C 0.7599 0.81125 0.30888 0.0
C55 C 0.77135 0.82938 0.79079 0.0
H56 H 0.74144 0.8011 0.81176 0.0
H57 H 0.76335 0.83473 0.7243 0.0
H58 H 0.78089 0.8596 0.83419 0.0
O59 O 0.88569 0.84731 0.01421 0.0
O60 O 0.88937 0.8769 0.14367 0.0
C61 C 0.84928 0.92991 0.02319 0.0
O62 O 0.80245 0.79451 0.16273 0.0
O63 O 0.80101 0.76379 0.0353 0.0
Zn64 Zn 0.16908 0.02842 0.93557 0.0
O65 O 0.23912 0.08161 0.96341 0.0
C66 C 0.19066 0.95562 0.92153 0.0
Zn67 Zn 0.17115 0.0029 0.06283 0.0
C68 C 0.25546 0.08069 0.03817 0.0
O69 O 0.23369 0.04922 0.08316 0.0
C70 C 0.08284 0.95385 0.98803 0.0
O71 O 0.15541 0.05486 0.1095 0.0
O72 O 0.15306 0.07215 0.97651 0.0
N73 N 0.17844 0.98748 0.18601 0.0
C74 C 0.16124 0.99187 0.2585 0.0
C75 C 0.2146 0.98356 0.29773 0.0
N76 N 0.21131 0.98176 0.21053 0.0
N77 N 0.18356 0.99011 0.32904 0.0
C78 C 0.18593 0.04508 0.74357 0.0
C79 C 0.12629 0.03851 0.69293 0.0
N80 N 0.16327 0.04351 0.81152 0.0
N81 N 0.12649 0.04018 0.77987 0.0
N82 N 0.16321 0.04127 0.66874 0.0
H83 H 0.24376 0.05463 0.81514 0.0
H84 H 0.25009 0.06921 0.70449 0.0
H85 H 0.22152 0.01197 0.7254 0.0
C86 C 0.22798 0.04544 0.74854 0.0
C87 C 0.12421 0.00028 0.26153 0.0
H88 H 0.1373 0.03666 0.27137 0.0
H89 H 0.10514 0.9849 0.31704 0.0
H90 H 0.10267 0.98642 0.20087 0.0
O91 O 0.10729 0.95622 0.05192 0.0
O92 O 0.09941 0.97755 0.92493 0.0
C93 C 0.14961 0.07842 0.05529 0.0
O94 O 0.18446 0.98356 0.88484 0.0
O95 O 0.18805 0.95393 1.00342 0.0
Zn96 Zn 0.63213 0.52288 0.28965 0.0
O97 O 0.68056 0.50355 0.25703 0.0
C98 C 0.59122 0.44006 0.35883 0.0
Zn99 Zn 0.66367 0.53683 0.42305 0.0
C100 C 0.70814 0.50596 0.31614 0.0
O101 O 0.70867 0.5217 0.39108 0.0
C102 C 0.58913 0.55193 0.41816 0.0
O103 O 0.71023 0.60887 0.40711 0.0
O104 O 0.67658 0.5861 0.27783 0.0
N105 N 0.68334 0.53906 0.55066 0.0
C106 C 0.67819 0.55828 0.62319 0.0
C107 C 0.68984 0.5071 0.6614 0.0
N108 N 0.69137 0.5078 0.57499 0.0
N109 N 0.68129 0.53829 0.69301 0.0
C110 C 0.62373 0.51146 0.08771 0.0
C111 C 0.59921 0.55429 0.05834 0.0
N112 N 0.61302 0.52311 0.16265 0.0
N113 N 0.59732 0.54933 0.14382 0.0
N114 N 0.61595 0.531 0.02203 0.0
H115 H 0.67914 0.50313 0.09383 0.0
H116 H 0.63729 0.46733 0.01119 0.0
H117 H 0.62922 0.45598 0.12295 0.0
C118 C 0.64346 0.48264 0.07851 0.0
C119 C 0.66703 0.59429 0.62607 0.0
H120 H 0.67774 0.61359 0.5687 0.0
H121 H 0.68286 0.61695 0.68577 0.0
H122 H 0.6314 0.57915 0.62844 0.0
O123 O 0.61866 0.55074 0.46308 0.0
O124 O 0.58532 0.54291 0.33618 0.0
C125 C 0.70588 0.61683 0.32856 0.0
O126 O 0.58773 0.45789 0.29243 0.0
O127 O 0.61724 0.46465 0.42399 0.0
Zn128 Zn 0.48285 0.17573 0.38469 0.0
O129 O 0.41207 0.15218 0.3529 0.0
C130 C 0.4591 0.08127 0.37613 0.0
Zn131 Zn 0.49195 0.15433 0.25706 0.0
C132 C 0.40433 0.14407 0.27039 0.0
O133 O 0.43397 0.14649 0.22675 0.0
C134 C 0.5729 0.18564 0.34612 0.0
O135 O 0.5208 0.226 0.23383 0.0
O136 O 0.49651 0.23673 0.35385 0.0
N137 N 0.48962 0.13468 0.12907 0.0
C138 C 0.50584 0.15844 0.06064 0.0
C139 C 0.45706 0.09309 0.01063 0.0
N140 N 0.45982 0.09388 0.09763 0.0
N141 N 0.48546 0.13337 0.9861 0.0
C142 C 0.46708 0.1744 0.58024 0.0
C143 C 0.52191 0.23605 0.63085 0.0
N144 N 0.48605 0.19697 0.51206 0.0
N145 N 0.51975 0.2356 0.54391 0.0
N146 N 0.48931 0.19782 0.6551 0.0
H147 H 0.40992 0.12003 0.51116 0.0
H148 H 0.40811 0.1246 0.62739 0.0
H149 H 0.44116 0.10471 0.58296 0.0
C150 C 0.4291 0.12816 0.5744 0.0
C151 C 0.54036 0.20648 0.06575 0.0
H152 H 0.52497 0.22729 0.06995 0.0
H153 H 0.55817 0.2139 1.00659 0.0
H154 H 0.56372 0.21494 0.12311 0.0
O155 O 0.55073 0.162 0.27865 0.0
O156 O 0.55426 0.19829 0.40019 0.0
C157 C 0.51501 0.25161 0.28656 0.0
O158 O 0.46874 0.11565 0.42379 0.0
O159 O 0.46222 0.08413 0.29457 0.0
Zn160 Zn 0.8268 0.33999 0.37466 0.0
O161 O 0.85775 0.29881 0.34881 0.0
C162 C 0.91558 0.41425 0.38733 0.0
Zn163 Zn 0.83973 0.36863 0.25598 0.0
C164 C 0.85895 0.29495 0.26643 0.0
O165 O 0.84725 0.31635 0.22042 0.0
C166 C 0.80705 0.41593 0.33528 0.0
O167 O 0.76697 0.32531 0.2267 0.0
O168 O 0.76946 0.28639 0.32934 0.0
N169 N 0.85175 0.3851 0.1326 0.0
C170 C 0.82941 0.36269 0.05712 0.0
C171 C 0.88984 0.41706 0.02712 0.0
N172 N 0.88925 0.41891 0.11392 0.0
N173 N 0.85266 0.38196 0.9904 0.0
C174 C 0.83095 0.32806 0.57144 0.0
C175 C 0.76504 0.30473 0.59594 0.0
N176 N 0.8084 0.32017 0.49433 0.0
N177 N 0.76731 0.30502 0.50975 0.0
N178 N 0.8047 0.31926 0.63586 0.0
H179 H 0.89012 0.33609 0.52802 0.0
H180 H 0.88732 0.33524 0.64392 0.0
H181 H 0.8954 0.38359 0.59297 0.0
C182 C 0.87887 0.34675 0.58465 0.0
C183 C 0.78586 0.32083 0.04859 0.0
H184 H 0.7863 0.29667 0.09173 0.0
H185 H 0.77635 0.30512 0.98141 0.0
H186 H 0.76083 0.32886 0.06724 0.0
O187 O 0.83347 0.42236 0.2797 0.0
O188 O 0.79699 0.3839 0.3839 0.0
C189 C 0.74761 0.29164 0.27061 0.0
O190 O 0.88348 0.39171 0.42929 0.0
O191 O 0.91014 0.41003 0.30448 0.0
Zn192 Zn 0.33294 0.87209 0.71867 0.0
O193 O 0.28564 0.80015 0.73522 0.0
C194 C 0.37971 0.83334 0.65084 0.0
Zn195 Zn 0.307 0.85111 0.58387 0.0
C196 C 0.2586 0.77475 0.67185 0.0
O197 O 0.25852 0.79063 0.60131 0.0
C198 C 0.38203 0.94427 0.60557 0.0
O199 O 0.2604 0.87595 0.59962 0.0
O200 O 0.28581 0.88647 0.73497 0.0
N201 N 0.29057 0.83497 0.45492 0.0
C202 C 0.29619 0.86093 0.38976 0.0
C203 C 0.27908 0.79671 0.33336 0.0
N204 N 0.27913 0.79482 0.41972 0.0
N205 N 0.28993 0.83796 0.3132 0.0
C206 C 0.32782 0.87221 0.91564 0.0
C207 C 0.38707 0.93072 0.96335 0.0
N208 N 0.35007 0.88996 0.847 0.0
N209 N 0.38678 0.92645 0.87653 0.0
N210 N 0.35031 0.89703 0.98895 0.0
H211 H 0.26228 0.83262 0.85943 0.0
H212 H 0.26854 0.82651 0.97258 0.0
H213 H 0.28733 0.80157 0.89569 0.0
C214 C 0.28391 0.83101 0.91089 0.0
C215 C 0.31052 0.90948 0.40026 0.0
H216 H 0.30131 0.91815 0.46225 0.0
H217 H 0.29566 0.91847 0.34642 0.0
H218 H 0.34627 0.92926 0.39779 0.0
O219 O 0.35616 0.91103 0.55539 0.0
O220 O 0.37948 0.94154 0.68713 0.0
C221 C 0.25861 0.8856 0.6795 0.0
O222 O 0.38027 0.85744 0.7143 0.0
O223 O 0.35337 0.82485 0.58381 0.0
Zn224 Zn 0.13813 0.51529 0.75491 0.0
O225 O 0.06731 0.48895 0.723 0.0
C226 C 0.12756 0.42335 0.75061 0.0
Zn227 Zn 0.14486 0.49049 0.62691 0.0
C228 C 0.05469 0.47084 0.64533 0.0
O229 O 0.08072 0.46591 0.60089 0.0
C230 C 0.23055 0.54015 0.71228 0.0
O231 O 0.15825 0.55817 0.5961 0.0
O232 O 0.14777 0.57391 0.72689 0.0
N233 N 0.14868 0.47411 0.50041 0.0
C234 C 0.12909 0.47759 0.42715 0.0
C235 C 0.18012 0.46684 0.39071 0.0
N236 N 0.17997 0.46679 0.47744 0.0
N237 N 0.14853 0.47365 0.35767 0.0
C238 C 0.11939 0.50942 0.94607 0.0
C239 C 0.17736 0.56739 1.00058 0.0
N240 N 0.13937 0.53374 0.88058 0.0
N241 N 0.17494 0.57004 0.91475 0.0
N242 N 0.14327 0.52935 0.02179 0.0
H243 H 0.05716 0.46399 0.87771 0.0
H244 H 0.05941 0.46142 0.99411 0.0
H245 H 0.08394 0.43799 0.9282 0.0
C246 C 0.07745 0.46579 0.93578 0.0
C247 C 0.09202 0.48652 0.42348 0.0
H248 H 0.09901 0.51465 0.47064 0.0
H249 H 0.06239 0.45644 0.44008 0.0
H250 H 0.08472 0.49368 0.35811 0.0
O251 O 0.20969 0.51528 0.64525 0.0
O252 O 0.20983 0.54494 0.77274 0.0
C253 C 0.15608 0.58536 0.65174 0.0
O254 O 0.12844 0.45552 0.79321 0.0
O255 O 0.13215 0.42539 0.66942 0.0
Zn256 Zn 0.49034 0.67407 0.77314 0.0
O257 O 0.46773 0.72267 0.79721 0.0
C258 C 0.4123 0.63527 0.66835 0.0
Zn259 Zn 0.509 0.70429 0.65265 0.0
C260 C 0.48129 0.75579 0.75066 0.0
O261 O 0.50474 0.75764 0.69143 0.0
C262 C 0.51678 0.62451 0.65071 0.0
O263 O 0.57974 0.74235 0.69912 0.0
O264 O 0.55093 0.72026 0.82104 0.0
N265 N 0.51627 0.72593 0.53082 0.0
C266 C 0.53126 0.71554 0.46056 0.0
C267 C 0.49068 0.74025 0.41574 0.0
N268 N 0.49169 0.74203 0.50265 0.0
N269 N 0.51502 0.72341 0.38781 0.0
C270 C 0.48352 0.67301 0.97195 0.0
C271 C 0.49479 0.62038 1.00083 0.0
N272 N 0.48338 0.65273 0.8957 0.0
N273 N 0.49026 0.6199 0.91396 0.0
N274 N 0.4908 0.65361 0.03848 0.0
H275 H 0.503 0.74015 0.94848 0.0
H276 H 0.47971 0.72402 0.05033 0.0
H277 H 0.44511 0.70248 0.9515 0.0
C278 C 0.4778 0.7125 0.98161 0.0
C279 C 0.55931 0.69496 0.4616 0.0
H280 H 0.57891 0.70384 0.5246 0.0
H281 H 0.58132 0.7066 0.40878 0.0
H282 H 0.53849 0.6583 0.4499 0.0
O283 O 0.51314 0.65152 0.60562 0.0
O284 O 0.51279 0.62681 0.73196 0.0
C285 C 0.5841 0.74292 0.78188 0.0
O286 O 0.42871 0.62774 0.73453 0.0
O287 O 0.43727 0.66534 0.62082 0.0
C288 C 0.05664 0.34181 0.89355 0.0
C289 C 0.08417 0.33161 0.94311 0.0
C290 C 0.14303 0.37752 0.85283 0.0
C291 C 0.11307 0.38254 0.79751 0.0
N292 N 0.03862 0.35575 0.75139 0.0
N293 N 0.15321 0.33542 0.96323 0.0
C294 C 0.06895 0.36009 0.8136 0.0
C295 C 0.12748 0.34826 0.92088 0.0
N296 N 0.01856 0.33417 0.92373 0.0
N297 N 0.18613 0.40096 0.84062 0.0
H298 H 0.14293 0.31564 0.01511 0.0
H299 H 0.18357 0.34277 0.94449 0.0
H300 H 0.19723 0.4197 0.78767 0.0
H301 H 0.2103 0.40267 0.8838 0.0
H302 H -0.00162 0.34381 0.89279 0.0
H303 H 0.01061 0.32303 0.98493 0.0
H304 H 0.00532 0.33644 0.75718 0.0
H305 H 0.0474 0.3669 0.69043 0.0
C306 C 0.66134 0.7625 0.97658 0.0
C307 C 0.69287 0.8077 0.97653 0.0
C308 C 0.65361 0.81244 0.84532 0.0
C309 C 0.62596 0.76551 0.83837 0.0
N310 N 0.60914 0.6949 0.89173 0.0
N311 N 0.72116 0.87627 0.90883 0.0
C312 C 0.63151 0.74035 0.90265 0.0
C313 C 0.68931 0.83293 0.91057 0.0
N314 N 0.66037 0.74062 0.04761 0.0
N315 N 0.64504 0.83758 0.79199 0.0
H316 H 0.74639 0.89231 0.95774 0.0
H317 H 0.72381 0.89522 0.85727 0.0
H318 H 0.61986 0.82372 0.74278 0.0
H319 H 0.66111 0.87217 0.80012 0.0
H320 H 0.63554 0.70851 0.05565 0.0
H321 H 0.68198 0.75668 0.1025 0.0
H322 H 0.61499 0.67506 0.93185 0.0
H323 H 0.58771 0.67697 0.83782 0.0
C324 C 0.24443 0.96028 0.8225 0.0
C325 C 0.20751 0.93231 0.86583 0.0
C326 C 0.19459 0.87011 0.76228 0.0
C327 C 0.22927 0.90002 0.71502 0.0
N328 N 0.27523 0.97514 0.68443 0.0
N329 N 0.14306 0.86075 0.86842 0.0
C330 C 0.24984 0.94573 0.7399 0.0
C331 C 0.18106 0.88708 0.83309 0.0
N332 N 0.27473 0.00087 0.86123 0.0
N333 N 0.17569 0.82552 0.7409 0.0
H334 H 0.13367 0.8721 0.92201 0.0
H335 H 0.1203 0.82875 0.84215 0.0
H336 H 0.18394 0.81297 0.68717 0.0
H337 H 0.15349 0.80156 0.77789 0.0
H338 H 0.3039 0.02151 0.83499 0.0
H339 H 0.27201 0.01112 0.92366 0.0
H340 H 0.28979 0.00951 0.69715 0.0
H341 H 0.27705 0.96409 0.62187 0.0
C342 C 0.33766 0.15037 0.2227 0.0
C343 C 0.36225 0.1287 0.21733 0.0
C344 C 0.33032 0.10057 0.06832 0.0
C345 C 0.2994 0.1134 0.07901 0.0
N346 N 0.27073 0.14767 0.1732 0.0
N347 N 0.36818 0.06953 0.14238 0.0
C348 C 0.30257 0.13811 0.15804 0.0
C349 C 0.35416 0.09945 0.14226 0.0
N350 N 0.34775 0.18271 0.28746 0.0
N351 N 0.33544 0.0875 0.98797 0.0
H352 H 0.38291 0.06525 0.19789 0.0
H353 H 0.36056 0.04594 0.09049 0.0
H354 H 0.3188 0.08999 0.93326 0.0
H355 H 0.35912 0.07914 0.97633 0.0
H356 H 0.33327 0.20229 0.28907 0.0
H357 H 0.37249 0.19179 0.33628 0.0
H358 H 0.26845 0.16097 0.23298 0.0
H359 H 0.2453 0.13966 0.12673 0.0
C360 C 0.8629 0.22633 0.21478 0.0
C361 C 0.87951 0.27291 0.2182 0.0
C362 C 0.91508 0.27559 0.08479 0.0
C363 C 0.90548 0.2317 0.09 0.0
N364 N 0.8694 0.16357 0.15854 0.0
N365 N 0.93022 0.34328 0.16492 0.0
C366 C 0.87871 0.20641 0.15441 0.0
C367 C 0.90826 0.29788 0.15552 0.0
N368 N 0.83144 0.20111 0.26696 0.0
N369 N 0.93123 0.29606 0.01197 0.0
H370 H 0.92819 0.36106 0.21837 0.0
H371 H 0.9541 0.36298 0.12519 0.0
H372 H 0.93343 0.27856 0.9578 0.0
H373 H 0.93764 0.32806 1.00204 0.0
H374 H 0.81493 0.16648 0.26161 0.0
H375 H 0.82023 0.21497 0.31274 0.0
H376 H 0.85447 0.1445 0.20922 0.0
H377 H 0.87841 0.14796 0.11157 0.0
C378 C 0.73121 0.69263 0.15165 0.0
C379 C 0.77682 0.71863 0.15922 0.0
C380 C 0.77861 0.68124 0.28965 0.0
C381 C 0.7325 0.65951 0.28746 0.0
N382 N 0.66691 0.65635 0.22811 0.0
N383 N 0.84483 0.74148 0.24068 0.0
C384 C 0.70963 0.66922 0.22222 0.0
C385 C 0.8008 0.71404 0.23006 0.0
N386 N 0.7082 0.69002 0.07667 0.0
N387 N 0.80117 0.66966 0.34571 0.0
H388 H 0.86194 0.76373 0.19546 0.0
H389 H 0.86386 0.74351 0.29567 0.0
H390 H 0.78653 0.64734 0.39209 0.0
H391 H 0.83409 0.68055 0.34323 0.0
H392 H 0.67505 0.66727 0.06443 0.0
H393 H 0.72308 0.70665 0.02333 0.0
H394 H 0.64985 0.66584 0.18627 0.0
H395 H 0.65 0.64016 0.28 0.0
C396 C 0.0068 0.49103 0.55688 0.0
C397 C 0.0124 0.4582 0.59697 0.0
C398 C 0.9688 0.40457 0.47462 0.0
C399 C 0.95821 0.43498 0.43957 0.0
N400 N 0.96308 0.50631 0.45418 0.0
N401 N 0.98588 0.38094 0.60713 0.0
C402 C 0.9761 0.47814 0.4828 0.0
C403 C 0.98914 0.41402 0.55959 0.0
N404 N 0.03174 0.53455 0.58771 0.0
N405 N 0.95811 0.36589 0.42754 0.0
H406 H -0.00335 0.38795 0.67265 0.0
H407 H 0.96762 0.34729 0.58562 0.0
H408 H 0.94378 0.35871 0.36439 0.0
H409 H 0.96744 0.34366 0.44814 0.0
H410 H 0.03283 0.56064 0.55582 0.0
H411 H 0.05267 0.54424 0.64379 0.0
H412 H 0.97132 0.53642 0.48804 0.0
H413 H 0.94233 0.49821 0.39806 0.0
C414 C 0.57853 0.62518 0.58596 0.0
C415 C 0.53502 0.59938 0.60667 0.0
C416 C 0.52342 0.54185 0.49205 0.0
C417 C 0.56557 0.57034 0.46582 0.0
N418 N 0.62968 0.64302 0.47734 0.0
N419 N 0.46439 0.53449 0.57547 0.0
C420 C 0.5918 0.61329 0.50954 0.0
C421 C 0.50694 0.55793 0.55852 0.0
N422 N 0.60729 0.66154 0.63971 0.0
N423 N 0.49979 0.49915 0.4554 0.0
H424 H 0.45272 0.54425 0.62746 0.0
H425 H 0.44081 0.50666 0.53684 0.0
H426 H 0.5104 0.48738 0.40453 0.0
H427 H 0.4709 0.47513 0.47779 0.0
H428 H 0.64055 0.6794 0.63309 0.0
H429 H 0.59825 0.67112 0.69585 0.0
H430 H 0.64809 0.67638 0.50073 0.0
H431 H 0.64064 0.63506 0.42213 0.0
C432 C 0.46213 0.02049 0.45329 0.0
C433 C 0.43762 0.03911 0.41971 0.0
C434 C 0.38848 0.00859 0.53449 0.0
C435 C 0.40933 0.98555 0.56232 0.0
N436 N 0.46357 0.96514 0.54099 0.0
N437 N 0.37091 0.04051 0.41525 0.0
C438 C 0.44557 0.99023 0.51943 0.0
C439 C 0.39843 0.02932 0.45586 0.0
N440 N 0.50159 0.03261 0.42368 0.0
N441 N 0.35971 0.01147 0.58486 0.0
H442 H 0.3774 0.05537 0.35695 0.0
H443 H 0.34021 0.03119 0.43508 0.0
H444 H 0.35451 -0.00118 0.64536 0.0
H445 H 0.34573 0.03081 0.57161 0.0
H446 H 0.52321 0.02404 0.45171 0.0
H447 H 0.51326 0.05302 0.37302 0.0
H448 H 0.48684 0.96317 0.50615 0.0
H449 H 0.45358 0.94484 0.59214 0.0
C450 C 0.10293 0.10475 0.12631 0.0
C451 C 0.1382 0.11321 0.07685 0.0
C452 C 0.13308 0.17373 0.01241 0.0
C453 C 0.09804 0.16511 0.06189 0.0
N454 N 0.06114 0.13391 0.18998 0.0
N455 N 0.1959 0.16572 0.99639 0.0
C456 C 0.08708 0.13479 0.12736 0.0
C457 C 0.15636 0.15125 0.02802 0.0
N458 N 0.08185 0.06642 0.16641 0.0
N459 N 0.14382 0.20287 0.94989 0.0
H460 H 0.21405 0.15025 1.00694 0.0
H461 H 0.21249 0.19537 0.96717 0.0
H462 H 0.1286 0.22137 0.93956 0.0
H463 H 0.16591 0.20663 0.90497 0.0
H464 H 0.05307 0.05669 0.19543 0.0
H465 H 0.09017 0.04193 0.16293 0.0
H466 H 0.05614 0.11552 0.24347 0.0
H467 H 0.04853 0.15496 0.19467 0.0
C468 C 0.91442 0.00097 0.98595 0.0
C469 C 0.87238 0.97901 0.01616 0.0
C470 C 0.88899 0.04789 0.10274 0.0
C471 C 0.93085 0.06979 0.07344 0.0
N472 N 0.98423 0.06863 0.98708 0.0
N473 N 0.81551 0.98504 0.08132 0.0
C474 C 0.94372 0.04639 0.01538 0.0
C475 C 0.8585 0.00381 0.06777 0.0
N476 N 0.92683 0.97833 0.93099 0.0
N477 N 0.87876 0.06926 0.16513 0.0
H478 H 0.79239 0.95341 0.05372 0.0
H479 H 0.80221 0.00211 0.11197 0.0
H480 H 0.90142 0.10106 0.19287 0.0
H481 H 0.8499 0.05419 0.19513 0.0
H482 H 0.95848 0.99009 0.91505 0.0
H483 H 0.9051 0.94782 0.89781 0.0
H484 H -0.00578 0.05796 0.93385 0.0
H485 H 0.00813 0.09858 0.01878 0.0
C486 C 0.97354 0.86476 0.05111 0.0
C487 C 0.95602 0.89149 0.07928 0.0
C488 C 0.01734 0.95681 0.02596 0.0
C489 C 0.03568 0.93051 1.00025 0.0
N490 N 0.03413 0.86068 0.99576 0.0
N491 N 0.96655 0.96462 0.11319 0.0
C492 C 0.0145 0.88475 0.01512 0.0
C493 C 0.97976 0.93812 0.07326 0.0
N494 N 0.95016 0.81987 0.05734 0.0
N495 N 0.03579 -0.00024 1.00469 0.0
H496 H 0.94001 0.95249 0.15012 0.0
H497 H 0.9842 -0.00081 0.11766 0.0
H498 H 0.06237 0.01443 0.96805 0.0
H499 H 0.02291 0.02015 0.01702 0.0
H500 H 0.95774 0.79728 0.02865 0.0
H501 H 0.92198 0.80503 0.08995 0.0
H502 H 0.02354 0.82878 0.01412 0.0
H503 H 0.06234 0.87353 0.96324 0.0
C504 C 0.72238 0.44522 0.2578 0.0
C505 C 0.73683 0.48654 0.30598 0.0
C506 C 0.79545 0.47937 0.38025 0.0
C507 C 0.78247 0.43987 0.32761 0.0
N508 N 0.74646 0.39938 0.18866 0.0
N509 N 0.79697 0.54965 0.3899 0.0
C510 C 0.75011 0.42722 0.25751 0.0
C511 C 0.77654 0.50575 0.36019 0.0
N512 N 0.68156 0.42115 0.21677 0.0
N513 N 0.82608 0.4921 0.44828 0.0
H514 H 0.78578 0.57071 0.37084 0.0
H515 H 0.82746 0.56611 0.42432 0.0
H516 H 0.84116 0.4739 0.46311 0.0
H517 H 0.83385 0.51867 0.49345 0.0
H518 H 0.66936 0.38903 0.1878 0.0
H519 H 0.6579 0.42992 0.22167 0.0
H520 H 0.72489 0.39193 0.13425 0.0
H521 H 0.76904 0.38945 0.17987 0.0
C522 C 0.59729 0.37103 0.35744 0.0
C523 C 0.57082 0.39071 0.34984 0.0
C524 C 0.51192 0.3208 0.27347 0.0
C525 C 0.5375 0.30068 0.28554 0.0
N526 N 0.60195 0.30451 0.3481 0.0
N527 N 0.50043 0.38212 0.31438 0.0
C528 C 0.57955 0.32548 0.32904 0.0
C529 C 0.52735 0.36485 0.31139 0.0
N530 N 0.64019 0.39588 0.38756 0.0
N531 N 0.47278 0.29738 0.22556 0.0
H532 H 0.51036 0.41342 0.34517 0.0
H533 H 0.46746 0.36424 0.29393 0.0
H534 H 0.46141 0.26525 0.19721 0.0
H535 H 0.45352 0.31076 0.20769 0.0
H536 H 0.66205 0.3845 0.38275 0.0
H537 H 0.65541 0.42876 0.41296 0.0
H538 H 0.62617 0.31671 0.39862 0.0
H539 H 0.59372 0.27367 0.31792 0.0
C540 C 0.64873 0.24834 0.38889 0.0
C541 C 0.62123 0.20615 0.34568 0.0
C542 C 0.67698 0.22037 0.24386 0.0
C543 C 0.69992 0.2656 0.27669 0.0
N544 N 0.70351 0.32401 0.37117 0.0
N545 N 0.6171 0.14535 0.25756 0.0
C546 C 0.68444 0.27982 0.34684 0.0
C547 C 0.63788 0.19005 0.28039 0.0
N548 N 0.64111 0.2579 0.47009 0.0
N549 N 0.69266 0.20702 0.17741 0.0
H550 H 0.59122 0.1228 0.29049 0.0
H551 H 0.62719 0.13021 0.21236 0.0
H552 H 0.72067 0.22935 0.14946 0.0
H553 H 0.67715 0.17504 0.14664 0.0
H554 H 0.66198 0.28752 0.50742 0.0
H555 H 0.6168 0.23371 0.5036 0.0
H556 H 0.6963 0.33745 0.42477 0.0
H557 H 0.72253 0.34696 0.32924 0.0
C558 C 0.47683 0.81822 0.6844 0.0
C559 C 0.46171 0.78509 0.74471 0.0
C560 C 0.39148 0.78082 0.73448 0.0
C561 C 0.40455 0.81026 0.6673 0.0
N562 N 0.45911 0.85599 0.57557 0.0
N563 N 0.4147 0.75574 0.85772 0.0
C564 C 0.44725 0.8288 0.64156 0.0
C565 C 0.42183 0.77234 0.77888 0.0
N566 N 0.52023 0.84163 0.67354 0.0
N567 N 0.34941 0.75995 0.75447 0.0
H568 H 0.43996 0.75691 0.89633 0.0
H569 H 0.38731 0.74838 0.89011 0.0
H570 H 0.32589 0.76269 0.71828 0.0
H571 H 0.337 0.73585 0.7985 0.0
H572 H 0.53443 0.86816 0.63518 0.0
H573 H 0.54278 0.83762 0.71158 0.0
H574 H 0.48856 0.86793 0.54817 0.0
H575 H 0.43763 0.86363 0.54332 0.0
C576 C 0.16416 0.65932 0.70328 0.0
C577 C 0.17142 0.63321 0.63961 0.0
C578 C 0.23611 0.69926 0.60354 0.0
C579 C 0.23116 0.72558 0.67055 0.0
N580 N 0.18581 0.7326 0.77219 0.0
N581 N 0.1993 0.63381 0.50259 0.0
C582 C 0.19377 0.70612 0.71734 0.0
C583 C 0.20279 0.65483 0.58138 0.0
N584 N 0.1284 0.63912 0.74894 0.0
N585 N 0.27318 0.71628 0.56174 0.0
H586 H 0.17153 0.60367 0.48125 0.0
H587 H 0.21985 0.64925 0.45442 0.0
H588 H 0.2989 0.74842 0.57606 0.0
H589 H 0.28012 0.69695 0.51943 0.0
H590 H 0.12346 0.65389 0.80365 0.0
H591 H 0.10305 0.60686 0.73082 0.0
H592 H 0.15738 0.72176 0.80285 0.0
H593 H 0.20731 0.76663 0.78438 0.0
C594 C 0.34105 0.63428 0.66415 0.0
C595 C 0.36399 0.61088 0.6567 0.0
C596 C 0.30112 0.54333 0.69919 0.0
C597 C 0.27849 0.56673 0.71013 0.0
N598 N 0.27637 0.63462 0.70654 0.0
N599 N 0.362 0.54116 0.64112 0.0
C600 C 0.29828 0.6123 0.69318 0.0
C601 C 0.34259 0.56466 0.66626 0.0
N602 N 0.35961 0.67687 0.64079 0.0
N603 N 0.28332 0.50101 0.72371 0.0
H604 H 0.3916 0.55622 0.6133 0.0
H605 H 0.34716 0.50669 0.63919 0.0
H606 H 0.25367 0.48543 0.75101 0.0
H607 H 0.29944 0.48308 0.72501 0.0
H608 H 0.34333 0.69444 0.63498 0.0
H609 H 0.3904 0.6937 0.61867 0.0
H610 H 0.28932 0.66844 0.7015 0.0
H611 H 0.24541 0.61981 0.72823 0.0
C612 C 0.97644 0.16306 0.55058 0.0
C613 C -0.00421 0.1929 0.62542 0.0
C614 C 0.03688 0.25354 0.53527 0.0
C615 C 0.02179 0.22245 0.46199 0.0
N616 N 0.98672 0.14556 0.40463 0.0
N617 N 0.05424 0.26404 0.68964 0.0
C618 C -0.00586 0.17648 0.47074 0.0
C619 C 0.02862 0.23771 0.61837 0.0
N620 N 0.94116 0.12194 0.55611 0.0
N621 N 0.05902 0.29802 0.52534 0.0
H622 H 0.05209 0.25256 0.75082 0.0
H623 H 0.08103 0.29562 0.68597 0.0
H624 H 0.06508 0.31038 0.46463 0.0
H625 H 0.06758 0.32217 0.57655 0.0
H626 H 0.9236 0.1001 0.50196 0.0
H627 H 0.92703 0.11174 0.61411 0.0
H628 H 0.96955 0.11144 0.41075 0.0
H629 H 0.00172 0.15398 0.34714 0.0
C630 C 0.81781 0.80031 0.56811 0.0
C631 C 0.82596 0.8296 0.64184 0.0
C632 C 0.82678 0.88457 0.54954 0.0
C633 C 0.82373 0.85749 0.47581 0.0
N634 N 0.83128 0.79617 0.41845 0.0
N635 N 0.85183 0.90494 0.70076 0.0
C636 C 0.82313 0.81691 0.48558 0.0
C637 C 0.8344 0.87342 0.6322 0.0
N638 N 0.80493 0.75679 0.57689 0.0
N639 N 0.82227 0.9208 0.54039 0.0
H640 H 0.861 0.89881 0.76091 0.0
H641 H 0.8617 0.93828 0.69503 0.0
H642 H 0.81562 0.92903 0.48011 0.0
H643 H 0.8208 0.93968 0.59286 0.0
H644 H 0.79503 0.7332 0.52407 0.0
H645 H 0.8003 0.7437 0.63697 0.0
H646 H 0.83461 0.7684 0.42515 0.0
H647 H 0.83988 0.80973 0.35937 0.0
C648 C 0.19271 0.06152 0.52741 0.0
C649 C 0.16978 0.02843 0.58392 0.0
C650 C 0.15785 0.96995 0.47303 0.0
C651 C 0.1815 0.00307 0.41717 0.0
N652 N 0.22662 0.07996 0.39189 0.0
N653 N 0.1358 0.95211 0.61783 0.0
C654 C 0.20057 0.04888 0.44477 0.0
C655 C 0.15394 0.98282 0.55883 0.0
N656 N 0.2061 0.10483 0.55296 0.0
N657 N 0.13788 0.92622 0.44229 0.0
H658 H 0.13108 0.96027 0.68023 0.0
H659 H 0.12787 0.91909 0.60719 0.0
H660 H 0.14114 0.91624 0.38 0.0
H661 H 0.1163 0.90007 0.47601 0.0
H662 H 0.21972 0.13067 0.51288 0.0
H663 H 0.20139 0.11461 0.61416 0.0
H664 H 0.24448 0.11397 0.4098 0.0
H665 H 0.23268 0.07139 0.33099 0.0
C666 C 0.61927 0.50876 0.78387 0.0
C667 C 0.66405 0.53821 0.77479 0.0
C668 C 0.67553 0.56611 0.92649 0.0
C669 C 0.63146 0.53504 0.93742 0.0
N670 N 0.56172 0.47488 0.88086 0.0
N671 N 0.73449 0.59632 0.83469 0.0
C672 C 0.60326 0.50604 0.86689 0.0
C673 C 0.69191 0.56725 0.84526 0.0
N674 N 0.59219 0.48417 0.71255 0.0
N675 N 0.70298 0.59482 0.99324 0.0
H676 H 0.74765 0.5982 0.77543 0.0
H677 H 0.75621 0.6184 0.88517 0.0
H678 H 0.69374 0.59641 0.05542 0.0
H679 H 0.69374 0.59641 0.05542 0.0
H680 H 0.55856 0.46509 0.71223 0.0
H681 H 0.60316 0.48479 0.65141 0.0
H682 H 0.54014 0.44959 0.835 0.0
H683 H 0.5494 0.47302 0.94104 0.0
C684 C 0.51178 0.15923 0.75689 0.0
C685 C 0.48795 0.18089 0.73816 0.0
C686 C 0.46054 0.16852 0.88096 0.0
C687 C 0.48554 0.14837 0.90154 0.0
N688 N 0.53745 0.12725 0.86456 0.0
N689 N 0.43888 0.20536 0.77986 0.0
C690 C 0.51172 0.14425 0.84061 0.0
C691 C 0.46224 0.18527 0.79955 0.0
N692 N 0.53356 0.15229 0.69366 0.0
N693 N 0.43479 0.17243 0.93837 0.0
H694 H 0.43922 0.21798 0.72018 0.0
H695 H 0.41938 0.20922 0.82336 0.0
H696 H 0.43132 0.1609 0.99985 0.0
H697 H 0.43132 0.1609 0.99985 0.0
H698 H 0.54834 0.13322 0.69943 0.0
H699 H 0.53499 0.16384 0.63261 0.0
H700 H 0.56048 0.12662 0.82695 0.0
H701 H 0.53723 0.11563 0.92526 0.0
C702 C 0.82298 0.37724 0.75362 0.0
C703 C 0.81763 0.33541 0.72511 0.0
C704 C 0.8407 0.32709 0.87002 0.0
C705 C 0.84218 0.36694 0.90012 0.0
N706 N 0.82881 0.42666 0.87547 0.0
N707 N 0.8176 0.26852 0.7537 0.0
C708 C 0.83188 0.39128 0.84311 0.0
C709 C 0.82549 0.30973 0.78279 0.0
N710 N 0.82061 0.40387 0.6946 0.0
N711 N 0.85433 0.3064 0.92512 0.0
H712 H 0.80719 0.2558 0.68932 0.0
H713 H 0.81878 0.24596 0.79352 0.0
H714 H 0.86551 0.31859 0.98941 0.0
H715 H 0.85717 0.27898 0.90634 0.0
H716 H 0.8286 0.43663 0.71024 0.0
H717 H 0.81401 0.39446 0.62838 0.0
H718 H 0.81703 0.44311 0.83864 0.0
H719 H 0.83473 0.43731 0.9412 0.0
C720 C 0.28466 0.87108 0.17992 0.0
C721 C 0.30713 0.85655 0.23429 0.0
C722 C 0.36027 0.87189 0.12873 0.0
C723 C 0.33882 0.88801 0.0757 0.0
N724 N 0.28696 0.91226 0.05678 0.0
N725 N 0.37274 0.85529 0.27288 0.0
C726 C 0.3031 0.89088 0.10376 0.0
C727 C 0.34704 0.86078 0.21256 0.0
N728 N 0.24516 0.86448 0.20001 0.0
N729 N 0.3917 0.86503 0.09731 0.0
H730 H 0.36459 0.84847 0.33607 0.0
H731 H 0.40406 0.86204 0.26292 0.0
H732 H 0.40174 0.87218 0.03531 0.0
H733 H 0.40513 0.84878 0.12998 0.0
H734 H 0.22516 0.87068 0.1591 0.0
H735 H 0.23121 0.8499 0.25579 0.0
H736 H 0.26301 0.91857 0.07693 0.0
H737 H 0.30028 0.9269 1.0006 0.0
C738 C 0.14347 0.53958 0.17886 0.0
C739 C 0.14005 0.51233 0.10519 0.0
C740 C 0.13666 0.45645 0.19886 0.0
C741 C 0.14554 0.48636 0.27202 0.0
N742 N 0.17266 0.56228 0.3273 0.0
N743 N 0.14816 0.45127 0.04805 0.0
C744 C 0.15331 0.52974 0.26095 0.0
C745 C 0.14037 0.47218 0.11543 0.0
N746 N 0.1375 0.57495 0.17027 0.0
N747 N 0.12494 0.41334 0.20899 0.0
H748 H 0.15595 0.46443 0.98844 0.0
H749 H 0.1522 0.42395 0.05494 0.0
H750 H 0.1218 0.40108 0.26976 0.0
H751 H 0.11467 0.38929 0.15691 0.0
H752 H 0.13661 0.59395 0.22328 0.0
H753 H 0.12893 0.58209 0.11051 0.0
H754 H 0.18216 0.59538 0.31969 0.0
H755 H 0.18405 0.55709 0.38611 0.0
C756 C 0.54221 0.72843 0.24378 0.0
C757 C 0.51102 0.70406 0.30156 0.0
C758 C 0.46755 0.64495 0.18648 0.0
C759 C 0.49914 0.66887 0.12893 0.0
N760 N 0.56927 0.72939 0.10294 0.0
N761 N 0.44832 0.63623 0.33471 0.0
C762 C 0.53749 0.70947 0.15794 0.0
C763 C 0.47502 0.66127 0.27492 0.0
N764 N 0.57566 0.77006 0.27127 0.0
N765 N 0.42948 0.60787 0.15518 0.0
H766 H 0.45235 0.64765 0.39966 0.0
H767 H 0.42418 0.60303 0.32162 0.0
H768 H 0.4233 0.59532 0.0905 0.0
H769 H 0.40294 0.59132 0.19137 0.0
H770 H 0.59775 0.7918 0.23112 0.0
H771 H 0.58 0.78379 0.33474 0.0
H772 H 0.59923 0.75776 0.12049 0.0
H773 H 0.56662 0.71559 0.04028 0.0
loop_
_geom_bond_atom_site_label_1
_geom_bond_atom_site_label_2
_geom_bond_distance
_geom_bond_site_symmetry_2
_ccdc_geom_bond_type
Zn0 O1 2.055 1_455 S
Zn0 O8 2.046 1_455 S
Zn0 N16 2.036 . S
Zn0 O28 2.053 . S
Zn0 O30 2.066 . S
O1 Zn0 2.055 1_655 S
O1 C4 1.259 . S
C2 O30 1.256 . S
C2 O31 1.244 1_554 S
Zn3 O5 2.046 . S
Zn3 O7 2.055 . S
Zn3 N9 2.036 . S
Zn3 O27 2.066 1_655 S
Zn3 O31 2.053 1_655 S
C4 O1 1.259 . S
C4 O5 1.254 1_554 S
O5 Zn3 2.046 . S
O5 C4 1.254 1_556 S
C6 O27 1.256 1_554 S
C6 O28 1.244 . S
O7 Zn3 2.055 . S
O7 C29 1.259 1_556 S
O8 Zn0 2.046 1_655 S
O8 C29 1.254 . S
N9 Zn3 2.036 . S
N9 C10 1.298 . S
N9 N12 1.398 . S
C10 N9 1.298 . S
C10 N13 1.367 . S
C10 C23 1.481 . S
C11 N12 1.299 . S
C11 N13 1.379 . S
N12 N9 1.398 . S
N12 C11 1.299 . S
N13 C10 1.367 . S
N13 C11 1.379 . S
C14 N16 1.298 . S
C14 N18 1.367 . S
C14 C22 1.481 . S
C15 N17 1.299 . S
C15 N18 1.379 . S
N16 Zn0 2.036 . S
N16 C14 1.298 . S
N16 N17 1.398 . S
N17 C15 1.299 . S
N17 N16 1.398 . S
N18 C14 1.367 . S
N18 C15 1.379 . S
H19 C22 0.980 1_655 S
H20 C22 0.981 . S
H21 C22 0.981 . S
C22 C14 1.481 . S
C22 H19 0.980 1_455 S
C22 H20 0.981 . S
C22 H21 0.981 . S
C23 C10 1.481 . S
C23 H24 0.980 . S
C23 H25 0.981 . S
C23 H26 0.981 . S
H24 C23 0.980 . S
H25 C23 0.981 . S
H26 C23 0.981 . S
O27 Zn3 2.066 1_455 S
O27 C6 1.256 1_556 S
O28 Zn0 2.053 . S
O28 C6 1.244 . S
C29 O7 1.259 1_554 S
C29 O8 1.254 . S
O30 Zn0 2.066 . S
O30 C2 1.256 . S
O31 C2 1.244 1_556 S
O31 Zn3 2.053 1_455 S
Zn32 O33 2.055 . S
Zn32 O40 2.046 . S
Zn32 N48 2.036 . S
Zn32 O60 2.053 . S
Zn32 O62 2.066 . S
O33 Zn32 2.055 . S
O33 C36 1.259 . S
C34 O62 1.256 . S
C34 O63 1.244 1_554 S
Zn35 O37 2.046 . S
Zn35 O39 2.055 . S
Zn35 N41 2.036 . S
Zn35 O59 2.066 . S
Zn35 O63 2.053 . S
C36 O33 1.259 . S
C36 O37 1.254 1_554 S
O37 Zn35 2.046 . S
O37 C36 1.254 1_556 S
C38 O59 1.256 1_554 S
C38 O60 1.244 . S
O39 Zn35 2.055 . S
O39 C61 1.259 1_556 S
O40 Zn32 2.046 . S
O40 C61 1.254 . S
N41 Zn35 2.036 . S
N41 C42 1.298 . S
N41 N44 1.398 . S
C42 N41 1.298 . S
C42 N45 1.367 . S
C42 C55 1.481 . S
C43 N44 1.299 . S
C43 N45 1.379 . S
N44 N41 1.398 . S
N44 C43 1.299 . S
N45 C42 1.367 . S
N45 C43 1.379 . S
C46 N48 1.298 . S
C46 N50 1.367 . S
C46 C54 1.481 . S
C47 N49 1.299 . S
C47 N50 1.379 . S
N48 Zn32 2.036 . S
N48 C46 1.298 . S
N48 N49 1.398 . S
N49 C47 1.299 . S
N49 N48 1.398 . S
N50 C46 1.367 . S
N50 C47 1.379 . S
H51 C54 0.980 . S
H52 C54 0.981 . S
H53 C54 0.981 . S
C54 C46 1.481 . S
C54 H51 0.980 . S
C54 H52 0.981 . S
C54 H53 0.981 . S
C55 C42 1.481 . S
C55 H56 0.980 . S
C55 H57 0.981 . S
C55 H58 0.981 . S
H56 C55 0.980 . S
H57 C55 0.981 . S
H58 C55 0.981 . S
O59 Zn35 2.066 . S
O59 C38 1.256 1_556 S
O60 Zn32 2.053 . S
O60 C38 1.244 . S
C61 O39 1.259 1_554 S
C61 O40 1.254 . S
O62 Zn32 2.066 . S
O62 C34 1.256 . S
O63 C34 1.244 1_556 S
O63 Zn35 2.053 . S
Zn64 O65 2.055 . S
Zn64 O72 2.046 . S
Zn64 N80 2.036 . S
Zn64 O92 2.053 1_545 S
Zn64 O94 2.066 1_545 S
O65 Zn64 2.055 . S
O65 C68 1.259 1_556 S
C66 O94 1.256 . S
C66 O95 1.244 1_556 S
Zn67 O69 2.046 . S
Zn67 O71 2.055 . S
Zn67 N73 2.036 1_545 S
Zn67 O91 2.066 1_545 S
Zn67 O95 2.053 1_545 S
C68 O65 1.259 1_554 S
C68 O69 1.254 . S
O69 Zn67 2.046 . S
O69 C68 1.254 . S
C70 O91 1.256 1_556 S
C70 O92 1.244 . S
O71 Zn67 2.055 . S
O71 C93 1.259 . S
O72 Zn64 2.046 . S
O72 C93 1.254 1_556 S
N73 Zn67 2.036 1_565 S
N73 C74 1.298 . S
N73 N76 1.398 . S
C74 N73 1.298 . S
C74 N77 1.367 . S
C74 C87 1.481 1_565 S
C75 N76 1.299 . S
C75 N77 1.379 . S
N76 N73 1.398 . S
N76 C75 1.299 . S
N77 C74 1.367 . S
N77 C75 1.379 . S
C78 N80 1.298 . S
C78 N82 1.367 . S
C78 C86 1.481 . S
C79 N81 1.299 . S
C79 N82 1.379 . S
N80 Zn64 2.036 . S
N80 C78 1.298 . S
N80 N81 1.398 . S
N81 C79 1.299 . S
N81 N80 1.398 . S
N82 C78 1.367 . S
N82 C79 1.379 . S
H83 C86 0.980 . S
H84 C86 0.981 . S
H85 C86 0.981 . S
C86 C78 1.481 . S
C86 H83 0.980 . S
C86 H84 0.981 . S
C86 H85 0.981 . S
C87 C74 1.481 1_545 S
C87 H88 0.980 . S
C87 H89 0.981 . S
C87 H90 0.981 1_545 S
H88 C87 0.980 . S
H89 C87 0.981 . S
H90 C87 0.981 1_565 S
O91 Zn67 2.066 1_565 S
O91 C70 1.256 1_554 S
O92 Zn64 2.053 1_565 S
O92 C70 1.244 . S
C93 O71 1.259 . S
C93 O72 1.254 1_554 S
O94 Zn64 2.066 1_565 S
O94 C66 1.256 . S
O95 C66 1.244 1_554 S
O95 Zn67 2.053 1_565 S
Zn96 O97 2.055 . S
Zn96 O104 2.046 . S
Zn96 N112 2.036 . S
Zn96 O124 2.053 . S
Zn96 O126 2.066 . S
O97 Zn96 2.055 . S
O97 C100 1.259 . S
C98 O126 1.256 . S
C98 O127 1.244 . S
Zn99 O101 2.046 . S
Zn99 O103 2.055 . S
Zn99 N105 2.036 . S
Zn99 O123 2.066 . S
Zn99 O127 2.053 . S
C100 O97 1.259 . S
C100 O101 1.254 . S
O101 Zn99 2.046 . S
O101 C100 1.254 . S
C102 O123 1.256 . S
C102 O124 1.244 . S
O103 Zn99 2.055 . S
O103 C125 1.259 . S
O104 Zn96 2.046 . S
O104 C125 1.254 . S
N105 Zn99 2.036 . S
N105 C106 1.298 . S
N105 N108 1.398 . S
C106 N105 1.298 . S
C106 N109 1.367 . S
C106 C119 1.481 . S
C107 N108 1.299 . S
C107 N109 1.379 . S
N108 N105 1.398 . S
N108 C107 1.299 . S
N109 C106 1.367 . S
N109 C107 1.379 . S
C110 N112 1.298 . S
C110 N114 1.367 1_554 S
C110 C118 1.481 . S
C111 N113 1.299 1_556 S
C111 N114 1.379 . S
N112 Zn96 2.036 . S
N112 C110 1.298 . S
N112 N113 1.398 . S
N113 C111 1.299 1_554 S
N113 N112 1.398 . S
N114 C110 1.367 1_556 S
N114 C111 1.379 . S
H115 C118 0.980 . S
H116 C118 0.981 1_556 S
H117 C118 0.981 . S
C118 C110 1.481 . S
C118 H115 0.980 . S
C118 H116 0.981 1_554 S
C118 H117 0.981 . S
C119 C106 1.481 . S
C119 H120 0.980 . S
C119 H121 0.981 . S
C119 H122 0.981 . S
H120 C119 0.980 . S
H121 C119 0.981 . S
H122 C119 0.981 . S
O123 Zn99 2.066 . S
O123 C102 1.256 . S
O124 Zn96 2.053 . S
O124 C102 1.244 . S
C125 O103 1.259 . S
C125 O104 1.254 . S
O126 Zn96 2.066 . S
O126 C98 1.256 . S
O127 C98 1.244 . S
O127 Zn99 2.053 . S
Zn128 O129 2.055 . S
Zn128 O136 2.046 . S
Zn128 N144 2.036 . S
Zn128 O156 2.053 . S
Zn128 O158 2.066 . S
O129 Zn128 2.055 . S
O129 C132 1.259 . S
C130 O158 1.256 . S
C130 O159 1.244 . S
Zn131 O133 2.046 . S
Zn131 O135 2.055 . S
Zn131 N137 2.036 . S
Zn131 O155 2.066 . S
Zn131 O159 2.053 . S
C132 O129 1.259 . S
C132 O133 1.254 . S
O133 Zn131 2.046 . S
O133 C132 1.254 . S
C134 O155 1.256 . S
C134 O156 1.244 . S
O135 Zn131 2.055 . S
O135 C157 1.259 . S
O136 Zn128 2.046 . S
O136 C157 1.254 . S
N137 Zn131 2.036 . S
N137 C138 1.298 . S
N137 N140 1.398 . S
C138 N137 1.298 . S
C138 N141 1.367 1_554 S
C138 C151 1.481 . S
C139 N140 1.299 1_556 S
C139 N141 1.379 . S
N140 N137 1.398 . S
N140 C139 1.299 1_554 S
N141 C138 1.367 1_556 S
N141 C139 1.379 . S
C142 N144 1.298 . S
C142 N146 1.367 . S
C142 C150 1.481 . S
C143 N145 1.299 . S
C143 N146 1.379 . S
N144 Zn128 2.036 . S
N144 C142 1.298 . S
N144 N145 1.398 . S
N145 C143 1.299 . S
N145 N144 1.398 . S
N146 C142 1.367 . S
N146 C143 1.379 . S
H147 C150 0.980 . S
H148 C150 0.981 . S
H149 C150 0.981 . S
C150 C142 1.481 . S
C150 H147 0.980 . S
C150 H148 0.981 . S
C150 H149 0.981 . S
C151 C138 1.481 . S
C151 H152 0.980 . S
C151 H153 0.981 1_554 S
C151 H154 0.981 . S
H152 C151 0.980 . S
H153 C151 0.981 1_556 S
H154 C151 0.981 . S
O155 Zn131 2.066 . S
O155 C134 1.256 . S
O156 Zn128 2.053 . S
O156 C134 1.244 . S
C157 O135 1.259 . S
C157 O136 1.254 . S
O158 Zn128 2.066 . S
O158 C130 1.256 . S
O159 C130 1.244 . S
O159 Zn131 2.053 . S
Zn160 O161 2.055 . S
Zn160 O168 2.046 . S
Zn160 N176 2.036 . S
Zn160 O188 2.053 . S
Zn160 O190 2.066 . S
O161 Zn160 2.055 . S
O161 C164 1.259 . S
C162 O190 1.256 . S
C162 O191 1.244 . S
Zn163 O165 2.046 . S
Zn163 O167 2.055 . S
Zn163 N169 2.036 . S
Zn163 O187 2.066 . S
Zn163 O191 2.053 . S
C164 O161 1.259 . S
C164 O165 1.254 . S
O165 Zn163 2.046 . S
O165 C164 1.254 . S
C166 O187 1.256 . S
C166 O188 1.244 . S
O167 Zn163 2.055 . S
O167 C189 1.259 . S
O168 Zn160 2.046 . S
O168 C189 1.254 . S
N169 Zn163 2.036 . S
N169 C170 1.298 . S
N169 N172 1.398 . S
C170 N169 1.298 . S
C170 N173 1.367 1_554 S
C170 C183 1.481 . S
C171 N172 1.299 . S
C171 N173 1.379 1_554 S
N172 N169 1.398 . S
N172 C171 1.299 . S
N173 C170 1.367 1_556 S
N173 C171 1.379 1_556 S
C174 N176 1.298 . S
C174 N178 1.367 . S
C174 C182 1.481 . S
C175 N177 1.299 . S
C175 N178 1.379 . S
N176 Zn160 2.036 . S
N176 C174 1.298 . S
N176 N177 1.398 . S
N177 C175 1.299 . S
N177 N176 1.398 . S
N178 C174 1.367 . S
N178 C175 1.379 . S
H179 C182 0.980 . S
H180 C182 0.981 . S
H181 C182 0.981 . S
C182 C174 1.481 . S
C182 H179 0.980 . S
C182 H180 0.981 . S
C182 H181 0.981 . S
C183 C170 1.481 . S
C183 H184 0.980 . S
C183 H185 0.981 1_554 S
C183 H186 0.981 . S
H184 C183 0.980 . S
H185 C183 0.981 1_556 S
H186 C183 0.981 . S
O187 Zn163 2.066 . S
O187 C166 1.256 . S
O188 Zn160 2.053 . S
O188 C166 1.244 . S
C189 O167 1.259 . S
C189 O168 1.254 . S
O190 Zn160 2.066 . S
O190 C162 1.256 . S
O191 C162 1.244 . S
O191 Zn163 2.053 . S
Zn192 O193 2.055 . S
Zn192 O200 2.046 . S
Zn192 N208 2.036 . S
Zn192 O220 2.053 . S
Zn192 O222 2.066 . S
O193 Zn192 2.055 . S
O193 C196 1.259 . S
C194 O222 1.256 . S
C194 O223 1.244 . S
Zn195 O197 2.046 . S
Zn195 O199 2.055 . S
Zn195 N201 2.036 . S
Zn195 O219 2.066 . S
Zn195 O223 2.053 . S
C196 O193 1.259 . S
C196 O197 1.254 . S
O197 Zn195 2.046 . S
O197 C196 1.254 . S
C198 O219 1.256 . S
C198 O220 1.244 . S
O199 Zn195 2.055 . S
O199 C221 1.259 . S
O200 Zn192 2.046 . S
O200 C221 1.254 . S
N201 Zn195 2.036 . S
N201 C202 1.298 . S
N201 N204 1.398 . S
C202 N201 1.298 . S
C202 N205 1.367 . S
C202 C215 1.481 . S
C203 N204 1.299 . S
C203 N205 1.379 . S
N204 N201 1.398 . S
N204 C203 1.299 . S
N205 C202 1.367 . S
N205 C203 1.379 . S
C206 N208 1.298 . S
C206 N210 1.367 1_556 S
C206 C214 1.481 . S
C207 N209 1.290 1_554 S
C207 N210 1.382 . S
N208 Zn192 2.036 . S
N208 C206 1.298 . S
N208 N209 1.398 . S
N209 C207 1.290 1_556 S
N209 N208 1.398 . S
N210 C206 1.367 1_554 S
N210 C207 1.382 . S
H211 C214 0.980 . S
H212 C214 0.978 1_554 S
H213 C214 0.981 . S
C214 C206 1.481 . S
C214 H211 0.980 . S
C214 H212 0.978 1_556 S
C214 H213 0.981 . S
C215 C202 1.481 . S
C215 H216 0.980 . S
C215 H217 0.981 . S
C215 H218 0.981 . S
H216 C215 0.980 . S
H217 C215 0.981 . S
H218 C215 0.981 . S
O219 Zn195 2.066 . S
O219 C198 1.256 . S
O220 Zn192 2.053 . S
O220 C198 1.244 . S
C221 O199 1.259 . S
C221 O200 1.254 . S
O222 Zn192 2.066 . S
O222 C194 1.256 . S
O223 C194 1.244 . S
O223 Zn195 2.053 . S
Zn224 O225 2.055 . S
Zn224 O232 2.046 . S
Zn224 N240 2.036 . S
Zn224 O252 2.053 . S
Zn224 O254 2.066 . S
O225 Zn224 2.055 . S
O225 C228 1.259 . S
C226 O254 1.256 . S
C226 O255 1.244 . S
Zn227 O229 2.046 . S
Zn227 O231 2.055 . S
Zn227 N233 2.036 . S
Zn227 O251 2.066 . S
Zn227 O255 2.053 . S
C228 O225 1.259 . S
C228 O229 1.254 . S
O229 Zn227 2.046 . S
O229 C228 1.254 . S
C230 O251 1.256 . S
C230 O252 1.244 . S
O231 Zn227 2.055 . S
O231 C253 1.259 . S
O232 Zn224 2.046 . S
O232 C253 1.254 . S
N233 Zn227 2.036 . S
N233 C234 1.298 . S
N233 N236 1.398 . S
C234 N233 1.298 . S
C234 N237 1.367 . S
C234 C247 1.481 . S
C235 N236 1.299 . S
C235 N237 1.379 . S
N236 N233 1.398 . S
N236 C235 1.299 . S
N237 C234 1.367 . S
N237 C235 1.379 . S
C238 N240 1.298 . S
C238 N242 1.367 1_556 S
C238 C246 1.481 . S
C239 N241 1.299 1_554 S
C239 N242 1.379 . S
N240 Zn224 2.036 . S
N240 C238 1.298 . S
N240 N241 1.398 . S
N241 C239 1.299 1_556 S
N241 N240 1.398 . S
N242 C238 1.367 1_554 S
N242 C239 1.379 . S
H243 C246 0.980 . S
H244 C246 0.981 . S
H245 C246 0.981 . S
C246 C238 1.481 . S
C246 H243 0.980 . S
C246 H244 0.981 . S
C246 H245 0.981 . S
C247 C234 1.481 . S
C247 H248 0.980 . S
C247 H249 0.981 . S
C247 H250 0.981 . S
H248 C247 0.980 . S
H249 C247 0.981 . S
H250 C247 0.981 . S
O251 Zn227 2.066 . S
O251 C230 1.256 . S
O252 Zn224 2.053 . S
O252 C230 1.244 . S
C253 O231 1.259 . S
C253 O232 1.254 . S
O254 Zn224 2.066 . S
O254 C226 1.256 . S
O255 C226 1.244 . S
O255 Zn227 2.053 . S
Zn256 O257 2.055 . S
Zn256 O264 2.046 . S
Zn256 N272 2.036 . S
Zn256 O284 2.053 . S
Zn256 O286 2.066 . S
O257 Zn256 2.055 . S
O257 C260 1.259 . S
C258 O286 1.256 . S
C258 O287 1.244 . S
Zn259 O261 2.046 . S
Zn259 O263 2.055 . S
Zn259 N265 2.036 . S
Zn259 O283 2.066 . S
Zn259 O287 2.053 . S
C260 O257 1.259 . S
C260 O261 1.254 . S
O261 Zn259 2.046 . S
O261 C260 1.254 . S
C262 O283 1.256 . S
C262 O284 1.244 . S
O263 Zn259 2.055 . S
O263 C285 1.259 . S
O264 Zn256 2.046 . S
O264 C285 1.254 . S
N265 Zn259 2.036 . S
N265 C266 1.298 . S
N265 N268 1.398 . S
C266 N265 1.298 . S
C266 N269 1.367 . S
C266 C279 1.481 . S
C267 N268 1.299 . S
C267 N269 1.379 . S
N268 N265 1.398 . S
N268 C267 1.299 . S
N269 C266 1.367 . S
N269 C267 1.379 . S
C270 N272 1.298 . S
C270 N274 1.367 1_556 S
C270 C278 1.481 . S
C271 N273 1.299 1_554 S
C271 N274 1.379 . S
N272 Zn256 2.036 . S
N272 C270 1.298 . S
N272 N273 1.398 . S
N273 C271 1.299 1_556 S
N273 N272 1.398 . S
N274 C270 1.367 1_554 S
N274 C271 1.379 . S
H275 C278 0.980 . S
H276 C278 0.981 1_554 S
H277 C278 0.981 . S
C278 C270 1.481 . S
C278 H275 0.980 . S
C278 H276 0.981 1_556 S
C278 H277 0.981 . S
C279 C266 1.481 . S
C279 H280 0.980 . S
C279 H281 0.981 . S
C279 H282 0.981 . S
H280 C279 0.980 . S
H281 C279 0.981 . S
H282 C279 0.981 . S
O283 Zn259 2.066 . S
O283 C262 1.256 . S
O284 Zn256 2.053 . S
O284 C262 1.244 . S
C285 O263 1.259 . S
C285 O264 1.254 . S
O286 Zn256 2.066 . S
O286 C258 1.256 . S
O287 C258 1.244 . S
O287 Zn259 2.053 . S
C288 C289 1.363 . S
C288 C294 1.379 . S
C288 N296 1.356 1_556 S
C289 C288 1.363 . S
C289 C295 1.363 . S
C290 C291 1.363 . S
C290 C295 1.379 . S
C290 N297 1.356 . S
C291 C290 1.363 . S
C291 C294 1.363 . S
N292 C294 1.356 . S
N292 H304 0.984 . S
N292 H305 0.985 . S
N293 C295 1.356 . S
N293 H298 0.984 . S
N293 H299 0.985 . S
C294 C288 1.379 . S
C294 C291 1.363 . S
C294 N292 1.356 . S
C295 C289 1.363 . S
C295 C290 1.379 . S
C295 N293 1.356 . S
N296 C288 1.356 1_554 S
N296 H302 0.984 . S
N296 H303 0.984 . S
N297 C290 1.356 . S
N297 H300 0.984 . S
N297 H301 0.985 . S
H298 N293 0.984 . S
H299 N293 0.985 . S
H300 N297 0.984 . S
H301 N297 0.985 . S
H302 N296 0.984 . S
H303 N296 0.984 . S
H304 N292 0.984 . S
H305 N292 0.985 . S
C306 C307 1.363 . S
C306 C312 1.379 . S
C306 N314 1.356 . S
C307 C306 1.363 . S
C307 C313 1.363 . S
C308 C309 1.363 . S
C308 C313 1.379 . S
C308 N315 1.356 . S
C309 C308 1.363 . S
C309 C312 1.363 . S
N310 C312 1.356 . S
N310 H322 0.984 . S
N310 H323 0.985 . S
N311 C313 1.356 . S
N311 H316 0.984 1_556 S
N311 H317 0.985 . S
C312 C306 1.379 . S
C312 C309 1.363 . S
C312 N310 1.356 . S
C313 C307 1.363 . S
C313 C308 1.379 . S
C313 N311 1.356 . S
N314 C306 1.356 . S
N314 H320 0.984 . S
N314 H321 0.984 1_556 S
N315 C308 1.356 . S
N315 H318 0.984 . S
N315 H319 0.985 . S
H316 N311 0.984 1_554 S
H317 N311 0.985 . S
H318 N315 0.984 . S
H319 N315 0.985 . S
H320 N314 0.984 . S
H321 N314 0.984 1_554 S
H322 N310 0.984 . S
H323 N310 0.985 . S
C324 C325 1.363 . S
C324 C330 1.379 . S
C324 N332 1.356 . S
C325 C324 1.363 . S
C325 C331 1.363 . S
C326 C327 1.363 . S
C326 C331 1.379 . S
C326 N333 1.356 . S
C327 C326 1.363 . S
C327 C330 1.363 . S
N328 C330 1.356 . S
N328 H340 0.984 . S
N328 H341 0.985 . S
N329 C331 1.356 . S
N329 H334 0.984 1_556 S
N329 H335 0.985 . S
C330 C324 1.379 . S
C330 C327 1.363 . S
C330 N328 1.356 . S
C331 C325 1.363 . S
C331 C326 1.379 . S
C331 N329 1.356 . S
N332 C324 1.356 . S
N332 H338 0.984 1_565 S
N332 H339 0.984 . S
N333 C326 1.356 . S
N333 H336 0.984 . S
N333 H337 0.985 . S
H334 N329 0.984 1_554 S
H335 N329 0.985 . S
H336 N333 0.984 . S
H337 N333 0.985 . S
H338 N332 0.984 1_545 S
H339 N332 0.984 . S
H340 N328 0.984 . S
H341 N328 0.985 . S
C342 C343 1.363 . S
C342 C348 1.379 . S
C342 N350 1.356 . S
C343 C342 1.363 . S
C343 C349 1.363 . S
C344 C345 1.363 . S
C344 C349 1.379 . S
C344 N351 1.356 . S
C345 C344 1.363 . S
C345 C348 1.363 . S
N346 C348 1.356 . S
N346 H358 0.984 . S
N346 H359 0.985 . S
N347 C349 1.356 . S
N347 H352 0.984 . S
N347 H353 0.985 . S
C348 C342 1.379 . S
C348 C345 1.363 . S
C348 N346 1.356 . S
C349 C343 1.363 . S
C349 C344 1.379 . S
C349 N347 1.356 . S
N350 C342 1.356 . S
N350 H356 0.984 . S
N350 H357 0.984 . S
N351 C344 1.356 . S
N351 H354 0.984 . S
N351 H355 0.985 . S
H352 N347 0.984 . S
H353 N347 0.985 . S
H354 N351 0.984 . S
H355 N351 0.985 . S
H356 N350 0.984 . S
H357 N350 0.984 . S
H358 N346 0.984 . S
H359 N346 0.985 . S
C360 C361 1.363 . S
C360 C366 1.379 . S
C360 N368 1.356 . S
C361 C360 1.363 . S
C361 C367 1.363 . S
C362 C363 1.363 . S
C362 C367 1.379 . S
C362 N369 1.356 . S
C363 C362 1.363 . S
C363 C366 1.363 . S
N364 C366 1.356 . S
N364 H376 0.984 . S
N364 H377 0.985 . S
N365 C367 1.356 . S
N365 H370 0.984 . S
N365 H371 0.985 . S
C366 C360 1.379 . S
C366 C363 1.363 . S
C366 N364 1.356 . S
C367 C361 1.363 . S
C367 C362 1.379 . S
C367 N365 1.356 . S
N368 C360 1.356 . S
N368 H374 0.984 . S
N368 H375 0.984 . S
N369 C362 1.356 . S
N369 H372 0.984 . S
N369 H373 0.985 . S
H370 N365 0.984 . S
H371 N365 0.985 . S
H372 N369 0.984 . S
H373 N369 0.985 . S
H374 N368 0.984 . S
H375 N368 0.984 . S
H376 N364 0.984 . S
H377 N364 0.985 . S
C378 C379 1.363 . S
C378 C384 1.379 . S
C378 N386 1.356 . S
C379 C378 1.363 . S
C379 C385 1.363 . S
C380 C381 1.363 . S
C380 C385 1.379 . S
C380 N387 1.356 . S
C381 C380 1.363 . S
C381 C384 1.363 . S
N382 C384 1.356 . S
N382 H394 0.984 . S
N382 H395 0.985 . S
N383 C385 1.356 . S
N383 H388 0.984 . S
N383 H389 0.985 . S
C384 C378 1.379 . S
C384 C381 1.363 . S
C384 N382 1.356 . S
C385 C379 1.363 . S
C385 C380 1.379 . S
C385 N383 1.356 . S
N386 C378 1.356 . S
N386 H392 0.984 . S
N386 H393 0.984 . S
N387 C380 1.356 . S
N387 H390 0.984 . S
N387 H391 0.985 . S
H388 N383 0.984 . S
H389 N383 0.985 . S
H390 N387 0.984 . S
H391 N387 0.985 . S
H392 N386 0.984 . S
H393 N386 0.984 . S
H394 N382 0.984 . S
H395 N382 0.985 . S
C396 C397 1.363 . S
C396 C402 1.379 . S
C396 N404 1.356 . S
C397 C396 1.363 . S
C397 C403 1.363 1_455 S
C398 C399 1.363 . S
C398 C403 1.379 . S
C398 N405 1.356 . S
C399 C398 1.363 . S
C399 C402 1.363 1_655 S
N400 C402 1.356 . S
N400 H412 0.984 . S
N400 H413 0.985 1_455 S
N401 C403 1.356 . S
N401 H406 0.984 1_655 S
N401 H407 0.985 . S
C402 C396 1.379 . S
C402 C399 1.363 1_455 S
C402 N400 1.356 . S
C403 C397 1.363 1_655 S
C403 C398 1.379 . S
C403 N401 1.356 . S
N404 C396 1.356 . S
N404 H410 0.984 . S
N404 H411 0.984 . S
N405 C398 1.356 . S
N405 H408 0.984 . S
N405 H409 0.985 . S
H406 N401 0.984 1_455 S
H407 N401 0.985 . S
H408 N405 0.984 . S
H409 N405 0.985 . S
H410 N404 0.984 . S
H411 N404 0.984 . S
H412 N400 0.984 . S
H413 N400 0.985 1_655 S
C414 C415 1.363 . S
C414 C420 1.379 . S
C414 N422 1.356 . S
C415 C414 1.363 . S
C415 C421 1.363 . S
C416 C417 1.363 . S
C416 C421 1.379 . S
C416 N423 1.356 . S
C417 C416 1.363 . S
C417 C420 1.363 . S
N418 C420 1.356 . S
N418 H430 0.984 . S
N418 H431 0.985 . S
N419 C421 1.356 . S
N419 H424 0.984 . S
N419 H425 0.985 . S
C420 C414 1.379 . S
C420 C417 1.363 . S
C420 N418 1.356 . S
C421 C415 1.363 . S
C421 C416 1.379 . S
C421 N419 1.356 . S
N422 C414 1.356 . S
N422 H428 0.984 . S
N422 H429 0.984 . S
N423 C416 1.356 . S
N423 H426 0.984 . S
N423 H427 0.985 . S
H424 N419 0.984 . S
H425 N419 0.985 . S
H426 N423 0.984 . S
H427 N423 0.985 . S
H428 N422 0.984 . S
H429 N422 0.984 . S
H430 N418 0.984 . S
H431 N418 0.985 . S
C432 C433 1.363 . S
C432 C438 1.379 1_545 S
C432 N440 1.356 1_545 S
C433 C432 1.363 . S
C433 C439 1.363 . S
C434 C435 1.360 1_545 S
C434 C439 1.379 . S
C434 N441 1.356 . S
C435 C434 1.360 1_565 S
C435 C438 1.365 . S
N436 C438 1.356 . S
N436 H448 0.984 . S
N436 H449 0.985 . S
N437 C439 1.356 . S
N437 H442 0.984 . S
N437 H443 0.985 . S
C438 C432 1.379 1_565 S
C438 C435 1.365 . S
C438 N436 1.356 . S
C439 C433 1.363 . S
C439 C434 1.379 . S
C439 N437 1.356 . S
N440 C432 1.356 1_565 S
N440 H446 0.984 . S
N440 H447 0.984 1_565 S
N441 C434 1.356 . S
N441 H444 0.984 . S
N441 H445 0.985 . S
H442 N437 0.984 . S
H443 N437 0.985 . S
H444 N441 0.984 . S
H445 N441 0.985 . S
H446 N440 0.984 . S
H447 N440 0.984 1_545 S
H448 N436 0.984 . S
H449 N436 0.985 . S
C450 C451 1.363 . S
C450 C456 1.379 . S
C450 N458 1.356 . S
C451 C450 1.363 . S
C451 C457 1.363 1_554 S
C452 C453 1.363 1_556 S
C452 C457 1.379 . S
C452 N459 1.356 . S
C453 C452 1.363 1_554 S
C453 C456 1.363 . S
N454 C456 1.356 . S
N454 H466 0.984 . S
N454 H467 0.985 . S
N455 C457 1.356 . S
N455 H460 0.984 . S
N455 H461 0.985 . S
C456 C450 1.379 . S
C456 C453 1.363 . S
C456 N454 1.356 . S
C457 C451 1.363 1_556 S
C457 C452 1.379 . S
C457 N455 1.356 . S
N458 C450 1.356 . S
N458 H464 0.984 . S
N458 H465 0.984 . S
N459 C452 1.356 . S
N459 H462 0.984 . S
N459 H463 0.985 . S
H460 N455 0.984 . S
H461 N455 0.985 . S
H462 N459 0.984 . S
H463 N459 0.985 . S
H464 N458 0.984 . S
H465 N458 0.984 . S
H466 N454 0.984 . S
H467 N454 0.985 . S
C468 C469 1.363 1_545 S
C468 C474 1.379 . S
C468 N476 1.356 1_544 S
C469 C468 1.363 1_565 S
C469 C475 1.363 1_565 S
C470 C471 1.363 . S
C470 C475 1.379 . S
C470 N477 1.356 . S
C471 C470 1.363 . S
C471 C474 1.363 . S
N472 C474 1.356 . S
N472 H484 0.984 1_654 S
N472 H485 0.985 . S
N473 C475 1.356 1_565 S
N473 H478 0.984 . S
N473 H479 0.985 . S
C474 C468 1.379 . S
C474 C471 1.363 . S
C474 N472 1.356 . S
C475 C469 1.363 1_545 S
C475 C470 1.379 . S
C475 N473 1.356 1_545 S
N476 C468 1.356 1_566 S
N476 H482 0.984 . S
N476 H483 0.984 . S
N477 C470 1.356 . S
N477 H480 0.984 . S
N477 H481 0.985 . S
H478 N473 0.984 . S
H479 N473 0.985 . S
H480 N477 0.984 . S
H481 N477 0.985 . S
H482 N476 0.984 . S
H483 N476 0.984 . S
H484 N472 0.984 1_456 S
H485 N472 0.985 . S
C486 C487 1.363 . S
C486 C492 1.379 1_654 S
C486 N494 1.356 1_554 S
C487 C486 1.363 . S
C487 C493 1.363 . S
C488 C489 1.362 1_554 S
C488 C493 1.379 1_455 S
C488 N495 1.356 1_565 S
C489 C488 1.362 1_556 S
C489 C492 1.363 . S
N490 C492 1.356 . S
N490 H502 0.984 . S
N490 H503 0.985 . S
N491 C493 1.356 . S
N491 H496 0.984 . S
N491 H497 0.985 . S
C492 C486 1.379 1_456 S
C492 C489 1.363 . S
C492 N490 1.356 . S
C493 C487 1.363 . S
C493 C488 1.379 1_655 S
C493 N491 1.356 . S
N494 C486 1.356 1_556 S
N494 H500 0.984 . S
N494 H501 0.984 1_556 S
N495 C488 1.356 1_545 S
N495 H498 0.984 . S
N495 H499 0.985 . S
H496 N491 0.984 . S
H497 N491 0.985 . S
H498 N495 0.984 . S
H499 N495 0.985 . S
H500 N494 0.984 . S
H501 N494 0.984 1_554 S
H502 N490 0.984 . S
H503 N490 0.985 . S
C504 C505 1.363 . S
C504 C510 1.379 . S
C504 N512 1.356 . S
C505 C504 1.363 . S
C505 C511 1.363 . S
C506 C507 1.363 . S
C506 C511 1.379 . S
C506 N513 1.356 . S
C507 C506 1.363 . S
C507 C510 1.363 . S
N508 C510 1.356 . S
N508 H520 0.984 . S
N508 H521 0.985 . S
N509 C511 1.356 . S
N509 H514 0.984 . S
N509 H515 0.985 . S
C510 C504 1.379 . S
C510 C507 1.363 . S
C510 N508 1.356 . S
C511 C505 1.363 . S
C511 C506 1.379 . S
C511 N509 1.356 . S
N512 C504 1.356 . S
N512 H518 0.984 . S
N512 H519 0.984 . S
N513 C506 1.356 . S
N513 H516 0.984 . S
N513 H517 0.985 . S
H514 N509 0.984 . S
H515 N509 0.985 . S
H516 N513 0.984 . S
H517 N513 0.985 . S
H518 N512 0.984 . S
H519 N512 0.984 . S
H520 N508 0.984 . S
H521 N508 0.985 . S
C522 C523 1.363 . S
C522 C528 1.379 . S
C522 N530 1.356 . S
C523 C522 1.363 . S
C523 C529 1.363 . S
C524 C525 1.363 . S
C524 C529 1.379 . S
C524 N531 1.356 . S
C525 C524 1.363 . S
C525 C528 1.363 . S
N526 C528 1.356 . S
N526 H538 0.984 . S
N526 H539 0.985 . S
N527 C529 1.356 . S
N527 H532 0.984 . S
N527 H533 0.985 . S
C528 C522 1.379 . S
C528 C525 1.363 . S
C528 N526 1.356 . S
C529 C523 1.363 . S
C529 C524 1.379 . S
C529 N527 1.356 . S
N530 C522 1.356 . S
N530 H536 0.984 . S
N530 H537 0.984 . S
N531 C524 1.356 . S
N531 H534 0.984 . S
N531 H535 0.985 . S
H532 N527 0.984 . S
H533 N527 0.985 . S
H534 N531 0.984 . S
H535 N531 0.985 . S
H536 N530 0.984 . S
H537 N530 0.984 . S
H538 N526 0.984 . S
H539 N526 0.985 . S
C540 C541 1.363 . S
C540 C546 1.379 . S
C540 N548 1.356 . S
C541 C540 1.363 . S
C541 C547 1.363 . S
C542 C543 1.363 . S
C542 C547 1.379 . S
C542 N549 1.356 . S
C543 C542 1.363 . S
C543 C546 1.363 . S
N544 C546 1.356 . S
N544 H556 0.984 . S
N544 H557 0.985 . S
N545 C547 1.356 . S
N545 H550 0.984 . S
N545 H551 0.985 . S
C546 C540 1.379 . S
C546 C543 1.363 . S
C546 N544 1.356 . S
C547 C541 1.363 . S
C547 C542 1.379 . S
C547 N545 1.356 . S
N548 C540 1.356 . S
N548 H554 0.984 . S
N548 H555 0.984 . S
N549 C542 1.356 . S
N549 H552 0.984 . S
N549 H553 0.985 . S
H550 N545 0.984 . S
H551 N545 0.985 . S
H552 N549 0.984 . S
H553 N549 0.985 . S
H554 N548 0.984 . S
H555 N548 0.984 . S
H556 N544 0.984 . S
H557 N544 0.985 . S
C558 C559 1.363 . S
C558 C564 1.379 . S
C558 N566 1.356 . S
C559 C558 1.363 . S
C559 C565 1.363 . S
C560 C561 1.363 . S
C560 C565 1.379 . S
C560 N567 1.356 . S
C561 C560 1.363 . S
C561 C564 1.363 . S
N562 C564 1.356 . S
N562 H574 0.984 . S
N562 H575 0.985 . S
N563 C565 1.356 . S
N563 H568 0.984 . S
N563 H569 0.985 . S
C564 C558 1.379 . S
C564 C561 1.363 . S
C564 N562 1.356 . S
C565 C559 1.363 . S
C565 C560 1.379 . S
C565 N563 1.356 . S
N566 C558 1.356 . S
N566 H572 0.984 . S
N566 H573 0.984 . S
N567 C560 1.356 . S
N567 H570 0.984 . S
N567 H571 0.985 . S
H568 N563 0.984 . S
H569 N563 0.985 . S
H570 N567 0.984 . S
H571 N567 0.985 . S
H572 N566 0.984 . S
H573 N566 0.984 . S
H574 N562 0.984 . S
H575 N562 0.985 . S
C576 C577 1.363 . S
C576 C582 1.379 . S
C576 N584 1.356 . S
C577 C576 1.363 . S
C577 C583 1.363 . S
C578 C579 1.363 . S
C578 C583 1.379 . S
C578 N585 1.356 . S
C579 C578 1.363 . S
C579 C582 1.363 . S
N580 C582 1.356 . S
N580 H592 0.984 . S
N580 H593 0.985 . S
N581 C583 1.356 . S
N581 H586 0.984 . S
N581 H587 0.985 . S
C582 C576 1.379 . S
C582 C579 1.363 . S
C582 N580 1.356 . S
C583 C577 1.363 . S
C583 C578 1.379 . S
C583 N581 1.356 . S
N584 C576 1.356 . S
N584 H590 0.984 . S
N584 H591 0.984 . S
N585 C578 1.356 . S
N585 H588 0.984 . S
N585 H589 0.985 . S
H586 N581 0.984 . S
H587 N581 0.985 . S
H588 N585 0.984 . S
H589 N585 0.985 . S
H590 N584 0.984 . S
H591 N584 0.984 . S
H592 N580 0.984 . S
H593 N580 0.985 . S
C594 C595 1.363 . S
C594 C600 1.379 . S
C594 N602 1.356 . S
C595 C594 1.363 . S
C595 C601 1.363 . S
C596 C597 1.363 . S
C596 C601 1.379 . S
C596 N603 1.356 . S
C597 C596 1.363 . S
C597 C600 1.363 . S
N598 C600 1.356 . S
N598 H610 0.984 . S
N598 H611 0.985 . S
N599 C601 1.356 . S
N599 H604 0.984 . S
N599 H605 0.985 . S
C600 C594 1.379 . S
C600 C597 1.363 . S
C600 N598 1.356 . S
C601 C595 1.363 . S
C601 C596 1.379 . S
C601 N599 1.356 . S
N602 C594 1.356 . S
N602 H608 0.984 . S
N602 H609 0.984 . S
N603 C596 1.356 . S
N603 H606 0.984 . S
N603 H607 0.985 . S
H604 N599 0.984 . S
H605 N599 0.985 . S
H606 N603 0.984 . S
H607 N603 0.985 . S
H608 N602 0.984 . S
H609 N602 0.984 . S
H610 N598 0.984 . S
H611 N598 0.985 . S
C612 C613 1.363 1_455 S
C612 C618 1.379 . S
C612 N620 1.356 1_455 S
C613 C612 1.363 1_655 S
C613 C619 1.363 1_655 S
C614 C615 1.363 . S
C614 C619 1.379 . S
C614 N621 1.356 . S
C615 C614 1.363 . S
C615 C618 1.363 . S
N616 C618 1.356 . S
N616 H628 0.984 . S
N616 H629 0.985 . S
N617 C619 1.356 . S
N617 H622 0.984 1_455 S
N617 H623 0.985 . S
C618 C612 1.379 . S
C618 C615 1.363 . S
C618 N616 1.356 . S
C619 C613 1.363 1_455 S
C619 C614 1.379 . S
C619 N617 1.356 . S
N620 C612 1.356 1_655 S
N620 H626 0.984 . S
N620 H627 0.984 . S
N621 C614 1.356 . S
N621 H624 0.984 . S
N621 H625 0.985 . S
H622 N617 0.984 1_655 S
H623 N617 0.985 . S
H624 N621 0.984 . S
H625 N621 0.985 . S
H626 N620 0.984 . S
H627 N620 0.984 . S
H628 N616 0.984 . S
H629 N616 0.985 . S
C630 C631 1.363 . S
C630 C636 1.379 . S
C630 N638 1.356 . S
C631 C630 1.363 . S
C631 C637 1.363 . S
C632 C633 1.363 . S
C632 C637 1.379 . S
C632 N639 1.356 . S
C633 C632 1.363 . S
C633 C636 1.363 . S
N634 C636 1.356 . S
N634 H646 0.984 . S
N634 H647 0.985 . S
N635 C637 1.356 . S
N635 H640 0.984 . S
N635 H641 0.985 . S
C636 C630 1.379 . S
C636 C633 1.363 . S
C636 N634 1.356 . S
C637 C631 1.363 . S
C637 C632 1.379 . S
C637 N635 1.356 . S
N638 C630 1.356 . S
N638 H644 0.984 . S
N638 H645 0.984 . S
N639 C632 1.356 . S
N639 H642 0.984 . S
N639 H643 0.985 . S
H640 N635 0.984 . S
H641 N635 0.985 . S
H642 N639 0.984 . S
H643 N639 0.985 . S
H644 N638 0.984 . S
H645 N638 0.984 . S
H646 N634 0.984 . S
H647 N634 0.985 . S
C648 C649 1.363 . S
C648 C654 1.379 . S
C648 N656 1.356 . S
C649 C648 1.363 . S
C649 C655 1.363 1_545 S
C650 C651 1.363 . S
C650 C655 1.379 . S
C650 N657 1.356 . S
C651 C650 1.363 . S
C651 C654 1.363 1_565 S
N652 C654 1.356 . S
N652 H664 0.984 . S
N652 H665 0.985 . S
N653 C655 1.356 . S
N653 H658 0.984 . S
N653 H659 0.985 . S
C654 C648 1.379 . S
C654 C651 1.363 1_545 S
C654 N652 1.356 . S
C655 C649 1.363 1_565 S
C655 C650 1.379 . S
C655 N653 1.356 . S
N656 C648 1.356 . S
N656 H662 0.984 . S
N656 H663 0.984 . S
N657 C650 1.356 . S
N657 H660 0.984 . S
N657 H661 0.985 . S
H658 N653 0.984 . S
H659 N653 0.985 . S
H660 N657 0.984 . S
H661 N657 0.985 . S
H662 N656 0.984 . S
H663 N656 0.984 . S
H664 N652 0.984 . S
H665 N652 0.985 . S
C666 C667 1.363 . S
C666 C672 1.379 . S
C666 N674 1.356 . S
C667 C666 1.363 . S
C667 C673 1.363 . S
C668 C669 1.363 . S
C668 C673 1.379 . S
C668 N675 1.356 . S
C669 C668 1.363 . S
C669 C672 1.363 . S
N670 C672 1.356 . S
N670 H682 0.984 . S
N670 H683 0.985 . S
N671 C673 1.356 . S
N671 H676 0.984 . S
N671 H677 0.985 . S
C672 C666 1.379 . S
C672 C669 1.363 . S
C672 N670 1.356 . S
C673 C667 1.363 . S
C673 C668 1.379 . S
C673 N671 1.356 . S
N674 C666 1.356 . S
N674 H680 0.984 . S
N674 H681 0.984 . S
N675 C668 1.356 . S
N675 H678 0.984 1_556 S
N675 H679 0.985 1_556 S
H676 N671 0.984 . S
H677 N671 0.985 . S
H678 N675 0.984 1_554 S
H679 N675 0.985 1_554 S
H680 N674 0.984 . S
H681 N674 0.984 . S
H682 N670 0.984 . S
H683 N670 0.985 . S
C684 C685 1.363 . S
C684 C690 1.379 . S
C684 N692 1.356 . S
C685 C684 1.363 . S
C685 C691 1.363 . S
C686 C687 1.363 . S
C686 C691 1.379 . S
C686 N693 1.356 . S
C687 C686 1.363 . S
C687 C690 1.363 . S
N688 C690 1.356 . S
N688 H700 0.984 . S
N688 H701 0.985 . S
N689 C691 1.356 . S
N689 H694 0.984 . S
N689 H695 0.985 . S
C690 C684 1.379 . S
C690 C687 1.363 . S
C690 N688 1.356 . S
C691 C685 1.363 . S
C691 C686 1.379 . S
C691 N689 1.356 . S
N692 C684 1.356 . S
N692 H698 0.984 . S
N692 H699 0.984 . S
N693 C686 1.356 . S
N693 H696 0.984 . S
N693 H697 0.985 . S
H694 N689 0.984 . S
H695 N689 0.985 . S
H696 N693 0.984 . S
H697 N693 0.985 . S
H698 N692 0.984 . S
H699 N692 0.984 . S
H700 N688 0.984 . S
H701 N688 0.985 . S
C702 C703 1.363 . S
C702 C708 1.379 . S
C702 N710 1.356 . S
C703 C702 1.363 . S
C703 C709 1.363 . S
C704 C705 1.363 . S
C704 C709 1.379 . S
C704 N711 1.356 . S
C705 C704 1.363 . S
C705 C708 1.363 . S
N706 C708 1.356 . S
N706 H718 0.984 . S
N706 H719 0.985 . S
N707 C709 1.356 . S
N707 H712 0.984 . S
N707 H713 0.985 . S
C708 C702 1.379 . S
C708 C705 1.363 . S
C708 N706 1.356 . S
C709 C703 1.363 . S
C709 C704 1.379 . S
C709 N707 1.356 . S
N710 C702 1.356 . S
N710 H716 0.984 . S
N710 H717 0.984 . S
N711 C704 1.356 . S
N711 H714 0.984 . S
N711 H715 0.985 . S
H712 N707 0.984 . S
H713 N707 0.985 . S
H714 N711 0.984 . S
H715 N711 0.985 . S
H716 N710 0.984 . S
H717 N710 0.984 . S
H718 N706 0.984 . S
H719 N706 0.985 . S
C720 C721 1.363 . S
C720 C726 1.379 . S
C720 N728 1.356 . S
C721 C720 1.363 . S
C721 C727 1.363 . S
C722 C723 1.363 . S
C722 C727 1.379 . S
C722 N729 1.356 . S
C723 C722 1.363 . S
C723 C726 1.363 . S
N724 C726 1.356 . S
N724 H736 0.984 . S
N724 H737 0.985 . S
N725 C727 1.356 . S
N725 H730 0.984 . S
N725 H731 0.985 . S
C726 C720 1.379 . S
C726 C723 1.363 . S
C726 N724 1.356 . S
C727 C721 1.363 . S
C727 C722 1.379 . S
C727 N725 1.356 . S
N728 C720 1.356 . S
N728 H734 0.984 . S
N728 H735 0.984 . S
N729 C722 1.356 . S
N729 H732 0.984 . S
N729 H733 0.985 . S
H730 N725 0.984 . S
H731 N725 0.985 . S
H732 N729 0.984 . S
H733 N729 0.985 . S
H734 N728 0.984 . S
H735 N728 0.984 . S
H736 N724 0.984 . S
H737 N724 0.985 . S
C738 C739 1.363 . S
C738 C744 1.379 . S
C738 N746 1.356 . S
C739 C738 1.363 . S
C739 C745 1.363 . S
C740 C741 1.363 . S
C740 C745 1.379 . S
C740 N747 1.356 . S
C741 C740 1.363 . S
C741 C744 1.363 . S
N742 C744 1.356 . S
N742 H754 0.984 . S
N742 H755 0.985 . S
N743 C745 1.356 . S
N743 H748 0.984 . S
N743 H749 0.985 . S
C744 C738 1.379 . S
C744 C741 1.363 . S
C744 N742 1.356 . S
C745 C739 1.363 . S
C745 C740 1.379 . S
C745 N743 1.356 . S
N746 C738 1.356 . S
N746 H752 0.984 . S
N746 H753 0.984 . S
N747 C740 1.356 . S
N747 H750 0.984 . S
N747 H751 0.985 . S
H748 N743 0.984 . S
H749 N743 0.985 . S
H750 N747 0.984 . S
H751 N747 0.985 . S
H752 N746 0.984 . S
H753 N746 0.984 . S
H754 N742 0.984 . S
H755 N742 0.985 . S
C756 C757 1.363 . S
C756 C762 1.379 . S
C756 N764 1.356 . S
C757 C756 1.363 . S
C757 C763 1.363 . S
C758 C759 1.363 . S
C758 C763 1.379 . S
C758 N765 1.356 . S
C759 C758 1.363 . S
C759 C762 1.363 . S
N760 C762 1.356 . S
N760 H772 0.984 . S
N760 H773 0.985 1_554 S
N761 C763 1.356 . S
N761 H766 0.984 . S
N761 H767 0.985 . S
C762 C756 1.379 . S
C762 C759 1.363 . S
C762 N760 1.356 . S
C763 C757 1.363 . S
C763 C758 1.379 . S
C763 N761 1.356 . S
N764 C756 1.356 . S
N764 H770 0.984 . S
N764 H771 0.984 . S
N765 C758 1.356 . S
N765 H768 0.984 . S
N765 H769 0.985 . S
H766 N761 0.984 . S
H767 N761 0.985 . S
H768 N765 0.984 . S
H769 N765 0.985 . S
H770 N764 0.984 . S
H771 N764 0.984 . S
H772 N760 0.984 . S
H773 N760 0.985 1_556 S
C289 C6 1.915 1_556 S
C291 C226 1.926 . S
C307 C36 1.780 1_556 S
C309 C285 1.784 . S
C325 C66 1.879 . S
C327 C221 1.840 . S
C343 C132 1.592 . S
C345 C68 1.588 . S
C361 C164 1.713 . S
C363 C29 1.713 . S
C379 C34 1.853 . S
C381 C125 1.815 . S
C397 C228 1.864 . S
C399 C162 1.902 . S
C415 C262 1.984 . S
C417 C102 1.986 . S
C433 C130 2.118 . S
C435 C198 2.137 . S
C451 C93 1.362 . S
C453 C2 1.363 . S
C469 C61 1.350 . S
C471 C4 1.349 . S
C487 C38 1.388 . S
C489 C70 1.389 . S
C505 C100 1.387 . S
C507 C166 1.391 . S
C523 C98 1.421 . S
C525 C157 1.418 . S
C541 C134 1.394 . S
C543 C189 1.388 . S
C559 C260 1.433 . S
C561 C194 1.441 . S
C577 C253 1.375 . S
C579 C196 1.374 . S
C595 C258 1.414 . S
C597 C230 1.413 . S
C613 N13 1.414 . S
C615 N18 1.347 . S
C631 N45 1.216 . S
C633 N50 1.266 . S
C649 N82 1.200 . S
C651 N77 1.159 . S
C667 N109 1.394 . S
C669 N114 1.329 . S
C685 N146 1.322 . S
C687 N141 1.267 . S
C703 N178 1.281 . S
C705 N173 1.229 . S
C721 N205 1.459 . S
C723 N210 1.388 . S
C739 N242 1.384 . S
C741 N237 1.321 . S
C757 N269 1.240 . S
C759 N274 1.193 . S
