# Generated by pormake.
# Topology wht, (6)-cn, num edge types: 1
# Building blocks:
#     Node 0, Type 0, BuildingBlock: VOLQOD_clean_sbu_1, # of connection points: 6
#     Node 1, Type 0, BuildingBlock: VOLQOD_clean_sbu_1, # of connection points: 6
#     Node 2, Type 0, BuildingBlock: VOLQOD_clean_sbu_1, # of connection points: 6
#     Node 3, Type 0, BuildingBlock: VOLQOD_clean_sbu_1, # of connection points: 6
#     Node 4, Type 0, BuildingBlock: VOLQOD_clean_sbu_1, # of connection points: 6
#     Node 5, Type 0, BuildingBlock: VOLQOD_clean_sbu_1, # of connection points: 6
#     Node 6, Type 0, BuildingBlock: VOLQOD_clean_sbu_1, # of connection points: 6
#     Node 7, Type 0, BuildingBlock: VOLQOD_clean_sbu_1, # of connection points: 6
#     Edge 8, Type (0, 0), BuildingBlock: CIFDUS_clean_linker_0, # of connection points: 2
#     Edge 9, Type (0, 0), BuildingBlock: CIFDUS_clean_linker_0, # of connection points: 2
#     Edge 10, Type (0, 0), BuildingBlock: CIFDUS_clean_linker_0, # of connection points: 2
#     Edge 11, Type (0, 0), BuildingBlock: CIFDUS_clean_linker_0, # of connection points: 2
#     Edge 12, Type (0, 0), BuildingBlock: CIFDUS_clean_linker_0, # of connection points: 2
#     Edge 13, Type (0, 0), BuildingBlock: CIFDUS_clean_linker_0, # of connection points: 2
#     Edge 14, Type (0, 0), BuildingBlock: CIFDUS_clean_linker_0, # of connection points: 2
#     Edge 15, Type (0, 0), BuildingBlock: CIFDUS_clean_linker_0, # of connection points: 2
#     Edge 16, Type (0, 0), BuildingBlock: CIFDUS_clean_linker_0, # of connection points: 2
#     Edge 17, Type (0, 0), BuildingBlock: CIFDUS_clean_linker_0, # of connection points: 2
#     Edge 18, Type (0, 0), BuildingBlock: CIFDUS_clean_linker_0, # of connection points: 2
#     Edge 19, Type (0, 0), BuildingBlock: CIFDUS_clean_linker_0, # of connection points: 2
#     Edge 20, Type (0, 0), BuildingBlock: CIFDUS_clean_linker_0, # of connection points: 2
#     Edge 21, Type (0, 0), BuildingBlock: CIFDUS_clean_linker_0, # of connection points: 2
#     Edge 22, Type (0, 0), BuildingBlock: CIFDUS_clean_linker_0, # of connection points: 2
#     Edge 23, Type (0, 0), BuildingBlock: CIFDUS_clean_linker_0, # of connection points: 2
#     Edge 24, Type (0, 0), BuildingBlock: CIFDUS_clean_linker_0, # of connection points: 2
#     Edge 25, Type (0, 0), BuildingBlock: CIFDUS_clean_linker_0, # of connection points: 2
#     Edge 26, Type (0, 0), BuildingBlock: CIFDUS_clean_linker_0, # of connection points: 2
#     Edge 27, Type (0, 0), BuildingBlock: CIFDUS_clean_linker_0, # of connection points: 2
#     Edge 28, Type (0, 0), BuildingBlock: CIFDUS_clean_linker_0, # of connection points: 2
#     Edge 29, Type (0, 0), BuildingBlock: CIFDUS_clean_linker_0, # of connection points: 2
#     Edge 30, Type (0, 0), BuildingBlock: CIFDUS_clean_linker_0, # of connection points: 2
#     Edge 31, Type (0, 0), BuildingBlock: CIFDUS_clean_linker_0, # of connection points: 2
# Relax obj value: 0.362
# Max RMSD: 0.253
# Mean RMSD: 0.253
data_MOF--net-wht--node1-VOLQOD_clean_sbu_1--edge1-CIFDUS_clean_linker_0
_symmetry_space_group_name_H-M    P1
_symmetry_Int_Tables_number       1
_symmetry_cell_setting            triclinic
loop_
_symmetry_equiv_pos_as_xyz
'x, y, z'
_cell_length_a     24.644602
_cell_length_b     24.541071
_cell_length_c     43.787793
_cell_angle_alpha  90.602779
_cell_angle_beta   90.164465
_cell_angle_gamma 90.194543
loop_
_atom_site_label
_atom_site_type_symbol
_atom_site_fract_x
_atom_site_fract_y
_atom_site_fract_z
_atom_type_partial_charge
O0 O 0.12792 0.32151 0.19824 0.0
Zn1 Zn 0.14066 0.30173 0.1538 0.0
O2 O 0.07058 0.29607 0.13442 0.0
Zn3 Zn 0.05502 0.22382 0.11963 0.0
Zn4 Zn 0.014 0.31423 0.16272 0.0
Zn5 Zn 0.06749 0.34332 0.10021 0.0
O6 O 0.0383 0.22111 0.07503 0.0
O7 O 0.07742 0.29892 0.06176 0.0
O8 O 0.18321 0.22979 0.1488 0.0
O9 O 0.12158 0.18029 0.12378 0.0
O10 O 0.00046 0.18438 0.14503 0.0
O11 O 0.9865 0.24606 0.18146 0.0
O12 O 0.95092 0.34824 0.14006 0.0
O13 O 0.18183 0.36668 0.13616 0.0
O14 O 0.99331 0.37413 0.09775 0.0
O15 O 0.12404 0.40247 0.1029 0.0
C16 C 0.09002 0.34839 0.21137 0.0
C17 C 0.05838 0.252 0.05478 0.0
C18 C 0.9814 0.19784 0.17098 0.0
C19 C 0.16851 0.1854 0.13551 0.0
C20 C 0.95072 0.37105 0.11403 0.0
C21 C 0.16873 0.40435 0.11758 0.0
O22 O 0.04483 0.35747 0.19802 0.0
O23 O 0.31308 0.64483 0.33281 0.0
Zn24 Zn 0.2791 0.66126 0.37266 0.0
O25 O 0.27828 0.59543 0.3957 0.0
Zn26 Zn 0.20498 0.57279 0.40389 0.0
Zn27 Zn 0.31885 0.53871 0.3751 0.0
Zn28 Zn 0.31476 0.61036 0.43321 0.0
O29 O 0.19603 0.56771 0.44997 0.0
O30 O 0.2613 0.62439 0.46615 0.0
O31 O 0.20309 0.69135 0.36575 0.0
O32 O 0.1519 0.62862 0.38802 0.0
O33 O 0.18728 0.5035 0.37973 0.0
O34 O 0.26586 0.48751 0.35631 0.0
O35 O 0.36225 0.49359 0.40485 0.0
O36 O 0.33383 0.71544 0.38956 0.0
O37 O 0.35263 0.54384 0.44677 0.0
O38 O 0.37033 0.66927 0.4277 0.0
C39 C 0.351 0.61243 0.32506 0.0
C40 C 0.21905 0.59578 0.47119 0.0
C41 C 0.21605 0.47646 0.36071 0.0
C42 C 0.15647 0.67265 0.37302 0.0
C43 C 0.36925 0.50086 0.43344 0.0
C44 C 0.37146 0.70901 0.40926 0.0
O45 O 0.36333 0.57082 0.34083 0.0
O46 O 0.86885 0.67893 0.69778 0.0
Zn47 Zn 0.85067 0.69643 0.65372 0.0
O48 O 0.91852 0.69888 0.63144 0.0
Zn49 Zn 0.93669 0.77175 0.61916 0.0
Zn50 Zn 0.97707 0.67382 0.65645 0.0
Zn51 Zn 0.91372 0.65247 0.59625 0.0
O52 O 0.9526 0.77462 0.57449 0.0
O53 O 0.91272 0.69777 0.55866 0.0
O54 O 0.81002 0.76937 0.64957 0.0
O55 O 0.87168 0.81823 0.62488 0.0
O56 O 0.9956 0.80593 0.6452 0.0
O57 O 0.01503 0.73705 0.67576 0.0
O58 O 0.03102 0.62866 0.63241 0.0
O59 O 0.80436 0.6321 0.63817 0.0
O60 O 0.97928 0.60702 0.59252 0.0
O61 O 0.8509 0.60139 0.59825 0.0
C62 C 0.90642 0.64808 0.7079 0.0
C63 C 0.9346 0.74377 0.55315 0.0
C64 C 0.01997 0.78668 0.66835 0.0
C65 C 0.82501 0.81372 0.63691 0.0
C66 C 0.02325 0.60272 0.60743 0.0
C67 C 0.8109 0.59766 0.61638 0.0
O68 O 0.9468 0.63427 0.69152 0.0
O69 O 0.74932 0.37418 0.96022 0.0
Zn70 Zn 0.72602 0.34964 0.91668 0.0
O71 O 0.72089 0.41551 0.89244 0.0
Zn72 Zn 0.64863 0.43687 0.88095 0.0
Zn73 Zn 0.75237 0.47576 0.91309 0.0
Zn74 Zn 0.75785 0.40488 0.85547 0.0
O75 O 0.63783 0.44061 0.8352 0.0
O76 O 0.70413 0.38266 0.8241 0.0
O77 O 0.65051 0.30976 0.91375 0.0
O78 O 0.60223 0.37494 0.89152 0.0
O79 O 0.62101 0.50237 0.90467 0.0
O80 O 0.69478 0.519 0.93248 0.0
O81 O 0.79379 0.52537 0.88512 0.0
O82 O 0.7902 0.3027 0.90019 0.0
O83 O 0.79337 0.47317 0.84328 0.0
O84 O 0.81501 0.34939 0.85936 0.0
C85 C 0.78226 0.41311 0.96707 0.0
C86 C 0.65934 0.40535 0.81747 0.0
C87 C 0.64523 0.52745 0.92639 0.0
C88 C 0.60554 0.32759 0.90278 0.0
C89 C 0.80582 0.51711 0.85724 0.0
C90 C 0.82274 0.31071 0.87786 0.0
O91 O 0.7952 0.44919 0.94767 0.0
O92 O 0.61778 0.17613 0.52939 0.0
Zn93 Zn 0.63216 0.19463 0.57369 0.0
O94 O 0.56247 0.19741 0.59377 0.0
Zn95 Zn 0.54627 0.26934 0.60909 0.0
Zn96 Zn 0.50436 0.17592 0.56649 0.0
Zn97 Zn 0.56388 0.15001 0.62797 0.0
O98 O 0.53334 0.27109 0.65418 0.0
O99 O 0.57451 0.19387 0.66621 0.0
O100 O 0.67287 0.26795 0.57841 0.0
O101 O 0.61102 0.3162 0.60353 0.0
O102 O 0.48796 0.306 0.58497 0.0
O103 O 0.47097 0.24335 0.54928 0.0
O104 O 0.44554 0.13525 0.59048 0.0
O105 O 0.67663 0.13052 0.58994 0.0
O106 O 0.49252 0.11419 0.6322 0.0
O107 O 0.6218 0.0938 0.62429 0.0
C108 C 0.58028 0.14877 0.51596 0.0
C109 C 0.55495 0.24002 0.67385 0.0
C110 C 0.46589 0.29154 0.55984 0.0
C111 C 0.65759 0.3123 0.59136 0.0
C112 C 0.44905 0.11271 0.61658 0.0
C113 C 0.66537 0.0927 0.60881 0.0
O114 O 0.5358 0.13703 0.52945 0.0
O115 O 0.24498 0.13793 0.77594 0.0
Zn116 Zn 0.22495 0.14931 0.82078 0.0
O117 O 0.22183 0.07767 0.8389 0.0
Zn118 Zn 0.14926 0.05431 0.85002 0.0
Zn119 Zn 0.25505 0.02288 0.81387 0.0
Zn120 Zn 0.25976 0.08226 0.87615 0.0
O121 O 0.13948 0.04567 0.89571 0.0
O122 O 0.2071 0.10152 0.90826 0.0
O123 O 0.14998 0.18671 0.82689 0.0
O124 O 0.10016 0.11648 0.8426 0.0
O125 O 0.12327 0.98986 0.82432 0.0
O126 O 0.19685 0.97669 0.79592 0.0
O127 O 0.30364 0.97247 0.83904 0.0
O128 O 0.28886 0.19348 0.83974 0.0
O129 O 0.29402 0.01222 0.8847 0.0
O130 O 0.31823 0.1375 0.87553 0.0
C131 C 0.27434 0.10135 0.76309 0.0
C132 C 0.16172 0.07938 0.91425 0.0
C133 C 0.14769 0.96616 0.80227 0.0
C134 C 0.10449 0.16638 0.83545 0.0
C135 C 0.31155 0.97373 0.86787 0.0
C136 C 0.32354 0.18088 0.86033 0.0
O137 O 0.28843 0.05815 0.77711 0.0
O138 O 0.37521 0.81771 0.02794 0.0
Zn139 Zn 0.35711 0.8012 0.07233 0.0
O140 O 0.42486 0.7984 0.09513 0.0
Zn141 Zn 0.44073 0.72557 0.10849 0.0
Zn142 Zn 0.48372 0.82234 0.06987 0.0
Zn143 Zn 0.42188 0.84544 0.13012 0.0
O144 O 0.45546 0.72287 0.15346 0.0
O145 O 0.41877 0.8015 0.16826 0.0
O146 O 0.31452 0.72884 0.07662 0.0
O147 O 0.37496 0.67997 0.10213 0.0
O148 O 0.49922 0.69002 0.08338 0.0
O149 O 0.51968 0.75752 0.05197 0.0
O150 O 0.53963 0.86651 0.09384 0.0
O151 O 0.31275 0.86644 0.08768 0.0
O152 O 0.48939 0.88878 0.13403 0.0
O153 O 0.36073 0.89772 0.12722 0.0
C154 C 0.41355 0.84708 0.01723 0.0
C155 C 0.43866 0.75498 0.1744 0.0
C156 C 0.52373 0.70819 0.06006 0.0
C157 C 0.3286 0.68455 0.08962 0.0
C158 C 0.53327 0.89205 0.11906 0.0
C159 C 0.32053 0.90144 0.10911 0.0
O160 O 0.4546 0.86062 0.03346 0.0
O161 O 0.7976 0.87013 0.40185 0.0
Zn162 Zn 0.76918 0.84901 0.36098 0.0
O163 O 0.77618 0.91109 0.33504 0.0
Zn164 Zn 0.70698 0.9372 0.32225 0.0
Zn165 Zn 0.81554 0.96804 0.35599 0.0
Zn166 Zn 0.817 0.89042 0.3001 0.0
O167 O 0.70591 0.94125 0.276 0.0
O168 O 0.76703 0.87737 0.26449 0.0
O169 O 0.69026 0.82354 0.36435 0.0
O170 O 0.64978 0.88364 0.33425 0.0
O171 O 0.68701 0.00626 0.34597 0.0
O172 O 0.76226 0.02031 0.37326 0.0
O173 O 0.86273 0.00975 0.327 0.0
O174 O 0.82346 0.79011 0.34922 0.0
O175 O 0.86134 0.95346 0.2871 0.0
O176 O 0.86755 0.82925 0.31104 0.0
C177 C 0.83966 0.89838 0.4083 0.0
C178 C 0.72845 0.90904 0.25668 0.0
C179 C 0.71341 0.03215 0.36668 0.0
C180 C 0.64766 0.84234 0.35155 0.0
C181 C 0.87586 0.99813 0.29961 0.0
C182 C 0.86397 0.79217 0.33112 0.0
O183 O 0.85724 0.93559 0.39078 0.0
H184 H 0.96567 0.20429 0.23207 0.0
H185 H 0.94794 0.09556 0.15442 0.0
H186 H 0.91753 0.02293 0.18804 0.0
H187 H 0.89587 0.99086 0.23901 0.0
H188 H 0.91307 0.09928 0.31687 0.0
H189 H 0.94528 0.17152 0.28341 0.0
C190 C 0.9546 0.16489 0.22242 0.0
C191 C 0.95858 0.15542 0.19077 0.0
C192 C 0.93803 0.12318 0.24188 0.0
C193 C 0.94495 0.10391 0.1787 0.0
C194 C 0.92785 0.06233 0.1979 0.0
C195 C 0.90716 0.03006 0.24883 0.0
C196 C 0.90204 0.03964 0.28042 0.0
C197 C 0.92454 0.07151 0.22949 0.0
C198 C 0.91674 0.09078 0.29264 0.0
C199 C 0.93479 0.1322 0.27351 0.0
H200 H 0.37929 0.50088 0.495 0.0
H201 H 0.40734 0.40088 0.41483 0.0
H202 H 0.43572 0.32556 0.44728 0.0
H203 H 0.45258 0.28858 0.49837 0.0
H204 H 0.42549 0.38981 0.5781 0.0
H205 H 0.39529 0.46413 0.54563 0.0
C206 C 0.39194 0.46281 0.48446 0.0
C207 C 0.39139 0.45668 0.45246 0.0
C208 C 0.40745 0.41969 0.50318 0.0
C209 C 0.40767 0.40685 0.43937 0.0
C210 C 0.42354 0.36366 0.45792 0.0
C211 C 0.43922 0.3266 0.50867 0.0
C212 C 0.44087 0.3336 0.54061 0.0
C213 C 0.42321 0.36956 0.48985 0.0
C214 C 0.42437 0.3834 0.55359 0.0
C215 C 0.40745 0.42597 0.53504 0.0
H216 H 0.01264 0.78914 0.72946 0.0
H217 H 0.09069 0.86776 0.65365 0.0
H218 H 0.13817 0.9298 0.68906 0.0
H219 H 0.15687 0.96117 0.74139 0.0
H220 H 0.07213 0.88886 0.81694 0.0
H221 H 0.02697 0.82457 0.78173 0.0
C222 C 0.0404 0.8197 0.72082 0.0
C223 C 0.04921 0.82365 0.68921 0.0
C224 C 0.06575 0.85619 0.74116 0.0
C225 C 0.0839 0.86404 0.67798 0.0
C226 C 0.11084 0.89936 0.69816 0.0
C227 C 0.12854 0.93119 0.7501 0.0
C228 C 0.11811 0.92895 0.78161 0.0
C229 C 0.10201 0.89573 0.72975 0.0
C230 C 0.08062 0.891 0.79272 0.0
C231 C 0.05509 0.8543 0.77265 0.0
H232 H 0.51313 0.70403 -0.00069 0.0
H233 H 0.59321 0.62644 0.07489 0.0
H234 H 0.63806 0.56305 0.03943 0.0
H235 H 0.65481 0.53132 0.98708 0.0
H236 H 0.56873 0.60338 0.91183 0.0
H237 H 0.52473 0.66769 0.9472 0.0
C238 C 0.54073 0.67337 0.00789 0.0
C239 C 0.55108 0.67012 0.03937 0.0
C240 C 0.56459 0.63632 0.98757 0.0
C241 C 0.58541 0.62959 0.05061 0.0
C242 C 0.61081 0.59354 0.03041 0.0
C243 C 0.62633 0.56117 0.9785 0.0
C244 C 0.61526 0.56357 0.94706 0.0
C245 C 0.60076 0.59676 -0.0011 0.0
C246 C 0.57762 0.60125 0.93603 0.0
C247 C 0.55283 0.63795 0.95617 0.0
H248 H 0.17117 0.32169 0.25024 0.0
H249 H 0.03005 0.42444 0.24265 0.0
H250 H 0.05155 0.46697 0.29196 0.0
H251 H 0.11703 0.4828 0.3339 0.0
H252 H 0.2602 0.38282 0.33938 0.0
H253 H 0.23056 0.33036 0.29467 0.0
C254 C 0.14481 0.35311 0.25942 0.0
C255 C 0.09969 0.37058 0.24248 0.0
C256 C 0.15765 0.37767 0.28756 0.0
C257 C 0.06541 0.4106 0.25506 0.0
C258 C 0.07765 0.43495 0.28327 0.0
C259 C 0.14068 0.44835 0.32585 0.0
C260 C 0.19065 0.43655 0.33978 0.0
C261 C 0.12447 0.4198 0.29934 0.0
C262 C 0.22155 0.39249 0.32892 0.0
C263 C 0.20488 0.36284 0.30324 0.0
H264 H 0.12291 0.64508 0.6007 0.0
H265 H 0.02251 0.50779 0.5753 0.0
H266 H 0.08014 0.48925 0.53113 0.0
H267 H 0.14638 0.52415 0.49454 0.0
H268 H 0.2425 0.66595 0.51818 0.0
H269 H 0.19908 0.67101 0.56805 0.0
C270 C 0.11533 0.6096 0.58628 0.0
C271 C 0.0687 0.57794 0.59095 0.0
C272 C 0.14651 0.60143 0.55993 0.0
C273 C 0.0585 0.53252 0.57199 0.0
C274 C 0.09084 0.52254 0.54649 0.0
C275 C 0.15814 0.55588 0.5107 0.0
C276 C 0.1964 0.5955 0.50234 0.0
C277 C 0.13274 0.55885 0.53924 0.0
C278 C 0.21235 0.63549 0.52383 0.0
C279 C 0.18773 0.63833 0.55243 0.0
H280 H 0.89621 0.50601 0.82501 0.0
H281 H 0.77052 0.62044 0.84816 0.0
H282 H 0.79483 0.67638 0.80411 0.0
H283 H 0.8409 0.68226 0.75428 0.0
H284 H 0.96477 0.56461 0.7313 0.0
H285 H 0.95235 0.5204 0.78014 0.0
C286 C 0.87567 0.54435 0.82094 0.0
C287 C 0.83179 0.55943 0.83929 0.0
C288 C 0.88857 0.57475 0.79523 0.0
C289 C 0.80489 0.60875 0.83421 0.0
C290 C 0.81821 0.64009 0.80882 0.0
C291 C 0.86548 0.6473 0.76013 0.0
C292 C 0.90258 0.62585 0.7389 0.0
C293 C 0.85809 0.62181 0.78832 0.0
C294 C 0.93525 0.58142 0.74704 0.0
C295 C 0.92833 0.5561 0.77499 0.0
H296 H 0.92907 0.45949 0.08112 0.0
H297 H 0.86031 0.30735 0.11032 0.0
H298 H 0.79593 0.30858 0.06758 0.0
H299 H 0.77254 0.34447 0.01633 0.0
H300 H 0.84578 0.49601 0.98782 0.0
H301 H 0.8947 0.50322 0.03555 0.0
C302 C 0.89835 0.42789 0.07881 0.0
C303 C 0.8994 0.3834 0.09852 0.0
C304 C 0.86343 0.42772 0.0536 0.0
C305 C 0.85975 0.34239 0.09548 0.0
C306 C 0.8237 0.34254 0.07067 0.0
C307 C 0.79869 0.3793 0.02075 0.0
C308 C 0.8066 0.41855 -0.00204 0.0
C309 C 0.82735 0.38349 0.04859 0.0
C310 C 0.8398 0.46416 0.00443 0.0
C311 C 0.86774 0.46874 0.03191 0.0
H312 H 0.65951 0.18173 0.47757 0.0
H313 H 0.52319 0.07143 0.48319 0.0
H314 H 0.54692 0.03198 0.43345 0.0
H315 H 0.61389 0.0207 0.39194 0.0
H316 H 0.75292 0.12757 0.38893 0.0
H317 H 0.7199 0.17751 0.43365 0.0
C318 C 0.63461 0.14935 0.46787 0.0
C319 C 0.59028 0.12884 0.4844 0.0
C320 C 0.64889 0.12647 0.43958 0.0
C321 C 0.55789 0.08763 0.47112 0.0
C322 C 0.57145 0.06503 0.44267 0.0
C323 C 0.63579 0.05615 0.4005 0.0
C324 C 0.68558 0.07075 0.38722 0.0
C325 C 0.61779 0.08307 0.4271 0.0
C326 C 0.71436 0.11593 0.3988 0.0
C327 C 0.69578 0.14408 0.42451 0.0
H328 H 0.32004 0.02567 0.72543 0.0
H329 H 0.26996 0.19405 0.72875 0.0
H330 H 0.30883 0.20854 0.67821 0.0
H331 H 0.36938 0.17699 0.63707 0.0
H332 H 0.42565 0.01114 0.63627 0.0
H333 H 0.37025 0.99123 0.6811 0.0
C334 C 0.31715 0.06548 0.71504 0.0
C335 C 0.29314 0.10902 0.73123 0.0
C336 C 0.3401 0.07367 0.68613 0.0
C337 C 0.28883 0.15998 0.71705 0.0
C338 C 0.31096 0.16828 0.68808 0.0
C339 C 0.36722 0.13587 0.64588 0.0
C340 C 0.4005 0.0952 0.63317 0.0
C341 C 0.3381 0.12586 0.67282 0.0
C342 C 0.39924 0.04256 0.64534 0.0
C343 C 0.36843 0.03156 0.67131 0.0
H344 H 0.34606 0.81213 0.97137 0.0
H345 H 0.4743 0.92743 -0.00815 0.0
H346 H 0.46287 0.96861 0.94201 0.0
H347 H 0.40614 0.98206 0.89691 0.0
H348 H 0.27547 0.8706 0.87675 0.0
H349 H 0.29941 0.81622 0.92144 0.0
C350 C 0.37185 0.84588 0.96478 0.0
C351 C 0.40997 0.86756 0.98565 0.0
C352 C 0.36503 0.86964 0.93596 0.0
C353 C 0.44402 0.91045 0.97648 0.0
C354 C 0.43767 0.93401 0.9479 0.0
C355 C 0.38475 0.94431 0.90156 0.0
C356 C 0.33956 0.92984 0.88372 0.0
C357 C 0.39709 0.91518 0.92797 0.0
C358 C 0.31112 0.88167 0.88999 0.0
C359 C 0.32411 0.85135 0.91589 0.0
H360 H 0.63027 0.84559 0.12895 0.0
H361 H 0.53694 0.9901 0.14778 0.0
H362 H 0.59585 0.01255 0.1911 0.0
H363 H 0.66098 0.98082 0.22918 0.0
H364 H 0.74991 0.83218 0.21267 0.0
H365 H 0.70582 0.8215 0.163 0.0
C366 C 0.62458 0.88327 0.14172 0.0
C367 C 0.57967 0.91631 0.13533 0.0
C368 C 0.65658 0.89404 0.16768 0.0
C369 C 0.57168 0.96443 0.15231 0.0
C370 C 0.6048 0.97675 0.17733 0.0
C371 C 0.67124 0.94642 0.21458 0.0
C372 C 0.70757 0.90662 0.22498 0.0
C373 C 0.64522 0.94011 0.18625 0.0
C374 C 0.7214 0.863 0.20545 0.0
C375 C 0.69625 0.85686 0.17699 0.0
H376 H 0.15285 0.18468 0.92789 0.0
H377 H 0.09969 0.02587 0.95666 0.0
H378 H 0.05565 0.06717 0.00162 0.0
H379 H 0.04171 0.14758 0.03491 0.0
H380 H 0.09658 0.30582 0.00511 0.0
H381 H 0.12966 0.26549 0.9577 0.0
C382 C 0.13146 0.15913 0.94402 0.0
C383 C 0.13053 0.1024 0.93974 0.0
C384 C 0.10652 0.18306 0.96935 0.0
C385 C 0.10134 0.06965 0.95997 0.0
C386 C 0.07633 0.09326 0.98554 0.0
C387 C 0.05995 0.17347 0.01782 0.0
C388 C 0.06755 0.22956 0.02381 0.0
C389 C 0.07992 0.14983 -0.00918 0.0
C390 C 0.09082 0.26251 0.00128 0.0
C391 C 0.10998 0.23946 0.97421 0.0
H392 H 0.4432 0.65039 0.19427 0.0
H393 H 0.42994 0.81724 0.22579 0.0
H394 H 0.40969 0.78613 0.27715 0.0
H395 H 0.38246 0.71266 0.31064 0.0
H396 H 0.39039 0.54564 0.27964 0.0
H397 H 0.42726 0.57554 0.23043 0.0
C398 C 0.43704 0.67989 0.21254 0.0
C399 C 0.43699 0.73601 0.20618 0.0
C400 C 0.424 0.6617 0.24188 0.0
C401 C 0.42923 0.77383 0.23004 0.0
C402 C 0.41766 0.75612 0.25939 0.0
C403 C 0.39301 0.68278 0.29321 0.0
C404 C 0.38282 0.62732 0.29816 0.0
C405 C 0.41274 0.70032 0.26516 0.0
C406 C 0.3977 0.58863 0.27599 0.0
C407 C 0.41837 0.60578 0.24791 0.0
H408 H 0.86817 0.7966 0.4198 0.0
H409 H 0.88381 0.96103 0.45424 0.0
H410 H 0.92455 0.92686 0.50165 0.0
H411 H 0.94188 0.84923 0.53546 0.0
H412 H 0.92157 0.68496 0.50069 0.0
H413 H 0.89753 0.72016 0.45063 0.0
C414 C 0.88117 0.82489 0.43763 0.0
C415 C 0.87211 0.88084 0.43431 0.0
C416 C 0.90347 0.80496 0.46454 0.0
C417 C 0.89015 0.91766 0.45681 0.0
C418 C 0.91313 0.8981 0.48379 0.0
C419 C 0.93346 0.82114 0.51673 0.0
C420 C 0.93236 0.76463 0.52183 0.0
C421 C 0.91803 0.84167 0.48829 0.0
C422 C 0.9217 0.72866 0.49738 0.0
C423 C 0.90784 0.74869 0.46882 0.0
H424 H 0.53909 0.34342 0.69532 0.0
H425 H 0.59373 0.1838 0.72244 0.0
H426 H 0.62771 0.22161 0.77039 0.0
H427 H 0.65131 0.30075 0.80162 0.0
H428 H 0.59761 0.4608 0.77585 0.0
H429 H 0.55347 0.42196 0.73006 0.0
C430 C 0.55748 0.31671 0.71196 0.0
C431 C 0.56478 0.26102 0.70506 0.0
C432 C 0.57783 0.33888 0.73934 0.0
C433 C 0.58825 0.2269 0.72698 0.0
C434 C 0.60791 0.24848 0.75437 0.0
C435 C 0.62982 0.3271 0.78595 0.0
C436 C 0.62869 0.38349 0.79134 0.0
C437 C 0.60465 0.30456 0.76019 0.0
C438 C 0.59939 0.41725 0.77168 0.0
C439 C 0.5743 0.39506 0.74564 0.0
H440 H 0.15184 0.09318 0.10238 0.0
H441 H 0.26675 0.16902 0.16434 0.0
H442 H 0.32293 0.08675 0.1623 0.0
H443 H 0.33854 0.99341 0.1431 0.0
H444 H 0.22337 0.91934 0.08058 0.0
H445 H 0.16752 0.00126 0.08304 0.0
C446 C 0.18915 0.09204 0.11556 0.0
C447 C 0.20489 0.13736 0.13365 0.0
C448 C 0.22088 0.04484 0.11433 0.0
C449 C 0.25367 0.13491 0.15022 0.0
C450 C 0.28564 0.08779 0.14914 0.0
C451 C 0.30099 0.99489 0.13017 0.0
C452 C 0.28501 0.94993 0.11181 0.0
C453 C 0.26942 0.04244 0.13138 0.0
C454 C 0.23658 0.95307 0.09495 0.0
C455 C 0.20471 -2e-05 0.09629 0.0
H456 H 0.40297 0.76952 0.36087 0.0
H457 H 0.45697 0.71556 0.44936 0.0
H458 H 0.54819 0.75003 0.43893 0.0
H459 H 0.61412 0.79104 0.40332 0.0
H460 H 0.55893 0.84345 0.31477 0.0
H461 H 0.46715 0.81277 0.32633 0.0
C462 C 0.43427 0.76624 0.37821 0.0
C463 C 0.42286 0.74011 0.40594 0.0
C464 C 0.48696 0.78459 0.37171 0.0
C465 C 0.46441 0.73572 0.42788 0.0
C466 C 0.5168 0.75493 0.42181 0.0
C467 C 0.58207 0.79516 0.38648 0.0
C468 C 0.5935 0.81897 0.35811 0.0
C469 C 0.52888 0.77829 0.3935 0.0
C470 C 0.5513 0.82504 0.33673 0.0
C471 C 0.49869 0.8078 0.34338 0.0
H472 H 0.64724 -0.00055 0.64074 0.0
H473 H 0.76625 0.0787 0.58397 0.0
H474 H 0.82549 -0.00039 0.58807 0.0
H475 H 0.84308 0.90828 0.60701 0.0
H476 H 0.72424 0.82729 0.66307 0.0
H477 H 0.66514 0.90714 0.65987 0.0
C478 C 0.68626 -0.00033 0.62936 0.0
C479 C 0.70223 0.04529 0.6121 0.0
C480 C 0.72001 0.95377 0.63159 0.0
C481 C 0.75282 0.0444 0.59739 0.0
C482 C 0.78674 -0.00088 0.59971 0.0
C483 C 0.80433 0.90783 0.61869 0.0
C484 C 0.78829 0.8616 0.63536 0.0
C485 C 0.77065 0.9536 0.61664 0.0
C486 C 0.7377 0.86211 0.65009 0.0
C487 C 0.70393 0.90783 0.64828 0.0
H488 H 0.41231 0.15622 0.89505 0.0
H489 H 0.34467 0.28339 0.83917 0.0
H490 H 0.42512 0.3395 0.84865 0.0
H491 H 0.51393 0.35187 0.87168 0.0
H492 H 0.58508 0.22484 0.92623 0.0
H493 H 0.50311 0.16897 0.91838 0.0
C494 C 0.41491 0.19635 0.88502 0.0
C495 C 0.37208 0.21561 0.86643 0.0
C496 C 0.46169 0.22824 0.89032 0.0
C497 C 0.3767 0.26748 0.8535 0.0
C498 C 0.42273 0.29959 0.85894 0.0
C499 C 0.5119 0.31212 0.8822 0.0
C500 C 0.55594 0.29287 0.89981 0.0
C501 C 0.46537 0.28028 0.87721 0.0
C502 C 0.552 0.24088 0.91274 0.0
C503 C 0.50513 0.20896 0.90818 0.0
H504 H 0.82762 0.50546 0.58253 0.0
H505 H 0.71297 0.58063 0.64423 0.0
H506 H 0.65617 0.49888 0.64173 0.0
H507 H 0.64 0.40619 0.62299 0.0
H508 H 0.7552 0.32927 0.56232 0.0
H509 H 0.81131 0.41191 0.56373 0.0
C510 C 0.78995 0.5043 0.59524 0.0
C511 C 0.77447 0.5495 0.61343 0.0
C512 C 0.75792 0.45678 0.5941 0.0
C513 C 0.72585 0.54671 0.63001 0.0
C514 C 0.69342 0.49988 0.62865 0.0
C515 C 0.67733 0.40722 0.60995 0.0
C516 C 0.69322 0.36134 0.59247 0.0
C517 C 0.70927 0.45464 0.61094 0.0
C518 C 0.74198 0.36374 0.57599 0.0
C519 C 0.77397 0.41109 0.57673 0.0
H520 H 0.01754 0.14398 0.87095 0.0
H521 H 0.08162 0.26681 0.81093 0.0
H522 H -0.00041 0.32156 0.81877 0.0
H523 H 0.90995 0.33376 0.8423 0.0
H524 H 0.84764 0.21213 0.9037 0.0
H525 H 0.92935 0.15733 0.89557 0.0
C526 C 0.01363 0.18258 0.85932 0.0
C527 C 0.05558 0.20092 0.83996 0.0
C528 C 0.9668 0.2139 0.86423 0.0
C529 C 0.05004 0.25161 0.82577 0.0
C530 C 0.0031 0.28282 0.83025 0.0
C531 C 0.91391 0.29511 0.85387 0.0
C532 C 0.87217 0.27685 0.87342 0.0
C533 C 0.96121 0.26422 0.84934 0.0
C534 C 0.87879 0.22711 0.88851 0.0
C535 C 0.92552 0.19579 0.88382 0.0
H536 H 0.34732 0.58882 0.11796 0.0
H537 H 0.22614 0.67195 0.06457 0.0
H538 H 0.16649 0.59197 0.06782 0.0
H539 H 0.14876 0.49869 0.08651 0.0
H540 H 0.27106 0.41808 0.14046 0.0
H541 H 0.33035 0.49717 0.1361 0.0
C542 C 0.30792 0.58981 0.10688 0.0
C543 C 0.2914 0.63666 0.09098 0.0
C544 C 0.27403 0.54401 0.10893 0.0
C545 C 0.24002 0.63665 0.07696 0.0
C546 C 0.20592 0.59085 0.07881 0.0
C547 C 0.1885 0.49825 0.09719 0.0
C548 C 0.20529 0.45216 0.11379 0.0
C549 C 0.2225 0.54431 0.0948 0.0
C550 C 0.25687 0.45271 0.12758 0.0
C551 C 0.29089 0.49802 0.12512 0.0
H552 H 0.96799 0.8103 0.31327 0.0
H553 H 0.86954 0.69954 0.36552 0.0
H554 H 0.95128 0.65306 0.38318 0.0
H555 H 0.0509 0.64662 0.3857 0.0
H556 H 0.14896 0.76062 0.33528 0.0
H557 H 0.06712 0.80338 0.31537 0.0
C558 C 0.96417 0.77528 0.32802 0.0
C559 C 0.91238 0.75811 0.3377 0.0
C560 C 0.01143 0.7499 0.3389 0.0
C561 C 0.90867 0.71335 0.35741 0.0
C562 C 0.95549 0.68701 0.36772 0.0
C563 C 0.05452 0.68089 0.3704 0.0
C564 C 0.10638 0.70036 0.36216 0.0
C565 C 0.00714 0.70551 0.35902 0.0
C566 C 0.10987 0.74485 0.34225 0.0
C567 C 0.06298 0.7692 0.33068 0.0
loop_
_geom_bond_atom_site_label_1
_geom_bond_atom_site_label_2
_geom_bond_distance
_geom_bond_site_symmetry_2
_ccdc_geom_bond_type
O0 Zn1 1.953 . S
O0 C16 1.225 . S
Zn1 O0 1.953 . S
Zn1 O2 1.949 . S
Zn1 O8 1.919 . S
Zn1 O13 1.924 . S
O2 Zn1 1.949 . S
O2 Zn3 1.923 . S
O2 Zn4 1.950 . S
O2 Zn5 1.945 . S
Zn3 O2 1.923 . S
Zn3 O6 1.933 . S
Zn3 O9 1.941 . S
Zn3 O10 1.965 1_455 S
Zn4 O2 1.950 . S
Zn4 O11 1.938 1_455 S
Zn4 O12 1.906 1_455 S
Zn4 O22 1.953 . S
Zn5 O2 1.945 . S
Zn5 O7 1.932 . S
Zn5 O14 1.977 . S
Zn5 O15 1.910 . S
O6 Zn3 1.933 . S
O6 C17 1.226 . S
O7 Zn5 1.932 . S
O7 C17 1.307 . S
O8 Zn1 1.919 . S
O8 C19 1.253 . S
O9 Zn3 1.941 . S
O9 C19 1.283 . S
O10 Zn3 1.965 1_655 S
O10 C18 1.303 . S
O11 Zn4 1.938 1_655 S
O11 C18 1.247 . S
O12 Zn4 1.906 1_655 S
O12 C20 1.304 . S
O13 Zn1 1.924 . S
O13 C21 1.311 . S
O14 Zn5 1.977 . S
O14 C20 1.272 1_455 S
O15 Zn5 1.910 . S
O15 C21 1.231 . S
C16 O0 1.225 . S
C16 O22 1.298 . S
C17 O6 1.226 . S
C17 O7 1.307 . S
C18 O10 1.303 . S
C18 O11 1.247 . S
C19 O8 1.253 . S
C19 O9 1.283 . S
C20 O12 1.304 . S
C20 O14 1.272 1_655 S
C21 O13 1.311 . S
C21 O15 1.231 . S
O22 Zn4 1.953 . S
O22 C16 1.298 . S
O23 Zn24 1.953 . S
O23 C39 1.225 . S
Zn24 O23 1.953 . S
Zn24 O25 1.949 . S
Zn24 O31 1.919 . S
Zn24 O36 1.924 . S
O25 Zn24 1.949 . S
O25 Zn26 1.923 . S
O25 Zn27 1.950 . S
O25 Zn28 1.945 . S
Zn26 O25 1.923 . S
Zn26 O29 1.933 . S
Zn26 O32 1.941 . S
Zn26 O33 1.965 . S
Zn27 O25 1.950 . S
Zn27 O34 1.938 . S
Zn27 O35 1.906 . S
Zn27 O45 1.953 . S
Zn28 O25 1.945 . S
Zn28 O30 1.932 . S
Zn28 O37 1.977 . S
Zn28 O38 1.910 . S
O29 Zn26 1.933 . S
O29 C40 1.226 . S
O30 Zn28 1.932 . S
O30 C40 1.307 . S
O31 Zn24 1.919 . S
O31 C42 1.253 . S
O32 Zn26 1.941 . S
O32 C42 1.283 . S
O33 Zn26 1.965 . S
O33 C41 1.303 . S
O34 Zn27 1.938 . S
O34 C41 1.247 . S
O35 Zn27 1.906 . S
O35 C43 1.304 . S
O36 Zn24 1.924 . S
O36 C44 1.311 . S
O37 Zn28 1.977 . S
O37 C43 1.272 . S
O38 Zn28 1.910 . S
O38 C44 1.231 . S
C39 O23 1.225 . S
C39 O45 1.298 . S
C40 O29 1.226 . S
C40 O30 1.307 . S
C41 O33 1.303 . S
C41 O34 1.247 . S
C42 O31 1.253 . S
C42 O32 1.283 . S
C43 O35 1.304 . S
C43 O37 1.272 . S
C44 O36 1.311 . S
C44 O38 1.231 . S
O45 Zn27 1.953 . S
O45 C39 1.298 . S
O46 Zn47 1.953 . S
O46 C62 1.225 . S
Zn47 O46 1.953 . S
Zn47 O48 1.949 . S
Zn47 O54 1.919 . S
Zn47 O59 1.924 . S
O48 Zn47 1.949 . S
O48 Zn49 1.923 . S
O48 Zn50 1.950 . S
O48 Zn51 1.945 . S
Zn49 O48 1.923 . S
Zn49 O52 1.933 . S
Zn49 O55 1.941 . S
Zn49 O56 1.965 1_655 S
Zn50 O48 1.950 . S
Zn50 O57 1.938 1_655 S
Zn50 O58 1.906 1_655 S
Zn50 O68 1.953 . S
Zn51 O48 1.945 . S
Zn51 O53 1.932 . S
Zn51 O60 1.977 . S
Zn51 O61 1.910 . S
O52 Zn49 1.933 . S
O52 C63 1.226 . S
O53 Zn51 1.932 . S
O53 C63 1.307 . S
O54 Zn47 1.919 . S
O54 C65 1.253 . S
O55 Zn49 1.941 . S
O55 C65 1.283 . S
O56 Zn49 1.965 1_455 S
O56 C64 1.303 . S
O57 Zn50 1.938 1_455 S
O57 C64 1.247 . S
O58 Zn50 1.906 1_455 S
O58 C66 1.304 . S
O59 Zn47 1.924 . S
O59 C67 1.311 . S
O60 Zn51 1.977 . S
O60 C66 1.272 1_655 S
O61 Zn51 1.910 . S
O61 C67 1.231 . S
C62 O46 1.225 . S
C62 O68 1.298 . S
C63 O52 1.226 . S
C63 O53 1.307 . S
C64 O56 1.303 . S
C64 O57 1.247 . S
C65 O54 1.253 . S
C65 O55 1.283 . S
C66 O58 1.304 . S
C66 O60 1.272 1_455 S
C67 O59 1.311 . S
C67 O61 1.231 . S
O68 Zn50 1.953 . S
O68 C62 1.298 . S
O69 Zn70 1.953 . S
O69 C85 1.225 . S
Zn70 O69 1.953 . S
Zn70 O71 1.949 . S
Zn70 O77 1.919 . S
Zn70 O82 1.924 . S
O71 Zn70 1.949 . S
O71 Zn72 1.923 . S
O71 Zn73 1.950 . S
O71 Zn74 1.945 . S
Zn72 O71 1.923 . S
Zn72 O75 1.933 . S
Zn72 O78 1.941 . S
Zn72 O79 1.965 . S
Zn73 O71 1.950 . S
Zn73 O80 1.938 . S
Zn73 O81 1.906 . S
Zn73 O91 1.953 . S
Zn74 O71 1.945 . S
Zn74 O76 1.932 . S
Zn74 O83 1.977 . S
Zn74 O84 1.910 . S
O75 Zn72 1.933 . S
O75 C86 1.226 . S
O76 Zn74 1.932 . S
O76 C86 1.307 . S
O77 Zn70 1.919 . S
O77 C88 1.253 . S
O78 Zn72 1.941 . S
O78 C88 1.283 . S
O79 Zn72 1.965 . S
O79 C87 1.303 . S
O80 Zn73 1.938 . S
O80 C87 1.247 . S
O81 Zn73 1.906 . S
O81 C89 1.304 . S
O82 Zn70 1.924 . S
O82 C90 1.311 . S
O83 Zn74 1.977 . S
O83 C89 1.272 . S
O84 Zn74 1.910 . S
O84 C90 1.231 . S
C85 O69 1.225 . S
C85 O91 1.298 . S
C86 O75 1.226 . S
C86 O76 1.307 . S
C87 O79 1.303 . S
C87 O80 1.247 . S
C88 O77 1.253 . S
C88 O78 1.283 . S
C89 O81 1.304 . S
C89 O83 1.272 . S
C90 O82 1.311 . S
C90 O84 1.231 . S
O91 Zn73 1.953 . S
O91 C85 1.298 . S
O92 Zn93 1.953 . S
O92 C108 1.225 . S
Zn93 O92 1.953 . S
Zn93 O94 1.949 . S
Zn93 O100 1.919 . S
Zn93 O105 1.924 . S
O94 Zn93 1.949 . S
O94 Zn95 1.923 . S
O94 Zn96 1.950 . S
O94 Zn97 1.945 . S
Zn95 O94 1.923 . S
Zn95 O98 1.933 . S
Zn95 O101 1.941 . S
Zn95 O102 1.965 . S
Zn96 O94 1.950 . S
Zn96 O103 1.938 . S
Zn96 O104 1.906 . S
Zn96 O114 1.953 . S
Zn97 O94 1.945 . S
Zn97 O99 1.932 . S
Zn97 O106 1.977 . S
Zn97 O107 1.910 . S
O98 Zn95 1.933 . S
O98 C109 1.226 . S
O99 Zn97 1.932 . S
O99 C109 1.307 . S
O100 Zn93 1.919 . S
O100 C111 1.253 . S
O101 Zn95 1.941 . S
O101 C111 1.283 . S
O102 Zn95 1.965 . S
O102 C110 1.303 . S
O103 Zn96 1.938 . S
O103 C110 1.247 . S
O104 Zn96 1.906 . S
O104 C112 1.304 . S
O105 Zn93 1.924 . S
O105 C113 1.311 . S
O106 Zn97 1.977 . S
O106 C112 1.272 . S
O107 Zn97 1.910 . S
O107 C113 1.231 . S
C108 O92 1.225 . S
C108 O114 1.298 . S
C109 O98 1.226 . S
C109 O99 1.307 . S
C110 O102 1.303 . S
C110 O103 1.247 . S
C111 O100 1.253 . S
C111 O101 1.283 . S
C112 O104 1.304 . S
C112 O106 1.272 . S
C113 O105 1.311 . S
C113 O107 1.231 . S
O114 Zn96 1.953 . S
O114 C108 1.298 . S
O115 Zn116 1.953 . S
O115 C131 1.225 . S
Zn116 O115 1.953 . S
Zn116 O117 1.949 . S
Zn116 O123 1.919 . S
Zn116 O128 1.924 . S
O117 Zn116 1.949 . S
O117 Zn118 1.923 . S
O117 Zn119 1.950 . S
O117 Zn120 1.945 . S
Zn118 O117 1.923 . S
Zn118 O121 1.933 . S
Zn118 O124 1.941 . S
Zn118 O125 1.965 1_545 S
Zn119 O117 1.950 . S
Zn119 O126 1.938 1_545 S
Zn119 O127 1.906 1_545 S
Zn119 O137 1.953 . S
Zn120 O117 1.945 . S
Zn120 O122 1.932 . S
Zn120 O129 1.977 . S
Zn120 O130 1.910 . S
O121 Zn118 1.933 . S
O121 C132 1.226 . S
O122 Zn120 1.932 . S
O122 C132 1.307 . S
O123 Zn116 1.919 . S
O123 C134 1.253 . S
O124 Zn118 1.941 . S
O124 C134 1.283 . S
O125 Zn118 1.965 1_565 S
O125 C133 1.303 . S
O126 Zn119 1.938 1_565 S
O126 C133 1.247 . S
O127 Zn119 1.906 1_565 S
O127 C135 1.304 . S
O128 Zn116 1.924 . S
O128 C136 1.311 . S
O129 Zn120 1.977 . S
O129 C135 1.272 1_545 S
O130 Zn120 1.910 . S
O130 C136 1.231 . S
C131 O115 1.225 . S
C131 O137 1.298 . S
C132 O121 1.226 . S
C132 O122 1.307 . S
C133 O125 1.303 . S
C133 O126 1.247 . S
C134 O123 1.253 . S
C134 O124 1.283 . S
C135 O127 1.304 . S
C135 O129 1.272 1_565 S
C136 O128 1.311 . S
C136 O130 1.231 . S
O137 Zn119 1.953 . S
O137 C131 1.298 . S
O138 Zn139 1.953 . S
O138 C154 1.225 . S
Zn139 O138 1.953 . S
Zn139 O140 1.949 . S
Zn139 O146 1.919 . S
Zn139 O151 1.924 . S
O140 Zn139 1.949 . S
O140 Zn141 1.923 . S
O140 Zn142 1.950 . S
O140 Zn143 1.945 . S
Zn141 O140 1.923 . S
Zn141 O144 1.933 . S
Zn141 O147 1.941 . S
Zn141 O148 1.965 . S
Zn142 O140 1.950 . S
Zn142 O149 1.938 . S
Zn142 O150 1.906 . S
Zn142 O160 1.953 . S
Zn143 O140 1.945 . S
Zn143 O145 1.932 . S
Zn143 O152 1.977 . S
Zn143 O153 1.910 . S
O144 Zn141 1.933 . S
O144 C155 1.226 . S
O145 Zn143 1.932 . S
O145 C155 1.307 . S
O146 Zn139 1.919 . S
O146 C157 1.253 . S
O147 Zn141 1.941 . S
O147 C157 1.283 . S
O148 Zn141 1.965 . S
O148 C156 1.303 . S
O149 Zn142 1.938 . S
O149 C156 1.247 . S
O150 Zn142 1.906 . S
O150 C158 1.304 . S
O151 Zn139 1.924 . S
O151 C159 1.311 . S
O152 Zn143 1.977 . S
O152 C158 1.272 . S
O153 Zn143 1.910 . S
O153 C159 1.231 . S
C154 O138 1.225 . S
C154 O160 1.298 . S
C155 O144 1.226 . S
C155 O145 1.307 . S
C156 O148 1.303 . S
C156 O149 1.247 . S
C157 O146 1.253 . S
C157 O147 1.283 . S
C158 O150 1.304 . S
C158 O152 1.272 . S
C159 O151 1.311 . S
C159 O153 1.231 . S
O160 Zn142 1.953 . S
O160 C154 1.298 . S
O161 Zn162 1.953 . S
O161 C177 1.225 . S
Zn162 O161 1.953 . S
Zn162 O163 1.949 . S
Zn162 O169 1.919 . S
Zn162 O174 1.924 . S
O163 Zn162 1.949 . S
O163 Zn164 1.923 . S
O163 Zn165 1.950 . S
O163 Zn166 1.945 . S
Zn164 O163 1.923 . S
Zn164 O167 1.933 . S
Zn164 O170 1.941 . S
Zn164 O171 1.965 1_565 S
Zn165 O163 1.950 . S
Zn165 O172 1.938 1_565 S
Zn165 O173 1.906 1_565 S
Zn165 O183 1.953 . S
Zn166 O163 1.945 . S
Zn166 O168 1.932 . S
Zn166 O175 1.977 . S
Zn166 O176 1.910 . S
O167 Zn164 1.933 . S
O167 C178 1.226 . S
O168 Zn166 1.932 . S
O168 C178 1.307 . S
O169 Zn162 1.919 . S
O169 C180 1.253 . S
O170 Zn164 1.941 . S
O170 C180 1.283 . S
O171 Zn164 1.965 1_545 S
O171 C179 1.303 . S
O172 Zn165 1.938 1_545 S
O172 C179 1.247 . S
O173 Zn165 1.906 1_545 S
O173 C181 1.304 . S
O174 Zn162 1.924 . S
O174 C182 1.311 . S
O175 Zn166 1.977 . S
O175 C181 1.272 1_565 S
O176 Zn166 1.910 . S
O176 C182 1.231 . S
C177 O161 1.225 . S
C177 O183 1.298 . S
C178 O167 1.226 . S
C178 O168 1.307 . S
C179 O171 1.303 . S
C179 O172 1.247 . S
C180 O169 1.253 . S
C180 O170 1.283 . S
C181 O173 1.304 . S
C181 O175 1.272 1_545 S
C182 O174 1.311 . S
C182 O176 1.231 . S
O183 Zn165 1.953 . S
O183 C177 1.298 . S
H184 C190 0.930 . S
H185 C193 0.930 1_455 S
H186 C194 0.930 1_455 S
H187 C195 0.930 . S
H188 C198 0.930 . S
H189 C199 0.930 . S
C190 H184 0.930 . S
C190 C191 1.355 . S
C190 C192 1.415 . S
C191 C190 1.355 . S
C191 C193 1.419 . S
C192 C190 1.415 . S
C192 C197 1.425 . S
C192 C199 1.409 . S
C193 H185 0.930 1_655 S
C193 C191 1.419 . S
C193 C194 1.362 . S
C194 H186 0.930 1_655 S
C194 C193 1.362 . S
C194 C197 1.409 . S
C195 H187 0.930 . S
C195 C196 1.355 . S
C195 C197 1.415 . S
C196 C195 1.355 . S
C196 C198 1.419 . S
C197 C192 1.425 . S
C197 C194 1.409 . S
C197 C195 1.415 . S
C198 H188 0.930 . S
C198 C196 1.419 . S
C198 C199 1.362 . S
C199 H189 0.930 . S
C199 C192 1.409 . S
C199 C198 1.362 . S
H200 C206 0.930 . S
H201 C209 0.930 . S
H202 C210 0.930 . S
H203 C211 0.930 . S
H204 C214 0.930 . S
H205 C215 0.930 . S
C206 H200 0.930 . S
C206 C207 1.355 . S
C206 C208 1.415 . S
C207 C206 1.355 . S
C207 C209 1.419 . S
C208 C206 1.415 . S
C208 C213 1.425 . S
C208 C215 1.409 . S
C209 H201 0.930 . S
C209 C207 1.419 . S
C209 C210 1.362 . S
C210 H202 0.930 . S
C210 C209 1.362 . S
C210 C213 1.409 . S
C211 H203 0.930 . S
C211 C212 1.355 . S
C211 C213 1.415 . S
C212 C211 1.355 . S
C212 C214 1.419 . S
C213 C208 1.425 . S
C213 C210 1.409 . S
C213 C211 1.415 . S
C214 H204 0.930 . S
C214 C212 1.419 . S
C214 C215 1.362 . S
C215 H205 0.930 . S
C215 C208 1.409 . S
C215 C214 1.362 . S
H216 C222 0.930 . S
H217 C225 0.930 1_655 S
H218 C226 0.930 1_655 S
H219 C227 0.930 . S
H220 C230 0.930 . S
H221 C231 0.930 . S
C222 H216 0.930 . S
C222 C223 1.355 . S
C222 C224 1.415 . S
C223 C222 1.355 . S
C223 C225 1.419 . S
C224 C222 1.415 . S
C224 C229 1.425 . S
C224 C231 1.409 . S
C225 H217 0.930 1_455 S
C225 C223 1.419 . S
C225 C226 1.362 . S
C226 H218 0.930 1_455 S
C226 C225 1.362 . S
C226 C229 1.409 . S
C227 H219 0.930 . S
C227 C228 1.355 . S
C227 C229 1.415 . S
C228 C227 1.355 . S
C228 C230 1.419 . S
C229 C224 1.425 . S
C229 C226 1.409 . S
C229 C227 1.415 . S
C230 H220 0.930 . S
C230 C228 1.419 . S
C230 C231 1.362 . S
C231 H221 0.930 . S
C231 C224 1.409 . S
C231 C230 1.362 . S
H232 C238 0.930 . S
H233 C241 0.930 . S
H234 C242 0.938 . S
H235 C243 0.930 . S
H236 C246 0.930 . S
H237 C247 0.938 . S
C238 H232 0.930 . S
C238 C239 1.355 . S
C238 C240 1.415 . S
C239 C238 1.355 . S
C239 C241 1.419 . S
C240 C238 1.415 . S
C240 C245 1.425 1_554 S
C240 C247 1.409 1_554 S
C241 H233 0.930 . S
C241 C239 1.419 . S
C241 C242 1.362 . S
C242 H234 0.938 . S
C242 C241 1.362 . S
C242 C245 1.409 1_554 S
C243 H235 0.930 . S
C243 C244 1.355 . S
C243 C245 1.415 . S
C244 C243 1.355 . S
C244 C246 1.419 . S
C245 C240 1.425 1_556 S
C245 C242 1.409 1_556 S
C245 C243 1.415 . S
C246 H236 0.930 . S
C246 C244 1.419 . S
C246 C247 1.362 . S
C247 H237 0.938 . S
C247 C240 1.409 1_556 S
C247 C246 1.362 . S
H248 C254 0.930 . S
H249 C257 0.930 . S
H250 C258 0.930 . S
H251 C259 0.930 . S
H252 C262 0.930 . S
H253 C263 0.930 . S
C254 H248 0.930 . S
C254 C255 1.355 . S
C254 C256 1.415 . S
C255 C254 1.355 . S
C255 C257 1.419 . S
C256 C254 1.415 . S
C256 C261 1.425 . S
C256 C263 1.409 . S
C257 H249 0.930 . S
C257 C255 1.419 . S
C257 C258 1.362 . S
C258 H250 0.930 . S
C258 C257 1.362 . S
C258 C261 1.409 . S
C259 H251 0.930 . S
C259 C260 1.355 . S
C259 C261 1.415 . S
C260 C259 1.355 . S
C260 C262 1.419 . S
C261 C256 1.425 . S
C261 C258 1.409 . S
C261 C259 1.415 . S
C262 H252 0.930 . S
C262 C260 1.419 . S
C262 C263 1.362 . S
C263 H253 0.930 . S
C263 C256 1.409 . S
C263 C262 1.362 . S
H264 C270 0.930 . S
H265 C273 0.930 . S
H266 C274 0.930 . S
H267 C275 0.930 . S
H268 C278 0.930 . S
H269 C279 0.930 . S
C270 H264 0.930 . S
C270 C271 1.355 . S
C270 C272 1.415 . S
C271 C270 1.355 . S
C271 C273 1.419 . S
C272 C270 1.415 . S
C272 C277 1.425 . S
C272 C279 1.409 . S
C273 H265 0.930 . S
C273 C271 1.419 . S
C273 C274 1.362 . S
C274 H266 0.930 . S
C274 C273 1.362 . S
C274 C277 1.409 . S
C275 H267 0.930 . S
C275 C276 1.355 . S
C275 C277 1.415 . S
C276 C275 1.355 . S
C276 C278 1.419 . S
C277 C272 1.425 . S
C277 C274 1.409 . S
C277 C275 1.415 . S
C278 H268 0.930 . S
C278 C276 1.419 . S
C278 C279 1.362 . S
C279 H269 0.930 . S
C279 C272 1.409 . S
C279 C278 1.362 . S
H280 C286 0.930 . S
H281 C289 0.930 . S
H282 C290 0.930 . S
H283 C291 0.930 . S
H284 C294 0.930 . S
H285 C295 0.930 . S
C286 H280 0.930 . S
C286 C287 1.355 . S
C286 C288 1.415 . S
C287 C286 1.355 . S
C287 C289 1.419 . S
C288 C286 1.415 . S
C288 C293 1.425 . S
C288 C295 1.409 . S
C289 H281 0.930 . S
C289 C287 1.419 . S
C289 C290 1.362 . S
C290 H282 0.930 . S
C290 C289 1.362 . S
C290 C293 1.409 . S
C291 H283 0.930 . S
C291 C292 1.355 . S
C291 C293 1.415 . S
C292 C291 1.355 . S
C292 C294 1.419 . S
C293 C288 1.425 . S
C293 C290 1.409 . S
C293 C291 1.415 . S
C294 H284 0.930 . S
C294 C292 1.419 . S
C294 C295 1.362 . S
C295 H285 0.930 . S
C295 C288 1.409 . S
C295 C294 1.362 . S
H296 C302 0.930 . S
H297 C305 0.930 . S
H298 C306 0.930 . S
H299 C307 0.930 . S
H300 C310 0.930 . S
H301 C311 0.934 . S
C302 H296 0.930 . S
C302 C303 1.355 . S
C302 C304 1.415 . S
C303 C302 1.355 . S
C303 C305 1.419 . S
C304 C302 1.415 . S
C304 C309 1.425 . S
C304 C311 1.409 . S
C305 H297 0.930 . S
C305 C303 1.419 . S
C305 C306 1.362 . S
C306 H298 0.930 . S
C306 C305 1.362 . S
C306 C309 1.409 . S
C307 H299 0.930 . S
C307 C308 1.355 1_554 S
C307 C309 1.415 . S
C308 C307 1.355 1_556 S
C308 C310 1.419 . S
C309 C304 1.425 . S
C309 C306 1.409 . S
C309 C307 1.415 . S
C310 H300 0.930 . S
C310 C308 1.419 . S
C310 C311 1.362 1_556 S
C311 H301 0.934 . S
C311 C304 1.409 . S
C311 C310 1.362 1_554 S
H312 C318 0.930 . S
H313 C321 0.930 . S
H314 C322 0.930 . S
H315 C323 0.930 . S
H316 C326 0.930 . S
H317 C327 0.930 . S
C318 H312 0.930 . S
C318 C319 1.355 . S
C318 C320 1.415 . S
C319 C318 1.355 . S
C319 C321 1.419 . S
C320 C318 1.415 . S
C320 C325 1.425 . S
C320 C327 1.409 . S
C321 H313 0.930 . S
C321 C319 1.419 . S
C321 C322 1.362 . S
C322 H314 0.930 . S
C322 C321 1.362 . S
C322 C325 1.409 . S
C323 H315 0.930 . S
C323 C324 1.355 . S
C323 C325 1.415 . S
C324 C323 1.355 . S
C324 C326 1.419 . S
C325 C320 1.425 . S
C325 C322 1.409 . S
C325 C323 1.415 . S
C326 H316 0.930 . S
C326 C324 1.419 . S
C326 C327 1.362 . S
C327 H317 0.930 . S
C327 C320 1.409 . S
C327 C326 1.362 . S
H328 C334 0.930 . S
H329 C337 0.930 . S
H330 C338 0.930 . S
H331 C339 0.930 . S
H332 C342 0.930 . S
H333 C343 0.930 . S
C334 H328 0.930 . S
C334 C335 1.355 . S
C334 C336 1.415 . S
C335 C334 1.355 . S
C335 C337 1.419 . S
C336 C334 1.415 . S
C336 C341 1.425 . S
C336 C343 1.409 . S
C337 H329 0.930 . S
C337 C335 1.419 . S
C337 C338 1.362 . S
C338 H330 0.930 . S
C338 C337 1.362 . S
C338 C341 1.409 . S
C339 H331 0.930 . S
C339 C340 1.355 . S
C339 C341 1.415 . S
C340 C339 1.355 . S
C340 C342 1.419 . S
C341 C336 1.425 . S
C341 C338 1.409 . S
C341 C339 1.415 . S
C342 H332 0.930 . S
C342 C340 1.419 . S
C342 C343 1.362 . S
C343 H333 0.930 . S
C343 C336 1.409 . S
C343 C342 1.362 . S
H344 C350 0.930 . S
H345 C353 0.930 . S
H346 C354 0.930 . S
H347 C355 0.930 . S
H348 C358 0.930 . S
H349 C359 0.930 . S
C350 H344 0.930 . S
C350 C351 1.355 1_556 S
C350 C352 1.415 . S
C351 C350 1.355 1_554 S
C351 C353 1.419 . S
C352 C350 1.415 . S
C352 C357 1.425 . S
C352 C359 1.409 . S
C353 H345 0.930 . S
C353 C351 1.419 . S
C353 C354 1.362 1_554 S
C354 H346 0.930 . S
C354 C353 1.362 1_556 S
C354 C357 1.409 . S
C355 H347 0.930 . S
C355 C356 1.355 . S
C355 C357 1.415 . S
C356 C355 1.355 . S
C356 C358 1.419 . S
C357 C352 1.425 . S
C357 C354 1.409 . S
C357 C355 1.415 . S
C358 H348 0.930 . S
C358 C356 1.419 . S
C358 C359 1.362 . S
C359 H349 0.930 . S
C359 C352 1.409 . S
C359 C358 1.362 . S
H360 C366 0.930 . S
H361 C369 0.930 . S
H362 C370 0.930 . S
H363 C371 0.930 . S
H364 C374 0.930 . S
H365 C375 0.930 . S
C366 H360 0.930 . S
C366 C367 1.355 . S
C366 C368 1.415 . S
C367 C366 1.355 . S
C367 C369 1.419 . S
C368 C366 1.415 . S
C368 C373 1.425 . S
C368 C375 1.409 . S
C369 H361 0.930 . S
C369 C367 1.419 . S
C369 C370 1.362 . S
C370 H362 0.930 . S
C370 C369 1.362 . S
C370 C373 1.409 . S
C371 H363 0.930 . S
C371 C372 1.355 . S
C371 C373 1.415 . S
C372 C371 1.355 . S
C372 C374 1.419 . S
C373 C368 1.425 . S
C373 C370 1.409 . S
C373 C371 1.415 . S
C374 H364 0.930 . S
C374 C372 1.419 . S
C374 C375 1.362 . S
C375 H365 0.930 . S
C375 C368 1.409 . S
C375 C374 1.362 . S
H376 C382 0.930 . S
H377 C385 0.930 . S
H378 C386 0.930 . S
H379 C387 0.930 . S
H380 C390 0.930 . S
H381 C391 0.930 . S
C382 H376 0.930 . S
C382 C383 1.355 . S
C382 C384 1.415 1_556 S
C383 C382 1.355 . S
C383 C385 1.419 . S
C384 C382 1.415 1_554 S
C384 C389 1.425 1_554 S
C384 C391 1.409 . S
C385 H377 0.930 . S
C385 C383 1.419 . S
C385 C386 1.362 . S
C386 H378 0.930 . S
C386 C385 1.362 . S
C386 C389 1.409 . S
C387 H379 0.930 . S
C387 C388 1.355 . S
C387 C389 1.415 1_554 S
C388 C387 1.355 . S
C388 C390 1.419 . S
C389 C384 1.425 1_556 S
C389 C386 1.409 . S
C389 C387 1.415 1_556 S
C390 H380 0.930 . S
C390 C388 1.419 . S
C390 C391 1.362 . S
C391 H381 0.930 . S
C391 C384 1.409 . S
C391 C390 1.362 . S
H392 C398 0.930 . S
H393 C401 0.930 . S
H394 C402 0.930 . S
H395 C403 0.930 . S
H396 C406 0.930 . S
H397 C407 0.930 . S
C398 H392 0.930 . S
C398 C399 1.355 . S
C398 C400 1.415 . S
C399 C398 1.355 . S
C399 C401 1.419 . S
C400 C398 1.415 . S
C400 C405 1.425 . S
C400 C407 1.409 . S
C401 H393 0.930 . S
C401 C399 1.419 . S
C401 C402 1.362 . S
C402 H394 0.930 . S
C402 C401 1.362 . S
C402 C405 1.409 . S
C403 H395 0.930 . S
C403 C404 1.355 . S
C403 C405 1.415 . S
C404 C403 1.355 . S
C404 C406 1.419 . S
C405 C400 1.425 . S
C405 C402 1.409 . S
C405 C403 1.415 . S
C406 H396 0.930 . S
C406 C404 1.419 . S
C406 C407 1.362 . S
C407 H397 0.930 . S
C407 C400 1.409 . S
C407 C406 1.362 . S
H408 C414 0.930 . S
H409 C417 0.930 . S
H410 C418 0.930 . S
H411 C419 0.930 . S
H412 C422 0.930 1_455 S
H413 C423 0.930 . S
C414 H408 0.930 . S
C414 C415 1.355 . S
C414 C416 1.415 . S
C415 C414 1.355 . S
C415 C417 1.419 . S
C416 C414 1.415 . S
C416 C421 1.425 . S
C416 C423 1.409 . S
C417 H409 0.930 . S
C417 C415 1.419 . S
C417 C418 1.362 . S
C418 H410 0.930 . S
C418 C417 1.362 . S
C418 C421 1.409 . S
C419 H411 0.930 . S
C419 C420 1.355 . S
C419 C421 1.415 . S
C420 C419 1.355 . S
C420 C422 1.419 . S
C421 C416 1.425 . S
C421 C418 1.409 . S
C421 C419 1.415 . S
C422 H412 0.930 1_655 S
C422 C420 1.419 . S
C422 C423 1.362 . S
C423 H413 0.930 . S
C423 C416 1.409 . S
C423 C422 1.362 . S
H424 C430 0.930 . S
H425 C433 0.930 . S
H426 C434 0.930 . S
H427 C435 0.930 . S
H428 C438 0.930 . S
H429 C439 0.930 . S
C430 H424 0.930 . S
C430 C431 1.355 . S
C430 C432 1.415 . S
C431 C430 1.355 . S
C431 C433 1.419 . S
C432 C430 1.415 . S
C432 C437 1.425 . S
C432 C439 1.409 . S
C433 H425 0.930 . S
C433 C431 1.419 . S
C433 C434 1.362 . S
C434 H426 0.930 . S
C434 C433 1.362 . S
C434 C437 1.409 . S
C435 H427 0.930 . S
C435 C436 1.355 . S
C435 C437 1.415 . S
C436 C435 1.355 . S
C436 C438 1.419 . S
C437 C432 1.425 . S
C437 C434 1.409 . S
C437 C435 1.415 . S
C438 H428 0.930 . S
C438 C436 1.419 . S
C438 C439 1.362 . S
C439 H429 0.930 . S
C439 C432 1.409 . S
C439 C438 1.362 . S
H440 C446 0.930 . S
H441 C449 0.930 . S
H442 C450 0.930 . S
H443 C451 0.930 . S
H444 C454 0.930 . S
H445 C455 0.930 . S
C446 H440 0.930 . S
C446 C447 1.355 . S
C446 C448 1.415 1_545 S
C447 C446 1.355 . S
C447 C449 1.419 . S
C448 C446 1.415 1_565 S
C448 C453 1.425 1_565 S
C448 C455 1.409 . S
C449 H441 0.930 . S
C449 C447 1.419 . S
C449 C450 1.362 . S
C450 H442 0.930 . S
C450 C449 1.362 . S
C450 C453 1.409 . S
C451 H443 0.930 . S
C451 C452 1.355 . S
C451 C453 1.415 1_565 S
C452 C451 1.355 . S
C452 C454 1.419 . S
C453 C448 1.425 1_545 S
C453 C450 1.409 . S
C453 C451 1.415 1_545 S
C454 H444 0.930 . S
C454 C452 1.419 . S
C454 C455 1.362 . S
C455 H445 0.930 . S
C455 C448 1.409 . S
C455 C454 1.362 . S
H456 C462 0.930 . S
H457 C465 0.930 . S
H458 C466 0.930 . S
H459 C467 0.930 . S
H460 C470 0.930 . S
H461 C471 0.930 . S
C462 H456 0.930 . S
C462 C463 1.355 . S
C462 C464 1.415 . S
C463 C462 1.355 . S
C463 C465 1.419 . S
C464 C462 1.415 . S
C464 C469 1.425 . S
C464 C471 1.409 . S
C465 H457 0.930 . S
C465 C463 1.419 . S
C465 C466 1.362 . S
C466 H458 0.930 . S
C466 C465 1.362 . S
C466 C469 1.409 . S
C467 H459 0.930 . S
C467 C468 1.355 . S
C467 C469 1.415 . S
C468 C467 1.355 . S
C468 C470 1.419 . S
C469 C464 1.425 . S
C469 C466 1.409 . S
C469 C467 1.415 . S
C470 H460 0.930 . S
C470 C468 1.419 . S
C470 C471 1.362 . S
C471 H461 0.930 . S
C471 C464 1.409 . S
C471 C470 1.362 . S
H472 C478 0.930 . S
H473 C481 0.930 . S
H474 C482 0.930 . S
H475 C483 0.930 . S
H476 C486 0.930 . S
H477 C487 0.930 . S
C478 H472 0.930 . S
C478 C479 1.355 . S
C478 C480 1.415 1_545 S
C479 C478 1.355 . S
C479 C481 1.419 . S
C480 C478 1.415 1_565 S
C480 C485 1.425 1_565 S
C480 C487 1.409 . S
C481 H473 0.930 . S
C481 C479 1.419 . S
C481 C482 1.362 . S
C482 H474 0.930 . S
C482 C481 1.362 . S
C482 C485 1.409 . S
C483 H475 0.930 . S
C483 C484 1.355 . S
C483 C485 1.415 1_565 S
C484 C483 1.355 . S
C484 C486 1.419 . S
C485 C480 1.425 1_545 S
C485 C482 1.409 . S
C485 C483 1.415 1_545 S
C486 H476 0.930 . S
C486 C484 1.419 . S
C486 C487 1.362 . S
C487 H477 0.930 . S
C487 C480 1.409 . S
C487 C486 1.362 . S
H488 C494 0.930 . S
H489 C497 0.930 . S
H490 C498 0.930 . S
H491 C499 0.930 . S
H492 C502 0.930 . S
H493 C503 0.930 . S
C494 H488 0.930 . S
C494 C495 1.355 . S
C494 C496 1.415 . S
C495 C494 1.355 . S
C495 C497 1.419 . S
C496 C494 1.415 . S
C496 C501 1.425 . S
C496 C503 1.409 . S
C497 H489 0.930 . S
C497 C495 1.419 . S
C497 C498 1.362 . S
C498 H490 0.930 . S
C498 C497 1.362 . S
C498 C501 1.409 . S
C499 H491 0.930 . S
C499 C500 1.355 . S
C499 C501 1.415 . S
C500 C499 1.355 . S
C500 C502 1.419 . S
C501 C496 1.425 . S
C501 C498 1.409 . S
C501 C499 1.415 . S
C502 H492 0.930 . S
C502 C500 1.419 . S
C502 C503 1.362 . S
C503 H493 0.930 . S
C503 C496 1.409 . S
C503 C502 1.362 . S
H504 C510 0.930 . S
H505 C513 0.930 . S
H506 C514 0.930 . S
H507 C515 0.930 . S
H508 C518 0.930 . S
H509 C519 0.930 . S
C510 H504 0.930 . S
C510 C511 1.355 . S
C510 C512 1.415 . S
C511 C510 1.355 . S
C511 C513 1.419 . S
C512 C510 1.415 . S
C512 C517 1.425 . S
C512 C519 1.409 . S
C513 H505 0.930 . S
C513 C511 1.419 . S
C513 C514 1.362 . S
C514 H506 0.930 . S
C514 C513 1.362 . S
C514 C517 1.409 . S
C515 H507 0.930 . S
C515 C516 1.355 . S
C515 C517 1.415 . S
C516 C515 1.355 . S
C516 C518 1.419 . S
C517 C512 1.425 . S
C517 C514 1.409 . S
C517 C515 1.415 . S
C518 H508 0.930 . S
C518 C516 1.419 . S
C518 C519 1.362 . S
C519 H509 0.930 . S
C519 C512 1.409 . S
C519 C518 1.362 . S
H520 C526 0.930 . S
H521 C529 0.930 . S
H522 C530 0.930 . S
H523 C531 0.930 . S
H524 C534 0.930 . S
H525 C535 0.930 . S
C526 H520 0.930 . S
C526 C527 1.355 . S
C526 C528 1.415 1_455 S
C527 C526 1.355 . S
C527 C529 1.419 . S
C528 C526 1.415 1_655 S
C528 C533 1.423 1_655 S
C528 C535 1.409 . S
C529 H521 0.930 . S
C529 C527 1.419 . S
C529 C530 1.362 . S
C530 H522 0.930 . S
C530 C529 1.362 . S
C530 C533 1.428 . S
C531 H523 0.930 . S
C531 C532 1.355 . S
C531 C533 1.399 1_655 S
C532 C531 1.355 . S
C532 C534 1.419 . S
C533 C528 1.423 1_455 S
C533 C530 1.428 . S
C533 C531 1.399 1_455 S
C534 H524 0.930 . S
C534 C532 1.419 . S
C534 C535 1.362 . S
C535 H525 0.930 . S
C535 C528 1.409 . S
C535 C534 1.362 . S
H536 C542 0.930 . S
H537 C545 0.930 . S
H538 C546 0.930 . S
H539 C547 0.930 . S
H540 C550 0.930 . S
H541 C551 0.930 . S
C542 H536 0.930 . S
C542 C543 1.355 . S
C542 C544 1.415 . S
C543 C542 1.355 . S
C543 C545 1.419 . S
C544 C542 1.415 . S
C544 C549 1.425 . S
C544 C551 1.409 . S
C545 H537 0.930 . S
C545 C543 1.419 . S
C545 C546 1.362 . S
C546 H538 0.930 . S
C546 C545 1.362 . S
C546 C549 1.409 . S
C547 H539 0.930 . S
C547 C548 1.355 . S
C547 C549 1.415 . S
C548 C547 1.355 . S
C548 C550 1.419 . S
C549 C544 1.425 . S
C549 C546 1.409 . S
C549 C547 1.415 . S
C550 H540 0.930 . S
C550 C548 1.419 . S
C550 C551 1.362 . S
C551 H541 0.930 . S
C551 C544 1.409 . S
C551 C550 1.362 . S
H552 C558 0.930 . S
H553 C561 0.930 . S
H554 C562 0.930 . S
H555 C563 0.930 . S
H556 C566 0.930 . S
H557 C567 0.930 . S
C558 H552 0.930 . S
C558 C559 1.355 . S
C558 C560 1.415 1_655 S
C559 C558 1.355 . S
C559 C561 1.419 . S
C560 C558 1.415 1_455 S
C560 C565 1.425 1_455 S
C560 C567 1.409 . S
C561 H553 0.930 . S
C561 C559 1.419 . S
C561 C562 1.362 . S
C562 H554 0.930 . S
C562 C561 1.362 . S
C562 C565 1.409 . S
C563 H555 0.930 . S
C563 C564 1.355 . S
C563 C565 1.415 1_455 S
C564 C563 1.355 . S
C564 C566 1.419 . S
C565 C560 1.425 1_655 S
C565 C562 1.409 . S
C565 C563 1.415 1_655 S
C566 H556 0.930 . S
C566 C564 1.419 . S
C566 C567 1.362 . S
C567 H557 0.930 . S
C567 C560 1.409 . S
C567 C566 1.362 . S
C191 C18 1.251 . S
C196 C181 1.223 . S
C207 C43 1.251 . S
C212 C110 1.264 . S
C223 C64 1.272 . S
C228 C133 1.255 . S
C239 C156 1.277 . S
C244 C87 1.255 . S
C255 C16 1.359 . S
C260 C41 1.354 . S
C271 C66 1.285 . S
C276 C40 1.266 . S
C287 C89 1.319 . S
C292 C62 1.350 . S
C303 C20 1.341 . S
C308 C85 1.298 . S
C319 C108 1.358 . S
C324 C179 1.355 . S
C335 C131 1.305 . S
C340 C112 1.344 . S
C351 C154 1.340 . S
C356 C135 1.348 . S
C367 C158 1.253 . S
C372 C178 1.307 . S
C383 C132 0.956 . S
C388 C17 0.937 . S
C399 C155 0.976 . S
C404 C39 1.030 . S
C415 C177 0.969 . S
C420 C63 1.035 . S
C431 C109 0.948 . S
C436 C86 0.942 . S
C447 C19 1.881 . S
C452 C159 1.886 . S
C463 C44 1.853 . S
C468 C180 1.811 . S
C479 C113 1.821 . S
C484 C65 1.821 . S
C495 C136 1.862 . S
C500 C88 1.858 . S
C511 C67 1.875 . S
C516 C111 1.868 . S
C527 C134 1.856 . S
C532 C90 1.858 . S
C543 C157 1.823 . S
C548 C21 1.829 . S
C559 C182 1.866 . S
C564 C42 1.842 . S
