# Generated by pormake.
# Topology wln, (5)-cn, num edge types: 1
# Building blocks:
#     Node 0, Type 0, BuildingBlock: XOMCOT_clean_sbu_0, # of connection points: 5
#     Node 1, Type 0, BuildingBlock: XOMCOT_clean_sbu_0, # of connection points: 5
#     Node 2, Type 0, BuildingBlock: XOMCOT_clean_sbu_0, # of connection points: 5
#     Node 3, Type 0, BuildingBlock: XOMCOT_clean_sbu_0, # of connection points: 5
#     Node 4, Type 0, BuildingBlock: XOMCOT_clean_sbu_0, # of connection points: 5
#     Node 5, Type 0, BuildingBlock: XOMCOT_clean_sbu_0, # of connection points: 5
#     Node 6, Type 0, BuildingBlock: XOMCOT_clean_sbu_0, # of connection points: 5
#     Node 7, Type 0, BuildingBlock: XOMCOT_clean_sbu_0, # of connection points: 5
#     Node 8, Type 0, BuildingBlock: XOMCOT_clean_sbu_0, # of connection points: 5
#     Node 9, Type 0, BuildingBlock: XOMCOT_clean_sbu_0, # of connection points: 5
#     Node 10, Type 0, BuildingBlock: XOMCOT_clean_sbu_0, # of connection points: 5
#     Node 11, Type 0, BuildingBlock: XOMCOT_clean_sbu_0, # of connection points: 5
#     Node 12, Type 0, BuildingBlock: XOMCOT_clean_sbu_0, # of connection points: 5
#     Node 13, Type 0, BuildingBlock: XOMCOT_clean_sbu_0, # of connection points: 5
#     Node 14, Type 0, BuildingBlock: XOMCOT_clean_sbu_0, # of connection points: 5
#     Node 15, Type 0, BuildingBlock: XOMCOT_clean_sbu_0, # of connection points: 5
#     Node 16, Type 0, BuildingBlock: XOMCOT_clean_sbu_0, # of connection points: 5
#     Node 17, Type 0, BuildingBlock: XOMCOT_clean_sbu_0, # of connection points: 5
#     Node 18, Type 0, BuildingBlock: XOMCOT_clean_sbu_0, # of connection points: 5
#     Node 19, Type 0, BuildingBlock: XOMCOT_clean_sbu_0, # of connection points: 5
#     Node 20, Type 0, BuildingBlock: XOMCOT_clean_sbu_0, # of connection points: 5
#     Node 21, Type 0, BuildingBlock: XOMCOT_clean_sbu_0, # of connection points: 5
#     Node 22, Type 0, BuildingBlock: XOMCOT_clean_sbu_0, # of connection points: 5
#     Node 23, Type 0, BuildingBlock: XOMCOT_clean_sbu_0, # of connection points: 5
#     Node 24, Type 0, BuildingBlock: XOMCOT_clean_sbu_0, # of connection points: 5
#     Node 25, Type 0, BuildingBlock: XOMCOT_clean_sbu_0, # of connection points: 5
#     Node 26, Type 0, BuildingBlock: XOMCOT_clean_sbu_0, # of connection points: 5
#     Node 27, Type 0, BuildingBlock: XOMCOT_clean_sbu_0, # of connection points: 5
#     Node 28, Type 0, BuildingBlock: XOMCOT_clean_sbu_0, # of connection points: 5
#     Node 29, Type 0, BuildingBlock: XOMCOT_clean_sbu_0, # of connection points: 5
#     Node 30, Type 0, BuildingBlock: XOMCOT_clean_sbu_0, # of connection points: 5
#     Node 31, Type 0, BuildingBlock: XOMCOT_clean_sbu_0, # of connection points: 5
#     Node 32, Type 0, BuildingBlock: XOMCOT_clean_sbu_0, # of connection points: 5
#     Node 33, Type 0, BuildingBlock: XOMCOT_clean_sbu_0, # of connection points: 5
#     Node 34, Type 0, BuildingBlock: XOMCOT_clean_sbu_0, # of connection points: 5
#     Node 35, Type 0, BuildingBlock: XOMCOT_clean_sbu_0, # of connection points: 5
#     Edge 36, Type (0, 0), BuildingBlock: OJICUG_clean_linker_0, # of connection points: 2
#     Edge 37, Type (0, 0), BuildingBlock: OJICUG_clean_linker_0, # of connection points: 2
#     Edge 38, Type (0, 0), BuildingBlock: OJICUG_clean_linker_0, # of connection points: 2
#     Edge 39, Type (0, 0), BuildingBlock: OJICUG_clean_linker_0, # of connection points: 2
#     Edge 40, Type (0, 0), BuildingBlock: OJICUG_clean_linker_0, # of connection points: 2
#     Edge 41, Type (0, 0), BuildingBlock: OJICUG_clean_linker_0, # of connection points: 2
#     Edge 42, Type (0, 0), BuildingBlock: OJICUG_clean_linker_0, # of connection points: 2
#     Edge 43, Type (0, 0), BuildingBlock: OJICUG_clean_linker_0, # of connection points: 2
#     Edge 44, Type (0, 0), BuildingBlock: OJICUG_clean_linker_0, # of connection points: 2
#     Edge 45, Type (0, 0), BuildingBlock: OJICUG_clean_linker_0, # of connection points: 2
#     Edge 46, Type (0, 0), BuildingBlock: OJICUG_clean_linker_0, # of connection points: 2
#     Edge 47, Type (0, 0), BuildingBlock: OJICUG_clean_linker_0, # of connection points: 2
#     Edge 48, Type (0, 0), BuildingBlock: OJICUG_clean_linker_0, # of connection points: 2
#     Edge 49, Type (0, 0), BuildingBlock: OJICUG_clean_linker_0, # of connection points: 2
#     Edge 50, Type (0, 0), BuildingBlock: OJICUG_clean_linker_0, # of connection points: 2
#     Edge 51, Type (0, 0), BuildingBlock: OJICUG_clean_linker_0, # of connection points: 2
#     Edge 52, Type (0, 0), BuildingBlock: OJICUG_clean_linker_0, # of connection points: 2
#     Edge 53, Type (0, 0), BuildingBlock: OJICUG_clean_linker_0, # of connection points: 2
#     Edge 54, Type (0, 0), BuildingBlock: OJICUG_clean_linker_0, # of connection points: 2
#     Edge 55, Type (0, 0), BuildingBlock: OJICUG_clean_linker_0, # of connection points: 2
#     Edge 56, Type (0, 0), BuildingBlock: OJICUG_clean_linker_0, # of connection points: 2
#     Edge 57, Type (0, 0), BuildingBlock: OJICUG_clean_linker_0, # of connection points: 2
#     Edge 58, Type (0, 0), BuildingBlock: OJICUG_clean_linker_0, # of connection points: 2
#     Edge 59, Type (0, 0), BuildingBlock: OJICUG_clean_linker_0, # of connection points: 2
#     Edge 60, Type (0, 0), BuildingBlock: OJICUG_clean_linker_0, # of connection points: 2
#     Edge 61, Type (0, 0), BuildingBlock: OJICUG_clean_linker_0, # of connection points: 2
#     Edge 62, Type (0, 0), BuildingBlock: OJICUG_clean_linker_0, # of connection points: 2
#     Edge 63, Type (0, 0), BuildingBlock: OJICUG_clean_linker_0, # of connection points: 2
#     Edge 64, Type (0, 0), BuildingBlock: OJICUG_clean_linker_0, # of connection points: 2
#     Edge 65, Type (0, 0), BuildingBlock: OJICUG_clean_linker_0, # of connection points: 2
#     Edge 66, Type (0, 0), BuildingBlock: OJICUG_clean_linker_0, # of connection points: 2
#     Edge 67, Type (0, 0), BuildingBlock: OJICUG_clean_linker_0, # of connection points: 2
#     Edge 68, Type (0, 0), BuildingBlock: OJICUG_clean_linker_0, # of connection points: 2
#     Edge 69, Type (0, 0), BuildingBlock: OJICUG_clean_linker_0, # of connection points: 2
#     Edge 70, Type (0, 0), BuildingBlock: OJICUG_clean_linker_0, # of connection points: 2
#     Edge 71, Type (0, 0), BuildingBlock: OJICUG_clean_linker_0, # of connection points: 2
#     Edge 72, Type (0, 0), BuildingBlock: OJICUG_clean_linker_0, # of connection points: 2
#     Edge 73, Type (0, 0), BuildingBlock: OJICUG_clean_linker_0, # of connection points: 2
#     Edge 74, Type (0, 0), BuildingBlock: OJICUG_clean_linker_0, # of connection points: 2
#     Edge 75, Type (0, 0), BuildingBlock: OJICUG_clean_linker_0, # of connection points: 2
#     Edge 76, Type (0, 0), BuildingBlock: OJICUG_clean_linker_0, # of connection points: 2
#     Edge 77, Type (0, 0), BuildingBlock: OJICUG_clean_linker_0, # of connection points: 2
#     Edge 78, Type (0, 0), BuildingBlock: OJICUG_clean_linker_0, # of connection points: 2
#     Edge 79, Type (0, 0), BuildingBlock: OJICUG_clean_linker_0, # of connection points: 2
#     Edge 80, Type (0, 0), BuildingBlock: OJICUG_clean_linker_0, # of connection points: 2
#     Edge 81, Type (0, 0), BuildingBlock: OJICUG_clean_linker_0, # of connection points: 2
#     Edge 82, Type (0, 0), BuildingBlock: OJICUG_clean_linker_0, # of connection points: 2
#     Edge 83, Type (0, 0), BuildingBlock: OJICUG_clean_linker_0, # of connection points: 2
#     Edge 84, Type (0, 0), BuildingBlock: OJICUG_clean_linker_0, # of connection points: 2
#     Edge 85, Type (0, 0), BuildingBlock: OJICUG_clean_linker_0, # of connection points: 2
#     Edge 86, Type (0, 0), BuildingBlock: OJICUG_clean_linker_0, # of connection points: 2
#     Edge 87, Type (0, 0), BuildingBlock: OJICUG_clean_linker_0, # of connection points: 2
#     Edge 88, Type (0, 0), BuildingBlock: OJICUG_clean_linker_0, # of connection points: 2
#     Edge 89, Type (0, 0), BuildingBlock: OJICUG_clean_linker_0, # of connection points: 2
#     Edge 90, Type (0, 0), BuildingBlock: OJICUG_clean_linker_0, # of connection points: 2
#     Edge 91, Type (0, 0), BuildingBlock: OJICUG_clean_linker_0, # of connection points: 2
#     Edge 92, Type (0, 0), BuildingBlock: OJICUG_clean_linker_0, # of connection points: 2
#     Edge 93, Type (0, 0), BuildingBlock: OJICUG_clean_linker_0, # of connection points: 2
#     Edge 94, Type (0, 0), BuildingBlock: OJICUG_clean_linker_0, # of connection points: 2
#     Edge 95, Type (0, 0), BuildingBlock: OJICUG_clean_linker_0, # of connection points: 2
#     Edge 96, Type (0, 0), BuildingBlock: OJICUG_clean_linker_0, # of connection points: 2
#     Edge 97, Type (0, 0), BuildingBlock: OJICUG_clean_linker_0, # of connection points: 2
#     Edge 98, Type (0, 0), BuildingBlock: OJICUG_clean_linker_0, # of connection points: 2
#     Edge 99, Type (0, 0), BuildingBlock: OJICUG_clean_linker_0, # of connection points: 2
#     Edge 100, Type (0, 0), BuildingBlock: OJICUG_clean_linker_0, # of connection points: 2
#     Edge 101, Type (0, 0), BuildingBlock: OJICUG_clean_linker_0, # of connection points: 2
#     Edge 102, Type (0, 0), BuildingBlock: OJICUG_clean_linker_0, # of connection points: 2
#     Edge 103, Type (0, 0), BuildingBlock: OJICUG_clean_linker_0, # of connection points: 2
#     Edge 104, Type (0, 0), BuildingBlock: OJICUG_clean_linker_0, # of connection points: 2
#     Edge 105, Type (0, 0), BuildingBlock: OJICUG_clean_linker_0, # of connection points: 2
#     Edge 106, Type (0, 0), BuildingBlock: OJICUG_clean_linker_0, # of connection points: 2
#     Edge 107, Type (0, 0), BuildingBlock: OJICUG_clean_linker_0, # of connection points: 2
#     Edge 108, Type (0, 0), BuildingBlock: OJICUG_clean_linker_0, # of connection points: 2
#     Edge 109, Type (0, 0), BuildingBlock: OJICUG_clean_linker_0, # of connection points: 2
#     Edge 110, Type (0, 0), BuildingBlock: OJICUG_clean_linker_0, # of connection points: 2
#     Edge 111, Type (0, 0), BuildingBlock: OJICUG_clean_linker_0, # of connection points: 2
#     Edge 112, Type (0, 0), BuildingBlock: OJICUG_clean_linker_0, # of connection points: 2
#     Edge 113, Type (0, 0), BuildingBlock: OJICUG_clean_linker_0, # of connection points: 2
#     Edge 114, Type (0, 0), BuildingBlock: OJICUG_clean_linker_0, # of connection points: 2
#     Edge 115, Type (0, 0), BuildingBlock: OJICUG_clean_linker_0, # of connection points: 2
#     Edge 116, Type (0, 0), BuildingBlock: OJICUG_clean_linker_0, # of connection points: 2
#     Edge 117, Type (0, 0), BuildingBlock: OJICUG_clean_linker_0, # of connection points: 2
#     Edge 118, Type (0, 0), BuildingBlock: OJICUG_clean_linker_0, # of connection points: 2
#     Edge 119, Type (0, 0), BuildingBlock: OJICUG_clean_linker_0, # of connection points: 2
#     Edge 120, Type (0, 0), BuildingBlock: OJICUG_clean_linker_0, # of connection points: 2
#     Edge 121, Type (0, 0), BuildingBlock: OJICUG_clean_linker_0, # of connection points: 2
#     Edge 122, Type (0, 0), BuildingBlock: OJICUG_clean_linker_0, # of connection points: 2
#     Edge 123, Type (0, 0), BuildingBlock: OJICUG_clean_linker_0, # of connection points: 2
#     Edge 124, Type (0, 0), BuildingBlock: OJICUG_clean_linker_0, # of connection points: 2
#     Edge 125, Type (0, 0), BuildingBlock: OJICUG_clean_linker_0, # of connection points: 2
# Relax obj value: 0.167
# Max RMSD: 0.179
# Mean RMSD: 0.179
data_MOF--net-wln--node1-XOMCOT_clean_sbu_0--edge1-OJICUG_clean_linker_0
_symmetry_space_group_name_H-M    P1
_symmetry_Int_Tables_number       1
_symmetry_cell_setting            triclinic
loop_
_symmetry_equiv_pos_as_xyz
'x, y, z'
_cell_length_a     95.113098
_cell_length_b     95.139968
_cell_length_c     13.519434
_cell_angle_alpha  89.94151
_cell_angle_beta   90.012037
_cell_angle_gamma 119.9907
loop_
_atom_site_label
_atom_site_type_symbol
_atom_site_fract_x
_atom_site_fract_y
_atom_site_fract_z
_atom_type_partial_charge
Co0 Co 0.11379 0.3911 0.02453 0.0
C1 C 0.11571 0.39044 0.24369 0.0
C2 C 0.10064 0.36663 0.18532 0.0
C3 C 0.09951 0.36581 0.28695 0.0
N4 N 0.11115 0.38205 0.15763 0.0
N5 N 0.10892 0.38085 0.32356 0.0
H6 H 0.12303 0.40348 0.24798 0.0
H7 H 0.0932 0.35678 0.13578 0.0
C8 C 0.11004 0.35859 0.97287 0.0
O9 O 0.12177 0.36115 0.0345 0.0
N10 N 0.11588 0.39998 0.89295 0.0
C11 C 0.12647 0.41524 0.86386 0.0
C12 C 0.12618 0.41593 0.76203 0.0
C13 C 0.10919 0.39166 0.80886 0.0
N14 N 0.11544 0.40104 0.72761 0.0
C15 C 0.147 0.40473 0.08841 0.0
C16 C 0.15731 0.3939 0.92978 0.0
C17 C 0.16812 0.4018 0.00783 0.0
C18 C 0.16291 0.40764 0.08662 0.0
C19 C 0.14151 0.39127 0.93459 0.0
N20 N 0.13623 0.39583 0.01597 0.0
H21 H 0.14347 0.40978 0.14787 0.0
H22 H 0.13338 0.38508 0.87383 0.0
H23 H 0.13456 0.42492 0.91274 0.0
H24 H 0.10042 0.37883 0.80666 0.0
O25 O 0.11747 0.41134 0.08047 0.0
O26 O 0.09336 0.39043 0.04178 0.0
O27 O 0.10527 0.36891 0.96423 0.0
C28 C 0.10176 0.40492 0.07933 0.0
H29 H 0.09148 0.35517 0.32991 0.0
H30 H 0.13405 0.42633 0.71679 0.0
H31 H 0.16081 0.3893 0.86683 0.0
H32 H 0.17106 0.41442 0.14648 0.0
Co33 Co 0.6021 0.72065 0.02512 0.0
C34 C 0.60335 0.72332 0.24449 0.0
C35 C 0.62605 0.72782 0.18517 0.0
C36 C 0.62682 0.72745 0.28693 0.0
N37 N 0.61145 0.72572 0.15807 0.0
N38 N 0.61249 0.7246 0.32413 0.0
H39 H 0.59053 0.71905 0.24953 0.0
H40 H 0.63519 0.72852 0.13473 0.0
C41 C 0.63592 0.74803 0.98309 0.0
O42 O 0.6352 0.75614 0.0597 0.0
N43 N 0.59283 0.71514 0.8938 0.0
C44 C 0.57802 0.71227 0.86644 0.0
C45 C 0.57711 0.71159 0.76462 0.0
C46 C 0.60064 0.71596 0.80869 0.0
N47 N 0.59141 0.71407 0.7283 0.0
C48 C 0.58902 0.74037 0.09576 0.0
C49 C 0.6029 0.76405 0.95167 0.0
C50 C 0.59448 0.76621 0.02965 0.0
C51 C 0.58718 0.754 0.10113 0.0
C52 C 0.60467 0.75034 0.9502 0.0
N53 N 0.59857 0.73915 0.02491 0.0
H54 H 0.58253 0.73073 0.14785 0.0
H55 H 0.61106 0.74881 0.88892 0.0
H56 H 0.56884 0.71154 0.91674 0.0
H57 H 0.61315 0.71881 0.80533 0.0
O58 O 0.5817 0.70436 0.0812 0.0
O59 O 0.60177 0.7003 0.03441 0.0
O60 O 0.62416 0.73394 0.96261 0.0
C61 C 0.58754 0.69459 0.07515 0.0
H62 H 0.63696 0.72859 0.32968 0.0
H63 H 0.56684 0.70989 0.7209 0.0
H64 H 0.60841 0.77306 0.8937 0.0
H65 H 0.57998 0.75493 0.16015 0.0
Co66 Co 0.27488 0.88075 1.00569 0.0
C67 C 0.27172 0.87889 0.22491 0.0
C68 C 0.26777 0.89747 0.1657 0.0
C69 C 0.26812 0.89856 0.2674 0.0
N70 N 0.26958 0.8848 0.13851 0.0
N71 N 0.27067 0.88688 0.30464 0.0
H72 H 0.27568 0.8701 0.22978 0.0
H73 H 0.26735 0.90607 0.11532 0.0
C74 C 0.2477 0.88747 0.96335 0.0
O75 O 0.23951 0.87858 0.03963 0.0
N76 N 0.28063 0.87717 0.8745 0.0
C77 C 0.28344 0.86518 0.84738 0.0
C78 C 0.28407 0.86487 0.74558 0.0
C79 C 0.27982 0.88413 0.7892 0.0
N80 N 0.28163 0.87671 0.70895 0.0
C81 C 0.25496 0.84761 0.07192 0.0
C82 C 0.23175 0.83852 0.92549 0.0
C83 C 0.22953 0.82731 0.99978 0.0
C84 C 0.24152 0.83193 0.07268 0.0
C85 C 0.24533 0.85404 0.92776 0.0
N86 N 0.25631 0.85875 1.00338 0.0
H87 H 0.26442 0.85057 0.12516 0.0
H88 H 0.24698 0.86226 0.86801 0.0
H89 H 0.28408 0.85669 0.89784 0.0
H90 H 0.27701 0.89381 0.78563 0.0
O91 O 0.29107 0.87651 0.06248 0.0
O92 O 0.29523 0.90071 0.01643 0.0
O93 O 0.26179 0.88974 0.94302 0.0
C94 C 0.30088 0.89212 0.05702 0.0
H95 H 0.26724 0.90771 0.31006 0.0
H96 H 0.28567 0.85624 0.70208 0.0
H97 H 0.22295 0.83545 0.86671 0.0
H98 H 0.24066 0.82342 0.12899 0.0
Co99 Co 0.38972 0.11383 0.98444 0.0
C100 C 0.38894 0.11509 0.76489 0.0
C101 C 0.36555 0.0985 0.82377 0.0
C102 C 0.36475 0.09736 0.72212 0.0
N103 N 0.38063 0.11004 0.85103 0.0
N104 N 0.37952 0.10783 0.68526 0.0
H105 H 0.40194 0.12273 0.76012 0.0
H106 H 0.35596 0.09065 0.87393 0.0
C107 C 0.35703 0.11002 0.02341 0.0
O108 O 0.35986 0.12049 0.9519 0.0
N109 N 0.39872 0.11705 0.11615 0.0
C110 C 0.41397 0.128 0.14319 0.0
C111 C 0.41494 0.1281 0.24487 0.0
C112 C 0.39066 0.11052 0.20127 0.0
N113 N 0.40023 0.11718 0.28132 0.0
C114 C 0.40355 0.14667 0.91187 0.0
C115 C 0.39158 0.15764 0.06083 0.0
C116 C 0.39959 0.16787 0.98059 0.0
C117 C 0.40598 0.16238 0.90674 0.0
C118 C 0.38922 0.14193 0.06218 0.0
N119 N 0.39432 0.13626 0.98515 0.0
H120 H 0.40926 0.14303 0.85721 0.0
H121 H 0.3829 0.13417 0.12428 0.0
H122 H 0.42351 0.13587 0.09275 0.0
H123 H 0.37785 0.10174 0.20494 0.0
O124 O 0.40995 0.1172 0.93037 0.0
O125 O 0.38918 0.09335 0.97506 0.0
O126 O 0.3675 0.1058 0.04394 0.0
C127 C 0.40363 0.10154 0.93647 0.0
H128 H 0.35425 0.08904 0.67918 0.0
H129 H 0.42556 0.13592 0.28846 0.0
H130 H 0.38672 0.16155 0.12038 0.0
H131 H 0.41284 0.17019 0.84568 0.0
Co132 Co 0.87988 0.27452 0.99382 0.0
C133 C 0.87785 0.27122 0.77466 0.0
C134 C 0.8963 0.26707 0.83369 0.0
C135 C 0.89739 0.2674 0.73201 0.0
N136 N 0.88372 0.26901 0.86102 0.0
N137 N 0.88579 0.2701 0.69485 0.0
H138 H 0.86915 0.2753 0.76989 0.0
H139 H 0.9049 0.2666 0.88393 0.0
C140 C 0.88636 0.24724 0.03651 0.0
O141 O 0.87729 0.23901 0.96099 0.0
N142 N 0.87653 0.28048 0.12502 0.0
C143 C 0.86477 0.28364 0.15213 0.0
C144 C 0.86447 0.28428 0.25393 0.0
C145 C 0.88336 0.27946 0.21038 0.0
N146 N 0.87607 0.2815 0.29058 0.0
C147 C 0.84665 0.2546 0.92953 0.0
C148 C 0.8376 0.2318 0.0786 0.0
C149 C 0.8263 0.22949 1.00479 0.0
C150 C 0.8309 0.24127 0.93048 0.0
C151 C 0.85318 0.24526 0.07463 0.0
N152 N 0.85785 0.25604 0.99787 0.0
H153 H 0.84963 0.26391 0.87512 0.0
H154 H 0.86147 0.24698 0.13398 0.0
H155 H 0.85641 0.2845 0.10169 0.0
H156 H 0.8928 0.27631 0.21411 0.0
O157 O 0.87563 0.29066 0.93674 0.0
O158 O 0.89989 0.2948 0.98133 0.0
O159 O 0.88883 0.2614 0.05642 0.0
C160 C 0.89127 0.30042 0.94101 0.0
H161 H 0.90649 0.26645 0.68933 0.0
H162 H 0.85598 0.28613 0.29743 0.0
H163 H 0.83455 0.22315 0.13831 0.0
H164 H 0.82235 0.24033 0.87436 0.0
Co165 Co 0.72164 0.60552 0.98774 0.0
C166 C 0.72456 0.60632 0.76854 0.0
C167 C 0.73236 0.62996 0.82678 0.0
C168 C 0.73215 0.63076 0.72505 0.0
N169 N 0.72796 0.61467 0.85465 0.0
N170 N 0.72717 0.61583 0.6885 0.0
H171 H 0.71885 0.59327 0.76418 0.0
H172 H 0.73444 0.63972 0.87625 0.0
C173 C 0.74992 0.63831 0.03898 0.0
O174 O 0.75916 0.63602 0.97649 0.0
N175 N 0.71493 0.59647 0.11931 0.0
C176 C 0.71009 0.5811 0.14652 0.0
C177 C 0.70925 0.58012 0.24823 0.0
C178 C 0.71677 0.60459 0.20471 0.0
N179 N 0.71362 0.59495 0.28487 0.0
C180 C 0.74175 0.59248 0.92428 0.0
C181 C 0.76298 0.60389 0.08241 0.0
C182 C 0.7661 0.59612 1.0045 0.0
C183 C 0.75502 0.58998 0.92601 0.0
C184 C 0.74956 0.6061 0.07766 0.0
N185 N 0.73966 0.60128 0.99645 0.0
H186 H 0.73315 0.5872 0.86506 0.0
H187 H 0.74747 0.61221 0.13828 0.0
H188 H 0.70819 0.57146 0.09628 0.0
H189 H 0.72141 0.61752 0.20867 0.0
O190 O 0.70542 0.58517 0.9312 0.0
O191 O 0.70163 0.6057 0.97016 0.0
O192 O 0.73491 0.62774 0.04835 0.0
C193 C 0.69586 0.59127 0.93217 0.0
H194 H 0.73481 0.64139 0.68186 0.0
H195 H 0.70619 0.56941 0.29168 0.0
H196 H 0.77111 0.6087 0.14514 0.0
H197 H 0.75656 0.58329 0.86631 0.0
Co198 Co 0.88165 0.60754 0.98249 0.0
C199 C 0.8794 0.60828 0.76332 0.0
C200 C 0.8949 0.63201 0.82152 0.0
C201 C 0.89588 0.63281 0.71979 0.0
N202 N 0.88424 0.61665 0.84944 0.0
N203 N 0.88615 0.61783 0.68325 0.0
H204 H 0.87226 0.59521 0.75899 0.0
H205 H 0.90245 0.64183 0.87094 0.0
C206 C 0.88568 0.64011 0.03476 0.0
O207 O 0.87399 0.63766 0.9731 0.0
N208 N 0.87954 0.59852 0.11404 0.0
C209 C 0.8692 0.58309 0.14124 0.0
C210 C 0.86908 0.58212 0.24295 0.0
C211 C 0.8857 0.60668 0.1995 0.0
N212 N 0.87933 0.59701 0.27964 0.0
C213 C 0.84839 0.59404 0.91993 0.0
C214 C 0.83835 0.605 0.07927 0.0
C215 C 0.82742 0.59705 1.00183 0.0
C216 C 0.8325 0.59117 0.92263 0.0
C217 C 0.85412 0.60758 0.07357 0.0
N218 N 0.85927 0.60295 0.9919 0.0
H219 H 0.85183 0.58895 0.86019 0.0
H220 H 0.86233 0.6138 0.13393 0.0
H221 H 0.86158 0.5734 0.09099 0.0
H222 H 0.89379 0.61965 0.20352 0.0
O223 O 0.87778 0.58729 0.92584 0.0
O224 O 0.902 0.60806 0.96426 0.0
O225 O 0.89036 0.62971 0.04317 0.0
C226 C 0.89348 0.5936 0.92652 0.0
H227 H 0.90369 0.6435 0.67658 0.0
H228 H 0.86155 0.57136 0.28636 0.0
H229 H 0.83496 0.60964 0.14246 0.0
H230 H 0.82425 0.58437 0.86318 0.0
Co231 Co 0.39061 0.27309 0.97827 0.0
C232 C 0.3898 0.27101 0.76111 0.0
C233 C 0.36653 0.26523 0.81955 0.0
C234 C 0.36585 0.26552 0.7177 0.0
N235 N 0.38154 0.26862 0.84637 0.0
N236 N 0.38055 0.26932 0.68131 0.0
H237 H 0.40248 0.27442 0.75782 0.0
H238 H 0.35698 0.26344 0.8703 0.0
C239 C 0.36446 0.24695 0.09988 0.0
O240 O 0.37556 0.24359 0.13068 0.0
N241 N 0.39974 0.27839 0.11184 0.0
C242 C 0.41538 0.28512 0.14071 0.0
C243 C 0.41617 0.28651 0.24232 0.0
C244 C 0.39156 0.27719 0.19615 0.0
N245 N 0.40107 0.28124 0.27722 0.0
C246 C 0.40934 0.25656 0.98479 0.0
C247 C 0.38415 0.22677 0.92503 0.0
C248 C 0.39881 0.22797 0.95451 0.0
C249 C 0.41164 0.24315 0.98272 0.0
C250 C 0.38229 0.24038 0.93008 0.0
N251 N 0.39449 0.25486 0.96519 0.0
H252 H 0.41956 0.26823 1.00114 0.0
H253 H 0.37073 0.23909 0.90925 0.0
H254 H 0.4257 0.28918 0.09207 0.0
H255 H 0.37889 0.27373 0.19855 0.0
O256 O 0.41079 0.29007 0.92471 0.0
O257 O 0.39034 0.29325 0.97546 0.0
O258 O 0.36824 0.25838 0.03675 0.0
C259 C 0.40465 0.29953 0.93474 0.0
H260 H 0.3556 0.26391 0.67415 0.0
H261 H 0.42702 0.29083 0.28675 0.0
H262 H 0.37401 0.21528 0.90143 0.0
H263 H 0.42336 0.24466 1.00218 0.0
Co264 Co 0.72009 0.11545 1.00367 0.0
C265 C 0.72324 0.11734 0.78442 0.0
C266 C 0.7272 0.09877 0.84361 0.0
C267 C 0.72686 0.09768 0.74194 0.0
N268 N 0.7254 0.11143 0.87079 0.0
N269 N 0.72431 0.10936 0.70471 0.0
H270 H 0.71927 0.12612 0.77956 0.0
H271 H 0.72762 0.09016 0.89398 0.0
C272 C 0.74743 0.10899 0.04446 0.0
O273 O 0.75548 0.11794 0.96802 0.0
N274 N 0.71433 0.11896 0.13494 0.0
C275 C 0.71126 0.13078 0.162 0.0
C276 C 0.71062 0.13108 0.2638 0.0
C277 C 0.71532 0.11211 0.22027 0.0
N278 N 0.71332 0.11942 0.30043 0.0
C279 C 0.73986 0.14861 0.93751 0.0
C280 C 0.7631 0.15777 0.08385 0.0
C281 C 0.76529 0.16894 0.00941 0.0
C282 C 0.75328 0.1643 0.93662 0.0
C283 C 0.74955 0.14223 0.08166 0.0
N284 N 0.73857 0.13748 1.00602 0.0
H285 H 0.73039 0.14561 0.88434 0.0
H286 H 0.74794 0.13402 0.14138 0.0
H287 H 0.71041 0.13914 0.1115 0.0
H288 H 0.7184 0.10262 0.22397 0.0
O289 O 0.70382 0.11957 0.94713 0.0
O290 O 0.6998 0.09542 0.99298 0.0
O291 O 0.73334 0.1066 0.06581 0.0
C292 C 0.69408 0.10395 0.95248 0.0
H293 H 0.72775 0.08853 0.6993 0.0
H294 H 0.70881 0.13959 0.30732 0.0
H295 H 0.77191 0.16087 0.14255 0.0
H296 H 0.75413 0.17278 0.88021 0.0
Co297 Co 0.60463 0.88087 0.02815 0.0
C298 C 0.6054 0.87962 0.24538 0.0
C299 C 0.62866 0.89715 0.18709 0.0
C300 C 0.62929 0.8981 0.28891 0.0
N301 N 0.61367 0.88554 0.16019 0.0
N302 N 0.61459 0.88715 0.32557 0.0
H303 H 0.59264 0.8706 0.24792 0.0
H304 H 0.63825 0.90483 0.13641 0.0
C305 C 0.6308 0.88053 0.90879 0.0
O306 O 0.61967 0.86609 0.87796 0.0
N307 N 0.59546 0.87692 0.89452 0.0
C308 C 0.5797 0.86832 0.86722 0.0
C309 C 0.57865 0.86871 0.76573 0.0
C310 C 0.60352 0.88353 0.80913 0.0
N311 N 0.5937 0.87819 0.72934 0.0
C312 C 0.58571 0.84564 0.02233 0.0
C313 C 0.61065 0.8408 0.08472 0.0
C314 C 0.596 0.82743 0.0545 0.0
C315 C 0.58329 0.82989 0.02501 0.0
C316 C 0.61264 0.85632 0.07895 0.0
N317 N 0.60056 0.85871 0.04261 0.0
H318 H 0.57556 0.84717 1.00471 0.0
H319 H 0.6242 0.86653 0.10011 0.0
H320 H 0.56949 0.86249 0.91701 0.0
H321 H 0.61635 0.89211 0.80465 0.0
O322 O 0.58452 0.87791 0.08117 0.0
O323 O 0.60508 0.90138 0.02932 0.0
O324 O 0.62698 0.88831 0.97043 0.0
C325 C 0.59076 0.8935 0.07002 0.0
H326 H 0.63971 0.9065 0.33206 0.0
H327 H 0.56764 0.86269 0.72227 0.0
H328 H 0.62069 0.83934 0.10926 0.0
H329 H 0.57157 0.81974 1.00485 0.0
Co330 Co 0.11517 0.72131 0.01097 0.0
C331 C 0.11698 0.7243 0.23001 0.0
C332 C 0.09825 0.728 0.17066 0.0
C333 C 0.09694 0.72736 0.27216 0.0
N334 N 0.11115 0.72655 0.14372 0.0
N335 N 0.10868 0.7249 0.3094 0.0
H336 H 0.12623 0.72096 0.23484 0.0
H337 H 0.08955 0.7282 0.12008 0.0
C338 C 0.10862 0.74862 0.97187 0.0
O339 O 0.11753 0.75655 0.04862 0.0
N340 N 0.11859 0.71557 0.87968 0.0
C341 C 0.13054 0.7128 0.85091 0.0
C342 C 0.13039 0.71188 0.74909 0.0
C343 C 0.11124 0.71612 0.79559 0.0
N344 N 0.11833 0.71412 0.71431 0.0
C345 C 0.14844 0.74116 0.07574 0.0
C346 C 0.15738 0.7643 0.92883 0.0
C347 C 0.16869 0.76652 1.00231 0.0
C348 C 0.16415 0.75457 0.07551 0.0
C349 C 0.14184 0.75077 0.93212 0.0
N350 N 0.1372 0.73982 0.00797 0.0
H351 H 0.14553 0.73171 0.12896 0.0
H352 H 0.13355 0.74911 0.87287 0.0
H353 H 0.13932 0.71243 0.90009 0.0
H354 H 0.10125 0.71848 0.79382 0.0
O355 O 0.11934 0.70504 0.0672 0.0
O356 O 0.09515 0.70101 0.02204 0.0
O357 O 0.10629 0.73459 0.94943 0.0
C358 C 0.10371 0.69529 0.06225 0.0
H359 H 0.08735 0.72747 0.31456 0.0
H360 H 0.13912 0.71064 0.70421 0.0
H361 H 0.16038 0.77306 0.86987 0.0
H362 H 0.17274 0.75545 0.13121 0.0
Co363 Co 0.27324 0.3923 0.02869 0.0
C364 C 0.27052 0.39166 0.24779 0.0
C365 C 0.26169 0.36783 0.1895 0.0
C366 C 0.262 0.36702 0.29114 0.0
N367 N 0.26667 0.38326 0.16173 0.0
N368 N 0.26769 0.38207 0.32771 0.0
H369 H 0.27628 0.40471 0.252 0.0
H370 H 0.25928 0.35797 0.14003 0.0
C371 C 0.24447 0.35988 0.97622 0.0
O372 O 0.23522 0.36242 0.03721 0.0
N373 N 0.28021 0.40118 0.89718 0.0
C374 C 0.28499 0.41647 0.86805 0.0
C375 C 0.28598 0.41715 0.76623 0.0
C376 C 0.27854 0.39284 0.81307 0.0
N377 N 0.28172 0.40223 0.73178 0.0
C378 C 0.25346 0.40582 0.09139 0.0
C379 C 0.23262 0.39499 0.93125 0.0
C380 C 0.22942 0.40267 0.00931 0.0
C381 C 0.24033 0.40853 0.08885 0.0
C382 C 0.2459 0.39256 0.93681 0.0
N383 N 0.2556 0.3971 0.0189 0.0
H384 H 0.2619 0.41082 0.15163 0.0
H385 H 0.248 0.38646 0.87619 0.0
H386 H 0.28663 0.42617 0.91689 0.0
H387 H 0.27437 0.37999 0.81086 0.0
O388 O 0.28983 0.41249 0.08508 0.0
O389 O 0.29287 0.39146 0.04684 0.0
O390 O 0.25958 0.37017 0.96833 0.0
C391 C 0.29903 0.40594 0.08451 0.0
H392 H 0.25938 0.35638 0.33412 0.0
H393 H 0.28856 0.42757 0.721 0.0
H394 H 0.22463 0.39036 0.86782 0.0
H395 H 0.23872 0.41514 0.14883 0.0
Co396 Co 0.78096 0.72495 0.3623 0.0
C397 C 0.78302 0.72427 0.58143 0.0
C398 C 0.76783 0.70047 0.52309 0.0
C399 C 0.76671 0.69967 0.62473 0.0
N400 N 0.77839 0.71587 0.49534 0.0
N401 N 0.7762 0.7147 0.66133 0.0
H402 H 0.79041 0.7373 0.5857 0.0
H403 H 0.76032 0.69065 0.4736 0.0
C404 C 0.77694 0.69238 0.30967 0.0
O405 O 0.78868 0.69484 0.37097 0.0
N406 N 0.78296 0.73386 0.23079 0.0
C407 C 0.79359 0.74911 0.20167 0.0
C408 C 0.79332 0.7498 0.09983 0.0
C409 C 0.77626 0.72555 0.14665 0.0
N410 N 0.78255 0.73492 0.06537 0.0
C411 C 0.81419 0.73832 0.42484 0.0
C412 C 0.82421 0.72743 0.26508 0.0
C413 C 0.83513 0.73526 0.3428 0.0
C414 C 0.83006 0.74112 0.42219 0.0
C415 C 0.80847 0.72492 0.27073 0.0
N416 N 0.80332 0.72952 0.35261 0.0
H417 H 0.81077 0.74338 0.4848 0.0
H418 H 0.80026 0.71878 0.2102 0.0
H419 H 0.80172 0.75877 0.25052 0.0
H420 H 0.76748 0.71273 0.14442 0.0
O421 O 0.78487 0.74524 0.41872 0.0
O422 O 0.76063 0.72445 0.38084 0.0
O423 O 0.77222 0.70275 0.30175 0.0
C424 C 0.76917 0.73892 0.41857 0.0
H425 H 0.75862 0.68905 0.6677 0.0
H426 H 0.80124 0.76018 0.05461 0.0
H427 H 0.8276 0.72282 0.20172 0.0
H428 H 0.8383 0.74785 0.48184 0.0
Co429 Co 0.27009 0.05658 0.36023 0.0
C430 C 0.27093 0.05871 0.57747 0.0
C431 C 0.29406 0.06402 0.51924 0.0
C432 C 0.29468 0.06367 0.62108 0.0
N433 N 0.27916 0.06092 0.49227 0.0
N434 N 0.28005 0.06018 0.65771 0.0
H435 H 0.25822 0.05518 0.57999 0.0
H436 H 0.30359 0.06574 0.4686 0.0
C437 C 0.2965 0.08274 0.23983 0.0
O438 O 0.28554 0.08629 0.20886 0.0
N439 N 0.26089 0.0514 0.22668 0.0
C440 C 0.24515 0.04454 0.19937 0.0
C441 C 0.24408 0.04309 0.09788 0.0
C442 C 0.26888 0.05265 0.14133 0.0
N443 N 0.25908 0.04837 0.0615 0.0
C444 C 0.25165 0.07341 0.35412 0.0
C445 C 0.27696 0.103 0.41566 0.0
C446 C 0.26236 0.10196 0.38641 0.0
C447 C 0.24948 0.08688 0.35722 0.0
C448 C 0.27869 0.08933 0.40962 0.0
N449 N 0.26643 0.07494 0.37381 0.0
H450 H 0.24138 0.06181 0.33691 0.0
H451 H 0.2902 0.09048 0.43039 0.0
H452 H 0.23495 0.04037 0.24913 0.0
H453 H 0.28166 0.05666 0.13689 0.0
O454 O 0.24984 0.03971 0.41389 0.0
O455 O 0.27013 0.03633 0.36259 0.0
O456 O 0.29251 0.07115 0.30201 0.0
C457 C 0.25585 0.03016 0.4037 0.0
H458 H 0.30502 0.06548 0.66425 0.0
H459 H 0.23308 0.03832 0.05441 0.0
H460 H 0.28714 0.11441 0.4399 0.0
H461 H 0.2378 0.08551 0.3378 0.0
Co462 Co 0.94121 0.21389 0.34473 0.0
C463 C 0.93803 0.21196 0.56395 0.0
C464 C 0.9338 0.23035 0.50479 0.0
C465 C 0.93413 0.23144 0.60647 0.0
N466 N 0.93578 0.2178 0.47757 0.0
N467 N 0.93686 0.21988 0.64369 0.0
H468 H 0.94214 0.20329 0.56876 0.0
H469 H 0.93327 0.23891 0.45445 0.0
C470 C 0.91374 0.22015 0.30283 0.0
O471 O 0.90562 0.21119 0.37907 0.0
N472 N 0.94707 0.21046 0.2135 0.0
C473 C 0.95024 0.19871 0.18643 0.0
C474 C 0.95088 0.19842 0.08463 0.0
C475 C 0.94604 0.21729 0.12815 0.0
N476 N 0.94809 0.21002 0.04797 0.0
C477 C 0.92153 0.18068 0.41075 0.0
C478 C 0.8984 0.17142 0.2637 0.0
C479 C 0.89621 0.16024 0.3381 0.0
C480 C 0.90817 0.16494 0.41131 0.0
C481 C 0.91188 0.18699 0.26619 0.0
N482 N 0.92282 0.19179 0.3421 0.0
H483 H 0.93096 0.18372 0.46429 0.0
H484 H 0.91349 0.1952 0.20645 0.0
H485 H 0.95114 0.19037 0.23693 0.0
H486 H 0.94289 0.22673 0.12445 0.0
O487 O 0.95757 0.20993 0.40152 0.0
O488 O 0.96139 0.23401 0.35564 0.0
O489 O 0.92788 0.22261 0.28226 0.0
C490 C 0.96721 0.22557 0.39622 0.0
H491 H 0.93312 0.24052 0.64913 0.0
H492 H 0.95275 0.18995 0.04114 0.0
H493 H 0.88962 0.1683 0.20472 0.0
H494 H 0.90733 0.15647 0.46778 0.0
Co495 Co 0.05648 0.44773 0.32824 0.0
C496 C 0.05561 0.44964 0.10883 0.0
C497 C 0.03249 0.43225 0.16751 0.0
C498 C 0.03173 0.43117 0.06592 0.0
N499 N 0.04736 0.4442 0.19498 0.0
N500 N 0.04633 0.4421 0.02905 0.0
H501 H 0.06855 0.45774 0.10426 0.0
H502 H 0.0231 0.42403 0.21751 0.0
C503 C 0.02348 0.44305 0.36737 0.0
O504 O 0.02618 0.45359 0.29657 0.0
N505 N 0.06554 0.45072 0.4598 0.0
C506 C 0.08078 0.46173 0.48666 0.0
C507 C 0.08178 0.46192 0.58835 0.0
C508 C 0.05752 0.44424 0.54515 0.0
N509 N 0.0671 0.451 0.62506 0.0
C510 C 0.07013 0.48096 0.26207 0.0
C511 C 0.05756 0.49076 0.41395 0.0
C512 C 0.06612 0.50176 0.3378 0.0
C513 C 0.07276 0.49679 0.26225 0.0
C514 C 0.05521 0.47507 0.41069 0.0
N515 N 0.06068 0.47002 0.33249 0.0
H516 H 0.07598 0.47768 0.20609 0.0
H517 H 0.0487 0.46689 0.47074 0.0
H518 H 0.09028 0.46965 0.43611 0.0
H519 H 0.0447 0.43549 0.54914 0.0
O520 O 0.07682 0.45153 0.27289 0.0
O521 O 0.05625 0.42745 0.31588 0.0
O522 O 0.03419 0.43914 0.38796 0.0
C523 C 0.07066 0.43587 0.27713 0.0
H524 H 0.0214 0.42252 0.02308 0.0
H525 H 0.09238 0.46985 0.63177 0.0
H526 H 0.05235 0.49408 0.47454 0.0
H527 H 0.08005 0.50509 0.2042 0.0
Co528 Co 0.54581 0.60755 0.3361 0.0
C529 C 0.54387 0.60432 0.11688 0.0
C530 C 0.56227 0.6001 0.17598 0.0
C531 C 0.56337 0.60045 0.07428 0.0
N532 N 0.54971 0.60207 0.20328 0.0
N533 N 0.5518 0.60318 0.0371 0.0
H534 H 0.53519 0.60843 0.11206 0.0
H535 H 0.57083 0.59958 0.22626 0.0
C536 C 0.5523 0.58026 0.3792 0.0
O537 O 0.54324 0.57203 0.30365 0.0
N538 N 0.54241 0.61347 0.46724 0.0
C539 C 0.53055 0.61648 0.49441 0.0
C540 C 0.53026 0.61713 0.59621 0.0
C541 C 0.54932 0.61257 0.55255 0.0
N542 N 0.54197 0.61451 0.63281 0.0
C543 C 0.51265 0.58765 0.27105 0.0
C544 C 0.50348 0.56475 0.41963 0.0
C545 C 0.49228 0.56246 0.34523 0.0
C546 C 0.49693 0.57429 0.27123 0.0
C547 C 0.51906 0.57823 0.41632 0.0
N548 N 0.52379 0.58905 0.33975 0.0
H549 H 0.51566 0.59699 0.21688 0.0
H550 H 0.52731 0.57993 0.47594 0.0
H551 H 0.52212 0.61723 0.44401 0.0
H552 H 0.55887 0.60959 0.55615 0.0
O553 O 0.54154 0.62367 0.27894 0.0
O554 O 0.5658 0.62786 0.32377 0.0
O555 O 0.55478 0.59443 0.39889 0.0
C556 C 0.55716 0.63346 0.28322 0.0
H557 H 0.57246 0.59947 0.03159 0.0
H558 H 0.52171 0.61887 0.63972 0.0
H559 H 0.50036 0.55606 0.47917 0.0
H560 H 0.48843 0.57335 0.2147 0.0
Co561 Co 0.38801 0.93686 0.31846 0.0
C562 C 0.3907 0.93757 0.09931 0.0
C563 C 0.3991 0.96133 0.15771 0.0
C564 C 0.39876 0.96213 0.05608 0.0
N565 N 0.39442 0.94596 0.1854 0.0
N566 N 0.39334 0.94713 0.01944 0.0
H567 H 0.38516 0.92455 0.09502 0.0
H568 H 0.40134 0.97112 0.20725 0.0
C569 C 0.41644 0.96954 0.3706 0.0
O570 O 0.42576 0.96718 0.30901 0.0
N571 N 0.38121 0.92793 0.44999 0.0
C572 C 0.37672 0.91272 0.47916 0.0
C573 C 0.37574 0.91203 0.58099 0.0
C574 C 0.38272 0.93622 0.53406 0.0
N575 N 0.37971 0.92688 0.61537 0.0
C576 C 0.40817 0.92384 0.25518 0.0
C577 C 0.4292 0.93505 0.41436 0.0
C578 C 0.43248 0.92748 0.33603 0.0
C579 C 0.42148 0.92142 0.25705 0.0
C580 C 0.41573 0.93718 0.40949 0.0
N581 N 0.40594 0.93248 0.32778 0.0
H582 H 0.39967 0.91868 0.19537 0.0
H583 H 0.41354 0.94319 0.4703 0.0
H584 H 0.37528 0.90309 0.43035 0.0
H585 H 0.38663 0.94902 0.53622 0.0
O586 O 0.37167 0.91653 0.26211 0.0
O587 O 0.36813 0.93724 0.30048 0.0
O588 O 0.40139 0.95907 0.37891 0.0
C589 C 0.36224 0.92279 0.26264 0.0
H590 H 0.40118 0.97272 0.01314 0.0
H591 H 0.37336 0.90168 0.62626 0.0
H592 H 0.43724 0.93981 0.47746 0.0
H593 H 0.42315 0.91487 0.19696 0.0
Co594 Co 0.54846 0.93976 0.31456 0.0
C595 C 0.54625 0.9405 0.09539 0.0
C596 C 0.56169 0.96424 0.15362 0.0
C597 C 0.56267 0.96505 0.05189 0.0
N598 N 0.55107 0.94887 0.1815 0.0
N599 N 0.55298 0.95006 0.01534 0.0
H600 H 0.53914 0.92743 0.09103 0.0
H601 H 0.56921 0.97407 0.20307 0.0
C602 C 0.55233 0.97227 0.36657 0.0
O603 O 0.54066 0.96977 0.30463 0.0
N604 N 0.54634 0.93076 0.44615 0.0
C605 C 0.53602 0.91533 0.47336 0.0
C606 C 0.5359 0.91436 0.57508 0.0
C607 C 0.55249 0.93893 0.53157 0.0
N608 N 0.54614 0.92926 0.61173 0.0
C609 C 0.5152 0.9262 0.2516 0.0
C610 C 0.50504 0.93703 0.41093 0.0
C611 C 0.49414 0.92906 0.3334 0.0
C612 C 0.49928 0.92325 0.25417 0.0
C613 C 0.52084 0.9397 0.40533 0.0
N614 N 0.52605 0.93511 0.3237 0.0
H615 H 0.51868 0.92114 0.19188 0.0
H616 H 0.52903 0.94592 0.46579 0.0
H617 H 0.52841 0.90563 0.42313 0.0
H618 H 0.56058 0.9519 0.53556 0.0
O619 O 0.54465 0.91953 0.25805 0.0
O620 O 0.56884 0.94032 0.2966 0.0
O621 O 0.55708 0.96193 0.37521 0.0
C622 C 0.56035 0.92585 0.25895 0.0
H623 H 0.57046 0.97575 0.00869 0.0
H624 H 0.52839 0.9036 0.61851 0.0
H625 H 0.50159 0.94162 0.47415 0.0
H626 H 0.49106 0.91644 0.19465 0.0
Co627 Co 0.05819 0.60799 0.32106 0.0
C628 C 0.05733 0.6052 0.10179 0.0
C629 C 0.03419 0.59943 0.16049 0.0
C630 C 0.03345 0.59985 0.05896 0.0
N631 N 0.04906 0.6023 0.18793 0.0
N632 N 0.04807 0.60361 0.02216 0.0
H633 H 0.07019 0.6096 0.09719 0.0
H634 H 0.02486 0.5984 0.21045 0.0
C635 C 0.02502 0.58002 0.3621 0.0
O636 O 0.02755 0.57189 0.2925 0.0
N637 N 0.0672 0.61417 0.45252 0.0
C638 C 0.08223 0.6179 0.48124 0.0
C639 C 0.08298 0.61884 0.58303 0.0
C640 C 0.05908 0.61306 0.53666 0.0
N641 N 0.06836 0.61562 0.61775 0.0
C642 C 0.07125 0.58781 0.25708 0.0
C643 C 0.05855 0.56583 0.41117 0.0
C644 C 0.06686 0.563 0.33524 0.0
C645 C 0.07358 0.57442 0.25859 0.0
C646 C 0.05651 0.57935 0.40664 0.0
N647 N 0.06204 0.58968 0.32741 0.0
H648 H 0.07711 0.59674 0.20008 0.0
H649 H 0.05017 0.58132 0.46644 0.0
H650 H 0.09166 0.61891 0.43207 0.0
H651 H 0.04646 0.60983 0.53883 0.0
O652 O 0.07865 0.62423 0.26522 0.0
O653 O 0.05829 0.62817 0.30654 0.0
O654 O 0.03585 0.59465 0.38102 0.0
C655 C 0.07267 0.6339 0.26782 0.0
H656 H 0.0233 0.59869 0.01615 0.0
H657 H 0.0932 0.62074 0.628 0.0
H658 H 0.05328 0.55747 0.47254 0.0
H659 H 0.08069 0.57309 0.20061 0.0
Co660 Co 0.38695 0.44783 0.33474 0.0
C661 C 0.38974 0.44977 0.11528 0.0
C662 C 0.39524 0.43222 0.17403 0.0
C663 C 0.39492 0.43113 0.07248 0.0
N664 N 0.39247 0.44427 0.20144 0.0
N665 N 0.39138 0.44216 0.03556 0.0
H666 H 0.38501 0.45796 0.11068 0.0
H667 H 0.39631 0.42394 0.22408 0.0
C668 C 0.41527 0.44316 0.37257 0.0
O669 O 0.42296 0.45368 0.30143 0.0
N670 N 0.38093 0.45085 0.46632 0.0
C671 C 0.37673 0.46188 0.49314 0.0
C672 C 0.37591 0.46207 0.59481 0.0
C673 C 0.38245 0.44435 0.55166 0.0
N674 N 0.37964 0.45113 0.63153 0.0
C675 C 0.40662 0.48107 0.26902 0.0
C676 C 0.42894 0.49069 0.42119 0.0
C677 C 0.43142 0.50175 0.34537 0.0
C678 C 0.41984 0.49687 0.26968 0.0
C679 C 0.41558 0.47504 0.41756 0.0
N680 N 0.40509 0.47007 0.33919 0.0
H681 H 0.39752 0.47785 0.21295 0.0
H682 H 0.41386 0.46682 0.47743 0.0
H683 H 0.37517 0.46981 0.44258 0.0
H684 H 0.3865 0.43559 0.55567 0.0
O685 O 0.37052 0.4518 0.27965 0.0
O686 O 0.36682 0.42762 0.32224 0.0
O687 O 0.40066 0.4392 0.39405 0.0
C688 C 0.36092 0.43615 0.28378 0.0
H689 H 0.39649 0.42241 0.02969 0.0
H690 H 0.37325 0.47001 0.63822 0.0
H691 H 0.43744 0.49392 0.48183 0.0
H692 H 0.42089 0.50524 0.21188 0.0
Co693 Co 0.2719 0.21633 0.36252 0.0
C694 C 0.2727 0.21504 0.58208 0.0
C695 C 0.29608 0.23166 0.52319 0.0
C696 C 0.29688 0.2328 0.62485 0.0
N697 N 0.28101 0.22011 0.49592 0.0
N698 N 0.28212 0.22231 0.66172 0.0
H699 H 0.2597 0.20738 0.58686 0.0
H700 H 0.30566 0.23953 0.47305 0.0
C701 C 0.30462 0.22027 0.32293 0.0
O702 O 0.30188 0.20984 0.39447 0.0
N703 N 0.26288 0.21312 0.23085 0.0
C704 C 0.24765 0.20212 0.20379 0.0
C705 C 0.24668 0.20202 0.1021 0.0
C706 C 0.27092 0.21967 0.14572 0.0
N707 N 0.26137 0.21298 0.06564 0.0
C708 C 0.2582 0.18349 0.43463 0.0
C709 C 0.27009 0.17261 0.28475 0.0
C710 C 0.26206 0.16232 0.36468 0.0
C711 C 0.25573 0.16777 0.43908 0.0
C712 C 0.27248 0.18834 0.28408 0.0
N713 N 0.26739 0.19394 0.36144 0.0
H714 H 0.25252 0.18711 0.48966 0.0
H715 H 0.27879 0.19614 0.2221 0.0
H716 H 0.23812 0.19422 0.25421 0.0
H717 H 0.28372 0.22848 0.14205 0.0
O718 O 0.25165 0.21283 0.41674 0.0
O719 O 0.27234 0.23675 0.37227 0.0
O720 O 0.2941 0.22446 0.30283 0.0
C721 C 0.25789 0.22849 0.41084 0.0
H722 H 0.30737 0.24113 0.66779 0.0
H723 H 0.23607 0.19416 0.05852 0.0
H724 H 0.27492 0.16874 0.22484 0.0
H725 H 0.24886 0.15991 0.49996 0.0
Co726 Co 0.78172 0.05447 0.34802 0.0
C727 C 0.78365 0.05766 0.56721 0.0
C728 C 0.76509 0.06164 0.50815 0.0
C729 C 0.764 0.0613 0.60982 0.0
N730 N 0.77775 0.05982 0.48086 0.0
N731 N 0.77567 0.05873 0.64698 0.0
H732 H 0.79243 0.05367 0.57199 0.0
H733 H 0.75647 0.06206 0.45785 0.0
C734 C 0.77523 0.08179 0.30678 0.0
O735 O 0.78419 0.08989 0.38295 0.0
N736 N 0.7852 0.04867 0.21677 0.0
C737 C 0.797 0.04557 0.18968 0.0
C738 C 0.7973 0.04493 0.08788 0.0
C739 C 0.77836 0.04968 0.13145 0.0
N740 N 0.78567 0.04766 0.05127 0.0
C741 C 0.81494 0.07425 0.41341 0.0
C742 C 0.82408 0.09735 0.26607 0.0
C743 C 0.83533 0.09953 0.33993 0.0
C744 C 0.83068 0.0876 0.41337 0.0
C745 C 0.8085 0.08387 0.26919 0.0
N746 N 0.80378 0.07294 0.34516 0.0
H747 H 0.81195 0.06482 0.46699 0.0
H748 H 0.80025 0.08225 0.20976 0.0
H749 H 0.80536 0.0447 0.24015 0.0
H750 H 0.76889 0.05279 0.12776 0.0
O751 O 0.78581 0.03818 0.40472 0.0
O752 O 0.76166 0.03422 0.35905 0.0
O753 O 0.77286 0.0677 0.28578 0.0
C754 C 0.77017 0.02847 0.39948 0.0
H755 H 0.75486 0.06219 0.65251 0.0
H756 H 0.8058 0.0431 0.04435 0.0
H757 H 0.82716 0.1061 0.20697 0.0
H758 H 0.83921 0.08845 0.46944 0.0
Co759 Co 0.94091 0.72677 0.35801 0.0
C760 C 0.93796 0.72597 0.57721 0.0
C761 C 0.93003 0.7023 0.51893 0.0
C762 C 0.93024 0.7015 0.62066 0.0
N763 N 0.93452 0.71762 0.49107 0.0
N764 N 0.9353 0.71644 0.65724 0.0
H765 H 0.94373 0.73902 0.58157 0.0
H766 H 0.9279 0.69253 0.46944 0.0
C767 C 0.91255 0.69404 0.30629 0.0
O768 O 0.90329 0.69635 0.36854 0.0
N769 N 0.94768 0.73581 0.22647 0.0
C770 C 0.95257 0.7512 0.19923 0.0
C771 C 0.95341 0.75216 0.09751 0.0
C772 C 0.94581 0.72768 0.14107 0.0
N773 N 0.94899 0.73731 0.06088 0.0
C774 C 0.9208 0.73984 0.42141 0.0
C775 C 0.89966 0.72852 0.26278 0.0
C776 C 0.89647 0.73622 0.34081 0.0
C777 C 0.90752 0.74231 0.41957 0.0
C778 C 0.91309 0.72633 0.26766 0.0
N779 N 0.92295 0.7311 0.34908 0.0
H780 H 0.92936 0.74506 0.4809 0.0
H781 H 0.91521 0.72025 0.20699 0.0
H782 H 0.95451 0.76084 0.24945 0.0
H783 H 0.94112 0.71474 0.13712 0.0
O784 O 0.95721 0.74708 0.41475 0.0
O785 O 0.96083 0.72645 0.37568 0.0
O786 O 0.92758 0.70457 0.29731 0.0
C787 C 0.96669 0.74087 0.41382 0.0
H788 H 0.92752 0.69085 0.66384 0.0
H789 H 0.9565 0.76288 0.05405 0.0
H790 H 0.89157 0.72374 0.19987 0.0
H791 H 0.90592 0.74895 0.47941 0.0
Co792 Co 0.4468 0.05628 0.69072 0.0
C793 C 0.44894 0.05557 0.90992 0.0
C794 C 0.43355 0.03181 0.85172 0.0
C795 C 0.43256 0.031 0.95344 0.0
N796 N 0.44415 0.04719 0.82383 0.0
N797 N 0.44223 0.046 0.98996 0.0
H798 H 0.45602 0.06864 0.91425 0.0
H799 H 0.42605 0.02197 0.80226 0.0
C800 C 0.44309 0.0238 0.6396 0.0
O801 O 0.45475 0.02636 0.7018 0.0
N802 N 0.44897 0.06526 0.55911 0.0
C803 C 0.45926 0.0807 0.53193 0.0
C804 C 0.45937 0.08167 0.43023 0.0
C805 C 0.44282 0.05709 0.47371 0.0
N806 N 0.44915 0.06677 0.39358 0.0
C807 C 0.48005 0.07005 0.75441 0.0
C808 C 0.49034 0.05918 0.59593 0.0
C809 C 0.5012 0.06721 0.67355 0.0
C810 C 0.49599 0.07305 0.75233 0.0
C811 C 0.47452 0.05646 0.60104 0.0
N812 N 0.46925 0.06106 0.6823 0.0
H813 H 0.47652 0.07513 0.81374 0.0
H814 H 0.46637 0.05018 0.54052 0.0
H815 H 0.46684 0.09041 0.58219 0.0
H816 H 0.43475 0.04412 0.46974 0.0
O817 O 0.45042 0.07646 0.74697 0.0
O818 O 0.42634 0.05555 0.70774 0.0
O819 O 0.43833 0.03413 0.63029 0.0
C820 C 0.43471 0.07003 0.74541 0.0
H821 H 0.42479 0.0203 0.99667 0.0
H822 H 0.46685 0.09244 0.38679 0.0
H823 H 0.49384 0.05457 0.53305 0.0
H824 H 0.50417 0.07992 0.81188 0.0
Co825 Co 0.93667 0.38914 0.70613 0.0
C826 C 0.93763 0.39084 0.9232 0.0
C827 C 0.96043 0.39517 0.86446 0.0
C828 C 0.96107 0.39477 0.96637 0.0
N829 N 0.94574 0.39275 0.83788 0.0
N830 N 0.94665 0.39189 1.00296 0.0
H831 H 0.92521 0.3883 0.92649 0.0
H832 H 0.96976 0.39644 0.8135 0.0
C833 C 0.96296 0.4149 0.5842 0.0
O834 O 0.95195 0.41848 0.55449 0.0
N835 N 0.9275 0.38474 0.57272 0.0
C836 C 0.91211 0.37961 0.54335 0.0
C837 C 0.9113 0.37826 0.4417 0.0
C838 C 0.93538 0.38509 0.48869 0.0
N839 N 0.92607 0.38197 0.4073 0.0
C840 C 0.91891 0.4067 0.71329 0.0
C841 C 0.94554 0.43605 0.76475 0.0
C842 C 0.93095 0.43556 0.74187 0.0
C843 C 0.91731 0.42052 0.71968 0.0
C844 C 0.94657 0.42202 0.75726 0.0
N845 N 0.9337 0.40782 0.72452 0.0
H846 H 0.90823 0.39518 0.70016 0.0
H847 H 0.95801 0.42275 0.77439 0.0
H848 H 0.90194 0.37655 0.59145 0.0
H849 H 0.94772 0.38744 0.48687 0.0
O850 O 0.91625 0.3724 0.75857 0.0
O851 O 0.93616 0.36864 0.70396 0.0
O852 O 0.95913 0.40349 0.64752 0.0
C853 C 0.92195 0.36262 0.74563 0.0
H854 H 0.97107 0.39574 0.00981 0.0
H855 H 0.90069 0.37502 0.39685 0.0
H856 H 0.95619 0.44726 0.78691 0.0
H857 H 0.90564 0.41949 0.70507 0.0
Co858 Co 0.60795 0.54751 0.68294 0.0
C859 C 0.6058 0.54646 0.9023 0.0
C860 C 0.60108 0.56447 0.84219 0.0
C861 C 0.60183 0.56594 0.94369 0.0
N862 N 0.60306 0.55188 0.81586 0.0
N863 N 0.60492 0.55465 0.98134 0.0
H864 H 0.60962 0.53758 0.90748 0.0
H865 H 0.60032 0.57282 0.79119 0.0
C866 C 0.58012 0.55337 0.64394 0.0
O867 O 0.57236 0.54469 0.72186 0.0
N868 N 0.61332 0.54379 0.55146 0.0
C869 C 0.616 0.53181 0.52234 0.0
C870 C 0.61701 0.53209 0.42049 0.0
C871 C 0.61289 0.55127 0.46767 0.0
N872 N 0.61491 0.54426 0.3862 0.0
C873 C 0.58881 0.5147 0.75529 0.0
C874 C 0.56464 0.50452 0.61431 0.0
C875 C 0.56282 0.49408 0.69257 0.0
C876 C 0.57528 0.49917 0.76237 0.0
C877 C 0.57826 0.52005 0.61114 0.0
N878 N 0.58968 0.52534 0.68455 0.0
H879 H 0.59866 0.51798 0.80592 0.0
H880 H 0.57954 0.52785 0.54964 0.0
H881 H 0.61636 0.523 0.57131 0.0
H882 H 0.61069 0.56137 0.46626 0.0
O883 O 0.62461 0.54385 0.73779 0.0
O884 O 0.62813 0.56775 0.69017 0.0
O885 O 0.5942 0.55582 0.62141 0.0
C886 C 0.63416 0.55948 0.73057 0.0
H887 H 0.60126 0.57532 0.98573 0.0
H888 H 0.61828 0.52342 0.37519 0.0
H889 H 0.55544 0.50087 0.55747 0.0
H890 H 0.57462 0.49115 0.82142 0.0
Co891 Co 0.72428 0.78139 0.67539 0.0
C892 C 0.72301 0.78321 0.45613 0.0
C893 C 0.70041 0.76478 0.51533 0.0
C894 C 0.69965 0.76369 0.41363 0.0
N895 N 0.71494 0.77736 0.54251 0.0
N896 N 0.71393 0.77529 0.37641 0.0
H897 H 0.73579 0.7919 0.45124 0.0
H898 H 0.69134 0.75623 0.56573 0.0
C899 C 0.69048 0.77505 0.71703 0.0
O900 O 0.69127 0.78392 0.64042 0.0
N901 N 0.73356 0.78493 0.80666 0.0
C902 C 0.74844 0.79675 0.83379 0.0
C903 C 0.74937 0.79705 0.93561 0.0
C904 C 0.72572 0.77807 0.89196 0.0
N905 N 0.73501 0.78538 0.97218 0.0
C906 C 0.73791 0.81451 0.6084 0.0
C907 C 0.72396 0.82402 0.75351 0.0
C908 C 0.73305 0.83507 0.6788 0.0
C909 C 0.74034 0.83025 0.60663 0.0
C910 C 0.72178 0.80839 0.75207 0.0
N911 N 0.72797 0.80348 0.67703 0.0
H912 H 0.74437 0.81139 0.55584 0.0
H913 H 0.71511 0.80026 0.81195 0.0
H914 H 0.75766 0.80512 0.78333 0.0
H915 H 0.71315 0.76856 0.89557 0.0
O916 O 0.74462 0.78539 0.61894 0.0
O917 O 0.72444 0.76129 0.66509 0.0
O918 O 0.70221 0.77266 0.73785 0.0
C919 C 0.7387 0.76977 0.62457 0.0
H920 H 0.68957 0.75461 0.37096 0.0
H921 H 0.75968 0.80555 0.97916 0.0
H922 H 0.71833 0.82729 0.81183 0.0
H923 H 0.74805 0.83864 0.55008 0.0
Co924 Co 0.2142 0.94233 0.65637 0.0
C925 C 0.21223 0.93916 0.43745 0.0
C926 C 0.23088 0.93533 0.4967 0.0
C927 C 0.23218 0.93596 0.39519 0.0
N928 N 0.21805 0.93687 0.52374 0.0
N929 N 0.2205 0.93851 0.35798 0.0
H930 H 0.20304 0.94258 0.43271 0.0
H931 H 0.23957 0.9351 0.5472 0.0
C932 C 0.22075 0.91506 0.69731 0.0
O933 O 0.21175 0.90697 0.62123 0.0
N934 N 0.21093 0.94827 0.78757 0.0
C935 C 0.19901 0.95107 0.81637 0.0
C936 C 0.19915 0.95199 0.9182 0.0
C937 C 0.21827 0.94771 0.87171 0.0
N938 N 0.21119 0.94972 0.95304 0.0
C939 C 0.18088 0.92236 0.593 0.0
C940 C 0.17202 0.89951 0.74162 0.0
C941 C 0.16064 0.89718 0.66835 0.0
C942 C 0.16515 0.90899 0.59427 0.0
C943 C 0.18758 0.913 0.73733 0.0
N944 N 0.19217 0.92381 0.66072 0.0
H945 H 0.18376 0.9317 0.53897 0.0
H946 H 0.19592 0.91475 0.79643 0.0
H947 H 0.19021 0.95142 0.76723 0.0
H948 H 0.22823 0.9453 0.87351 0.0
O949 O 0.20991 0.95847 0.59953 0.0
O950 O 0.2342 0.96265 0.64361 0.0
O951 O 0.22316 0.92916 0.71848 0.0
C952 C 0.22554 0.96825 0.60337 0.0
H953 H 0.24176 0.93581 0.35282 0.0
H954 H 0.19041 0.95322 0.96304 0.0
H955 H 0.16906 0.89085 0.80121 0.0
H956 H 0.15652 0.90804 0.53864 0.0
Co957 Co 0.05444 0.27115 0.6561 0.0
C958 C 0.05737 0.27194 0.43688 0.0
C959 C 0.06519 0.29559 0.49513 0.0
C960 C 0.06498 0.29638 0.39342 0.0
N961 N 0.06078 0.28029 0.523 0.0
N962 N 0.06 0.28145 0.35685 0.0
H963 H 0.05165 0.25889 0.43251 0.0
H964 H 0.06727 0.30534 0.5446 0.0
C965 C 0.0828 0.30391 0.70684 0.0
O966 O 0.09199 0.30153 0.64441 0.0
N967 N 0.04772 0.26212 0.78768 0.0
C968 C 0.04284 0.24674 0.81489 0.0
C969 C 0.042 0.24576 0.9166 0.0
C970 C 0.04959 0.27025 0.87307 0.0
N971 N 0.04641 0.26061 0.95322 0.0
C972 C 0.07444 0.25797 0.59286 0.0
C973 C 0.09562 0.26928 0.75126 0.0
C974 C 0.09867 0.26141 0.67365 0.0
C975 C 0.08762 0.25534 0.59496 0.0
C976 C 0.08229 0.27163 0.74613 0.0
N977 N 0.0724 0.26683 0.66485 0.0
H978 H 0.06584 0.25273 0.53356 0.0
H979 H 0.08024 0.27779 0.80658 0.0
H980 H 0.04091 0.23709 0.76466 0.0
H981 H 0.05427 0.28319 0.87703 0.0
O982 O 0.03818 0.25081 0.59963 0.0
O983 O 0.03447 0.2714 0.63856 0.0
O984 O 0.06778 0.29338 0.71654 0.0
C985 C 0.02866 0.25697 0.60062 0.0
H986 H 0.06766 0.30702 0.35023 0.0
H987 H 0.03891 0.23505 0.96006 0.0
H988 H 0.10373 0.27405 0.81408 0.0
H989 H 0.08912 0.24859 0.53545 0.0
Co990 Co 0.21423 0.27315 0.65728 0.0
C991 C 0.21209 0.27384 0.43807 0.0
C992 C 0.22739 0.29762 0.49629 0.0
C993 C 0.22839 0.29843 0.39458 0.0
N994 N 0.21684 0.28222 0.52416 0.0
N995 N 0.21878 0.28342 0.35804 0.0
H996 H 0.20506 0.26077 0.43373 0.0
H997 H 0.23486 0.30747 0.54576 0.0
C998 C 0.21774 0.30553 0.70821 0.0
O999 O 0.20606 0.30292 0.646 0.0
N1000 N 0.21213 0.26418 0.78889 0.0
C1001 C 0.20191 0.24872 0.81609 0.0
C1002 C 0.20182 0.24776 0.91779 0.0
C1003 C 0.21825 0.27237 0.87428 0.0
N1004 N 0.21197 0.26268 0.95442 0.0
C1005 C 0.18098 0.25923 0.59353 0.0
C1006 C 0.17063 0.27008 0.75188 0.0
C1007 C 0.15981 0.26207 0.67409 0.0
C1008 C 0.16503 0.25623 0.59543 0.0
C1009 C 0.18645 0.2728 0.74696 0.0
N1010 N 0.19176 0.26823 0.6657 0.0
H1011 H 0.18453 0.25417 0.53422 0.0
H1012 H 0.19459 0.27909 0.80753 0.0
H1013 H 0.19437 0.239 0.76584 0.0
H1014 H 0.22626 0.28535 0.87824 0.0
O1015 O 0.21074 0.25302 0.60106 0.0
O1016 O 0.23477 0.27403 0.64033 0.0
O1017 O 0.22256 0.29526 0.7176 0.0
C1018 C 0.22647 0.25954 0.60264 0.0
H1019 H 0.23612 0.30914 0.35137 0.0
H1020 H 0.19439 0.23698 0.96124 0.0
H1021 H 0.16713 0.2747 0.81468 0.0
H1022 H 0.15687 0.24937 0.53576 0.0
Co1023 Co 0.72455 0.94085 0.65457 0.0
C1024 C 0.72368 0.93786 0.43521 0.0
C1025 C 0.70059 0.93229 0.49375 0.0
C1026 C 0.69984 0.93262 0.39219 0.0
N1027 N 0.71543 0.93512 0.52135 0.0
N1028 N 0.71442 0.93621 0.35536 0.0
H1029 H 0.7366 0.94261 0.43074 0.0
H1030 H 0.69124 0.93123 0.54363 0.0
C1031 C 0.69154 0.91268 0.69433 0.0
O1032 O 0.69428 0.90478 0.62428 0.0
N1033 N 0.73362 0.94709 0.78606 0.0
C1034 C 0.74887 0.95136 0.81297 0.0
C1035 C 0.74989 0.95218 0.91463 0.0
C1036 C 0.7256 0.94555 0.87143 0.0
N1037 N 0.7352 0.94839 0.95135 0.0
C1038 C 0.73782 0.9208 0.59092 0.0
C1039 C 0.72526 0.89897 0.74585 0.0
C1040 C 0.73367 0.89617 0.67046 0.0
C1041 C 0.7403 0.90751 0.59328 0.0
C1042 C 0.72309 0.91239 0.74057 0.0
N1043 N 0.72856 0.92265 0.66103 0.0
H1044 H 0.74359 0.92968 0.53349 0.0
H1045 H 0.71668 0.91432 0.80009 0.0
H1046 H 0.75837 0.95292 0.76249 0.0
H1047 H 0.71277 0.94141 0.87547 0.0
O1048 O 0.74496 0.95716 0.59866 0.0
O1049 O 0.72451 0.96097 0.64012 0.0
O1050 O 0.70222 0.92733 0.71428 0.0
C1051 C 0.73891 0.96677 0.60152 0.0
H1052 H 0.68954 0.93105 0.34935 0.0
H1053 H 0.7605 0.95487 0.95806 0.0
H1054 H 0.72001 0.89066 0.80746 0.0
H1055 H 0.74746 0.9062 0.53558 0.0
Co1056 Co 0.05415 0.7832 0.66959 0.0
C1057 C 0.05729 0.78505 0.45035 0.0
C1058 C 0.06115 0.76641 0.50955 0.0
C1059 C 0.06079 0.76531 0.40787 0.0
N1060 N 0.05942 0.77912 0.53673 0.0
N1061 N 0.0583 0.77703 0.37064 0.0
H1062 H 0.05337 0.79388 0.44551 0.0
H1063 H 0.06153 0.75779 0.55994 0.0
C1064 C 0.08139 0.77655 0.71072 0.0
O1065 O 0.08948 0.78545 0.63426 0.0
N1066 N 0.04845 0.78679 0.80082 0.0
C1067 C 0.04556 0.79872 0.8279 0.0
C1068 C 0.04492 0.79902 0.9297 0.0
C1069 C 0.0493 0.77985 0.88613 0.0
N1070 N 0.04743 0.78724 0.96633 0.0
C1071 C 0.07403 0.81634 0.60317 0.0
C1072 C 0.09734 0.82543 0.74892 0.0
C1073 C 0.09955 0.83661 0.67446 0.0
C1074 C 0.0875 0.832 0.60198 0.0
C1075 C 0.08373 0.80993 0.74706 0.0
N1076 N 0.07271 0.80521 0.67168 0.0
H1077 H 0.06453 0.81338 0.55023 0.0
H1078 H 0.08211 0.80172 0.80684 0.0
H1079 H 0.04484 0.80717 0.77742 0.0
H1080 H 0.05219 0.77023 0.88975 0.0
O1081 O 0.03791 0.78737 0.613 0.0
O1082 O 0.03382 0.7632 0.65915 0.0
O1083 O 0.06732 0.77426 0.73188 0.0
C1084 C 0.02813 0.77176 0.61857 0.0
H1085 H 0.06162 0.75614 0.36522 0.0
H1086 H 0.04324 0.80761 0.97321 0.0
H1087 H 0.10619 0.8285 0.80742 0.0
H1088 H 0.08835 0.84049 0.54559 0.0
Co1089 Co 0.93842 0.5492 0.69962 0.0
C1090 C 0.93936 0.54835 0.91659 0.0
C1091 C 0.96217 0.56683 0.85825 0.0
C1092 C 0.96276 0.56777 0.96018 0.0
N1093 N 0.94749 0.55462 0.83141 0.0
N1094 N 0.94833 0.5562 0.99683 0.0
H1095 H 0.92681 0.53875 0.91907 0.0
H1096 H 0.97157 0.57483 0.80745 0.0
C1097 C 0.96446 0.54901 0.57902 0.0
O1098 O 0.95327 0.53448 0.5499 0.0
N1099 N 0.92917 0.5444 0.56629 0.0
C1100 C 0.91361 0.53448 0.53852 0.0
C1101 C 0.91257 0.53478 0.43695 0.0
C1102 C 0.93698 0.55154 0.48114 0.0
N1103 N 0.92736 0.5454 0.40092 0.0
C1104 C 0.9201 0.51389 0.7081 0.0
C1105 C 0.94635 0.51061 0.76162 0.0
C1106 C 0.93162 0.49666 0.73906 0.0
C1107 C 0.91818 0.49835 0.71575 0.0
C1108 C 0.9477 0.5258 0.75292 0.0
N1109 N 0.93501 0.52739 0.71929 0.0
H1110 H 0.90956 0.51495 0.69402 0.0
H1111 H 0.95924 0.5364 0.76987 0.0
H1112 H 0.90347 0.52787 0.58779 0.0
H1113 H 0.94957 0.56095 0.47738 0.0
O1114 O 0.91815 0.54598 0.75172 0.0
O1115 O 0.93832 0.56941 0.69617 0.0
O1116 O 0.96081 0.55686 0.64125 0.0
C1117 C 0.92407 0.56146 0.73776 0.0
H1118 H 0.97295 0.57654 1.00348 0.0
H1119 H 0.90171 0.52787 0.39319 0.0
H1120 H 0.95686 0.50983 0.78451 0.0
H1121 H 0.90642 0.48783 0.70125 0.0
Co1122 Co 0.44843 0.38913 0.7064 0.0
C1123 C 0.44982 0.39128 0.92357 0.0
C1124 C 0.43244 0.39722 0.8652 0.0
C1125 C 0.4315 0.39696 0.96702 0.0
N1126 N 0.44397 0.3937 0.83834 0.0
N1127 N 0.44233 0.39306 1.00336 0.0
H1128 H 0.45901 0.38776 0.92688 0.0
H1129 H 0.42471 0.39906 0.81451 0.0
C1130 C 0.44827 0.41529 0.58553 0.0
O1131 O 0.46268 0.41864 0.55362 0.0
N1132 N 0.45212 0.38374 0.57277 0.0
C1133 C 0.46085 0.37679 0.54405 0.0
C1134 C 0.46026 0.37541 0.44246 0.0
C1135 C 0.44524 0.38507 0.48838 0.0
N1136 N 0.45061 0.38089 0.40743 0.0
C1137 C 0.48366 0.40565 0.69721 0.0
C1138 C 0.48845 0.4355 0.75718 0.0
C1139 C 0.50181 0.43426 0.72588 0.0
C1140 C 0.49937 0.41906 0.69765 0.0
C1141 C 0.47296 0.42188 0.75361 0.0
N1142 N 0.47057 0.40737 0.71837 0.0
H1143 H 0.48218 0.39397 0.68062 0.0
H1144 H 0.46275 0.4232 0.77551 0.0
H1145 H 0.467 0.37263 0.59282 0.0
H1146 H 0.43617 0.3887 0.4858 0.0
O1147 O 0.45171 0.37221 0.75997 0.0
O1148 O 0.42802 0.36897 0.71017 0.0
O1149 O 0.4407 0.40381 0.64841 0.0
C1150 C 0.43611 0.36273 0.75057 0.0
H1151 H 0.42291 0.39865 0.0106 0.0
H1152 H 0.46668 0.37096 0.39813 0.0
H1153 H 0.48989 0.44702 0.78086 0.0
H1154 H 0.50953 0.41754 0.67677 0.0
Co1155 Co 0.60707 0.059 0.68998 0.0
C1156 C 0.60411 0.0582 0.90916 0.0
C1157 C 0.59619 0.03453 0.85092 0.0
C1158 C 0.59639 0.03373 0.95265 0.0
N1159 N 0.60068 0.04984 0.82303 0.0
N1160 N 0.60145 0.04868 0.98922 0.0
H1161 H 0.60987 0.07125 0.91352 0.0
H1162 H 0.59405 0.02475 0.80146 0.0
C1163 C 0.57877 0.02623 0.63794 0.0
O1164 O 0.56944 0.0285 0.69986 0.0
N1165 N 0.61385 0.06805 0.55844 0.0
C1166 C 0.61873 0.08343 0.53122 0.0
C1167 C 0.61958 0.0844 0.4295 0.0
C1168 C 0.61198 0.05992 0.47302 0.0
N1169 N 0.61515 0.06956 0.39285 0.0
C1170 C 0.58698 0.07208 0.75322 0.0
C1171 C 0.56583 0.06074 0.59469 0.0
C1172 C 0.56267 0.06848 0.67259 0.0
C1173 C 0.57372 0.07459 0.7513 0.0
C1174 C 0.57924 0.05852 0.59963 0.0
N1175 N 0.5891 0.06331 0.681 0.0
H1176 H 0.59555 0.07732 0.81265 0.0
H1177 H 0.58135 0.05242 0.53904 0.0
H1178 H 0.62066 0.09308 0.58145 0.0
H1179 H 0.6073 0.04698 0.46905 0.0
O1180 O 0.62334 0.07932 0.74676 0.0
O1181 O 0.627 0.0587 0.70774 0.0
O1182 O 0.59379 0.0368 0.62923 0.0
C1183 C 0.63283 0.07311 0.74595 0.0
H1184 H 0.59368 0.02309 0.99585 0.0
H1185 H 0.62266 0.09512 0.38606 0.0
H1186 H 0.55773 0.05595 0.53182 0.0
H1187 H 0.57214 0.08126 0.81104 0.0
C1188 C 0.10274 0.42951 0.15319 0.0
C1189 C 0.09379 0.413 0.12782 0.0
H1190 H 0.10241 0.44974 0.22044 0.0
C1191 C 0.07734 0.404 0.15441 0.0
H1192 H 0.11548 0.43671 0.13411 0.0
C1193 C 0.06997 0.41135 0.20565 0.0
C1194 C 0.07885 0.4279 0.23002 0.0
H1195 H 0.07018 0.39121 0.13684 0.0
H1196 H 0.05723 0.40412 0.22458 0.0
C1197 C 0.09529 0.43693 0.20301 0.0
C1198 C 0.5558 0.65666 0.20554 0.0
C1199 C 0.5649 0.64934 0.23277 0.0
H1200 H 0.55586 0.67684 0.1341 0.0
C1201 C 0.58131 0.65675 0.20502 0.0
H1202 H 0.54309 0.65113 0.22537 0.0
C1203 C 0.58847 0.67116 0.1507 0.0
C1204 C 0.57944 0.67861 0.12447 0.0
H1205 H 0.58857 0.65127 0.2238 0.0
H1206 H 0.60117 0.67664 0.13102 0.0
C1207 C 0.56306 0.67128 0.1528 0.0
C1208 C 0.32457 0.91651 0.13008 0.0
C1209 C 0.31689 0.89995 0.10594 0.0
H1210 H 0.34472 0.93659 0.20065 0.0
C1211 C 0.32409 0.89083 0.13531 0.0
H1212 H 0.31921 0.92381 0.10946 0.0
C1213 C 0.3388 0.89819 0.18714 0.0
C1214 C 0.34635 0.91472 0.21229 0.0
H1215 H 0.31837 0.87801 0.11818 0.0
H1216 H 0.34421 0.89095 0.20798 0.0
C1217 C 0.33908 0.92378 0.18338 0.0
C1218 C 0.4357 0.09473 0.81711 0.0
C1219 C 0.42673 0.07818 0.79276 0.0
H1220 H 0.43539 0.11512 0.88188 0.0
C1221 C 0.41024 0.06927 0.81883 0.0
H1222 H 0.44846 0.10186 0.79836 0.0
C1223 C 0.40286 0.07676 0.86848 0.0
C1224 C 0.41177 0.09336 0.89165 0.0
H1225 H 0.40307 0.05645 0.80197 0.0
H1226 H 0.39009 0.06962 0.88696 0.0
C1227 C 0.42825 0.10228 0.86532 0.0
C1228 C 0.89734 0.33882 0.81793 0.0
C1229 C 0.91372 0.34622 0.78942 0.0
H1230 H 0.87732 0.31841 0.88826 0.0
C1231 C 0.92263 0.3385 0.81175 0.0
H1232 H 0.89023 0.34458 0.80217 0.0
C1233 C 0.9154 0.32381 0.86324 0.0
C1234 C 0.89903 0.3164 0.89185 0.0
H1235 H 0.93534 0.34402 0.79181 0.0
H1236 H 0.92259 0.31815 0.87961 0.0
C1237 C 0.89 0.32393 0.86772 0.0
C1238 C 0.67242 0.59182 0.85324 0.0
C1239 C 0.67991 0.58297 0.88262 0.0
H1240 H 0.65228 0.59138 0.77978 0.0
C1241 C 0.67251 0.56641 0.85877 0.0
H1242 H 0.67795 0.60464 0.86955 0.0
C1243 C 0.65773 0.55878 0.80777 0.0
C1244 C 0.6503 0.56766 0.77794 0.0
H1245 H 0.67808 0.55933 0.88005 0.0
H1246 H 0.65214 0.54594 0.79177 0.0
C1247 C 0.65783 0.58426 0.80073 0.0
C1248 C 0.89225 0.56872 0.85624 0.0
C1249 C 0.90127 0.58535 0.87816 0.0
H1250 H 0.89242 0.54809 0.7942 0.0
C1251 C 0.91762 0.59422 0.84905 0.0
H1252 H 0.87959 0.56161 0.87726 0.0
C1253 C 0.92485 0.58657 0.79943 0.0
C1254 C 0.91593 0.56986 0.77947 0.0
H1255 H 0.92481 0.60711 0.86386 0.0
H1256 H 0.93754 0.59366 0.77915 0.0
C1257 C 0.89956 0.561 0.80821 0.0
C1258 C 0.41134 0.33861 0.81862 0.0
C1259 C 0.4279 0.3463 0.79423 0.0
H1260 H 0.39107 0.31792 0.88484 0.0
C1261 C 0.43684 0.3387 0.81885 0.0
H1262 H 0.4042 0.3443 0.80166 0.0
C1263 C 0.42933 0.32359 0.86595 0.0
C1264 C 0.4128 0.31596 0.89119 0.0
H1265 H 0.44966 0.34441 0.80147 0.0
H1266 H 0.43647 0.31791 0.88281 0.0
C1267 C 0.40389 0.32363 0.86742 0.0
C1268 C 0.67049 0.07951 0.87906 0.0
C1269 C 0.6781 0.09606 0.90335 0.0
H1270 H 0.65043 0.0594 0.80811 0.0
C1271 C 0.67086 0.10514 0.87377 0.0
H1272 H 0.67589 0.07225 0.89981 0.0
C1273 C 0.65619 0.09774 0.82163 0.0
C1274 C 0.6487 0.08123 0.79641 0.0
H1275 H 0.67652 0.11795 0.89097 0.0
H1276 H 0.65075 0.10495 0.80066 0.0
C1277 C 0.65602 0.0722 0.82545 0.0
C1278 C 0.55905 0.90096 0.18819 0.0
C1279 C 0.56816 0.91756 0.21112 0.0
H1280 H 0.55909 0.88033 0.12522 0.0
C1281 C 0.58458 0.92633 0.18342 0.0
H1282 H 0.54634 0.89393 0.20815 0.0
C1283 C 0.59178 0.91863 0.13396 0.0
C1284 C 0.58275 0.90197 0.1127 0.0
H1285 H 0.59184 0.93918 0.1991 0.0
H1286 H 0.60452 0.92565 0.11456 0.0
C1287 C 0.56632 0.89321 0.14027 0.0
C1288 C 0.10483 0.67196 0.14028 0.0
C1289 C 0.09581 0.67931 0.11157 0.0
H1290 H 0.10454 0.6517 0.21229 0.0
C1291 C 0.07929 0.6718 0.1367 0.0
H1292 H 0.11762 0.67756 0.12244 0.0
C1293 C 0.07194 0.65729 0.19009 0.0
C1294 C 0.08089 0.64985 0.21809 0.0
H1295 H 0.07207 0.67727 0.11669 0.0
H1296 H 0.05916 0.65177 0.20795 0.0
C1297 C 0.09738 0.65725 0.19216 0.0
C1298 C 0.33751 0.43755 0.21017 0.0
C1299 C 0.34477 0.42835 0.23677 0.0
H1300 H 0.31726 0.43764 0.14108 0.0
C1301 C 0.33697 0.41182 0.21182 0.0
H1302 H 0.3433 0.45034 0.2281 0.0
C1303 C 0.32229 0.40466 0.1602 0.0
C1304 C 0.315 0.41383 0.13382 0.0
H1305 H 0.34236 0.40447 0.23045 0.0
H1306 H 0.31656 0.39189 0.14207 0.0
C1307 C 0.32267 0.43031 0.15995 0.0
C1308 C 0.77039 0.76351 0.49427 0.0
C1309 C 0.76137 0.74699 0.46911 0.0
H1310 H 0.77025 0.78373 0.56337 0.0
C1311 C 0.74504 0.73796 0.49825 0.0
H1312 H 0.78304 0.77074 0.47329 0.0
C1313 C 0.73786 0.74528 0.55174 0.0
C1314 C 0.74679 0.76184 0.57582 0.0
H1315 H 0.73784 0.72516 0.48098 0.0
H1316 H 0.7252 0.73801 0.57249 0.0
C1317 C 0.76311 0.77091 0.54629 0.0
C1318 C 0.23135 0.00628 0.47626 0.0
C1319 C 0.2478 0.01386 0.44908 0.0
H1320 H 0.21135 0.98583 0.5464 0.0
C1321 C 0.25687 0.0064 0.47386 0.0
H1322 H 0.2241 0.01182 0.45856 0.0
C1323 C 0.2497 0.99178 0.5263 0.0
C1324 C 0.23326 0.9842 0.55353 0.0
H1325 H 0.26962 0.01207 0.45495 0.0
H1326 H 0.25701 0.98633 0.54445 0.0
C1327 C 0.22409 0.99148 0.52707 0.0
C1328 C 0.0053 0.23219 0.52636 0.0
C1329 C 0.01272 0.24872 0.55093 0.0
H1330 H 0.98498 0.21182 0.45801 0.0
C1331 C 0.00527 0.25762 0.52194 0.0
H1332 H 0.01084 0.22506 0.54734 0.0
C1333 C 0.99073 0.25016 0.46891 0.0
C1334 C 0.98321 0.23359 0.44516 0.0
H1335 H 0.0108 0.27043 0.53883 0.0
H1336 H 0.98524 0.25733 0.4481 0.0
C1337 C 0.99058 0.22464 0.47479 0.0
C1338 C 0.22566 0.23498 0.53053 0.0
C1339 C 0.23454 0.25151 0.55516 0.0
H1340 H 0.22612 0.2147 0.46528 0.0
C1341 C 0.25103 0.26053 0.52918 0.0
H1342 H 0.21291 0.22776 0.54921 0.0
C1343 C 0.25849 0.25314 0.47931 0.0
C1344 C 0.24967 0.23656 0.45583 0.0
H1345 H 0.25813 0.27334 0.54627 0.0
H1346 H 0.27126 0.26036 0.46089 0.0
C1347 C 0.23319 0.22753 0.48208 0.0
C1348 C 0.76369 0.99025 0.5276 0.0
C1349 C 0.74717 0.9828 0.55276 0.0
H1350 H 0.78401 0.01066 0.45931 0.0
C1351 C 0.73825 0.99029 0.52504 0.0
H1352 H 0.77083 0.98467 0.5476 0.0
C1353 C 0.74567 0.00488 0.47257 0.0
C1354 C 0.76222 0.01243 0.44815 0.0
H1355 H 0.72545 0.98473 0.54237 0.0
H1356 H 0.73847 0.01039 0.45266 0.0
C1357 C 0.77121 0.00504 0.47665 0.0
C1358 C 0.99014 0.76553 0.48866 0.0
C1359 C 0.9826 0.749 0.46387 0.0
H1360 H 0.01057 0.78578 0.55716 0.0
C1361 C 0.98992 0.73997 0.49281 0.0
H1362 H 0.9847 0.77275 0.46774 0.0
C1363 C 0.00445 0.7473 0.54591 0.0
C1364 C 0.01211 0.76388 0.56977 0.0
H1365 H 0.9843 0.72716 0.47579 0.0
H1366 H 0.00984 0.74003 0.56661 0.0
C1367 C 0.00487 0.77296 0.54027 0.0
C1368 C 0.19369 0.40681 0.92193 0.0
C1369 C 0.18446 0.40336 0.00902 0.0
H1370 H 0.21531 0.40967 0.85397 0.0
C1371 C 0.19058 0.40059 0.09698 0.0
H1372 H 0.18943 0.40924 0.85328 0.0
C1373 C 0.20537 0.40082 0.09739 0.0
C1374 C 0.21442 0.40384 0.00984 0.0
H1375 H 0.18367 0.39764 0.16502 0.0
H1376 H 0.20942 0.39804 0.16571 0.0
C1377 C 0.20852 0.40705 0.92235 0.0
C1378 C 0.58917 0.7873 0.95623 0.0
C1379 C 0.59368 0.78129 0.0378 0.0
H1380 H 0.58608 0.8066 0.8986 0.0
C1381 C 0.59811 0.79012 0.12663 0.0
H1382 H 0.58564 0.78066 0.88713 0.0
C1383 C 0.59855 0.80498 0.1328 0.0
C1384 C 0.59427 0.81112 0.05083 0.0
H1385 H 0.60173 0.78576 0.19033 0.0
H1386 H 0.60239 0.81178 0.2013 0.0
C1387 C 0.58931 0.80203 0.96301 0.0
C1388 C 0.20655 0.8043 0.09091 0.0
C1389 C 0.2147 0.81102 1.00143 0.0
H1390 H 0.18556 0.78505 0.16121 0.0
C1391 C 0.20813 0.80243 0.91308 0.0
H1392 H 0.2112 0.81069 0.16012 0.0
C1393 C 0.19346 0.78776 0.91372 0.0
C1394 C 0.185 0.78132 1.00272 0.0
H1395 H 0.21429 0.80712 0.84317 0.0
H1396 H 0.18867 0.7815 0.84427 0.0
C1397 C 0.19185 0.7896 0.09154 0.0
C1398 C 0.4057 0.2093 0.04539 0.0
C1399 C 0.40044 0.21332 0.95827 0.0
H1400 H 0.40944 0.19161 0.12112 0.0
C1401 C 0.39573 0.20272 0.87717 0.0
H1402 H 0.40927 0.21724 0.10915 0.0
C1403 C 0.39599 0.1882 0.88364 0.0
C1404 C 0.4007 0.1839 0.97188 0.0
H1405 H 0.39166 0.20558 0.80917 0.0
H1406 H 0.39198 0.18007 0.82069 0.0
C1407 C 0.40569 0.19463 0.05247 0.0
C1408 C 0.78675 0.19387 0.09524 0.0
C1409 C 0.78014 0.18519 1.00722 0.0
H1410 H 0.80631 0.21482 0.1633 0.0
C1411 C 0.78831 0.19175 0.91758 0.0
H1412 H 0.78059 0.18929 0.16525 0.0
C1413 C 0.80306 0.20637 0.91645 0.0
C1414 C 0.80995 0.21475 1.00495 0.0
H1415 H 0.78362 0.18527 0.84865 0.0
H1416 H 0.80936 0.21079 0.84669 0.0
C1417 C 0.80148 0.20849 0.09411 0.0
C1418 C 0.79003 0.59798 0.91492 0.0
C1419 C 0.78116 0.59506 1.0031 0.0
H1420 H 0.81159 0.60108 0.84573 0.0
C1421 C 0.78722 0.59194 0.0902 0.0
H1422 H 0.78584 0.60069 0.84686 0.0
C1423 C 0.80203 0.59217 0.08955 0.0
C1424 C 0.81109 0.59552 1.00179 0.0
H1425 H 0.78056 0.5894 0.15904 0.0
H1426 H 0.80642 0.58979 0.1579 0.0
C1427 C 0.80481 0.59821 0.91427 0.0
C1428 C 0.86054 0.74014 0.25534 0.0
C1429 C 0.85143 0.73674 0.34295 0.0
H1430 H 0.88207 0.74298 0.18618 0.0
C1431 C 0.85767 0.73398 0.43047 0.0
H1432 H 0.85619 0.74256 0.18699 0.0
C1433 C 0.87247 0.73423 0.43002 0.0
C1434 C 0.8814 0.73724 0.34202 0.0
H1435 H 0.85085 0.73106 0.49889 0.0
H1436 H 0.87662 0.73149 0.49808 0.0
C1437 C 0.87536 0.74039 0.25489 0.0
C1438 C 0.26551 0.14176 0.46008 0.0
C1439 C 0.26084 0.14624 0.37233 0.0
H1440 H 0.26968 0.12417 0.53313 0.0
C1441 C 0.25577 0.13561 0.29118 0.0
H1442 H 0.26957 0.1498 0.52344 0.0
C1443 C 0.25565 0.12088 0.29719 0.0
C1444 C 0.26086 0.11669 0.38381 0.0
H1445 H 0.25205 0.13877 0.22291 0.0
H1446 H 0.25202 0.11303 0.233 0.0
C1447 C 0.26565 0.12718 0.46549 0.0
C1448 C 0.8732 0.13724 0.42904 0.0
C1449 C 0.88142 0.14393 0.3397 0.0
H1450 H 0.85213 0.11804 0.49901 0.0
C1451 C 0.87491 0.13532 0.25134 0.0
H1452 H 0.87781 0.14365 0.49824 0.0
C1453 C 0.86021 0.12067 0.25178 0.0
C1454 C 0.85167 0.11428 0.3406 0.0
H1455 H 0.88111 0.13998 0.18154 0.0
H1456 H 0.85545 0.11441 0.18232 0.0
C1457 C 0.85848 0.12257 0.42948 0.0
C1458 C 0.06574 0.5246 0.24723 0.0
C1459 C 0.06772 0.51811 0.33617 0.0
H1460 H 0.06374 0.54372 0.17741 0.0
C1461 C 0.0704 0.52701 0.424 0.0
H1462 H 0.06344 0.51796 0.17849 0.0
C1463 C 0.07058 0.54179 0.42338 0.0
C1464 C 0.06808 0.54802 0.33492 0.0
H1465 H 0.07226 0.5225 0.49347 0.0
H1466 H 0.07259 0.54829 0.49239 0.0
C1467 C 0.06591 0.53937 0.24661 0.0
C1468 C 0.46725 0.54141 0.43254 0.0
C1469 C 0.47598 0.54768 0.34421 0.0
H1470 H 0.44615 0.52221 0.50195 0.0
C1471 C 0.46939 0.53928 0.25537 0.0
H1472 H 0.47186 0.54776 0.50191 0.0
C1473 C 0.45468 0.52462 0.25539 0.0
C1474 C 0.44622 0.51805 0.34424 0.0
H1475 H 0.47591 0.54371 0.18626 0.0
H1476 H 0.45027 0.51812 0.18627 0.0
C1477 C 0.45253 0.52677 0.43254 0.0
C1478 C 0.45375 0.9235 0.42165 0.0
C1479 C 0.44764 0.92659 0.33462 0.0
H1480 H 0.47306 0.92154 0.48932 0.0
C1481 C 0.45657 0.92968 0.24655 0.0
H1482 H 0.44705 0.92084 0.49041 0.0
C1483 C 0.47144 0.93007 0.24592 0.0
C1484 C 0.47775 0.9274 0.33336 0.0
H1485 H 0.45236 0.93238 0.17856 0.0
H1486 H 0.47825 0.93305 0.17747 0.0
C1487 C 0.46865 0.92391 0.42103 0.0
C1488 C 0.52386 0.06626 0.76193 0.0
C1489 C 0.51759 0.0689 0.67418 0.0
H1490 H 0.54285 0.06388 0.82989 0.0
C1491 C 0.52672 0.07232 0.58667 0.0
H1492 H 0.51702 0.06335 0.83029 0.0
C1493 C 0.54157 0.07263 0.58644 0.0
C1494 C 0.54761 0.06954 0.67371 0.0
H1495 H 0.52234 0.07466 0.51816 0.0
H1496 H 0.54828 0.07521 0.51775 0.0
C1497 C 0.53868 0.06657 0.7617 0.0
C1498 C 0.91751 0.46674 0.77808 0.0
C1499 C 0.93072 0.48065 0.7368 0.0
H1500 H 0.90726 0.44147 0.81327 0.0
C1501 C 0.94343 0.47935 0.69349 0.0
H1502 H 0.90755 0.4674 0.81206 0.0
C1503 C 0.94327 0.46465 0.69415 0.0
C1504 C 0.93038 0.45084 0.73817 0.0
H1505 H 0.95356 0.48975 0.65872 0.0
H1506 H 0.95328 0.4641 0.65986 0.0
C1507 C 0.91735 0.45192 0.77877 0.0
C1508 C 0.52442 0.45948 0.8009 0.0
C1509 C 0.51807 0.44891 0.71992 0.0
H1510 H 0.54377 0.48202 0.8557 0.0
C1511 C 0.52688 0.45289 0.63101 0.0
H1512 H 0.51783 0.45664 0.87021 0.0
C1513 C 0.54156 0.4675 0.62221 0.0
C1514 C 0.5478 0.47818 0.70283 0.0
H1515 H 0.52214 0.44497 0.56736 0.0
H1516 H 0.54799 0.4705 0.55231 0.0
C1517 C 0.53924 0.47392 0.79271 0.0
C1518 C 0.73739 0.87515 0.76081 0.0
C1519 C 0.73506 0.88129 0.67143 0.0
H1520 H 0.73883 0.85588 0.83306 0.0
C1521 C 0.73312 0.87259 0.58365 0.0
H1522 H 0.73925 0.88171 0.82947 0.0
C1523 C 0.73295 0.85782 0.58572 0.0
C1524 C 0.73467 0.85141 0.67563 0.0
H1525 H 0.7311 0.87687 0.51374 0.0
H1526 H 0.73085 0.85113 0.51737 0.0
C1527 C 0.73716 0.86036 0.76291 0.0
C1528 C 0.13729 0.87405 0.58061 0.0
C1529 C 0.14429 0.88242 0.66898 0.0
H1530 H 0.11776 0.85297 0.5132 0.0
C1531 C 0.13593 0.87612 0.75843 0.0
H1532 H 0.1435 0.87849 0.51061 0.0
C1533 C 0.12119 0.8615 0.75991 0.0
C1534 C 0.11446 0.85284 0.67199 0.0
H1535 H 0.14083 0.88244 0.82756 0.0
H1536 H 0.11511 0.85693 0.83015 0.0
C1537 C 0.12253 0.85942 0.5821 0.0
C1538 C 0.11954 0.25697 0.76027 0.0
C1539 C 0.11362 0.26017 0.67284 0.0
H1540 H 0.1386 0.25472 0.82899 0.0
C1541 C 0.12256 0.26305 0.58501 0.0
H1542 H 0.1128 0.25446 0.82882 0.0
C1543 C 0.13731 0.2632 0.5851 0.0
C1544 C 0.14347 0.26048 0.67303 0.0
H1545 H 0.11847 0.2658 0.51671 0.0
H1546 H 0.14417 0.26607 0.51688 0.0
C1547 C 0.13431 0.25712 0.76036 0.0
C1548 C 0.1061 0.32495 0.80535 0.0
C1549 C 0.08998 0.31818 0.77267 0.0
H1550 H 0.12498 0.34284 0.89708 0.0
C1551 C 0.08046 0.32459 0.80772 0.0
H1552 H 0.11364 0.32009 0.78027 0.0
C1553 C 0.08699 0.33771 0.87307 0.0
C1554 C 0.10303 0.34434 0.90694 0.0
H1555 H 0.06797 0.31955 0.78388 0.0
H1556 H 0.07945 0.34257 0.89787 0.0
C1557 C 0.11251 0.3378 0.87297 0.0
C1558 C 0.64741 0.75429 0.81256 0.0
C1559 C 0.6499 0.75554 0.91545 0.0
H1560 H 0.65844 0.75995 0.66856 0.0
C1561 C 0.66579 0.76365 0.95253 0.0
H1562 H 0.63523 0.7482 0.78238 0.0
C1563 C 0.679 0.76994 0.88757 0.0
C1564 C 0.6765 0.76868 0.78468 0.0
H1565 H 0.66797 0.76473 0.03156 0.0
H1566 H 0.69118 0.77592 0.91776 0.0
C1567 C 0.66062 0.76106 0.7476 0.0
C1568 C 0.23128 0.90088 0.93217 0.0
C1569 C 0.24024 0.89398 0.89544 0.0
H1570 H 0.21821 0.91319 0.8968 0.0
C1571 C 0.24227 0.89351 0.79264 0.0
H1572 H 0.22954 0.90133 0.01106 0.0
C1573 C 0.23553 0.89997 0.72754 0.0
C1574 C 0.22708 0.90738 0.76456 0.0
H1575 H 0.24894 0.88803 0.76253 0.0
H1576 H 0.23726 0.89954 0.64863 0.0
C1577 C 0.22494 0.90774 0.86715 0.0
C1578 C 0.31614 0.10212 0.1159 0.0
C1579 C 0.31251 0.09039 0.18996 0.0
H1580 H 0.33288 0.11739 1.00529 0.0
C1581 C 0.32388 0.08546 0.21072 0.0
H1582 H 0.30768 0.10623 0.09788 0.0
C1583 C 0.33839 0.09188 0.1571 0.0
C1584 C 0.34183 0.10336 0.08159 0.0
H1585 H 0.32145 0.07643 0.26717 0.0
H1586 H 0.34682 0.0877 0.17416 0.0
C1587 C 0.33059 0.1085 0.06235 0.0
C1588 C 0.90051 0.23155 0.06726 0.0
C1589 C 0.89281 0.23973 0.10424 0.0
H1590 H 0.91353 0.21919 0.10223 0.0
C1591 C 0.89156 0.241 0.20709 0.0
H1592 H 0.9016 0.23045 0.98824 0.0
C1593 C 0.89795 0.2342 0.27216 0.0
C1594 C 0.90613 0.2265 0.23516 0.0
H1595 H 0.88552 0.24714 0.23716 0.0
H1596 H 0.89688 0.23533 0.35117 0.0
C1597 C 0.90737 0.22521 0.13231 0.0
C1598 C 0.77314 0.65913 0.13903 0.0
C1599 C 0.75705 0.65245 0.10584 0.0
H1600 H 0.79192 0.67678 0.23228 0.0
C1601 C 0.7475 0.65878 0.14164 0.0
H1602 H 0.78069 0.65433 0.11342 0.0
C1603 C 0.75397 0.67173 0.20823 0.0
C1604 C 0.76997 0.67827 0.2426 0.0
H1605 H 0.73504 0.6538 0.11747 0.0
H1606 H 0.74641 0.67654 0.23357 0.0
C1607 C 0.77948 0.67181 0.20785 0.0
C1608 C 0.88939 0.6733 0.2055 0.0
C1609 C 0.90544 0.67994 0.23918 0.0
H1610 H 0.87067 0.65572 0.11162 0.0
C1611 C 0.91502 0.67361 0.20356 0.0
H1612 H 0.88183 0.67811 0.23096 0.0
C1613 C 0.90858 0.66071 0.13669 0.0
C1614 C 0.89261 0.6542 0.10188 0.0
H1615 H 0.92745 0.67856 0.22809 0.0
H1616 H 0.91615 0.65589 0.11151 0.0
C1617 C 0.88309 0.66066 0.13641 0.0
C1618 C 0.3453 0.22803 0.22732 0.0
C1619 C 0.34861 0.23942 0.15159 0.0
H1620 H 0.32897 0.21318 0.34087 0.0
C1621 C 0.33715 0.24424 0.13116 0.0
H1622 H 0.35386 0.22405 0.2453 0.0
C1623 C 0.32283 0.23801 0.18657 0.0
C1624 C 0.31969 0.22683 0.26352 0.0
H1625 H 0.33935 0.25303 0.07357 0.0
H1626 H 0.31432 0.24208 0.16961 0.0
C1627 C 0.33103 0.22183 0.28262 0.0
C1628 C 0.7609 0.09737 0.27827 0.0
C1629 C 0.76866 0.08931 0.2401 0.0
H1630 H 0.74773 0.10964 0.24517 0.0
C1631 C 0.76982 0.08815 0.13708 0.0
H1632 H 0.75987 0.09837 0.35744 0.0
C1633 C 0.7633 0.09497 0.07302 0.0
C1634 C 0.75507 0.10255 0.11118 0.0
H1635 H 0.77588 0.0821 0.10612 0.0
H1636 H 0.76432 0.09395 0.99385 0.0
C1637 C 0.75391 0.1037 0.2142 0.0
C1638 C 0.66484 0.88812 0.73308 0.0
C1639 C 0.67627 0.90444 0.75196 0.0
H1640 H 0.64173 0.86778 0.76846 0.0
C1641 C 0.67297 0.9127 0.82661 0.0
H1642 H 0.66702 0.88136 0.67666 0.0
C1643 C 0.65839 0.90486 0.8798 0.0
C1644 C 0.64684 0.88861 0.85939 0.0
H1645 H 0.68156 0.92527 0.84336 0.0
H1646 H 0.65607 0.9116 0.93562 0.0
C1647 C 0.65033 0.8803 0.78617 0.0
C1648 C 0.09775 0.76302 0.73921 0.0
C1649 C 0.0889 0.76994 0.7774 0.0
H1650 H 0.11079 0.75059 0.77224 0.0
C1651 C 0.08703 0.77032 0.8804 0.0
H1652 H 0.09936 0.76262 0.66012 0.0
C1653 C 0.09386 0.76379 0.94429 0.0
C1654 C 0.10221 0.75637 0.90584 0.0
H1655 H 0.08043 0.7758 0.91157 0.0
H1656 H 0.09225 0.76416 0.0234 0.0
C1657 C 0.10416 0.75606 0.80302 0.0
C1658 C 0.21509 0.32631 0.80711 0.0
C1659 C 0.22461 0.31974 0.77428 0.0
H1660 H 0.21381 0.34396 0.89962 0.0
C1661 C 0.24053 0.32626 0.80983 0.0
H1662 H 0.2027 0.32136 0.78163 0.0
C1663 C 0.24692 0.33925 0.87594 0.0
C1664 C 0.23736 0.34568 0.90995 0.0
H1665 H 0.2481 0.32137 0.78591 0.0
H1666 H 0.25932 0.34418 0.90113 0.0
C1667 C 0.22135 0.33907 0.87542 0.0
C1668 C 0.99668 0.44075 0.40502 0.0
C1669 C 0.00822 0.43604 0.42507 0.0
H1670 H 0.97356 0.43796 0.44001 0.0
C1671 C 0.00504 0.42469 0.50102 0.0
H1672 H -0.00125 0.44951 0.34745 0.0
C1673 C 0.99051 0.41804 0.55469 0.0
C1674 C 0.97889 0.42262 0.53348 0.0
H1675 H 0.0137 0.42083 0.5186 0.0
H1676 H 0.98829 0.40916 0.61173 0.0
C1677 C 0.98223 0.43415 0.45857 0.0
C1678 C 0.57256 0.55743 0.47449 0.0
C1679 C 0.57224 0.55954 0.57715 0.0
H1680 H 0.56611 0.56208 0.33085 0.0
C1681 C 0.56483 0.56797 0.61451 0.0
H1682 H 0.57805 0.55075 0.44453 0.0
C1683 C 0.55836 0.57475 0.54971 0.0
C1684 C 0.5588 0.57276 0.44686 0.0
H1685 H 0.56446 0.56972 0.69345 0.0
H1686 H 0.5529 0.58143 0.58005 0.0
C1687 C 0.56567 0.56379 0.40979 0.0
C1688 C 0.43953 0.99039 0.47139 0.0
C1689 C 0.42349 0.98369 0.43727 0.0
H1690 H 0.45819 0.00812 0.56496 0.0
C1691 C 0.41388 0.99003 0.47192 0.0
H1692 H 0.44712 0.98557 0.44671 0.0
C1693 C 0.42026 0.00302 0.53815 0.0
C1694 C 0.43622 0.00961 0.57327 0.0
H1695 H 0.40145 0.98504 0.44706 0.0
H1696 H 0.41265 0.00784 0.56253 0.0
C1697 C 0.44578 0.00312 0.53985 0.0
C1698 C 0.5751 0.99293 0.46911 0.0
C1699 C 0.55915 0.98636 0.43375 0.0
H1700 H 0.59384 0.01085 0.56088 0.0
C1701 C 0.54954 0.99276 0.4677 0.0
H1702 H 0.58273 0.98817 0.4444 0.0
C1703 C 0.55574 0.00541 0.53675 0.0
C1704 C 0.57177 0.01211 0.57095 0.0
H1705 H 0.53714 0.98776 0.44247 0.0
H1706 H 0.54811 0.01017 0.56173 0.0
C1707 C 0.58142 0.00584 0.53594 0.0
C1708 C 0.00674 0.5806 0.4945 0.0
C1709 C 0.00979 0.57209 0.42026 0.0
H1710 H 0.99009 0.57999 0.60375 0.0
C1711 C -0.00187 0.55582 0.40229 0.0
H1712 H 0.01551 0.59315 0.51057 0.0
C1713 C 0.98367 0.5483 0.45589 0.0
C1714 C 0.98044 0.55685 0.52877 0.0
H1715 H 0.00011 0.54886 0.34622 0.0
H1716 H 0.9749 0.53579 0.4389 0.0
C1717 C 0.9922 0.57306 0.54822 0.0
C1718 C 0.41578 0.42505 0.50645 0.0
C1719 C 0.4237 0.43626 0.42953 0.0
H1720 H 0.41734 0.4097 0.61697 0.0
C1721 C 0.4399 0.44096 0.40771 0.0
H1722 H 0.40332 0.42122 0.52544 0.0
C1723 C 0.44793 0.43444 0.46036 0.0
C1724 C 0.43996 0.42303 0.5361 0.0
H1725 H 0.4464 0.44962 0.34935 0.0
H1726 H 0.46034 0.43821 0.44036 0.0
C1727 C 0.42383 0.41849 0.55921 0.0
C1728 C 0.11406 0.40179 0.44998 0.0
C1729 C 0.11017 0.38586 0.4256 0.0
H1730 H 0.11853 0.41901 0.56501 0.0
C1731 C 0.10751 0.37489 0.50274 0.0
H1732 H 0.11583 0.41051 0.39292 0.0
C1733 C 0.10894 0.37976 0.60155 0.0
C1734 C 0.11308 0.39575 0.62582 0.0
H1735 H 0.10467 0.3626 0.48679 0.0
H1736 H 0.10725 0.37108 0.65875 0.0
C1737 C 0.11554 0.40668 0.54881 0.0
C1738 C 0.59443 0.72421 0.45727 0.0
C1739 C 0.60725 0.72191 0.42631 0.0
H1740 H 0.57945 0.72369 0.57651 0.0
C1741 C 0.61467 0.7168 0.49662 0.0
H1742 H 0.5886 0.72842 0.40586 0.0
C1743 C 0.60937 0.71405 0.59512 0.0
C1744 C 0.59652 0.71634 0.62593 0.0
H1745 H 0.62442 0.71468 0.4755 0.0
H1746 H 0.61526 0.70997 0.64689 0.0
C1747 C 0.58913 0.72145 0.55552 0.0
C1748 C 0.2711 0.86928 0.43846 0.0
C1749 C 0.27346 0.8844 0.40683 0.0
H1750 H 0.27169 0.85493 0.55828 0.0
C1751 C 0.27874 0.89702 0.47656 0.0
H1752 H 0.26678 0.85919 0.38758 0.0
C1753 C 0.28159 0.89457 0.57506 0.0
C1754 C 0.27924 0.87944 0.60653 0.0
H1755 H 0.28093 0.9089 0.45503 0.0
H1756 H 0.28578 0.9046 0.62631 0.0
C1757 C 0.27397 0.86684 0.53675 0.0
C1758 C 0.40345 0.12691 0.45407 0.0
C1759 C 0.39522 0.11459 0.38372 0.0
H1760 H 0.40471 0.13457 0.6039 0.0
C1761 C 0.38169 0.09993 0.4145 0.0
H1762 H 0.4137 0.13848 0.43293 0.0
C1763 C 0.3765 0.09768 0.51307 0.0
C1764 C 0.38472 0.11005 0.58327 0.0
H1765 H 0.37517 0.09011 0.36262 0.0
H1766 H 0.36618 0.08618 0.53433 0.0
C1767 C 0.39826 0.12468 0.55239 0.0
C1768 C 0.8684 0.27091 0.56101 0.0
C1769 C 0.88342 0.273 0.59269 0.0
H1770 H 0.85424 0.27182 0.44109 0.0
C1771 C 0.89605 0.27814 0.52302 0.0
H1772 H 0.8583 0.26672 0.61183 0.0
C1773 C 0.89371 0.28109 0.42454 0.0
C1774 C 0.87869 0.27901 0.39301 0.0
H1775 H 0.90786 0.28013 0.54457 0.0
H1776 H 0.90375 0.28516 0.37332 0.0
C1777 C 0.86608 0.2739 0.46271 0.0
C1778 C 0.72025 0.59132 0.45701 0.0
C1779 C 0.71658 0.6 0.38727 0.0
H1780 H 0.72681 0.58969 0.60612 0.0
C1781 C 0.71647 0.61404 0.41867 0.0
H1782 H 0.72079 0.58065 0.43554 0.0
C1783 C 0.71998 0.61928 0.51701 0.0
C1784 C 0.72369 0.6106 0.58658 0.0
H1785 H 0.71353 0.62094 0.36747 0.0
H1786 H 0.71956 0.63 0.53859 0.0
C1787 C 0.72376 0.59654 0.55517 0.0
C1788 C 0.87058 0.5984 0.54985 0.0
C1789 C 0.88452 0.61262 0.58134 0.0
H1790 H 0.8579 0.58239 0.43017 0.0
C1791 C 0.89686 0.62148 0.51187 0.0
H1792 H 0.86072 0.5914 0.60071 0.0
C1793 C 0.89527 0.61626 0.41356 0.0
C1794 C 0.8813 0.60206 0.38205 0.0
H1795 H 0.90789 0.63233 0.53352 0.0
H1796 H 0.90508 0.6233 0.36245 0.0
C1797 C 0.86899 0.59319 0.4517 0.0
C1798 C 0.40684 0.28703 0.45619 0.0
C1799 C 0.3958 0.27877 0.37925 0.0
H1800 H 0.41063 0.29061 0.61237 0.0
C1801 C 0.37961 0.26742 0.40399 0.0
H1802 H 0.41932 0.29597 0.44023 0.0
C1803 C 0.37463 0.26438 0.50275 0.0
C1804 C 0.38571 0.27249 0.57945 0.0
H1805 H 0.3708 0.26053 0.34736 0.0
H1806 H 0.36216 0.25542 0.51917 0.0
C1807 C 0.40186 0.28391 0.55506 0.0
C1808 C 0.71344 0.10163 0.43433 0.0
C1809 C 0.71572 0.11673 0.40284 0.0
H1810 H 0.71414 0.08734 0.5544 0.0
C1811 C 0.72092 0.12932 0.47255 0.0
H1812 H 0.70929 0.0916 0.38306 0.0
C1813 C 0.7238 0.12691 0.57087 0.0
C1814 C 0.72151 0.11182 0.60254 0.0
H1815 H 0.72314 0.14121 0.45091 0.0
H1816 H 0.72807 0.137 0.62174 0.0
C1817 C 0.71628 0.0992 0.53285 0.0
C1818 C 0.59515 0.87077 0.4578 0.0
C1819 C 0.6093 0.88496 0.42762 0.0
H1820 H 0.57912 0.85754 0.57683 0.0
C1821 C 0.61797 0.89708 0.49867 0.0
H1822 H 0.58826 0.86104 0.40615 0.0
C1823 C 0.61272 0.895 0.59702 0.0
C1824 C 0.59861 0.8808 0.62687 0.0
H1825 H 0.62873 0.9083 0.47856 0.0
H1826 H 0.61966 0.90458 0.64955 0.0
C1827 C 0.58985 0.86876 0.55594 0.0
C1828 C 0.10565 0.72815 0.48833 0.0
C1829 C 0.11074 0.72179 0.4115 0.0
H1830 H 0.10405 0.73078 0.64381 0.0
C1831 C 0.11782 0.71233 0.43625 0.0
H1832 H 0.10028 0.73559 0.47211 0.0
C1833 C 0.12004 0.70958 0.53524 0.0
C1834 C 0.1152 0.71618 0.61215 0.0
H1835 H 0.12153 0.70687 0.37937 0.0
H1836 H 0.12548 0.70221 0.55143 0.0
C1837 C 0.10782 0.72536 0.58723 0.0
C1838 C 0.26677 0.38098 0.60579 0.0
C1839 C 0.27871 0.39695 0.62997 0.0
H1840 H 0.25372 0.36385 0.49115 0.0
C1841 C 0.28715 0.40786 0.55284 0.0
H1842 H 0.2598 0.37231 0.66306 0.0
C1843 C 0.28364 0.40299 0.45401 0.0
C1844 C 0.27153 0.38708 0.42974 0.0
H1845 H 0.29655 0.42017 0.56892 0.0
H1846 H 0.29057 0.41168 0.39687 0.0
C1847 C 0.26323 0.37612 0.50699 0.0
C1848 C 0.78279 0.74056 0.88643 0.0
C1849 C 0.78023 0.72963 0.96357 0.0
H1850 H 0.78321 0.74439 0.73046 0.0
C1851 C 0.77605 0.71361 0.93942 0.0
H1852 H 0.78582 0.7529 0.9025 0.0
C1853 C 0.77467 0.70873 0.84062 0.0
C1854 C 0.77743 0.71972 0.76336 0.0
H1855 H 0.77428 0.70492 0.9967 0.0
H1856 H 0.77179 0.69643 0.82479 0.0
C1857 C 0.78137 0.73567 0.78761 0.0
C1858 C 0.27797 0.05029 0.92919 0.0
C1859 C 0.26399 0.05062 0.95901 0.0
H1860 H 0.29391 0.05278 0.8108 0.0
C1861 C 0.25538 0.05413 0.88802 0.0
H1862 H 0.2848 0.04747 0.98173 0.0
C1863 C 0.26071 0.05739 0.7899 0.0
C1864 C 0.27473 0.0571 0.75976 0.0
H1865 H 0.24475 0.05481 0.90886 0.0
H1866 H 0.25394 0.0604 0.73824 0.0
C1867 C 0.28325 0.05343 0.83086 0.0
C1868 C 0.94483 0.23008 0.81556 0.0
C1869 C 0.93972 0.21747 0.74586 0.0
H1870 H 0.95179 0.23771 0.96531 0.0
C1871 C 0.93762 0.20245 0.77751 0.0
H1872 H 0.94683 0.24189 0.79402 0.0
C1873 C 0.94056 0.20009 0.87581 0.0
C1874 C 0.94564 0.21267 0.94555 0.0
H1875 H 0.93344 0.19237 0.72665 0.0
H1876 H 0.93847 0.18825 0.89742 0.0
C1877 C 0.94774 0.2277 0.91406 0.0
C1878 C 0.07017 0.46106 0.79708 0.0
C1879 C 0.0621 0.44856 0.72749 0.0
H1880 H 0.07128 0.46895 0.9463 0.0
C1881 C 0.04874 0.43385 0.75901 0.0
H1882 H 0.0803 0.47266 0.77527 0.0
C1883 C 0.04354 0.43171 0.85754 0.0
C1884 C 0.05158 0.44425 0.92706 0.0
H1885 H 0.04235 0.42391 0.70772 0.0
H1886 H 0.03336 0.42013 0.87923 0.0
C1887 C 0.06496 0.45894 0.89542 0.0
C1888 C 0.53202 0.6069 0.80503 0.0
C1889 C 0.54463 0.61204 0.73525 0.0
H1890 H 0.52428 0.59971 0.95418 0.0
C1891 C 0.55967 0.61417 0.76672 0.0
H1892 H 0.52017 0.60478 0.78351 0.0
C1893 C 0.56204 0.61123 0.8652 0.0
C1894 C 0.54941 0.60607 0.93493 0.0
H1895 H 0.56971 0.61826 0.71547 0.0
H1896 H 0.57386 0.61325 0.88672 0.0
C1897 C 0.53437 0.60394 0.90331 0.0
C1898 C 0.37769 0.9261 0.8931 0.0
C1899 C 0.38958 0.9421 0.91741 0.0
H1900 H 0.36506 0.90883 0.77815 0.0
C1901 C 0.39775 0.95312 0.84019 0.0
H1902 H 0.37085 0.91735 0.95021 0.0
C1903 C 0.39431 0.94823 0.74138 0.0
C1904 C 0.3826 0.93217 0.71717 0.0
H1905 H 0.40709 0.96546 0.85607 0.0
H1906 H 0.40118 0.95695 0.68414 0.0
C1907 C 0.37428 0.92121 0.79427 0.0
C1908 C 0.53581 0.92543 0.78381 0.0
C1909 C 0.54811 0.93431 0.71413 0.0
H1910 H 0.52756 0.92362 0.93287 0.0
C1911 C 0.56208 0.94852 0.74559 0.0
H1912 H 0.52473 0.91462 0.76232 0.0
C1913 C 0.56367 0.95373 0.84391 0.0
C1914 C 0.55134 0.94486 0.91342 0.0
H1915 H 0.57187 0.95558 0.69445 0.0
H1916 H 0.57469 0.9646 0.86554 0.0
C1917 C 0.53741 0.93063 0.88197 0.0
C1918 C 0.06946 0.61784 0.89538 0.0
C1919 C 0.05317 0.60694 0.92011 0.0
H1920 H 0.08697 0.62937 0.77995 0.0
C1921 C 0.04189 0.59936 0.84338 0.0
H1922 H 0.07842 0.6242 0.9523 0.0
C1923 C 0.0468 0.60239 0.74446 0.0
C1924 C 0.06313 0.61312 0.71971 0.0
H1925 H 0.0293 0.59079 0.85982 0.0
H1926 H 0.03784 0.59597 0.68762 0.0
C1927 C 0.07437 0.62087 0.79642 0.0
C1928 C 0.38372 0.43176 0.86414 0.0
C1929 C 0.38831 0.44433 0.93356 0.0
H1930 H 0.37707 0.42396 0.71433 0.0
C1931 C 0.38975 0.45907 0.9018 0.0
H1932 H 0.38222 0.42015 0.88593 0.0
C1933 C 0.3867 0.46121 0.80343 0.0
C1934 C 0.38217 0.44868 0.73395 0.0
H1935 H 0.39352 0.4691 0.95261 0.0
H1936 H 0.38827 0.47284 0.78149 0.0
C1937 C 0.3807 0.43392 0.76558 0.0
C1938 C 0.27992 0.23023 0.93245 0.0
C1939 C 0.26639 0.21557 0.96325 0.0
H1940 H 0.29544 0.24398 0.81263 0.0
C1941 C 0.25818 0.20323 0.89292 0.0
H1942 H 0.28642 0.24005 0.9843 0.0
C1943 C 0.26338 0.20546 0.79462 0.0
C1944 C 0.27691 0.2201 0.76372 0.0
H1945 H 0.24794 0.19166 0.91406 0.0
H1946 H 0.25694 0.19556 0.74313 0.0
C1947 C 0.28512 0.23247 0.8339 0.0
C1948 C 0.79559 0.05525 0.87907 0.0
C1949 C 0.78298 0.05007 0.94885 0.0
H1950 H 0.80329 0.0624 0.72983 0.0
C1951 C 0.7679 0.04784 0.91743 0.0
H1952 H 0.80747 0.05744 0.90066 0.0
C1953 C 0.76549 0.0507 0.81892 0.0
C1954 C 0.77812 0.0559 0.74915 0.0
H1955 H 0.75787 0.04371 0.96875 0.0
H1956 H 0.75364 0.04859 0.79743 0.0
C1957 C 0.7932 0.05815 0.78075 0.0
C1958 C 0.946 0.71817 0.92706 0.0
C1959 C 0.94598 0.73226 0.95848 0.0
H1960 H 0.94281 0.70218 0.80714 0.0
C1961 C 0.94237 0.74099 0.88876 0.0
H1962 H 0.94889 0.71123 0.97825 0.0
C1963 C 0.93883 0.73576 0.79061 0.0
C1964 C 0.9388 0.72167 0.75917 0.0
H1965 H 0.9419 0.75169 0.91023 0.0
H1966 H 0.93583 0.74265 0.73968 0.0
C1967 C 0.94245 0.71294 0.82874 0.0
C1968 C 0.45943 0.07063 0.22143 0.0
C1969 C 0.44715 0.06173 0.29117 0.0
H1970 H 0.46766 0.07244 0.07229 0.0
C1971 C 0.43318 0.04752 0.25978 0.0
H1972 H 0.47051 0.08143 0.2429 0.0
C1973 C 0.43156 0.04232 0.16144 0.0
C1974 C 0.44388 0.0512 0.09187 0.0
H1975 H 0.4234 0.04046 0.31099 0.0
H1976 H 0.42054 0.03145 0.13984 0.0
C1977 C 0.45782 0.06543 0.12326 0.0
C1978 C 0.94778 0.39411 0.28046 0.0
C1979 C 0.93132 0.38389 0.30534 0.0
H1980 H 0.96548 0.40479 0.16509 0.0
C1981 C 0.92006 0.37621 0.22856 0.0
H1982 H 0.95679 0.40052 0.33705 0.0
C1983 C 0.92508 0.37882 0.12966 0.0
C1984 C 0.94149 0.38914 0.105 0.0
H1985 H 0.90736 0.36812 0.24471 0.0
H1986 H 0.9161 0.37258 0.07256 0.0
C1987 C 0.95279 0.39665 0.18162 0.0
C1988 C 0.61761 0.5457 0.10858 0.0
C1989 C 0.60801 0.55263 0.08356 0.0
H1990 H 0.62754 0.53787 0.22397 0.0
C1991 C 0.60132 0.55738 0.16026 0.0
H1992 H 0.62334 0.54226 0.05194 0.0
C1993 C 0.60386 0.55497 0.2592 0.0
C1994 C 0.61312 0.54767 0.28421 0.0
H1995 H 0.59377 0.56262 0.14391 0.0
H1996 H 0.59818 0.55845 0.31575 0.0
C1997 C 0.62009 0.54323 0.20755 0.0
C1998 C 0.73204 0.79282 0.24272 0.0
C1999 C 0.71919 0.77775 0.27424 0.0
H2000 H 0.74704 0.80711 0.12293 0.0
C2001 C 0.71175 0.76515 0.20442 0.0
H2002 H 0.73789 0.80289 0.29368 0.0
C2003 C 0.71703 0.76759 0.10593 0.0
C2004 C 0.7299 0.78267 0.07458 0.0
H2005 H 0.70198 0.75331 0.22588 0.0
H2006 H 0.71112 0.75758 0.05458 0.0
C2007 C 0.73734 0.79524 0.14443 0.0
C2008 C 0.21141 0.95117 0.23127 0.0
C2009 C 0.21852 0.94173 0.2559 0.0
H2010 H 0.20381 0.96138 0.11628 0.0
C2011 C 0.22373 0.93551 0.17892 0.0
H2012 H 0.2076 0.95654 0.28821 0.0
C2013 C 0.22167 0.93842 0.08007 0.0
C2014 C 0.21425 0.94757 0.05524 0.0
H2015 H 0.22913 0.92809 0.19495 0.0
H2016 H 0.22557 0.93312 0.02343 0.0
C2017 C 0.20929 0.95403 0.1323 0.0
C2018 C 0.05657 0.26217 0.22348 0.0
C2019 C 0.05651 0.27623 0.25494 0.0
H2020 H 0.05358 0.24629 0.10379 0.0
C2021 C 0.05281 0.28492 0.18541 0.0
H2022 H 0.0596 0.25531 0.2744 0.0
C2023 C 0.04929 0.2797 0.08707 0.0
C2024 C 0.04939 0.26566 0.05562 0.0
H2025 H 0.05239 0.29565 0.20703 0.0
H2026 H 0.04636 0.28661 0.03589 0.0
C2027 C 0.05305 0.25695 0.12531 0.0
C2028 C 0.22946 0.28716 0.18657 0.0
C2029 C 0.21716 0.27822 0.25613 0.0
H2030 H 0.23764 0.28906 0.03702 0.0
C2031 C 0.20326 0.26396 0.22472 0.0
H2032 H 0.24045 0.29806 0.20818 0.0
C2033 C 0.20168 0.25877 0.12655 0.0
C2034 C 0.21394 0.26771 0.05682 0.0
H2035 H 0.19343 0.25691 0.27568 0.0
H2036 H 0.19063 0.24793 0.10507 0.0
C2037 C 0.22787 0.28196 0.08823 0.0
C2038 C 0.73307 0.93811 0.22156 0.0
C2039 C 0.71968 0.9394 0.25338 0.0
H2040 H 0.74841 0.93982 0.10126 0.0
C2041 C 0.71164 0.94396 0.18401 0.0
H2042 H 0.73939 0.93439 0.27229 0.0
C2043 C 0.71683 0.94708 0.08549 0.0
C2044 C 0.7302 0.94576 0.05379 0.0
H2045 H 0.70146 0.94534 0.2058 0.0
H2046 H 0.71045 0.95067 0.03432 0.0
C2047 C 0.73828 0.94128 0.12322 0.0
C2048 C 0.05506 0.7971 0.13852 0.0
C2049 C 0.04978 0.7845 0.06876 0.0
H2050 H 0.06224 0.80475 0.2877 0.0
C2051 C 0.0474 0.76936 0.10023 0.0
H2052 H 0.05736 0.80902 0.11693 0.0
C2053 C 0.05022 0.7669 0.19875 0.0
C2054 C 0.05552 0.77952 0.26846 0.0
H2055 H 0.0432 0.75933 0.04896 0.0
H2056 H 0.048 0.75501 0.22029 0.0
C2057 C 0.05791 0.79465 0.23682 0.0
C2058 C 0.95103 0.56577 0.17049 0.0
C2059 C 0.94305 0.55354 0.09899 0.0
H2060 H 0.95214 0.57291 0.32173 0.0
C2061 C 0.92959 0.53874 0.12883 0.0
H2062 H 0.96126 0.57742 0.15057 0.0
C2063 C 0.92426 0.53625 0.22704 0.0
C2064 C 0.9323 0.54842 0.29846 0.0
H2065 H 0.92325 0.52892 0.07682 0.0
H2066 H 0.91407 0.52458 0.24749 0.0
C2067 C 0.94575 0.56322 0.26893 0.0
C2068 C 0.44878 0.37826 0.12961 0.0
C2069 C 0.44428 0.38985 0.10519 0.0
H2070 H 0.4539 0.366 0.24452 0.0
C2071 C 0.44147 0.39808 0.18181 0.0
H2072 H 0.45071 0.37147 0.07231 0.0
C2073 C 0.44333 0.39498 0.28057 0.0
C2074 C 0.44791 0.38345 0.30537 0.0
H2075 H 0.43814 0.40718 0.1653 0.0
H2076 H 0.44153 0.40196 0.33715 0.0
C2077 C 0.45054 0.37508 0.2285 0.0
C2078 C 0.61217 0.05042 0.25902 0.0
C2079 C 0.61215 0.0645 0.29044 0.0
H2080 H 0.60897 0.03442 0.13911 0.0
C2081 C 0.60854 0.07323 0.22071 0.0
H2082 H 0.61506 0.04348 0.3102 0.0
C2083 C 0.60499 0.06801 0.12256 0.0
C2084 C 0.60496 0.05391 0.09114 0.0
H2085 H 0.60807 0.08394 0.24217 0.0
H2086 H 0.60199 0.07489 0.07164 0.0
C2087 C 0.60861 0.04518 0.1607 0.0
loop_
_geom_bond_atom_site_label_1
_geom_bond_atom_site_label_2
_geom_bond_distance
_geom_bond_site_symmetry_2
_ccdc_geom_bond_type
Co0 N4 2.148 . S
Co0 N10 2.128 1_554 S
Co0 N20 2.194 . S
Co0 O25 2.351 . S
Co0 O26 2.155 . S
Co0 O27 2.096 1_554 S
C1 N4 1.301 . S
C1 N5 1.328 . S
C1 H6 0.930 . S
C2 C3 1.333 . S
C2 N4 1.317 . S
C2 H7 0.930 . S
C3 C2 1.333 . S
C3 N5 1.350 . S
C3 H29 0.931 . S
N4 Co0 2.148 . S
N4 C1 1.301 . S
N4 C2 1.317 . S
N5 C1 1.328 . S
N5 C3 1.350 . S
H6 C1 0.930 . S
H7 C2 0.930 . S
C8 O9 1.224 . S
C8 O27 1.247 . S
O9 C8 1.224 . S
N10 Co0 2.128 1_556 S
N10 C11 1.355 . S
N10 C13 1.311 . S
C11 N10 1.355 . S
C11 C12 1.363 . S
C11 H23 0.929 . S
C12 C11 1.363 . S
C12 N14 1.375 . S
C12 H30 0.931 . S
C13 N10 1.311 . S
C13 N14 1.347 . S
C13 H24 0.929 . S
N14 C12 1.375 . S
N14 C13 1.347 . S
C15 C18 1.365 . S
C15 N20 1.328 . S
C15 H21 0.929 . S
C16 C17 1.362 1_556 S
C16 C19 1.378 . S
C16 H31 0.929 . S
C17 C16 1.362 1_554 S
C17 C18 1.366 . S
C18 C15 1.365 . S
C18 C17 1.366 . S
C18 H32 0.930 . S
C19 C16 1.378 . S
C19 N20 1.315 1_556 S
C19 H22 0.930 . S
N20 Co0 2.194 . S
N20 C15 1.328 . S
N20 C19 1.315 1_554 S
H21 C15 0.929 . S
H22 C19 0.930 . S
H23 C11 0.929 . S
H24 C13 0.929 . S
O25 Co0 2.351 . S
O25 C28 1.244 . S
O26 Co0 2.155 . S
O26 C28 1.240 . S
O27 Co0 2.096 1_556 S
O27 C8 1.247 . S
C28 O25 1.244 . S
C28 O26 1.240 . S
H29 C3 0.931 . S
H30 C12 0.931 . S
H31 C16 0.929 . S
H32 C18 0.930 . S
Co33 N37 2.148 . S
Co33 N43 2.128 1_554 S
Co33 N53 2.194 . S
Co33 O58 2.351 . S
Co33 O59 2.155 . S
Co33 O60 2.096 1_554 S
C34 N37 1.301 . S
C34 N38 1.328 . S
C34 H39 0.930 . S
C35 C36 1.333 . S
C35 N37 1.317 . S
C35 H40 0.930 . S
C36 C35 1.333 . S
C36 N38 1.350 . S
C36 H62 0.931 . S
N37 Co33 2.148 . S
N37 C34 1.301 . S
N37 C35 1.317 . S
N38 C34 1.328 . S
N38 C36 1.350 . S
H39 C34 0.930 . S
H40 C35 0.930 . S
C41 O42 1.224 . S
C41 O60 1.247 . S
O42 C41 1.224 . S
N43 Co33 2.128 1_556 S
N43 C44 1.355 . S
N43 C46 1.311 . S
C44 N43 1.355 . S
C44 C45 1.363 . S
C44 H56 0.929 . S
C45 C44 1.363 . S
C45 N47 1.375 . S
C45 H63 0.931 . S
C46 N43 1.311 . S
C46 N47 1.347 . S
C46 H57 0.929 . S
N47 C45 1.375 . S
N47 C46 1.347 . S
C48 C51 1.365 . S
C48 N53 1.328 . S
C48 H54 0.929 . S
C49 C50 1.362 1_556 S
C49 C52 1.378 . S
C49 H64 0.929 . S
C50 C49 1.362 1_554 S
C50 C51 1.366 . S
C51 C48 1.365 . S
C51 C50 1.366 . S
C51 H65 0.930 . S
C52 C49 1.378 . S
C52 N53 1.315 1_556 S
C52 H55 0.930 . S
N53 Co33 2.194 . S
N53 C48 1.328 . S
N53 C52 1.315 1_554 S
H54 C48 0.929 . S
H55 C52 0.930 . S
H56 C44 0.929 . S
H57 C46 0.929 . S
O58 Co33 2.351 . S
O58 C61 1.244 . S
O59 Co33 2.155 . S
O59 C61 1.240 . S
O60 Co33 2.096 1_556 S
O60 C41 1.247 . S
C61 O58 1.244 . S
C61 O59 1.240 . S
H62 C36 0.931 . S
H63 C45 0.931 . S
H64 C49 0.929 . S
H65 C51 0.930 . S
Co66 N70 2.148 . S
Co66 N76 2.128 1_554 S
Co66 N86 2.194 . S
Co66 O91 2.351 . S
Co66 O92 2.155 . S
Co66 O93 2.096 1_554 S
C67 N70 1.301 . S
C67 N71 1.328 . S
C67 H72 0.930 . S
C68 C69 1.333 . S
C68 N70 1.317 . S
C68 H73 0.930 . S
C69 C68 1.333 . S
C69 N71 1.350 . S
C69 H95 0.931 . S
N70 Co66 2.148 . S
N70 C67 1.301 . S
N70 C68 1.317 . S
N71 C67 1.328 . S
N71 C69 1.350 . S
H72 C67 0.930 . S
H73 C68 0.930 . S
C74 O75 1.224 . S
C74 O93 1.247 . S
O75 C74 1.224 . S
N76 Co66 2.128 1_556 S
N76 C77 1.355 . S
N76 C79 1.311 . S
C77 N76 1.355 . S
C77 C78 1.363 . S
C77 H89 0.929 . S
C78 C77 1.363 . S
C78 N80 1.375 . S
C78 H96 0.931 . S
C79 N76 1.311 . S
C79 N80 1.347 . S
C79 H90 0.929 . S
N80 C78 1.375 . S
N80 C79 1.347 . S
C81 C84 1.365 . S
C81 N86 1.328 . S
C81 H87 0.929 . S
C82 C83 1.362 1_556 S
C82 C85 1.378 . S
C82 H97 0.929 . S
C83 C82 1.362 1_554 S
C83 C84 1.366 . S
C84 C81 1.365 . S
C84 C83 1.366 . S
C84 H98 0.930 . S
C85 C82 1.378 . S
C85 N86 1.315 1_556 S
C85 H88 0.930 . S
N86 Co66 2.194 . S
N86 C81 1.328 . S
N86 C85 1.315 1_554 S
H87 C81 0.929 . S
H88 C85 0.930 . S
H89 C77 0.929 . S
H90 C79 0.929 . S
O91 Co66 2.351 . S
O91 C94 1.244 . S
O92 Co66 2.155 . S
O92 C94 1.240 . S
O93 Co66 2.096 1_556 S
O93 C74 1.247 . S
C94 O91 1.244 . S
C94 O92 1.240 . S
H95 C69 0.931 . S
H96 C78 0.931 . S
H97 C82 0.929 . S
H98 C84 0.930 . S
Co99 N103 2.148 . S
Co99 N109 2.128 1_556 S
Co99 N119 2.194 . S
Co99 O124 2.351 . S
Co99 O125 2.155 . S
Co99 O126 2.096 1_556 S
C100 N103 1.301 . S
C100 N104 1.328 . S
C100 H105 0.930 . S
C101 C102 1.333 . S
C101 N103 1.317 . S
C101 H106 0.930 . S
C102 C101 1.333 . S
C102 N104 1.350 . S
C102 H128 0.931 . S
N103 Co99 2.148 . S
N103 C100 1.301 . S
N103 C101 1.317 . S
N104 C100 1.328 . S
N104 C102 1.350 . S
H105 C100 0.930 . S
H106 C101 0.930 . S
C107 O108 1.224 . S
C107 O126 1.247 . S
O108 C107 1.224 . S
N109 Co99 2.128 1_554 S
N109 C110 1.355 . S
N109 C112 1.311 . S
C110 N109 1.355 . S
C110 C111 1.363 . S
C110 H122 0.929 . S
C111 C110 1.363 . S
C111 N113 1.375 . S
C111 H129 0.931 . S
C112 N109 1.311 . S
C112 N113 1.347 . S
C112 H123 0.929 . S
N113 C111 1.375 . S
N113 C112 1.347 . S
C114 C117 1.365 . S
C114 N119 1.328 . S
C114 H120 0.929 . S
C115 C116 1.362 1_554 S
C115 C118 1.378 . S
C115 H130 0.929 . S
C116 C115 1.362 1_556 S
C116 C117 1.366 . S
C117 C114 1.365 . S
C117 C116 1.366 . S
C117 H131 0.930 . S
C118 C115 1.378 . S
C118 N119 1.315 1_554 S
C118 H121 0.930 . S
N119 Co99 2.194 . S
N119 C114 1.328 . S
N119 C118 1.315 1_556 S
H120 C114 0.929 . S
H121 C118 0.930 . S
H122 C110 0.929 . S
H123 C112 0.929 . S
O124 Co99 2.351 . S
O124 C127 1.244 . S
O125 Co99 2.155 . S
O125 C127 1.240 . S
O126 Co99 2.096 1_554 S
O126 C107 1.247 . S
C127 O124 1.244 . S
C127 O125 1.240 . S
H128 C102 0.931 . S
H129 C111 0.931 . S
H130 C115 0.929 . S
H131 C117 0.930 . S
Co132 N136 2.148 . S
Co132 N142 2.128 1_556 S
Co132 N152 2.194 . S
Co132 O157 2.351 . S
Co132 O158 2.155 . S
Co132 O159 2.096 1_556 S
C133 N136 1.301 . S
C133 N137 1.328 . S
C133 H138 0.930 . S
C134 C135 1.333 . S
C134 N136 1.317 . S
C134 H139 0.930 . S
C135 C134 1.333 . S
C135 N137 1.350 . S
C135 H161 0.931 . S
N136 Co132 2.148 . S
N136 C133 1.301 . S
N136 C134 1.317 . S
N137 C133 1.328 . S
N137 C135 1.350 . S
H138 C133 0.930 . S
H139 C134 0.930 . S
C140 O141 1.224 . S
C140 O159 1.247 . S
O141 C140 1.224 . S
N142 Co132 2.128 1_554 S
N142 C143 1.355 . S
N142 C145 1.311 . S
C143 N142 1.355 . S
C143 C144 1.363 . S
C143 H155 0.929 . S
C144 C143 1.363 . S
C144 N146 1.375 . S
C144 H162 0.931 . S
C145 N142 1.311 . S
C145 N146 1.347 . S
C145 H156 0.929 . S
N146 C144 1.375 . S
N146 C145 1.347 . S
C147 C150 1.365 . S
C147 N152 1.328 . S
C147 H153 0.929 . S
C148 C149 1.362 1_554 S
C148 C151 1.378 . S
C148 H163 0.929 . S
C149 C148 1.362 1_556 S
C149 C150 1.366 . S
C150 C147 1.365 . S
C150 C149 1.366 . S
C150 H164 0.930 . S
C151 C148 1.378 . S
C151 N152 1.315 1_554 S
C151 H154 0.930 . S
N152 Co132 2.194 . S
N152 C147 1.328 . S
N152 C151 1.315 1_556 S
H153 C147 0.929 . S
H154 C151 0.930 . S
H155 C143 0.929 . S
H156 C145 0.929 . S
O157 Co132 2.351 . S
O157 C160 1.244 . S
O158 Co132 2.155 . S
O158 C160 1.240 . S
O159 Co132 2.096 1_554 S
O159 C140 1.247 . S
C160 O157 1.244 . S
C160 O158 1.240 . S
H161 C135 0.931 . S
H162 C144 0.931 . S
H163 C148 0.929 . S
H164 C150 0.930 . S
Co165 N169 2.148 . S
Co165 N175 2.128 1_556 S
Co165 N185 2.194 . S
Co165 O190 2.351 . S
Co165 O191 2.155 . S
Co165 O192 2.096 1_556 S
C166 N169 1.301 . S
C166 N170 1.328 . S
C166 H171 0.930 . S
C167 C168 1.333 . S
C167 N169 1.317 . S
C167 H172 0.930 . S
C168 C167 1.333 . S
C168 N170 1.350 . S
C168 H194 0.931 . S
N169 Co165 2.148 . S
N169 C166 1.301 . S
N169 C167 1.317 . S
N170 C166 1.328 . S
N170 C168 1.350 . S
H171 C166 0.930 . S
H172 C167 0.930 . S
C173 O174 1.224 . S
C173 O192 1.247 . S
O174 C173 1.224 . S
N175 Co165 2.128 1_554 S
N175 C176 1.355 . S
N175 C178 1.311 . S
C176 N175 1.355 . S
C176 C177 1.363 . S
C176 H188 0.929 . S
C177 C176 1.363 . S
C177 N179 1.375 . S
C177 H195 0.931 . S
C178 N175 1.311 . S
C178 N179 1.347 . S
C178 H189 0.929 . S
N179 C177 1.375 . S
N179 C178 1.347 . S
C180 C183 1.365 . S
C180 N185 1.328 . S
C180 H186 0.929 . S
C181 C182 1.362 1_554 S
C181 C184 1.378 . S
C181 H196 0.929 . S
C182 C181 1.362 1_556 S
C182 C183 1.366 . S
C183 C180 1.365 . S
C183 C182 1.366 . S
C183 H197 0.930 . S
C184 C181 1.378 . S
C184 N185 1.315 1_554 S
C184 H187 0.930 . S
N185 Co165 2.194 . S
N185 C180 1.328 . S
N185 C184 1.315 1_556 S
H186 C180 0.929 . S
H187 C184 0.930 . S
H188 C176 0.929 . S
H189 C178 0.929 . S
O190 Co165 2.351 . S
O190 C193 1.244 . S
O191 Co165 2.155 . S
O191 C193 1.240 . S
O192 Co165 2.096 1_554 S
O192 C173 1.247 . S
C193 O190 1.244 . S
C193 O191 1.240 . S
H194 C168 0.931 . S
H195 C177 0.931 . S
H196 C181 0.929 . S
H197 C183 0.930 . S
Co198 N202 2.148 . S
Co198 N208 2.128 1_556 S
Co198 N218 2.194 . S
Co198 O223 2.351 . S
Co198 O224 2.155 . S
Co198 O225 2.096 1_556 S
C199 N202 1.301 . S
C199 N203 1.328 . S
C199 H204 0.930 . S
C200 C201 1.333 . S
C200 N202 1.317 . S
C200 H205 0.930 . S
C201 C200 1.333 . S
C201 N203 1.350 . S
C201 H227 0.931 . S
N202 Co198 2.148 . S
N202 C199 1.301 . S
N202 C200 1.317 . S
N203 C199 1.328 . S
N203 C201 1.350 . S
H204 C199 0.930 . S
H205 C200 0.930 . S
C206 O207 1.224 . S
C206 O225 1.247 . S
O207 C206 1.224 . S
N208 Co198 2.128 1_554 S
N208 C209 1.355 . S
N208 C211 1.311 . S
C209 N208 1.355 . S
C209 C210 1.363 . S
C209 H221 0.929 . S
C210 C209 1.363 . S
C210 N212 1.375 . S
C210 H228 0.931 . S
C211 N208 1.311 . S
C211 N212 1.347 . S
C211 H222 0.929 . S
N212 C210 1.375 . S
N212 C211 1.347 . S
C213 C216 1.365 . S
C213 N218 1.328 . S
C213 H219 0.929 . S
C214 C215 1.362 1_554 S
C214 C217 1.378 . S
C214 H229 0.929 . S
C215 C214 1.362 1_556 S
C215 C216 1.366 . S
C216 C213 1.365 . S
C216 C215 1.366 . S
C216 H230 0.930 . S
C217 C214 1.378 . S
C217 N218 1.315 1_554 S
C217 H220 0.930 . S
N218 Co198 2.194 . S
N218 C213 1.328 . S
N218 C217 1.315 1_556 S
H219 C213 0.929 . S
H220 C217 0.930 . S
H221 C209 0.929 . S
H222 C211 0.929 . S
O223 Co198 2.351 . S
O223 C226 1.244 . S
O224 Co198 2.155 . S
O224 C226 1.240 . S
O225 Co198 2.096 1_554 S
O225 C206 1.247 . S
C226 O223 1.244 . S
C226 O224 1.240 . S
H227 C201 0.931 . S
H228 C210 0.931 . S
H229 C214 0.929 . S
H230 C216 0.930 . S
Co231 N235 2.148 . S
Co231 N241 2.128 1_556 S
Co231 N251 2.194 . S
Co231 O256 2.351 . S
Co231 O257 2.155 . S
Co231 O258 2.096 1_556 S
C232 N235 1.301 . S
C232 N236 1.328 . S
C232 H237 0.930 . S
C233 C234 1.333 . S
C233 N235 1.317 . S
C233 H238 0.930 . S
C234 C233 1.333 . S
C234 N236 1.350 . S
C234 H260 0.931 . S
N235 Co231 2.148 . S
N235 C232 1.301 . S
N235 C233 1.317 . S
N236 C232 1.328 . S
N236 C234 1.350 . S
H237 C232 0.930 . S
H238 C233 0.930 . S
C239 O240 1.224 . S
C239 O258 1.247 . S
O240 C239 1.224 . S
N241 Co231 2.128 1_554 S
N241 C242 1.355 . S
N241 C244 1.311 . S
C242 N241 1.355 . S
C242 C243 1.363 . S
C242 H254 0.929 . S
C243 C242 1.363 . S
C243 N245 1.375 . S
C243 H261 0.931 . S
C244 N241 1.311 . S
C244 N245 1.347 . S
C244 H255 0.929 . S
N245 C243 1.375 . S
N245 C244 1.347 . S
C246 C249 1.365 . S
C246 N251 1.328 . S
C246 H252 0.929 . S
C247 C248 1.362 1_554 S
C247 C250 1.378 . S
C247 H262 0.929 . S
C248 C247 1.362 1_556 S
C248 C249 1.366 . S
C249 C246 1.365 . S
C249 C248 1.366 . S
C249 H263 0.930 . S
C250 C247 1.378 . S
C250 N251 1.315 1_554 S
C250 H253 0.930 . S
N251 Co231 2.194 . S
N251 C246 1.328 . S
N251 C250 1.315 1_556 S
H252 C246 0.929 . S
H253 C250 0.930 . S
H254 C242 0.929 . S
H255 C244 0.929 . S
O256 Co231 2.351 . S
O256 C259 1.244 . S
O257 Co231 2.155 . S
O257 C259 1.240 . S
O258 Co231 2.096 1_554 S
O258 C239 1.247 . S
C259 O256 1.244 . S
C259 O257 1.240 . S
H260 C234 0.931 . S
H261 C243 0.931 . S
H262 C247 0.929 . S
H263 C249 0.930 . S
Co264 N268 2.148 . S
Co264 N274 2.128 1_556 S
Co264 N284 2.194 . S
Co264 O289 2.351 . S
Co264 O290 2.155 . S
Co264 O291 2.096 1_556 S
C265 N268 1.301 . S
C265 N269 1.328 . S
C265 H270 0.930 . S
C266 C267 1.333 . S
C266 N268 1.317 . S
C266 H271 0.930 . S
C267 C266 1.333 . S
C267 N269 1.350 . S
C267 H293 0.931 . S
N268 Co264 2.148 . S
N268 C265 1.301 . S
N268 C266 1.317 . S
N269 C265 1.328 . S
N269 C267 1.350 . S
H270 C265 0.930 . S
H271 C266 0.930 . S
C272 O273 1.224 . S
C272 O291 1.247 . S
O273 C272 1.224 . S
N274 Co264 2.128 1_554 S
N274 C275 1.355 . S
N274 C277 1.311 . S
C275 N274 1.355 . S
C275 C276 1.363 . S
C275 H287 0.929 . S
C276 C275 1.363 . S
C276 N278 1.375 . S
C276 H294 0.931 . S
C277 N274 1.311 . S
C277 N278 1.347 . S
C277 H288 0.929 . S
N278 C276 1.375 . S
N278 C277 1.347 . S
C279 C282 1.365 . S
C279 N284 1.328 . S
C279 H285 0.929 . S
C280 C281 1.362 1_554 S
C280 C283 1.378 . S
C280 H295 0.929 . S
C281 C280 1.362 1_556 S
C281 C282 1.366 . S
C282 C279 1.365 . S
C282 C281 1.366 . S
C282 H296 0.930 . S
C283 C280 1.378 . S
C283 N284 1.315 1_554 S
C283 H286 0.930 . S
N284 Co264 2.194 . S
N284 C279 1.328 . S
N284 C283 1.315 1_556 S
H285 C279 0.929 . S
H286 C283 0.930 . S
H287 C275 0.929 . S
H288 C277 0.929 . S
O289 Co264 2.351 . S
O289 C292 1.244 . S
O290 Co264 2.155 . S
O290 C292 1.240 . S
O291 Co264 2.096 1_554 S
O291 C272 1.247 . S
C292 O289 1.244 . S
C292 O290 1.240 . S
H293 C267 0.931 . S
H294 C276 0.931 . S
H295 C280 0.929 . S
H296 C282 0.930 . S
Co297 N301 2.148 . S
Co297 N307 2.128 1_554 S
Co297 N317 2.194 . S
Co297 O322 2.351 . S
Co297 O323 2.155 . S
Co297 O324 2.096 1_554 S
C298 N301 1.301 . S
C298 N302 1.328 . S
C298 H303 0.930 . S
C299 C300 1.333 . S
C299 N301 1.317 . S
C299 H304 0.930 . S
C300 C299 1.333 . S
C300 N302 1.350 . S
C300 H326 0.931 . S
N301 Co297 2.148 . S
N301 C298 1.301 . S
N301 C299 1.317 . S
N302 C298 1.328 . S
N302 C300 1.350 . S
H303 C298 0.930 . S
H304 C299 0.930 . S
C305 O306 1.224 . S
C305 O324 1.247 . S
O306 C305 1.224 . S
N307 Co297 2.128 1_556 S
N307 C308 1.355 . S
N307 C310 1.311 . S
C308 N307 1.355 . S
C308 C309 1.363 . S
C308 H320 0.929 . S
C309 C308 1.363 . S
C309 N311 1.375 . S
C309 H327 0.931 . S
C310 N307 1.311 . S
C310 N311 1.347 . S
C310 H321 0.929 . S
N311 C309 1.375 . S
N311 C310 1.347 . S
C312 C315 1.365 . S
C312 N317 1.328 . S
C312 H318 0.929 . S
C313 C314 1.362 1_556 S
C313 C316 1.378 . S
C313 H328 0.929 . S
C314 C313 1.362 1_554 S
C314 C315 1.366 . S
C315 C312 1.365 . S
C315 C314 1.366 . S
C315 H329 0.930 . S
C316 C313 1.378 . S
C316 N317 1.315 1_556 S
C316 H319 0.930 . S
N317 Co297 2.194 . S
N317 C312 1.328 . S
N317 C316 1.315 1_554 S
H318 C312 0.929 . S
H319 C316 0.930 . S
H320 C308 0.929 . S
H321 C310 0.929 . S
O322 Co297 2.351 . S
O322 C325 1.244 . S
O323 Co297 2.155 . S
O323 C325 1.240 . S
O324 Co297 2.096 1_556 S
O324 C305 1.247 . S
C325 O322 1.244 . S
C325 O323 1.240 . S
H326 C300 0.931 . S
H327 C309 0.931 . S
H328 C313 0.929 . S
H329 C315 0.930 . S
Co330 N334 2.148 . S
Co330 N340 2.128 1_554 S
Co330 N350 2.194 . S
Co330 O355 2.351 . S
Co330 O356 2.155 . S
Co330 O357 2.096 1_554 S
C331 N334 1.301 . S
C331 N335 1.328 . S
C331 H336 0.930 . S
C332 C333 1.333 . S
C332 N334 1.317 . S
C332 H337 0.930 . S
C333 C332 1.333 . S
C333 N335 1.350 . S
C333 H359 0.931 . S
N334 Co330 2.148 . S
N334 C331 1.301 . S
N334 C332 1.317 . S
N335 C331 1.328 . S
N335 C333 1.350 . S
H336 C331 0.930 . S
H337 C332 0.930 . S
C338 O339 1.224 . S
C338 O357 1.247 . S
O339 C338 1.224 . S
N340 Co330 2.128 1_556 S
N340 C341 1.355 . S
N340 C343 1.311 . S
C341 N340 1.355 . S
C341 C342 1.363 . S
C341 H353 0.929 . S
C342 C341 1.363 . S
C342 N344 1.375 . S
C342 H360 0.931 . S
C343 N340 1.311 . S
C343 N344 1.347 . S
C343 H354 0.929 . S
N344 C342 1.375 . S
N344 C343 1.347 . S
C345 C348 1.365 . S
C345 N350 1.328 . S
C345 H351 0.929 . S
C346 C347 1.362 1_556 S
C346 C349 1.378 . S
C346 H361 0.929 . S
C347 C346 1.362 1_554 S
C347 C348 1.366 . S
C348 C345 1.365 . S
C348 C347 1.366 . S
C348 H362 0.930 . S
C349 C346 1.378 . S
C349 N350 1.315 1_556 S
C349 H352 0.930 . S
N350 Co330 2.194 . S
N350 C345 1.328 . S
N350 C349 1.315 1_554 S
H351 C345 0.929 . S
H352 C349 0.930 . S
H353 C341 0.929 . S
H354 C343 0.929 . S
O355 Co330 2.351 . S
O355 C358 1.244 . S
O356 Co330 2.155 . S
O356 C358 1.240 . S
O357 Co330 2.096 1_556 S
O357 C338 1.247 . S
C358 O355 1.244 . S
C358 O356 1.240 . S
H359 C333 0.931 . S
H360 C342 0.931 . S
H361 C346 0.929 . S
H362 C348 0.930 . S
Co363 N367 2.148 . S
Co363 N373 2.128 1_554 S
Co363 N383 2.194 . S
Co363 O388 2.351 . S
Co363 O389 2.155 . S
Co363 O390 2.096 1_554 S
C364 N367 1.301 . S
C364 N368 1.328 . S
C364 H369 0.930 . S
C365 C366 1.333 . S
C365 N367 1.317 . S
C365 H370 0.930 . S
C366 C365 1.333 . S
C366 N368 1.350 . S
C366 H392 0.931 . S
N367 Co363 2.148 . S
N367 C364 1.301 . S
N367 C365 1.317 . S
N368 C364 1.328 . S
N368 C366 1.350 . S
H369 C364 0.930 . S
H370 C365 0.930 . S
C371 O372 1.224 . S
C371 O390 1.247 . S
O372 C371 1.224 . S
N373 Co363 2.128 1_556 S
N373 C374 1.355 . S
N373 C376 1.311 . S
C374 N373 1.355 . S
C374 C375 1.363 . S
C374 H386 0.929 . S
C375 C374 1.363 . S
C375 N377 1.375 . S
C375 H393 0.931 . S
C376 N373 1.311 . S
C376 N377 1.347 . S
C376 H387 0.929 . S
N377 C375 1.375 . S
N377 C376 1.347 . S
C378 C381 1.365 . S
C378 N383 1.328 . S
C378 H384 0.929 . S
C379 C380 1.362 1_556 S
C379 C382 1.378 . S
C379 H394 0.929 . S
C380 C379 1.362 1_554 S
C380 C381 1.366 . S
C381 C378 1.365 . S
C381 C380 1.366 . S
C381 H395 0.930 . S
C382 C379 1.378 . S
C382 N383 1.315 1_556 S
C382 H385 0.930 . S
N383 Co363 2.194 . S
N383 C378 1.328 . S
N383 C382 1.315 1_554 S
H384 C378 0.929 . S
H385 C382 0.930 . S
H386 C374 0.929 . S
H387 C376 0.929 . S
O388 Co363 2.351 . S
O388 C391 1.244 . S
O389 Co363 2.155 . S
O389 C391 1.240 . S
O390 Co363 2.096 1_556 S
O390 C371 1.247 . S
C391 O388 1.244 . S
C391 O389 1.240 . S
H392 C366 0.931 . S
H393 C375 0.931 . S
H394 C379 0.929 . S
H395 C381 0.930 . S
Co396 N400 2.148 . S
Co396 N406 2.128 . S
Co396 N416 2.194 . S
Co396 O421 2.351 . S
Co396 O422 2.155 . S
Co396 O423 2.096 . S
C397 N400 1.301 . S
C397 N401 1.328 . S
C397 H402 0.930 . S
C398 C399 1.333 . S
C398 N400 1.317 . S
C398 H403 0.930 . S
C399 C398 1.333 . S
C399 N401 1.350 . S
C399 H425 0.931 . S
N400 Co396 2.148 . S
N400 C397 1.301 . S
N400 C398 1.317 . S
N401 C397 1.328 . S
N401 C399 1.350 . S
H402 C397 0.930 . S
H403 C398 0.930 . S
C404 O405 1.224 . S
C404 O423 1.247 . S
O405 C404 1.224 . S
N406 Co396 2.128 . S
N406 C407 1.355 . S
N406 C409 1.311 . S
C407 N406 1.355 . S
C407 C408 1.363 . S
C407 H419 0.929 . S
C408 C407 1.363 . S
C408 N410 1.375 . S
C408 H426 0.931 . S
C409 N406 1.311 . S
C409 N410 1.347 . S
C409 H420 0.929 . S
N410 C408 1.375 . S
N410 C409 1.347 . S
C411 C414 1.365 . S
C411 N416 1.328 . S
C411 H417 0.929 . S
C412 C413 1.362 . S
C412 C415 1.378 . S
C412 H427 0.929 . S
C413 C412 1.362 . S
C413 C414 1.366 . S
C414 C411 1.365 . S
C414 C413 1.366 . S
C414 H428 0.930 . S
C415 C412 1.378 . S
C415 N416 1.315 . S
C415 H418 0.930 . S
N416 Co396 2.194 . S
N416 C411 1.328 . S
N416 C415 1.315 . S
H417 C411 0.929 . S
H418 C415 0.930 . S
H419 C407 0.929 . S
H420 C409 0.929 . S
O421 Co396 2.351 . S
O421 C424 1.244 . S
O422 Co396 2.155 . S
O422 C424 1.240 . S
O423 Co396 2.096 . S
O423 C404 1.247 . S
C424 O421 1.244 . S
C424 O422 1.240 . S
H425 C399 0.931 . S
H426 C408 0.931 . S
H427 C412 0.929 . S
H428 C414 0.930 . S
Co429 N433 2.148 . S
Co429 N439 2.128 . S
Co429 N449 2.194 . S
Co429 O454 2.351 . S
Co429 O455 2.155 . S
Co429 O456 2.096 . S
C430 N433 1.301 . S
C430 N434 1.328 . S
C430 H435 0.930 . S
C431 C432 1.333 . S
C431 N433 1.317 . S
C431 H436 0.930 . S
C432 C431 1.333 . S
C432 N434 1.350 . S
C432 H458 0.931 . S
N433 Co429 2.148 . S
N433 C430 1.301 . S
N433 C431 1.317 . S
N434 C430 1.328 . S
N434 C432 1.350 . S
H435 C430 0.930 . S
H436 C431 0.930 . S
C437 O438 1.224 . S
C437 O456 1.247 . S
O438 C437 1.224 . S
N439 Co429 2.128 . S
N439 C440 1.355 . S
N439 C442 1.311 . S
C440 N439 1.355 . S
C440 C441 1.363 . S
C440 H452 0.929 . S
C441 C440 1.363 . S
C441 N443 1.375 . S
C441 H459 0.931 . S
C442 N439 1.311 . S
C442 N443 1.347 . S
C442 H453 0.929 . S
N443 C441 1.375 . S
N443 C442 1.347 . S
C444 C447 1.365 . S
C444 N449 1.328 . S
C444 H450 0.929 . S
C445 C446 1.362 . S
C445 C448 1.378 . S
C445 H460 0.929 . S
C446 C445 1.362 . S
C446 C447 1.366 . S
C447 C444 1.365 . S
C447 C446 1.366 . S
C447 H461 0.930 . S
C448 C445 1.378 . S
C448 N449 1.315 . S
C448 H451 0.930 . S
N449 Co429 2.194 . S
N449 C444 1.328 . S
N449 C448 1.315 . S
H450 C444 0.929 . S
H451 C448 0.930 . S
H452 C440 0.929 . S
H453 C442 0.929 . S
O454 Co429 2.351 . S
O454 C457 1.244 . S
O455 Co429 2.155 . S
O455 C457 1.240 . S
O456 Co429 2.096 . S
O456 C437 1.247 . S
C457 O454 1.244 . S
C457 O455 1.240 . S
H458 C432 0.931 . S
H459 C441 0.931 . S
H460 C445 0.929 . S
H461 C447 0.930 . S
Co462 N466 2.148 . S
Co462 N472 2.128 . S
Co462 N482 2.194 . S
Co462 O487 2.351 . S
Co462 O488 2.155 . S
Co462 O489 2.096 . S
C463 N466 1.301 . S
C463 N467 1.328 . S
C463 H468 0.930 . S
C464 C465 1.333 . S
C464 N466 1.317 . S
C464 H469 0.930 . S
C465 C464 1.333 . S
C465 N467 1.350 . S
C465 H491 0.931 . S
N466 Co462 2.148 . S
N466 C463 1.301 . S
N466 C464 1.317 . S
N467 C463 1.328 . S
N467 C465 1.350 . S
H468 C463 0.930 . S
H469 C464 0.930 . S
C470 O471 1.224 . S
C470 O489 1.247 . S
O471 C470 1.224 . S
N472 Co462 2.128 . S
N472 C473 1.355 . S
N472 C475 1.311 . S
C473 N472 1.355 . S
C473 C474 1.363 . S
C473 H485 0.929 . S
C474 C473 1.363 . S
C474 N476 1.375 . S
C474 H492 0.931 . S
C475 N472 1.311 . S
C475 N476 1.347 . S
C475 H486 0.929 . S
N476 C474 1.375 . S
N476 C475 1.347 . S
C477 C480 1.365 . S
C477 N482 1.328 . S
C477 H483 0.929 . S
C478 C479 1.362 . S
C478 C481 1.378 . S
C478 H493 0.929 . S
C479 C478 1.362 . S
C479 C480 1.366 . S
C480 C477 1.365 . S
C480 C479 1.366 . S
C480 H494 0.930 . S
C481 C478 1.378 . S
C481 N482 1.315 . S
C481 H484 0.930 . S
N482 Co462 2.194 . S
N482 C477 1.328 . S
N482 C481 1.315 . S
H483 C477 0.929 . S
H484 C481 0.930 . S
H485 C473 0.929 . S
H486 C475 0.929 . S
O487 Co462 2.351 . S
O487 C490 1.244 . S
O488 Co462 2.155 . S
O488 C490 1.240 . S
O489 Co462 2.096 . S
O489 C470 1.247 . S
C490 O487 1.244 . S
C490 O488 1.240 . S
H491 C465 0.931 . S
H492 C474 0.931 . S
H493 C478 0.929 . S
H494 C480 0.930 . S
Co495 N499 2.148 . S
Co495 N505 2.128 . S
Co495 N515 2.194 . S
Co495 O520 2.351 . S
Co495 O521 2.155 . S
Co495 O522 2.096 . S
C496 N499 1.301 . S
C496 N500 1.328 . S
C496 H501 0.930 . S
C497 C498 1.333 . S
C497 N499 1.317 . S
C497 H502 0.930 . S
C498 C497 1.333 . S
C498 N500 1.350 . S
C498 H524 0.931 . S
N499 Co495 2.148 . S
N499 C496 1.301 . S
N499 C497 1.317 . S
N500 C496 1.328 . S
N500 C498 1.350 . S
H501 C496 0.930 . S
H502 C497 0.930 . S
C503 O504 1.224 . S
C503 O522 1.247 . S
O504 C503 1.224 . S
N505 Co495 2.128 . S
N505 C506 1.355 . S
N505 C508 1.311 . S
C506 N505 1.355 . S
C506 C507 1.363 . S
C506 H518 0.929 . S
C507 C506 1.363 . S
C507 N509 1.375 . S
C507 H525 0.931 . S
C508 N505 1.311 . S
C508 N509 1.347 . S
C508 H519 0.929 . S
N509 C507 1.375 . S
N509 C508 1.347 . S
C510 C513 1.365 . S
C510 N515 1.328 . S
C510 H516 0.929 . S
C511 C512 1.362 . S
C511 C514 1.378 . S
C511 H526 0.929 . S
C512 C511 1.362 . S
C512 C513 1.366 . S
C513 C510 1.365 . S
C513 C512 1.366 . S
C513 H527 0.930 . S
C514 C511 1.378 . S
C514 N515 1.315 . S
C514 H517 0.930 . S
N515 Co495 2.194 . S
N515 C510 1.328 . S
N515 C514 1.315 . S
H516 C510 0.929 . S
H517 C514 0.930 . S
H518 C506 0.929 . S
H519 C508 0.929 . S
O520 Co495 2.351 . S
O520 C523 1.244 . S
O521 Co495 2.155 . S
O521 C523 1.240 . S
O522 Co495 2.096 . S
O522 C503 1.247 . S
C523 O520 1.244 . S
C523 O521 1.240 . S
H524 C498 0.931 . S
H525 C507 0.931 . S
H526 C511 0.929 . S
H527 C513 0.930 . S
Co528 N532 2.148 . S
Co528 N538 2.128 . S
Co528 N548 2.194 . S
Co528 O553 2.351 . S
Co528 O554 2.155 . S
Co528 O555 2.096 . S
C529 N532 1.301 . S
C529 N533 1.328 . S
C529 H534 0.930 . S
C530 C531 1.333 . S
C530 N532 1.317 . S
C530 H535 0.930 . S
C531 C530 1.333 . S
C531 N533 1.350 . S
C531 H557 0.931 . S
N532 Co528 2.148 . S
N532 C529 1.301 . S
N532 C530 1.317 . S
N533 C529 1.328 . S
N533 C531 1.350 . S
H534 C529 0.930 . S
H535 C530 0.930 . S
C536 O537 1.224 . S
C536 O555 1.247 . S
O537 C536 1.224 . S
N538 Co528 2.128 . S
N538 C539 1.355 . S
N538 C541 1.311 . S
C539 N538 1.355 . S
C539 C540 1.363 . S
C539 H551 0.929 . S
C540 C539 1.363 . S
C540 N542 1.375 . S
C540 H558 0.931 . S
C541 N538 1.311 . S
C541 N542 1.347 . S
C541 H552 0.929 . S
N542 C540 1.375 . S
N542 C541 1.347 . S
C543 C546 1.365 . S
C543 N548 1.328 . S
C543 H549 0.929 . S
C544 C545 1.362 . S
C544 C547 1.378 . S
C544 H559 0.929 . S
C545 C544 1.362 . S
C545 C546 1.366 . S
C546 C543 1.365 . S
C546 C545 1.366 . S
C546 H560 0.930 . S
C547 C544 1.378 . S
C547 N548 1.315 . S
C547 H550 0.930 . S
N548 Co528 2.194 . S
N548 C543 1.328 . S
N548 C547 1.315 . S
H549 C543 0.929 . S
H550 C547 0.930 . S
H551 C539 0.929 . S
H552 C541 0.929 . S
O553 Co528 2.351 . S
O553 C556 1.244 . S
O554 Co528 2.155 . S
O554 C556 1.240 . S
O555 Co528 2.096 . S
O555 C536 1.247 . S
C556 O553 1.244 . S
C556 O554 1.240 . S
H557 C531 0.931 . S
H558 C540 0.931 . S
H559 C544 0.929 . S
H560 C546 0.930 . S
Co561 N565 2.148 . S
Co561 N571 2.128 . S
Co561 N581 2.194 . S
Co561 O586 2.351 . S
Co561 O587 2.155 . S
Co561 O588 2.096 . S
C562 N565 1.301 . S
C562 N566 1.328 . S
C562 H567 0.930 . S
C563 C564 1.333 . S
C563 N565 1.317 . S
C563 H568 0.930 . S
C564 C563 1.333 . S
C564 N566 1.350 . S
C564 H590 0.931 . S
N565 Co561 2.148 . S
N565 C562 1.301 . S
N565 C563 1.317 . S
N566 C562 1.328 . S
N566 C564 1.350 . S
H567 C562 0.930 . S
H568 C563 0.930 . S
C569 O570 1.224 . S
C569 O588 1.247 . S
O570 C569 1.224 . S
N571 Co561 2.128 . S
N571 C572 1.355 . S
N571 C574 1.311 . S
C572 N571 1.355 . S
C572 C573 1.363 . S
C572 H584 0.929 . S
C573 C572 1.363 . S
C573 N575 1.375 . S
C573 H591 0.931 . S
C574 N571 1.311 . S
C574 N575 1.347 . S
C574 H585 0.929 . S
N575 C573 1.375 . S
N575 C574 1.347 . S
C576 C579 1.365 . S
C576 N581 1.328 . S
C576 H582 0.929 . S
C577 C578 1.362 . S
C577 C580 1.378 . S
C577 H592 0.929 . S
C578 C577 1.362 . S
C578 C579 1.366 . S
C579 C576 1.365 . S
C579 C578 1.366 . S
C579 H593 0.930 . S
C580 C577 1.378 . S
C580 N581 1.315 . S
C580 H583 0.930 . S
N581 Co561 2.194 . S
N581 C576 1.328 . S
N581 C580 1.315 . S
H582 C576 0.929 . S
H583 C580 0.930 . S
H584 C572 0.929 . S
H585 C574 0.929 . S
O586 Co561 2.351 . S
O586 C589 1.244 . S
O587 Co561 2.155 . S
O587 C589 1.240 . S
O588 Co561 2.096 . S
O588 C569 1.247 . S
C589 O586 1.244 . S
C589 O587 1.240 . S
H590 C564 0.931 . S
H591 C573 0.931 . S
H592 C577 0.929 . S
H593 C579 0.930 . S
Co594 N598 2.148 . S
Co594 N604 2.128 . S
Co594 N614 2.194 . S
Co594 O619 2.351 . S
Co594 O620 2.155 . S
Co594 O621 2.096 . S
C595 N598 1.301 . S
C595 N599 1.328 . S
C595 H600 0.930 . S
C596 C597 1.333 . S
C596 N598 1.317 . S
C596 H601 0.930 . S
C597 C596 1.333 . S
C597 N599 1.350 . S
C597 H623 0.931 . S
N598 Co594 2.148 . S
N598 C595 1.301 . S
N598 C596 1.317 . S
N599 C595 1.328 . S
N599 C597 1.350 . S
H600 C595 0.930 . S
H601 C596 0.930 . S
C602 O603 1.224 . S
C602 O621 1.247 . S
O603 C602 1.224 . S
N604 Co594 2.128 . S
N604 C605 1.355 . S
N604 C607 1.311 . S
C605 N604 1.355 . S
C605 C606 1.363 . S
C605 H617 0.929 . S
C606 C605 1.363 . S
C606 N608 1.375 . S
C606 H624 0.931 . S
C607 N604 1.311 . S
C607 N608 1.347 . S
C607 H618 0.929 . S
N608 C606 1.375 . S
N608 C607 1.347 . S
C609 C612 1.365 . S
C609 N614 1.328 . S
C609 H615 0.929 . S
C610 C611 1.362 . S
C610 C613 1.378 . S
C610 H625 0.929 . S
C611 C610 1.362 . S
C611 C612 1.366 . S
C612 C609 1.365 . S
C612 C611 1.366 . S
C612 H626 0.930 . S
C613 C610 1.378 . S
C613 N614 1.315 . S
C613 H616 0.930 . S
N614 Co594 2.194 . S
N614 C609 1.328 . S
N614 C613 1.315 . S
H615 C609 0.929 . S
H616 C613 0.930 . S
H617 C605 0.929 . S
H618 C607 0.929 . S
O619 Co594 2.351 . S
O619 C622 1.244 . S
O620 Co594 2.155 . S
O620 C622 1.240 . S
O621 Co594 2.096 . S
O621 C602 1.247 . S
C622 O619 1.244 . S
C622 O620 1.240 . S
H623 C597 0.931 . S
H624 C606 0.931 . S
H625 C610 0.929 . S
H626 C612 0.930 . S
Co627 N631 2.148 . S
Co627 N637 2.128 . S
Co627 N647 2.194 . S
Co627 O652 2.351 . S
Co627 O653 2.155 . S
Co627 O654 2.096 . S
C628 N631 1.301 . S
C628 N632 1.328 . S
C628 H633 0.930 . S
C629 C630 1.333 . S
C629 N631 1.317 . S
C629 H634 0.930 . S
C630 C629 1.333 . S
C630 N632 1.350 . S
C630 H656 0.931 . S
N631 Co627 2.148 . S
N631 C628 1.301 . S
N631 C629 1.317 . S
N632 C628 1.328 . S
N632 C630 1.350 . S
H633 C628 0.930 . S
H634 C629 0.930 . S
C635 O636 1.224 . S
C635 O654 1.247 . S
O636 C635 1.224 . S
N637 Co627 2.128 . S
N637 C638 1.355 . S
N637 C640 1.311 . S
C638 N637 1.355 . S
C638 C639 1.363 . S
C638 H650 0.929 . S
C639 C638 1.363 . S
C639 N641 1.375 . S
C639 H657 0.931 . S
C640 N637 1.311 . S
C640 N641 1.347 . S
C640 H651 0.929 . S
N641 C639 1.375 . S
N641 C640 1.347 . S
C642 C645 1.365 . S
C642 N647 1.328 . S
C642 H648 0.929 . S
C643 C644 1.362 . S
C643 C646 1.378 . S
C643 H658 0.929 . S
C644 C643 1.362 . S
C644 C645 1.366 . S
C645 C642 1.365 . S
C645 C644 1.366 . S
C645 H659 0.930 . S
C646 C643 1.378 . S
C646 N647 1.315 . S
C646 H649 0.930 . S
N647 Co627 2.194 . S
N647 C642 1.328 . S
N647 C646 1.315 . S
H648 C642 0.929 . S
H649 C646 0.930 . S
H650 C638 0.929 . S
H651 C640 0.929 . S
O652 Co627 2.351 . S
O652 C655 1.244 . S
O653 Co627 2.155 . S
O653 C655 1.240 . S
O654 Co627 2.096 . S
O654 C635 1.247 . S
C655 O652 1.244 . S
C655 O653 1.240 . S
H656 C630 0.931 . S
H657 C639 0.931 . S
H658 C643 0.929 . S
H659 C645 0.930 . S
Co660 N664 2.148 . S
Co660 N670 2.128 . S
Co660 N680 2.194 . S
Co660 O685 2.351 . S
Co660 O686 2.155 . S
Co660 O687 2.096 . S
C661 N664 1.301 . S
C661 N665 1.328 . S
C661 H666 0.930 . S
C662 C663 1.333 . S
C662 N664 1.317 . S
C662 H667 0.930 . S
C663 C662 1.333 . S
C663 N665 1.350 . S
C663 H689 0.931 . S
N664 Co660 2.148 . S
N664 C661 1.301 . S
N664 C662 1.317 . S
N665 C661 1.328 . S
N665 C663 1.350 . S
H666 C661 0.930 . S
H667 C662 0.930 . S
C668 O669 1.224 . S
C668 O687 1.247 . S
O669 C668 1.224 . S
N670 Co660 2.128 . S
N670 C671 1.355 . S
N670 C673 1.311 . S
C671 N670 1.355 . S
C671 C672 1.363 . S
C671 H683 0.929 . S
C672 C671 1.363 . S
C672 N674 1.375 . S
C672 H690 0.931 . S
C673 N670 1.311 . S
C673 N674 1.347 . S
C673 H684 0.929 . S
N674 C672 1.375 . S
N674 C673 1.347 . S
C675 C678 1.365 . S
C675 N680 1.328 . S
C675 H681 0.929 . S
C676 C677 1.362 . S
C676 C679 1.378 . S
C676 H691 0.929 . S
C677 C676 1.362 . S
C677 C678 1.366 . S
C678 C675 1.365 . S
C678 C677 1.366 . S
C678 H692 0.930 . S
C679 C676 1.378 . S
C679 N680 1.315 . S
C679 H682 0.930 . S
N680 Co660 2.194 . S
N680 C675 1.328 . S
N680 C679 1.315 . S
H681 C675 0.929 . S
H682 C679 0.930 . S
H683 C671 0.929 . S
H684 C673 0.929 . S
O685 Co660 2.351 . S
O685 C688 1.244 . S
O686 Co660 2.155 . S
O686 C688 1.240 . S
O687 Co660 2.096 . S
O687 C668 1.247 . S
C688 O685 1.244 . S
C688 O686 1.240 . S
H689 C663 0.931 . S
H690 C672 0.931 . S
H691 C676 0.929 . S
H692 C678 0.930 . S
Co693 N697 2.148 . S
Co693 N703 2.128 . S
Co693 N713 2.194 . S
Co693 O718 2.351 . S
Co693 O719 2.155 . S
Co693 O720 2.096 . S
C694 N697 1.301 . S
C694 N698 1.328 . S
C694 H699 0.930 . S
C695 C696 1.333 . S
C695 N697 1.317 . S
C695 H700 0.930 . S
C696 C695 1.333 . S
C696 N698 1.350 . S
C696 H722 0.931 . S
N697 Co693 2.148 . S
N697 C694 1.301 . S
N697 C695 1.317 . S
N698 C694 1.328 . S
N698 C696 1.350 . S
H699 C694 0.930 . S
H700 C695 0.930 . S
C701 O702 1.224 . S
C701 O720 1.247 . S
O702 C701 1.224 . S
N703 Co693 2.128 . S
N703 C704 1.355 . S
N703 C706 1.311 . S
C704 N703 1.355 . S
C704 C705 1.363 . S
C704 H716 0.929 . S
C705 C704 1.363 . S
C705 N707 1.375 . S
C705 H723 0.931 . S
C706 N703 1.311 . S
C706 N707 1.347 . S
C706 H717 0.929 . S
N707 C705 1.375 . S
N707 C706 1.347 . S
C708 C711 1.365 . S
C708 N713 1.328 . S
C708 H714 0.929 . S
C709 C710 1.362 . S
C709 C712 1.378 . S
C709 H724 0.929 . S
C710 C709 1.362 . S
C710 C711 1.366 . S
C711 C708 1.365 . S
C711 C710 1.366 . S
C711 H725 0.930 . S
C712 C709 1.378 . S
C712 N713 1.315 . S
C712 H715 0.930 . S
N713 Co693 2.194 . S
N713 C708 1.328 . S
N713 C712 1.315 . S
H714 C708 0.929 . S
H715 C712 0.930 . S
H716 C704 0.929 . S
H717 C706 0.929 . S
O718 Co693 2.351 . S
O718 C721 1.244 . S
O719 Co693 2.155 . S
O719 C721 1.240 . S
O720 Co693 2.096 . S
O720 C701 1.247 . S
C721 O718 1.244 . S
C721 O719 1.240 . S
H722 C696 0.931 . S
H723 C705 0.931 . S
H724 C709 0.929 . S
H725 C711 0.930 . S
Co726 N730 2.148 . S
Co726 N736 2.128 . S
Co726 N746 2.194 . S
Co726 O751 2.351 . S
Co726 O752 2.155 . S
Co726 O753 2.096 . S
C727 N730 1.301 . S
C727 N731 1.328 . S
C727 H732 0.930 . S
C728 C729 1.333 . S
C728 N730 1.317 . S
C728 H733 0.930 . S
C729 C728 1.333 . S
C729 N731 1.350 . S
C729 H755 0.931 . S
N730 Co726 2.148 . S
N730 C727 1.301 . S
N730 C728 1.317 . S
N731 C727 1.328 . S
N731 C729 1.350 . S
H732 C727 0.930 . S
H733 C728 0.930 . S
C734 O735 1.224 . S
C734 O753 1.247 . S
O735 C734 1.224 . S
N736 Co726 2.128 . S
N736 C737 1.355 . S
N736 C739 1.311 . S
C737 N736 1.355 . S
C737 C738 1.363 . S
C737 H749 0.929 . S
C738 C737 1.363 . S
C738 N740 1.375 . S
C738 H756 0.931 . S
C739 N736 1.311 . S
C739 N740 1.347 . S
C739 H750 0.929 . S
N740 C738 1.375 . S
N740 C739 1.347 . S
C741 C744 1.365 . S
C741 N746 1.328 . S
C741 H747 0.929 . S
C742 C743 1.362 . S
C742 C745 1.378 . S
C742 H757 0.929 . S
C743 C742 1.362 . S
C743 C744 1.366 . S
C744 C741 1.365 . S
C744 C743 1.366 . S
C744 H758 0.930 . S
C745 C742 1.378 . S
C745 N746 1.315 . S
C745 H748 0.930 . S
N746 Co726 2.194 . S
N746 C741 1.328 . S
N746 C745 1.315 . S
H747 C741 0.929 . S
H748 C745 0.930 . S
H749 C737 0.929 . S
H750 C739 0.929 . S
O751 Co726 2.351 . S
O751 C754 1.244 . S
O752 Co726 2.155 . S
O752 C754 1.240 . S
O753 Co726 2.096 . S
O753 C734 1.247 . S
C754 O751 1.244 . S
C754 O752 1.240 . S
H755 C729 0.931 . S
H756 C738 0.931 . S
H757 C742 0.929 . S
H758 C744 0.930 . S
Co759 N763 2.148 . S
Co759 N769 2.128 . S
Co759 N779 2.194 . S
Co759 O784 2.351 . S
Co759 O785 2.155 . S
Co759 O786 2.096 . S
C760 N763 1.301 . S
C760 N764 1.328 . S
C760 H765 0.930 . S
C761 C762 1.333 . S
C761 N763 1.317 . S
C761 H766 0.930 . S
C762 C761 1.333 . S
C762 N764 1.350 . S
C762 H788 0.931 . S
N763 Co759 2.148 . S
N763 C760 1.301 . S
N763 C761 1.317 . S
N764 C760 1.328 . S
N764 C762 1.350 . S
H765 C760 0.930 . S
H766 C761 0.930 . S
C767 O768 1.224 . S
C767 O786 1.247 . S
O768 C767 1.224 . S
N769 Co759 2.128 . S
N769 C770 1.355 . S
N769 C772 1.311 . S
C770 N769 1.355 . S
C770 C771 1.363 . S
C770 H782 0.929 . S
C771 C770 1.363 . S
C771 N773 1.375 . S
C771 H789 0.931 . S
C772 N769 1.311 . S
C772 N773 1.347 . S
C772 H783 0.929 . S
N773 C771 1.375 . S
N773 C772 1.347 . S
C774 C777 1.365 . S
C774 N779 1.328 . S
C774 H780 0.929 . S
C775 C776 1.362 . S
C775 C778 1.378 . S
C775 H790 0.929 . S
C776 C775 1.362 . S
C776 C777 1.366 . S
C777 C774 1.365 . S
C777 C776 1.366 . S
C777 H791 0.930 . S
C778 C775 1.378 . S
C778 N779 1.315 . S
C778 H781 0.930 . S
N779 Co759 2.194 . S
N779 C774 1.328 . S
N779 C778 1.315 . S
H780 C774 0.929 . S
H781 C778 0.930 . S
H782 C770 0.929 . S
H783 C772 0.929 . S
O784 Co759 2.351 . S
O784 C787 1.244 . S
O785 Co759 2.155 . S
O785 C787 1.240 . S
O786 Co759 2.096 . S
O786 C767 1.247 . S
C787 O784 1.244 . S
C787 O785 1.240 . S
H788 C762 0.931 . S
H789 C771 0.931 . S
H790 C775 0.929 . S
H791 C777 0.930 . S
Co792 N796 2.148 . S
Co792 N802 2.128 . S
Co792 N812 2.194 . S
Co792 O817 2.351 . S
Co792 O818 2.155 . S
Co792 O819 2.096 . S
C793 N796 1.301 . S
C793 N797 1.328 . S
C793 H798 0.930 . S
C794 C795 1.333 . S
C794 N796 1.317 . S
C794 H799 0.930 . S
C795 C794 1.333 . S
C795 N797 1.350 . S
C795 H821 0.931 . S
N796 Co792 2.148 . S
N796 C793 1.301 . S
N796 C794 1.317 . S
N797 C793 1.328 . S
N797 C795 1.350 . S
H798 C793 0.930 . S
H799 C794 0.930 . S
C800 O801 1.224 . S
C800 O819 1.247 . S
O801 C800 1.224 . S
N802 Co792 2.128 . S
N802 C803 1.355 . S
N802 C805 1.311 . S
C803 N802 1.355 . S
C803 C804 1.363 . S
C803 H815 0.929 . S
C804 C803 1.363 . S
C804 N806 1.375 . S
C804 H822 0.931 . S
C805 N802 1.311 . S
C805 N806 1.347 . S
C805 H816 0.929 . S
N806 C804 1.375 . S
N806 C805 1.347 . S
C807 C810 1.365 . S
C807 N812 1.328 . S
C807 H813 0.929 . S
C808 C809 1.362 . S
C808 C811 1.378 . S
C808 H823 0.929 . S
C809 C808 1.362 . S
C809 C810 1.366 . S
C810 C807 1.365 . S
C810 C809 1.366 . S
C810 H824 0.930 . S
C811 C808 1.378 . S
C811 N812 1.315 . S
C811 H814 0.930 . S
N812 Co792 2.194 . S
N812 C807 1.328 . S
N812 C811 1.315 . S
H813 C807 0.929 . S
H814 C811 0.930 . S
H815 C803 0.929 . S
H816 C805 0.929 . S
O817 Co792 2.351 . S
O817 C820 1.244 . S
O818 Co792 2.155 . S
O818 C820 1.240 . S
O819 Co792 2.096 . S
O819 C800 1.247 . S
C820 O817 1.244 . S
C820 O818 1.240 . S
H821 C795 0.931 . S
H822 C804 0.931 . S
H823 C808 0.929 . S
H824 C810 0.930 . S
Co825 N829 2.148 . S
Co825 N835 2.128 . S
Co825 N845 2.194 . S
Co825 O850 2.351 . S
Co825 O851 2.155 . S
Co825 O852 2.096 . S
C826 N829 1.301 . S
C826 N830 1.328 . S
C826 H831 0.930 . S
C827 C828 1.333 . S
C827 N829 1.317 . S
C827 H832 0.930 . S
C828 C827 1.333 . S
C828 N830 1.350 . S
C828 H854 0.931 . S
N829 Co825 2.148 . S
N829 C826 1.301 . S
N829 C827 1.317 . S
N830 C826 1.328 . S
N830 C828 1.350 . S
H831 C826 0.930 . S
H832 C827 0.930 . S
C833 O834 1.224 . S
C833 O852 1.247 . S
O834 C833 1.224 . S
N835 Co825 2.128 . S
N835 C836 1.355 . S
N835 C838 1.311 . S
C836 N835 1.355 . S
C836 C837 1.363 . S
C836 H848 0.929 . S
C837 C836 1.363 . S
C837 N839 1.375 . S
C837 H855 0.931 . S
C838 N835 1.311 . S
C838 N839 1.347 . S
C838 H849 0.929 . S
N839 C837 1.375 . S
N839 C838 1.347 . S
C840 C843 1.365 . S
C840 N845 1.328 . S
C840 H846 0.929 . S
C841 C842 1.362 . S
C841 C844 1.378 . S
C841 H856 0.929 . S
C842 C841 1.362 . S
C842 C843 1.366 . S
C843 C840 1.365 . S
C843 C842 1.366 . S
C843 H857 0.930 . S
C844 C841 1.378 . S
C844 N845 1.315 . S
C844 H847 0.930 . S
N845 Co825 2.194 . S
N845 C840 1.328 . S
N845 C844 1.315 . S
H846 C840 0.929 . S
H847 C844 0.930 . S
H848 C836 0.929 . S
H849 C838 0.929 . S
O850 Co825 2.351 . S
O850 C853 1.244 . S
O851 Co825 2.155 . S
O851 C853 1.240 . S
O852 Co825 2.096 . S
O852 C833 1.247 . S
C853 O850 1.244 . S
C853 O851 1.240 . S
H854 C828 0.931 . S
H855 C837 0.931 . S
H856 C841 0.929 . S
H857 C843 0.930 . S
Co858 N862 2.148 . S
Co858 N868 2.128 . S
Co858 N878 2.194 . S
Co858 O883 2.351 . S
Co858 O884 2.155 . S
Co858 O885 2.096 . S
C859 N862 1.301 . S
C859 N863 1.328 . S
C859 H864 0.930 . S
C860 C861 1.333 . S
C860 N862 1.317 . S
C860 H865 0.930 . S
C861 C860 1.333 . S
C861 N863 1.350 . S
C861 H887 0.931 . S
N862 Co858 2.148 . S
N862 C859 1.301 . S
N862 C860 1.317 . S
N863 C859 1.328 . S
N863 C861 1.350 . S
H864 C859 0.930 . S
H865 C860 0.930 . S
C866 O867 1.224 . S
C866 O885 1.247 . S
O867 C866 1.224 . S
N868 Co858 2.128 . S
N868 C869 1.355 . S
N868 C871 1.311 . S
C869 N868 1.355 . S
C869 C870 1.363 . S
C869 H881 0.929 . S
C870 C869 1.363 . S
C870 N872 1.375 . S
C870 H888 0.931 . S
C871 N868 1.311 . S
C871 N872 1.347 . S
C871 H882 0.929 . S
N872 C870 1.375 . S
N872 C871 1.347 . S
C873 C876 1.365 . S
C873 N878 1.328 . S
C873 H879 0.929 . S
C874 C875 1.362 . S
C874 C877 1.378 . S
C874 H889 0.929 . S
C875 C874 1.362 . S
C875 C876 1.366 . S
C876 C873 1.365 . S
C876 C875 1.366 . S
C876 H890 0.930 . S
C877 C874 1.378 . S
C877 N878 1.315 . S
C877 H880 0.930 . S
N878 Co858 2.194 . S
N878 C873 1.328 . S
N878 C877 1.315 . S
H879 C873 0.929 . S
H880 C877 0.930 . S
H881 C869 0.929 . S
H882 C871 0.929 . S
O883 Co858 2.351 . S
O883 C886 1.244 . S
O884 Co858 2.155 . S
O884 C886 1.240 . S
O885 Co858 2.096 . S
O885 C866 1.247 . S
C886 O883 1.244 . S
C886 O884 1.240 . S
H887 C861 0.931 . S
H888 C870 0.931 . S
H889 C874 0.929 . S
H890 C876 0.930 . S
Co891 N895 2.148 . S
Co891 N901 2.128 . S
Co891 N911 2.194 . S
Co891 O916 2.351 . S
Co891 O917 2.155 . S
Co891 O918 2.096 . S
C892 N895 1.301 . S
C892 N896 1.328 . S
C892 H897 0.930 . S
C893 C894 1.333 . S
C893 N895 1.317 . S
C893 H898 0.930 . S
C894 C893 1.333 . S
C894 N896 1.350 . S
C894 H920 0.931 . S
N895 Co891 2.148 . S
N895 C892 1.301 . S
N895 C893 1.317 . S
N896 C892 1.328 . S
N896 C894 1.350 . S
H897 C892 0.930 . S
H898 C893 0.930 . S
C899 O900 1.224 . S
C899 O918 1.247 . S
O900 C899 1.224 . S
N901 Co891 2.128 . S
N901 C902 1.355 . S
N901 C904 1.311 . S
C902 N901 1.355 . S
C902 C903 1.363 . S
C902 H914 0.929 . S
C903 C902 1.363 . S
C903 N905 1.375 . S
C903 H921 0.931 . S
C904 N901 1.311 . S
C904 N905 1.347 . S
C904 H915 0.929 . S
N905 C903 1.375 . S
N905 C904 1.347 . S
C906 C909 1.365 . S
C906 N911 1.328 . S
C906 H912 0.929 . S
C907 C908 1.362 . S
C907 C910 1.378 . S
C907 H922 0.929 . S
C908 C907 1.362 . S
C908 C909 1.366 . S
C909 C906 1.365 . S
C909 C908 1.366 . S
C909 H923 0.930 . S
C910 C907 1.378 . S
C910 N911 1.315 . S
C910 H913 0.930 . S
N911 Co891 2.194 . S
N911 C906 1.328 . S
N911 C910 1.315 . S
H912 C906 0.929 . S
H913 C910 0.930 . S
H914 C902 0.929 . S
H915 C904 0.929 . S
O916 Co891 2.351 . S
O916 C919 1.244 . S
O917 Co891 2.155 . S
O917 C919 1.240 . S
O918 Co891 2.096 . S
O918 C899 1.247 . S
C919 O916 1.244 . S
C919 O917 1.240 . S
H920 C894 0.931 . S
H921 C903 0.931 . S
H922 C907 0.929 . S
H923 C909 0.930 . S
Co924 N928 2.148 . S
Co924 N934 2.128 . S
Co924 N944 2.194 . S
Co924 O949 2.351 . S
Co924 O950 2.155 . S
Co924 O951 2.096 . S
C925 N928 1.301 . S
C925 N929 1.328 . S
C925 H930 0.930 . S
C926 C927 1.333 . S
C926 N928 1.317 . S
C926 H931 0.930 . S
C927 C926 1.333 . S
C927 N929 1.350 . S
C927 H953 0.931 . S
N928 Co924 2.148 . S
N928 C925 1.301 . S
N928 C926 1.317 . S
N929 C925 1.328 . S
N929 C927 1.350 . S
H930 C925 0.930 . S
H931 C926 0.930 . S
C932 O933 1.224 . S
C932 O951 1.247 . S
O933 C932 1.224 . S
N934 Co924 2.128 . S
N934 C935 1.355 . S
N934 C937 1.311 . S
C935 N934 1.355 . S
C935 C936 1.363 . S
C935 H947 0.929 . S
C936 C935 1.363 . S
C936 N938 1.375 . S
C936 H954 0.931 . S
C937 N934 1.311 . S
C937 N938 1.347 . S
C937 H948 0.929 . S
N938 C936 1.375 . S
N938 C937 1.347 . S
C939 C942 1.365 . S
C939 N944 1.328 . S
C939 H945 0.929 . S
C940 C941 1.362 . S
C940 C943 1.378 . S
C940 H955 0.929 . S
C941 C940 1.362 . S
C941 C942 1.366 . S
C942 C939 1.365 . S
C942 C941 1.366 . S
C942 H956 0.930 . S
C943 C940 1.378 . S
C943 N944 1.315 . S
C943 H946 0.930 . S
N944 Co924 2.194 . S
N944 C939 1.328 . S
N944 C943 1.315 . S
H945 C939 0.929 . S
H946 C943 0.930 . S
H947 C935 0.929 . S
H948 C937 0.929 . S
O949 Co924 2.351 . S
O949 C952 1.244 . S
O950 Co924 2.155 . S
O950 C952 1.240 . S
O951 Co924 2.096 . S
O951 C932 1.247 . S
C952 O949 1.244 . S
C952 O950 1.240 . S
H953 C927 0.931 . S
H954 C936 0.931 . S
H955 C940 0.929 . S
H956 C942 0.930 . S
Co957 N961 2.148 . S
Co957 N967 2.128 . S
Co957 N977 2.194 . S
Co957 O982 2.351 . S
Co957 O983 2.155 . S
Co957 O984 2.096 . S
C958 N961 1.301 . S
C958 N962 1.328 . S
C958 H963 0.930 . S
C959 C960 1.333 . S
C959 N961 1.317 . S
C959 H964 0.930 . S
C960 C959 1.333 . S
C960 N962 1.350 . S
C960 H986 0.931 . S
N961 Co957 2.148 . S
N961 C958 1.301 . S
N961 C959 1.317 . S
N962 C958 1.328 . S
N962 C960 1.350 . S
H963 C958 0.930 . S
H964 C959 0.930 . S
C965 O966 1.224 . S
C965 O984 1.247 . S
O966 C965 1.224 . S
N967 Co957 2.128 . S
N967 C968 1.355 . S
N967 C970 1.311 . S
C968 N967 1.355 . S
C968 C969 1.363 . S
C968 H980 0.929 . S
C969 C968 1.363 . S
C969 N971 1.375 . S
C969 H987 0.931 . S
C970 N967 1.311 . S
C970 N971 1.347 . S
C970 H981 0.929 . S
N971 C969 1.375 . S
N971 C970 1.347 . S
C972 C975 1.365 . S
C972 N977 1.328 . S
C972 H978 0.929 . S
C973 C974 1.362 . S
C973 C976 1.378 . S
C973 H988 0.929 . S
C974 C973 1.362 . S
C974 C975 1.366 . S
C975 C972 1.365 . S
C975 C974 1.366 . S
C975 H989 0.930 . S
C976 C973 1.378 . S
C976 N977 1.315 . S
C976 H979 0.930 . S
N977 Co957 2.194 . S
N977 C972 1.328 . S
N977 C976 1.315 . S
H978 C972 0.929 . S
H979 C976 0.930 . S
H980 C968 0.929 . S
H981 C970 0.929 . S
O982 Co957 2.351 . S
O982 C985 1.244 . S
O983 Co957 2.155 . S
O983 C985 1.240 . S
O984 Co957 2.096 . S
O984 C965 1.247 . S
C985 O982 1.244 . S
C985 O983 1.240 . S
H986 C960 0.931 . S
H987 C969 0.931 . S
H988 C973 0.929 . S
H989 C975 0.930 . S
Co990 N994 2.148 . S
Co990 N1000 2.128 . S
Co990 N1010 2.194 . S
Co990 O1015 2.351 . S
Co990 O1016 2.155 . S
Co990 O1017 2.096 . S
C991 N994 1.301 . S
C991 N995 1.328 . S
C991 H996 0.930 . S
C992 C993 1.333 . S
C992 N994 1.317 . S
C992 H997 0.930 . S
C993 C992 1.333 . S
C993 N995 1.350 . S
C993 H1019 0.931 . S
N994 Co990 2.148 . S
N994 C991 1.301 . S
N994 C992 1.317 . S
N995 C991 1.328 . S
N995 C993 1.350 . S
H996 C991 0.930 . S
H997 C992 0.930 . S
C998 O999 1.224 . S
C998 O1017 1.247 . S
O999 C998 1.224 . S
N1000 Co990 2.128 . S
N1000 C1001 1.355 . S
N1000 C1003 1.311 . S
C1001 N1000 1.355 . S
C1001 C1002 1.363 . S
C1001 H1013 0.929 . S
C1002 C1001 1.363 . S
C1002 N1004 1.375 . S
C1002 H1020 0.931 . S
C1003 N1000 1.311 . S
C1003 N1004 1.347 . S
C1003 H1014 0.929 . S
N1004 C1002 1.375 . S
N1004 C1003 1.347 . S
C1005 C1008 1.365 . S
C1005 N1010 1.328 . S
C1005 H1011 0.929 . S
C1006 C1007 1.362 . S
C1006 C1009 1.378 . S
C1006 H1021 0.929 . S
C1007 C1006 1.362 . S
C1007 C1008 1.366 . S
C1008 C1005 1.365 . S
C1008 C1007 1.366 . S
C1008 H1022 0.930 . S
C1009 C1006 1.378 . S
C1009 N1010 1.315 . S
C1009 H1012 0.930 . S
N1010 Co990 2.194 . S
N1010 C1005 1.328 . S
N1010 C1009 1.315 . S
H1011 C1005 0.929 . S
H1012 C1009 0.930 . S
H1013 C1001 0.929 . S
H1014 C1003 0.929 . S
O1015 Co990 2.351 . S
O1015 C1018 1.244 . S
O1016 Co990 2.155 . S
O1016 C1018 1.240 . S
O1017 Co990 2.096 . S
O1017 C998 1.247 . S
C1018 O1015 1.244 . S
C1018 O1016 1.240 . S
H1019 C993 0.931 . S
H1020 C1002 0.931 . S
H1021 C1006 0.929 . S
H1022 C1008 0.930 . S
Co1023 N1027 2.148 . S
Co1023 N1033 2.128 . S
Co1023 N1043 2.194 . S
Co1023 O1048 2.351 . S
Co1023 O1049 2.155 . S
Co1023 O1050 2.096 . S
C1024 N1027 1.301 . S
C1024 N1028 1.328 . S
C1024 H1029 0.930 . S
C1025 C1026 1.333 . S
C1025 N1027 1.317 . S
C1025 H1030 0.930 . S
C1026 C1025 1.333 . S
C1026 N1028 1.350 . S
C1026 H1052 0.931 . S
N1027 Co1023 2.148 . S
N1027 C1024 1.301 . S
N1027 C1025 1.317 . S
N1028 C1024 1.328 . S
N1028 C1026 1.350 . S
H1029 C1024 0.930 . S
H1030 C1025 0.930 . S
C1031 O1032 1.224 . S
C1031 O1050 1.247 . S
O1032 C1031 1.224 . S
N1033 Co1023 2.128 . S
N1033 C1034 1.355 . S
N1033 C1036 1.311 . S
C1034 N1033 1.355 . S
C1034 C1035 1.363 . S
C1034 H1046 0.929 . S
C1035 C1034 1.363 . S
C1035 N1037 1.375 . S
C1035 H1053 0.931 . S
C1036 N1033 1.311 . S
C1036 N1037 1.347 . S
C1036 H1047 0.929 . S
N1037 C1035 1.375 . S
N1037 C1036 1.347 . S
C1038 C1041 1.365 . S
C1038 N1043 1.328 . S
C1038 H1044 0.929 . S
C1039 C1040 1.362 . S
C1039 C1042 1.378 . S
C1039 H1054 0.929 . S
C1040 C1039 1.362 . S
C1040 C1041 1.366 . S
C1041 C1038 1.365 . S
C1041 C1040 1.366 . S
C1041 H1055 0.930 . S
C1042 C1039 1.378 . S
C1042 N1043 1.315 . S
C1042 H1045 0.930 . S
N1043 Co1023 2.194 . S
N1043 C1038 1.328 . S
N1043 C1042 1.315 . S
H1044 C1038 0.929 . S
H1045 C1042 0.930 . S
H1046 C1034 0.929 . S
H1047 C1036 0.929 . S
O1048 Co1023 2.351 . S
O1048 C1051 1.244 . S
O1049 Co1023 2.155 . S
O1049 C1051 1.240 . S
O1050 Co1023 2.096 . S
O1050 C1031 1.247 . S
C1051 O1048 1.244 . S
C1051 O1049 1.240 . S
H1052 C1026 0.931 . S
H1053 C1035 0.931 . S
H1054 C1039 0.929 . S
H1055 C1041 0.930 . S
Co1056 N1060 2.148 . S
Co1056 N1066 2.128 . S
Co1056 N1076 2.194 . S
Co1056 O1081 2.351 . S
Co1056 O1082 2.155 . S
Co1056 O1083 2.096 . S
C1057 N1060 1.301 . S
C1057 N1061 1.328 . S
C1057 H1062 0.930 . S
C1058 C1059 1.333 . S
C1058 N1060 1.317 . S
C1058 H1063 0.930 . S
C1059 C1058 1.333 . S
C1059 N1061 1.350 . S
C1059 H1085 0.931 . S
N1060 Co1056 2.148 . S
N1060 C1057 1.301 . S
N1060 C1058 1.317 . S
N1061 C1057 1.328 . S
N1061 C1059 1.350 . S
H1062 C1057 0.930 . S
H1063 C1058 0.930 . S
C1064 O1065 1.224 . S
C1064 O1083 1.247 . S
O1065 C1064 1.224 . S
N1066 Co1056 2.128 . S
N1066 C1067 1.355 . S
N1066 C1069 1.311 . S
C1067 N1066 1.355 . S
C1067 C1068 1.363 . S
C1067 H1079 0.929 . S
C1068 C1067 1.363 . S
C1068 N1070 1.375 . S
C1068 H1086 0.931 . S
C1069 N1066 1.311 . S
C1069 N1070 1.347 . S
C1069 H1080 0.929 . S
N1070 C1068 1.375 . S
N1070 C1069 1.347 . S
C1071 C1074 1.365 . S
C1071 N1076 1.328 . S
C1071 H1077 0.929 . S
C1072 C1073 1.362 . S
C1072 C1075 1.378 . S
C1072 H1087 0.929 . S
C1073 C1072 1.362 . S
C1073 C1074 1.366 . S
C1074 C1071 1.365 . S
C1074 C1073 1.366 . S
C1074 H1088 0.930 . S
C1075 C1072 1.378 . S
C1075 N1076 1.315 . S
C1075 H1078 0.930 . S
N1076 Co1056 2.194 . S
N1076 C1071 1.328 . S
N1076 C1075 1.315 . S
H1077 C1071 0.929 . S
H1078 C1075 0.930 . S
H1079 C1067 0.929 . S
H1080 C1069 0.929 . S
O1081 Co1056 2.351 . S
O1081 C1084 1.244 . S
O1082 Co1056 2.155 . S
O1082 C1084 1.240 . S
O1083 Co1056 2.096 . S
O1083 C1064 1.247 . S
C1084 O1081 1.244 . S
C1084 O1082 1.240 . S
H1085 C1059 0.931 . S
H1086 C1068 0.931 . S
H1087 C1072 0.929 . S
H1088 C1074 0.930 . S
Co1089 N1093 2.148 . S
Co1089 N1099 2.128 . S
Co1089 N1109 2.194 . S
Co1089 O1114 2.351 . S
Co1089 O1115 2.155 . S
Co1089 O1116 2.096 . S
C1090 N1093 1.301 . S
C1090 N1094 1.328 . S
C1090 H1095 0.930 . S
C1091 C1092 1.333 . S
C1091 N1093 1.317 . S
C1091 H1096 0.930 . S
C1092 C1091 1.333 . S
C1092 N1094 1.350 . S
C1092 H1118 0.931 . S
N1093 Co1089 2.148 . S
N1093 C1090 1.301 . S
N1093 C1091 1.317 . S
N1094 C1090 1.328 . S
N1094 C1092 1.350 . S
H1095 C1090 0.930 . S
H1096 C1091 0.930 . S
C1097 O1098 1.224 . S
C1097 O1116 1.247 . S
O1098 C1097 1.224 . S
N1099 Co1089 2.128 . S
N1099 C1100 1.355 . S
N1099 C1102 1.311 . S
C1100 N1099 1.355 . S
C1100 C1101 1.363 . S
C1100 H1112 0.929 . S
C1101 C1100 1.363 . S
C1101 N1103 1.375 . S
C1101 H1119 0.931 . S
C1102 N1099 1.311 . S
C1102 N1103 1.347 . S
C1102 H1113 0.929 . S
N1103 C1101 1.375 . S
N1103 C1102 1.347 . S
C1104 C1107 1.365 . S
C1104 N1109 1.328 . S
C1104 H1110 0.929 . S
C1105 C1106 1.362 . S
C1105 C1108 1.378 . S
C1105 H1120 0.929 . S
C1106 C1105 1.362 . S
C1106 C1107 1.366 . S
C1107 C1104 1.365 . S
C1107 C1106 1.366 . S
C1107 H1121 0.930 . S
C1108 C1105 1.378 . S
C1108 N1109 1.315 . S
C1108 H1111 0.930 . S
N1109 Co1089 2.194 . S
N1109 C1104 1.328 . S
N1109 C1108 1.315 . S
H1110 C1104 0.929 . S
H1111 C1108 0.930 . S
H1112 C1100 0.929 . S
H1113 C1102 0.929 . S
O1114 Co1089 2.351 . S
O1114 C1117 1.244 . S
O1115 Co1089 2.155 . S
O1115 C1117 1.240 . S
O1116 Co1089 2.096 . S
O1116 C1097 1.247 . S
C1117 O1114 1.244 . S
C1117 O1115 1.240 . S
H1118 C1092 0.931 . S
H1119 C1101 0.931 . S
H1120 C1105 0.929 . S
H1121 C1107 0.930 . S
Co1122 N1126 2.148 . S
Co1122 N1132 2.128 . S
Co1122 N1142 2.194 . S
Co1122 O1147 2.351 . S
Co1122 O1148 2.155 . S
Co1122 O1149 2.096 . S
C1123 N1126 1.301 . S
C1123 N1127 1.328 . S
C1123 H1128 0.930 . S
C1124 C1125 1.333 . S
C1124 N1126 1.317 . S
C1124 H1129 0.930 . S
C1125 C1124 1.333 . S
C1125 N1127 1.350 . S
C1125 H1151 0.931 . S
N1126 Co1122 2.148 . S
N1126 C1123 1.301 . S
N1126 C1124 1.317 . S
N1127 C1123 1.328 . S
N1127 C1125 1.350 . S
H1128 C1123 0.930 . S
H1129 C1124 0.930 . S
C1130 O1131 1.224 . S
C1130 O1149 1.247 . S
O1131 C1130 1.224 . S
N1132 Co1122 2.128 . S
N1132 C1133 1.355 . S
N1132 C1135 1.311 . S
C1133 N1132 1.355 . S
C1133 C1134 1.363 . S
C1133 H1145 0.929 . S
C1134 C1133 1.363 . S
C1134 N1136 1.375 . S
C1134 H1152 0.931 . S
C1135 N1132 1.311 . S
C1135 N1136 1.347 . S
C1135 H1146 0.929 . S
N1136 C1134 1.375 . S
N1136 C1135 1.347 . S
C1137 C1140 1.365 . S
C1137 N1142 1.328 . S
C1137 H1143 0.929 . S
C1138 C1139 1.362 . S
C1138 C1141 1.378 . S
C1138 H1153 0.929 . S
C1139 C1138 1.362 . S
C1139 C1140 1.366 . S
C1140 C1137 1.365 . S
C1140 C1139 1.366 . S
C1140 H1154 0.930 . S
C1141 C1138 1.378 . S
C1141 N1142 1.315 . S
C1141 H1144 0.930 . S
N1142 Co1122 2.194 . S
N1142 C1137 1.328 . S
N1142 C1141 1.315 . S
H1143 C1137 0.929 . S
H1144 C1141 0.930 . S
H1145 C1133 0.929 . S
H1146 C1135 0.929 . S
O1147 Co1122 2.351 . S
O1147 C1150 1.244 . S
O1148 Co1122 2.155 . S
O1148 C1150 1.240 . S
O1149 Co1122 2.096 . S
O1149 C1130 1.247 . S
C1150 O1147 1.244 . S
C1150 O1148 1.240 . S
H1151 C1125 0.931 . S
H1152 C1134 0.931 . S
H1153 C1138 0.929 . S
H1154 C1140 0.930 . S
Co1155 N1159 2.148 . S
Co1155 N1165 2.128 . S
Co1155 N1175 2.194 . S
Co1155 O1180 2.351 . S
Co1155 O1181 2.155 . S
Co1155 O1182 2.096 . S
C1156 N1159 1.301 . S
C1156 N1160 1.328 . S
C1156 H1161 0.930 . S
C1157 C1158 1.333 . S
C1157 N1159 1.317 . S
C1157 H1162 0.930 . S
C1158 C1157 1.333 . S
C1158 N1160 1.350 . S
C1158 H1184 0.931 . S
N1159 Co1155 2.148 . S
N1159 C1156 1.301 . S
N1159 C1157 1.317 . S
N1160 C1156 1.328 . S
N1160 C1158 1.350 . S
H1161 C1156 0.930 . S
H1162 C1157 0.930 . S
C1163 O1164 1.224 . S
C1163 O1182 1.247 . S
O1164 C1163 1.224 . S
N1165 Co1155 2.128 . S
N1165 C1166 1.355 . S
N1165 C1168 1.311 . S
C1166 N1165 1.355 . S
C1166 C1167 1.363 . S
C1166 H1178 0.929 . S
C1167 C1166 1.363 . S
C1167 N1169 1.375 . S
C1167 H1185 0.931 . S
C1168 N1165 1.311 . S
C1168 N1169 1.347 . S
C1168 H1179 0.929 . S
N1169 C1167 1.375 . S
N1169 C1168 1.347 . S
C1170 C1173 1.365 . S
C1170 N1175 1.328 . S
C1170 H1176 0.929 . S
C1171 C1172 1.362 . S
C1171 C1174 1.378 . S
C1171 H1186 0.929 . S
C1172 C1171 1.362 . S
C1172 C1173 1.366 . S
C1173 C1170 1.365 . S
C1173 C1172 1.366 . S
C1173 H1187 0.930 . S
C1174 C1171 1.378 . S
C1174 N1175 1.315 . S
C1174 H1177 0.930 . S
N1175 Co1155 2.194 . S
N1175 C1170 1.328 . S
N1175 C1174 1.315 . S
H1176 C1170 0.929 . S
H1177 C1174 0.930 . S
H1178 C1166 0.929 . S
H1179 C1168 0.929 . S
O1180 Co1155 2.351 . S
O1180 C1183 1.244 . S
O1181 Co1155 2.155 . S
O1181 C1183 1.240 . S
O1182 Co1155 2.096 . S
O1182 C1163 1.247 . S
C1183 O1180 1.244 . S
C1183 O1181 1.240 . S
H1184 C1158 0.931 . S
H1185 C1167 0.931 . S
H1186 C1171 0.929 . S
H1187 C1173 0.930 . S
C1188 C1189 1.387 . S
C1188 H1192 0.950 . S
C1188 C1197 1.390 . S
C1189 C1188 1.387 . S
C1189 C1191 1.387 . S
H1190 C1197 0.950 . S
C1191 C1189 1.387 . S
C1191 C1193 1.390 . S
C1191 H1195 0.950 . S
H1192 C1188 0.950 . S
C1193 C1191 1.390 . S
C1193 C1194 1.387 . S
C1193 H1196 0.950 . S
C1194 C1193 1.387 . S
C1194 C1197 1.387 . S
H1195 C1191 0.950 . S
H1196 C1193 0.950 . S
C1197 C1188 1.390 . S
C1197 H1190 0.950 . S
C1197 C1194 1.387 . S
C1198 C1199 1.387 . S
C1198 H1202 0.950 . S
C1198 C1207 1.390 . S
C1199 C1198 1.387 . S
C1199 C1201 1.387 . S
H1200 C1207 0.950 . S
C1201 C1199 1.387 . S
C1201 C1203 1.390 . S
C1201 H1205 0.950 . S
H1202 C1198 0.950 . S
C1203 C1201 1.390 . S
C1203 C1204 1.387 . S
C1203 H1206 0.950 . S
C1204 C1203 1.387 . S
C1204 C1207 1.387 . S
H1205 C1201 0.950 . S
H1206 C1203 0.950 . S
C1207 C1198 1.390 . S
C1207 H1200 0.950 . S
C1207 C1204 1.387 . S
C1208 C1209 1.387 . S
C1208 H1212 0.950 . S
C1208 C1217 1.390 . S
C1209 C1208 1.387 . S
C1209 C1211 1.387 . S
H1210 C1217 0.950 . S
C1211 C1209 1.387 . S
C1211 C1213 1.390 . S
C1211 H1215 0.950 . S
H1212 C1208 0.950 . S
C1213 C1211 1.390 . S
C1213 C1214 1.387 . S
C1213 H1216 0.950 . S
C1214 C1213 1.387 . S
C1214 C1217 1.387 . S
H1215 C1211 0.950 . S
H1216 C1213 0.950 . S
C1217 C1208 1.390 . S
C1217 H1210 0.950 . S
C1217 C1214 1.387 . S
C1218 C1219 1.387 . S
C1218 H1222 0.950 . S
C1218 C1227 1.390 . S
C1219 C1218 1.387 . S
C1219 C1221 1.387 . S
H1220 C1227 0.950 . S
C1221 C1219 1.387 . S
C1221 C1223 1.390 . S
C1221 H1225 0.950 . S
H1222 C1218 0.950 . S
C1223 C1221 1.390 . S
C1223 C1224 1.387 . S
C1223 H1226 0.950 . S
C1224 C1223 1.387 . S
C1224 C1227 1.387 . S
H1225 C1221 0.950 . S
H1226 C1223 0.950 . S
C1227 C1218 1.390 . S
C1227 H1220 0.950 . S
C1227 C1224 1.387 . S
C1228 C1229 1.387 . S
C1228 H1232 0.950 . S
C1228 C1237 1.390 . S
C1229 C1228 1.387 . S
C1229 C1231 1.387 . S
H1230 C1237 0.950 . S
C1231 C1229 1.387 . S
C1231 C1233 1.390 . S
C1231 H1235 0.950 . S
H1232 C1228 0.950 . S
C1233 C1231 1.390 . S
C1233 C1234 1.387 . S
C1233 H1236 0.950 . S
C1234 C1233 1.387 . S
C1234 C1237 1.387 . S
H1235 C1231 0.950 . S
H1236 C1233 0.950 . S
C1237 C1228 1.390 . S
C1237 H1230 0.950 . S
C1237 C1234 1.387 . S
C1238 C1239 1.387 . S
C1238 H1242 0.950 . S
C1238 C1247 1.390 . S
C1239 C1238 1.387 . S
C1239 C1241 1.387 . S
H1240 C1247 0.950 . S
C1241 C1239 1.387 . S
C1241 C1243 1.390 . S
C1241 H1245 0.950 . S
H1242 C1238 0.950 . S
C1243 C1241 1.390 . S
C1243 C1244 1.387 . S
C1243 H1246 0.950 . S
C1244 C1243 1.387 . S
C1244 C1247 1.387 . S
H1245 C1241 0.950 . S
H1246 C1243 0.950 . S
C1247 C1238 1.390 . S
C1247 H1240 0.950 . S
C1247 C1244 1.387 . S
C1248 C1249 1.387 . S
C1248 H1252 0.950 . S
C1248 C1257 1.390 . S
C1249 C1248 1.387 . S
C1249 C1251 1.387 . S
H1250 C1257 0.950 . S
C1251 C1249 1.387 . S
C1251 C1253 1.390 . S
C1251 H1255 0.950 . S
H1252 C1248 0.950 . S
C1253 C1251 1.390 . S
C1253 C1254 1.387 . S
C1253 H1256 0.950 . S
C1254 C1253 1.387 . S
C1254 C1257 1.387 . S
H1255 C1251 0.950 . S
H1256 C1253 0.950 . S
C1257 C1248 1.390 . S
C1257 H1250 0.950 . S
C1257 C1254 1.387 . S
C1258 C1259 1.387 . S
C1258 H1262 0.950 . S
C1258 C1267 1.390 . S
C1259 C1258 1.387 . S
C1259 C1261 1.387 . S
H1260 C1267 0.950 . S
C1261 C1259 1.387 . S
C1261 C1263 1.390 . S
C1261 H1265 0.950 . S
H1262 C1258 0.950 . S
C1263 C1261 1.390 . S
C1263 C1264 1.387 . S
C1263 H1266 0.950 . S
C1264 C1263 1.387 . S
C1264 C1267 1.387 . S
H1265 C1261 0.950 . S
H1266 C1263 0.950 . S
C1267 C1258 1.390 . S
C1267 H1260 0.950 . S
C1267 C1264 1.387 . S
C1268 C1269 1.387 . S
C1268 H1272 0.950 . S
C1268 C1277 1.390 . S
C1269 C1268 1.387 . S
C1269 C1271 1.387 . S
H1270 C1277 0.950 . S
C1271 C1269 1.387 . S
C1271 C1273 1.390 . S
C1271 H1275 0.950 . S
H1272 C1268 0.950 . S
C1273 C1271 1.390 . S
C1273 C1274 1.387 . S
C1273 H1276 0.950 . S
C1274 C1273 1.387 . S
C1274 C1277 1.387 . S
H1275 C1271 0.950 . S
H1276 C1273 0.950 . S
C1277 C1268 1.390 . S
C1277 H1270 0.950 . S
C1277 C1274 1.387 . S
C1278 C1279 1.387 . S
C1278 H1282 0.950 . S
C1278 C1287 1.390 . S
C1279 C1278 1.387 . S
C1279 C1281 1.387 . S
H1280 C1287 0.950 . S
C1281 C1279 1.387 . S
C1281 C1283 1.390 . S
C1281 H1285 0.950 . S
H1282 C1278 0.950 . S
C1283 C1281 1.390 . S
C1283 C1284 1.387 . S
C1283 H1286 0.950 . S
C1284 C1283 1.387 . S
C1284 C1287 1.387 . S
H1285 C1281 0.950 . S
H1286 C1283 0.950 . S
C1287 C1278 1.390 . S
C1287 H1280 0.950 . S
C1287 C1284 1.387 . S
C1288 C1289 1.387 . S
C1288 H1292 0.950 . S
C1288 C1297 1.390 . S
C1289 C1288 1.387 . S
C1289 C1291 1.387 . S
H1290 C1297 0.950 . S
C1291 C1289 1.387 . S
C1291 C1293 1.390 . S
C1291 H1295 0.950 . S
H1292 C1288 0.950 . S
C1293 C1291 1.390 . S
C1293 C1294 1.387 . S
C1293 H1296 0.950 . S
C1294 C1293 1.387 . S
C1294 C1297 1.387 . S
H1295 C1291 0.950 . S
H1296 C1293 0.950 . S
C1297 C1288 1.390 . S
C1297 H1290 0.950 . S
C1297 C1294 1.387 . S
C1298 C1299 1.387 . S
C1298 H1302 0.950 . S
C1298 C1307 1.390 . S
C1299 C1298 1.387 . S
C1299 C1301 1.387 . S
H1300 C1307 0.950 . S
C1301 C1299 1.387 . S
C1301 C1303 1.390 . S
C1301 H1305 0.950 . S
H1302 C1298 0.950 . S
C1303 C1301 1.390 . S
C1303 C1304 1.387 . S
C1303 H1306 0.950 . S
C1304 C1303 1.387 . S
C1304 C1307 1.387 . S
H1305 C1301 0.950 . S
H1306 C1303 0.950 . S
C1307 C1298 1.390 . S
C1307 H1300 0.950 . S
C1307 C1304 1.387 . S
C1308 C1309 1.387 . S
C1308 H1312 0.950 . S
C1308 C1317 1.390 . S
C1309 C1308 1.387 . S
C1309 C1311 1.387 . S
H1310 C1317 0.950 . S
C1311 C1309 1.387 . S
C1311 C1313 1.390 . S
C1311 H1315 0.950 . S
H1312 C1308 0.950 . S
C1313 C1311 1.390 . S
C1313 C1314 1.387 . S
C1313 H1316 0.950 . S
C1314 C1313 1.387 . S
C1314 C1317 1.387 . S
H1315 C1311 0.950 . S
H1316 C1313 0.950 . S
C1317 C1308 1.390 . S
C1317 H1310 0.950 . S
C1317 C1314 1.387 . S
C1318 C1319 1.387 . S
C1318 H1322 0.950 . S
C1318 C1327 1.390 1_545 S
C1319 C1318 1.387 . S
C1319 C1321 1.387 . S
H1320 C1327 0.950 . S
C1321 C1319 1.387 . S
C1321 C1323 1.390 1_545 S
C1321 H1325 0.950 . S
H1322 C1318 0.950 . S
C1323 C1321 1.390 1_565 S
C1323 C1324 1.387 . S
C1323 H1326 0.950 . S
C1324 C1323 1.387 . S
C1324 C1327 1.387 . S
H1325 C1321 0.950 . S
H1326 C1323 0.950 . S
C1327 C1318 1.390 1_565 S
C1327 H1320 0.950 . S
C1327 C1324 1.387 . S
C1328 C1329 1.387 1_655 S
C1328 H1332 0.950 . S
C1328 C1337 1.390 . S
C1329 C1328 1.387 1_455 S
C1329 C1331 1.387 . S
H1330 C1337 0.950 . S
C1331 C1329 1.387 . S
C1331 C1333 1.390 . S
C1331 H1335 0.950 . S
H1332 C1328 0.950 . S
C1333 C1331 1.390 . S
C1333 C1334 1.387 1_455 S
C1333 H1336 0.950 . S
C1334 C1333 1.387 1_655 S
C1334 C1337 1.387 . S
H1335 C1331 0.950 . S
H1336 C1333 0.950 . S
C1337 C1328 1.390 . S
C1337 H1330 0.950 . S
C1337 C1334 1.387 . S
C1338 C1339 1.387 . S
C1338 H1342 0.950 . S
C1338 C1347 1.390 . S
C1339 C1338 1.387 . S
C1339 C1341 1.387 . S
H1340 C1347 0.950 . S
C1341 C1339 1.387 . S
C1341 C1343 1.390 . S
C1341 H1345 0.950 . S
H1342 C1338 0.950 . S
C1343 C1341 1.390 . S
C1343 C1344 1.387 . S
C1343 H1346 0.950 . S
C1344 C1343 1.387 . S
C1344 C1347 1.387 . S
H1345 C1341 0.950 . S
H1346 C1343 0.950 . S
C1347 C1338 1.390 . S
C1347 H1340 0.950 . S
C1347 C1344 1.387 . S
C1348 C1349 1.387 . S
C1348 H1352 0.950 . S
C1348 C1357 1.390 1_565 S
C1349 C1348 1.387 . S
C1349 C1351 1.387 . S
H1350 C1357 0.950 . S
C1351 C1349 1.387 . S
C1351 C1353 1.390 1_565 S
C1351 H1355 0.950 . S
H1352 C1348 0.950 . S
C1353 C1351 1.390 1_545 S
C1353 C1354 1.387 . S
C1353 H1356 0.950 . S
C1354 C1353 1.387 . S
C1354 C1357 1.387 . S
H1355 C1351 0.950 . S
H1356 C1353 0.950 . S
C1357 C1348 1.390 1_545 S
C1357 H1350 0.950 . S
C1357 C1354 1.387 . S
C1358 C1359 1.387 . S
C1358 H1362 0.950 . S
C1358 C1367 1.390 1_655 S
C1359 C1358 1.387 . S
C1359 C1361 1.387 . S
H1360 C1367 0.950 . S
C1361 C1359 1.387 . S
C1361 C1363 1.390 1_655 S
C1361 H1365 0.950 . S
H1362 C1358 0.950 . S
C1363 C1361 1.390 1_455 S
C1363 C1364 1.387 . S
C1363 H1366 0.950 . S
C1364 C1363 1.387 . S
C1364 C1367 1.387 . S
H1365 C1361 0.950 . S
H1366 C1363 0.950 . S
C1367 C1358 1.390 1_455 S
C1367 H1360 0.950 . S
C1367 C1364 1.387 . S
C1368 C1369 1.387 1_556 S
C1368 H1372 0.950 . S
C1368 C1377 1.390 . S
C1369 C1368 1.387 1_554 S
C1369 C1371 1.387 . S
H1370 C1377 0.950 . S
C1371 C1369 1.387 . S
C1371 C1373 1.390 . S
C1371 H1375 0.950 . S
H1372 C1368 0.950 . S
C1373 C1371 1.390 . S
C1373 C1374 1.387 . S
C1373 H1376 0.950 . S
C1374 C1373 1.387 . S
C1374 C1377 1.387 1_554 S
H1375 C1371 0.950 . S
H1376 C1373 0.950 . S
C1377 C1368 1.390 . S
C1377 H1370 0.950 . S
C1377 C1374 1.387 1_556 S
C1378 C1379 1.387 1_556 S
C1378 H1382 0.950 . S
C1378 C1387 1.390 . S
C1379 C1378 1.387 1_554 S
C1379 C1381 1.387 . S
H1380 C1387 0.950 . S
C1381 C1379 1.387 . S
C1381 C1383 1.390 . S
C1381 H1385 0.950 . S
H1382 C1378 0.950 . S
C1383 C1381 1.390 . S
C1383 C1384 1.387 . S
C1383 H1386 0.950 . S
C1384 C1383 1.387 . S
C1384 C1387 1.387 1_554 S
H1385 C1381 0.950 . S
H1386 C1383 0.950 . S
C1387 C1378 1.390 . S
C1387 H1380 0.950 . S
C1387 C1384 1.387 1_556 S
C1388 C1389 1.387 . S
C1388 H1392 0.950 . S
C1388 C1397 1.390 . S
C1389 C1388 1.387 . S
C1389 C1391 1.387 1_554 S
H1390 C1397 0.950 . S
C1391 C1389 1.387 1_556 S
C1391 C1393 1.390 . S
C1391 H1395 0.950 . S
H1392 C1388 0.950 . S
C1393 C1391 1.390 . S
C1393 C1394 1.387 1_556 S
C1393 H1396 0.950 . S
C1394 C1393 1.387 1_554 S
C1394 C1397 1.387 . S
H1395 C1391 0.950 . S
H1396 C1393 0.950 . S
C1397 C1388 1.390 . S
C1397 H1390 0.950 . S
C1397 C1394 1.387 . S
C1398 C1399 1.387 1_554 S
C1398 H1402 0.950 . S
C1398 C1407 1.390 . S
C1399 C1398 1.387 1_556 S
C1399 C1401 1.387 . S
H1400 C1407 0.950 . S
C1401 C1399 1.387 . S
C1401 C1403 1.390 . S
C1401 H1405 0.950 . S
H1402 C1398 0.950 . S
C1403 C1401 1.390 . S
C1403 C1404 1.387 . S
C1403 H1406 0.950 . S
C1404 C1403 1.387 . S
C1404 C1407 1.387 1_556 S
H1405 C1401 0.950 . S
H1406 C1403 0.950 . S
C1407 C1398 1.390 . S
C1407 H1400 0.950 . S
C1407 C1404 1.387 1_554 S
C1408 C1409 1.387 1_554 S
C1408 H1412 0.950 . S
C1408 C1417 1.390 . S
C1409 C1408 1.387 1_556 S
C1409 C1411 1.387 . S
H1410 C1417 0.950 . S
C1411 C1409 1.387 . S
C1411 C1413 1.390 . S
C1411 H1415 0.950 . S
H1412 C1408 0.950 . S
C1413 C1411 1.390 . S
C1413 C1414 1.387 . S
C1413 H1416 0.950 . S
C1414 C1413 1.387 . S
C1414 C1417 1.387 1_556 S
H1415 C1411 0.950 . S
H1416 C1413 0.950 . S
C1417 C1408 1.390 . S
C1417 H1410 0.950 . S
C1417 C1414 1.387 1_554 S
C1418 C1419 1.387 . S
C1418 H1422 0.950 . S
C1418 C1427 1.390 . S
C1419 C1418 1.387 . S
C1419 C1421 1.387 1_556 S
H1420 C1427 0.950 . S
C1421 C1419 1.387 1_554 S
C1421 C1423 1.390 . S
C1421 H1425 0.950 . S
H1422 C1418 0.950 . S
C1423 C1421 1.390 . S
C1423 C1424 1.387 1_554 S
C1423 H1426 0.950 . S
C1424 C1423 1.387 1_556 S
C1424 C1427 1.387 . S
H1425 C1421 0.950 . S
H1426 C1423 0.950 . S
C1427 C1418 1.390 . S
C1427 H1420 0.950 . S
C1427 C1424 1.387 . S
C1428 C1429 1.387 . S
C1428 H1432 0.950 . S
C1428 C1437 1.390 . S
C1429 C1428 1.387 . S
C1429 C1431 1.387 . S
H1430 C1437 0.950 . S
C1431 C1429 1.387 . S
C1431 C1433 1.390 . S
C1431 H1435 0.950 . S
H1432 C1428 0.950 . S
C1433 C1431 1.390 . S
C1433 C1434 1.387 . S
C1433 H1436 0.950 . S
C1434 C1433 1.387 . S
C1434 C1437 1.387 . S
H1435 C1431 0.950 . S
H1436 C1433 0.950 . S
C1437 C1428 1.390 . S
C1437 H1430 0.950 . S
C1437 C1434 1.387 . S
C1438 C1439 1.387 . S
C1438 H1442 0.950 . S
C1438 C1447 1.390 . S
C1439 C1438 1.387 . S
C1439 C1441 1.387 . S
H1440 C1447 0.950 . S
C1441 C1439 1.387 . S
C1441 C1443 1.390 . S
C1441 H1445 0.950 . S
H1442 C1438 0.950 . S
C1443 C1441 1.390 . S
C1443 C1444 1.387 . S
C1443 H1446 0.950 . S
C1444 C1443 1.387 . S
C1444 C1447 1.387 . S
H1445 C1441 0.950 . S
H1446 C1443 0.950 . S
C1447 C1438 1.390 . S
C1447 H1440 0.950 . S
C1447 C1444 1.387 . S
C1448 C1449 1.387 . S
C1448 H1452 0.950 . S
C1448 C1457 1.390 . S
C1449 C1448 1.387 . S
C1449 C1451 1.387 . S
H1450 C1457 0.950 . S
C1451 C1449 1.387 . S
C1451 C1453 1.390 . S
C1451 H1455 0.950 . S
H1452 C1448 0.950 . S
C1453 C1451 1.390 . S
C1453 C1454 1.387 . S
C1453 H1456 0.950 . S
C1454 C1453 1.387 . S
C1454 C1457 1.387 . S
H1455 C1451 0.950 . S
H1456 C1453 0.950 . S
C1457 C1448 1.390 . S
C1457 H1450 0.950 . S
C1457 C1454 1.387 . S
C1458 C1459 1.387 . S
C1458 H1462 0.950 . S
C1458 C1467 1.390 . S
C1459 C1458 1.387 . S
C1459 C1461 1.387 . S
H1460 C1467 0.950 . S
C1461 C1459 1.387 . S
C1461 C1463 1.390 . S
C1461 H1465 0.950 . S
H1462 C1458 0.950 . S
C1463 C1461 1.390 . S
C1463 C1464 1.387 . S
C1463 H1466 0.950 . S
C1464 C1463 1.387 . S
C1464 C1467 1.387 . S
H1465 C1461 0.950 . S
H1466 C1463 0.950 . S
C1467 C1458 1.390 . S
C1467 H1460 0.950 . S
C1467 C1464 1.387 . S
C1468 C1469 1.387 . S
C1468 H1472 0.950 . S
C1468 C1477 1.390 . S
C1469 C1468 1.387 . S
C1469 C1471 1.387 . S
H1470 C1477 0.950 . S
C1471 C1469 1.387 . S
C1471 C1473 1.390 . S
C1471 H1475 0.950 . S
H1472 C1468 0.950 . S
C1473 C1471 1.390 . S
C1473 C1474 1.387 . S
C1473 H1476 0.950 . S
C1474 C1473 1.387 . S
C1474 C1477 1.387 . S
H1475 C1471 0.950 . S
H1476 C1473 0.950 . S
C1477 C1468 1.390 . S
C1477 H1470 0.950 . S
C1477 C1474 1.387 . S
C1478 C1479 1.387 . S
C1478 H1482 0.950 . S
C1478 C1487 1.390 . S
C1479 C1478 1.387 . S
C1479 C1481 1.387 . S
H1480 C1487 0.950 . S
C1481 C1479 1.387 . S
C1481 C1483 1.390 . S
C1481 H1485 0.950 . S
H1482 C1478 0.950 . S
C1483 C1481 1.390 . S
C1483 C1484 1.387 . S
C1483 H1486 0.950 . S
C1484 C1483 1.387 . S
C1484 C1487 1.387 . S
H1485 C1481 0.950 . S
H1486 C1483 0.950 . S
C1487 C1478 1.390 . S
C1487 H1480 0.950 . S
C1487 C1484 1.387 . S
C1488 C1489 1.387 . S
C1488 H1492 0.950 . S
C1488 C1497 1.390 . S
C1489 C1488 1.387 . S
C1489 C1491 1.387 . S
H1490 C1497 0.950 . S
C1491 C1489 1.387 . S
C1491 C1493 1.390 . S
C1491 H1495 0.950 . S
H1492 C1488 0.950 . S
C1493 C1491 1.390 . S
C1493 C1494 1.387 . S
C1493 H1496 0.950 . S
C1494 C1493 1.387 . S
C1494 C1497 1.387 . S
H1495 C1491 0.950 . S
H1496 C1493 0.950 . S
C1497 C1488 1.390 . S
C1497 H1490 0.950 . S
C1497 C1494 1.387 . S
C1498 C1499 1.387 . S
C1498 H1502 0.950 . S
C1498 C1507 1.390 . S
C1499 C1498 1.387 . S
C1499 C1501 1.387 . S
H1500 C1507 0.950 . S
C1501 C1499 1.387 . S
C1501 C1503 1.390 . S
C1501 H1505 0.950 . S
H1502 C1498 0.950 . S
C1503 C1501 1.390 . S
C1503 C1504 1.387 . S
C1503 H1506 0.950 . S
C1504 C1503 1.387 . S
C1504 C1507 1.387 . S
H1505 C1501 0.950 . S
H1506 C1503 0.950 . S
C1507 C1498 1.390 . S
C1507 H1500 0.950 . S
C1507 C1504 1.387 . S
C1508 C1509 1.387 . S
C1508 H1512 0.950 . S
C1508 C1517 1.390 . S
C1509 C1508 1.387 . S
C1509 C1511 1.387 . S
H1510 C1517 0.950 . S
C1511 C1509 1.387 . S
C1511 C1513 1.390 . S
C1511 H1515 0.950 . S
H1512 C1508 0.950 . S
C1513 C1511 1.390 . S
C1513 C1514 1.387 . S
C1513 H1516 0.950 . S
C1514 C1513 1.387 . S
C1514 C1517 1.387 . S
H1515 C1511 0.950 . S
H1516 C1513 0.950 . S
C1517 C1508 1.390 . S
C1517 H1510 0.950 . S
C1517 C1514 1.387 . S
C1518 C1519 1.387 . S
C1518 H1522 0.950 . S
C1518 C1527 1.390 . S
C1519 C1518 1.387 . S
C1519 C1521 1.387 . S
H1520 C1527 0.950 . S
C1521 C1519 1.387 . S
C1521 C1523 1.390 . S
C1521 H1525 0.950 . S
H1522 C1518 0.950 . S
C1523 C1521 1.390 . S
C1523 C1524 1.387 . S
C1523 H1526 0.950 . S
C1524 C1523 1.387 . S
C1524 C1527 1.387 . S
H1525 C1521 0.950 . S
H1526 C1523 0.950 . S
C1527 C1518 1.390 . S
C1527 H1520 0.950 . S
C1527 C1524 1.387 . S
C1528 C1529 1.387 . S
C1528 H1532 0.950 . S
C1528 C1537 1.390 . S
C1529 C1528 1.387 . S
C1529 C1531 1.387 . S
H1530 C1537 0.950 . S
C1531 C1529 1.387 . S
C1531 C1533 1.390 . S
C1531 H1535 0.950 . S
H1532 C1528 0.950 . S
C1533 C1531 1.390 . S
C1533 C1534 1.387 . S
C1533 H1536 0.950 . S
C1534 C1533 1.387 . S
C1534 C1537 1.387 . S
H1535 C1531 0.950 . S
H1536 C1533 0.950 . S
C1537 C1528 1.390 . S
C1537 H1530 0.950 . S
C1537 C1534 1.387 . S
C1538 C1539 1.387 . S
C1538 H1542 0.950 . S
C1538 C1547 1.390 . S
C1539 C1538 1.387 . S
C1539 C1541 1.387 . S
H1540 C1547 0.950 . S
C1541 C1539 1.387 . S
C1541 C1543 1.390 . S
C1541 H1545 0.950 . S
H1542 C1538 0.950 . S
C1543 C1541 1.390 . S
C1543 C1544 1.387 . S
C1543 H1546 0.950 . S
C1544 C1543 1.387 . S
C1544 C1547 1.387 . S
H1545 C1541 0.950 . S
H1546 C1543 0.950 . S
C1547 C1538 1.390 . S
C1547 H1540 0.950 . S
C1547 C1544 1.387 . S
C1548 C1549 1.387 . S
C1548 H1552 0.950 . S
C1548 C1557 1.390 . S
C1549 C1548 1.387 . S
C1549 C1551 1.387 . S
H1550 C1557 0.950 . S
C1551 C1549 1.387 . S
C1551 C1553 1.390 . S
C1551 H1555 0.950 . S
H1552 C1548 0.950 . S
C1553 C1551 1.390 . S
C1553 C1554 1.387 . S
C1553 H1556 0.950 . S
C1554 C1553 1.387 . S
C1554 C1557 1.387 . S
H1555 C1551 0.950 . S
H1556 C1553 0.950 . S
C1557 C1548 1.390 . S
C1557 H1550 0.950 . S
C1557 C1554 1.387 . S
C1558 C1559 1.387 . S
C1558 H1562 0.950 . S
C1558 C1567 1.390 . S
C1559 C1558 1.387 . S
C1559 C1561 1.387 . S
H1560 C1567 0.950 . S
C1561 C1559 1.387 . S
C1561 C1563 1.390 . S
C1561 H1565 0.950 1_556 S
H1562 C1558 0.950 . S
C1563 C1561 1.390 . S
C1563 C1564 1.387 . S
C1563 H1566 0.950 . S
C1564 C1563 1.387 . S
C1564 C1567 1.387 . S
H1565 C1561 0.950 1_554 S
H1566 C1563 0.950 . S
C1567 C1558 1.390 . S
C1567 H1560 0.950 . S
C1567 C1564 1.387 . S
C1568 C1569 1.387 . S
C1568 H1572 0.950 . S
C1568 C1577 1.390 . S
C1569 C1568 1.387 . S
C1569 C1571 1.387 . S
H1570 C1577 0.950 . S
C1571 C1569 1.387 . S
C1571 C1573 1.390 . S
C1571 H1575 0.950 . S
H1572 C1568 0.950 . S
C1573 C1571 1.390 . S
C1573 C1574 1.387 . S
C1573 H1576 0.950 . S
C1574 C1573 1.387 . S
C1574 C1577 1.387 . S
H1575 C1571 0.950 . S
H1576 C1573 0.950 . S
C1577 C1568 1.390 . S
C1577 H1570 0.950 . S
C1577 C1574 1.387 . S
C1578 C1579 1.387 . S
C1578 H1582 0.950 . S
C1578 C1587 1.390 . S
C1579 C1578 1.387 . S
C1579 C1581 1.387 . S
H1580 C1587 0.950 . S
C1581 C1579 1.387 . S
C1581 C1583 1.390 . S
C1581 H1585 0.950 . S
H1582 C1578 0.950 . S
C1583 C1581 1.390 . S
C1583 C1584 1.387 . S
C1583 H1586 0.950 . S
C1584 C1583 1.387 . S
C1584 C1587 1.387 . S
H1585 C1581 0.950 . S
H1586 C1583 0.950 . S
C1587 C1578 1.390 . S
C1587 H1580 0.950 . S
C1587 C1584 1.387 . S
C1588 C1589 1.387 . S
C1588 H1592 0.950 1_554 S
C1588 C1597 1.390 . S
C1589 C1588 1.387 . S
C1589 C1591 1.387 . S
H1590 C1597 0.950 . S
C1591 C1589 1.387 . S
C1591 C1593 1.390 . S
C1591 H1595 0.950 . S
H1592 C1588 0.950 1_556 S
C1593 C1591 1.390 . S
C1593 C1594 1.387 . S
C1593 H1596 0.950 . S
C1594 C1593 1.387 . S
C1594 C1597 1.387 . S
H1595 C1591 0.950 . S
H1596 C1593 0.950 . S
C1597 C1588 1.390 . S
C1597 H1590 0.950 . S
C1597 C1594 1.387 . S
C1598 C1599 1.387 . S
C1598 H1602 0.950 . S
C1598 C1607 1.390 . S
C1599 C1598 1.387 . S
C1599 C1601 1.387 . S
H1600 C1607 0.950 . S
C1601 C1599 1.387 . S
C1601 C1603 1.390 . S
C1601 H1605 0.950 . S
H1602 C1598 0.950 . S
C1603 C1601 1.390 . S
C1603 C1604 1.387 . S
C1603 H1606 0.950 . S
C1604 C1603 1.387 . S
C1604 C1607 1.387 . S
H1605 C1601 0.950 . S
H1606 C1603 0.950 . S
C1607 C1598 1.390 . S
C1607 H1600 0.950 . S
C1607 C1604 1.387 . S
C1608 C1609 1.387 . S
C1608 H1612 0.950 . S
C1608 C1617 1.390 . S
C1609 C1608 1.387 . S
C1609 C1611 1.387 . S
H1610 C1617 0.950 . S
C1611 C1609 1.387 . S
C1611 C1613 1.390 . S
C1611 H1615 0.950 . S
H1612 C1608 0.950 . S
C1613 C1611 1.390 . S
C1613 C1614 1.387 . S
C1613 H1616 0.950 . S
C1614 C1613 1.387 . S
C1614 C1617 1.387 . S
H1615 C1611 0.950 . S
H1616 C1613 0.950 . S
C1617 C1608 1.390 . S
C1617 H1610 0.950 . S
C1617 C1614 1.387 . S
C1618 C1619 1.387 . S
C1618 H1622 0.950 . S
C1618 C1627 1.390 . S
C1619 C1618 1.387 . S
C1619 C1621 1.387 . S
H1620 C1627 0.950 . S
C1621 C1619 1.387 . S
C1621 C1623 1.390 . S
C1621 H1625 0.950 . S
H1622 C1618 0.950 . S
C1623 C1621 1.390 . S
C1623 C1624 1.387 . S
C1623 H1626 0.950 . S
C1624 C1623 1.387 . S
C1624 C1627 1.387 . S
H1625 C1621 0.950 . S
H1626 C1623 0.950 . S
C1627 C1618 1.390 . S
C1627 H1620 0.950 . S
C1627 C1624 1.387 . S
C1628 C1629 1.387 . S
C1628 H1632 0.950 . S
C1628 C1637 1.390 . S
C1629 C1628 1.387 . S
C1629 C1631 1.387 . S
H1630 C1637 0.950 . S
C1631 C1629 1.387 . S
C1631 C1633 1.390 . S
C1631 H1635 0.950 . S
H1632 C1628 0.950 . S
C1633 C1631 1.390 . S
C1633 C1634 1.387 . S
C1633 H1636 0.950 . S
C1634 C1633 1.387 . S
C1634 C1637 1.387 . S
H1635 C1631 0.950 . S
H1636 C1633 0.950 . S
C1637 C1628 1.390 . S
C1637 H1630 0.950 . S
C1637 C1634 1.387 . S
C1638 C1639 1.387 . S
C1638 H1642 0.950 . S
C1638 C1647 1.390 . S
C1639 C1638 1.387 . S
C1639 C1641 1.387 . S
H1640 C1647 0.950 . S
C1641 C1639 1.387 . S
C1641 C1643 1.390 . S
C1641 H1645 0.950 . S
H1642 C1638 0.950 . S
C1643 C1641 1.390 . S
C1643 C1644 1.387 . S
C1643 H1646 0.950 . S
C1644 C1643 1.387 . S
C1644 C1647 1.387 . S
H1645 C1641 0.950 . S
H1646 C1643 0.950 . S
C1647 C1638 1.390 . S
C1647 H1640 0.950 . S
C1647 C1644 1.387 . S
C1648 C1649 1.387 . S
C1648 H1652 0.950 . S
C1648 C1657 1.390 . S
C1649 C1648 1.387 . S
C1649 C1651 1.387 . S
H1650 C1657 0.950 . S
C1651 C1649 1.387 . S
C1651 C1653 1.390 . S
C1651 H1655 0.950 . S
H1652 C1648 0.950 . S
C1653 C1651 1.390 . S
C1653 C1654 1.387 . S
C1653 H1656 0.950 . S
C1654 C1653 1.387 . S
C1654 C1657 1.387 . S
H1655 C1651 0.950 . S
H1656 C1653 0.950 . S
C1657 C1648 1.390 . S
C1657 H1650 0.950 . S
C1657 C1654 1.387 . S
C1658 C1659 1.387 . S
C1658 H1662 0.950 . S
C1658 C1667 1.390 . S
C1659 C1658 1.387 . S
C1659 C1661 1.387 . S
H1660 C1667 0.950 . S
C1661 C1659 1.387 . S
C1661 C1663 1.390 . S
C1661 H1665 0.950 . S
H1662 C1658 0.950 . S
C1663 C1661 1.390 . S
C1663 C1664 1.387 . S
C1663 H1666 0.950 . S
C1664 C1663 1.387 . S
C1664 C1667 1.387 . S
H1665 C1661 0.950 . S
H1666 C1663 0.950 . S
C1667 C1658 1.390 . S
C1667 H1660 0.950 . S
C1667 C1664 1.387 . S
C1668 C1669 1.387 . S
C1668 H1672 0.950 . S
C1668 C1677 1.390 1_455 S
C1669 C1668 1.387 . S
C1669 C1671 1.387 . S
H1670 C1677 0.950 . S
C1671 C1669 1.387 . S
C1671 C1673 1.390 1_455 S
C1671 H1675 0.950 . S
H1672 C1668 0.950 . S
C1673 C1671 1.390 1_655 S
C1673 C1674 1.387 . S
C1673 H1676 0.950 . S
C1674 C1673 1.387 . S
C1674 C1677 1.387 . S
H1675 C1671 0.950 . S
H1676 C1673 0.950 . S
C1677 C1668 1.390 1_655 S
C1677 H1670 0.950 . S
C1677 C1674 1.387 . S
C1678 C1679 1.387 . S
C1678 H1682 0.950 . S
C1678 C1687 1.390 . S
C1679 C1678 1.387 . S
C1679 C1681 1.387 . S
H1680 C1687 0.950 . S
C1681 C1679 1.387 . S
C1681 C1683 1.390 . S
C1681 H1685 0.950 . S
H1682 C1678 0.950 . S
C1683 C1681 1.390 . S
C1683 C1684 1.387 . S
C1683 H1686 0.950 . S
C1684 C1683 1.387 . S
C1684 C1687 1.387 . S
H1685 C1681 0.950 . S
H1686 C1683 0.950 . S
C1687 C1678 1.390 . S
C1687 H1680 0.950 . S
C1687 C1684 1.387 . S
C1688 C1689 1.387 . S
C1688 H1692 0.950 . S
C1688 C1697 1.390 1_565 S
C1689 C1688 1.387 . S
C1689 C1691 1.387 . S
H1690 C1697 0.950 . S
C1691 C1689 1.387 . S
C1691 C1693 1.390 1_565 S
C1691 H1695 0.950 . S
H1692 C1688 0.950 . S
C1693 C1691 1.390 1_545 S
C1693 C1694 1.387 . S
C1693 H1696 0.950 . S
C1694 C1693 1.387 . S
C1694 C1697 1.387 . S
H1695 C1691 0.950 . S
H1696 C1693 0.950 . S
C1697 C1688 1.390 1_545 S
C1697 H1690 0.950 . S
C1697 C1694 1.387 . S
C1698 C1699 1.387 . S
C1698 H1702 0.950 . S
C1698 C1707 1.390 1_565 S
C1699 C1698 1.387 . S
C1699 C1701 1.387 . S
H1700 C1707 0.950 . S
C1701 C1699 1.387 . S
C1701 C1703 1.390 1_565 S
C1701 H1705 0.950 . S
H1702 C1698 0.950 . S
C1703 C1701 1.390 1_545 S
C1703 C1704 1.387 . S
C1703 H1706 0.950 . S
C1704 C1703 1.387 . S
C1704 C1707 1.387 . S
H1705 C1701 0.950 . S
H1706 C1703 0.950 . S
C1707 C1698 1.390 1_545 S
C1707 H1700 0.950 . S
C1707 C1704 1.387 . S
C1708 C1709 1.387 . S
C1708 H1712 0.950 . S
C1708 C1717 1.390 1_455 S
C1709 C1708 1.387 . S
C1709 C1711 1.387 . S
H1710 C1717 0.950 . S
C1711 C1709 1.387 . S
C1711 C1713 1.390 1_455 S
C1711 H1715 0.950 . S
H1712 C1708 0.950 . S
C1713 C1711 1.390 1_655 S
C1713 C1714 1.387 . S
C1713 H1716 0.950 . S
C1714 C1713 1.387 . S
C1714 C1717 1.387 . S
H1715 C1711 0.950 . S
H1716 C1713 0.950 . S
C1717 C1708 1.390 1_655 S
C1717 H1710 0.950 . S
C1717 C1714 1.387 . S
C1718 C1719 1.387 . S
C1718 H1722 0.950 . S
C1718 C1727 1.390 . S
C1719 C1718 1.387 . S
C1719 C1721 1.387 . S
H1720 C1727 0.950 . S
C1721 C1719 1.387 . S
C1721 C1723 1.390 . S
C1721 H1725 0.950 . S
H1722 C1718 0.950 . S
C1723 C1721 1.390 . S
C1723 C1724 1.387 . S
C1723 H1726 0.950 . S
C1724 C1723 1.387 . S
C1724 C1727 1.387 . S
H1725 C1721 0.950 . S
H1726 C1723 0.950 . S
C1727 C1718 1.390 . S
C1727 H1720 0.950 . S
C1727 C1724 1.387 . S
C1728 C1729 1.387 . S
C1728 H1732 0.950 . S
C1728 C1737 1.390 . S
C1729 C1728 1.387 . S
C1729 C1731 1.387 . S
H1730 C1737 0.950 . S
C1731 C1729 1.387 . S
C1731 C1733 1.390 . S
C1731 H1735 0.950 . S
H1732 C1728 0.950 . S
C1733 C1731 1.390 . S
C1733 C1734 1.387 . S
C1733 H1736 0.950 . S
C1734 C1733 1.387 . S
C1734 C1737 1.387 . S
H1735 C1731 0.950 . S
H1736 C1733 0.950 . S
C1737 C1728 1.390 . S
C1737 H1730 0.950 . S
C1737 C1734 1.387 . S
C1738 C1739 1.387 . S
C1738 H1742 0.950 . S
C1738 C1747 1.390 . S
C1739 C1738 1.387 . S
C1739 C1741 1.387 . S
H1740 C1747 0.950 . S
C1741 C1739 1.387 . S
C1741 C1743 1.390 . S
C1741 H1745 0.950 . S
H1742 C1738 0.950 . S
C1743 C1741 1.390 . S
C1743 C1744 1.387 . S
C1743 H1746 0.950 . S
C1744 C1743 1.387 . S
C1744 C1747 1.387 . S
H1745 C1741 0.950 . S
H1746 C1743 0.950 . S
C1747 C1738 1.390 . S
C1747 H1740 0.950 . S
C1747 C1744 1.387 . S
C1748 C1749 1.387 . S
C1748 H1752 0.950 . S
C1748 C1757 1.390 . S
C1749 C1748 1.387 . S
C1749 C1751 1.387 . S
H1750 C1757 0.950 . S
C1751 C1749 1.387 . S
C1751 C1753 1.390 . S
C1751 H1755 0.950 . S
H1752 C1748 0.950 . S
C1753 C1751 1.390 . S
C1753 C1754 1.387 . S
C1753 H1756 0.950 . S
C1754 C1753 1.387 . S
C1754 C1757 1.387 . S
H1755 C1751 0.950 . S
H1756 C1753 0.950 . S
C1757 C1748 1.390 . S
C1757 H1750 0.950 . S
C1757 C1754 1.387 . S
C1758 C1759 1.387 . S
C1758 H1762 0.950 . S
C1758 C1767 1.390 . S
C1759 C1758 1.387 . S
C1759 C1761 1.387 . S
H1760 C1767 0.950 . S
C1761 C1759 1.387 . S
C1761 C1763 1.390 . S
C1761 H1765 0.950 . S
H1762 C1758 0.950 . S
C1763 C1761 1.390 . S
C1763 C1764 1.387 . S
C1763 H1766 0.950 . S
C1764 C1763 1.387 . S
C1764 C1767 1.387 . S
H1765 C1761 0.950 . S
H1766 C1763 0.950 . S
C1767 C1758 1.390 . S
C1767 H1760 0.950 . S
C1767 C1764 1.387 . S
C1768 C1769 1.387 . S
C1768 H1772 0.950 . S
C1768 C1777 1.390 . S
C1769 C1768 1.387 . S
C1769 C1771 1.387 . S
H1770 C1777 0.950 . S
C1771 C1769 1.387 . S
C1771 C1773 1.390 . S
C1771 H1775 0.950 . S
H1772 C1768 0.950 . S
C1773 C1771 1.390 . S
C1773 C1774 1.387 . S
C1773 H1776 0.950 . S
C1774 C1773 1.387 . S
C1774 C1777 1.387 . S
H1775 C1771 0.950 . S
H1776 C1773 0.950 . S
C1777 C1768 1.390 . S
C1777 H1770 0.950 . S
C1777 C1774 1.387 . S
C1778 C1779 1.387 . S
C1778 H1782 0.950 . S
C1778 C1787 1.390 . S
C1779 C1778 1.387 . S
C1779 C1781 1.387 . S
H1780 C1787 0.950 . S
C1781 C1779 1.387 . S
C1781 C1783 1.390 . S
C1781 H1785 0.950 . S
H1782 C1778 0.950 . S
C1783 C1781 1.390 . S
C1783 C1784 1.387 . S
C1783 H1786 0.950 . S
C1784 C1783 1.387 . S
C1784 C1787 1.387 . S
H1785 C1781 0.950 . S
H1786 C1783 0.950 . S
C1787 C1778 1.390 . S
C1787 H1780 0.950 . S
C1787 C1784 1.387 . S
C1788 C1789 1.387 . S
C1788 H1792 0.950 . S
C1788 C1797 1.390 . S
C1789 C1788 1.387 . S
C1789 C1791 1.387 . S
H1790 C1797 0.950 . S
C1791 C1789 1.387 . S
C1791 C1793 1.390 . S
C1791 H1795 0.950 . S
H1792 C1788 0.950 . S
C1793 C1791 1.390 . S
C1793 C1794 1.387 . S
C1793 H1796 0.950 . S
C1794 C1793 1.387 . S
C1794 C1797 1.387 . S
H1795 C1791 0.950 . S
H1796 C1793 0.950 . S
C1797 C1788 1.390 . S
C1797 H1790 0.950 . S
C1797 C1794 1.387 . S
C1798 C1799 1.387 . S
C1798 H1802 0.950 . S
C1798 C1807 1.390 . S
C1799 C1798 1.387 . S
C1799 C1801 1.387 . S
H1800 C1807 0.950 . S
C1801 C1799 1.387 . S
C1801 C1803 1.390 . S
C1801 H1805 0.950 . S
H1802 C1798 0.950 . S
C1803 C1801 1.390 . S
C1803 C1804 1.387 . S
C1803 H1806 0.950 . S
C1804 C1803 1.387 . S
C1804 C1807 1.387 . S
H1805 C1801 0.950 . S
H1806 C1803 0.950 . S
C1807 C1798 1.390 . S
C1807 H1800 0.950 . S
C1807 C1804 1.387 . S
C1808 C1809 1.387 . S
C1808 H1812 0.950 . S
C1808 C1817 1.390 . S
C1809 C1808 1.387 . S
C1809 C1811 1.387 . S
H1810 C1817 0.950 . S
C1811 C1809 1.387 . S
C1811 C1813 1.390 . S
C1811 H1815 0.950 . S
H1812 C1808 0.950 . S
C1813 C1811 1.390 . S
C1813 C1814 1.387 . S
C1813 H1816 0.950 . S
C1814 C1813 1.387 . S
C1814 C1817 1.387 . S
H1815 C1811 0.950 . S
H1816 C1813 0.950 . S
C1817 C1808 1.390 . S
C1817 H1810 0.950 . S
C1817 C1814 1.387 . S
C1818 C1819 1.387 . S
C1818 H1822 0.950 . S
C1818 C1827 1.390 . S
C1819 C1818 1.387 . S
C1819 C1821 1.387 . S
H1820 C1827 0.950 . S
C1821 C1819 1.387 . S
C1821 C1823 1.390 . S
C1821 H1825 0.950 . S
H1822 C1818 0.950 . S
C1823 C1821 1.390 . S
C1823 C1824 1.387 . S
C1823 H1826 0.950 . S
C1824 C1823 1.387 . S
C1824 C1827 1.387 . S
H1825 C1821 0.950 . S
H1826 C1823 0.950 . S
C1827 C1818 1.390 . S
C1827 H1820 0.950 . S
C1827 C1824 1.387 . S
C1828 C1829 1.387 . S
C1828 H1832 0.950 . S
C1828 C1837 1.390 . S
C1829 C1828 1.387 . S
C1829 C1831 1.387 . S
H1830 C1837 0.950 . S
C1831 C1829 1.387 . S
C1831 C1833 1.390 . S
C1831 H1835 0.950 . S
H1832 C1828 0.950 . S
C1833 C1831 1.390 . S
C1833 C1834 1.387 . S
C1833 H1836 0.950 . S
C1834 C1833 1.387 . S
C1834 C1837 1.387 . S
H1835 C1831 0.950 . S
H1836 C1833 0.950 . S
C1837 C1828 1.390 . S
C1837 H1830 0.950 . S
C1837 C1834 1.387 . S
C1838 C1839 1.387 . S
C1838 H1842 0.950 . S
C1838 C1847 1.390 . S
C1839 C1838 1.387 . S
C1839 C1841 1.387 . S
H1840 C1847 0.950 . S
C1841 C1839 1.387 . S
C1841 C1843 1.390 . S
C1841 H1845 0.950 . S
H1842 C1838 0.950 . S
C1843 C1841 1.390 . S
C1843 C1844 1.387 . S
C1843 H1846 0.950 . S
C1844 C1843 1.387 . S
C1844 C1847 1.387 . S
H1845 C1841 0.950 . S
H1846 C1843 0.950 . S
C1847 C1838 1.390 . S
C1847 H1840 0.950 . S
C1847 C1844 1.387 . S
C1848 C1849 1.387 . S
C1848 H1852 0.950 . S
C1848 C1857 1.390 . S
C1849 C1848 1.387 . S
C1849 C1851 1.387 . S
H1850 C1857 0.950 . S
C1851 C1849 1.387 . S
C1851 C1853 1.390 . S
C1851 H1855 0.950 . S
H1852 C1848 0.950 . S
C1853 C1851 1.390 . S
C1853 C1854 1.387 . S
C1853 H1856 0.950 . S
C1854 C1853 1.387 . S
C1854 C1857 1.387 . S
H1855 C1851 0.950 . S
H1856 C1853 0.950 . S
C1857 C1848 1.390 . S
C1857 H1850 0.950 . S
C1857 C1854 1.387 . S
C1858 C1859 1.387 . S
C1858 H1862 0.950 . S
C1858 C1867 1.390 . S
C1859 C1858 1.387 . S
C1859 C1861 1.387 . S
H1860 C1867 0.950 . S
C1861 C1859 1.387 . S
C1861 C1863 1.390 . S
C1861 H1865 0.950 . S
H1862 C1858 0.950 . S
C1863 C1861 1.390 . S
C1863 C1864 1.387 . S
C1863 H1866 0.950 . S
C1864 C1863 1.387 . S
C1864 C1867 1.387 . S
H1865 C1861 0.950 . S
H1866 C1863 0.950 . S
C1867 C1858 1.390 . S
C1867 H1860 0.950 . S
C1867 C1864 1.387 . S
C1868 C1869 1.387 . S
C1868 H1872 0.950 . S
C1868 C1877 1.390 . S
C1869 C1868 1.387 . S
C1869 C1871 1.387 . S
H1870 C1877 0.950 . S
C1871 C1869 1.387 . S
C1871 C1873 1.390 . S
C1871 H1875 0.950 . S
H1872 C1868 0.950 . S
C1873 C1871 1.390 . S
C1873 C1874 1.387 . S
C1873 H1876 0.950 . S
C1874 C1873 1.387 . S
C1874 C1877 1.387 . S
H1875 C1871 0.950 . S
H1876 C1873 0.950 . S
C1877 C1868 1.390 . S
C1877 H1870 0.950 . S
C1877 C1874 1.387 . S
C1878 C1879 1.387 . S
C1878 H1882 0.950 . S
C1878 C1887 1.390 . S
C1879 C1878 1.387 . S
C1879 C1881 1.387 . S
H1880 C1887 0.950 . S
C1881 C1879 1.387 . S
C1881 C1883 1.390 . S
C1881 H1885 0.950 . S
H1882 C1878 0.950 . S
C1883 C1881 1.390 . S
C1883 C1884 1.387 . S
C1883 H1886 0.950 . S
C1884 C1883 1.387 . S
C1884 C1887 1.387 . S
H1885 C1881 0.950 . S
H1886 C1883 0.950 . S
C1887 C1878 1.390 . S
C1887 H1880 0.950 . S
C1887 C1884 1.387 . S
C1888 C1889 1.387 . S
C1888 H1892 0.950 . S
C1888 C1897 1.390 . S
C1889 C1888 1.387 . S
C1889 C1891 1.387 . S
H1890 C1897 0.950 . S
C1891 C1889 1.387 . S
C1891 C1893 1.390 . S
C1891 H1895 0.950 . S
H1892 C1888 0.950 . S
C1893 C1891 1.390 . S
C1893 C1894 1.387 . S
C1893 H1896 0.950 . S
C1894 C1893 1.387 . S
C1894 C1897 1.387 . S
H1895 C1891 0.950 . S
H1896 C1893 0.950 . S
C1897 C1888 1.390 . S
C1897 H1890 0.950 . S
C1897 C1894 1.387 . S
C1898 C1899 1.387 . S
C1898 H1902 0.950 . S
C1898 C1907 1.390 . S
C1899 C1898 1.387 . S
C1899 C1901 1.387 . S
H1900 C1907 0.950 . S
C1901 C1899 1.387 . S
C1901 C1903 1.390 . S
C1901 H1905 0.950 . S
H1902 C1898 0.950 . S
C1903 C1901 1.390 . S
C1903 C1904 1.387 . S
C1903 H1906 0.950 . S
C1904 C1903 1.387 . S
C1904 C1907 1.387 . S
H1905 C1901 0.950 . S
H1906 C1903 0.950 . S
C1907 C1898 1.390 . S
C1907 H1900 0.950 . S
C1907 C1904 1.387 . S
C1908 C1909 1.387 . S
C1908 H1912 0.950 . S
C1908 C1917 1.390 . S
C1909 C1908 1.387 . S
C1909 C1911 1.387 . S
H1910 C1917 0.950 . S
C1911 C1909 1.387 . S
C1911 C1913 1.390 . S
C1911 H1915 0.950 . S
H1912 C1908 0.950 . S
C1913 C1911 1.390 . S
C1913 C1914 1.387 . S
C1913 H1916 0.950 . S
C1914 C1913 1.387 . S
C1914 C1917 1.387 . S
H1915 C1911 0.950 . S
H1916 C1913 0.950 . S
C1917 C1908 1.390 . S
C1917 H1910 0.950 . S
C1917 C1914 1.387 . S
C1918 C1919 1.387 . S
C1918 H1922 0.950 . S
C1918 C1927 1.390 . S
C1919 C1918 1.387 . S
C1919 C1921 1.387 . S
H1920 C1927 0.950 . S
C1921 C1919 1.387 . S
C1921 C1923 1.390 . S
C1921 H1925 0.950 . S
H1922 C1918 0.950 . S
C1923 C1921 1.390 . S
C1923 C1924 1.387 . S
C1923 H1926 0.950 . S
C1924 C1923 1.387 . S
C1924 C1927 1.387 . S
H1925 C1921 0.950 . S
H1926 C1923 0.950 . S
C1927 C1918 1.390 . S
C1927 H1920 0.950 . S
C1927 C1924 1.387 . S
C1928 C1929 1.387 . S
C1928 H1932 0.950 . S
C1928 C1937 1.390 . S
C1929 C1928 1.387 . S
C1929 C1931 1.387 . S
H1930 C1937 0.950 . S
C1931 C1929 1.387 . S
C1931 C1933 1.390 . S
C1931 H1935 0.950 . S
H1932 C1928 0.950 . S
C1933 C1931 1.390 . S
C1933 C1934 1.387 . S
C1933 H1936 0.950 . S
C1934 C1933 1.387 . S
C1934 C1937 1.387 . S
H1935 C1931 0.950 . S
H1936 C1933 0.950 . S
C1937 C1928 1.390 . S
C1937 H1930 0.950 . S
C1937 C1934 1.387 . S
C1938 C1939 1.387 . S
C1938 H1942 0.950 . S
C1938 C1947 1.390 . S
C1939 C1938 1.387 . S
C1939 C1941 1.387 . S
H1940 C1947 0.950 . S
C1941 C1939 1.387 . S
C1941 C1943 1.390 . S
C1941 H1945 0.950 . S
H1942 C1938 0.950 . S
C1943 C1941 1.390 . S
C1943 C1944 1.387 . S
C1943 H1946 0.950 . S
C1944 C1943 1.387 . S
C1944 C1947 1.387 . S
H1945 C1941 0.950 . S
H1946 C1943 0.950 . S
C1947 C1938 1.390 . S
C1947 H1940 0.950 . S
C1947 C1944 1.387 . S
C1948 C1949 1.387 . S
C1948 H1952 0.950 . S
C1948 C1957 1.390 . S
C1949 C1948 1.387 . S
C1949 C1951 1.387 . S
H1950 C1957 0.950 . S
C1951 C1949 1.387 . S
C1951 C1953 1.390 . S
C1951 H1955 0.950 . S
H1952 C1948 0.950 . S
C1953 C1951 1.390 . S
C1953 C1954 1.387 . S
C1953 H1956 0.950 . S
C1954 C1953 1.387 . S
C1954 C1957 1.387 . S
H1955 C1951 0.950 . S
H1956 C1953 0.950 . S
C1957 C1948 1.390 . S
C1957 H1950 0.950 . S
C1957 C1954 1.387 . S
C1958 C1959 1.387 . S
C1958 H1962 0.950 . S
C1958 C1967 1.390 . S
C1959 C1958 1.387 . S
C1959 C1961 1.387 . S
H1960 C1967 0.950 . S
C1961 C1959 1.387 . S
C1961 C1963 1.390 . S
C1961 H1965 0.950 . S
H1962 C1958 0.950 . S
C1963 C1961 1.390 . S
C1963 C1964 1.387 . S
C1963 H1966 0.950 . S
C1964 C1963 1.387 . S
C1964 C1967 1.387 . S
H1965 C1961 0.950 . S
H1966 C1963 0.950 . S
C1967 C1958 1.390 . S
C1967 H1960 0.950 . S
C1967 C1964 1.387 . S
C1968 C1969 1.387 . S
C1968 H1972 0.950 . S
C1968 C1977 1.390 . S
C1969 C1968 1.387 . S
C1969 C1971 1.387 . S
H1970 C1977 0.950 . S
C1971 C1969 1.387 . S
C1971 C1973 1.390 . S
C1971 H1975 0.950 . S
H1972 C1968 0.950 . S
C1973 C1971 1.390 . S
C1973 C1974 1.387 . S
C1973 H1976 0.950 . S
C1974 C1973 1.387 . S
C1974 C1977 1.387 . S
H1975 C1971 0.950 . S
H1976 C1973 0.950 . S
C1977 C1968 1.390 . S
C1977 H1970 0.950 . S
C1977 C1974 1.387 . S
C1978 C1979 1.387 . S
C1978 H1982 0.950 . S
C1978 C1987 1.390 . S
C1979 C1978 1.387 . S
C1979 C1981 1.387 . S
H1980 C1987 0.950 . S
C1981 C1979 1.387 . S
C1981 C1983 1.390 . S
C1981 H1985 0.950 . S
H1982 C1978 0.950 . S
C1983 C1981 1.390 . S
C1983 C1984 1.387 . S
C1983 H1986 0.950 . S
C1984 C1983 1.387 . S
C1984 C1987 1.387 . S
H1985 C1981 0.950 . S
H1986 C1983 0.950 . S
C1987 C1978 1.390 . S
C1987 H1980 0.950 . S
C1987 C1984 1.387 . S
C1988 C1989 1.387 . S
C1988 H1992 0.950 . S
C1988 C1997 1.390 . S
C1989 C1988 1.387 . S
C1989 C1991 1.387 . S
H1990 C1997 0.950 . S
C1991 C1989 1.387 . S
C1991 C1993 1.390 . S
C1991 H1995 0.950 . S
H1992 C1988 0.950 . S
C1993 C1991 1.390 . S
C1993 C1994 1.387 . S
C1993 H1996 0.950 . S
C1994 C1993 1.387 . S
C1994 C1997 1.387 . S
H1995 C1991 0.950 . S
H1996 C1993 0.950 . S
C1997 C1988 1.390 . S
C1997 H1990 0.950 . S
C1997 C1994 1.387 . S
C1998 C1999 1.387 . S
C1998 H2002 0.950 . S
C1998 C2007 1.390 . S
C1999 C1998 1.387 . S
C1999 C2001 1.387 . S
H2000 C2007 0.950 . S
C2001 C1999 1.387 . S
C2001 C2003 1.390 . S
C2001 H2005 0.950 . S
H2002 C1998 0.950 . S
C2003 C2001 1.390 . S
C2003 C2004 1.387 . S
C2003 H2006 0.950 . S
C2004 C2003 1.387 . S
C2004 C2007 1.387 . S
H2005 C2001 0.950 . S
H2006 C2003 0.950 . S
C2007 C1998 1.390 . S
C2007 H2000 0.950 . S
C2007 C2004 1.387 . S
C2008 C2009 1.387 . S
C2008 H2012 0.950 . S
C2008 C2017 1.390 . S
C2009 C2008 1.387 . S
C2009 C2011 1.387 . S
H2010 C2017 0.950 . S
C2011 C2009 1.387 . S
C2011 C2013 1.390 . S
C2011 H2015 0.950 . S
H2012 C2008 0.950 . S
C2013 C2011 1.390 . S
C2013 C2014 1.387 . S
C2013 H2016 0.950 . S
C2014 C2013 1.387 . S
C2014 C2017 1.387 . S
H2015 C2011 0.950 . S
H2016 C2013 0.950 . S
C2017 C2008 1.390 . S
C2017 H2010 0.950 . S
C2017 C2014 1.387 . S
C2018 C2019 1.387 . S
C2018 H2022 0.950 . S
C2018 C2027 1.390 . S
C2019 C2018 1.387 . S
C2019 C2021 1.387 . S
H2020 C2027 0.950 . S
C2021 C2019 1.387 . S
C2021 C2023 1.390 . S
C2021 H2025 0.950 . S
H2022 C2018 0.950 . S
C2023 C2021 1.390 . S
C2023 C2024 1.387 . S
C2023 H2026 0.950 . S
C2024 C2023 1.387 . S
C2024 C2027 1.387 . S
H2025 C2021 0.950 . S
H2026 C2023 0.950 . S
C2027 C2018 1.390 . S
C2027 H2020 0.950 . S
C2027 C2024 1.387 . S
C2028 C2029 1.387 . S
C2028 H2032 0.950 . S
C2028 C2037 1.390 . S
C2029 C2028 1.387 . S
C2029 C2031 1.387 . S
H2030 C2037 0.950 . S
C2031 C2029 1.387 . S
C2031 C2033 1.390 . S
C2031 H2035 0.950 . S
H2032 C2028 0.950 . S
C2033 C2031 1.390 . S
C2033 C2034 1.387 . S
C2033 H2036 0.950 . S
C2034 C2033 1.387 . S
C2034 C2037 1.387 . S
H2035 C2031 0.950 . S
H2036 C2033 0.950 . S
C2037 C2028 1.390 . S
C2037 H2030 0.950 . S
C2037 C2034 1.387 . S
C2038 C2039 1.387 . S
C2038 H2042 0.950 . S
C2038 C2047 1.390 . S
C2039 C2038 1.387 . S
C2039 C2041 1.387 . S
H2040 C2047 0.950 . S
C2041 C2039 1.387 . S
C2041 C2043 1.390 . S
C2041 H2045 0.950 . S
H2042 C2038 0.950 . S
C2043 C2041 1.390 . S
C2043 C2044 1.387 . S
C2043 H2046 0.950 . S
C2044 C2043 1.387 . S
C2044 C2047 1.387 . S
H2045 C2041 0.950 . S
H2046 C2043 0.950 . S
C2047 C2038 1.390 . S
C2047 H2040 0.950 . S
C2047 C2044 1.387 . S
C2048 C2049 1.387 . S
C2048 H2052 0.950 . S
C2048 C2057 1.390 . S
C2049 C2048 1.387 . S
C2049 C2051 1.387 . S
H2050 C2057 0.950 . S
C2051 C2049 1.387 . S
C2051 C2053 1.390 . S
C2051 H2055 0.950 . S
H2052 C2048 0.950 . S
C2053 C2051 1.390 . S
C2053 C2054 1.387 . S
C2053 H2056 0.950 . S
C2054 C2053 1.387 . S
C2054 C2057 1.387 . S
H2055 C2051 0.950 . S
H2056 C2053 0.950 . S
C2057 C2048 1.390 . S
C2057 H2050 0.950 . S
C2057 C2054 1.387 . S
C2058 C2059 1.387 . S
C2058 H2062 0.950 . S
C2058 C2067 1.390 . S
C2059 C2058 1.387 . S
C2059 C2061 1.387 . S
H2060 C2067 0.950 . S
C2061 C2059 1.387 . S
C2061 C2063 1.390 . S
C2061 H2065 0.950 . S
H2062 C2058 0.950 . S
C2063 C2061 1.390 . S
C2063 C2064 1.387 . S
C2063 H2066 0.950 . S
C2064 C2063 1.387 . S
C2064 C2067 1.387 . S
H2065 C2061 0.950 . S
H2066 C2063 0.950 . S
C2067 C2058 1.390 . S
C2067 H2060 0.950 . S
C2067 C2064 1.387 . S
C2068 C2069 1.387 . S
C2068 H2072 0.950 . S
C2068 C2077 1.390 . S
C2069 C2068 1.387 . S
C2069 C2071 1.387 . S
H2070 C2077 0.950 . S
C2071 C2069 1.387 . S
C2071 C2073 1.390 . S
C2071 H2075 0.950 . S
H2072 C2068 0.950 . S
C2073 C2071 1.390 . S
C2073 C2074 1.387 . S
C2073 H2076 0.950 . S
C2074 C2073 1.387 . S
C2074 C2077 1.387 . S
H2075 C2071 0.950 . S
H2076 C2073 0.950 . S
C2077 C2068 1.390 . S
C2077 H2070 0.950 . S
C2077 C2074 1.387 . S
C2078 C2079 1.387 . S
C2078 H2082 0.950 . S
C2078 C2087 1.390 . S
C2079 C2078 1.387 . S
C2079 C2081 1.387 . S
H2080 C2087 0.950 . S
C2081 C2079 1.387 . S
C2081 C2083 1.390 . S
C2081 H2085 0.950 . S
H2082 C2078 0.950 . S
C2083 C2081 1.390 . S
C2083 C2084 1.387 . S
C2083 H2086 0.950 . S
C2084 C2083 1.387 . S
C2084 C2087 1.387 . S
H2085 C2081 0.950 . S
H2086 C2083 0.950 . S
C2087 C2078 1.390 . S
C2087 H2080 0.950 . S
C2087 C2084 1.387 . S
C1189 C28 1.200 . S
C1194 C523 1.198 . S
C1199 C556 1.200 . S
C1204 C61 1.200 . S
C1209 C94 1.203 . S
C1214 C589 1.202 . S
C1219 C820 1.198 . S
C1224 C127 1.198 . S
C1229 C853 1.201 . S
C1234 C160 1.200 . S
C1239 C193 1.202 . S
C1244 C886 1.203 . S
C1249 C226 1.201 . S
C1254 C1117 1.202 . S
C1259 C1150 1.200 . S
C1264 C259 1.200 . S
C1269 C292 1.200 . S
C1274 C1183 1.201 . S
C1279 C622 1.201 . S
C1284 C325 1.201 . S
C1289 C358 1.203 . S
C1294 C655 1.204 . S
C1299 C688 1.203 . S
C1304 C391 1.202 . S
C1309 C424 1.199 . S
C1314 C919 1.197 . S
C1319 C457 1.201 . S
C1324 C952 1.200 . S
C1329 C985 1.202 . S
C1334 C490 1.201 . S
C1339 C1018 1.200 . S
C1344 C721 1.201 . S
C1349 C1051 1.203 . S
C1354 C754 1.203 . S
C1359 C787 1.203 . S
C1364 C1084 1.203 . S
C1369 C17 1.543 . S
C1374 C380 1.544 . S
C1379 C50 1.543 . S
C1384 C314 1.545 . S
C1389 C83 1.546 . S
C1394 C347 1.544 . S
C1399 C248 1.545 . S
C1404 C116 1.543 . S
C1409 C281 1.546 . S
C1414 C149 1.544 . S
C1419 C182 1.544 . S
C1424 C215 1.542 . S
C1429 C413 1.544 . S
C1434 C776 1.546 . S
C1439 C710 1.543 . S
C1444 C446 1.544 . S
C1449 C479 1.546 . S
C1454 C743 1.544 . S
C1459 C512 1.545 . S
C1464 C644 1.543 . S
C1469 C545 1.544 . S
C1474 C677 1.545 . S
C1479 C578 1.543 . S
C1484 C611 1.545 . S
C1489 C809 1.545 . S
C1494 C1172 1.543 . S
C1499 C1106 1.543 . S
C1504 C842 1.544 . S
C1509 C1139 1.544 . S
C1514 C875 1.545 . S
C1519 C1040 1.545 . S
C1524 C908 1.544 . S
C1529 C941 1.546 . S
C1534 C1073 1.544 . S
C1539 C974 1.543 . S
C1544 C1007 1.545 . S
C1549 C965 1.561 . S
C1554 C8 1.561 . S
C1559 C41 1.562 . S
C1564 C899 1.561 . S
C1569 C74 1.561 . S
C1574 C932 1.563 . S
C1579 C437 1.563 . S
C1584 C107 1.562 . S
C1589 C140 1.561 . S
C1594 C470 1.563 . S
C1599 C173 1.561 . S
C1604 C404 1.561 . S
C1609 C767 1.562 . S
C1614 C206 1.562 . S
C1619 C239 1.562 . S
C1624 C701 1.562 . S
C1629 C734 1.563 . S
C1634 C272 1.562 . S
C1639 C1031 1.562 . S
C1644 C305 1.563 . S
C1649 C1064 1.562 . S
C1654 C338 1.561 . S
C1659 C998 1.562 . S
C1664 C371 1.562 . S
C1669 C503 1.562 . S
C1674 C833 1.561 . S
C1679 C866 1.562 . S
C1684 C536 1.561 . S
C1689 C569 1.561 . S
C1694 C800 1.561 . S
C1699 C602 1.561 . S
C1704 C1163 1.561 . S
C1709 C635 1.561 . S
C1714 C1097 1.561 . S
C1719 C668 1.562 . S
C1724 C1130 1.563 . S
C1729 N5 1.371 . S
C1734 N14 1.368 . S
C1739 N38 1.370 . S
C1744 N47 1.368 . S
C1749 N71 1.370 . S
C1754 N80 1.368 . S
C1759 N113 1.368 . S
C1764 N104 1.371 . S
C1769 N137 1.370 . S
C1774 N146 1.368 . S
C1779 N179 1.368 . S
C1784 N170 1.370 . S
C1789 N203 1.370 . S
C1794 N212 1.368 . S
C1799 N245 1.367 . S
C1804 N236 1.370 . S
C1809 N278 1.368 . S
C1814 N269 1.370 . S
C1819 N302 1.370 . S
C1824 N311 1.368 . S
C1829 N335 1.371 . S
C1834 N344 1.368 . S
C1839 N377 1.368 . S
C1844 N368 1.370 . S
C1849 N410 1.368 1_556 S
C1854 N401 1.371 . S
C1859 N443 1.368 1_556 S
C1864 N434 1.370 . S
C1869 N467 1.370 . S
C1874 N476 1.368 1_556 S
C1879 N509 1.368 . S
C1884 N500 1.370 1_556 S
C1889 N542 1.368 . S
C1894 N533 1.370 1_556 S
C1899 N566 1.370 1_556 S
C1904 N575 1.368 . S
C1909 N608 1.368 . S
C1914 N599 1.370 1_556 S
C1919 N632 1.370 1_556 S
C1924 N641 1.367 . S
C1929 N665 1.370 1_556 S
C1934 N674 1.368 . S
C1939 N707 1.368 1_556 S
C1944 N698 1.370 . S
C1949 N740 1.368 1_556 S
C1954 N731 1.370 . S
C1959 N773 1.368 1_556 S
C1964 N764 1.370 . S
C1969 N806 1.368 . S
C1974 N797 1.370 1_554 S
C1979 N839 1.367 . S
C1984 N830 1.370 1_554 S
C1989 N863 1.370 1_554 S
C1994 N872 1.368 . S
C1999 N896 1.371 . S
C2004 N905 1.368 1_554 S
C2009 N929 1.371 . S
C2014 N938 1.368 1_554 S
C2019 N962 1.371 . S
C2024 N971 1.368 1_554 S
C2029 N995 1.371 . S
C2034 N1004 1.368 1_554 S
C2039 N1028 1.370 . S
C2044 N1037 1.367 1_554 S
C2049 N1070 1.368 1_554 S
C2054 N1061 1.370 . S
C2059 N1094 1.370 1_554 S
C2064 N1103 1.368 . S
C2069 N1127 1.370 1_554 S
C2074 N1136 1.367 . S
C2079 N1169 1.367 . S
C2084 N1160 1.370 1_554 S
