# Generated by pormake.
# Topology umf, (4)-cn, num edge types: 1
# Building blocks:
#     Node 0, Type 0, BuildingBlock: CEKHIL_clean_sbu_0, # of connection points: 4
#     Node 1, Type 0, BuildingBlock: CEKHIL_clean_sbu_0, # of connection points: 4
#     Node 2, Type 0, BuildingBlock: CEKHIL_clean_sbu_0, # of connection points: 4
#     Node 3, Type 0, BuildingBlock: CEKHIL_clean_sbu_0, # of connection points: 4
#     Node 4, Type 0, BuildingBlock: CEKHIL_clean_sbu_0, # of connection points: 4
#     Node 5, Type 0, BuildingBlock: CEKHIL_clean_sbu_0, # of connection points: 4
#     Node 6, Type 0, BuildingBlock: CEKHIL_clean_sbu_0, # of connection points: 4
#     Node 7, Type 0, BuildingBlock: CEKHIL_clean_sbu_0, # of connection points: 4
#     Edge 8, Type (0, 0), BuildingBlock: AJUNOK_clean_linker_0, # of connection points: 2
#     Edge 9, Type (0, 0), BuildingBlock: AJUNOK_clean_linker_0, # of connection points: 2
#     Edge 10, Type (0, 0), BuildingBlock: AJUNOK_clean_linker_0, # of connection points: 2
#     Edge 11, Type (0, 0), BuildingBlock: AJUNOK_clean_linker_0, # of connection points: 2
#     Edge 12, Type (0, 0), BuildingBlock: AJUNOK_clean_linker_0, # of connection points: 2
#     Edge 13, Type (0, 0), BuildingBlock: AJUNOK_clean_linker_0, # of connection points: 2
#     Edge 14, Type (0, 0), BuildingBlock: AJUNOK_clean_linker_0, # of connection points: 2
#     Edge 15, Type (0, 0), BuildingBlock: AJUNOK_clean_linker_0, # of connection points: 2
#     Edge 16, Type (0, 0), BuildingBlock: AJUNOK_clean_linker_0, # of connection points: 2
#     Edge 17, Type (0, 0), BuildingBlock: AJUNOK_clean_linker_0, # of connection points: 2
#     Edge 18, Type (0, 0), BuildingBlock: AJUNOK_clean_linker_0, # of connection points: 2
#     Edge 19, Type (0, 0), BuildingBlock: AJUNOK_clean_linker_0, # of connection points: 2
#     Edge 20, Type (0, 0), BuildingBlock: AJUNOK_clean_linker_0, # of connection points: 2
#     Edge 21, Type (0, 0), BuildingBlock: AJUNOK_clean_linker_0, # of connection points: 2
#     Edge 22, Type (0, 0), BuildingBlock: AJUNOK_clean_linker_0, # of connection points: 2
#     Edge 23, Type (0, 0), BuildingBlock: AJUNOK_clean_linker_0, # of connection points: 2
# Relax obj value: 0.165
# Max RMSD: 0.291
# Mean RMSD: 0.282
data_MOF--net-umf--node1-CEKHIL_clean_sbu_0--edge1-AJUNOK_clean_linker_0
_symmetry_space_group_name_H-M    P1
_symmetry_Int_Tables_number       1
_symmetry_cell_setting            triclinic
loop_
_symmetry_equiv_pos_as_xyz
'x, y, z'
_cell_length_a     20.834722
_cell_length_b     19.892157
_cell_length_c     38.465884
_cell_angle_alpha  89.916033
_cell_angle_beta   90.047695
_cell_angle_gamma 89.954932
loop_
_atom_site_label
_atom_site_type_symbol
_atom_site_fract_x
_atom_site_fract_y
_atom_site_fract_z
_atom_type_partial_charge
Co0 Co 0.05894 0.23449 0.15802 0.0
O1 O 0.08416 0.25699 0.20417 0.0
O2 O 0.14802 0.20651 0.16693 0.0
C3 C 0.01469 0.33304 0.14657 0.0
O4 O 0.04145 0.20926 0.10664 0.0
Co5 Co 0.9157 0.22133 0.15052 0.0
O6 O 0.93389 0.2172 0.1002 0.0
C7 C 0.98214 0.11459 0.18561 0.0
C8 C 0.13877 0.22923 0.19848 0.0
C9 C 0.98986 0.20964 0.08757 0.0
O10 O 0.03257 0.1441 0.17491 0.0
O11 O 0.92639 0.13976 0.18097 0.0
O12 O 0.07558 0.32334 0.14215 0.0
O13 O 0.98333 0.28563 0.16249 0.0
Co14 Co 0.71104 0.06396 0.65201 0.0
O15 O 0.62431 0.08731 0.64239 0.0
O16 O 0.65955 0.98306 0.64955 0.0
C17 C 0.72503 0.13651 0.69593 0.0
O18 O 0.80098 0.02721 0.66298 0.0
Co19 Co 0.80787 0.16871 0.63221 0.0
O20 O 0.86235 0.11977 0.66559 0.0
C21 C 0.76777 0.07542 0.57806 0.0
C22 C 0.61155 0.02396 0.64392 0.0
C23 C 0.8544 0.0572 0.67057 0.0
O24 O 0.72862 0.05338 0.60094 0.0
O25 O 0.805 0.12509 0.58441 0.0
O26 O 0.69771 0.07906 0.70037 0.0
O27 O 0.73465 0.15402 0.66346 0.0
Co28 Co 0.92977 0.71514 0.16169 0.0
O29 O 0.9025 0.6927 0.20743 0.0
O30 O 0.84264 0.74999 0.17089 0.0
C31 C 0.9675 0.61402 0.14995 0.0
O32 O 0.95136 0.7414 0.11064 0.0
Co33 Co 0.07465 0.71707 0.15677 0.0
O34 O 0.05614 0.71378 0.10645 0.0
C35 C 0.0141 0.83133 0.18834 0.0
C36 C 0.85039 0.72552 0.20227 0.0
C37 C 0.00292 0.73 0.09243 0.0
O38 O 0.96216 0.80241 0.17944 0.0
O39 O 0.06881 0.8039 0.18352 0.0
O40 O 0.90745 0.62797 0.14495 0.0
O41 O 0.00121 0.65873 0.16647 0.0
Co42 Co 0.24116 0.91585 0.64596 0.0
O43 O 0.3283 0.89004 0.6419 0.0
O44 O 0.29545 -0.00431 0.64483 0.0
C45 C 0.21731 0.84806 0.69055 0.0
O46 O 0.1494 0.95365 0.65204 0.0
Co47 Co 0.15192 0.81232 0.6208 0.0
O48 O 0.09192 0.85834 0.65177 0.0
C49 C 0.20031 0.90231 0.56852 0.0
C50 C 0.34288 0.95276 0.64323 0.0
C51 C 0.09644 0.92096 0.65751 0.0
O52 O 0.23462 0.92406 0.59366 0.0
O53 O 0.16044 0.85439 0.57301 0.0
O54 O 0.24496 0.90519 0.69488 0.0
O55 O 0.21523 0.82564 0.65845 0.0
Co56 Co 0.06776 0.72577 0.86755 0.0
O57 O 0.08633 0.7085 0.81967 0.0
O58 O 0.15124 0.76365 0.85483 0.0
C59 C 0.03332 0.62388 0.87988 0.0
O60 O 0.05702 0.74709 0.92006 0.0
Co61 Co 0.92316 0.7254 0.88185 0.0
O62 O 0.95105 0.73201 0.93077 0.0
C63 C 0.97832 0.84623 0.85407 0.0
C64 C 0.13874 0.74165 0.82348 0.0
C65 C 0.00799 0.74418 0.941 0.0
O66 O 0.03115 0.8143 0.85512 0.0
O67 O 0.92469 0.81928 0.86195 0.0
O68 O 0.09421 0.63736 0.88015 0.0
O69 O 0.99602 0.67013 0.86696 0.0
Co70 Co 0.27718 0.05911 0.36899 0.0
O71 O 0.36203 0.09178 0.37724 0.0
O72 O 0.33601 0.98401 0.37378 0.0
C73 C 0.25781 0.12785 0.32353 0.0
O74 O 0.19124 0.01125 0.35923 0.0
Co75 Co 0.16702 0.15009 0.38405 0.0
O76 O 0.12468 0.0965 0.34784 0.0
C77 C 0.2126 0.06382 0.44043 0.0
C78 C 0.38024 0.0298 0.37786 0.0
C79 C 0.13712 0.0341 0.34752 0.0
O80 O 0.26087 0.05238 0.42069 0.0
O81 O 0.1664 0.10192 0.43073 0.0
O82 O 0.28849 0.07192 0.32009 0.0
O83 O 0.24513 0.14565 0.3556 0.0
Co84 Co 0.91509 0.24832 0.86485 0.0
O85 O 0.89404 0.26624 0.8176 0.0
O86 O 0.8297 0.21236 0.85327 0.0
C87 C 0.94902 0.35151 0.87592 0.0
O88 O 0.93128 0.22679 0.91711 0.0
Co89 Co 0.06257 0.25649 0.87458 0.0
O90 O 0.03598 0.25457 0.92383 0.0
C91 C 0.00742 0.13336 0.84719 0.0
C92 C 0.84043 0.23594 0.82199 0.0
C93 C 0.98168 0.23789 0.93642 0.0
O94 O 0.95223 0.15994 0.85126 0.0
O95 O 0.05987 0.16481 0.85293 0.0
O96 O 0.88847 0.33738 0.87796 0.0
O97 O 0.98517 0.3053 0.86254 0.0
Co98 Co 0.74991 0.92297 0.37097 0.0
O99 O 0.66396 0.90136 0.38333 0.0
O100 O 0.69747 0.00459 0.37315 0.0
C101 C 0.75252 0.84401 0.32749 0.0
O102 O 0.83996 0.95081 0.35877 0.0
Co103 Co 0.80918 0.81248 0.40482 0.0
O104 O 0.88454 0.85638 0.38061 0.0
C105 C 0.77895 0.91281 0.45058 0.0
C106 C 0.65035 0.96429 0.38132 0.0
C107 C 0.88934 0.91295 0.36476 0.0
O108 O 0.77208 0.94326 0.42153 0.0
O109 O 0.78629 0.84948 0.45142 0.0
O110 O 0.72942 0.9031 0.3232 0.0
O111 O 0.77502 0.83174 0.35843 0.0
C112 C 0.97936 0.43717 0.11786 0.0
C113 C 0.99451 0.40246 0.14849 0.0
C114 C 0.97371 0.50716 0.1181 0.0
C115 C 0.98592 0.54379 0.14859 0.0
H116 H 0.97278 0.41018 0.09366 0.0
H117 H 0.95959 0.53287 0.09443 0.0
S118 S 0.02923 0.47527 0.235 0.0
N119 N 0.02238 0.40859 0.20972 0.0
N120 N 0.01343 0.5408 0.20997 0.0
C121 C 0.00216 0.50955 0.17916 0.0
C122 C 0.00609 0.43844 0.17914 0.0
C123 C 0.4322 0.03191 0.62947 0.0
C124 C 0.41108 0.97139 0.64404 0.0
C125 C 0.49776 0.04708 0.62838 0.0
C126 C 0.54417 0.00233 0.64193 0.0
H127 H 0.39811 0.06716 0.61844 0.0
H128 H 0.51211 0.09462 0.61702 0.0
S129 S 0.51257 0.83899 0.68481 0.0
N130 N 0.44104 0.86737 0.67358 0.0
N131 N 0.5641 0.89631 0.67131 0.0
C132 C 0.52353 0.94176 0.65661 0.0
C133 C 0.45693 0.9263 0.65781 0.0
C134 C 0.92644 0.47271 0.88085 0.0
C135 C 0.97111 0.41974 0.88263 0.0
C136 C 0.94652 0.53937 0.88212 0.0
C137 C 0.01171 0.55485 0.88568 0.0
H138 H 0.87591 0.4629 0.87656 0.0
H139 H 0.91111 0.57877 0.87871 0.0
S140 S 0.14573 0.43351 0.89846 0.0
N141 N 0.0816 0.38626 0.8926 0.0
N142 N 0.11998 0.51189 0.89629 0.0
C143 C 0.05618 0.50214 0.89073 0.0
C144 C 0.0357 0.43427 0.88875 0.0
C145 C 0.49494 0.05968 0.36847 0.0
C146 C 0.44895 0.01412 0.38146 0.0
C147 C 0.56079 0.04541 0.37014 0.0
C148 C 0.58271 0.98541 0.38521 0.0
H149 H 0.47984 0.10577 0.35582 0.0
H150 H 0.59431 0.08017 0.3583 0.0
S151 S 0.48186 0.85532 0.42829 0.0
N152 N 0.42983 0.91066 0.41308 0.0
N153 N 0.55337 0.88396 0.41726 0.0
C154 C 0.53715 0.94153 0.40028 0.0
C155 C 0.47026 0.95573 0.39806 0.0
C156 C 0.94308 0.18383 0.99255 0.0
C157 C 0.98093 0.23176 0.97521 0.0
C158 C 0.9488 0.17409 0.02882 0.0
C159 C 0.9935 0.21076 0.04898 0.0
H160 H 0.90949 0.15322 0.97805 0.0
H161 H 0.91747 0.13799 0.04133 0.0
S162 S 0.09857 0.34746 0.01707 0.0
N163 N 0.06079 0.32058 0.98202 0.0
N164 N 0.07237 0.30003 0.04928 0.0
C165 C 0.03095 0.25908 0.03205 0.0
C166 C 0.02434 0.27018 0.9955 0.0
C167 C 0.74534 0.97071 0.54329 0.0
C168 C 0.77216 0.03612 0.54475 0.0
C169 C 0.74956 0.9304 0.51335 0.0
C170 C 0.77974 0.95386 0.48309 0.0
H171 H 0.72103 0.94971 0.56568 0.0
H172 H 0.72757 0.88107 0.51367 0.0
S173 S 0.86089 0.11904 0.47293 0.0
N174 N 0.83292 0.12052 0.5131 0.0
N175 N 0.83928 0.0457 0.45661 0.0
C176 C 0.8074 0.01865 0.48407 0.0
C177 C 0.80412 0.05939 0.51485 0.0
C178 C 0.96733 0.78218 0.03531 0.0
C179 C 0.00396 0.73445 0.05359 0.0
C180 C 0.97265 0.78859 0.99886 0.0
C181 C 0.0154 0.7483 0.97934 0.0
H182 H 0.93459 0.81485 0.04918 0.0
H183 H 0.94183 0.82433 0.98565 0.0
S184 S 0.11701 0.61113 0.01403 0.0
N185 N 0.08132 0.6428 0.04865 0.0
N186 N 0.09138 0.65631 0.98077 0.0
C187 C 0.05198 0.70047 0.99723 0.0
C188 C 0.04614 0.69316 0.03411 0.0
C189 C 0.15155 -0.00477 0.48498 0.0
C190 C 0.20922 0.026 0.47413 0.0
C191 C 0.14942 0.95245 0.5144 0.0
C192 C 0.20466 0.93949 0.53459 0.0
H193 H 0.10795 0.00296 0.47013 0.0
H194 H 0.10379 0.9308 0.52188 0.0
S195 S 0.36768 0.00763 0.51735 0.0
N196 N 0.32303 0.03932 0.48584 0.0
N197 N 0.31883 0.96142 0.54125 0.0
C198 C 0.26247 0.97025 0.52399 0.0
C199 C 0.26481 0.01265 0.49381 0.0
C200 C 0.16056 0.23742 0.26225 0.0
C201 C 0.18053 0.21498 0.22901 0.0
C202 C 0.18828 0.21261 0.29296 0.0
C203 C 0.23748 0.16475 0.29169 0.0
H204 H 0.12041 0.27168 0.26482 0.0
H205 H 0.16853 0.22815 0.31772 0.0
S206 S 0.31674 0.10058 0.21147 0.0
N207 N 0.25876 0.14973 0.19692 0.0
N208 N 0.31241 0.10408 0.25429 0.0
C209 C 0.26218 0.14692 0.25862 0.0
C210 C 0.23345 0.17186 0.22737 0.0
C211 C 0.75473 0.17097 0.79139 0.0
C212 C 0.80023 0.22251 0.79087 0.0
C213 C 0.72775 0.14723 0.76041 0.0
C214 C 0.74558 0.17351 0.72753 0.0
H215 H 0.74266 0.14601 0.81557 0.0
H216 H 0.69487 0.10525 0.76236 0.0
S217 S 0.85403 0.3176 0.71253 0.0
N218 N 0.85491 0.30647 0.75508 0.0
N219 N 0.80511 0.25975 0.69695 0.0
C220 C 0.78687 0.22875 0.72684 0.0
C221 C 0.81398 0.25367 0.75848 0.0
C222 C 0.81117 0.75118 0.29739 0.0
C223 C 0.76379 0.80102 0.29653 0.0
C224 C 0.83423 0.72266 0.26654 0.0
C225 C 0.81167 0.74353 0.23345 0.0
H226 H 0.83382 0.73739 0.32174 0.0
H227 H 0.87349 0.68718 0.2688 0.0
S228 S 0.67679 0.86079 0.21776 0.0
N229 N 0.68605 0.86076 0.26042 0.0
N230 N 0.73161 0.80868 0.20243 0.0
C231 C 0.75983 0.78825 0.23248 0.0
C232 C 0.73544 0.81661 0.26402 0.0
C233 C 0.20471 0.74916 0.73155 0.0
C234 C 0.19102 0.81601 0.72227 0.0
C235 C 0.19192 0.72565 0.76558 0.0
C236 C 0.16797 0.76904 0.79159 0.0
H237 H 0.22656 0.71556 0.71285 0.0
H238 H 0.20031 0.67314 0.77155 0.0
S239 S 0.11773 0.94607 0.77924 0.0
N240 N 0.14608 0.923 0.74103 0.0
N241 N 0.12621 0.87981 0.80469 0.0
C242 C 0.15347 0.83533 0.7823 0.0
C243 C 0.16391 0.85843 0.74774 0.0
C244 C 0.93708 0.00134 0.199 0.0
C245 C 0.99008 0.04455 0.19816 0.0
C246 C 0.9457 0.93172 0.19987 0.0
C247 C 0.0077 0.9026 0.19921 0.0
H248 H 0.8888 0.02085 0.19611 0.0
H249 H 0.90304 0.90079 0.1981 0.0
S250 S 0.16104 -0.00544 0.20958 0.0
N251 N 0.10593 0.05399 0.20673 0.0
N252 N 0.12189 0.92266 0.20663 0.0
C253 C 0.06058 0.94526 0.20356 0.0
C254 C 0.05177 0.01643 0.20343 0.0
C255 C 0.97703 0.92133 0.65925 0.0
C256 C 0.03535 0.9546 0.66695 0.0
C257 C 0.91762 0.95228 0.6641 0.0
C258 C 0.91373 0.01798 0.67687 0.0
H259 H 0.97686 0.87184 0.64754 0.0
H260 H 0.87498 0.92623 0.65526 0.0
S261 S 0.05042 0.12104 0.70898 0.0
N262 N 0.0846 0.05248 0.69337 0.0
N263 N 0.97242 0.11111 0.70316 0.0
C264 C 0.9711 0.04943 0.68802 0.0
C265 C 0.032 0.01787 0.68272 0.0
C266 C 0.95931 0.0273 0.8243 0.0
C267 C 0.00783 0.0598 0.84368 0.0
C268 C 0.94839 0.95784 0.82767 0.0
C269 C 0.98531 0.91948 0.85084 0.0
H270 H 0.92837 0.05624 0.80725 0.0
H271 H 0.91114 0.93427 0.81229 0.0
S272 S 0.11437 0.98126 0.90937 0.0
N273 N 0.09112 0.04837 0.88749 0.0
N274 N 0.07004 0.91898 0.89448 0.0
C275 C 0.03378 0.95153 0.87027 0.0
C276 C 0.04544 0.02138 0.86643 0.0
C277 C 0.96416 -0.01076 0.33194 0.0
C278 C 0.95519 0.93486 0.35473 0.0
C279 C 0.02553 0.0159 0.32608 0.0
C280 C 0.0803 -0.01 0.34321 0.0
H281 H 0.92332 0.01326 0.31967 0.0
H282 H 0.02941 0.0605 0.31 0.0
S283 S 0.08454 0.8414 0.40132 0.0
N284 N 0.00814 0.85034 0.39101 0.0
N285 N 0.12252 0.90185 0.3804 0.0
C286 C 0.0729 0.93187 0.36342 0.0
C287 C 0.01054 0.90425 0.36926 0.0
loop_
_geom_bond_atom_site_label_1
_geom_bond_atom_site_label_2
_geom_bond_distance
_geom_bond_site_symmetry_2
_ccdc_geom_bond_type
Co0 O1 2.216 . S
Co0 O2 2.091 . S
Co0 O4 2.004 . S
Co0 O10 2.021 . S
Co0 O12 2.137 . S
Co0 O13 2.244 . S
O1 Co0 2.216 . S
O1 C8 1.247 . S
O2 Co0 2.091 . S
O2 C8 1.261 . S
C3 O12 1.247 . S
C3 O13 1.272 . S
O4 Co0 2.004 . S
O4 C9 1.259 . S
Co5 O6 2.061 1_655 S
Co5 O11 2.052 . S
Co5 O13 2.135 1_655 S
O6 Co5 2.061 1_455 S
O6 C9 1.235 . S
C7 O10 1.238 . S
C7 O11 1.241 1_455 S
C8 O1 1.247 . S
C8 O2 1.261 . S
C9 O4 1.259 . S
C9 O6 1.235 . S
O10 Co0 2.021 . S
O10 C7 1.238 . S
O11 Co5 2.052 . S
O11 C7 1.241 1_655 S
O12 Co0 2.137 . S
O12 C3 1.247 . S
O13 Co0 2.244 . S
O13 C3 1.272 . S
O13 Co5 2.135 1_455 S
Co14 O15 2.216 . S
Co14 O16 2.091 1_545 S
Co14 O18 2.004 . S
Co14 O24 2.021 . S
Co14 O26 2.137 . S
Co14 O27 2.244 . S
O15 Co14 2.216 . S
O15 C22 1.247 . S
O16 Co14 2.091 1_565 S
O16 C22 1.261 1_565 S
C17 O26 1.247 . S
C17 O27 1.272 . S
O18 Co14 2.004 . S
O18 C23 1.259 . S
Co19 O20 2.061 . S
Co19 O25 2.052 . S
Co19 O27 2.135 . S
O20 Co19 2.061 . S
O20 C23 1.235 . S
C21 O24 1.238 . S
C21 O25 1.241 . S
C22 O15 1.247 . S
C22 O16 1.261 1_545 S
C23 O18 1.259 . S
C23 O20 1.235 . S
O24 Co14 2.021 . S
O24 C21 1.238 . S
O25 Co19 2.052 . S
O25 C21 1.241 . S
O26 Co14 2.137 . S
O26 C17 1.247 . S
O27 Co14 2.244 . S
O27 C17 1.272 . S
O27 Co19 2.135 . S
Co28 O29 2.216 . S
Co28 O30 2.091 . S
Co28 O32 2.004 . S
Co28 O38 2.021 . S
Co28 O40 2.137 . S
Co28 O41 2.244 . S
O29 Co28 2.216 . S
O29 C36 1.247 . S
O30 Co28 2.091 . S
O30 C36 1.261 . S
C31 O40 1.247 . S
C31 O41 1.272 . S
O32 Co28 2.004 . S
O32 C37 1.259 . S
Co33 O34 2.061 1_455 S
Co33 O39 2.052 . S
Co33 O41 2.135 1_455 S
O34 Co33 2.061 1_655 S
O34 C37 1.235 . S
C35 O38 1.238 . S
C35 O39 1.241 1_655 S
C36 O29 1.247 . S
C36 O30 1.261 . S
C37 O32 1.259 . S
C37 O34 1.235 . S
O38 Co28 2.021 . S
O38 C35 1.238 . S
O39 Co33 2.052 . S
O39 C35 1.241 1_455 S
O40 Co28 2.137 . S
O40 C31 1.247 . S
O41 Co28 2.244 . S
O41 C31 1.272 . S
O41 Co33 2.135 1_655 S
Co42 O43 2.216 . S
Co42 O44 2.091 1_565 S
Co42 O46 2.004 . S
Co42 O52 2.021 . S
Co42 O54 2.137 . S
Co42 O55 2.244 . S
O43 Co42 2.216 . S
O43 C50 1.247 . S
O44 Co42 2.091 1_545 S
O44 C50 1.261 1_545 S
C45 O54 1.247 . S
C45 O55 1.272 . S
O46 Co42 2.004 . S
O46 C51 1.259 . S
Co47 O48 2.061 . S
Co47 O53 2.052 . S
Co47 O55 2.135 . S
O48 Co47 2.061 . S
O48 C51 1.235 . S
C49 O52 1.238 . S
C49 O53 1.241 . S
C50 O43 1.247 . S
C50 O44 1.261 1_565 S
C51 O46 1.259 . S
C51 O48 1.235 . S
O52 Co42 2.021 . S
O52 C49 1.238 . S
O53 Co47 2.052 . S
O53 C49 1.241 . S
O54 Co42 2.137 . S
O54 C45 1.247 . S
O55 Co42 2.244 . S
O55 C45 1.272 . S
O55 Co47 2.135 . S
Co56 O57 2.216 . S
Co56 O58 2.091 . S
Co56 O60 2.004 . S
Co56 O66 2.021 . S
Co56 O68 2.137 . S
Co56 O69 2.244 . S
O57 Co56 2.216 . S
O57 C64 1.247 . S
O58 Co56 2.091 . S
O58 C64 1.261 . S
C59 O68 1.247 . S
C59 O69 1.272 . S
O60 Co56 2.004 . S
O60 C65 1.259 . S
Co61 O62 2.061 1_655 S
Co61 O67 2.052 . S
Co61 O69 2.135 1_655 S
O62 Co61 2.061 1_455 S
O62 C65 1.235 . S
C63 O66 1.238 . S
C63 O67 1.241 1_455 S
C64 O57 1.247 . S
C64 O58 1.261 . S
C65 O60 1.259 . S
C65 O62 1.235 . S
O66 Co56 2.021 . S
O66 C63 1.238 . S
O67 Co61 2.052 . S
O67 C63 1.241 1_655 S
O68 Co56 2.137 . S
O68 C59 1.247 . S
O69 Co56 2.244 . S
O69 C59 1.272 . S
O69 Co61 2.135 1_455 S
Co70 O71 2.216 . S
Co70 O72 2.091 1_545 S
Co70 O74 2.004 . S
Co70 O80 2.021 . S
Co70 O82 2.137 . S
Co70 O83 2.244 . S
O71 Co70 2.216 . S
O71 C78 1.247 . S
O72 Co70 2.091 1_565 S
O72 C78 1.261 1_565 S
C73 O82 1.247 . S
C73 O83 1.272 . S
O74 Co70 2.004 . S
O74 C79 1.259 . S
Co75 O76 2.061 . S
Co75 O81 2.052 . S
Co75 O83 2.135 . S
O76 Co75 2.061 . S
O76 C79 1.235 . S
C77 O80 1.238 . S
C77 O81 1.241 . S
C78 O71 1.247 . S
C78 O72 1.261 1_545 S
C79 O74 1.259 . S
C79 O76 1.235 . S
O80 Co70 2.021 . S
O80 C77 1.238 . S
O81 Co75 2.052 . S
O81 C77 1.241 . S
O82 Co70 2.137 . S
O82 C73 1.247 . S
O83 Co70 2.244 . S
O83 C73 1.272 . S
O83 Co75 2.135 . S
Co84 O85 2.216 . S
Co84 O86 2.091 . S
Co84 O88 2.004 . S
Co84 O94 2.021 . S
Co84 O96 2.137 . S
Co84 O97 2.244 . S
O85 Co84 2.216 . S
O85 C92 1.247 . S
O86 Co84 2.091 . S
O86 C92 1.261 . S
C87 O96 1.247 . S
C87 O97 1.272 . S
O88 Co84 2.004 . S
O88 C93 1.259 . S
Co89 O90 2.061 1_455 S
Co89 O95 2.052 . S
Co89 O97 2.135 1_455 S
O90 Co89 2.061 1_655 S
O90 C93 1.235 . S
C91 O94 1.238 . S
C91 O95 1.241 1_655 S
C92 O85 1.247 . S
C92 O86 1.261 . S
C93 O88 1.259 . S
C93 O90 1.235 . S
O94 Co84 2.021 . S
O94 C91 1.238 . S
O95 Co89 2.052 . S
O95 C91 1.241 1_455 S
O96 Co84 2.137 . S
O96 C87 1.247 . S
O97 Co84 2.244 . S
O97 C87 1.272 . S
O97 Co89 2.135 1_655 S
Co98 O99 2.216 . S
Co98 O100 2.091 1_565 S
Co98 O102 2.004 . S
Co98 O108 2.021 . S
Co98 O110 2.137 . S
Co98 O111 2.244 . S
O99 Co98 2.216 . S
O99 C106 1.247 . S
O100 Co98 2.091 1_545 S
O100 C106 1.261 1_545 S
C101 O110 1.247 . S
C101 O111 1.272 . S
O102 Co98 2.004 . S
O102 C107 1.259 . S
Co103 O104 2.061 . S
Co103 O109 2.052 . S
Co103 O111 2.135 . S
O104 Co103 2.061 . S
O104 C107 1.235 . S
C105 O108 1.238 . S
C105 O109 1.241 . S
C106 O99 1.247 . S
C106 O100 1.261 1_565 S
C107 O102 1.259 . S
C107 O104 1.235 . S
O108 Co98 2.021 . S
O108 C105 1.238 . S
O109 Co103 2.052 . S
O109 C105 1.241 . S
O110 Co98 2.137 . S
O110 C101 1.247 . S
O111 Co98 2.244 . S
O111 C101 1.272 . S
O111 Co103 2.135 . S
C112 C113 1.369 . S
C112 C114 1.419 1_455 S
C112 H116 0.930 . S
C113 C112 1.369 . S
C113 C122 1.429 . S
C114 C112 1.419 1_655 S
C114 C115 1.363 . S
C114 H117 0.929 . S
C115 C114 1.363 . S
C115 C121 1.428 . S
H116 C112 0.930 . S
H117 C114 0.929 . S
S118 N119 1.613 1_655 S
S118 N120 1.610 . S
N119 S118 1.613 1_455 S
N119 C122 1.350 . S
N120 S118 1.610 . S
N120 C121 1.351 . S
C121 C115 1.428 . S
C121 N120 1.351 . S
C121 C122 1.434 1_655 S
C122 C113 1.429 . S
C122 N119 1.350 . S
C122 C121 1.434 1_455 S
C123 C124 1.369 1_545 S
C123 C125 1.419 . S
C123 H127 0.930 . S
C124 C123 1.369 1_565 S
C124 C133 1.429 . S
C125 C123 1.419 . S
C125 C126 1.363 . S
C125 H128 0.929 . S
C126 C125 1.363 . S
C126 C132 1.428 1_545 S
H127 C123 0.930 . S
H128 C125 0.929 . S
S129 N130 1.613 . S
S129 N131 1.610 . S
N130 S129 1.613 . S
N130 C133 1.350 . S
N131 S129 1.610 . S
N131 C132 1.351 . S
C132 C126 1.428 1_565 S
C132 N131 1.351 . S
C132 C133 1.434 . S
C133 C124 1.429 . S
C133 N130 1.350 . S
C133 C132 1.434 . S
C134 C135 1.369 . S
C134 C136 1.419 . S
C134 H138 0.930 . S
C135 C134 1.369 . S
C135 C144 1.429 1_655 S
C136 C134 1.419 . S
C136 C137 1.363 1_655 S
C136 H139 0.929 . S
C137 C136 1.363 1_455 S
C137 C143 1.428 . S
H138 C134 0.930 . S
H139 C136 0.929 . S
S140 N141 1.613 . S
S140 N142 1.610 . S
N141 S140 1.613 . S
N141 C144 1.350 . S
N142 S140 1.610 . S
N142 C143 1.351 . S
C143 C137 1.428 . S
C143 N142 1.351 . S
C143 C144 1.434 . S
C144 C135 1.429 1_455 S
C144 N141 1.350 . S
C144 C143 1.434 . S
C145 C146 1.369 . S
C145 C147 1.419 . S
C145 H149 0.930 . S
C146 C145 1.369 . S
C146 C155 1.429 1_545 S
C147 C145 1.419 . S
C147 C148 1.363 1_545 S
C147 H150 0.929 . S
C148 C147 1.363 1_565 S
C148 C154 1.428 . S
H149 C145 0.930 . S
H150 C147 0.929 . S
S151 N152 1.613 . S
S151 N153 1.610 . S
N152 S151 1.613 . S
N152 C155 1.350 . S
N153 S151 1.610 . S
N153 C154 1.351 . S
C154 C148 1.428 . S
C154 N153 1.351 . S
C154 C155 1.434 . S
C155 C146 1.429 1_565 S
C155 N152 1.350 . S
C155 C154 1.434 . S
C156 C157 1.369 1_554 S
C156 C158 1.419 1_655 S
C156 H160 0.930 . S
C157 C156 1.369 1_556 S
C157 C166 1.429 . S
C158 C156 1.419 1_455 S
C158 C159 1.363 . S
C158 H161 0.929 . S
C159 C158 1.363 . S
C159 C165 1.428 1_554 S
H160 C156 0.930 . S
H161 C158 0.929 . S
S162 N163 1.613 . S
S162 N164 1.610 . S
N163 S162 1.613 . S
N163 C166 1.350 1_455 S
N164 S162 1.610 . S
N164 C165 1.351 . S
C165 C159 1.428 1_556 S
C165 N164 1.351 . S
C165 C166 1.434 1_455 S
C166 C157 1.429 . S
C166 N163 1.350 1_655 S
C166 C165 1.434 1_655 S
C167 C168 1.369 . S
C167 C169 1.419 1_545 S
C167 H171 0.930 . S
C168 C167 1.369 . S
C168 C177 1.429 . S
C169 C167 1.419 1_565 S
C169 C170 1.363 . S
C169 H172 0.929 . S
C170 C169 1.363 . S
C170 C176 1.428 . S
H171 C167 0.930 . S
H172 C169 0.929 . S
S173 N174 1.613 . S
S173 N175 1.610 1_545 S
N174 S173 1.613 . S
N174 C177 1.350 . S
N175 S173 1.610 1_565 S
N175 C176 1.351 . S
C176 C170 1.428 . S
C176 N175 1.351 . S
C176 C177 1.434 1_565 S
C177 C168 1.429 . S
C177 N174 1.350 . S
C177 C176 1.434 1_545 S
C178 C179 1.350 1_556 S
C178 C180 1.436 1_655 S
C178 H182 0.933 . S
C179 C178 1.350 1_554 S
C179 C188 1.429 . S
C180 C178 1.436 1_455 S
C180 C181 1.363 . S
C180 H183 0.929 . S
C181 C180 1.363 . S
C181 C187 1.428 1_556 S
H182 C178 0.933 . S
H183 C180 0.929 . S
S184 N185 1.613 1_455 S
S184 N186 1.610 . S
N185 S184 1.613 1_655 S
N185 C188 1.350 . S
N186 S184 1.610 . S
N186 C187 1.351 . S
C187 C181 1.428 1_554 S
C187 N186 1.351 . S
C187 C188 1.434 1_455 S
C188 C179 1.429 . S
C188 N185 1.350 . S
C188 C187 1.434 1_655 S
C189 C190 1.381 . S
C189 C191 1.407 1_545 S
C189 H193 0.930 1_545 S
C190 C189 1.381 . S
C190 C199 1.429 . S
C191 C189 1.407 1_565 S
C191 C192 1.363 . S
C191 H194 0.929 . S
C192 C191 1.363 . S
C192 C198 1.414 1_565 S
H193 C189 0.930 1_565 S
H194 C191 0.929 . S
S195 N196 1.613 . S
S195 N197 1.610 . S
N196 S195 1.613 . S
N196 C199 1.350 . S
N197 S195 1.610 . S
N197 C198 1.353 . S
C198 C192 1.414 1_545 S
C198 N197 1.353 . S
C198 C199 1.448 . S
C199 C190 1.429 . S
C199 N196 1.350 . S
C199 C198 1.448 . S
C200 C201 1.369 . S
C200 C202 1.419 . S
C200 H204 0.930 . S
C201 C200 1.369 . S
C201 C210 1.429 . S
C202 C200 1.419 . S
C202 C203 1.363 . S
C202 H205 0.929 . S
C203 C202 1.363 . S
C203 C209 1.428 . S
H204 C200 0.930 . S
H205 C202 0.929 . S
S206 N207 1.613 . S
S206 N208 1.610 . S
N207 S206 1.613 . S
N207 C210 1.350 . S
N208 S206 1.610 . S
N208 C209 1.351 . S
C209 C203 1.428 . S
C209 N208 1.351 . S
C209 C210 1.434 . S
C210 C201 1.429 . S
C210 N207 1.350 . S
C210 C209 1.434 . S
C211 C212 1.369 . S
C211 C213 1.419 . S
C211 H215 0.930 . S
C212 C211 1.369 . S
C212 C221 1.429 . S
C213 C211 1.419 . S
C213 C214 1.363 . S
C213 H216 0.929 . S
C214 C213 1.363 . S
C214 C220 1.428 . S
H215 C211 0.930 . S
H216 C213 0.929 . S
S217 N218 1.613 . S
S217 N219 1.610 . S
N218 S217 1.613 . S
N218 C221 1.350 . S
N219 S217 1.610 . S
N219 C220 1.351 . S
C220 C214 1.428 . S
C220 N219 1.351 . S
C220 C221 1.434 . S
C221 C212 1.429 . S
C221 N218 1.350 . S
C221 C220 1.434 . S
C222 C223 1.369 . S
C222 C224 1.419 . S
C222 H226 0.930 . S
C223 C222 1.369 . S
C223 C232 1.429 . S
C224 C222 1.419 . S
C224 C225 1.363 . S
C224 H227 0.929 . S
C225 C224 1.363 . S
C225 C231 1.428 . S
H226 C222 0.930 . S
H227 C224 0.929 . S
S228 N229 1.613 . S
S228 N230 1.610 . S
N229 S228 1.613 . S
N229 C232 1.350 . S
N230 S228 1.610 . S
N230 C231 1.351 . S
C231 C225 1.428 . S
C231 N230 1.351 . S
C231 C232 1.434 . S
C232 C223 1.429 . S
C232 N229 1.350 . S
C232 C231 1.434 . S
C233 C234 1.369 . S
C233 C235 1.419 . S
C233 H237 0.930 . S
C234 C233 1.369 . S
C234 C243 1.429 . S
C235 C233 1.419 . S
C235 C236 1.363 . S
C235 H238 0.929 . S
C236 C235 1.363 . S
C236 C242 1.428 . S
H237 C233 0.930 . S
H238 C235 0.929 . S
S239 N240 1.613 . S
S239 N241 1.610 . S
N240 S239 1.613 . S
N240 C243 1.350 . S
N241 S239 1.610 . S
N241 C242 1.351 . S
C242 C236 1.428 . S
C242 N241 1.351 . S
C242 C243 1.434 . S
C243 C234 1.429 . S
C243 N240 1.350 . S
C243 C242 1.434 . S
C244 C245 1.369 1_655 S
C244 C246 1.419 1_545 S
C244 H248 0.930 . S
C245 C244 1.369 1_455 S
C245 C254 1.429 . S
C246 C244 1.419 1_565 S
C246 C247 1.363 . S
C246 H249 0.929 . S
C247 C246 1.363 . S
C247 C253 1.428 1_655 S
H248 C244 0.930 . S
H249 C246 0.929 . S
S250 N251 1.613 1_565 S
S250 N252 1.610 . S
N251 S250 1.613 1_545 S
N251 C254 1.350 . S
N252 S250 1.610 . S
N252 C253 1.351 . S
C253 C247 1.428 1_455 S
C253 N252 1.351 . S
C253 C254 1.434 1_565 S
C254 C245 1.429 . S
C254 N251 1.350 . S
C254 C253 1.434 1_545 S
C255 C256 1.369 . S
C255 C257 1.419 1_455 S
C255 H259 0.930 . S
C256 C255 1.369 . S
C256 C265 1.429 1_565 S
C257 C255 1.419 1_655 S
C257 C258 1.363 1_565 S
C257 H260 0.929 . S
C258 C257 1.363 1_545 S
C258 C264 1.428 . S
H259 C255 0.930 . S
H260 C257 0.929 . S
S261 N262 1.613 . S
S261 N263 1.610 1_455 S
N262 S261 1.613 . S
N262 C265 1.350 . S
N263 S261 1.610 1_655 S
N263 C264 1.351 . S
C264 C258 1.428 . S
C264 N263 1.351 . S
C264 C265 1.434 1_655 S
C265 C256 1.429 1_545 S
C265 N262 1.350 . S
C265 C264 1.434 1_455 S
C266 C267 1.369 . S
C266 C268 1.419 1_645 S
C266 H270 0.930 . S
C267 C266 1.369 . S
C267 C276 1.429 1_655 S
C268 C266 1.419 1_465 S
C268 C269 1.363 . S
C268 H271 0.929 . S
C269 C268 1.363 . S
C269 C275 1.428 . S
H270 C266 0.930 . S
H271 C268 0.929 . S
S272 N273 1.613 . S
S272 N274 1.610 1_545 S
N273 S272 1.613 . S
N273 C276 1.350 . S
N274 S272 1.610 1_565 S
N274 C275 1.351 . S
C275 C269 1.428 . S
C275 N274 1.351 . S
C275 C276 1.434 1_565 S
C276 C267 1.429 1_455 S
C276 N273 1.350 . S
C276 C275 1.434 1_545 S
C277 C278 1.369 1_545 S
C277 C279 1.419 1_655 S
C277 H281 0.930 . S
C278 C277 1.369 1_565 S
C278 C287 1.429 . S
C279 C277 1.419 1_455 S
C279 C280 1.363 . S
C279 H282 0.929 . S
C280 C279 1.363 . S
C280 C286 1.428 1_545 S
H281 C277 0.930 . S
H282 C279 0.929 . S
S283 N284 1.613 1_455 S
S283 N285 1.610 . S
N284 S283 1.613 1_655 S
N284 C287 1.350 . S
N285 S283 1.610 . S
N285 C286 1.351 . S
C286 C280 1.428 1_565 S
C286 N285 1.351 . S
C286 C287 1.434 1_455 S
C287 C278 1.429 . S
C287 N284 1.350 . S
C287 C286 1.434 1_655 S
C113 C3 1.422 . S
C115 C31 1.421 . S
C124 C50 1.442 . S
C126 C22 1.441 . S
C135 C87 1.421 . S
C137 C59 1.419 . S
C146 C78 1.440 . S
C148 C106 1.440 . S
C157 C93 1.644 . S
C159 C9 1.656 . S
C168 C21 1.836 . S
C170 C105 1.828 . S
C179 C37 1.644 . S
C181 C65 1.655 . S
C190 C77 1.837 . S
C192 C49 1.832 . S
C201 C8 1.590 . S
C203 C73 1.535 . S
C212 C92 1.590 . S
C214 C17 1.544 . S
C223 C101 1.543 . S
C225 C36 1.592 . S
C234 C45 1.535 . S
C236 C64 1.588 . S
C245 C7 1.126 . S
C247 C35 1.126 . S
C256 C51 1.095 . S
C258 C23 1.090 . S
C267 C91 1.123 . S
C269 C63 1.124 . S
C278 C107 1.086 . S
C280 C79 1.094 . S
