# Generated by pormake.
# Topology vby, (6)-cn, num edge types: 1
# Building blocks:
#     Node 0, Type 0, BuildingBlock: MIFKUJ_clean_sbu_0, # of connection points: 6
#     Node 1, Type 0, BuildingBlock: MIFKUJ_clean_sbu_0, # of connection points: 6
#     Node 2, Type 0, BuildingBlock: MIFKUJ_clean_sbu_0, # of connection points: 6
#     Node 3, Type 0, BuildingBlock: MIFKUJ_clean_sbu_0, # of connection points: 6
#     Node 4, Type 0, BuildingBlock: MIFKUJ_clean_sbu_0, # of connection points: 6
#     Node 5, Type 0, BuildingBlock: MIFKUJ_clean_sbu_0, # of connection points: 6
#     Node 6, Type 0, BuildingBlock: MIFKUJ_clean_sbu_0, # of connection points: 6
#     Node 7, Type 0, BuildingBlock: MIFKUJ_clean_sbu_0, # of connection points: 6
#     Edge 8, Type (0, 0), BuildingBlock: AJUNOK_clean_linker_0, # of connection points: 2
#     Edge 9, Type (0, 0), BuildingBlock: AJUNOK_clean_linker_0, # of connection points: 2
#     Edge 10, Type (0, 0), BuildingBlock: AJUNOK_clean_linker_0, # of connection points: 2
#     Edge 11, Type (0, 0), BuildingBlock: AJUNOK_clean_linker_0, # of connection points: 2
#     Edge 12, Type (0, 0), BuildingBlock: AJUNOK_clean_linker_0, # of connection points: 2
#     Edge 13, Type (0, 0), BuildingBlock: AJUNOK_clean_linker_0, # of connection points: 2
#     Edge 14, Type (0, 0), BuildingBlock: AJUNOK_clean_linker_0, # of connection points: 2
#     Edge 15, Type (0, 0), BuildingBlock: AJUNOK_clean_linker_0, # of connection points: 2
#     Edge 16, Type (0, 0), BuildingBlock: AJUNOK_clean_linker_0, # of connection points: 2
#     Edge 17, Type (0, 0), BuildingBlock: AJUNOK_clean_linker_0, # of connection points: 2
#     Edge 18, Type (0, 0), BuildingBlock: AJUNOK_clean_linker_0, # of connection points: 2
#     Edge 19, Type (0, 0), BuildingBlock: AJUNOK_clean_linker_0, # of connection points: 2
#     Edge 20, Type (0, 0), BuildingBlock: AJUNOK_clean_linker_0, # of connection points: 2
#     Edge 21, Type (0, 0), BuildingBlock: AJUNOK_clean_linker_0, # of connection points: 2
#     Edge 22, Type (0, 0), BuildingBlock: AJUNOK_clean_linker_0, # of connection points: 2
#     Edge 23, Type (0, 0), BuildingBlock: AJUNOK_clean_linker_0, # of connection points: 2
#     Edge 24, Type (0, 0), BuildingBlock: AJUNOK_clean_linker_0, # of connection points: 2
#     Edge 25, Type (0, 0), BuildingBlock: AJUNOK_clean_linker_0, # of connection points: 2
#     Edge 26, Type (0, 0), BuildingBlock: AJUNOK_clean_linker_0, # of connection points: 2
#     Edge 27, Type (0, 0), BuildingBlock: AJUNOK_clean_linker_0, # of connection points: 2
#     Edge 28, Type (0, 0), BuildingBlock: AJUNOK_clean_linker_0, # of connection points: 2
#     Edge 29, Type (0, 0), BuildingBlock: AJUNOK_clean_linker_0, # of connection points: 2
#     Edge 30, Type (0, 0), BuildingBlock: AJUNOK_clean_linker_0, # of connection points: 2
#     Edge 31, Type (0, 0), BuildingBlock: AJUNOK_clean_linker_0, # of connection points: 2
# Relax obj value: 0.112
# Max RMSD: 0.164
# Mean RMSD: 0.164
data_MOF--net-vby--node1-MIFKUJ_clean_sbu_0--edge1-AJUNOK_clean_linker_0
_symmetry_space_group_name_H-M    P1
_symmetry_Int_Tables_number       1
_symmetry_cell_setting            triclinic
loop_
_symmetry_equiv_pos_as_xyz
'x, y, z'
_cell_length_a     13.535453
_cell_length_b     56.481524
_cell_length_c     19.650921
_cell_angle_alpha  90.167924
_cell_angle_beta   90.025152
_cell_angle_gamma 90.196644
loop_
_atom_site_label
_atom_site_type_symbol
_atom_site_fract_x
_atom_site_fract_y
_atom_site_fract_z
_atom_type_partial_charge
Zn0 Zn 0.20266 0.3483 0.99752 0.0
Zn1 Zn 0.99783 0.40416 0.97141 0.0
C2 C 0.39922 0.35905 0.95588 0.0
O3 O 0.3717 0.34675 0.90229 0.0
C4 C 0.79235 0.39948 0.98447 0.0
O5 O 0.81462 0.40991 0.04236 0.0
O6 O 0.207 0.3134 0.01635 0.0
O7 O 0.11264 0.36569 0.06799 0.0
O8 O 1.00456 0.39565 0.07028 0.0
C9 C 0.22087 0.30276 0.07237 0.0
O10 O 0.23423 0.31525 0.12817 0.0
O11 O 0.33884 0.36168 0.0048 0.0
C12 C 0.96743 0.45375 0.94492 0.0
O13 O 0.8761 0.44628 0.93783 0.0
O14 O 0.03488 0.43872 0.9573 0.0
O15 O 0.08987 0.38111 0.93523 0.0
O16 O 0.16362 0.35046 0.89772 0.0
O17 O 0.86053 0.39599 0.94124 0.0
C18 C 0.05224 0.37916 0.1 0.0
C19 C 0.10858 0.36786 0.88519 0.0
Zn20 Zn 0.83342 0.65615 0.00707 0.0
Zn21 Zn 0.03075 0.60428 0.97719 0.0
C22 C 0.64009 0.64399 0.95324 0.0
O23 O 0.66188 0.66087 0.90987 0.0
C24 C 0.23816 0.60752 0.98158 0.0
O25 O 0.21835 0.59467 0.03556 0.0
O26 O 0.79911 0.69006 0.02625 0.0
O27 O 0.91188 0.64369 0.08884 0.0
O28 O 0.02307 0.61474 0.07591 0.0
C29 C 0.86385 0.70473 0.04703 0.0
O30 O 0.95379 0.69714 0.05918 0.0
O31 O 0.7038 0.63836 0.99803 0.0
C32 C 0.06543 0.55423 0.94037 0.0
O33 O 0.14542 0.56174 0.90927 0.0
O34 O 0.01105 0.56893 0.97191 0.0
O35 O 0.92115 0.61891 0.92475 0.0
O36 O 0.9061 0.65699 0.91766 0.0
O37 O 0.16672 0.61385 0.9437 0.0
C38 C 0.97703 0.62968 0.11287 0.0
C39 C 0.93682 0.63781 0.89212 0.0
Zn40 Zn 0.20604 0.65769 0.50504 0.0
Zn41 Zn 0.99605 0.60348 0.53549 0.0
C42 C 0.39599 0.64337 0.55328 0.0
O43 O 0.36983 0.65639 0.60568 0.0
C44 C 0.78856 0.60323 0.52782 0.0
O45 O 0.81036 0.59137 0.47224 0.0
O46 O 0.2274 0.69184 0.47859 0.0
O47 O 0.11349 0.64045 0.43479 0.0
O48 O 1.00088 0.61128 0.43577 0.0
C49 C 0.16016 0.70499 0.45418 0.0
O50 O 0.07263 0.6958 0.44195 0.0
O51 O 0.33734 0.64149 0.50298 0.0
C52 C 0.01904 0.5539 0.50919 0.0
O53 O 0.98175 0.56054 0.45057 0.0
O54 O 0.03578 0.56958 0.55433 0.0
O55 O 0.08415 0.6277 0.57137 0.0
O56 O 0.16361 0.65822 0.60483 0.0
O57 O 0.85824 0.60981 0.56684 0.0
C58 C 0.05069 0.62706 0.4042 0.0
C59 C 0.10734 0.6412 0.62002 0.0
Zn60 Zn 0.83173 0.35101 0.49834 0.0
Zn61 Zn 0.02905 0.40285 0.52094 0.0
C62 C 0.63509 0.36376 0.54433 0.0
O63 O 0.65005 0.34633 0.58724 0.0
C64 C 0.23521 0.40091 0.51493 0.0
O65 O 0.21194 0.41427 0.46276 0.0
O66 O 0.79468 0.31637 0.49018 0.0
O67 O 0.90636 0.3605 0.41271 0.0
O68 O 0.01657 0.3897 0.4258 0.0
C69 C 0.8219 0.30261 0.44242 0.0
O70 O 0.87662 0.31114 0.39297 0.0
O71 O 0.70389 0.36938 0.50326 0.0
C72 C 0.05982 0.45248 0.55756 0.0
O73 O 0.10434 0.44367 0.61116 0.0
O74 O 0.02295 0.43841 0.51365 0.0
O75 O 0.92095 0.39209 0.5837 0.0
O76 O 0.90726 0.35355 0.58644 0.0
O77 O 0.16572 0.39344 0.55297 0.0
C78 C 0.97235 0.37438 0.38909 0.0
C79 C 0.93289 0.37276 0.6151 0.0
Zn80 Zn 0.70155 0.85013 0.00369 0.0
Zn81 Zn 0.51053 0.90274 0.97526 0.0
C82 C 0.90092 0.8603 0.95392 0.0
O83 O 0.87823 0.84375 0.90943 0.0
C84 C 0.30274 0.89796 0.98064 0.0
O85 O 0.32117 0.91199 0.03263 0.0
O86 O 0.72387 0.81527 0.01655 0.0
O87 O 0.62654 0.86164 0.08806 0.0
O88 O 0.52472 0.89219 0.07193 0.0
C89 C 0.79309 0.80642 0.05183 0.0
O90 O 0.85578 0.82062 0.08282 0.0
O91 O 0.83638 0.86629 0.99791 0.0
C92 C 0.48678 0.95092 0.92649 0.0
O93 O 0.45405 0.94058 0.87091 0.0
O94 O 0.51417 0.93829 0.97635 0.0
O95 O 0.62236 0.89079 0.91846 0.0
O96 O 0.62965 0.85228 0.91399 0.0
O97 O 0.37502 0.89135 0.94375 0.0
C98 C 0.56568 0.87704 0.11042 0.0
C99 C 0.60779 0.87174 0.88592 0.0
Zn100 Zn 0.30458 0.15403 0.0103 0.0
Zn101 Zn 0.49728 0.10124 0.98396 0.0
C102 C 0.10382 0.14331 0.96716 0.0
O103 O 0.11794 0.16232 0.92997 0.0
C104 C 0.70564 0.1034 0.9871 0.0
O105 O 0.68538 0.088 0.03511 0.0
O106 O 0.27273 0.18859 0.02166 0.0
O107 O 0.38432 0.14338 0.09353 0.0
O108 O 0.48477 0.11222 0.08093 0.0
C109 C 0.26608 0.20008 0.07716 0.0
O110 O 0.27983 0.18901 0.13507 0.0
O111 O 0.17412 0.13608 0.00484 0.0
C112 C 0.53031 0.05329 0.93636 0.0
O113 O 0.58142 0.06395 0.88856 0.0
O114 O 0.48917 0.06561 0.98249 0.0
O115 O 0.38649 0.11409 0.92817 0.0
O116 O 0.37583 0.15239 0.92064 0.0
O117 O 0.63401 0.11205 0.95327 0.0
C118 C 0.44536 0.12832 0.11739 0.0
C119 C 0.40138 0.13283 0.89454 0.0
Zn120 Zn 0.68384 0.1561 0.5128 0.0
Zn121 Zn 0.49035 0.10163 0.53743 0.0
C122 C 0.88424 0.14632 0.55984 0.0
O123 O 0.86144 0.16187 0.60708 0.0
C124 C 0.28527 0.10986 0.52623 0.0
O125 O 0.30409 0.09765 0.47072 0.0
O126 O 0.70371 0.1912 0.50095 0.0
O127 O 0.60589 0.14358 0.43031 0.0
O128 O 0.50625 0.11199 0.44022 0.0
C129 C 0.74232 0.20093 0.44914 0.0
O130 O 0.77187 0.18753 0.39836 0.0
O131 O 0.81943 0.14083 0.51542 0.0
C132 C 0.42686 0.05367 0.57172 0.0
O133 O 0.35297 0.06481 0.60071 0.0
O134 O 0.49317 0.06567 0.54134 0.0
O135 O 0.60174 0.11502 0.59157 0.0
O136 O 0.61622 0.15313 0.60337 0.0
O137 O 0.35611 0.11406 0.56727 0.0
C138 C 0.54675 0.12823 0.40482 0.0
C139 C 0.58722 0.13346 0.62688 0.0
Zn140 Zn 0.32451 0.84991 0.50271 0.0
Zn141 Zn 0.51999 0.90412 0.53252 0.0
C142 C 0.12407 0.86122 0.54825 0.0
O143 O 0.13929 0.84371 0.59085 0.0
C144 C 0.72735 0.90132 0.52607 0.0
O145 O 0.70626 0.91673 0.47832 0.0
O146 O 0.29811 0.81521 0.48459 0.0
O147 O 0.40566 0.86319 0.42219 0.0
O148 O 0.50679 0.89449 0.43475 0.0
C149 C 0.22709 0.80711 0.44897 0.0
O150 O 0.16645 0.82202 0.41953 0.0
O151 O 0.19291 0.86704 0.50738 0.0
C152 C 0.44076 0.95053 0.56815 0.0
O153 O 0.36824 0.93793 0.59399 0.0
O154 O 0.51213 0.93994 0.53914 0.0
O155 O 0.40992 0.88863 0.5823 0.0
O156 O 0.39153 0.85078 0.59447 0.0
O157 O 0.65649 0.89294 0.56129 0.0
C158 C 0.46574 0.87859 0.39809 0.0
C159 C 0.42442 0.87023 0.61741 0.0
C160 C 0.52762 0.38178 0.01957 0.0
C161 C 0.49893 0.36984 0.95981 0.0
C162 C 0.62166 0.39177 0.02606 0.0
C163 C 0.69127 0.39025 0.97313 0.0
H164 H 0.47751 0.38326 0.06233 0.0
H165 H 0.64016 0.40041 0.0737 0.0
S166 S 0.65161 0.36213 0.80417 0.0
N167 N 0.54655 0.35794 0.84514 0.0
N168 N 0.72382 0.37674 0.85752 0.0
C169 C 0.66312 0.37885 0.91231 0.0
C170 C 0.56693 0.36863 0.90564 0.0
C171 C 0.41574 0.60985 0.01614 0.0
C172 C 0.3413 0.61562 0.96895 0.0
C173 C 0.51233 0.61849 0.00927 0.0
C174 C 0.53916 0.63338 0.95498 0.0
H175 H 0.39917 0.59894 0.05992 0.0
H176 H 0.5657 0.61388 0.04809 0.0
S177 S 0.37434 0.65218 0.81379 0.0
N178 N 0.30273 0.63595 0.86327 0.0
N179 N 0.48423 0.65228 0.85035 0.0
C180 C 0.4664 0.63863 0.90588 0.0
C181 C 0.36766 0.62975 0.91287 0.0
C182 C 0.61661 0.60942 0.48647 0.0
C183 C 0.68638 0.61158 0.5392 0.0
C184 C 0.52254 0.61933 0.49226 0.0
C185 C 0.49401 0.63178 0.55112 0.0
H186 H 0.63546 0.60059 0.43923 0.0
H187 H 0.47264 0.6176 0.4494 0.0
S188 S 0.64577 0.64029 0.70707 0.0
N189 N 0.71821 0.62554 0.65447 0.0
N190 N 0.54098 0.64417 0.66561 0.0
C191 C 0.56158 0.63323 0.60559 0.0
C192 C 0.65779 0.62313 0.59957 0.0
C193 C 0.45877 0.36759 0.58271 0.0
C194 C 0.53608 0.37511 0.53975 0.0
C195 C 0.36251 0.37648 0.57571 0.0
C196 C 0.33934 0.39327 0.52541 0.0
H197 H 0.47192 0.35432 0.6213 0.0
H198 H 0.30545 0.36969 0.60909 0.0
S199 S 0.51637 0.4202 0.40312 0.0
N200 N 0.58361 0.40145 0.44751 0.0
N201 N 0.40357 0.4181 0.43434 0.0
C202 C 0.41671 0.40157 0.48366 0.0
C203 C 0.5147 0.39254 0.49084 0.0
C204 C 0.02886 0.88616 0.00952 0.0
C205 C 1.00257 0.87066 0.95625 0.0
C206 C 0.12518 0.89513 0.01581 0.0
C207 C 0.20012 0.88906 0.96919 0.0
H208 H 0.97505 0.89116 0.04767 0.0
H209 H 0.14105 0.90667 0.05858 0.0
S210 S 0.1692 0.85041 0.81741 0.0
N211 N 0.05909 0.85054 0.85359 0.0
N212 N 0.23995 0.86741 0.86567 0.0
C213 C 0.17455 0.87408 0.91451 0.0
C214 C 0.07606 0.8649 0.908 0.0
C215 C 0.92411 0.14205 0.9346 0.0
C216 C 1.0048 0.1316 0.9685 0.0
C217 C 0.82839 0.13243 0.93894 0.0
C218 C 0.80907 0.11196 0.97744 0.0
H219 H 0.9342 0.15815 0.9056 0.0
H220 H 0.76871 0.14154 0.91338 0.0
S221 S 0.99602 0.07628 0.07004 0.0
N222 N 0.05968 0.09852 0.03771 0.0
N223 N 0.88067 0.08048 0.04582 0.0
C224 C 0.88977 0.10078 0.00931 0.0
C225 C 0.98722 0.11057 0.00488 0.0
C226 C 0.10901 0.11414 0.49012 0.0
C227 C 0.18327 0.11869 0.53874 0.0
C228 C 0.0128 0.12276 0.4982 0.0
C229 C 0.98604 0.13642 0.55524 0.0
H230 H 0.1252 0.10399 0.44465 0.0
H231 H 0.9594 0.11893 0.45856 0.0
S232 S 0.15109 0.15235 0.69978 0.0
N233 N 0.22224 0.13701 0.64773 0.0
N234 N 0.04142 0.15329 0.66303 0.0
C235 C 0.05896 0.14074 0.60518 0.0
C236 C 0.15736 0.13188 0.59693 0.0
C237 C 0.85154 0.87421 0.58045 0.0
C238 C 0.83057 0.89261 0.53452 0.0
C239 C 0.94686 0.86457 0.58557 0.0
C240 C 0.02546 0.87289 0.54497 0.0
H241 H 0.79351 0.86683 0.61194 0.0
H242 H 0.9583 0.85016 0.6209 0.0
S243 S 0.01179 0.92201 0.41999 0.0
N244 N 0.89844 0.91966 0.45012 0.0
N245 N 0.07656 0.90158 0.45972 0.0
C246 C 1.00623 0.89178 0.50032 0.0
C247 C 0.90925 0.90161 0.49512 0.0
C248 C 0.11154 0.51144 0.92894 0.0
C249 C 0.03854 0.52877 0.93922 0.0
C250 C 0.08807 0.48721 0.93059 0.0
C251 C 0.99042 0.47942 0.94134 0.0
H252 H 0.18781 0.51659 0.92094 0.0
H253 H 0.14695 0.47451 0.92335 0.0
S254 S 0.77103 0.51779 0.96711 0.0
N255 N 0.86401 0.53648 0.9581 0.0
N256 N 0.81966 0.49114 0.96041 0.0
C257 C 0.91635 0.49662 0.94997 0.0
C258 C 0.94047 0.52123 0.94918 0.0
C259 C 0.01895 0.48723 0.48443 0.0
C260 C 0.05314 0.47849 0.54712 0.0
C261 C 0.0101 0.51155 0.47265 0.0
C262 C 0.0347 0.52831 0.52307 0.0
H263 H 0.99846 0.47519 0.44374 0.0
H264 H 0.98265 0.51716 0.42352 0.0
S265 S 0.12845 0.51484 0.69642 0.0
N266 N 0.11247 0.48863 0.66055 0.0
N267 N 0.09592 0.5344 0.63836 0.0
C268 C 0.06997 0.51989 0.58598 0.0
C269 C 0.07916 0.49501 0.59799 0.0
C270 C 0.50755 0.9903 0.87039 0.0
C271 C 0.49533 0.97702 0.93026 0.0
C272 C 0.52003 0.01495 0.87292 0.0
C273 C 0.51838 0.02726 0.93527 0.0
H274 H 0.50931 0.98157 0.82122 0.0
H275 H 0.52991 0.02444 0.82557 0.0
S276 S 0.48581 1.00081 0.10645 0.0
N277 N 0.48131 0.97803 0.05369 0.0
N278 N 0.50238 0.02438 0.05821 0.0
C279 C 0.5046 0.01424 0.9954 0.0
C280 C 0.49376 0.98911 0.99296 0.0
C281 C 0.49273 0.01515 0.52739 0.0
C282 C 0.43208 0.02742 0.57367 0.0
C283 C 0.49608 0.99033 0.52654 0.0
C284 C 0.43885 0.97677 0.57191 0.0
H285 H 0.53681 0.02477 0.49061 0.0
H286 H 0.54259 0.98171 0.48914 0.0
S287 S 0.27688 1.00027 0.70858 0.0
N288 N 0.31938 0.02407 0.66968 0.0
N289 N 0.32581 0.97751 0.66807 0.0
C290 C 0.38024 0.9888 0.61986 0.0
C291 C 0.37683 0.01408 0.62074 0.0
C292 C 0.25263 0.26453 0.13363 0.0
C293 C 0.22636 0.27646 0.07349 0.0
C294 C 0.26326 0.23981 0.13482 0.0
C295 C 0.24825 0.22602 0.07587 0.0
H296 H 0.26677 0.27435 0.18006 0.0
H297 H 0.28544 0.23154 0.18206 0.0
S298 S 0.17102 0.24832 0.90632 0.0
N299 N 0.18025 0.27227 0.95413 0.0
N300 N 0.20023 0.22605 0.95648 0.0
C301 C 0.21925 0.23765 0.01584 0.0
C302 C 0.2083 0.26277 0.01462 0.0
C303 C 0.89517 0.77075 0.07889 0.0
C304 C 0.80618 0.78035 0.05451 0.0
C305 C 0.91217 0.74628 0.07764 0.0
C306 C 0.84063 0.73036 0.0524 0.0
H307 H 0.95341 0.78224 0.09767 0.0
H308 H 0.98276 0.73987 0.09575 0.0
S309 S 0.59172 0.74629 0.98739 0.0
N310 N 0.64318 0.77186 0.00779 0.0
N311 N 0.67485 0.72597 0.00566 0.0
C312 C 0.74984 0.73966 0.02999 0.0
C313 C 0.73274 0.7646 0.03095 0.0
C314 C 0.26357 0.74108 0.47549 0.0
C315 C 0.17814 0.73086 0.44675 0.0
C316 C 0.2793 0.7656 0.47459 0.0
C317 C 0.21066 0.78107 0.44456 0.0
H318 H 0.31805 0.73014 0.50058 0.0
H319 H 0.34548 0.77245 0.49873 0.0
S320 S 0.97849 0.76323 0.35707 0.0
N321 N 0.02645 0.73807 0.38371 0.0
N322 N 0.05615 0.78416 0.38175 0.0
C323 C 0.12645 0.77106 0.41341 0.0
C324 C 0.11016 0.746 0.41461 0.0
C325 C 0.83006 0.2618 0.39207 0.0
C326 C 0.79629 0.27697 0.44404 0.0
C327 C 0.81095 0.23738 0.39363 0.0
C328 C 0.75742 0.22703 0.44732 0.0
H329 H 0.87275 0.26874 0.34996 0.0
H330 H 0.83976 0.22653 0.35273 0.0
S331 S 0.64788 0.25903 0.59452 0.0
N332 N 0.70314 0.27987 0.54971 0.0
N333 N 0.66746 0.23411 0.55272 0.0
C334 C 0.72138 0.24205 0.49902 0.0
C335 C 0.7407 0.26694 0.49736 0.0
C336 C 0.93775 0.37421 0.19794 0.0
C337 C 0.03517 0.37571 0.1734 0.0
C338 C 0.91826 0.37273 0.26788 0.0
C339 C 0.99544 0.37351 0.31569 0.0
H340 H 0.87609 0.37438 0.16274 0.0
H341 H 0.84211 0.37189 0.28473 0.0
S342 S 0.26344 0.37687 0.27747 0.0
N343 N 0.2097 0.37695 0.20192 0.0
N344 N 0.17302 0.37529 0.33378 0.0
C345 C 0.09325 0.37474 0.29178 0.0
C346 C 0.11318 0.37552 0.22045 0.0
C347 C 0.91983 0.63065 0.23377 0.0
C348 C 0.99814 0.63037 0.1868 0.0
C349 C 0.93779 0.62979 0.30411 0.0
C350 C 0.03472 0.62949 0.33004 0.0
H351 H 0.84405 0.63078 0.21598 0.0
H352 H 0.87528 0.62934 0.33853 0.0
S353 S 0.2654 0.62979 0.22847 0.0
N354 N 0.1762 0.63013 0.17103 0.0
N355 N 0.20992 0.62965 0.30338 0.0
C356 C 0.1137 0.63001 0.28372 0.0
C357 C 0.0954 0.63014 0.21203 0.0
C358 C 0.02027 0.65892 0.7964 0.0
C359 C 0.98416 0.63763 0.82397 0.0
C360 C 0.05974 0.65978 0.73058 0.0
C361 C 0.06324 0.63948 0.68895 0.0
H362 H 0.01794 0.67516 0.82584 0.0
H363 H 0.08666 0.67664 0.71192 0.0
S364 S 0.98155 0.57909 0.73747 0.0
N365 N 0.95716 0.59549 0.80505 0.0
N366 N 0.03046 0.59725 0.68095 0.0
C367 C 0.02829 0.61801 0.71594 0.0
C368 C 0.98924 0.61703 0.78354 0.0
C369 C 0.00859 0.35075 0.71184 0.0
C370 C 0.97586 0.37235 0.6846 0.0
C371 C 0.04992 0.34957 0.77699 0.0
C372 C 0.05919 0.36987 0.8182 0.0
H373 H 1.00344 0.33455 0.68237 0.0
H374 H 0.07489 0.33251 0.79512 0.0
S375 S 0.98441 0.4308 0.77159 0.0
N376 N 0.9548 0.41461 0.70446 0.0
N377 N 0.03279 0.41227 0.82714 0.0
C378 C 0.02587 0.39156 0.79218 0.0
C379 C 0.98436 0.39284 0.72533 0.0
C380 C 0.53111 0.85646 0.22091 0.0
C381 C 0.54129 0.87761 0.18381 0.0
C382 C 0.50387 0.85681 0.28994 0.0
C383 C 0.4887 0.87834 0.32452 0.0
H384 H 0.54261 0.83953 0.19615 0.0
H385 H 0.49662 0.84016 0.31673 0.0
S386 S 0.50732 0.93857 0.25062 0.0
N387 N 0.53354 0.92061 0.18675 0.0
N388 N 0.48556 0.92128 0.31657 0.0
C389 C 0.49952 0.89958 0.2881 0.0
C390 C 0.52496 0.89921 0.21771 0.0
C391 C 0.48156 0.10774 0.22649 0.0
C392 C 0.4709 0.12906 0.19051 0.0
C393 C 0.50609 0.10772 0.29573 0.0
C394 C 0.52362 0.12899 0.33123 0.0
H395 H 0.46941 0.09092 0.20115 0.0
H396 H 0.51224 0.09086 0.32152 0.0
S397 S 0.5086 0.18959 0.25962 0.0
N398 N 0.4809 0.172 0.19499 0.0
N399 N 0.52977 0.17198 0.32498 0.0
C400 C 0.51494 0.15045 0.29558 0.0
C401 C 0.48767 0.15048 0.22529 0.0
C402 C 0.48174 0.15336 0.79656 0.0
C403 C 0.44857 0.13218 0.82642 0.0
C404 C 0.52509 0.15352 0.73193 0.0
C405 C 0.53734 0.13249 0.69418 0.0
H406 H 0.47468 0.17005 0.82337 0.0
H407 H 0.54982 0.17035 0.71175 0.0
S408 S 0.45899 0.07234 0.74816 0.0
N409 N 0.42677 0.0897 0.81204 0.0
N410 N 0.51125 0.08986 0.69142 0.0
C411 C 0.50387 0.11116 0.7232 0.0
C412 C 0.45887 0.11104 0.78902 0.0
C413 C 0.47538 0.85091 0.72621 0.0
C414 C 0.47497 0.87118 0.68457 0.0
C415 C 0.51815 0.8513 0.79112 0.0
C416 C 0.56228 0.87198 0.81731 0.0
H417 H 0.44126 0.83458 0.70901 0.0
H418 H 0.51568 0.83527 0.82121 0.0
S419 S 0.587 0.92947 0.7277 0.0
N420 N 0.52577 0.91237 0.67399 0.0
N421 N 0.60788 0.91293 0.79526 0.0
C422 C 0.56396 0.89229 0.77603 0.0
C423 C 0.51997 0.89192 0.70993 0.0
loop_
_geom_bond_atom_site_label_1
_geom_bond_atom_site_label_2
_geom_bond_distance
_geom_bond_site_symmetry_2
_ccdc_geom_bond_type
Zn0 O6 1.969 . S
Zn0 O7 1.965 1_556 S
Zn0 O11 2.024 1_556 S
Zn0 O16 1.969 . S
Zn1 O8 1.969 . S
Zn1 O14 1.969 . S
Zn1 O15 1.965 1_654 S
Zn1 O17 2.024 1_554 S
C2 O3 1.229 . S
C2 O11 1.058 1_556 S
O3 C2 1.229 . S
C4 O5 1.229 . S
C4 O17 1.058 1_554 S
O5 C4 1.229 . S
O6 Zn0 1.969 . S
O6 C9 1.267 1_556 S
O7 Zn0 1.965 1_554 S
O7 C18 1.260 . S
O8 Zn1 1.969 . S
O8 C18 1.258 1_655 S
C9 O6 1.267 1_554 S
C9 O10 1.228 . S
O10 C9 1.228 . S
O11 Zn0 2.024 1_554 S
O11 C2 1.058 1_554 S
C12 O13 1.228 . S
C12 O14 1.267 1_556 S
O13 C12 1.228 . S
O14 Zn1 1.969 . S
O14 C12 1.267 1_554 S
O15 Zn1 1.965 1_456 S
O15 C19 1.260 . S
O16 Zn0 1.969 . S
O16 C19 1.258 . S
O17 Zn1 2.024 1_556 S
O17 C4 1.058 1_556 S
C18 O7 1.260 . S
C18 O8 1.258 1_455 S
C19 O15 1.260 . S
C19 O16 1.258 . S
Zn20 O26 1.969 . S
Zn20 O27 1.965 1_556 S
Zn20 O31 2.024 1_556 S
Zn20 O36 1.969 . S
Zn21 O28 1.969 . S
Zn21 O34 1.969 . S
Zn21 O35 1.965 1_454 S
Zn21 O37 2.024 1_554 S
C22 O23 1.229 . S
C22 O31 1.058 1_556 S
O23 C22 1.229 . S
C24 O25 1.229 . S
C24 O37 1.058 1_554 S
O25 C24 1.229 . S
O26 Zn20 1.969 . S
O26 C29 1.267 1_556 S
O27 Zn20 1.965 1_554 S
O27 C38 1.260 . S
O28 Zn21 1.969 . S
O28 C38 1.258 1_455 S
C29 O26 1.267 1_554 S
C29 O30 1.228 . S
O30 C29 1.228 . S
O31 Zn20 2.024 1_554 S
O31 C22 1.058 1_554 S
C32 O33 1.228 . S
C32 O34 1.267 1_556 S
O33 C32 1.228 . S
O34 Zn21 1.969 . S
O34 C32 1.267 1_554 S
O35 Zn21 1.965 1_656 S
O35 C39 1.260 . S
O36 Zn20 1.969 . S
O36 C39 1.258 . S
O37 Zn21 2.024 1_556 S
O37 C24 1.058 1_556 S
C38 O27 1.260 . S
C38 O28 1.258 1_655 S
C39 O35 1.260 . S
C39 O36 1.258 . S
Zn40 O46 1.969 . S
Zn40 O47 1.965 . S
Zn40 O51 2.024 . S
Zn40 O56 1.969 . S
Zn41 O48 1.969 . S
Zn41 O54 1.969 . S
Zn41 O55 1.965 1_655 S
Zn41 O57 2.024 . S
C42 O43 1.229 . S
C42 O51 1.058 . S
O43 C42 1.229 . S
C44 O45 1.229 . S
C44 O57 1.058 . S
O45 C44 1.229 . S
O46 Zn40 1.969 . S
O46 C49 1.267 . S
O47 Zn40 1.965 . S
O47 C58 1.260 . S
O48 Zn41 1.969 . S
O48 C58 1.258 1_655 S
C49 O46 1.267 . S
C49 O50 1.228 . S
O50 C49 1.228 . S
O51 Zn40 2.024 . S
O51 C42 1.058 . S
C52 O53 1.228 . S
C52 O54 1.267 . S
O53 C52 1.228 . S
O54 Zn41 1.969 . S
O54 C52 1.267 . S
O55 Zn41 1.965 1_455 S
O55 C59 1.260 . S
O56 Zn40 1.969 . S
O56 C59 1.258 . S
O57 Zn41 2.024 . S
O57 C44 1.058 . S
C58 O47 1.260 . S
C58 O48 1.258 1_455 S
C59 O55 1.260 . S
C59 O56 1.258 . S
Zn60 O66 1.969 . S
Zn60 O67 1.965 . S
Zn60 O71 2.024 . S
Zn60 O76 1.969 . S
Zn61 O68 1.969 . S
Zn61 O74 1.969 . S
Zn61 O75 1.965 1_455 S
Zn61 O77 2.024 . S
C62 O63 1.229 . S
C62 O71 1.058 . S
O63 C62 1.229 . S
C64 O65 1.229 . S
C64 O77 1.058 . S
O65 C64 1.229 . S
O66 Zn60 1.969 . S
O66 C69 1.267 . S
O67 Zn60 1.965 . S
O67 C78 1.260 . S
O68 Zn61 1.969 . S
O68 C78 1.258 1_455 S
C69 O66 1.267 . S
C69 O70 1.228 . S
O70 C69 1.228 . S
O71 Zn60 2.024 . S
O71 C62 1.058 . S
C72 O73 1.228 . S
C72 O74 1.267 . S
O73 C72 1.228 . S
O74 Zn61 1.969 . S
O74 C72 1.267 . S
O75 Zn61 1.965 1_655 S
O75 C79 1.260 . S
O76 Zn60 1.969 . S
O76 C79 1.258 . S
O77 Zn61 2.024 . S
O77 C64 1.058 . S
C78 O67 1.260 . S
C78 O68 1.258 1_655 S
C79 O75 1.260 . S
C79 O76 1.258 . S
Zn80 O86 1.969 . S
Zn80 O87 1.965 1_556 S
Zn80 O91 2.024 1_556 S
Zn80 O96 1.969 . S
Zn81 O88 1.969 . S
Zn81 O94 1.969 . S
Zn81 O95 1.965 1_554 S
Zn81 O97 2.024 1_554 S
C82 O83 1.229 . S
C82 O91 1.058 1_556 S
O83 C82 1.229 . S
C84 O85 1.229 . S
C84 O97 1.058 1_554 S
O85 C84 1.229 . S
O86 Zn80 1.969 . S
O86 C89 1.267 1_556 S
O87 Zn80 1.965 1_554 S
O87 C98 1.260 . S
O88 Zn81 1.969 . S
O88 C98 1.258 . S
C89 O86 1.267 1_554 S
C89 O90 1.228 . S
O90 C89 1.228 . S
O91 Zn80 2.024 1_554 S
O91 C82 1.058 1_554 S
C92 O93 1.228 . S
C92 O94 1.267 1_556 S
O93 C92 1.228 . S
O94 Zn81 1.969 . S
O94 C92 1.267 1_554 S
O95 Zn81 1.965 1_556 S
O95 C99 1.260 . S
O96 Zn80 1.969 . S
O96 C99 1.258 . S
O97 Zn81 2.024 1_556 S
O97 C84 1.058 1_556 S
C98 O87 1.260 . S
C98 O88 1.258 . S
C99 O95 1.260 . S
C99 O96 1.258 . S
Zn100 O106 1.969 . S
Zn100 O107 1.965 1_556 S
Zn100 O111 2.024 1_556 S
Zn100 O116 1.969 . S
Zn101 O108 1.969 . S
Zn101 O114 1.969 . S
Zn101 O115 1.965 1_554 S
Zn101 O117 2.024 1_554 S
C102 O103 1.229 . S
C102 O111 1.058 1_556 S
O103 C102 1.229 . S
C104 O105 1.229 . S
C104 O117 1.058 1_554 S
O105 C104 1.229 . S
O106 Zn100 1.969 . S
O106 C109 1.267 1_556 S
O107 Zn100 1.965 1_554 S
O107 C118 1.260 . S
O108 Zn101 1.969 . S
O108 C118 1.258 . S
C109 O106 1.267 1_554 S
C109 O110 1.228 . S
O110 C109 1.228 . S
O111 Zn100 2.024 1_554 S
O111 C102 1.058 1_554 S
C112 O113 1.228 . S
C112 O114 1.267 1_556 S
O113 C112 1.228 . S
O114 Zn101 1.969 . S
O114 C112 1.267 1_554 S
O115 Zn101 1.965 1_556 S
O115 C119 1.260 . S
O116 Zn100 1.969 . S
O116 C119 1.258 . S
O117 Zn101 2.024 1_556 S
O117 C104 1.058 1_556 S
C118 O107 1.260 . S
C118 O108 1.258 . S
C119 O115 1.260 . S
C119 O116 1.258 . S
Zn120 O126 1.969 . S
Zn120 O127 1.965 . S
Zn120 O131 2.024 . S
Zn120 O136 1.969 . S
Zn121 O128 1.969 . S
Zn121 O134 1.969 . S
Zn121 O135 1.965 . S
Zn121 O137 2.024 . S
C122 O123 1.229 . S
C122 O131 1.058 . S
O123 C122 1.229 . S
C124 O125 1.229 . S
C124 O137 1.058 . S
O125 C124 1.229 . S
O126 Zn120 1.969 . S
O126 C129 1.267 . S
O127 Zn120 1.965 . S
O127 C138 1.260 . S
O128 Zn121 1.969 . S
O128 C138 1.258 . S
C129 O126 1.267 . S
C129 O130 1.228 . S
O130 C129 1.228 . S
O131 Zn120 2.024 . S
O131 C122 1.058 . S
C132 O133 1.228 . S
C132 O134 1.267 . S
O133 C132 1.228 . S
O134 Zn121 1.969 . S
O134 C132 1.267 . S
O135 Zn121 1.965 . S
O135 C139 1.260 . S
O136 Zn120 1.969 . S
O136 C139 1.258 . S
O137 Zn121 2.024 . S
O137 C124 1.058 . S
C138 O127 1.260 . S
C138 O128 1.258 . S
C139 O135 1.260 . S
C139 O136 1.258 . S
Zn140 O146 1.969 . S
Zn140 O147 1.965 . S
Zn140 O151 2.024 . S
Zn140 O156 1.969 . S
Zn141 O148 1.969 . S
Zn141 O154 1.969 . S
Zn141 O155 1.965 . S
Zn141 O157 2.024 . S
C142 O143 1.229 . S
C142 O151 1.058 . S
O143 C142 1.229 . S
C144 O145 1.229 . S
C144 O157 1.058 . S
O145 C144 1.229 . S
O146 Zn140 1.969 . S
O146 C149 1.267 . S
O147 Zn140 1.965 . S
O147 C158 1.260 . S
O148 Zn141 1.969 . S
O148 C158 1.258 . S
C149 O146 1.267 . S
C149 O150 1.228 . S
O150 C149 1.228 . S
O151 Zn140 2.024 . S
O151 C142 1.058 . S
C152 O153 1.228 . S
C152 O154 1.267 . S
O153 C152 1.228 . S
O154 Zn141 1.969 . S
O154 C152 1.267 . S
O155 Zn141 1.965 . S
O155 C159 1.260 . S
O156 Zn140 1.969 . S
O156 C159 1.258 . S
O157 Zn141 2.024 . S
O157 C144 1.058 . S
C158 O147 1.260 . S
C158 O148 1.258 . S
C159 O155 1.260 . S
C159 O156 1.258 . S
C160 C161 1.369 . S
C160 C162 1.419 . S
C160 H164 0.930 . S
C161 C160 1.369 . S
C161 C170 1.429 1_556 S
C162 C160 1.419 . S
C162 C163 1.363 1_556 S
C162 H165 0.929 . S
C163 C162 1.363 1_554 S
C163 C169 1.428 . S
H164 C160 0.930 . S
H165 C162 0.929 . S
S166 N167 1.613 . S
S166 N168 1.610 . S
N167 S166 1.613 . S
N167 C170 1.350 . S
N168 S166 1.610 . S
N168 C169 1.351 . S
C169 C163 1.428 . S
C169 N168 1.351 . S
C169 C170 1.434 . S
C170 C161 1.429 1_554 S
C170 N167 1.350 . S
C170 C169 1.434 . S
C171 C172 1.369 . S
C171 C173 1.419 . S
C171 H175 0.930 . S
C172 C171 1.369 . S
C172 C181 1.429 1_554 S
C173 C171 1.419 . S
C173 C174 1.363 1_554 S
C173 H176 0.929 . S
C174 C173 1.363 1_556 S
C174 C180 1.428 . S
H175 C171 0.930 . S
H176 C173 0.929 . S
S177 N178 1.613 . S
S177 N179 1.610 . S
N178 S177 1.613 . S
N178 C181 1.350 . S
N179 S177 1.610 . S
N179 C180 1.351 . S
C180 C174 1.428 . S
C180 N179 1.351 . S
C180 C181 1.434 . S
C181 C172 1.429 1_556 S
C181 N178 1.350 . S
C181 C180 1.434 . S
C182 C183 1.369 . S
C182 C184 1.419 . S
C182 H186 0.930 . S
C183 C182 1.369 . S
C183 C192 1.429 . S
C184 C182 1.419 . S
C184 C185 1.363 . S
C184 H187 0.929 . S
C185 C184 1.363 . S
C185 C191 1.428 . S
H186 C182 0.930 . S
H187 C184 0.929 . S
S188 N189 1.613 . S
S188 N190 1.610 . S
N189 S188 1.613 . S
N189 C192 1.350 . S
N190 S188 1.610 . S
N190 C191 1.351 . S
C191 C185 1.428 . S
C191 N190 1.351 . S
C191 C192 1.434 . S
C192 C183 1.429 . S
C192 N189 1.350 . S
C192 C191 1.434 . S
C193 C194 1.369 . S
C193 C195 1.419 . S
C193 H197 0.930 . S
C194 C193 1.369 . S
C194 C203 1.429 . S
C195 C193 1.419 . S
C195 C196 1.363 . S
C195 H198 0.929 . S
C196 C195 1.363 . S
C196 C202 1.428 . S
H197 C193 0.930 . S
H198 C195 0.929 . S
S199 N200 1.613 . S
S199 N201 1.610 . S
N200 S199 1.613 . S
N200 C203 1.350 . S
N201 S199 1.610 . S
N201 C202 1.351 . S
C202 C196 1.428 . S
C202 N201 1.351 . S
C202 C203 1.434 . S
C203 C194 1.429 . S
C203 N200 1.350 . S
C203 C202 1.434 . S
C204 C205 1.369 1_554 S
C204 C206 1.419 1_655 S
C204 H208 0.930 . S
C205 C204 1.369 1_556 S
C205 C214 1.429 1_655 S
C206 C204 1.419 1_455 S
C206 C207 1.363 . S
C206 H209 0.929 . S
C207 C206 1.363 . S
C207 C213 1.428 1_554 S
H208 C204 0.930 . S
H209 C206 0.929 . S
S210 N211 1.613 . S
S210 N212 1.610 . S
N211 S210 1.613 . S
N211 C214 1.350 . S
N212 S210 1.610 . S
N212 C213 1.351 . S
C213 C207 1.428 1_556 S
C213 N212 1.351 . S
C213 C214 1.434 . S
C214 C205 1.429 1_455 S
C214 N211 1.350 . S
C214 C213 1.434 . S
C215 C216 1.369 1_654 S
C215 C217 1.419 . S
C215 H219 0.931 . S
C216 C215 1.369 1_456 S
C216 C225 1.429 . S
C217 C215 1.419 . S
C217 C218 1.363 . S
C217 H220 0.929 . S
C218 C217 1.363 . S
C218 C224 1.428 1_554 S
H219 C215 0.931 . S
H220 C217 0.929 . S
S221 N222 1.613 1_655 S
S221 N223 1.610 . S
N222 S221 1.613 1_455 S
N222 C225 1.350 . S
N223 S221 1.610 . S
N223 C224 1.351 . S
C224 C218 1.428 1_556 S
C224 N223 1.351 . S
C224 C225 1.434 1_655 S
C225 C216 1.429 . S
C225 N222 1.350 . S
C225 C224 1.434 1_455 S
C226 C227 1.369 . S
C226 C228 1.419 1_455 S
C226 H230 0.930 . S
C227 C226 1.369 . S
C227 C236 1.429 . S
C228 C226 1.419 1_655 S
C228 C229 1.363 . S
C228 H231 0.929 . S
C229 C228 1.363 . S
C229 C235 1.428 1_655 S
H230 C226 0.930 . S
H231 C228 0.929 . S
S232 N233 1.613 . S
S232 N234 1.610 . S
N233 S232 1.613 . S
N233 C236 1.350 . S
N234 S232 1.610 . S
N234 C235 1.351 . S
C235 C229 1.428 1_455 S
C235 N234 1.351 . S
C235 C236 1.434 . S
C236 C227 1.429 . S
C236 N233 1.350 . S
C236 C235 1.434 . S
C237 C238 1.369 . S
C237 C239 1.419 . S
C237 H241 0.930 . S
C238 C237 1.369 . S
C238 C247 1.429 . S
C239 C237 1.419 . S
C239 C240 1.363 1_655 S
C239 H242 0.929 1_655 S
C240 C239 1.363 1_455 S
C240 C246 1.428 1_455 S
H241 C237 0.930 . S
H242 C239 0.929 1_455 S
S243 N244 1.613 . S
S243 N245 1.610 1_655 S
N244 S243 1.613 . S
N244 C247 1.350 . S
N245 S243 1.610 1_455 S
N245 C246 1.351 1_455 S
C246 C240 1.428 1_655 S
C246 N245 1.351 1_655 S
C246 C247 1.434 . S
C247 C238 1.429 . S
C247 N244 1.350 . S
C247 C246 1.434 . S
C248 C249 1.369 . S
C248 C250 1.419 . S
C248 H252 0.930 . S
C249 C248 1.369 . S
C249 C258 1.429 1_455 S
C250 C248 1.419 . S
C250 C251 1.363 1_455 S
C250 H253 0.929 . S
C251 C250 1.363 1_655 S
C251 C257 1.428 . S
H252 C248 0.930 . S
H253 C250 0.929 . S
S254 N255 1.612 1_554 S
S254 N256 1.610 1_554 S
N255 S254 1.612 1_556 S
N255 C258 1.351 . S
N256 S254 1.610 1_556 S
N256 C257 1.351 . S
C257 C251 1.428 . S
C257 N256 1.351 . S
C257 C258 1.434 . S
C258 C249 1.429 1_655 S
C258 N255 1.351 . S
C258 C257 1.434 . S
C259 C260 1.369 1_655 S
C259 C261 1.419 . S
C259 H263 0.930 . S
C260 C259 1.369 1_455 S
C260 C269 1.429 . S
C261 C259 1.419 . S
C261 C262 1.363 . S
C261 H264 0.929 . S
C262 C261 1.363 . S
C262 C268 1.428 1_655 S
H263 C259 0.930 . S
H264 C261 0.929 . S
S265 N266 1.613 . S
S265 N267 1.610 . S
N266 S265 1.613 . S
N266 C269 1.350 . S
N267 S265 1.610 . S
N267 C268 1.351 . S
C268 C262 1.428 1_455 S
C268 N267 1.351 . S
C268 C269 1.434 . S
C269 C260 1.429 . S
C269 N266 1.350 . S
C269 C268 1.434 . S
C270 C271 1.369 . S
C270 C272 1.419 1_565 S
C270 H274 0.930 . S
C271 C270 1.369 . S
C271 C280 1.429 1_556 S
C272 C270 1.419 1_545 S
C272 C273 1.363 . S
C272 H275 0.929 . S
C273 C272 1.363 . S
C273 C279 1.428 1_556 S
H274 C270 0.930 . S
H275 C272 0.929 . S
S276 N277 1.613 . S
S276 N278 1.610 1_565 S
N277 S276 1.613 . S
N277 C280 1.350 . S
N278 S276 1.610 1_545 S
N278 C279 1.351 . S
C279 C273 1.428 1_554 S
C279 N278 1.351 . S
C279 C280 1.434 1_545 S
C280 C271 1.429 1_554 S
C280 N277 1.350 . S
C280 C279 1.434 1_565 S
C281 C282 1.369 . S
C281 C283 1.419 1_545 S
C281 H285 0.930 . S
C282 C281 1.369 . S
C282 C291 1.429 . S
C283 C281 1.419 1_565 S
C283 C284 1.363 . S
C283 H286 0.929 . S
C284 C283 1.363 . S
C284 C290 1.428 . S
H285 C281 0.930 . S
H286 C283 0.929 . S
S287 N288 1.613 1_565 S
S287 N289 1.610 . S
N288 S287 1.613 1_545 S
N288 C291 1.350 . S
N289 S287 1.610 . S
N289 C290 1.351 . S
C290 C284 1.428 . S
C290 N289 1.351 . S
C290 C291 1.434 1_565 S
C291 C282 1.429 . S
C291 N288 1.350 . S
C291 C290 1.434 1_545 S
C292 C293 1.369 . S
C292 C294 1.419 . S
C292 H296 0.930 . S
C293 C292 1.369 . S
C293 C302 1.429 1_554 S
C294 C292 1.419 . S
C294 C295 1.363 . S
C294 H297 0.929 . S
C295 C294 1.363 . S
C295 C301 1.428 1_554 S
H296 C292 0.930 . S
H297 C294 0.929 . S
S298 N299 1.613 . S
S298 N300 1.610 . S
N299 S298 1.613 . S
N299 C302 1.350 . S
N300 S298 1.610 . S
N300 C301 1.351 . S
C301 C295 1.428 1_556 S
C301 N300 1.351 . S
C301 C302 1.434 . S
C302 C293 1.429 1_556 S
C302 N299 1.350 . S
C302 C301 1.434 . S
C303 C304 1.369 . S
C303 C305 1.419 . S
C303 H307 0.930 . S
C304 C303 1.369 . S
C304 C313 1.429 . S
C305 C303 1.419 . S
C305 C306 1.363 . S
C305 H308 0.929 . S
C306 C305 1.363 . S
C306 C312 1.428 . S
H307 C303 0.930 . S
H308 C305 0.929 . S
S309 N310 1.613 . S
S309 N311 1.610 . S
N310 S309 1.613 . S
N310 C313 1.350 1_556 S
N311 S309 1.610 . S
N311 C312 1.351 1_556 S
C312 C306 1.428 . S
C312 N311 1.351 1_554 S
C312 C313 1.434 . S
C313 C304 1.429 . S
C313 N310 1.350 1_554 S
C313 C312 1.434 . S
C314 C315 1.369 . S
C314 C316 1.419 . S
C314 H318 0.930 . S
C315 C314 1.369 . S
C315 C324 1.429 . S
C316 C314 1.419 . S
C316 C317 1.363 . S
C316 H319 0.929 . S
C317 C316 1.363 . S
C317 C323 1.428 . S
H318 C314 0.930 . S
H319 C316 0.929 . S
S320 N321 1.613 . S
S320 N322 1.610 . S
N321 S320 1.613 . S
N321 C324 1.350 . S
N322 S320 1.610 . S
N322 C323 1.351 . S
C323 C317 1.428 . S
C323 N322 1.351 . S
C323 C324 1.434 . S
C324 C315 1.429 . S
C324 N321 1.350 . S
C324 C323 1.434 . S
C325 C326 1.369 . S
C325 C327 1.419 . S
C325 H329 0.930 . S
C326 C325 1.369 . S
C326 C335 1.429 . S
C327 C325 1.419 . S
C327 C328 1.363 . S
C327 H330 0.929 . S
C328 C327 1.363 . S
C328 C334 1.428 . S
H329 C325 0.930 . S
H330 C327 0.929 . S
S331 N332 1.613 . S
S331 N333 1.610 . S
N332 S331 1.613 . S
N332 C335 1.350 . S
N333 S331 1.610 . S
N333 C334 1.351 . S
C334 C328 1.428 . S
C334 N333 1.351 . S
C334 C335 1.434 . S
C335 C326 1.429 . S
C335 N332 1.350 . S
C335 C334 1.434 . S
C336 C337 1.369 1_655 S
C336 C338 1.419 . S
C336 H340 0.930 . S
C337 C336 1.369 1_455 S
C337 C346 1.429 . S
C338 C336 1.419 . S
C338 C339 1.363 . S
C338 H341 0.929 . S
C339 C338 1.363 . S
C339 C345 1.428 1_655 S
H340 C336 0.930 . S
H341 C338 0.929 . S
S342 N343 1.613 . S
S342 N344 1.610 . S
N343 S342 1.613 . S
N343 C346 1.350 . S
N344 S342 1.610 . S
N344 C345 1.351 . S
C345 C339 1.428 1_455 S
C345 N344 1.351 . S
C345 C346 1.434 . S
C346 C337 1.429 . S
C346 N343 1.350 . S
C346 C345 1.434 . S
C347 C348 1.369 . S
C347 C349 1.419 . S
C347 H351 0.930 . S
C348 C347 1.369 . S
C348 C357 1.429 1_655 S
C349 C347 1.419 . S
C349 C350 1.363 1_655 S
C349 H352 0.929 . S
C350 C349 1.363 1_455 S
C350 C356 1.428 . S
H351 C347 0.930 . S
H352 C349 0.929 . S
S353 N354 1.613 . S
S353 N355 1.610 . S
N354 S353 1.613 . S
N354 C357 1.350 . S
N355 S353 1.610 . S
N355 C356 1.351 . S
C356 C350 1.428 . S
C356 N355 1.351 . S
C356 C357 1.434 . S
C357 C348 1.429 1_455 S
C357 N354 1.350 . S
C357 C356 1.434 . S
C358 C359 1.369 . S
C358 C360 1.419 . S
C358 H362 0.930 . S
C359 C358 1.369 . S
C359 C368 1.429 1_655 S
C360 C358 1.419 . S
C360 C361 1.363 1_655 S
C360 H363 0.929 . S
C361 C360 1.363 1_455 S
C361 C367 1.428 . S
H362 C358 0.930 . S
H363 C360 0.929 . S
S364 N365 1.613 . S
S364 N366 1.610 . S
N365 S364 1.613 . S
N365 C368 1.350 . S
N366 S364 1.610 . S
N366 C367 1.351 . S
C367 C361 1.428 . S
C367 N366 1.351 . S
C367 C368 1.434 . S
C368 C359 1.429 1_455 S
C368 N365 1.350 . S
C368 C367 1.434 . S
C369 C370 1.369 1_455 S
C369 C371 1.419 . S
C369 H373 0.930 . S
C370 C369 1.369 1_655 S
C370 C379 1.429 . S
C371 C369 1.419 . S
C371 C372 1.363 . S
C371 H374 0.929 . S
C372 C371 1.363 . S
C372 C378 1.428 1_455 S
H373 C369 0.930 . S
H374 C371 0.929 . S
S375 N376 1.613 . S
S375 N377 1.610 . S
N376 S375 1.613 . S
N376 C379 1.350 . S
N377 S375 1.610 . S
N377 C378 1.351 . S
C378 C372 1.428 1_655 S
C378 N377 1.351 . S
C378 C379 1.434 . S
C379 C370 1.429 . S
C379 N376 1.350 . S
C379 C378 1.434 . S
C380 C381 1.369 . S
C380 C382 1.419 . S
C380 H384 0.930 . S
C381 C380 1.369 . S
C381 C390 1.429 . S
C382 C380 1.419 . S
C382 C383 1.363 . S
C382 H385 0.929 . S
C383 C382 1.363 . S
C383 C389 1.428 . S
H384 C380 0.930 . S
H385 C382 0.929 . S
S386 N387 1.613 . S
S386 N388 1.610 . S
N387 S386 1.613 . S
N387 C390 1.350 . S
N388 S386 1.610 . S
N388 C389 1.351 . S
C389 C383 1.428 . S
C389 N388 1.351 . S
C389 C390 1.434 . S
C390 C381 1.429 . S
C390 N387 1.350 . S
C390 C389 1.434 . S
C391 C392 1.369 . S
C391 C393 1.419 . S
C391 H395 0.930 . S
C392 C391 1.369 . S
C392 C401 1.429 . S
C393 C391 1.419 . S
C393 C394 1.363 . S
C393 H396 0.929 . S
C394 C393 1.363 . S
C394 C400 1.428 . S
H395 C391 0.930 . S
H396 C393 0.929 . S
S397 N398 1.613 . S
S397 N399 1.610 . S
N398 S397 1.613 . S
N398 C401 1.350 . S
N399 S397 1.610 . S
N399 C400 1.351 . S
C400 C394 1.428 . S
C400 N399 1.351 . S
C400 C401 1.434 . S
C401 C392 1.429 . S
C401 N398 1.350 . S
C401 C400 1.434 . S
C402 C403 1.369 . S
C402 C404 1.419 . S
C402 H406 0.930 . S
C403 C402 1.369 . S
C403 C412 1.429 . S
C404 C402 1.419 . S
C404 C405 1.363 . S
C404 H407 0.929 . S
C405 C404 1.363 . S
C405 C411 1.428 . S
H406 C402 0.930 . S
H407 C404 0.929 . S
S408 N409 1.613 . S
S408 N410 1.610 . S
N409 S408 1.613 . S
N409 C412 1.350 . S
N410 S408 1.610 . S
N410 C411 1.351 . S
C411 C405 1.428 . S
C411 N410 1.351 . S
C411 C412 1.434 . S
C412 C403 1.429 . S
C412 N409 1.350 . S
C412 C411 1.434 . S
C413 C414 1.369 . S
C413 C415 1.419 . S
C413 H417 0.930 . S
C414 C413 1.369 . S
C414 C423 1.429 . S
C415 C413 1.419 . S
C415 C416 1.363 . S
C415 H418 0.929 . S
C416 C415 1.363 . S
C416 C422 1.428 . S
H417 C413 0.930 . S
H418 C415 0.929 . S
S419 N420 1.613 . S
S419 N421 1.610 . S
N420 S419 1.613 . S
N420 C423 1.350 . S
N421 S419 1.610 . S
N421 C422 1.351 . S
C422 C416 1.428 . S
C422 N421 1.351 . S
C422 C423 1.434 . S
C423 C414 1.429 . S
C423 N420 1.350 . S
C423 C422 1.434 . S
C161 C2 1.615 . S
C163 C4 1.619 . S
C172 C24 1.620 . S
C174 C22 1.615 . S
C183 C44 1.618 . S
C185 C42 1.616 . S
C194 C62 1.620 . S
C196 C64 1.616 . S
C205 C82 1.615 . S
C207 C84 1.619 . S
C216 C102 1.618 . S
C218 C104 1.616 . S
C227 C124 1.620 . S
C229 C122 1.615 . S
C238 C144 1.619 . S
C240 C142 1.616 . S
C249 C32 1.928 . S
C251 C12 1.930 . S
C260 C72 1.930 . S
C262 C52 1.928 . S
C271 C92 1.929 . S
C273 C112 1.930 . S
C282 C132 1.929 . S
C284 C152 1.929 . S
C293 C9 1.516 . S
C295 C109 1.511 . S
C304 C89 1.517 . S
C306 C29 1.509 . S
C315 C49 1.516 . S
C317 C149 1.509 . S
C326 C69 1.512 . S
C328 C129 1.514 . S
C337 C18 1.549 . S
C339 C78 1.538 . S
C348 C38 1.538 . S
C350 C58 1.546 . S
C359 C39 1.634 . S
C361 C59 1.636 . S
C370 C79 1.635 . S
C372 C19 1.636 . S
C381 C98 1.546 . S
C383 C158 1.539 . S
C392 C118 1.546 . S
C394 C138 1.541 . S
C403 C119 1.635 . S
C405 C139 1.636 . S
C414 C159 1.634 . S
C416 C99 1.636 . S
