# Generated by pormake.
# Topology smd, (6)-cn, num edge types: 1
# Building blocks:
#     Node 0, Type 0, BuildingBlock: CUKXOW_clean_sbu_0, # of connection points: 6
#     Node 1, Type 0, BuildingBlock: CUKXOW_clean_sbu_0, # of connection points: 6
#     Node 2, Type 0, BuildingBlock: CUKXOW_clean_sbu_0, # of connection points: 6
#     Node 3, Type 0, BuildingBlock: CUKXOW_clean_sbu_0, # of connection points: 6
#     Node 4, Type 0, BuildingBlock: CUKXOW_clean_sbu_0, # of connection points: 6
#     Node 5, Type 0, BuildingBlock: CUKXOW_clean_sbu_0, # of connection points: 6
#     Node 6, Type 0, BuildingBlock: CUKXOW_clean_sbu_0, # of connection points: 6
#     Node 7, Type 0, BuildingBlock: CUKXOW_clean_sbu_0, # of connection points: 6
#     Node 8, Type 0, BuildingBlock: CUKXOW_clean_sbu_0, # of connection points: 6
#     Node 9, Type 0, BuildingBlock: CUKXOW_clean_sbu_0, # of connection points: 6
#     Node 10, Type 0, BuildingBlock: CUKXOW_clean_sbu_0, # of connection points: 6
#     Node 11, Type 0, BuildingBlock: CUKXOW_clean_sbu_0, # of connection points: 6
#     Node 12, Type 0, BuildingBlock: CUKXOW_clean_sbu_0, # of connection points: 6
#     Node 13, Type 0, BuildingBlock: CUKXOW_clean_sbu_0, # of connection points: 6
#     Node 14, Type 0, BuildingBlock: CUKXOW_clean_sbu_0, # of connection points: 6
#     Node 15, Type 0, BuildingBlock: CUKXOW_clean_sbu_0, # of connection points: 6
#     Node 16, Type 0, BuildingBlock: CUKXOW_clean_sbu_0, # of connection points: 6
#     Node 17, Type 0, BuildingBlock: CUKXOW_clean_sbu_0, # of connection points: 6
#     Edge 18, Type (0, 0), BuildingBlock: ZUJKAS_clean_linker_0, # of connection points: 2
#     Edge 19, Type (0, 0), BuildingBlock: ZUJKAS_clean_linker_0, # of connection points: 2
#     Edge 20, Type (0, 0), BuildingBlock: ZUJKAS_clean_linker_0, # of connection points: 2
#     Edge 21, Type (0, 0), BuildingBlock: ZUJKAS_clean_linker_0, # of connection points: 2
#     Edge 22, Type (0, 0), BuildingBlock: ZUJKAS_clean_linker_0, # of connection points: 2
#     Edge 23, Type (0, 0), BuildingBlock: ZUJKAS_clean_linker_0, # of connection points: 2
#     Edge 24, Type (0, 0), BuildingBlock: ZUJKAS_clean_linker_0, # of connection points: 2
#     Edge 25, Type (0, 0), BuildingBlock: ZUJKAS_clean_linker_0, # of connection points: 2
#     Edge 26, Type (0, 0), BuildingBlock: ZUJKAS_clean_linker_0, # of connection points: 2
#     Edge 27, Type (0, 0), BuildingBlock: ZUJKAS_clean_linker_0, # of connection points: 2
#     Edge 28, Type (0, 0), BuildingBlock: ZUJKAS_clean_linker_0, # of connection points: 2
#     Edge 29, Type (0, 0), BuildingBlock: ZUJKAS_clean_linker_0, # of connection points: 2
#     Edge 30, Type (0, 0), BuildingBlock: ZUJKAS_clean_linker_0, # of connection points: 2
#     Edge 31, Type (0, 0), BuildingBlock: ZUJKAS_clean_linker_0, # of connection points: 2
#     Edge 32, Type (0, 0), BuildingBlock: ZUJKAS_clean_linker_0, # of connection points: 2
#     Edge 33, Type (0, 0), BuildingBlock: ZUJKAS_clean_linker_0, # of connection points: 2
#     Edge 34, Type (0, 0), BuildingBlock: ZUJKAS_clean_linker_0, # of connection points: 2
#     Edge 35, Type (0, 0), BuildingBlock: ZUJKAS_clean_linker_0, # of connection points: 2
#     Edge 36, Type (0, 0), BuildingBlock: ZUJKAS_clean_linker_0, # of connection points: 2
#     Edge 37, Type (0, 0), BuildingBlock: ZUJKAS_clean_linker_0, # of connection points: 2
#     Edge 38, Type (0, 0), BuildingBlock: ZUJKAS_clean_linker_0, # of connection points: 2
#     Edge 39, Type (0, 0), BuildingBlock: ZUJKAS_clean_linker_0, # of connection points: 2
#     Edge 40, Type (0, 0), BuildingBlock: ZUJKAS_clean_linker_0, # of connection points: 2
#     Edge 41, Type (0, 0), BuildingBlock: ZUJKAS_clean_linker_0, # of connection points: 2
#     Edge 42, Type (0, 0), BuildingBlock: ZUJKAS_clean_linker_0, # of connection points: 2
#     Edge 43, Type (0, 0), BuildingBlock: ZUJKAS_clean_linker_0, # of connection points: 2
#     Edge 44, Type (0, 0), BuildingBlock: ZUJKAS_clean_linker_0, # of connection points: 2
#     Edge 45, Type (0, 0), BuildingBlock: ZUJKAS_clean_linker_0, # of connection points: 2
#     Edge 46, Type (0, 0), BuildingBlock: ZUJKAS_clean_linker_0, # of connection points: 2
#     Edge 47, Type (0, 0), BuildingBlock: ZUJKAS_clean_linker_0, # of connection points: 2
#     Edge 48, Type (0, 0), BuildingBlock: ZUJKAS_clean_linker_0, # of connection points: 2
#     Edge 49, Type (0, 0), BuildingBlock: ZUJKAS_clean_linker_0, # of connection points: 2
#     Edge 50, Type (0, 0), BuildingBlock: ZUJKAS_clean_linker_0, # of connection points: 2
#     Edge 51, Type (0, 0), BuildingBlock: ZUJKAS_clean_linker_0, # of connection points: 2
#     Edge 52, Type (0, 0), BuildingBlock: ZUJKAS_clean_linker_0, # of connection points: 2
#     Edge 53, Type (0, 0), BuildingBlock: ZUJKAS_clean_linker_0, # of connection points: 2
#     Edge 54, Type (0, 0), BuildingBlock: ZUJKAS_clean_linker_0, # of connection points: 2
#     Edge 55, Type (0, 0), BuildingBlock: ZUJKAS_clean_linker_0, # of connection points: 2
#     Edge 56, Type (0, 0), BuildingBlock: ZUJKAS_clean_linker_0, # of connection points: 2
#     Edge 57, Type (0, 0), BuildingBlock: ZUJKAS_clean_linker_0, # of connection points: 2
#     Edge 58, Type (0, 0), BuildingBlock: ZUJKAS_clean_linker_0, # of connection points: 2
#     Edge 59, Type (0, 0), BuildingBlock: ZUJKAS_clean_linker_0, # of connection points: 2
#     Edge 60, Type (0, 0), BuildingBlock: ZUJKAS_clean_linker_0, # of connection points: 2
#     Edge 61, Type (0, 0), BuildingBlock: ZUJKAS_clean_linker_0, # of connection points: 2
#     Edge 62, Type (0, 0), BuildingBlock: ZUJKAS_clean_linker_0, # of connection points: 2
#     Edge 63, Type (0, 0), BuildingBlock: ZUJKAS_clean_linker_0, # of connection points: 2
#     Edge 64, Type (0, 0), BuildingBlock: ZUJKAS_clean_linker_0, # of connection points: 2
#     Edge 65, Type (0, 0), BuildingBlock: ZUJKAS_clean_linker_0, # of connection points: 2
#     Edge 66, Type (0, 0), BuildingBlock: ZUJKAS_clean_linker_0, # of connection points: 2
#     Edge 67, Type (0, 0), BuildingBlock: ZUJKAS_clean_linker_0, # of connection points: 2
#     Edge 68, Type (0, 0), BuildingBlock: ZUJKAS_clean_linker_0, # of connection points: 2
#     Edge 69, Type (0, 0), BuildingBlock: ZUJKAS_clean_linker_0, # of connection points: 2
#     Edge 70, Type (0, 0), BuildingBlock: ZUJKAS_clean_linker_0, # of connection points: 2
#     Edge 71, Type (0, 0), BuildingBlock: ZUJKAS_clean_linker_0, # of connection points: 2
# Relax obj value: 0.267
# Max RMSD: 0.299
# Mean RMSD: 0.276
data_MOF--net-smd--node1-CUKXOW_clean_sbu_0--edge1-ZUJKAS_clean_linker_0
_symmetry_space_group_name_H-M    P1
_symmetry_Int_Tables_number       1
_symmetry_cell_setting            triclinic
loop_
_symmetry_equiv_pos_as_xyz
'x, y, z'
_cell_length_a     95.151825
_cell_length_b     98.995759
_cell_length_c     18.919039
_cell_angle_alpha  92.60978
_cell_angle_beta   92.62573
_cell_angle_gamma 119.94797
loop_
_atom_site_label
_atom_site_type_symbol
_atom_site_fract_x
_atom_site_fract_y
_atom_site_fract_z
_atom_type_partial_charge
Tb0 Tb 0.00355 0.22363 0.58376 0.0
C1 C 0.04076 0.23348 0.58873 0.0
Tb2 Tb 0.0295 0.25849 0.56939 0.0
O3 O 0.00875 0.21766 0.47939 0.0
O4 O 0.01117 0.23949 0.50134 0.0
O5 O 0.02614 0.22318 0.60893 0.0
C6 C 0.04879 0.28582 0.51723 0.0
O7 O 0.04386 0.24692 0.56309 0.0
C8 C 0.02637 0.2526 0.7053 0.0
C9 C 0.99344 0.2499 0.58459 0.0
O10 O 0.0478 0.27262 0.49677 0.0
O11 O 0.03901 0.28354 0.56667 0.0
O12 O 0.03642 0.26612 0.68345 0.0
O13 O 0.0192 0.24355 0.6506 0.0
O14 O 0.00713 0.25917 0.55568 0.0
O15 O 0.9903 0.23618 0.60743 0.0
C16 C 0.97776 0.19554 0.60061 0.0
O17 O 0.97911 0.20447 0.55029 0.0
O18 O 0.99099 0.20256 0.64326 0.0
C19 C 0.01323 0.23114 0.45525 0.0
Tb20 Tb 0.8052 0.81859 0.54797 0.0
C21 C 0.83123 0.80788 0.57359 0.0
Tb22 Tb 0.794 0.78241 0.57126 0.0
O23 O 0.80505 0.82542 0.66113 0.0
O24 O 0.79968 0.80337 0.62974 0.0
O25 O 0.82761 0.81751 0.54013 0.0
C26 C 0.78413 0.75481 0.62571 0.0
O27 O 0.82007 0.79504 0.6012 0.0
C28 C 0.79676 0.78863 0.43488 0.0
C29 C 0.76748 0.79219 0.53455 0.0
O30 O 0.79585 0.76141 0.58411 0.0
O31 O 0.77824 0.76397 0.63804 0.0
O32 O 0.79195 0.77489 0.45743 0.0
O33 O 0.79972 0.79765 0.48949 0.0
O34 O 0.77072 0.78161 0.55983 0.0
O35 O 0.77886 0.8066 0.52182 0.0
C36 C 0.81271 0.84647 0.50098 0.0
O37 O 0.79963 0.83322 0.48128 0.0
O38 O 0.82185 0.84385 0.54483 0.0
C39 C 0.8012 0.81193 0.68394 0.0
Tb40 Tb 0.2199 0.03042 0.55907 0.0
C41 C 0.19264 0.99435 0.53179 0.0
Tb42 Tb 0.22963 0.00509 0.52351 0.0
O43 O 0.22916 0.04072 0.45929 0.0
O44 O 0.21984 0.017 0.46658 0.0
O45 O 0.19678 0.0082 0.56509 0.0
C46 C 0.2393 0.98753 0.45329 0.0
O47 O 0.20337 0.99151 0.50188 0.0
C48 C 0.22892 0.0095 0.6632 0.0
C49 C 0.25703 0.04023 0.56624 0.0
O50 O 0.22864 0.98271 0.50045 0.0
O51 O 0.24431 0.00217 0.44512 0.0
O52 O 0.23247 0.99958 0.63376 0.0
O53 O 0.22618 0.01602 0.61323 0.0
O54 O 0.25297 0.02682 0.53 0.0
O55 O 0.24605 0.04338 0.59128 0.0
C56 C 0.21012 0.05028 0.60457 0.0
O57 O 0.22107 0.04814 0.63741 0.0
O58 O 0.20433 0.04083 0.54738 0.0
C59 C 0.22696 0.02794 0.42664 0.0
Tb60 Tb 0.99424 0.78447 0.61708 0.0
C61 C 0.03108 0.79454 0.60774 0.0
Tb62 Tb 0.02017 0.81987 0.60534 0.0
O63 O 0.98326 0.78332 0.51166 0.0
O64 O 0.00795 0.79888 0.53587 0.0
O65 O 0.01725 0.78487 0.63481 0.0
C66 C 0.04428 0.84795 0.57494 0.0
O67 O 0.03379 0.80793 0.58314 0.0
C68 C 0.01521 0.8133 0.7405 0.0
C69 C 0.98289 0.80938 0.61702 0.0
O70 O 0.04528 0.83895 0.62005 0.0
O71 O 0.02946 0.841 0.54483 0.0
O72 O 0.02488 0.82705 0.72035 0.0
O73 O 0.00902 0.80451 0.68451 0.0
O74 O 0.99702 0.81981 0.5931 0.0
O75 O 0.98015 0.79576 0.63952 0.0
C76 C 0.97735 0.75431 0.64527 0.0
O77 O 0.97777 0.76591 0.68264 0.0
O78 O 0.9863 0.75976 0.59249 0.0
C79 C 0.99633 0.7946 0.48889 0.0
Tb80 Tb 0.22839 0.25912 0.60161 0.0
C81 C 0.25667 0.25158 0.63363 0.0
Tb82 Tb 0.21973 0.22473 0.62212 0.0
O83 O 0.23177 0.26755 0.71493 0.0
O84 O 0.22547 0.24496 0.68535 0.0
O85 O 0.25212 0.26082 0.60393 0.0
C86 C 0.21024 0.19528 0.65226 0.0
O87 O 0.24601 0.23753 0.6534 0.0
C88 C 0.22652 0.23435 0.49297 0.0
C89 C 0.19165 0.23369 0.60955 0.0
O90 O 0.22084 0.20785 0.6907 0.0
O91 O 0.20466 0.19936 0.59838 0.0
O92 O 0.22953 0.22418 0.52001 0.0
O93 O 0.21897 0.23784 0.5365 0.0
O94 O 0.19616 0.22381 0.63384 0.0
O95 O 0.20211 0.2472 0.5849 0.0
C96 C 0.23734 0.28549 0.53873 0.0
O97 O 0.22771 0.28072 0.5899 0.0
O98 O 0.24172 0.2753 0.52258 0.0
C99 C 0.22838 0.25423 0.73892 0.0
Tb100 Tb 0.79278 0.03763 0.58459 0.0
C101 C 0.76538 0.003 0.53508 0.0
Tb102 Tb 0.80217 0.01179 0.55443 0.0
O103 O 0.79176 0.04361 0.47383 0.0
O104 O 0.79727 0.0268 0.49745 0.0
O105 O 0.76921 0.01622 0.57241 0.0
C106 C 0.81177 0.99136 0.51524 0.0
O107 O 0.77653 0.99962 0.51437 0.0
C108 C 0.79321 0.014 0.68352 0.0
C109 C 0.82968 0.04749 0.58882 0.0
O110 O 0.80138 0.99376 0.47903 0.0
O111 O 0.81719 1.00092 0.57211 0.0
O112 O 0.7911 0.00123 0.65114 0.0
O113 O 0.80118 0.02503 0.6452 0.0
O114 O 0.82576 0.0338 0.55448 0.0
O115 O 0.81868 0.05042 0.61513 0.0
C116 C 0.78306 0.05634 0.64403 0.0
O117 O 0.79478 0.06058 0.60223 0.0
O118 O 0.77708 0.0416 0.65384 0.0
C119 C 0.79535 0.03357 0.44647 0.0
Tb120 Tb 0.68562 0.55598 0.75027 0.0
C121 C 0.64863 0.52861 0.76097 0.0
Tb122 Tb 0.6597 0.56411 0.76631 0.0
O123 O 0.69577 0.56573 0.85894 0.0
O124 O 0.67106 0.55534 0.83398 0.0
O125 O 0.66343 0.53225 0.74192 0.0
C126 C 0.64147 0.57546 0.81549 0.0
O127 O 0.64503 0.5395 0.78019 0.0
C128 C 0.66247 0.55655 0.63445 0.0
C129 C 0.69543 0.5913 0.75167 0.0
O130 O 0.64383 0.57404 0.74925 0.0
O131 O 0.64928 0.57042 0.85371 0.0
O132 O 0.64886 0.55374 0.65953 0.0
O133 O 0.67397 0.56438 0.68164 0.0
O134 O 0.6816 0.58718 0.78072 0.0
O135 O 0.69846 0.58051 0.72395 0.0
C136 C 0.70797 0.54798 0.72006 0.0
O137 O 0.70886 0.55712 0.77313 0.0
O138 O 0.69418 0.543 0.68299 0.0
C139 C 0.68213 0.56286 0.88275 0.0
Tb140 Tb 0.46709 0.15718 0.73487 0.0
C141 C 0.49628 0.15001 0.74976 0.0
Tb142 Tb 0.46002 0.12336 0.75924 0.0
O143 O 0.45805 0.15832 0.83843 0.0
O144 O 0.46884 0.14486 0.82177 0.0
O145 O 0.49107 0.15918 0.72332 0.0
C146 C 0.45323 0.09819 0.82805 0.0
O147 O 0.48636 0.13645 0.77557 0.0
C148 C 0.45976 0.1277 0.62119 0.0
C149 C 0.43069 0.12939 0.72736 0.0
O150 O 0.46185 0.10243 0.77343 0.0
O151 O 0.44841 0.10806 0.84352 0.0
O152 O 0.45728 0.11473 0.64626 0.0
O153 O 0.46197 0.13687 0.67423 0.0
O154 O 0.43578 0.12057 0.75739 0.0
O155 O 0.44082 0.14341 0.70587 0.0
C156 C 0.47491 0.18565 0.69622 0.0
O157 O 0.46434 0.17248 0.66186 0.0
O158 O 0.48134 0.18275 0.75127 0.0
C159 C 0.46145 0.14842 0.8659 0.0
Tb160 Tb 0.88926 0.35044 0.72973 0.0
C161 C 0.8993 0.38572 0.7511 0.0
Tb162 Tb 0.9255 0.37516 0.77317 0.0
O163 O 0.88259 0.35486 0.83405 0.0
O164 O 0.90549 0.35779 0.82377 0.0
O165 O 0.88925 0.37223 0.71367 0.0
C166 C 0.95322 0.39387 0.85263 0.0
O167 O 0.91248 0.38794 0.78932 0.0
C168 C 0.91978 0.37176 0.6328 0.0
C169 C 0.91712 0.34094 0.7254 0.0
O170 O 0.94644 0.39838 0.80548 0.0
O171 O 0.94437 0.37885 0.85514 0.0
O172 O 0.93398 0.38097 0.66598 0.0
O173 O 0.91015 0.36518 0.67972 0.0
O174 O 0.92805 0.35466 0.75806 0.0
O175 O 0.902 0.33747 0.70456 0.0
C176 C 0.86033 0.32581 0.68372 0.0
O177 O 0.87038 0.32606 0.73306 0.0
O178 O 0.86664 0.33954 0.65891 0.0
C179 C 0.89669 0.35954 0.86687 0.0
Tb180 Tb 0.65667 0.12773 0.79212 0.0
C181 C 0.69202 0.13435 0.76657 0.0
Tb182 Tb 0.68491 0.16287 0.76805 0.0
O183 O 0.65004 0.11959 0.6777 0.0
O184 O 0.66833 0.14173 0.70963 0.0
O185 O 0.67798 0.12513 0.79327 0.0
C186 C 0.7089 0.18858 0.71909 0.0
O187 O 0.69612 0.14844 0.74532 0.0
C188 C 0.68014 0.15785 0.90545 0.0
C189 C 0.64841 0.155 0.78145 0.0
O190 O 0.71063 0.17922 0.75972 0.0
O191 O 0.69341 0.18343 0.70516 0.0
O192 O 0.69068 0.17109 0.8828 0.0
O193 O 0.67331 0.14884 0.85041 0.0
O194 O 0.66264 0.16441 0.75503 0.0
O195 O 0.64485 0.14152 0.80835 0.0
C196 C 0.63895 0.10224 0.85989 0.0
O197 O 0.63328 0.10702 0.80889 0.0
O198 O 0.65445 0.11182 0.87244 0.0
C199 C 0.66086 0.13278 0.6549 0.0
Tb200 Tb 0.92162 0.5666 0.79743 0.0
C201 C 0.91052 0.59126 0.76538 0.0
Tb202 Tb 0.88497 0.55497 0.75482 0.0
O203 O 0.93044 0.56986 0.68974 0.0
O204 O 0.90643 0.56188 0.7048 0.0
O205 O 0.92126 0.58847 0.79896 0.0
C206 C 0.85422 0.54359 0.7012 0.0
O207 O 0.89611 0.57987 0.73715 0.0
C208 C 0.89473 0.56265 0.89184 0.0
C209 C 0.89753 0.53043 0.76459 0.0
O210 O 0.86704 0.55512 0.67804 0.0
O211 O 0.85879 0.53818 0.75325 0.0
O212 O 0.8831 0.56392 0.86038 0.0
O213 O 0.89939 0.55616 0.84742 0.0
O214 O 0.88631 0.53341 0.73597 0.0
O215 O 0.91135 0.54149 0.79898 0.0
C216 C 0.94887 0.57819 0.88243 0.0
O217 O 0.94532 0.56877 0.82577 0.0
O218 O 0.93703 0.58091 0.8912 0.0
C219 C 0.91624 0.56528 0.65724 0.0
Tb220 Tb 0.45817 0.37635 0.79086 0.0
C221 C 0.43016 0.34145 0.76702 0.0
Tb222 Tb 0.4679 0.35244 0.76111 0.0
O223 O 0.44707 0.3727 0.68305 0.0
O224 O 0.4671 0.36972 0.70164 0.0
O225 O 0.43451 0.35555 0.79642 0.0
C226 C 0.47301 0.32919 0.71678 0.0
O227 O 0.44112 0.33791 0.74501 0.0
C228 C 0.46873 0.36042 0.89721 0.0
C229 C 0.49546 0.38769 0.77259 0.0
O230 O 0.46303 0.33272 0.68491 0.0
O231 O 0.48012 0.33882 0.77234 0.0
O232 O 0.47844 0.35633 0.87061 0.0
O233 O 0.45831 0.35864 0.84869 0.0
O234 O 0.49073 0.37352 0.74239 0.0
O235 O 0.48488 0.39095 0.80129 0.0
C236 C 0.45327 0.39809 0.85602 0.0
O237 O 0.45062 0.39399 0.78846 0.0
O238 O 0.45886 0.3901 0.88663 0.0
C239 C 0.45633 0.36811 0.65495 0.0
Tb240 Tb 0.34062 0.88968 0.22565 0.0
C241 C 0.3775 0.89938 0.21324 0.0
Tb242 Tb 0.36735 0.92545 0.2031 0.0
O243 O 0.33546 0.88165 0.11081 0.0
O244 O 0.35155 0.90424 0.1439 0.0
O245 O 0.3634 0.88927 0.23833 0.0
C246 C 0.38483 0.95145 0.1385 0.0
O247 O 0.3804 0.91279 0.18736 0.0
C248 C 0.36348 0.92004 0.33987 0.0
C249 C 0.33163 0.9169 0.23267 0.0
O250 O 0.39031 0.94698 0.19136 0.0
O251 O 0.36958 0.94128 0.12215 0.0
O252 O 0.37362 0.93353 0.31741 0.0
O253 O 0.35644 0.91095 0.28506 0.0
O254 O 0.34525 0.92673 0.20441 0.0
O255 O 0.32846 0.90295 0.25241 0.0
C256 C 0.31726 0.86295 0.26882 0.0
O257 O 0.31524 0.87165 0.22502 0.0
O258 O 0.33267 0.86939 0.28974 0.0
C259 C 0.3453 0.89518 0.08865 0.0
Tb260 Tb 0.15369 0.50051 0.17755 0.0
C261 C 0.18055 0.49118 0.2031 0.0
Tb262 Tb 0.14405 0.46502 0.20453 0.0
O263 O 0.15399 0.5079 0.29084 0.0
O264 O 0.14929 0.48601 0.26112 0.0
O265 O 0.17617 0.49987 0.16662 0.0
C266 C 0.13495 0.43867 0.26765 0.0
O267 O 0.17009 0.47859 0.23413 0.0
C268 C 0.14647 0.47065 0.06729 0.0
C269 C 0.11651 0.47308 0.16261 0.0
O270 O 0.14621 0.44442 0.22332 0.0
O271 O 0.129 0.44786 0.2769 0.0
O272 O 0.14254 0.45716 0.09105 0.0
O273 O 0.14874 0.47962 0.12114 0.0
O274 O 0.12029 0.46312 0.1909 0.0
O275 O 0.1275 0.48749 0.14809 0.0
C276 C 0.16081 0.52743 0.12304 0.0
O277 O 0.14666 0.51476 0.11666 0.0
O278 O 0.17108 0.52483 0.15898 0.0
C279 C 0.15075 0.49465 0.31486 0.0
Tb280 Tb 0.56336 0.71115 0.26085 0.0
C281 C 0.53578 0.67673 0.21137 0.0
Tb282 Tb 0.57238 0.68468 0.21812 0.0
O283 O 0.5624 0.71797 0.15087 0.0
O284 O 0.56828 0.7014 0.17128 0.0
O285 O 0.53965 0.68952 0.25317 0.0
C286 C 0.58008 0.66645 0.14176 0.0
O287 O 0.54675 0.67406 0.18266 0.0
C288 C 0.5692 0.68725 0.35728 0.0
C289 C 0.60009 0.71808 0.27917 0.0
O290 O 0.56834 0.66154 0.18379 0.0
O291 O 0.5875 0.68161 0.14307 0.0
O292 O 0.573 0.6775 0.32741 0.0
O293 O 0.56738 0.69441 0.30772 0.0
O294 O 0.59635 0.70519 0.23898 0.0
O295 O 0.58901 0.72155 0.30055 0.0
C296 C 0.55824 0.73248 0.32732 0.0
O297 O 0.57181 0.73504 0.30299 0.0
O298 O 0.54742 0.71771 0.31499 0.0
C299 C 0.56618 0.70824 0.12115 0.0
Tb300 Tb 0.34218 0.4646 0.22274 0.0
C301 C 0.37802 0.47475 0.19433 0.0
Tb302 Tb 0.36665 0.49987 0.20738 0.0
O303 O 0.33482 0.45676 0.10921 0.0
O304 O 0.35117 0.4797 0.14128 0.0
O305 O 0.36519 0.46494 0.22712 0.0
C306 C 0.39131 0.5282 0.18706 0.0
O307 O 0.38009 0.4883 0.17452 0.0
C308 C 0.35809 0.49196 0.3369 0.0
C309 C 0.32939 0.48855 0.20432 0.0
O310 O 0.39124 0.51923 0.23506 0.0
O311 O 0.37742 0.52111 0.14898 0.0
O312 O 0.36189 0.50536 0.31358 0.0
O313 O 0.36036 0.48399 0.28953 0.0
O314 O 0.34379 0.49956 0.18595 0.0
O315 O 0.32667 0.47499 0.22722 0.0
C316 C 0.32394 0.43754 0.2792 0.0
O317 O 0.32513 0.4508 0.30015 0.0
O318 O 0.33299 0.4396 0.22691 0.0
C319 C 0.34411 0.47046 0.08687 0.0
Tb320 Tb 0.56888 0.93434 0.26693 0.0
C321 C 0.59633 0.92639 0.30391 0.0
Tb322 Tb 0.55906 0.89974 0.28896 0.0
O323 O 0.56859 0.94204 0.37851 0.0
O324 O 0.56349 0.91976 0.35041 0.0
O325 O 0.59256 0.93594 0.27169 0.0
C326 C 0.55561 0.87254 0.32486 0.0
O327 O 0.58511 0.91249 0.32255 0.0
C328 C 0.55782 0.9067 0.15614 0.0
C329 C 0.53161 0.90838 0.27215 0.0
O330 O 0.56373 0.88042 0.27359 0.0
O331 O 0.54938 0.88002 0.35671 0.0
O332 O 0.54843 0.89313 0.17908 0.0
O333 O 0.56817 0.91533 0.20616 0.0
O334 O 0.53575 0.89857 0.29937 0.0
O335 O 0.54238 0.92195 0.24874 0.0
C336 C 0.57602 0.96015 0.20232 0.0
O337 O 0.56406 0.94621 0.18218 0.0
O338 O 0.5839 0.95953 0.25879 0.0
C339 C 0.56495 0.92871 0.4031 0.0
Tb340 Tb 0.13359 0.70855 0.2998 0.0
C341 C 0.10803 0.67435 0.23605 0.0
Tb342 Tb 0.1455 0.68404 0.25902 0.0
O343 O 0.13254 0.71535 0.19007 0.0
O344 O 0.13996 0.69977 0.21146 0.0
O345 O 0.1105 0.68694 0.27534 0.0
C346 C 0.15316 0.66454 0.19206 0.0
O347 O 0.11999 0.67196 0.21738 0.0
C348 C 0.1417 0.68629 0.39795 0.0
C349 C 0.17099 0.71933 0.30532 0.0
O350 O 0.13872 0.66115 0.20825 0.0
O351 O 0.16342 0.67908 0.21307 0.0
O352 O 0.14638 0.67719 0.36894 0.0
O353 O 0.13931 0.69292 0.34764 0.0
O354 O 0.16792 0.70671 0.26417 0.0
O355 O 0.15947 0.72112 0.3344 0.0
C356 C 0.12279 0.72475 0.37295 0.0
O357 O 0.13455 0.73061 0.33101 0.0
O358 O 0.11724 0.70981 0.374 0.0
C359 C 0.13746 0.70638 0.16125 0.0
H360 H 0.11203 0.42617 0.36248 0.0
H361 H 0.09952 0.39977 0.40277 0.0
H362 H 0.13046 0.38987 0.27688 0.0
H363 H 0.14323 0.41642 0.23737 0.0
H364 H 0.08258 0.37255 0.31524 0.0
H365 H 0.13467 0.37378 0.46721 0.0
H366 H 0.13496 0.39136 0.44316 0.0
H367 H 0.13827 0.37962 0.37826 0.0
C368 C 0.11633 0.41844 0.34427 0.0
C369 C 0.12859 0.4233 0.2969 0.0
C370 C 0.10916 0.40336 0.36719 0.0
C371 C 0.11414 0.39288 0.34329 0.0
C372 C 0.12664 0.39784 0.29706 0.0
H373 H 0.07073 0.29298 0.41616 0.0
H374 H 0.08723 0.31862 0.36868 0.0
C375 C 0.13387 0.41298 0.2743 0.0
C376 C 0.10542 0.37651 0.3633 0.0
H377 H 0.11005 0.34947 0.45195 0.0
C378 C 0.08861 0.36751 0.345 0.0
C379 C 0.11333 0.3699 0.40157 0.0
C380 C 0.13128 0.37917 0.42431 0.0
C381 C 0.07944 0.35218 0.36487 0.0
C382 C 0.08726 0.34572 0.40466 0.0
C383 C 0.10414 0.3545 0.42126 0.0
C384 C 0.07781 0.33034 0.43394 0.0
C385 C 0.06141 0.34302 0.34367 0.0
C386 C 0.0673 0.32858 0.48679 0.0
C387 C 0.058 0.31409 0.51392 0.0
C388 C 0.05903 0.30108 0.48869 0.0
C389 C 0.06971 0.30285 0.43633 0.0
C390 C 0.07912 0.31744 0.40935 0.0
H391 H 0.058 0.34808 0.29938 0.0
H392 H 0.05744 0.33063 0.32745 0.0
H393 H 0.05469 0.34319 0.38979 0.0
H394 H 0.06627 0.33844 0.50694 0.0
H395 H 0.0499 0.31308 0.55441 0.0
H396 H 0.75497 0.80916 0.47481 0.0
H397 H 0.72649 0.80021 0.43766 0.0
H398 H 0.71233 0.75505 0.51319 0.0
H399 H 0.74057 0.76388 0.5515 0.0
H400 H 0.70672 0.77638 0.33936 0.0
H401 H 0.67957 0.76455 0.59761 0.0
H402 H 0.70126 0.77593 0.59079 0.0
H403 H 0.69101 0.75489 0.58313 0.0
C404 C 0.74578 0.79739 0.48452 0.0
C405 C 0.75013 0.78728 0.5164 0.0
C406 C 0.7295 0.79229 0.46311 0.0
C407 C 0.71722 0.77703 0.4736 0.0
C408 C 0.72151 0.76699 0.50608 0.0
H409 H 0.62625 0.71543 0.24457 0.0
H410 H 0.65452 0.73163 0.29079 0.0
C411 C 0.73774 0.77206 0.52753 0.0
C412 C 0.7001 0.77115 0.44626 0.0
H413 H 0.66098 0.75202 0.49372 0.0
C414 C 0.69673 0.77126 0.37331 0.0
C415 C 0.68706 0.7647 0.49061 0.0
C416 C 0.6899 0.76515 0.57 0.0
C417 C 0.68067 0.76438 0.34302 0.0
C418 C 0.66761 0.75693 0.38663 0.0
C419 C 0.67098 0.75755 0.46011 0.0
C420 C 0.65043 0.74761 0.35654 0.0
C421 C 0.67785 0.76503 0.26443 0.0
C422 C 0.63858 0.75099 0.37912 0.0
C423 C 0.62226 0.74163 0.35303 0.0
C424 C 0.61747 0.72862 0.30432 0.0
C425 C 0.62943 0.72536 0.28171 0.0
C426 C 0.64568 0.7347 0.30773 0.0
H427 H 0.68845 0.77513 0.24372 0.0
H428 H 0.67615 0.7542 0.23591 0.0
H429 H 0.66682 0.7659 0.25216 0.0
H430 H 0.64195 0.76083 0.4172 0.0
H431 H 0.61339 0.74446 0.3719 0.0
H432 H 0.26266 0.99717 0.35952 0.0
H433 H 0.27608 0.98322 0.315 0.0
H434 H 0.24529 0.94378 0.43114 0.0
H435 H 0.23171 0.95765 0.47527 0.0
H436 H 0.29306 0.97325 0.40208 0.0
H437 H 0.24318 0.92311 0.23466 0.0
H438 H 0.24225 0.94035 0.26191 0.0
H439 H 0.23839 0.92576 0.32316 0.0
C440 C 0.25858 0.98542 0.37458 0.0
C441 C 0.24615 0.97847 0.42076 0.0
C442 C 0.26626 0.97748 0.34922 0.0
C443 C 0.26159 0.9624 0.36919 0.0
C444 C 0.24888 0.95528 0.41395 0.0
H445 H 0.30436 0.90285 0.30729 0.0
H446 H 0.2868 0.91332 0.33976 0.0
C447 C 0.24119 0.96323 0.43938 0.0
C448 C 0.27091 0.95474 0.34769 0.0
H449 H 0.26777 0.92271 0.25543 0.0
C450 C 0.28754 0.96223 0.36976 0.0
C451 C 0.26364 0.94028 0.30618 0.0
C452 C 0.24591 0.93192 0.27949 0.0
C453 C 0.29711 0.95567 0.35169 0.0
C454 C 0.28993 0.94135 0.30917 0.0
C455 C 0.27324 0.93371 0.28785 0.0
C456 C 0.29975 0.9344 0.28527 0.0
C457 C 0.3148 0.96402 0.37922 0.0
C458 C 0.31254 0.94256 0.24223 0.0
C459 C 0.3226 0.93666 0.22372 0.0
C460 C 0.32002 0.92238 0.24748 0.0
C461 C 0.30675 0.91389 0.28822 0.0
C462 C 0.29669 0.91985 0.30684 0.0
H463 H 0.31729 0.97239 0.42571 0.0
H464 H 0.31861 0.95557 0.39478 0.0
H465 H 0.3224 0.97073 0.33678 0.0
H466 H 0.31491 0.95365 0.22378 0.0
H467 H 0.33256 0.94345 0.19164 0.0
H468 H 0.28197 0.04262 0.49215 0.0
H469 H 0.31111 0.05984 0.5207 0.0
H470 H 0.30148 0.08083 0.70303 0.0
H471 H 0.27209 0.06389 0.67317 0.0
H472 H 0.3269 0.10266 0.63761 0.0
H473 H 0.33599 0.05241 0.67589 0.0
H474 H 0.32705 0.05123 0.58873 0.0
H475 H 0.31604 0.05025 0.66512 0.0
C476 C 0.286 0.05095 0.53819 0.0
C477 C 0.27467 0.05174 0.58087 0.0
C478 C 0.30272 0.06075 0.5547 0.0
C479 C 0.30857 0.07135 0.61524 0.0
C480 C 0.29729 0.07265 0.65638 0.0
H481 H 0.40713 0.10755 0.80179 0.0
H482 H 0.37769 0.09502 0.77855 0.0
C483 C 0.28049 0.06297 0.63924 0.0
C484 C 0.32641 0.08068 0.63624 0.0
H485 H 0.35992 0.07706 0.66976 0.0
C486 C 0.33412 0.09707 0.64511 0.0
C487 C 0.33585 0.07342 0.64744 0.0
C488 C 0.32829 0.05586 0.64457 0.0
C489 C 0.351 0.10638 0.66324 0.0
C490 C 0.36055 0.09913 0.67096 0.0
C491 C 0.35274 0.08272 0.66323 0.0
C492 C 0.37856 0.10811 0.68859 0.0
C493 C 0.35832 0.12385 0.67546 0.0
C494 C 0.38905 0.11989 0.6466 0.0
C495 C 0.40601 0.12732 0.6607 0.0
C496 C 0.41282 0.12284 0.71602 0.0
C497 C 0.40231 0.11122 0.75846 0.0
C498 C 0.38543 0.10402 0.74517 0.0
H499 H 0.34903 0.12697 0.68957 0.0
H500 H 0.36831 0.12886 0.71844 0.0
H501 H 0.36334 0.12935 0.62593 0.0
H502 H 0.38418 0.12302 0.60146 0.0
H503 H 0.41378 0.13611 0.62656 0.0
H504 H 0.8991 0.31099 0.66039 0.0
H505 H 0.90808 0.29197 0.63772 0.0
H506 H 0.9559 0.3253 0.73334 0.0
H507 H 0.94707 0.34417 0.75706 0.0
H508 H 0.93194 0.29344 0.55792 0.0
H509 H 0.94624 0.28707 0.83649 0.0
H510 H 0.93462 0.29631 0.81289 0.0
H511 H 0.95651 0.30716 0.81647 0.0
C512 C 0.9115 0.31425 0.67701 0.0
C513 C 0.92229 0.32915 0.71101 0.0
C514 C 0.91663 0.30334 0.66398 0.0
C515 C 0.9326 0.30703 0.6851 0.0
C516 C 0.9434 0.32195 0.71822 0.0
H517 H 0.99441 0.27524 0.5285 0.0
H518 H 0.97751 0.28671 0.55128 0.0
C519 C 0.93832 0.33282 0.73128 0.0
C520 C 0.93832 0.29566 0.67021 0.0
H521 H 0.95833 0.27879 0.74793 0.0
C522 C 0.9375 0.29007 0.59965 0.0
C523 C 0.94533 0.29094 0.72454 0.0
C524 C 0.94558 0.29555 0.8019 0.0
C525 C 0.94425 0.28066 0.58168 0.0
C526 C 0.95233 0.27691 0.63546 0.0
C527 C 0.95235 0.28178 0.70641 0.0
C528 C 0.96188 0.26906 0.61876 0.0
C529 C 0.94276 0.27491 0.50495 0.0
C530 C 0.95899 0.25534 0.64995 0.0
C531 C 0.96881 0.24869 0.63722 0.0
C532 C 0.98184 0.25575 0.59373 0.0
C533 C 0.9845 0.26938 0.56211 0.0
C534 C 0.97472 0.27594 0.57465 0.0
H535 H 0.9319 0.27404 0.47572 0.0
H536 H 0.95365 0.28336 0.47907 0.0
H537 H 0.9419 0.2633 0.5 0.0
H538 H 0.94925 0.24986 0.68471 0.0
H539 H 0.96646 0.23829 0.66292 0.0
H540 H 0.79335 0.73346 0.58987 0.0
H541 H 0.7798 0.70578 0.61405 0.0
H542 H 0.74551 0.7118 0.73345 0.0
H543 H 0.75884 0.73939 0.70836 0.0
H544 H 0.7734 0.69032 0.73784 0.0
H545 H 0.71581 0.67625 0.58664 0.0
H546 H 0.73446 0.69452 0.58185 0.0
H547 H 0.72226 0.69165 0.65572 0.0
C548 C 0.783 0.7289 0.62178 0.0
C549 C 0.77708 0.73856 0.64682 0.0
C550 C 0.77526 0.71307 0.63553 0.0
C551 C 0.76141 0.70659 0.67434 0.0
C552 C 0.75593 0.71642 0.70195 0.0
H553 H 0.69277 0.61596 0.80488 0.0
H554 H 0.70976 0.64357 0.78644 0.0
C555 C 0.76363 0.73222 0.68805 0.0
C556 C 0.75248 0.68951 0.68453 0.0
H557 H 0.71513 0.65644 0.65508 0.0
C558 C 0.76069 0.68289 0.71938 0.0
C559 C 0.73591 0.67974 0.65991 0.0
C560 C 0.72662 0.68584 0.61832 0.0
C561 C 0.75263 0.66692 0.73238 0.0
C562 C 0.73598 0.65727 0.70912 0.0
C563 C 0.72787 0.66384 0.67326 0.0
C564 C 0.72647 0.64044 0.72345 0.0
C565 C 0.76187 0.66062 0.77275 0.0
C566 C 0.73021 0.62938 0.69448 0.0
C567 C 0.72044 0.61343 0.70494 0.0
C568 C 0.70669 0.60824 0.74431 0.0
C569 C 0.70321 0.61944 0.77414 0.0
C570 C 0.71293 0.63529 0.76363 0.0
H571 H 0.77344 0.67014 0.8 0.0
H572 H 0.75437 0.65283 0.81286 0.0
H573 H 0.76484 0.65364 0.73517 0.0
H574 H 0.74044 0.63301 0.66227 0.0
H575 H 0.72344 0.60515 0.68086 0.0
H576 H 0.95567 0.74023 0.74607 0.0
H577 H 0.94163 0.71246 0.76966 0.0
H578 H 0.96591 0.70312 0.60343 0.0
H579 H 0.97942 0.7306 0.57829 0.0
H580 H 0.93498 0.68098 0.59574 0.0
H581 H 0.96035 0.6901 0.87499 0.0
H582 H 0.94912 0.69991 0.85808 0.0
H583 H 0.96768 0.70565 0.81616 0.0
C584 C 0.95797 0.73222 0.71468 0.0
C585 C 0.96868 0.7376 0.66052 0.0
C586 C 0.95004 0.71635 0.72849 0.0
C587 C 0.95289 0.70564 0.68921 0.0
C588 C 0.96348 0.71107 0.63466 0.0
H589 H 0.94059 0.61713 0.79582 0.0
H590 H 0.9492 0.64426 0.77762 0.0
C591 C 0.97124 0.72683 0.62041 0.0
C592 C 0.94493 0.68877 0.70399 0.0
H593 H 0.94107 0.66418 0.83248 0.0
C594 C 0.93627 0.67732 0.64762 0.0
C595 C 0.94671 0.68391 0.77148 0.0
C596 C 0.95659 0.69551 0.83351 0.0
C597 C 0.92965 0.66126 0.65636 0.0
C598 C 0.93128 0.65639 0.72405 0.0
C599 C 0.93968 0.66784 0.78072 0.0
C600 C 0.9255 0.63965 0.73618 0.0
C601 C 0.92162 0.64976 0.59211 0.0
C602 C 0.90919 0.62784 0.7199 0.0
C603 C 0.90421 0.61212 0.72955 0.0
C604 C 0.91538 0.60791 0.75686 0.0
C605 C 0.93158 0.61984 0.77478 0.0
C606 C 0.93656 0.63545 0.76446 0.0
H607 H 0.92512 0.65558 0.54183 0.0
H608 H 0.92487 0.64044 0.59215 0.0
H609 H 0.90822 0.64419 0.5928 0.0
H610 H 0.90029 0.63076 0.69974 0.0
H611 H 0.89162 0.6033 0.7157 0.0
H612 H 0.28133 0.27817 0.58691 0.0
H613 H 0.31048 0.2894 0.61125 0.0
H614 H 0.30225 0.25068 0.73295 0.0
H615 H 0.27268 0.23929 0.70946 0.0
H616 H 0.32481 0.27942 0.80188 0.0
H617 H 0.34073 0.27636 0.52671 0.0
H618 H 0.32885 0.28576 0.53432 0.0
H619 H 0.32009 0.26549 0.55172 0.0
C620 C 0.28559 0.27188 0.6185 0.0
C621 C 0.27452 0.25773 0.64605 0.0
C622 C 0.30238 0.27832 0.63192 0.0
C623 C 0.30866 0.27079 0.67287 0.0
C624 C 0.29771 0.25665 0.70064 0.0
H625 H 0.41539 0.31137 0.70381 0.0
H626 H 0.38614 0.29242 0.68551 0.0
C627 C 0.2808 0.25013 0.68701 0.0
C628 C 0.32662 0.27827 0.689 0.0
H629 H 0.36258 0.29482 0.61025 0.0
C630 C 0.33306 0.28257 0.76001 0.0
C631 C 0.33748 0.28221 0.63465 0.0
C632 C 0.33144 0.27707 0.55764 0.0
C633 C 0.34997 0.29141 0.77778 0.0
C634 C 0.36078 0.29633 0.72307 0.0
C635 C 0.35436 0.29127 0.65232 0.0
C636 C 0.37863 0.30743 0.73765 0.0
C637 C 0.35606 0.29547 0.85513 0.0
C638 C 0.38424 0.32225 0.77261 0.0
C639 C 0.40091 0.33308 0.78322 0.0
C640 C 0.41248 0.32945 0.75865 0.0
C641 C 0.40687 0.31457 0.72382 0.0
C642 C 0.39013 0.30371 0.71319 0.0
H643 H 0.34722 0.28681 0.88906 0.0
H644 H 0.36794 0.29601 0.86464 0.0
H645 H 0.35765 0.30707 0.87189 0.0
H646 H 0.37568 0.32562 0.79039 0.0
H647 H 0.40468 0.34442 0.80983 0.0
H648 H 0.68828 0.10682 0.80937 0.0
H649 H 0.70575 0.09575 0.79173 0.0
H650 H 0.7386 0.13607 0.68566 0.0
H651 H 0.72115 0.14746 0.70367 0.0
H652 H 0.71372 0.08817 0.66193 0.0
H653 H 0.76927 0.13121 0.82972 0.0
H654 H 0.74981 0.12998 0.83689 0.0
H655 H 0.76178 0.13922 0.76454 0.0
C656 C 0.69925 0.11347 0.78261 0.0
C657 C 0.70325 0.12809 0.75786 0.0
C658 C 0.70925 0.10708 0.77261 0.0
C659 C 0.72356 0.11511 0.73797 0.0
C660 C 0.72775 0.12977 0.71365 0.0
H661 H 0.79287 0.08639 0.61506 0.0
H662 H 0.77899 0.10116 0.6392 0.0
C663 C 0.71771 0.13623 0.72368 0.0
C664 C 0.73352 0.10761 0.72475 0.0
H665 H 0.77059 0.11093 0.76473 0.0
C666 C 0.72616 0.09316 0.68443 0.0
C667 C 0.74977 0.11416 0.75381 0.0
C668 C 0.75815 0.12944 0.79915 0.0
C669 C 0.73456 0.08506 0.6724 0.0
C670 C 0.75069 0.09141 0.70274 0.0
C671 C 0.75819 0.10602 0.74196 0.0
C672 C 0.7599 0.08301 0.69386 0.0
C673 C 0.72613 0.06985 0.62635 0.0
C674 C 0.75411 0.0681 0.71861 0.0
C675 C 0.76201 0.05964 0.70486 0.0
C676 C 0.77593 0.06599 0.66653 0.0
C677 C 0.78216 0.0812 0.6447 0.0
C678 C 0.77424 0.08965 0.6584 0.0
H679 H 0.71572 0.06875 0.59228 0.0
H680 H 0.73471 0.06881 0.59178 0.0
H681 H 0.72132 0.05995 0.66073 0.0
H682 H 0.74326 0.06287 0.74738 0.0
H683 H 0.75697 0.04797 0.72254 0.0
H684 H 0.62281 0.95464 0.28217 0.0
H685 H 0.65135 0.96393 0.31711 0.0
H686 H 0.63823 0.91965 0.40024 0.0
H687 H 0.60951 0.91029 0.36661 0.0
H688 H 0.65873 0.94386 0.49318 0.0
H689 H 0.68347 0.95408 0.22978 0.0
H690 H 0.67224 0.96391 0.24538 0.0
H691 H 0.66192 0.94287 0.24026 0.0
C692 C 0.62595 0.94677 0.30719 0.0
C693 C 0.6138 0.93168 0.3214 0.0
C694 C 0.64234 0.95209 0.3267 0.0
C695 C 0.64701 0.94241 0.36017 0.0
C696 C 0.63494 0.9273 0.37401 0.0
H697 H 0.75173 0.97608 0.4454 0.0
H698 H 0.72289 0.95921 0.40476 0.0
C699 C 0.61851 0.92197 0.35468 0.0
C700 C 0.66435 0.94849 0.3848 0.0
H701 H 0.70291 0.96724 0.33062 0.0
C702 C 0.66837 0.94876 0.45742 0.0
C703 C 0.67695 0.95464 0.33813 0.0
C704 C 0.67342 0.95372 0.25895 0.0
C705 C 0.68464 0.95575 0.48508 0.0
C706 C 0.69727 0.96293 0.43916 0.0
C707 C 0.69325 0.96191 0.36602 0.0
C708 C 0.71465 0.97249 0.46654 0.0
C709 C 0.68813 0.95548 0.56345 0.0
C710 C 0.71961 0.98558 0.51445 0.0
C711 C 0.73599 0.99518 0.53781 0.0
C712 C 0.74789 0.99202 0.51337 0.0
C713 C 0.7429 0.97882 0.46568 0.0
C714 C 0.72643 0.96918 0.44223 0.0
H715 H 0.67782 0.94544 0.5859 0.0
H716 H 0.69932 0.95478 0.57414 0.0
H717 H 0.68991 0.96637 0.59163 0.0
H718 H 0.71083 0.9886 0.53268 0.0
H719 H 0.73932 0.00526 0.57424 0.0
H720 H 0.05928 0.80898 0.53988 0.0
H721 H 0.07683 0.79838 0.50964 0.0
H722 H 0.04752 0.75766 0.62123 0.0
H723 H 0.02984 0.76801 0.65127 0.0
H724 H 0.09495 0.78764 0.59495 0.0
H725 H 0.04528 0.74021 0.41518 0.0
H726 H 0.04461 0.75726 0.44821 0.0
H727 H 0.04 0.7416 0.50412 0.0
C728 C 0.05666 0.79786 0.55881 0.0
C729 C 0.04301 0.78927 0.59734 0.0
C730 C 0.06672 0.79183 0.54145 0.0
C731 C 0.06329 0.77712 0.56213 0.0
C732 C 0.0502 0.76891 0.6037 0.0
H733 H 0.09837 0.71347 0.46156 0.0
H734 H 0.08512 0.727 0.51274 0.0
C735 C 0.04014 0.7749 0.62102 0.0
C736 C 0.07281 0.76994 0.53724 0.0
H737 H 0.06926 0.73891 0.43506 0.0
C738 C 0.08939 0.77701 0.55986 0.0
C739 C 0.06549 0.75611 0.49123 0.0
C740 C 0.04791 0.74839 0.46263 0.0
C741 C 0.09877 0.77038 0.53896 0.0
C742 C 0.09141 0.75647 0.49334 0.0
C743 C 0.07486 0.7495 0.47042 0.0
C744 C 0.10056 0.74891 0.4679 0.0
C745 C 0.11637 0.7781 0.56714 0.0
C746 C 0.11372 0.75677 0.42609 0.0
C747 C 0.12133 0.74907 0.39696 0.0
C748 C 0.1158 0.73335 0.40869 0.0
C749 C 0.10287 0.7256 0.4517 0.0
C750 C 0.09529 0.73331 0.48091 0.0
H751 H 0.11893 0.78603 0.61545 0.0
H752 H 0.11981 0.76924 0.57996 0.0
H753 H 0.12419 0.78518 0.52604 0.0
H754 H 0.11777 0.7687 0.41406 0.0
H755 H 0.13122 0.75528 0.36364 0.0
H756 H 0.32184 0.40991 0.23949 0.0
H757 H 0.30547 0.38466 0.28814 0.0
H758 H 0.28719 0.40562 0.43527 0.0
H759 H 0.30361 0.43106 0.38641 0.0
H760 H 0.30722 0.37821 0.43427 0.0
H761 H 0.24567 0.36635 0.33701 0.0
H762 H 0.26395 0.38043 0.29924 0.0
H763 H 0.25907 0.38506 0.38411 0.0
C764 C 0.31429 0.40914 0.28205 0.0
C765 C 0.31394 0.4224 0.30915 0.0
C766 C 0.30495 0.39472 0.30975 0.0
C767 C 0.295 0.39325 0.36471 0.0
C768 C 0.29462 0.40648 0.3921 0.0
H769 H 0.23226 0.30943 0.57975 0.0
H770 H 0.24578 0.33596 0.53942 0.0
C771 C 0.30404 0.42099 0.36446 0.0
C772 C 0.28551 0.37789 0.39434 0.0
H773 H 0.24692 0.34739 0.40397 0.0
C774 C 0.29403 0.37149 0.42795 0.0
C775 C 0.26831 0.36923 0.38633 0.0
C776 C 0.25863 0.3755 0.34936 0.0
C777 C 0.28584 0.35657 0.45317 0.0
C778 C 0.26866 0.34765 0.44305 0.0
C779 C 0.26009 0.35422 0.4112 0.0
C780 C 0.25952 0.33135 0.46364 0.0
C781 C 0.29567 0.35051 0.49081 0.0
C782 C 0.26238 0.31987 0.43273 0.0
C783 C 0.25473 0.30479 0.45569 0.0
C784 C 0.24398 0.30089 0.50954 0.0
C785 C 0.24054 0.31217 0.53823 0.0
C786 C 0.24824 0.3273 0.51532 0.0
H787 H 0.30787 0.36018 0.51177 0.0
H788 H 0.28928 0.34365 0.5355 0.0
H789 H 0.29749 0.34275 0.45278 0.0
H790 H 0.27077 0.32266 0.39165 0.0
H791 H 0.25751 0.29628 0.43234 0.0
H792 H 0.97334 0.42527 0.84745 0.0
H793 H 1.00053 0.44159 0.90846 0.0
H794 H 0.99607 0.40147 1.00844 0.0
H795 H 0.96883 0.38517 0.94837 0.0
H796 H 0.00952 0.42914 0.10088 0.0
H797 H 0.04031 0.43911 0.84969 0.0
H798 H 0.02481 0.4444 0.85257 0.0
H799 H 0.01933 0.42424 0.85465 0.0
C800 C 0.97814 0.41998 0.88285 0.0
C801 C 0.96908 0.40395 0.89288 0.0
C802 C 0.99368 0.42928 0.91735 0.0
C803 C 1.00041 0.42268 0.96204 0.0
C804 C 0.99112 0.40678 0.97394 0.0
H805 H 0.09024 0.44492 0.18692 0.0
H806 H 0.06196 0.43443 0.1432 0.0
C807 C 0.97559 0.39748 0.93953 0.0
C808 C 0.0173 0.43213 0.9948 0.0
H809 H 0.05699 0.45122 0.95517 0.0
C810 C 0.01991 0.43405 0.0691 0.0
C811 C 0.03082 0.43856 0.95315 0.0
C812 C 0.02877 0.43641 0.8731 0.0
C813 C 0.03571 0.44212 0.10293 0.0
C814 C 0.04923 0.44817 0.06126 0.0
C815 C 0.04661 0.44661 0.98699 0.0
C816 C 0.06618 0.45522 0.09314 0.0
C817 C 0.03777 0.44411 0.18294 0.0
C818 C 0.07804 0.47038 0.07899 0.0
C819 C 0.09433 0.47643 0.10357 0.0
C820 C 0.09908 0.46735 0.14221 0.0
C821 C 0.08707 0.45229 0.1575 0.0
C822 C 0.07082 0.44628 0.13298 0.0
H823 H 0.02685 0.44334 0.20572 0.0
H824 H 0.03948 0.43464 0.20317 0.0
H825 H 0.04858 0.45551 0.20217 0.0
H826 H 0.07473 0.47743 0.04787 0.0
H827 H 0.10323 0.48805 0.09059 0.0
H828 H 0.62714 0.58904 0.7418 0.0
H829 H 0.615 0.60385 0.79131 0.0
H830 H 0.624 0.59362 1.00225 0.0
H831 H 0.63631 0.57901 0.95327 0.0
H832 H 0.58879 0.59548 0.87916 0.0
H833 H 0.64791 0.64175 1.01135 0.0
H834 H 0.6464 0.62747 0.94404 0.0
H835 H 0.64224 0.62233 0.03372 0.0
C836 C 0.62639 0.58986 0.79865 0.0
C837 C 0.63276 0.58303 0.84389 0.0
C838 C 0.61946 0.59829 0.82678 0.0
C839 C 0.61888 0.60003 0.90043 0.0
C840 C 0.62462 0.59264 0.94535 0.0
H841 H 0.56725 0.63497 0.14365 0.0
H842 H 0.57592 0.61866 0.07956 0.0
C843 C 0.63157 0.58426 0.91733 0.0
C844 C 0.61283 0.61002 0.93073 0.0
H845 H 0.62442 0.64267 0.04097 0.0
C846 C 0.59657 0.60584 0.91431 0.0
C847 C 0.62311 0.62366 0.97552 0.0
C848 C 0.64093 0.62919 0.99177 0.0
C849 C 0.59018 0.61478 0.94313 0.0
C850 C 0.6003 0.62806 0.99027 0.0
C851 C 0.61666 0.63241 1.00525 0.0
C852 C 0.59424 0.63763 1.02531 0.0
C853 C 0.57273 0.61003 0.92224 0.0
C854 C 0.60183 0.65372 1.01689 0.0
C855 C 0.59703 0.66306 0.05405 0.0
C856 C 0.58459 0.65645 0.10033 0.0
C857 C 0.57683 0.64032 0.108 0.0
C858 C 0.58169 0.63098 0.07105 0.0
H859 H 0.56817 0.60253 0.87153 0.0
H860 H 0.56497 0.60323 0.9641 0.0
H861 H 0.57136 0.62043 0.91659 0.0
H862 H 0.6116 0.65909 0.98211 0.0
H863 H 0.60318 0.67548 0.04715 0.0
H864 H 0.44088 0.09151 0.95662 0.0
H865 H 0.43214 0.06738 1.01556 0.0
H866 H 0.4462 0.04854 0.83995 0.0
H867 H 0.45561 0.07296 0.78245 0.0
H868 H 0.40862 0.03953 0.97277 0.0
H869 H 0.46519 0.03676 1.00159 0.0
H870 H 0.46509 0.05413 0.97744 0.0
H871 H 0.46018 0.03845 0.91116 0.0
C872 C 0.44231 0.08229 0.9312 0.0
C873 C 0.44891 0.08403 0.86513 0.0
C874 C 0.43732 0.06851 0.96485 0.0
C875 C 0.4387 0.05619 0.93273 0.0
C876 C 0.44543 0.05802 0.86683 0.0
H877 H 0.3763 0.9594 1.01514 0.0
H878 H 0.39017 0.98478 0.96474 0.0
C879 C 0.45068 0.07191 0.8337 0.0
C880 C 0.43188 0.04103 0.96549 0.0
H881 H 0.44035 0.01294 1.01536 0.0
C882 C 0.41563 0.03381 0.98264 0.0
C883 C 0.44106 0.03362 0.97938 0.0
C884 C 0.4589 0.04123 0.96714 0.0
C885 C 0.4082 0.0193 1.0119 0.0
C886 C 0.41709 0.01147 1.02194 0.0
C887 C 0.43346 0.01883 1.00647 0.0
C888 C 0.40956 0.9957 0.04893 0.0
C889 C 0.39099 0.01267 0.03288 0.0
C890 C 0.41635 0.99313 0.11079 0.0
C891 C 0.40862 0.97852 0.13883 0.0
C892 C 0.39394 0.96632 0.10558 0.0
C893 C 0.38751 0.96871 0.04224 0.0
C894 C 0.39536 0.98322 1.01372 0.0
H895 H 0.38791 0.02201 0.04262 0.0
H896 H 0.38241 0.00442 0.98909 0.0
H897 H 0.38909 0.00628 0.08148 0.0
H898 H 0.42738 0.00255 0.1385 0.0
H899 H 0.41382 0.97693 0.18768 0.0
H900 H 0.64955 0.09327 0.97403 0.0
H901 H 0.63514 0.06861 0.02983 0.0
H902 H 0.59314 0.05382 0.88301 0.0
H903 H 0.60757 0.07862 0.82668 0.0
H904 H 0.60332 0.05468 0.09099 0.0
H905 H 0.60577 0.01875 0.86154 0.0
H906 H 0.61898 0.03971 0.87311 0.0
H907 H 0.59792 0.03157 0.84398 0.0
C908 C 0.63721 0.0848 0.95385 0.0
C909 C 0.62968 0.08777 0.89584 0.0
C910 C 0.62899 0.07075 0.98584 0.0
C911 C 0.61317 0.05936 0.96003 0.0
C912 C 0.60543 0.06242 0.90313 0.0
H913 H 0.55994 0.9631 0.0861 0.0
H914 H 0.56703 0.98704 0.02716 0.0
C915 C 0.61364 0.07658 0.87128 0.0
C916 C 0.60508 0.04418 0.99214 0.0
H917 H 0.59452 0.00586 0.9631 0.0
C918 C 0.60124 0.04396 0.06292 0.0
C919 C 0.60232 0.03023 0.95514 0.0
C920 C 0.60651 0.02996 0.87934 0.0
C921 C 0.59496 0.03018 0.09824 0.0
C922 C 0.59288 0.01636 0.06228 0.0
C923 C 0.59618 0.01647 0.99065 0.0
C924 C 0.58821 0.00195 0.09907 0.0
C925 C 0.59063 0.03057 0.17375 0.0
C926 C 0.59788 0.00235 0.15837 0.0
C927 C 0.59382 0.98875 0.19212 0.0
C928 C 0.58013 0.97447 0.1667 0.0
C929 C 0.57053 0.974 0.1069 0.0
C930 C 0.57457 0.98764 0.07325 0.0
H931 H 0.58781 0.04004 0.18506 0.0
H932 H 0.58001 0.01926 0.18506 0.0
H933 H 0.60115 0.03289 0.21054 0.0
H934 H 0.60871 0.01315 0.17804 0.0
H935 H 0.6015 0.9894 0.23777 0.0
H936 H 0.07985 0.67417 0.263 0.0
H937 H 0.05235 0.65606 0.21025 0.0
H938 H 0.07043 0.63062 0.09063 0.0
H939 H 0.09792 0.64846 0.14376 0.0
H940 H 0.0423 0.65118 0.06837 0.0
H941 H 0.03115 0.5955 0.1731 0.0
H942 H 0.0475 0.61433 0.20966 0.0
H943 H 0.0496 0.60534 0.12914 0.0
C944 C 0.07799 0.66462 0.22615 0.0
C945 C 0.09115 0.6628 0.2078 0.0
C946 C 0.06224 0.65427 0.19601 0.0
C947 C 0.05929 0.64186 0.14721 0.0
C948 C 0.07235 0.63989 0.12937 0.0
H949 H 0.97581 0.57566 0.86373 0.0
H950 H 0.00257 0.59068 0.9304 0.0
C951 C 0.0881 0.6502 0.15958 0.0
C952 C 0.04277 0.63164 0.1115 0.0
H953 H 0.01211 0.59363 0.0813 0.0
C954 C 0.03566 0.63861 0.07166 0.0
C955 C 0.03416 0.61522 0.11545 0.0
C956 C 0.04091 0.60714 0.15965 0.0
C957 C 0.02028 0.62961 0.03485 0.0
C958 C 0.01167 0.61322 0.03881 0.0
C959 C 0.01877 0.6062 0.07842 0.0
C960 C 0.99523 0.60324 1.00225 0.0
C961 C 0.0135 0.6377 0.99078 0.0
C962 C 0.98218 0.60504 1.02191 0.0
C963 C 0.96696 0.59651 0.98409 0.0
C964 C 0.96452 0.58598 0.9261 0.0
C965 C 0.9774 0.58373 0.90814 0.0
C966 C 0.99266 0.59228 0.94612 0.0
H967 H 0.0231 0.64963 0.97982 0.0
H968 H 0.00753 0.63081 0.93945 0.0
H969 H 0.00423 0.63881 1.01998 0.0
H970 H 0.98386 0.61325 0.06582 0.0
H971 H 0.9572 0.5984 0.99934 0.0
H972 H 0.37838 0.44836 0.22851 0.0
H973 H 0.39433 0.43772 0.17837 0.0
H974 H 0.419 0.47808 0.05831 0.0
H975 H 0.40319 0.48896 0.10869 0.0
H976 H 0.3928 0.43038 0.03382 0.0
H977 H 0.45638 0.47223 0.13886 0.0
H978 H 0.43898 0.47124 0.17826 0.0
H979 H 0.44574 0.48101 0.09851 0.0
C980 C 0.38741 0.45517 0.19252 0.0
C981 C 0.38944 0.46952 0.17248 0.0
C982 C 0.39651 0.44903 0.16384 0.0
C983 C 0.40791 0.45713 0.11488 0.0
C984 C 0.41047 0.47175 0.0969 0.0
H985 H 0.43941 0.41375 0.79757 0.0
H986 H 0.42943 0.42913 0.8603 0.0
C987 C 0.40136 0.47793 0.12564 0.0
C988 C 0.41586 0.44952 0.07774 0.0
H989 H 0.45269 0.45312 0.04762 0.0
C990 C 0.40589 0.43534 0.037 0.0
C991 C 0.43294 0.45597 0.08226 0.0
C992 C 0.44417 0.47089 0.12729 0.0
C993 C 0.41251 0.42748 1.00018 0.0
C994 C 0.4296 0.43409 1.00333 0.0
C995 C 0.4396 0.44818 0.04474 0.0
C996 C 0.43715 0.42623 0.96511 0.0
C997 C 0.40115 0.41202 0.95904 0.0
C998 C 0.44528 0.41997 1.00319 0.0
C999 C 0.45101 0.41121 0.96748 0.0
C1000 C 0.44877 0.40867 0.89311 0.0
C1001 C 0.44124 0.41549 0.85493 0.0
C1002 C 0.4355 0.42423 0.89066 0.0
H1003 H 0.38848 0.40694 0.97462 0.0
H1004 H 0.40106 0.4138 0.90157 0.0
H1005 H 0.40528 0.40348 0.9672 0.0
H1006 H 0.44669 0.42142 0.06066 0.0
H1007 H 0.45678 0.40608 0.99817 0.0
H1008 H 0.04156 0.2083 0.6436 0.0
H1009 H 0.06516 0.20441 0.6577 0.0
H1010 H 0.09467 0.24758 0.56268 0.0
H1011 H 0.07155 0.25159 0.54863 0.0
H1012 H 0.08647 0.20329 0.55245 0.0
H1013 H 0.11998 0.25304 0.75532 0.0
H1014 H 0.09837 0.24421 0.73287 0.0
H1015 H 0.11269 0.25817 0.67768 0.0
C1016 C 0.05307 0.21694 0.62558 0.0
C1017 C 0.05458 0.23033 0.59552 0.0
C1018 C 0.06655 0.21469 0.63363 0.0
C1019 C 0.0818 0.22584 0.61234 0.0
C1020 C 0.08316 0.23895 0.58079 0.0
H1021 H 0.17867 0.25075 0.55816 0.0
H1022 H 0.15132 0.24638 0.56481 0.0
C1023 C 0.06981 0.24118 0.57262 0.0
C1024 C 0.09651 0.22418 0.62299 0.0
H1025 H 0.13586 0.24412 0.69537 0.0
C1026 C 0.09718 0.21201 0.58486 0.0
C1027 C 0.11049 0.23551 0.66553 0.0
C1028 C 0.11035 0.24839 0.71077 0.0
C1029 C 0.11175 0.21149 0.58465 0.0
C1030 C 0.12596 0.22337 0.62399 0.0
C1031 C 0.12501 0.23504 0.66491 0.0
C1032 C 0.14233 0.22502 0.6176 0.0
C1033 C 0.11214 0.19878 0.53933 0.0
C1034 C 0.14651 0.21437 0.64476 0.0
C1035 C 0.16241 0.21686 0.64127 0.0
C1036 C 0.17439 0.23006 0.6106 0.0
C1037 C 0.16994 0.24047 0.58248 0.0
C1038 C 0.15421 0.238 0.58618 0.0
H1039 H 0.10055 0.19137 0.5062 0.0
H1040 H 0.12226 0.20398 0.50402 0.0
H1041 H 0.11438 0.19119 0.57397 0.0
H1042 H 0.13761 0.20433 0.66998 0.0
H1043 H 0.16536 0.20862 0.66366 0.0
H1044 H 0.83311 0.98521 0.58838 0.0
H1045 H 0.8355 0.96173 0.57487 0.0
H1046 H 0.79836 0.94333 0.40089 0.0
H1047 H 0.7963 0.96701 0.41299 0.0
H1048 H 0.81302 0.93264 0.59331 0.0
H1049 H 0.83061 0.9337 0.31791 0.0
H1050 H 0.83126 0.95037 0.3642 0.0
H1051 H 0.81232 0.9346 0.32308 0.0
C1052 C 0.82571 0.97631 0.54625 0.0
C1053 C 0.8146 0.97803 0.50144 0.0
C1054 C 0.82703 0.96283 0.53872 0.0
C1055 C 0.81727 0.95072 0.48626 0.0
C1056 C 0.80636 0.95259 0.44059 0.0
H1057 H 0.79327 0.85349 0.41766 0.0
H1058 H 0.79517 0.87907 0.41081 0.0
C1059 C 0.80513 0.96613 0.44777 0.0
C1060 C 0.81764 0.93575 0.48317 0.0
H1061 H 0.82175 0.90973 0.37266 0.0
C1062 C 0.81509 0.92776 0.54512 0.0
C1063 C 0.82026 0.92921 0.42032 0.0
C1064 C 0.82393 0.93749 0.35281 0.0
C1065 C 0.81481 0.91341 0.54575 0.0
C1066 C 0.81729 0.90683 0.48289 0.0
C1067 C 0.81984 0.91476 0.42084 0.0
C1068 C 0.81712 0.89165 0.48106 0.0
C1069 C 0.8115 0.9052 0.61348 0.0
C1070 C 0.8291 0.89027 0.52096 0.0
C1071 C 0.8281 0.87569 0.52454 0.0
C1072 C 0.81508 0.86217 0.48837 0.0
C1073 C 0.80347 0.86368 0.446 0.0
C1074 C 0.80453 0.87829 0.44213 0.0
H1075 H 0.80653 0.91008 0.65266 0.0
H1076 H 0.80277 0.89249 0.60243 0.0
H1077 H 0.82302 0.9066 0.6379 0.0
H1078 H 0.83905 0.90042 0.55076 0.0
H1079 H 0.83723 0.87492 0.5577 0.0
H1080 H 0.07283 0.86366 0.65493 0.0
H1081 H 0.09591 0.88946 0.64211 0.0
H1082 H 0.07053 0.89413 0.45843 0.0
H1083 H 0.04688 0.86819 0.4729 0.0
H1084 H 0.11518 0.8991 0.53993 0.0
H1085 H 0.08675 0.93606 0.56479 0.0
H1086 H 0.07655 0.9159 0.58576 0.0
H1087 H 0.07725 0.92065 0.49488 0.0
C1088 C 0.07205 0.87017 0.61194 0.0
C1089 C 0.05799 0.86384 0.56489 0.0
C1090 C 0.08532 0.88499 0.60465 0.0
C1091 C 0.08505 0.89396 0.54976 0.0
C1092 C 0.07099 0.88767 0.50229 0.0
H1093 H 0.17756 0.96984 0.43151 0.0
H1094 H 0.1509 0.9464 0.43178 0.0
C1095 C 0.05752 0.87278 0.51014 0.0
C1096 C 0.09991 0.90942 0.54147 0.0
H1097 H 0.11426 0.9487 0.53577 0.0
C1098 C 0.11491 0.90992 0.53897 0.0
C1099 C 0.09974 0.92366 0.54117 0.0
C1100 C 0.08425 0.92414 0.54747 0.0
C1101 C 0.12961 0.92408 0.53672 0.0
C1102 C 0.12942 0.93828 0.53434 0.0
C1103 C 0.11445 0.93785 0.53689 0.0
C1104 C 0.14472 0.95358 0.52969 0.0
C1105 C 0.14528 0.92366 0.53927 0.0
C1106 C 0.14984 0.966 0.58225 0.0
C1107 C 0.16509 0.97969 0.58147 0.0
C1108 C 0.17554 0.98114 0.52836 0.0
C1109 C 0.16997 0.96903 0.47393 0.0
C1110 C 0.15471 0.95553 0.47417 0.0
H1111 H 0.14383 0.91295 0.56231 0.0
H1112 H 0.14897 0.92363 0.48451 0.0
H1113 H 0.15522 0.93402 0.57112 0.0
H1114 H 0.14232 0.96487 0.62541 0.0
H1115 H 0.169 0.98878 0.62416 0.0
H1116 H 0.18941 0.16869 0.56999 0.0
H1117 H 0.187 0.14292 0.57279 0.0
H1118 H 0.22251 0.15999 0.75285 0.0
H1119 H 0.22478 0.18577 0.75083 0.0
H1120 H 0.21183 0.13707 0.55298 0.0
H1121 H 0.18789 0.11803 0.81424 0.0
H1122 H 0.18725 0.13389 0.77358 0.0
H1123 H 0.20582 0.13704 0.81858 0.0
C1124 C 0.19646 0.16686 0.61112 0.0
C1125 C 0.20725 0.17924 0.66035 0.0
C1126 C 0.19511 0.15213 0.61254 0.0
C1127 C 0.20446 0.1494 0.6634 0.0
C1128 C 0.21491 0.16165 0.71399 0.0
H1129 H 0.22512 0.07365 0.71136 0.0
H1130 H 0.22294 0.09726 0.728 0.0
C1131 C 0.21625 0.17641 0.71264 0.0
C1132 C 0.20425 0.13421 0.65937 0.0
H1133 H 0.19724 0.10287 0.7526 0.0
C1134 C 0.20851 0.12955 0.59649 0.0
C1135 C 0.20007 0.12442 0.71631 0.0
C1136 C 0.19485 0.12849 0.78431 0.0
C1137 C 0.20894 0.11557 0.58925 0.0
C1138 C 0.20465 0.10571 0.64593 0.0
C1139 C 0.20045 0.11037 0.70904 0.0
C1140 C 0.20471 0.09065 0.64052 0.0
C1141 C 0.21441 0.11169 0.52146 0.0
C1142 C 0.19477 0.0788 0.58749 0.0
C1143 C 0.19603 0.06533 0.57783 0.0
C1144 C 0.20713 0.06337 0.62145 0.0
C1145 C 0.21645 0.07483 0.67693 0.0
C1146 C 0.21522 0.08834 0.68644 0.0
H1147 H 0.22128 0.12219 0.49163 0.0
H1148 H 0.22223 0.10653 0.53252 0.0
H1149 H 0.20358 0.10304 0.48682 0.0
H1150 H 0.18631 0.08013 0.55237 0.0
H1151 H 0.18864 0.05667 0.53481 0.0
H1152 H 0.84346 0.07093 0.69401 0.0
H1153 H 0.87005 0.09464 0.70045 0.0
H1154 H 0.88138 0.07788 0.50936 0.0
H1155 H 0.85466 0.05374 0.5033 0.0
H1156 H 0.9085 0.09415 0.61262 0.0
H1157 H 0.8775 0.12807 0.5644 0.0
H1158 H 0.87089 0.11669 0.63978 0.0
H1159 H 0.867 0.10701 0.55233 0.0
C1160 C 0.85166 0.07215 0.65368 0.0
C1161 C 0.84685 0.06051 0.59755 0.0
C1162 C 0.86686 0.08576 0.65738 0.0
C1163 C 0.87757 0.08826 0.60446 0.0
C1164 C 0.87326 0.07627 0.55055 0.0
H1165 H 0.95179 0.18004 0.50444 0.0
H1166 H 0.92851 0.15376 0.50624 0.0
C1167 C 0.85802 0.06247 0.5472 0.0
C1168 C 0.89267 0.10377 0.60352 0.0
H1169 H 0.90581 0.14272 0.59746 0.0
C1170 C 0.90794 0.10478 0.60904 0.0
C1171 C 0.89195 0.11764 0.59795 0.0
C1172 C 0.87596 0.11734 0.58757 0.0
C1173 C 0.9225 0.11931 0.61026 0.0
C1174 C 0.92176 0.13322 0.60707 0.0
C1175 C 0.90645 0.13212 0.60074 0.0
C1176 C 0.93655 0.14901 0.60612 0.0
C1177 C 0.9385 0.11957 0.61328 0.0
C1178 C 0.94894 0.15529 0.66192 0.0
C1179 C 0.96243 0.17042 0.66077 0.0
C1180 C 0.96365 0.17959 0.60422 0.0
C1181 C 0.9512 0.17331 0.54891 0.0
C1182 C 0.93786 0.15824 0.54982 0.0
H1183 H 0.93686 0.10791 0.59699 0.0
H1184 H 0.94704 0.12824 0.57856 0.0
H1185 H 0.94413 0.12292 0.66857 0.0
H1186 H 0.94807 0.14859 0.70684 0.0
H1187 H 0.97182 0.17498 0.70419 0.0
H1188 H 0.98025 0.83268 0.55374 0.0
H1189 H 0.95669 0.83659 0.54782 0.0
H1190 H 0.93079 0.79702 0.67111 0.0
H1191 H 0.95411 0.79311 0.67786 0.0
H1192 H 0.92462 0.81514 0.49026 0.0
H1193 H 0.92501 0.83086 0.77507 0.0
H1194 H 0.94237 0.83146 0.73711 0.0
H1195 H 0.92573 0.8132 0.76002 0.0
C1196 C 0.96962 0.82493 0.58038 0.0
C1197 C 0.96916 0.8126 0.61649 0.0
C1198 C 0.95614 0.82716 0.57671 0.0
C1199 C 0.94203 0.81724 0.60986 0.0
C1200 C 0.94162 0.80503 0.6463 0.0
H1201 H 0.84331 0.79186 0.64395 0.0
H1202 H 0.87089 0.79623 0.65 0.0
C1203 C 0.955 0.80275 0.6497 0.0
C1204 C 0.92737 0.81902 0.60413 0.0
H1205 H 0.90007 0.82235 0.70411 0.0
C1206 C 0.91938 0.81699 0.53685 0.0
C1207 C 0.92054 0.82146 0.66492 0.0
C1208 C 0.92893 0.82453 0.73831 0.0
C1209 C 0.90431 0.81646 0.52911 0.0
C1210 C 0.89715 0.81825 0.59025 0.0
C1211 C 0.90549 0.82091 0.65724 0.0
C1212 C 0.88047 0.81614 0.58666 0.0
C1213 C 0.89576 0.81318 0.45591 0.0
C1214 C 0.87663 0.82604 0.54973 0.0
C1215 C 0.86072 0.82357 0.54602 0.0
C1216 C 0.84835 0.81117 0.57935 0.0
C1217 C 0.8524 0.8015 0.61729 0.0
C1218 C 0.86824 0.80399 0.621 0.0
H1219 H 0.90135 0.80909 0.41624 0.0
H1220 H 0.8827 0.8042 0.45631 0.0
H1221 H 0.8965 0.82406 0.43855 0.0
H1222 H 0.88592 0.83567 0.52383 0.0
H1223 H 0.8581 0.83128 0.51655 0.0
H1224 H 0.82631 0.51818 0.73591 0.0
H1225 H 0.79854 0.51366 0.71993 0.0
H1226 H 0.81637 0.55631 0.61426 0.0
H1227 H 0.84388 0.56035 0.62681 0.0
H1228 H 0.7878 0.52978 0.77788 0.0
H1229 H 0.77617 0.53036 0.49064 0.0
H1230 H 0.79319 0.5289 0.5268 0.0
H1231 H 0.79472 0.54774 0.52187 0.0
C1232 C 0.82418 0.52633 0.70742 0.0
C1233 C 0.83723 0.53957 0.68231 0.0
C1234 C 0.80831 0.52377 0.69849 0.0
C1235 C 0.80518 0.53452 0.66504 0.0
C1236 C 0.81822 0.54754 0.63818 0.0
H1237 H 0.73827 0.56248 0.78478 0.0
H1238 H 0.76023 0.55716 0.76648 0.0
C1239 C 0.83403 0.54992 0.6459 0.0
C1240 C 0.78882 0.53318 0.66601 0.0
H1241 H 0.76062 0.53763 0.56674 0.0
C1242 C 0.78176 0.5312 0.73116 0.0
C1243 C 0.78057 0.5347 0.60518 0.0
C1244 C 0.78649 0.53535 0.53213 0.0
C1245 C 0.76733 0.53158 0.73803 0.0
C1246 C 0.75997 0.53462 0.67878 0.0
C1247 C 0.76641 0.53564 0.6126 0.0
C1248 C 0.74648 0.538 0.68636 0.0
C1249 C 0.76023 0.52887 0.80925 0.0
C1250 C 0.73155 0.52952 0.64491 0.0
C1251 C 0.71891 0.53276 0.65453 0.0
C1252 C 0.72107 0.54451 0.70577 0.0
C1253 C 0.73614 0.55319 0.74558 0.0
C1254 C 0.74871 0.55009 0.73551 0.0
H1255 H 0.76344 0.52129 0.83946 0.0
H1256 H 0.76536 0.54025 0.84108 0.0
H1257 H 0.74678 0.52335 0.80349 0.0
H1258 H 0.7296 0.52025 0.60602 0.0
H1259 H 0.70745 0.52595 0.62288 0.0
H1260 H 0.49408 0.32197 0.78192 0.0
H1261 H 0.49533 0.29803 0.76344 0.0
H1262 H 0.45688 0.28102 0.59561 0.0
H1263 H 0.45568 0.30518 0.61359 0.0
H1264 H 0.46887 0.26823 0.77976 0.0
H1265 H 0.49079 0.27178 0.50996 0.0
H1266 H 0.49314 0.28868 0.56173 0.0
H1267 H 0.4737 0.27468 0.51808 0.0
C1268 C 0.48606 0.31325 0.74026 0.0
C1269 C 0.47477 0.31542 0.69918 0.0
C1270 C 0.48679 0.29957 0.72981 0.0
C1271 C 0.47629 0.28777 0.67787 0.0
C1272 C 0.46529 0.29008 0.63521 0.0
H1273 H 0.45829 0.19251 0.59599 0.0
H1274 H 0.45891 0.21746 0.58699 0.0
C1275 C 0.46456 0.30384 0.64566 0.0
C1276 C 0.47607 0.27263 0.67319 0.0
H1277 H 0.48359 0.24854 0.5662 0.0
C1278 C 0.47211 0.26394 0.73306 0.0
C1279 C 0.48015 0.26698 0.61201 0.0
C1280 C 0.48481 0.27602 0.54681 0.0
C1281 C 0.47216 0.2498 0.73367 0.0
C1282 C 0.47665 0.24432 0.67322 0.0
C1283 C 0.48029 0.25283 0.61267 0.0
C1284 C 0.47764 0.2298 0.67273 0.0
C1285 C 0.46718 0.24074 0.79885 0.0
C1286 C 0.4884 0.22862 0.72204 0.0
C1287 C 0.48803 0.2144 0.72741 0.0
C1288 C 0.477 0.20114 0.68307 0.0
C1289 C 0.46691 0.20255 0.63088 0.0
C1290 C 0.46724 0.21679 0.62571 0.0
H1291 H 0.45999 0.24423 0.83196 0.0
H1292 H 0.45985 0.22797 0.78415 0.0
H1293 H 0.47825 0.24311 0.83174 0.0
H1294 H 0.49676 0.2386 0.75789 0.0
H1295 H 0.496 0.21367 0.76786 0.0
H1296 H 0.74086 0.19838 0.74398 0.0
H1297 H 0.76414 0.22259 0.71312 0.0
H1298 H 0.73181 0.23581 0.61127 0.0
H1299 H 0.7082 0.21139 0.643 0.0
H1300 H 0.7732 0.23396 0.57944 0.0
H1301 H 0.76155 0.27389 0.75218 0.0
H1302 H 0.75153 0.25311 0.76136 0.0
H1303 H 0.74538 0.26044 0.68835 0.0
C1304 C 0.73865 0.20639 0.71484 0.0
C1305 C 0.7227 0.20303 0.69619 0.0
C1306 C 0.752 0.22023 0.69709 0.0
C1307 C 0.74976 0.23111 0.66052 0.0
C1308 C 0.73383 0.22769 0.64044 0.0
H1309 H 0.83449 0.32474 0.60655 0.0
H1310 H 0.80658 0.30222 0.58626 0.0
C1311 C 0.72037 0.21373 0.65819 0.0
C1312 C 0.76434 0.246 0.64508 0.0
H1313 H 0.78616 0.28505 0.69776 0.0
C1314 C 0.7759 0.24518 0.60431 0.0
C1315 C 0.76786 0.26066 0.67724 0.0
C1316 C 0.75602 0.2622 0.72263 0.0
C1317 C 0.79114 0.25844 0.59764 0.0
C1318 C 0.79504 0.27289 0.63335 0.0
C1319 C 0.78314 0.27395 0.67046 0.0
C1320 C 0.81197 0.28636 0.64054 0.0
C1321 C 0.80317 0.25677 0.5542 0.0
C1322 C 0.82419 0.28492 0.67777 0.0
C1323 C 0.83995 0.29768 0.68974 0.0
C1324 C 0.8439 0.3122 0.66458 0.0
C1325 C 0.83179 0.31364 0.626 0.0
C1326 C 0.81587 0.30082 0.61463 0.0
H1327 H 0.79693 0.24669 0.51364 0.0
H1328 H 0.81071 0.26755 0.52716 0.0
H1329 H 0.8114 0.25471 0.58978 0.0
H1330 H 0.82142 0.27398 0.69932 0.0
H1331 H 0.849 0.29623 0.71989 0.0
H1332 H 0.91616 0.51989 0.82869 0.0
H1333 H 0.91237 0.49368 0.82028 0.0
H1334 H 0.86894 0.47739 0.68119 0.0
H1335 H 0.87268 0.50388 0.68891 0.0
H1336 H 0.88558 0.46561 0.85779 0.0
H1337 H 0.89587 0.46211 0.57191 0.0
H1338 H 0.90175 0.48044 0.62118 0.0
H1339 H 0.88073 0.46711 0.59369 0.0
C1340 C 0.90577 0.51083 0.79596 0.0
C1341 C 0.89476 0.51414 0.75922 0.0
C1342 C 0.90362 0.49576 0.79139 0.0
C1343 C 0.89048 0.48353 0.74956 0.0
C1344 C 0.87933 0.48667 0.713 0.0
H1345 H 0.87506 0.38774 0.67404 0.0
H1346 H 0.87074 0.41024 0.6727 0.0
C1347 C 0.88144 0.50183 0.71781 0.0
C1348 C 0.88859 0.46758 0.74599 0.0
H1349 H 0.89148 0.44073 0.63628 0.0
C1350 C 0.88672 0.46012 0.80915 0.0
C1351 C 0.88996 0.46029 0.68254 0.0
C1352 C 0.89229 0.46787 0.61336 0.0
C1353 C 0.88656 0.44584 0.81101 0.0
C1354 C 0.8887 0.43891 0.74829 0.0
C1355 C 0.8899 0.44603 0.68445 0.0
C1356 C 0.89096 0.425 0.74928 0.0
C1357 C 0.88418 0.43836 0.88051 0.0
C1358 C 0.90386 0.4258 0.79198 0.0
C1359 C 0.90634 0.41301 0.79294 0.0
C1360 C 0.89605 0.39903 0.75079 0.0
C1361 C 0.88316 0.39824 0.70757 0.0
C1362 C 0.8807 0.41113 0.70658 0.0
H1363 H 0.87753 0.44206 0.91609 0.0
H1364 H 0.87735 0.4254 0.87203 0.0
H1365 H 0.89625 0.44207 0.90803 0.0
H1366 H 0.9122 0.43644 0.82416 0.0
H1367 H 0.91647 0.4142 0.8266 0.0
H1368 H 0.51 0.41746 0.83646 0.0
H1369 H 0.53797 0.43868 0.8309 0.0
H1370 H 0.54807 0.40847 0.69828 0.0
H1371 H 0.52 0.38709 0.70327 0.0
H1372 H 0.56764 0.4392 0.8728 0.0
H1373 H 0.56308 0.44784 0.58572 0.0
H1374 H 0.54532 0.43727 0.63437 0.0
H1375 H 0.55686 0.42829 0.60855 0.0
C1376 C 0.51811 0.41527 0.80591 0.0
C1377 C 0.51265 0.40052 0.77007 0.0
C1378 C 0.53415 0.42745 0.80291 0.0
C1379 C 0.54512 0.42527 0.76351 0.0
C1380 C 0.53979 0.41053 0.72813 0.0
H1381 H 0.64481 0.50149 0.69141 0.0
H1382 H 0.62118 0.47481 0.69161 0.0
C1383 C 0.52374 0.39828 0.73141 0.0
C1384 C 0.56212 0.43847 0.76062 0.0
H1385 H 0.58804 0.46474 0.6508 0.0
C1386 C 0.57214 0.44468 0.82407 0.0
C1387 C 0.56812 0.44554 0.69697 0.0
C1388 C 0.55782 0.43952 0.62742 0.0
C1389 C 0.58775 0.45798 0.82603 0.0
C1390 C 0.59344 0.46557 0.76313 0.0
C1391 C 0.58373 0.45895 0.69901 0.0
C1392 C 0.60836 0.48135 0.76479 0.0
C1393 C 0.59793 0.46393 0.89593 0.0
C1394 C 0.60901 0.49387 0.80543 0.0
C1395 C 0.62233 0.50894 0.80529 0.0
C1396 C 0.63545 0.51206 0.76413 0.0
C1397 C 0.63499 0.49949 0.72409 0.0
C1398 C 0.62147 0.48427 0.72392 0.0
H1399 H 0.59466 0.45432 0.93148 0.0
H1400 H 0.61112 0.4695 0.88816 0.0
H1401 H 0.59567 0.47275 0.92311 0.0
H1402 H 0.59898 0.49206 0.83626 0.0
H1403 H 0.62219 0.51825 0.83707 0.0
H1404 H 0.64581 0.17688 0.70454 0.0
H1405 H 0.6229 0.18184 0.69702 0.0
H1406 H 0.59856 0.1473 0.84607 0.0
H1407 H 0.62117 0.14241 0.85444 0.0
H1408 H 0.59001 0.16016 0.6532 0.0
H1409 H 0.59518 0.18421 0.92856 0.0
H1410 H 0.61163 0.18302 0.89045 0.0
H1411 H 0.59536 0.16616 0.92569 0.0
C1412 C 0.63569 0.17053 0.73653 0.0
C1413 C 0.63541 0.15925 0.78017 0.0
C1414 C 0.62256 0.17333 0.73195 0.0
C1415 C 0.60907 0.1651 0.77176 0.0
C1416 C 0.60893 0.15404 0.81593 0.0
H1417 H 0.51154 0.13706 0.82155 0.0
H1418 H 0.53979 0.1436 0.82225 0.0
C1419 C 0.6219 0.15118 0.82022 0.0
C1420 C 0.5946 0.1672 0.76504 0.0
H1421 H 0.5687 0.17291 0.865 0.0
C1422 C 0.58552 0.16331 0.69909 0.0
C1423 C 0.58874 0.17137 0.82484 0.0
C1424 C 0.59833 0.17659 0.8962 0.0
C1425 C 0.57024 0.1624 0.69254 0.0
C1426 C 0.56395 0.16562 0.75338 0.0
C1427 C 0.57346 0.17036 0.81839 0.0
C1428 C 0.54684 0.16232 0.75281 0.0
C1429 C 0.56047 0.15706 0.62162 0.0
C1430 C 0.54133 0.17082 0.71409 0.0
C1431 C 0.52498 0.16711 0.71366 0.0
C1432 C 0.51387 0.15479 0.75168 0.0
C1433 C 0.51961 0.14654 0.79111 0.0
C1434 C 0.53585 0.1503 0.79183 0.0
H1435 H 0.56619 0.15316 0.58177 0.0
H1436 H 0.54799 0.14729 0.62742 0.0
H1437 H 0.55939 0.16685 0.60108 0.0
H1438 H 0.54964 0.18029 0.68424 0.0
H1439 H 0.52101 0.17373 0.68283 0.0
H1440 H 0.50567 0.88385 0.32803 0.0
H1441 H 0.47707 0.87723 0.31768 0.0
H1442 H 0.4897 0.91661 0.19352 0.0
H1443 H 0.51809 0.9233 0.20323 0.0
H1444 H 0.46406 0.89705 0.36043 0.0
H1445 H 0.4516 0.87928 0.07227 0.0
H1446 H 0.46857 0.8803 0.12409 0.0
H1447 H 0.46982 0.89779 0.09378 0.0
C1448 C 0.50235 0.89105 0.29823 0.0
C1449 C 0.51422 0.90409 0.26635 0.0
C1450 C 0.486 0.88725 0.29245 0.0
C1451 C 0.48123 0.89629 0.25391 0.0
C1452 C 0.49306 0.90931 0.2224 0.0
H1453 H 0.40636 0.91521 0.15299 0.0
H1454 H 0.42976 0.91154 0.16484 0.0
C1455 C 0.50934 0.91317 0.22848 0.0
C1456 C 0.46405 0.89263 0.24805 0.0
H1457 H 0.43323 0.88586 0.12604 0.0
C1458 C 0.45714 0.89429 0.30946 0.0
C1459 C 0.45507 0.88898 0.18148 0.0
C1460 C 0.46156 0.88633 0.11418 0.0
C1461 C 0.4419 0.89343 0.30546 0.0
C1462 C 0.43328 0.89057 0.23833 0.0
C1463 C 0.43985 0.8881 0.17743 0.0
C1464 C 0.41841 0.89185 0.2291 0.0
C1465 C 0.43562 0.89652 0.37249 0.0
C1466 C 0.40403 0.88177 0.26011 0.0
C1467 C 0.39049 0.88386 0.25354 0.0
C1468 C 0.39112 0.89606 0.21575 0.0
C1469 C 0.4054 0.90576 0.18296 0.0
C1470 C 0.41883 0.90366 0.18948 0.0
H1471 H 0.44501 0.90115 0.41801 0.0
H1472 H 0.4314 0.90501 0.36443 0.0
H1473 H 0.42509 0.88545 0.38659 0.0
H1474 H 0.40333 0.8724 0.28989 0.0
H1475 H 0.37969 0.87614 0.27931 0.0
H1476 H 0.1321 0.63466 0.14099 0.0
H1477 H 0.13843 0.61424 0.10789 0.0
H1478 H 0.18971 0.64761 0.14545 0.0
H1479 H 0.18341 0.6682 0.17893 0.0
H1480 H 0.15932 0.61201 1.00346 0.0
H1481 H 0.18006 0.61288 0.28491 0.0
H1482 H 0.16823 0.62185 0.26045 0.0
H1483 H 0.18932 0.63108 0.24369 0.0
C1484 C 0.14474 0.63771 0.14119 0.0
C1485 C 0.15727 0.65296 0.16306 0.0
C1486 C 0.14833 0.62604 0.12209 0.0
C1487 C 0.16452 0.62938 0.12499 0.0
C1488 C 0.17713 0.64478 0.14354 0.0
H1489 H 0.1893 0.55535 0.14285 0.0
H1490 H 0.19297 0.58145 0.13051 0.0
C1491 C 0.17352 0.65652 0.16237 0.0
C1492 C 0.16787 0.61637 0.11399 0.0
H1493 H 0.17812 0.59318 0.20521 0.0
C1494 C 0.16366 0.608 0.04722 0.0
C1495 C 0.1736 0.61121 0.17112 0.0
C1496 C 0.178 0.61961 0.24432 0.0
C1497 C 0.16459 0.59433 0.03654 0.0
C1498 C 0.16946 0.58868 0.09469 0.0
C1499 C 0.17439 0.59748 0.1606 0.0
C1500 C 0.16805 0.57301 0.09082 0.0
C1501 C 0.1602 0.58603 0.96322 0.0
C1502 C 0.15291 0.55956 0.07141 0.0
C1503 C 0.15084 0.54467 0.0779 0.0
C1504 C 0.1638 0.54295 0.1049 0.0
C1505 C 0.17912 0.55635 0.12167 0.0
C1506 C 0.18121 0.57126 0.11477 0.0
H1507 H 0.16272 0.59437 0.92174 0.0
H1508 H 0.16702 0.5798 0.95372 0.0
H1509 H 0.14699 0.57735 0.95734 0.0
H1510 H 0.14245 0.56054 0.05467 0.0
H1511 H 0.13887 0.53455 0.06509 0.0
H1512 H 0.52193 0.65702 0.09269 0.0
H1513 H 0.4951 0.63357 0.0762 0.0
H1514 H 0.48421 0.64403 0.28362 0.0
H1515 H 0.51099 0.66792 0.29931 0.0
H1516 H 0.48633 0.60976 0.15334 0.0
H1517 H 0.44126 0.62929 0.17298 0.0
H1518 H 0.46236 0.6426 0.16012 0.0
H1519 H 0.45618 0.63679 0.24738 0.0
C1520 C 0.51366 0.65453 0.13413 0.0
C1521 C 0.51856 0.66426 0.19744 0.0
C1522 C 0.49832 0.64111 0.12463 0.0
C1523 C 0.48755 0.63699 0.17847 0.0
C1524 C 0.49212 0.64709 0.24059 0.0
H1525 H 0.4195 0.54348 0.27035 0.0
H1526 H 0.4421 0.56998 0.26343 0.0
C1527 C 0.50746 0.66072 0.24969 0.0
C1528 C 0.47258 0.62129 0.17272 0.0
H1529 H 0.43146 0.60204 0.18629 0.0
C1530 C 0.47433 0.60813 0.15975 0.0
C1531 C 0.45685 0.61908 0.18033 0.0
C1532 C 0.45399 0.6327 0.19024 0.0
C1533 C 0.46094 0.59291 0.15611 0.0
C1534 C 0.44536 0.59067 0.16752 0.0
C1535 C 0.44345 0.60377 0.17822 0.0
C1536 C 0.43119 0.57478 0.17225 0.0
C1537 C 0.46365 0.57933 0.14012 0.0
C1538 C 0.41731 0.56878 0.12435 0.0
C1539 C 0.40425 0.55356 0.12842 0.0
C1540 C 0.40491 0.5442 0.18068 0.0
C1541 C 0.41871 0.55036 0.22905 0.0
C1542 C 0.43166 0.5655 0.22509 0.0
H1543 H 0.47485 0.58295 0.11202 0.0
H1544 H 0.46511 0.57474 0.1907 0.0
H1545 H 0.45316 0.5697 0.10713 0.0
H1546 H 0.41668 0.5758 0.08337 0.0
H1547 H 0.3937 0.54912 0.0908 0.0
H1548 H 0.52911 0.73013 0.35554 0.0
H1549 H 0.52407 0.75191 0.37998 0.0
H1550 H 0.57548 0.78468 0.3801 0.0
H1551 H 0.58056 0.7631 0.35679 0.0
H1552 H 0.56012 0.79292 0.48432 0.0
H1553 H 0.52738 0.77898 0.21562 0.0
H1554 H 0.51964 0.76374 0.27566 0.0
H1555 H 0.53924 0.77023 0.24282 0.0
C1556 C 0.53933 0.74197 0.36232 0.0
C1557 C 0.5552 0.74498 0.35355 0.0
C1558 C 0.53644 0.75439 0.37589 0.0
C1559 C 0.54939 0.76992 0.38068 0.0
C1560 C 0.56532 0.7728 0.37648 0.0
H1561 H 0.56791 0.85658 0.25722 0.0
H1562 H 0.56407 0.83094 0.28011 0.0
C1563 C 0.5682 0.76045 0.36293 0.0
C1564 C 0.54652 0.78334 0.38298 0.0
H1565 H 0.53305 0.80233 0.27763 0.0
C1566 C 0.55391 0.79487 0.4399 0.0
C1567 C 0.53854 0.78589 0.3245 0.0
C1568 C 0.53081 0.77415 0.26083 0.0
C1569 C 0.55416 0.80918 0.4384 0.0
C1570 C 0.54675 0.81193 0.37865 0.0
C1571 C 0.53866 0.80011 0.32345 0.0
C1572 C 0.54908 0.82762 0.36761 0.0
C1573 C 0.56319 0.82162 0.49851 0.0
C1574 C 0.54194 0.83429 0.40949 0.0
C1575 C 0.54414 0.84904 0.39643 0.0
C1576 C 0.55348 0.85724 0.34133 0.0
C1577 C 0.56066 0.85054 0.30004 0.0
C1578 C 0.55845 0.83588 0.31295 0.0
H1579 H 0.56971 0.81821 0.53755 0.0
H1580 H 0.57214 0.83277 0.47749 0.0
H1581 H 0.55444 0.8238 0.52661 0.0
H1582 H 0.53454 0.82803 0.45151 0.0
H1583 H 0.53845 0.85395 0.42886 0.0
H1584 H 0.28631 0.84814 0.21133 0.0
H1585 H 0.26375 0.8231 0.23791 0.0
H1586 H 0.29492 0.81824 0.39506 0.0
H1587 H 0.31797 0.84345 0.36677 0.0
H1588 H 0.2755 0.79087 0.31309 0.0
H1589 H 0.23769 0.81464 0.40838 0.0
H1590 H 0.24386 0.82077 0.32195 0.0
H1591 H 0.25899 0.82702 0.39575 0.0
C1592 C 0.2884 0.84182 0.25187 0.0
C1593 C 0.30386 0.8478 0.28749 0.0
C1594 C 0.27544 0.82752 0.26733 0.0
C1595 C 0.2775 0.81896 0.31976 0.0
C1596 C 0.29301 0.82475 0.35492 0.0
H1597 H 0.18451 0.74065 0.41992 0.0
H1598 H 0.2118 0.76359 0.43599 0.0
C1599 C 0.30614 0.83912 0.3389 0.0
C1600 C 0.26336 0.80383 0.33553 0.0
H1601 H 0.22323 0.78735 0.36533 0.0
C1602 C 0.26413 0.79008 0.32586 0.0
C1603 C 0.24862 0.80279 0.35392 0.0
C1604 C 0.2473 0.81713 0.37139 0.0
C1605 C 0.25027 0.77527 0.32968 0.0
C1606 C 0.23515 0.7742 0.34129 0.0
C1607 C 0.23468 0.78803 0.35524 0.0
C1608 C 0.21948 0.75905 0.33598 0.0
C1609 C 0.25206 0.76099 0.32109 0.0
C1610 C 0.21468 0.74862 0.27499 0.0
C1611 C 0.19917 0.73529 0.26645 0.0
C1612 C 0.18798 0.73238 0.31775 0.0
C1613 C 0.19285 0.74264 0.37926 0.0
C1614 C 0.20847 0.75576 0.3885 0.0
H1615 H 0.26451 0.76375 0.33992 0.0
H1616 H 0.24313 0.75132 0.35073 0.0
H1617 H 0.2501 0.75692 0.26399 0.0
H1618 H 0.22266 0.75108 0.2325 0.0
H1619 H 0.19568 0.72767 0.21812 0.0
H1620 H 0.32929 0.51563 0.23895 0.0
H1621 H 0.30539 0.51892 0.24302 0.0
H1622 H 0.2746 0.47106 0.158 0.0
H1623 H 0.29822 0.46751 0.15843 0.0
H1624 H 0.28316 0.51758 0.15391 0.0
H1625 H 0.25204 0.46992 0.32926 0.0
H1626 H 0.27277 0.47694 0.309 0.0
H1627 H 0.25608 0.46255 0.24927 0.0
C1628 C 0.31739 0.50587 0.22107 0.0
C1629 C 0.3155 0.49126 0.19944 0.0
C1630 C 0.30374 0.50774 0.2234 0.0
C1631 C 0.28807 0.49509 0.20302 0.0
C1632 C 0.28642 0.48081 0.17693 0.0
H1633 H 0.20065 0.49911 0.09571 0.0
H1634 H 0.22766 0.50176 0.09848 0.0
C1635 C 0.29994 0.47882 0.17653 0.0
C1636 C 0.27339 0.49663 0.20971 0.0
H1637 H 0.23532 0.47812 0.26818 0.0
C1638 C 0.27276 0.50906 0.17968 0.0
C1639 C 0.25995 0.48582 0.24512 0.0
C1640 C 0.26032 0.47319 0.28567 0.0
C1641 C 0.25888 0.51064 0.18189 0.0
C1642 C 0.24495 0.49907 0.21221 0.0
C1643 C 0.24583 0.48693 0.24404 0.0
C1644 C 0.22923 0.49902 0.21117 0.0
C1645 C 0.25951 0.52487 0.15293 0.0
C1646 C 0.2208 0.49622 0.27295 0.0
C1647 C 0.2051 0.49405 0.27058 0.0
C1648 C 0.19768 0.49507 0.20688 0.0
C1649 C 0.20628 0.49854 0.14572 0.0
C1650 C 0.22179 0.50019 0.14751 0.0
H1651 H 0.27217 0.53493 0.15727 0.0
H1652 H 0.25522 0.52223 0.09578 0.0
H1653 H 0.25176 0.52841 0.18126 0.0
H1654 H 0.22619 0.49528 0.32283 0.0
H1655 H 0.19867 0.49139 0.31843 0.0
H1656 H 0.01145 0.21089 0.34869 0.0
H1657 H 0.01337 0.21452 0.22174 0.0
H1658 H 0.02197 0.26135 0.26135 0.0
H1659 H 0.0198 0.25771 0.38922 0.0
H1660 H 0.9927 0.22582 0.13297 0.0
H1661 H 0.06019 0.26198 0.13824 0.0
H1662 H 0.05029 0.24842 0.20461 0.0
H1663 H 0.04985 0.26631 0.20541 0.0
C1664 C 0.01382 0.22201 0.3306 0.0
C1665 C 0.01547 0.23402 0.37908 0.0
C1666 C 0.01486 0.22403 0.25792 0.0
C1667 C 0.01778 0.23817 0.23204 0.0
C1668 C 0.01972 0.25034 0.28028 0.0
H1669 H 0.0377 0.27398 0.81771 0.0
H1670 H 0.03463 0.26977 0.94324 0.0
C1671 C 0.01851 0.24826 0.35325 0.0
C1672 C 0.01863 0.24003 0.15441 0.0
H1673 H 0.04538 0.2564 0.02758 0.0
C1674 C 0.00419 0.23253 0.1097 0.0
C1675 C 0.03362 0.24875 0.12436 0.0
C1676 C 0.04945 0.25682 0.17018 0.0
C1677 C 0.00433 0.23377 0.03575 0.0
C1678 C 0.01938 0.24235 1.00524 0.0
C1679 C 0.03382 0.24977 0.0504 0.0
C1680 C 0.02052 0.24452 0.92742 0.0
C1681 C 0.98828 0.22628 0.99156 0.0
C1682 C 0.0136 0.23174 0.87558 0.0
C1683 C 0.01514 0.23417 0.8029 0.0
C1684 C 0.02391 0.2494 0.78098 0.0
C1685 C 0.03088 0.26209 0.83284 0.0
C1686 C 0.02916 0.25969 0.90488 0.0
H1687 H 0.97808 0.22416 1.02439 0.0
H1688 H 0.98857 0.23368 0.94865 0.0
H1689 H 0.9857 0.2148 0.96687 0.0
H1690 H 0.00723 0.21988 0.89125 0.0
H1691 H 0.00977 0.22418 0.76413 0.0
H1692 H 0.80458 0.81632 0.37403 0.0
H1693 H 0.80469 0.82029 0.24608 0.0
H1694 H 0.79097 0.77211 0.19699 0.0
H1695 H 0.7905 0.76807 0.323 0.0
H1696 H 0.82249 0.81688 0.14216 0.0
H1697 H 0.75713 0.77494 0.07289 0.0
H1698 H 0.7655 0.78163 0.1635 0.0
H1699 H 0.76719 0.76619 0.11795 0.0
C1700 C 0.80149 0.8066 0.33573 0.0
C1701 C 0.79736 0.79185 0.35867 0.0
C1702 C 0.80157 0.80886 0.26264 0.0
C1703 C 0.79745 0.79639 0.21139 0.0
C1704 C 0.79371 0.7818 0.23484 0.0
H1705 H 0.79612 0.7851 0.74583 0.0
H1706 H 0.79519 0.78096 0.87365 0.0
C1707 C 0.79357 0.77955 0.30726 0.0
C1708 C 0.79743 0.7985 0.13347 0.0
H1709 H 0.77396 0.78347 0.9759 0.0
C1710 C 0.81183 0.80967 0.10601 0.0
C1711 C 0.78356 0.78903 0.08569 0.0
C1712 C 0.76743 0.77739 0.11152 0.0
C1713 C 0.81283 0.81139 0.03252 0.0
C1714 C 0.79901 0.80182 0.98483 0.0
C1715 C 0.78461 0.79069 1.01217 0.0
C1716 C 0.79907 0.80387 0.90701 0.0
C1717 C 0.82879 0.82329 1.00627 0.0
C1718 C 0.80116 0.8179 0.88301 0.0
C1719 C 0.80153 0.82018 0.81057 0.0
C1720 C 0.79976 0.80847 0.75985 0.0
C1721 C 0.79737 0.79426 0.78345 0.0
C1722 C 0.79691 0.79194 0.85648 0.0
H1723 H 0.83915 0.82677 0.04637 0.0
H1724 H 0.83118 0.81867 0.95645 0.0
H1725 H 0.82824 0.83392 0.99495 0.0
H1726 H 0.80255 0.82717 0.92052 0.0
H1727 H 0.80335 0.83126 0.79431 0.0
H1728 H 0.23569 0.05016 0.33197 0.0
H1729 H 0.23544 0.04699 0.20302 0.0
H1730 H 0.22069 0.99834 0.21553 0.0
H1731 H 0.22025 0.00135 0.34485 0.0
H1732 H 0.25179 0.03976 0.11715 0.0
H1733 H 0.18699 0.99379 0.06848 0.0
H1734 H 0.19553 0.00428 0.15416 0.0
H1735 H 0.19821 0.9881 0.12656 0.0
C1736 C 0.23236 0.03876 0.30732 0.0
C1737 C 0.22787 0.02598 0.34875 0.0
C1738 C 0.23224 0.03696 0.23333 0.0
C1739 C 0.22769 0.02234 0.19858 0.0
C1740 C 0.22375 0.00965 0.24028 0.0
H1741 H 0.22974 0.99152 0.76507 0.0
H1742 H 0.22914 0.99515 0.89344 0.0
C1743 C 0.22368 0.01141 0.31445 0.0
C1744 C 0.22727 0.02057 0.11911 0.0
H1745 H 0.20317 0.99906 0.96979 0.0
C1746 C 0.24108 0.03092 0.08513 0.0
C1747 C 0.21329 0.00912 0.07648 0.0
C1748 C 0.19762 0.9983 0.10816 0.0
C1749 C 0.24142 0.02993 1.01068 0.0
C1750 C 0.2276 0.01829 0.96856 0.0
C1751 C 0.21377 0.00798 1.00212 0.0
C1752 C 0.2276 0.01616 0.8899 0.0
C1753 C 0.25667 0.04112 0.97729 0.0
C1754 C 0.22677 0.0267 0.84469 0.0
C1755 C 0.22695 0.02455 0.77069 0.0
C1756 C 0.2281 0.0119 0.7408 0.0
C1757 C 0.22886 0.00139 0.78632 0.0
C1758 C 0.2285 0.00343 0.85982 0.0
H1759 H 0.26693 0.04846 1.01755 0.0
H1760 H 0.26039 0.03455 0.94089 0.0
H1761 H 0.2542 0.04893 0.94525 0.0
H1762 H 0.226 0.03658 0.86667 0.0
H1763 H 0.22641 0.03286 0.73713 0.0
H1764 H 0.99075 0.78708 0.79643 0.0
H1765 H 0.98635 0.78324 0.92334 0.0
H1766 H 0.02957 0.82786 0.97993 0.0
H1767 H 0.0337 0.83183 0.85493 0.0
H1768 H 0.00502 0.78213 0.03691 0.0
H1769 H 0.9967 0.83311 0.08588 0.0
H1770 H 0.99657 0.82535 0.99755 0.0
H1771 H 0.01554 0.83848 0.04798 0.0
C1772 C 0.99928 0.79598 0.83616 0.0
C1773 C 0.01247 0.8098 0.81572 0.0
C1774 C 0.99676 0.79383 0.90861 0.0
C1775 C 0.0074 0.80547 0.96146 0.0
C1776 C 0.02088 0.81893 0.94057 0.0
H1777 H 0.02391 0.81407 0.42346 0.0
H1778 H 0.02646 0.81663 0.29498 0.0
C1779 C 0.02329 0.82113 0.86883 0.0
C1780 C 0.00472 0.80375 0.03855 0.0
H1781 H 0.00203 0.82269 0.189 0.0
C1782 C 0.0042 0.79092 0.06992 0.0
C1783 C 0.00358 0.81518 0.08207 0.0
C1784 C 0.00295 0.82871 0.05152 0.0
C1785 C 0.0031 0.78951 0.14356 0.0
C1786 C 0.00253 0.80122 0.18702 0.0
C1787 C 0.00274 0.81387 0.15572 0.0
C1788 C 1.00106 0.80015 0.2648 0.0
C1789 C 0.00276 0.77564 0.17502 0.0
C1790 C 0.98591 0.79032 0.29031 0.0
C1791 C 0.98441 0.78897 0.36324 0.0
C1792 C 0.99805 0.79735 0.41241 0.0
C1793 C 0.01319 0.80747 0.38693 0.0
C1794 C 0.01467 0.8089 0.31365 0.0
H1795 H 0.00482 0.76831 0.13539 0.0
H1796 H 0.01219 0.77966 0.22008 0.0
H1797 H 0.99076 0.7683 0.19618 0.0
H1798 H 0.97525 0.78357 0.25363 0.0
H1799 H 0.97256 0.7811 0.38104 0.0
H1800 H 0.21299 0.24862 0.41624 0.0
H1801 H 0.21322 0.25156 0.28772 0.0
H1802 H 0.24254 0.22978 0.26872 0.0
H1803 H 0.2423 0.2268 0.3965 0.0
H1804 H 0.25348 0.25716 0.19397 0.0
H1805 H 0.18759 0.21524 0.13015 0.0
H1806 H 0.19242 0.23044 0.19875 0.0
H1807 H 0.19819 0.216 0.21324 0.0
C1808 C 0.21954 0.24454 0.38463 0.0
C1809 C 0.22755 0.2374 0.41651 0.0
C1810 C 0.21957 0.24612 0.31108 0.0
C1811 C 0.22768 0.24066 0.26808 0.0
C1812 C 0.2361 0.23399 0.30043 0.0
H1813 H 0.21939 0.22646 0.80025 0.0
H1814 H 0.21936 0.22255 0.92817 0.0
C1815 C 0.23596 0.2323 0.3736 0.0
C1816 C 0.22753 0.24191 0.18955 0.0
H1817 H 0.20255 0.22925 0.03583 0.0
C1818 C 0.24233 0.25105 0.15947 0.0
C1819 C 0.21305 0.23373 0.14409 0.0
C1820 C 0.1969 0.22318 0.1728 0.0
C1821 C 0.243 0.25252 0.08577 0.0
C1822 C 0.22846 0.24472 0.04049 0.0
C1823 C 0.21369 0.23528 0.07033 0.0
C1824 C 0.22832 0.24682 0.96268 0.0
C1825 C 0.25933 0.26234 0.05688 0.0
C1826 C 0.23315 0.26166 0.9393 0.0
C1827 C 0.23315 0.26387 0.86677 0.0
C1828 C 0.22831 0.25131 0.81542 0.0
C1829 C 0.22331 0.23638 0.83849 0.0
C1830 C 0.22324 0.23414 0.91155 0.0
H1831 H 0.26947 0.26399 0.09455 0.0
H1832 H 0.26005 0.25694 1.00545 0.0
H1833 H 0.26106 0.27405 0.04785 0.0
H1834 H 0.23684 0.27158 0.97733 0.0
H1835 H 0.23696 0.27551 0.8509 0.0
H1836 H 0.79698 0.05238 0.34456 0.0
H1837 H 0.79706 0.04816 0.21638 0.0
H1838 H 0.79569 0.00457 0.24442 0.0
H1839 H 0.79579 0.00887 0.37406 0.0
H1840 H 0.8205 0.04168 0.13772 0.0
H1841 H 0.75529 0.99511 0.09801 0.0
H1842 H 0.76319 0.00906 0.17482 0.0
H1843 H 0.76792 0.99367 0.16774 0.0
C1844 C 0.79682 0.04193 0.32365 0.0
C1845 C 0.79641 0.03095 0.36946 0.0
C1846 C 0.79687 0.03955 0.25028 0.0
C1847 C 0.79627 0.02602 0.22064 0.0
C1848 C 0.79607 0.01507 0.26616 0.0
H1849 H 0.78354 0.99138 0.7765 0.0
H1850 H 0.7846 0.99444 0.90581 0.0
C1851 C 0.79621 0.01755 0.34014 0.0
C1852 C 0.79564 0.0235 0.14199 0.0
H1853 H 0.76975 0.00292 0.99614 0.0
C1854 C 0.80945 0.03315 0.10665 0.0
C1855 C 0.78121 0.01239 0.10159 0.0
C1856 C 0.76597 0.00196 0.13697 0.0
C1857 C 0.80926 0.03191 0.03207 0.0
C1858 C 0.79467 0.02107 0.99124 0.0
C1859 C 0.78091 0.01131 0.02694 0.0
C1860 C 0.79354 0.01934 0.91175 0.0
C1861 C 0.82485 0.042 0.9981 0.0
C1862 C 0.79778 0.03222 0.87101 0.0
C1863 C 0.79733 0.03051 0.79663 0.0
C1864 C 0.79237 0.01584 0.76139 0.0
C1865 C 0.78747 0.00287 0.80196 0.0
C1866 C 0.78808 0.0046 0.87611 0.0
H1867 H 0.83569 0.04596 0.03603 0.0
H1868 H 0.82605 0.03564 0.95102 0.0
H1869 H 0.82487 0.05256 0.98077 0.0
H1870 H 0.80154 0.04363 0.8967 0.0
H1871 H 0.80106 0.0407 0.76683 0.0
H1872 H 0.65329 0.54994 0.94613 0.0
H1873 H 0.64962 0.5491 0.0739 0.0
H1874 H 0.70169 0.57512 0.1199 0.0
H1875 H 0.70539 0.5762 0.99283 0.0
H1876 H 0.66056 0.53587 0.1732 0.0
H1877 H 0.68715 0.59918 0.24785 0.0
H1878 H 0.68147 0.59102 0.15688 0.0
H1879 H 0.70039 0.59468 0.20036 0.0
C1880 C 0.66393 0.55568 0.98359 0.0
C1881 C 0.67963 0.56321 0.95948 0.0
C1882 C 0.66182 0.55514 0.05656 0.0
C1883 C 0.67537 0.56222 0.10674 0.0
C1884 C 0.69103 0.56985 0.0825 0.0
H1885 H 0.69088 0.56859 0.56826 0.0
H1886 H 0.69392 0.56921 0.44003 0.0
C1887 C 0.69314 0.57039 1.00975 0.0
C1888 C 0.67323 0.56103 0.18426 0.0
H1889 H 0.68254 0.58283 0.34284 0.0
C1890 C 0.66525 0.54613 0.21022 0.0
C1891 C 0.67943 0.57442 0.23276 0.0
C1892 C 0.68745 0.59073 0.20811 0.0
C1893 C 0.66362 0.54427 0.28327 0.0
C1894 C 0.6699 0.55767 0.33178 0.0
C1895 C 0.67782 0.57256 0.3058 0.0
C1896 C 0.66806 0.55651 0.40949 0.0
C1897 C 0.65551 0.52798 0.30801 0.0
C1898 C 0.65253 0.54915 0.43514 0.0
C1899 C 0.65078 0.54878 0.50823 0.0
C1900 C 0.66451 0.55584 0.55734 0.0
C1901 C 0.68007 0.56301 0.53174 0.0
C1902 C 0.68182 0.56341 0.45849 0.0
H1903 H 0.65543 0.51941 0.26772 0.0
H1904 H 0.66172 0.52762 0.35847 0.0
H1905 H 0.6427 0.52424 0.31744 0.0
H1906 H 0.64174 0.544 0.39862 0.0
H1907 H 0.63863 0.54323 0.52629 0.0
H1908 H 0.462 0.11023 0.51261 0.0
H1909 H 0.4628 0.11428 0.38618 0.0
H1910 H 0.45877 0.15536 0.42845 0.0
H1911 H 0.45866 0.15161 0.55597 0.0
H1912 H 0.4418 0.11354 0.29274 0.0
H1913 H 0.4954 0.1732 0.30479 0.0
H1914 H 0.48989 0.16177 0.38083 0.0
H1915 H 0.47972 0.17232 0.35675 0.0
C1916 C 0.46145 0.12024 0.49511 0.0
C1917 C 0.46045 0.13071 0.54458 0.0
C1918 C 0.46186 0.12253 0.42249 0.0
C1919 C 0.46113 0.1353 0.39686 0.0
C1920 C 0.45988 0.14568 0.44633 0.0
H1921 H 0.44986 0.15964 0.96832 0.0
H1922 H 0.44978 0.15617 0.09576 0.0
C1923 C 0.45971 0.1435 0.51943 0.0
C1924 C 0.46118 0.13728 0.31843 0.0
H1925 H 0.47981 0.16333 0.19339 0.0
C1926 C 0.45022 0.12443 0.27132 0.0
C1927 C 0.47218 0.15143 0.28943 0.0
C1928 C 0.48507 0.16541 0.33549 0.0
C1929 C 0.44981 0.12539 0.19715 0.0
C1930 C 0.46057 0.13959 0.16861 0.0
C1931 C 0.4715 0.15245 0.21527 0.0
C1932 C 0.46045 0.14137 0.09051 0.0
C1933 C 0.43769 0.11129 0.1495 0.0
C1934 C 0.46651 0.13422 0.0447 0.0
C1935 C 0.46672 0.13632 0.97159 0.0
C1936 C 0.46072 0.14548 0.94268 0.0
C1937 C 0.45452 0.15247 0.98865 0.0
C1938 C 0.45449 0.15052 0.06166 0.0
H1939 H 0.42877 0.10178 0.17997 0.0
H1940 H 0.43098 0.11461 0.11102 0.0
H1941 H 0.44425 0.10668 0.11862 0.0
H1942 H 0.47128 0.12719 0.06569 0.0
H1943 H 0.47176 0.13093 0.93793 0.0
H1944 H 0.92225 0.36133 0.9496 0.0
H1945 H 0.92568 0.36313 0.08013 0.0
H1946 H 0.88115 0.36424 0.09201 0.0
H1947 H 0.87765 0.36245 0.96213 0.0
H1948 H 0.91645 0.38939 0.18553 0.0
H1949 H 0.88746 0.32515 0.2073 0.0
H1950 H 0.90041 0.33408 0.1365 0.0
H1951 H 0.88106 0.333 0.13645 0.0
C1952 C 0.9133 0.36212 0.98006 0.0
C1953 C 0.8997 0.36177 0.9455 0.0
C1954 C 0.91522 0.36307 0.05458 0.0
C1955 C 0.9036 0.36372 0.09572 0.0
C1956 C 0.89022 0.3637 0.06133 0.0
H1957 H 0.89032 0.35464 0.55272 0.0
H1958 H 0.88571 0.35255 0.42225 0.0
C1959 C 0.88826 0.36269 0.98708 0.0
C1960 C 0.90531 0.36436 0.17463 0.0
H1961 H 0.89716 0.34135 0.31399 0.0
C1962 C 0.91228 0.37891 0.2137 0.0
C1963 C 0.89958 0.35065 0.21122 0.0
C1964 C 0.89165 0.33476 0.17123 0.0
C1965 C 0.91388 0.38015 0.28845 0.0
C1966 C 0.90858 0.36646 0.32536 0.0
C1967 C 0.90129 0.35186 0.28605 0.0
C1968 C 0.91115 0.36719 0.40437 0.0
C1969 C 0.92103 0.39613 0.32717 0.0
C1970 C 0.92694 0.37576 0.43778 0.0
C1971 C 0.92954 0.377 0.5117 0.0
C1972 C 0.91645 0.36955 0.55438 0.0
C1973 C 0.90063 0.36055 0.5212 0.0
C1974 C 0.89801 0.35936 0.44672 0.0
H1975 H 0.91977 0.40446 0.29369 0.0
H1976 H 0.91512 0.39558 0.37706 0.0
H1977 H 0.93421 0.40086 0.34083 0.0
H1978 H 0.93733 0.38156 0.40659 0.0
H1979 H 0.9419 0.3839 0.53551 0.0
H1980 H 0.65549 0.13223 0.96394 0.0
H1981 H 0.6521 0.12795 0.09081 0.0
H1982 H 0.69531 0.17262 0.1459 0.0
H1983 H 0.69878 0.17679 1.02017 0.0
H1984 H 0.67351 0.12708 0.19807 0.0
H1985 H 0.66219 0.17573 0.26498 0.0
H1986 H 0.66108 0.16835 0.17463 0.0
H1987 H 0.68049 0.18158 0.22124 0.0
C1988 C 0.66434 0.14101 1.00309 0.0
C1989 C 0.67749 0.15476 0.98166 0.0
C1990 C 0.66235 0.13863 0.07576 0.0
C1991 C 0.67332 0.15006 0.12852 0.0
C1992 C 0.68646 0.16374 0.10682 0.0
H1993 H 0.6841 0.15931 0.59681 0.0
H1994 H 0.68752 0.16356 0.4698 0.0
C1995 C 0.68848 0.16607 0.03459 0.0
C1996 C 0.67135 0.1477 0.20611 0.0
H1997 H 0.66707 0.16383 0.36217 0.0
C1998 C 0.67198 0.13506 0.23378 0.0
C1999 C 0.66952 0.15816 0.25338 0.0
C2000 C 0.66813 0.17164 0.22712 0.0
C2001 C 0.67114 0.13277 0.30695 0.0
C2002 C 0.66922 0.14319 0.35425 0.0
C2003 C 0.66861 0.15584 0.32653 0.0
C2004 C 0.66725 0.14082 0.43191 0.0
C2005 C 0.67276 0.1194 0.33307 0.0
C2006 C 0.65457 0.12681 0.4536 0.0
C2007 C 0.65265 0.1244 0.52579 0.0
C2008 C 0.66322 0.13598 0.57872 0.0
C2009 C 0.67576 0.15016 0.55744 0.0
C2010 C 0.67771 0.15257 0.48476 0.0
H2011 H 0.67917 0.11573 0.2959 0.0
H2012 H 0.67948 0.12259 0.38629 0.0
H2013 H 0.66046 0.1092 0.33701 0.0
H2014 H 0.64603 0.1177 0.41454 0.0
H2015 H 0.64278 0.11338 0.54018 0.0
H2016 H 0.88401 0.57537 0.99154 0.0
H2017 H 0.8875 0.57605 0.12102 0.0
H2018 H 0.91586 0.55332 0.10018 0.0
H2019 H 0.91243 0.55265 0.9701 0.0
H2020 H 0.8901 0.53977 0.19755 0.0
H2021 H 0.92956 0.60402 0.25306 0.0
H2022 H 0.91136 0.59781 0.19639 0.0
H2023 H 0.92694 0.59424 0.16643 0.0
C2024 C 0.89113 0.57064 1.01447 0.0
C2025 C 0.89797 0.56399 0.97042 0.0
C2026 C 0.89314 0.57106 0.08863 0.0
C2027 C 0.90202 0.56481 0.12072 0.0
C2028 C 0.90896 0.55823 0.07685 0.0
H2029 H 0.93861 0.57594 0.55994 0.0
H2030 H 0.93431 0.57544 0.43135 0.0
C2031 C 0.90706 0.55792 1.00248 0.0
C2032 C 0.90371 0.56487 0.19985 0.0
H2033 H 0.91967 0.58916 0.35225 0.0
C2034 C 0.89657 0.55056 0.23139 0.0
C2035 C 0.9122 0.57894 0.24422 0.0
C2036 C 0.92059 0.59465 0.21359 0.0
C2037 C 0.89758 0.54997 0.30577 0.0
C2038 C 0.90588 0.56405 0.35021 0.0
C2039 C 0.91314 0.57835 0.31853 0.0
C2040 C 0.90811 0.56423 0.42927 0.0
C2041 C 0.89007 0.53424 0.33623 0.0
C2042 C 0.89481 0.55822 0.47184 0.0
C2043 C 0.89727 0.55856 0.54611 0.0
C2044 C 0.91306 0.56489 0.5791 0.0
C2045 C 0.92628 0.57095 0.53633 0.0
C2046 C 0.92384 0.5707 0.46261 0.0
H2047 H 0.88699 0.52462 0.29499 0.0
H2048 H 0.89844 0.53411 0.3787 0.0
H2049 H 0.8787 0.53191 0.36007 0.0
H2050 H 0.88255 0.55336 0.44771 0.0
H2051 H 0.88685 0.55381 0.57755 0.0
H2052 H 0.48933 0.36159 1.00465 0.0
H2053 H 0.48662 0.36275 0.13236 0.0
H2054 H 0.44255 0.36446 0.09315 0.0
H2055 H 0.44504 0.36295 0.9647 0.0
H2056 H 0.48579 0.38479 0.2219 0.0
H2057 H 0.42785 0.32836 0.21961 0.0
H2058 H 0.43991 0.33401 0.14405 0.0
H2059 H 0.42702 0.34199 0.16251 0.0
C2060 C 0.47905 0.36221 1.02317 0.0
C2061 C 0.46735 0.36209 0.97457 0.0
C2062 C 0.47753 0.36289 0.09629 0.0
C2063 C 0.46423 0.36341 0.12264 0.0
C2064 C 0.45272 0.36371 0.07422 0.0
H2065 H 0.43551 0.36756 0.54989 0.0
H2066 H 0.4376 0.36633 0.42155 0.0
C2067 C 0.45423 0.36299 1.00082 0.0
C2068 C 0.46259 0.3637 0.20075 0.0
H2069 H 0.43778 0.3437 0.32936 0.0
C2070 C 0.47531 0.37578 0.24536 0.0
C2071 C 0.44893 0.35193 0.23162 0.0
C2072 C 0.4352 0.33825 0.18717 0.0
C2073 C 0.47464 0.37654 0.31954 0.0
C2074 C 0.461 0.36475 0.35039 0.0
C2075 C 0.44825 0.35271 0.30582 0.0
C2076 C 0.45957 0.36491 0.42862 0.0
C2077 C 0.48839 0.39017 0.36411 0.0
C2078 C 0.47102 0.36415 0.47561 0.0
C2079 C 0.46983 0.36484 0.54924 0.0
C2080 C 0.45715 0.36627 0.57721 0.0
C2081 C 0.44547 0.36656 0.53001 0.0
C2082 C 0.44664 0.36584 0.45658 0.0
H2083 H 0.49579 0.40006 0.33178 0.0
H2084 H 0.4837 0.39442 0.40727 0.0
H2085 H 0.49652 0.38637 0.38878 0.0
H2086 H 0.48091 0.36309 0.45535 0.0
H2087 H 0.47896 0.36449 0.58424 0.0
H2088 H 0.34133 0.89295 0.3981 0.0
H2089 H 0.33811 0.88872 0.52526 0.0
H2090 H 0.37773 0.93566 0.57979 0.0
H2091 H 0.38078 0.93995 0.45414 0.0
H2092 H 0.35955 0.89006 0.63358 0.0
H2093 H 0.34314 0.93535 0.69659 0.0
H2094 H 0.34326 0.92857 0.60659 0.0
H2095 H 0.36196 0.9429 0.65539 0.0
C2096 C 0.3493 0.90233 0.43737 0.0
C2097 C 0.36125 0.9168 0.41595 0.0
C2098 C 0.34746 0.89993 0.51007 0.0
C2099 C 0.35746 0.91198 0.56267 0.0
C2100 C 0.36956 0.92629 0.54085 0.0
H2101 H 0.36915 0.92146 0.03049 0.0
H2102 H 0.37245 0.92577 0.90358 0.0
C2103 C 0.37136 0.92869 0.46867 0.0
C2104 C 0.35561 0.90966 0.64028 0.0
H2105 H 0.34998 0.92503 0.79532 0.0
C2106 C 0.35733 0.89764 0.66873 0.0
C2107 C 0.35282 0.91958 0.68683 0.0
C2108 C 0.35003 0.93223 0.65977 0.0
C2109 C 0.35664 0.89548 0.74199 0.0
C2110 C 0.35392 0.90545 0.7885 0.0
C2111 C 0.3522 0.91746 0.76011 0.0
C2112 C 0.35204 0.9031 0.86599 0.0
C2113 C 0.35919 0.88271 0.7692 0.0
C2114 C 0.33937 0.8891 0.88759 0.0
C2115 C 0.33739 0.88675 0.95973 0.0
C2116 C 0.34793 0.89837 1.01263 0.0
C2117 C 0.36062 0.91244 0.99132 0.0
C2118 C 0.36257 0.91484 0.91867 0.0
H2119 H 0.36561 0.87914 0.7317 0.0
H2120 H 0.36629 0.88649 0.82164 0.0
H2121 H 0.34718 0.87229 0.77558 0.0
H2122 H 0.33086 0.87997 0.84847 0.0
H2123 H 0.32745 0.87577 0.97412 0.0
H2124 H 0.14307 0.451 0.95513 0.0
H2125 H 0.14406 0.45543 0.82915 0.0
H2126 H 0.15215 0.50184 0.87932 0.0
H2127 H 0.15163 0.49752 1.00656 0.0
H2128 H 0.12516 0.46073 0.74158 0.0
H2129 H 0.18773 0.51154 0.7499 0.0
H2130 H 0.18009 0.49994 0.82462 0.0
H2131 H 0.17487 0.51467 0.80673 0.0
C2132 C 0.14519 0.46221 0.93951 0.0
C2133 C 0.14736 0.47394 0.99103 0.0
C2134 C 0.1457 0.46473 0.86716 0.0
C2135 C 0.14841 0.47905 0.84393 0.0
C2136 C 0.15045 0.4908 0.89542 0.0
H2137 H 0.15116 0.51323 0.42543 0.0
H2138 H 0.15027 0.50894 0.55174 0.0
C2139 C 0.15003 0.48831 0.96826 0.0
C2140 C 0.14866 0.48134 0.76587 0.0
H2141 H 0.17175 0.50476 0.64025 0.0
C2142 C 0.1354 0.47034 0.71957 0.0
C2143 C 0.16201 0.49382 0.73637 0.0
C2144 C 0.17705 0.50559 0.7818 0.0
C2145 C 0.135 0.4716 0.64558 0.0
C2146 C 0.1483 0.48412 0.61625 0.0
C2147 C 0.16154 0.49514 0.66241 0.0
C2148 C 0.14851 0.48632 0.53827 0.0
C2149 C 0.12015 0.4597 0.59955 0.0
C2150 C 0.1479 0.47508 0.48774 0.0
C2151 C 0.14843 0.47755 0.41487 0.0
C2152 C 0.14954 0.49127 0.39107 0.0
C2153 C 0.15019 0.50247 0.44177 0.0
C2154 C 0.14973 0.50005 0.51425 0.0
H2155 H 0.10956 0.45307 0.6312 0.0
H2156 H 0.11671 0.46542 0.55848 0.0
H2157 H 0.12287 0.45122 0.57208 0.0
H2158 H 0.14731 0.46453 0.50472 0.0
H2159 H 0.14831 0.46889 0.37752 0.0
H2160 H 0.56372 0.7253 1.01848 0.0
H2161 H 0.56401 0.72159 0.89017 0.0
H2162 H 0.56993 0.68166 0.91723 0.0
H2163 H 0.56956 0.68536 0.04669 0.0
H2164 H 0.59086 0.70223 0.82095 0.0
H2165 H 0.52744 0.68813 0.75367 0.0
H2166 H 0.53943 0.70612 0.80783 0.0
H2167 H 0.53493 0.68791 0.84279 0.0
C2168 C 0.56506 0.71569 0.9973 0.0
C2169 C 0.5667 0.70567 0.04315 0.0
C2170 C 0.56512 0.71352 0.92359 0.0
C2171 C 0.56673 0.70119 0.89328 0.0
C2172 C 0.5686 0.69124 0.93899 0.0
H2173 H 0.57267 0.67078 0.46032 0.0
H2174 H 0.57213 0.67437 0.58846 0.0
C2175 C 0.56848 0.69339 1.01314 0.0
C2176 C 0.56673 0.69899 0.81419 0.0
H2177 H 0.54415 0.6931 0.65741 0.0
C2178 C 0.58059 0.70012 0.7853 0.0
C2179 C 0.55342 0.69637 0.76708 0.0
C2180 C 0.5379 0.69442 0.79427 0.0
C2181 C 0.58163 0.69902 0.71124 0.0
C2182 C 0.56829 0.69634 0.66407 0.0
C2183 C 0.55443 0.69522 0.69301 0.0
C2184 C 0.56828 0.69411 0.58492 0.0
C2185 C 0.59724 0.70116 0.68429 0.0
C2186 C 0.5657 0.70361 0.53886 0.0
C2187 C 0.56585 0.70146 0.46471 0.0
C2188 C 0.56848 0.68968 0.43515 0.0
C2189 C 0.57074 0.68004 0.48124 0.0
C2190 C 0.57056 0.68217 0.55487 0.0
H2191 H 0.60771 0.70782 0.72453 0.0
H2192 H 0.596 0.68952 0.67244 0.0
H2193 H 0.60003 0.70738 0.63495 0.0
H2194 H 0.56377 0.71284 0.56033 0.0
H2195 H 0.56405 0.70907 0.43069 0.0
H2196 H 0.3331 0.4489 0.97517 0.0
H2197 H 0.33632 0.45289 0.84957 0.0
H2198 H 0.36292 0.50285 0.89952 0.0
H2199 H 0.36023 0.4988 0.02682 0.0
H2200 H 0.32545 0.46575 0.76276 0.0
H2201 H 0.39279 0.49888 0.7697 0.0
H2202 H 0.38217 0.48941 0.84525 0.0
H2203 H 0.38478 0.50812 0.82559 0.0
C2204 C 0.33975 0.46077 0.95962 0.0
C2205 C 0.34647 0.47355 1.01099 0.0
C2206 C 0.34157 0.46304 0.8875 0.0
C2207 C 0.35005 0.47816 0.86436 0.0
C2208 C 0.35668 0.49103 0.91568 0.0
H2209 H 0.35819 0.51125 0.44357 0.0
H2210 H 0.35618 0.50734 0.57016 0.0
C2211 C 0.35504 0.48874 0.98846 0.0
C2212 C 0.35138 0.48018 0.78644 0.0
H2213 H 0.37836 0.49691 0.65994 0.0
C2214 C 0.33707 0.4725 0.74051 0.0
C2215 C 0.36651 0.4889 0.75664 0.0
C2216 C 0.38245 0.49667 0.80171 0.0
C2217 C 0.33745 0.47343 0.66652 0.0
C2218 C 0.35251 0.48233 0.6372 0.0
C2219 C 0.36682 0.49005 0.68263 0.0
C2220 C 0.3535 0.48433 0.5597 0.0
C2221 C 0.32176 0.46509 0.6198 0.0
C2222 C 0.35257 0.47262 0.51142 0.0
C2223 C 0.35383 0.47486 0.43855 0.0
C2224 C 0.35593 0.48881 0.41291 0.0
C2225 C 0.35659 0.50036 0.46147 0.0
C2226 C 0.35548 0.49818 0.53398 0.0
H2227 H 0.31093 0.45936 0.65099 0.0
H2228 H 0.32061 0.4735 0.58655 0.0
H2229 H 0.3219 0.45605 0.5834 0.0
H2230 H 0.35103 0.46182 0.53024 0.0
H2231 H 0.35332 0.46577 0.40253 0.0
H2232 H 0.58055 0.93233 0.09198 0.0
H2233 H 0.58161 0.9362 0.96414 0.0
H2234 H 0.53753 0.89172 0.9201 0.0
H2235 H 0.53637 0.88788 0.04686 0.0
H2236 H 0.58303 0.91683 0.85047 0.0
H2237 H 0.52753 0.92156 0.81365 0.0
H2238 H 0.53759 0.92364 0.90006 0.0
H2239 H 0.52447 0.90454 0.85609 0.0
C2240 C 0.57102 0.92347 0.05499 0.0
C2241 C 0.55835 0.90982 0.07968 0.0
C2242 C 0.57167 0.92564 0.98189 0.0
C2243 C 0.55956 0.91431 0.93216 0.0
C2244 C 0.54688 0.90076 0.95709 0.0
H2245 H 0.56248 0.90319 0.46792 0.0
H2246 H 0.56119 0.89919 0.59568 0.0
C2247 C 0.54627 0.89856 0.02978 0.0
C2248 C 0.56024 0.91639 0.85418 0.0
H2249 H 0.53898 0.91878 0.70887 0.0
C2250 C 0.57342 0.9173 0.81957 0.0
C2251 C 0.54776 0.91709 0.81354 0.0
C2252 C 0.5336 0.9168 0.84766 0.0
C2253 C 0.57432 0.91864 0.7457 0.0
C2254 C 0.56165 0.91898 0.70488 0.0
C2255 C 0.5486 0.91831 0.73971 0.0
C2256 C 0.56215 0.92098 0.62681 0.0
C2257 C 0.589 0.92001 0.71207 0.0
C2258 C 0.56275 0.93433 0.60122 0.0
C2259 C 0.56347 0.93659 0.52863 0.0
C2260 C 0.56339 0.92547 0.47933 0.0
C2261 C 0.56248 0.91193 0.50448 0.0
C2262 C 0.56189 0.90971 0.57759 0.0
H2263 H 0.59913 0.92276 0.7523 0.0
H2264 H 0.58558 0.90876 0.68217 0.0
H2265 H 0.59341 0.92925 0.67405 0.0
H2266 H 0.56292 0.94318 0.63771 0.0
H2267 H 0.56416 0.94716 0.5111 0.0
H2268 H 0.14459 0.66954 0.50107 0.0
H2269 H 0.14376 0.67304 0.6292 0.0
H2270 H 0.13618 0.71195 0.60034 0.0
H2271 H 0.13702 0.70843 0.47127 0.0
H2272 H 0.16359 0.69818 0.72345 0.0
H2273 H 0.09992 0.68572 0.72584 0.0
H2274 H 0.10766 0.68119 0.64842 0.0
H2275 H 0.11236 0.70092 0.67081 0.0
C2276 C 0.14262 0.67879 0.52182 0.0
C2277 C 0.14062 0.68856 0.47563 0.0
C2278 C 0.14219 0.6808 0.59536 0.0
C2279 C 0.13968 0.69262 0.62506 0.0
C2280 C 0.13776 0.7025 0.57903 0.0
H2281 H 0.13311 0.72213 0.05713 0.0
H2282 H 0.13416 0.71866 0.92927 0.0
C2283 C 0.13822 0.70049 0.50508 0.0
C2284 C 0.13948 0.69466 0.70412 0.0
H2285 H 0.11581 0.69438 0.83572 0.0
C2286 C 0.15311 0.69731 0.74795 0.0
C2287 C 0.12584 0.69352 0.73662 0.0
C2288 C 0.11054 0.69005 0.69321 0.0
C2289 C 0.15362 0.69914 0.82266 0.0
C2290 C 0.13995 0.69795 0.85525 0.0
C2291 C 0.12631 0.69527 0.81132 0.0
C2292 C 0.13971 0.70002 0.93437 0.0
C2293 C 0.16901 0.70281 0.86577 0.0
C2294 C 0.14242 0.69068 0.98105 0.0
C2295 C 0.14195 0.69275 0.05499 0.0
C2296 C 0.13857 0.70409 0.08367 0.0
C2297 C 0.13578 0.71331 0.03692 0.0
C2298 C 0.13633 0.7113 0.96349 0.0
H2299 H 0.17965 0.70756 0.83317 0.0
H2300 H 0.17168 0.71141 0.91145 0.0
H2301 H 0.16752 0.69192 0.88669 0.0
H2302 H 0.14468 0.68163 0.96034 0.0
H2303 H 0.144 0.68537 0.0895 0.0
loop_
_geom_bond_atom_site_label_1
_geom_bond_atom_site_label_2
_geom_bond_distance
_geom_bond_site_symmetry_2
_ccdc_geom_bond_type
Tb0 O3 2.453 1_655 S
Tb0 O4 2.596 1_655 S
Tb0 O5 2.374 1_655 S
Tb0 O13 2.343 1_655 S
Tb0 O15 2.353 . S
Tb0 O17 2.427 . S
Tb0 O18 2.513 . S
C1 O5 1.251 . S
C1 O7 1.263 . S
Tb2 O4 2.343 . S
Tb2 O7 2.353 . S
Tb2 O10 2.427 . S
Tb2 O11 2.513 . S
Tb2 O12 2.453 . S
Tb2 O13 2.596 . S
Tb2 O14 2.374 . S
O3 Tb0 2.453 1_455 S
O3 C19 1.245 . S
O4 Tb0 2.596 1_455 S
O4 Tb2 2.343 . S
O4 C19 1.259 . S
O5 Tb0 2.374 1_455 S
O5 C1 1.251 . S
C6 O10 1.275 . S
C6 O11 1.246 . S
O7 C1 1.263 . S
O7 Tb2 2.353 . S
C8 O12 1.245 . S
C8 O13 1.259 . S
C9 O14 1.250 1_655 S
C9 O15 1.263 . S
O10 Tb2 2.427 . S
O10 C6 1.275 . S
O11 Tb2 2.513 . S
O11 C6 1.246 . S
O12 Tb2 2.453 . S
O12 C8 1.245 . S
O13 Tb0 2.343 1_455 S
O13 Tb2 2.596 . S
O13 C8 1.259 . S
O14 Tb2 2.374 . S
O14 C9 1.250 1_455 S
O15 Tb0 2.353 . S
O15 C9 1.263 . S
C16 O17 1.275 . S
C16 O18 1.246 . S
O17 Tb0 2.427 . S
O17 C16 1.275 . S
O18 Tb0 2.513 . S
O18 C16 1.246 . S
C19 O3 1.245 . S
C19 O4 1.259 . S
Tb20 O23 2.453 . S
Tb20 O24 2.596 . S
Tb20 O25 2.374 . S
Tb20 O33 2.343 . S
Tb20 O35 2.353 . S
Tb20 O37 2.427 . S
Tb20 O38 2.513 . S
C21 O25 1.251 . S
C21 O27 1.263 . S
Tb22 O24 2.343 . S
Tb22 O27 2.353 . S
Tb22 O30 2.427 . S
Tb22 O31 2.513 . S
Tb22 O32 2.453 . S
Tb22 O33 2.596 . S
Tb22 O34 2.374 . S
O23 Tb20 2.453 . S
O23 C39 1.245 . S
O24 Tb20 2.596 . S
O24 Tb22 2.343 . S
O24 C39 1.259 . S
O25 Tb20 2.374 . S
O25 C21 1.251 . S
C26 O30 1.275 . S
C26 O31 1.246 . S
O27 C21 1.263 . S
O27 Tb22 2.353 . S
C28 O32 1.245 . S
C28 O33 1.259 . S
C29 O34 1.250 . S
C29 O35 1.263 . S
O30 Tb22 2.427 . S
O30 C26 1.275 . S
O31 Tb22 2.513 . S
O31 C26 1.246 . S
O32 Tb22 2.453 . S
O32 C28 1.245 . S
O33 Tb20 2.343 . S
O33 Tb22 2.596 . S
O33 C28 1.259 . S
O34 Tb22 2.374 . S
O34 C29 1.250 . S
O35 Tb20 2.353 . S
O35 C29 1.263 . S
C36 O37 1.275 . S
C36 O38 1.246 . S
O37 Tb20 2.427 . S
O37 C36 1.275 . S
O38 Tb20 2.513 . S
O38 C36 1.246 . S
C39 O23 1.245 . S
C39 O24 1.259 . S
Tb40 O43 2.453 . S
Tb40 O44 2.596 . S
Tb40 O45 2.374 . S
Tb40 O53 2.343 . S
Tb40 O55 2.353 . S
Tb40 O57 2.427 . S
Tb40 O58 2.513 . S
C41 O45 1.251 1_565 S
C41 O47 1.263 . S
Tb42 O44 2.343 . S
Tb42 O47 2.353 1_545 S
Tb42 O50 2.427 1_545 S
Tb42 O51 2.509 1_545 S
Tb42 O52 2.453 . S
Tb42 O53 2.596 . S
Tb42 O54 2.374 . S
O43 Tb40 2.453 . S
O43 C59 1.245 . S
O44 Tb40 2.596 . S
O44 Tb42 2.343 . S
O44 C59 1.259 . S
O45 Tb40 2.374 . S
O45 C41 1.251 1_545 S
C46 O50 1.275 . S
C46 O51 1.251 . S
O47 C41 1.263 . S
O47 Tb42 2.353 1_565 S
C48 O52 1.245 . S
C48 O53 1.259 . S
C49 O54 1.250 . S
C49 O55 1.263 . S
O50 Tb42 2.427 1_565 S
O50 C46 1.275 . S
O51 Tb42 2.509 1_565 S
O51 C46 1.251 . S
O52 Tb42 2.453 . S
O52 C48 1.245 . S
O53 Tb40 2.343 . S
O53 Tb42 2.596 . S
O53 C48 1.259 . S
O54 Tb42 2.374 . S
O54 C49 1.250 . S
O55 Tb40 2.353 . S
O55 C49 1.263 . S
C56 O57 1.275 . S
C56 O58 1.246 . S
O57 Tb40 2.427 . S
O57 C56 1.275 . S
O58 Tb40 2.513 . S
O58 C56 1.246 . S
C59 O43 1.245 . S
C59 O44 1.259 . S
Tb60 O63 2.453 . S
Tb60 O64 2.596 1_655 S
Tb60 O65 2.374 1_655 S
Tb60 O73 2.343 1_655 S
Tb60 O75 2.353 . S
Tb60 O77 2.427 . S
Tb60 O78 2.513 . S
C61 O65 1.251 . S
C61 O67 1.263 . S
Tb62 O64 2.343 . S
Tb62 O67 2.353 . S
Tb62 O70 2.427 . S
Tb62 O71 2.513 . S
Tb62 O72 2.453 . S
Tb62 O73 2.596 . S
Tb62 O74 2.435 . S
O63 Tb60 2.453 . S
O63 C79 1.245 1_655 S
O64 Tb60 2.596 1_455 S
O64 Tb62 2.343 . S
O64 C79 1.259 . S
O65 Tb60 2.374 1_455 S
O65 C61 1.251 . S
C66 O70 1.275 . S
C66 O71 1.246 . S
O67 C61 1.263 . S
O67 Tb62 2.353 . S
C68 O72 1.245 . S
C68 O73 1.259 . S
C69 O74 1.211 1_655 S
C69 O75 1.263 . S
O70 Tb62 2.427 . S
O70 C66 1.275 . S
O71 Tb62 2.513 . S
O71 C66 1.246 . S
O72 Tb62 2.453 . S
O72 C68 1.245 . S
O73 Tb60 2.343 1_455 S
O73 Tb62 2.596 . S
O73 C68 1.259 . S
O74 Tb62 2.435 . S
O74 C69 1.211 1_455 S
O75 Tb60 2.353 . S
O75 C69 1.263 . S
C76 O77 1.275 . S
C76 O78 1.246 . S
O77 Tb60 2.427 . S
O77 C76 1.275 . S
O78 Tb60 2.513 . S
O78 C76 1.246 . S
C79 O63 1.245 1_455 S
C79 O64 1.259 . S
Tb80 O83 2.453 . S
Tb80 O84 2.596 . S
Tb80 O85 2.374 . S
Tb80 O93 2.343 . S
Tb80 O95 2.353 . S
Tb80 O97 2.427 . S
Tb80 O98 2.513 . S
C81 O85 1.251 . S
C81 O87 1.263 . S
Tb82 O84 2.343 . S
Tb82 O87 2.353 . S
Tb82 O90 2.427 . S
Tb82 O91 2.513 . S
Tb82 O92 2.453 . S
Tb82 O93 2.596 . S
Tb82 O94 2.374 . S
O83 Tb80 2.453 . S
O83 C99 1.245 . S
O84 Tb80 2.596 . S
O84 Tb82 2.343 . S
O84 C99 1.259 . S
O85 Tb80 2.374 . S
O85 C81 1.251 . S
C86 O90 1.275 . S
C86 O91 1.246 . S
O87 C81 1.263 . S
O87 Tb82 2.353 . S
C88 O92 1.245 . S
C88 O93 1.259 . S
C89 O94 1.250 . S
C89 O95 1.263 . S
O90 Tb82 2.427 . S
O90 C86 1.275 . S
O91 Tb82 2.513 . S
O91 C86 1.246 . S
O92 Tb82 2.453 . S
O92 C88 1.245 . S
O93 Tb80 2.343 . S
O93 Tb82 2.596 . S
O93 C88 1.259 . S
O94 Tb82 2.374 . S
O94 C89 1.250 . S
O95 Tb80 2.353 . S
O95 C89 1.263 . S
C96 O97 1.275 . S
C96 O98 1.246 . S
O97 Tb80 2.427 . S
O97 C96 1.275 . S
O98 Tb80 2.513 . S
O98 C96 1.246 . S
C99 O83 1.245 . S
C99 O84 1.259 . S
Tb100 O103 2.453 . S
Tb100 O104 2.596 . S
Tb100 O105 2.374 . S
Tb100 O113 2.343 . S
Tb100 O115 2.353 . S
Tb100 O117 2.427 . S
Tb100 O118 2.513 . S
C101 O105 1.251 . S
C101 O107 1.263 1_545 S
Tb102 O104 2.343 . S
Tb102 O107 2.353 1_545 S
Tb102 O110 2.427 1_545 S
Tb102 O111 2.513 . S
Tb102 O112 2.453 . S
Tb102 O113 2.596 . S
Tb102 O114 2.374 . S
O103 Tb100 2.453 . S
O103 C119 1.245 . S
O104 Tb100 2.596 . S
O104 Tb102 2.343 . S
O104 C119 1.259 . S
O105 Tb100 2.374 . S
O105 C101 1.251 . S
C106 O110 1.275 . S
C106 O111 1.246 1_565 S
O107 C101 1.263 1_565 S
O107 Tb102 2.353 1_565 S
C108 O112 1.245 . S
C108 O113 1.259 . S
C109 O114 1.250 . S
C109 O115 1.263 . S
O110 Tb102 2.427 1_565 S
O110 C106 1.275 . S
O111 Tb102 2.513 . S
O111 C106 1.246 1_545 S
O112 Tb102 2.453 . S
O112 C108 1.245 . S
O113 Tb100 2.343 . S
O113 Tb102 2.596 . S
O113 C108 1.259 . S
O114 Tb102 2.374 . S
O114 C109 1.250 . S
O115 Tb100 2.353 . S
O115 C109 1.263 . S
C116 O117 1.275 . S
C116 O118 1.246 . S
O117 Tb100 2.427 . S
O117 C116 1.275 . S
O118 Tb100 2.513 . S
O118 C116 1.246 . S
C119 O103 1.245 . S
C119 O104 1.259 . S
Tb120 O123 2.453 . S
Tb120 O124 2.596 . S
Tb120 O125 2.374 . S
Tb120 O133 2.343 . S
Tb120 O135 2.353 . S
Tb120 O137 2.427 . S
Tb120 O138 2.513 . S
C121 O125 1.251 . S
C121 O127 1.263 . S
Tb122 O124 2.343 . S
Tb122 O127 2.353 . S
Tb122 O130 2.427 . S
Tb122 O131 2.513 . S
Tb122 O132 2.453 . S
Tb122 O133 2.596 . S
Tb122 O134 2.374 . S
O123 Tb120 2.453 . S
O123 C139 1.245 . S
O124 Tb120 2.596 . S
O124 Tb122 2.343 . S
O124 C139 1.259 . S
O125 Tb120 2.374 . S
O125 C121 1.251 . S
C126 O130 1.275 . S
C126 O131 1.246 . S
O127 C121 1.263 . S
O127 Tb122 2.353 . S
C128 O132 1.245 . S
C128 O133 1.259 . S
C129 O134 1.250 . S
C129 O135 1.263 . S
O130 Tb122 2.427 . S
O130 C126 1.275 . S
O131 Tb122 2.513 . S
O131 C126 1.246 . S
O132 Tb122 2.453 . S
O132 C128 1.245 . S
O133 Tb120 2.343 . S
O133 Tb122 2.596 . S
O133 C128 1.259 . S
O134 Tb122 2.374 . S
O134 C129 1.250 . S
O135 Tb120 2.353 . S
O135 C129 1.263 . S
C136 O137 1.275 . S
C136 O138 1.246 . S
O137 Tb120 2.427 . S
O137 C136 1.275 . S
O138 Tb120 2.513 . S
O138 C136 1.246 . S
C139 O123 1.245 . S
C139 O124 1.259 . S
Tb140 O143 2.453 . S
Tb140 O144 2.596 . S
Tb140 O145 2.374 . S
Tb140 O153 2.343 . S
Tb140 O155 2.353 . S
Tb140 O157 2.427 . S
Tb140 O158 2.513 . S
C141 O145 1.251 . S
C141 O147 1.263 . S
Tb142 O144 2.343 . S
Tb142 O147 2.353 . S
Tb142 O150 2.427 . S
Tb142 O151 2.513 . S
Tb142 O152 2.453 . S
Tb142 O153 2.596 . S
Tb142 O154 2.374 . S
O143 Tb140 2.453 . S
O143 C159 1.245 . S
O144 Tb140 2.596 . S
O144 Tb142 2.343 . S
O144 C159 1.259 . S
O145 Tb140 2.374 . S
O145 C141 1.251 . S
C146 O150 1.275 . S
C146 O151 1.246 . S
O147 C141 1.263 . S
O147 Tb142 2.353 . S
C148 O152 1.245 . S
C148 O153 1.259 . S
C149 O154 1.250 . S
C149 O155 1.263 . S
O150 Tb142 2.427 . S
O150 C146 1.275 . S
O151 Tb142 2.513 . S
O151 C146 1.246 . S
O152 Tb142 2.453 . S
O152 C148 1.245 . S
O153 Tb140 2.343 . S
O153 Tb142 2.596 . S
O153 C148 1.259 . S
O154 Tb142 2.374 . S
O154 C149 1.250 . S
O155 Tb140 2.353 . S
O155 C149 1.263 . S
C156 O157 1.275 . S
C156 O158 1.246 . S
O157 Tb140 2.427 . S
O157 C156 1.275 . S
O158 Tb140 2.513 . S
O158 C156 1.246 . S
C159 O143 1.245 . S
C159 O144 1.259 . S
Tb160 O163 2.453 . S
Tb160 O164 2.596 . S
Tb160 O165 2.374 . S
Tb160 O173 2.343 . S
Tb160 O175 2.353 . S
Tb160 O177 2.427 . S
Tb160 O178 2.513 . S
C161 O165 1.251 . S
C161 O167 1.263 . S
Tb162 O164 2.343 . S
Tb162 O167 2.353 . S
Tb162 O170 2.427 . S
Tb162 O171 2.513 . S
Tb162 O172 2.453 . S
Tb162 O173 2.596 . S
Tb162 O174 2.374 . S
O163 Tb160 2.453 . S
O163 C179 1.245 . S
O164 Tb160 2.596 . S
O164 Tb162 2.343 . S
O164 C179 1.259 . S
O165 Tb160 2.374 . S
O165 C161 1.251 . S
C166 O170 1.275 . S
C166 O171 1.246 . S
O167 C161 1.263 . S
O167 Tb162 2.353 . S
C168 O172 1.245 . S
C168 O173 1.259 . S
C169 O174 1.250 . S
C169 O175 1.263 . S
O170 Tb162 2.427 . S
O170 C166 1.275 . S
O171 Tb162 2.513 . S
O171 C166 1.246 . S
O172 Tb162 2.453 . S
O172 C168 1.245 . S
O173 Tb160 2.343 . S
O173 Tb162 2.596 . S
O173 C168 1.259 . S
O174 Tb162 2.374 . S
O174 C169 1.250 . S
O175 Tb160 2.353 . S
O175 C169 1.263 . S
C176 O177 1.275 . S
C176 O178 1.246 . S
O177 Tb160 2.427 . S
O177 C176 1.275 . S
O178 Tb160 2.513 . S
O178 C176 1.246 . S
C179 O163 1.245 . S
C179 O164 1.259 . S
Tb180 O183 2.453 . S
Tb180 O184 2.596 . S
Tb180 O185 2.374 . S
Tb180 O193 2.343 . S
Tb180 O195 2.353 . S
Tb180 O197 2.427 . S
Tb180 O198 2.513 . S
C181 O185 1.251 . S
C181 O187 1.263 . S
Tb182 O184 2.343 . S
Tb182 O187 2.353 . S
Tb182 O190 2.427 . S
Tb182 O191 2.513 . S
Tb182 O192 2.453 . S
Tb182 O193 2.596 . S
Tb182 O194 2.374 . S
O183 Tb180 2.453 . S
O183 C199 1.245 . S
O184 Tb180 2.596 . S
O184 Tb182 2.343 . S
O184 C199 1.259 . S
O185 Tb180 2.374 . S
O185 C181 1.251 . S
C186 O190 1.275 . S
C186 O191 1.246 . S
O187 C181 1.263 . S
O187 Tb182 2.353 . S
C188 O192 1.245 . S
C188 O193 1.259 . S
C189 O194 1.250 . S
C189 O195 1.263 . S
O190 Tb182 2.427 . S
O190 C186 1.275 . S
O191 Tb182 2.513 . S
O191 C186 1.246 . S
O192 Tb182 2.453 . S
O192 C188 1.245 . S
O193 Tb180 2.343 . S
O193 Tb182 2.596 . S
O193 C188 1.259 . S
O194 Tb182 2.374 . S
O194 C189 1.250 . S
O195 Tb180 2.353 . S
O195 C189 1.263 . S
C196 O197 1.275 . S
C196 O198 1.246 . S
O197 Tb180 2.427 . S
O197 C196 1.275 . S
O198 Tb180 2.513 . S
O198 C196 1.246 . S
C199 O183 1.245 . S
C199 O184 1.259 . S
Tb200 O203 2.453 . S
Tb200 O204 2.596 . S
Tb200 O205 2.374 . S
Tb200 O213 2.343 . S
Tb200 O215 2.353 . S
Tb200 O217 2.427 . S
Tb200 O218 2.513 . S
C201 O205 1.251 . S
C201 O207 1.263 . S
Tb202 O204 2.343 . S
Tb202 O207 2.353 . S
Tb202 O210 2.427 . S
Tb202 O211 2.513 . S
Tb202 O212 2.453 . S
Tb202 O213 2.596 . S
Tb202 O214 2.374 . S
O203 Tb200 2.453 . S
O203 C219 1.245 . S
O204 Tb200 2.596 . S
O204 Tb202 2.343 . S
O204 C219 1.259 . S
O205 Tb200 2.374 . S
O205 C201 1.251 . S
C206 O210 1.275 . S
C206 O211 1.246 . S
O207 C201 1.263 . S
O207 Tb202 2.353 . S
C208 O212 1.245 . S
C208 O213 1.259 . S
C209 O214 1.250 . S
C209 O215 1.263 . S
O210 Tb202 2.427 . S
O210 C206 1.275 . S
O211 Tb202 2.513 . S
O211 C206 1.246 . S
O212 Tb202 2.453 . S
O212 C208 1.245 . S
O213 Tb200 2.343 . S
O213 Tb202 2.596 . S
O213 C208 1.259 . S
O214 Tb202 2.374 . S
O214 C209 1.250 . S
O215 Tb200 2.353 . S
O215 C209 1.263 . S
C216 O217 1.275 . S
C216 O218 1.246 . S
O217 Tb200 2.427 . S
O217 C216 1.275 . S
O218 Tb200 2.513 . S
O218 C216 1.246 . S
C219 O203 1.245 . S
C219 O204 1.259 . S
Tb220 O223 2.453 . S
Tb220 O224 2.596 . S
Tb220 O225 2.374 . S
Tb220 O233 2.343 . S
Tb220 O235 2.353 . S
Tb220 O237 2.427 . S
Tb220 O238 2.513 . S
C221 O225 1.251 . S
C221 O227 1.263 . S
Tb222 O224 2.343 . S
Tb222 O227 2.353 . S
Tb222 O230 2.427 . S
Tb222 O231 2.513 . S
Tb222 O232 2.453 . S
Tb222 O233 2.596 . S
Tb222 O234 2.374 . S
O223 Tb220 2.453 . S
O223 C239 1.245 . S
O224 Tb220 2.596 . S
O224 Tb222 2.343 . S
O224 C239 1.259 . S
O225 Tb220 2.374 . S
O225 C221 1.251 . S
C226 O230 1.275 . S
C226 O231 1.246 . S
O227 C221 1.263 . S
O227 Tb222 2.353 . S
C228 O232 1.245 . S
C228 O233 1.259 . S
C229 O234 1.250 . S
C229 O235 1.263 . S
O230 Tb222 2.427 . S
O230 C226 1.275 . S
O231 Tb222 2.513 . S
O231 C226 1.246 . S
O232 Tb222 2.453 . S
O232 C228 1.245 . S
O233 Tb220 2.343 . S
O233 Tb222 2.596 . S
O233 C228 1.259 . S
O234 Tb222 2.374 . S
O234 C229 1.250 . S
O235 Tb220 2.353 . S
O235 C229 1.263 . S
C236 O237 1.275 . S
C236 O238 1.246 . S
O237 Tb220 2.427 . S
O237 C236 1.275 . S
O238 Tb220 2.513 . S
O238 C236 1.246 . S
C239 O223 1.245 . S
C239 O224 1.259 . S
Tb240 O243 2.453 . S
Tb240 O244 2.596 . S
Tb240 O245 2.374 . S
Tb240 O253 2.343 . S
Tb240 O255 2.353 . S
Tb240 O257 2.427 . S
Tb240 O258 2.513 . S
C241 O245 1.251 . S
C241 O247 1.263 . S
Tb242 O244 2.343 . S
Tb242 O247 2.353 . S
Tb242 O250 2.427 . S
Tb242 O251 2.513 . S
Tb242 O252 2.453 . S
Tb242 O253 2.596 . S
Tb242 O254 2.374 . S
O243 Tb240 2.453 . S
O243 C259 1.245 . S
O244 Tb240 2.596 . S
O244 Tb242 2.343 . S
O244 C259 1.259 . S
O245 Tb240 2.374 . S
O245 C241 1.251 . S
C246 O250 1.275 . S
C246 O251 1.246 . S
O247 C241 1.263 . S
O247 Tb242 2.353 . S
C248 O252 1.245 . S
C248 O253 1.259 . S
C249 O254 1.250 . S
C249 O255 1.263 . S
O250 Tb242 2.427 . S
O250 C246 1.275 . S
O251 Tb242 2.513 . S
O251 C246 1.246 . S
O252 Tb242 2.453 . S
O252 C248 1.245 . S
O253 Tb240 2.343 . S
O253 Tb242 2.596 . S
O253 C248 1.259 . S
O254 Tb242 2.374 . S
O254 C249 1.250 . S
O255 Tb240 2.353 . S
O255 C249 1.263 . S
C256 O257 1.275 . S
C256 O258 1.246 . S
O257 Tb240 2.427 . S
O257 C256 1.275 . S
O258 Tb240 2.513 . S
O258 C256 1.246 . S
C259 O243 1.245 . S
C259 O244 1.259 . S
Tb260 O263 2.453 . S
Tb260 O264 2.596 . S
Tb260 O265 2.374 . S
Tb260 O273 2.343 . S
Tb260 O275 2.353 . S
Tb260 O277 2.427 . S
Tb260 O278 2.513 . S
C261 O265 1.251 . S
C261 O267 1.263 . S
Tb262 O264 2.343 . S
Tb262 O267 2.353 . S
Tb262 O270 2.427 . S
Tb262 O271 2.513 . S
Tb262 O272 2.453 . S
Tb262 O273 2.596 . S
Tb262 O274 2.374 . S
O263 Tb260 2.453 . S
O263 C279 1.245 . S
O264 Tb260 2.596 . S
O264 Tb262 2.343 . S
O264 C279 1.259 . S
O265 Tb260 2.374 . S
O265 C261 1.251 . S
C266 O270 1.275 . S
C266 O271 1.246 . S
O267 C261 1.263 . S
O267 Tb262 2.353 . S
C268 O272 1.245 . S
C268 O273 1.259 . S
C269 O274 1.250 . S
C269 O275 1.263 . S
O270 Tb262 2.427 . S
O270 C266 1.275 . S
O271 Tb262 2.513 . S
O271 C266 1.246 . S
O272 Tb262 2.453 . S
O272 C268 1.245 . S
O273 Tb260 2.343 . S
O273 Tb262 2.596 . S
O273 C268 1.259 . S
O274 Tb262 2.374 . S
O274 C269 1.250 . S
O275 Tb260 2.353 . S
O275 C269 1.263 . S
C276 O277 1.275 . S
C276 O278 1.246 . S
O277 Tb260 2.427 . S
O277 C276 1.275 . S
O278 Tb260 2.513 . S
O278 C276 1.246 . S
C279 O263 1.245 . S
C279 O264 1.259 . S
Tb280 O283 2.453 . S
Tb280 O284 2.596 . S
Tb280 O285 2.374 . S
Tb280 O293 2.343 . S
Tb280 O295 2.353 . S
Tb280 O297 2.427 . S
Tb280 O298 2.513 . S
C281 O285 1.251 . S
C281 O287 1.263 . S
Tb282 O284 2.343 . S
Tb282 O287 2.353 . S
Tb282 O290 2.427 . S
Tb282 O291 2.513 . S
Tb282 O292 2.453 . S
Tb282 O293 2.596 . S
Tb282 O294 2.374 . S
O283 Tb280 2.453 . S
O283 C299 1.245 . S
O284 Tb280 2.596 . S
O284 Tb282 2.343 . S
O284 C299 1.259 . S
O285 Tb280 2.374 . S
O285 C281 1.251 . S
C286 O290 1.275 . S
C286 O291 1.246 . S
O287 C281 1.263 . S
O287 Tb282 2.353 . S
C288 O292 1.245 . S
C288 O293 1.259 . S
C289 O294 1.250 . S
C289 O295 1.263 . S
O290 Tb282 2.427 . S
O290 C286 1.275 . S
O291 Tb282 2.513 . S
O291 C286 1.246 . S
O292 Tb282 2.453 . S
O292 C288 1.245 . S
O293 Tb280 2.343 . S
O293 Tb282 2.596 . S
O293 C288 1.259 . S
O294 Tb282 2.374 . S
O294 C289 1.250 . S
O295 Tb280 2.353 . S
O295 C289 1.263 . S
C296 O297 1.275 . S
C296 O298 1.246 . S
O297 Tb280 2.427 . S
O297 C296 1.275 . S
O298 Tb280 2.513 . S
O298 C296 1.246 . S
C299 O283 1.245 . S
C299 O284 1.259 . S
Tb300 O303 2.453 . S
Tb300 O304 2.596 . S
Tb300 O305 2.374 . S
Tb300 O313 2.343 . S
Tb300 O315 2.353 . S
Tb300 O317 2.427 . S
Tb300 O318 2.513 . S
C301 O305 1.251 . S
C301 O307 1.263 . S
Tb302 O304 2.343 . S
Tb302 O307 2.353 . S
Tb302 O310 2.427 . S
Tb302 O311 2.513 . S
Tb302 O312 2.453 . S
Tb302 O313 2.596 . S
Tb302 O314 2.374 . S
O303 Tb300 2.453 . S
O303 C319 1.245 . S
O304 Tb300 2.596 . S
O304 Tb302 2.343 . S
O304 C319 1.259 . S
O305 Tb300 2.374 . S
O305 C301 1.251 . S
C306 O310 1.275 . S
C306 O311 1.246 . S
O307 C301 1.263 . S
O307 Tb302 2.353 . S
C308 O312 1.245 . S
C308 O313 1.259 . S
C309 O314 1.250 . S
C309 O315 1.263 . S
O310 Tb302 2.427 . S
O310 C306 1.275 . S
O311 Tb302 2.513 . S
O311 C306 1.246 . S
O312 Tb302 2.453 . S
O312 C308 1.245 . S
O313 Tb300 2.343 . S
O313 Tb302 2.596 . S
O313 C308 1.259 . S
O314 Tb302 2.374 . S
O314 C309 1.250 . S
O315 Tb300 2.353 . S
O315 C309 1.263 . S
C316 O317 1.275 . S
C316 O318 1.246 . S
O317 Tb300 2.427 . S
O317 C316 1.275 . S
O318 Tb300 2.513 . S
O318 C316 1.246 . S
C319 O303 1.245 . S
C319 O304 1.259 . S
Tb320 O323 2.453 . S
Tb320 O324 2.596 . S
Tb320 O325 2.374 . S
Tb320 O333 2.343 . S
Tb320 O335 2.353 . S
Tb320 O337 2.427 . S
Tb320 O338 2.513 . S
C321 O325 1.251 . S
C321 O327 1.263 . S
Tb322 O324 2.343 . S
Tb322 O327 2.353 . S
Tb322 O330 2.427 . S
Tb322 O331 2.513 . S
Tb322 O332 2.453 . S
Tb322 O333 2.596 . S
Tb322 O334 2.374 . S
O323 Tb320 2.453 . S
O323 C339 1.245 . S
O324 Tb320 2.596 . S
O324 Tb322 2.343 . S
O324 C339 1.259 . S
O325 Tb320 2.374 . S
O325 C321 1.251 . S
C326 O330 1.275 . S
C326 O331 1.246 . S
O327 C321 1.263 . S
O327 Tb322 2.353 . S
C328 O332 1.245 . S
C328 O333 1.259 . S
C329 O334 1.250 . S
C329 O335 1.263 . S
O330 Tb322 2.427 . S
O330 C326 1.275 . S
O331 Tb322 2.513 . S
O331 C326 1.246 . S
O332 Tb322 2.453 . S
O332 C328 1.245 . S
O333 Tb320 2.343 . S
O333 Tb322 2.596 . S
O333 C328 1.259 . S
O334 Tb322 2.374 . S
O334 C329 1.250 . S
O335 Tb320 2.353 . S
O335 C329 1.263 . S
C336 O337 1.275 . S
C336 O338 1.246 . S
O337 Tb320 2.427 . S
O337 C336 1.275 . S
O338 Tb320 2.513 . S
O338 C336 1.246 . S
C339 O323 1.245 . S
C339 O324 1.259 . S
Tb340 O343 2.453 . S
Tb340 O344 2.596 . S
Tb340 O345 2.374 . S
Tb340 O353 2.343 . S
Tb340 O355 2.353 . S
Tb340 O357 2.427 . S
Tb340 O358 2.513 . S
C341 O345 1.251 . S
C341 O347 1.263 . S
Tb342 O344 2.343 . S
Tb342 O347 2.353 . S
Tb342 O350 2.427 . S
Tb342 O351 2.513 . S
Tb342 O352 2.453 . S
Tb342 O353 2.596 . S
Tb342 O354 2.374 . S
O343 Tb340 2.453 . S
O343 C359 1.245 . S
O344 Tb340 2.596 . S
O344 Tb342 2.343 . S
O344 C359 1.259 . S
O345 Tb340 2.374 . S
O345 C341 1.251 . S
C346 O350 1.275 . S
C346 O351 1.246 . S
O347 C341 1.263 . S
O347 Tb342 2.353 . S
C348 O352 1.245 . S
C348 O353 1.259 . S
C349 O354 1.250 . S
C349 O355 1.263 . S
O350 Tb342 2.427 . S
O350 C346 1.275 . S
O351 Tb342 2.513 . S
O351 C346 1.246 . S
O352 Tb342 2.453 . S
O352 C348 1.245 . S
O353 Tb340 2.343 . S
O353 Tb342 2.596 . S
O353 C348 1.259 . S
O354 Tb342 2.374 . S
O354 C349 1.250 . S
O355 Tb340 2.353 . S
O355 C349 1.263 . S
C356 O357 1.275 . S
C356 O358 1.246 . S
O357 Tb340 2.427 . S
O357 C356 1.275 . S
O358 Tb340 2.513 . S
O358 C356 1.246 . S
C359 O343 1.245 . S
C359 O344 1.259 . S
H360 C368 0.929 . S
H361 C370 0.930 . S
H362 C372 0.930 . S
H363 C375 0.929 . S
H364 C378 0.930 . S
H365 C380 0.960 . S
H366 C380 0.960 . S
H367 C380 0.960 . S
C368 H360 0.929 . S
C368 C369 1.377 . S
C368 C370 1.384 . S
C369 C368 1.377 . S
C369 C375 1.390 . S
C370 H361 0.930 . S
C370 C368 1.384 . S
C370 C371 1.372 . S
C371 C370 1.372 . S
C371 C372 1.400 . S
C371 C376 1.490 . S
C372 H362 0.930 . S
C372 C371 1.400 . S
C372 C375 1.386 . S
H373 C389 0.930 . S
H374 C390 0.931 . S
C375 H363 0.929 . S
C375 C369 1.390 . S
C375 C372 1.386 . S
C376 C371 1.490 . S
C376 C378 1.395 . S
C376 C379 1.403 . S
H377 C383 0.930 . S
C378 H364 0.930 . S
C378 C376 1.395 . S
C378 C381 1.403 . S
C379 C376 1.403 . S
C379 C380 1.524 . S
C379 C383 1.400 . S
C380 H365 0.960 . S
C380 H366 0.960 . S
C380 H367 0.960 . S
C380 C379 1.524 . S
C381 C378 1.403 . S
C381 C382 1.392 . S
C381 C385 1.495 . S
C382 C381 1.392 . S
C382 C383 1.385 . S
C382 C384 1.478 . S
C383 H377 0.930 . S
C383 C379 1.400 . S
C383 C382 1.385 . S
C384 C382 1.478 . S
C384 C386 1.381 . S
C384 C390 1.383 . S
C385 C381 1.495 . S
C385 H391 0.959 . S
C385 H392 0.961 . S
C385 H393 0.960 . S
C386 C384 1.381 . S
C386 C387 1.394 . S
C386 H394 0.930 . S
C387 C386 1.394 . S
C387 C388 1.383 . S
C387 H395 0.929 . S
C388 C387 1.383 . S
C388 C389 1.377 . S
C389 H373 0.930 . S
C389 C388 1.377 . S
C389 C390 1.379 . S
C390 H374 0.931 . S
C390 C384 1.383 . S
C390 C389 1.379 . S
H391 C385 0.959 . S
H392 C385 0.961 . S
H393 C385 0.960 . S
H394 C386 0.930 . S
H395 C387 0.929 . S
H396 C404 0.929 . S
H397 C406 0.930 . S
H398 C408 0.930 . S
H399 C411 0.929 . S
H400 C414 0.930 . S
H401 C416 0.960 . S
H402 C416 0.960 . S
H403 C416 0.960 . S
C404 H396 0.929 . S
C404 C405 1.377 . S
C404 C406 1.384 . S
C405 C404 1.377 . S
C405 C411 1.390 . S
C406 H397 0.930 . S
C406 C404 1.384 . S
C406 C407 1.372 . S
C407 C406 1.372 . S
C407 C408 1.400 . S
C407 C412 1.490 . S
C408 H398 0.930 . S
C408 C407 1.400 . S
C408 C411 1.386 . S
H409 C425 0.930 . S
H410 C426 0.931 . S
C411 H399 0.929 . S
C411 C405 1.390 . S
C411 C408 1.386 . S
C412 C407 1.490 . S
C412 C414 1.395 . S
C412 C415 1.403 . S
H413 C419 0.930 . S
C414 H400 0.930 . S
C414 C412 1.395 . S
C414 C417 1.403 . S
C415 C412 1.403 . S
C415 C416 1.524 . S
C415 C419 1.400 . S
C416 H401 0.960 . S
C416 H402 0.960 . S
C416 H403 0.960 . S
C416 C415 1.524 . S
C417 C414 1.403 . S
C417 C418 1.392 . S
C417 C421 1.495 . S
C418 C417 1.392 . S
C418 C419 1.385 . S
C418 C420 1.478 . S
C419 H413 0.930 . S
C419 C415 1.400 . S
C419 C418 1.385 . S
C420 C418 1.478 . S
C420 C422 1.381 . S
C420 C426 1.383 . S
C421 C417 1.495 . S
C421 H427 0.959 . S
C421 H428 0.961 . S
C421 H429 0.960 . S
C422 C420 1.381 . S
C422 C423 1.394 . S
C422 H430 0.930 . S
C423 C422 1.394 . S
C423 C424 1.383 . S
C423 H431 0.929 . S
C424 C423 1.383 . S
C424 C425 1.377 . S
C425 H409 0.930 . S
C425 C424 1.377 . S
C425 C426 1.379 . S
C426 H410 0.931 . S
C426 C420 1.383 . S
C426 C425 1.379 . S
H427 C421 0.959 . S
H428 C421 0.961 . S
H429 C421 0.960 . S
H430 C422 0.930 . S
H431 C423 0.929 . S
H432 C440 0.929 . S
H433 C442 0.930 . S
H434 C444 0.930 . S
H435 C447 0.929 . S
H436 C450 0.930 . S
H437 C452 0.960 . S
H438 C452 0.960 . S
H439 C452 0.960 . S
C440 H432 0.929 . S
C440 C441 1.377 . S
C440 C442 1.384 . S
C441 C440 1.377 . S
C441 C447 1.390 . S
C442 H433 0.930 . S
C442 C440 1.384 . S
C442 C443 1.372 . S
C443 C442 1.372 . S
C443 C444 1.400 . S
C443 C448 1.490 . S
C444 H434 0.930 . S
C444 C443 1.400 . S
C444 C447 1.386 . S
H445 C461 0.930 . S
H446 C462 0.931 . S
C447 H435 0.929 . S
C447 C441 1.390 . S
C447 C444 1.386 . S
C448 C443 1.490 . S
C448 C450 1.395 . S
C448 C451 1.403 . S
H449 C455 0.930 . S
C450 H436 0.930 . S
C450 C448 1.395 . S
C450 C453 1.403 . S
C451 C448 1.403 . S
C451 C452 1.524 . S
C451 C455 1.400 . S
C452 H437 0.960 . S
C452 H438 0.960 . S
C452 H439 0.960 . S
C452 C451 1.524 . S
C453 C450 1.403 . S
C453 C454 1.392 . S
C453 C457 1.495 . S
C454 C453 1.392 . S
C454 C455 1.385 . S
C454 C456 1.478 . S
C455 H449 0.930 . S
C455 C451 1.400 . S
C455 C454 1.385 . S
C456 C454 1.478 . S
C456 C458 1.381 . S
C456 C462 1.383 . S
C457 C453 1.495 . S
C457 H463 0.959 . S
C457 H464 0.961 . S
C457 H465 0.960 . S
C458 C456 1.381 . S
C458 C459 1.394 . S
C458 H466 0.930 . S
C459 C458 1.394 . S
C459 C460 1.383 . S
C459 H467 0.929 . S
C460 C459 1.383 . S
C460 C461 1.377 . S
C461 H445 0.930 . S
C461 C460 1.377 . S
C461 C462 1.379 . S
C462 H446 0.931 . S
C462 C456 1.383 . S
C462 C461 1.379 . S
H463 C457 0.959 . S
H464 C457 0.961 . S
H465 C457 0.960 . S
H466 C458 0.930 . S
H467 C459 0.929 . S
H468 C476 0.929 . S
H469 C478 0.930 . S
H470 C480 0.930 . S
H471 C483 0.929 . S
H472 C486 0.930 . S
H473 C488 0.960 . S
H474 C488 0.960 . S
H475 C488 0.960 . S
C476 H468 0.929 . S
C476 C477 1.377 . S
C476 C478 1.384 . S
C477 C476 1.377 . S
C477 C483 1.390 . S
C478 H469 0.930 . S
C478 C476 1.384 . S
C478 C479 1.372 . S
C479 C478 1.372 . S
C479 C480 1.400 . S
C479 C484 1.490 . S
C480 H470 0.930 . S
C480 C479 1.400 . S
C480 C483 1.386 . S
H481 C497 0.930 . S
H482 C498 0.931 . S
C483 H471 0.929 . S
C483 C477 1.390 . S
C483 C480 1.386 . S
C484 C479 1.490 . S
C484 C486 1.395 . S
C484 C487 1.403 . S
H485 C491 0.930 . S
C486 H472 0.930 . S
C486 C484 1.395 . S
C486 C489 1.403 . S
C487 C484 1.403 . S
C487 C488 1.524 . S
C487 C491 1.400 . S
C488 H473 0.960 . S
C488 H474 0.960 . S
C488 H475 0.960 . S
C488 C487 1.524 . S
C489 C486 1.403 . S
C489 C490 1.392 . S
C489 C493 1.495 . S
C490 C489 1.392 . S
C490 C491 1.385 . S
C490 C492 1.478 . S
C491 H485 0.930 . S
C491 C487 1.400 . S
C491 C490 1.385 . S
C492 C490 1.478 . S
C492 C494 1.381 . S
C492 C498 1.383 . S
C493 C489 1.495 . S
C493 H499 0.959 . S
C493 H500 0.961 . S
C493 H501 0.960 . S
C494 C492 1.381 . S
C494 C495 1.394 . S
C494 H502 0.930 . S
C495 C494 1.394 . S
C495 C496 1.383 . S
C495 H503 0.929 . S
C496 C495 1.383 . S
C496 C497 1.377 . S
C497 H481 0.930 . S
C497 C496 1.377 . S
C497 C498 1.379 . S
C498 H482 0.931 . S
C498 C492 1.383 . S
C498 C497 1.379 . S
H499 C493 0.959 . S
H500 C493 0.961 . S
H501 C493 0.960 . S
H502 C494 0.930 . S
H503 C495 0.929 . S
H504 C512 0.929 . S
H505 C514 0.930 . S
H506 C516 0.930 . S
H507 C519 0.929 . S
H508 C522 0.930 . S
H509 C524 0.960 . S
H510 C524 0.960 . S
H511 C524 0.960 . S
C512 H504 0.929 . S
C512 C513 1.377 . S
C512 C514 1.384 . S
C513 C512 1.377 . S
C513 C519 1.390 . S
C514 H505 0.930 . S
C514 C512 1.384 . S
C514 C515 1.372 . S
C515 C514 1.372 . S
C515 C516 1.400 . S
C515 C520 1.490 . S
C516 H506 0.930 . S
C516 C515 1.400 . S
C516 C519 1.386 . S
H517 C533 0.930 . S
H518 C534 0.931 . S
C519 H507 0.929 . S
C519 C513 1.390 . S
C519 C516 1.386 . S
C520 C515 1.490 . S
C520 C522 1.395 . S
C520 C523 1.403 . S
H521 C527 0.930 . S
C522 H508 0.930 . S
C522 C520 1.395 . S
C522 C525 1.403 . S
C523 C520 1.403 . S
C523 C524 1.524 . S
C523 C527 1.400 . S
C524 H509 0.960 . S
C524 H510 0.960 . S
C524 H511 0.960 . S
C524 C523 1.524 . S
C525 C522 1.403 . S
C525 C526 1.392 . S
C525 C529 1.495 . S
C526 C525 1.392 . S
C526 C527 1.385 . S
C526 C528 1.478 . S
C527 H521 0.930 . S
C527 C523 1.400 . S
C527 C526 1.385 . S
C528 C526 1.478 . S
C528 C530 1.381 . S
C528 C534 1.383 . S
C529 C525 1.495 . S
C529 H535 0.959 . S
C529 H536 0.961 . S
C529 H537 0.960 . S
C530 C528 1.381 . S
C530 C531 1.394 . S
C530 H538 0.930 . S
C531 C530 1.394 . S
C531 C532 1.383 . S
C531 H539 0.929 . S
C532 C531 1.383 . S
C532 C533 1.377 . S
C533 H517 0.930 . S
C533 C532 1.377 . S
C533 C534 1.379 . S
C534 H518 0.931 . S
C534 C528 1.383 . S
C534 C533 1.379 . S
H535 C529 0.959 . S
H536 C529 0.961 . S
H537 C529 0.960 . S
H538 C530 0.930 . S
H539 C531 0.929 . S
H540 C548 0.929 . S
H541 C550 0.930 . S
H542 C552 0.930 . S
H543 C555 0.929 . S
H544 C558 0.930 . S
H545 C560 0.960 . S
H546 C560 0.960 . S
H547 C560 0.960 . S
C548 H540 0.929 . S
C548 C549 1.377 . S
C548 C550 1.384 . S
C549 C548 1.377 . S
C549 C555 1.390 . S
C550 H541 0.930 . S
C550 C548 1.384 . S
C550 C551 1.372 . S
C551 C550 1.372 . S
C551 C552 1.400 . S
C551 C556 1.490 . S
C552 H542 0.930 . S
C552 C551 1.400 . S
C552 C555 1.386 . S
H553 C569 0.930 . S
H554 C570 0.931 . S
C555 H543 0.929 . S
C555 C549 1.390 . S
C555 C552 1.386 . S
C556 C551 1.490 . S
C556 C558 1.395 . S
C556 C559 1.403 . S
H557 C563 0.930 . S
C558 H544 0.930 . S
C558 C556 1.395 . S
C558 C561 1.403 . S
C559 C556 1.403 . S
C559 C560 1.524 . S
C559 C563 1.400 . S
C560 H545 0.960 . S
C560 H546 0.960 . S
C560 H547 0.960 . S
C560 C559 1.524 . S
C561 C558 1.403 . S
C561 C562 1.392 . S
C561 C565 1.495 . S
C562 C561 1.392 . S
C562 C563 1.385 . S
C562 C564 1.478 . S
C563 H557 0.930 . S
C563 C559 1.400 . S
C563 C562 1.385 . S
C564 C562 1.478 . S
C564 C566 1.381 . S
C564 C570 1.383 . S
C565 C561 1.495 . S
C565 H571 0.959 . S
C565 H572 0.961 . S
C565 H573 0.960 . S
C566 C564 1.381 . S
C566 C567 1.394 . S
C566 H574 0.930 . S
C567 C566 1.394 . S
C567 C568 1.383 . S
C567 H575 0.929 . S
C568 C567 1.383 . S
C568 C569 1.377 . S
C569 H553 0.930 . S
C569 C568 1.377 . S
C569 C570 1.379 . S
C570 H554 0.931 . S
C570 C564 1.383 . S
C570 C569 1.379 . S
H571 C565 0.959 . S
H572 C565 0.961 . S
H573 C565 0.960 . S
H574 C566 0.930 . S
H575 C567 0.929 . S
H576 C584 0.929 . S
H577 C586 0.930 . S
H578 C588 0.930 . S
H579 C591 0.929 . S
H580 C594 0.930 . S
H581 C596 0.960 . S
H582 C596 0.960 . S
H583 C596 0.960 . S
C584 H576 0.929 . S
C584 C585 1.377 . S
C584 C586 1.384 . S
C585 C584 1.377 . S
C585 C591 1.390 . S
C586 H577 0.930 . S
C586 C584 1.384 . S
C586 C587 1.372 . S
C587 C586 1.372 . S
C587 C588 1.400 . S
C587 C592 1.490 . S
C588 H578 0.930 . S
C588 C587 1.400 . S
C588 C591 1.386 . S
H589 C605 0.930 . S
H590 C606 0.931 . S
C591 H579 0.929 . S
C591 C585 1.390 . S
C591 C588 1.386 . S
C592 C587 1.490 . S
C592 C594 1.395 . S
C592 C595 1.403 . S
H593 C599 0.930 . S
C594 H580 0.930 . S
C594 C592 1.395 . S
C594 C597 1.403 . S
C595 C592 1.403 . S
C595 C596 1.524 . S
C595 C599 1.400 . S
C596 H581 0.960 . S
C596 H582 0.960 . S
C596 H583 0.960 . S
C596 C595 1.524 . S
C597 C594 1.403 . S
C597 C598 1.392 . S
C597 C601 1.495 . S
C598 C597 1.392 . S
C598 C599 1.385 . S
C598 C600 1.478 . S
C599 H593 0.930 . S
C599 C595 1.400 . S
C599 C598 1.385 . S
C600 C598 1.478 . S
C600 C602 1.381 . S
C600 C606 1.383 . S
C601 C597 1.495 . S
C601 H607 0.959 . S
C601 H608 0.961 . S
C601 H609 0.960 . S
C602 C600 1.381 . S
C602 C603 1.394 . S
C602 H610 0.930 . S
C603 C602 1.394 . S
C603 C604 1.383 . S
C603 H611 0.929 . S
C604 C603 1.383 . S
C604 C605 1.377 . S
C605 H589 0.930 . S
C605 C604 1.377 . S
C605 C606 1.379 . S
C606 H590 0.931 . S
C606 C600 1.383 . S
C606 C605 1.379 . S
H607 C601 0.959 . S
H608 C601 0.961 . S
H609 C601 0.960 . S
H610 C602 0.930 . S
H611 C603 0.929 . S
H612 C620 0.929 . S
H613 C622 0.930 . S
H614 C624 0.930 . S
H615 C627 0.929 . S
H616 C630 0.930 . S
H617 C632 0.960 . S
H618 C632 0.960 . S
H619 C632 0.960 . S
C620 H612 0.929 . S
C620 C621 1.377 . S
C620 C622 1.384 . S
C621 C620 1.377 . S
C621 C627 1.390 . S
C622 H613 0.930 . S
C622 C620 1.384 . S
C622 C623 1.372 . S
C623 C622 1.372 . S
C623 C624 1.400 . S
C623 C628 1.490 . S
C624 H614 0.930 . S
C624 C623 1.400 . S
C624 C627 1.386 . S
H625 C641 0.930 . S
H626 C642 0.931 . S
C627 H615 0.929 . S
C627 C621 1.390 . S
C627 C624 1.386 . S
C628 C623 1.490 . S
C628 C630 1.395 . S
C628 C631 1.403 . S
H629 C635 0.930 . S
C630 H616 0.930 . S
C630 C628 1.395 . S
C630 C633 1.403 . S
C631 C628 1.403 . S
C631 C632 1.524 . S
C631 C635 1.400 . S
C632 H617 0.960 . S
C632 H618 0.960 . S
C632 H619 0.960 . S
C632 C631 1.524 . S
C633 C630 1.403 . S
C633 C634 1.392 . S
C633 C637 1.495 . S
C634 C633 1.392 . S
C634 C635 1.385 . S
C634 C636 1.478 . S
C635 H629 0.930 . S
C635 C631 1.400 . S
C635 C634 1.385 . S
C636 C634 1.478 . S
C636 C638 1.381 . S
C636 C642 1.383 . S
C637 C633 1.495 . S
C637 H643 0.959 . S
C637 H644 0.961 . S
C637 H645 0.960 . S
C638 C636 1.381 . S
C638 C639 1.394 . S
C638 H646 0.930 . S
C639 C638 1.394 . S
C639 C640 1.383 . S
C639 H647 0.929 . S
C640 C639 1.383 . S
C640 C641 1.377 . S
C641 H625 0.930 . S
C641 C640 1.377 . S
C641 C642 1.379 . S
C642 H626 0.931 . S
C642 C636 1.383 . S
C642 C641 1.379 . S
H643 C637 0.959 . S
H644 C637 0.961 . S
H645 C637 0.960 . S
H646 C638 0.930 . S
H647 C639 0.929 . S
H648 C656 0.929 . S
H649 C658 0.930 . S
H650 C660 0.930 . S
H651 C663 0.929 . S
H652 C666 0.930 . S
H653 C668 0.960 . S
H654 C668 0.960 . S
H655 C668 0.960 . S
C656 H648 0.929 . S
C656 C657 1.377 . S
C656 C658 1.384 . S
C657 C656 1.377 . S
C657 C663 1.390 . S
C658 H649 0.930 . S
C658 C656 1.384 . S
C658 C659 1.372 . S
C659 C658 1.372 . S
C659 C660 1.400 . S
C659 C664 1.490 . S
C660 H650 0.930 . S
C660 C659 1.400 . S
C660 C663 1.386 . S
H661 C677 0.930 . S
H662 C678 0.931 . S
C663 H651 0.929 . S
C663 C657 1.390 . S
C663 C660 1.386 . S
C664 C659 1.490 . S
C664 C666 1.395 . S
C664 C667 1.403 . S
H665 C671 0.930 . S
C666 H652 0.930 . S
C666 C664 1.395 . S
C666 C669 1.403 . S
C667 C664 1.403 . S
C667 C668 1.524 . S
C667 C671 1.400 . S
C668 H653 0.960 . S
C668 H654 0.960 . S
C668 H655 0.960 . S
C668 C667 1.524 . S
C669 C666 1.403 . S
C669 C670 1.392 . S
C669 C673 1.495 . S
C670 C669 1.392 . S
C670 C671 1.385 . S
C670 C672 1.478 . S
C671 H665 0.930 . S
C671 C667 1.400 . S
C671 C670 1.385 . S
C672 C670 1.478 . S
C672 C674 1.381 . S
C672 C678 1.383 . S
C673 C669 1.495 . S
C673 H679 0.959 . S
C673 H680 0.961 . S
C673 H681 0.960 . S
C674 C672 1.381 . S
C674 C675 1.394 . S
C674 H682 0.930 . S
C675 C674 1.394 . S
C675 C676 1.383 . S
C675 H683 0.929 . S
C676 C675 1.383 . S
C676 C677 1.377 . S
C677 H661 0.930 . S
C677 C676 1.377 . S
C677 C678 1.379 . S
C678 H662 0.931 . S
C678 C672 1.383 . S
C678 C677 1.379 . S
H679 C673 0.959 . S
H680 C673 0.961 . S
H681 C673 0.960 . S
H682 C674 0.930 . S
H683 C675 0.929 . S
H684 C692 0.929 . S
H685 C694 0.930 . S
H686 C696 0.930 . S
H687 C699 0.929 . S
H688 C702 0.930 . S
H689 C704 0.960 . S
H690 C704 0.960 . S
H691 C704 0.960 . S
C692 H684 0.929 . S
C692 C693 1.377 . S
C692 C694 1.384 . S
C693 C692 1.377 . S
C693 C699 1.390 . S
C694 H685 0.930 . S
C694 C692 1.384 . S
C694 C695 1.372 . S
C695 C694 1.372 . S
C695 C696 1.400 . S
C695 C700 1.490 . S
C696 H686 0.930 . S
C696 C695 1.400 . S
C696 C699 1.386 . S
H697 C713 0.930 . S
H698 C714 0.931 . S
C699 H687 0.929 . S
C699 C693 1.390 . S
C699 C696 1.386 . S
C700 C695 1.490 . S
C700 C702 1.395 . S
C700 C703 1.403 . S
H701 C707 0.930 . S
C702 H688 0.930 . S
C702 C700 1.395 . S
C702 C705 1.403 . S
C703 C700 1.403 . S
C703 C704 1.524 . S
C703 C707 1.400 . S
C704 H689 0.960 . S
C704 H690 0.960 . S
C704 H691 0.960 . S
C704 C703 1.524 . S
C705 C702 1.403 . S
C705 C706 1.392 . S
C705 C709 1.495 . S
C706 C705 1.392 . S
C706 C707 1.385 . S
C706 C708 1.478 . S
C707 H701 0.930 . S
C707 C703 1.400 . S
C707 C706 1.385 . S
C708 C706 1.478 . S
C708 C710 1.381 . S
C708 C714 1.383 . S
C709 C705 1.495 . S
C709 H715 0.959 . S
C709 H716 0.961 . S
C709 H717 0.960 1_565 S
C710 C708 1.381 . S
C710 C711 1.393 . S
C710 H718 0.930 . S
C711 C710 1.393 . S
C711 C712 1.399 . S
C711 H719 0.916 1_565 S
C712 C711 1.399 . S
C712 C713 1.377 . S
C713 H697 0.930 . S
C713 C712 1.377 . S
C713 C714 1.379 . S
C714 H698 0.931 . S
C714 C708 1.383 . S
C714 C713 1.379 . S
H715 C709 0.959 . S
H716 C709 0.961 . S
H717 C709 0.960 1_545 S
H718 C710 0.930 . S
H719 C711 0.916 1_545 S
H720 C728 0.929 . S
H721 C730 0.930 . S
H722 C732 0.930 . S
H723 C735 0.929 . S
H724 C738 0.930 . S
H725 C740 0.960 . S
H726 C740 0.960 . S
H727 C740 0.960 . S
C728 H720 0.929 . S
C728 C729 1.377 . S
C728 C730 1.384 . S
C729 C728 1.377 . S
C729 C735 1.390 . S
C730 H721 0.930 . S
C730 C728 1.384 . S
C730 C731 1.372 . S
C731 C730 1.372 . S
C731 C732 1.400 . S
C731 C736 1.490 . S
C732 H722 0.930 . S
C732 C731 1.400 . S
C732 C735 1.386 . S
H733 C749 0.930 . S
H734 C750 0.931 . S
C735 H723 0.929 . S
C735 C729 1.390 . S
C735 C732 1.386 . S
C736 C731 1.490 . S
C736 C738 1.395 . S
C736 C739 1.403 . S
H737 C743 0.930 . S
C738 H724 0.930 . S
C738 C736 1.395 . S
C738 C741 1.403 . S
C739 C736 1.403 . S
C739 C740 1.524 . S
C739 C743 1.400 . S
C740 H725 0.960 . S
C740 H726 0.960 . S
C740 H727 0.960 . S
C740 C739 1.524 . S
C741 C738 1.403 . S
C741 C742 1.392 . S
C741 C745 1.495 . S
C742 C741 1.392 . S
C742 C743 1.385 . S
C742 C744 1.478 . S
C743 H737 0.930 . S
C743 C739 1.400 . S
C743 C742 1.385 . S
C744 C742 1.478 . S
C744 C746 1.381 . S
C744 C750 1.383 . S
C745 C741 1.495 . S
C745 H751 0.959 . S
C745 H752 0.961 . S
C745 H753 0.960 . S
C746 C744 1.381 . S
C746 C747 1.394 . S
C746 H754 0.930 . S
C747 C746 1.394 . S
C747 C748 1.383 . S
C747 H755 0.929 . S
C748 C747 1.383 . S
C748 C749 1.377 . S
C749 H733 0.930 . S
C749 C748 1.377 . S
C749 C750 1.379 . S
C750 H734 0.931 . S
C750 C744 1.383 . S
C750 C749 1.379 . S
H751 C745 0.959 . S
H752 C745 0.961 . S
H753 C745 0.960 . S
H754 C746 0.930 . S
H755 C747 0.929 . S
H756 C764 0.929 . S
H757 C766 0.930 . S
H758 C768 0.930 . S
H759 C771 0.929 . S
H760 C774 0.930 . S
H761 C776 0.960 . S
H762 C776 0.960 . S
H763 C776 0.960 . S
C764 H756 0.929 . S
C764 C765 1.377 . S
C764 C766 1.384 . S
C765 C764 1.377 . S
C765 C771 1.390 . S
C766 H757 0.930 . S
C766 C764 1.384 . S
C766 C767 1.372 . S
C767 C766 1.372 . S
C767 C768 1.400 . S
C767 C772 1.490 . S
C768 H758 0.930 . S
C768 C767 1.400 . S
C768 C771 1.386 . S
H769 C785 0.930 . S
H770 C786 0.931 . S
C771 H759 0.929 . S
C771 C765 1.390 . S
C771 C768 1.386 . S
C772 C767 1.490 . S
C772 C774 1.395 . S
C772 C775 1.403 . S
H773 C779 0.930 . S
C774 H760 0.930 . S
C774 C772 1.395 . S
C774 C777 1.403 . S
C775 C772 1.403 . S
C775 C776 1.524 . S
C775 C779 1.400 . S
C776 H761 0.960 . S
C776 H762 0.960 . S
C776 H763 0.960 . S
C776 C775 1.524 . S
C777 C774 1.403 . S
C777 C778 1.392 . S
C777 C781 1.495 . S
C778 C777 1.392 . S
C778 C779 1.385 . S
C778 C780 1.478 . S
C779 H773 0.930 . S
C779 C775 1.400 . S
C779 C778 1.385 . S
C780 C778 1.478 . S
C780 C782 1.381 . S
C780 C786 1.383 . S
C781 C777 1.495 . S
C781 H787 0.959 . S
C781 H788 0.961 . S
C781 H789 0.960 . S
C782 C780 1.381 . S
C782 C783 1.394 . S
C782 H790 0.930 . S
C783 C782 1.394 . S
C783 C784 1.383 . S
C783 H791 0.929 . S
C784 C783 1.383 . S
C784 C785 1.377 . S
C785 H769 0.930 . S
C785 C784 1.377 . S
C785 C786 1.379 . S
C786 H770 0.931 . S
C786 C780 1.383 . S
C786 C785 1.379 . S
H787 C781 0.959 . S
H788 C781 0.961 . S
H789 C781 0.960 . S
H790 C782 0.930 . S
H791 C783 0.929 . S
H792 C800 0.929 . S
H793 C802 0.930 . S
H794 C804 0.930 . S
H795 C807 0.929 . S
H796 C810 0.930 . S
H797 C812 0.960 . S
H798 C812 0.960 . S
H799 C812 0.960 . S
C800 H792 0.929 . S
C800 C801 1.377 . S
C800 C802 1.384 . S
C801 C800 1.377 . S
C801 C807 1.390 . S
C802 H793 0.930 . S
C802 C800 1.384 . S
C802 C803 1.395 . S
C803 C802 1.395 . S
C803 C804 1.400 . S
C803 C808 1.468 1_655 S
C804 H794 0.930 . S
C804 C803 1.400 . S
C804 C807 1.386 . S
H805 C821 0.930 . S
H806 C822 0.931 . S
C807 H795 0.929 . S
C807 C801 1.390 . S
C807 C804 1.386 . S
C808 C803 1.468 1_455 S
C808 C810 1.395 1_556 S
C808 C811 1.403 . S
H809 C815 0.930 . S
C810 H796 0.930 . S
C810 C808 1.395 1_554 S
C810 C813 1.403 . S
C811 C808 1.403 . S
C811 C812 1.524 . S
C811 C815 1.400 . S
C812 H797 0.960 . S
C812 H798 0.960 . S
C812 H799 0.960 . S
C812 C811 1.524 . S
C813 C810 1.403 . S
C813 C814 1.392 . S
C813 C817 1.495 . S
C814 C813 1.392 . S
C814 C815 1.385 1_554 S
C814 C816 1.478 . S
C815 H809 0.930 . S
C815 C811 1.400 . S
C815 C814 1.385 1_556 S
C816 C814 1.478 . S
C816 C818 1.381 . S
C816 C822 1.383 . S
C817 C813 1.495 . S
C817 H823 0.959 . S
C817 H824 0.961 . S
C817 H825 0.960 . S
C818 C816 1.381 . S
C818 C819 1.394 . S
C818 H826 0.930 . S
C819 C818 1.394 . S
C819 C820 1.383 . S
C819 H827 0.929 . S
C820 C819 1.383 . S
C820 C821 1.377 . S
C821 H805 0.930 . S
C821 C820 1.377 . S
C821 C822 1.379 . S
C822 H806 0.931 . S
C822 C816 1.383 . S
C822 C821 1.379 . S
H823 C817 0.959 . S
H824 C817 0.961 . S
H825 C817 0.960 . S
H826 C818 0.930 . S
H827 C819 0.929 . S
H828 C836 0.929 . S
H829 C838 0.930 . S
H830 C840 0.930 . S
H831 C843 0.929 . S
H832 C846 0.930 . S
H833 C848 0.960 . S
H834 C848 0.960 . S
H835 C848 0.960 . S
C836 H828 0.929 . S
C836 C837 1.377 . S
C836 C838 1.384 . S
C837 C836 1.377 . S
C837 C843 1.390 . S
C838 H829 0.930 . S
C838 C836 1.384 . S
C838 C839 1.372 . S
C839 C838 1.372 . S
C839 C840 1.400 . S
C839 C844 1.490 . S
C840 H830 0.930 . S
C840 C839 1.400 . S
C840 C843 1.386 . S
H841 C857 0.930 . S
H842 C858 0.931 . S
C843 H831 0.929 . S
C843 C837 1.390 . S
C843 C840 1.386 . S
C844 C839 1.490 . S
C844 C846 1.395 . S
C844 C847 1.403 . S
H845 C851 0.930 1_554 S
C846 H832 0.930 . S
C846 C844 1.395 . S
C846 C849 1.403 . S
C847 C844 1.403 . S
C847 C848 1.524 . S
C847 C851 1.400 . S
C848 H833 0.960 . S
C848 H834 0.960 . S
C848 H835 0.960 . S
C848 C847 1.524 . S
C849 C846 1.403 . S
C849 C850 1.391 1_556 S
C849 C853 1.495 . S
C850 C849 1.391 1_554 S
C850 C851 1.384 1_554 S
C850 C852 1.480 . S
C851 H845 0.930 1_556 S
C851 C847 1.400 . S
C851 C850 1.384 1_556 S
C852 C850 1.480 . S
C852 C854 1.381 1_554 S
C852 C858 1.383 . S
C853 C849 1.495 . S
C853 H859 0.959 . S
C853 H860 0.961 1_556 S
C853 H861 0.960 . S
C854 C852 1.381 1_556 S
C854 C855 1.394 1_556 S
C854 H862 0.930 . S
C855 C854 1.394 1_554 S
C855 C856 1.383 . S
C855 H863 0.929 1_554 S
C856 C855 1.383 . S
C856 C857 1.377 . S
C857 H841 0.930 . S
C857 C856 1.377 . S
C857 C858 1.379 . S
C858 H842 0.931 . S
C858 C852 1.383 . S
C858 C857 1.379 . S
H859 C853 0.959 . S
H860 C853 0.961 1_554 S
H861 C853 0.960 . S
H862 C854 0.930 . S
H863 C855 0.929 1_556 S
H864 C872 0.929 . S
H865 C874 0.930 . S
H866 C876 0.930 . S
H867 C879 0.929 . S
H868 C882 0.930 . S
H869 C884 0.960 . S
H870 C884 0.960 . S
H871 C884 0.960 . S
C872 H864 0.929 . S
C872 C873 1.377 . S
C872 C874 1.384 . S
C873 C872 1.377 . S
C873 C879 1.390 . S
C874 H865 0.930 . S
C874 C872 1.384 . S
C874 C875 1.372 . S
C875 C874 1.372 . S
C875 C876 1.400 . S
C875 C880 1.490 . S
C876 H866 0.930 . S
C876 C875 1.400 . S
C876 C879 1.386 . S
H877 C893 0.930 1_556 S
H878 C894 0.931 . S
C879 H867 0.929 . S
C879 C873 1.390 . S
C879 C876 1.386 . S
C880 C875 1.490 . S
C880 C882 1.395 . S
C880 C883 1.403 . S
H881 C887 0.930 . S
C882 H868 0.930 . S
C882 C880 1.395 . S
C882 C885 1.403 1_556 S
C883 C880 1.403 . S
C883 C884 1.524 . S
C883 C887 1.400 . S
C884 H869 0.960 . S
C884 H870 0.960 . S
C884 H871 0.960 . S
C884 C883 1.524 . S
C885 C882 1.403 1_554 S
C885 C886 1.392 1_554 S
C885 C889 1.495 . S
C886 C885 1.392 1_556 S
C886 C887 1.385 . S
C886 C888 1.478 1_546 S
C887 H881 0.930 . S
C887 C883 1.400 . S
C887 C886 1.385 . S
C888 C886 1.478 1_564 S
C888 C890 1.381 . S
C888 C894 1.383 1_554 S
C889 C885 1.495 . S
C889 H895 0.959 . S
C889 H896 0.961 . S
C889 H897 0.960 . S
C890 C888 1.381 . S
C890 C891 1.394 . S
C890 H898 0.971 . S
C891 C890 1.394 . S
C891 C892 1.383 . S
C891 H899 0.929 . S
C892 C891 1.383 . S
C892 C893 1.377 . S
C893 H877 0.930 1_554 S
C893 C892 1.377 . S
C893 C894 1.379 1_554 S
C894 H878 0.931 . S
C894 C888 1.383 1_556 S
C894 C893 1.379 1_556 S
H895 C889 0.959 . S
H896 C889 0.961 . S
H897 C889 0.960 . S
H898 C890 0.971 . S
H899 C891 0.929 . S
H900 C908 0.929 . S
H901 C910 0.930 . S
H902 C912 0.930 . S
H903 C915 0.929 . S
H904 C918 0.930 . S
H905 C920 0.960 . S
H906 C920 0.960 . S
H907 C920 0.960 . S
C908 H900 0.929 . S
C908 C909 1.377 . S
C908 C910 1.384 . S
C909 C908 1.377 . S
C909 C915 1.390 . S
C910 H901 0.930 . S
C910 C908 1.384 . S
C910 C911 1.372 . S
C911 C910 1.372 . S
C911 C912 1.400 . S
C911 C916 1.490 . S
C912 H902 0.930 . S
C912 C911 1.400 . S
C912 C915 1.386 . S
H913 C929 0.930 . S
H914 C930 0.931 . S
C915 H903 0.929 . S
C915 C909 1.390 . S
C915 C912 1.386 . S
C916 C911 1.490 . S
C916 C918 1.395 1_556 S
C916 C919 1.403 . S
H917 C923 0.930 . S
C918 H904 0.930 . S
C918 C916 1.395 1_554 S
C918 C921 1.403 . S
C919 C916 1.403 . S
C919 C920 1.524 . S
C919 C923 1.400 . S
C920 H905 0.960 . S
C920 H906 0.960 . S
C920 H907 0.960 . S
C920 C919 1.524 . S
C921 C918 1.403 . S
C921 C922 1.392 . S
C921 C925 1.495 . S
C922 C921 1.392 . S
C922 C923 1.385 1_554 S
C922 C924 1.512 . S
C923 H917 0.930 . S
C923 C919 1.400 . S
C923 C922 1.385 1_556 S
C924 C922 1.512 . S
C924 C926 1.350 1_545 S
C924 C930 1.379 1_545 S
C925 C921 1.495 . S
C925 H931 0.959 . S
C925 H932 0.961 . S
C925 H933 0.960 . S
C926 C924 1.350 1_565 S
C926 C927 1.394 . S
C926 H934 0.930 1_565 S
C927 C926 1.394 . S
C927 C928 1.383 . S
C927 H935 0.929 . S
C928 C927 1.383 . S
C928 C929 1.377 . S
C929 H913 0.930 . S
C929 C928 1.377 . S
C929 C930 1.379 . S
C930 H914 0.931 . S
C930 C924 1.379 1_565 S
C930 C929 1.379 . S
H931 C925 0.959 . S
H932 C925 0.961 . S
H933 C925 0.960 . S
H934 C926 0.930 1_545 S
H935 C927 0.929 . S
H936 C944 0.929 . S
H937 C946 0.930 . S
H938 C948 0.930 . S
H939 C951 0.929 . S
H940 C954 0.930 . S
H941 C956 0.960 1_556 S
H942 C956 0.960 . S
H943 C956 0.960 1_556 S
C944 H936 0.929 . S
C944 C945 1.377 . S
C944 C946 1.384 . S
C945 C944 1.377 . S
C945 C951 1.390 . S
C946 H937 0.930 . S
C946 C944 1.384 . S
C946 C947 1.372 . S
C947 C946 1.372 . S
C947 C948 1.400 . S
C947 C952 1.490 . S
C948 H938 0.930 . S
C948 C947 1.400 . S
C948 C951 1.386 . S
H949 C965 0.930 . S
H950 C966 0.968 . S
C951 H939 0.929 . S
C951 C945 1.390 . S
C951 C948 1.386 . S
C952 C947 1.490 . S
C952 C954 1.395 . S
C952 C955 1.403 . S
H953 C959 0.930 1_556 S
C954 H940 0.930 . S
C954 C952 1.395 . S
C954 C957 1.403 . S
C955 C952 1.403 . S
C955 C956 1.524 . S
C955 C959 1.400 . S
C956 H941 0.960 1_554 S
C956 H942 0.960 . S
C956 H943 0.960 1_554 S
C956 C955 1.524 . S
C957 C954 1.403 . S
C957 C958 1.392 . S
C957 C961 1.495 . S
C958 C957 1.392 . S
C958 C959 1.385 . S
C958 C960 1.478 1_454 S
C959 H953 0.930 1_554 S
C959 C955 1.400 . S
C959 C958 1.385 . S
C960 C958 1.478 1_656 S
C960 C962 1.381 1_556 S
C960 C966 1.383 . S
C961 C957 1.495 . S
C961 H967 0.959 . S
C961 H968 0.948 1_455 S
C961 H969 0.960 1_455 S
C962 C960 1.381 1_554 S
C962 C963 1.394 1_554 S
C962 H970 0.930 . S
C963 C962 1.394 1_556 S
C963 C964 1.383 . S
C963 H971 0.929 1_556 S
C964 C963 1.383 . S
C964 C965 1.377 . S
C965 H949 0.930 . S
C965 C964 1.377 . S
C965 C966 1.379 . S
C966 H950 0.968 . S
C966 C960 1.383 . S
C966 C965 1.379 . S
H967 C961 0.959 . S
H968 C961 0.948 1_655 S
H969 C961 0.960 1_655 S
H970 C962 0.930 . S
H971 C963 0.929 1_554 S
H972 C980 0.929 . S
H973 C982 0.930 . S
H974 C984 0.930 . S
H975 C987 0.929 . S
H976 C990 0.930 . S
H977 C992 0.960 . S
H978 C992 0.960 . S
H979 C992 0.960 . S
C980 H972 0.929 . S
C980 C981 1.377 . S
C980 C982 1.384 . S
C981 C980 1.377 . S
C981 C987 1.390 . S
C982 H973 0.930 . S
C982 C980 1.384 . S
C982 C983 1.372 . S
C983 C982 1.372 . S
C983 C984 1.400 . S
C983 C988 1.490 . S
C984 H974 0.930 . S
C984 C983 1.400 . S
C984 C987 1.386 . S
H985 C1001 0.930 . S
H986 C1002 0.931 . S
C987 H975 0.929 . S
C987 C981 1.390 . S
C987 C984 1.386 . S
C988 C983 1.490 . S
C988 C990 1.395 . S
C988 C991 1.403 . S
H989 C995 0.930 1_556 S
C990 H976 0.930 . S
C990 C988 1.395 . S
C990 C993 1.403 . S
C991 C988 1.403 . S
C991 C992 1.524 . S
C991 C995 1.400 . S
C992 H977 0.960 . S
C992 H978 0.960 . S
C992 H979 0.960 . S
C992 C991 1.524 . S
C993 C990 1.403 . S
C993 C994 1.392 1_554 S
C993 C997 1.495 1_554 S
C994 C993 1.392 1_556 S
C994 C995 1.385 1_556 S
C994 C996 1.478 . S
C995 H989 0.930 1_554 S
C995 C991 1.400 . S
C995 C994 1.385 1_554 S
C996 C994 1.478 . S
C996 C998 1.377 1_556 S
C996 C1002 1.383 . S
C997 C993 1.495 1_556 S
C997 H1003 0.959 1_556 S
C997 H1004 0.961 . S
C997 H1005 0.960 1_556 S
C998 C996 1.377 1_554 S
C998 C999 1.392 1_554 S
C998 H1006 0.937 . S
C999 C998 1.392 1_556 S
C999 C1000 1.383 . S
C999 H1007 0.937 . S
C1000 C999 1.383 . S
C1000 C1001 1.377 . S
C1001 H985 0.930 . S
C1001 C1000 1.377 . S
C1001 C1002 1.379 . S
C1002 H986 0.931 . S
C1002 C996 1.383 . S
C1002 C1001 1.379 . S
H1003 C997 0.959 1_554 S
H1004 C997 0.961 . S
H1005 C997 0.960 1_554 S
H1006 C998 0.937 . S
H1007 C999 0.937 . S
H1008 C1016 0.929 . S
H1009 C1018 0.930 . S
H1010 C1020 0.930 . S
H1011 C1023 0.929 . S
H1012 C1026 0.930 . S
H1013 C1028 0.960 . S
H1014 C1028 0.960 . S
H1015 C1028 0.960 . S
C1016 H1008 0.929 . S
C1016 C1017 1.377 . S
C1016 C1018 1.384 . S
C1017 C1016 1.377 . S
C1017 C1023 1.390 . S
C1018 H1009 0.930 . S
C1018 C1016 1.384 . S
C1018 C1019 1.372 . S
C1019 C1018 1.372 . S
C1019 C1020 1.400 . S
C1019 C1024 1.490 . S
C1020 H1010 0.930 . S
C1020 C1019 1.400 . S
C1020 C1023 1.386 . S
H1021 C1037 0.930 . S
H1022 C1038 0.931 . S
C1023 H1011 0.929 . S
C1023 C1017 1.390 . S
C1023 C1020 1.386 . S
C1024 C1019 1.490 . S
C1024 C1026 1.395 . S
C1024 C1027 1.403 . S
H1025 C1031 0.930 . S
C1026 H1012 0.930 . S
C1026 C1024 1.395 . S
C1026 C1029 1.403 . S
C1027 C1024 1.403 . S
C1027 C1028 1.524 . S
C1027 C1031 1.400 . S
C1028 H1013 0.960 . S
C1028 H1014 0.960 . S
C1028 H1015 0.960 . S
C1028 C1027 1.524 . S
C1029 C1026 1.403 . S
C1029 C1030 1.392 . S
C1029 C1033 1.495 . S
C1030 C1029 1.392 . S
C1030 C1031 1.385 . S
C1030 C1032 1.478 . S
C1031 H1025 0.930 . S
C1031 C1027 1.400 . S
C1031 C1030 1.385 . S
C1032 C1030 1.478 . S
C1032 C1034 1.381 . S
C1032 C1038 1.383 . S
C1033 C1029 1.495 . S
C1033 H1039 0.959 . S
C1033 H1040 0.961 . S
C1033 H1041 0.960 . S
C1034 C1032 1.381 . S
C1034 C1035 1.394 . S
C1034 H1042 0.930 . S
C1035 C1034 1.394 . S
C1035 C1036 1.383 . S
C1035 H1043 0.929 . S
C1036 C1035 1.383 . S
C1036 C1037 1.377 . S
C1037 H1021 0.930 . S
C1037 C1036 1.377 . S
C1037 C1038 1.379 . S
C1038 H1022 0.931 . S
C1038 C1032 1.383 . S
C1038 C1037 1.379 . S
H1039 C1033 0.959 . S
H1040 C1033 0.961 . S
H1041 C1033 0.960 . S
H1042 C1034 0.930 . S
H1043 C1035 0.929 . S
H1044 C1052 0.929 . S
H1045 C1054 0.930 . S
H1046 C1056 0.930 . S
H1047 C1059 0.929 . S
H1048 C1062 0.930 . S
H1049 C1064 0.960 . S
H1050 C1064 0.960 . S
H1051 C1064 0.960 . S
C1052 H1044 0.929 . S
C1052 C1053 1.377 . S
C1052 C1054 1.384 . S
C1053 C1052 1.377 . S
C1053 C1059 1.390 . S
C1054 H1045 0.930 . S
C1054 C1052 1.384 . S
C1054 C1055 1.372 . S
C1055 C1054 1.372 . S
C1055 C1056 1.400 . S
C1055 C1060 1.490 . S
C1056 H1046 0.930 . S
C1056 C1055 1.400 . S
C1056 C1059 1.386 . S
H1057 C1073 0.930 . S
H1058 C1074 0.931 . S
C1059 H1047 0.929 . S
C1059 C1053 1.390 . S
C1059 C1056 1.386 . S
C1060 C1055 1.490 . S
C1060 C1062 1.395 . S
C1060 C1063 1.403 . S
H1061 C1067 0.930 . S
C1062 H1048 0.930 . S
C1062 C1060 1.395 . S
C1062 C1065 1.403 . S
C1063 C1060 1.403 . S
C1063 C1064 1.524 . S
C1063 C1067 1.400 . S
C1064 H1049 0.960 . S
C1064 H1050 0.960 . S
C1064 H1051 0.960 . S
C1064 C1063 1.524 . S
C1065 C1062 1.403 . S
C1065 C1066 1.392 . S
C1065 C1069 1.495 . S
C1066 C1065 1.392 . S
C1066 C1067 1.385 . S
C1066 C1068 1.478 . S
C1067 H1061 0.930 . S
C1067 C1063 1.400 . S
C1067 C1066 1.385 . S
C1068 C1066 1.478 . S
C1068 C1070 1.381 . S
C1068 C1074 1.383 . S
C1069 C1065 1.495 . S
C1069 H1075 0.959 . S
C1069 H1076 0.961 . S
C1069 H1077 0.960 . S
C1070 C1068 1.381 . S
C1070 C1071 1.394 . S
C1070 H1078 0.930 . S
C1071 C1070 1.394 . S
C1071 C1072 1.383 . S
C1071 H1079 0.929 . S
C1072 C1071 1.383 . S
C1072 C1073 1.377 . S
C1073 H1057 0.930 . S
C1073 C1072 1.377 . S
C1073 C1074 1.379 . S
C1074 H1058 0.931 . S
C1074 C1068 1.383 . S
C1074 C1073 1.379 . S
H1075 C1069 0.959 . S
H1076 C1069 0.961 . S
H1077 C1069 0.960 . S
H1078 C1070 0.930 . S
H1079 C1071 0.929 . S
H1080 C1088 0.929 . S
H1081 C1090 0.930 . S
H1082 C1092 0.930 . S
H1083 C1095 0.929 . S
H1084 C1098 0.930 . S
H1085 C1100 0.960 . S
H1086 C1100 0.960 . S
H1087 C1100 0.960 . S
C1088 H1080 0.929 . S
C1088 C1089 1.377 . S
C1088 C1090 1.384 . S
C1089 C1088 1.377 . S
C1089 C1095 1.390 . S
C1090 H1081 0.930 . S
C1090 C1088 1.384 . S
C1090 C1091 1.372 . S
C1091 C1090 1.372 . S
C1091 C1092 1.400 . S
C1091 C1096 1.490 . S
C1092 H1082 0.930 . S
C1092 C1091 1.400 . S
C1092 C1095 1.386 . S
H1093 C1109 0.930 . S
H1094 C1110 0.931 . S
C1095 H1083 0.929 . S
C1095 C1089 1.390 . S
C1095 C1092 1.386 . S
C1096 C1091 1.490 . S
C1096 C1098 1.395 . S
C1096 C1099 1.403 . S
H1097 C1103 0.930 . S
C1098 H1084 0.930 . S
C1098 C1096 1.395 . S
C1098 C1101 1.403 . S
C1099 C1096 1.403 . S
C1099 C1100 1.524 . S
C1099 C1103 1.400 . S
C1100 H1085 0.960 . S
C1100 H1086 0.960 . S
C1100 H1087 0.960 . S
C1100 C1099 1.524 . S
C1101 C1098 1.403 . S
C1101 C1102 1.392 . S
C1101 C1105 1.495 . S
C1102 C1101 1.392 . S
C1102 C1103 1.385 . S
C1102 C1104 1.478 . S
C1103 H1097 0.930 . S
C1103 C1099 1.400 . S
C1103 C1102 1.385 . S
C1104 C1102 1.478 . S
C1104 C1106 1.381 . S
C1104 C1110 1.383 . S
C1105 C1101 1.495 . S
C1105 H1111 0.959 . S
C1105 H1112 0.961 . S
C1105 H1113 0.960 . S
C1106 C1104 1.381 . S
C1106 C1107 1.394 . S
C1106 H1114 0.930 . S
C1107 C1106 1.394 . S
C1107 C1108 1.383 . S
C1107 H1115 0.929 . S
C1108 C1107 1.383 . S
C1108 C1109 1.377 . S
C1109 H1093 0.930 . S
C1109 C1108 1.377 . S
C1109 C1110 1.379 . S
C1110 H1094 0.931 . S
C1110 C1104 1.383 . S
C1110 C1109 1.379 . S
H1111 C1105 0.959 . S
H1112 C1105 0.961 . S
H1113 C1105 0.960 . S
H1114 C1106 0.930 . S
H1115 C1107 0.929 . S
H1116 C1124 0.929 . S
H1117 C1126 0.930 . S
H1118 C1128 0.930 . S
H1119 C1131 0.929 . S
H1120 C1134 0.930 . S
H1121 C1136 0.960 . S
H1122 C1136 0.960 . S
H1123 C1136 0.960 . S
C1124 H1116 0.929 . S
C1124 C1125 1.377 . S
C1124 C1126 1.384 . S
C1125 C1124 1.377 . S
C1125 C1131 1.390 . S
C1126 H1117 0.930 . S
C1126 C1124 1.384 . S
C1126 C1127 1.372 . S
C1127 C1126 1.372 . S
C1127 C1128 1.400 . S
C1127 C1132 1.490 . S
C1128 H1118 0.930 . S
C1128 C1127 1.400 . S
C1128 C1131 1.386 . S
H1129 C1145 0.930 . S
H1130 C1146 0.931 . S
C1131 H1119 0.929 . S
C1131 C1125 1.390 . S
C1131 C1128 1.386 . S
C1132 C1127 1.490 . S
C1132 C1134 1.395 . S
C1132 C1135 1.403 . S
H1133 C1139 0.930 . S
C1134 H1120 0.930 . S
C1134 C1132 1.395 . S
C1134 C1137 1.403 . S
C1135 C1132 1.403 . S
C1135 C1136 1.524 . S
C1135 C1139 1.400 . S
C1136 H1121 0.960 . S
C1136 H1122 0.960 . S
C1136 H1123 0.960 . S
C1136 C1135 1.524 . S
C1137 C1134 1.403 . S
C1137 C1138 1.392 . S
C1137 C1141 1.495 . S
C1138 C1137 1.392 . S
C1138 C1139 1.385 . S
C1138 C1140 1.478 . S
C1139 H1133 0.930 . S
C1139 C1135 1.400 . S
C1139 C1138 1.385 . S
C1140 C1138 1.478 . S
C1140 C1142 1.381 . S
C1140 C1146 1.383 . S
C1141 C1137 1.495 . S
C1141 H1147 0.959 . S
C1141 H1148 0.961 . S
C1141 H1149 0.960 . S
C1142 C1140 1.381 . S
C1142 C1143 1.394 . S
C1142 H1150 0.930 . S
C1143 C1142 1.394 . S
C1143 C1144 1.383 . S
C1143 H1151 0.929 . S
C1144 C1143 1.383 . S
C1144 C1145 1.377 . S
C1145 H1129 0.930 . S
C1145 C1144 1.377 . S
C1145 C1146 1.379 . S
C1146 H1130 0.931 . S
C1146 C1140 1.383 . S
C1146 C1145 1.379 . S
H1147 C1141 0.959 . S
H1148 C1141 0.961 . S
H1149 C1141 0.960 . S
H1150 C1142 0.930 . S
H1151 C1143 0.929 . S
H1152 C1160 0.929 . S
H1153 C1162 0.930 . S
H1154 C1164 0.930 . S
H1155 C1167 0.929 . S
H1156 C1170 0.930 . S
H1157 C1172 0.960 . S
H1158 C1172 0.960 . S
H1159 C1172 0.960 . S
C1160 H1152 0.929 . S
C1160 C1161 1.377 . S
C1160 C1162 1.384 . S
C1161 C1160 1.377 . S
C1161 C1167 1.390 . S
C1162 H1153 0.930 . S
C1162 C1160 1.384 . S
C1162 C1163 1.372 . S
C1163 C1162 1.372 . S
C1163 C1164 1.400 . S
C1163 C1168 1.490 . S
C1164 H1154 0.930 . S
C1164 C1163 1.400 . S
C1164 C1167 1.386 . S
H1165 C1181 0.930 . S
H1166 C1182 0.931 . S
C1167 H1155 0.929 . S
C1167 C1161 1.390 . S
C1167 C1164 1.386 . S
C1168 C1163 1.490 . S
C1168 C1170 1.395 . S
C1168 C1171 1.403 . S
H1169 C1175 0.930 . S
C1170 H1156 0.930 . S
C1170 C1168 1.395 . S
C1170 C1173 1.403 . S
C1171 C1168 1.403 . S
C1171 C1172 1.524 . S
C1171 C1175 1.400 . S
C1172 H1157 0.960 . S
C1172 H1158 0.960 . S
C1172 H1159 0.960 . S
C1172 C1171 1.524 . S
C1173 C1170 1.403 . S
C1173 C1174 1.392 . S
C1173 C1177 1.495 . S
C1174 C1173 1.392 . S
C1174 C1175 1.385 . S
C1174 C1176 1.478 . S
C1175 H1169 0.930 . S
C1175 C1171 1.400 . S
C1175 C1174 1.385 . S
C1176 C1174 1.478 . S
C1176 C1178 1.381 . S
C1176 C1182 1.383 . S
C1177 C1173 1.495 . S
C1177 H1183 0.959 . S
C1177 H1184 0.961 . S
C1177 H1185 0.960 . S
C1178 C1176 1.381 . S
C1178 C1179 1.394 . S
C1178 H1186 0.930 . S
C1179 C1178 1.394 . S
C1179 C1180 1.383 . S
C1179 H1187 0.929 . S
C1180 C1179 1.383 . S
C1180 C1181 1.377 . S
C1181 H1165 0.930 . S
C1181 C1180 1.377 . S
C1181 C1182 1.379 . S
C1182 H1166 0.931 . S
C1182 C1176 1.383 . S
C1182 C1181 1.379 . S
H1183 C1177 0.959 . S
H1184 C1177 0.961 . S
H1185 C1177 0.960 . S
H1186 C1178 0.930 . S
H1187 C1179 0.929 . S
H1188 C1196 0.929 . S
H1189 C1198 0.930 . S
H1190 C1200 0.930 . S
H1191 C1203 0.929 . S
H1192 C1206 0.930 . S
H1193 C1208 0.960 . S
H1194 C1208 0.960 . S
H1195 C1208 0.960 . S
C1196 H1188 0.929 . S
C1196 C1197 1.377 . S
C1196 C1198 1.384 . S
C1197 C1196 1.377 . S
C1197 C1203 1.390 . S
C1198 H1189 0.930 . S
C1198 C1196 1.384 . S
C1198 C1199 1.372 . S
C1199 C1198 1.372 . S
C1199 C1200 1.400 . S
C1199 C1204 1.490 . S
C1200 H1190 0.930 . S
C1200 C1199 1.400 . S
C1200 C1203 1.386 . S
H1201 C1217 0.930 . S
H1202 C1218 0.931 . S
C1203 H1191 0.929 . S
C1203 C1197 1.390 . S
C1203 C1200 1.386 . S
C1204 C1199 1.490 . S
C1204 C1206 1.395 . S
C1204 C1207 1.403 . S
H1205 C1211 0.930 . S
C1206 H1192 0.930 . S
C1206 C1204 1.395 . S
C1206 C1209 1.403 . S
C1207 C1204 1.403 . S
C1207 C1208 1.524 . S
C1207 C1211 1.400 . S
C1208 H1193 0.960 . S
C1208 H1194 0.960 . S
C1208 H1195 0.960 . S
C1208 C1207 1.524 . S
C1209 C1206 1.403 . S
C1209 C1210 1.392 . S
C1209 C1213 1.495 . S
C1210 C1209 1.392 . S
C1210 C1211 1.385 . S
C1210 C1212 1.478 . S
C1211 H1205 0.930 . S
C1211 C1207 1.400 . S
C1211 C1210 1.385 . S
C1212 C1210 1.478 . S
C1212 C1214 1.381 . S
C1212 C1218 1.383 . S
C1213 C1209 1.495 . S
C1213 H1219 0.959 . S
C1213 H1220 0.961 . S
C1213 H1221 0.960 . S
C1214 C1212 1.381 . S
C1214 C1215 1.394 . S
C1214 H1222 0.930 . S
C1215 C1214 1.394 . S
C1215 C1216 1.383 . S
C1215 H1223 0.929 . S
C1216 C1215 1.383 . S
C1216 C1217 1.377 . S
C1217 H1201 0.930 . S
C1217 C1216 1.377 . S
C1217 C1218 1.379 . S
C1218 H1202 0.931 . S
C1218 C1212 1.383 . S
C1218 C1217 1.379 . S
H1219 C1213 0.959 . S
H1220 C1213 0.961 . S
H1221 C1213 0.960 . S
H1222 C1214 0.930 . S
H1223 C1215 0.929 . S
H1224 C1232 0.929 . S
H1225 C1234 0.930 . S
H1226 C1236 0.930 . S
H1227 C1239 0.929 . S
H1228 C1242 0.930 . S
H1229 C1244 0.960 . S
H1230 C1244 0.960 . S
H1231 C1244 0.960 . S
C1232 H1224 0.929 . S
C1232 C1233 1.377 . S
C1232 C1234 1.384 . S
C1233 C1232 1.377 . S
C1233 C1239 1.390 . S
C1234 H1225 0.930 . S
C1234 C1232 1.384 . S
C1234 C1235 1.372 . S
C1235 C1234 1.372 . S
C1235 C1236 1.400 . S
C1235 C1240 1.490 . S
C1236 H1226 0.930 . S
C1236 C1235 1.400 . S
C1236 C1239 1.386 . S
H1237 C1253 0.930 . S
H1238 C1254 0.931 . S
C1239 H1227 0.929 . S
C1239 C1233 1.390 . S
C1239 C1236 1.386 . S
C1240 C1235 1.490 . S
C1240 C1242 1.395 . S
C1240 C1243 1.403 . S
H1241 C1247 0.930 . S
C1242 H1228 0.930 . S
C1242 C1240 1.395 . S
C1242 C1245 1.403 . S
C1243 C1240 1.403 . S
C1243 C1244 1.524 . S
C1243 C1247 1.400 . S
C1244 H1229 0.960 . S
C1244 H1230 0.960 . S
C1244 H1231 0.960 . S
C1244 C1243 1.524 . S
C1245 C1242 1.403 . S
C1245 C1246 1.392 . S
C1245 C1249 1.495 . S
C1246 C1245 1.392 . S
C1246 C1247 1.385 . S
C1246 C1248 1.478 . S
C1247 H1241 0.930 . S
C1247 C1243 1.400 . S
C1247 C1246 1.385 . S
C1248 C1246 1.478 . S
C1248 C1250 1.381 . S
C1248 C1254 1.383 . S
C1249 C1245 1.495 . S
C1249 H1255 0.959 . S
C1249 H1256 0.961 . S
C1249 H1257 0.960 . S
C1250 C1248 1.381 . S
C1250 C1251 1.394 . S
C1250 H1258 0.930 . S
C1251 C1250 1.394 . S
C1251 C1252 1.383 . S
C1251 H1259 0.929 . S
C1252 C1251 1.383 . S
C1252 C1253 1.377 . S
C1253 H1237 0.930 . S
C1253 C1252 1.377 . S
C1253 C1254 1.379 . S
C1254 H1238 0.931 . S
C1254 C1248 1.383 . S
C1254 C1253 1.379 . S
H1255 C1249 0.959 . S
H1256 C1249 0.961 . S
H1257 C1249 0.960 . S
H1258 C1250 0.930 . S
H1259 C1251 0.929 . S
H1260 C1268 0.929 . S
H1261 C1270 0.930 . S
H1262 C1272 0.930 . S
H1263 C1275 0.929 . S
H1264 C1278 0.930 . S
H1265 C1280 0.960 . S
H1266 C1280 0.960 . S
H1267 C1280 0.960 . S
C1268 H1260 0.929 . S
C1268 C1269 1.377 . S
C1268 C1270 1.384 . S
C1269 C1268 1.377 . S
C1269 C1275 1.390 . S
C1270 H1261 0.930 . S
C1270 C1268 1.384 . S
C1270 C1271 1.372 . S
C1271 C1270 1.372 . S
C1271 C1272 1.400 . S
C1271 C1276 1.490 . S
C1272 H1262 0.930 . S
C1272 C1271 1.400 . S
C1272 C1275 1.386 . S
H1273 C1289 0.930 . S
H1274 C1290 0.931 . S
C1275 H1263 0.929 . S
C1275 C1269 1.390 . S
C1275 C1272 1.386 . S
C1276 C1271 1.490 . S
C1276 C1278 1.395 . S
C1276 C1279 1.403 . S
H1277 C1283 0.930 . S
C1278 H1264 0.930 . S
C1278 C1276 1.395 . S
C1278 C1281 1.403 . S
C1279 C1276 1.403 . S
C1279 C1280 1.524 . S
C1279 C1283 1.400 . S
C1280 H1265 0.960 . S
C1280 H1266 0.960 . S
C1280 H1267 0.960 . S
C1280 C1279 1.524 . S
C1281 C1278 1.403 . S
C1281 C1282 1.392 . S
C1281 C1285 1.495 . S
C1282 C1281 1.392 . S
C1282 C1283 1.385 . S
C1282 C1284 1.478 . S
C1283 H1277 0.930 . S
C1283 C1279 1.400 . S
C1283 C1282 1.385 . S
C1284 C1282 1.478 . S
C1284 C1286 1.381 . S
C1284 C1290 1.383 . S
C1285 C1281 1.495 . S
C1285 H1291 0.959 . S
C1285 H1292 0.961 . S
C1285 H1293 0.960 . S
C1286 C1284 1.381 . S
C1286 C1287 1.394 . S
C1286 H1294 0.930 . S
C1287 C1286 1.394 . S
C1287 C1288 1.383 . S
C1287 H1295 0.929 . S
C1288 C1287 1.383 . S
C1288 C1289 1.377 . S
C1289 H1273 0.930 . S
C1289 C1288 1.377 . S
C1289 C1290 1.379 . S
C1290 H1274 0.931 . S
C1290 C1284 1.383 . S
C1290 C1289 1.379 . S
H1291 C1285 0.959 . S
H1292 C1285 0.961 . S
H1293 C1285 0.960 . S
H1294 C1286 0.930 . S
H1295 C1287 0.929 . S
H1296 C1304 0.929 . S
H1297 C1306 0.930 . S
H1298 C1308 0.930 . S
H1299 C1311 0.929 . S
H1300 C1314 0.930 . S
H1301 C1316 0.960 . S
H1302 C1316 0.960 . S
H1303 C1316 0.960 . S
C1304 H1296 0.929 . S
C1304 C1305 1.377 . S
C1304 C1306 1.384 . S
C1305 C1304 1.377 . S
C1305 C1311 1.390 . S
C1306 H1297 0.930 . S
C1306 C1304 1.384 . S
C1306 C1307 1.372 . S
C1307 C1306 1.372 . S
C1307 C1308 1.400 . S
C1307 C1312 1.490 . S
C1308 H1298 0.930 . S
C1308 C1307 1.400 . S
C1308 C1311 1.386 . S
H1309 C1325 0.930 . S
H1310 C1326 0.931 . S
C1311 H1299 0.929 . S
C1311 C1305 1.390 . S
C1311 C1308 1.386 . S
C1312 C1307 1.490 . S
C1312 C1314 1.395 . S
C1312 C1315 1.403 . S
H1313 C1319 0.930 . S
C1314 H1300 0.930 . S
C1314 C1312 1.395 . S
C1314 C1317 1.403 . S
C1315 C1312 1.403 . S
C1315 C1316 1.524 . S
C1315 C1319 1.400 . S
C1316 H1301 0.960 . S
C1316 H1302 0.960 . S
C1316 H1303 0.960 . S
C1316 C1315 1.524 . S
C1317 C1314 1.403 . S
C1317 C1318 1.392 . S
C1317 C1321 1.495 . S
C1318 C1317 1.392 . S
C1318 C1319 1.385 . S
C1318 C1320 1.478 . S
C1319 H1313 0.930 . S
C1319 C1315 1.400 . S
C1319 C1318 1.385 . S
C1320 C1318 1.478 . S
C1320 C1322 1.381 . S
C1320 C1326 1.383 . S
C1321 C1317 1.495 . S
C1321 H1327 0.959 . S
C1321 H1328 0.961 . S
C1321 H1329 0.960 . S
C1322 C1320 1.381 . S
C1322 C1323 1.394 . S
C1322 H1330 0.930 . S
C1323 C1322 1.394 . S
C1323 C1324 1.383 . S
C1323 H1331 0.929 . S
C1324 C1323 1.383 . S
C1324 C1325 1.377 . S
C1325 H1309 0.930 . S
C1325 C1324 1.377 . S
C1325 C1326 1.379 . S
C1326 H1310 0.931 . S
C1326 C1320 1.383 . S
C1326 C1325 1.379 . S
H1327 C1321 0.959 . S
H1328 C1321 0.961 . S
H1329 C1321 0.960 . S
H1330 C1322 0.930 . S
H1331 C1323 0.929 . S
H1332 C1340 0.929 . S
H1333 C1342 0.930 . S
H1334 C1344 0.930 . S
H1335 C1347 0.929 . S
H1336 C1350 0.930 . S
H1337 C1352 0.960 . S
H1338 C1352 0.960 . S
H1339 C1352 0.960 . S
C1340 H1332 0.929 . S
C1340 C1341 1.377 . S
C1340 C1342 1.384 . S
C1341 C1340 1.377 . S
C1341 C1347 1.390 . S
C1342 H1333 0.930 . S
C1342 C1340 1.384 . S
C1342 C1343 1.372 . S
C1343 C1342 1.372 . S
C1343 C1344 1.400 . S
C1343 C1348 1.490 . S
C1344 H1334 0.930 . S
C1344 C1343 1.400 . S
C1344 C1347 1.386 . S
H1345 C1361 0.930 . S
H1346 C1362 0.931 . S
C1347 H1335 0.929 . S
C1347 C1341 1.390 . S
C1347 C1344 1.386 . S
C1348 C1343 1.490 . S
C1348 C1350 1.395 . S
C1348 C1351 1.403 . S
H1349 C1355 0.930 . S
C1350 H1336 0.930 . S
C1350 C1348 1.395 . S
C1350 C1353 1.403 . S
C1351 C1348 1.403 . S
C1351 C1352 1.524 . S
C1351 C1355 1.400 . S
C1352 H1337 0.960 . S
C1352 H1338 0.960 . S
C1352 H1339 0.960 . S
C1352 C1351 1.524 . S
C1353 C1350 1.403 . S
C1353 C1354 1.392 . S
C1353 C1357 1.495 . S
C1354 C1353 1.392 . S
C1354 C1355 1.385 . S
C1354 C1356 1.478 . S
C1355 H1349 0.930 . S
C1355 C1351 1.400 . S
C1355 C1354 1.385 . S
C1356 C1354 1.478 . S
C1356 C1358 1.381 . S
C1356 C1362 1.383 . S
C1357 C1353 1.495 . S
C1357 H1363 0.959 . S
C1357 H1364 0.961 . S
C1357 H1365 0.960 . S
C1358 C1356 1.381 . S
C1358 C1359 1.394 . S
C1358 H1366 0.930 . S
C1359 C1358 1.394 . S
C1359 C1360 1.383 . S
C1359 H1367 0.929 . S
C1360 C1359 1.383 . S
C1360 C1361 1.377 . S
C1361 H1345 0.930 . S
C1361 C1360 1.377 . S
C1361 C1362 1.379 . S
C1362 H1346 0.931 . S
C1362 C1356 1.383 . S
C1362 C1361 1.379 . S
H1363 C1357 0.959 . S
H1364 C1357 0.961 . S
H1365 C1357 0.960 . S
H1366 C1358 0.930 . S
H1367 C1359 0.929 . S
H1368 C1376 0.929 . S
H1369 C1378 0.930 . S
H1370 C1380 0.930 . S
H1371 C1383 0.929 . S
H1372 C1386 0.930 . S
H1373 C1388 0.960 . S
H1374 C1388 0.960 . S
H1375 C1388 0.960 . S
C1376 H1368 0.929 . S
C1376 C1377 1.377 . S
C1376 C1378 1.384 . S
C1377 C1376 1.377 . S
C1377 C1383 1.390 . S
C1378 H1369 0.930 . S
C1378 C1376 1.384 . S
C1378 C1379 1.372 . S
C1379 C1378 1.372 . S
C1379 C1380 1.400 . S
C1379 C1384 1.490 . S
C1380 H1370 0.930 . S
C1380 C1379 1.400 . S
C1380 C1383 1.386 . S
H1381 C1397 0.930 . S
H1382 C1398 0.931 . S
C1383 H1371 0.929 . S
C1383 C1377 1.390 . S
C1383 C1380 1.386 . S
C1384 C1379 1.490 . S
C1384 C1386 1.395 . S
C1384 C1387 1.403 . S
H1385 C1391 0.930 . S
C1386 H1372 0.930 . S
C1386 C1384 1.395 . S
C1386 C1389 1.403 . S
C1387 C1384 1.403 . S
C1387 C1388 1.524 . S
C1387 C1391 1.400 . S
C1388 H1373 0.960 . S
C1388 H1374 0.960 . S
C1388 H1375 0.960 . S
C1388 C1387 1.524 . S
C1389 C1386 1.403 . S
C1389 C1390 1.392 . S
C1389 C1393 1.495 . S
C1390 C1389 1.392 . S
C1390 C1391 1.385 . S
C1390 C1392 1.478 . S
C1391 H1385 0.930 . S
C1391 C1387 1.400 . S
C1391 C1390 1.385 . S
C1392 C1390 1.478 . S
C1392 C1394 1.381 . S
C1392 C1398 1.383 . S
C1393 C1389 1.495 . S
C1393 H1399 0.959 . S
C1393 H1400 0.961 . S
C1393 H1401 0.960 . S
C1394 C1392 1.381 . S
C1394 C1395 1.394 . S
C1394 H1402 0.930 . S
C1395 C1394 1.394 . S
C1395 C1396 1.383 . S
C1395 H1403 0.929 . S
C1396 C1395 1.383 . S
C1396 C1397 1.377 . S
C1397 H1381 0.930 . S
C1397 C1396 1.377 . S
C1397 C1398 1.379 . S
C1398 H1382 0.931 . S
C1398 C1392 1.383 . S
C1398 C1397 1.379 . S
H1399 C1393 0.959 . S
H1400 C1393 0.961 . S
H1401 C1393 0.960 . S
H1402 C1394 0.930 . S
H1403 C1395 0.929 . S
H1404 C1412 0.929 . S
H1405 C1414 0.930 . S
H1406 C1416 0.930 . S
H1407 C1419 0.929 . S
H1408 C1422 0.930 . S
H1409 C1424 0.960 . S
H1410 C1424 0.960 . S
H1411 C1424 0.960 . S
C1412 H1404 0.929 . S
C1412 C1413 1.377 . S
C1412 C1414 1.384 . S
C1413 C1412 1.377 . S
C1413 C1419 1.390 . S
C1414 H1405 0.930 . S
C1414 C1412 1.384 . S
C1414 C1415 1.372 . S
C1415 C1414 1.372 . S
C1415 C1416 1.400 . S
C1415 C1420 1.490 . S
C1416 H1406 0.930 . S
C1416 C1415 1.400 . S
C1416 C1419 1.386 . S
H1417 C1433 0.930 . S
H1418 C1434 0.931 . S
C1419 H1407 0.929 . S
C1419 C1413 1.390 . S
C1419 C1416 1.386 . S
C1420 C1415 1.490 . S
C1420 C1422 1.395 . S
C1420 C1423 1.403 . S
H1421 C1427 0.930 . S
C1422 H1408 0.930 . S
C1422 C1420 1.395 . S
C1422 C1425 1.403 . S
C1423 C1420 1.403 . S
C1423 C1424 1.524 . S
C1423 C1427 1.400 . S
C1424 H1409 0.960 . S
C1424 H1410 0.960 . S
C1424 H1411 0.960 . S
C1424 C1423 1.524 . S
C1425 C1422 1.403 . S
C1425 C1426 1.392 . S
C1425 C1429 1.495 . S
C1426 C1425 1.392 . S
C1426 C1427 1.385 . S
C1426 C1428 1.478 . S
C1427 H1421 0.930 . S
C1427 C1423 1.400 . S
C1427 C1426 1.385 . S
C1428 C1426 1.478 . S
C1428 C1430 1.381 . S
C1428 C1434 1.383 . S
C1429 C1425 1.495 . S
C1429 H1435 0.959 . S
C1429 H1436 0.961 . S
C1429 H1437 0.960 . S
C1430 C1428 1.381 . S
C1430 C1431 1.394 . S
C1430 H1438 0.930 . S
C1431 C1430 1.394 . S
C1431 C1432 1.383 . S
C1431 H1439 0.929 . S
C1432 C1431 1.383 . S
C1432 C1433 1.377 . S
C1433 H1417 0.930 . S
C1433 C1432 1.377 . S
C1433 C1434 1.379 . S
C1434 H1418 0.931 . S
C1434 C1428 1.383 . S
C1434 C1433 1.379 . S
H1435 C1429 0.959 . S
H1436 C1429 0.961 . S
H1437 C1429 0.960 . S
H1438 C1430 0.930 . S
H1439 C1431 0.929 . S
H1440 C1448 0.929 . S
H1441 C1450 0.930 . S
H1442 C1452 0.930 . S
H1443 C1455 0.929 . S
H1444 C1458 0.930 . S
H1445 C1460 0.960 . S
H1446 C1460 0.960 . S
H1447 C1460 0.960 . S
C1448 H1440 0.929 . S
C1448 C1449 1.377 . S
C1448 C1450 1.384 . S
C1449 C1448 1.377 . S
C1449 C1455 1.390 . S
C1450 H1441 0.930 . S
C1450 C1448 1.384 . S
C1450 C1451 1.372 . S
C1451 C1450 1.372 . S
C1451 C1452 1.400 . S
C1451 C1456 1.490 . S
C1452 H1442 0.930 . S
C1452 C1451 1.400 . S
C1452 C1455 1.386 . S
H1453 C1469 0.930 . S
H1454 C1470 0.931 . S
C1455 H1443 0.929 . S
C1455 C1449 1.390 . S
C1455 C1452 1.386 . S
C1456 C1451 1.490 . S
C1456 C1458 1.395 . S
C1456 C1459 1.403 . S
H1457 C1463 0.930 . S
C1458 H1444 0.930 . S
C1458 C1456 1.395 . S
C1458 C1461 1.403 . S
C1459 C1456 1.403 . S
C1459 C1460 1.524 . S
C1459 C1463 1.400 . S
C1460 H1445 0.960 . S
C1460 H1446 0.960 . S
C1460 H1447 0.960 . S
C1460 C1459 1.524 . S
C1461 C1458 1.403 . S
C1461 C1462 1.392 . S
C1461 C1465 1.495 . S
C1462 C1461 1.392 . S
C1462 C1463 1.385 . S
C1462 C1464 1.478 . S
C1463 H1457 0.930 . S
C1463 C1459 1.400 . S
C1463 C1462 1.385 . S
C1464 C1462 1.478 . S
C1464 C1466 1.381 . S
C1464 C1470 1.383 . S
C1465 C1461 1.495 . S
C1465 H1471 0.959 . S
C1465 H1472 0.961 . S
C1465 H1473 0.960 . S
C1466 C1464 1.381 . S
C1466 C1467 1.394 . S
C1466 H1474 0.930 . S
C1467 C1466 1.394 . S
C1467 C1468 1.383 . S
C1467 H1475 0.929 . S
C1468 C1467 1.383 . S
C1468 C1469 1.377 . S
C1469 H1453 0.930 . S
C1469 C1468 1.377 . S
C1469 C1470 1.379 . S
C1470 H1454 0.931 . S
C1470 C1464 1.383 . S
C1470 C1469 1.379 . S
H1471 C1465 0.959 . S
H1472 C1465 0.961 . S
H1473 C1465 0.960 . S
H1474 C1466 0.930 . S
H1475 C1467 0.929 . S
H1476 C1484 0.929 . S
H1477 C1486 0.930 . S
H1478 C1488 0.930 . S
H1479 C1491 0.929 . S
H1480 C1494 0.930 . S
H1481 C1496 0.960 . S
H1482 C1496 0.960 . S
H1483 C1496 0.960 . S
C1484 H1476 0.929 . S
C1484 C1485 1.377 . S
C1484 C1486 1.384 . S
C1485 C1484 1.377 . S
C1485 C1491 1.390 . S
C1486 H1477 0.930 . S
C1486 C1484 1.384 . S
C1486 C1487 1.372 . S
C1487 C1486 1.372 . S
C1487 C1488 1.400 . S
C1487 C1492 1.490 . S
C1488 H1478 0.930 . S
C1488 C1487 1.400 . S
C1488 C1491 1.386 . S
H1489 C1505 0.930 1_556 S
H1490 C1506 0.931 1_556 S
C1491 H1479 0.929 . S
C1491 C1485 1.390 . S
C1491 C1488 1.386 . S
C1492 C1487 1.490 . S
C1492 C1494 1.395 . S
C1492 C1495 1.403 . S
H1493 C1499 0.930 . S
C1494 H1480 0.930 . S
C1494 C1492 1.395 . S
C1494 C1497 1.403 . S
C1495 C1492 1.403 . S
C1495 C1496 1.524 . S
C1495 C1499 1.400 . S
C1496 H1481 0.960 . S
C1496 H1482 0.960 . S
C1496 H1483 0.960 . S
C1496 C1495 1.524 . S
C1497 C1494 1.403 . S
C1497 C1498 1.392 . S
C1497 C1501 1.495 . S
C1498 C1497 1.392 . S
C1498 C1499 1.385 . S
C1498 C1500 1.478 . S
C1499 H1493 0.930 . S
C1499 C1495 1.400 . S
C1499 C1498 1.385 . S
C1500 C1498 1.478 . S
C1500 C1502 1.381 . S
C1500 C1506 1.383 . S
C1501 C1497 1.495 . S
C1501 H1507 0.959 . S
C1501 H1508 0.961 . S
C1501 H1509 0.960 . S
C1502 C1500 1.381 . S
C1502 C1503 1.394 . S
C1502 H1510 0.930 . S
C1503 C1502 1.394 . S
C1503 C1504 1.383 . S
C1503 H1511 0.929 . S
C1504 C1503 1.383 . S
C1504 C1505 1.377 . S
C1505 H1489 0.930 1_554 S
C1505 C1504 1.377 . S
C1505 C1506 1.379 . S
C1506 H1490 0.931 1_554 S
C1506 C1500 1.383 . S
C1506 C1505 1.379 . S
H1507 C1501 0.959 . S
H1508 C1501 0.961 . S
H1509 C1501 0.960 . S
H1510 C1502 0.930 . S
H1511 C1503 0.929 . S
H1512 C1520 0.929 . S
H1513 C1522 0.930 . S
H1514 C1524 0.930 . S
H1515 C1527 0.929 . S
H1516 C1530 0.930 . S
H1517 C1532 0.960 . S
H1518 C1532 0.960 . S
H1519 C1532 0.960 . S
C1520 H1512 0.929 . S
C1520 C1521 1.377 . S
C1520 C1522 1.384 . S
C1521 C1520 1.377 . S
C1521 C1527 1.390 . S
C1522 H1513 0.930 . S
C1522 C1520 1.384 . S
C1522 C1523 1.372 . S
C1523 C1522 1.372 . S
C1523 C1524 1.400 . S
C1523 C1528 1.490 . S
C1524 H1514 0.930 . S
C1524 C1523 1.400 . S
C1524 C1527 1.386 . S
H1525 C1541 0.930 . S
H1526 C1542 0.931 . S
C1527 H1515 0.929 . S
C1527 C1521 1.390 . S
C1527 C1524 1.386 . S
C1528 C1523 1.490 . S
C1528 C1530 1.395 . S
C1528 C1531 1.403 . S
H1529 C1535 0.930 . S
C1530 H1516 0.930 . S
C1530 C1528 1.395 . S
C1530 C1533 1.403 . S
C1531 C1528 1.403 . S
C1531 C1532 1.524 . S
C1531 C1535 1.400 . S
C1532 H1517 0.960 . S
C1532 H1518 0.960 . S
C1532 H1519 0.960 . S
C1532 C1531 1.524 . S
C1533 C1530 1.403 . S
C1533 C1534 1.392 . S
C1533 C1537 1.495 . S
C1534 C1533 1.392 . S
C1534 C1535 1.385 . S
C1534 C1536 1.478 . S
C1535 H1529 0.930 . S
C1535 C1531 1.400 . S
C1535 C1534 1.385 . S
C1536 C1534 1.478 . S
C1536 C1538 1.381 . S
C1536 C1542 1.383 . S
C1537 C1533 1.495 . S
C1537 H1543 0.959 . S
C1537 H1544 0.961 . S
C1537 H1545 0.960 . S
C1538 C1536 1.381 . S
C1538 C1539 1.394 . S
C1538 H1546 0.930 . S
C1539 C1538 1.394 . S
C1539 C1540 1.383 . S
C1539 H1547 0.929 . S
C1540 C1539 1.383 . S
C1540 C1541 1.377 . S
C1541 H1525 0.930 . S
C1541 C1540 1.377 . S
C1541 C1542 1.379 . S
C1542 H1526 0.931 . S
C1542 C1536 1.383 . S
C1542 C1541 1.379 . S
H1543 C1537 0.959 . S
H1544 C1537 0.961 . S
H1545 C1537 0.960 . S
H1546 C1538 0.930 . S
H1547 C1539 0.929 . S
H1548 C1556 0.929 . S
H1549 C1558 0.930 . S
H1550 C1560 0.930 . S
H1551 C1563 0.929 . S
H1552 C1566 0.930 . S
H1553 C1568 0.960 . S
H1554 C1568 0.960 . S
H1555 C1568 0.960 . S
C1556 H1548 0.929 . S
C1556 C1557 1.377 . S
C1556 C1558 1.384 . S
C1557 C1556 1.377 . S
C1557 C1563 1.390 . S
C1558 H1549 0.930 . S
C1558 C1556 1.384 . S
C1558 C1559 1.372 . S
C1559 C1558 1.372 . S
C1559 C1560 1.400 . S
C1559 C1564 1.490 . S
C1560 H1550 0.930 . S
C1560 C1559 1.400 . S
C1560 C1563 1.386 . S
H1561 C1577 0.930 . S
H1562 C1578 0.931 . S
C1563 H1551 0.929 . S
C1563 C1557 1.390 . S
C1563 C1560 1.386 . S
C1564 C1559 1.490 . S
C1564 C1566 1.395 . S
C1564 C1567 1.403 . S
H1565 C1571 0.930 . S
C1566 H1552 0.930 . S
C1566 C1564 1.395 . S
C1566 C1569 1.403 . S
C1567 C1564 1.403 . S
C1567 C1568 1.524 . S
C1567 C1571 1.400 . S
C1568 H1553 0.960 . S
C1568 H1554 0.960 . S
C1568 H1555 0.960 . S
C1568 C1567 1.524 . S
C1569 C1566 1.403 . S
C1569 C1570 1.392 . S
C1569 C1573 1.495 . S
C1570 C1569 1.392 . S
C1570 C1571 1.385 . S
C1570 C1572 1.478 . S
C1571 H1565 0.930 . S
C1571 C1567 1.400 . S
C1571 C1570 1.385 . S
C1572 C1570 1.478 . S
C1572 C1574 1.381 . S
C1572 C1578 1.383 . S
C1573 C1569 1.495 . S
C1573 H1579 0.959 . S
C1573 H1580 0.961 . S
C1573 H1581 0.960 . S
C1574 C1572 1.381 . S
C1574 C1575 1.394 . S
C1574 H1582 0.930 . S
C1575 C1574 1.394 . S
C1575 C1576 1.383 . S
C1575 H1583 0.929 . S
C1576 C1575 1.383 . S
C1576 C1577 1.377 . S
C1577 H1561 0.930 . S
C1577 C1576 1.377 . S
C1577 C1578 1.379 . S
C1578 H1562 0.931 . S
C1578 C1572 1.383 . S
C1578 C1577 1.379 . S
H1579 C1573 0.959 . S
H1580 C1573 0.961 . S
H1581 C1573 0.960 . S
H1582 C1574 0.930 . S
H1583 C1575 0.929 . S
H1584 C1592 0.929 . S
H1585 C1594 0.930 . S
H1586 C1596 0.930 . S
H1587 C1599 0.929 . S
H1588 C1602 0.930 . S
H1589 C1604 0.960 . S
H1590 C1604 0.960 . S
H1591 C1604 0.960 . S
C1592 H1584 0.929 . S
C1592 C1593 1.377 . S
C1592 C1594 1.384 . S
C1593 C1592 1.377 . S
C1593 C1599 1.390 . S
C1594 H1585 0.930 . S
C1594 C1592 1.384 . S
C1594 C1595 1.372 . S
C1595 C1594 1.372 . S
C1595 C1596 1.400 . S
C1595 C1600 1.490 . S
C1596 H1586 0.930 . S
C1596 C1595 1.400 . S
C1596 C1599 1.386 . S
H1597 C1613 0.930 . S
H1598 C1614 0.931 . S
C1599 H1587 0.929 . S
C1599 C1593 1.390 . S
C1599 C1596 1.386 . S
C1600 C1595 1.490 . S
C1600 C1602 1.395 . S
C1600 C1603 1.403 . S
H1601 C1607 0.930 . S
C1602 H1588 0.930 . S
C1602 C1600 1.395 . S
C1602 C1605 1.403 . S
C1603 C1600 1.403 . S
C1603 C1604 1.524 . S
C1603 C1607 1.400 . S
C1604 H1589 0.960 . S
C1604 H1590 0.960 . S
C1604 H1591 0.960 . S
C1604 C1603 1.524 . S
C1605 C1602 1.403 . S
C1605 C1606 1.392 . S
C1605 C1609 1.495 . S
C1606 C1605 1.392 . S
C1606 C1607 1.385 . S
C1606 C1608 1.478 . S
C1607 H1601 0.930 . S
C1607 C1603 1.400 . S
C1607 C1606 1.385 . S
C1608 C1606 1.478 . S
C1608 C1610 1.381 . S
C1608 C1614 1.383 . S
C1609 C1605 1.495 . S
C1609 H1615 0.959 . S
C1609 H1616 0.961 . S
C1609 H1617 0.960 . S
C1610 C1608 1.381 . S
C1610 C1611 1.394 . S
C1610 H1618 0.930 . S
C1611 C1610 1.394 . S
C1611 C1612 1.383 . S
C1611 H1619 0.929 . S
C1612 C1611 1.383 . S
C1612 C1613 1.377 . S
C1613 H1597 0.930 . S
C1613 C1612 1.377 . S
C1613 C1614 1.379 . S
C1614 H1598 0.931 . S
C1614 C1608 1.383 . S
C1614 C1613 1.379 . S
H1615 C1609 0.959 . S
H1616 C1609 0.961 . S
H1617 C1609 0.960 . S
H1618 C1610 0.930 . S
H1619 C1611 0.929 . S
H1620 C1628 0.929 . S
H1621 C1630 0.930 . S
H1622 C1632 0.930 . S
H1623 C1635 0.929 . S
H1624 C1638 0.930 . S
H1625 C1640 0.960 . S
H1626 C1640 0.960 . S
H1627 C1640 0.960 . S
C1628 H1620 0.929 . S
C1628 C1629 1.377 . S
C1628 C1630 1.384 . S
C1629 C1628 1.377 . S
C1629 C1635 1.390 . S
C1630 H1621 0.930 . S
C1630 C1628 1.384 . S
C1630 C1631 1.372 . S
C1631 C1630 1.372 . S
C1631 C1632 1.400 . S
C1631 C1636 1.490 . S
C1632 H1622 0.930 . S
C1632 C1631 1.400 . S
C1632 C1635 1.386 . S
H1633 C1649 0.930 . S
H1634 C1650 0.931 . S
C1635 H1623 0.929 . S
C1635 C1629 1.390 . S
C1635 C1632 1.386 . S
C1636 C1631 1.490 . S
C1636 C1638 1.395 . S
C1636 C1639 1.403 . S
H1637 C1643 0.930 . S
C1638 H1624 0.930 . S
C1638 C1636 1.395 . S
C1638 C1641 1.403 . S
C1639 C1636 1.403 . S
C1639 C1640 1.524 . S
C1639 C1643 1.400 . S
C1640 H1625 0.960 . S
C1640 H1626 0.960 . S
C1640 H1627 0.960 . S
C1640 C1639 1.524 . S
C1641 C1638 1.403 . S
C1641 C1642 1.392 . S
C1641 C1645 1.495 . S
C1642 C1641 1.392 . S
C1642 C1643 1.385 . S
C1642 C1644 1.478 . S
C1643 H1637 0.930 . S
C1643 C1639 1.400 . S
C1643 C1642 1.385 . S
C1644 C1642 1.478 . S
C1644 C1646 1.381 . S
C1644 C1650 1.383 . S
C1645 C1641 1.495 . S
C1645 H1651 0.959 . S
C1645 H1652 0.961 . S
C1645 H1653 0.960 . S
C1646 C1644 1.381 . S
C1646 C1647 1.394 . S
C1646 H1654 0.930 . S
C1647 C1646 1.394 . S
C1647 C1648 1.383 . S
C1647 H1655 0.929 . S
C1648 C1647 1.383 . S
C1648 C1649 1.377 . S
C1649 H1633 0.930 . S
C1649 C1648 1.377 . S
C1649 C1650 1.379 . S
C1650 H1634 0.931 . S
C1650 C1644 1.383 . S
C1650 C1649 1.379 . S
H1651 C1645 0.959 . S
H1652 C1645 0.961 . S
H1653 C1645 0.960 . S
H1654 C1646 0.930 . S
H1655 C1647 0.929 . S
H1656 C1664 0.929 . S
H1657 C1666 0.930 . S
H1658 C1668 0.930 . S
H1659 C1671 0.929 . S
H1660 C1674 0.930 . S
H1661 C1676 0.960 . S
H1662 C1676 0.960 . S
H1663 C1676 0.960 . S
C1664 H1656 0.929 . S
C1664 C1665 1.377 . S
C1664 C1666 1.384 . S
C1665 C1664 1.377 . S
C1665 C1671 1.390 . S
C1666 H1657 0.930 . S
C1666 C1664 1.384 . S
C1666 C1667 1.372 . S
C1667 C1666 1.372 . S
C1667 C1668 1.400 . S
C1667 C1672 1.490 . S
C1668 H1658 0.930 . S
C1668 C1667 1.400 . S
C1668 C1671 1.386 . S
H1669 C1685 0.948 . S
H1670 C1686 0.880 1_655 S
C1671 H1659 0.929 . S
C1671 C1665 1.390 . S
C1671 C1668 1.386 . S
C1672 C1667 1.490 . S
C1672 C1674 1.395 . S
C1672 C1675 1.403 . S
H1673 C1679 0.923 1_556 S
C1674 H1660 0.930 . S
C1674 C1672 1.395 . S
C1674 C1677 1.403 . S
C1675 C1672 1.403 . S
C1675 C1676 1.524 . S
C1675 C1679 1.411 . S
C1676 H1661 0.960 . S
C1676 H1662 0.960 . S
C1676 H1663 0.960 . S
C1676 C1675 1.524 . S
C1677 C1674 1.403 . S
C1677 C1678 1.392 1_554 S
C1677 C1681 1.495 1_554 S
C1678 C1677 1.392 1_556 S
C1678 C1679 1.380 1_556 S
C1678 C1680 1.478 . S
C1679 H1673 0.923 1_554 S
C1679 C1675 1.411 . S
C1679 C1678 1.380 1_554 S
C1680 C1678 1.478 . S
C1680 C1682 1.381 . S
C1680 C1686 1.435 . S
C1681 C1677 1.495 1_556 S
C1681 H1687 0.959 1_556 S
C1681 H1688 0.961 1_455 S
C1681 H1689 0.960 . S
C1682 C1680 1.381 . S
C1682 C1683 1.394 . S
C1682 H1690 0.930 . S
C1683 C1682 1.394 . S
C1683 C1684 1.383 . S
C1683 H1691 0.929 . S
C1684 C1683 1.383 . S
C1684 C1685 1.359 1_455 S
C1685 H1669 0.948 . S
C1685 C1684 1.359 1_655 S
C1685 C1686 1.380 1_655 S
C1686 H1670 0.880 1_455 S
C1686 C1680 1.435 . S
C1686 C1685 1.380 1_455 S
H1687 C1681 0.959 1_554 S
H1688 C1681 0.961 1_655 S
H1689 C1681 0.960 . S
H1690 C1682 0.930 . S
H1691 C1683 0.929 . S
H1692 C1700 0.929 . S
H1693 C1702 0.930 . S
H1694 C1704 0.930 . S
H1695 C1707 0.929 . S
H1696 C1710 0.930 . S
H1697 C1712 0.960 1_556 S
H1698 C1712 0.960 . S
H1699 C1712 0.960 . S
C1700 H1692 0.929 . S
C1700 C1701 1.377 . S
C1700 C1702 1.384 . S
C1701 C1700 1.377 . S
C1701 C1707 1.390 . S
C1702 H1693 0.930 . S
C1702 C1700 1.384 . S
C1702 C1703 1.372 . S
C1703 C1702 1.372 . S
C1703 C1704 1.400 . S
C1703 C1708 1.490 . S
C1704 H1694 0.930 . S
C1704 C1703 1.400 . S
C1704 C1707 1.386 . S
H1705 C1721 0.930 . S
H1706 C1722 0.931 . S
C1707 H1695 0.929 . S
C1707 C1701 1.390 . S
C1707 C1704 1.386 . S
C1708 C1703 1.490 . S
C1708 C1710 1.395 . S
C1708 C1711 1.403 . S
H1709 C1715 0.930 . S
C1710 H1696 0.930 . S
C1710 C1708 1.395 . S
C1710 C1713 1.403 1_554 S
C1711 C1708 1.403 . S
C1711 C1712 1.524 . S
C1711 C1715 1.400 1_554 S
C1712 H1697 0.960 1_554 S
C1712 H1698 0.960 . S
C1712 H1699 0.960 . S
C1712 C1711 1.524 . S
C1713 C1710 1.403 1_556 S
C1713 C1714 1.392 . S
C1713 C1717 1.495 . S
C1714 C1713 1.392 . S
C1714 C1715 1.385 . S
C1714 C1716 1.478 . S
C1715 H1709 0.930 . S
C1715 C1711 1.400 1_556 S
C1715 C1714 1.385 . S
C1716 C1714 1.478 . S
C1716 C1718 1.381 . S
C1716 C1722 1.383 . S
C1717 C1713 1.495 . S
C1717 H1723 0.959 . S
C1717 H1724 0.961 . S
C1717 H1725 0.960 . S
C1718 C1716 1.381 . S
C1718 C1719 1.394 . S
C1718 H1726 0.930 . S
C1719 C1718 1.394 . S
C1719 C1720 1.383 . S
C1719 H1727 0.929 . S
C1720 C1719 1.383 . S
C1720 C1721 1.377 . S
C1721 H1705 0.930 . S
C1721 C1720 1.377 . S
C1721 C1722 1.379 . S
C1722 H1706 0.931 . S
C1722 C1716 1.383 . S
C1722 C1721 1.379 . S
H1723 C1717 0.959 . S
H1724 C1717 0.961 . S
H1725 C1717 0.960 . S
H1726 C1718 0.930 . S
H1727 C1719 0.929 . S
H1728 C1736 0.929 . S
H1729 C1738 0.930 . S
H1730 C1740 0.930 1_565 S
H1731 C1743 1.000 . S
H1732 C1746 0.930 . S
H1733 C1748 0.960 . S
H1734 C1748 0.960 . S
H1735 C1748 0.960 1_565 S
C1736 H1728 0.929 . S
C1736 C1737 1.377 . S
C1736 C1738 1.384 . S
C1737 C1736 1.377 . S
C1737 C1743 1.338 1_545 S
C1738 H1729 0.930 . S
C1738 C1736 1.384 . S
C1738 C1739 1.372 . S
C1739 C1738 1.372 . S
C1739 C1740 1.400 . S
C1739 C1744 1.490 . S
C1740 H1730 0.930 1_545 S
C1740 C1739 1.400 . S
C1740 C1743 1.373 1_545 S
H1741 C1757 0.930 . S
H1742 C1758 0.987 . S
C1743 H1731 1.000 . S
C1743 C1737 1.338 1_565 S
C1743 C1740 1.373 1_565 S
C1744 C1739 1.490 . S
C1744 C1746 1.395 . S
C1744 C1747 1.403 . S
H1745 C1751 0.930 . S
C1746 H1732 0.930 . S
C1746 C1744 1.395 . S
C1746 C1749 1.403 1_554 S
C1747 C1744 1.403 . S
C1747 C1748 1.524 . S
C1747 C1751 1.400 1_554 S
C1748 H1733 0.960 . S
C1748 H1734 0.960 . S
C1748 H1735 0.960 1_545 S
C1748 C1747 1.524 . S
C1749 C1746 1.403 1_556 S
C1749 C1750 1.392 . S
C1749 C1753 1.495 . S
C1750 C1749 1.392 . S
C1750 C1751 1.385 . S
C1750 C1752 1.478 . S
C1751 H1745 0.930 . S
C1751 C1747 1.400 1_556 S
C1751 C1750 1.385 . S
C1752 C1750 1.478 . S
C1752 C1754 1.381 . S
C1752 C1758 1.383 . S
C1753 C1749 1.495 . S
C1753 H1759 0.959 . S
C1753 H1760 0.961 . S
C1753 H1761 0.960 . S
C1754 C1752 1.381 . S
C1754 C1755 1.394 . S
C1754 H1762 0.930 . S
C1755 C1754 1.394 . S
C1755 C1756 1.383 . S
C1755 H1763 0.929 . S
C1756 C1755 1.383 . S
C1756 C1757 1.377 . S
C1757 H1741 0.930 . S
C1757 C1756 1.377 . S
C1757 C1758 1.379 . S
C1758 H1742 0.987 . S
C1758 C1752 1.383 . S
C1758 C1757 1.379 . S
H1759 C1753 0.959 . S
H1760 C1753 0.961 . S
H1761 C1753 0.960 . S
H1762 C1754 0.930 . S
H1763 C1755 0.929 . S
H1764 C1772 0.929 . S
H1765 C1774 0.930 . S
H1766 C1776 0.930 . S
H1767 C1779 0.929 . S
H1768 C1782 0.930 1_556 S
H1769 C1784 0.960 1_554 S
H1770 C1784 0.960 . S
H1771 C1784 0.960 . S
C1772 H1764 0.929 . S
C1772 C1773 1.377 1_655 S
C1772 C1774 1.384 . S
C1773 C1772 1.377 1_455 S
C1773 C1779 1.390 . S
C1774 H1765 0.930 . S
C1774 C1772 1.384 . S
C1774 C1775 1.372 1_655 S
C1775 C1774 1.372 1_455 S
C1775 C1776 1.400 . S
C1775 C1780 1.490 . S
C1776 H1766 0.930 . S
C1776 C1775 1.400 . S
C1776 C1779 1.386 . S
H1777 C1793 0.930 . S
H1778 C1794 0.931 . S
C1779 H1767 0.929 . S
C1779 C1773 1.390 . S
C1779 C1776 1.386 . S
C1780 C1775 1.490 . S
C1780 C1782 1.395 1_456 S
C1780 C1783 1.403 1_556 S
H1781 C1787 0.930 . S
C1782 H1768 0.930 1_554 S
C1782 C1780 1.395 1_654 S
C1782 C1785 1.404 1_655 S
C1783 C1780 1.403 1_554 S
C1783 C1784 1.524 1_554 S
C1783 C1787 1.400 . S
C1784 H1769 0.960 1_556 S
C1784 H1770 0.960 . S
C1784 H1771 0.960 . S
C1784 C1783 1.524 1_556 S
C1785 C1782 1.404 1_455 S
C1785 C1786 1.395 . S
C1785 C1789 1.495 1_455 S
C1786 C1785 1.395 . S
C1786 C1787 1.385 . S
C1786 C1788 1.478 . S
C1787 H1781 0.930 . S
C1787 C1783 1.400 . S
C1787 C1786 1.385 . S
C1788 C1786 1.478 . S
C1788 C1790 1.381 1_455 S
C1788 C1794 1.383 . S
C1789 C1785 1.495 1_655 S
C1789 H1795 0.959 . S
C1789 H1796 0.921 1_655 S
C1789 H1797 0.960 . S
C1790 C1788 1.381 1_655 S
C1790 C1791 1.396 . S
C1790 H1798 0.930 . S
C1791 C1790 1.396 . S
C1791 C1792 1.323 1_655 S
C1791 H1799 0.991 . S
C1792 C1791 1.323 1_455 S
C1792 C1793 1.377 . S
C1793 H1777 0.930 . S
C1793 C1792 1.377 . S
C1793 C1794 1.379 . S
C1794 H1778 0.931 . S
C1794 C1788 1.383 . S
C1794 C1793 1.379 . S
H1795 C1789 0.959 . S
H1796 C1789 0.921 1_455 S
H1797 C1789 0.960 . S
H1798 C1790 0.930 . S
H1799 C1791 0.991 . S
H1800 C1808 0.929 . S
H1801 C1810 0.930 . S
H1802 C1812 0.930 . S
H1803 C1815 0.929 . S
H1804 C1818 0.930 . S
H1805 C1820 0.960 . S
H1806 C1820 0.960 . S
H1807 C1820 0.960 . S
C1808 H1800 0.929 . S
C1808 C1809 1.377 . S
C1808 C1810 1.384 . S
C1809 C1808 1.377 . S
C1809 C1815 1.390 . S
C1810 H1801 0.930 . S
C1810 C1808 1.384 . S
C1810 C1811 1.372 . S
C1811 C1810 1.372 . S
C1811 C1812 1.400 . S
C1811 C1816 1.490 . S
C1812 H1802 0.930 . S
C1812 C1811 1.400 . S
C1812 C1815 1.386 . S
H1813 C1829 0.930 . S
H1814 C1830 0.931 . S
C1815 H1803 0.929 . S
C1815 C1809 1.390 . S
C1815 C1812 1.386 . S
C1816 C1811 1.490 . S
C1816 C1818 1.395 . S
C1816 C1819 1.403 . S
H1817 C1823 0.930 . S
C1818 H1804 0.930 . S
C1818 C1816 1.395 . S
C1818 C1821 1.403 . S
C1819 C1816 1.403 . S
C1819 C1820 1.524 . S
C1819 C1823 1.400 . S
C1820 H1805 0.960 . S
C1820 H1806 0.960 . S
C1820 H1807 0.960 . S
C1820 C1819 1.524 . S
C1821 C1818 1.403 . S
C1821 C1822 1.392 . S
C1821 C1825 1.495 . S
C1822 C1821 1.392 . S
C1822 C1823 1.385 . S
C1822 C1824 1.478 1_554 S
C1823 H1817 0.930 . S
C1823 C1819 1.400 . S
C1823 C1822 1.385 . S
C1824 C1822 1.478 1_556 S
C1824 C1826 1.381 . S
C1824 C1830 1.383 . S
C1825 C1821 1.495 . S
C1825 H1831 0.959 . S
C1825 H1832 0.961 1_554 S
C1825 H1833 0.960 1_554 S
C1826 C1824 1.381 . S
C1826 C1827 1.394 . S
C1826 H1834 0.930 . S
C1827 C1826 1.394 . S
C1827 C1828 1.383 . S
C1827 H1835 0.929 . S
C1828 C1827 1.383 . S
C1828 C1829 1.377 . S
C1829 H1813 0.930 . S
C1829 C1828 1.377 . S
C1829 C1830 1.379 . S
C1830 H1814 0.931 . S
C1830 C1824 1.383 . S
C1830 C1829 1.379 . S
H1831 C1825 0.959 . S
H1832 C1825 0.961 1_556 S
H1833 C1825 0.960 1_556 S
H1834 C1826 0.930 . S
H1835 C1827 0.929 . S
H1836 C1844 0.929 . S
H1837 C1846 0.930 . S
H1838 C1848 0.930 . S
H1839 C1851 0.929 . S
H1840 C1854 0.930 . S
H1841 C1856 0.960 . S
H1842 C1856 0.960 . S
H1843 C1856 0.960 . S
C1844 H1836 0.929 . S
C1844 C1845 1.377 . S
C1844 C1846 1.384 . S
C1845 C1844 1.377 . S
C1845 C1851 1.390 . S
C1846 H1837 0.930 . S
C1846 C1844 1.384 . S
C1846 C1847 1.372 . S
C1847 C1846 1.372 . S
C1847 C1848 1.400 . S
C1847 C1852 1.490 . S
C1848 H1838 0.930 . S
C1848 C1847 1.400 . S
C1848 C1851 1.386 . S
H1849 C1865 0.930 . S
H1850 C1866 0.931 . S
C1851 H1839 0.929 . S
C1851 C1845 1.390 . S
C1851 C1848 1.386 . S
C1852 C1847 1.490 . S
C1852 C1854 1.395 . S
C1852 C1855 1.403 . S
H1853 C1859 0.930 . S
C1854 H1840 0.930 . S
C1854 C1852 1.395 . S
C1854 C1857 1.417 . S
C1855 C1852 1.403 . S
C1855 C1856 1.524 1_545 S
C1855 C1859 1.400 1_554 S
C1856 H1841 0.960 . S
C1856 H1842 0.960 . S
C1856 H1843 0.960 . S
C1856 C1855 1.524 1_565 S
C1857 C1854 1.417 . S
C1857 C1858 1.384 1_554 S
C1857 C1861 1.491 1_554 S
C1858 C1857 1.384 1_556 S
C1858 C1859 1.385 . S
C1858 C1860 1.478 . S
C1859 H1853 0.930 . S
C1859 C1855 1.400 1_556 S
C1859 C1858 1.385 . S
C1860 C1858 1.478 . S
C1860 C1862 1.381 . S
C1860 C1866 1.383 . S
C1861 C1857 1.491 1_556 S
C1861 H1867 0.959 1_556 S
C1861 H1868 0.961 . S
C1861 H1869 0.960 . S
C1862 C1860 1.381 . S
C1862 C1863 1.394 . S
C1862 H1870 0.930 . S
C1863 C1862 1.394 . S
C1863 C1864 1.383 . S
C1863 H1871 0.929 . S
C1864 C1863 1.383 . S
C1864 C1865 1.377 . S
C1865 H1849 0.930 . S
C1865 C1864 1.377 . S
C1865 C1866 1.379 . S
C1866 H1850 0.931 . S
C1866 C1860 1.383 . S
C1866 C1865 1.379 . S
H1867 C1861 0.959 1_554 S
H1868 C1861 0.961 . S
H1869 C1861 0.960 . S
H1870 C1862 0.930 . S
H1871 C1863 0.929 . S
H1872 C1880 0.929 1_556 S
H1873 C1882 0.930 . S
H1874 C1884 0.930 . S
H1875 C1887 0.929 1_556 S
H1876 C1890 0.930 . S
H1877 C1892 0.960 . S
H1878 C1892 0.960 . S
H1879 C1892 0.960 . S
C1880 H1872 0.929 1_554 S
C1880 C1881 1.377 1_554 S
C1880 C1882 1.384 . S
C1881 C1880 1.377 1_556 S
C1881 C1887 1.390 1_556 S
C1882 H1873 0.930 . S
C1882 C1880 1.384 . S
C1882 C1883 1.372 . S
C1883 C1882 1.372 . S
C1883 C1884 1.400 . S
C1883 C1888 1.490 . S
C1884 H1874 0.930 . S
C1884 C1883 1.400 . S
C1884 C1887 1.386 . S
H1885 C1901 0.930 . S
H1886 C1902 0.931 . S
C1887 H1875 0.929 1_554 S
C1887 C1881 1.390 1_554 S
C1887 C1884 1.386 . S
C1888 C1883 1.490 . S
C1888 C1890 1.395 . S
C1888 C1891 1.403 . S
H1889 C1895 0.930 . S
C1890 H1876 0.930 . S
C1890 C1888 1.395 . S
C1890 C1893 1.403 . S
C1891 C1888 1.403 . S
C1891 C1892 1.524 . S
C1891 C1895 1.400 . S
C1892 H1877 0.960 . S
C1892 H1878 0.960 . S
C1892 H1879 0.960 . S
C1892 C1891 1.524 . S
C1893 C1890 1.403 . S
C1893 C1894 1.392 . S
C1893 C1897 1.495 . S
C1894 C1893 1.392 . S
C1894 C1895 1.385 . S
C1894 C1896 1.478 . S
C1895 H1889 0.930 . S
C1895 C1891 1.400 . S
C1895 C1894 1.385 . S
C1896 C1894 1.478 . S
C1896 C1898 1.381 . S
C1896 C1902 1.383 . S
C1897 C1893 1.495 . S
C1897 H1903 0.959 . S
C1897 H1904 0.961 . S
C1897 H1905 0.960 . S
C1898 C1896 1.381 . S
C1898 C1899 1.394 . S
C1898 H1906 0.930 . S
C1899 C1898 1.394 . S
C1899 C1900 1.383 . S
C1899 H1907 0.929 . S
C1900 C1899 1.383 . S
C1900 C1901 1.377 . S
C1901 H1885 0.930 . S
C1901 C1900 1.377 . S
C1901 C1902 1.379 . S
C1902 H1886 0.931 . S
C1902 C1896 1.383 . S
C1902 C1901 1.379 . S
H1903 C1897 0.959 . S
H1904 C1897 0.961 . S
H1905 C1897 0.960 . S
H1906 C1898 0.930 . S
H1907 C1899 0.929 . S
H1908 C1916 0.929 . S
H1909 C1918 0.930 . S
H1910 C1920 0.930 . S
H1911 C1923 0.929 . S
H1912 C1926 0.930 . S
H1913 C1928 0.960 . S
H1914 C1928 0.960 . S
H1915 C1928 0.960 . S
C1916 H1908 0.929 . S
C1916 C1917 1.377 . S
C1916 C1918 1.384 . S
C1917 C1916 1.377 . S
C1917 C1923 1.390 . S
C1918 H1909 0.930 . S
C1918 C1916 1.384 . S
C1918 C1919 1.372 . S
C1919 C1918 1.372 . S
C1919 C1920 1.400 . S
C1919 C1924 1.490 . S
C1920 H1910 0.930 . S
C1920 C1919 1.400 . S
C1920 C1923 1.386 . S
H1921 C1937 0.930 . S
H1922 C1938 0.931 . S
C1923 H1911 0.929 . S
C1923 C1917 1.390 . S
C1923 C1920 1.386 . S
C1924 C1919 1.490 . S
C1924 C1926 1.395 . S
C1924 C1927 1.403 . S
H1925 C1931 0.930 . S
C1926 H1912 0.930 . S
C1926 C1924 1.395 . S
C1926 C1929 1.403 . S
C1927 C1924 1.403 . S
C1927 C1928 1.524 . S
C1927 C1931 1.400 . S
C1928 H1913 0.960 . S
C1928 H1914 0.960 . S
C1928 H1915 0.960 . S
C1928 C1927 1.524 . S
C1929 C1926 1.403 . S
C1929 C1930 1.392 . S
C1929 C1933 1.495 . S
C1930 C1929 1.392 . S
C1930 C1931 1.385 . S
C1930 C1932 1.478 . S
C1931 H1925 0.930 . S
C1931 C1927 1.400 . S
C1931 C1930 1.385 . S
C1932 C1930 1.478 . S
C1932 C1934 1.381 . S
C1932 C1938 1.383 . S
C1933 C1929 1.495 . S
C1933 H1939 0.959 . S
C1933 H1940 0.961 . S
C1933 H1941 0.960 . S
C1934 C1932 1.381 . S
C1934 C1935 1.394 1_554 S
C1934 H1942 0.930 . S
C1935 C1934 1.394 1_556 S
C1935 C1936 1.383 . S
C1935 H1943 0.929 . S
C1936 C1935 1.383 . S
C1936 C1937 1.377 . S
C1937 H1921 0.930 . S
C1937 C1936 1.377 . S
C1937 C1938 1.379 1_556 S
C1938 H1922 0.931 . S
C1938 C1932 1.383 . S
C1938 C1937 1.379 1_554 S
H1939 C1933 0.959 . S
H1940 C1933 0.961 . S
H1941 C1933 0.960 . S
H1942 C1934 0.930 . S
H1943 C1935 0.929 . S
H1944 C1952 0.929 . S
H1945 C1954 0.930 . S
H1946 C1956 0.930 . S
H1947 C1959 0.929 1_556 S
H1948 C1962 0.930 . S
H1949 C1964 0.960 . S
H1950 C1964 0.960 . S
H1951 C1964 0.960 . S
C1952 H1944 0.929 . S
C1952 C1953 1.377 1_554 S
C1952 C1954 1.384 . S
C1953 C1952 1.377 1_556 S
C1953 C1959 1.390 1_556 S
C1954 H1945 0.930 . S
C1954 C1952 1.384 . S
C1954 C1955 1.372 . S
C1955 C1954 1.372 . S
C1955 C1956 1.400 . S
C1955 C1960 1.490 . S
C1956 H1946 0.930 . S
C1956 C1955 1.400 . S
C1956 C1959 1.386 . S
H1957 C1973 0.930 . S
H1958 C1974 0.931 . S
C1959 H1947 0.929 1_554 S
C1959 C1953 1.390 1_554 S
C1959 C1956 1.386 . S
C1960 C1955 1.490 . S
C1960 C1962 1.395 . S
C1960 C1963 1.403 . S
H1961 C1967 0.930 . S
C1962 H1948 0.930 . S
C1962 C1960 1.395 . S
C1962 C1965 1.403 . S
C1963 C1960 1.403 . S
C1963 C1964 1.524 . S
C1963 C1967 1.400 . S
C1964 H1949 0.960 . S
C1964 H1950 0.960 . S
C1964 H1951 0.960 . S
C1964 C1963 1.524 . S
C1965 C1962 1.403 . S
C1965 C1966 1.392 . S
C1965 C1969 1.495 . S
C1966 C1965 1.392 . S
C1966 C1967 1.385 . S
C1966 C1968 1.478 . S
C1967 H1961 0.930 . S
C1967 C1963 1.400 . S
C1967 C1966 1.385 . S
C1968 C1966 1.478 . S
C1968 C1970 1.381 . S
C1968 C1974 1.383 . S
C1969 C1965 1.495 . S
C1969 H1975 0.959 . S
C1969 H1976 0.961 . S
C1969 H1977 0.960 . S
C1970 C1968 1.381 . S
C1970 C1971 1.394 . S
C1970 H1978 0.930 . S
C1971 C1970 1.394 . S
C1971 C1972 1.383 . S
C1971 H1979 0.929 . S
C1972 C1971 1.383 . S
C1972 C1973 1.377 . S
C1973 H1957 0.930 . S
C1973 C1972 1.377 . S
C1973 C1974 1.379 . S
C1974 H1958 0.931 . S
C1974 C1968 1.383 . S
C1974 C1973 1.379 . S
H1975 C1969 0.959 . S
H1976 C1969 0.961 . S
H1977 C1969 0.960 . S
H1978 C1970 0.930 . S
H1979 C1971 0.929 . S
H1980 C1988 0.929 . S
H1981 C1990 0.930 . S
H1982 C1992 0.930 . S
H1983 C1995 0.929 . S
H1984 C1998 0.930 . S
H1985 C2000 0.960 . S
H1986 C2000 0.960 . S
H1987 C2000 0.960 . S
C1988 H1980 0.929 . S
C1988 C1989 1.377 . S
C1988 C1990 1.384 . S
C1989 C1988 1.377 . S
C1989 C1995 1.390 . S
C1990 H1981 0.930 . S
C1990 C1988 1.384 . S
C1990 C1991 1.372 . S
C1991 C1990 1.372 . S
C1991 C1992 1.400 . S
C1991 C1996 1.490 . S
C1992 H1982 0.930 . S
C1992 C1991 1.400 . S
C1992 C1995 1.386 . S
H1993 C2009 0.930 . S
H1994 C2010 0.931 . S
C1995 H1983 0.929 . S
C1995 C1989 1.390 . S
C1995 C1992 1.386 . S
C1996 C1991 1.490 . S
C1996 C1998 1.395 . S
C1996 C1999 1.403 . S
H1997 C2003 0.930 . S
C1998 H1984 0.930 . S
C1998 C1996 1.395 . S
C1998 C2001 1.403 . S
C1999 C1996 1.403 . S
C1999 C2000 1.524 . S
C1999 C2003 1.400 . S
C2000 H1985 0.960 . S
C2000 H1986 0.960 . S
C2000 H1987 0.960 . S
C2000 C1999 1.524 . S
C2001 C1998 1.403 . S
C2001 C2002 1.392 . S
C2001 C2005 1.495 . S
C2002 C2001 1.392 . S
C2002 C2003 1.385 . S
C2002 C2004 1.478 . S
C2003 H1997 0.930 . S
C2003 C1999 1.400 . S
C2003 C2002 1.385 . S
C2004 C2002 1.478 . S
C2004 C2006 1.381 . S
C2004 C2010 1.383 . S
C2005 C2001 1.495 . S
C2005 H2011 0.959 . S
C2005 H2012 0.961 . S
C2005 H2013 0.960 . S
C2006 C2004 1.381 . S
C2006 C2007 1.394 . S
C2006 H2014 0.930 . S
C2007 C2006 1.394 . S
C2007 C2008 1.383 . S
C2007 H2015 0.929 . S
C2008 C2007 1.383 . S
C2008 C2009 1.377 . S
C2009 H1993 0.930 . S
C2009 C2008 1.377 . S
C2009 C2010 1.379 . S
C2010 H1994 0.931 . S
C2010 C2004 1.383 . S
C2010 C2009 1.379 . S
H2011 C2005 0.959 . S
H2012 C2005 0.961 . S
H2013 C2005 0.960 . S
H2014 C2006 0.930 . S
H2015 C2007 0.929 . S
H2016 C2024 0.929 . S
H2017 C2026 0.930 . S
H2018 C2028 0.930 . S
H2019 C2031 0.929 . S
H2020 C2034 0.930 . S
H2021 C2036 0.960 . S
H2022 C2036 0.960 . S
H2023 C2036 0.960 . S
C2024 H2016 0.929 . S
C2024 C2025 1.377 . S
C2024 C2026 1.384 . S
C2025 C2024 1.377 . S
C2025 C2031 1.390 . S
C2026 H2017 0.930 . S
C2026 C2024 1.384 . S
C2026 C2027 1.372 . S
C2027 C2026 1.372 . S
C2027 C2028 1.400 . S
C2027 C2032 1.490 . S
C2028 H2018 0.930 . S
C2028 C2027 1.400 . S
C2028 C2031 1.386 . S
H2029 C2045 0.930 . S
H2030 C2046 0.931 . S
C2031 H2019 0.929 . S
C2031 C2025 1.390 . S
C2031 C2028 1.386 . S
C2032 C2027 1.490 . S
C2032 C2034 1.395 . S
C2032 C2035 1.403 . S
H2033 C2039 0.930 . S
C2034 H2020 0.930 . S
C2034 C2032 1.395 . S
C2034 C2037 1.403 . S
C2035 C2032 1.403 . S
C2035 C2036 1.524 . S
C2035 C2039 1.400 . S
C2036 H2021 0.960 . S
C2036 H2022 0.960 . S
C2036 H2023 0.960 . S
C2036 C2035 1.524 . S
C2037 C2034 1.403 . S
C2037 C2038 1.392 . S
C2037 C2041 1.495 . S
C2038 C2037 1.392 . S
C2038 C2039 1.385 . S
C2038 C2040 1.478 . S
C2039 H2033 0.930 . S
C2039 C2035 1.400 . S
C2039 C2038 1.385 . S
C2040 C2038 1.478 . S
C2040 C2042 1.381 . S
C2040 C2046 1.383 . S
C2041 C2037 1.495 . S
C2041 H2047 0.959 . S
C2041 H2048 0.961 . S
C2041 H2049 0.960 . S
C2042 C2040 1.381 . S
C2042 C2043 1.394 . S
C2042 H2050 0.930 . S
C2043 C2042 1.394 . S
C2043 C2044 1.383 . S
C2043 H2051 0.929 . S
C2044 C2043 1.383 . S
C2044 C2045 1.377 . S
C2045 H2029 0.930 . S
C2045 C2044 1.377 . S
C2045 C2046 1.379 . S
C2046 H2030 0.931 . S
C2046 C2040 1.383 . S
C2046 C2045 1.379 . S
H2047 C2041 0.959 . S
H2048 C2041 0.961 . S
H2049 C2041 0.960 . S
H2050 C2042 0.930 . S
H2051 C2043 0.929 . S
H2052 C2060 0.929 . S
H2053 C2062 0.930 . S
H2054 C2064 0.930 . S
H2055 C2067 0.929 . S
H2056 C2070 0.930 . S
H2057 C2072 0.960 . S
H2058 C2072 0.960 . S
H2059 C2072 0.960 . S
C2060 H2052 0.929 . S
C2060 C2061 1.377 . S
C2060 C2062 1.384 . S
C2061 C2060 1.377 . S
C2061 C2067 1.390 . S
C2062 H2053 0.930 . S
C2062 C2060 1.384 . S
C2062 C2063 1.372 . S
C2063 C2062 1.372 . S
C2063 C2064 1.400 . S
C2063 C2068 1.490 . S
C2064 H2054 0.930 . S
C2064 C2063 1.400 . S
C2064 C2067 1.386 . S
H2065 C2081 0.930 . S
H2066 C2082 0.931 . S
C2067 H2055 0.929 . S
C2067 C2061 1.390 . S
C2067 C2064 1.386 . S
C2068 C2063 1.490 . S
C2068 C2070 1.395 . S
C2068 C2071 1.403 . S
H2069 C2075 0.930 . S
C2070 H2056 0.930 . S
C2070 C2068 1.395 . S
C2070 C2073 1.403 . S
C2071 C2068 1.403 . S
C2071 C2072 1.524 . S
C2071 C2075 1.400 . S
C2072 H2057 0.960 . S
C2072 H2058 0.960 . S
C2072 H2059 0.960 . S
C2072 C2071 1.524 . S
C2073 C2070 1.403 . S
C2073 C2074 1.392 . S
C2073 C2077 1.495 . S
C2074 C2073 1.392 . S
C2074 C2075 1.385 . S
C2074 C2076 1.478 . S
C2075 H2069 0.930 . S
C2075 C2071 1.400 . S
C2075 C2074 1.385 . S
C2076 C2074 1.478 . S
C2076 C2078 1.381 . S
C2076 C2082 1.383 . S
C2077 C2073 1.495 . S
C2077 H2083 0.959 . S
C2077 H2084 0.961 . S
C2077 H2085 0.960 . S
C2078 C2076 1.381 . S
C2078 C2079 1.394 . S
C2078 H2086 0.930 . S
C2079 C2078 1.394 . S
C2079 C2080 1.383 . S
C2079 H2087 0.929 . S
C2080 C2079 1.383 . S
C2080 C2081 1.377 . S
C2081 H2065 0.930 . S
C2081 C2080 1.377 . S
C2081 C2082 1.379 . S
C2082 H2066 0.931 . S
C2082 C2076 1.383 . S
C2082 C2081 1.379 . S
H2083 C2077 0.959 . S
H2084 C2077 0.961 . S
H2085 C2077 0.960 . S
H2086 C2078 0.930 . S
H2087 C2079 0.929 . S
H2088 C2096 0.929 . S
H2089 C2098 0.930 . S
H2090 C2100 0.930 . S
H2091 C2103 0.929 . S
H2092 C2106 0.930 . S
H2093 C2108 0.960 . S
H2094 C2108 0.960 . S
H2095 C2108 0.960 . S
C2096 H2088 0.929 . S
C2096 C2097 1.377 . S
C2096 C2098 1.384 . S
C2097 C2096 1.377 . S
C2097 C2103 1.390 . S
C2098 H2089 0.930 . S
C2098 C2096 1.384 . S
C2098 C2099 1.372 . S
C2099 C2098 1.372 . S
C2099 C2100 1.400 . S
C2099 C2104 1.490 . S
C2100 H2090 0.930 . S
C2100 C2099 1.400 . S
C2100 C2103 1.386 . S
H2101 C2117 0.930 . S
H2102 C2118 0.931 . S
C2103 H2091 0.929 . S
C2103 C2097 1.390 . S
C2103 C2100 1.386 . S
C2104 C2099 1.490 . S
C2104 C2106 1.395 . S
C2104 C2107 1.403 . S
H2105 C2111 0.930 . S
C2106 H2092 0.930 . S
C2106 C2104 1.395 . S
C2106 C2109 1.403 . S
C2107 C2104 1.403 . S
C2107 C2108 1.524 . S
C2107 C2111 1.400 . S
C2108 H2093 0.960 . S
C2108 H2094 0.960 . S
C2108 H2095 0.960 . S
C2108 C2107 1.524 . S
C2109 C2106 1.403 . S
C2109 C2110 1.392 . S
C2109 C2113 1.495 . S
C2110 C2109 1.392 . S
C2110 C2111 1.385 . S
C2110 C2112 1.478 . S
C2111 H2105 0.930 . S
C2111 C2107 1.400 . S
C2111 C2110 1.385 . S
C2112 C2110 1.478 . S
C2112 C2114 1.381 . S
C2112 C2118 1.383 . S
C2113 C2109 1.495 . S
C2113 H2119 0.959 . S
C2113 H2120 0.961 . S
C2113 H2121 0.960 . S
C2114 C2112 1.381 . S
C2114 C2115 1.394 . S
C2114 H2122 0.930 . S
C2115 C2114 1.394 . S
C2115 C2116 1.383 . S
C2115 H2123 0.929 . S
C2116 C2115 1.383 . S
C2116 C2117 1.377 . S
C2117 H2101 0.930 . S
C2117 C2116 1.377 . S
C2117 C2118 1.379 . S
C2118 H2102 0.931 . S
C2118 C2112 1.383 . S
C2118 C2117 1.379 . S
H2119 C2113 0.959 . S
H2120 C2113 0.961 . S
H2121 C2113 0.960 . S
H2122 C2114 0.930 . S
H2123 C2115 0.929 . S
H2124 C2132 0.929 . S
H2125 C2134 0.930 . S
H2126 C2136 0.930 . S
H2127 C2139 0.929 . S
H2128 C2142 0.930 . S
H2129 C2144 0.960 . S
H2130 C2144 0.960 . S
H2131 C2144 0.960 . S
C2132 H2124 0.929 . S
C2132 C2133 1.377 . S
C2132 C2134 1.384 . S
C2133 C2132 1.377 . S
C2133 C2139 1.390 . S
C2134 H2125 0.930 . S
C2134 C2132 1.384 . S
C2134 C2135 1.372 . S
C2135 C2134 1.372 . S
C2135 C2136 1.400 . S
C2135 C2140 1.490 . S
C2136 H2126 0.930 . S
C2136 C2135 1.400 . S
C2136 C2139 1.386 . S
H2137 C2153 0.930 . S
H2138 C2154 0.931 . S
C2139 H2127 0.929 . S
C2139 C2133 1.390 . S
C2139 C2136 1.386 . S
C2140 C2135 1.490 . S
C2140 C2142 1.395 . S
C2140 C2143 1.403 . S
H2141 C2147 0.930 . S
C2142 H2128 0.930 . S
C2142 C2140 1.395 . S
C2142 C2145 1.403 . S
C2143 C2140 1.403 . S
C2143 C2144 1.524 . S
C2143 C2147 1.400 . S
C2144 H2129 0.960 . S
C2144 H2130 0.960 . S
C2144 H2131 0.960 . S
C2144 C2143 1.524 . S
C2145 C2142 1.403 . S
C2145 C2146 1.392 . S
C2145 C2149 1.495 . S
C2146 C2145 1.392 . S
C2146 C2147 1.385 . S
C2146 C2148 1.478 . S
C2147 H2141 0.930 . S
C2147 C2143 1.400 . S
C2147 C2146 1.385 . S
C2148 C2146 1.478 . S
C2148 C2150 1.381 . S
C2148 C2154 1.383 . S
C2149 C2145 1.495 . S
C2149 H2155 0.959 . S
C2149 H2156 0.961 . S
C2149 H2157 0.960 . S
C2150 C2148 1.381 . S
C2150 C2151 1.394 . S
C2150 H2158 0.930 . S
C2151 C2150 1.394 . S
C2151 C2152 1.383 . S
C2151 H2159 0.929 . S
C2152 C2151 1.383 . S
C2152 C2153 1.377 . S
C2153 H2137 0.930 . S
C2153 C2152 1.377 . S
C2153 C2154 1.379 . S
C2154 H2138 0.931 . S
C2154 C2148 1.383 . S
C2154 C2153 1.379 . S
H2155 C2149 0.959 . S
H2156 C2149 0.961 . S
H2157 C2149 0.960 . S
H2158 C2150 0.930 . S
H2159 C2151 0.929 . S
H2160 C2168 0.929 . S
H2161 C2170 0.930 . S
H2162 C2172 0.930 . S
H2163 C2175 0.929 . S
H2164 C2178 0.930 . S
H2165 C2180 0.960 . S
H2166 C2180 0.960 . S
H2167 C2180 0.960 . S
C2168 H2160 0.929 . S
C2168 C2169 1.377 . S
C2168 C2170 1.384 . S
C2169 C2168 1.377 . S
C2169 C2175 1.390 . S
C2170 H2161 0.930 . S
C2170 C2168 1.384 . S
C2170 C2171 1.372 . S
C2171 C2170 1.372 . S
C2171 C2172 1.400 . S
C2171 C2176 1.490 . S
C2172 H2162 0.930 . S
C2172 C2171 1.400 . S
C2172 C2175 1.386 . S
H2173 C2189 0.930 . S
H2174 C2190 0.931 . S
C2175 H2163 0.929 . S
C2175 C2169 1.390 . S
C2175 C2172 1.386 . S
C2176 C2171 1.490 . S
C2176 C2178 1.395 . S
C2176 C2179 1.403 . S
H2177 C2183 0.930 . S
C2178 H2164 0.930 . S
C2178 C2176 1.395 . S
C2178 C2181 1.403 . S
C2179 C2176 1.403 . S
C2179 C2180 1.524 . S
C2179 C2183 1.400 . S
C2180 H2165 0.960 . S
C2180 H2166 0.960 . S
C2180 H2167 0.960 . S
C2180 C2179 1.524 . S
C2181 C2178 1.403 . S
C2181 C2182 1.392 . S
C2181 C2185 1.495 . S
C2182 C2181 1.392 . S
C2182 C2183 1.385 . S
C2182 C2184 1.478 . S
C2183 H2177 0.930 . S
C2183 C2179 1.400 . S
C2183 C2182 1.385 . S
C2184 C2182 1.478 . S
C2184 C2186 1.381 . S
C2184 C2190 1.383 . S
C2185 C2181 1.495 . S
C2185 H2191 0.959 . S
C2185 H2192 0.961 . S
C2185 H2193 0.960 . S
C2186 C2184 1.381 . S
C2186 C2187 1.394 . S
C2186 H2194 0.930 . S
C2187 C2186 1.394 . S
C2187 C2188 1.383 . S
C2187 H2195 0.929 . S
C2188 C2187 1.383 . S
C2188 C2189 1.377 . S
C2189 H2173 0.930 . S
C2189 C2188 1.377 . S
C2189 C2190 1.379 . S
C2190 H2174 0.931 . S
C2190 C2184 1.383 . S
C2190 C2189 1.379 . S
H2191 C2185 0.959 . S
H2192 C2185 0.961 . S
H2193 C2185 0.960 . S
H2194 C2186 0.930 . S
H2195 C2187 0.929 . S
H2196 C2204 0.929 . S
H2197 C2206 0.930 . S
H2198 C2208 0.930 . S
H2199 C2211 0.929 . S
H2200 C2214 0.930 . S
H2201 C2216 0.960 . S
H2202 C2216 0.960 . S
H2203 C2216 0.960 . S
C2204 H2196 0.929 . S
C2204 C2205 1.377 . S
C2204 C2206 1.384 . S
C2205 C2204 1.377 . S
C2205 C2211 1.390 . S
C2206 H2197 0.930 . S
C2206 C2204 1.384 . S
C2206 C2207 1.372 . S
C2207 C2206 1.372 . S
C2207 C2208 1.400 . S
C2207 C2212 1.490 . S
C2208 H2198 0.930 . S
C2208 C2207 1.400 . S
C2208 C2211 1.386 . S
H2209 C2225 0.930 . S
H2210 C2226 0.931 . S
C2211 H2199 0.929 . S
C2211 C2205 1.390 . S
C2211 C2208 1.386 . S
C2212 C2207 1.490 . S
C2212 C2214 1.395 . S
C2212 C2215 1.403 . S
H2213 C2219 0.930 . S
C2214 H2200 0.930 . S
C2214 C2212 1.395 . S
C2214 C2217 1.403 . S
C2215 C2212 1.403 . S
C2215 C2216 1.524 . S
C2215 C2219 1.400 . S
C2216 H2201 0.960 . S
C2216 H2202 0.960 . S
C2216 H2203 0.960 . S
C2216 C2215 1.524 . S
C2217 C2214 1.403 . S
C2217 C2218 1.392 . S
C2217 C2221 1.495 . S
C2218 C2217 1.392 . S
C2218 C2219 1.385 . S
C2218 C2220 1.478 . S
C2219 H2213 0.930 . S
C2219 C2215 1.400 . S
C2219 C2218 1.385 . S
C2220 C2218 1.478 . S
C2220 C2222 1.381 . S
C2220 C2226 1.383 . S
C2221 C2217 1.495 . S
C2221 H2227 0.959 . S
C2221 H2228 0.961 . S
C2221 H2229 0.960 . S
C2222 C2220 1.381 . S
C2222 C2223 1.394 . S
C2222 H2230 0.930 . S
C2223 C2222 1.394 . S
C2223 C2224 1.383 . S
C2223 H2231 0.929 . S
C2224 C2223 1.383 . S
C2224 C2225 1.377 . S
C2225 H2209 0.930 . S
C2225 C2224 1.377 . S
C2225 C2226 1.379 . S
C2226 H2210 0.931 . S
C2226 C2220 1.383 . S
C2226 C2225 1.379 . S
H2227 C2221 0.959 . S
H2228 C2221 0.961 . S
H2229 C2221 0.960 . S
H2230 C2222 0.930 . S
H2231 C2223 0.929 . S
H2232 C2240 0.931 . S
H2233 C2242 0.930 . S
H2234 C2244 0.930 . S
H2235 C2247 0.929 1_554 S
H2236 C2250 0.930 . S
H2237 C2252 0.960 . S
H2238 C2252 0.960 . S
H2239 C2252 0.960 . S
C2240 H2232 0.931 . S
C2240 C2241 1.379 . S
C2240 C2242 1.381 1_554 S
C2241 C2240 1.379 . S
C2241 C2247 1.390 1_554 S
C2242 H2233 0.930 . S
C2242 C2240 1.381 1_556 S
C2242 C2243 1.372 . S
C2243 C2242 1.372 . S
C2243 C2244 1.400 . S
C2243 C2248 1.490 . S
C2244 H2234 0.930 . S
C2244 C2243 1.400 . S
C2244 C2247 1.386 . S
H2245 C2261 0.930 . S
H2246 C2262 0.931 . S
C2247 H2235 0.929 1_556 S
C2247 C2241 1.390 1_556 S
C2247 C2244 1.386 . S
C2248 C2243 1.490 . S
C2248 C2250 1.395 . S
C2248 C2251 1.403 . S
H2249 C2255 0.930 . S
C2250 H2236 0.930 . S
C2250 C2248 1.395 . S
C2250 C2253 1.403 . S
C2251 C2248 1.403 . S
C2251 C2252 1.524 . S
C2251 C2255 1.400 . S
C2252 H2237 0.960 . S
C2252 H2238 0.960 . S
C2252 H2239 0.960 . S
C2252 C2251 1.524 . S
C2253 C2250 1.403 . S
C2253 C2254 1.392 . S
C2253 C2257 1.495 . S
C2254 C2253 1.392 . S
C2254 C2255 1.385 . S
C2254 C2256 1.478 . S
C2255 H2249 0.930 . S
C2255 C2251 1.400 . S
C2255 C2254 1.385 . S
C2256 C2254 1.478 . S
C2256 C2258 1.381 . S
C2256 C2262 1.383 . S
C2257 C2253 1.495 . S
C2257 H2263 0.959 . S
C2257 H2264 0.961 . S
C2257 H2265 0.960 . S
C2258 C2256 1.381 . S
C2258 C2259 1.394 . S
C2258 H2266 0.930 . S
C2259 C2258 1.394 . S
C2259 C2260 1.383 . S
C2259 H2267 0.929 . S
C2260 C2259 1.383 . S
C2260 C2261 1.377 . S
C2261 H2245 0.930 . S
C2261 C2260 1.377 . S
C2261 C2262 1.379 . S
C2262 H2246 0.931 . S
C2262 C2256 1.383 . S
C2262 C2261 1.379 . S
H2263 C2257 0.959 . S
H2264 C2257 0.961 . S
H2265 C2257 0.960 . S
H2266 C2258 0.930 . S
H2267 C2259 0.929 . S
H2268 C2276 0.929 . S
H2269 C2278 0.930 . S
H2270 C2280 0.930 . S
H2271 C2283 0.929 . S
H2272 C2286 0.930 . S
H2273 C2288 0.960 . S
H2274 C2288 0.960 . S
H2275 C2288 0.960 . S
C2276 H2268 0.929 . S
C2276 C2277 1.377 . S
C2276 C2278 1.384 . S
C2277 C2276 1.377 . S
C2277 C2283 1.390 . S
C2278 H2269 0.930 . S
C2278 C2276 1.384 . S
C2278 C2279 1.372 . S
C2279 C2278 1.372 . S
C2279 C2280 1.400 . S
C2279 C2284 1.490 . S
C2280 H2270 0.930 . S
C2280 C2279 1.400 . S
C2280 C2283 1.386 . S
H2281 C2297 0.930 . S
H2282 C2298 0.931 . S
C2283 H2271 0.929 . S
C2283 C2277 1.390 . S
C2283 C2280 1.386 . S
C2284 C2279 1.490 . S
C2284 C2286 1.395 . S
C2284 C2287 1.403 . S
H2285 C2291 0.930 . S
C2286 H2272 0.930 . S
C2286 C2284 1.395 . S
C2286 C2289 1.403 . S
C2287 C2284 1.403 . S
C2287 C2288 1.524 . S
C2287 C2291 1.400 . S
C2288 H2273 0.960 . S
C2288 H2274 0.960 . S
C2288 H2275 0.960 . S
C2288 C2287 1.524 . S
C2289 C2286 1.403 . S
C2289 C2290 1.392 . S
C2289 C2293 1.495 . S
C2290 C2289 1.392 . S
C2290 C2291 1.385 . S
C2290 C2292 1.478 . S
C2291 H2285 0.930 . S
C2291 C2287 1.400 . S
C2291 C2290 1.385 . S
C2292 C2290 1.478 . S
C2292 C2294 1.381 . S
C2292 C2298 1.383 . S
C2293 C2289 1.495 . S
C2293 H2299 0.959 . S
C2293 H2300 0.961 . S
C2293 H2301 0.960 . S
C2294 C2292 1.381 . S
C2294 C2295 1.394 . S
C2294 H2302 0.930 . S
C2295 C2294 1.394 . S
C2295 C2296 1.383 1_556 S
C2295 H2303 0.929 . S
C2296 C2295 1.383 1_554 S
C2296 C2297 1.377 1_554 S
C2297 H2281 0.930 . S
C2297 C2296 1.377 1_556 S
C2297 C2298 1.379 . S
C2298 H2282 0.931 . S
C2298 C2292 1.383 . S
C2298 C2297 1.379 . S
H2299 C2293 0.959 . S
H2300 C2293 0.961 . S
H2301 C2293 0.960 . S
H2302 C2294 0.930 . S
H2303 C2295 0.929 . S
C369 C266 1.507 . S
C388 C6 1.495 . S
C405 C29 1.482 . S
C424 C289 1.449 . S
C441 C46 1.485 . S
C460 C249 1.497 . S
C477 C49 1.486 . S
C496 C149 1.508 . S
C513 C169 1.812 . S
C532 C9 1.816 . S
C549 C26 1.698 . S
C568 C129 1.726 . S
C585 C76 1.718 . S
C604 C201 1.774 . S
C621 C81 1.490 . S
C640 C221 1.484 . S
C657 C181 1.449 . S
C676 C116 1.390 . S
C693 C321 1.478 . S
C712 C101 1.448 1_565 S
C729 C61 1.509 . S
C748 C356 1.495 . S
C765 C316 1.499 . S
C784 C96 1.479 . S
C801 C166 1.275 . S
C820 C269 1.295 . S
C837 C126 1.252 . S
C856 C286 1.272 . S
C873 C146 1.523 . S
C892 C246 1.495 . S
C909 C196 1.539 . S
C928 C336 1.533 . S
C945 C341 1.355 . S
C964 C216 1.313 . S
C981 C301 1.607 . S
C1000 C236 1.566 . S
C1017 C1 1.625 . S
C1036 C89 1.631 . S
C1053 C106 2.023 . S
C1072 C36 1.985 . S
C1089 C66 1.771 . S
C1108 C41 1.820 . S
C1125 C86 1.874 . S
C1144 C56 1.879 . S
C1161 C109 1.878 . S
C1180 C16 1.783 . S
C1197 C69 1.824 . S
C1216 C21 1.824 . S
C1233 C206 1.688 . S
C1252 C136 1.630 . S
C1269 C226 1.894 . S
C1288 C156 1.843 . S
C1305 C186 1.801 . S
C1324 C176 1.746 . S
C1341 C209 1.770 . S
C1360 C161 1.775 . S
C1377 C229 1.617 . S
C1396 C121 1.654 . S
C1413 C189 1.488 . S
C1432 C141 1.476 . S
C1449 C329 1.472 . S
C1468 C241 1.443 . S
C1485 C346 1.626 . S
C1504 C276 1.580 . S
C1521 C281 1.556 . S
C1540 C306 1.446 . S
C1557 C296 1.792 . S
C1576 C326 1.800 . S
C1593 C256 1.470 . S
C1612 C349 1.522 . S
C1629 C309 1.256 . S
C1648 C261 1.258 . S
C1665 C19 1.776 . S
C1684 C8 1.786 . S
C1701 C28 1.789 . S
C1720 C39 1.771 . S
C1737 C59 1.789 . S
C1756 C48 1.791 . S
C1773 C68 1.774 . S
C1792 C79 1.745 . S
C1809 C88 1.783 . S
C1828 C99 1.761 . S
C1845 C119 1.796 . S
C1864 C108 1.818 . S
C1881 C139 1.777 . S
C1900 C128 1.749 . S
C1917 C148 1.771 . S
C1936 C159 1.785 . S
C1953 C179 1.801 . S
C1972 C168 1.767 . S
C1989 C188 1.767 1_554 S
C2008 C199 1.747 . S
C2025 C208 1.778 1_554 S
C2044 C219 1.775 . S
C2061 C228 1.787 1_554 S
C2080 C239 1.759 . S
C2097 C248 1.764 . S
C2116 C259 1.737 1_556 S
C2133 C268 1.775 1_556 S
C2152 C279 1.798 . S
C2169 C299 1.775 1_556 S
C2188 C288 1.757 . S
C2205 C319 1.774 1_556 S
C2224 C308 1.793 . S
C2241 C328 1.777 . S
C2260 C339 1.784 . S
C2277 C348 1.779 . S
C2296 C359 1.771 . S
