# Generated by pormake.
# Topology yfx, (5)-cn, num edge types: 1
# Building blocks:
#     Node 0, Type 0, BuildingBlock: BEQFEK_clean_sbu_0, # of connection points: 5
#     Node 1, Type 0, BuildingBlock: BEQFEK_clean_sbu_0, # of connection points: 5
#     Node 2, Type 0, BuildingBlock: BEQFEK_clean_sbu_0, # of connection points: 5
#     Node 3, Type 0, BuildingBlock: BEQFEK_clean_sbu_0, # of connection points: 5
#     Node 4, Type 0, BuildingBlock: BEQFEK_clean_sbu_0, # of connection points: 5
#     Node 5, Type 0, BuildingBlock: BEQFEK_clean_sbu_0, # of connection points: 5
#     Node 6, Type 0, BuildingBlock: BEQFEK_clean_sbu_0, # of connection points: 5
#     Node 7, Type 0, BuildingBlock: BEQFEK_clean_sbu_0, # of connection points: 5
#     Edge 8, Type (0, 0), BuildingBlock: XIVTED_clean_linker_0, # of connection points: 2
#     Edge 9, Type (0, 0), BuildingBlock: XIVTED_clean_linker_0, # of connection points: 2
#     Edge 10, Type (0, 0), BuildingBlock: XIVTED_clean_linker_0, # of connection points: 2
#     Edge 11, Type (0, 0), BuildingBlock: XIVTED_clean_linker_0, # of connection points: 2
#     Edge 12, Type (0, 0), BuildingBlock: XIVTED_clean_linker_0, # of connection points: 2
#     Edge 13, Type (0, 0), BuildingBlock: XIVTED_clean_linker_0, # of connection points: 2
#     Edge 14, Type (0, 0), BuildingBlock: XIVTED_clean_linker_0, # of connection points: 2
#     Edge 15, Type (0, 0), BuildingBlock: XIVTED_clean_linker_0, # of connection points: 2
#     Edge 16, Type (0, 0), BuildingBlock: XIVTED_clean_linker_0, # of connection points: 2
#     Edge 17, Type (0, 0), BuildingBlock: XIVTED_clean_linker_0, # of connection points: 2
#     Edge 18, Type (0, 0), BuildingBlock: XIVTED_clean_linker_0, # of connection points: 2
#     Edge 19, Type (0, 0), BuildingBlock: XIVTED_clean_linker_0, # of connection points: 2
#     Edge 20, Type (0, 0), BuildingBlock: XIVTED_clean_linker_0, # of connection points: 2
#     Edge 21, Type (0, 0), BuildingBlock: XIVTED_clean_linker_0, # of connection points: 2
#     Edge 22, Type (0, 0), BuildingBlock: XIVTED_clean_linker_0, # of connection points: 2
#     Edge 23, Type (0, 0), BuildingBlock: XIVTED_clean_linker_0, # of connection points: 2
#     Edge 24, Type (0, 0), BuildingBlock: XIVTED_clean_linker_0, # of connection points: 2
#     Edge 25, Type (0, 0), BuildingBlock: XIVTED_clean_linker_0, # of connection points: 2
#     Edge 26, Type (0, 0), BuildingBlock: XIVTED_clean_linker_0, # of connection points: 2
#     Edge 27, Type (0, 0), BuildingBlock: XIVTED_clean_linker_0, # of connection points: 2
# Relax obj value: 0.162
# Max RMSD: 0.152
# Mean RMSD: 0.152
data_MOF--net-yfx--node1-BEQFEK_clean_sbu_0--edge1-XIVTED_clean_linker_0
_symmetry_space_group_name_H-M    P1
_symmetry_Int_Tables_number       1
_symmetry_cell_setting            triclinic
loop_
_symmetry_equiv_pos_as_xyz
'x, y, z'
_cell_length_a     39.98798
_cell_length_b     40.02646
_cell_length_c     22.344833
_cell_angle_alpha  90.02057
_cell_angle_beta   90.013487
_cell_angle_gamma 89.963653
loop_
_atom_site_label
_atom_site_type_symbol
_atom_site_fract_x
_atom_site_fract_y
_atom_site_fract_z
_atom_type_partial_charge
Co0 Co 0.25724 0.3506 0.98885 0.0
Co1 Co 0.18232 0.36828 0.02032 0.0
C2 C 0.20003 0.32149 0.92102 0.0
O3 O 0.23058 0.32504 0.93423 0.0
O4 O 0.17685 0.33734 0.94845 0.0
C5 C 0.31141 0.3115 0.96502 0.0
O6 O 0.28711 0.2895 0.96841 0.0
C7 C 0.11791 0.40667 0.01085 0.0
C8 C 0.10407 0.40941 0.10631 0.0
C9 C 0.09491 0.42103 0.05023 0.0
N10 N 0.13984 0.38808 0.04272 0.0
N11 N 0.1308 0.38935 0.09954 0.0
C12 C 0.12111 0.41314 0.9452 0.0
H13 H 0.14649 0.40627 0.92922 0.0
H14 H 0.11581 0.43978 0.9351 0.0
H15 H 0.10246 0.39771 0.92098 0.0
C16 C 0.26284 0.42195 0.9737 0.0
N17 N 0.24455 0.39485 0.98618 0.0
N18 N 0.21419 0.4036 0.00292 0.0
C19 C 0.21282 0.43739 0.00349 0.0
C20 C 0.2435 0.44989 0.9846 0.0
C21 C 0.29784 0.42058 0.94999 0.0
H22 H 0.31536 0.41597 0.98763 0.0
H23 H 0.30026 0.39964 0.91776 0.0
H24 H 0.30487 0.44419 0.92725 0.0
O25 O 0.2522 0.33391 0.06885 0.0
O26 O 0.19852 0.34059 0.09133 0.0
H27 H 0.19305 0.48224 0.04386 0.0
H28 H 0.16586 0.46191 0.99141 0.0
C29 C 0.18431 0.45755 0.02755 0.0
H30 H 0.17206 0.44418 0.06494 0.0
H31 H 0.144 0.37797 0.13429 0.0
O32 O 0.30447 0.34236 0.97008 0.0
C33 C 0.22789 0.33028 0.1044 0.0
Co34 Co 0.64705 0.2541 0.96942 0.0
Co35 Co 0.63499 0.17894 0.00629 0.0
C36 C 0.67639 0.19831 0.89954 0.0
O37 O 0.67081 0.22877 0.91062 0.0
O38 O 0.66431 0.17487 0.93179 0.0
C39 C 0.68182 0.31007 0.93593 0.0
O40 O 0.70349 0.28643 0.92334 0.0
C41 C 0.59989 0.11306 0.99775 0.0
C42 C 0.60466 0.09528 0.09081 0.0
C43 C 0.59038 0.08716 0.03611 0.0
N44 N 0.61823 0.13541 0.02901 0.0
N45 N 0.62116 0.12433 0.08442 0.0
C46 C 0.59301 0.1161 0.93215 0.0
H47 H 0.61133 0.13318 0.91088 0.0
H48 H 0.56766 0.12655 0.92505 0.0
H49 H 0.59411 0.09115 0.91051 0.0
C50 C 0.57492 0.25625 0.96747 0.0
N51 N 0.6035 0.23929 0.97431 0.0
N52 N 0.59734 0.2088 0.99352 0.0
C53 C 0.56393 0.206 0.00174 0.0
C54 C 0.5488 0.23591 0.98506 0.0
C55 C 0.57313 0.2912 0.94379 0.0
H56 H 0.5925 0.29489 0.9089 0.0
H57 H 0.54817 0.29666 0.92441 0.0
H58 H 0.57814 0.30899 0.98081 0.0
O59 O 0.66809 0.24963 0.04664 0.0
O60 O 0.6638 0.19656 0.07442 0.0
H61 H 0.52371 0.18551 0.0546 0.0
H62 H 0.54039 0.15809 0.99861 0.0
C63 C 0.54708 0.17728 0.03222 0.0
H64 H 0.56392 0.16607 0.06606 0.0
H65 H 0.63372 0.13706 0.11841 0.0
O66 O 0.65247 0.30194 0.95228 0.0
C67 C 0.67382 0.22643 0.08369 0.0
Co68 Co 0.7358 0.63252 0.01657 0.0
Co69 Co 0.81399 0.62782 0.03421 0.0
C70 C 0.78281 0.66204 0.92789 0.0
O71 O 0.75415 0.65479 0.94807 0.0
O72 O 0.80955 0.65391 0.95585 0.0
C73 C 0.67267 0.6391 0.9596 0.0
O74 O 0.6905 0.63945 0.91026 0.0
C75 C 0.88222 0.59828 0.01437 0.0
C76 C 0.90391 0.60489 0.10439 0.0
C77 C 0.9104 0.59073 0.04894 0.0
N78 N 0.86013 0.6153 0.04864 0.0
N79 N 0.87362 0.61945 0.10207 0.0
C80 C 0.87688 0.59091 0.94939 0.0
H81 H 0.85794 0.60813 0.93028 0.0
H82 H 0.86771 0.56502 0.94365 0.0
H83 H 0.9008 0.59331 0.92456 0.0
C84 C 0.73969 0.56089 0.02255 0.0
N85 N 0.75452 0.59081 0.02412 0.0
N86 N 0.78684 0.58748 0.03393 0.0
C87 C 0.79326 0.55446 0.04076 0.0
C88 C 0.76362 0.53683 0.0335 0.0
C89 C 0.70369 0.55584 0.00628 0.0
H90 H 0.68773 0.56389 0.04426 0.0
H91 H 0.6974 0.57159 0.96707 0.0
H92 H 0.69803 0.52947 0.9951 0.0
O93 O 0.74416 0.65827 0.08776 0.0
O94 O 0.79908 0.65852 0.10201 0.0
H95 H 0.8397 0.55682 0.08894 0.0
H96 H 0.8227 0.51528 0.08075 0.0
C97 C 0.82622 0.53977 0.0583 0.0
H98 H 0.8415 0.53549 0.01775 0.0
H99 H 0.86162 0.63123 0.13778 0.0
O100 O 0.68691 0.63273 0.00907 0.0
C101 C 0.76957 0.66741 0.11732 0.0
Co102 Co 0.35588 0.74011 0.96974 0.0
Co103 Co 0.3695 0.81517 0.00469 0.0
C104 C 0.32955 0.79625 0.89627 0.0
O105 O 0.33394 0.76581 0.90925 0.0
O106 O 0.34136 0.81981 0.92868 0.0
C107 C 0.32071 0.6849 0.93556 0.0
O108 O 0.29798 0.70852 0.93181 0.0
C109 C 0.40593 0.88038 0.99846 0.0
C110 C 0.4057 0.89459 0.09389 0.0
C111 C 0.41863 0.90383 0.03876 0.0
N112 N 0.38708 0.85814 0.02895 0.0
N113 N 0.38654 0.86737 0.08571 0.0
C114 C 0.41426 0.87703 0.93349 0.0
H115 H 0.40861 0.85139 0.91744 0.0
H116 H 0.44097 0.88307 0.9255 0.0
H117 H 0.39887 0.89503 0.90763 0.0
C118 C 0.42765 0.73636 0.96645 0.0
N119 N 0.39958 0.75388 0.97506 0.0
N120 N 0.4067 0.78452 0.9925 0.0
C121 C 0.44038 0.7868 0.9976 0.0
C122 C 0.45441 0.75661 0.98 0.0
C123 C 0.4283 0.70023 0.94904 0.0
H124 H 0.41464 0.68545 0.98318 0.0
H125 H 0.41508 0.69702 0.90575 0.0
H126 H 0.45415 0.69043 0.9451 0.0
O127 O 0.33439 0.74472 0.04651 0.0
O128 O 0.33989 0.79804 0.0723 0.0
H129 H 0.44468 0.82838 0.0578 0.0
H130 H 0.484 0.80897 0.03832 0.0
C131 C 0.45901 0.81637 0.02126 0.0
H132 H 0.46282 0.8346 0.98464 0.0
H133 H 0.37459 0.85397 0.11956 0.0
O134 O 0.35052 0.6928 0.94924 0.0
C135 C 0.32914 0.76852 0.08258 0.0
Co136 Co 0.76141 0.86528 0.51911 0.0
Co137 Co 0.68312 0.87069 0.53449 0.0
C138 C 0.71558 0.83649 0.42855 0.0
O139 O 0.74414 0.84349 0.44936 0.0
O140 O 0.68877 0.84473 0.45612 0.0
C141 C 0.82535 0.85875 0.4653 0.0
O142 O 0.80824 0.85943 0.41515 0.0
C143 C 0.61887 0.90485 0.50764 0.0
C144 C 0.58862 0.89261 0.58721 0.0
C145 C 0.58821 0.91129 0.535 0.0
N146 N 0.63667 0.88392 0.5427 0.0
N147 N 0.61815 0.87639 0.58979 0.0
C148 C 0.63064 0.91705 0.44793 0.0
H149 H 0.65781 0.91224 0.44234 0.0
H150 H 0.62538 0.94401 0.4421 0.0
H151 H 0.61682 0.90349 0.41236 0.0
C152 C 0.75823 0.93698 0.52661 0.0
N153 N 0.74307 0.90721 0.5264 0.0
N154 N 0.71083 0.91069 0.53679 0.0
C155 C 0.70487 0.94359 0.54637 0.0
C156 C 0.73465 0.96107 0.53983 0.0
C157 C 0.79425 0.94196 0.51047 0.0
H158 H 0.81012 0.93506 0.54929 0.0
H159 H 0.8009 0.92543 0.47252 0.0
H160 H 0.79961 0.96814 0.49745 0.0
O161 O 0.75121 0.83951 0.58961 0.0
O162 O 0.69617 0.83985 0.60318 0.0
H163 H 0.65803 0.93969 0.59315 0.0
H164 H 0.67671 0.98076 0.59437 0.0
C165 C 0.67236 0.95815 0.56666 0.0
H166 H 0.65765 0.96589 0.52707 0.0
H167 H 0.62613 0.86111 0.62483 0.0
O168 O 0.81046 0.86439 0.51445 0.0
C169 C 0.72556 0.83069 0.61885 0.0
Co170 Co 0.14428 0.76063 0.47303 0.0
Co171 Co 0.13042 0.68516 0.50461 0.0
C172 C 0.16991 0.70577 0.3961 0.0
O173 O 0.16576 0.73612 0.4102 0.0
O174 O 0.1582 0.6819 0.42791 0.0
C175 C 0.18071 0.81595 0.44921 0.0
O176 O 0.2028 0.79178 0.4446 0.0
C177 C 0.09372 0.61999 0.49588 0.0
C178 C 0.09423 0.60482 0.59081 0.0
C179 C 0.08111 0.59619 0.53552 0.0
N180 N 0.11276 0.64187 0.5269 0.0
N181 N 0.11348 0.63203 0.58332 0.0
C182 C 0.0851 0.62393 0.43115 0.0
H183 H 0.0908 0.64968 0.41574 0.0
H184 H 0.05832 0.61806 0.42339 0.0
H185 H 0.10025 0.60605 0.40458 0.0
C186 C 0.0725 0.76487 0.47128 0.0
N187 N 0.10052 0.74708 0.4786 0.0
N188 N 0.09333 0.71623 0.49468 0.0
C189 C 0.05966 0.71402 0.50008 0.0
C190 C 0.0457 0.74454 0.48426 0.0
C191 C 0.07197 0.8012 0.45538 0.0
H192 H 0.08557 0.81551 0.49027 0.0
H193 H 0.08533 0.80494 0.41238 0.0
H194 H 0.04615 0.81111 0.45165 0.0
O195 O 0.1661 0.75426 0.54888 0.0
O196 O 0.16036 0.7008 0.57294 0.0
H197 H 0.05528 0.67137 0.55773 0.0
H198 H 0.01597 0.69112 0.53919 0.0
C199 C 0.04099 0.68405 0.52184 0.0
H200 H 0.03727 0.66649 0.48413 0.0
H201 H 0.12558 0.64504 0.61751 0.0
O202 O 0.15021 0.80847 0.45785 0.0
C203 C 0.17134 0.73011 0.5841 0.0
Co204 Co 0.24224 0.14589 0.49177 0.0
Co205 Co 0.31797 0.13342 0.52224 0.0
C206 C 0.29323 0.16664 0.40702 0.0
O207 O 0.26303 0.16082 0.42018 0.0
O208 O 0.31722 0.15936 0.44271 0.0
C209 C 0.18649 0.1823 0.47235 0.0
O210 O 0.21084 0.20337 0.46087 0.0
C211 C 0.38036 0.09435 0.50258 0.0
C212 C 0.40921 0.10592 0.58419 0.0
C213 C 0.40999 0.08679 0.53251 0.0
N214 N 0.36276 0.11645 0.53564 0.0
N215 N 0.3804 0.12343 0.58409 0.0
C216 C 0.36973 0.08239 0.44204 0.0
H217 H 0.34405 0.09117 0.43153 0.0
H218 H 0.37071 0.05478 0.43946 0.0
H219 H 0.38736 0.09223 0.40799 0.0
C220 C 0.23777 0.07433 0.50614 0.0
N221 N 0.25548 0.10268 0.50758 0.0
N222 N 0.28673 0.09641 0.52235 0.0
C223 C 0.28937 0.06329 0.53341 0.0
C224 C 0.25854 0.04835 0.52288 0.0
C225 C 0.20251 0.07225 0.48381 0.0
H226 H 0.18514 0.07722 0.52151 0.0
H227 H 0.19818 0.09139 0.44878 0.0
H228 H 0.19692 0.04724 0.46492 0.0
O229 O 0.25377 0.17509 0.55749 0.0
O230 O 0.30535 0.1651 0.58938 0.0
H231 H 0.33439 0.06386 0.58613 0.0
H232 H 0.31242 0.0244 0.58564 0.0
C233 C 0.31971 0.04633 0.55818 0.0
H234 H 0.33544 0.03715 0.52089 0.0
H235 H 0.37242 0.13958 0.61788 0.0
O236 O 0.19375 0.15216 0.48469 0.0
C237 C 0.27755 0.18065 0.59347 0.0
Co238 Co 0.8561 0.24396 0.47532 0.0
Co239 Co 0.86605 0.31973 0.50664 0.0
C240 C 0.83587 0.29444 0.38908 0.0
O241 O 0.84237 0.26444 0.4026 0.0
O242 O 0.84163 0.31858 0.42537 0.0
C243 C 0.82099 0.18775 0.45505 0.0
O244 O 0.80025 0.21161 0.43905 0.0
C245 C 0.90168 0.38504 0.49179 0.0
C246 C 0.89217 0.40803 0.57989 0.0
C247 C 0.90935 0.41305 0.52669 0.0
N248 N 0.88161 0.36454 0.5237 0.0
N249 N 0.87584 0.37875 0.57603 0.0
C250 C 0.91203 0.37817 0.42862 0.0
H251 H 0.89485 0.35984 0.40762 0.0
H252 H 0.93758 0.36747 0.42793 0.0
H253 H 0.91221 0.40168 0.40229 0.0
C254 C 0.92729 0.24081 0.49742 0.0
N255 N 0.89864 0.25803 0.49476 0.0
N256 N 0.90383 0.28949 0.50926 0.0
C257 C 0.93649 0.29286 0.52385 0.0
C258 C 0.95228 0.26216 0.51643 0.0
C259 C 0.93068 0.20519 0.47776 0.0
H260 H 0.92432 0.18854 0.51579 0.0
H261 H 0.91307 0.19994 0.44059 0.0
H262 H 0.9565 0.19955 0.46269 0.0
O263 O 0.82512 0.25459 0.53891 0.0
O264 O 0.83351 0.30613 0.57174 0.0
H265 H 0.93375 0.33715 0.57795 0.0
H266 H 0.9745 0.31765 0.57601 0.0
C267 C 0.95195 0.32382 0.54919 0.0
H268 H 0.9597 0.34049 0.5122 0.0
H269 H 0.86149 0.36798 0.6099 0.0
O270 O 0.85081 0.19544 0.46911 0.0
C271 C 0.81842 0.2781 0.57479 0.0
H272 H 0.5218 0.29192 0.03393 0.0
H273 H 0.33421 0.24855 0.94188 0.0
H274 H 0.49534 0.20089 0.94229 0.0
H275 H 0.36797 0.34806 0.98567 0.0
H276 H 0.39184 0.22862 0.94944 0.0
H277 H 0.46374 0.31044 0.02712 0.0
C278 C 0.50362 0.27584 0.01245 0.0
C279 C 0.51322 0.24515 0.98772 0.0
C280 C 0.38662 0.25483 0.95703 0.0
C281 C 0.44693 0.26593 0.98011 0.0
C282 C 0.35379 0.26625 0.95265 0.0
C283 C 0.34635 0.3 0.96332 0.0
C284 C 0.41205 0.27727 0.97284 0.0
C285 C 0.37263 0.32186 0.97698 0.0
C286 C 0.47057 0.2864 0.00851 0.0
C287 C 0.48874 0.22477 0.96177 0.0
N288 N 0.40433 0.31004 0.9818 0.0
N289 N 0.45659 0.23561 0.95833 0.0
H290 H 0.74014 0.33722 0.8956 0.0
H291 H 0.71997 0.50009 0.09846 0.0
H292 H 0.65191 0.36032 -0.00092 0.0
H293 H 0.79405 0.49244 0.95914 0.0
H294 H 0.70063 0.44373 0.07429 0.0
H295 H 0.76437 0.39076 0.92563 0.0
C296 C 0.7257 0.35376 0.924 0.0
C297 C 0.69399 0.34436 0.94497 0.0
C298 C 0.72139 0.45416 0.04946 0.0
C299 C 0.72185 0.40499 0.98053 0.0
C300 C 0.73265 0.48603 0.06375 0.0
C301 C 0.75833 0.50063 0.03029 0.0
C302 C 0.73607 0.43691 0.00147 0.0
C303 C 0.77415 0.48175 0.98582 0.0
C304 C 0.73963 0.38415 0.94139 0.0
C305 C 0.67636 0.36665 0.98166 0.0
N306 N 0.76247 0.45083 0.97207 0.0
N307 N 0.69068 0.39584 -0.00127 0.0
H308 H 0.63681 0.66333 0.86468 0.0
H309 H 0.4953 0.74317 0.07384 0.0
H310 H 0.63212 0.64944 0.05623 0.0
H311 H 0.4914 0.74483 0.88128 0.0
H312 H 0.54909 0.7138 0.06856 0.0
H313 H 0.58523 0.6959 0.86954 0.0
C314 C 0.6247 0.66671 0.90762 0.0
C315 C 0.63886 0.65375 0.96015 0.0
C316 C 0.53673 0.721 0.02741 0.0
C317 C 0.58032 0.69153 0.96616 0.0
C318 C 0.50641 0.73811 0.03055 0.0
C319 C 0.48955 0.74653 0.9779 0.0
C320 C 0.54989 0.71225 0.97117 0.0
C321 C 0.50417 0.73892 0.92269 0.0
C322 C 0.59541 0.68554 0.91042 0.0
C323 C 0.62214 0.65902 0.01459 0.0
N324 N 0.53351 0.72197 0.92067 0.0
N325 N 0.59388 0.67772 0.01622 0.0
H326 H 0.30012 0.47821 0.0284 0.0
H327 H 0.26034 0.65978 0.90084 0.0
H328 H 0.21095 0.50067 0.92765 0.0
H329 H 0.35724 0.62996 0.96754 0.0
H330 H 0.24096 0.60228 0.91168 0.0
H331 H 0.32017 0.53494 0.01072 0.0
C332 C 0.2848 0.49523 0.00253 0.0
C333 C 0.25408 0.48492 0.97886 0.0
C334 C 0.26653 0.60828 0.92343 0.0
C335 C 0.2766 0.5497 0.9587 0.0
C336 C 0.27765 0.64105 0.91715 0.0
C337 C 0.31036 0.64965 0.93378 0.0
C338 C 0.28822 0.58408 0.94701 0.0
C339 C 0.33178 0.62441 0.95434 0.0
C340 C 0.29623 0.52752 0.99235 0.0
C341 C 0.23476 0.50791 0.94672 0.0
N342 N 0.32021 0.59278 0.96094 0.0
N343 N 0.2464 0.53935 0.93739 0.0
H344 H 0.00394 0.75564 0.578 0.0
H345 H 0.86293 0.83761 0.37024 0.0
H346 H 0.00936 0.75834 0.38559 0.0
H347 H 0.86447 0.84599 0.56299 0.0
H348 H 0.91512 0.80603 0.37459 0.0
H349 H 0.9496 0.78406 0.57338 0.0
C350 C 0.9931 0.7615 0.53482 0.0
C351 C 0.01052 0.75456 0.48206 0.0
C352 C 0.90411 0.81495 0.41589 0.0
C353 C 0.94951 0.78771 0.47616 0.0
C354 C 0.87445 0.8332 0.4134 0.0
C355 C 0.85928 0.84437 0.46633 0.0
C356 C 0.91858 0.80775 0.4717 0.0
C357 C 0.87527 0.83783 0.52103 0.0
C358 C 0.96244 0.77805 0.53209 0.0
C359 C 0.99619 0.76313 0.42706 0.0
N360 N 0.90395 0.81975 0.52231 0.0
N361 N 0.9665 0.77949 0.42547 0.0
H362 H 0.2046 0.01796 0.57286 0.0
H363 H 0.24261 0.84066 0.42391 0.0
H364 H 0.29292 0.9982 0.46804 0.0
H365 H 0.14554 0.86983 0.49066 0.0
H366 H 0.26369 0.89641 0.44718 0.0
H367 H 0.18553 0.96086 0.55415 0.0
C368 C 0.22014 0.00132 0.54658 0.0
C369 C 0.25015 0.01261 0.52148 0.0
C370 C 0.23774 0.89065 0.45639 0.0
C371 C 0.22857 0.94769 0.49953 0.0
C372 C 0.22564 0.85892 0.4429 0.0
C373 C 0.19229 0.85065 0.45546 0.0
C374 C 0.2164 0.91413 0.48311 0.0
C375 C 0.1714 0.87522 0.48006 0.0
C376 C 0.2092 0.96891 0.53561 0.0
C377 C 0.2697 0.99023 0.48838 0.0
N378 N 0.18389 0.90582 0.49351 0.0
N379 N 0.25842 0.95878 0.47789 0.0
H380 H 0.16277 0.24387 0.44204 0.0
H381 H 0.98048 0.20965 0.57476 0.0
H382 H 0.13211 0.14957 0.51816 0.0
H383 H 0.00479 0.29586 0.46775 0.0
H384 H 0.03847 0.19071 0.56657 0.0
H385 H 0.10683 0.266 0.46025 0.0
C386 C 0.1442 0.22774 0.46227 0.0
C387 C 0.15204 0.19479 0.4785 0.0
C388 C 0.03123 0.21392 0.54531 0.0
C389 C 0.08819 0.22013 0.50015 0.0
C390 C 0.99827 0.22477 0.55022 0.0
C391 C 0.98805 0.25407 0.52131 0.0
C392 C 0.05402 0.23264 0.51134 0.0
C393 C 0.01189 0.27313 0.49073 0.0
C394 C 0.11232 0.24045 0.47283 0.0
C395 C 0.12706 0.17506 0.50466 0.0
N396 N 0.04382 0.2619 0.48602 0.0
N397 N 0.09623 0.18809 0.51487 0.0
H398 H 0.8514 0.13705 0.51645 0.0
H399 H 0.70175 0.00843 0.47526 0.0
H400 H 0.76017 0.16249 0.42351 0.0
H401 H 0.78132 0.9952 0.60318 0.0
H402 H 0.72116 0.06563 0.45717 0.0
H403 H 0.82633 0.08401 0.54617 0.0
C404 C 0.82623 0.13131 0.50175 0.0
C405 C 0.80785 0.15412 0.46735 0.0
C406 C 0.73402 0.05042 0.48998 0.0
C407 C 0.77885 0.0938 0.50188 0.0
C408 C 0.72273 0.018 0.50071 0.0
C409 C 0.74033 0.99731 0.54013 0.0
C410 C 0.7632 0.06175 0.51862 0.0
C411 C 0.76747 0.01051 0.57183 0.0
C412 C 0.81178 0.10122 0.51931 0.0
C413 C 0.77522 0.14555 0.45002 0.0
N414 N 0.77848 0.04179 0.55965 0.0
N415 N 0.76175 0.116 0.46739 0.0
H416 H 0.27048 0.15266 0.29648 0.0
H417 H 0.27631 0.34157 0.18635 0.0
H418 H 0.32212 0.22817 0.39802 0.0
H419 H 0.19801 0.27244 0.1397 0.0
H420 H 0.29943 0.30024 0.25604 0.0
H421 H 0.25352 0.19507 0.22407 0.0
C422 C 0.27959 0.17798 0.30189 0.0
C423 C 0.29789 0.18696 0.35298 0.0
C424 C 0.27685 0.29435 0.23141 0.0
C425 C 0.27728 0.23586 0.27199 0.0
C426 C 0.26338 0.31803 0.19243 0.0
C427 C 0.23485 0.31052 0.15836 0.0
C428 C 0.26219 0.26263 0.23496 0.0
C429 C 0.21955 0.27942 0.16629 0.0
C430 C 0.2692 0.2023 0.26141 0.0
C431 C 0.30846 0.2202 0.35869 0.0
N432 N 0.2337 0.25637 0.20323 0.0
N433 N 0.29755 0.24368 0.31908 0.0
H434 H 0.6646 0.27909 0.15763 0.0
H435 H 0.85104 0.26939 0.2806 0.0
H436 H 0.73113 0.19652 0.12365 0.0
H437 H 0.77503 0.32463 0.37487 0.0
H438 H 0.80953 0.25256 0.20634 0.0
H439 H 0.70577 0.30282 0.22697 0.0
C440 C 0.6876 0.26554 0.16611 0.0
C441 C 0.69437 0.23553 0.13583 0.0
C442 C 0.80205 0.269 0.24247 0.0
C443 C 0.74206 0.26336 0.21242 0.0
C444 C 0.82586 0.27926 0.28403 0.0
C445 C 0.81642 0.29853 0.33374 0.0
C446 C 0.76855 0.27825 0.2504 0.0
C447 C 0.78338 0.31015 0.33675 0.0
C448 C 0.71114 0.27929 0.20504 0.0
C449 C 0.72473 0.2193 0.14713 0.0
N450 N 0.76038 0.2994 0.29604 0.0
N451 N 0.7477 0.23367 0.18402 0.0
H452 H 0.80943 0.71827 0.15965 0.0
H453 H 0.67593 0.78236 0.40111 0.0
H454 H 0.71452 0.66959 0.18793 0.0
H455 H 0.75719 0.84242 0.3342 0.0
H456 H 0.68936 0.73966 0.32555 0.0
H457 H 0.79267 0.76175 0.23129 0.0
C458 C 0.78541 0.71641 0.18179 0.0
C459 C 0.76333 0.69042 0.16783 0.0
C460 C 0.70388 0.76248 0.32689 0.0
C461 C 0.74368 0.74012 0.24861 0.0
C462 C 0.69583 0.78702 0.36932 0.0
C463 C 0.71555 0.81582 0.3739 0.0
C464 C 0.73195 0.76685 0.28959 0.0
C465 C 0.74154 0.82037 0.33239 0.0
C466 C 0.77561 0.74141 0.22197 0.0
C467 C 0.73224 0.68937 0.19724 0.0
N468 N 0.7493 0.79599 0.29264 0.0
N469 N 0.72331 0.71387 0.23609 0.0
H470 H 0.34052 0.71905 0.16227 0.0
H471 H 0.15396 0.72526 0.2849 0.0
H472 H 0.2707 0.79745 0.11917 0.0
H473 H 0.2325 0.67885 0.38727 0.0
H474 H 0.19479 0.74097 0.20862 0.0
H475 H 0.30054 0.69653 0.23511 0.0
C476 C 0.31704 0.73198 0.16942 0.0
C477 C 0.309 0.76048 0.13571 0.0
C478 C 0.203 0.72662 0.24701 0.0
C479 C 0.26269 0.73391 0.21623 0.0
C480 C 0.17962 0.71694 0.28977 0.0
C481 C 0.18987 0.70033 0.3419 0.0
C482 C 0.23693 0.71955 0.25634 0.0
C483 C 0.22355 0.69101 0.34706 0.0
C484 C 0.29418 0.71892 0.21037 0.0
C485 C 0.27805 0.77589 0.14531 0.0
N486 N 0.24608 0.70111 0.30504 0.0
N487 N 0.25578 0.76214 0.18424 0.0
H488 H 0.68742 0.77757 0.65713 0.0
H489 H 0.82029 0.71803 0.90375 0.0
H490 H 0.77859 0.83133 0.69396 0.0
H491 H 0.74325 0.65457 0.83113 0.0
H492 H 0.80566 0.7608 0.82911 0.0
H493 H 0.70519 0.73424 0.72837 0.0
C494 C 0.71074 0.7806 0.68121 0.0
C495 C 0.73156 0.80796 0.66976 0.0
C496 C 0.79236 0.73724 0.82895 0.0
C497 C 0.75244 0.75845 0.74986 0.0
C498 C 0.80115 0.71267 0.87081 0.0
C499 C 0.78292 0.68284 0.87349 0.0
C500 C 0.76503 0.73185 0.79029 0.0
C501 C 0.75777 0.67739 0.83066 0.0
C502 C 0.72117 0.75569 0.72108 0.0
C503 C 0.76186 0.81047 0.70142 0.0
N504 N 0.74924 0.7018 0.79147 0.0
N505 N 0.77143 0.78603 0.73985 0.0
H506 H 0.22908 0.69984 0.62103 0.0
H507 H 0.26705 0.82352 0.8899 0.0
H508 H 0.16083 0.77969 0.66385 0.0
H509 H 0.34425 0.77704 0.78438 0.0
H510 H 0.2257 0.8069 0.81398 0.0
H511 H 0.26924 0.72316 0.69319 0.0
C512 C 0.22219 0.72162 0.64707 0.0
C513 C 0.19161 0.73768 0.63733 0.0
C514 C 0.25186 0.80122 0.80671 0.0
C515 C 0.2374 0.765 0.71807 0.0
C516 C 0.27551 0.8114 0.84926 0.0
C517 C 0.30909 0.80204 0.84277 0.0
C518 C 0.26201 0.78098 0.75853 0.0
C519 C 0.3186 0.78512 0.79045 0.0
C520 C 0.24527 0.73532 0.68723 0.0
C521 C 0.18414 0.76646 0.67082 0.0
N522 N 0.29512 0.77444 0.75103 0.0
N523 N 0.20687 0.77924 0.7098 0.0
H524 H 0.2514 0.24229 0.58173 0.0
H525 H 0.20185 0.25448 0.92733 0.0
H526 H 0.28316 0.17097 0.71447 0.0
H527 H 0.18986 0.33617 0.80401 0.0
H528 H 0.22223 0.2194 0.84545 0.0
H529 H 0.22369 0.27485 0.6598 0.0
C530 C 0.25336 0.23409 0.62783 0.0
C531 C 0.27013 0.20432 0.64206 0.0
C532 C 0.21425 0.24469 0.83583 0.0
C533 C 0.23706 0.24054 0.73122 0.0
C534 C 0.20172 0.26442 0.88221 0.0
C535 C 0.19362 0.29805 0.87207 0.0
C536 C 0.21874 0.2588 0.77893 0.0
C537 C 0.19515 0.31014 0.81333 0.0
C538 C 0.23711 0.25238 0.67218 0.0
C539 C 0.27119 0.19422 0.70202 0.0
N540 N 0.20805 0.29069 0.76904 0.0
N541 N 0.25455 0.21217 0.74447 0.0
H542 H 0.66143 0.18672 0.78302 0.0
H543 H 0.82467 0.28947 0.69535 0.0
H544 H 0.74328 0.20281 0.90471 0.0
H545 H 0.75992 0.24521 0.56306 0.0
H546 H 0.79205 0.26161 0.77422 0.0
H547 H 0.69628 0.20739 0.7008 0.0
C548 C 0.68737 0.19283 0.79172 0.0
C549 C 0.69979 0.19242 0.85032 0.0
C550 C 0.78482 0.25829 0.72789 0.0
C551 C 0.73892 0.21841 0.75787 0.0
C552 C 0.80298 0.27476 0.68315 0.0
C553 C 0.79465 0.26989 0.62291 0.0
C554 C 0.75812 0.23713 0.71201 0.0
C555 C 0.7669 0.24979 0.60918 0.0
C556 C 0.70701 0.20544 0.74516 0.0
C557 C 0.73311 0.20206 0.85979 0.0
N558 N 0.74966 0.23411 0.6533 0.0
N559 N 0.75131 0.21539 0.81435 0.0
H560 H 0.97237 0.5963 0.09748 0.0
H561 H 0.04857 0.42767 0.95829 0.0
H562 H 0.91631 0.53523 0.974 0.0
H563 H 0.08355 0.47538 0.11958 0.0
H564 H 0.00517 0.4713 0.94894 0.0
H565 H 0.01884 0.55714 0.09041 0.0
C566 C 0.96995 0.57492 0.06804 0.0
C567 C 0.94022 0.56938 0.03608 0.0
C568 C 0.02257 0.47224 0.98605 0.0
C569 C 0.99369 0.52381 0.02824 0.0
C570 C 0.04745 0.44751 0.99118 0.0
C571 C 0.06974 0.44786 0.03982 0.0
C572 C 0.02042 0.49771 0.02935 0.0
C573 C 0.06679 0.47391 0.0816 0.0
C574 C 0.99654 0.55244 0.0642 0.0
C575 C 0.9388 0.54111 0.9986 0.0
N576 N 0.04278 0.49767 0.07532 0.0
N577 N 0.96504 0.51926 0.99602 0.0
H578 H 0.59212 0.02786 0.09497 0.0
H579 H 0.42793 0.94852 0.94509 0.0
H580 H 0.53644 0.07953 0.95783 0.0
H581 H 0.46986 0.91778 0.11416 0.0
H582 H 0.47169 0.99172 0.93737 0.0
H583 H 0.55212 0.98212 0.09011 0.0
C584 C 0.57173 0.02948 0.06315 0.0
C585 C 0.56805 0.05772 0.02644 0.0
C586 C 0.47131 0.97534 0.9759 0.0
C587 C 0.52156 0.00505 0.02097 0.0
C588 C 0.44651 0.95055 0.98014 0.0
C589 C 0.44525 0.92941 0.0303 0.0
C590 C 0.49522 0.97862 0.02177 0.0
C591 C 0.46966 0.93359 0.07486 0.0
C592 C 0.54878 0.00329 0.06053 0.0
C593 C 0.54099 0.05814 0.98608 0.0
N594 N 0.49355 0.9575 0.06944 0.0
N595 N 0.5187 0.03229 0.98462 0.0
H596 H 0.40103 0.02057 0.50429 0.0
H597 H 0.59714 0.97783 0.51021 0.0
H598 H 0.47775 0.09421 0.53439 0.0
H599 H 0.5204 0.90328 0.53142 0.0
H600 H 0.55384 0.02062 0.49918 0.0
H601 H 0.44439 0.97755 0.4945 0.0
C602 C 0.42703 0.0279 0.50694 0.0
C603 C 0.43583 0.06121 0.51873 0.0
C604 C 0.54642 0.99483 0.50522 0.0
C605 C 0.48563 0.01187 0.50933 0.0
C606 C 0.57118 0.97025 0.51056 0.0
C607 C 0.56239 0.93673 0.52013 0.0
C608 C 0.51251 0.98592 0.50955 0.0
C609 C 0.52824 0.92877 0.52332 0.0
C610 C 0.45178 0.00321 0.50228 0.0
C611 C 0.46992 0.06889 0.52467 0.0
N612 N 0.50457 0.95311 0.51798 0.0
N613 N 0.49354 0.04449 0.51982 0.0
H614 H 0.0283 0.5847 0.60837 0.0
H615 H 0.96643 0.41685 0.45454 0.0
H616 H 0.07254 0.55025 0.4436 0.0
H617 H 0.9064 0.47474 0.57717 0.0
H618 H 0.00641 0.4631 0.44934 0.0
H619 H 0.98515 0.54213 0.59903 0.0
C620 C 0.02887 0.56816 0.56999 0.0
C621 C 0.05407 0.57112 0.52665 0.0
C622 C 0.98417 0.46578 0.47657 0.0
C623 C 0.00457 0.5217 0.51585 0.0
C624 C 0.961 0.43942 0.47914 0.0
C625 C 0.93249 0.44177 0.51589 0.0
C626 C 0.97915 0.49446 0.51176 0.0
C627 C 0.92793 0.47152 0.54836 0.0
C628 C 0.00407 0.5439 0.56451 0.0
C629 C 0.05338 0.54904 0.47772 0.0
N630 N 0.95101 0.49639 0.54591 0.0
N631 N 0.02921 0.52497 0.47392 0.0
loop_
_geom_bond_atom_site_label_1
_geom_bond_atom_site_label_2
_geom_bond_distance
_geom_bond_site_symmetry_2
_ccdc_geom_bond_type
Co0 O3 1.970 1_554 S
Co0 N17 1.989 . S
Co0 O25 1.967 . S
Co0 O32 1.920 . S
Co1 O4 1.966 1_554 S
Co1 N10 2.022 . S
Co1 N18 1.993 . S
Co1 O26 1.941 . S
C2 O3 1.258 . S
C2 O4 1.263 . S
O3 Co0 1.970 1_556 S
O3 C2 1.258 . S
O4 Co1 1.966 1_556 S
O4 C2 1.263 . S
C5 O6 1.235 . S
C5 O32 1.289 1_556 S
O6 C5 1.235 . S
C7 C9 1.400 . S
C7 N10 1.351 1_556 S
C7 C12 1.501 . S
C8 C9 1.387 1_554 S
C8 N11 1.341 . S
C9 C7 1.400 . S
C9 C8 1.387 1_556 S
N10 Co1 2.022 . S
N10 C7 1.351 1_554 S
N10 N11 1.365 . S
N11 C8 1.341 . S
N11 N10 1.365 . S
N11 H31 0.862 . S
C12 C7 1.501 . S
C12 H13 0.961 . S
C12 H14 0.961 . S
C12 H15 0.960 . S
H13 C12 0.961 . S
H14 C12 0.961 . S
H15 C12 0.960 . S
C16 N17 1.342 . S
C16 C20 1.401 . S
C16 C21 1.499 . S
N17 Co0 1.989 . S
N17 C16 1.342 . S
N17 N18 1.388 . S
N18 Co1 1.993 . S
N18 N17 1.388 . S
N18 C19 1.346 . S
C19 N18 1.346 . S
C19 C20 1.396 . S
C19 C29 1.510 . S
C20 C16 1.401 . S
C20 C19 1.396 . S
C21 C16 1.499 . S
C21 H22 0.959 . S
C21 H23 0.960 1_554 S
C21 H24 0.961 . S
H22 C21 0.959 . S
H23 C21 0.960 1_556 S
H24 C21 0.961 . S
O25 Co0 1.967 . S
O25 C33 1.258 . S
O26 Co1 1.941 . S
O26 C33 1.266 . S
H27 C29 0.959 . S
H28 C29 0.961 1_556 S
C29 C19 1.510 . S
C29 H27 0.959 . S
C29 H28 0.961 1_554 S
C29 H30 0.960 . S
H30 C29 0.960 . S
H31 N11 0.862 . S
O32 Co0 1.920 . S
O32 C5 1.289 1_554 S
C33 O25 1.258 . S
C33 O26 1.266 . S
Co34 O37 1.970 1_554 S
Co34 N51 1.989 . S
Co34 O59 1.967 . S
Co34 O66 1.920 . S
Co35 O38 1.966 1_554 S
Co35 N44 2.022 . S
Co35 N52 1.993 . S
Co35 O60 1.941 . S
C36 O37 1.258 . S
C36 O38 1.263 . S
O37 Co34 1.970 1_556 S
O37 C36 1.258 . S
O38 Co35 1.966 1_556 S
O38 C36 1.263 . S
C39 O40 1.235 . S
C39 O66 1.289 1_556 S
O40 C39 1.235 . S
C41 C43 1.400 . S
C41 N44 1.351 1_556 S
C41 C46 1.501 . S
C42 C43 1.387 1_554 S
C42 N45 1.341 . S
C43 C41 1.400 . S
C43 C42 1.387 1_556 S
N44 Co35 2.022 . S
N44 C41 1.351 1_554 S
N44 N45 1.365 . S
N45 C42 1.341 . S
N45 N44 1.365 . S
N45 H65 0.862 . S
C46 C41 1.501 . S
C46 H47 0.961 . S
C46 H48 0.961 . S
C46 H49 0.960 . S
H47 C46 0.961 . S
H48 C46 0.961 . S
H49 C46 0.960 . S
C50 N51 1.342 . S
C50 C54 1.401 . S
C50 C55 1.499 . S
N51 Co34 1.989 . S
N51 C50 1.342 . S
N51 N52 1.388 . S
N52 Co35 1.993 . S
N52 N51 1.388 . S
N52 C53 1.346 . S
C53 N52 1.346 . S
C53 C54 1.396 . S
C53 C63 1.510 . S
C54 C50 1.401 . S
C54 C53 1.396 . S
C55 C50 1.499 . S
C55 H56 0.959 . S
C55 H57 0.960 1_554 S
C55 H58 0.961 . S
H56 C55 0.959 . S
H57 C55 0.960 1_556 S
H58 C55 0.961 . S
O59 Co34 1.967 . S
O59 C67 1.258 . S
O60 Co35 1.941 . S
O60 C67 1.266 . S
H61 C63 0.959 . S
H62 C63 0.961 1_556 S
C63 C53 1.510 . S
C63 H61 0.959 . S
C63 H62 0.961 1_554 S
C63 H64 0.960 . S
H64 C63 0.960 . S
H65 N45 0.862 . S
O66 Co34 1.920 . S
O66 C39 1.289 1_554 S
C67 O59 1.258 . S
C67 O60 1.266 . S
Co68 O71 1.970 1_554 S
Co68 N85 1.989 . S
Co68 O93 1.967 . S
Co68 O100 1.920 . S
Co69 O72 1.966 1_554 S
Co69 N78 2.022 . S
Co69 N86 1.993 . S
Co69 O94 1.941 . S
C70 O71 1.258 . S
C70 O72 1.263 . S
O71 Co68 1.970 1_556 S
O71 C70 1.258 . S
O72 Co69 1.966 1_556 S
O72 C70 1.263 . S
C73 O74 1.235 . S
C73 O100 1.289 1_556 S
O74 C73 1.235 . S
C75 C77 1.400 . S
C75 N78 1.351 1_556 S
C75 C80 1.501 . S
C76 C77 1.387 1_554 S
C76 N79 1.341 . S
C77 C75 1.400 . S
C77 C76 1.387 1_556 S
N78 Co69 2.022 . S
N78 C75 1.351 1_554 S
N78 N79 1.365 . S
N79 C76 1.341 . S
N79 N78 1.365 . S
N79 H99 0.862 . S
C80 C75 1.501 . S
C80 H81 0.961 . S
C80 H82 0.961 . S
C80 H83 0.960 . S
H81 C80 0.961 . S
H82 C80 0.961 . S
H83 C80 0.960 . S
C84 N85 1.342 . S
C84 C88 1.401 . S
C84 C89 1.499 . S
N85 Co68 1.989 . S
N85 C84 1.342 . S
N85 N86 1.388 . S
N86 Co69 1.993 . S
N86 N85 1.388 . S
N86 C87 1.346 . S
C87 N86 1.346 . S
C87 C88 1.396 . S
C87 C97 1.510 . S
C88 C84 1.401 . S
C88 C87 1.396 . S
C89 C84 1.499 . S
C89 H90 0.959 . S
C89 H91 0.960 1_554 S
C89 H92 0.961 . S
H90 C89 0.959 . S
H91 C89 0.960 1_556 S
H92 C89 0.961 . S
O93 Co68 1.967 . S
O93 C101 1.258 . S
O94 Co69 1.941 . S
O94 C101 1.266 . S
H95 C97 0.959 . S
H96 C97 0.961 1_556 S
C97 C87 1.510 . S
C97 H95 0.959 . S
C97 H96 0.961 1_554 S
C97 H98 0.960 . S
H98 C97 0.960 . S
H99 N79 0.862 . S
O100 Co68 1.920 . S
O100 C73 1.289 1_554 S
C101 O93 1.258 . S
C101 O94 1.266 . S
Co102 O105 1.970 1_554 S
Co102 N119 1.989 . S
Co102 O127 1.967 . S
Co102 O134 1.920 . S
Co103 O106 1.966 1_554 S
Co103 N112 2.022 . S
Co103 N120 1.993 . S
Co103 O128 1.941 . S
C104 O105 1.258 . S
C104 O106 1.263 . S
O105 Co102 1.970 1_556 S
O105 C104 1.258 . S
O106 Co103 1.966 1_556 S
O106 C104 1.263 . S
C107 O108 1.235 . S
C107 O134 1.289 1_556 S
O108 C107 1.235 . S
C109 C111 1.400 . S
C109 N112 1.351 1_556 S
C109 C114 1.501 . S
C110 C111 1.387 1_554 S
C110 N113 1.341 . S
C111 C109 1.400 . S
C111 C110 1.387 1_556 S
N112 Co103 2.022 . S
N112 C109 1.351 1_554 S
N112 N113 1.365 . S
N113 C110 1.341 . S
N113 N112 1.365 . S
N113 H133 0.862 . S
C114 C109 1.501 . S
C114 H115 0.961 . S
C114 H116 0.961 . S
C114 H117 0.960 . S
H115 C114 0.961 . S
H116 C114 0.961 . S
H117 C114 0.960 . S
C118 N119 1.342 . S
C118 C122 1.401 . S
C118 C123 1.499 . S
N119 Co102 1.989 . S
N119 C118 1.342 . S
N119 N120 1.388 . S
N120 Co103 1.993 . S
N120 N119 1.388 . S
N120 C121 1.346 . S
C121 N120 1.346 . S
C121 C122 1.396 . S
C121 C131 1.510 . S
C122 C118 1.401 . S
C122 C121 1.396 . S
C123 C118 1.499 . S
C123 H124 0.959 . S
C123 H125 0.960 1_554 S
C123 H126 0.961 . S
H124 C123 0.959 . S
H125 C123 0.960 1_556 S
H126 C123 0.961 . S
O127 Co102 1.967 . S
O127 C135 1.258 . S
O128 Co103 1.941 . S
O128 C135 1.266 . S
H129 C131 0.959 . S
H130 C131 0.961 1_556 S
C131 C121 1.510 . S
C131 H129 0.959 . S
C131 H130 0.961 1_554 S
C131 H132 0.960 . S
H132 C131 0.960 . S
H133 N113 0.862 . S
O134 Co102 1.920 . S
O134 C107 1.289 1_554 S
C135 O127 1.258 . S
C135 O128 1.266 . S
Co136 O139 1.970 . S
Co136 N153 1.989 . S
Co136 O161 1.967 . S
Co136 O168 1.920 . S
Co137 O140 1.966 . S
Co137 N146 2.022 . S
Co137 N154 1.993 . S
Co137 O162 1.941 . S
C138 O139 1.258 . S
C138 O140 1.263 . S
O139 Co136 1.970 . S
O139 C138 1.258 . S
O140 Co137 1.966 . S
O140 C138 1.263 . S
C141 O142 1.235 . S
C141 O168 1.289 . S
O142 C141 1.235 . S
C143 C145 1.400 . S
C143 N146 1.351 . S
C143 C148 1.501 . S
C144 C145 1.387 . S
C144 N147 1.341 . S
C145 C143 1.400 . S
C145 C144 1.387 . S
N146 Co137 2.022 . S
N146 C143 1.351 . S
N146 N147 1.365 . S
N147 C144 1.341 . S
N147 N146 1.365 . S
N147 H167 0.862 . S
C148 C143 1.501 . S
C148 H149 0.961 . S
C148 H150 0.961 . S
C148 H151 0.960 . S
H149 C148 0.961 . S
H150 C148 0.961 . S
H151 C148 0.960 . S
C152 N153 1.342 . S
C152 C156 1.401 . S
C152 C157 1.499 . S
N153 Co136 1.989 . S
N153 C152 1.342 . S
N153 N154 1.388 . S
N154 Co137 1.993 . S
N154 N153 1.388 . S
N154 C155 1.346 . S
C155 N154 1.346 . S
C155 C156 1.396 . S
C155 C165 1.510 . S
C156 C152 1.401 . S
C156 C155 1.396 . S
C157 C152 1.499 . S
C157 H158 0.959 . S
C157 H159 0.960 . S
C157 H160 0.961 . S
H158 C157 0.959 . S
H159 C157 0.960 . S
H160 C157 0.961 . S
O161 Co136 1.967 . S
O161 C169 1.258 . S
O162 Co137 1.941 . S
O162 C169 1.266 . S
H163 C165 0.959 . S
H164 C165 0.961 . S
C165 C155 1.510 . S
C165 H163 0.959 . S
C165 H164 0.961 . S
C165 H166 0.960 . S
H166 C165 0.960 . S
H167 N147 0.862 . S
O168 Co136 1.920 . S
O168 C141 1.289 . S
C169 O161 1.258 . S
C169 O162 1.266 . S
Co170 O173 1.970 . S
Co170 N187 1.989 . S
Co170 O195 1.967 . S
Co170 O202 1.920 . S
Co171 O174 1.966 . S
Co171 N180 2.022 . S
Co171 N188 1.993 . S
Co171 O196 1.941 . S
C172 O173 1.258 . S
C172 O174 1.263 . S
O173 Co170 1.970 . S
O173 C172 1.258 . S
O174 Co171 1.966 . S
O174 C172 1.263 . S
C175 O176 1.235 . S
C175 O202 1.289 . S
O176 C175 1.235 . S
C177 C179 1.400 . S
C177 N180 1.351 . S
C177 C182 1.501 . S
C178 C179 1.387 . S
C178 N181 1.341 . S
C179 C177 1.400 . S
C179 C178 1.387 . S
N180 Co171 2.022 . S
N180 C177 1.351 . S
N180 N181 1.365 . S
N181 C178 1.341 . S
N181 N180 1.365 . S
N181 H201 0.862 . S
C182 C177 1.501 . S
C182 H183 0.961 . S
C182 H184 0.961 . S
C182 H185 0.960 . S
H183 C182 0.961 . S
H184 C182 0.961 . S
H185 C182 0.960 . S
C186 N187 1.342 . S
C186 C190 1.401 . S
C186 C191 1.499 . S
N187 Co170 1.989 . S
N187 C186 1.342 . S
N187 N188 1.388 . S
N188 Co171 1.993 . S
N188 N187 1.388 . S
N188 C189 1.346 . S
C189 N188 1.346 . S
C189 C190 1.396 . S
C189 C199 1.510 . S
C190 C186 1.401 . S
C190 C189 1.396 . S
C191 C186 1.499 . S
C191 H192 0.959 . S
C191 H193 0.960 . S
C191 H194 0.961 . S
H192 C191 0.959 . S
H193 C191 0.960 . S
H194 C191 0.961 . S
O195 Co170 1.967 . S
O195 C203 1.258 . S
O196 Co171 1.941 . S
O196 C203 1.266 . S
H197 C199 0.959 . S
H198 C199 0.961 . S
C199 C189 1.510 . S
C199 H197 0.959 . S
C199 H198 0.961 . S
C199 H200 0.960 . S
H200 C199 0.960 . S
H201 N181 0.862 . S
O202 Co170 1.920 . S
O202 C175 1.289 . S
C203 O195 1.258 . S
C203 O196 1.266 . S
Co204 O207 1.970 . S
Co204 N221 1.989 . S
Co204 O229 1.967 . S
Co204 O236 1.920 . S
Co205 O208 1.966 . S
Co205 N214 2.022 . S
Co205 N222 1.993 . S
Co205 O230 1.941 . S
C206 O207 1.258 . S
C206 O208 1.263 . S
O207 Co204 1.970 . S
O207 C206 1.258 . S
O208 Co205 1.966 . S
O208 C206 1.263 . S
C209 O210 1.235 . S
C209 O236 1.289 . S
O210 C209 1.235 . S
C211 C213 1.400 . S
C211 N214 1.351 . S
C211 C216 1.501 . S
C212 C213 1.387 . S
C212 N215 1.341 . S
C213 C211 1.400 . S
C213 C212 1.387 . S
N214 Co205 2.022 . S
N214 C211 1.351 . S
N214 N215 1.365 . S
N215 C212 1.341 . S
N215 N214 1.365 . S
N215 H235 0.862 . S
C216 C211 1.501 . S
C216 H217 0.961 . S
C216 H218 0.961 . S
C216 H219 0.960 . S
H217 C216 0.961 . S
H218 C216 0.961 . S
H219 C216 0.960 . S
C220 N221 1.342 . S
C220 C224 1.401 . S
C220 C225 1.499 . S
N221 Co204 1.989 . S
N221 C220 1.342 . S
N221 N222 1.388 . S
N222 Co205 1.993 . S
N222 N221 1.388 . S
N222 C223 1.346 . S
C223 N222 1.346 . S
C223 C224 1.396 . S
C223 C233 1.510 . S
C224 C220 1.401 . S
C224 C223 1.396 . S
C225 C220 1.499 . S
C225 H226 0.959 . S
C225 H227 0.960 . S
C225 H228 0.961 . S
H226 C225 0.959 . S
H227 C225 0.960 . S
H228 C225 0.961 . S
O229 Co204 1.967 . S
O229 C237 1.258 . S
O230 Co205 1.941 . S
O230 C237 1.266 . S
H231 C233 0.959 . S
H232 C233 0.961 . S
C233 C223 1.510 . S
C233 H231 0.959 . S
C233 H232 0.961 . S
C233 H234 0.960 . S
H234 C233 0.960 . S
H235 N215 0.862 . S
O236 Co204 1.920 . S
O236 C209 1.289 . S
C237 O229 1.258 . S
C237 O230 1.266 . S
Co238 O241 1.970 . S
Co238 N255 1.989 . S
Co238 O263 1.967 . S
Co238 O270 1.920 . S
Co239 O242 1.966 . S
Co239 N248 2.022 . S
Co239 N256 1.993 . S
Co239 O264 1.941 . S
C240 O241 1.258 . S
C240 O242 1.263 . S
O241 Co238 1.970 . S
O241 C240 1.258 . S
O242 Co239 1.966 . S
O242 C240 1.263 . S
C243 O244 1.235 . S
C243 O270 1.289 . S
O244 C243 1.235 . S
C245 C247 1.400 . S
C245 N248 1.351 . S
C245 C250 1.501 . S
C246 C247 1.387 . S
C246 N249 1.341 . S
C247 C245 1.400 . S
C247 C246 1.387 . S
N248 Co239 2.022 . S
N248 C245 1.351 . S
N248 N249 1.365 . S
N249 C246 1.341 . S
N249 N248 1.365 . S
N249 H269 0.862 . S
C250 C245 1.501 . S
C250 H251 0.961 . S
C250 H252 0.961 . S
C250 H253 0.960 . S
H251 C250 0.961 . S
H252 C250 0.961 . S
H253 C250 0.960 . S
C254 N255 1.342 . S
C254 C258 1.401 . S
C254 C259 1.499 . S
N255 Co238 1.989 . S
N255 C254 1.342 . S
N255 N256 1.388 . S
N256 Co239 1.993 . S
N256 N255 1.388 . S
N256 C257 1.346 . S
C257 N256 1.346 . S
C257 C258 1.396 . S
C257 C267 1.510 . S
C258 C254 1.401 . S
C258 C257 1.396 . S
C259 C254 1.499 . S
C259 H260 0.959 . S
C259 H261 0.960 . S
C259 H262 0.961 . S
H260 C259 0.959 . S
H261 C259 0.960 . S
H262 C259 0.961 . S
O263 Co238 1.967 . S
O263 C271 1.258 . S
O264 Co239 1.941 . S
O264 C271 1.266 . S
H265 C267 0.959 . S
H266 C267 0.961 . S
C267 C257 1.510 . S
C267 H265 0.959 . S
C267 H266 0.961 . S
C267 H268 0.960 . S
H268 C267 0.960 . S
H269 N249 0.862 . S
O270 Co238 1.920 . S
O270 C243 1.289 . S
C271 O263 1.258 . S
C271 O264 1.266 . S
H272 C278 0.930 . S
H273 C282 0.930 . S
H274 C287 0.929 . S
H275 C285 0.929 1_554 S
H276 C280 0.929 . S
H277 C286 0.929 . S
C278 H272 0.930 . S
C278 C279 1.367 . S
C278 C286 1.378 . S
C279 C278 1.367 . S
C279 C287 1.433 . S
C280 H276 0.929 . S
C280 C282 1.378 . S
C280 C284 1.350 . S
C281 C284 1.463 1_554 S
C281 C286 1.350 . S
C281 N289 1.427 1_554 S
C282 H273 0.930 . S
C282 C280 1.378 . S
C282 C283 1.367 . S
C283 C282 1.367 . S
C283 C285 1.433 . S
C284 C280 1.350 . S
C284 C281 1.463 1_556 S
C284 N288 1.427 1_556 S
C285 H275 0.929 1_556 S
C285 C283 1.433 . S
C285 N288 1.384 1_556 S
C286 H277 0.929 . S
C286 C278 1.378 . S
C286 C281 1.350 . S
C287 H274 0.929 . S
C287 C279 1.433 . S
C287 N289 1.384 1_554 S
N288 C284 1.427 1_554 S
N288 C285 1.384 1_554 S
N289 C281 1.427 1_556 S
N289 C287 1.384 1_556 S
H290 C296 0.930 . S
H291 C300 0.930 . S
H292 C305 0.929 . S
H293 C303 0.929 . S
H294 C298 0.929 . S
H295 C304 0.929 . S
C296 H290 0.930 . S
C296 C297 1.367 . S
C296 C304 1.378 . S
C297 C296 1.367 . S
C297 C305 1.433 1_556 S
C298 H294 0.929 . S
C298 C300 1.378 . S
C298 C302 1.350 . S
C299 C302 1.463 1_556 S
C299 C304 1.350 . S
C299 N307 1.427 1_556 S
C300 H291 0.930 . S
C300 C298 1.378 . S
C300 C301 1.367 . S
C301 C300 1.367 . S
C301 C303 1.433 1_554 S
C302 C298 1.350 . S
C302 C299 1.463 1_554 S
C302 N306 1.427 1_554 S
C303 H293 0.929 . S
C303 C301 1.433 1_556 S
C303 N306 1.384 . S
C304 H295 0.929 . S
C304 C296 1.378 . S
C304 C299 1.350 . S
C305 H292 0.929 . S
C305 C297 1.433 1_554 S
C305 N307 1.384 . S
N306 C302 1.427 1_556 S
N306 C303 1.384 . S
N307 C299 1.427 1_554 S
N307 C305 1.384 . S
H308 C314 0.930 . S
H309 C318 0.930 . S
H310 C323 0.929 . S
H311 C321 0.932 . S
H312 C316 0.929 . S
H313 C322 0.929 . S
C314 H308 0.930 . S
C314 C315 1.367 . S
C314 C322 1.378 . S
C315 C314 1.367 . S
C315 C323 1.433 1_556 S
C316 H312 0.929 . S
C316 C318 1.378 . S
C316 C320 1.350 . S
C317 C320 1.463 1_556 S
C317 C322 1.350 . S
C317 N325 1.427 1_556 S
C318 H309 0.930 . S
C318 C316 1.378 . S
C318 C319 1.367 . S
C319 C318 1.367 . S
C319 C321 1.429 1_554 S
C320 C316 1.350 . S
C320 C317 1.463 1_554 S
C320 N324 1.427 1_554 S
C321 H311 0.932 . S
C321 C319 1.429 1_556 S
C321 N324 1.385 . S
C322 H313 0.929 . S
C322 C314 1.378 . S
C322 C317 1.350 . S
C323 H310 0.929 . S
C323 C315 1.433 1_554 S
C323 N325 1.384 . S
N324 C320 1.427 1_556 S
N324 C321 1.385 . S
N325 C317 1.427 1_554 S
N325 C323 1.384 . S
H326 C332 0.930 . S
H327 C336 0.930 . S
H328 C341 0.929 . S
H329 C339 0.929 . S
H330 C334 0.929 . S
H331 C340 0.929 . S
C332 H326 0.930 . S
C332 C333 1.367 . S
C332 C340 1.378 . S
C333 C332 1.367 . S
C333 C341 1.433 . S
C334 H330 0.929 . S
C334 C336 1.378 . S
C334 C338 1.350 . S
C335 C338 1.463 1_554 S
C335 C340 1.350 . S
C335 N343 1.427 . S
C336 H327 0.930 . S
C336 C334 1.378 . S
C336 C337 1.367 . S
C337 C336 1.367 . S
C337 C339 1.433 . S
C338 C334 1.350 . S
C338 C335 1.463 1_556 S
C338 N342 1.427 . S
C339 H329 0.929 . S
C339 C337 1.433 . S
C339 N342 1.384 . S
C340 H331 0.929 . S
C340 C332 1.378 . S
C340 C335 1.350 . S
C341 H328 0.929 . S
C341 C333 1.433 . S
C341 N343 1.384 . S
N342 C338 1.427 . S
N342 C339 1.384 . S
N343 C335 1.427 . S
N343 C341 1.384 . S
H344 C350 0.930 . S
H345 C354 0.930 . S
H346 C359 0.929 . S
H347 C357 0.929 . S
H348 C352 0.929 . S
H349 C358 0.929 . S
C350 H344 0.930 . S
C350 C351 1.367 1_655 S
C350 C358 1.378 . S
C351 C350 1.367 1_455 S
C351 C359 1.433 . S
C352 H348 0.929 . S
C352 C354 1.378 . S
C352 C356 1.350 . S
C353 C356 1.463 . S
C353 C358 1.350 . S
C353 N361 1.427 . S
C354 H345 0.930 . S
C354 C352 1.378 . S
C354 C355 1.367 . S
C355 C354 1.367 . S
C355 C357 1.433 . S
C356 C352 1.350 . S
C356 C353 1.463 . S
C356 N360 1.427 . S
C357 H347 0.929 . S
C357 C355 1.433 . S
C357 N360 1.384 . S
C358 H349 0.929 . S
C358 C350 1.378 . S
C358 C353 1.350 . S
C359 H346 0.929 . S
C359 C351 1.433 . S
C359 N361 1.384 1_455 S
N360 C356 1.427 . S
N360 C357 1.384 . S
N361 C353 1.427 . S
N361 C359 1.384 1_655 S
H362 C368 0.930 1_545 S
H363 C372 0.930 . S
H364 C377 0.929 . S
H365 C375 0.929 . S
H366 C370 0.929 . S
H367 C376 0.929 . S
C368 H362 0.930 1_565 S
C368 C369 1.367 1_565 S
C368 C376 1.378 . S
C369 C368 1.367 1_545 S
C369 C377 1.433 . S
C370 H366 0.929 . S
C370 C372 1.378 . S
C370 C374 1.350 . S
C371 C374 1.463 . S
C371 C376 1.350 . S
C371 N379 1.427 . S
C372 H363 0.930 . S
C372 C370 1.378 . S
C372 C373 1.367 . S
C373 C372 1.367 . S
C373 C375 1.433 . S
C374 C370 1.350 . S
C374 C371 1.463 . S
C374 N378 1.427 . S
C375 H365 0.929 . S
C375 C373 1.433 . S
C375 N378 1.384 . S
C376 H367 0.929 . S
C376 C368 1.378 . S
C376 C371 1.350 . S
C377 H364 0.929 . S
C377 C369 1.433 . S
C377 N379 1.384 1_545 S
N378 C374 1.427 . S
N378 C375 1.384 . S
N379 C371 1.427 . S
N379 C377 1.384 1_565 S
H380 C386 0.930 . S
H381 C390 0.935 . S
H382 C395 0.929 . S
H383 C393 0.929 . S
H384 C388 0.929 . S
H385 C394 0.929 . S
C386 H380 0.930 . S
C386 C387 1.367 . S
C386 C394 1.378 . S
C387 C386 1.367 . S
C387 C395 1.433 . S
C388 H384 0.929 . S
C388 C390 1.366 1_455 S
C388 C392 1.350 . S
C389 C392 1.463 . S
C389 C394 1.350 . S
C389 N397 1.427 . S
C390 H381 0.935 . S
C390 C388 1.366 1_655 S
C390 C391 1.375 . S
C391 C390 1.375 . S
C391 C393 1.433 . S
C392 C388 1.350 . S
C392 C389 1.463 . S
C392 N396 1.427 . S
C393 H383 0.929 . S
C393 C391 1.433 . S
C393 N396 1.384 1_655 S
C394 H385 0.929 . S
C394 C386 1.378 . S
C394 C389 1.350 . S
C395 H382 0.929 . S
C395 C387 1.433 . S
C395 N397 1.384 . S
N396 C392 1.427 . S
N396 C393 1.384 1_455 S
N397 C389 1.427 . S
N397 C395 1.384 . S
H398 C404 0.930 . S
H399 C408 0.930 . S
H400 C413 0.929 . S
H401 C411 0.929 . S
H402 C406 0.929 . S
H403 C412 0.929 . S
C404 H398 0.930 . S
C404 C405 1.367 . S
C404 C412 1.378 . S
C405 C404 1.367 . S
C405 C413 1.433 . S
C406 H402 0.929 . S
C406 C408 1.378 1_545 S
C406 C410 1.350 . S
C407 C410 1.463 . S
C407 C412 1.350 . S
C407 N415 1.427 . S
C408 H399 0.930 . S
C408 C406 1.378 1_565 S
C408 C409 1.367 . S
C409 C408 1.367 . S
C409 C411 1.433 1_565 S
C410 C406 1.350 . S
C410 C407 1.463 . S
C410 N414 1.427 . S
C411 H401 0.929 . S
C411 C409 1.433 1_545 S
C411 N414 1.384 . S
C412 H403 0.929 . S
C412 C404 1.378 . S
C412 C407 1.350 . S
C413 H400 0.929 . S
C413 C405 1.433 . S
C413 N415 1.384 . S
N414 C410 1.427 . S
N414 C411 1.384 . S
N415 C407 1.427 . S
N415 C413 1.384 . S
H416 C422 0.930 . S
H417 C426 0.930 . S
H418 C431 0.929 . S
H419 C429 0.929 . S
H420 C424 0.929 . S
H421 C430 0.929 . S
C422 H416 0.930 . S
C422 C423 1.367 . S
C422 C430 1.378 . S
C423 C422 1.367 . S
C423 C431 1.433 . S
C424 H420 0.929 . S
C424 C426 1.378 . S
C424 C428 1.350 . S
C425 C428 1.463 . S
C425 C430 1.350 . S
C425 N433 1.427 . S
C426 H417 0.930 . S
C426 C424 1.378 . S
C426 C427 1.367 . S
C427 C426 1.367 . S
C427 C429 1.433 . S
C428 C424 1.350 . S
C428 C425 1.463 . S
C428 N432 1.427 . S
C429 H419 0.929 . S
C429 C427 1.433 . S
C429 N432 1.384 . S
C430 H421 0.929 . S
C430 C422 1.378 . S
C430 C425 1.350 . S
C431 H418 0.929 . S
C431 C423 1.433 . S
C431 N433 1.384 . S
N432 C428 1.427 . S
N432 C429 1.384 . S
N433 C425 1.427 . S
N433 C431 1.384 . S
H434 C440 0.930 . S
H435 C444 0.930 . S
H436 C449 0.929 . S
H437 C447 0.929 . S
H438 C442 0.929 . S
H439 C448 0.929 . S
C440 H434 0.930 . S
C440 C441 1.367 . S
C440 C448 1.378 . S
C441 C440 1.367 . S
C441 C449 1.433 . S
C442 H438 0.929 . S
C442 C444 1.378 . S
C442 C446 1.350 . S
C443 C446 1.463 . S
C443 C448 1.350 . S
C443 N451 1.427 . S
C444 H435 0.930 . S
C444 C442 1.378 . S
C444 C445 1.367 . S
C445 C444 1.367 . S
C445 C447 1.433 . S
C446 C442 1.350 . S
C446 C443 1.463 . S
C446 N450 1.427 . S
C447 H437 0.929 . S
C447 C445 1.433 . S
C447 N450 1.384 . S
C448 H439 0.929 . S
C448 C440 1.378 . S
C448 C443 1.350 . S
C449 H436 0.929 . S
C449 C441 1.433 . S
C449 N451 1.384 . S
N450 C446 1.427 . S
N450 C447 1.384 . S
N451 C443 1.427 . S
N451 C449 1.384 . S
H452 C458 0.930 . S
H453 C462 0.930 . S
H454 C467 0.929 . S
H455 C465 0.929 . S
H456 C460 0.929 . S
H457 C466 0.929 . S
C458 H452 0.930 . S
C458 C459 1.367 . S
C458 C466 1.378 . S
C459 C458 1.367 . S
C459 C467 1.433 . S
C460 H456 0.929 . S
C460 C462 1.378 . S
C460 C464 1.350 . S
C461 C464 1.463 . S
C461 C466 1.350 . S
C461 N469 1.427 . S
C462 H453 0.930 . S
C462 C460 1.378 . S
C462 C463 1.367 . S
C463 C462 1.367 . S
C463 C465 1.433 . S
C464 C460 1.350 . S
C464 C461 1.463 . S
C464 N468 1.427 . S
C465 H455 0.929 . S
C465 C463 1.433 . S
C465 N468 1.384 . S
C466 H457 0.929 . S
C466 C458 1.378 . S
C466 C461 1.350 . S
C467 H454 0.929 . S
C467 C459 1.433 . S
C467 N469 1.384 . S
N468 C464 1.427 . S
N468 C465 1.384 . S
N469 C461 1.427 . S
N469 C467 1.384 . S
H470 C476 0.930 . S
H471 C480 0.930 . S
H472 C485 0.929 . S
H473 C483 0.929 . S
H474 C478 0.929 . S
H475 C484 0.929 . S
C476 H470 0.930 . S
C476 C477 1.367 . S
C476 C484 1.378 . S
C477 C476 1.367 . S
C477 C485 1.433 . S
C478 H474 0.929 . S
C478 C480 1.378 . S
C478 C482 1.350 . S
C479 C482 1.463 . S
C479 C484 1.350 . S
C479 N487 1.427 . S
C480 H471 0.930 . S
C480 C478 1.378 . S
C480 C481 1.367 . S
C481 C480 1.367 . S
C481 C483 1.433 . S
C482 C478 1.350 . S
C482 C479 1.463 . S
C482 N486 1.427 . S
C483 H473 0.929 . S
C483 C481 1.433 . S
C483 N486 1.384 . S
C484 H475 0.929 . S
C484 C476 1.378 . S
C484 C479 1.350 . S
C485 H472 0.929 . S
C485 C477 1.433 . S
C485 N487 1.384 . S
N486 C482 1.427 . S
N486 C483 1.384 . S
N487 C479 1.427 . S
N487 C485 1.384 . S
H488 C494 0.930 . S
H489 C498 0.930 . S
H490 C503 0.929 . S
H491 C501 0.929 . S
H492 C496 0.929 . S
H493 C502 0.929 . S
C494 H488 0.930 . S
C494 C495 1.367 . S
C494 C502 1.378 . S
C495 C494 1.367 . S
C495 C503 1.433 . S
C496 H492 0.929 . S
C496 C498 1.378 . S
C496 C500 1.350 . S
C497 C500 1.463 . S
C497 C502 1.350 . S
C497 N505 1.427 . S
C498 H489 0.930 . S
C498 C496 1.378 . S
C498 C499 1.367 . S
C499 C498 1.367 . S
C499 C501 1.433 . S
C500 C496 1.350 . S
C500 C497 1.463 . S
C500 N504 1.427 . S
C501 H491 0.929 . S
C501 C499 1.433 . S
C501 N504 1.384 . S
C502 H493 0.929 . S
C502 C494 1.378 . S
C502 C497 1.350 . S
C503 H490 0.929 . S
C503 C495 1.433 . S
C503 N505 1.384 . S
N504 C500 1.427 . S
N504 C501 1.384 . S
N505 C497 1.427 . S
N505 C503 1.384 . S
H506 C512 0.930 . S
H507 C516 0.930 . S
H508 C521 0.929 . S
H509 C519 0.929 . S
H510 C514 0.929 . S
H511 C520 0.929 . S
C512 H506 0.930 . S
C512 C513 1.367 . S
C512 C520 1.378 . S
C513 C512 1.367 . S
C513 C521 1.433 . S
C514 H510 0.929 . S
C514 C516 1.378 . S
C514 C518 1.350 . S
C515 C518 1.463 . S
C515 C520 1.350 . S
C515 N523 1.427 . S
C516 H507 0.930 . S
C516 C514 1.378 . S
C516 C517 1.367 . S
C517 C516 1.367 . S
C517 C519 1.433 . S
C518 C514 1.350 . S
C518 C515 1.463 . S
C518 N522 1.427 . S
C519 H509 0.929 . S
C519 C517 1.433 . S
C519 N522 1.384 . S
C520 H511 0.929 . S
C520 C512 1.378 . S
C520 C515 1.350 . S
C521 H508 0.929 . S
C521 C513 1.433 . S
C521 N523 1.384 . S
N522 C518 1.427 . S
N522 C519 1.384 . S
N523 C515 1.427 . S
N523 C521 1.384 . S
H524 C530 0.930 . S
H525 C534 0.930 . S
H526 C539 0.929 . S
H527 C537 0.929 . S
H528 C532 0.929 . S
H529 C538 0.929 . S
C530 H524 0.930 . S
C530 C531 1.367 . S
C530 C538 1.378 . S
C531 C530 1.367 . S
C531 C539 1.433 . S
C532 H528 0.929 . S
C532 C534 1.378 . S
C532 C536 1.350 . S
C533 C536 1.463 . S
C533 C538 1.350 . S
C533 N541 1.427 . S
C534 H525 0.930 . S
C534 C532 1.378 . S
C534 C535 1.367 . S
C535 C534 1.367 . S
C535 C537 1.433 . S
C536 C532 1.350 . S
C536 C533 1.463 . S
C536 N540 1.427 . S
C537 H527 0.929 . S
C537 C535 1.433 . S
C537 N540 1.384 . S
C538 H529 0.929 . S
C538 C530 1.378 . S
C538 C533 1.350 . S
C539 H526 0.929 . S
C539 C531 1.433 . S
C539 N541 1.384 . S
N540 C536 1.427 . S
N540 C537 1.384 . S
N541 C533 1.427 . S
N541 C539 1.384 . S
H542 C548 0.930 . S
H543 C552 0.930 . S
H544 C557 0.929 . S
H545 C555 0.929 . S
H546 C550 0.929 . S
H547 C556 0.929 . S
C548 H542 0.930 . S
C548 C549 1.367 . S
C548 C556 1.378 . S
C549 C548 1.367 . S
C549 C557 1.433 . S
C550 H546 0.929 . S
C550 C552 1.378 . S
C550 C554 1.350 . S
C551 C554 1.463 . S
C551 C556 1.350 . S
C551 N559 1.427 . S
C552 H543 0.930 . S
C552 C550 1.378 . S
C552 C553 1.367 . S
C553 C552 1.367 . S
C553 C555 1.433 . S
C554 C550 1.350 . S
C554 C551 1.463 . S
C554 N558 1.427 . S
C555 H545 0.929 . S
C555 C553 1.433 . S
C555 N558 1.384 . S
C556 H547 0.929 . S
C556 C548 1.378 . S
C556 C551 1.350 . S
C557 H544 0.929 . S
C557 C549 1.433 . S
C557 N559 1.384 . S
N558 C554 1.427 . S
N558 C555 1.384 . S
N559 C551 1.427 . S
N559 C557 1.384 . S
H560 C566 0.930 . S
H561 C570 0.930 . S
H562 C575 0.929 . S
H563 C573 0.929 . S
H564 C568 0.929 . S
H565 C574 0.929 . S
C566 H560 0.930 . S
C566 C567 1.367 1_554 S
C566 C574 1.378 . S
C567 C566 1.367 1_556 S
C567 C575 1.433 . S
C568 H564 0.929 . S
C568 C570 1.378 . S
C568 C572 1.350 . S
C569 C572 1.463 1_655 S
C569 C574 1.350 1_556 S
C569 N577 1.427 . S
C570 H561 0.930 . S
C570 C568 1.378 . S
C570 C571 1.367 . S
C571 C570 1.367 . S
C571 C573 1.433 1_556 S
C572 C568 1.350 . S
C572 C569 1.463 1_455 S
C572 N576 1.427 1_556 S
C573 H563 0.929 . S
C573 C571 1.433 1_554 S
C573 N576 1.384 . S
C574 H565 0.929 . S
C574 C566 1.378 . S
C574 C569 1.350 1_554 S
C575 H562 0.929 . S
C575 C567 1.433 . S
C575 N577 1.384 . S
N576 C572 1.427 1_554 S
N576 C573 1.384 . S
N577 C569 1.427 . S
N577 C575 1.384 . S
H578 C584 0.930 . S
H579 C588 0.930 . S
H580 C593 0.929 . S
H581 C591 0.929 . S
H582 C586 0.929 . S
H583 C592 0.929 . S
C584 H578 0.930 . S
C584 C585 1.367 1_554 S
C584 C592 1.378 . S
C585 C584 1.367 1_556 S
C585 C593 1.433 . S
C586 H582 0.929 . S
C586 C588 1.378 . S
C586 C590 1.350 . S
C587 C590 1.463 1_545 S
C587 C592 1.350 1_556 S
C587 N595 1.427 . S
C588 H579 0.930 . S
C588 C586 1.378 . S
C588 C589 1.367 . S
C589 C588 1.367 . S
C589 C591 1.433 1_556 S
C590 C586 1.350 . S
C590 C587 1.463 1_565 S
C590 N594 1.427 1_556 S
C591 H581 0.929 . S
C591 C589 1.433 1_554 S
C591 N594 1.384 . S
C592 H583 0.929 . S
C592 C584 1.378 . S
C592 C587 1.350 1_554 S
C593 H580 0.929 . S
C593 C585 1.433 . S
C593 N595 1.384 . S
N594 C590 1.427 1_554 S
N594 C591 1.384 . S
N595 C587 1.427 . S
N595 C593 1.384 . S
H596 C602 0.930 . S
H597 C606 0.930 . S
H598 C611 0.929 . S
H599 C609 0.929 . S
H600 C604 0.929 . S
H601 C610 0.929 . S
C602 H596 0.930 . S
C602 C603 1.367 . S
C602 C610 1.378 1_545 S
C603 C602 1.367 . S
C603 C611 1.433 . S
C604 H600 0.929 . S
C604 C606 1.378 1_545 S
C604 C608 1.350 1_545 S
C605 C608 1.463 1_545 S
C605 C610 1.350 1_545 S
C605 N613 1.427 . S
C606 H597 0.930 . S
C606 C604 1.378 1_565 S
C606 C607 1.367 . S
C607 C606 1.367 . S
C607 C609 1.433 . S
C608 C604 1.350 1_565 S
C608 C605 1.463 1_565 S
C608 N612 1.427 . S
C609 H599 0.929 . S
C609 C607 1.433 . S
C609 N612 1.384 . S
C610 H601 0.929 . S
C610 C602 1.378 1_565 S
C610 C605 1.350 1_565 S
C611 H598 0.929 . S
C611 C603 1.433 . S
C611 N613 1.384 . S
N612 C608 1.427 . S
N612 C609 1.384 . S
N613 C605 1.427 . S
N613 C611 1.384 . S
H614 C620 0.930 . S
H615 C624 0.930 . S
H616 C629 0.929 . S
H617 C627 0.929 . S
H618 C622 0.929 . S
H619 C628 0.929 . S
C620 H614 0.930 . S
C620 C621 1.367 . S
C620 C628 1.378 . S
C621 C620 1.367 . S
C621 C629 1.433 . S
C622 H618 0.929 . S
C622 C624 1.378 . S
C622 C626 1.350 . S
C623 C626 1.463 1_455 S
C623 C628 1.350 . S
C623 N631 1.427 . S
C624 H615 0.930 . S
C624 C622 1.378 . S
C624 C625 1.367 . S
C625 C624 1.367 . S
C625 C627 1.433 . S
C626 C622 1.350 . S
C626 C623 1.463 1_655 S
C626 N630 1.427 . S
C627 H617 0.929 . S
C627 C625 1.433 . S
C627 N630 1.384 . S
C628 H619 0.929 . S
C628 C620 1.378 . S
C628 C623 1.350 . S
C629 H616 0.929 . S
C629 C621 1.433 . S
C629 N631 1.384 . S
N630 C626 1.427 . S
N630 C627 1.384 . S
N631 C623 1.427 . S
N631 C629 1.384 . S
C279 C54 0.684 . S
C283 C5 0.675 . S
C297 C39 0.682 . S
C301 C88 0.699 . S
C315 C73 0.682 . S
C319 C122 0.698 . S
C333 C20 0.681 . S
C337 C107 0.675 . S
C351 C190 0.696 . S
C355 C141 0.683 . S
C369 C224 0.700 . S
C373 C175 0.681 . S
C387 C209 0.680 . S
C391 C258 0.698 . S
C405 C243 0.676 . S
C409 C156 0.673 . S
C423 C206 1.529 . S
C427 C33 1.555 . S
C441 C67 1.556 . S
C445 C240 1.525 . S
C459 C101 1.556 . S
C463 C138 1.531 . S
C477 C135 1.558 . S
C481 C172 1.528 . S
C495 C169 1.556 . S
C499 C70 1.535 . S
C513 C203 1.559 . S
C517 C104 1.539 . S
C531 C237 1.554 . S
C535 C2 1.529 . S
C549 C36 1.532 . S
C553 C271 1.561 . S
C567 C77 2.071 . S
C571 C9 2.082 . S
C585 C43 2.070 . S
C589 C111 2.083 . S
C603 C213 2.073 . S
C607 C145 2.079 . S
C621 C179 2.070 . S
C625 C247 2.082 . S
