# Generated by pormake.
# Topology oob, (7)-cn, num edge types: 1
# Building blocks:
#     Node 0, Type 0, BuildingBlock: HICVOG_clean_sbu_0, # of connection points: 7
#     Node 1, Type 0, BuildingBlock: HICVOG_clean_sbu_0, # of connection points: 7
#     Node 2, Type 0, BuildingBlock: HICVOG_clean_sbu_0, # of connection points: 7
#     Node 3, Type 0, BuildingBlock: HICVOG_clean_sbu_0, # of connection points: 7
#     Edge 4, Type (0, 0), BuildingBlock: EZIPEK_clean_linker_0, # of connection points: 2
#     Edge 5, Type (0, 0), BuildingBlock: EZIPEK_clean_linker_0, # of connection points: 2
#     Edge 6, Type (0, 0), BuildingBlock: EZIPEK_clean_linker_0, # of connection points: 2
#     Edge 7, Type (0, 0), BuildingBlock: EZIPEK_clean_linker_0, # of connection points: 2
#     Edge 8, Type (0, 0), BuildingBlock: EZIPEK_clean_linker_0, # of connection points: 2
#     Edge 9, Type (0, 0), BuildingBlock: EZIPEK_clean_linker_0, # of connection points: 2
#     Edge 10, Type (0, 0), BuildingBlock: EZIPEK_clean_linker_0, # of connection points: 2
#     Edge 11, Type (0, 0), BuildingBlock: EZIPEK_clean_linker_0, # of connection points: 2
#     Edge 12, Type (0, 0), BuildingBlock: EZIPEK_clean_linker_0, # of connection points: 2
#     Edge 13, Type (0, 0), BuildingBlock: EZIPEK_clean_linker_0, # of connection points: 2
#     Edge 14, Type (0, 0), BuildingBlock: EZIPEK_clean_linker_0, # of connection points: 2
#     Edge 15, Type (0, 0), BuildingBlock: EZIPEK_clean_linker_0, # of connection points: 2
#     Edge 16, Type (0, 0), BuildingBlock: EZIPEK_clean_linker_0, # of connection points: 2
#     Edge 17, Type (0, 0), BuildingBlock: EZIPEK_clean_linker_0, # of connection points: 2
# Relax obj value: 0.283
# Max RMSD: 0.262
# Mean RMSD: 0.262
data_MOF--net-oob--node1-HICVOG_clean_sbu_0--edge1-EZIPEK_clean_linker_0
_symmetry_space_group_name_H-M    P1
_symmetry_Int_Tables_number       1
_symmetry_cell_setting            triclinic
loop_
_symmetry_equiv_pos_as_xyz
'x, y, z'
_cell_length_a     14.025049
_cell_length_b     31.483532
_cell_length_c     19.643217
_cell_angle_alpha  90.784466
_cell_angle_beta   107.92396
_cell_angle_gamma 89.823622
loop_
_atom_site_label
_atom_site_type_symbol
_atom_site_fract_x
_atom_site_fract_y
_atom_site_fract_z
_atom_type_partial_charge
Zn0 Zn 0.25681 0.05918 0.82026 0.0
C1 C 0.13138 1.02188 0.9687 0.0
N2 N 0.21785 0.03614 1.01381 0.0
C3 C 0.27031 0.0455 0.96948 0.0
N4 N 0.21777 0.03808 0.90047 0.0
N5 N 0.13037 1.02217 0.89982 0.0
C6 C 0.85349 1.01005 0.82294 0.0
O7 O 0.89313 0.04699 0.8167 0.0
O8 O 0.40268 0.04528 0.83266 0.0
Zn9 Zn 0.04738 0.98732 0.82225 0.0
N10 N 0.2397 0.12033 0.82224 0.0
C11 C 0.12435 0.17416 0.83075 0.0
C12 C 0.14996 0.13154 0.82994 0.0
C13 C 0.30469 0.15033 0.81306 0.0
N14 N 0.18842 0.20407 0.82165 0.0
C15 C 0.27774 0.19356 0.8123 0.0
O16 O 0.02439 1.01252 0.72609 0.0
C17 C 0.07727 0.02907 0.69129 0.0
O18 O 0.16625 0.04249 0.72094 0.0
H19 H 0.09805 0.10725 0.83423 0.0
H20 H 0.37474 0.14077 0.80512 0.0
C21 C 0.0847 0.89481 0.81112 0.0
C22 C 0.14732 0.86102 0.80378 0.0
C23 C 0.27826 0.90996 0.81105 0.0
C24 C 0.21615 0.94329 0.81706 0.0
N25 N 0.12134 0.93534 0.8181 0.0
N26 N 0.24243 0.86975 0.80434 0.0
H27 H 0.00817 0.88905 0.80991 0.0
C28 C 0.42908 1.02234 0.7878 0.0
O29 O 0.36069 1.00643 0.73165 0.0
O30 O 0.90791 0.97696 0.82983 0.0
H31 H 0.24313 0.97551 0.82004 0.0
H32 H 0.05333 0.18343 0.83731 0.0
H33 H 0.35392 0.916 0.81055 0.0
Zn34 Zn 0.7192 0.05977 0.25749 0.0
C35 C 0.82986 1.01542 0.10492 0.0
N36 N 0.74109 0.02733 0.06063 0.0
C37 C 0.69032 0.03769 0.10587 0.0
N38 N 0.74483 0.03249 0.175 0.0
N39 N 0.83297 1.01795 0.17414 0.0
C40 C 0.11779 1.0146 0.25816 0.0
O41 O 0.08717 0.04644 0.28997 0.0
O42 O 0.57434 0.05636 0.25579 0.0
Zn43 Zn 0.92563 0.98749 0.2508 0.0
N44 N 0.75314 0.11868 0.25284 0.0
C45 C 0.87615 0.167 0.2398 0.0
C46 C 0.84331 0.12562 0.24266 0.0
C47 C 0.69484 0.15159 0.26213 0.0
N48 N 0.81859 0.19986 0.24922 0.0
C49 C 0.72897 0.1934 0.26075 0.0
O50 O 0.94858 1.01231 0.34861 0.0
C51 C 0.89633 0.0287 0.38465 0.0
O52 O 0.80762 0.04235 0.35593 0.0
H53 H 0.88968 0.09905 0.23743 0.0
H54 H 0.62425 0.14536 0.2717 0.0
C55 C 0.90809 0.89354 0.25864 0.0
C56 C 0.8528 0.8578 0.26723 0.0
C57 C 0.71753 0.90252 0.26953 0.0
C58 C 0.77261 0.93777 0.26227 0.0
N59 N 0.8657 0.93282 0.25599 0.0
N60 N 0.7589 0.86348 0.27201 0.0
H61 H 0.98343 0.89026 0.25543 0.0
C62 C 0.52173 1.02274 0.24116 0.0
O63 O 0.56127 0.98759 0.22568 0.0
O64 O 0.05957 0.98328 0.2343 0.0
H65 H 0.74281 0.96925 0.26332 0.0
H66 H 0.94746 0.17299 0.23122 0.0
H67 H 0.64318 0.90613 0.27443 0.0
Zn68 Zn 0.76669 0.55929 0.31585 0.0
C69 C 0.64332 0.52305 0.46609 0.0
N70 N 0.72913 0.5377 0.51144 0.0
C71 C 0.78304 0.54623 0.46777 0.0
N72 N 0.73188 0.53792 0.39848 0.0
N73 N 0.64391 0.52248 0.39755 0.0
C74 C 0.37867 0.5121 0.33295 0.0
O75 O 0.42773 0.54776 0.33425 0.0
O76 O 0.90205 0.53748 0.31324 0.0
Zn77 Zn 0.56082 0.48747 0.32038 0.0
N78 N 0.75947 0.62078 0.323 0.0
C79 C 0.6581 0.67598 0.34787 0.0
C80 C 0.67741 0.63308 0.34111 0.0
C81 C 0.82116 0.65012 0.30777 0.0
N82 N 0.72002 0.70517 0.33389 0.0
C83 C 0.80068 0.69359 0.31339 0.0
O84 O 0.53124 0.51245 0.22384 0.0
C85 C 0.57972 0.53158 0.18863 0.0
O86 O 0.66728 0.54647 0.21784 0.0
H87 H 0.62652 0.6095 0.34925 0.0
H88 H 0.8833 0.64008 0.29004 0.0
C89 C 0.60338 0.39565 0.31069 0.0
C90 C 0.6677 0.36261 0.3034 0.0
C91 C 0.79417 0.41298 0.30646 0.0
C92 C 0.73017 0.4456 0.31221 0.0
N93 N 0.63684 0.43656 0.31531 0.0
N94 N 0.76143 0.37235 0.30196 0.0
H95 H 0.52808 0.38902 0.31152 0.0
C96 C 0.98688 0.55396 0.34509 0.0
O97 O 0.99254 0.58871 0.38368 0.0
O98 O 0.42357 0.47726 0.33024 0.0
H99 H 0.75449 0.47811 0.31337 0.0
H100 H 0.5936 0.68605 0.36309 0.0
H101 H 0.86883 0.41988 0.30458 0.0
Zn102 Zn 0.22232 0.5588 0.75194 0.0
C103 C 0.34342 0.51531 0.6029 0.0
N104 N 0.25517 0.52754 0.55795 0.0
C105 C 0.2046 0.53918 0.60276 0.0
N106 N 0.25902 0.53473 0.67185 0.0
N107 N 0.34657 0.51896 0.67211 0.0
C108 C 0.62087 0.51237 0.74309 0.0
O109 O 0.57404 0.54882 0.74037 0.0
O110 O 0.07581 0.54692 0.73897 0.0
Zn111 Zn 0.43233 0.48668 0.75048 0.0
N112 N 0.24387 0.61943 0.74963 0.0
C113 C 0.36376 0.67136 0.74364 0.0
C114 C 0.33547 0.62913 0.7441 0.0
C115 C 0.17963 0.65055 0.75707 0.0
N116 N 0.30043 0.70239 0.75108 0.0
C117 C 0.20932 0.69337 0.75837 0.0
O118 O 0.45348 0.51353 0.84665 0.0
C119 C 0.39991 0.53024 0.8815 0.0
O120 O 0.31063 0.54296 0.85166 0.0
H121 H 0.38675 0.60399 0.74121 0.0
H122 H 0.10809 0.64218 0.76341 0.0
C123 C 0.40016 0.39369 0.76045 0.0
C124 C 0.33914 0.35952 0.76757 0.0
C125 C 0.20682 0.40757 0.76265 0.0
C126 C 0.26728 0.44128 0.75678 0.0
N127 N 0.36207 0.43396 0.75486 0.0
N128 N 0.24411 0.36764 0.76808 0.0
H129 H 0.4765 0.38844 0.7606 0.0
C130 C 0.04679 0.53087 0.78827 0.0
O131 O 0.11283 0.5214 0.84972 0.0
O132 O 0.57279 0.47821 0.7436 0.0
H133 H 0.23909 0.47332 0.75474 0.0
H134 H 0.43623 0.67946 0.73872 0.0
H135 H 0.13126 0.41309 0.76398 0.0
C136 C 0.70345 0.98894 0.86188 0.0
C137 C 0.74327 1.00733 0.81065 0.0
C138 C 0.57725 0.03527 0.74522 0.0
C139 C 0.53687 1.01645 0.79549 0.0
N140 N 0.55539 0.96941 0.89431 0.0
N141 N 0.71203 0.03588 0.69247 0.0
C142 C 0.59831 0.9915 0.85182 0.0
C143 C 0.67825 0.02693 0.74902 0.0
N144 N 0.76624 0.96991 0.9208 0.0
N145 N 0.5204 0.06263 0.69551 0.0
H146 H 0.78419 0.02829 0.69174 0.0
H147 H 0.66551 0.04626 0.64329 0.0
H148 H 0.44615 0.06992 0.69107 0.0
H149 H 0.54948 0.08105 0.66291 0.0
H150 H 0.74457 0.95979 0.96402 0.0
H151 H 0.84209 0.96548 0.92782 0.0
H152 H 0.59328 0.9475 0.93225 0.0
H153 H 0.47888 0.97069 0.88806 0.0
C154 C 0.34468 0.0507 0.20649 0.0
C155 C 0.41861 1.02207 0.24676 0.0
C156 C 0.29252 0.98602 0.28866 0.0
C157 C 0.21967 1.01572 0.25103 0.0
N158 N 0.17523 0.07825 0.17843 0.0
N159 N 0.46882 0.96954 0.33929 0.0
C160 C 0.2456 0.04873 0.21134 0.0
C161 C 0.39402 0.99141 0.29104 0.0
N162 N 0.36842 0.07893 0.16197 0.0
N163 N 0.26519 0.95287 0.32298 0.0
H164 H 0.54467 0.97414 0.34559 0.0
H165 H 0.45713 0.95015 0.37847 0.0
H166 H 0.19364 0.94938 0.32769 0.0
H167 H 0.3118 0.92718 0.34309 0.0
H168 H 0.31642 0.09752 0.12521 0.0
H169 H 0.44049 0.08253 0.15873 0.0
H170 H 0.19097 0.10601 0.15584 0.0
H171 H 0.10024 0.07615 0.17625 0.0
C172 C 0.21176 0.54487 0.27694 0.0
C173 C 0.26953 0.51427 0.32458 0.0
C174 C 0.12531 0.5002 0.36702 0.0
C175 C 0.07821 0.53718 0.33166 0.0
N176 N 0.07345 0.59439 0.25032 0.0
N177 N 0.2785 0.45974 0.41186 0.0
C178 C 0.12032 0.55931 0.28554 0.0
C179 C 0.22507 0.49047 0.36799 0.0
N180 N 0.24246 0.55864 0.22131 0.0
N181 N 0.07408 0.47422 0.39873 0.0
H182 H 0.34855 0.44946 0.41096 0.0
H183 H 0.255 0.44539 0.45138 0.0
H184 H 0.00041 0.48025 0.39723 0.0
H185 H 0.1002 0.44482 0.42024 0.0
H186 H 0.19937 0.57812 0.18102 0.0
H187 H 0.30588 0.54649 0.21075 0.0
H188 H 0.10705 0.61506 0.22357 0.0
H189 H 0.00243 0.60398 0.25065 0.0
C190 C 0.79074 0.53784 0.81616 0.0
C191 C 0.73179 0.5124 0.75832 0.0
C192 C 0.88329 0.49438 0.72596 0.0
C193 C 0.93851 0.52434 0.77767 0.0
N194 N 0.94187 0.57939 0.86501 0.0
N195 N 0.72102 0.46635 0.65713 0.0
C196 C 0.89155 0.54728 0.82107 0.0
C197 C 0.77793 0.49038 0.71313 0.0
N198 N 0.75168 0.5514 0.86847 0.0
N199 N 0.93238 0.46858 0.69122 0.0
H200 H 0.64608 0.4596 0.64998 0.0
H201 H 0.74685 0.45452 0.61628 0.0
H202 H 0.00944 0.4704 0.7 0.0
H203 H 0.89888 0.44319 0.65808 0.0
H204 H 0.79415 0.56644 0.91554 0.0
H205 H 0.67973 0.54332 0.86882 0.0
H206 H 0.90765 0.6003 0.89181 0.0
H207 H 0.01551 0.58776 0.86959 0.0
C208 C 0.00591 0.06889 0.57689 0.0
C209 C 0.0348 0.02981 0.61255 0.0
C210 C 0.96139 0.99047 0.50027 0.0
C211 C 0.93966 0.02952 0.46345 0.0
N212 N 0.95286 0.10591 0.4638 0.0
N213 N 0.057 0.95395 0.60737 0.0
C214 C 0.96487 0.06882 0.50095 0.0
C215 C 0.01731 0.99072 0.57397 0.0
N216 N 0.01472 0.10582 0.61579 0.0
N217 N 0.92535 0.9532 0.46532 0.0
H218 H 0.09933 0.9529 0.66125 0.0
H219 H 0.05604 0.92516 0.58043 0.0
H220 H 0.88264 0.95176 0.41153 0.0
H221 H 0.92957 0.9242 0.49094 0.0
H222 H 0.98484 0.13468 0.59386 0.0
H223 H 0.04588 0.10712 0.67133 0.0
H224 H 0.97987 0.13512 0.48716 0.0
H225 H 0.92221 0.10712 0.40828 0.0
C226 C 0.46332 0.49259 0.99766 0.0
C227 C 0.44153 0.53149 0.96046 0.0
C228 C 0.50599 0.57118 0.07385 0.0
C229 C 0.53585 0.53226 0.10983 0.0
N230 N 0.56061 0.45649 0.10454 0.0
N231 N 0.45259 0.60791 0.96042 0.0
C232 C 0.51936 0.49309 0.07131 0.0
C233 C 0.46543 0.57091 0.9978 0.0
N234 N 0.42745 0.4552 0.96309 0.0
N235 N 0.51348 0.60813 0.11253 0.0
H236 H 0.42203 0.60892 0.90488 0.0
H237 H 0.47866 0.63726 0.98365 0.0
H238 H 0.54386 0.60952 0.16813 0.0
H239 H 0.48313 0.63686 0.09031 0.0
H240 H 0.43174 0.42634 0.98914 0.0
H241 H 0.38459 0.45355 0.90933 0.0
H242 H 0.56024 0.42779 0.07744 0.0
H243 H 0.60388 0.45554 0.1582 0.0
C244 C 0.43399 0.08331 1.01644 0.0
C245 C 0.37968 0.04494 0.99667 0.0
C246 C 0.52633 1.00333 0.06042 0.0
C247 C 0.58168 0.04163 0.07865 0.0
N248 N 0.59648 0.11707 0.06563 0.0
N249 N 0.37417 0.96824 0.99017 0.0
C250 C 0.53801 0.08142 0.05411 0.0
C251 C 0.42607 1.00487 1.01573 0.0
N252 N 0.38506 0.12133 1.0024 0.0
N253 N 0.57009 0.96541 0.08623 0.0
H254 H 0.29914 0.96771 0.95938 0.0
H255 H 0.40653 0.93823 0.99443 0.0
H256 H 0.64468 0.96264 0.11762 0.0
H257 H 0.53133 0.9369 0.082 0.0
H258 H 0.41771 0.15026 1.02319 0.0
H259 H 0.30915 0.12356 0.97359 0.0
H260 H 0.57177 0.14615 0.04203 0.0
H261 H 0.672 0.11691 0.096 0.0
C262 C 0.04024 0.50452 0.55906 0.0
C263 C 0.09558 0.54281 0.57667 0.0
C264 C 0.9451 0.58443 0.52119 0.0
C265 C 0.89225 0.54604 0.49729 0.0
N266 N 0.88813 0.46927 0.48917 0.0
N267 N 0.10732 0.61869 0.56789 0.0
C268 C 0.93948 0.50598 0.51513 0.0
C269 C 0.0499 0.58274 0.55628 0.0
N270 N 0.08439 0.46669 0.5848 0.0
N271 N 0.89491 0.62223 0.51122 0.0
H272 H 0.18394 0.61849 0.59531 0.0
H273 H 0.08051 0.64803 0.54638 0.0
H274 H 0.81854 0.62448 0.48376 0.0
H275 H 0.92738 0.65087 0.53382 0.0
H276 H 0.04564 0.4382 0.58105 0.0
H277 H 0.15931 0.46403 0.61539 0.0
H278 H 0.92145 0.43949 0.49248 0.0
H279 H 0.81273 0.46845 0.45916 0.0
C280 C 0.96247 0.97718 0.067 0.0
C281 C 0.91737 1.01559 0.07929 0.0
C282 C 0.99356 0.05393 1.00242 0.0
C283 C 0.04466 1.01645 0.99395 0.0
N284 N 0.08977 0.94368 1.02406 0.0
N285 N 0.9071 0.09201 0.07305 0.0
C286 C 0.03298 0.97835 1.02824 0.0
C287 C 0.93821 0.05442 0.05123 0.0
N288 N 0.93447 0.93969 0.0894 0.0
N289 N -0.00169 0.08924 0.96382 0.0
H290 H 0.8674 0.09368 0.10994 0.0
H291 H 0.92928 0.12167 0.06057 0.0
H292 H 0.04005 0.09035 0.92831 0.0
H293 H 0.95365 0.11597 0.96177 0.0
H294 H 0.95679 0.91006 0.0757 0.0
H295 H 0.88387 0.93833 0.11867 0.0
H296 H 0.09281 0.91645 0.05415 0.0
H297 H 0.13743 0.94304 0.99237 0.0
C298 C 0.46251 0.5548 0.56002 0.0
C299 C 0.43109 0.51489 0.57761 0.0
C300 C 0.52997 0.47835 0.51155 0.0
C301 C 0.55554 0.51849 0.49054 0.0
N302 N 0.53194 0.59427 0.48205 0.0
N303 N 0.42873 0.43869 0.56991 0.0
C304 C 0.51721 0.55649 0.51094 0.0
C305 C 0.46311 0.47651 0.55333 0.0
N306 N 0.44078 0.59118 0.59114 0.0
N307 N 0.57159 0.44248 0.49288 0.0
H308 H 0.38385 0.43688 0.60346 0.0
H309 H 0.44154 0.40946 0.549 0.0
H310 H 0.6175 0.4433 0.45999 0.0
H311 H 0.56374 0.41233 0.5115 0.0
H312 H 0.47124 0.62076 0.58682 0.0
H313 H 0.39941 0.5913 0.62695 0.0
H314 H 0.49665 0.6225 0.48852 0.0
H315 H 0.57199 0.5966 0.44558 0.0
C316 C 0.31822 0.24381 0.7277 0.0
C317 C 0.33945 0.22871 0.79849 0.0
C318 C 0.40737 0.29819 0.84698 0.0
C319 C 0.37313 0.31468 0.77683 0.0
N320 N 0.32699 0.30252 0.65019 0.0
N321 N 0.43203 0.23595 0.92286 0.0
C322 C 0.34024 0.2869 0.71697 0.0
C323 C 0.39477 0.2541 0.85727 0.0
N324 N 0.27073 0.21768 0.67146 0.0
N325 N 0.44515 0.32539 0.90364 0.0
H326 H 0.42296 0.20362 0.9303 0.0
H327 H 0.4783 0.25163 0.96782 0.0
H328 H 0.45809 0.35744 0.89668 0.0
H329 H 0.46152 0.31674 0.95694 0.0
H330 H 0.24274 0.2276 0.61874 0.0
H331 H 0.25737 0.18567 0.67827 0.0
H332 H 0.3085 0.28392 0.60378 0.0
H333 H 0.34291 0.33414 0.64235 0.0
C334 C 0.60341 0.29931 0.22528 0.0
C335 C 0.63821 0.31729 0.29513 0.0
C336 C 0.69759 0.24785 0.34518 0.0
C337 C 0.67366 0.23103 0.27457 0.0
N338 N 0.57787 0.23546 0.15046 0.0
N339 N 0.68842 0.30804 0.42216 0.0
C340 C 0.6167 0.25505 0.21559 0.0
C341 C 0.67416 0.291 0.35544 0.0
N342 N 0.56414 0.32522 0.16823 0.0
N343 N 0.74843 0.2233 0.40161 0.0
H344 H 0.67147 0.33972 0.42983 0.0
H345 H 0.70853 0.2904 0.46884 0.0
H346 H 0.76326 0.19121 0.3956 0.0
H347 H 0.7785 0.23475 0.45377 0.0
H348 H 0.54769 0.31541 0.11506 0.0
H349 H 0.55038 0.3574 0.1746 0.0
H350 H 0.52978 0.25015 0.10585 0.0
H351 H 0.58743 0.20302 0.14298 0.0
C352 C 0.93298 0.797 0.34315 0.0
C353 C 0.89182 0.81382 0.27374 0.0
C354 C 0.83388 0.74329 0.2252 0.0
C355 C 0.86102 0.72797 0.29613 0.0
N356 N 0.96441 0.7343 0.41823 0.0
N357 N 0.83596 0.80244 0.14687 0.0
C358 C 0.92162 0.75288 0.35358 0.0
C359 C 0.8548 0.78638 0.21392 0.0
N360 N 0.9756 0.82393 0.39932 0.0
N361 N 0.78154 0.71758 0.16983 0.0
H362 H 0.85097 0.83416 0.13892 0.0
H363 H 0.81391 0.7841 0.10018 0.0
H364 H 0.76826 0.6856 0.17687 0.0
H365 H 0.74952 0.72786 0.11765 0.0
H366 H -0.00248 0.81495 0.45269 0.0
H367 H 0.98713 0.85605 0.39189 0.0
H368 H 0.01417 0.7497 0.46199 0.0
H369 H 0.9558 0.70192 0.42577 0.0
C370 C 0.09699 0.75466 0.71147 0.0
C371 C 0.14839 0.7296 0.77073 0.0
C372 C 0.14379 0.78875 0.8522 0.0
C373 C 0.11457 0.816 0.79269 0.0
N374 N 0.05039 0.82569 0.66561 0.0
N375 N 0.21024 0.71976 0.89795 0.0
C376 C 0.08442 0.79892 0.72211 0.0
C377 C 0.16598 0.74544 0.84148 0.0
N378 N 0.06321 0.73601 0.64522 0.0
N379 N 0.15324 0.80502 0.91876 0.0
H380 H 0.2237 0.6876 0.89118 0.0
H381 H 0.23575 0.73021 0.95094 0.0
H382 H 0.13729 0.83678 0.92673 0.0
H383 H 0.16849 0.78679 0.96465 0.0
H384 H 0.01981 0.75145 0.59967 0.0
H385 H 0.07212 0.70355 0.63745 0.0
H386 H 0.03738 0.81656 0.61241 0.0
H387 H 0.03722 0.85786 0.67264 0.0
loop_
_geom_bond_atom_site_label_1
_geom_bond_atom_site_label_2
_geom_bond_distance
_geom_bond_site_symmetry_2
_ccdc_geom_bond_type
Zn0 N4 2.020 . S
Zn0 O8 2.019 . S
Zn0 N10 2.119 . S
Zn0 O18 1.975 . S
C1 N2 1.334 . S
C1 N5 1.336 . S
N2 C1 1.334 . S
N2 C3 1.334 1_565 S
C3 N2 1.334 1_545 S
C3 N4 1.336 . S
N4 Zn0 2.020 . S
N4 C3 1.336 . S
N4 N5 1.354 1_545 S
N5 C1 1.336 . S
N5 N4 1.354 1_565 S
N5 Zn9 2.020 . S
C6 O7 1.244 1_565 S
C6 O30 1.257 . S
O7 C6 1.244 1_545 S
O8 Zn0 2.019 . S
O8 C28 1.257 . S
Zn9 N5 2.020 . S
Zn9 O16 1.975 . S
Zn9 N25 2.119 . S
Zn9 O30 2.019 1_455 S
N10 Zn0 2.119 . S
N10 C12 1.334 . S
N10 C13 1.328 . S
C11 C12 1.391 . S
C11 N14 1.329 . S
C11 H32 0.930 . S
C12 N10 1.334 . S
C12 C11 1.391 . S
C12 H19 0.930 . S
C13 N10 1.328 . S
C13 C15 1.392 . S
C13 H20 0.930 . S
N14 C11 1.329 . S
N14 C15 1.331 . S
C15 C13 1.392 . S
C15 N14 1.331 . S
O16 Zn9 1.975 . S
O16 C17 1.249 1_565 S
C17 O16 1.249 1_545 S
C17 O18 1.256 . S
O18 Zn0 1.975 . S
O18 C17 1.256 . S
H19 C12 0.930 . S
H20 C13 0.930 . S
C21 C22 1.392 . S
C21 N25 1.328 . S
C21 H27 0.930 1_455 S
C22 C21 1.392 . S
C22 N26 1.331 . S
C23 C24 1.391 . S
C23 N26 1.329 . S
C23 H33 0.930 . S
C24 C23 1.391 . S
C24 N25 1.334 . S
C24 H31 0.930 . S
N25 Zn9 2.119 . S
N25 C21 1.328 . S
N25 C24 1.334 . S
N26 C22 1.331 . S
N26 C23 1.329 . S
H27 C21 0.930 1_655 S
C28 O8 1.257 . S
C28 O29 1.244 1_545 S
O29 C28 1.244 1_565 S
O30 C6 1.257 . S
O30 Zn9 2.019 1_655 S
H31 C24 0.930 . S
H32 C11 0.930 . S
H33 C23 0.930 . S
Zn34 N38 2.020 . S
Zn34 O42 2.019 . S
Zn34 N44 2.119 . S
Zn34 O52 1.975 . S
C35 N36 1.334 . S
C35 N39 1.336 . S
N36 C35 1.334 . S
N36 C37 1.334 1_565 S
C37 N36 1.334 1_545 S
C37 N38 1.336 . S
N38 Zn34 2.020 . S
N38 C37 1.336 . S
N38 N39 1.354 1_545 S
N39 C35 1.336 . S
N39 N38 1.354 1_565 S
N39 Zn43 2.020 . S
C40 O41 1.244 1_565 S
C40 O64 1.257 . S
O41 C40 1.244 1_545 S
O42 Zn34 2.019 . S
O42 C62 1.257 . S
Zn43 N39 2.020 . S
Zn43 O50 1.975 . S
Zn43 N59 2.119 . S
Zn43 O64 2.019 1_655 S
N44 Zn34 2.119 . S
N44 C46 1.334 . S
N44 C47 1.328 . S
C45 C46 1.391 . S
C45 N48 1.329 . S
C45 H66 0.930 . S
C46 N44 1.334 . S
C46 C45 1.391 . S
C46 H53 0.930 . S
C47 N44 1.328 . S
C47 C49 1.392 . S
C47 H54 0.930 . S
N48 C45 1.329 . S
N48 C49 1.331 . S
C49 C47 1.392 . S
C49 N48 1.331 . S
O50 Zn43 1.975 . S
O50 C51 1.249 1_565 S
C51 O50 1.249 1_545 S
C51 O52 1.256 . S
O52 Zn34 1.975 . S
O52 C51 1.256 . S
H53 C46 0.930 . S
H54 C47 0.930 . S
C55 C56 1.392 . S
C55 N59 1.328 . S
C55 H61 0.930 1_655 S
C56 C55 1.392 . S
C56 N60 1.331 . S
C57 C58 1.391 . S
C57 N60 1.329 . S
C57 H67 0.930 . S
C58 C57 1.391 . S
C58 N59 1.334 . S
C58 H65 0.930 . S
N59 Zn43 2.119 . S
N59 C55 1.328 . S
N59 C58 1.334 . S
N60 C56 1.331 . S
N60 C57 1.329 . S
H61 C55 0.930 1_455 S
C62 O42 1.257 . S
C62 O63 1.244 1_545 S
O63 C62 1.244 1_565 S
O64 C40 1.257 . S
O64 Zn43 2.019 1_455 S
H65 C58 0.930 . S
H66 C45 0.930 . S
H67 C57 0.930 . S
Zn68 N72 2.020 . S
Zn68 O76 2.019 . S
Zn68 N78 2.119 . S
Zn68 O86 1.975 . S
C69 N70 1.334 . S
C69 N73 1.336 . S
N70 C69 1.334 . S
N70 C71 1.334 . S
C71 N70 1.334 . S
C71 N72 1.336 . S
N72 Zn68 2.020 . S
N72 C71 1.336 . S
N72 N73 1.354 . S
N73 C69 1.336 . S
N73 N72 1.354 . S
N73 Zn77 2.020 . S
C74 O75 1.244 . S
C74 O98 1.257 . S
O75 C74 1.244 . S
O76 Zn68 2.019 . S
O76 C96 1.257 . S
Zn77 N73 2.020 . S
Zn77 O84 1.975 . S
Zn77 N93 2.119 . S
Zn77 O98 2.019 . S
N78 Zn68 2.119 . S
N78 C80 1.334 . S
N78 C81 1.328 . S
C79 C80 1.391 . S
C79 N82 1.329 . S
C79 H100 0.930 . S
C80 N78 1.334 . S
C80 C79 1.391 . S
C80 H87 0.930 . S
C81 N78 1.328 . S
C81 C83 1.392 . S
C81 H88 0.930 . S
N82 C79 1.329 . S
N82 C83 1.331 . S
C83 C81 1.392 . S
C83 N82 1.331 . S
O84 Zn77 1.975 . S
O84 C85 1.252 . S
C85 O84 1.252 . S
C85 O86 1.252 . S
O86 Zn68 1.975 . S
O86 C85 1.252 . S
H87 C80 0.930 . S
H88 C81 0.930 . S
C89 C90 1.392 . S
C89 N93 1.328 . S
C89 H95 0.930 . S
C90 C89 1.392 . S
C90 N94 1.331 . S
C91 C92 1.391 . S
C91 N94 1.329 . S
C91 H101 0.930 . S
C92 C91 1.391 . S
C92 N93 1.334 . S
C92 H99 0.930 . S
N93 Zn77 2.119 . S
N93 C89 1.328 . S
N93 C92 1.334 . S
N94 C90 1.331 . S
N94 C91 1.329 . S
H95 C89 0.930 . S
C96 O76 1.257 . S
C96 O97 1.244 . S
O97 C96 1.244 . S
O98 C74 1.257 . S
O98 Zn77 2.019 . S
H99 C92 0.930 . S
H100 C79 0.930 . S
H101 C91 0.930 . S
Zn102 N106 2.020 . S
Zn102 O110 2.019 . S
Zn102 N112 2.119 . S
Zn102 O120 1.975 . S
C103 N104 1.334 . S
C103 N107 1.336 . S
N104 C103 1.334 . S
N104 C105 1.334 . S
C105 N104 1.334 . S
C105 N106 1.336 . S
N106 Zn102 2.020 . S
N106 C105 1.336 . S
N106 N107 1.354 . S
N107 C103 1.336 . S
N107 N106 1.354 . S
N107 Zn111 2.020 . S
C108 O109 1.244 . S
C108 O132 1.257 . S
O109 C108 1.244 . S
O110 Zn102 2.019 . S
O110 C130 1.257 . S
Zn111 N107 2.020 . S
Zn111 O118 1.975 . S
Zn111 N127 2.119 . S
Zn111 O132 2.019 . S
N112 Zn102 2.119 . S
N112 C114 1.334 . S
N112 C115 1.328 . S
C113 C114 1.391 . S
C113 N116 1.329 . S
C113 H134 0.930 . S
C114 N112 1.334 . S
C114 C113 1.391 . S
C114 H121 0.930 . S
C115 N112 1.328 . S
C115 C117 1.392 . S
C115 H122 0.930 . S
N116 C113 1.329 . S
N116 C117 1.331 . S
C117 C115 1.392 . S
C117 N116 1.331 . S
O118 Zn111 1.975 . S
O118 C119 1.252 . S
C119 O118 1.252 . S
C119 O120 1.252 . S
O120 Zn102 1.975 . S
O120 C119 1.252 . S
H121 C114 0.930 . S
H122 C115 0.930 . S
C123 C124 1.392 . S
C123 N127 1.328 . S
C123 H129 0.930 . S
C124 C123 1.392 . S
C124 N128 1.331 . S
C125 C126 1.391 . S
C125 N128 1.329 . S
C125 H135 0.930 . S
C126 C125 1.391 . S
C126 N127 1.334 . S
C126 H133 0.930 . S
N127 Zn111 2.119 . S
N127 C123 1.328 . S
N127 C126 1.334 . S
N128 C124 1.331 . S
N128 C125 1.329 . S
H129 C123 0.930 . S
C130 O110 1.257 . S
C130 O131 1.244 . S
O131 C130 1.244 . S
O132 C108 1.257 . S
O132 Zn111 2.019 . S
H133 C126 0.930 . S
H134 C113 0.930 . S
H135 C125 0.930 . S
C136 C137 1.363 . S
C136 C142 1.379 . S
C136 N144 1.356 . S
C137 C136 1.363 . S
C137 C143 1.363 1_565 S
C138 C139 1.363 . S
C138 C143 1.379 . S
C138 N145 1.356 . S
C139 C138 1.363 . S
C139 C142 1.363 1_545 S
N140 C142 1.356 . S
N140 H152 0.984 . S
N140 H153 0.985 . S
N141 C143 1.356 . S
N141 H146 0.984 . S
N141 H147 0.985 . S
C142 C136 1.379 . S
C142 C139 1.363 1_565 S
C142 N140 1.356 . S
C143 C137 1.363 1_545 S
C143 C138 1.379 . S
C143 N141 1.356 . S
N144 C136 1.356 . S
N144 H150 0.984 . S
N144 H151 0.984 . S
N145 C138 1.356 . S
N145 H148 0.984 . S
N145 H149 0.985 . S
H146 N141 0.984 . S
H147 N141 0.985 . S
H148 N145 0.984 . S
H149 N145 0.985 . S
H150 N144 0.984 . S
H151 N144 0.984 . S
H152 N140 0.984 . S
H153 N140 0.985 . S
C154 C155 1.363 . S
C154 C160 1.379 . S
C154 N162 1.356 . S
C155 C154 1.363 . S
C155 C161 1.363 1_545 S
C156 C157 1.363 . S
C156 C161 1.379 . S
C156 N163 1.356 . S
C157 C156 1.363 . S
C157 C160 1.363 1_565 S
N158 C160 1.356 . S
N158 H170 0.984 . S
N158 H171 0.985 1_545 S
N159 C161 1.356 . S
N159 H164 0.984 1_565 S
N159 H165 0.985 . S
C160 C154 1.379 . S
C160 C157 1.363 1_545 S
C160 N158 1.356 . S
C161 C155 1.363 1_565 S
C161 C156 1.379 . S
C161 N159 1.356 . S
N162 C154 1.356 . S
N162 H168 0.984 . S
N162 H169 0.984 . S
N163 C156 1.356 . S
N163 H166 0.984 . S
N163 H167 0.985 . S
H164 N159 0.984 1_545 S
H165 N159 0.985 . S
H166 N163 0.984 . S
H167 N163 0.985 . S
H168 N162 0.984 . S
H169 N162 0.984 . S
H170 N158 0.984 . S
H171 N158 0.985 1_565 S
C172 C173 1.363 . S
C172 C178 1.379 . S
C172 N180 1.356 . S
C173 C172 1.363 . S
C173 C179 1.363 . S
C174 C175 1.363 . S
C174 C179 1.379 . S
C174 N181 1.356 . S
C175 C174 1.363 . S
C175 C178 1.363 . S
N176 C178 1.356 . S
N176 H188 0.984 . S
N176 H189 0.985 . S
N177 C179 1.356 . S
N177 H182 0.984 . S
N177 H183 0.985 . S
C178 C172 1.379 . S
C178 C175 1.363 . S
C178 N176 1.356 . S
C179 C173 1.363 . S
C179 C174 1.379 . S
C179 N177 1.356 . S
N180 C172 1.356 . S
N180 H186 0.984 . S
N180 H187 0.984 . S
N181 C174 1.356 . S
N181 H184 0.984 1_455 S
N181 H185 0.985 . S
H182 N177 0.984 . S
H183 N177 0.985 . S
H184 N181 0.984 1_655 S
H185 N181 0.985 . S
H186 N180 0.984 . S
H187 N180 0.984 . S
H188 N176 0.984 . S
H189 N176 0.985 . S
C190 C191 1.363 . S
C190 C196 1.379 . S
C190 N198 1.356 . S
C191 C190 1.363 . S
C191 C197 1.363 . S
C192 C193 1.363 . S
C192 C197 1.379 . S
C192 N199 1.356 . S
C193 C192 1.363 . S
C193 C196 1.363 . S
N194 C196 1.356 . S
N194 H206 0.984 . S
N194 H207 0.985 . S
N195 C197 1.356 . S
N195 H200 0.984 . S
N195 H201 0.985 . S
C196 C190 1.379 . S
C196 C193 1.363 . S
C196 N194 1.356 . S
C197 C191 1.363 . S
C197 C192 1.379 . S
C197 N195 1.356 . S
N198 C190 1.356 . S
N198 H204 0.984 . S
N198 H205 0.984 . S
N199 C192 1.356 . S
N199 H202 0.984 1_655 S
N199 H203 0.985 . S
H200 N195 0.984 . S
H201 N195 0.985 . S
H202 N199 0.984 1_455 S
H203 N199 0.985 . S
H204 N198 0.984 . S
H205 N198 0.984 . S
H206 N194 0.984 . S
H207 N194 0.985 . S
C208 C209 1.384 1_655 S
C208 C214 1.379 . S
C208 N216 1.356 1_655 S
C209 C208 1.384 1_455 S
C209 C215 1.343 1_545 S
C210 C211 1.343 1_465 S
C210 C215 1.379 . S
C210 N217 1.356 1_455 S
C211 C210 1.343 1_645 S
C211 C214 1.384 . S
N212 C214 1.356 . S
N212 H224 0.984 . S
N212 H225 0.985 . S
N213 C215 1.356 . S
N213 H218 0.984 . S
N213 H219 0.985 . S
C214 C208 1.379 . S
C214 C211 1.384 . S
C214 N212 1.356 . S
C215 C209 1.343 1_565 S
C215 C210 1.379 . S
C215 N213 1.356 . S
N216 C208 1.356 1_455 S
N216 H222 0.984 1_455 S
N216 H223 0.984 . S
N217 C210 1.356 1_655 S
N217 H220 0.984 . S
N217 H221 0.985 1_655 S
H218 N213 0.984 . S
H219 N213 0.985 . S
H220 N217 0.984 . S
H221 N217 0.985 1_455 S
H222 N216 0.984 1_655 S
H223 N216 0.984 . S
H224 N212 0.984 . S
H225 N212 0.985 . S
C226 C227 1.363 . S
C226 C232 1.379 1_556 S
C226 N234 1.356 . S
C227 C226 1.363 . S
C227 C233 1.363 . S
C228 C229 1.363 . S
C228 C233 1.379 1_554 S
C228 N235 1.356 . S
C229 C228 1.363 . S
C229 C232 1.363 . S
N230 C232 1.356 . S
N230 H242 0.984 . S
N230 H243 0.985 . S
N231 C233 1.356 . S
N231 H236 0.984 . S
N231 H237 0.985 . S
C232 C226 1.379 1_554 S
C232 C229 1.363 . S
C232 N230 1.356 . S
C233 C227 1.363 . S
C233 C228 1.379 1_556 S
C233 N231 1.356 . S
N234 C226 1.356 . S
N234 H240 0.984 . S
N234 H241 0.984 . S
N235 C228 1.356 . S
N235 H238 0.984 . S
N235 H239 0.985 . S
H236 N231 0.984 . S
H237 N231 0.985 . S
H238 N235 0.984 . S
H239 N235 0.985 . S
H240 N234 0.984 . S
H241 N234 0.984 . S
H242 N230 0.984 . S
H243 N230 0.985 . S
C244 C245 1.363 . S
C244 C250 1.379 1_556 S
C244 N252 1.356 . S
C245 C244 1.363 . S
C245 C251 1.363 1_545 S
C246 C247 1.363 1_565 S
C246 C251 1.379 1_554 S
C246 N253 1.356 . S
C247 C246 1.363 1_545 S
C247 C250 1.363 . S
N248 C250 1.356 . S
N248 H260 0.984 1_554 S
N248 H261 0.985 . S
N249 C251 1.356 . S
N249 H254 0.984 . S
N249 H255 0.985 1_556 S
C250 C244 1.379 1_554 S
C250 C247 1.363 . S
C250 N248 1.356 . S
C251 C245 1.363 1_565 S
C251 C246 1.379 1_556 S
C251 N249 1.356 . S
N252 C244 1.356 . S
N252 H258 0.984 . S
N252 H259 0.984 . S
N253 C246 1.356 . S
N253 H256 0.984 . S
N253 H257 0.985 . S
H254 N249 0.984 . S
H255 N249 0.985 1_554 S
H256 N253 0.984 . S
H257 N253 0.985 . S
H258 N252 0.984 . S
H259 N252 0.984 . S
H260 N248 0.984 1_556 S
H261 N248 0.985 . S
C262 C263 1.363 . S
C262 C268 1.379 1_455 S
C262 N270 1.356 . S
C263 C262 1.363 . S
C263 C269 1.363 . S
C264 C265 1.363 . S
C264 C269 1.379 1_655 S
C264 N271 1.356 . S
C265 C264 1.363 . S
C265 C268 1.363 . S
N266 C268 1.356 . S
N266 H278 0.984 . S
N266 H279 0.985 . S
N267 C269 1.356 . S
N267 H272 0.984 . S
N267 H273 0.985 . S
C268 C262 1.379 1_655 S
C268 C265 1.363 . S
C268 N266 1.356 . S
C269 C263 1.363 . S
C269 C264 1.379 1_455 S
C269 N267 1.356 . S
N270 C262 1.356 . S
N270 H276 0.984 . S
N270 H277 0.984 . S
N271 C264 1.356 . S
N271 H274 0.984 . S
N271 H275 0.985 . S
H272 N267 0.984 . S
H273 N267 0.985 . S
H274 N271 0.984 . S
H275 N271 0.985 . S
H276 N270 0.984 . S
H277 N270 0.984 . S
H278 N266 0.984 . S
H279 N266 0.985 . S
C280 C281 1.363 1_455 S
C280 C286 1.379 . S
C280 N288 1.356 1_455 S
C281 C280 1.363 1_655 S
C281 C287 1.363 1_564 S
C282 C283 1.363 1_645 S
C282 C287 1.379 . S
C282 N289 1.356 1_655 S
C283 C282 1.363 1_465 S
C283 C286 1.363 1_556 S
N284 C286 1.358 . S
N284 H296 0.987 . S
N284 H297 0.980 1_554 S
N285 C287 1.358 . S
N285 H290 0.980 1_556 S
N285 H291 0.987 . S
C286 C280 1.379 . S
C286 C283 1.363 1_554 S
C286 N284 1.358 . S
C287 C281 1.363 1_546 S
C287 C282 1.379 . S
C287 N285 1.358 . S
N288 C280 1.356 1_655 S
N288 H294 0.984 1_655 S
N288 H295 0.984 . S
N289 C282 1.356 1_455 S
N289 H292 0.984 . S
N289 H293 0.985 1_455 S
H290 N285 0.980 1_554 S
H291 N285 0.987 . S
H292 N289 0.984 . S
H293 N289 0.985 1_655 S
H294 N288 0.984 1_455 S
H295 N288 0.984 . S
H296 N284 0.987 . S
H297 N284 0.980 1_556 S
C298 C299 1.363 . S
C298 C304 1.379 . S
C298 N306 1.356 . S
C299 C298 1.363 . S
C299 C305 1.363 . S
C300 C301 1.363 . S
C300 C305 1.379 . S
C300 N307 1.356 . S
C301 C300 1.363 . S
C301 C304 1.363 . S
N302 C304 1.356 . S
N302 H314 0.984 . S
N302 H315 0.985 . S
N303 C305 1.356 . S
N303 H308 0.984 . S
N303 H309 0.985 . S
C304 C298 1.379 . S
C304 C301 1.363 . S
C304 N302 1.356 . S
C305 C299 1.363 . S
C305 C300 1.379 . S
C305 N303 1.356 . S
N306 C298 1.356 . S
N306 H312 0.984 . S
N306 H313 0.984 . S
N307 C300 1.356 . S
N307 H310 0.984 . S
N307 H311 0.985 . S
H308 N303 0.984 . S
H309 N303 0.985 . S
H310 N307 0.984 . S
H311 N307 0.985 . S
H312 N306 0.984 . S
H313 N306 0.984 . S
H314 N302 0.984 . S
H315 N302 0.985 . S
C316 C317 1.363 . S
C316 C322 1.379 . S
C316 N324 1.356 . S
C317 C316 1.363 . S
C317 C323 1.363 . S
C318 C319 1.363 . S
C318 C323 1.379 . S
C318 N325 1.356 . S
C319 C318 1.363 . S
C319 C322 1.363 . S
N320 C322 1.356 . S
N320 H332 0.984 . S
N320 H333 0.985 . S
N321 C323 1.356 . S
N321 H326 0.984 . S
N321 H327 0.985 . S
C322 C316 1.379 . S
C322 C319 1.363 . S
C322 N320 1.356 . S
C323 C317 1.363 . S
C323 C318 1.379 . S
C323 N321 1.356 . S
N324 C316 1.356 . S
N324 H330 0.984 . S
N324 H331 0.984 . S
N325 C318 1.356 . S
N325 H328 0.984 . S
N325 H329 0.985 . S
H326 N321 0.984 . S
H327 N321 0.985 . S
H328 N325 0.984 . S
H329 N325 0.985 . S
H330 N324 0.984 . S
H331 N324 0.984 . S
H332 N320 0.984 . S
H333 N320 0.985 . S
C334 C335 1.363 . S
C334 C340 1.379 . S
C334 N342 1.356 . S
C335 C334 1.363 . S
C335 C341 1.363 . S
C336 C337 1.363 . S
C336 C341 1.379 . S
C336 N343 1.356 . S
C337 C336 1.363 . S
C337 C340 1.363 . S
N338 C340 1.356 . S
N338 H350 0.984 . S
N338 H351 0.985 . S
N339 C341 1.356 . S
N339 H344 0.984 . S
N339 H345 0.985 . S
C340 C334 1.379 . S
C340 C337 1.363 . S
C340 N338 1.356 . S
C341 C335 1.363 . S
C341 C336 1.379 . S
C341 N339 1.356 . S
N342 C334 1.356 . S
N342 H348 0.984 . S
N342 H349 0.984 . S
N343 C336 1.356 . S
N343 H346 0.984 . S
N343 H347 0.985 . S
H344 N339 0.984 . S
H345 N339 0.985 . S
H346 N343 0.984 . S
H347 N343 0.985 . S
H348 N342 0.984 . S
H349 N342 0.984 . S
H350 N338 0.984 . S
H351 N338 0.985 . S
C352 C353 1.363 . S
C352 C358 1.379 . S
C352 N360 1.356 1_655 S
C353 C352 1.363 . S
C353 C359 1.363 . S
C354 C355 1.363 . S
C354 C359 1.379 . S
C354 N361 1.356 . S
C355 C354 1.363 . S
C355 C358 1.363 . S
N356 C358 1.356 . S
N356 H368 0.984 . S
N356 H369 0.985 . S
N357 C359 1.356 . S
N357 H362 0.984 . S
N357 H363 0.985 . S
C358 C352 1.379 . S
C358 C355 1.363 . S
C358 N356 1.356 . S
C359 C353 1.363 . S
C359 C354 1.379 . S
C359 N357 1.356 . S
N360 C352 1.356 1_455 S
N360 H366 0.984 . S
N360 H367 0.984 . S
N361 C354 1.356 . S
N361 H364 0.984 . S
N361 H365 0.985 . S
H362 N357 0.984 . S
H363 N357 0.985 . S
H364 N361 0.984 . S
H365 N361 0.985 . S
H366 N360 0.984 . S
H367 N360 0.984 . S
H368 N356 0.984 . S
H369 N356 0.985 . S
C370 C371 1.363 . S
C370 C376 1.379 . S
C370 N378 1.356 . S
C371 C370 1.363 . S
C371 C377 1.363 . S
C372 C373 1.363 . S
C372 C377 1.379 . S
C372 N379 1.356 1_455 S
C373 C372 1.363 . S
C373 C376 1.363 . S
N374 C376 1.356 . S
N374 H386 0.984 . S
N374 H387 0.985 . S
N375 C377 1.356 . S
N375 H380 0.984 . S
N375 H381 0.985 . S
C376 C370 1.379 . S
C376 C373 1.363 . S
C376 N374 1.356 . S
C377 C371 1.363 . S
C377 C372 1.379 . S
C377 N375 1.356 . S
N378 C370 1.356 . S
N378 H384 0.984 . S
N378 H385 0.984 . S
N379 C372 1.356 1_655 S
N379 H382 0.984 . S
N379 H383 0.985 . S
H380 N375 0.984 . S
H381 N375 0.985 . S
H382 N379 0.984 . S
H383 N379 0.985 . S
H384 N378 0.984 . S
H385 N378 0.984 . S
H386 N374 0.984 . S
H387 N374 0.985 . S
C137 C6 1.206 . S
C139 C28 1.206 . S
C155 C62 1.206 . S
C157 C40 1.206 . S
C173 C74 1.206 . S
C175 C96 1.206 1_455 S
C191 C108 1.206 . S
C193 C130 1.206 1_655 S
C209 C17 1.894 . S
C211 C51 1.894 . S
C227 C119 1.894 . S
C229 C85 1.894 . S
C245 C3 1.373 . S
C247 C37 1.373 . S
C263 C105 1.373 . S
C265 C71 1.373 . S
C281 C35 2.072 . S
C283 C1 2.072 . S
C299 C103 2.072 . S
C301 C69 2.072 . S
C317 C15 1.929 . S
C319 C124 1.676 . S
C335 C90 1.676 . S
C337 C49 1.929 . S
C353 C56 1.676 . S
C355 C83 1.929 . S
C371 C117 1.929 . S
C373 C22 1.676 . S
