# Generated by pormake.
# Topology wjw, (5)-cn, num edge types: 1
# Building blocks:
#     Node 0, Type 0, BuildingBlock: XOMCOT_clean_sbu_0, # of connection points: 5
#     Node 1, Type 0, BuildingBlock: XOMCOT_clean_sbu_0, # of connection points: 5
#     Node 2, Type 0, BuildingBlock: XOMCOT_clean_sbu_0, # of connection points: 5
#     Node 3, Type 0, BuildingBlock: XOMCOT_clean_sbu_0, # of connection points: 5
#     Node 4, Type 0, BuildingBlock: XOMCOT_clean_sbu_0, # of connection points: 5
#     Node 5, Type 0, BuildingBlock: XOMCOT_clean_sbu_0, # of connection points: 5
#     Node 6, Type 0, BuildingBlock: XOMCOT_clean_sbu_0, # of connection points: 5
#     Node 7, Type 0, BuildingBlock: XOMCOT_clean_sbu_0, # of connection points: 5
#     Node 8, Type 0, BuildingBlock: XOMCOT_clean_sbu_0, # of connection points: 5
#     Node 9, Type 0, BuildingBlock: XOMCOT_clean_sbu_0, # of connection points: 5
#     Node 10, Type 0, BuildingBlock: XOMCOT_clean_sbu_0, # of connection points: 5
#     Node 11, Type 0, BuildingBlock: XOMCOT_clean_sbu_0, # of connection points: 5
#     Edge 12, Type (0, 0), BuildingBlock: MIFKUJ_clean_linker_0, # of connection points: 2
#     Edge 13, Type (0, 0), BuildingBlock: MIFKUJ_clean_linker_0, # of connection points: 2
#     Edge 14, Type (0, 0), BuildingBlock: MIFKUJ_clean_linker_0, # of connection points: 2
#     Edge 15, Type (0, 0), BuildingBlock: MIFKUJ_clean_linker_0, # of connection points: 2
#     Edge 16, Type (0, 0), BuildingBlock: MIFKUJ_clean_linker_0, # of connection points: 2
#     Edge 17, Type (0, 0), BuildingBlock: MIFKUJ_clean_linker_0, # of connection points: 2
#     Edge 18, Type (0, 0), BuildingBlock: MIFKUJ_clean_linker_0, # of connection points: 2
#     Edge 19, Type (0, 0), BuildingBlock: MIFKUJ_clean_linker_0, # of connection points: 2
#     Edge 20, Type (0, 0), BuildingBlock: MIFKUJ_clean_linker_0, # of connection points: 2
#     Edge 21, Type (0, 0), BuildingBlock: MIFKUJ_clean_linker_0, # of connection points: 2
#     Edge 22, Type (0, 0), BuildingBlock: MIFKUJ_clean_linker_0, # of connection points: 2
#     Edge 23, Type (0, 0), BuildingBlock: MIFKUJ_clean_linker_0, # of connection points: 2
#     Edge 24, Type (0, 0), BuildingBlock: MIFKUJ_clean_linker_0, # of connection points: 2
#     Edge 25, Type (0, 0), BuildingBlock: MIFKUJ_clean_linker_0, # of connection points: 2
#     Edge 26, Type (0, 0), BuildingBlock: MIFKUJ_clean_linker_0, # of connection points: 2
#     Edge 27, Type (0, 0), BuildingBlock: MIFKUJ_clean_linker_0, # of connection points: 2
#     Edge 28, Type (0, 0), BuildingBlock: MIFKUJ_clean_linker_0, # of connection points: 2
#     Edge 29, Type (0, 0), BuildingBlock: MIFKUJ_clean_linker_0, # of connection points: 2
#     Edge 30, Type (0, 0), BuildingBlock: MIFKUJ_clean_linker_0, # of connection points: 2
#     Edge 31, Type (0, 0), BuildingBlock: MIFKUJ_clean_linker_0, # of connection points: 2
#     Edge 32, Type (0, 0), BuildingBlock: MIFKUJ_clean_linker_0, # of connection points: 2
#     Edge 33, Type (0, 0), BuildingBlock: MIFKUJ_clean_linker_0, # of connection points: 2
#     Edge 34, Type (0, 0), BuildingBlock: MIFKUJ_clean_linker_0, # of connection points: 2
#     Edge 35, Type (0, 0), BuildingBlock: MIFKUJ_clean_linker_0, # of connection points: 2
#     Edge 36, Type (0, 0), BuildingBlock: MIFKUJ_clean_linker_0, # of connection points: 2
#     Edge 37, Type (0, 0), BuildingBlock: MIFKUJ_clean_linker_0, # of connection points: 2
#     Edge 38, Type (0, 0), BuildingBlock: MIFKUJ_clean_linker_0, # of connection points: 2
#     Edge 39, Type (0, 0), BuildingBlock: MIFKUJ_clean_linker_0, # of connection points: 2
#     Edge 40, Type (0, 0), BuildingBlock: MIFKUJ_clean_linker_0, # of connection points: 2
#     Edge 41, Type (0, 0), BuildingBlock: MIFKUJ_clean_linker_0, # of connection points: 2
# Relax obj value: 0.222
# Max RMSD: 0.192
# Mean RMSD: 0.189
data_MOF--net-wjw--node1-XOMCOT_clean_sbu_0--edge1-MIFKUJ_clean_linker_0
_symmetry_space_group_name_H-M    P1
_symmetry_Int_Tables_number       1
_symmetry_cell_setting            triclinic
loop_
_symmetry_equiv_pos_as_xyz
'x, y, z'
_cell_length_a     50.481533
_cell_length_b     50.479726
_cell_length_c     48.038997
_cell_angle_alpha  89.954455
_cell_angle_beta   90.019365
_cell_angle_gamma 120.02
loop_
_atom_site_label
_atom_site_type_symbol
_atom_site_fract_x
_atom_site_fract_y
_atom_site_fract_z
_atom_type_partial_charge
Co0 Co 0.14216 0.39571 0.30946 0.0
C1 C 0.10011 0.42214 0.31326 0.0
C2 C 0.08064 0.37653 0.32926 0.0
C3 C 0.05882 0.38516 0.33056 0.0
N4 N 0.10668 0.3997 0.31857 0.0
N5 N 0.07109 0.41382 0.3205 0.0
H6 H 0.11539 0.44365 0.30348 0.0
H7 H 0.0776 0.35453 0.33531 0.0
C8 C 0.13746 0.39206 0.37093 0.0
O9 O 0.13129 0.41443 0.36969 0.0
N10 N 0.17635 0.39028 0.3003 0.0
C11 C 0.20025 0.40814 0.28373 0.0
C12 C 0.22065 0.39753 0.28448 0.0
C13 C 0.1822 0.36886 0.31058 0.0
N14 N 0.20924 0.37285 0.30137 0.0
C15 C 0.17405 0.46104 0.30169 0.0
C16 C 0.21693 0.47445 0.3431 0.0
C17 C 0.21943 0.49815 0.32618 0.0
C18 C 0.19744 0.49127 0.30545 0.0
C19 C 0.19303 0.44465 0.33886 0.0
N20 N 0.17131 0.43821 0.31886 0.0
H21 H 0.15917 0.45583 0.28394 0.0
H22 H 0.19334 0.42662 0.35063 0.0
H23 H 0.20294 0.42786 0.2724 0.0
H24 H 0.16742 0.3513 0.32518 0.0
O25 O 0.13613 0.40083 0.27067 0.0
O26 O 0.11477 0.3564 0.29316 0.0
O27 O 0.14263 0.38168 0.3486 0.0
C28 C 0.11774 0.37138 0.27022 0.0
H29 H 0.0357 0.37139 0.3383 0.0
H30 H 0.24224 0.40727 0.2735 0.0
H31 H 0.23395 0.47871 0.35889 0.0
H32 H 0.19934 0.50878 0.29119 0.0
Co33 Co 0.75633 0.14471 0.63202 0.0
C34 C 0.68771 0.10429 0.63502 0.0
C35 C 0.71225 0.08686 0.65785 0.0
C36 C 0.6815 0.06659 0.66065 0.0
N37 N 0.71627 0.11101 0.64248 0.0
N38 N 0.66621 0.07757 0.64624 0.0
H39 H 0.68234 0.11814 0.62171 0.0
H40 H 0.7306 0.08425 0.66651 0.0
C41 C 0.75535 0.14467 0.69381 0.0
O42 O 0.72727 0.13979 0.69221 0.0
N43 N 0.79646 0.17719 0.6216 0.0
C44 C 0.80345 0.19797 0.60121 0.0
C45 C 0.83468 0.21746 0.60115 0.0
C46 C 0.82331 0.18416 0.63362 0.0
N47 N 0.8471 0.20877 0.6216 0.0
C48 C 0.72481 0.17755 0.61975 0.0
C49 C 0.75111 0.22049 0.66164 0.0
C50 C 0.72999 0.22189 0.64378 0.0
C51 C 0.71714 0.20046 0.62231 0.0
C52 C 0.75867 0.19767 0.65792 0.0
N53 N 0.74428 0.17542 0.63819 0.0
H54 H 0.71572 0.16209 0.60233 0.0
H55 H 0.77692 0.19873 0.67041 0.0
H56 H 0.78696 0.1991 0.58762 0.0
H57 H 0.82541 0.17135 0.65071 0.0
O58 O 0.74504 0.13597 0.59352 0.0
O59 O 0.76654 0.11484 0.61866 0.0
O60 O 0.77071 0.14781 0.67169 0.0
C61 C 0.75468 0.11649 0.59509 0.0
H62 H 0.6711 0.04515 0.67196 0.0
H63 H 0.84716 0.23695 0.58754 0.0
H64 H 0.7626 0.23763 0.67764 0.0
H65 H 0.7015 0.20155 0.60752 0.0
Co66 Co 0.60246 0.75389 0.96157 0.0
C67 C 0.57933 0.68596 0.96512 0.0
C68 C 0.62331 0.7138 0.98387 0.0
C69 C 0.61584 0.68374 0.98609 0.0
N70 N 0.60018 0.71533 0.97131 0.0
N71 N 0.58824 0.6663 0.97428 0.0
H72 H 0.5582 0.67872 0.95417 0.0
H73 H 0.6444 0.73342 0.99078 0.0
C74 C 0.60717 0.75447 0.02334 0.0
O75 O 0.58574 0.72549 0.02327 0.0
N76 N 0.60638 0.79275 0.95183 0.0
C77 C 0.59115 0.79861 0.93197 0.0
C78 C 0.60164 0.82967 0.93175 0.0
C79 C 0.62576 0.82002 0.96339 0.0
N80 N 0.62324 0.84293 0.95165 0.0
C81 C 0.53714 0.71797 0.95437 0.0
C82 C 0.5222 0.74545 0.99645 0.0
C83 C 0.4986 0.72274 0.98039 0.0
C84 C 0.50643 0.70899 0.95903 0.0
C85 C 0.55252 0.75366 0.99112 0.0
N86 N 0.55973 0.73912 0.97104 0.0
H87 H 0.54275 0.7087 0.93658 0.0
H88 H 0.57018 0.77287 0.00236 0.0
H89 H 0.5737 0.78154 0.91864 0.0
H90 H 0.64186 0.8232 0.97972 0.0
O91 O 0.59763 0.74226 0.92295 0.0
O92 O 0.64198 0.76689 0.94535 0.0
O93 O 0.61633 0.76934 0.00052 0.0
C94 C 0.62722 0.75428 0.92247 0.0
H95 H 0.62988 0.67534 0.99518 0.0
H96 H 0.59374 0.84152 0.9183 0.0
H97 H 0.51749 0.75786 0.01222 0.0
H98 H 0.48908 0.69184 0.94563 0.0
Co99 Co 0.85071 0.60833 0.30189 0.0
C100 C 0.89071 0.58168 0.30941 0.0
C101 C 0.90244 0.61919 0.33733 0.0
C102 C 0.92275 0.60884 0.34129 0.0
N103 N 0.88242 0.60211 0.3174 0.0
N104 N 0.91536 0.58528 0.32373 0.0
H105 H 0.87944 0.56512 0.29296 0.0
H106 H 0.90257 0.63816 0.34788 0.0
C107 C 0.81549 0.60891 0.35185 0.0
O108 O 0.78997 0.5923 0.33795 0.0
N109 N 0.81944 0.61581 0.28615 0.0
C110 C 0.80111 0.60268 0.26392 0.0
C111 C 0.78332 0.61594 0.25985 0.0
C112 C 0.81352 0.63797 0.29429 0.0
N113 N 0.79105 0.63803 0.27906 0.0
C114 C 0.81124 0.54688 0.2824 0.0
C115 C 0.79424 0.5197 0.33418 0.0
C116 C 0.77999 0.50208 0.31049 0.0
C117 C 0.78955 0.51582 0.28429 0.0
C118 C 0.81581 0.55071 0.33127 0.0
N119 N 0.82222 0.56452 0.30572 0.0
H120 H 0.81945 0.5566 0.2621 0.0
H121 H 0.8273 0.56351 0.34971 0.0
H122 H 0.80091 0.58539 0.25073 0.0
H123 H 0.82503 0.65334 0.31148 0.0
O124 O 0.86604 0.60869 0.26511 0.0
O125 O 0.88115 0.64955 0.29195 0.0
O126 O 0.84131 0.61702 0.34047 0.0
C127 C 0.88377 0.638 0.26859 0.0
H128 H 0.94148 0.61794 0.35603 0.0
H129 H 0.76637 0.6101 0.24366 0.0
H130 H 0.78831 0.50987 0.35485 0.0
H131 H 0.78046 0.50266 0.26537 0.0
Co132 Co 0.25016 0.85328 0.63754 0.0
C133 C 0.31872 0.89424 0.63952 0.0
C134 C 0.29432 0.91132 0.66297 0.0
C135 C 0.32507 0.932 0.66503 0.0
N136 N 0.29024 0.88717 0.6476 0.0
N137 N 0.34031 0.92124 0.65023 0.0
H138 H 0.32397 0.88049 0.62603 0.0
H139 H 0.27603 0.91374 0.67201 0.0
C140 C 0.25135 0.85316 0.69951 0.0
O141 O 0.2797 0.85877 0.6982 0.0
N142 N 0.20998 0.82061 0.62762 0.0
C143 C 0.20303 0.79734 0.60993 0.0
C144 C 0.17192 0.77739 0.61103 0.0
C145 C 0.18318 0.81489 0.6389 0.0
N146 N 0.15956 0.78851 0.62925 0.0
C147 C 0.28237 0.82088 0.62537 0.0
C148 C 0.25511 0.77714 0.66651 0.0
C149 C 0.27684 0.77603 0.64917 0.0
C150 C 0.29031 0.79815 0.62815 0.0
C151 C 0.24789 0.80022 0.663 0.0
N152 N 0.26257 0.82274 0.64354 0.0
H153 H 0.29143 0.83636 0.60794 0.0
H154 H 0.22944 0.79901 0.67528 0.0
H155 H 0.21952 0.79463 0.59773 0.0
H156 H 0.18116 0.8291 0.65465 0.0
O157 O 0.26051 0.86203 0.59871 0.0
O158 O 0.23942 0.88286 0.62477 0.0
O159 O 0.23617 0.85002 0.67728 0.0
C160 C 0.25043 0.88118 0.60076 0.0
H161 H 0.33542 0.95359 0.67605 0.0
H162 H 0.15939 0.7562 0.59956 0.0
H163 H 0.24285 0.75961 0.68203 0.0
H164 H 0.3066 0.79775 0.61375 0.0
Co165 Co 0.40186 0.25048 0.96977 0.0
C166 C 0.43024 0.31796 0.97321 0.0
C167 C 0.40167 0.2952 0.00853 0.0
C168 C 0.41409 0.32624 0.01186 0.0
N169 N 0.41205 0.29008 0.98448 0.0
N170 N 0.43198 0.34048 0.98966 0.0
H171 H 0.44222 0.32167 0.95363 0.0
H172 H 0.386 0.27761 0.02262 0.0
C173 C 0.40895 0.21943 0.01972 0.0
O174 O 0.4253 0.21146 0.00426 0.0
N175 N 0.38985 0.20988 0.95507 0.0
C176 C 0.39248 0.2019 0.9288 0.0
C177 C 0.37769 0.17045 0.92687 0.0
C178 C 0.37176 0.18292 0.96806 0.0
N179 N 0.3649 0.15859 0.95173 0.0
C180 C 0.45907 0.26092 0.94615 0.0
C181 C 0.49322 0.28434 0.99413 0.0
C182 C 0.50684 0.27924 0.97093 0.0
C183 C 0.48963 0.26814 0.94646 0.0
C184 C 0.46254 0.27654 0.99298 0.0
N185 N 0.4453 0.26326 0.96971 0.0
H186 H 0.44669 0.25368 0.92689 0.0
H187 H 0.45237 0.28034 0.01121 0.0
H188 H 0.4029 0.21749 0.91159 0.0
H189 H 0.36248 0.18095 0.98871 0.0
O190 O 0.39884 0.2641 0.93316 0.0
O191 O 0.36054 0.24191 0.96342 0.0
O192 O 0.39726 0.2345 0.00906 0.0
C193 C 0.37026 0.25441 0.93904 0.0
H194 H 0.40986 0.33748 0.02906 0.0
H195 H 0.37623 0.15739 0.9085 0.0
H196 H 0.50578 0.29321 0.01338 0.0
H197 H 0.49971 0.26503 0.92773 0.0
Co198 Co 0.60574 0.858 0.35399 0.0
C199 C 0.58015 0.90081 0.35452 0.0
C200 C 0.62496 0.92041 0.33673 0.0
C201 C 0.61634 0.94224 0.33672 0.0
N202 N 0.60218 0.89421 0.34752 0.0
N203 N 0.58813 0.92998 0.34793 0.0
H204 H 0.55915 0.88523 0.36488 0.0
H205 H 0.64654 0.92341 0.32936 0.0
C206 C 0.60865 0.86616 0.2924 0.0
O207 O 0.58802 0.87465 0.29434 0.0
N208 N 0.61077 0.82306 0.36041 0.0
C209 C 0.59227 0.79749 0.3749 0.0
C210 C 0.60301 0.77731 0.37211 0.0
C211 C 0.63271 0.81845 0.34947 0.0
N212 N 0.62843 0.79063 0.35618 0.0
C213 C 0.54099 0.82629 0.36496 0.0
C214 C 0.52458 0.78609 0.32079 0.0
C215 C 0.50214 0.78222 0.34008 0.0
C216 C 0.51052 0.80298 0.36217 0.0
C217 C 0.55465 0.80965 0.32429 0.0
N218 N 0.56262 0.82993 0.34586 0.0
H219 H 0.54743 0.84034 0.38341 0.0
H220 H 0.57169 0.80997 0.3106 0.0
H221 H 0.57204 0.79351 0.38613 0.0
H222 H 0.65084 0.83472 0.3361 0.0
O223 O 0.60307 0.86276 0.39354 0.0
O224 O 0.64597 0.88427 0.36881 0.0
O225 O 0.61785 0.85845 0.31405 0.0
C226 C 0.63261 0.88073 0.39278 0.0
H227 H 0.62987 0.96531 0.32882 0.0
H228 H 0.5929 0.7546 0.38101 0.0
H229 H 0.51921 0.77029 0.30363 0.0
H230 H 0.49409 0.8002 0.37805 0.0
Co231 Co 0.75723 0.60403 0.69772 0.0
C232 C 0.69063 0.57803 0.69072 0.0
C233 C 0.71647 0.61635 0.66357 0.0
C234 C 0.68585 0.60663 0.66027 0.0
N235 N 0.71935 0.59839 0.68261 0.0
N236 N 0.66966 0.58258 0.67737 0.0
H237 H 0.68533 0.56099 0.70672 0.0
H238 H 0.73535 0.63563 0.65332 0.0
C239 C 0.79317 0.60702 0.64759 0.0
O240 O 0.8006 0.58877 0.66066 0.0
N241 N 0.79615 0.61133 0.71296 0.0
C242 C 0.80222 0.59685 0.73351 0.0
C243 C 0.83346 0.60985 0.73617 0.0
C244 C 0.8239 0.6341 0.70473 0.0
N245 N 0.847 0.63315 0.71793 0.0
C246 C 0.73728 0.54156 0.71268 0.0
C247 C 0.72507 0.51836 0.65925 0.0
C248 C 0.7234 0.4992 0.68116 0.0
C249 C 0.72864 0.51097 0.70832 0.0
C250 C 0.7341 0.5489 0.66462 0.0
N251 N 0.74259 0.5608 0.69081 0.0
H252 H 0.73933 0.54961 0.73375 0.0
H253 H 0.73437 0.56299 0.64757 0.0
H254 H 0.78569 0.5785 0.74625 0.0
H255 H 0.82716 0.65033 0.68849 0.0
O256 O 0.7411 0.60073 0.73458 0.0
O257 O 0.76692 0.64407 0.71073 0.0
O258 O 0.77617 0.6157 0.65952 0.0
C259 C 0.75182 0.63008 0.73312 0.0
H260 H 0.67626 0.61658 0.64643 0.0
H261 H 0.84531 0.60271 0.75042 0.0
H262 H 0.71948 0.50992 0.63811 0.0
H263 H 0.72672 0.49698 0.72614 0.0
Co264 Co 0.14447 0.75361 0.03267 0.0
C265 C 0.10327 0.68488 0.03065 0.0
C266 C 0.08253 0.70982 0.0146 0.0
C267 C 0.0617 0.67912 0.01266 0.0
N268 N 0.1088 0.7136 0.02558 0.0
N269 N 0.07476 0.66344 0.02272 0.0
H270 H 0.11951 0.67935 0.03944 0.0
H271 H 0.07886 0.72828 0.00819 0.0
C272 C 0.13883 0.74738 0.97099 0.0
O273 O 0.13048 0.71835 0.97379 0.0
N274 N 0.17895 0.79371 0.03972 0.0
C275 C 0.2012 0.80134 0.05873 0.0
C276 C 0.22139 0.83234 0.05682 0.0
C277 C 0.18574 0.81995 0.02654 0.0
N278 N 0.21165 0.84398 0.03653 0.0
C279 C 0.17589 0.72079 0.04625 0.0
C280 C 0.21588 0.74192 0.00173 0.0
C281 C 0.2179 0.722 0.02078 0.0
C282 C 0.19776 0.71166 0.0435 0.0
C283 C 0.19387 0.75056 0.00535 0.0
N284 N 0.17314 0.73888 0.02662 0.0
H285 H 0.1613 0.7135 0.06439 0.0
H286 H 0.19462 0.76778 0.99158 0.0
H287 H 0.20271 0.78544 0.07285 0.0
H288 H 0.17176 0.82147 0.01024 0.0
O289 O 0.13768 0.74631 0.07218 0.0
O290 O 0.11736 0.76748 0.04558 0.0
O291 O 0.14569 0.76475 0.99226 0.0
C292 C 0.11973 0.75781 0.07005 0.0
H293 H 0.03861 0.66913 0.0047 0.0
H294 H 0.24194 0.8452 0.0691 0.0
H295 H 0.23201 0.75179 0.98471 0.0
H296 H 0.199 0.69682 0.0591 0.0
Co297 Co 0.39495 0.1524 0.36744 0.0
C298 C 0.42105 0.11139 0.36377 0.0
C299 C 0.38079 0.09585 0.33854 0.0
C300 C 0.39022 0.07458 0.33706 0.0
N301 N 0.4001 0.11883 0.35527 0.0
N302 N 0.4155 0.08441 0.3529 0.0
H303 H 0.43934 0.12491 0.37825 0.0
H304 H 0.36083 0.09434 0.32866 0.0
C305 C 0.39502 0.18405 0.31523 0.0
O306 O 0.41223 0.20997 0.32836 0.0
N307 N 0.38821 0.18538 0.37978 0.0
C308 C 0.40327 0.20742 0.39901 0.0
C309 C 0.39064 0.22607 0.40002 0.0
C310 C 0.36558 0.19011 0.37056 0.0
N311 N 0.36707 0.21524 0.382 0.0
C312 C 0.45743 0.19366 0.38412 0.0
C313 C 0.48205 0.20405 0.3312 0.0
C314 C 0.5006 0.22156 0.35331 0.0
C315 C 0.48834 0.2152 0.38027 0.0
C316 C 0.45142 0.18264 0.33609 0.0
N317 N 0.43875 0.17982 0.36186 0.0
H318 H 0.44858 0.18814 0.40502 0.0
H319 H 0.43788 0.16858 0.31895 0.0
H320 H 0.42184 0.21006 0.4119 0.0
H321 H 0.34913 0.17615 0.35484 0.0
O322 O 0.39549 0.1408 0.40552 0.0
O323 O 0.35394 0.12338 0.37913 0.0
O324 O 0.38575 0.15858 0.32785 0.0
C325 C 0.3661 0.12278 0.40286 0.0
H326 H 0.37934 0.0535 0.32525 0.0
H327 H 0.39818 0.24604 0.41308 0.0
H328 H 0.49109 0.20697 0.31026 0.0
H329 H 0.50222 0.22732 0.39814 0.0
Co330 Co 0.2528 0.39304 0.69863 0.0
C331 C 0.3216 0.42044 0.69659 0.0
C332 C 0.29633 0.37519 0.67961 0.0
C333 C 0.32691 0.38439 0.67851 0.0
N334 N 0.29281 0.39774 0.69081 0.0
N335 N 0.34278 0.41281 0.68919 0.0
H336 H 0.32731 0.44174 0.70653 0.0
H337 H 0.27774 0.35334 0.67277 0.0
C338 C 0.25797 0.39367 0.63707 0.0
O339 O 0.28637 0.41593 0.64004 0.0
N340 N 0.21265 0.38698 0.70652 0.0
C341 C 0.20492 0.39952 0.72747 0.0
C342 C 0.17379 0.38825 0.72649 0.0
C343 C 0.18633 0.36845 0.69298 0.0
N344 N 0.16227 0.36886 0.70475 0.0
C345 C 0.28554 0.45777 0.71029 0.0
C346 C 0.26093 0.47438 0.66688 0.0
C347 C 0.28171 0.49718 0.68481 0.0
C348 C 0.29383 0.48852 0.70699 0.0
C349 C 0.25318 0.44403 0.67104 0.0
N350 N 0.2666 0.43611 0.69167 0.0
H351 H 0.29387 0.45131 0.72827 0.0
H352 H 0.23532 0.42683 0.65823 0.0
H353 H 0.22078 0.41558 0.74249 0.0
H354 H 0.18464 0.35439 0.67533 0.0
O355 O 0.26135 0.39493 0.73797 0.0
O356 O 0.23991 0.35254 0.71262 0.0
O357 O 0.24092 0.38199 0.65843 0.0
C358 C 0.25011 0.36547 0.73669 0.0
H359 H 0.33673 0.37126 0.67025 0.0
H360 H 0.16066 0.39403 0.74051 0.0
H361 H 0.2497 0.47973 0.6504 0.0
H362 H 0.30932 0.50526 0.72182 0.0
Co363 Co 0.86214 0.24757 0.02567 0.0
C364 C 0.90466 0.31584 0.024 0.0
C365 C 0.9244 0.29019 0.00749 0.0
C366 C 0.94616 0.32069 0.00672 0.0
N367 N 0.89815 0.28704 0.01787 0.0
N368 N 0.93375 0.33679 0.01713 0.0
H369 H 0.88886 0.32169 0.03329 0.0
H370 H 0.92757 0.27139 0.00117 0.0
C371 C 0.86985 0.25024 0.96414 0.0
O372 O 0.87769 0.27926 0.96533 0.0
N373 N 0.82726 0.20802 0.0338 0.0
C374 C 0.80582 0.20158 0.05343 0.0
C375 C 0.78489 0.17071 0.05251 0.0
C376 C 0.81915 0.18119 0.02114 0.0
N377 N 0.79329 0.15802 0.03214 0.0
C378 C 0.82978 0.28044 0.034 0.0
C379 C 0.79013 0.25467 0.98968 0.0
C380 C 0.78591 0.27401 0.00775 0.0
C381 C 0.80636 0.28725 0.03003 0.0
C382 C 0.8135 0.2482 0.9946 0.0
N383 N 0.83372 0.26173 0.01602 0.0
H384 H 0.84377 0.28908 0.05242 0.0
H385 H 0.81387 0.23079 0.98195 0.0
H386 H 0.80535 0.2182 0.0673 0.0
H387 H 0.83207 0.17855 0.00449 0.0
O388 O 0.86724 0.25754 0.0647 0.0
O389 O 0.88871 0.23472 0.04213 0.0
O390 O 0.86263 0.23407 0.98629 0.0
C391 C 0.88538 0.2462 0.06524 0.0
H392 H 0.96955 0.33021 -0.00033 0.0
H393 H 0.76474 0.15864 0.06544 0.0
H394 H 0.77484 0.24365 0.9723 0.0
H395 H 0.8034 0.30147 0.04513 0.0
H396 H 0.89456 0.28253 0.11012 0.0
H397 H 0.93425 0.29751 0.14557 0.0
H398 H 0.95981 0.2347 0.111 0.0
H399 H 0.92051 0.21997 0.07491 0.0
H400 H 0.95476 0.24707 0.18065 0.0
H401 H 0.00339 0.28846 0.08784 0.0
H402 H 0.00243 0.31352 0.04399 0.0
H403 H 0.00615 0.3881 0.09016 0.0
H404 H 0.00661 0.36318 0.13429 0.0
H405 H 0.09423 0.31223 0.25342 0.0
H406 H 0.0563 0.28599 0.21667 0.0
H407 H 0.05688 0.37005 0.19813 0.0
H408 H 0.09629 0.39659 0.2333 0.0
H409 H 0.04856 0.343 0.15319 0.0
H410 H 0.00189 0.3105 0.24259 0.0
H411 H 0.99473 0.28918 0.28999 0.0
H412 H 0.97904 0.20367 0.25646 0.0
H413 H 0.98655 0.22466 0.20885 0.0
C414 C 0.90807 0.27129 0.11045 0.0
C415 C 0.90467 0.25028 0.08964 0.0
C416 C 0.93067 0.27988 0.13071 0.0
C417 C 0.94983 0.26723 0.13065 0.0
C418 C 0.94505 0.24456 0.11126 0.0
C419 C 0.92271 0.23627 0.09068 0.0
C420 C 0.97713 0.28069 0.14854 0.0
C421 C 0.97562 0.26764 0.17459 0.0
C422 C 0.00352 0.30824 0.14085 0.0
C423 C 0.0049 0.32391 0.11431 0.0
C424 C 0.00391 0.31015 0.08861 0.0
C425 C 0.00345 0.32432 0.06373 0.0
C426 C 0.00423 0.35238 0.0643 0.0
C427 C 0.00559 0.36639 0.08975 0.0
C428 C 0.00599 0.35227 0.1147 0.0
C429 C 0.08662 0.3251 0.24103 0.0
C430 C 0.09801 0.35631 0.24611 0.0
C431 C 0.06478 0.3101 0.22023 0.0
C432 C 0.05303 0.3258 0.20508 0.0
C433 C 0.06547 0.35734 0.20946 0.0
C434 C 0.08799 0.37253 0.2296 0.0
C435 C 0.02677 0.30931 0.18574 0.0
C436 C 0.02821 0.32199 0.15933 0.0
C437 C 0.99981 0.28201 0.19363 0.0
C438 C 0.99515 0.26926 0.2222 0.0
C439 C 0.99712 0.28722 0.24534 0.0
C440 C 0.99298 0.27519 0.27224 0.0
C441 C 0.98652 0.24512 0.27624 0.0
C442 C 0.98411 0.22698 0.25334 0.0
C443 C 0.9883 0.23893 0.22639 0.0
H444 H 0.98332 0.23584 0.29708 0.0
H445 H 0.00385 0.36331 0.04503 0.0
H446 H 0.61064 0.87989 0.44493 0.0
H447 H 0.63641 0.91805 0.48156 0.0
H448 H 0.71829 0.96229 0.43157 0.0
H449 H 0.69284 0.92434 0.39495 0.0
H450 H 0.69062 0.94263 0.51341 0.0
H451 H 0.73726 0.0371 0.4283 0.0
H452 H 0.72325 0.04437 0.38078 0.0
H453 H 0.62897 0.97913 0.39734 0.0
H454 H 0.64235 0.97192 0.44498 0.0
H455 H 0.78072 0.0809 0.58646 0.0
H456 H 0.76521 0.04004 0.55191 0.0
H457 H 0.69711 0.06012 0.52014 0.0
H458 H 0.71364 0.10177 0.55335 0.0
H459 H 0.71823 0.04621 0.47935 0.0
H460 H 0.68088 1.00065 0.56859 0.0
H461 H 0.68434 0.99045 0.61828 0.0
H462 H 0.74254 0.95382 0.598 0.0
H463 H 0.73976 0.9642 0.54819 0.0
C464 C 0.63438 0.89729 0.44206 0.0
C465 C 0.64962 0.89944 0.41695 0.0
C466 C 0.64908 0.91895 0.46304 0.0
C467 C 0.67904 0.94309 0.45901 0.0
C468 C 0.69505 0.94389 0.43489 0.0
C469 C 0.68046 0.9222 0.41401 0.0
C470 C 0.69212 0.96955 0.47808 0.0
C471 C 0.69693 0.96536 0.50605 0.0
C472 C 0.69914 0.99885 0.46854 0.0
C473 C 0.69091 0.00368 0.44005 0.0
C474 C 0.71355 0.02441 0.4218 0.0
C475 C 0.7057 0.02852 0.39484 0.0
C476 C 0.67526 0.01212 0.38599 0.0
C477 C 0.65256 0.99173 0.40413 0.0
C478 C 0.66027 0.9876 0.4311 0.0
C479 C 0.76284 0.07685 0.57171 0.0
C480 C 0.74835 0.09441 0.57254 0.0
C481 C 0.75381 0.05338 0.55216 0.0
C482 C 0.72953 0.04655 0.53378 0.0
C483 C 0.71591 0.0649 0.53402 0.0
C484 C 0.72538 0.08874 0.55306 0.0
C485 C 0.7173 0.01966 0.51497 0.0
C486 C 0.71247 0.02368 0.48686 0.0
C487 C 0.7088 0.98995 0.52482 0.0
C488 C 0.71038 0.98351 0.55471 0.0
C489 C 0.69458 0.9906 0.57475 0.0
C490 C 0.6964 0.98477 0.60294 0.0
C491 C 0.71372 0.97157 0.6113 0.0
C492 C 0.72918 0.96409 0.59149 0.0
C493 C 0.72748 0.96993 0.56328 0.0
H494 H 0.7151 0.96707 0.63313 0.0
H495 H 0.66925 0.01528 0.36511 0.0
H496 H 0.60083 0.71512 0.87915 0.0
H497 H 0.62671 0.70031 0.84478 0.0
H498 H 0.7143 0.76839 0.87715 0.0
H499 H 0.68859 0.78299 0.91216 0.0
H500 H 0.69938 0.75298 0.8092 0.0
H501 H 0.70327 0.71457 0.90394 0.0
H502 H 0.67611 0.68994 0.94748 0.0
H503 H 0.60926 0.61246 0.90117 0.0
H504 H 0.63579 0.63692 0.85729 0.0
H505 H 0.78326 0.69055 0.74756 0.0
H506 H 0.76659 0.71678 0.78 0.0
H507 H 0.68366 0.6313 0.7962 0.0
H508 H 0.70128 0.60495 0.76548 0.0
H509 H 0.69877 0.65906 0.84101 0.0
H510 H 0.6891 0.68931 0.74909 0.0
H511 H 0.70573 0.71037 0.70189 0.0
H512 H 0.77096 0.79736 0.73657 0.0
H513 H 0.75498 0.77667 0.78403 0.0
C514 C 0.62561 0.72753 0.8785 0.0
C515 C 0.64276 0.75001 0.89845 0.0
C516 C 0.6403 0.71906 0.85885 0.0
C517 C 0.67227 0.73327 0.85864 0.0
C518 C 0.68956 0.75736 0.87706 0.0
C519 C 0.67487 0.76553 0.89705 0.0
C520 C 0.68714 0.71992 0.84201 0.0
C521 C 0.69989 0.7328 0.8162 0.0
C522 C 0.68643 0.69293 0.85091 0.0
C523 C 0.67141 0.67763 0.87737 0.0
C524 C 0.68272 0.69234 0.90305 0.0
C525 C 0.66744 0.67842 0.92778 0.0
C526 C 0.64098 0.64966 0.92708 0.0
C527 C 0.62979 0.63472 0.90167 0.0
C528 C 0.64495 0.64859 0.87688 0.0
C529 C 0.76173 0.67743 0.75845 0.0
C530 C 0.74357 0.64581 0.75417 0.0
C531 C 0.75205 0.69242 0.77676 0.0
C532 C 0.72351 0.67618 0.79016 0.0
C533 C 0.70579 0.6444 0.78627 0.0
C534 C 0.71587 0.62933 0.76867 0.0
C535 C 0.71154 0.6921 0.80772 0.0
C536 C 0.69898 0.67956 0.83386 0.0
C537 C 0.71146 0.71881 0.79857 0.0
C538 C 0.7211 0.73134 0.7701 0.0
C539 C 0.70715 0.71287 0.74665 0.0
C540 C 0.71643 0.72474 0.71985 0.0
C541 C 0.73946 0.75516 0.71623 0.0
C542 C 0.75318 0.77378 0.73941 0.0
C543 C 0.74401 0.762 0.76626 0.0
H544 H 0.74661 0.76431 0.69547 0.0
H545 H 0.6292 0.63891 0.94623 0.0
H546 H 0.08109 0.78087 0.07141 0.0
H547 H 0.04323 0.77225 0.10724 0.0
H548 H 0.07556 0.72262 0.15652 0.0
H549 H 0.11383 0.7317 0.12109 0.0
H550 H 0.99754 0.71912 0.12094 0.0
H551 H 0.06093 0.7244 0.22431 0.0
H552 H 0.11226 0.75535 0.24487 0.0
H553 H 0.12974 0.83042 0.19115 0.0
H554 H 0.07837 0.80011 0.17054 0.0
H555 H 0.89892 0.61835 0.22174 0.0
H556 H 0.93998 0.64874 0.18902 0.0
H557 H 0.96245 0.7306 0.2353 0.0
H558 H 0.92171 0.70005 0.26868 0.0
H559 H 0.01261 0.72936 0.22324 0.0
H560 H 0.92711 0.71709 0.17136 0.0
H561 H 0.87549 0.68943 0.15076 0.0
H562 H 0.90203 0.63585 0.10112 0.0
H563 H 0.95369 0.66287 0.12171 0.0
C564 C 0.08057 0.76871 0.09017 0.0
C565 C 0.1003 0.7568 0.0934 0.0
C566 C 0.05889 0.76375 0.11059 0.0
C567 C 0.05659 0.74686 0.13459 0.0
C568 C 0.07722 0.73616 0.13841 0.0
C569 C 0.09901 0.74123 0.11806 0.0
C570 C 0.03066 0.73749 0.15412 0.0
C571 C 1.00085 0.72166 0.1433 0.0
C572 C 0.03495 0.74136 0.18326 0.0
C573 C 0.06582 0.75986 0.19575 0.0
C574 C 0.07565 0.74756 0.21698 0.0
C575 C 0.10478 0.76499 0.22862 0.0
C576 C 0.12427 0.7948 0.21928 0.0
C577 C 0.11466 0.80728 0.19831 0.0
C578 C 0.08555 0.78997 0.18661 0.0
C579 C 0.91237 0.64286 0.22482 0.0
C580 C 0.90706 0.65685 0.24772 0.0
C581 C 0.93577 0.66024 0.20602 0.0
C582 C 0.95404 0.69202 0.2095 0.0
C583 C 0.94858 0.70612 0.2322 0.0
C584 C 0.92525 0.68867 0.25117 0.0
C585 C 0.97964 0.71005 0.19002 0.0
C586 C 0.00934 0.72738 0.20086 0.0
C587 C 0.97526 0.70811 0.16085 0.0
C588 C 0.94426 0.69194 0.1482 0.0
C589 C 0.9219 0.69929 0.15617 0.0
C590 C 0.89263 0.68373 0.14448 0.0
C591 C 0.88547 0.66088 0.12466 0.0
C592 C 0.9076 0.65357 0.11646 0.0
C593 C 0.9369 0.66903 0.1281 0.0
H594 H 0.8628 0.64885 0.11565 0.0
H595 H 0.14682 0.80825 0.22831 0.0
H596 H 0.38349 0.12052 0.45609 0.0
H597 H 0.35758 0.07831 0.4891 0.0
H598 H 0.28335 0.03077 0.43091 0.0
H599 H 0.30874 0.07332 0.39812 0.0
H600 H 0.26194 0.02072 0.48264 0.0
H601 H 0.34171 0.01591 0.43358 0.0
H602 H 0.39411 0.03522 0.41606 0.0
H603 H 0.42763 0.04673 0.4999 0.0
H604 H 0.3755 0.02805 0.51796 0.0
H605 H 0.26809 0.87985 0.54738 0.0
H606 H 0.28068 0.91851 0.51127 0.0
H607 H 0.25586 0.96965 0.56693 0.0
H608 H 0.24239 0.93065 0.60275 0.0
H609 H 0.32418 0.97471 0.51254 0.0
H610 H 0.23487 0.01377 0.53103 0.0
H611 H 0.18062 0.99114 0.54438 0.0
H612 H 0.16235 0.90358 0.51406 0.0
H613 H 0.21636 0.92576 0.50018 0.0
C614 C 0.36136 0.10134 0.45057 0.0
C615 C 0.34826 0.10002 0.42445 0.0
C616 C 0.34665 0.0772 0.46938 0.0
C617 C 0.31891 0.05111 0.46216 0.0
C618 C 0.30483 0.05062 0.43683 0.0
C619 C 0.31937 0.07494 0.41811 0.0
C620 C 0.30584 0.0235 0.48004 0.0
C621 C 0.2755 0.01064 0.48925 0.0
C622 C 0.32331 0.00982 0.4879 0.0
C623 C 0.35471 0.02084 0.47712 0.0
C624 C 0.36028 0.02276 0.44829 0.0
C625 C 0.38994 0.03358 0.43825 0.0
C626 C 0.4142 0.04224 0.45684 0.0
C627 C 0.40883 0.04005 0.48552 0.0
C628 C 0.37922 0.02935 0.49567 0.0
C629 C 0.26476 0.89904 0.5517 0.0
C630 C 0.2543 0.90228 0.57787 0.0
C631 C 0.27205 0.92116 0.5311 0.0
C632 C 0.26914 0.94696 0.53634 0.0
C633 C 0.25779 0.94971 0.5622 0.0
C634 C 0.2502 0.92744 0.58271 0.0
C635 C 0.28035 0.97215 0.5157 0.0
C636 C 0.31047 0.98464 0.50594 0.0
C637 C 0.26238 0.9849 0.50676 0.0
C638 C 0.22975 0.9714 0.5148 0.0
C639 C 0.21925 0.98972 0.5271 0.0
C640 C 0.18854 0.97696 0.53478 0.0
C641 C 0.16807 0.94592 0.53015 0.0
C642 C 0.17825 0.9276 0.51774 0.0
C643 C 0.20892 0.94024 0.51 0.0
H644 H 0.14432 0.93609 0.53612 0.0
H645 H 0.43714 0.05059 0.44901 0.0
H646 H 0.22361 0.30345 0.74172 0.0
H647 H 0.23102 0.27508 0.77933 0.0
H648 H 0.28847 0.35987 0.82259 0.0
H649 H 0.28027 0.38809 0.78564 0.0
H650 H 0.28062 0.27681 0.79293 0.0
H651 H 0.29106 0.35073 0.89055 0.0
H652 H 0.26598 0.37803 0.90951 0.0
H653 H 0.18504 0.32034 0.86223 0.0
H654 H 0.20942 0.29238 0.84329 0.0
H655 H 0.38633 0.28294 0.88882 0.0
H656 H 0.35455 0.29226 0.85675 0.0
H657 H 0.27723 0.24459 0.91183 0.0
H658 H 0.30933 0.23569 0.94455 0.0
H659 H 0.28106 0.29598 0.89424 0.0
H660 H 0.27973 0.21163 0.85051 0.0
H661 H 0.30051 0.1802 0.83198 0.0
H662 H 0.3539 0.25022 0.7723 0.0
H663 H 0.33382 0.2823 0.79073 0.0
C664 C 0.23729 0.31593 0.75955 0.0
C665 C 0.25142 0.34798 0.76074 0.0
C666 C 0.24156 0.29971 0.781 0.0
C667 C 0.26012 0.31526 0.80394 0.0
C668 C 0.27347 0.34721 0.80548 0.0
C669 C 0.26893 0.36339 0.78423 0.0
C670 C 0.26825 0.29873 0.82476 0.0
C671 C 0.28036 0.28073 0.81509 0.0
C672 C 0.26716 0.30306 0.85377 0.0
C673 C 0.25217 0.31955 0.86538 0.0
C674 C 0.26784 0.34372 0.88433 0.0
C675 C 0.25376 0.35935 0.89504 0.0
C676 C 0.22396 0.35097 0.88704 0.0
C677 C 0.20815 0.32688 0.86836 0.0
C678 C 0.22211 0.31116 0.85759 0.0
C679 C 0.36251 0.2742 0.89407 0.0
C680 C 0.35029 0.25851 0.91917 0.0
C681 C 0.3443 0.27941 0.87562 0.0
C682 C 0.31337 0.26871 0.88167 0.0
C683 C 0.30101 0.25292 0.9067 0.0
C684 C 0.31933 0.2478 0.92531 0.0
C685 C 0.29466 0.2754 0.86219 0.0
C686 C 0.28065 0.29155 0.87211 0.0
C687 C 0.29326 0.2687 0.83345 0.0
C688 C 0.30533 0.24944 0.82211 0.0
C689 C 0.29605 0.22042 0.83354 0.0
C690 C 0.30769 0.20247 0.82305 0.0
C691 C 0.32854 0.21322 0.801 0.0
C692 C 0.33774 0.24192 0.78937 0.0
C693 C 0.32619 0.25998 0.79981 0.0
H694 H 0.33753 0.19929 0.79291 0.0
H695 H 0.21311 0.36311 0.89535 0.0
H696 H 0.12988 0.41035 0.4222 0.0
H697 H 0.14797 0.40202 0.46662 0.0
H698 H 0.17773 0.34519 0.42613 0.0
H699 H 0.15959 0.3533 0.3814 0.0
H700 H 0.15296 0.32453 0.48048 0.0
H701 H 0.22842 0.41432 0.43368 0.0
H702 H 0.24743 0.46293 0.40823 0.0
H703 H 0.22828 0.50255 0.479 0.0
H704 H 0.20859 0.45393 0.50471 0.0
H705 H 0.28867 0.40826 0.58776 0.0
H706 H 0.26697 0.39918 0.54101 0.0
H707 H 0.17591 0.35184 0.57572 0.0
H708 H 0.19748 0.3603 0.62258 0.0
H709 H 0.2349 0.42177 0.52075 0.0
H710 H 0.12561 0.30038 0.52687 0.0
H711 H 0.10908 0.25036 0.54888 0.0
H712 H 0.20262 0.27228 0.55624 0.0
H713 H 0.21972 0.32198 0.53342 0.0
C714 C 0.13977 0.39563 0.42274 0.0
C715 C 0.14376 0.38289 0.39821 0.0
C716 C 0.15003 0.39086 0.44815 0.0
C717 C 0.16452 0.37336 0.44947 0.0
C718 C 0.16661 0.35879 0.42543 0.0
C719 C 0.15634 0.36357 0.39991 0.0
C720 C 0.18039 0.37329 0.47525 0.0
C721 C 0.17086 0.34568 0.48943 0.0
C722 C 0.20441 0.40087 0.48622 0.0
C723 C 0.21678 0.43038 0.47104 0.0
C724 C 0.22805 0.43332 0.44375 0.0
C725 C 0.23896 0.46088 0.42928 0.0
C726 C 0.239 0.4858 0.44196 0.0
C727 C 0.2282 0.48321 0.46919 0.0
C728 C 0.21718 0.45566 0.48373 0.0
C729 C 0.26402 0.39554 0.58545 0.0
C730 C 0.24478 0.38519 0.60886 0.0
C731 C 0.25166 0.39037 0.55871 0.0
C732 C 0.21984 0.37483 0.55485 0.0
C733 C 0.20054 0.36351 0.57816 0.0
C734 C 0.21291 0.36848 0.60495 0.0
C735 C 0.20699 0.373 0.52673 0.0
C736 C 0.2171 0.40043 0.51197 0.0
C737 C 0.18406 0.34511 0.51503 0.0
C738 C 0.17397 0.31515 0.52872 0.0
C739 C 0.14267 0.29452 0.53308 0.0
C740 C 0.13319 0.2662 0.5457 0.0
C741 C 0.15479 0.25827 0.55419 0.0
C742 C 0.18592 0.27853 0.54983 0.0
C743 C 0.19552 0.30678 0.53702 0.0
H744 H 0.14738 0.23636 0.56403 0.0
H745 H 0.24745 0.50712 0.43072 0.0
H746 H 0.72761 0.12311 0.74366 0.0
H747 H 0.75114 0.13637 0.78972 0.0
H748 H 0.83971 0.19279 0.75202 0.0
H749 H 0.81635 0.17853 0.70574 0.0
H750 H 0.84585 0.16627 0.79695 0.0
H751 H 0.79769 0.22422 0.77568 0.0
H752 H 0.75626 0.23342 0.76067 0.0
H753 H 0.7011 0.18058 0.82975 0.0
H754 H 0.74207 0.17071 0.84496 0.0
H755 H 0.89595 0.27655 0.91462 0.0
H756 H 0.88106 0.25332 0.86829 0.0
H757 H 0.81498 0.16766 0.9055 0.0
H758 H 0.83023 0.19037 0.95189 0.0
H759 H 0.79977 0.20916 0.86108 0.0
H760 H 0.85369 0.15303 0.88076 0.0
H761 H 0.89961 0.1507 0.89426 0.0
H762 H 0.94943 0.20966 0.82599 0.0
H763 H 0.90388 0.21271 0.81235 0.0
C764 C 0.75215 0.13802 0.74521 0.0
C765 C 0.77014 0.1501 0.72124 0.0
C766 C 0.76556 0.14564 0.7715 0.0
C767 C 0.79706 0.16616 0.7743 0.0
C768 C 0.81534 0.17702 0.75033 0.0
C769 C 0.80198 0.16892 0.72394 0.0
C770 C 0.81035 0.17779 0.80216 0.0
C771 C 0.83585 0.17578 0.81089 0.0
C772 C 0.79752 0.1905 0.8203 0.0
C773 C 0.77283 0.19647 0.8113 0.0
C774 C 0.77664 0.21437 0.78755 0.0
C775 C 0.75325 0.21974 0.77902 0.0
C776 C 0.72603 0.20752 0.7942 0.0
C777 C 0.72218 0.18999 0.81799 0.0
C778 C 0.74548 0.18452 0.82659 0.0
C779 C 0.87876 0.25257 0.91292 0.0
C780 C 0.86418 0.23525 0.93677 0.0
C781 C 0.87042 0.23936 0.88654 0.0
C782 C 0.84717 0.20883 0.8837 0.0
C783 C 0.83328 0.19117 0.90746 0.0
C784 C 0.84203 0.20417 0.93388 0.0
C785 C 0.83453 0.19679 0.85597 0.0
C786 C 0.80941 0.19924 0.84717 0.0
C787 C 0.84822 0.18532 0.83763 0.0
C788 C 0.87552 0.18342 0.84578 0.0
C789 C 0.87454 0.1658 0.86884 0.0
C790 C 0.90047 0.16426 0.87646 0.0
C791 C 0.92746 0.18011 0.86106 0.0
C792 C 0.92853 0.19745 0.83794 0.0
C793 C 0.90266 0.19907 0.83025 0.0
H794 H 0.94751 0.17889 0.86698 0.0
H795 H 0.70795 0.21171 0.78757 0.0
H796 H 0.61446 0.8978 0.2448 0.0
H797 H 0.62512 0.8863 0.19804 0.0
H798 H 0.63198 0.8103 0.231 0.0
H799 H 0.62339 0.82307 0.27791 0.0
H800 H 0.66994 0.83315 0.19117 0.0
H801 H 0.56394 0.80254 0.2011 0.0
H802 H 0.51968 0.80904 0.21151 0.0
H803 H 0.5468 0.87616 0.14653 0.0
H804 H 0.59146 0.87032 0.13597 0.0
H805 H 0.60567 0.73027 0.07442 0.0
H806 H 0.61736 0.75671 0.11935 0.0
H807 H 0.64262 0.8417 0.07746 0.0
H808 H 0.63159 0.81563 0.03245 0.0
H809 H 0.59324 0.81929 0.11952 0.0
H810 H 0.69642 0.84012 0.10652 0.0
H811 H 0.73623 0.82661 0.09716 0.0
H812 H 0.70836 0.76874 0.16943 0.0
H813 H 0.66806 0.78152 0.17894 0.0
C814 C 0.6187 0.87894 0.24201 0.0
C815 C 0.61781 0.86111 0.26477 0.0
C816 C 0.62465 0.87228 0.21533 0.0
C817 C 0.62851 0.8469 0.21086 0.0
C818 C 0.62899 0.82994 0.23386 0.0
C819 C 0.62397 0.83717 0.26064 0.0
C820 C 0.62997 0.83673 0.18222 0.0
C821 C 0.65307 0.82999 0.17556 0.0
C822 C 0.60808 0.83274 0.16172 0.0
C823 C 0.58122 0.83626 0.16797 0.0
C824 C 0.56057 0.81884 0.18916 0.0
C825 C 0.53541 0.82238 0.19507 0.0
C826 C 0.53049 0.84307 0.17975 0.0
C827 C 0.55068 0.86019 0.15842 0.0
C828 C 0.57591 0.85677 0.15246 0.0
C829 C 0.61424 0.75469 0.07478 0.0
C830 C 0.61758 0.77088 0.05001 0.0
C831 C 0.62107 0.76975 0.10038 0.0
C832 C 0.63092 0.80109 0.10155 0.0
C833 C 0.63522 0.81752 0.07683 0.0
C834 C 0.62894 0.8026 0.05119 0.0
C835 C 0.63304 0.81569 0.12865 0.0
C836 C 0.6104 0.82301 0.13503 0.0
C837 C 0.65471 0.81921 0.14905 0.0
C838 C 0.67899 0.81154 0.1433 0.0
C839 C 0.69856 0.82426 0.12025 0.0
C840 C 0.72127 0.81679 0.11495 0.0
C841 C 0.72477 0.79676 0.13264 0.0
C842 C 0.70561 0.78421 0.15571 0.0
C843 C 0.68285 0.79159 0.16108 0.0
H844 H 0.74238 0.79102 0.1285 0.0
H845 H 0.51099 0.84578 0.18435 0.0
H846 H 0.785 0.64672 0.6149 0.0
H847 H 0.79145 0.65294 0.56438 0.0
H848 H 0.82421 0.58877 0.56247 0.0
H849 H 0.81804 0.58249 0.61289 0.0
H850 H 0.84205 0.66923 0.52715 0.0
H851 H 0.78471 0.53953 0.50821 0.0
H852 H 0.74923 0.49138 0.53227 0.0
H853 H 0.70757 0.53639 0.57423 0.0
H854 H 0.74234 0.58459 0.54999 0.0
H855 H 0.86291 0.63309 0.38885 0.0
H856 H 0.86034 0.63863 0.439 0.0
H857 H 0.76331 0.60471 0.43294 0.0
H858 H 0.76555 0.59851 0.38264 0.0
H859 H 0.77516 0.57553 0.47268 0.0
H860 H 0.81359 0.68091 0.44894 0.0
H861 H 0.84832 0.72998 0.42564 0.0
H862 H 0.92472 0.73506 0.46979 0.0
H863 H 0.89041 0.68586 0.49291 0.0
C864 C 0.79403 0.63429 0.60379 0.0
C865 C 0.80072 0.61388 0.61783 0.0
C866 C 0.79781 0.63799 0.57498 0.0
C867 C 0.80798 0.62107 0.55982 0.0
C868 C 0.81611 0.60184 0.5739 0.0
C869 C 0.81259 0.59833 0.6027 0.0
C870 C 0.80773 0.62154 0.5291 0.0
C871 C 0.82748 0.6488 0.51516 0.0
C872 C 0.78828 0.59494 0.51365 0.0
C873 C 0.76637 0.56574 0.52748 0.0
C874 C 0.76783 0.53908 0.52242 0.0
C875 C 0.74785 0.51179 0.5361 0.0
C876 C 0.72623 0.51086 0.55484 0.0
C877 C 0.72438 0.53716 0.55977 0.0
C878 C 0.74422 0.56447 0.54606 0.0
C879 C 0.84105 0.62716 0.39808 0.0
C880 C 0.81437 0.61515 0.38176 0.0
C881 C 0.83967 0.63048 0.42679 0.0
C882 C 0.81167 0.62224 0.43972 0.0
C883 C 0.78515 0.61113 0.42338 0.0
C884 C 0.78647 0.60763 0.39464 0.0
C885 C 0.80978 0.62322 0.47046 0.0
C886 C 0.78967 0.59609 0.48452 0.0
C887 C 0.82874 0.65001 0.48599 0.0
C888 C 0.84949 0.67963 0.47231 0.0
C889 C 0.83784 0.69244 0.45337 0.0
C890 C 0.85742 0.72026 0.44028 0.0
C891 C 0.88873 0.73557 0.44616 0.0
C892 C 0.90047 0.72314 0.46521 0.0
C893 C 0.88095 0.69531 0.47833 0.0
H894 H 0.90387 0.75711 0.43602 0.0
H895 H 0.71088 0.48974 0.5655 0.0
H896 H 0.10928 0.71967 0.92314 0.0
H897 H 0.12204 0.74044 0.87591 0.0
H898 H 0.19528 0.8254 0.90852 0.0
H899 H 0.18132 0.80532 0.95583 0.0
H900 H 0.17249 0.83812 0.86667 0.0
H901 H 0.20657 0.76625 0.88232 0.0
H902 H 0.20179 0.71675 0.89526 0.0
H903 H 0.13733 0.67252 0.82899 0.0
H904 H 0.14144 0.72173 0.81589 0.0
H905 H 0.27732 0.87367 0.75039 0.0
H906 H 0.25187 0.85887 0.79585 0.0
H907 H 0.16529 0.80204 0.75528 0.0
H908 H 0.19034 0.81735 0.70973 0.0
H909 H 0.19117 0.77501 0.79901 0.0
H910 H 0.16442 0.85325 0.78196 0.0
H911 H 0.17595 0.90549 0.77014 0.0
H912 H 0.23572 0.94097 0.84083 0.0
H913 H 0.22492 0.88896 0.85282 0.0
C914 C 0.12781 0.74292 0.92016 0.0
C915 C 0.14453 0.76082 0.94296 0.0
C916 C 0.13518 0.75473 0.89322 0.0
C917 C 0.16017 0.78419 0.88858 0.0
C918 C 0.17598 0.80258 0.91153 0.0
C919 C 0.16806 0.79107 0.93854 0.0
C920 C 0.17103 0.79515 0.85991 0.0
C921 C 0.1767 0.82434 0.85197 0.0
C922 C 0.17648 0.77719 0.84058 0.0
C923 C 0.17405 0.74759 0.84832 0.0
C924 C 0.19123 0.74592 0.87063 0.0
C925 C 0.18865 0.71793 0.87798 0.0
C926 C 0.1692 0.69149 0.86301 0.0
C927 C 0.15235 0.69301 0.8406 0.0
C928 C 0.1548 0.72095 0.83319 0.0
C929 C 0.25279 0.8584 0.75119 0.0
C930 C 0.23578 0.84658 0.72664 0.0
C931 C 0.23833 0.85011 0.77707 0.0
C932 C 0.2068 0.82954 0.77871 0.0
C933 C 0.18964 0.81814 0.75426 0.0
C934 C 0.20396 0.82693 0.72835 0.0
C935 C 0.19246 0.81771 0.806 0.0
C936 C 0.18644 0.78846 0.81369 0.0
C937 C 0.18763 0.83596 0.82527 0.0
C938 C 0.1941 0.86723 0.81811 0.0
C939 C 0.18028 0.87222 0.79481 0.0
C940 C 0.18662 0.90179 0.78812 0.0
C941 C 0.20663 0.92655 0.80468 0.0
C942 C 0.22026 0.92177 0.828 0.0
C943 C 0.21402 0.89225 0.83476 0.0
H944 H 0.2115 0.94942 0.79948 0.0
H945 H 0.16724 0.66984 0.86873 0.0
H946 H 0.43202 0.18935 0.04947 0.0
H947 H 0.42607 0.17772 0.09926 0.0
H948 H 0.37054 0.22016 0.10735 0.0
H949 H 0.37607 0.23162 0.05761 0.0
H950 H 0.44393 0.21609 0.14281 0.0
H951 H 0.31655 0.18275 0.15711 0.0
H952 H 0.26849 0.15791 0.1302 0.0
H953 H 0.30229 0.10981 0.08149 0.0
H954 H 0.35033 0.13397 0.10837 0.0
H955 H 0.41487 0.23397 0.2816 0.0
H956 H 0.41357 0.23484 0.23087 0.0
H957 H 0.3648 0.13619 0.22914 0.0
H958 H 0.36586 0.135 0.28007 0.0
H959 H 0.34308 0.16129 0.19015 0.0
H960 H 0.43811 0.17151 0.21917 0.0
H961 H 0.48588 0.19337 0.24637 0.0
H962 H 0.51716 0.28077 0.20769 0.0
H963 H 0.46925 0.25961 0.18068 0.0
C964 C 0.41836 0.19604 0.0618 0.0
C965 C 0.4045 0.2114 0.04958 0.0
C966 C 0.41507 0.18943 0.09024 0.0
C967 C 0.39769 0.19787 0.10692 0.0
C968 C 0.38369 0.21306 0.09476 0.0
C969 C 0.38699 0.2197 0.06634 0.0
C970 C 0.39501 0.19178 0.13723 0.0
C971 C 0.42189 0.20401 0.15314 0.0
C972 C 0.36623 0.17548 0.1506 0.0
C973 C 0.33716 0.1604 0.13463 0.0
C974 C 0.31367 0.16675 0.14076 0.0
C975 C 0.28643 0.1528 0.12549 0.0
C976 C 0.28237 0.13236 0.1041 0.0
C977 C 0.3055 0.12572 0.098 0.0
C978 C 0.33275 0.13957 0.11323 0.0
C979 C 0.40352 0.21241 0.27052 0.0
C980 C 0.39075 0.18441 0.28486 0.0
C981 C 0.40287 0.21298 0.24152 0.0
C982 C 0.38953 0.18559 0.22635 0.0
C983 C 0.37531 0.15756 0.24056 0.0
C984 C 0.37599 0.15695 0.26963 0.0
C985 C 0.39196 0.18643 0.19567 0.0
C986 C 0.36508 0.17321 0.17974 0.0
C987 C 0.42076 0.2013 0.18221 0.0
C988 C 0.44992 0.21401 0.19805 0.0
C989 C 0.45506 0.19545 0.2166 0.0
C990 C 0.48217 0.20772 0.23199 0.0
C991 C 0.50451 0.23846 0.22881 0.0
C992 C 0.49981 0.25697 0.21016 0.0
C993 C 0.47267 0.24485 0.1948 0.0
H994 H 0.52548 0.24792 0.24076 0.0
H995 H 0.26129 0.12162 0.09229 0.0
H996 H 0.97554 0.60566 0.33235 0.0
H997 H 0.00177 0.57617 0.32872 0.0
H998 H 0.91718 0.49655 0.30429 0.0
H999 H 0.89066 0.52592 0.30828 0.0
H1000 H 0.94764 0.48403 0.34525 0.0
H1001 H 0.97125 0.53457 0.2566 0.0
H1002 H 0.99002 0.57881 0.22492 0.0
H1003 H 0.07919 0.6186 0.26209 0.0
H1004 H 0.06083 0.57479 0.29428 0.0
H1005 H 0.01126 0.39226 0.30928 0.0
H1006 H 0.98484 0.42162 0.30683 0.0
H1007 H 0.0699 0.50467 0.32318 0.0
H1008 H 0.09654 0.4753 0.32509 0.0
H1009 H 0.03844 0.51509 0.28511 0.0
H1010 H 0.01547 0.46707 0.37487 0.0
H1011 H 0.99753 0.4241 0.40796 0.0
H1012 H 0.90831 0.38122 0.37059 0.0
H1013 H 0.92585 0.42376 0.33702 0.0
C1014 C 0.96248 0.58186 0.3263 0.0
C1015 C 0.93098 0.56811 0.32067 0.0
C1016 C 0.97757 0.5651 0.32398 0.0
C1017 C 0.96149 0.53423 0.31602 0.0
C1018 C 0.93004 0.52039 0.31037 0.0
C1019 C 0.91496 0.53723 0.31248 0.0
C1020 C 0.97736 0.5162 0.31448 0.0
C1021 C 0.96718 0.49051 0.33176 0.0
C1022 C 0.00341 0.52522 0.29749 0.0
C1023 C 0.01457 0.55151 0.27803 0.0
C1024 C 0.9948 0.55286 0.25817 0.0
C1025 C 0.00538 0.57784 0.24009 0.0
C1026 C 0.03576 0.60154 0.24154 0.0
C1027 C 0.05565 0.60025 0.26101 0.0
C1028 C 0.04518 0.57533 0.27917 0.0
C1029 C 0.02431 0.41676 0.31241 0.0
C1030 C 0.05592 0.43144 0.31769 0.0
C1031 C 0.00919 0.43354 0.31101 0.0
C1032 C 0.02523 0.46531 0.31538 0.0
C1033 C 0.05699 0.48018 0.31982 0.0
C1034 C 0.07221 0.4634 0.32089 0.0
C1035 C 0.00873 0.48285 0.31591 0.0
C1036 C 0.01882 0.5085 0.29851 0.0
C1037 C 0.98273 0.47397 0.33299 0.0
C1038 C 0.97206 0.44845 0.35326 0.0
C1039 C 0.99208 0.44837 0.37359 0.0
C1040 C 0.98198 0.42411 0.39244 0.0
C1041 C 0.95182 0.39991 0.39133 0.0
C1042 C 0.93168 0.39996 0.3714 0.0
C1043 C 0.94168 0.42415 0.35247 0.0
H1044 H 0.94404 0.38114 0.40595 0.0
H1045 H 0.04391 0.62086 0.22752 0.0
H1046 H 0.62566 0.05511 0.68798 0.0
H1047 H 0.56991 0.02813 0.68426 0.0
H1048 H 0.57731 0.03924 0.59493 0.0
H1049 H 0.63343 0.06804 0.59909 0.0
H1050 H 0.53185 0.0443 0.61012 0.0
H1051 H 0.5595 0.96951 0.62875 0.0
H1052 H 0.58524 0.94502 0.65208 0.0
H1053 H 0.53734 0.93854 0.72791 0.0
H1054 H 0.51164 0.96343 0.70517 0.0
H1055 H 0.37138 0.92313 0.6036 0.0
H1056 H 0.42735 0.9491 0.59809 0.0
H1057 H 0.43856 0.97753 0.68396 0.0
H1058 H 0.3829 0.95215 0.68937 0.0
H1059 H 0.47365 0.9479 0.66376 0.0
H1060 H 0.44907 0.02793 0.64042 0.0
H1061 H 0.42204 0.0479 0.61222 0.0
H1062 H 0.46318 0.0374 0.53793 0.0
H1063 H 0.49014 0.01697 0.56569 0.0
C1064 C 0.61525 0.05189 0.66763 0.0
C1065 C 0.63357 0.06332 0.64381 0.0
C1066 C 0.58344 0.03628 0.66542 0.0
C1067 C 0.56923 0.0307 0.6392 0.0
C1068 C 0.58762 0.04299 0.61537 0.0
C1069 C 0.61959 0.0594 0.6177 0.0
C1070 C 0.53528 0.01183 0.63698 0.0
C1071 C 0.51925 0.02297 0.6215 0.0
C1072 C 0.51853 0.9837 0.65148 0.0
C1073 C 0.53379 0.96855 0.66528 0.0
C1074 C 0.55459 0.96304 0.65045 0.0
C1075 C 0.56916 0.94907 0.66357 0.0
C1076 C 0.56297 0.94028 0.69147 0.0
C1077 C 0.54213 0.94538 0.7063 0.0
C1078 C 0.52752 0.95939 0.69329 0.0
C1079 C 0.38588 0.93484 0.62125 0.0
C1080 C 0.37294 0.93575 0.64689 0.0
C1081 C 0.41772 0.94973 0.61806 0.0
C1082 C 0.43695 0.96523 0.64062 0.0
C1083 C 0.42404 0.9657 0.66632 0.0
C1084 C 0.39234 0.95137 0.66935 0.0
C1085 C 0.47064 0.981 0.63781 0.0
C1086 C 0.48649 0.96909 0.65222 0.0
C1087 C 0.4871 0.00777 0.62161 0.0
C1088 C 0.47134 0.02061 0.60508 0.0
C1089 C 0.45216 0.02966 0.61805 0.0
C1090 C 0.4369 0.0411 0.60215 0.0
C1091 C 0.44081 0.04382 0.57329 0.0
C1092 C 0.46012 0.03523 0.56028 0.0
C1093 C 0.47542 0.02375 0.57609 0.0
H1094 H 0.42893 0.05263 0.561 0.0
H1095 H 0.57428 0.92947 0.70159 0.0
H1096 H 0.44129 0.37 0.94036 0.0
H1097 H 0.46684 0.42555 0.93317 0.0
H1098 H 0.48694 0.43971 0.02105 0.0
H1099 H 0.46066 0.38444 0.02825 0.0
H1100 H 0.46614 0.47431 0.00538 0.0
H1101 H 0.54207 0.45247 0.96863 0.0
H1102 H 0.56178 0.4271 0.93794 0.0
H1103 H 0.53995 0.46312 0.86606 0.0
H1104 H 0.51973 0.4884 0.89632 0.0
H1105 H 0.58629 0.62696 0.01316 0.0
H1106 H 0.55812 0.57106 0.01086 0.0
H1107 H 0.52499 0.57511 0.92912 0.0
H1108 H 0.55313 0.6314 0.93148 0.0
H1109 H 0.54866 0.53192 0.93655 0.0
H1110 H 0.47659 0.55734 0.97554 0.0
H1111 H 0.45973 0.58395 0.0078 0.0
H1112 H 0.47734 0.54164 0.07747 0.0
H1113 H 0.49477 0.51513 0.04563 0.0
C1114 C 0.4515 0.38509 0.95801 0.0
C1115 C 0.44893 0.37299 0.98487 0.0
C1116 C 0.46612 0.41681 0.95391 0.0
C1117 C 0.47902 0.43696 0.97655 0.0
C1118 C 0.47701 0.42475 0.00326 0.0
C1119 C 0.46201 0.39316 0.00739 0.0
C1120 C 0.49373 0.47073 0.97294 0.0
C1121 C 0.48436 0.48681 0.99045 0.0
C1122 C 0.51691 0.48719 0.95293 0.0
C1123 C 0.52906 0.47201 0.93472 0.0
C1124 C 0.54124 0.45477 0.94627 0.0
C1125 C 0.55255 0.44045 0.92896 0.0
C1126 C 0.55203 0.44341 0.90007 0.0
C1127 C 0.54028 0.46079 0.88843 0.0
C1128 C 0.52891 0.47513 0.90566 0.0
C1129 C 0.57313 0.61594 0.99465 0.0
C1130 C 0.57172 0.63343 0.97257 0.0
C1131 C 0.55701 0.58406 0.99339 0.0
C1132 C 0.5394 0.56902 0.96988 0.0
C1133 C 0.53844 0.58636 0.94745 0.0
C1134 C 0.55424 0.61838 0.94891 0.0
C1135 C 0.5215 0.53514 0.96944 0.0
C1136 C 0.53021 0.51917 0.9512 0.0
C1137 C 0.49794 0.51873 0.98899 0.0
C1138 C 0.48722 0.53444 0.0082 0.0
C1139 C 0.47711 0.5539 0.99775 0.0
C1140 C 0.4674 0.56893 0.01596 0.0
C1141 C 0.46752 0.56454 0.04467 0.0
C1142 C 0.47727 0.54504 0.05522 0.0
C1143 C 0.48704 0.52998 0.0371 0.0
H1144 H 0.45999 0.5762 0.05873 0.0
H1145 H 0.5608 0.43231 0.8867 0.0
H1146 H 0.60932 0.99128 0.34976 0.0
H1147 H 0.57934 0.01663 0.35394 0.0
H1148 H 0.49672 0.92899 0.36034 0.0
H1149 H 0.52643 0.90326 0.35482 0.0
H1150 H 0.489 0.9651 0.32527 0.0
H1151 H 0.53005 0.9767 0.41766 0.0
H1152 H 0.57156 0.99132 0.45182 0.0
H1153 H 0.61364 0.08472 0.4245 0.0
H1154 H 0.57265 0.07057 0.38984 0.0
H1155 H 0.39262 0.02362 0.35836 0.0
H1156 H 0.42151 0.99677 0.3623 0.0
H1157 H 0.50604 0.08323 0.36005 0.0
H1158 H 0.47692 0.11016 0.35732 0.0
H1159 H 0.51217 0.04674 0.39454 0.0
H1160 H 0.47463 0.03587 0.30078 0.0
H1161 H 0.43543 0.02228 0.26439 0.0
H1162 H 0.38902 0.92895 0.29237 0.0
H1163 H 0.42775 0.94208 0.32917 0.0
C1164 C 0.58479 0.97723 0.35188 0.0
C1165 C 0.57043 0.94506 0.35189 0.0
C1166 C 0.56765 0.99187 0.35463 0.0
C1167 C 0.53577 0.97478 0.35786 0.0
C1168 C 0.52132 0.9427 0.35802 0.0
C1169 C 0.53844 0.92799 0.3551 0.0
C1170 C 0.51742 0.99035 0.35998 0.0
C1171 C 0.49373 0.98257 0.34075 0.0
C1172 C 0.52416 0.01382 0.37962 0.0
C1173 C 0.54837 0.02252 0.40101 0.0
C1174 C 0.54822 1.00033 0.41885 0.0
C1175 C 0.57167 0.00853 0.4383 0.0
C1176 C 0.59525 0.03892 0.44029 0.0
C1177 C 0.59537 0.06119 0.42292 0.0
C1178 C 0.57201 0.0531 0.40339 0.0
C1179 C 0.41737 0.03684 0.35882 0.0
C1180 C 0.43258 0.06891 0.35719 0.0
C1181 C 0.43389 0.02151 0.36101 0.0
C1182 C 0.46604 0.03788 0.36071 0.0
C1183 C 0.48128 0.07004 0.36017 0.0
C1184 C 0.46468 0.08542 0.35859 0.0
C1185 C 0.48367 0.02143 0.35984 0.0
C1186 C 0.50728 0.0291 0.37922 0.0
C1187 C 0.47708 0.998 0.34015 0.0
C1188 C 0.45393 0.99002 0.31788 0.0
C1189 C 0.45597 0.01249 0.29927 0.0
C1190 C 0.43384 0.00486 0.27857 0.0
C1191 C 0.40971 0.97479 0.27612 0.0
C1192 C 0.40771 0.95224 0.29432 0.0
C1193 C 0.42975 0.95976 0.31508 0.0
H1194 H 0.3926 0.96893 0.26008 0.0
H1195 H 0.61342 0.04521 0.45533 0.0
H1196 H 0.63083 0.60463 0.67182 0.0
H1197 H 0.57517 0.57616 0.67691 0.0
H1198 H 0.57849 0.49456 0.69691 0.0
H1199 H 0.63425 0.52291 0.69149 0.0
H1200 H 0.53473 0.48459 0.65746 0.0
H1201 H 0.56551 0.53197 0.74724 0.0
H1202 H 0.59288 0.57515 0.77968 0.0
H1203 H 0.54347 0.61737 0.74769 0.0
H1204 H 0.51613 0.57465 0.71473 0.0
H1205 H 0.38193 0.39203 0.6989 0.0
H1206 H 0.43771 0.42195 0.69986 0.0
H1207 H 0.43409 0.50457 0.68627 0.0
H1208 H 0.37799 0.47457 0.68567 0.0
H1209 H 0.47827 0.51457 0.72292 0.0
H1210 H 0.4488 0.46921 0.63251 0.0
H1211 H 0.42201 0.42733 0.59869 0.0
H1212 H 0.46956 0.38296 0.63019 0.0
H1213 H 0.49633 0.42438 0.66449 0.0
C1214 C 0.61971 0.5806 0.6772 0.0
C1215 C 0.63694 0.56598 0.68117 0.0
C1216 C 0.58793 0.56443 0.68035 0.0
C1217 C 0.57271 0.5333 0.68749 0.0
C1218 C 0.58981 0.51861 0.69148 0.0
C1219 C 0.62165 0.53485 0.68855 0.0
C1220 C 0.53885 0.51585 0.68987 0.0
C1221 C 0.52239 0.49083 0.67208 0.0
C1222 C 0.52277 0.52463 0.70834 0.0
C1223 C 0.53898 0.55023 0.72832 0.0
C1224 C 0.56065 0.55057 0.74696 0.0
C1225 C 0.57613 0.57495 0.76547 0.0
C1226 C 0.56997 0.59903 0.7657 0.0
C1227 C 0.54824 0.59872 0.74747 0.0
C1228 C 0.53273 0.57441 0.72888 0.0
C1229 C 0.393 0.41656 0.69611 0.0
C1230 C 0.37558 0.43091 0.69185 0.0
C1231 C 0.4249 0.43366 0.69669 0.0
C1232 C 0.44016 0.46545 0.69256 0.0
C1233 C 0.42283 0.48005 0.6894 0.0
C1234 C 0.3908 0.46292 0.68908 0.0
C1235 C 0.47412 0.48314 0.69061 0.0
C1236 C 0.49059 0.50825 0.70837 0.0
C1237 C 0.49029 0.47463 0.67194 0.0
C1238 C 0.47435 0.44975 0.65124 0.0
C1239 C 0.45338 0.45041 0.63236 0.0
C1240 C 0.43822 0.42677 0.61309 0.0
C1241 C 0.44402 0.40246 0.61234 0.0
C1242 C 0.46506 0.40179 0.63082 0.0
C1243 C 0.48025 0.42535 0.65017 0.0
H1244 H 0.43226 0.38418 0.5974 0.0
H1245 H 0.58199 0.61788 0.78004 0.0
H1246 H 0.9232 0.36878 0.05669 0.0
H1247 H 0.94816 0.42454 0.06091 0.0
H1248 H 0.00295 0.4347 0.98844 0.0
H1249 H 0.97836 0.37917 0.98438 0.0
H1250 H 0.03713 0.47489 0.02602 0.0
H1251 H 0.9385 0.44235 0.98514 0.0
H1252 H 0.88217 0.41259 0.98261 0.0
H1253 H 0.87588 0.45299 0.05915 0.0
H1254 H 0.93222 0.48269 0.06232 0.0
H1255 H 0.03192 0.62191 0.98803 0.0
H1256 H 0.00859 0.56639 0.98999 0.0
H1257 H 0.06284 0.57461 0.06236 0.0
H1258 H 0.0865 0.63041 0.06032 0.0
H1259 H 0.9742 0.52519 0.0268 0.0
H1260 H 0.07892 0.5163 0.06208 0.0
H1261 H 0.13527 0.54609 0.05921 0.0
H1262 H 0.12943 0.58888 0.98397 0.0
H1263 H 0.07309 0.55905 0.98619 0.0
C1264 C 0.94046 0.38294 0.04161 0.0
C1265 C 0.94865 0.36957 0.02008 0.0
C1266 C 0.95477 0.41479 0.04407 0.0
C1267 C 0.97723 0.43387 0.0248 0.0
C1268 C 0.9858 0.42052 0.00362 0.0
C1269 C 0.97171 0.38874 0.00131 0.0
C1270 C 0.99131 0.46772 0.02606 0.0
C1271 C 0.02336 0.48587 0.02635 0.0
C1272 C 0.97341 0.48215 0.02608 0.0
C1273 C 0.93956 0.46448 0.02412 0.0
C1274 C 0.9251 0.44472 0.00153 0.0
C1275 C 0.89318 0.42789 -4e-05 0.0
C1276 C 0.87546 0.43083 0.02075 0.0
C1277 C 0.88964 0.45069 0.04309 0.0
C1278 C 0.92156 0.46754 0.04478 0.0
C1279 C 0.03875 0.61193 0.00449 0.0
C1280 C 0.0611 0.63062 0.02401 0.0
C1281 C 0.0254 0.58015 0.00558 0.0
C1282 C 0.03404 0.56625 0.02621 0.0
C1283 C 0.05612 0.5848 0.04597 0.0
C1284 C 0.06968 0.61669 0.04476 0.0
C1285 C 0.02004 0.53238 0.02667 0.0
C1286 C 0.98799 0.51422 0.02678 0.0
C1287 C 0.03794 0.51796 0.02628 0.0
C1288 C 0.07181 0.53571 0.02451 0.0
C1289 C 0.08968 0.532 0.04489 0.0
C1290 C 0.12161 0.5489 0.04337 0.0
C1291 C 0.13592 0.56945 0.02148 0.0
C1292 C 0.11833 0.57305 0.00098 0.0
C1293 C 0.0864 0.55617 0.00237 0.0
H1294 H 0.16064 0.58254 0.02037 0.0
H1295 H 0.85074 0.41777 0.0195 0.0
H1296 H 0.26983 0.39398 0.30713 0.0
H1297 H 0.29441 0.36469 0.3203 0.0
H1298 H 0.206 0.28273 0.32583 0.0
H1299 H 0.1813 0.31233 0.31338 0.0
H1300 H 0.23895 0.28347 0.36722 0.0
H1301 H 0.25648 0.29744 0.26961 0.0
H1302 H 0.27257 0.32554 0.22514 0.0
H1303 H 0.36478 0.37783 0.25527 0.0
H1304 H 0.34916 0.35033 0.30009 0.0
H1305 H 0.3073 0.18685 0.36703 0.0
H1306 H 0.27787 0.21145 0.35296 0.0
H1307 H 0.35775 0.30016 0.36512 0.0
H1308 H 0.38703 0.27578 0.37938 0.0
H1309 H 0.32649 0.29212 0.31286 0.0
H1310 H 0.3059 0.27734 0.41182 0.0
H1311 H 0.28811 0.24661 0.45481 0.0
H1312 H 0.19885 0.19175 0.41906 0.0
H1313 H 0.21626 0.22191 0.37567 0.0
C1314 C 0.25566 0.36968 0.31093 0.0
C1315 C 0.22365 0.35541 0.309 0.0
C1316 C 0.26973 0.35289 0.31841 0.0
C1317 C 0.25216 0.32128 0.32354 0.0
C1318 C 0.22011 0.30704 0.32192 0.0
C1319 C 0.206 0.32395 0.31482 0.0
C1320 C 0.2673 0.30334 0.33096 0.0
C1321 C 0.25774 0.28501 0.35501 0.0
C1322 C 0.29205 0.30541 0.31526 0.0
C1323 C 0.30158 0.32199 0.28831 0.0
C1324 C 0.28015 0.31509 0.26684 0.0
C1325 C 0.28919 0.33088 0.24155 0.0
C1326 C 0.31966 0.3535 0.23741 0.0
C1327 C 0.34117 0.36032 0.25852 0.0
C1328 C 0.33225 0.34461 0.28386 0.0
C1329 C 0.31848 0.21158 0.36672 0.0
C1330 C 0.34939 0.22941 0.37445 0.0
C1331 C 0.30167 0.22558 0.35879 0.0
C1332 C 0.31565 0.25762 0.35807 0.0
C1333 C 0.34654 0.27542 0.36558 0.0
C1334 C 0.36316 0.26146 0.37393 0.0
C1335 C 0.29835 0.27279 0.34917 0.0
C1336 C 0.30751 0.29051 0.32483 0.0
C1337 C 0.27296 0.26974 0.36432 0.0
C1338 C 0.26249 0.25164 0.39039 0.0
C1339 C 0.28256 0.25853 0.41302 0.0
C1340 C 0.27253 0.24127 0.43749 0.0
C1341 C 0.24239 0.21718 0.43963 0.0
C1342 C 0.2222 0.21037 0.41735 0.0
C1343 C 0.23214 0.22756 0.39282 0.0
H1344 H 0.23466 0.20385 0.4586 0.0
H1345 H 0.32662 0.36571 0.21781 0.0
H1346 H 0.87001 0.21024 0.67304 0.0
H1347 H 0.92389 0.23629 0.68671 0.0
H1348 H 0.95037 0.26722 0.60224 0.0
H1349 H 0.89649 0.24072 0.58831 0.0
H1350 H 0.98624 0.24594 0.62593 0.0
H1351 H 0.95043 0.31554 0.64972 0.0
H1352 H 0.91569 0.33009 0.67228 0.0
H1353 H 0.93804 0.30884 0.75241 0.0
H1354 H 0.97263 0.29379 0.73027 0.0
H1355 H 0.14091 0.35794 0.65201 0.0
H1356 H 0.0873 0.3303 0.63729 0.0
H1357 H 0.05894 0.31281 0.72335 0.0
H1358 H 0.11254 0.34188 0.73795 0.0
H1359 H 0.02342 0.32663 0.69842 0.0
H1360 H 0.05862 0.25656 0.67611 0.0
H1361 H 0.09278 0.24064 0.65451 0.0
H1362 H 0.07097 0.26031 0.57345 0.0
H1363 H 0.03698 0.27665 0.5946 0.0
C1364 C 0.88727 0.22227 0.6573 0.0
C1365 C 0.87891 0.22346 0.62958 0.0
C1366 C 0.91807 0.23736 0.66519 0.0
C1367 C 0.94115 0.25396 0.64554 0.0
C1368 C 0.93294 0.25463 0.61775 0.0
C1369 C 0.90213 0.23968 0.60987 0.0
C1370 C 0.97382 0.27108 0.65408 0.0
C1371 C 0.9945 0.26382 0.64157 0.0
C1372 C 0.98441 0.29388 0.67495 0.0
C1373 C 0.96391 0.30328 0.68831 0.0
C1374 C 0.94778 0.31378 0.67213 0.0
C1375 C 0.92814 0.32215 0.68485 0.0
C1376 C 0.9246 0.32032 0.71376 0.0
C1377 C 0.94078 0.31022 0.73002 0.0
C1378 C 0.96043 0.3018 0.7174 0.0
C1379 C 0.12315 0.34804 0.66769 0.0
C1380 C 0.13077 0.35193 0.69609 0.0
C1381 C 0.0925 0.3321 0.65931 0.0
C1382 C 0.06887 0.31883 0.67916 0.0
C1383 C 0.07661 0.32276 0.70757 0.0
C1384 C 0.10721 0.33933 0.71594 0.0
C1385 C 0.03611 0.30143 0.67046 0.0
C1386 C 0.01532 0.30867 0.68288 0.0
C1387 C 0.02537 0.27834 0.64973 0.0
C1388 C 0.04545 0.26806 0.63696 0.0
C1389 C 0.06123 0.25762 0.65369 0.0
C1390 C 0.08056 0.24851 0.64152 0.0
C1391 C 0.08412 0.24953 0.61263 0.0
C1392 C 0.06825 0.25955 0.59583 0.0
C1393 C 0.04891 0.26869 0.60789 0.0
H1394 H 0.09911 0.24248 0.60327 0.0
H1395 H 0.90937 0.32679 0.72356 0.0
H1396 H 0.78842 0.13621 0.97982 0.0
H1397 H 0.76006 0.08246 0.96518 0.0
H1398 H 0.73411 0.05472 0.0504 0.0
H1399 H 0.76227 0.10842 0.06509 0.0
H1400 H 0.75589 0.01986 0.02055 0.0
H1401 H 0.68334 0.05531 0.01103 0.0
H1402 H 0.66601 0.09017 0.99384 0.0
H1403 H 0.67659 0.06899 0.90946 0.0
H1404 H 0.69441 0.03431 0.92617 0.0
H1405 H 0.64034 0.86631 0.00328 0.0
H1406 H 0.66976 0.92032 0.01613 0.0
H1407 H 0.67463 0.94572 0.92964 0.0
H1408 H 0.64403 0.89153 0.91696 0.0
H1409 H 0.6654 0.98286 0.95876 0.0
H1410 H 0.7368 0.94724 0.96623 0.0
H1411 H 0.7559 0.91322 0.98165 0.0
H1412 H 0.75063 0.93564 0.06692 0.0
H1413 H 0.73114 0.96952 0.05202 0.0
C1414 C 0.77687 0.11861 0.99542 0.0
C1415 C 0.77747 0.12645 0.02359 0.0
C1416 C 0.76057 0.08798 0.98704 0.0
C1417 C 0.74491 0.06468 0.00672 0.0
C1418 C 0.74603 0.07239 0.03491 0.0
C1419 C 0.76193 0.10303 0.04324 0.0
C1420 C 0.72691 0.03225 0.9979 0.0
C1421 C 0.7359 0.01162 0.00728 0.0
C1422 C 0.70144 0.02182 0.97992 0.0
C1423 C 0.69052 0.04248 0.96985 0.0
C1424 C 0.68222 0.05829 0.98881 0.0
C1425 C 0.67226 0.07797 0.97916 0.0
C1426 C 0.67028 0.08186 0.95058 0.0
C1427 C 0.67818 0.06599 0.93159 0.0
C1428 C 0.68819 0.0463 0.94114 0.0
C1429 C 0.6478 0.88346 0.98704 0.0
C1430 C 0.64014 0.8748 0.95911 0.0
C1431 C 0.66472 0.91434 0.99436 0.0
C1432 C 0.67511 0.93722 0.97381 0.0
C1433 C 0.66702 0.92857 0.9459 0.0
C1434 C 0.64954 0.89764 0.93864 0.0
C1435 C 0.6942 0.97011 0.98148 0.0
C1436 C 0.68545 0.99094 0.97191 0.0
C1437 C 0.72022 0.98082 -0.00103 0.0
C1438 C 0.73227 0.96073 0.008 0.0
C1439 C 0.73955 0.94479 0.98828 0.0
C1440 C 0.75047 0.92554 0.99693 0.0
C1441 C 0.75441 0.92222 0.02525 0.0
C1442 C 0.74754 0.93822 0.04499 0.0
C1443 C 0.7366 0.95748 0.03645 0.0
H1444 H 0.76283 0.90729 0.03191 0.0
H1445 H 0.66256 0.09711 0.94314 0.0
H1446 H 0.8173 0.69539 0.30045 0.0
H1447 H 0.79206 0.72495 0.31057 0.0
H1448 H 0.70714 0.65149 0.2784 0.0
H1449 H 0.73235 0.62212 0.26791 0.0
H1450 H 0.71292 0.70439 0.26323 0.0
H1451 H 0.72141 0.66033 0.34838 0.0
H1452 H 0.74866 0.64845 0.38448 0.0
H1453 H 0.80504 0.74415 0.40251 0.0
H1454 H 0.77843 0.75666 0.36615 0.0
H1455 H 0.60753 0.73195 0.34112 0.0
H1456 H 0.63812 0.70946 0.32506 0.0
H1457 H 0.72049 0.79668 0.33495 0.0
H1458 H 0.68986 0.81943 0.35049 0.0
H1459 H 0.71797 0.74001 0.36041 0.0
H1460 H 0.7036 0.78156 0.27458 0.0
H1461 H 0.67221 0.789 0.23951 0.0
H1462 H 0.6212 0.69217 0.22476 0.0
H1463 H 0.65203 0.68411 0.26003 0.0
C1464 C 0.79328 0.68559 0.2955 0.0
C1465 C 0.7768 0.65632 0.28354 0.0
C1466 C 0.77887 0.70251 0.30124 0.0
C1467 C 0.74755 0.69029 0.2956 0.0
C1468 C 0.73131 0.66148 0.28287 0.0
C1469 C 0.74578 0.64469 0.27688 0.0
C1470 C 0.73133 0.70674 0.30425 0.0
C1471 C 0.71393 0.71202 0.28451 0.0
C1472 C 0.73264 0.71684 0.332 0.0
C1473 C 0.74816 0.70945 0.35437 0.0
C1474 C 0.73972 0.67885 0.35995 0.0
C1475 C 0.75504 0.672 0.38043 0.0
C1476 C 0.77859 0.69555 0.39567 0.0
C1477 C 0.7868 0.72597 0.39061 0.0
C1478 C 0.7716 0.73296 0.37008 0.0
C1479 C 0.63216 0.74625 0.33994 0.0
C1480 C 0.6464 0.77738 0.34706 0.0
C1481 C 0.64955 0.73346 0.33065 0.0
C1482 C 0.68149 0.75148 0.32879 0.0
C1483 C 0.69584 0.78248 0.33622 0.0
C1484 C 0.67838 0.79543 0.34496 0.0
C1485 C 0.69982 0.73769 0.31938 0.0
C1486 C 0.71738 0.73272 0.33906 0.0
C1487 C 0.69811 0.72733 0.29175 0.0
C1488 C 0.67992 0.7322 0.27017 0.0
C1489 C 0.68553 0.76183 0.26403 0.0
C1490 C 0.66787 0.76617 0.24408 0.0
C1491 C 0.64462 0.74105 0.23003 0.0
C1492 C 0.63916 0.71159 0.23572 0.0
C1493 C 0.65675 0.70713 0.25566 0.0
H1494 H 0.63087 0.74443 0.21469 0.0
H1495 H 0.79043 0.69018 0.41142 0.0
H1496 H 0.12059 0.72803 0.63607 0.0
H1497 H 0.0675 0.70352 0.65177 0.0
H1498 H 0.07395 0.79191 0.65761 0.0
H1499 H 0.12762 0.81652 0.64292 0.0
H1500 H 0.04395 0.76028 0.69982 0.0
H1501 H 0.03522 0.73945 0.60261 0.0
H1502 H 0.0449 0.72196 0.55783 0.0
H1503 H 0.00709 0.63085 0.59032 0.0
H1504 H 0.99755 0.64788 0.63544 0.0
H1505 H 0.87875 0.69257 0.70205 0.0
H1506 H 0.93273 0.72132 0.68783 0.0
H1507 H 0.94134 0.64187 0.70363 0.0
H1508 H 0.88766 0.61326 0.71813 0.0
H1509 H 0.96248 0.6709 0.64926 0.0
H1510 H 0.97246 0.69516 0.74763 0.0
H1511 H 0.96138 0.71475 0.79046 0.0
H1512 H 0.99498 0.80269 0.75209 0.0
H1513 H 0.00585 0.78348 0.70886 0.0
C1514 C 0.11058 0.74217 0.64051 0.0
C1515 C 0.1281 0.77414 0.63805 0.0
C1516 C 0.08018 0.72816 0.64942 0.0
C1517 C 0.06636 0.74575 0.65534 0.0
C1518 C 0.08398 0.77778 0.65312 0.0
C1519 C 0.11461 0.79184 0.64471 0.0
C1520 C 0.03371 0.7307 0.66421 0.0
C1521 C 0.02612 0.74106 0.68845 0.0
C1522 C 0.01027 0.70539 0.64961 0.0
C1523 C 0.01592 0.69502 0.62249 0.0
C1524 C 0.02917 0.71573 0.60027 0.0
C1525 C 0.0346 0.70589 0.57482 0.0
C1526 C 0.02668 0.67533 0.57126 0.0
C1527 C 0.01324 0.65453 0.59312 0.0
C1528 C 0.00779 0.66425 0.61863 0.0
C1529 C 0.89228 0.68138 0.70264 0.0
C1530 C 0.87909 0.65074 0.71129 0.0
C1531 C 0.92305 0.6978 0.69461 0.0
C1532 C 0.94095 0.68368 0.69472 0.0
C1533 C 0.92788 0.65316 0.70346 0.0
C1534 C 0.89732 0.63693 0.71193 0.0
C1535 C 0.97307 0.70031 0.68487 0.0
C1536 C 0.98043 0.69025 0.66042 0.0
C1537 C 0.9961 0.72622 0.69892 0.0
C1538 C 0.98963 0.73778 0.72491 0.0
C1539 C 0.9772 0.71859 0.74823 0.0
C1540 C 0.97103 0.72964 0.7726 0.0
C1541 C 0.97739 0.75992 0.77397 0.0
C1542 C 0.99002 0.77923 0.75098 0.0
C1543 C 0.99621 0.76828 0.72655 0.0
H1544 H 0.9726 0.76844 0.79286 0.0
H1545 H 0.0309 0.66776 0.55154 0.0
H1546 H 0.33091 0.10976 0.91818 0.0
H1547 H 0.30375 0.0557 0.93166 0.0
H1548 H 0.33323 0.08106 0.0166 0.0
H1549 H 0.36082 0.13499 0.0032 0.0
H1550 H 0.34178 0.0345 -0.00152 0.0
H1551 H 0.26076 0.05861 -0.00157 0.0
H1552 H 0.22853 0.07764 0.97815 0.0
H1553 H 0.19938 0.00994 0.91361 0.0
H1554 H 0.23178 0.99076 0.93329 0.0
H1555 H 0.24688 0.89473 0.06718 0.0
H1556 H 0.27211 0.94784 0.05144 0.0
H1557 H 0.23466 0.9179 0.96921 0.0
H1558 H 0.20917 0.86464 0.98493 0.0
H1559 H 0.23032 0.96631 0.98398 0.0
H1560 H 0.30997 0.94137 0.98355 0.0
H1561 H 0.34253 0.92215 0.00267 0.0
H1562 H 0.37503 0.99111 0.06625 0.0
H1563 H 0.34232 0.01049 0.04774 0.0
C1564 C 0.33167 0.10382 0.9397 0.0
C1565 C 0.34797 0.12673 0.95962 0.0
C1566 C 0.31595 0.07293 0.94742 0.0
C1567 C 0.31629 0.06435 0.97518 0.0
C1568 C 0.3326 0.08715 0.99507 0.0
C1569 C 0.34814 0.118 0.98742 0.0
C1570 C 0.30021 0.03159 0.98349 0.0
C1571 C 0.31734 0.01967 0.99563 0.0
C1572 C 0.2685 0.01202 0.97898 0.0
C1573 C 0.24895 0.02347 0.96717 0.0
C1574 C 0.24768 0.04795 0.97977 0.0
C1575 C 0.22934 0.05873 0.96841 0.0
C1576 C 0.21199 0.04506 0.94456 0.0
C1577 C 0.21287 0.02053 0.93206 0.0
C1578 C 0.2312 0.00968 0.94332 0.0
C1579 C 0.24418 0.8994 0.0457 0.0
C1580 C 0.22613 0.87539 0.0273 0.0
C1581 C 0.25862 0.92981 0.03671 0.0
C1582 C 0.25568 0.9369 0.009 0.0
C1583 C 0.23728 0.91302 0.99067 0.0
C1584 C 0.22266 0.88257 -0.00029 0.0
C1585 C 0.27184 0.96924 -0.00075 0.0
C1586 C 0.25477 0.98108 0.98678 0.0
C1587 C 0.30369 0.98873 0.00326 0.0
C1588 C 0.32347 0.9772 0.01441 0.0
C1589 C 0.32388 0.95229 0.00174 0.0
C1590 C 0.34239 0.94139 0.01245 0.0
C1591 C 0.36078 0.95535 0.0357 0.0
C1592 C 0.36074 0.9803 0.04826 0.0
C1593 C 0.34224 0.99127 0.03765 0.0
H1594 H 0.3751 0.94688 0.04396 0.0
H1595 H 0.1978 0.05344 0.9358 0.0
H1596 H 0.48725 0.72333 0.33018 0.0
H1597 H 0.43647 0.67832 0.32705 0.0
H1598 H 0.3956 0.73405 0.34365 0.0
H1599 H 0.44683 0.7795 0.3471 0.0
H1600 H 0.36701 0.68124 0.37235 0.0
H1601 H 0.39535 0.70886 0.27787 0.0
H1602 H 0.42868 0.72391 0.2365 0.0
H1603 H 0.42866 0.63889 0.23966 0.0
H1604 H 0.3957 0.62351 0.28131 0.0
H1605 H 0.2209 0.55308 0.3286 0.0
H1606 H 0.26648 0.60442 0.3307 0.0
H1607 H 0.32431 0.56415 0.32963 0.0
H1608 H 0.27909 0.51304 0.32784 0.0
H1609 H 0.34026 0.61292 0.29024 0.0
H1610 H 0.31572 0.58854 0.38781 0.0
H1611 H 0.28175 0.57381 0.42871 0.0
H1612 H 0.27331 0.65376 0.41821 0.0
H1613 H 0.30686 0.66869 0.37693 0.0
C1614 C 0.46749 0.72612 0.33285 0.0
C1615 C 0.47101 0.75504 0.33843 0.0
C1616 C 0.43844 0.70034 0.3311 0.0
C1617 C 0.4122 0.70289 0.33454 0.0
C1618 C 0.41556 0.73161 0.34076 0.0
C1619 C 0.44476 0.7575 0.34272 0.0
C1620 C 0.38146 0.67531 0.33174 0.0
C1621 C 0.3609 0.66663 0.35415 0.0
C1622 C 0.37354 0.65609 0.30807 0.0
C1623 C 0.39318 0.66511 0.28285 0.0
C1624 C 0.4026 0.69345 0.26986 0.0
C1625 C 0.42142 0.70203 0.24634 0.0
C1626 C 0.43082 0.68239 0.23549 0.0
C1627 C 0.42137 0.65409 0.2481 0.0
C1628 C 0.40258 0.6454 0.27164 0.0
C1629 C 0.24338 0.5553 0.32891 0.0
C1630 C 0.24654 0.52918 0.32825 0.0
C1631 C 0.26929 0.58452 0.33017 0.0
C1632 C 0.29866 0.58795 0.33034 0.0
C1633 C 0.30181 0.5619 0.32951 0.0
C1634 C 0.276 0.53277 0.3287 0.0
C1635 C 0.32635 0.61862 0.33108 0.0
C1636 C 0.34625 0.62784 0.30822 0.0
C1637 C 0.33348 0.63839 0.35417 0.0
C1638 C 0.31347 0.62952 0.37907 0.0
C1639 C 0.30637 0.60282 0.39405 0.0
C1640 C 0.28725 0.59446 0.41734 0.0
C1641 C 0.2753 0.61279 0.426 0.0
C1642 C 0.28253 0.63956 0.41144 0.0
C1643 C 0.3016 0.64798 0.3881 0.0
H1644 H 0.2605 0.6063 0.44404 0.0
H1645 H 0.4454 0.68908 0.21728 0.0
H1646 H 0.74265 0.47905 0.63685 0.0
H1647 H 0.73633 0.42836 0.6298 0.0
H1648 H 0.68548 0.39728 0.70645 0.0
H1649 H 0.69047 0.44757 0.71322 0.0
H1650 H 0.73597 0.38687 0.70168 0.0
H1651 H 0.6477 0.37063 0.64937 0.0
H1652 H 0.62078 0.38351 0.61375 0.0
H1653 H 0.67749 0.37811 0.54999 0.0
H1654 H 0.70505 0.3656 0.5853 0.0
H1655 H 0.70775 0.23614 0.68935 0.0
H1656 H 0.69938 0.27961 0.69509 0.0
H1657 H 0.73014 0.30823 0.61077 0.0
H1658 H 0.73685 0.26376 0.60463 0.0
H1659 H 0.68634 0.31866 0.62077 0.0
H1660 H 0.7777 0.34032 0.66996 0.0
H1661 H 0.80879 0.33059 0.70359 0.0
H1662 H 0.75228 0.3301 0.77061 0.0
H1663 H 0.72059 0.33942 0.73731 0.0
C1664 C 0.72942 0.46131 0.6519 0.0
C1665 C 0.71721 0.46757 0.67571 0.0
C1666 C 0.72599 0.43237 0.64788 0.0
C1667 C 0.71046 0.40917 0.66762 0.0
C1668 C 0.69766 0.41501 0.69106 0.0
C1669 C 0.70075 0.44384 0.69496 0.0
C1670 C 0.70926 0.37945 0.66457 0.0
C1671 C 0.72464 0.37161 0.68429 0.0
C1672 C 0.69539 0.36026 0.64133 0.0
C1673 C 0.67859 0.36741 0.62003 0.0
C1674 C 0.65458 0.3724 0.62778 0.0
C1675 C 0.63918 0.3796 0.60764 0.0
C1676 C 0.64746 0.38169 0.57963 0.0
C1677 C 0.67111 0.3765 0.5717 0.0
C1678 C 0.6866 0.36931 0.59177 0.0
C1679 C 0.71236 0.25161 0.67202 0.0
C1680 C 0.72304 0.24687 0.64662 0.0
C1681 C 0.70776 0.2765 0.67532 0.0
C1682 C 0.71481 0.29765 0.65357 0.0
C1683 C 0.72458 0.2923 0.62787 0.0
C1684 C 0.72848 0.26699 0.62437 0.0
C1685 C 0.71319 0.32596 0.65788 0.0
C1686 C 0.69742 0.33367 0.63835 0.0
C1687 C 0.72734 0.34547 0.68099 0.0
C1688 C 0.74659 0.34024 0.70111 0.0
C1689 C 0.7718 0.33796 0.69185 0.0
C1690 C 0.78954 0.33253 0.71085 0.0
C1691 C 0.78246 0.32963 0.73921 0.0
C1692 C 0.7577 0.33229 0.74863 0.0
C1693 C 0.73986 0.33766 0.72971 0.0
H1694 H 0.7962 0.3254 0.75389 0.0
H1695 H 0.63552 0.38728 0.56407 0.0
H1696 H 0.46911 0.71737 0.02977 0.0
H1697 H 0.41814 0.71064 0.03652 0.0
H1698 H 0.40396 0.70404 0.94765 0.0
H1699 H 0.45538 0.71208 0.94066 0.0
H1700 H 0.38946 0.74306 0.96915 0.0
H1701 H 0.36605 0.64108 0.99113 0.0
H1702 H 0.37234 0.60137 0.01511 0.0
H1703 H 0.35592 0.6307 0.09388 0.0
H1704 H 0.34995 0.67089 0.0704 0.0
H1705 H 0.23576 0.70596 0.97309 0.0
H1706 H 0.27998 0.69911 0.96661 0.0
H1707 H 0.29951 0.71304 0.05451 0.0
H1708 H 0.25525 0.71999 0.06116 0.0
H1709 H 0.30989 0.66809 0.03295 0.0
H1710 H 0.33642 0.77159 0.01131 0.0
H1711 H 0.33011 0.81144 0.98762 0.0
H1712 H 0.34114 0.77911 0.90823 0.0
H1713 H 0.34706 0.73874 0.93146 0.0
C1714 C 0.45512 0.71441 0.01165 0.0
C1715 C 0.46642 0.71537 0.98466 0.0
C1716 C 0.42583 0.71022 0.01556 0.0
C1717 C 0.40708 0.70656 0.9926 0.0
C1718 C 0.41798 0.70672 0.96568 0.0
C1719 C 0.44731 0.71104 0.96174 0.0
C1720 C 0.37702 0.70475 0.99652 0.0
C1721 C 0.37187 0.72626 0.98271 0.0
C1722 C 0.35438 0.68342 0.01484 0.0
C1723 C 0.35782 0.65918 0.02901 0.0
C1724 C 0.36401 0.63922 0.01358 0.0
C1725 C 0.36748 0.6166 0.02708 0.0
C1726 C 0.3646 0.61356 0.056 0.0
C1727 C 0.35817 0.6331 0.07148 0.0
C1728 C 0.35471 0.65578 0.05808 0.0
C1729 C 0.24934 0.70734 0.99108 0.0
C1730 C 0.24225 0.71389 0.01758 0.0
C1731 C 0.27453 0.70333 0.98736 0.0
C1732 C 0.29329 0.70606 0.01001 0.0
C1733 C 0.28532 0.71087 0.03675 0.0
C1734 C 0.26001 0.7148 0.04052 0.0
C1735 C 0.32242 0.70622 0.00541 0.0
C1736 C 0.32745 0.68461 0.01921 0.0
C1737 C 0.34506 0.72748 0.9871 0.0
C1738 C 0.34187 0.75196 0.97311 0.0
C1739 C 0.33728 0.77284 0.98879 0.0
C1740 C 0.3338 0.79554 0.97545 0.0
C1741 C 0.33514 0.79776 0.94644 0.0
C1742 C 0.34006 0.77733 0.93071 0.0
C1743 C 0.3435 0.75455 0.94394 0.0
H1744 H 0.33243 0.81534 0.93615 0.0
H1745 H 0.3673 0.59603 0.06642 0.0
H1746 H 0.51885 0.26455 0.31262 0.0
H1747 H 0.56975 0.30829 0.30493 0.0
H1748 H 0.60445 0.28011 0.37415 0.0
H1749 H 0.55308 0.23645 0.38236 0.0
H1750 H 0.62457 0.33925 0.37676 0.0
H1751 H 0.62129 0.27189 0.30492 0.0
H1752 H 0.59793 0.23658 0.26535 0.0
H1753 H 0.59866 0.30857 0.2171 0.0
H1754 H 0.62174 0.34426 0.25648 0.0
H1755 H 0.77586 0.45748 0.34603 0.0
H1756 H 0.73207 0.40594 0.35249 0.0
H1757 H 0.68324 0.4227 0.28752 0.0
H1758 H 0.72678 0.47408 0.28094 0.0
H1759 H 0.67403 0.36572 0.28379 0.0
H1760 H 0.67102 0.4306 0.35615 0.0
H1761 H 0.69161 0.46615 0.39589 0.0
H1762 H 0.7007 0.39882 0.44303 0.0
H1763 H 0.68055 0.36301 0.40339 0.0
C1764 C 0.53741 0.26741 0.32596 0.0
C1765 C 0.53205 0.247 0.34799 0.0
C1766 C 0.56654 0.2924 0.32151 0.0
C1767 C 0.5911 0.29721 0.33863 0.0
C1768 C 0.58586 0.27678 0.36061 0.0
C1769 C 0.55656 0.2519 0.3653 0.0
C1770 C 0.62182 0.32442 0.33427 0.0
C1771 C 0.63572 0.34467 0.35658 0.0
C1772 C 0.63607 0.33186 0.30779 0.0
C1773 C 0.62314 0.31072 0.28372 0.0
C1774 C 0.61642 0.28018 0.28589 0.0
C1775 C 0.60322 0.2601 0.26349 0.0
C1776 C 0.5968 0.27032 0.23874 0.0
C1777 C 0.60369 0.3007 0.23628 0.0
C1778 C 0.6169 0.32089 0.25861 0.0
C1779 C 0.7558 0.45014 0.33309 0.0
C1780 C 0.75471 0.46993 0.31309 0.0
C1781 C 0.73085 0.42067 0.33676 0.0
C1782 C 0.70425 0.41061 0.32071 0.0
C1783 C 0.70355 0.42994 0.30008 0.0
C1784 C 0.7285 0.4593 0.29632 0.0
C1785 C 0.6765 0.38063 0.32619 0.0
C1786 C 0.66314 0.35994 0.30408 0.0
C1787 C 0.66265 0.37282 0.35283 0.0
C1788 C 0.67464 0.39428 0.3767 0.0
C1789 C 0.67764 0.42347 0.37492 0.0
C1790 C 0.68919 0.44365 0.39743 0.0
C1791 C 0.69755 0.43478 0.42194 0.0
C1792 C 0.69428 0.40568 0.42401 0.0
C1793 C 0.68279 0.38543 0.40153 0.0
H1794 H 0.70648 0.45043 0.43935 0.0
H1795 H 0.58647 0.2547 0.22146 0.0
H1796 H 0.28388 0.75114 0.69729 0.0
H1797 H 0.29088 0.70689 0.70221 0.0
H1798 H 0.29333 0.69994 0.61285 0.0
H1799 H 0.28509 0.74347 0.60774 0.0
H1800 H 0.25579 0.64595 0.635 0.0
H1801 H 0.35839 0.72522 0.65301 0.0
H1802 H 0.39919 0.77158 0.67562 0.0
H1803 H 0.37455 0.72646 0.75502 0.0
H1804 H 0.33329 0.67994 0.73294 0.0
H1805 H 0.2938 0.52949 0.63632 0.0
H1806 H 0.29942 0.58006 0.62958 0.0
H1807 H 0.29105 0.58802 0.71812 0.0
H1808 H 0.28537 0.53737 0.72503 0.0
H1809 H 0.33419 0.64252 0.69481 0.0
H1810 H 0.22976 0.56484 0.67712 0.0
H1811 H 0.18886 0.51841 0.65466 0.0
H1812 H 0.21721 0.56115 0.57448 0.0
H1813 H 0.25859 0.6077 0.59645 0.0
C1814 C 0.28593 0.74022 0.67867 0.0
C1815 C 0.28383 0.75082 0.65212 0.0
C1816 C 0.29028 0.71511 0.68152 0.0
C1817 C 0.29295 0.70025 0.6579 0.0
C1818 C 0.29146 0.71113 0.63137 0.0
C1819 C 0.28701 0.7362 0.62849 0.0
C1820 C 0.29534 0.67223 0.66089 0.0
C1821 C 0.27332 0.6454 0.64766 0.0
C1822 C 0.31771 0.67126 0.67799 0.0
C1823 C 0.34257 0.69917 0.69134 0.0
C1824 C 0.36151 0.72525 0.67533 0.0
C1825 C 0.38475 0.75155 0.68804 0.0
C1826 C 0.38941 0.75199 0.71675 0.0
C1827 C 0.37089 0.7261 0.73279 0.0
C1828 C 0.3476 0.69974 0.72018 0.0
C1829 C 0.29334 0.54209 0.65438 0.0
C1830 C 0.28881 0.5293 0.68118 0.0
C1831 C 0.29662 0.57099 0.6505 0.0
C1832 C 0.29515 0.58757 0.67331 0.0
C1833 C 0.29222 0.57559 0.70024 0.0
C1834 C 0.28904 0.54667 0.70415 0.0
C1835 C 0.2947 0.61643 0.66889 0.0
C1836 C 0.31692 0.64328 0.68194 0.0
C1837 C 0.27252 0.61749 0.65162 0.0
C1838 C 0.24747 0.58963 0.6384 0.0
C1839 C 0.22741 0.56425 0.65468 0.0
C1840 C 0.20413 0.53793 0.64204 0.0
C1841 C 0.20049 0.5368 0.61315 0.0
C1842 C 0.22008 0.56204 0.59685 0.0
C1843 C 0.24345 0.58841 0.60938 0.0
H1844 H 0.18245 0.51639 0.6034 0.0
H1845 H 0.40742 0.77237 0.72656 0.0
H1846 H 0.52616 0.24064 0.95303 0.0
H1847 H 0.57626 0.24529 0.9602 0.0
H1848 H 0.60825 0.33226 0.00073 0.0
H1849 H 0.55798 0.32779 0.99358 0.0
H1850 H 0.65147 0.32894 0.9617 0.0
H1851 H 0.589 0.27738 0.04124 0.0
H1852 H 0.54207 0.23856 0.06473 0.0
H1853 H 0.55202 0.16694 0.02698 0.0
H1854 H 0.59875 0.20536 0.00288 0.0
H1855 H 0.78239 0.3261 0.01642 0.0
H1856 H 0.7372 0.33188 0.01189 0.0
H1857 H 0.68361 0.23747 0.98654 0.0
H1858 H 0.72785 0.23106 0.99254 0.0
H1859 H 0.65262 0.24965 0.02201 0.0
H1860 H 0.71146 0.29919 0.93955 0.0
H1861 H 0.75718 0.33667 0.91366 0.0
H1862 H 0.75351 0.41043 0.95445 0.0
H1863 H 0.70796 0.37334 0.98085 0.0
C1864 C 0.54402 0.26103 0.963 0.0
C1865 C 0.53817 0.28382 0.97282 0.0
C1866 C 0.57254 0.26357 0.96721 0.0
C1867 C 0.59577 0.289 0.98117 0.0
C1868 C 0.59053 0.31247 0.98994 0.0
C1869 C 0.56182 0.30979 0.986 0.0
C1870 C 0.62479 0.2899 0.98796 0.0
C1871 C 0.65195 0.31197 0.97525 0.0
C1872 C 0.62513 0.26743 0.0053 0.0
C1873 C 0.59725 0.24426 0.02007 0.0
C1874 C 0.58106 0.25336 0.03778 0.0
C1875 C 0.55451 0.23143 0.05123 0.0
C1876 C 0.54403 0.20031 0.04731 0.0
C1877 C 0.56014 0.19106 0.02998 0.0
C1878 C 0.58668 0.21291 0.01644 0.0
C1879 C 0.76091 0.30653 0.01009 0.0
C1880 C 0.75891 0.2782 0.00455 0.0
C1881 C 0.73517 0.30995 0.00724 0.0
C1882 C 0.70706 0.28521 -0.00148 0.0
C1883 C 0.70503 0.25693 0.9932 0.0
C1884 C 0.73055 0.25342 0.99629 0.0
C1885 C 0.67944 0.28824 0.99515 0.0
C1886 C 0.65241 0.26689 0.00865 0.0
C1887 C 0.67924 0.3112 0.97832 0.0
C1888 C 0.70654 0.3335 0.9624 0.0
C1889 C 0.72055 0.3234 0.94315 0.0
C1890 C 0.7464 0.34457 0.92836 0.0
C1891 C 0.7583 0.37591 0.93247 0.0
C1892 C 0.74431 0.38615 0.95132 0.0
C1893 C 0.71846 0.36506 0.96619 0.0
H1894 H 0.77832 0.39227 0.921 0.0
H1895 H 0.52347 0.18336 0.05773 0.0
loop_
_geom_bond_atom_site_label_1
_geom_bond_atom_site_label_2
_geom_bond_distance
_geom_bond_site_symmetry_2
_ccdc_geom_bond_type
Co0 N4 2.148 . S
Co0 N10 2.128 . S
Co0 N20 2.194 . S
Co0 O25 2.351 . S
Co0 O26 2.155 . S
Co0 O27 2.096 . S
C1 N4 1.301 . S
C1 N5 1.328 . S
C1 H6 0.930 . S
C2 C3 1.333 . S
C2 N4 1.317 . S
C2 H7 0.930 . S
C3 C2 1.333 . S
C3 N5 1.350 . S
C3 H29 0.931 . S
N4 Co0 2.148 . S
N4 C1 1.301 . S
N4 C2 1.317 . S
N5 C1 1.328 . S
N5 C3 1.350 . S
H6 C1 0.930 . S
H7 C2 0.930 . S
C8 O9 1.224 . S
C8 O27 1.247 . S
O9 C8 1.224 . S
N10 Co0 2.128 . S
N10 C11 1.355 . S
N10 C13 1.311 . S
C11 N10 1.355 . S
C11 C12 1.363 . S
C11 H23 0.929 . S
C12 C11 1.363 . S
C12 N14 1.375 . S
C12 H30 0.931 . S
C13 N10 1.311 . S
C13 N14 1.347 . S
C13 H24 0.929 . S
N14 C12 1.375 . S
N14 C13 1.347 . S
C15 C18 1.365 . S
C15 N20 1.328 . S
C15 H21 0.929 . S
C16 C17 1.362 . S
C16 C19 1.378 . S
C16 H31 0.929 . S
C17 C16 1.362 . S
C17 C18 1.366 . S
C18 C15 1.365 . S
C18 C17 1.366 . S
C18 H32 0.930 . S
C19 C16 1.378 . S
C19 N20 1.315 . S
C19 H22 0.930 . S
N20 Co0 2.194 . S
N20 C15 1.328 . S
N20 C19 1.315 . S
H21 C15 0.929 . S
H22 C19 0.930 . S
H23 C11 0.929 . S
H24 C13 0.929 . S
O25 Co0 2.351 . S
O25 C28 1.244 . S
O26 Co0 2.155 . S
O26 C28 1.240 . S
O27 Co0 2.096 . S
O27 C8 1.247 . S
C28 O25 1.244 . S
C28 O26 1.240 . S
H29 C3 0.931 . S
H30 C12 0.931 . S
H31 C16 0.929 . S
H32 C18 0.930 . S
Co33 N37 2.148 . S
Co33 N43 2.128 . S
Co33 N53 2.194 . S
Co33 O58 2.351 . S
Co33 O59 2.155 . S
Co33 O60 2.096 . S
C34 N37 1.301 . S
C34 N38 1.328 . S
C34 H39 0.930 . S
C35 C36 1.333 . S
C35 N37 1.317 . S
C35 H40 0.930 . S
C36 C35 1.333 . S
C36 N38 1.350 . S
C36 H62 0.931 . S
N37 Co33 2.148 . S
N37 C34 1.301 . S
N37 C35 1.317 . S
N38 C34 1.328 . S
N38 C36 1.350 . S
H39 C34 0.930 . S
H40 C35 0.930 . S
C41 O42 1.224 . S
C41 O60 1.247 . S
O42 C41 1.224 . S
N43 Co33 2.128 . S
N43 C44 1.355 . S
N43 C46 1.311 . S
C44 N43 1.355 . S
C44 C45 1.363 . S
C44 H56 0.929 . S
C45 C44 1.363 . S
C45 N47 1.375 . S
C45 H63 0.931 . S
C46 N43 1.311 . S
C46 N47 1.347 . S
C46 H57 0.929 . S
N47 C45 1.375 . S
N47 C46 1.347 . S
C48 C51 1.365 . S
C48 N53 1.328 . S
C48 H54 0.929 . S
C49 C50 1.362 . S
C49 C52 1.378 . S
C49 H64 0.929 . S
C50 C49 1.362 . S
C50 C51 1.366 . S
C51 C48 1.365 . S
C51 C50 1.366 . S
C51 H65 0.930 . S
C52 C49 1.378 . S
C52 N53 1.315 . S
C52 H55 0.930 . S
N53 Co33 2.194 . S
N53 C48 1.328 . S
N53 C52 1.315 . S
H54 C48 0.929 . S
H55 C52 0.930 . S
H56 C44 0.929 . S
H57 C46 0.929 . S
O58 Co33 2.351 . S
O58 C61 1.244 . S
O59 Co33 2.155 . S
O59 C61 1.240 . S
O60 Co33 2.096 . S
O60 C41 1.247 . S
C61 O58 1.244 . S
C61 O59 1.240 . S
H62 C36 0.931 . S
H63 C45 0.931 . S
H64 C49 0.929 . S
H65 C51 0.930 . S
Co66 N70 2.157 . S
Co66 N76 2.121 1_554 S
Co66 N86 2.188 1_554 S
Co66 O91 2.320 1_554 S
Co66 O92 2.140 1_554 S
Co66 O93 2.122 . S
C67 N70 1.301 1_556 S
C67 N71 1.328 1_556 S
C67 H72 0.930 . S
C68 C69 1.333 . S
C68 N70 1.317 . S
C68 H73 0.930 . S
C69 C68 1.333 . S
C69 N71 1.350 . S
C69 H95 0.931 . S
N70 Co66 2.157 . S
N70 C67 1.301 1_554 S
N70 C68 1.317 . S
N71 C67 1.328 1_554 S
N71 C69 1.350 . S
H72 C67 0.930 . S
H73 C68 0.930 . S
C74 O75 1.224 . S
C74 O93 1.247 . S
O75 C74 1.224 . S
N76 Co66 2.121 1_556 S
N76 C77 1.355 . S
N76 C79 1.311 1_556 S
C77 N76 1.355 . S
C77 C78 1.363 . S
C77 H89 0.929 . S
C78 C77 1.363 . S
C78 N80 1.375 . S
C78 H96 0.931 . S
C79 N76 1.311 1_554 S
C79 N80 1.347 1_554 S
C79 H90 0.929 . S
N80 C78 1.375 . S
N80 C79 1.347 1_556 S
C81 C84 1.365 . S
C81 N86 1.328 . S
C81 H87 0.929 . S
C82 C83 1.362 1_554 S
C82 C85 1.378 . S
C82 H97 0.929 . S
C83 C82 1.362 1_556 S
C83 C84 1.366 . S
C84 C81 1.365 . S
C84 C83 1.366 . S
C84 H98 0.930 . S
C85 C82 1.378 . S
C85 N86 1.315 1_554 S
C85 H88 0.930 . S
N86 Co66 2.188 1_556 S
N86 C81 1.328 . S
N86 C85 1.315 1_556 S
H87 C81 0.929 . S
H88 C85 0.930 . S
H89 C77 0.929 . S
H90 C79 0.929 . S
O91 Co66 2.320 1_556 S
O91 C94 1.244 . S
O92 Co66 2.140 1_556 S
O92 C94 1.240 . S
O93 Co66 2.122 . S
O93 C74 1.247 . S
C94 O91 1.244 . S
C94 O92 1.240 . S
H95 C69 0.931 . S
H96 C78 0.931 . S
H97 C82 0.929 . S
H98 C84 0.930 . S
Co99 N103 2.148 . S
Co99 N109 2.128 . S
Co99 N119 2.194 . S
Co99 O124 2.351 . S
Co99 O125 2.155 . S
Co99 O126 2.096 . S
C100 N103 1.301 . S
C100 N104 1.328 . S
C100 H105 0.930 . S
C101 C102 1.333 . S
C101 N103 1.317 . S
C101 H106 0.930 . S
C102 C101 1.333 . S
C102 N104 1.350 . S
C102 H128 0.931 . S
N103 Co99 2.148 . S
N103 C100 1.301 . S
N103 C101 1.317 . S
N104 C100 1.328 . S
N104 C102 1.350 . S
H105 C100 0.930 . S
H106 C101 0.930 . S
C107 O108 1.224 . S
C107 O126 1.247 . S
O108 C107 1.224 . S
N109 Co99 2.128 . S
N109 C110 1.355 . S
N109 C112 1.311 . S
C110 N109 1.355 . S
C110 C111 1.363 . S
C110 H122 0.929 . S
C111 C110 1.363 . S
C111 N113 1.375 . S
C111 H129 0.931 . S
C112 N109 1.311 . S
C112 N113 1.347 . S
C112 H123 0.929 . S
N113 C111 1.375 . S
N113 C112 1.347 . S
C114 C117 1.365 . S
C114 N119 1.328 . S
C114 H120 0.929 . S
C115 C116 1.362 . S
C115 C118 1.378 . S
C115 H130 0.929 . S
C116 C115 1.362 . S
C116 C117 1.366 . S
C117 C114 1.365 . S
C117 C116 1.366 . S
C117 H131 0.930 . S
C118 C115 1.378 . S
C118 N119 1.315 . S
C118 H121 0.930 . S
N119 Co99 2.194 . S
N119 C114 1.328 . S
N119 C118 1.315 . S
H120 C114 0.929 . S
H121 C118 0.930 . S
H122 C110 0.929 . S
H123 C112 0.929 . S
O124 Co99 2.351 . S
O124 C127 1.244 . S
O125 Co99 2.155 . S
O125 C127 1.240 . S
O126 Co99 2.096 . S
O126 C107 1.247 . S
C127 O124 1.244 . S
C127 O125 1.240 . S
H128 C102 0.931 . S
H129 C111 0.931 . S
H130 C115 0.929 . S
H131 C117 0.930 . S
Co132 N136 2.148 . S
Co132 N142 2.128 . S
Co132 N152 2.194 . S
Co132 O157 2.351 . S
Co132 O158 2.155 . S
Co132 O159 2.096 . S
C133 N136 1.301 . S
C133 N137 1.328 . S
C133 H138 0.930 . S
C134 C135 1.333 . S
C134 N136 1.317 . S
C134 H139 0.930 . S
C135 C134 1.333 . S
C135 N137 1.350 . S
C135 H161 0.931 . S
N136 Co132 2.148 . S
N136 C133 1.301 . S
N136 C134 1.317 . S
N137 C133 1.328 . S
N137 C135 1.350 . S
H138 C133 0.930 . S
H139 C134 0.930 . S
C140 O141 1.224 . S
C140 O159 1.247 . S
O141 C140 1.224 . S
N142 Co132 2.128 . S
N142 C143 1.355 . S
N142 C145 1.311 . S
C143 N142 1.355 . S
C143 C144 1.363 . S
C143 H155 0.929 . S
C144 C143 1.363 . S
C144 N146 1.375 . S
C144 H162 0.931 . S
C145 N142 1.311 . S
C145 N146 1.347 . S
C145 H156 0.929 . S
N146 C144 1.375 . S
N146 C145 1.347 . S
C147 C150 1.365 . S
C147 N152 1.328 . S
C147 H153 0.929 . S
C148 C149 1.362 . S
C148 C151 1.378 . S
C148 H163 0.929 . S
C149 C148 1.362 . S
C149 C150 1.366 . S
C150 C147 1.365 . S
C150 C149 1.366 . S
C150 H164 0.930 . S
C151 C148 1.378 . S
C151 N152 1.315 . S
C151 H154 0.930 . S
N152 Co132 2.194 . S
N152 C147 1.328 . S
N152 C151 1.315 . S
H153 C147 0.929 . S
H154 C151 0.930 . S
H155 C143 0.929 . S
H156 C145 0.929 . S
O157 Co132 2.351 . S
O157 C160 1.244 . S
O158 Co132 2.155 . S
O158 C160 1.240 . S
O159 Co132 2.096 . S
O159 C140 1.247 . S
C160 O157 1.244 . S
C160 O158 1.240 . S
H161 C135 0.931 . S
H162 C144 0.931 . S
H163 C148 0.929 . S
H164 C150 0.930 . S
Co165 N169 2.157 . S
Co165 N175 2.121 1_554 S
Co165 N185 2.188 1_554 S
Co165 O190 2.320 1_554 S
Co165 O191 2.140 1_554 S
Co165 O192 2.122 . S
C166 N169 1.301 1_556 S
C166 N170 1.328 1_556 S
C166 H171 0.930 . S
C167 C168 1.333 . S
C167 N169 1.317 . S
C167 H172 0.930 . S
C168 C167 1.333 . S
C168 N170 1.350 . S
C168 H194 0.931 . S
N169 Co165 2.157 . S
N169 C166 1.301 1_554 S
N169 C167 1.317 . S
N170 C166 1.328 1_554 S
N170 C168 1.350 . S
H171 C166 0.930 . S
H172 C167 0.930 . S
C173 O174 1.224 . S
C173 O192 1.247 . S
O174 C173 1.224 . S
N175 Co165 2.121 1_556 S
N175 C176 1.355 . S
N175 C178 1.311 1_556 S
C176 N175 1.355 . S
C176 C177 1.363 . S
C176 H188 0.929 . S
C177 C176 1.363 . S
C177 N179 1.375 . S
C177 H195 0.931 . S
C178 N175 1.311 1_554 S
C178 N179 1.347 1_554 S
C178 H189 0.929 . S
N179 C177 1.375 . S
N179 C178 1.347 1_556 S
C180 C183 1.365 . S
C180 N185 1.328 . S
C180 H186 0.929 . S
C181 C182 1.362 1_554 S
C181 C184 1.378 . S
C181 H196 0.929 . S
C182 C181 1.362 1_556 S
C182 C183 1.366 . S
C183 C180 1.365 . S
C183 C182 1.366 . S
C183 H197 0.930 . S
C184 C181 1.378 . S
C184 N185 1.315 1_554 S
C184 H187 0.930 . S
N185 Co165 2.188 1_556 S
N185 C180 1.328 . S
N185 C184 1.315 1_556 S
H186 C180 0.929 . S
H187 C184 0.930 . S
H188 C176 0.929 . S
H189 C178 0.929 . S
O190 Co165 2.320 1_556 S
O190 C193 1.244 . S
O191 Co165 2.140 1_556 S
O191 C193 1.240 . S
O192 Co165 2.122 . S
O192 C173 1.247 . S
C193 O190 1.244 . S
C193 O191 1.240 . S
H194 C168 0.931 . S
H195 C177 0.931 . S
H196 C181 0.929 . S
H197 C183 0.930 . S
Co198 N202 2.148 . S
Co198 N208 2.128 . S
Co198 N218 2.194 . S
Co198 O223 2.351 . S
Co198 O224 2.155 . S
Co198 O225 2.096 . S
C199 N202 1.301 . S
C199 N203 1.328 . S
C199 H204 0.930 . S
C200 C201 1.333 . S
C200 N202 1.317 . S
C200 H205 0.930 . S
C201 C200 1.333 . S
C201 N203 1.350 . S
C201 H227 0.931 . S
N202 Co198 2.148 . S
N202 C199 1.301 . S
N202 C200 1.317 . S
N203 C199 1.328 . S
N203 C201 1.350 . S
H204 C199 0.930 . S
H205 C200 0.930 . S
C206 O207 1.224 . S
C206 O225 1.247 . S
O207 C206 1.224 . S
N208 Co198 2.128 . S
N208 C209 1.355 . S
N208 C211 1.311 . S
C209 N208 1.355 . S
C209 C210 1.363 . S
C209 H221 0.929 . S
C210 C209 1.363 . S
C210 N212 1.375 . S
C210 H228 0.931 . S
C211 N208 1.311 . S
C211 N212 1.347 . S
C211 H222 0.929 . S
N212 C210 1.375 . S
N212 C211 1.347 . S
C213 C216 1.365 . S
C213 N218 1.328 . S
C213 H219 0.929 . S
C214 C215 1.362 . S
C214 C217 1.378 . S
C214 H229 0.929 . S
C215 C214 1.362 . S
C215 C216 1.366 . S
C216 C213 1.365 . S
C216 C215 1.366 . S
C216 H230 0.930 . S
C217 C214 1.378 . S
C217 N218 1.315 . S
C217 H220 0.930 . S
N218 Co198 2.194 . S
N218 C213 1.328 . S
N218 C217 1.315 . S
H219 C213 0.929 . S
H220 C217 0.930 . S
H221 C209 0.929 . S
H222 C211 0.929 . S
O223 Co198 2.351 . S
O223 C226 1.244 . S
O224 Co198 2.155 . S
O224 C226 1.240 . S
O225 Co198 2.096 . S
O225 C206 1.247 . S
C226 O223 1.244 . S
C226 O224 1.240 . S
H227 C201 0.931 . S
H228 C210 0.931 . S
H229 C214 0.929 . S
H230 C216 0.930 . S
Co231 N235 2.148 . S
Co231 N241 2.128 . S
Co231 N251 2.194 . S
Co231 O256 2.351 . S
Co231 O257 2.155 . S
Co231 O258 2.096 . S
C232 N235 1.301 . S
C232 N236 1.328 . S
C232 H237 0.930 . S
C233 C234 1.333 . S
C233 N235 1.317 . S
C233 H238 0.930 . S
C234 C233 1.333 . S
C234 N236 1.350 . S
C234 H260 0.931 . S
N235 Co231 2.148 . S
N235 C232 1.301 . S
N235 C233 1.317 . S
N236 C232 1.328 . S
N236 C234 1.350 . S
H237 C232 0.930 . S
H238 C233 0.930 . S
C239 O240 1.224 . S
C239 O258 1.247 . S
O240 C239 1.224 . S
N241 Co231 2.128 . S
N241 C242 1.355 . S
N241 C244 1.311 . S
C242 N241 1.355 . S
C242 C243 1.363 . S
C242 H254 0.929 . S
C243 C242 1.363 . S
C243 N245 1.375 . S
C243 H261 0.931 . S
C244 N241 1.311 . S
C244 N245 1.347 . S
C244 H255 0.929 . S
N245 C243 1.375 . S
N245 C244 1.347 . S
C246 C249 1.365 . S
C246 N251 1.328 . S
C246 H252 0.929 . S
C247 C248 1.362 . S
C247 C250 1.378 . S
C247 H262 0.929 . S
C248 C247 1.362 . S
C248 C249 1.366 . S
C249 C246 1.365 . S
C249 C248 1.366 . S
C249 H263 0.930 . S
C250 C247 1.378 . S
C250 N251 1.315 . S
C250 H253 0.930 . S
N251 Co231 2.194 . S
N251 C246 1.328 . S
N251 C250 1.315 . S
H252 C246 0.929 . S
H253 C250 0.930 . S
H254 C242 0.929 . S
H255 C244 0.929 . S
O256 Co231 2.351 . S
O256 C259 1.244 . S
O257 Co231 2.155 . S
O257 C259 1.240 . S
O258 Co231 2.096 . S
O258 C239 1.247 . S
C259 O256 1.244 . S
C259 O257 1.240 . S
H260 C234 0.931 . S
H261 C243 0.931 . S
H262 C247 0.929 . S
H263 C249 0.930 . S
Co264 N268 2.157 . S
Co264 N274 2.121 1_556 S
Co264 N284 2.188 1_556 S
Co264 O289 2.320 1_556 S
Co264 O290 2.140 1_556 S
Co264 O291 2.122 . S
C265 N268 1.301 1_554 S
C265 N269 1.328 1_554 S
C265 H270 0.930 . S
C266 C267 1.333 . S
C266 N268 1.317 . S
C266 H271 0.930 . S
C267 C266 1.333 . S
C267 N269 1.350 . S
C267 H293 0.931 . S
N268 Co264 2.157 . S
N268 C265 1.301 1_556 S
N268 C266 1.317 . S
N269 C265 1.328 1_556 S
N269 C267 1.350 . S
H270 C265 0.930 . S
H271 C266 0.930 . S
C272 O273 1.224 . S
C272 O291 1.247 . S
O273 C272 1.224 . S
N274 Co264 2.121 1_554 S
N274 C275 1.355 . S
N274 C277 1.311 1_554 S
C275 N274 1.355 . S
C275 C276 1.363 . S
C275 H287 0.929 . S
C276 C275 1.363 . S
C276 N278 1.375 . S
C276 H294 0.931 . S
C277 N274 1.311 1_556 S
C277 N278 1.347 1_556 S
C277 H288 0.929 . S
N278 C276 1.375 . S
N278 C277 1.347 1_554 S
C279 C282 1.365 . S
C279 N284 1.328 . S
C279 H285 0.929 . S
C280 C281 1.362 1_556 S
C280 C283 1.378 . S
C280 H295 0.929 . S
C281 C280 1.362 1_554 S
C281 C282 1.366 . S
C282 C279 1.365 . S
C282 C281 1.366 . S
C282 H296 0.930 . S
C283 C280 1.378 . S
C283 N284 1.315 1_556 S
C283 H286 0.930 . S
N284 Co264 2.188 1_554 S
N284 C279 1.328 . S
N284 C283 1.315 1_554 S
H285 C279 0.929 . S
H286 C283 0.930 . S
H287 C275 0.929 . S
H288 C277 0.929 . S
O289 Co264 2.320 1_554 S
O289 C292 1.244 . S
O290 Co264 2.140 1_554 S
O290 C292 1.240 . S
O291 Co264 2.122 . S
O291 C272 1.247 . S
C292 O289 1.244 . S
C292 O290 1.240 . S
H293 C267 0.931 . S
H294 C276 0.931 . S
H295 C280 0.929 . S
H296 C282 0.930 . S
Co297 N301 2.148 . S
Co297 N307 2.128 . S
Co297 N317 2.194 . S
Co297 O322 2.351 . S
Co297 O323 2.155 . S
Co297 O324 2.096 . S
C298 N301 1.301 . S
C298 N302 1.328 . S
C298 H303 0.930 . S
C299 C300 1.333 . S
C299 N301 1.317 . S
C299 H304 0.930 . S
C300 C299 1.333 . S
C300 N302 1.350 . S
C300 H326 0.931 . S
N301 Co297 2.148 . S
N301 C298 1.301 . S
N301 C299 1.317 . S
N302 C298 1.328 . S
N302 C300 1.350 . S
H303 C298 0.930 . S
H304 C299 0.930 . S
C305 O306 1.224 . S
C305 O324 1.247 . S
O306 C305 1.224 . S
N307 Co297 2.128 . S
N307 C308 1.355 . S
N307 C310 1.311 . S
C308 N307 1.355 . S
C308 C309 1.363 . S
C308 H320 0.929 . S
C309 C308 1.363 . S
C309 N311 1.375 . S
C309 H327 0.931 . S
C310 N307 1.311 . S
C310 N311 1.347 . S
C310 H321 0.929 . S
N311 C309 1.375 . S
N311 C310 1.347 . S
C312 C315 1.365 . S
C312 N317 1.328 . S
C312 H318 0.929 . S
C313 C314 1.362 . S
C313 C316 1.378 . S
C313 H328 0.929 . S
C314 C313 1.362 . S
C314 C315 1.366 . S
C315 C312 1.365 . S
C315 C314 1.366 . S
C315 H329 0.930 . S
C316 C313 1.378 . S
C316 N317 1.315 . S
C316 H319 0.930 . S
N317 Co297 2.194 . S
N317 C312 1.328 . S
N317 C316 1.315 . S
H318 C312 0.929 . S
H319 C316 0.930 . S
H320 C308 0.929 . S
H321 C310 0.929 . S
O322 Co297 2.351 . S
O322 C325 1.244 . S
O323 Co297 2.155 . S
O323 C325 1.240 . S
O324 Co297 2.096 . S
O324 C305 1.247 . S
C325 O322 1.244 . S
C325 O323 1.240 . S
H326 C300 0.931 . S
H327 C309 0.931 . S
H328 C313 0.929 . S
H329 C315 0.930 . S
Co330 N334 2.148 . S
Co330 N340 2.128 . S
Co330 N350 2.194 . S
Co330 O355 2.351 . S
Co330 O356 2.155 . S
Co330 O357 2.096 . S
C331 N334 1.301 . S
C331 N335 1.328 . S
C331 H336 0.930 . S
C332 C333 1.333 . S
C332 N334 1.317 . S
C332 H337 0.930 . S
C333 C332 1.333 . S
C333 N335 1.350 . S
C333 H359 0.931 . S
N334 Co330 2.148 . S
N334 C331 1.301 . S
N334 C332 1.317 . S
N335 C331 1.328 . S
N335 C333 1.350 . S
H336 C331 0.930 . S
H337 C332 0.930 . S
C338 O339 1.224 . S
C338 O357 1.247 . S
O339 C338 1.224 . S
N340 Co330 2.128 . S
N340 C341 1.355 . S
N340 C343 1.311 . S
C341 N340 1.355 . S
C341 C342 1.363 . S
C341 H353 0.929 . S
C342 C341 1.363 . S
C342 N344 1.375 . S
C342 H360 0.931 . S
C343 N340 1.311 . S
C343 N344 1.347 . S
C343 H354 0.929 . S
N344 C342 1.375 . S
N344 C343 1.347 . S
C345 C348 1.365 . S
C345 N350 1.328 . S
C345 H351 0.929 . S
C346 C347 1.362 . S
C346 C349 1.378 . S
C346 H361 0.929 . S
C347 C346 1.362 . S
C347 C348 1.366 . S
C348 C345 1.365 . S
C348 C347 1.366 . S
C348 H362 0.930 . S
C349 C346 1.378 . S
C349 N350 1.315 . S
C349 H352 0.930 . S
N350 Co330 2.194 . S
N350 C345 1.328 . S
N350 C349 1.315 . S
H351 C345 0.929 . S
H352 C349 0.930 . S
H353 C341 0.929 . S
H354 C343 0.929 . S
O355 Co330 2.351 . S
O355 C358 1.244 . S
O356 Co330 2.155 . S
O356 C358 1.240 . S
O357 Co330 2.096 . S
O357 C338 1.247 . S
C358 O355 1.244 . S
C358 O356 1.240 . S
H359 C333 0.931 . S
H360 C342 0.931 . S
H361 C346 0.929 . S
H362 C348 0.930 . S
Co363 N367 2.157 . S
Co363 N373 2.121 1_556 S
Co363 N383 2.188 1_556 S
Co363 O388 2.320 1_556 S
Co363 O389 2.140 1_556 S
Co363 O390 2.122 . S
C364 N367 1.301 1_554 S
C364 N368 1.328 1_554 S
C364 H369 0.930 . S
C365 C366 1.333 . S
C365 N367 1.317 . S
C365 H370 0.930 . S
C366 C365 1.333 . S
C366 N368 1.350 . S
C366 H392 0.931 . S
N367 Co363 2.157 . S
N367 C364 1.301 1_556 S
N367 C365 1.317 . S
N368 C364 1.328 1_556 S
N368 C366 1.350 . S
H369 C364 0.930 . S
H370 C365 0.930 . S
C371 O372 1.224 . S
C371 O390 1.247 . S
O372 C371 1.224 . S
N373 Co363 2.121 1_554 S
N373 C374 1.355 . S
N373 C376 1.311 1_554 S
C374 N373 1.355 . S
C374 C375 1.363 . S
C374 H386 0.929 . S
C375 C374 1.363 . S
C375 N377 1.375 . S
C375 H393 0.931 . S
C376 N373 1.311 1_556 S
C376 N377 1.347 1_556 S
C376 H387 0.929 . S
N377 C375 1.375 . S
N377 C376 1.347 1_554 S
C378 C381 1.365 . S
C378 N383 1.328 . S
C378 H384 0.929 . S
C379 C380 1.362 1_556 S
C379 C382 1.378 . S
C379 H394 0.929 . S
C380 C379 1.362 1_554 S
C380 C381 1.366 . S
C381 C378 1.365 . S
C381 C380 1.366 . S
C381 H395 0.930 . S
C382 C379 1.378 . S
C382 N383 1.315 1_556 S
C382 H385 0.930 . S
N383 Co363 2.188 1_554 S
N383 C378 1.328 . S
N383 C382 1.315 1_554 S
H384 C378 0.929 . S
H385 C382 0.930 . S
H386 C374 0.929 . S
H387 C376 0.929 . S
O388 Co363 2.320 1_554 S
O388 C391 1.244 . S
O389 Co363 2.140 1_554 S
O389 C391 1.240 . S
O390 Co363 2.122 . S
O390 C371 1.247 . S
C391 O388 1.244 . S
C391 O389 1.240 . S
H392 C366 0.931 . S
H393 C375 0.931 . S
H394 C379 0.929 . S
H395 C381 0.930 . S
H396 C414 0.951 . S
H397 C416 0.951 . S
H398 C418 0.950 . S
H399 C419 0.950 . S
H400 C421 0.950 . S
H401 C424 0.950 . S
H402 C425 0.950 . S
H403 C427 0.950 . S
H404 C428 0.950 . S
H405 C429 0.951 . S
H406 C431 0.951 . S
H407 C433 0.950 . S
H408 C434 0.950 . S
H409 C436 0.950 . S
H410 C439 0.950 . S
H411 C440 0.950 . S
H412 C442 0.950 . S
H413 C443 0.950 . S
C414 H396 0.951 . S
C414 C415 1.366 . S
C414 C416 1.388 . S
C415 C414 1.366 . S
C415 C419 1.385 . S
C416 H397 0.951 . S
C416 C414 1.388 . S
C416 C417 1.366 . S
C417 C416 1.366 . S
C417 C418 1.414 . S
C417 C420 1.499 . S
C418 H398 0.950 . S
C418 C417 1.414 . S
C418 C419 1.374 . S
C419 H399 0.950 . S
C419 C415 1.385 . S
C419 C418 1.374 . S
C420 C417 1.499 . S
C420 C421 1.373 . S
C420 C422 1.389 1_655 S
C421 H400 0.950 . S
C421 C420 1.373 . S
C421 C437 1.377 . S
C422 C420 1.389 1_455 S
C422 C423 1.524 . S
C422 C436 1.377 . S
C423 C422 1.524 . S
C423 C424 1.397 . S
C423 C428 1.363 . S
C424 H401 0.950 . S
C424 C423 1.397 . S
C424 C425 1.334 . S
C425 H402 0.950 . S
C425 C424 1.334 . S
C425 C426 1.287 . S
C426 C425 1.287 . S
C426 C427 1.524 . S
C426 H445 0.913 . S
C427 H403 0.950 . S
C427 C426 1.524 . S
C427 C428 1.415 . S
C428 H404 0.950 . S
C428 C423 1.363 . S
C428 C427 1.415 . S
C429 H405 0.951 . S
C429 C430 1.366 . S
C429 C431 1.388 . S
C430 C429 1.366 . S
C430 C434 1.385 . S
C431 H406 0.951 . S
C431 C429 1.388 . S
C431 C432 1.366 . S
C432 C431 1.366 . S
C432 C433 1.414 . S
C432 C435 1.499 . S
C433 H407 0.950 . S
C433 C432 1.414 . S
C433 C434 1.374 . S
C434 H408 0.950 . S
C434 C430 1.385 . S
C434 C433 1.374 . S
C435 C432 1.499 . S
C435 C436 1.373 . S
C435 C437 1.389 1_455 S
C436 H409 0.950 . S
C436 C422 1.377 . S
C436 C435 1.373 . S
C437 C421 1.377 . S
C437 C435 1.389 1_655 S
C437 C438 1.524 . S
C438 C437 1.524 . S
C438 C439 1.397 . S
C438 C443 1.363 . S
C439 H410 0.950 . S
C439 C438 1.397 . S
C439 C440 1.334 . S
C440 H411 0.950 . S
C440 C439 1.334 . S
C440 C441 1.287 . S
C441 C440 1.287 . S
C441 C442 1.524 . S
C441 H444 0.999 . S
C442 H412 0.950 . S
C442 C441 1.524 . S
C442 C443 1.415 . S
C443 H413 0.950 . S
C443 C438 1.363 . S
C443 C442 1.415 . S
H444 C441 0.999 . S
H445 C426 0.913 . S
H446 C464 0.951 . S
H447 C466 0.951 . S
H448 C468 0.950 . S
H449 C469 0.950 . S
H450 C471 0.950 . S
H451 C474 0.950 . S
H452 C475 0.950 . S
H453 C477 0.950 . S
H454 C478 0.950 1_565 S
H455 C479 0.951 . S
H456 C481 0.951 . S
H457 C483 0.950 . S
H458 C484 0.950 . S
H459 C486 0.950 . S
H460 C489 0.950 . S
H461 C490 0.950 . S
H462 C492 0.950 . S
H463 C493 0.950 1_545 S
C464 H446 0.951 . S
C464 C465 1.366 . S
C464 C466 1.388 . S
C465 C464 1.366 . S
C465 C469 1.385 . S
C466 H447 0.951 . S
C466 C464 1.388 . S
C466 C467 1.366 . S
C467 C466 1.366 . S
C467 C468 1.414 . S
C467 C470 1.499 . S
C468 H448 0.950 . S
C468 C467 1.414 . S
C468 C469 1.374 . S
C469 H449 0.950 . S
C469 C465 1.385 . S
C469 C468 1.374 . S
C470 C467 1.499 . S
C470 C471 1.373 . S
C470 C472 1.357 1_565 S
C471 H450 0.950 . S
C471 C470 1.373 . S
C471 C487 1.393 . S
C472 C470 1.357 1_545 S
C472 C473 1.544 . S
C472 C486 1.393 . S
C473 C472 1.544 . S
C473 C474 1.397 . S
C473 C478 1.363 . S
C474 H451 0.950 . S
C474 C473 1.397 . S
C474 C475 1.334 . S
C475 H452 0.950 . S
C475 C474 1.334 . S
C475 C476 1.287 . S
C476 C475 1.287 . S
C476 C477 1.524 . S
C476 H495 0.913 . S
C477 H453 0.950 . S
C477 C476 1.524 . S
C477 C478 1.415 . S
C478 H454 0.950 1_545 S
C478 C473 1.363 . S
C478 C477 1.415 . S
C479 H455 0.951 . S
C479 C480 1.366 . S
C479 C481 1.388 . S
C480 C479 1.366 . S
C480 C484 1.385 . S
C481 H456 0.951 . S
C481 C479 1.388 . S
C481 C482 1.366 . S
C482 C481 1.366 . S
C482 C483 1.414 . S
C482 C485 1.499 . S
C483 H457 0.950 . S
C483 C482 1.414 . S
C483 C484 1.374 . S
C484 H458 0.950 . S
C484 C480 1.385 . S
C484 C483 1.374 . S
C485 C482 1.499 . S
C485 C486 1.373 . S
C485 C487 1.357 1_545 S
C486 H459 0.950 . S
C486 C472 1.393 . S
C486 C485 1.373 . S
C487 C471 1.393 . S
C487 C485 1.357 1_565 S
C487 C488 1.544 . S
C488 C487 1.544 . S
C488 C489 1.397 . S
C488 C493 1.363 . S
C489 H460 0.950 . S
C489 C488 1.397 . S
C489 C490 1.334 . S
C490 H461 0.950 . S
C490 C489 1.334 . S
C490 C491 1.287 . S
C491 C490 1.287 . S
C491 C492 1.524 . S
C491 H494 0.999 . S
C492 H462 0.950 . S
C492 C491 1.524 . S
C492 C493 1.415 . S
C493 H463 0.950 1_565 S
C493 C488 1.363 . S
C493 C492 1.415 . S
H494 C491 0.999 . S
H495 C476 0.913 . S
H496 C514 0.951 . S
H497 C516 0.951 . S
H498 C518 0.950 . S
H499 C519 0.950 . S
H500 C521 0.950 . S
H501 C524 0.950 . S
H502 C525 0.950 . S
H503 C527 0.950 . S
H504 C528 0.950 . S
H505 C529 0.951 . S
H506 C531 0.951 . S
H507 C533 0.950 . S
H508 C534 0.950 . S
H509 C536 0.950 . S
H510 C539 0.950 . S
H511 C540 0.950 . S
H512 C542 0.950 . S
H513 C543 0.950 . S
C514 H496 0.951 . S
C514 C515 1.366 . S
C514 C516 1.388 . S
C515 C514 1.366 . S
C515 C519 1.385 . S
C516 H497 0.951 . S
C516 C514 1.388 . S
C516 C517 1.366 . S
C517 C516 1.366 . S
C517 C518 1.414 . S
C517 C520 1.499 . S
C518 H498 0.950 . S
C518 C517 1.414 . S
C518 C519 1.374 . S
C519 H499 0.950 . S
C519 C515 1.385 . S
C519 C518 1.374 . S
C520 C517 1.499 . S
C520 C521 1.373 . S
C520 C522 1.389 . S
C521 H500 0.950 . S
C521 C520 1.373 . S
C521 C537 1.377 . S
C522 C520 1.389 . S
C522 C523 1.524 . S
C522 C536 1.377 . S
C523 C522 1.524 . S
C523 C524 1.397 . S
C523 C528 1.363 . S
C524 H501 0.950 . S
C524 C523 1.397 . S
C524 C525 1.334 . S
C525 H502 0.950 . S
C525 C524 1.334 . S
C525 C526 1.287 . S
C526 C525 1.287 . S
C526 C527 1.524 . S
C526 H545 0.913 . S
C527 H503 0.950 . S
C527 C526 1.524 . S
C527 C528 1.415 . S
C528 H504 0.950 . S
C528 C523 1.363 . S
C528 C527 1.415 . S
C529 H505 0.951 . S
C529 C530 1.366 . S
C529 C531 1.388 . S
C530 C529 1.366 . S
C530 C534 1.385 . S
C531 H506 0.951 . S
C531 C529 1.388 . S
C531 C532 1.366 . S
C532 C531 1.366 . S
C532 C533 1.414 . S
C532 C535 1.499 . S
C533 H507 0.950 . S
C533 C532 1.414 . S
C533 C534 1.374 . S
C534 H508 0.950 . S
C534 C530 1.385 . S
C534 C533 1.374 . S
C535 C532 1.499 . S
C535 C536 1.373 . S
C535 C537 1.389 . S
C536 H509 0.950 . S
C536 C522 1.377 . S
C536 C535 1.373 . S
C537 C521 1.377 . S
C537 C535 1.389 . S
C537 C538 1.524 . S
C538 C537 1.524 . S
C538 C539 1.397 . S
C538 C543 1.363 . S
C539 H510 0.950 . S
C539 C538 1.397 . S
C539 C540 1.334 . S
C540 H511 0.950 . S
C540 C539 1.334 . S
C540 C541 1.287 . S
C541 C540 1.287 . S
C541 C542 1.524 . S
C541 H544 0.999 . S
C542 H512 0.950 . S
C542 C541 1.524 . S
C542 C543 1.415 . S
C543 H513 0.950 . S
C543 C538 1.363 . S
C543 C542 1.415 . S
H544 C541 0.999 . S
H545 C526 0.913 . S
H546 C564 0.951 . S
H547 C566 0.951 . S
H548 C568 0.950 . S
H549 C569 0.950 . S
H550 C571 0.950 . S
H551 C574 0.950 . S
H552 C575 0.950 . S
H553 C577 0.950 . S
H554 C578 0.950 . S
H555 C579 0.951 . S
H556 C581 0.951 . S
H557 C583 0.950 . S
H558 C584 0.950 . S
H559 C586 0.950 . S
H560 C589 0.950 . S
H561 C590 0.950 . S
H562 C592 0.950 . S
H563 C593 0.950 . S
C564 H546 0.951 . S
C564 C565 1.366 . S
C564 C566 1.388 . S
C565 C564 1.366 . S
C565 C569 1.385 . S
C566 H547 0.951 . S
C566 C564 1.388 . S
C566 C567 1.366 . S
C567 C566 1.366 . S
C567 C568 1.414 . S
C567 C570 1.499 . S
C568 H548 0.950 . S
C568 C567 1.414 . S
C568 C569 1.374 . S
C569 H549 0.950 . S
C569 C565 1.385 . S
C569 C568 1.374 . S
C570 C567 1.499 . S
C570 C571 1.373 1_455 S
C570 C572 1.389 . S
C571 H550 0.950 . S
C571 C570 1.373 1_655 S
C571 C587 1.377 . S
C572 C570 1.389 . S
C572 C573 1.524 . S
C572 C586 1.377 . S
C573 C572 1.524 . S
C573 C574 1.397 . S
C573 C578 1.363 . S
C574 H551 0.950 . S
C574 C573 1.397 . S
C574 C575 1.334 . S
C575 H552 0.950 . S
C575 C574 1.334 . S
C575 C576 1.287 . S
C576 C575 1.287 . S
C576 C577 1.524 . S
C576 H595 0.913 . S
C577 H553 0.950 . S
C577 C576 1.524 . S
C577 C578 1.415 . S
C578 H554 0.950 . S
C578 C573 1.363 . S
C578 C577 1.415 . S
C579 H555 0.951 . S
C579 C580 1.366 . S
C579 C581 1.388 . S
C580 C579 1.366 . S
C580 C584 1.385 . S
C581 H556 0.951 . S
C581 C579 1.388 . S
C581 C582 1.366 . S
C582 C581 1.366 . S
C582 C583 1.414 . S
C582 C585 1.499 . S
C583 H557 0.950 . S
C583 C582 1.414 . S
C583 C584 1.374 . S
C584 H558 0.950 . S
C584 C580 1.385 . S
C584 C583 1.374 . S
C585 C582 1.499 . S
C585 C586 1.373 1_655 S
C585 C587 1.389 . S
C586 H559 0.950 . S
C586 C572 1.377 . S
C586 C585 1.373 1_455 S
C587 C571 1.377 . S
C587 C585 1.389 . S
C587 C588 1.524 . S
C588 C587 1.524 . S
C588 C589 1.397 . S
C588 C593 1.363 . S
C589 H560 0.950 . S
C589 C588 1.397 . S
C589 C590 1.334 . S
C590 H561 0.950 . S
C590 C589 1.334 . S
C590 C591 1.287 . S
C591 C590 1.287 . S
C591 C592 1.524 . S
C591 H594 0.999 . S
C592 H562 0.950 . S
C592 C591 1.524 . S
C592 C593 1.415 . S
C593 H563 0.950 . S
C593 C588 1.363 . S
C593 C592 1.415 . S
H594 C591 0.999 . S
H595 C576 0.913 . S
H596 C614 0.951 . S
H597 C616 0.951 . S
H598 C618 0.950 . S
H599 C619 0.950 . S
H600 C621 0.950 . S
H601 C624 0.950 . S
H602 C625 0.950 . S
H603 C627 0.950 . S
H604 C628 0.950 . S
H605 C629 0.951 . S
H606 C631 0.951 . S
H607 C633 0.950 . S
H608 C634 0.950 . S
H609 C636 0.950 . S
H610 C639 0.950 . S
H611 C640 0.950 . S
H612 C642 0.950 . S
H613 C643 0.950 . S
C614 H596 0.951 . S
C614 C615 1.366 . S
C614 C616 1.388 . S
C615 C614 1.366 . S
C615 C619 1.385 . S
C616 H597 0.951 . S
C616 C614 1.388 . S
C616 C617 1.366 . S
C617 C616 1.366 . S
C617 C618 1.414 . S
C617 C620 1.499 . S
C618 H598 0.950 . S
C618 C617 1.414 . S
C618 C619 1.374 . S
C619 H599 0.950 . S
C619 C615 1.385 . S
C619 C618 1.374 . S
C620 C617 1.499 . S
C620 C621 1.373 . S
C620 C622 1.389 . S
C621 H600 0.950 . S
C621 C620 1.373 . S
C621 C637 1.377 1_545 S
C622 C620 1.389 . S
C622 C623 1.524 . S
C622 C636 1.377 1_545 S
C623 C622 1.524 . S
C623 C624 1.397 . S
C623 C628 1.363 . S
C624 H601 0.950 . S
C624 C623 1.397 . S
C624 C625 1.334 . S
C625 H602 0.950 . S
C625 C624 1.334 . S
C625 C626 1.287 . S
C626 C625 1.287 . S
C626 C627 1.524 . S
C626 H645 0.913 . S
C627 H603 0.950 . S
C627 C626 1.524 . S
C627 C628 1.415 . S
C628 H604 0.950 . S
C628 C623 1.363 . S
C628 C627 1.415 . S
C629 H605 0.951 . S
C629 C630 1.366 . S
C629 C631 1.388 . S
C630 C629 1.366 . S
C630 C634 1.385 . S
C631 H606 0.951 . S
C631 C629 1.388 . S
C631 C632 1.366 . S
C632 C631 1.366 . S
C632 C633 1.414 . S
C632 C635 1.499 . S
C633 H607 0.950 . S
C633 C632 1.414 . S
C633 C634 1.374 . S
C634 H608 0.950 . S
C634 C630 1.385 . S
C634 C633 1.374 . S
C635 C632 1.499 . S
C635 C636 1.373 . S
C635 C637 1.389 . S
C636 H609 0.950 . S
C636 C622 1.377 1_565 S
C636 C635 1.373 . S
C637 C621 1.377 1_565 S
C637 C635 1.389 . S
C637 C638 1.524 . S
C638 C637 1.524 . S
C638 C639 1.397 . S
C638 C643 1.363 . S
C639 H610 0.950 . S
C639 C638 1.397 . S
C639 C640 1.334 . S
C640 H611 0.950 . S
C640 C639 1.334 . S
C640 C641 1.287 . S
C641 C640 1.287 . S
C641 C642 1.524 . S
C641 H644 0.999 . S
C642 H612 0.950 . S
C642 C641 1.524 . S
C642 C643 1.415 . S
C643 H613 0.950 . S
C643 C638 1.363 . S
C643 C642 1.415 . S
H644 C641 0.999 . S
H645 C626 0.913 . S
H646 C664 0.951 . S
H647 C666 0.951 . S
H648 C668 0.950 . S
H649 C669 0.950 . S
H650 C671 0.950 . S
H651 C674 0.950 . S
H652 C675 0.950 . S
H653 C677 0.950 . S
H654 C678 0.950 . S
H655 C679 0.951 . S
H656 C681 0.951 . S
H657 C683 0.950 . S
H658 C684 0.950 . S
H659 C686 0.950 . S
H660 C689 0.950 . S
H661 C690 0.950 . S
H662 C692 0.950 . S
H663 C693 0.950 . S
C664 H646 0.951 . S
C664 C665 1.366 . S
C664 C666 1.388 . S
C665 C664 1.366 . S
C665 C669 1.385 . S
C666 H647 0.951 . S
C666 C664 1.388 . S
C666 C667 1.366 . S
C667 C666 1.366 . S
C667 C668 1.414 . S
C667 C670 1.499 . S
C668 H648 0.950 . S
C668 C667 1.414 . S
C668 C669 1.374 . S
C669 H649 0.950 . S
C669 C665 1.385 . S
C669 C668 1.374 . S
C670 C667 1.499 . S
C670 C671 1.373 . S
C670 C672 1.389 . S
C671 H650 0.950 . S
C671 C670 1.373 . S
C671 C687 1.377 . S
C672 C670 1.389 . S
C672 C673 1.524 . S
C672 C686 1.377 . S
C673 C672 1.524 . S
C673 C674 1.397 . S
C673 C678 1.363 . S
C674 H651 0.950 . S
C674 C673 1.397 . S
C674 C675 1.334 . S
C675 H652 0.950 . S
C675 C674 1.334 . S
C675 C676 1.287 . S
C676 C675 1.287 . S
C676 C677 1.524 . S
C676 H695 0.913 . S
C677 H653 0.950 . S
C677 C676 1.524 . S
C677 C678 1.415 . S
C678 H654 0.950 . S
C678 C673 1.363 . S
C678 C677 1.415 . S
C679 H655 0.951 . S
C679 C680 1.366 . S
C679 C681 1.388 . S
C680 C679 1.366 . S
C680 C684 1.385 . S
C681 H656 0.951 . S
C681 C679 1.388 . S
C681 C682 1.366 . S
C682 C681 1.366 . S
C682 C683 1.414 . S
C682 C685 1.499 . S
C683 H657 0.950 . S
C683 C682 1.414 . S
C683 C684 1.374 . S
C684 H658 0.950 . S
C684 C680 1.385 . S
C684 C683 1.374 . S
C685 C682 1.499 . S
C685 C686 1.373 . S
C685 C687 1.389 . S
C686 H659 0.950 . S
C686 C672 1.377 . S
C686 C685 1.373 . S
C687 C671 1.377 . S
C687 C685 1.389 . S
C687 C688 1.524 . S
C688 C687 1.524 . S
C688 C689 1.397 . S
C688 C693 1.363 . S
C689 H660 0.950 . S
C689 C688 1.397 . S
C689 C690 1.334 . S
C690 H661 0.950 . S
C690 C689 1.334 . S
C690 C691 1.287 . S
C691 C690 1.287 . S
C691 C692 1.524 . S
C691 H694 0.999 . S
C692 H662 0.950 . S
C692 C691 1.524 . S
C692 C693 1.415 . S
C693 H663 0.950 . S
C693 C688 1.363 . S
C693 C692 1.415 . S
H694 C691 0.999 . S
H695 C676 0.913 . S
H696 C714 0.951 . S
H697 C716 0.951 . S
H698 C718 0.950 . S
H699 C719 0.950 . S
H700 C721 0.950 . S
H701 C724 0.950 . S
H702 C725 0.950 . S
H703 C727 0.950 . S
H704 C728 0.950 . S
H705 C729 0.951 . S
H706 C731 0.951 . S
H707 C733 0.950 . S
H708 C734 0.950 . S
H709 C736 0.950 . S
H710 C739 0.950 . S
H711 C740 0.950 . S
H712 C742 0.950 . S
H713 C743 0.950 . S
C714 H696 0.951 . S
C714 C715 1.366 . S
C714 C716 1.388 . S
C715 C714 1.366 . S
C715 C719 1.385 . S
C716 H697 0.951 . S
C716 C714 1.388 . S
C716 C717 1.366 . S
C717 C716 1.366 . S
C717 C718 1.414 . S
C717 C720 1.499 . S
C718 H698 0.950 . S
C718 C717 1.414 . S
C718 C719 1.374 . S
C719 H699 0.950 . S
C719 C715 1.385 . S
C719 C718 1.374 . S
C720 C717 1.499 . S
C720 C721 1.373 . S
C720 C722 1.389 . S
C721 H700 0.950 . S
C721 C720 1.373 . S
C721 C737 1.377 . S
C722 C720 1.389 . S
C722 C723 1.524 . S
C722 C736 1.377 . S
C723 C722 1.524 . S
C723 C724 1.397 . S
C723 C728 1.363 . S
C724 H701 0.950 . S
C724 C723 1.397 . S
C724 C725 1.334 . S
C725 H702 0.950 . S
C725 C724 1.334 . S
C725 C726 1.287 . S
C726 C725 1.287 . S
C726 C727 1.524 . S
C726 H745 0.913 . S
C727 H703 0.950 . S
C727 C726 1.524 . S
C727 C728 1.415 . S
C728 H704 0.950 . S
C728 C723 1.363 . S
C728 C727 1.415 . S
C729 H705 0.951 . S
C729 C730 1.366 . S
C729 C731 1.388 . S
C730 C729 1.366 . S
C730 C734 1.385 . S
C731 H706 0.951 . S
C731 C729 1.388 . S
C731 C732 1.366 . S
C732 C731 1.366 . S
C732 C733 1.414 . S
C732 C735 1.499 . S
C733 H707 0.950 . S
C733 C732 1.414 . S
C733 C734 1.374 . S
C734 H708 0.950 . S
C734 C730 1.385 . S
C734 C733 1.374 . S
C735 C732 1.499 . S
C735 C736 1.373 . S
C735 C737 1.389 . S
C736 H709 0.950 . S
C736 C722 1.377 . S
C736 C735 1.373 . S
C737 C721 1.377 . S
C737 C735 1.389 . S
C737 C738 1.524 . S
C738 C737 1.524 . S
C738 C739 1.397 . S
C738 C743 1.363 . S
C739 H710 0.950 . S
C739 C738 1.397 . S
C739 C740 1.334 . S
C740 H711 0.950 . S
C740 C739 1.334 . S
C740 C741 1.287 . S
C741 C740 1.287 . S
C741 C742 1.524 . S
C741 H744 0.999 . S
C742 H712 0.950 . S
C742 C741 1.524 . S
C742 C743 1.415 . S
C743 H713 0.950 . S
C743 C738 1.363 . S
C743 C742 1.415 . S
H744 C741 0.999 . S
H745 C726 0.913 . S
H746 C764 0.951 . S
H747 C766 0.951 . S
H748 C768 0.950 . S
H749 C769 0.950 . S
H750 C771 0.950 . S
H751 C774 0.950 . S
H752 C775 0.950 . S
H753 C777 0.950 . S
H754 C778 0.950 . S
H755 C779 0.951 . S
H756 C781 0.951 . S
H757 C783 0.950 . S
H758 C784 0.950 . S
H759 C786 0.950 . S
H760 C789 0.950 . S
H761 C790 0.950 . S
H762 C792 0.950 . S
H763 C793 0.950 . S
C764 H746 0.951 . S
C764 C765 1.366 . S
C764 C766 1.388 . S
C765 C764 1.366 . S
C765 C769 1.385 . S
C766 H747 0.951 . S
C766 C764 1.388 . S
C766 C767 1.366 . S
C767 C766 1.366 . S
C767 C768 1.414 . S
C767 C770 1.499 . S
C768 H748 0.950 . S
C768 C767 1.414 . S
C768 C769 1.374 . S
C769 H749 0.950 . S
C769 C765 1.385 . S
C769 C768 1.374 . S
C770 C767 1.499 . S
C770 C771 1.373 . S
C770 C772 1.389 . S
C771 H750 0.950 . S
C771 C770 1.373 . S
C771 C787 1.377 . S
C772 C770 1.389 . S
C772 C773 1.524 . S
C772 C786 1.377 . S
C773 C772 1.524 . S
C773 C774 1.397 . S
C773 C778 1.363 . S
C774 H751 0.950 . S
C774 C773 1.397 . S
C774 C775 1.334 . S
C775 H752 0.950 . S
C775 C774 1.334 . S
C775 C776 1.287 . S
C776 C775 1.287 . S
C776 C777 1.524 . S
C776 H795 0.913 . S
C777 H753 0.950 . S
C777 C776 1.524 . S
C777 C778 1.415 . S
C778 H754 0.950 . S
C778 C773 1.363 . S
C778 C777 1.415 . S
C779 H755 0.951 . S
C779 C780 1.366 . S
C779 C781 1.388 . S
C780 C779 1.366 . S
C780 C784 1.385 . S
C781 H756 0.951 . S
C781 C779 1.388 . S
C781 C782 1.366 . S
C782 C781 1.366 . S
C782 C783 1.414 . S
C782 C785 1.499 . S
C783 H757 0.950 . S
C783 C782 1.414 . S
C783 C784 1.374 . S
C784 H758 0.950 . S
C784 C780 1.385 . S
C784 C783 1.374 . S
C785 C782 1.499 . S
C785 C786 1.373 . S
C785 C787 1.389 . S
C786 H759 0.950 . S
C786 C772 1.377 . S
C786 C785 1.373 . S
C787 C771 1.377 . S
C787 C785 1.389 . S
C787 C788 1.524 . S
C788 C787 1.524 . S
C788 C789 1.397 . S
C788 C793 1.363 . S
C789 H760 0.950 . S
C789 C788 1.397 . S
C789 C790 1.334 . S
C790 H761 0.950 . S
C790 C789 1.334 . S
C790 C791 1.287 . S
C791 C790 1.287 . S
C791 C792 1.524 . S
C791 H794 0.999 . S
C792 H762 0.950 . S
C792 C791 1.524 . S
C792 C793 1.415 . S
C793 H763 0.950 . S
C793 C788 1.363 . S
C793 C792 1.415 . S
H794 C791 0.999 . S
H795 C776 0.913 . S
H796 C814 0.951 . S
H797 C816 0.951 . S
H798 C818 0.950 . S
H799 C819 0.950 . S
H800 C821 0.950 . S
H801 C824 0.950 . S
H802 C825 0.950 . S
H803 C827 0.950 . S
H804 C828 0.950 . S
H805 C829 0.951 . S
H806 C831 0.951 . S
H807 C833 0.950 . S
H808 C834 0.950 . S
H809 C836 0.950 . S
H810 C839 0.950 . S
H811 C840 0.950 . S
H812 C842 0.950 . S
H813 C843 0.950 . S
C814 H796 0.951 . S
C814 C815 1.366 . S
C814 C816 1.388 . S
C815 C814 1.366 . S
C815 C819 1.385 . S
C816 H797 0.951 . S
C816 C814 1.388 . S
C816 C817 1.366 . S
C817 C816 1.366 . S
C817 C818 1.414 . S
C817 C820 1.499 . S
C818 H798 0.950 . S
C818 C817 1.414 . S
C818 C819 1.374 . S
C819 H799 0.950 . S
C819 C815 1.385 . S
C819 C818 1.374 . S
C820 C817 1.499 . S
C820 C821 1.373 . S
C820 C822 1.389 . S
C821 H800 0.950 . S
C821 C820 1.373 . S
C821 C837 1.377 . S
C822 C820 1.389 . S
C822 C823 1.524 . S
C822 C836 1.377 . S
C823 C822 1.524 . S
C823 C824 1.397 . S
C823 C828 1.363 . S
C824 H801 0.950 . S
C824 C823 1.397 . S
C824 C825 1.334 . S
C825 H802 0.950 . S
C825 C824 1.334 . S
C825 C826 1.287 . S
C826 C825 1.287 . S
C826 C827 1.524 . S
C826 H845 0.913 . S
C827 H803 0.950 . S
C827 C826 1.524 . S
C827 C828 1.415 . S
C828 H804 0.950 . S
C828 C823 1.363 . S
C828 C827 1.415 . S
C829 H805 0.951 . S
C829 C830 1.366 . S
C829 C831 1.388 . S
C830 C829 1.366 . S
C830 C834 1.385 . S
C831 H806 0.951 . S
C831 C829 1.388 . S
C831 C832 1.366 . S
C832 C831 1.366 . S
C832 C833 1.414 . S
C832 C835 1.499 . S
C833 H807 0.950 . S
C833 C832 1.414 . S
C833 C834 1.374 . S
C834 H808 0.950 . S
C834 C830 1.385 . S
C834 C833 1.374 . S
C835 C832 1.499 . S
C835 C836 1.373 . S
C835 C837 1.389 . S
C836 H809 0.950 . S
C836 C822 1.377 . S
C836 C835 1.373 . S
C837 C821 1.377 . S
C837 C835 1.389 . S
C837 C838 1.524 . S
C838 C837 1.524 . S
C838 C839 1.397 . S
C838 C843 1.363 . S
C839 H810 0.950 . S
C839 C838 1.397 . S
C839 C840 1.334 . S
C840 H811 0.950 . S
C840 C839 1.334 . S
C840 C841 1.287 . S
C841 C840 1.287 . S
C841 C842 1.524 . S
C841 H844 0.999 . S
C842 H812 0.950 . S
C842 C841 1.524 . S
C842 C843 1.415 . S
C843 H813 0.950 . S
C843 C838 1.363 . S
C843 C842 1.415 . S
H844 C841 0.999 . S
H845 C826 0.913 . S
H846 C864 0.951 . S
H847 C866 0.951 . S
H848 C868 0.950 . S
H849 C869 0.950 . S
H850 C871 0.950 . S
H851 C874 0.950 . S
H852 C875 0.950 . S
H853 C877 0.950 . S
H854 C878 0.950 . S
H855 C879 0.951 . S
H856 C881 0.951 . S
H857 C883 0.950 . S
H858 C884 0.950 . S
H859 C886 0.950 . S
H860 C889 0.950 . S
H861 C890 0.950 . S
H862 C892 0.950 . S
H863 C893 0.950 . S
C864 H846 0.951 . S
C864 C865 1.366 . S
C864 C866 1.388 . S
C865 C864 1.366 . S
C865 C869 1.385 . S
C866 H847 0.951 . S
C866 C864 1.388 . S
C866 C867 1.366 . S
C867 C866 1.366 . S
C867 C868 1.414 . S
C867 C870 1.499 . S
C868 H848 0.950 . S
C868 C867 1.414 . S
C868 C869 1.374 . S
C869 H849 0.950 . S
C869 C865 1.385 . S
C869 C868 1.374 . S
C870 C867 1.499 . S
C870 C871 1.373 . S
C870 C872 1.389 . S
C871 H850 0.950 . S
C871 C870 1.373 . S
C871 C887 1.377 . S
C872 C870 1.389 . S
C872 C873 1.524 . S
C872 C886 1.377 . S
C873 C872 1.524 . S
C873 C874 1.397 . S
C873 C878 1.363 . S
C874 H851 0.950 . S
C874 C873 1.397 . S
C874 C875 1.334 . S
C875 H852 0.950 . S
C875 C874 1.334 . S
C875 C876 1.287 . S
C876 C875 1.287 . S
C876 C877 1.524 . S
C876 H895 0.913 . S
C877 H853 0.950 . S
C877 C876 1.524 . S
C877 C878 1.415 . S
C878 H854 0.950 . S
C878 C873 1.363 . S
C878 C877 1.415 . S
C879 H855 0.951 . S
C879 C880 1.366 . S
C879 C881 1.388 . S
C880 C879 1.366 . S
C880 C884 1.385 . S
C881 H856 0.951 . S
C881 C879 1.388 . S
C881 C882 1.366 . S
C882 C881 1.366 . S
C882 C883 1.414 . S
C882 C885 1.499 . S
C883 H857 0.950 . S
C883 C882 1.414 . S
C883 C884 1.374 . S
C884 H858 0.950 . S
C884 C880 1.385 . S
C884 C883 1.374 . S
C885 C882 1.499 . S
C885 C886 1.373 . S
C885 C887 1.389 . S
C886 H859 0.950 . S
C886 C872 1.377 . S
C886 C885 1.373 . S
C887 C871 1.377 . S
C887 C885 1.389 . S
C887 C888 1.524 . S
C888 C887 1.524 . S
C888 C889 1.397 . S
C888 C893 1.363 . S
C889 H860 0.950 . S
C889 C888 1.397 . S
C889 C890 1.334 . S
C890 H861 0.950 . S
C890 C889 1.334 . S
C890 C891 1.287 . S
C891 C890 1.287 . S
C891 C892 1.524 . S
C891 H894 0.999 . S
C892 H862 0.950 . S
C892 C891 1.524 . S
C892 C893 1.415 . S
C893 H863 0.950 . S
C893 C888 1.363 . S
C893 C892 1.415 . S
H894 C891 0.999 . S
H895 C876 0.913 . S
H896 C914 0.951 . S
H897 C916 0.951 . S
H898 C918 0.950 . S
H899 C919 0.950 . S
H900 C921 0.950 . S
H901 C924 0.950 . S
H902 C925 0.950 . S
H903 C927 0.950 . S
H904 C928 0.950 . S
H905 C929 0.951 . S
H906 C931 0.951 . S
H907 C933 0.950 . S
H908 C934 0.950 . S
H909 C936 0.950 . S
H910 C939 0.950 . S
H911 C940 0.950 . S
H912 C942 0.950 . S
H913 C943 0.950 . S
C914 H896 0.951 . S
C914 C915 1.366 . S
C914 C916 1.388 . S
C915 C914 1.366 . S
C915 C919 1.385 . S
C916 H897 0.951 . S
C916 C914 1.388 . S
C916 C917 1.366 . S
C917 C916 1.366 . S
C917 C918 1.414 . S
C917 C920 1.499 . S
C918 H898 0.950 . S
C918 C917 1.414 . S
C918 C919 1.374 . S
C919 H899 0.950 . S
C919 C915 1.385 . S
C919 C918 1.374 . S
C920 C917 1.499 . S
C920 C921 1.373 . S
C920 C922 1.389 . S
C921 H900 0.950 . S
C921 C920 1.373 . S
C921 C937 1.377 . S
C922 C920 1.389 . S
C922 C923 1.524 . S
C922 C936 1.377 . S
C923 C922 1.524 . S
C923 C924 1.397 . S
C923 C928 1.363 . S
C924 H901 0.950 . S
C924 C923 1.397 . S
C924 C925 1.334 . S
C925 H902 0.950 . S
C925 C924 1.334 . S
C925 C926 1.287 . S
C926 C925 1.287 . S
C926 C927 1.524 . S
C926 H945 0.913 . S
C927 H903 0.950 . S
C927 C926 1.524 . S
C927 C928 1.415 . S
C928 H904 0.950 . S
C928 C923 1.363 . S
C928 C927 1.415 . S
C929 H905 0.951 . S
C929 C930 1.366 . S
C929 C931 1.388 . S
C930 C929 1.366 . S
C930 C934 1.385 . S
C931 H906 0.951 . S
C931 C929 1.388 . S
C931 C932 1.366 . S
C932 C931 1.366 . S
C932 C933 1.414 . S
C932 C935 1.499 . S
C933 H907 0.950 . S
C933 C932 1.414 . S
C933 C934 1.374 . S
C934 H908 0.950 . S
C934 C930 1.385 . S
C934 C933 1.374 . S
C935 C932 1.499 . S
C935 C936 1.373 . S
C935 C937 1.389 . S
C936 H909 0.950 . S
C936 C922 1.377 . S
C936 C935 1.373 . S
C937 C921 1.377 . S
C937 C935 1.389 . S
C937 C938 1.524 . S
C938 C937 1.524 . S
C938 C939 1.397 . S
C938 C943 1.363 . S
C939 H910 0.950 . S
C939 C938 1.397 . S
C939 C940 1.334 . S
C940 H911 0.950 . S
C940 C939 1.334 . S
C940 C941 1.287 . S
C941 C940 1.287 . S
C941 C942 1.524 . S
C941 H944 0.999 . S
C942 H912 0.950 . S
C942 C941 1.524 . S
C942 C943 1.415 . S
C943 H913 0.950 . S
C943 C938 1.363 . S
C943 C942 1.415 . S
H944 C941 0.999 . S
H945 C926 0.913 . S
H946 C964 0.951 . S
H947 C966 0.951 . S
H948 C968 0.950 . S
H949 C969 0.950 . S
H950 C971 0.950 . S
H951 C974 0.950 . S
H952 C975 0.950 . S
H953 C977 0.950 . S
H954 C978 0.950 . S
H955 C979 0.951 . S
H956 C981 0.951 . S
H957 C983 0.950 . S
H958 C984 0.950 . S
H959 C986 0.950 . S
H960 C989 0.950 . S
H961 C990 0.950 . S
H962 C992 0.950 . S
H963 C993 0.950 . S
C964 H946 0.951 . S
C964 C965 1.366 . S
C964 C966 1.388 . S
C965 C964 1.366 . S
C965 C969 1.385 . S
C966 H947 0.951 . S
C966 C964 1.388 . S
C966 C967 1.366 . S
C967 C966 1.366 . S
C967 C968 1.414 . S
C967 C970 1.499 . S
C968 H948 0.950 . S
C968 C967 1.414 . S
C968 C969 1.374 . S
C969 H949 0.950 . S
C969 C965 1.385 . S
C969 C968 1.374 . S
C970 C967 1.499 . S
C970 C971 1.373 . S
C970 C972 1.389 . S
C971 H950 0.950 . S
C971 C970 1.373 . S
C971 C987 1.377 . S
C972 C970 1.389 . S
C972 C973 1.524 . S
C972 C986 1.377 . S
C973 C972 1.524 . S
C973 C974 1.397 . S
C973 C978 1.363 . S
C974 H951 0.950 . S
C974 C973 1.397 . S
C974 C975 1.334 . S
C975 H952 0.950 . S
C975 C974 1.334 . S
C975 C976 1.287 . S
C976 C975 1.287 . S
C976 C977 1.524 . S
C976 H995 0.913 . S
C977 H953 0.950 . S
C977 C976 1.524 . S
C977 C978 1.415 . S
C978 H954 0.950 . S
C978 C973 1.363 . S
C978 C977 1.415 . S
C979 H955 0.951 . S
C979 C980 1.366 . S
C979 C981 1.388 . S
C980 C979 1.366 . S
C980 C984 1.385 . S
C981 H956 0.951 . S
C981 C979 1.388 . S
C981 C982 1.366 . S
C982 C981 1.366 . S
C982 C983 1.414 . S
C982 C985 1.499 . S
C983 H957 0.950 . S
C983 C982 1.414 . S
C983 C984 1.374 . S
C984 H958 0.950 . S
C984 C980 1.385 . S
C984 C983 1.374 . S
C985 C982 1.499 . S
C985 C986 1.373 . S
C985 C987 1.389 . S
C986 H959 0.950 . S
C986 C972 1.377 . S
C986 C985 1.373 . S
C987 C971 1.377 . S
C987 C985 1.389 . S
C987 C988 1.524 . S
C988 C987 1.524 . S
C988 C989 1.397 . S
C988 C993 1.363 . S
C989 H960 0.950 . S
C989 C988 1.397 . S
C989 C990 1.334 . S
C990 H961 0.950 . S
C990 C989 1.334 . S
C990 C991 1.287 . S
C991 C990 1.287 . S
C991 C992 1.524 . S
C991 H994 0.999 . S
C992 H962 0.950 . S
C992 C991 1.524 . S
C992 C993 1.415 . S
C993 H963 0.950 . S
C993 C988 1.363 . S
C993 C992 1.415 . S
H994 C991 0.999 . S
H995 C976 0.913 . S
H996 C1014 0.951 . S
H997 C1016 0.951 . S
H998 C1018 0.950 . S
H999 C1019 0.950 . S
H1000 C1021 0.950 . S
H1001 C1024 0.950 1_655 S
H1002 C1025 0.950 . S
H1003 C1027 0.950 . S
H1004 C1028 0.950 . S
H1005 C1029 0.951 . S
H1006 C1031 0.951 . S
H1007 C1033 0.950 . S
H1008 C1034 0.950 . S
H1009 C1036 0.950 . S
H1010 C1039 0.950 1_455 S
H1011 C1040 0.950 . S
H1012 C1042 0.950 . S
H1013 C1043 0.950 . S
C1014 H996 0.951 . S
C1014 C1015 1.366 . S
C1014 C1016 1.388 . S
C1015 C1014 1.366 . S
C1015 C1019 1.385 . S
C1016 H997 0.951 . S
C1016 C1014 1.388 . S
C1016 C1017 1.366 . S
C1017 C1016 1.366 . S
C1017 C1018 1.414 . S
C1017 C1020 1.499 . S
C1018 H998 0.950 . S
C1018 C1017 1.414 . S
C1018 C1019 1.374 . S
C1019 H999 0.950 . S
C1019 C1015 1.385 . S
C1019 C1018 1.374 . S
C1020 C1017 1.499 . S
C1020 C1021 1.373 . S
C1020 C1022 1.389 1_655 S
C1021 H1000 0.950 . S
C1021 C1020 1.373 . S
C1021 C1037 1.377 . S
C1022 C1020 1.389 1_455 S
C1022 C1023 1.524 . S
C1022 C1036 1.377 . S
C1023 C1022 1.524 . S
C1023 C1024 1.397 . S
C1023 C1028 1.363 . S
C1024 H1001 0.950 1_455 S
C1024 C1023 1.397 . S
C1024 C1025 1.334 . S
C1025 H1002 0.950 . S
C1025 C1024 1.334 . S
C1025 C1026 1.287 . S
C1026 C1025 1.287 . S
C1026 C1027 1.524 . S
C1026 H1045 0.913 . S
C1027 H1003 0.950 . S
C1027 C1026 1.524 . S
C1027 C1028 1.415 . S
C1028 H1004 0.950 . S
C1028 C1023 1.363 . S
C1028 C1027 1.415 . S
C1029 H1005 0.951 . S
C1029 C1030 1.366 . S
C1029 C1031 1.388 . S
C1030 C1029 1.366 . S
C1030 C1034 1.385 . S
C1031 H1006 0.951 . S
C1031 C1029 1.388 . S
C1031 C1032 1.366 . S
C1032 C1031 1.366 . S
C1032 C1033 1.414 . S
C1032 C1035 1.499 . S
C1033 H1007 0.950 . S
C1033 C1032 1.414 . S
C1033 C1034 1.374 . S
C1034 H1008 0.950 . S
C1034 C1030 1.385 . S
C1034 C1033 1.374 . S
C1035 C1032 1.499 . S
C1035 C1036 1.373 . S
C1035 C1037 1.389 1_455 S
C1036 H1009 0.950 . S
C1036 C1022 1.377 . S
C1036 C1035 1.373 . S
C1037 C1021 1.377 . S
C1037 C1035 1.389 1_655 S
C1037 C1038 1.524 . S
C1038 C1037 1.524 . S
C1038 C1039 1.397 . S
C1038 C1043 1.363 . S
C1039 H1010 0.950 1_655 S
C1039 C1038 1.397 . S
C1039 C1040 1.334 . S
C1040 H1011 0.950 . S
C1040 C1039 1.334 . S
C1040 C1041 1.287 . S
C1041 C1040 1.287 . S
C1041 C1042 1.524 . S
C1041 H1044 0.999 . S
C1042 H1012 0.950 . S
C1042 C1041 1.524 . S
C1042 C1043 1.415 . S
C1043 H1013 0.950 . S
C1043 C1038 1.363 . S
C1043 C1042 1.415 . S
H1044 C1041 0.999 . S
H1045 C1026 0.913 . S
H1046 C1064 0.951 . S
H1047 C1066 0.951 . S
H1048 C1068 0.950 . S
H1049 C1069 0.950 . S
H1050 C1071 0.950 . S
H1051 C1074 0.950 . S
H1052 C1075 0.950 . S
H1053 C1077 0.950 . S
H1054 C1078 0.950 . S
H1055 C1079 0.951 . S
H1056 C1081 0.951 . S
H1057 C1083 0.950 . S
H1058 C1084 0.950 . S
H1059 C1086 0.950 . S
H1060 C1089 0.950 . S
H1061 C1090 0.950 . S
H1062 C1092 0.950 . S
H1063 C1093 0.950 . S
C1064 H1046 0.951 . S
C1064 C1065 1.366 . S
C1064 C1066 1.388 . S
C1065 C1064 1.366 . S
C1065 C1069 1.385 . S
C1066 H1047 0.951 . S
C1066 C1064 1.388 . S
C1066 C1067 1.366 . S
C1067 C1066 1.366 . S
C1067 C1068 1.414 . S
C1067 C1070 1.499 . S
C1068 H1048 0.950 . S
C1068 C1067 1.414 . S
C1068 C1069 1.374 . S
C1069 H1049 0.950 . S
C1069 C1065 1.385 . S
C1069 C1068 1.374 . S
C1070 C1067 1.499 . S
C1070 C1071 1.373 . S
C1070 C1072 1.389 1_545 S
C1071 H1050 0.950 . S
C1071 C1070 1.373 . S
C1071 C1087 1.377 . S
C1072 C1070 1.389 1_565 S
C1072 C1073 1.524 . S
C1072 C1086 1.377 . S
C1073 C1072 1.524 . S
C1073 C1074 1.397 . S
C1073 C1078 1.363 . S
C1074 H1051 0.950 . S
C1074 C1073 1.397 . S
C1074 C1075 1.334 . S
C1075 H1052 0.950 . S
C1075 C1074 1.334 . S
C1075 C1076 1.287 . S
C1076 C1075 1.287 . S
C1076 C1077 1.524 . S
C1076 H1095 0.913 . S
C1077 H1053 0.950 . S
C1077 C1076 1.524 . S
C1077 C1078 1.415 . S
C1078 H1054 0.950 . S
C1078 C1073 1.363 . S
C1078 C1077 1.415 . S
C1079 H1055 0.951 . S
C1079 C1080 1.366 . S
C1079 C1081 1.388 . S
C1080 C1079 1.366 . S
C1080 C1084 1.385 . S
C1081 H1056 0.951 . S
C1081 C1079 1.388 . S
C1081 C1082 1.366 . S
C1082 C1081 1.366 . S
C1082 C1083 1.414 . S
C1082 C1085 1.499 . S
C1083 H1057 0.950 . S
C1083 C1082 1.414 . S
C1083 C1084 1.374 . S
C1084 H1058 0.950 . S
C1084 C1080 1.385 . S
C1084 C1083 1.374 . S
C1085 C1082 1.499 . S
C1085 C1086 1.373 . S
C1085 C1087 1.389 1_565 S
C1086 H1059 0.950 . S
C1086 C1072 1.377 . S
C1086 C1085 1.373 . S
C1087 C1071 1.377 . S
C1087 C1085 1.389 1_545 S
C1087 C1088 1.524 . S
C1088 C1087 1.524 . S
C1088 C1089 1.397 . S
C1088 C1093 1.363 . S
C1089 H1060 0.950 . S
C1089 C1088 1.397 . S
C1089 C1090 1.334 . S
C1090 H1061 0.950 . S
C1090 C1089 1.334 . S
C1090 C1091 1.287 . S
C1091 C1090 1.287 . S
C1091 C1092 1.524 . S
C1091 H1094 0.999 . S
C1092 H1062 0.950 . S
C1092 C1091 1.524 . S
C1092 C1093 1.415 . S
C1093 H1063 0.950 . S
C1093 C1088 1.363 . S
C1093 C1092 1.415 . S
H1094 C1091 0.999 . S
H1095 C1076 0.913 . S
H1096 C1114 0.951 . S
H1097 C1116 0.951 . S
H1098 C1118 0.950 . S
H1099 C1119 0.950 . S
H1100 C1121 0.950 . S
H1101 C1124 0.950 . S
H1102 C1125 0.950 . S
H1103 C1127 0.950 . S
H1104 C1128 0.950 . S
H1105 C1129 0.951 . S
H1106 C1131 0.951 . S
H1107 C1133 0.950 . S
H1108 C1134 0.950 . S
H1109 C1136 0.950 . S
H1110 C1139 0.950 . S
H1111 C1140 0.950 . S
H1112 C1142 0.950 . S
H1113 C1143 0.950 . S
C1114 H1096 0.951 . S
C1114 C1115 1.366 1_556 S
C1114 C1116 1.388 . S
C1115 C1114 1.366 1_554 S
C1115 C1119 1.385 . S
C1116 H1097 0.951 . S
C1116 C1114 1.388 . S
C1116 C1117 1.366 1_556 S
C1117 C1116 1.366 1_554 S
C1117 C1118 1.414 . S
C1117 C1120 1.499 . S
C1118 H1098 0.950 . S
C1118 C1117 1.414 . S
C1118 C1119 1.374 . S
C1119 H1099 0.950 . S
C1119 C1115 1.385 . S
C1119 C1118 1.374 . S
C1120 C1117 1.499 . S
C1120 C1121 1.373 . S
C1120 C1122 1.389 1_554 S
C1121 H1100 0.950 . S
C1121 C1120 1.373 . S
C1121 C1137 1.377 . S
C1122 C1120 1.389 1_556 S
C1122 C1123 1.524 . S
C1122 C1136 1.377 . S
C1123 C1122 1.524 . S
C1123 C1124 1.397 . S
C1123 C1128 1.363 . S
C1124 H1101 0.950 . S
C1124 C1123 1.397 . S
C1124 C1125 1.334 . S
C1125 H1102 0.950 . S
C1125 C1124 1.334 . S
C1125 C1126 1.287 . S
C1126 C1125 1.287 . S
C1126 C1127 1.524 . S
C1126 H1145 0.913 . S
C1127 H1103 0.950 . S
C1127 C1126 1.524 . S
C1127 C1128 1.415 . S
C1128 H1104 0.950 . S
C1128 C1123 1.363 . S
C1128 C1127 1.415 . S
C1129 H1105 0.951 . S
C1129 C1130 1.366 . S
C1129 C1131 1.388 . S
C1130 C1129 1.366 . S
C1130 C1134 1.385 1_554 S
C1131 H1106 0.951 . S
C1131 C1129 1.388 . S
C1131 C1132 1.366 . S
C1132 C1131 1.366 . S
C1132 C1133 1.414 1_554 S
C1132 C1135 1.499 . S
C1133 H1107 0.950 . S
C1133 C1132 1.414 1_556 S
C1133 C1134 1.374 . S
C1134 H1108 0.950 . S
C1134 C1130 1.385 1_556 S
C1134 C1133 1.374 . S
C1135 C1132 1.499 . S
C1135 C1136 1.373 1_554 S
C1135 C1137 1.389 . S
C1136 H1109 0.950 . S
C1136 C1122 1.377 . S
C1136 C1135 1.373 1_556 S
C1137 C1121 1.377 . S
C1137 C1135 1.389 . S
C1137 C1138 1.524 . S
C1138 C1137 1.524 . S
C1138 C1139 1.397 . S
C1138 C1143 1.363 . S
C1139 H1110 0.950 . S
C1139 C1138 1.397 . S
C1139 C1140 1.334 . S
C1140 H1111 0.950 . S
C1140 C1139 1.334 . S
C1140 C1141 1.287 . S
C1141 C1140 1.287 . S
C1141 C1142 1.524 . S
C1141 H1144 0.999 . S
C1142 H1112 0.950 . S
C1142 C1141 1.524 . S
C1142 C1143 1.415 . S
C1143 H1113 0.950 . S
C1143 C1138 1.363 . S
C1143 C1142 1.415 . S
H1144 C1141 0.999 . S
H1145 C1126 0.913 . S
H1146 C1164 0.951 . S
H1147 C1166 0.951 . S
H1148 C1168 0.950 . S
H1149 C1169 0.950 . S
H1150 C1171 0.950 . S
H1151 C1174 0.950 1_565 S
H1152 C1175 0.950 . S
H1153 C1177 0.950 . S
H1154 C1178 0.950 . S
H1155 C1179 0.951 . S
H1156 C1181 0.951 . S
H1157 C1183 0.950 . S
H1158 C1184 0.950 . S
H1159 C1186 0.950 . S
H1160 C1189 0.950 1_545 S
H1161 C1190 0.950 . S
H1162 C1192 0.950 . S
H1163 C1193 0.950 . S
C1164 H1146 0.951 . S
C1164 C1165 1.366 . S
C1164 C1166 1.388 . S
C1165 C1164 1.366 . S
C1165 C1169 1.385 . S
C1166 H1147 0.951 . S
C1166 C1164 1.388 . S
C1166 C1167 1.366 . S
C1167 C1166 1.366 . S
C1167 C1168 1.414 . S
C1167 C1170 1.499 . S
C1168 H1148 0.950 . S
C1168 C1167 1.414 . S
C1168 C1169 1.374 . S
C1169 H1149 0.950 . S
C1169 C1165 1.385 . S
C1169 C1168 1.374 . S
C1170 C1167 1.499 . S
C1170 C1171 1.373 . S
C1170 C1172 1.389 1_565 S
C1171 H1150 0.950 . S
C1171 C1170 1.373 . S
C1171 C1187 1.377 . S
C1172 C1170 1.389 1_545 S
C1172 C1173 1.524 . S
C1172 C1186 1.377 . S
C1173 C1172 1.524 . S
C1173 C1174 1.397 . S
C1173 C1178 1.363 . S
C1174 H1151 0.950 1_545 S
C1174 C1173 1.397 . S
C1174 C1175 1.334 . S
C1175 H1152 0.950 . S
C1175 C1174 1.334 . S
C1175 C1176 1.287 . S
C1176 C1175 1.287 . S
C1176 C1177 1.524 . S
C1176 H1195 0.913 . S
C1177 H1153 0.950 . S
C1177 C1176 1.524 . S
C1177 C1178 1.415 . S
C1178 H1154 0.950 . S
C1178 C1173 1.363 . S
C1178 C1177 1.415 . S
C1179 H1155 0.951 . S
C1179 C1180 1.366 . S
C1179 C1181 1.388 . S
C1180 C1179 1.366 . S
C1180 C1184 1.385 . S
C1181 H1156 0.951 . S
C1181 C1179 1.388 . S
C1181 C1182 1.366 . S
C1182 C1181 1.366 . S
C1182 C1183 1.414 . S
C1182 C1185 1.499 . S
C1183 H1157 0.950 . S
C1183 C1182 1.414 . S
C1183 C1184 1.374 . S
C1184 H1158 0.950 . S
C1184 C1180 1.385 . S
C1184 C1183 1.374 . S
C1185 C1182 1.499 . S
C1185 C1186 1.373 . S
C1185 C1187 1.389 1_545 S
C1186 H1159 0.950 . S
C1186 C1172 1.377 . S
C1186 C1185 1.373 . S
C1187 C1171 1.377 . S
C1187 C1185 1.389 1_565 S
C1187 C1188 1.524 . S
C1188 C1187 1.524 . S
C1188 C1189 1.397 . S
C1188 C1193 1.363 . S
C1189 H1160 0.950 1_565 S
C1189 C1188 1.397 . S
C1189 C1190 1.334 . S
C1190 H1161 0.950 . S
C1190 C1189 1.334 . S
C1190 C1191 1.287 . S
C1191 C1190 1.287 . S
C1191 C1192 1.524 . S
C1191 H1194 0.999 . S
C1192 H1162 0.950 . S
C1192 C1191 1.524 . S
C1192 C1193 1.415 . S
C1193 H1163 0.950 . S
C1193 C1188 1.363 . S
C1193 C1192 1.415 . S
H1194 C1191 0.999 . S
H1195 C1176 0.913 . S
H1196 C1214 0.951 . S
H1197 C1216 0.951 . S
H1198 C1218 0.950 . S
H1199 C1219 0.950 . S
H1200 C1221 0.950 . S
H1201 C1224 0.950 . S
H1202 C1225 0.950 . S
H1203 C1227 0.950 . S
H1204 C1228 0.950 . S
H1205 C1229 0.951 . S
H1206 C1231 0.951 . S
H1207 C1233 0.950 . S
H1208 C1234 0.950 . S
H1209 C1236 0.950 . S
H1210 C1239 0.950 . S
H1211 C1240 0.950 . S
H1212 C1242 0.950 . S
H1213 C1243 0.950 . S
C1214 H1196 0.951 . S
C1214 C1215 1.366 . S
C1214 C1216 1.388 . S
C1215 C1214 1.366 . S
C1215 C1219 1.385 . S
C1216 H1197 0.951 . S
C1216 C1214 1.388 . S
C1216 C1217 1.366 . S
C1217 C1216 1.366 . S
C1217 C1218 1.414 . S
C1217 C1220 1.499 . S
C1218 H1198 0.950 . S
C1218 C1217 1.414 . S
C1218 C1219 1.374 . S
C1219 H1199 0.950 . S
C1219 C1215 1.385 . S
C1219 C1218 1.374 . S
C1220 C1217 1.499 . S
C1220 C1221 1.373 . S
C1220 C1222 1.389 . S
C1221 H1200 0.950 . S
C1221 C1220 1.373 . S
C1221 C1237 1.377 . S
C1222 C1220 1.389 . S
C1222 C1223 1.524 . S
C1222 C1236 1.377 . S
C1223 C1222 1.524 . S
C1223 C1224 1.397 . S
C1223 C1228 1.363 . S
C1224 H1201 0.950 . S
C1224 C1223 1.397 . S
C1224 C1225 1.334 . S
C1225 H1202 0.950 . S
C1225 C1224 1.334 . S
C1225 C1226 1.287 . S
C1226 C1225 1.287 . S
C1226 C1227 1.524 . S
C1226 H1245 0.913 . S
C1227 H1203 0.950 . S
C1227 C1226 1.524 . S
C1227 C1228 1.415 . S
C1228 H1204 0.950 . S
C1228 C1223 1.363 . S
C1228 C1227 1.415 . S
C1229 H1205 0.951 . S
C1229 C1230 1.366 . S
C1229 C1231 1.388 . S
C1230 C1229 1.366 . S
C1230 C1234 1.385 . S
C1231 H1206 0.951 . S
C1231 C1229 1.388 . S
C1231 C1232 1.366 . S
C1232 C1231 1.366 . S
C1232 C1233 1.414 . S
C1232 C1235 1.499 . S
C1233 H1207 0.950 . S
C1233 C1232 1.414 . S
C1233 C1234 1.374 . S
C1234 H1208 0.950 . S
C1234 C1230 1.385 . S
C1234 C1233 1.374 . S
C1235 C1232 1.499 . S
C1235 C1236 1.373 . S
C1235 C1237 1.389 . S
C1236 H1209 0.950 . S
C1236 C1222 1.377 . S
C1236 C1235 1.373 . S
C1237 C1221 1.377 . S
C1237 C1235 1.389 . S
C1237 C1238 1.524 . S
C1238 C1237 1.524 . S
C1238 C1239 1.397 . S
C1238 C1243 1.363 . S
C1239 H1210 0.950 . S
C1239 C1238 1.397 . S
C1239 C1240 1.334 . S
C1240 H1211 0.950 . S
C1240 C1239 1.334 . S
C1240 C1241 1.287 . S
C1241 C1240 1.287 . S
C1241 C1242 1.524 . S
C1241 H1244 0.999 . S
C1242 H1212 0.950 . S
C1242 C1241 1.524 . S
C1242 C1243 1.415 . S
C1243 H1213 0.950 . S
C1243 C1238 1.363 . S
C1243 C1242 1.415 . S
H1244 C1241 0.999 . S
H1245 C1226 0.913 . S
H1246 C1264 0.951 . S
H1247 C1266 0.951 . S
H1248 C1268 0.950 . S
H1249 C1269 0.950 . S
H1250 C1271 0.950 . S
H1251 C1274 0.950 . S
H1252 C1275 0.950 . S
H1253 C1277 0.950 . S
H1254 C1278 0.950 . S
H1255 C1279 0.951 . S
H1256 C1281 0.951 . S
H1257 C1283 0.950 . S
H1258 C1284 0.950 . S
H1259 C1286 0.950 . S
H1260 C1289 0.950 . S
H1261 C1290 0.950 1_554 S
H1262 C1292 0.950 . S
H1263 C1293 0.950 . S
C1264 H1246 0.951 . S
C1264 C1265 1.366 1_554 S
C1264 C1266 1.388 . S
C1265 C1264 1.366 1_556 S
C1265 C1269 1.385 . S
C1266 H1247 0.951 . S
C1266 C1264 1.388 . S
C1266 C1267 1.366 1_554 S
C1267 C1266 1.366 1_556 S
C1267 C1268 1.414 . S
C1267 C1270 1.499 . S
C1268 H1248 0.950 . S
C1268 C1267 1.414 . S
C1268 C1269 1.374 . S
C1269 H1249 0.950 . S
C1269 C1265 1.385 . S
C1269 C1268 1.374 . S
C1270 C1267 1.499 . S
C1270 C1271 1.373 1_655 S
C1270 C1272 1.380 1_556 S
C1271 H1250 0.950 . S
C1271 C1270 1.373 1_455 S
C1271 C1287 1.377 . S
C1272 C1270 1.380 1_554 S
C1272 C1273 1.531 . S
C1272 C1286 1.379 . S
C1273 C1272 1.531 . S
C1273 C1274 1.397 1_554 S
C1273 C1278 1.363 . S
C1274 H1251 0.950 . S
C1274 C1273 1.397 1_556 S
C1274 C1275 1.334 . S
C1275 H1252 0.950 . S
C1275 C1274 1.334 . S
C1275 C1276 1.287 1_556 S
C1276 C1275 1.287 1_554 S
C1276 C1277 1.524 . S
C1276 H1295 0.913 . S
C1277 H1253 0.950 . S
C1277 C1276 1.524 . S
C1277 C1278 1.415 . S
C1278 H1254 0.950 . S
C1278 C1273 1.363 . S
C1278 C1277 1.415 . S
C1279 H1255 0.951 . S
C1279 C1280 1.366 . S
C1279 C1281 1.388 . S
C1280 C1279 1.366 . S
C1280 C1284 1.385 1_556 S
C1281 H1256 0.951 . S
C1281 C1279 1.388 . S
C1281 C1282 1.366 . S
C1282 C1281 1.366 . S
C1282 C1283 1.414 1_556 S
C1282 C1285 1.499 . S
C1283 H1257 0.950 . S
C1283 C1282 1.414 1_554 S
C1283 C1284 1.374 . S
C1284 H1258 0.950 . S
C1284 C1280 1.385 1_554 S
C1284 C1283 1.374 . S
C1285 C1282 1.499 . S
C1285 C1286 1.373 1_456 S
C1285 C1287 1.389 . S
C1286 H1259 0.950 . S
C1286 C1272 1.379 . S
C1286 C1285 1.373 1_654 S
C1287 C1271 1.377 . S
C1287 C1285 1.389 . S
C1287 C1288 1.524 . S
C1288 C1287 1.524 . S
C1288 C1289 1.397 1_556 S
C1288 C1293 1.363 . S
C1289 H1260 0.950 . S
C1289 C1288 1.397 1_554 S
C1289 C1290 1.334 1_554 S
C1290 H1261 0.950 1_556 S
C1290 C1289 1.334 1_556 S
C1290 C1291 1.287 . S
C1291 C1290 1.287 . S
C1291 C1292 1.524 . S
C1291 H1294 0.999 . S
C1292 H1262 0.950 . S
C1292 C1291 1.524 . S
C1292 C1293 1.415 . S
C1293 H1263 0.950 . S
C1293 C1288 1.363 . S
C1293 C1292 1.415 . S
H1294 C1291 0.999 . S
H1295 C1276 0.913 . S
H1296 C1314 0.951 . S
H1297 C1316 0.951 . S
H1298 C1318 0.950 . S
H1299 C1319 0.950 . S
H1300 C1321 0.950 . S
H1301 C1324 0.950 . S
H1302 C1325 0.950 . S
H1303 C1327 0.950 . S
H1304 C1328 0.950 . S
H1305 C1329 0.951 . S
H1306 C1331 0.951 . S
H1307 C1333 0.950 . S
H1308 C1334 0.950 . S
H1309 C1336 0.950 . S
H1310 C1339 0.950 . S
H1311 C1340 0.950 . S
H1312 C1342 0.950 . S
H1313 C1343 0.950 . S
C1314 H1296 0.951 . S
C1314 C1315 1.366 . S
C1314 C1316 1.388 . S
C1315 C1314 1.366 . S
C1315 C1319 1.385 . S
C1316 H1297 0.951 . S
C1316 C1314 1.388 . S
C1316 C1317 1.366 . S
C1317 C1316 1.366 . S
C1317 C1318 1.414 . S
C1317 C1320 1.499 . S
C1318 H1298 0.950 . S
C1318 C1317 1.414 . S
C1318 C1319 1.374 . S
C1319 H1299 0.950 . S
C1319 C1315 1.385 . S
C1319 C1318 1.374 . S
C1320 C1317 1.499 . S
C1320 C1321 1.373 . S
C1320 C1322 1.389 . S
C1321 H1300 0.950 . S
C1321 C1320 1.373 . S
C1321 C1337 1.377 . S
C1322 C1320 1.389 . S
C1322 C1323 1.524 . S
C1322 C1336 1.377 . S
C1323 C1322 1.524 . S
C1323 C1324 1.397 . S
C1323 C1328 1.363 . S
C1324 H1301 0.950 . S
C1324 C1323 1.397 . S
C1324 C1325 1.334 . S
C1325 H1302 0.950 . S
C1325 C1324 1.334 . S
C1325 C1326 1.287 . S
C1326 C1325 1.287 . S
C1326 C1327 1.524 . S
C1326 H1345 0.913 . S
C1327 H1303 0.950 . S
C1327 C1326 1.524 . S
C1327 C1328 1.415 . S
C1328 H1304 0.950 . S
C1328 C1323 1.363 . S
C1328 C1327 1.415 . S
C1329 H1305 0.951 . S
C1329 C1330 1.366 . S
C1329 C1331 1.388 . S
C1330 C1329 1.366 . S
C1330 C1334 1.385 . S
C1331 H1306 0.951 . S
C1331 C1329 1.388 . S
C1331 C1332 1.366 . S
C1332 C1331 1.366 . S
C1332 C1333 1.414 . S
C1332 C1335 1.499 . S
C1333 H1307 0.950 . S
C1333 C1332 1.414 . S
C1333 C1334 1.374 . S
C1334 H1308 0.950 . S
C1334 C1330 1.385 . S
C1334 C1333 1.374 . S
C1335 C1332 1.499 . S
C1335 C1336 1.373 . S
C1335 C1337 1.389 . S
C1336 H1309 0.950 . S
C1336 C1322 1.377 . S
C1336 C1335 1.373 . S
C1337 C1321 1.377 . S
C1337 C1335 1.389 . S
C1337 C1338 1.524 . S
C1338 C1337 1.524 . S
C1338 C1339 1.397 . S
C1338 C1343 1.363 . S
C1339 H1310 0.950 . S
C1339 C1338 1.397 . S
C1339 C1340 1.334 . S
C1340 H1311 0.950 . S
C1340 C1339 1.334 . S
C1340 C1341 1.287 . S
C1341 C1340 1.287 . S
C1341 C1342 1.524 . S
C1341 H1344 0.999 . S
C1342 H1312 0.950 . S
C1342 C1341 1.524 . S
C1342 C1343 1.415 . S
C1343 H1313 0.950 . S
C1343 C1338 1.363 . S
C1343 C1342 1.415 . S
H1344 C1341 0.999 . S
H1345 C1326 0.913 . S
H1346 C1364 0.951 . S
H1347 C1366 0.951 . S
H1348 C1368 0.950 . S
H1349 C1369 0.950 . S
H1350 C1371 0.950 . S
H1351 C1374 0.950 . S
H1352 C1375 0.950 . S
H1353 C1377 0.950 . S
H1354 C1378 0.950 . S
H1355 C1379 0.951 . S
H1356 C1381 0.951 . S
H1357 C1383 0.950 . S
H1358 C1384 0.950 . S
H1359 C1386 0.950 . S
H1360 C1389 0.950 . S
H1361 C1390 0.950 . S
H1362 C1392 0.950 . S
H1363 C1393 0.950 . S
C1364 H1346 0.951 . S
C1364 C1365 1.366 . S
C1364 C1366 1.388 . S
C1365 C1364 1.366 . S
C1365 C1369 1.385 . S
C1366 H1347 0.951 . S
C1366 C1364 1.388 . S
C1366 C1367 1.366 . S
C1367 C1366 1.366 . S
C1367 C1368 1.414 . S
C1367 C1370 1.499 . S
C1368 H1348 0.950 . S
C1368 C1367 1.414 . S
C1368 C1369 1.374 . S
C1369 H1349 0.950 . S
C1369 C1365 1.385 . S
C1369 C1368 1.374 . S
C1370 C1367 1.499 . S
C1370 C1371 1.373 . S
C1370 C1372 1.389 . S
C1371 H1350 0.950 . S
C1371 C1370 1.373 . S
C1371 C1387 1.377 1_655 S
C1372 C1370 1.389 . S
C1372 C1373 1.524 . S
C1372 C1386 1.377 1_655 S
C1373 C1372 1.524 . S
C1373 C1374 1.397 . S
C1373 C1378 1.363 . S
C1374 H1351 0.950 . S
C1374 C1373 1.397 . S
C1374 C1375 1.334 . S
C1375 H1352 0.950 . S
C1375 C1374 1.334 . S
C1375 C1376 1.287 . S
C1376 C1375 1.287 . S
C1376 C1377 1.524 . S
C1376 H1395 0.913 . S
C1377 H1353 0.950 . S
C1377 C1376 1.524 . S
C1377 C1378 1.415 . S
C1378 H1354 0.950 . S
C1378 C1373 1.363 . S
C1378 C1377 1.415 . S
C1379 H1355 0.951 . S
C1379 C1380 1.366 . S
C1379 C1381 1.388 . S
C1380 C1379 1.366 . S
C1380 C1384 1.385 . S
C1381 H1356 0.951 . S
C1381 C1379 1.388 . S
C1381 C1382 1.366 . S
C1382 C1381 1.366 . S
C1382 C1383 1.414 . S
C1382 C1385 1.499 . S
C1383 H1357 0.950 . S
C1383 C1382 1.414 . S
C1383 C1384 1.374 . S
C1384 H1358 0.950 . S
C1384 C1380 1.385 . S
C1384 C1383 1.374 . S
C1385 C1382 1.499 . S
C1385 C1386 1.373 . S
C1385 C1387 1.389 . S
C1386 H1359 0.950 . S
C1386 C1372 1.377 1_455 S
C1386 C1385 1.373 . S
C1387 C1371 1.377 1_455 S
C1387 C1385 1.389 . S
C1387 C1388 1.524 . S
C1388 C1387 1.524 . S
C1388 C1389 1.397 . S
C1388 C1393 1.363 . S
C1389 H1360 0.950 . S
C1389 C1388 1.397 . S
C1389 C1390 1.334 . S
C1390 H1361 0.950 . S
C1390 C1389 1.334 . S
C1390 C1391 1.287 . S
C1391 C1390 1.287 . S
C1391 C1392 1.524 . S
C1391 H1394 0.999 . S
C1392 H1362 0.950 . S
C1392 C1391 1.524 . S
C1392 C1393 1.415 . S
C1393 H1363 0.950 . S
C1393 C1388 1.363 . S
C1393 C1392 1.415 . S
H1394 C1391 0.999 . S
H1395 C1376 0.913 . S
H1396 C1414 0.951 . S
H1397 C1416 0.951 . S
H1398 C1418 0.950 . S
H1399 C1419 0.950 . S
H1400 C1421 0.950 . S
H1401 C1424 0.950 . S
H1402 C1425 0.950 . S
H1403 C1427 0.950 . S
H1404 C1428 0.950 . S
H1405 C1429 0.951 . S
H1406 C1431 0.951 . S
H1407 C1433 0.950 . S
H1408 C1434 0.950 . S
H1409 C1436 0.950 . S
H1410 C1439 0.950 . S
H1411 C1440 0.950 . S
H1412 C1442 0.950 . S
H1413 C1443 0.950 . S
C1414 H1396 0.951 . S
C1414 C1415 1.366 1_556 S
C1414 C1416 1.388 . S
C1415 C1414 1.366 1_554 S
C1415 C1419 1.385 . S
C1416 H1397 0.951 . S
C1416 C1414 1.388 . S
C1416 C1417 1.366 1_556 S
C1417 C1416 1.366 1_554 S
C1417 C1418 1.414 . S
C1417 C1420 1.499 . S
C1418 H1398 0.950 . S
C1418 C1417 1.414 . S
C1418 C1419 1.374 . S
C1419 H1399 0.950 . S
C1419 C1415 1.385 . S
C1419 C1418 1.374 . S
C1420 C1417 1.499 . S
C1420 C1421 1.373 1_554 S
C1420 C1422 1.389 . S
C1421 H1400 0.950 . S
C1421 C1420 1.373 1_556 S
C1421 C1437 1.377 1_545 S
C1422 C1420 1.389 . S
C1422 C1423 1.524 . S
C1422 C1436 1.377 1_545 S
C1423 C1422 1.524 . S
C1423 C1424 1.397 . S
C1423 C1428 1.363 1_554 S
C1424 H1401 0.950 . S
C1424 C1423 1.397 . S
C1424 C1425 1.334 . S
C1425 H1402 0.950 . S
C1425 C1424 1.334 . S
C1425 C1426 1.287 . S
C1426 C1425 1.287 . S
C1426 C1427 1.524 1_554 S
C1426 H1445 0.913 . S
C1427 H1403 0.950 . S
C1427 C1426 1.524 1_556 S
C1427 C1428 1.415 . S
C1428 H1404 0.950 . S
C1428 C1423 1.363 1_556 S
C1428 C1427 1.415 . S
C1429 H1405 0.951 . S
C1429 C1430 1.366 1_554 S
C1429 C1431 1.388 . S
C1430 C1429 1.366 1_556 S
C1430 C1434 1.385 . S
C1431 H1406 0.951 . S
C1431 C1429 1.388 . S
C1431 C1432 1.366 1_554 S
C1432 C1431 1.366 1_556 S
C1432 C1433 1.414 . S
C1432 C1435 1.499 . S
C1433 H1407 0.950 . S
C1433 C1432 1.414 . S
C1433 C1434 1.374 . S
C1434 H1408 0.950 . S
C1434 C1430 1.385 . S
C1434 C1433 1.374 . S
C1435 C1432 1.499 . S
C1435 C1436 1.372 1_556 S
C1435 C1437 1.389 . S
C1436 H1409 0.950 . S
C1436 C1422 1.377 1_565 S
C1436 C1435 1.372 1_554 S
C1437 C1421 1.377 1_565 S
C1437 C1435 1.389 . S
C1437 C1438 1.524 . S
C1438 C1437 1.524 . S
C1438 C1439 1.397 . S
C1438 C1443 1.363 1_556 S
C1439 H1410 0.950 . S
C1439 C1438 1.397 . S
C1439 C1440 1.334 . S
C1440 H1411 0.950 . S
C1440 C1439 1.334 . S
C1440 C1441 1.287 . S
C1441 C1440 1.287 . S
C1441 C1442 1.524 1_556 S
C1441 H1444 0.999 . S
C1442 H1412 0.950 . S
C1442 C1441 1.524 1_554 S
C1442 C1443 1.415 . S
C1443 H1413 0.950 . S
C1443 C1438 1.363 1_554 S
C1443 C1442 1.415 . S
H1444 C1441 0.999 . S
H1445 C1426 0.913 . S
H1446 C1464 0.951 . S
H1447 C1466 0.951 . S
H1448 C1468 0.950 . S
H1449 C1469 0.950 . S
H1450 C1471 0.950 . S
H1451 C1474 0.950 . S
H1452 C1475 0.950 . S
H1453 C1477 0.950 . S
H1454 C1478 0.950 . S
H1455 C1479 0.951 . S
H1456 C1481 0.951 . S
H1457 C1483 0.950 . S
H1458 C1484 0.950 . S
H1459 C1486 0.950 . S
H1460 C1489 0.950 . S
H1461 C1490 0.950 . S
H1462 C1492 0.950 . S
H1463 C1493 0.950 . S
C1464 H1446 0.951 . S
C1464 C1465 1.366 . S
C1464 C1466 1.388 . S
C1465 C1464 1.366 . S
C1465 C1469 1.385 . S
C1466 H1447 0.951 . S
C1466 C1464 1.388 . S
C1466 C1467 1.366 . S
C1467 C1466 1.366 . S
C1467 C1468 1.414 . S
C1467 C1470 1.499 . S
C1468 H1448 0.950 . S
C1468 C1467 1.414 . S
C1468 C1469 1.374 . S
C1469 H1449 0.950 . S
C1469 C1465 1.385 . S
C1469 C1468 1.374 . S
C1470 C1467 1.499 . S
C1470 C1471 1.373 . S
C1470 C1472 1.389 . S
C1471 H1450 0.950 . S
C1471 C1470 1.373 . S
C1471 C1487 1.377 . S
C1472 C1470 1.389 . S
C1472 C1473 1.524 . S
C1472 C1486 1.377 . S
C1473 C1472 1.524 . S
C1473 C1474 1.397 . S
C1473 C1478 1.363 . S
C1474 H1451 0.950 . S
C1474 C1473 1.397 . S
C1474 C1475 1.334 . S
C1475 H1452 0.950 . S
C1475 C1474 1.334 . S
C1475 C1476 1.287 . S
C1476 C1475 1.287 . S
C1476 C1477 1.524 . S
C1476 H1495 0.913 . S
C1477 H1453 0.950 . S
C1477 C1476 1.524 . S
C1477 C1478 1.415 . S
C1478 H1454 0.950 . S
C1478 C1473 1.363 . S
C1478 C1477 1.415 . S
C1479 H1455 0.951 . S
C1479 C1480 1.366 . S
C1479 C1481 1.388 . S
C1480 C1479 1.366 . S
C1480 C1484 1.385 . S
C1481 H1456 0.951 . S
C1481 C1479 1.388 . S
C1481 C1482 1.366 . S
C1482 C1481 1.366 . S
C1482 C1483 1.414 . S
C1482 C1485 1.499 . S
C1483 H1457 0.950 . S
C1483 C1482 1.414 . S
C1483 C1484 1.374 . S
C1484 H1458 0.950 . S
C1484 C1480 1.385 . S
C1484 C1483 1.374 . S
C1485 C1482 1.499 . S
C1485 C1486 1.373 . S
C1485 C1487 1.389 . S
C1486 H1459 0.950 . S
C1486 C1472 1.377 . S
C1486 C1485 1.373 . S
C1487 C1471 1.377 . S
C1487 C1485 1.389 . S
C1487 C1488 1.524 . S
C1488 C1487 1.524 . S
C1488 C1489 1.397 . S
C1488 C1493 1.363 . S
C1489 H1460 0.950 . S
C1489 C1488 1.397 . S
C1489 C1490 1.334 . S
C1490 H1461 0.950 . S
C1490 C1489 1.334 . S
C1490 C1491 1.287 . S
C1491 C1490 1.287 . S
C1491 C1492 1.524 . S
C1491 H1494 0.999 . S
C1492 H1462 0.950 . S
C1492 C1491 1.524 . S
C1492 C1493 1.415 . S
C1493 H1463 0.950 . S
C1493 C1488 1.363 . S
C1493 C1492 1.415 . S
H1494 C1491 0.999 . S
H1495 C1476 0.913 . S
H1496 C1514 0.951 . S
H1497 C1516 0.951 . S
H1498 C1518 0.950 . S
H1499 C1519 0.950 . S
H1500 C1521 0.950 . S
H1501 C1524 0.950 . S
H1502 C1525 0.950 . S
H1503 C1527 0.950 . S
H1504 C1528 0.950 . S
H1505 C1529 0.951 . S
H1506 C1531 0.951 . S
H1507 C1533 0.950 . S
H1508 C1534 0.950 . S
H1509 C1536 0.950 . S
H1510 C1539 0.950 . S
H1511 C1540 0.950 . S
H1512 C1542 0.950 . S
H1513 C1543 0.950 . S
C1514 H1496 0.951 . S
C1514 C1515 1.366 . S
C1514 C1516 1.388 . S
C1515 C1514 1.366 . S
C1515 C1519 1.385 . S
C1516 H1497 0.951 . S
C1516 C1514 1.388 . S
C1516 C1517 1.366 . S
C1517 C1516 1.366 . S
C1517 C1518 1.414 . S
C1517 C1520 1.499 . S
C1518 H1498 0.950 . S
C1518 C1517 1.414 . S
C1518 C1519 1.374 . S
C1519 H1499 0.950 . S
C1519 C1515 1.385 . S
C1519 C1518 1.374 . S
C1520 C1517 1.499 . S
C1520 C1521 1.373 . S
C1520 C1522 1.389 . S
C1521 H1500 0.950 . S
C1521 C1520 1.373 . S
C1521 C1537 1.377 1_455 S
C1522 C1520 1.389 . S
C1522 C1523 1.524 . S
C1522 C1536 1.377 1_455 S
C1523 C1522 1.524 . S
C1523 C1524 1.397 . S
C1523 C1528 1.363 . S
C1524 H1501 0.950 . S
C1524 C1523 1.397 . S
C1524 C1525 1.334 . S
C1525 H1502 0.950 . S
C1525 C1524 1.334 . S
C1525 C1526 1.287 . S
C1526 C1525 1.287 . S
C1526 C1527 1.524 . S
C1526 H1545 0.913 . S
C1527 H1503 0.950 . S
C1527 C1526 1.524 . S
C1527 C1528 1.415 . S
C1528 H1504 0.950 . S
C1528 C1523 1.363 . S
C1528 C1527 1.415 . S
C1529 H1505 0.951 . S
C1529 C1530 1.366 . S
C1529 C1531 1.388 . S
C1530 C1529 1.366 . S
C1530 C1534 1.385 . S
C1531 H1506 0.951 . S
C1531 C1529 1.388 . S
C1531 C1532 1.366 . S
C1532 C1531 1.366 . S
C1532 C1533 1.414 . S
C1532 C1535 1.499 . S
C1533 H1507 0.950 . S
C1533 C1532 1.414 . S
C1533 C1534 1.374 . S
C1534 H1508 0.950 . S
C1534 C1530 1.385 . S
C1534 C1533 1.374 . S
C1535 C1532 1.499 . S
C1535 C1536 1.373 . S
C1535 C1537 1.389 . S
C1536 H1509 0.950 . S
C1536 C1522 1.377 1_655 S
C1536 C1535 1.373 . S
C1537 C1521 1.377 1_655 S
C1537 C1535 1.389 . S
C1537 C1538 1.524 . S
C1538 C1537 1.524 . S
C1538 C1539 1.397 . S
C1538 C1543 1.363 . S
C1539 H1510 0.950 . S
C1539 C1538 1.397 . S
C1539 C1540 1.334 . S
C1540 H1511 0.950 . S
C1540 C1539 1.334 . S
C1540 C1541 1.287 . S
C1541 C1540 1.287 . S
C1541 C1542 1.524 . S
C1541 H1544 0.999 . S
C1542 H1512 0.950 . S
C1542 C1541 1.524 . S
C1542 C1543 1.415 . S
C1543 H1513 0.950 . S
C1543 C1538 1.363 . S
C1543 C1542 1.415 . S
H1544 C1541 0.999 . S
H1545 C1526 0.913 . S
H1546 C1564 0.951 . S
H1547 C1566 0.951 . S
H1548 C1568 0.950 . S
H1549 C1569 0.950 . S
H1550 C1571 0.950 . S
H1551 C1574 0.950 . S
H1552 C1575 0.950 . S
H1553 C1577 0.950 . S
H1554 C1578 0.950 . S
H1555 C1579 0.951 . S
H1556 C1581 0.951 . S
H1557 C1583 0.950 . S
H1558 C1584 0.950 . S
H1559 C1586 0.950 . S
H1560 C1589 0.950 . S
H1561 C1590 0.950 . S
H1562 C1592 0.950 . S
H1563 C1593 0.950 . S
C1564 H1546 0.951 . S
C1564 C1565 1.366 . S
C1564 C1566 1.388 . S
C1565 C1564 1.366 . S
C1565 C1569 1.385 1_556 S
C1566 H1547 0.951 . S
C1566 C1564 1.388 . S
C1566 C1567 1.366 1_556 S
C1567 C1566 1.366 1_554 S
C1567 C1568 1.413 . S
C1567 C1570 1.499 . S
C1568 H1548 0.950 . S
C1568 C1567 1.413 . S
C1568 C1569 1.374 . S
C1569 H1549 0.950 . S
C1569 C1565 1.385 1_554 S
C1569 C1568 1.374 . S
C1570 C1567 1.499 . S
C1570 C1571 1.373 . S
C1570 C1572 1.389 1_554 S
C1571 H1550 0.950 . S
C1571 C1570 1.373 . S
C1571 C1587 1.377 1_545 S
C1572 C1570 1.389 1_556 S
C1572 C1573 1.524 . S
C1572 C1586 1.377 1_545 S
C1573 C1572 1.524 . S
C1573 C1574 1.397 1_556 S
C1573 C1578 1.363 . S
C1574 H1551 0.950 . S
C1574 C1573 1.397 1_554 S
C1574 C1575 1.334 . S
C1575 H1552 0.950 . S
C1575 C1574 1.334 . S
C1575 C1576 1.287 1_554 S
C1576 C1575 1.287 1_556 S
C1576 C1577 1.524 . S
C1576 H1595 0.913 . S
C1577 H1553 0.950 . S
C1577 C1576 1.524 . S
C1577 C1578 1.415 . S
C1578 H1554 0.950 . S
C1578 C1573 1.363 . S
C1578 C1577 1.415 . S
C1579 H1555 0.951 . S
C1579 C1580 1.366 . S
C1579 C1581 1.388 . S
C1580 C1579 1.366 . S
C1580 C1584 1.385 1_554 S
C1581 H1556 0.951 . S
C1581 C1579 1.388 . S
C1581 C1582 1.359 1_554 S
C1582 C1581 1.359 1_556 S
C1582 C1583 1.421 . S
C1582 C1585 1.499 . S
C1583 H1557 0.950 . S
C1583 C1582 1.421 . S
C1583 C1584 1.374 . S
C1584 H1558 0.950 . S
C1584 C1580 1.385 1_556 S
C1584 C1583 1.374 . S
C1585 C1582 1.499 . S
C1585 C1586 1.373 . S
C1585 C1587 1.389 1_556 S
C1586 H1559 0.950 . S
C1586 C1572 1.377 1_565 S
C1586 C1585 1.373 . S
C1587 C1571 1.377 1_565 S
C1587 C1585 1.389 1_554 S
C1587 C1588 1.524 . S
C1588 C1587 1.524 . S
C1588 C1589 1.397 1_554 S
C1588 C1593 1.363 . S
C1589 H1560 0.950 . S
C1589 C1588 1.397 1_556 S
C1589 C1590 1.334 . S
C1590 H1561 0.950 . S
C1590 C1589 1.334 . S
C1590 C1591 1.287 1_556 S
C1591 C1590 1.287 1_554 S
C1591 C1592 1.524 . S
C1591 H1594 0.999 . S
C1592 H1562 0.950 . S
C1592 C1591 1.524 . S
C1592 C1593 1.415 . S
C1593 H1563 0.950 . S
C1593 C1588 1.363 . S
C1593 C1592 1.415 . S
H1594 C1591 0.999 . S
H1595 C1576 0.913 . S
H1596 C1614 0.951 . S
H1597 C1616 0.951 . S
H1598 C1618 0.950 . S
H1599 C1619 0.950 . S
H1600 C1621 0.950 . S
H1601 C1624 0.950 . S
H1602 C1625 0.950 . S
H1603 C1627 0.950 . S
H1604 C1628 0.950 . S
H1605 C1629 0.951 . S
H1606 C1631 0.951 . S
H1607 C1633 0.950 . S
H1608 C1634 0.950 . S
H1609 C1636 0.950 . S
H1610 C1639 0.950 . S
H1611 C1640 0.950 . S
H1612 C1642 0.950 . S
H1613 C1643 0.950 . S
C1614 H1596 0.951 . S
C1614 C1615 1.366 . S
C1614 C1616 1.388 . S
C1615 C1614 1.366 . S
C1615 C1619 1.385 . S
C1616 H1597 0.951 . S
C1616 C1614 1.388 . S
C1616 C1617 1.366 . S
C1617 C1616 1.366 . S
C1617 C1618 1.414 . S
C1617 C1620 1.499 . S
C1618 H1598 0.950 . S
C1618 C1617 1.414 . S
C1618 C1619 1.374 . S
C1619 H1599 0.950 . S
C1619 C1615 1.385 . S
C1619 C1618 1.374 . S
C1620 C1617 1.499 . S
C1620 C1621 1.373 . S
C1620 C1622 1.389 . S
C1621 H1600 0.950 . S
C1621 C1620 1.373 . S
C1621 C1637 1.377 . S
C1622 C1620 1.389 . S
C1622 C1623 1.524 . S
C1622 C1636 1.377 . S
C1623 C1622 1.524 . S
C1623 C1624 1.397 . S
C1623 C1628 1.363 . S
C1624 H1601 0.950 . S
C1624 C1623 1.397 . S
C1624 C1625 1.334 . S
C1625 H1602 0.950 . S
C1625 C1624 1.334 . S
C1625 C1626 1.287 . S
C1626 C1625 1.287 . S
C1626 C1627 1.524 . S
C1626 H1645 0.913 . S
C1627 H1603 0.950 . S
C1627 C1626 1.524 . S
C1627 C1628 1.415 . S
C1628 H1604 0.950 . S
C1628 C1623 1.363 . S
C1628 C1627 1.415 . S
C1629 H1605 0.951 . S
C1629 C1630 1.366 . S
C1629 C1631 1.388 . S
C1630 C1629 1.366 . S
C1630 C1634 1.385 . S
C1631 H1606 0.951 . S
C1631 C1629 1.388 . S
C1631 C1632 1.366 . S
C1632 C1631 1.366 . S
C1632 C1633 1.414 . S
C1632 C1635 1.499 . S
C1633 H1607 0.950 . S
C1633 C1632 1.414 . S
C1633 C1634 1.374 . S
C1634 H1608 0.950 . S
C1634 C1630 1.385 . S
C1634 C1633 1.374 . S
C1635 C1632 1.499 . S
C1635 C1636 1.373 . S
C1635 C1637 1.389 . S
C1636 H1609 0.950 . S
C1636 C1622 1.377 . S
C1636 C1635 1.373 . S
C1637 C1621 1.377 . S
C1637 C1635 1.389 . S
C1637 C1638 1.524 . S
C1638 C1637 1.524 . S
C1638 C1639 1.397 . S
C1638 C1643 1.363 . S
C1639 H1610 0.950 . S
C1639 C1638 1.397 . S
C1639 C1640 1.334 . S
C1640 H1611 0.950 . S
C1640 C1639 1.334 . S
C1640 C1641 1.287 . S
C1641 C1640 1.287 . S
C1641 C1642 1.524 . S
C1641 H1644 0.999 . S
C1642 H1612 0.950 . S
C1642 C1641 1.524 . S
C1642 C1643 1.415 . S
C1643 H1613 0.950 . S
C1643 C1638 1.363 . S
C1643 C1642 1.415 . S
H1644 C1641 0.999 . S
H1645 C1626 0.913 . S
H1646 C1664 0.951 . S
H1647 C1666 0.951 . S
H1648 C1668 0.950 . S
H1649 C1669 0.950 . S
H1650 C1671 0.950 . S
H1651 C1674 0.950 . S
H1652 C1675 0.950 . S
H1653 C1677 0.950 . S
H1654 C1678 0.950 . S
H1655 C1679 0.951 . S
H1656 C1681 0.951 . S
H1657 C1683 0.950 . S
H1658 C1684 0.950 . S
H1659 C1686 0.950 . S
H1660 C1689 0.950 . S
H1661 C1690 0.950 . S
H1662 C1692 0.950 . S
H1663 C1693 0.950 . S
C1664 H1646 0.951 . S
C1664 C1665 1.366 . S
C1664 C1666 1.388 . S
C1665 C1664 1.366 . S
C1665 C1669 1.385 . S
C1666 H1647 0.951 . S
C1666 C1664 1.388 . S
C1666 C1667 1.366 . S
C1667 C1666 1.366 . S
C1667 C1668 1.414 . S
C1667 C1670 1.499 . S
C1668 H1648 0.950 . S
C1668 C1667 1.414 . S
C1668 C1669 1.374 . S
C1669 H1649 0.950 . S
C1669 C1665 1.385 . S
C1669 C1668 1.374 . S
C1670 C1667 1.499 . S
C1670 C1671 1.373 . S
C1670 C1672 1.389 . S
C1671 H1650 0.950 . S
C1671 C1670 1.373 . S
C1671 C1687 1.377 . S
C1672 C1670 1.389 . S
C1672 C1673 1.524 . S
C1672 C1686 1.377 . S
C1673 C1672 1.524 . S
C1673 C1674 1.397 . S
C1673 C1678 1.363 . S
C1674 H1651 0.950 . S
C1674 C1673 1.397 . S
C1674 C1675 1.334 . S
C1675 H1652 0.950 . S
C1675 C1674 1.334 . S
C1675 C1676 1.287 . S
C1676 C1675 1.287 . S
C1676 C1677 1.524 . S
C1676 H1695 0.913 . S
C1677 H1653 0.950 . S
C1677 C1676 1.524 . S
C1677 C1678 1.415 . S
C1678 H1654 0.950 . S
C1678 C1673 1.363 . S
C1678 C1677 1.415 . S
C1679 H1655 0.951 . S
C1679 C1680 1.366 . S
C1679 C1681 1.388 . S
C1680 C1679 1.366 . S
C1680 C1684 1.385 . S
C1681 H1656 0.951 . S
C1681 C1679 1.388 . S
C1681 C1682 1.366 . S
C1682 C1681 1.366 . S
C1682 C1683 1.414 . S
C1682 C1685 1.499 . S
C1683 H1657 0.950 . S
C1683 C1682 1.414 . S
C1683 C1684 1.374 . S
C1684 H1658 0.950 . S
C1684 C1680 1.385 . S
C1684 C1683 1.374 . S
C1685 C1682 1.499 . S
C1685 C1686 1.373 . S
C1685 C1687 1.389 . S
C1686 H1659 0.950 . S
C1686 C1672 1.377 . S
C1686 C1685 1.373 . S
C1687 C1671 1.377 . S
C1687 C1685 1.389 . S
C1687 C1688 1.524 . S
C1688 C1687 1.524 . S
C1688 C1689 1.397 . S
C1688 C1693 1.363 . S
C1689 H1660 0.950 . S
C1689 C1688 1.397 . S
C1689 C1690 1.334 . S
C1690 H1661 0.950 . S
C1690 C1689 1.334 . S
C1690 C1691 1.287 . S
C1691 C1690 1.287 . S
C1691 C1692 1.524 . S
C1691 H1694 0.999 . S
C1692 H1662 0.950 . S
C1692 C1691 1.524 . S
C1692 C1693 1.415 . S
C1693 H1663 0.950 . S
C1693 C1688 1.363 . S
C1693 C1692 1.415 . S
H1694 C1691 0.999 . S
H1695 C1676 0.913 . S
H1696 C1714 0.951 . S
H1697 C1716 0.951 . S
H1698 C1718 0.950 . S
H1699 C1719 0.950 . S
H1700 C1721 0.950 . S
H1701 C1724 0.950 . S
H1702 C1725 0.950 . S
H1703 C1727 0.950 . S
H1704 C1728 0.950 . S
H1705 C1729 0.951 . S
H1706 C1731 0.951 . S
H1707 C1733 0.950 . S
H1708 C1734 0.950 . S
H1709 C1736 0.950 . S
H1710 C1739 0.950 . S
H1711 C1740 0.950 . S
H1712 C1742 0.950 . S
H1713 C1743 0.950 . S
C1714 H1696 0.951 . S
C1714 C1715 1.366 1_554 S
C1714 C1716 1.388 . S
C1715 C1714 1.366 1_556 S
C1715 C1719 1.385 . S
C1716 H1697 0.951 . S
C1716 C1714 1.388 . S
C1716 C1717 1.366 1_554 S
C1717 C1716 1.366 1_556 S
C1717 C1718 1.414 . S
C1717 C1720 1.499 . S
C1718 H1698 0.950 . S
C1718 C1717 1.414 . S
C1718 C1719 1.374 . S
C1719 H1699 0.950 . S
C1719 C1715 1.385 . S
C1719 C1718 1.374 . S
C1720 C1717 1.499 . S
C1720 C1721 1.373 . S
C1720 C1722 1.389 1_556 S
C1721 H1700 0.950 . S
C1721 C1720 1.373 . S
C1721 C1737 1.377 . S
C1722 C1720 1.389 1_554 S
C1722 C1723 1.524 . S
C1722 C1736 1.377 . S
C1723 C1722 1.524 . S
C1723 C1724 1.397 . S
C1723 C1728 1.363 . S
C1724 H1701 0.950 . S
C1724 C1723 1.397 . S
C1724 C1725 1.334 . S
C1725 H1702 0.950 . S
C1725 C1724 1.334 . S
C1725 C1726 1.287 . S
C1726 C1725 1.287 . S
C1726 C1727 1.524 . S
C1726 H1745 0.913 . S
C1727 H1703 0.950 . S
C1727 C1726 1.524 . S
C1727 C1728 1.415 . S
C1728 H1704 0.950 . S
C1728 C1723 1.363 . S
C1728 C1727 1.415 . S
C1729 H1705 0.951 . S
C1729 C1730 1.366 1_556 S
C1729 C1731 1.388 . S
C1730 C1729 1.366 1_554 S
C1730 C1734 1.385 . S
C1731 H1706 0.951 . S
C1731 C1729 1.388 . S
C1731 C1732 1.366 1_556 S
C1732 C1731 1.366 1_554 S
C1732 C1733 1.414 . S
C1732 C1735 1.499 . S
C1733 H1707 0.950 . S
C1733 C1732 1.414 . S
C1733 C1734 1.374 . S
C1734 H1708 0.950 . S
C1734 C1730 1.385 . S
C1734 C1733 1.374 . S
C1735 C1732 1.499 . S
C1735 C1736 1.373 . S
C1735 C1737 1.389 1_554 S
C1736 H1709 0.950 . S
C1736 C1722 1.377 . S
C1736 C1735 1.373 . S
C1737 C1721 1.377 . S
C1737 C1735 1.389 1_556 S
C1737 C1738 1.524 . S
C1738 C1737 1.524 . S
C1738 C1739 1.397 . S
C1738 C1743 1.363 . S
C1739 H1710 0.950 . S
C1739 C1738 1.397 . S
C1739 C1740 1.334 . S
C1740 H1711 0.950 . S
C1740 C1739 1.334 . S
C1740 C1741 1.287 . S
C1741 C1740 1.287 . S
C1741 C1742 1.524 . S
C1741 H1744 0.999 . S
C1742 H1712 0.950 . S
C1742 C1741 1.524 . S
C1742 C1743 1.415 . S
C1743 H1713 0.950 . S
C1743 C1738 1.363 . S
C1743 C1742 1.415 . S
H1744 C1741 0.999 . S
H1745 C1726 0.913 . S
H1746 C1764 0.951 . S
H1747 C1766 0.951 . S
H1748 C1768 0.950 . S
H1749 C1769 0.950 . S
H1750 C1771 0.950 . S
H1751 C1774 0.950 . S
H1752 C1775 0.950 . S
H1753 C1777 0.950 . S
H1754 C1778 0.950 . S
H1755 C1779 0.951 . S
H1756 C1781 0.951 . S
H1757 C1783 0.950 . S
H1758 C1784 0.950 . S
H1759 C1786 0.950 . S
H1760 C1789 0.950 . S
H1761 C1790 0.950 . S
H1762 C1792 0.950 . S
H1763 C1793 0.950 . S
C1764 H1746 0.951 . S
C1764 C1765 1.366 . S
C1764 C1766 1.388 . S
C1765 C1764 1.366 . S
C1765 C1769 1.385 . S
C1766 H1747 0.951 . S
C1766 C1764 1.388 . S
C1766 C1767 1.366 . S
C1767 C1766 1.366 . S
C1767 C1768 1.414 . S
C1767 C1770 1.499 . S
C1768 H1748 0.950 . S
C1768 C1767 1.414 . S
C1768 C1769 1.374 . S
C1769 H1749 0.950 . S
C1769 C1765 1.385 . S
C1769 C1768 1.374 . S
C1770 C1767 1.499 . S
C1770 C1771 1.373 . S
C1770 C1772 1.389 . S
C1771 H1750 0.950 . S
C1771 C1770 1.373 . S
C1771 C1787 1.377 . S
C1772 C1770 1.389 . S
C1772 C1773 1.524 . S
C1772 C1786 1.377 . S
C1773 C1772 1.524 . S
C1773 C1774 1.397 . S
C1773 C1778 1.363 . S
C1774 H1751 0.950 . S
C1774 C1773 1.397 . S
C1774 C1775 1.334 . S
C1775 H1752 0.950 . S
C1775 C1774 1.334 . S
C1775 C1776 1.287 . S
C1776 C1775 1.287 . S
C1776 C1777 1.524 . S
C1776 H1795 0.913 . S
C1777 H1753 0.950 . S
C1777 C1776 1.524 . S
C1777 C1778 1.415 . S
C1778 H1754 0.950 . S
C1778 C1773 1.363 . S
C1778 C1777 1.415 . S
C1779 H1755 0.951 . S
C1779 C1780 1.366 . S
C1779 C1781 1.388 . S
C1780 C1779 1.366 . S
C1780 C1784 1.385 . S
C1781 H1756 0.951 . S
C1781 C1779 1.388 . S
C1781 C1782 1.366 . S
C1782 C1781 1.366 . S
C1782 C1783 1.414 . S
C1782 C1785 1.499 . S
C1783 H1757 0.950 . S
C1783 C1782 1.414 . S
C1783 C1784 1.374 . S
C1784 H1758 0.950 . S
C1784 C1780 1.385 . S
C1784 C1783 1.374 . S
C1785 C1782 1.499 . S
C1785 C1786 1.373 . S
C1785 C1787 1.389 . S
C1786 H1759 0.950 . S
C1786 C1772 1.377 . S
C1786 C1785 1.373 . S
C1787 C1771 1.377 . S
C1787 C1785 1.389 . S
C1787 C1788 1.524 . S
C1788 C1787 1.524 . S
C1788 C1789 1.397 . S
C1788 C1793 1.363 . S
C1789 H1760 0.950 . S
C1789 C1788 1.397 . S
C1789 C1790 1.334 . S
C1790 H1761 0.950 . S
C1790 C1789 1.334 . S
C1790 C1791 1.287 . S
C1791 C1790 1.287 . S
C1791 C1792 1.524 . S
C1791 H1794 0.999 . S
C1792 H1762 0.950 . S
C1792 C1791 1.524 . S
C1792 C1793 1.415 . S
C1793 H1763 0.950 . S
C1793 C1788 1.363 . S
C1793 C1792 1.415 . S
H1794 C1791 0.999 . S
H1795 C1776 0.913 . S
H1796 C1814 0.951 . S
H1797 C1816 0.951 . S
H1798 C1818 0.950 . S
H1799 C1819 0.950 . S
H1800 C1821 0.950 . S
H1801 C1824 0.950 . S
H1802 C1825 0.950 . S
H1803 C1827 0.950 . S
H1804 C1828 0.950 . S
H1805 C1829 0.951 . S
H1806 C1831 0.951 . S
H1807 C1833 0.950 . S
H1808 C1834 0.950 . S
H1809 C1836 0.950 . S
H1810 C1839 0.950 . S
H1811 C1840 0.950 . S
H1812 C1842 0.950 . S
H1813 C1843 0.950 . S
C1814 H1796 0.951 . S
C1814 C1815 1.366 . S
C1814 C1816 1.388 . S
C1815 C1814 1.366 . S
C1815 C1819 1.385 . S
C1816 H1797 0.951 . S
C1816 C1814 1.388 . S
C1816 C1817 1.366 . S
C1817 C1816 1.366 . S
C1817 C1818 1.414 . S
C1817 C1820 1.499 . S
C1818 H1798 0.950 . S
C1818 C1817 1.414 . S
C1818 C1819 1.374 . S
C1819 H1799 0.950 . S
C1819 C1815 1.385 . S
C1819 C1818 1.374 . S
C1820 C1817 1.499 . S
C1820 C1821 1.373 . S
C1820 C1822 1.389 . S
C1821 H1800 0.950 . S
C1821 C1820 1.373 . S
C1821 C1837 1.377 . S
C1822 C1820 1.389 . S
C1822 C1823 1.524 . S
C1822 C1836 1.377 . S
C1823 C1822 1.524 . S
C1823 C1824 1.397 . S
C1823 C1828 1.363 . S
C1824 H1801 0.950 . S
C1824 C1823 1.397 . S
C1824 C1825 1.334 . S
C1825 H1802 0.950 . S
C1825 C1824 1.334 . S
C1825 C1826 1.287 . S
C1826 C1825 1.287 . S
C1826 C1827 1.524 . S
C1826 H1845 0.913 . S
C1827 H1803 0.950 . S
C1827 C1826 1.524 . S
C1827 C1828 1.415 . S
C1828 H1804 0.950 . S
C1828 C1823 1.363 . S
C1828 C1827 1.415 . S
C1829 H1805 0.951 . S
C1829 C1830 1.366 . S
C1829 C1831 1.388 . S
C1830 C1829 1.366 . S
C1830 C1834 1.385 . S
C1831 H1806 0.951 . S
C1831 C1829 1.388 . S
C1831 C1832 1.366 . S
C1832 C1831 1.366 . S
C1832 C1833 1.414 . S
C1832 C1835 1.499 . S
C1833 H1807 0.950 . S
C1833 C1832 1.414 . S
C1833 C1834 1.374 . S
C1834 H1808 0.950 . S
C1834 C1830 1.385 . S
C1834 C1833 1.374 . S
C1835 C1832 1.499 . S
C1835 C1836 1.373 . S
C1835 C1837 1.389 . S
C1836 H1809 0.950 . S
C1836 C1822 1.377 . S
C1836 C1835 1.373 . S
C1837 C1821 1.377 . S
C1837 C1835 1.389 . S
C1837 C1838 1.524 . S
C1838 C1837 1.524 . S
C1838 C1839 1.397 . S
C1838 C1843 1.363 . S
C1839 H1810 0.950 . S
C1839 C1838 1.397 . S
C1839 C1840 1.334 . S
C1840 H1811 0.950 . S
C1840 C1839 1.334 . S
C1840 C1841 1.287 . S
C1841 C1840 1.287 . S
C1841 C1842 1.524 . S
C1841 H1844 0.999 . S
C1842 H1812 0.950 . S
C1842 C1841 1.524 . S
C1842 C1843 1.415 . S
C1843 H1813 0.950 . S
C1843 C1838 1.363 . S
C1843 C1842 1.415 . S
H1844 C1841 0.999 . S
H1845 C1826 0.913 . S
H1846 C1864 0.951 . S
H1847 C1866 0.951 . S
H1848 C1868 0.950 . S
H1849 C1869 0.951 1_554 S
H1850 C1871 0.950 . S
H1851 C1874 0.950 . S
H1852 C1875 0.950 . S
H1853 C1877 0.950 1_556 S
H1854 C1878 0.950 . S
H1855 C1879 0.951 . S
H1856 C1881 0.951 . S
H1857 C1883 0.950 . S
H1858 C1884 0.951 . S
H1859 C1886 0.950 . S
H1860 C1889 0.950 . S
H1861 C1890 0.950 . S
H1862 C1892 0.950 1_554 S
H1863 C1893 0.950 . S
C1864 H1846 0.951 . S
C1864 C1865 1.366 . S
C1864 C1866 1.388 . S
C1865 C1864 1.366 . S
C1865 C1869 1.383 . S
C1866 H1847 0.951 . S
C1866 C1864 1.388 . S
C1866 C1867 1.366 . S
C1867 C1866 1.366 . S
C1867 C1868 1.414 1_556 S
C1867 C1870 1.499 . S
C1868 H1848 0.950 . S
C1868 C1867 1.414 1_554 S
C1868 C1869 1.374 1_554 S
C1869 H1849 0.951 1_556 S
C1869 C1865 1.383 . S
C1869 C1868 1.374 1_556 S
C1870 C1867 1.499 . S
C1870 C1871 1.373 . S
C1870 C1872 1.389 1_556 S
C1871 H1850 0.950 . S
C1871 C1870 1.373 . S
C1871 C1887 1.377 . S
C1872 C1870 1.389 1_554 S
C1872 C1873 1.524 . S
C1872 C1886 1.377 . S
C1873 C1872 1.524 . S
C1873 C1874 1.397 . S
C1873 C1878 1.363 1_554 S
C1874 H1851 0.950 . S
C1874 C1873 1.397 . S
C1874 C1875 1.334 . S
C1875 H1852 0.950 . S
C1875 C1874 1.334 . S
C1875 C1876 1.287 . S
C1876 C1875 1.287 . S
C1876 C1877 1.524 . S
C1876 H1895 0.913 . S
C1877 H1853 0.950 1_554 S
C1877 C1876 1.524 . S
C1877 C1878 1.415 1_554 S
C1878 H1854 0.950 . S
C1878 C1873 1.363 1_556 S
C1878 C1877 1.415 1_556 S
C1879 H1855 0.951 . S
C1879 C1880 1.366 . S
C1879 C1881 1.388 . S
C1880 C1879 1.366 . S
C1880 C1884 1.383 1_554 S
C1881 H1856 0.951 . S
C1881 C1879 1.388 . S
C1881 C1882 1.366 . S
C1882 C1881 1.366 . S
C1882 C1883 1.414 1_554 S
C1882 C1885 1.499 . S
C1883 H1857 0.950 . S
C1883 C1882 1.414 1_556 S
C1883 C1884 1.374 . S
C1884 H1858 0.951 . S
C1884 C1880 1.383 1_556 S
C1884 C1883 1.374 . S
C1885 C1882 1.499 . S
C1885 C1886 1.373 . S
C1885 C1887 1.389 1_554 S
C1886 H1859 0.950 . S
C1886 C1872 1.377 . S
C1886 C1885 1.373 . S
C1887 C1871 1.377 . S
C1887 C1885 1.389 1_556 S
C1887 C1888 1.524 . S
C1888 C1887 1.524 . S
C1888 C1889 1.397 . S
C1888 C1893 1.363 1_556 S
C1889 H1860 0.950 . S
C1889 C1888 1.397 . S
C1889 C1890 1.334 . S
C1890 H1861 0.950 . S
C1890 C1889 1.334 . S
C1890 C1891 1.287 . S
C1891 C1890 1.287 . S
C1891 C1892 1.524 . S
C1891 H1894 0.999 . S
C1892 H1862 0.950 1_556 S
C1892 C1891 1.524 . S
C1892 C1893 1.415 1_556 S
C1893 H1863 0.950 . S
C1893 C1888 1.363 1_554 S
C1893 C1892 1.415 1_554 S
H1894 C1891 0.999 . S
H1895 C1876 0.913 . S
C415 C391 1.781 . S
C430 C28 1.777 . S
C465 C226 1.883 . S
C480 C61 1.883 . S
C515 C94 1.781 . S
C530 C259 1.776 . S
C565 C292 1.781 . S
C580 C127 1.777 . S
C615 C325 1.883 . S
C630 C160 1.883 . S
C665 C358 1.781 . S
C680 C193 1.777 . S
C715 C8 0.463 . S
C730 C338 0.460 . S
C765 C41 0.422 . S
C780 C371 0.423 . S
C815 C206 0.422 . S
C830 C74 0.422 . S
C865 C239 0.463 . S
C880 C107 0.461 . S
C915 C272 0.424 . S
C930 C140 0.420 . S
C965 C173 0.421 . S
C980 C305 0.422 . S
C1015 N104 1.214 . S
C1030 N5 1.214 . S
C1065 N38 1.223 . S
C1080 N137 1.223 . S
C1115 N170 1.225 . S
C1130 N71 1.225 . S
C1165 N203 1.223 . S
C1180 N302 1.224 . S
C1215 N236 1.214 . S
C1230 N335 1.214 . S
C1265 N368 1.225 . S
C1280 N269 1.225 . S
C1315 N14 0.900 . S
C1330 N311 0.900 . S
C1365 N47 0.899 . S
C1380 N344 0.899 . S
C1415 N377 0.872 . S
C1430 N80 0.874 . S
C1465 N113 0.898 . S
C1480 N212 0.899 . S
C1515 N146 0.900 . S
C1530 N245 0.899 . S
C1565 N179 0.871 . S
C1580 N278 0.874 . S
C1615 C215 1.806 . S
C1630 C17 1.806 . S
C1665 C248 1.806 . S
C1680 C50 1.806 . S
C1715 C83 1.793 . S
C1730 C281 1.793 . S
C1765 C314 1.806 . S
C1780 C116 1.806 . S
C1815 C149 1.806 . S
C1830 C347 1.806 . S
C1865 C182 1.793 . S
C1880 C380 1.793 . S
