# Generated by pormake.
# Topology vmf, (6)-cn, num edge types: 1
# Building blocks:
#     Node 0, Type 0, BuildingBlock: IZENUY_clean_sbu_0, # of connection points: 6
#     Node 1, Type 0, BuildingBlock: IZENUY_clean_sbu_0, # of connection points: 6
#     Node 2, Type 0, BuildingBlock: IZENUY_clean_sbu_0, # of connection points: 6
#     Node 3, Type 0, BuildingBlock: IZENUY_clean_sbu_0, # of connection points: 6
#     Node 4, Type 0, BuildingBlock: IZENUY_clean_sbu_0, # of connection points: 6
#     Node 5, Type 0, BuildingBlock: IZENUY_clean_sbu_0, # of connection points: 6
#     Node 6, Type 0, BuildingBlock: IZENUY_clean_sbu_0, # of connection points: 6
#     Node 7, Type 0, BuildingBlock: IZENUY_clean_sbu_0, # of connection points: 6
#     Edge 8, Type (0, 0), BuildingBlock: TEMPAE_clean_linker_10, # of connection points: 2
#     Edge 9, Type (0, 0), BuildingBlock: TEMPAE_clean_linker_10, # of connection points: 2
#     Edge 10, Type (0, 0), BuildingBlock: TEMPAE_clean_linker_10, # of connection points: 2
#     Edge 11, Type (0, 0), BuildingBlock: TEMPAE_clean_linker_10, # of connection points: 2
#     Edge 12, Type (0, 0), BuildingBlock: TEMPAE_clean_linker_10, # of connection points: 2
#     Edge 13, Type (0, 0), BuildingBlock: TEMPAE_clean_linker_10, # of connection points: 2
#     Edge 14, Type (0, 0), BuildingBlock: TEMPAE_clean_linker_10, # of connection points: 2
#     Edge 15, Type (0, 0), BuildingBlock: TEMPAE_clean_linker_10, # of connection points: 2
#     Edge 16, Type (0, 0), BuildingBlock: TEMPAE_clean_linker_10, # of connection points: 2
#     Edge 17, Type (0, 0), BuildingBlock: TEMPAE_clean_linker_10, # of connection points: 2
#     Edge 18, Type (0, 0), BuildingBlock: TEMPAE_clean_linker_10, # of connection points: 2
#     Edge 19, Type (0, 0), BuildingBlock: TEMPAE_clean_linker_10, # of connection points: 2
#     Edge 20, Type (0, 0), BuildingBlock: TEMPAE_clean_linker_10, # of connection points: 2
#     Edge 21, Type (0, 0), BuildingBlock: TEMPAE_clean_linker_10, # of connection points: 2
#     Edge 22, Type (0, 0), BuildingBlock: TEMPAE_clean_linker_10, # of connection points: 2
#     Edge 23, Type (0, 0), BuildingBlock: TEMPAE_clean_linker_10, # of connection points: 2
#     Edge 24, Type (0, 0), BuildingBlock: TEMPAE_clean_linker_10, # of connection points: 2
#     Edge 25, Type (0, 0), BuildingBlock: TEMPAE_clean_linker_10, # of connection points: 2
#     Edge 26, Type (0, 0), BuildingBlock: TEMPAE_clean_linker_10, # of connection points: 2
#     Edge 27, Type (0, 0), BuildingBlock: TEMPAE_clean_linker_10, # of connection points: 2
#     Edge 28, Type (0, 0), BuildingBlock: TEMPAE_clean_linker_10, # of connection points: 2
#     Edge 29, Type (0, 0), BuildingBlock: TEMPAE_clean_linker_10, # of connection points: 2
#     Edge 30, Type (0, 0), BuildingBlock: TEMPAE_clean_linker_10, # of connection points: 2
#     Edge 31, Type (0, 0), BuildingBlock: TEMPAE_clean_linker_10, # of connection points: 2
# Relax obj value: 0.282
# Max RMSD: 0.266
# Mean RMSD: 0.266
data_MOF--net-vmf--node1-IZENUY_clean_sbu_0--edge1-TEMPAE_clean_linker_10
_symmetry_space_group_name_H-M    P1
_symmetry_Int_Tables_number       1
_symmetry_cell_setting            triclinic
loop_
_symmetry_equiv_pos_as_xyz
'x, y, z'
_cell_length_a     28.722933
_cell_length_b     43.622733
_cell_length_c     28.567247
_cell_angle_alpha  90.06769
_cell_angle_beta   105.35066
_cell_angle_gamma 89.990598
loop_
_atom_site_label
_atom_site_type_symbol
_atom_site_fract_x
_atom_site_fract_y
_atom_site_fract_z
_atom_type_partial_charge
Fe0 Fe 0.24213 0.35336 0.20483 0.0
Fe1 Fe 0.2374 0.29447 0.26172 0.0
O2 O 0.21536 0.33177 0.24345 0.0
Fe3 Fe 0.16665 0.34716 0.26337 0.0
O4 O 0.1392 0.36732 0.20558 0.0
O5 O 0.18583 0.35491 0.15818 0.0
O6 O 0.25778 0.32007 0.17366 0.0
C7 C 0.24235 0.29283 0.16872 0.0
C8 C 0.22031 0.39937 0.26662 0.0
O9 O 0.22318 0.28091 0.1993 0.0
C10 C 0.22452 0.31569 0.34673 0.0
O11 O 0.30121 0.35276 0.24859 0.0
O12 O 0.3 0.30314 0.26171 0.0
O13 O 0.20146 0.38087 0.29027 0.0
O14 O 0.23076 0.39083 0.22835 0.0
C15 C 0.13599 0.2877 0.2488 0.0
O16 O 0.25372 0.3057 0.32447 0.0
O17 O 0.18522 0.32855 0.32407 0.0
C18 C 0.32324 0.32797 0.26294 0.0
O19 O 0.17898 0.27857 0.2661 0.0
O20 O 0.1275 0.31543 0.23782 0.0
C21 C 0.146 0.36406 0.16363 0.0
Fe22 Fe 0.798 0.35815 0.81418 0.0
Fe23 Fe 0.8071 0.29673 0.76542 0.0
O24 O 0.82419 0.33583 0.77569 0.0
Fe25 Fe 0.86752 0.35203 0.74871 0.0
O26 O 0.89764 0.37485 0.80318 0.0
O27 O 0.85593 0.36452 0.85621 0.0
O28 O 0.79124 0.32612 0.8524 0.0
C29 C 0.81607 0.30198 0.86212 0.0
C30 C 0.80948 0.40228 0.74478 0.0
O31 O 0.82991 0.28783 0.82964 0.0
C32 C 0.80657 0.31476 0.67379 0.0
O33 O 0.7373 0.3526 0.77481 0.0
O34 O 0.74563 0.30266 0.77123 0.0
O35 O 0.82799 0.38363 0.72116 0.0
O36 O 0.80173 0.39463 0.78456 0.0
C37 C 0.90662 0.29451 0.76861 0.0
O38 O 0.78337 0.30348 0.70144 0.0
O39 O 0.84472 0.33064 0.69058 0.0
C40 C 0.71879 0.32615 0.76652 0.0
O41 O 0.86488 0.28286 0.75666 0.0
O42 O 0.91183 0.32295 0.77404 0.0
C43 C 0.89391 0.37366 0.84661 0.0
Fe44 Fe 0.78343 0.73297 0.76046 0.0
Fe45 Fe 0.77603 0.67096 0.80817 0.0
O46 O 0.80526 0.69509 0.77467 0.0
Fe47 Fe 0.85634 0.68215 0.75621 0.0
O48 O 0.8933 0.71371 0.7861 0.0
O49 O 0.84157 0.75016 0.75836 0.0
O50 O 0.7967 0.74306 0.82441 0.0
C51 C 0.77738 0.72884 0.85293 0.0
C52 C 0.79824 0.71524 0.67441 0.0
O53 O 0.7601 0.70224 0.84313 0.0
C54 C 0.80165 0.62928 0.74239 0.0
O55 O 0.72054 0.72394 0.75814 0.0
O56 O 0.71801 0.67381 0.76273 0.0
O57 O 0.83809 0.70267 0.69678 0.0
O58 O 0.76858 0.72452 0.69675 0.0
C59 C 0.87266 0.66057 0.85357 0.0
O60 O 0.78726 0.63527 0.77952 0.0
O61 O 0.82499 0.64868 0.72503 0.0
C62 C 0.69674 0.69919 0.75144 0.0
O63 O 0.83075 0.66687 0.85666 0.0
O64 O 0.88281 0.66049 0.81281 0.0
C65 C 0.88455 0.74144 0.77603 0.0
Fe66 Fe 0.21434 0.6646 0.20717 0.0
Fe67 Fe 0.15208 0.68261 0.27492 0.0
O68 O 0.19444 0.6927 0.24233 0.0
Fe69 Fe 0.21514 0.73088 0.24424 0.0
O70 O 0.221 0.73128 0.18195 0.0
O71 O 0.19359 0.68643 0.15211 0.0
O72 O 0.1553 0.64502 0.18913 0.0
C73 C 0.11416 0.65723 0.18447 0.0
C74 C 0.29923 0.70038 0.24724 0.0
O75 O 0.10728 0.67469 0.21751 0.0
C76 C 0.2156 0.71786 0.3417 0.0
O77 O 0.23664 0.64011 0.25977 0.0
O78 O 0.17 0.64193 0.28284 0.0
O79 O 0.27741 0.7191 0.26765 0.0
O80 O 0.27606 0.68029 0.21797 0.0
C81 C 0.12159 0.74203 0.24264 0.0
O82 O 0.19565 0.69161 0.33312 0.0
O83 O 0.21395 0.73663 0.30735 0.0
C84 C 0.2089 0.62837 0.28237 0.0
O85 O 0.12519 0.72077 0.27327 0.0
O86 O 0.15392 0.74583 0.22073 0.0
C87 C 0.20572 0.7135 0.14619 0.0
Fe88 Fe 0.72942 0.86064 0.20896 0.0
Fe89 Fe 0.71653 0.79755 0.25017 0.0
O90 O 0.70044 0.83692 0.24326 0.0
Fe91 Fe 0.65489 0.85186 0.26866 0.0
O92 O 0.62707 0.87621 0.21507 0.0
O93 O 0.6729 0.86788 0.16537 0.0
O94 O 0.73745 0.83013 0.16836 0.0
C95 C 0.71264 0.80622 0.15539 0.0
C96 C 0.71554 0.90181 0.28149 0.0
O97 O 0.69627 0.79113 0.18517 0.0
C98 C 0.71263 0.81168 0.34184 0.0
O99 O 0.7889 0.85369 0.24999 0.0
O100 O 0.77905 0.80375 0.24786 0.0
O101 O 0.69293 0.88279 0.30035 0.0
O102 O 0.72549 0.89595 0.24198 0.0
C103 C 0.61614 0.79478 0.24273 0.0
O104 O 0.73741 0.80193 0.31458 0.0
O105 O 0.67561 0.82875 0.32558 0.0
C106 C 0.8066 0.82696 0.25602 0.0
O107 O 0.65775 0.78305 0.25502 0.0
O108 O 0.61124 0.8233 0.2392 0.0
C109 C 0.63281 0.87491 0.17238 0.0
Fe110 Fe 0.28159 0.79465 0.75307 0.0
Fe111 Fe 0.35397 0.84726 0.75812 0.0
O112 O 0.30318 0.83158 0.77383 0.0
Fe113 Fe 0.27399 0.85255 0.81094 0.0
O114 O 0.25559 0.81886 0.83907 0.0
O115 O 0.29239 0.78018 0.81478 0.0
O116 O 0.341 0.77892 0.7515 0.0
C117 C 0.38373 0.78774 0.77133 0.0
C118 C 0.19494 0.82829 0.74819 0.0
O119 O 0.39186 0.81519 0.78461 0.0
C120 C 0.29984 0.89926 0.75301 0.0
O121 O 0.26884 0.8069 0.69089 0.0
O122 O 0.33892 0.82926 0.69668 0.0
O123 O 0.21686 0.85288 0.7642 0.0
O124 O 0.21818 0.80339 0.74985 0.0
C125 C 0.36907 0.86236 0.85827 0.0
O126 O 0.32026 0.88102 0.73041 0.0
O127 O 0.28767 0.89043 0.79024 0.0
C128 C 0.30013 0.81698 0.67133 0.0
O129 O 0.37808 0.86706 0.81749 0.0
O130 O 0.32828 0.85272 0.86017 0.0
C131 C 0.27149 0.79174 0.84433 0.0
Fe132 Fe 0.30971 0.23019 0.77483 0.0
Fe133 Fe 0.30825 0.16379 0.81025 0.0
O134 O 0.32979 0.1919 0.77646 0.0
Fe135 Fe 0.37293 0.18171 0.74482 0.0
O136 O 0.40097 0.21967 0.7485 0.0
O137 O 0.37096 0.24458 0.80041 0.0
O138 O 0.30176 0.23023 0.83625 0.0
C139 C 0.31602 0.21231 0.87191 0.0
C140 C 0.31201 0.21806 0.67795 0.0
O141 O 0.32813 0.18523 0.86597 0.0
C142 C 0.3148 0.1279 0.73497 0.0
O143 O 0.24747 0.21888 0.74929 0.0
O144 O 0.24675 0.17994 0.79806 0.0
O145 O 0.33074 0.19148 0.68622 0.0
O146 O 0.31319 0.23646 0.71266 0.0
C147 C 0.40835 0.15538 0.83477 0.0
O148 O 0.28663 0.13976 0.75697 0.0
O149 O 0.3541 0.14124 0.73541 0.0
C150 C 0.22457 0.2001 0.76839 0.0
O151 O 0.36675 0.14369 0.82929 0.0
O152 O 0.41638 0.17294 0.80249 0.0
C153 C 0.40424 0.2406 0.77974 0.0
Fe154 Fe 0.73629 0.23288 0.25397 0.0
Fe155 Fe 0.74436 0.17011 0.20839 0.0
O156 O 0.71551 0.19457 0.24201 0.0
Fe157 Fe 0.66591 0.18088 0.26226 0.0
O158 O 0.6267 0.21148 0.23243 0.0
O159 O 0.67719 0.24981 0.25292 0.0
O160 O 0.72459 0.24149 0.18939 0.0
C161 C 0.74583 0.2271 0.16269 0.0
C162 C 0.7209 0.21768 0.34146 0.0
O163 O 0.76242 0.20062 0.17392 0.0
C164 C 0.71931 0.12822 0.2737 0.0
O165 O 0.79965 0.22315 0.2589 0.0
O166 O 0.80205 0.17272 0.25438 0.0
O167 O 0.68347 0.20221 0.32078 0.0
O168 O 0.74978 0.22718 0.31842 0.0
C169 C 0.64834 0.15948 0.16456 0.0
O170 O 0.73115 0.13438 0.23535 0.0
O171 O 0.69993 0.14827 0.29411 0.0
C172 C 0.82326 0.19821 0.26601 0.0
O173 O 0.68943 0.16685 0.16011 0.0
O174 O 0.63975 0.15844 0.20611 0.0
C175 C 0.63451 0.23972 0.23838 0.0
C176 C 0.59815 0.28696 0.26477 0.0
C177 C 0.59265 0.26017 0.23652 0.0
C178 C 0.55765 0.30331 0.27035 0.0
C179 C 0.51059 0.29284 0.24669 0.0
C180 C 0.50501 0.26694 0.21565 0.0
C181 C 0.54599 0.25087 0.21122 0.0
C182 C 0.56523 0.33069 0.30385 0.0
C183 C 0.45567 0.25494 0.18936 0.0
C184 C 0.40268 0.3031 0.29831 0.0
C185 C 0.37559 0.32525 0.26722 0.0
C186 C 0.44835 0.29399 0.29427 0.0
C187 C 0.46709 0.30688 0.25753 0.0
C188 C 0.44119 0.33065 0.22798 0.0
C189 C 0.39586 0.33975 0.23345 0.0
C190 C 0.47492 0.26894 0.32712 0.0
C191 C 0.45936 0.34465 0.18788 0.0
H192 H 0.63401 0.2942 0.28477 0.0
H193 H 0.54137 0.23029 0.18913 0.0
H194 H 0.54293 0.35031 0.28601 0.0
H195 H 0.55351 0.32491 0.3368 0.0
H196 H 0.60367 0.33794 0.31527 0.0
H197 H 0.45733 0.23876 0.15975 0.0
H198 H 0.43986 0.24267 0.2155 0.0
H199 H 0.43092 0.27399 0.17372 0.0
H200 H 0.38697 0.29173 0.32425 0.0
H201 H 0.37466 0.35643 0.20863 0.0
H202 H 0.51333 0.27532 0.34249 0.0
H203 H 0.47415 0.24758 0.30579 0.0
H204 H 0.45857 0.26405 0.35748 0.0
H205 H 0.49822 0.35052 0.20111 0.0
H206 H 0.43889 0.36561 0.1728 0.0
H207 H 0.45559 0.32771 0.15808 0.0
C208 C 0.6463 0.29251 0.7466 0.0
C209 C 0.6668 0.32108 0.76275 0.0
C210 C 0.60041 0.28434 0.75079 0.0
C211 C 0.57381 0.30535 0.77135 0.0
C212 C 0.59306 0.3349 0.78538 0.0
C213 C 0.63945 0.34245 0.78095 0.0
C214 C 0.58127 0.25266 0.73491 0.0
C215 C 0.56556 0.35801 0.80693 0.0
C216 C 0.44272 0.28136 0.74291 0.0
C217 C 0.44251 0.26361 0.78366 0.0
C218 C 0.48408 0.29766 0.74031 0.0
C219 C 0.52658 0.2955 0.77897 0.0
C220 C 0.52531 0.27932 0.82173 0.0
C221 C 0.48309 0.26355 0.82358 0.0
C222 C 0.48345 0.31494 0.69439 0.0
C223 C 0.56976 0.27625 0.86375 0.0
H224 H 0.66699 0.27594 0.73212 0.0
H225 H 0.65509 0.36451 0.7938 0.0
H226 H 0.57601 0.23974 0.76655 0.0
H227 H 0.54562 0.25429 0.70792 0.0
H228 H 0.60598 0.23935 0.71855 0.0
H229 H 0.58311 0.38092 0.81138 0.0
H230 H 0.52809 0.36038 0.7837 0.0
H231 H 0.56319 0.34992 0.84303 0.0
H232 H 0.41128 0.2811 0.71188 0.0
H233 H 0.48299 0.24942 0.85476 0.0
H234 H 0.50308 0.30152 0.67264 0.0
H235 H 0.50205 0.33734 0.70297 0.0
H236 H 0.44607 0.31898 0.67177 0.0
H237 H 0.59464 0.25932 0.85423 0.0
H238 H 0.56073 0.26828 0.89722 0.0
H239 H 0.58931 0.29837 0.87152 0.0
C240 C 0.41997 0.74213 0.73975 0.0
C241 C 0.42557 0.7677 0.77074 0.0
C242 C 0.46033 0.72582 0.73368 0.0
C243 C 0.50744 0.73512 0.75943 0.0
C244 C 0.51309 0.76001 0.79243 0.0
C245 C 0.47224 0.77598 0.79753 0.0
C246 C 0.45266 0.69965 0.69787 0.0
C247 C 0.56244 0.77105 0.82048 0.0
C248 C 0.62109 0.68675 0.77514 0.0
C249 C 0.6439 0.70188 0.744 0.0
C250 C 0.57508 0.69603 0.77853 0.0
C251 C 0.55117 0.72067 0.74957 0.0
C252 C 0.57248 0.73417 0.71518 0.0
C253 C 0.61873 0.72484 0.7132 0.0
C254 C 0.55412 0.68133 0.81618 0.0
C255 C 0.54816 0.76016 0.68302 0.0
H256 H 0.38415 0.73567 0.71852 0.0
H257 H 0.47707 0.79564 0.8216 0.0
H258 H 0.46571 0.70639 0.66611 0.0
H259 H 0.4738 0.6793 0.71451 0.0
H260 H 0.414 0.69309 0.68476 0.0
H261 H 0.56065 0.78587 0.85161 0.0
H262 H 0.58685 0.75151 0.83428 0.0
H263 H 0.57876 0.78456 0.79598 0.0
H264 H 0.6408 0.66945 0.79976 0.0
H265 H 0.63646 0.73672 0.68935 0.0
H266 H 0.51528 0.67611 0.80074 0.0
H267 H 0.55698 0.69758 0.84675 0.0
H268 H 0.57335 0.65987 0.83079 0.0
H269 H 0.50966 0.75471 0.66604 0.0
H270 H 0.56608 0.76525 0.65387 0.0
H271 H 0.54926 0.78115 0.70527 0.0
C272 C 0.37128 0.6964 0.21331 0.0
C273 C 0.35091 0.70641 0.25027 0.0
C274 C 0.41691 0.7069 0.2108 0.0
C275 C 0.44297 0.72771 0.24627 0.0
C276 C 0.4239 0.73631 0.28531 0.0
C277 C 0.37815 0.72566 0.28674 0.0
C278 C 0.43579 0.69719 0.16852 0.0
C279 C 0.45061 0.75819 0.32422 0.0
C280 C 0.57574 0.74672 0.26088 0.0
C281 C 0.57246 0.77559 0.23856 0.0
C282 C 0.53394 0.73027 0.26228 0.0
C283 C 0.4878 0.74283 0.24045 0.0
C284 C 0.4844 0.77122 0.21571 0.0
C285 C 0.52666 0.78728 0.2153 0.0
C286 C 0.53915 0.70009 0.28895 0.0
C287 C 0.43602 0.7853 0.19125 0.0
H288 H 0.35048 0.68169 0.18476 0.0
H289 H 0.36289 0.73339 0.3156 0.0
H290 H 0.43398 0.71688 0.14355 0.0
H291 H 0.47419 0.69015 0.18124 0.0
H292 H 0.41459 0.67796 0.14776 0.0
H293 H 0.43314 0.76034 0.35443 0.0
H294 H 0.48841 0.75046 0.33931 0.0
H295 H 0.45193 0.78123 0.30819 0.0
H296 H 0.61095 0.73754 0.27905 0.0
H297 H 0.52376 0.80941 0.19751 0.0
H298 H 0.51664 0.68224 0.26592 0.0
H299 H 0.52607 0.70259 0.32198 0.0
H300 H 0.5772 0.69206 0.30001 0.0
H301 H 0.41303 0.76852 0.16626 0.0
H302 H 0.43956 0.80622 0.17031 0.0
H303 H 0.41698 0.79152 0.21903 0.0
C304 C 0.08214 0.78044 0.28303 0.0
C305 C 0.08381 0.76521 0.24031 0.0
C306 C 0.04086 0.79669 0.28596 0.0
C307 C 0.99982 0.79703 0.2455 0.0
C308 C 1.00273 0.78352 0.20109 0.0
C309 C 0.04495 0.7678 0.19899 0.0
C310 C 0.03976 0.81106 0.33376 0.0
C311 C 0.9598 0.78314 0.15714 0.0
C312 C 0.87761 0.79213 0.27228 0.0
C313 C 0.85868 0.82163 0.26048 0.0
C314 C 0.92358 0.78416 0.26812 0.0
C315 C 0.95201 0.80633 0.25228 0.0
C316 C 0.93433 0.83666 0.24272 0.0
C317 C 0.88773 0.84399 0.24684 0.0
C318 C 0.94096 0.75158 0.27909 0.0
C319 C 0.96386 0.86101 0.22642 0.0
H320 H 0.11229 0.77821 0.31506 0.0
H321 H 0.04614 0.75562 0.1662 0.0
H322 H 0.02229 0.83393 0.32798 0.0
H323 H 0.01822 0.79641 0.35192 0.0
H324 H 0.07658 0.81358 0.35853 0.0
H325 H 0.97018 0.77667 0.12364 0.0
H326 H 0.93298 0.76623 0.1629 0.0
H327 H 0.94189 0.80587 0.1516 0.0
H328 H 0.85563 0.77475 0.28321 0.0
H329 H 0.87335 0.86679 0.23736 0.0
H330 H 0.9757 0.75137 0.30763 0.0
H331 H 0.94746 0.74088 0.24612 0.0
H332 H 0.91461 0.73721 0.29152 0.0
H333 H 1.00075 0.86196 0.25132 0.0
H334 H 0.94708 0.88406 0.22485 0.0
H335 H 0.96768 0.85518 0.18981 0.0
C336 C 0.97247 0.75429 0.80267 0.0
C337 C 0.92568 0.76197 0.7755 0.0
C338 C 0.01298 0.77023 0.79672 0.0
C339 C 1.00678 0.79431 0.76234 0.0
C340 C 0.9595 0.80319 0.73654 0.0
C341 C 0.91948 0.78701 0.74359 0.0
C342 C 0.0626 0.75997 0.82529 0.0
C343 C 0.95128 0.82859 0.69943 0.0
C344 C 0.12018 0.84193 0.77296 0.0
C345 C 0.14222 0.8257 0.74215 0.0
C346 C 0.07446 0.83325 0.7778 0.0
C347 C 0.05008 0.80804 0.75075 0.0
C348 C 0.07043 0.7934 0.71651 0.0
C349 C 0.11634 0.80226 0.7129 0.0
C350 C 0.05433 0.84932 0.81496 0.0
C351 C 0.04545 0.76676 0.6863 0.0
H352 H 0.9776 0.73506 0.82753 0.0
H353 H 0.88351 0.79295 0.72212 0.0
H354 H 0.08008 0.74709 0.80103 0.0
H355 H 0.08582 0.77998 0.83955 0.0
H356 H 0.06113 0.74488 0.85618 0.0
H357 H 0.91266 0.83532 0.68703 0.0
H358 H 0.97304 0.84907 0.71451 0.0
H359 H 0.96316 0.82088 0.66741 0.0
H360 H 0.14024 0.85977 0.79623 0.0
H361 H 0.13326 0.78964 0.68909 0.0
H362 H 0.05845 0.83423 0.84706 0.0
H363 H 0.01524 0.85402 0.80014 0.0
H364 H 0.07331 0.87127 0.8272 0.0
H365 H 0.04652 0.74649 0.70999 0.0
H366 H 0.06285 0.7605 0.65721 0.0
H367 H 1.00695 0.77223 0.66939 0.0
C368 C 0.94654 0.24682 0.74795 0.0
C369 C 0.95011 0.27542 0.77122 0.0
C370 C 0.98822 0.2303 0.74621 0.0
C371 C 0.03447 0.24251 0.76876 0.0
C372 C 0.03812 0.27073 0.79404 0.0
C373 C 0.99604 0.28686 0.79467 0.0
C374 C 0.98281 0.20037 0.71877 0.0
C375 C 0.08661 0.28442 0.81925 0.0
C376 C 0.1505 0.19576 0.7989 0.0
C377 C 0.1725 0.20603 0.76334 0.0
C378 C 0.10432 0.20613 0.79971 0.0
C379 C 0.07934 0.22702 0.76386 0.0
C380 C 0.1 0.23576 0.72601 0.0
C381 C 0.14633 0.22529 0.72633 0.0
C382 C 0.08376 0.19631 0.84079 0.0
C383 C 0.07446 0.25772 0.68675 0.0
H384 H 0.91124 0.23785 0.72956 0.0
H385 H 0.99922 0.3088 0.81303 0.0
H386 H 0.99701 0.20292 0.68645 0.0
H387 H 1.00431 0.18215 0.74179 0.0
H388 H 0.94457 0.19279 0.70652 0.0
H389 H 0.0832 0.30576 0.83934 0.0
H390 H 0.10844 0.26767 0.84519 0.0
H391 H 0.10684 0.2898 0.79214 0.0
H392 H 0.17044 0.181 0.8278 0.0
H393 H 0.16285 0.23317 0.69851 0.0
H394 H 0.04538 0.18947 0.82683 0.0
H395 H 0.08506 0.21588 0.86595 0.0
H396 H 0.10422 0.1769 0.86172 0.0
H397 H 0.03658 0.25035 0.67095 0.0
H398 H 0.09273 0.25954 0.65711 0.0
H399 H 0.07339 0.28085 0.70266 0.0
C400 C 0.10015 0.24196 0.28021 0.0
C401 C 0.09449 0.2673 0.24892 0.0
C402 C 0.05982 0.22536 0.28571 0.0
C403 C 0.01277 0.23412 0.25897 0.0
C404 C 1.00719 0.25865 0.22542 0.0
C405 C 0.04796 0.27499 0.22105 0.0
C406 C 0.06743 0.19953 0.32202 0.0
C407 C 0.95788 0.26884 0.19591 0.0
C408 C 0.8995 0.18538 0.24361 0.0
C409 C 0.87621 0.20086 0.27407 0.0
C410 C 0.94555 0.19467 0.24036 0.0
C411 C 0.96896 0.21973 0.2687 0.0
C412 C 0.94717 0.23361 0.30247 0.0
C413 C 0.90095 0.2242 0.30439 0.0
C414 C 0.96718 0.17943 0.20359 0.0
C415 C 0.97092 0.26009 0.33393 0.0
H416 H 0.13589 0.23597 0.30218 0.0
H417 H 0.0432 0.29442 0.1966 0.0
H418 H 0.05398 0.20655 0.35343 0.0
H419 H 0.0466 0.17898 0.30567 0.0
H420 H 0.10612 0.19317 0.33561 0.0
H421 H 0.96005 0.28442 0.1658 0.0
H422 H 0.9352 0.24884 0.18041 0.0
H423 H 0.93935 0.28116 0.21983 0.0
H424 H 0.88014 0.16776 0.21934 0.0
H425 H 0.88286 0.23636 0.32769 0.0
H426 H 1.00591 0.17422 0.21979 0.0
H427 H 0.96498 0.1953 0.17275 0.0
H428 H 0.94805 0.15788 0.18921 0.0
H429 H 1.00933 0.25483 0.35165 0.0
H430 H 0.95245 0.26568 0.36248 0.0
H431 H 0.97008 0.2807 0.31101 0.0
C432 C 0.97765 0.36299 0.89539 0.0
C433 C 0.9355 0.38047 0.88825 0.0
C434 C 0.01237 0.36281 0.94059 0.0
C435 C 1.00541 0.38135 0.97903 0.0
C436 C 0.96437 0.40067 0.97071 0.0
C437 C 0.92939 0.39947 0.92578 0.0
C438 C 0.05481 0.34123 0.94811 0.0
C439 C 0.95627 0.42159 0.00993 0.0
C440 C 0.06386 0.3553 0.10874 0.0
C441 C 0.1074 0.37157 0.11965 0.0
C442 C 0.03008 0.35846 0.06324 0.0
C443 C 0.03955 0.37915 0.02853 0.0
C444 C 0.0825 0.39679 0.04061 0.0
C445 C 0.11639 0.39229 0.08563 0.0
C446 C 0.98536 0.33864 0.05155 0.0
C447 C 0.09315 0.41995 1.00561 0.0
H448 H 0.98171 0.34773 0.86679 0.0
H449 H 0.8964 0.41267 0.92042 0.0
H450 H 0.08916 0.35401 0.96131 0.0
H451 H 0.05315 0.32411 0.97635 0.0
H452 H 0.05555 0.32882 0.91432 0.0
H453 H 0.92663 0.43822 0.9956 0.0
H454 H 0.94682 0.40776 0.03865 0.0
H455 H 0.98974 0.43448 0.02718 0.0
H456 H 0.05741 0.33889 0.13482 0.0
H457 H 0.15025 0.40477 0.09415 0.0
H458 H 0.98512 0.32373 0.01997 0.0
H459 H 0.95253 0.35313 0.04124 0.0
H460 H 0.98315 0.32388 0.08257 0.0
H461 H 0.09925 0.408 0.97346 0.0
H462 H 0.12556 0.43399 0.02237 0.0
H463 H 0.0618 0.43548 0.99246 0.0
C464 C 0.04055 0.67641 0.12261 0.0
C465 C 0.0762 0.65379 0.13759 0.0
C466 C 1.00867 0.67605 0.07566 0.0
C467 C 0.01154 0.6521 0.04287 0.0
C468 C 0.04646 0.62867 0.05833 0.0
C469 C 0.07867 0.63001 0.10511 0.0
C470 C 0.97277 0.70186 0.0607 0.0
C471 C 0.05016 0.60232 0.02524 0.0
C472 C 0.89823 0.64024 0.93857 0.0
C473 C 0.91059 0.65456 0.89954 0.0
C474 C 0.93134 0.63815 0.98465 0.0
C475 C 0.97774 0.65155 0.99267 0.0
C476 C 0.99084 0.66553 0.95309 0.0
C477 C 0.95735 0.66651 0.90689 0.0
C478 C 0.91609 0.6223 0.02516 0.0
C479 C 0.03945 0.6807 0.96003 0.0
H480 H 0.03878 0.69519 0.14697 0.0
H481 H 0.10619 0.61252 0.11613 0.0
H482 H 0.97898 0.71381 0.02861 0.0
H483 H 0.93549 0.6926 0.04993 0.0
H484 H 0.97532 0.71889 0.09022 0.0
H485 H 0.07731 0.58504 0.04353 0.0
H486 H 0.01459 0.59084 0.01217 0.0
H487 H 0.06035 0.61103 0.99285 0.0
H488 H 0.86215 0.63101 0.93322 0.0
H489 H 0.9669 0.6781 0.87718 0.0
H490 H 0.91351 0.63929 0.05328 0.0
H491 H 0.94352 0.60506 0.04285 0.0
H492 H 0.88061 0.61067 0.01208 0.0
H493 H 0.04284 0.70007 0.98595 0.0
H494 H 0.0449 0.6896 0.92544 0.0
H495 H 0.06881 0.66427 0.97596 0.0
C496 C 0.59004 0.85537 0.09106 0.0
C497 C 0.5913 0.87653 0.12846 0.0
C498 C 0.5533 0.85573 0.04766 0.0
C499 C 0.51634 0.878 0.04082 0.0
C500 C 0.51702 0.8995 0.0785 0.0
C501 C 0.55432 0.89831 0.12227 0.0
C502 C 0.55385 0.83184 0.0094 0.0
C503 C 0.47858 0.92382 0.07233 0.0
C504 C 0.44629 0.88708 0.90769 0.0
C505 C 0.40582 0.86849 0.90509 0.0
C506 C 0.48119 0.89194 0.95226 0.0
C507 C 0.47611 0.87734 0.99504 0.0
C508 C 0.43492 0.85897 0.99263 0.0
C509 C 0.40029 0.85501 0.94801 0.0
C510 C 0.52423 0.91201 0.95332 0.0
C511 C 0.42847 0.84221 0.03677 0.0
H512 H 0.61779 0.83794 0.09613 0.0
H513 H 0.55513 0.9147 0.15101 0.0
H514 H 0.52047 0.81781 1.0022 0.0
H515 H 0.55455 0.84311 0.97482 0.0
H516 H 0.5855 0.81627 0.02031 0.0
H517 H 0.4851 0.93954 0.10403 0.0
H518 H 0.47715 0.93749 0.03923 0.0
H519 H 0.44268 0.91294 0.06726 0.0
H520 H 0.45076 0.89778 0.87493 0.0
H521 H 0.36938 0.84043 0.94655 0.0
H522 H 0.55727 0.89771 0.96005 0.0
H523 H 0.52969 0.92884 0.98345 0.0
H524 H 0.52013 0.9246 0.91868 0.0
H525 H 0.45729 0.82473 0.04834 0.0
H526 H 0.39291 0.83052 0.02969 0.0
H527 H 0.43189 0.85834 0.06752 0.0
C528 C 0.56379 0.16545 0.11184 0.0
C529 C 0.60994 0.15256 0.11962 0.0
C530 C 0.53015 0.16391 0.06585 0.0
C531 C 0.54251 0.14835 0.02711 0.0
C532 C 0.58808 0.13375 0.03583 0.0
C533 C 0.62145 0.13649 0.08161 0.0
C534 C 0.48246 0.18037 0.05806 0.0
C535 C 0.60237 0.11616 0.99625 0.0
C536 C 0.44099 0.12822 0.91455 0.0
C537 C 0.44568 0.15129 0.88182 0.0
C538 C 0.47268 0.1266 0.96153 0.0
C539 C 0.50932 0.14901 0.97678 0.0
C540 C 0.51453 0.17213 0.94367 0.0
C541 C 0.4831 0.17278 0.8966 0.0
C542 C 0.46654 0.1011 0.99506 0.0
C543 C 0.55245 0.19683 0.95843 0.0
H544 H 0.55505 0.17832 0.14088 0.0
H545 H 0.65711 0.12652 0.08747 0.0
H546 H 0.48068 0.19943 0.03193 0.0
H547 H 0.45214 0.16461 0.04202 0.0
H548 H 0.47715 0.18997 0.09233 0.0
H549 H 0.63669 0.10337 0.01021 0.0
H550 H 0.57356 0.09967 0.9788 0.0
H551 H 0.60689 0.13224 0.96773 0.0
H552 H 0.41211 0.11158 0.90364 0.0
H553 H 0.48667 0.19097 0.87198 0.0
H554 H 0.45631 0.11083 0.02683 0.0
H555 H 0.5012 0.08874 1.00909 0.0
H556 H 0.43842 0.08436 0.97679 0.0
H557 H 0.54658 0.20987 0.98977 0.0
H558 H 0.5519 0.21314 0.92845 0.0
H559 H 0.58889 0.1864 0.97024 0.0
C560 C 0.25981 0.58081 0.30257 0.0
C561 C 0.21499 0.5954 0.29605 0.0
C562 C 0.26395 0.5487 0.30688 0.0
C563 C 0.22209 0.53065 0.30323 0.0
C564 C 0.17732 0.5454 0.29956 0.0
C565 C 0.17446 0.57755 0.29663 0.0
C566 C 0.31264 0.53402 0.31219 0.0
C567 C 0.13153 0.52721 0.29448 0.0
C568 C 0.21771 0.45376 0.23968 0.0
C569 C 0.22247 0.43273 0.27783 0.0
C570 C 0.21752 0.48545 0.2477 0.0
C571 C 0.22351 0.49677 0.2954 0.0
C572 C 0.22932 0.47574 0.33441 0.0
C573 C 0.22796 0.44389 0.32506 0.0
C574 C 0.20992 0.50684 0.20473 0.0
C575 C 0.23702 0.48689 0.3859 0.0
H576 H 0.29141 0.59441 0.3026 0.0
H577 H 0.13959 0.5885 0.29144 0.0
H578 H 0.31874 0.51536 0.33951 0.0
H579 H 0.31393 0.52367 0.27706 0.0
H580 H 0.34251 0.55092 0.32308 0.0
H581 H 0.10097 0.54188 0.29786 0.0
H582 H 0.12134 0.51593 0.25834 0.0
H583 H 0.13706 0.50887 0.32225 0.0
H584 H 0.21278 0.4454 0.20293 0.0
H585 H 0.2318 0.42777 0.35469 0.0
H586 H 0.24148 0.52227 0.20926 0.0
H587 H 0.1778 0.52147 0.20251 0.0
H588 H 0.20463 0.49431 0.16982 0.0
H589 H 0.26839 0.5027 0.39549 0.0
H590 H 0.24341 0.46773 0.41242 0.0
H591 H 0.20502 0.50002 0.38933 0.0
C592 C 0.75708 0.57964 0.72762 0.0
C593 C 0.79669 0.59735 0.72398 0.0
C594 C 0.75607 0.54784 0.71982 0.0
C595 C 0.79627 0.53321 0.7095 0.0
C596 C 0.83473 0.55132 0.70216 0.0
C597 C 0.83424 0.58327 0.70901 0.0
C598 C 0.71376 0.52961 0.72685 0.0
C599 C 0.87861 0.53675 0.6918 0.0
C600 C 0.82372 0.45618 0.77156 0.0
C601 C 0.80752 0.43541 0.73321 0.0
C602 C 0.82184 0.48785 0.76371 0.0
C603 C 0.80216 0.49935 0.71628 0.0
C604 C 0.7864 0.47853 0.67702 0.0
C605 C 0.78989 0.44664 0.68587 0.0
C606 C 0.84021 0.50899 0.80662 0.0
C607 C 0.76448 0.48993 0.62614 0.0
H608 H 0.72771 0.5905 0.73866 0.0
H609 H 0.86503 0.59685 0.70632 0.0
H610 H 0.70297 0.51166 0.6985 0.0
H611 H 0.72429 0.51794 0.7626 0.0
H612 H 0.68206 0.54445 0.72583 0.0
H613 H 0.90081 0.55376 0.67838 0.0
H614 H 0.90131 0.52643 0.72569 0.0
H615 H 0.86807 0.51811 0.66464 0.0
H616 H 0.83829 0.44757 0.80813 0.0
H617 H 0.77747 0.43058 0.6562 0.0
H618 H 0.80983 0.52256 0.81307 0.0
H619 H 0.8668 0.52541 0.79904 0.0
H620 H 0.85763 0.49631 0.84042 0.0
H621 H 0.72977 0.5016 0.62453 0.0
H622 H 0.75761 0.47102 0.59909 0.0
H623 H 0.78851 0.50705 0.61581 0.0
C624 C 0.76206 0.95074 0.29325 0.0
C625 C 0.72322 0.9336 0.30033 0.0
C626 C 0.76417 0.98265 0.30002 0.0
C627 C 0.72581 0.99796 0.31288 0.0
C628 C 0.68846 0.98045 0.32384 0.0
C629 C 0.68786 0.94838 0.31788 0.0
C630 C 0.80535 1.00022 0.28912 0.0
C631 C 0.6466 0.99572 0.33717 0.0
C632 C 0.73745 0.08468 0.33385 0.0
C633 C 0.71757 0.09551 0.28663 0.0
C634 C 0.73958 0.0529 0.34366 0.0
C635 C 0.72034 0.03182 0.30552 0.0
C636 C 0.69809 0.04304 0.2584 0.0
C637 C 0.69755 0.0746 0.24951 0.0
C638 C 0.76419 0.04185 0.39414 0.0
C639 C 0.67607 0.02164 0.21676 0.0
H640 H 0.78968 0.93936 0.28005 0.0
H641 H 0.65757 0.93527 0.32312 0.0
H642 H 0.79257 1.01159 0.25328 0.0
H643 H 0.81845 0.01838 0.31669 0.0
H644 H 0.83607 0.98499 0.28808 0.0
H645 H 0.62569 0.97923 0.35319 0.0
H646 H 0.65924 0.01473 0.36326 0.0
H647 H 0.62199 1.0057 0.30403 0.0
H648 H 0.75306 0.10088 0.3625 0.0
H649 H 0.68163 0.08304 0.21306 0.0
H650 H 0.79852 0.03028 0.39385 0.0
H651 H 0.7414 0.02475 0.40641 0.0
H652 H 0.77241 0.06096 0.4208 0.0
H653 H 0.70482 1.00753 0.20805 0.0
H654 H 0.65672 0.03419 0.18346 0.0
H655 H 0.65031 1.00574 0.22705 0.0
C656 C 0.30003 0.95377 0.7793 0.0
C657 C 0.29769 0.93256 0.74177 0.0
C658 C 0.30085 0.98543 0.77111 0.0
C659 C 0.29789 0.99645 0.7238 0.0
C660 C 0.29419 0.97522 0.68533 0.0
C661 C 0.29492 0.94346 0.69492 0.0
C662 C 0.3061 1.00707 0.81356 0.0
C663 C 0.28962 0.98606 0.63418 0.0
C664 C 0.26331 0.08077 0.7129 0.0
C665 C 0.30868 0.09491 0.72159 0.0
C666 C 0.25868 0.04867 0.70925 0.0
C667 C 0.30055 0.03021 0.71587 0.0
C668 C 0.34606 0.04447 0.72182 0.0
C669 C 0.34946 0.07661 0.72395 0.0
C670 C 0.2093 0.03447 0.70134 0.0
C671 C 0.39181 0.02582 0.73012 0.0
H672 H 0.30275 0.94559 0.81575 0.0
H673 H 0.2929 0.92719 0.66574 0.0
H674 H 0.33889 0.0214 0.81779 0.0
H675 H 0.27469 0.0228 0.80682 0.0
H676 H 0.30884 0.99477 0.84822 0.0
H677 H 0.28383 0.96679 0.60781 0.0
H678 H 0.25903 1.00235 0.62291 0.0
H679 H 0.32278 0.99855 0.63254 0.0
H680 H 0.23158 0.09474 0.71068 0.0
H681 H 0.38474 0.08725 0.73094 0.0
H682 H 0.20564 0.02459 0.73596 0.0
H683 H 0.20436 0.01553 0.6745 0.0
H684 H 0.18003 0.05156 0.68848 0.0
H685 H 0.39941 0.0147 0.76628 0.0
H686 H 0.42345 0.04013 0.72882 0.0
H687 H 0.38765 1.00735 0.70264 0.0
C688 C 0.27631 0.26086 0.62216 0.0
C689 C 0.29385 0.23056 0.6279 0.0
C690 C 0.26168 0.27475 0.57651 0.0
C691 C 0.26378 0.25797 0.53486 0.0
C692 C 0.2796 0.227 0.53979 0.0
C693 C 0.29472 0.21365 0.58637 0.0
C694 C 0.2457 0.30789 0.57318 0.0
C695 C 0.28163 0.20825 0.49597 0.0
C696 C 0.19509 0.29145 0.41275 0.0
C697 C 0.2325 0.30536 0.39743 0.0
C698 C 0.20473 0.27542 0.45704 0.0
C699 C 0.25274 0.27382 0.48693 0.0
C700 C 0.29025 0.28882 0.47223 0.0
C701 C 0.27973 0.3041 0.42748 0.0
C702 C 0.16386 0.25946 0.47117 0.0
C703 C 0.3417 0.28839 0.50346 0.0
H704 H 0.27487 0.27428 0.6537 0.0
H705 H 0.3078 0.19024 0.59026 0.0
H706 H 0.27117 0.32203 0.55917 0.0
H707 H 0.20955 0.31027 0.54729 0.0
H708 H 0.24409 0.31734 0.60884 0.0
H709 H 0.29062 0.18385 0.50528 0.0
H710 H 0.24646 0.20933 0.46808 0.0
H711 H 0.30931 0.21791 0.47948 0.0
H712 H 0.15876 0.29165 0.38892 0.0
H713 H 0.30875 0.31452 0.41531 0.0
H714 H 0.16049 0.26839 0.5065 0.0
H715 H 0.17166 0.23457 0.47589 0.0
H716 H 0.12874 0.26252 0.44363 0.0
H717 H 0.34346 0.29827 0.53969 0.0
H718 H 0.36652 0.30151 0.48702 0.0
H719 H 0.35482 0.26441 0.50921 0.0
C720 C 0.74363 0.29667 0.60098 0.0
C721 C 0.79197 0.3047 0.6223 0.0
C722 C 0.72953 0.28269 0.55509 0.0
C723 C 0.76468 0.27608 0.52995 0.0
C724 C 0.81341 0.2848 0.55071 0.0
C725 C 0.82643 0.29923 0.59651 0.0
C726 C 0.67707 0.27447 0.53393 0.0
C727 C 0.85203 0.27805 0.52517 0.0
C728 C 0.73755 0.21377 0.43212 0.0
C729 C 0.72617 0.23144 0.38979 0.0
C730 C 0.7499 0.22797 0.47817 0.0
C731 C 0.75025 0.26048 0.48162 0.0
C732 C 0.73695 0.27821 0.43869 0.0
C733 C 0.72552 0.26348 0.39342 0.0
C734 C 0.76403 0.20826 0.52307 0.0
C735 C 0.73585 0.3128 0.44048 0.0
H736 H 0.71679 0.30085 0.62072 0.0
H737 H 0.86391 0.30494 0.61307 0.0
H738 H 0.66343 0.28508 0.49759 0.0
H739 H 0.67329 0.24928 0.52899 0.0
H740 H 0.65396 0.2821 0.55736 0.0
H741 H 0.88815 0.28638 0.54597 0.0
H742 H 0.85415 0.25297 0.51951 0.0
H743 H 0.84271 0.28896 0.48882 0.0
H744 H 0.73869 0.18902 0.42918 0.0
H745 H 0.71685 0.2771 0.3605 0.0
H746 H 0.74081 0.21362 0.54747 0.0
H747 H 0.80182 0.21337 0.54342 0.0
H748 H 0.76099 0.1834 0.51435 0.0
H749 H 0.71263 0.32055 0.46366 0.0
H750 H 0.72216 0.32313 0.40387 0.0
H751 H 0.77273 0.32171 0.45699 0.0
C752 C 0.74285 0.76815 0.39745 0.0
C753 C 0.72374 0.798 0.39111 0.0
C754 C 0.75592 0.75416 0.4431 0.0
C755 C 0.7505 0.77045 0.48407 0.0
C756 C 0.73103 0.80059 0.47817 0.0
C757 C 0.7173 0.81395 0.4315 0.0
C758 C 0.77523 0.72175 0.44732 0.0
C759 C 0.7252 0.81877 0.5212 0.0
C760 C 0.74152 0.72364 0.59345 0.0
C761 C 0.78883 0.7251 0.62336 0.0
C762 C 0.7287 0.73816 0.54806 0.0
C763 C 0.7638 0.75524 0.53258 0.0
C764 C 0.81193 0.75641 0.56238 0.0
C765 C 0.82401 0.74105 0.60732 0.0
C766 C 0.67736 0.73556 0.51698 0.0
C767 C 0.85027 0.77463 0.54741 0.0
H768 H 0.74725 0.75541 0.36628 0.0
H769 H 0.70273 0.837 0.42682 0.0
H770 H 0.81201 0.72109 0.47243 0.0
H771 H 0.75199 0.70666 0.4628 0.0
H772 H 0.77689 0.71216 0.41175 0.0
H773 H 0.71089 0.84217 0.51087 0.0
H774 H 0.70029 0.80666 0.53868 0.0
H775 H 0.76053 0.82075 0.5487 0.0
H776 H 0.71418 0.71163 0.60621 0.0
H777 H 0.86026 0.74291 0.63104 0.0
H778 H 0.67697 0.72578 0.481 0.0
H779 H 0.6607 0.75864 0.51056 0.0
H780 H 0.65471 0.72089 0.53391 0.0
H781 H 0.85522 0.76558 0.51274 0.0
H782 H 0.8856 0.77394 0.57521 0.0
H783 H 0.83868 0.79888 0.54107 0.0
C784 C 0.3317 0.78896 0.61001 0.0
C785 C 0.29535 0.80678 0.62099 0.0
C786 C 0.32292 0.77254 0.56603 0.0
C787 C 0.27703 0.77454 0.53196 0.0
C788 C 0.24102 0.79362 0.54222 0.0
C789 C 0.25041 0.80911 0.58684 0.0
C790 C 0.36203 0.7521 0.55692 0.0
C791 C 0.19205 0.7971 0.50653 0.0
C792 C 0.26112 0.75765 0.39843 0.0
C793 C 0.23586 0.72964 0.392 0.0
C794 C 0.27622 0.77183 0.44396 0.0
C795 C 0.26666 0.75759 0.4848 0.0
C796 C 0.2436 0.72849 0.47936 0.0
C797 C 0.22828 0.71486 0.43293 0.0
C798 C 0.30027 0.80289 0.44778 0.0
C799 C 0.23355 0.71231 0.52229 0.0
H800 H 0.36596 0.78633 0.63708 0.0
H801 H 0.22204 0.82244 0.59577 0.0
H802 H 0.34928 0.72799 0.55302 0.0
H803 H 0.37025 0.75858 0.52244 0.0
H804 H 0.39585 0.75331 0.58677 0.0
H805 H 0.16866 0.81364 0.51932 0.0
H806 H 0.19621 0.80504 0.47097 0.0
H807 H 0.17346 0.77459 0.50046 0.0
H808 H 0.26805 0.76918 0.36736 0.0
H809 H 0.20916 0.69319 0.42853 0.0
H810 H 0.33464 0.80279 0.47683 0.0
H811 H 0.27651 0.82039 0.45772 0.0
H812 H 0.308 0.80995 0.41324 0.0
H813 H 0.26669 0.71153 0.55291 0.0
H814 H 0.22031 0.68853 0.51327 0.0
H815 H 0.20588 0.72521 0.53493 0.0
C816 C 0.30093 0.28068 0.12219 0.0
C817 C 0.25714 0.2738 0.13282 0.0
C818 C 0.31358 0.26666 0.08347 0.0
C819 C 0.28178 0.24498 0.05505 0.0
C820 C 0.23936 0.23606 0.06797 0.0
C821 C 0.22744 0.25065 0.1071 0.0
C822 C 0.35928 0.27664 0.07102 0.0
C823 C 0.20506 0.21271 0.0385 0.0
C824 C 0.28092 0.24663 0.92299 0.0
C825 C 0.30965 0.22122 0.91953 0.0
C826 C 0.27045 0.25393 0.9667 0.0
C827 C 0.28956 0.2355 1.00807 0.0
C828 C 0.31886 0.20991 1.00508 0.0
C829 C 0.32863 0.20305 0.96068 0.0
C830 C 0.23945 0.28167 0.96871 0.0
C831 C 0.34022 0.19002 0.04869 0.0
H832 H 0.32469 0.29797 0.14321 0.0
H833 H 0.19388 0.2452 0.11583 0.0
H834 H 0.3832 0.25661 0.07167 0.0
H835 H 0.35046 0.2863 0.03379 0.0
H836 H 0.37951 0.29427 0.0965 0.0
H837 H 0.17777 0.20506 0.05721 0.0
H838 H 0.18586 0.22286 1.00304 0.0
H839 H 0.22519 0.19241 0.0309 0.0
H840 H 0.26574 0.26058 0.89124 0.0
H841 H 0.35091 0.18337 0.95815 0.0
H842 H 0.26063 0.29878 0.9945 0.0
H843 H 0.20803 0.27501 0.98217 0.0
H844 H 0.22586 0.2928 0.93272 0.0
H845 H 0.36895 0.20287 0.07497 0.0
H846 H 0.35624 0.16862 0.03866 0.0
H847 H 0.31229 0.18386 0.06747 0.0
C848 C 0.72992 0.26013 0.08889 0.0
C849 C 0.76168 0.24258 0.12414 0.0
C850 C 0.74356 0.27009 0.0477 0.0
C851 C 0.78993 0.26232 0.04249 0.0
C852 C 0.8228 0.24585 0.07932 0.0
C853 C 0.80832 0.23634 0.11987 0.0
C854 C 0.70776 0.28774 1.00885 0.0
C855 C 0.87268 0.23746 0.07532 0.0
C856 C 0.8018 0.25941 0.91379 0.0
C857 C 0.82042 0.28855 0.90977 0.0
C858 C 0.79294 0.25012 0.95759 0.0
C859 C 0.80352 0.2705 0.99774 0.0
C860 C 0.82575 0.29902 0.99462 0.0
C861 C 0.83366 0.3078 0.95036 0.0
C862 C 0.76985 0.21929 0.96015 0.0
C863 C 0.83856 0.32098 0.03702 0.0
H864 H 0.69387 0.26471 0.09233 0.0
H865 H 0.83315 0.22311 0.14779 0.0
H866 H 0.72421 0.30944 1.00074 0.0
H867 H 0.69793 0.27409 0.97483 0.0
H868 H 0.67424 0.29324 0.01957 0.0
H869 H 0.89158 0.22157 0.10454 0.0
H870 H 0.87064 0.22647 0.03979 0.0
H871 H 0.89478 0.25852 0.07747 0.0
H872 H 0.79096 0.24488 0.88192 0.0
H873 H 0.84795 0.33044 0.94669 0.0
H874 H 0.73325 0.22258 0.96539 0.0
H875 H 0.79127 0.20611 0.99175 0.0
H876 H 0.76659 0.20549 0.92672 0.0
H877 H 0.80517 0.32858 0.0462 0.0
H878 H 0.858 0.34156 0.02918 0.0
H879 H 0.86151 0.30938 0.06953 0.0
C880 C 0.79872 0.75965 0.92869 0.0
C881 C 0.76398 0.74497 0.89209 0.0
C882 C 0.78686 0.77006 0.97053 0.0
C883 C 0.73919 0.76581 0.97482 0.0
C884 C 0.70361 0.75213 0.9368 0.0
C885 C 0.71649 0.74194 0.89571 0.0
C886 C 0.82567 0.78431 0.01096 0.0
C887 C 0.65221 0.74777 0.93967 0.0
C888 C 0.72288 0.76355 0.1017 0.0
C889 C 0.71077 0.79407 0.10742 0.0
C890 C 0.73161 0.75381 0.05809 0.0
C891 C 0.72681 0.77506 0.01962 0.0
C892 C 0.71122 0.80531 0.0243 0.0
C893 C 0.70419 0.81462 0.06863 0.0
C894 C 0.74781 0.72124 0.05377 0.0
C895 C 0.70394 0.82816 0.98331 0.0
H896 H 0.83546 0.76154 0.92567 0.0
H897 H 0.68964 0.73074 0.86676 0.0
H898 H 0.81411 0.80735 0.01996 0.0
H899 H 0.83153 0.77004 0.04415 0.0
H900 H 0.86055 0.78659 1.00135 0.0
H901 H 0.6321 0.7313 0.91195 0.0
H902 H 0.65105 0.73932 0.97594 0.0
H903 H 0.6332 0.77014 0.93372 0.0
H904 H 0.72848 0.74792 0.13218 0.0
H905 H 0.69501 0.83831 0.07355 0.0
H906 H 0.78449 0.72125 0.0479 0.0
H907 H 0.72328 0.7099 0.02185 0.0
H908 H 0.74863 0.70745 0.08665 0.0
H909 H 0.7391 0.83324 0.97577 0.0
H910 H 0.68801 0.85001 0.99178 0.0
H911 H 0.67987 0.81839 0.94965 0.0
C912 C 0.23867 0.74803 0.09362 0.0
C913 C 0.21065 0.72246 0.09805 0.0
C914 C 0.24802 0.75514 0.04931 0.0
C915 C 0.22859 0.73632 1.0084 0.0
C916 C 0.19994 0.71061 0.01238 0.0
C917 C 0.19117 0.704 0.05727 0.0
C918 C 0.27827 0.78305 0.04617 0.0
C919 C 0.17834 0.69025 0.96934 0.0
C920 C 0.21396 0.77969 0.8921 0.0
C921 C 0.2574 0.77281 0.88072 0.0
C922 C 0.20267 0.76639 0.93205 0.0
C923 C 0.23539 0.74537 0.96085 0.0
C924 C 0.27744 0.73639 0.94726 0.0
C925 C 0.28806 0.75032 0.907 0.0
C926 C 0.15735 0.77643 0.94524 0.0
C927 C 0.31268 0.71368 0.97709 0.0
H928 H 0.25418 0.76222 0.12505 0.0
H929 H 0.1694 0.68421 0.0605 0.0
H930 H 0.30953 0.77646 0.0324 0.0
H931 H 0.25645 0.79976 0.02013 0.0
H932 H 0.29204 0.79462 0.08182 0.0
H933 H 0.16307 0.66881 0.98012 0.0
H934 H 0.149 0.7027 0.94323 0.0
H935 H 0.20592 0.68414 0.95008 0.0
H936 H 0.18953 0.79653 0.87079 0.0
H937 H 0.32145 0.74493 0.89784 0.0
H938 H 0.13687 0.79406 0.92003 0.0
H939 H 0.1666 0.78608 0.98253 0.0
H940 H 0.13347 0.7564 0.94481 0.0
H941 H 0.33216 0.72445 0.01198 0.0
H942 H 0.33969 0.70592 0.95807 0.0
H943 H 0.29328 0.69337 0.98581 0.0
loop_
_geom_bond_atom_site_label_1
_geom_bond_atom_site_label_2
_geom_bond_distance
_geom_bond_site_symmetry_2
_ccdc_geom_bond_type
Fe0 O2 1.918 . S
Fe0 O5 1.997 . S
Fe0 O6 2.002 . S
Fe0 O11 1.976 . S
Fe0 O14 1.996 . S
Fe1 O2 1.918 . S
Fe1 O9 1.997 . S
Fe1 O12 1.996 . S
Fe1 O16 1.976 . S
Fe1 O19 2.002 . S
O2 Fe0 1.918 . S
O2 Fe1 1.918 . S
O2 Fe3 1.918 . S
Fe3 O2 1.918 . S
Fe3 O4 2.002 . S
Fe3 O13 1.976 . S
Fe3 O17 1.996 . S
Fe3 O20 1.997 . S
O4 Fe3 2.002 . S
O4 C21 1.295 . S
O5 Fe0 1.997 . S
O5 C21 1.235 . S
O6 Fe0 2.002 . S
O6 C7 1.295 . S
C7 O6 1.295 . S
C7 O9 1.235 . S
C8 O13 1.287 . S
C8 O14 1.255 . S
O9 Fe1 1.997 . S
O9 C7 1.235 . S
C10 O16 1.287 . S
C10 O17 1.255 . S
O11 Fe0 1.976 . S
O11 C18 1.287 . S
O12 Fe1 1.996 . S
O12 C18 1.255 . S
O13 Fe3 1.976 . S
O13 C8 1.287 . S
O14 Fe0 1.996 . S
O14 C8 1.255 . S
C15 O19 1.295 . S
C15 O20 1.235 . S
O16 Fe1 1.976 . S
O16 C10 1.287 . S
O17 Fe3 1.996 . S
O17 C10 1.255 . S
C18 O11 1.287 . S
C18 O12 1.255 . S
O19 Fe1 2.002 . S
O19 C15 1.295 . S
O20 Fe3 1.997 . S
O20 C15 1.235 . S
C21 O4 1.295 . S
C21 O5 1.235 . S
Fe22 O24 1.918 . S
Fe22 O27 1.997 . S
Fe22 O28 2.002 . S
Fe22 O33 1.976 . S
Fe22 O36 1.996 . S
Fe23 O24 1.918 . S
Fe23 O31 1.997 . S
Fe23 O34 1.996 . S
Fe23 O38 1.976 . S
Fe23 O41 2.002 . S
O24 Fe22 1.918 . S
O24 Fe23 1.918 . S
O24 Fe25 1.918 . S
Fe25 O24 1.918 . S
Fe25 O26 2.002 . S
Fe25 O35 1.976 . S
Fe25 O39 1.996 . S
Fe25 O42 1.997 . S
O26 Fe25 2.002 . S
O26 C43 1.295 . S
O27 Fe22 1.997 . S
O27 C43 1.235 . S
O28 Fe22 2.002 . S
O28 C29 1.295 . S
C29 O28 1.295 . S
C29 O31 1.235 . S
C30 O35 1.287 . S
C30 O36 1.255 . S
O31 Fe23 1.997 . S
O31 C29 1.235 . S
C32 O38 1.287 . S
C32 O39 1.255 . S
O33 Fe22 1.976 . S
O33 C40 1.287 . S
O34 Fe23 1.996 . S
O34 C40 1.255 . S
O35 Fe25 1.976 . S
O35 C30 1.287 . S
O36 Fe22 1.996 . S
O36 C30 1.255 . S
C37 O41 1.295 . S
C37 O42 1.235 . S
O38 Fe23 1.976 . S
O38 C32 1.287 . S
O39 Fe25 1.996 . S
O39 C32 1.255 . S
C40 O33 1.287 . S
C40 O34 1.255 . S
O41 Fe23 2.002 . S
O41 C37 1.295 . S
O42 Fe25 1.997 . S
O42 C37 1.235 . S
C43 O26 1.295 . S
C43 O27 1.235 . S
Fe44 O46 1.918 . S
Fe44 O49 1.997 . S
Fe44 O50 2.002 . S
Fe44 O55 1.976 . S
Fe44 O58 1.996 . S
Fe45 O46 1.918 . S
Fe45 O53 1.997 . S
Fe45 O56 1.996 . S
Fe45 O60 1.976 . S
Fe45 O63 2.002 . S
O46 Fe44 1.918 . S
O46 Fe45 1.918 . S
O46 Fe47 1.918 . S
Fe47 O46 1.918 . S
Fe47 O48 2.002 . S
Fe47 O57 1.976 . S
Fe47 O61 1.996 . S
Fe47 O64 1.997 . S
O48 Fe47 2.002 . S
O48 C65 1.295 . S
O49 Fe44 1.997 . S
O49 C65 1.235 . S
O50 Fe44 2.002 . S
O50 C51 1.295 . S
C51 O50 1.295 . S
C51 O53 1.235 . S
C52 O57 1.287 . S
C52 O58 1.255 . S
O53 Fe45 1.997 . S
O53 C51 1.235 . S
C54 O60 1.287 . S
C54 O61 1.255 . S
O55 Fe44 1.976 . S
O55 C62 1.287 . S
O56 Fe45 1.996 . S
O56 C62 1.255 . S
O57 Fe47 1.976 . S
O57 C52 1.287 . S
O58 Fe44 1.996 . S
O58 C52 1.255 . S
C59 O63 1.295 . S
C59 O64 1.235 . S
O60 Fe45 1.976 . S
O60 C54 1.287 . S
O61 Fe47 1.996 . S
O61 C54 1.255 . S
C62 O55 1.287 . S
C62 O56 1.255 . S
O63 Fe45 2.002 . S
O63 C59 1.295 . S
O64 Fe47 1.997 . S
O64 C59 1.235 . S
C65 O48 1.295 . S
C65 O49 1.235 . S
Fe66 O68 1.918 . S
Fe66 O71 1.997 . S
Fe66 O72 2.002 . S
Fe66 O77 1.976 . S
Fe66 O80 1.996 . S
Fe67 O68 1.918 . S
Fe67 O75 1.997 . S
Fe67 O78 1.996 . S
Fe67 O82 1.976 . S
Fe67 O85 2.002 . S
O68 Fe66 1.918 . S
O68 Fe67 1.918 . S
O68 Fe69 1.918 . S
Fe69 O68 1.918 . S
Fe69 O70 2.002 . S
Fe69 O79 1.976 . S
Fe69 O83 1.996 . S
Fe69 O86 1.997 . S
O70 Fe69 2.002 . S
O70 C87 1.295 . S
O71 Fe66 1.997 . S
O71 C87 1.235 . S
O72 Fe66 2.002 . S
O72 C73 1.295 . S
C73 O72 1.295 . S
C73 O75 1.235 . S
C74 O79 1.287 . S
C74 O80 1.255 . S
O75 Fe67 1.997 . S
O75 C73 1.235 . S
C76 O82 1.287 . S
C76 O83 1.255 . S
O77 Fe66 1.976 . S
O77 C84 1.287 . S
O78 Fe67 1.996 . S
O78 C84 1.255 . S
O79 Fe69 1.976 . S
O79 C74 1.287 . S
O80 Fe66 1.996 . S
O80 C74 1.255 . S
C81 O85 1.295 . S
C81 O86 1.235 . S
O82 Fe67 1.976 . S
O82 C76 1.287 . S
O83 Fe69 1.996 . S
O83 C76 1.255 . S
C84 O77 1.287 . S
C84 O78 1.255 . S
O85 Fe67 2.002 . S
O85 C81 1.295 . S
O86 Fe69 1.997 . S
O86 C81 1.235 . S
C87 O70 1.295 . S
C87 O71 1.235 . S
Fe88 O90 1.918 . S
Fe88 O93 1.997 . S
Fe88 O94 2.002 . S
Fe88 O99 1.976 . S
Fe88 O102 1.996 . S
Fe89 O90 1.918 . S
Fe89 O97 1.997 . S
Fe89 O100 1.996 . S
Fe89 O104 1.976 . S
Fe89 O107 2.002 . S
O90 Fe88 1.918 . S
O90 Fe89 1.918 . S
O90 Fe91 1.918 . S
Fe91 O90 1.918 . S
Fe91 O92 2.002 . S
Fe91 O101 1.976 . S
Fe91 O105 1.996 . S
Fe91 O108 1.997 . S
O92 Fe91 2.002 . S
O92 C109 1.295 . S
O93 Fe88 1.997 . S
O93 C109 1.235 . S
O94 Fe88 2.002 . S
O94 C95 1.295 . S
C95 O94 1.295 . S
C95 O97 1.235 . S
C96 O101 1.287 . S
C96 O102 1.255 . S
O97 Fe89 1.997 . S
O97 C95 1.235 . S
C98 O104 1.287 . S
C98 O105 1.255 . S
O99 Fe88 1.976 . S
O99 C106 1.287 . S
O100 Fe89 1.996 . S
O100 C106 1.255 . S
O101 Fe91 1.976 . S
O101 C96 1.287 . S
O102 Fe88 1.996 . S
O102 C96 1.255 . S
C103 O107 1.295 . S
C103 O108 1.235 . S
O104 Fe89 1.976 . S
O104 C98 1.287 . S
O105 Fe91 1.996 . S
O105 C98 1.255 . S
C106 O99 1.287 . S
C106 O100 1.255 . S
O107 Fe89 2.002 . S
O107 C103 1.295 . S
O108 Fe91 1.997 . S
O108 C103 1.235 . S
C109 O92 1.295 . S
C109 O93 1.235 . S
Fe110 O112 1.918 . S
Fe110 O115 1.997 . S
Fe110 O116 2.002 . S
Fe110 O121 1.976 . S
Fe110 O124 1.996 . S
Fe111 O112 1.918 . S
Fe111 O119 1.997 . S
Fe111 O122 1.996 . S
Fe111 O126 1.976 . S
Fe111 O129 2.002 . S
O112 Fe110 1.918 . S
O112 Fe111 1.918 . S
O112 Fe113 1.918 . S
Fe113 O112 1.918 . S
Fe113 O114 2.002 . S
Fe113 O123 1.976 . S
Fe113 O127 1.996 . S
Fe113 O130 1.997 . S
O114 Fe113 2.002 . S
O114 C131 1.295 . S
O115 Fe110 1.997 . S
O115 C131 1.235 . S
O116 Fe110 2.002 . S
O116 C117 1.295 . S
C117 O116 1.295 . S
C117 O119 1.235 . S
C118 O123 1.287 . S
C118 O124 1.255 . S
O119 Fe111 1.997 . S
O119 C117 1.235 . S
C120 O126 1.287 . S
C120 O127 1.255 . S
O121 Fe110 1.976 . S
O121 C128 1.287 . S
O122 Fe111 1.996 . S
O122 C128 1.255 . S
O123 Fe113 1.976 . S
O123 C118 1.287 . S
O124 Fe110 1.996 . S
O124 C118 1.255 . S
C125 O129 1.295 . S
C125 O130 1.235 . S
O126 Fe111 1.976 . S
O126 C120 1.287 . S
O127 Fe113 1.996 . S
O127 C120 1.255 . S
C128 O121 1.287 . S
C128 O122 1.255 . S
O129 Fe111 2.002 . S
O129 C125 1.295 . S
O130 Fe113 1.997 . S
O130 C125 1.235 . S
C131 O114 1.295 . S
C131 O115 1.235 . S
Fe132 O134 1.918 . S
Fe132 O137 1.997 . S
Fe132 O138 2.002 . S
Fe132 O143 1.976 . S
Fe132 O146 1.996 . S
Fe133 O134 1.918 . S
Fe133 O141 1.997 . S
Fe133 O144 1.996 . S
Fe133 O148 1.976 . S
Fe133 O151 2.002 . S
O134 Fe132 1.918 . S
O134 Fe133 1.918 . S
O134 Fe135 1.918 . S
Fe135 O134 1.918 . S
Fe135 O136 2.002 . S
Fe135 O145 1.976 . S
Fe135 O149 1.996 . S
Fe135 O152 1.997 . S
O136 Fe135 2.002 . S
O136 C153 1.295 . S
O137 Fe132 1.997 . S
O137 C153 1.235 . S
O138 Fe132 2.002 . S
O138 C139 1.295 . S
C139 O138 1.295 . S
C139 O141 1.235 . S
C140 O145 1.287 . S
C140 O146 1.255 . S
O141 Fe133 1.997 . S
O141 C139 1.235 . S
C142 O148 1.287 . S
C142 O149 1.255 . S
O143 Fe132 1.976 . S
O143 C150 1.287 . S
O144 Fe133 1.996 . S
O144 C150 1.255 . S
O145 Fe135 1.976 . S
O145 C140 1.287 . S
O146 Fe132 1.996 . S
O146 C140 1.255 . S
C147 O151 1.295 . S
C147 O152 1.235 . S
O148 Fe133 1.976 . S
O148 C142 1.287 . S
O149 Fe135 1.996 . S
O149 C142 1.255 . S
C150 O143 1.287 . S
C150 O144 1.255 . S
O151 Fe133 2.002 . S
O151 C147 1.295 . S
O152 Fe135 1.997 . S
O152 C147 1.235 . S
C153 O136 1.295 . S
C153 O137 1.235 . S
Fe154 O156 1.918 . S
Fe154 O159 1.997 . S
Fe154 O160 2.002 . S
Fe154 O165 1.976 . S
Fe154 O168 1.996 . S
Fe155 O156 1.918 . S
Fe155 O163 1.997 . S
Fe155 O166 1.996 . S
Fe155 O170 1.976 . S
Fe155 O173 2.002 . S
O156 Fe154 1.918 . S
O156 Fe155 1.918 . S
O156 Fe157 1.918 . S
Fe157 O156 1.918 . S
Fe157 O158 2.002 . S
Fe157 O167 1.976 . S
Fe157 O171 1.996 . S
Fe157 O174 1.997 . S
O158 Fe157 2.002 . S
O158 C175 1.295 . S
O159 Fe154 1.997 . S
O159 C175 1.235 . S
O160 Fe154 2.002 . S
O160 C161 1.295 . S
C161 O160 1.295 . S
C161 O163 1.235 . S
C162 O167 1.287 . S
C162 O168 1.255 . S
O163 Fe155 1.997 . S
O163 C161 1.235 . S
C164 O170 1.287 . S
C164 O171 1.255 . S
O165 Fe154 1.976 . S
O165 C172 1.287 . S
O166 Fe155 1.996 . S
O166 C172 1.255 . S
O167 Fe157 1.976 . S
O167 C162 1.287 . S
O168 Fe154 1.996 . S
O168 C162 1.255 . S
C169 O173 1.295 . S
C169 O174 1.235 . S
O170 Fe155 1.976 . S
O170 C164 1.287 . S
O171 Fe157 1.996 . S
O171 C164 1.255 . S
C172 O165 1.287 . S
C172 O166 1.255 . S
O173 Fe155 2.002 . S
O173 C169 1.295 . S
O174 Fe157 1.997 . S
O174 C169 1.235 . S
C175 O158 1.295 . S
C175 O159 1.235 . S
C176 C177 1.391 . S
C176 C178 1.394 . S
C176 H192 0.931 . S
C177 C176 1.391 . S
C177 C181 1.376 . S
C178 C176 1.394 . S
C178 C179 1.369 . S
C178 C182 1.531 . S
C179 C178 1.369 . S
C179 C180 1.410 . S
C179 C187 1.503 . S
C180 C179 1.410 . S
C180 C181 1.392 . S
C180 C183 1.511 . S
C181 C177 1.376 . S
C181 C180 1.392 . S
C181 H193 0.929 . S
C182 C178 1.531 . S
C182 H194 0.960 . S
C182 H195 0.962 . S
C182 H196 0.960 . S
C183 C180 1.511 . S
C183 H197 0.961 . S
C183 H198 0.961 . S
C183 H199 0.961 . S
C184 C185 1.370 . S
C184 C186 1.363 . S
C184 H200 0.931 . S
C185 C184 1.370 . S
C185 C189 1.408 . S
C186 C184 1.363 . S
C186 C187 1.370 . S
C186 C190 1.524 . S
C187 C179 1.503 . S
C187 C186 1.370 . S
C187 C188 1.403 . S
C188 C187 1.403 . S
C188 C189 1.404 . S
C188 C191 1.539 . S
C189 C185 1.408 . S
C189 C188 1.404 . S
C189 H201 0.930 . S
C190 C186 1.524 . S
C190 H202 0.956 . S
C190 H203 0.961 . S
C190 H204 0.961 . S
C191 C188 1.539 . S
C191 H205 0.958 . S
C191 H206 0.961 . S
C191 H207 0.960 . S
H192 C176 0.931 . S
H193 C181 0.929 . S
H194 C182 0.960 . S
H195 C182 0.962 . S
H196 C182 0.960 . S
H197 C183 0.961 . S
H198 C183 0.961 . S
H199 C183 0.961 . S
H200 C184 0.931 . S
H201 C189 0.930 . S
H202 C190 0.956 . S
H203 C190 0.961 . S
H204 C190 0.961 . S
H205 C191 0.958 . S
H206 C191 0.961 . S
H207 C191 0.960 . S
C208 C209 1.391 . S
C208 C210 1.394 . S
C208 H224 0.931 . S
C209 C208 1.391 . S
C209 C213 1.376 . S
C210 C208 1.394 . S
C210 C211 1.369 . S
C210 C214 1.531 . S
C211 C210 1.369 . S
C211 C212 1.410 . S
C211 C219 1.503 . S
C212 C211 1.410 . S
C212 C213 1.392 . S
C212 C215 1.511 . S
C213 C209 1.376 . S
C213 C212 1.392 . S
C213 H225 0.929 . S
C214 C210 1.531 . S
C214 H226 0.960 . S
C214 H227 0.962 . S
C214 H228 0.960 . S
C215 C212 1.511 . S
C215 H229 0.961 . S
C215 H230 0.961 . S
C215 H231 0.961 . S
C216 C217 1.370 . S
C216 C218 1.363 . S
C216 H232 0.931 . S
C217 C216 1.370 . S
C217 C221 1.408 . S
C218 C216 1.363 . S
C218 C219 1.370 . S
C218 C222 1.524 . S
C219 C211 1.503 . S
C219 C218 1.370 . S
C219 C220 1.403 . S
C220 C219 1.403 . S
C220 C221 1.404 . S
C220 C223 1.539 . S
C221 C217 1.408 . S
C221 C220 1.404 . S
C221 H233 0.930 . S
C222 C218 1.524 . S
C222 H234 0.956 . S
C222 H235 0.961 . S
C222 H236 0.961 . S
C223 C220 1.539 . S
C223 H237 0.958 . S
C223 H238 0.961 . S
C223 H239 0.960 . S
H224 C208 0.931 . S
H225 C213 0.929 . S
H226 C214 0.960 . S
H227 C214 0.962 . S
H228 C214 0.960 . S
H229 C215 0.961 . S
H230 C215 0.961 . S
H231 C215 0.961 . S
H232 C216 0.931 . S
H233 C221 0.930 . S
H234 C222 0.956 . S
H235 C222 0.961 . S
H236 C222 0.961 . S
H237 C223 0.958 . S
H238 C223 0.961 . S
H239 C223 0.960 . S
C240 C241 1.391 . S
C240 C242 1.394 . S
C240 H256 0.931 . S
C241 C240 1.391 . S
C241 C245 1.376 . S
C242 C240 1.394 . S
C242 C243 1.369 . S
C242 C246 1.531 . S
C243 C242 1.369 . S
C243 C244 1.410 . S
C243 C251 1.503 . S
C244 C243 1.410 . S
C244 C245 1.392 . S
C244 C247 1.511 . S
C245 C241 1.376 . S
C245 C244 1.392 . S
C245 H257 0.929 . S
C246 C242 1.531 . S
C246 H258 0.960 . S
C246 H259 0.962 . S
C246 H260 0.960 . S
C247 C244 1.511 . S
C247 H261 0.961 . S
C247 H262 0.961 . S
C247 H263 0.961 . S
C248 C249 1.370 . S
C248 C250 1.363 . S
C248 H264 0.931 . S
C249 C248 1.370 . S
C249 C253 1.408 . S
C250 C248 1.363 . S
C250 C251 1.370 . S
C250 C254 1.524 . S
C251 C243 1.503 . S
C251 C250 1.370 . S
C251 C252 1.403 . S
C252 C251 1.403 . S
C252 C253 1.404 . S
C252 C255 1.539 . S
C253 C249 1.408 . S
C253 C252 1.404 . S
C253 H265 0.930 . S
C254 C250 1.524 . S
C254 H266 0.956 . S
C254 H267 0.961 . S
C254 H268 0.961 . S
C255 C252 1.539 . S
C255 H269 0.958 . S
C255 H270 0.961 . S
C255 H271 0.960 . S
H256 C240 0.931 . S
H257 C245 0.929 . S
H258 C246 0.960 . S
H259 C246 0.962 . S
H260 C246 0.960 . S
H261 C247 0.961 . S
H262 C247 0.961 . S
H263 C247 0.961 . S
H264 C248 0.931 . S
H265 C253 0.930 . S
H266 C254 0.956 . S
H267 C254 0.961 . S
H268 C254 0.961 . S
H269 C255 0.958 . S
H270 C255 0.961 . S
H271 C255 0.960 . S
C272 C273 1.391 . S
C272 C274 1.394 . S
C272 H288 0.931 . S
C273 C272 1.391 . S
C273 C277 1.376 . S
C274 C272 1.394 . S
C274 C275 1.369 . S
C274 C278 1.531 . S
C275 C274 1.369 . S
C275 C276 1.410 . S
C275 C283 1.503 . S
C276 C275 1.410 . S
C276 C277 1.392 . S
C276 C279 1.511 . S
C277 C273 1.376 . S
C277 C276 1.392 . S
C277 H289 0.929 . S
C278 C274 1.531 . S
C278 H290 0.960 . S
C278 H291 0.962 . S
C278 H292 0.960 . S
C279 C276 1.511 . S
C279 H293 0.961 . S
C279 H294 0.961 . S
C279 H295 0.961 . S
C280 C281 1.370 . S
C280 C282 1.363 . S
C280 H296 0.931 . S
C281 C280 1.370 . S
C281 C285 1.408 . S
C282 C280 1.363 . S
C282 C283 1.370 . S
C282 C286 1.524 . S
C283 C275 1.503 . S
C283 C282 1.370 . S
C283 C284 1.403 . S
C284 C283 1.403 . S
C284 C285 1.404 . S
C284 C287 1.539 . S
C285 C281 1.408 . S
C285 C284 1.404 . S
C285 H297 0.930 . S
C286 C282 1.524 . S
C286 H298 0.956 . S
C286 H299 0.961 . S
C286 H300 0.961 . S
C287 C284 1.539 . S
C287 H301 0.958 . S
C287 H302 0.961 . S
C287 H303 0.960 . S
H288 C272 0.931 . S
H289 C277 0.929 . S
H290 C278 0.960 . S
H291 C278 0.962 . S
H292 C278 0.960 . S
H293 C279 0.961 . S
H294 C279 0.961 . S
H295 C279 0.961 . S
H296 C280 0.931 . S
H297 C285 0.930 . S
H298 C286 0.956 . S
H299 C286 0.961 . S
H300 C286 0.961 . S
H301 C287 0.958 . S
H302 C287 0.961 . S
H303 C287 0.960 . S
C304 C305 1.391 . S
C304 C306 1.394 . S
C304 H320 0.931 . S
C305 C304 1.391 . S
C305 C309 1.376 . S
C306 C304 1.394 . S
C306 C307 1.369 . S
C306 C310 1.531 1_455 S
C307 C306 1.369 . S
C307 C308 1.410 . S
C307 C315 1.503 1_455 S
C308 C307 1.410 . S
C308 C309 1.392 . S
C308 C311 1.511 . S
C309 C305 1.376 . S
C309 C308 1.392 . S
C309 H321 0.929 . S
C310 C306 1.531 1_655 S
C310 H322 0.960 . S
C310 H323 0.962 . S
C310 H324 0.960 1_655 S
C311 C308 1.511 . S
C311 H325 0.961 . S
C311 H326 0.951 1_455 S
C311 H327 0.961 . S
C312 C313 1.370 . S
C312 C314 1.363 . S
C312 H328 0.931 . S
C313 C312 1.370 . S
C313 C317 1.408 . S
C314 C312 1.363 . S
C314 C315 1.370 . S
C314 C318 1.524 . S
C315 C307 1.503 1_655 S
C315 C314 1.370 . S
C315 C316 1.403 . S
C316 C315 1.403 . S
C316 C317 1.404 . S
C316 C319 1.539 . S
C317 C313 1.408 . S
C317 C316 1.404 . S
C317 H329 0.930 . S
C318 C314 1.524 . S
C318 H330 0.956 . S
C318 H331 0.961 . S
C318 H332 0.961 . S
C319 C316 1.539 . S
C319 H333 0.958 . S
C319 H334 0.961 . S
C319 H335 0.960 1_655 S
H320 C304 0.931 . S
H321 C309 0.929 . S
H322 C310 0.960 . S
H323 C310 0.962 . S
H324 C310 0.960 1_455 S
H325 C311 0.961 . S
H326 C311 0.951 1_655 S
H327 C311 0.961 . S
H328 C312 0.931 . S
H329 C317 0.930 . S
H330 C318 0.956 . S
H331 C318 0.961 . S
H332 C318 0.961 . S
H333 C319 0.958 . S
H334 C319 0.961 . S
H335 C319 0.960 1_455 S
C336 C337 1.391 . S
C336 C338 1.394 . S
C336 H352 0.931 . S
C337 C336 1.391 . S
C337 C341 1.376 . S
C338 C336 1.394 . S
C338 C339 1.369 . S
C338 C342 1.531 1_655 S
C339 C338 1.369 . S
C339 C340 1.410 . S
C339 C347 1.503 1_655 S
C340 C339 1.410 . S
C340 C341 1.392 . S
C340 C343 1.511 . S
C341 C337 1.376 . S
C341 C340 1.392 . S
C341 H353 0.929 . S
C342 C338 1.531 1_455 S
C342 H354 0.960 . S
C342 H355 0.962 . S
C342 H356 0.960 . S
C343 C340 1.511 . S
C343 H357 0.961 . S
C343 H358 0.961 . S
C343 H359 0.961 . S
C344 C345 1.370 . S
C344 C346 1.363 . S
C344 H360 0.931 . S
C345 C344 1.370 . S
C345 C349 1.408 . S
C346 C344 1.363 . S
C346 C347 1.370 . S
C346 C350 1.524 . S
C347 C339 1.503 1_455 S
C347 C346 1.370 . S
C347 C348 1.403 . S
C348 C347 1.403 . S
C348 C349 1.404 . S
C348 C351 1.539 . S
C349 C345 1.408 . S
C349 C348 1.404 . S
C349 H361 0.930 . S
C350 C346 1.524 . S
C350 H362 0.956 . S
C350 H363 0.961 . S
C350 H364 0.961 . S
C351 C348 1.539 . S
C351 H365 0.958 . S
C351 H366 0.961 . S
C351 H367 0.960 1_455 S
H352 C336 0.931 . S
H353 C341 0.929 . S
H354 C342 0.960 . S
H355 C342 0.962 . S
H356 C342 0.960 . S
H357 C343 0.961 . S
H358 C343 0.961 . S
H359 C343 0.961 . S
H360 C344 0.931 . S
H361 C349 0.930 . S
H362 C350 0.956 . S
H363 C350 0.961 . S
H364 C350 0.961 . S
H365 C351 0.958 . S
H366 C351 0.961 . S
H367 C351 0.960 1_655 S
C368 C369 1.391 . S
C368 C370 1.394 . S
C368 H384 0.931 . S
C369 C368 1.391 . S
C369 C373 1.376 . S
C370 C368 1.394 . S
C370 C371 1.369 . S
C370 C374 1.531 . S
C371 C370 1.369 . S
C371 C372 1.410 . S
C371 C379 1.503 1_655 S
C372 C371 1.410 . S
C372 C373 1.392 . S
C372 C375 1.511 1_655 S
C373 C369 1.376 . S
C373 C372 1.392 . S
C373 H385 0.929 . S
C374 C370 1.531 . S
C374 H386 0.960 . S
C374 H387 0.962 . S
C374 H388 0.960 . S
C375 C372 1.511 1_455 S
C375 H389 0.961 . S
C375 H390 0.961 . S
C375 H391 0.961 . S
C376 C377 1.370 . S
C376 C378 1.363 . S
C376 H392 0.931 . S
C377 C376 1.370 . S
C377 C381 1.408 . S
C378 C376 1.363 . S
C378 C379 1.370 . S
C378 C382 1.524 . S
C379 C371 1.503 1_455 S
C379 C378 1.370 . S
C379 C380 1.403 . S
C380 C379 1.403 . S
C380 C381 1.404 . S
C380 C383 1.539 . S
C381 C377 1.408 . S
C381 C380 1.404 . S
C381 H393 0.930 . S
C382 C378 1.524 . S
C382 H394 0.956 . S
C382 H395 0.961 . S
C382 H396 0.961 . S
C383 C380 1.539 . S
C383 H397 0.958 1_455 S
C383 H398 0.961 . S
C383 H399 0.960 1_455 S
H384 C368 0.931 . S
H385 C373 0.929 . S
H386 C374 0.960 . S
H387 C374 0.962 . S
H388 C374 0.960 . S
H389 C375 0.961 . S
H390 C375 0.961 . S
H391 C375 0.961 . S
H392 C376 0.931 . S
H393 C381 0.930 . S
H394 C382 0.956 . S
H395 C382 0.961 . S
H396 C382 0.961 . S
H397 C383 0.958 1_655 S
H398 C383 0.961 . S
H399 C383 0.960 1_655 S
C400 C401 1.391 . S
C400 C402 1.394 . S
C400 H416 0.931 . S
C401 C400 1.391 . S
C401 C405 1.376 . S
C402 C400 1.394 . S
C402 C403 1.369 . S
C402 C406 1.531 . S
C403 C402 1.369 . S
C403 C404 1.410 . S
C403 C411 1.503 1_455 S
C404 C403 1.410 . S
C404 C405 1.392 . S
C404 C407 1.511 1_455 S
C405 C401 1.376 . S
C405 C404 1.392 . S
C405 H417 0.929 . S
C406 C402 1.531 . S
C406 H418 0.960 . S
C406 H419 0.962 . S
C406 H420 0.960 . S
C407 C404 1.511 1_655 S
C407 H421 0.961 . S
C407 H422 0.961 . S
C407 H423 0.961 . S
C408 C409 1.370 . S
C408 C410 1.363 . S
C408 H424 0.931 . S
C409 C408 1.370 . S
C409 C413 1.408 . S
C410 C408 1.363 . S
C410 C411 1.370 . S
C410 C414 1.524 . S
C411 C403 1.503 1_655 S
C411 C410 1.370 . S
C411 C412 1.403 . S
C412 C411 1.403 . S
C412 C413 1.404 . S
C412 C415 1.539 . S
C413 C409 1.408 . S
C413 C412 1.404 . S
C413 H425 0.930 . S
C414 C410 1.524 . S
C414 H426 0.956 . S
C414 H427 0.961 . S
C414 H428 0.961 . S
C415 C412 1.539 . S
C415 H429 0.958 . S
C415 H430 0.961 . S
C415 H431 0.960 . S
H416 C400 0.931 . S
H417 C405 0.929 . S
H418 C406 0.960 . S
H419 C406 0.962 . S
H420 C406 0.960 . S
H421 C407 0.961 . S
H422 C407 0.961 . S
H423 C407 0.961 . S
H424 C408 0.931 . S
H425 C413 0.930 . S
H426 C414 0.956 . S
H427 C414 0.961 . S
H428 C414 0.961 . S
H429 C415 0.958 . S
H430 C415 0.961 . S
H431 C415 0.960 . S
C432 C433 1.391 . S
C432 C434 1.394 . S
C432 H448 0.931 . S
C433 C432 1.391 . S
C433 C437 1.376 . S
C434 C432 1.394 . S
C434 C435 1.369 . S
C434 C438 1.531 1_655 S
C435 C434 1.369 . S
C435 C436 1.410 . S
C435 C443 1.503 1_656 S
C436 C435 1.410 . S
C436 C437 1.392 . S
C436 C439 1.511 1_556 S
C437 C433 1.376 . S
C437 C436 1.392 . S
C437 H449 0.929 . S
C438 C434 1.531 1_455 S
C438 H450 0.960 . S
C438 H451 0.962 . S
C438 H452 0.960 . S
C439 C436 1.511 1_554 S
C439 H453 0.961 . S
C439 H454 0.961 . S
C439 H455 0.961 . S
C440 C441 1.370 . S
C440 C442 1.363 . S
C440 H456 0.931 . S
C441 C440 1.370 . S
C441 C445 1.408 . S
C442 C440 1.363 . S
C442 C443 1.370 . S
C442 C446 1.524 . S
C443 C435 1.503 1_454 S
C443 C442 1.370 . S
C443 C444 1.403 . S
C444 C443 1.403 . S
C444 C445 1.404 . S
C444 C447 1.539 . S
C445 C441 1.408 . S
C445 C444 1.404 . S
C445 H457 0.930 . S
C446 C442 1.524 . S
C446 H458 0.956 1_554 S
C446 H459 0.961 1_455 S
C446 H460 0.961 . S
C447 C444 1.539 . S
C447 H461 0.958 . S
C447 H462 0.961 . S
C447 H463 0.960 1_455 S
H448 C432 0.931 . S
H449 C437 0.929 . S
H450 C438 0.960 . S
H451 C438 0.962 . S
H452 C438 0.960 . S
H453 C439 0.961 . S
H454 C439 0.961 . S
H455 C439 0.961 . S
H456 C440 0.931 . S
H457 C445 0.930 . S
H458 C446 0.956 1_556 S
H459 C446 0.961 1_655 S
H460 C446 0.961 . S
H461 C447 0.958 . S
H462 C447 0.961 . S
H463 C447 0.960 1_655 S
C464 C465 1.391 . S
C464 C466 1.394 . S
C464 H480 0.931 . S
C465 C464 1.391 . S
C465 C469 1.376 . S
C466 C464 1.394 . S
C466 C467 1.369 . S
C466 C470 1.531 1_455 S
C467 C466 1.369 . S
C467 C468 1.410 . S
C467 C475 1.503 1_454 S
C468 C467 1.410 . S
C468 C469 1.392 . S
C468 C471 1.511 1_554 S
C469 C465 1.376 . S
C469 C468 1.392 . S
C469 H481 0.929 . S
C470 C466 1.531 1_655 S
C470 H482 0.960 . S
C470 H483 0.962 . S
C470 H484 0.960 1_655 S
C471 C468 1.511 1_556 S
C471 H485 0.961 . S
C471 H486 0.961 . S
C471 H487 0.961 . S
C472 C473 1.370 . S
C472 C474 1.363 . S
C472 H488 0.931 . S
C473 C472 1.370 . S
C473 C477 1.408 . S
C474 C472 1.363 . S
C474 C475 1.370 . S
C474 C478 1.524 1_556 S
C475 C467 1.503 1_656 S
C475 C474 1.370 . S
C475 C476 1.403 . S
C476 C475 1.403 . S
C476 C477 1.404 . S
C476 C479 1.539 1_655 S
C477 C473 1.408 . S
C477 C476 1.404 . S
C477 H489 0.930 . S
C478 C474 1.524 1_554 S
C478 H490 0.956 . S
C478 H491 0.961 . S
C478 H492 0.961 . S
C479 C476 1.539 1_455 S
C479 H493 0.958 . S
C479 H494 0.961 . S
C479 H495 0.960 . S
H480 C464 0.931 . S
H481 C469 0.929 . S
H482 C470 0.960 . S
H483 C470 0.962 . S
H484 C470 0.960 1_455 S
H485 C471 0.961 . S
H486 C471 0.961 . S
H487 C471 0.961 . S
H488 C472 0.931 . S
H489 C477 0.930 . S
H490 C478 0.956 . S
H491 C478 0.961 . S
H492 C478 0.961 . S
H493 C479 0.958 . S
H494 C479 0.961 . S
H495 C479 0.960 . S
C496 C497 1.391 . S
C496 C498 1.394 . S
C496 H512 0.931 . S
C497 C496 1.391 . S
C497 C501 1.376 . S
C498 C496 1.394 . S
C498 C499 1.369 . S
C498 C502 1.531 . S
C499 C498 1.369 . S
C499 C500 1.410 . S
C499 C507 1.503 1_554 S
C500 C499 1.410 . S
C500 C501 1.392 . S
C500 C503 1.511 . S
C501 C497 1.376 . S
C501 C500 1.392 . S
C501 H513 0.929 . S
C502 C498 1.531 . S
C502 H514 0.960 . S
C502 H515 0.962 1_554 S
C502 H516 0.960 . S
C503 C500 1.511 . S
C503 H517 0.961 . S
C503 H518 0.961 . S
C503 H519 0.961 . S
C504 C505 1.370 . S
C504 C506 1.363 . S
C504 H520 0.931 . S
C505 C504 1.370 . S
C505 C509 1.408 . S
C506 C504 1.363 . S
C506 C507 1.370 . S
C506 C510 1.524 . S
C507 C499 1.503 1_556 S
C507 C506 1.370 . S
C507 C508 1.403 . S
C508 C507 1.403 . S
C508 C509 1.404 . S
C508 C511 1.539 1_556 S
C509 C505 1.408 . S
C509 C508 1.404 . S
C509 H521 0.930 . S
C510 C506 1.524 . S
C510 H522 0.956 . S
C510 H523 0.961 . S
C510 H524 0.961 . S
C511 C508 1.539 1_554 S
C511 H525 0.958 . S
C511 H526 0.961 . S
C511 H527 0.960 . S
H512 C496 0.931 . S
H513 C501 0.929 . S
H514 C502 0.960 . S
H515 C502 0.962 1_556 S
H516 C502 0.960 . S
H517 C503 0.961 . S
H518 C503 0.961 . S
H519 C503 0.961 . S
H520 C504 0.931 . S
H521 C509 0.930 . S
H522 C510 0.956 . S
H523 C510 0.961 . S
H524 C510 0.961 . S
H525 C511 0.958 . S
H526 C511 0.961 . S
H527 C511 0.960 . S
C528 C529 1.391 . S
C528 C530 1.394 . S
C528 H544 0.931 . S
C529 C528 1.391 . S
C529 C533 1.376 . S
C530 C528 1.394 . S
C530 C531 1.369 . S
C530 C534 1.531 . S
C531 C530 1.369 . S
C531 C532 1.410 . S
C531 C539 1.503 1_554 S
C532 C531 1.410 . S
C532 C533 1.392 . S
C532 C535 1.511 1_554 S
C533 C529 1.376 . S
C533 C532 1.392 . S
C533 H545 0.929 . S
C534 C530 1.531 . S
C534 H546 0.960 . S
C534 H547 0.962 . S
C534 H548 0.960 . S
C535 C532 1.511 1_556 S
C535 H549 0.961 . S
C535 H550 0.961 . S
C535 H551 0.961 . S
C536 C537 1.370 . S
C536 C538 1.363 . S
C536 H552 0.931 . S
C537 C536 1.370 . S
C537 C541 1.408 . S
C538 C536 1.363 . S
C538 C539 1.370 . S
C538 C542 1.524 . S
C539 C531 1.503 1_556 S
C539 C538 1.370 . S
C539 C540 1.403 . S
C540 C539 1.403 . S
C540 C541 1.404 . S
C540 C543 1.539 . S
C541 C537 1.408 . S
C541 C540 1.404 . S
C541 H553 0.930 . S
C542 C538 1.524 . S
C542 H554 0.956 1_556 S
C542 H555 0.961 . S
C542 H556 0.961 . S
C543 C540 1.539 . S
C543 H557 0.958 . S
C543 H558 0.961 . S
C543 H559 0.960 . S
H544 C528 0.931 . S
H545 C533 0.929 . S
H546 C534 0.960 . S
H547 C534 0.962 . S
H548 C534 0.960 . S
H549 C535 0.961 . S
H550 C535 0.961 . S
H551 C535 0.961 . S
H552 C536 0.931 . S
H553 C541 0.930 . S
H554 C542 0.956 1_554 S
H555 C542 0.961 . S
H556 C542 0.961 . S
H557 C543 0.958 . S
H558 C543 0.961 . S
H559 C543 0.960 . S
C560 C561 1.391 . S
C560 C562 1.394 . S
C560 H576 0.931 . S
C561 C560 1.391 . S
C561 C565 1.376 . S
C562 C560 1.394 . S
C562 C563 1.369 . S
C562 C566 1.531 . S
C563 C562 1.369 . S
C563 C564 1.410 . S
C563 C571 1.503 . S
C564 C563 1.410 . S
C564 C565 1.392 . S
C564 C567 1.511 . S
C565 C561 1.376 . S
C565 C564 1.392 . S
C565 H577 0.929 . S
C566 C562 1.531 . S
C566 H578 0.960 . S
C566 H579 0.962 . S
C566 H580 0.960 . S
C567 C564 1.511 . S
C567 H581 0.961 . S
C567 H582 0.961 . S
C567 H583 0.961 . S
C568 C569 1.370 . S
C568 C570 1.363 . S
C568 H584 0.931 . S
C569 C568 1.370 . S
C569 C573 1.408 . S
C570 C568 1.363 . S
C570 C571 1.370 . S
C570 C574 1.524 . S
C571 C563 1.503 . S
C571 C570 1.370 . S
C571 C572 1.403 . S
C572 C571 1.403 . S
C572 C573 1.404 . S
C572 C575 1.539 . S
C573 C569 1.408 . S
C573 C572 1.404 . S
C573 H585 0.930 . S
C574 C570 1.524 . S
C574 H586 0.956 . S
C574 H587 0.961 . S
C574 H588 0.961 . S
C575 C572 1.539 . S
C575 H589 0.958 . S
C575 H590 0.961 . S
C575 H591 0.960 . S
H576 C560 0.931 . S
H577 C565 0.929 . S
H578 C566 0.960 . S
H579 C566 0.962 . S
H580 C566 0.960 . S
H581 C567 0.961 . S
H582 C567 0.961 . S
H583 C567 0.961 . S
H584 C568 0.931 . S
H585 C573 0.930 . S
H586 C574 0.956 . S
H587 C574 0.961 . S
H588 C574 0.961 . S
H589 C575 0.958 . S
H590 C575 0.961 . S
H591 C575 0.960 . S
C592 C593 1.391 . S
C592 C594 1.394 . S
C592 H608 0.931 . S
C593 C592 1.391 . S
C593 C597 1.376 . S
C594 C592 1.394 . S
C594 C595 1.369 . S
C594 C598 1.531 . S
C595 C594 1.369 . S
C595 C596 1.410 . S
C595 C603 1.503 . S
C596 C595 1.410 . S
C596 C597 1.392 . S
C596 C599 1.511 . S
C597 C593 1.376 . S
C597 C596 1.392 . S
C597 H609 0.929 . S
C598 C594 1.531 . S
C598 H610 0.960 . S
C598 H611 0.962 . S
C598 H612 0.960 . S
C599 C596 1.511 . S
C599 H613 0.961 . S
C599 H614 0.961 . S
C599 H615 0.961 . S
C600 C601 1.370 . S
C600 C602 1.363 . S
C600 H616 0.931 . S
C601 C600 1.370 . S
C601 C605 1.408 . S
C602 C600 1.363 . S
C602 C603 1.370 . S
C602 C606 1.524 . S
C603 C595 1.503 . S
C603 C602 1.370 . S
C603 C604 1.403 . S
C604 C603 1.403 . S
C604 C605 1.404 . S
C604 C607 1.539 . S
C605 C601 1.408 . S
C605 C604 1.404 . S
C605 H617 0.930 . S
C606 C602 1.524 . S
C606 H618 0.956 . S
C606 H619 0.961 . S
C606 H620 0.961 . S
C607 C604 1.539 . S
C607 H621 0.958 . S
C607 H622 0.961 . S
C607 H623 0.960 . S
H608 C592 0.931 . S
H609 C597 0.929 . S
H610 C598 0.960 . S
H611 C598 0.962 . S
H612 C598 0.960 . S
H613 C599 0.961 . S
H614 C599 0.961 . S
H615 C599 0.961 . S
H616 C600 0.931 . S
H617 C605 0.930 . S
H618 C606 0.956 . S
H619 C606 0.961 . S
H620 C606 0.961 . S
H621 C607 0.958 . S
H622 C607 0.961 . S
H623 C607 0.960 . S
C624 C625 1.391 . S
C624 C626 1.394 . S
C624 H640 0.931 . S
C625 C624 1.391 . S
C625 C629 1.376 . S
C626 C624 1.394 . S
C626 C627 1.369 . S
C626 C630 1.531 . S
C627 C626 1.369 . S
C627 C628 1.410 . S
C627 C635 1.503 1_565 S
C628 C627 1.410 . S
C628 C629 1.392 . S
C628 C631 1.511 . S
C629 C625 1.376 . S
C629 C628 1.392 . S
C629 H641 0.929 . S
C630 C626 1.531 . S
C630 H642 0.960 1_565 S
C630 H643 0.962 . S
C630 H644 0.960 . S
C631 C628 1.511 . S
C631 H645 0.961 . S
C631 H646 0.961 1_565 S
C631 H647 0.961 . S
C632 C633 1.370 . S
C632 C634 1.363 . S
C632 H648 0.931 . S
C633 C632 1.370 . S
C633 C637 1.408 . S
C634 C632 1.363 . S
C634 C635 1.370 . S
C634 C638 1.524 . S
C635 C627 1.503 1_545 S
C635 C634 1.370 . S
C635 C636 1.403 . S
C636 C635 1.403 . S
C636 C637 1.404 . S
C636 C639 1.539 . S
C637 C633 1.408 . S
C637 C636 1.404 . S
C637 H649 0.930 . S
C638 C634 1.524 . S
C638 H650 0.956 . S
C638 H651 0.961 1_545 S
C638 H652 0.961 . S
C639 C636 1.539 . S
C639 H653 0.958 . S
C639 H654 0.961 . S
C639 H655 0.974 . S
H640 C624 0.931 . S
H641 C629 0.929 . S
H642 C630 0.960 1_545 S
H643 C630 0.962 . S
H644 C630 0.960 . S
H645 C631 0.961 . S
H646 C631 0.961 1_545 S
H647 C631 0.961 . S
H648 C632 0.931 . S
H649 C637 0.930 . S
H650 C638 0.956 . S
H651 C638 0.961 1_565 S
H652 C638 0.961 . S
H653 C639 0.958 . S
H654 C639 0.961 . S
H655 C639 0.974 . S
C656 C657 1.391 . S
C656 C658 1.394 . S
C656 H672 0.931 . S
C657 C656 1.391 . S
C657 C661 1.376 . S
C658 C656 1.394 . S
C658 C659 1.369 . S
C658 C662 1.531 . S
C659 C658 1.369 . S
C659 C660 1.410 . S
C659 C667 1.503 1_565 S
C660 C659 1.410 . S
C660 C661 1.392 . S
C660 C663 1.511 . S
C661 C657 1.376 . S
C661 C660 1.392 . S
C661 H673 0.929 . S
C662 C658 1.531 . S
C662 H674 0.960 1_565 S
C662 H675 0.962 . S
C662 H676 0.960 . S
C663 C660 1.511 . S
C663 H677 0.961 . S
C663 H678 0.961 1_565 S
C663 H679 0.961 . S
C664 C665 1.370 . S
C664 C666 1.363 . S
C664 H680 0.931 . S
C665 C664 1.370 . S
C665 C669 1.408 . S
C666 C664 1.363 . S
C666 C667 1.370 . S
C666 C670 1.524 . S
C667 C659 1.503 1_545 S
C667 C666 1.370 . S
C667 C668 1.403 . S
C668 C667 1.403 . S
C668 C669 1.404 . S
C668 C671 1.539 . S
C669 C665 1.408 . S
C669 C668 1.404 . S
C669 H681 0.930 . S
C670 C666 1.524 . S
C670 H682 0.956 . S
C670 H683 0.961 1_545 S
C670 H684 0.961 . S
C671 C668 1.539 . S
C671 H685 0.958 . S
C671 H686 0.961 . S
C671 H687 0.976 . S
H672 C656 0.931 . S
H673 C661 0.929 . S
H674 C662 0.960 1_545 S
H675 C662 0.962 . S
H676 C662 0.960 . S
H677 C663 0.961 . S
H678 C663 0.961 1_545 S
H679 C663 0.961 . S
H680 C664 0.931 . S
H681 C669 0.930 . S
H682 C670 0.956 . S
H683 C670 0.961 1_565 S
H684 C670 0.961 . S
H685 C671 0.958 . S
H686 C671 0.961 . S
H687 C671 0.976 . S
C688 C689 1.391 . S
C688 C690 1.394 . S
C688 H704 0.931 . S
C689 C688 1.391 . S
C689 C693 1.376 . S
C690 C688 1.394 . S
C690 C691 1.369 . S
C690 C694 1.531 . S
C691 C690 1.369 . S
C691 C692 1.410 . S
C691 C699 1.503 . S
C692 C691 1.410 . S
C692 C693 1.392 . S
C692 C695 1.511 . S
C693 C689 1.376 . S
C693 C692 1.392 . S
C693 H705 0.929 . S
C694 C690 1.531 . S
C694 H706 0.960 . S
C694 H707 0.962 . S
C694 H708 0.960 . S
C695 C692 1.511 . S
C695 H709 0.961 . S
C695 H710 0.961 . S
C695 H711 0.961 . S
C696 C697 1.370 . S
C696 C698 1.363 . S
C696 H712 0.931 . S
C697 C696 1.370 . S
C697 C701 1.408 . S
C698 C696 1.363 . S
C698 C699 1.370 . S
C698 C702 1.524 . S
C699 C691 1.503 . S
C699 C698 1.370 . S
C699 C700 1.403 . S
C700 C699 1.403 . S
C700 C701 1.404 . S
C700 C703 1.539 . S
C701 C697 1.408 . S
C701 C700 1.404 . S
C701 H713 0.930 . S
C702 C698 1.524 . S
C702 H714 0.956 . S
C702 H715 0.961 . S
C702 H716 0.961 . S
C703 C700 1.539 . S
C703 H717 0.958 . S
C703 H718 0.961 . S
C703 H719 0.960 . S
H704 C688 0.931 . S
H705 C693 0.929 . S
H706 C694 0.960 . S
H707 C694 0.962 . S
H708 C694 0.960 . S
H709 C695 0.961 . S
H710 C695 0.961 . S
H711 C695 0.961 . S
H712 C696 0.931 . S
H713 C701 0.930 . S
H714 C702 0.956 . S
H715 C702 0.961 . S
H716 C702 0.961 . S
H717 C703 0.958 . S
H718 C703 0.961 . S
H719 C703 0.960 . S
C720 C721 1.391 . S
C720 C722 1.394 . S
C720 H736 0.931 . S
C721 C720 1.391 . S
C721 C725 1.376 . S
C722 C720 1.394 . S
C722 C723 1.369 . S
C722 C726 1.531 . S
C723 C722 1.369 . S
C723 C724 1.410 . S
C723 C731 1.503 . S
C724 C723 1.410 . S
C724 C725 1.392 . S
C724 C727 1.511 . S
C725 C721 1.376 . S
C725 C724 1.392 . S
C725 H737 0.929 . S
C726 C722 1.531 . S
C726 H738 0.960 . S
C726 H739 0.962 . S
C726 H740 0.960 . S
C727 C724 1.511 . S
C727 H741 0.961 . S
C727 H742 0.961 . S
C727 H743 0.961 . S
C728 C729 1.370 . S
C728 C730 1.363 . S
C728 H744 0.931 . S
C729 C728 1.370 . S
C729 C733 1.408 . S
C730 C728 1.363 . S
C730 C731 1.370 . S
C730 C734 1.524 . S
C731 C723 1.503 . S
C731 C730 1.370 . S
C731 C732 1.403 . S
C732 C731 1.403 . S
C732 C733 1.404 . S
C732 C735 1.539 . S
C733 C729 1.408 . S
C733 C732 1.404 . S
C733 H745 0.930 . S
C734 C730 1.524 . S
C734 H746 0.956 . S
C734 H747 0.961 . S
C734 H748 0.961 . S
C735 C732 1.539 . S
C735 H749 0.958 . S
C735 H750 0.961 . S
C735 H751 0.960 . S
H736 C720 0.931 . S
H737 C725 0.929 . S
H738 C726 0.960 . S
H739 C726 0.962 . S
H740 C726 0.960 . S
H741 C727 0.961 . S
H742 C727 0.961 . S
H743 C727 0.961 . S
H744 C728 0.931 . S
H745 C733 0.930 . S
H746 C734 0.956 . S
H747 C734 0.961 . S
H748 C734 0.961 . S
H749 C735 0.958 . S
H750 C735 0.961 . S
H751 C735 0.960 . S
C752 C753 1.391 . S
C752 C754 1.394 . S
C752 H768 0.931 . S
C753 C752 1.391 . S
C753 C757 1.376 . S
C754 C752 1.394 . S
C754 C755 1.369 . S
C754 C758 1.531 . S
C755 C754 1.369 . S
C755 C756 1.410 . S
C755 C763 1.503 . S
C756 C755 1.410 . S
C756 C757 1.392 . S
C756 C759 1.511 . S
C757 C753 1.376 . S
C757 C756 1.392 . S
C757 H769 0.929 . S
C758 C754 1.531 . S
C758 H770 0.960 . S
C758 H771 0.962 . S
C758 H772 0.960 . S
C759 C756 1.511 . S
C759 H773 0.961 . S
C759 H774 0.961 . S
C759 H775 0.961 . S
C760 C761 1.370 . S
C760 C762 1.363 . S
C760 H776 0.931 . S
C761 C760 1.370 . S
C761 C765 1.408 . S
C762 C760 1.363 . S
C762 C763 1.370 . S
C762 C766 1.524 . S
C763 C755 1.503 . S
C763 C762 1.370 . S
C763 C764 1.403 . S
C764 C763 1.403 . S
C764 C765 1.404 . S
C764 C767 1.539 . S
C765 C761 1.408 . S
C765 C764 1.404 . S
C765 H777 0.930 . S
C766 C762 1.524 . S
C766 H778 0.956 . S
C766 H779 0.961 . S
C766 H780 0.961 . S
C767 C764 1.539 . S
C767 H781 0.958 . S
C767 H782 0.961 . S
C767 H783 0.960 . S
H768 C752 0.931 . S
H769 C757 0.929 . S
H770 C758 0.960 . S
H771 C758 0.962 . S
H772 C758 0.960 . S
H773 C759 0.961 . S
H774 C759 0.961 . S
H775 C759 0.961 . S
H776 C760 0.931 . S
H777 C765 0.930 . S
H778 C766 0.956 . S
H779 C766 0.961 . S
H780 C766 0.961 . S
H781 C767 0.958 . S
H782 C767 0.961 . S
H783 C767 0.960 . S
C784 C785 1.391 . S
C784 C786 1.394 . S
C784 H800 0.931 . S
C785 C784 1.391 . S
C785 C789 1.376 . S
C786 C784 1.394 . S
C786 C787 1.369 . S
C786 C790 1.531 . S
C787 C786 1.369 . S
C787 C788 1.410 . S
C787 C795 1.503 . S
C788 C787 1.410 . S
C788 C789 1.392 . S
C788 C791 1.511 . S
C789 C785 1.376 . S
C789 C788 1.392 . S
C789 H801 0.929 . S
C790 C786 1.531 . S
C790 H802 0.960 . S
C790 H803 0.962 . S
C790 H804 0.960 . S
C791 C788 1.511 . S
C791 H805 0.961 . S
C791 H806 0.961 . S
C791 H807 0.961 . S
C792 C793 1.370 . S
C792 C794 1.363 . S
C792 H808 0.931 . S
C793 C792 1.370 . S
C793 C797 1.408 . S
C794 C792 1.363 . S
C794 C795 1.370 . S
C794 C798 1.524 . S
C795 C787 1.503 . S
C795 C794 1.370 . S
C795 C796 1.403 . S
C796 C795 1.403 . S
C796 C797 1.404 . S
C796 C799 1.539 . S
C797 C793 1.408 . S
C797 C796 1.404 . S
C797 H809 0.930 . S
C798 C794 1.524 . S
C798 H810 0.956 . S
C798 H811 0.961 . S
C798 H812 0.961 . S
C799 C796 1.539 . S
C799 H813 0.958 . S
C799 H814 0.961 . S
C799 H815 0.960 . S
H800 C784 0.931 . S
H801 C789 0.929 . S
H802 C790 0.960 . S
H803 C790 0.962 . S
H804 C790 0.960 . S
H805 C791 0.961 . S
H806 C791 0.961 . S
H807 C791 0.961 . S
H808 C792 0.931 . S
H809 C797 0.930 . S
H810 C798 0.956 . S
H811 C798 0.961 . S
H812 C798 0.961 . S
H813 C799 0.958 . S
H814 C799 0.961 . S
H815 C799 0.960 . S
C816 C817 1.391 . S
C816 C818 1.394 . S
C816 H832 0.931 . S
C817 C816 1.391 . S
C817 C821 1.376 . S
C818 C816 1.394 . S
C818 C819 1.369 . S
C818 C822 1.531 . S
C819 C818 1.369 . S
C819 C820 1.410 . S
C819 C827 1.503 1_554 S
C820 C819 1.410 . S
C820 C821 1.392 . S
C820 C823 1.511 1_554 S
C821 C817 1.376 . S
C821 C820 1.392 . S
C821 H833 0.929 . S
C822 C818 1.531 . S
C822 H834 0.960 . S
C822 H835 0.962 . S
C822 H836 0.960 . S
C823 C820 1.511 1_556 S
C823 H837 0.961 . S
C823 H838 0.961 . S
C823 H839 0.961 . S
C824 C825 1.370 . S
C824 C826 1.363 . S
C824 H840 0.931 . S
C825 C824 1.370 . S
C825 C829 1.408 . S
C826 C824 1.363 . S
C826 C827 1.370 . S
C826 C830 1.524 . S
C827 C819 1.503 1_556 S
C827 C826 1.370 . S
C827 C828 1.403 . S
C828 C827 1.403 . S
C828 C829 1.404 . S
C828 C831 1.539 . S
C829 C825 1.408 . S
C829 C828 1.404 . S
C829 H841 0.930 . S
C830 C826 1.524 . S
C830 H842 0.956 1_556 S
C830 H843 0.961 . S
C830 H844 0.961 . S
C831 C828 1.539 . S
C831 H845 0.958 . S
C831 H846 0.961 . S
C831 H847 0.960 . S
H832 C816 0.931 . S
H833 C821 0.929 . S
H834 C822 0.960 . S
H835 C822 0.962 . S
H836 C822 0.960 . S
H837 C823 0.961 . S
H838 C823 0.961 . S
H839 C823 0.961 . S
H840 C824 0.931 . S
H841 C829 0.930 . S
H842 C830 0.956 1_554 S
H843 C830 0.961 . S
H844 C830 0.961 . S
H845 C831 0.958 . S
H846 C831 0.961 . S
H847 C831 0.960 . S
C848 C849 1.391 . S
C848 C850 1.394 . S
C848 H864 0.931 . S
C849 C848 1.391 . S
C849 C853 1.376 . S
C850 C848 1.394 . S
C850 C851 1.369 . S
C850 C854 1.531 1_554 S
C851 C850 1.369 . S
C851 C852 1.410 . S
C851 C859 1.503 1_554 S
C852 C851 1.410 . S
C852 C853 1.392 . S
C852 C855 1.511 . S
C853 C849 1.376 . S
C853 C852 1.392 . S
C853 H865 0.929 . S
C854 C850 1.531 1_556 S
C854 H866 0.960 . S
C854 H867 0.962 . S
C854 H868 0.960 1_556 S
C855 C852 1.511 . S
C855 H869 0.961 . S
C855 H870 0.961 . S
C855 H871 0.961 . S
C856 C857 1.370 . S
C856 C858 1.363 . S
C856 H872 0.931 . S
C857 C856 1.370 . S
C857 C861 1.408 . S
C858 C856 1.363 . S
C858 C859 1.370 . S
C858 C862 1.524 . S
C859 C851 1.503 1_556 S
C859 C858 1.370 . S
C859 C860 1.403 . S
C860 C859 1.403 . S
C860 C861 1.404 . S
C860 C863 1.539 1_556 S
C861 C857 1.408 . S
C861 C860 1.404 . S
C861 H873 0.930 . S
C862 C858 1.524 . S
C862 H874 0.956 . S
C862 H875 0.961 . S
C862 H876 0.961 . S
C863 C860 1.539 1_554 S
C863 H877 0.958 . S
C863 H878 0.961 1_554 S
C863 H879 0.960 . S
H864 C848 0.931 . S
H865 C853 0.929 . S
H866 C854 0.960 . S
H867 C854 0.962 . S
H868 C854 0.960 1_554 S
H869 C855 0.961 . S
H870 C855 0.961 . S
H871 C855 0.961 . S
H872 C856 0.931 . S
H873 C861 0.930 . S
H874 C862 0.956 . S
H875 C862 0.961 . S
H876 C862 0.961 . S
H877 C863 0.958 . S
H878 C863 0.961 1_556 S
H879 C863 0.960 . S
C880 C881 1.391 . S
C880 C882 1.394 . S
C880 H896 0.931 . S
C881 C880 1.391 . S
C881 C885 1.376 . S
C882 C880 1.394 . S
C882 C883 1.369 . S
C882 C886 1.531 1_556 S
C883 C882 1.369 . S
C883 C884 1.410 . S
C883 C891 1.503 1_556 S
C884 C883 1.410 . S
C884 C885 1.392 . S
C884 C887 1.511 . S
C885 C881 1.376 . S
C885 C884 1.392 . S
C885 H897 0.929 . S
C886 C882 1.531 1_554 S
C886 H898 0.960 . S
C886 H899 0.962 . S
C886 H900 0.960 1_554 S
C887 C884 1.511 . S
C887 H901 0.961 . S
C887 H902 0.961 . S
C887 H903 0.961 . S
C888 C889 1.370 . S
C888 C890 1.363 . S
C888 H904 0.931 . S
C889 C888 1.370 . S
C889 C893 1.408 . S
C890 C888 1.363 . S
C890 C891 1.370 . S
C890 C894 1.524 . S
C891 C883 1.503 1_554 S
C891 C890 1.370 . S
C891 C892 1.403 . S
C892 C891 1.403 . S
C892 C893 1.404 . S
C892 C895 1.539 1_554 S
C893 C889 1.408 . S
C893 C892 1.404 . S
C893 H905 0.930 . S
C894 C890 1.524 . S
C894 H906 0.956 . S
C894 H907 0.961 . S
C894 H908 0.961 . S
C895 C892 1.539 1_556 S
C895 H909 0.958 1_556 S
C895 H910 0.961 1_556 S
C895 H911 0.960 . S
H896 C880 0.931 . S
H897 C885 0.929 . S
H898 C886 0.960 . S
H899 C886 0.962 . S
H900 C886 0.960 1_556 S
H901 C887 0.961 . S
H902 C887 0.961 . S
H903 C887 0.961 . S
H904 C888 0.931 . S
H905 C893 0.930 . S
H906 C894 0.956 . S
H907 C894 0.961 . S
H908 C894 0.961 . S
H909 C895 0.958 1_554 S
H910 C895 0.961 1_554 S
H911 C895 0.960 . S
C912 C913 1.391 . S
C912 C914 1.394 . S
C912 H928 0.931 . S
C913 C912 1.391 . S
C913 C917 1.376 . S
C914 C912 1.394 . S
C914 C915 1.369 . S
C914 C918 1.531 . S
C915 C914 1.369 . S
C915 C916 1.410 . S
C915 C923 1.503 1_554 S
C916 C915 1.410 . S
C916 C917 1.392 . S
C916 C919 1.511 . S
C917 C913 1.376 . S
C917 C916 1.392 . S
C917 H929 0.929 . S
C918 C914 1.531 . S
C918 H930 0.960 1_554 S
C918 H931 0.962 1_554 S
C918 H932 0.960 . S
C919 C916 1.511 . S
C919 H933 0.961 . S
C919 H934 0.961 . S
C919 H935 0.961 . S
C920 C921 1.370 . S
C920 C922 1.363 . S
C920 H936 0.931 . S
C921 C920 1.370 . S
C921 C925 1.408 . S
C922 C920 1.363 . S
C922 C923 1.370 . S
C922 C926 1.524 . S
C923 C915 1.503 1_556 S
C923 C922 1.370 . S
C923 C924 1.403 . S
C924 C923 1.403 . S
C924 C925 1.404 . S
C924 C927 1.539 1_556 S
C925 C921 1.408 . S
C925 C924 1.404 . S
C925 H937 0.930 . S
C926 C922 1.524 . S
C926 H938 0.956 . S
C926 H939 0.961 . S
C926 H940 0.961 . S
C927 C924 1.539 1_554 S
C927 H941 0.958 . S
C927 H942 0.961 . S
C927 H943 0.960 . S
H928 C912 0.931 . S
H929 C917 0.929 . S
H930 C918 0.960 1_556 S
H931 C918 0.962 1_556 S
H932 C918 0.960 . S
H933 C919 0.961 . S
H934 C919 0.961 . S
H935 C919 0.961 . S
H936 C920 0.931 . S
H937 C925 0.930 . S
H938 C926 0.956 . S
H939 C926 0.961 . S
H940 C926 0.961 . S
H941 C927 0.958 . S
H942 C927 0.961 . S
H943 C927 0.960 . S
C177 C175 1.351 . S
C185 C18 1.336 . S
C209 C40 1.328 . S
C217 C153 1.355 . S
C241 C117 1.355 . S
C249 C62 1.358 . S
C273 C74 1.331 . S
C281 C103 1.374 . S
C305 C81 1.358 . S
C313 C106 1.359 . S
C337 C65 1.347 . S
C345 C118 1.355 . S
C369 C37 1.362 . S
C377 C150 1.362 . S
C401 C15 1.352 . S
C409 C172 1.356 . S
C433 C43 1.580 . S
C441 C21 1.576 . S
C465 C73 1.562 . S
C473 C59 1.575 . S
C497 C109 1.564 . S
C505 C125 1.571 . S
C529 C169 1.559 . S
C537 C147 1.572 . S
C561 C84 1.428 . S
C569 C8 1.433 . S
C593 C54 1.442 . S
C601 C30 1.439 . S
C625 C96 1.411 . S
C633 C164 1.426 . S
C657 C120 1.412 . S
C665 C142 1.427 . S
C689 C140 1.796 . S
C697 C10 1.847 . S
C721 C32 1.850 . S
C729 C162 1.819 . S
C753 C98 1.855 . S
C761 C52 1.816 . S
C785 C128 1.809 . S
C793 C76 1.837 . S
C817 C7 0.984 . S
C825 C139 0.920 . S
C849 C161 0.968 . S
C857 C29 0.924 . S
C881 C51 0.969 . S
C889 C95 0.923 . S
C913 C87 0.952 . S
C921 C131 0.931 . S
