# Generated by pormake.
# Topology wiz, (3)-cn, num edge types: 1
# Building blocks:
#     Node 0, Type 0, BuildingBlock: OLANEW_clean_sbu_2, # of connection points: 3
#     Node 1, Type 0, BuildingBlock: OLANEW_clean_sbu_2, # of connection points: 3
#     Node 2, Type 0, BuildingBlock: OLANEW_clean_sbu_2, # of connection points: 3
#     Node 3, Type 0, BuildingBlock: OLANEW_clean_sbu_2, # of connection points: 3
#     Node 4, Type 0, BuildingBlock: OLANEW_clean_sbu_2, # of connection points: 3
#     Node 5, Type 0, BuildingBlock: OLANEW_clean_sbu_2, # of connection points: 3
#     Node 6, Type 0, BuildingBlock: OLANEW_clean_sbu_2, # of connection points: 3
#     Node 7, Type 0, BuildingBlock: OLANEW_clean_sbu_2, # of connection points: 3
#     Node 8, Type 0, BuildingBlock: OLANEW_clean_sbu_2, # of connection points: 3
#     Node 9, Type 0, BuildingBlock: OLANEW_clean_sbu_2, # of connection points: 3
#     Node 10, Type 0, BuildingBlock: OLANEW_clean_sbu_2, # of connection points: 3
#     Node 11, Type 0, BuildingBlock: OLANEW_clean_sbu_2, # of connection points: 3
#     Edge 12, Type (0, 0), BuildingBlock: CIFDUS_clean_linker_0, # of connection points: 2
#     Edge 13, Type (0, 0), BuildingBlock: CIFDUS_clean_linker_0, # of connection points: 2
#     Edge 14, Type (0, 0), BuildingBlock: CIFDUS_clean_linker_0, # of connection points: 2
#     Edge 15, Type (0, 0), BuildingBlock: CIFDUS_clean_linker_0, # of connection points: 2
#     Edge 16, Type (0, 0), BuildingBlock: CIFDUS_clean_linker_0, # of connection points: 2
#     Edge 17, Type (0, 0), BuildingBlock: CIFDUS_clean_linker_0, # of connection points: 2
#     Edge 18, Type (0, 0), BuildingBlock: CIFDUS_clean_linker_0, # of connection points: 2
#     Edge 19, Type (0, 0), BuildingBlock: CIFDUS_clean_linker_0, # of connection points: 2
#     Edge 20, Type (0, 0), BuildingBlock: CIFDUS_clean_linker_0, # of connection points: 2
#     Edge 21, Type (0, 0), BuildingBlock: CIFDUS_clean_linker_0, # of connection points: 2
#     Edge 22, Type (0, 0), BuildingBlock: CIFDUS_clean_linker_0, # of connection points: 2
#     Edge 23, Type (0, 0), BuildingBlock: CIFDUS_clean_linker_0, # of connection points: 2
#     Edge 24, Type (0, 0), BuildingBlock: CIFDUS_clean_linker_0, # of connection points: 2
#     Edge 25, Type (0, 0), BuildingBlock: CIFDUS_clean_linker_0, # of connection points: 2
#     Edge 26, Type (0, 0), BuildingBlock: CIFDUS_clean_linker_0, # of connection points: 2
#     Edge 27, Type (0, 0), BuildingBlock: CIFDUS_clean_linker_0, # of connection points: 2
#     Edge 28, Type (0, 0), BuildingBlock: CIFDUS_clean_linker_0, # of connection points: 2
#     Edge 29, Type (0, 0), BuildingBlock: CIFDUS_clean_linker_0, # of connection points: 2
# Relax obj value: 0.000
# Max RMSD: 0.040
# Mean RMSD: 0.040
data_MOF--net-wiz--node1-OLANEW_clean_sbu_2--edge1-CIFDUS_clean_linker_0
_symmetry_space_group_name_H-M    P1
_symmetry_Int_Tables_number       1
_symmetry_cell_setting            triclinic
loop_
_symmetry_equiv_pos_as_xyz
'x, y, z'
_cell_length_a     30.842417
_cell_length_b     30.752247
_cell_length_c     64.712007
_cell_angle_alpha  90.487703
_cell_angle_beta   89.698143
_cell_angle_gamma 119.70204
loop_
_atom_site_label
_atom_site_type_symbol
_atom_site_fract_x
_atom_site_fract_y
_atom_site_fract_z
_atom_type_partial_charge
O0 O 0.11342 0.46249 0.0631 0.0
Cd1 Cd 0.10385 0.50599 0.09326 0.0
O2 O 0.16902 0.45402 0.08078 0.0
Cd3 Cd 0.23195 0.44077 0.08385 0.0
O4 O 0.29824 0.43279 0.08444 0.0
C5 C 0.34057 0.47104 0.08111 0.0
O6 O 0.34298 0.51418 0.07753 0.0
C7 C 0.14579 0.44842 0.06391 0.0
C8 C 0.05325 0.44859 0.12762 0.0
O9 O 0.03034 0.4592 0.11382 0.0
O10 O 0.09973 0.46361 0.12482 0.0
O11 O 0.73405 0.17397 0.4309 0.0
Cd12 Cd 0.68664 0.16452 0.46259 0.0
O13 O 0.7749 0.25538 0.43504 0.0
Cd14 Cd 0.83063 0.33259 0.42802 0.0
O15 O 0.88576 0.4114 0.42415 0.0
C16 C 0.88063 0.44497 0.43362 0.0
O17 O 0.84155 0.43146 0.44561 0.0
C18 C 0.76628 0.21697 0.4244 0.0
C19 C 0.71461 0.1251 0.49524 0.0
O20 O 0.68174 0.09632 0.48209 0.0
O21 O 0.73448 0.17253 0.49286 0.0
O22 O 0.56892 0.64127 0.7288 0.0
Cd23 Cd 0.52919 0.58302 0.75735 0.0
O24 O 0.55228 0.69536 0.74359 0.0
Cd25 Cd 0.54626 0.762 0.75077 0.0
O26 O 0.52718 0.82127 0.75409 0.0
C27 C 0.4895 0.81375 0.76484 0.0
O28 O 0.46361 0.77069 0.7743 0.0
C29 C 0.57131 0.68374 0.72846 0.0
C30 C 0.58771 0.61329 0.79299 0.0
O31 O 0.59395 0.5872 0.77898 0.0
O32 O 0.55377 0.62514 0.79015 0.0
O33 O 0.83057 0.48998 0.04877 0.0
Cd34 Cd 0.83283 0.44457 0.07928 0.0
O35 O 0.77089 0.49468 0.06518 0.0
Cd36 Cd 0.71566 0.51855 0.07016 0.0
O37 O 0.65157 0.53011 0.07227 0.0
C38 C 0.60901 0.492 0.07538 0.0
O39 O 0.60584 0.44803 0.07741 0.0
C40 C 0.79821 0.5041 0.04919 0.0
C41 C 0.8994 0.50854 0.10908 0.0
O42 O 0.91242 0.48531 0.09614 0.0
O43 O 0.85488 0.50144 0.10796 0.0
O44 O 0.23458 0.8217 0.37993 0.0
Cd45 Cd 0.20941 0.80971 0.41658 0.0
O46 O 0.18586 0.85115 0.37021 0.0
Cd47 Cd 0.14583 0.82689 0.39942 0.0
O48 O 0.09455 0.75348 0.41222 0.0
C49 C 0.09912 0.71828 0.40397 0.0
O50 O 0.13381 0.72964 0.38985 0.0
C51 C 0.21914 0.83955 0.36592 0.0
C52 C 0.25053 0.89364 0.44277 0.0
O53 O 0.27321 0.86885 0.4393 0.0
O54 O 0.20924 0.87979 0.43332 0.0
O55 O 0.26585 0.10035 0.74434 0.0
Cd56 Cd 0.25619 0.06543 0.77913 0.0
O57 O 0.26542 0.03513 0.72985 0.0
Cd58 Cd 0.27097 0.00032 0.75818 0.0
O59 O 0.30337 0.95761 0.77123 0.0
C60 C 0.34741 0.97065 0.76517 0.0
O61 O 0.37026 0.00961 0.75299 0.0
C62 C 0.26621 0.07668 0.72817 0.0
C63 C 0.27569 0.13402 0.81134 0.0
O64 O 0.30972 0.1253 0.80447 0.0
O65 O 0.23258 0.11086 0.80279 0.0
O66 O 0.75772 0.88477 0.63502 0.0
Cd67 Cd 0.81641 0.93924 0.60874 0.0
O68 O 0.73759 0.82273 0.61326 0.0
Cd69 Cd 0.69516 0.74429 0.60343 0.0
O70 O 0.64883 0.66538 0.59513 0.0
C71 C 0.60606 0.64998 0.58714 0.0
O72 O 0.59072 0.68227 0.58381 0.0
C73 C 0.73315 0.83818 0.63102 0.0
C74 C 0.77651 0.97431 0.57894 0.0
O75 O 0.77317 0.93122 0.57706 0.0
O76 O 0.79773 0.00033 0.59516 0.0
O77 O 0.79339 0.70178 0.95889 0.0
Cd78 Cd 0.79612 0.7615 0.93344 0.0
O79 O 0.8473 0.69326 0.93958 0.0
Cd80 Cd 0.89347 0.65973 0.93199 0.0
O81 O 0.93792 0.62306 0.92782 0.0
C82 C 0.92606 0.58293 0.93753 0.0
O83 O 0.88686 0.56425 0.94975 0.0
C84 C 0.82139 0.68284 0.95603 0.0
C85 C 0.73114 0.71918 0.90008 0.0
O86 O 0.77464 0.72343 0.89983 0.0
O87 O 0.71802 0.73405 0.91629 0.0
O88 O 0.20289 0.78237 0.23742 0.0
Cd89 Cd 0.20808 0.77262 0.20007 0.0
O90 O 0.25709 0.8602 0.23035 0.0
Cd91 Cd 0.31531 0.93528 0.23876 0.0
O92 O 0.39472 0.98889 0.24118 0.0
C93 C 0.42334 0.97827 0.23076 0.0
O94 O 0.40332 0.93768 0.21917 0.0
C95 C 0.23112 0.82705 0.24357 0.0
C96 C 0.12738 0.69105 0.18122 0.0
O97 O 0.16537 0.68817 0.18731 0.0
O98 O 0.12695 0.73195 0.18465 0.0
O99 O 0.31436 0.13941 0.59436 0.0
Cd100 Cd 0.34069 0.17694 0.56002 0.0
O101 O 0.32348 0.20835 0.60901 0.0
Cd102 Cd 0.35608 0.25799 0.58265 0.0
O103 O 0.40891 0.33549 0.57466 0.0
C104 C 0.45434 0.35203 0.5795 0.0
O105 O 0.46736 0.32087 0.58732 0.0
C106 C 0.31111 0.1624 0.61022 0.0
C107 C 0.30894 0.1055 0.52811 0.0
O108 O 0.35093 0.12046 0.53715 0.0
O109 O 0.28193 0.12412 0.53422 0.0
O110 O 0.27976 0.40341 0.95678 0.0
Cd111 Cd 0.32925 0.41008 0.92585 0.0
O112 O 0.22955 0.4136 0.93614 0.0
Cd113 Cd 0.16627 0.42446 0.9292 0.0
O114 O 0.11243 0.45075 0.92827 0.0
C115 C 0.12294 0.48976 0.91798 0.0
O116 O 0.1652 0.51201 0.90768 0.0
C117 C 0.24271 0.41027 0.9544 0.0
C118 C 0.29656 0.32915 0.8985 0.0
O119 O 0.32872 0.33671 0.91257 0.0
O120 O 0.27825 0.35854 0.89792 0.0
O121 O 0.83753 0.27067 0.29314 0.0
Cd122 Cd 0.82131 0.247 0.25633 0.0
O123 O 0.83494 0.19974 0.30063 0.0
Cd124 Cd 0.80914 0.16862 0.26992 0.0
O125 O 0.73643 0.13633 0.25501 0.0
C126 C 0.70827 0.1518 0.26251 0.0
O127 O 0.72599 0.18612 0.27715 0.0
C128 C 0.84058 0.24189 0.30641 0.0
C129 C 0.88107 0.31282 0.22553 0.0
O130 O 0.84152 0.31257 0.23192 0.0
O131 O 0.89364 0.28357 0.2344 0.0
H132 H 0.22821 0.36761 0.99239 0.0
H133 H 0.20623 0.4745 0.95791 0.0
H134 H 0.16926 0.49129 0.98804 0.0
H135 H 0.14839 0.48026 0.02492 0.0
H136 H 0.17396 0.37703 0.06033 0.0
H137 H 0.20494 0.35478 0.02939 0.0
C138 C 0.21478 0.39413 0.99147 0.0
C139 C 0.21811 0.41819 0.97264 0.0
C140 C 0.195 0.40496 0.00918 0.0
C141 C 0.20153 0.45326 0.97178 0.0
C142 C 0.18123 0.46367 0.98918 0.0
C143 C 0.1602 0.45245 0.0258 0.0
C144 C 0.15986 0.43107 0.04495 0.0
C145 C 0.17817 0.4401 0.008 0.0
C146 C 0.17533 0.39515 0.04588 0.0
C147 C 0.19267 0.38213 0.02816 0.0
H148 H 0.84036 0.18474 0.33821 0.0
H149 H 0.84141 0.32271 0.32519 0.0
H150 H 0.82381 0.3302 0.36151 0.0
H151 H 0.79573 0.29084 0.39565 0.0
H152 H 0.79118 0.151 0.40792 0.0
H153 H 0.82182 0.15061 0.37309 0.0
C154 C 0.83778 0.21706 0.34333 0.0
C155 C 0.84163 0.25277 0.32887 0.0
C156 C 0.82609 0.2203 0.36407 0.0
C157 C 0.83843 0.2945 0.33591 0.0
C158 C 0.82797 0.29863 0.35668 0.0
C159 C 0.80314 0.26125 0.39096 0.0
C160 C 0.79162 0.22122 0.40442 0.0
C161 C 0.81995 0.26081 0.37074 0.0
C162 C 0.79967 0.18216 0.39781 0.0
C163 C 0.8172 0.18192 0.37791 0.0
H164 H 0.62386 0.67063 0.69779 0.0
H165 H 0.57498 0.77323 0.71836 0.0
H166 H 0.62061 0.82958 0.69033 0.0
H167 H 0.67631 0.85098 0.66 0.0
H168 H 0.72227 0.74665 0.63884 0.0
H169 H 0.67505 0.68942 0.66669 0.0
C170 C 0.6229 0.70523 0.69621 0.0
C171 C 0.59683 0.71794 0.7108 0.0
C172 C 0.64843 0.73709 0.67967 0.0
C173 C 0.59584 0.76278 0.70812 0.0
C174 C 0.62167 0.79504 0.69181 0.0
C175 C 0.67558 0.81551 0.66145 0.0
C176 C 0.70192 0.80259 0.64717 0.0
C177 C 0.64847 0.7828 0.6776 0.0
C178 C 0.70098 0.75671 0.64923 0.0
C179 C 0.6745 0.72425 0.66531 0.0
H180 H 0.87171 0.56741 0.02347 0.0
H181 H 0.71365 0.50116 0.03467 0.0
H182 H 0.70695 0.55113 0.0071 0.0
H183 H 0.74641 0.61495 0.98001 0.0
H184 H 0.90413 0.67976 0.96834 0.0
H185 H 0.91042 0.62835 0.9954 0.0
C186 C 0.83579 0.56382 0.0198 0.0
C187 C 0.7936 0.53207 0.03163 0.0
C188 C 0.83207 0.59203 1.00364 0.0
C189 C 0.74718 0.52724 0.02653 0.0
C190 C 0.74317 0.55526 0.01053 0.0
C191 C 0.78204 0.61753 0.98337 0.0
C192 C 0.82451 0.65025 0.97191 0.0
C193 C 0.78547 0.5882 0.99913 0.0
C194 C 0.87055 0.65357 0.97645 0.0
C195 C 0.87431 0.62465 0.99212 0.0
H196 H 0.24651 0.78022 0.27556 0.0
H197 H 0.22316 0.90338 0.26079 0.0
H198 H 0.22066 0.92104 0.29765 0.0
H199 H 0.21881 0.89697 0.3341 0.0
H200 H 0.24919 0.77801 0.34868 0.0
H201 H 0.25638 0.76385 0.31199 0.0
C202 C 0.24129 0.81112 0.28051 0.0
C203 C 0.23425 0.84005 0.26567 0.0
C204 C 0.24138 0.82189 0.30166 0.0
C205 C 0.22842 0.88058 0.27207 0.0
C206 C 0.22693 0.8906 0.2931 0.0
C207 C 0.2279 0.86859 0.32922 0.0
C208 C 0.23305 0.83836 0.34408 0.0
C209 C 0.23254 0.86095 0.30805 0.0
C210 C 0.24525 0.80198 0.33757 0.0
C211 C 0.24894 0.79351 0.31656 0.0
H212 H 0.30076 0.20119 0.64669 0.0
H213 H 0.28795 0.06654 0.61952 0.0
H214 H 0.27038 0.02747 0.65351 0.0
H215 H 0.26346 0.03322 0.69106 0.0
H216 H 0.27735 0.1682 0.71834 0.0
H217 H 0.28946 0.20532 0.68408 0.0
C218 C 0.29377 0.16314 0.64813 0.0
C219 C 0.29604 0.13701 0.63052 0.0
C220 C 0.28412 0.14103 0.66774 0.0
C221 C 0.2866 0.08763 0.63275 0.0
C222 C 0.27666 0.06528 0.65221 0.0
C223 C 0.26884 0.07068 0.68955 0.0
C224 C 0.26985 0.09798 0.70732 0.0
C225 C 0.2761 0.09191 0.66984 0.0
C226 C 0.27654 0.14634 0.70498 0.0
C227 C 0.28356 0.16764 0.68538 0.0
H228 H 0.51381 0.41822 0.08237 0.0
H229 H 0.60216 0.57663 0.0704 0.0
H230 H 0.52697 0.58411 0.07128 0.0
H231 H 0.43611 0.54554 0.07507 0.0
H232 H 0.34794 0.38709 0.08704 0.0
H233 H 0.42323 0.37989 0.08654 0.0
C234 C 0.5167 0.45443 0.07998 0.0
C235 C 0.56358 0.49676 0.0763 0.0
C236 C 0.47335 0.45848 0.08048 0.0
C237 C 0.56657 0.5434 0.07326 0.0
C238 C 0.52358 0.54773 0.07375 0.0
C239 C 0.43331 0.50942 0.07759 0.0
C240 C 0.38639 0.46693 0.08105 0.0
C241 C 0.47676 0.50549 0.07728 0.0
C242 C 0.38354 0.42044 0.08433 0.0
C243 C 0.42659 0.41625 0.08404 0.0
H244 H 0.96697 0.4841 0.41168 0.0
H245 H 0.87824 0.52631 0.44974 0.0
H246 H 0.93899 0.61472 0.44469 0.0
H247 H 0.01624 0.68015 0.42858 0.0
H248 H 0.10403 0.6369 0.39038 0.0
H249 H 0.04485 0.54892 0.39652 0.0
C250 C 0.96088 0.51257 0.41892 0.0
C251 C 0.91797 0.49853 0.43098 0.0
C252 C 0.99585 0.56326 0.41595 0.0
C253 C 0.91088 0.53602 0.44032 0.0
C254 C 0.94562 0.58663 0.43745 0.0
C255 C 0.02258 0.65148 0.42172 0.0
C256 C 0.06443 0.66519 0.40898 0.0
C257 C 0.98811 0.6007 0.42518 0.0
C258 C 0.07205 0.62751 0.40019 0.0
C259 C 0.03819 0.57709 0.40367 0.0
H260 H 0.43755 0.9857 0.75209 0.0
H261 H 0.30881 0.88501 0.78815 0.0
H262 H 0.34318 0.82912 0.79238 0.0
H263 H 0.40687 0.80601 0.78374 0.0
H264 H 0.53442 0.90604 0.74691 0.0
H265 H 0.50341 0.96508 0.74519 0.0
C266 C 0.41714 0.95178 0.76105 0.0
C267 C 0.37045 0.93941 0.76965 0.0
C268 C 0.43676 0.91949 0.76318 0.0
C269 C 0.34471 0.89538 0.78128 0.0
C270 C 0.36429 0.86331 0.78367 0.0
C271 C 0.42813 0.8409 0.77547 0.0
C272 C 0.47271 0.85131 0.76532 0.0
C273 C 0.40982 0.87453 0.77434 0.0
C274 C 0.49985 0.89685 0.75477 0.0
C275 C 0.48213 0.93068 0.75375 0.0
H276 H 0.43651 0.42779 0.56968 0.0
H277 H 0.55372 0.39858 0.58851 0.0
H278 H 0.6116 0.48825 0.59159 0.0
H279 H 0.62756 0.57466 0.59115 0.0
H280 H 0.51015 0.60405 0.57283 0.0
H281 H 0.45391 0.51466 0.56732 0.0
C282 C 0.47486 0.44101 0.57423 0.0
C283 C 0.49058 0.4064 0.57899 0.0
C284 C 0.50788 0.49269 0.57624 0.0
C285 C 0.54047 0.42429 0.58485 0.0
C286 C 0.57363 0.47562 0.58667 0.0
C287 C 0.58976 0.5616 0.58584 0.0
C288 C 0.57304 0.59605 0.58259 0.0
C289 C 0.55749 0.51011 0.58279 0.0
C290 C 0.52401 0.5784 0.57556 0.0
C291 C 0.49175 0.52724 0.57241 0.0
H292 H 0.03737 0.45747 0.94023 0.0
H293 H 0.1334 0.57091 0.89689 0.0
H294 H 0.08039 0.609 0.89879 0.0
H295 H 0.00819 0.61152 0.91341 0.0
H296 H 0.91256 0.49863 0.95702 0.0
H297 H 0.96406 0.45895 0.9543 0.0
C298 C 0.04661 0.49038 0.93111 0.0
C299 C 0.0894 0.51134 0.91847 0.0
C300 C 0.01615 0.51233 0.93236 0.0
C301 C 0.10077 0.55403 0.90678 0.0
C302 C 0.0705 0.5759 0.90786 0.0
C303 C -0.00151 0.57816 0.9223 0.0
C304 C 0.95662 0.55821 0.93544 0.0
C305 C 0.02833 0.5556 0.92072 0.0
C306 C 0.94459 0.51487 0.94679 0.0
C307 C 0.97404 0.49213 0.94526 0.0
H308 H 0.47642 0.06389 0.25316 0.0
H309 H 0.49371 0.96112 0.2127 0.0
H310 H 0.58386 0.00763 0.21787 0.0
H311 H 0.6573 0.07446 0.23551 0.0
H312 H 0.63961 0.17658 0.27624 0.0
H313 H 0.55031 0.13357 0.26916 0.0
C314 C 0.49991 0.05184 0.24535 0.0
C315 C 0.47824 0.00885 0.23271 0.0
C316 C 0.55173 0.07856 0.24847 0.0
C317 C 0.50932 0.99396 0.22261 0.0
C318 C 0.56094 0.0205 0.22556 0.0
C319 C 0.634 0.0876 0.24269 0.0
C320 C 0.65512 0.12843 0.25651 0.0
C321 C 0.58248 0.06241 0.23871 0.0
C322 C 0.62436 0.14507 0.26562 0.0
C323 C 0.57321 0.12044 0.26161 0.0
H324 H 0.96935 0.32638 0.21016 0.0
H325 H 0.85623 0.36775 0.20026 0.0
H326 H 0.89899 0.41255 0.16896 0.0
H327 H 0.96712 0.43795 0.14382 0.0
H328 H 0.08184 0.3992 0.15425 0.0
H329 H 0.03964 0.35513 0.18583 0.0
C330 C 0.95419 0.34545 0.20124 0.0
C331 C 0.90952 0.3435 0.20755 0.0
C332 C 0.979 0.37123 0.18323 0.0
C333 C 0.89057 0.36865 0.19582 0.0
C334 C 0.91488 0.39412 0.17784 0.0
C335 C 0.98279 0.4197 0.15296 0.0
C336 C 0.02728 0.4214 0.14658 0.0
C337 C 0.9588 0.39519 0.17128 0.0
C338 C 0.04752 0.39826 0.15878 0.0
C339 C 0.02344 0.3731 0.17685 0.0
H340 H 0.79649 0.07019 0.57423 0.0
H341 H 0.71582 0.9231 0.54651 0.0
H342 H 0.68855 0.95654 0.51844 0.0
H343 H 0.68936 0.02792 0.50131 0.0
H344 H 0.7727 0.17553 0.5284 0.0
H345 H 0.79722 0.14149 0.55714 0.0
C346 C 0.77265 0.04537 0.56213 0.0
C347 C 0.75813 0.99421 0.56249 0.0
C348 C 0.7578 0.06499 0.54585 0.0
C349 C 0.72759 0.96265 0.54659 0.0
C350 C 0.712 0.98174 0.53052 0.0
C351 C 0.71278 0.05264 0.51352 0.0
C352 C 0.72917 0.1042 0.51268 0.0
C353 C 0.72718 0.03291 0.52991 0.0
C354 C 0.75968 0.13572 0.52861 0.0
C355 C 0.77367 0.11629 0.54508 0.0
H356 H 0.57316 0.65384 0.82805 0.0
H357 H 0.67239 0.60868 0.8003 0.0
H358 H 0.72501 0.63663 0.83108 0.0
H359 H 0.74373 0.6753 0.86562 0.0
H360 H 0.64342 0.71862 0.89371 0.0
H361 H 0.59027 0.68973 0.86311 0.0
C362 C 0.6063 0.65011 0.82873 0.0
C363 C 0.61894 0.62944 0.81185 0.0
C364 C 0.63619 0.66586 0.84656 0.0
C365 C 0.66178 0.62447 0.81307 0.0
C366 C 0.69195 0.64049 0.83066 0.0
C367 C 0.71017 0.67829 0.86508 0.0
C368 C 0.69772 0.69928 0.88191 0.0
C369 C 0.67962 0.66142 0.84746 0.0
C370 C 0.65391 0.70258 0.88099 0.0
C371 C 0.62352 0.68619 0.86347 0.0
H372 H 0.98548 0.51387 0.12197 0.0
H373 H 0.89318 0.58152 0.13091 0.0
H374 H 0.95454 0.64262 0.15486 0.0
H375 H 0.03641 0.67945 0.17183 0.0
H376 H 0.1273 0.60978 0.16388 0.0
H377 H 0.06417 0.54639 0.14126 0.0
C378 C 0.9787 0.54177 0.12927 0.0
C379 C 0.93512 0.54343 0.12454 0.0
C380 C 0.01382 0.57636 0.14322 0.0
C381 C 0.92652 0.5795 0.13426 0.0
C382 C 0.96161 0.61451 0.14793 0.0
C383 C 0.04223 0.65016 0.16527 0.0
C384 C 0.08673 0.64968 0.16938 0.0
C385 C 0.00568 0.61368 0.15232 0.0
C386 C 0.09343 0.61112 0.16095 0.0
C387 C 0.05742 0.57491 0.14793 0.0
H388 H 0.20566 0.94551 0.45666 0.0
H389 H 0.33943 0.9352 0.46341 0.0
H390 H 0.36967 0.00032 0.49007 0.0
H391 H 0.35708 0.05847 0.51224 0.0
H392 H 0.22261 0.06768 0.50584 0.0
H393 H 0.19382 0.00476 0.47833 0.0
C394 C 0.24161 0.95773 0.46384 0.0
C395 C 0.27018 0.93541 0.45801 0.0
C396 C 0.25857 0.99485 0.47934 0.0
C397 C 0.3166 0.95165 0.46758 0.0
C398 C 0.33392 0.98887 0.48287 0.0
C399 C 0.32151 0.04682 0.50481 0.0
C400 C 0.29204 0.06776 0.51118 0.0
C401 C 0.30503 0.01042 0.48901 0.0
C402 C 0.24606 0.05218 0.50132 0.0
C403 C 0.22953 0.01618 0.48556 0.0
H404 H 0.21852 0.17372 0.82448 0.0
H405 H 0.35561 0.17361 0.83741 0.0
H406 H 0.3724 0.23134 0.86632 0.0
H407 H 0.34927 0.28343 0.88746 0.0
H408 H 0.21472 0.28741 0.87339 0.0
H409 H 0.19561 0.22632 0.84554 0.0
C410 C 0.25201 0.18623 0.83365 0.0
C411 C 0.28573 0.16932 0.82877 0.0
C412 C 0.26182 0.22003 0.85011 0.0
C413 C 0.32911 0.18617 0.84076 0.0
C414 C 0.3387 0.2191 0.85734 0.0
C415 C 0.31549 0.27053 0.87844 0.0
C416 C 0.2833 0.28969 0.88258 0.0
C417 C 0.30541 0.2364 0.86212 0.0
C418 C 0.24008 0.27318 0.87054 0.0
C419 C 0.22918 0.23832 0.85458 0.0
loop_
_geom_bond_atom_site_label_1
_geom_bond_atom_site_label_2
_geom_bond_distance
_geom_bond_site_symmetry_2
_ccdc_geom_bond_type
O0 Cd1 2.300 . S
O0 C7 1.275 . S
Cd1 O0 2.300 . S
Cd1 O9 2.381 . S
Cd1 O10 2.378 . S
O2 Cd3 2.385 . S
O2 C7 1.255 . S
Cd3 O2 2.385 . S
Cd3 O4 2.317 . S
O4 Cd3 2.317 . S
O4 C5 1.232 . S
C5 O4 1.232 . S
C5 O6 1.218 . S
O6 C5 1.218 . S
C7 O0 1.275 . S
C7 O2 1.255 . S
C8 O9 1.258 . S
C8 O10 1.256 . S
O9 Cd1 2.381 . S
O9 C8 1.258 . S
O10 Cd1 2.378 . S
O10 C8 1.256 . S
O11 Cd12 2.300 . S
O11 C18 1.275 . S
Cd12 O11 2.300 . S
Cd12 O20 2.381 . S
Cd12 O21 2.378 . S
O13 Cd14 2.385 . S
O13 C18 1.255 . S
Cd14 O13 2.385 . S
Cd14 O15 2.317 . S
O15 Cd14 2.317 . S
O15 C16 1.232 . S
C16 O15 1.232 . S
C16 O17 1.218 . S
O17 C16 1.218 . S
C18 O11 1.275 . S
C18 O13 1.255 . S
C19 O20 1.258 . S
C19 O21 1.256 . S
O20 Cd12 2.381 . S
O20 C19 1.258 . S
O21 Cd12 2.378 . S
O21 C19 1.256 . S
O22 Cd23 2.300 . S
O22 C29 1.275 . S
Cd23 O22 2.300 . S
Cd23 O31 2.381 . S
Cd23 O32 2.378 . S
O24 Cd25 2.385 . S
O24 C29 1.255 . S
Cd25 O24 2.385 . S
Cd25 O26 2.317 . S
O26 Cd25 2.317 . S
O26 C27 1.232 . S
C27 O26 1.232 . S
C27 O28 1.218 . S
O28 C27 1.218 . S
C29 O22 1.275 . S
C29 O24 1.255 . S
C30 O31 1.258 . S
C30 O32 1.256 . S
O31 Cd23 2.381 . S
O31 C30 1.258 . S
O32 Cd23 2.378 . S
O32 C30 1.256 . S
O33 Cd34 2.300 . S
O33 C40 1.275 . S
Cd34 O33 2.300 . S
Cd34 O42 2.381 . S
Cd34 O43 2.378 . S
O35 Cd36 2.385 . S
O35 C40 1.255 . S
Cd36 O35 2.385 . S
Cd36 O37 2.317 . S
O37 Cd36 2.317 . S
O37 C38 1.232 . S
C38 O37 1.232 . S
C38 O39 1.218 . S
O39 C38 1.218 . S
C40 O33 1.275 . S
C40 O35 1.255 . S
C41 O42 1.258 . S
C41 O43 1.256 . S
O42 Cd34 2.381 . S
O42 C41 1.258 . S
O43 Cd34 2.378 . S
O43 C41 1.256 . S
O44 Cd45 2.300 . S
O44 C51 1.275 . S
Cd45 O44 2.300 . S
Cd45 O53 2.381 . S
Cd45 O54 2.378 . S
O46 Cd47 2.385 . S
O46 C51 1.255 . S
Cd47 O46 2.385 . S
Cd47 O48 2.317 . S
O48 Cd47 2.317 . S
O48 C49 1.232 . S
C49 O48 1.232 . S
C49 O50 1.218 . S
O50 C49 1.218 . S
C51 O44 1.275 . S
C51 O46 1.255 . S
C52 O53 1.258 . S
C52 O54 1.256 . S
O53 Cd45 2.381 . S
O53 C52 1.258 . S
O54 Cd45 2.378 . S
O54 C52 1.256 . S
O55 Cd56 2.300 . S
O55 C62 1.275 . S
Cd56 O55 2.300 . S
Cd56 O64 2.381 . S
Cd56 O65 2.378 . S
O57 Cd58 2.385 . S
O57 C62 1.255 . S
Cd58 O57 2.385 . S
Cd58 O59 2.317 . S
O59 Cd58 2.317 . S
O59 C60 1.232 . S
C60 O59 1.232 . S
C60 O61 1.218 . S
O61 C60 1.218 . S
C62 O55 1.275 . S
C62 O57 1.255 . S
C63 O64 1.258 . S
C63 O65 1.256 . S
O64 Cd56 2.381 . S
O64 C63 1.258 . S
O65 Cd56 2.378 . S
O65 C63 1.256 . S
O66 Cd67 2.300 . S
O66 C73 1.275 . S
Cd67 O66 2.300 . S
Cd67 O75 2.381 . S
Cd67 O76 2.378 . S
O68 Cd69 2.385 . S
O68 C73 1.255 . S
Cd69 O68 2.385 . S
Cd69 O70 2.317 . S
O70 Cd69 2.317 . S
O70 C71 1.232 . S
C71 O70 1.232 . S
C71 O72 1.218 . S
O72 C71 1.218 . S
C73 O66 1.275 . S
C73 O68 1.255 . S
C74 O75 1.258 . S
C74 O76 1.256 . S
O75 Cd67 2.381 . S
O75 C74 1.258 . S
O76 Cd67 2.378 . S
O76 C74 1.256 . S
O77 Cd78 2.300 . S
O77 C84 1.275 . S
Cd78 O77 2.300 . S
Cd78 O86 2.381 . S
Cd78 O87 2.378 . S
O79 Cd80 2.385 . S
O79 C84 1.255 . S
Cd80 O79 2.385 . S
Cd80 O81 2.317 . S
O81 Cd80 2.317 . S
O81 C82 1.232 . S
C82 O81 1.232 . S
C82 O83 1.218 . S
O83 C82 1.218 . S
C84 O77 1.275 . S
C84 O79 1.255 . S
C85 O86 1.258 . S
C85 O87 1.256 . S
O86 Cd78 2.381 . S
O86 C85 1.258 . S
O87 Cd78 2.378 . S
O87 C85 1.256 . S
O88 Cd89 2.300 . S
O88 C95 1.275 . S
Cd89 O88 2.300 . S
Cd89 O97 2.381 . S
Cd89 O98 2.378 . S
O90 Cd91 2.385 . S
O90 C95 1.255 . S
Cd91 O90 2.385 . S
Cd91 O92 2.317 . S
O92 Cd91 2.317 . S
O92 C93 1.232 . S
C93 O92 1.232 . S
C93 O94 1.218 . S
O94 C93 1.218 . S
C95 O88 1.275 . S
C95 O90 1.255 . S
C96 O97 1.258 . S
C96 O98 1.256 . S
O97 Cd89 2.381 . S
O97 C96 1.258 . S
O98 Cd89 2.378 . S
O98 C96 1.256 . S
O99 Cd100 2.300 . S
O99 C106 1.275 . S
Cd100 O99 2.300 . S
Cd100 O108 2.381 . S
Cd100 O109 2.378 . S
O101 Cd102 2.385 . S
O101 C106 1.255 . S
Cd102 O101 2.385 . S
Cd102 O103 2.317 . S
O103 Cd102 2.317 . S
O103 C104 1.232 . S
C104 O103 1.232 . S
C104 O105 1.218 . S
O105 C104 1.218 . S
C106 O99 1.275 . S
C106 O101 1.255 . S
C107 O108 1.258 . S
C107 O109 1.256 . S
O108 Cd100 2.381 . S
O108 C107 1.258 . S
O109 Cd100 2.378 . S
O109 C107 1.256 . S
O110 Cd111 2.300 . S
O110 C117 1.275 . S
Cd111 O110 2.300 . S
Cd111 O119 2.381 . S
Cd111 O120 2.378 . S
O112 Cd113 2.385 . S
O112 C117 1.255 . S
Cd113 O112 2.385 . S
Cd113 O114 2.317 . S
O114 Cd113 2.317 . S
O114 C115 1.232 . S
C115 O114 1.232 . S
C115 O116 1.218 . S
O116 C115 1.218 . S
C117 O110 1.275 . S
C117 O112 1.255 . S
C118 O119 1.258 . S
C118 O120 1.256 . S
O119 Cd111 2.381 . S
O119 C118 1.258 . S
O120 Cd111 2.378 . S
O120 C118 1.256 . S
O121 Cd122 2.300 . S
O121 C128 1.275 . S
Cd122 O121 2.300 . S
Cd122 O130 2.381 . S
Cd122 O131 2.378 . S
O123 Cd124 2.385 . S
O123 C128 1.255 . S
Cd124 O123 2.385 . S
Cd124 O125 2.317 . S
O125 Cd124 2.317 . S
O125 C126 1.232 . S
C126 O125 1.232 . S
C126 O127 1.218 . S
O127 C126 1.218 . S
C128 O121 1.275 . S
C128 O123 1.255 . S
C129 O130 1.258 . S
C129 O131 1.256 . S
O130 Cd122 2.381 . S
O130 C129 1.258 . S
O131 Cd122 2.378 . S
O131 C129 1.256 . S
H132 C138 0.930 . S
H133 C141 0.930 . S
H134 C142 0.930 . S
H135 C143 0.930 . S
H136 C146 0.930 . S
H137 C147 0.930 . S
C138 H132 0.930 . S
C138 C139 1.355 . S
C138 C140 1.415 . S
C139 C138 1.355 . S
C139 C141 1.419 . S
C140 C138 1.415 . S
C140 C145 1.425 1_556 S
C140 C147 1.409 1_556 S
C141 H133 0.930 . S
C141 C139 1.419 . S
C141 C142 1.362 . S
C142 H134 0.930 . S
C142 C141 1.362 . S
C142 C145 1.409 1_556 S
C143 H135 0.930 . S
C143 C144 1.355 . S
C143 C145 1.415 . S
C144 C143 1.355 . S
C144 C146 1.419 . S
C145 C140 1.425 1_554 S
C145 C142 1.409 1_554 S
C145 C143 1.415 . S
C146 H136 0.930 . S
C146 C144 1.419 . S
C146 C147 1.362 . S
C147 H137 0.930 . S
C147 C140 1.409 1_554 S
C147 C146 1.362 . S
H148 C154 0.930 . S
H149 C157 0.930 . S
H150 C158 0.930 . S
H151 C159 0.930 . S
H152 C162 0.930 . S
H153 C163 0.930 . S
C154 H148 0.930 . S
C154 C155 1.355 . S
C154 C156 1.415 . S
C155 C154 1.355 . S
C155 C157 1.419 . S
C156 C154 1.415 . S
C156 C161 1.425 . S
C156 C163 1.409 . S
C157 H149 0.930 . S
C157 C155 1.419 . S
C157 C158 1.362 . S
C158 H150 0.930 . S
C158 C157 1.362 . S
C158 C161 1.409 . S
C159 H151 0.930 . S
C159 C160 1.355 . S
C159 C161 1.415 . S
C160 C159 1.355 . S
C160 C162 1.419 . S
C161 C156 1.425 . S
C161 C158 1.409 . S
C161 C159 1.415 . S
C162 H152 0.930 . S
C162 C160 1.419 . S
C162 C163 1.362 . S
C163 H153 0.930 . S
C163 C156 1.409 . S
C163 C162 1.362 . S
H164 C170 0.930 . S
H165 C173 0.930 . S
H166 C174 0.930 . S
H167 C175 0.930 . S
H168 C178 0.930 . S
H169 C179 0.930 . S
C170 H164 0.930 . S
C170 C171 1.355 . S
C170 C172 1.415 . S
C171 C170 1.355 . S
C171 C173 1.419 . S
C172 C170 1.415 . S
C172 C177 1.425 . S
C172 C179 1.409 . S
C173 H165 0.930 . S
C173 C171 1.419 . S
C173 C174 1.362 . S
C174 H166 0.930 . S
C174 C173 1.362 . S
C174 C177 1.409 . S
C175 H167 0.930 . S
C175 C176 1.355 . S
C175 C177 1.415 . S
C176 C175 1.355 . S
C176 C178 1.419 . S
C177 C172 1.425 . S
C177 C174 1.409 . S
C177 C175 1.415 . S
C178 H168 0.930 . S
C178 C176 1.419 . S
C178 C179 1.362 . S
C179 H169 0.930 . S
C179 C172 1.409 . S
C179 C178 1.362 . S
H180 C186 0.930 . S
H181 C189 0.930 . S
H182 C190 0.930 . S
H183 C191 0.930 . S
H184 C194 0.930 . S
H185 C195 0.930 . S
C186 H180 0.930 . S
C186 C187 1.355 . S
C186 C188 1.415 . S
C187 C186 1.355 . S
C187 C189 1.419 . S
C188 C186 1.415 . S
C188 C193 1.425 1_554 S
C188 C195 1.409 1_554 S
C189 H181 0.930 . S
C189 C187 1.419 . S
C189 C190 1.362 . S
C190 H182 0.930 . S
C190 C189 1.362 . S
C190 C193 1.409 1_554 S
C191 H183 0.930 . S
C191 C192 1.355 . S
C191 C193 1.415 . S
C192 C191 1.355 . S
C192 C194 1.419 . S
C193 C188 1.425 1_556 S
C193 C190 1.409 1_556 S
C193 C191 1.415 . S
C194 H184 0.930 . S
C194 C192 1.419 . S
C194 C195 1.362 . S
C195 H185 0.930 . S
C195 C188 1.409 1_556 S
C195 C194 1.362 . S
H196 C202 0.930 . S
H197 C205 0.930 . S
H198 C206 0.930 . S
H199 C207 0.930 . S
H200 C210 0.930 . S
H201 C211 0.930 . S
C202 H196 0.930 . S
C202 C203 1.355 . S
C202 C204 1.415 . S
C203 C202 1.355 . S
C203 C205 1.419 . S
C204 C202 1.415 . S
C204 C209 1.425 . S
C204 C211 1.409 . S
C205 H197 0.930 . S
C205 C203 1.419 . S
C205 C206 1.362 . S
C206 H198 0.930 . S
C206 C205 1.362 . S
C206 C209 1.409 . S
C207 H199 0.930 . S
C207 C208 1.355 . S
C207 C209 1.415 . S
C208 C207 1.355 . S
C208 C210 1.419 . S
C209 C204 1.425 . S
C209 C206 1.409 . S
C209 C207 1.415 . S
C210 H200 0.930 . S
C210 C208 1.419 . S
C210 C211 1.362 . S
C211 H201 0.930 . S
C211 C204 1.409 . S
C211 C210 1.362 . S
H212 C218 0.930 . S
H213 C221 0.930 . S
H214 C222 0.930 . S
H215 C223 0.930 . S
H216 C226 0.930 . S
H217 C227 0.930 . S
C218 H212 0.930 . S
C218 C219 1.355 . S
C218 C220 1.415 . S
C219 C218 1.355 . S
C219 C221 1.419 . S
C220 C218 1.415 . S
C220 C225 1.425 . S
C220 C227 1.409 . S
C221 H213 0.930 . S
C221 C219 1.419 . S
C221 C222 1.362 . S
C222 H214 0.930 . S
C222 C221 1.362 . S
C222 C225 1.409 . S
C223 H215 0.930 . S
C223 C224 1.355 . S
C223 C225 1.415 . S
C224 C223 1.355 . S
C224 C226 1.419 . S
C225 C220 1.425 . S
C225 C222 1.409 . S
C225 C223 1.415 . S
C226 H216 0.930 . S
C226 C224 1.419 . S
C226 C227 1.362 . S
C227 H217 0.930 . S
C227 C220 1.409 . S
C227 C226 1.362 . S
H228 C234 0.930 . S
H229 C237 0.930 . S
H230 C238 0.930 . S
H231 C239 0.930 . S
H232 C242 0.930 . S
H233 C243 0.930 . S
C234 H228 0.930 . S
C234 C235 1.355 . S
C234 C236 1.415 . S
C235 C234 1.355 . S
C235 C237 1.419 . S
C236 C234 1.415 . S
C236 C241 1.425 . S
C236 C243 1.409 . S
C237 H229 0.930 . S
C237 C235 1.419 . S
C237 C238 1.362 . S
C238 H230 0.930 . S
C238 C237 1.362 . S
C238 C241 1.409 . S
C239 H231 0.930 . S
C239 C240 1.355 . S
C239 C241 1.415 . S
C240 C239 1.355 . S
C240 C242 1.419 . S
C241 C236 1.425 . S
C241 C238 1.409 . S
C241 C239 1.415 . S
C242 H232 0.930 . S
C242 C240 1.419 . S
C242 C243 1.362 . S
C243 H233 0.930 . S
C243 C236 1.409 . S
C243 C242 1.362 . S
H244 C250 0.930 . S
H245 C253 0.930 . S
H246 C254 0.930 . S
H247 C255 0.930 . S
H248 C258 0.930 . S
H249 C259 0.930 . S
C250 H244 0.930 . S
C250 C251 1.355 . S
C250 C252 1.415 . S
C251 C250 1.355 . S
C251 C253 1.419 . S
C252 C250 1.415 . S
C252 C257 1.425 1_655 S
C252 C259 1.409 1_655 S
C253 H245 0.930 . S
C253 C251 1.419 . S
C253 C254 1.362 . S
C254 H246 0.930 . S
C254 C253 1.362 . S
C254 C257 1.409 1_655 S
C255 H247 0.930 . S
C255 C256 1.355 . S
C255 C257 1.415 . S
C256 C255 1.355 . S
C256 C258 1.419 . S
C257 C252 1.425 1_455 S
C257 C254 1.409 1_455 S
C257 C255 1.415 . S
C258 H248 0.930 . S
C258 C256 1.419 . S
C258 C259 1.362 . S
C259 H249 0.930 . S
C259 C252 1.409 1_455 S
C259 C258 1.362 . S
H260 C266 0.930 . S
H261 C269 0.930 . S
H262 C270 0.930 . S
H263 C271 0.930 . S
H264 C274 0.930 . S
H265 C275 0.930 . S
C266 H260 0.930 . S
C266 C267 1.355 . S
C266 C268 1.415 . S
C267 C266 1.355 . S
C267 C269 1.419 . S
C268 C266 1.415 . S
C268 C273 1.425 1_545 S
C268 C275 1.409 . S
C269 H261 0.930 . S
C269 C267 1.419 . S
C269 C270 1.362 1_545 S
C270 H262 0.930 . S
C270 C269 1.362 1_565 S
C270 C273 1.409 . S
C271 H263 0.930 . S
C271 C272 1.355 . S
C271 C273 1.415 . S
C272 C271 1.355 . S
C272 C274 1.419 . S
C273 C268 1.425 1_565 S
C273 C270 1.409 . S
C273 C271 1.415 . S
C274 H264 0.930 . S
C274 C272 1.419 . S
C274 C275 1.362 1_565 S
C275 H265 0.930 . S
C275 C268 1.409 . S
C275 C274 1.362 1_545 S
H276 C282 0.930 . S
H277 C285 0.930 . S
H278 C286 0.930 . S
H279 C287 0.930 . S
H280 C290 0.930 . S
H281 C291 0.930 . S
C282 H276 0.930 . S
C282 C283 1.355 . S
C282 C284 1.415 . S
C283 C282 1.355 . S
C283 C285 1.419 . S
C284 C282 1.415 . S
C284 C289 1.425 . S
C284 C291 1.409 . S
C285 H277 0.930 . S
C285 C283 1.419 . S
C285 C286 1.362 . S
C286 H278 0.930 . S
C286 C285 1.362 . S
C286 C289 1.409 . S
C287 H279 0.930 . S
C287 C288 1.355 . S
C287 C289 1.415 . S
C288 C287 1.355 . S
C288 C290 1.419 . S
C289 C284 1.425 . S
C289 C286 1.409 . S
C289 C287 1.415 . S
C290 H280 0.930 . S
C290 C288 1.419 . S
C290 C291 1.362 . S
C291 H281 0.930 . S
C291 C284 1.409 . S
C291 C290 1.362 . S
H292 C298 0.930 . S
H293 C301 0.930 . S
H294 C302 0.930 . S
H295 C303 0.930 . S
H296 C306 0.930 . S
H297 C307 0.930 . S
C298 H292 0.930 . S
C298 C299 1.355 . S
C298 C300 1.415 . S
C299 C298 1.355 . S
C299 C301 1.419 . S
C300 C298 1.415 . S
C300 C305 1.425 1_455 S
C300 C307 1.409 1_455 S
C301 H293 0.930 . S
C301 C299 1.419 . S
C301 C302 1.362 . S
C302 H294 0.930 . S
C302 C301 1.362 . S
C302 C305 1.409 1_455 S
C303 H295 0.930 . S
C303 C304 1.355 . S
C303 C305 1.415 . S
C304 C303 1.355 . S
C304 C306 1.419 . S
C305 C300 1.425 1_655 S
C305 C302 1.409 1_655 S
C305 C303 1.415 . S
C306 H296 0.930 . S
C306 C304 1.419 . S
C306 C307 1.362 . S
C307 H297 0.930 . S
C307 C300 1.409 1_655 S
C307 C306 1.362 . S
H308 C314 0.930 . S
H309 C317 0.930 . S
H310 C318 0.930 . S
H311 C319 0.930 . S
H312 C322 0.930 . S
H313 C323 0.930 . S
C314 H308 0.930 . S
C314 C315 1.355 . S
C314 C316 1.415 1_565 S
C315 C314 1.355 . S
C315 C317 1.419 . S
C316 C314 1.415 1_545 S
C316 C321 1.425 1_545 S
C316 C323 1.409 . S
C317 H309 0.930 . S
C317 C315 1.419 . S
C317 C318 1.362 . S
C318 H310 0.930 . S
C318 C317 1.362 . S
C318 C321 1.409 . S
C319 H311 0.930 . S
C319 C320 1.355 . S
C319 C321 1.415 1_545 S
C320 C319 1.355 . S
C320 C322 1.419 . S
C321 C316 1.425 1_565 S
C321 C318 1.409 . S
C321 C319 1.415 1_565 S
C322 H312 0.930 . S
C322 C320 1.419 . S
C322 C323 1.362 . S
C323 H313 0.930 . S
C323 C316 1.409 . S
C323 C322 1.362 . S
H324 C330 0.930 . S
H325 C333 0.930 . S
H326 C334 0.932 . S
H327 C335 0.930 . S
H328 C338 0.930 . S
H329 C339 0.932 . S
C330 H324 0.930 . S
C330 C331 1.355 . S
C330 C332 1.415 . S
C331 C330 1.355 . S
C331 C333 1.419 . S
C332 C330 1.415 . S
C332 C337 1.425 1_655 S
C332 C339 1.418 . S
C333 H325 0.930 . S
C333 C331 1.419 . S
C333 C334 1.352 1_655 S
C334 H326 0.932 . S
C334 C333 1.352 1_455 S
C334 C337 1.418 . S
C335 H327 0.930 . S
C335 C336 1.355 . S
C335 C337 1.415 . S
C336 C335 1.355 . S
C336 C338 1.419 . S
C337 C332 1.425 1_455 S
C337 C334 1.418 . S
C337 C335 1.415 . S
C338 H328 0.930 . S
C338 C336 1.419 . S
C338 C339 1.352 1_455 S
C339 H329 0.932 . S
C339 C332 1.418 . S
C339 C338 1.352 1_655 S
H340 C346 0.930 . S
H341 C349 0.930 . S
H342 C350 0.930 . S
H343 C351 0.930 . S
H344 C354 0.930 . S
H345 C355 0.930 . S
C346 H340 0.930 . S
C346 C347 1.355 . S
C346 C348 1.415 . S
C347 C346 1.355 . S
C347 C349 1.419 . S
C348 C346 1.415 . S
C348 C353 1.425 1_565 S
C348 C355 1.409 1_565 S
C349 H341 0.930 . S
C349 C347 1.419 . S
C349 C350 1.362 . S
C350 H342 0.930 . S
C350 C349 1.362 . S
C350 C353 1.409 1_565 S
C351 H343 0.930 . S
C351 C352 1.355 . S
C351 C353 1.415 . S
C352 C351 1.355 . S
C352 C354 1.419 . S
C353 C348 1.425 1_545 S
C353 C350 1.409 1_545 S
C353 C351 1.415 . S
C354 H344 0.930 . S
C354 C352 1.419 . S
C354 C355 1.362 . S
C355 H345 0.930 . S
C355 C348 1.409 1_545 S
C355 C354 1.362 . S
H356 C362 0.930 . S
H357 C365 0.930 . S
H358 C366 0.930 . S
H359 C367 0.930 . S
H360 C370 0.930 . S
H361 C371 0.930 . S
C362 H356 0.930 . S
C362 C363 1.355 . S
C362 C364 1.415 . S
C363 C362 1.355 . S
C363 C365 1.419 . S
C364 C362 1.415 . S
C364 C369 1.425 . S
C364 C371 1.409 . S
C365 H357 0.930 . S
C365 C363 1.419 . S
C365 C366 1.362 . S
C366 H358 0.930 . S
C366 C365 1.362 . S
C366 C369 1.409 . S
C367 H359 0.930 . S
C367 C368 1.355 . S
C367 C369 1.415 . S
C368 C367 1.355 . S
C368 C370 1.419 . S
C369 C364 1.425 . S
C369 C366 1.409 . S
C369 C367 1.415 . S
C370 H360 0.930 . S
C370 C368 1.419 . S
C370 C371 1.362 . S
C371 H361 0.930 . S
C371 C364 1.409 . S
C371 C370 1.362 . S
H372 C378 0.930 . S
H373 C381 0.930 . S
H374 C382 0.930 . S
H375 C383 0.930 . S
H376 C386 0.930 . S
H377 C387 0.930 . S
C378 H372 0.930 . S
C378 C379 1.355 . S
C378 C380 1.415 . S
C379 C378 1.355 . S
C379 C381 1.419 . S
C380 C378 1.415 . S
C380 C385 1.425 1_655 S
C380 C387 1.409 1_655 S
C381 H373 0.930 . S
C381 C379 1.419 . S
C381 C382 1.362 . S
C382 H374 0.930 . S
C382 C381 1.362 . S
C382 C385 1.409 1_655 S
C383 H375 0.930 . S
C383 C384 1.355 . S
C383 C385 1.415 . S
C384 C383 1.355 . S
C384 C386 1.419 . S
C385 C380 1.425 1_455 S
C385 C382 1.409 1_455 S
C385 C383 1.415 . S
C386 H376 0.930 . S
C386 C384 1.419 . S
C386 C387 1.362 . S
C387 H377 0.930 . S
C387 C380 1.409 1_455 S
C387 C386 1.362 . S
H388 C394 0.930 . S
H389 C397 0.930 . S
H390 C398 0.930 1_545 S
H391 C399 0.930 . S
H392 C402 0.930 . S
H393 C403 0.930 1_565 S
C394 H388 0.930 . S
C394 C395 1.355 . S
C394 C396 1.415 . S
C395 C394 1.355 . S
C395 C397 1.419 . S
C396 C394 1.415 . S
C396 C401 1.425 1_565 S
C396 C403 1.409 1_565 S
C397 H389 0.930 . S
C397 C395 1.419 . S
C397 C398 1.362 . S
C398 H390 0.930 1_565 S
C398 C397 1.362 . S
C398 C401 1.409 1_565 S
C399 H391 0.930 . S
C399 C400 1.355 . S
C399 C401 1.415 . S
C400 C399 1.355 . S
C400 C402 1.419 . S
C401 C396 1.425 1_545 S
C401 C398 1.409 1_545 S
C401 C399 1.415 . S
C402 H392 0.930 . S
C402 C400 1.419 . S
C402 C403 1.362 . S
C403 H393 0.930 1_545 S
C403 C396 1.409 1_545 S
C403 C402 1.362 . S
H404 C410 0.930 . S
H405 C413 0.930 . S
H406 C414 0.930 . S
H407 C415 0.930 . S
H408 C418 0.930 . S
H409 C419 0.930 . S
C410 H404 0.930 . S
C410 C411 1.355 . S
C410 C412 1.415 . S
C411 C410 1.355 . S
C411 C413 1.419 . S
C412 C410 1.415 . S
C412 C417 1.425 . S
C412 C419 1.409 . S
C413 H405 0.930 . S
C413 C411 1.419 . S
C413 C414 1.362 . S
C414 H406 0.930 . S
C414 C413 1.362 . S
C414 C417 1.409 . S
C415 H407 0.930 . S
C415 C416 1.355 . S
C415 C417 1.415 . S
C416 C415 1.355 . S
C416 C418 1.419 . S
C417 C412 1.425 . S
C417 C414 1.409 . S
C417 C415 1.415 . S
C418 H408 0.930 . S
C418 C416 1.419 . S
C418 C419 1.362 . S
C419 H409 0.930 . S
C419 C412 1.409 . S
C419 C418 1.362 . S
C139 C117 1.443 . S
C144 C7 1.485 . S
C155 C128 1.487 . S
C160 C18 1.422 . S
C171 C29 1.481 . S
C176 C73 1.449 . S
C187 C40 1.474 . S
C192 C84 1.457 . S
C203 C95 1.424 . S
C208 C51 1.490 . S
C219 C106 1.459 . S
C224 C62 1.437 . S
C235 C38 1.208 . S
C240 C5 1.200 . S
C251 C16 1.287 . S
C256 C49 1.224 . S
C267 C60 1.196 . S
C272 C27 1.234 . S
C283 C104 1.334 . S
C288 C71 1.337 . S
C299 C115 1.297 . S
C304 C82 1.233 . S
C315 C93 1.328 . S
C320 C126 1.273 . S
C331 C129 1.494 . S
C336 C8 1.474 . S
C347 C74 1.506 . S
C352 C19 1.474 . S
C363 C30 1.495 . S
C368 C85 1.473 . S
C379 C41 1.478 . S
C384 C96 1.509 . S
C395 C52 1.496 . S
C400 C107 1.473 . S
C411 C63 1.479 . S
C416 C118 1.485 . S
