# Generated by pormake.
# Topology afw, (4)-cn, num edge types: 1
# Building blocks:
#     Node 0, Type 0, BuildingBlock: NAHDIM_clean_sbu_0, # of connection points: 4
#     Node 1, Type 0, BuildingBlock: NAHDIM_clean_sbu_0, # of connection points: 4
#     Node 2, Type 0, BuildingBlock: NAHDIM_clean_sbu_0, # of connection points: 4
#     Node 3, Type 0, BuildingBlock: NAHDIM_clean_sbu_0, # of connection points: 4
#     Node 4, Type 0, BuildingBlock: NAHDIM_clean_sbu_0, # of connection points: 4
#     Node 5, Type 0, BuildingBlock: NAHDIM_clean_sbu_0, # of connection points: 4
#     Node 6, Type 0, BuildingBlock: NAHDIM_clean_sbu_0, # of connection points: 4
#     Node 7, Type 0, BuildingBlock: NAHDIM_clean_sbu_0, # of connection points: 4
#     Node 8, Type 0, BuildingBlock: NAHDIM_clean_sbu_0, # of connection points: 4
#     Edge 9, Type (0, 0), BuildingBlock: KIFKEQ_clean_linker_1, # of connection points: 2
#     Edge 10, Type (0, 0), BuildingBlock: KIFKEQ_clean_linker_1, # of connection points: 2
#     Edge 11, Type (0, 0), BuildingBlock: KIFKEQ_clean_linker_1, # of connection points: 2
#     Edge 12, Type (0, 0), BuildingBlock: KIFKEQ_clean_linker_1, # of connection points: 2
#     Edge 13, Type (0, 0), BuildingBlock: KIFKEQ_clean_linker_1, # of connection points: 2
#     Edge 14, Type (0, 0), BuildingBlock: KIFKEQ_clean_linker_1, # of connection points: 2
#     Edge 15, Type (0, 0), BuildingBlock: KIFKEQ_clean_linker_1, # of connection points: 2
#     Edge 16, Type (0, 0), BuildingBlock: KIFKEQ_clean_linker_1, # of connection points: 2
#     Edge 17, Type (0, 0), BuildingBlock: KIFKEQ_clean_linker_1, # of connection points: 2
#     Edge 18, Type (0, 0), BuildingBlock: KIFKEQ_clean_linker_1, # of connection points: 2
#     Edge 19, Type (0, 0), BuildingBlock: KIFKEQ_clean_linker_1, # of connection points: 2
#     Edge 20, Type (0, 0), BuildingBlock: KIFKEQ_clean_linker_1, # of connection points: 2
#     Edge 21, Type (0, 0), BuildingBlock: KIFKEQ_clean_linker_1, # of connection points: 2
#     Edge 22, Type (0, 0), BuildingBlock: KIFKEQ_clean_linker_1, # of connection points: 2
#     Edge 23, Type (0, 0), BuildingBlock: KIFKEQ_clean_linker_1, # of connection points: 2
#     Edge 24, Type (0, 0), BuildingBlock: KIFKEQ_clean_linker_1, # of connection points: 2
#     Edge 25, Type (0, 0), BuildingBlock: KIFKEQ_clean_linker_1, # of connection points: 2
#     Edge 26, Type (0, 0), BuildingBlock: KIFKEQ_clean_linker_1, # of connection points: 2
# Relax obj value: 0.264
# Max RMSD: 0.263
# Mean RMSD: 0.245
data_MOF--net-afw--node1-NAHDIM_clean_sbu_0--edge1-KIFKEQ_clean_linker_1
_symmetry_space_group_name_H-M    P1
_symmetry_Int_Tables_number       1
_symmetry_cell_setting            triclinic
loop_
_symmetry_equiv_pos_as_xyz
'x, y, z'
_cell_length_a     40.018097
_cell_length_b     41.991572
_cell_length_c     35.847331
_cell_angle_alpha  92.295363
_cell_angle_beta   91.033216
_cell_angle_gamma 118.79884
loop_
_atom_site_label
_atom_site_type_symbol
_atom_site_fract_x
_atom_site_fract_y
_atom_site_fract_z
_atom_type_partial_charge
C0 C 0.03833 0.27008 0.95278 0.0
O1 O 0.05887 0.28364 0.9841 0.0
O2 O 0.06325 0.2038 -0.00425 0.0
Zn3 Zn 0.01307 0.20343 -0.01075 0.0
O4 O -0.00171 0.2181 0.03735 0.0
C5 C 0.94554 0.133 -0.00671 0.0
O6 O 0.93815 0.14883 0.02186 0.0
O7 O 0.01581 0.23605 0.94882 0.0
C8 C 0.0214 0.23957 0.06295 0.0
O9 O 0.05831 0.25491 0.0583 0.0
C10 C 0.07882 0.20019 0.96646 0.0
O11 O 0.0631 0.19934 0.93368 0.0
O12 O 0.97467 0.15157 0.97449 0.0
C13 C 0.75431 0.74996 0.04836 0.0
O14 O 0.73833 0.745 0.01477 0.0
O15 O 0.87481 0.79593 0.02028 0.0
Zn16 Zn 0.82371 0.79311 0.01058 0.0
O17 O 0.79771 0.76542 0.96237 0.0
C18 C 0.86321 0.86796 -0.00572 0.0
O19 O 0.88911 0.85876 0.98488 0.0
O20 O 0.79023 0.76977 0.05308 0.0
C21 C 0.81311 0.77387 0.93104 0.0
O22 O 0.84855 0.80004 0.92995 0.0
C23 C 0.88819 0.77771 0.00326 0.0
O24 O 0.86698 0.75251 0.97743 0.0
O25 O 0.83208 0.84413 0.00696 0.0
C26 C 0.27772 0.979 0.95461 0.0
O27 O 0.2771 0.96742 -0.01176 0.0
O28 O 0.17756 0.95389 -0.01178 0.0
Zn29 Zn 0.22737 0.00037 0.98763 0.0
O30 O 0.25723 0.01062 0.03612 0.0
C31 C 0.23255 0.07278 -0.00825 0.0
O32 O 0.26185 0.08234 0.01519 0.0
O33 O 0.25823 -0.00528 0.94727 0.0
C34 C 0.24733 0.01774 0.06743 0.0
O35 O 0.21526 0.01906 0.06938 0.0
C36 C 0.16832 0.93018 0.01255 0.0
O37 O 0.19265 0.93506 0.04014 0.0
O38 O 0.21529 0.04054 0.97703 0.0
C39 C 0.65313 0.58975 0.25845 0.0
O40 O 0.64991 0.59991 0.29273 0.0
O41 O 0.70261 0.51984 0.28435 0.0
Zn42 Zn 0.66246 0.53441 0.295 0.0
O43 O 0.67448 0.56384 0.34352 0.0
C44 C 0.58485 0.47224 0.27911 0.0
O45 O 0.58425 0.48641 0.24725 0.0
O46 O 0.65776 0.56208 0.25287 0.0
C47 C 0.67077 0.54743 0.37343 0.0
O48 O 0.66152 0.51282 0.37118 0.0
C49 C 0.73346 0.53102 0.3038 0.0
O50 O 0.74152 0.55518 0.33169 0.0
O51 O 0.61388 0.48839 0.30138 0.0
C52 C 0.40809 0.10147 0.40759 0.0
O53 O 0.3855 0.08788 0.3775 0.0
O54 O 0.51299 0.16648 0.35338 0.0
Zn55 Zn 0.45772 0.1531 0.35677 0.0
O56 O 0.4251 0.11776 0.31494 0.0
C57 C 0.45796 0.21101 0.31995 0.0
O58 O 0.46138 0.19178 0.29198 0.0
O59 O 0.43975 0.13047 0.40579 0.0
C60 C 0.43671 0.11102 0.28444 0.0
O61 O 0.47346 0.12711 0.27874 0.0
C62 C 0.52597 0.14418 0.35339 0.0
O63 O 0.5022 0.10917 0.3544 0.0
O64 O 0.45469 0.19938 0.35264 0.0
C65 C 0.9279 0.32709 0.40122 0.0
O66 O 0.90867 0.29153 0.39563 0.0
O67 O 0.87209 0.36966 0.32472 0.0
Zn68 Zn 0.88158 0.32858 0.33797 0.0
O69 O 0.90419 0.31552 0.29439 0.0
C70 C 0.80884 0.26132 0.32883 0.0
O71 O 0.82041 0.25935 0.29518 0.0
O72 O 0.92013 0.34693 0.38088 0.0
C73 C 0.90767 0.28701 0.29223 0.0
O74 O 0.89465 0.26385 0.31875 0.0
C75 C 0.8457 0.36403 0.30086 0.0
O76 O 0.82605 0.3316 0.28395 0.0
O77 O 0.83092 0.28717 0.35186 0.0
C78 C 0.39067 0.94045 0.61344 0.0
O79 O 0.42109 0.94973 0.6352 0.0
O80 O 0.40542 0.86701 0.65 0.0
Zn81 Zn 0.36355 0.87978 0.65761 0.0
O82 O 0.3713 0.90737 0.70649 0.0
C83 C 0.3049 0.80741 0.63491 0.0
O84 O 0.32615 0.81278 0.60583 0.0
O85 O 0.36116 0.90999 0.61708 0.0
C86 C 0.36686 0.89104 0.73654 0.0
O87 O 0.35947 0.85693 0.73477 0.0
C88 C 0.43726 0.88223 0.66832 0.0
O89 O 0.44482 0.90927 0.69272 0.0
O90 O 0.31449 0.83307 0.6597 0.0
C91 C 0.117 0.41996 0.72823 0.0
O92 O 0.12574 0.40556 0.69934 0.0
O93 O 0.20549 0.4916 0.68678 0.0
Zn94 Zn 0.15021 0.47848 0.68239 0.0
O95 O 0.12305 0.44586 0.63717 0.0
C96 C 0.16588 0.55093 0.70234 0.0
O97 O 0.18059 0.54493 0.73259 0.0
O98 O 0.12464 0.45302 0.728 0.0
C99 C 0.13085 0.45673 0.60434 0.0
O100 O 0.15899 0.48959 0.59974 0.0
C101 C 0.22179 0.47553 0.67089 0.0
O102 O 0.20165 0.44649 0.64862 0.0
O103 O 0.14898 0.52524 0.67753 0.0
C104 C 0.61882 0.64429 0.6109 0.0
O105 O 0.62236 0.63259 0.6434 0.0
O106 O 0.52362 0.62665 0.65689 0.0
Zn107 Zn 0.57591 0.66952 0.65349 0.0
O108 O 0.60939 0.67637 0.69869 0.0
C109 C 0.56661 0.73049 0.6775 0.0
O110 O 0.56945 0.71926 0.71049 0.0
O111 O 0.59997 0.66135 0.60828 0.0
C112 C 0.64267 0.70367 0.7001 0.0
O113 O 0.65299 0.7259 0.67266 0.0
C114 C 0.50711 0.61708 0.68756 0.0
O115 O 0.52548 0.63464 0.71889 0.0
O116 O 0.56948 0.71379 0.64842 0.0
H117 H 0.25175 0.13795 0.02914 0.0
H118 H 0.17861 0.06443 0.93906 0.0
H119 H 0.22166 0.17616 0.02144 0.0
H120 H 0.14852 0.10224 0.93168 0.0
H121 H 0.11496 0.18642 0.90921 0.0
H122 H 0.15912 0.16204 0.91323 0.0
H123 H 0.15724 0.16819 0.03368 0.0
H124 H 0.11345 0.19304 0.02976 0.0
C125 C 0.22963 0.13018 0.00742 0.0
C126 C 0.21738 0.09802 0.98488 0.0
C127 C 0.2123 0.15197 0.00314 0.0
C128 C 0.1827 0.1422 0.976 0.0
C129 C 0.17158 0.11081 0.95254 0.0
C130 C 0.18864 0.08895 0.95698 0.0
C131 C 0.12446 0.1832 0.93659 0.0
C132 C 0.11024 0.19117 0.96916 0.0
C133 C 0.14965 0.16908 0.93886 0.0
C134 C 0.16125 0.16273 0.97374 0.0
C135 C 0.149 0.17294 0.00638 0.0
C136 C 0.12373 0.18701 0.00412 0.0
H137 H 0.81522 0.89615 0.00839 0.0
H138 H 0.92777 0.9249 0.97061 0.0
H139 H 0.82853 0.95893 0.0025 0.0
H140 H 0.94129 0.98738 0.96563 0.0
H141 H 0.95078 0.09199 0.93498 0.0
H142 H 0.92519 0.02624 0.93065 0.0
H143 H 0.86881 0.01788 0.03436 0.0
H144 H 0.89346 0.08346 0.03813 0.0
C145 C 0.84275 0.91582 -0.00119 0.0
C146 C 0.8705 0.9056 -0.00989 0.0
C147 C 0.85038 0.95176 -0.0045 0.0
C148 C 0.88589 0.97812 0.98344 0.0
C149 C 0.91335 0.96765 0.97428 0.0
C150 C 0.90573 0.93183 0.97751 0.0
C151 C 0.93232 0.07604 0.95648 0.0
C152 C 0.92463 0.09297 0.9872 0.0
C153 C 0.91784 0.03839 0.95412 0.0
C154 C 0.89559 0.01693 0.98254 0.0
C155 C 0.88574 0.03359 0.01192 0.0
C156 C 0.90002 0.07125 0.01415 0.0
H157 H 0.93326 0.76367 0.9563 0.0
H158 H 0.93608 0.81891 0.06159 0.0
H159 H 0.00298 0.79279 0.95958 0.0
H160 H 0.00546 0.84786 0.06479 0.0
H161 H 0.13125 0.88558 0.06873 0.0
H162 H 0.0638 0.83961 0.06853 0.0
H163 H 0.0497 0.85914 0.95342 0.0
H164 H 0.11676 0.90488 0.95355 0.0
C165 C 0.94867 0.78128 0.98056 0.0
C166 C 0.92927 0.78938 0.00846 0.0
C167 C 0.98854 0.79805 0.98233 0.0
C168 C 0.00961 0.82278 0.01228 0.0
C169 C 0.99001 0.82873 0.0415 0.0
C170 C 0.95026 0.81233 0.03953 0.0
C171 C 0.11388 0.87955 0.04321 0.0
C172 C 0.12915 0.89913 0.01129 0.0
C173 C 0.07531 0.85333 0.04314 0.0
C174 C 0.05153 0.84588 0.011 0.0
C175 C 0.0674 0.86399 0.97848 0.0
C176 C 0.10574 0.89045 0.97868 0.0
H177 H 0.88504 0.43613 0.3238 0.0
H178 H 0.78109 0.35591 0.26532 0.0
H179 H 0.86378 0.48143 0.31921 0.0
H180 H 0.75912 0.40049 0.2621 0.0
H181 H 0.73313 0.48997 0.24268 0.0
H182 H 0.76591 0.45405 0.23667 0.0
H183 H 0.81816 0.49408 0.34729 0.0
H184 H 0.78672 0.53114 0.35249 0.0
C185 C 0.85772 0.42823 0.30983 0.0
C186 C 0.83463 0.3924 0.29513 0.0
C187 C 0.84543 0.45413 0.30738 0.0
C188 C 0.80959 0.44464 0.29053 0.0
C189 C 0.78714 0.40905 0.27475 0.0
C190 C 0.79962 0.38332 0.27682 0.0
C191 C 0.75214 0.49152 0.26544 0.0
C192 C 0.75709 0.5131 0.29819 0.0
C193 C 0.77074 0.47074 0.26212 0.0
C194 C 0.79428 0.47067 0.2917 0.0
C195 C 0.80061 0.49368 0.32374 0.0
C196 C 0.78241 0.51484 0.32684 0.0
H197 H 0.45569 0.26006 0.37139 0.0
H198 H 0.47241 0.24511 0.25455 0.0
H199 H 0.47464 0.3238 0.36251 0.0
H200 H 0.49258 0.30865 0.24602 0.0
H201 H 0.52423 0.42342 0.23363 0.0
H202 H 0.48135 0.35949 0.24449 0.0
H203 H 0.53577 0.37424 0.35385 0.0
H204 H 0.57731 0.43779 0.34357 0.0
C205 C 0.4629 0.27022 0.34374 0.0
C206 C 0.46326 0.24774 0.31385 0.0
C207 C 0.47389 0.30676 0.33866 0.0
C208 C 0.4857 0.32154 0.30367 0.0
C209 C 0.48336 0.29826 0.27327 0.0
C210 C 0.47214 0.26177 0.27828 0.0
C211 C 0.52635 0.41312 0.26029 0.0
C212 C 0.55464 0.43548 0.28743 0.0
C213 C 0.50193 0.37647 0.26646 0.0
C214 C 0.50542 0.36155 0.29985 0.0
C215 C 0.53191 0.38471 0.32795 0.0
C216 C 0.55612 0.42122 0.32186 0.0
H217 H 0.56398 0.10549 0.33991 0.0
H218 H 0.58224 0.2143 0.36563 0.0
H219 H 0.63316 0.12942 0.33797 0.0
H220 H 0.65084 0.23791 0.36379 0.0
H221 H 0.77203 0.26656 0.39037 0.0
H222 H 0.70357 0.23448 0.39957 0.0
H223 H 0.68538 0.17125 0.29592 0.0
H224 H 0.75395 0.20324 0.28659 0.0
C225 C 0.5827 0.13441 0.34532 0.0
C226 C 0.56765 0.15801 0.3528 0.0
C227 C 0.62223 0.14807 0.34413 0.0
C228 C 0.64734 0.18547 0.35099 0.0
C229 C 0.63222 0.20889 0.35895 0.0
C230 C 0.59287 0.19537 0.35968 0.0
C231 C 0.75358 0.24538 0.36984 0.0
C232 C 0.76842 0.23779 0.33749 0.0
C233 C 0.71435 0.22715 0.37505 0.0
C234 C 0.68915 0.20073 0.34822 0.0
C235 C 0.70416 0.19143 0.3171 0.0
C236 C 0.74342 0.20988 0.31171 0.0
H237 H 0.50332 0.90198 0.70945 0.0
H238 H 0.42999 0.82694 0.62036 0.0
H239 H 0.54184 0.87121 0.70912 0.0
H240 H 0.46796 0.79597 0.62053 0.0
H241 H 0.55403 0.75733 0.61354 0.0
H242 H 0.52966 0.80025 0.60826 0.0
H243 H 0.53032 0.8117 0.72863 0.0
H244 H 0.55531 0.76942 0.73396 0.0
C245 C 0.49568 0.87923 0.68951 0.0
C246 C 0.46337 0.86668 0.66519 0.0
C247 C 0.51764 0.86151 0.68946 0.0
C248 C 0.50781 0.83101 0.66498 0.0
C249 C 0.47658 0.81961 0.63947 0.0
C250 C 0.45462 0.83724 0.63957 0.0
C251 C 0.5495 0.76941 0.63888 0.0
C252 C 0.55618 0.75963 0.67418 0.0
C253 C 0.5354 0.79389 0.63583 0.0
C254 C 0.52775 0.80913 0.66801 0.0
C255 C 0.53625 0.80073 0.70329 0.0
C256 C 0.55032 0.77625 0.70634 0.0
H257 H 0.25993 0.78613 0.69536 0.0
H258 H 0.28055 0.74503 0.59075 0.0
H259 H 0.21682 0.72404 0.71173 0.0
H260 H 0.23794 0.68305 0.60741 0.0
H261 H 0.20477 0.61279 0.7474 0.0
H262 H 0.22986 0.67527 0.72966 0.0
H263 H 0.17294 0.63672 0.62078 0.0
H264 H 0.14819 0.57403 0.63832 0.0
C265 C 0.25481 0.76391 0.67557 0.0
C266 C 0.27409 0.77049 0.64195 0.0
C267 C 0.23023 0.72834 0.68506 0.0
C268 C 0.2243 0.69864 0.66108 0.0
C269 C 0.24165 0.70534 0.62639 0.0
C270 C 0.26629 0.7409 0.61692 0.0
C271 C 0.19696 0.61759 0.71994 0.0
C272 C 0.17496 0.58843 0.69411 0.0
C273 C 0.21117 0.65346 0.70982 0.0
C274 C 0.20369 0.66093 0.67366 0.0
C275 C 0.17964 0.63179 0.64865 0.0
C276 C 0.16533 0.59589 0.6588 0.0
H277 H 0.26992 0.53285 0.71775 0.0
H278 H 0.26833 0.45322 0.63645 0.0
H279 H 0.33897 0.56147 0.72382 0.0
H280 H 0.3379 0.48173 0.6431 0.0
H281 H 0.46035 0.57827 0.62723 0.0
H282 H 0.39149 0.53918 0.62572 0.0
H283 H 0.39233 0.55382 0.74578 0.0
H284 H 0.46125 0.59362 0.74727 0.0
C285 C 0.28427 0.52115 0.70146 0.0
C286 C 0.26359 0.49089 0.67637 0.0
C287 C 0.32393 0.53742 0.70521 0.0
C288 C 0.34398 0.52387 0.68398 0.0
C289 C 0.32327 0.49299 0.65959 0.0
C290 C 0.28344 0.4766 0.65589 0.0
C291 C 0.44596 0.5728 0.65339 0.0
C292 C 0.46624 0.58948 0.68733 0.0
C293 C 0.40647 0.55016 0.65253 0.0
C294 C 0.38637 0.54365 0.68559 0.0
C295 C 0.40694 0.5588 0.71975 0.0
C296 C 0.44645 0.58147 0.72062 0.0
H297 H 0.08776 0.34287 0.95011 0.0
H298 H 0.00181 0.25011 0.88391 0.0
H299 H 0.10215 0.37969 0.89577 0.0
H300 H 0.01579 0.28715 0.82982 0.0
H301 H 0.09422 0.34814 0.73493 0.0
H302 H 0.07056 0.31298 0.78982 0.0
H303 H 0.07767 0.40717 0.85055 0.0
H304 H 0.10202 0.44277 0.79551 0.0
C305 C 0.07153 0.33048 0.92414 0.0
C306 C 0.04399 0.29346 0.92119 0.0
C307 C 0.07962 0.35166 0.89307 0.0
C308 C 0.06033 0.33621 0.85846 0.0
C309 C 0.03156 0.29963 0.85599 0.0
C310 C 0.02346 0.27848 0.88702 0.0
C311 C 0.09051 0.36136 0.75987 0.0
C312 C 0.10021 0.3983 0.76095 0.0
C313 C 0.07665 0.3411 0.79126 0.0
C314 C 0.0722 0.35731 0.82449 0.0
C315 C 0.08112 0.39407 0.8254 0.0
C316 C 0.0949 0.41436 0.79386 0.0
H317 H 0.83695 0.78324 0.85937 0.0
H318 H 0.73631 0.72826 0.92377 0.0
H319 H 0.79717 0.76229 0.80186 0.0
H320 H 0.69657 0.70846 0.8666 0.0
H321 H 0.63447 0.65858 0.75619 0.0
H322 H 0.67763 0.6709 0.81023 0.0
H323 H 0.75337 0.77724 0.77122 0.0
H324 H 0.71095 0.7644 0.71667 0.0
C325 C 0.80639 0.76647 0.86124 0.0
C326 C 0.78976 0.75768 0.89611 0.0
C327 C 0.78357 0.75467 0.82831 0.0
C328 C 0.74363 0.73405 0.82961 0.0
C329 C 0.72723 0.72396 0.86447 0.0
C330 C 0.75004 0.73551 0.89734 0.0
C331 C 0.66047 0.6845 0.75909 0.0
C332 C 0.66923 0.71062 0.73231 0.0
C333 C 0.68514 0.6916 0.79011 0.0
C334 C 0.71894 0.72509 0.79515 0.0
C335 C 0.72794 0.75092 0.76795 0.0
C336 C 0.70343 0.74369 0.7368 0.0
H337 H 0.34404 0.85977 0.80325 0.0
H338 H 0.3836 0.96171 0.75015 0.0
H339 H 0.3295 0.88566 0.85847 0.0
H340 H 0.36993 0.98791 0.80583 0.0
H341 H 0.28073 -0.00496 0.88133 0.0
H342 H 0.31033 0.97789 0.83152 0.0
H343 H 0.35265 0.9299 0.91127 0.0
H344 H 0.32219 0.94634 0.96115 0.0
C345 C 0.35046 0.88796 0.80369 0.0
C346 C 0.36436 0.90851 0.77214 0.0
C347 C 0.34231 0.90289 0.83545 0.0
C348 C 0.34811 0.93871 0.83632 0.0
C349 C 0.36443 0.95999 0.80568 0.0
C350 C 0.37241 0.94503 0.77387 0.0
C351 C 0.29666 0.98116 0.88834 0.0
C352 C 0.29876 0.97168 0.9251 0.0
C353 C 0.31392 0.97159 0.85982 0.0
C354 C 0.33379 0.95246 0.86744 0.0
C355 C 0.33713 0.94422 0.90447 0.0
C356 C 0.31978 0.95374 0.93302 0.0
H357 H 0.35976 0.06898 0.28911 0.0
H358 H 0.44984 0.10605 0.21045 0.0
H359 H 0.3123 0.04114 0.23774 0.0
H360 H 0.40235 0.07911 0.15901 0.0
H361 H 0.30939 0.00754 0.07424 0.0
H362 H 0.35379 0.02396 0.12787 0.0
H363 H 0.28799 0.06357 0.18933 0.0
H364 H 0.2429 0.04612 0.13598 0.0
C365 C 0.36944 0.07092 0.26085 0.0
C366 C 0.40853 0.08999 0.25377 0.0
C367 C 0.34222 0.05518 0.23141 0.0
C368 C 0.35349 0.05831 0.19426 0.0
C369 C 0.39268 0.07591 0.18732 0.0
C370 C 0.41994 0.09147 0.2168 0.0
C371 C 0.30423 0.01952 0.0993 0.0
C372 C 0.27279 0.02579 0.10083 0.0
C373 C 0.32979 0.02905 0.12998 0.0
C374 C 0.3246 0.04527 0.1628 0.0
C375 C 0.29256 0.05067 0.16464 0.0
C376 C 0.26683 0.0409 0.134 0.0
H377 H 0.05902 0.29437 0.11681 0.0
H378 H 0.94978 0.20006 0.08798 0.0
H379 H 0.03301 0.30584 0.17401 0.0
H380 H 0.92415 0.21145 0.14503 0.0
H381 H 0.90601 0.22324 0.27015 0.0
H382 H 0.93552 0.2117 0.21583 0.0
H383 H 0.98072 0.32361 0.18756 0.0
H384 H 0.95112 0.33522 0.2416 0.0
C385 C 0.02959 0.27604 0.12276 0.0
C386 C 0.0064 0.24642 0.09789 0.0
C387 C 0.01473 0.28268 0.15535 0.0
C388 C 0.97665 0.25945 0.16384 0.0
C389 C 0.95369 0.22954 0.13927 0.0
C390 C 0.96833 0.22322 0.10651 0.0
C391 C 0.92236 0.24539 0.25242 0.0
C392 C 0.92611 0.28007 0.25999 0.0
C393 C 0.93912 0.23876 0.22135 0.0
C394 C 0.96037 0.26681 0.19765 0.0
C395 C 0.96475 0.30163 0.20562 0.0
C396 C 0.94757 0.30815 0.23636 0.0
H397 H 0.64919 0.57207 0.18394 0.0
H398 H 0.66586 0.65987 0.26242 0.0
H399 H 0.66583 0.61313 0.13308 0.0
H400 H 0.68254 0.701 0.2113 0.0
H401 H 0.77522 0.76259 0.12245 0.0
H402 H 0.74162 0.72465 0.17331 0.0
H403 H 0.64859 0.65372 0.09622 0.0
H404 H 0.68225 0.69178 0.04507 0.0
C405 C 0.65569 0.59997 0.19022 0.0
C406 C 0.65677 0.6129 0.22721 0.0
C407 C 0.66492 0.6234 0.16104 0.0
C408 C 0.67572 0.66028 0.16835 0.0
C409 C 0.6746 0.67273 0.20503 0.0
C410 C 0.66495 0.64916 0.23421 0.0
C411 C 0.74732 0.73925 0.11642 0.0
C412 C 0.73157 0.72988 0.07972 0.0
C413 C 0.72793 0.71771 0.14561 0.0
C414 C 0.69258 0.6862 0.13863 0.0
C415 C 0.67594 0.67778 0.10226 0.0
C416 C 0.69516 0.6996 0.07307 0.0
H417 H 0.13547 0.47353 0.53102 0.0
H418 H 0.06813 0.38949 0.60547 0.0
H419 H 0.08874 0.44 0.48009 0.0
H420 H 0.02111 0.3565 0.55483 0.0
H421 H 0.95509 0.29372 0.44773 0.0
H422 H 0.00776 0.32283 0.49448 0.0
H423 H 0.02399 0.42835 0.46646 0.0
H424 H 0.97215 0.39952 0.41949 0.0
C425 C 0.11092 0.44776 0.53644 0.0
C426 C 0.1053 0.43439 0.57238 0.0
C427 C 0.08404 0.42867 0.50732 0.0
C428 C 0.05097 0.39584 0.51356 0.0
C429 C 0.04636 0.38159 0.54904 0.0
C430 C 0.07325 0.40064 0.57813 0.0
C431 C 0.96997 0.32313 0.45154 0.0
C432 C 0.95936 0.34429 0.42996 0.0
C433 C 9e-05 0.33978 0.47834 0.0
C434 C 0.02019 0.3779 0.48402 0.0
C435 C 0.0096 0.39896 0.4623 0.0
C436 C 0.97958 0.38238 0.43559 0.0
H437 H 0.68934 0.61859 0.38789 0.0
H438 H 0.65601 0.51779 0.44147 0.0
H439 H 0.68457 0.64675 0.44692 0.0
H440 H 0.65027 0.5456 0.50006 0.0
H441 H 0.66151 0.60953 0.60697 0.0
H442 H 0.68247 0.59071 0.55085 0.0
H443 H 0.63111 0.6397 0.48292 0.0
H444 H 0.61106 0.65927 0.53889 0.0
C445 C 0.68136 0.60255 0.41233 0.0
C446 C 0.67262 0.56584 0.40995 0.0
C447 C 0.67845 0.61864 0.44609 0.0
C448 C 0.66665 0.5983 0.47806 0.0
C449 C 0.6598 0.56214 0.47606 0.0
C450 C 0.66284 0.54611 0.44237 0.0
C451 C 0.65509 0.61663 0.58007 0.0
C452 C 0.6343 0.63556 0.57732 0.0
C453 C 0.66699 0.60575 0.54794 0.0
C454 C 0.65827 0.61352 0.51244 0.0
C455 C 0.63874 0.63367 0.50985 0.0
C456 C 0.62695 0.64464 0.54195 0.0
H457 H 0.32947 0.93631 0.57405 0.0
H458 H 0.45191 0.00106 0.59015 0.0
H459 H 0.32976 0.97764 0.52805 0.0
H460 H 0.45249 0.04147 0.54321 0.0
H461 H 0.35485 0.0305 0.41411 0.0
H462 H 0.34846 -0.00714 0.46609 0.0
H463 H 0.43576 0.08693 0.52969 0.0
H464 H 0.44325 0.12429 0.47692 0.0
C465 C 0.35647 0.95928 0.5676 0.0
C466 C 0.3907 0.96539 0.58558 0.0
C467 C 0.35666 0.98292 0.54118 0.0
C468 C 0.39113 0.01294 0.5319 0.0
C469 C 0.4253 0.01909 0.55017 0.0
C470 C 0.42505 -0.0043 0.57685 0.0
C471 C 0.37229 0.04328 0.43939 0.0
C472 C 0.3999 0.08026 0.44127 0.0
C473 C 0.36851 0.02169 0.46932 0.0
C474 C 0.39195 0.03674 0.50196 0.0
C475 C 0.41792 0.07426 0.50462 0.0
C476 C 0.42202 0.09575 0.47451 0.0
loop_
_geom_bond_atom_site_label_1
_geom_bond_atom_site_label_2
_geom_bond_distance
_geom_bond_site_symmetry_2
_ccdc_geom_bond_type
C0 O1 1.160 . S
C0 O7 1.185 . S
O1 C0 1.160 . S
O2 Zn3 1.901 . S
O2 C10 1.305 . S
Zn3 O2 1.901 . S
Zn3 O4 2.032 . S
Zn3 O7 2.086 1_554 S
Zn3 O12 1.977 1_454 S
O4 Zn3 2.032 . S
O4 C8 1.278 . S
C5 O6 1.203 . S
C5 O12 1.267 1_554 S
O6 C5 1.203 . S
O7 C0 1.185 . S
O7 Zn3 2.086 1_556 S
C8 O4 1.278 . S
C8 O9 1.211 1_455 S
O9 C8 1.211 1_655 S
C10 O2 1.305 . S
C10 O11 1.273 . S
O11 C10 1.273 . S
O12 Zn3 1.977 1_656 S
O12 C5 1.267 1_556 S
C13 O14 1.160 . S
C13 O20 1.185 . S
O14 C13 1.160 . S
O15 Zn16 1.899 . S
O15 C23 1.284 1_554 S
Zn16 O15 1.899 . S
Zn16 O17 2.032 1_554 S
Zn16 O20 2.086 . S
Zn16 O25 1.977 . S
O17 Zn16 2.032 1_556 S
O17 C21 1.278 . S
C18 O19 1.203 1_554 S
C18 O25 1.267 . S
O19 C18 1.203 1_556 S
O20 C13 1.185 . S
O20 Zn16 2.086 . S
C21 O17 1.278 . S
C21 O22 1.211 . S
O22 C21 1.211 . S
C23 O15 1.284 1_556 S
C23 O24 1.273 . S
O24 C23 1.273 . S
O25 Zn16 1.977 . S
O25 C18 1.267 . S
C26 O27 1.160 . S
C26 O33 1.185 1_565 S
O27 C26 1.160 . S
O28 Zn29 1.899 1_565 S
O28 C36 1.284 1_556 S
Zn29 O28 1.899 1_545 S
Zn29 O30 2.032 1_556 S
Zn29 O33 2.086 . S
Zn29 O38 1.977 . S
O30 Zn29 2.032 1_554 S
O30 C34 1.278 . S
C31 O32 1.203 . S
C31 O38 1.267 1_554 S
O32 C31 1.203 . S
O33 C26 1.185 1_545 S
O33 Zn29 2.086 . S
C34 O30 1.278 . S
C34 O35 1.211 . S
O35 C34 1.211 . S
C36 O28 1.284 1_554 S
C36 O37 1.273 . S
O37 C36 1.273 . S
O38 Zn29 1.977 . S
O38 C31 1.267 1_556 S
C39 O40 1.160 . S
C39 O46 1.185 . S
O40 C39 1.160 . S
O41 Zn42 1.899 . S
O41 C49 1.284 . S
Zn42 O41 1.899 . S
Zn42 O43 2.032 . S
Zn42 O46 2.086 . S
Zn42 O51 1.977 . S
O43 Zn42 2.032 . S
O43 C47 1.278 . S
C44 O45 1.203 . S
C44 O51 1.267 . S
O45 C44 1.203 . S
O46 C39 1.185 . S
O46 Zn42 2.086 . S
C47 O43 1.278 . S
C47 O48 1.211 . S
O48 C47 1.211 . S
C49 O41 1.284 . S
C49 O50 1.273 . S
O50 C49 1.273 . S
O51 Zn42 1.977 . S
O51 C44 1.267 . S
C52 O53 1.160 . S
C52 O59 1.185 . S
O53 C52 1.160 . S
O54 Zn55 1.899 . S
O54 C62 1.284 . S
Zn55 O54 1.899 . S
Zn55 O56 2.032 . S
Zn55 O59 2.086 . S
Zn55 O64 1.977 . S
O56 Zn55 2.032 . S
O56 C60 1.278 . S
C57 O58 1.203 . S
C57 O64 1.267 . S
O58 C57 1.203 . S
O59 C52 1.185 . S
O59 Zn55 2.086 . S
C60 O56 1.278 . S
C60 O61 1.211 . S
O61 C60 1.211 . S
C62 O54 1.284 . S
C62 O63 1.273 . S
O63 C62 1.273 . S
O64 Zn55 1.977 . S
O64 C57 1.267 . S
C65 O66 1.160 . S
C65 O72 1.185 . S
O66 C65 1.160 . S
O67 Zn68 1.899 . S
O67 C75 1.284 . S
Zn68 O67 1.899 . S
Zn68 O69 2.032 . S
Zn68 O72 2.086 . S
Zn68 O77 1.977 . S
O69 Zn68 2.032 . S
O69 C73 1.278 . S
C70 O71 1.203 . S
C70 O77 1.267 . S
O71 C70 1.203 . S
O72 C65 1.185 . S
O72 Zn68 2.086 . S
C73 O69 1.278 . S
C73 O74 1.211 . S
O74 C73 1.211 . S
C75 O67 1.284 . S
C75 O76 1.273 . S
O76 C75 1.273 . S
O77 Zn68 1.977 . S
O77 C70 1.267 . S
C78 O79 1.160 . S
C78 O85 1.185 . S
O79 C78 1.160 . S
O80 Zn81 1.899 . S
O80 C88 1.284 . S
Zn81 O80 1.899 . S
Zn81 O82 2.032 . S
Zn81 O85 2.086 . S
Zn81 O90 1.977 . S
O82 Zn81 2.032 . S
O82 C86 1.278 . S
C83 O84 1.203 . S
C83 O90 1.267 . S
O84 C83 1.203 . S
O85 C78 1.185 . S
O85 Zn81 2.086 . S
C86 O82 1.278 . S
C86 O87 1.211 . S
O87 C86 1.211 . S
C88 O80 1.284 . S
C88 O89 1.273 . S
O89 C88 1.273 . S
O90 Zn81 1.977 . S
O90 C83 1.267 . S
C91 O92 1.160 . S
C91 O98 1.185 . S
O92 C91 1.160 . S
O93 Zn94 1.899 . S
O93 C101 1.284 . S
Zn94 O93 1.899 . S
Zn94 O95 2.032 . S
Zn94 O98 2.086 . S
Zn94 O103 1.977 . S
O95 Zn94 2.032 . S
O95 C99 1.278 . S
C96 O97 1.203 . S
C96 O103 1.267 . S
O97 C96 1.203 . S
O98 C91 1.185 . S
O98 Zn94 2.086 . S
C99 O95 1.278 . S
C99 O100 1.211 . S
O100 C99 1.211 . S
C101 O93 1.284 . S
C101 O102 1.273 . S
O102 C101 1.273 . S
O103 Zn94 1.977 . S
O103 C96 1.267 . S
C104 O105 1.160 . S
C104 O111 1.185 . S
O105 C104 1.160 . S
O106 Zn107 1.899 . S
O106 C114 1.284 . S
Zn107 O106 1.899 . S
Zn107 O108 2.032 . S
Zn107 O111 2.086 . S
Zn107 O116 1.977 . S
O108 Zn107 2.032 . S
O108 C112 1.278 . S
C109 O110 1.203 . S
C109 O116 1.267 . S
O110 C109 1.203 . S
O111 C104 1.185 . S
O111 Zn107 2.086 . S
C112 O108 1.278 . S
C112 O113 1.211 . S
O113 C112 1.211 . S
C114 O106 1.284 . S
C114 O115 1.273 . S
O115 C114 1.273 . S
O116 Zn107 1.977 . S
O116 C109 1.267 . S
H117 C125 0.950 . S
H118 C130 0.950 . S
H119 C127 0.950 . S
H120 C129 0.950 . S
H121 C131 0.967 . S
H122 C133 0.950 . S
H123 C135 0.950 . S
H124 C136 0.950 . S
C125 H117 0.950 . S
C125 C126 1.401 . S
C125 C127 1.391 . S
C126 C125 1.401 . S
C126 C130 1.380 1_554 S
C127 H119 0.950 . S
C127 C125 1.391 . S
C127 C128 1.400 . S
C128 C127 1.400 . S
C128 C129 1.398 1_554 S
C128 C134 1.491 . S
C129 H120 0.950 . S
C129 C128 1.398 1_556 S
C129 C130 1.391 . S
C130 H118 0.950 . S
C130 C126 1.380 1_556 S
C130 C129 1.391 . S
C131 H121 0.967 . S
C131 C132 1.365 1_556 S
C131 C133 1.395 . S
C132 C131 1.365 1_554 S
C132 C136 1.393 . S
C133 H122 0.950 . S
C133 C131 1.395 . S
C133 C134 1.400 1_556 S
C134 C128 1.491 . S
C134 C133 1.400 1_554 S
C134 C135 1.398 . S
C135 H123 0.950 . S
C135 C134 1.398 . S
C135 C136 1.391 . S
C136 H124 0.950 . S
C136 C132 1.393 . S
C136 C135 1.391 . S
H137 C145 0.950 . S
H138 C150 0.937 1_556 S
H139 C147 0.950 . S
H140 C149 0.950 . S
H141 C151 0.950 . S
H142 C153 0.950 . S
H143 C155 0.950 . S
H144 C156 0.950 . S
C145 H137 0.950 . S
C145 C146 1.386 . S
C145 C147 1.391 . S
C146 C145 1.386 . S
C146 C150 1.411 . S
C147 H139 0.950 . S
C147 C145 1.391 . S
C147 C148 1.400 . S
C148 C147 1.400 . S
C148 C149 1.398 1_554 S
C148 C154 1.491 1_565 S
C149 H140 0.950 . S
C149 C148 1.398 1_556 S
C149 C150 1.386 1_556 S
C150 H138 0.937 1_554 S
C150 C146 1.411 . S
C150 C149 1.386 1_554 S
C151 H141 0.950 . S
C151 C152 1.390 . S
C151 C153 1.391 . S
C152 C151 1.390 . S
C152 C156 1.387 1_556 S
C153 H142 0.950 . S
C153 C151 1.391 . S
C153 C154 1.400 1_556 S
C154 C148 1.491 1_545 S
C154 C153 1.400 1_554 S
C154 C155 1.398 . S
C155 H143 0.950 . S
C155 C154 1.398 . S
C155 C156 1.391 . S
C156 H144 0.950 . S
C156 C152 1.387 1_554 S
C156 C155 1.391 . S
H157 C165 0.950 . S
H158 C170 0.950 . S
H159 C167 0.950 1_455 S
H160 C169 0.950 . S
H161 C171 0.950 . S
H162 C173 0.950 . S
H163 C175 0.950 . S
H164 C176 0.950 . S
C165 H157 0.950 . S
C165 C166 1.386 . S
C165 C167 1.391 . S
C166 C165 1.386 . S
C166 C170 1.393 1_556 S
C167 H159 0.950 1_655 S
C167 C165 1.391 . S
C167 C168 1.400 1_656 S
C168 C167 1.400 1_454 S
C168 C169 1.398 1_455 S
C168 C174 1.491 . S
C169 H160 0.950 . S
C169 C168 1.398 1_655 S
C169 C170 1.391 . S
C170 H158 0.950 . S
C170 C166 1.393 1_554 S
C170 C169 1.391 . S
C171 H161 0.950 . S
C171 C172 1.386 . S
C171 C173 1.391 . S
C172 C171 1.386 . S
C172 C176 1.393 1_554 S
C173 H162 0.950 . S
C173 C171 1.391 . S
C173 C174 1.400 . S
C174 C168 1.491 . S
C174 C173 1.400 . S
C174 C175 1.398 1_554 S
C175 H163 0.950 . S
C175 C174 1.398 1_556 S
C175 C176 1.391 . S
C176 H164 0.950 . S
C176 C172 1.393 1_556 S
C176 C175 1.391 . S
H177 C185 0.950 . S
H178 C190 0.950 . S
H179 C187 0.950 . S
H180 C189 0.950 . S
H181 C191 0.950 . S
H182 C193 0.950 . S
H183 C195 0.950 . S
H184 C196 0.950 . S
C185 H177 0.950 . S
C185 C186 1.386 . S
C185 C187 1.391 . S
C186 C185 1.386 . S
C186 C190 1.393 . S
C187 H179 0.950 . S
C187 C185 1.391 . S
C187 C188 1.400 . S
C188 C187 1.400 . S
C188 C189 1.398 . S
C188 C194 1.491 . S
C189 H180 0.950 . S
C189 C188 1.398 . S
C189 C190 1.391 . S
C190 H178 0.950 . S
C190 C186 1.393 . S
C190 C189 1.391 . S
C191 H181 0.950 . S
C191 C192 1.386 . S
C191 C193 1.391 . S
C192 C191 1.386 . S
C192 C196 1.393 . S
C193 H182 0.950 . S
C193 C191 1.391 . S
C193 C194 1.400 . S
C194 C188 1.491 . S
C194 C193 1.400 . S
C194 C195 1.398 . S
C195 H183 0.950 . S
C195 C194 1.398 . S
C195 C196 1.391 . S
C196 H184 0.950 . S
C196 C192 1.393 . S
C196 C195 1.391 . S
H197 C205 0.950 . S
H198 C210 0.950 . S
H199 C207 0.950 . S
H200 C209 0.950 . S
H201 C211 0.950 . S
H202 C213 0.950 . S
H203 C215 0.950 . S
H204 C216 0.950 . S
C205 H197 0.950 . S
C205 C206 1.386 . S
C205 C207 1.391 . S
C206 C205 1.386 . S
C206 C210 1.393 . S
C207 H199 0.950 . S
C207 C205 1.391 . S
C207 C208 1.400 . S
C208 C207 1.400 . S
C208 C209 1.398 . S
C208 C214 1.491 . S
C209 H200 0.950 . S
C209 C208 1.398 . S
C209 C210 1.391 . S
C210 H198 0.950 . S
C210 C206 1.393 . S
C210 C209 1.391 . S
C211 H201 0.950 . S
C211 C212 1.386 . S
C211 C213 1.391 . S
C212 C211 1.386 . S
C212 C216 1.393 . S
C213 H202 0.950 . S
C213 C211 1.391 . S
C213 C214 1.400 . S
C214 C208 1.491 . S
C214 C213 1.400 . S
C214 C215 1.398 . S
C215 H203 0.950 . S
C215 C214 1.398 . S
C215 C216 1.391 . S
C216 H204 0.950 . S
C216 C212 1.393 . S
C216 C215 1.391 . S
H217 C225 0.950 . S
H218 C230 0.950 . S
H219 C227 0.950 . S
H220 C229 0.950 . S
H221 C231 0.950 . S
H222 C233 0.950 . S
H223 C235 0.950 . S
H224 C236 0.950 . S
C225 H217 0.950 . S
C225 C226 1.386 . S
C225 C227 1.391 . S
C226 C225 1.386 . S
C226 C230 1.393 . S
C227 H219 0.950 . S
C227 C225 1.391 . S
C227 C228 1.400 . S
C228 C227 1.400 . S
C228 C229 1.398 . S
C228 C234 1.491 . S
C229 H220 0.950 . S
C229 C228 1.398 . S
C229 C230 1.391 . S
C230 H218 0.950 . S
C230 C226 1.393 . S
C230 C229 1.391 . S
C231 H221 0.950 . S
C231 C232 1.386 . S
C231 C233 1.391 . S
C232 C231 1.386 . S
C232 C236 1.393 . S
C233 H222 0.950 . S
C233 C231 1.391 . S
C233 C234 1.400 . S
C234 C228 1.491 . S
C234 C233 1.400 . S
C234 C235 1.398 . S
C235 H223 0.950 . S
C235 C234 1.398 . S
C235 C236 1.391 . S
C236 H224 0.950 . S
C236 C232 1.393 . S
C236 C235 1.391 . S
H237 C245 0.950 . S
H238 C250 0.950 . S
H239 C247 0.950 . S
H240 C249 0.950 . S
H241 C251 0.950 . S
H242 C253 0.950 . S
H243 C255 0.950 . S
H244 C256 0.950 . S
C245 H237 0.950 . S
C245 C246 1.386 . S
C245 C247 1.391 . S
C246 C245 1.386 . S
C246 C250 1.393 . S
C247 H239 0.950 . S
C247 C245 1.391 . S
C247 C248 1.400 . S
C248 C247 1.400 . S
C248 C249 1.398 . S
C248 C254 1.491 . S
C249 H240 0.950 . S
C249 C248 1.398 . S
C249 C250 1.391 . S
C250 H238 0.950 . S
C250 C246 1.393 . S
C250 C249 1.391 . S
C251 H241 0.950 . S
C251 C252 1.386 . S
C251 C253 1.391 . S
C252 C251 1.386 . S
C252 C256 1.393 . S
C253 H242 0.950 . S
C253 C251 1.391 . S
C253 C254 1.400 . S
C254 C248 1.491 . S
C254 C253 1.400 . S
C254 C255 1.398 . S
C255 H243 0.950 . S
C255 C254 1.398 . S
C255 C256 1.391 . S
C256 H244 0.950 . S
C256 C252 1.393 . S
C256 C255 1.391 . S
H257 C265 0.950 . S
H258 C270 0.950 . S
H259 C267 0.950 . S
H260 C269 0.950 . S
H261 C271 0.950 . S
H262 C273 0.950 . S
H263 C275 0.950 . S
H264 C276 0.950 . S
C265 H257 0.950 . S
C265 C266 1.386 . S
C265 C267 1.391 . S
C266 C265 1.386 . S
C266 C270 1.393 . S
C267 H259 0.950 . S
C267 C265 1.391 . S
C267 C268 1.400 . S
C268 C267 1.400 . S
C268 C269 1.398 . S
C268 C274 1.491 . S
C269 H260 0.950 . S
C269 C268 1.398 . S
C269 C270 1.391 . S
C270 H258 0.950 . S
C270 C266 1.393 . S
C270 C269 1.391 . S
C271 H261 0.950 . S
C271 C272 1.386 . S
C271 C273 1.391 . S
C272 C271 1.386 . S
C272 C276 1.393 . S
C273 H262 0.950 . S
C273 C271 1.391 . S
C273 C274 1.400 . S
C274 C268 1.491 . S
C274 C273 1.400 . S
C274 C275 1.398 . S
C275 H263 0.950 . S
C275 C274 1.398 . S
C275 C276 1.391 . S
C276 H264 0.950 . S
C276 C272 1.393 . S
C276 C275 1.391 . S
H277 C285 0.950 . S
H278 C290 0.950 . S
H279 C287 0.950 . S
H280 C289 0.950 . S
H281 C291 0.950 . S
H282 C293 0.950 . S
H283 C295 0.950 . S
H284 C296 0.950 . S
C285 H277 0.950 . S
C285 C286 1.386 . S
C285 C287 1.391 . S
C286 C285 1.386 . S
C286 C290 1.393 . S
C287 H279 0.950 . S
C287 C285 1.391 . S
C287 C288 1.400 . S
C288 C287 1.400 . S
C288 C289 1.398 . S
C288 C294 1.491 . S
C289 H280 0.950 . S
C289 C288 1.398 . S
C289 C290 1.391 . S
C290 H278 0.950 . S
C290 C286 1.393 . S
C290 C289 1.391 . S
C291 H281 0.950 . S
C291 C292 1.386 . S
C291 C293 1.391 . S
C292 C291 1.386 . S
C292 C296 1.393 . S
C293 H282 0.950 . S
C293 C291 1.391 . S
C293 C294 1.400 . S
C294 C288 1.491 . S
C294 C293 1.400 . S
C294 C295 1.398 . S
C295 H283 0.950 . S
C295 C294 1.398 . S
C295 C296 1.391 . S
C296 H284 0.950 . S
C296 C292 1.393 . S
C296 C295 1.391 . S
H297 C305 0.950 . S
H298 C310 0.950 . S
H299 C307 0.950 . S
H300 C309 0.950 . S
H301 C311 0.950 . S
H302 C313 0.950 . S
H303 C315 0.950 . S
H304 C316 0.950 . S
C305 H297 0.950 . S
C305 C306 1.386 . S
C305 C307 1.391 . S
C306 C305 1.386 . S
C306 C310 1.393 . S
C307 H299 0.950 . S
C307 C305 1.391 . S
C307 C308 1.400 . S
C308 C307 1.400 . S
C308 C309 1.398 . S
C308 C314 1.491 . S
C309 H300 0.950 . S
C309 C308 1.398 . S
C309 C310 1.391 . S
C310 H298 0.950 . S
C310 C306 1.393 . S
C310 C309 1.391 . S
C311 H301 0.950 . S
C311 C312 1.386 . S
C311 C313 1.391 . S
C312 C311 1.386 . S
C312 C316 1.393 . S
C313 H302 0.950 . S
C313 C311 1.391 . S
C313 C314 1.400 . S
C314 C308 1.491 . S
C314 C313 1.400 . S
C314 C315 1.398 . S
C315 H303 0.950 . S
C315 C314 1.398 . S
C315 C316 1.391 . S
C316 H304 0.950 . S
C316 C312 1.393 . S
C316 C315 1.391 . S
H317 C325 0.950 . S
H318 C330 0.950 . S
H319 C327 0.950 . S
H320 C329 0.950 . S
H321 C331 0.950 . S
H322 C333 0.950 . S
H323 C335 0.950 . S
H324 C336 0.950 . S
C325 H317 0.950 . S
C325 C326 1.386 . S
C325 C327 1.391 . S
C326 C325 1.386 . S
C326 C330 1.393 . S
C327 H319 0.950 . S
C327 C325 1.391 . S
C327 C328 1.400 . S
C328 C327 1.400 . S
C328 C329 1.398 . S
C328 C334 1.491 . S
C329 H320 0.950 . S
C329 C328 1.398 . S
C329 C330 1.391 . S
C330 H318 0.950 . S
C330 C326 1.393 . S
C330 C329 1.391 . S
C331 H321 0.950 . S
C331 C332 1.386 . S
C331 C333 1.391 . S
C332 C331 1.386 . S
C332 C336 1.393 . S
C333 H322 0.950 . S
C333 C331 1.391 . S
C333 C334 1.400 . S
C334 C328 1.491 . S
C334 C333 1.400 . S
C334 C335 1.398 . S
C335 H323 0.950 . S
C335 C334 1.398 . S
C335 C336 1.391 . S
C336 H324 0.950 . S
C336 C332 1.393 . S
C336 C335 1.391 . S
H337 C345 0.950 . S
H338 C350 0.950 . S
H339 C347 0.950 . S
H340 C349 0.950 . S
H341 C351 0.950 . S
H342 C353 0.950 . S
H343 C355 0.950 . S
H344 C356 0.950 . S
C345 H337 0.950 . S
C345 C346 1.386 . S
C345 C347 1.391 . S
C346 C345 1.386 . S
C346 C350 1.393 . S
C347 H339 0.950 . S
C347 C345 1.391 . S
C347 C348 1.400 . S
C348 C347 1.400 . S
C348 C349 1.398 . S
C348 C354 1.491 . S
C349 H340 0.950 . S
C349 C348 1.398 . S
C349 C350 1.391 . S
C350 H338 0.950 . S
C350 C346 1.393 . S
C350 C349 1.391 . S
C351 H341 0.950 . S
C351 C352 1.386 . S
C351 C353 1.391 . S
C352 C351 1.386 . S
C352 C356 1.393 . S
C353 H342 0.950 . S
C353 C351 1.391 . S
C353 C354 1.400 . S
C354 C348 1.491 . S
C354 C353 1.400 . S
C354 C355 1.398 . S
C355 H343 0.950 . S
C355 C354 1.398 . S
C355 C356 1.391 . S
C356 H344 0.950 . S
C356 C352 1.393 . S
C356 C355 1.391 . S
H357 C365 0.950 . S
H358 C370 0.950 . S
H359 C367 0.950 . S
H360 C369 0.950 . S
H361 C371 0.950 . S
H362 C373 0.950 . S
H363 C375 0.950 . S
H364 C376 0.950 . S
C365 H357 0.950 . S
C365 C366 1.386 . S
C365 C367 1.391 . S
C366 C365 1.386 . S
C366 C370 1.393 . S
C367 H359 0.950 . S
C367 C365 1.391 . S
C367 C368 1.400 . S
C368 C367 1.400 . S
C368 C369 1.398 . S
C368 C374 1.491 . S
C369 H360 0.950 . S
C369 C368 1.398 . S
C369 C370 1.391 . S
C370 H358 0.950 . S
C370 C366 1.393 . S
C370 C369 1.391 . S
C371 H361 0.950 . S
C371 C372 1.386 . S
C371 C373 1.391 . S
C372 C371 1.386 . S
C372 C376 1.393 . S
C373 H362 0.950 . S
C373 C371 1.391 . S
C373 C374 1.400 . S
C374 C368 1.491 . S
C374 C373 1.400 . S
C374 C375 1.398 . S
C375 H363 0.950 . S
C375 C374 1.398 . S
C375 C376 1.391 . S
C376 H364 0.950 . S
C376 C372 1.393 . S
C376 C375 1.391 . S
H377 C385 0.950 . S
H378 C390 0.950 . S
H379 C387 0.950 . S
H380 C389 0.950 . S
H381 C391 0.950 . S
H382 C393 0.950 . S
H383 C395 0.950 1_455 S
H384 C396 0.950 . S
C385 H377 0.950 . S
C385 C386 1.378 1_455 S
C385 C387 1.391 . S
C386 C385 1.378 1_655 S
C386 C390 1.413 . S
C387 H379 0.950 . S
C387 C385 1.391 . S
C387 C388 1.400 1_455 S
C388 C387 1.400 1_655 S
C388 C389 1.398 . S
C388 C394 1.491 . S
C389 H380 0.950 . S
C389 C388 1.398 . S
C389 C390 1.391 . S
C390 H378 0.950 . S
C390 C386 1.413 . S
C390 C389 1.391 . S
C391 H381 0.950 . S
C391 C392 1.386 . S
C391 C393 1.391 . S
C392 C391 1.386 . S
C392 C396 1.393 . S
C393 H382 0.950 . S
C393 C391 1.391 . S
C393 C394 1.400 . S
C394 C388 1.491 . S
C394 C393 1.400 . S
C394 C395 1.398 . S
C395 H383 0.950 1_655 S
C395 C394 1.398 . S
C395 C396 1.391 . S
C396 H384 0.950 . S
C396 C392 1.393 . S
C396 C395 1.391 . S
H397 C405 0.950 . S
H398 C410 0.950 . S
H399 C407 0.950 . S
H400 C409 0.950 . S
H401 C411 0.950 . S
H402 C413 0.950 . S
H403 C415 0.950 . S
H404 C416 0.950 . S
C405 H397 0.950 . S
C405 C406 1.386 . S
C405 C407 1.391 . S
C406 C405 1.386 . S
C406 C410 1.393 . S
C407 H399 0.950 . S
C407 C405 1.391 . S
C407 C408 1.400 . S
C408 C407 1.400 . S
C408 C409 1.398 . S
C408 C414 1.491 . S
C409 H400 0.950 . S
C409 C408 1.398 . S
C409 C410 1.391 . S
C410 H398 0.950 . S
C410 C406 1.393 . S
C410 C409 1.391 . S
C411 H401 0.950 . S
C411 C412 1.386 . S
C411 C413 1.391 . S
C412 C411 1.386 . S
C412 C416 1.393 . S
C413 H402 0.950 . S
C413 C411 1.391 . S
C413 C414 1.400 . S
C414 C408 1.491 . S
C414 C413 1.400 . S
C414 C415 1.398 . S
C415 H403 0.950 . S
C415 C414 1.398 . S
C415 C416 1.391 . S
C416 H404 0.950 . S
C416 C412 1.393 . S
C416 C415 1.391 . S
H417 C425 0.950 . S
H418 C430 0.950 . S
H419 C427 0.950 . S
H420 C429 0.950 . S
H421 C431 0.950 . S
H422 C433 0.950 . S
H423 C435 0.950 . S
H424 C436 0.950 . S
C425 H417 0.950 . S
C425 C426 1.386 . S
C425 C427 1.391 . S
C426 C425 1.386 . S
C426 C430 1.393 . S
C427 H419 0.950 . S
C427 C425 1.391 . S
C427 C428 1.400 . S
C428 C427 1.400 . S
C428 C429 1.398 . S
C428 C434 1.491 . S
C429 H420 0.950 . S
C429 C428 1.398 . S
C429 C430 1.391 . S
C430 H418 0.950 . S
C430 C426 1.393 . S
C430 C429 1.391 . S
C431 H421 0.950 . S
C431 C432 1.386 . S
C431 C433 1.391 1_655 S
C432 C431 1.386 . S
C432 C436 1.393 . S
C433 H422 0.950 . S
C433 C431 1.391 1_455 S
C433 C434 1.400 . S
C434 C428 1.491 . S
C434 C433 1.400 . S
C434 C435 1.398 1_455 S
C435 H423 0.950 . S
C435 C434 1.398 1_655 S
C435 C436 1.391 . S
C436 H424 0.950 . S
C436 C432 1.393 . S
C436 C435 1.391 . S
H437 C445 0.950 . S
H438 C450 0.950 . S
H439 C447 0.950 . S
H440 C449 0.950 . S
H441 C451 0.950 . S
H442 C453 0.950 . S
H443 C455 0.950 . S
H444 C456 0.950 . S
C445 H437 0.950 . S
C445 C446 1.386 . S
C445 C447 1.391 . S
C446 C445 1.386 . S
C446 C450 1.393 . S
C447 H439 0.950 . S
C447 C445 1.391 . S
C447 C448 1.400 . S
C448 C447 1.400 . S
C448 C449 1.398 . S
C448 C454 1.491 . S
C449 H440 0.950 . S
C449 C448 1.398 . S
C449 C450 1.391 . S
C450 H438 0.950 . S
C450 C446 1.393 . S
C450 C449 1.391 . S
C451 H441 0.950 . S
C451 C452 1.386 . S
C451 C453 1.391 . S
C452 C451 1.386 . S
C452 C456 1.393 . S
C453 H442 0.950 . S
C453 C451 1.391 . S
C453 C454 1.400 . S
C454 C448 1.491 . S
C454 C453 1.400 . S
C454 C455 1.398 . S
C455 H443 0.950 . S
C455 C454 1.398 . S
C455 C456 1.391 . S
C456 H444 0.950 . S
C456 C452 1.393 . S
C456 C455 1.391 . S
H457 C465 0.950 . S
H458 C470 0.950 . S
H459 C467 0.950 1_545 S
H460 C469 0.950 . S
H461 C471 0.950 . S
H462 C473 0.950 . S
H463 C475 0.950 . S
H464 C476 0.950 . S
C465 H457 0.950 . S
C465 C466 1.386 . S
C465 C467 1.391 . S
C466 C465 1.386 . S
C466 C470 1.393 . S
C467 H459 0.950 1_565 S
C467 C465 1.391 . S
C467 C468 1.400 . S
C468 C467 1.400 . S
C468 C469 1.398 . S
C468 C474 1.491 1_565 S
C469 H460 0.950 . S
C469 C468 1.398 . S
C469 C470 1.391 . S
C470 H458 0.950 . S
C470 C466 1.393 . S
C470 C469 1.391 . S
C471 H461 0.950 . S
C471 C472 1.386 . S
C471 C473 1.391 . S
C472 C471 1.386 . S
C472 C476 1.393 . S
C473 H462 0.950 . S
C473 C471 1.391 . S
C473 C474 1.400 . S
C474 C468 1.491 1_545 S
C474 C473 1.400 . S
C474 C475 1.398 . S
C475 H463 0.950 . S
C475 C474 1.398 . S
C475 C476 1.391 . S
C476 H464 0.950 . S
C476 C472 1.393 . S
C476 C475 1.391 . S
C126 C31 0.969 . S
C132 C10 0.993 . S
C146 C18 0.956 . S
C152 C5 0.986 1_556 S
C166 C23 0.997 . S
C172 C36 1.013 . S
C186 C75 1.000 . S
C192 C49 0.977 . S
C206 C57 0.921 . S
C212 C44 0.956 . S
C226 C62 0.997 . S
C232 C70 0.980 . S
C246 C88 0.979 . S
C252 C109 0.968 . S
C266 C83 0.893 . S
C272 C96 0.918 . S
C286 C101 0.993 . S
C292 C114 0.981 . S
C306 C0 1.278 . S
C312 C91 1.315 . S
C326 C21 1.295 . S
C332 C112 1.303 . S
C346 C86 1.257 . S
C352 C26 1.236 . S
C366 C60 1.230 . S
C372 C34 1.264 . S
C386 C8 1.279 1_655 S
C392 C73 1.286 . S
C406 C39 1.302 . S
C412 C13 1.273 . S
C426 C99 1.260 . S
C432 C65 1.267 . S
C446 C47 1.302 . S
C452 C104 1.301 . S
C466 C78 1.301 . S
C472 C52 1.309 . S
