# Generated by pormake.
# Topology pem, (4)-cn, num edge types: 1
# Building blocks:
#     Node 0, Type 0, BuildingBlock: CEKHIL_clean_sbu_0, # of connection points: 4
#     Node 1, Type 0, BuildingBlock: CEKHIL_clean_sbu_0, # of connection points: 4
#     Node 2, Type 0, BuildingBlock: CEKHIL_clean_sbu_0, # of connection points: 4
#     Node 3, Type 0, BuildingBlock: CEKHIL_clean_sbu_0, # of connection points: 4
#     Node 4, Type 0, BuildingBlock: CEKHIL_clean_sbu_0, # of connection points: 4
#     Node 5, Type 0, BuildingBlock: CEKHIL_clean_sbu_0, # of connection points: 4
#     Node 6, Type 0, BuildingBlock: CEKHIL_clean_sbu_0, # of connection points: 4
#     Node 7, Type 0, BuildingBlock: CEKHIL_clean_sbu_0, # of connection points: 4
#     Node 8, Type 0, BuildingBlock: CEKHIL_clean_sbu_0, # of connection points: 4
#     Node 9, Type 0, BuildingBlock: CEKHIL_clean_sbu_0, # of connection points: 4
#     Node 10, Type 0, BuildingBlock: CEKHIL_clean_sbu_0, # of connection points: 4
#     Node 11, Type 0, BuildingBlock: CEKHIL_clean_sbu_0, # of connection points: 4
#     Node 12, Type 0, BuildingBlock: CEKHIL_clean_sbu_0, # of connection points: 4
#     Node 13, Type 0, BuildingBlock: CEKHIL_clean_sbu_0, # of connection points: 4
#     Node 14, Type 0, BuildingBlock: CEKHIL_clean_sbu_0, # of connection points: 4
#     Node 15, Type 0, BuildingBlock: CEKHIL_clean_sbu_0, # of connection points: 4
#     Node 16, Type 0, BuildingBlock: CEKHIL_clean_sbu_0, # of connection points: 4
#     Node 17, Type 0, BuildingBlock: CEKHIL_clean_sbu_0, # of connection points: 4
#     Node 18, Type 0, BuildingBlock: CEKHIL_clean_sbu_0, # of connection points: 4
#     Node 19, Type 0, BuildingBlock: CEKHIL_clean_sbu_0, # of connection points: 4
#     Node 20, Type 0, BuildingBlock: CEKHIL_clean_sbu_0, # of connection points: 4
#     Node 21, Type 0, BuildingBlock: CEKHIL_clean_sbu_0, # of connection points: 4
#     Node 22, Type 0, BuildingBlock: CEKHIL_clean_sbu_0, # of connection points: 4
#     Node 23, Type 0, BuildingBlock: CEKHIL_clean_sbu_0, # of connection points: 4
#     Node 24, Type 0, BuildingBlock: CEKHIL_clean_sbu_0, # of connection points: 4
#     Node 25, Type 0, BuildingBlock: CEKHIL_clean_sbu_0, # of connection points: 4
#     Node 26, Type 0, BuildingBlock: CEKHIL_clean_sbu_0, # of connection points: 4
#     Node 27, Type 0, BuildingBlock: CEKHIL_clean_sbu_0, # of connection points: 4
#     Node 28, Type 0, BuildingBlock: CEKHIL_clean_sbu_0, # of connection points: 4
#     Node 29, Type 0, BuildingBlock: CEKHIL_clean_sbu_0, # of connection points: 4
#     Node 30, Type 0, BuildingBlock: CEKHIL_clean_sbu_0, # of connection points: 4
#     Node 31, Type 0, BuildingBlock: CEKHIL_clean_sbu_0, # of connection points: 4
#     Edge 32, Type (0, 0), BuildingBlock: TEMPAE_clean_linker_10, # of connection points: 2
#     Edge 33, Type (0, 0), BuildingBlock: TEMPAE_clean_linker_10, # of connection points: 2
#     Edge 34, Type (0, 0), BuildingBlock: TEMPAE_clean_linker_10, # of connection points: 2
#     Edge 35, Type (0, 0), BuildingBlock: TEMPAE_clean_linker_10, # of connection points: 2
#     Edge 36, Type (0, 0), BuildingBlock: TEMPAE_clean_linker_10, # of connection points: 2
#     Edge 37, Type (0, 0), BuildingBlock: TEMPAE_clean_linker_10, # of connection points: 2
#     Edge 38, Type (0, 0), BuildingBlock: TEMPAE_clean_linker_10, # of connection points: 2
#     Edge 39, Type (0, 0), BuildingBlock: TEMPAE_clean_linker_10, # of connection points: 2
#     Edge 40, Type (0, 0), BuildingBlock: TEMPAE_clean_linker_10, # of connection points: 2
#     Edge 41, Type (0, 0), BuildingBlock: TEMPAE_clean_linker_10, # of connection points: 2
#     Edge 42, Type (0, 0), BuildingBlock: TEMPAE_clean_linker_10, # of connection points: 2
#     Edge 43, Type (0, 0), BuildingBlock: TEMPAE_clean_linker_10, # of connection points: 2
#     Edge 44, Type (0, 0), BuildingBlock: TEMPAE_clean_linker_10, # of connection points: 2
#     Edge 45, Type (0, 0), BuildingBlock: TEMPAE_clean_linker_10, # of connection points: 2
#     Edge 46, Type (0, 0), BuildingBlock: TEMPAE_clean_linker_10, # of connection points: 2
#     Edge 47, Type (0, 0), BuildingBlock: TEMPAE_clean_linker_10, # of connection points: 2
#     Edge 48, Type (0, 0), BuildingBlock: TEMPAE_clean_linker_10, # of connection points: 2
#     Edge 49, Type (0, 0), BuildingBlock: TEMPAE_clean_linker_10, # of connection points: 2
#     Edge 50, Type (0, 0), BuildingBlock: TEMPAE_clean_linker_10, # of connection points: 2
#     Edge 51, Type (0, 0), BuildingBlock: TEMPAE_clean_linker_10, # of connection points: 2
#     Edge 52, Type (0, 0), BuildingBlock: TEMPAE_clean_linker_10, # of connection points: 2
#     Edge 53, Type (0, 0), BuildingBlock: TEMPAE_clean_linker_10, # of connection points: 2
#     Edge 54, Type (0, 0), BuildingBlock: TEMPAE_clean_linker_10, # of connection points: 2
#     Edge 55, Type (0, 0), BuildingBlock: TEMPAE_clean_linker_10, # of connection points: 2
#     Edge 56, Type (0, 0), BuildingBlock: TEMPAE_clean_linker_10, # of connection points: 2
#     Edge 57, Type (0, 0), BuildingBlock: TEMPAE_clean_linker_10, # of connection points: 2
#     Edge 58, Type (0, 0), BuildingBlock: TEMPAE_clean_linker_10, # of connection points: 2
#     Edge 59, Type (0, 0), BuildingBlock: TEMPAE_clean_linker_10, # of connection points: 2
#     Edge 60, Type (0, 0), BuildingBlock: TEMPAE_clean_linker_10, # of connection points: 2
#     Edge 61, Type (0, 0), BuildingBlock: TEMPAE_clean_linker_10, # of connection points: 2
#     Edge 62, Type (0, 0), BuildingBlock: TEMPAE_clean_linker_10, # of connection points: 2
#     Edge 63, Type (0, 0), BuildingBlock: TEMPAE_clean_linker_10, # of connection points: 2
#     Edge 64, Type (0, 0), BuildingBlock: TEMPAE_clean_linker_10, # of connection points: 2
#     Edge 65, Type (0, 0), BuildingBlock: TEMPAE_clean_linker_10, # of connection points: 2
#     Edge 66, Type (0, 0), BuildingBlock: TEMPAE_clean_linker_10, # of connection points: 2
#     Edge 67, Type (0, 0), BuildingBlock: TEMPAE_clean_linker_10, # of connection points: 2
#     Edge 68, Type (0, 0), BuildingBlock: TEMPAE_clean_linker_10, # of connection points: 2
#     Edge 69, Type (0, 0), BuildingBlock: TEMPAE_clean_linker_10, # of connection points: 2
#     Edge 70, Type (0, 0), BuildingBlock: TEMPAE_clean_linker_10, # of connection points: 2
#     Edge 71, Type (0, 0), BuildingBlock: TEMPAE_clean_linker_10, # of connection points: 2
#     Edge 72, Type (0, 0), BuildingBlock: TEMPAE_clean_linker_10, # of connection points: 2
#     Edge 73, Type (0, 0), BuildingBlock: TEMPAE_clean_linker_10, # of connection points: 2
#     Edge 74, Type (0, 0), BuildingBlock: TEMPAE_clean_linker_10, # of connection points: 2
#     Edge 75, Type (0, 0), BuildingBlock: TEMPAE_clean_linker_10, # of connection points: 2
#     Edge 76, Type (0, 0), BuildingBlock: TEMPAE_clean_linker_10, # of connection points: 2
#     Edge 77, Type (0, 0), BuildingBlock: TEMPAE_clean_linker_10, # of connection points: 2
#     Edge 78, Type (0, 0), BuildingBlock: TEMPAE_clean_linker_10, # of connection points: 2
#     Edge 79, Type (0, 0), BuildingBlock: TEMPAE_clean_linker_10, # of connection points: 2
#     Edge 80, Type (0, 0), BuildingBlock: TEMPAE_clean_linker_10, # of connection points: 2
#     Edge 81, Type (0, 0), BuildingBlock: TEMPAE_clean_linker_10, # of connection points: 2
#     Edge 82, Type (0, 0), BuildingBlock: TEMPAE_clean_linker_10, # of connection points: 2
#     Edge 83, Type (0, 0), BuildingBlock: TEMPAE_clean_linker_10, # of connection points: 2
#     Edge 84, Type (0, 0), BuildingBlock: TEMPAE_clean_linker_10, # of connection points: 2
#     Edge 85, Type (0, 0), BuildingBlock: TEMPAE_clean_linker_10, # of connection points: 2
#     Edge 86, Type (0, 0), BuildingBlock: TEMPAE_clean_linker_10, # of connection points: 2
#     Edge 87, Type (0, 0), BuildingBlock: TEMPAE_clean_linker_10, # of connection points: 2
#     Edge 88, Type (0, 0), BuildingBlock: TEMPAE_clean_linker_10, # of connection points: 2
#     Edge 89, Type (0, 0), BuildingBlock: TEMPAE_clean_linker_10, # of connection points: 2
#     Edge 90, Type (0, 0), BuildingBlock: TEMPAE_clean_linker_10, # of connection points: 2
#     Edge 91, Type (0, 0), BuildingBlock: TEMPAE_clean_linker_10, # of connection points: 2
#     Edge 92, Type (0, 0), BuildingBlock: TEMPAE_clean_linker_10, # of connection points: 2
#     Edge 93, Type (0, 0), BuildingBlock: TEMPAE_clean_linker_10, # of connection points: 2
#     Edge 94, Type (0, 0), BuildingBlock: TEMPAE_clean_linker_10, # of connection points: 2
#     Edge 95, Type (0, 0), BuildingBlock: TEMPAE_clean_linker_10, # of connection points: 2
# Relax obj value: 0.211
# Max RMSD: 0.173
# Mean RMSD: 0.151
data_MOF--net-pem--node1-CEKHIL_clean_sbu_0--edge1-TEMPAE_clean_linker_10
_symmetry_space_group_name_H-M    P1
_symmetry_Int_Tables_number       1
_symmetry_cell_setting            triclinic
loop_
_symmetry_equiv_pos_as_xyz
'x, y, z'
_cell_length_a     46.839854
_cell_length_b     39.382532
_cell_length_c     39.359759
_cell_angle_alpha  93.980128
_cell_angle_beta   91.508401
_cell_angle_gamma 91.442462
loop_
_atom_site_label
_atom_site_type_symbol
_atom_site_fract_x
_atom_site_fract_y
_atom_site_fract_z
_atom_type_partial_charge
Co0 Co 0.10395 0.11972 0.0628 0.0
O1 O 0.13653 0.10148 0.03844 0.0
O2 O 0.13118 0.15602 0.05028 0.0
C3 C 0.10487 0.07973 0.10358 0.0
O4 O 0.07054 0.1471 0.08588 0.0
Co5 Co 0.04982 0.07027 0.06775 0.0
O6 O 0.0325 0.11106 0.09087 0.0
C7 C 0.06764 0.09664 0.00626 0.0
C8 C 0.14624 0.13208 0.03548 0.0
C9 C 0.04401 0.14094 0.0939 0.0
O10 O 0.08198 0.12254 0.01903 0.0
O11 O 0.06841 0.06933 0.02177 0.0
O12 O 0.121 0.10717 0.10711 0.0
O13 O 0.09044 0.07666 0.07537 0.0
Co14 Co 0.18173 0.86303 0.32317 0.0
O15 O 0.20392 0.84126 0.35829 0.0
O16 O 0.19945 0.8963 0.35826 0.0
C17 C 0.14436 0.82446 0.32164 0.0
O18 O 0.16021 0.89359 0.28925 0.0
Co19 Co 0.16802 0.82312 0.25318 0.0
O20 O 0.14407 0.8617 0.2424 0.0
C21 C 0.22683 0.84587 0.27493 0.0
C22 C 0.21125 0.87094 0.37225 0.0
C23 C 0.14613 0.89001 0.26003 0.0
O24 O 0.21692 0.86737 0.29692 0.0
O25 O 0.21107 0.82399 0.25696 0.0
O26 O 0.14581 0.85007 0.34444 0.0
O27 O 0.16601 0.82213 0.30221 0.0
Co28 Co 0.43098 0.90157 0.60247 0.0
O29 O 0.39135 0.9192 0.59376 0.0
O30 O 0.40504 0.87191 0.57011 0.0
C31 C 0.43778 0.91378 0.66341 0.0
O32 O 0.46898 0.87448 0.60126 0.0
Co33 Co 0.48234 0.94947 0.62857 0.0
O34 O 0.50514 0.90753 0.62553 0.0
C35 C 0.44667 0.96036 0.56804 0.0
C36 C 0.38466 0.89382 0.57208 0.0
C37 C 0.49554 0.87916 0.61161 0.0
O38 O 0.44262 0.92811 0.564 0.0
O39 O 0.46003 0.97468 0.59423 0.0
O40 O 0.4244 0.88663 0.64988 0.0
O41 O 0.4447 0.93321 0.63992 0.0
Co42 Co 0.38415 0.15176 0.85749 0.0
O43 O 0.42173 0.16799 0.83884 0.0
O44 O 0.40792 0.18795 0.88703 0.0
C45 C 0.38715 0.09013 0.84397 0.0
O46 O 0.34735 0.14669 0.88707 0.0
Co47 Co 0.33421 0.11194 0.81619 0.0
O48 O 0.31212 0.11572 0.85839 0.0
C49 C 0.35275 0.18198 0.80168 0.0
C50 C 0.42784 0.18907 0.86469 0.0
C51 C 0.32157 0.13306 0.88499 0.0
O52 O 0.36516 0.1874 0.83121 0.0
O53 O 0.34285 0.15271 0.79013 0.0
O54 O 0.39839 0.10624 0.87113 0.0
O55 O 0.37471 0.11145 0.82578 0.0
Co56 Co 0.10765 0.89558 0.41221 0.0
O57 O 0.08755 0.85846 0.43421 0.0
O58 O 0.08327 0.86539 0.37993 0.0
C59 C 0.15173 0.89542 0.44033 0.0
O60 O 0.12542 0.93147 0.38054 0.0
Co61 Co 0.12614 0.96213 0.4567 0.0
O62 O 0.13999 0.97848 0.41355 0.0
C63 C 0.06702 0.93853 0.4491 0.0
C64 C 0.07406 0.84937 0.40563 0.0
C65 C 0.13723 0.96207 0.38452 0.0
O66 O 0.07324 0.92355 0.42047 0.0
O67 O 0.08577 0.95325 0.46956 0.0
O68 O 0.14556 0.87311 0.41491 0.0
O69 O 0.13032 0.91315 0.44972 0.0
Co70 Co 0.35647 0.88777 0.66812 0.0
O71 O 0.38609 0.86204 0.69067 0.0
O72 O 0.36845 0.84643 0.6406 0.0
C73 C 0.37315 0.94493 0.67685 0.0
O74 O 0.32696 0.90147 0.63471 0.0
Co75 Co 0.316 0.94299 0.70027 0.0
O76 O 0.30476 0.94918 0.652 0.0
C77 C 0.31687 0.87198 0.72079 0.0
C78 C 0.38605 0.83968 0.66492 0.0
C79 C 0.31062 0.92596 0.62936 0.0
O80 O 0.3281 0.86173 0.69268 0.0
O81 O 0.3123 0.90329 0.7295 0.0
O82 O 0.38241 0.92399 0.65346 0.0
O83 O 0.35559 0.93039 0.69619 0.0
Co84 Co 0.46369 0.09476 0.89575 0.0
O85 O 0.42732 0.0729 0.9093 0.0
O86 O 0.44695 0.11706 0.93717 0.0
C87 C 0.45717 0.09639 0.83588 0.0
O88 O 0.49806 0.12554 0.89618 0.0
Co89 Co 0.512 0.06773 0.84887 0.0
O90 O 0.52092 0.11753 0.84752 0.0
C91 C 0.49471 0.03449 0.91072 0.0
C92 C 0.42615 0.09478 0.93529 0.0
C93 C 0.51319 0.1366 0.87283 0.0
O94 O 0.48403 0.0622 0.92288 0.0
O95 O 0.50549 0.03077 0.88117 0.0
O96 O 0.44689 0.1187 0.85761 0.0
O97 O 0.4708 0.07331 0.85075 0.0
Co98 Co 0.21059 0.13264 0.14692 0.0
O99 O 0.17709 0.15261 0.16868 0.0
O100 O 0.18219 0.14842 0.11356 0.0
C101 C 0.21111 0.08926 0.18399 0.0
O102 O 0.24307 0.11412 0.11422 0.0
Co103 Co 0.26722 0.12574 0.18646 0.0
O104 O 0.2836 0.10569 0.14429 0.0
C105 C 0.24284 0.19236 0.17476 0.0
C106 C 0.16696 0.15936 0.13912 0.0
C107 C 0.26988 0.10544 0.11596 0.0
O108 O 0.22933 0.17837 0.1487 0.0
O109 O 0.25754 0.17521 0.19509 0.0
O110 O 0.19543 0.08695 0.15596 0.0
O111 O 0.22619 0.11714 0.18826 0.0
Co112 Co 0.61209 0.45441 0.89516 0.0
O113 O 0.59581 0.41371 0.91293 0.0
O114 O 0.59213 0.42501 0.85907 0.0
C115 C 0.65402 0.45266 0.92525 0.0
O116 O 0.62619 0.49387 0.86703 0.0
Co117 Co 0.62958 0.51908 0.94191 0.0
O118 O 0.6434 0.53899 0.90056 0.0
C119 C 0.57177 0.48781 0.93785 0.0
C120 C 0.58515 0.40517 0.88281 0.0
C121 C 0.63838 0.52386 0.87135 0.0
O122 O 0.57617 0.47776 0.90683 0.0
O123 O 0.5914 0.5025 0.9572 0.0
O124 O 0.65049 0.43516 0.896 0.0
O125 O 0.63241 0.46979 0.93501 0.0
Co126 Co 0.84941 0.35705 0.13495 0.0
O127 O 0.88316 0.33601 0.1539 0.0
O128 O 0.86455 0.32073 0.10358 0.0
C129 C 0.86186 0.41302 0.15104 0.0
O130 O 0.81507 0.37294 0.10637 0.0
Co131 Co 0.80766 0.39951 0.18235 0.0
O132 O 0.79067 0.41164 0.13853 0.0
C133 C 0.82093 0.32739 0.18977 0.0
C134 C 0.88421 0.31578 0.12656 0.0
C135 C 0.79559 0.39568 0.1101 0.0
O136 O 0.82568 0.32313 0.15785 0.0
O137 O 0.81594 0.35645 0.20472 0.0
O138 O 0.87223 0.3978 0.12409 0.0
O139 O 0.84637 0.39345 0.16806 0.0
Co140 Co 0.95016 0.59844 0.37906 0.0
O141 O 0.91678 0.58144 0.4023 0.0
O142 O 0.938 0.62969 0.41806 0.0
C143 C 0.93555 0.58598 0.32285 0.0
O144 O 0.98536 0.6243 0.36162 0.0
Co145 Co 0.98756 0.54801 0.33413 0.0
O146 O 0.01117 0.58918 0.32718 0.0
C147 C 0.97975 0.54131 0.40685 0.0
C148 C 0.91758 0.60799 0.42364 0.0
C149 C 1.00653 0.6184 0.34159 0.0
O150 O 0.97413 0.57304 0.41064 0.0
O151 O 0.9834 0.52543 0.37792 0.0
O152 O 0.92649 0.61286 0.33996 0.0
O153 O 0.94999 0.56647 0.34117 0.0
Co154 Co 0.85453 0.64696 0.36744 0.0
O155 O 0.8925 0.66365 0.35286 0.0
O156 O 0.87379 0.68156 0.40048 0.0
C157 C 0.85965 0.58845 0.351 0.0
O158 O 0.81697 0.63784 0.39383 0.0
Co159 Co 0.80751 0.60921 0.31991 0.0
O160 O 0.78525 0.60488 0.36166 0.0
C161 C 0.82527 0.6809 0.31265 0.0
C162 C 0.89502 0.68419 0.38015 0.0
C163 C 0.79258 0.62124 0.38974 0.0
O164 O 0.83594 0.68394 0.34313 0.0
O165 O 0.8163 0.65254 0.29778 0.0
O166 O 0.87034 0.60257 0.37932 0.0
O167 O 0.84746 0.61013 0.33306 0.0
Co168 Co 0.69889 0.36232 0.87813 0.0
O169 O 0.71925 0.33857 0.91442 0.0
O170 O 0.73091 0.38969 0.90107 0.0
C171 C 0.65179 0.34482 0.88921 0.0
O172 O 0.68451 0.39666 0.84222 0.0
Co173 Co 0.66326 0.32305 0.81866 0.0
O174 O 0.65676 0.3683 0.80137 0.0
C175 C 0.72377 0.31135 0.83408 0.0
C176 C 0.73746 0.36412 0.91875 0.0
C177 C 0.66863 0.39593 0.81424 0.0
O178 O 0.72666 0.3424 0.84558 0.0
O179 O 0.69945 0.29756 0.8252 0.0
O180 O 0.66471 0.36988 0.9075 0.0
O181 O 0.66821 0.33007 0.86767 0.0
Co182 Co 0.93068 0.91487 0.90099 0.0
O183 O 0.97074 0.91114 0.88722 0.0
O184 O 0.94506 0.86903 0.90527 0.0
C185 C 0.91598 0.94866 0.85678 0.0
O186 O 0.88988 0.90718 0.91918 0.0
Co187 Co 0.90011 0.98734 0.91776 0.0
O188 O 0.87327 0.95735 0.94112 0.0
C189 C 0.9459 0.96117 0.95313 0.0
C190 C 0.96975 0.87967 0.89539 0.0
C191 C 0.87271 0.92477 0.93852 0.0
O192 O 0.94314 0.92894 0.94905 0.0
O193 O 0.94136 0.97806 0.92729 0.0
O194 O 0.91766 0.91564 0.85152 0.0
O195 O 0.92333 0.95941 0.88709 0.0
Co196 Co 0.8152 0.14323 0.64816 0.0
O197 O 0.84472 0.13917 0.68354 0.0
O198 O 0.82423 0.0952 0.65487 0.0
C199 C 0.84117 0.18756 0.62665 0.0
O200 O 0.78219 0.13815 0.60894 0.0
Co201 Co 0.78342 0.20935 0.64478 0.0
O202 O 0.75837 0.18711 0.60876 0.0
C203 C 0.77492 0.16495 0.70106 0.0
C204 C 0.84224 0.10653 0.67916 0.0
C205 C 0.76102 0.15623 0.59796 0.0
O206 O 0.78612 0.1404 0.68383 0.0
O207 O 0.77422 0.19523 0.69129 0.0
O208 O 0.84516 0.15592 0.61686 0.0
O209 O 0.82143 0.19143 0.64872 0.0
Co210 Co 0.5515 0.1207 0.35989 0.0
O211 O 0.51513 0.12955 0.33565 0.0
O212 O 0.53878 0.16807 0.36807 0.0
C213 C 0.57165 0.09018 0.31433 0.0
O214 O 0.58907 0.12108 0.39212 0.0
Co215 Co 0.57002 0.0464 0.37025 0.0
O216 O 0.60158 0.06715 0.39967 0.0
C217 C 0.52139 0.0771 0.40649 0.0
C218 C 0.51561 0.16016 0.35011 0.0
C219 C 0.60502 0.09907 0.40687 0.0
O220 O 0.52844 0.10697 0.39845 0.0
O221 O 0.53349 0.04989 0.39547 0.0
O222 O 0.5737 0.12335 0.31773 0.0
O223 O 0.55703 0.07705 0.33746 0.0
Co224 Co 0.673 0.83328 0.11722 0.0
O225 O 0.70988 0.85753 0.11504 0.0
O226 O 0.69174 0.8227 0.07374 0.0
C227 C 0.65142 0.88057 0.13922 0.0
O228 O 0.63457 0.80358 0.10986 0.0
Co229 Co 0.64298 0.82625 0.1854 0.0
O230 O 0.61277 0.79869 0.15981 0.0
C231 C 0.69841 0.79579 0.1711 0.0
C232 C 0.71274 0.84318 0.08484 0.0
C233 C 0.61388 0.79178 0.12783 0.0
O234 O 0.6931 0.79594 0.139 0.0
O235 O 0.68275 0.81023 0.19364 0.0
O236 O 0.65368 0.87478 0.10646 0.0
O237 O 0.66213 0.85792 0.15741 0.0
Co238 Co 0.89555 0.05317 0.59785 0.0
O239 O 0.86345 0.02105 0.60266 0.0
O240 O 0.89111 0.04199 0.64525 0.0
C241 C 0.87295 0.08558 0.55973 0.0
O242 O 0.93108 0.0875 0.60242 0.0
Co243 Co 0.92297 0.05777 0.52698 0.0
O244 O 0.95062 0.09081 0.55082 0.0
C245 C 0.91935 0.99493 0.56232 0.0
C246 C 0.87023 0.02107 0.63477 0.0
C247 C 0.95045 0.09937 0.58268 0.0
O248 O 0.92045 0.01315 0.59058 0.0
O249 O 0.91584 0.00814 0.53375 0.0
O250 O 0.86888 0.09127 0.59231 0.0
O251 O 0.88836 0.05998 0.55223 0.0
Co252 Co 0.68921 0.16206 0.36144 0.0
O253 O 0.72484 0.13828 0.35691 0.0
O254 O 0.70618 0.15607 0.40581 0.0
C255 C 0.66526 0.12776 0.32077 0.0
O256 O 0.65351 0.1882 0.37688 0.0
Co257 Co 0.66176 0.19789 0.30118 0.0
O258 O 0.63319 0.21446 0.33367 0.0
C259 C 0.71632 0.22267 0.33441 0.0
C260 C 0.72729 0.14215 0.38985 0.0
C261 C 0.63457 0.20783 0.36481 0.0
O262 O 0.71139 0.20575 0.36028 0.0
O263 O 0.70061 0.2204 0.30721 0.0
O264 O 0.66751 0.11862 0.35188 0.0
O265 O 0.67792 0.15616 0.31546 0.0
Co266 Co 0.56408 0.89004 0.1207 0.0
O267 O 0.53354 0.87505 0.15007 0.0
O268 O 0.55811 0.84158 0.1155 0.0
C269 C 0.58892 0.92958 0.15802 0.0
O270 O 0.59561 0.8924 0.08445 0.0
Co271 Co 0.57048 0.9631 0.09784 0.0
O272 O 0.59874 0.94454 0.0648 0.0
C273 C 0.51892 0.92092 0.08232 0.0
C274 C 0.53696 0.84457 0.13579 0.0
C275 C 0.6057 0.91336 0.06344 0.0
O276 O 0.53421 0.89476 0.08464 0.0
O277 O 0.52854 0.95094 0.09164 0.0
O278 O 0.59194 0.89678 0.15951 0.0
O279 O 0.5685 0.93636 0.13729 0.0
Co280 Co 0.79583 0.82669 0.85622 0.0
O281 O 0.75957 0.85075 0.85896 0.0
O282 O 0.78492 0.8377 0.90348 0.0
C283 C 0.81367 0.85682 0.81292 0.0
O284 O 0.83479 0.80197 0.86381 0.0
Co285 Co 0.81241 0.78392 0.79113 0.0
O286 O 0.84929 0.7769 0.81409 0.0
C287 C 0.76256 0.76526 0.83162 0.0
C288 C 0.76133 0.84996 0.89182 0.0
C289 C 0.85327 0.78483 0.84572 0.0
O290 O 0.7733 0.78302 0.85742 0.0
O291 O 0.77438 0.76378 0.80259 0.0
O292 O 0.81621 0.86859 0.84469 0.0
O293 O 0.7996 0.82826 0.80838 0.0
Co294 Co 0.40003 0.54786 0.10743 0.0
O295 O 0.37593 0.51227 0.12571 0.0
O296 O 0.40468 0.54861 0.15616 0.0
C297 C 0.36838 0.56865 0.06951 0.0
O298 O 0.42773 0.58831 0.10058 0.0
Co299 Co 0.4168 0.54813 0.0314 0.0
O300 O 0.43406 0.59404 0.04481 0.0
C301 C 0.4333 0.4937 0.07502 0.0
C302 C 0.38712 0.52259 0.1554 0.0
C303 C 0.43787 0.60457 0.076 0.0
O304 O 0.43112 0.51424 0.10151 0.0
O305 O 0.42433 0.50093 0.04543 0.0
O306 O 0.36719 0.5777 0.1019 0.0
O307 O 0.38583 0.54485 0.06228 0.0
Co308 Co 0.18467 0.66653 0.88231 0.0
O309 O 0.21955 0.64166 0.88339 0.0
O310 O 0.20676 0.67887 0.92418 0.0
C311 C 0.16033 0.61889 0.86183 0.0
O312 O 0.14865 0.69721 0.88788 0.0
Co313 Co 0.15339 0.66902 0.8113 0.0
O314 O 0.12441 0.69443 0.83727 0.0
C315 C 0.2098 0.7019 0.82707 0.0
C316 C 0.2254 0.65732 0.91264 0.0
C317 C 0.12729 0.70557 0.86842 0.0
O318 O 0.20494 0.70266 0.85899 0.0
O319 O 0.19331 0.68627 0.80432 0.0
O320 O 0.164 0.62439 0.89459 0.0
O321 O 0.17099 0.64202 0.84439 0.0
Co322 Co 0.05548 0.38543 0.6492 0.0
O323 O 0.01964 0.37365 0.67048 0.0
O324 O 0.04033 0.34061 0.63178 0.0
C325 C 0.07675 0.40759 0.70113 0.0
O326 O 0.0918 0.38677 0.6182 0.0
Co327 Co 0.08013 0.45594 0.6474 0.0
O328 O 0.1 0.44041 0.60515 0.0
C329 C 0.02561 0.43861 0.61431 0.0
C330 C 0.01832 0.3458 0.65072 0.0
C331 C 0.10338 0.4087 0.59887 0.0
O332 O 0.03262 0.40728 0.61331 0.0
O333 O 0.03962 0.46164 0.63261 0.0
O334 O 0.07771 0.37524 0.69159 0.0
O335 O 0.06406 0.42514 0.67908 0.0
Co336 Co 0.16811 0.3189 0.64136 0.0
O337 O 0.20486 0.34172 0.63648 0.0
O338 O 0.18394 0.30783 0.5962 0.0
C339 C 0.1503 0.36776 0.66762 0.0
O340 O 0.12959 0.28957 0.63672 0.0
Co341 Co 0.14248 0.31124 0.71183 0.0
O342 O 0.11115 0.2839 0.68834 0.0
C343 C 0.19618 0.27907 0.69187 0.0
C344 C 0.20624 0.32665 0.60633 0.0
C345 C 0.11055 0.27686 0.65628 0.0
O346 O 0.18897 0.28065 0.66038 0.0
O347 O 0.18187 0.29258 0.71628 0.0
O348 O 0.1491 0.36243 0.63459 0.0
O349 O 0.1607 0.34289 0.68301 0.0
Co350 Co 0.34214 0.64792 0.15927 0.0
O351 O 0.37085 0.64069 0.19476 0.0
O352 O 0.33651 0.60361 0.17838 0.0
C353 C 0.37607 0.67326 0.12524 0.0
O354 O 0.30665 0.64422 0.12378 0.0
Co355 Co 0.32618 0.7169 0.13583 0.0
O356 O 0.2899 0.69607 0.11621 0.0
C357 C 0.32676 0.69899 0.20656 0.0
C358 C 0.35779 0.61203 0.19935 0.0
C359 C 0.28673 0.66383 0.11271 0.0
O360 O 0.3185 0.66909 0.19544 0.0
O361 O 0.33461 0.72126 0.18633 0.0
O362 O 0.37236 0.64038 0.1247 0.0
O363 O 0.35911 0.68938 0.14535 0.0
Co364 Co 0.59333 0.61891 0.59949 0.0
O365 O 0.62645 0.59657 0.57904 0.0
O366 O 0.61432 0.64817 0.56922 0.0
C367 C 0.60371 0.59766 0.6509 0.0
O368 O 0.55995 0.65148 0.61711 0.0
Co369 Co 0.54425 0.57974 0.63135 0.0
O370 O 0.52463 0.62261 0.64134 0.0
C371 C 0.56039 0.56895 0.55937 0.0
C372 C 0.63173 0.6235 0.56307 0.0
C373 C 0.53519 0.65038 0.63201 0.0
O374 O 0.56957 0.59978 0.55996 0.0
O375 O 0.55208 0.55543 0.58617 0.0
O376 O 0.61579 0.62597 0.64252 0.0
O377 O 0.58559 0.584 0.62871 0.0
Co378 Co 0.95545 0.37648 0.12399 0.0
O379 O 0.92296 0.39934 0.10296 0.0
O380 O 0.93584 0.34869 0.08549 0.0
C381 C 0.94373 0.39267 0.18084 0.0
O382 O 0.98815 0.34277 0.13579 0.0
Co383 Co 1.00318 0.41199 0.17033 0.0
O384 O 0.02224 0.36779 0.17108 0.0
C385 C 0.9919 0.42893 0.09959 0.0
C386 C 0.91836 0.37325 0.08125 0.0
C387 C 0.01245 0.34203 0.15272 0.0
O388 O 0.98091 0.3991 0.09241 0.0
O389 O 0.99881 0.4404 0.12997 0.0
O390 O 0.93201 0.36627 0.16387 0.0
O391 O 0.96196 0.40831 0.16324 0.0
Co392 Co 0.69616 0.67826 0.6239 0.0
O393 O 0.66042 0.69791 0.64028 0.0
O394 O 0.67162 0.69383 0.58664 0.0
C395 C 0.69292 0.63415 0.66154 0.0
O396 O 0.73167 0.66028 0.59509 0.0
Co397 Co 0.74902 0.67011 0.66765 0.0
O398 O 0.76941 0.64977 0.62877 0.0
C399 C 0.72654 0.73814 0.65617 0.0
C400 C 0.65396 0.7052 0.60949 0.0
C401 C 0.75808 0.65064 0.59924 0.0
O402 O 0.71358 0.72522 0.62919 0.0
O403 O 0.74123 0.71997 0.67545 0.0
O404 O 0.68069 0.63171 0.63125 0.0
O405 O 0.70763 0.66226 0.66731 0.0
Co406 Co 0.43219 0.3835 0.42829 0.0
O407 O 0.47012 0.38098 0.40991 0.0
O408 O 0.4439 0.33666 0.42317 0.0
C409 C 0.41712 0.4231 0.3928 0.0
O410 O 0.39221 0.37583 0.44844 0.0
Co411 Co 0.41146 0.45104 0.46357 0.0
O412 O 0.37529 0.42576 0.46962 0.0
C413 C 0.45908 0.41322 0.49207 0.0
C414 C 0.46824 0.3485 0.41324 0.0
C415 C 0.3727 0.39362 0.46354 0.0
O416 O 0.44985 0.38629 0.47498 0.0
O417 O 0.44817 0.44239 0.48896 0.0
O418 O 0.4161 0.3909 0.38258 0.0
O419 O 0.42802 0.43009 0.42288 0.0
Co420 Co 0.07072 0.61265 0.88376 0.0
O421 O 0.03581 0.62108 0.85712 0.0
O422 O 0.05757 0.65945 0.89232 0.0
C423 C 0.09248 0.58062 0.83852 0.0
O424 O 0.1071 0.61573 0.91822 0.0
Co425 Co 0.08777 0.54281 0.90053 0.0
O426 O 0.11138 0.56473 0.9393 0.0
C427 C 0.03476 0.56931 0.9236 0.0
C428 C 0.03548 0.65136 0.87239 0.0
C429 C 0.11806 0.59635 0.94077 0.0
O430 O 0.0461 0.59897 0.92163 0.0
O431 O 0.04612 0.54269 0.91024 0.0
O432 O 0.09432 0.61387 0.84174 0.0
O433 O 0.07737 0.56833 0.86184 0.0
Co434 Co 0.29451 0.36846 0.37992 0.0
O435 O 0.26292 0.3968 0.39594 0.0
O436 O 0.2817 0.35744 0.42546 0.0
C437 C 0.31893 0.41213 0.35594 0.0
O438 O 0.32824 0.33354 0.37211 0.0
Co439 Co 0.30792 0.35898 0.303 0.0
O440 O 0.3384 0.3281 0.31636 0.0
C441 C 0.25208 0.34365 0.33151 0.0
C442 C 0.26159 0.3795 0.4227 0.0
C443 C 0.34298 0.32019 0.34689 0.0
O444 O 0.2651 0.33566 0.35872 0.0
O445 O 0.26527 0.35856 0.3084 0.0
O446 O 0.32253 0.40761 0.38838 0.0
O447 O 0.30092 0.39136 0.34052 0.0
C448 C 0.01947 0.11777 0.01116 0.0
C449 C 0.03987 0.10255 0.98999 0.0
C450 C 0.99283 0.10134 0.01445 0.0
C451 C 0.98606 0.07189 0.99303 0.0
C452 C 1.0031 0.06417 0.96435 0.0
C453 C 0.03054 0.07895 0.96375 0.0
C454 C 0.9741 0.11257 0.04344 0.0
C455 C 0.99444 0.03653 0.93739 0.0
C456 C 0.96957 0.9828 0.00617 0.0
C457 C 0.94437 0.98 0.98653 0.0
C458 C 0.9809 0.01528 0.01646 0.0
C459 C 0.9673 0.04427 0.00461 0.0
C460 C 0.93848 0.04098 0.99324 0.0
C461 C 0.92639 0.00812 0.98739 0.0
C462 C 1.00974 0.01825 0.03421 0.0
C463 C 0.92156 0.07095 0.98303 0.0
H464 H 0.0261 0.13841 0.02931 0.0
H465 H 0.04585 0.06833 0.94603 0.0
H466 H 0.95123 0.11035 0.03554 0.0
H467 H 0.97746 0.09589 0.06472 0.0
H468 H 0.9791 0.13931 0.05294 0.0
H469 H 0.99966 0.01133 0.94653 0.0
H470 H 0.97112 0.03696 0.93175 0.0
H471 H 1.006 0.03958 0.91345 0.0
H472 H 0.98275 0.96073 0.00812 0.0
H473 H 0.90537 0.00523 0.97526 0.0
H474 H 0.011 0.04155 0.05171 0.0
H475 H 0.02657 0.01991 0.01503 0.0
H476 H 0.01386 0.99575 0.04897 0.0
H477 H 0.90901 0.08046 0.00507 0.0
H478 H 0.90619 0.06336 0.9617 0.0
H479 H 0.93535 0.09226 0.97538 0.0
C480 C 0.30167 0.70929 0.25976 0.0
C481 C 0.3274 0.70932 0.24282 0.0
C482 C 0.29569 0.73715 0.28217 0.0
C483 C 0.31582 0.76478 0.28589 0.0
C484 C 0.3444 0.7593 0.27741 0.0
C485 C 0.35004 0.73106 0.25537 0.0
C486 C 0.26587 0.74027 0.29535 0.0
C487 C 0.36729 0.78648 0.28509 0.0
C488 C 0.27109 0.82803 0.24759 0.0
C489 C 0.25752 0.84026 0.27677 0.0
C490 C 0.29506 0.80803 0.25034 0.0
C491 C 0.3044 0.79912 0.28318 0.0
C492 C 0.29433 0.81706 0.31244 0.0
C493 C 0.27086 0.83799 0.30889 0.0
C494 C 0.30673 0.792 0.21786 0.0
C495 C 0.30547 0.81083 0.34766 0.0
H496 H 0.28466 0.69126 0.25121 0.0
H497 H 0.37063 0.72964 0.24341 0.0
H498 H 0.25506 0.71491 0.29618 0.0
H499 H 0.26638 0.75325 0.3213 0.0
H500 H 0.253 0.75565 0.27831 0.0
H501 H 0.38861 0.77499 0.28736 0.0
H502 H 0.36786 0.80371 0.26396 0.0
H503 H 0.36297 0.80194 0.30898 0.0
H504 H 0.26116 0.83091 0.22277 0.0
H505 H 0.2608 0.8485 0.33159 0.0
H506 H 0.29669 0.76632 0.21251 0.0
H507 H 0.33021 0.78964 0.21989 0.0
H508 H 0.30174 0.80714 0.19577 0.0
H509 H 0.28764 0.80187 0.3631 0.0
H510 H 0.31421 0.83516 0.36008 0.0
H511 H 0.32265 0.79198 0.34776 0.0
C512 C 0.43729 0.96976 0.5071 0.0
C513 C 0.43702 0.98178 0.54133 0.0
C514 C 0.43763 0.99296 0.48176 0.0
C515 C 0.43813 0.02826 0.49167 0.0
C516 C 0.43044 0.03934 0.52488 0.0
C517 C 0.43061 0.01581 0.54982 0.0
C518 C 0.44312 0.98008 0.44562 0.0
C519 C 0.42776 0.07661 0.53542 0.0
C520 C 0.5081 0.06078 0.46235 0.0
C521 C 0.49982 0.07357 0.43171 0.0
C522 C 0.48772 0.04908 0.48405 0.0
C523 C 0.45832 0.04993 0.47421 0.0
C524 C 0.44986 0.06639 0.44489 0.0
C525 C 0.47099 0.07806 0.42364 0.0
C526 C 0.49813 0.03305 0.51581 0.0
C527 C 0.41893 0.06962 0.43435 0.0
H528 H 0.44066 0.94302 0.50037 0.0
H529 H 0.42841 0.02458 0.5762 0.0
H530 H 0.43146 0.99525 0.42733 0.0
H531 H 0.46631 0.98265 0.44084 0.0
H532 H 0.43652 0.95284 0.44079 0.0
H533 H 0.41329 0.08026 0.55722 0.0
H534 H 0.4491 0.0876 0.54363 0.0
H535 H 0.41963 0.09075 0.51389 0.0
H536 H 0.53066 0.05805 0.46828 0.0
H537 H 0.46495 0.08845 0.39976 0.0
H538 H 0.49281 0.00538 0.51372 0.0
H539 H 0.48777 0.04468 0.5386 0.0
H540 H 0.52163 0.03622 0.52005 0.0
H541 H 0.41334 0.05025 0.41323 0.0
H542 H 0.41546 0.09501 0.4245 0.0
H543 H 0.40425 0.06609 0.45556 0.0
C544 C 0.34315 0.20371 0.74557 0.0
C545 C 0.34531 0.21031 0.78104 0.0
C546 C 0.32387 0.22122 0.72605 0.0
C547 C 0.30712 0.24638 0.74252 0.0
C548 C 0.3135 0.25762 0.77693 0.0
C549 C 0.33249 0.23906 0.79615 0.0
C550 C 0.31824 0.20887 0.68925 0.0
C551 C 0.29738 0.28609 0.79459 0.0
C552 C 0.24862 0.28607 0.69108 0.0
C553 C 0.22461 0.26732 0.70043 0.0
C554 C 0.27585 0.27983 0.70453 0.0
C555 C 0.27893 0.25368 0.72712 0.0
C556 C 0.25472 0.23368 0.7353 0.0
C557 C 0.2277 0.2413 0.72238 0.0
C558 C 0.3007 0.30261 0.69612 0.0
C559 C 0.25719 0.20468 0.75836 0.0
H560 H 0.35375 0.18194 0.73377 0.0
H561 H 0.33453 0.24457 0.82349 0.0
H562 H 0.29878 0.19208 0.68738 0.0
H563 H 0.31437 0.23045 0.67323 0.0
H564 H 0.33631 0.19411 0.67876 0.0
H565 H 0.30911 0.29696 0.81791 0.0
H566 H 0.29359 0.30666 0.77725 0.0
H567 H 0.27628 0.27614 0.80217 0.0
H568 H 0.24586 0.3069 0.67476 0.0
H569 H 0.2089 0.22732 0.72983 0.0
H570 H 0.32086 0.28853 0.69415 0.0
H571 H 0.30385 0.32303 0.71686 0.0
H572 H 0.29664 0.31487 0.67192 0.0
H573 H 0.27382 0.18696 0.74918 0.0
H574 H 0.23673 0.19001 0.75976 0.0
H575 H 0.2637 0.2148 0.78449 0.0
C576 C 0.02198 0.96054 0.47127 0.0
C577 C 0.03862 0.93287 0.46207 0.0
C578 C 0.99753 0.95616 0.49021 0.0
C579 C 0.99051 0.9234 0.50135 0.0
C580 C 1.00673 0.89512 0.49074 0.0
C581 C 0.03047 0.9002 0.47071 0.0
C582 C 0.9801 0.98705 0.49945 0.0
C583 C 0.99998 0.85972 0.50105 0.0
C584 C 0.95425 0.95281 0.57756 0.0
C585 C 0.92866 0.95968 0.56062 0.0
C586 C 0.97428 0.93271 0.56041 0.0
C587 C 0.96782 0.92042 0.52638 0.0
C588 C 0.93919 0.91869 0.51435 0.0
C589 C 0.9194 0.93848 0.53214 0.0
C590 C 1.00405 0.93113 0.57554 0.0
C591 C 0.93098 0.90235 0.47961 0.0
H592 H 0.02862 0.98574 0.46454 0.0
H593 H 0.04376 0.87891 0.46397 0.0
H594 H 0.95731 0.98167 0.49231 0.0
H595 H 0.9818 0.99353 0.52732 0.0
H596 H 0.98733 0.00974 0.4864 0.0
H597 H 0.98822 0.84531 0.47961 0.0
H598 H 0.02002 0.84621 0.50611 0.0
H599 H 0.98671 0.85938 0.52395 0.0
H600 H 0.9608 0.9678 0.60074 0.0
H601 H 0.8987 0.94238 0.52024 0.0
H602 H 0.01721 0.95277 0.56732 0.0
H603 H 0.01425 0.90709 0.56664 0.0
H604 H 1.00382 0.93307 0.60383 0.0
H605 H 0.93636 0.92023 0.45998 0.0
H606 H 0.9077 0.89621 0.4774 0.0
H607 H 0.94297 0.87871 0.47425 0.0
C608 C 0.28682 0.85146 0.76607 0.0
C609 C 0.30988 0.84664 0.7447 0.0
C610 C 0.27793 0.82563 0.78615 0.0
C611 C 0.29293 0.79479 0.78494 0.0
C612 C 0.31843 0.79168 0.7668 0.0
C613 C 0.32639 0.81758 0.74621 0.0
C614 C 0.25072 0.82997 0.80562 0.0
C615 C 0.33591 0.76002 0.76672 0.0
C616 C 0.25537 0.735 0.83959 0.0
C617 C 0.23482 0.72068 0.81586 0.0
C618 C 0.2772 0.7565 0.82926 0.0
C619 C 0.27776 0.76412 0.79476 0.0
C620 C 0.25893 0.74688 0.77026 0.0
C621 C 0.23773 0.72517 0.78117 0.0
C622 C 0.29809 0.7729 0.85566 0.0
C623 C 0.25923 0.7539 0.73296 0.0
H624 H 0.2746 0.87445 0.7654 0.0
H625 H 0.34508 0.81469 0.73068 0.0
H626 H 0.23359 0.81297 0.79336 0.0
H627 H 0.25391 0.82275 0.83214 0.0
H628 H 0.24326 0.85657 0.80639 0.0
H629 H 0.32784 0.74143 0.746 0.0
H630 H 0.35872 0.76594 0.76196 0.0
H631 H 0.33445 0.74778 0.79119 0.0
H632 H 0.25386 0.73047 0.86635 0.0
H633 H 0.2224 0.71333 0.7626 0.0
H634 H 0.2892 0.7969 0.86678 0.0
H635 H 0.31891 0.77909 0.84444 0.0
H636 H 0.30173 0.75602 0.87675 0.0
H637 H 0.25296 0.78053 0.72984 0.0
H638 H 0.24434 0.73661 0.7171 0.0
H639 H 0.28101 0.75096 0.723 0.0
C640 C 0.51036 0.98862 0.94576 0.0
C641 C 0.48866 0.00428 0.92862 0.0
C642 C 0.50374 0.96324 0.9676 0.0
C643 C 0.4746 0.95258 0.9709 0.0
C644 C 0.45312 0.96583 0.95015 0.0
C645 C 0.46032 0.99256 0.9302 0.0
C646 C 0.52785 0.95063 0.98931 0.0
C647 C 0.42234 0.95357 0.94997 0.0
C648 C 0.48971 0.89313 0.03416 0.0
C649 C 0.49249 0.91813 0.06134 0.0
C650 C 0.47599 0.90103 0.00376 0.0
C651 C 0.46676 0.9346 1.0012 0.0
C652 C 0.46193 0.95515 0.03133 0.0
C653 C 0.4749 0.94633 0.06167 0.0
C654 C 0.4766 0.8763 0.97289 0.0
C655 C 0.4484 0.98948 0.03049 0.0
H656 H 0.53222 0.99798 0.94395 0.0
H657 H 0.44359 0.00496 0.91652 0.0
H658 H 0.52438 0.9581 0.01651 0.0
H659 H 0.52885 0.92254 0.9861 0.0
H660 H 0.54903 0.96132 0.98275 0.0
H661 H 0.40875 0.97468 0.95951 0.0
H662 H 0.41497 0.94639 0.92333 0.0
H663 H 0.41892 0.93134 0.96535 0.0
H664 H 0.50178 0.87003 0.03445 0.0
H665 H 0.47526 0.96436 0.08382 0.0
H666 H 0.49742 0.87876 0.96037 0.0
H667 H 0.45935 0.88146 0.95417 0.0
H668 H 0.47418 0.8497 0.98034 0.0
H669 H 0.46239 0.0071 0.01714 0.0
H670 H 0.44476 1.00113 0.05649 0.0
H671 H 0.42756 0.98689 0.01644 0.0
C672 C 0.20852 0.3466 0.29671 0.0
C673 C 0.22335 0.33008 0.322 0.0
C674 C 0.19836 0.32758 0.26737 0.0
C675 C 0.20179 0.2921 0.26569 0.0
C676 C 0.20681 0.27575 0.29615 0.0
C677 C 0.2181 0.29532 0.32464 0.0
C678 C 0.19002 0.34564 0.23627 0.0
C679 C 0.20662 0.2375 0.29623 0.0
C680 C 0.20443 0.23242 0.18738 0.0
C681 C 0.23373 0.22598 0.18759 0.0
C682 C 0.19311 0.25582 0.2113 0.0
C683 C 0.21204 0.27503 0.2339 0.0
C684 C 0.24206 0.27308 0.22953 0.0
C685 C 0.25256 0.24756 0.20721 0.0
C686 C 0.16107 0.25774 0.21354 0.0
C687 C 0.26329 0.29576 0.25041 0.0
H688 H 0.21073 0.37405 0.2962 0.0
H689 H 0.22779 0.28264 0.34547 0.0
H690 H 0.20872 0.34738 0.21965 0.0
H691 H 0.17263 0.33126 0.22146 0.0
H692 H 0.18292 0.37186 0.24324 0.0
H693 H 0.20298 0.22918 0.32221 0.0
H694 H 0.18983 0.22582 0.27836 0.0
H695 H 0.22765 0.22808 0.28792 0.0
H696 H 0.18998 0.21643 0.17139 0.0
H697 H 0.27531 0.24307 0.2067 0.0
H698 H 0.1541 0.26626 0.23939 0.0
H699 H 0.15058 0.23263 0.20597 0.0
H700 H 0.15328 0.27611 0.19552 0.0
H701 H 0.25644 0.32251 0.25107 0.0
H702 H 0.28504 0.29463 0.23987 0.0
H703 H 0.26462 0.28768 0.27682 0.0
C704 C 0.4472 0.43737 0.05209 0.0
C705 C 0.45299 0.46546 0.07537 0.0
C706 C 0.46886 0.4248 0.03127 0.0
C707 C 0.49606 0.44106 0.03458 0.0
C708 C 0.5033 0.46215 0.06438 0.0
C709 C 0.48131 0.47386 0.08515 0.0
C710 C 0.46123 0.3995 1.00175 0.0
C711 C 0.53278 0.47816 0.07027 0.0
C712 C 0.55565 0.44197 0.97261 0.0
C713 C 0.54905 0.4709 0.9554 0.0
C714 C 0.53701 0.42928 0.99613 0.0
C715 C 0.51189 0.44701 0.00344 0.0
C716 C 0.50427 0.47498 0.98424 0.0
C717 C 0.52308 0.48652 0.96025 0.0
C718 C 0.54482 0.39795 0.01403 0.0
C719 C 0.4775 0.49468 0.99092 0.0
H720 H 0.42518 0.42969 0.04577 0.0
H721 H 0.48585 0.49457 0.10432 0.0
H722 H 0.45495 0.41337 0.97923 0.0
H723 H 0.47973 0.38365 0.99484 0.0
H724 H 0.44294 0.38267 0.00781 0.0
H725 H 0.53632 0.48814 0.09719 0.0
H726 H 0.5495 0.45961 0.06365 0.0
H727 H 0.53525 0.49973 0.05375 0.0
H728 H 0.57622 0.43048 0.96931 0.0
H729 H 0.51842 0.5091 0.94704 0.0
H730 H 0.53032 0.37646 0.00456 0.0
H731 H 0.54208 0.40183 0.04192 0.0
H732 H 0.56714 0.39042 0.00925 0.0
H733 H 0.45852 0.4772 0.98947 0.0
H734 H 0.4741 0.51433 0.9724 0.0
H735 H 0.47896 0.50764 0.01688 0.0
C736 C 0.83971 0.30425 0.24176 0.0
C737 C 0.82317 0.29908 0.21156 0.0
C738 C 0.83332 0.2862 0.27003 0.0
C739 C 0.80983 0.26298 0.26748 0.0
C740 C 0.79727 0.2528 0.23499 0.0
C741 C 0.80396 0.27147 0.20711 0.0
C742 C 0.84851 0.29622 0.30361 0.0
C743 C 0.77333 0.22635 0.23087 0.0
C744 C 0.7684 0.21911 0.33218 0.0
C745 C 0.74423 0.23936 0.33234 0.0
C746 C 0.79262 0.22857 0.3146 0.0
C747 C 0.79224 0.25899 0.29761 0.0
C748 C 0.76992 0.28226 0.30341 0.0
C749 C 0.74577 0.27176 0.3203 0.0
C750 C 0.81655 0.20384 0.31065 0.0
C751 C 0.76947 0.31612 0.28755 0.0
H752 H 0.85546 0.325 0.24447 0.0
H753 H 0.79171 0.26717 0.18336 0.0
H754 H 0.83819 0.31874 0.31598 0.0
H755 H 0.84761 0.27538 0.32115 0.0
H756 H 0.8712 0.30342 0.29965 0.0
H757 H 0.76961 0.21711 0.20376 0.0
H758 H 0.77811 0.2043 0.24592 0.0
H759 H 0.75331 0.23761 0.24038 0.0
H760 H 0.76708 0.19398 0.3418 0.0
H761 H 0.727 0.28737 0.32096 0.0
H762 H 0.83679 0.21641 0.30359 0.0
H763 H 0.81045 0.18375 0.2904 0.0
H764 H 0.82021 0.1911 0.33465 0.0
H765 H 0.79042 0.32975 0.29148 0.0
H766 H 0.7527 0.33277 0.2984 0.0
H767 H 0.76516 0.31187 0.2597 0.0
C768 C 1.00134 0.485 0.58666 0.0
C769 C 1.00471 0.44996 0.58916 0.0
C770 C 0.98971 0.49728 0.55711 0.0
C771 C 0.98021 0.4738 0.53016 0.0
C772 C 0.97893 0.43855 0.53498 0.0
C773 C 0.99175 0.42684 0.5644 0.0
C774 C 0.99098 0.53521 0.55321 0.0
C775 C 0.96649 0.41313 0.50783 0.0
C776 C 0.95426 0.52056 0.45562 0.0
C777 C 0.97913 0.52163 0.43675 0.0
C778 C 0.95314 0.50207 0.48464 0.0
C779 C 0.97797 0.48579 0.49555 0.0
C780 C 1.0028 0.48577 0.47559 0.0
C781 C 1.00282 0.50325 0.44588 0.0
C782 C 0.92577 0.50137 0.50402 0.0
C783 C 0.02995 0.46918 0.48666 0.0
H784 H 0.0103 0.5031 0.60634 0.0
H785 H 0.99332 0.39968 0.56677 0.0
H786 H 1.0064 0.54099 0.53331 0.0
H787 H 0.96982 0.54406 0.54493 0.0
H788 H 0.99771 0.55001 0.57727 0.0
H789 H 0.9599 0.38897 0.51875 0.0
H790 H 0.94775 0.42362 0.4947 0.0
H791 H 0.98277 0.40721 0.48849 0.0
H792 H 0.93565 0.53413 0.44764 0.0
H793 H 0.02175 0.50389 0.43062 0.0
H794 H 0.92475 0.52489 0.52112 0.0
H795 H 0.92414 0.47905 0.51964 0.0
H796 H 0.90694 0.50092 0.48621 0.0
H797 H 0.0378 0.48127 0.5116 0.0
H798 H 0.04717 0.47135 0.46799 0.0
H799 H 0.02575 0.44182 0.49002 0.0
C800 C 0.82979 0.71237 0.26127 0.0
C801 C 0.81976 0.71106 0.29434 0.0
C802 C 0.81634 0.73244 0.23799 0.0
C803 C 0.7919 0.75042 0.24807 0.0
C804 C 0.78399 0.75237 0.28267 0.0
C805 C 0.79833 0.73271 0.30564 0.0
C806 C 0.82617 0.73102 0.20174 0.0
C807 C 0.7581 0.77149 0.29443 0.0
C808 C 0.74762 0.80525 0.19341 0.0
C809 C 0.72522 0.78236 0.18303 0.0
C810 C 0.77093 0.79469 0.21261 0.0
C811 C 0.77124 0.7607 0.22192 0.0
C812 C 0.74952 0.73697 0.20927 0.0
C813 C 0.72662 0.74822 0.18988 0.0
C814 C 0.79394 0.82048 0.22493 0.0
C815 C 0.74929 0.70032 0.21838 0.0
H816 H 0.8465 0.69545 0.25278 0.0
H817 H 0.79058 0.73126 0.33125 0.0
H818 H 0.81279 0.71197 0.18598 0.0
H819 H 0.82386 0.756 0.19067 0.0
H820 H 0.8488 0.72342 0.20009 0.0
H821 H 0.7572 0.77431 0.32266 0.0
H822 H 0.758 0.79715 0.2845 0.0
H823 H 0.73846 0.75747 0.28437 0.0
H824 H 0.74612 0.83182 0.18807 0.0
H825 H 0.70895 0.73089 0.18193 0.0
H826 H 0.8153 0.80893 0.22493 0.0
H827 H 0.78971 0.82996 0.25148 0.0
H828 H 0.79443 0.84266 0.20896 0.0
H829 H 0.76998 0.68861 0.21225 0.0
H830 H 0.73189 0.68481 0.20467 0.0
H831 H 0.7464 0.69924 0.24618 0.0
C832 C 0.74284 0.17325 0.74859 0.0
C833 C 0.76846 0.1607 0.73653 0.0
C834 C 0.74193 0.18905 0.78138 0.0
C835 C 0.76773 0.19323 0.80126 0.0
C836 C 0.79131 0.17322 0.79216 0.0
C837 C 0.79145 0.1569 0.75936 0.0
C838 C 0.71498 0.20696 0.79142 0.0
C839 C 0.81803 0.17346 0.81434 0.0
C840 C 0.76655 0.28581 0.80967 0.0
C841 C 0.74773 0.28871 0.83638 0.0
C842 C 0.77966 0.2548 0.80193 0.0
C843 C 0.77253 0.22645 0.82091 0.0
C844 C 0.75919 0.23209 0.85242 0.0
C845 C 0.7463 0.26336 0.85963 0.0
C846 C 0.79639 0.25098 0.76972 0.0
C847 C 0.75427 0.20377 0.8756 0.0
H848 H 0.72484 0.17506 0.73094 0.0
H849 H 0.81109 0.14605 0.75012 0.0
H850 H 0.71066 0.20431 0.81865 0.0
H851 H 0.71741 0.23446 0.78734 0.0
H852 H 0.69612 0.1966 0.776 0.0
H853 H 0.8263 0.14728 0.81455 0.0
H854 H 0.83486 0.18955 0.8036 0.0
H855 H 0.81426 0.18332 0.8409 0.0
H856 H 0.76809 0.30598 0.79233 0.0
H857 H 0.73232 0.26633 0.88111 0.0
H858 H 0.78241 0.23911 0.74877 0.0
H859 H 0.81492 0.23449 0.77312 0.0
H860 H 0.80435 0.27601 0.76192 0.0
H861 H 0.73173 0.1944 0.87281 0.0
H862 H 0.75788 0.21351 0.90258 0.0
H863 H 0.7685 0.18211 0.86991 0.0
C864 C 0.7238 0.72958 0.80731 0.0
C865 C 0.73182 0.75618 0.83109 0.0
C866 C 0.71025 0.73758 0.77684 0.0
C867 C 0.7005 0.77133 0.77392 0.0
C868 C 0.69865 0.79289 0.80404 0.0
C869 C 0.714 0.78435 0.83334 0.0
C870 C 0.71305 0.71237 0.74667 0.0
C871 C 0.68533 0.82729 0.80387 0.0
C872 C 0.73501 0.78911 0.69453 0.0
C873 C 0.71586 0.76979 0.67289 0.0
C874 C 0.72775 0.79769 0.72829 0.0
C875 C 0.70104 0.78586 0.7399 0.0
C876 C 0.67925 0.77632 0.71536 0.0
C877 C 0.6869 0.76928 0.68136 0.0
C878 C 0.7506 0.81485 0.7515 0.0
C879 C 0.64944 0.76718 0.72565 0.0
H880 H 0.73527 0.70601 0.80775 0.0
H881 H 0.71705 0.80335 0.85446 0.0
H882 H 0.69648 0.71503 0.72662 0.0
H883 H 0.73445 0.71643 0.73618 0.0
H884 H 0.7122 0.68579 0.75443 0.0
H885 H 0.67559 0.83406 0.82879 0.0
H886 H 0.70213 0.84692 0.8 0.0
H887 H 0.66883 0.828 0.78321 0.0
H888 H 0.75704 0.79218 0.68716 0.0
H889 H 0.67122 0.75711 0.66369 0.0
H890 H 0.77014 0.79952 0.75043 0.0
H891 H 0.74426 0.81926 0.77822 0.0
H892 H 0.75637 0.83989 0.74188 0.0
H893 H 0.64798 0.73954 0.72957 0.0
H894 H 0.6336 0.77238 0.70527 0.0
H895 H 0.64386 0.78148 0.74975 0.0
C896 C 0.51011 0.40309 0.48554 0.0
C897 C 0.48796 0.41302 0.50707 0.0
C898 C 0.53675 0.42006 0.48877 0.0
C899 C 0.5408 0.44659 0.51451 0.0
C900 C 0.52115 0.44956 0.54143 0.0
C901 C 0.49433 0.43333 0.53679 0.0
C902 C 0.55806 0.41354 0.4612 0.0
C903 C 0.52573 0.47498 0.57165 0.0
C904 C 0.58741 0.52085 0.53739 0.0
C905 C 0.56692 0.54513 0.53084 0.0
C906 C 0.58249 0.48672 0.52592 0.0
C907 C 0.55701 0.47789 0.50719 0.0
C908 C 0.54118 0.50391 0.4927 0.0
C909 C 0.54589 0.53765 0.50562 0.0
C910 C 0.60144 0.46014 0.53952 0.0
C911 C 0.51556 0.49577 0.46924 0.0
H912 H 0.50547 0.38649 0.46297 0.0
H913 H 0.47735 0.44006 0.55404 0.0
H914 H 0.55044 0.42478 0.43762 0.0
H915 H 0.57953 0.42463 0.46852 0.0
H916 H 0.55977 0.38571 0.45512 0.0
H917 H 0.5126 0.46807 0.59337 0.0
H918 H 0.54846 0.47669 0.58027 0.0
H919 H 0.51915 0.5004 0.56438 0.0
H920 H 0.60434 0.5272 0.55629 0.0
H921 H 0.53058 0.5568 0.49989 0.0
H922 H 0.59848 0.43514 0.52491 0.0
H923 H 0.59648 0.45688 0.56654 0.0
H924 H 0.62421 0.46859 0.53884 0.0
H925 H 0.50981 0.518 0.4548 0.0
H926 H 0.49695 0.48893 0.4845 0.0
H927 H 0.5197 0.47396 0.45085 0.0
C928 C 0.01835 0.57645 0.98232 0.0
C929 C 0.01298 0.5638 0.94862 0.0
C930 C 1.00721 0.55917 0.00911 0.0
C931 C 0.9901 0.52936 1.00141 0.0
C932 C 0.98026 0.5208 0.96758 0.0
C933 C 0.99225 0.53797 0.94128 0.0
C934 C 0.01758 0.56953 0.04504 0.0
C935 C 0.96071 0.49028 0.95867 0.0
C936 C 0.01193 0.45399 0.04938 0.0
C937 C 0.99081 0.45322 0.07352 0.0
C938 C 0.01173 0.47879 0.02563 0.0
C939 C 0.98953 0.50276 0.02603 0.0
C940 C 0.96763 0.50123 0.04991 0.0
C941 C 0.96877 0.47656 0.0738 0.0
C942 C 0.03555 0.4796 1.00048 0.0
C943 C 0.94345 0.52588 0.05089 0.0
H944 H 0.03429 0.59668 0.98783 0.0
H945 H 0.98784 0.52871 0.91501 0.0
H946 H 1.00028 0.56645 0.06335 0.0
H947 H 0.03525 0.55288 0.05211 0.0
H948 H 0.02572 0.59636 0.04757 0.0
H949 H 0.94987 0.49192 0.93341 0.0
H950 H 0.97344 0.46686 0.95769 0.0
H951 H 0.94429 0.4878 0.97824 0.0
H952 H 0.02885 0.4357 0.04961 0.0
H953 H 0.95247 0.47553 0.09283 0.0
H954 H 0.04692 0.50476 0.0031 0.0
H955 H 0.02658 0.47597 0.97407 0.0
H956 H 0.05137 0.45953 0.00416 0.0
H957 H 0.95083 0.55011 0.06478 0.0
H958 H 0.92481 0.5158 0.0643 0.0
H959 H 0.93639 0.53173 0.02486 0.0
C960 C 0.09313 0.05143 0.1575 0.0
C961 C 0.10679 0.05083 0.12625 0.0
C962 C 0.09398 0.02331 0.17816 0.0
C963 C 0.11063 0.99442 0.16846 0.0
C964 C 0.12139 0.99244 0.13485 0.0
C965 C 0.11968 0.02063 0.1146 0.0
C966 C 0.0751 0.02434 0.20873 0.0
C967 C 0.13436 0.96052 0.11924 0.0
C968 C 0.15615 0.94072 0.22698 0.0
C969 C 0.13603 0.92005 0.24195 0.0
C970 C 0.14828 0.96498 0.20391 0.0
C971 C 0.11902 0.96826 0.19369 0.0
C972 C 0.09873 0.94514 0.20668 0.0
C973 C 0.10736 0.92213 0.231 0.0
C974 C 0.17239 0.98468 0.1889 0.0
C975 C 0.06812 0.94235 0.19365 0.0
H976 H 0.08103 0.07359 0.16541 0.0
H977 H 0.12862 0.01896 0.08941 0.0
H978 H 0.083 0.00869 0.2291 0.0
H979 H 0.07255 0.05087 0.21956 0.0
H980 H 0.05346 0.01453 0.20033 0.0
H981 H 0.1573 0.96557 0.11463 0.0
H982 H 0.13213 0.93842 0.13504 0.0
H983 H 0.12395 0.95358 0.09394 0.0
H984 H 0.17855 0.93612 0.23126 0.0
H985 H 0.09175 0.90432 0.24007 0.0
H986 H 0.18934 0.99173 0.2085 0.0
H987 H 0.16546 0.00803 0.17738 0.0
H988 H 0.18249 0.96801 0.16903 0.0
H989 H 0.05401 0.95295 0.21374 0.0
H990 H 0.06157 0.91515 0.18838 0.0
H991 H 0.06446 0.95563 0.17004 0.0
C992 C 0.33395 0.91451 0.55166 0.0
C993 C 0.35629 0.89074 0.54976 0.0
C994 C 0.30266 0.9092 0.53829 0.0
C995 C 0.30494 0.88595 0.50503 0.0
C996 C 0.32988 0.86504 0.50012 0.0
C997 C 0.35258 0.86511 0.52436 0.0
C998 C 0.25183 0.93439 0.5742 0.0
C999 C 0.33532 0.84411 0.46723 0.0
C1000 C 0.23853 0.83912 0.42726 0.0
C1001 C 0.23265 0.87481 0.4016 0.0
C1002 C 0.26259 0.84337 0.46377 0.0
C1003 C 0.28283 0.88251 0.47413 0.0
C1004 C 0.27745 0.91824 0.44761 0.0
C1005 C 0.25197 0.91433 0.41232 0.0
C1006 C 0.26722 0.81236 0.48286 0.0
C1007 C 0.29956 0.94622 0.44812 0.0
H1008 H 0.34138 0.93589 0.5686 0.0
H1009 H 0.36975 0.84739 0.52068 0.0
H1010 H 0.24848 0.96237 0.58081 0.0
H1011 H 0.22916 0.92809 0.56476 0.0
H1012 H 0.24711 0.92771 0.60104 0.0
H1013 H 0.35243 0.82538 0.4701 0.0
H1014 H 0.3165 0.82946 0.45687 0.0
H1015 H 0.34262 0.86151 0.44805 0.0
H1016 H 0.22742 0.81503 0.4207 0.0
H1017 H 0.24957 0.93523 0.39612 0.0
H1018 H 0.28099 0.81822 0.50596 0.0
H1019 H 0.27735 0.79277 0.4659 0.0
H1020 H 0.24629 0.80125 0.48954 0.0
H1021 H 0.2897 0.97041 0.44196 0.0
H1022 H 0.31479 0.93986 0.42767 0.0
H1023 H 0.3119 0.94845 0.47258 0.0
C1024 C 0.41628 0.03335 0.83983 0.0
C1025 C 0.39237 0.05245 0.83069 0.0
C1026 C 0.42399 1.0024 0.82185 0.0
C1027 C 0.40822 0.98948 0.79242 0.0
C1028 C 0.37995 1.00237 0.79018 0.0
C1029 C 0.373 0.03413 0.80784 0.0
C1030 C 0.44637 0.98125 0.83781 0.0
C1031 C 0.35552 0.97999 0.77565 0.0
C1032 C 0.45002 0.95844 0.71259 0.0
C1033 C 0.43626 0.9276 0.70115 0.0
C1034 C 0.44572 0.97391 0.74586 0.0
C1035 C 0.42122 0.96458 0.7645 0.0
C1036 C 0.41157 0.93029 0.75659 0.0
C1037 C 0.42133 0.91167 0.72676 0.0
C1038 C 0.47239 0.98704 0.76494 0.0
C1039 C 0.39381 0.91149 0.78094 0.0
H1040 H 0.42959 0.04159 0.86097 0.0
H1041 H 0.35188 0.04417 0.80442 0.0
H1042 H 0.46687 0.99592 0.84128 0.0
H1043 H 0.43938 0.97518 0.8634 0.0
H1044 H 0.44952 0.95658 0.82326 0.0
H1045 H 0.33683 0.99496 0.76846 0.0
H1046 H 0.36187 0.96306 0.75388 0.0
H1047 H 0.34836 0.96343 0.79565 0.0
H1048 H 0.46668 0.96814 0.69706 0.0
H1049 H 0.41953 0.88449 0.72553 0.0
H1050 H 0.48053 0.96658 0.78027 0.0
H1051 H 0.49004 0.9929 0.74796 0.0
H1052 H 0.46825 0.00887 0.7827 0.0
H1053 H 0.40397 0.88713 0.78613 0.0
H1054 H 0.37252 0.90479 0.76889 0.0
H1055 H 0.39108 0.92638 0.80556 0.0
C1056 C 0.29294 0.11394 0.93427 0.0
C1057 C 0.3001 0.13945 0.91253 0.0
C1058 C 0.26859 0.11599 0.95504 0.0
C1059 C 0.24973 0.14374 0.9535 0.0
C1060 C 0.25655 0.16922 0.9308 0.0
C1061 C 0.28168 0.16707 0.9113 0.0
C1062 C 0.26285 0.08751 0.97785 0.0
C1063 C 0.23658 0.19798 0.92548 0.0
C1064 C 0.17532 0.11693 0.98398 0.0
C1065 C 0.1717 0.13813 0.01369 0.0
C1066 C 0.19933 0.1202 0.96328 0.0
C1067 C 0.22189 0.14407 0.97317 0.0
C1068 C 0.21782 0.16649 0.00279 0.0
C1069 C 0.1928 0.16344 0.02226 0.0
C1070 C 0.19986 0.09768 0.93065 0.0
C1071 C 0.23953 0.19377 0.01514 0.0
H1072 H 0.30608 0.09176 0.93444 0.0
H1073 H 0.28603 0.18614 0.8934 0.0
H1074 H 0.25058 0.09591 1.00051 0.0
H1075 H 0.25069 0.06661 0.96319 0.0
H1076 H 0.28307 0.07684 0.98674 0.0
H1077 H 0.24063 0.20997 0.90127 0.0
H1078 H 0.21393 0.18891 0.92514 0.0
H1079 H 0.2397 0.2179 0.94665 0.0
H1080 H 0.15896 0.0977 0.97645 0.0
H1081 H 0.1903 0.18024 0.04495 0.0
H1082 H 0.20508 0.07142 0.93672 0.0
H1083 H 0.21542 0.10671 0.9123 0.0
H1084 H 0.17835 0.09619 0.91797 0.0
H1085 H 0.24756 0.18867 0.04101 0.0
H1086 H 0.229 0.21874 0.01756 0.0
H1087 H 0.25788 0.19604 0.9983 0.0
C1088 C 0.22359 0.06318 0.23984 0.0
C1089 C 0.20325 0.0703 0.21453 0.0
C1090 C 0.21565 0.04776 0.26996 0.0
C1091 C 0.1865 0.03863 0.27514 0.0
C1092 C 0.16595 0.04813 0.25056 0.0
C1093 C 0.17449 0.06346 0.22085 0.0
C1094 C 0.2388 0.04258 0.29628 0.0
C1095 C 0.13456 0.04224 0.25533 0.0
C1096 C 0.16707 0.96526 0.3316 0.0
C1097 C 0.14884 0.98068 0.35528 0.0
C1098 C 0.18168 0.98412 0.30762 0.0
C1099 C 0.17676 0.01952 0.30553 0.0
C1100 C 0.16027 0.03575 0.33151 0.0
C1101 C 0.14639 0.01627 0.3554 0.0
C1102 C 0.2049 0.96668 0.28781 0.0
C1103 C 0.15836 0.07402 0.33618 0.0
H1104 H 0.24584 0.06994 0.23629 0.0
H1105 H 0.1584 0.07043 0.20246 0.0
H1106 H 0.2303 0.03652 0.32126 0.0
H1107 H 0.25253 0.02165 0.28669 0.0
H1108 H 0.25272 0.06586 0.30015 0.0
H1109 H 0.12199 0.05284 0.23471 0.0
H1110 H 0.12759 0.05531 0.27928 0.0
H1111 H 0.12974 0.01463 0.25646 0.0
H1112 H 0.17127 0.93877 0.33331 0.0
H1113 H 0.13398 0.02933 0.37492 0.0
H1114 H 0.20767 0.97685 0.26256 0.0
H1115 H 0.20115 0.93873 0.28474 0.0
H1116 H 0.22537 0.97094 0.30248 0.0
H1117 H 0.16789 0.0829 0.36148 0.0
H1118 H 0.1356 0.08126 0.33639 0.0
H1119 H 0.16954 0.08769 0.31651 0.0
C1120 C 0.29626 0.96022 0.57088 0.0
C1121 C 0.29633 0.92434 0.59631 0.0
C1122 C 0.2771 0.95801 0.53134 0.0
C1123 C 0.25664 0.92028 0.51727 0.0
C1124 C 0.2576 0.88373 0.54287 0.0
C1125 C 0.27794 0.88596 0.58155 0.0
C1126 C 0.27709 0.98974 0.5126 0.0
C1127 C 0.23467 0.85649 0.5394 0.0
C1128 C 0.18746 0.93636 0.46912 0.0
C1129 C 0.18139 0.904 0.45484 0.0
C1130 C 0.21206 0.94295 0.48932 0.0
C1131 C 0.2349 0.91901 0.4879 0.0
C1132 C 0.23458 0.89063 0.45993 0.0
C1133 C 0.2032 0.88042 0.45627 0.0
C1134 C 0.21088 0.97513 0.51253 0.0
C1135 C 0.28026 0.8673 0.41623 0.0
H1136 H 0.30746 0.98359 0.57999 0.0
H1137 H 0.27708 0.86488 0.59775 0.0
H1138 H 0.26442 0.98627 0.48848 0.0
H1139 H 0.26826 0.01068 0.52911 0.0
H1140 H 0.29942 0.99759 0.50766 0.0
H1141 H 0.21795 0.86322 0.55794 0.0
H1142 H 0.22429 0.85406 0.51391 0.0
H1143 H 0.24337 0.83197 0.54653 0.0
H1144 H 0.17129 0.95546 0.46845 0.0
H1145 H 0.19503 0.85506 0.44846 0.0
H1146 H 0.2249 0.97599 0.53508 0.0
H1147 H 0.18893 0.97888 0.52196 0.0
H1148 H 0.21596 0.99738 0.49773 0.0
H1149 H 0.30314 0.87663 0.41982 0.0
H1150 H 0.27995 0.87107 0.38803 0.0
H1151 H 0.28583 0.83961 0.41223 0.0
C1152 C 0.46596 0.07229 0.77559 0.0
C1153 C 0.44992 0.09312 0.79764 0.0
C1154 C 0.45612 0.06226 0.74175 0.0
C1155 C 0.42815 0.07108 0.73041 0.0
C1156 C 0.41773 0.1005 0.74796 0.0
C1157 C 0.42736 0.1098 0.78181 0.0
C1158 C 0.47809 0.04932 0.71718 0.0
C1159 C 0.39915 0.12463 0.72991 0.0
C1160 C 0.40627 0.99614 0.66596 0.0
C1161 C 0.38295 0.98199 0.6824 0.0
C1162 C 0.41831 0.02869 0.67714 0.0
C1163 C 0.40844 0.04654 0.70708 0.0
C1164 C 0.38005 0.03667 0.71618 0.0
C1165 C 0.36811 0.0046 0.70381 0.0
C1166 C 0.43704 0.04646 0.65308 0.0
C1167 C 0.36003 0.06055 0.73462 0.0
H1168 H 0.48646 0.06393 0.78476 0.0
H1169 H 0.41652 0.1298 0.79492 0.0
H1170 H 0.49911 0.04563 0.72992 0.0
H1171 H 0.47095 0.02519 0.70353 0.0
H1172 H 0.48194 0.06843 0.69833 0.0
H1173 H 0.41094 0.14934 0.72887 0.0
H1174 H 0.39329 0.11497 0.70341 0.0
H1175 H 0.37975 0.13009 0.74462 0.0
H1176 H 0.41464 0.98252 0.64383 0.0
H1177 H 0.34673 0.99717 0.71062 0.0
H1178 H 0.45577 0.03089 0.64635 0.0
H1179 H 0.44374 0.07255 0.66304 0.0
H1180 H 0.42456 0.04925 0.6292 0.0
H1181 H 0.35347 0.08014 0.7173 0.0
H1182 H 0.36982 0.07333 0.75793 0.0
H1183 H 0.34003 0.0475 0.74183 0.0
C1184 C 0.40262 0.11821 0.98944 0.0
C1185 C 0.40258 0.09442 0.96108 0.0
C1186 C 0.38102 0.11798 0.0141 0.0
C1187 C 0.35764 0.0939 0.01039 0.0
C1188 C 0.35812 0.06901 0.98216 0.0
C1189 C 0.38021 0.06981 0.95811 0.0
C1190 C 0.38414 0.1436 0.0444 0.0
C1191 C 0.33612 0.04037 0.97677 0.0
C1192 C 0.30815 0.0728 0.08437 0.0
C1193 C 0.28787 0.0987 0.08477 0.0
C1194 C 0.3305 0.07078 0.06063 0.0
C1195 C 0.3331 0.0951 0.03566 0.0
C1196 C 0.31286 0.12167 0.03632 0.0
C1197 C 0.29055 0.12282 0.06027 0.0
C1198 C 0.35215 0.04331 0.06371 0.0
C1199 C 0.31555 0.15063 0.01343 0.0
H1200 H 0.41989 0.13711 0.99275 0.0
H1201 H 0.37995 0.05072 0.93687 0.0
H1202 H 0.37086 0.13705 0.06605 0.0
H1203 H 0.40681 0.14584 0.05352 0.0
H1204 H 0.37819 0.16901 0.03644 0.0
H1205 H 0.34699 0.01571 0.97779 0.0
H1206 H 0.31916 0.0411 0.99577 0.0
H1207 H 0.32615 0.04049 0.95089 0.0
H1208 H 0.30727 0.05467 0.10385 0.0
H1209 H 0.27629 0.14406 0.06124 0.0
H1210 H 0.37392 0.05244 0.05763 0.0
H1211 H 0.34612 0.02128 0.04563 0.0
H1212 H 0.35288 0.03406 0.08974 0.0
H1213 H 0.32719 0.17229 0.02757 0.0
H1214 H 0.29425 0.15981 0.00642 0.0
H1215 H 0.3271 0.1437 0.98984 0.0
C1216 C 0.90635 0.26473 0.0941 0.0
C1217 C 0.90681 0.28887 0.12221 0.0
C1218 C 0.92746 0.23948 0.09022 0.0
C1219 C 0.95116 0.23925 0.11383 0.0
C1220 C 0.9512 0.26318 0.14269 0.0
C1221 C 0.92895 0.28675 0.1468 0.0
C1222 C 0.92295 0.21243 0.06137 0.0
C1223 C 0.97412 0.26358 0.1704 0.0
C1224 C 1.00218 0.16463 0.12637 0.0
C1225 C 0.02336 0.16919 0.10222 0.0
C1226 C 0.97859 0.18635 0.12998 0.0
C1227 C 0.97553 0.21419 0.10904 0.0
C1228 C 0.99643 0.21835 0.08386 0.0
C1229 C 0.01996 0.19617 0.08096 0.0
C1230 C 0.95657 0.17792 0.15563 0.0
C1231 C 0.99315 0.24529 0.0587 0.0
H1232 H 0.88901 0.26492 0.07533 0.0
H1233 H 0.92906 0.30363 0.16969 0.0
H1234 H 0.93916 0.19238 0.06101 0.0
H1235 H 0.90155 0.20003 0.06331 0.0
H1236 H 0.92291 0.22452 0.03671 0.0
H1237 H 0.97741 0.28946 0.18318 0.0
H1238 H 0.96717 0.24664 0.19014 0.0
H1239 H 0.99481 0.25458 0.16068 0.0
H1240 H 1.00357 0.14311 0.14204 0.0
H1241 H 0.03474 0.19867 0.06054 0.0
H1242 H 0.95192 0.15004 0.15403 0.0
H1243 H 0.93617 0.19109 0.15214 0.0
H1244 H 0.96544 0.1849 0.18167 0.0
H1245 H 0.01095 0.24584 0.04078 0.0
H1246 H 0.99113 0.27068 0.07235 0.0
H1247 H 0.97341 0.24016 0.04297 0.0
C1248 C 0.56057 0.35219 0.83585 0.0
C1249 C 0.56537 0.37495 0.87714 0.0
C1250 C 0.54 0.31277 0.83136 0.0
C1251 C 0.52249 0.29657 0.8675 0.0
C1252 C 0.52686 0.32019 0.90877 0.0
C1253 C 0.54867 0.35841 0.91339 0.0
C1254 C 0.53506 0.29651 0.79616 0.0
C1255 C 0.50669 0.31365 0.93646 0.0
C1256 C 0.45312 0.24277 0.84683 0.0
C1257 C 0.45415 0.21488 0.86576 0.0
C1258 C 0.47551 0.26743 0.84766 0.0
C1259 C 0.5032 0.26314 0.86432 0.0
C1260 C 0.51033 0.22867 0.8791 0.0
C1261 C 0.48068 0.21058 0.88304 0.0
C1262 C 0.46705 0.29979 0.83172 0.0
C1263 C 0.56625 0.1987 0.89405 0.0
H1264 H 0.57035 0.36204 0.8138 0.0
H1265 H 0.55078 0.3724 0.93797 0.0
H1266 H 0.52373 0.27149 0.79659 0.0
H1267 H 0.52213 0.3136 0.78107 0.0
H1268 H 0.55574 0.294 0.78326 0.0
H1269 H 0.51738 0.31924 0.96176 0.0
H1270 H 0.48891 0.3316 0.9349 0.0
H1271 H 0.49734 0.2875 0.93322 0.0
H1272 H 0.43323 0.24684 0.83311 0.0
H1273 H 0.47703 0.1889 0.8979 0.0
H1274 H 0.48471 0.31298 0.82006 0.0
H1275 H 0.45776 0.31724 0.85157 0.0
H1276 H 0.45032 0.29486 0.81128 0.0
H1277 H 0.58743 0.21215 0.89022 0.0
H1278 H 0.57318 0.17409 0.8805 0.0
H1279 H 0.57222 0.18981 0.91994 0.0
C1280 C 0.01921 0.67925 0.32311 0.0
C1281 C 0.03086 0.64789 0.33669 0.0
C1282 C 0.03775 0.70712 0.31827 0.0
C1283 C 0.06765 0.70598 0.32588 0.0
C1284 C 0.08035 0.67572 0.33626 0.0
C1285 C 0.06419 0.64642 0.34226 0.0
C1286 C 0.02509 0.73872 0.30533 0.0
C1287 C 0.1123 0.67388 0.34122 0.0
C1288 C 0.1169 0.77467 0.29241 0.0
C1289 C 0.12271 0.79618 0.32186 0.0
C1290 C 0.0989 0.74549 0.29308 0.0
C1291 C 0.08627 0.7375 0.32402 0.0
C1292 C 0.09234 0.75912 0.35386 0.0
C1293 C 0.11014 0.78831 0.35232 0.0
C1294 C 0.09393 0.72317 0.26059 0.0
C1295 C 0.0804 0.75119 0.38769 0.0
H1296 H 0.99647 0.68063 0.31775 0.0
H1297 H 0.04642 0.64236 0.34127 0.0
H1298 H 1.00138 0.73735 0.3043 0.0
H1299 H 0.03244 0.76146 0.32172 0.0
H1300 H 0.03254 0.74219 0.27928 0.0
H1301 H 0.11899 0.6481 0.34751 0.0
H1302 H 0.12305 0.68061 0.3177 0.0
H1303 H 0.11994 0.69252 0.36211 0.0
H1304 H 0.12679 0.78042 0.26881 0.0
H1305 H 0.11526 0.80417 0.37538 0.0
H1306 H 0.0741 0.73087 0.24755 0.0
H1307 H 0.09143 0.69589 0.26558 0.0
H1308 H 0.11175 0.72601 0.24283 0.0
H1309 H 0.08941 0.76842 0.40906 0.0
H1310 H 0.08457 0.72456 0.39336 0.0
H1311 H 0.057 0.7539 0.38637 0.0
C1312 C 0.03976 0.29708 0.11784 0.0
C1313 C 0.03168 0.31162 0.14966 0.0
C1314 C 0.06153 0.27251 0.11482 0.0
C1315 C 0.07578 0.26128 0.1444 0.0
C1316 C 0.06781 0.27651 0.17662 0.0
C1317 C 0.0462 0.30111 0.17868 0.0
C1318 C 0.07051 0.2605 0.07957 0.0
C1319 C 0.08252 0.26872 0.20963 0.0
C1320 C 0.11633 0.17696 0.15207 0.0
C1321 C 0.14232 0.1832 0.13629 0.0
C1322 C 0.09438 0.20124 0.15371 0.0
C1323 C 0.0989 0.23424 0.1415 0.0
C1324 C 0.12597 0.24107 0.12709 0.0
C1325 C 0.14644 0.21519 0.12322 0.0
C1326 C 0.06701 0.19148 0.17036 0.0
C1327 C 0.13506 0.2762 0.11783 0.0
H1328 H 0.03016 0.30635 0.09504 0.0
H1329 H 0.04104 0.31281 0.20345 0.0
H1330 H 0.08918 0.27606 0.0726 0.0
H1331 H 0.07658 0.23341 0.07816 0.0
H1332 H 0.05369 0.26422 0.06009 0.0
H1333 H 0.06673 0.25709 0.22622 0.0
H1334 H 0.10063 0.25149 0.20632 0.0
H1335 H 0.09056 0.2928 0.22338 0.0
H1336 H 0.11308 0.15288 0.16338 0.0
H1337 H 0.16685 0.22108 0.1123 0.0
H1338 H 0.04863 0.20633 0.16199 0.0
H1339 H 0.06988 0.19595 0.19838 0.0
H1340 H 0.06184 0.16391 0.16503 0.0
H1341 H 0.13813 0.27582 0.08994 0.0
H1342 H 0.15614 0.28337 0.13023 0.0
H1343 H 0.1198 0.29618 0.12552 0.0
C1344 C 0.6021 0.72094 0.59911 0.0
C1345 C 0.63115 0.73052 0.60247 0.0
C1346 C 0.58066 0.74486 0.59365 0.0
C1347 C 0.58759 0.78021 0.59575 0.0
C1348 C 0.61707 0.79016 0.59841 0.0
C1349 C 0.63831 0.7653 0.60119 0.0
C1350 C 0.5507 0.73219 0.58416 0.0
C1351 C 0.62677 0.82694 0.59824 0.0
C1352 C 0.52306 0.83613 0.57509 0.0
C1353 C 0.51694 0.85141 0.60728 0.0
C1354 C 0.54656 0.81431 0.57042 0.0
C1355 C 0.5639 0.80605 0.59889 0.0
C1356 C 0.55751 0.82146 0.63146 0.0
C1357 C 0.53475 0.84426 0.63502 0.0
C1358 C 0.55296 0.80168 0.53445 0.0
C1359 C 0.57505 0.8145 0.66285 0.0
H1360 H 0.59588 0.69477 0.60105 0.0
H1361 H 0.66062 0.77338 0.60353 0.0
H1362 H 0.53481 0.74611 0.59973 0.0
H1363 H 0.54597 0.73687 0.5572 0.0
H1364 H 0.54798 0.70446 0.58611 0.0
H1365 H 0.64507 0.82926 0.5811 0.0
H1366 H 0.60963 0.84372 0.58993 0.0
H1367 H 0.63457 0.83611 0.62422 0.0
H1368 H 0.5103 0.84247 0.55315 0.0
H1369 H 0.53079 0.85662 0.65987 0.0
H1370 H 0.5349 0.78512 0.52379 0.0
H1371 H 0.57305 0.78747 0.53246 0.0
H1372 H 0.55452 0.82363 0.51827 0.0
H1373 H 0.56429 0.82295 0.68667 0.0
H1374 H 0.59584 0.82853 0.66263 0.0
H1375 H 0.57946 0.78696 0.66335 0.0
C1376 C 0.91651 0.74449 0.39631 0.0
C1377 C 0.92031 0.70958 0.38722 0.0
C1378 C 0.9401 0.76837 0.40168 0.0
C1379 C 0.96892 0.7575 0.39928 0.0
C1380 C 0.97256 0.72182 0.39322 0.0
C1381 C 0.94874 0.6991 0.38528 0.0
C1382 C 0.93374 0.8052 0.41052 0.0
C1383 C 1.00165 0.70717 0.39726 0.0
C1384 C 0.02872 0.82226 0.37495 0.0
C1385 C 0.04729 0.82567 0.40386 0.0
C1386 C 1.00303 0.8017 0.37376 0.0
C1387 C 0.99513 0.78271 0.4019 0.0
C1388 C 0.01341 0.78705 0.43166 0.0
C1389 C 0.03873 0.80816 0.43222 0.0
C1390 C 0.98391 0.80159 0.3423 0.0
C1391 C 1.00671 0.76984 0.4637 0.0
H1392 H 0.89491 0.7535 0.39838 0.0
H1393 H 0.95246 0.67263 0.37845 0.0
H1394 H 0.95165 0.81893 0.42505 0.0
H1395 H 0.92972 0.81795 0.38666 0.0
H1396 H 0.91414 0.80743 0.42574 0.0
H1397 H 1.00171 0.67962 0.39007 0.0
H1398 H 0.01726 0.72081 0.38232 0.0
H1399 H 1.00882 0.71027 0.42429 0.0
H1400 H 0.03399 0.83625 0.3531 0.0
H1401 H 0.05201 0.81076 0.45526 0.0
H1402 H 0.97227 0.77687 0.33681 0.0
H1403 H 0.99617 0.80761 0.3196 0.0
H1404 H 0.96786 0.8216 0.34634 0.0
H1405 H 1.0085 0.78843 0.48613 0.0
H1406 H 0.02297 0.75046 0.468 0.0
H1407 H 0.98511 0.75758 0.46305 0.0
C1408 C 0.53787 0.19337 0.84453 0.0
C1409 C 0.52357 0.17159 0.87822 0.0
C1410 C 0.55404 0.23426 0.85253 0.0
C1411 C 0.55479 0.25493 0.89527 0.0
C1412 C 0.53835 0.23363 0.92871 0.0
C1413 C 0.52353 0.19197 0.92053 0.0
C1414 C 0.5756 0.24337 0.827 0.0
C1415 C 0.53766 0.24855 0.96461 0.0
C1416 C 0.61875 0.31323 0.92558 0.0
C1417 C 0.6226 0.32951 0.8961 0.0
C1418 C 0.59699 0.28814 0.92635 0.0
C1419 C 0.57338 0.2871 0.90169 0.0
C1420 C 0.56968 0.31638 0.87955 0.0
C1421 C 0.60034 0.32502 0.87113 0.0
C1422 C 0.60253 0.26201 0.95194 0.0
C1423 C 0.519 0.35494 0.86524 0.0
H1424 H 0.53924 0.18025 0.81957 0.0
H1425 H 0.5149 0.17863 0.94126 0.0
H1426 H 0.58355 0.2699 0.83063 0.0
H1427 H 0.59428 0.22696 0.82989 0.0
H1428 H 0.56678 0.23732 0.80081 0.0
H1429 H 0.51528 0.24831 0.97315 0.0
H1430 H 0.54966 0.23211 0.98141 0.0
H1431 H 0.54682 0.27473 0.96724 0.0
H1432 H 0.63581 0.31499 0.94488 0.0
H1433 H 0.60668 0.33424 0.84709 0.0
H1434 H 0.62576 0.25725 0.95456 0.0
H1435 H 0.59211 0.23719 0.94553 0.0
H1436 H 0.59584 0.27214 0.97742 0.0
H1437 H 0.51209 0.36092 0.83859 0.0
H1438 H 0.5168 0.38233 0.87537 0.0
H1439 H 0.49693 0.34743 0.87318 0.0
C1440 C 0.88524 0.08287 0.70904 0.0
C1441 C 0.85548 0.08481 0.70484 0.0
C1442 C 0.89788 0.06474 0.73525 0.0
C1443 C 0.88049 0.04899 0.75927 0.0
C1444 C 0.85058 0.05587 0.75783 0.0
C1445 C 0.83857 0.07196 0.72997 0.0
C1446 C 0.93006 0.06455 0.73761 0.0
C1447 C 0.83082 0.05023 0.7867 0.0
C1448 C 0.90955 0.96698 0.79606 0.0
C1449 C 0.90743 0.97388 0.83124 0.0
C1450 C 0.90325 0.99198 0.77275 0.0
C1451 C 0.89297 0.02461 0.78433 0.0
C1452 C 0.89377 0.03264 0.8201 0.0
C1453 C 0.90042 0.00735 0.84273 0.0
C1454 C 0.90832 0.9831 0.73577 0.0
C1455 C 0.88836 0.06807 0.83528 0.0
H1456 H 0.89883 0.09547 0.6916 0.0
H1457 H 0.8158 0.07643 0.72903 0.0
H1458 H 0.93847 0.05334 0.76081 0.0
H1459 H 0.93818 0.05034 0.71466 0.0
H1460 H 0.93878 0.09104 0.73749 0.0
H1461 H 0.80947 0.04081 0.77671 0.0
H1462 H 0.83895 0.03285 0.80523 0.0
H1463 H 0.82748 0.07518 0.80076 0.0
H1464 H 0.91677 0.94221 0.78668 0.0
H1465 H 0.90033 0.01427 0.86982 0.0
H1466 H 0.89264 0.99509 0.71927 0.0
H1467 H 0.90774 0.95519 0.73009 0.0
H1468 H 0.93001 0.99232 0.72966 0.0
H1469 H 0.88767 0.08735 0.81605 0.0
H1470 H 0.90539 0.07594 0.85462 0.0
H1471 H 0.86789 0.06797 0.84886 0.0
C1472 C 0.63481 0.08401 0.45841 0.0
C1473 C 0.62715 0.10881 0.43569 0.0
C1474 C 0.65507 0.09039 0.48567 0.0
C1475 C 0.67039 0.12211 0.49019 0.0
C1476 C 0.66245 0.1477 0.46775 0.0
C1477 C 0.64059 0.14107 0.44179 0.0
C1478 C 0.65869 0.0627 0.51001 0.0
C1479 C 0.67672 0.18258 0.47115 0.0
C1480 C 0.71058 0.15829 0.57323 0.0
C1481 C 0.73759 0.14297 0.57209 0.0
C1482 C 0.68863 0.15098 0.54808 0.0
C1483 C 0.69348 0.12875 0.51889 0.0
C1484 C 0.72026 0.11191 0.51829 0.0
C1485 C 0.74147 0.1185 0.54501 0.0
C1486 C 0.66015 0.16714 0.55409 0.0
C1487 C 0.72689 0.08675 0.48932 0.0
H1488 H 0.6242 0.05915 0.45565 0.0
H1489 H 0.63426 0.16113 0.42611 0.0
H1490 H 0.66896 0.04064 0.4967 0.0
H1491 H 0.67139 0.07092 0.53342 0.0
H1492 H 0.63739 0.05345 0.51773 0.0
H1493 H 0.67463 0.19576 0.44719 0.0
H1494 H 0.66623 0.1985 0.49124 0.0
H1495 H 0.69973 0.18115 0.47831 0.0
H1496 H 0.70628 0.17642 0.59437 0.0
H1497 H 0.76166 0.10569 0.54367 0.0
H1498 H 0.6537 0.16396 0.58067 0.0
H1499 H 0.64276 0.15637 0.53663 0.0
H1500 H 0.66235 0.19495 0.55143 0.0
H1501 H 0.71718 0.06158 0.49381 0.0
H1502 H 0.75017 0.08341 0.48776 0.0
H1503 H 0.71828 0.0948 0.46469 0.0
C1504 C 0.6443 0.94656 0.12847 0.0
C1505 C 0.64451 0.91442 0.15503 0.0
C1506 C 0.63944 0.98816 0.14232 0.0
C1507 C 0.63232 0.99344 0.21013 0.0
C1508 C 0.63412 0.95279 0.22497 0.0
C1509 C 0.6394 0.91736 0.19838 0.0
C1510 C 0.63882 0.01176 0.11247 0.0
C1511 C 0.63436 0.94779 0.26235 0.0
C1512 C 0.60776 0.08367 0.27053 0.0
C1513 C 0.58681 0.06861 0.28786 0.0
C1514 C 0.6317 0.06418 0.25243 0.0
C1515 C 0.62 0.02379 0.23841 0.0
C1516 C 0.59352 0.014 0.25455 0.0
C1517 C 0.58095 0.03415 0.28113 0.0
C1518 C 0.69004 0.09352 0.24758 0.0
C1519 C 0.57546 0.982 0.24518 0.0
H1520 H 0.64907 0.94085 0.1021 0.0
H1521 H 0.64076 0.89375 0.21078 0.0
H1522 H 0.6165 0.01831 0.10606 0.0
H1523 H 0.65177 0.03565 0.11712 0.0
H1524 H 0.64717 0.99841 0.08921 0.0
H1525 H 0.65353 0.93338 0.26901 0.0
H1526 H 0.63479 0.97226 0.27804 0.0
H1527 H 0.61553 0.93185 0.26827 0.0
H1528 H 0.62407 0.07344 0.25966 0.0
H1529 H 0.56332 0.02341 0.29462 0.0
H1530 H 0.69477 0.11894 0.23689 0.0
H1531 H 0.70696 0.07979 0.23236 0.0
H1532 H 0.70471 0.09946 0.27064 0.0
H1533 H 0.57414 0.96641 0.26757 0.0
H1534 H 0.58179 0.9656 0.22351 0.0
H1535 H 0.55319 0.98926 0.23921 0.0
C1536 C 0.84454 0.92571 0.99192 0.0
C1537 C 0.85277 0.90753 0.96181 0.0
C1538 C 0.82596 0.91147 0.01492 0.0
C1539 C 0.81377 0.87843 0.0074 0.0
C1540 C 0.82367 0.85877 0.9785 0.0
C1541 C 0.84309 0.87346 0.95614 0.0
C1542 C 0.81902 0.93249 0.04705 0.0
C1543 C 0.81433 0.822 0.97158 0.0
C1544 C 0.76459 0.83526 0.07026 0.0
C1545 C 0.73841 0.85077 0.06434 0.0
C1546 C 0.78934 0.84358 0.05219 0.0
C1547 C 0.78785 0.8674 0.02663 0.0
C1548 C 0.76135 0.88313 0.02085 0.0
C1549 C 0.73736 0.8753 0.04022 0.0
C1550 C 0.81689 0.82712 0.06158 0.0
C1551 C 0.75809 0.90899 0.99453 0.0
H1552 H 0.85285 0.95143 0.99791 0.0
H1553 H 0.85021 0.8585 0.93396 0.0
H1554 H 0.81395 0.91621 0.06814 0.0
H1555 H 0.83712 0.9501 0.05552 0.0
H1556 H 0.80029 0.94825 0.04204 0.0
H1557 H 0.82022 0.81165 0.94583 0.0
H1558 H 0.82509 0.80661 0.9904 0.0
H1559 H 0.79099 0.81868 0.97454 0.0
H1560 H 0.7659 0.81694 0.08954 0.0
H1561 H 0.71752 0.88812 0.03612 0.0
H1562 H 0.83602 0.84021 0.05207 0.0
H1563 H 0.81616 0.80026 0.05093 0.0
H1564 H 0.81923 0.82662 0.0897 0.0
H1565 H 0.77478 0.90794 0.97508 0.0
H1566 H 0.75816 0.93494 0.00742 0.0
H1567 H 0.73748 0.90479 0.98078 0.0
C1568 C 0.83191 0.99739 0.67181 0.0
C1569 C 0.85843 0.99431 0.65636 0.0
C1570 C 0.8213 0.97226 0.69274 0.0
C1571 C 0.83806 0.9436 0.69983 0.0
C1572 C 0.86377 0.93915 0.68158 0.0
C1573 C 0.87336 0.96428 0.66007 0.0
C1574 C 0.79205 0.97719 0.7071 0.0
C1575 C 0.88196 0.90836 0.68497 0.0
C1576 C 0.82813 0.91217 0.78984 0.0
C1577 C 0.82101 0.87771 0.78366 0.0
C1578 C 0.83242 0.93354 0.7631 0.0
C1579 C 0.83053 0.92064 0.72837 0.0
C1580 C 0.82244 0.88557 0.72194 0.0
C1581 C 0.81822 0.86464 0.74947 0.0
C1582 C 0.83634 0.97056 0.7732 0.0
C1583 C 0.81679 0.86972 0.68635 0.0
H1584 H 0.8194 0.01961 0.66773 0.0
H1585 H 0.89324 0.96089 0.64688 0.0
H1586 H 0.78392 0.95485 0.71994 0.0
H1587 H 0.79264 1.0 0.72534 0.0
H1588 H 0.77665 0.98239 0.68628 0.0
H1589 H 0.90452 0.91374 0.67859 0.0
H1590 H 0.88165 0.89932 0.71104 0.0
H1591 H 0.87374 0.88746 0.66673 0.0
H1592 H 0.82933 0.92305 0.81595 0.0
H1593 H 0.81224 0.83803 0.74403 0.0
H1594 H 0.84696 0.98465 0.75363 0.0
H1595 H 0.84851 0.97455 0.79778 0.0
H1596 H 0.81487 0.98096 0.77743 0.0
H1597 H 0.79598 0.85544 0.68512 0.0
H1598 H 0.83344 0.85088 0.68015 0.0
H1599 H 0.81633 0.88861 0.66673 0.0
C1600 C 0.83546 0.12421 0.53749 0.0
C1601 C 0.85886 0.1034 0.53185 0.0
C1602 C 0.81992 0.13663 0.51005 0.0
C1603 C 0.82649 0.12582 0.47608 0.0
C1604 C 0.8518 0.10772 0.47026 0.0
C1605 C 0.86761 0.09677 0.49813 0.0
C1606 C 0.7966 0.16152 0.51745 0.0
C1607 C 0.86237 0.09916 0.4349 0.0
C1608 C 0.76231 0.10447 0.41647 0.0
C1609 C 0.75466 0.13681 0.40775 0.0
C1610 C 0.78696 0.10013 0.4368 0.0
C1611 C 0.80459 0.12892 0.44806 0.0
C1612 C 0.79858 0.16095 0.43547 0.0
C1613 C 0.77326 0.16466 0.41627 0.0
C1614 C 0.79351 0.06471 0.44679 0.0
C1615 C 0.81848 0.19159 0.44174 0.0
H1616 H 0.82835 0.12952 0.56306 0.0
H1617 H 0.88628 0.0817 0.49318 0.0
H1618 H 0.80314 0.18667 0.50887 0.0
H1619 H 0.77646 0.15331 0.50348 0.0
H1620 H 0.79284 0.16537 0.545 0.0
H1621 H 0.86126 0.07115 0.42924 0.0
H1622 H 0.8502 0.11159 0.41486 0.0
H1623 H 0.88522 0.10714 0.4338 0.0
H1624 H 0.74836 0.08279 0.40864 0.0
H1625 H 0.76793 0.18952 0.40808 0.0
H1626 H 0.79977 0.06485 0.4742 0.0
H1627 H 0.81155 0.05483 0.43174 0.0
H1628 H 0.77501 0.0467 0.44166 0.0
H1629 H 0.80712 0.2126 0.4554 0.0
H1630 H 0.82462 0.20088 0.41687 0.0
H1631 H 0.83826 0.18626 0.45632 0.0
C1632 C 0.66495 0.96615 0.18154 0.0
C1633 C 0.61055 0.95858 0.17158 0.0
C1634 C 0.67621 0.00609 0.18172 0.0
C1635 C 0.65343 0.0373 0.18002 0.0
C1636 C 0.61641 0.03439 0.17224 0.0
C1637 C 0.5958 0.99786 0.16864 0.0
C1638 C 0.70715 0.01288 0.17475 0.0
C1639 C 0.59946 0.06559 0.16781 0.0
C1640 C 0.67083 0.06205 0.28963 0.0
C1641 C 0.65831 0.10398 0.291 0.0
C1642 C 0.67507 0.03832 0.24991 0.0
C1643 C 0.66341 0.05838 0.20963 0.0
C1644 C 0.65009 0.1003 0.21313 0.0
C1645 C 0.64803 0.12265 0.25308 0.0
C1646 C 0.6936 0.00792 0.25322 0.0
C1647 C 0.64819 0.12074 0.18257 0.0
H1648 H 0.68222 0.94786 0.18204 0.0
H1649 H 0.57313 0.99936 0.16311 0.0
H1650 H 0.70949 0.01265 0.14676 0.0
H1651 H 0.71467 0.03828 0.18578 0.0
H1652 H 0.72067 0.9926 0.18418 0.0
H1653 H 0.59816 0.08094 0.19231 0.0
H1654 H 0.60911 0.08062 0.14815 0.0
H1655 H 0.5772 0.0588 0.15908 0.0
H1656 H 0.67927 0.05242 0.31283 0.0
H1657 H 0.64278 0.1493 0.25426 0.0
H1658 H 0.71459 0.0127 0.24197 0.0
H1659 H 0.68402 0.98398 0.24195 0.0
H1660 H 0.69782 0.00396 0.2805 0.0
H1661 H 0.66356 0.14267 0.18625 0.0
H1662 H 0.62666 0.13162 0.18042 0.0
H1663 H 0.65359 0.10537 0.15905 0.0
C1664 C 0.62407 0.86991 0.01845 0.0
C1665 C 0.62673 0.90177 0.03679 0.0
C1666 C 0.64232 0.86068 0.99116 0.0
C1667 C 0.66557 0.88272 0.98304 0.0
C1668 C 0.66748 0.91556 1.0012 0.0
C1669 C 0.64819 0.92436 0.02722 0.0
C1670 C 0.63548 0.82752 0.97072 0.0
C1671 C 0.68962 0.94266 0.99459 0.0
C1672 C 0.73125 0.8392 0.94251 0.0
C1673 C 0.73616 0.85779 0.91403 0.0
C1674 C 0.70744 0.84494 0.96341 0.0
C1675 C 0.68801 0.87137 0.95701 0.0
C1676 C 0.69121 0.88746 0.92583 0.0
C1677 C 0.71522 0.88087 0.90521 0.0
C1678 C 0.70305 0.82103 0.99115 0.0
C1679 C 0.66924 0.91141 0.91334 0.0
H1680 H 0.60686 0.85256 0.02442 0.0
H1681 H 0.65015 0.94944 0.04043 0.0
H1682 H 0.64759 0.82442 0.94693 0.0
H1683 H 0.6399 0.80601 0.98671 0.0
H1684 H 0.6123 0.82579 0.96385 0.0
H1685 H 0.70527 0.94527 0.01634 0.0
H1686 H 0.70119 0.93799 0.97084 0.0
H1687 H 0.67935 0.96771 0.99354 0.0
H1688 H 0.7457 0.81914 0.94801 0.0
H1689 H 0.71754 0.89397 0.88206 0.0
H1690 H 0.69134 0.79785 0.98014 0.0
H1691 H 0.69061 0.83249 0.01217 0.0
H1692 H 0.72378 0.81248 1.00142 0.0
H1693 H 0.66442 0.90531 0.88577 0.0
H1694 H 0.67811 0.93789 0.91599 0.0
H1695 H 0.64896 0.91023 0.92719 0.0
C1696 C 0.01795 0.86138 0.87279 0.0
C1697 C 0.99561 0.85749 0.89552 0.0
C1698 C 0.04149 0.8393 0.87185 0.0
C1699 C 0.04322 0.81267 0.89442 0.0
C1700 C 0.02175 0.81033 0.91898 0.0
C1701 C 0.9982 0.83226 0.91896 0.0
C1702 C 0.06437 0.84409 0.84624 0.0
C1703 C 0.02365 0.78436 0.94526 0.0
C1704 C 0.07869 0.73012 0.86225 0.0
C1705 C 0.10524 0.73098 0.87999 0.0
C1706 C 0.05905 0.75645 0.86649 0.0
C1707 C 0.06518 0.78491 0.8898 0.0
C1708 C 0.09169 0.78583 0.90859 0.0
C1709 C 0.11135 0.75899 0.90346 0.0
C1710 C 0.0316 0.75369 0.84554 0.0
C1711 C 0.10028 0.81607 0.93258 0.0
H1712 H 0.01664 0.88111 0.85499 0.0
H1713 H 0.98163 0.82949 0.93736 0.0
H1714 H 0.08578 0.84485 0.85909 0.0
H1715 H 0.06371 0.82219 0.8269 0.0
H1716 H 0.06175 0.86785 0.83296 0.0
H1717 H 1.00549 0.78559 0.96283 0.0
H1718 H 0.02441 0.75845 0.93245 0.0
H1719 H 0.04375 0.78862 0.96066 0.0
H1720 H 0.07345 0.70891 0.84391 0.0
H1721 H 0.13199 0.76077 0.91667 0.0
H1722 H 0.02834 0.77706 0.83193 0.0
H1723 H 0.01369 0.75107 0.86289 0.0
H1724 H 0.0309 0.73149 0.8265 0.0
H1725 H 0.10893 0.83661 0.91754 0.0
H1726 H 0.11711 0.80957 0.95127 0.0
H1727 H 0.08179 0.82633 0.94658 0.0
C1728 C 0.47621 0.64375 0.12266 0.0
C1729 C 0.45558 0.6362 0.08353 0.0
C1730 C 0.5008 0.67932 0.12849 0.0
C1731 C 0.50691 0.70743 0.09452 0.0
C1732 C 0.4844 0.69986 0.0554 0.0
C1733 C 0.45891 0.66519 0.05116 0.0
C1734 C 0.51509 0.6843 0.16301 0.0
C1735 C 0.49384 0.70809 0.02064 0.0
C1736 C 0.57222 0.77571 0.0861 0.0
C1737 C 0.59036 0.76785 0.11271 0.0
C1738 C 0.54607 0.75703 0.07787 0.0
C1739 C 0.53766 0.72692 0.09548 0.0
C1740 C 0.56135 0.71516 0.11562 0.0
C1741 C 0.58457 0.73719 0.12714 0.0
C1742 C 0.53069 0.77018 0.04809 0.0
C1743 C 0.5677 0.6782 0.1192 0.0
H1744 H 0.47406 0.62637 0.14262 0.0
H1745 H 0.44758 0.65944 0.02705 0.0
H1746 H 0.52707 0.70891 0.16676 0.0
H1747 H 0.49869 0.68285 0.18268 0.0
H1748 H 0.52908 0.66262 0.16713 0.0
H1749 H 0.48335 0.73116 0.01235 0.0
H1750 H 0.51739 0.70971 0.01996 0.0
H1751 H 0.48705 0.68742 1.00131 0.0
H1752 H 0.57791 0.79781 0.07244 0.0
H1753 H 0.60011 0.72865 0.14541 0.0
H1754 H 0.50854 0.76298 0.0481 0.0
H1755 H 0.54054 0.76023 0.0242 0.0
H1756 H 0.53237 0.7984 0.0482 0.0
H1757 H 0.55093 0.66018 0.10975 0.0
H1758 H 0.57356 0.67389 0.14606 0.0
H1759 H 0.58687 0.67173 0.10427 0.0
C1760 C 0.96708 0.33211 0.66495 0.0
C1761 C 0.9918 0.32331 0.64723 0.0
C1762 C 0.94133 0.31262 0.66018 0.0
C1763 C 0.94012 0.2826 0.63783 0.0
C1764 C 0.96486 0.27417 0.61917 0.0
C1765 C 0.9902 0.29445 0.62413 0.0
C1766 C 0.91548 0.32467 0.67916 0.0
C1767 C 0.96493 0.24424 0.59309 0.0
C1768 C 0.88315 0.2156 0.65843 0.0
C1769 C 0.86596 0.21228 0.62863 0.0
C1770 C 0.90685 0.23847 0.662 0.0
C1771 C 0.91366 0.25941 0.63511 0.0
C1772 C 0.89544 0.25704 0.60534 0.0
C1773 C 0.87224 0.2331 0.60223 0.0
C1774 C 0.9239 0.23973 0.69523 0.0
C1775 C 0.89998 0.27966 0.57645 0.0
H1776 H 0.96762 0.35475 0.6823 0.0
H1777 H 1.00878 0.28772 0.60954 0.0
H1778 H 0.89523 0.31674 0.66522 0.0
H1779 H 0.91547 0.31384 0.70442 0.0
H1780 H 0.91607 0.35285 0.68366 0.0
H1781 H 0.98602 0.23235 0.59318 0.0
H1782 H 0.9485 0.22435 0.59732 0.0
H1783 H 0.9613 0.25344 0.56737 0.0
H1784 H 0.87816 0.19994 0.67921 0.0
H1785 H 0.85877 0.23108 0.57931 0.0
H1786 H 0.94502 0.2529 0.6943 0.0
H1787 H 0.92726 0.21352 0.70304 0.0
H1788 H 0.9114 0.25299 0.71546 0.0
H1789 H 0.87913 0.28701 0.56545 0.0
H1790 H 0.91126 0.26529 0.55586 0.0
H1791 H 0.91262 0.30319 0.58445 0.0
C1792 C 1.00068 0.69283 0.89967 0.0
C1793 C 1.00956 0.67336 0.87066 0.0
C1794 C 0.97514 0.71156 0.89928 0.0
C1795 C 0.95822 0.71217 0.86885 0.0
C1796 C 0.96713 0.69251 0.8395 0.0
C1797 C 0.99222 0.67307 0.84092 0.0
C1798 C 0.96597 0.73044 0.93163 0.0
C1799 C 0.94995 0.69174 0.8065 0.0
C1800 C 0.87899 0.73749 0.8719 0.0
C1801 C 0.87975 0.7707 0.8609 0.0
C1802 C 0.90419 0.71863 0.87551 0.0
C1803 C 0.9312 0.73302 0.86776 0.0
C1804 C 0.93205 0.76708 0.8578 0.0
C1805 C 0.90653 0.78523 0.8543 0.0
C1806 C 0.90154 0.68241 0.88549 0.0
C1807 C 0.95986 0.78407 0.84945 0.0
H1808 H 0.01334 0.69269 0.9231 0.0
H1809 H 0.99848 0.65786 0.81848 0.0
H1810 H 0.96446 0.75797 0.92766 0.0
H1811 H 0.94438 0.72134 0.93832 0.0
H1812 H 0.98086 0.72705 0.95348 0.0
H1813 H 0.95952 0.67535 0.78593 0.0
H1814 H 0.92789 0.68216 0.81043 0.0
H1815 H 0.94835 0.71791 0.79796 0.0
H1816 H 0.85838 0.72535 0.8756 0.0
H1817 H 0.90735 0.81032 0.84456 0.0
H1818 H 0.91762 0.67757 0.90563 0.0
H1819 H 0.9057 0.66474 0.86307 0.0
H1820 H 0.87993 0.67628 0.89474 0.0
H1821 H 0.97469 0.78406 0.87175 0.0
H1822 H 0.95724 0.81077 0.84273 0.0
H1823 H 0.96973 0.76954 0.82785 0.0
C1824 C 0.37352 0.27247 0.32252 0.0
C1825 C 0.366 0.29367 0.35124 0.0
C1826 C 0.39606 0.24916 0.32337 0.0
C1827 C 0.41268 0.24644 0.35366 0.0
C1828 C 0.40462 0.26657 0.38331 0.0
C1829 C 0.38157 0.28976 0.38184 0.0
C1830 C 0.40213 0.22737 0.2914 0.0
C1831 C 0.42048 0.26352 0.41671 0.0
C1832 C 0.46254 0.16901 0.3589 0.0
C1833 C 0.48945 0.1824 0.35051 0.0
C1834 C 0.43778 0.18929 0.36083 0.0
C1835 C 0.43924 0.22415 0.3534 0.0
C1836 C 0.46617 0.23735 0.34368 0.0
C1837 C 0.4909 0.21692 0.34335 0.0
C1838 C 0.40996 0.17312 0.37072 0.0
C1839 C 0.46848 0.27302 0.33241 0.0
H1840 H 0.36167 0.27414 0.2987 0.0
H1841 H 0.37627 0.30537 0.40444 0.0
H1842 H 0.40197 0.2001 0.29684 0.0
H1843 H 0.3863 0.23074 0.27047 0.0
H1844 H 0.4237 0.23375 0.28236 0.0
H1845 H 0.41784 0.23721 0.42471 0.0
H1846 H 0.4437 0.26829 0.41363 0.0
H1847 H 0.41268 0.28139 0.43729 0.0
H1848 H 0.46092 0.14254 0.3647 0.0
H1849 H 0.51127 0.22775 0.33652 0.0
H1850 H 0.39242 0.17897 0.35274 0.0
H1851 H 0.40424 0.18375 0.3964 0.0
H1852 H 0.41124 0.14504 0.37133 0.0
H1853 H 0.46128 0.29129 0.35294 0.0
H1854 H 0.45415 0.27568 0.30996 0.0
H1855 H 0.49044 0.27983 0.32519 0.0
C1856 C 0.9713 0.14906 0.62221 0.0
C1857 C 0.97457 0.12349 0.59605 0.0
C1858 C 0.99337 0.17387 0.63114 0.0
C1859 C 0.01995 0.17321 0.61401 0.0
C1860 C 0.02384 0.14592 0.58915 0.0
C1861 C 1.00117 0.12232 0.58003 0.0
C1862 C 0.98747 0.20079 0.65896 0.0
C1863 C 0.05201 0.14108 0.5719 0.0
C1864 C 0.07479 0.24935 0.6109 0.0
C1865 C 0.08836 0.25007 0.64318 0.0
C1866 C 0.05279 0.22475 0.60078 0.0
C1867 C 0.04408 0.19952 0.62329 0.0
C1868 C 0.05918 0.19919 0.65506 0.0
C1869 C 0.08024 0.22457 0.6647 0.0
C1870 C 0.03958 0.22653 0.5656 0.0
C1871 C 0.05376 0.1719 0.67944 0.0
H1872 H 0.9511 0.1505 0.63499 0.0
H1873 H 1.00447 0.10248 0.56013 0.0
H1874 H 1.00169 0.22369 0.65865 0.0
H1875 H 0.96506 0.2087 0.65648 0.0
H1876 H 0.98984 0.18981 0.68404 0.0
H1877 H 0.05242 0.15601 0.54904 0.0
H1878 H 0.07037 0.14969 0.58901 0.0
H1879 H 0.05489 0.11395 0.56326 0.0
H1880 H 0.08084 0.26847 0.59371 0.0
H1881 H 0.09086 0.22396 0.68946 0.0
H1882 H 0.0319 0.25261 0.5625 0.0
H1883 H 0.02163 0.20807 0.55971 0.0
H1884 H 0.05626 0.22181 0.54643 0.0
H1885 H 0.03916 0.18172 0.69933 0.0
H1886 H 0.07395 0.16548 0.69267 0.0
H1887 H 0.04424 0.14813 0.66664 0.0
C1888 C 0.43059 0.68071 0.11991 0.0
C1889 C 0.40263 0.69135 0.11325 0.0
C1890 C 0.45794 0.69404 0.10411 0.0
C1891 C 0.45288 0.7327 0.10661 0.0
C1892 C 0.42399 0.74571 0.1073 0.0
C1893 C 0.40025 0.72379 0.10344 0.0
C1894 C 0.50254 0.65108 0.07501 0.0
C1895 C 0.4162 0.78236 0.11747 0.0
C1896 C 0.50813 0.79428 0.15548 0.0
C1897 C 0.51335 0.8184 0.13178 0.0
C1898 C 0.48775 0.76731 0.14818 0.0
C1899 C 0.47499 0.76156 0.11476 0.0
C1900 C 0.47795 0.7887 0.09256 0.0
C1901 C 0.49695 0.81633 0.1015 0.0
C1902 C 0.47651 0.74953 0.178 0.0
C1903 C 0.46074 0.79015 0.05945 0.0
H1904 H 0.42934 0.65812 0.13406 0.0
H1905 H 0.37904 0.73403 0.10087 0.0
H1906 H 0.52198 0.66125 0.06214 0.0
H1907 H 0.51415 0.63191 0.08989 0.0
H1908 H 0.49789 0.63116 0.05329 0.0
H1909 H 0.39906 0.7826 0.13653 0.0
H1910 H 0.43361 0.79897 0.12932 0.0
H1911 H 0.4068 0.79409 0.09508 0.0
H1912 H 0.51912 0.79715 0.18013 0.0
H1913 H 0.49972 0.83601 0.08387 0.0
H1914 H 0.46563 0.72478 0.17058 0.0
H1915 H 0.46046 0.766 0.19063 0.0
H1916 H 0.49376 0.74618 0.19727 0.0
H1917 H 0.45092 0.76524 0.05009 0.0
H1918 H 0.47406 0.79989 0.03913 0.0
H1919 H 0.44386 0.80917 0.063 0.0
C1920 C 0.68446 0.45276 0.78983 0.0
C1921 C 0.66362 0.42707 0.79389 0.0
C1922 C 0.68068 0.47799 0.76562 0.0
C1923 C 0.65476 0.47938 0.74571 0.0
C1924 C 0.63556 0.45079 0.74713 0.0
C1925 C 0.63931 0.42689 0.77205 0.0
C1926 C 0.70651 0.49909 0.75796 0.0
C1927 C 0.61374 0.44107 0.7191 0.0
C1928 C 0.60329 0.56771 0.71422 0.0
C1929 C 0.61807 0.57488 0.67382 0.0
C1930 C 0.61747 0.53556 0.7399 0.0
C1931 C 0.64681 0.51047 0.72552 0.0
C1932 C 0.66138 0.51703 0.68464 0.0
C1933 C 0.6462 0.54848 0.65794 0.0
C1934 C 0.59842 0.52143 0.76594 0.0
C1935 C 0.68385 0.49425 0.67069 0.0
H1936 H 0.7046 0.45194 0.80392 0.0
H1937 H 0.62363 0.40623 0.77275 0.0
H1938 H 0.72126 0.48265 0.74304 0.0
H1939 H 0.7013 0.52055 0.74251 0.0
H1940 H 0.71826 0.50801 0.78186 0.0
H1941 H 0.6104 0.41298 0.7157 0.0
H1942 H 0.59272 0.45151 0.72552 0.0
H1943 H 0.62094 0.44945 0.69438 0.0
H1944 H 0.58387 0.58024 0.72142 0.0
H1945 H 0.65399 0.55114 0.63259 0.0
H1946 H 0.5834 0.54052 0.77602 0.0
H1947 H 0.61116 0.51036 0.78632 0.0
H1948 H 0.58463 0.50074 0.75367 0.0
H1949 H 0.70516 0.50512 0.67903 0.0
H1950 H 0.68254 0.4925 0.64243 0.0
H1951 H 0.68145 0.46862 0.68047 0.0
C1952 C 0.87546 0.39867 0.05069 0.0
C1953 C 0.89389 0.37129 0.05425 0.0
C1954 C 0.85106 0.39643 0.02814 0.0
C1955 C 0.84492 0.36654 0.00615 0.0
C1956 C 0.86488 0.33969 0.00784 0.0
C1957 C 0.88826 0.34206 0.03207 0.0
C1958 C 0.83223 0.42692 0.02823 0.0
C1959 C 0.86269 0.30825 0.98369 0.0
C1960 C 0.76936 0.34025 0.96566 0.0
C1961 C 0.76542 0.36313 0.94003 0.0
C1962 C 0.7946 0.34095 0.98702 0.0
C1963 C 0.81808 0.3638 0.98188 0.0
C1964 C 0.81519 0.3845 0.95361 0.0
C1965 C 0.78923 0.38416 0.93373 0.0
C1966 C 0.79588 0.31664 0.01497 0.0
C1967 C 0.83937 0.40727 0.94334 0.0
H1968 H 0.87974 0.42215 0.06621 0.0
H1969 H 0.90237 0.32076 0.03336 0.0
H1970 H 0.81003 0.42006 0.01952 0.0
H1971 H 0.83184 0.44006 0.05411 0.0
H1972 H 0.84123 0.44544 0.01116 0.0
H1973 H 0.88378 0.30344 0.9723 0.0
H1974 H 0.85733 0.28587 0.99819 0.0
H1975 H 0.84665 0.31002 0.96271 0.0
H1976 H 0.7523 0.32201 0.9696 0.0
H1977 H 0.78775 0.40058 0.91281 0.0
H1978 H 0.77424 0.30833 0.02232 0.0
H1979 H 0.80767 0.32807 0.03797 0.0
H1980 H 0.80695 0.29342 0.00564 0.0
H1981 H 0.83428 0.43419 0.95027 0.0
H1982 H 0.84148 0.40478 0.91524 0.0
H1983 H 0.86023 0.40156 0.95534 0.0
C1984 C 0.88185 0.52882 0.35223 0.0
C1985 C 0.86313 0.55152 0.33763 0.0
C1986 C 0.88881 0.49725 0.3349 0.0
C1987 C 0.8771 0.48769 0.30167 0.0
C1988 C 0.85195 0.50555 0.29308 0.0
C1989 C 0.84695 0.53819 0.30909 0.0
C1990 C 0.90634 0.47317 0.35436 0.0
C1991 C 0.82664 0.48797 0.27452 0.0
C1992 C 0.94864 0.44671 0.23263 0.0
C1993 C 0.92993 0.41144 0.21091 0.0
C1994 C 0.93067 0.47338 0.26657 0.0
C1995 C 0.89294 0.46431 0.27512 0.0
C1996 C 0.87476 0.42863 0.25114 0.0
C1997 C 0.89316 0.40277 0.21994 0.0
C1998 C 0.94849 0.49355 0.29716 0.0
C1999 C 0.84803 0.41287 0.26375 0.0
H2000 H 0.89094 0.53502 0.37728 0.0
H2001 H 0.82934 0.55278 0.3 0.0
H2002 H 0.91233 0.45026 0.33861 0.0
H2003 H 0.92574 0.48658 0.36597 0.0
H2004 H 0.89365 0.46465 0.37578 0.0
H2005 H 0.81665 0.47003 0.29148 0.0
H2006 H 0.80976 0.50596 0.26808 0.0
H2007 H 0.83267 0.47365 0.25113 0.0
H2008 H 0.94234 0.46264 0.25089 0.0
H2009 H 0.883 0.37963 0.20876 0.0
H2010 H 0.9359 0.51346 0.30972 0.0
H2011 H 0.96899 0.50359 0.28797 0.0
H2012 H 0.95459 0.47529 0.31606 0.0
H2013 H 0.85056 0.38498 0.26402 0.0
H2014 H 0.82981 0.41671 0.24601 0.0
H2015 H 0.84376 0.42304 0.29 0.0
C2016 C 0.76477 0.65189 0.43708 0.0
C2017 C 0.7708 0.62189 0.41742 0.0
C2018 C 0.74175 0.65322 0.45994 0.0
C2019 C 0.72423 0.62372 0.46391 0.0
C2020 C 0.72995 0.5936 0.44342 0.0
C2021 C 0.753 0.59308 0.42089 0.0
C2022 C 0.73528 0.68674 0.47868 0.0
C2023 C 0.71152 0.56166 0.44404 0.0
C2024 C 0.68094 0.60751 0.54374 0.0
C2025 C 0.65563 0.62498 0.53836 0.0
C2026 C 0.70339 0.60754 0.52035 0.0
C2027 C 0.70036 0.62432 0.48957 0.0
C2028 C 0.67412 0.6408 0.48344 0.0
C2029 C 0.65269 0.64185 0.50826 0.0
C2030 C 0.72984 0.58824 0.52851 0.0
C2031 C 0.66728 0.65614 0.45019 0.0
H2032 H 0.77727 0.67481 0.43347 0.0
H2033 H 0.75683 0.56987 0.40541 0.0
H2034 H 0.73239 0.68343 0.50614 0.0
H2035 H 0.75195 0.70661 0.47553 0.0
H2036 H 0.71504 0.69638 0.46843 0.0
H2037 H 0.72287 0.543 0.45897 0.0
H2038 H 0.69037 0.56629 0.45521 0.0
H2039 H 0.70805 0.54967 0.41782 0.0
H2040 H 0.68337 0.59385 0.56659 0.0
H2041 H 0.63295 0.65466 0.50324 0.0
H2042 H 0.74916 0.59879 0.51688 0.0
H2043 H 0.72667 0.56132 0.51863 0.0
H2044 H 0.73365 0.58816 0.55648 0.0
H2045 H 0.66461 0.68397 0.455 0.0
H2046 H 0.6465 0.64541 0.43955 0.0
H2047 H 0.68366 0.65162 0.4307 0.0
C2048 C 0.66942 0.5465 0.82631 0.0
C2049 C 0.64283 0.54417 0.84163 0.0
C2050 C 0.67296 0.56632 0.79808 0.0
C2051 C 0.64882 0.58058 0.78271 0.0
C2052 C 0.62393 0.58436 0.80272 0.0
C2053 C 0.62125 0.56564 0.83172 0.0
C2054 C 0.70262 0.57772 0.78894 0.0
C2055 C 0.5996 0.6071 0.79424 0.0
C2056 C 0.66487 0.64059 0.7145 0.0
C2057 C 0.6785 0.61885 0.69138 0.0
C2058 C 0.65489 0.62842 0.74457 0.0
C2059 C 0.65062 0.59238 0.74687 0.0
C2060 C 0.65295 0.5681 0.71526 0.0
C2061 C 0.67824 0.58398 0.69843 0.0
C2062 C 0.65073 0.65479 0.77384 0.0
C2063 C 0.61209 0.51744 0.68337 0.0
H2064 H 0.68755 0.53403 0.83714 0.0
H2065 H 0.60177 0.56695 0.84601 0.0
H2066 H 0.71954 0.56423 0.80244 0.0
H2067 H 0.70572 0.57512 0.76114 0.0
H2068 H 0.70539 0.60531 0.79658 0.0
H2069 H 0.60124 0.63046 0.81173 0.0
H2070 H 0.59964 0.61479 0.76782 0.0
H2071 H 0.5786 0.59488 0.79898 0.0
H2072 H 0.66508 0.66766 0.71112 0.0
H2073 H 0.69264 0.56895 0.68279 0.0
H2074 H 0.66506 0.67738 0.77215 0.0
H2075 H 0.65468 0.64498 0.7992 0.0
H2076 H 0.6287 0.66433 0.77229 0.0
H2077 H 0.61798 0.49785 0.66249 0.0
H2078 H 0.59245 0.52502 0.66868 0.0
H2079 H 0.59869 0.49969 0.69762 0.0
C2080 C 0.76073 0.37944 0.06189 0.0
C2081 C 0.77732 0.40438 0.08082 0.0
C2082 C 0.74047 0.3884 0.03716 0.0
C2083 C 0.73736 0.42318 0.03041 0.0
C2084 C 0.75361 0.44849 0.05038 0.0
C2085 C 0.77322 0.43873 0.07529 0.0
C2086 C 0.72087 0.3608 0.02035 0.0
C2087 C 0.75009 0.4861 0.04687 0.0
C2088 C 0.70513 0.4483 0.94546 0.0
C2089 C 0.67594 0.44499 0.95112 0.0
C2090 C 0.72543 0.44286 0.97154 0.0
C2091 C 0.71622 0.43279 0.00364 0.0
C2092 C 0.68653 0.43141 0.00978 0.0
C2093 C 0.66692 0.43715 0.98342 0.0
C2094 C 0.75645 0.45034 0.96512 0.0
C2095 C 0.67472 0.42517 0.04422 0.0
H2096 H 0.76245 0.35309 0.0678 0.0
H2097 H 0.78534 0.45823 0.09076 0.0
H2098 H 0.7166 0.36486 0.99309 0.0
H2099 H 0.72948 0.33508 0.02268 0.0
H2100 H 0.70014 0.36116 0.03326 0.0
H2101 H 0.74995 0.49994 0.07244 0.0
H2102 H 0.76877 0.49618 0.03359 0.0
H2103 H 0.73028 0.492 0.03267 0.0
H2104 H 0.71207 0.45616 0.92107 0.0
H2105 H 0.64424 0.43566 0.98828 0.0
H2106 H 0.7609 0.44729 0.93754 0.0
H2107 H 0.77083 0.43423 0.97945 0.0
H2108 H 0.76155 0.4773 0.97356 0.0
H2109 H 0.66204 0.40087 0.04234 0.0
H2110 H 0.65973 0.44559 0.05178 0.0
H2111 H 0.6913 0.42432 0.06473 0.0
C2112 C 0.89854 0.57807 0.27501 0.0
C2113 C 0.92661 0.57485 0.28684 0.0
C2114 C 0.88911 0.56014 0.24431 0.0
C2115 C 0.90399 0.53043 0.2331 0.0
C2116 C 0.9341 0.53636 0.23611 0.0
C2117 C 0.9453 0.55822 0.26396 0.0
C2118 C 0.87857 0.58341 0.21794 0.0
C2119 C 0.9542 0.52187 0.21005 0.0
C2120 C 0.85134 0.46923 0.17952 0.0
C2121 C 0.8713 0.44725 0.1663 0.0
C2122 C 0.8604 0.49678 0.20219 0.0
C2123 C 0.88883 0.49611 0.21862 0.0
C2124 C 0.90257 0.46107 0.21698 0.0
C2125 C 0.89902 0.45289 0.17964 0.0
C2126 C 0.83802 0.52353 0.20759 0.0
C2127 C 0.9205 0.41615 0.2686 0.0
H2128 H 0.88554 0.59764 0.28681 0.0
H2129 H 0.96815 0.56011 0.26911 0.0
H2130 H 0.87947 0.57135 0.19166 0.0
H2131 H 0.8567 0.59189 0.22375 0.0
H2132 H 0.89229 0.60693 0.21861 0.0
H2133 H 0.96346 0.54315 0.19648 0.0
H2134 H 0.97244 0.50986 0.22268 0.0
H2135 H 0.94343 0.50375 0.19076 0.0
H2136 H 0.82925 0.46606 0.17056 0.0
H2137 H 0.91533 0.44215 0.16381 0.0
H2138 H 0.83954 0.53755 0.23274 0.0
H2139 H 0.81613 0.51182 0.20567 0.0
H2140 H 0.83851 0.5409 0.18664 0.0
H2141 H 0.94155 0.41969 0.28336 0.0
H2142 H 0.92387 0.38797 0.26299 0.0
H2143 H 0.90786 0.41245 0.29216 0.0
C2144 C 0.89724 0.64024 0.47655 0.0
C2145 C 0.89498 0.61363 0.45074 0.0
C2146 C 0.87572 0.64561 0.50122 0.0
C2147 C 0.84963 0.62573 0.49898 0.0
C2148 C 0.84734 0.59894 0.47271 0.0
C2149 C 0.87029 0.5923 0.45055 0.0
C2150 C 0.88211 0.67215 0.53008 0.0
C2151 C 0.82065 0.5767 0.46738 0.0
C2152 C 0.79586 0.61406 0.57138 0.0
C2153 C 0.77804 0.64229 0.57003 0.0
C2154 C 0.81904 0.60866 0.54924 0.0
C2155 C 0.82523 0.63192 0.52408 0.0
C2156 C 0.80752 0.66084 0.52285 0.0
C2157 C 0.78442 0.66562 0.54558 0.0
C2158 C 0.8373 0.57827 0.55426 0.0
C2159 C 0.81397 0.68792 0.49871 0.0
H2160 H 0.9163 0.65654 0.47813 0.0
H2161 H 0.86827 0.57061 0.43206 0.0
H2162 H 0.86598 0.67256 0.55021 0.0
H2163 H 0.90328 0.66746 0.54198 0.0
H2164 H 0.8837 0.69765 0.51979 0.0
H2165 H 0.81697 0.56881 0.43993 0.0
H2166 H 0.82344 0.55316 0.48087 0.0
H2167 H 0.80132 0.58956 0.4769 0.0
H2168 H 0.79214 0.59631 0.59077 0.0
H2169 H 0.77234 0.6887 0.54545 0.0
H2170 H 0.8588 0.58078 0.54339 0.0
H2171 H 0.82627 0.5551 0.54213 0.0
H2172 H 0.84003 0.57429 0.58182 0.0
H2173 H 0.83316 0.70302 0.50818 0.0
H2174 H 0.79644 0.70605 0.49688 0.0
H2175 H 0.81856 0.67634 0.47299 0.0
C2176 C 0.52285 0.71112 0.65525 0.0
C2177 C 0.51553 0.68057 0.6359 0.0
C2178 C 0.50248 0.73717 0.66146 0.0
C2179 C 0.4738 0.73299 0.64838 0.0
C2180 C 0.46628 0.70169 0.62981 0.0
C2181 C 0.48695 0.67638 0.62379 0.0
C2182 C 0.51155 0.76909 0.68257 0.0
C2183 C 0.43586 0.6942 0.61738 0.0
C2184 C 0.4149 0.7911 0.68753 0.0
C2185 C 0.40813 0.812 0.66103 0.0
C2186 C 0.43554 0.76517 0.6838 0.0
C2187 C 0.45167 0.76103 0.65356 0.0
C2188 C 0.44558 0.78311 0.6273 0.0
C2189 C 0.42354 0.80722 0.63088 0.0
C2190 C 0.4397 0.74234 0.71264 0.0
C2191 C 0.46264 0.7816 0.59526 0.0
H2192 H 0.54439 0.71456 0.66587 0.0
H2193 H 0.4805 0.65261 0.60981 0.0
H2194 H 0.5073 0.79163 0.66802 0.0
H2195 H 0.53445 0.76911 0.69046 0.0
H2196 H 0.49877 0.77154 0.70585 0.0
H2197 H 0.43274 0.66784 0.60568 0.0
H2198 H 0.42118 0.69783 0.63896 0.0
H2199 H 0.42965 0.7122 0.59823 0.0
H2200 H 0.40342 0.79434 0.71105 0.0
H2201 H 0.419 0.82324 0.61026 0.0
H2202 H 0.45532 0.7547 0.73157 0.0
H2203 H 0.44775 0.71706 0.70386 0.0
H2204 H 0.41936 0.73849 0.72595 0.0
H2205 H 0.45874 0.80366 0.57981 0.0
H2206 H 0.45687 0.75797 0.57937 0.0
H2207 H 0.48583 0.78094 0.60174 0.0
C2208 C 0.40329 0.58102 0.23106 0.0
C2209 C 0.36679 0.59085 0.22753 0.0
C2210 C 0.41723 0.56125 0.26635 0.0
C2211 C 0.39436 0.54929 0.2995 0.0
C2212 C 0.3559 0.55769 0.29582 0.0
C2213 C 0.34269 0.57812 0.25905 0.0
C2214 C 0.44893 0.56379 0.27211 0.0
C2215 C 0.33431 0.54988 0.32177 0.0
C2216 C 0.4246 0.44931 0.32822 0.0
C2217 C 0.41163 0.45078 0.37023 0.0
C2218 C 0.42281 0.48566 0.30356 0.0
C2219 C 0.40516 0.52426 0.32168 0.0
C2220 C 0.39122 0.52406 0.36345 0.0
C2221 C 0.3948 0.48794 0.38741 0.0
C2222 C 0.44218 0.48468 0.27371 0.0
C2223 C 0.38119 0.55603 0.38145 0.0
H2224 H 0.41787 0.5902 0.21269 0.0
H2225 H 0.32034 0.58416 0.25688 0.0
H2226 H 0.45552 0.55351 0.2965 0.0
H2227 H 0.45979 0.55098 0.25023 0.0
H2228 H 0.45571 0.59104 0.27301 0.0
H2229 H 0.31301 0.54526 0.30906 0.0
H2230 H 0.33968 0.52771 0.33605 0.0
H2231 H 0.33257 0.57251 0.3399 0.0
H2232 H 0.43605 0.42727 0.31872 0.0
H2233 H 0.38778 0.489 0.41343 0.0
H2234 H 0.43477 0.49965 0.25283 0.0
H2235 H 0.44493 0.45796 0.26375 0.0
H2236 H 0.46362 0.49461 0.28266 0.0
H2237 H 0.39537 0.56249 0.40412 0.0
H2238 H 0.35943 0.55166 0.391 0.0
H2239 H 0.38172 0.57757 0.36476 0.0
C2240 C 0.23425 0.66882 0.09523 0.0
C2241 C 0.25969 0.65035 0.09285 0.0
C2242 C 0.20932 0.65997 0.07471 0.0
C2243 C 0.20967 0.63323 0.04836 0.0
C2244 C 0.23469 0.61299 0.04758 0.0
C2245 C 0.2589 0.62141 0.06982 0.0
C2246 C 0.18246 0.67871 0.08331 0.0
C2247 C 0.23596 0.58167 0.02369 0.0
C2248 C 0.14568 0.58771 0.99631 0.0
C2249 C 0.14004 0.60878 0.9693 0.0
C2250 C 0.16648 0.59609 0.02276 0.0
C2251 C 0.18426 0.62593 0.02239 0.0
C2252 C 0.17743 0.64869 0.99663 0.0
C2253 C 0.15562 0.64006 0.97085 0.0
C2254 C 0.16774 0.57304 0.05181 0.0
C2255 C 0.19319 0.68251 0.99621 0.0
H2256 H 0.23356 0.69039 0.11385 0.0
H2257 H 0.27774 0.60604 0.06807 0.0
H2258 H 0.16365 0.66998 0.06706 0.0
H2259 H 0.1773 0.67523 0.11025 0.0
H2260 H 0.18622 0.70646 0.08139 0.0
H2261 H 0.22255 0.56104 0.03318 0.0
H2262 H 0.22776 0.58672 0.9979 0.0
H2263 H 0.25792 0.57207 0.02248 0.0
H2264 H 0.13329 0.56421 0.99737 0.0
H2265 H 0.15113 0.65773 0.95164 0.0
H2266 H 0.1829 0.58217 0.07274 0.0
H2267 H 0.17348 0.54706 0.04199 0.0
H2268 H 0.14616 0.57066 0.06261 0.0
H2269 H 0.19212 0.69719 0.02102 0.0
H2270 H 0.18397 0.69873 0.977 0.0
H2271 H 0.21613 0.67828 0.9914 0.0
C2272 C 0.09217 0.54248 0.77543 0.0
C2273 C 0.10983 0.55735 0.81284 0.0
C2274 C 0.10832 0.51566 0.74528 0.0
C2275 C 0.14297 0.49943 0.74751 0.0
C2276 C 0.16802 0.51022 0.7781 0.0
C2277 C 0.16117 0.53423 0.8133 0.0
C2278 C 0.08939 0.50733 0.71424 0.0
C2279 C 0.19893 0.51211 0.76861 0.0
C2280 C 0.16401 0.40699 0.7179 0.0
C2281 C 0.15069 0.40266 0.68593 0.0
C2282 C 0.166 0.43869 0.73677 0.0
C2283 C 0.15153 0.46801 0.72427 0.0
C2284 C 0.14408 0.46469 0.6889 0.0
C2285 C 0.14275 0.43228 0.67109 0.0
C2286 C 0.18618 0.43789 0.7676 0.0
C2287 C 0.14154 0.49488 0.66762 0.0
H2288 H 0.07083 0.55113 0.77039 0.0
H2289 H 0.17953 0.53926 0.83095 0.0
H2290 H 0.09268 0.48146 0.70296 0.0
H2291 H 0.06655 0.50984 0.72051 0.0
H2292 H 0.09364 0.52581 0.69493 0.0
H2293 H 0.21263 0.50119 0.7883 0.0
H2294 H 0.20253 0.50017 0.7428 0.0
H2295 H 0.2057 0.53932 0.76853 0.0
H2296 H 0.17364 0.38506 0.72832 0.0
H2297 H 0.13691 0.43082 0.64504 0.0
H2298 H 0.18043 0.4536 0.79014 0.0
H2299 H 0.20801 0.44513 0.76003 0.0
H2300 H 0.18835 0.4119 0.77651 0.0
H2301 H 0.12131 0.49299 0.65221 0.0
H2302 H 0.1591 0.49448 0.64919 0.0
H2303 H 0.14302 0.51943 0.68266 0.0
C2304 C 0.25459 0.3534 0.59759 0.0
C2305 C 0.23252 0.33041 0.58573 0.0
C2306 C 0.27901 0.35895 0.57836 0.0
C2307 C 0.28146 0.34177 0.54567 0.0
C2308 C 0.26051 0.31623 0.53492 0.0
C2309 C 0.23641 0.31084 0.55507 0.0
C2310 C 0.30195 0.38331 0.59385 0.0
C2311 C 0.26396 0.29368 0.50279 0.0
C2312 C 0.32319 0.39573 0.48562 0.0
C2313 C 0.34765 0.37681 0.479 0.0
C2314 C 0.30163 0.3843 0.50659 0.0
C2315 C 0.30418 0.35278 0.52179 0.0
C2316 C 0.32876 0.33316 0.51475 0.0
C2317 C 0.34984 0.34511 0.493 0.0
C2318 C 0.27693 0.40731 0.51382 0.0
C2319 C 0.33421 0.30043 0.5313 0.0
H2320 H 0.25272 0.36769 0.62195 0.0
H2321 H 0.22056 0.29133 0.54671 0.0
H2322 H 0.32196 0.38302 0.57939 0.0
H2323 H 0.29372 0.40953 0.59567 0.0
H2324 H 0.30715 0.37686 0.6203 0.0
H2325 H 0.24362 0.28068 0.49382 0.0
H2326 H 0.27273 0.30811 0.48203 0.0
H2327 H 0.27917 0.27349 0.50816 0.0
H2328 H 0.32131 0.42042 0.47527 0.0
H2329 H 0.36894 0.33057 0.48882 0.0
H2330 H 0.28064 0.42161 0.53884 0.0
H2331 H 0.25672 0.39234 0.51481 0.0
H2332 H 0.27459 0.42631 0.49444 0.0
H2333 H 0.35666 0.30036 0.54113 0.0
H2334 H 0.33156 0.27878 0.51177 0.0
H2335 H 0.31986 0.29608 0.55262 0.0
C2336 C 0.36051 0.44969 0.34758 0.0
C2337 C 0.33393 0.43832 0.33659 0.0
C2338 C 0.38024 0.47449 0.32942 0.0
C2339 C 0.36456 0.48407 0.29206 0.0
C2340 C 0.33548 0.47198 0.286 0.0
C2341 C 0.32165 0.44983 0.30718 0.0
C2342 C 0.43583 0.50044 0.35899 0.0
C2343 C 0.318 0.48137 0.25512 0.0
C2344 C 0.3638 0.52814 0.21048 0.0
C2345 C 0.37919 0.50824 0.18786 0.0
C2346 C 0.37441 0.53534 0.24593 0.0
C2347 C 0.37733 0.49872 0.25844 0.0
C2348 C 0.38589 0.472 0.2338 0.0
C2349 C 0.39116 0.47958 0.20005 0.0
C2350 C 0.38485 0.60237 0.28223 0.0
C2351 C 0.38809 0.43508 0.24178 0.0
H2352 H 0.37415 0.46497 0.33841 0.0
H2353 H 0.30015 0.44058 0.30014 0.0
H2354 H 0.45043 0.51779 0.3451 0.0
H2355 H 0.43797 0.51666 0.38386 0.0
H2356 H 0.45354 0.48311 0.36639 0.0
H2357 H 0.29506 0.47375 0.25624 0.0
H2358 H 0.31901 0.50921 0.25282 0.0
H2359 H 0.32639 0.46863 0.23156 0.0
H2360 H 0.34745 0.54232 0.19819 0.0
H2361 H 0.40183 0.46181 0.1827 0.0
H2362 H 0.40177 0.60707 0.30322 0.0
H2363 H 0.3678 0.61563 0.29767 0.0
H2364 H 0.391 0.62599 0.269 0.0
H2365 H 0.40491 0.42223 0.22664 0.0
H2366 H 0.36745 0.4217 0.23456 0.0
H2367 H 0.39253 0.43167 0.26902 0.0
C2368 C 0.35828 0.5763 0.00747 0.0
C2369 C 0.35461 0.58721 0.04185 0.0
C2370 C 0.34438 0.59217 0.9809 0.0
C2371 C 0.32535 0.61883 0.98878 0.0
C2372 C 0.32508 0.63304 0.0229 0.0
C2373 C 0.33908 0.61658 0.04903 0.0
C2374 C 0.35029 0.57987 0.94469 0.0
C2375 C 0.31029 0.66586 0.03194 0.0
C2376 C 0.27461 0.67116 0.93705 0.0
C2377 C 0.25122 0.64841 0.93193 0.0
C2378 C 0.30047 0.66079 0.95178 0.0
C2379 C 0.30221 0.62765 0.96387 0.0
C2380 C 0.27941 0.60376 0.95527 0.0
C2381 C 0.25434 0.61457 0.93951 0.0
C2382 C 0.32617 0.68462 0.95149 0.0
C2383 C 0.28162 0.56621 0.96041 0.0
H2384 H 0.37167 0.55487 1.00108 0.0
H2385 H 0.33764 0.62658 0.07507 0.0
H2386 H 0.34477 0.55229 0.94062 0.0
H2387 H 0.33866 0.59405 0.92552 0.0
H2388 H 0.37355 0.58269 0.94043 0.0
H2389 H 0.31913 0.68647 0.01743 0.0
H2390 H 0.28707 0.66315 0.02573 0.0
H2391 H 0.31406 0.67468 0.05891 0.0
H2392 H 0.27318 0.69653 0.92814 0.0
H2393 H 0.23699 0.59633 0.93289 0.0
H2394 H 0.34537 0.67496 0.96438 0.0
H2395 H 0.32099 0.71005 0.96337 0.0
H2396 H 0.33146 0.68839 0.92465 0.0
H2397 H 0.29326 0.56142 0.9844 0.0
H2398 H 0.29326 0.55397 0.93889 0.0
H2399 H 0.26029 0.55321 0.96025 0.0
C2400 C 0.06535 0.44791 0.75204 0.0
C2401 C 0.08335 0.42326 0.73707 0.0
C2402 C 0.07476 0.46943 0.78085 0.0
C2403 C 0.10419 0.46994 0.79133 0.0
C2404 C 0.11671 0.43753 0.78577 0.0
C2405 C 0.1067 0.41478 0.75772 0.0
C2406 C 0.05305 0.48983 0.80032 0.0
C2407 C 0.13427 0.42345 0.8137 0.0
C2408 C 0.13854 0.55221 0.86444 0.0
C2409 C 0.14978 0.58702 0.84349 0.0
C2410 C 0.12489 0.51362 0.847 0.0
C2411 C 0.12174 0.50452 0.80297 0.0
C2412 C 0.14019 0.55835 0.7719 0.0
C2413 C 0.15078 0.59033 0.80081 0.0
C2414 C 0.11668 0.48727 0.8709 0.0
C2415 C 0.14495 0.56896 0.73533 0.0
H2416 H 0.0443 0.45114 0.74083 0.0
H2417 H 0.11712 0.39092 0.75207 0.0
H2418 H 0.04033 0.5049 0.78286 0.0
H2419 H 0.03773 0.47195 0.81135 0.0
H2420 H 0.06288 0.50647 0.82157 0.0
H2421 H 0.14885 0.443 0.82659 0.0
H2422 H 0.11956 0.41495 0.83327 0.0
H2423 H 0.14617 0.40081 0.80437 0.0
H2424 H 0.14172 0.55435 0.89162 0.0
H2425 H 0.15874 0.61359 0.791 0.0
H2426 H 0.11235 0.499 0.89652 0.0
H2427 H 0.13489 0.4704 0.87447 0.0
H2428 H 0.0979 0.47174 0.86072 0.0
H2429 H 0.15216 0.59601 0.73565 0.0
H2430 H 0.12547 0.56729 0.71877 0.0
H2431 H 0.16244 0.55448 0.72336 0.0
C2432 C 0.11657 0.38793 0.53849 0.0
C2433 C 0.12513 0.39891 0.57211 0.0
C2434 C 0.13648 0.38484 0.5117 0.0
C2435 C 0.16623 0.39177 0.51847 0.0
C2436 C 0.17489 0.40218 0.55249 0.0
C2437 C 0.15446 0.40671 0.5781 0.0
C2438 C 0.12492 0.37485 0.4762 0.0
C2439 C 0.20599 0.4089 0.56219 0.0
C2440 C 0.22406 0.35357 0.45975 0.0
C2441 C 0.23656 0.38246 0.44631 0.0
C2442 C 0.20026 0.35598 0.4814 0.0
C2443 C 0.18866 0.38814 0.49092 0.0
C2444 C 0.20003 0.41706 0.47562 0.0
C2445 C 0.22349 0.41386 0.45353 0.0
C2446 C 0.18664 0.32394 0.49316 0.0
C2447 C 0.18705 0.45148 0.48208 0.0
H2448 H 0.09402 0.38312 0.53269 0.0
H2449 H 0.16205 0.41662 0.60294 0.0
H2450 H 0.14061 0.37898 0.45618 0.0
H2451 H 0.11821 0.34754 0.47459 0.0
H2452 H 0.10557 0.38955 0.47083 0.0
H2453 H 0.20987 0.41077 0.59024 0.0
H2454 H 0.219 0.38823 0.55082 0.0
H2455 H 0.21351 0.43306 0.55217 0.0
H2456 H 0.23238 0.32882 0.45244 0.0
H2457 H 0.23203 0.43625 0.4424 0.0
H2458 H 0.16498 0.32021 0.48126 0.0
H2459 H 0.18405 0.32621 0.52116 0.0
H2460 H 0.1989 0.30099 0.48593 0.0
H2461 H 0.19446 0.46985 0.4638 0.0
H2462 H 0.19299 0.46206 0.5082 0.0
H2463 H 0.16338 0.44913 0.48019 0.0
C2464 C 0.50501 0.31596 0.4431 0.0
C2465 C 0.4942 0.32787 0.41272 0.0
C2466 C 0.53134 0.29955 0.4443 0.0
C2467 C 0.54581 0.2916 0.41363 0.0
C2468 C 0.53488 0.304 0.38286 0.0
C2469 C 0.51006 0.32344 0.38328 0.0
C2470 C 0.54385 0.29301 0.47888 0.0
C2471 C 0.54933 0.2969 0.34931 0.0
C2472 C 0.62007 0.26329 0.3917 0.0
C2473 C 0.6158 0.22786 0.38786 0.0
C2474 C 0.59877 0.28456 0.40485 0.0
C2475 C 0.57192 0.27014 0.4127 0.0
C2476 C 0.56921 0.23421 0.41373 0.0
C2477 C 0.59117 0.21341 0.4009 0.0
C2478 C 0.6051 0.32242 0.40895 0.0
C2479 C 0.54267 0.21768 0.42689 0.0
H2480 H 0.49366 0.32125 0.46647 0.0
H2481 H 0.50248 0.33428 0.36023 0.0
H2482 H 0.56505 0.28114 0.47784 0.0
H2483 H 0.54616 0.31753 0.49457 0.0
H2484 H 0.52882 0.2766 0.49224 0.0
H2485 H 0.56954 0.31205 0.34916 0.0
H2486 H 0.55454 0.26957 0.34556 0.0
H2487 H 0.53603 0.30393 0.32726 0.0
H2488 H 0.63961 0.27461 0.3828 0.0
H2489 H 0.58831 0.18605 0.3991 0.0
H2490 H 0.58773 0.33693 0.42129 0.0
H2491 H 0.60919 0.33223 0.38372 0.0
H2492 H 0.62502 0.32731 0.42464 0.0
H2493 H 0.5384 0.22838 0.45289 0.0
H2494 H 0.54476 0.18983 0.4285 0.0
H2495 H 0.5239 0.22278 0.41039 0.0
loop_
_geom_bond_atom_site_label_1
_geom_bond_atom_site_label_2
_geom_bond_distance
_geom_bond_site_symmetry_2
_ccdc_geom_bond_type
Co0 O1 2.216 . S
Co0 O2 2.091 . S
Co0 O4 2.004 . S
Co0 O10 2.021 . S
Co0 O12 2.137 . S
Co0 O13 2.244 . S
O1 Co0 2.216 . S
O1 C8 1.247 . S
O2 Co0 2.091 . S
O2 C8 1.261 . S
C3 O12 1.247 . S
C3 O13 1.272 . S
O4 Co0 2.004 . S
O4 C9 1.259 . S
Co5 O6 2.061 . S
Co5 O11 2.052 . S
Co5 O13 2.135 . S
O6 Co5 2.061 . S
O6 C9 1.235 . S
C7 O10 1.238 . S
C7 O11 1.241 . S
C8 O1 1.247 . S
C8 O2 1.261 . S
C9 O4 1.259 . S
C9 O6 1.235 . S
O10 Co0 2.021 . S
O10 C7 1.238 . S
O11 Co5 2.052 . S
O11 C7 1.241 . S
O12 Co0 2.137 . S
O12 C3 1.247 . S
O13 Co0 2.244 . S
O13 C3 1.272 . S
O13 Co5 2.135 . S
Co14 O15 2.216 . S
Co14 O16 2.091 . S
Co14 O18 2.004 . S
Co14 O24 2.021 . S
Co14 O26 2.137 . S
Co14 O27 2.244 . S
O15 Co14 2.216 . S
O15 C22 1.247 . S
O16 Co14 2.091 . S
O16 C22 1.261 . S
C17 O26 1.247 . S
C17 O27 1.272 . S
O18 Co14 2.004 . S
O18 C23 1.259 . S
Co19 O20 2.061 . S
Co19 O25 2.052 . S
Co19 O27 2.135 . S
O20 Co19 2.061 . S
O20 C23 1.235 . S
C21 O24 1.238 . S
C21 O25 1.241 . S
C22 O15 1.247 . S
C22 O16 1.261 . S
C23 O18 1.259 . S
C23 O20 1.235 . S
O24 Co14 2.021 . S
O24 C21 1.238 . S
O25 Co19 2.052 . S
O25 C21 1.241 . S
O26 Co14 2.137 . S
O26 C17 1.247 . S
O27 Co14 2.244 . S
O27 C17 1.272 . S
O27 Co19 2.135 . S
Co28 O29 2.216 . S
Co28 O30 2.091 . S
Co28 O32 2.004 . S
Co28 O38 2.021 . S
Co28 O40 2.137 . S
Co28 O41 2.244 . S
O29 Co28 2.216 . S
O29 C36 1.247 . S
O30 Co28 2.091 . S
O30 C36 1.261 . S
C31 O40 1.247 . S
C31 O41 1.272 . S
O32 Co28 2.004 . S
O32 C37 1.259 . S
Co33 O34 2.061 . S
Co33 O39 2.052 . S
Co33 O41 2.135 . S
O34 Co33 2.061 . S
O34 C37 1.235 . S
C35 O38 1.238 . S
C35 O39 1.241 . S
C36 O29 1.247 . S
C36 O30 1.261 . S
C37 O32 1.259 . S
C37 O34 1.235 . S
O38 Co28 2.021 . S
O38 C35 1.238 . S
O39 Co33 2.052 . S
O39 C35 1.241 . S
O40 Co28 2.137 . S
O40 C31 1.247 . S
O41 Co28 2.244 . S
O41 C31 1.272 . S
O41 Co33 2.135 . S
Co42 O43 2.216 . S
Co42 O44 2.091 . S
Co42 O46 2.004 . S
Co42 O52 2.021 . S
Co42 O54 2.137 . S
Co42 O55 2.244 . S
O43 Co42 2.216 . S
O43 C50 1.247 . S
O44 Co42 2.091 . S
O44 C50 1.261 . S
C45 O54 1.247 . S
C45 O55 1.272 . S
O46 Co42 2.004 . S
O46 C51 1.259 . S
Co47 O48 2.061 . S
Co47 O53 2.052 . S
Co47 O55 2.135 . S
O48 Co47 2.061 . S
O48 C51 1.235 . S
C49 O52 1.238 . S
C49 O53 1.241 . S
C50 O43 1.247 . S
C50 O44 1.261 . S
C51 O46 1.259 . S
C51 O48 1.235 . S
O52 Co42 2.021 . S
O52 C49 1.238 . S
O53 Co47 2.052 . S
O53 C49 1.241 . S
O54 Co42 2.137 . S
O54 C45 1.247 . S
O55 Co42 2.244 . S
O55 C45 1.272 . S
O55 Co47 2.135 . S
Co56 O57 2.216 . S
Co56 O58 2.091 . S
Co56 O60 2.004 . S
Co56 O66 2.021 . S
Co56 O68 2.137 . S
Co56 O69 2.244 . S
O57 Co56 2.216 . S
O57 C64 1.247 . S
O58 Co56 2.091 . S
O58 C64 1.261 . S
C59 O68 1.247 . S
C59 O69 1.272 . S
O60 Co56 2.004 . S
O60 C65 1.259 . S
Co61 O62 2.061 . S
Co61 O67 2.052 . S
Co61 O69 2.135 . S
O62 Co61 2.061 . S
O62 C65 1.235 . S
C63 O66 1.238 . S
C63 O67 1.241 . S
C64 O57 1.247 . S
C64 O58 1.261 . S
C65 O60 1.259 . S
C65 O62 1.235 . S
O66 Co56 2.021 . S
O66 C63 1.238 . S
O67 Co61 2.052 . S
O67 C63 1.241 . S
O68 Co56 2.137 . S
O68 C59 1.247 . S
O69 Co56 2.244 . S
O69 C59 1.272 . S
O69 Co61 2.135 . S
Co70 O71 2.216 . S
Co70 O72 2.091 . S
Co70 O74 2.004 . S
Co70 O80 2.021 . S
Co70 O82 2.137 . S
Co70 O83 2.244 . S
O71 Co70 2.216 . S
O71 C78 1.247 . S
O72 Co70 2.091 . S
O72 C78 1.261 . S
C73 O82 1.247 . S
C73 O83 1.272 . S
O74 Co70 2.004 . S
O74 C79 1.259 . S
Co75 O76 2.061 . S
Co75 O81 2.052 . S
Co75 O83 2.135 . S
O76 Co75 2.061 . S
O76 C79 1.235 . S
C77 O80 1.238 . S
C77 O81 1.241 . S
C78 O71 1.247 . S
C78 O72 1.261 . S
C79 O74 1.259 . S
C79 O76 1.235 . S
O80 Co70 2.021 . S
O80 C77 1.238 . S
O81 Co75 2.052 . S
O81 C77 1.241 . S
O82 Co70 2.137 . S
O82 C73 1.247 . S
O83 Co70 2.244 . S
O83 C73 1.272 . S
O83 Co75 2.135 . S
Co84 O85 2.216 . S
Co84 O86 2.091 . S
Co84 O88 2.004 . S
Co84 O94 2.021 . S
Co84 O96 2.137 . S
Co84 O97 2.244 . S
O85 Co84 2.216 . S
O85 C92 1.247 . S
O86 Co84 2.091 . S
O86 C92 1.261 . S
C87 O96 1.247 . S
C87 O97 1.272 . S
O88 Co84 2.004 . S
O88 C93 1.259 . S
Co89 O90 2.061 . S
Co89 O95 2.052 . S
Co89 O97 2.135 . S
O90 Co89 2.061 . S
O90 C93 1.235 . S
C91 O94 1.238 . S
C91 O95 1.241 . S
C92 O85 1.247 . S
C92 O86 1.261 . S
C93 O88 1.259 . S
C93 O90 1.235 . S
O94 Co84 2.021 . S
O94 C91 1.238 . S
O95 Co89 2.052 . S
O95 C91 1.241 . S
O96 Co84 2.137 . S
O96 C87 1.247 . S
O97 Co84 2.244 . S
O97 C87 1.272 . S
O97 Co89 2.135 . S
Co98 O99 2.216 . S
Co98 O100 2.091 . S
Co98 O102 2.004 . S
Co98 O108 2.021 . S
Co98 O110 2.137 . S
Co98 O111 2.244 . S
O99 Co98 2.216 . S
O99 C106 1.247 . S
O100 Co98 2.091 . S
O100 C106 1.261 . S
C101 O110 1.247 . S
C101 O111 1.272 . S
O102 Co98 2.004 . S
O102 C107 1.259 . S
Co103 O104 2.061 . S
Co103 O109 2.052 . S
Co103 O111 2.135 . S
O104 Co103 2.061 . S
O104 C107 1.235 . S
C105 O108 1.238 . S
C105 O109 1.241 . S
C106 O99 1.247 . S
C106 O100 1.261 . S
C107 O102 1.259 . S
C107 O104 1.235 . S
O108 Co98 2.021 . S
O108 C105 1.238 . S
O109 Co103 2.052 . S
O109 C105 1.241 . S
O110 Co98 2.137 . S
O110 C101 1.247 . S
O111 Co98 2.244 . S
O111 C101 1.272 . S
O111 Co103 2.135 . S
Co112 O113 2.216 . S
Co112 O114 2.091 . S
Co112 O116 2.004 . S
Co112 O122 2.021 . S
Co112 O124 2.137 . S
Co112 O125 2.244 . S
O113 Co112 2.216 . S
O113 C120 1.247 . S
O114 Co112 2.091 . S
O114 C120 1.261 . S
C115 O124 1.247 . S
C115 O125 1.272 . S
O116 Co112 2.004 . S
O116 C121 1.259 . S
Co117 O118 2.061 . S
Co117 O123 2.052 . S
Co117 O125 2.135 . S
O118 Co117 2.061 . S
O118 C121 1.235 . S
C119 O122 1.238 . S
C119 O123 1.241 . S
C120 O113 1.247 . S
C120 O114 1.261 . S
C121 O116 1.259 . S
C121 O118 1.235 . S
O122 Co112 2.021 . S
O122 C119 1.238 . S
O123 Co117 2.052 . S
O123 C119 1.241 . S
O124 Co112 2.137 . S
O124 C115 1.247 . S
O125 Co112 2.244 . S
O125 C115 1.272 . S
O125 Co117 2.135 . S
Co126 O127 2.216 . S
Co126 O128 2.091 . S
Co126 O130 2.004 . S
Co126 O136 2.021 . S
Co126 O138 2.137 . S
Co126 O139 2.244 . S
O127 Co126 2.216 . S
O127 C134 1.247 . S
O128 Co126 2.091 . S
O128 C134 1.261 . S
C129 O138 1.247 . S
C129 O139 1.272 . S
O130 Co126 2.004 . S
O130 C135 1.259 . S
Co131 O132 2.061 . S
Co131 O137 2.052 . S
Co131 O139 2.135 . S
O132 Co131 2.061 . S
O132 C135 1.235 . S
C133 O136 1.238 . S
C133 O137 1.241 . S
C134 O127 1.247 . S
C134 O128 1.261 . S
C135 O130 1.259 . S
C135 O132 1.235 . S
O136 Co126 2.021 . S
O136 C133 1.238 . S
O137 Co131 2.052 . S
O137 C133 1.241 . S
O138 Co126 2.137 . S
O138 C129 1.247 . S
O139 Co126 2.244 . S
O139 C129 1.272 . S
O139 Co131 2.135 . S
Co140 O141 2.216 . S
Co140 O142 2.091 . S
Co140 O144 2.004 . S
Co140 O150 2.021 . S
Co140 O152 2.137 . S
Co140 O153 2.244 . S
O141 Co140 2.216 . S
O141 C148 1.247 . S
O142 Co140 2.091 . S
O142 C148 1.261 . S
C143 O152 1.247 . S
C143 O153 1.272 . S
O144 Co140 2.004 . S
O144 C149 1.259 . S
Co145 O146 2.061 . S
Co145 O151 2.052 . S
Co145 O153 2.135 . S
O146 Co145 2.061 . S
O146 C149 1.235 . S
C147 O150 1.238 . S
C147 O151 1.241 . S
C148 O141 1.247 . S
C148 O142 1.261 . S
C149 O144 1.259 . S
C149 O146 1.235 . S
O150 Co140 2.021 . S
O150 C147 1.238 . S
O151 Co145 2.052 . S
O151 C147 1.241 . S
O152 Co140 2.137 . S
O152 C143 1.247 . S
O153 Co140 2.244 . S
O153 C143 1.272 . S
O153 Co145 2.135 . S
Co154 O155 2.216 . S
Co154 O156 2.091 . S
Co154 O158 2.004 . S
Co154 O164 2.021 . S
Co154 O166 2.137 . S
Co154 O167 2.244 . S
O155 Co154 2.216 . S
O155 C162 1.247 . S
O156 Co154 2.091 . S
O156 C162 1.261 . S
C157 O166 1.247 . S
C157 O167 1.272 . S
O158 Co154 2.004 . S
O158 C163 1.259 . S
Co159 O160 2.061 . S
Co159 O165 2.052 . S
Co159 O167 2.135 . S
O160 Co159 2.061 . S
O160 C163 1.235 . S
C161 O164 1.238 . S
C161 O165 1.241 . S
C162 O155 1.247 . S
C162 O156 1.261 . S
C163 O158 1.259 . S
C163 O160 1.235 . S
O164 Co154 2.021 . S
O164 C161 1.238 . S
O165 Co159 2.052 . S
O165 C161 1.241 . S
O166 Co154 2.137 . S
O166 C157 1.247 . S
O167 Co154 2.244 . S
O167 C157 1.272 . S
O167 Co159 2.135 . S
Co168 O169 2.216 . S
Co168 O170 2.091 . S
Co168 O172 2.004 . S
Co168 O178 2.021 . S
Co168 O180 2.137 . S
Co168 O181 2.244 . S
O169 Co168 2.216 . S
O169 C176 1.247 . S
O170 Co168 2.091 . S
O170 C176 1.261 . S
C171 O180 1.247 . S
C171 O181 1.272 . S
O172 Co168 2.004 . S
O172 C177 1.259 . S
Co173 O174 2.061 . S
Co173 O179 2.052 . S
Co173 O181 2.135 . S
O174 Co173 2.061 . S
O174 C177 1.235 . S
C175 O178 1.238 . S
C175 O179 1.241 . S
C176 O169 1.247 . S
C176 O170 1.261 . S
C177 O172 1.259 . S
C177 O174 1.235 . S
O178 Co168 2.021 . S
O178 C175 1.238 . S
O179 Co173 2.052 . S
O179 C175 1.241 . S
O180 Co168 2.137 . S
O180 C171 1.247 . S
O181 Co168 2.244 . S
O181 C171 1.272 . S
O181 Co173 2.135 . S
Co182 O183 2.216 . S
Co182 O184 2.091 . S
Co182 O186 2.004 . S
Co182 O192 2.021 . S
Co182 O194 2.137 . S
Co182 O195 2.244 . S
O183 Co182 2.216 . S
O183 C190 1.247 . S
O184 Co182 2.091 . S
O184 C190 1.261 . S
C185 O194 1.247 . S
C185 O195 1.272 . S
O186 Co182 2.004 . S
O186 C191 1.259 . S
Co187 O188 2.061 . S
Co187 O193 2.052 . S
Co187 O195 2.135 . S
O188 Co187 2.061 . S
O188 C191 1.235 . S
C189 O192 1.238 . S
C189 O193 1.241 . S
C190 O183 1.247 . S
C190 O184 1.261 . S
C191 O186 1.259 . S
C191 O188 1.235 . S
O192 Co182 2.021 . S
O192 C189 1.238 . S
O193 Co187 2.052 . S
O193 C189 1.241 . S
O194 Co182 2.137 . S
O194 C185 1.247 . S
O195 Co182 2.244 . S
O195 C185 1.272 . S
O195 Co187 2.135 . S
Co196 O197 2.216 . S
Co196 O198 2.091 . S
Co196 O200 2.004 . S
Co196 O206 2.021 . S
Co196 O208 2.137 . S
Co196 O209 2.244 . S
O197 Co196 2.216 . S
O197 C204 1.247 . S
O198 Co196 2.091 . S
O198 C204 1.261 . S
C199 O208 1.247 . S
C199 O209 1.272 . S
O200 Co196 2.004 . S
O200 C205 1.259 . S
Co201 O202 2.061 . S
Co201 O207 2.052 . S
Co201 O209 2.135 . S
O202 Co201 2.061 . S
O202 C205 1.235 . S
C203 O206 1.238 . S
C203 O207 1.241 . S
C204 O197 1.247 . S
C204 O198 1.261 . S
C205 O200 1.259 . S
C205 O202 1.235 . S
O206 Co196 2.021 . S
O206 C203 1.238 . S
O207 Co201 2.052 . S
O207 C203 1.241 . S
O208 Co196 2.137 . S
O208 C199 1.247 . S
O209 Co196 2.244 . S
O209 C199 1.272 . S
O209 Co201 2.135 . S
Co210 O211 2.216 . S
Co210 O212 2.091 . S
Co210 O214 2.004 . S
Co210 O220 2.021 . S
Co210 O222 2.137 . S
Co210 O223 2.244 . S
O211 Co210 2.216 . S
O211 C218 1.247 . S
O212 Co210 2.091 . S
O212 C218 1.261 . S
C213 O222 1.247 . S
C213 O223 1.272 . S
O214 Co210 2.004 . S
O214 C219 1.259 . S
Co215 O216 2.061 . S
Co215 O221 2.052 . S
Co215 O223 2.135 . S
O216 Co215 2.061 . S
O216 C219 1.235 . S
C217 O220 1.238 . S
C217 O221 1.241 . S
C218 O211 1.247 . S
C218 O212 1.261 . S
C219 O214 1.259 . S
C219 O216 1.235 . S
O220 Co210 2.021 . S
O220 C217 1.238 . S
O221 Co215 2.052 . S
O221 C217 1.241 . S
O222 Co210 2.137 . S
O222 C213 1.247 . S
O223 Co210 2.244 . S
O223 C213 1.272 . S
O223 Co215 2.135 . S
Co224 O225 2.216 . S
Co224 O226 2.091 . S
Co224 O228 2.004 . S
Co224 O234 2.021 . S
Co224 O236 2.137 . S
Co224 O237 2.244 . S
O225 Co224 2.216 . S
O225 C232 1.247 . S
O226 Co224 2.091 . S
O226 C232 1.261 . S
C227 O236 1.247 . S
C227 O237 1.272 . S
O228 Co224 2.004 . S
O228 C233 1.259 . S
Co229 O230 2.061 . S
Co229 O235 2.052 . S
Co229 O237 2.135 . S
O230 Co229 2.061 . S
O230 C233 1.235 . S
C231 O234 1.238 . S
C231 O235 1.241 . S
C232 O225 1.247 . S
C232 O226 1.261 . S
C233 O228 1.259 . S
C233 O230 1.235 . S
O234 Co224 2.021 . S
O234 C231 1.238 . S
O235 Co229 2.052 . S
O235 C231 1.241 . S
O236 Co224 2.137 . S
O236 C227 1.247 . S
O237 Co224 2.244 . S
O237 C227 1.272 . S
O237 Co229 2.135 . S
Co238 O239 2.216 . S
Co238 O240 2.091 . S
Co238 O242 2.004 . S
Co238 O248 2.021 . S
Co238 O250 2.137 . S
Co238 O251 2.244 . S
O239 Co238 2.216 . S
O239 C246 1.247 . S
O240 Co238 2.091 . S
O240 C246 1.261 . S
C241 O250 1.247 . S
C241 O251 1.272 . S
O242 Co238 2.004 . S
O242 C247 1.259 . S
Co243 O244 2.061 . S
Co243 O249 2.052 . S
Co243 O251 2.135 . S
O244 Co243 2.061 . S
O244 C247 1.235 . S
C245 O248 1.238 . S
C245 O249 1.241 . S
C246 O239 1.247 . S
C246 O240 1.261 . S
C247 O242 1.259 . S
C247 O244 1.235 . S
O248 Co238 2.021 . S
O248 C245 1.238 . S
O249 Co243 2.052 . S
O249 C245 1.241 . S
O250 Co238 2.137 . S
O250 C241 1.247 . S
O251 Co238 2.244 . S
O251 C241 1.272 . S
O251 Co243 2.135 . S
Co252 O253 2.216 . S
Co252 O254 2.091 . S
Co252 O256 2.004 . S
Co252 O262 2.021 . S
Co252 O264 2.137 . S
Co252 O265 2.244 . S
O253 Co252 2.216 . S
O253 C260 1.247 . S
O254 Co252 2.091 . S
O254 C260 1.261 . S
C255 O264 1.247 . S
C255 O265 1.272 . S
O256 Co252 2.004 . S
O256 C261 1.259 . S
Co257 O258 2.061 . S
Co257 O263 2.052 . S
Co257 O265 2.135 . S
O258 Co257 2.061 . S
O258 C261 1.235 . S
C259 O262 1.238 . S
C259 O263 1.241 . S
C260 O253 1.247 . S
C260 O254 1.261 . S
C261 O256 1.259 . S
C261 O258 1.235 . S
O262 Co252 2.021 . S
O262 C259 1.238 . S
O263 Co257 2.052 . S
O263 C259 1.241 . S
O264 Co252 2.137 . S
O264 C255 1.247 . S
O265 Co252 2.244 . S
O265 C255 1.272 . S
O265 Co257 2.135 . S
Co266 O267 2.216 . S
Co266 O268 2.091 . S
Co266 O270 2.004 . S
Co266 O276 2.021 . S
Co266 O278 2.137 . S
Co266 O279 2.244 . S
O267 Co266 2.216 . S
O267 C274 1.247 . S
O268 Co266 2.091 . S
O268 C274 1.261 . S
C269 O278 1.247 . S
C269 O279 1.272 . S
O270 Co266 2.004 . S
O270 C275 1.259 . S
Co271 O272 2.061 . S
Co271 O277 2.052 . S
Co271 O279 2.135 . S
O272 Co271 2.061 . S
O272 C275 1.235 . S
C273 O276 1.238 . S
C273 O277 1.241 . S
C274 O267 1.247 . S
C274 O268 1.261 . S
C275 O270 1.259 . S
C275 O272 1.235 . S
O276 Co266 2.021 . S
O276 C273 1.238 . S
O277 Co271 2.052 . S
O277 C273 1.241 . S
O278 Co266 2.137 . S
O278 C269 1.247 . S
O279 Co266 2.244 . S
O279 C269 1.272 . S
O279 Co271 2.135 . S
Co280 O281 2.216 . S
Co280 O282 2.091 . S
Co280 O284 2.004 . S
Co280 O290 2.021 . S
Co280 O292 2.137 . S
Co280 O293 2.244 . S
O281 Co280 2.216 . S
O281 C288 1.247 . S
O282 Co280 2.091 . S
O282 C288 1.261 . S
C283 O292 1.247 . S
C283 O293 1.272 . S
O284 Co280 2.004 . S
O284 C289 1.259 . S
Co285 O286 2.061 . S
Co285 O291 2.052 . S
Co285 O293 2.135 . S
O286 Co285 2.061 . S
O286 C289 1.235 . S
C287 O290 1.238 . S
C287 O291 1.241 . S
C288 O281 1.247 . S
C288 O282 1.261 . S
C289 O284 1.259 . S
C289 O286 1.235 . S
O290 Co280 2.021 . S
O290 C287 1.238 . S
O291 Co285 2.052 . S
O291 C287 1.241 . S
O292 Co280 2.137 . S
O292 C283 1.247 . S
O293 Co280 2.244 . S
O293 C283 1.272 . S
O293 Co285 2.135 . S
Co294 O295 2.216 . S
Co294 O296 2.091 . S
Co294 O298 2.004 . S
Co294 O304 2.021 . S
Co294 O306 2.137 . S
Co294 O307 2.244 . S
O295 Co294 2.216 . S
O295 C302 1.247 . S
O296 Co294 2.091 . S
O296 C302 1.261 . S
C297 O306 1.247 . S
C297 O307 1.272 . S
O298 Co294 2.004 . S
O298 C303 1.259 . S
Co299 O300 2.061 . S
Co299 O305 2.052 . S
Co299 O307 2.135 . S
O300 Co299 2.061 . S
O300 C303 1.235 . S
C301 O304 1.238 . S
C301 O305 1.241 . S
C302 O295 1.247 . S
C302 O296 1.261 . S
C303 O298 1.259 . S
C303 O300 1.235 . S
O304 Co294 2.021 . S
O304 C301 1.238 . S
O305 Co299 2.052 . S
O305 C301 1.241 . S
O306 Co294 2.137 . S
O306 C297 1.247 . S
O307 Co294 2.244 . S
O307 C297 1.272 . S
O307 Co299 2.135 . S
Co308 O309 2.216 . S
Co308 O310 2.091 . S
Co308 O312 2.004 . S
Co308 O318 2.021 . S
Co308 O320 2.137 . S
Co308 O321 2.244 . S
O309 Co308 2.216 . S
O309 C316 1.247 . S
O310 Co308 2.091 . S
O310 C316 1.261 . S
C311 O320 1.247 . S
C311 O321 1.272 . S
O312 Co308 2.004 . S
O312 C317 1.259 . S
Co313 O314 2.061 . S
Co313 O319 2.052 . S
Co313 O321 2.135 . S
O314 Co313 2.061 . S
O314 C317 1.235 . S
C315 O318 1.238 . S
C315 O319 1.241 . S
C316 O309 1.247 . S
C316 O310 1.261 . S
C317 O312 1.259 . S
C317 O314 1.235 . S
O318 Co308 2.021 . S
O318 C315 1.238 . S
O319 Co313 2.052 . S
O319 C315 1.241 . S
O320 Co308 2.137 . S
O320 C311 1.247 . S
O321 Co308 2.244 . S
O321 C311 1.272 . S
O321 Co313 2.135 . S
Co322 O323 2.216 . S
Co322 O324 2.091 . S
Co322 O326 2.004 . S
Co322 O332 2.021 . S
Co322 O334 2.137 . S
Co322 O335 2.244 . S
O323 Co322 2.216 . S
O323 C330 1.247 . S
O324 Co322 2.091 . S
O324 C330 1.261 . S
C325 O334 1.247 . S
C325 O335 1.272 . S
O326 Co322 2.004 . S
O326 C331 1.259 . S
Co327 O328 2.061 . S
Co327 O333 2.052 . S
Co327 O335 2.135 . S
O328 Co327 2.061 . S
O328 C331 1.235 . S
C329 O332 1.238 . S
C329 O333 1.241 . S
C330 O323 1.247 . S
C330 O324 1.261 . S
C331 O326 1.259 . S
C331 O328 1.235 . S
O332 Co322 2.021 . S
O332 C329 1.238 . S
O333 Co327 2.052 . S
O333 C329 1.241 . S
O334 Co322 2.137 . S
O334 C325 1.247 . S
O335 Co322 2.244 . S
O335 C325 1.272 . S
O335 Co327 2.135 . S
Co336 O337 2.216 . S
Co336 O338 2.091 . S
Co336 O340 2.004 . S
Co336 O346 2.021 . S
Co336 O348 2.137 . S
Co336 O349 2.244 . S
O337 Co336 2.216 . S
O337 C344 1.247 . S
O338 Co336 2.091 . S
O338 C344 1.261 . S
C339 O348 1.247 . S
C339 O349 1.272 . S
O340 Co336 2.004 . S
O340 C345 1.259 . S
Co341 O342 2.061 . S
Co341 O347 2.052 . S
Co341 O349 2.135 . S
O342 Co341 2.061 . S
O342 C345 1.235 . S
C343 O346 1.238 . S
C343 O347 1.241 . S
C344 O337 1.247 . S
C344 O338 1.261 . S
C345 O340 1.259 . S
C345 O342 1.235 . S
O346 Co336 2.021 . S
O346 C343 1.238 . S
O347 Co341 2.052 . S
O347 C343 1.241 . S
O348 Co336 2.137 . S
O348 C339 1.247 . S
O349 Co336 2.244 . S
O349 C339 1.272 . S
O349 Co341 2.135 . S
Co350 O351 2.216 . S
Co350 O352 2.091 . S
Co350 O354 2.004 . S
Co350 O360 2.021 . S
Co350 O362 2.137 . S
Co350 O363 2.244 . S
O351 Co350 2.216 . S
O351 C358 1.247 . S
O352 Co350 2.091 . S
O352 C358 1.261 . S
C353 O362 1.247 . S
C353 O363 1.272 . S
O354 Co350 2.004 . S
O354 C359 1.259 . S
Co355 O356 2.061 . S
Co355 O361 2.052 . S
Co355 O363 2.135 . S
O356 Co355 2.061 . S
O356 C359 1.235 . S
C357 O360 1.238 . S
C357 O361 1.241 . S
C358 O351 1.247 . S
C358 O352 1.261 . S
C359 O354 1.259 . S
C359 O356 1.235 . S
O360 Co350 2.021 . S
O360 C357 1.238 . S
O361 Co355 2.052 . S
O361 C357 1.241 . S
O362 Co350 2.137 . S
O362 C353 1.247 . S
O363 Co350 2.244 . S
O363 C353 1.272 . S
O363 Co355 2.135 . S
Co364 O365 2.216 . S
Co364 O366 2.091 . S
Co364 O368 2.004 . S
Co364 O374 2.021 . S
Co364 O376 2.137 . S
Co364 O377 2.244 . S
O365 Co364 2.216 . S
O365 C372 1.247 . S
O366 Co364 2.091 . S
O366 C372 1.261 . S
C367 O376 1.247 . S
C367 O377 1.272 . S
O368 Co364 2.004 . S
O368 C373 1.259 . S
Co369 O370 2.061 . S
Co369 O375 2.052 . S
Co369 O377 2.135 . S
O370 Co369 2.061 . S
O370 C373 1.235 . S
C371 O374 1.238 . S
C371 O375 1.241 . S
C372 O365 1.247 . S
C372 O366 1.261 . S
C373 O368 1.259 . S
C373 O370 1.235 . S
O374 Co364 2.021 . S
O374 C371 1.238 . S
O375 Co369 2.052 . S
O375 C371 1.241 . S
O376 Co364 2.137 . S
O376 C367 1.247 . S
O377 Co364 2.244 . S
O377 C367 1.272 . S
O377 Co369 2.135 . S
Co378 O379 2.216 . S
Co378 O380 2.091 . S
Co378 O382 2.004 . S
Co378 O388 2.021 . S
Co378 O390 2.137 . S
Co378 O391 2.244 . S
O379 Co378 2.216 . S
O379 C386 1.247 . S
O380 Co378 2.091 . S
O380 C386 1.261 . S
C381 O390 1.247 . S
C381 O391 1.272 . S
O382 Co378 2.004 . S
O382 C387 1.259 . S
Co383 O384 2.061 . S
Co383 O389 2.052 . S
Co383 O391 2.135 . S
O384 Co383 2.061 . S
O384 C387 1.235 . S
C385 O388 1.238 . S
C385 O389 1.241 . S
C386 O379 1.247 . S
C386 O380 1.261 . S
C387 O382 1.259 . S
C387 O384 1.235 . S
O388 Co378 2.021 . S
O388 C385 1.238 . S
O389 Co383 2.052 . S
O389 C385 1.241 . S
O390 Co378 2.137 . S
O390 C381 1.247 . S
O391 Co378 2.244 . S
O391 C381 1.272 . S
O391 Co383 2.135 . S
Co392 O393 2.216 . S
Co392 O394 2.091 . S
Co392 O396 2.004 . S
Co392 O402 2.021 . S
Co392 O404 2.137 . S
Co392 O405 2.244 . S
O393 Co392 2.216 . S
O393 C400 1.247 . S
O394 Co392 2.091 . S
O394 C400 1.261 . S
C395 O404 1.247 . S
C395 O405 1.272 . S
O396 Co392 2.004 . S
O396 C401 1.259 . S
Co397 O398 2.061 . S
Co397 O403 2.052 . S
Co397 O405 2.135 . S
O398 Co397 2.061 . S
O398 C401 1.235 . S
C399 O402 1.238 . S
C399 O403 1.241 . S
C400 O393 1.247 . S
C400 O394 1.261 . S
C401 O396 1.259 . S
C401 O398 1.235 . S
O402 Co392 2.021 . S
O402 C399 1.238 . S
O403 Co397 2.052 . S
O403 C399 1.241 . S
O404 Co392 2.137 . S
O404 C395 1.247 . S
O405 Co392 2.244 . S
O405 C395 1.272 . S
O405 Co397 2.135 . S
Co406 O407 2.216 . S
Co406 O408 2.091 . S
Co406 O410 2.004 . S
Co406 O416 2.021 . S
Co406 O418 2.137 . S
Co406 O419 2.244 . S
O407 Co406 2.216 . S
O407 C414 1.247 . S
O408 Co406 2.091 . S
O408 C414 1.261 . S
C409 O418 1.247 . S
C409 O419 1.272 . S
O410 Co406 2.004 . S
O410 C415 1.259 . S
Co411 O412 2.061 . S
Co411 O417 2.052 . S
Co411 O419 2.135 . S
O412 Co411 2.061 . S
O412 C415 1.235 . S
C413 O416 1.238 . S
C413 O417 1.241 . S
C414 O407 1.247 . S
C414 O408 1.261 . S
C415 O410 1.259 . S
C415 O412 1.235 . S
O416 Co406 2.021 . S
O416 C413 1.238 . S
O417 Co411 2.052 . S
O417 C413 1.241 . S
O418 Co406 2.137 . S
O418 C409 1.247 . S
O419 Co406 2.244 . S
O419 C409 1.272 . S
O419 Co411 2.135 . S
Co420 O421 2.216 . S
Co420 O422 2.091 . S
Co420 O424 2.004 . S
Co420 O430 2.021 . S
Co420 O432 2.137 . S
Co420 O433 2.244 . S
O421 Co420 2.216 . S
O421 C428 1.247 . S
O422 Co420 2.091 . S
O422 C428 1.261 . S
C423 O432 1.247 . S
C423 O433 1.272 . S
O424 Co420 2.004 . S
O424 C429 1.259 . S
Co425 O426 2.061 . S
Co425 O431 2.052 . S
Co425 O433 2.135 . S
O426 Co425 2.061 . S
O426 C429 1.235 . S
C427 O430 1.238 . S
C427 O431 1.241 . S
C428 O421 1.247 . S
C428 O422 1.261 . S
C429 O424 1.259 . S
C429 O426 1.235 . S
O430 Co420 2.021 . S
O430 C427 1.238 . S
O431 Co425 2.052 . S
O431 C427 1.241 . S
O432 Co420 2.137 . S
O432 C423 1.247 . S
O433 Co420 2.244 . S
O433 C423 1.272 . S
O433 Co425 2.135 . S
Co434 O435 2.216 . S
Co434 O436 2.091 . S
Co434 O438 2.004 . S
Co434 O444 2.021 . S
Co434 O446 2.137 . S
Co434 O447 2.244 . S
O435 Co434 2.216 . S
O435 C442 1.247 . S
O436 Co434 2.091 . S
O436 C442 1.261 . S
C437 O446 1.247 . S
C437 O447 1.272 . S
O438 Co434 2.004 . S
O438 C443 1.259 . S
Co439 O440 2.061 . S
Co439 O445 2.052 . S
Co439 O447 2.135 . S
O440 Co439 2.061 . S
O440 C443 1.235 . S
C441 O444 1.238 . S
C441 O445 1.241 . S
C442 O435 1.247 . S
C442 O436 1.261 . S
C443 O438 1.259 . S
C443 O440 1.235 . S
O444 Co434 2.021 . S
O444 C441 1.238 . S
O445 Co439 2.052 . S
O445 C441 1.241 . S
O446 Co434 2.137 . S
O446 C437 1.247 . S
O447 Co434 2.244 . S
O447 C437 1.272 . S
O447 Co439 2.135 . S
C448 C449 1.391 . S
C448 C450 1.394 . S
C448 H464 0.931 . S
C449 C448 1.391 . S
C449 C453 1.376 . S
C450 C448 1.394 . S
C450 C451 1.369 . S
C450 C454 1.531 1_445 S
C451 C450 1.369 . S
C451 C452 1.410 1_554 S
C451 C459 1.503 1_444 S
C452 C451 1.410 1_556 S
C452 C453 1.392 1_556 S
C452 C455 1.511 . S
C453 C449 1.376 . S
C453 C452 1.392 1_554 S
C453 H465 0.929 . S
C454 C450 1.531 1_665 S
C454 H466 0.960 . S
C454 H467 0.962 1_655 S
C454 H468 0.960 . S
C455 C452 1.511 . S
C455 H469 0.961 . S
C455 H470 0.961 . S
C455 H471 0.961 . S
C456 C457 1.370 . S
C456 C458 1.363 . S
C456 H472 0.931 . S
C457 C456 1.370 . S
C457 C461 1.408 . S
C458 C456 1.363 . S
C458 C459 1.370 . S
C458 C462 1.524 1_655 S
C459 C451 1.503 1_666 S
C459 C458 1.370 . S
C459 C460 1.403 . S
C460 C459 1.403 . S
C460 C461 1.404 . S
C460 C463 1.539 1_565 S
C461 C457 1.408 . S
C461 C460 1.404 . S
C461 H473 0.930 . S
C462 C458 1.524 1_455 S
C462 H474 0.970 . S
C462 H475 0.961 . S
C462 H476 0.961 . S
C463 C460 1.539 1_545 S
C463 H477 0.958 1_556 S
C463 H478 0.961 . S
C463 H479 0.960 . S
H464 C448 0.931 . S
H465 C453 0.929 . S
H466 C454 0.960 . S
H467 C454 0.962 1_455 S
H468 C454 0.960 . S
H469 C455 0.961 . S
H470 C455 0.961 . S
H471 C455 0.961 . S
H472 C456 0.931 . S
H473 C461 0.930 . S
H474 C462 0.970 . S
H475 C462 0.961 . S
H476 C462 0.961 . S
H477 C463 0.958 1_554 S
H478 C463 0.961 . S
H479 C463 0.960 . S
C480 C481 1.391 . S
C480 C482 1.394 . S
C480 H496 0.931 . S
C481 C480 1.391 . S
C481 C485 1.376 . S
C482 C480 1.394 . S
C482 C483 1.369 . S
C482 C486 1.531 . S
C483 C482 1.369 . S
C483 C484 1.410 . S
C483 C491 1.503 . S
C484 C483 1.410 . S
C484 C485 1.392 . S
C484 C487 1.511 . S
C485 C481 1.376 . S
C485 C484 1.392 . S
C485 H497 0.929 . S
C486 C482 1.531 . S
C486 H498 0.960 . S
C486 H499 0.962 . S
C486 H500 0.960 . S
C487 C484 1.511 . S
C487 H501 0.961 . S
C487 H502 0.961 . S
C487 H503 0.961 . S
C488 C489 1.370 . S
C488 C490 1.363 . S
C488 H504 0.931 . S
C489 C488 1.370 . S
C489 C493 1.408 . S
C490 C488 1.363 . S
C490 C491 1.370 . S
C490 C494 1.524 . S
C491 C483 1.503 . S
C491 C490 1.370 . S
C491 C492 1.403 . S
C492 C491 1.403 . S
C492 C493 1.404 . S
C492 C495 1.539 . S
C493 C489 1.408 . S
C493 C492 1.404 . S
C493 H505 0.930 . S
C494 C490 1.524 . S
C494 H506 0.956 . S
C494 H507 0.961 . S
C494 H508 0.961 . S
C495 C492 1.539 . S
C495 H509 0.958 . S
C495 H510 0.961 . S
C495 H511 0.960 . S
H496 C480 0.931 . S
H497 C485 0.929 . S
H498 C486 0.960 . S
H499 C486 0.962 . S
H500 C486 0.960 . S
H501 C487 0.961 . S
H502 C487 0.961 . S
H503 C487 0.961 . S
H504 C488 0.931 . S
H505 C493 0.930 . S
H506 C494 0.956 . S
H507 C494 0.961 . S
H508 C494 0.961 . S
H509 C495 0.958 . S
H510 C495 0.961 . S
H511 C495 0.960 . S
C512 C513 1.391 . S
C512 C514 1.394 . S
C512 H528 0.931 . S
C513 C512 1.391 . S
C513 C517 1.376 . S
C514 C512 1.394 . S
C514 C515 1.369 . S
C514 C518 1.531 . S
C515 C514 1.369 . S
C515 C516 1.404 1_565 S
C515 C523 1.503 1_565 S
C516 C515 1.404 1_545 S
C516 C517 1.378 1_545 S
C516 C519 1.531 . S
C517 C513 1.376 . S
C517 C516 1.378 1_565 S
C517 H529 0.929 . S
C518 C514 1.531 . S
C518 H530 0.960 . S
C518 H531 0.962 . S
C518 H532 0.960 . S
C519 C516 1.531 . S
C519 H533 0.961 . S
C519 H534 0.961 . S
C519 H535 0.961 . S
C520 C521 1.370 . S
C520 C522 1.363 . S
C520 H536 0.931 . S
C521 C520 1.370 . S
C521 C525 1.408 . S
C522 C520 1.363 . S
C522 C523 1.370 . S
C522 C526 1.524 . S
C523 C515 1.503 1_545 S
C523 C522 1.370 . S
C523 C524 1.403 . S
C524 C523 1.403 . S
C524 C525 1.404 . S
C524 C527 1.539 . S
C525 C521 1.408 . S
C525 C524 1.404 . S
C525 H537 0.930 . S
C526 C522 1.524 . S
C526 H538 0.956 1_545 S
C526 H539 0.961 . S
C526 H540 0.961 . S
C527 C524 1.539 . S
C527 H541 0.958 . S
C527 H542 0.961 . S
C527 H543 0.960 . S
H528 C512 0.931 . S
H529 C517 0.929 . S
H530 C518 0.960 . S
H531 C518 0.962 . S
H532 C518 0.960 . S
H533 C519 0.961 . S
H534 C519 0.961 . S
H535 C519 0.961 . S
H536 C520 0.931 . S
H537 C525 0.930 . S
H538 C526 0.956 1_565 S
H539 C526 0.961 . S
H540 C526 0.961 . S
H541 C527 0.958 . S
H542 C527 0.961 . S
H543 C527 0.960 . S
C544 C545 1.391 . S
C544 C546 1.394 . S
C544 H560 0.931 . S
C545 C544 1.391 . S
C545 C549 1.376 . S
C546 C544 1.394 . S
C546 C547 1.369 . S
C546 C550 1.531 . S
C547 C546 1.369 . S
C547 C548 1.410 . S
C547 C555 1.503 . S
C548 C547 1.410 . S
C548 C549 1.392 . S
C548 C551 1.511 . S
C549 C545 1.376 . S
C549 C548 1.392 . S
C549 H561 0.929 . S
C550 C546 1.531 . S
C550 H562 0.960 . S
C550 H563 0.962 . S
C550 H564 0.960 . S
C551 C548 1.511 . S
C551 H565 0.961 . S
C551 H566 0.961 . S
C551 H567 0.961 . S
C552 C553 1.370 . S
C552 C554 1.363 . S
C552 H568 0.931 . S
C553 C552 1.370 . S
C553 C557 1.408 . S
C554 C552 1.363 . S
C554 C555 1.370 . S
C554 C558 1.524 . S
C555 C547 1.503 . S
C555 C554 1.370 . S
C555 C556 1.403 . S
C556 C555 1.403 . S
C556 C557 1.404 . S
C556 C559 1.539 . S
C557 C553 1.408 . S
C557 C556 1.404 . S
C557 H569 0.930 . S
C558 C554 1.524 . S
C558 H570 0.956 . S
C558 H571 0.961 . S
C558 H572 0.961 . S
C559 C556 1.539 . S
C559 H573 0.958 . S
C559 H574 0.961 . S
C559 H575 0.960 . S
H560 C544 0.931 . S
H561 C549 0.929 . S
H562 C550 0.960 . S
H563 C550 0.962 . S
H564 C550 0.960 . S
H565 C551 0.961 . S
H566 C551 0.961 . S
H567 C551 0.961 . S
H568 C552 0.931 . S
H569 C557 0.930 . S
H570 C558 0.956 . S
H571 C558 0.961 . S
H572 C558 0.961 . S
H573 C559 0.958 . S
H574 C559 0.961 . S
H575 C559 0.960 . S
C576 C577 1.391 . S
C576 C578 1.394 1_565 S
C576 H592 0.931 . S
C577 C576 1.391 . S
C577 C581 1.376 . S
C578 C576 1.394 1_545 S
C578 C579 1.369 1_545 S
C578 C582 1.531 . S
C579 C578 1.369 1_565 S
C579 C580 1.407 1_455 S
C579 C587 1.503 1_465 S
C580 C579 1.407 1_655 S
C580 C581 1.386 1_655 S
C580 C583 1.520 . S
C581 C577 1.376 . S
C581 C580 1.386 1_455 S
C581 H593 0.929 . S
C582 C578 1.531 . S
C582 H594 0.960 . S
C582 H595 0.962 . S
C582 H596 0.960 . S
C583 C580 1.520 . S
C583 H597 0.961 . S
C583 H598 0.961 . S
C583 H599 0.961 . S
C584 C585 1.370 . S
C584 C586 1.363 . S
C584 H600 0.931 . S
C585 C584 1.370 . S
C585 C589 1.408 . S
C586 C584 1.363 . S
C586 C587 1.370 . S
C586 C590 1.524 1_645 S
C587 C579 1.503 1_645 S
C587 C586 1.370 . S
C587 C588 1.403 . S
C588 C587 1.403 . S
C588 C589 1.404 . S
C588 C591 1.539 . S
C589 C585 1.408 . S
C589 C588 1.404 . S
C589 H601 0.930 . S
C590 C586 1.524 1_465 S
C590 H602 0.956 . S
C590 H603 0.961 . S
C590 H604 0.961 . S
C591 C588 1.539 . S
C591 H605 0.958 . S
C591 H606 0.961 . S
C591 H607 0.960 . S
H592 C576 0.931 . S
H593 C581 0.929 . S
H594 C582 0.960 . S
H595 C582 0.962 . S
H596 C582 0.960 . S
H597 C583 0.961 . S
H598 C583 0.961 . S
H599 C583 0.961 . S
H600 C584 0.931 . S
H601 C589 0.930 . S
H602 C590 0.956 . S
H603 C590 0.961 . S
H604 C590 0.961 . S
H605 C591 0.958 . S
H606 C591 0.961 . S
H607 C591 0.960 . S
C608 C609 1.391 . S
C608 C610 1.394 . S
C608 H624 0.931 . S
C609 C608 1.391 . S
C609 C613 1.376 . S
C610 C608 1.394 . S
C610 C611 1.369 . S
C610 C614 1.531 . S
C611 C610 1.369 . S
C611 C612 1.410 . S
C611 C619 1.503 . S
C612 C611 1.410 . S
C612 C613 1.392 . S
C612 C615 1.511 . S
C613 C609 1.376 . S
C613 C612 1.392 . S
C613 H625 0.929 . S
C614 C610 1.531 . S
C614 H626 0.960 . S
C614 H627 0.962 . S
C614 H628 0.960 . S
C615 C612 1.511 . S
C615 H629 0.961 . S
C615 H630 0.961 . S
C615 H631 0.961 . S
C616 C617 1.370 . S
C616 C618 1.363 . S
C616 H632 0.931 . S
C617 C616 1.370 . S
C617 C621 1.408 . S
C618 C616 1.363 . S
C618 C619 1.370 . S
C618 C622 1.524 . S
C619 C611 1.503 . S
C619 C618 1.370 . S
C619 C620 1.403 . S
C620 C619 1.403 . S
C620 C621 1.404 . S
C620 C623 1.539 . S
C621 C617 1.408 . S
C621 C620 1.404 . S
C621 H633 0.930 . S
C622 C618 1.524 . S
C622 H634 0.956 . S
C622 H635 0.961 . S
C622 H636 0.961 . S
C623 C620 1.539 . S
C623 H637 0.958 . S
C623 H638 0.961 . S
C623 H639 0.960 . S
H624 C608 0.931 . S
H625 C613 0.929 . S
H626 C614 0.960 . S
H627 C614 0.962 . S
H628 C614 0.960 . S
H629 C615 0.961 . S
H630 C615 0.961 . S
H631 C615 0.961 . S
H632 C616 0.931 . S
H633 C621 0.930 . S
H634 C622 0.956 . S
H635 C622 0.961 . S
H636 C622 0.961 . S
H637 C623 0.958 . S
H638 C623 0.961 . S
H639 C623 0.960 . S
C640 C641 1.391 . S
C640 C642 1.388 1_556 S
C640 H656 0.931 . S
C641 C640 1.391 . S
C641 C645 1.376 . S
C642 C640 1.388 1_554 S
C642 C643 1.370 1_554 S
C642 C646 1.536 . S
C643 C642 1.370 1_556 S
C643 C644 1.413 . S
C643 C651 1.501 1_546 S
C644 C643 1.413 . S
C644 C645 1.392 . S
C644 C647 1.511 1_545 S
C645 C641 1.376 . S
C645 C644 1.392 . S
C645 H657 0.929 . S
C646 C642 1.536 . S
C646 H658 0.960 . S
C646 H659 0.962 . S
C646 H660 0.960 . S
C647 C644 1.511 1_565 S
C647 H661 0.961 . S
C647 H662 0.961 . S
C647 H663 0.961 1_556 S
C648 C649 1.370 . S
C648 C650 1.363 1_554 S
C648 H664 0.931 1_554 S
C649 C648 1.370 . S
C649 C653 1.408 . S
C650 C648 1.363 1_556 S
C650 C651 1.370 1_556 S
C650 C654 1.524 . S
C651 C643 1.501 1_564 S
C651 C650 1.370 1_554 S
C651 C652 1.403 . S
C652 C651 1.403 . S
C652 C653 1.404 . S
C652 C655 1.539 . S
C653 C649 1.408 . S
C653 C652 1.404 . S
C653 H665 0.930 . S
C654 C650 1.524 . S
C654 H666 0.956 1_565 S
C654 H667 0.961 . S
C654 H668 0.961 . S
C655 C652 1.539 . S
C655 H669 0.958 1_565 S
C655 H670 0.961 . S
C655 H671 0.960 1_565 S
H656 C640 0.931 . S
H657 C645 0.929 . S
H658 C646 0.960 . S
H659 C646 0.962 . S
H660 C646 0.960 . S
H661 C647 0.961 . S
H662 C647 0.961 . S
H663 C647 0.961 1_554 S
H664 C648 0.931 1_556 S
H665 C653 0.930 . S
H666 C654 0.956 1_545 S
H667 C654 0.961 . S
H668 C654 0.961 . S
H669 C655 0.958 1_545 S
H670 C655 0.961 . S
H671 C655 0.960 1_545 S
C672 C673 1.391 . S
C672 C674 1.394 . S
C672 H688 0.931 . S
C673 C672 1.391 . S
C673 C677 1.376 . S
C674 C672 1.394 . S
C674 C675 1.369 . S
C674 C678 1.531 . S
C675 C674 1.369 . S
C675 C676 1.410 . S
C675 C683 1.503 . S
C676 C675 1.410 . S
C676 C677 1.392 . S
C676 C679 1.511 . S
C677 C673 1.376 . S
C677 C676 1.392 . S
C677 H689 0.929 . S
C678 C674 1.531 . S
C678 H690 0.960 . S
C678 H691 0.962 . S
C678 H692 0.960 . S
C679 C676 1.511 . S
C679 H693 0.961 . S
C679 H694 0.961 . S
C679 H695 0.961 . S
C680 C681 1.370 . S
C680 C682 1.363 . S
C680 H696 0.931 . S
C681 C680 1.370 . S
C681 C685 1.408 . S
C682 C680 1.363 . S
C682 C683 1.370 . S
C682 C686 1.524 . S
C683 C675 1.503 . S
C683 C682 1.370 . S
C683 C684 1.403 . S
C684 C683 1.403 . S
C684 C685 1.404 . S
C684 C687 1.539 . S
C685 C681 1.408 . S
C685 C684 1.404 . S
C685 H697 0.930 . S
C686 C682 1.524 . S
C686 H698 0.956 . S
C686 H699 0.961 . S
C686 H700 0.961 . S
C687 C684 1.539 . S
C687 H701 0.958 . S
C687 H702 0.961 . S
C687 H703 0.960 . S
H688 C672 0.931 . S
H689 C677 0.929 . S
H690 C678 0.960 . S
H691 C678 0.962 . S
H692 C678 0.960 . S
H693 C679 0.961 . S
H694 C679 0.961 . S
H695 C679 0.961 . S
H696 C680 0.931 . S
H697 C685 0.930 . S
H698 C686 0.956 . S
H699 C686 0.961 . S
H700 C686 0.961 . S
H701 C687 0.958 . S
H702 C687 0.961 . S
H703 C687 0.960 . S
C704 C705 1.391 . S
C704 C706 1.401 . S
C704 H720 0.931 . S
C705 C704 1.391 . S
C705 C709 1.376 . S
C706 C704 1.401 . S
C706 C707 1.374 . S
C706 C710 1.518 1_554 S
C707 C706 1.374 . S
C707 C708 1.410 . S
C707 C715 1.503 1_554 S
C708 C707 1.410 . S
C708 C709 1.392 . S
C708 C711 1.511 . S
C709 C705 1.376 . S
C709 C708 1.392 . S
C709 H721 0.929 . S
C710 C706 1.518 1_556 S
C710 H722 0.960 . S
C710 H723 0.962 . S
C710 H724 0.960 . S
C711 C708 1.511 . S
C711 H725 0.961 . S
C711 H726 0.961 . S
C711 H727 0.961 . S
C712 C713 1.370 . S
C712 C714 1.363 . S
C712 H728 0.931 . S
C713 C712 1.370 . S
C713 C717 1.408 . S
C714 C712 1.363 . S
C714 C715 1.370 . S
C714 C718 1.524 . S
C715 C707 1.503 1_556 S
C715 C714 1.370 . S
C715 C716 1.403 . S
C716 C715 1.403 . S
C716 C717 1.404 . S
C716 C719 1.539 . S
C717 C713 1.408 . S
C717 C716 1.404 . S
C717 H729 0.930 . S
C718 C714 1.524 . S
C718 H730 0.956 . S
C718 H731 0.961 1_556 S
C718 H732 0.961 . S
C719 C716 1.539 . S
C719 H733 0.958 . S
C719 H734 0.961 . S
C719 H735 0.960 1_556 S
H720 C704 0.931 . S
H721 C709 0.929 . S
H722 C710 0.960 . S
H723 C710 0.962 . S
H724 C710 0.960 . S
H725 C711 0.961 . S
H726 C711 0.961 . S
H727 C711 0.961 . S
H728 C712 0.931 . S
H729 C717 0.930 . S
H730 C718 0.956 . S
H731 C718 0.961 1_554 S
H732 C718 0.961 . S
H733 C719 0.958 . S
H734 C719 0.961 . S
H735 C719 0.960 1_554 S
C736 C737 1.391 . S
C736 C738 1.394 . S
C736 H752 0.931 . S
C737 C736 1.391 . S
C737 C741 1.376 . S
C738 C736 1.394 . S
C738 C739 1.369 . S
C738 C742 1.531 . S
C739 C738 1.369 . S
C739 C740 1.410 . S
C739 C747 1.503 . S
C740 C739 1.410 . S
C740 C741 1.392 . S
C740 C743 1.511 . S
C741 C737 1.376 . S
C741 C740 1.392 . S
C741 H753 0.929 . S
C742 C738 1.531 . S
C742 H754 0.960 . S
C742 H755 0.962 . S
C742 H756 0.960 . S
C743 C740 1.511 . S
C743 H757 0.961 . S
C743 H758 0.961 . S
C743 H759 0.961 . S
C744 C745 1.370 . S
C744 C746 1.363 . S
C744 H760 0.931 . S
C745 C744 1.370 . S
C745 C749 1.408 . S
C746 C744 1.363 . S
C746 C747 1.370 . S
C746 C750 1.524 . S
C747 C739 1.503 . S
C747 C746 1.370 . S
C747 C748 1.403 . S
C748 C747 1.403 . S
C748 C749 1.404 . S
C748 C751 1.539 . S
C749 C745 1.408 . S
C749 C748 1.404 . S
C749 H761 0.930 . S
C750 C746 1.524 . S
C750 H762 0.956 . S
C750 H763 0.961 . S
C750 H764 0.961 . S
C751 C748 1.539 . S
C751 H765 0.958 . S
C751 H766 0.961 . S
C751 H767 0.960 . S
H752 C736 0.931 . S
H753 C741 0.929 . S
H754 C742 0.960 . S
H755 C742 0.962 . S
H756 C742 0.960 . S
H757 C743 0.961 . S
H758 C743 0.961 . S
H759 C743 0.961 . S
H760 C744 0.931 . S
H761 C749 0.930 . S
H762 C750 0.956 . S
H763 C750 0.961 . S
H764 C750 0.961 . S
H765 C751 0.958 . S
H766 C751 0.961 . S
H767 C751 0.960 . S
C768 C769 1.391 . S
C768 C770 1.394 . S
C768 H784 0.931 . S
C769 C768 1.391 . S
C769 C773 1.376 . S
C770 C768 1.394 . S
C770 C771 1.369 . S
C770 C774 1.531 . S
C771 C770 1.369 . S
C771 C772 1.410 1_455 S
C771 C779 1.503 1_455 S
C772 C771 1.410 1_655 S
C772 C773 1.392 1_655 S
C772 C775 1.511 . S
C773 C769 1.376 . S
C773 C772 1.392 1_455 S
C773 H785 0.929 . S
C774 C770 1.531 . S
C774 H786 0.960 . S
C774 H787 0.962 . S
C774 H788 0.960 . S
C775 C772 1.511 . S
C775 H789 0.961 . S
C775 H790 0.961 . S
C775 H791 0.961 . S
C776 C777 1.370 . S
C776 C778 1.363 . S
C776 H792 0.931 . S
C777 C776 1.370 . S
C777 C781 1.408 . S
C778 C776 1.363 . S
C778 C779 1.370 . S
C778 C782 1.524 1_655 S
C779 C771 1.503 1_655 S
C779 C778 1.370 . S
C779 C780 1.403 . S
C780 C779 1.403 . S
C780 C781 1.404 . S
C780 C783 1.539 . S
C781 C777 1.408 . S
C781 C780 1.404 . S
C781 H793 0.930 . S
C782 C778 1.524 1_455 S
C782 H794 0.956 . S
C782 H795 0.961 . S
C782 H796 0.961 . S
C783 C780 1.539 . S
C783 H797 0.958 . S
C783 H798 0.961 . S
C783 H799 0.960 . S
H784 C768 0.931 . S
H785 C773 0.929 . S
H786 C774 0.960 . S
H787 C774 0.962 . S
H788 C774 0.960 . S
H789 C775 0.961 . S
H790 C775 0.961 . S
H791 C775 0.961 . S
H792 C776 0.931 . S
H793 C781 0.930 . S
H794 C782 0.956 . S
H795 C782 0.961 . S
H796 C782 0.961 . S
H797 C783 0.958 . S
H798 C783 0.961 . S
H799 C783 0.960 . S
C800 C801 1.391 . S
C800 C802 1.394 . S
C800 H816 0.931 . S
C801 C800 1.391 . S
C801 C805 1.376 . S
C802 C800 1.394 . S
C802 C803 1.369 . S
C802 C806 1.531 . S
C803 C802 1.369 . S
C803 C804 1.410 . S
C803 C811 1.503 . S
C804 C803 1.410 . S
C804 C805 1.392 . S
C804 C807 1.511 . S
C805 C801 1.376 . S
C805 C804 1.392 . S
C805 H817 0.929 . S
C806 C802 1.531 . S
C806 H818 0.960 . S
C806 H819 0.962 . S
C806 H820 0.960 . S
C807 C804 1.511 . S
C807 H821 0.961 . S
C807 H822 0.961 . S
C807 H823 0.961 . S
C808 C809 1.370 . S
C808 C810 1.363 . S
C808 H824 0.931 . S
C809 C808 1.370 . S
C809 C813 1.408 . S
C810 C808 1.363 . S
C810 C811 1.370 . S
C810 C814 1.524 . S
C811 C803 1.503 . S
C811 C810 1.370 . S
C811 C812 1.403 . S
C812 C811 1.403 . S
C812 C813 1.404 . S
C812 C815 1.539 . S
C813 C809 1.408 . S
C813 C812 1.404 . S
C813 H825 0.930 . S
C814 C810 1.524 . S
C814 H826 0.956 . S
C814 H827 0.961 . S
C814 H828 0.961 . S
C815 C812 1.539 . S
C815 H829 0.958 . S
C815 H830 0.961 . S
C815 H831 0.960 . S
H816 C800 0.931 . S
H817 C805 0.929 . S
H818 C806 0.960 . S
H819 C806 0.962 . S
H820 C806 0.960 . S
H821 C807 0.961 . S
H822 C807 0.961 . S
H823 C807 0.961 . S
H824 C808 0.931 . S
H825 C813 0.930 . S
H826 C814 0.956 . S
H827 C814 0.961 . S
H828 C814 0.961 . S
H829 C815 0.958 . S
H830 C815 0.961 . S
H831 C815 0.960 . S
C832 C833 1.391 . S
C832 C834 1.394 . S
C832 H848 0.931 . S
C833 C832 1.391 . S
C833 C837 1.376 . S
C834 C832 1.394 . S
C834 C835 1.369 . S
C834 C838 1.531 . S
C835 C834 1.369 . S
C835 C836 1.410 . S
C835 C843 1.503 . S
C836 C835 1.410 . S
C836 C837 1.392 . S
C836 C839 1.511 . S
C837 C833 1.376 . S
C837 C836 1.392 . S
C837 H849 0.929 . S
C838 C834 1.531 . S
C838 H850 0.960 . S
C838 H851 0.962 . S
C838 H852 0.960 . S
C839 C836 1.511 . S
C839 H853 0.961 . S
C839 H854 0.961 . S
C839 H855 0.961 . S
C840 C841 1.370 . S
C840 C842 1.363 . S
C840 H856 0.931 . S
C841 C840 1.370 . S
C841 C845 1.408 . S
C842 C840 1.363 . S
C842 C843 1.370 . S
C842 C846 1.524 . S
C843 C835 1.503 . S
C843 C842 1.370 . S
C843 C844 1.403 . S
C844 C843 1.403 . S
C844 C845 1.404 . S
C844 C847 1.539 . S
C845 C841 1.408 . S
C845 C844 1.404 . S
C845 H857 0.930 . S
C846 C842 1.524 . S
C846 H858 0.956 . S
C846 H859 0.961 . S
C846 H860 0.961 . S
C847 C844 1.539 . S
C847 H861 0.958 . S
C847 H862 0.961 . S
C847 H863 0.960 . S
H848 C832 0.931 . S
H849 C837 0.929 . S
H850 C838 0.960 . S
H851 C838 0.962 . S
H852 C838 0.960 . S
H853 C839 0.961 . S
H854 C839 0.961 . S
H855 C839 0.961 . S
H856 C840 0.931 . S
H857 C845 0.930 . S
H858 C846 0.956 . S
H859 C846 0.961 . S
H860 C846 0.961 . S
H861 C847 0.958 . S
H862 C847 0.961 . S
H863 C847 0.960 . S
C864 C865 1.391 . S
C864 C866 1.394 . S
C864 H880 0.931 . S
C865 C864 1.391 . S
C865 C869 1.376 . S
C866 C864 1.394 . S
C866 C867 1.369 . S
C866 C870 1.531 . S
C867 C866 1.369 . S
C867 C868 1.410 . S
C867 C875 1.503 . S
C868 C867 1.410 . S
C868 C869 1.392 . S
C868 C871 1.511 . S
C869 C865 1.376 . S
C869 C868 1.392 . S
C869 H881 0.929 . S
C870 C866 1.531 . S
C870 H882 0.960 . S
C870 H883 0.962 . S
C870 H884 0.960 . S
C871 C868 1.511 . S
C871 H885 0.961 . S
C871 H886 0.961 . S
C871 H887 0.961 . S
C872 C873 1.370 . S
C872 C874 1.363 . S
C872 H888 0.931 . S
C873 C872 1.370 . S
C873 C877 1.408 . S
C874 C872 1.363 . S
C874 C875 1.370 . S
C874 C878 1.524 . S
C875 C867 1.503 . S
C875 C874 1.370 . S
C875 C876 1.403 . S
C876 C875 1.403 . S
C876 C877 1.404 . S
C876 C879 1.539 . S
C877 C873 1.408 . S
C877 C876 1.404 . S
C877 H889 0.930 . S
C878 C874 1.524 . S
C878 H890 0.956 . S
C878 H891 0.961 . S
C878 H892 0.961 . S
C879 C876 1.539 . S
C879 H893 0.958 . S
C879 H894 0.961 . S
C879 H895 0.960 . S
H880 C864 0.931 . S
H881 C869 0.929 . S
H882 C870 0.960 . S
H883 C870 0.962 . S
H884 C870 0.960 . S
H885 C871 0.961 . S
H886 C871 0.961 . S
H887 C871 0.961 . S
H888 C872 0.931 . S
H889 C877 0.930 . S
H890 C878 0.956 . S
H891 C878 0.961 . S
H892 C878 0.961 . S
H893 C879 0.958 . S
H894 C879 0.961 . S
H895 C879 0.960 . S
C896 C897 1.391 . S
C896 C898 1.394 . S
C896 H912 0.931 . S
C897 C896 1.391 . S
C897 C901 1.376 . S
C898 C896 1.394 . S
C898 C899 1.369 . S
C898 C902 1.531 . S
C899 C898 1.369 . S
C899 C900 1.410 . S
C899 C907 1.503 . S
C900 C899 1.410 . S
C900 C901 1.392 . S
C900 C903 1.511 . S
C901 C897 1.376 . S
C901 C900 1.392 . S
C901 H913 0.929 . S
C902 C898 1.531 . S
C902 H914 0.960 . S
C902 H915 0.962 . S
C902 H916 0.960 . S
C903 C900 1.511 . S
C903 H917 0.961 . S
C903 H918 0.961 . S
C903 H919 0.961 . S
C904 C905 1.370 . S
C904 C906 1.363 . S
C904 H920 0.931 . S
C905 C904 1.370 . S
C905 C909 1.408 . S
C906 C904 1.363 . S
C906 C907 1.370 . S
C906 C910 1.524 . S
C907 C899 1.503 . S
C907 C906 1.370 . S
C907 C908 1.403 . S
C908 C907 1.403 . S
C908 C909 1.404 . S
C908 C911 1.539 . S
C909 C905 1.408 . S
C909 C908 1.404 . S
C909 H921 0.930 . S
C910 C906 1.524 . S
C910 H922 0.956 . S
C910 H923 0.961 . S
C910 H924 0.961 . S
C911 C908 1.539 . S
C911 H925 0.958 . S
C911 H926 0.961 . S
C911 H927 0.960 . S
H912 C896 0.931 . S
H913 C901 0.929 . S
H914 C902 0.960 . S
H915 C902 0.962 . S
H916 C902 0.960 . S
H917 C903 0.961 . S
H918 C903 0.961 . S
H919 C903 0.961 . S
H920 C904 0.931 . S
H921 C909 0.930 . S
H922 C910 0.956 . S
H923 C910 0.961 . S
H924 C910 0.961 . S
H925 C911 0.958 . S
H926 C911 0.961 . S
H927 C911 0.960 . S
C928 C929 1.391 . S
C928 C930 1.394 1_556 S
C928 H944 0.931 . S
C929 C928 1.391 . S
C929 C933 1.376 . S
C930 C928 1.394 1_554 S
C930 C931 1.369 1_554 S
C930 C934 1.531 . S
C931 C930 1.369 1_556 S
C931 C932 1.410 1_455 S
C931 C939 1.503 1_456 S
C932 C931 1.410 1_655 S
C932 C933 1.392 1_655 S
C932 C935 1.511 . S
C933 C929 1.376 . S
C933 C932 1.392 1_455 S
C933 H945 0.929 . S
C934 C930 1.531 . S
C934 H946 0.960 . S
C934 H947 0.962 . S
C934 H948 0.960 . S
C935 C932 1.511 . S
C935 H949 0.961 . S
C935 H950 0.961 . S
C935 H951 0.961 . S
C936 C937 1.370 . S
C936 C938 1.363 . S
C936 H952 0.931 . S
C937 C936 1.370 . S
C937 C941 1.408 . S
C938 C936 1.363 . S
C938 C939 1.370 . S
C938 C942 1.524 1_654 S
C939 C931 1.503 1_654 S
C939 C938 1.370 . S
C939 C940 1.403 . S
C940 C939 1.403 . S
C940 C941 1.404 . S
C940 C943 1.539 . S
C941 C937 1.408 . S
C941 C940 1.404 . S
C941 H953 0.930 . S
C942 C938 1.524 1_456 S
C942 H954 0.956 . S
C942 H955 0.961 . S
C942 H956 0.961 . S
C943 C940 1.539 . S
C943 H957 0.958 . S
C943 H958 0.961 . S
C943 H959 0.960 . S
H944 C928 0.931 . S
H945 C933 0.929 . S
H946 C934 0.960 . S
H947 C934 0.962 . S
H948 C934 0.960 . S
H949 C935 0.961 . S
H950 C935 0.961 . S
H951 C935 0.961 . S
H952 C936 0.931 . S
H953 C941 0.930 . S
H954 C942 0.956 . S
H955 C942 0.961 . S
H956 C942 0.961 . S
H957 C943 0.958 . S
H958 C943 0.961 . S
H959 C943 0.960 . S
C960 C961 1.391 . S
C960 C962 1.421 . S
C960 H976 0.931 . S
C961 C960 1.391 . S
C961 C965 1.376 . S
C962 C960 1.421 . S
C962 C963 1.350 1_545 S
C962 C966 1.522 1_545 S
C963 C962 1.350 1_565 S
C963 C964 1.410 . S
C963 C971 1.503 . S
C964 C963 1.410 . S
C964 C965 1.392 1_565 S
C964 C967 1.511 . S
C965 C961 1.376 . S
C965 C964 1.392 1_545 S
C965 H977 0.929 . S
C966 C962 1.522 1_565 S
C966 H978 0.960 . S
C966 H979 0.962 1_565 S
C966 H980 0.960 . S
C967 C964 1.511 . S
C967 H981 0.961 . S
C967 H982 0.961 . S
C967 H983 0.961 . S
C968 C969 1.370 . S
C968 C970 1.363 . S
C968 H984 0.931 . S
C969 C968 1.370 . S
C969 C973 1.408 . S
C970 C968 1.363 . S
C970 C971 1.370 . S
C970 C974 1.524 1_565 S
C971 C963 1.503 . S
C971 C970 1.370 . S
C971 C972 1.403 . S
C972 C971 1.403 . S
C972 C973 1.404 . S
C972 C975 1.539 . S
C973 C969 1.408 . S
C973 C972 1.404 . S
C973 H985 0.930 . S
C974 C970 1.524 1_545 S
C974 H986 0.956 . S
C974 H987 0.961 . S
C974 H988 0.961 . S
C975 C972 1.539 . S
C975 H989 0.958 . S
C975 H990 0.961 . S
C975 H991 0.960 . S
H976 C960 0.931 . S
H977 C965 0.929 . S
H978 C966 0.960 . S
H979 C966 0.962 1_545 S
H980 C966 0.960 . S
H981 C967 0.961 . S
H982 C967 0.961 . S
H983 C967 0.961 . S
H984 C968 0.931 . S
H985 C973 0.930 . S
H986 C974 0.956 . S
H987 C974 0.961 . S
H988 C974 0.961 . S
H989 C975 0.958 . S
H990 C975 0.961 . S
H991 C975 0.960 . S
C992 C993 1.391 . S
C992 C994 1.394 . S
C992 H1008 0.931 . S
C993 C992 1.391 . S
C993 C997 1.376 . S
C994 C992 1.394 . S
C994 C995 1.369 . S
C994 C998 1.531 . S
C995 C994 1.369 . S
C995 C996 1.410 . S
C995 C1003 1.503 . S
C996 C995 1.410 . S
C996 C997 1.392 . S
C996 C999 1.511 . S
C997 C993 1.376 . S
C997 C996 1.392 . S
C997 H1009 0.929 . S
C998 C994 1.531 . S
C998 H1010 0.960 . S
C998 H1011 0.962 . S
C998 H1012 0.960 . S
C999 C996 1.511 . S
C999 H1013 0.961 . S
C999 H1014 0.961 . S
C999 H1015 0.961 . S
C1000 C1001 1.370 . S
C1000 C1002 1.363 . S
C1000 H1016 0.931 . S
C1001 C1000 1.370 . S
C1001 C1005 1.408 . S
C1002 C1000 1.363 . S
C1002 C1003 1.370 . S
C1002 C1006 1.524 . S
C1003 C995 1.503 . S
C1003 C1002 1.370 . S
C1003 C1004 1.403 . S
C1004 C1003 1.403 . S
C1004 C1005 1.404 . S
C1004 C1007 1.539 . S
C1005 C1001 1.408 . S
C1005 C1004 1.404 . S
C1005 H1017 0.930 . S
C1006 C1002 1.524 . S
C1006 H1018 0.956 . S
C1006 H1019 0.961 . S
C1006 H1020 0.961 . S
C1007 C1004 1.539 . S
C1007 H1021 0.958 . S
C1007 H1022 0.961 . S
C1007 H1023 0.960 . S
H1008 C992 0.931 . S
H1009 C997 0.929 . S
H1010 C998 0.960 . S
H1011 C998 0.962 . S
H1012 C998 0.960 . S
H1013 C999 0.961 . S
H1014 C999 0.961 . S
H1015 C999 0.961 . S
H1016 C1000 0.931 . S
H1017 C1005 0.930 . S
H1018 C1006 0.956 . S
H1019 C1006 0.961 . S
H1020 C1006 0.961 . S
H1021 C1007 0.958 . S
H1022 C1007 0.961 . S
H1023 C1007 0.960 . S
C1024 C1025 1.391 . S
C1024 C1026 1.416 . S
C1024 H1040 0.931 . S
C1025 C1024 1.391 . S
C1025 C1029 1.376 . S
C1026 C1024 1.416 . S
C1026 C1027 1.367 1_545 S
C1026 C1030 1.510 1_545 S
C1027 C1026 1.367 1_565 S
C1027 C1028 1.410 1_565 S
C1027 C1035 1.503 . S
C1028 C1027 1.410 1_545 S
C1028 C1029 1.392 . S
C1028 C1031 1.511 . S
C1029 C1025 1.376 . S
C1029 C1028 1.392 . S
C1029 H1041 0.929 . S
C1030 C1026 1.510 1_565 S
C1030 H1042 0.960 . S
C1030 H1043 0.962 . S
C1030 H1044 0.960 . S
C1031 C1028 1.511 . S
C1031 H1045 0.961 . S
C1031 H1046 0.961 . S
C1031 H1047 0.961 1_545 S
C1032 C1033 1.370 . S
C1032 C1034 1.363 . S
C1032 H1048 0.931 . S
C1033 C1032 1.370 . S
C1033 C1037 1.408 . S
C1034 C1032 1.363 . S
C1034 C1035 1.370 . S
C1034 C1038 1.524 1_565 S
C1035 C1027 1.503 . S
C1035 C1034 1.370 . S
C1035 C1036 1.403 . S
C1036 C1035 1.403 . S
C1036 C1037 1.404 . S
C1036 C1039 1.539 . S
C1037 C1033 1.408 . S
C1037 C1036 1.404 . S
C1037 H1049 0.930 . S
C1038 C1034 1.524 1_545 S
C1038 H1050 0.956 . S
C1038 H1051 0.961 . S
C1038 H1052 0.961 . S
C1039 C1036 1.539 . S
C1039 H1053 0.958 . S
C1039 H1054 0.961 . S
C1039 H1055 0.960 . S
H1040 C1024 0.931 . S
H1041 C1029 0.929 . S
H1042 C1030 0.960 . S
H1043 C1030 0.962 . S
H1044 C1030 0.960 . S
H1045 C1031 0.961 . S
H1046 C1031 0.961 . S
H1047 C1031 0.961 1_565 S
H1048 C1032 0.931 . S
H1049 C1037 0.930 . S
H1050 C1038 0.956 . S
H1051 C1038 0.961 . S
H1052 C1038 0.961 . S
H1053 C1039 0.958 . S
H1054 C1039 0.961 . S
H1055 C1039 0.960 . S
C1056 C1057 1.391 . S
C1056 C1058 1.394 . S
C1056 H1072 0.931 . S
C1057 C1056 1.391 . S
C1057 C1061 1.376 . S
C1058 C1056 1.394 . S
C1058 C1059 1.369 . S
C1058 C1062 1.531 1_556 S
C1059 C1058 1.369 . S
C1059 C1060 1.410 . S
C1059 C1067 1.503 1_556 S
C1060 C1059 1.410 . S
C1060 C1061 1.392 . S
C1060 C1063 1.511 . S
C1061 C1057 1.376 . S
C1061 C1060 1.392 . S
C1061 H1073 0.929 . S
C1062 C1058 1.531 1_554 S
C1062 H1074 0.960 . S
C1062 H1075 0.962 . S
C1062 H1076 0.960 . S
C1063 C1060 1.511 . S
C1063 H1077 0.961 . S
C1063 H1078 0.961 . S
C1063 H1079 0.961 . S
C1064 C1065 1.370 . S
C1064 C1066 1.363 . S
C1064 H1080 0.931 . S
C1065 C1064 1.370 . S
C1065 C1069 1.408 . S
C1066 C1064 1.363 . S
C1066 C1067 1.370 . S
C1066 C1070 1.524 1_554 S
C1067 C1059 1.503 1_554 S
C1067 C1066 1.370 . S
C1067 C1068 1.403 . S
C1068 C1067 1.403 . S
C1068 C1069 1.404 . S
C1068 C1071 1.539 . S
C1069 C1065 1.408 . S
C1069 C1068 1.404 . S
C1069 H1081 0.930 . S
C1070 C1066 1.524 1_556 S
C1070 H1082 0.956 . S
C1070 H1083 0.961 . S
C1070 H1084 0.961 . S
C1071 C1068 1.539 . S
C1071 H1085 0.958 . S
C1071 H1086 0.961 . S
C1071 H1087 0.960 . S
H1072 C1056 0.931 . S
H1073 C1061 0.929 . S
H1074 C1062 0.960 . S
H1075 C1062 0.962 . S
H1076 C1062 0.960 . S
H1077 C1063 0.961 . S
H1078 C1063 0.961 . S
H1079 C1063 0.961 . S
H1080 C1064 0.931 . S
H1081 C1069 0.930 . S
H1082 C1070 0.956 . S
H1083 C1070 0.961 . S
H1084 C1070 0.961 . S
H1085 C1071 0.958 . S
H1086 C1071 0.961 . S
H1087 C1071 0.960 . S
C1088 C1089 1.391 . S
C1088 C1090 1.394 . S
C1088 H1104 0.931 . S
C1089 C1088 1.391 . S
C1089 C1093 1.376 . S
C1090 C1088 1.394 . S
C1090 C1091 1.369 . S
C1090 C1094 1.531 . S
C1091 C1090 1.369 . S
C1091 C1092 1.410 . S
C1091 C1099 1.479 1_545 S
C1092 C1091 1.410 . S
C1092 C1093 1.392 . S
C1092 C1095 1.511 1_545 S
C1093 C1089 1.376 . S
C1093 C1092 1.392 . S
C1093 H1105 0.929 . S
C1094 C1090 1.531 . S
C1094 H1106 0.960 . S
C1094 H1107 0.962 . S
C1094 H1108 0.960 . S
C1095 C1092 1.511 1_565 S
C1095 H1109 0.961 . S
C1095 H1110 0.961 . S
C1095 H1111 0.961 . S
C1096 C1097 1.370 . S
C1096 C1098 1.363 . S
C1096 H1112 0.931 . S
C1097 C1096 1.370 . S
C1097 C1101 1.408 . S
C1098 C1096 1.363 . S
C1098 C1099 1.396 . S
C1098 C1102 1.524 . S
C1099 C1091 1.479 1_565 S
C1099 C1098 1.396 . S
C1099 C1100 1.401 1_565 S
C1100 C1099 1.401 1_545 S
C1100 C1101 1.404 1_545 S
C1100 C1103 1.539 . S
C1101 C1097 1.408 . S
C1101 C1100 1.404 1_565 S
C1101 H1113 0.930 . S
C1102 C1098 1.524 . S
C1102 H1114 0.956 . S
C1102 H1115 0.961 . S
C1102 H1116 0.961 . S
C1103 C1100 1.539 . S
C1103 H1117 0.958 . S
C1103 H1118 0.961 . S
C1103 H1119 0.960 . S
H1104 C1088 0.931 . S
H1105 C1093 0.929 . S
H1106 C1094 0.960 . S
H1107 C1094 0.962 . S
H1108 C1094 0.960 . S
H1109 C1095 0.961 . S
H1110 C1095 0.961 . S
H1111 C1095 0.961 . S
H1112 C1096 0.931 . S
H1113 C1101 0.930 . S
H1114 C1102 0.956 . S
H1115 C1102 0.961 . S
H1116 C1102 0.961 . S
H1117 C1103 0.958 . S
H1118 C1103 0.961 . S
H1119 C1103 0.960 . S
C1120 C1121 1.391 . S
C1120 C1122 1.394 . S
C1120 H1136 0.931 . S
C1121 C1120 1.391 . S
C1121 C1125 1.376 . S
C1122 C1120 1.394 . S
C1122 C1123 1.369 . S
C1122 C1126 1.531 . S
C1123 C1122 1.369 . S
C1123 C1124 1.410 . S
C1123 C1131 1.503 . S
C1124 C1123 1.410 . S
C1124 C1125 1.392 . S
C1124 C1127 1.511 . S
C1125 C1121 1.376 . S
C1125 C1124 1.392 . S
C1125 H1137 0.929 . S
C1126 C1122 1.531 . S
C1126 H1138 0.960 . S
C1126 H1139 0.962 . S
C1126 H1140 0.960 . S
C1127 C1124 1.511 . S
C1127 H1141 0.961 . S
C1127 H1142 0.961 . S
C1127 H1143 0.961 . S
C1128 C1129 1.370 . S
C1128 C1130 1.363 . S
C1128 H1144 0.931 . S
C1129 C1128 1.370 . S
C1129 C1133 1.408 . S
C1130 C1128 1.363 . S
C1130 C1131 1.370 . S
C1130 C1134 1.524 . S
C1131 C1123 1.503 . S
C1131 C1130 1.370 . S
C1131 C1132 1.403 . S
C1132 C1131 1.403 . S
C1132 C1133 1.404 . S
C1132 C1135 1.539 . S
C1133 C1129 1.408 . S
C1133 C1132 1.404 . S
C1133 H1145 0.930 . S
C1134 C1130 1.524 . S
C1134 H1146 0.956 . S
C1134 H1147 0.961 . S
C1134 H1148 0.961 . S
C1135 C1132 1.539 . S
C1135 H1149 0.958 . S
C1135 H1150 0.961 . S
C1135 H1151 0.960 . S
H1136 C1120 0.931 . S
H1137 C1125 0.929 . S
H1138 C1126 0.960 . S
H1139 C1126 0.962 . S
H1140 C1126 0.960 . S
H1141 C1127 0.961 . S
H1142 C1127 0.961 . S
H1143 C1127 0.961 . S
H1144 C1128 0.931 . S
H1145 C1133 0.930 . S
H1146 C1134 0.956 . S
H1147 C1134 0.961 . S
H1148 C1134 0.961 . S
H1149 C1135 0.958 . S
H1150 C1135 0.961 . S
H1151 C1135 0.960 . S
C1152 C1153 1.391 . S
C1152 C1154 1.394 1_545 S
C1152 H1168 0.931 . S
C1153 C1152 1.391 . S
C1153 C1157 1.376 . S
C1154 C1152 1.394 1_565 S
C1154 C1155 1.362 1_565 S
C1154 C1158 1.531 . S
C1155 C1154 1.362 1_545 S
C1155 C1156 1.441 . S
C1155 C1163 1.481 1_545 S
C1156 C1155 1.441 . S
C1156 C1157 1.392 . S
C1156 C1159 1.511 . S
C1157 C1153 1.376 . S
C1157 C1156 1.392 . S
C1157 H1169 0.929 . S
C1158 C1154 1.531 . S
C1158 H1170 0.960 . S
C1158 H1171 0.962 . S
C1158 H1172 0.960 . S
C1159 C1156 1.511 . S
C1159 H1173 0.961 . S
C1159 H1174 0.961 . S
C1159 H1175 0.961 . S
C1160 C1161 1.370 . S
C1160 C1162 1.363 . S
C1160 H1176 0.931 . S
C1161 C1160 1.370 . S
C1161 C1165 1.408 . S
C1162 C1160 1.363 . S
C1162 C1163 1.370 . S
C1162 C1166 1.543 . S
C1163 C1155 1.481 1_565 S
C1163 C1162 1.370 . S
C1163 C1164 1.403 . S
C1164 C1163 1.403 . S
C1164 C1165 1.404 . S
C1164 C1167 1.539 . S
C1165 C1161 1.408 . S
C1165 C1164 1.404 . S
C1165 H1177 0.930 . S
C1166 C1162 1.543 . S
C1166 H1178 0.962 . S
C1166 H1179 0.934 1_565 S
C1166 H1180 0.963 . S
C1167 C1164 1.539 . S
C1167 H1181 0.958 . S
C1167 H1182 0.961 . S
C1167 H1183 0.960 . S
H1168 C1152 0.931 . S
H1169 C1157 0.929 . S
H1170 C1158 0.960 . S
H1171 C1158 0.962 . S
H1172 C1158 0.960 . S
H1173 C1159 0.961 . S
H1174 C1159 0.961 . S
H1175 C1159 0.961 . S
H1176 C1160 0.931 . S
H1177 C1165 0.930 . S
H1178 C1166 0.962 . S
H1179 C1166 0.934 1_545 S
H1180 C1166 0.963 . S
H1181 C1167 0.958 . S
H1182 C1167 0.961 . S
H1183 C1167 0.960 . S
C1184 C1185 1.391 . S
C1184 C1186 1.394 1_556 S
C1184 H1200 0.931 . S
C1185 C1184 1.391 . S
C1185 C1189 1.376 . S
C1186 C1184 1.394 1_554 S
C1186 C1187 1.369 . S
C1186 C1190 1.531 . S
C1187 C1186 1.369 . S
C1187 C1188 1.410 1_554 S
C1187 C1195 1.503 . S
C1188 C1187 1.410 1_556 S
C1188 C1189 1.392 . S
C1188 C1191 1.511 . S
C1189 C1185 1.376 . S
C1189 C1188 1.392 . S
C1189 H1201 0.929 . S
C1190 C1186 1.531 . S
C1190 H1202 0.960 . S
C1190 H1203 0.962 . S
C1190 H1204 0.960 . S
C1191 C1188 1.511 . S
C1191 H1205 0.961 . S
C1191 H1206 0.961 1_556 S
C1191 H1207 0.961 . S
C1192 C1193 1.370 . S
C1192 C1194 1.363 . S
C1192 H1208 0.931 . S
C1193 C1192 1.370 . S
C1193 C1197 1.408 . S
C1194 C1192 1.363 . S
C1194 C1195 1.370 . S
C1194 C1198 1.524 . S
C1195 C1187 1.503 . S
C1195 C1194 1.370 . S
C1195 C1196 1.403 . S
C1196 C1195 1.403 . S
C1196 C1197 1.404 . S
C1196 C1199 1.539 . S
C1197 C1193 1.408 . S
C1197 C1196 1.404 . S
C1197 H1209 0.930 . S
C1198 C1194 1.524 . S
C1198 H1210 0.956 . S
C1198 H1211 0.961 . S
C1198 H1212 0.961 . S
C1199 C1196 1.539 . S
C1199 H1213 0.958 . S
C1199 H1214 0.961 . S
C1199 H1215 0.960 1_554 S
H1200 C1184 0.931 . S
H1201 C1189 0.929 . S
H1202 C1190 0.960 . S
H1203 C1190 0.962 . S
H1204 C1190 0.960 . S
H1205 C1191 0.961 . S
H1206 C1191 0.961 1_554 S
H1207 C1191 0.961 . S
H1208 C1192 0.931 . S
H1209 C1197 0.930 . S
H1210 C1198 0.956 . S
H1211 C1198 0.961 . S
H1212 C1198 0.961 . S
H1213 C1199 0.958 . S
H1214 C1199 0.961 . S
H1215 C1199 0.960 1_556 S
C1216 C1217 1.391 . S
C1216 C1218 1.394 . S
C1216 H1232 0.931 . S
C1217 C1216 1.391 . S
C1217 C1221 1.376 . S
C1218 C1216 1.394 . S
C1218 C1219 1.369 . S
C1218 C1222 1.531 . S
C1219 C1218 1.369 . S
C1219 C1220 1.410 . S
C1219 C1227 1.503 . S
C1220 C1219 1.410 . S
C1220 C1221 1.392 . S
C1220 C1223 1.511 . S
C1221 C1217 1.376 . S
C1221 C1220 1.392 . S
C1221 H1233 0.929 . S
C1222 C1218 1.531 . S
C1222 H1234 0.960 . S
C1222 H1235 0.962 . S
C1222 H1236 0.960 . S
C1223 C1220 1.511 . S
C1223 H1237 0.961 . S
C1223 H1238 0.961 1_655 S
C1223 H1239 0.961 . S
C1224 C1225 1.370 . S
C1224 C1226 1.363 1_455 S
C1224 H1240 0.931 . S
C1225 C1224 1.370 . S
C1225 C1229 1.408 . S
C1226 C1224 1.363 1_655 S
C1226 C1227 1.370 . S
C1226 C1230 1.524 . S
C1227 C1219 1.503 . S
C1227 C1226 1.370 . S
C1227 C1228 1.403 . S
C1228 C1227 1.403 . S
C1228 C1229 1.404 1_655 S
C1228 C1231 1.539 . S
C1229 C1225 1.408 . S
C1229 C1228 1.404 1_455 S
C1229 H1241 0.930 . S
C1230 C1226 1.524 . S
C1230 H1242 0.956 . S
C1230 H1243 0.961 . S
C1230 H1244 0.961 . S
C1231 C1228 1.539 . S
C1231 H1245 0.958 . S
C1231 H1246 0.961 . S
C1231 H1247 0.960 . S
H1232 C1216 0.931 . S
H1233 C1221 0.929 . S
H1234 C1222 0.960 . S
H1235 C1222 0.962 . S
H1236 C1222 0.960 . S
H1237 C1223 0.961 . S
H1238 C1223 0.961 1_455 S
H1239 C1223 0.961 . S
H1240 C1224 0.931 . S
H1241 C1229 0.930 . S
H1242 C1230 0.956 . S
H1243 C1230 0.961 . S
H1244 C1230 0.961 . S
H1245 C1231 0.958 . S
H1246 C1231 0.961 . S
H1247 C1231 0.960 . S
C1248 C1249 1.391 . S
C1248 C1250 1.394 . S
C1248 H1264 0.931 . S
C1249 C1248 1.391 . S
C1249 C1253 1.376 . S
C1250 C1248 1.394 . S
C1250 C1251 1.369 . S
C1250 C1254 1.531 . S
C1251 C1250 1.369 . S
C1251 C1252 1.410 . S
C1251 C1259 1.503 . S
C1252 C1251 1.410 . S
C1252 C1253 1.392 . S
C1252 C1255 1.511 . S
C1253 C1249 1.376 . S
C1253 C1252 1.392 . S
C1253 H1265 0.929 . S
C1254 C1250 1.531 . S
C1254 H1266 0.960 . S
C1254 H1267 0.962 . S
C1254 H1268 0.960 . S
C1255 C1252 1.511 . S
C1255 H1269 0.961 . S
C1255 H1270 0.961 . S
C1255 H1271 0.961 . S
C1256 C1257 1.370 . S
C1256 C1258 1.363 . S
C1256 H1272 0.931 . S
C1257 C1256 1.370 . S
C1257 C1261 1.408 . S
C1258 C1256 1.363 . S
C1258 C1259 1.370 . S
C1258 C1262 1.524 . S
C1259 C1251 1.503 . S
C1259 C1258 1.370 . S
C1259 C1260 1.403 . S
C1260 C1259 1.403 . S
C1260 C1261 1.404 . S
C1260 C1263 1.539 . S
C1261 C1257 1.408 . S
C1261 C1260 1.404 . S
C1261 H1273 0.930 . S
C1262 C1258 1.524 . S
C1262 H1274 0.956 . S
C1262 H1275 0.961 . S
C1262 H1276 0.961 . S
C1263 C1260 1.539 . S
C1263 H1277 0.958 . S
C1263 H1278 0.961 . S
C1263 H1279 0.960 . S
H1264 C1248 0.931 . S
H1265 C1253 0.929 . S
H1266 C1254 0.960 . S
H1267 C1254 0.962 . S
H1268 C1254 0.960 . S
H1269 C1255 0.961 . S
H1270 C1255 0.961 . S
H1271 C1255 0.961 . S
H1272 C1256 0.931 . S
H1273 C1261 0.930 . S
H1274 C1262 0.956 . S
H1275 C1262 0.961 . S
H1276 C1262 0.961 . S
H1277 C1263 0.958 . S
H1278 C1263 0.961 . S
H1279 C1263 0.960 . S
C1280 C1281 1.391 . S
C1280 C1282 1.394 . S
C1280 H1296 0.931 . S
C1281 C1280 1.391 . S
C1281 C1285 1.381 . S
C1282 C1280 1.394 . S
C1282 C1283 1.369 1_655 S
C1282 C1286 1.531 . S
C1283 C1282 1.369 1_455 S
C1283 C1284 1.410 . S
C1283 C1291 1.503 . S
C1284 C1283 1.410 . S
C1284 C1285 1.388 1_455 S
C1284 C1287 1.511 . S
C1285 C1281 1.381 . S
C1285 C1284 1.388 1_655 S
C1285 H1297 0.928 1_655 S
C1286 C1282 1.531 . S
C1286 H1298 0.987 . S
C1286 H1299 0.962 . S
C1286 H1300 0.960 . S
C1287 C1284 1.511 . S
C1287 H1301 0.961 . S
C1287 H1302 0.961 . S
C1287 H1303 0.961 . S
C1288 C1289 1.370 . S
C1288 C1290 1.363 . S
C1288 H1304 0.931 . S
C1289 C1288 1.370 . S
C1289 C1293 1.408 . S
C1290 C1288 1.363 . S
C1290 C1291 1.370 . S
C1290 C1294 1.524 . S
C1291 C1283 1.503 . S
C1291 C1290 1.370 . S
C1291 C1292 1.403 . S
C1292 C1291 1.403 . S
C1292 C1293 1.404 . S
C1292 C1295 1.539 . S
C1293 C1289 1.408 . S
C1293 C1292 1.404 . S
C1293 H1305 0.930 . S
C1294 C1290 1.524 . S
C1294 H1306 0.956 . S
C1294 H1307 0.961 . S
C1294 H1308 0.961 . S
C1295 C1292 1.539 . S
C1295 H1309 0.958 . S
C1295 H1310 0.961 . S
C1295 H1311 0.960 . S
H1296 C1280 0.931 . S
H1297 C1285 0.928 1_455 S
H1298 C1286 0.987 . S
H1299 C1286 0.962 . S
H1300 C1286 0.960 . S
H1301 C1287 0.961 . S
H1302 C1287 0.961 . S
H1303 C1287 0.961 . S
H1304 C1288 0.931 . S
H1305 C1293 0.930 . S
H1306 C1294 0.956 . S
H1307 C1294 0.961 . S
H1308 C1294 0.961 . S
H1309 C1295 0.958 . S
H1310 C1295 0.961 . S
H1311 C1295 0.960 . S
C1312 C1313 1.391 . S
C1312 C1314 1.394 1_655 S
C1312 H1328 0.931 . S
C1313 C1312 1.391 . S
C1313 C1317 1.376 . S
C1314 C1312 1.394 1_455 S
C1314 C1315 1.369 . S
C1314 C1318 1.531 . S
C1315 C1314 1.369 . S
C1315 C1316 1.410 . S
C1315 C1323 1.503 . S
C1316 C1315 1.410 . S
C1316 C1317 1.392 1_455 S
C1316 C1319 1.511 . S
C1317 C1313 1.376 . S
C1317 C1316 1.392 1_655 S
C1317 H1329 0.929 . S
C1318 C1314 1.531 . S
C1318 H1330 0.960 . S
C1318 H1331 0.962 . S
C1318 H1332 0.960 . S
C1319 C1316 1.511 . S
C1319 H1333 0.961 . S
C1319 H1334 0.961 . S
C1319 H1335 0.961 . S
C1320 C1321 1.370 . S
C1320 C1322 1.363 . S
C1320 H1336 0.931 . S
C1321 C1320 1.370 . S
C1321 C1325 1.408 . S
C1322 C1320 1.363 . S
C1322 C1323 1.370 . S
C1322 C1326 1.524 . S
C1323 C1315 1.503 . S
C1323 C1322 1.370 . S
C1323 C1324 1.403 . S
C1324 C1323 1.403 . S
C1324 C1325 1.404 . S
C1324 C1327 1.539 . S
C1325 C1321 1.408 . S
C1325 C1324 1.404 . S
C1325 H1337 0.930 . S
C1326 C1322 1.524 . S
C1326 H1338 0.949 1_455 S
C1326 H1339 0.963 1_455 S
C1326 H1340 0.961 . S
C1327 C1324 1.539 . S
C1327 H1341 0.958 . S
C1327 H1342 0.961 . S
C1327 H1343 0.960 . S
H1328 C1312 0.931 . S
H1329 C1317 0.929 . S
H1330 C1318 0.960 . S
H1331 C1318 0.962 . S
H1332 C1318 0.960 . S
H1333 C1319 0.961 . S
H1334 C1319 0.961 . S
H1335 C1319 0.961 . S
H1336 C1320 0.931 . S
H1337 C1325 0.930 . S
H1338 C1326 0.949 1_655 S
H1339 C1326 0.963 1_655 S
H1340 C1326 0.961 . S
H1341 C1327 0.958 . S
H1342 C1327 0.961 . S
H1343 C1327 0.960 . S
C1344 C1345 1.391 . S
C1344 C1346 1.394 . S
C1344 H1360 0.931 . S
C1345 C1344 1.391 . S
C1345 C1349 1.376 . S
C1346 C1344 1.394 . S
C1346 C1347 1.369 . S
C1346 C1350 1.531 . S
C1347 C1346 1.369 . S
C1347 C1348 1.410 . S
C1347 C1355 1.503 . S
C1348 C1347 1.410 . S
C1348 C1349 1.392 . S
C1348 C1351 1.511 . S
C1349 C1345 1.376 . S
C1349 C1348 1.392 . S
C1349 H1361 0.929 . S
C1350 C1346 1.531 . S
C1350 H1362 0.960 . S
C1350 H1363 0.962 . S
C1350 H1364 0.960 . S
C1351 C1348 1.511 . S
C1351 H1365 0.961 . S
C1351 H1366 0.961 . S
C1351 H1367 0.961 . S
C1352 C1353 1.370 . S
C1352 C1354 1.363 . S
C1352 H1368 0.931 . S
C1353 C1352 1.370 . S
C1353 C1357 1.408 . S
C1354 C1352 1.363 . S
C1354 C1355 1.370 . S
C1354 C1358 1.524 . S
C1355 C1347 1.503 . S
C1355 C1354 1.370 . S
C1355 C1356 1.403 . S
C1356 C1355 1.403 . S
C1356 C1357 1.404 . S
C1356 C1359 1.539 . S
C1357 C1353 1.408 . S
C1357 C1356 1.404 . S
C1357 H1369 0.930 . S
C1358 C1354 1.524 . S
C1358 H1370 0.956 . S
C1358 H1371 0.961 . S
C1358 H1372 0.961 . S
C1359 C1356 1.539 . S
C1359 H1373 0.958 . S
C1359 H1374 0.961 . S
C1359 H1375 0.960 . S
H1360 C1344 0.931 . S
H1361 C1349 0.929 . S
H1362 C1350 0.960 . S
H1363 C1350 0.962 . S
H1364 C1350 0.960 . S
H1365 C1351 0.961 . S
H1366 C1351 0.961 . S
H1367 C1351 0.961 . S
H1368 C1352 0.931 . S
H1369 C1357 0.930 . S
H1370 C1358 0.956 . S
H1371 C1358 0.961 . S
H1372 C1358 0.961 . S
H1373 C1359 0.958 . S
H1374 C1359 0.961 . S
H1375 C1359 0.960 . S
C1376 C1377 1.391 . S
C1376 C1378 1.394 . S
C1376 H1392 0.931 . S
C1377 C1376 1.391 . S
C1377 C1381 1.376 . S
C1378 C1376 1.394 . S
C1378 C1379 1.369 . S
C1378 C1382 1.531 . S
C1379 C1378 1.369 . S
C1379 C1380 1.410 . S
C1379 C1387 1.503 . S
C1380 C1379 1.410 . S
C1380 C1381 1.392 . S
C1380 C1383 1.511 . S
C1381 C1377 1.376 . S
C1381 C1380 1.392 . S
C1381 H1393 0.929 . S
C1382 C1378 1.531 . S
C1382 H1394 0.960 . S
C1382 H1395 0.962 . S
C1382 H1396 0.960 . S
C1383 C1380 1.511 . S
C1383 H1397 0.961 . S
C1383 H1398 0.961 1_655 S
C1383 H1399 0.959 1_655 S
C1384 C1385 1.370 . S
C1384 C1386 1.363 1_455 S
C1384 H1400 0.931 . S
C1385 C1384 1.370 . S
C1385 C1389 1.408 . S
C1386 C1384 1.363 1_655 S
C1386 C1387 1.370 . S
C1386 C1390 1.524 . S
C1387 C1379 1.503 . S
C1387 C1386 1.370 . S
C1387 C1388 1.403 1_655 S
C1388 C1387 1.403 1_455 S
C1388 C1389 1.404 . S
C1388 C1391 1.539 1_455 S
C1389 C1385 1.408 . S
C1389 C1388 1.404 . S
C1389 H1401 0.930 . S
C1390 C1386 1.524 . S
C1390 H1402 0.956 . S
C1390 H1403 0.961 . S
C1390 H1404 0.961 . S
C1391 C1388 1.539 1_655 S
C1391 H1405 0.958 . S
C1391 H1406 0.961 1_655 S
C1391 H1407 0.960 . S
H1392 C1376 0.931 . S
H1393 C1381 0.929 . S
H1394 C1382 0.960 . S
H1395 C1382 0.962 . S
H1396 C1382 0.960 . S
H1397 C1383 0.961 . S
H1398 C1383 0.961 1_455 S
H1399 C1383 0.959 1_455 S
H1400 C1384 0.931 . S
H1401 C1389 0.930 . S
H1402 C1390 0.956 . S
H1403 C1390 0.961 . S
H1404 C1390 0.961 . S
H1405 C1391 0.958 . S
H1406 C1391 0.961 1_455 S
H1407 C1391 0.960 . S
C1408 C1409 1.391 . S
C1408 C1410 1.394 . S
C1408 H1424 0.931 . S
C1409 C1408 1.391 . S
C1409 C1413 1.376 . S
C1410 C1408 1.394 . S
C1410 C1411 1.369 . S
C1410 C1414 1.531 . S
C1411 C1410 1.369 . S
C1411 C1412 1.410 . S
C1411 C1419 1.503 . S
C1412 C1411 1.410 . S
C1412 C1413 1.392 . S
C1412 C1415 1.511 . S
C1413 C1409 1.376 . S
C1413 C1412 1.392 . S
C1413 H1425 0.929 . S
C1414 C1410 1.531 . S
C1414 H1426 0.960 . S
C1414 H1427 0.962 . S
C1414 H1428 0.960 . S
C1415 C1412 1.511 . S
C1415 H1429 0.961 . S
C1415 H1430 0.961 . S
C1415 H1431 0.961 . S
C1416 C1417 1.370 . S
C1416 C1418 1.363 . S
C1416 H1432 0.931 . S
C1417 C1416 1.370 . S
C1417 C1421 1.408 . S
C1418 C1416 1.363 . S
C1418 C1419 1.370 . S
C1418 C1422 1.524 . S
C1419 C1411 1.503 . S
C1419 C1418 1.370 . S
C1419 C1420 1.403 . S
C1420 C1419 1.403 . S
C1420 C1421 1.404 . S
C1420 C1423 1.539 . S
C1421 C1417 1.408 . S
C1421 C1420 1.404 . S
C1421 H1433 0.930 . S
C1422 C1418 1.524 . S
C1422 H1434 0.956 . S
C1422 H1435 0.961 . S
C1422 H1436 0.961 . S
C1423 C1420 1.539 . S
C1423 H1437 0.958 . S
C1423 H1438 0.961 . S
C1423 H1439 0.960 . S
H1424 C1408 0.931 . S
H1425 C1413 0.929 . S
H1426 C1414 0.960 . S
H1427 C1414 0.962 . S
H1428 C1414 0.960 . S
H1429 C1415 0.961 . S
H1430 C1415 0.961 . S
H1431 C1415 0.961 . S
H1432 C1416 0.931 . S
H1433 C1421 0.930 . S
H1434 C1422 0.956 . S
H1435 C1422 0.961 . S
H1436 C1422 0.961 . S
H1437 C1423 0.958 . S
H1438 C1423 0.961 . S
H1439 C1423 0.960 . S
C1440 C1441 1.391 . S
C1440 C1442 1.394 . S
C1440 H1456 0.931 . S
C1441 C1440 1.391 . S
C1441 C1445 1.376 . S
C1442 C1440 1.394 . S
C1442 C1443 1.369 . S
C1442 C1446 1.531 . S
C1443 C1442 1.369 . S
C1443 C1444 1.410 . S
C1443 C1451 1.503 . S
C1444 C1443 1.410 . S
C1444 C1445 1.392 . S
C1444 C1447 1.511 . S
C1445 C1441 1.376 . S
C1445 C1444 1.392 . S
C1445 H1457 0.929 . S
C1446 C1442 1.531 . S
C1446 H1458 0.960 . S
C1446 H1459 0.962 . S
C1446 H1460 0.960 . S
C1447 C1444 1.511 . S
C1447 H1461 0.961 1_545 S
C1447 H1462 0.961 1_545 S
C1447 H1463 0.961 . S
C1448 C1449 1.370 . S
C1448 C1450 1.363 . S
C1448 H1464 0.931 . S
C1449 C1448 1.370 . S
C1449 C1453 1.408 . S
C1450 C1448 1.363 . S
C1450 C1451 1.370 1_565 S
C1450 C1454 1.524 . S
C1451 C1443 1.503 . S
C1451 C1450 1.370 1_545 S
C1451 C1452 1.403 . S
C1452 C1451 1.403 . S
C1452 C1453 1.404 1_545 S
C1452 C1455 1.539 . S
C1453 C1449 1.408 . S
C1453 C1452 1.404 1_565 S
C1453 H1465 0.930 . S
C1454 C1450 1.524 . S
C1454 H1466 0.956 . S
C1454 H1467 0.961 . S
C1454 H1468 0.961 . S
C1455 C1452 1.539 . S
C1455 H1469 0.958 . S
C1455 H1470 0.961 . S
C1455 H1471 0.960 . S
H1456 C1440 0.931 . S
H1457 C1445 0.929 . S
H1458 C1446 0.960 . S
H1459 C1446 0.962 . S
H1460 C1446 0.960 . S
H1461 C1447 0.961 1_565 S
H1462 C1447 0.961 1_565 S
H1463 C1447 0.961 . S
H1464 C1448 0.931 . S
H1465 C1453 0.930 . S
H1466 C1454 0.956 . S
H1467 C1454 0.961 . S
H1468 C1454 0.961 . S
H1469 C1455 0.958 . S
H1470 C1455 0.961 . S
H1471 C1455 0.960 . S
C1472 C1473 1.391 . S
C1472 C1474 1.394 . S
C1472 H1488 0.931 . S
C1473 C1472 1.391 . S
C1473 C1477 1.376 . S
C1474 C1472 1.394 . S
C1474 C1475 1.369 . S
C1474 C1478 1.531 . S
C1475 C1474 1.369 . S
C1475 C1476 1.410 . S
C1475 C1483 1.503 . S
C1476 C1475 1.410 . S
C1476 C1477 1.392 . S
C1476 C1479 1.511 . S
C1477 C1473 1.376 . S
C1477 C1476 1.392 . S
C1477 H1489 0.929 . S
C1478 C1474 1.531 . S
C1478 H1490 0.960 . S
C1478 H1491 0.962 . S
C1478 H1492 0.960 . S
C1479 C1476 1.511 . S
C1479 H1493 0.961 . S
C1479 H1494 0.961 . S
C1479 H1495 0.961 . S
C1480 C1481 1.370 . S
C1480 C1482 1.363 . S
C1480 H1496 0.931 . S
C1481 C1480 1.370 . S
C1481 C1485 1.408 . S
C1482 C1480 1.363 . S
C1482 C1483 1.370 . S
C1482 C1486 1.524 . S
C1483 C1475 1.503 . S
C1483 C1482 1.370 . S
C1483 C1484 1.403 . S
C1484 C1483 1.403 . S
C1484 C1485 1.404 . S
C1484 C1487 1.539 . S
C1485 C1481 1.408 . S
C1485 C1484 1.404 . S
C1485 H1497 0.930 . S
C1486 C1482 1.524 . S
C1486 H1498 0.956 . S
C1486 H1499 0.961 . S
C1486 H1500 0.961 . S
C1487 C1484 1.539 . S
C1487 H1501 0.958 . S
C1487 H1502 0.961 . S
C1487 H1503 0.960 . S
H1488 C1472 0.931 . S
H1489 C1477 0.929 . S
H1490 C1478 0.960 . S
H1491 C1478 0.962 . S
H1492 C1478 0.960 . S
H1493 C1479 0.961 . S
H1494 C1479 0.961 . S
H1495 C1479 0.961 . S
H1496 C1480 0.931 . S
H1497 C1485 0.930 . S
H1498 C1486 0.956 . S
H1499 C1486 0.961 . S
H1500 C1486 0.961 . S
H1501 C1487 0.958 . S
H1502 C1487 0.961 . S
H1503 C1487 0.960 . S
C1504 C1505 1.391 . S
C1504 C1506 1.394 1_565 S
C1504 H1520 0.931 . S
C1505 C1504 1.391 . S
C1505 C1509 1.376 . S
C1506 C1504 1.394 1_545 S
C1506 C1507 1.369 1_545 S
C1506 C1510 1.531 . S
C1507 C1506 1.369 1_565 S
C1507 C1508 1.410 . S
C1507 C1515 1.503 1_565 S
C1508 C1507 1.410 . S
C1508 C1509 1.392 . S
C1508 C1511 1.511 . S
C1509 C1505 1.376 . S
C1509 C1508 1.392 . S
C1509 H1521 0.929 . S
C1510 C1506 1.531 . S
C1510 H1522 0.960 . S
C1510 H1523 0.962 . S
C1510 H1524 0.960 . S
C1511 C1508 1.511 . S
C1511 H1525 0.961 . S
C1511 H1526 0.961 . S
C1511 H1527 0.961 . S
C1512 C1513 1.370 . S
C1512 C1514 1.363 . S
C1512 H1528 0.931 . S
C1513 C1512 1.370 . S
C1513 C1517 1.408 . S
C1514 C1512 1.363 . S
C1514 C1515 1.370 . S
C1514 C1518 1.524 . S
C1515 C1507 1.503 1_545 S
C1515 C1514 1.370 . S
C1515 C1516 1.403 . S
C1516 C1515 1.403 . S
C1516 C1517 1.404 . S
C1516 C1519 1.539 . S
C1517 C1513 1.408 . S
C1517 C1516 1.404 . S
C1517 H1529 0.930 . S
C1518 C1514 1.524 . S
C1518 H1530 0.956 . S
C1518 H1531 0.961 . S
C1518 H1532 0.961 . S
C1519 C1516 1.539 . S
C1519 H1533 0.958 . S
C1519 H1534 0.961 . S
C1519 H1535 0.960 1_545 S
H1520 C1504 0.931 . S
H1521 C1509 0.929 . S
H1522 C1510 0.960 . S
H1523 C1510 0.962 . S
H1524 C1510 0.960 . S
H1525 C1511 0.961 . S
H1526 C1511 0.961 . S
H1527 C1511 0.961 . S
H1528 C1512 0.931 . S
H1529 C1517 0.930 . S
H1530 C1518 0.956 . S
H1531 C1518 0.961 . S
H1532 C1518 0.961 . S
H1533 C1519 0.958 . S
H1534 C1519 0.961 . S
H1535 C1519 0.960 1_565 S
C1536 C1537 1.391 . S
C1536 C1538 1.394 . S
C1536 H1552 0.931 . S
C1537 C1536 1.391 . S
C1537 C1541 1.376 . S
C1538 C1536 1.394 . S
C1538 C1539 1.369 . S
C1538 C1542 1.531 1_556 S
C1539 C1538 1.369 . S
C1539 C1540 1.410 . S
C1539 C1547 1.503 1_556 S
C1540 C1539 1.410 . S
C1540 C1541 1.392 . S
C1540 C1543 1.511 . S
C1541 C1537 1.376 . S
C1541 C1540 1.392 . S
C1541 H1553 0.929 . S
C1542 C1538 1.531 1_554 S
C1542 H1554 0.960 . S
C1542 H1555 0.962 . S
C1542 H1556 0.960 . S
C1543 C1540 1.511 . S
C1543 H1557 0.961 . S
C1543 H1558 0.961 . S
C1543 H1559 0.961 . S
C1544 C1545 1.370 . S
C1544 C1546 1.363 . S
C1544 H1560 0.931 . S
C1545 C1544 1.370 . S
C1545 C1549 1.408 . S
C1546 C1544 1.363 . S
C1546 C1547 1.370 . S
C1546 C1550 1.524 . S
C1547 C1539 1.503 1_554 S
C1547 C1546 1.370 . S
C1547 C1548 1.403 . S
C1548 C1547 1.403 . S
C1548 C1549 1.404 . S
C1548 C1551 1.539 1_554 S
C1549 C1545 1.408 . S
C1549 C1548 1.404 . S
C1549 H1561 0.930 . S
C1550 C1546 1.524 . S
C1550 H1562 0.956 . S
C1550 H1563 0.961 . S
C1550 H1564 0.961 . S
C1551 C1548 1.539 1_556 S
C1551 H1565 0.953 1_556 S
C1551 H1566 0.961 . S
C1551 H1567 0.960 . S
H1552 C1536 0.931 . S
H1553 C1541 0.929 . S
H1554 C1542 0.960 . S
H1555 C1542 0.962 . S
H1556 C1542 0.960 . S
H1557 C1543 0.961 . S
H1558 C1543 0.961 . S
H1559 C1543 0.961 . S
H1560 C1544 0.931 . S
H1561 C1549 0.930 . S
H1562 C1550 0.956 . S
H1563 C1550 0.961 . S
H1564 C1550 0.961 . S
H1565 C1551 0.953 1_554 S
H1566 C1551 0.961 . S
H1567 C1551 0.960 . S
C1568 C1569 1.391 . S
C1568 C1570 1.394 . S
C1568 H1584 0.931 . S
C1569 C1568 1.391 . S
C1569 C1573 1.376 . S
C1570 C1568 1.394 . S
C1570 C1571 1.369 . S
C1570 C1574 1.531 . S
C1571 C1570 1.369 . S
C1571 C1572 1.410 . S
C1571 C1579 1.503 1_545 S
C1572 C1571 1.410 . S
C1572 C1573 1.392 . S
C1572 C1575 1.511 1_545 S
C1573 C1569 1.376 . S
C1573 C1572 1.392 . S
C1573 H1585 0.929 . S
C1574 C1570 1.531 . S
C1574 H1586 0.960 1_545 S
C1574 H1587 0.962 . S
C1574 H1588 0.960 . S
C1575 C1572 1.511 1_565 S
C1575 H1589 0.973 . S
C1575 H1590 0.961 . S
C1575 H1591 0.961 . S
C1576 C1577 1.370 . S
C1576 C1578 1.363 . S
C1576 H1592 0.931 . S
C1577 C1576 1.370 . S
C1577 C1581 1.408 . S
C1578 C1576 1.363 . S
C1578 C1579 1.370 . S
C1578 C1582 1.524 1_565 S
C1579 C1571 1.503 1_565 S
C1579 C1578 1.370 . S
C1579 C1580 1.403 . S
C1580 C1579 1.403 . S
C1580 C1581 1.404 . S
C1580 C1583 1.539 . S
C1581 C1577 1.408 . S
C1581 C1580 1.404 . S
C1581 H1593 0.930 . S
C1582 C1578 1.524 1_545 S
C1582 H1594 0.956 . S
C1582 H1595 0.961 . S
C1582 H1596 0.961 . S
C1583 C1580 1.539 . S
C1583 H1597 0.958 . S
C1583 H1598 0.961 . S
C1583 H1599 0.960 . S
H1584 C1568 0.931 . S
H1585 C1573 0.929 . S
H1586 C1574 0.960 1_565 S
H1587 C1574 0.962 . S
H1588 C1574 0.960 . S
H1589 C1575 0.973 . S
H1590 C1575 0.961 . S
H1591 C1575 0.961 . S
H1592 C1576 0.931 . S
H1593 C1581 0.930 . S
H1594 C1582 0.956 . S
H1595 C1582 0.961 . S
H1596 C1582 0.961 . S
H1597 C1583 0.958 . S
H1598 C1583 0.961 . S
H1599 C1583 0.960 . S
C1600 C1601 1.391 . S
C1600 C1602 1.394 . S
C1600 H1616 0.931 . S
C1601 C1600 1.391 . S
C1601 C1605 1.376 . S
C1602 C1600 1.394 . S
C1602 C1603 1.369 . S
C1602 C1606 1.531 . S
C1603 C1602 1.369 . S
C1603 C1604 1.410 . S
C1603 C1611 1.503 . S
C1604 C1603 1.410 . S
C1604 C1605 1.392 . S
C1604 C1607 1.511 . S
C1605 C1601 1.376 . S
C1605 C1604 1.392 . S
C1605 H1617 0.929 . S
C1606 C1602 1.531 . S
C1606 H1618 0.960 . S
C1606 H1619 0.962 . S
C1606 H1620 0.960 . S
C1607 C1604 1.511 . S
C1607 H1621 0.961 . S
C1607 H1622 0.961 . S
C1607 H1623 0.961 . S
C1608 C1609 1.370 . S
C1608 C1610 1.363 . S
C1608 H1624 0.931 . S
C1609 C1608 1.370 . S
C1609 C1613 1.408 . S
C1610 C1608 1.363 . S
C1610 C1611 1.370 . S
C1610 C1614 1.524 . S
C1611 C1603 1.503 . S
C1611 C1610 1.370 . S
C1611 C1612 1.403 . S
C1612 C1611 1.403 . S
C1612 C1613 1.404 . S
C1612 C1615 1.539 . S
C1613 C1609 1.408 . S
C1613 C1612 1.404 . S
C1613 H1625 0.930 . S
C1614 C1610 1.524 . S
C1614 H1626 0.956 . S
C1614 H1627 0.961 . S
C1614 H1628 0.961 . S
C1615 C1612 1.539 . S
C1615 H1629 0.958 . S
C1615 H1630 0.961 . S
C1615 H1631 0.960 . S
H1616 C1600 0.931 . S
H1617 C1605 0.929 . S
H1618 C1606 0.960 . S
H1619 C1606 0.962 . S
H1620 C1606 0.960 . S
H1621 C1607 0.961 . S
H1622 C1607 0.961 . S
H1623 C1607 0.961 . S
H1624 C1608 0.931 . S
H1625 C1613 0.930 . S
H1626 C1614 0.956 . S
H1627 C1614 0.961 . S
H1628 C1614 0.961 . S
H1629 C1615 0.958 . S
H1630 C1615 0.961 . S
H1631 C1615 0.960 . S
C1632 C1633 1.391 . S
C1632 C1634 1.394 . S
C1632 H1648 0.931 . S
C1633 C1632 1.391 . S
C1633 C1637 1.376 . S
C1634 C1632 1.394 . S
C1634 C1635 1.369 1_565 S
C1634 C1638 1.531 1_565 S
C1635 C1634 1.369 1_545 S
C1635 C1636 1.410 1_545 S
C1635 C1643 1.503 . S
C1636 C1635 1.410 1_565 S
C1636 C1637 1.392 . S
C1636 C1639 1.511 . S
C1637 C1633 1.376 . S
C1637 C1636 1.392 . S
C1637 H1649 0.929 . S
C1638 C1634 1.531 1_545 S
C1638 H1650 0.960 . S
C1638 H1651 0.962 . S
C1638 H1652 0.960 . S
C1639 C1636 1.511 . S
C1639 H1653 0.961 . S
C1639 H1654 0.961 1_565 S
C1639 H1655 0.961 1_565 S
C1640 C1641 1.370 . S
C1640 C1642 1.363 . S
C1640 H1656 0.931 . S
C1641 C1640 1.370 . S
C1641 C1645 1.408 . S
C1642 C1640 1.363 . S
C1642 C1643 1.370 . S
C1642 C1646 1.524 1_545 S
C1643 C1635 1.503 . S
C1643 C1642 1.370 . S
C1643 C1644 1.403 . S
C1644 C1643 1.403 . S
C1644 C1645 1.404 . S
C1644 C1647 1.539 . S
C1645 C1641 1.408 . S
C1645 C1644 1.404 . S
C1645 H1657 0.930 . S
C1646 C1642 1.524 1_565 S
C1646 H1658 0.956 . S
C1646 H1659 0.961 . S
C1646 H1660 0.961 . S
C1647 C1644 1.539 . S
C1647 H1661 0.958 . S
C1647 H1662 0.961 . S
C1647 H1663 0.960 . S
H1648 C1632 0.931 . S
H1649 C1637 0.929 . S
H1650 C1638 0.960 . S
H1651 C1638 0.962 . S
H1652 C1638 0.960 . S
H1653 C1639 0.961 . S
H1654 C1639 0.961 1_545 S
H1655 C1639 0.961 1_545 S
H1656 C1640 0.931 . S
H1657 C1645 0.930 . S
H1658 C1646 0.956 . S
H1659 C1646 0.961 . S
H1660 C1646 0.961 . S
H1661 C1647 0.958 . S
H1662 C1647 0.961 . S
H1663 C1647 0.960 . S
C1664 C1665 1.391 1_556 S
C1664 C1666 1.394 . S
C1664 H1680 0.931 . S
C1665 C1664 1.391 1_554 S
C1665 C1669 1.376 . S
C1666 C1664 1.394 . S
C1666 C1667 1.369 . S
C1666 C1670 1.531 . S
C1667 C1666 1.369 . S
C1667 C1668 1.410 1_556 S
C1667 C1675 1.503 . S
C1668 C1667 1.410 1_554 S
C1668 C1669 1.392 . S
C1668 C1671 1.511 . S
C1669 C1665 1.376 . S
C1669 C1668 1.392 . S
C1669 H1681 0.929 . S
C1670 C1666 1.531 . S
C1670 H1682 0.960 . S
C1670 H1683 0.962 . S
C1670 H1684 0.960 . S
C1671 C1668 1.511 . S
C1671 H1685 0.961 . S
C1671 H1686 0.961 . S
C1671 H1687 0.961 . S
C1672 C1673 1.370 . S
C1672 C1674 1.363 . S
C1672 H1688 0.931 . S
C1673 C1672 1.370 . S
C1673 C1677 1.408 . S
C1674 C1672 1.363 . S
C1674 C1675 1.370 . S
C1674 C1678 1.524 . S
C1675 C1667 1.503 . S
C1675 C1674 1.370 . S
C1675 C1676 1.403 . S
C1676 C1675 1.403 . S
C1676 C1677 1.404 . S
C1676 C1679 1.539 . S
C1677 C1673 1.408 . S
C1677 C1676 1.404 . S
C1677 H1689 0.930 . S
C1678 C1674 1.524 . S
C1678 H1690 0.956 . S
C1678 H1691 0.961 1_556 S
C1678 H1692 0.961 . S
C1679 C1676 1.539 . S
C1679 H1693 0.958 . S
C1679 H1694 0.961 . S
C1679 H1695 0.960 . S
H1680 C1664 0.931 . S
H1681 C1669 0.929 . S
H1682 C1670 0.960 . S
H1683 C1670 0.962 . S
H1684 C1670 0.960 . S
H1685 C1671 0.961 . S
H1686 C1671 0.961 . S
H1687 C1671 0.961 . S
H1688 C1672 0.931 . S
H1689 C1677 0.930 . S
H1690 C1678 0.956 . S
H1691 C1678 0.961 1_554 S
H1692 C1678 0.961 . S
H1693 C1679 0.958 . S
H1694 C1679 0.961 . S
H1695 C1679 0.960 . S
C1696 C1697 1.391 . S
C1696 C1698 1.394 1_655 S
C1696 H1712 0.931 . S
C1697 C1696 1.391 . S
C1697 C1701 1.376 . S
C1698 C1696 1.394 1_455 S
C1698 C1699 1.369 . S
C1698 C1702 1.531 . S
C1699 C1698 1.369 . S
C1699 C1700 1.410 . S
C1699 C1707 1.503 . S
C1700 C1699 1.410 . S
C1700 C1701 1.392 1_455 S
C1700 C1703 1.511 . S
C1701 C1697 1.376 . S
C1701 C1700 1.392 1_655 S
C1701 H1713 0.929 . S
C1702 C1698 1.531 . S
C1702 H1714 0.960 . S
C1702 H1715 0.962 . S
C1702 H1716 0.960 . S
C1703 C1700 1.511 . S
C1703 H1717 0.961 . S
C1703 H1718 0.961 . S
C1703 H1719 0.961 . S
C1704 C1705 1.370 . S
C1704 C1706 1.363 . S
C1704 H1720 0.931 . S
C1705 C1704 1.370 . S
C1705 C1709 1.408 . S
C1706 C1704 1.363 . S
C1706 C1707 1.370 . S
C1706 C1710 1.524 . S
C1707 C1699 1.503 . S
C1707 C1706 1.370 . S
C1707 C1708 1.403 . S
C1708 C1707 1.403 . S
C1708 C1709 1.404 . S
C1708 C1711 1.539 . S
C1709 C1705 1.408 . S
C1709 C1708 1.404 . S
C1709 H1721 0.930 . S
C1710 C1706 1.524 . S
C1710 H1722 0.956 . S
C1710 H1723 0.961 . S
C1710 H1724 0.961 . S
C1711 C1708 1.539 . S
C1711 H1725 0.958 . S
C1711 H1726 0.961 . S
C1711 H1727 0.960 . S
H1712 C1696 0.931 . S
H1713 C1701 0.929 . S
H1714 C1702 0.960 . S
H1715 C1702 0.962 . S
H1716 C1702 0.960 . S
H1717 C1703 0.961 . S
H1718 C1703 0.961 . S
H1719 C1703 0.961 . S
H1720 C1704 0.931 . S
H1721 C1709 0.930 . S
H1722 C1710 0.956 . S
H1723 C1710 0.961 . S
H1724 C1710 0.961 . S
H1725 C1711 0.958 . S
H1726 C1711 0.961 . S
H1727 C1711 0.960 . S
C1728 C1729 1.391 . S
C1728 C1730 1.394 . S
C1728 H1744 0.931 . S
C1729 C1728 1.391 . S
C1729 C1733 1.376 . S
C1730 C1728 1.394 . S
C1730 C1731 1.369 . S
C1730 C1734 1.531 . S
C1731 C1730 1.369 . S
C1731 C1732 1.410 . S
C1731 C1739 1.503 . S
C1732 C1731 1.410 . S
C1732 C1733 1.392 . S
C1732 C1735 1.511 . S
C1733 C1729 1.376 . S
C1733 C1732 1.392 . S
C1733 H1745 0.929 . S
C1734 C1730 1.531 . S
C1734 H1746 0.960 . S
C1734 H1747 0.962 . S
C1734 H1748 0.960 . S
C1735 C1732 1.511 . S
C1735 H1749 0.961 . S
C1735 H1750 0.961 . S
C1735 H1751 0.961 . S
C1736 C1737 1.370 . S
C1736 C1738 1.363 . S
C1736 H1752 0.931 . S
C1737 C1736 1.370 . S
C1737 C1741 1.408 . S
C1738 C1736 1.363 . S
C1738 C1739 1.370 . S
C1738 C1742 1.524 . S
C1739 C1731 1.503 . S
C1739 C1738 1.370 . S
C1739 C1740 1.403 . S
C1740 C1739 1.403 . S
C1740 C1741 1.404 . S
C1740 C1743 1.539 . S
C1741 C1737 1.408 . S
C1741 C1740 1.404 . S
C1741 H1753 0.930 . S
C1742 C1738 1.524 . S
C1742 H1754 0.956 . S
C1742 H1755 0.961 . S
C1742 H1756 0.961 . S
C1743 C1740 1.539 . S
C1743 H1757 0.958 . S
C1743 H1758 0.961 . S
C1743 H1759 0.960 . S
H1744 C1728 0.931 . S
H1745 C1733 0.929 . S
H1746 C1734 0.960 . S
H1747 C1734 0.962 . S
H1748 C1734 0.960 . S
H1749 C1735 0.961 . S
H1750 C1735 0.961 . S
H1751 C1735 0.961 . S
H1752 C1736 0.931 . S
H1753 C1741 0.930 . S
H1754 C1742 0.956 . S
H1755 C1742 0.961 . S
H1756 C1742 0.961 . S
H1757 C1743 0.958 . S
H1758 C1743 0.961 . S
H1759 C1743 0.960 . S
C1760 C1761 1.391 1_655 S
C1760 C1762 1.394 . S
C1760 H1776 0.931 . S
C1761 C1760 1.391 1_455 S
C1761 C1765 1.376 . S
C1762 C1760 1.394 . S
C1762 C1763 1.369 . S
C1762 C1766 1.531 . S
C1763 C1762 1.369 . S
C1763 C1764 1.423 . S
C1763 C1771 1.503 . S
C1764 C1763 1.423 . S
C1764 C1765 1.382 1_655 S
C1764 C1767 1.508 1_655 S
C1765 C1761 1.376 . S
C1765 C1764 1.382 1_455 S
C1765 H1777 0.929 . S
C1766 C1762 1.531 . S
C1766 H1778 0.960 . S
C1766 H1779 0.962 . S
C1766 H1780 0.960 . S
C1767 C1764 1.508 1_455 S
C1767 H1781 0.961 . S
C1767 H1782 0.961 1_455 S
C1767 H1783 0.961 . S
C1768 C1769 1.370 . S
C1768 C1770 1.363 . S
C1768 H1784 0.931 . S
C1769 C1768 1.370 . S
C1769 C1773 1.408 . S
C1770 C1768 1.363 . S
C1770 C1771 1.370 . S
C1770 C1774 1.524 . S
C1771 C1763 1.503 . S
C1771 C1770 1.370 . S
C1771 C1772 1.403 . S
C1772 C1771 1.403 . S
C1772 C1773 1.404 . S
C1772 C1775 1.539 . S
C1773 C1769 1.408 . S
C1773 C1772 1.404 . S
C1773 H1785 0.930 . S
C1774 C1770 1.524 . S
C1774 H1786 0.956 . S
C1774 H1787 0.961 . S
C1774 H1788 0.961 . S
C1775 C1772 1.539 . S
C1775 H1789 0.958 . S
C1775 H1790 0.961 . S
C1775 H1791 0.960 . S
H1776 C1760 0.931 . S
H1777 C1765 0.929 . S
H1778 C1766 0.960 . S
H1779 C1766 0.962 . S
H1780 C1766 0.960 . S
H1781 C1767 0.961 . S
H1782 C1767 0.961 1_655 S
H1783 C1767 0.961 . S
H1784 C1768 0.931 . S
H1785 C1773 0.930 . S
H1786 C1774 0.956 . S
H1787 C1774 0.961 . S
H1788 C1774 0.961 . S
H1789 C1775 0.958 . S
H1790 C1775 0.961 . S
H1791 C1775 0.960 . S
C1792 C1793 1.391 . S
C1792 C1794 1.386 1_455 S
C1792 H1808 0.931 . S
C1793 C1792 1.391 . S
C1793 C1797 1.376 1_455 S
C1794 C1792 1.386 1_655 S
C1794 C1795 1.377 . S
C1794 C1798 1.532 1_655 S
C1795 C1794 1.377 . S
C1795 C1796 1.410 . S
C1795 C1803 1.503 . S
C1796 C1795 1.410 . S
C1796 C1797 1.392 . S
C1796 C1799 1.511 . S
C1797 C1793 1.376 1_655 S
C1797 C1796 1.392 . S
C1797 H1809 0.929 . S
C1798 C1794 1.532 1_455 S
C1798 H1810 0.945 1_455 S
C1798 H1811 0.942 1_455 S
C1798 H1812 0.996 . S
C1799 C1796 1.511 . S
C1799 H1813 0.961 . S
C1799 H1814 0.961 . S
C1799 H1815 0.961 . S
C1800 C1801 1.370 . S
C1800 C1802 1.363 . S
C1800 H1816 0.931 . S
C1801 C1800 1.370 . S
C1801 C1805 1.408 . S
C1802 C1800 1.363 . S
C1802 C1803 1.370 . S
C1802 C1806 1.524 . S
C1803 C1795 1.503 . S
C1803 C1802 1.370 . S
C1803 C1804 1.403 . S
C1804 C1803 1.403 . S
C1804 C1805 1.404 . S
C1804 C1807 1.539 . S
C1805 C1801 1.408 . S
C1805 C1804 1.404 . S
C1805 H1817 0.930 . S
C1806 C1802 1.524 . S
C1806 H1818 0.956 . S
C1806 H1819 0.961 . S
C1806 H1820 0.961 . S
C1807 C1804 1.539 . S
C1807 H1821 0.958 . S
C1807 H1822 0.961 . S
C1807 H1823 0.960 . S
H1808 C1792 0.931 . S
H1809 C1797 0.929 . S
H1810 C1798 0.945 1_655 S
H1811 C1798 0.942 1_655 S
H1812 C1798 0.996 . S
H1813 C1799 0.961 . S
H1814 C1799 0.961 . S
H1815 C1799 0.961 . S
H1816 C1800 0.931 . S
H1817 C1805 0.930 . S
H1818 C1806 0.956 . S
H1819 C1806 0.961 . S
H1820 C1806 0.961 . S
H1821 C1807 0.958 . S
H1822 C1807 0.961 . S
H1823 C1807 0.960 . S
C1824 C1825 1.391 . S
C1824 C1826 1.394 . S
C1824 H1840 0.931 . S
C1825 C1824 1.391 . S
C1825 C1829 1.376 . S
C1826 C1824 1.394 . S
C1826 C1827 1.369 . S
C1826 C1830 1.531 . S
C1827 C1826 1.369 . S
C1827 C1828 1.410 . S
C1827 C1835 1.503 . S
C1828 C1827 1.410 . S
C1828 C1829 1.392 . S
C1828 C1831 1.511 . S
C1829 C1825 1.376 . S
C1829 C1828 1.392 . S
C1829 H1841 0.929 . S
C1830 C1826 1.531 . S
C1830 H1842 0.960 . S
C1830 H1843 0.962 . S
C1830 H1844 0.960 . S
C1831 C1828 1.511 . S
C1831 H1845 0.961 . S
C1831 H1846 0.961 . S
C1831 H1847 0.961 . S
C1832 C1833 1.370 . S
C1832 C1834 1.363 . S
C1832 H1848 0.931 . S
C1833 C1832 1.370 . S
C1833 C1837 1.408 . S
C1834 C1832 1.363 . S
C1834 C1835 1.370 . S
C1834 C1838 1.524 . S
C1835 C1827 1.503 . S
C1835 C1834 1.370 . S
C1835 C1836 1.403 . S
C1836 C1835 1.403 . S
C1836 C1837 1.404 . S
C1836 C1839 1.539 . S
C1837 C1833 1.408 . S
C1837 C1836 1.404 . S
C1837 H1849 0.930 . S
C1838 C1834 1.524 . S
C1838 H1850 0.956 . S
C1838 H1851 0.961 . S
C1838 H1852 0.961 . S
C1839 C1836 1.539 . S
C1839 H1853 0.958 . S
C1839 H1854 0.961 . S
C1839 H1855 0.960 . S
H1840 C1824 0.931 . S
H1841 C1829 0.929 . S
H1842 C1830 0.960 . S
H1843 C1830 0.962 . S
H1844 C1830 0.960 . S
H1845 C1831 0.961 . S
H1846 C1831 0.961 . S
H1847 C1831 0.961 . S
H1848 C1832 0.931 . S
H1849 C1837 0.930 . S
H1850 C1838 0.956 . S
H1851 C1838 0.961 . S
H1852 C1838 0.961 . S
H1853 C1839 0.958 . S
H1854 C1839 0.961 . S
H1855 C1839 0.960 . S
C1856 C1857 1.391 . S
C1856 C1858 1.394 . S
C1856 H1872 0.931 . S
C1857 C1856 1.391 . S
C1857 C1861 1.376 . S
C1858 C1856 1.394 . S
C1858 C1859 1.369 1_655 S
C1858 C1862 1.531 . S
C1859 C1858 1.369 1_455 S
C1859 C1860 1.410 . S
C1859 C1867 1.503 . S
C1860 C1859 1.410 . S
C1860 C1861 1.392 1_455 S
C1860 C1863 1.511 . S
C1861 C1857 1.376 . S
C1861 C1860 1.392 1_655 S
C1861 H1873 0.929 . S
C1862 C1858 1.531 . S
C1862 H1874 0.960 1_655 S
C1862 H1875 0.962 . S
C1862 H1876 0.960 . S
C1863 C1860 1.511 . S
C1863 H1877 0.961 . S
C1863 H1878 0.961 . S
C1863 H1879 0.961 . S
C1864 C1865 1.370 . S
C1864 C1866 1.363 . S
C1864 H1880 0.931 . S
C1865 C1864 1.370 . S
C1865 C1869 1.408 . S
C1866 C1864 1.363 . S
C1866 C1867 1.370 . S
C1866 C1870 1.524 . S
C1867 C1859 1.503 . S
C1867 C1866 1.370 . S
C1867 C1868 1.403 . S
C1868 C1867 1.403 . S
C1868 C1869 1.404 . S
C1868 C1871 1.539 . S
C1869 C1865 1.408 . S
C1869 C1868 1.404 . S
C1869 H1881 0.930 . S
C1870 C1866 1.524 . S
C1870 H1882 0.956 . S
C1870 H1883 0.961 . S
C1870 H1884 0.961 . S
C1871 C1868 1.539 . S
C1871 H1885 0.958 . S
C1871 H1886 0.961 . S
C1871 H1887 0.960 . S
H1872 C1856 0.931 . S
H1873 C1861 0.929 . S
H1874 C1862 0.960 1_455 S
H1875 C1862 0.962 . S
H1876 C1862 0.960 . S
H1877 C1863 0.961 . S
H1878 C1863 0.961 . S
H1879 C1863 0.961 . S
H1880 C1864 0.931 . S
H1881 C1869 0.930 . S
H1882 C1870 0.956 . S
H1883 C1870 0.961 . S
H1884 C1870 0.961 . S
H1885 C1871 0.958 . S
H1886 C1871 0.961 . S
H1887 C1871 0.960 . S
C1888 C1889 1.391 . S
C1888 C1890 1.394 . S
C1888 H1904 0.931 . S
C1889 C1888 1.391 . S
C1889 C1893 1.376 . S
C1890 C1888 1.394 . S
C1890 C1891 1.369 . S
C1890 C1894 1.531 . S
C1891 C1890 1.369 . S
C1891 C1892 1.410 . S
C1891 C1899 1.503 . S
C1892 C1891 1.410 . S
C1892 C1893 1.392 . S
C1892 C1895 1.511 . S
C1893 C1889 1.376 . S
C1893 C1892 1.392 . S
C1893 H1905 0.929 . S
C1894 C1890 1.531 . S
C1894 H1906 0.960 . S
C1894 H1907 0.962 . S
C1894 H1908 0.960 . S
C1895 C1892 1.511 . S
C1895 H1909 0.961 . S
C1895 H1910 0.961 . S
C1895 H1911 0.961 . S
C1896 C1897 1.370 . S
C1896 C1898 1.363 . S
C1896 H1912 0.931 . S
C1897 C1896 1.370 . S
C1897 C1901 1.408 . S
C1898 C1896 1.363 . S
C1898 C1899 1.370 . S
C1898 C1902 1.524 . S
C1899 C1891 1.503 . S
C1899 C1898 1.370 . S
C1899 C1900 1.403 . S
C1900 C1899 1.403 . S
C1900 C1901 1.404 . S
C1900 C1903 1.539 . S
C1901 C1897 1.408 . S
C1901 C1900 1.404 . S
C1901 H1913 0.930 . S
C1902 C1898 1.524 . S
C1902 H1914 0.956 . S
C1902 H1915 0.961 . S
C1902 H1916 0.961 . S
C1903 C1900 1.539 . S
C1903 H1917 0.958 . S
C1903 H1918 0.961 . S
C1903 H1919 0.960 . S
H1904 C1888 0.931 . S
H1905 C1893 0.929 . S
H1906 C1894 0.960 . S
H1907 C1894 0.962 . S
H1908 C1894 0.960 . S
H1909 C1895 0.961 . S
H1910 C1895 0.961 . S
H1911 C1895 0.961 . S
H1912 C1896 0.931 . S
H1913 C1901 0.930 . S
H1914 C1902 0.956 . S
H1915 C1902 0.961 . S
H1916 C1902 0.961 . S
H1917 C1903 0.958 . S
H1918 C1903 0.961 . S
H1919 C1903 0.960 . S
C1920 C1921 1.391 . S
C1920 C1922 1.394 . S
C1920 H1936 0.931 . S
C1921 C1920 1.391 . S
C1921 C1925 1.376 . S
C1922 C1920 1.394 . S
C1922 C1923 1.369 . S
C1922 C1926 1.531 . S
C1923 C1922 1.369 . S
C1923 C1924 1.410 . S
C1923 C1931 1.503 . S
C1924 C1923 1.410 . S
C1924 C1925 1.392 . S
C1924 C1927 1.511 . S
C1925 C1921 1.376 . S
C1925 C1924 1.392 . S
C1925 H1937 0.929 . S
C1926 C1922 1.531 . S
C1926 H1938 0.960 . S
C1926 H1939 0.962 . S
C1926 H1940 0.960 . S
C1927 C1924 1.511 . S
C1927 H1941 0.961 . S
C1927 H1942 0.961 . S
C1927 H1943 0.961 . S
C1928 C1929 1.370 . S
C1928 C1930 1.363 . S
C1928 H1944 0.931 . S
C1929 C1928 1.370 . S
C1929 C1933 1.408 . S
C1930 C1928 1.363 . S
C1930 C1931 1.370 . S
C1930 C1934 1.524 . S
C1931 C1923 1.503 . S
C1931 C1930 1.370 . S
C1931 C1932 1.403 . S
C1932 C1931 1.403 . S
C1932 C1933 1.404 . S
C1932 C1935 1.539 . S
C1933 C1929 1.408 . S
C1933 C1932 1.404 . S
C1933 H1945 0.930 . S
C1934 C1930 1.524 . S
C1934 H1946 0.956 . S
C1934 H1947 0.961 . S
C1934 H1948 0.961 . S
C1935 C1932 1.539 . S
C1935 H1949 0.958 . S
C1935 H1950 0.961 . S
C1935 H1951 0.960 . S
H1936 C1920 0.931 . S
H1937 C1925 0.929 . S
H1938 C1926 0.960 . S
H1939 C1926 0.962 . S
H1940 C1926 0.960 . S
H1941 C1927 0.961 . S
H1942 C1927 0.961 . S
H1943 C1927 0.961 . S
H1944 C1928 0.931 . S
H1945 C1933 0.930 . S
H1946 C1934 0.956 . S
H1947 C1934 0.961 . S
H1948 C1934 0.961 . S
H1949 C1935 0.958 . S
H1950 C1935 0.961 . S
H1951 C1935 0.960 . S
C1952 C1953 1.391 . S
C1952 C1954 1.394 . S
C1952 H1968 0.931 . S
C1953 C1952 1.391 . S
C1953 C1957 1.376 . S
C1954 C1952 1.394 . S
C1954 C1955 1.369 . S
C1954 C1958 1.531 . S
C1955 C1954 1.369 . S
C1955 C1956 1.410 . S
C1955 C1963 1.503 1_554 S
C1956 C1955 1.410 . S
C1956 C1957 1.392 . S
C1956 C1959 1.511 . S
C1957 C1953 1.376 . S
C1957 C1956 1.392 . S
C1957 H1969 0.929 . S
C1958 C1954 1.531 . S
C1958 H1970 0.960 1_554 S
C1958 H1971 0.962 . S
C1958 H1972 0.960 . S
C1959 C1956 1.511 . S
C1959 H1973 0.961 . S
C1959 H1974 0.966 . S
C1959 H1975 0.961 1_554 S
C1960 C1961 1.370 . S
C1960 C1962 1.363 1_556 S
C1960 H1976 0.931 . S
C1961 C1960 1.370 . S
C1961 C1965 1.408 . S
C1962 C1960 1.363 1_554 S
C1962 C1963 1.370 1_554 S
C1962 C1966 1.524 . S
C1963 C1955 1.503 1_556 S
C1963 C1962 1.370 1_556 S
C1963 C1964 1.403 . S
C1964 C1963 1.403 . S
C1964 C1965 1.404 . S
C1964 C1967 1.539 . S
C1965 C1961 1.408 . S
C1965 C1964 1.404 . S
C1965 H1977 0.930 . S
C1966 C1962 1.524 . S
C1966 H1978 0.956 . S
C1966 H1979 0.961 . S
C1966 H1980 0.961 . S
C1967 C1964 1.539 . S
C1967 H1981 0.958 . S
C1967 H1982 0.961 . S
C1967 H1983 0.960 . S
H1968 C1952 0.931 . S
H1969 C1957 0.929 . S
H1970 C1958 0.960 1_556 S
H1971 C1958 0.962 . S
H1972 C1958 0.960 . S
H1973 C1959 0.961 . S
H1974 C1959 0.966 . S
H1975 C1959 0.961 1_556 S
H1976 C1960 0.931 . S
H1977 C1965 0.930 . S
H1978 C1966 0.956 . S
H1979 C1966 0.961 . S
H1980 C1966 0.961 . S
H1981 C1967 0.958 . S
H1982 C1967 0.961 . S
H1983 C1967 0.960 . S
C1984 C1985 1.391 . S
C1984 C1986 1.394 . S
C1984 H2000 0.931 . S
C1985 C1984 1.391 . S
C1985 C1989 1.376 . S
C1986 C1984 1.394 . S
C1986 C1987 1.369 . S
C1986 C1990 1.531 . S
C1987 C1986 1.369 . S
C1987 C1988 1.410 . S
C1987 C1995 1.503 . S
C1988 C1987 1.410 . S
C1988 C1989 1.392 . S
C1988 C1991 1.511 . S
C1989 C1985 1.376 . S
C1989 C1988 1.392 . S
C1989 H2001 0.929 . S
C1990 C1986 1.531 . S
C1990 H2002 0.960 . S
C1990 H2003 0.962 . S
C1990 H2004 0.960 . S
C1991 C1988 1.511 . S
C1991 H2005 0.961 . S
C1991 H2006 0.961 . S
C1991 H2007 0.961 . S
C1992 C1993 1.370 . S
C1992 C1994 1.363 . S
C1992 H2008 0.931 . S
C1993 C1992 1.370 . S
C1993 C1997 1.408 . S
C1994 C1992 1.363 . S
C1994 C1995 1.370 . S
C1994 C1998 1.524 . S
C1995 C1987 1.503 . S
C1995 C1994 1.370 . S
C1995 C1996 1.403 . S
C1996 C1995 1.403 . S
C1996 C1997 1.404 . S
C1996 C1999 1.539 . S
C1997 C1993 1.408 . S
C1997 C1996 1.404 . S
C1997 H2009 0.930 . S
C1998 C1994 1.524 . S
C1998 H2010 0.956 . S
C1998 H2011 0.961 . S
C1998 H2012 0.961 . S
C1999 C1996 1.539 . S
C1999 H2013 0.958 . S
C1999 H2014 0.961 . S
C1999 H2015 0.960 . S
H2000 C1984 0.931 . S
H2001 C1989 0.929 . S
H2002 C1990 0.960 . S
H2003 C1990 0.962 . S
H2004 C1990 0.960 . S
H2005 C1991 0.961 . S
H2006 C1991 0.961 . S
H2007 C1991 0.961 . S
H2008 C1992 0.931 . S
H2009 C1997 0.930 . S
H2010 C1998 0.956 . S
H2011 C1998 0.961 . S
H2012 C1998 0.961 . S
H2013 C1999 0.958 . S
H2014 C1999 0.961 . S
H2015 C1999 0.960 . S
C2016 C2017 1.391 . S
C2016 C2018 1.394 . S
C2016 H2032 0.931 . S
C2017 C2016 1.391 . S
C2017 C2021 1.376 . S
C2018 C2016 1.394 . S
C2018 C2019 1.369 . S
C2018 C2022 1.531 . S
C2019 C2018 1.369 . S
C2019 C2020 1.410 . S
C2019 C2027 1.503 . S
C2020 C2019 1.410 . S
C2020 C2021 1.392 . S
C2020 C2023 1.511 . S
C2021 C2017 1.376 . S
C2021 C2020 1.392 . S
C2021 H2033 0.929 . S
C2022 C2018 1.531 . S
C2022 H2034 0.960 . S
C2022 H2035 0.962 . S
C2022 H2036 0.960 . S
C2023 C2020 1.511 . S
C2023 H2037 0.961 . S
C2023 H2038 0.961 . S
C2023 H2039 0.961 . S
C2024 C2025 1.370 . S
C2024 C2026 1.363 . S
C2024 H2040 0.931 . S
C2025 C2024 1.370 . S
C2025 C2029 1.408 . S
C2026 C2024 1.363 . S
C2026 C2027 1.370 . S
C2026 C2030 1.524 . S
C2027 C2019 1.503 . S
C2027 C2026 1.370 . S
C2027 C2028 1.403 . S
C2028 C2027 1.403 . S
C2028 C2029 1.404 . S
C2028 C2031 1.539 . S
C2029 C2025 1.408 . S
C2029 C2028 1.404 . S
C2029 H2041 0.930 . S
C2030 C2026 1.524 . S
C2030 H2042 0.956 . S
C2030 H2043 0.961 . S
C2030 H2044 0.961 . S
C2031 C2028 1.539 . S
C2031 H2045 0.958 . S
C2031 H2046 0.961 . S
C2031 H2047 0.960 . S
H2032 C2016 0.931 . S
H2033 C2021 0.929 . S
H2034 C2022 0.960 . S
H2035 C2022 0.962 . S
H2036 C2022 0.960 . S
H2037 C2023 0.961 . S
H2038 C2023 0.961 . S
H2039 C2023 0.961 . S
H2040 C2024 0.931 . S
H2041 C2029 0.930 . S
H2042 C2030 0.956 . S
H2043 C2030 0.961 . S
H2044 C2030 0.961 . S
H2045 C2031 0.958 . S
H2046 C2031 0.961 . S
H2047 C2031 0.960 . S
C2048 C2049 1.391 . S
C2048 C2050 1.394 . S
C2048 H2064 0.931 . S
C2049 C2048 1.391 . S
C2049 C2053 1.376 . S
C2050 C2048 1.394 . S
C2050 C2051 1.369 . S
C2050 C2054 1.531 . S
C2051 C2050 1.369 . S
C2051 C2052 1.410 . S
C2051 C2059 1.503 . S
C2052 C2051 1.410 . S
C2052 C2053 1.392 . S
C2052 C2055 1.511 . S
C2053 C2049 1.376 . S
C2053 C2052 1.392 . S
C2053 H2065 0.929 . S
C2054 C2050 1.531 . S
C2054 H2066 0.960 . S
C2054 H2067 0.962 . S
C2054 H2068 0.960 . S
C2055 C2052 1.511 . S
C2055 H2069 0.961 . S
C2055 H2070 0.961 . S
C2055 H2071 0.961 . S
C2056 C2057 1.370 . S
C2056 C2058 1.363 . S
C2056 H2072 0.931 . S
C2057 C2056 1.370 . S
C2057 C2061 1.408 . S
C2058 C2056 1.363 . S
C2058 C2059 1.370 . S
C2058 C2062 1.524 . S
C2059 C2051 1.503 . S
C2059 C2058 1.370 . S
C2059 C2060 1.403 . S
C2060 C2059 1.403 . S
C2060 C2061 1.404 . S
C2060 C2063 1.539 . S
C2061 C2057 1.408 . S
C2061 C2060 1.404 . S
C2061 H2073 0.930 . S
C2062 C2058 1.524 . S
C2062 H2074 0.956 . S
C2062 H2075 0.961 . S
C2062 H2076 0.961 . S
C2063 C2060 1.539 . S
C2063 H2077 0.958 . S
C2063 H2078 0.961 . S
C2063 H2079 0.960 . S
H2064 C2048 0.931 . S
H2065 C2053 0.929 . S
H2066 C2054 0.960 . S
H2067 C2054 0.962 . S
H2068 C2054 0.960 . S
H2069 C2055 0.961 . S
H2070 C2055 0.961 . S
H2071 C2055 0.961 . S
H2072 C2056 0.931 . S
H2073 C2061 0.930 . S
H2074 C2062 0.956 . S
H2075 C2062 0.961 . S
H2076 C2062 0.961 . S
H2077 C2063 0.958 . S
H2078 C2063 0.961 . S
H2079 C2063 0.960 . S
C2080 C2081 1.391 . S
C2080 C2082 1.394 . S
C2080 H2096 0.931 . S
C2081 C2080 1.391 . S
C2081 C2085 1.376 . S
C2082 C2080 1.394 . S
C2082 C2083 1.369 . S
C2082 C2086 1.531 1_554 S
C2083 C2082 1.369 . S
C2083 C2084 1.410 . S
C2083 C2091 1.503 . S
C2084 C2083 1.410 . S
C2084 C2085 1.392 . S
C2084 C2087 1.511 . S
C2085 C2081 1.376 . S
C2085 C2084 1.392 . S
C2085 H2097 0.929 . S
C2086 C2082 1.531 1_556 S
C2086 H2098 0.960 . S
C2086 H2099 0.962 . S
C2086 H2100 0.960 . S
C2087 C2084 1.511 . S
C2087 H2101 0.961 . S
C2087 H2102 0.961 . S
C2087 H2103 0.961 . S
C2088 C2089 1.370 . S
C2088 C2090 1.363 . S
C2088 H2104 0.931 . S
C2089 C2088 1.370 . S
C2089 C2093 1.408 . S
C2090 C2088 1.363 . S
C2090 C2091 1.370 1_556 S
C2090 C2094 1.524 . S
C2091 C2083 1.503 . S
C2091 C2090 1.370 1_554 S
C2091 C2092 1.403 . S
C2092 C2091 1.403 . S
C2092 C2093 1.404 1_554 S
C2092 C2095 1.539 . S
C2093 C2089 1.408 . S
C2093 C2092 1.404 1_556 S
C2093 H2105 0.930 . S
C2094 C2090 1.524 . S
C2094 H2106 0.956 . S
C2094 H2107 0.961 1_556 S
C2094 H2108 0.961 . S
C2095 C2092 1.539 . S
C2095 H2109 0.958 . S
C2095 H2110 0.961 . S
C2095 H2111 0.960 . S
H2096 C2080 0.931 . S
H2097 C2085 0.929 . S
H2098 C2086 0.960 . S
H2099 C2086 0.962 . S
H2100 C2086 0.960 . S
H2101 C2087 0.961 . S
H2102 C2087 0.961 . S
H2103 C2087 0.961 . S
H2104 C2088 0.931 . S
H2105 C2093 0.930 . S
H2106 C2094 0.956 . S
H2107 C2094 0.961 1_554 S
H2108 C2094 0.961 . S
H2109 C2095 0.958 . S
H2110 C2095 0.961 . S
H2111 C2095 0.960 . S
C2112 C2113 1.391 . S
C2112 C2114 1.394 . S
C2112 H2128 0.931 . S
C2113 C2112 1.391 . S
C2113 C2117 1.376 . S
C2114 C2112 1.394 . S
C2114 C2115 1.369 . S
C2114 C2118 1.531 . S
C2115 C2114 1.369 . S
C2115 C2116 1.410 . S
C2115 C2123 1.503 . S
C2116 C2115 1.410 . S
C2116 C2117 1.392 . S
C2116 C2119 1.511 . S
C2117 C2113 1.376 . S
C2117 C2116 1.392 . S
C2117 H2129 0.929 . S
C2118 C2114 1.531 . S
C2118 H2130 0.960 . S
C2118 H2131 0.962 . S
C2118 H2132 0.960 . S
C2119 C2116 1.511 . S
C2119 H2133 0.961 . S
C2119 H2134 0.961 . S
C2119 H2135 0.961 . S
C2120 C2121 1.370 . S
C2120 C2122 1.363 . S
C2120 H2136 0.931 . S
C2121 C2120 1.370 . S
C2121 C2125 1.408 . S
C2122 C2120 1.363 . S
C2122 C2123 1.370 . S
C2122 C2126 1.524 . S
C2123 C2115 1.503 . S
C2123 C2122 1.370 . S
C2123 C2124 1.403 . S
C2124 C2123 1.403 . S
C2124 C2125 1.404 . S
C2124 C2127 1.539 . S
C2125 C2121 1.408 . S
C2125 C2124 1.404 . S
C2125 H2137 0.930 . S
C2126 C2122 1.524 . S
C2126 H2138 0.956 . S
C2126 H2139 0.961 . S
C2126 H2140 0.961 . S
C2127 C2124 1.539 . S
C2127 H2141 0.958 . S
C2127 H2142 0.961 . S
C2127 H2143 0.960 . S
H2128 C2112 0.931 . S
H2129 C2117 0.929 . S
H2130 C2118 0.960 . S
H2131 C2118 0.962 . S
H2132 C2118 0.960 . S
H2133 C2119 0.961 . S
H2134 C2119 0.961 . S
H2135 C2119 0.961 . S
H2136 C2120 0.931 . S
H2137 C2125 0.930 . S
H2138 C2126 0.956 . S
H2139 C2126 0.961 . S
H2140 C2126 0.961 . S
H2141 C2127 0.958 . S
H2142 C2127 0.961 . S
H2143 C2127 0.960 . S
C2144 C2145 1.391 . S
C2144 C2146 1.394 . S
C2144 H2160 0.931 . S
C2145 C2144 1.391 . S
C2145 C2149 1.376 . S
C2146 C2144 1.394 . S
C2146 C2147 1.369 . S
C2146 C2150 1.531 . S
C2147 C2146 1.369 . S
C2147 C2148 1.410 . S
C2147 C2155 1.503 . S
C2148 C2147 1.410 . S
C2148 C2149 1.392 . S
C2148 C2151 1.511 . S
C2149 C2145 1.376 . S
C2149 C2148 1.392 . S
C2149 H2161 0.929 . S
C2150 C2146 1.531 . S
C2150 H2162 0.960 . S
C2150 H2163 0.962 . S
C2150 H2164 0.960 . S
C2151 C2148 1.511 . S
C2151 H2165 0.961 . S
C2151 H2166 0.961 . S
C2151 H2167 0.961 . S
C2152 C2153 1.370 . S
C2152 C2154 1.363 . S
C2152 H2168 0.931 . S
C2153 C2152 1.370 . S
C2153 C2157 1.408 . S
C2154 C2152 1.363 . S
C2154 C2155 1.370 . S
C2154 C2158 1.524 . S
C2155 C2147 1.503 . S
C2155 C2154 1.370 . S
C2155 C2156 1.403 . S
C2156 C2155 1.403 . S
C2156 C2157 1.404 . S
C2156 C2159 1.539 . S
C2157 C2153 1.408 . S
C2157 C2156 1.404 . S
C2157 H2169 0.930 . S
C2158 C2154 1.524 . S
C2158 H2170 0.956 . S
C2158 H2171 0.961 . S
C2158 H2172 0.961 . S
C2159 C2156 1.539 . S
C2159 H2173 0.958 . S
C2159 H2174 0.961 . S
C2159 H2175 0.960 . S
H2160 C2144 0.931 . S
H2161 C2149 0.929 . S
H2162 C2150 0.960 . S
H2163 C2150 0.962 . S
H2164 C2150 0.960 . S
H2165 C2151 0.961 . S
H2166 C2151 0.961 . S
H2167 C2151 0.961 . S
H2168 C2152 0.931 . S
H2169 C2157 0.930 . S
H2170 C2158 0.956 . S
H2171 C2158 0.961 . S
H2172 C2158 0.961 . S
H2173 C2159 0.958 . S
H2174 C2159 0.961 . S
H2175 C2159 0.960 . S
C2176 C2177 1.391 . S
C2176 C2178 1.394 . S
C2176 H2192 0.931 . S
C2177 C2176 1.391 . S
C2177 C2181 1.376 . S
C2178 C2176 1.394 . S
C2178 C2179 1.369 . S
C2178 C2182 1.531 . S
C2179 C2178 1.369 . S
C2179 C2180 1.410 . S
C2179 C2187 1.503 . S
C2180 C2179 1.410 . S
C2180 C2181 1.392 . S
C2180 C2183 1.511 . S
C2181 C2177 1.376 . S
C2181 C2180 1.392 . S
C2181 H2193 0.929 . S
C2182 C2178 1.531 . S
C2182 H2194 0.960 . S
C2182 H2195 0.962 . S
C2182 H2196 0.960 . S
C2183 C2180 1.511 . S
C2183 H2197 0.961 . S
C2183 H2198 0.961 . S
C2183 H2199 0.961 . S
C2184 C2185 1.370 . S
C2184 C2186 1.363 . S
C2184 H2200 0.931 . S
C2185 C2184 1.370 . S
C2185 C2189 1.408 . S
C2186 C2184 1.363 . S
C2186 C2187 1.370 . S
C2186 C2190 1.524 . S
C2187 C2179 1.503 . S
C2187 C2186 1.370 . S
C2187 C2188 1.403 . S
C2188 C2187 1.403 . S
C2188 C2189 1.404 . S
C2188 C2191 1.539 . S
C2189 C2185 1.408 . S
C2189 C2188 1.404 . S
C2189 H2201 0.930 . S
C2190 C2186 1.524 . S
C2190 H2202 0.956 . S
C2190 H2203 0.961 . S
C2190 H2204 0.961 . S
C2191 C2188 1.539 . S
C2191 H2205 0.958 . S
C2191 H2206 0.961 . S
C2191 H2207 0.960 . S
H2192 C2176 0.931 . S
H2193 C2181 0.929 . S
H2194 C2182 0.960 . S
H2195 C2182 0.962 . S
H2196 C2182 0.960 . S
H2197 C2183 0.961 . S
H2198 C2183 0.961 . S
H2199 C2183 0.961 . S
H2200 C2184 0.931 . S
H2201 C2189 0.930 . S
H2202 C2190 0.956 . S
H2203 C2190 0.961 . S
H2204 C2190 0.961 . S
H2205 C2191 0.958 . S
H2206 C2191 0.961 . S
H2207 C2191 0.960 . S
C2208 C2209 1.391 . S
C2208 C2210 1.394 . S
C2208 H2224 0.931 . S
C2209 C2208 1.391 . S
C2209 C2213 1.376 . S
C2210 C2208 1.394 . S
C2210 C2211 1.369 . S
C2210 C2214 1.531 . S
C2211 C2210 1.369 . S
C2211 C2212 1.410 . S
C2211 C2219 1.503 . S
C2212 C2211 1.410 . S
C2212 C2213 1.392 . S
C2212 C2215 1.511 . S
C2213 C2209 1.376 . S
C2213 C2212 1.392 . S
C2213 H2225 0.929 . S
C2214 C2210 1.531 . S
C2214 H2226 0.960 . S
C2214 H2227 0.962 . S
C2214 H2228 0.960 . S
C2215 C2212 1.511 . S
C2215 H2229 0.961 . S
C2215 H2230 0.961 . S
C2215 H2231 0.961 . S
C2216 C2217 1.370 . S
C2216 C2218 1.363 . S
C2216 H2232 0.931 . S
C2217 C2216 1.370 . S
C2217 C2221 1.408 . S
C2218 C2216 1.363 . S
C2218 C2219 1.370 . S
C2218 C2222 1.524 . S
C2219 C2211 1.503 . S
C2219 C2218 1.370 . S
C2219 C2220 1.403 . S
C2220 C2219 1.403 . S
C2220 C2221 1.404 . S
C2220 C2223 1.539 . S
C2221 C2217 1.408 . S
C2221 C2220 1.404 . S
C2221 H2233 0.930 . S
C2222 C2218 1.524 . S
C2222 H2234 0.956 . S
C2222 H2235 0.961 . S
C2222 H2236 0.961 . S
C2223 C2220 1.539 . S
C2223 H2237 0.958 . S
C2223 H2238 0.961 . S
C2223 H2239 0.960 . S
H2224 C2208 0.931 . S
H2225 C2213 0.929 . S
H2226 C2214 0.960 . S
H2227 C2214 0.962 . S
H2228 C2214 0.960 . S
H2229 C2215 0.961 . S
H2230 C2215 0.961 . S
H2231 C2215 0.961 . S
H2232 C2216 0.931 . S
H2233 C2221 0.930 . S
H2234 C2222 0.956 . S
H2235 C2222 0.961 . S
H2236 C2222 0.961 . S
H2237 C2223 0.958 . S
H2238 C2223 0.961 . S
H2239 C2223 0.960 . S
C2240 C2241 1.391 . S
C2240 C2242 1.394 . S
C2240 H2256 0.931 . S
C2241 C2240 1.391 . S
C2241 C2245 1.376 . S
C2242 C2240 1.394 . S
C2242 C2243 1.369 . S
C2242 C2246 1.531 . S
C2243 C2242 1.369 . S
C2243 C2244 1.409 1_554 S
C2243 C2251 1.503 1_554 S
C2244 C2243 1.409 1_556 S
C2244 C2245 1.376 1_556 S
C2244 C2247 1.528 . S
C2245 C2241 1.376 . S
C2245 C2244 1.376 1_554 S
C2245 H2257 0.929 . S
C2246 C2242 1.531 . S
C2246 H2258 0.960 . S
C2246 H2259 0.962 . S
C2246 H2260 0.960 . S
C2247 C2244 1.528 . S
C2247 H2261 0.961 . S
C2247 H2262 0.961 . S
C2247 H2263 0.961 . S
C2248 C2249 1.370 . S
C2248 C2250 1.363 . S
C2248 H2264 0.931 . S
C2249 C2248 1.370 . S
C2249 C2253 1.408 . S
C2250 C2248 1.363 . S
C2250 C2251 1.370 . S
C2250 C2254 1.524 1_556 S
C2251 C2243 1.503 1_556 S
C2251 C2250 1.370 . S
C2251 C2252 1.403 . S
C2252 C2251 1.403 . S
C2252 C2253 1.404 . S
C2252 C2255 1.539 . S
C2253 C2249 1.408 . S
C2253 C2252 1.404 . S
C2253 H2265 0.930 . S
C2254 C2250 1.524 1_554 S
C2254 H2266 0.956 . S
C2254 H2267 0.961 . S
C2254 H2268 0.961 . S
C2255 C2252 1.539 . S
C2255 H2269 0.958 . S
C2255 H2270 0.961 . S
C2255 H2271 0.960 . S
H2256 C2240 0.931 . S
H2257 C2245 0.929 . S
H2258 C2246 0.960 . S
H2259 C2246 0.962 . S
H2260 C2246 0.960 . S
H2261 C2247 0.961 . S
H2262 C2247 0.961 . S
H2263 C2247 0.961 . S
H2264 C2248 0.931 . S
H2265 C2253 0.930 . S
H2266 C2254 0.956 . S
H2267 C2254 0.961 . S
H2268 C2254 0.961 . S
H2269 C2255 0.958 . S
H2270 C2255 0.961 . S
H2271 C2255 0.960 . S
C2272 C2273 1.391 . S
C2272 C2274 1.394 . S
C2272 H2288 0.931 . S
C2273 C2272 1.391 . S
C2273 C2277 1.376 . S
C2274 C2272 1.394 . S
C2274 C2275 1.369 . S
C2274 C2278 1.531 . S
C2275 C2274 1.369 . S
C2275 C2276 1.410 . S
C2275 C2283 1.503 . S
C2276 C2275 1.410 . S
C2276 C2277 1.392 . S
C2276 C2279 1.511 . S
C2277 C2273 1.376 . S
C2277 C2276 1.392 . S
C2277 H2289 0.929 . S
C2278 C2274 1.531 . S
C2278 H2290 0.960 . S
C2278 H2291 0.962 . S
C2278 H2292 0.960 . S
C2279 C2276 1.511 . S
C2279 H2293 0.961 . S
C2279 H2294 0.961 . S
C2279 H2295 0.961 . S
C2280 C2281 1.370 . S
C2280 C2282 1.363 . S
C2280 H2296 0.931 . S
C2281 C2280 1.370 . S
C2281 C2285 1.408 . S
C2282 C2280 1.363 . S
C2282 C2283 1.370 . S
C2282 C2286 1.524 . S
C2283 C2275 1.503 . S
C2283 C2282 1.370 . S
C2283 C2284 1.403 . S
C2284 C2283 1.403 . S
C2284 C2285 1.404 . S
C2284 C2287 1.539 . S
C2285 C2281 1.408 . S
C2285 C2284 1.404 . S
C2285 H2297 0.930 . S
C2286 C2282 1.524 . S
C2286 H2298 0.956 . S
C2286 H2299 0.961 . S
C2286 H2300 0.961 . S
C2287 C2284 1.539 . S
C2287 H2301 0.958 . S
C2287 H2302 0.961 . S
C2287 H2303 0.960 . S
H2288 C2272 0.931 . S
H2289 C2277 0.929 . S
H2290 C2278 0.960 . S
H2291 C2278 0.962 . S
H2292 C2278 0.960 . S
H2293 C2279 0.961 . S
H2294 C2279 0.961 . S
H2295 C2279 0.961 . S
H2296 C2280 0.931 . S
H2297 C2285 0.930 . S
H2298 C2286 0.956 . S
H2299 C2286 0.961 . S
H2300 C2286 0.961 . S
H2301 C2287 0.958 . S
H2302 C2287 0.961 . S
H2303 C2287 0.960 . S
C2304 C2305 1.391 . S
C2304 C2306 1.394 . S
C2304 H2320 0.931 . S
C2305 C2304 1.391 . S
C2305 C2309 1.376 . S
C2306 C2304 1.394 . S
C2306 C2307 1.369 . S
C2306 C2310 1.531 . S
C2307 C2306 1.369 . S
C2307 C2308 1.410 . S
C2307 C2315 1.503 . S
C2308 C2307 1.410 . S
C2308 C2309 1.392 . S
C2308 C2311 1.511 . S
C2309 C2305 1.376 . S
C2309 C2308 1.392 . S
C2309 H2321 0.929 . S
C2310 C2306 1.531 . S
C2310 H2322 0.960 . S
C2310 H2323 0.962 . S
C2310 H2324 0.960 . S
C2311 C2308 1.511 . S
C2311 H2325 0.961 . S
C2311 H2326 0.961 . S
C2311 H2327 0.961 . S
C2312 C2313 1.370 . S
C2312 C2314 1.363 . S
C2312 H2328 0.931 . S
C2313 C2312 1.370 . S
C2313 C2317 1.408 . S
C2314 C2312 1.363 . S
C2314 C2315 1.370 . S
C2314 C2318 1.524 . S
C2315 C2307 1.503 . S
C2315 C2314 1.370 . S
C2315 C2316 1.403 . S
C2316 C2315 1.403 . S
C2316 C2317 1.404 . S
C2316 C2319 1.539 . S
C2317 C2313 1.408 . S
C2317 C2316 1.404 . S
C2317 H2329 0.930 . S
C2318 C2314 1.524 . S
C2318 H2330 0.956 . S
C2318 H2331 0.961 . S
C2318 H2332 0.961 . S
C2319 C2316 1.539 . S
C2319 H2333 0.958 . S
C2319 H2334 0.961 . S
C2319 H2335 0.960 . S
H2320 C2304 0.931 . S
H2321 C2309 0.929 . S
H2322 C2310 0.960 . S
H2323 C2310 0.962 . S
H2324 C2310 0.960 . S
H2325 C2311 0.961 . S
H2326 C2311 0.961 . S
H2327 C2311 0.961 . S
H2328 C2312 0.931 . S
H2329 C2317 0.930 . S
H2330 C2318 0.956 . S
H2331 C2318 0.961 . S
H2332 C2318 0.961 . S
H2333 C2319 0.958 . S
H2334 C2319 0.961 . S
H2335 C2319 0.960 . S
C2336 C2337 1.391 . S
C2336 C2338 1.394 . S
C2336 H2352 0.931 . S
C2337 C2336 1.391 . S
C2337 C2341 1.376 . S
C2338 C2336 1.394 . S
C2338 C2339 1.369 . S
C2338 C2342 1.531 . S
C2339 C2338 1.369 . S
C2339 C2340 1.410 . S
C2339 C2347 1.503 . S
C2340 C2339 1.410 . S
C2340 C2341 1.392 . S
C2340 C2343 1.511 . S
C2341 C2337 1.376 . S
C2341 C2340 1.392 . S
C2341 H2353 0.929 . S
C2342 C2338 1.531 . S
C2342 H2354 0.960 . S
C2342 H2355 0.962 . S
C2342 H2356 0.960 . S
C2343 C2340 1.511 . S
C2343 H2357 0.961 . S
C2343 H2358 0.961 . S
C2343 H2359 0.961 . S
C2344 C2345 1.370 . S
C2344 C2346 1.363 . S
C2344 H2360 0.931 . S
C2345 C2344 1.370 . S
C2345 C2349 1.408 . S
C2346 C2344 1.363 . S
C2346 C2347 1.370 . S
C2346 C2350 1.524 . S
C2347 C2339 1.503 . S
C2347 C2346 1.370 . S
C2347 C2348 1.403 . S
C2348 C2347 1.403 . S
C2348 C2349 1.404 . S
C2348 C2351 1.539 . S
C2349 C2345 1.408 . S
C2349 C2348 1.404 . S
C2349 H2361 0.930 . S
C2350 C2346 1.524 . S
C2350 H2362 0.956 . S
C2350 H2363 0.961 . S
C2350 H2364 0.961 . S
C2351 C2348 1.539 . S
C2351 H2365 0.958 . S
C2351 H2366 0.961 . S
C2351 H2367 0.960 . S
H2352 C2336 0.931 . S
H2353 C2341 0.929 . S
H2354 C2342 0.960 . S
H2355 C2342 0.962 . S
H2356 C2342 0.960 . S
H2357 C2343 0.961 . S
H2358 C2343 0.961 . S
H2359 C2343 0.961 . S
H2360 C2344 0.931 . S
H2361 C2349 0.930 . S
H2362 C2350 0.956 . S
H2363 C2350 0.961 . S
H2364 C2350 0.961 . S
H2365 C2351 0.958 . S
H2366 C2351 0.961 . S
H2367 C2351 0.960 . S
C2368 C2369 1.391 . S
C2368 C2370 1.394 . S
C2368 H2384 0.931 . S
C2369 C2368 1.391 . S
C2369 C2373 1.376 . S
C2370 C2368 1.394 . S
C2370 C2371 1.369 . S
C2370 C2374 1.531 . S
C2371 C2370 1.369 . S
C2371 C2372 1.410 . S
C2371 C2379 1.503 1_554 S
C2372 C2371 1.410 . S
C2372 C2373 1.392 . S
C2372 C2375 1.511 1_554 S
C2373 C2369 1.376 . S
C2373 C2372 1.392 . S
C2373 H2385 0.929 . S
C2374 C2370 1.531 . S
C2374 H2386 0.954 1_554 S
C2374 H2387 0.962 1_554 S
C2374 H2388 0.960 . S
C2375 C2372 1.511 1_556 S
C2375 H2389 0.961 . S
C2375 H2390 0.961 . S
C2375 H2391 0.961 1_556 S
C2376 C2377 1.370 . S
C2376 C2378 1.363 . S
C2376 H2392 0.931 . S
C2377 C2376 1.370 . S
C2377 C2381 1.408 . S
C2378 C2376 1.363 . S
C2378 C2379 1.370 . S
C2378 C2382 1.524 . S
C2379 C2371 1.503 1_556 S
C2379 C2378 1.370 . S
C2379 C2380 1.403 . S
C2380 C2379 1.403 . S
C2380 C2381 1.404 . S
C2380 C2383 1.539 1_556 S
C2381 C2377 1.408 . S
C2381 C2380 1.404 . S
C2381 H2393 0.930 . S
C2382 C2378 1.524 . S
C2382 H2394 0.956 . S
C2382 H2395 0.961 . S
C2382 H2396 0.961 . S
C2383 C2380 1.539 1_554 S
C2383 H2397 0.958 . S
C2383 H2398 0.961 . S
C2383 H2399 0.960 . S
H2384 C2368 0.931 . S
H2385 C2373 0.929 . S
H2386 C2374 0.954 1_556 S
H2387 C2374 0.962 1_556 S
H2388 C2374 0.960 . S
H2389 C2375 0.961 . S
H2390 C2375 0.961 . S
H2391 C2375 0.961 1_554 S
H2392 C2376 0.931 . S
H2393 C2381 0.930 . S
H2394 C2382 0.956 . S
H2395 C2382 0.961 . S
H2396 C2382 0.961 . S
H2397 C2383 0.958 . S
H2398 C2383 0.961 . S
H2399 C2383 0.960 . S
C2400 C2401 1.391 . S
C2400 C2402 1.394 . S
C2400 H2416 0.931 . S
C2401 C2400 1.391 . S
C2401 C2405 1.376 . S
C2402 C2400 1.394 . S
C2402 C2403 1.369 . S
C2402 C2406 1.531 . S
C2403 C2402 1.369 . S
C2403 C2404 1.410 . S
C2403 C2411 1.503 . S
C2404 C2403 1.410 . S
C2404 C2405 1.392 . S
C2404 C2407 1.511 . S
C2405 C2401 1.376 . S
C2405 C2404 1.392 . S
C2405 H2417 0.929 . S
C2406 C2402 1.531 . S
C2406 H2418 0.960 . S
C2406 H2419 0.962 . S
C2406 H2420 0.960 . S
C2407 C2404 1.511 . S
C2407 H2421 0.961 . S
C2407 H2422 0.961 . S
C2407 H2423 0.961 . S
C2408 C2409 1.370 . S
C2408 C2410 1.363 . S
C2408 H2424 0.931 . S
C2409 C2408 1.370 . S
C2409 C2413 1.408 . S
C2410 C2408 1.363 . S
C2410 C2411 1.370 . S
C2410 C2414 1.524 . S
C2411 C2403 1.503 . S
C2411 C2410 1.370 . S
C2411 C2412 1.403 . S
C2412 C2411 1.403 . S
C2412 C2413 1.404 . S
C2412 C2415 1.539 . S
C2413 C2409 1.408 . S
C2413 C2412 1.404 . S
C2413 H2425 0.930 . S
C2414 C2410 1.524 . S
C2414 H2426 0.956 . S
C2414 H2427 0.961 . S
C2414 H2428 0.961 . S
C2415 C2412 1.539 . S
C2415 H2429 0.958 . S
C2415 H2430 0.961 . S
C2415 H2431 0.960 . S
H2416 C2400 0.931 . S
H2417 C2405 0.929 . S
H2418 C2406 0.960 . S
H2419 C2406 0.962 . S
H2420 C2406 0.960 . S
H2421 C2407 0.961 . S
H2422 C2407 0.961 . S
H2423 C2407 0.961 . S
H2424 C2408 0.931 . S
H2425 C2413 0.930 . S
H2426 C2414 0.956 . S
H2427 C2414 0.961 . S
H2428 C2414 0.961 . S
H2429 C2415 0.958 . S
H2430 C2415 0.961 . S
H2431 C2415 0.960 . S
C2432 C2433 1.391 . S
C2432 C2434 1.394 . S
C2432 H2448 0.931 . S
C2433 C2432 1.391 . S
C2433 C2437 1.376 . S
C2434 C2432 1.394 . S
C2434 C2435 1.369 . S
C2434 C2438 1.531 . S
C2435 C2434 1.369 . S
C2435 C2436 1.410 . S
C2435 C2443 1.503 . S
C2436 C2435 1.410 . S
C2436 C2437 1.392 . S
C2436 C2439 1.511 . S
C2437 C2433 1.376 . S
C2437 C2436 1.392 . S
C2437 H2449 0.929 . S
C2438 C2434 1.531 . S
C2438 H2450 0.960 . S
C2438 H2451 0.962 . S
C2438 H2452 0.960 . S
C2439 C2436 1.511 . S
C2439 H2453 0.961 . S
C2439 H2454 0.961 . S
C2439 H2455 0.961 . S
C2440 C2441 1.370 . S
C2440 C2442 1.363 . S
C2440 H2456 0.931 . S
C2441 C2440 1.370 . S
C2441 C2445 1.408 . S
C2442 C2440 1.363 . S
C2442 C2443 1.370 . S
C2442 C2446 1.524 . S
C2443 C2435 1.503 . S
C2443 C2442 1.370 . S
C2443 C2444 1.403 . S
C2444 C2443 1.403 . S
C2444 C2445 1.404 . S
C2444 C2447 1.539 . S
C2445 C2441 1.408 . S
C2445 C2444 1.404 . S
C2445 H2457 0.930 . S
C2446 C2442 1.524 . S
C2446 H2458 0.956 . S
C2446 H2459 0.961 . S
C2446 H2460 0.961 . S
C2447 C2444 1.539 . S
C2447 H2461 0.958 . S
C2447 H2462 0.961 . S
C2447 H2463 0.960 . S
H2448 C2432 0.931 . S
H2449 C2437 0.929 . S
H2450 C2438 0.960 . S
H2451 C2438 0.962 . S
H2452 C2438 0.960 . S
H2453 C2439 0.961 . S
H2454 C2439 0.961 . S
H2455 C2439 0.961 . S
H2456 C2440 0.931 . S
H2457 C2445 0.930 . S
H2458 C2446 0.956 . S
H2459 C2446 0.961 . S
H2460 C2446 0.961 . S
H2461 C2447 0.958 . S
H2462 C2447 0.961 . S
H2463 C2447 0.960 . S
C2464 C2465 1.391 . S
C2464 C2466 1.394 . S
C2464 H2480 0.931 . S
C2465 C2464 1.391 . S
C2465 C2469 1.376 . S
C2466 C2464 1.394 . S
C2466 C2467 1.369 . S
C2466 C2470 1.531 . S
C2467 C2466 1.369 . S
C2467 C2468 1.410 . S
C2467 C2475 1.503 . S
C2468 C2467 1.410 . S
C2468 C2469 1.392 . S
C2468 C2471 1.511 . S
C2469 C2465 1.376 . S
C2469 C2468 1.392 . S
C2469 H2481 0.929 . S
C2470 C2466 1.531 . S
C2470 H2482 0.960 . S
C2470 H2483 0.962 . S
C2470 H2484 0.960 . S
C2471 C2468 1.511 . S
C2471 H2485 0.961 . S
C2471 H2486 0.961 . S
C2471 H2487 0.961 . S
C2472 C2473 1.370 . S
C2472 C2474 1.363 . S
C2472 H2488 0.931 . S
C2473 C2472 1.370 . S
C2473 C2477 1.408 . S
C2474 C2472 1.363 . S
C2474 C2475 1.370 . S
C2474 C2478 1.524 . S
C2475 C2467 1.503 . S
C2475 C2474 1.370 . S
C2475 C2476 1.403 . S
C2476 C2475 1.403 . S
C2476 C2477 1.404 . S
C2476 C2479 1.539 . S
C2477 C2473 1.408 . S
C2477 C2476 1.404 . S
C2477 H2489 0.930 . S
C2478 C2474 1.524 . S
C2478 H2490 0.956 . S
C2478 H2491 0.961 . S
C2478 H2492 0.961 . S
C2479 C2476 1.539 . S
C2479 H2493 0.958 . S
C2479 H2494 0.961 . S
C2479 H2495 0.960 . S
H2480 C2464 0.931 . S
H2481 C2469 0.929 . S
H2482 C2470 0.960 . S
H2483 C2470 0.962 . S
H2484 C2470 0.960 . S
H2485 C2471 0.961 . S
H2486 C2471 0.961 . S
H2487 C2471 0.961 . S
H2488 C2472 0.931 . S
H2489 C2477 0.930 . S
H2490 C2478 0.956 . S
H2491 C2478 0.961 . S
H2492 C2478 0.961 . S
H2493 C2479 0.958 . S
H2494 C2479 0.961 . S
H2495 C2479 0.960 . S
C449 C7 0.583 . S
C457 C189 0.561 . S
C481 C357 1.111 . S
C489 C21 1.159 . S
C513 C35 1.944 . S
C521 C217 1.929 . S
C545 C49 1.907 . S
C553 C343 1.920 . S
C577 C63 1.165 . S
C585 C245 1.119 . S
C609 C77 0.953 . S
C617 C315 0.890 . S
C641 C91 0.950 . S
C649 C273 0.897 . S
C673 C441 0.539 . S
C681 C105 0.627 . S
C705 C301 1.115 . S
C713 C119 1.132 . S
C737 C133 0.833 . S
C745 C259 0.915 . S
C769 C329 0.952 . S
C777 C147 0.877 . S
C801 C161 1.904 . S
C809 C231 1.927 . S
C833 C203 1.169 . S
C841 C175 1.150 . S
C865 C287 0.632 . S
C873 C399 0.570 . S
C897 C413 0.519 . S
C905 C371 0.611 . S
C929 C427 1.943 . S
C937 C385 1.930 . S
C961 C3 1.396 . S
C969 C23 1.427 . S
C993 C36 1.572 . S
C1001 C22 1.561 . S
C1025 C45 1.200 . S
C1033 C31 1.197 . S
C1057 C51 1.693 . S
C1065 C8 1.718 . S
C1089 C101 1.413 . S
C1097 C65 1.426 . S
C1121 C79 1.675 . S
C1129 C59 1.682 . S
C1153 C87 1.343 . S
C1161 C73 1.337 . S
C1185 C92 1.750 . S
C1193 C107 1.726 . S
C1217 C134 1.746 . S
C1225 C9 1.718 . S
C1249 C120 1.574 . S
C1257 C50 1.578 . S
C1281 C149 1.653 . S
C1289 C17 1.679 . S
C1313 C387 1.679 . S
C1321 C106 1.715 . S
C1345 C400 1.716 . S
C1353 C37 1.703 . S
C1377 C162 1.574 . S
C1385 C64 1.566 . S
C1409 C93 1.685 . S
C1417 C171 1.679 . S
C1441 C204 1.404 . S
C1449 C185 1.399 . S
C1473 C219 1.602 . S
C1481 C205 1.621 . S
C1505 C227 1.278 . S
C1513 C213 1.264 . S
C1537 C191 1.688 . S
C1545 C232 1.723 . S
C1569 C246 1.416 . S
C1577 C283 1.393 . S
C1601 C241 1.673 . S
C1609 C260 1.661 . S
C1633 C269 1.305 . S
C1641 C255 1.326 . S
C1665 C275 1.674 . S
C1673 C288 1.711 . S
C1697 C190 1.701 . S
C1705 C317 1.697 . S
C1729 C303 1.608 . S
C1737 C233 1.616 . S
C1761 C330 1.645 . S
C1769 C199 1.667 . S
C1793 C428 1.722 . S
C1801 C289 1.700 . S
C1825 C443 1.701 . S
C1833 C218 1.719 . S
C1857 C247 1.619 . S
C1865 C345 1.614 . S
C1889 C353 1.676 . S
C1897 C274 1.660 . S
C1921 C177 1.412 . S
C1929 C367 1.415 . S
C1953 C386 1.571 . S
C1961 C176 1.558 . S
C1985 C157 1.200 . S
C1993 C381 1.197 . S
C2017 C163 1.681 . S
C2025 C372 1.715 . S
C2049 C121 1.435 . S
C2057 C395 1.430 . S
C2081 C135 1.649 . S
C2089 C115 1.677 . S
C2113 C143 1.338 . S
C2121 C129 1.353 . S
C2145 C148 1.750 . S
C2153 C401 1.724 . S
C2177 C373 1.715 . S
C2185 C78 1.750 . S
C2209 C358 1.404 . S
C2217 C409 1.400 . S
C2241 C359 1.612 . S
C2249 C429 1.625 . S
C2273 C423 1.278 . S
C2281 C339 1.278 . S
C2305 C344 1.700 . S
C2313 C415 1.712 . S
C2337 C437 1.394 . S
C2345 C302 1.410 . S
C2369 C297 1.664 . S
C2377 C316 1.665 . S
C2401 C325 1.304 . S
C2409 C311 1.333 . S
C2433 C331 1.674 . S
C2441 C442 1.711 . S
C2465 C414 1.695 . S
C2473 C261 1.700 . S
