# Generated by pormake.
# Topology bsn, (6)-cn, num edge types: 1
# Building blocks:
#     Node 0, Type 0, BuildingBlock: LEVNOQ01_clean_sbu_1, # of connection points: 6
#     Node 1, Type 0, BuildingBlock: LEVNOQ01_clean_sbu_1, # of connection points: 6
#     Node 2, Type 0, BuildingBlock: LEVNOQ01_clean_sbu_1, # of connection points: 6
#     Node 3, Type 0, BuildingBlock: LEVNOQ01_clean_sbu_1, # of connection points: 6
#     Edge 4, Type (0, 0), BuildingBlock: FUNLAD_clean_linker_0, # of connection points: 2
#     Edge 5, Type (0, 0), BuildingBlock: FUNLAD_clean_linker_0, # of connection points: 2
#     Edge 6, Type (0, 0), BuildingBlock: FUNLAD_clean_linker_0, # of connection points: 2
#     Edge 7, Type (0, 0), BuildingBlock: FUNLAD_clean_linker_0, # of connection points: 2
#     Edge 8, Type (0, 0), BuildingBlock: FUNLAD_clean_linker_0, # of connection points: 2
#     Edge 9, Type (0, 0), BuildingBlock: FUNLAD_clean_linker_0, # of connection points: 2
#     Edge 10, Type (0, 0), BuildingBlock: FUNLAD_clean_linker_0, # of connection points: 2
#     Edge 11, Type (0, 0), BuildingBlock: FUNLAD_clean_linker_0, # of connection points: 2
#     Edge 12, Type (0, 0), BuildingBlock: FUNLAD_clean_linker_0, # of connection points: 2
#     Edge 13, Type (0, 0), BuildingBlock: FUNLAD_clean_linker_0, # of connection points: 2
#     Edge 14, Type (0, 0), BuildingBlock: FUNLAD_clean_linker_0, # of connection points: 2
#     Edge 15, Type (0, 0), BuildingBlock: FUNLAD_clean_linker_0, # of connection points: 2
# Relax obj value: 0.175
# Max RMSD: 0.189
# Mean RMSD: 0.189
data_MOF--net-bsn--node1-LEVNOQ01_clean_sbu_1--edge1-FUNLAD_clean_linker_0
_symmetry_space_group_name_H-M    P1
_symmetry_Int_Tables_number       1
_symmetry_cell_setting            triclinic
loop_
_symmetry_equiv_pos_as_xyz
'x, y, z'
_cell_length_a     36.020367
_cell_length_b     34.567652
_cell_length_c     18.034792
_cell_angle_alpha  90.225767
_cell_angle_beta   99.58718
_cell_angle_gamma 89.88844
loop_
_atom_site_label
_atom_site_type_symbol
_atom_site_fract_x
_atom_site_fract_y
_atom_site_fract_z
_atom_type_partial_charge
O0 O 0.04441 0.20628 0.49826 0.0
Mg1 Mg 0.00826 0.21291 0.39856 0.0
O2 O 0.04433 0.26697 0.46681 0.0
Mg3 Mg 0.03848 0.26171 0.33525 0.0
O4 O 0.03588 0.19132 0.31649 0.0
O5 O 0.99145 0.15962 0.366 0.0
O6 O 0.03379 0.26155 0.20806 0.0
O7 O 0.10444 0.25384 0.35185 0.0
Mg8 Mg 0.07836 0.33509 0.28016 0.0
O9 O 0.03968 0.32884 0.34895 0.0
O10 O 0.05573 0.31693 0.17146 0.0
O11 O 0.12988 0.31005 0.32903 0.0
O12 O 0.06101 0.38644 0.31944 0.0
C13 C 0.94782 0.26201 0.3434 0.0
C14 C 0.05182 0.24078 0.51616 0.0
C15 C 0.01751 0.15949 0.32531 0.0
C16 C 0.03992 0.28447 0.15661 0.0
C17 C 0.13337 0.27495 0.3493 0.0
C18 C 0.0403 0.36629 0.35668 0.0
O19 O 0.95524 0.2401 0.3994 0.0
O20 O 0.97403 0.2708 0.3077 0.0
O21 O 0.01078 0.71089 0.42284 0.0
Mg22 Mg 0.0475 0.7084 0.52335 0.0
O23 O 0.00207 0.76796 0.47026 0.0
Mg24 Mg 0.01753 0.76102 0.60233 0.0
O25 O 0.02052 0.691 0.6095 0.0
O26 O 0.05758 0.65313 0.55054 0.0
O27 O 0.03203 0.75595 0.73225 0.0
O28 O 0.95419 0.75185 0.60843 0.0
Mg29 Mg 0.98922 0.83153 0.68915 0.0
O30 O 0.01368 0.82819 0.59597 0.0
O31 O 0.02791 0.8138 0.78332 0.0
O32 O 0.93624 0.80294 0.66925 0.0
O33 O 0.99707 0.88429 0.64242 0.0
C34 C 0.10747 0.76148 0.57471 0.0
C35 C 0.998 0.74473 0.41444 0.0
C36 C 0.03401 0.65691 0.59644 0.0
C37 C 0.03778 0.77863 0.78882 0.0
C38 C 0.92917 0.77058 0.63636 0.0
C39 C 0.01162 0.86571 0.59206 0.0
O40 O 0.10084 0.73384 0.52881 0.0
O41 O 0.08146 0.7736 0.60841 0.0
O42 O 0.49791 0.75216 -0.02831 0.0
Mg43 Mg 0.5007 0.71363 0.88063 0.0
O44 O 0.55366 0.76602 0.95059 0.0
Mg45 Mg 0.53538 0.75878 0.82339 0.0
O46 O 0.54206 0.68976 0.82773 0.0
O47 O 0.52097 0.66344 0.92679 0.0
O48 O 0.52256 0.75497 0.69386 0.0
O49 O 0.59907 0.75373 0.81768 0.0
Mg50 Mg 0.5697 0.83447 0.7543 0.0
O51 O 0.53461 0.82511 0.8285 0.0
O52 O 0.54086 0.81156 0.65276 0.0
O53 O 0.62359 0.81017 0.79361 0.0
O54 O 0.55046 0.88443 0.79897 0.0
C55 C 0.44086 0.74058 0.79979 0.0
C56 C 0.52928 0.76777 -0.00702 0.0
C57 C 0.54112 0.6612 0.87437 0.0
C58 C 0.52532 0.77866 0.64095 0.0
C59 C 0.6273 0.77447 0.80925 0.0
C60 C 0.53181 0.86218 0.83657 0.0
O61 O 0.44947 0.70589 0.81506 0.0
O62 O 0.4668 0.76638 0.81184 0.0
O63 O 0.54908 0.25287 0.9631 0.0
Mg64 Mg 0.55069 0.21752 0.05887 0.0
O65 O 0.49295 0.26683 -0.01672 0.0
Mg66 Mg 0.51226 0.26014 0.11066 0.0
O67 O 0.50883 0.19016 0.10386 0.0
O68 O 0.53816 0.16497 0.01396 0.0
O69 O 0.52919 0.25232 0.23739 0.0
O70 O 0.44728 0.24911 0.11936 0.0
Mg71 Mg 0.47349 0.31699 0.16816 0.0
O72 O 0.51436 0.32912 0.10717 0.0
O73 O 0.4853 0.28906 0.27303 0.0
O74 O 0.42137 0.30623 0.10268 0.0
O75 O 0.48672 0.37348 0.17147 0.0
C76 C 0.60778 0.25202 0.13122 0.0
C77 C 0.51693 0.26647 0.93956 0.0
C78 C 0.5149 0.1614 0.06035 0.0
C79 C 0.51133 0.26434 0.28777 0.0
C80 C 0.41768 0.27017 0.10766 0.0
C81 C 0.50851 0.36521 0.12356 0.0
O82 O 0.60333 0.216 0.12416 0.0
O83 O 0.57901 0.27422 0.11726 0.0
C84 C 0.00156 0.42196 0.38462 0.0
C85 C 0.01952 0.38703 0.40848 0.0
C86 C 0.99215 0.44865 0.43681 0.0
C87 C 1.00103 0.44118 0.51447 0.0
C88 C 0.01631 0.40482 0.5378 0.0
C89 C 0.02514 0.37774 0.48515 0.0
C90 C 0.00171 0.47305 0.57082 0.0
C91 C 0.98138 0.50592 0.55744 0.0
C92 C 0.99244 0.54371 0.59525 0.0
C93 C 0.96698 0.57492 0.58382 0.0
C94 C 0.9796 0.61312 0.5968 0.0
C95 C 0.01804 0.62067 0.62027 0.0
H96 H 0.05081 0.52854 0.63751 0.0
C97 C 0.04257 0.58943 0.64048 0.0
C98 C 0.02998 0.55134 0.62835 0.0
H99 H 0.07245 0.5945 0.65768 0.0
H100 H 0.99734 0.42992 0.32572 0.0
H101 H 0.98116 0.47641 0.41601 0.0
H102 H 0.02376 0.39836 0.59715 0.0
H103 H 0.03954 0.35126 0.50498 0.0
H104 H 0.02264 0.47083 0.62142 0.0
H105 H 0.95808 0.50656 0.51069 0.0
H106 H 0.93793 0.57005 0.55838 0.0
H107 H 0.96019 0.63664 0.5795 0.0
C108 C 0.69736 0.77286 0.82626 0.0
C109 C 0.66264 0.7555 0.7988 0.0
C110 C 0.72995 0.76053 0.80054 0.0
C111 C 0.72804 0.73143 0.7452 0.0
C112 C 0.6936 0.71292 0.72038 0.0
C113 C 0.66124 0.72437 0.74804 0.0
C114 C 0.76012 0.72465 0.70502 0.0
C115 C 0.79594 0.72527 0.74055 0.0
C116 C 0.82831 0.72957 0.7003 0.0
C117 C 0.86315 0.71352 0.73162 0.0
C118 C 0.89581 0.7239 0.70431 0.0
C119 C 0.89421 0.75129 0.64665 0.0
H120 H 0.80003 0.76833 0.6144 0.0
C121 C 0.85926 0.76604 0.61277 0.0
C122 C 0.82639 0.75479 0.6386 0.0
H123 H 0.85767 0.78791 0.56949 0.0
H124 H 0.69891 0.79726 0.86453 0.0
H125 H 0.75601 0.77585 0.81965 0.0
H126 H 0.69141 0.69077 0.67719 0.0
H127 H 0.63458 0.71107 0.72488 0.0
H128 H 0.75411 0.72149 0.64421 0.0
H129 H 0.80176 0.72507 0.80168 0.0
H130 H 0.86538 0.69449 0.77977 0.0
H131 H 0.92271 0.71298 0.73245 0.0
C132 C 0.54661 0.39157 0.02883 0.0
C133 C 0.52109 0.39728 0.07922 0.0
C134 C 0.55381 0.42156 -0.01942 0.0
C135 C 0.53477 0.4571 -0.01901 0.0
C136 C 0.51005 0.46287 0.03217 0.0
C137 C 0.50373 0.43367 0.08138 0.0
C138 C 0.53804 0.48851 0.927 0.0
C139 C 0.57114 0.50414 0.91783 0.0
C140 C 0.57199 0.54412 0.88804 0.0
C141 C 0.5955 0.57149 0.93001 0.0
C142 C 0.58849 0.61106 0.91889 0.0
C143 C 0.55867 0.62366 0.8641 0.0
H144 H 0.52673 0.53632 0.79362 0.0
C145 C 0.53834 0.59645 0.8157 0.0
C146 C 0.54492 0.55687 0.82756 0.0
H147 H 0.51474 0.60557 0.77402 0.0
H148 H 0.56023 0.3638 0.02547 0.0
H149 H 0.57291 0.41649 0.94109 0.0
H150 H 0.49516 0.49008 0.03359 0.0
H151 H 0.48374 0.43927 0.11885 0.0
H152 H 0.51215 0.50396 0.90565 0.0
H153 H 0.59718 0.4914 0.94664 0.0
H154 H 0.61656 0.5624 -0.02321 0.0
H155 H 0.60403 0.63159 0.95771 0.0
C156 C 0.88092 0.27625 0.35639 0.0
C157 C 0.90844 0.27032 0.31074 0.0
C158 C 0.84282 0.27887 0.32404 0.0
C159 C 0.83188 0.27461 0.24579 0.0
C160 C 0.8596 0.26933 0.20057 0.0
C161 C 0.89752 0.26781 0.23251 0.0
C162 C 0.79199 0.27101 0.20996 0.0
C163 C 0.76334 0.29032 0.23283 0.0
C164 C 0.72295 0.28445 0.19905 0.0
C165 C 0.69477 0.30158 0.23397 0.0
C166 C 0.65663 0.29325 0.20907 0.0
C167 C 0.64625 0.26723 0.14947 0.0
H168 H 0.73156 0.24802 0.10374 0.0
C169 C 0.67394 0.25192 0.11179 0.0
C170 C 0.71173 0.26081 0.13532 0.0
H171 H 0.66636 0.2322 0.06484 0.0
H172 H 0.88879 0.27793 0.41696 0.0
H173 H 0.82199 0.28214 0.36051 0.0
H174 H 0.85181 0.26539 0.14033 0.0
H175 H 0.91813 0.26246 0.1962 0.0
H176 H 0.78694 0.25141 0.16251 0.0
H177 H 0.76962 0.31044 0.27968 0.0
H178 H 0.70233 0.32032 0.28241 0.0
H179 H 0.63556 0.30533 0.23894 0.0
C180 C 0.37964 0.22839 0.18005 0.0
C181 C 0.38108 0.25607 0.12355 0.0
C182 C 0.34714 0.22467 0.21308 0.0
C183 C 0.31564 0.24849 0.18955 0.0
C184 C 0.31623 0.27357 0.12874 0.0
C185 C 0.34846 0.27726 0.09602 0.0
C186 C 0.2836 0.25206 0.23154 0.0
C187 C 0.27351 0.22585 0.27964 0.0
C188 C 0.24077 0.23409 0.31757 0.0
C189 C 0.21071 0.20787 0.31197 0.0
C190 C 0.17609 0.21963 0.33067 0.0
C191 C 0.17139 0.25769 0.3555 0.0
H192 H 0.26045 0.2908 0.35776 0.0
C193 C 0.20298 0.28207 0.36979 0.0
C194 C 0.23731 0.27041 0.35098 0.0
H195 H 0.20039 0.31137 0.38992 0.0
H196 H 0.40459 0.21214 0.20335 0.0
H197 H 0.34788 0.20528 0.26023 0.0
H198 H 0.29235 0.29213 0.10915 0.0
H199 H 0.34877 0.29892 0.05284 0.0
H200 H 0.2668 0.27831 0.22146 0.0
H201 H 0.287 0.1977 0.2865 0.0
H202 H 0.21294 0.17956 0.28709 0.0
H203 H 0.15224 0.2002 0.31902 0.0
C204 C 0.38775 0.78772 0.75619 0.0
C205 C 0.40127 0.74962 0.76753 0.0
C206 C 0.35005 0.79447 0.72342 0.0
C207 C 0.32577 0.76312 0.70096 0.0
C208 C 0.33944 0.72537 0.71289 0.0
C209 C 0.37645 0.71868 0.74612 0.0
C210 C 0.28653 0.76759 0.6617 0.0
C211 C 0.26342 0.79695 0.67251 0.0
C212 C 0.22273 0.79485 0.6402 0.0
C213 C 0.19575 0.80696 0.68328 0.0
C214 C 0.15764 0.79813 0.66003 0.0
C215 C 0.14607 0.77708 0.59329 0.0
H216 H 0.23044 0.76881 0.53399 0.0
C217 C 0.17268 0.76805 0.54718 0.0
C218 C 0.21053 0.77715 0.57001 0.0
H219 H 0.1645 0.75265 0.49458 0.0
H220 H 0.40623 0.81211 0.77209 0.0
H221 H 0.34033 0.82397 0.71393 0.0
H222 H 0.32136 0.70072 0.69621 0.0
H223 H 0.38568 0.6889 0.75377 0.0
H224 H 0.27499 0.74304 0.62765 0.0
H225 H 0.27321 0.81977 0.71255 0.0
H226 H 0.2044 0.82108 0.73711 0.0
H227 H 0.13765 0.80586 0.69635 0.0
C228 C 0.52592 0.88911 0.96154 0.0
C229 C 0.50909 0.88023 0.88766 0.0
C230 C 0.51133 0.91882 0.00138 0.0
C231 C 0.47981 0.94042 0.96721 0.0
C232 C 0.46084 0.92835 0.89638 0.0
C233 C 0.47554 0.89882 0.85669 0.0
C234 C 0.46892 0.97856 -0.00333 0.0
C235 C 0.49093 0.99932 0.05043 0.0
C236 C 0.48732 0.04207 0.0585 0.0
C237 C 0.50345 0.06015 0.12628 0.0
C238 C 0.50846 0.1004 0.13 0.0
C239 C 0.49803 0.12302 0.06551 0.0
H240 H 0.4626 0.05288 0.94185 0.0
C241 C 0.47973 0.10543 -0.00075 0.0
C242 C 0.47416 0.06545 -0.00424 0.0
H243 H 0.47224 0.12228 0.94838 0.0
H244 H 0.55215 0.87536 -0.01393 0.0
H245 H 0.52631 0.92604 0.05666 0.0
H246 H 0.43636 0.94401 0.86866 0.0
H247 H 0.46247 0.89285 0.79921 0.0
H248 H 0.44402 0.99238 0.96555 0.0
H249 H 0.51505 0.98598 0.08485 0.0
H250 H 0.51429 0.0429 0.17514 0.0
H251 H 0.52352 0.11327 0.18113 0.0
C252 C 0.04419 0.92331 0.55292 0.0
C253 C 0.0255 0.88826 0.53289 0.0
C254 C 0.05037 0.94979 0.49803 0.0
C255 C 0.03752 0.94207 0.42137 0.0
C256 C 0.02053 0.90601 0.40115 0.0
C257 C 0.01496 0.87907 0.45644 0.0
C258 C 0.03586 0.97342 0.36409 0.0
C259 C 0.059 1.00447 0.37266 0.0
C260 C 0.05014 0.04243 0.33407 0.0
C261 C 0.07796 0.07145 0.34256 0.0
C262 C 0.06827 0.11035 0.32771 0.0
C263 C 0.03046 0.12089 0.3049 0.0
H264 H 0.99053 0.03175 0.29496 0.0
C265 C 0.00346 0.09148 0.2877 0.0
C266 C 0.01309 0.0527 0.30209 0.0
H267 H 0.97401 0.09884 0.27086 0.0
H268 H 0.05236 0.93118 0.61161 0.0
H269 H 0.06267 0.97742 0.5166 0.0
H270 H 0.00994 0.89942 0.34269 0.0
H271 H 0.99999 0.85247 0.43966 0.0
H272 H 0.01282 0.97218 0.317 0.0
H273 H 0.08395 1.00358 0.41579 0.0
H274 H 0.10675 0.06453 0.36695 0.0
H275 H 0.0896 0.13237 0.34269 0.0
C276 C 0.05066 0.28911 0.02617 0.0
C277 C 0.0311 0.27211 0.07834 0.0
C278 C 0.04493 0.27622 0.95278 0.0
C279 C 0.01977 0.24583 0.93011 0.0
C280 C 0.99866 0.22987 -0.01918 0.0
C281 C 0.00466 0.2427 0.0554 0.0
C282 C 0.01622 0.23184 0.85273 0.0
C283 C 0.04781 0.22798 0.82327 0.0
C284 C 0.04968 0.2353 0.74405 0.0
C285 C 0.08293 0.22553 0.71762 0.0
C286 C 0.08609 0.23234 0.64314 0.0
C287 C 0.05627 0.24962 0.59514 0.0
H288 H 0.99575 0.26522 0.71642 0.0
C289 C 0.02448 0.26275 0.62281 0.0
C290 C 0.02103 0.25548 0.69699 0.0
H291 H 1.0009 0.27541 0.58549 0.0
H292 H 0.07121 0.31176 0.04232 0.0
H293 H 0.06067 0.28981 0.91371 0.0
H294 H 0.97858 0.20695 0.9634 0.0
H295 H 0.98896 0.22957 0.095 0.0
H296 H 0.98844 0.23113 0.81841 0.0
H297 H 0.07463 0.22539 0.86108 0.0
H298 H 0.10589 0.21128 0.75384 0.0
H299 H 0.11052 0.22156 0.62163 0.0
C300 C 0.02795 0.73209 0.88711 0.0
C301 C 0.0486 0.76298 0.8645 0.0
C302 C 0.02775 0.72594 0.96342 0.0
C303 C 0.04876 0.75023 0.01733 0.0
C304 C 0.07336 0.77743 -0.00519 0.0
C305 C 0.07279 0.78429 0.91854 0.0
C306 C 0.04144 0.75184 0.09512 0.0
C307 C 0.00597 0.7529 0.10953 0.0
C308 C 0.99768 0.75897 0.18602 0.0
C309 C 0.96828 0.73812 0.20891 0.0
C310 C 0.9646 0.73752 0.28465 0.0
C311 C 0.98957 0.75875 0.33743 0.0
H312 H 0.04187 0.80115 0.22056 0.0
C313 C 0.0156 0.78371 0.31294 0.0
C314 C 0.01989 0.7836 0.23755 0.0
H315 H 0.03545 0.7999 0.35312 0.0
H316 H 0.00901 0.71541 0.8461 0.0
H317 H 0.00925 0.70408 -0.02 0.0
H318 H 0.09017 0.796 0.03585 0.0
H319 H 0.08899 0.80816 0.90185 0.0
H320 H 0.06518 0.75663 0.13992 0.0
H321 H 0.98233 0.74823 0.06441 0.0
H322 H 0.95031 0.71968 0.16953 0.0
H323 H 0.94462 0.71779 0.30294 0.0
C324 C 0.56721 0.76503 0.11972 0.0
C325 C 0.53843 0.78258 0.06921 0.0
C326 C 0.56933 0.77132 0.19663 0.0
C327 C 0.54319 0.7959 0.22265 0.0
C328 C 0.51735 0.81686 0.17149 0.0
C329 C 0.51447 0.80964 0.09482 0.0
C330 C 0.53849 0.79568 0.30164 0.0
C331 C 0.53328 0.76214 0.33602 0.0
C332 C 0.52283 0.76121 0.41147 0.0
C333 C 0.53682 0.73159 0.4614 0.0
C334 C 0.5332 0.73439 0.53712 0.0
C335 C 0.51548 0.7668 0.56264 0.0
H336 H 0.48784 0.81285 0.3973 0.0
C337 C 0.49742 0.79371 0.51097 0.0
C338 C 0.50076 0.79076 0.43559 0.0
H339 H 0.48343 0.81877 0.52994 0.0
H340 H 0.58583 0.74401 0.10031 0.0
H341 H 0.58977 0.75534 0.23577 0.0
H342 H 0.49722 0.83612 0.19103 0.0
H343 H 0.49224 0.82346 0.05595 0.0
H344 H 0.53468 0.82332 0.32824 0.0
H345 H 0.5372 0.73472 0.30852 0.0
H346 H 0.55312 0.70805 0.44323 0.0
H347 H 0.54757 0.71353 0.5766 0.0
C348 C 0.48748 0.23144 0.39015 0.0
C349 C 0.51805 0.24746 0.36237 0.0
C350 C 0.49041 0.2235 0.46626 0.0
C351 C 0.52369 0.23265 0.51547 0.0
C352 C 0.5556 0.24447 0.48619 0.0
C353 C 0.5528 0.25193 0.40945 0.0
C354 C 0.5242 0.23579 0.59695 0.0
C355 C 0.494 0.24867 0.62487 0.0
C356 C 0.49684 0.26004 0.70409 0.0
C357 C 0.4675 0.25121 0.74336 0.0
C358 C 0.4722 0.2574 0.82087 0.0
C359 C 0.50623 0.2726 0.85894 0.0
H360 H 0.55125 0.28803 0.71113 0.0
C361 C 0.53375 0.28526 0.81822 0.0
C362 C 0.52903 0.27918 0.74113 0.0
H363 H 0.56001 0.29745 0.84677 0.0
H364 H 0.46069 0.2271 0.35361 0.0
H365 H 0.46591 0.21262 0.48699 0.0
H366 H 0.5817 0.25111 0.52333 0.0
H367 H 0.57666 0.26408 0.38821 0.0
H368 H 0.55114 0.23251 0.63382 0.0
H369 H 0.46682 0.25217 0.58908 0.0
H370 H 0.44212 0.23721 0.71508 0.0
H371 H 0.45074 0.24719 0.85162 0.0
loop_
_geom_bond_atom_site_label_1
_geom_bond_atom_site_label_2
_geom_bond_distance
_geom_bond_site_symmetry_2
_ccdc_geom_bond_type
O0 Mg1 1.990 1_455 S
O0 C14 1.253 . S
Mg1 O0 1.990 1_655 S
Mg1 O4 2.180 1_655 S
Mg1 O5 2.117 1_655 S
Mg1 O19 2.030 . S
O2 Mg3 2.072 . S
O2 C14 1.260 . S
Mg3 O2 2.072 . S
Mg3 O4 2.099 . S
Mg3 O6 2.079 . S
Mg3 O7 2.072 . S
Mg3 O9 2.099 . S
Mg3 O20 2.079 1_455 S
O4 Mg1 2.180 1_455 S
O4 Mg3 2.099 . S
O4 C15 1.279 . S
O5 Mg1 2.117 1_455 S
O5 C15 1.250 . S
O6 Mg3 2.079 . S
O6 C16 1.264 . S
O7 Mg3 2.072 . S
O7 C17 1.260 . S
Mg8 O9 2.180 . S
Mg8 O10 2.030 . S
Mg8 O11 1.990 . S
Mg8 O12 2.117 . S
O9 Mg3 2.099 . S
O9 Mg8 2.180 . S
O9 C18 1.279 . S
O10 Mg8 2.030 . S
O10 C16 1.248 . S
O11 Mg8 1.990 . S
O11 C17 1.253 . S
O12 Mg8 2.117 . S
O12 C18 1.250 . S
C13 O19 1.248 . S
C13 O20 1.264 . S
C14 O0 1.253 . S
C14 O2 1.260 . S
C15 O4 1.279 . S
C15 O5 1.250 . S
C16 O6 1.264 . S
C16 O10 1.248 . S
C17 O7 1.260 . S
C17 O11 1.253 . S
C18 O9 1.279 . S
C18 O12 1.250 . S
O19 Mg1 2.030 . S
O19 C13 1.248 . S
O20 Mg3 2.079 1_655 S
O20 C13 1.264 . S
O21 Mg22 1.990 . S
O21 C35 1.253 . S
Mg22 O21 1.990 . S
Mg22 O25 2.180 . S
Mg22 O26 2.117 . S
Mg22 O40 2.030 . S
O23 Mg24 2.072 . S
O23 C35 1.260 . S
Mg24 O23 2.072 . S
Mg24 O25 2.099 . S
Mg24 O27 2.079 . S
Mg24 O28 2.072 1_455 S
Mg24 O30 2.099 . S
Mg24 O41 2.079 . S
O25 Mg22 2.180 . S
O25 Mg24 2.099 . S
O25 C36 1.279 . S
O26 Mg22 2.117 . S
O26 C36 1.250 . S
O27 Mg24 2.079 . S
O27 C37 1.264 . S
O28 Mg24 2.072 1_655 S
O28 C38 1.260 . S
Mg29 O30 2.180 1_655 S
Mg29 O31 2.030 . S
Mg29 O32 1.990 . S
Mg29 O33 2.117 . S
O30 Mg24 2.099 . S
O30 Mg29 2.180 1_455 S
O30 C39 1.279 . S
O31 Mg29 2.030 . S
O31 C37 1.248 1_655 S
O32 Mg29 1.990 . S
O32 C38 1.253 . S
O33 Mg29 2.117 . S
O33 C39 1.250 1_655 S
C34 O40 1.248 . S
C34 O41 1.264 . S
C35 O21 1.253 . S
C35 O23 1.260 . S
C36 O25 1.279 . S
C36 O26 1.250 . S
C37 O27 1.264 . S
C37 O31 1.248 1_455 S
C38 O28 1.260 . S
C38 O32 1.253 . S
C39 O30 1.279 . S
C39 O33 1.250 1_455 S
O40 Mg22 2.030 . S
O40 C34 1.248 . S
O41 Mg24 2.079 . S
O41 C34 1.264 . S
O42 Mg43 1.990 1_554 S
O42 C56 1.253 . S
Mg43 O42 1.990 1_556 S
Mg43 O46 2.180 . S
Mg43 O47 2.117 . S
Mg43 O61 2.030 . S
O44 Mg45 2.072 . S
O44 C56 1.260 1_556 S
Mg45 O44 2.072 . S
Mg45 O46 2.099 . S
Mg45 O48 2.079 . S
Mg45 O49 2.072 . S
Mg45 O51 2.099 . S
Mg45 O62 2.079 . S
O46 Mg43 2.180 . S
O46 Mg45 2.099 . S
O46 C57 1.279 . S
O47 Mg43 2.117 . S
O47 C57 1.250 . S
O48 Mg45 2.079 . S
O48 C58 1.264 . S
O49 Mg45 2.072 . S
O49 C59 1.260 . S
Mg50 O51 2.180 . S
Mg50 O52 2.030 . S
Mg50 O53 1.990 . S
Mg50 O54 2.117 . S
O51 Mg45 2.099 . S
O51 Mg50 2.180 . S
O51 C60 1.279 . S
O52 Mg50 2.030 . S
O52 C58 1.248 . S
O53 Mg50 1.990 . S
O53 C59 1.253 . S
O54 Mg50 2.117 . S
O54 C60 1.250 . S
C55 O61 1.248 . S
C55 O62 1.264 . S
C56 O42 1.253 . S
C56 O44 1.260 1_554 S
C57 O46 1.279 . S
C57 O47 1.250 . S
C58 O48 1.264 . S
C58 O52 1.248 . S
C59 O49 1.260 . S
C59 O53 1.253 . S
C60 O51 1.279 . S
C60 O54 1.250 . S
O61 Mg43 2.030 . S
O61 C55 1.248 . S
O62 Mg45 2.079 . S
O62 C55 1.264 . S
O63 Mg64 1.990 1_556 S
O63 C77 1.253 . S
Mg64 O63 1.990 1_554 S
Mg64 O67 2.180 . S
Mg64 O68 2.117 . S
Mg64 O82 2.030 . S
O65 Mg66 2.072 . S
O65 C77 1.260 1_554 S
Mg66 O65 2.072 . S
Mg66 O67 2.099 . S
Mg66 O69 2.079 . S
Mg66 O70 2.072 . S
Mg66 O72 2.099 . S
Mg66 O83 2.079 . S
O67 Mg64 2.180 . S
O67 Mg66 2.099 . S
O67 C78 1.279 . S
O68 Mg64 2.117 . S
O68 C78 1.250 . S
O69 Mg66 2.079 . S
O69 C79 1.264 . S
O70 Mg66 2.072 . S
O70 C80 1.260 . S
Mg71 O72 2.180 . S
Mg71 O73 2.030 . S
Mg71 O74 1.990 . S
Mg71 O75 2.117 . S
O72 Mg66 2.099 . S
O72 Mg71 2.180 . S
O72 C81 1.279 . S
O73 Mg71 2.030 . S
O73 C79 1.248 . S
O74 Mg71 1.990 . S
O74 C80 1.253 . S
O75 Mg71 2.117 . S
O75 C81 1.250 . S
C76 O82 1.248 . S
C76 O83 1.264 . S
C77 O63 1.253 . S
C77 O65 1.260 1_556 S
C78 O67 1.279 . S
C78 O68 1.250 . S
C79 O69 1.264 . S
C79 O73 1.248 . S
C80 O70 1.260 . S
C80 O74 1.253 . S
C81 O72 1.279 . S
C81 O75 1.250 . S
O82 Mg64 2.030 . S
O82 C76 1.248 . S
O83 Mg66 2.079 . S
O83 C76 1.264 . S
C84 C85 1.386 1_655 S
C84 C86 1.383 . S
C84 H100 0.951 . S
C85 C84 1.386 1_455 S
C85 C89 1.383 . S
C86 C84 1.383 . S
C86 C87 1.402 1_655 S
C86 H101 0.951 . S
C87 C86 1.402 1_455 S
C87 C88 1.375 . S
C87 C90 1.481 . S
C88 C87 1.375 . S
C88 C89 1.367 . S
C88 H102 0.951 . S
C89 C85 1.383 . S
C89 C88 1.367 . S
C89 H103 0.950 . S
C90 C87 1.481 . S
C90 C91 1.297 1_455 S
C90 H104 0.950 . S
C91 C90 1.297 1_655 S
C91 C92 1.479 . S
C91 H105 0.950 . S
C92 C91 1.479 . S
C92 C93 1.375 . S
C92 C98 1.404 1_655 S
C93 C92 1.375 . S
C93 C94 1.369 . S
C93 H106 0.950 . S
C94 C93 1.369 . S
C94 C95 1.392 1_655 S
C94 H107 0.951 . S
C95 C94 1.392 1_455 S
C95 C97 1.384 . S
H96 C98 0.949 . S
C97 C95 1.384 . S
C97 C98 1.385 . S
C97 H99 0.950 . S
C98 C92 1.404 1_455 S
C98 H96 0.949 . S
C98 C97 1.385 . S
H99 C97 0.950 . S
H100 C84 0.951 . S
H101 C86 0.951 . S
H102 C88 0.951 . S
H103 C89 0.950 . S
H104 C90 0.950 . S
H105 C91 0.950 . S
H106 C93 0.950 . S
H107 C94 0.951 . S
C108 C109 1.386 . S
C108 C110 1.383 . S
C108 H124 0.951 . S
C109 C108 1.386 . S
C109 C113 1.383 . S
C110 C108 1.383 . S
C110 C111 1.402 . S
C110 H125 0.951 . S
C111 C110 1.402 . S
C111 C112 1.375 . S
C111 C114 1.481 . S
C112 C111 1.375 . S
C112 C113 1.367 . S
C112 H126 0.951 . S
C113 C109 1.383 . S
C113 C112 1.367 . S
C113 H127 0.950 . S
C114 C111 1.481 . S
C114 C115 1.297 . S
C114 H128 0.950 . S
C115 C114 1.297 . S
C115 C116 1.479 . S
C115 H129 0.950 . S
C116 C115 1.479 . S
C116 C117 1.375 . S
C116 C122 1.404 . S
C117 C116 1.375 . S
C117 C118 1.369 . S
C117 H130 0.950 . S
C118 C117 1.369 . S
C118 C119 1.392 . S
C118 H131 0.951 . S
C119 C118 1.392 . S
C119 C121 1.384 . S
H120 C122 0.949 . S
C121 C119 1.384 . S
C121 C122 1.385 . S
C121 H123 0.950 . S
C122 C116 1.404 . S
C122 H120 0.949 . S
C122 C121 1.385 . S
H123 C121 0.950 . S
H124 C108 0.951 . S
H125 C110 0.951 . S
H126 C112 0.951 . S
H127 C113 0.950 . S
H128 C114 0.950 . S
H129 C115 0.950 . S
H130 C117 0.950 . S
H131 C118 0.951 . S
C132 C133 1.386 . S
C132 C134 1.383 . S
C132 H148 0.951 . S
C133 C132 1.386 . S
C133 C137 1.383 . S
C134 C132 1.383 . S
C134 C135 1.402 . S
C134 H149 0.951 1_554 S
C135 C134 1.402 . S
C135 C136 1.375 . S
C135 C138 1.481 1_554 S
C136 C135 1.375 . S
C136 C137 1.367 . S
C136 H150 0.951 . S
C137 C133 1.383 . S
C137 C136 1.367 . S
C137 H151 0.950 . S
C138 C135 1.481 1_556 S
C138 C139 1.297 . S
C138 H152 0.950 . S
C139 C138 1.297 . S
C139 C140 1.479 . S
C139 H153 0.950 . S
C140 C139 1.479 . S
C140 C141 1.375 . S
C140 C146 1.404 . S
C141 C140 1.375 . S
C141 C142 1.369 . S
C141 H154 0.950 . S
C142 C141 1.369 . S
C142 C143 1.392 . S
C142 H155 0.951 . S
C143 C142 1.392 . S
C143 C145 1.384 . S
H144 C146 0.949 . S
C145 C143 1.384 . S
C145 C146 1.385 . S
C145 H147 0.950 . S
C146 C140 1.404 . S
C146 H144 0.949 . S
C146 C145 1.385 . S
H147 C145 0.950 . S
H148 C132 0.951 . S
H149 C134 0.951 1_556 S
H150 C136 0.951 . S
H151 C137 0.950 . S
H152 C138 0.950 . S
H153 C139 0.950 . S
H154 C141 0.950 . S
H155 C142 0.951 . S
C156 C157 1.386 . S
C156 C158 1.383 . S
C156 H172 0.951 . S
C157 C156 1.386 . S
C157 C161 1.383 . S
C158 C156 1.383 . S
C158 C159 1.402 . S
C158 H173 0.951 . S
C159 C158 1.402 . S
C159 C160 1.375 . S
C159 C162 1.481 . S
C160 C159 1.375 . S
C160 C161 1.367 . S
C160 H174 0.951 . S
C161 C157 1.383 . S
C161 C160 1.367 . S
C161 H175 0.950 . S
C162 C159 1.481 . S
C162 C163 1.297 . S
C162 H176 0.950 . S
C163 C162 1.297 . S
C163 C164 1.479 . S
C163 H177 0.950 . S
C164 C163 1.479 . S
C164 C165 1.375 . S
C164 C170 1.404 . S
C165 C164 1.375 . S
C165 C166 1.369 . S
C165 H178 0.950 . S
C166 C165 1.369 . S
C166 C167 1.392 . S
C166 H179 0.951 . S
C167 C166 1.392 . S
C167 C169 1.384 . S
H168 C170 0.949 . S
C169 C167 1.384 . S
C169 C170 1.385 . S
C169 H171 0.950 . S
C170 C164 1.404 . S
C170 H168 0.949 . S
C170 C169 1.385 . S
H171 C169 0.950 . S
H172 C156 0.951 . S
H173 C158 0.951 . S
H174 C160 0.951 . S
H175 C161 0.950 . S
H176 C162 0.950 . S
H177 C163 0.950 . S
H178 C165 0.950 . S
H179 C166 0.951 . S
C180 C181 1.386 . S
C180 C182 1.383 . S
C180 H196 0.951 . S
C181 C180 1.386 . S
C181 C185 1.383 . S
C182 C180 1.383 . S
C182 C183 1.402 . S
C182 H197 0.951 . S
C183 C182 1.402 . S
C183 C184 1.375 . S
C183 C186 1.481 . S
C184 C183 1.375 . S
C184 C185 1.367 . S
C184 H198 0.951 . S
C185 C181 1.383 . S
C185 C184 1.367 . S
C185 H199 0.950 . S
C186 C183 1.481 . S
C186 C187 1.297 . S
C186 H200 0.950 . S
C187 C186 1.297 . S
C187 C188 1.479 . S
C187 H201 0.950 . S
C188 C187 1.479 . S
C188 C189 1.375 . S
C188 C194 1.404 . S
C189 C188 1.375 . S
C189 C190 1.369 . S
C189 H202 0.950 . S
C190 C189 1.369 . S
C190 C191 1.392 . S
C190 H203 0.951 . S
C191 C190 1.392 . S
C191 C193 1.384 . S
H192 C194 0.949 . S
C193 C191 1.384 . S
C193 C194 1.385 . S
C193 H195 0.950 . S
C194 C188 1.404 . S
C194 H192 0.949 . S
C194 C193 1.385 . S
H195 C193 0.950 . S
H196 C180 0.951 . S
H197 C182 0.951 . S
H198 C184 0.951 . S
H199 C185 0.950 . S
H200 C186 0.950 . S
H201 C187 0.950 . S
H202 C189 0.950 . S
H203 C190 0.951 . S
C204 C205 1.386 . S
C204 C206 1.383 . S
C204 H220 0.951 . S
C205 C204 1.386 . S
C205 C209 1.383 . S
C206 C204 1.383 . S
C206 C207 1.402 . S
C206 H221 0.951 . S
C207 C206 1.402 . S
C207 C208 1.375 . S
C207 C210 1.481 . S
C208 C207 1.375 . S
C208 C209 1.367 . S
C208 H222 0.951 . S
C209 C205 1.383 . S
C209 C208 1.367 . S
C209 H223 0.950 . S
C210 C207 1.481 . S
C210 C211 1.297 . S
C210 H224 0.950 . S
C211 C210 1.297 . S
C211 C212 1.479 . S
C211 H225 0.950 . S
C212 C211 1.479 . S
C212 C213 1.375 . S
C212 C218 1.404 . S
C213 C212 1.375 . S
C213 C214 1.369 . S
C213 H226 0.950 . S
C214 C213 1.369 . S
C214 C215 1.392 . S
C214 H227 0.951 . S
C215 C214 1.392 . S
C215 C217 1.384 . S
H216 C218 0.949 . S
C217 C215 1.384 . S
C217 C218 1.385 . S
C217 H219 0.950 . S
C218 C212 1.404 . S
C218 H216 0.949 . S
C218 C217 1.385 . S
H219 C217 0.950 . S
H220 C204 0.951 . S
H221 C206 0.951 . S
H222 C208 0.951 . S
H223 C209 0.950 . S
H224 C210 0.950 . S
H225 C211 0.950 . S
H226 C213 0.950 . S
H227 C214 0.951 . S
C228 C229 1.386 . S
C228 C230 1.383 . S
C228 H244 0.951 . S
C229 C228 1.386 . S
C229 C233 1.383 . S
C230 C228 1.383 . S
C230 C231 1.402 . S
C230 H245 0.951 1_556 S
C231 C230 1.402 . S
C231 C232 1.375 . S
C231 C234 1.481 . S
C232 C231 1.375 . S
C232 C233 1.367 . S
C232 H246 0.951 . S
C233 C229 1.383 . S
C233 C232 1.367 . S
C233 H247 0.950 . S
C234 C231 1.481 . S
C234 C235 1.297 1_566 S
C234 H248 0.950 1_565 S
C235 C234 1.297 1_544 S
C235 C236 1.479 . S
C235 H249 0.950 . S
C236 C235 1.479 . S
C236 C237 1.375 . S
C236 C242 1.404 . S
C237 C236 1.375 . S
C237 C238 1.369 . S
C237 H250 0.950 . S
C238 C237 1.369 . S
C238 C239 1.392 . S
C238 H251 0.951 . S
C239 C238 1.392 . S
C239 C241 1.384 . S
H240 C242 0.949 1_556 S
C241 C239 1.384 . S
C241 C242 1.385 . S
C241 H243 0.950 . S
C242 C236 1.404 . S
C242 H240 0.949 1_554 S
C242 C241 1.385 . S
H243 C241 0.950 . S
H244 C228 0.951 . S
H245 C230 0.951 1_554 S
H246 C232 0.951 . S
H247 C233 0.950 . S
H248 C234 0.950 1_545 S
H249 C235 0.950 . S
H250 C237 0.950 . S
H251 C238 0.951 . S
C252 C253 1.386 . S
C252 C254 1.383 . S
C252 H268 0.951 . S
C253 C252 1.386 . S
C253 C257 1.383 1_455 S
C254 C252 1.383 . S
C254 C255 1.402 . S
C254 H269 0.951 . S
C255 C254 1.402 . S
C255 C256 1.375 1_455 S
C255 C258 1.481 . S
C256 C255 1.375 1_655 S
C256 C257 1.367 . S
C256 H270 0.951 . S
C257 C253 1.383 1_655 S
C257 C256 1.367 . S
C257 H271 0.950 . S
C258 C255 1.481 . S
C258 C259 1.297 1_565 S
C258 H272 0.950 1_455 S
C259 C258 1.297 1_545 S
C259 C260 1.479 . S
C259 H273 0.951 1_545 S
C260 C259 1.479 . S
C260 C261 1.375 . S
C260 C266 1.404 . S
C261 C260 1.375 . S
C261 C262 1.369 . S
C261 H274 0.950 . S
C262 C261 1.369 . S
C262 C263 1.392 . S
C262 H275 0.951 . S
C263 C262 1.392 . S
C263 C265 1.384 . S
H264 C266 0.949 1_655 S
C265 C263 1.384 . S
C265 C266 1.385 . S
C265 H267 0.950 1_455 S
C266 C260 1.404 . S
C266 H264 0.949 1_455 S
C266 C265 1.385 . S
H267 C265 0.950 1_655 S
H268 C252 0.951 . S
H269 C254 0.951 . S
H270 C256 0.951 . S
H271 C257 0.950 . S
H272 C258 0.950 1_655 S
H273 C259 0.951 1_565 S
H274 C261 0.950 . S
H275 C262 0.951 . S
C276 C277 1.386 . S
C276 C278 1.383 . S
C276 H292 0.951 . S
C277 C276 1.386 . S
C277 C281 1.383 1_455 S
C278 C276 1.383 . S
C278 C279 1.402 1_554 S
C278 H293 0.951 1_554 S
C279 C278 1.402 1_556 S
C279 C280 1.375 1_456 S
C279 C282 1.481 . S
C280 C279 1.375 1_654 S
C280 C281 1.367 . S
C280 H294 0.951 1_554 S
C281 C277 1.383 1_655 S
C281 C280 1.367 . S
C281 H295 0.950 . S
C282 C279 1.481 . S
C282 C283 1.297 . S
C282 H296 0.950 1_455 S
C283 C282 1.297 . S
C283 C284 1.479 . S
C283 H297 0.950 . S
C284 C283 1.479 . S
C284 C285 1.375 . S
C284 C290 1.404 . S
C285 C284 1.375 . S
C285 C286 1.369 . S
C285 H298 0.950 . S
C286 C285 1.369 . S
C286 C287 1.392 . S
C286 H299 0.951 . S
C287 C286 1.392 . S
C287 C289 1.384 . S
H288 C290 0.949 1_655 S
C289 C287 1.384 . S
C289 C290 1.385 . S
C289 H291 0.950 1_455 S
C290 C284 1.404 . S
C290 H288 0.949 1_455 S
C290 C289 1.385 . S
H291 C289 0.950 1_655 S
H292 C276 0.951 . S
H293 C278 0.951 1_556 S
H294 C280 0.951 1_556 S
H295 C281 0.950 . S
H296 C282 0.950 1_655 S
H297 C283 0.950 . S
H298 C285 0.950 . S
H299 C286 0.951 . S
C300 C301 1.386 1_655 S
C300 C302 1.383 . S
C300 H316 0.951 . S
C301 C300 1.386 1_455 S
C301 C305 1.383 . S
C302 C300 1.383 . S
C302 C303 1.402 1_656 S
C302 H317 0.951 1_556 S
C303 C302 1.402 1_454 S
C303 C304 1.375 1_554 S
C303 C306 1.481 . S
C304 C303 1.375 1_556 S
C304 C305 1.367 . S
C304 H318 0.951 1_556 S
C305 C301 1.383 . S
C305 C304 1.367 . S
C305 H319 0.950 . S
C306 C303 1.481 . S
C306 C307 1.297 . S
C306 H320 0.950 . S
C307 C306 1.297 . S
C307 C308 1.479 . S
C307 H321 0.950 1_455 S
C308 C307 1.479 . S
C308 C309 1.375 1_455 S
C308 C314 1.404 . S
C309 C308 1.375 1_655 S
C309 C310 1.369 . S
C309 H322 0.950 . S
C310 C309 1.369 . S
C310 C311 1.392 1_655 S
C310 H323 0.951 . S
C311 C310 1.392 1_455 S
C311 C313 1.384 . S
H312 C314 0.949 . S
C313 C311 1.384 . S
C313 C314 1.385 . S
C313 H315 0.950 . S
C314 C308 1.404 . S
C314 H312 0.949 . S
C314 C313 1.385 . S
H315 C313 0.950 . S
H316 C300 0.951 . S
H317 C302 0.951 1_554 S
H318 C304 0.951 1_554 S
H319 C305 0.950 . S
H320 C306 0.950 . S
H321 C307 0.950 1_655 S
H322 C309 0.950 . S
H323 C310 0.951 . S
C324 C325 1.386 . S
C324 C326 1.383 . S
C324 H340 0.951 . S
C325 C324 1.386 . S
C325 C329 1.383 . S
C326 C324 1.383 . S
C326 C327 1.402 . S
C326 H341 0.951 . S
C327 C326 1.402 . S
C327 C328 1.375 . S
C327 C330 1.481 . S
C328 C327 1.375 . S
C328 C329 1.367 . S
C328 H342 0.951 . S
C329 C325 1.383 . S
C329 C328 1.367 . S
C329 H343 0.950 . S
C330 C327 1.481 . S
C330 C331 1.297 . S
C330 H344 0.950 . S
C331 C330 1.297 . S
C331 C332 1.479 . S
C331 H345 0.950 . S
C332 C331 1.479 . S
C332 C333 1.375 . S
C332 C338 1.404 . S
C333 C332 1.375 . S
C333 C334 1.369 . S
C333 H346 0.950 . S
C334 C333 1.369 . S
C334 C335 1.392 . S
C334 H347 0.951 . S
C335 C334 1.392 . S
C335 C337 1.384 . S
H336 C338 0.949 . S
C337 C335 1.384 . S
C337 C338 1.385 . S
C337 H339 0.950 . S
C338 C332 1.404 . S
C338 H336 0.949 . S
C338 C337 1.385 . S
H339 C337 0.950 . S
H340 C324 0.951 . S
H341 C326 0.951 . S
H342 C328 0.951 . S
H343 C329 0.950 . S
H344 C330 0.950 . S
H345 C331 0.950 . S
H346 C333 0.950 . S
H347 C334 0.951 . S
C348 C349 1.386 . S
C348 C350 1.383 . S
C348 H364 0.951 . S
C349 C348 1.386 . S
C349 C353 1.383 . S
C350 C348 1.383 . S
C350 C351 1.402 . S
C350 H365 0.951 . S
C351 C350 1.402 . S
C351 C352 1.375 . S
C351 C354 1.481 . S
C352 C351 1.375 . S
C352 C353 1.367 . S
C352 H366 0.951 . S
C353 C349 1.383 . S
C353 C352 1.367 . S
C353 H367 0.950 . S
C354 C351 1.481 . S
C354 C355 1.297 . S
C354 H368 0.950 . S
C355 C354 1.297 . S
C355 C356 1.479 . S
C355 H369 0.950 . S
C356 C355 1.479 . S
C356 C357 1.375 . S
C356 C362 1.404 . S
C357 C356 1.375 . S
C357 C358 1.369 . S
C357 H370 0.950 . S
C358 C357 1.369 . S
C358 C359 1.392 . S
C358 H371 0.951 . S
C359 C358 1.392 . S
C359 C361 1.384 . S
H360 C362 0.949 . S
C361 C359 1.384 . S
C361 C362 1.385 . S
C361 H363 0.950 . S
C362 C356 1.404 . S
C362 H360 0.949 . S
C362 C361 1.385 . S
H363 C361 0.950 . S
H364 C348 0.951 . S
H365 C350 0.951 . S
H366 C352 0.951 . S
H367 C353 0.950 . S
H368 C354 0.950 . S
H369 C355 0.950 . S
H370 C357 0.950 . S
H371 C358 0.951 . S
C85 C18 1.685 . S
C95 C36 1.460 . S
C109 C59 2.055 . S
C119 C38 2.067 . S
C133 C81 1.644 . S
C143 C57 1.424 . S
C157 C13 1.298 . S
C167 C76 1.336 . S
C181 C80 2.023 . S
C191 C17 2.076 . S
C205 C55 1.291 . S
C215 C34 1.325 . S
C229 C60 1.657 . S
C239 C78 1.260 . S
C253 C39 1.675 . S
C263 C15 1.462 . S
C277 C16 0.917 . S
C287 C14 0.805 . S
C301 C37 0.916 . S
C311 C35 0.765 . S
C325 C56 0.920 . S
C335 C58 0.795 . S
C349 C79 0.907 . S
C359 C77 0.759 . S
