# Generated by pormake.
# Topology ulj, (4)-cn, num edge types: 1
# Building blocks:
#     Node 0, Type 0, BuildingBlock: QUQFOY_clean_sbu_1, # of connection points: 4
#     Node 1, Type 0, BuildingBlock: QUQFOY_clean_sbu_1, # of connection points: 4
#     Node 2, Type 0, BuildingBlock: QUQFOY_clean_sbu_1, # of connection points: 4
#     Node 3, Type 0, BuildingBlock: QUQFOY_clean_sbu_1, # of connection points: 4
#     Node 4, Type 0, BuildingBlock: QUQFOY_clean_sbu_1, # of connection points: 4
#     Node 5, Type 0, BuildingBlock: QUQFOY_clean_sbu_1, # of connection points: 4
#     Node 6, Type 0, BuildingBlock: QUQFOY_clean_sbu_1, # of connection points: 4
#     Node 7, Type 0, BuildingBlock: QUQFOY_clean_sbu_1, # of connection points: 4
#     Node 8, Type 0, BuildingBlock: QUQFOY_clean_sbu_1, # of connection points: 4
#     Node 9, Type 0, BuildingBlock: QUQFOY_clean_sbu_1, # of connection points: 4
#     Node 10, Type 0, BuildingBlock: QUQFOY_clean_sbu_1, # of connection points: 4
#     Node 11, Type 0, BuildingBlock: QUQFOY_clean_sbu_1, # of connection points: 4
#     Node 12, Type 0, BuildingBlock: QUQFOY_clean_sbu_1, # of connection points: 4
#     Node 13, Type 0, BuildingBlock: QUQFOY_clean_sbu_1, # of connection points: 4
#     Node 14, Type 0, BuildingBlock: QUQFOY_clean_sbu_1, # of connection points: 4
#     Node 15, Type 0, BuildingBlock: QUQFOY_clean_sbu_1, # of connection points: 4
#     Node 16, Type 0, BuildingBlock: QUQFOY_clean_sbu_1, # of connection points: 4
#     Node 17, Type 0, BuildingBlock: QUQFOY_clean_sbu_1, # of connection points: 4
#     Node 18, Type 0, BuildingBlock: QUQFOY_clean_sbu_1, # of connection points: 4
#     Node 19, Type 0, BuildingBlock: QUQFOY_clean_sbu_1, # of connection points: 4
#     Node 20, Type 0, BuildingBlock: QUQFOY_clean_sbu_1, # of connection points: 4
#     Node 21, Type 0, BuildingBlock: QUQFOY_clean_sbu_1, # of connection points: 4
#     Node 22, Type 0, BuildingBlock: QUQFOY_clean_sbu_1, # of connection points: 4
#     Node 23, Type 0, BuildingBlock: QUQFOY_clean_sbu_1, # of connection points: 4
#     Node 24, Type 0, BuildingBlock: QUQFOY_clean_sbu_1, # of connection points: 4
#     Node 25, Type 0, BuildingBlock: QUQFOY_clean_sbu_1, # of connection points: 4
#     Node 26, Type 0, BuildingBlock: QUQFOY_clean_sbu_1, # of connection points: 4
#     Node 27, Type 0, BuildingBlock: QUQFOY_clean_sbu_1, # of connection points: 4
#     Node 28, Type 0, BuildingBlock: QUQFOY_clean_sbu_1, # of connection points: 4
#     Node 29, Type 0, BuildingBlock: QUQFOY_clean_sbu_1, # of connection points: 4
#     Node 30, Type 0, BuildingBlock: QUQFOY_clean_sbu_1, # of connection points: 4
#     Node 31, Type 0, BuildingBlock: QUQFOY_clean_sbu_1, # of connection points: 4
#     Node 32, Type 0, BuildingBlock: QUQFOY_clean_sbu_1, # of connection points: 4
#     Node 33, Type 0, BuildingBlock: QUQFOY_clean_sbu_1, # of connection points: 4
#     Node 34, Type 0, BuildingBlock: QUQFOY_clean_sbu_1, # of connection points: 4
#     Node 35, Type 0, BuildingBlock: QUQFOY_clean_sbu_1, # of connection points: 4
#     Node 36, Type 0, BuildingBlock: QUQFOY_clean_sbu_1, # of connection points: 4
#     Node 37, Type 0, BuildingBlock: QUQFOY_clean_sbu_1, # of connection points: 4
#     Node 38, Type 0, BuildingBlock: QUQFOY_clean_sbu_1, # of connection points: 4
#     Node 39, Type 0, BuildingBlock: QUQFOY_clean_sbu_1, # of connection points: 4
#     Node 40, Type 0, BuildingBlock: QUQFOY_clean_sbu_1, # of connection points: 4
#     Node 41, Type 0, BuildingBlock: QUQFOY_clean_sbu_1, # of connection points: 4
#     Node 42, Type 0, BuildingBlock: QUQFOY_clean_sbu_1, # of connection points: 4
#     Node 43, Type 0, BuildingBlock: QUQFOY_clean_sbu_1, # of connection points: 4
#     Node 44, Type 0, BuildingBlock: QUQFOY_clean_sbu_1, # of connection points: 4
#     Node 45, Type 0, BuildingBlock: QUQFOY_clean_sbu_1, # of connection points: 4
#     Node 46, Type 0, BuildingBlock: QUQFOY_clean_sbu_1, # of connection points: 4
#     Node 47, Type 0, BuildingBlock: QUQFOY_clean_sbu_1, # of connection points: 4
#     Edge 48, Type (0, 0), BuildingBlock: UVAHIK_clean_linker_0, # of connection points: 2
#     Edge 49, Type (0, 0), BuildingBlock: UVAHIK_clean_linker_0, # of connection points: 2
#     Edge 50, Type (0, 0), BuildingBlock: UVAHIK_clean_linker_0, # of connection points: 2
#     Edge 51, Type (0, 0), BuildingBlock: UVAHIK_clean_linker_0, # of connection points: 2
#     Edge 52, Type (0, 0), BuildingBlock: UVAHIK_clean_linker_0, # of connection points: 2
#     Edge 53, Type (0, 0), BuildingBlock: UVAHIK_clean_linker_0, # of connection points: 2
#     Edge 54, Type (0, 0), BuildingBlock: UVAHIK_clean_linker_0, # of connection points: 2
#     Edge 55, Type (0, 0), BuildingBlock: UVAHIK_clean_linker_0, # of connection points: 2
#     Edge 56, Type (0, 0), BuildingBlock: UVAHIK_clean_linker_0, # of connection points: 2
#     Edge 57, Type (0, 0), BuildingBlock: UVAHIK_clean_linker_0, # of connection points: 2
#     Edge 58, Type (0, 0), BuildingBlock: UVAHIK_clean_linker_0, # of connection points: 2
#     Edge 59, Type (0, 0), BuildingBlock: UVAHIK_clean_linker_0, # of connection points: 2
#     Edge 60, Type (0, 0), BuildingBlock: UVAHIK_clean_linker_0, # of connection points: 2
#     Edge 61, Type (0, 0), BuildingBlock: UVAHIK_clean_linker_0, # of connection points: 2
#     Edge 62, Type (0, 0), BuildingBlock: UVAHIK_clean_linker_0, # of connection points: 2
#     Edge 63, Type (0, 0), BuildingBlock: UVAHIK_clean_linker_0, # of connection points: 2
#     Edge 64, Type (0, 0), BuildingBlock: UVAHIK_clean_linker_0, # of connection points: 2
#     Edge 65, Type (0, 0), BuildingBlock: UVAHIK_clean_linker_0, # of connection points: 2
#     Edge 66, Type (0, 0), BuildingBlock: UVAHIK_clean_linker_0, # of connection points: 2
#     Edge 67, Type (0, 0), BuildingBlock: UVAHIK_clean_linker_0, # of connection points: 2
#     Edge 68, Type (0, 0), BuildingBlock: UVAHIK_clean_linker_0, # of connection points: 2
#     Edge 69, Type (0, 0), BuildingBlock: UVAHIK_clean_linker_0, # of connection points: 2
#     Edge 70, Type (0, 0), BuildingBlock: UVAHIK_clean_linker_0, # of connection points: 2
#     Edge 71, Type (0, 0), BuildingBlock: UVAHIK_clean_linker_0, # of connection points: 2
#     Edge 72, Type (0, 0), BuildingBlock: UVAHIK_clean_linker_0, # of connection points: 2
#     Edge 73, Type (0, 0), BuildingBlock: UVAHIK_clean_linker_0, # of connection points: 2
#     Edge 74, Type (0, 0), BuildingBlock: UVAHIK_clean_linker_0, # of connection points: 2
#     Edge 75, Type (0, 0), BuildingBlock: UVAHIK_clean_linker_0, # of connection points: 2
#     Edge 76, Type (0, 0), BuildingBlock: UVAHIK_clean_linker_0, # of connection points: 2
#     Edge 77, Type (0, 0), BuildingBlock: UVAHIK_clean_linker_0, # of connection points: 2
#     Edge 78, Type (0, 0), BuildingBlock: UVAHIK_clean_linker_0, # of connection points: 2
#     Edge 79, Type (0, 0), BuildingBlock: UVAHIK_clean_linker_0, # of connection points: 2
#     Edge 80, Type (0, 0), BuildingBlock: UVAHIK_clean_linker_0, # of connection points: 2
#     Edge 81, Type (0, 0), BuildingBlock: UVAHIK_clean_linker_0, # of connection points: 2
#     Edge 82, Type (0, 0), BuildingBlock: UVAHIK_clean_linker_0, # of connection points: 2
#     Edge 83, Type (0, 0), BuildingBlock: UVAHIK_clean_linker_0, # of connection points: 2
#     Edge 84, Type (0, 0), BuildingBlock: UVAHIK_clean_linker_0, # of connection points: 2
#     Edge 85, Type (0, 0), BuildingBlock: UVAHIK_clean_linker_0, # of connection points: 2
#     Edge 86, Type (0, 0), BuildingBlock: UVAHIK_clean_linker_0, # of connection points: 2
#     Edge 87, Type (0, 0), BuildingBlock: UVAHIK_clean_linker_0, # of connection points: 2
#     Edge 88, Type (0, 0), BuildingBlock: UVAHIK_clean_linker_0, # of connection points: 2
#     Edge 89, Type (0, 0), BuildingBlock: UVAHIK_clean_linker_0, # of connection points: 2
#     Edge 90, Type (0, 0), BuildingBlock: UVAHIK_clean_linker_0, # of connection points: 2
#     Edge 91, Type (0, 0), BuildingBlock: UVAHIK_clean_linker_0, # of connection points: 2
#     Edge 92, Type (0, 0), BuildingBlock: UVAHIK_clean_linker_0, # of connection points: 2
#     Edge 93, Type (0, 0), BuildingBlock: UVAHIK_clean_linker_0, # of connection points: 2
#     Edge 94, Type (0, 0), BuildingBlock: UVAHIK_clean_linker_0, # of connection points: 2
#     Edge 95, Type (0, 0), BuildingBlock: UVAHIK_clean_linker_0, # of connection points: 2
#     Edge 96, Type (0, 0), BuildingBlock: UVAHIK_clean_linker_0, # of connection points: 2
#     Edge 97, Type (0, 0), BuildingBlock: UVAHIK_clean_linker_0, # of connection points: 2
#     Edge 98, Type (0, 0), BuildingBlock: UVAHIK_clean_linker_0, # of connection points: 2
#     Edge 99, Type (0, 0), BuildingBlock: UVAHIK_clean_linker_0, # of connection points: 2
#     Edge 100, Type (0, 0), BuildingBlock: UVAHIK_clean_linker_0, # of connection points: 2
#     Edge 101, Type (0, 0), BuildingBlock: UVAHIK_clean_linker_0, # of connection points: 2
#     Edge 102, Type (0, 0), BuildingBlock: UVAHIK_clean_linker_0, # of connection points: 2
#     Edge 103, Type (0, 0), BuildingBlock: UVAHIK_clean_linker_0, # of connection points: 2
#     Edge 104, Type (0, 0), BuildingBlock: UVAHIK_clean_linker_0, # of connection points: 2
#     Edge 105, Type (0, 0), BuildingBlock: UVAHIK_clean_linker_0, # of connection points: 2
#     Edge 106, Type (0, 0), BuildingBlock: UVAHIK_clean_linker_0, # of connection points: 2
#     Edge 107, Type (0, 0), BuildingBlock: UVAHIK_clean_linker_0, # of connection points: 2
#     Edge 108, Type (0, 0), BuildingBlock: UVAHIK_clean_linker_0, # of connection points: 2
#     Edge 109, Type (0, 0), BuildingBlock: UVAHIK_clean_linker_0, # of connection points: 2
#     Edge 110, Type (0, 0), BuildingBlock: UVAHIK_clean_linker_0, # of connection points: 2
#     Edge 111, Type (0, 0), BuildingBlock: UVAHIK_clean_linker_0, # of connection points: 2
#     Edge 112, Type (0, 0), BuildingBlock: UVAHIK_clean_linker_0, # of connection points: 2
#     Edge 113, Type (0, 0), BuildingBlock: UVAHIK_clean_linker_0, # of connection points: 2
#     Edge 114, Type (0, 0), BuildingBlock: UVAHIK_clean_linker_0, # of connection points: 2
#     Edge 115, Type (0, 0), BuildingBlock: UVAHIK_clean_linker_0, # of connection points: 2
#     Edge 116, Type (0, 0), BuildingBlock: UVAHIK_clean_linker_0, # of connection points: 2
#     Edge 117, Type (0, 0), BuildingBlock: UVAHIK_clean_linker_0, # of connection points: 2
#     Edge 118, Type (0, 0), BuildingBlock: UVAHIK_clean_linker_0, # of connection points: 2
#     Edge 119, Type (0, 0), BuildingBlock: UVAHIK_clean_linker_0, # of connection points: 2
#     Edge 120, Type (0, 0), BuildingBlock: UVAHIK_clean_linker_0, # of connection points: 2
#     Edge 121, Type (0, 0), BuildingBlock: UVAHIK_clean_linker_0, # of connection points: 2
#     Edge 122, Type (0, 0), BuildingBlock: UVAHIK_clean_linker_0, # of connection points: 2
#     Edge 123, Type (0, 0), BuildingBlock: UVAHIK_clean_linker_0, # of connection points: 2
#     Edge 124, Type (0, 0), BuildingBlock: UVAHIK_clean_linker_0, # of connection points: 2
#     Edge 125, Type (0, 0), BuildingBlock: UVAHIK_clean_linker_0, # of connection points: 2
#     Edge 126, Type (0, 0), BuildingBlock: UVAHIK_clean_linker_0, # of connection points: 2
#     Edge 127, Type (0, 0), BuildingBlock: UVAHIK_clean_linker_0, # of connection points: 2
#     Edge 128, Type (0, 0), BuildingBlock: UVAHIK_clean_linker_0, # of connection points: 2
#     Edge 129, Type (0, 0), BuildingBlock: UVAHIK_clean_linker_0, # of connection points: 2
#     Edge 130, Type (0, 0), BuildingBlock: UVAHIK_clean_linker_0, # of connection points: 2
#     Edge 131, Type (0, 0), BuildingBlock: UVAHIK_clean_linker_0, # of connection points: 2
#     Edge 132, Type (0, 0), BuildingBlock: UVAHIK_clean_linker_0, # of connection points: 2
#     Edge 133, Type (0, 0), BuildingBlock: UVAHIK_clean_linker_0, # of connection points: 2
#     Edge 134, Type (0, 0), BuildingBlock: UVAHIK_clean_linker_0, # of connection points: 2
#     Edge 135, Type (0, 0), BuildingBlock: UVAHIK_clean_linker_0, # of connection points: 2
#     Edge 136, Type (0, 0), BuildingBlock: UVAHIK_clean_linker_0, # of connection points: 2
#     Edge 137, Type (0, 0), BuildingBlock: UVAHIK_clean_linker_0, # of connection points: 2
#     Edge 138, Type (0, 0), BuildingBlock: UVAHIK_clean_linker_0, # of connection points: 2
#     Edge 139, Type (0, 0), BuildingBlock: UVAHIK_clean_linker_0, # of connection points: 2
#     Edge 140, Type (0, 0), BuildingBlock: UVAHIK_clean_linker_0, # of connection points: 2
#     Edge 141, Type (0, 0), BuildingBlock: UVAHIK_clean_linker_0, # of connection points: 2
#     Edge 142, Type (0, 0), BuildingBlock: UVAHIK_clean_linker_0, # of connection points: 2
#     Edge 143, Type (0, 0), BuildingBlock: UVAHIK_clean_linker_0, # of connection points: 2
# Relax obj value: 0.216
# Max RMSD: 0.295
# Mean RMSD: 0.263
data_MOF--net-ulj--node1-QUQFOY_clean_sbu_1--edge1-UVAHIK_clean_linker_0
_symmetry_space_group_name_H-M    P1
_symmetry_Int_Tables_number       1
_symmetry_cell_setting            triclinic
loop_
_symmetry_equiv_pos_as_xyz
'x, y, z'
_cell_length_a     76.221944
_cell_length_b     82.43832
_cell_length_c     85.514411
_cell_angle_alpha  90.007799
_cell_angle_beta   90.026037
_cell_angle_gamma 90.001719
loop_
_atom_site_label
_atom_site_type_symbol
_atom_site_fract_x
_atom_site_fract_y
_atom_site_fract_z
_atom_type_partial_charge
O0 O 0.14618 0.22724 0.36088 0.0
Cd1 Cd 0.16598 0.24424 0.36049 0.0
Cd2 Cd 0.15798 0.24392 0.32924 0.0
O3 O 0.13634 0.23105 0.33684 0.0
O4 O 0.16455 0.2588 0.37931 0.0
O5 O 0.15874 0.26643 0.35499 0.0
C6 C 0.15931 0.2699 0.36968 0.0
C7 C 0.15642 0.26446 0.31028 0.0
C8 C 0.13503 0.22428 0.35018 0.0
C9 C 0.19319 0.23053 0.34026 0.0
O10 O 0.18149 0.23166 0.3297 0.0
O11 O 0.19057 0.23636 0.35384 0.0
O12 O 0.15421 0.24944 0.30658 0.0
O13 O 0.15861 0.26789 0.32484 0.0
O14 O 0.46817 0.59656 0.89331 0.0
Cd15 Cd 0.49033 0.58271 0.89124 0.0
Cd16 Cd 0.48981 0.58357 0.92309 0.0
O17 O 0.47018 0.6005 0.91878 0.0
O18 O 0.50487 0.59052 0.87331 0.0
O19 O 0.51233 0.59318 0.89826 0.0
C20 C 0.51562 0.5961 0.88372 0.0
C21 C 0.50985 0.58771 0.94351 0.0
C22 C 0.46264 0.60324 0.90575 0.0
C23 C 0.48452 0.55118 0.90614 0.0
O24 O 0.48464 0.55935 0.91876 0.0
O25 O 0.48725 0.55801 0.89304 0.0
O26 O 0.49364 0.58429 0.94621 0.0
O27 O 0.51462 0.58946 0.92915 0.0
O28 O 0.85117 0.27607 0.36169 0.0
Cd29 Cd 0.8326 0.25807 0.36219 0.0
Cd30 Cd 0.8401 0.2563 0.33083 0.0
O31 O 0.85955 0.27272 0.33716 0.0
O32 O 0.83439 0.24513 0.38192 0.0
O33 O 0.84093 0.23571 0.35832 0.0
C34 C 0.84011 0.23342 0.37324 0.0
C35 C 0.84478 0.23551 0.31259 0.0
C36 C 0.8611 0.27985 0.35031 0.0
C37 C 0.80332 0.26645 0.34144 0.0
O38 O 0.81449 0.26435 0.33058 0.0
O39 O 0.8075 0.26418 0.35566 0.0
O40 O 0.84446 0.25053 0.30841 0.0
O41 O 0.84363 0.23233 0.32731 0.0
O42 O 0.52844 0.90377 0.89249 0.0
Cd43 Cd 0.50658 0.91816 0.89265 0.0
Cd44 Cd 0.50893 0.91437 0.92403 0.0
O45 O 0.52722 0.89696 0.91741 0.0
O46 O 0.49144 0.91256 0.87435 0.0
O47 O 0.48451 0.90727 0.89902 0.0
C48 C 0.48086 0.90597 0.88433 0.0
C49 C 0.48946 0.90959 0.94466 0.0
C50 C 0.53414 0.89549 0.90394 0.0
C51 C 0.51474 0.94796 0.90987 0.0
O52 O 0.51543 0.9386 0.92168 0.0
O53 O 0.51048 0.94253 0.89648 0.0
O54 O 0.50603 0.91134 0.94707 0.0
O55 O 0.48394 0.90976 0.93041 0.0
O56 O 0.15134 0.7743 0.13921 0.0
Cd57 Cd 0.17025 0.7565 0.14069 0.0
Cd58 Cd 0.16225 0.75837 0.17141 0.0
O59 O 0.14082 0.77103 0.16305 0.0
O60 O 0.16857 0.74163 0.12221 0.0
O61 O 0.16162 0.73475 0.1465 0.0
C62 C 0.16239 0.731 0.13187 0.0
C63 C 0.15983 0.7391 0.19146 0.0
C64 C 0.13994 0.77759 0.1496 0.0
C65 C 0.19789 0.77021 0.1604 0.0
O66 O 0.18598 0.7703 0.17082 0.0
O67 O 0.19519 0.76353 0.14721 0.0
O68 O 0.15766 0.75435 0.19418 0.0
O69 O 0.16262 0.73469 0.17723 0.0
O70 O 0.0299 0.60192 0.10497 0.0
Cd71 Cd 0.00768 0.58802 0.10439 0.0
Cd72 Cd 0.01197 0.59021 0.07317 0.0
O73 O 0.03021 0.60766 0.07978 0.0
O74 O 0.99196 0.59468 0.12188 0.0
O75 O 0.98613 0.599 0.0968 0.0
C76 C 0.98192 0.60099 0.11131 0.0
C77 C 0.99382 0.59405 0.05143 0.0
C78 C 0.03642 0.60959 0.09348 0.0
C79 C 0.01611 0.55726 0.0891 0.0
O80 O 0.01782 0.56602 0.07695 0.0
O81 O 0.01112 0.56341 0.10197 0.0
O82 O 0.01049 0.59203 0.04992 0.0
O83 O 0.98746 0.59475 0.06538 0.0
O84 O 0.84835 0.73216 0.13511 0.0
Cd85 Cd 0.82919 0.74969 0.1369 0.0
Cd86 Cd 0.84198 0.75202 0.16594 0.0
O87 O 0.86227 0.73829 0.15695 0.0
O88 O 0.82694 0.76079 0.11626 0.0
O89 O 0.83728 0.77252 0.13775 0.0
C90 C 0.83395 0.77328 0.12295 0.0
C91 C 0.84628 0.77349 0.18344 0.0
C92 C 0.86125 0.73015 0.14434 0.0
C93 C 0.80534 0.73843 0.16128 0.0
O94 O 0.81878 0.74001 0.16995 0.0
O95 O 0.80576 0.74308 0.14711 0.0
O96 O 0.84963 0.75872 0.18735 0.0
O97 O 0.84155 0.77626 0.1692 0.0
O98 O 0.96417 0.89093 0.09626 0.0
Cd99 Cd 0.98375 0.90719 0.10126 0.0
Cd100 Cd 0.98425 0.91075 0.06952 0.0
O101 O 0.96497 0.89306 0.0705 0.0
O102 O 0.99643 0.89964 0.12038 0.0
O103 O 0.00804 0.89998 0.09662 0.0
C104 C 0.00944 0.89629 0.11124 0.0
C105 C 0.00718 0.90914 0.05145 0.0
C106 C 0.95858 0.8868 0.08284 0.0
C107 C 0.97546 0.94012 0.08958 0.0
O108 O 0.9776 0.934 0.07607 0.0
O109 O 0.97736 0.93154 0.10182 0.0
O110 O 0.9914 0.91246 0.04709 0.0
O111 O 0.00985 0.90606 0.06604 0.0
O112 O 0.37171 0.12399 0.24774 0.0
Cd113 Cd 0.35134 0.13748 0.23846 0.0
Cd114 Cd 0.37322 0.16089 0.24939 0.0
O115 O 0.39109 0.14285 0.25404 0.0
O116 O 0.33694 0.12099 0.22699 0.0
O117 O 0.35082 0.141 0.21515 0.0
C118 C 0.34131 0.12811 0.21416 0.0
C119 C 0.37419 0.18055 0.23022 0.0
C120 C 0.38671 0.128 0.25303 0.0
C121 C 0.33835 0.15876 0.26465 0.0
O122 O 0.35389 0.1642 0.2657 0.0
O123 O 0.33425 0.14888 0.2538 0.0
O124 O 0.38238 0.18267 0.24332 0.0
O125 O 0.3668 0.16671 0.22766 0.0
O126 O 0.39427 0.37021 0.01466 0.0
Cd127 Cd 0.41565 0.36806 1.00003 0.0
Cd128 Cd 0.40868 0.3994 0.99542 0.0
O129 O 0.38483 0.3936 0.00537 0.0
O130 O 0.41568 0.34625 0.98959 0.0
O131 O 0.41013 0.36943 0.97745 0.0
C132 C 0.41107 0.35381 0.97699 0.0
C133 C 0.4113 0.41598 0.97333 0.0
C134 C 0.38269 0.38131 0.01416 0.0
C135 C 0.44114 0.39024 0.01385 0.0
O136 O 0.42957 0.40084 0.01061 0.0
O137 O 0.43949 0.37575 0.00894 0.0
O138 O 0.40631 0.4218 0.9866 0.0
O139 O 0.41399 0.40058 0.97241 0.0
O140 O 0.63165 0.37975 0.24896 0.0
Cd141 Cd 0.65172 0.36652 0.23898 0.0
Cd142 Cd 0.62851 0.34264 0.24596 0.0
O143 O 0.61106 0.361 0.251 0.0
O144 O 0.66651 0.3826 0.22724 0.0
O145 O 0.65128 0.36315 0.21578 0.0
C146 C 0.66133 0.37565 0.21453 0.0
C147 C 0.62705 0.32321 0.22646 0.0
C148 C 0.61605 0.37564 0.25253 0.0
C149 C 0.66244 0.34247 0.26339 0.0
O150 O 0.6467 0.33742 0.26287 0.0
O151 O 0.66772 0.35332 0.2539 0.0
O152 O 0.61796 0.32155 0.23913 0.0
O153 O 0.63555 0.33658 0.22445 0.0
O154 O 0.60137 0.12996 0.02334 0.0
Cd155 Cd 0.5814 0.13428 0.00778 0.0
Cd156 Cd 0.58379 0.10178 0.00267 0.0
O157 O 0.60618 0.10458 0.01625 0.0
O158 O 0.58469 0.15541 0.9966 0.0
O159 O 0.58745 0.13125 0.98545 0.0
C160 C 0.5885 0.14685 0.98439 0.0
C161 C 0.58349 0.0842 0.98117 0.0
C162 C 0.61021 0.11693 0.02445 0.0
C163 C 0.55056 0.11557 0.01761 0.0
O164 O 0.55972 0.10335 0.01364 0.0
O165 O 0.55635 0.12989 0.0157 0.0
O166 O 0.58467 0.07879 0.99526 0.0
O167 O 0.58336 0.09969 0.97916 0.0
O168 O 0.37736 0.87274 0.25536 0.0
Cd169 Cd 0.35578 0.85987 0.26311 0.0
Cd170 Cd 0.37784 0.83574 0.25352 0.0
O171 O 0.3963 0.85343 0.24939 0.0
O172 O 0.34101 0.87739 0.27249 0.0
O173 O 0.35186 0.85716 0.28634 0.0
C174 C 0.3431 0.87052 0.28589 0.0
C175 C 0.37675 0.81732 0.27385 0.0
C176 C 0.39242 0.86838 0.25054 0.0
C177 C 0.34421 0.83828 0.23634 0.0
O178 O 0.35949 0.83213 0.23635 0.0
O179 O 0.33989 0.84873 0.24661 0.0
O180 O 0.38622 0.81438 0.26162 0.0
O181 O 0.36919 0.83129 0.27491 0.0
O182 O 0.11665 0.37931 0.98421 0.0
Cd183 Cd 0.09385 0.37371 0.9959 0.0
Cd184 Cd 0.0923 0.40629 0.99992 0.0
O185 O 0.11579 0.40582 0.98784 0.0
O186 O 0.09682 0.35188 0.00563 0.0
O187 O 0.09436 0.37472 0.01916 0.0
C188 C 0.09687 0.35922 0.01899 0.0
C189 C 0.08914 0.42293 0.02183 0.0
C190 C 0.12331 0.39331 0.98232 0.0
C191 C 0.06283 0.38978 0.982 0.0
O192 O 0.06954 0.40274 0.98742 0.0
O193 O 0.07039 0.37618 0.98398 0.0
O194 O 0.09043 0.42892 0.00796 0.0
O195 O 0.09025 0.4074 0.02339 0.0
O196 O 0.6288 0.62641 0.25617 0.0
Cd197 Cd 0.64841 0.64037 0.26616 0.0
Cd198 Cd 0.62656 0.6629 0.25432 0.0
O199 O 0.60898 0.6447 0.24957 0.0
O200 O 0.66295 0.62364 0.27693 0.0
O201 O 0.64903 0.64308 0.28962 0.0
C202 C 0.65871 0.63026 0.29003 0.0
C203 C 0.62515 0.68305 0.27294 0.0
C204 C 0.61381 0.62998 0.25059 0.0
C205 C 0.66187 0.66197 0.24042 0.0
O206 O 0.64611 0.6664 0.23827 0.0
O207 O 0.66577 0.65264 0.25175 0.0
O208 O 0.61696 0.68461 0.25977 0.0
O209 O 0.63263 0.66934 0.27601 0.0
O210 O 0.88775 0.1189 0.98318 0.0
Cd211 Cd 0.90798 0.12294 0.99854 0.0
Cd212 Cd 0.9049 0.09084 0.00362 0.0
O213 O 0.88271 0.09347 0.98981 0.0
O214 O 0.9054 0.14501 0.0079 0.0
O215 O 0.9026 0.12212 0.02129 0.0
C216 C 0.90188 0.13777 0.02094 0.0
C217 C 0.90429 0.07424 0.02578 0.0
C218 C 0.87881 0.10597 0.98181 0.0
C219 C 0.9384 0.10371 0.98854 0.0
O220 O 0.92912 0.09164 0.99272 0.0
O221 O 0.93281 0.11811 0.99034 0.0
O222 O 0.90344 0.06825 0.01189 0.0
O223 O 0.90476 0.08981 0.02718 0.0
O224 O 0.25395 0.33401 0.12764 0.0
Cd225 Cd 0.24173 0.31655 0.14111 0.0
Cd226 Cd 0.25512 0.3366 0.16327 0.0
O227 O 0.25971 0.35273 0.14537 0.0
O228 O 0.22658 0.30453 0.12577 0.0
O229 O 0.21593 0.31954 0.1449 0.0
C230 C 0.21316 0.31086 0.13262 0.0
C231 C 0.23392 0.33886 0.1826 0.0
C232 C 0.25949 0.3481 0.13119 0.0
C233 C 0.27069 0.3036 0.16117 0.0
O234 O 0.27305 0.31815 0.16562 0.0
O235 O 0.25755 0.29985 0.15268 0.0
O236 O 0.24881 0.34624 0.1841 0.0
O237 O 0.231 0.33103 0.1698 0.0
O238 O 0.25553 0.66377 0.37509 0.0
Cd239 Cd 0.24382 0.68216 0.36257 0.0
Cd240 Cd 0.25437 0.66185 0.33938 0.0
O241 O 0.25944 0.64518 0.35684 0.0
O242 O 0.23062 0.69483 0.37879 0.0
O243 O 0.21763 0.68071 0.36016 0.0
C244 C 0.21634 0.6894 0.37263 0.0
C245 C 0.23189 0.66075 0.32112 0.0
C246 C 0.26013 0.64952 0.37111 0.0
C247 C 0.27205 0.69417 0.34118 0.0
O248 O 0.2728 0.67974 0.33596 0.0
O249 O 0.26018 0.69821 0.35091 0.0
O250 O 0.24637 0.65294 0.31872 0.0
O251 O 0.23001 0.66822 0.33427 0.0
O252 O 0.90729 0.51996 0.87021 0.0
Cd253 Cd 0.9003 0.50879 0.89083 0.0
Cd254 Cd 0.93471 0.49951 0.89038 0.0
O255 O 0.93487 0.51171 0.86928 0.0
O256 O 0.87529 0.5016 0.88916 0.0
O257 O 0.89797 0.48481 0.89013 0.0
C258 C 0.88128 0.48694 0.88857 0.0
C259 C 0.94837 0.47425 0.89291 0.0
C260 C 0.92208 0.51948 0.86336 0.0
C261 C 0.92173 0.52043 0.91743 0.0
O262 O 0.93424 0.5131 0.91059 0.0
O263 O 0.90633 0.52027 0.91167 0.0
O264 O 0.95738 0.48739 0.89144 0.0
O265 O 0.93151 0.47536 0.89229 0.0
O266 O 0.74588 0.84092 0.36634 0.0
Cd267 Cd 0.75876 0.82338 0.35341 0.0
Cd268 Cd 0.74602 0.84286 0.33078 0.0
O269 O 0.74016 0.85922 0.34818 0.0
O270 O 0.77233 0.81095 0.3695 0.0
O271 O 0.78494 0.8259 0.35128 0.0
C272 C 0.78645 0.81693 0.36355 0.0
C273 C 0.76806 0.84523 0.31221 0.0
C274 C 0.74005 0.85481 0.36243 0.0
C275 C 0.7306 0.80984 0.33286 0.0
O276 O 0.72832 0.82427 0.32805 0.0
O277 O 0.74346 0.80637 0.34175 0.0
O278 O 0.753 0.8521 0.31001 0.0
O279 O 0.77068 0.83781 0.3253 0.0
O280 O 0.60768 0.47907 0.38555 0.0
Cd281 Cd 0.61427 0.49248 0.40497 0.0
Cd282 Cd 0.57928 0.50272 0.40251 0.0
O283 O 0.58143 0.48986 0.38175 0.0
O284 O 0.63767 0.50373 0.40317 0.0
O285 O 0.61187 0.51601 0.40197 0.0
C286 C 0.62872 0.5169 0.40113 0.0
C287 C 0.56333 0.52707 0.4035 0.0
C288 C 0.59372 0.48037 0.37748 0.0
C289 C 0.59155 0.48338 0.43136 0.0
O290 O 0.57943 0.49005 0.42339 0.0
O291 O 0.6073 0.48323 0.42645 0.0
O292 O 0.55554 0.51327 0.40209 0.0
O293 O 0.58021 0.52714 0.40365 0.0
O294 O 0.24686 0.65697 0.6317 0.0
Cd295 Cd 0.25762 0.67676 0.64295 0.0
Cd296 Cd 0.24821 0.65821 0.66764 0.0
O297 O 0.24179 0.64054 0.65154 0.0
O298 O 0.26951 0.68848 0.62545 0.0
O299 O 0.2839 0.67781 0.64535 0.0
C300 C 0.28428 0.68515 0.63204 0.0
C301 C 0.27132 0.65666 0.68526 0.0
C302 C 0.24164 0.64336 0.63693 0.0
C303 C 0.2297 0.69002 0.6642 0.0
O304 O 0.23002 0.67635 0.6711 0.0
O305 O 0.24052 0.69311 0.65326 0.0
O306 O 0.25661 0.64944 0.68814 0.0
O307 O 0.27301 0.66406 0.67204 0.0
O308 O 0.89551 0.47476 0.61999 0.0
Cd309 Cd 0.88852 0.48843 0.60087 0.0
Cd310 Cd 0.92278 0.49884 0.60334 0.0
O311 O 0.9215 0.48588 0.62409 0.0
O312 O 0.86428 0.49769 0.6032 0.0
O313 O 0.88876 0.51218 0.6039 0.0
C314 C 0.8719 0.51158 0.60508 0.0
C315 C 0.93771 0.52365 0.60182 0.0
C316 C 0.90943 0.47606 0.62812 0.0
C317 C 0.911 0.47948 0.57442 0.0
O318 O 0.92307 0.48605 0.58254 0.0
O319 O 0.89521 0.4794 0.57922 0.0
O320 O 0.94605 0.51016 0.60349 0.0
O321 O 0.92083 0.52317 0.60185 0.0
O322 O 0.1037 0.02629 0.61808 0.0
Cd323 Cd 0.11129 0.01338 0.5987 0.0
Cd324 Cd 0.07632 0.00503 0.59821 0.0
O325 O 0.0763 0.01764 0.61922 0.0
O326 O 0.13534 0.00417 0.60209 0.0
O327 O 0.11104 0.98947 0.60092 0.0
C328 C 0.12775 0.99019 0.6032 0.0
C329 C 0.06133 0.9804 0.59565 0.0
C330 C 0.08887 0.02595 0.62487 0.0
C331 C 0.09182 0.02411 0.57077 0.0
O332 O 0.07861 0.01778 0.5775 0.0
O333 O 0.10693 0.02363 0.57705 0.0
O334 O 0.053 0.99397 0.59666 0.0
O335 O 0.07818 0.98073 0.59683 0.0
O336 O 0.64765 0.72888 0.86035 0.0
Cd337 Cd 0.66647 0.74674 0.85869 0.0
Cd338 Cd 0.65763 0.74491 0.82798 0.0
O339 O 0.63666 0.73183 0.83662 0.0
O340 O 0.66505 0.76173 0.87714 0.0
O341 O 0.65772 0.76843 0.85288 0.0
C342 C 0.65874 0.7723 0.86747 0.0
C343 C 0.65478 0.76435 0.80812 0.0
C344 C 0.63615 0.72534 0.85011 0.0
C345 C 0.69368 0.73331 0.83833 0.0
O346 O 0.68153 0.73331 0.82813 0.0
O347 O 0.69127 0.73979 0.85166 0.0
O348 O 0.65269 0.74911 0.80527 0.0
O349 O 0.6576 0.76863 0.82239 0.0
O350 O 0.96279 0.10084 0.39468 0.0
Cd351 Cd 0.98442 0.0865 0.39167 0.0
Cd352 Cd 0.98487 0.08667 0.42356 0.0
O353 O 0.96571 0.10427 0.42016 0.0
O354 O 0.99811 0.09402 0.37309 0.0
O355 O 0.00714 0.09634 0.39766 0.0
C356 C 0.00967 0.0992 0.38299 0.0
C357 C 0.00644 0.08971 0.44285 0.0
C358 C 0.95785 0.10743 0.40737 0.0
C359 C 0.97805 0.05481 0.40616 0.0
O360 O 0.97868 0.0627 0.41895 0.0
O361 O 0.98069 0.06186 0.39316 0.0
O362 O 0.99031 0.08695 0.44647 0.0
O363 O 0.01024 0.09153 0.42827 0.0
O364 O 0.3539 0.77059 0.85938 0.0
Cd365 Cd 0.3357 0.75224 0.85861 0.0
Cd366 Cd 0.34594 0.75085 0.82778 0.0
O367 O 0.36449 0.76746 0.8355 0.0
O368 O 0.33649 0.73871 0.87805 0.0
O369 O 0.34488 0.73022 0.8546 0.0
C370 C 0.34313 0.72743 0.86937 0.0
C371 C 0.35223 0.73044 0.80953 0.0
C372 C 0.36472 0.77457 0.84873 0.0
C373 C 0.30817 0.76046 0.836 0.0
O374 O 0.32035 0.75866 0.82599 0.0
O375 O 0.31104 0.75798 0.85045 0.0
O376 O 0.352 0.74552 0.80556 0.0
O377 O 0.35017 0.72701 0.82411 0.0
O378 O 0.03183 0.40413 0.38939 0.0
Cd379 Cd 0.0103 0.41895 0.38875 0.0
Cd380 Cd 0.01176 0.416 0.42032 0.0
O381 O 0.0298 0.39811 0.41446 0.0
O382 O 0.99505 0.41303 0.3706 0.0
O383 O 0.98794 0.4088 0.39542 0.0
C384 C 0.98426 0.40709 0.38077 0.0
C385 C 0.99215 0.41217 0.44104 0.0
C386 C 0.03703 0.3961 0.40119 0.0
C387 C 0.0186 0.44909 0.40535 0.0
O388 O 0.01872 0.44005 0.4174 0.0
O389 O 0.01467 0.44336 0.392 0.0
O390 O 0.00875 0.41375 0.44342 0.0
O391 O 0.98666 0.41196 0.42678 0.0
O392 O 0.64971 0.27534 0.64202 0.0
Cd393 Cd 0.66566 0.2553 0.64166 0.0
Cd394 Cd 0.65966 0.25527 0.67347 0.0
O395 O 0.64207 0.27322 0.66686 0.0
O396 O 0.66024 0.24074 0.62356 0.0
O397 O 0.65451 0.23484 0.64835 0.0
C398 C 0.65358 0.23093 0.63376 0.0
C399 C 0.653 0.23721 0.69378 0.0
C400 C 0.64077 0.28024 0.65364 0.0
C401 C 0.6969 0.26087 0.66093 0.0
O402 O 0.68613 0.26033 0.67228 0.0
O403 O 0.69173 0.25872 0.64695 0.0
O404 O 0.65552 0.25241 0.69641 0.0
O405 O 0.6533 0.23231 0.67947 0.0
O406 O 0.52242 0.09803 0.61074 0.0
Cd407 Cd 0.50202 0.08186 0.61057 0.0
Cd408 Cd 0.50236 0.08808 0.57899 0.0
O409 O 0.51931 0.10628 0.58632 0.0
O410 O 0.48582 0.08608 0.62856 0.0
O411 O 0.47941 0.09114 0.60373 0.0
C412 C 0.47513 0.09204 0.6183 0.0
C413 C 0.48231 0.09234 0.55862 0.0
C414 C 0.52672 0.10745 0.59962 0.0
C415 C 0.51169 0.05407 0.59114 0.0
O416 O 0.51082 0.06431 0.58004 0.0
O417 O 0.50787 0.05814 0.60507 0.0
O418 O 0.49896 0.09193 0.55608 0.0
O419 O 0.477 0.09126 0.57289 0.0
O420 O 0.34766 0.22793 0.64084 0.0
Cd421 Cd 0.33111 0.24753 0.64195 0.0
Cd422 Cd 0.34042 0.24688 0.67339 0.0
O423 O 0.35796 0.22973 0.66496 0.0
O424 O 0.33487 0.26315 0.62425 0.0
O425 O 0.34216 0.26786 0.64895 0.0
C426 C 0.34199 0.27256 0.63457 0.0
C427 C 0.34782 0.26482 0.69364 0.0
C428 C 0.35798 0.22302 0.65153 0.0
C429 C 0.30222 0.24046 0.66345 0.0
O430 O 0.31416 0.24095 0.67383 0.0
O431 O 0.30576 0.24327 0.64917 0.0
O432 O 0.34629 0.24947 0.6961 0.0
O433 O 0.34628 0.26993 0.67947 0.0
O434 O 0.47373 0.40524 0.61716 0.0
Cd435 Cd 0.49459 0.42086 0.61758 0.0
Cd436 Cd 0.49294 0.41786 0.58594 0.0
O437 O 0.47534 0.39967 0.59196 0.0
O438 O 0.51037 0.41552 0.6355 0.0
O439 O 0.51722 0.41154 0.61058 0.0
C440 C 0.52123 0.40998 0.62518 0.0
C441 C 0.51232 0.41438 0.565 0.0
C442 C 0.46851 0.39724 0.60534 0.0
C443 C 0.48541 0.45078 0.60104 0.0
O444 O 0.48562 0.4418 0.58895 0.0
O445 O 0.48931 0.44509 0.61441 0.0
O446 O 0.49567 0.41572 0.5628 0.0
O447 O 0.51801 0.41421 0.5792 0.0
O448 O 0.87057 0.62799 0.74548 0.0
Cd449 Cd 0.85114 0.64191 0.73536 0.0
Cd450 Cd 0.87373 0.66465 0.74519 0.0
O451 O 0.89138 0.64618 0.74923 0.0
O452 O 0.83584 0.62564 0.72463 0.0
O453 O 0.85141 0.64394 0.71187 0.0
C454 C 0.84101 0.6316 0.71149 0.0
C455 C 0.87488 0.68453 0.72622 0.0
C456 C 0.88614 0.63154 0.74963 0.0
C457 C 0.83915 0.66416 0.76091 0.0
O458 O 0.85503 0.66866 0.76205 0.0
O459 O 0.83447 0.6546 0.75 0.0
O460 O 0.88352 0.68617 0.73915 0.0
O461 O 0.86686 0.67098 0.72365 0.0
O462 O 0.89254 0.87456 0.51682 0.0
Cd463 Cd 0.91299 0.86999 0.50184 0.0
Cd464 Cd 0.91041 0.90216 0.49601 0.0
O465 O 0.88798 0.89989 0.50956 0.0
O466 O 0.91003 0.84826 0.49179 0.0
O467 O 0.90809 0.87166 0.4791 0.0
C468 C 0.90697 0.85603 0.47893 0.0
C469 C 0.91044 0.91893 0.47394 0.0
C470 C 0.88376 0.88763 0.51777 0.0
C471 C 0.94348 0.88908 0.51184 0.0
O472 O 0.93442 0.90112 0.50721 0.0
O473 O 0.93773 0.87469 0.51036 0.0
O474 O 0.90938 0.92484 0.48785 0.0
O475 O 0.91073 0.90338 0.47245 0.0
O476 O 0.12841 0.87309 0.74883 0.0
Cd477 Cd 0.14841 0.8609 0.73758 0.0
Cd478 Cd 0.12764 0.83601 0.74562 0.0
O479 O 0.10924 0.85324 0.75167 0.0
O480 O 0.16244 0.87821 0.72699 0.0
O481 O 0.1474 0.8596 0.7141 0.0
C482 C 0.15721 0.87235 0.71381 0.0
C483 C 0.12666 0.81706 0.72571 0.0
C484 C 0.11335 0.86812 0.75309 0.0
C485 C 0.16238 0.83701 0.76101 0.0
O486 O 0.14694 0.83128 0.76169 0.0
O487 O 0.16611 0.8481 0.7512 0.0
O488 O 0.11809 0.81471 0.73856 0.0
O489 O 0.13431 0.8309 0.72373 0.0
O490 O 0.10925 0.62446 0.52235 0.0
Cd491 Cd 0.08889 0.62944 0.50738 0.0
Cd492 Cd 0.09081 0.59737 0.50169 0.0
O493 O 0.11349 0.59911 0.51501 0.0
O494 O 0.09212 0.65162 0.49846 0.0
O495 O 0.09387 0.62897 0.48455 0.0
C496 C 0.09518 0.64458 0.48522 0.0
C497 C 0.08995 0.58126 0.4792 0.0
C498 C 0.11787 0.6113 0.52326 0.0
C499 C 0.05815 0.61088 0.51768 0.0
O500 O 0.06701 0.59866 0.51321 0.0
O501 O 0.06407 0.62517 0.5159 0.0
O502 O 0.09122 0.57493 0.49292 0.0
O503 O 0.08996 0.59687 0.47812 0.0
O504 O 0.86973 0.37073 0.75141 0.0
Cd505 Cd 0.84955 0.35774 0.76145 0.0
Cd506 Cd 0.87297 0.33385 0.75544 0.0
O507 O 0.89057 0.35213 0.7504 0.0
O508 O 0.83406 0.37447 0.77145 0.0
O509 O 0.84927 0.35642 0.78488 0.0
C510 C 0.83904 0.36886 0.78481 0.0
C511 C 0.87308 0.31567 0.77607 0.0
C512 C 0.88548 0.36669 0.7484 0.0
C513 C 0.83959 0.33281 0.73748 0.0
O514 O 0.8554 0.32801 0.7382 0.0
O515 O 0.83403 0.34374 0.74677 0.0
O516 O 0.88287 0.31316 0.76395 0.0
O517 O 0.86459 0.32919 0.7769 0.0
O518 O 0.60543 0.86856 0.48005 0.0
Cd519 Cd 0.58512 0.86525 0.49547 0.0
Cd520 Cd 0.58831 0.89774 0.50007 0.0
O521 O 0.61079 0.89389 0.48692 0.0
O522 O 0.58772 0.84478 0.50782 0.0
O523 O 0.59092 0.8695 0.51767 0.0
C524 C 0.59157 0.85398 0.51959 0.0
C525 C 0.58853 0.91691 0.52027 0.0
C526 C 0.61466 0.88135 0.47896 0.0
C527 C 0.55489 0.88437 0.48501 0.0
O528 O 0.5643 0.89646 0.48892 0.0
O529 O 0.56032 0.86997 0.48715 0.0
O530 O 0.5901 0.92114 0.50585 0.0
O531 O 0.5876 0.90165 0.52342 0.0
O532 O 0.12072 0.13071 0.75133 0.0
Cd533 Cd 0.14129 0.14329 0.76129 0.0
Cd534 Cd 0.1198 0.16795 0.75215 0.0
O535 O 0.10171 0.15032 0.74643 0.0
O536 O 0.15612 0.12601 0.77108 0.0
O537 O 0.142 0.14453 0.78483 0.0
C538 C 0.15181 0.1318 0.78454 0.0
C539 C 0.11996 0.18584 0.77296 0.0
C540 C 0.10578 0.13536 0.74644 0.0
C541 C 0.15441 0.16678 0.7367 0.0
O542 O 0.13899 0.17256 0.73602 0.0
O543 O 0.15822 0.15589 0.74671 0.0
O544 O 0.11093 0.18905 0.76051 0.0
O545 O 0.1274 0.17181 0.77398 0.0
O546 O 0.38848 0.62473 0.48531 0.0
Cd547 Cd 0.41066 0.63018 0.49796 0.0
Cd548 Cd 0.41145 0.59736 0.50286 0.0
O549 O 0.38853 0.59833 0.48992 0.0
O550 O 0.40804 0.65167 0.50864 0.0
O551 O 0.40825 0.628 0.52094 0.0
C552 C 0.40653 0.64356 0.52152 0.0
C553 C 0.41324 0.58091 0.52507 0.0
C554 C 0.38161 0.61078 0.48365 0.0
C555 C 0.44206 0.61313 0.48584 0.0
O556 O 0.43485 0.60039 0.49121 0.0
O557 O 0.4347 0.62689 0.48727 0.0
O558 O 0.4125 0.57475 0.51123 0.0
O559 O 0.41231 0.59646 0.52638 0.0
O560 O 0.75619 0.84424 0.62917 0.0
Cd561 Cd 0.7449 0.82476 0.64066 0.0
Cd562 Cd 0.75695 0.84333 0.66474 0.0
O563 O 0.76217 0.86107 0.64853 0.0
O564 O 0.73257 0.81315 0.62326 0.0
O565 O 0.71857 0.82445 0.64304 0.0
C566 C 0.71792 0.81692 0.62984 0.0
C567 C 0.73392 0.84321 0.68245 0.0
C568 C 0.76175 0.85791 0.63398 0.0
C569 C 0.77374 0.81106 0.66067 0.0
O570 O 0.77527 0.82513 0.66662 0.0
O571 O 0.76134 0.80787 0.65118 0.0
O572 O 0.74841 0.85063 0.68578 0.0
O573 O 0.73243 0.83668 0.66879 0.0
O574 O 0.75197 0.1582 0.87437 0.0
Cd575 Cd 0.74159 0.17862 0.86387 0.0
Cd576 Cd 0.75004 0.1602 0.83855 0.0
O577 O 0.75605 0.14198 0.85415 0.0
O578 O 0.73011 0.19009 0.88179 0.0
O579 O 0.71533 0.18018 0.86175 0.0
C580 C 0.71521 0.18715 0.87524 0.0
C581 C 0.72643 0.16015 0.82142 0.0
C582 C 0.75657 0.14454 0.86881 0.0
C583 C 0.76947 0.19156 0.84238 0.0
O584 O 0.76867 0.17797 0.83537 0.0
O585 O 0.7589 0.1948 0.85349 0.0
O586 O 0.74078 0.15263 0.81787 0.0
O587 O 0.72537 0.16688 0.83501 0.0
O588 O 0.3888 0.01938 0.38168 0.0
Cd589 Cd 0.3821 0.00724 0.40182 0.0
Cd590 Cd 0.41722 0.99763 0.40048 0.0
O591 O 0.41552 0.00925 0.37906 0.0
O592 O 0.35853 0.99635 0.40005 0.0
O593 O 0.38404 0.98351 0.40004 0.0
C594 C 0.36721 0.98293 0.39871 0.0
C595 C 0.43285 0.97328 0.40315 0.0
C596 C 0.403 0.01801 0.37397 0.0
C597 C 0.40423 0.01843 0.42798 0.0
O598 O 0.41663 0.01157 0.42053 0.0
O599 O 0.38855 0.0179 0.4229 0.0
O600 O 0.44084 0.98688 0.40104 0.0
O601 O 0.41596 0.97338 0.40306 0.0
O602 O 0.24753 0.3356 0.87523 0.0
Cd603 Cd 0.25739 0.31589 0.86324 0.0
Cd604 Cd 0.24832 0.33653 0.83939 0.0
O605 O 0.24322 0.35356 0.85648 0.0
O606 O 0.26951 0.30325 0.88015 0.0
O607 O 0.28353 0.31432 0.86026 0.0
C608 C 0.28416 0.30658 0.87334 0.0
C609 C 0.27187 0.33734 0.82221 0.0
C610 C 0.24304 0.34976 0.87089 0.0
C611 C 0.2287 0.30496 0.84159 0.0
O612 O 0.22946 0.31905 0.83554 0.0
O613 O 0.23956 0.30075 0.85217 0.0
O614 O 0.25763 0.34524 0.81909 0.0
O615 O 0.27279 0.32974 0.83537 0.0
O616 O 0.10768 0.9736 0.88278 0.0
Cd617 Cd 0.11584 0.98792 0.901 0.0
Cd618 Cd 0.08109 0.9962 0.90215 0.0
O619 O 0.08063 0.98311 0.88139 0.0
O620 O 0.13912 0.99807 0.8963 0.0
O621 O 0.11406 0.01165 0.89777 0.0
C622 C 0.1307 0.01162 0.89496 0.0
C623 C 0.06433 0.01983 0.90491 0.0
C624 C 0.09276 0.97401 0.87614 0.0
C625 C 0.09785 0.97802 0.9297 0.0
O626 O 0.08433 0.98386 0.92302 0.0
O627 O 0.11279 0.97863 0.92315 0.0
O628 O 0.05706 0.00575 0.90407 0.0
O629 O 0.08113 0.02063 0.9034 0.0
O630 O 0.74186 0.16128 0.13301 0.0
Cd631 Cd 0.75455 0.17974 0.14467 0.0
Cd632 Cd 0.74425 0.1612 0.16901 0.0
O633 O 0.7374 0.14412 0.15242 0.0
O634 O 0.76812 0.19127 0.12796 0.0
O635 O 0.78066 0.1774 0.14703 0.0
C636 C 0.78221 0.18558 0.13426 0.0
C637 C 0.76665 0.15905 0.18733 0.0
C638 C 0.73654 0.14759 0.13794 0.0
C639 C 0.72753 0.19383 0.1662 0.0
O640 O 0.72673 0.17983 0.1724 0.0
O641 O 0.73896 0.19689 0.15575 0.0
O642 O 0.75171 0.15204 0.1897 0.0
O643 O 0.76903 0.16639 0.17417 0.0
O644 O 0.39365 0.97675 0.12372 0.0
Cd645 Cd 0.38609 0.98783 0.10324 0.0
Cd646 Cd 0.42047 0.99913 0.10437 0.0
O647 O 0.42009 0.98756 0.12584 0.0
O648 O 0.36171 0.99689 0.10526 0.0
O649 O 0.38586 0.01175 0.1035 0.0
C650 C 0.3691 0.01101 0.10536 0.0
C651 C 0.43433 0.02434 0.10146 0.0
C652 C 0.40793 0.97858 0.13123 0.0
C653 C 0.40847 0.9773 0.07713 0.0
O654 O 0.42041 0.98511 0.08434 0.0
O655 O 0.39289 0.97681 0.08243 0.0
O656 O 0.44328 0.01123 0.10338 0.0
O657 O 0.41749 0.02327 0.10187 0.0
O658 O 0.61025 0.52373 0.11912 0.0
Cd659 Cd 0.61613 0.51202 0.09845 0.0
Cd660 Cd 0.5816 0.5047 0.09975 0.0
O661 O 0.58361 0.51377 0.12214 0.0
O662 O 0.64017 0.50239 0.10029 0.0
O663 O 0.61561 0.488 0.0991 0.0
C664 C 0.63242 0.48845 0.10086 0.0
C665 C 0.56519 0.48119 0.09501 0.0
C666 C 0.59641 0.52209 0.12728 0.0
C667 C 0.59476 0.52706 0.07387 0.0
O668 O 0.58202 0.52122 0.08166 0.0
O669 O 0.61051 0.52386 0.07772 0.0
O670 O 0.55773 0.49474 0.09851 0.0
O671 O 0.58208 0.48083 0.09463 0.0
C672 C 0.22458 0.34561 0.21001 0.0
C673 C 0.22124 0.33788 0.19567 0.0
C674 C 0.21399 0.34245 0.22304 0.0
C675 C 0.17276 0.32113 0.23567 0.0
H676 H 0.19966 0.31299 0.27334 0.0
C677 C 0.165 0.29247 0.30202 0.0
C678 C 0.15823 0.27712 0.29813 0.0
C679 C 0.16951 0.30353 0.2903 0.0
C680 C 0.19186 0.31549 0.26302 0.0
H681 H 0.20354 0.32156 0.18351 0.0
H682 H 0.18556 0.3157 0.20613 0.0
H683 H 0.21361 0.32626 0.25126 0.0
H684 H 0.14973 0.26178 0.27898 0.0
H685 H 0.15742 0.28116 0.25852 0.0
H686 H 0.15134 0.3093 0.24727 0.0
C687 C 0.19607 0.32444 0.2074 0.0
C688 C 0.19985 0.32318 0.25033 0.0
C689 C 0.20652 0.32771 0.19439 0.0
C690 C 0.15498 0.27348 0.28234 0.0
C691 C 0.15929 0.28462 0.27063 0.0
C692 C 0.16485 0.31324 0.24831 0.0
C693 C 0.19995 0.33138 0.22203 0.0
C694 C 0.19056 0.32571 0.23632 0.0
C695 C 0.16712 0.29954 0.27447 0.0
C696 C 0.17446 0.31 0.26197 0.0
H697 H 0.23574 0.35362 0.21134 0.0
H698 H 0.21715 0.34831 0.23402 0.0
H699 H 0.16507 0.3232 0.22521 0.0
H700 H 0.16763 0.29567 0.31408 0.0
H701 H 0.17539 0.315 0.29358 0.0
C702 C 0.57407 0.54488 0.05933 0.0
C703 C 0.5908 0.53784 0.0605 0.0
C704 C 0.56967 0.55455 0.04658 0.0
C705 C 0.57905 0.55993 0.00546 0.0
H706 H 0.5485 0.5972 0.01061 0.0
C707 C 0.54083 0.5871 0.9534 0.0
C708 C 0.52274 0.58817 0.95643 0.0
C709 C 0.55276 0.58501 0.9657 0.0
C710 C 0.55711 0.58688 0.00896 0.0
H711 H 0.61622 0.53571 0.04931 0.0
H712 H 0.60832 0.55253 0.02664 0.0
H713 H 0.56347 0.58578 0.03331 0.0
H714 H 0.50306 0.58892 0.97471 0.0
H715 H 0.52375 0.58537 0.99607 0.0
H716 H 0.57195 0.5605 0.98124 0.0
C717 C 0.5987 0.55055 0.03576 0.0
C718 C 0.56569 0.58036 0.02194 0.0
C719 C 0.60321 0.54097 0.04871 0.0
C720 C 0.51691 0.58808 0.972 0.0
C721 C 0.52881 0.58616 0.98426 0.0
C722 C 0.57045 0.56646 0.99244 0.0
C723 C 0.58183 0.55738 0.03456 0.0
C724 C 0.57614 0.5664 0.02043 0.0
C725 C 0.54681 0.58417 0.98123 0.0
C726 C 0.55881 0.57959 0.99419 0.0
H727 H 0.56421 0.54281 0.06824 0.0
H728 H 0.55648 0.55939 0.04589 0.0
H729 H 0.58695 0.54912 0.00395 0.0
H730 H 0.54572 0.58712 0.94151 0.0
H731 H 0.56657 0.58362 0.96303 0.0
C732 C 0.83839 0.20682 0.30485 0.0
C733 C 0.84414 0.22245 0.30073 0.0
C734 C 0.83424 0.19546 0.29326 0.0
C735 C 0.83774 0.186 0.251 0.0
H736 H 0.78965 0.17141 0.25537 0.0
C737 C 0.79428 0.17083 0.19822 0.0
C738 C 0.77995 0.16025 0.19991 0.0
C739 C 0.80519 0.17429 0.21091 0.0
C740 C 0.80325 0.17494 0.25403 0.0
H741 H 0.85143 0.23797 0.28132 0.0
H742 H 0.84444 0.21808 0.26115 0.0
H743 H 0.80405 0.18478 0.27716 0.0
H744 H 0.76667 0.144 0.21593 0.0
H745 H 0.78607 0.14961 0.23799 0.0
H746 H 0.83687 0.17641 0.22776 0.0
C747 C 0.84304 0.21462 0.2733 0.0
C748 C 0.8115 0.18267 0.26657 0.0
C749 C 0.84697 0.22605 0.28487 0.0
C750 C 0.77751 0.15233 0.21429 0.0
C751 C 0.78856 0.15565 0.22697 0.0
C752 C 0.82956 0.17806 0.23849 0.0
C753 C 0.83602 0.19943 0.27736 0.0
C754 C 0.82863 0.18874 0.26503 0.0
C755 C 0.80218 0.16712 0.22561 0.0
C756 C 0.81199 0.17292 0.23966 0.0
H757 H 0.83608 0.20367 0.31697 0.0
H758 H 0.829 0.18378 0.29672 0.0
H759 H 0.85104 0.19039 0.24955 0.0
H760 H 0.79655 0.17715 0.1873 0.0
H761 H 0.81535 0.18332 0.20937 0.0
C762 C 0.48287 0.90442 0.97277 0.0
C763 C 0.47715 0.90946 0.95796 0.0
C764 C 0.47266 0.90744 0.986 0.0
C765 C 0.42979 0.92493 0.99985 0.0
H766 H 0.45943 0.94094 0.03329 0.0
C767 C 0.42881 0.9727 0.05483 0.0
C768 C 0.41333 0.96845 0.06272 0.0
C769 C 0.43468 0.96361 0.04216 0.0
C770 C 0.45092 0.9366 0.02404 0.0
H771 H 0.45577 0.92058 0.94517 0.0
H772 H 0.43831 0.9266 0.96829 0.0
H773 H 0.47263 0.92732 0.01126 0.0
H774 H 0.39144 0.95166 0.0631 0.0
H775 H 0.40194 0.93545 0.04092 0.0
H776 H 0.40816 0.93528 0.01246 0.0
C777 C 0.45042 0.91992 0.96976 0.0
C778 C 0.45848 0.92846 0.01147 0.0
C779 C 0.46047 0.91653 0.95647 0.0
C780 C 0.40343 0.95522 0.05724 0.0
C781 C 0.40943 0.94596 0.04454 0.0
C782 C 0.4222 0.93326 0.01245 0.0
C783 C 0.45675 0.91603 0.98478 0.0
C784 C 0.4481 0.92275 0.99903 0.0
C785 C 0.42536 0.94986 0.03712 0.0
C786 C 0.43278 0.93955 0.02447 0.0
H787 H 0.49558 0.89874 0.9742 0.0
H788 H 0.4777 0.90374 0.99729 0.0
H789 H 0.42134 0.92051 0.9906 0.0
H790 H 0.4366 0.98299 0.05858 0.0
H791 H 0.4467 0.96727 0.03641 0.0
C792 C 0.2223 0.65787 0.29317 0.0
C793 C 0.21871 0.66288 0.30856 0.0
C794 C 0.21155 0.66292 0.28081 0.0
C795 C 0.18497 0.69802 0.27111 0.0
H796 H 0.17235 0.67402 0.23378 0.0
C797 C 0.15431 0.73142 0.21931 0.0
C798 C 0.16075 0.72732 0.20446 0.0
C799 C 0.15746 0.72134 0.23214 0.0
C800 C 0.17587 0.68093 0.24408 0.0
H801 H 0.20017 0.67583 0.32322 0.0
H802 H 0.18149 0.68455 0.3017 0.0
H803 H 0.18517 0.65972 0.25612 0.0
H804 H 0.17481 0.70905 0.19121 0.0
H805 H 0.18096 0.6918 0.21364 0.0
H806 H 0.17674 0.7193 0.25905 0.0
C807 C 0.19274 0.67697 0.29915 0.0
C808 C 0.18314 0.6727 0.25689 0.0
C809 C 0.20342 0.67191 0.31148 0.0
C810 C 0.16964 0.71252 0.20253 0.0
C811 C 0.17309 0.70257 0.21542 0.0
C812 C 0.17794 0.70624 0.25831 0.0
C813 C 0.19707 0.67308 0.28364 0.0
C814 C 0.18789 0.68121 0.27048 0.0
C815 C 0.16748 0.70708 0.23049 0.0
C816 C 0.17344 0.69787 0.24454 0.0
H817 H 0.23396 0.65088 0.29054 0.0
H818 H 0.21525 0.65976 0.26896 0.0
H819 H 0.18884 0.70499 0.28128 0.0
H820 H 0.14722 0.74266 0.22111 0.0
H821 H 0.15248 0.725 0.24346 0.0
C822 C 0.96568 0.58625 0.03856 0.0
C823 C 0.98234 0.59344 0.03756 0.0
C824 C 0.95653 0.58204 0.02495 0.0
C825 C 0.96728 0.57158 0.98411 0.0
H826 H 0.91718 0.56409 0.98094 0.0
C827 C 0.91518 0.5427 0.93674 0.0
C828 C 0.92565 0.52958 0.93189 0.0
C829 C 0.92035 0.55233 0.94946 0.0
C830 C 0.93117 0.56628 0.98156 0.0
H831 H 0.00166 0.60353 0.02178 0.0
H832 H 0.98531 0.59713 0.99809 0.0
H833 H 0.92882 0.57993 0.0028 0.0
H834 H 0.949 0.51559 0.9372 0.0
H835 H 0.95763 0.53191 0.95949 0.0
H836 H 0.96971 0.55827 0.96285 0.0
C837 C 0.97961 0.59395 0.00927 0.0
C838 C 0.93788 0.57522 0.99417 0.0
C839 C 0.98893 0.59778 0.02284 0.0
C840 C 0.94081 0.52579 0.94046 0.0
C841 C 0.94583 0.53523 0.95319 0.0
C842 C 0.96059 0.56284 0.97151 0.0
C843 C 0.96375 0.58522 0.01011 0.0
C844 C 0.95608 0.57769 0.99578 0.0
C845 C 0.93598 0.54891 0.95759 0.0
C846 C 0.94254 0.55966 0.97029 0.0
H847 H 0.96032 0.58272 0.04978 0.0
H848 H 0.94443 0.57529 0.02614 0.0
H849 H 0.98137 0.57292 0.98495 0.0
H850 H 0.90342 0.5459 0.93033 0.0
H851 H 0.91245 0.56277 0.95256 0.0
C852 C 0.85385 0.78398 0.20999 0.0
C853 C 0.84555 0.78631 0.19551 0.0
C854 C 0.85016 0.79421 0.22259 0.0
C855 C 0.8256 0.83165 0.23469 0.0
H856 H 0.81791 0.80643 0.27233 0.0
C857 C 0.77707 0.8489 0.28421 0.0
C858 C 0.7813 0.84428 0.29958 0.0
C859 C 0.78838 0.84515 0.27182 0.0
C860 C 0.82029 0.81379 0.26205 0.0
H861 H 0.82784 0.80185 0.18252 0.0
H862 H 0.82089 0.81936 0.20461 0.0
H863 H 0.83184 0.79387 0.25001 0.0
H864 H 0.80139 0.83339 0.31418 0.0
H865 H 0.82112 0.82703 0.29264 0.0
H866 H 0.8131 0.85137 0.24675 0.0
C867 C 0.83053 0.80986 0.20624 0.0
C868 C 0.82837 0.80658 0.24919 0.0
C869 C 0.83448 0.79978 0.19355 0.0
C870 C 0.79763 0.83694 0.30245 0.0
C871 C 0.80892 0.83324 0.2901 0.0
C872 C 0.81736 0.83887 0.2476 0.0
C873 C 0.83778 0.80679 0.2211 0.0
C874 C 0.83096 0.81531 0.23524 0.0
C875 C 0.80413 0.83673 0.27459 0.0
C876 C 0.81443 0.82993 0.26135 0.0
H877 H 0.86262 0.77381 0.21179 0.0
H878 H 0.85643 0.79177 0.23371 0.0
H879 H 0.82755 0.83882 0.22423 0.0
H880 H 0.7646 0.85459 0.28161 0.0
H881 H 0.78426 0.84795 0.26 0.0
C882 C 0.10484 0.95561 0.94848 0.0
C883 C 0.09565 0.96992 0.94493 0.0
C884 C 0.10059 0.94668 0.9619 0.0
C885 C 0.07466 0.92638 0.98215 0.0
H886 H 0.06724 0.94622 0.02275 0.0
C887 C 0.01867 0.91052 0.02415 0.0
C888 C 0.02192 0.91037 0.04031 0.0
C889 C 0.03208 0.91427 0.01364 0.0
C890 C 0.06955 0.94037 0.01159 0.0
H891 H 0.07569 0.98667 0.95294 0.0
H892 H 0.06872 0.97143 0.97658 0.0
H893 H 0.08372 0.96084 0.00269 0.0
H894 H 0.04195 0.91319 0.05813 0.0
H895 H 0.06534 0.92017 0.03971 0.0
H896 H 0.05936 0.90642 0.99068 0.0
C897 C 0.07902 0.96699 0.96897 0.0
C898 C 0.0789 0.94876 1.00012 0.0
C899 C 0.08294 0.97566 0.95542 0.0
C900 C 0.03907 0.91319 0.04572 0.0
C901 C 0.05243 0.91723 0.03522 0.0
C902 C 0.06505 0.91809 0.99355 0.0
C903 C 0.08747 0.95222 0.97212 0.0
C904 C 0.08107 0.94205 0.98516 0.0
C905 C 0.04894 0.91819 0.01912 0.0
C906 C 0.06196 0.92523 0.00821 0.0
H907 H 0.11462 0.9509 0.94049 0.0
H908 H 0.10722 0.93529 0.9641 0.0
H909 H 0.07605 0.92102 0.97065 0.0
H910 H 0.00559 0.90834 0.01964 0.0
H911 H 0.02899 0.91506 0.0013 0.0
C912 C 0.30729 0.15973 0.27417 0.0
C913 C 0.32494 0.16425 0.27598 0.0
C914 C 0.29455 0.1655 0.28448 0.0
C915 C 0.28586 0.19931 0.31147 0.0
H916 H 0.24536 0.1731 0.32215 0.0
C917 C 0.22511 0.22438 0.34497 0.0
C918 C 0.20953 0.22173 0.33655 0.0
C919 C 0.24057 0.21629 0.3407 0.0
C920 C 0.25667 0.18052 0.31936 0.0
H921 H 0.34311 0.17803 0.29035 0.0
H922 H 0.32087 0.18793 0.30844 0.0
H923 H 0.27022 0.16062 0.30881 0.0
H924 H 0.19774 0.20817 0.31749 0.0
H925 H 0.22445 0.19402 0.31028 0.0
H926 H 0.27201 0.21929 0.32174 0.0
C927 C 0.31686 0.18012 0.2989 0.0
C928 C 0.27084 0.17341 0.31164 0.0
C929 C 0.32961 0.17439 0.28855 0.0
C930 C 0.20956 0.21057 0.32414 0.0
C931 C 0.22482 0.20233 0.32009 0.0
C932 C 0.2717 0.2064 0.3193 0.0
C933 C 0.29915 0.17587 0.29689 0.0
C934 C 0.28534 0.18285 0.30712 0.0
C935 C 0.2405 0.20519 0.32822 0.0
C936 C 0.25675 0.19716 0.32283 0.0
H937 H 0.30324 0.15197 0.26461 0.0
H938 H 0.28099 0.16221 0.28242 0.0
H939 H 0.29676 0.20696 0.30807 0.0
H940 H 0.22544 0.23294 0.35458 0.0
H941 H 0.25255 0.2187 0.34711 0.0
C942 C 0.48397 0.52491 0.92041 0.0
C943 C 0.47986 0.53385 0.90693 0.0
C944 C 0.47727 0.50932 0.92248 0.0
C945 C 0.46573 0.47392 0.9211 0.0
H946 H 0.41483 0.47436 0.92155 0.0
C947 C 0.42639 0.42141 0.9479 0.0
C948 C 0.41558 0.42685 0.96014 0.0
C949 C 0.43307 0.43238 0.93695 0.0
C950 C 0.42903 0.47397 0.92124 0.0
H951 H 0.46612 0.53334 0.88474 0.0
H952 H 0.45388 0.50607 0.88862 0.0
H953 H 0.43085 0.49717 0.91006 0.0
H954 H 0.4022 0.44777 0.96982 0.0
H955 H 0.41363 0.46686 0.95057 0.0
H956 H 0.46396 0.45112 0.93295 0.0
C957 C 0.46251 0.51112 0.89743 0.0
C958 C 0.43818 0.48693 0.91458 0.0
C959 C 0.46957 0.52663 0.8952 0.0
C960 C 0.41055 0.44323 0.96056 0.0
C961 C 0.41702 0.45414 0.94948 0.0
C962 C 0.45658 0.46086 0.92755 0.0
C963 C 0.46604 0.50248 0.91125 0.0
C964 C 0.45661 0.48729 0.91499 0.0
C965 C 0.4288 0.44892 0.93789 0.0
C966 C 0.43816 0.46105 0.9282 0.0
H967 H 0.4919 0.53019 0.92961 0.0
H968 H 0.48005 0.50299 0.9333 0.0
H969 H 0.47993 0.47392 0.92153 0.0
H970 H 0.4305 0.40884 0.94728 0.0
H971 H 0.44207 0.42804 0.92808 0.0
C972 C 0.77912 0.26902 0.32212 0.0
C973 C 0.7856 0.27211 0.3372 0.0
C974 C 0.76324 0.2757 0.31727 0.0
C975 C 0.73652 0.31124 0.32275 0.0
H976 H 0.70301 0.28746 0.29743 0.0
C977 C 0.69195 0.34099 0.27636 0.0
C978 C 0.67467 0.33524 0.27488 0.0
C979 C 0.70364 0.33354 0.28672 0.0
C980 C 0.71209 0.29425 0.30466 0.0
H981 H 0.78035 0.28418 0.35923 0.0
H982 H 0.75254 0.29624 0.35054 0.0
H983 H 0.72621 0.27282 0.31113 0.0
H984 H 0.65598 0.31745 0.28349 0.0
H985 H 0.67643 0.30446 0.30143 0.0
H986 H 0.72275 0.33274 0.31581 0.0
C987 C 0.75979 0.28852 0.34258 0.0
C988 C 0.7254 0.28588 0.31242 0.0
C989 C 0.7756 0.28158 0.34755 0.0
C990 C 0.66923 0.32215 0.28427 0.0
C991 C 0.68093 0.31467 0.29453 0.0
C992 C 0.72328 0.31965 0.31486 0.0
C993 C 0.75361 0.28579 0.32731 0.0
C994 C 0.73796 0.29433 0.32124 0.0
C995 C 0.69831 0.32015 0.29572 0.0
C996 C 0.71117 0.31125 0.30547 0.0
H997 H 0.78651 0.26169 0.31392 0.0
H998 H 0.75888 0.27352 0.30539 0.0
H999 H 0.74613 0.31805 0.32939 0.0
H1000 H 0.69654 0.35107 0.26935 0.0
H1001 H 0.71703 0.33792 0.28728 0.0
C1002 C 0.51631 0.97299 0.92604 0.0
C1003 C 0.51986 0.96507 0.91186 0.0
C1004 C 0.52298 0.98846 0.9289 0.0
C1005 C 0.53312 0.0246 0.92781 0.0
H1006 H 0.58396 0.02478 0.93023 0.0
C1007 C 0.57111 0.0781 0.95475 0.0
C1008 C 0.58043 0.07294 0.96804 0.0
C1009 C 0.56518 0.06679 0.94375 0.0
C1010 C 0.56978 0.025 0.92934 0.0
H1011 H 0.53278 0.96717 0.88938 0.0
H1012 H 0.54512 0.99418 0.89471 0.0
H1013 H 0.56879 0.00174 0.91812 0.0
H1014 H 0.59203 0.05218 0.97964 0.0
H1015 H 0.58212 0.03251 0.9602 0.0
H1016 H 0.53404 0.04753 0.93954 0.0
C1017 C 0.53685 0.98846 0.90341 0.0
C1018 C 0.56113 0.0119 0.92236 0.0
C1019 C 0.52976 0.9731 0.90036 0.0
C1020 C 0.58484 0.05647 0.96953 0.0
C1021 C 0.57924 0.04524 0.95837 0.0
C1022 C 0.54177 0.03783 0.93449 0.0
C1023 C 0.53367 0.99614 0.91779 0.0
C1024 C 0.54272 0.01136 0.92204 0.0
C1025 C 0.56885 0.05022 0.94568 0.0
C1026 C 0.56015 0.03788 0.9358 0.0
H1027 H 0.5087 0.96705 0.93508 0.0
H1028 H 0.52049 0.99409 0.94013 0.0
H1029 H 0.51891 0.02438 0.92772 0.0
H1030 H 0.56746 0.09071 0.95335 0.0
H1031 H 0.55719 0.0709 0.93404 0.0
C1032 C 0.23023 0.77423 0.15597 0.0
C1033 C 0.21465 0.77845 0.16378 0.0
C1034 C 0.24611 0.78171 0.16002 0.0
C1035 C 0.26429 0.81798 0.17913 0.0
H1036 H 0.30171 0.78999 0.1938 0.0
C1037 C 0.31389 0.83869 0.2251 0.0
C1038 C 0.33122 0.83293 0.22455 0.0
C1039 C 0.3014 0.83307 0.21448 0.0
C1040 C 0.29159 0.79803 0.18943 0.0
H1041 H 0.20334 0.79417 0.18146 0.0
H1042 H 0.23082 0.8073 0.18828 0.0
H1043 H 0.2766 0.77823 0.18015 0.0
H1044 H 0.34914 0.81708 0.21206 0.0
H1045 H 0.32731 0.80739 0.1934 0.0
H1046 H 0.27895 0.83773 0.18871 0.0
C1047 C 0.23085 0.79821 0.17912 0.0
C1048 C 0.27722 0.79127 0.18162 0.0
C1049 C 0.21514 0.79058 0.17531 0.0
C1050 C 0.33587 0.8217 0.21287 0.0
C1051 C 0.32335 0.8161 0.20221 0.0
C1052 C 0.27869 0.82474 0.18682 0.0
C1053 C 0.2465 0.79376 0.17165 0.0
C1054 C 0.26317 0.80114 0.17691 0.0
C1055 C 0.30593 0.8216 0.20299 0.0
C1056 C 0.29219 0.81478 0.19257 0.0
H1057 H 0.23021 0.7649 0.14705 0.0
H1058 H 0.25806 0.77808 0.15413 0.0
H1059 H 0.2537 0.82586 0.17542 0.0
H1060 H 0.30985 0.84732 0.23395 0.0
H1061 H 0.28803 0.83735 0.21562 0.0
C1062 C 0.08912 0.45012 0.03453 0.0
C1063 C 0.08496 0.43355 0.03519 0.0
C1064 C 0.08275 0.46077 0.04586 0.0
C1065 C 0.04396 0.46679 0.06817 0.0
H1066 H 0.06952 0.50296 0.08619 0.0
C1067 C 0.02995 0.53235 0.1004 0.0
C1068 C 0.02089 0.53998 0.08813 0.0
C1069 C 0.03694 0.51678 0.09832 0.0
C1070 C 0.06224 0.49275 0.08153 0.0
H1071 H 0.07158 0.41495 0.04856 0.0
H1072 H 0.0599 0.43379 0.06817 0.0
H1073 H 0.08566 0.48013 0.0748 0.0
H1074 H 0.01099 0.5371 0.06454 0.0
H1075 H 0.02263 0.50975 0.06113 0.0
H1076 H 0.02057 0.48004 0.07373 0.0
C1077 C 0.06832 0.43841 0.059 0.0
C1078 C 0.07146 0.47977 0.07497 0.0
C1079 C 0.07504 0.42767 0.04783 0.0
C1080 C 0.01796 0.53146 0.07416 0.0
C1081 C 0.02453 0.51581 0.07224 0.0
C1082 C 0.03476 0.47991 0.07447 0.0
C1083 C 0.07182 0.4551 0.05789 0.0
C1084 C 0.06239 0.46694 0.0678 0.0
C1085 C 0.03449 0.50852 0.08413 0.0
C1086 C 0.04384 0.49321 0.08076 0.0
H1087 H 0.09677 0.45494 0.02492 0.0
H1088 H 0.08549 0.47361 0.04465 0.0
H1089 H 0.03668 0.45711 0.06258 0.0
H1090 H 0.03247 0.53874 0.11124 0.0
H1091 H 0.04466 0.51138 0.10761 0.0
C1092 C 0.77335 0.73089 0.15991 0.0
C1093 C 0.78943 0.73089 0.16797 0.0
C1094 C 0.75843 0.72386 0.16668 0.0
C1095 C 0.7412 0.71117 0.20533 0.0
H1096 H 0.70937 0.68417 0.18133 0.0
C1097 C 0.69352 0.66736 0.23487 0.0
C1098 C 0.67586 0.66861 0.23033 0.0
C1099 C 0.70661 0.67503 0.22621 0.0
C1100 C 0.71811 0.69179 0.18811 0.0
H1101 H 0.80256 0.72313 0.18925 0.0
H1102 H 0.77692 0.7107 0.20076 0.0
H1103 H 0.73358 0.69808 0.16808 0.0
H1104 H 0.65817 0.67822 0.21271 0.0
H1105 H 0.68121 0.69144 0.19743 0.0
H1106 H 0.72609 0.70452 0.22539 0.0
C1107 C 0.77558 0.71648 0.18944 0.0
C1108 C 0.73189 0.69981 0.18054 0.0
C1109 C 0.79035 0.72354 0.18277 0.0
C1110 C 0.67166 0.67711 0.21656 0.0
C1111 C 0.68481 0.68462 0.20777 0.0
C1112 C 0.72761 0.70304 0.21287 0.0
C1113 C 0.7594 0.71669 0.1816 0.0
C1114 C 0.74378 0.70934 0.18914 0.0
C1115 C 0.70234 0.68393 0.21273 0.0
C1116 C 0.71613 0.69308 0.20439 0.0
H1117 H 0.77224 0.73645 0.14848 0.0
H1118 H 0.74612 0.72427 0.16037 0.0
H1119 H 0.74982 0.71876 0.21224 0.0
H1120 H 0.6972 0.6609 0.2454 0.0
H1121 H 0.72009 0.67418 0.23015 0.0
C1122 C 0.90255 0.04688 0.0381 0.0
C1123 C 0.90652 0.06345 0.03942 0.0
C1124 C 0.90761 0.03603 0.04978 0.0
C1125 C 0.94371 0.03078 0.07624 0.0
H1126 H 0.9188 0.99144 0.08743 0.0
C1127 C 0.9574 0.96198 0.10204 0.0
C1128 C 0.96966 0.95714 0.09069 0.0
C1129 C 0.94958 0.97733 0.10117 0.0
C1130 C 0.92585 0.00251 0.08475 0.0
H1131 H 0.91786 0.08186 0.05446 0.0
H1132 H 0.92707 0.06275 0.0748 0.0
H1133 H 0.90269 0.01427 0.07615 0.0
H1134 H 0.98434 0.96481 0.07031 0.0
H1135 H 0.97111 0.99167 0.06904 0.0
H1136 H 0.96705 0.01858 0.0838 0.0
C1137 C 0.91996 0.05822 0.06474 0.0
C1138 C 0.91665 0.01551 0.0782 0.0
C1139 C 0.91463 0.06914 0.05314 0.0
C1140 C 0.97488 0.96825 0.07917 0.0
C1141 C 0.96739 0.98365 0.07851 0.0
C1142 C 0.95292 0.01772 0.08263 0.0
C1143 C 0.91696 0.0415 0.06294 0.0
C1144 C 0.92562 0.02951 0.07331 0.0
C1145 C 0.95427 0.98817 0.08919 0.0
C1146 C 0.94418 0.00323 0.08634 0.0
H1147 H 0.89623 0.04217 0.0277 0.0
H1148 H 0.90526 0.02321 0.04797 0.0
H1149 H 0.951 0.04137 0.07249 0.0
H1150 H 0.95309 0.95357 0.11099 0.0
H1151 H 0.93947 0.98055 0.10952 0.0
C1152 C 0.30137 0.29535 0.16737 0.0
C1153 C 0.28364 0.29113 0.16563 0.0
C1154 C 0.31375 0.2837 0.17173 0.0
C1155 C 0.33605 0.26015 0.18985 0.0
H1156 H 0.3281 0.21461 0.1814 0.0
C1157 C 0.36967 0.21006 0.22563 0.0
C1158 C 0.37075 0.19427 0.21958 0.0
C1159 C 0.36207 0.22248 0.21683 0.0
C1160 C 0.33088 0.22727 0.18362 0.0
H1161 H 0.26484 0.27153 0.16712 0.0
H1162 H 0.28611 0.25139 0.17575 0.0
H1163 H 0.30899 0.23462 0.16979 0.0
H1164 H 0.36637 0.17939 0.19908 0.0
H1165 H 0.35429 0.20128 0.18326 0.0
H1166 H 0.35851 0.25285 0.20299 0.0
C1167 C 0.29077 0.26348 0.17311 0.0
C1168 C 0.31956 0.23882 0.1772 0.0
C1169 C 0.27847 0.27505 0.1683 0.0
C1170 C 0.36557 0.19145 0.20407 0.0
C1171 C 0.35839 0.20398 0.19509 0.0
C1172 C 0.34764 0.24863 0.19593 0.0
C1173 C 0.30862 0.26763 0.17491 0.0
C1174 C 0.32167 0.25541 0.18056 0.0
C1175 C 0.35574 0.2195 0.2016 0.0
C1176 C 0.34496 0.23196 0.19329 0.0
H1177 H 0.30573 0.30764 0.16515 0.0
H1178 H 0.32734 0.28738 0.17254 0.0
H1179 H 0.33815 0.27274 0.19291 0.0
H1180 H 0.37341 0.21255 0.23761 0.0
H1181 H 0.36017 0.23411 0.22244 0.0
C1182 C 0.36071 0.80741 0.29747 0.0
C1183 C 0.37243 0.80431 0.28514 0.0
C1184 C 0.35329 0.79462 0.3059 0.0
C1185 C 0.34095 0.7524 0.29919 0.0
H1186 H 0.32646 0.75377 0.34263 0.0
C1187 C 0.29927 0.70141 0.32633 0.0
C1188 C 0.28534 0.70619 0.33608 0.0
C1189 C 0.3119 0.71263 0.32154 0.0
C1190 C 0.33032 0.75327 0.33045 0.0
H1191 H 0.38681 0.78546 0.27295 0.0
H1192 H 0.37405 0.76315 0.28783 0.0
H1193 H 0.34632 0.77454 0.33253 0.0
H1194 H 0.27387 0.72652 0.34854 0.0
H1195 H 0.29575 0.74616 0.33991 0.0
H1196 H 0.32463 0.73147 0.29693 0.0
C1197 C 0.3703 0.77546 0.29074 0.0
C1198 C 0.34175 0.76513 0.32469 0.0
C1199 C 0.37772 0.78825 0.2823 0.0
C1200 C 0.28443 0.72243 0.34102 0.0
C1201 C 0.29705 0.73367 0.33618 0.0
C1202 C 0.32953 0.74058 0.30493 0.0
C1203 C 0.35746 0.77847 0.30219 0.0
C1204 C 0.34702 0.76494 0.30893 0.0
C1205 C 0.3109 0.72891 0.32632 0.0
C1206 C 0.32389 0.74098 0.32057 0.0
H1207 H 0.35639 0.81966 0.3 0.0
H1208 H 0.34341 0.79739 0.3146 0.0
H1209 H 0.34443 0.75207 0.28692 0.0
H1210 H 0.30048 0.68899 0.3224 0.0
H1211 H 0.32252 0.70849 0.31413 0.0
C1212 C 0.94741 0.44564 0.90275 0.0
C1213 C 0.95711 0.45876 0.8968 0.0
C1214 C 0.95599 0.43221 0.9092 0.0
C1215 C -0.00031 0.41261 0.91427 0.0
H1216 H 0.98424 0.40613 0.95702 0.0
C1217 C 0.03491 0.40385 0.9756 0.0
C1218 C 0.04658 0.39103 0.9727 0.0
C1219 C 0.02084 0.40673 0.96557 0.0
C1220 C 0.98856 0.40758 0.94503 0.0
H1221 H 0.98333 0.4675 0.89172 0.0
H1222 H 0.99825 0.44417 0.90291 0.0
H1223 H 0.96566 0.42109 0.93885 0.0
H1224 H 0.0523 0.37071 0.95746 0.0
H1225 H 0.02775 0.37604 0.93956 0.0
H1226 H 0.02316 0.40004 0.92083 0.0
C1227 C 0.98404 0.44417 0.90262 0.0
C1228 C 0.97787 0.41604 0.93457 0.0
C1229 C 0.97548 0.45763 0.89631 0.0
C1230 C 0.04343 0.38064 0.95997 0.0
C1231 C 0.02947 0.38372 0.94972 0.0
C1232 C 0.01035 0.40405 0.92472 0.0
C1233 C 0.97442 0.43159 0.90966 0.0
C1234 C 0.98368 0.41929 0.91929 0.0
C1235 C 0.01826 0.39701 0.95228 0.0
C1236 C 0.00523 0.40213 0.94039 0.0
H1237 H 0.93321 0.44613 0.90324 0.0
H1238 H 0.94824 0.42262 0.91442 0.0
H1239 H 0.00441 0.41476 0.90251 0.0
H1240 H 0.03698 0.41201 0.98536 0.0
H1241 H 0.01257 0.41718 0.96776 0.0
C1242 C 0.72273 0.78107 0.32669 0.0
C1243 C 0.71763 0.79727 0.32874 0.0
C1244 C 0.71032 0.76927 0.32271 0.0
C1245 C 0.68148 0.74439 0.3209 0.0
H1246 H 0.64116 0.75681 0.29605 0.0
C1247 C 0.63467 0.69533 0.29831 0.0
C1248 C 0.6287 0.6973 0.2829 0.0
C1249 C 0.6421 0.70838 0.3064 0.0
C1250 C 0.65241 0.75302 0.30286 0.0
H1251 H 0.69556 0.8138 0.32886 0.0
H1252 H 0.67376 0.79321 0.32294 0.0
H1253 H 0.66196 0.77728 0.30409 0.0
H1254 H 0.62485 0.71467 0.26419 0.0
H1255 H 0.63849 0.73706 0.27779 0.0
H1256 H 0.67285 0.71996 0.31842 0.0
C1257 C 0.68738 0.78956 0.32359 0.0
C1258 C 0.66428 0.7649 0.30777 0.0
C1259 C 0.69987 0.80141 0.32709 0.0
C1260 C 0.6292 0.7128 0.27612 0.0
C1261 C 0.63704 0.72572 0.28402 0.0
C1262 C 0.66989 0.73246 0.31561 0.0
C1263 C 0.69241 0.77331 0.32116 0.0
C1264 C 0.67915 0.76075 0.31669 0.0
C1265 C 0.64421 0.72358 0.29908 0.0
C1266 C 0.6553 0.73654 0.30629 0.0
H1267 H 0.73638 0.77759 0.32782 0.0
H1268 H 0.71491 0.75705 0.32059 0.0
H1269 H 0.69243 0.74066 0.32811 0.0
H1270 H 0.63433 0.68352 0.30386 0.0
H1271 H 0.64684 0.70632 0.31816 0.0
C1272 C 0.47018 0.59877 0.48091 0.0
C1273 C 0.45862 0.61142 0.4771 0.0
C1274 C 0.48453 0.59535 0.47137 0.0
C1275 C 0.51758 0.59404 0.45165 0.0
H1276 H 0.50295 0.58343 0.40942 0.0
C1277 C 0.56183 0.55615 0.4118 0.0
C1278 C 0.55325 0.54206 0.40656 0.0
C1279 C 0.55216 0.5693 0.4175 0.0
C1280 C 0.50731 0.58655 0.42109 0.0
H1281 H 0.45333 0.63086 0.4607 0.0
H1282 H 0.47835 0.62453 0.44365 0.0
H1283 H 0.48323 0.59873 0.42649 0.0
H1284 H 0.52785 0.53122 0.40196 0.0
H1285 H 0.51101 0.55413 0.41182 0.0
H1286 H 0.54119 0.58107 0.44664 0.0
C1287 C 0.47634 0.61744 0.45416 0.0
C1288 C 0.4961 0.59541 0.43082 0.0
C1289 C 0.46212 0.62109 0.46393 0.0
C1290 C 0.53484 0.54187 0.40599 0.0
C1291 C 0.52518 0.55506 0.41155 0.0
C1292 C 0.52884 0.58533 0.4419 0.0
C1293 C 0.48746 0.60433 0.45767 0.0
C1294 C 0.50085 0.59863 0.44639 0.0
C1295 C 0.53375 0.56866 0.41789 0.0
C1296 C 0.52353 0.58092 0.42674 0.0
H1297 H 0.46779 0.59116 0.49101 0.0
H1298 H 0.49275 0.58506 0.47427 0.0
H1299 H 0.52157 0.59644 0.46359 0.0
H1300 H 0.57602 0.5567 0.41231 0.0
H1301 H 0.5591 0.57969 0.42218 0.0
C1302 C 0.20299 0.69819 0.67937 0.0
C1303 C 0.21636 0.70223 0.66874 0.0
C1304 C 0.19032 0.70962 0.68361 0.0
C1305 C 0.17091 0.74923 0.67196 0.0
H1306 H 0.15819 0.75147 0.71579 0.0
C1307 C 0.14152 0.80572 0.70205 0.0
C1308 C 0.13021 0.80347 0.71485 0.0
C1309 C 0.1486 0.79237 0.69419 0.0
C1310 C 0.16128 0.75083 0.70344 0.0
H1311 H 0.2268 0.72147 0.65414 0.0
H1312 H 0.20494 0.74152 0.66184 0.0
H1313 H 0.17787 0.73025 0.70686 0.0
H1314 H 0.11608 0.78548 0.72843 0.0
H1315 H 0.12827 0.76221 0.71457 0.0
H1316 H 0.15471 0.77024 0.66874 0.0
C1317 C 0.20405 0.72941 0.66667 0.0
C1318 C 0.17263 0.73865 0.69832 0.0
C1319 C 0.21668 0.71795 0.66236 0.0
C1320 C 0.12486 0.78764 0.71869 0.0
C1321 C 0.13196 0.7743 0.71084 0.0
C1322 C 0.15959 0.76148 0.67712 0.0
C1323 C 0.19074 0.72541 0.6774 0.0
C1324 C 0.17778 0.73781 0.68255 0.0
C1325 C 0.1445 0.7765 0.69897 0.0
C1326 C 0.15482 0.76253 0.69296 0.0
H1327 H 0.20224 0.68616 0.6844 0.0
H1328 H 0.18012 0.70603 0.69172 0.0
H1329 H 0.17437 0.74877 0.65969 0.0
H1330 H 0.14586 0.81775 0.69875 0.0
H1331 H 0.15823 0.79451 0.68512 0.0
C1332 C 0.0317 0.59401 0.52282 0.0
C1333 C 0.04144 0.60809 0.52594 0.0
C1334 C 0.01723 0.59 0.532 0.0
C1335 C 0.00271 0.5926 0.57171 0.0
H1336 H 0.95989 0.57389 0.55512 0.0
C1337 C 0.93826 0.55201 0.59144 0.0
C1338 C 0.94721 0.53879 0.5981 0.0
C1339 C 0.9476 0.56497 0.58497 0.0
C1340 C 0.97159 0.57936 0.56002 0.0
H1341 H 0.04335 0.62936 0.54075 0.0
H1342 H 0.01816 0.62205 0.5572 0.0
H1343 H 0.97957 0.58877 0.53777 0.0
H1344 H 0.97283 0.52943 0.60444 0.0
H1345 H 0.9891 0.55211 0.59332 0.0
H1346 H 0.99525 0.5823 0.59376 0.0
C1347 C 0.02168 0.61427 0.54748 0.0
C1348 C 0.98289 0.58778 0.55006 0.0
C1349 C 0.036 0.61847 0.53805 0.0
C1350 C 0.96558 0.5394 0.59931 0.0
C1351 C 0.97489 0.55245 0.59303 0.0
C1352 C 0.99151 0.58399 0.58164 0.0
C1353 C 0.01237 0.59985 0.54467 0.0
C1354 C 0.99881 0.59402 0.55571 0.0
C1355 C 0.96603 0.56505 0.58527 0.0
C1356 C 0.97611 0.57686 0.57577 0.0
H1357 H 0.03559 0.58581 0.51353 0.0
H1358 H 0.01039 0.57873 0.52968 0.0
H1359 H 0.01498 0.59721 0.57633 0.0
H1360 H 0.9241 0.5519 0.59037 0.0
H1361 H 0.94046 0.5746 0.57916 0.0
C1362 C 0.96979 0.90629 0.51644 0.0
C1363 C 0.96018 0.89225 0.52 0.0
C1364 C 0.98412 0.91081 0.52559 0.0
C1365 C 0.99787 0.91003 0.56558 0.0
H1366 H 0.04071 0.92877 0.54909 0.0
C1367 C 0.06123 0.95193 0.58551 0.0
C1368 C 0.05199 0.96526 0.59162 0.0
C1369 C 0.05219 0.93878 0.57904 0.0
C1370 C 0.02899 0.92331 0.55396 0.0
H1371 H 0.95836 0.87155 0.53555 0.0
H1372 H 0.98327 0.87978 0.55195 0.0
H1373 H 0.02167 0.9129 0.53193 0.0
H1374 H 0.02611 0.97473 0.59685 0.0
H1375 H 0.01036 0.9517 0.58576 0.0
H1376 H 0.00465 0.92132 0.58735 0.0
C1377 C 0.97979 0.88711 0.54191 0.0
C1378 C 0.01807 0.91432 0.54412 0.0
C1379 C 0.96563 0.88239 0.5325 0.0
C1380 C 0.03359 0.96466 0.59217 0.0
C1381 C 0.02457 0.95143 0.5859 0.0
C1382 C 0.00868 0.91922 0.57538 0.0
C1383 C 0.98893 0.90153 0.53868 0.0
C1384 C 0.00215 0.90803 0.54971 0.0
C1385 C 0.03376 0.93862 0.5788 0.0
C1386 C 0.02408 0.92636 0.56952 0.0
H1387 H 0.96588 0.91408 0.50684 0.0
H1388 H 0.99082 0.92206 0.52294 0.0
H1389 H 0.98559 0.90541 0.57015 0.0
H1390 H 0.07543 0.95204 0.58494 0.0
H1391 H 0.05958 0.92902 0.57372 0.0
C1392 C 0.72278 0.84537 0.70999 0.0
C1393 C 0.72013 0.84063 0.69437 0.0
C1394 C 0.7112 0.84026 0.72171 0.0
C1395 C 0.68351 0.80547 0.72977 0.0
H1396 H 0.66872 0.8296 0.76636 0.0
C1397 C 0.65004 0.77216 0.78017 0.0
C1398 C 0.65588 0.77625 0.79523 0.0
C1399 C 0.65368 0.78228 0.76747 0.0
C1400 C 0.67283 0.82265 0.75626 0.0
H1401 H 0.70249 0.82794 0.67862 0.0
H1402 H 0.6824 0.81906 0.69903 0.0
H1403 H 0.68314 0.84376 0.74476 0.0
H1404 H 0.66924 0.79457 0.80897 0.0
H1405 H 0.67623 0.81188 0.78683 0.0
H1406 H 0.67428 0.78426 0.74136 0.0
C1407 C 0.69353 0.82653 0.70225 0.0
C1408 C 0.68102 0.8308 0.74387 0.0
C1409 C 0.70503 0.83167 0.69056 0.0
C1410 C 0.66454 0.7911 0.79749 0.0
C1411 C 0.66847 0.80109 0.78476 0.0
C1412 C 0.67555 0.79732 0.74216 0.0
C1413 C 0.69683 0.83027 0.718 0.0
C1414 C 0.68661 0.82223 0.73058 0.0
C1415 C 0.66358 0.79656 0.76949 0.0
C1416 C 0.67029 0.80573 0.75569 0.0
H1417 H 0.73427 0.8523 0.7133 0.0
H1418 H 0.71412 0.84328 0.73376 0.0
H1419 H 0.68797 0.79846 0.71981 0.0
H1420 H 0.64314 0.76087 0.7781 0.0
H1421 H 0.64924 0.77861 0.75598 0.0
C1422 C 0.03779 0.08581 0.45068 0.0
C1423 C 0.02032 0.08905 0.45491 0.0
C1424 C 0.05028 0.08212 0.46213 0.0
C1425 C 0.0598 0.08278 0.50449 0.0
H1426 H 0.07874 0.03965 0.49781 0.0
C1427 C 0.09841 0.04652 0.55181 0.0
C1428 C 0.08917 0.03231 0.55563 0.0
C1429 C 0.09419 0.0552 0.53822 0.0
C1430 C 0.07382 0.05183 0.49971 0.0
H1431 H 0.00253 0.09225 0.47444 0.0
H1432 H 0.0244 0.08612 0.49443 0.0
H1433 H 0.06362 0.05356 0.47645 0.0
H1434 H 0.069 0.01556 0.54798 0.0
H1435 H 0.0621 0.03036 0.52405 0.0
H1436 H 0.06943 0.08069 0.52799 0.0
C1437 C 0.02843 0.08632 0.48229 0.0
C1438 C 0.06525 0.05981 0.4875 0.0
C1439 C 0.01588 0.08973 0.47084 0.0
C1440 C 0.07628 0.0265 0.54532 0.0
C1441 C 0.0724 0.03491 0.5316 0.0
C1442 C 0.06865 0.07489 0.51664 0.0
C1443 C 0.04557 0.08191 0.47802 0.0
C1444 C 0.05762 0.07512 0.48994 0.0
C1445 C 0.08105 0.04949 0.52809 0.0
C1446 C 0.07517 0.05912 0.51449 0.0
H1447 H 0.04159 0.08518 0.43849 0.0
H1448 H 0.06343 0.07882 0.45856 0.0
H1449 H 0.05405 0.09459 0.50665 0.0
H1450 H 0.10833 0.05128 0.55964 0.0
H1451 H 0.10098 0.06645 0.53573 0.0
C1452 C 0.35484 0.72156 0.78166 0.0
C1453 C 0.35226 0.71757 0.79746 0.0
C1454 C 0.35105 0.71031 0.7699 0.0
C1455 C 0.34521 0.68251 0.74683 0.0
H1456 H 0.29774 0.66676 0.75258 0.0
C1457 C 0.29912 0.66881 0.69542 0.0
C1458 C 0.28521 0.65781 0.69732 0.0
C1459 C 0.31068 0.67195 0.70773 0.0
C1460 C 0.31117 0.67061 0.75082 0.0
H1461 H 0.34508 0.6982 0.8134 0.0
H1462 H 0.33834 0.6786 0.79284 0.0
H1463 H 0.31294 0.6795 0.77425 0.0
H1464 H 0.27334 0.6405 0.71319 0.0
H1465 H 0.29386 0.64558 0.73454 0.0
H1466 H 0.34329 0.67394 0.72326 0.0
C1467 C 0.34319 0.69047 0.78956 0.0
C1468 C 0.31989 0.67798 0.7633 0.0
C1469 C 0.34714 0.70168 0.80133 0.0
C1470 C 0.28382 0.64919 0.71143 0.0
C1471 C 0.29552 0.65219 0.72371 0.0
C1472 C 0.33655 0.67496 0.73436 0.0
C1473 C 0.34448 0.69488 0.77372 0.0
C1474 C 0.33679 0.68446 0.76131 0.0
C1475 C 0.30874 0.66403 0.72221 0.0
C1476 C 0.31917 0.66941 0.73604 0.0
H1477 H 0.35884 0.73368 0.7783 0.0
H1478 H 0.3521 0.71411 0.75782 0.0
H1479 H 0.35831 0.68724 0.74501 0.0
H1480 H 0.30057 0.67566 0.68469 0.0
H1481 H 0.3205 0.68129 0.70613 0.0
C1482 C 0.96332 0.41994 0.45266 0.0
C1483 C 0.97983 0.41259 0.45432 0.0
C1484 C 0.95332 0.42379 0.46587 0.0
C1485 C 0.96126 0.43273 0.50756 0.0
H1486 H 0.91099 0.43984 0.50836 0.0
C1487 C 0.90586 0.45862 0.55343 0.0
C1488 C 0.9159 0.47142 0.55962 0.0
C1489 C 0.91193 0.44985 0.54046 0.0
C1490 C 0.92501 0.43776 0.5084 0.0
H1491 H 0.99802 0.40188 0.47079 0.0
H1492 H 0.9802 0.40766 0.49375 0.0
H1493 H 0.92416 0.42506 0.48653 0.0
H1494 H 0.93945 0.4858 0.55645 0.0
H1495 H 0.94965 0.47101 0.5337 0.0
H1496 H 0.96219 0.44505 0.52946 0.0
C1497 C 0.97527 0.41124 0.48239 0.0
C1498 C 0.9326 0.42942 0.49581 0.0
C1499 C 0.98544 0.40777 0.46923 0.0
C1500 C 0.93156 0.47582 0.55212 0.0
C1501 C 0.93748 0.46725 0.53913 0.0
C1502 C 0.9537 0.44087 0.52013 0.0
C1503 C 0.95953 0.42007 0.48097 0.0
C1504 C 0.9509 0.42707 0.49509 0.0
C1505 C 0.92805 0.45384 0.53341 0.0
C1506 C 0.93556 0.44388 0.52054 0.0
H1507 H 0.95873 0.42384 0.44127 0.0
H1508 H 0.94135 0.43064 0.46425 0.0
H1509 H 0.9754 0.43147 0.50742 0.0
H1510 H 0.89373 0.45495 0.559 0.0
H1511 H 0.90435 0.4396 0.53634 0.0
C1512 C 0.65874 0.20988 0.70524 0.0
C1513 C 0.65204 0.22564 0.70692 0.0
C1514 C 0.66153 0.20012 0.71839 0.0
C1515 C 0.6695 0.20561 0.76075 0.0
H1516 H 0.67356 0.15872 0.76027 0.0
C1517 C 0.69774 0.17226 0.81343 0.0
C1518 C 0.71236 0.1626 0.80972 0.0
C1519 C 0.68615 0.17727 0.80175 0.0
C1520 C 0.67239 0.17181 0.76057 0.0
H1521 H 0.6413 0.24298 0.72334 0.0
H1522 H 0.64512 0.22567 0.74616 0.0
H1523 H 0.65982 0.17268 0.73818 0.0
H1524 H 0.72543 0.1495 0.79106 0.0
H1525 H 0.70512 0.15828 0.77063 0.0
H1526 H 0.68217 0.20477 0.78301 0.0
C1527 C 0.64909 0.22105 0.73485 0.0
C1528 C 0.6646 0.17984 0.7479 0.0
C1529 C 0.64671 0.23094 0.72176 0.0
C1530 C 0.71434 0.157 0.79429 0.0
C1531 C 0.70266 0.16197 0.78259 0.0
C1532 C 0.677 0.19759 0.77345 0.0
C1533 C 0.65735 0.20583 0.73346 0.0
C1534 C 0.6634 0.1969 0.74767 0.0
C1535 C 0.68886 0.17267 0.78612 0.0
C1536 C 0.67885 0.18065 0.77338 0.0
H1537 H 0.66303 0.20552 0.69392 0.0
H1538 H 0.66802 0.18856 0.71677 0.0
H1539 H 0.6693 0.21873 0.76096 0.0
H1540 H 0.69573 0.17667 0.82523 0.0
H1541 H 0.67548 0.18535 0.80483 0.0
C1542 C 0.42447 0.02433 0.45008 0.0
C1543 C 0.40863 0.0276 0.44232 0.0
C1544 C 0.42991 0.03393 0.46257 0.0
C1545 C 0.41587 0.06416 0.49188 0.0
H1546 H 0.46585 0.07285 0.49248 0.0
C1547 C 0.47507 0.09693 0.53052 0.0
C1548 C 0.46984 0.09179 0.54544 0.0
C1549 C 0.46492 0.09318 0.51741 0.0
C1550 C 0.4518 0.07094 0.49242 0.0
H1551 H 0.38566 0.04311 0.44199 0.0
H1552 H 0.39539 0.06021 0.46381 0.0
H1553 H 0.4533 0.05801 0.47087 0.0
H1554 H 0.44927 0.0798 0.55855 0.0
H1555 H 0.43196 0.07257 0.53568 0.0
H1556 H 0.41444 0.07736 0.51345 0.0
C1557 C 0.40351 0.05008 0.46025 0.0
C1558 C 0.44463 0.0621 0.4801 0.0
C1559 C 0.39794 0.04031 0.44777 0.0
C1560 C 0.45361 0.08393 0.54716 0.0
C1561 C 0.44363 0.07984 0.53401 0.0
C1562 C 0.42305 0.07319 0.50422 0.0
C1563 C 0.41978 0.04721 0.46753 0.0
C1564 C 0.4267 0.05816 0.4799 0.0
C1565 C 0.44956 0.0838 0.51889 0.0
C1566 C 0.44121 0.07637 0.50483 0.0
H1567 H 0.43287 0.01446 0.44635 0.0
H1568 H 0.44224 0.03104 0.46822 0.0
H1569 H 0.40199 0.06138 0.49204 0.0
H1570 H 0.48742 0.10322 0.52889 0.0
H1571 H 0.46961 0.09695 0.50602 0.0
C1572 C 0.34154 0.29186 0.70549 0.0
C1573 C 0.34875 0.27625 0.7069 0.0
C1574 C 0.33853 0.30133 0.71879 0.0
C1575 C 0.33075 0.29481 0.76099 0.0
H1576 H 0.32486 0.34153 0.7613 0.0
C1577 C 0.30091 0.32613 0.81407 0.0
C1578 C 0.28603 0.3355 0.8105 0.0
C1579 C 0.31272 0.32171 0.80236 0.0
C1580 C 0.32654 0.32848 0.76138 0.0
H1581 H 0.36023 0.25899 0.72301 0.0
H1582 H 0.35599 0.27584 0.74611 0.0
H1583 H 0.33928 0.32845 0.73906 0.0
H1584 H 0.27266 0.34869 0.79207 0.0
H1585 H 0.29334 0.34092 0.77156 0.0
H1586 H 0.31789 0.29479 0.78316 0.0
C1587 C 0.3518 0.28052 0.73488 0.0
C1588 C 0.33472 0.32096 0.74862 0.0
C1589 C 0.35442 0.27091 0.72163 0.0
C1590 C 0.28396 0.34141 0.79518 0.0
C1591 C 0.29584 0.33702 0.78345 0.0
C1592 C 0.32284 0.30233 0.77377 0.0
C1593 C 0.34299 0.2955 0.73376 0.0
C1594 C 0.3366 0.30395 0.74811 0.0
C1595 C 0.30996 0.3266 0.78682 0.0
C1596 C 0.32033 0.31919 0.77399 0.0
H1597 H 0.33698 0.29627 0.69427 0.0
H1598 H 0.33163 0.31271 0.71737 0.0
H1599 H 0.33147 0.2817 0.76097 0.0
H1600 H 0.30301 0.32151 0.82579 0.0
H1601 H 0.32363 0.31387 0.80533 0.0
C1602 C 0.57116 0.4795 0.45376 0.0
C1603 C 0.58678 0.47521 0.44615 0.0
C1604 C 0.56539 0.47083 0.46676 0.0
C1605 C 0.54952 0.4443 0.48581 0.0
H1606 H 0.57958 0.42829 0.51895 0.0
C1607 C 0.5187 0.41039 0.53668 0.0
C1608 C 0.52445 0.41507 0.55159 0.0
C1609 C 0.52865 0.41412 0.52346 0.0
C1610 C 0.57099 0.43271 0.50981 0.0
H1611 H 0.60903 0.45883 0.44653 0.0
H1612 H 0.5987 0.44331 0.46917 0.0
H1613 H 0.59239 0.44334 0.49713 0.0
H1614 H 0.54563 0.42633 0.56454 0.0
H1615 H 0.56264 0.43355 0.54147 0.0
H1616 H 0.52804 0.43468 0.49867 0.0
C1617 C 0.59102 0.45356 0.46516 0.0
C1618 C 0.57837 0.4412 0.49722 0.0
C1619 C 0.59693 0.46242 0.4522 0.0
C1620 C 0.54092 0.42254 0.55316 0.0
C1621 C 0.5507 0.42662 0.53989 0.0
C1622 C 0.54217 0.43601 0.49839 0.0
C1623 C 0.57495 0.45745 0.47235 0.0
C1624 C 0.56764 0.44739 0.48524 0.0
C1625 C 0.54433 0.42305 0.52482 0.0
C1626 C 0.55273 0.43027 0.51069 0.0
H1627 H 0.56319 0.48946 0.44954 0.0
H1628 H 0.55325 0.47451 0.4723 0.0
H1629 H 0.54089 0.44853 0.47662 0.0
H1630 H 0.50614 0.40443 0.53518 0.0
H1631 H 0.5236 0.41064 0.51211 0.0
C1632 C 0.72611 0.72906 0.84224 0.0
C1633 C 0.71039 0.72517 0.8345 0.0
C1634 C 0.74188 0.72162 0.8378 0.0
C1635 C 0.75927 0.6857 0.81752 0.0
H1636 H 0.79729 0.71344 0.80368 0.0
C1637 C 0.80841 0.66533 0.7711 0.0
C1638 C 0.82602 0.67017 0.77227 0.0
C1639 C 0.79593 0.67121 0.78159 0.0
C1640 C 0.78697 0.70548 0.80778 0.0
H1641 H 0.69873 0.71008 0.81647 0.0
H1642 H 0.72599 0.69706 0.80896 0.0
H1643 H 0.77244 0.72522 0.81772 0.0
H1644 H 0.8444 0.68485 0.78557 0.0
H1645 H 0.82254 0.69506 0.80396 0.0
H1646 H 0.77344 0.66602 0.80725 0.0
C1647 C 0.72623 0.70585 0.81838 0.0
C1648 C 0.77277 0.71223 0.81584 0.0
C1649 C 0.71063 0.71343 0.8226 0.0
C1650 C 0.83091 0.68091 0.7843 0.0
C1651 C 0.8184 0.68681 0.79482 0.0
C1652 C 0.77346 0.67894 0.80956 0.0
C1653 C 0.74202 0.70993 0.82583 0.0
C1654 C 0.75852 0.70247 0.82027 0.0
C1655 C 0.80076 0.68205 0.79354 0.0
C1656 C 0.78716 0.68884 0.80411 0.0
H1657 H 0.72628 0.7381 0.85144 0.0
H1658 H 0.75394 0.72497 0.84368 0.0
H1659 H 0.74853 0.67789 0.82102 0.0
H1660 H 0.80417 0.65711 0.76196 0.0
H1661 H 0.78239 0.66754 0.78009 0.0
C1662 C 0.90857 0.94623 0.46153 0.0
C1663 C 0.91309 0.92977 0.46042 0.0
C1664 C 0.91385 0.95717 0.45 0.0
C1665 C 0.95095 0.96376 0.42535 0.0
H1666 H 0.92427 0.00082 0.41066 0.0
C1667 C 0.9624 0.03075 0.395 0.0
C1668 C 0.97313 0.03754 0.40666 0.0
C1669 C 0.95541 0.01516 0.39693 0.0
C1670 C 0.93183 0.99038 0.41437 0.0
H1671 H 0.9258 0.91162 0.44598 0.0
H1672 H 0.93549 0.93092 0.42598 0.0
H1673 H 0.90895 0.97768 0.4223 0.0
H1674 H 0.98595 0.0331 0.42887 0.0
H1675 H 0.97424 0.00576 0.43198 0.0
H1676 H 0.97391 0.977 0.41853 0.0
C1677 C 0.92769 0.93527 0.4357 0.0
C1678 C 0.92309 0.97722 0.42109 0.0
C1679 C 0.9221 0.92426 0.4471 0.0
C1680 C 0.97768 0.02814 0.41974 0.0
C1681 C 0.97106 0.01248 0.42146 0.0
C1682 C 0.9597 0.97703 0.41886 0.0
C1683 C 0.924 0.95189 0.43728 0.0
C1684 C 0.93262 0.96403 0.42711 0.0
C1685 C 0.95947 0.00603 0.41032 0.0
C1686 C 0.95025 0.99067 0.41379 0.0
H1687 H 0.90158 0.95079 0.47165 0.0
H1688 H 0.91097 0.96993 0.45159 0.0
H1689 H 0.95863 0.95382 0.43002 0.0
H1690 H 0.95862 0.03781 0.38486 0.0
H1691 H 0.94646 0.01042 0.38821 0.0
C1692 C 0.17304 0.81628 0.78021 0.0
C1693 C 0.17622 0.83029 0.77127 0.0
C1694 C 0.18647 0.80925 0.78902 0.0
C1695 C 0.21567 0.8001 0.81174 0.0
H1696 H 0.26087 0.79813 0.79109 0.0
C1697 C 0.27949 0.77475 0.84045 0.0
C1698 C 0.29092 0.76626 0.8305 0.0
C1699 C 0.26441 0.78219 0.83441 0.0
C1700 C 0.2483 0.79844 0.79698 0.0
H1701 H 0.19576 0.84836 0.76518 0.0
H1702 H 0.21908 0.83626 0.78077 0.0
H1703 H 0.23685 0.81245 0.77867 0.0
H1704 H 0.29486 0.75777 0.80674 0.0
H1705 H 0.2685 0.77031 0.79636 0.0
H1706 H 0.22717 0.78557 0.82986 0.0
C1707 C 0.20631 0.83048 0.78068 0.0
C1708 C 0.23458 0.80689 0.78996 0.0
C1709 C 0.19293 0.83746 0.7718 0.0
C1710 C 0.28646 0.76448 0.81466 0.0
C1711 C 0.2714 0.77174 0.80868 0.0
C1712 C 0.22945 0.79158 0.81878 0.0
C1713 C 0.20335 0.81611 0.78914 0.0
C1714 C 0.21807 0.80776 0.79719 0.0
C1715 C 0.26052 0.78114 0.81835 0.0
C1716 C 0.24586 0.79051 0.81136 0.0
H1717 H 0.16031 0.81045 0.78007 0.0
H1718 H 0.18378 0.79809 0.79527 0.0
H1719 H 0.20313 0.80067 0.81768 0.0
H1720 H 0.28262 0.77631 0.85272 0.0
H1721 H 0.25627 0.78935 0.84215 0.0
C1722 C 0.07737 0.57689 0.45251 0.0
C1723 C 0.08672 0.57087 0.46544 0.0
C1724 C 0.07129 0.56629 0.44092 0.0
C1725 C 0.04748 0.53832 0.4301 0.0
H1726 H 0.07357 0.502 0.41303 0.0
C1727 C 0.02011 0.47446 0.42099 0.0
C1728 C 0.02396 0.46617 0.40708 0.0
C1729 C 0.02706 0.48984 0.42375 0.0
C1730 C 0.06617 0.51225 0.41743 0.0
H1731 H 0.09824 0.54936 0.47579 0.0
H1732 H 0.08801 0.53097 0.45538 0.0
H1733 H 0.08931 0.5244 0.42561 0.0
H1734 H 0.03764 0.46755 0.38491 0.0
H1735 H 0.05043 0.49441 0.39005 0.0
H1736 H 0.02428 0.52558 0.42299 0.0
C1737 C 0.08525 0.54381 0.45425 0.0
C1738 C 0.07515 0.52498 0.42469 0.0
C1739 C 0.09102 0.55432 0.46597 0.0
C1740 C 0.03439 0.47377 0.39569 0.0
C1741 C 0.04174 0.48905 0.39863 0.0
C1742 C 0.03849 0.52546 0.42309 0.0
C1743 C 0.07481 0.5496 0.44191 0.0
C1744 C 0.06584 0.53789 0.43149 0.0
C1745 C 0.03831 0.49708 0.4128 0.0
C1746 C 0.04774 0.5121 0.41712 0.0
H1747 H 0.07382 0.58959 0.45183 0.0
H1748 H 0.06328 0.57104 0.4315 0.0
H1749 H 0.03998 0.54805 0.43537 0.0
H1750 H 0.01208 0.46885 0.42994 0.0
H1751 H 0.02437 0.49571 0.43483 0.0
C1752 C 0.81043 0.33122 0.72396 0.0
C1753 C 0.82759 0.32534 0.72593 0.0
C1754 C 0.79896 0.32373 0.71345 0.0
C1755 C 0.7904 0.28435 0.69569 0.0
H1756 H 0.75722 0.30858 0.67043 0.0
C1757 C 0.72558 0.27367 0.65361 0.0
C1758 C 0.71535 0.26488 0.66433 0.0
C1759 C 0.74204 0.27966 0.65805 0.0
C1760 C 0.76661 0.30163 0.67718 0.0
H1761 H 0.84629 0.30719 0.7181 0.0
H1762 H 0.8262 0.29408 0.69988 0.0
H1763 H 0.7808 0.32291 0.68402 0.0
H1764 H 0.71473 0.25444 0.68759 0.0
H1765 H 0.74344 0.2646 0.6952 0.0
H1766 H 0.7758 0.26315 0.68934 0.0
C1767 C 0.82164 0.30446 0.7065 0.0
C1768 C 0.77996 0.30984 0.68509 0.0
C1769 C 0.83313 0.31201 0.71693 0.0
C1770 C 0.7223 0.26127 0.67913 0.0
C1771 C 0.73879 0.26699 0.68345 0.0
C1772 C 0.77697 0.27616 0.68788 0.0
C1773 C 0.80439 0.31014 0.70476 0.0
C1774 C 0.7917 0.30133 0.69475 0.0
C1775 C 0.74861 0.27663 0.67314 0.0
C1776 C 0.76467 0.28477 0.6789 0.0
H1777 H 0.80576 0.34149 0.73067 0.0
H1778 H 0.78566 0.32825 0.7125 0.0
H1779 H 0.7992 0.27748 0.7031 0.0
H1780 H 0.72048 0.27666 0.64214 0.0
H1781 H 0.74941 0.28703 0.64988 0.0
C1782 C 0.57445 0.92642 0.54497 0.0
C1783 C 0.58584 0.92936 0.53239 0.0
C1784 C 0.56859 0.93928 0.55431 0.0
C1785 C 0.56191 0.9833 0.55002 0.0
H1786 H 0.54492 0.98061 0.59267 0.0
C1787 C 0.52885 0.02908 0.59799 0.0
C1788 C 0.51808 0.03762 0.5875 0.0
C1789 C 0.53741 0.01487 0.59316 0.0
C1790 C 0.54973 0.98158 0.5808 0.0
H1791 H 0.60158 0.94755 0.52071 0.0
H1792 H 0.59224 0.96978 0.53749 0.0
H1793 H 0.562 0.95817 0.58169 0.0
H1794 H 0.50648 0.03735 0.56438 0.0
H1795 H 0.52067 0.01238 0.55621 0.0
H1796 H 0.55014 0.0067 0.54911 0.0
C1797 C 0.58709 0.95777 0.53975 0.0
C1798 C 0.5594 0.96868 0.57446 0.0
C1799 C 0.59259 0.94502 0.53021 0.0
C1800 C 0.51495 0.03113 0.5726 0.0
C1801 C 0.52321 0.01689 0.56789 0.0
C1802 C 0.55244 0.99614 0.55636 0.0
C1803 C 0.57429 0.95523 0.55137 0.0
C1804 C 0.56545 0.96933 0.55891 0.0
C1805 C 0.53512 0.00895 0.57785 0.0
C1806 C 0.54591 0.99535 0.5717 0.0
H1807 H 0.569 0.91444 0.54685 0.0
H1808 H 0.55872 0.93683 0.56309 0.0
H1809 H 0.56599 0.98421 0.53793 0.0
H1810 H 0.5315 0.03388 0.60954 0.0
H1811 H 0.54648 0.00903 0.60112 0.0
C1812 C 0.2793 0.23813 0.68392 0.0
C1813 C 0.2844 0.2357 0.66833 0.0
C1814 C 0.2638 0.23142 0.68956 0.0
C1815 C 0.22202 0.21156 0.67892 0.0
H1816 H 0.22859 0.19112 0.71937 0.0
C1817 C 0.18487 0.16604 0.7258 0.0
C1818 C 0.16819 0.17326 0.72626 0.0
C1819 C 0.19828 0.1729 0.71689 0.0
C1820 C 0.22655 0.19656 0.70798 0.0
H1821 H 0.27676 0.22523 0.6461 0.0
H1822 H 0.2496 0.21312 0.65609 0.0
H1823 H 0.25283 0.20536 0.70725 0.0
H1824 H 0.15233 0.19302 0.71721 0.0
H1825 H 0.17588 0.20519 0.70194 0.0
H1826 H 0.19568 0.20242 0.67966 0.0
C1827 C 0.25759 0.22037 0.6639 0.0
C1828 C 0.24039 0.20497 0.70113 0.0
C1829 C 0.27311 0.22728 0.65818 0.0
C1830 C 0.16504 0.18716 0.71714 0.0
C1831 C 0.17851 0.19409 0.70829 0.0
C1832 C 0.20809 0.20308 0.6858 0.0
C1833 C 0.25312 0.22192 0.67979 0.0
C1834 C 0.23825 0.21273 0.68663 0.0
C1835 C 0.19538 0.18721 0.70833 0.0
C1836 C 0.21021 0.19556 0.70046 0.0
H1837 H 0.2876 0.24482 0.69194 0.0
H1838 H 0.26045 0.23324 0.70174 0.0
H1839 H 0.21999 0.21742 0.66773 0.0
H1840 H 0.18767 0.15521 0.73254 0.0
H1841 H 0.21105 0.16712 0.71692 0.0
C1842 C 0.46877 0.47507 0.61045 0.0
C1843 C 0.4798 0.46777 0.59932 0.0
C1844 C 0.4612 0.49022 0.6074 0.0
C1845 C 0.43691 0.51273 0.58771 0.0
H1846 H 0.46269 0.54935 0.57088 0.0
C1847 C 0.41332 0.55376 0.53794 0.0
C1848 C 0.41663 0.57049 0.53876 0.0
C1849 C 0.41895 0.54346 0.54988 0.0
C1850 C 0.45529 0.53939 0.57585 0.0
H1851 H 0.49252 0.47088 0.57688 0.0
H1852 H 0.47983 0.49754 0.57182 0.0
H1853 H 0.47853 0.52741 0.58399 0.0
H1854 H 0.42768 0.5897 0.55302 0.0
H1855 H 0.43804 0.57152 0.57374 0.0
H1856 H 0.41381 0.52409 0.57845 0.0
C1857 C 0.47686 0.49152 0.58277 0.0
C1858 C 0.46435 0.52684 0.58327 0.0
C1859 C 0.48403 0.47626 0.58561 0.0
C1860 C 0.42491 0.57684 0.55211 0.0
C1861 C 0.43088 0.56648 0.56393 0.0
C1862 C 0.42787 0.52515 0.58003 0.0
C1863 C 0.465 0.49843 0.59341 0.0
C1864 C 0.45528 0.51319 0.58883 0.0
C1865 C 0.42827 0.54966 0.56273 0.0
C1866 C 0.43706 0.53833 0.57361 0.0
H1867 H 0.46523 0.46867 0.62105 0.0
H1868 H 0.45202 0.49533 0.61572 0.0
H1869 H 0.42966 0.50224 0.59178 0.0
H1870 H 0.40691 0.54855 0.5278 0.0
H1871 H 0.41693 0.53052 0.54859 0.0
C1872 C 0.86649 0.69623 0.70031 0.0
C1873 C 0.8717 0.69855 0.71588 0.0
C1874 C 0.85974 0.70916 0.69159 0.0
C1875 C 0.85002 0.75406 0.6937 0.0
H1876 H 0.81176 0.74168 0.66638 0.0
C1877 C 0.80431 0.80259 0.66712 0.0
C1878 C 0.78667 0.79844 0.6647 0.0
C1879 C 0.81663 0.7907 0.67101 0.0
C1880 C 0.82221 0.74544 0.67415 0.0
H1881 H 0.87478 0.7163 0.73435 0.0
H1882 H 0.86219 0.73851 0.71968 0.0
H1883 H 0.83027 0.72097 0.67749 0.0
H1884 H 0.76793 0.77874 0.66458 0.0
H1885 H 0.78898 0.75815 0.67248 0.0
H1886 H 0.84089 0.77838 0.69159 0.0
C1887 C 0.8638 0.72701 0.71377 0.0
C1888 C 0.83322 0.73347 0.68028 0.0
C1889 C 0.87102 0.71419 0.72229 0.0
C1890 C 0.78151 0.78221 0.66628 0.0
C1891 C 0.7937 0.77038 0.67066 0.0
C1892 C 0.83868 0.76598 0.68795 0.0
C1893 C 0.8575 0.72458 0.69845 0.0
C1894 C 0.84714 0.73755 0.69038 0.0
C1895 C 0.81149 0.77442 0.67309 0.0
C1896 C 0.8244 0.76184 0.67828 0.0
H1897 H 0.86699 0.68428 0.69505 0.0
H1898 H 0.85568 0.70685 0.67967 0.0
H1899 H 0.86082 0.75786 0.70106 0.0
H1900 H 0.80865 0.81502 0.66576 0.0
H1901 H 0.83018 0.79435 0.67233 0.0
C1902 C 0.85789 0.30536 0.79998 0.0
C1903 C 0.86932 0.30252 0.78737 0.0
C1904 C 0.85076 0.2924 0.80837 0.0
C1905 C 0.83803 0.25051 0.80098 0.0
H1906 H 0.82513 0.25046 0.84483 0.0
C1907 C 0.7963 0.19907 0.82712 0.0
C1908 C 0.78298 0.20352 0.83765 0.0
C1909 C 0.80901 0.21028 0.82249 0.0
C1910 C 0.82852 0.25036 0.83253 0.0
H1911 H 0.8835 0.28394 0.77463 0.0
H1912 H 0.87116 0.26132 0.78939 0.0
H1913 H 0.84477 0.27148 0.83481 0.0
H1914 H 0.77272 0.22326 0.85171 0.0
H1915 H 0.79464 0.24297 0.84331 0.0
H1916 H 0.82138 0.22985 0.79847 0.0
C1917 C 0.86747 0.27357 0.79259 0.0
C1918 C 0.83984 0.26235 0.82682 0.0
C1919 C 0.87466 0.28654 0.78422 0.0
C1920 C 0.7828 0.21942 0.84358 0.0
C1921 C 0.79547 0.23069 0.83886 0.0
C1922 C 0.82667 0.23861 0.80665 0.0
C1923 C 0.85489 0.27633 0.80431 0.0
C1924 C 0.84456 0.26266 0.81093 0.0
C1925 C 0.80867 0.22629 0.82817 0.0
C1926 C 0.8216 0.23847 0.82245 0.0
H1927 H 0.85356 0.31754 0.80276 0.0
H1928 H 0.84107 0.29496 0.8173 0.0
H1929 H 0.84108 0.25059 0.78861 0.0
H1930 H 0.79697 0.18688 0.82244 0.0
H1931 H 0.81915 0.20637 0.81446 0.0
C1932 C 0.53217 0.87728 0.46497 0.0
C1933 C 0.53805 0.88745 0.47708 0.0
C1934 C 0.51772 0.8818 0.45583 0.0
C1935 C 0.49872 0.90433 0.43224 0.0
H1936 H 0.45624 0.92277 0.44974 0.0
C1937 C 0.46106 0.95809 0.40601 0.0
C1938 C 0.44268 0.9584 0.40714 0.0
C1939 C 0.47057 0.94509 0.41217 0.0
C1940 C 0.46785 0.91739 0.4446 0.0
H1941 H 0.53288 0.90966 0.48983 0.0
H1942 H 0.50741 0.91727 0.47422 0.0
H1943 H 0.47612 0.90738 0.46652 0.0
H1944 H 0.41978 0.94487 0.41471 0.0
H1945 H 0.43649 0.92229 0.42572 0.0
H1946 H 0.491 0.91525 0.41054 0.0
C1947 C 0.51401 0.90594 0.47166 0.0
C1948 C 0.47924 0.90867 0.45422 0.0
C1949 C 0.52863 0.90163 0.48053 0.0
C1950 C 0.43395 0.94501 0.41371 0.0
C1951 C 0.44348 0.9321 0.42005 0.0
C1952 C 0.48743 0.91326 0.42265 0.0
C1953 C 0.50871 0.89631 0.45897 0.0
C1954 C 0.49503 0.90248 0.44824 0.0
C1955 C 0.4619 0.93225 0.41972 0.0
C1956 C 0.47215 0.92028 0.42887 0.0
H1957 H 0.53929 0.86633 0.46203 0.0
H1958 H 0.51386 0.8742 0.44608 0.0
H1959 H 0.51089 0.89978 0.42738 0.0
H1960 H 0.46815 0.9682 0.40096 0.0
H1961 H 0.48477 0.94559 0.41187 0.0
C1962 C 0.21447 0.27745 0.84184 0.0
C1963 C 0.21482 0.29354 0.83642 0.0
C1964 C 0.20137 0.26674 0.83685 0.0
C1965 C 0.16969 0.26069 0.80466 0.0
H1966 H 0.15019 0.22804 0.83229 0.0
C1967 C 0.11973 0.21492 0.7814 0.0
C1968 C 0.12422 0.19869 0.78444 0.0
C1969 C 0.12748 0.2275 0.78994 0.0
C1970 C 0.15551 0.2371 0.82445 0.0
H1971 H 0.20137 0.31108 0.82175 0.0
H1972 H 0.17847 0.29253 0.81326 0.0
H1973 H 0.1708 0.24808 0.84262 0.0
H1974 H 0.13906 0.18287 0.79982 0.0
H1975 H 0.15256 0.20475 0.81464 0.0
H1976 H 0.15476 0.24958 0.78643 0.0
C1977 C 0.1885 0.28806 0.82114 0.0
C1978 C 0.16737 0.24854 0.83034 0.0
C1979 C 0.20163 0.29873 0.82606 0.0
C1980 C 0.13537 0.19525 0.79712 0.0
C1981 C 0.14309 0.20781 0.80567 0.0
C1982 C 0.15782 0.24932 0.7988 0.0
C1983 C 0.18827 0.2719 0.82637 0.0
C1984 C 0.1748 0.26033 0.82046 0.0
C1985 C 0.13982 0.22409 0.80173 0.0
C1986 C 0.15076 0.23724 0.80856 0.0
H1987 H 0.22443 0.27304 0.84982 0.0
H1988 H 0.20175 0.25431 0.84095 0.0
H1989 H 0.17535 0.2694 0.79664 0.0
H1990 H 0.11111 0.218 0.77177 0.0
H1991 H 0.12442 0.23992 0.78683 0.0
C1992 C 0.03551 0.03384 0.90806 0.0
C1993 C 0.05388 0.03425 0.90919 0.0
C1994 C 0.02538 0.0462 0.91462 0.0
C1995 C 0.00723 0.07718 0.92594 0.0
H1996 H 0.01734 0.0812 0.97025 0.0
C1997 C 0.96134 0.11118 0.96883 0.0
C1998 C 0.95525 0.10066 0.98057 0.0
C1999 C 0.97588 0.10692 0.95972 0.0
C2000 C 0.01453 0.08041 0.95785 0.0
H2001 H 0.07613 0.04835 0.91728 0.0
H2002 H 0.05833 0.06982 0.92908 0.0
H2003 H 0.03806 0.06709 0.95319 0.0
H2004 H 0.96015 0.07798 0.99263 0.0
H2005 H 0.9858 0.0708 0.97705 0.0
H2006 H 0.98333 0.08993 0.93077 0.0
C2007 C 0.05183 0.05997 0.92302 0.0
C2008 C 0.02641 0.07243 0.94808 0.0
C2009 C 0.06198 0.04773 0.91621 0.0
C2010 C 0.96454 0.08629 0.98363 0.0
C2011 C 0.97926 0.08223 0.97478 0.0
C2012 C 0.99548 0.08539 0.93568 0.0
C2013 C 0.03343 0.05908 0.92263 0.0
C2014 C 0.02258 0.07026 0.93213 0.0
C2015 C 0.98479 0.09228 0.96249 0.0
C2016 C 0.99876 0.08657 0.95181 0.0
H2017 H 0.02892 0.02362 0.90267 0.0
H2018 H 0.01122 0.04514 0.91426 0.0
H2019 H 0.00401 0.07569 0.91368 0.0
H2020 H 0.95434 0.12228 0.96618 0.0
H2021 H 0.97993 0.11485 0.95029 0.0
C2022 C 0.7011 0.20263 0.18141 0.0
C2023 C 0.71465 0.20641 0.17087 0.0
C2024 C 0.68869 0.2143 0.18562 0.0
C2025 C 0.66998 0.25399 0.17371 0.0
H2026 H 0.6572 0.25686 0.2175 0.0
C2027 C 0.64131 0.31115 0.20288 0.0
C2028 C 0.63017 0.30931 0.21586 0.0
C2029 C 0.64809 0.29756 0.19522 0.0
C2030 C 0.6603 0.25603 0.20516 0.0
H2031 H 0.72571 0.22549 0.15643 0.0
H2032 H 0.70424 0.24597 0.16405 0.0
H2033 H 0.67668 0.23536 0.20883 0.0
H2034 H 0.616 0.29182 0.22997 0.0
H2035 H 0.62764 0.2681 0.21644 0.0
H2036 H 0.65395 0.27504 0.17021 0.0
C2037 C 0.70305 0.23386 0.16885 0.0
C2038 C 0.67154 0.24371 0.20019 0.0
C2039 C 0.71545 0.22216 0.16459 0.0
C2040 C 0.62465 0.29365 0.22008 0.0
C2041 C 0.63145 0.28005 0.21242 0.0
C2042 C 0.65873 0.26636 0.17871 0.0
C2043 C 0.68954 0.23008 0.17945 0.0
C2044 C 0.67673 0.24266 0.18445 0.0
C2045 C 0.64386 0.28185 0.20037 0.0
C2046 C 0.65395 0.26765 0.19454 0.0
H2047 H 0.69998 0.19059 0.18638 0.0
H2048 H 0.67834 0.2109 0.19365 0.0
H2049 H 0.67348 0.25335 0.16146 0.0
H2050 H 0.64576 0.32305 0.19928 0.0
H2051 H 0.65763 0.29941 0.18601 0.0
C2052 C 0.52798 0.12294 0.03766 0.0
C2053 C 0.53366 0.11273 0.02551 0.0
C2054 C 0.51364 0.11849 0.04696 0.0
C2055 C 0.49542 0.09617 0.07098 0.0
H2056 H 0.45329 0.07607 0.05448 0.0
C2057 C 0.4614 0.04111 0.09821 0.0
C2058 C 0.44306 0.03975 0.09731 0.0
C2059 C 0.46994 0.05458 0.09188 0.0
C2060 C 0.46478 0.08192 0.05936 0.0
H2061 H 0.52816 0.09056 0.01281 0.0
H2062 H 0.50294 0.08303 0.02871 0.0
H2063 H 0.47207 0.092 0.0372 0.0
H2064 H 0.41919 0.05192 0.08999 0.0
H2065 H 0.43419 0.07536 0.07869 0.0
H2066 H 0.48871 0.08522 0.09292 0.0
C2067 C 0.50958 0.09437 0.03117 0.0
C2068 C 0.47556 0.09096 0.04944 0.0
C2069 C 0.52408 0.09862 0.02213 0.0
C2070 C 0.43335 0.0526 0.09082 0.0
C2071 C 0.44191 0.06599 0.08431 0.0
C2072 C 0.48474 0.08697 0.08087 0.0
C2073 C 0.50456 0.10398 0.04397 0.0
C2074 C 0.49128 0.09769 0.05504 0.0
C2075 C 0.46032 0.06688 0.08439 0.0
C2076 C 0.46963 0.0793 0.07502 0.0
H2077 H 0.53523 0.13384 0.04055 0.0
H2078 H 0.51 0.12609 0.05676 0.0
H2079 H 0.50753 0.10114 0.07557 0.0
H2080 H 0.46923 0.03144 0.1032 0.0
H2081 H 0.48415 0.05485 0.09199 0.0
C2082 C 0.53626 0.4674 0.09192 0.0
C2083 C 0.5546 0.46687 0.09062 0.0
C2084 C 0.52599 0.4547 0.08623 0.0
C2085 C 0.52657 0.42326 0.05616 0.0
H2086 H 0.4819 0.41225 0.07507 0.0
C2087 C 0.47162 0.38604 0.02463 0.0
C2088 C 0.45585 0.3949 0.02419 0.0
C2089 C 0.4854 0.39101 0.03443 0.0
C2090 C 0.49442 0.41505 0.06973 0.0
H2091 H 0.57665 0.45227 0.08292 0.0
H2092 H 0.55862 0.43 0.07292 0.0
H2093 H 0.50341 0.42773 0.09003 0.0
H2094 H 0.44199 0.41557 0.03393 0.0
H2095 H 0.46572 0.42396 0.05101 0.0
H2096 H 0.51717 0.41105 0.03563 0.0
C2097 C 0.55222 0.44033 0.07827 0.0
C2098 C 0.5067 0.42397 0.07825 0.0
C2099 C 0.56253 0.45304 0.08406 0.0
C2100 C 0.45399 0.40853 0.0339 0.0
C2101 C 0.46752 0.41327 0.04382 0.0
C2102 C 0.51429 0.41423 0.04766 0.0
C2103 C 0.53381 0.44115 0.07906 0.0
C2104 C 0.52258 0.4288 0.07132 0.0
C2105 C 0.48337 0.40464 0.04416 0.0
C2106 C 0.49782 0.41067 0.05416 0.0
H2107 H 0.52975 0.47786 0.09692 0.0
H2108 H 0.51186 0.45587 0.08682 0.0
H2109 H 0.53864 0.42684 0.05046 0.0
H2110 H 0.4734 0.37549 0.01726 0.0
H2111 H 0.49756 0.38422 0.03445 0.0
C2112 C 0.14608 0.28737 0.39056 0.0
C2113 C 0.15227 0.28557 0.37518 0.0
C2114 C 0.136 0.30092 0.39468 0.0
C2115 C 0.10594 0.32912 0.37542 0.0
H2116 H 0.10555 0.35205 0.415 0.0
C2117 C 0.06069 0.38347 0.38506 0.0
C2118 C 0.05166 0.38444 0.39935 0.0
C2119 C 0.07425 0.37232 0.38304 0.0
C2120 C 0.10543 0.34564 0.40395 0.0
H2121 H 0.15426 0.29719 0.3525 0.0
H2122 H 0.13709 0.32088 0.35975 0.0
H2123 H 0.12805 0.33144 0.41002 0.0
H2124 H 0.05006 0.37464 0.42286 0.0
H2125 H 0.07364 0.35489 0.41919 0.0
H2126 H 0.08328 0.34294 0.36936 0.0
C2127 C 0.13953 0.31167 0.36851 0.0
C2128 C 0.11833 0.33389 0.40109 0.0
C2129 C 0.14946 0.29814 0.36439 0.0
C2130 C 0.05674 0.37417 0.41169 0.0
C2131 C 0.07032 0.36294 0.40963 0.0
C2132 C 0.09311 0.34076 0.37827 0.0
C2133 C 0.13204 0.31287 0.38348 0.0
C2134 C 0.11877 0.3256 0.38673 0.0
C2135 C 0.07907 0.36177 0.39521 0.0
C2136 C 0.09274 0.34925 0.39251 0.0
H2137 H 0.14804 0.27785 0.39912 0.0
H2138 H 0.1304 0.3015 0.4063 0.0
H2139 H 0.1056 0.32263 0.36441 0.0
H2140 H 0.05728 0.3913 0.37536 0.0
H2141 H 0.08095 0.37196 0.37188 0.0
C2142 C 0.62215 0.70561 0.86855 0.0
C2143 C 0.62289 0.71272 0.85362 0.0
C2144 C 0.61069 0.69277 0.87155 0.0
C2145 C 0.58654 0.66003 0.85175 0.0
H2146 H 0.56089 0.65775 0.89083 0.0
C2147 C 0.53179 0.61292 0.86403 0.0
C2148 C 0.5303 0.60691 0.87935 0.0
C2149 C 0.54399 0.62504 0.86051 0.0
C2150 C 0.56816 0.65807 0.87995 0.0
H2151 H 0.61182 0.71214 0.83023 0.0
H2152 H 0.59169 0.68979 0.83556 0.0
H2153 H 0.57953 0.68108 0.88551 0.0
H2154 H 0.54118 0.60817 0.90277 0.0
H2155 H 0.56267 0.62905 0.89657 0.0
H2156 H 0.57513 0.63698 0.8462 0.0
C2157 C 0.60017 0.69405 0.84486 0.0
C2158 C 0.57879 0.67148 0.87689 0.0
C2159 C 0.6116 0.70694 0.84186 0.0
C2160 C 0.54189 0.61264 0.89087 0.0
C2161 C 0.55412 0.6247 0.88735 0.0
C2162 C 0.5759 0.64658 0.85483 0.0
C2163 C 0.59972 0.68672 0.8597 0.0
C2164 C 0.58812 0.67261 0.86277 0.0
C2165 C 0.55499 0.63136 0.87224 0.0
C2166 C 0.56662 0.64543 0.86898 0.0
H2167 H 0.63067 0.70973 0.87787 0.0
H2168 H 0.61077 0.6873 0.88307 0.0
H2169 H 0.59376 0.66043 0.84086 0.0
H2170 H 0.52301 0.60878 0.8549 0.0
H2171 H 0.54426 0.62996 0.84877 0.0
C2172 C 0.85117 0.2051 0.3704 0.0
C2173 C 0.8468 0.2182 0.38014 0.0
C2174 C 0.85963 0.19149 0.37647 0.0
C2175 C 0.88985 0.18054 0.40766 0.0
H2176 H 0.88234 0.13707 0.39168 0.0
C2177 C 0.93785 0.12757 0.42047 0.0
C2178 C 0.94276 0.11874 0.4071 0.0
C2179 C 0.92374 0.13844 0.41989 0.0
C2180 C 0.88458 0.14915 0.39627 0.0
H2181 H 0.84707 0.22699 0.40405 0.0
H2182 H 0.86198 0.20313 0.41469 0.0
H2183 H 0.861 0.15833 0.38595 0.0
H2184 H 0.93648 0.11422 0.3827 0.0
H2185 H 0.91215 0.13313 0.38169 0.0
H2186 H 0.91381 0.17152 0.41743 0.0
C2187 C 0.85892 0.20348 0.40232 0.0
C2188 C 0.87236 0.16129 0.39301 0.0
C2189 C 0.85031 0.21708 0.39625 0.0
C2190 C 0.93311 0.12082 0.39323 0.0
C2191 C 0.91901 0.13157 0.39268 0.0
C2192 C 0.9021 0.16838 0.41091 0.0
C2193 C 0.86398 0.19069 0.39243 0.0
C2194 C 0.87516 0.17724 0.39823 0.0
C2195 C 0.9142 0.14056 0.40596 0.0
C2196 C 0.89988 0.15269 0.4048 0.0
H2197 H 0.8486 0.20557 0.35794 0.0
H2198 H 0.86352 0.18194 0.3685 0.0
H2199 H 0.89246 0.19275 0.41174 0.0
H2200 H 0.945 0.12622 0.43135 0.0
H2201 H 0.92029 0.14517 0.43032 0.0
C2202 C 0.45459 0.88884 0.89015 0.0
C2203 C 0.46602 0.89576 0.87911 0.0
C2204 C 0.44227 0.87722 0.8856 0.0
C2205 C 0.43577 0.84606 0.85567 0.0
H2206 H 0.38924 0.84289 0.87369 0.0
C2207 C 0.387 0.7948 0.83929 0.0
C2208 C 0.3769 0.78828 0.85153 0.0
C2209 C 0.39741 0.80854 0.84177 0.0
C2210 C 0.40226 0.84352 0.86866 0.0
H2211 H 0.47286 0.8965 0.8545 0.0
H2212 H 0.45125 0.87623 0.84655 0.0
H2213 H 0.40735 0.86658 0.87927 0.0
H2214 H 0.3703 0.79081 0.87611 0.0
H2215 H 0.38867 0.81448 0.88046 0.0
H2216 H 0.43086 0.82285 0.84535 0.0
C2217 C 0.45199 0.87968 0.85875 0.0
C2218 C 0.4126 0.85712 0.87182 0.0
C2219 C 0.46427 0.89139 0.86329 0.0
C2220 C 0.37781 0.79556 0.86638 0.0
C2221 C 0.38824 0.80924 0.86885 0.0
C2222 C 0.42546 0.83242 0.85256 0.0
C2223 C 0.44115 0.8722 0.86992 0.0
C2224 C 0.42955 0.85846 0.86551 0.0
C2225 C 0.39799 0.81603 0.85654 0.0
C2226 C 0.40866 0.83089 0.85918 0.0
H2227 H 0.4556 0.89194 0.90243 0.0
H2228 H 0.4342 0.87161 0.89451 0.0
H2229 H 0.44888 0.84662 0.85082 0.0
H2230 H 0.38655 0.78953 0.8277 0.0
H2231 H 0.40468 0.81352 0.832 0.0
C2232 C 0.14982 0.71364 0.11057 0.0
C2233 C 0.15458 0.71564 0.12634 0.0
C2234 C 0.13927 0.70056 0.10603 0.0
C2235 C 0.10568 0.67445 0.12335 0.0
H2236 H 0.10813 0.65043 0.08442 0.0
C2237 C 0.05896 0.62172 0.11116 0.0
C2238 C 0.05134 0.62074 0.09622 0.0
C2239 C 0.07276 0.63239 0.11405 0.0
C2240 C 0.10722 0.65716 0.09527 0.0
H2241 H 0.15342 0.70478 0.14942 0.0
H2242 H 0.1354 0.68186 0.14144 0.0
H2243 H 0.13114 0.67012 0.09084 0.0
H2244 H 0.05252 0.63001 0.0725 0.0
H2245 H 0.07656 0.64893 0.07766 0.0
H2246 H 0.08175 0.66182 0.12777 0.0
C2247 C 0.13935 0.6906 0.13267 0.0
C2248 C 0.1204 0.66838 0.09896 0.0
C2249 C 0.14977 0.70368 0.13722 0.0
C2250 C 0.05808 0.6305 0.08415 0.0
C2251 C 0.07192 0.64126 0.08707 0.0
C2252 C 0.09257 0.66332 0.11968 0.0
C2253 C 0.13339 0.68925 0.11717 0.0
C2254 C 0.11981 0.67705 0.11311 0.0
C2255 C 0.07926 0.64244 0.10212 0.0
C2256 C 0.09322 0.65445 0.10566 0.0
H2257 H 0.15333 0.72267 0.10193 0.0
H2258 H 0.13488 0.69985 0.094 0.0
H2259 H 0.10455 0.68125 0.13414 0.0
H2260 H 0.05425 0.61427 0.1207 0.0
H2261 H 0.07835 0.63277 0.1257 0.0
C2262 C 0.87453 0.70969 0.12624 0.0
C2263 C 0.87438 0.71741 0.14089 0.0
C2264 C 0.88584 0.69669 0.12338 0.0
C2265 C 0.92571 0.67605 0.13841 0.0
H2266 H 0.90804 0.63996 0.1139 0.0
C2267 C 0.96505 0.61691 0.13117 0.0
C2268 C 0.96706 0.6116 0.11566 0.0
C2269 C 0.95273 0.62886 0.13487 0.0
C2270 C 0.91316 0.64998 0.12071 0.0
H2271 H 0.88624 0.71772 0.16395 0.0
H2272 H 0.90573 0.69487 0.15908 0.0
H2273 H 0.88915 0.66326 0.11896 0.0
H2274 H 0.95709 0.61402 0.092 0.0
H2275 H 0.93547 0.63476 0.09851 0.0
H2276 H 0.94968 0.66266 0.14024 0.0
C2277 C 0.89732 0.69901 0.14969 0.0
C2278 C 0.90239 0.66338 0.12355 0.0
C2279 C 0.8861 0.7121 0.1525 0.0
C2280 C 0.95587 0.61786 0.10407 0.0
C2281 C 0.94345 0.62971 0.10779 0.0
C2282 C 0.93642 0.6626 0.13568 0.0
C2283 C 0.89717 0.69101 0.13515 0.0
C2284 C 0.90857 0.67665 0.13233 0.0
C2285 C 0.94207 0.63563 0.12315 0.0
C2286 C 0.93029 0.64947 0.12672 0.0
H2287 H 0.86576 0.71355 0.11699 0.0
H2288 H 0.88565 0.69107 0.11194 0.0
H2289 H 0.93101 0.68613 0.14502 0.0
H2290 H 0.97347 0.61232 0.14037 0.0
H2291 H 0.95177 0.63305 0.14684 0.0
C2292 C 0.84384 0.78545 0.09771 0.0
C2293 C 0.84004 0.78729 0.1137 0.0
C2294 C 0.85328 0.79741 0.08974 0.0
C2295 C 0.88765 0.81602 0.08474 0.0
H2296 H 0.88213 0.86265 0.08849 0.0
C2297 C 0.94267 0.86276 0.09322 0.0
C2298 C 0.94423 0.87488 0.08177 0.0
C2299 C 0.9285 0.85208 0.09299 0.0
C2300 C 0.88365 0.84966 0.0871 0.0
H2301 H 0.84167 0.80364 0.1335 0.0
H2302 H 0.85778 0.82467 0.11948 0.0
H2303 H 0.8577 0.84465 0.09557 0.0
H2304 H 0.93233 0.88533 0.06106 0.0
H2305 H 0.90694 0.86686 0.06109 0.0
H2306 H 0.91405 0.82099 0.07753 0.0
C2307 C 0.85362 0.81395 0.11315 0.0
C2308 C 0.86977 0.83941 0.09119 0.0
C2309 C 0.84448 0.80188 0.1212 0.0
C2310 C 0.93146 0.876 0.06995 0.0
C2311 C 0.91698 0.86554 0.06997 0.0
C2312 C 0.90161 0.82625 0.08096 0.0
C2313 C 0.85872 0.81153 0.09755 0.0
C2314 C 0.87182 0.82249 0.09041 0.0
C2315 C 0.91543 0.85357 0.08154 0.0
C2316 C 0.89982 0.8431 0.08248 0.0
H2317 H 0.84061 0.77431 0.09164 0.0
H2318 H 0.85704 0.79531 0.07769 0.0
H2319 H 0.88964 0.80302 0.08423 0.0
H2320 H 0.95237 0.86162 0.10242 0.0
H2321 H 0.92744 0.84296 0.10207 0.0
C2322 C 0.02529 0.8812 0.13239 0.0
C2323 C 0.02482 0.88711 0.11698 0.0
C2324 C 0.03861 0.87063 0.13713 0.0
C2325 C 0.08238 0.85456 0.12621 0.0
H2326 H 0.06701 0.81634 0.14883 0.0
C2327 C 0.12558 0.7976 0.13166 0.0
C2328 C 0.12622 0.78984 0.14629 0.0
C2329 C 0.11344 0.80994 0.12883 0.0
C2330 C 0.07156 0.82703 0.14269 0.0
H2331 H 0.03841 0.88719 0.09469 0.0
H2332 H 0.06153 0.86873 0.10293 0.0
H2333 H 0.04608 0.83788 0.14308 0.0
H2334 H 0.11435 0.78879 0.16933 0.0
H2335 H 0.09318 0.81037 0.16437 0.0
H2336 H 0.10782 0.84359 0.12564 0.0
C2337 C 0.0517 0.87231 0.11139 0.0
C2338 C 0.05958 0.8394 0.13943 0.0
C2339 C 0.03839 0.88286 0.10665 0.0
C2340 C 0.11419 0.79448 0.15792 0.0
C2341 C 0.10202 0.80682 0.15507 0.0
C2342 C 0.09436 0.84218 0.12946 0.0
C2343 C 0.05174 0.86579 0.12658 0.0
C2344 C 0.06481 0.85324 0.13102 0.0
C2345 C 0.10164 0.8148 0.14055 0.0
C2346 C 0.08904 0.8282 0.1376 0.0
H2347 H 0.01505 0.88429 0.14065 0.0
H2348 H 0.03844 0.86601 0.14899 0.0
H2349 H 0.08688 0.86516 0.1199 0.0
H2350 H 0.13461 0.79431 0.12241 0.0
H2351 H 0.11327 0.81565 0.11742 0.0
C2352 C 0.40716 0.11857 0.27394 0.0
C2353 C 0.39759 0.11525 0.26027 0.0
C2354 C 0.41296 0.10585 0.28346 0.0
C2355 C 0.39765 0.06493 0.29265 0.0
H2356 H 0.43496 0.06625 0.32345 0.0
C2357 C 0.42132 0.02766 0.35136 0.0
C2358 C 0.40502 0.02695 0.35906 0.0
C2359 C 0.4232 0.0366 0.33754 0.0
C2360 C 0.42462 0.06556 0.31478 0.0
H2361 H 0.38863 0.09622 0.24473 0.0
H2362 H 0.3994 0.07406 0.26094 0.0
H2363 H 0.43556 0.08502 0.30129 0.0
H2364 H 0.37789 0.03491 0.35815 0.0
H2365 H 0.38119 0.05042 0.33418 0.0
H2366 H 0.38654 0.04575 0.30621 0.0
C2367 C 0.40181 0.08641 0.2647 0.0
C2368 C 0.42489 0.07639 0.30216 0.0
C2369 C 0.39575 0.0991 0.25534 0.0
C2370 C 0.39063 0.03518 0.35254 0.0
C2371 C 0.39248 0.04398 0.33873 0.0
C2372 C 0.3974 0.05416 0.3052 0.0
C2373 C 0.40949 0.08962 0.27933 0.0
C2374 C 0.41115 0.07649 0.29117 0.0
C2375 C 0.40878 0.04483 0.33109 0.0
C2376 C 0.41057 0.05469 0.31666 0.0
H2377 H 0.40872 0.13092 0.27803 0.0
H2378 H 0.41881 0.1088 0.29464 0.0
H2379 H 0.38669 0.06474 0.28459 0.0
H2380 H 0.43268 0.02148 0.35609 0.0
H2381 H 0.43589 0.03699 0.33186 0.0
C2382 C 0.39775 0.35353 0.95035 0.0
C2383 C 0.40512 0.34492 0.96291 0.0
C2384 C 0.38925 0.34536 0.93824 0.0
C2385 C 0.36591 0.30684 0.93124 0.0
H2386 H 0.35916 0.32664 0.8906 0.0
C2387 C 0.3016 0.30076 0.89739 0.0
C2388 C 0.30113 0.30361 0.88122 0.0
C2389 C 0.31746 0.30137 0.90554 0.0
C2390 C 0.36107 0.3206 0.90171 0.0
H2391 H 0.41055 0.32089 0.972 0.0
H2392 H 0.39617 0.30653 0.95054 0.0
H2393 H 0.38267 0.33606 0.90733 0.0
H2394 H 0.31707 0.30778 0.86063 0.0
H2395 H 0.3449 0.30809 0.87471 0.0
H2396 H 0.3445 0.29118 0.9255 0.0
C2397 C 0.39649 0.31966 0.95029 0.0
C2398 C 0.37445 0.32624 0.91147 0.0
C2399 C 0.40487 0.32788 0.96254 0.0
C2400 C 0.31701 0.30572 0.87314 0.0
C2401 C 0.33295 0.30605 0.88126 0.0
C2402 C 0.35273 0.30099 0.92136 0.0
C2403 C 0.38806 0.32832 0.93824 0.0
C2404 C 0.37652 0.31998 0.92665 0.0
C2405 C 0.33332 0.30458 0.89767 0.0
C2406 C 0.34959 0.30829 0.90675 0.0
H2407 H 0.39769 0.36667 0.95025 0.0
H2408 H 0.38275 0.35254 0.92937 0.0
H2409 H 0.36703 0.30166 0.94282 0.0
H2410 H 0.28958 0.29914 0.90396 0.0
H2411 H 0.31704 0.30037 0.91815 0.0
C2412 C 0.59134 0.38237 0.27072 0.0
C2413 C 0.60487 0.38757 0.26075 0.0
C2414 C 0.58398 0.3931 0.28156 0.0
C2415 C 0.58683 0.41272 0.31139 0.0
H2416 H 0.58116 0.45921 0.30648 0.0
C2417 C 0.60319 0.45747 0.36027 0.0
C2418 C 0.59151 0.47028 0.36329 0.0
C2419 C 0.60085 0.44751 0.34725 0.0
C2420 C 0.58245 0.44622 0.30802 0.0
H2421 H 0.61982 0.40849 0.25306 0.0
H2422 H 0.60705 0.4271 0.27189 0.0
H2423 H 0.582 0.44176 0.28331 0.0
H2424 H 0.56834 0.48282 0.35482 0.0
H2425 H 0.56446 0.46546 0.33183 0.0
H2426 H 0.58796 0.41721 0.33602 0.0
C2427 C 0.60213 0.41479 0.27145 0.0
C2428 C 0.58301 0.43625 0.29478 0.0
C2429 C 0.60956 0.40406 0.26071 0.0
C2430 C 0.57755 0.47303 0.35284 0.0
C2431 C 0.57533 0.46314 0.33967 0.0
C2432 C 0.58639 0.42268 0.32458 0.0
C2433 C 0.58991 0.40923 0.28252 0.0
C2434 C 0.58571 0.41945 0.29632 0.0
C2435 C 0.58688 0.45019 0.33686 0.0
C2436 C 0.58475 0.43956 0.323 0.0
H2437 H 0.58738 0.36975 0.27099 0.0
H2438 H 0.57437 0.38854 0.2898 0.0
H2439 H 0.58912 0.39987 0.31301 0.0
H2440 H 0.61407 0.45499 0.36806 0.0
H2441 H 0.61013 0.43778 0.34523 0.0
C2442 C 0.60266 0.14479 0.95815 0.0
C2443 C 0.59543 0.1545 0.97001 0.0
C2444 C 0.61155 0.15182 0.94561 0.0
C2445 C 0.63579 0.18925 0.93585 0.0
H2446 H 0.64113 0.16688 0.89629 0.0
C2447 C 0.69885 0.19312 0.89985 0.0
C2448 C 0.69857 0.18989 0.88374 0.0
C2449 C 0.68338 0.1927 0.90858 0.0
C2450 C 0.63961 0.17359 0.90709 0.0
H2451 H 0.59079 0.17927 0.97744 0.0
H2452 H 0.60584 0.19163 0.95523 0.0
H2453 H 0.61802 0.15874 0.91409 0.0
H2454 H 0.68169 0.18505 0.86387 0.0
H2455 H 0.65455 0.18495 0.87899 0.0
H2456 H 0.6572 0.20427 0.92874 0.0
C2457 C 0.6051 0.17853 0.95587 0.0
C2458 C 0.62647 0.1687 0.91746 0.0
C2459 C 0.59636 0.17145 0.96855 0.0
C2460 C 0.68234 0.18743 0.87632 0.0
C2461 C 0.6668 0.18724 0.88503 0.0
C2462 C 0.64875 0.19431 0.92537 0.0
C2463 C 0.61325 0.16879 0.94446 0.0
C2464 C 0.62486 0.176 0.93226 0.0
C2465 C 0.66719 0.18927 0.90137 0.0
C2466 C 0.65132 0.18611 0.91112 0.0
H2467 H 0.60221 0.13168 0.95891 0.0
H2468 H 0.61784 0.14385 0.93726 0.0
H2469 H 0.63504 0.19519 0.94712 0.0
H2470 H 0.71115 0.19502 0.90594 0.0
H2471 H 0.68437 0.19412 0.92113 0.0
C2472 C 0.41332 0.87775 0.23002 0.0
C2473 C 0.40396 0.88093 0.24382 0.0
C2474 C 0.41945 0.89058 0.2208 0.0
C2475 C 0.40501 0.93204 0.21283 0.0
H2476 H 0.44116 0.93037 0.18101 0.0
C2477 C 0.427 0.96911 0.15345 0.0
C2478 C 0.41043 0.96988 0.14622 0.0
C2479 C 0.42932 0.96026 0.16728 0.0
C2480 C 0.43117 0.93116 0.18998 0.0
H2481 H 0.39577 0.89972 0.25993 0.0
H2482 H 0.40717 0.92205 0.24428 0.0
H2483 H 0.44208 0.9113 0.20292 0.0
H2484 H 0.38328 0.96216 0.14799 0.0
H2485 H 0.38732 0.94684 0.17196 0.0
H2486 H 0.39388 0.9516 0.19978 0.0
C2487 C 0.40914 0.90975 0.24017 0.0
C2488 C 0.43161 0.92016 0.20246 0.0
C2489 C 0.40274 0.89697 0.24922 0.0
C2490 C 0.39622 0.96184 0.15323 0.0
C2491 C 0.3985 0.95314 0.16705 0.0
C2492 C 0.40458 0.94298 0.20042 0.0
C2493 C 0.41651 0.90677 0.22537 0.0
C2494 C 0.41823 0.92016 0.21379 0.0
C2495 C 0.41507 0.95219 0.17421 0.0
C2496 C 0.4173 0.94231 0.18858 0.0
H2497 H 0.41439 0.86549 0.22556 0.0
H2498 H 0.42505 0.88778 0.20949 0.0
H2499 H 0.39432 0.93234 0.22116 0.0
H2500 H 0.43823 0.97515 0.14833 0.0
H2501 H 0.44222 0.95977 0.17258 0.0
C2502 C 0.18171 0.31944 0.1316 0.0
C2503 C 0.19551 0.31009 0.12545 0.0
C2504 C 0.16626 0.32166 0.12307 0.0
C2505 C 0.14602 0.33619 0.096 0.0
H2506 H 0.1227 0.30468 0.06953 0.0
C2507 C 0.09918 0.35789 0.04815 0.0
C2508 C 0.10146 0.35047 0.03351 0.0
C2509 C 0.10613 0.35079 0.06165 0.0
C2510 C 0.12911 0.31365 0.07681 0.0
H2511 H 0.20327 0.29454 0.10619 0.0
H2512 H 0.17629 0.29841 0.09133 0.0
H2513 H 0.14345 0.29549 0.08946 0.0
H2514 H 0.11194 0.32937 0.02162 0.0
H2515 H 0.12462 0.31731 0.04495 0.0
H2516 H 0.13276 0.35443 0.08289 0.0
C2517 C 0.17742 0.30404 0.10273 0.0
C2518 C 0.14092 0.30836 0.08827 0.0
C2519 C 0.19292 0.30188 0.11122 0.0
C2520 C 0.10994 0.33537 0.03275 0.0
C2521 C 0.11714 0.3284 0.0462 0.0
C2522 C 0.1344 0.34149 0.08447 0.0
C2523 C 0.16425 0.3145 0.10827 0.0
C2524 C 0.14977 0.31961 0.09776 0.0
C2525 C 0.11581 0.33627 0.06076 0.0
C2526 C 0.12609 0.33033 0.07446 0.0
H2527 H 0.18322 0.32583 0.14259 0.0
H2528 H 0.15622 0.3296 0.12772 0.0
H2529 H 0.15284 0.3452 0.10294 0.0
H2530 H 0.09252 0.36945 0.04913 0.0
H2531 H 0.10444 0.35701 0.0727 0.0
C2532 C 0.5935 0.62025 0.22967 0.0
C2533 C 0.60352 0.61697 0.24309 0.0
C2534 C 0.58802 0.60756 0.21996 0.0
C2535 C 0.60448 0.56734 0.20945 0.0
H2536 H 0.56583 0.56804 0.17998 0.0
C2537 C 0.57911 0.53062 0.1509 0.0
C2538 C 0.59505 0.53036 0.1426 0.0
C2539 C 0.57772 0.53913 0.165 0.0
C2540 C 0.57656 0.56752 0.18827 0.0
H2541 H 0.61373 0.5979 0.25796 0.0
H2542 H 0.60359 0.57576 0.24139 0.0
H2543 H 0.56556 0.58642 0.20243 0.0
H2544 H 0.62209 0.53862 0.14278 0.0
H2545 H 0.61963 0.55344 0.16724 0.0
H2546 H 0.61562 0.54868 0.19523 0.0
C2547 C 0.60055 0.5881 0.23799 0.0
C2548 C 0.57647 0.57813 0.20105 0.0
C2549 C 0.60624 0.60077 0.24755 0.0
C2550 C 0.60962 0.53854 0.14885 0.0
C2551 C 0.60825 0.54695 0.16295 0.0
C2552 C 0.60454 0.55677 0.19673 0.0
C2553 C 0.59229 0.59139 0.22362 0.0
C2554 C 0.59066 0.57846 0.21157 0.0
C2555 C 0.59227 0.54743 0.17114 0.0
C2556 C 0.59086 0.55706 0.18575 0.0
H2557 H 0.59123 0.63263 0.22593 0.0
H2558 H 0.58172 0.61057 0.20899 0.0
H2559 H 0.61577 0.56735 0.21714 0.0
H2560 H 0.56763 0.52444 0.1464 0.0
H2561 H 0.56527 0.53921 0.17111 0.0
C2562 C 0.80141 0.19737 0.11343 0.0
C2563 C 0.79922 0.18665 0.12603 0.0
C2564 C 0.8162 0.19627 0.10382 0.0
C2565 C 0.85937 0.17478 0.09891 0.0
H2566 H 0.84731 0.17803 0.05497 0.0
C2567 C 0.89315 0.13916 0.04913 0.0
C2568 C 0.89563 0.14699 0.0347 0.0
C2569 C 0.88481 0.14718 0.06147 0.0
C2570 C 0.85103 0.17735 0.06719 0.0
H2571 H 0.81128 0.16702 0.13904 0.0
H2572 H 0.83663 0.16464 0.12202 0.0
H2573 H 0.82631 0.18666 0.07454 0.0
H2574 H 0.89222 0.16966 0.02218 0.0
H2575 H 0.87745 0.18357 0.0437 0.0
H2576 H 0.88376 0.16442 0.0913 0.0
C2577 C 0.82725 0.17419 0.11966 0.0
C2578 C 0.83899 0.18238 0.07847 0.0
C2579 C 0.81262 0.17549 0.12943 0.0
C2580 C 0.89046 0.16328 0.03314 0.0
C2581 C 0.88195 0.17123 0.04542 0.0
C2582 C 0.87134 0.16952 0.08758 0.0
C2583 C 0.82895 0.1842 0.10641 0.0
C2584 C 0.84282 0.18088 0.09452 0.0
C2585 C 0.87864 0.16312 0.05957 0.0
C2586 C 0.86715 0.17051 0.07161 0.0
H2587 H 0.79138 0.20622 0.11064 0.0
H2588 H 0.81728 0.20452 0.09402 0.0
H2589 H 0.86296 0.17371 0.11112 0.0
H2590 H 0.89704 0.12663 0.05072 0.0
H2591 H 0.88232 0.14058 0.0722 0.0
C2592 C 0.3667 0.36843 0.03642 0.0
C2593 C 0.36748 0.38057 0.0249 0.0
C2594 C 0.35343 0.36855 0.04764 0.0
C2595 C 0.30914 0.38254 0.05621 0.0
H2596 H 0.32338 0.37448 0.09908 0.0
C2597 C 0.27933 0.37067 0.12258 0.0
C2598 C 0.26749 0.3582 0.1188 0.0
C2599 C 0.28956 0.37785 0.1109 0.0
C2600 C 0.31916 0.37707 0.08724 0.0
H2601 H 0.35451 0.40203 0.01581 0.0
H2602 H 0.33107 0.40204 0.03539 0.0
H2603 H 0.34559 0.37772 0.07888 0.0
H2604 H 0.25586 0.3446 0.0997 0.0
H2605 H 0.27366 0.35707 0.07944 0.0
H2606 H 0.28264 0.38136 0.06455 0.0
C2607 C 0.34088 0.39254 0.03572 0.0
C2608 C 0.33189 0.37871 0.07564 0.0
C2609 C 0.35429 0.39252 0.02454 0.0
C2610 C 0.265 0.35406 0.10301 0.0
C2611 C 0.27512 0.36131 0.09135 0.0
C2612 C 0.29636 0.38077 0.06783 0.0
C2613 C 0.34055 0.38073 0.04755 0.0
C2614 C 0.32701 0.38101 0.05996 0.0
C2615 C 0.28801 0.3728 0.09524 0.0
C2616 C 0.30124 0.37761 0.0834 0.0
H2617 H 0.37659 0.35902 0.03705 0.0
H2618 H 0.3533 0.35912 0.05646 0.0
H2619 H 0.30504 0.38434 0.04421 0.0
H2620 H 0.28148 0.37418 0.13463 0.0
H2621 H 0.29924 0.38684 0.1142 0.0
C2622 C 0.26697 0.64344 0.39898 0.0
C2623 C 0.26752 0.63865 0.38322 0.0
C2624 C 0.27606 0.63477 0.41035 0.0
C2625 C 0.31494 0.60887 0.41394 0.0
H2626 H 0.30206 0.61113 0.45777 0.0
C2627 C 0.3629 0.59478 0.46516 0.0
C2628 C 0.3658 0.60901 0.47386 0.0
C2629 C 0.34877 0.5938 0.45475 0.0
C2630 C 0.30571 0.61019 0.44556 0.0
H2631 H 0.27705 0.62025 0.36722 0.0
H2632 H 0.29279 0.60481 0.38725 0.0
H2633 H 0.27996 0.61647 0.43775 0.0
H2634 H 0.35582 0.63302 0.4791 0.0
H2635 H 0.3308 0.63107 0.46132 0.0
H2636 H 0.3408 0.60284 0.42194 0.0
C2637 C 0.28557 0.61554 0.39071 0.0
C2638 C 0.29314 0.61335 0.43409 0.0
C2639 C 0.27646 0.62432 0.37925 0.0
C2640 C 0.35392 0.62194 0.47249 0.0
C2641 C 0.33957 0.62079 0.46242 0.0
C2642 C 0.32742 0.6054 0.42544 0.0
C2643 C 0.28587 0.62094 0.40634 0.0
C2644 C 0.29782 0.61357 0.41816 0.0
C2645 C 0.33706 0.60685 0.45327 0.0
C2646 C 0.32307 0.60674 0.44133 0.0
H2647 H 0.26011 0.65436 0.4025 0.0
H2648 H 0.27614 0.63952 0.42215 0.0
H2649 H 0.3191 0.60902 0.40184 0.0
H2650 H 0.37194 0.58467 0.46595 0.0
H2651 H 0.34709 0.58297 0.44773 0.0
C2652 C 0.87641 0.45727 0.88441 0.0
C2653 C 0.86977 0.47317 0.88437 0.0
C2654 C 0.86692 0.44465 0.87752 0.0
C2655 C 0.83751 0.43946 0.84482 0.0
H2656 H 0.83773 0.39429 0.85738 0.0
C2657 C 0.82287 0.39048 0.79949 0.0
C2658 C 0.83491 0.37759 0.79946 0.0
C2659 C 0.82144 0.40065 0.81252 0.0
C2660 C 0.83757 0.40684 0.85367 0.0
H2661 H 0.84736 0.48808 0.87819 0.0
H2662 H 0.83086 0.46602 0.86603 0.0
H2663 H 0.84588 0.41525 0.87624 0.0
H2664 H 0.85395 0.36451 0.81346 0.0
H2665 H 0.85198 0.38246 0.83585 0.0
H2666 H 0.83048 0.43123 0.82205 0.0
C2667 C 0.84345 0.46336 0.87133 0.0
C2668 C 0.84215 0.41884 0.86451 0.0
C2669 C 0.85288 0.47597 0.87835 0.0
C2670 C 0.84457 0.37437 0.8131 0.0
C2671 C 0.84333 0.38466 0.82604 0.0
C2672 C 0.83313 0.4275 0.83395 0.0
C2673 C 0.85066 0.4477 0.87035 0.0
C2674 C 0.84266 0.43524 0.86005 0.0
C2675 C 0.83222 0.39829 0.8257 0.0
C2676 C 0.83364 0.41098 0.83808 0.0
H2677 H 0.88935 0.4547 0.88903 0.0
H2678 H 0.87289 0.43275 0.87686 0.0
H2679 H 0.83801 0.45197 0.84094 0.0
H2680 H 0.81508 0.39315 0.78921 0.0
H2681 H 0.8124 0.41077 0.81199 0.0
C2682 C 0.64096 0.89522 0.46729 0.0
C2683 C 0.62931 0.88197 0.46761 0.0
C2684 C 0.65411 0.89614 0.45591 0.0
C2685 C 0.66472 0.88157 0.41653 0.0
H2686 H 0.71341 0.88879 0.42771 0.0
C2687 C 0.73383 0.86135 0.39037 0.0
C2688 C 0.73123 0.8648 0.37444 0.0
C2689 C 0.72298 0.86821 0.40171 0.0
C2690 C 0.69984 0.88694 0.4244 0.0
H2691 H 0.62251 0.85923 0.45632 0.0
H2692 H 0.64533 0.86092 0.43649 0.0
H2693 H 0.69062 0.89072 0.44783 0.0
H2694 H 0.71614 0.8792 0.35802 0.0
H2695 H 0.69704 0.89115 0.37791 0.0
H2696 H 0.67385 0.87713 0.3933 0.0
C2697 C 0.64422 0.87062 0.44499 0.0
C2698 C 0.68682 0.88811 0.43588 0.0
C2699 C 0.63124 0.8696 0.45644 0.0
C2700 C 0.71843 0.87626 0.37019 0.0
C2701 C 0.70744 0.88303 0.38156 0.0
C2702 C 0.67767 0.88055 0.40505 0.0
C2703 C 0.65568 0.88396 0.44451 0.0
C2704 C 0.66921 0.88492 0.43212 0.0
C2705 C 0.7092 0.87859 0.39737 0.0
C2706 C 0.69543 0.88276 0.40895 0.0
H2707 H 0.63982 0.90494 0.47575 0.0
H2708 H 0.6628 0.90654 0.45579 0.0
H2709 H 0.65121 0.87927 0.41328 0.0
H2710 H 0.74368 0.85266 0.39402 0.0
H2711 H 0.72462 0.86446 0.41377 0.0
C2712 C 0.65541 0.53363 0.39476 0.0
C2713 C 0.63713 0.53233 0.39642 0.0
C2714 C 0.66284 0.54749 0.38796 0.0
C2715 C 0.65101 0.58879 0.37204 0.0
H2716 H 0.68685 0.57839 0.34158 0.0
C2717 C 0.66872 0.60614 0.30509 0.0
C2718 C 0.66347 0.62244 0.30499 0.0
C2719 C 0.67068 0.5978 0.31917 0.0
C2720 C 0.67674 0.58152 0.34994 0.0
H2721 H 0.61241 0.54496 0.39317 0.0
H2722 H 0.62504 0.56846 0.38085 0.0
H2723 H 0.6796 0.55885 0.36167 0.0
H2724 H 0.65756 0.64324 0.31955 0.0
H2725 H 0.66182 0.62892 0.34425 0.0
H2726 H 0.64676 0.61065 0.35933 0.0
C2727 C 0.6339 0.55918 0.38507 0.0
C2728 C 0.6728 0.57038 0.36174 0.0
C2729 C 0.62656 0.54551 0.39204 0.0
C2730 C 0.66141 0.63059 0.31929 0.0
C2731 C 0.66374 0.62232 0.33345 0.0
C2732 C 0.6546 0.59973 0.35999 0.0
C2733 C 0.65211 0.56022 0.3825 0.0
C2734 C 0.65926 0.57352 0.3725 0.0
C2735 C 0.66778 0.60563 0.33358 0.0
C2736 C 0.66693 0.5959 0.34831 0.0
H2737 H 0.66392 0.52372 0.39818 0.0
H2738 H 0.67694 0.54796 0.38652 0.0
H2739 H 0.64099 0.59196 0.38047 0.0
H2740 H 0.67037 0.59949 0.29426 0.0
H2741 H 0.67346 0.58494 0.31859 0.0
C2742 C 0.14351 0.59639 0.53507 0.0
C2743 C 0.13235 0.60999 0.53475 0.0
C2744 C 0.15657 0.59502 0.54655 0.0
C2745 C 0.16763 0.60947 0.58596 0.0
H2746 H 0.21633 0.60307 0.57445 0.0
C2747 C 0.23595 0.63378 0.60973 0.0
C2748 C 0.23349 0.63177 0.6259 0.0
C2749 C 0.22548 0.6254 0.59906 0.0
C2750 C 0.20276 0.60466 0.57787 0.0
H2751 H 0.12626 0.63283 0.54618 0.0
H2752 H 0.14882 0.63036 0.56609 0.0
H2753 H 0.19334 0.60009 0.55463 0.0
H2754 H 0.21922 0.61826 0.64355 0.0
H2755 H 0.20083 0.60361 0.62484 0.0
H2756 H 0.17692 0.61492 0.60892 0.0
C2757 C 0.14743 0.62072 0.55757 0.0
C2758 C 0.18962 0.60287 0.56656 0.0
C2759 C 0.1346 0.62219 0.54605 0.0
C2760 C 0.22137 0.62014 0.63116 0.0
C2761 C 0.21078 0.61181 0.62045 0.0
C2762 C 0.1807 0.61114 0.59727 0.0
C2763 C 0.15846 0.60709 0.55802 0.0
C2764 C 0.17201 0.60591 0.57039 0.0
C2765 C 0.21224 0.61488 0.60432 0.0
C2766 C 0.19847 0.60937 0.59323 0.0
H2767 H 0.14211 0.58678 0.52652 0.0
H2768 H 0.16496 0.58442 0.54663 0.0
H2769 H 0.15411 0.61166 0.58926 0.0
H2770 H 0.24531 0.64253 0.6053 0.0
H2771 H 0.22691 0.62815 0.58674 0.0
C2772 C 0.82341 0.61157 0.69615 0.0
C2773 C 0.83667 0.62338 0.69663 0.0
C2774 C 0.82139 0.60168 0.683 0.0
C2775 C 0.83767 0.59457 0.64213 0.0
H2776 H 0.83294 0.54945 0.65421 0.0
C2777 C 0.87037 0.54135 0.61024 0.0
C2778 C 0.86203 0.52614 0.61 0.0
C2779 C 0.86243 0.5546 0.61753 0.0
C2780 C 0.83388 0.56199 0.65051 0.0
H2781 H 0.85743 0.63487 0.68333 0.0
H2782 H 0.85438 0.61732 0.66065 0.0
H2783 H 0.82766 0.57053 0.67336 0.0
H2784 H 0.83827 0.5132 0.61621 0.0
H2785 H 0.82442 0.5364 0.62908 0.0
H2786 H 0.84504 0.58575 0.61947 0.0
C2787 C 0.84525 0.61582 0.67023 0.0
C2788 C 0.83081 0.57415 0.66152 0.0
C2789 C 0.84709 0.62586 0.68331 0.0
C2790 C 0.84504 0.52475 0.61625 0.0
C2791 C 0.83715 0.538 0.62368 0.0
C2792 C 0.8409 0.58236 0.63113 0.0
C2793 C 0.83278 0.6032 0.67013 0.0
C2794 C 0.83315 0.5906 0.65763 0.0
C2795 C 0.84603 0.55291 0.62484 0.0
C2796 C 0.83951 0.56593 0.63535 0.0
H2797 H 0.81502 0.60952 0.70618 0.0
H2798 H 0.81133 0.5924 0.68318 0.0
H2799 H 0.83926 0.6071 0.63861 0.0
H2800 H 0.88343 0.54284 0.60545 0.0
H2801 H 0.86968 0.56587 0.61833 0.0
C2802 C 0.15083 0.87795 0.68564 0.0
C2803 C 0.16107 0.88086 0.699 0.0
C2804 C 0.1525 0.88785 0.67245 0.0
C2805 C 0.16624 0.92955 0.66285 0.0
H2806 H 0.15374 0.91638 0.62076 0.0
C2807 C 0.15406 0.97726 0.61556 0.0
C2808 C 0.13738 0.9757 0.60872 0.0
C2809 C 0.16155 0.96424 0.62367 0.0
C2810 C 0.15738 0.92021 0.63244 0.0
H2811 H 0.18212 0.89548 0.70858 0.0
H2812 H 0.18551 0.91237 0.6854 0.0
H2813 H 0.159 0.89575 0.64075 0.0
H2814 H 0.11617 0.9589 0.60382 0.0
H2815 H 0.12922 0.93626 0.6179 0.0
H2816 H 0.16419 0.95395 0.65468 0.0
C2817 C 0.17573 0.90284 0.68525 0.0
C2818 C 0.16031 0.90841 0.64392 0.0
C2819 C 0.17388 0.89309 0.69852 0.0
C2820 C 0.129 0.96052 0.60905 0.0
C2821 C 0.13654 0.94749 0.61704 0.0
C2822 C 0.16348 0.94129 0.65136 0.0
C2823 C 0.16461 0.90075 0.67226 0.0
C2824 C 0.16426 0.91295 0.6594 0.0
C2825 C 0.15256 0.9494 0.62496 0.0
C2826 C 0.15852 0.93678 0.63615 0.0
H2827 H 0.14083 0.86862 0.68567 0.0
H2828 H 0.14357 0.88593 0.66278 0.0
H2829 H 0.16895 0.9336 0.67465 0.0
H2830 H 0.16088 0.98878 0.61547 0.0
H2831 H 0.17402 0.966 0.62951 0.0
C2832 C 0.646 0.78974 0.88861 0.0
C2833 C 0.65109 0.78774 0.87294 0.0
C2834 C 0.63557 0.80296 0.89301 0.0
C2835 C 0.60296 0.82979 0.87508 0.0
H2836 H 0.6047 0.85332 0.91431 0.0
C2837 C 0.55707 0.88328 0.88671 0.0
C2838 C 0.54891 0.88412 0.90143 0.0
C2839 C 0.57073 0.8724 0.88404 0.0
C2840 C 0.604 0.84674 0.90337 0.0
H2841 H 0.65066 0.79871 0.84989 0.0
H2842 H 0.6329 0.82188 0.85761 0.0
H2843 H 0.62749 0.8333 0.90826 0.0
H2844 H 0.54901 0.87438 0.925 0.0
H2845 H 0.57284 0.85513 0.92022 0.0
H2846 H 0.57946 0.84292 0.87019 0.0
C2847 C 0.63647 0.81303 0.86642 0.0
C2848 C 0.61705 0.83532 0.8999 0.0
C2849 C 0.64674 0.79981 0.86202 0.0
C2850 C 0.55498 0.874 0.91352 0.0
C2851 C 0.5687 0.86306 0.91082 0.0
C2852 C 0.58999 0.84113 0.87853 0.0
C2853 C 0.63016 0.8144 0.88181 0.0
C2854 C 0.61671 0.82681 0.88565 0.0
C2855 C 0.57657 0.86202 0.89599 0.0
C2856 C 0.59039 0.84981 0.89266 0.0
H2857 H 0.64915 0.78061 0.89728 0.0
H2858 H 0.63091 0.80367 0.90495 0.0
H2859 H 0.60201 0.82312 0.8642 0.0
H2860 H 0.55287 0.89099 0.87717 0.0
H2861 H 0.57673 0.87211 0.87257 0.0
C2862 C 0.0257 0.115 0.36243 0.0
C2863 C 0.02458 0.10939 0.37792 0.0
C2864 C 0.03844 0.12641 0.35823 0.0
C2865 C 0.08006 0.14536 0.37122 0.0
H2866 H 0.06368 0.18236 0.34729 0.0
C2867 C 0.11988 0.20434 0.36763 0.0
C2868 C 0.12128 0.21191 0.35295 0.0
C2869 C 0.10812 0.19159 0.36992 0.0
C2870 C 0.06852 0.17202 0.35381 0.0
H2871 H 0.03646 0.11074 0.40095 0.0
H2872 H 0.05859 0.13058 0.39363 0.0
H2873 H 0.04393 0.15961 0.35211 0.0
H2874 H 0.111 0.21229 0.32928 0.0
H2875 H 0.09048 0.18995 0.3333 0.0
H2876 H 0.10458 0.15783 0.37308 0.0
C2877 C 0.04971 0.12616 0.3847 0.0
C2878 C 0.05722 0.15897 0.35654 0.0
C2879 C 0.03696 0.11483 0.38892 0.0
C2880 C 0.11023 0.20675 0.34074 0.0
C2881 C 0.09845 0.19396 0.34305 0.0
C2882 C 0.09134 0.1584 0.36849 0.0
C2883 C 0.05036 0.13234 0.3694 0.0
C2884 C 0.06281 0.14558 0.36544 0.0
C2885 C 0.09747 0.18607 0.3576 0.0
C2886 C 0.08564 0.17197 0.35992 0.0
H2887 H 0.01637 0.11103 0.35368 0.0
H2888 H 0.03879 0.13077 0.34628 0.0
H2889 H 0.08483 0.13512 0.37792 0.0
H2890 H 0.1281 0.20806 0.37732 0.0
H2891 H 0.10742 0.18599 0.38136 0.0
C2892 C 0.44151 0.62284 0.91817 0.0
C2893 C 0.44729 0.61423 0.90493 0.0
C2894 C 0.42719 0.63342 0.9171 0.0
C2895 C 0.38903 0.64367 0.89201 0.0
H2896 H 0.39481 0.68705 0.90875 0.0
C2897 C 0.35508 0.69945 0.86626 0.0
C2898 C 0.34985 0.71216 0.87615 0.0
C2899 C 0.36366 0.68589 0.8723 0.0
C2900 C 0.39278 0.67489 0.90429 0.0
H2901 H 0.44236 0.60981 0.88028 0.0
H2902 H 0.41766 0.62827 0.87844 0.0
H2903 H 0.4165 0.66623 0.91479 0.0
H2904 H 0.34875 0.72028 0.90026 0.0
H2905 H 0.36389 0.69651 0.91084 0.0
H2906 H 0.3657 0.65252 0.88099 0.0
C2907 C 0.424 0.62673 0.88968 0.0
C2908 C 0.40523 0.66296 0.90775 0.0
C2909 C 0.43829 0.61624 0.89072 0.0
C2910 C 0.35264 0.71068 0.89234 0.0
C2911 C 0.36138 0.69713 0.89839 0.0
C2912 C 0.37661 0.65559 0.88854 0.0
C2913 C 0.41832 0.6355 0.90283 0.0
C2914 C 0.40377 0.64737 0.90123 0.0
C2915 C 0.36731 0.68476 0.88838 0.0
C2916 C 0.37865 0.67146 0.89425 0.0
H2917 H 0.44813 0.62153 0.9293 0.0
H2918 H 0.42306 0.63997 0.92745 0.0
H2919 H 0.38736 0.63166 0.88709 0.0
H2920 H 0.35308 0.70021 0.85373 0.0
H2921 H 0.36822 0.67667 0.86424 0.0
C2922 C 0.96688 0.39257 0.36017 0.0
C2923 C 0.96899 0.39723 0.37587 0.0
C2924 C 0.95396 0.38133 0.35596 0.0
C2925 C 0.91348 0.36102 0.36993 0.0
H2926 H 0.9291 0.32545 0.3437 0.0
C2927 C 0.8758 0.30083 0.36692 0.0
C2928 C 0.87386 0.29326 0.35228 0.0
C2929 C 0.88689 0.31417 0.3687 0.0
C2930 C 0.92443 0.3354 0.35084 0.0
H2931 H 0.95863 0.39438 0.39934 0.0
H2932 H 0.93615 0.37485 0.39201 0.0
H2933 H 0.94858 0.34841 0.34842 0.0
H2934 H 0.88235 0.29367 0.32807 0.0
H2935 H 0.90171 0.31707 0.33119 0.0
H2936 H 0.88943 0.34793 0.37254 0.0
C2937 C 0.94441 0.37989 0.38292 0.0
C2938 C 0.93559 0.34858 0.35353 0.0
C2939 C 0.95736 0.39105 0.38714 0.0
C2940 C 0.88358 0.29918 0.33952 0.0
C2941 C 0.89469 0.31257 0.34131 0.0
C2942 C 0.90233 0.34787 0.36723 0.0
C2943 C 0.94282 0.37461 0.36735 0.0
C2944 C 0.93034 0.36142 0.3633 0.0
C2945 C 0.89632 0.32032 0.35589 0.0
C2946 C 0.90778 0.33478 0.35787 0.0
H2947 H 0.97562 0.39712 0.35121 0.0
H2948 H 0.95289 0.37767 0.34383 0.0
H2949 H 0.90895 0.37084 0.37731 0.0
H2950 H 0.86861 0.29656 0.37704 0.0
H2951 H 0.88812 0.31963 0.38017 0.0
C2952 C 0.63823 0.20512 0.64036 0.0
C2953 C 0.64383 0.21625 0.62899 0.0
C2954 C 0.62692 0.19248 0.63638 0.0
C2955 C 0.60769 0.16943 0.60336 0.0
H2956 H 0.56937 0.16331 0.63261 0.0
C2957 C 0.5464 0.12981 0.59003 0.0
C2958 C 0.54057 0.11974 0.60225 0.0
C2959 C 0.55958 0.14131 0.59266 0.0
C2960 C 0.58008 0.16474 0.62439 0.0
H2961 H 0.64272 0.22239 0.60435 0.0
H2962 H 0.62272 0.20037 0.5974 0.0
H2963 H 0.59197 0.18326 0.63825 0.0
H2964 H 0.54417 0.1138 0.62679 0.0
H2965 H 0.56708 0.13374 0.63131 0.0
H2966 H 0.59555 0.15091 0.58944 0.0
C2967 C 0.6272 0.20135 0.60939 0.0
C2968 C 0.59307 0.17615 0.62765 0.0
C2969 C 0.63862 0.21399 0.61337 0.0
C2970 C 0.54825 0.12139 0.61711 0.0
C2971 C 0.56135 0.13288 0.61974 0.0
C2972 C 0.59462 0.15799 0.60008 0.0
C2973 C 0.62084 0.19074 0.62095 0.0
C2974 C 0.60712 0.17854 0.61725 0.0
C2975 C 0.56712 0.14302 0.60758 0.0
C2976 C 0.58076 0.15545 0.61064 0.0
H2977 H 0.64216 0.20642 0.65247 0.0
H2978 H 0.62261 0.18426 0.64549 0.0
H2979 H 0.61839 0.17094 0.59515 0.0
H2980 H 0.54078 0.12883 0.57843 0.0
H2981 H 0.56367 0.14905 0.5831 0.0
C2982 C 0.36956 0.20145 0.63369 0.0
C2983 C 0.36954 0.20892 0.64848 0.0
C2984 C 0.37984 0.18774 0.63091 0.0
C2985 C 0.40261 0.15403 0.6508 0.0
H2986 H 0.4281 0.1511 0.61168 0.0
C2987 C 0.45766 0.10708 0.63843 0.0
C2988 C 0.45949 0.10145 0.623 0.0
C2989 C 0.44492 0.11871 0.64209 0.0
C2990 C 0.42084 0.15157 0.62256 0.0
H2991 H 0.38042 0.20785 0.67192 0.0
H2992 H 0.39854 0.18397 0.66695 0.0
H2993 H 0.41007 0.17478 0.61694 0.0
H2994 H 0.44849 0.10251 0.59962 0.0
H2995 H 0.42607 0.12244 0.60608 0.0
H2996 H 0.41359 0.13081 0.65643 0.0
C2997 C 0.39041 0.18864 0.65759 0.0
C2998 C 0.41054 0.16519 0.62559 0.0
C2999 C 0.38014 0.2024 0.66038 0.0
C3000 C 0.44753 0.10675 0.61159 0.0
C3001 C 0.43477 0.11827 0.61526 0.0
C3002 C 0.41294 0.14035 0.64775 0.0
C3003 C 0.39035 0.18115 0.64282 0.0
C3004 C 0.40131 0.1666 0.63973 0.0
C3005 C 0.43376 0.12485 0.6304 0.0
C3006 C 0.42216 0.13896 0.63358 0.0
H3007 H 0.36151 0.20608 0.62427 0.0
H3008 H 0.37933 0.18215 0.61945 0.0
H3009 H 0.39548 0.15468 0.66173 0.0
H3010 H 0.46671 0.10326 0.64747 0.0
H3011 H 0.44452 0.12355 0.65385 0.0
C3012 C 0.44814 0.37604 0.59447 0.0
C3013 C 0.45433 0.38512 0.60726 0.0
C3014 C 0.43481 0.36455 0.59649 0.0
C3015 C 0.41465 0.33923 0.62703 0.0
H3016 H 0.37595 0.33477 0.59787 0.0
C3017 C 0.35666 0.29849 0.64178 0.0
C3018 C 0.35114 0.28766 0.6301 0.0
C3019 C 0.36774 0.31139 0.63814 0.0
C3020 C 0.38675 0.33581 0.60604 0.0
H3021 H 0.45112 0.38943 0.63215 0.0
H3022 H 0.42793 0.36957 0.63561 0.0
H3023 H 0.39879 0.35506 0.59301 0.0
H3024 H 0.35202 0.2824 0.60527 0.0
H3025 H 0.37164 0.30494 0.5989 0.0
H3026 H 0.40283 0.32003 0.64003 0.0
C3027 C 0.43352 0.37113 0.62406 0.0
C3028 C 0.39983 0.34739 0.60325 0.0
C3029 C 0.44678 0.38259 0.62205 0.0
C3030 C 0.35607 0.29057 0.61452 0.0
C3031 C 0.36728 0.30348 0.61087 0.0
C3032 C 0.40164 0.32772 0.62981 0.0
C3033 C 0.42747 0.36189 0.61135 0.0
C3034 C 0.41383 0.34931 0.61382 0.0
C3035 C 0.37368 0.3137 0.62275 0.0
C3036 C 0.38744 0.32597 0.61946 0.0
H3037 H 0.45365 0.37772 0.58291 0.0
H3038 H 0.43051 0.35752 0.5865 0.0
H3039 H 0.42546 0.34015 0.63521 0.0
H3040 H 0.35291 0.2967 0.65388 0.0
H3041 H 0.37208 0.3193 0.64749 0.0
C3042 C 0.54831 0.39441 0.61841 0.0
C3043 C 0.5369 0.40059 0.62986 0.0
C3044 C 0.56144 0.38336 0.62245 0.0
C3045 C 0.57033 0.35216 0.65178 0.0
H3046 H 0.61591 0.35025 0.63176 0.0
C3047 C 0.62034 0.30112 0.66483 0.0
C3048 C 0.6293 0.29464 0.6519 0.0
C3049 C 0.61009 0.31508 0.66325 0.0
C3050 C 0.60318 0.35056 0.63736 0.0
H3051 H 0.53099 0.40078 0.65467 0.0
H3052 H 0.55404 0.38156 0.66174 0.0
H3053 H 0.59696 0.37367 0.62735 0.0
H3054 H 0.63433 0.29769 0.62709 0.0
H3055 H 0.61626 0.32183 0.62427 0.0
H3056 H 0.57634 0.3289 0.66149 0.0
C3057 C 0.55264 0.3851 0.6496 0.0
C3058 C 0.59235 0.36399 0.63488 0.0
C3059 C 0.53953 0.3962 0.64557 0.0
C3060 C 0.62766 0.30236 0.63731 0.0
C3061 C 0.61741 0.3163 0.63573 0.0
C3062 C 0.58114 0.33871 0.65425 0.0
C3063 C 0.56343 0.37823 0.63803 0.0
C3064 C 0.57571 0.36483 0.64188 0.0
C3065 C 0.60857 0.32287 0.64868 0.0
C3066 C 0.59758 0.33764 0.64688 0.0
H3067 H 0.54665 0.39756 0.6062 0.0
H3068 H 0.56944 0.37823 0.61324 0.0
H3069 H 0.55747 0.3523 0.65715 0.0
H3070 H 0.62138 0.29551 0.67627 0.0
H3071 H 0.60356 0.31991 0.67347 0.0
C3072 C 0.94059 0.53571 0.84491 0.0
C3073 C 0.92442 0.52844 0.84859 0.0
C3074 C 0.94219 0.5455 0.83161 0.0
C3075 C 0.92411 0.55411 0.79329 0.0
H3076 H 0.92921 0.59992 0.80251 0.0
C3077 C 0.89111 0.60254 0.75655 0.0
C3078 C 0.89731 0.61858 0.75632 0.0
C3079 C 0.89987 0.59061 0.76502 0.0
C3080 C 0.92831 0.58718 0.79952 0.0
H3081 H 0.89756 0.52499 0.84096 0.0
H3082 H 0.90056 0.54162 0.81745 0.0
H3083 H 0.93481 0.57993 0.8229 0.0
H3084 H 0.91845 0.63439 0.76382 0.0
H3085 H 0.93408 0.61336 0.77842 0.0
H3086 H 0.91736 0.56119 0.77002 0.0
C3087 C 0.91188 0.53991 0.82495 0.0
C3088 C 0.93144 0.57575 0.81127 0.0
C3089 C 0.91014 0.53051 0.83842 0.0
C3090 C 0.91324 0.62216 0.76387 0.0
C3091 C 0.92213 0.61013 0.77232 0.0
C3092 C 0.92133 0.56549 0.78145 0.0
C3093 C 0.9278 0.54772 0.8216 0.0
C3094 C 0.92861 0.55921 0.8084 0.0
C3095 C 0.91522 0.59432 0.77342 0.0
C3096 C 0.92249 0.58223 0.78463 0.0
H3097 H 0.95177 0.53435 0.85263 0.0
H3098 H 0.95455 0.55152 0.82925 0.0
H3099 H 0.922 0.54137 0.79083 0.0
H3100 H 0.87895 0.59928 0.75078 0.0
H3101 H 0.89392 0.57871 0.76571 0.0
C3102 C 0.89506 0.83129 0.46564 0.0
C3103 C 0.90074 0.84748 0.46477 0.0
C3104 C 0.88648 0.82408 0.45296 0.0
C3105 C 0.87615 0.82819 0.4108 0.0
H3106 H 0.83068 0.81133 0.42292 0.0
C3107 C 0.81703 0.82628 0.36894 0.0
C3108 C 0.80346 0.81512 0.37166 0.0
C3109 C 0.83174 0.82666 0.37871 0.0
C3110 C 0.84347 0.81556 0.41922 0.0
H3111 H 0.90302 0.86843 0.44955 0.0
H3112 H 0.88816 0.85581 0.42741 0.0
H3113 H 0.85192 0.8183 0.44291 0.0
H3114 H 0.79535 0.79463 0.38578 0.0
H3115 H 0.82134 0.79478 0.40238 0.0
H3116 H 0.86758 0.82568 0.38707 0.0
C3117 C 0.89031 0.84869 0.43789 0.0
C3118 C 0.85566 0.81962 0.43075 0.0
C3119 C 0.89873 0.85595 0.45061 0.0
C3120 C 0.80552 0.80351 0.38353 0.0
C3121 C 0.82036 0.8037 0.39313 0.0
C3122 C 0.86401 0.82394 0.39921 0.0
C3123 C 0.8836 0.83287 0.43911 0.0
C3124 C 0.87195 0.82636 0.4267 0.0
C3125 C 0.83333 0.81572 0.39127 0.0
C3126 C 0.84731 0.81797 0.40329 0.0
H3127 H 0.89645 0.82443 0.47637 0.0
H3128 H 0.88158 0.81181 0.45416 0.0
H3129 H 0.88869 0.83323 0.40734 0.0
H3130 H 0.8158 0.83542 0.3599 0.0
H3131 H 0.84131 0.8362 0.37694 0.0
C3132 C 0.1053 0.89617 0.76136 0.0
C3133 C 0.10178 0.87944 0.76168 0.0
C3134 C 0.09744 0.90657 0.77215 0.0
C3135 C 0.07763 0.92726 0.79558 0.0
H3136 H 0.0853 0.90927 0.83692 0.0
C3137 C 0.07444 0.96528 0.85312 0.0
C3138 C 0.08944 0.96331 0.86254 0.0
C3139 C 0.07141 0.95489 0.84043 0.0
C3140 C 0.08291 0.91443 0.82546 0.0
H3141 H 0.08591 0.86074 0.77254 0.0
H3142 H 0.07215 0.87897 0.79145 0.0
H3143 H 0.08643 0.89156 0.81419 0.0
H3144 H 0.1129 0.94884 0.86608 0.0
H3145 H 0.10754 0.93078 0.84414 0.0
H3146 H 0.07512 0.95034 0.80696 0.0
C3147 C 0.08117 0.88398 0.78295 0.0
C3148 C 0.08335 0.90425 0.81243 0.0
C3149 C 0.08897 0.87356 0.77206 0.0
C3150 C 0.10124 0.95073 0.85906 0.0
C3151 C 0.0981 0.94028 0.84657 0.0
C3152 C 0.07708 0.93745 0.80867 0.0
C3153 C 0.08593 0.90046 0.78355 0.0
C3154 C 0.08138 0.91064 0.79729 0.0
C3155 C 0.08316 0.94221 0.83714 0.0
C3156 C 0.08041 0.9312 0.82366 0.0
H3157 H 0.11498 0.90111 0.7534 0.0
H3158 H 0.10149 0.91917 0.77231 0.0
H3159 H 0.07591 0.93251 0.78407 0.0
H3160 H 0.06511 0.97487 0.85549 0.0
H3161 H 0.05981 0.95665 0.8333 0.0
C3162 C 0.10368 0.64632 0.457 0.0
C3163 C 0.10161 0.65391 0.4716 0.0
C3164 C 0.11222 0.65433 0.44477 0.0
C3165 C 0.14715 0.68347 0.43948 0.0
H3166 H 0.13499 0.68088 0.39553 0.0
C3167 C 0.19763 0.70199 0.3934 0.0
C3168 C 0.19935 0.69122 0.38078 0.0
C3169 C 0.18277 0.70146 0.40298 0.0
C3170 C 0.13863 0.68165 0.40775 0.0
H3171 H 0.10599 0.67618 0.48456 0.0
H3172 H 0.12112 0.69005 0.46323 0.0
H3173 H 0.11385 0.67206 0.41527 0.0
H3174 H 0.18636 0.67218 0.36766 0.0
H3175 H 0.16088 0.67079 0.38459 0.0
H3176 H 0.17223 0.692 0.43219 0.0
C3177 C 0.11614 0.67791 0.46128 0.0
C3178 C 0.12648 0.67667 0.41903 0.0
C3179 C 0.10741 0.66998 0.47346 0.0
C3180 C 0.18542 0.68066 0.3773 0.0
C3181 C 0.17071 0.67994 0.38701 0.0
C3182 C 0.15937 0.68823 0.42824 0.0
C3183 C 0.11903 0.67001 0.44695 0.0
C3184 C 0.13076 0.67725 0.435 0.0
C3185 C 0.16946 0.68994 0.40032 0.0
C3186 C 0.15545 0.68707 0.41218 0.0
H3187 H 0.0993 0.63396 0.45518 0.0
H3188 H 0.11438 0.64788 0.4339 0.0
H3189 H 0.15092 0.68383 0.45169 0.0
H3190 H 0.20807 0.71039 0.39627 0.0
H3191 H 0.18207 0.70968 0.41283 0.0
C3192 C 0.89248 0.39523 0.74108 0.0
C3193 C 0.89693 0.37869 0.74059 0.0
C3194 C 0.90036 0.40623 0.73088 0.0
C3195 C 0.92039 0.42837 0.70888 0.0
H3196 H 0.9161 0.41119 0.66684 0.0
C3197 C 0.92584 0.46784 0.65241 0.0
C3198 C 0.91183 0.46545 0.64193 0.0
C3199 C 0.92825 0.45736 0.66513 0.0
C3200 C 0.91751 0.41613 0.67851 0.0
H3201 H 0.91434 0.36098 0.73008 0.0
H3202 H 0.92814 0.38028 0.71218 0.0
H3203 H 0.91447 0.39284 0.68908 0.0
H3204 H 0.88939 0.45018 0.63664 0.0
H3205 H 0.89366 0.43199 0.65866 0.0
H3206 H 0.92247 0.45182 0.69818 0.0
C3207 C 0.91841 0.38466 0.72037 0.0
C3208 C 0.9168 0.4056 0.69127 0.0
C3209 C 0.91059 0.37364 0.73069 0.0
C3210 C 0.90031 0.45241 0.64446 0.0
C3211 C 0.90283 0.44188 0.65701 0.0
C3212 C 0.92121 0.43891 0.69608 0.0
C3213 C 0.91281 0.40092 0.7199 0.0
C3214 C 0.91759 0.41166 0.70662 0.0
C3215 C 0.91686 0.44418 0.66743 0.0
C3216 C 0.9191 0.43294 0.68081 0.0
H3217 H 0.88211 0.39952 0.7487 0.0
H3218 H 0.89566 0.41863 0.7308 0.0
H3219 H 0.92118 0.43337 0.72058 0.0
H3220 H 0.93495 0.47778 0.65079 0.0
H3221 H 0.93915 0.45941 0.67302 0.0
C3222 C 0.60567 0.85726 0.54574 0.0
C3223 C 0.59813 0.84705 0.53444 0.0
C3224 C 0.61431 0.85077 0.55868 0.0
C3225 C 0.63739 0.81335 0.57042 0.0
H3226 H 0.64402 0.83803 0.60853 0.0
C3227 C 0.70092 0.81017 0.60577 0.0
C3228 C 0.70104 0.81433 0.62168 0.0
C3229 C 0.68531 0.81048 0.59723 0.0
C3230 C 0.64212 0.8307 0.59817 0.0
H3231 H 0.59263 0.82201 0.52844 0.0
H3232 H 0.60723 0.81062 0.55136 0.0
H3233 H 0.62088 0.84563 0.59052 0.0
H3234 H 0.6847 0.8208 0.64147 0.0
H3235 H 0.65729 0.82075 0.62671 0.0
H3236 H 0.65845 0.79825 0.5782 0.0
C3237 C 0.60695 0.82368 0.54997 0.0
C3238 C 0.62897 0.83526 0.58766 0.0
C3239 C 0.59846 0.8302 0.53688 0.0
C3240 C 0.68504 0.81769 0.62916 0.0
C3241 C 0.66935 0.81779 0.62066 0.0
C3242 C 0.65035 0.80862 0.58106 0.0
C3243 C 0.61546 0.83387 0.5608 0.0
C3244 C 0.62693 0.82708 0.57333 0.0
C3245 C 0.66936 0.81474 0.60445 0.0
C3246 C 0.6534 0.81765 0.59475 0.0
H3247 H 0.60568 0.87031 0.54421 0.0
H3248 H 0.62089 0.85906 0.56656 0.0
H3249 H 0.63631 0.80673 0.55953 0.0
H3250 H 0.71303 0.80756 0.59964 0.0
H3251 H 0.68601 0.80828 0.58477 0.0
C3252 C 0.06969 0.03711 0.64631 0.0
C3253 C 0.08637 0.03539 0.63945 0.0
C3254 C 0.06755 0.04632 0.65995 0.0
C3255 C 0.09265 0.06236 0.69344 0.0
H3256 H 0.05669 0.09554 0.69588 0.0
C3257 C 0.09514 0.10701 0.7435 0.0
C3258 C 0.09447 0.12328 0.73869 0.0
C3259 C 0.08869 0.09475 0.73383 0.0
C3260 C 0.06674 0.08627 0.69542 0.0
H3261 H 0.11386 0.04195 0.6416 0.0
H3262 H 0.11012 0.05789 0.66521 0.0
H3263 H 0.05708 0.07678 0.67368 0.0
H3264 H 0.08512 0.13966 0.72074 0.0
H3265 H 0.07443 0.11825 0.70355 0.0
H3266 H 0.10304 0.07222 0.71449 0.0
C3267 C 0.09871 0.05204 0.66018 0.0
C3268 C 0.06687 0.07545 0.68277 0.0
C3269 C 0.10083 0.04297 0.64656 0.0
C3270 C 0.08574 0.12721 0.72474 0.0
C3271 C 0.07958 0.11489 0.7149 0.0
C3272 C 0.09254 0.07312 0.706 0.0
C3273 C 0.08208 0.05381 0.66705 0.0
C3274 C 0.08017 0.06372 0.68144 0.0
C3275 C 0.08186 0.09847 0.71898 0.0
C3276 C 0.07987 0.0855 0.70697 0.0
H3277 H 0.05828 0.03145 0.6411 0.0
H3278 H 0.05459 0.04746 0.66503 0.0
H3279 H 0.1029 0.05328 0.69286 0.0
H3280 H 0.10163 0.10369 0.75431 0.0
H3281 H 0.09014 0.08227 0.73757 0.0
C3282 C 0.40044 0.66858 0.53735 0.0
C3283 C 0.40113 0.65159 0.53621 0.0
C3284 C 0.39277 0.676 0.55039 0.0
C3285 C 0.37305 0.66695 0.58982 0.0
H3286 H 0.34244 0.70271 0.57893 0.0
C3287 C 0.31718 0.6852 0.63117 0.0
C3288 C 0.30101 0.68792 0.62372 0.0
C3289 C 0.33278 0.68514 0.62253 0.0
C3290 C 0.35084 0.69268 0.58219 0.0
H3291 H 0.39518 0.62908 0.54821 0.0
H3292 H 0.38125 0.64182 0.57043 0.0
H3293 H 0.36402 0.69338 0.56022 0.0
H3294 H 0.28862 0.69363 0.60157 0.0
H3295 H 0.31543 0.69287 0.5865 0.0
H3296 H 0.35874 0.66522 0.61117 0.0
C3297 C 0.38698 0.64959 0.5616 0.0
C3298 C 0.36352 0.68748 0.57151 0.0
C3299 C 0.39488 0.64221 0.54873 0.0
C3300 C 0.30086 0.69152 0.60768 0.0
C3301 C 0.31636 0.6912 0.59902 0.0
C3302 C 0.36013 0.67192 0.60036 0.0
C3303 C 0.38536 0.66658 0.56245 0.0
C3304 C 0.37437 0.67413 0.57493 0.0
C3305 C 0.3325 0.68754 0.60622 0.0
C3306 C 0.34839 0.68446 0.59644 0.0
H3307 H 0.40531 0.67614 0.52795 0.0
H3308 H 0.39218 0.68911 0.55076 0.0
H3309 H 0.3815 0.65696 0.59311 0.0
H3310 H 0.31773 0.68255 0.64357 0.0
H3311 H 0.34497 0.68267 0.62859 0.0
C3312 C 0.86719 0.8766 0.54059 0.0
C3313 C 0.86934 0.88883 0.5293 0.0
C3314 C 0.85449 0.87807 0.55221 0.0
C3315 C 0.81254 0.89618 0.56178 0.0
H3316 H 0.82608 0.8846 0.60407 0.0
C3317 C 0.78214 0.88075 0.62727 0.0
C3318 C 0.76973 0.86914 0.62252 0.0
C3319 C 0.79258 0.88865 0.61617 0.0
C3320 C 0.82208 0.88824 0.59243 0.0
H3321 H 0.85946 0.91204 0.52117 0.0
H3322 H 0.83687 0.9144 0.54146 0.0
H3323 H 0.84846 0.88728 0.58396 0.0
H3324 H 0.75722 0.85801 0.60242 0.0
H3325 H 0.77537 0.87168 0.58317 0.0
H3326 H 0.78602 0.89644 0.57016 0.0
C3327 C 0.84524 0.90378 0.54129 0.0
C3328 C 0.8349 0.88958 0.58087 0.0
C3329 C 0.85815 0.90241 0.52971 0.0
C3330 C 0.76682 0.86675 0.60646 0.0
C3331 C 0.77714 0.87471 0.59539 0.0
C3332 C 0.79965 0.89472 0.57335 0.0
C3333 C 0.8435 0.89172 0.55278 0.0
C3334 C 0.8302 0.89301 0.56534 0.0
C3335 C 0.79067 0.88518 0.60015 0.0
C3336 C 0.80425 0.89022 0.58869 0.0
H3337 H 0.87555 0.86597 0.54065 0.0
H3338 H 0.85322 0.86844 0.56076 0.0
H3339 H 0.80859 0.89887 0.54989 0.0
H3340 H 0.78464 0.88291 0.63957 0.0
H3341 H 0.80277 0.89683 0.62017 0.0
C3342 C 0.86278 0.11778 0.95905 0.0
C3343 C 0.86448 0.10529 0.97013 0.0
C3344 C 0.85001 0.11694 0.94742 0.0
C3345 C 0.80721 0.1006 0.93801 0.0
H3346 H 0.82034 0.11339 0.89596 0.0
C3347 C 0.77604 0.12058 0.87393 0.0
C3348 C 0.76439 0.13245 0.87952 0.0
C3349 C 0.78635 0.11165 0.8844 0.0
C3350 C 0.81643 0.10941 0.90751 0.0
H3351 H 0.85383 0.08223 0.97783 0.0
H3352 H 0.83109 0.08097 0.95754 0.0
H3353 H 0.84302 0.10892 0.91551 0.0
H3354 H 0.75304 0.14305 0.90042 0.0
H3355 H 0.77095 0.1276 0.91856 0.0
H3356 H 0.78053 0.10181 0.93014 0.0
C3357 C 0.83987 0.0913 0.95788 0.0
C3358 C 0.82943 0.10704 0.91876 0.0
C3359 C 0.85286 0.09204 0.96946 0.0
C3360 C 0.76206 0.13412 0.89574 0.0
C3361 C 0.77224 0.12514 0.90617 0.0
C3362 C 0.79415 0.10308 0.92675 0.0
C3363 C 0.83849 0.10367 0.94664 0.0
C3364 C 0.82492 0.10321 0.93424 0.0
C3365 C 0.78505 0.11433 0.90061 0.0
C3366 C 0.79861 0.10807 0.91152 0.0
H3367 H 0.8715 0.12816 0.95918 0.0
H3368 H 0.84904 0.12679 0.93908 0.0
H3369 H 0.80339 0.09762 0.94986 0.0
H3370 H 0.77807 0.11896 0.86149 0.0
H3371 H 0.79598 0.10325 0.87978 0.0
C3372 C 0.33721 0.87038 0.31477 0.0
C3373 C 0.33715 0.8786 0.30038 0.0
C3374 C 0.33398 0.87879 0.3287 0.0
C3375 C 0.32173 0.92013 0.34429 0.0
H3376 H 0.35372 0.90805 0.37749 0.0
C3377 C 0.3405 0.9669 0.39097 0.0
C3378 C 0.35862 0.96761 0.39393 0.0
C3379 C 0.33318 0.95327 0.38365 0.0
C3380 C 0.34473 0.91167 0.36832 0.0
H3381 H 0.3328 0.90186 0.28922 0.0
H3382 H 0.32809 0.91659 0.31326 0.0
H3383 H 0.34916 0.88971 0.3558 0.0
H3384 H 0.38301 0.9541 0.39262 0.0
H3385 H 0.37061 0.93096 0.37945 0.0
H3386 H 0.31878 0.94282 0.35595 0.0
C3387 C 0.33003 0.90361 0.31401 0.0
C3388 C 0.34184 0.90095 0.35593 0.0
C3389 C 0.33291 0.89516 0.30011 0.0
C3390 C 0.36901 0.95402 0.39045 0.0
C3391 C 0.36178 0.94056 0.38298 0.0
C3392 C 0.32498 0.93102 0.35647 0.0
C3393 C 0.33098 0.89566 0.32857 0.0
C3394 C 0.33091 0.90534 0.34335 0.0
C3395 C 0.34387 0.94019 0.37897 0.0
C3396 C 0.33718 0.92725 0.36828 0.0
H3397 H 0.34025 0.85756 0.31531 0.0
H3398 H 0.33439 0.87212 0.3396 0.0
H3399 H 0.31269 0.92373 0.33516 0.0
H3400 H 0.33212 0.97713 0.39366 0.0
H3401 H 0.31926 0.95329 0.38113 0.0
C3402 C 0.23697 0.35688 0.8987 0.0
C3403 C 0.23625 0.36119 0.88282 0.0
C3404 C 0.22832 0.36611 0.90994 0.0
C3405 C 0.19015 0.39296 0.91319 0.0
H3406 H 0.20345 0.39165 0.95697 0.0
C3407 C 0.1423 0.40884 0.9637 0.0
C3408 C 0.13945 0.39499 0.97295 0.0
C3409 C 0.15657 0.40949 0.95342 0.0
C3410 C 0.19969 0.39233 0.94477 0.0
H3411 H 0.22695 0.37934 0.86644 0.0
H3412 H 0.21201 0.39573 0.88623 0.0
H3413 H 0.22517 0.38523 0.93693 0.0
H3414 H 0.14971 0.3714 0.97939 0.0
H3415 H 0.17493 0.37278 0.96183 0.0
H3416 H 0.16454 0.39978 0.9212 0.0
C3417 C 0.21899 0.38495 0.8899 0.0
C3418 C 0.21204 0.38854 0.93328 0.0
C3419 C 0.22764 0.37562 0.87857 0.0
C3420 C 0.15158 0.38219 0.97235 0.0
C3421 C 0.16604 0.38302 0.9624 0.0
C3422 C 0.17789 0.39704 0.92469 0.0
C3423 C 0.2188 0.38002 0.90567 0.0
C3424 C 0.20719 0.38799 0.91739 0.0
C3425 C 0.16845 0.39651 0.9526 0.0
C3426 C 0.18236 0.39604 0.94058 0.0
H3427 H 0.24358 0.34591 0.90244 0.0
H3428 H 0.22831 0.36171 0.92187 0.0
H3429 H 0.18584 0.39257 0.90113 0.0
H3430 H 0.13308 0.41884 0.96389 0.0
H3431 H 0.15816 0.41997 0.94591 0.0
C3432 C 0.15575 0.02539 0.88144 0.0
C3433 C 0.13933 0.02638 0.88885 0.0
C3434 C 0.16235 0.03864 0.8731 0.0
C3435 C 0.16226 0.06193 0.84553 0.0
H3436 H 0.15734 0.10719 0.85706 0.0
C3437 C 0.16958 0.11108 0.79885 0.0
C3438 C 0.15661 0.12316 0.79906 0.0
C3439 C 0.17222 0.10114 0.81187 0.0
C3440 C 0.15874 0.09461 0.85363 0.0
H3441 H 0.11764 0.04241 0.89441 0.0
H3442 H 0.1292 0.0655 0.87994 0.0
H3443 H 0.1533 0.08612 0.87684 0.0
H3444 H 0.13691 0.13496 0.81336 0.0
H3445 H 0.14097 0.11729 0.83582 0.0
H3446 H 0.16655 0.07012 0.82222 0.0
C3447 C 0.13697 0.05452 0.88054 0.0
C3448 C 0.15652 0.08257 0.86499 0.0
C3449 C 0.13029 0.04124 0.88875 0.0
C3450 C 0.14702 0.12574 0.81285 0.0
C3451 C 0.14945 0.11563 0.8258 0.0
C3452 C 0.16428 0.07392 0.83416 0.0
C3453 C 0.15275 0.05317 0.87216 0.0
C3454 C 0.15786 0.06609 0.86096 0.0
C3455 C 0.16171 0.10286 0.8253 0.0
C3456 C 0.16213 0.09042 0.83795 0.0
H3457 H 0.16305 0.01412 0.88134 0.0
H3458 H 0.17464 0.03733 0.86686 0.0
H3459 H 0.1631 0.04934 0.842 0.0
H3460 H 0.17733 0.10895 0.78843 0.0
H3461 H 0.1821 0.09173 0.81119 0.0
C3462 C 0.63598 0.10247 0.03647 0.0
C3463 C 0.62464 0.11593 0.03601 0.0
C3464 C 0.64907 0.10138 0.04793 0.0
C3465 C 0.66037 0.11657 0.08709 0.0
H3466 H 0.70884 0.10912 0.07538 0.0
C3467 C 0.72978 0.13895 0.11066 0.0
C3468 C 0.72757 0.13664 0.12682 0.0
C3469 C 0.71878 0.13117 0.09999 0.0
C3470 C 0.69533 0.11102 0.07885 0.0
H3471 H 0.61824 0.13882 0.04721 0.0
H3472 H 0.64092 0.13686 0.0671 0.0
H3473 H 0.68566 0.10636 0.05572 0.0
H3474 H 0.71307 0.1233 0.14443 0.0
H3475 H 0.69372 0.10971 0.12571 0.0
H3476 H 0.66996 0.12203 0.10996 0.0
C3477 C 0.63963 0.1271 0.05869 0.0
C3478 C 0.68208 0.10936 0.06763 0.0
C3479 C 0.62674 0.12829 0.04718 0.0
C3480 C 0.71505 0.12536 0.13205 0.0
C3481 C 0.70391 0.11766 0.12134 0.0
C3482 C 0.67356 0.11811 0.09831 0.0
C3483 C 0.65086 0.11361 0.05925 0.0
C3484 C 0.66455 0.1127 0.07154 0.0
C3485 C 0.70525 0.12097 0.10524 0.0
C3486 C 0.69125 0.11591 0.0942 0.0
H3487 H 0.63471 0.09274 0.02802 0.0
H3488 H 0.65759 0.09086 0.0481 0.0
H3489 H 0.64692 0.11899 0.09046 0.0
H3490 H 0.73942 0.14746 0.10626 0.0
H3491 H 0.72011 0.13408 0.0877 0.0
C3492 C 0.34484 0.02505 0.11955 0.0
C3493 C 0.3593 0.02585 0.10943 0.0
C3494 C 0.33838 0.03915 0.12662 0.0
C3495 C 0.35581 0.07902 0.13829 0.0
H3496 H 0.30955 0.08422 0.15643 0.0
C3497 C 0.32752 0.10621 0.19805 0.0
C3498 C 0.33709 0.12077 0.19883 0.0
C3499 C 0.32624 0.09766 0.18398 0.0
C3500 C 0.3225 0.08298 0.15135 0.0
H3501 H 0.37709 0.04206 0.09735 0.0
H3502 H 0.36528 0.06671 0.10898 0.0
H3503 H 0.31438 0.06352 0.13638 0.0
H3504 H 0.35155 0.13847 0.18519 0.0
H3505 H 0.34929 0.12353 0.16063 0.0
H3506 H 0.36408 0.09806 0.15349 0.0
C3507 C 0.35937 0.0552 0.11208 0.0
C3508 C 0.32529 0.07109 0.13991 0.0
C3509 C 0.36605 0.04109 0.10528 0.0
C3510 C 0.34422 0.12721 0.18501 0.0
C3511 C 0.34298 0.11863 0.17095 0.0
C3512 C 0.35298 0.09094 0.14956 0.0
C3513 C 0.34611 0.05433 0.12349 0.0
C3514 C 0.34213 0.06864 0.13356 0.0
C3515 C 0.33453 0.10348 0.17042 0.0
C3516 C 0.33644 0.09276 0.15656 0.0
H3517 H 0.33943 0.01343 0.12299 0.0
H3518 H 0.32823 0.03792 0.13538 0.0
H3519 H 0.36905 0.07736 0.134 0.0
H3520 H 0.32178 0.10097 0.20847 0.0
H3521 H 0.31973 0.08598 0.184 0.0
C3522 C 0.65804 0.37578 0.18543 0.0
C3523 C 0.66526 0.3827 0.19901 0.0
C3524 C 0.659 0.38393 0.17114 0.0
C3525 C 0.67896 0.4187 0.15002 0.0
H3526 H 0.63207 0.4237 0.13318 0.0
C3527 C 0.65676 0.47479 0.11526 0.0
C3528 C 0.64194 0.47365 0.10557 0.0
C3529 C 0.66313 0.46106 0.12302 0.0
C3530 C 0.64539 0.42219 0.13732 0.0
H3531 H 0.6804 0.40295 0.20798 0.0
H3532 H 0.68199 0.41721 0.18303 0.0
H3533 H 0.63733 0.40405 0.1536 0.0
H3534 H 0.62341 0.45707 0.09493 0.0
H3535 H 0.63509 0.43297 0.10771 0.0
H3536 H 0.68692 0.43717 0.1339 0.0
C3537 C 0.67563 0.40546 0.18342 0.0
C3538 C 0.64838 0.41089 0.14914 0.0
C3539 C 0.67462 0.39733 0.19775 0.0
C3540 C 0.63472 0.45831 0.10252 0.0
C3541 C 0.64132 0.44454 0.10998 0.0
C3542 C 0.67601 0.42993 0.13801 0.0
C3543 C 0.66725 0.39913 0.17011 0.0
C3544 C 0.66507 0.40931 0.15592 0.0
C3545 C 0.65499 0.44586 0.121 0.0
C3546 C 0.65905 0.43215 0.1318 0.0
H3547 H 0.65089 0.36443 0.18596 0.0
H3548 H 0.65264 0.37865 0.16101 0.0
H3549 H 0.692 0.41763 0.15495 0.0
H3550 H 0.66255 0.48648 0.11787 0.0
H3551 H 0.67359 0.46267 0.13144 0.0
loop_
_geom_bond_atom_site_label_1
_geom_bond_atom_site_label_2
_geom_bond_distance
_geom_bond_site_symmetry_2
_ccdc_geom_bond_type
O0 Cd1 2.223 . S
O0 C8 1.315 . S
Cd1 O0 2.223 . S
Cd1 O4 2.297 . S
Cd1 O5 2.439 . S
Cd1 O11 2.240 . S
Cd2 O3 2.240 . S
Cd2 O10 2.223 . S
Cd2 O12 2.297 . S
Cd2 O13 2.439 . S
O3 Cd2 2.240 . S
O3 C8 1.279 . S
O4 Cd1 2.297 . S
O4 C6 1.247 . S
O5 Cd1 2.439 . S
O5 C6 1.208 . S
C6 O4 1.247 . S
C6 O5 1.208 . S
C7 O12 1.247 . S
C7 O13 1.208 . S
C8 O0 1.315 . S
C8 O3 1.279 . S
C9 O10 1.315 . S
C9 O11 1.279 . S
O10 Cd2 2.223 . S
O10 C9 1.315 . S
O11 Cd1 2.240 . S
O11 C9 1.279 . S
O12 Cd2 2.297 . S
O12 C7 1.247 . S
O13 Cd2 2.439 . S
O13 C7 1.208 . S
O14 Cd15 2.223 . S
O14 C22 1.315 . S
Cd15 O14 2.223 . S
Cd15 O18 2.297 . S
Cd15 O19 2.439 . S
Cd15 O25 2.240 . S
Cd16 O17 2.240 . S
Cd16 O24 2.223 . S
Cd16 O26 2.297 . S
Cd16 O27 2.439 . S
O17 Cd16 2.240 . S
O17 C22 1.279 . S
O18 Cd15 2.297 . S
O18 C20 1.247 . S
O19 Cd15 2.439 . S
O19 C20 1.208 . S
C20 O18 1.247 . S
C20 O19 1.208 . S
C21 O26 1.247 . S
C21 O27 1.208 . S
C22 O14 1.315 . S
C22 O17 1.279 . S
C23 O24 1.315 . S
C23 O25 1.279 . S
O24 Cd16 2.223 . S
O24 C23 1.315 . S
O25 Cd15 2.240 . S
O25 C23 1.279 . S
O26 Cd16 2.297 . S
O26 C21 1.247 . S
O27 Cd16 2.439 . S
O27 C21 1.208 . S
O28 Cd29 2.223 . S
O28 C36 1.315 . S
Cd29 O28 2.223 . S
Cd29 O32 2.297 . S
Cd29 O33 2.439 . S
Cd29 O39 2.240 . S
Cd30 O31 2.240 . S
Cd30 O38 2.223 . S
Cd30 O40 2.297 . S
Cd30 O41 2.439 . S
O31 Cd30 2.240 . S
O31 C36 1.279 . S
O32 Cd29 2.297 . S
O32 C34 1.247 . S
O33 Cd29 2.439 . S
O33 C34 1.208 . S
C34 O32 1.247 . S
C34 O33 1.208 . S
C35 O40 1.247 . S
C35 O41 1.208 . S
C36 O28 1.315 . S
C36 O31 1.279 . S
C37 O38 1.315 . S
C37 O39 1.279 . S
O38 Cd30 2.223 . S
O38 C37 1.315 . S
O39 Cd29 2.240 . S
O39 C37 1.279 . S
O40 Cd30 2.297 . S
O40 C35 1.247 . S
O41 Cd30 2.439 . S
O41 C35 1.208 . S
O42 Cd43 2.223 . S
O42 C50 1.315 . S
Cd43 O42 2.223 . S
Cd43 O46 2.297 . S
Cd43 O47 2.439 . S
Cd43 O53 2.240 . S
Cd44 O45 2.240 . S
Cd44 O52 2.223 . S
Cd44 O54 2.297 . S
Cd44 O55 2.439 . S
O45 Cd44 2.240 . S
O45 C50 1.279 . S
O46 Cd43 2.297 . S
O46 C48 1.247 . S
O47 Cd43 2.439 . S
O47 C48 1.208 . S
C48 O46 1.247 . S
C48 O47 1.208 . S
C49 O54 1.247 . S
C49 O55 1.208 . S
C50 O42 1.315 . S
C50 O45 1.279 . S
C51 O52 1.315 . S
C51 O53 1.279 . S
O52 Cd44 2.223 . S
O52 C51 1.315 . S
O53 Cd43 2.240 . S
O53 C51 1.279 . S
O54 Cd44 2.297 . S
O54 C49 1.247 . S
O55 Cd44 2.439 . S
O55 C49 1.208 . S
O56 Cd57 2.223 . S
O56 C64 1.315 . S
Cd57 O56 2.223 . S
Cd57 O60 2.297 . S
Cd57 O61 2.439 . S
Cd57 O67 2.240 . S
Cd58 O59 2.240 . S
Cd58 O66 2.223 . S
Cd58 O68 2.297 . S
Cd58 O69 2.439 . S
O59 Cd58 2.240 . S
O59 C64 1.279 . S
O60 Cd57 2.297 . S
O60 C62 1.247 . S
O61 Cd57 2.439 . S
O61 C62 1.208 . S
C62 O60 1.247 . S
C62 O61 1.208 . S
C63 O68 1.247 . S
C63 O69 1.208 . S
C64 O56 1.315 . S
C64 O59 1.279 . S
C65 O66 1.315 . S
C65 O67 1.279 . S
O66 Cd58 2.223 . S
O66 C65 1.315 . S
O67 Cd57 2.240 . S
O67 C65 1.279 . S
O68 Cd58 2.297 . S
O68 C63 1.247 . S
O69 Cd58 2.439 . S
O69 C63 1.208 . S
O70 Cd71 2.223 1_455 S
O70 C78 1.315 . S
Cd71 O70 2.223 1_655 S
Cd71 O74 2.297 . S
Cd71 O75 2.439 . S
Cd71 O81 2.240 1_655 S
Cd72 O73 2.240 . S
Cd72 O80 2.223 . S
Cd72 O82 2.282 1_455 S
Cd72 O83 2.439 1_455 S
O73 Cd72 2.240 . S
O73 C78 1.279 . S
O74 Cd71 2.297 . S
O74 C76 1.247 . S
O75 Cd71 2.439 . S
O75 C76 1.208 . S
C76 O74 1.247 . S
C76 O75 1.208 . S
C77 O82 1.284 . S
C77 O83 1.208 . S
C78 O70 1.315 . S
C78 O73 1.279 . S
C79 O80 1.315 . S
C79 O81 1.279 . S
O80 Cd72 2.223 . S
O80 C79 1.315 . S
O81 Cd71 2.240 1_455 S
O81 C79 1.279 . S
O82 Cd72 2.282 1_655 S
O82 C77 1.284 . S
O83 Cd72 2.439 1_655 S
O83 C77 1.208 . S
O84 Cd85 2.223 . S
O84 C92 1.315 . S
Cd85 O84 2.223 . S
Cd85 O88 2.297 . S
Cd85 O89 2.439 . S
Cd85 O95 2.240 . S
Cd86 O87 2.240 . S
Cd86 O94 2.223 . S
Cd86 O96 2.297 . S
Cd86 O97 2.439 . S
O87 Cd86 2.240 . S
O87 C92 1.279 . S
O88 Cd85 2.297 . S
O88 C90 1.247 . S
O89 Cd85 2.439 . S
O89 C90 1.208 . S
C90 O88 1.247 . S
C90 O89 1.208 . S
C91 O96 1.247 . S
C91 O97 1.208 . S
C92 O84 1.315 . S
C92 O87 1.279 . S
C93 O94 1.315 . S
C93 O95 1.279 . S
O94 Cd86 2.223 . S
O94 C93 1.315 . S
O95 Cd85 2.240 . S
O95 C93 1.279 . S
O96 Cd86 2.297 . S
O96 C91 1.247 . S
O97 Cd86 2.439 . S
O97 C91 1.208 . S
O98 Cd99 2.223 1_655 S
O98 C106 1.315 . S
Cd99 O98 2.223 1_455 S
Cd99 O102 2.297 . S
Cd99 O103 2.439 . S
Cd99 O109 2.240 1_455 S
Cd100 O101 2.240 . S
Cd100 O108 2.223 . S
Cd100 O110 2.282 1_655 S
Cd100 O111 2.439 1_655 S
O101 Cd100 2.240 . S
O101 C106 1.279 . S
O102 Cd99 2.297 . S
O102 C104 1.247 . S
O103 Cd99 2.439 . S
O103 C104 1.208 . S
C104 O102 1.247 . S
C104 O103 1.208 . S
C105 O110 1.283 . S
C105 O111 1.208 . S
C106 O98 1.315 . S
C106 O101 1.279 . S
C107 O108 1.315 . S
C107 O109 1.279 . S
O108 Cd100 2.223 . S
O108 C107 1.315 . S
O109 Cd99 2.240 1_655 S
O109 C107 1.279 . S
O110 Cd100 2.282 1_455 S
O110 C105 1.283 . S
O111 Cd100 2.439 1_455 S
O111 C105 1.208 . S
O112 Cd113 2.223 . S
O112 C120 1.315 . S
Cd113 O112 2.223 . S
Cd113 O116 2.297 . S
Cd113 O117 2.439 . S
Cd113 O123 2.240 . S
Cd114 O115 2.240 . S
Cd114 O122 2.223 . S
Cd114 O124 2.297 . S
Cd114 O125 2.439 . S
O115 Cd114 2.240 . S
O115 C120 1.279 . S
O116 Cd113 2.297 . S
O116 C118 1.247 . S
O117 Cd113 2.439 . S
O117 C118 1.208 . S
C118 O116 1.247 . S
C118 O117 1.208 . S
C119 O124 1.247 . S
C119 O125 1.208 . S
C120 O112 1.315 . S
C120 O115 1.279 . S
C121 O122 1.315 . S
C121 O123 1.279 . S
O122 Cd114 2.223 . S
O122 C121 1.315 . S
O123 Cd113 2.240 . S
O123 C121 1.279 . S
O124 Cd114 2.297 . S
O124 C119 1.247 . S
O125 Cd114 2.439 . S
O125 C119 1.208 . S
O126 Cd127 2.223 1_554 S
O126 C134 1.315 . S
Cd127 O126 2.223 1_556 S
Cd127 O130 2.297 . S
Cd127 O131 2.439 . S
Cd127 O137 2.240 1_556 S
Cd128 O129 2.240 . S
Cd128 O136 2.223 . S
Cd128 O138 2.311 . S
Cd128 O139 2.439 1_554 S
O129 Cd128 2.240 . S
O129 C134 1.279 . S
O130 Cd127 2.297 . S
O130 C132 1.247 . S
O131 Cd127 2.439 . S
O131 C132 1.208 . S
C132 O130 1.247 . S
C132 O131 1.208 . S
C133 O138 1.212 1_556 S
C133 O139 1.208 . S
C134 O126 1.315 . S
C134 O129 1.279 . S
C135 O136 1.315 . S
C135 O137 1.279 . S
O136 Cd128 2.223 . S
O136 C135 1.315 . S
O137 Cd127 2.240 1_554 S
O137 C135 1.279 . S
O138 Cd128 2.311 . S
O138 C133 1.212 1_554 S
O139 Cd128 2.439 1_556 S
O139 C133 1.208 . S
O140 Cd141 2.223 . S
O140 C148 1.315 . S
Cd141 O140 2.223 . S
Cd141 O144 2.297 . S
Cd141 O145 2.439 . S
Cd141 O151 2.240 . S
Cd142 O143 2.240 . S
Cd142 O150 2.223 . S
Cd142 O152 2.297 . S
Cd142 O153 2.439 . S
O143 Cd142 2.240 . S
O143 C148 1.279 . S
O144 Cd141 2.297 . S
O144 C146 1.247 . S
O145 Cd141 2.439 . S
O145 C146 1.208 . S
C146 O144 1.247 . S
C146 O145 1.208 . S
C147 O152 1.247 . S
C147 O153 1.208 . S
C148 O140 1.315 . S
C148 O143 1.279 . S
C149 O150 1.315 . S
C149 O151 1.279 . S
O150 Cd142 2.223 . S
O150 C149 1.315 . S
O151 Cd141 2.240 . S
O151 C149 1.279 . S
O152 Cd142 2.297 . S
O152 C147 1.247 . S
O153 Cd142 2.439 . S
O153 C147 1.208 . S
O154 Cd155 2.223 1_554 S
O154 C162 1.315 . S
Cd155 O154 2.223 1_556 S
Cd155 O158 2.297 . S
Cd155 O159 2.439 . S
Cd155 O165 2.240 1_556 S
Cd156 O157 2.240 . S
Cd156 O164 2.223 . S
Cd156 O166 2.309 . S
Cd156 O167 2.439 1_554 S
O157 Cd156 2.240 . S
O157 C162 1.279 . S
O158 Cd155 2.297 . S
O158 C160 1.247 . S
O159 Cd155 2.439 . S
O159 C160 1.208 . S
C160 O158 1.247 . S
C160 O159 1.208 . S
C161 O166 1.217 1_556 S
C161 O167 1.208 . S
C162 O154 1.315 . S
C162 O157 1.279 . S
C163 O164 1.315 . S
C163 O165 1.279 . S
O164 Cd156 2.223 . S
O164 C163 1.315 . S
O165 Cd155 2.240 1_554 S
O165 C163 1.279 . S
O166 Cd156 2.309 . S
O166 C161 1.217 1_554 S
O167 Cd156 2.439 1_556 S
O167 C161 1.208 . S
O168 Cd169 2.223 . S
O168 C176 1.315 . S
Cd169 O168 2.223 . S
Cd169 O172 2.297 . S
Cd169 O173 2.439 . S
Cd169 O179 2.240 . S
Cd170 O171 2.240 . S
Cd170 O178 2.223 . S
Cd170 O180 2.297 . S
Cd170 O181 2.439 . S
O171 Cd170 2.240 . S
O171 C176 1.279 . S
O172 Cd169 2.297 . S
O172 C174 1.247 . S
O173 Cd169 2.439 . S
O173 C174 1.208 . S
C174 O172 1.247 . S
C174 O173 1.208 . S
C175 O180 1.247 . S
C175 O181 1.208 . S
C176 O168 1.315 . S
C176 O171 1.279 . S
C177 O178 1.315 . S
C177 O179 1.279 . S
O178 Cd170 2.223 . S
O178 C177 1.315 . S
O179 Cd169 2.240 . S
O179 C177 1.279 . S
O180 Cd170 2.297 . S
O180 C175 1.247 . S
O181 Cd170 2.439 . S
O181 C175 1.208 . S
O182 Cd183 2.223 1_556 S
O182 C190 1.315 . S
Cd183 O182 2.223 1_554 S
Cd183 O186 2.297 . S
Cd183 O187 2.439 . S
Cd183 O193 2.240 1_554 S
Cd184 O185 2.240 . S
Cd184 O192 2.223 . S
Cd184 O194 2.297 . S
Cd184 O195 2.439 1_556 S
O185 Cd184 2.240 . S
O185 C190 1.279 . S
O186 Cd183 2.297 . S
O186 C188 1.247 . S
O187 Cd183 2.439 . S
O187 C188 1.208 . S
C188 O186 1.247 . S
C188 O187 1.208 . S
C189 O194 1.247 1_554 S
C189 O195 1.208 . S
C190 O182 1.315 . S
C190 O185 1.279 . S
C191 O192 1.315 . S
C191 O193 1.279 . S
O192 Cd184 2.223 . S
O192 C191 1.315 . S
O193 Cd183 2.240 1_556 S
O193 C191 1.279 . S
O194 Cd184 2.297 . S
O194 C189 1.247 1_556 S
O195 Cd184 2.439 1_554 S
O195 C189 1.208 . S
O196 Cd197 2.223 . S
O196 C204 1.315 . S
Cd197 O196 2.223 . S
Cd197 O200 2.297 . S
Cd197 O201 2.439 . S
Cd197 O207 2.240 . S
Cd198 O199 2.240 . S
Cd198 O206 2.223 . S
Cd198 O208 2.297 . S
Cd198 O209 2.439 . S
O199 Cd198 2.240 . S
O199 C204 1.279 . S
O200 Cd197 2.297 . S
O200 C202 1.247 . S
O201 Cd197 2.439 . S
O201 C202 1.208 . S
C202 O200 1.247 . S
C202 O201 1.208 . S
C203 O208 1.247 . S
C203 O209 1.208 . S
C204 O196 1.315 . S
C204 O199 1.279 . S
C205 O206 1.315 . S
C205 O207 1.279 . S
O206 Cd198 2.223 . S
O206 C205 1.315 . S
O207 Cd197 2.240 . S
O207 C205 1.279 . S
O208 Cd198 2.297 . S
O208 C203 1.247 . S
O209 Cd198 2.439 . S
O209 C203 1.208 . S
O210 Cd211 2.223 1_556 S
O210 C218 1.315 . S
Cd211 O210 2.223 1_554 S
Cd211 O214 2.297 . S
Cd211 O215 2.439 . S
Cd211 O221 2.240 1_554 S
Cd212 O213 2.240 . S
Cd212 O220 2.223 . S
Cd212 O222 2.297 . S
Cd212 O223 2.439 1_556 S
O213 Cd212 2.240 . S
O213 C218 1.279 . S
O214 Cd211 2.297 . S
O214 C216 1.247 . S
O215 Cd211 2.439 . S
O215 C216 1.208 . S
C216 O214 1.247 . S
C216 O215 1.208 . S
C217 O222 1.247 1_554 S
C217 O223 1.208 . S
C218 O210 1.315 . S
C218 O213 1.279 . S
C219 O220 1.315 . S
C219 O221 1.279 . S
O220 Cd212 2.223 . S
O220 C219 1.315 . S
O221 Cd211 2.240 1_556 S
O221 C219 1.279 . S
O222 Cd212 2.297 . S
O222 C217 1.247 1_556 S
O223 Cd212 2.439 1_554 S
O223 C217 1.208 . S
O224 Cd225 2.223 . S
O224 C232 1.315 . S
Cd225 O224 2.223 . S
Cd225 O228 2.297 . S
Cd225 O229 2.439 . S
Cd225 O235 2.240 . S
Cd226 O227 2.240 . S
Cd226 O234 2.223 . S
Cd226 O236 2.297 . S
Cd226 O237 2.439 . S
O227 Cd226 2.240 . S
O227 C232 1.279 . S
O228 Cd225 2.297 . S
O228 C230 1.247 . S
O229 Cd225 2.439 . S
O229 C230 1.208 . S
C230 O228 1.247 . S
C230 O229 1.208 . S
C231 O236 1.247 . S
C231 O237 1.208 . S
C232 O224 1.315 . S
C232 O227 1.279 . S
C233 O234 1.315 . S
C233 O235 1.279 . S
O234 Cd226 2.223 . S
O234 C233 1.315 . S
O235 Cd225 2.240 . S
O235 C233 1.279 . S
O236 Cd226 2.297 . S
O236 C231 1.247 . S
O237 Cd226 2.439 . S
O237 C231 1.208 . S
O238 Cd239 2.223 . S
O238 C246 1.315 . S
Cd239 O238 2.223 . S
Cd239 O242 2.297 . S
Cd239 O243 2.439 . S
Cd239 O249 2.240 . S
Cd240 O241 2.240 . S
Cd240 O248 2.223 . S
Cd240 O250 2.297 . S
Cd240 O251 2.439 . S
O241 Cd240 2.240 . S
O241 C246 1.279 . S
O242 Cd239 2.297 . S
O242 C244 1.247 . S
O243 Cd239 2.439 . S
O243 C244 1.208 . S
C244 O242 1.247 . S
C244 O243 1.208 . S
C245 O250 1.247 . S
C245 O251 1.208 . S
C246 O238 1.315 . S
C246 O241 1.279 . S
C247 O248 1.315 . S
C247 O249 1.279 . S
O248 Cd240 2.223 . S
O248 C247 1.315 . S
O249 Cd239 2.240 . S
O249 C247 1.279 . S
O250 Cd240 2.297 . S
O250 C245 1.247 . S
O251 Cd240 2.439 . S
O251 C245 1.208 . S
O252 Cd253 2.223 . S
O252 C260 1.315 . S
Cd253 O252 2.223 . S
Cd253 O256 2.297 . S
Cd253 O257 2.439 . S
Cd253 O263 2.240 . S
Cd254 O255 2.240 . S
Cd254 O262 2.223 . S
Cd254 O264 2.297 . S
Cd254 O265 2.439 . S
O255 Cd254 2.240 . S
O255 C260 1.279 . S
O256 Cd253 2.297 . S
O256 C258 1.247 . S
O257 Cd253 2.439 . S
O257 C258 1.208 . S
C258 O256 1.247 . S
C258 O257 1.208 . S
C259 O264 1.247 . S
C259 O265 1.208 . S
C260 O252 1.315 . S
C260 O255 1.279 . S
C261 O262 1.315 . S
C261 O263 1.279 . S
O262 Cd254 2.223 . S
O262 C261 1.315 . S
O263 Cd253 2.240 . S
O263 C261 1.279 . S
O264 Cd254 2.297 . S
O264 C259 1.247 . S
O265 Cd254 2.439 . S
O265 C259 1.208 . S
O266 Cd267 2.223 . S
O266 C274 1.315 . S
Cd267 O266 2.223 . S
Cd267 O270 2.297 . S
Cd267 O271 2.439 . S
Cd267 O277 2.240 . S
Cd268 O269 2.240 . S
Cd268 O276 2.223 . S
Cd268 O278 2.297 . S
Cd268 O279 2.439 . S
O269 Cd268 2.240 . S
O269 C274 1.279 . S
O270 Cd267 2.297 . S
O270 C272 1.247 . S
O271 Cd267 2.439 . S
O271 C272 1.208 . S
C272 O270 1.247 . S
C272 O271 1.208 . S
C273 O278 1.247 . S
C273 O279 1.208 . S
C274 O266 1.315 . S
C274 O269 1.279 . S
C275 O276 1.315 . S
C275 O277 1.279 . S
O276 Cd268 2.223 . S
O276 C275 1.315 . S
O277 Cd267 2.240 . S
O277 C275 1.279 . S
O278 Cd268 2.297 . S
O278 C273 1.247 . S
O279 Cd268 2.439 . S
O279 C273 1.208 . S
O280 Cd281 2.223 . S
O280 C288 1.315 . S
Cd281 O280 2.223 . S
Cd281 O284 2.297 . S
Cd281 O285 2.439 . S
Cd281 O291 2.240 . S
Cd282 O283 2.240 . S
Cd282 O290 2.223 . S
Cd282 O292 2.297 . S
Cd282 O293 2.439 . S
O283 Cd282 2.240 . S
O283 C288 1.279 . S
O284 Cd281 2.297 . S
O284 C286 1.247 . S
O285 Cd281 2.439 . S
O285 C286 1.208 . S
C286 O284 1.247 . S
C286 O285 1.208 . S
C287 O292 1.247 . S
C287 O293 1.208 . S
C288 O280 1.315 . S
C288 O283 1.279 . S
C289 O290 1.315 . S
C289 O291 1.279 . S
O290 Cd282 2.223 . S
O290 C289 1.315 . S
O291 Cd281 2.240 . S
O291 C289 1.279 . S
O292 Cd282 2.297 . S
O292 C287 1.247 . S
O293 Cd282 2.439 . S
O293 C287 1.208 . S
O294 Cd295 2.223 . S
O294 C302 1.315 . S
Cd295 O294 2.223 . S
Cd295 O298 2.297 . S
Cd295 O299 2.439 . S
Cd295 O305 2.240 . S
Cd296 O297 2.240 . S
Cd296 O304 2.223 . S
Cd296 O306 2.297 . S
Cd296 O307 2.439 . S
O297 Cd296 2.240 . S
O297 C302 1.279 . S
O298 Cd295 2.297 . S
O298 C300 1.247 . S
O299 Cd295 2.439 . S
O299 C300 1.208 . S
C300 O298 1.247 . S
C300 O299 1.208 . S
C301 O306 1.247 . S
C301 O307 1.208 . S
C302 O294 1.315 . S
C302 O297 1.279 . S
C303 O304 1.315 . S
C303 O305 1.279 . S
O304 Cd296 2.223 . S
O304 C303 1.315 . S
O305 Cd295 2.240 . S
O305 C303 1.279 . S
O306 Cd296 2.297 . S
O306 C301 1.247 . S
O307 Cd296 2.439 . S
O307 C301 1.208 . S
O308 Cd309 2.223 . S
O308 C316 1.315 . S
Cd309 O308 2.223 . S
Cd309 O312 2.297 . S
Cd309 O313 2.439 . S
Cd309 O319 2.240 . S
Cd310 O311 2.240 . S
Cd310 O318 2.223 . S
Cd310 O320 2.297 . S
Cd310 O321 2.439 . S
O311 Cd310 2.240 . S
O311 C316 1.279 . S
O312 Cd309 2.297 . S
O312 C314 1.247 . S
O313 Cd309 2.439 . S
O313 C314 1.208 . S
C314 O312 1.247 . S
C314 O313 1.208 . S
C315 O320 1.247 . S
C315 O321 1.208 . S
C316 O308 1.315 . S
C316 O311 1.279 . S
C317 O318 1.315 . S
C317 O319 1.279 . S
O318 Cd310 2.223 . S
O318 C317 1.315 . S
O319 Cd309 2.240 . S
O319 C317 1.279 . S
O320 Cd310 2.297 . S
O320 C315 1.247 . S
O321 Cd310 2.439 . S
O321 C315 1.208 . S
O322 Cd323 2.223 1_545 S
O322 C330 1.315 . S
Cd323 O322 2.223 1_565 S
Cd323 O326 2.297 . S
Cd323 O327 2.439 . S
Cd323 O333 2.240 1_565 S
Cd324 O325 2.240 . S
Cd324 O332 2.223 . S
Cd324 O334 2.272 1_545 S
Cd324 O335 2.439 1_545 S
O325 Cd324 2.240 . S
O325 C330 1.279 . S
O326 Cd323 2.297 . S
O326 C328 1.247 . S
O327 Cd323 2.439 . S
O327 C328 1.208 . S
C328 O326 1.247 . S
C328 O327 1.208 . S
C329 O334 1.314 . S
C329 O335 1.208 . S
C330 O322 1.315 . S
C330 O325 1.279 . S
C331 O332 1.315 . S
C331 O333 1.279 . S
O332 Cd324 2.223 . S
O332 C331 1.315 . S
O333 Cd323 2.240 1_545 S
O333 C331 1.279 . S
O334 Cd324 2.272 1_565 S
O334 C329 1.314 . S
O335 Cd324 2.439 1_565 S
O335 C329 1.208 . S
O336 Cd337 2.223 . S
O336 C344 1.315 . S
Cd337 O336 2.223 . S
Cd337 O340 2.297 . S
Cd337 O341 2.439 . S
Cd337 O347 2.240 . S
Cd338 O339 2.240 . S
Cd338 O346 2.223 . S
Cd338 O348 2.297 . S
Cd338 O349 2.439 . S
O339 Cd338 2.240 . S
O339 C344 1.279 . S
O340 Cd337 2.297 . S
O340 C342 1.247 . S
O341 Cd337 2.439 . S
O341 C342 1.208 . S
C342 O340 1.247 . S
C342 O341 1.208 . S
C343 O348 1.247 . S
C343 O349 1.208 . S
C344 O336 1.315 . S
C344 O339 1.279 . S
C345 O346 1.315 . S
C345 O347 1.279 . S
O346 Cd338 2.223 . S
O346 C345 1.315 . S
O347 Cd337 2.240 . S
O347 C345 1.279 . S
O348 Cd338 2.297 . S
O348 C343 1.247 . S
O349 Cd338 2.439 . S
O349 C343 1.208 . S
O350 Cd351 2.223 1_655 S
O350 C358 1.315 . S
Cd351 O350 2.223 1_455 S
Cd351 O354 2.297 . S
Cd351 O355 2.439 . S
Cd351 O361 2.240 1_455 S
Cd352 O353 2.240 . S
Cd352 O360 2.223 . S
Cd352 O362 2.282 1_655 S
Cd352 O363 2.439 1_655 S
O353 Cd352 2.240 . S
O353 C358 1.279 . S
O354 Cd351 2.297 . S
O354 C356 1.247 . S
O355 Cd351 2.439 . S
O355 C356 1.208 . S
C356 O354 1.247 . S
C356 O355 1.208 . S
C357 O362 1.283 . S
C357 O363 1.208 . S
C358 O350 1.315 . S
C358 O353 1.279 . S
C359 O360 1.315 . S
C359 O361 1.279 . S
O360 Cd352 2.223 . S
O360 C359 1.315 . S
O361 Cd351 2.240 1_655 S
O361 C359 1.279 . S
O362 Cd352 2.282 1_455 S
O362 C357 1.283 . S
O363 Cd352 2.439 1_455 S
O363 C357 1.208 . S
O364 Cd365 2.223 . S
O364 C372 1.315 . S
Cd365 O364 2.223 . S
Cd365 O368 2.297 . S
Cd365 O369 2.439 . S
Cd365 O375 2.240 . S
Cd366 O367 2.240 . S
Cd366 O374 2.223 . S
Cd366 O376 2.297 . S
Cd366 O377 2.439 . S
O367 Cd366 2.240 . S
O367 C372 1.279 . S
O368 Cd365 2.297 . S
O368 C370 1.247 . S
O369 Cd365 2.439 . S
O369 C370 1.208 . S
C370 O368 1.247 . S
C370 O369 1.208 . S
C371 O376 1.247 . S
C371 O377 1.208 . S
C372 O364 1.315 . S
C372 O367 1.279 . S
C373 O374 1.315 . S
C373 O375 1.279 . S
O374 Cd366 2.223 . S
O374 C373 1.315 . S
O375 Cd365 2.240 . S
O375 C373 1.279 . S
O376 Cd366 2.297 . S
O376 C371 1.247 . S
O377 Cd366 2.439 . S
O377 C371 1.208 . S
O378 Cd379 2.223 1_455 S
O378 C386 1.315 . S
Cd379 O378 2.223 1_655 S
Cd379 O382 2.297 . S
Cd379 O383 2.439 . S
Cd379 O389 2.240 1_655 S
Cd380 O381 2.240 . S
Cd380 O388 2.223 . S
Cd380 O390 2.282 1_455 S
Cd380 O391 2.439 1_455 S
O381 Cd380 2.240 . S
O381 C386 1.279 . S
O382 Cd379 2.297 . S
O382 C384 1.247 . S
O383 Cd379 2.439 . S
O383 C384 1.208 . S
C384 O382 1.247 . S
C384 O383 1.208 . S
C385 O390 1.284 . S
C385 O391 1.208 . S
C386 O378 1.315 . S
C386 O381 1.279 . S
C387 O388 1.315 . S
C387 O389 1.279 . S
O388 Cd380 2.223 . S
O388 C387 1.315 . S
O389 Cd379 2.240 1_455 S
O389 C387 1.279 . S
O390 Cd380 2.282 1_655 S
O390 C385 1.284 . S
O391 Cd380 2.439 1_655 S
O391 C385 1.208 . S
O392 Cd393 2.223 . S
O392 C400 1.315 . S
Cd393 O392 2.223 . S
Cd393 O396 2.297 . S
Cd393 O397 2.439 . S
Cd393 O403 2.240 . S
Cd394 O395 2.240 . S
Cd394 O402 2.223 . S
Cd394 O404 2.297 . S
Cd394 O405 2.439 . S
O395 Cd394 2.240 . S
O395 C400 1.279 . S
O396 Cd393 2.297 . S
O396 C398 1.247 . S
O397 Cd393 2.439 . S
O397 C398 1.208 . S
C398 O396 1.247 . S
C398 O397 1.208 . S
C399 O404 1.247 . S
C399 O405 1.208 . S
C400 O392 1.315 . S
C400 O395 1.279 . S
C401 O402 1.315 . S
C401 O403 1.279 . S
O402 Cd394 2.223 . S
O402 C401 1.315 . S
O403 Cd393 2.240 . S
O403 C401 1.279 . S
O404 Cd394 2.297 . S
O404 C399 1.247 . S
O405 Cd394 2.439 . S
O405 C399 1.208 . S
O406 Cd407 2.223 . S
O406 C414 1.315 . S
Cd407 O406 2.223 . S
Cd407 O410 2.297 . S
Cd407 O411 2.439 . S
Cd407 O417 2.240 . S
Cd408 O409 2.240 . S
Cd408 O416 2.223 . S
Cd408 O418 2.297 . S
Cd408 O419 2.439 . S
O409 Cd408 2.240 . S
O409 C414 1.279 . S
O410 Cd407 2.297 . S
O410 C412 1.247 . S
O411 Cd407 2.439 . S
O411 C412 1.208 . S
C412 O410 1.247 . S
C412 O411 1.208 . S
C413 O418 1.247 . S
C413 O419 1.208 . S
C414 O406 1.315 . S
C414 O409 1.279 . S
C415 O416 1.315 . S
C415 O417 1.279 . S
O416 Cd408 2.223 . S
O416 C415 1.315 . S
O417 Cd407 2.240 . S
O417 C415 1.279 . S
O418 Cd408 2.297 . S
O418 C413 1.247 . S
O419 Cd408 2.439 . S
O419 C413 1.208 . S
O420 Cd421 2.223 . S
O420 C428 1.315 . S
Cd421 O420 2.223 . S
Cd421 O424 2.297 . S
Cd421 O425 2.439 . S
Cd421 O431 2.240 . S
Cd422 O423 2.240 . S
Cd422 O430 2.223 . S
Cd422 O432 2.297 . S
Cd422 O433 2.439 . S
O423 Cd422 2.240 . S
O423 C428 1.279 . S
O424 Cd421 2.297 . S
O424 C426 1.247 . S
O425 Cd421 2.439 . S
O425 C426 1.208 . S
C426 O424 1.247 . S
C426 O425 1.208 . S
C427 O432 1.247 . S
C427 O433 1.208 . S
C428 O420 1.315 . S
C428 O423 1.279 . S
C429 O430 1.315 . S
C429 O431 1.279 . S
O430 Cd422 2.223 . S
O430 C429 1.315 . S
O431 Cd421 2.240 . S
O431 C429 1.279 . S
O432 Cd422 2.297 . S
O432 C427 1.247 . S
O433 Cd422 2.439 . S
O433 C427 1.208 . S
O434 Cd435 2.223 . S
O434 C442 1.315 . S
Cd435 O434 2.223 . S
Cd435 O438 2.297 . S
Cd435 O439 2.439 . S
Cd435 O445 2.240 . S
Cd436 O437 2.240 . S
Cd436 O444 2.223 . S
Cd436 O446 2.297 . S
Cd436 O447 2.439 . S
O437 Cd436 2.240 . S
O437 C442 1.279 . S
O438 Cd435 2.297 . S
O438 C440 1.247 . S
O439 Cd435 2.439 . S
O439 C440 1.208 . S
C440 O438 1.247 . S
C440 O439 1.208 . S
C441 O446 1.247 . S
C441 O447 1.208 . S
C442 O434 1.315 . S
C442 O437 1.279 . S
C443 O444 1.315 . S
C443 O445 1.279 . S
O444 Cd436 2.223 . S
O444 C443 1.315 . S
O445 Cd435 2.240 . S
O445 C443 1.279 . S
O446 Cd436 2.297 . S
O446 C441 1.247 . S
O447 Cd436 2.439 . S
O447 C441 1.208 . S
O448 Cd449 2.223 . S
O448 C456 1.315 . S
Cd449 O448 2.223 . S
Cd449 O452 2.297 . S
Cd449 O453 2.439 . S
Cd449 O459 2.240 . S
Cd450 O451 2.240 . S
Cd450 O458 2.223 . S
Cd450 O460 2.297 . S
Cd450 O461 2.439 . S
O451 Cd450 2.240 . S
O451 C456 1.279 . S
O452 Cd449 2.297 . S
O452 C454 1.247 . S
O453 Cd449 2.439 . S
O453 C454 1.208 . S
C454 O452 1.247 . S
C454 O453 1.208 . S
C455 O460 1.247 . S
C455 O461 1.208 . S
C456 O448 1.315 . S
C456 O451 1.279 . S
C457 O458 1.315 . S
C457 O459 1.279 . S
O458 Cd450 2.223 . S
O458 C457 1.315 . S
O459 Cd449 2.240 . S
O459 C457 1.279 . S
O460 Cd450 2.297 . S
O460 C455 1.247 . S
O461 Cd450 2.439 . S
O461 C455 1.208 . S
O462 Cd463 2.223 . S
O462 C470 1.315 . S
Cd463 O462 2.223 . S
Cd463 O466 2.297 . S
Cd463 O467 2.439 . S
Cd463 O473 2.240 . S
Cd464 O465 2.240 . S
Cd464 O472 2.223 . S
Cd464 O474 2.297 . S
Cd464 O475 2.439 . S
O465 Cd464 2.240 . S
O465 C470 1.279 . S
O466 Cd463 2.297 . S
O466 C468 1.247 . S
O467 Cd463 2.439 . S
O467 C468 1.208 . S
C468 O466 1.247 . S
C468 O467 1.208 . S
C469 O474 1.247 . S
C469 O475 1.208 . S
C470 O462 1.315 . S
C470 O465 1.279 . S
C471 O472 1.315 . S
C471 O473 1.279 . S
O472 Cd464 2.223 . S
O472 C471 1.315 . S
O473 Cd463 2.240 . S
O473 C471 1.279 . S
O474 Cd464 2.297 . S
O474 C469 1.247 . S
O475 Cd464 2.439 . S
O475 C469 1.208 . S
O476 Cd477 2.223 . S
O476 C484 1.315 . S
Cd477 O476 2.223 . S
Cd477 O480 2.297 . S
Cd477 O481 2.439 . S
Cd477 O487 2.240 . S
Cd478 O479 2.240 . S
Cd478 O486 2.223 . S
Cd478 O488 2.297 . S
Cd478 O489 2.439 . S
O479 Cd478 2.240 . S
O479 C484 1.279 . S
O480 Cd477 2.297 . S
O480 C482 1.247 . S
O481 Cd477 2.439 . S
O481 C482 1.208 . S
C482 O480 1.247 . S
C482 O481 1.208 . S
C483 O488 1.247 . S
C483 O489 1.208 . S
C484 O476 1.315 . S
C484 O479 1.279 . S
C485 O486 1.315 . S
C485 O487 1.279 . S
O486 Cd478 2.223 . S
O486 C485 1.315 . S
O487 Cd477 2.240 . S
O487 C485 1.279 . S
O488 Cd478 2.297 . S
O488 C483 1.247 . S
O489 Cd478 2.439 . S
O489 C483 1.208 . S
O490 Cd491 2.223 . S
O490 C498 1.315 . S
Cd491 O490 2.223 . S
Cd491 O494 2.297 . S
Cd491 O495 2.439 . S
Cd491 O501 2.240 . S
Cd492 O493 2.240 . S
Cd492 O500 2.223 . S
Cd492 O502 2.297 . S
Cd492 O503 2.439 . S
O493 Cd492 2.240 . S
O493 C498 1.279 . S
O494 Cd491 2.297 . S
O494 C496 1.247 . S
O495 Cd491 2.439 . S
O495 C496 1.208 . S
C496 O494 1.247 . S
C496 O495 1.208 . S
C497 O502 1.247 . S
C497 O503 1.208 . S
C498 O490 1.315 . S
C498 O493 1.279 . S
C499 O500 1.315 . S
C499 O501 1.279 . S
O500 Cd492 2.223 . S
O500 C499 1.315 . S
O501 Cd491 2.240 . S
O501 C499 1.279 . S
O502 Cd492 2.297 . S
O502 C497 1.247 . S
O503 Cd492 2.439 . S
O503 C497 1.208 . S
O504 Cd505 2.223 . S
O504 C512 1.315 . S
Cd505 O504 2.223 . S
Cd505 O508 2.297 . S
Cd505 O509 2.439 . S
Cd505 O515 2.240 . S
Cd506 O507 2.240 . S
Cd506 O514 2.223 . S
Cd506 O516 2.297 . S
Cd506 O517 2.439 . S
O507 Cd506 2.240 . S
O507 C512 1.279 . S
O508 Cd505 2.297 . S
O508 C510 1.247 . S
O509 Cd505 2.439 . S
O509 C510 1.208 . S
C510 O508 1.247 . S
C510 O509 1.208 . S
C511 O516 1.247 . S
C511 O517 1.208 . S
C512 O504 1.315 . S
C512 O507 1.279 . S
C513 O514 1.315 . S
C513 O515 1.279 . S
O514 Cd506 2.223 . S
O514 C513 1.315 . S
O515 Cd505 2.240 . S
O515 C513 1.279 . S
O516 Cd506 2.297 . S
O516 C511 1.247 . S
O517 Cd506 2.439 . S
O517 C511 1.208 . S
O518 Cd519 2.223 . S
O518 C526 1.315 . S
Cd519 O518 2.223 . S
Cd519 O522 2.297 . S
Cd519 O523 2.439 . S
Cd519 O529 2.240 . S
Cd520 O521 2.240 . S
Cd520 O528 2.223 . S
Cd520 O530 2.297 . S
Cd520 O531 2.439 . S
O521 Cd520 2.240 . S
O521 C526 1.279 . S
O522 Cd519 2.297 . S
O522 C524 1.247 . S
O523 Cd519 2.439 . S
O523 C524 1.208 . S
C524 O522 1.247 . S
C524 O523 1.208 . S
C525 O530 1.247 . S
C525 O531 1.208 . S
C526 O518 1.315 . S
C526 O521 1.279 . S
C527 O528 1.315 . S
C527 O529 1.279 . S
O528 Cd520 2.223 . S
O528 C527 1.315 . S
O529 Cd519 2.240 . S
O529 C527 1.279 . S
O530 Cd520 2.297 . S
O530 C525 1.247 . S
O531 Cd520 2.439 . S
O531 C525 1.208 . S
O532 Cd533 2.223 . S
O532 C540 1.315 . S
Cd533 O532 2.223 . S
Cd533 O536 2.297 . S
Cd533 O537 2.439 . S
Cd533 O543 2.240 . S
Cd534 O535 2.240 . S
Cd534 O542 2.223 . S
Cd534 O544 2.297 . S
Cd534 O545 2.439 . S
O535 Cd534 2.240 . S
O535 C540 1.279 . S
O536 Cd533 2.297 . S
O536 C538 1.247 . S
O537 Cd533 2.439 . S
O537 C538 1.208 . S
C538 O536 1.247 . S
C538 O537 1.208 . S
C539 O544 1.247 . S
C539 O545 1.208 . S
C540 O532 1.315 . S
C540 O535 1.279 . S
C541 O542 1.315 . S
C541 O543 1.279 . S
O542 Cd534 2.223 . S
O542 C541 1.315 . S
O543 Cd533 2.240 . S
O543 C541 1.279 . S
O544 Cd534 2.297 . S
O544 C539 1.247 . S
O545 Cd534 2.439 . S
O545 C539 1.208 . S
O546 Cd547 2.223 . S
O546 C554 1.315 . S
Cd547 O546 2.223 . S
Cd547 O550 2.297 . S
Cd547 O551 2.439 . S
Cd547 O557 2.240 . S
Cd548 O549 2.240 . S
Cd548 O556 2.223 . S
Cd548 O558 2.297 . S
Cd548 O559 2.439 . S
O549 Cd548 2.240 . S
O549 C554 1.279 . S
O550 Cd547 2.297 . S
O550 C552 1.247 . S
O551 Cd547 2.439 . S
O551 C552 1.208 . S
C552 O550 1.247 . S
C552 O551 1.208 . S
C553 O558 1.247 . S
C553 O559 1.208 . S
C554 O546 1.315 . S
C554 O549 1.279 . S
C555 O556 1.315 . S
C555 O557 1.279 . S
O556 Cd548 2.223 . S
O556 C555 1.315 . S
O557 Cd547 2.240 . S
O557 C555 1.279 . S
O558 Cd548 2.297 . S
O558 C553 1.247 . S
O559 Cd548 2.439 . S
O559 C553 1.208 . S
O560 Cd561 2.223 . S
O560 C568 1.315 . S
Cd561 O560 2.223 . S
Cd561 O564 2.297 . S
Cd561 O565 2.439 . S
Cd561 O571 2.240 . S
Cd562 O563 2.240 . S
Cd562 O570 2.223 . S
Cd562 O572 2.297 . S
Cd562 O573 2.439 . S
O563 Cd562 2.240 . S
O563 C568 1.279 . S
O564 Cd561 2.297 . S
O564 C566 1.247 . S
O565 Cd561 2.439 . S
O565 C566 1.208 . S
C566 O564 1.247 . S
C566 O565 1.208 . S
C567 O572 1.247 . S
C567 O573 1.208 . S
C568 O560 1.315 . S
C568 O563 1.279 . S
C569 O570 1.315 . S
C569 O571 1.279 . S
O570 Cd562 2.223 . S
O570 C569 1.315 . S
O571 Cd561 2.240 . S
O571 C569 1.279 . S
O572 Cd562 2.297 . S
O572 C567 1.247 . S
O573 Cd562 2.439 . S
O573 C567 1.208 . S
O574 Cd575 2.223 . S
O574 C582 1.315 . S
Cd575 O574 2.223 . S
Cd575 O578 2.297 . S
Cd575 O579 2.439 . S
Cd575 O585 2.240 . S
Cd576 O577 2.240 . S
Cd576 O584 2.223 . S
Cd576 O586 2.297 . S
Cd576 O587 2.439 . S
O577 Cd576 2.240 . S
O577 C582 1.279 . S
O578 Cd575 2.297 . S
O578 C580 1.247 . S
O579 Cd575 2.439 . S
O579 C580 1.208 . S
C580 O578 1.247 . S
C580 O579 1.208 . S
C581 O586 1.247 . S
C581 O587 1.208 . S
C582 O574 1.315 . S
C582 O577 1.279 . S
C583 O584 1.315 . S
C583 O585 1.279 . S
O584 Cd576 2.223 . S
O584 C583 1.315 . S
O585 Cd575 2.240 . S
O585 C583 1.279 . S
O586 Cd576 2.297 . S
O586 C581 1.247 . S
O587 Cd576 2.439 . S
O587 C581 1.208 . S
O588 Cd589 2.223 1_545 S
O588 C596 1.315 . S
Cd589 O588 2.223 1_565 S
Cd589 O592 2.297 . S
Cd589 O593 2.439 . S
Cd589 O599 2.240 1_565 S
Cd590 O591 2.240 . S
Cd590 O598 2.223 . S
Cd590 O600 2.285 1_545 S
Cd590 O601 2.439 1_545 S
O591 Cd590 2.240 . S
O591 C596 1.279 . S
O592 Cd589 2.297 . S
O592 C594 1.247 . S
O593 Cd589 2.439 . S
O593 C594 1.208 . S
C594 O592 1.247 . S
C594 O593 1.208 . S
C595 O600 1.279 . S
C595 O601 1.208 . S
C596 O588 1.315 . S
C596 O591 1.279 . S
C597 O598 1.315 . S
C597 O599 1.279 . S
O598 Cd590 2.223 . S
O598 C597 1.315 . S
O599 Cd589 2.240 1_545 S
O599 C597 1.279 . S
O600 Cd590 2.285 1_565 S
O600 C595 1.279 . S
O601 Cd590 2.439 1_565 S
O601 C595 1.208 . S
O602 Cd603 2.223 . S
O602 C610 1.315 . S
Cd603 O602 2.223 . S
Cd603 O606 2.297 . S
Cd603 O607 2.439 . S
Cd603 O613 2.240 . S
Cd604 O605 2.240 . S
Cd604 O612 2.223 . S
Cd604 O614 2.297 . S
Cd604 O615 2.439 . S
O605 Cd604 2.240 . S
O605 C610 1.279 . S
O606 Cd603 2.297 . S
O606 C608 1.247 . S
O607 Cd603 2.439 . S
O607 C608 1.208 . S
C608 O606 1.247 . S
C608 O607 1.208 . S
C609 O614 1.247 . S
C609 O615 1.208 . S
C610 O602 1.315 . S
C610 O605 1.279 . S
C611 O612 1.315 . S
C611 O613 1.279 . S
O612 Cd604 2.223 . S
O612 C611 1.315 . S
O613 Cd603 2.240 . S
O613 C611 1.279 . S
O614 Cd604 2.297 . S
O614 C609 1.247 . S
O615 Cd604 2.439 . S
O615 C609 1.208 . S
O616 Cd617 2.223 1_565 S
O616 C624 1.315 . S
Cd617 O616 2.223 1_545 S
Cd617 O620 2.297 . S
Cd617 O621 2.439 . S
Cd617 O627 2.240 1_545 S
Cd618 O619 2.240 . S
Cd618 O626 2.223 . S
Cd618 O628 2.274 1_565 S
Cd618 O629 2.439 1_565 S
O619 Cd618 2.240 . S
O619 C624 1.279 . S
O620 Cd617 2.297 . S
O620 C622 1.247 . S
O621 Cd617 2.439 . S
O621 C622 1.208 . S
C622 O620 1.247 . S
C622 O621 1.208 . S
C623 O628 1.308 . S
C623 O629 1.208 . S
C624 O616 1.315 . S
C624 O619 1.279 . S
C625 O626 1.315 . S
C625 O627 1.279 . S
O626 Cd618 2.223 . S
O626 C625 1.315 . S
O627 Cd617 2.240 1_565 S
O627 C625 1.279 . S
O628 Cd618 2.274 1_545 S
O628 C623 1.308 . S
O629 Cd618 2.439 1_545 S
O629 C623 1.208 . S
O630 Cd631 2.223 . S
O630 C638 1.315 . S
Cd631 O630 2.223 . S
Cd631 O634 2.297 . S
Cd631 O635 2.439 . S
Cd631 O641 2.240 . S
Cd632 O633 2.240 . S
Cd632 O640 2.223 . S
Cd632 O642 2.297 . S
Cd632 O643 2.439 . S
O633 Cd632 2.240 . S
O633 C638 1.279 . S
O634 Cd631 2.297 . S
O634 C636 1.247 . S
O635 Cd631 2.439 . S
O635 C636 1.208 . S
C636 O634 1.247 . S
C636 O635 1.208 . S
C637 O642 1.247 . S
C637 O643 1.208 . S
C638 O630 1.315 . S
C638 O633 1.279 . S
C639 O640 1.315 . S
C639 O641 1.279 . S
O640 Cd632 2.223 . S
O640 C639 1.315 . S
O641 Cd631 2.240 . S
O641 C639 1.279 . S
O642 Cd632 2.297 . S
O642 C637 1.247 . S
O643 Cd632 2.439 . S
O643 C637 1.208 . S
O644 Cd645 2.223 1_565 S
O644 C652 1.315 . S
Cd645 O644 2.223 1_545 S
Cd645 O648 2.297 . S
Cd645 O649 2.439 . S
Cd645 O655 2.240 1_545 S
Cd646 O647 2.240 . S
Cd646 O654 2.223 . S
Cd646 O656 2.286 1_565 S
Cd646 O657 2.439 1_565 S
O647 Cd646 2.240 . S
O647 C652 1.279 . S
O648 Cd645 2.297 . S
O648 C650 1.247 . S
O649 Cd645 2.439 . S
O649 C650 1.208 . S
C650 O648 1.247 . S
C650 O649 1.208 . S
C651 O656 1.277 . S
C651 O657 1.208 . S
C652 O644 1.315 . S
C652 O647 1.279 . S
C653 O654 1.315 . S
C653 O655 1.279 . S
O654 Cd646 2.223 . S
O654 C653 1.315 . S
O655 Cd645 2.240 1_565 S
O655 C653 1.279 . S
O656 Cd646 2.286 1_545 S
O656 C651 1.277 . S
O657 Cd646 2.439 1_545 S
O657 C651 1.208 . S
O658 Cd659 2.223 . S
O658 C666 1.315 . S
Cd659 O658 2.223 . S
Cd659 O662 2.297 . S
Cd659 O663 2.439 . S
Cd659 O669 2.240 . S
Cd660 O661 2.240 . S
Cd660 O668 2.223 . S
Cd660 O670 2.297 . S
Cd660 O671 2.439 . S
O661 Cd660 2.240 . S
O661 C666 1.279 . S
O662 Cd659 2.297 . S
O662 C664 1.247 . S
O663 Cd659 2.439 . S
O663 C664 1.208 . S
C664 O662 1.247 . S
C664 O663 1.208 . S
C665 O670 1.247 . S
C665 O671 1.208 . S
C666 O658 1.315 . S
C666 O661 1.279 . S
C667 O668 1.315 . S
C667 O669 1.279 . S
O668 Cd660 2.223 . S
O668 C667 1.315 . S
O669 Cd659 2.240 . S
O669 C667 1.279 . S
O670 Cd660 2.297 . S
O670 C665 1.247 . S
O671 Cd660 2.439 . S
O671 C665 1.208 . S
C672 C673 1.349 . S
C672 C674 1.327 . S
C672 H697 0.950 . S
C673 C672 1.349 . S
C673 C689 1.349 . S
C674 C672 1.327 . S
C674 C693 1.429 . S
C674 H698 0.950 . S
C675 C692 1.574 . S
C675 C694 1.368 . S
C675 H699 0.949 . S
H676 C680 0.949 . S
C677 C678 1.349 . S
C677 C679 1.327 . S
C677 H700 0.950 . S
C678 C677 1.349 . S
C678 C690 1.349 . S
C679 C677 1.327 . S
C679 C695 1.429 . S
C679 H701 0.950 . S
C680 H676 0.949 . S
C680 C688 1.574 . S
C680 C696 1.368 . S
H681 C689 0.950 . S
H682 C687 0.950 . S
H683 C688 0.949 . S
H684 C690 0.950 . S
H685 C691 0.950 . S
H686 C692 0.949 . S
C687 H682 0.950 . S
C687 C689 1.327 . S
C687 C693 1.429 . S
C688 C680 1.574 . S
C688 H683 0.949 . S
C688 C694 1.368 . S
C689 C673 1.349 . S
C689 H681 0.950 . S
C689 C687 1.327 . S
C690 C678 1.349 . S
C690 H684 0.950 . S
C690 C691 1.327 . S
C691 H685 0.950 . S
C691 C690 1.327 . S
C691 C695 1.429 . S
C692 C675 1.574 . S
C692 H686 0.949 . S
C692 C696 1.368 . S
C693 C674 1.429 . S
C693 C687 1.429 . S
C693 C694 1.523 . S
C694 C675 1.368 . S
C694 C688 1.368 . S
C694 C693 1.523 . S
C695 C679 1.429 . S
C695 C691 1.429 . S
C695 C696 1.523 . S
C696 C680 1.368 . S
C696 C692 1.368 . S
C696 C695 1.523 . S
H697 C672 0.950 . S
H698 C674 0.950 . S
H699 C675 0.949 . S
H700 C677 0.950 . S
H701 C679 0.950 . S
C702 C703 1.349 . S
C702 C704 1.327 . S
C702 H727 0.950 . S
C703 C702 1.349 . S
C703 C719 1.349 . S
C704 C702 1.327 . S
C704 C723 1.429 . S
C704 H728 0.950 . S
C705 C722 1.574 . S
C705 C724 1.368 . S
C705 H729 0.949 . S
H706 C710 0.949 . S
C707 C708 1.349 . S
C707 C709 1.327 . S
C707 H730 0.950 . S
C708 C707 1.349 . S
C708 C720 1.349 . S
C709 C707 1.327 . S
C709 C725 1.429 . S
C709 H731 0.950 . S
C710 H706 0.949 . S
C710 C718 1.574 . S
C710 C726 1.368 . S
H711 C719 0.950 . S
H712 C717 0.950 . S
H713 C718 0.949 . S
H714 C720 0.950 . S
H715 C721 0.950 . S
H716 C722 0.949 1_556 S
C717 H712 0.950 . S
C717 C719 1.327 . S
C717 C723 1.429 . S
C718 C710 1.574 . S
C718 H713 0.949 . S
C718 C724 1.368 . S
C719 C703 1.349 . S
C719 H711 0.950 . S
C719 C717 1.327 . S
C720 C708 1.349 . S
C720 H714 0.950 . S
C720 C721 1.327 . S
C721 H715 0.950 . S
C721 C720 1.327 . S
C721 C725 1.429 . S
C722 C705 1.574 . S
C722 H716 0.949 1_554 S
C722 C726 1.368 . S
C723 C704 1.429 . S
C723 C717 1.429 . S
C723 C724 1.523 . S
C724 C705 1.368 . S
C724 C718 1.368 . S
C724 C723 1.523 . S
C725 C709 1.429 . S
C725 C721 1.429 . S
C725 C726 1.523 1_556 S
C726 C710 1.368 . S
C726 C722 1.368 . S
C726 C725 1.523 1_554 S
H727 C702 0.950 . S
H728 C704 0.950 . S
H729 C705 0.949 . S
H730 C707 0.950 . S
H731 C709 0.950 . S
C732 C733 1.349 . S
C732 C734 1.327 . S
C732 H757 0.950 . S
C733 C732 1.349 . S
C733 C749 1.349 . S
C734 C732 1.327 . S
C734 C753 1.429 . S
C734 H758 0.950 . S
C735 C752 1.574 . S
C735 C754 1.368 . S
C735 H759 0.949 . S
H736 C740 0.949 . S
C737 C738 1.349 . S
C737 C739 1.327 . S
C737 H760 0.950 . S
C738 C737 1.349 . S
C738 C750 1.349 . S
C739 C737 1.327 . S
C739 C755 1.429 . S
C739 H761 0.950 . S
C740 H736 0.949 . S
C740 C748 1.574 . S
C740 C756 1.368 . S
H741 C749 0.950 . S
H742 C747 0.950 . S
H743 C748 0.949 . S
H744 C750 0.950 . S
H745 C751 0.950 . S
H746 C752 0.949 . S
C747 H742 0.950 . S
C747 C749 1.327 . S
C747 C753 1.429 . S
C748 C740 1.574 . S
C748 H743 0.949 . S
C748 C754 1.368 . S
C749 C733 1.349 . S
C749 H741 0.950 . S
C749 C747 1.327 . S
C750 C738 1.349 . S
C750 H744 0.950 . S
C750 C751 1.327 . S
C751 H745 0.950 . S
C751 C750 1.327 . S
C751 C755 1.429 . S
C752 C735 1.574 . S
C752 H746 0.949 . S
C752 C756 1.368 . S
C753 C734 1.429 . S
C753 C747 1.429 . S
C753 C754 1.523 . S
C754 C735 1.368 . S
C754 C748 1.368 . S
C754 C753 1.523 . S
C755 C739 1.429 . S
C755 C751 1.429 . S
C755 C756 1.523 . S
C756 C740 1.368 . S
C756 C752 1.368 . S
C756 C755 1.523 . S
H757 C732 0.950 . S
H758 C734 0.950 . S
H759 C735 0.949 . S
H760 C737 0.950 . S
H761 C739 0.950 . S
C762 C763 1.349 . S
C762 C764 1.327 . S
C762 H787 0.950 . S
C763 C762 1.349 . S
C763 C779 1.349 . S
C764 C762 1.327 . S
C764 C783 1.429 . S
C764 H788 0.950 1_556 S
C765 C782 1.574 . S
C765 C784 1.368 . S
C765 H789 0.949 1_554 S
H766 C770 0.949 . S
C767 C768 1.349 . S
C767 C769 1.327 . S
C767 H790 0.950 . S
C768 C767 1.349 . S
C768 C780 1.349 . S
C769 C767 1.327 . S
C769 C785 1.429 . S
C769 H791 0.950 . S
C770 H766 0.949 . S
C770 C778 1.574 . S
C770 C786 1.368 . S
H771 C779 0.950 . S
H772 C777 0.950 . S
H773 C778 0.949 . S
H774 C780 0.950 . S
H775 C781 0.950 . S
H776 C782 0.949 . S
C777 H772 0.950 . S
C777 C779 1.327 . S
C777 C783 1.429 . S
C778 C770 1.574 . S
C778 H773 0.949 . S
C778 C784 1.368 . S
C779 C763 1.349 . S
C779 H771 0.950 . S
C779 C777 1.327 . S
C780 C768 1.349 . S
C780 H774 0.950 . S
C780 C781 1.327 . S
C781 H775 0.950 . S
C781 C780 1.327 . S
C781 C785 1.429 . S
C782 C765 1.574 . S
C782 H776 0.949 . S
C782 C786 1.368 . S
C783 C764 1.429 . S
C783 C777 1.429 . S
C783 C784 1.523 1_556 S
C784 C765 1.368 . S
C784 C778 1.368 . S
C784 C783 1.523 1_554 S
C785 C769 1.429 . S
C785 C781 1.429 . S
C785 C786 1.523 . S
C786 C770 1.368 . S
C786 C782 1.368 . S
C786 C785 1.523 . S
H787 C762 0.950 . S
H788 C764 0.950 1_554 S
H789 C765 0.949 1_556 S
H790 C767 0.950 . S
H791 C769 0.950 . S
C792 C793 1.349 . S
C792 C794 1.327 . S
C792 H817 0.950 . S
C793 C792 1.349 . S
C793 C809 1.349 . S
C794 C792 1.327 . S
C794 C813 1.429 . S
C794 H818 0.950 . S
C795 C812 1.574 . S
C795 C814 1.368 . S
C795 H819 0.949 . S
H796 C800 0.949 . S
C797 C798 1.349 . S
C797 C799 1.327 . S
C797 H820 0.950 . S
C798 C797 1.349 . S
C798 C810 1.349 . S
C799 C797 1.327 . S
C799 C815 1.429 . S
C799 H821 0.950 . S
C800 H796 0.949 . S
C800 C808 1.574 . S
C800 C816 1.368 . S
H801 C809 0.950 . S
H802 C807 0.950 . S
H803 C808 0.949 . S
H804 C810 0.950 . S
H805 C811 0.950 . S
H806 C812 0.949 . S
C807 H802 0.950 . S
C807 C809 1.327 . S
C807 C813 1.429 . S
C808 C800 1.574 . S
C808 H803 0.949 . S
C808 C814 1.368 . S
C809 C793 1.349 . S
C809 H801 0.950 . S
C809 C807 1.327 . S
C810 C798 1.349 . S
C810 H804 0.950 . S
C810 C811 1.327 . S
C811 H805 0.950 . S
C811 C810 1.327 . S
C811 C815 1.429 . S
C812 C795 1.574 . S
C812 H806 0.949 . S
C812 C816 1.368 . S
C813 C794 1.429 . S
C813 C807 1.429 . S
C813 C814 1.523 . S
C814 C795 1.368 . S
C814 C808 1.368 . S
C814 C813 1.523 . S
C815 C799 1.429 . S
C815 C811 1.429 . S
C815 C816 1.523 . S
C816 C800 1.368 . S
C816 C812 1.368 . S
C816 C815 1.523 . S
H817 C792 0.950 . S
H818 C794 0.950 . S
H819 C795 0.949 . S
H820 C797 0.950 . S
H821 C799 0.950 . S
C822 C823 1.349 . S
C822 C824 1.327 . S
C822 H847 0.950 . S
C823 C822 1.349 . S
C823 C839 1.349 . S
C824 C822 1.327 . S
C824 C843 1.400 1_554 S
C824 H848 0.950 . S
C825 C842 1.574 . S
C825 C844 1.368 . S
C825 H849 0.949 . S
H826 C830 0.949 . S
C827 C828 1.349 . S
C827 C829 1.327 . S
C827 H850 0.950 . S
C828 C827 1.349 . S
C828 C840 1.349 . S
C829 C827 1.327 . S
C829 C845 1.429 . S
C829 H851 0.950 . S
C830 H826 0.949 . S
C830 C838 1.574 . S
C830 C846 1.368 . S
H831 C839 0.950 . S
H832 C837 0.950 . S
H833 C838 0.949 1_554 S
H834 C840 0.950 . S
H835 C841 0.950 . S
H836 C842 0.949 . S
C837 H832 0.950 . S
C837 C839 1.327 1_556 S
C837 C843 1.437 . S
C838 C830 1.574 . S
C838 H833 0.949 1_556 S
C838 C844 1.368 . S
C839 C823 1.349 . S
C839 H831 0.950 . S
C839 C837 1.327 1_554 S
C840 C828 1.349 . S
C840 H834 0.950 . S
C840 C841 1.327 . S
C841 H835 0.950 . S
C841 C840 1.327 . S
C841 C845 1.429 . S
C842 C825 1.574 . S
C842 H836 0.949 . S
C842 C846 1.368 . S
C843 C824 1.400 1_556 S
C843 C837 1.437 . S
C843 C844 1.542 . S
C844 C825 1.368 . S
C844 C838 1.368 . S
C844 C843 1.542 . S
C845 C829 1.429 . S
C845 C841 1.429 . S
C845 C846 1.523 . S
C846 C830 1.368 . S
C846 C842 1.368 . S
C846 C845 1.523 . S
H847 C822 0.950 . S
H848 C824 0.950 . S
H849 C825 0.949 . S
H850 C827 0.950 . S
H851 C829 0.950 . S
C852 C853 1.349 . S
C852 C854 1.327 . S
C852 H877 0.950 . S
C853 C852 1.349 . S
C853 C869 1.349 . S
C854 C852 1.327 . S
C854 C873 1.429 . S
C854 H878 0.950 . S
C855 C872 1.574 . S
C855 C874 1.368 . S
C855 H879 0.949 . S
H856 C860 0.949 . S
C857 C858 1.349 . S
C857 C859 1.327 . S
C857 H880 0.950 . S
C858 C857 1.349 . S
C858 C870 1.349 . S
C859 C857 1.327 . S
C859 C875 1.429 . S
C859 H881 0.950 . S
C860 H856 0.949 . S
C860 C868 1.574 . S
C860 C876 1.368 . S
H861 C869 0.950 . S
H862 C867 0.950 . S
H863 C868 0.949 . S
H864 C870 0.950 . S
H865 C871 0.950 . S
H866 C872 0.949 . S
C867 H862 0.950 . S
C867 C869 1.327 . S
C867 C873 1.429 . S
C868 C860 1.574 . S
C868 H863 0.949 . S
C868 C874 1.368 . S
C869 C853 1.349 . S
C869 H861 0.950 . S
C869 C867 1.327 . S
C870 C858 1.349 . S
C870 H864 0.950 . S
C870 C871 1.327 . S
C871 H865 0.950 . S
C871 C870 1.327 . S
C871 C875 1.429 . S
C872 C855 1.574 . S
C872 H866 0.949 . S
C872 C876 1.368 . S
C873 C854 1.429 . S
C873 C867 1.429 . S
C873 C874 1.523 . S
C874 C855 1.368 . S
C874 C868 1.368 . S
C874 C873 1.523 . S
C875 C859 1.429 . S
C875 C871 1.429 . S
C875 C876 1.523 . S
C876 C860 1.368 . S
C876 C872 1.368 . S
C876 C875 1.523 . S
H877 C852 0.950 . S
H878 C854 0.950 . S
H879 C855 0.949 . S
H880 C857 0.950 . S
H881 C859 0.950 . S
C882 C883 1.349 . S
C882 C884 1.327 . S
C882 H907 0.950 . S
C883 C882 1.349 . S
C883 C899 1.349 . S
C884 C882 1.327 . S
C884 C903 1.429 . S
C884 H908 0.950 . S
C885 C902 1.574 . S
C885 C904 1.368 . S
C885 H909 0.949 . S
H886 C890 0.949 . S
C887 C888 1.349 . S
C887 C889 1.327 . S
C887 H910 0.950 . S
C888 C887 1.349 . S
C888 C900 1.349 . S
C889 C887 1.327 . S
C889 C905 1.429 1_554 S
C889 H911 0.950 . S
C890 H886 0.949 . S
C890 C898 1.574 . S
C890 C906 1.368 . S
H891 C899 0.950 . S
H892 C897 0.950 . S
H893 C898 0.949 . S
H894 C900 0.950 . S
H895 C901 0.950 1_556 S
H896 C902 0.949 . S
C897 H892 0.950 . S
C897 C899 1.327 . S
C897 C903 1.429 . S
C898 C890 1.574 . S
C898 H893 0.949 . S
C898 C904 1.368 . S
C899 C883 1.349 . S
C899 H891 0.950 . S
C899 C897 1.327 . S
C900 C888 1.349 . S
C900 H894 0.950 . S
C900 C901 1.327 . S
C901 H895 0.950 1_554 S
C901 C900 1.327 . S
C901 C905 1.429 1_554 S
C902 C885 1.574 . S
C902 H896 0.949 . S
C902 C906 1.368 . S
C903 C884 1.429 . S
C903 C897 1.429 . S
C903 C904 1.523 . S
C904 C885 1.368 . S
C904 C898 1.368 . S
C904 C903 1.523 . S
C905 C889 1.429 1_556 S
C905 C901 1.429 1_556 S
C905 C906 1.523 . S
C906 C890 1.368 . S
C906 C902 1.368 . S
C906 C905 1.523 . S
H907 C882 0.950 . S
H908 C884 0.950 . S
H909 C885 0.949 . S
H910 C887 0.950 . S
H911 C889 0.950 . S
C912 C913 1.349 . S
C912 C914 1.327 . S
C912 H937 0.950 . S
C913 C912 1.349 . S
C913 C929 1.349 . S
C914 C912 1.327 . S
C914 C933 1.429 . S
C914 H938 0.950 . S
C915 C932 1.574 . S
C915 C934 1.368 . S
C915 H939 0.949 . S
H916 C920 0.949 . S
C917 C918 1.349 . S
C917 C919 1.327 . S
C917 H940 0.950 . S
C918 C917 1.349 . S
C918 C930 1.349 . S
C919 C917 1.327 . S
C919 C935 1.429 . S
C919 H941 0.950 . S
C920 H916 0.949 . S
C920 C928 1.574 . S
C920 C936 1.368 . S
H921 C929 0.950 . S
H922 C927 0.950 . S
H923 C928 0.949 . S
H924 C930 0.950 . S
H925 C931 0.950 . S
H926 C932 0.949 . S
C927 H922 0.950 . S
C927 C929 1.327 . S
C927 C933 1.429 . S
C928 C920 1.574 . S
C928 H923 0.949 . S
C928 C934 1.368 . S
C929 C913 1.349 . S
C929 H921 0.950 . S
C929 C927 1.327 . S
C930 C918 1.349 . S
C930 H924 0.950 . S
C930 C931 1.327 . S
C931 H925 0.950 . S
C931 C930 1.327 . S
C931 C935 1.429 . S
C932 C915 1.574 . S
C932 H926 0.949 . S
C932 C936 1.368 . S
C933 C914 1.429 . S
C933 C927 1.429 . S
C933 C934 1.523 . S
C934 C915 1.368 . S
C934 C928 1.368 . S
C934 C933 1.523 . S
C935 C919 1.429 . S
C935 C931 1.429 . S
C935 C936 1.523 . S
C936 C920 1.368 . S
C936 C932 1.368 . S
C936 C935 1.523 . S
H937 C912 0.950 . S
H938 C914 0.950 . S
H939 C915 0.949 . S
H940 C917 0.950 . S
H941 C919 0.950 . S
C942 C943 1.349 . S
C942 C944 1.327 . S
C942 H967 0.950 . S
C943 C942 1.349 . S
C943 C959 1.349 . S
C944 C942 1.327 . S
C944 C963 1.429 . S
C944 H968 0.950 . S
C945 C962 1.574 . S
C945 C964 1.368 . S
C945 H969 0.949 . S
H946 C950 0.949 . S
C947 C948 1.349 . S
C947 C949 1.327 . S
C947 H970 0.950 . S
C948 C947 1.349 . S
C948 C960 1.349 . S
C949 C947 1.327 . S
C949 C965 1.429 . S
C949 H971 0.950 . S
C950 H946 0.949 . S
C950 C958 1.574 . S
C950 C966 1.368 . S
H951 C959 0.950 . S
H952 C957 0.950 . S
H953 C958 0.949 . S
H954 C960 0.950 . S
H955 C961 0.950 . S
H956 C962 0.949 . S
C957 H952 0.950 . S
C957 C959 1.327 . S
C957 C963 1.429 . S
C958 C950 1.574 . S
C958 H953 0.949 . S
C958 C964 1.368 . S
C959 C943 1.349 . S
C959 H951 0.950 . S
C959 C957 1.327 . S
C960 C948 1.349 . S
C960 H954 0.950 . S
C960 C961 1.327 . S
C961 H955 0.950 . S
C961 C960 1.327 . S
C961 C965 1.429 . S
C962 C945 1.574 . S
C962 H956 0.949 . S
C962 C966 1.368 . S
C963 C944 1.429 . S
C963 C957 1.429 . S
C963 C964 1.523 . S
C964 C945 1.368 . S
C964 C958 1.368 . S
C964 C963 1.523 . S
C965 C949 1.429 . S
C965 C961 1.429 . S
C965 C966 1.523 . S
C966 C950 1.368 . S
C966 C962 1.368 . S
C966 C965 1.523 . S
H967 C942 0.950 . S
H968 C944 0.950 . S
H969 C945 0.949 . S
H970 C947 0.950 . S
H971 C949 0.950 . S
C972 C973 1.349 . S
C972 C974 1.327 . S
C972 H997 0.950 . S
C973 C972 1.349 . S
C973 C989 1.349 . S
C974 C972 1.327 . S
C974 C993 1.429 . S
C974 H998 0.950 . S
C975 C992 1.574 . S
C975 C994 1.368 . S
C975 H999 0.949 . S
H976 C980 0.949 . S
C977 C978 1.349 . S
C977 C979 1.327 . S
C977 H1000 0.950 . S
C978 C977 1.349 . S
C978 C990 1.349 . S
C979 C977 1.327 . S
C979 C995 1.429 . S
C979 H1001 0.950 . S
C980 H976 0.949 . S
C980 C988 1.574 . S
C980 C996 1.368 . S
H981 C989 0.950 . S
H982 C987 0.950 . S
H983 C988 0.949 . S
H984 C990 0.950 . S
H985 C991 0.950 . S
H986 C992 0.949 . S
C987 H982 0.950 . S
C987 C989 1.327 . S
C987 C993 1.429 . S
C988 C980 1.574 . S
C988 H983 0.949 . S
C988 C994 1.368 . S
C989 C973 1.349 . S
C989 H981 0.950 . S
C989 C987 1.327 . S
C990 C978 1.349 . S
C990 H984 0.950 . S
C990 C991 1.327 . S
C991 H985 0.950 . S
C991 C990 1.327 . S
C991 C995 1.429 . S
C992 C975 1.574 . S
C992 H986 0.949 . S
C992 C996 1.368 . S
C993 C974 1.429 . S
C993 C987 1.429 . S
C993 C994 1.523 . S
C994 C975 1.368 . S
C994 C988 1.368 . S
C994 C993 1.523 . S
C995 C979 1.429 . S
C995 C991 1.429 . S
C995 C996 1.523 . S
C996 C980 1.368 . S
C996 C992 1.368 . S
C996 C995 1.523 . S
H997 C972 0.950 . S
H998 C974 0.950 . S
H999 C975 0.949 . S
H1000 C977 0.950 . S
H1001 C979 0.950 . S
C1002 C1003 1.349 . S
C1002 C1004 1.327 . S
C1002 H1027 0.950 . S
C1003 C1002 1.349 . S
C1003 C1019 1.349 . S
C1004 C1002 1.327 . S
C1004 C1023 1.429 . S
C1004 H1028 0.950 . S
C1005 C1022 1.574 1_565 S
C1005 C1024 1.368 . S
C1005 H1029 0.949 . S
H1006 C1010 0.949 . S
C1007 C1008 1.349 . S
C1007 C1009 1.327 . S
C1007 H1030 0.950 . S
C1008 C1007 1.349 . S
C1008 C1020 1.349 . S
C1009 C1007 1.327 . S
C1009 C1025 1.429 . S
C1009 H1031 0.950 . S
C1010 H1006 0.949 . S
C1010 C1018 1.574 . S
C1010 C1026 1.368 1_565 S
H1011 C1019 0.950 . S
H1012 C1017 0.950 . S
H1013 C1018 0.949 . S
H1014 C1020 0.950 . S
H1015 C1021 0.950 . S
H1016 C1022 0.949 . S
C1017 H1012 0.950 . S
C1017 C1019 1.327 . S
C1017 C1023 1.429 . S
C1018 C1010 1.574 . S
C1018 H1013 0.949 . S
C1018 C1024 1.368 . S
C1019 C1003 1.349 . S
C1019 H1011 0.950 . S
C1019 C1017 1.327 . S
C1020 C1008 1.349 . S
C1020 H1014 0.950 . S
C1020 C1021 1.327 . S
C1021 H1015 0.950 . S
C1021 C1020 1.327 . S
C1021 C1025 1.429 . S
C1022 C1005 1.574 1_545 S
C1022 H1016 0.949 . S
C1022 C1026 1.368 . S
C1023 C1004 1.429 . S
C1023 C1017 1.429 . S
C1023 C1024 1.523 . S
C1024 C1005 1.368 . S
C1024 C1018 1.368 . S
C1024 C1023 1.523 . S
C1025 C1009 1.429 . S
C1025 C1021 1.429 . S
C1025 C1026 1.523 . S
C1026 C1010 1.368 1_545 S
C1026 C1022 1.368 . S
C1026 C1025 1.523 . S
H1027 C1002 0.950 . S
H1028 C1004 0.950 . S
H1029 C1005 0.949 . S
H1030 C1007 0.950 . S
H1031 C1009 0.950 . S
C1032 C1033 1.349 . S
C1032 C1034 1.327 . S
C1032 H1057 0.950 . S
C1033 C1032 1.349 . S
C1033 C1049 1.349 . S
C1034 C1032 1.327 . S
C1034 C1053 1.429 . S
C1034 H1058 0.950 . S
C1035 C1052 1.574 . S
C1035 C1054 1.368 . S
C1035 H1059 0.949 . S
H1036 C1040 0.949 . S
C1037 C1038 1.349 . S
C1037 C1039 1.327 . S
C1037 H1060 0.950 . S
C1038 C1037 1.349 . S
C1038 C1050 1.349 . S
C1039 C1037 1.327 . S
C1039 C1055 1.429 . S
C1039 H1061 0.950 . S
C1040 H1036 0.949 . S
C1040 C1048 1.574 . S
C1040 C1056 1.368 . S
H1041 C1049 0.950 . S
H1042 C1047 0.950 . S
H1043 C1048 0.949 . S
H1044 C1050 0.950 . S
H1045 C1051 0.950 . S
H1046 C1052 0.949 . S
C1047 H1042 0.950 . S
C1047 C1049 1.327 . S
C1047 C1053 1.429 . S
C1048 C1040 1.574 . S
C1048 H1043 0.949 . S
C1048 C1054 1.368 . S
C1049 C1033 1.349 . S
C1049 H1041 0.950 . S
C1049 C1047 1.327 . S
C1050 C1038 1.349 . S
C1050 H1044 0.950 . S
C1050 C1051 1.327 . S
C1051 H1045 0.950 . S
C1051 C1050 1.327 . S
C1051 C1055 1.429 . S
C1052 C1035 1.574 . S
C1052 H1046 0.949 . S
C1052 C1056 1.368 . S
C1053 C1034 1.429 . S
C1053 C1047 1.429 . S
C1053 C1054 1.523 . S
C1054 C1035 1.368 . S
C1054 C1048 1.368 . S
C1054 C1053 1.523 . S
C1055 C1039 1.429 . S
C1055 C1051 1.429 . S
C1055 C1056 1.523 . S
C1056 C1040 1.368 . S
C1056 C1052 1.368 . S
C1056 C1055 1.523 . S
H1057 C1032 0.950 . S
H1058 C1034 0.950 . S
H1059 C1035 0.949 . S
H1060 C1037 0.950 . S
H1061 C1039 0.950 . S
C1062 C1063 1.349 . S
C1062 C1064 1.327 . S
C1062 H1087 0.950 1_554 S
C1063 C1062 1.349 . S
C1063 C1079 1.349 . S
C1064 C1062 1.327 . S
C1064 C1083 1.429 . S
C1064 H1088 0.950 . S
C1065 C1082 1.574 . S
C1065 C1084 1.368 . S
C1065 H1089 0.949 . S
H1066 C1070 0.949 . S
C1067 C1068 1.349 . S
C1067 C1069 1.327 . S
C1067 H1090 0.950 . S
C1068 C1067 1.349 . S
C1068 C1080 1.349 . S
C1069 C1067 1.327 . S
C1069 C1085 1.429 . S
C1069 H1091 0.950 . S
C1070 H1066 0.949 . S
C1070 C1078 1.574 . S
C1070 C1086 1.368 . S
H1071 C1079 0.950 . S
H1072 C1077 0.950 . S
H1073 C1078 0.949 . S
H1074 C1080 0.950 . S
H1075 C1081 0.950 . S
H1076 C1082 0.949 . S
C1077 H1072 0.950 . S
C1077 C1079 1.327 . S
C1077 C1083 1.429 . S
C1078 C1070 1.574 . S
C1078 H1073 0.949 . S
C1078 C1084 1.368 . S
C1079 C1063 1.349 . S
C1079 H1071 0.950 . S
C1079 C1077 1.327 . S
C1080 C1068 1.349 . S
C1080 H1074 0.950 . S
C1080 C1081 1.327 . S
C1081 H1075 0.950 . S
C1081 C1080 1.327 . S
C1081 C1085 1.429 . S
C1082 C1065 1.574 . S
C1082 H1076 0.949 . S
C1082 C1086 1.368 . S
C1083 C1064 1.429 . S
C1083 C1077 1.429 . S
C1083 C1084 1.523 . S
C1084 C1065 1.368 . S
C1084 C1078 1.368 . S
C1084 C1083 1.523 . S
C1085 C1069 1.429 . S
C1085 C1081 1.429 . S
C1085 C1086 1.523 . S
C1086 C1070 1.368 . S
C1086 C1082 1.368 . S
C1086 C1085 1.523 . S
H1087 C1062 0.950 1_556 S
H1088 C1064 0.950 . S
H1089 C1065 0.949 . S
H1090 C1067 0.950 . S
H1091 C1069 0.950 . S
C1092 C1093 1.349 . S
C1092 C1094 1.327 . S
C1092 H1117 0.950 . S
C1093 C1092 1.349 . S
C1093 C1109 1.349 . S
C1094 C1092 1.327 . S
C1094 C1113 1.429 . S
C1094 H1118 0.950 . S
C1095 C1112 1.574 . S
C1095 C1114 1.368 . S
C1095 H1119 0.949 . S
H1096 C1100 0.949 . S
C1097 C1098 1.349 . S
C1097 C1099 1.327 . S
C1097 H1120 0.950 . S
C1098 C1097 1.349 . S
C1098 C1110 1.349 . S
C1099 C1097 1.327 . S
C1099 C1115 1.429 . S
C1099 H1121 0.950 . S
C1100 H1096 0.949 . S
C1100 C1108 1.574 . S
C1100 C1116 1.368 . S
H1101 C1109 0.950 . S
H1102 C1107 0.950 . S
H1103 C1108 0.949 . S
H1104 C1110 0.950 . S
H1105 C1111 0.950 . S
H1106 C1112 0.949 . S
C1107 H1102 0.950 . S
C1107 C1109 1.327 . S
C1107 C1113 1.429 . S
C1108 C1100 1.574 . S
C1108 H1103 0.949 . S
C1108 C1114 1.368 . S
C1109 C1093 1.349 . S
C1109 H1101 0.950 . S
C1109 C1107 1.327 . S
C1110 C1098 1.349 . S
C1110 H1104 0.950 . S
C1110 C1111 1.327 . S
C1111 H1105 0.950 . S
C1111 C1110 1.327 . S
C1111 C1115 1.429 . S
C1112 C1095 1.574 . S
C1112 H1106 0.949 . S
C1112 C1116 1.368 . S
C1113 C1094 1.429 . S
C1113 C1107 1.429 . S
C1113 C1114 1.523 . S
C1114 C1095 1.368 . S
C1114 C1108 1.368 . S
C1114 C1113 1.523 . S
C1115 C1099 1.429 . S
C1115 C1111 1.429 . S
C1115 C1116 1.523 . S
C1116 C1100 1.368 . S
C1116 C1112 1.368 . S
C1116 C1115 1.523 . S
H1117 C1092 0.950 . S
H1118 C1094 0.950 . S
H1119 C1095 0.949 . S
H1120 C1097 0.950 . S
H1121 C1099 0.950 . S
C1122 C1123 1.349 . S
C1122 C1124 1.327 . S
C1122 H1147 0.950 1_554 S
C1123 C1122 1.349 . S
C1123 C1139 1.349 . S
C1124 C1122 1.327 . S
C1124 C1143 1.429 . S
C1124 H1148 0.950 . S
C1125 C1142 1.574 . S
C1125 C1144 1.368 . S
C1125 H1149 0.949 1_565 S
H1126 C1130 0.949 . S
C1127 C1128 1.349 . S
C1127 C1129 1.327 . S
C1127 H1150 0.950 . S
C1128 C1127 1.349 . S
C1128 C1140 1.349 . S
C1129 C1127 1.327 . S
C1129 C1145 1.429 . S
C1129 H1151 0.950 . S
C1130 H1126 0.949 . S
C1130 C1138 1.574 . S
C1130 C1146 1.368 . S
H1131 C1139 0.950 . S
H1132 C1137 0.950 . S
H1133 C1138 0.949 . S
H1134 C1140 0.950 . S
H1135 C1141 0.950 . S
H1136 C1142 0.949 . S
C1137 H1132 0.950 . S
C1137 C1139 1.327 . S
C1137 C1143 1.429 . S
C1138 C1130 1.574 . S
C1138 H1133 0.949 . S
C1138 C1144 1.368 . S
C1139 C1123 1.349 . S
C1139 H1131 0.950 . S
C1139 C1137 1.327 . S
C1140 C1128 1.349 . S
C1140 H1134 0.950 . S
C1140 C1141 1.327 . S
C1141 H1135 0.950 . S
C1141 C1140 1.327 . S
C1141 C1145 1.429 . S
C1142 C1125 1.574 . S
C1142 H1136 0.949 . S
C1142 C1146 1.368 . S
C1143 C1124 1.429 . S
C1143 C1137 1.429 . S
C1143 C1144 1.523 1_545 S
C1144 C1125 1.368 . S
C1144 C1138 1.368 . S
C1144 C1143 1.523 1_565 S
C1145 C1129 1.429 . S
C1145 C1141 1.429 . S
C1145 C1146 1.523 . S
C1146 C1130 1.368 . S
C1146 C1142 1.368 . S
C1146 C1145 1.523 . S
H1147 C1122 0.950 1_556 S
H1148 C1124 0.950 . S
H1149 C1125 0.949 1_545 S
H1150 C1127 0.950 . S
H1151 C1129 0.950 . S
C1152 C1153 1.349 . S
C1152 C1154 1.327 . S
C1152 H1177 0.950 . S
C1153 C1152 1.349 . S
C1153 C1169 1.349 . S
C1154 C1152 1.327 . S
C1154 C1173 1.429 . S
C1154 H1178 0.950 . S
C1155 C1172 1.574 . S
C1155 C1174 1.368 . S
C1155 H1179 0.949 . S
H1156 C1160 0.949 . S
C1157 C1158 1.349 . S
C1157 C1159 1.327 . S
C1157 H1180 0.950 . S
C1158 C1157 1.349 . S
C1158 C1170 1.349 . S
C1159 C1157 1.327 . S
C1159 C1175 1.429 . S
C1159 H1181 0.950 . S
C1160 H1156 0.949 . S
C1160 C1168 1.574 . S
C1160 C1176 1.368 . S
H1161 C1169 0.950 . S
H1162 C1167 0.950 . S
H1163 C1168 0.949 . S
H1164 C1170 0.950 . S
H1165 C1171 0.950 . S
H1166 C1172 0.949 . S
C1167 H1162 0.950 . S
C1167 C1169 1.327 . S
C1167 C1173 1.429 . S
C1168 C1160 1.574 . S
C1168 H1163 0.949 . S
C1168 C1174 1.368 . S
C1169 C1153 1.349 . S
C1169 H1161 0.950 . S
C1169 C1167 1.327 . S
C1170 C1158 1.349 . S
C1170 H1164 0.950 . S
C1170 C1171 1.327 . S
C1171 H1165 0.950 . S
C1171 C1170 1.327 . S
C1171 C1175 1.429 . S
C1172 C1155 1.574 . S
C1172 H1166 0.949 . S
C1172 C1176 1.368 . S
C1173 C1154 1.429 . S
C1173 C1167 1.429 . S
C1173 C1174 1.523 . S
C1174 C1155 1.368 . S
C1174 C1168 1.368 . S
C1174 C1173 1.523 . S
C1175 C1159 1.429 . S
C1175 C1171 1.429 . S
C1175 C1176 1.523 . S
C1176 C1160 1.368 . S
C1176 C1172 1.368 . S
C1176 C1175 1.523 . S
H1177 C1152 0.950 . S
H1178 C1154 0.950 . S
H1179 C1155 0.949 . S
H1180 C1157 0.950 . S
H1181 C1159 0.950 . S
C1182 C1183 1.349 . S
C1182 C1184 1.327 . S
C1182 H1207 0.950 . S
C1183 C1182 1.349 . S
C1183 C1199 1.349 . S
C1184 C1182 1.327 . S
C1184 C1203 1.429 . S
C1184 H1208 0.950 . S
C1185 C1202 1.574 . S
C1185 C1204 1.368 . S
C1185 H1209 0.949 . S
H1186 C1190 0.949 . S
C1187 C1188 1.349 . S
C1187 C1189 1.327 . S
C1187 H1210 0.950 . S
C1188 C1187 1.349 . S
C1188 C1200 1.349 . S
C1189 C1187 1.327 . S
C1189 C1205 1.429 . S
C1189 H1211 0.950 . S
C1190 H1186 0.949 . S
C1190 C1198 1.574 . S
C1190 C1206 1.368 . S
H1191 C1199 0.950 . S
H1192 C1197 0.950 . S
H1193 C1198 0.949 . S
H1194 C1200 0.950 . S
H1195 C1201 0.950 . S
H1196 C1202 0.949 . S
C1197 H1192 0.950 . S
C1197 C1199 1.327 . S
C1197 C1203 1.429 . S
C1198 C1190 1.574 . S
C1198 H1193 0.949 . S
C1198 C1204 1.368 . S
C1199 C1183 1.349 . S
C1199 H1191 0.950 . S
C1199 C1197 1.327 . S
C1200 C1188 1.349 . S
C1200 H1194 0.950 . S
C1200 C1201 1.327 . S
C1201 H1195 0.950 . S
C1201 C1200 1.327 . S
C1201 C1205 1.429 . S
C1202 C1185 1.574 . S
C1202 H1196 0.949 . S
C1202 C1206 1.368 . S
C1203 C1184 1.429 . S
C1203 C1197 1.429 . S
C1203 C1204 1.523 . S
C1204 C1185 1.368 . S
C1204 C1198 1.368 . S
C1204 C1203 1.523 . S
C1205 C1189 1.429 . S
C1205 C1201 1.429 . S
C1205 C1206 1.523 . S
C1206 C1190 1.368 . S
C1206 C1202 1.368 . S
C1206 C1205 1.523 . S
H1207 C1182 0.950 . S
H1208 C1184 0.950 . S
H1209 C1185 0.949 . S
H1210 C1187 0.950 . S
H1211 C1189 0.950 . S
C1212 C1213 1.349 . S
C1212 C1214 1.327 . S
C1212 H1237 0.950 . S
C1213 C1212 1.349 . S
C1213 C1229 1.349 . S
C1214 C1212 1.327 . S
C1214 C1233 1.429 . S
C1214 H1238 0.950 . S
C1215 C1232 1.574 1_655 S
C1215 C1234 1.368 . S
C1215 H1239 0.949 . S
H1216 C1220 0.949 . S
C1217 C1218 1.349 . S
C1217 C1219 1.327 . S
C1217 H1240 0.950 . S
C1218 C1217 1.349 . S
C1218 C1230 1.349 . S
C1219 C1217 1.327 . S
C1219 C1235 1.429 . S
C1219 H1241 0.950 . S
C1220 H1216 0.949 . S
C1220 C1228 1.574 1_455 S
C1220 C1236 1.368 . S
H1221 C1229 0.950 . S
H1222 C1227 0.950 . S
H1223 C1228 0.949 . S
H1224 C1230 0.950 . S
H1225 C1231 0.950 . S
H1226 C1232 0.949 . S
C1227 H1222 0.950 . S
C1227 C1229 1.327 . S
C1227 C1233 1.429 . S
C1228 C1220 1.574 1_655 S
C1228 H1223 0.949 . S
C1228 C1234 1.368 . S
C1229 C1213 1.349 . S
C1229 H1221 0.950 . S
C1229 C1227 1.327 . S
C1230 C1218 1.349 . S
C1230 H1224 0.950 . S
C1230 C1231 1.327 . S
C1231 H1225 0.950 . S
C1231 C1230 1.327 . S
C1231 C1235 1.429 . S
C1232 C1215 1.574 1_455 S
C1232 H1226 0.949 . S
C1232 C1236 1.368 . S
C1233 C1214 1.429 . S
C1233 C1227 1.429 . S
C1233 C1234 1.523 . S
C1234 C1215 1.368 . S
C1234 C1228 1.368 . S
C1234 C1233 1.523 . S
C1235 C1219 1.429 . S
C1235 C1231 1.429 . S
C1235 C1236 1.523 . S
C1236 C1220 1.368 . S
C1236 C1232 1.368 . S
C1236 C1235 1.523 . S
H1237 C1212 0.950 . S
H1238 C1214 0.950 . S
H1239 C1215 0.949 . S
H1240 C1217 0.950 . S
H1241 C1219 0.950 . S
C1242 C1243 1.349 . S
C1242 C1244 1.327 . S
C1242 H1267 0.950 . S
C1243 C1242 1.349 . S
C1243 C1259 1.349 . S
C1244 C1242 1.327 . S
C1244 C1263 1.429 . S
C1244 H1268 0.950 . S
C1245 C1262 1.574 . S
C1245 C1264 1.368 . S
C1245 H1269 0.949 . S
H1246 C1250 0.949 . S
C1247 C1248 1.349 . S
C1247 C1249 1.327 . S
C1247 H1270 0.950 . S
C1248 C1247 1.349 . S
C1248 C1260 1.349 . S
C1249 C1247 1.327 . S
C1249 C1265 1.429 . S
C1249 H1271 0.950 . S
C1250 H1246 0.949 . S
C1250 C1258 1.574 . S
C1250 C1266 1.368 . S
H1251 C1259 0.950 . S
H1252 C1257 0.950 . S
H1253 C1258 0.949 . S
H1254 C1260 0.950 . S
H1255 C1261 0.950 . S
H1256 C1262 0.949 . S
C1257 H1252 0.950 . S
C1257 C1259 1.327 . S
C1257 C1263 1.429 . S
C1258 C1250 1.574 . S
C1258 H1253 0.949 . S
C1258 C1264 1.368 . S
C1259 C1243 1.349 . S
C1259 H1251 0.950 . S
C1259 C1257 1.327 . S
C1260 C1248 1.349 . S
C1260 H1254 0.950 . S
C1260 C1261 1.327 . S
C1261 H1255 0.950 . S
C1261 C1260 1.327 . S
C1261 C1265 1.429 . S
C1262 C1245 1.574 . S
C1262 H1256 0.949 . S
C1262 C1266 1.368 . S
C1263 C1244 1.429 . S
C1263 C1257 1.429 . S
C1263 C1264 1.523 . S
C1264 C1245 1.368 . S
C1264 C1258 1.368 . S
C1264 C1263 1.523 . S
C1265 C1249 1.429 . S
C1265 C1261 1.429 . S
C1265 C1266 1.523 . S
C1266 C1250 1.368 . S
C1266 C1262 1.368 . S
C1266 C1265 1.523 . S
H1267 C1242 0.950 . S
H1268 C1244 0.950 . S
H1269 C1245 0.949 . S
H1270 C1247 0.950 . S
H1271 C1249 0.950 . S
C1272 C1273 1.349 . S
C1272 C1274 1.327 . S
C1272 H1297 0.950 . S
C1273 C1272 1.349 . S
C1273 C1289 1.349 . S
C1274 C1272 1.327 . S
C1274 C1293 1.429 . S
C1274 H1298 0.950 . S
C1275 C1292 1.574 . S
C1275 C1294 1.368 . S
C1275 H1299 0.949 . S
H1276 C1280 0.949 . S
C1277 C1278 1.349 . S
C1277 C1279 1.327 . S
C1277 H1300 0.950 . S
C1278 C1277 1.349 . S
C1278 C1290 1.349 . S
C1279 C1277 1.327 . S
C1279 C1295 1.429 . S
C1279 H1301 0.950 . S
C1280 H1276 0.949 . S
C1280 C1288 1.574 . S
C1280 C1296 1.368 . S
H1281 C1289 0.950 . S
H1282 C1287 0.950 . S
H1283 C1288 0.949 . S
H1284 C1290 0.950 . S
H1285 C1291 0.950 . S
H1286 C1292 0.949 . S
C1287 H1282 0.950 . S
C1287 C1289 1.327 . S
C1287 C1293 1.429 . S
C1288 C1280 1.574 . S
C1288 H1283 0.949 . S
C1288 C1294 1.368 . S
C1289 C1273 1.349 . S
C1289 H1281 0.950 . S
C1289 C1287 1.327 . S
C1290 C1278 1.349 . S
C1290 H1284 0.950 . S
C1290 C1291 1.327 . S
C1291 H1285 0.950 . S
C1291 C1290 1.327 . S
C1291 C1295 1.429 . S
C1292 C1275 1.574 . S
C1292 H1286 0.949 . S
C1292 C1296 1.368 . S
C1293 C1274 1.429 . S
C1293 C1287 1.429 . S
C1293 C1294 1.523 . S
C1294 C1275 1.368 . S
C1294 C1288 1.368 . S
C1294 C1293 1.523 . S
C1295 C1279 1.429 . S
C1295 C1291 1.429 . S
C1295 C1296 1.523 . S
C1296 C1280 1.368 . S
C1296 C1292 1.368 . S
C1296 C1295 1.523 . S
H1297 C1272 0.950 . S
H1298 C1274 0.950 . S
H1299 C1275 0.949 . S
H1300 C1277 0.950 . S
H1301 C1279 0.950 . S
C1302 C1303 1.349 . S
C1302 C1304 1.327 . S
C1302 H1327 0.950 . S
C1303 C1302 1.349 . S
C1303 C1319 1.349 . S
C1304 C1302 1.327 . S
C1304 C1323 1.429 . S
C1304 H1328 0.950 . S
C1305 C1322 1.574 . S
C1305 C1324 1.368 . S
C1305 H1329 0.949 . S
H1306 C1310 0.949 . S
C1307 C1308 1.349 . S
C1307 C1309 1.327 . S
C1307 H1330 0.950 . S
C1308 C1307 1.349 . S
C1308 C1320 1.349 . S
C1309 C1307 1.327 . S
C1309 C1325 1.429 . S
C1309 H1331 0.950 . S
C1310 H1306 0.949 . S
C1310 C1318 1.574 . S
C1310 C1326 1.368 . S
H1311 C1319 0.950 . S
H1312 C1317 0.950 . S
H1313 C1318 0.949 . S
H1314 C1320 0.950 . S
H1315 C1321 0.950 . S
H1316 C1322 0.949 . S
C1317 H1312 0.950 . S
C1317 C1319 1.327 . S
C1317 C1323 1.429 . S
C1318 C1310 1.574 . S
C1318 H1313 0.949 . S
C1318 C1324 1.368 . S
C1319 C1303 1.349 . S
C1319 H1311 0.950 . S
C1319 C1317 1.327 . S
C1320 C1308 1.349 . S
C1320 H1314 0.950 . S
C1320 C1321 1.327 . S
C1321 H1315 0.950 . S
C1321 C1320 1.327 . S
C1321 C1325 1.429 . S
C1322 C1305 1.574 . S
C1322 H1316 0.949 . S
C1322 C1326 1.368 . S
C1323 C1304 1.429 . S
C1323 C1317 1.429 . S
C1323 C1324 1.523 . S
C1324 C1305 1.368 . S
C1324 C1318 1.368 . S
C1324 C1323 1.523 . S
C1325 C1309 1.429 . S
C1325 C1321 1.429 . S
C1325 C1326 1.523 . S
C1326 C1310 1.368 . S
C1326 C1322 1.368 . S
C1326 C1325 1.523 . S
H1327 C1302 0.950 . S
H1328 C1304 0.950 . S
H1329 C1305 0.949 . S
H1330 C1307 0.950 . S
H1331 C1309 0.950 . S
C1332 C1333 1.349 . S
C1332 C1334 1.327 . S
C1332 H1357 0.950 . S
C1333 C1332 1.349 . S
C1333 C1349 1.349 . S
C1334 C1332 1.327 . S
C1334 C1353 1.429 . S
C1334 H1358 0.950 . S
C1335 C1352 1.574 1_455 S
C1335 C1354 1.368 . S
C1335 H1359 0.949 . S
H1336 C1340 0.949 . S
C1337 C1338 1.349 . S
C1337 C1339 1.327 . S
C1337 H1360 0.950 . S
C1338 C1337 1.349 . S
C1338 C1350 1.349 . S
C1339 C1337 1.327 . S
C1339 C1355 1.429 . S
C1339 H1361 0.950 . S
C1340 H1336 0.949 . S
C1340 C1348 1.613 . S
C1340 C1356 1.368 . S
H1341 C1349 0.950 . S
H1342 C1347 0.950 . S
H1343 C1348 0.937 1_455 S
H1344 C1350 0.950 . S
H1345 C1351 0.950 . S
H1346 C1352 0.949 . S
C1347 H1342 0.950 . S
C1347 C1349 1.327 . S
C1347 C1353 1.429 . S
C1348 C1340 1.613 . S
C1348 H1343 0.937 1_655 S
C1348 C1354 1.345 1_655 S
C1349 C1333 1.349 . S
C1349 H1341 0.950 . S
C1349 C1347 1.327 . S
C1350 C1338 1.349 . S
C1350 H1344 0.950 . S
C1350 C1351 1.327 . S
C1351 H1345 0.950 . S
C1351 C1350 1.327 . S
C1351 C1355 1.429 . S
C1352 C1335 1.574 1_655 S
C1352 H1346 0.949 . S
C1352 C1356 1.368 . S
C1353 C1334 1.429 . S
C1353 C1347 1.429 . S
C1353 C1354 1.523 . S
C1354 C1335 1.368 . S
C1354 C1348 1.345 1_455 S
C1354 C1353 1.523 . S
C1355 C1339 1.429 . S
C1355 C1351 1.429 . S
C1355 C1356 1.523 . S
C1356 C1340 1.368 . S
C1356 C1352 1.368 . S
C1356 C1355 1.523 . S
H1357 C1332 0.950 . S
H1358 C1334 0.950 . S
H1359 C1335 0.949 . S
H1360 C1337 0.950 . S
H1361 C1339 0.950 . S
C1362 C1363 1.349 . S
C1362 C1364 1.327 . S
C1362 H1387 0.950 . S
C1363 C1362 1.349 . S
C1363 C1379 1.349 . S
C1364 C1362 1.327 . S
C1364 C1383 1.429 . S
C1364 H1388 0.950 . S
C1365 C1382 1.574 1_655 S
C1365 C1384 1.368 . S
C1365 H1389 0.949 . S
H1366 C1370 0.949 . S
C1367 C1368 1.349 . S
C1367 C1369 1.327 . S
C1367 H1390 0.950 . S
C1368 C1367 1.349 . S
C1368 C1380 1.349 . S
C1369 C1367 1.327 . S
C1369 C1385 1.429 . S
C1369 H1391 0.950 . S
C1370 H1366 0.949 . S
C1370 C1378 1.574 . S
C1370 C1386 1.368 . S
H1371 C1379 0.950 . S
H1372 C1377 0.950 . S
H1373 C1378 0.949 . S
H1374 C1380 0.950 . S
H1375 C1381 0.950 . S
H1376 C1382 0.949 . S
C1377 H1372 0.950 . S
C1377 C1379 1.327 . S
C1377 C1383 1.429 . S
C1378 C1370 1.574 . S
C1378 H1373 0.949 . S
C1378 C1384 1.368 1_455 S
C1379 C1363 1.349 . S
C1379 H1371 0.950 . S
C1379 C1377 1.327 . S
C1380 C1368 1.349 . S
C1380 H1374 0.950 . S
C1380 C1381 1.327 . S
C1381 H1375 0.950 . S
C1381 C1380 1.327 . S
C1381 C1385 1.429 . S
C1382 C1365 1.574 1_455 S
C1382 H1376 0.949 . S
C1382 C1386 1.368 . S
C1383 C1364 1.429 . S
C1383 C1377 1.429 . S
C1383 C1384 1.523 . S
C1384 C1365 1.368 . S
C1384 C1378 1.368 1_655 S
C1384 C1383 1.523 . S
C1385 C1369 1.429 . S
C1385 C1381 1.429 . S
C1385 C1386 1.523 . S
C1386 C1370 1.368 . S
C1386 C1382 1.368 . S
C1386 C1385 1.523 . S
H1387 C1362 0.950 . S
H1388 C1364 0.950 . S
H1389 C1365 0.949 . S
H1390 C1367 0.950 . S
H1391 C1369 0.950 . S
C1392 C1393 1.349 . S
C1392 C1394 1.327 . S
C1392 H1417 0.950 . S
C1393 C1392 1.349 . S
C1393 C1409 1.349 . S
C1394 C1392 1.327 . S
C1394 C1413 1.429 . S
C1394 H1418 0.950 . S
C1395 C1412 1.574 . S
C1395 C1414 1.368 . S
C1395 H1419 0.949 . S
H1396 C1400 0.949 . S
C1397 C1398 1.349 . S
C1397 C1399 1.327 . S
C1397 H1420 0.950 . S
C1398 C1397 1.349 . S
C1398 C1410 1.349 . S
C1399 C1397 1.327 . S
C1399 C1415 1.429 . S
C1399 H1421 0.950 . S
C1400 H1396 0.949 . S
C1400 C1408 1.574 . S
C1400 C1416 1.368 . S
H1401 C1409 0.950 . S
H1402 C1407 0.950 . S
H1403 C1408 0.949 . S
H1404 C1410 0.950 . S
H1405 C1411 0.950 . S
H1406 C1412 0.949 . S
C1407 H1402 0.950 . S
C1407 C1409 1.327 . S
C1407 C1413 1.429 . S
C1408 C1400 1.574 . S
C1408 H1403 0.949 . S
C1408 C1414 1.368 . S
C1409 C1393 1.349 . S
C1409 H1401 0.950 . S
C1409 C1407 1.327 . S
C1410 C1398 1.349 . S
C1410 H1404 0.950 . S
C1410 C1411 1.327 . S
C1411 H1405 0.950 . S
C1411 C1410 1.327 . S
C1411 C1415 1.429 . S
C1412 C1395 1.574 . S
C1412 H1406 0.949 . S
C1412 C1416 1.368 . S
C1413 C1394 1.429 . S
C1413 C1407 1.429 . S
C1413 C1414 1.523 . S
C1414 C1395 1.368 . S
C1414 C1408 1.368 . S
C1414 C1413 1.523 . S
C1415 C1399 1.429 . S
C1415 C1411 1.429 . S
C1415 C1416 1.523 . S
C1416 C1400 1.368 . S
C1416 C1412 1.368 . S
C1416 C1415 1.523 . S
H1417 C1392 0.950 . S
H1418 C1394 0.950 . S
H1419 C1395 0.949 . S
H1420 C1397 0.950 . S
H1421 C1399 0.950 . S
C1422 C1423 1.349 . S
C1422 C1424 1.327 . S
C1422 H1447 0.950 . S
C1423 C1422 1.349 . S
C1423 C1439 1.349 . S
C1424 C1422 1.327 . S
C1424 C1443 1.429 . S
C1424 H1448 0.950 . S
C1425 C1442 1.574 . S
C1425 C1444 1.368 . S
C1425 H1449 0.949 . S
H1426 C1430 0.949 . S
C1427 C1428 1.349 . S
C1427 C1429 1.327 . S
C1427 H1450 0.950 . S
C1428 C1427 1.349 . S
C1428 C1440 1.349 . S
C1429 C1427 1.327 . S
C1429 C1445 1.429 . S
C1429 H1451 0.950 . S
C1430 H1426 0.949 . S
C1430 C1438 1.574 . S
C1430 C1446 1.368 . S
H1431 C1439 0.950 . S
H1432 C1437 0.950 . S
H1433 C1438 0.949 . S
H1434 C1440 0.950 . S
H1435 C1441 0.950 . S
H1436 C1442 0.949 . S
C1437 H1432 0.950 . S
C1437 C1439 1.327 . S
C1437 C1443 1.429 . S
C1438 C1430 1.574 . S
C1438 H1433 0.949 . S
C1438 C1444 1.368 . S
C1439 C1423 1.349 . S
C1439 H1431 0.950 . S
C1439 C1437 1.327 . S
C1440 C1428 1.349 . S
C1440 H1434 0.950 . S
C1440 C1441 1.327 . S
C1441 H1435 0.950 . S
C1441 C1440 1.327 . S
C1441 C1445 1.429 . S
C1442 C1425 1.574 . S
C1442 H1436 0.949 . S
C1442 C1446 1.368 . S
C1443 C1424 1.429 . S
C1443 C1437 1.429 . S
C1443 C1444 1.523 . S
C1444 C1425 1.368 . S
C1444 C1438 1.368 . S
C1444 C1443 1.523 . S
C1445 C1429 1.429 . S
C1445 C1441 1.429 . S
C1445 C1446 1.523 . S
C1446 C1430 1.368 . S
C1446 C1442 1.368 . S
C1446 C1445 1.523 . S
H1447 C1422 0.950 . S
H1448 C1424 0.950 . S
H1449 C1425 0.949 . S
H1450 C1427 0.950 . S
H1451 C1429 0.950 . S
C1452 C1453 1.349 . S
C1452 C1454 1.327 . S
C1452 H1477 0.950 . S
C1453 C1452 1.349 . S
C1453 C1469 1.349 . S
C1454 C1452 1.327 . S
C1454 C1473 1.429 . S
C1454 H1478 0.950 . S
C1455 C1472 1.574 . S
C1455 C1474 1.368 . S
C1455 H1479 0.949 . S
H1456 C1460 0.949 . S
C1457 C1458 1.349 . S
C1457 C1459 1.327 . S
C1457 H1480 0.950 . S
C1458 C1457 1.349 . S
C1458 C1470 1.349 . S
C1459 C1457 1.327 . S
C1459 C1475 1.429 . S
C1459 H1481 0.950 . S
C1460 H1456 0.949 . S
C1460 C1468 1.574 . S
C1460 C1476 1.368 . S
H1461 C1469 0.950 . S
H1462 C1467 0.950 . S
H1463 C1468 0.949 . S
H1464 C1470 0.950 . S
H1465 C1471 0.950 . S
H1466 C1472 0.949 . S
C1467 H1462 0.950 . S
C1467 C1469 1.327 . S
C1467 C1473 1.429 . S
C1468 C1460 1.574 . S
C1468 H1463 0.949 . S
C1468 C1474 1.368 . S
C1469 C1453 1.349 . S
C1469 H1461 0.950 . S
C1469 C1467 1.327 . S
C1470 C1458 1.349 . S
C1470 H1464 0.950 . S
C1470 C1471 1.327 . S
C1471 H1465 0.950 . S
C1471 C1470 1.327 . S
C1471 C1475 1.429 . S
C1472 C1455 1.574 . S
C1472 H1466 0.949 . S
C1472 C1476 1.368 . S
C1473 C1454 1.429 . S
C1473 C1467 1.429 . S
C1473 C1474 1.523 . S
C1474 C1455 1.368 . S
C1474 C1468 1.368 . S
C1474 C1473 1.523 . S
C1475 C1459 1.429 . S
C1475 C1471 1.429 . S
C1475 C1476 1.523 . S
C1476 C1460 1.368 . S
C1476 C1472 1.368 . S
C1476 C1475 1.523 . S
H1477 C1452 0.950 . S
H1478 C1454 0.950 . S
H1479 C1455 0.949 . S
H1480 C1457 0.950 . S
H1481 C1459 0.950 . S
C1482 C1483 1.349 . S
C1482 C1484 1.327 . S
C1482 H1507 0.950 . S
C1483 C1482 1.349 . S
C1483 C1499 1.349 . S
C1484 C1482 1.327 . S
C1484 C1503 1.429 . S
C1484 H1508 0.950 . S
C1485 C1502 1.574 . S
C1485 C1504 1.368 . S
C1485 H1509 0.949 . S
H1486 C1490 0.949 . S
C1487 C1488 1.349 . S
C1487 C1489 1.327 . S
C1487 H1510 0.950 . S
C1488 C1487 1.349 . S
C1488 C1500 1.349 . S
C1489 C1487 1.327 . S
C1489 C1505 1.429 . S
C1489 H1511 0.950 . S
C1490 H1486 0.949 . S
C1490 C1498 1.574 . S
C1490 C1506 1.368 . S
H1491 C1499 0.950 . S
H1492 C1497 0.950 . S
H1493 C1498 0.949 . S
H1494 C1500 0.950 . S
H1495 C1501 0.950 . S
H1496 C1502 0.949 . S
C1497 H1492 0.950 . S
C1497 C1499 1.327 . S
C1497 C1503 1.429 . S
C1498 C1490 1.574 . S
C1498 H1493 0.949 . S
C1498 C1504 1.368 . S
C1499 C1483 1.349 . S
C1499 H1491 0.950 . S
C1499 C1497 1.327 . S
C1500 C1488 1.349 . S
C1500 H1494 0.950 . S
C1500 C1501 1.327 . S
C1501 H1495 0.950 . S
C1501 C1500 1.327 . S
C1501 C1505 1.429 . S
C1502 C1485 1.574 . S
C1502 H1496 0.949 . S
C1502 C1506 1.368 . S
C1503 C1484 1.429 . S
C1503 C1497 1.429 . S
C1503 C1504 1.523 . S
C1504 C1485 1.368 . S
C1504 C1498 1.368 . S
C1504 C1503 1.523 . S
C1505 C1489 1.429 . S
C1505 C1501 1.429 . S
C1505 C1506 1.523 . S
C1506 C1490 1.368 . S
C1506 C1502 1.368 . S
C1506 C1505 1.523 . S
H1507 C1482 0.950 . S
H1508 C1484 0.950 . S
H1509 C1485 0.949 . S
H1510 C1487 0.950 . S
H1511 C1489 0.950 . S
C1512 C1513 1.349 . S
C1512 C1514 1.327 . S
C1512 H1537 0.950 . S
C1513 C1512 1.349 . S
C1513 C1529 1.349 . S
C1514 C1512 1.327 . S
C1514 C1533 1.429 . S
C1514 H1538 0.950 . S
C1515 C1532 1.574 . S
C1515 C1534 1.368 . S
C1515 H1539 0.949 . S
H1516 C1520 0.949 . S
C1517 C1518 1.349 . S
C1517 C1519 1.327 . S
C1517 H1540 0.950 . S
C1518 C1517 1.349 . S
C1518 C1530 1.349 . S
C1519 C1517 1.327 . S
C1519 C1535 1.429 . S
C1519 H1541 0.950 . S
C1520 H1516 0.949 . S
C1520 C1528 1.574 . S
C1520 C1536 1.368 . S
H1521 C1529 0.950 . S
H1522 C1527 0.950 . S
H1523 C1528 0.949 . S
H1524 C1530 0.950 . S
H1525 C1531 0.950 . S
H1526 C1532 0.949 . S
C1527 H1522 0.950 . S
C1527 C1529 1.327 . S
C1527 C1533 1.429 . S
C1528 C1520 1.574 . S
C1528 H1523 0.949 . S
C1528 C1534 1.368 . S
C1529 C1513 1.349 . S
C1529 H1521 0.950 . S
C1529 C1527 1.327 . S
C1530 C1518 1.349 . S
C1530 H1524 0.950 . S
C1530 C1531 1.327 . S
C1531 H1525 0.950 . S
C1531 C1530 1.327 . S
C1531 C1535 1.429 . S
C1532 C1515 1.574 . S
C1532 H1526 0.949 . S
C1532 C1536 1.368 . S
C1533 C1514 1.429 . S
C1533 C1527 1.429 . S
C1533 C1534 1.523 . S
C1534 C1515 1.368 . S
C1534 C1528 1.368 . S
C1534 C1533 1.523 . S
C1535 C1519 1.429 . S
C1535 C1531 1.429 . S
C1535 C1536 1.523 . S
C1536 C1520 1.368 . S
C1536 C1532 1.368 . S
C1536 C1535 1.523 . S
H1537 C1512 0.950 . S
H1538 C1514 0.950 . S
H1539 C1515 0.949 . S
H1540 C1517 0.950 . S
H1541 C1519 0.950 . S
C1542 C1543 1.349 . S
C1542 C1544 1.327 . S
C1542 H1567 0.950 . S
C1543 C1542 1.349 . S
C1543 C1559 1.349 . S
C1544 C1542 1.327 . S
C1544 C1563 1.429 . S
C1544 H1568 0.950 . S
C1545 C1562 1.574 . S
C1545 C1564 1.368 . S
C1545 H1569 0.949 . S
H1546 C1550 0.949 . S
C1547 C1548 1.349 . S
C1547 C1549 1.327 . S
C1547 H1570 0.950 . S
C1548 C1547 1.349 . S
C1548 C1560 1.349 . S
C1549 C1547 1.327 . S
C1549 C1565 1.429 . S
C1549 H1571 0.950 . S
C1550 H1546 0.949 . S
C1550 C1558 1.574 . S
C1550 C1566 1.368 . S
H1551 C1559 0.950 . S
H1552 C1557 0.950 . S
H1553 C1558 0.949 . S
H1554 C1560 0.950 . S
H1555 C1561 0.950 . S
H1556 C1562 0.949 . S
C1557 H1552 0.950 . S
C1557 C1559 1.327 . S
C1557 C1563 1.429 . S
C1558 C1550 1.574 . S
C1558 H1553 0.949 . S
C1558 C1564 1.368 . S
C1559 C1543 1.349 . S
C1559 H1551 0.950 . S
C1559 C1557 1.327 . S
C1560 C1548 1.349 . S
C1560 H1554 0.950 . S
C1560 C1561 1.327 . S
C1561 H1555 0.950 . S
C1561 C1560 1.327 . S
C1561 C1565 1.429 . S
C1562 C1545 1.574 . S
C1562 H1556 0.949 . S
C1562 C1566 1.368 . S
C1563 C1544 1.429 . S
C1563 C1557 1.429 . S
C1563 C1564 1.523 . S
C1564 C1545 1.368 . S
C1564 C1558 1.368 . S
C1564 C1563 1.523 . S
C1565 C1549 1.429 . S
C1565 C1561 1.429 . S
C1565 C1566 1.523 . S
C1566 C1550 1.368 . S
C1566 C1562 1.368 . S
C1566 C1565 1.523 . S
H1567 C1542 0.950 . S
H1568 C1544 0.950 . S
H1569 C1545 0.949 . S
H1570 C1547 0.950 . S
H1571 C1549 0.950 . S
C1572 C1573 1.349 . S
C1572 C1574 1.327 . S
C1572 H1597 0.950 . S
C1573 C1572 1.349 . S
C1573 C1589 1.349 . S
C1574 C1572 1.327 . S
C1574 C1593 1.429 . S
C1574 H1598 0.950 . S
C1575 C1592 1.574 . S
C1575 C1594 1.368 . S
C1575 H1599 0.949 . S
H1576 C1580 0.949 . S
C1577 C1578 1.349 . S
C1577 C1579 1.327 . S
C1577 H1600 0.950 . S
C1578 C1577 1.349 . S
C1578 C1590 1.349 . S
C1579 C1577 1.327 . S
C1579 C1595 1.429 . S
C1579 H1601 0.950 . S
C1580 H1576 0.949 . S
C1580 C1588 1.574 . S
C1580 C1596 1.368 . S
H1581 C1589 0.950 . S
H1582 C1587 0.950 . S
H1583 C1588 0.949 . S
H1584 C1590 0.950 . S
H1585 C1591 0.950 . S
H1586 C1592 0.949 . S
C1587 H1582 0.950 . S
C1587 C1589 1.327 . S
C1587 C1593 1.429 . S
C1588 C1580 1.574 . S
C1588 H1583 0.949 . S
C1588 C1594 1.368 . S
C1589 C1573 1.349 . S
C1589 H1581 0.950 . S
C1589 C1587 1.327 . S
C1590 C1578 1.349 . S
C1590 H1584 0.950 . S
C1590 C1591 1.327 . S
C1591 H1585 0.950 . S
C1591 C1590 1.327 . S
C1591 C1595 1.429 . S
C1592 C1575 1.574 . S
C1592 H1586 0.949 . S
C1592 C1596 1.368 . S
C1593 C1574 1.429 . S
C1593 C1587 1.429 . S
C1593 C1594 1.523 . S
C1594 C1575 1.368 . S
C1594 C1588 1.368 . S
C1594 C1593 1.523 . S
C1595 C1579 1.429 . S
C1595 C1591 1.429 . S
C1595 C1596 1.523 . S
C1596 C1580 1.368 . S
C1596 C1592 1.368 . S
C1596 C1595 1.523 . S
H1597 C1572 0.950 . S
H1598 C1574 0.950 . S
H1599 C1575 0.949 . S
H1600 C1577 0.950 . S
H1601 C1579 0.950 . S
C1602 C1603 1.349 . S
C1602 C1604 1.327 . S
C1602 H1627 0.950 . S
C1603 C1602 1.349 . S
C1603 C1619 1.349 . S
C1604 C1602 1.327 . S
C1604 C1623 1.429 . S
C1604 H1628 0.950 . S
C1605 C1622 1.574 . S
C1605 C1624 1.368 . S
C1605 H1629 0.949 . S
H1606 C1610 0.949 . S
C1607 C1608 1.349 . S
C1607 C1609 1.327 . S
C1607 H1630 0.950 . S
C1608 C1607 1.349 . S
C1608 C1620 1.349 . S
C1609 C1607 1.327 . S
C1609 C1625 1.429 . S
C1609 H1631 0.950 . S
C1610 H1606 0.949 . S
C1610 C1618 1.574 . S
C1610 C1626 1.368 . S
H1611 C1619 0.950 . S
H1612 C1617 0.950 . S
H1613 C1618 0.949 . S
H1614 C1620 0.950 . S
H1615 C1621 0.950 . S
H1616 C1622 0.949 . S
C1617 H1612 0.950 . S
C1617 C1619 1.327 . S
C1617 C1623 1.429 . S
C1618 C1610 1.574 . S
C1618 H1613 0.949 . S
C1618 C1624 1.368 . S
C1619 C1603 1.349 . S
C1619 H1611 0.950 . S
C1619 C1617 1.327 . S
C1620 C1608 1.349 . S
C1620 H1614 0.950 . S
C1620 C1621 1.327 . S
C1621 H1615 0.950 . S
C1621 C1620 1.327 . S
C1621 C1625 1.429 . S
C1622 C1605 1.574 . S
C1622 H1616 0.949 . S
C1622 C1626 1.368 . S
C1623 C1604 1.429 . S
C1623 C1617 1.429 . S
C1623 C1624 1.523 . S
C1624 C1605 1.368 . S
C1624 C1618 1.368 . S
C1624 C1623 1.523 . S
C1625 C1609 1.429 . S
C1625 C1621 1.429 . S
C1625 C1626 1.523 . S
C1626 C1610 1.368 . S
C1626 C1622 1.368 . S
C1626 C1625 1.523 . S
H1627 C1602 0.950 . S
H1628 C1604 0.950 . S
H1629 C1605 0.949 . S
H1630 C1607 0.950 . S
H1631 C1609 0.950 . S
C1632 C1633 1.349 . S
C1632 C1634 1.327 . S
C1632 H1657 0.950 . S
C1633 C1632 1.349 . S
C1633 C1649 1.349 . S
C1634 C1632 1.327 . S
C1634 C1653 1.429 . S
C1634 H1658 0.950 . S
C1635 C1652 1.574 . S
C1635 C1654 1.368 . S
C1635 H1659 0.949 . S
H1636 C1640 0.949 . S
C1637 C1638 1.349 . S
C1637 C1639 1.327 . S
C1637 H1660 0.950 . S
C1638 C1637 1.349 . S
C1638 C1650 1.349 . S
C1639 C1637 1.327 . S
C1639 C1655 1.429 . S
C1639 H1661 0.950 . S
C1640 H1636 0.949 . S
C1640 C1648 1.574 . S
C1640 C1656 1.368 . S
H1641 C1649 0.950 . S
H1642 C1647 0.950 . S
H1643 C1648 0.949 . S
H1644 C1650 0.950 . S
H1645 C1651 0.950 . S
H1646 C1652 0.949 . S
C1647 H1642 0.950 . S
C1647 C1649 1.327 . S
C1647 C1653 1.429 . S
C1648 C1640 1.574 . S
C1648 H1643 0.949 . S
C1648 C1654 1.368 . S
C1649 C1633 1.349 . S
C1649 H1641 0.950 . S
C1649 C1647 1.327 . S
C1650 C1638 1.349 . S
C1650 H1644 0.950 . S
C1650 C1651 1.327 . S
C1651 H1645 0.950 . S
C1651 C1650 1.327 . S
C1651 C1655 1.429 . S
C1652 C1635 1.574 . S
C1652 H1646 0.949 . S
C1652 C1656 1.368 . S
C1653 C1634 1.429 . S
C1653 C1647 1.429 . S
C1653 C1654 1.523 . S
C1654 C1635 1.368 . S
C1654 C1648 1.368 . S
C1654 C1653 1.523 . S
C1655 C1639 1.429 . S
C1655 C1651 1.429 . S
C1655 C1656 1.523 . S
C1656 C1640 1.368 . S
C1656 C1652 1.368 . S
C1656 C1655 1.523 . S
H1657 C1632 0.950 . S
H1658 C1634 0.950 . S
H1659 C1635 0.949 . S
H1660 C1637 0.950 . S
H1661 C1639 0.950 . S
C1662 C1663 1.349 . S
C1662 C1664 1.327 . S
C1662 H1687 0.950 . S
C1663 C1662 1.349 . S
C1663 C1679 1.349 . S
C1664 C1662 1.327 . S
C1664 C1683 1.429 . S
C1664 H1688 0.950 . S
C1665 C1682 1.574 . S
C1665 C1684 1.368 . S
C1665 H1689 0.949 . S
H1666 C1670 0.949 . S
C1667 C1668 1.349 . S
C1667 C1669 1.327 . S
C1667 H1690 0.950 . S
C1668 C1667 1.349 . S
C1668 C1680 1.349 . S
C1669 C1667 1.327 . S
C1669 C1685 1.429 . S
C1669 H1691 0.950 . S
C1670 H1666 0.949 . S
C1670 C1678 1.574 . S
C1670 C1686 1.368 . S
H1671 C1679 0.950 . S
H1672 C1677 0.950 . S
H1673 C1678 0.949 . S
H1674 C1680 0.950 . S
H1675 C1681 0.950 . S
H1676 C1682 0.949 . S
C1677 H1672 0.950 . S
C1677 C1679 1.327 . S
C1677 C1683 1.429 . S
C1678 C1670 1.574 . S
C1678 H1673 0.949 . S
C1678 C1684 1.368 . S
C1679 C1663 1.349 . S
C1679 H1671 0.950 . S
C1679 C1677 1.327 . S
C1680 C1668 1.349 . S
C1680 H1674 0.950 . S
C1680 C1681 1.327 . S
C1681 H1675 0.950 . S
C1681 C1680 1.327 . S
C1681 C1685 1.429 . S
C1682 C1665 1.574 . S
C1682 H1676 0.949 . S
C1682 C1686 1.368 . S
C1683 C1664 1.429 . S
C1683 C1677 1.429 . S
C1683 C1684 1.523 1_565 S
C1684 C1665 1.368 . S
C1684 C1678 1.368 . S
C1684 C1683 1.523 1_545 S
C1685 C1669 1.429 . S
C1685 C1681 1.429 . S
C1685 C1686 1.523 . S
C1686 C1670 1.368 . S
C1686 C1682 1.368 . S
C1686 C1685 1.523 . S
H1687 C1662 0.950 . S
H1688 C1664 0.950 . S
H1689 C1665 0.949 . S
H1690 C1667 0.950 . S
H1691 C1669 0.950 . S
C1692 C1693 1.349 . S
C1692 C1694 1.327 . S
C1692 H1717 0.950 . S
C1693 C1692 1.349 . S
C1693 C1709 1.349 . S
C1694 C1692 1.327 . S
C1694 C1713 1.429 . S
C1694 H1718 0.950 . S
C1695 C1712 1.574 . S
C1695 C1714 1.368 . S
C1695 H1719 0.949 . S
H1696 C1700 0.949 . S
C1697 C1698 1.349 . S
C1697 C1699 1.327 . S
C1697 H1720 0.950 . S
C1698 C1697 1.349 . S
C1698 C1710 1.349 . S
C1699 C1697 1.327 . S
C1699 C1715 1.429 . S
C1699 H1721 0.950 . S
C1700 H1696 0.949 . S
C1700 C1708 1.574 . S
C1700 C1716 1.368 . S
H1701 C1709 0.950 . S
H1702 C1707 0.950 . S
H1703 C1708 0.949 . S
H1704 C1710 0.950 . S
H1705 C1711 0.950 . S
H1706 C1712 0.949 . S
C1707 H1702 0.950 . S
C1707 C1709 1.327 . S
C1707 C1713 1.429 . S
C1708 C1700 1.574 . S
C1708 H1703 0.949 . S
C1708 C1714 1.368 . S
C1709 C1693 1.349 . S
C1709 H1701 0.950 . S
C1709 C1707 1.327 . S
C1710 C1698 1.349 . S
C1710 H1704 0.950 . S
C1710 C1711 1.327 . S
C1711 H1705 0.950 . S
C1711 C1710 1.327 . S
C1711 C1715 1.429 . S
C1712 C1695 1.574 . S
C1712 H1706 0.949 . S
C1712 C1716 1.368 . S
C1713 C1694 1.429 . S
C1713 C1707 1.429 . S
C1713 C1714 1.523 . S
C1714 C1695 1.368 . S
C1714 C1708 1.368 . S
C1714 C1713 1.523 . S
C1715 C1699 1.429 . S
C1715 C1711 1.429 . S
C1715 C1716 1.523 . S
C1716 C1700 1.368 . S
C1716 C1712 1.368 . S
C1716 C1715 1.523 . S
H1717 C1692 0.950 . S
H1718 C1694 0.950 . S
H1719 C1695 0.949 . S
H1720 C1697 0.950 . S
H1721 C1699 0.950 . S
C1722 C1723 1.349 . S
C1722 C1724 1.327 . S
C1722 H1747 0.950 . S
C1723 C1722 1.349 . S
C1723 C1739 1.349 . S
C1724 C1722 1.327 . S
C1724 C1743 1.429 . S
C1724 H1748 0.950 . S
C1725 C1742 1.574 . S
C1725 C1744 1.368 . S
C1725 H1749 0.949 . S
H1726 C1730 0.949 . S
C1727 C1728 1.349 . S
C1727 C1729 1.327 . S
C1727 H1750 0.950 . S
C1728 C1727 1.349 . S
C1728 C1740 1.349 . S
C1729 C1727 1.327 . S
C1729 C1745 1.429 . S
C1729 H1751 0.950 . S
C1730 H1726 0.949 . S
C1730 C1738 1.574 . S
C1730 C1746 1.368 . S
H1731 C1739 0.950 . S
H1732 C1737 0.950 . S
H1733 C1738 0.949 . S
H1734 C1740 0.950 . S
H1735 C1741 0.950 . S
H1736 C1742 0.949 . S
C1737 H1732 0.950 . S
C1737 C1739 1.327 . S
C1737 C1743 1.429 . S
C1738 C1730 1.574 . S
C1738 H1733 0.949 . S
C1738 C1744 1.368 . S
C1739 C1723 1.349 . S
C1739 H1731 0.950 . S
C1739 C1737 1.327 . S
C1740 C1728 1.349 . S
C1740 H1734 0.950 . S
C1740 C1741 1.327 . S
C1741 H1735 0.950 . S
C1741 C1740 1.327 . S
C1741 C1745 1.429 . S
C1742 C1725 1.574 . S
C1742 H1736 0.949 . S
C1742 C1746 1.368 . S
C1743 C1724 1.429 . S
C1743 C1737 1.429 . S
C1743 C1744 1.523 . S
C1744 C1725 1.368 . S
C1744 C1738 1.368 . S
C1744 C1743 1.523 . S
C1745 C1729 1.429 . S
C1745 C1741 1.429 . S
C1745 C1746 1.523 . S
C1746 C1730 1.368 . S
C1746 C1742 1.368 . S
C1746 C1745 1.523 . S
H1747 C1722 0.950 . S
H1748 C1724 0.950 . S
H1749 C1725 0.949 . S
H1750 C1727 0.950 . S
H1751 C1729 0.950 . S
C1752 C1753 1.349 . S
C1752 C1754 1.327 . S
C1752 H1777 0.950 . S
C1753 C1752 1.349 . S
C1753 C1769 1.349 . S
C1754 C1752 1.327 . S
C1754 C1773 1.429 . S
C1754 H1778 0.950 . S
C1755 C1772 1.574 . S
C1755 C1774 1.368 . S
C1755 H1779 0.949 . S
H1756 C1760 0.949 . S
C1757 C1758 1.349 . S
C1757 C1759 1.327 . S
C1757 H1780 0.950 . S
C1758 C1757 1.349 . S
C1758 C1770 1.349 . S
C1759 C1757 1.327 . S
C1759 C1775 1.429 . S
C1759 H1781 0.950 . S
C1760 H1756 0.949 . S
C1760 C1768 1.574 . S
C1760 C1776 1.368 . S
H1761 C1769 0.950 . S
H1762 C1767 0.950 . S
H1763 C1768 0.949 . S
H1764 C1770 0.950 . S
H1765 C1771 0.950 . S
H1766 C1772 0.949 . S
C1767 H1762 0.950 . S
C1767 C1769 1.327 . S
C1767 C1773 1.429 . S
C1768 C1760 1.574 . S
C1768 H1763 0.949 . S
C1768 C1774 1.368 . S
C1769 C1753 1.349 . S
C1769 H1761 0.950 . S
C1769 C1767 1.327 . S
C1770 C1758 1.349 . S
C1770 H1764 0.950 . S
C1770 C1771 1.327 . S
C1771 H1765 0.950 . S
C1771 C1770 1.327 . S
C1771 C1775 1.429 . S
C1772 C1755 1.574 . S
C1772 H1766 0.949 . S
C1772 C1776 1.368 . S
C1773 C1754 1.429 . S
C1773 C1767 1.429 . S
C1773 C1774 1.523 . S
C1774 C1755 1.368 . S
C1774 C1768 1.368 . S
C1774 C1773 1.523 . S
C1775 C1759 1.429 . S
C1775 C1771 1.429 . S
C1775 C1776 1.523 . S
C1776 C1760 1.368 . S
C1776 C1772 1.368 . S
C1776 C1775 1.523 . S
H1777 C1752 0.950 . S
H1778 C1754 0.950 . S
H1779 C1755 0.949 . S
H1780 C1757 0.950 . S
H1781 C1759 0.950 . S
C1782 C1783 1.349 . S
C1782 C1784 1.327 . S
C1782 H1807 0.950 . S
C1783 C1782 1.349 . S
C1783 C1799 1.349 . S
C1784 C1782 1.327 . S
C1784 C1803 1.429 . S
C1784 H1808 0.950 . S
C1785 C1802 1.574 . S
C1785 C1804 1.368 1_545 S
C1785 H1809 0.949 . S
H1786 C1790 0.949 . S
C1787 C1788 1.349 . S
C1787 C1789 1.327 . S
C1787 H1810 0.950 . S
C1788 C1787 1.349 . S
C1788 C1800 1.349 . S
C1789 C1787 1.327 . S
C1789 C1805 1.429 . S
C1789 H1811 0.950 . S
C1790 H1786 0.949 . S
C1790 C1798 1.574 1_545 S
C1790 C1806 1.368 . S
H1791 C1799 0.950 . S
H1792 C1797 0.950 . S
H1793 C1798 0.949 . S
H1794 C1800 0.950 . S
H1795 C1801 0.950 . S
H1796 C1802 0.949 . S
C1797 H1792 0.950 . S
C1797 C1799 1.327 . S
C1797 C1803 1.429 . S
C1798 C1790 1.574 1_565 S
C1798 H1793 0.949 . S
C1798 C1804 1.368 . S
C1799 C1783 1.349 . S
C1799 H1791 0.950 . S
C1799 C1797 1.327 . S
C1800 C1788 1.349 . S
C1800 H1794 0.950 . S
C1800 C1801 1.327 . S
C1801 H1795 0.950 . S
C1801 C1800 1.327 . S
C1801 C1805 1.429 . S
C1802 C1785 1.574 . S
C1802 H1796 0.949 . S
C1802 C1806 1.368 . S
C1803 C1784 1.429 . S
C1803 C1797 1.429 . S
C1803 C1804 1.523 . S
C1804 C1785 1.368 1_565 S
C1804 C1798 1.368 . S
C1804 C1803 1.523 . S
C1805 C1789 1.429 . S
C1805 C1801 1.429 . S
C1805 C1806 1.523 . S
C1806 C1790 1.368 . S
C1806 C1802 1.368 . S
C1806 C1805 1.523 . S
H1807 C1782 0.950 . S
H1808 C1784 0.950 . S
H1809 C1785 0.949 . S
H1810 C1787 0.950 . S
H1811 C1789 0.950 . S
C1812 C1813 1.349 . S
C1812 C1814 1.327 . S
C1812 H1837 0.950 . S
C1813 C1812 1.349 . S
C1813 C1829 1.349 . S
C1814 C1812 1.327 . S
C1814 C1833 1.429 . S
C1814 H1838 0.950 . S
C1815 C1832 1.574 . S
C1815 C1834 1.368 . S
C1815 H1839 0.949 . S
H1816 C1820 0.949 . S
C1817 C1818 1.349 . S
C1817 C1819 1.327 . S
C1817 H1840 0.950 . S
C1818 C1817 1.349 . S
C1818 C1830 1.349 . S
C1819 C1817 1.327 . S
C1819 C1835 1.429 . S
C1819 H1841 0.950 . S
C1820 H1816 0.949 . S
C1820 C1828 1.574 . S
C1820 C1836 1.368 . S
H1821 C1829 0.950 . S
H1822 C1827 0.950 . S
H1823 C1828 0.949 . S
H1824 C1830 0.950 . S
H1825 C1831 0.950 . S
H1826 C1832 0.949 . S
C1827 H1822 0.950 . S
C1827 C1829 1.327 . S
C1827 C1833 1.429 . S
C1828 C1820 1.574 . S
C1828 H1823 0.949 . S
C1828 C1834 1.368 . S
C1829 C1813 1.349 . S
C1829 H1821 0.950 . S
C1829 C1827 1.327 . S
C1830 C1818 1.349 . S
C1830 H1824 0.950 . S
C1830 C1831 1.327 . S
C1831 H1825 0.950 . S
C1831 C1830 1.327 . S
C1831 C1835 1.429 . S
C1832 C1815 1.574 . S
C1832 H1826 0.949 . S
C1832 C1836 1.368 . S
C1833 C1814 1.429 . S
C1833 C1827 1.429 . S
C1833 C1834 1.523 . S
C1834 C1815 1.368 . S
C1834 C1828 1.368 . S
C1834 C1833 1.523 . S
C1835 C1819 1.429 . S
C1835 C1831 1.429 . S
C1835 C1836 1.523 . S
C1836 C1820 1.368 . S
C1836 C1832 1.368 . S
C1836 C1835 1.523 . S
H1837 C1812 0.950 . S
H1838 C1814 0.950 . S
H1839 C1815 0.949 . S
H1840 C1817 0.950 . S
H1841 C1819 0.950 . S
C1842 C1843 1.349 . S
C1842 C1844 1.327 . S
C1842 H1867 0.950 . S
C1843 C1842 1.349 . S
C1843 C1859 1.349 . S
C1844 C1842 1.327 . S
C1844 C1863 1.429 . S
C1844 H1868 0.950 . S
C1845 C1862 1.574 . S
C1845 C1864 1.368 . S
C1845 H1869 0.949 . S
H1846 C1850 0.949 . S
C1847 C1848 1.349 . S
C1847 C1849 1.327 . S
C1847 H1870 0.950 . S
C1848 C1847 1.349 . S
C1848 C1860 1.349 . S
C1849 C1847 1.327 . S
C1849 C1865 1.429 . S
C1849 H1871 0.950 . S
C1850 H1846 0.949 . S
C1850 C1858 1.574 . S
C1850 C1866 1.368 . S
H1851 C1859 0.950 . S
H1852 C1857 0.950 . S
H1853 C1858 0.949 . S
H1854 C1860 0.950 . S
H1855 C1861 0.950 . S
H1856 C1862 0.949 . S
C1857 H1852 0.950 . S
C1857 C1859 1.327 . S
C1857 C1863 1.429 . S
C1858 C1850 1.574 . S
C1858 H1853 0.949 . S
C1858 C1864 1.368 . S
C1859 C1843 1.349 . S
C1859 H1851 0.950 . S
C1859 C1857 1.327 . S
C1860 C1848 1.349 . S
C1860 H1854 0.950 . S
C1860 C1861 1.327 . S
C1861 H1855 0.950 . S
C1861 C1860 1.327 . S
C1861 C1865 1.429 . S
C1862 C1845 1.574 . S
C1862 H1856 0.949 . S
C1862 C1866 1.368 . S
C1863 C1844 1.429 . S
C1863 C1857 1.429 . S
C1863 C1864 1.523 . S
C1864 C1845 1.368 . S
C1864 C1858 1.368 . S
C1864 C1863 1.523 . S
C1865 C1849 1.429 . S
C1865 C1861 1.429 . S
C1865 C1866 1.523 . S
C1866 C1850 1.368 . S
C1866 C1862 1.368 . S
C1866 C1865 1.523 . S
H1867 C1842 0.950 . S
H1868 C1844 0.950 . S
H1869 C1845 0.949 . S
H1870 C1847 0.950 . S
H1871 C1849 0.950 . S
C1872 C1873 1.349 . S
C1872 C1874 1.327 . S
C1872 H1897 0.950 . S
C1873 C1872 1.349 . S
C1873 C1889 1.349 . S
C1874 C1872 1.327 . S
C1874 C1893 1.429 . S
C1874 H1898 0.950 . S
C1875 C1892 1.574 . S
C1875 C1894 1.368 . S
C1875 H1899 0.949 . S
H1876 C1880 0.949 . S
C1877 C1878 1.349 . S
C1877 C1879 1.327 . S
C1877 H1900 0.950 . S
C1878 C1877 1.349 . S
C1878 C1890 1.349 . S
C1879 C1877 1.327 . S
C1879 C1895 1.429 . S
C1879 H1901 0.950 . S
C1880 H1876 0.949 . S
C1880 C1888 1.574 . S
C1880 C1896 1.368 . S
H1881 C1889 0.950 . S
H1882 C1887 0.950 . S
H1883 C1888 0.949 . S
H1884 C1890 0.950 . S
H1885 C1891 0.950 . S
H1886 C1892 0.949 . S
C1887 H1882 0.950 . S
C1887 C1889 1.327 . S
C1887 C1893 1.429 . S
C1888 C1880 1.574 . S
C1888 H1883 0.949 . S
C1888 C1894 1.368 . S
C1889 C1873 1.349 . S
C1889 H1881 0.950 . S
C1889 C1887 1.327 . S
C1890 C1878 1.349 . S
C1890 H1884 0.950 . S
C1890 C1891 1.327 . S
C1891 H1885 0.950 . S
C1891 C1890 1.327 . S
C1891 C1895 1.429 . S
C1892 C1875 1.574 . S
C1892 H1886 0.949 . S
C1892 C1896 1.368 . S
C1893 C1874 1.429 . S
C1893 C1887 1.429 . S
C1893 C1894 1.523 . S
C1894 C1875 1.368 . S
C1894 C1888 1.368 . S
C1894 C1893 1.523 . S
C1895 C1879 1.429 . S
C1895 C1891 1.429 . S
C1895 C1896 1.523 . S
C1896 C1880 1.368 . S
C1896 C1892 1.368 . S
C1896 C1895 1.523 . S
H1897 C1872 0.950 . S
H1898 C1874 0.950 . S
H1899 C1875 0.949 . S
H1900 C1877 0.950 . S
H1901 C1879 0.950 . S
C1902 C1903 1.349 . S
C1902 C1904 1.327 . S
C1902 H1927 0.950 . S
C1903 C1902 1.349 . S
C1903 C1919 1.349 . S
C1904 C1902 1.327 . S
C1904 C1923 1.429 . S
C1904 H1928 0.950 . S
C1905 C1922 1.574 . S
C1905 C1924 1.368 . S
C1905 H1929 0.949 . S
H1906 C1910 0.949 . S
C1907 C1908 1.349 . S
C1907 C1909 1.327 . S
C1907 H1930 0.950 . S
C1908 C1907 1.349 . S
C1908 C1920 1.349 . S
C1909 C1907 1.327 . S
C1909 C1925 1.429 . S
C1909 H1931 0.950 . S
C1910 H1906 0.949 . S
C1910 C1918 1.574 . S
C1910 C1926 1.368 . S
H1911 C1919 0.950 . S
H1912 C1917 0.950 . S
H1913 C1918 0.949 . S
H1914 C1920 0.950 . S
H1915 C1921 0.950 . S
H1916 C1922 0.949 . S
C1917 H1912 0.950 . S
C1917 C1919 1.327 . S
C1917 C1923 1.429 . S
C1918 C1910 1.574 . S
C1918 H1913 0.949 . S
C1918 C1924 1.368 . S
C1919 C1903 1.349 . S
C1919 H1911 0.950 . S
C1919 C1917 1.327 . S
C1920 C1908 1.349 . S
C1920 H1914 0.950 . S
C1920 C1921 1.327 . S
C1921 H1915 0.950 . S
C1921 C1920 1.327 . S
C1921 C1925 1.429 . S
C1922 C1905 1.574 . S
C1922 H1916 0.949 . S
C1922 C1926 1.368 . S
C1923 C1904 1.429 . S
C1923 C1917 1.429 . S
C1923 C1924 1.523 . S
C1924 C1905 1.368 . S
C1924 C1918 1.368 . S
C1924 C1923 1.523 . S
C1925 C1909 1.429 . S
C1925 C1921 1.429 . S
C1925 C1926 1.523 . S
C1926 C1910 1.368 . S
C1926 C1922 1.368 . S
C1926 C1925 1.523 . S
H1927 C1902 0.950 . S
H1928 C1904 0.950 . S
H1929 C1905 0.949 . S
H1930 C1907 0.950 . S
H1931 C1909 0.950 . S
C1932 C1933 1.349 . S
C1932 C1934 1.327 . S
C1932 H1957 0.950 . S
C1933 C1932 1.349 . S
C1933 C1949 1.349 . S
C1934 C1932 1.327 . S
C1934 C1953 1.429 . S
C1934 H1958 0.950 . S
C1935 C1952 1.574 . S
C1935 C1954 1.368 . S
C1935 H1959 0.949 . S
H1936 C1940 0.949 . S
C1937 C1938 1.349 . S
C1937 C1939 1.327 . S
C1937 H1960 0.950 . S
C1938 C1937 1.349 . S
C1938 C1950 1.349 . S
C1939 C1937 1.327 . S
C1939 C1955 1.429 . S
C1939 H1961 0.950 . S
C1940 H1936 0.949 . S
C1940 C1948 1.574 . S
C1940 C1956 1.368 . S
H1941 C1949 0.950 . S
H1942 C1947 0.950 . S
H1943 C1948 0.949 . S
H1944 C1950 0.950 . S
H1945 C1951 0.950 . S
H1946 C1952 0.949 . S
C1947 H1942 0.950 . S
C1947 C1949 1.327 . S
C1947 C1953 1.429 . S
C1948 C1940 1.574 . S
C1948 H1943 0.949 . S
C1948 C1954 1.368 . S
C1949 C1933 1.349 . S
C1949 H1941 0.950 . S
C1949 C1947 1.327 . S
C1950 C1938 1.349 . S
C1950 H1944 0.950 . S
C1950 C1951 1.327 . S
C1951 H1945 0.950 . S
C1951 C1950 1.327 . S
C1951 C1955 1.429 . S
C1952 C1935 1.574 . S
C1952 H1946 0.949 . S
C1952 C1956 1.368 . S
C1953 C1934 1.429 . S
C1953 C1947 1.429 . S
C1953 C1954 1.523 . S
C1954 C1935 1.368 . S
C1954 C1948 1.368 . S
C1954 C1953 1.523 . S
C1955 C1939 1.429 . S
C1955 C1951 1.429 . S
C1955 C1956 1.523 . S
C1956 C1940 1.368 . S
C1956 C1952 1.368 . S
C1956 C1955 1.523 . S
H1957 C1932 0.950 . S
H1958 C1934 0.950 . S
H1959 C1935 0.949 . S
H1960 C1937 0.950 . S
H1961 C1939 0.950 . S
C1962 C1963 1.349 . S
C1962 C1964 1.327 . S
C1962 H1987 0.950 . S
C1963 C1962 1.349 . S
C1963 C1979 1.349 . S
C1964 C1962 1.327 . S
C1964 C1983 1.429 . S
C1964 H1988 0.950 . S
C1965 C1982 1.574 . S
C1965 C1984 1.368 . S
C1965 H1989 0.949 . S
H1966 C1970 0.949 . S
C1967 C1968 1.349 . S
C1967 C1969 1.327 . S
C1967 H1990 0.950 . S
C1968 C1967 1.349 . S
C1968 C1980 1.349 . S
C1969 C1967 1.327 . S
C1969 C1985 1.429 . S
C1969 H1991 0.950 . S
C1970 H1966 0.949 . S
C1970 C1978 1.574 . S
C1970 C1986 1.368 . S
H1971 C1979 0.950 . S
H1972 C1977 0.950 . S
H1973 C1978 0.949 . S
H1974 C1980 0.950 . S
H1975 C1981 0.950 . S
H1976 C1982 0.949 . S
C1977 H1972 0.950 . S
C1977 C1979 1.327 . S
C1977 C1983 1.429 . S
C1978 C1970 1.574 . S
C1978 H1973 0.949 . S
C1978 C1984 1.368 . S
C1979 C1963 1.349 . S
C1979 H1971 0.950 . S
C1979 C1977 1.327 . S
C1980 C1968 1.349 . S
C1980 H1974 0.950 . S
C1980 C1981 1.327 . S
C1981 H1975 0.950 . S
C1981 C1980 1.327 . S
C1981 C1985 1.429 . S
C1982 C1965 1.574 . S
C1982 H1976 0.949 . S
C1982 C1986 1.368 . S
C1983 C1964 1.429 . S
C1983 C1977 1.429 . S
C1983 C1984 1.523 . S
C1984 C1965 1.368 . S
C1984 C1978 1.368 . S
C1984 C1983 1.523 . S
C1985 C1969 1.429 . S
C1985 C1981 1.429 . S
C1985 C1986 1.523 . S
C1986 C1970 1.368 . S
C1986 C1982 1.368 . S
C1986 C1985 1.523 . S
H1987 C1962 0.950 . S
H1988 C1964 0.950 . S
H1989 C1965 0.949 . S
H1990 C1967 0.950 . S
H1991 C1969 0.950 . S
C1992 C1993 1.349 . S
C1992 C1994 1.327 . S
C1992 H2017 0.950 . S
C1993 C1992 1.349 . S
C1993 C2009 1.349 . S
C1994 C1992 1.327 . S
C1994 C2013 1.429 . S
C1994 H2018 0.950 . S
C1995 C2012 1.574 . S
C1995 C2014 1.368 . S
C1995 H2019 0.949 . S
H1996 C2000 0.949 . S
C1997 C1998 1.349 . S
C1997 C1999 1.327 . S
C1997 H2020 0.950 . S
C1998 C1997 1.349 . S
C1998 C2010 1.349 . S
C1999 C1997 1.327 . S
C1999 C2015 1.429 . S
C1999 H2021 0.950 . S
C2000 H1996 0.949 . S
C2000 C2008 1.574 1_655 S
C2000 C2016 1.368 . S
H2001 C2009 0.950 . S
H2002 C2007 0.950 . S
H2003 C2008 0.949 . S
H2004 C2010 0.950 . S
H2005 C2011 0.950 . S
H2006 C2012 0.949 . S
C2007 H2002 0.950 . S
C2007 C2009 1.327 . S
C2007 C2013 1.429 . S
C2008 C2000 1.574 1_455 S
C2008 H2003 0.949 . S
C2008 C2014 1.368 . S
C2009 C1993 1.349 . S
C2009 H2001 0.950 . S
C2009 C2007 1.327 . S
C2010 C1998 1.349 . S
C2010 H2004 0.950 . S
C2010 C2011 1.327 . S
C2011 H2005 0.950 . S
C2011 C2010 1.327 . S
C2011 C2015 1.429 . S
C2012 C1995 1.574 . S
C2012 H2006 0.949 . S
C2012 C2016 1.368 1_455 S
C2013 C1994 1.429 . S
C2013 C2007 1.429 . S
C2013 C2014 1.523 . S
C2014 C1995 1.368 . S
C2014 C2008 1.368 . S
C2014 C2013 1.523 . S
C2015 C1999 1.429 . S
C2015 C2011 1.429 . S
C2015 C2016 1.523 . S
C2016 C2000 1.368 . S
C2016 C2012 1.368 1_655 S
C2016 C2015 1.523 . S
H2017 C1992 0.950 . S
H2018 C1994 0.950 . S
H2019 C1995 0.949 . S
H2020 C1997 0.950 . S
H2021 C1999 0.950 . S
C2022 C2023 1.349 . S
C2022 C2024 1.327 . S
C2022 H2047 0.950 . S
C2023 C2022 1.349 . S
C2023 C2039 1.349 . S
C2024 C2022 1.327 . S
C2024 C2043 1.429 . S
C2024 H2048 0.950 . S
C2025 C2042 1.574 . S
C2025 C2044 1.368 . S
C2025 H2049 0.949 . S
H2026 C2030 0.949 . S
C2027 C2028 1.349 . S
C2027 C2029 1.327 . S
C2027 H2050 0.950 . S
C2028 C2027 1.349 . S
C2028 C2040 1.349 . S
C2029 C2027 1.327 . S
C2029 C2045 1.429 . S
C2029 H2051 0.950 . S
C2030 H2026 0.949 . S
C2030 C2038 1.574 . S
C2030 C2046 1.368 . S
H2031 C2039 0.950 . S
H2032 C2037 0.950 . S
H2033 C2038 0.949 . S
H2034 C2040 0.950 . S
H2035 C2041 0.950 . S
H2036 C2042 0.949 . S
C2037 H2032 0.950 . S
C2037 C2039 1.327 . S
C2037 C2043 1.429 . S
C2038 C2030 1.574 . S
C2038 H2033 0.949 . S
C2038 C2044 1.368 . S
C2039 C2023 1.349 . S
C2039 H2031 0.950 . S
C2039 C2037 1.327 . S
C2040 C2028 1.349 . S
C2040 H2034 0.950 . S
C2040 C2041 1.327 . S
C2041 H2035 0.950 . S
C2041 C2040 1.327 . S
C2041 C2045 1.429 . S
C2042 C2025 1.574 . S
C2042 H2036 0.949 . S
C2042 C2046 1.368 . S
C2043 C2024 1.429 . S
C2043 C2037 1.429 . S
C2043 C2044 1.523 . S
C2044 C2025 1.368 . S
C2044 C2038 1.368 . S
C2044 C2043 1.523 . S
C2045 C2029 1.429 . S
C2045 C2041 1.429 . S
C2045 C2046 1.523 . S
C2046 C2030 1.368 . S
C2046 C2042 1.368 . S
C2046 C2045 1.523 . S
H2047 C2022 0.950 . S
H2048 C2024 0.950 . S
H2049 C2025 0.949 . S
H2050 C2027 0.950 . S
H2051 C2029 0.950 . S
C2052 C2053 1.349 . S
C2052 C2054 1.327 . S
C2052 H2077 0.950 . S
C2053 C2052 1.349 . S
C2053 C2069 1.349 . S
C2054 C2052 1.327 . S
C2054 C2073 1.429 . S
C2054 H2078 0.950 . S
C2055 C2072 1.574 . S
C2055 C2074 1.368 . S
C2055 H2079 0.949 . S
H2056 C2060 0.949 . S
C2057 C2058 1.349 . S
C2057 C2059 1.327 . S
C2057 H2080 0.950 . S
C2058 C2057 1.349 . S
C2058 C2070 1.349 . S
C2059 C2057 1.327 . S
C2059 C2075 1.429 . S
C2059 H2081 0.950 . S
C2060 H2056 0.949 . S
C2060 C2068 1.574 . S
C2060 C2076 1.368 . S
H2061 C2069 0.950 . S
H2062 C2067 0.950 . S
H2063 C2068 0.949 . S
H2064 C2070 0.950 . S
H2065 C2071 0.950 . S
H2066 C2072 0.949 . S
C2067 H2062 0.950 . S
C2067 C2069 1.327 . S
C2067 C2073 1.429 . S
C2068 C2060 1.574 . S
C2068 H2063 0.949 . S
C2068 C2074 1.368 . S
C2069 C2053 1.349 . S
C2069 H2061 0.950 . S
C2069 C2067 1.327 . S
C2070 C2058 1.349 . S
C2070 H2064 0.950 . S
C2070 C2071 1.327 . S
C2071 H2065 0.950 . S
C2071 C2070 1.327 . S
C2071 C2075 1.429 . S
C2072 C2055 1.574 . S
C2072 H2066 0.949 . S
C2072 C2076 1.368 . S
C2073 C2054 1.429 . S
C2073 C2067 1.429 . S
C2073 C2074 1.523 . S
C2074 C2055 1.368 . S
C2074 C2068 1.368 . S
C2074 C2073 1.523 . S
C2075 C2059 1.429 . S
C2075 C2071 1.429 . S
C2075 C2076 1.523 . S
C2076 C2060 1.368 . S
C2076 C2072 1.368 . S
C2076 C2075 1.523 . S
H2077 C2052 0.950 . S
H2078 C2054 0.950 . S
H2079 C2055 0.949 . S
H2080 C2057 0.950 . S
H2081 C2059 0.950 . S
C2082 C2083 1.349 . S
C2082 C2084 1.327 . S
C2082 H2107 0.950 . S
C2083 C2082 1.349 . S
C2083 C2099 1.349 . S
C2084 C2082 1.327 . S
C2084 C2103 1.429 . S
C2084 H2108 0.950 . S
C2085 C2102 1.574 . S
C2085 C2104 1.368 . S
C2085 H2109 0.949 . S
H2086 C2090 0.949 . S
C2087 C2088 1.349 . S
C2087 C2089 1.327 . S
C2087 H2110 0.950 . S
C2088 C2087 1.349 . S
C2088 C2100 1.349 . S
C2089 C2087 1.327 . S
C2089 C2105 1.429 . S
C2089 H2111 0.950 . S
C2090 H2086 0.949 . S
C2090 C2098 1.574 . S
C2090 C2106 1.368 . S
H2091 C2099 0.950 . S
H2092 C2097 0.950 . S
H2093 C2098 0.949 . S
H2094 C2100 0.950 . S
H2095 C2101 0.950 . S
H2096 C2102 0.949 . S
C2097 H2092 0.950 . S
C2097 C2099 1.327 . S
C2097 C2103 1.429 . S
C2098 C2090 1.574 . S
C2098 H2093 0.949 . S
C2098 C2104 1.368 . S
C2099 C2083 1.349 . S
C2099 H2091 0.950 . S
C2099 C2097 1.327 . S
C2100 C2088 1.349 . S
C2100 H2094 0.950 . S
C2100 C2101 1.327 . S
C2101 H2095 0.950 . S
C2101 C2100 1.327 . S
C2101 C2105 1.429 . S
C2102 C2085 1.574 . S
C2102 H2096 0.949 . S
C2102 C2106 1.368 . S
C2103 C2084 1.429 . S
C2103 C2097 1.429 . S
C2103 C2104 1.523 . S
C2104 C2085 1.368 . S
C2104 C2098 1.368 . S
C2104 C2103 1.523 . S
C2105 C2089 1.429 . S
C2105 C2101 1.429 . S
C2105 C2106 1.523 . S
C2106 C2090 1.368 . S
C2106 C2102 1.368 . S
C2106 C2105 1.523 . S
H2107 C2082 0.950 . S
H2108 C2084 0.950 . S
H2109 C2085 0.949 . S
H2110 C2087 0.950 . S
H2111 C2089 0.950 . S
C2112 C2113 1.349 . S
C2112 C2114 1.327 . S
C2112 H2137 0.950 . S
C2113 C2112 1.349 . S
C2113 C2129 1.349 . S
C2114 C2112 1.327 . S
C2114 C2133 1.429 . S
C2114 H2138 0.950 . S
C2115 C2132 1.574 . S
C2115 C2134 1.368 . S
C2115 H2139 0.949 . S
H2116 C2120 0.949 . S
C2117 C2118 1.349 . S
C2117 C2119 1.327 . S
C2117 H2140 0.950 . S
C2118 C2117 1.349 . S
C2118 C2130 1.349 . S
C2119 C2117 1.327 . S
C2119 C2135 1.429 . S
C2119 H2141 0.950 . S
C2120 H2116 0.949 . S
C2120 C2128 1.574 . S
C2120 C2136 1.368 . S
H2121 C2129 0.950 . S
H2122 C2127 0.950 . S
H2123 C2128 0.949 . S
H2124 C2130 0.950 . S
H2125 C2131 0.950 . S
H2126 C2132 0.949 . S
C2127 H2122 0.950 . S
C2127 C2129 1.327 . S
C2127 C2133 1.429 . S
C2128 C2120 1.574 . S
C2128 H2123 0.949 . S
C2128 C2134 1.368 . S
C2129 C2113 1.349 . S
C2129 H2121 0.950 . S
C2129 C2127 1.327 . S
C2130 C2118 1.349 . S
C2130 H2124 0.950 . S
C2130 C2131 1.327 . S
C2131 H2125 0.950 . S
C2131 C2130 1.327 . S
C2131 C2135 1.429 . S
C2132 C2115 1.574 . S
C2132 H2126 0.949 . S
C2132 C2136 1.368 . S
C2133 C2114 1.429 . S
C2133 C2127 1.429 . S
C2133 C2134 1.523 . S
C2134 C2115 1.368 . S
C2134 C2128 1.368 . S
C2134 C2133 1.523 . S
C2135 C2119 1.429 . S
C2135 C2131 1.429 . S
C2135 C2136 1.523 . S
C2136 C2120 1.368 . S
C2136 C2132 1.368 . S
C2136 C2135 1.523 . S
H2137 C2112 0.950 . S
H2138 C2114 0.950 . S
H2139 C2115 0.949 . S
H2140 C2117 0.950 . S
H2141 C2119 0.950 . S
C2142 C2143 1.349 . S
C2142 C2144 1.327 . S
C2142 H2167 0.950 . S
C2143 C2142 1.349 . S
C2143 C2159 1.349 . S
C2144 C2142 1.327 . S
C2144 C2163 1.429 . S
C2144 H2168 0.950 . S
C2145 C2162 1.574 . S
C2145 C2164 1.368 . S
C2145 H2169 0.949 . S
H2146 C2150 0.949 . S
C2147 C2148 1.349 . S
C2147 C2149 1.327 . S
C2147 H2170 0.950 . S
C2148 C2147 1.349 . S
C2148 C2160 1.349 . S
C2149 C2147 1.327 . S
C2149 C2165 1.429 . S
C2149 H2171 0.950 . S
C2150 H2146 0.949 . S
C2150 C2158 1.574 . S
C2150 C2166 1.368 . S
H2151 C2159 0.950 . S
H2152 C2157 0.950 . S
H2153 C2158 0.949 . S
H2154 C2160 0.950 . S
H2155 C2161 0.950 . S
H2156 C2162 0.949 . S
C2157 H2152 0.950 . S
C2157 C2159 1.327 . S
C2157 C2163 1.429 . S
C2158 C2150 1.574 . S
C2158 H2153 0.949 . S
C2158 C2164 1.368 . S
C2159 C2143 1.349 . S
C2159 H2151 0.950 . S
C2159 C2157 1.327 . S
C2160 C2148 1.349 . S
C2160 H2154 0.950 . S
C2160 C2161 1.327 . S
C2161 H2155 0.950 . S
C2161 C2160 1.327 . S
C2161 C2165 1.429 . S
C2162 C2145 1.574 . S
C2162 H2156 0.949 . S
C2162 C2166 1.368 . S
C2163 C2144 1.429 . S
C2163 C2157 1.429 . S
C2163 C2164 1.523 . S
C2164 C2145 1.368 . S
C2164 C2158 1.368 . S
C2164 C2163 1.523 . S
C2165 C2149 1.429 . S
C2165 C2161 1.429 . S
C2165 C2166 1.523 . S
C2166 C2150 1.368 . S
C2166 C2162 1.368 . S
C2166 C2165 1.523 . S
H2167 C2142 0.950 . S
H2168 C2144 0.950 . S
H2169 C2145 0.949 . S
H2170 C2147 0.950 . S
H2171 C2149 0.950 . S
C2172 C2173 1.349 . S
C2172 C2174 1.327 . S
C2172 H2197 0.950 . S
C2173 C2172 1.349 . S
C2173 C2189 1.349 . S
C2174 C2172 1.327 . S
C2174 C2193 1.429 . S
C2174 H2198 0.950 . S
C2175 C2192 1.574 . S
C2175 C2194 1.368 . S
C2175 H2199 0.949 . S
H2176 C2180 0.949 . S
C2177 C2178 1.349 . S
C2177 C2179 1.327 . S
C2177 H2200 0.950 . S
C2178 C2177 1.349 . S
C2178 C2190 1.349 . S
C2179 C2177 1.327 . S
C2179 C2195 1.429 . S
C2179 H2201 0.950 . S
C2180 H2176 0.949 . S
C2180 C2188 1.574 . S
C2180 C2196 1.368 . S
H2181 C2189 0.950 . S
H2182 C2187 0.950 . S
H2183 C2188 0.949 . S
H2184 C2190 0.950 . S
H2185 C2191 0.950 . S
H2186 C2192 0.949 . S
C2187 H2182 0.950 . S
C2187 C2189 1.327 . S
C2187 C2193 1.429 . S
C2188 C2180 1.574 . S
C2188 H2183 0.949 . S
C2188 C2194 1.368 . S
C2189 C2173 1.349 . S
C2189 H2181 0.950 . S
C2189 C2187 1.327 . S
C2190 C2178 1.349 . S
C2190 H2184 0.950 . S
C2190 C2191 1.327 . S
C2191 H2185 0.950 . S
C2191 C2190 1.327 . S
C2191 C2195 1.429 . S
C2192 C2175 1.574 . S
C2192 H2186 0.949 . S
C2192 C2196 1.368 . S
C2193 C2174 1.429 . S
C2193 C2187 1.429 . S
C2193 C2194 1.523 . S
C2194 C2175 1.368 . S
C2194 C2188 1.368 . S
C2194 C2193 1.523 . S
C2195 C2179 1.429 . S
C2195 C2191 1.429 . S
C2195 C2196 1.523 . S
C2196 C2180 1.368 . S
C2196 C2192 1.368 . S
C2196 C2195 1.523 . S
H2197 C2172 0.950 . S
H2198 C2174 0.950 . S
H2199 C2175 0.949 . S
H2200 C2177 0.950 . S
H2201 C2179 0.950 . S
C2202 C2203 1.349 . S
C2202 C2204 1.327 . S
C2202 H2227 0.950 . S
C2203 C2202 1.349 . S
C2203 C2219 1.349 . S
C2204 C2202 1.327 . S
C2204 C2223 1.429 . S
C2204 H2228 0.950 . S
C2205 C2222 1.574 . S
C2205 C2224 1.368 . S
C2205 H2229 0.949 . S
H2206 C2210 0.949 . S
C2207 C2208 1.349 . S
C2207 C2209 1.327 . S
C2207 H2230 0.950 . S
C2208 C2207 1.349 . S
C2208 C2220 1.349 . S
C2209 C2207 1.327 . S
C2209 C2225 1.429 . S
C2209 H2231 0.950 . S
C2210 H2206 0.949 . S
C2210 C2218 1.574 . S
C2210 C2226 1.368 . S
H2211 C2219 0.950 . S
H2212 C2217 0.950 . S
H2213 C2218 0.949 . S
H2214 C2220 0.950 . S
H2215 C2221 0.950 . S
H2216 C2222 0.949 . S
C2217 H2212 0.950 . S
C2217 C2219 1.327 . S
C2217 C2223 1.429 . S
C2218 C2210 1.574 . S
C2218 H2213 0.949 . S
C2218 C2224 1.368 . S
C2219 C2203 1.349 . S
C2219 H2211 0.950 . S
C2219 C2217 1.327 . S
C2220 C2208 1.349 . S
C2220 H2214 0.950 . S
C2220 C2221 1.327 . S
C2221 H2215 0.950 . S
C2221 C2220 1.327 . S
C2221 C2225 1.429 . S
C2222 C2205 1.574 . S
C2222 H2216 0.949 . S
C2222 C2226 1.368 . S
C2223 C2204 1.429 . S
C2223 C2217 1.429 . S
C2223 C2224 1.523 . S
C2224 C2205 1.368 . S
C2224 C2218 1.368 . S
C2224 C2223 1.523 . S
C2225 C2209 1.429 . S
C2225 C2221 1.429 . S
C2225 C2226 1.523 . S
C2226 C2210 1.368 . S
C2226 C2222 1.368 . S
C2226 C2225 1.523 . S
H2227 C2202 0.950 . S
H2228 C2204 0.950 . S
H2229 C2205 0.949 . S
H2230 C2207 0.950 . S
H2231 C2209 0.950 . S
C2232 C2233 1.349 . S
C2232 C2234 1.327 . S
C2232 H2257 0.950 . S
C2233 C2232 1.349 . S
C2233 C2249 1.349 . S
C2234 C2232 1.327 . S
C2234 C2253 1.429 . S
C2234 H2258 0.950 . S
C2235 C2252 1.574 . S
C2235 C2254 1.368 . S
C2235 H2259 0.949 . S
H2236 C2240 0.949 . S
C2237 C2238 1.349 . S
C2237 C2239 1.327 . S
C2237 H2260 0.950 . S
C2238 C2237 1.349 . S
C2238 C2250 1.349 . S
C2239 C2237 1.327 . S
C2239 C2255 1.429 . S
C2239 H2261 0.950 . S
C2240 H2236 0.949 . S
C2240 C2248 1.574 . S
C2240 C2256 1.368 . S
H2241 C2249 0.950 . S
H2242 C2247 0.950 . S
H2243 C2248 0.949 . S
H2244 C2250 0.950 . S
H2245 C2251 0.950 . S
H2246 C2252 0.949 . S
C2247 H2242 0.950 . S
C2247 C2249 1.327 . S
C2247 C2253 1.429 . S
C2248 C2240 1.574 . S
C2248 H2243 0.949 . S
C2248 C2254 1.368 . S
C2249 C2233 1.349 . S
C2249 H2241 0.950 . S
C2249 C2247 1.327 . S
C2250 C2238 1.349 . S
C2250 H2244 0.950 . S
C2250 C2251 1.327 . S
C2251 H2245 0.950 . S
C2251 C2250 1.327 . S
C2251 C2255 1.429 . S
C2252 C2235 1.574 . S
C2252 H2246 0.949 . S
C2252 C2256 1.368 . S
C2253 C2234 1.429 . S
C2253 C2247 1.429 . S
C2253 C2254 1.523 . S
C2254 C2235 1.368 . S
C2254 C2248 1.368 . S
C2254 C2253 1.523 . S
C2255 C2239 1.429 . S
C2255 C2251 1.429 . S
C2255 C2256 1.523 . S
C2256 C2240 1.368 . S
C2256 C2252 1.368 . S
C2256 C2255 1.523 . S
H2257 C2232 0.950 . S
H2258 C2234 0.950 . S
H2259 C2235 0.949 . S
H2260 C2237 0.950 . S
H2261 C2239 0.950 . S
C2262 C2263 1.349 . S
C2262 C2264 1.327 . S
C2262 H2287 0.950 . S
C2263 C2262 1.349 . S
C2263 C2279 1.349 . S
C2264 C2262 1.327 . S
C2264 C2283 1.429 . S
C2264 H2288 0.950 . S
C2265 C2282 1.574 . S
C2265 C2284 1.368 . S
C2265 H2289 0.949 . S
H2266 C2270 0.949 . S
C2267 C2268 1.349 . S
C2267 C2269 1.327 . S
C2267 H2290 0.950 . S
C2268 C2267 1.349 . S
C2268 C2280 1.349 . S
C2269 C2267 1.327 . S
C2269 C2285 1.429 . S
C2269 H2291 0.950 . S
C2270 H2266 0.949 . S
C2270 C2278 1.574 . S
C2270 C2286 1.368 . S
H2271 C2279 0.950 . S
H2272 C2277 0.950 . S
H2273 C2278 0.949 . S
H2274 C2280 0.950 . S
H2275 C2281 0.950 . S
H2276 C2282 0.949 . S
C2277 H2272 0.950 . S
C2277 C2279 1.327 . S
C2277 C2283 1.429 . S
C2278 C2270 1.574 . S
C2278 H2273 0.949 . S
C2278 C2284 1.368 . S
C2279 C2263 1.349 . S
C2279 H2271 0.950 . S
C2279 C2277 1.327 . S
C2280 C2268 1.349 . S
C2280 H2274 0.950 . S
C2280 C2281 1.327 . S
C2281 H2275 0.950 . S
C2281 C2280 1.327 . S
C2281 C2285 1.429 . S
C2282 C2265 1.574 . S
C2282 H2276 0.949 . S
C2282 C2286 1.368 . S
C2283 C2264 1.429 . S
C2283 C2277 1.429 . S
C2283 C2284 1.523 . S
C2284 C2265 1.368 . S
C2284 C2278 1.368 . S
C2284 C2283 1.523 . S
C2285 C2269 1.429 . S
C2285 C2281 1.429 . S
C2285 C2286 1.523 . S
C2286 C2270 1.368 . S
C2286 C2282 1.368 . S
C2286 C2285 1.523 . S
H2287 C2262 0.950 . S
H2288 C2264 0.950 . S
H2289 C2265 0.949 . S
H2290 C2267 0.950 . S
H2291 C2269 0.950 . S
C2292 C2293 1.349 . S
C2292 C2294 1.327 . S
C2292 H2317 0.950 . S
C2293 C2292 1.349 . S
C2293 C2309 1.349 . S
C2294 C2292 1.327 . S
C2294 C2313 1.429 . S
C2294 H2318 0.950 . S
C2295 C2312 1.574 . S
C2295 C2314 1.368 . S
C2295 H2319 0.949 . S
H2296 C2300 0.949 . S
C2297 C2298 1.349 . S
C2297 C2299 1.327 . S
C2297 H2320 0.950 . S
C2298 C2297 1.349 . S
C2298 C2310 1.349 . S
C2299 C2297 1.327 . S
C2299 C2315 1.429 . S
C2299 H2321 0.950 . S
C2300 H2296 0.949 . S
C2300 C2308 1.574 . S
C2300 C2316 1.368 . S
H2301 C2309 0.950 . S
H2302 C2307 0.950 . S
H2303 C2308 0.949 . S
H2304 C2310 0.950 . S
H2305 C2311 0.950 . S
H2306 C2312 0.949 . S
C2307 H2302 0.950 . S
C2307 C2309 1.327 . S
C2307 C2313 1.429 . S
C2308 C2300 1.574 . S
C2308 H2303 0.949 . S
C2308 C2314 1.368 . S
C2309 C2293 1.349 . S
C2309 H2301 0.950 . S
C2309 C2307 1.327 . S
C2310 C2298 1.349 . S
C2310 H2304 0.950 . S
C2310 C2311 1.327 . S
C2311 H2305 0.950 . S
C2311 C2310 1.327 . S
C2311 C2315 1.429 . S
C2312 C2295 1.574 . S
C2312 H2306 0.949 . S
C2312 C2316 1.368 . S
C2313 C2294 1.429 . S
C2313 C2307 1.429 . S
C2313 C2314 1.523 . S
C2314 C2295 1.368 . S
C2314 C2308 1.368 . S
C2314 C2313 1.523 . S
C2315 C2299 1.429 . S
C2315 C2311 1.429 . S
C2315 C2316 1.523 . S
C2316 C2300 1.368 . S
C2316 C2312 1.368 . S
C2316 C2315 1.523 . S
H2317 C2292 0.950 . S
H2318 C2294 0.950 . S
H2319 C2295 0.949 . S
H2320 C2297 0.950 . S
H2321 C2299 0.950 . S
C2322 C2323 1.349 . S
C2322 C2324 1.327 . S
C2322 H2347 0.950 . S
C2323 C2322 1.349 . S
C2323 C2339 1.349 . S
C2324 C2322 1.327 . S
C2324 C2343 1.429 . S
C2324 H2348 0.950 . S
C2325 C2342 1.574 . S
C2325 C2344 1.368 . S
C2325 H2349 0.949 . S
H2326 C2330 0.949 . S
C2327 C2328 1.349 . S
C2327 C2329 1.327 . S
C2327 H2350 0.950 . S
C2328 C2327 1.349 . S
C2328 C2340 1.349 . S
C2329 C2327 1.327 . S
C2329 C2345 1.429 . S
C2329 H2351 0.950 . S
C2330 H2326 0.949 . S
C2330 C2338 1.574 . S
C2330 C2346 1.368 . S
H2331 C2339 0.950 . S
H2332 C2337 0.950 . S
H2333 C2338 0.949 . S
H2334 C2340 0.950 . S
H2335 C2341 0.950 . S
H2336 C2342 0.949 . S
C2337 H2332 0.950 . S
C2337 C2339 1.327 . S
C2337 C2343 1.429 . S
C2338 C2330 1.574 . S
C2338 H2333 0.949 . S
C2338 C2344 1.368 . S
C2339 C2323 1.349 . S
C2339 H2331 0.950 . S
C2339 C2337 1.327 . S
C2340 C2328 1.349 . S
C2340 H2334 0.950 . S
C2340 C2341 1.327 . S
C2341 H2335 0.950 . S
C2341 C2340 1.327 . S
C2341 C2345 1.429 . S
C2342 C2325 1.574 . S
C2342 H2336 0.949 . S
C2342 C2346 1.368 . S
C2343 C2324 1.429 . S
C2343 C2337 1.429 . S
C2343 C2344 1.523 . S
C2344 C2325 1.368 . S
C2344 C2338 1.368 . S
C2344 C2343 1.523 . S
C2345 C2329 1.429 . S
C2345 C2341 1.429 . S
C2345 C2346 1.523 . S
C2346 C2330 1.368 . S
C2346 C2342 1.368 . S
C2346 C2345 1.523 . S
H2347 C2322 0.950 . S
H2348 C2324 0.950 . S
H2349 C2325 0.949 . S
H2350 C2327 0.950 . S
H2351 C2329 0.950 . S
C2352 C2353 1.349 . S
C2352 C2354 1.327 . S
C2352 H2377 0.950 . S
C2353 C2352 1.349 . S
C2353 C2369 1.349 . S
C2354 C2352 1.327 . S
C2354 C2373 1.429 . S
C2354 H2378 0.950 . S
C2355 C2372 1.574 . S
C2355 C2374 1.368 . S
C2355 H2379 0.949 . S
H2356 C2360 0.949 . S
C2357 C2358 1.349 . S
C2357 C2359 1.327 . S
C2357 H2380 0.950 . S
C2358 C2357 1.349 . S
C2358 C2370 1.349 . S
C2359 C2357 1.327 . S
C2359 C2375 1.429 . S
C2359 H2381 0.950 . S
C2360 H2356 0.949 . S
C2360 C2368 1.574 . S
C2360 C2376 1.368 . S
H2361 C2369 0.950 . S
H2362 C2367 0.950 . S
H2363 C2368 0.949 . S
H2364 C2370 0.950 . S
H2365 C2371 0.950 . S
H2366 C2372 0.949 . S
C2367 H2362 0.950 . S
C2367 C2369 1.327 . S
C2367 C2373 1.429 . S
C2368 C2360 1.574 . S
C2368 H2363 0.949 . S
C2368 C2374 1.368 . S
C2369 C2353 1.349 . S
C2369 H2361 0.950 . S
C2369 C2367 1.327 . S
C2370 C2358 1.349 . S
C2370 H2364 0.950 . S
C2370 C2371 1.327 . S
C2371 H2365 0.950 . S
C2371 C2370 1.327 . S
C2371 C2375 1.429 . S
C2372 C2355 1.574 . S
C2372 H2366 0.949 . S
C2372 C2376 1.368 . S
C2373 C2354 1.429 . S
C2373 C2367 1.429 . S
C2373 C2374 1.523 . S
C2374 C2355 1.368 . S
C2374 C2368 1.368 . S
C2374 C2373 1.523 . S
C2375 C2359 1.429 . S
C2375 C2371 1.429 . S
C2375 C2376 1.523 . S
C2376 C2360 1.368 . S
C2376 C2372 1.368 . S
C2376 C2375 1.523 . S
H2377 C2352 0.950 . S
H2378 C2354 0.950 . S
H2379 C2355 0.949 . S
H2380 C2357 0.950 . S
H2381 C2359 0.950 . S
C2382 C2383 1.349 . S
C2382 C2384 1.327 . S
C2382 H2407 0.950 . S
C2383 C2382 1.349 . S
C2383 C2399 1.349 . S
C2384 C2382 1.327 . S
C2384 C2403 1.429 . S
C2384 H2408 0.950 . S
C2385 C2402 1.574 . S
C2385 C2404 1.368 . S
C2385 H2409 0.949 . S
H2386 C2390 0.949 . S
C2387 C2388 1.349 . S
C2387 C2389 1.327 . S
C2387 H2410 0.950 . S
C2388 C2387 1.349 . S
C2388 C2400 1.349 . S
C2389 C2387 1.327 . S
C2389 C2405 1.429 . S
C2389 H2411 0.950 . S
C2390 H2386 0.949 . S
C2390 C2398 1.574 . S
C2390 C2406 1.368 . S
H2391 C2399 0.950 . S
H2392 C2397 0.950 . S
H2393 C2398 0.949 . S
H2394 C2400 0.950 . S
H2395 C2401 0.950 . S
H2396 C2402 0.949 . S
C2397 H2392 0.950 . S
C2397 C2399 1.327 . S
C2397 C2403 1.429 . S
C2398 C2390 1.574 . S
C2398 H2393 0.949 . S
C2398 C2404 1.368 . S
C2399 C2383 1.349 . S
C2399 H2391 0.950 . S
C2399 C2397 1.327 . S
C2400 C2388 1.349 . S
C2400 H2394 0.950 . S
C2400 C2401 1.327 . S
C2401 H2395 0.950 . S
C2401 C2400 1.327 . S
C2401 C2405 1.429 . S
C2402 C2385 1.574 . S
C2402 H2396 0.949 . S
C2402 C2406 1.368 . S
C2403 C2384 1.429 . S
C2403 C2397 1.429 . S
C2403 C2404 1.523 . S
C2404 C2385 1.368 . S
C2404 C2398 1.368 . S
C2404 C2403 1.523 . S
C2405 C2389 1.429 . S
C2405 C2401 1.429 . S
C2405 C2406 1.523 . S
C2406 C2390 1.368 . S
C2406 C2402 1.368 . S
C2406 C2405 1.523 . S
H2407 C2382 0.950 . S
H2408 C2384 0.950 . S
H2409 C2385 0.949 . S
H2410 C2387 0.950 . S
H2411 C2389 0.950 . S
C2412 C2413 1.349 . S
C2412 C2414 1.327 . S
C2412 H2437 0.950 . S
C2413 C2412 1.349 . S
C2413 C2429 1.349 . S
C2414 C2412 1.327 . S
C2414 C2433 1.429 . S
C2414 H2438 0.950 . S
C2415 C2432 1.574 . S
C2415 C2434 1.368 . S
C2415 H2439 0.949 . S
H2416 C2420 0.949 . S
C2417 C2418 1.349 . S
C2417 C2419 1.327 . S
C2417 H2440 0.950 . S
C2418 C2417 1.349 . S
C2418 C2430 1.349 . S
C2419 C2417 1.327 . S
C2419 C2435 1.429 . S
C2419 H2441 0.950 . S
C2420 H2416 0.949 . S
C2420 C2428 1.574 . S
C2420 C2436 1.368 . S
H2421 C2429 0.950 . S
H2422 C2427 0.950 . S
H2423 C2428 0.949 . S
H2424 C2430 0.950 . S
H2425 C2431 0.950 . S
H2426 C2432 0.949 . S
C2427 H2422 0.950 . S
C2427 C2429 1.327 . S
C2427 C2433 1.429 . S
C2428 C2420 1.574 . S
C2428 H2423 0.949 . S
C2428 C2434 1.368 . S
C2429 C2413 1.349 . S
C2429 H2421 0.950 . S
C2429 C2427 1.327 . S
C2430 C2418 1.349 . S
C2430 H2424 0.950 . S
C2430 C2431 1.327 . S
C2431 H2425 0.950 . S
C2431 C2430 1.327 . S
C2431 C2435 1.429 . S
C2432 C2415 1.574 . S
C2432 H2426 0.949 . S
C2432 C2436 1.368 . S
C2433 C2414 1.429 . S
C2433 C2427 1.429 . S
C2433 C2434 1.523 . S
C2434 C2415 1.368 . S
C2434 C2428 1.368 . S
C2434 C2433 1.523 . S
C2435 C2419 1.429 . S
C2435 C2431 1.429 . S
C2435 C2436 1.523 . S
C2436 C2420 1.368 . S
C2436 C2432 1.368 . S
C2436 C2435 1.523 . S
H2437 C2412 0.950 . S
H2438 C2414 0.950 . S
H2439 C2415 0.949 . S
H2440 C2417 0.950 . S
H2441 C2419 0.950 . S
C2442 C2443 1.349 . S
C2442 C2444 1.327 . S
C2442 H2467 0.950 . S
C2443 C2442 1.349 . S
C2443 C2459 1.349 . S
C2444 C2442 1.327 . S
C2444 C2463 1.429 . S
C2444 H2468 0.950 . S
C2445 C2462 1.574 . S
C2445 C2464 1.368 . S
C2445 H2469 0.949 . S
H2446 C2450 0.949 . S
C2447 C2448 1.349 . S
C2447 C2449 1.327 . S
C2447 H2470 0.950 . S
C2448 C2447 1.349 . S
C2448 C2460 1.349 . S
C2449 C2447 1.327 . S
C2449 C2465 1.429 . S
C2449 H2471 0.950 . S
C2450 H2446 0.949 . S
C2450 C2458 1.574 . S
C2450 C2466 1.368 . S
H2451 C2459 0.950 . S
H2452 C2457 0.950 . S
H2453 C2458 0.949 . S
H2454 C2460 0.950 . S
H2455 C2461 0.950 . S
H2456 C2462 0.949 . S
C2457 H2452 0.950 . S
C2457 C2459 1.327 . S
C2457 C2463 1.429 . S
C2458 C2450 1.574 . S
C2458 H2453 0.949 . S
C2458 C2464 1.368 . S
C2459 C2443 1.349 . S
C2459 H2451 0.950 . S
C2459 C2457 1.327 . S
C2460 C2448 1.349 . S
C2460 H2454 0.950 . S
C2460 C2461 1.327 . S
C2461 H2455 0.950 . S
C2461 C2460 1.327 . S
C2461 C2465 1.429 . S
C2462 C2445 1.574 . S
C2462 H2456 0.949 . S
C2462 C2466 1.368 . S
C2463 C2444 1.429 . S
C2463 C2457 1.429 . S
C2463 C2464 1.523 . S
C2464 C2445 1.368 . S
C2464 C2458 1.368 . S
C2464 C2463 1.523 . S
C2465 C2449 1.429 . S
C2465 C2461 1.429 . S
C2465 C2466 1.523 . S
C2466 C2450 1.368 . S
C2466 C2462 1.368 . S
C2466 C2465 1.523 . S
H2467 C2442 0.950 . S
H2468 C2444 0.950 . S
H2469 C2445 0.949 . S
H2470 C2447 0.950 . S
H2471 C2449 0.950 . S
C2472 C2473 1.349 . S
C2472 C2474 1.327 . S
C2472 H2497 0.950 . S
C2473 C2472 1.349 . S
C2473 C2489 1.349 . S
C2474 C2472 1.327 . S
C2474 C2493 1.429 . S
C2474 H2498 0.950 . S
C2475 C2492 1.574 . S
C2475 C2494 1.368 . S
C2475 H2499 0.949 . S
H2476 C2480 0.949 . S
C2477 C2478 1.349 . S
C2477 C2479 1.327 . S
C2477 H2500 0.950 . S
C2478 C2477 1.349 . S
C2478 C2490 1.349 . S
C2479 C2477 1.327 . S
C2479 C2495 1.429 . S
C2479 H2501 0.950 . S
C2480 H2476 0.949 . S
C2480 C2488 1.574 . S
C2480 C2496 1.368 . S
H2481 C2489 0.950 . S
H2482 C2487 0.950 . S
H2483 C2488 0.949 . S
H2484 C2490 0.950 . S
H2485 C2491 0.950 . S
H2486 C2492 0.949 . S
C2487 H2482 0.950 . S
C2487 C2489 1.327 . S
C2487 C2493 1.429 . S
C2488 C2480 1.574 . S
C2488 H2483 0.949 . S
C2488 C2494 1.368 . S
C2489 C2473 1.349 . S
C2489 H2481 0.950 . S
C2489 C2487 1.327 . S
C2490 C2478 1.349 . S
C2490 H2484 0.950 . S
C2490 C2491 1.327 . S
C2491 H2485 0.950 . S
C2491 C2490 1.327 . S
C2491 C2495 1.429 . S
C2492 C2475 1.574 . S
C2492 H2486 0.949 . S
C2492 C2496 1.368 . S
C2493 C2474 1.429 . S
C2493 C2487 1.429 . S
C2493 C2494 1.523 . S
C2494 C2475 1.368 . S
C2494 C2488 1.368 . S
C2494 C2493 1.523 . S
C2495 C2479 1.429 . S
C2495 C2491 1.429 . S
C2495 C2496 1.523 . S
C2496 C2480 1.368 . S
C2496 C2492 1.368 . S
C2496 C2495 1.523 . S
H2497 C2472 0.950 . S
H2498 C2474 0.950 . S
H2499 C2475 0.949 . S
H2500 C2477 0.950 . S
H2501 C2479 0.950 . S
C2502 C2503 1.349 . S
C2502 C2504 1.327 . S
C2502 H2527 0.950 . S
C2503 C2502 1.349 . S
C2503 C2519 1.349 . S
C2504 C2502 1.327 . S
C2504 C2523 1.429 . S
C2504 H2528 0.950 . S
C2505 C2522 1.574 . S
C2505 C2524 1.368 . S
C2505 H2529 0.949 . S
H2506 C2510 0.949 . S
C2507 C2508 1.349 . S
C2507 C2509 1.327 . S
C2507 H2530 0.950 . S
C2508 C2507 1.349 . S
C2508 C2520 1.349 . S
C2509 C2507 1.327 . S
C2509 C2525 1.429 . S
C2509 H2531 0.950 . S
C2510 H2506 0.949 . S
C2510 C2518 1.574 . S
C2510 C2526 1.368 . S
H2511 C2519 0.950 . S
H2512 C2517 0.950 . S
H2513 C2518 0.949 . S
H2514 C2520 0.950 . S
H2515 C2521 0.950 . S
H2516 C2522 0.949 . S
C2517 H2512 0.950 . S
C2517 C2519 1.327 . S
C2517 C2523 1.429 . S
C2518 C2510 1.574 . S
C2518 H2513 0.949 . S
C2518 C2524 1.368 . S
C2519 C2503 1.349 . S
C2519 H2511 0.950 . S
C2519 C2517 1.327 . S
C2520 C2508 1.349 . S
C2520 H2514 0.950 . S
C2520 C2521 1.327 . S
C2521 H2515 0.950 . S
C2521 C2520 1.327 . S
C2521 C2525 1.429 . S
C2522 C2505 1.574 . S
C2522 H2516 0.949 . S
C2522 C2526 1.368 . S
C2523 C2504 1.429 . S
C2523 C2517 1.429 . S
C2523 C2524 1.523 . S
C2524 C2505 1.368 . S
C2524 C2518 1.368 . S
C2524 C2523 1.523 . S
C2525 C2509 1.429 . S
C2525 C2521 1.429 . S
C2525 C2526 1.523 . S
C2526 C2510 1.368 . S
C2526 C2522 1.368 . S
C2526 C2525 1.523 . S
H2527 C2502 0.950 . S
H2528 C2504 0.950 . S
H2529 C2505 0.949 . S
H2530 C2507 0.950 . S
H2531 C2509 0.950 . S
C2532 C2533 1.349 . S
C2532 C2534 1.327 . S
C2532 H2557 0.950 . S
C2533 C2532 1.349 . S
C2533 C2549 1.349 . S
C2534 C2532 1.327 . S
C2534 C2553 1.429 . S
C2534 H2558 0.950 . S
C2535 C2552 1.574 . S
C2535 C2554 1.368 . S
C2535 H2559 0.949 . S
H2536 C2540 0.949 . S
C2537 C2538 1.349 . S
C2537 C2539 1.327 . S
C2537 H2560 0.950 . S
C2538 C2537 1.349 . S
C2538 C2550 1.349 . S
C2539 C2537 1.327 . S
C2539 C2555 1.429 . S
C2539 H2561 0.950 . S
C2540 H2536 0.949 . S
C2540 C2548 1.574 . S
C2540 C2556 1.368 . S
H2541 C2549 0.950 . S
H2542 C2547 0.950 . S
H2543 C2548 0.949 . S
H2544 C2550 0.950 . S
H2545 C2551 0.950 . S
H2546 C2552 0.949 . S
C2547 H2542 0.950 . S
C2547 C2549 1.327 . S
C2547 C2553 1.429 . S
C2548 C2540 1.574 . S
C2548 H2543 0.949 . S
C2548 C2554 1.368 . S
C2549 C2533 1.349 . S
C2549 H2541 0.950 . S
C2549 C2547 1.327 . S
C2550 C2538 1.349 . S
C2550 H2544 0.950 . S
C2550 C2551 1.327 . S
C2551 H2545 0.950 . S
C2551 C2550 1.327 . S
C2551 C2555 1.429 . S
C2552 C2535 1.574 . S
C2552 H2546 0.949 . S
C2552 C2556 1.368 . S
C2553 C2534 1.429 . S
C2553 C2547 1.429 . S
C2553 C2554 1.523 . S
C2554 C2535 1.368 . S
C2554 C2548 1.368 . S
C2554 C2553 1.523 . S
C2555 C2539 1.429 . S
C2555 C2551 1.429 . S
C2555 C2556 1.523 . S
C2556 C2540 1.368 . S
C2556 C2552 1.368 . S
C2556 C2555 1.523 . S
H2557 C2532 0.950 . S
H2558 C2534 0.950 . S
H2559 C2535 0.949 . S
H2560 C2537 0.950 . S
H2561 C2539 0.950 . S
C2562 C2563 1.349 . S
C2562 C2564 1.327 . S
C2562 H2587 0.950 . S
C2563 C2562 1.349 . S
C2563 C2579 1.349 . S
C2564 C2562 1.327 . S
C2564 C2583 1.429 . S
C2564 H2588 0.950 . S
C2565 C2582 1.574 . S
C2565 C2584 1.368 . S
C2565 H2589 0.949 . S
H2566 C2570 0.949 . S
C2567 C2568 1.349 . S
C2567 C2569 1.327 . S
C2567 H2590 0.950 . S
C2568 C2567 1.349 . S
C2568 C2580 1.349 . S
C2569 C2567 1.327 . S
C2569 C2585 1.429 . S
C2569 H2591 0.950 . S
C2570 H2566 0.949 . S
C2570 C2578 1.574 . S
C2570 C2586 1.368 . S
H2571 C2579 0.950 . S
H2572 C2577 0.950 . S
H2573 C2578 0.949 . S
H2574 C2580 0.950 . S
H2575 C2581 0.950 . S
H2576 C2582 0.949 . S
C2577 H2572 0.950 . S
C2577 C2579 1.327 . S
C2577 C2583 1.429 . S
C2578 C2570 1.574 . S
C2578 H2573 0.949 . S
C2578 C2584 1.368 . S
C2579 C2563 1.349 . S
C2579 H2571 0.950 . S
C2579 C2577 1.327 . S
C2580 C2568 1.349 . S
C2580 H2574 0.950 . S
C2580 C2581 1.327 . S
C2581 H2575 0.950 . S
C2581 C2580 1.327 . S
C2581 C2585 1.429 . S
C2582 C2565 1.574 . S
C2582 H2576 0.949 . S
C2582 C2586 1.368 . S
C2583 C2564 1.429 . S
C2583 C2577 1.429 . S
C2583 C2584 1.523 . S
C2584 C2565 1.368 . S
C2584 C2578 1.368 . S
C2584 C2583 1.523 . S
C2585 C2569 1.429 . S
C2585 C2581 1.429 . S
C2585 C2586 1.523 . S
C2586 C2570 1.368 . S
C2586 C2582 1.368 . S
C2586 C2585 1.523 . S
H2587 C2562 0.950 . S
H2588 C2564 0.950 . S
H2589 C2565 0.949 . S
H2590 C2567 0.950 . S
H2591 C2569 0.950 . S
C2592 C2593 1.349 . S
C2592 C2594 1.327 . S
C2592 H2617 0.950 . S
C2593 C2592 1.349 . S
C2593 C2609 1.349 . S
C2594 C2592 1.327 . S
C2594 C2613 1.429 . S
C2594 H2618 0.950 . S
C2595 C2612 1.574 . S
C2595 C2614 1.368 . S
C2595 H2619 0.949 . S
H2596 C2600 0.949 . S
C2597 C2598 1.349 . S
C2597 C2599 1.327 . S
C2597 H2620 0.950 . S
C2598 C2597 1.349 . S
C2598 C2610 1.349 . S
C2599 C2597 1.327 . S
C2599 C2615 1.429 . S
C2599 H2621 0.950 . S
C2600 H2596 0.949 . S
C2600 C2608 1.574 . S
C2600 C2616 1.368 . S
H2601 C2609 0.950 . S
H2602 C2607 0.950 . S
H2603 C2608 0.949 . S
H2604 C2610 0.950 . S
H2605 C2611 0.950 . S
H2606 C2612 0.949 . S
C2607 H2602 0.950 . S
C2607 C2609 1.327 . S
C2607 C2613 1.429 . S
C2608 C2600 1.574 . S
C2608 H2603 0.949 . S
C2608 C2614 1.368 . S
C2609 C2593 1.349 . S
C2609 H2601 0.950 . S
C2609 C2607 1.327 . S
C2610 C2598 1.349 . S
C2610 H2604 0.950 . S
C2610 C2611 1.327 . S
C2611 H2605 0.950 . S
C2611 C2610 1.327 . S
C2611 C2615 1.429 . S
C2612 C2595 1.574 . S
C2612 H2606 0.949 . S
C2612 C2616 1.368 . S
C2613 C2594 1.429 . S
C2613 C2607 1.429 . S
C2613 C2614 1.523 . S
C2614 C2595 1.368 . S
C2614 C2608 1.368 . S
C2614 C2613 1.523 . S
C2615 C2599 1.429 . S
C2615 C2611 1.429 . S
C2615 C2616 1.523 . S
C2616 C2600 1.368 . S
C2616 C2612 1.368 . S
C2616 C2615 1.523 . S
H2617 C2592 0.950 . S
H2618 C2594 0.950 . S
H2619 C2595 0.949 . S
H2620 C2597 0.950 . S
H2621 C2599 0.950 . S
C2622 C2623 1.349 . S
C2622 C2624 1.327 . S
C2622 H2647 0.950 . S
C2623 C2622 1.349 . S
C2623 C2639 1.349 . S
C2624 C2622 1.327 . S
C2624 C2643 1.429 . S
C2624 H2648 0.950 . S
C2625 C2642 1.574 . S
C2625 C2644 1.368 . S
C2625 H2649 0.949 . S
H2626 C2630 0.949 . S
C2627 C2628 1.349 . S
C2627 C2629 1.327 . S
C2627 H2650 0.950 . S
C2628 C2627 1.349 . S
C2628 C2640 1.349 . S
C2629 C2627 1.327 . S
C2629 C2645 1.429 . S
C2629 H2651 0.950 . S
C2630 H2626 0.949 . S
C2630 C2638 1.574 . S
C2630 C2646 1.368 . S
H2631 C2639 0.950 . S
H2632 C2637 0.950 . S
H2633 C2638 0.949 . S
H2634 C2640 0.950 . S
H2635 C2641 0.950 . S
H2636 C2642 0.949 . S
C2637 H2632 0.950 . S
C2637 C2639 1.327 . S
C2637 C2643 1.429 . S
C2638 C2630 1.574 . S
C2638 H2633 0.949 . S
C2638 C2644 1.368 . S
C2639 C2623 1.349 . S
C2639 H2631 0.950 . S
C2639 C2637 1.327 . S
C2640 C2628 1.349 . S
C2640 H2634 0.950 . S
C2640 C2641 1.327 . S
C2641 H2635 0.950 . S
C2641 C2640 1.327 . S
C2641 C2645 1.429 . S
C2642 C2625 1.574 . S
C2642 H2636 0.949 . S
C2642 C2646 1.368 . S
C2643 C2624 1.429 . S
C2643 C2637 1.429 . S
C2643 C2644 1.523 . S
C2644 C2625 1.368 . S
C2644 C2638 1.368 . S
C2644 C2643 1.523 . S
C2645 C2629 1.429 . S
C2645 C2641 1.429 . S
C2645 C2646 1.523 . S
C2646 C2630 1.368 . S
C2646 C2642 1.368 . S
C2646 C2645 1.523 . S
H2647 C2622 0.950 . S
H2648 C2624 0.950 . S
H2649 C2625 0.949 . S
H2650 C2627 0.950 . S
H2651 C2629 0.950 . S
C2652 C2653 1.349 . S
C2652 C2654 1.327 . S
C2652 H2677 0.950 . S
C2653 C2652 1.349 . S
C2653 C2669 1.349 . S
C2654 C2652 1.327 . S
C2654 C2673 1.429 . S
C2654 H2678 0.950 . S
C2655 C2672 1.574 . S
C2655 C2674 1.368 . S
C2655 H2679 0.949 . S
H2656 C2660 0.949 . S
C2657 C2658 1.349 . S
C2657 C2659 1.327 . S
C2657 H2680 0.950 . S
C2658 C2657 1.349 . S
C2658 C2670 1.349 . S
C2659 C2657 1.327 . S
C2659 C2675 1.429 . S
C2659 H2681 0.950 . S
C2660 H2656 0.949 . S
C2660 C2668 1.574 . S
C2660 C2676 1.368 . S
H2661 C2669 0.950 . S
H2662 C2667 0.950 . S
H2663 C2668 0.949 . S
H2664 C2670 0.950 . S
H2665 C2671 0.950 . S
H2666 C2672 0.949 . S
C2667 H2662 0.950 . S
C2667 C2669 1.327 . S
C2667 C2673 1.429 . S
C2668 C2660 1.574 . S
C2668 H2663 0.949 . S
C2668 C2674 1.368 . S
C2669 C2653 1.349 . S
C2669 H2661 0.950 . S
C2669 C2667 1.327 . S
C2670 C2658 1.349 . S
C2670 H2664 0.950 . S
C2670 C2671 1.327 . S
C2671 H2665 0.950 . S
C2671 C2670 1.327 . S
C2671 C2675 1.429 . S
C2672 C2655 1.574 . S
C2672 H2666 0.949 . S
C2672 C2676 1.368 . S
C2673 C2654 1.429 . S
C2673 C2667 1.429 . S
C2673 C2674 1.523 . S
C2674 C2655 1.368 . S
C2674 C2668 1.368 . S
C2674 C2673 1.523 . S
C2675 C2659 1.429 . S
C2675 C2671 1.429 . S
C2675 C2676 1.523 . S
C2676 C2660 1.368 . S
C2676 C2672 1.368 . S
C2676 C2675 1.523 . S
H2677 C2652 0.950 . S
H2678 C2654 0.950 . S
H2679 C2655 0.949 . S
H2680 C2657 0.950 . S
H2681 C2659 0.950 . S
C2682 C2683 1.349 . S
C2682 C2684 1.327 . S
C2682 H2707 0.950 . S
C2683 C2682 1.349 . S
C2683 C2699 1.349 . S
C2684 C2682 1.327 . S
C2684 C2703 1.429 . S
C2684 H2708 0.950 . S
C2685 C2702 1.574 . S
C2685 C2704 1.368 . S
C2685 H2709 0.949 . S
H2686 C2690 0.949 . S
C2687 C2688 1.349 . S
C2687 C2689 1.327 . S
C2687 H2710 0.950 . S
C2688 C2687 1.349 . S
C2688 C2700 1.349 . S
C2689 C2687 1.327 . S
C2689 C2705 1.429 . S
C2689 H2711 0.950 . S
C2690 H2686 0.949 . S
C2690 C2698 1.574 . S
C2690 C2706 1.368 . S
H2691 C2699 0.950 . S
H2692 C2697 0.950 . S
H2693 C2698 0.949 . S
H2694 C2700 0.950 . S
H2695 C2701 0.950 . S
H2696 C2702 0.949 . S
C2697 H2692 0.950 . S
C2697 C2699 1.327 . S
C2697 C2703 1.429 . S
C2698 C2690 1.574 . S
C2698 H2693 0.949 . S
C2698 C2704 1.368 . S
C2699 C2683 1.349 . S
C2699 H2691 0.950 . S
C2699 C2697 1.327 . S
C2700 C2688 1.349 . S
C2700 H2694 0.950 . S
C2700 C2701 1.327 . S
C2701 H2695 0.950 . S
C2701 C2700 1.327 . S
C2701 C2705 1.429 . S
C2702 C2685 1.574 . S
C2702 H2696 0.949 . S
C2702 C2706 1.368 . S
C2703 C2684 1.429 . S
C2703 C2697 1.429 . S
C2703 C2704 1.523 . S
C2704 C2685 1.368 . S
C2704 C2698 1.368 . S
C2704 C2703 1.523 . S
C2705 C2689 1.429 . S
C2705 C2701 1.429 . S
C2705 C2706 1.523 . S
C2706 C2690 1.368 . S
C2706 C2702 1.368 . S
C2706 C2705 1.523 . S
H2707 C2682 0.950 . S
H2708 C2684 0.950 . S
H2709 C2685 0.949 . S
H2710 C2687 0.950 . S
H2711 C2689 0.950 . S
C2712 C2713 1.349 . S
C2712 C2714 1.327 . S
C2712 H2737 0.950 . S
C2713 C2712 1.349 . S
C2713 C2729 1.349 . S
C2714 C2712 1.327 . S
C2714 C2733 1.429 . S
C2714 H2738 0.950 . S
C2715 C2732 1.574 . S
C2715 C2734 1.368 . S
C2715 H2739 0.949 . S
H2716 C2720 0.949 . S
C2717 C2718 1.349 . S
C2717 C2719 1.327 . S
C2717 H2740 0.950 . S
C2718 C2717 1.349 . S
C2718 C2730 1.349 . S
C2719 C2717 1.327 . S
C2719 C2735 1.429 . S
C2719 H2741 0.950 . S
C2720 H2716 0.949 . S
C2720 C2728 1.574 . S
C2720 C2736 1.368 . S
H2721 C2729 0.950 . S
H2722 C2727 0.950 . S
H2723 C2728 0.949 . S
H2724 C2730 0.950 . S
H2725 C2731 0.950 . S
H2726 C2732 0.949 . S
C2727 H2722 0.950 . S
C2727 C2729 1.327 . S
C2727 C2733 1.429 . S
C2728 C2720 1.574 . S
C2728 H2723 0.949 . S
C2728 C2734 1.368 . S
C2729 C2713 1.349 . S
C2729 H2721 0.950 . S
C2729 C2727 1.327 . S
C2730 C2718 1.349 . S
C2730 H2724 0.950 . S
C2730 C2731 1.327 . S
C2731 H2725 0.950 . S
C2731 C2730 1.327 . S
C2731 C2735 1.429 . S
C2732 C2715 1.574 . S
C2732 H2726 0.949 . S
C2732 C2736 1.368 . S
C2733 C2714 1.429 . S
C2733 C2727 1.429 . S
C2733 C2734 1.523 . S
C2734 C2715 1.368 . S
C2734 C2728 1.368 . S
C2734 C2733 1.523 . S
C2735 C2719 1.429 . S
C2735 C2731 1.429 . S
C2735 C2736 1.523 . S
C2736 C2720 1.368 . S
C2736 C2732 1.368 . S
C2736 C2735 1.523 . S
H2737 C2712 0.950 . S
H2738 C2714 0.950 . S
H2739 C2715 0.949 . S
H2740 C2717 0.950 . S
H2741 C2719 0.950 . S
C2742 C2743 1.349 . S
C2742 C2744 1.327 . S
C2742 H2767 0.950 . S
C2743 C2742 1.349 . S
C2743 C2759 1.349 . S
C2744 C2742 1.327 . S
C2744 C2763 1.429 . S
C2744 H2768 0.950 . S
C2745 C2762 1.574 . S
C2745 C2764 1.368 . S
C2745 H2769 0.949 . S
H2746 C2750 0.949 . S
C2747 C2748 1.349 . S
C2747 C2749 1.327 . S
C2747 H2770 0.950 . S
C2748 C2747 1.349 . S
C2748 C2760 1.349 . S
C2749 C2747 1.327 . S
C2749 C2765 1.429 . S
C2749 H2771 0.950 . S
C2750 H2746 0.949 . S
C2750 C2758 1.574 . S
C2750 C2766 1.368 . S
H2751 C2759 0.950 . S
H2752 C2757 0.950 . S
H2753 C2758 0.949 . S
H2754 C2760 0.950 . S
H2755 C2761 0.950 . S
H2756 C2762 0.949 . S
C2757 H2752 0.950 . S
C2757 C2759 1.327 . S
C2757 C2763 1.429 . S
C2758 C2750 1.574 . S
C2758 H2753 0.949 . S
C2758 C2764 1.368 . S
C2759 C2743 1.349 . S
C2759 H2751 0.950 . S
C2759 C2757 1.327 . S
C2760 C2748 1.349 . S
C2760 H2754 0.950 . S
C2760 C2761 1.327 . S
C2761 H2755 0.950 . S
C2761 C2760 1.327 . S
C2761 C2765 1.429 . S
C2762 C2745 1.574 . S
C2762 H2756 0.949 . S
C2762 C2766 1.368 . S
C2763 C2744 1.429 . S
C2763 C2757 1.429 . S
C2763 C2764 1.523 . S
C2764 C2745 1.368 . S
C2764 C2758 1.368 . S
C2764 C2763 1.523 . S
C2765 C2749 1.429 . S
C2765 C2761 1.429 . S
C2765 C2766 1.523 . S
C2766 C2750 1.368 . S
C2766 C2762 1.368 . S
C2766 C2765 1.523 . S
H2767 C2742 0.950 . S
H2768 C2744 0.950 . S
H2769 C2745 0.949 . S
H2770 C2747 0.950 . S
H2771 C2749 0.950 . S
C2772 C2773 1.349 . S
C2772 C2774 1.327 . S
C2772 H2797 0.950 . S
C2773 C2772 1.349 . S
C2773 C2789 1.349 . S
C2774 C2772 1.327 . S
C2774 C2793 1.429 . S
C2774 H2798 0.950 . S
C2775 C2792 1.574 . S
C2775 C2794 1.368 . S
C2775 H2799 0.949 . S
H2776 C2780 0.949 . S
C2777 C2778 1.349 . S
C2777 C2779 1.327 . S
C2777 H2800 0.950 . S
C2778 C2777 1.349 . S
C2778 C2790 1.349 . S
C2779 C2777 1.327 . S
C2779 C2795 1.429 . S
C2779 H2801 0.950 . S
C2780 H2776 0.949 . S
C2780 C2788 1.574 . S
C2780 C2796 1.368 . S
H2781 C2789 0.950 . S
H2782 C2787 0.950 . S
H2783 C2788 0.949 . S
H2784 C2790 0.950 . S
H2785 C2791 0.950 . S
H2786 C2792 0.949 . S
C2787 H2782 0.950 . S
C2787 C2789 1.327 . S
C2787 C2793 1.429 . S
C2788 C2780 1.574 . S
C2788 H2783 0.949 . S
C2788 C2794 1.368 . S
C2789 C2773 1.349 . S
C2789 H2781 0.950 . S
C2789 C2787 1.327 . S
C2790 C2778 1.349 . S
C2790 H2784 0.950 . S
C2790 C2791 1.327 . S
C2791 H2785 0.950 . S
C2791 C2790 1.327 . S
C2791 C2795 1.429 . S
C2792 C2775 1.574 . S
C2792 H2786 0.949 . S
C2792 C2796 1.368 . S
C2793 C2774 1.429 . S
C2793 C2787 1.429 . S
C2793 C2794 1.523 . S
C2794 C2775 1.368 . S
C2794 C2788 1.368 . S
C2794 C2793 1.523 . S
C2795 C2779 1.429 . S
C2795 C2791 1.429 . S
C2795 C2796 1.523 . S
C2796 C2780 1.368 . S
C2796 C2792 1.368 . S
C2796 C2795 1.523 . S
H2797 C2772 0.950 . S
H2798 C2774 0.950 . S
H2799 C2775 0.949 . S
H2800 C2777 0.950 . S
H2801 C2779 0.950 . S
C2802 C2803 1.349 . S
C2802 C2804 1.327 . S
C2802 H2827 0.950 . S
C2803 C2802 1.349 . S
C2803 C2819 1.349 . S
C2804 C2802 1.327 . S
C2804 C2823 1.429 . S
C2804 H2828 0.950 . S
C2805 C2822 1.574 . S
C2805 C2824 1.368 . S
C2805 H2829 0.949 . S
H2806 C2810 0.949 . S
C2807 C2808 1.349 . S
C2807 C2809 1.327 . S
C2807 H2830 0.950 . S
C2808 C2807 1.349 . S
C2808 C2820 1.349 . S
C2809 C2807 1.327 . S
C2809 C2825 1.429 . S
C2809 H2831 0.950 . S
C2810 H2806 0.949 . S
C2810 C2818 1.574 . S
C2810 C2826 1.368 . S
H2811 C2819 0.950 . S
H2812 C2817 0.950 . S
H2813 C2818 0.949 . S
H2814 C2820 0.950 . S
H2815 C2821 0.950 . S
H2816 C2822 0.949 . S
C2817 H2812 0.950 . S
C2817 C2819 1.327 . S
C2817 C2823 1.429 . S
C2818 C2810 1.574 . S
C2818 H2813 0.949 . S
C2818 C2824 1.368 . S
C2819 C2803 1.349 . S
C2819 H2811 0.950 . S
C2819 C2817 1.327 . S
C2820 C2808 1.349 . S
C2820 H2814 0.950 . S
C2820 C2821 1.327 . S
C2821 H2815 0.950 . S
C2821 C2820 1.327 . S
C2821 C2825 1.429 . S
C2822 C2805 1.574 . S
C2822 H2816 0.949 . S
C2822 C2826 1.368 . S
C2823 C2804 1.429 . S
C2823 C2817 1.429 . S
C2823 C2824 1.523 . S
C2824 C2805 1.368 . S
C2824 C2818 1.368 . S
C2824 C2823 1.523 . S
C2825 C2809 1.429 . S
C2825 C2821 1.429 . S
C2825 C2826 1.523 . S
C2826 C2810 1.368 . S
C2826 C2822 1.368 . S
C2826 C2825 1.523 . S
H2827 C2802 0.950 . S
H2828 C2804 0.950 . S
H2829 C2805 0.949 . S
H2830 C2807 0.950 . S
H2831 C2809 0.950 . S
C2832 C2833 1.349 . S
C2832 C2834 1.327 . S
C2832 H2857 0.950 . S
C2833 C2832 1.349 . S
C2833 C2849 1.349 . S
C2834 C2832 1.327 . S
C2834 C2853 1.429 . S
C2834 H2858 0.950 . S
C2835 C2852 1.574 . S
C2835 C2854 1.368 . S
C2835 H2859 0.949 . S
H2836 C2840 0.949 . S
C2837 C2838 1.349 . S
C2837 C2839 1.327 . S
C2837 H2860 0.950 . S
C2838 C2837 1.349 . S
C2838 C2850 1.349 . S
C2839 C2837 1.327 . S
C2839 C2855 1.429 . S
C2839 H2861 0.950 . S
C2840 H2836 0.949 . S
C2840 C2848 1.574 . S
C2840 C2856 1.368 . S
H2841 C2849 0.950 . S
H2842 C2847 0.950 . S
H2843 C2848 0.949 . S
H2844 C2850 0.950 . S
H2845 C2851 0.950 . S
H2846 C2852 0.949 . S
C2847 H2842 0.950 . S
C2847 C2849 1.327 . S
C2847 C2853 1.429 . S
C2848 C2840 1.574 . S
C2848 H2843 0.949 . S
C2848 C2854 1.368 . S
C2849 C2833 1.349 . S
C2849 H2841 0.950 . S
C2849 C2847 1.327 . S
C2850 C2838 1.349 . S
C2850 H2844 0.950 . S
C2850 C2851 1.327 . S
C2851 H2845 0.950 . S
C2851 C2850 1.327 . S
C2851 C2855 1.429 . S
C2852 C2835 1.574 . S
C2852 H2846 0.949 . S
C2852 C2856 1.368 . S
C2853 C2834 1.429 . S
C2853 C2847 1.429 . S
C2853 C2854 1.523 . S
C2854 C2835 1.368 . S
C2854 C2848 1.368 . S
C2854 C2853 1.523 . S
C2855 C2839 1.429 . S
C2855 C2851 1.429 . S
C2855 C2856 1.523 . S
C2856 C2840 1.368 . S
C2856 C2852 1.368 . S
C2856 C2855 1.523 . S
H2857 C2832 0.950 . S
H2858 C2834 0.950 . S
H2859 C2835 0.949 . S
H2860 C2837 0.950 . S
H2861 C2839 0.950 . S
C2862 C2863 1.349 . S
C2862 C2864 1.327 . S
C2862 H2887 0.950 . S
C2863 C2862 1.349 . S
C2863 C2879 1.349 . S
C2864 C2862 1.327 . S
C2864 C2883 1.429 . S
C2864 H2888 0.950 . S
C2865 C2882 1.574 . S
C2865 C2884 1.368 . S
C2865 H2889 0.949 . S
H2866 C2870 0.949 . S
C2867 C2868 1.349 . S
C2867 C2869 1.327 . S
C2867 H2890 0.950 . S
C2868 C2867 1.349 . S
C2868 C2880 1.349 . S
C2869 C2867 1.327 . S
C2869 C2885 1.429 . S
C2869 H2891 0.950 . S
C2870 H2866 0.949 . S
C2870 C2878 1.574 . S
C2870 C2886 1.368 . S
H2871 C2879 0.950 . S
H2872 C2877 0.950 . S
H2873 C2878 0.949 . S
H2874 C2880 0.950 . S
H2875 C2881 0.950 . S
H2876 C2882 0.949 . S
C2877 H2872 0.950 . S
C2877 C2879 1.327 . S
C2877 C2883 1.429 . S
C2878 C2870 1.574 . S
C2878 H2873 0.949 . S
C2878 C2884 1.368 . S
C2879 C2863 1.349 . S
C2879 H2871 0.950 . S
C2879 C2877 1.327 . S
C2880 C2868 1.349 . S
C2880 H2874 0.950 . S
C2880 C2881 1.327 . S
C2881 H2875 0.950 . S
C2881 C2880 1.327 . S
C2881 C2885 1.429 . S
C2882 C2865 1.574 . S
C2882 H2876 0.949 . S
C2882 C2886 1.368 . S
C2883 C2864 1.429 . S
C2883 C2877 1.429 . S
C2883 C2884 1.523 . S
C2884 C2865 1.368 . S
C2884 C2878 1.368 . S
C2884 C2883 1.523 . S
C2885 C2869 1.429 . S
C2885 C2881 1.429 . S
C2885 C2886 1.523 . S
C2886 C2870 1.368 . S
C2886 C2882 1.368 . S
C2886 C2885 1.523 . S
H2887 C2862 0.950 . S
H2888 C2864 0.950 . S
H2889 C2865 0.949 . S
H2890 C2867 0.950 . S
H2891 C2869 0.950 . S
C2892 C2893 1.349 . S
C2892 C2894 1.327 . S
C2892 H2917 0.950 . S
C2893 C2892 1.349 . S
C2893 C2909 1.349 . S
C2894 C2892 1.327 . S
C2894 C2913 1.429 . S
C2894 H2918 0.950 . S
C2895 C2912 1.574 . S
C2895 C2914 1.368 . S
C2895 H2919 0.949 . S
H2896 C2900 0.949 . S
C2897 C2898 1.349 . S
C2897 C2899 1.327 . S
C2897 H2920 0.950 . S
C2898 C2897 1.349 . S
C2898 C2910 1.349 . S
C2899 C2897 1.327 . S
C2899 C2915 1.429 . S
C2899 H2921 0.950 . S
C2900 H2896 0.949 . S
C2900 C2908 1.574 . S
C2900 C2916 1.368 . S
H2901 C2909 0.950 . S
H2902 C2907 0.950 . S
H2903 C2908 0.949 . S
H2904 C2910 0.950 . S
H2905 C2911 0.950 . S
H2906 C2912 0.949 . S
C2907 H2902 0.950 . S
C2907 C2909 1.327 . S
C2907 C2913 1.429 . S
C2908 C2900 1.574 . S
C2908 H2903 0.949 . S
C2908 C2914 1.368 . S
C2909 C2893 1.349 . S
C2909 H2901 0.950 . S
C2909 C2907 1.327 . S
C2910 C2898 1.349 . S
C2910 H2904 0.950 . S
C2910 C2911 1.327 . S
C2911 H2905 0.950 . S
C2911 C2910 1.327 . S
C2911 C2915 1.429 . S
C2912 C2895 1.574 . S
C2912 H2906 0.949 . S
C2912 C2916 1.368 . S
C2913 C2894 1.429 . S
C2913 C2907 1.429 . S
C2913 C2914 1.523 . S
C2914 C2895 1.368 . S
C2914 C2908 1.368 . S
C2914 C2913 1.523 . S
C2915 C2899 1.429 . S
C2915 C2911 1.429 . S
C2915 C2916 1.523 . S
C2916 C2900 1.368 . S
C2916 C2912 1.368 . S
C2916 C2915 1.523 . S
H2917 C2892 0.950 . S
H2918 C2894 0.950 . S
H2919 C2895 0.949 . S
H2920 C2897 0.950 . S
H2921 C2899 0.950 . S
C2922 C2923 1.349 . S
C2922 C2924 1.327 . S
C2922 H2947 0.950 . S
C2923 C2922 1.349 . S
C2923 C2939 1.349 . S
C2924 C2922 1.327 . S
C2924 C2943 1.429 . S
C2924 H2948 0.950 . S
C2925 C2942 1.574 . S
C2925 C2944 1.368 . S
C2925 H2949 0.949 . S
H2926 C2930 0.949 . S
C2927 C2928 1.349 . S
C2927 C2929 1.327 . S
C2927 H2950 0.950 . S
C2928 C2927 1.349 . S
C2928 C2940 1.349 . S
C2929 C2927 1.327 . S
C2929 C2945 1.429 . S
C2929 H2951 0.950 . S
C2930 H2926 0.949 . S
C2930 C2938 1.574 . S
C2930 C2946 1.368 . S
H2931 C2939 0.950 . S
H2932 C2937 0.950 . S
H2933 C2938 0.949 . S
H2934 C2940 0.950 . S
H2935 C2941 0.950 . S
H2936 C2942 0.949 . S
C2937 H2932 0.950 . S
C2937 C2939 1.327 . S
C2937 C2943 1.429 . S
C2938 C2930 1.574 . S
C2938 H2933 0.949 . S
C2938 C2944 1.368 . S
C2939 C2923 1.349 . S
C2939 H2931 0.950 . S
C2939 C2937 1.327 . S
C2940 C2928 1.349 . S
C2940 H2934 0.950 . S
C2940 C2941 1.327 . S
C2941 H2935 0.950 . S
C2941 C2940 1.327 . S
C2941 C2945 1.429 . S
C2942 C2925 1.574 . S
C2942 H2936 0.949 . S
C2942 C2946 1.368 . S
C2943 C2924 1.429 . S
C2943 C2937 1.429 . S
C2943 C2944 1.523 . S
C2944 C2925 1.368 . S
C2944 C2938 1.368 . S
C2944 C2943 1.523 . S
C2945 C2929 1.429 . S
C2945 C2941 1.429 . S
C2945 C2946 1.523 . S
C2946 C2930 1.368 . S
C2946 C2942 1.368 . S
C2946 C2945 1.523 . S
H2947 C2922 0.950 . S
H2948 C2924 0.950 . S
H2949 C2925 0.949 . S
H2950 C2927 0.950 . S
H2951 C2929 0.950 . S
C2952 C2953 1.349 . S
C2952 C2954 1.327 . S
C2952 H2977 0.950 . S
C2953 C2952 1.349 . S
C2953 C2969 1.349 . S
C2954 C2952 1.327 . S
C2954 C2973 1.429 . S
C2954 H2978 0.950 . S
C2955 C2972 1.574 . S
C2955 C2974 1.368 . S
C2955 H2979 0.949 . S
H2956 C2960 0.949 . S
C2957 C2958 1.349 . S
C2957 C2959 1.327 . S
C2957 H2980 0.950 . S
C2958 C2957 1.349 . S
C2958 C2970 1.349 . S
C2959 C2957 1.327 . S
C2959 C2975 1.429 . S
C2959 H2981 0.950 . S
C2960 H2956 0.949 . S
C2960 C2968 1.574 . S
C2960 C2976 1.368 . S
H2961 C2969 0.950 . S
H2962 C2967 0.950 . S
H2963 C2968 0.949 . S
H2964 C2970 0.950 . S
H2965 C2971 0.950 . S
H2966 C2972 0.949 . S
C2967 H2962 0.950 . S
C2967 C2969 1.327 . S
C2967 C2973 1.429 . S
C2968 C2960 1.574 . S
C2968 H2963 0.949 . S
C2968 C2974 1.368 . S
C2969 C2953 1.349 . S
C2969 H2961 0.950 . S
C2969 C2967 1.327 . S
C2970 C2958 1.349 . S
C2970 H2964 0.950 . S
C2970 C2971 1.327 . S
C2971 H2965 0.950 . S
C2971 C2970 1.327 . S
C2971 C2975 1.429 . S
C2972 C2955 1.574 . S
C2972 H2966 0.949 . S
C2972 C2976 1.368 . S
C2973 C2954 1.429 . S
C2973 C2967 1.429 . S
C2973 C2974 1.523 . S
C2974 C2955 1.368 . S
C2974 C2968 1.368 . S
C2974 C2973 1.523 . S
C2975 C2959 1.429 . S
C2975 C2971 1.429 . S
C2975 C2976 1.523 . S
C2976 C2960 1.368 . S
C2976 C2972 1.368 . S
C2976 C2975 1.523 . S
H2977 C2952 0.950 . S
H2978 C2954 0.950 . S
H2979 C2955 0.949 . S
H2980 C2957 0.950 . S
H2981 C2959 0.950 . S
C2982 C2983 1.349 . S
C2982 C2984 1.327 . S
C2982 H3007 0.950 . S
C2983 C2982 1.349 . S
C2983 C2999 1.349 . S
C2984 C2982 1.327 . S
C2984 C3003 1.429 . S
C2984 H3008 0.950 . S
C2985 C3002 1.574 . S
C2985 C3004 1.368 . S
C2985 H3009 0.949 . S
H2986 C2990 0.949 . S
C2987 C2988 1.349 . S
C2987 C2989 1.327 . S
C2987 H3010 0.950 . S
C2988 C2987 1.349 . S
C2988 C3000 1.349 . S
C2989 C2987 1.327 . S
C2989 C3005 1.429 . S
C2989 H3011 0.950 . S
C2990 H2986 0.949 . S
C2990 C2998 1.574 . S
C2990 C3006 1.368 . S
H2991 C2999 0.950 . S
H2992 C2997 0.950 . S
H2993 C2998 0.949 . S
H2994 C3000 0.950 . S
H2995 C3001 0.950 . S
H2996 C3002 0.949 . S
C2997 H2992 0.950 . S
C2997 C2999 1.327 . S
C2997 C3003 1.429 . S
C2998 C2990 1.574 . S
C2998 H2993 0.949 . S
C2998 C3004 1.368 . S
C2999 C2983 1.349 . S
C2999 H2991 0.950 . S
C2999 C2997 1.327 . S
C3000 C2988 1.349 . S
C3000 H2994 0.950 . S
C3000 C3001 1.327 . S
C3001 H2995 0.950 . S
C3001 C3000 1.327 . S
C3001 C3005 1.429 . S
C3002 C2985 1.574 . S
C3002 H2996 0.949 . S
C3002 C3006 1.368 . S
C3003 C2984 1.429 . S
C3003 C2997 1.429 . S
C3003 C3004 1.523 . S
C3004 C2985 1.368 . S
C3004 C2998 1.368 . S
C3004 C3003 1.523 . S
C3005 C2989 1.429 . S
C3005 C3001 1.429 . S
C3005 C3006 1.523 . S
C3006 C2990 1.368 . S
C3006 C3002 1.368 . S
C3006 C3005 1.523 . S
H3007 C2982 0.950 . S
H3008 C2984 0.950 . S
H3009 C2985 0.949 . S
H3010 C2987 0.950 . S
H3011 C2989 0.950 . S
C3012 C3013 1.349 . S
C3012 C3014 1.327 . S
C3012 H3037 0.950 . S
C3013 C3012 1.349 . S
C3013 C3029 1.349 . S
C3014 C3012 1.327 . S
C3014 C3033 1.429 . S
C3014 H3038 0.950 . S
C3015 C3032 1.574 . S
C3015 C3034 1.368 . S
C3015 H3039 0.949 . S
H3016 C3020 0.949 . S
C3017 C3018 1.349 . S
C3017 C3019 1.327 . S
C3017 H3040 0.950 . S
C3018 C3017 1.349 . S
C3018 C3030 1.349 . S
C3019 C3017 1.327 . S
C3019 C3035 1.429 . S
C3019 H3041 0.950 . S
C3020 H3016 0.949 . S
C3020 C3028 1.574 . S
C3020 C3036 1.368 . S
H3021 C3029 0.950 . S
H3022 C3027 0.950 . S
H3023 C3028 0.949 . S
H3024 C3030 0.950 . S
H3025 C3031 0.950 . S
H3026 C3032 0.949 . S
C3027 H3022 0.950 . S
C3027 C3029 1.327 . S
C3027 C3033 1.429 . S
C3028 C3020 1.574 . S
C3028 H3023 0.949 . S
C3028 C3034 1.368 . S
C3029 C3013 1.349 . S
C3029 H3021 0.950 . S
C3029 C3027 1.327 . S
C3030 C3018 1.349 . S
C3030 H3024 0.950 . S
C3030 C3031 1.327 . S
C3031 H3025 0.950 . S
C3031 C3030 1.327 . S
C3031 C3035 1.429 . S
C3032 C3015 1.574 . S
C3032 H3026 0.949 . S
C3032 C3036 1.368 . S
C3033 C3014 1.429 . S
C3033 C3027 1.429 . S
C3033 C3034 1.523 . S
C3034 C3015 1.368 . S
C3034 C3028 1.368 . S
C3034 C3033 1.523 . S
C3035 C3019 1.429 . S
C3035 C3031 1.429 . S
C3035 C3036 1.523 . S
C3036 C3020 1.368 . S
C3036 C3032 1.368 . S
C3036 C3035 1.523 . S
H3037 C3012 0.950 . S
H3038 C3014 0.950 . S
H3039 C3015 0.949 . S
H3040 C3017 0.950 . S
H3041 C3019 0.950 . S
C3042 C3043 1.349 . S
C3042 C3044 1.327 . S
C3042 H3067 0.950 . S
C3043 C3042 1.349 . S
C3043 C3059 1.349 . S
C3044 C3042 1.327 . S
C3044 C3063 1.429 . S
C3044 H3068 0.950 . S
C3045 C3062 1.574 . S
C3045 C3064 1.368 . S
C3045 H3069 0.949 . S
H3046 C3050 0.949 . S
C3047 C3048 1.349 . S
C3047 C3049 1.327 . S
C3047 H3070 0.950 . S
C3048 C3047 1.349 . S
C3048 C3060 1.349 . S
C3049 C3047 1.327 . S
C3049 C3065 1.429 . S
C3049 H3071 0.950 . S
C3050 H3046 0.949 . S
C3050 C3058 1.574 . S
C3050 C3066 1.368 . S
H3051 C3059 0.950 . S
H3052 C3057 0.950 . S
H3053 C3058 0.949 . S
H3054 C3060 0.950 . S
H3055 C3061 0.950 . S
H3056 C3062 0.949 . S
C3057 H3052 0.950 . S
C3057 C3059 1.327 . S
C3057 C3063 1.429 . S
C3058 C3050 1.574 . S
C3058 H3053 0.949 . S
C3058 C3064 1.368 . S
C3059 C3043 1.349 . S
C3059 H3051 0.950 . S
C3059 C3057 1.327 . S
C3060 C3048 1.349 . S
C3060 H3054 0.950 . S
C3060 C3061 1.327 . S
C3061 H3055 0.950 . S
C3061 C3060 1.327 . S
C3061 C3065 1.429 . S
C3062 C3045 1.574 . S
C3062 H3056 0.949 . S
C3062 C3066 1.368 . S
C3063 C3044 1.429 . S
C3063 C3057 1.429 . S
C3063 C3064 1.523 . S
C3064 C3045 1.368 . S
C3064 C3058 1.368 . S
C3064 C3063 1.523 . S
C3065 C3049 1.429 . S
C3065 C3061 1.429 . S
C3065 C3066 1.523 . S
C3066 C3050 1.368 . S
C3066 C3062 1.368 . S
C3066 C3065 1.523 . S
H3067 C3042 0.950 . S
H3068 C3044 0.950 . S
H3069 C3045 0.949 . S
H3070 C3047 0.950 . S
H3071 C3049 0.950 . S
C3072 C3073 1.349 . S
C3072 C3074 1.327 . S
C3072 H3097 0.950 . S
C3073 C3072 1.349 . S
C3073 C3089 1.349 . S
C3074 C3072 1.327 . S
C3074 C3093 1.429 . S
C3074 H3098 0.950 . S
C3075 C3092 1.574 . S
C3075 C3094 1.368 . S
C3075 H3099 0.949 . S
H3076 C3080 0.949 . S
C3077 C3078 1.349 . S
C3077 C3079 1.327 . S
C3077 H3100 0.950 . S
C3078 C3077 1.349 . S
C3078 C3090 1.349 . S
C3079 C3077 1.327 . S
C3079 C3095 1.429 . S
C3079 H3101 0.950 . S
C3080 H3076 0.949 . S
C3080 C3088 1.574 . S
C3080 C3096 1.368 . S
H3081 C3089 0.950 . S
H3082 C3087 0.950 . S
H3083 C3088 0.949 . S
H3084 C3090 0.950 . S
H3085 C3091 0.950 . S
H3086 C3092 0.949 . S
C3087 H3082 0.950 . S
C3087 C3089 1.327 . S
C3087 C3093 1.429 . S
C3088 C3080 1.574 . S
C3088 H3083 0.949 . S
C3088 C3094 1.368 . S
C3089 C3073 1.349 . S
C3089 H3081 0.950 . S
C3089 C3087 1.327 . S
C3090 C3078 1.349 . S
C3090 H3084 0.950 . S
C3090 C3091 1.327 . S
C3091 H3085 0.950 . S
C3091 C3090 1.327 . S
C3091 C3095 1.429 . S
C3092 C3075 1.574 . S
C3092 H3086 0.949 . S
C3092 C3096 1.368 . S
C3093 C3074 1.429 . S
C3093 C3087 1.429 . S
C3093 C3094 1.523 . S
C3094 C3075 1.368 . S
C3094 C3088 1.368 . S
C3094 C3093 1.523 . S
C3095 C3079 1.429 . S
C3095 C3091 1.429 . S
C3095 C3096 1.523 . S
C3096 C3080 1.368 . S
C3096 C3092 1.368 . S
C3096 C3095 1.523 . S
H3097 C3072 0.950 . S
H3098 C3074 0.950 . S
H3099 C3075 0.949 . S
H3100 C3077 0.950 . S
H3101 C3079 0.950 . S
C3102 C3103 1.349 . S
C3102 C3104 1.327 . S
C3102 H3127 0.950 . S
C3103 C3102 1.349 . S
C3103 C3119 1.349 . S
C3104 C3102 1.327 . S
C3104 C3123 1.429 . S
C3104 H3128 0.950 . S
C3105 C3122 1.574 . S
C3105 C3124 1.368 . S
C3105 H3129 0.949 . S
H3106 C3110 0.949 . S
C3107 C3108 1.349 . S
C3107 C3109 1.327 . S
C3107 H3130 0.950 . S
C3108 C3107 1.349 . S
C3108 C3120 1.349 . S
C3109 C3107 1.327 . S
C3109 C3125 1.429 . S
C3109 H3131 0.950 . S
C3110 H3106 0.949 . S
C3110 C3118 1.574 . S
C3110 C3126 1.368 . S
H3111 C3119 0.950 . S
H3112 C3117 0.950 . S
H3113 C3118 0.949 . S
H3114 C3120 0.950 . S
H3115 C3121 0.950 . S
H3116 C3122 0.949 . S
C3117 H3112 0.950 . S
C3117 C3119 1.327 . S
C3117 C3123 1.429 . S
C3118 C3110 1.574 . S
C3118 H3113 0.949 . S
C3118 C3124 1.368 . S
C3119 C3103 1.349 . S
C3119 H3111 0.950 . S
C3119 C3117 1.327 . S
C3120 C3108 1.349 . S
C3120 H3114 0.950 . S
C3120 C3121 1.327 . S
C3121 H3115 0.950 . S
C3121 C3120 1.327 . S
C3121 C3125 1.429 . S
C3122 C3105 1.574 . S
C3122 H3116 0.949 . S
C3122 C3126 1.368 . S
C3123 C3104 1.429 . S
C3123 C3117 1.429 . S
C3123 C3124 1.523 . S
C3124 C3105 1.368 . S
C3124 C3118 1.368 . S
C3124 C3123 1.523 . S
C3125 C3109 1.429 . S
C3125 C3121 1.429 . S
C3125 C3126 1.523 . S
C3126 C3110 1.368 . S
C3126 C3122 1.368 . S
C3126 C3125 1.523 . S
H3127 C3102 0.950 . S
H3128 C3104 0.950 . S
H3129 C3105 0.949 . S
H3130 C3107 0.950 . S
H3131 C3109 0.950 . S
C3132 C3133 1.349 . S
C3132 C3134 1.327 . S
C3132 H3157 0.950 . S
C3133 C3132 1.349 . S
C3133 C3149 1.349 . S
C3134 C3132 1.327 . S
C3134 C3153 1.429 . S
C3134 H3158 0.950 . S
C3135 C3152 1.574 . S
C3135 C3154 1.368 . S
C3135 H3159 0.949 . S
H3136 C3140 0.949 . S
C3137 C3138 1.349 . S
C3137 C3139 1.327 . S
C3137 H3160 0.950 . S
C3138 C3137 1.349 . S
C3138 C3150 1.349 . S
C3139 C3137 1.327 . S
C3139 C3155 1.429 . S
C3139 H3161 0.950 . S
C3140 H3136 0.949 . S
C3140 C3148 1.574 . S
C3140 C3156 1.368 . S
H3141 C3149 0.950 . S
H3142 C3147 0.950 . S
H3143 C3148 0.949 . S
H3144 C3150 0.950 . S
H3145 C3151 0.950 . S
H3146 C3152 0.949 . S
C3147 H3142 0.950 . S
C3147 C3149 1.327 . S
C3147 C3153 1.429 . S
C3148 C3140 1.574 . S
C3148 H3143 0.949 . S
C3148 C3154 1.368 . S
C3149 C3133 1.349 . S
C3149 H3141 0.950 . S
C3149 C3147 1.327 . S
C3150 C3138 1.349 . S
C3150 H3144 0.950 . S
C3150 C3151 1.327 . S
C3151 H3145 0.950 . S
C3151 C3150 1.327 . S
C3151 C3155 1.429 . S
C3152 C3135 1.574 . S
C3152 H3146 0.949 . S
C3152 C3156 1.368 . S
C3153 C3134 1.429 . S
C3153 C3147 1.429 . S
C3153 C3154 1.523 . S
C3154 C3135 1.368 . S
C3154 C3148 1.368 . S
C3154 C3153 1.523 . S
C3155 C3139 1.429 . S
C3155 C3151 1.429 . S
C3155 C3156 1.523 . S
C3156 C3140 1.368 . S
C3156 C3152 1.368 . S
C3156 C3155 1.523 . S
H3157 C3132 0.950 . S
H3158 C3134 0.950 . S
H3159 C3135 0.949 . S
H3160 C3137 0.950 . S
H3161 C3139 0.950 . S
C3162 C3163 1.349 . S
C3162 C3164 1.327 . S
C3162 H3187 0.950 . S
C3163 C3162 1.349 . S
C3163 C3179 1.349 . S
C3164 C3162 1.327 . S
C3164 C3183 1.429 . S
C3164 H3188 0.950 . S
C3165 C3182 1.574 . S
C3165 C3184 1.368 . S
C3165 H3189 0.949 . S
H3166 C3170 0.949 . S
C3167 C3168 1.349 . S
C3167 C3169 1.327 . S
C3167 H3190 0.950 . S
C3168 C3167 1.349 . S
C3168 C3180 1.349 . S
C3169 C3167 1.327 . S
C3169 C3185 1.429 . S
C3169 H3191 0.950 . S
C3170 H3166 0.949 . S
C3170 C3178 1.574 . S
C3170 C3186 1.368 . S
H3171 C3179 0.950 . S
H3172 C3177 0.950 . S
H3173 C3178 0.949 . S
H3174 C3180 0.950 . S
H3175 C3181 0.950 . S
H3176 C3182 0.949 . S
C3177 H3172 0.950 . S
C3177 C3179 1.327 . S
C3177 C3183 1.429 . S
C3178 C3170 1.574 . S
C3178 H3173 0.949 . S
C3178 C3184 1.368 . S
C3179 C3163 1.349 . S
C3179 H3171 0.950 . S
C3179 C3177 1.327 . S
C3180 C3168 1.349 . S
C3180 H3174 0.950 . S
C3180 C3181 1.327 . S
C3181 H3175 0.950 . S
C3181 C3180 1.327 . S
C3181 C3185 1.429 . S
C3182 C3165 1.574 . S
C3182 H3176 0.949 . S
C3182 C3186 1.368 . S
C3183 C3164 1.429 . S
C3183 C3177 1.429 . S
C3183 C3184 1.523 . S
C3184 C3165 1.368 . S
C3184 C3178 1.368 . S
C3184 C3183 1.523 . S
C3185 C3169 1.429 . S
C3185 C3181 1.429 . S
C3185 C3186 1.523 . S
C3186 C3170 1.368 . S
C3186 C3182 1.368 . S
C3186 C3185 1.523 . S
H3187 C3162 0.950 . S
H3188 C3164 0.950 . S
H3189 C3165 0.949 . S
H3190 C3167 0.950 . S
H3191 C3169 0.950 . S
C3192 C3193 1.349 . S
C3192 C3194 1.327 . S
C3192 H3217 0.950 . S
C3193 C3192 1.349 . S
C3193 C3209 1.349 . S
C3194 C3192 1.327 . S
C3194 C3213 1.429 . S
C3194 H3218 0.950 . S
C3195 C3212 1.574 . S
C3195 C3214 1.368 . S
C3195 H3219 0.949 . S
H3196 C3200 0.949 . S
C3197 C3198 1.349 . S
C3197 C3199 1.327 . S
C3197 H3220 0.950 . S
C3198 C3197 1.349 . S
C3198 C3210 1.349 . S
C3199 C3197 1.327 . S
C3199 C3215 1.429 . S
C3199 H3221 0.950 . S
C3200 H3196 0.949 . S
C3200 C3208 1.574 . S
C3200 C3216 1.368 . S
H3201 C3209 0.950 . S
H3202 C3207 0.950 . S
H3203 C3208 0.949 . S
H3204 C3210 0.950 . S
H3205 C3211 0.950 . S
H3206 C3212 0.949 . S
C3207 H3202 0.950 . S
C3207 C3209 1.327 . S
C3207 C3213 1.429 . S
C3208 C3200 1.574 . S
C3208 H3203 0.949 . S
C3208 C3214 1.368 . S
C3209 C3193 1.349 . S
C3209 H3201 0.950 . S
C3209 C3207 1.327 . S
C3210 C3198 1.349 . S
C3210 H3204 0.950 . S
C3210 C3211 1.327 . S
C3211 H3205 0.950 . S
C3211 C3210 1.327 . S
C3211 C3215 1.429 . S
C3212 C3195 1.574 . S
C3212 H3206 0.949 . S
C3212 C3216 1.368 . S
C3213 C3194 1.429 . S
C3213 C3207 1.429 . S
C3213 C3214 1.523 . S
C3214 C3195 1.368 . S
C3214 C3208 1.368 . S
C3214 C3213 1.523 . S
C3215 C3199 1.429 . S
C3215 C3211 1.429 . S
C3215 C3216 1.523 . S
C3216 C3200 1.368 . S
C3216 C3212 1.368 . S
C3216 C3215 1.523 . S
H3217 C3192 0.950 . S
H3218 C3194 0.950 . S
H3219 C3195 0.949 . S
H3220 C3197 0.950 . S
H3221 C3199 0.950 . S
C3222 C3223 1.349 . S
C3222 C3224 1.327 . S
C3222 H3247 0.950 . S
C3223 C3222 1.349 . S
C3223 C3239 1.349 . S
C3224 C3222 1.327 . S
C3224 C3243 1.429 . S
C3224 H3248 0.950 . S
C3225 C3242 1.574 . S
C3225 C3244 1.368 . S
C3225 H3249 0.949 . S
H3226 C3230 0.949 . S
C3227 C3228 1.349 . S
C3227 C3229 1.327 . S
C3227 H3250 0.950 . S
C3228 C3227 1.349 . S
C3228 C3240 1.349 . S
C3229 C3227 1.327 . S
C3229 C3245 1.429 . S
C3229 H3251 0.950 . S
C3230 H3226 0.949 . S
C3230 C3238 1.574 . S
C3230 C3246 1.368 . S
H3231 C3239 0.950 . S
H3232 C3237 0.950 . S
H3233 C3238 0.949 . S
H3234 C3240 0.950 . S
H3235 C3241 0.950 . S
H3236 C3242 0.949 . S
C3237 H3232 0.950 . S
C3237 C3239 1.327 . S
C3237 C3243 1.429 . S
C3238 C3230 1.574 . S
C3238 H3233 0.949 . S
C3238 C3244 1.368 . S
C3239 C3223 1.349 . S
C3239 H3231 0.950 . S
C3239 C3237 1.327 . S
C3240 C3228 1.349 . S
C3240 H3234 0.950 . S
C3240 C3241 1.327 . S
C3241 H3235 0.950 . S
C3241 C3240 1.327 . S
C3241 C3245 1.429 . S
C3242 C3225 1.574 . S
C3242 H3236 0.949 . S
C3242 C3246 1.368 . S
C3243 C3224 1.429 . S
C3243 C3237 1.429 . S
C3243 C3244 1.523 . S
C3244 C3225 1.368 . S
C3244 C3238 1.368 . S
C3244 C3243 1.523 . S
C3245 C3229 1.429 . S
C3245 C3241 1.429 . S
C3245 C3246 1.523 . S
C3246 C3230 1.368 . S
C3246 C3242 1.368 . S
C3246 C3245 1.523 . S
H3247 C3222 0.950 . S
H3248 C3224 0.950 . S
H3249 C3225 0.949 . S
H3250 C3227 0.950 . S
H3251 C3229 0.950 . S
C3252 C3253 1.349 . S
C3252 C3254 1.327 . S
C3252 H3277 0.950 . S
C3253 C3252 1.349 . S
C3253 C3269 1.349 . S
C3254 C3252 1.327 . S
C3254 C3273 1.429 . S
C3254 H3278 0.950 . S
C3255 C3272 1.574 . S
C3255 C3274 1.368 . S
C3255 H3279 0.949 . S
H3256 C3260 0.949 . S
C3257 C3258 1.349 . S
C3257 C3259 1.327 . S
C3257 H3280 0.950 . S
C3258 C3257 1.349 . S
C3258 C3270 1.349 . S
C3259 C3257 1.327 . S
C3259 C3275 1.429 . S
C3259 H3281 0.950 . S
C3260 H3256 0.949 . S
C3260 C3268 1.574 . S
C3260 C3276 1.368 . S
H3261 C3269 0.950 . S
H3262 C3267 0.950 . S
H3263 C3268 0.949 . S
H3264 C3270 0.950 . S
H3265 C3271 0.950 . S
H3266 C3272 0.949 . S
C3267 H3262 0.950 . S
C3267 C3269 1.327 . S
C3267 C3273 1.429 . S
C3268 C3260 1.574 . S
C3268 H3263 0.949 . S
C3268 C3274 1.368 . S
C3269 C3253 1.349 . S
C3269 H3261 0.950 . S
C3269 C3267 1.327 . S
C3270 C3258 1.349 . S
C3270 H3264 0.950 . S
C3270 C3271 1.327 . S
C3271 H3265 0.950 . S
C3271 C3270 1.327 . S
C3271 C3275 1.429 . S
C3272 C3255 1.574 . S
C3272 H3266 0.949 . S
C3272 C3276 1.368 . S
C3273 C3254 1.429 . S
C3273 C3267 1.429 . S
C3273 C3274 1.523 . S
C3274 C3255 1.368 . S
C3274 C3268 1.368 . S
C3274 C3273 1.523 . S
C3275 C3259 1.429 . S
C3275 C3271 1.429 . S
C3275 C3276 1.523 . S
C3276 C3260 1.368 . S
C3276 C3272 1.368 . S
C3276 C3275 1.523 . S
H3277 C3252 0.950 . S
H3278 C3254 0.950 . S
H3279 C3255 0.949 . S
H3280 C3257 0.950 . S
H3281 C3259 0.950 . S
C3282 C3283 1.349 . S
C3282 C3284 1.327 . S
C3282 H3307 0.950 . S
C3283 C3282 1.349 . S
C3283 C3299 1.349 . S
C3284 C3282 1.327 . S
C3284 C3303 1.429 . S
C3284 H3308 0.950 . S
C3285 C3302 1.574 . S
C3285 C3304 1.368 . S
C3285 H3309 0.949 . S
H3286 C3290 0.949 . S
C3287 C3288 1.349 . S
C3287 C3289 1.327 . S
C3287 H3310 0.950 . S
C3288 C3287 1.349 . S
C3288 C3300 1.349 . S
C3289 C3287 1.327 . S
C3289 C3305 1.429 . S
C3289 H3311 0.950 . S
C3290 H3286 0.949 . S
C3290 C3298 1.574 . S
C3290 C3306 1.368 . S
H3291 C3299 0.950 . S
H3292 C3297 0.950 . S
H3293 C3298 0.949 . S
H3294 C3300 0.950 . S
H3295 C3301 0.950 . S
H3296 C3302 0.949 . S
C3297 H3292 0.950 . S
C3297 C3299 1.327 . S
C3297 C3303 1.429 . S
C3298 C3290 1.574 . S
C3298 H3293 0.949 . S
C3298 C3304 1.368 . S
C3299 C3283 1.349 . S
C3299 H3291 0.950 . S
C3299 C3297 1.327 . S
C3300 C3288 1.349 . S
C3300 H3294 0.950 . S
C3300 C3301 1.327 . S
C3301 H3295 0.950 . S
C3301 C3300 1.327 . S
C3301 C3305 1.429 . S
C3302 C3285 1.574 . S
C3302 H3296 0.949 . S
C3302 C3306 1.368 . S
C3303 C3284 1.429 . S
C3303 C3297 1.429 . S
C3303 C3304 1.523 . S
C3304 C3285 1.368 . S
C3304 C3298 1.368 . S
C3304 C3303 1.523 . S
C3305 C3289 1.429 . S
C3305 C3301 1.429 . S
C3305 C3306 1.523 . S
C3306 C3290 1.368 . S
C3306 C3302 1.368 . S
C3306 C3305 1.523 . S
H3307 C3282 0.950 . S
H3308 C3284 0.950 . S
H3309 C3285 0.949 . S
H3310 C3287 0.950 . S
H3311 C3289 0.950 . S
C3312 C3313 1.349 . S
C3312 C3314 1.327 . S
C3312 H3337 0.950 . S
C3313 C3312 1.349 . S
C3313 C3329 1.349 . S
C3314 C3312 1.327 . S
C3314 C3333 1.429 . S
C3314 H3338 0.950 . S
C3315 C3332 1.574 . S
C3315 C3334 1.368 . S
C3315 H3339 0.949 . S
H3316 C3320 0.949 . S
C3317 C3318 1.349 . S
C3317 C3319 1.327 . S
C3317 H3340 0.950 . S
C3318 C3317 1.349 . S
C3318 C3330 1.349 . S
C3319 C3317 1.327 . S
C3319 C3335 1.429 . S
C3319 H3341 0.950 . S
C3320 H3316 0.949 . S
C3320 C3328 1.574 . S
C3320 C3336 1.368 . S
H3321 C3329 0.950 . S
H3322 C3327 0.950 . S
H3323 C3328 0.949 . S
H3324 C3330 0.950 . S
H3325 C3331 0.950 . S
H3326 C3332 0.949 . S
C3327 H3322 0.950 . S
C3327 C3329 1.327 . S
C3327 C3333 1.429 . S
C3328 C3320 1.574 . S
C3328 H3323 0.949 . S
C3328 C3334 1.368 . S
C3329 C3313 1.349 . S
C3329 H3321 0.950 . S
C3329 C3327 1.327 . S
C3330 C3318 1.349 . S
C3330 H3324 0.950 . S
C3330 C3331 1.327 . S
C3331 H3325 0.950 . S
C3331 C3330 1.327 . S
C3331 C3335 1.429 . S
C3332 C3315 1.574 . S
C3332 H3326 0.949 . S
C3332 C3336 1.368 . S
C3333 C3314 1.429 . S
C3333 C3327 1.429 . S
C3333 C3334 1.523 . S
C3334 C3315 1.368 . S
C3334 C3328 1.368 . S
C3334 C3333 1.523 . S
C3335 C3319 1.429 . S
C3335 C3331 1.429 . S
C3335 C3336 1.523 . S
C3336 C3320 1.368 . S
C3336 C3332 1.368 . S
C3336 C3335 1.523 . S
H3337 C3312 0.950 . S
H3338 C3314 0.950 . S
H3339 C3315 0.949 . S
H3340 C3317 0.950 . S
H3341 C3319 0.950 . S
C3342 C3343 1.349 . S
C3342 C3344 1.327 . S
C3342 H3367 0.950 . S
C3343 C3342 1.349 . S
C3343 C3359 1.349 . S
C3344 C3342 1.327 . S
C3344 C3363 1.429 . S
C3344 H3368 0.950 . S
C3345 C3362 1.574 . S
C3345 C3364 1.368 . S
C3345 H3369 0.949 . S
H3346 C3350 0.949 . S
C3347 C3348 1.349 . S
C3347 C3349 1.327 . S
C3347 H3370 0.950 . S
C3348 C3347 1.349 . S
C3348 C3360 1.349 . S
C3349 C3347 1.327 . S
C3349 C3365 1.429 . S
C3349 H3371 0.950 . S
C3350 H3346 0.949 . S
C3350 C3358 1.574 . S
C3350 C3366 1.368 . S
H3351 C3359 0.950 . S
H3352 C3357 0.950 . S
H3353 C3358 0.949 . S
H3354 C3360 0.950 . S
H3355 C3361 0.950 . S
H3356 C3362 0.949 . S
C3357 H3352 0.950 . S
C3357 C3359 1.327 . S
C3357 C3363 1.429 . S
C3358 C3350 1.574 . S
C3358 H3353 0.949 . S
C3358 C3364 1.368 . S
C3359 C3343 1.349 . S
C3359 H3351 0.950 . S
C3359 C3357 1.327 . S
C3360 C3348 1.349 . S
C3360 H3354 0.950 . S
C3360 C3361 1.327 . S
C3361 H3355 0.950 . S
C3361 C3360 1.327 . S
C3361 C3365 1.429 . S
C3362 C3345 1.574 . S
C3362 H3356 0.949 . S
C3362 C3366 1.368 . S
C3363 C3344 1.429 . S
C3363 C3357 1.429 . S
C3363 C3364 1.523 . S
C3364 C3345 1.368 . S
C3364 C3358 1.368 . S
C3364 C3363 1.523 . S
C3365 C3349 1.429 . S
C3365 C3361 1.429 . S
C3365 C3366 1.523 . S
C3366 C3350 1.368 . S
C3366 C3362 1.368 . S
C3366 C3365 1.523 . S
H3367 C3342 0.950 . S
H3368 C3344 0.950 . S
H3369 C3345 0.949 . S
H3370 C3347 0.950 . S
H3371 C3349 0.950 . S
C3372 C3373 1.349 . S
C3372 C3374 1.327 . S
C3372 H3397 0.950 . S
C3373 C3372 1.349 . S
C3373 C3389 1.349 . S
C3374 C3372 1.327 . S
C3374 C3393 1.429 . S
C3374 H3398 0.950 . S
C3375 C3392 1.574 . S
C3375 C3394 1.368 . S
C3375 H3399 0.949 . S
H3376 C3380 0.949 . S
C3377 C3378 1.349 . S
C3377 C3379 1.327 . S
C3377 H3400 0.950 . S
C3378 C3377 1.349 . S
C3378 C3390 1.349 . S
C3379 C3377 1.327 . S
C3379 C3395 1.429 . S
C3379 H3401 0.950 . S
C3380 H3376 0.949 . S
C3380 C3388 1.574 . S
C3380 C3396 1.368 . S
H3381 C3389 0.950 . S
H3382 C3387 0.950 . S
H3383 C3388 0.949 . S
H3384 C3390 0.950 . S
H3385 C3391 0.950 . S
H3386 C3392 0.949 . S
C3387 H3382 0.950 . S
C3387 C3389 1.327 . S
C3387 C3393 1.429 . S
C3388 C3380 1.574 . S
C3388 H3383 0.949 . S
C3388 C3394 1.368 . S
C3389 C3373 1.349 . S
C3389 H3381 0.950 . S
C3389 C3387 1.327 . S
C3390 C3378 1.349 . S
C3390 H3384 0.950 . S
C3390 C3391 1.327 . S
C3391 H3385 0.950 . S
C3391 C3390 1.327 . S
C3391 C3395 1.429 . S
C3392 C3375 1.574 . S
C3392 H3386 0.949 . S
C3392 C3396 1.368 . S
C3393 C3374 1.429 . S
C3393 C3387 1.429 . S
C3393 C3394 1.523 . S
C3394 C3375 1.368 . S
C3394 C3388 1.368 . S
C3394 C3393 1.523 . S
C3395 C3379 1.429 . S
C3395 C3391 1.429 . S
C3395 C3396 1.523 . S
C3396 C3380 1.368 . S
C3396 C3392 1.368 . S
C3396 C3395 1.523 . S
H3397 C3372 0.950 . S
H3398 C3374 0.950 . S
H3399 C3375 0.949 . S
H3400 C3377 0.950 . S
H3401 C3379 0.950 . S
C3402 C3403 1.349 . S
C3402 C3404 1.327 . S
C3402 H3427 0.950 . S
C3403 C3402 1.349 . S
C3403 C3419 1.349 . S
C3404 C3402 1.327 . S
C3404 C3423 1.429 . S
C3404 H3428 0.950 . S
C3405 C3422 1.574 . S
C3405 C3424 1.368 . S
C3405 H3429 0.949 . S
H3406 C3410 0.949 . S
C3407 C3408 1.349 . S
C3407 C3409 1.327 . S
C3407 H3430 0.950 . S
C3408 C3407 1.349 . S
C3408 C3420 1.349 . S
C3409 C3407 1.327 . S
C3409 C3425 1.429 . S
C3409 H3431 0.950 . S
C3410 H3406 0.949 . S
C3410 C3418 1.574 . S
C3410 C3426 1.368 . S
H3411 C3419 0.950 . S
H3412 C3417 0.950 . S
H3413 C3418 0.949 . S
H3414 C3420 0.950 . S
H3415 C3421 0.950 . S
H3416 C3422 0.949 . S
C3417 H3412 0.950 . S
C3417 C3419 1.327 . S
C3417 C3423 1.429 . S
C3418 C3410 1.574 . S
C3418 H3413 0.949 . S
C3418 C3424 1.368 . S
C3419 C3403 1.349 . S
C3419 H3411 0.950 . S
C3419 C3417 1.327 . S
C3420 C3408 1.349 . S
C3420 H3414 0.950 . S
C3420 C3421 1.327 . S
C3421 H3415 0.950 . S
C3421 C3420 1.327 . S
C3421 C3425 1.429 . S
C3422 C3405 1.574 . S
C3422 H3416 0.949 . S
C3422 C3426 1.368 . S
C3423 C3404 1.429 . S
C3423 C3417 1.429 . S
C3423 C3424 1.523 . S
C3424 C3405 1.368 . S
C3424 C3418 1.368 . S
C3424 C3423 1.523 . S
C3425 C3409 1.429 . S
C3425 C3421 1.429 . S
C3425 C3426 1.523 . S
C3426 C3410 1.368 . S
C3426 C3422 1.368 . S
C3426 C3425 1.523 . S
H3427 C3402 0.950 . S
H3428 C3404 0.950 . S
H3429 C3405 0.949 . S
H3430 C3407 0.950 . S
H3431 C3409 0.950 . S
C3432 C3433 1.349 . S
C3432 C3434 1.327 . S
C3432 H3457 0.950 . S
C3433 C3432 1.349 . S
C3433 C3449 1.349 . S
C3434 C3432 1.327 . S
C3434 C3453 1.429 . S
C3434 H3458 0.950 . S
C3435 C3452 1.574 . S
C3435 C3454 1.368 . S
C3435 H3459 0.949 . S
H3436 C3440 0.949 . S
C3437 C3438 1.349 . S
C3437 C3439 1.327 . S
C3437 H3460 0.950 . S
C3438 C3437 1.349 . S
C3438 C3450 1.349 . S
C3439 C3437 1.327 . S
C3439 C3455 1.429 . S
C3439 H3461 0.950 . S
C3440 H3436 0.949 . S
C3440 C3448 1.574 . S
C3440 C3456 1.368 . S
H3441 C3449 0.950 . S
H3442 C3447 0.950 . S
H3443 C3448 0.949 . S
H3444 C3450 0.950 . S
H3445 C3451 0.950 . S
H3446 C3452 0.949 . S
C3447 H3442 0.950 . S
C3447 C3449 1.327 . S
C3447 C3453 1.429 . S
C3448 C3440 1.574 . S
C3448 H3443 0.949 . S
C3448 C3454 1.368 . S
C3449 C3433 1.349 . S
C3449 H3441 0.950 . S
C3449 C3447 1.327 . S
C3450 C3438 1.349 . S
C3450 H3444 0.950 . S
C3450 C3451 1.327 . S
C3451 H3445 0.950 . S
C3451 C3450 1.327 . S
C3451 C3455 1.429 . S
C3452 C3435 1.574 . S
C3452 H3446 0.949 . S
C3452 C3456 1.368 . S
C3453 C3434 1.429 . S
C3453 C3447 1.429 . S
C3453 C3454 1.523 . S
C3454 C3435 1.368 . S
C3454 C3448 1.368 . S
C3454 C3453 1.523 . S
C3455 C3439 1.429 . S
C3455 C3451 1.429 . S
C3455 C3456 1.523 . S
C3456 C3440 1.368 . S
C3456 C3452 1.368 . S
C3456 C3455 1.523 . S
H3457 C3432 0.950 . S
H3458 C3434 0.950 . S
H3459 C3435 0.949 . S
H3460 C3437 0.950 . S
H3461 C3439 0.950 . S
C3462 C3463 1.349 . S
C3462 C3464 1.327 . S
C3462 H3487 0.950 . S
C3463 C3462 1.349 . S
C3463 C3479 1.349 . S
C3464 C3462 1.327 . S
C3464 C3483 1.429 . S
C3464 H3488 0.950 . S
C3465 C3482 1.574 . S
C3465 C3484 1.368 . S
C3465 H3489 0.949 . S
H3466 C3470 0.949 . S
C3467 C3468 1.349 . S
C3467 C3469 1.327 . S
C3467 H3490 0.950 . S
C3468 C3467 1.349 . S
C3468 C3480 1.349 . S
C3469 C3467 1.327 . S
C3469 C3485 1.429 . S
C3469 H3491 0.950 . S
C3470 H3466 0.949 . S
C3470 C3478 1.574 . S
C3470 C3486 1.368 . S
H3471 C3479 0.950 . S
H3472 C3477 0.950 . S
H3473 C3478 0.949 . S
H3474 C3480 0.950 . S
H3475 C3481 0.950 . S
H3476 C3482 0.949 . S
C3477 H3472 0.950 . S
C3477 C3479 1.327 . S
C3477 C3483 1.429 . S
C3478 C3470 1.574 . S
C3478 H3473 0.949 . S
C3478 C3484 1.368 . S
C3479 C3463 1.349 . S
C3479 H3471 0.950 . S
C3479 C3477 1.327 . S
C3480 C3468 1.349 . S
C3480 H3474 0.950 . S
C3480 C3481 1.327 . S
C3481 H3475 0.950 . S
C3481 C3480 1.327 . S
C3481 C3485 1.429 . S
C3482 C3465 1.574 . S
C3482 H3476 0.949 . S
C3482 C3486 1.368 . S
C3483 C3464 1.429 . S
C3483 C3477 1.429 . S
C3483 C3484 1.523 . S
C3484 C3465 1.368 . S
C3484 C3478 1.368 . S
C3484 C3483 1.523 . S
C3485 C3469 1.429 . S
C3485 C3481 1.429 . S
C3485 C3486 1.523 . S
C3486 C3470 1.368 . S
C3486 C3482 1.368 . S
C3486 C3485 1.523 . S
H3487 C3462 0.950 . S
H3488 C3464 0.950 . S
H3489 C3465 0.949 . S
H3490 C3467 0.950 . S
H3491 C3469 0.950 . S
C3492 C3493 1.349 . S
C3492 C3494 1.327 . S
C3492 H3517 0.950 . S
C3493 C3492 1.349 . S
C3493 C3509 1.349 . S
C3494 C3492 1.327 . S
C3494 C3513 1.429 . S
C3494 H3518 0.950 . S
C3495 C3512 1.574 . S
C3495 C3514 1.368 . S
C3495 H3519 0.949 . S
H3496 C3500 0.949 . S
C3497 C3498 1.349 . S
C3497 C3499 1.327 . S
C3497 H3520 0.950 . S
C3498 C3497 1.349 . S
C3498 C3510 1.349 . S
C3499 C3497 1.327 . S
C3499 C3515 1.429 . S
C3499 H3521 0.950 . S
C3500 H3496 0.949 . S
C3500 C3508 1.574 . S
C3500 C3516 1.368 . S
H3501 C3509 0.950 . S
H3502 C3507 0.950 . S
H3503 C3508 0.949 . S
H3504 C3510 0.950 . S
H3505 C3511 0.950 . S
H3506 C3512 0.949 . S
C3507 H3502 0.950 . S
C3507 C3509 1.327 . S
C3507 C3513 1.429 . S
C3508 C3500 1.574 . S
C3508 H3503 0.949 . S
C3508 C3514 1.368 . S
C3509 C3493 1.349 . S
C3509 H3501 0.950 . S
C3509 C3507 1.327 . S
C3510 C3498 1.349 . S
C3510 H3504 0.950 . S
C3510 C3511 1.327 . S
C3511 H3505 0.950 . S
C3511 C3510 1.327 . S
C3511 C3515 1.429 . S
C3512 C3495 1.574 . S
C3512 H3506 0.949 . S
C3512 C3516 1.368 . S
C3513 C3494 1.429 . S
C3513 C3507 1.429 . S
C3513 C3514 1.523 . S
C3514 C3495 1.368 . S
C3514 C3508 1.368 . S
C3514 C3513 1.523 . S
C3515 C3499 1.429 . S
C3515 C3511 1.429 . S
C3515 C3516 1.523 . S
C3516 C3500 1.368 . S
C3516 C3512 1.368 . S
C3516 C3515 1.523 . S
H3517 C3492 0.950 . S
H3518 C3494 0.950 . S
H3519 C3495 0.949 . S
H3520 C3497 0.950 . S
H3521 C3499 0.950 . S
C3522 C3523 1.349 . S
C3522 C3524 1.327 . S
C3522 H3547 0.950 . S
C3523 C3522 1.349 . S
C3523 C3539 1.349 . S
C3524 C3522 1.327 . S
C3524 C3543 1.429 . S
C3524 H3548 0.950 . S
C3525 C3542 1.574 . S
C3525 C3544 1.368 . S
C3525 H3549 0.949 . S
H3526 C3530 0.949 . S
C3527 C3528 1.349 . S
C3527 C3529 1.327 . S
C3527 H3550 0.950 . S
C3528 C3527 1.349 . S
C3528 C3540 1.349 . S
C3529 C3527 1.327 . S
C3529 C3545 1.429 . S
C3529 H3551 0.950 . S
C3530 H3526 0.949 . S
C3530 C3538 1.574 . S
C3530 C3546 1.368 . S
H3531 C3539 0.950 . S
H3532 C3537 0.950 . S
H3533 C3538 0.949 . S
H3534 C3540 0.950 . S
H3535 C3541 0.950 . S
H3536 C3542 0.949 . S
C3537 H3532 0.950 . S
C3537 C3539 1.327 . S
C3537 C3543 1.429 . S
C3538 C3530 1.574 . S
C3538 H3533 0.949 . S
C3538 C3544 1.368 . S
C3539 C3523 1.349 . S
C3539 H3531 0.950 . S
C3539 C3537 1.327 . S
C3540 C3528 1.349 . S
C3540 H3534 0.950 . S
C3540 C3541 1.327 . S
C3541 H3535 0.950 . S
C3541 C3540 1.327 . S
C3541 C3545 1.429 . S
C3542 C3525 1.574 . S
C3542 H3536 0.949 . S
C3542 C3546 1.368 . S
C3543 C3524 1.429 . S
C3543 C3537 1.429 . S
C3543 C3544 1.523 . S
C3544 C3525 1.368 . S
C3544 C3538 1.368 . S
C3544 C3543 1.523 . S
C3545 C3529 1.429 . S
C3545 C3541 1.429 . S
C3545 C3546 1.523 . S
C3546 C3530 1.368 . S
C3546 C3542 1.368 . S
C3546 C3545 1.523 . S
H3547 C3522 0.950 . S
H3548 C3524 0.950 . S
H3549 C3525 0.949 . S
H3550 C3527 0.950 . S
H3551 C3529 0.950 . S
C673 C231 1.004 . S
C678 C7 1.025 . S
C703 C667 0.776 . S
C708 C21 0.793 . S
C733 C35 1.038 . S
C738 C637 1.016 . S
C763 C49 0.718 . S
C768 C653 0.728 . S
C793 C245 1.085 . S
C798 C63 1.109 . S
C823 C77 1.053 . S
C828 C261 0.927 . S
C853 C91 1.117 . S
C858 C273 1.092 . S
C883 C625 0.896 . S
C888 C105 1.008 . S
C913 C121 1.091 . S
C918 C9 1.002 . S
C943 C23 0.966 . S
C948 C133 1.067 . S
C973 C37 0.978 . S
C978 C149 1.058 . S
C1003 C51 0.971 . S
C1008 C161 1.070 . S
C1033 C65 1.030 . S
C1038 C177 1.129 . S
C1063 C189 0.683 . S
C1068 C79 0.702 . S
C1093 C93 1.008 . S
C1098 C205 1.100 . S
C1123 C217 0.693 . S
C1128 C107 0.707 . S
C1153 C233 1.119 . S
C1158 C119 1.146 . S
C1183 C175 1.100 . S
C1188 C247 1.076 . S
C1213 C259 0.877 . S
C1218 C191 0.824 . S
C1243 C275 1.137 . S
C1248 C203 1.167 . S
C1273 C555 0.865 . S
C1278 C287 0.946 . S
C1303 C303 1.159 . S
C1308 C483 1.183 . S
C1333 C499 0.894 . S
C1338 C315 0.974 . S
C1363 C471 0.922 . S
C1368 C329 1.024 . S
C1393 C567 0.926 . S
C1398 C343 0.935 . S
C1423 C357 0.996 . S
C1428 C331 0.879 . S
C1453 C371 0.913 . S
C1458 C301 0.905 . S
C1483 C385 1.042 . S
C1488 C317 0.914 . S
C1513 C399 0.860 . S
C1518 C581 0.854 . S
C1543 C597 0.722 . S
C1548 C413 0.697 . S
C1573 C427 0.836 . S
C1578 C609 0.831 . S
C1603 C289 0.765 . S
C1608 C441 0.776 . S
C1633 C345 1.310 . S
C1638 C457 1.460 . S
C1663 C469 0.636 . S
C1668 C359 0.674 . S
C1693 C485 1.502 . S
C1698 C373 1.347 . S
C1723 C497 0.624 . S
C1728 C387 0.669 . S
C1753 C513 1.428 . S
C1758 C401 1.286 . S
C1783 C525 1.003 . S
C1788 C415 0.930 . S
C1813 C429 1.324 . S
C1818 C541 1.473 . S
C1843 C443 0.925 . S
C1848 C553 0.999 . S
C1873 C455 1.233 . S
C1878 C569 1.204 . S
C1903 C511 1.277 . S
C1908 C583 1.248 . S
C1933 C527 0.892 . S
C1938 C595 0.999 . S
C1963 C611 1.199 . S
C1968 C539 1.225 . S
C1993 C623 0.924 . S
C1998 C219 0.851 . S
C2023 C639 1.185 . S
C2028 C147 1.217 . S
C2053 C163 0.834 . S
C2058 C651 0.905 . S
C2083 C665 0.846 . S
C2088 C135 0.799 . S
C2113 C6 0.622 . S
C2118 C386 0.615 . S
C2143 C344 1.403 . S
C2148 C20 1.409 . S
C2173 C34 0.576 . S
C2178 C358 0.569 . S
C2203 C48 1.383 . S
C2208 C372 1.377 . S
C2233 C62 0.721 . S
C2238 C78 0.714 . S
C2263 C92 1.969 . S
C2268 C76 2.013 . S
C2293 C90 0.674 . S
C2298 C106 0.667 . S
C2323 C104 2.000 . S
C2328 C64 1.966 . S
C2353 C120 1.328 . S
C2358 C596 1.428 . S
C2383 C132 1.591 . S
C2388 C608 1.539 . S
C2413 C148 1.519 . S
C2418 C288 1.649 . S
C2443 C160 1.636 . S
C2448 C580 1.585 . S
C2473 C176 1.266 . S
C2478 C652 1.358 . S
C2503 C230 1.460 . S
C2508 C188 1.526 . S
C2533 C204 1.453 . S
C2538 C666 1.576 . S
C2563 C636 1.506 . S
C2568 C216 1.572 . S
C2593 C134 1.691 . S
C2598 C232 1.582 . S
C2623 C246 1.821 . S
C2628 C554 1.945 . S
C2653 C258 1.365 . S
C2658 C510 1.339 . S
C2683 C526 1.982 . S
C2688 C274 1.856 . S
C2713 C286 1.111 . S
C2718 C202 1.088 . S
C2743 C498 1.698 . S
C2748 C302 1.588 . S
C2773 C454 1.367 . S
C2778 C314 1.393 . S
C2803 C482 1.449 . S
C2808 C328 1.483 . S
C2833 C342 1.850 . S
C2838 C50 1.865 . S
C2863 C356 1.922 . S
C2868 C8 1.890 . S
C2893 C22 1.912 . S
C2898 C370 1.896 . S
C2923 C384 1.929 . S
C2928 C36 1.897 . S
C2953 C398 1.785 . S
C2958 C414 1.800 . S
C2983 C428 1.295 . S
C2988 C412 1.300 . S
C3013 C442 1.849 . S
C3018 C426 1.834 . S
C3043 C440 1.327 . S
C3048 C400 1.323 . S
C3073 C260 1.818 . S
C3078 C456 1.680 . S
C3103 C468 1.454 . S
C3108 C272 1.398 . S
C3133 C484 1.555 . S
C3138 C624 1.675 . S
C3163 C496 1.404 . S
C3168 C244 1.349 . S
C3193 C512 1.738 . S
C3198 C316 1.881 . S
C3223 C524 1.525 . S
C3228 C566 1.473 . S
C3253 C330 1.748 . S
C3258 C540 1.611 . S
C3283 C552 1.480 . S
C3288 C300 1.427 . S
C3313 C470 1.740 . S
C3318 C568 1.628 . S
C3343 C218 1.480 . S
C3348 C582 1.385 . S
C3373 C174 1.174 . S
C3378 C594 1.208 . S
C3403 C610 1.343 . S
C3408 C190 1.422 . S
C3433 C622 1.446 . S
C3438 C538 1.424 . S
C3463 C162 1.744 . S
C3468 C638 1.631 . S
C3493 C650 1.177 . S
C3498 C118 1.156 . S
C3523 C146 1.061 . S
C3528 C664 1.083 . S
