# Generated by pormake.
# Topology unp, (4)-cn, num edge types: 1
# Building blocks:
#     Node 0, Type 0, BuildingBlock: AZAVOO_clean_sbu_0, # of connection points: 4
#     Node 1, Type 0, BuildingBlock: AZAVOO_clean_sbu_0, # of connection points: 4
#     Node 2, Type 0, BuildingBlock: AZAVOO_clean_sbu_0, # of connection points: 4
#     Node 3, Type 0, BuildingBlock: AZAVOO_clean_sbu_0, # of connection points: 4
#     Node 4, Type 0, BuildingBlock: AZAVOO_clean_sbu_0, # of connection points: 4
#     Node 5, Type 0, BuildingBlock: AZAVOO_clean_sbu_0, # of connection points: 4
#     Node 6, Type 0, BuildingBlock: AZAVOO_clean_sbu_0, # of connection points: 4
#     Node 7, Type 0, BuildingBlock: AZAVOO_clean_sbu_0, # of connection points: 4
#     Node 8, Type 0, BuildingBlock: AZAVOO_clean_sbu_0, # of connection points: 4
#     Node 9, Type 0, BuildingBlock: AZAVOO_clean_sbu_0, # of connection points: 4
#     Node 10, Type 0, BuildingBlock: AZAVOO_clean_sbu_0, # of connection points: 4
#     Node 11, Type 0, BuildingBlock: AZAVOO_clean_sbu_0, # of connection points: 4
#     Node 12, Type 0, BuildingBlock: AZAVOO_clean_sbu_0, # of connection points: 4
#     Node 13, Type 0, BuildingBlock: AZAVOO_clean_sbu_0, # of connection points: 4
#     Node 14, Type 0, BuildingBlock: AZAVOO_clean_sbu_0, # of connection points: 4
#     Node 15, Type 0, BuildingBlock: AZAVOO_clean_sbu_0, # of connection points: 4
#     Node 16, Type 0, BuildingBlock: AZAVOO_clean_sbu_0, # of connection points: 4
#     Node 17, Type 0, BuildingBlock: AZAVOO_clean_sbu_0, # of connection points: 4
#     Edge 18, Type (0, 0), BuildingBlock: KIFKEQ_clean_linker_1, # of connection points: 2
#     Edge 19, Type (0, 0), BuildingBlock: KIFKEQ_clean_linker_1, # of connection points: 2
#     Edge 20, Type (0, 0), BuildingBlock: KIFKEQ_clean_linker_1, # of connection points: 2
#     Edge 21, Type (0, 0), BuildingBlock: KIFKEQ_clean_linker_1, # of connection points: 2
#     Edge 22, Type (0, 0), BuildingBlock: KIFKEQ_clean_linker_1, # of connection points: 2
#     Edge 23, Type (0, 0), BuildingBlock: KIFKEQ_clean_linker_1, # of connection points: 2
#     Edge 24, Type (0, 0), BuildingBlock: KIFKEQ_clean_linker_1, # of connection points: 2
#     Edge 25, Type (0, 0), BuildingBlock: KIFKEQ_clean_linker_1, # of connection points: 2
#     Edge 26, Type (0, 0), BuildingBlock: KIFKEQ_clean_linker_1, # of connection points: 2
#     Edge 27, Type (0, 0), BuildingBlock: KIFKEQ_clean_linker_1, # of connection points: 2
#     Edge 28, Type (0, 0), BuildingBlock: KIFKEQ_clean_linker_1, # of connection points: 2
#     Edge 29, Type (0, 0), BuildingBlock: KIFKEQ_clean_linker_1, # of connection points: 2
#     Edge 30, Type (0, 0), BuildingBlock: KIFKEQ_clean_linker_1, # of connection points: 2
#     Edge 31, Type (0, 0), BuildingBlock: KIFKEQ_clean_linker_1, # of connection points: 2
#     Edge 32, Type (0, 0), BuildingBlock: KIFKEQ_clean_linker_1, # of connection points: 2
#     Edge 33, Type (0, 0), BuildingBlock: KIFKEQ_clean_linker_1, # of connection points: 2
#     Edge 34, Type (0, 0), BuildingBlock: KIFKEQ_clean_linker_1, # of connection points: 2
#     Edge 35, Type (0, 0), BuildingBlock: KIFKEQ_clean_linker_1, # of connection points: 2
#     Edge 36, Type (0, 0), BuildingBlock: KIFKEQ_clean_linker_1, # of connection points: 2
#     Edge 37, Type (0, 0), BuildingBlock: KIFKEQ_clean_linker_1, # of connection points: 2
#     Edge 38, Type (0, 0), BuildingBlock: KIFKEQ_clean_linker_1, # of connection points: 2
#     Edge 39, Type (0, 0), BuildingBlock: KIFKEQ_clean_linker_1, # of connection points: 2
#     Edge 40, Type (0, 0), BuildingBlock: KIFKEQ_clean_linker_1, # of connection points: 2
#     Edge 41, Type (0, 0), BuildingBlock: KIFKEQ_clean_linker_1, # of connection points: 2
#     Edge 42, Type (0, 0), BuildingBlock: KIFKEQ_clean_linker_1, # of connection points: 2
#     Edge 43, Type (0, 0), BuildingBlock: KIFKEQ_clean_linker_1, # of connection points: 2
#     Edge 44, Type (0, 0), BuildingBlock: KIFKEQ_clean_linker_1, # of connection points: 2
#     Edge 45, Type (0, 0), BuildingBlock: KIFKEQ_clean_linker_1, # of connection points: 2
#     Edge 46, Type (0, 0), BuildingBlock: KIFKEQ_clean_linker_1, # of connection points: 2
#     Edge 47, Type (0, 0), BuildingBlock: KIFKEQ_clean_linker_1, # of connection points: 2
#     Edge 48, Type (0, 0), BuildingBlock: KIFKEQ_clean_linker_1, # of connection points: 2
#     Edge 49, Type (0, 0), BuildingBlock: KIFKEQ_clean_linker_1, # of connection points: 2
#     Edge 50, Type (0, 0), BuildingBlock: KIFKEQ_clean_linker_1, # of connection points: 2
#     Edge 51, Type (0, 0), BuildingBlock: KIFKEQ_clean_linker_1, # of connection points: 2
#     Edge 52, Type (0, 0), BuildingBlock: KIFKEQ_clean_linker_1, # of connection points: 2
#     Edge 53, Type (0, 0), BuildingBlock: KIFKEQ_clean_linker_1, # of connection points: 2
# Relax obj value: 0.365
# Max RMSD: 0.197
# Mean RMSD: 0.187
data_MOF--net-unp--node1-AZAVOO_clean_sbu_0--edge1-KIFKEQ_clean_linker_1
_symmetry_space_group_name_H-M    P1
_symmetry_Int_Tables_number       1
_symmetry_cell_setting            triclinic
loop_
_symmetry_equiv_pos_as_xyz
'x, y, z'
_cell_length_a     42.449718
_cell_length_b     42.42273
_cell_length_c     75.663605
_cell_angle_alpha  90.114655
_cell_angle_beta   89.803463
_cell_angle_gamma 120.52432
loop_
_atom_site_label
_atom_site_type_symbol
_atom_site_fract_x
_atom_site_fract_y
_atom_site_fract_z
_atom_type_partial_charge
Mg0 Mg 0.16274 0.23928 0.10136 0.0
O1 O 0.14974 0.1797 0.10176 0.0
O2 O 0.10204 0.14779 0.08381 0.0
Mg3 Mg 0.08467 0.18636 0.07203 0.0
C4 C 0.12617 0.14967 0.09451 0.0
C5 C 0.22588 0.28545 0.12565 0.0
O6 O 0.20575 0.30088 0.1257 0.0
O7 O 0.18979 0.24756 0.07393 0.0
O8 O 0.13929 0.21716 0.05746 0.0
O9 O 0.12161 0.22398 0.12314 0.0
O10 O 0.10877 0.22226 0.09477 0.0
C11 C 0.17396 0.23698 0.05894 0.0
C12 C 0.0974 0.21441 0.1108 0.0
O13 O 0.21615 0.25755 0.11592 0.0
Mg14 Mg 0.76383 0.94059 0.0996 0.0
O15 O 0.82347 0.98745 0.10008 0.0
O16 O 0.85676 0.96922 0.08494 0.0
Mg17 Mg 0.81785 0.91324 0.07255 0.0
C18 C 0.85417 0.99274 0.09445 0.0
C19 C 0.72792 0.96074 0.12727 0.0
O20 O 0.72095 0.92735 0.1304 0.0
O21 O 0.75711 0.95757 0.07158 0.0
O22 O 0.78884 0.93693 0.05674 0.0
O23 O 0.77779 0.91558 0.1223 0.0
O24 O 0.77999 0.90246 0.09427 0.0
C25 C 0.76902 0.95163 0.05714 0.0
C26 C 0.78656 0.8993 0.11051 0.0
O27 O 0.746 0.97692 0.11346 0.0
Mg28 Mg 0.05677 0.83696 0.10509 0.0
O29 O 0.00946 0.8487 0.10625 0.0
O30 O 0.02162 0.89273 0.08649 0.0
Mg31 Mg 0.07538 0.90856 0.07257 0.0
C32 C 0.00138 0.87035 0.09846 0.0
C33 C 0.03236 0.78435 0.13735 0.0
O34 O 0.06095 0.8136 0.14384 0.0
O35 O 0.03412 0.80492 0.07904 0.0
O36 O 0.047 0.85131 0.06063 0.0
O37 O 0.08656 0.88308 0.12461 0.0
O38 O 0.09194 0.88954 0.09565 0.0
C39 C 0.03373 0.81732 0.0637 0.0
C40 C 0.0989 0.90449 0.111 0.0
O41 O 0.02292 0.78511 0.1215 0.0
Mg42 Mg 0.24101 0.16528 0.90196 0.0
O43 O 0.18083 0.14934 0.89944 0.0
O44 O 0.14553 0.09676 0.91376 0.0
Mg45 Mg 0.18427 0.0844 0.92918 0.0
C46 C 0.1494 0.1229 0.90389 0.0
C47 C 0.2694 0.22225 0.87227 0.0
O48 O 0.27414 0.19614 0.86589 0.0
O49 O 0.24344 0.19016 0.92926 0.0
O50 O 0.20536 0.13874 0.94391 0.0
O51 O 0.23042 0.12554 0.88003 0.0
O52 O 0.22538 0.11131 0.90838 0.0
C53 C 0.22584 0.17349 0.9432 0.0
C54 C 0.22021 0.10081 0.89217 0.0
O55 O 0.25667 0.21884 0.88783 0.0
Mg56 Mg 0.84544 0.06627 0.89616 0.0
O57 O 0.85814 0.01963 0.89566 0.0
O58 O 0.90692 0.03579 0.9128 0.0
Mg59 Mg 0.92321 0.09086 0.92541 0.0
C60 C 0.88201 0.01335 0.90233 0.0
C61 C 0.79121 0.01648 0.86698 0.0
O62 O 0.82244 0.02465 0.85951 0.0
O63 O 0.81857 0.04719 0.92345 0.0
O64 O 0.8681 0.06173 0.93973 0.0
O65 O 0.88629 0.09202 0.87436 0.0
O66 O 0.89958 0.10349 0.90275 0.0
C67 C 0.83365 0.048 0.93816 0.0
C68 C 0.91069 0.10648 0.88668 0.0
O69 O 0.79141 0.02898 0.8823 0.0
Mg70 Mg 0.94167 0.76762 0.90052 0.0
O71 O 0.98997 0.82682 0.89813 0.0
O72 O 0.97786 0.8622 0.91554 0.0
Mg73 Mg 0.92287 0.82627 0.92911 0.0
C74 C 0.99835 0.85795 0.9046 0.0
C75 C 0.95788 0.72725 0.87226 0.0
O76 O 0.92474 0.72065 0.86886 0.0
O77 O 0.96247 0.76198 0.92788 0.0
O78 O 0.94969 0.79901 0.94359 0.0
O79 O 0.91352 0.78081 0.87909 0.0
O80 O 0.90679 0.78647 0.90766 0.0
C81 C 0.96242 0.77757 0.94238 0.0
C82 C 0.90055 0.79171 0.89166 0.0
O83 O 0.97453 0.74688 0.88561 0.0
Mg84 Mg 0.81855 0.561 0.44177 0.0
O85 O 0.80502 0.50159 0.44003 0.0
O86 O 0.75838 0.47162 0.42131 0.0
Mg87 Mg 0.74322 0.51275 0.41055 0.0
C88 C 0.78193 0.47238 0.43206 0.0
C89 C 0.87589 0.58925 0.47127 0.0
O90 O 0.85087 0.59553 0.47779 0.0
O91 O 0.84707 0.57228 0.41494 0.0
O92 O 0.79914 0.54352 0.39673 0.0
O93 O 0.7765 0.54266 0.46307 0.0
O94 O 0.76511 0.54516 0.43474 0.0
C95 C 0.83348 0.56315 0.39947 0.0
C96 C 0.75295 0.5346 0.45053 0.0
O97 O 0.87112 0.57514 0.45599 0.0
Mg98 Mg 0.423 0.25357 0.43519 0.0
O99 O 0.48248 0.30056 0.43793 0.0
O100 O 0.51744 0.28942 0.4197 0.0
Mg101 Mg 0.48027 0.2359 0.40511 0.0
C102 C 0.5135 0.30904 0.43131 0.0
C103 C 0.41524 0.29895 0.46591 0.0
O104 O 0.43961 0.2925 0.47302 0.0
O105 O 0.41849 0.27747 0.40867 0.0
O106 O 0.45455 0.26551 0.39169 0.0
O107 O 0.43556 0.22329 0.45573 0.0
O108 O 0.44086 0.21862 0.42691 0.0
C109 C 0.43361 0.27861 0.39386 0.0
C110 C 0.44639 0.21133 0.44267 0.0
O111 O 0.40359 0.28706 0.45044 0.0
Mg112 Mg 0.72599 0.16455 0.43271 0.0
O113 O 0.67789 0.17475 0.43378 0.0
O114 O 0.69027 0.22016 0.41491 0.0
Mg115 Mg 0.74641 0.23978 0.4023 0.0
C116 C 0.66945 0.19638 0.42629 0.0
C117 C 0.68189 0.11075 0.46335 0.0
O118 O 0.6906 0.14202 0.47094 0.0
O119 O 0.70608 0.13585 0.4057 0.0
O120 O 0.72363 0.1848 0.38836 0.0
O121 O 0.75326 0.20785 0.45373 0.0
O122 O 0.76119 0.21845 0.42507 0.0
C123 C 0.70989 0.15044 0.39048 0.0
C124 C 0.76633 0.23117 0.44087 0.0
O125 O 0.6918 0.11082 0.44748 0.0
Mg126 Mg 0.89684 0.50014 0.24232 0.0
O127 O 0.83997 0.49528 0.24122 0.0
O128 O 0.80046 0.44985 0.25906 0.0
Mg129 Mg 0.8315 0.42765 0.27395 0.0
C130 C 0.80802 0.47521 0.24783 0.0
C131 C 0.90497 0.55512 0.21197 0.0
O132 O 0.87126 0.52918 0.20862 0.0
O133 O 0.91229 0.53745 0.26777 0.0
O134 O 0.87068 0.48543 0.27834 0.0
O135 O 0.87532 0.45281 0.22293 0.0
O136 O 0.86985 0.44404 0.25159 0.0
C137 C 0.89325 0.51873 0.28089 0.0
C138 C 0.86176 0.43029 0.23604 0.0
O139 O 0.92202 0.55123 0.2248 0.0
Mg140 Mg 0.49957 0.40078 0.23494 0.0
O141 O 0.50872 0.35211 0.23366 0.0
O142 O 0.55364 0.36326 0.25255 0.0
Mg143 Mg 0.57455 0.41979 0.26507 0.0
C144 C 0.52969 0.34287 0.24117 0.0
C145 C 0.44268 0.38766 0.20778 0.0
O146 O 0.46785 0.42243 0.2064 0.0
O147 O 0.47073 0.38063 0.26193 0.0
O148 O 0.51967 0.39769 0.27918 0.0
O149 O 0.54272 0.42814 0.21392 0.0
O150 O 0.55332 0.43552 0.24264 0.0
C151 C 0.48535 0.38427 0.27712 0.0
C152 C 0.56588 0.44164 0.22678 0.0
O153 O 0.44665 0.36849 0.21947 0.0
Mg154 Mg 0.58305 0.09671 0.23236 0.0
O155 O 0.62703 0.15784 0.2323 0.0
O156 O 0.608 0.18762 0.24966 0.0
Mg157 Mg 0.55523 0.14477 0.26316 0.0
C158 C 0.63127 0.18744 0.23898 0.0
C159 C 0.6078 0.05169 0.2114 0.0
O160 O 0.5739 0.02768 0.21579 0.0
O161 O 0.60489 0.09025 0.25898 0.0
O162 O 0.58787 0.12182 0.2764 0.0
O163 O 0.55377 0.10919 0.21151 0.0
O164 O 0.5436 0.10912 0.2402 0.0
C165 C 0.60345 0.10314 0.27404 0.0
C166 C 0.53859 0.11681 0.2244 0.0
O167 O 0.62151 0.08439 0.21682 0.0
Mg168 Mg 0.50137 0.89104 0.76793 0.0
O169 O 0.4876 0.83156 0.76721 0.0
O170 O 0.43943 0.79998 0.74953 0.0
Mg171 Mg 0.42192 0.83965 0.73916 0.0
C172 C 0.46401 0.80174 0.75987 0.0
C173 C 0.56113 0.92328 0.79592 0.0
O174 O 0.53698 0.93157 0.80167 0.0
O175 O 0.52688 0.90053 0.74008 0.0
O176 O 0.47567 0.87121 0.72397 0.0
O177 O 0.46085 0.87493 0.79022 0.0
O178 O 0.44741 0.87505 0.76207 0.0
C179 C 0.5104 0.89089 0.72521 0.0
C180 C 0.43638 0.86664 0.77812 0.0
O181 O 0.55521 0.90629 0.78134 0.0
Mg182 Mg 0.10489 0.58906 0.76914 0.0
O183 O 0.16466 0.63609 0.77046 0.0
O184 O 0.19804 0.62228 0.75253 0.0
Mg185 Mg 0.15945 0.56812 0.73889 0.0
C186 C 0.19523 0.64343 0.76365 0.0
C187 C 0.05887 0.60634 0.79402 0.0
O188 O 0.04135 0.57039 0.79371 0.0
O189 O 0.09823 0.61072 0.7424 0.0
O190 O 0.13356 0.59768 0.7255 0.0
O191 O 0.11933 0.56184 0.79013 0.0
O192 O 0.12219 0.55305 0.76147 0.0
C193 C 0.1128 0.61103 0.72755 0.0
C194 C 0.12984 0.54883 0.7774 0.0
O195 O 0.08741 0.6239 0.78456 0.0
Mg196 Mg 0.40449 0.49526 0.76513 0.0
O197 O 0.35953 0.50981 0.76596 0.0
O198 O 0.37571 0.55816 0.74852 0.0
Mg199 Mg 0.42935 0.57156 0.73467 0.0
C200 C 0.35365 0.53407 0.75947 0.0
C201 C 0.35866 0.44568 0.7964 0.0
O202 O 0.371 0.47828 0.80334 0.0
O203 O 0.38232 0.46648 0.73844 0.0
O204 O 0.4012 0.51564 0.72111 0.0
O205 O 0.4341 0.53849 0.78587 0.0
O206 O 0.44269 0.54834 0.75718 0.0
C207 C 0.38572 0.48107 0.72325 0.0
C208 C 0.44825 0.56142 0.77292 0.0
O209 O 0.36706 0.44315 0.78052 0.0
Mg210 Mg 0.56047 0.82279 0.56474 0.0
O211 O 0.50056 0.80831 0.56351 0.0
O212 O 0.46728 0.76084 0.58154 0.0
Mg213 Mg 0.50639 0.74604 0.59479 0.0
C214 C 0.47009 0.78466 0.57038 0.0
C215 C 0.59449 0.88174 0.53563 0.0
O216 O 0.6036 0.85793 0.53029 0.0
O217 O 0.56699 0.85075 0.59168 0.0
O218 O 0.53221 0.80157 0.60849 0.0
O219 O 0.54628 0.78047 0.54365 0.0
O220 O 0.544 0.76954 0.57232 0.0
C221 C 0.55275 0.83606 0.60654 0.0
C222 C 0.53656 0.75709 0.55644 0.0
O223 O 0.57655 0.87562 0.54994 0.0
Mg224 Mg 0.16586 0.72872 0.56773 0.0
O225 O 0.17703 0.68144 0.56675 0.0
O226 O 0.22531 0.69595 0.58394 0.0
Mg227 Mg 0.2456 0.7532 0.59547 0.0
C228 C 0.20004 0.67405 0.57347 0.0
C229 C 0.10949 0.68099 0.53921 0.0
O230 O 0.14032 0.69017 0.53103 0.0
O231 O 0.14133 0.71138 0.59565 0.0
O232 O 0.19264 0.73106 0.61135 0.0
O233 O 0.20537 0.75333 0.54513 0.0
O234 O 0.22066 0.7654 0.57326 0.0
C235 C 0.15801 0.71675 0.61037 0.0
C236 C 0.23062 0.76815 0.55702 0.0
O237 O 0.11052 0.69201 0.55494 0.0
Mg238 Mg 0.25566 0.42782 0.56663 0.0
O239 O 0.30228 0.48745 0.5658 0.0
O240 O 0.28767 0.52031 0.58359 0.0
Mg241 Mg 0.23091 0.48159 0.59538 0.0
C242 C 0.30949 0.51777 0.5728 0.0
C243 C 0.27884 0.3893 0.5398 0.0
O244 O 0.24448 0.37721 0.53577 0.0
O245 O 0.27375 0.42062 0.59435 0.0
O246 O 0.25444 0.45183 0.61051 0.0
O247 O 0.22941 0.4421 0.54469 0.0
O248 O 0.21849 0.44417 0.57309 0.0
C249 C 0.26887 0.43185 0.60927 0.0
C250 C 0.21441 0.45123 0.55706 0.0
O251 O 0.2928 0.41121 0.55274 0.0
H252 H 0.38789 0.31573 0.20497 0.0
H253 H 0.42596 0.42321 0.18303 0.0
H254 H 0.33572 0.29007 0.18473 0.0
H255 H 0.37438 0.39761 0.16286 0.0
H256 H 0.25578 0.34746 0.14553 0.0
H257 H 0.30778 0.37072 0.16538 0.0
H258 H 0.32158 0.27935 0.15218 0.0
H259 H 0.26897 0.25566 0.13228 0.0
C260 C 0.38517 0.33384 0.19584 0.0
C261 C 0.41096 0.37154 0.19568 0.0
C262 C 0.35547 0.31911 0.18419 0.0
C263 C 0.35091 0.34187 0.17226 0.0
C264 C 0.37687 0.37946 0.17205 0.0
C265 C 0.40653 0.39409 0.18359 0.0
C266 C 0.26987 0.33229 0.14679 0.0
C267 C 0.25828 0.29975 0.13727 0.0
C268 C 0.2998 0.34573 0.15813 0.0
C269 C 0.31884 0.32693 0.1603 0.0
C270 C 0.30723 0.29427 0.15087 0.0
C271 C 0.27731 0.28087 0.13939 0.0
H272 H 0.70381 0.93838 0.16059 0.0
H273 H 0.72397 0.02325 0.123 0.0
H274 H 0.67879 0.96357 0.18136 0.0
H275 H 0.69804 0.04839 0.14399 0.0
H276 H 0.67382 0.09611 0.19505 0.0
H277 H 0.70665 0.07748 0.17478 0.0
H278 H 0.62108 0.96463 0.18075 0.0
H279 H 0.58862 0.98294 0.20091 0.0
C280 C 0.70287 0.96246 0.15673 0.0
C281 C 0.71525 0.97843 0.14001 0.0
C282 C 0.6885 0.97687 0.16866 0.0
C283 C 0.68589 0.00754 0.16418 0.0
C284 C 0.69977 0.0247 0.14778 0.0
C285 C 0.7144 0.01025 0.13575 0.0
C286 C 0.6622 0.06732 0.19209 0.0
C287 C 0.62867 0.04095 0.19963 0.0
C288 C 0.68085 0.05674 0.1804 0.0
C289 C 0.66649 0.01962 0.17627 0.0
C290 C 0.63309 0.99341 0.18388 0.0
C291 C 0.61439 0.00393 0.19539 0.0
H292 H 0.87308 0.57923 0.18845 0.0
H293 H 0.97779 0.60612 0.2102 0.0
H294 H 0.90281 0.63462 0.17046 0.0
H295 H 0.00766 0.66073 0.19181 0.0
H296 H 0.04549 0.77486 0.17161 0.0
H297 H 0.01394 0.7197 0.18945 0.0
H298 H 0.94282 0.6622 0.1455 0.0
H299 H 0.97388 0.71788 0.12775 0.0
C300 C 0.90248 0.59684 0.18929 0.0
C301 C 0.92305 0.58841 0.20083 0.0
C302 C 0.91957 0.6285 0.1789 0.0
C303 C 0.95766 0.6523 0.17972 0.0
C304 C 0.97821 0.64349 0.1911 0.0
C305 C 0.9611 0.61205 0.20159 0.0
C306 C 0.02305 0.75052 0.16574 0.0
C307 C 0.01232 0.75079 0.14823 0.0
C308 C 0.00509 0.71875 0.17595 0.0
C309 C 0.97599 0.68633 0.16889 0.0
C310 C 0.9649 0.68673 0.15142 0.0
C311 C 0.98284 0.71861 0.14121 0.0
H312 H 0.31828 0.37461 0.78546 0.0
H313 H 0.35359 0.44194 0.83238 0.0
H314 H 0.29078 0.31981 0.8038 0.0
H315 H 0.32752 0.38727 0.85072 0.0
H316 H 0.25987 0.28015 0.88026 0.0
H317 H 0.27492 0.33312 0.86168 0.0
H318 H 0.31453 0.29009 0.821 0.0
H319 H 0.29859 0.23713 0.83919 0.0
C320 C 0.32006 0.37769 0.7997 0.0
C321 C 0.33855 0.41256 0.80747 0.0
C322 C 0.30447 0.34629 0.81023 0.0
C323 C 0.3075 0.34906 0.82876 0.0
C324 C 0.32441 0.38402 0.83653 0.0
C325 C 0.33959 0.41542 0.82599 0.0
C326 C 0.27165 0.28203 0.8673 0.0
C327 C 0.2782 0.25451 0.86124 0.0
C328 C 0.28036 0.31241 0.85667 0.0
C329 C 0.29584 0.31588 0.83979 0.0
C330 C 0.30198 0.28809 0.83375 0.0
C331 C 0.29318 0.25779 0.8443 0.0
H332 H 0.78258 0.00069 0.83168 0.0
H333 H 0.72156 0.9862 0.87979 0.0
H334 H 0.7261 0.97424 0.81472 0.0
H335 H 0.66493 0.95853 0.86294 0.0
H336 H 0.58339 0.96418 0.82594 0.0
H337 H 0.63777 0.98163 0.84328 0.0
H338 H 0.66784 0.92146 0.80761 0.0
H339 H 0.61356 0.90478 0.78984 0.0
C340 C 0.75702 0.99123 0.83868 0.0
C341 C 0.75659 0.99612 0.85704 0.0
C342 C 0.72457 0.97586 0.82895 0.0
C343 C 0.69098 0.96476 0.83742 0.0
C344 C 0.69042 0.96768 0.85593 0.0
C345 C 0.72286 0.98337 0.86561 0.0
C346 C 0.6015 0.95456 0.82177 0.0
C347 C 0.5942 0.93323 0.80646 0.0
C348 C 0.63259 0.9643 0.83184 0.0
C349 C 0.65713 0.95275 0.82694 0.0
C350 C 0.6497 0.93111 0.81167 0.0
C351 C 0.61856 0.92148 0.80152 0.0
H352 H 0.99331 0.57704 0.81093 0.0
H353 H 0.09471 0.67909 0.80316 0.0
H354 H 0.97105 0.60799 0.82991 0.0
H355 H 0.0722 0.71014 0.82235 0.0
H356 H 0.02685 0.73645 0.87435 0.0
H357 H 0.05317 0.70885 0.85522 0.0
H358 H 0.95346 0.65587 0.82485 0.0
H359 H 0.92724 0.68308 0.84374 0.0
C360 C 0.01088 0.6061 0.81327 0.0
C361 C 0.04569 0.62564 0.80545 0.0
C362 C 0.99805 0.62384 0.82411 0.0
C363 C 0.01983 0.66148 0.82754 0.0
C364 C 0.05493 0.68105 0.81998 0.0
C365 C 0.06765 0.66334 0.80892 0.0
C366 C 0.01064 0.71899 0.86355 0.0
C367 C 0.97483 0.71172 0.86067 0.0
C368 C 0.02578 0.70338 0.85257 0.0
C369 C 0.00521 0.68002 0.83865 0.0
C370 C 0.96973 0.67335 0.83563 0.0
C371 C 0.95477 0.68905 0.84646 0.0
H372 H 0.93038 0.57507 0.46295 0.0
H373 H 0.89634 0.62456 0.50294 0.0
H374 H 0.98541 0.59155 0.47993 0.0
H375 H 0.95167 0.64207 0.51955 0.0
H376 H 0.04043 0.64737 0.5531 0.0
H377 H 0.98279 0.6201 0.53703 0.0
H378 H 0.04192 0.64461 0.48756 0.0
H379 H 0.09927 0.67042 0.50365 0.0
C380 C 0.93468 0.58953 0.47534 0.0
C381 C 0.90907 0.59864 0.48157 0.0
C382 C 0.96629 0.59911 0.48504 0.0
C383 C 0.97305 0.61816 0.50112 0.0
C384 C 0.94713 0.62684 0.50739 0.0
C385 C 0.91549 0.61708 0.49777 0.0
C386 C 0.04103 0.64653 0.5388 0.0
C387 C 0.07439 0.66136 0.52963 0.0
C388 C 0.00802 0.6311 0.52957 0.0
C389 C 0.00768 0.63059 0.51098 0.0
C390 C 0.04104 0.64417 0.50187 0.0
C391 C 0.074 0.65919 0.5111 0.0
H392 H 0.35226 0.4137 0.54235 0.0
H393 H 0.25523 0.33981 0.51291 0.0
H394 H 0.38821 0.3959 0.524 0.0
H395 H 0.29075 0.32149 0.49497 0.0
H396 H 0.36704 0.31935 0.45466 0.0
H397 H 0.33686 0.34446 0.47229 0.0
H398 H 0.39639 0.34405 0.51842 0.0
H399 H 0.42735 0.3198 0.50065 0.0
C400 C 0.33858 0.39356 0.53204 0.0
C401 C 0.30087 0.37821 0.52908 0.0
C402 C 0.35915 0.38328 0.52156 0.0
C403 C 0.34244 0.35743 0.50792 0.0
C404 C 0.3047 0.34202 0.5051 0.0
C405 C 0.28423 0.35233 0.51551 0.0
C406 C 0.37395 0.32489 0.46853 0.0
C407 C 0.3993 0.31715 0.47629 0.0
C408 C 0.35648 0.33911 0.47867 0.0
C409 C 0.36377 0.34577 0.49684 0.0
C410 C 0.39024 0.33942 0.50445 0.0
C411 C 0.40785 0.32532 0.49427 0.0
H412 H 0.65454 0.04102 0.45108 0.0
H413 H 0.66832 0.10254 0.4989 0.0
H414 H 0.62971 0.98493 0.46833 0.0
H415 H 0.64457 0.04663 0.51622 0.0
H416 H 0.57557 0.93391 0.54132 0.0
H417 H 0.5922 0.98805 0.52344 0.0
H418 H 0.65368 0.95872 0.48826 0.0
H419 H 0.63628 0.90434 0.50577 0.0
C420 C 0.65219 0.04256 0.46527 0.0
C421 C 0.66377 0.0763 0.47363 0.0
C422 C 0.63815 0.01043 0.47518 0.0
C423 C 0.63562 0.0113 0.4937 0.0
C424 C 0.64588 0.04487 0.50198 0.0
C425 C 0.65969 0.07699 0.49205 0.0
C426 C 0.59256 0.93902 0.52974 0.0
C427 C 0.60462 0.91481 0.52498 0.0
C428 C 0.6022 0.97012 0.51952 0.0
C429 C 0.62417 0.97771 0.50436 0.0
C430 C 0.63614 0.95341 0.49964 0.0
C431 C 0.62641 0.92232 0.50979 0.0
H432 H 0.06918 0.15661 0.13345 0.0
H433 H 0.03887 0.21009 0.09424 0.0
H434 H 0.00732 0.10303 0.13238 0.0
H435 H 0.97692 0.15698 0.09346 0.0
H436 H 0.86164 0.05836 0.10424 0.0
H437 H 0.9181 0.11466 0.1123 0.0
H438 H 0.97913 0.05955 0.10494 0.0
H439 H 0.92307 0.00359 0.09663 0.0
C440 C 0.04886 0.15749 0.12517 0.0
C441 C 0.0586 0.18739 0.11396 0.0
C442 C 0.01365 0.12675 0.12443 0.0
C443 C 0.98753 0.12585 0.11274 0.0
C444 C 0.99647 0.15705 0.10265 0.0
C445 C 0.03184 0.18741 0.10311 0.0
C446 C 0.8871 0.05826 0.10442 0.0
C447 C 0.888 0.02667 0.09963 0.0
C448 C 0.91931 0.09041 0.10906 0.0
C449 C 0.95281 0.09128 0.10938 0.0
C450 C 0.95355 0.05945 0.10503 0.0
C451 C 0.92154 0.02758 0.10007 0.0
H452 H 0.7859 0.84171 0.09498 0.0
H453 H 0.84271 0.92573 0.13424 0.0
H454 H 0.8354 0.82832 0.09506 0.0
H455 H 0.89283 0.91273 0.1341 0.0
H456 H 0.97035 0.86315 0.13115 0.0
H457 H 0.91373 0.8635 0.13804 0.0
H458 H 0.89859 0.87414 0.08242 0.0
H459 H 0.95497 0.87464 0.07568 0.0
C460 C 0.8085 0.85649 0.10403 0.0
C461 C 0.8107 0.88482 0.11452 0.0
C462 C 0.83685 0.84897 0.10402 0.0
C463 C 0.86814 0.86993 0.11435 0.0
C464 C 0.8689 0.89606 0.12608 0.0
C465 C 0.84023 0.90343 0.12619 0.0
C466 C 0.95459 0.86527 0.12047 0.0
C467 C 0.96683 0.86885 0.10289 0.0
C468 C 0.92243 0.86559 0.1244 0.0
C469 C 0.90164 0.86839 0.11073 0.0
C470 C 0.91377 0.87137 0.09319 0.0
C471 C 0.94615 0.87194 0.08933 0.0
H472 H 0.0994 0.08826 0.07434 0.0
H473 H 0.15348 0.13428 0.124 0.0
H474 H 0.0996 0.03213 0.08082 0.0
H475 H 0.15302 0.07732 0.1306 0.0
H476 H 0.08738 0.94253 0.13723 0.0
H477 H 0.09893 0.00533 0.13494 0.0
H478 H 0.15326 0.01811 0.08492 0.0
H479 H 0.14219 0.95602 0.08723 0.0
C480 C 0.11128 0.08638 0.08666 0.0
C481 C 0.1266 0.11578 0.0986 0.0
C482 C 0.11155 0.05431 0.09032 0.0
C483 C 0.12659 0.05061 0.10614 0.0
C484 C 0.14136 0.07963 0.1183 0.0
C485 C 0.14176 0.11217 0.11446 0.0
C486 C 0.10289 0.95925 0.12608 0.0
C487 C 0.11344 0.94429 0.11228 0.0
C488 C 0.10937 0.99507 0.12475 0.0
C489 C 0.12638 0.01616 0.1096 0.0
C490 C 0.13958 0.00216 0.09659 0.0
C491 C 0.1333 0.96668 0.09795 0.0
H492 H 0.05057 0.90247 0.92747 0.0
H493 H 0.02554 0.8858 0.87186 0.0
H494 H 0.10839 0.95794 0.92091 0.0
H495 H 0.08365 0.94211 0.86511 0.0
H496 H 0.16216 0.07226 0.86977 0.0
H497 H 0.1102 0.0095 0.87031 0.0
H498 H 0.16815 0.97943 0.90708 0.0
H499 H 0.21932 0.04243 0.90699 0.0
C500 C 0.05775 0.91071 0.91381 0.0
C501 C 0.03393 0.8901 0.90015 0.0
C502 C 0.09095 0.94226 0.91001 0.0
C503 C 0.1008 0.95427 0.89246 0.0
C504 C 0.07687 0.93346 0.87874 0.0
C505 C 0.04382 0.9013 0.88256 0.0
C506 C 0.16426 0.05182 0.8774 0.0
C507 C 0.19461 0.06196 0.88833 0.0
C508 C 0.13448 0.01592 0.87777 0.0
C509 C 0.13486 0.98967 0.88896 0.0
C510 C 0.16676 0.99924 0.8986 0.0
C511 C 0.19618 0.03514 0.89843 0.0
H512 H 0.07997 0.0644 0.90112 0.0
H513 H 0.14421 0.18112 0.89234 0.0
H514 H 0.02483 0.06483 0.8924 0.0
H515 H 0.0888 0.18146 0.88384 0.0
H516 H 0.97108 0.16049 0.9027 0.0
H517 H 0.0318 0.16726 0.90317 0.0
H518 H 0.99621 0.07961 0.86523 0.0
H519 H 0.93561 0.07345 0.86445 0.0
C520 C 0.08235 0.09009 0.89723 0.0
C521 C 0.11638 0.12278 0.89758 0.0
C522 C 0.05086 0.09026 0.89207 0.0
C523 C 0.05266 0.12318 0.88741 0.0
C524 C 0.08674 0.15574 0.88737 0.0
C525 C 0.11838 0.15549 0.89224 0.0
C526 C 0.97673 0.14366 0.89398 0.0
C527 C 0.94891 0.11671 0.88344 0.0
C528 C 0.01139 0.14747 0.89426 0.0
C529 C 0.01853 0.12378 0.88432 0.0
C530 C 0.9913 0.09814 0.87303 0.0
C531 C 0.95683 0.0949 0.87244 0.0
H532 H 0.91827 0.84124 0.86479 0.0
H533 H 0.85182 0.79864 0.91177 0.0
H534 H 0.90795 0.89321 0.86496 0.0
H535 H 0.84157 0.85022 0.91189 0.0
H536 H 0.90177 0.97547 0.92386 0.0
H537 H 0.89814 0.91723 0.91803 0.0
H538 H 0.85521 0.91389 0.86599 0.0
H539 H 0.85803 0.97237 0.872 0.0
C540 C 0.90029 0.84221 0.87469 0.0
C541 C 0.88619 0.81631 0.88841 0.0
C542 C 0.89448 0.87192 0.87481 0.0
C543 C 0.87449 0.87584 0.88861 0.0
C544 C 0.85746 0.84796 0.90125 0.0
C545 C 0.86327 0.81847 0.90115 0.0
C546 C 0.89155 0.96239 0.91117 0.0
C547 C 0.88011 0.97835 0.8984 0.0
C548 C 0.88923 0.92897 0.90788 0.0
C549 C 0.87605 0.91104 0.89164 0.0
C550 C 0.86526 0.9272 0.87864 0.0
C551 C 0.86679 0.96045 0.8821 0.0
H552 H 0.6938 0.53262 0.43593 0.0
H553 H 0.72597 0.47181 0.46951 0.0
H554 H 0.63209 0.47947 0.43397 0.0
H555 H 0.66474 0.41803 0.46699 0.0
H556 H 0.54271 0.33029 0.46423 0.0
H557 H 0.59813 0.38793 0.47232 0.0
H558 H 0.61141 0.42288 0.4178 0.0
H559 H 0.55661 0.36547 0.40991 0.0
C560 C 0.68729 0.50808 0.44323 0.0
C561 C 0.71436 0.50623 0.45293 0.0
C562 C 0.65216 0.47755 0.44197 0.0
C563 C 0.6437 0.44432 0.45006 0.0
C564 C 0.67023 0.44327 0.46074 0.0
C565 C 0.70526 0.47408 0.46223 0.0
C566 C 0.55753 0.35063 0.45411 0.0
C567 C 0.54578 0.34379 0.43648 0.0
C568 C 0.58919 0.38344 0.45869 0.0
C569 C 0.609 0.41015 0.44574 0.0
C570 C 0.59652 0.40323 0.42816 0.0
C571 C 0.5654 0.37028 0.42357 0.0
H572 H 0.49838 0.22999 0.46831 0.0
H573 H 0.45244 0.16305 0.42181 0.0
H574 H 0.55107 0.22097 0.46648 0.0
H575 H 0.50473 0.15407 0.42002 0.0
H576 H 0.62849 0.21347 0.40532 0.0
H577 H 0.57047 0.20936 0.41242 0.0
H578 H 0.57305 0.17034 0.46471 0.0
H579 H 0.63123 0.1737 0.45747 0.0
C580 C 0.49881 0.21213 0.45818 0.0
C581 C 0.4716 0.19742 0.4451 0.0
C582 C 0.52898 0.20712 0.45709 0.0
C583 C 0.53212 0.18737 0.44292 0.0
C584 C 0.50314 0.16985 0.4309 0.0
C585 C 0.47319 0.17484 0.43198 0.0
C586 C 0.61671 0.20392 0.41831 0.0
C587 C 0.63429 0.19375 0.4308 0.0
C588 C 0.58341 0.20135 0.42234 0.0
C589 C 0.56721 0.18918 0.43905 0.0
C590 C 0.58497 0.17961 0.45172 0.0
C591 C 0.61807 0.18142 0.44754 0.0
H592 H 0.81341 0.45694 0.45977 0.0
H593 H 0.75208 0.41078 0.41171 0.0
H594 H 0.81546 0.40081 0.4646 0.0
H595 H 0.75486 0.35538 0.41646 0.0
H596 H 0.80826 0.28653 0.41842 0.0
H597 H 0.81521 0.34718 0.41805 0.0
H598 H 0.76016 0.32568 0.46842 0.0
H599 H 0.75227 0.26413 0.46866 0.0
C600 C 0.80046 0.43493 0.45024 0.0
C601 C 0.78271 0.43837 0.43529 0.0
C602 C 0.80156 0.40287 0.45307 0.0
C603 C 0.78559 0.37413 0.44082 0.0
C604 C 0.76767 0.37743 0.426 0.0
C605 C 0.76597 0.40907 0.42332 0.0
C606 C 0.79827 0.29493 0.42961 0.0
C607 C 0.7791 0.27038 0.4434 0.0
C608 C 0.80225 0.3296 0.42937 0.0
C609 C 0.78766 0.34064 0.44305 0.0
C610 C 0.77156 0.31758 0.45771 0.0
C611 C 0.76721 0.28252 0.45788 0.0
H612 H 0.69404 0.19794 0.22299 0.0
H613 H 0.64506 0.25659 0.24584 0.0
H614 H 0.75193 0.25587 0.21944 0.0
H615 H 0.70301 0.31406 0.24233 0.0
H616 H 0.83105 0.37703 0.26124 0.0
H617 H 0.77406 0.31875 0.25914 0.0
H618 H 0.76963 0.33513 0.20323 0.0
H619 H 0.82564 0.39553 0.20547 0.0
C620 C 0.69536 0.22313 0.22697 0.0
C621 C 0.66502 0.22257 0.23491 0.0
C622 C 0.72843 0.25617 0.22486 0.0
C623 C 0.73157 0.28907 0.2306 0.0
C624 C 0.70099 0.28884 0.23781 0.0
C625 C 0.66797 0.25594 0.23989 0.0
C626 C 0.81783 0.36874 0.24851 0.0
C627 C 0.83208 0.39176 0.23367 0.0
C628 C 0.78546 0.33511 0.24732 0.0
C629 C 0.76748 0.32302 0.2311 0.0
C630 C 0.78305 0.34434 0.2159 0.0
C631 C 0.81509 0.37869 0.21719 0.0
H632 H 0.76005 0.4814 0.26889 0.0
H633 H 0.78831 0.48033 0.21417 0.0
H634 H 0.70552 0.4825 0.25998 0.0
H635 H 0.73292 0.48071 0.20507 0.0
H636 H 0.6006 0.41624 0.20586 0.0
H637 H 0.66491 0.4332 0.20829 0.0
H638 H 0.68388 0.51974 0.24463 0.0
H639 H 0.61955 0.50197 0.24258 0.0
C640 C 0.75474 0.48197 0.25493 0.0
C641 C 0.77812 0.48078 0.2422 0.0
C642 C 0.7237 0.48284 0.2498 0.0
C643 C 0.715 0.48178 0.23181 0.0
C644 C 0.73901 0.48158 0.21902 0.0
C645 C 0.77067 0.48156 0.22419 0.0
C646 C 0.61896 0.43976 0.2138 0.0
C647 C 0.6054 0.45783 0.22408 0.0
C648 C 0.65571 0.44945 0.21522 0.0
C649 C 0.67924 0.47748 0.22685 0.0
C650 C 0.66622 0.49766 0.2358 0.0
C651 C 0.62954 0.48768 0.23456 0.0
H652 H 0.54279 0.29948 0.26258 0.0
H653 H 0.50794 0.30572 0.20979 0.0
H654 H 0.53637 0.24035 0.25556 0.0
H655 H 0.50227 0.24651 0.20263 0.0
H656 H 0.5583 0.16964 0.19911 0.0
H657 H 0.55028 0.22281 0.20125 0.0
H658 H 0.48167 0.17548 0.2472 0.0
H659 H 0.48954 0.12248 0.24507 0.0
C660 C 0.53382 0.28821 0.24946 0.0
C661 C 0.5258 0.30712 0.23675 0.0
C662 C 0.52986 0.25427 0.24549 0.0
C663 C 0.51845 0.23878 0.22861 0.0
C664 C 0.5109 0.25783 0.21576 0.0
C665 C 0.51407 0.29155 0.21987 0.0
C666 C 0.54029 0.16993 0.2092 0.0
C667 C 0.52489 0.14225 0.22207 0.0
C668 C 0.53585 0.2004 0.21047 0.0
C669 C 0.51597 0.20343 0.2246 0.0
C670 C 0.49763 0.174 0.23636 0.0
C671 C 0.50198 0.14365 0.23509 0.0
H672 H 0.21289 0.6793 0.79546 0.0
H673 H 0.25243 0.68576 0.74216 0.0
H674 H 0.26883 0.73741 0.80265 0.0
H675 H 0.30734 0.74374 0.74918 0.0
H676 H 0.37954 0.86168 0.7598 0.0
H677 H 0.31759 0.80902 0.75881 0.0
H678 H 0.34281 0.75954 0.8021 0.0
H679 H 0.40525 0.81248 0.8031 0.0
C680 C 0.2334 0.69328 0.7853 0.0
C681 C 0.22846 0.67819 0.76825 0.0
C682 C 0.26527 0.7263 0.78943 0.0
C683 C 0.292 0.74507 0.7764 0.0
C684 C 0.28687 0.72996 0.75939 0.0
C685 C 0.25562 0.69671 0.75541 0.0
C686 C 0.37153 0.84012 0.76949 0.0
C687 C 0.39722 0.84088 0.78138 0.0
C688 C 0.33617 0.81 0.76888 0.0
C689 C 0.3258 0.78012 0.78018 0.0
C690 C 0.35025 0.78237 0.79328 0.0
C691 C 0.38587 0.81267 0.79389 0.0
H692 H 0.34098 0.59107 0.75788 0.0
H693 H 0.29098 0.47772 0.77364 0.0
H694 H 0.28527 0.59093 0.76638 0.0
H695 H 0.23503 0.4776 0.78177 0.0
H696 H 0.13503 0.49402 0.76184 0.0
H697 H 0.1895 0.48813 0.7606 0.0
H698 H 0.24512 0.57968 0.79626 0.0
H699 H 0.19015 0.58473 0.79798 0.0
C700 C 0.31816 0.56617 0.76316 0.0
C701 C 0.32028 0.53433 0.76495 0.0
C702 C 0.28646 0.56622 0.76817 0.0
C703 C 0.25606 0.53429 0.77478 0.0
C704 C 0.25819 0.50254 0.77673 0.0
C705 C 0.29016 0.50267 0.77206 0.0
C706 C 0.15843 0.51189 0.76994 0.0
C707 C 0.15837 0.53946 0.78018 0.0
C708 C 0.18955 0.50863 0.76919 0.0
C709 C 0.22142 0.5336 0.77826 0.0
C710 C 0.2208 0.56012 0.78917 0.0
C711 C 0.18931 0.56273 0.7903 0.0
H712 H 0.44023 0.74184 0.73873 0.0
H713 H 0.49035 0.78575 0.78935 0.0
H714 H 0.44331 0.68682 0.74449 0.0
H715 H 0.4926 0.73004 0.79524 0.0
H716 H 0.43172 0.59504 0.79938 0.0
H717 H 0.43971 0.6565 0.79789 0.0
H718 H 0.50078 0.67705 0.74938 0.0
H719 H 0.49353 0.6163 0.75098 0.0
C720 C 0.45174 0.73966 0.7511 0.0
C721 C 0.46523 0.76816 0.76353 0.0
C722 C 0.45368 0.70831 0.75435 0.0
C723 C 0.46847 0.70449 0.77024 0.0
C724 C 0.48121 0.73251 0.78288 0.0
C725 C 0.48002 0.76432 0.77946 0.0
C726 C 0.44807 0.61324 0.7888 0.0
C727 C 0.46162 0.6008 0.77517 0.0
C728 C 0.45243 0.64825 0.7879 0.0
C729 C 0.47022 0.671 0.77333 0.0
C730 C 0.48647 0.6597 0.76058 0.0
C731 C 0.48243 0.62504 0.76156 0.0
H732 H 0.48182 0.72579 0.53192 0.0
H733 H 0.52961 0.70074 0.57603 0.0
H734 H 0.42748 0.6644 0.53392 0.0
H735 H 0.47559 0.6397 0.57799 0.0
H736 H 0.35297 0.5739 0.5947 0.0
H737 H 0.41146 0.62855 0.58769 0.0
H738 H 0.40297 0.59198 0.53371 0.0
H739 H 0.34457 0.5365 0.54088 0.0
C740 C 0.48136 0.70667 0.54153 0.0
C741 C 0.50973 0.71795 0.5539 0.0
C742 C 0.45021 0.67167 0.54274 0.0
C743 C 0.44721 0.6477 0.55632 0.0
C744 C 0.47705 0.65794 0.5676 0.0
C745 C 0.50801 0.69272 0.56639 0.0
C746 C 0.36362 0.57751 0.58136 0.0
C747 C 0.34445 0.551 0.56836 0.0
C748 C 0.39714 0.60859 0.57737 0.0
C749 C 0.41182 0.6142 0.56021 0.0
C750 C 0.39229 0.58813 0.54706 0.0
C751 C 0.35907 0.55647 0.55117 0.0
H752 H 0.25585 0.73424 0.53549 0.0
H753 H 0.29089 0.82569 0.57099 0.0
H754 H 0.3172 0.74223 0.53637 0.0
H755 H 0.35233 0.83443 0.57151 0.0
H756 H 0.42486 0.7912 0.59319 0.0
H757 H 0.36988 0.79345 0.58637 0.0
H758 H 0.38572 0.78268 0.53072 0.0
H759 H 0.44154 0.78116 0.53769 0.0
C760 C 0.27716 0.75707 0.54281 0.0
C761 C 0.26888 0.77944 0.55316 0.0
C762 C 0.3122 0.76155 0.54339 0.0
C763 C 0.33934 0.78856 0.55426 0.0
C764 C 0.33174 0.81292 0.56331 0.0
C765 C 0.29675 0.80819 0.56288 0.0
C766 C 0.41658 0.78945 0.57952 0.0
C767 C 0.43715 0.78604 0.56595 0.0
C768 C 0.38537 0.79109 0.57557 0.0
C769 C 0.3737 0.78865 0.55798 0.0
C770 C 0.39417 0.7848 0.54437 0.0
C771 C 0.42601 0.78401 0.54833 0.0
H772 H 0.2378 0.50568 0.53229 0.0
H773 H 0.1622 0.45514 0.57567 0.0
H774 H 0.22902 0.55855 0.53397 0.0
H775 H 0.15367 0.50775 0.57737 0.0
H776 H 0.21461 0.63143 0.59462 0.0
H777 H 0.21031 0.57331 0.58716 0.0
H778 H 0.17677 0.58005 0.5342 0.0
H779 H 0.18003 0.63804 0.54184 0.0
C780 C 0.21816 0.50516 0.54164 0.0
C781 C 0.2009 0.47659 0.55396 0.0
C782 C 0.2133 0.53544 0.54266 0.0
C783 C 0.19118 0.5373 0.55601 0.0
C784 C 0.17122 0.50707 0.56712 0.0
C785 C 0.17598 0.47696 0.56609 0.0
C786 C 0.20621 0.62047 0.58142 0.0
C787 C 0.19749 0.63904 0.56884 0.0
C788 C 0.20355 0.58719 0.57718 0.0
C789 C 0.19292 0.57221 0.56016 0.0
C790 C 0.18483 0.59104 0.54742 0.0
C791 C 0.18659 0.624 0.55181 0.0
H792 H 0.2331 0.22934 0.05182 0.0
H793 H 0.161 0.2616 0.0287 0.0
H794 H 0.2538 0.2243 0.02212 0.0
H795 H 0.18199 0.25734 0.99927 0.0
H796 H 0.16668 0.16679 0.95942 0.0
H797 H 0.16365 0.1945 0.98703 0.0
H798 H 0.28153 0.2534 0.99048 0.0
H799 H 0.28448 0.2257 0.96222 0.0
C800 C 0.22303 0.23701 0.04045 0.0
C801 C 0.19526 0.2455 0.04244 0.0
C802 C 0.23481 0.23411 0.02348 0.0
C803 C 0.21898 0.23984 0.00842 0.0
C804 C 0.19425 0.25229 0.01064 0.0
C805 C 0.18234 0.25484 0.02747 0.0
C806 C 0.19198 0.1862 0.96589 0.0
C807 C 0.22576 0.19434 0.95874 0.0
C808 C 0.1903 0.2022 0.98165 0.0
C809 C 0.22239 0.22635 0.99083 0.0
C810 C 0.25644 0.235 0.98359 0.0
C811 C 0.25814 0.21942 0.96746 0.0
H812 H 0.78597 0.06197 0.95644 0.0
H813 H 0.83239 0.99215 0.955 0.0
H814 H 0.75738 0.03548 0.98524 0.0
H815 H 0.80408 0.96568 0.98325 0.0
H816 H 0.74131 0.90827 0.02865 0.0
H817 H 0.74463 0.92801 0.99815 0.0
H818 H 0.78462 0.03869 0.01604 0.0
H819 H 0.78016 0.01839 0.0468 0.0
C820 C 0.78915 0.04031 0.96209 0.0
C821 C 0.8111 0.02882 0.95364 0.0
C822 C 0.77309 0.02539 0.97854 0.0
C823 C 0.77828 0.99835 0.98645 0.0
C824 C 0.79894 0.98594 0.97742 0.0
C825 C 0.81532 0.00117 0.96128 0.0
C826 C 0.74942 0.93653 0.02608 0.0
C827 C 0.76071 0.96191 0.03996 0.0
C828 C 0.7515 0.94787 0.00864 0.0
C829 C 0.76561 0.98501 0.0047 0.0
C830 C 0.7735 0.00986 0.01869 0.0
C831 C 0.77097 0.99831 0.03628 0.0
H832 H 0.94077 0.71407 0.96064 0.0
H833 H 0.01729 0.83034 0.96121 0.0
H834 H 0.95528 0.71034 0.99186 0.0
H835 H 0.03217 0.82646 0.99198 0.0
H836 H 0.97082 0.80119 0.04781 0.0
H837 H 0.95413 0.77993 0.01736 0.0
H838 H 0.04479 0.76133 0.01398 0.0
H839 H 0.06119 0.78206 0.04475 0.0
C840 C 0.96186 0.73837 0.96719 0.0
C841 C 0.97826 0.77243 0.95859 0.0
C842 C 0.96996 0.73626 0.98498 0.0
C843 C 0.99492 0.76811 0.99411 0.0
C844 C 0.01319 0.80154 0.98507 0.0
C845 C 0.00477 0.80373 0.96751 0.0
C846 C 0.98587 0.79056 0.0409 0.0
C847 C 0.01685 0.7926 0.04861 0.0
C848 C 0.97641 0.77852 0.0235 0.0
C849 C 0.99804 0.76876 0.01351 0.0
C850 C 0.0274 0.76809 0.02161 0.0
C851 C 0.03665 0.77978 0.03916 0.0
H852 H 0.93445 0.59027 0.29369 0.0
H853 H 0.85315 0.47974 0.30875 0.0
H854 H 0.93136 0.61094 0.32397 0.0
H855 H 0.85046 0.50009 0.33797 0.0
H856 H 0.87277 0.53101 0.39268 0.0
H857 H 0.89817 0.52844 0.36404 0.0
H858 H 0.87159 0.60651 0.34292 0.0
H859 H 0.84551 0.60854 0.37166 0.0
C860 C 0.91633 0.57051 0.30336 0.0
C861 C 0.8943 0.53339 0.29878 0.0
C862 C 0.91456 0.58227 0.32057 0.0
C863 C 0.89119 0.55686 0.3333 0.0
C864 C 0.8694 0.52007 0.32859 0.0
C865 C 0.87091 0.50853 0.31167 0.0
C866 C 0.87395 0.54888 0.38215 0.0
C867 C 0.85767 0.57025 0.38427 0.0
C868 C 0.8884 0.5474 0.36579 0.0
C869 C 0.88696 0.56746 0.35136 0.0
C870 C 0.87351 0.59128 0.35393 0.0
C871 C 0.85849 0.59232 0.37028 0.0
H872 H 0.43108 0.3151 0.28528 0.0
H873 H 0.49147 0.42522 0.30552 0.0
H874 H 0.40951 0.2921 0.3152 0.0
H875 H 0.4689 0.40281 0.33523 0.0
H876 H 0.48713 0.3428 0.38173 0.0
H877 H 0.48969 0.37084 0.35342 0.0
H878 H 0.37747 0.28737 0.34325 0.0
H879 H 0.3754 0.259 0.37191 0.0
C880 C 0.43819 0.33447 0.29602 0.0
C881 C 0.46285 0.37183 0.29323 0.0
C882 C 0.42592 0.32138 0.31316 0.0
C883 C 0.43806 0.34559 0.32766 0.0
C884 C 0.45966 0.38337 0.32442 0.0
C885 C 0.4723 0.39628 0.30741 0.0
C886 C 0.46266 0.33124 0.37369 0.0
C887 C 0.43095 0.29922 0.37898 0.0
C888 C 0.46399 0.3473 0.35746 0.0
C889 C 0.43368 0.33147 0.34604 0.0
C890 C 0.40126 0.30016 0.35173 0.0
C891 C 0.39989 0.28417 0.36815 0.0
H892 H 0.75023 0.15628 0.36186 0.0
H893 H 0.64044 0.09647 0.38262 0.0
H894 H 0.72711 0.13503 0.33213 0.0
H895 H 0.61683 0.07601 0.3527 0.0
H896 H 0.58405 0.04405 0.29539 0.0
H897 H 0.61223 0.04471 0.3239 0.0
H898 H 0.69448 0.15807 0.3152 0.0
H899 H 0.66647 0.15702 0.28707 0.0
C900 C 0.72121 0.13742 0.36008 0.0
C901 C 0.69705 0.12791 0.37442 0.0
C902 C 0.70792 0.12553 0.34307 0.0
C903 C 0.67009 0.10452 0.34 0.0
C904 C 0.64614 0.09203 0.35462 0.0
C905 C 0.65959 0.10363 0.37176 0.0
C906 C 0.60883 0.06858 0.29946 0.0
C907 C 0.6236 0.10035 0.28908 0.0
C908 C 0.62474 0.0691 0.31577 0.0
C909 C 0.65574 0.10135 0.32178 0.0
C910 C 0.67117 0.13252 0.31086 0.0
C911 C 0.65514 0.13205 0.29476 0.0
H912 H 0.61324 0.88023 0.62658 0.0
H913 H 0.49794 0.84043 0.62131 0.0
H914 H 0.6131 0.90677 0.65558 0.0
H915 H 0.49745 0.86637 0.64985 0.0
H916 H 0.49901 0.92236 0.69704 0.0
H917 H 0.51871 0.92221 0.66678 0.0
H918 H 0.58507 0.87831 0.68498 0.0
H919 H 0.56616 0.87984 0.7155 0.0
C920 C 0.58825 0.87827 0.63141 0.0
C921 C 0.55568 0.85883 0.62178 0.0
C922 C 0.58805 0.89307 0.648 0.0
C923 C 0.55534 0.88889 0.65498 0.0
C924 C 0.52331 0.87086 0.64478 0.0
C925 C 0.52347 0.85587 0.62843 0.0
C926 C 0.51897 0.9141 0.69462 0.0
C927 C 0.531 0.90097 0.70848 0.0
C928 C 0.53006 0.91375 0.6773 0.0
C929 C 0.55278 0.89947 0.67344 0.0
C930 C 0.56765 0.88962 0.68754 0.0
C931 C 0.55689 0.89049 0.705 0.0
H932 H 0.10174 0.6488 0.61913 0.0
H933 H 0.17013 0.75798 0.63945 0.0
H934 H 0.08232 0.62604 0.64931 0.0
H935 H 0.14973 0.73589 0.66941 0.0
H936 H 0.16803 0.67208 0.7138 0.0
H937 H 0.16953 0.70055 0.6858 0.0
H938 H 0.05419 0.62358 0.67866 0.0
H939 H 0.05307 0.59476 0.7071 0.0
C940 C 0.11121 0.66812 0.63 0.0
C941 C 0.13756 0.705 0.62711 0.0
C942 C 0.10013 0.65516 0.64727 0.0
C943 C 0.11509 0.67907 0.66179 0.0
C944 C 0.13834 0.71664 0.65856 0.0
C945 C 0.14983 0.72937 0.64142 0.0
C946 C 0.14278 0.66197 0.70648 0.0
C947 C 0.1104 0.63164 0.71257 0.0
C948 C 0.14351 0.67833 0.69045 0.0
C949 C 0.11188 0.66451 0.67999 0.0
C950 C 0.07897 0.63483 0.68643 0.0
C951 C 0.0782 0.61858 0.7027 0.0
H952 H 0.3239 0.4163 0.61397 0.0
H953 H 0.24267 0.42939 0.64223 0.0
H954 H 0.35115 0.41443 0.64223 0.0
H955 H 0.26974 0.42784 0.67012 0.0
H956 H 0.3177 0.42056 0.71971 0.0
H957 H 0.28606 0.39466 0.69168 0.0
H958 H 0.38573 0.46601 0.66319 0.0
H959 H 0.41692 0.49165 0.69103 0.0
C960 C 0.31133 0.41781 0.62618 0.0
C961 C 0.28152 0.42355 0.62588 0.0
C962 C 0.32695 0.41686 0.64233 0.0
C963 C 0.31267 0.42111 0.65841 0.0
C964 C 0.28118 0.42401 0.65804 0.0
C965 C 0.26589 0.42532 0.642 0.0
C966 C 0.33305 0.42953 0.70746 0.0
C967 C 0.36957 0.45821 0.70743 0.0
C968 C 0.31495 0.41496 0.69143 0.0
C969 C 0.33331 0.42858 0.67521 0.0
C970 C 0.37084 0.45468 0.6754 0.0
C971 C 0.38868 0.46955 0.69134 0.0
loop_
_geom_bond_atom_site_label_1
_geom_bond_atom_site_label_2
_geom_bond_distance
_geom_bond_site_symmetry_2
_ccdc_geom_bond_type
Mg0 O1 2.028 . S
Mg0 O7 1.986 . S
Mg0 O9 2.114 . S
Mg0 O10 2.251 . S
Mg0 O13 2.010 . S
O1 Mg0 2.028 . S
O1 C4 1.250 . S
O2 Mg3 2.028 . S
O2 C4 1.248 . S
Mg3 O2 2.028 . S
Mg3 O8 2.032 . S
Mg3 O10 2.079 . S
C4 O1 1.250 . S
C4 O2 1.248 . S
C5 O6 1.264 . S
C5 O13 1.249 . S
O6 C5 1.264 . S
O7 Mg0 1.986 . S
O7 C11 1.246 . S
O8 Mg3 2.032 . S
O8 C11 1.259 . S
O9 Mg0 2.114 . S
O9 C12 1.252 . S
O10 Mg0 2.251 . S
O10 Mg3 2.079 . S
O10 C12 1.273 . S
C11 O7 1.246 . S
C11 O8 1.259 . S
C12 O9 1.252 . S
C12 O10 1.273 . S
O13 Mg0 2.010 . S
O13 C5 1.249 . S
Mg14 O15 2.028 1_565 S
Mg14 O21 1.986 . S
Mg14 O23 2.114 . S
Mg14 O24 2.251 . S
Mg14 O27 2.010 . S
O15 Mg14 2.028 1_545 S
O15 C18 1.250 . S
O16 Mg17 2.028 1_545 S
O16 C18 1.248 . S
Mg17 O16 2.028 1_565 S
Mg17 O22 2.032 . S
Mg17 O24 2.079 . S
C18 O15 1.250 . S
C18 O16 1.248 . S
C19 O20 1.264 1_545 S
C19 O27 1.249 1_545 S
O20 C19 1.264 1_565 S
O21 Mg14 1.986 . S
O21 C25 1.246 . S
O22 Mg17 2.032 . S
O22 C25 1.259 . S
O23 Mg14 2.114 . S
O23 C26 1.252 . S
O24 Mg14 2.251 . S
O24 Mg17 2.079 . S
O24 C26 1.273 . S
C25 O21 1.246 . S
C25 O22 1.259 . S
C26 O23 1.252 . S
C26 O24 1.273 . S
O27 Mg14 2.010 . S
O27 C19 1.249 1_565 S
Mg28 O29 2.028 1_455 S
Mg28 O35 1.986 . S
Mg28 O37 2.114 . S
Mg28 O38 2.251 . S
Mg28 O41 2.010 . S
O29 Mg28 2.028 1_655 S
O29 C32 1.250 . S
O30 Mg31 2.028 1_655 S
O30 C32 1.248 . S
Mg31 O30 2.028 1_455 S
Mg31 O36 2.032 . S
Mg31 O38 2.079 . S
C32 O29 1.250 . S
C32 O30 1.248 . S
C33 O34 1.264 1_655 S
C33 O41 1.249 1_655 S
O34 C33 1.264 1_455 S
O35 Mg28 1.986 . S
O35 C39 1.246 . S
O36 Mg31 2.032 . S
O36 C39 1.259 . S
O37 Mg28 2.114 . S
O37 C40 1.252 . S
O38 Mg28 2.251 . S
O38 Mg31 2.079 . S
O38 C40 1.273 . S
C39 O35 1.246 . S
C39 O36 1.259 . S
C40 O37 1.252 . S
C40 O38 1.273 . S
O41 Mg28 2.010 . S
O41 C33 1.249 1_455 S
Mg42 O43 2.028 . S
Mg42 O49 1.986 . S
Mg42 O51 2.114 . S
Mg42 O52 2.251 . S
Mg42 O55 2.010 . S
O43 Mg42 2.028 . S
O43 C46 1.250 . S
O44 Mg45 2.028 . S
O44 C46 1.248 . S
Mg45 O44 2.028 . S
Mg45 O50 2.032 . S
Mg45 O52 2.079 . S
C46 O43 1.250 . S
C46 O44 1.248 . S
C47 O48 1.264 . S
C47 O55 1.249 . S
O48 C47 1.264 . S
O49 Mg42 1.986 . S
O49 C53 1.246 . S
O50 Mg45 2.032 . S
O50 C53 1.259 . S
O51 Mg42 2.114 . S
O51 C54 1.252 . S
O52 Mg42 2.251 . S
O52 Mg45 2.079 . S
O52 C54 1.273 . S
C53 O49 1.246 . S
C53 O50 1.259 . S
C54 O51 1.252 . S
C54 O52 1.273 . S
O55 Mg42 2.010 . S
O55 C47 1.249 . S
Mg56 O57 2.028 1_545 S
Mg56 O63 1.986 . S
Mg56 O65 2.114 . S
Mg56 O66 2.251 . S
Mg56 O69 2.010 . S
O57 Mg56 2.028 1_565 S
O57 C60 1.250 . S
O58 Mg59 2.028 1_565 S
O58 C60 1.248 . S
Mg59 O58 2.028 1_545 S
Mg59 O64 2.032 . S
Mg59 O66 2.079 . S
C60 O57 1.250 . S
C60 O58 1.248 . S
C61 O62 1.264 1_565 S
C61 O69 1.249 1_565 S
O62 C61 1.264 1_545 S
O63 Mg56 1.986 . S
O63 C67 1.246 . S
O64 Mg59 2.032 . S
O64 C67 1.259 . S
O65 Mg56 2.114 . S
O65 C68 1.252 . S
O66 Mg56 2.251 . S
O66 Mg59 2.079 . S
O66 C68 1.273 . S
C67 O63 1.246 . S
C67 O64 1.259 . S
C68 O65 1.252 . S
C68 O66 1.273 . S
O69 Mg56 2.010 . S
O69 C61 1.249 1_545 S
Mg70 O71 2.028 1_655 S
Mg70 O77 1.986 . S
Mg70 O79 2.114 . S
Mg70 O80 2.251 . S
Mg70 O83 2.010 . S
O71 Mg70 2.028 1_455 S
O71 C74 1.250 . S
O72 Mg73 2.028 1_455 S
O72 C74 1.248 . S
Mg73 O72 2.028 1_655 S
Mg73 O78 2.032 . S
Mg73 O80 2.079 . S
C74 O71 1.250 . S
C74 O72 1.248 . S
C75 O76 1.264 1_455 S
C75 O83 1.249 1_455 S
O76 C75 1.264 1_655 S
O77 Mg70 1.986 . S
O77 C81 1.246 . S
O78 Mg73 2.032 . S
O78 C81 1.259 . S
O79 Mg70 2.114 . S
O79 C82 1.252 . S
O80 Mg70 2.251 . S
O80 Mg73 2.079 . S
O80 C82 1.273 . S
C81 O77 1.246 . S
C81 O78 1.259 . S
C82 O79 1.252 . S
C82 O80 1.273 . S
O83 Mg70 2.010 . S
O83 C75 1.249 1_655 S
Mg84 O85 2.028 . S
Mg84 O91 1.986 . S
Mg84 O93 2.114 . S
Mg84 O94 2.251 . S
Mg84 O97 2.010 . S
O85 Mg84 2.028 . S
O85 C88 1.250 . S
O86 Mg87 2.028 . S
O86 C88 1.248 . S
Mg87 O86 2.028 . S
Mg87 O92 2.032 . S
Mg87 O94 2.079 . S
C88 O85 1.250 . S
C88 O86 1.248 . S
C89 O90 1.264 . S
C89 O97 1.249 . S
O90 C89 1.264 . S
O91 Mg84 1.986 . S
O91 C95 1.246 . S
O92 Mg87 2.032 . S
O92 C95 1.259 . S
O93 Mg84 2.114 . S
O93 C96 1.252 . S
O94 Mg84 2.251 . S
O94 Mg87 2.079 . S
O94 C96 1.273 . S
C95 O91 1.246 . S
C95 O92 1.259 . S
C96 O93 1.252 . S
C96 O94 1.273 . S
O97 Mg84 2.010 . S
O97 C89 1.249 . S
Mg98 O99 2.028 . S
Mg98 O105 1.986 . S
Mg98 O107 2.114 . S
Mg98 O108 2.251 . S
Mg98 O111 2.010 . S
O99 Mg98 2.028 . S
O99 C102 1.250 . S
O100 Mg101 2.028 . S
O100 C102 1.248 . S
Mg101 O100 2.028 . S
Mg101 O106 2.032 . S
Mg101 O108 2.079 . S
C102 O99 1.250 . S
C102 O100 1.248 . S
C103 O104 1.264 . S
C103 O111 1.249 . S
O104 C103 1.264 . S
O105 Mg98 1.986 . S
O105 C109 1.246 . S
O106 Mg101 2.032 . S
O106 C109 1.259 . S
O107 Mg98 2.114 . S
O107 C110 1.252 . S
O108 Mg98 2.251 . S
O108 Mg101 2.079 . S
O108 C110 1.273 . S
C109 O105 1.246 . S
C109 O106 1.259 . S
C110 O107 1.252 . S
C110 O108 1.273 . S
O111 Mg98 2.010 . S
O111 C103 1.249 . S
Mg112 O113 2.028 . S
Mg112 O119 1.986 . S
Mg112 O121 2.114 . S
Mg112 O122 2.251 . S
Mg112 O125 2.010 . S
O113 Mg112 2.028 . S
O113 C116 1.250 . S
O114 Mg115 2.028 . S
O114 C116 1.248 . S
Mg115 O114 2.028 . S
Mg115 O120 2.032 . S
Mg115 O122 2.079 . S
C116 O113 1.250 . S
C116 O114 1.248 . S
C117 O118 1.264 . S
C117 O125 1.249 . S
O118 C117 1.264 . S
O119 Mg112 1.986 . S
O119 C123 1.246 . S
O120 Mg115 2.032 . S
O120 C123 1.259 . S
O121 Mg112 2.114 . S
O121 C124 1.252 . S
O122 Mg112 2.251 . S
O122 Mg115 2.079 . S
O122 C124 1.273 . S
C123 O119 1.246 . S
C123 O120 1.259 . S
C124 O121 1.252 . S
C124 O122 1.273 . S
O125 Mg112 2.010 . S
O125 C117 1.249 . S
Mg126 O127 2.028 . S
Mg126 O133 1.986 . S
Mg126 O135 2.114 . S
Mg126 O136 2.251 . S
Mg126 O139 2.010 . S
O127 Mg126 2.028 . S
O127 C130 1.250 . S
O128 Mg129 2.028 . S
O128 C130 1.248 . S
Mg129 O128 2.028 . S
Mg129 O134 2.032 . S
Mg129 O136 2.079 . S
C130 O127 1.250 . S
C130 O128 1.248 . S
C131 O132 1.264 . S
C131 O139 1.249 . S
O132 C131 1.264 . S
O133 Mg126 1.986 . S
O133 C137 1.246 . S
O134 Mg129 2.032 . S
O134 C137 1.259 . S
O135 Mg126 2.114 . S
O135 C138 1.252 . S
O136 Mg126 2.251 . S
O136 Mg129 2.079 . S
O136 C138 1.273 . S
C137 O133 1.246 . S
C137 O134 1.259 . S
C138 O135 1.252 . S
C138 O136 1.273 . S
O139 Mg126 2.010 . S
O139 C131 1.249 . S
Mg140 O141 2.028 . S
Mg140 O147 1.986 . S
Mg140 O149 2.114 . S
Mg140 O150 2.251 . S
Mg140 O153 2.010 . S
O141 Mg140 2.028 . S
O141 C144 1.250 . S
O142 Mg143 2.028 . S
O142 C144 1.248 . S
Mg143 O142 2.028 . S
Mg143 O148 2.032 . S
Mg143 O150 2.079 . S
C144 O141 1.250 . S
C144 O142 1.248 . S
C145 O146 1.264 . S
C145 O153 1.249 . S
O146 C145 1.264 . S
O147 Mg140 1.986 . S
O147 C151 1.246 . S
O148 Mg143 2.032 . S
O148 C151 1.259 . S
O149 Mg140 2.114 . S
O149 C152 1.252 . S
O150 Mg140 2.251 . S
O150 Mg143 2.079 . S
O150 C152 1.273 . S
C151 O147 1.246 . S
C151 O148 1.259 . S
C152 O149 1.252 . S
C152 O150 1.273 . S
O153 Mg140 2.010 . S
O153 C145 1.249 . S
Mg154 O155 2.028 . S
Mg154 O161 1.986 . S
Mg154 O163 2.114 . S
Mg154 O164 2.251 . S
Mg154 O167 2.010 . S
O155 Mg154 2.028 . S
O155 C158 1.250 . S
O156 Mg157 2.028 . S
O156 C158 1.248 . S
Mg157 O156 2.028 . S
Mg157 O162 2.032 . S
Mg157 O164 2.079 . S
C158 O155 1.250 . S
C158 O156 1.248 . S
C159 O160 1.264 . S
C159 O167 1.249 . S
O160 C159 1.264 . S
O161 Mg154 1.986 . S
O161 C165 1.246 . S
O162 Mg157 2.032 . S
O162 C165 1.259 . S
O163 Mg154 2.114 . S
O163 C166 1.252 . S
O164 Mg154 2.251 . S
O164 Mg157 2.079 . S
O164 C166 1.273 . S
C165 O161 1.246 . S
C165 O162 1.259 . S
C166 O163 1.252 . S
C166 O164 1.273 . S
O167 Mg154 2.010 . S
O167 C159 1.249 . S
Mg168 O169 2.028 . S
Mg168 O175 1.986 . S
Mg168 O177 2.114 . S
Mg168 O178 2.251 . S
Mg168 O181 2.010 . S
O169 Mg168 2.028 . S
O169 C172 1.250 . S
O170 Mg171 2.028 . S
O170 C172 1.248 . S
Mg171 O170 2.028 . S
Mg171 O176 2.032 . S
Mg171 O178 2.079 . S
C172 O169 1.250 . S
C172 O170 1.248 . S
C173 O174 1.264 . S
C173 O181 1.249 . S
O174 C173 1.264 . S
O175 Mg168 1.986 . S
O175 C179 1.246 . S
O176 Mg171 2.032 . S
O176 C179 1.259 . S
O177 Mg168 2.114 . S
O177 C180 1.252 . S
O178 Mg168 2.251 . S
O178 Mg171 2.079 . S
O178 C180 1.273 . S
C179 O175 1.246 . S
C179 O176 1.259 . S
C180 O177 1.252 . S
C180 O178 1.273 . S
O181 Mg168 2.010 . S
O181 C173 1.249 . S
Mg182 O183 2.028 . S
Mg182 O189 1.986 . S
Mg182 O191 2.114 . S
Mg182 O192 2.251 . S
Mg182 O195 2.010 . S
O183 Mg182 2.028 . S
O183 C186 1.250 . S
O184 Mg185 2.028 . S
O184 C186 1.248 . S
Mg185 O184 2.028 . S
Mg185 O190 2.032 . S
Mg185 O192 2.079 . S
C186 O183 1.250 . S
C186 O184 1.248 . S
C187 O188 1.264 . S
C187 O195 1.249 . S
O188 C187 1.264 . S
O189 Mg182 1.986 . S
O189 C193 1.246 . S
O190 Mg185 2.032 . S
O190 C193 1.259 . S
O191 Mg182 2.114 . S
O191 C194 1.252 . S
O192 Mg182 2.251 . S
O192 Mg185 2.079 . S
O192 C194 1.273 . S
C193 O189 1.246 . S
C193 O190 1.259 . S
C194 O191 1.252 . S
C194 O192 1.273 . S
O195 Mg182 2.010 . S
O195 C187 1.249 . S
Mg196 O197 2.028 . S
Mg196 O203 1.986 . S
Mg196 O205 2.114 . S
Mg196 O206 2.251 . S
Mg196 O209 2.010 . S
O197 Mg196 2.028 . S
O197 C200 1.250 . S
O198 Mg199 2.028 . S
O198 C200 1.248 . S
Mg199 O198 2.028 . S
Mg199 O204 2.032 . S
Mg199 O206 2.079 . S
C200 O197 1.250 . S
C200 O198 1.248 . S
C201 O202 1.264 . S
C201 O209 1.249 . S
O202 C201 1.264 . S
O203 Mg196 1.986 . S
O203 C207 1.246 . S
O204 Mg199 2.032 . S
O204 C207 1.259 . S
O205 Mg196 2.114 . S
O205 C208 1.252 . S
O206 Mg196 2.251 . S
O206 Mg199 2.079 . S
O206 C208 1.273 . S
C207 O203 1.246 . S
C207 O204 1.259 . S
C208 O205 1.252 . S
C208 O206 1.273 . S
O209 Mg196 2.010 . S
O209 C201 1.249 . S
Mg210 O211 2.028 . S
Mg210 O217 1.986 . S
Mg210 O219 2.114 . S
Mg210 O220 2.251 . S
Mg210 O223 2.010 . S
O211 Mg210 2.028 . S
O211 C214 1.250 . S
O212 Mg213 2.028 . S
O212 C214 1.248 . S
Mg213 O212 2.028 . S
Mg213 O218 2.032 . S
Mg213 O220 2.079 . S
C214 O211 1.250 . S
C214 O212 1.248 . S
C215 O216 1.264 . S
C215 O223 1.249 . S
O216 C215 1.264 . S
O217 Mg210 1.986 . S
O217 C221 1.246 . S
O218 Mg213 2.032 . S
O218 C221 1.259 . S
O219 Mg210 2.114 . S
O219 C222 1.252 . S
O220 Mg210 2.251 . S
O220 Mg213 2.079 . S
O220 C222 1.273 . S
C221 O217 1.246 . S
C221 O218 1.259 . S
C222 O219 1.252 . S
C222 O220 1.273 . S
O223 Mg210 2.010 . S
O223 C215 1.249 . S
Mg224 O225 2.028 . S
Mg224 O231 1.986 . S
Mg224 O233 2.114 . S
Mg224 O234 2.251 . S
Mg224 O237 2.010 . S
O225 Mg224 2.028 . S
O225 C228 1.250 . S
O226 Mg227 2.028 . S
O226 C228 1.248 . S
Mg227 O226 2.028 . S
Mg227 O232 2.032 . S
Mg227 O234 2.079 . S
C228 O225 1.250 . S
C228 O226 1.248 . S
C229 O230 1.264 . S
C229 O237 1.249 . S
O230 C229 1.264 . S
O231 Mg224 1.986 . S
O231 C235 1.246 . S
O232 Mg227 2.032 . S
O232 C235 1.259 . S
O233 Mg224 2.114 . S
O233 C236 1.252 . S
O234 Mg224 2.251 . S
O234 Mg227 2.079 . S
O234 C236 1.273 . S
C235 O231 1.246 . S
C235 O232 1.259 . S
C236 O233 1.252 . S
C236 O234 1.273 . S
O237 Mg224 2.010 . S
O237 C229 1.249 . S
Mg238 O239 2.028 . S
Mg238 O245 1.986 . S
Mg238 O247 2.114 . S
Mg238 O248 2.251 . S
Mg238 O251 2.010 . S
O239 Mg238 2.028 . S
O239 C242 1.250 . S
O240 Mg241 2.028 . S
O240 C242 1.248 . S
Mg241 O240 2.028 . S
Mg241 O246 2.032 . S
Mg241 O248 2.079 . S
C242 O239 1.250 . S
C242 O240 1.248 . S
C243 O244 1.264 . S
C243 O251 1.249 . S
O244 C243 1.264 . S
O245 Mg238 1.986 . S
O245 C249 1.246 . S
O246 Mg241 2.032 . S
O246 C249 1.259 . S
O247 Mg238 2.114 . S
O247 C250 1.252 . S
O248 Mg238 2.251 . S
O248 Mg241 2.079 . S
O248 C250 1.273 . S
C249 O245 1.246 . S
C249 O246 1.259 . S
C250 O247 1.252 . S
C250 O248 1.273 . S
O251 Mg238 2.010 . S
O251 C243 1.249 . S
H252 C260 0.950 . S
H253 C265 0.950 . S
H254 C262 0.950 . S
H255 C264 0.950 . S
H256 C266 0.950 . S
H257 C268 0.950 . S
H258 C270 0.950 . S
H259 C271 0.950 . S
C260 H252 0.950 . S
C260 C261 1.386 . S
C260 C262 1.391 . S
C261 C260 1.386 . S
C261 C265 1.393 . S
C262 H254 0.950 . S
C262 C260 1.391 . S
C262 C263 1.400 . S
C263 C262 1.400 . S
C263 C264 1.398 . S
C263 C269 1.491 . S
C264 H255 0.950 . S
C264 C263 1.398 . S
C264 C265 1.391 . S
C265 H253 0.950 . S
C265 C261 1.393 . S
C265 C264 1.391 . S
C266 H256 0.950 . S
C266 C267 1.386 . S
C266 C268 1.391 . S
C267 C266 1.386 . S
C267 C271 1.393 . S
C268 H257 0.950 . S
C268 C266 1.391 . S
C268 C269 1.400 . S
C269 C263 1.491 . S
C269 C268 1.400 . S
C269 C270 1.398 . S
C270 H258 0.950 . S
C270 C269 1.398 . S
C270 C271 1.391 . S
C271 H259 0.950 . S
C271 C267 1.393 . S
C271 C270 1.391 . S
H272 C280 0.946 . S
H273 C285 0.950 . S
H274 C282 0.950 1_565 S
H275 C284 0.950 . S
H276 C286 0.950 . S
H277 C288 0.950 . S
H278 C290 0.950 . S
H279 C291 0.950 . S
C280 H272 0.946 . S
C280 C281 1.387 1_565 S
C280 C282 1.393 1_565 S
C281 C280 1.387 1_545 S
C281 C285 1.393 . S
C282 H274 0.950 1_545 S
C282 C280 1.393 1_545 S
C282 C283 1.400 . S
C283 C282 1.400 . S
C283 C284 1.398 . S
C283 C289 1.491 . S
C284 H275 0.950 . S
C284 C283 1.398 . S
C284 C285 1.391 . S
C285 H273 0.950 . S
C285 C281 1.393 . S
C285 C284 1.391 . S
C286 H276 0.950 . S
C286 C287 1.386 . S
C286 C288 1.391 . S
C287 C286 1.386 . S
C287 C291 1.393 . S
C288 H277 0.950 . S
C288 C286 1.391 . S
C288 C289 1.400 . S
C289 C283 1.491 . S
C289 C288 1.400 . S
C289 C290 1.398 . S
C290 H278 0.950 . S
C290 C289 1.398 . S
C290 C291 1.391 . S
C291 H279 0.950 . S
C291 C287 1.393 . S
C291 C290 1.391 . S
H292 C300 0.950 . S
H293 C305 0.950 . S
H294 C302 0.950 . S
H295 C304 0.950 . S
H296 C306 0.934 1_455 S
H297 C308 0.950 1_455 S
H298 C310 0.950 . S
H299 C311 0.950 . S
C300 H292 0.950 . S
C300 C301 1.386 . S
C300 C302 1.391 . S
C301 C300 1.386 . S
C301 C305 1.393 . S
C302 H294 0.950 . S
C302 C300 1.391 . S
C302 C303 1.400 . S
C303 C302 1.400 . S
C303 C304 1.398 . S
C303 C309 1.491 . S
C304 H295 0.950 . S
C304 C303 1.398 . S
C304 C305 1.391 . S
C305 H293 0.950 . S
C305 C301 1.393 . S
C305 C304 1.391 . S
C306 H296 0.934 1_655 S
C306 C307 1.402 . S
C306 C308 1.390 . S
C307 C306 1.402 . S
C307 C311 1.393 . S
C308 H297 0.950 1_655 S
C308 C306 1.390 . S
C308 C309 1.400 . S
C309 C303 1.491 . S
C309 C308 1.400 . S
C309 C310 1.398 . S
C310 H298 0.950 . S
C310 C309 1.398 . S
C310 C311 1.391 . S
C311 H299 0.950 . S
C311 C307 1.393 . S
C311 C310 1.391 . S
H312 C320 0.950 . S
H313 C325 0.950 . S
H314 C322 0.950 . S
H315 C324 0.950 . S
H316 C326 0.950 . S
H317 C328 0.950 . S
H318 C330 0.950 . S
H319 C331 0.950 . S
C320 H312 0.950 . S
C320 C321 1.386 . S
C320 C322 1.391 . S
C321 C320 1.386 . S
C321 C325 1.393 . S
C322 H314 0.950 . S
C322 C320 1.391 . S
C322 C323 1.400 . S
C323 C322 1.400 . S
C323 C324 1.398 . S
C323 C329 1.491 . S
C324 H315 0.950 . S
C324 C323 1.398 . S
C324 C325 1.391 . S
C325 H313 0.950 . S
C325 C321 1.393 . S
C325 C324 1.391 . S
C326 H316 0.950 . S
C326 C327 1.386 . S
C326 C328 1.391 . S
C327 C326 1.386 . S
C327 C331 1.393 . S
C328 H317 0.950 . S
C328 C326 1.391 . S
C328 C329 1.400 . S
C329 C323 1.491 . S
C329 C328 1.400 . S
C329 C330 1.398 . S
C330 H318 0.950 . S
C330 C329 1.398 . S
C330 C331 1.391 . S
C331 H319 0.950 . S
C331 C327 1.393 . S
C331 C330 1.391 . S
H332 C340 0.950 . S
H333 C345 0.950 . S
H334 C342 0.950 . S
H335 C344 0.950 . S
H336 C346 0.950 . S
H337 C348 0.950 . S
H338 C350 0.950 . S
H339 C351 0.950 . S
C340 H332 0.950 . S
C340 C341 1.386 . S
C340 C342 1.391 . S
C341 C340 1.386 . S
C341 C345 1.393 . S
C342 H334 0.950 . S
C342 C340 1.391 . S
C342 C343 1.400 . S
C343 C342 1.400 . S
C343 C344 1.398 . S
C343 C349 1.491 . S
C344 H335 0.950 . S
C344 C343 1.398 . S
C344 C345 1.391 . S
C345 H333 0.950 . S
C345 C341 1.393 . S
C345 C344 1.391 . S
C346 H336 0.950 . S
C346 C347 1.386 . S
C346 C348 1.391 . S
C347 C346 1.386 . S
C347 C351 1.393 . S
C348 H337 0.950 . S
C348 C346 1.391 . S
C348 C349 1.400 . S
C349 C343 1.491 . S
C349 C348 1.400 . S
C349 C350 1.398 . S
C350 H338 0.950 . S
C350 C349 1.398 . S
C350 C351 1.391 . S
C351 H339 0.950 . S
C351 C347 1.393 . S
C351 C350 1.391 . S
H352 C360 0.950 . S
H353 C365 0.950 . S
H354 C362 0.950 . S
H355 C364 0.950 . S
H356 C366 0.950 . S
H357 C368 0.950 . S
H358 C370 0.950 1_655 S
H359 C371 0.950 . S
C360 H352 0.950 . S
C360 C361 1.386 . S
C360 C362 1.391 . S
C361 C360 1.386 . S
C361 C365 1.393 . S
C362 H354 0.950 . S
C362 C360 1.391 . S
C362 C363 1.400 . S
C363 C362 1.400 . S
C363 C364 1.398 . S
C363 C369 1.491 . S
C364 H355 0.950 . S
C364 C363 1.398 . S
C364 C365 1.391 . S
C365 H353 0.950 . S
C365 C361 1.393 . S
C365 C364 1.391 . S
C366 H356 0.950 . S
C366 C367 1.386 . S
C366 C368 1.391 . S
C367 C366 1.386 . S
C367 C371 1.393 1_455 S
C368 H357 0.950 . S
C368 C366 1.391 . S
C368 C369 1.400 . S
C369 C363 1.491 . S
C369 C368 1.400 . S
C369 C370 1.398 . S
C370 H358 0.950 1_455 S
C370 C369 1.398 . S
C370 C371 1.391 1_455 S
C371 H359 0.950 . S
C371 C367 1.393 1_655 S
C371 C370 1.391 1_655 S
H372 C380 0.950 . S
H373 C385 0.950 . S
H374 C382 0.950 1_455 S
H375 C384 0.950 . S
H376 C386 0.950 . S
H377 C388 0.950 1_655 S
H378 C390 0.950 . S
H379 C391 0.950 . S
C380 H372 0.950 . S
C380 C381 1.386 . S
C380 C382 1.391 . S
C381 C380 1.386 . S
C381 C385 1.393 . S
C382 H374 0.950 1_655 S
C382 C380 1.391 . S
C382 C383 1.400 . S
C383 C382 1.400 . S
C383 C384 1.398 . S
C383 C389 1.491 1_655 S
C384 H375 0.950 . S
C384 C383 1.398 . S
C384 C385 1.391 . S
C385 H373 0.950 . S
C385 C381 1.393 . S
C385 C384 1.391 . S
C386 H376 0.950 . S
C386 C387 1.386 . S
C386 C388 1.391 . S
C387 C386 1.386 . S
C387 C391 1.393 . S
C388 H377 0.950 1_455 S
C388 C386 1.391 . S
C388 C389 1.400 . S
C389 C383 1.491 1_455 S
C389 C388 1.400 . S
C389 C390 1.398 . S
C390 H378 0.950 . S
C390 C389 1.398 . S
C390 C391 1.391 . S
C391 H379 0.950 . S
C391 C387 1.393 . S
C391 C390 1.391 . S
H392 C400 0.950 . S
H393 C405 0.950 . S
H394 C402 0.950 . S
H395 C404 0.950 . S
H396 C406 0.950 . S
H397 C408 0.950 . S
H398 C410 0.950 . S
H399 C411 0.950 . S
C400 H392 0.950 . S
C400 C401 1.386 . S
C400 C402 1.391 . S
C401 C400 1.386 . S
C401 C405 1.393 . S
C402 H394 0.950 . S
C402 C400 1.391 . S
C402 C403 1.400 . S
C403 C402 1.400 . S
C403 C404 1.398 . S
C403 C409 1.491 . S
C404 H395 0.950 . S
C404 C403 1.398 . S
C404 C405 1.391 . S
C405 H393 0.950 . S
C405 C401 1.393 . S
C405 C404 1.391 . S
C406 H396 0.950 . S
C406 C407 1.386 . S
C406 C408 1.391 . S
C407 C406 1.386 . S
C407 C411 1.393 . S
C408 H397 0.950 . S
C408 C406 1.391 . S
C408 C409 1.400 . S
C409 C403 1.491 . S
C409 C408 1.400 . S
C409 C410 1.398 . S
C410 H398 0.950 . S
C410 C409 1.398 . S
C410 C411 1.391 . S
C411 H399 0.950 . S
C411 C407 1.393 . S
C411 C410 1.391 . S
H412 C420 0.950 . S
H413 C425 0.950 . S
H414 C422 0.950 1_565 S
H415 C424 0.950 . S
H416 C426 0.950 . S
H417 C428 0.950 . S
H418 C430 0.950 . S
H419 C431 0.950 . S
C420 H412 0.950 . S
C420 C421 1.386 . S
C420 C422 1.391 . S
C421 C420 1.386 . S
C421 C425 1.393 . S
C422 H414 0.950 1_545 S
C422 C420 1.391 . S
C422 C423 1.400 . S
C423 C422 1.400 . S
C423 C424 1.398 . S
C423 C429 1.491 1_545 S
C424 H415 0.950 . S
C424 C423 1.398 . S
C424 C425 1.391 . S
C425 H413 0.950 . S
C425 C421 1.393 . S
C425 C424 1.391 . S
C426 H416 0.950 . S
C426 C427 1.386 . S
C426 C428 1.391 . S
C427 C426 1.386 . S
C427 C431 1.393 . S
C428 H417 0.950 . S
C428 C426 1.391 . S
C428 C429 1.400 . S
C429 C423 1.491 1_565 S
C429 C428 1.400 . S
C429 C430 1.398 . S
C430 H418 0.950 . S
C430 C429 1.398 . S
C430 C431 1.391 . S
C431 H419 0.950 . S
C431 C427 1.393 . S
C431 C430 1.391 . S
H432 C440 0.950 . S
H433 C445 0.950 . S
H434 C442 0.950 . S
H435 C444 0.950 . S
H436 C446 0.950 . S
H437 C448 0.950 . S
H438 C450 0.950 . S
H439 C451 0.950 . S
C440 H432 0.950 . S
C440 C441 1.386 . S
C440 C442 1.391 . S
C441 C440 1.386 . S
C441 C445 1.393 . S
C442 H434 0.950 . S
C442 C440 1.391 . S
C442 C443 1.400 . S
C443 C442 1.400 . S
C443 C444 1.398 . S
C443 C449 1.491 1_455 S
C444 H435 0.950 . S
C444 C443 1.398 . S
C444 C445 1.391 . S
C445 H433 0.950 . S
C445 C441 1.393 . S
C445 C444 1.391 . S
C446 H436 0.950 . S
C446 C447 1.386 . S
C446 C448 1.391 . S
C447 C446 1.386 . S
C447 C451 1.393 . S
C448 H437 0.950 . S
C448 C446 1.391 . S
C448 C449 1.400 . S
C449 C443 1.491 1_655 S
C449 C448 1.400 . S
C449 C450 1.398 . S
C450 H438 0.950 . S
C450 C449 1.398 . S
C450 C451 1.391 . S
C451 H439 0.950 . S
C451 C447 1.393 . S
C451 C450 1.391 . S
H452 C460 0.950 . S
H453 C465 0.950 . S
H454 C462 0.950 . S
H455 C464 0.950 . S
H456 C466 0.950 . S
H457 C468 0.950 . S
H458 C470 0.950 . S
H459 C471 0.950 . S
C460 H452 0.950 . S
C460 C461 1.386 . S
C460 C462 1.391 . S
C461 C460 1.386 . S
C461 C465 1.393 . S
C462 H454 0.950 . S
C462 C460 1.391 . S
C462 C463 1.400 . S
C463 C462 1.400 . S
C463 C464 1.398 . S
C463 C469 1.491 . S
C464 H455 0.950 . S
C464 C463 1.398 . S
C464 C465 1.391 . S
C465 H453 0.950 . S
C465 C461 1.393 . S
C465 C464 1.391 . S
C466 H456 0.950 . S
C466 C467 1.386 . S
C466 C468 1.391 . S
C467 C466 1.386 . S
C467 C471 1.393 . S
C468 H457 0.950 . S
C468 C466 1.391 . S
C468 C469 1.400 . S
C469 C463 1.491 . S
C469 C468 1.400 . S
C469 C470 1.398 . S
C470 H458 0.950 . S
C470 C469 1.398 . S
C470 C471 1.391 . S
C471 H459 0.950 . S
C471 C467 1.393 . S
C471 C470 1.391 . S
H472 C480 0.950 . S
H473 C485 0.950 . S
H474 C482 0.950 . S
H475 C484 0.950 . S
H476 C486 0.950 . S
H477 C488 0.950 . S
H478 C490 0.950 . S
H479 C491 0.950 . S
C480 H472 0.950 . S
C480 C481 1.386 . S
C480 C482 1.391 . S
C481 C480 1.386 . S
C481 C485 1.393 . S
C482 H474 0.950 . S
C482 C480 1.391 . S
C482 C483 1.400 . S
C483 C482 1.400 . S
C483 C484 1.398 . S
C483 C489 1.491 1_545 S
C484 H475 0.950 . S
C484 C483 1.398 . S
C484 C485 1.391 . S
C485 H473 0.950 . S
C485 C481 1.393 . S
C485 C484 1.391 . S
C486 H476 0.950 . S
C486 C487 1.386 . S
C486 C488 1.391 . S
C487 C486 1.386 . S
C487 C491 1.393 . S
C488 H477 0.950 . S
C488 C486 1.391 . S
C488 C489 1.400 . S
C489 C483 1.491 1_565 S
C489 C488 1.400 . S
C489 C490 1.398 . S
C490 H478 0.950 . S
C490 C489 1.398 . S
C490 C491 1.391 . S
C491 H479 0.950 . S
C491 C487 1.393 . S
C491 C490 1.391 . S
H492 C500 0.950 . S
H493 C505 0.950 . S
H494 C502 0.950 . S
H495 C504 0.950 . S
H496 C506 0.950 . S
H497 C508 0.950 . S
H498 C510 0.950 . S
H499 C511 0.950 . S
C500 H492 0.950 . S
C500 C501 1.386 . S
C500 C502 1.391 . S
C501 C500 1.386 . S
C501 C505 1.393 . S
C502 H494 0.950 . S
C502 C500 1.391 . S
C502 C503 1.400 . S
C503 C502 1.400 . S
C503 C504 1.398 . S
C503 C509 1.491 1_565 S
C504 H495 0.950 . S
C504 C503 1.398 . S
C504 C505 1.391 . S
C505 H493 0.950 . S
C505 C501 1.393 . S
C505 C504 1.391 . S
C506 H496 0.950 . S
C506 C507 1.386 . S
C506 C508 1.391 . S
C507 C506 1.386 . S
C507 C511 1.393 . S
C508 H497 0.950 . S
C508 C506 1.391 . S
C508 C509 1.400 . S
C509 C503 1.491 1_545 S
C509 C508 1.400 . S
C509 C510 1.398 . S
C510 H498 0.950 . S
C510 C509 1.398 . S
C510 C511 1.391 . S
C511 H499 0.950 . S
C511 C507 1.393 . S
C511 C510 1.391 . S
H512 C520 0.950 . S
H513 C525 0.950 . S
H514 C522 0.950 . S
H515 C524 0.950 . S
H516 C526 0.950 . S
H517 C528 0.950 . S
H518 C530 0.950 . S
H519 C531 0.950 . S
C520 H512 0.950 . S
C520 C521 1.386 . S
C520 C522 1.391 . S
C521 C520 1.386 . S
C521 C525 1.393 . S
C522 H514 0.950 . S
C522 C520 1.391 . S
C522 C523 1.400 . S
C523 C522 1.400 . S
C523 C524 1.398 . S
C523 C529 1.491 1_455 S
C524 H515 0.950 . S
C524 C523 1.398 . S
C524 C525 1.391 . S
C525 H513 0.950 . S
C525 C521 1.393 . S
C525 C524 1.391 . S
C526 H516 0.950 . S
C526 C527 1.386 . S
C526 C528 1.391 . S
C527 C526 1.386 . S
C527 C531 1.393 . S
C528 H517 0.950 . S
C528 C526 1.391 . S
C528 C529 1.400 . S
C529 C523 1.491 1_655 S
C529 C528 1.400 . S
C529 C530 1.398 . S
C530 H518 0.950 . S
C530 C529 1.398 . S
C530 C531 1.391 . S
C531 H519 0.950 . S
C531 C527 1.393 . S
C531 C530 1.391 . S
H532 C540 0.950 . S
H533 C545 0.950 . S
H534 C542 0.950 . S
H535 C544 0.950 . S
H536 C546 0.950 . S
H537 C548 0.950 . S
H538 C550 0.950 . S
H539 C551 0.950 . S
C540 H532 0.950 . S
C540 C541 1.386 . S
C540 C542 1.391 . S
C541 C540 1.386 . S
C541 C545 1.393 . S
C542 H534 0.950 . S
C542 C540 1.391 . S
C542 C543 1.400 . S
C543 C542 1.400 . S
C543 C544 1.398 . S
C543 C549 1.491 . S
C544 H535 0.950 . S
C544 C543 1.398 . S
C544 C545 1.391 . S
C545 H533 0.950 . S
C545 C541 1.393 . S
C545 C544 1.391 . S
C546 H536 0.950 . S
C546 C547 1.386 . S
C546 C548 1.391 . S
C547 C546 1.386 . S
C547 C551 1.393 . S
C548 H537 0.950 . S
C548 C546 1.391 . S
C548 C549 1.400 . S
C549 C543 1.491 . S
C549 C548 1.400 . S
C549 C550 1.398 . S
C550 H538 0.950 . S
C550 C549 1.398 . S
C550 C551 1.391 . S
C551 H539 0.950 . S
C551 C547 1.393 . S
C551 C550 1.391 . S
H552 C560 0.950 . S
H553 C565 0.950 . S
H554 C562 0.950 . S
H555 C564 0.950 . S
H556 C566 0.950 . S
H557 C568 0.950 . S
H558 C570 0.950 . S
H559 C571 0.950 . S
C560 H552 0.950 . S
C560 C561 1.386 . S
C560 C562 1.391 . S
C561 C560 1.386 . S
C561 C565 1.393 . S
C562 H554 0.950 . S
C562 C560 1.391 . S
C562 C563 1.400 . S
C563 C562 1.400 . S
C563 C564 1.398 . S
C563 C569 1.491 . S
C564 H555 0.950 . S
C564 C563 1.398 . S
C564 C565 1.391 . S
C565 H553 0.950 . S
C565 C561 1.393 . S
C565 C564 1.391 . S
C566 H556 0.950 . S
C566 C567 1.386 . S
C566 C568 1.391 . S
C567 C566 1.386 . S
C567 C571 1.393 . S
C568 H557 0.950 . S
C568 C566 1.391 . S
C568 C569 1.400 . S
C569 C563 1.491 . S
C569 C568 1.400 . S
C569 C570 1.398 . S
C570 H558 0.950 . S
C570 C569 1.398 . S
C570 C571 1.391 . S
C571 H559 0.950 . S
C571 C567 1.393 . S
C571 C570 1.391 . S
H572 C580 0.950 . S
H573 C585 0.950 . S
H574 C582 0.950 . S
H575 C584 0.950 . S
H576 C586 0.950 . S
H577 C588 0.950 . S
H578 C590 0.950 . S
H579 C591 0.950 . S
C580 H572 0.950 . S
C580 C581 1.386 . S
C580 C582 1.391 . S
C581 C580 1.386 . S
C581 C585 1.393 . S
C582 H574 0.950 . S
C582 C580 1.391 . S
C582 C583 1.400 . S
C583 C582 1.400 . S
C583 C584 1.398 . S
C583 C589 1.491 . S
C584 H575 0.950 . S
C584 C583 1.398 . S
C584 C585 1.391 . S
C585 H573 0.950 . S
C585 C581 1.393 . S
C585 C584 1.391 . S
C586 H576 0.950 . S
C586 C587 1.386 . S
C586 C588 1.391 . S
C587 C586 1.386 . S
C587 C591 1.393 . S
C588 H577 0.950 . S
C588 C586 1.391 . S
C588 C589 1.400 . S
C589 C583 1.491 . S
C589 C588 1.400 . S
C589 C590 1.398 . S
C590 H578 0.950 . S
C590 C589 1.398 . S
C590 C591 1.391 . S
C591 H579 0.950 . S
C591 C587 1.393 . S
C591 C590 1.391 . S
H592 C600 0.950 . S
H593 C605 0.950 . S
H594 C602 0.950 . S
H595 C604 0.950 . S
H596 C606 0.950 . S
H597 C608 0.950 . S
H598 C610 0.950 . S
H599 C611 0.950 . S
C600 H592 0.950 . S
C600 C601 1.386 . S
C600 C602 1.391 . S
C601 C600 1.386 . S
C601 C605 1.393 . S
C602 H594 0.950 . S
C602 C600 1.391 . S
C602 C603 1.400 . S
C603 C602 1.400 . S
C603 C604 1.398 . S
C603 C609 1.491 . S
C604 H595 0.950 . S
C604 C603 1.398 . S
C604 C605 1.391 . S
C605 H593 0.950 . S
C605 C601 1.393 . S
C605 C604 1.391 . S
C606 H596 0.950 . S
C606 C607 1.386 . S
C606 C608 1.391 . S
C607 C606 1.386 . S
C607 C611 1.393 . S
C608 H597 0.950 . S
C608 C606 1.391 . S
C608 C609 1.400 . S
C609 C603 1.491 . S
C609 C608 1.400 . S
C609 C610 1.398 . S
C610 H598 0.950 . S
C610 C609 1.398 . S
C610 C611 1.391 . S
C611 H599 0.950 . S
C611 C607 1.393 . S
C611 C610 1.391 . S
H612 C620 0.950 . S
H613 C625 0.950 . S
H614 C622 0.950 . S
H615 C624 0.950 . S
H616 C626 0.950 . S
H617 C628 0.950 . S
H618 C630 0.950 . S
H619 C631 0.950 . S
C620 H612 0.950 . S
C620 C621 1.386 . S
C620 C622 1.391 . S
C621 C620 1.386 . S
C621 C625 1.393 . S
C622 H614 0.950 . S
C622 C620 1.391 . S
C622 C623 1.400 . S
C623 C622 1.400 . S
C623 C624 1.398 . S
C623 C629 1.491 . S
C624 H615 0.950 . S
C624 C623 1.398 . S
C624 C625 1.391 . S
C625 H613 0.950 . S
C625 C621 1.393 . S
C625 C624 1.391 . S
C626 H616 0.950 . S
C626 C627 1.386 . S
C626 C628 1.391 . S
C627 C626 1.386 . S
C627 C631 1.393 . S
C628 H617 0.950 . S
C628 C626 1.391 . S
C628 C629 1.400 . S
C629 C623 1.491 . S
C629 C628 1.400 . S
C629 C630 1.398 . S
C630 H618 0.950 . S
C630 C629 1.398 . S
C630 C631 1.391 . S
C631 H619 0.950 . S
C631 C627 1.393 . S
C631 C630 1.391 . S
H632 C640 0.950 . S
H633 C645 0.950 . S
H634 C642 0.950 . S
H635 C644 0.950 . S
H636 C646 0.950 . S
H637 C648 0.950 . S
H638 C650 0.950 . S
H639 C651 0.950 . S
C640 H632 0.950 . S
C640 C641 1.386 . S
C640 C642 1.391 . S
C641 C640 1.386 . S
C641 C645 1.393 . S
C642 H634 0.950 . S
C642 C640 1.391 . S
C642 C643 1.400 . S
C643 C642 1.400 . S
C643 C644 1.398 . S
C643 C649 1.491 . S
C644 H635 0.950 . S
C644 C643 1.398 . S
C644 C645 1.391 . S
C645 H633 0.950 . S
C645 C641 1.393 . S
C645 C644 1.391 . S
C646 H636 0.950 . S
C646 C647 1.386 . S
C646 C648 1.391 . S
C647 C646 1.386 . S
C647 C651 1.393 . S
C648 H637 0.950 . S
C648 C646 1.391 . S
C648 C649 1.400 . S
C649 C643 1.491 . S
C649 C648 1.400 . S
C649 C650 1.398 . S
C650 H638 0.950 . S
C650 C649 1.398 . S
C650 C651 1.391 . S
C651 H639 0.950 . S
C651 C647 1.393 . S
C651 C650 1.391 . S
H652 C660 0.950 . S
H653 C665 0.950 . S
H654 C662 0.950 . S
H655 C664 0.950 . S
H656 C666 0.950 . S
H657 C668 0.950 . S
H658 C670 0.950 . S
H659 C671 0.950 . S
C660 H652 0.950 . S
C660 C661 1.386 . S
C660 C662 1.391 . S
C661 C660 1.386 . S
C661 C665 1.393 . S
C662 H654 0.950 . S
C662 C660 1.391 . S
C662 C663 1.400 . S
C663 C662 1.400 . S
C663 C664 1.398 . S
C663 C669 1.491 . S
C664 H655 0.950 . S
C664 C663 1.398 . S
C664 C665 1.391 . S
C665 H653 0.950 . S
C665 C661 1.393 . S
C665 C664 1.391 . S
C666 H656 0.950 . S
C666 C667 1.386 . S
C666 C668 1.391 . S
C667 C666 1.386 . S
C667 C671 1.393 . S
C668 H657 0.950 . S
C668 C666 1.391 . S
C668 C669 1.400 . S
C669 C663 1.491 . S
C669 C668 1.400 . S
C669 C670 1.398 . S
C670 H658 0.950 . S
C670 C669 1.398 . S
C670 C671 1.391 . S
C671 H659 0.950 . S
C671 C667 1.393 . S
C671 C670 1.391 . S
H672 C680 0.950 . S
H673 C685 0.950 . S
H674 C682 0.950 . S
H675 C684 0.950 . S
H676 C686 0.950 . S
H677 C688 0.950 . S
H678 C690 0.950 . S
H679 C691 0.950 . S
C680 H672 0.950 . S
C680 C681 1.386 . S
C680 C682 1.391 . S
C681 C680 1.386 . S
C681 C685 1.393 . S
C682 H674 0.950 . S
C682 C680 1.391 . S
C682 C683 1.400 . S
C683 C682 1.400 . S
C683 C684 1.398 . S
C683 C689 1.491 . S
C684 H675 0.950 . S
C684 C683 1.398 . S
C684 C685 1.391 . S
C685 H673 0.950 . S
C685 C681 1.393 . S
C685 C684 1.391 . S
C686 H676 0.950 . S
C686 C687 1.386 . S
C686 C688 1.391 . S
C687 C686 1.386 . S
C687 C691 1.393 . S
C688 H677 0.950 . S
C688 C686 1.391 . S
C688 C689 1.400 . S
C689 C683 1.491 . S
C689 C688 1.400 . S
C689 C690 1.398 . S
C690 H678 0.950 . S
C690 C689 1.398 . S
C690 C691 1.391 . S
C691 H679 0.950 . S
C691 C687 1.393 . S
C691 C690 1.391 . S
H692 C700 0.950 . S
H693 C705 0.950 . S
H694 C702 0.950 . S
H695 C704 0.950 . S
H696 C706 0.950 . S
H697 C708 0.950 . S
H698 C710 0.950 . S
H699 C711 0.950 . S
C700 H692 0.950 . S
C700 C701 1.386 . S
C700 C702 1.391 . S
C701 C700 1.386 . S
C701 C705 1.393 . S
C702 H694 0.950 . S
C702 C700 1.391 . S
C702 C703 1.400 . S
C703 C702 1.400 . S
C703 C704 1.398 . S
C703 C709 1.491 . S
C704 H695 0.950 . S
C704 C703 1.398 . S
C704 C705 1.391 . S
C705 H693 0.950 . S
C705 C701 1.393 . S
C705 C704 1.391 . S
C706 H696 0.950 . S
C706 C707 1.386 . S
C706 C708 1.391 . S
C707 C706 1.386 . S
C707 C711 1.393 . S
C708 H697 0.950 . S
C708 C706 1.391 . S
C708 C709 1.400 . S
C709 C703 1.491 . S
C709 C708 1.400 . S
C709 C710 1.398 . S
C710 H698 0.950 . S
C710 C709 1.398 . S
C710 C711 1.391 . S
C711 H699 0.950 . S
C711 C707 1.393 . S
C711 C710 1.391 . S
H712 C720 0.950 . S
H713 C725 0.950 . S
H714 C722 0.950 . S
H715 C724 0.950 . S
H716 C726 0.950 . S
H717 C728 0.950 . S
H718 C730 0.950 . S
H719 C731 0.950 . S
C720 H712 0.950 . S
C720 C721 1.386 . S
C720 C722 1.391 . S
C721 C720 1.386 . S
C721 C725 1.393 . S
C722 H714 0.950 . S
C722 C720 1.391 . S
C722 C723 1.400 . S
C723 C722 1.400 . S
C723 C724 1.398 . S
C723 C729 1.491 . S
C724 H715 0.950 . S
C724 C723 1.398 . S
C724 C725 1.391 . S
C725 H713 0.950 . S
C725 C721 1.393 . S
C725 C724 1.391 . S
C726 H716 0.950 . S
C726 C727 1.386 . S
C726 C728 1.391 . S
C727 C726 1.386 . S
C727 C731 1.393 . S
C728 H717 0.950 . S
C728 C726 1.391 . S
C728 C729 1.400 . S
C729 C723 1.491 . S
C729 C728 1.400 . S
C729 C730 1.398 . S
C730 H718 0.950 . S
C730 C729 1.398 . S
C730 C731 1.391 . S
C731 H719 0.950 . S
C731 C727 1.393 . S
C731 C730 1.391 . S
H732 C740 0.950 . S
H733 C745 0.950 . S
H734 C742 0.950 . S
H735 C744 0.950 . S
H736 C746 0.950 . S
H737 C748 0.950 . S
H738 C750 0.950 . S
H739 C751 0.950 . S
C740 H732 0.950 . S
C740 C741 1.386 . S
C740 C742 1.391 . S
C741 C740 1.386 . S
C741 C745 1.393 . S
C742 H734 0.950 . S
C742 C740 1.391 . S
C742 C743 1.400 . S
C743 C742 1.400 . S
C743 C744 1.398 . S
C743 C749 1.491 . S
C744 H735 0.950 . S
C744 C743 1.398 . S
C744 C745 1.391 . S
C745 H733 0.950 . S
C745 C741 1.393 . S
C745 C744 1.391 . S
C746 H736 0.950 . S
C746 C747 1.386 . S
C746 C748 1.391 . S
C747 C746 1.386 . S
C747 C751 1.393 . S
C748 H737 0.950 . S
C748 C746 1.391 . S
C748 C749 1.400 . S
C749 C743 1.491 . S
C749 C748 1.400 . S
C749 C750 1.398 . S
C750 H738 0.950 . S
C750 C749 1.398 . S
C750 C751 1.391 . S
C751 H739 0.950 . S
C751 C747 1.393 . S
C751 C750 1.391 . S
H752 C760 0.950 . S
H753 C765 0.950 . S
H754 C762 0.950 . S
H755 C764 0.950 . S
H756 C766 0.950 . S
H757 C768 0.950 . S
H758 C770 0.950 . S
H759 C771 0.950 . S
C760 H752 0.950 . S
C760 C761 1.386 . S
C760 C762 1.391 . S
C761 C760 1.386 . S
C761 C765 1.393 . S
C762 H754 0.950 . S
C762 C760 1.391 . S
C762 C763 1.400 . S
C763 C762 1.400 . S
C763 C764 1.398 . S
C763 C769 1.491 . S
C764 H755 0.950 . S
C764 C763 1.398 . S
C764 C765 1.391 . S
C765 H753 0.950 . S
C765 C761 1.393 . S
C765 C764 1.391 . S
C766 H756 0.950 . S
C766 C767 1.386 . S
C766 C768 1.391 . S
C767 C766 1.386 . S
C767 C771 1.393 . S
C768 H757 0.950 . S
C768 C766 1.391 . S
C768 C769 1.400 . S
C769 C763 1.491 . S
C769 C768 1.400 . S
C769 C770 1.398 . S
C770 H758 0.950 . S
C770 C769 1.398 . S
C770 C771 1.391 . S
C771 H759 0.950 . S
C771 C767 1.393 . S
C771 C770 1.391 . S
H772 C780 0.950 . S
H773 C785 0.950 . S
H774 C782 0.950 . S
H775 C784 0.950 . S
H776 C786 0.950 . S
H777 C788 0.950 . S
H778 C790 0.950 . S
H779 C791 0.950 . S
C780 H772 0.950 . S
C780 C781 1.386 . S
C780 C782 1.391 . S
C781 C780 1.386 . S
C781 C785 1.393 . S
C782 H774 0.950 . S
C782 C780 1.391 . S
C782 C783 1.400 . S
C783 C782 1.400 . S
C783 C784 1.398 . S
C783 C789 1.491 . S
C784 H775 0.950 . S
C784 C783 1.398 . S
C784 C785 1.391 . S
C785 H773 0.950 . S
C785 C781 1.393 . S
C785 C784 1.391 . S
C786 H776 0.950 . S
C786 C787 1.386 . S
C786 C788 1.391 . S
C787 C786 1.386 . S
C787 C791 1.393 . S
C788 H777 0.950 . S
C788 C786 1.391 . S
C788 C789 1.400 . S
C789 C783 1.491 . S
C789 C788 1.400 . S
C789 C790 1.398 . S
C790 H778 0.950 . S
C790 C789 1.398 . S
C790 C791 1.391 . S
C791 H779 0.950 . S
C791 C787 1.393 . S
C791 C790 1.391 . S
H792 C800 0.950 . S
H793 C805 0.950 . S
H794 C802 0.950 . S
H795 C804 0.950 . S
H796 C806 0.950 . S
H797 C808 0.950 . S
H798 C810 0.950 . S
H799 C811 0.950 . S
C800 H792 0.950 . S
C800 C801 1.386 . S
C800 C802 1.391 . S
C801 C800 1.386 . S
C801 C805 1.393 . S
C802 H794 0.950 . S
C802 C800 1.391 . S
C802 C803 1.400 . S
C803 C802 1.400 . S
C803 C804 1.398 . S
C803 C809 1.491 1_554 S
C804 H795 0.950 . S
C804 C803 1.398 . S
C804 C805 1.391 . S
C805 H793 0.950 . S
C805 C801 1.393 . S
C805 C804 1.391 . S
C806 H796 0.950 . S
C806 C807 1.386 . S
C806 C808 1.391 . S
C807 C806 1.386 . S
C807 C811 1.393 . S
C808 H797 0.950 . S
C808 C806 1.391 . S
C808 C809 1.400 . S
C809 C803 1.491 1_556 S
C809 C808 1.400 . S
C809 C810 1.398 . S
C810 H798 0.950 . S
C810 C809 1.398 . S
C810 C811 1.391 . S
C811 H799 0.950 . S
C811 C807 1.393 . S
C811 C810 1.391 . S
H812 C820 0.950 . S
H813 C825 0.950 . S
H814 C822 0.950 . S
H815 C824 0.950 . S
H816 C826 0.950 . S
H817 C828 0.950 . S
H818 C830 0.950 . S
H819 C831 0.950 . S
C820 H812 0.950 . S
C820 C821 1.386 . S
C820 C822 1.391 . S
C821 C820 1.386 . S
C821 C825 1.393 1_545 S
C822 H814 0.950 . S
C822 C820 1.391 . S
C822 C823 1.399 . S
C823 C822 1.399 . S
C823 C824 1.399 1_545 S
C823 C829 1.491 1_546 S
C824 H815 0.950 . S
C824 C823 1.399 1_565 S
C824 C825 1.391 . S
C825 H813 0.950 . S
C825 C821 1.393 1_565 S
C825 C824 1.391 . S
C826 H816 0.950 . S
C826 C827 1.386 . S
C826 C828 1.391 . S
C827 C826 1.386 . S
C827 C831 1.393 1_565 S
C828 H817 0.950 . S
C828 C826 1.391 . S
C828 C829 1.401 . S
C829 C823 1.491 1_564 S
C829 C828 1.401 . S
C829 C830 1.397 1_565 S
C830 H818 0.950 . S
C830 C829 1.397 1_545 S
C830 C831 1.391 . S
C831 H819 0.950 . S
C831 C827 1.393 1_545 S
C831 C830 1.391 . S
H832 C840 0.950 . S
H833 C845 0.950 . S
H834 C842 0.950 . S
H835 C844 0.950 . S
H836 C846 0.950 . S
H837 C848 0.950 . S
H838 C850 0.950 . S
H839 C851 0.950 . S
C840 H832 0.950 . S
C840 C841 1.386 1_455 S
C840 C842 1.391 . S
C841 C840 1.386 1_655 S
C841 C845 1.393 . S
C842 H834 0.950 . S
C842 C840 1.391 . S
C842 C843 1.402 . S
C843 C842 1.402 . S
C843 C844 1.396 1_455 S
C843 C849 1.491 1_556 S
C844 H835 0.950 . S
C844 C843 1.396 1_655 S
C844 C845 1.391 . S
C845 H833 0.950 . S
C845 C841 1.393 . S
C845 C844 1.391 . S
C846 H836 0.950 . S
C846 C847 1.386 1_655 S
C846 C848 1.391 . S
C847 C846 1.386 1_455 S
C847 C851 1.393 . S
C848 H837 0.950 . S
C848 C846 1.391 . S
C848 C849 1.399 1_655 S
C849 C843 1.491 1_554 S
C849 C848 1.399 1_455 S
C849 C850 1.400 . S
C850 H838 0.950 . S
C850 C849 1.400 . S
C850 C851 1.391 . S
C851 H839 0.950 . S
C851 C847 1.393 . S
C851 C850 1.391 . S
H852 C860 0.950 . S
H853 C865 0.950 . S
H854 C862 0.950 . S
H855 C864 0.950 . S
H856 C866 0.950 . S
H857 C868 0.950 . S
H858 C870 0.950 . S
H859 C871 0.950 . S
C860 H852 0.950 . S
C860 C861 1.386 . S
C860 C862 1.391 . S
C861 C860 1.386 . S
C861 C865 1.393 . S
C862 H854 0.950 . S
C862 C860 1.391 . S
C862 C863 1.400 . S
C863 C862 1.400 . S
C863 C864 1.398 . S
C863 C869 1.491 . S
C864 H855 0.950 . S
C864 C863 1.398 . S
C864 C865 1.391 . S
C865 H853 0.950 . S
C865 C861 1.393 . S
C865 C864 1.391 . S
C866 H856 0.950 . S
C866 C867 1.386 . S
C866 C868 1.391 . S
C867 C866 1.386 . S
C867 C871 1.393 . S
C868 H857 0.950 . S
C868 C866 1.391 . S
C868 C869 1.400 . S
C869 C863 1.491 . S
C869 C868 1.400 . S
C869 C870 1.398 . S
C870 H858 0.950 . S
C870 C869 1.398 . S
C870 C871 1.391 . S
C871 H859 0.950 . S
C871 C867 1.393 . S
C871 C870 1.391 . S
H872 C880 0.950 . S
H873 C885 0.950 . S
H874 C882 0.950 . S
H875 C884 0.950 . S
H876 C886 0.950 . S
H877 C888 0.950 . S
H878 C890 0.950 . S
H879 C891 0.950 . S
C880 H872 0.950 . S
C880 C881 1.386 . S
C880 C882 1.391 . S
C881 C880 1.386 . S
C881 C885 1.393 . S
C882 H874 0.950 . S
C882 C880 1.391 . S
C882 C883 1.400 . S
C883 C882 1.400 . S
C883 C884 1.398 . S
C883 C889 1.491 . S
C884 H875 0.950 . S
C884 C883 1.398 . S
C884 C885 1.391 . S
C885 H873 0.950 . S
C885 C881 1.393 . S
C885 C884 1.391 . S
C886 H876 0.950 . S
C886 C887 1.386 . S
C886 C888 1.391 . S
C887 C886 1.386 . S
C887 C891 1.393 . S
C888 H877 0.950 . S
C888 C886 1.391 . S
C888 C889 1.400 . S
C889 C883 1.491 . S
C889 C888 1.400 . S
C889 C890 1.398 . S
C890 H878 0.950 . S
C890 C889 1.398 . S
C890 C891 1.391 . S
C891 H879 0.950 . S
C891 C887 1.393 . S
C891 C890 1.391 . S
H892 C900 0.950 . S
H893 C905 0.950 . S
H894 C902 0.950 . S
H895 C904 0.950 . S
H896 C906 0.950 . S
H897 C908 0.950 . S
H898 C910 0.950 . S
H899 C911 0.950 . S
C900 H892 0.950 . S
C900 C901 1.386 . S
C900 C902 1.391 . S
C901 C900 1.386 . S
C901 C905 1.393 . S
C902 H894 0.950 . S
C902 C900 1.391 . S
C902 C903 1.400 . S
C903 C902 1.400 . S
C903 C904 1.398 . S
C903 C909 1.491 . S
C904 H895 0.950 . S
C904 C903 1.398 . S
C904 C905 1.391 . S
C905 H893 0.950 . S
C905 C901 1.393 . S
C905 C904 1.391 . S
C906 H896 0.950 . S
C906 C907 1.386 . S
C906 C908 1.391 . S
C907 C906 1.386 . S
C907 C911 1.393 . S
C908 H897 0.950 . S
C908 C906 1.391 . S
C908 C909 1.400 . S
C909 C903 1.491 . S
C909 C908 1.400 . S
C909 C910 1.398 . S
C910 H898 0.950 . S
C910 C909 1.398 . S
C910 C911 1.391 . S
C911 H899 0.950 . S
C911 C907 1.393 . S
C911 C910 1.391 . S
H912 C920 0.950 . S
H913 C925 0.950 . S
H914 C922 0.950 . S
H915 C924 0.950 . S
H916 C926 0.950 . S
H917 C928 0.950 . S
H918 C930 0.950 . S
H919 C931 0.950 . S
C920 H912 0.950 . S
C920 C921 1.386 . S
C920 C922 1.391 . S
C921 C920 1.386 . S
C921 C925 1.393 . S
C922 H914 0.950 . S
C922 C920 1.391 . S
C922 C923 1.400 . S
C923 C922 1.400 . S
C923 C924 1.398 . S
C923 C929 1.491 . S
C924 H915 0.950 . S
C924 C923 1.398 . S
C924 C925 1.391 . S
C925 H913 0.950 . S
C925 C921 1.393 . S
C925 C924 1.391 . S
C926 H916 0.950 . S
C926 C927 1.386 . S
C926 C928 1.391 . S
C927 C926 1.386 . S
C927 C931 1.393 . S
C928 H917 0.950 . S
C928 C926 1.391 . S
C928 C929 1.400 . S
C929 C923 1.491 . S
C929 C928 1.400 . S
C929 C930 1.398 . S
C930 H918 0.950 . S
C930 C929 1.398 . S
C930 C931 1.391 . S
C931 H919 0.950 . S
C931 C927 1.393 . S
C931 C930 1.391 . S
H932 C940 0.950 . S
H933 C945 0.950 . S
H934 C942 0.950 . S
H935 C944 0.950 . S
H936 C946 0.950 . S
H937 C948 0.950 . S
H938 C950 0.950 . S
H939 C951 0.950 . S
C940 H932 0.950 . S
C940 C941 1.386 . S
C940 C942 1.391 . S
C941 C940 1.386 . S
C941 C945 1.393 . S
C942 H934 0.950 . S
C942 C940 1.391 . S
C942 C943 1.400 . S
C943 C942 1.400 . S
C943 C944 1.398 . S
C943 C949 1.491 . S
C944 H935 0.950 . S
C944 C943 1.398 . S
C944 C945 1.391 . S
C945 H933 0.950 . S
C945 C941 1.393 . S
C945 C944 1.391 . S
C946 H936 0.950 . S
C946 C947 1.386 . S
C946 C948 1.391 . S
C947 C946 1.386 . S
C947 C951 1.393 . S
C948 H937 0.950 . S
C948 C946 1.391 . S
C948 C949 1.400 . S
C949 C943 1.491 . S
C949 C948 1.400 . S
C949 C950 1.398 . S
C950 H938 0.950 . S
C950 C949 1.398 . S
C950 C951 1.391 . S
C951 H939 0.950 . S
C951 C947 1.393 . S
C951 C950 1.391 . S
H952 C960 0.950 . S
H953 C965 0.950 . S
H954 C962 0.950 . S
H955 C964 0.950 . S
H956 C966 0.950 . S
H957 C968 0.950 . S
H958 C970 0.950 . S
H959 C971 0.950 . S
C960 H952 0.950 . S
C960 C961 1.386 . S
C960 C962 1.391 . S
C961 C960 1.386 . S
C961 C965 1.393 . S
C962 H954 0.950 . S
C962 C960 1.391 . S
C962 C963 1.400 . S
C963 C962 1.400 . S
C963 C964 1.398 . S
C963 C969 1.491 . S
C964 H955 0.950 . S
C964 C963 1.398 . S
C964 C965 1.391 . S
C965 H953 0.950 . S
C965 C961 1.393 . S
C965 C964 1.391 . S
C966 H956 0.950 . S
C966 C967 1.386 . S
C966 C968 1.391 . S
C967 C966 1.386 . S
C967 C971 1.393 . S
C968 H957 0.950 . S
C968 C966 1.391 . S
C968 C969 1.400 . S
C969 C963 1.491 . S
C969 C968 1.400 . S
C969 C970 1.398 . S
C970 H958 0.950 . S
C970 C969 1.398 . S
C970 C971 1.391 . S
C971 H959 0.950 . S
C971 C967 1.393 . S
C971 C970 1.391 . S
C261 C145 0.981 . S
C267 C5 0.995 . S
C281 C19 0.994 . S
C287 C159 0.968 . S
C301 C131 0.979 . S
C307 C33 0.948 . S
C321 C201 0.968 . S
C327 C47 1.026 . S
C341 C61 0.982 . S
C347 C173 0.957 . S
C361 C187 0.982 . S
C367 C75 0.979 . S
C381 C89 0.998 . S
C387 C229 1.050 . S
C401 C243 0.975 . S
C407 C103 1.018 . S
C421 C117 1.007 . S
C427 C215 1.050 . S
C441 C12 0.950 . S
C447 C18 0.928 . S
C461 C26 0.926 . S
C467 C32 0.958 . S
C481 C4 1.021 . S
C487 C40 0.976 . S
C501 C74 0.956 . S
C507 C54 0.938 . S
C521 C46 0.996 . S
C527 C68 0.999 . S
C541 C82 0.964 . S
C547 C60 0.912 . S
C561 C96 0.982 . S
C567 C102 1.018 . S
C581 C110 0.999 . S
C587 C116 0.964 . S
C601 C88 0.982 . S
C607 C124 1.001 . S
C621 C158 1.011 . S
C627 C138 1.009 . S
C641 C130 0.976 . S
C647 C152 0.958 . S
C661 C144 0.999 . S
C667 C166 0.952 . S
C681 C186 0.992 . S
C687 C180 1.016 . S
C701 C200 0.981 . S
C707 C194 0.960 . S
C721 C172 0.989 . S
C727 C208 0.937 . S
C741 C222 1.013 . S
C747 C242 0.983 . S
C761 C236 1.000 . S
C767 C214 0.972 . S
C781 C250 0.997 . S
C787 C228 0.964 . S
C801 C11 1.383 . S
C807 C53 1.411 . S
C821 C67 1.366 . S
C827 C25 1.331 . S
C841 C81 1.338 . S
C847 C39 1.362 . S
C861 C137 1.382 . S
C867 C95 1.401 . S
C881 C151 1.362 . S
C887 C109 1.397 . S
C901 C123 1.418 . S
C907 C165 1.389 . S
C921 C221 1.406 . S
C927 C179 1.378 . S
C941 C235 1.387 . S
C947 C193 1.416 . S
C961 C249 1.369 . S
C967 C207 1.389 . S
