# Generated by pormake.
# Topology utn, (3)-cn, num edge types: 1
# Building blocks:
#     Node 0, Type 0, BuildingBlock: OLANEW_clean_sbu_2, # of connection points: 3
#     Node 1, Type 0, BuildingBlock: OLANEW_clean_sbu_2, # of connection points: 3
#     Node 2, Type 0, BuildingBlock: OLANEW_clean_sbu_2, # of connection points: 3
#     Node 3, Type 0, BuildingBlock: OLANEW_clean_sbu_2, # of connection points: 3
#     Node 4, Type 0, BuildingBlock: OLANEW_clean_sbu_2, # of connection points: 3
#     Node 5, Type 0, BuildingBlock: OLANEW_clean_sbu_2, # of connection points: 3
#     Node 6, Type 0, BuildingBlock: OLANEW_clean_sbu_2, # of connection points: 3
#     Node 7, Type 0, BuildingBlock: OLANEW_clean_sbu_2, # of connection points: 3
#     Node 8, Type 0, BuildingBlock: OLANEW_clean_sbu_2, # of connection points: 3
#     Node 9, Type 0, BuildingBlock: OLANEW_clean_sbu_2, # of connection points: 3
#     Node 10, Type 0, BuildingBlock: OLANEW_clean_sbu_2, # of connection points: 3
#     Node 11, Type 0, BuildingBlock: OLANEW_clean_sbu_2, # of connection points: 3
#     Node 12, Type 0, BuildingBlock: OLANEW_clean_sbu_2, # of connection points: 3
#     Node 13, Type 0, BuildingBlock: OLANEW_clean_sbu_2, # of connection points: 3
#     Node 14, Type 0, BuildingBlock: OLANEW_clean_sbu_2, # of connection points: 3
#     Node 15, Type 0, BuildingBlock: OLANEW_clean_sbu_2, # of connection points: 3
#     Node 16, Type 0, BuildingBlock: OLANEW_clean_sbu_2, # of connection points: 3
#     Node 17, Type 0, BuildingBlock: OLANEW_clean_sbu_2, # of connection points: 3
#     Node 18, Type 0, BuildingBlock: OLANEW_clean_sbu_2, # of connection points: 3
#     Node 19, Type 0, BuildingBlock: OLANEW_clean_sbu_2, # of connection points: 3
#     Node 20, Type 0, BuildingBlock: OLANEW_clean_sbu_2, # of connection points: 3
#     Node 21, Type 0, BuildingBlock: OLANEW_clean_sbu_2, # of connection points: 3
#     Node 22, Type 0, BuildingBlock: OLANEW_clean_sbu_2, # of connection points: 3
#     Node 23, Type 0, BuildingBlock: OLANEW_clean_sbu_2, # of connection points: 3
#     Node 24, Type 0, BuildingBlock: OLANEW_clean_sbu_2, # of connection points: 3
#     Node 25, Type 0, BuildingBlock: OLANEW_clean_sbu_2, # of connection points: 3
#     Node 26, Type 0, BuildingBlock: OLANEW_clean_sbu_2, # of connection points: 3
#     Node 27, Type 0, BuildingBlock: OLANEW_clean_sbu_2, # of connection points: 3
#     Node 28, Type 0, BuildingBlock: OLANEW_clean_sbu_2, # of connection points: 3
#     Node 29, Type 0, BuildingBlock: OLANEW_clean_sbu_2, # of connection points: 3
#     Node 30, Type 0, BuildingBlock: OLANEW_clean_sbu_2, # of connection points: 3
#     Node 31, Type 0, BuildingBlock: OLANEW_clean_sbu_2, # of connection points: 3
#     Edge 32, Type (0, 0), BuildingBlock: KIFKEQ_clean_linker_1, # of connection points: 2
#     Edge 33, Type (0, 0), BuildingBlock: KIFKEQ_clean_linker_1, # of connection points: 2
#     Edge 34, Type (0, 0), BuildingBlock: KIFKEQ_clean_linker_1, # of connection points: 2
#     Edge 35, Type (0, 0), BuildingBlock: KIFKEQ_clean_linker_1, # of connection points: 2
#     Edge 36, Type (0, 0), BuildingBlock: KIFKEQ_clean_linker_1, # of connection points: 2
#     Edge 37, Type (0, 0), BuildingBlock: KIFKEQ_clean_linker_1, # of connection points: 2
#     Edge 38, Type (0, 0), BuildingBlock: KIFKEQ_clean_linker_1, # of connection points: 2
#     Edge 39, Type (0, 0), BuildingBlock: KIFKEQ_clean_linker_1, # of connection points: 2
#     Edge 40, Type (0, 0), BuildingBlock: KIFKEQ_clean_linker_1, # of connection points: 2
#     Edge 41, Type (0, 0), BuildingBlock: KIFKEQ_clean_linker_1, # of connection points: 2
#     Edge 42, Type (0, 0), BuildingBlock: KIFKEQ_clean_linker_1, # of connection points: 2
#     Edge 43, Type (0, 0), BuildingBlock: KIFKEQ_clean_linker_1, # of connection points: 2
#     Edge 44, Type (0, 0), BuildingBlock: KIFKEQ_clean_linker_1, # of connection points: 2
#     Edge 45, Type (0, 0), BuildingBlock: KIFKEQ_clean_linker_1, # of connection points: 2
#     Edge 46, Type (0, 0), BuildingBlock: KIFKEQ_clean_linker_1, # of connection points: 2
#     Edge 47, Type (0, 0), BuildingBlock: KIFKEQ_clean_linker_1, # of connection points: 2
#     Edge 48, Type (0, 0), BuildingBlock: KIFKEQ_clean_linker_1, # of connection points: 2
#     Edge 49, Type (0, 0), BuildingBlock: KIFKEQ_clean_linker_1, # of connection points: 2
#     Edge 50, Type (0, 0), BuildingBlock: KIFKEQ_clean_linker_1, # of connection points: 2
#     Edge 51, Type (0, 0), BuildingBlock: KIFKEQ_clean_linker_1, # of connection points: 2
#     Edge 52, Type (0, 0), BuildingBlock: KIFKEQ_clean_linker_1, # of connection points: 2
#     Edge 53, Type (0, 0), BuildingBlock: KIFKEQ_clean_linker_1, # of connection points: 2
#     Edge 54, Type (0, 0), BuildingBlock: KIFKEQ_clean_linker_1, # of connection points: 2
#     Edge 55, Type (0, 0), BuildingBlock: KIFKEQ_clean_linker_1, # of connection points: 2
#     Edge 56, Type (0, 0), BuildingBlock: KIFKEQ_clean_linker_1, # of connection points: 2
#     Edge 57, Type (0, 0), BuildingBlock: KIFKEQ_clean_linker_1, # of connection points: 2
#     Edge 58, Type (0, 0), BuildingBlock: KIFKEQ_clean_linker_1, # of connection points: 2
#     Edge 59, Type (0, 0), BuildingBlock: KIFKEQ_clean_linker_1, # of connection points: 2
#     Edge 60, Type (0, 0), BuildingBlock: KIFKEQ_clean_linker_1, # of connection points: 2
#     Edge 61, Type (0, 0), BuildingBlock: KIFKEQ_clean_linker_1, # of connection points: 2
#     Edge 62, Type (0, 0), BuildingBlock: KIFKEQ_clean_linker_1, # of connection points: 2
#     Edge 63, Type (0, 0), BuildingBlock: KIFKEQ_clean_linker_1, # of connection points: 2
#     Edge 64, Type (0, 0), BuildingBlock: KIFKEQ_clean_linker_1, # of connection points: 2
#     Edge 65, Type (0, 0), BuildingBlock: KIFKEQ_clean_linker_1, # of connection points: 2
#     Edge 66, Type (0, 0), BuildingBlock: KIFKEQ_clean_linker_1, # of connection points: 2
#     Edge 67, Type (0, 0), BuildingBlock: KIFKEQ_clean_linker_1, # of connection points: 2
#     Edge 68, Type (0, 0), BuildingBlock: KIFKEQ_clean_linker_1, # of connection points: 2
#     Edge 69, Type (0, 0), BuildingBlock: KIFKEQ_clean_linker_1, # of connection points: 2
#     Edge 70, Type (0, 0), BuildingBlock: KIFKEQ_clean_linker_1, # of connection points: 2
#     Edge 71, Type (0, 0), BuildingBlock: KIFKEQ_clean_linker_1, # of connection points: 2
#     Edge 72, Type (0, 0), BuildingBlock: KIFKEQ_clean_linker_1, # of connection points: 2
#     Edge 73, Type (0, 0), BuildingBlock: KIFKEQ_clean_linker_1, # of connection points: 2
#     Edge 74, Type (0, 0), BuildingBlock: KIFKEQ_clean_linker_1, # of connection points: 2
#     Edge 75, Type (0, 0), BuildingBlock: KIFKEQ_clean_linker_1, # of connection points: 2
#     Edge 76, Type (0, 0), BuildingBlock: KIFKEQ_clean_linker_1, # of connection points: 2
#     Edge 77, Type (0, 0), BuildingBlock: KIFKEQ_clean_linker_1, # of connection points: 2
#     Edge 78, Type (0, 0), BuildingBlock: KIFKEQ_clean_linker_1, # of connection points: 2
#     Edge 79, Type (0, 0), BuildingBlock: KIFKEQ_clean_linker_1, # of connection points: 2
# Relax obj value: 0.009
# Max RMSD: 0.035
# Mean RMSD: 0.035
data_MOF--net-utn--node1-OLANEW_clean_sbu_2--edge1-KIFKEQ_clean_linker_1
_symmetry_space_group_name_H-M    P1
_symmetry_Int_Tables_number       1
_symmetry_cell_setting            triclinic
loop_
_symmetry_equiv_pos_as_xyz
'x, y, z'
_cell_length_a     84.26683
_cell_length_b     84.361038
_cell_length_c     29.476119
_cell_angle_alpha  90.042189
_cell_angle_beta   89.984678
_cell_angle_gamma 90.030915
loop_
_atom_site_label
_atom_site_type_symbol
_atom_site_fract_x
_atom_site_fract_y
_atom_site_fract_z
_atom_type_partial_charge
O0 O 0.25124 0.11252 0.30821 0.0
Cd1 Cd 0.25356 0.10942 0.22595 0.0
O2 O 0.24511 0.13749 0.29852 0.0
Cd3 Cd 0.23792 0.16163 0.31658 0.0
O4 O 0.23307 0.18696 0.32319 0.0
C5 C 0.24085 0.19561 0.35063 0.0
O6 O 0.25171 0.18906 0.37651 0.0
C7 C 0.24779 0.12594 0.32521 0.0
C8 C 0.2313 0.0885 0.18941 0.0
O9 O 0.24458 0.08348 0.20503 0.0
O10 O 0.22849 0.10341 0.19142 0.0
O11 O 0.12507 -0.00293 0.54979 0.0
Cd12 Cd 0.12507 0.99481 0.46706 0.0
O13 O 0.10109 0.98707 0.54857 0.0
Cd14 Cd 0.07818 0.98057 0.57824 0.0
O15 O 0.05283 0.97701 0.59019 0.0
C16 C 0.04382 0.98909 0.59075 0.0
O17 O 0.05018 0.00322 0.58601 0.0
C18 C 0.11278 0.99247 0.57102 0.0
C19 C 0.14805 0.97382 0.43481 0.0
O20 O 0.15092 0.98871 0.43777 0.0
O21 O 0.13435 0.96886 0.44734 0.0
O22 O 0.23881 0.88061 0.81382 0.0
Cd23 Cd 0.23687 0.88351 0.73146 0.0
O24 O 0.24937 0.85706 0.80503 0.0
Cd25 Cd 0.25713 0.8338 0.82913 0.0
O26 O 0.26109 0.80844 0.83884 0.0
C27 C 0.24907 0.79935 0.83997 0.0
O28 O 0.23484 0.80562 0.83691 0.0
C29 C 0.24449 0.86803 0.83109 0.0
C30 C 0.25964 0.90396 0.69534 0.0
O31 O 0.24637 0.90923 0.71036 0.0
O32 O 0.2622 0.889 0.69774 0.0
O33 O 0.36621 0.99253 0.0506 0.0
Cd34 Cd 0.36662 0.99424 0.96779 0.0
O35 O 0.39067 0.00124 0.04942 0.0
Cd36 Cd 0.41396 0.00701 0.07794 0.0
O37 O 0.43917 0.01139 0.08979 0.0
C38 C 0.44869 -0.00028 0.08954 0.0
O39 O 0.44296 0.98536 0.08396 0.0
C40 C 0.37867 -0.0034 0.07193 0.0
C41 C 0.34544 0.01674 0.93407 0.0
O42 O 0.34137 0.00216 0.93796 0.0
O43 O 0.3595 0.02068 0.94634 0.0
O44 O 0.25236 0.87563 0.19181 0.0
Cd45 Cd 0.25159 0.87602 0.27474 0.0
O46 O 0.24172 0.85197 0.19517 0.0
Cd47 Cd 0.23401 0.82919 0.16722 0.0
O48 O 0.22949 0.80394 0.15685 0.0
C49 C 0.24128 0.79457 0.15505 0.0
O50 O 0.25567 0.80051 0.15759 0.0
C51 C 0.24704 0.86342 0.17163 0.0
C52 C 0.22929 0.89745 0.30852 0.0
O53 O 0.24385 0.9015 0.30338 0.0
O54 O 0.22529 0.8833 0.29754 0.0
O55 O 0.36299 -0.0022 0.43304 0.0
Cd56 Cd 0.36108 -0.00026 0.51565 0.0
O57 O 0.38834 0.99261 0.43932 0.0
Cd58 Cd 0.41239 0.98627 0.41764 0.0
O59 O 0.43771 0.98157 0.40898 0.0
C60 C 0.44729 0.99314 0.40543 0.0
O61 O 0.44162 0.00765 0.40555 0.0
C62 C 0.37625 0.9949 0.41426 0.0
C63 C 0.33923 0.97852 0.55275 0.0
O64 O 0.33487 0.9922 0.53852 0.0
O65 O 0.35394 0.97483 0.54916 0.0
O66 O 0.24695 0.12048 0.68909 0.0
Cd67 Cd 0.24949 0.12141 0.77169 0.0
O68 O 0.25327 0.14565 0.68864 0.0
Cd69 Cd 0.25659 0.16921 0.65902 0.0
O70 O 0.25826 0.19482 0.6489 0.0
C71 C 0.2466 0.2026 0.63307 0.0
O72 O 0.23371 0.19493 0.6209 0.0
C73 C 0.24961 0.13313 0.66697 0.0
C74 C 0.27018 0.09842 0.80531 0.0
O75 O 0.25522 0.09577 0.80275 0.0
O76 O 0.27534 0.11191 0.79176 0.0
O77 O 0.12956 0.99065 0.93021 0.0
Cd78 Cd 0.13185 0.98992 0.01291 0.0
O79 O 0.10619 0.00184 0.93648 0.0
Cd80 Cd 0.08318 0.00967 0.91048 0.0
O81 O 0.05789 0.01407 0.90011 0.0
C82 C 0.04853 0.00225 0.89937 0.0
O83 O 0.0545 0.98792 0.9031 0.0
C84 C 0.1172 0.9963 0.91161 0.0
C85 C 0.15334 0.01195 0.04779 0.0
O86 O 0.15795 -0.00178 0.03461 0.0
O87 O 0.13857 0.01533 0.04403 0.0
O88 O 0.761 0.86523 0.68783 0.0
Cd89 Cd 0.76548 0.85802 0.76707 0.0
O90 O 0.73608 0.85748 0.68746 0.0
Cd91 Cd 0.73769 0.84615 0.75383 0.0
O92 O 0.7388 0.82457 0.79456 0.0
C93 C 0.75125 0.81613 0.79159 0.0
O94 O 0.76318 0.82133 0.76703 0.0
C95 C 0.74781 0.86384 0.66728 0.0
C96 C 0.78726 0.87873 0.80664 0.0
O97 O 0.79187 0.86602 0.78677 0.0
O98 O 0.77233 0.88155 0.80821 0.0
O99 O 0.87595 0.0134 0.43694 0.0
Cd100 Cd 0.8798 0.01601 0.51875 0.0
O101 O 0.88522 0.98903 0.43534 0.0
Cd102 Cd 0.89544 0.99012 0.50333 0.0
O103 O 0.91735 0.98982 0.543 0.0
C104 C 0.92715 0.97893 0.53289 0.0
O105 O 0.92302 0.96835 0.50232 0.0
C106 C 0.87871 0.00066 0.41522 0.0
C107 C 0.85791 0.03738 0.55474 0.0
O108 O 0.87202 0.04184 0.54464 0.0
O109 O 0.85423 0.02281 0.54828 0.0
O110 O 0.73505 0.13098 0.18648 0.0
Cd111 Cd 0.73438 0.1345 0.26873 0.0
O112 O 0.7594 0.1401 0.18004 0.0
Cd113 Cd 0.75991 0.14999 0.24849 0.0
O114 O 0.76027 0.17164 0.2892 0.0
C115 C 0.77036 0.18202 0.27714 0.0
O116 O 0.78022 0.17859 0.24402 0.0
C117 C 0.74722 0.13373 0.16222 0.0
C118 C 0.71298 0.11318 0.30722 0.0
O119 O 0.70883 0.12747 0.29857 0.0
O120 O 0.72727 0.10905 0.29822 0.0
O121 O 0.61467 0.98192 0.93448 0.0
Cd122 Cd 0.60733 0.97788 0.01382 0.0
O123 O 0.60808 0.00713 0.9336 0.0
Cd124 Cd 0.59671 0.006 4e-05 0.0
O125 O 0.57487 0.00514 0.03984 0.0
C126 C 0.5646 0.0157 0.0308 0.0
O127 O 0.5682 0.02672 0.00102 0.0
C128 C 0.61388 0.99508 0.91364 0.0
C129 C 0.62768 0.95596 0.05406 0.0
O130 O 0.61489 0.95147 0.03431 0.0
O131 O 0.63074 0.97084 0.05519 0.0
O132 O 0.75434 0.1319 0.79843 0.0
Cd133 Cd 0.75535 0.13579 0.71634 0.0
O134 O 0.7299 0.14077 0.80471 0.0
Cd135 Cd 0.72963 0.15081 0.7365 0.0
O136 O 0.73031 0.17213 0.69459 0.0
C137 C 0.74314 0.18006 0.69403 0.0
O138 O 0.75557 0.17442 0.71553 0.0
C139 C 0.74208 0.13444 0.82255 0.0
C140 C 0.77726 0.11492 0.6781 0.0
O141 O 0.76298 0.11055 0.68633 0.0
O142 O 0.78116 0.12925 0.68738 0.0
O143 O 0.61773 0.01002 0.55273 0.0
Cd144 Cd 0.61312 0.01248 0.47122 0.0
O145 O 0.60717 0.9862 0.55616 0.0
Cd146 Cd 0.59634 0.98748 0.489 0.0
O147 O 0.57403 0.98796 0.45127 0.0
C148 C 0.56354 0.97821 0.46479 0.0
O149 O 0.56721 0.9683 0.49751 0.0
C150 C 0.61452 -0.00243 0.57521 0.0
C151 C 0.63438 0.03417 0.43379 0.0
O152 O 0.63833 0.01967 0.43996 0.0
O153 O 0.62029 0.03841 0.44484 0.0
O154 O 0.72973 0.86367 0.30945 0.0
Cd155 Cd 0.72511 0.85581 0.23077 0.0
O156 O 0.75442 0.85527 0.31059 0.0
Cd157 Cd 0.75264 0.84329 0.24513 0.0
O158 O 0.75194 0.82112 0.20684 0.0
C159 C 0.76253 0.81099 0.21691 0.0
O160 O 0.77341 0.81489 0.24686 0.0
C161 C 0.74286 0.86213 0.33018 0.0
C162 C 0.704 0.87677 0.1896 0.0
O163 O 0.69899 0.86439 0.21033 0.0
O164 O 0.71902 0.87913 0.1879 0.0
O165 O 0.87991 0.98292 0.05596 0.0
Cd166 Cd 0.88713 0.97812 0.97686 0.0
O167 O 0.88884 0.00742 0.05692 0.0
Cd168 Cd 0.90033 0.00552 0.99077 0.0
O169 O 0.92228 0.005 0.95132 0.0
C170 C 0.93239 0.01567 0.96094 0.0
O171 O 0.92859 0.0265 0.99112 0.0
C172 C 0.88186 0.99598 0.07675 0.0
C173 C 0.86609 0.95655 0.93773 0.0
O174 O 0.87873 0.95182 0.95775 0.0
O175 O 0.8635 0.97151 0.9358 0.0
O176 O 0.74566 0.61563 0.80615 0.0
Cd177 Cd 0.74673 0.61477 0.72324 0.0
O178 O 0.74318 0.64141 0.80351 0.0
Cd179 Cd 0.73963 0.66581 0.82699 0.0
O180 O 0.73814 0.69151 0.83525 0.0
C181 C 0.7497 0.69925 0.85189 0.0
O182 O 0.76234 0.69151 0.86562 0.0
C183 C 0.74431 0.62878 0.82688 0.0
C184 C 0.7261 0.59234 0.6861 0.0
O185 O 0.74013 0.5885 0.69877 0.0
O186 O 0.72178 0.6068 0.69121 0.0
O187 O 0.62787 0.50186 0.05467 0.0
Cd188 Cd 0.63059 0.50319 0.97211 0.0
O189 O 0.60452 0.49067 0.04749 0.0
Cd190 Cd 0.58159 0.48228 0.07285 0.0
O191 O 0.55637 0.47728 0.08264 0.0
C192 C 0.54684 0.48888 0.08616 0.0
O193 O 0.55258 0.50337 0.08557 0.0
C194 C 0.6155 0.49601 0.07279 0.0
C195 C 0.6518 0.48088 0.93721 0.0
O196 O 0.65664 0.49441 0.95141 0.0
O197 O 0.63692 0.47784 0.93983 0.0
O198 O 0.74149 0.37811 0.30736 0.0
Cd199 Cd 0.74065 0.3804 0.22462 0.0
O200 O 0.75325 0.35503 0.30124 0.0
Cd201 Cd 0.76186 0.33235 0.32744 0.0
O202 O 0.76715 0.30726 0.33779 0.0
C203 C 0.75565 0.2976 0.34154 0.0
O204 O 0.74108 0.30316 0.34088 0.0
C205 C 0.74747 0.36593 0.32604 0.0
C206 C 0.76259 0.40194 0.18943 0.0
O207 O 0.74886 0.40651 0.20284 0.0
O208 O 0.76602 0.3872 0.1931 0.0
O209 O 0.86976 0.49358 0.55755 0.0
Cd210 Cd 0.8681 0.49322 0.47467 0.0
O211 O 0.89423 0.50229 0.55363 0.0
Cd212 Cd 0.91767 0.50797 0.58125 0.0
O213 O 0.94336 0.50997 0.59001 0.0
C214 C 0.95112 0.49881 0.60862 0.0
O215 O 0.94337 0.48646 0.62436 0.0
C216 C 0.88243 0.49791 0.57738 0.0
C217 C 0.84586 0.51452 0.44 0.0
O218 O 0.84176 0.50055 0.45247 0.0
O219 O 0.86047 0.51848 0.44427 0.0
O220 O 0.75116 0.3785 0.68554 0.0
Cd221 Cd 0.75155 0.381 0.76825 0.0
O222 O 0.74219 0.3542 0.69159 0.0
Cd223 Cd 0.73622 0.33061 0.66572 0.0
O224 O 0.73333 0.30508 0.65602 0.0
C225 C 0.74412 0.29702 0.63658 0.0
O226 O 0.75671 0.30438 0.62076 0.0
C227 C 0.74668 0.36568 0.66682 0.0
C228 C 0.72931 0.40255 0.80178 0.0
O229 O 0.7431 0.40714 0.78888 0.0
O230 O 0.72598 0.38777 0.79842 0.0
O231 O 0.8637 0.50226 0.93422 0.0
Cd232 Cd 0.86005 0.50326 0.01656 0.0
O233 O 0.8878 0.49309 0.94389 0.0
Cd234 Cd 0.91167 0.48704 0.92038 0.0
O235 O 0.93729 0.48501 0.91082 0.0
C236 C 0.94493 0.49622 0.89204 0.0
O237 O 0.9371 0.5086 0.87698 0.0
C238 C 0.87677 0.49756 0.91744 0.0
C239 C 0.83907 0.48048 0.05013 0.0
O240 O 0.83404 0.49388 0.03558 0.0
O241 O 0.85402 0.47776 0.04828 0.0
O242 O 0.74179 0.61199 0.18815 0.0
Cd243 Cd 0.74158 0.6095 0.27085 0.0
O244 O 0.75053 0.63637 0.19404 0.0
Cd245 Cd 0.75638 0.66007 0.16887 0.0
O246 O 0.76044 0.68541 0.15873 0.0
C247 C 0.7486 0.69474 0.1587 0.0
O248 O 0.73428 0.68876 0.16312 0.0
C249 C 0.74607 0.62485 0.16931 0.0
C250 C 0.76483 0.58906 0.30433 0.0
O251 O 0.75131 0.5838 0.29123 0.0
O252 O 0.76742 0.604 0.30117 0.0
O253 O 0.62987 0.48813 0.43051 0.0
Cd254 Cd 0.63321 0.48686 0.51287 0.0
O255 O 0.60572 0.4973 0.4392 0.0
Cd256 Cd 0.58201 0.50374 0.41527 0.0
O257 O 0.55645 0.50669 0.40617 0.0
C258 C 0.54833 0.49581 0.38736 0.0
O259 O 0.55565 0.48315 0.37196 0.0
C260 C 0.61694 0.49294 0.41319 0.0
C261 C 0.65319 0.51041 0.54711 0.0
O262 O 0.65879 0.49725 0.53232 0.0
O263 O 0.63813 0.51249 0.54534 0.0
O264 O 0.26564 0.36476 0.1878 0.0
Cd265 Cd 0.27097 0.35813 0.267 0.0
O266 O 0.2422 0.35328 0.18645 0.0
Cd267 Cd 0.24485 0.34216 0.25286 0.0
O268 O 0.246 0.32044 0.29301 0.0
C269 C 0.23322 0.31283 0.30014 0.0
O270 O 0.21975 0.31895 0.28618 0.0
C271 C 0.2529 0.3614 0.16679 0.0
C272 C 0.29208 0.38001 0.30441 0.0
O273 O 0.29712 0.36744 0.28465 0.0
O274 O 0.27705 0.38213 0.30691 0.0
O275 O 0.38018 0.51108 0.93334 0.0
Cd276 Cd 0.38457 0.512 0.01521 0.0
O277 O 0.38813 0.48633 0.92771 0.0
Cd278 Cd 0.39868 0.48592 0.99533 0.0
O279 O 0.42055 0.48547 0.03512 0.0
C280 C 0.43085 0.47536 0.02266 0.0
O281 O 0.42724 0.46553 0.98962 0.0
C282 C 0.38214 0.49864 0.90963 0.0
C283 C 0.36387 0.53364 0.05524 0.0
O284 O 0.37814 0.53762 0.04538 0.0
O285 O 0.35948 0.51941 0.04667 0.0
O286 O 0.22919 0.62805 0.68707 0.0
Cd287 Cd 0.22127 0.63706 0.76249 0.0
O288 O 0.25305 0.63861 0.68873 0.0
Cd289 Cd 0.24948 0.65065 0.7535 0.0
O290 O 0.24904 0.67292 0.79131 0.0
C291 C 0.25987 0.68278 0.78104 0.0
O292 O 0.27066 0.67856 0.7512 0.0
C293 C 0.24253 0.63052 0.66822 0.0
C294 C 0.20033 0.61544 0.80171 0.0
O295 O 0.19545 0.62584 0.77329 0.0
O296 O 0.2151 0.61534 0.81202 0.0
O297 O 0.11447 0.48063 0.4348 0.0
Cd298 Cd 0.10965 0.47931 0.51645 0.0
O299 O 0.10802 0.50585 0.43087 0.0
Cd300 Cd 0.0974 0.50627 0.49843 0.0
O301 O 0.07617 0.50668 0.54098 0.0
C302 C 0.06756 0.49431 0.54185 0.0
O303 O 0.07241 0.48162 0.52003 0.0
C304 C 0.11334 0.49337 0.412 0.0
C305 C 0.13099 0.45839 0.5567 0.0
O306 O 0.13484 0.47282 0.54882 0.0
O307 O 0.11695 0.45387 0.54607 0.0
O308 O 0.26337 0.62859 0.31062 0.0
Cd309 Cd 0.26599 0.63408 0.22959 0.0
O310 O 0.23807 0.63498 0.31143 0.0
Cd311 Cd 0.2388 0.64632 0.2449 0.0
O312 O 0.23877 0.66833 0.20589 0.0
C313 C 0.22843 0.67852 0.2175 0.0
O314 O 0.21818 0.67476 0.24935 0.0
C315 C 0.25022 0.62951 0.33165 0.0
C316 C 0.28709 0.61276 0.18989 0.0
O317 O 0.27248 0.6091 0.19596 0.0
O318 O 0.29172 0.62659 0.20214 0.0
O319 O 0.11337 0.50798 0.0538 0.0
Cd320 Cd 0.10421 0.51439 0.97737 0.0
O321 O 0.10377 0.48374 0.05504 0.0
Cd322 Cd 0.09198 0.48601 0.98946 0.0
O323 O 0.0704 0.4867 0.94854 0.0
C324 C 0.06197 0.49918 0.94966 0.0
O325 O 0.06717 0.5115 0.97258 0.0
C326 C 0.11138 0.49488 0.07432 0.0
C327 C 0.12463 0.53627 0.9372 0.0
O328 O 0.11373 0.54074 0.96469 0.0
O329 O 0.12579 0.52145 0.92821 0.0
O330 O 0.23491 0.36488 0.80693 0.0
Cd331 Cd 0.23253 0.3605 0.72526 0.0
O332 O 0.26022 0.35857 0.80783 0.0
Cd333 Cd 0.2596 0.34836 0.73978 0.0
O334 O 0.25839 0.32731 0.69674 0.0
C335 C 0.24585 0.31897 0.69882 0.0
O336 O 0.23398 0.32401 0.72386 0.0
C337 C 0.24796 0.36369 0.82829 0.0
C338 C 0.21054 0.38139 0.68781 0.0
O339 O 0.20652 0.36722 0.69843 0.0
O340 O 0.22496 0.38561 0.6945 0.0
O341 O 0.38131 0.48797 0.54841 0.0
Cd342 Cd 0.38816 0.48425 0.46857 0.0
O343 O 0.39061 0.51228 0.55255 0.0
Cd344 Cd 0.40174 0.51123 0.48576 0.0
O345 O 0.42328 0.51011 0.44469 0.0
C346 C 0.43122 0.49731 0.44528 0.0
O347 O 0.42553 0.48509 0.46761 0.0
C348 C 0.38354 0.50063 0.57096 0.0
C349 C 0.36808 0.46173 0.4297 0.0
O350 O 0.38115 0.45763 0.44853 0.0
O351 O 0.36461 0.47652 0.42874 0.0
H352 H 0.25332 0.15265 0.37632 0.0
H353 H 0.24151 0.10301 0.38736 0.0
H354 H 0.25204 0.15529 0.45832 0.0
H355 H 0.24148 0.10528 0.46961 0.0
H356 H 0.22908 0.11614 0.61505 0.0
H357 H 0.22748 0.11526 0.53249 0.0
H358 H 0.26648 0.14849 0.52387 0.0
H359 H 0.26766 0.14965 0.60634 0.0
C360 C 0.25008 0.14238 0.39611 0.0
C361 C 0.24696 0.12776 0.37512 0.0
C362 C 0.24974 0.14379 0.44338 0.0
C363 C 0.24658 0.13052 0.47085 0.0
C364 C 0.24361 0.11585 0.44971 0.0
C365 C 0.24378 0.1145 0.40248 0.0
C366 C 0.2372 0.12334 0.59537 0.0
C367 C 0.24832 0.13314 0.61703 0.0
C368 C 0.23637 0.12278 0.54804 0.0
C369 C 0.24686 0.13179 0.52128 0.0
C370 C 0.25796 0.14165 0.5432 0.0
C371 C 0.25864 0.14235 0.59055 0.0
H372 H 0.12478 0.01586 0.62454 0.0
H373 H 0.09989 0.97116 0.62981 0.0
H374 H 0.12474 0.01707 0.70768 0.0
H375 H 0.10006 0.97228 0.71286 0.0
H376 H 0.12659 0.97279 0.85475 0.0
H377 H 0.12435 0.97205 0.77192 0.0
H378 H 0.10242 0.01827 0.7734 0.0
H379 H 0.10444 0.01892 0.85641 0.0
C380 C 0.11922 0.00637 0.64353 0.0
C381 C 0.11217 0.99352 0.62092 0.0
C382 C 0.11914 0.0071 0.69092 0.0
C383 C 0.11236 0.99479 0.71643 0.0
C384 C 0.10534 0.98191 0.69382 0.0
C385 C 0.10512 0.98135 0.64643 0.0
C386 C 0.12121 0.98273 0.83734 0.0
C387 C 0.11552 0.99583 0.86184 0.0
C388 C 0.11986 0.98227 0.79012 0.0
C389 C 0.11316 0.99508 0.76653 0.0
C390 C 0.1076 0.00825 0.79096 0.0
C391 C 0.10864 0.00856 0.83832 0.0
H392 H 0.26781 0.8546 0.88244 0.0
H393 H 0.22219 0.87762 0.89164 0.0
H394 H 0.26869 0.85236 0.96537 0.0
H395 H 0.22297 0.87517 0.9744 0.0
H396 H 0.22431 0.85095 0.11644 0.0
H397 H 0.22382 0.851 0.03334 0.0
H398 H 0.2693 0.87452 0.0312 0.0
H399 H 0.26971 0.87467 0.11438 0.0
C400 C 0.25788 0.85893 0.90218 0.0
C401 C 0.24486 0.86613 0.88079 0.0
C402 C 0.25844 0.85777 0.94949 0.0
C403 C 0.24586 0.86353 0.97603 0.0
C404 C 0.23274 0.87052 0.95457 0.0
C405 C 0.23234 0.87198 0.90738 0.0
C406 C 0.23431 0.85588 0.09818 0.0
C407 C 0.24713 0.86265 0.12166 0.0
C408 C 0.23396 0.85603 0.05077 0.0
C409 C 0.24655 0.86271 0.0261 0.0
C410 C 0.25952 0.86918 0.04956 0.0
C411 C 0.25972 0.86933 0.09698 0.0
H412 H 0.36381 0.97509 0.12587 0.0
H413 H 0.39396 0.01641 0.13075 0.0
H414 H 0.36398 0.97375 0.20856 0.0
H415 H 0.39394 0.01534 0.21332 0.0
H416 H 0.40179 0.00195 0.35994 0.0
H417 H 0.40313 0.001 0.27756 0.0
H418 H 0.35368 0.98743 0.27257 0.0
H419 H 0.35272 0.98732 0.3551 0.0
C420 C 0.3705 0.98387 0.14472 0.0
C421 C 0.37911 0.99567 0.12193 0.0
C422 C 0.37054 0.98317 0.19209 0.0
C423 C 0.37901 0.99442 0.21775 0.0
C424 C 0.3876 0.00626 0.19475 0.0
C425 C 0.38766 0.00686 0.14736 0.0
C426 C 0.39139 -0.00182 0.3414 0.0
C427 C 0.3773 0.99421 0.36418 0.0
C428 C 0.39204 -0.002 0.29399 0.0
C429 C 0.37853 0.99407 0.26825 0.0
C430 C 0.36441 0.9902 0.29117 0.0
C431 C 0.36381 0.99028 0.33853 0.0
H432 H 0.76841 0.85845 0.38625 0.0
H433 H 0.72044 0.87653 0.38345 0.0
H434 H 0.76938 0.86253 0.46778 0.0
H435 H 0.72156 0.88099 0.46515 0.0
H436 H 0.72214 0.86023 0.61157 0.0
H437 H 0.72125 0.86347 0.52973 0.0
H438 H 0.76954 0.88075 0.53083 0.0
H439 H 0.77058 0.87711 0.61285 0.0
C440 C 0.75818 0.86361 0.40286 0.0
C441 C 0.74427 0.86695 0.37836 0.0
C442 C 0.75877 0.86606 0.44969 0.0
C443 C 0.74549 0.87197 0.47314 0.0
C444 C 0.7319 0.87617 0.44823 0.0
C445 C 0.73129 0.87368 0.40135 0.0
C446 C 0.7325 0.86495 0.59453 0.0
C447 C 0.7465 0.8682 0.61874 0.0
C448 C 0.73196 0.86692 0.54752 0.0
C449 C 0.74538 0.87224 0.52359 0.0
C450 C 0.75908 0.87636 0.54814 0.0
C451 C 0.75964 0.87436 0.5952 0.0
H452 H 0.88613 0.02149 0.13274 0.0
H453 H 0.86753 0.97373 0.13058 0.0
H454 H 0.88226 0.02256 0.21443 0.0
H455 H 0.86333 0.97496 0.21236 0.0
H456 H 0.8836 0.97542 0.35886 0.0
H457 H 0.88116 0.97471 0.27677 0.0
H458 H 0.8637 0.02285 0.27742 0.0
H459 H 0.86645 0.02371 0.35982 0.0
C460 C 0.88092 0.01132 0.14953 0.0
C461 C 0.87733 -0.00255 0.12515 0.0
C462 C 0.87861 0.01198 0.19643 0.0
C463 C 0.87262 -0.00121 0.22003 0.0
C464 C 0.86823 0.98522 0.19529 0.0
C465 C 0.87056 0.98455 0.14836 0.0
C466 C 0.87905 0.98581 0.34165 0.0
C467 C 0.87538 -0.00032 0.36593 0.0
C468 C 0.87754 0.98536 0.29451 0.0
C469 C 0.8723 -0.00125 0.27046 0.0
C470 C 0.86798 0.01241 0.2949 0.0
C471 C 0.86949 0.01286 0.34214 0.0
H472 H 0.7663 0.12164 0.87247 0.0
H473 H 0.71847 0.13966 0.88439 0.0
H474 H 0.76757 0.11851 0.95464 0.0
H475 H 0.71989 0.13686 0.96639 0.0
H476 H 0.72286 0.12129 0.11196 0.0
H477 H 0.72151 0.11851 0.02965 0.0
H478 H 0.76931 0.13664 0.01836 0.0
H479 H 0.7708 0.1391 0.10043 0.0
C480 C 0.75601 0.12481 0.89253 0.0
C481 C 0.74233 0.13103 0.87184 0.0
C482 C 0.75678 0.12309 0.93965 0.0
C483 C 0.74388 0.12754 0.96712 0.0
C484 C 0.72998 0.13315 0.94625 0.0
C485 C 0.72921 0.13486 0.89917 0.0
C486 C 0.73315 0.12449 0.09195 0.0
C487 C 0.74689 0.13054 0.11279 0.0
C488 C 0.73235 0.12297 0.04476 0.0
C489 C 0.74526 0.12745 0.0174 0.0
C490 C 0.75921 0.13291 0.03841 0.0
C491 C 0.76002 0.13442 0.08553 0.0
H492 H 0.6288 0.02012 0.62841 0.0
H493 H 0.60863 0.97303 0.63319 0.0
H494 H 0.63231 0.01961 0.71059 0.0
H495 H 0.61181 0.97267 0.71507 0.0
H496 H 0.6264 0.97168 0.86014 0.0
H497 H 0.63011 0.97218 0.77814 0.0
H498 H 0.61445 0.02092 0.77496 0.0
H499 H 0.61111 0.02056 0.85689 0.0
C500 C 0.62526 0.0096 0.64688 0.0
C501 C 0.6183 -0.00333 0.62424 0.0
C502 C 0.6272 0.00934 0.694 0.0
C503 C 0.62226 0.99615 0.71947 0.0
C504 C 0.61594 0.98296 0.69652 0.0
C505 C 0.614 0.98321 0.6495 0.0
C506 C 0.62401 0.98259 0.84205 0.0
C507 C 0.61828 0.99602 0.86505 0.0
C508 C 0.62605 0.98284 0.795 0.0
C509 C 0.6224 -0.00347 0.76989 0.0
C510 C 0.61751 0.01022 0.79323 0.0
C511 C 0.6155 0.00998 0.84027 0.0
H512 H 0.72427 0.61182 0.11275 0.0
H513 H 0.76647 0.6408 0.11348 0.0
H514 H 0.72307 0.61368 0.03034 0.0
H515 H 0.76565 0.64234 0.03091 0.0
H516 H 0.75303 0.65289 0.8848 0.0
H517 H 0.75225 0.65286 0.96725 0.0
H518 H 0.73613 0.60419 0.96531 0.0
H519 H 0.73576 0.60471 0.88291 0.0
C520 C 0.7333 0.61858 0.09515 0.0
C521 C 0.74533 0.62635 0.11947 0.0
C522 C 0.73269 0.61959 0.04789 0.0
C523 C 0.74428 0.62814 0.02374 0.0
C524 C 0.75633 0.63592 0.04828 0.0
C525 C 0.75681 0.63507 0.09566 0.0
C526 C 0.74874 0.64241 0.90185 0.0
C527 C 0.74394 0.629 0.87712 0.0
C528 C 0.74866 0.64224 0.94932 0.0
C529 C 0.74403 0.62855 0.97319 0.0
C530 C 0.73942 0.61508 0.94829 0.0
C531 C 0.73936 0.61532 0.90092 0.0
H532 H 0.60307 0.47254 0.12557 0.0
H533 H 0.62488 0.5188 0.13213 0.0
H534 H 0.60195 0.47167 0.20868 0.0
H535 H 0.62351 0.51802 0.21514 0.0
H536 H 0.60217 0.5153 0.36138 0.0
H537 H 0.60034 0.51608 0.27836 0.0
H538 H 0.62572 0.47176 0.27021 0.0
H539 H 0.62778 0.47108 0.35309 0.0
C540 C 0.60733 0.48263 0.14478 0.0
C541 C 0.61393 0.4958 0.1226 0.0
C542 C 0.60679 0.48207 0.19219 0.0
C543 C 0.61258 0.49481 0.21806 0.0
C544 C 0.61885 0.50813 0.19584 0.0
C545 C 0.6197 0.50853 0.14851 0.0
C546 C 0.60713 0.50562 0.34182 0.0
C547 C 0.615 0.49306 0.36349 0.0
C548 C 0.60618 0.50613 0.29447 0.0
C549 C 0.61282 0.49394 0.26815 0.0
C550 C 0.62038 0.48121 0.28987 0.0
C551 C 0.62163 0.48088 0.33712 0.0
H552 H 0.72515 0.35098 0.6119 0.0
H553 H 0.769 0.37745 0.60954 0.0
H554 H 0.72536 0.34977 0.52876 0.0
H555 H 0.76932 0.37601 0.52653 0.0
H556 H 0.77068 0.35403 0.38076 0.0
H557 H 0.77063 0.35267 0.46387 0.0
H558 H 0.72375 0.37321 0.46649 0.0
H559 H 0.72389 0.37481 0.38349 0.0
C560 C 0.73496 0.35627 0.59362 0.0
C561 C 0.74714 0.36418 0.61699 0.0
C562 C 0.73501 0.35568 0.54619 0.0
C563 C 0.7474 0.36273 0.52149 0.0
C564 C 0.75973 0.37036 0.54492 0.0
C565 C 0.7595 0.37125 0.59225 0.0
C566 C 0.76029 0.35803 0.39912 0.0
C567 C 0.74723 0.36439 0.37586 0.0
C568 C 0.76032 0.35736 0.44653 0.0
C569 C 0.74715 0.36277 0.47133 0.0
C570 C 0.73397 0.36884 0.44802 0.0
C571 C 0.73409 0.36983 0.4007 0.0
H572 H 0.87004 0.4756 0.63348 0.0
H573 H 0.89649 0.51945 0.63361 0.0
H574 H 0.87032 0.47542 0.71663 0.0
H575 H 0.89641 0.51943 0.7169 0.0
H576 H 0.86698 0.52014 0.85812 0.0
H577 H 0.87012 0.52021 0.7754 0.0
H578 H 0.89437 0.47526 0.78236 0.0
H579 H 0.89157 0.47533 0.86525 0.0
C580 C 0.87599 0.48513 0.65136 0.0
C581 C 0.88336 0.49747 0.6273 0.0
C582 C 0.8762 0.48498 0.69875 0.0
C583 C 0.88342 0.49739 0.72284 0.0
C584 C 0.89082 0.50973 0.69888 0.0
C585 C 0.89095 0.50967 0.65141 0.0
C586 C 0.8731 0.51036 0.84194 0.0
C587 C 0.87916 0.4978 0.86791 0.0
C588 C 0.87496 0.51045 0.79483 0.0
C589 C 0.88253 0.49778 0.77286 0.0
C590 C 0.88855 0.48518 0.79875 0.0
C591 C 0.88703 0.48527 0.846 0.0
H592 H 0.27366 0.3614 0.88441 0.0
H593 H 0.22387 0.37372 0.88381 0.0
H594 H 0.27419 0.36398 0.96651 0.0
H595 H 0.22451 0.37665 0.96615 0.0
H596 H 0.27378 0.37769 0.1129 0.0
H597 H 0.27222 0.38165 0.03107 0.0
H598 H 0.22659 0.35827 0.02901 0.0
H599 H 0.22797 0.35463 0.1107 0.0
C600 C 0.26288 0.36493 0.90169 0.0
C601 C 0.24868 0.36718 0.87753 0.0
C602 C 0.26321 0.36652 0.94884 0.0
C603 C 0.24937 0.37044 0.97297 0.0
C604 C 0.23533 0.37339 0.94862 0.0
C605 C 0.23499 0.37178 0.9014 0.0
C606 C 0.2633 0.37362 0.09509 0.0
C607 C 0.25108 0.36568 0.11832 0.0
C608 C 0.26245 0.37582 0.04815 0.0
C609 C 0.24936 0.37014 0.0234 0.0
C610 C 0.23678 0.36293 0.04701 0.0
C611 C 0.23762 0.36075 0.09391 0.0
H612 H 0.37043 0.52316 0.85867 0.0
H613 H 0.38582 0.47439 0.84907 0.0
H614 H 0.36722 0.52405 0.77643 0.0
H615 H 0.38294 0.47541 0.76712 0.0
H616 H 0.38881 0.52486 0.63075 0.0
H617 H 0.38536 0.52443 0.71264 0.0
H618 H 0.3649 0.47755 0.70366 0.0
H619 H 0.3687 0.47782 0.62166 0.0
C620 C 0.37299 0.51259 0.83912 0.0
C621 C 0.37852 0.49875 0.86045 0.0
C622 C 0.37121 0.51313 0.79196 0.0
C623 C 0.37492 0.49984 0.76514 0.0
C624 C 0.3798 0.48581 0.78672 0.0
C625 C 0.38156 0.48526 0.83379 0.0
C626 C 0.38336 0.51454 0.64609 0.0
C627 C 0.37923 0.50129 0.61966 0.0
C628 C 0.38129 0.51434 0.69311 0.0
C629 C 0.37499 0.50089 0.71479 0.0
C630 C 0.37005 0.48798 0.68808 0.0
C631 C 0.37215 0.48817 0.64104 0.0
H632 H 0.22252 0.61353 0.61342 0.0
H633 H 0.26835 0.63656 0.61474 0.0
H634 H 0.22493 0.60937 0.53186 0.0
H635 H 0.27056 0.63275 0.53325 0.0
H636 H 0.27407 0.61887 0.38709 0.0
H637 H 0.27302 0.61501 0.46909 0.0
H638 H 0.22326 0.62738 0.46848 0.0
H639 H 0.22421 0.63087 0.38678 0.0
C640 C 0.23321 0.6175 0.59648 0.0
C641 C 0.24514 0.62558 0.62054 0.0
C642 C 0.23455 0.61519 0.54967 0.0
C643 C 0.24783 0.62092 0.52589 0.0
C644 C 0.26022 0.62807 0.55047 0.0
C645 C 0.2589 0.63035 0.59727 0.0
C646 C 0.26285 0.62052 0.40438 0.0
C647 C 0.24926 0.62534 0.3804 0.0
C648 C 0.26227 0.61837 0.45141 0.0
C649 C 0.24809 0.62098 0.47544 0.0
C650 C 0.23435 0.62507 0.45108 0.0
C651 C 0.23492 0.6272 0.40415 0.0
H652 H 0.12398 0.4687 0.35957 0.0
H653 H 0.1112 0.51826 0.35316 0.0
H654 H 0.12748 0.46833 0.27737 0.0
H655 H 0.11432 0.51778 0.27129 0.0
H656 H 0.12794 0.51617 0.1261 0.0
H657 H 0.13218 0.51531 0.20785 0.0
H658 H 0.10964 0.46933 0.21326 0.0
H659 H 0.10577 0.47 0.13157 0.0
C660 C 0.12206 0.47955 0.34073 0.0
C661 C 0.11716 0.49347 0.36293 0.0
C662 C 0.124 0.47931 0.2936 0.0
C663 C 0.12109 0.49299 0.26766 0.0
C664 C 0.11687 0.50707 0.29017 0.0
C665 C 0.11495 0.50732 0.3372 0.0
C666 C 0.12416 0.50574 0.1446 0.0
C667 C 0.11632 0.49325 0.12234 0.0
C668 C 0.12651 0.50529 0.19151 0.0
C669 C 0.12104 0.49236 0.21723 0.0
C670 C 0.11411 0.47943 0.19453 0.0
C671 C 0.1118 0.47985 0.14761 0.0
H672 H 0.20418 0.09577 0.14298 0.0
H673 H 0.23216 0.05613 0.18979 0.0
H674 H 0.18548 0.07751 0.10765 0.0
H675 H 0.2132 0.03785 0.15588 0.0
H676 H 0.18566 0.00973 0.05075 0.0
H677 H 0.20436 0.02839 0.08418 0.0
H678 H 0.16535 0.05856 0.12445 0.0
H679 H 0.14671 0.04013 0.08957 0.0
C680 C 0.20627 0.08315 0.14606 0.0
C681 C 0.21968 0.0774 0.1691 0.0
C682 C 0.19549 0.07266 0.12599 0.0
C683 C 0.19781 0.05617 0.12879 0.0
C684 C 0.21117 0.05046 0.15229 0.0
C685 C 0.222 0.06094 0.17204 0.0
C686 C 0.18108 0.02037 0.06662 0.0
C687 C 0.1647 0.02344 0.0675 0.0
C688 C 0.1918 0.03103 0.0861 0.0
C689 C 0.18639 0.04497 0.10727 0.0
C690 C 0.16998 0.04807 0.10792 0.0
C691 C 0.15927 0.03745 0.08811 0.0
H692 H 0.19705 0.89427 0.3098 0.0
H693 H 0.23482 0.92612 0.34875 0.0
H694 H 0.17756 0.91283 0.33971 0.0
H695 H 0.21539 0.94443 0.38039 0.0
H696 H 0.17582 0.98102 0.39157 0.0
H697 H 0.19531 0.9627 0.36037 0.0
H698 H 0.16732 0.92313 0.40823 0.0
H699 H 0.14754 0.94147 0.43772 0.0
C700 C 0.20119 0.9052 0.32507 0.0
C701 C 0.21747 0.90873 0.32686 0.0
C702 C 0.19002 0.91581 0.34253 0.0
C703 C 0.19486 0.93015 0.36269 0.0
C704 C 0.21118 0.93364 0.36451 0.0
C705 C 0.22234 0.9231 0.3466 0.0
C706 C 0.17384 0.9684 0.39543 0.0
C707 C 0.16012 0.9627 0.41701 0.0
C708 C 0.18508 0.95788 0.37777 0.0
C709 C 0.18293 0.94139 0.38169 0.0
C710 C 0.16925 0.93572 0.40377 0.0
C711 C 0.15794 0.94625 0.42099 0.0
H712 H 0.34534 0.95061 0.59646 0.0
H713 H 0.30695 0.98134 0.55536 0.0
H714 H 0.32633 0.9327 0.63187 0.0
H715 H 0.28789 0.96318 0.58933 0.0
H716 H 0.25927 0.93633 0.69485 0.0
H717 H 0.27865 0.9542 0.66111 0.0
H718 H 0.30601 0.91394 0.61506 0.0
H719 H 0.28688 0.8961 0.65022 0.0
C720 C 0.33282 0.95348 0.59466 0.0
C721 C 0.32766 0.96742 0.57319 0.0
C722 C 0.3219 0.94316 0.61476 0.0
C723 C 0.30554 0.94648 0.61357 0.0
C724 C 0.3004 0.96037 0.59166 0.0
C725 C 0.31133 0.97074 0.57188 0.0
C726 C 0.26944 0.9313 0.67762 0.0
C727 C 0.27153 0.9148 0.67523 0.0
C728 C 0.28052 0.94155 0.65798 0.0
C729 C 0.29389 0.93554 0.63513 0.0
C730 C 0.29598 0.91901 0.63291 0.0
C731 C 0.28496 0.90876 0.65287 0.0
H732 H 0.26257 0.07088 0.84894 0.0
H733 H 0.30259 0.09866 0.8034 0.0
H734 H 0.28062 0.0513 0.88086 0.0
H735 H 0.32066 0.07881 0.83374 0.0
H736 H 0.34884 0.04894 0.93346 0.0
H737 H 0.33054 0.06858 0.90306 0.0
H738 H 0.29885 0.03106 0.86078 0.0
H739 H 0.31689 0.01149 0.89277 0.0
C740 C 0.27523 0.07273 0.8454 0.0
C741 C 0.28115 0.08634 0.82373 0.0
C742 C 0.2856 0.06145 0.86349 0.0
C743 C 0.30214 0.06344 0.85995 0.0
C744 C 0.30802 0.07701 0.83786 0.0
C745 C 0.29765 0.08835 0.82016 0.0
C746 C 0.33794 0.0449 0.91775 0.0
C747 C 0.33431 0.02866 0.91558 0.0
C748 C 0.32749 0.05615 0.90001 0.0
C749 C 0.3132 0.05144 0.87927 0.0
C750 C 0.3096 0.03516 0.87711 0.0
C751 C 0.31999 0.02392 0.89523 0.0
H752 H 0.83871 0.96297 0.89156 0.0
H753 H 0.86768 0.92419 0.93946 0.0
H754 H 0.81981 0.94409 0.85986 0.0
H755 H 0.8486 0.90531 0.90863 0.0
H756 H 0.81964 0.87661 0.80577 0.0
H757 H 0.83873 0.89542 0.83679 0.0
H758 H 0.80022 0.92488 0.88434 0.0
H759 H 0.78113 0.90624 0.85244 0.0
C760 C 0.84103 0.95042 0.89543 0.0
C761 C 0.85471 0.94509 0.918 0.0
C762 C 0.83014 0.93959 0.87751 0.0
C763 C 0.83267 0.92318 0.8818 0.0
C764 C 0.84639 0.91786 0.90423 0.0
C765 C 0.85729 0.92869 0.92211 0.0
C766 C 0.81524 0.88709 0.8229 0.0
C767 C 0.79886 0.88994 0.82658 0.0
C768 C 0.82619 0.89784 0.84089 0.0
C769 C 0.82102 0.91167 0.86301 0.0
C770 C 0.80462 0.91446 0.86692 0.0
C771 C 0.79367 0.90372 0.84889 0.0
H772 H 0.82573 0.03421 0.55629 0.0
H773 H 0.86352 0.06621 0.59375 0.0
H774 H 0.80624 0.0531 0.58419 0.0
H775 H 0.84413 0.0848 0.6241 0.0
H776 H 0.80532 0.12175 0.63603 0.0
H777 H 0.82459 0.10315 0.60503 0.0
H778 H 0.79526 0.06401 0.64934 0.0
H779 H 0.77566 0.08266 0.6779 0.0
C780 C 0.82987 0.04523 0.57102 0.0
C781 C 0.84615 0.04874 0.57282 0.0
C782 C 0.81869 0.05605 0.58734 0.0
C783 C 0.82353 0.07054 0.60665 0.0
C784 C 0.83988 0.07394 0.60873 0.0
C785 C 0.85104 0.06323 0.59164 0.0
C786 C 0.803 0.10916 0.63891 0.0
C787 C 0.78897 0.10366 0.65923 0.0
C788 C 0.81411 0.09846 0.62146 0.0
C789 C 0.81158 0.08199 0.62465 0.0
C790 C 0.79753 0.07656 0.64532 0.0
C791 C 0.7863 0.08726 0.66201 0.0
H792 H 0.71505 0.08094 0.30653 0.0
H793 H 0.68508 0.11946 0.35081 0.0
H794 H 0.69592 0.06191 0.33571 0.0
H795 H 0.6663 0.10049 0.38241 0.0
H796 H 0.62804 0.06292 0.39533 0.0
H797 H 0.64692 0.08185 0.36405 0.0
H798 H 0.68558 0.05074 0.40134 0.0
H799 H 0.66658 0.03151 0.43018 0.0
C800 C 0.70444 0.08533 0.32306 0.0
C801 C 0.70156 0.10168 0.32636 0.0
C802 C 0.69349 0.07442 0.34011 0.0
C803 C 0.6795 0.07959 0.36165 0.0
C804 C 0.67674 0.09601 0.36532 0.0
C805 C 0.68758 0.10691 0.34751 0.0
C806 C 0.64058 0.06014 0.39666 0.0
C807 C 0.64583 0.04572 0.41503 0.0
C808 C 0.65145 0.07105 0.37903 0.0
C809 C 0.66786 0.06791 0.38011 0.0
C810 C 0.67306 0.05349 0.39895 0.0
C811 C 0.66217 0.04247 0.41581 0.0
H812 H 0.67158 0.87565 0.19057 0.0
H813 H 0.711 0.90368 0.14199 0.0
H814 H 0.65308 0.89478 0.1584 0.0
H815 H 0.6925 0.92263 0.10897 0.0
H816 H 0.65528 0.96186 0.09979 0.0
H817 H 0.67356 0.94263 0.13249 0.0
H818 H 0.64351 0.90443 0.08596 0.0
H819 H 0.62504 0.92366 0.05413 0.0
C820 C 0.6763 0.88584 0.17277 0.0
C821 C 0.69277 0.88815 0.1689 0.0
C822 C 0.66569 0.89677 0.15413 0.0
C823 C 0.67131 0.91026 0.13116 0.0
C824 C 0.68778 0.9125 0.12703 0.0
C825 C 0.69839 0.90157 0.14571 0.0
C826 C 0.65255 0.94936 0.09663 0.0
C827 C 0.63869 0.94429 0.07439 0.0
C828 C 0.66309 0.93833 0.11512 0.0
C829 C 0.66003 0.92198 0.11174 0.0
C830 C 0.64613 0.91693 0.08965 0.0
C831 C 0.63558 0.92796 0.0712 0.0
H832 H 0.68558 0.51126 0.54495 0.0
H833 H 0.64476 0.53732 0.59287 0.0
H834 H 0.70306 0.53125 0.57744 0.0
H835 H 0.66224 0.55704 0.62687 0.0
H836 H 0.69757 0.59754 0.64455 0.0
H837 H 0.68007 0.57803 0.60966 0.0
H838 H 0.71245 0.54068 0.64836 0.0
H839 H 0.73019 0.56026 0.68171 0.0
C840 C 0.68034 0.52123 0.56263 0.0
C841 C 0.66378 0.5227 0.56633 0.0
C842 C 0.69037 0.53265 0.58157 0.0
C843 C 0.6841 0.54576 0.60505 0.0
C844 C 0.66751 0.54724 0.60851 0.0
C845 C 0.65747 0.53588 0.58922 0.0
C846 C 0.70094 0.58516 0.64559 0.0
C847 C 0.71528 0.58046 0.66582 0.0
C848 C 0.69086 0.57394 0.62579 0.0
C849 C 0.69482 0.55774 0.62609 0.0
C850 C 0.70913 0.55306 0.64671 0.0
C851 C 0.71927 0.56429 0.66615 0.0
H852 H 0.70111 0.39603 0.8437 0.0
H853 H 0.73129 0.43487 0.80275 0.0
H854 H 0.68246 0.41476 0.87713 0.0
H855 H 0.7124 0.45365 0.83465 0.0
H856 H 0.68419 0.48215 0.93756 0.0
H857 H 0.70271 0.4631 0.90525 0.0
H858 H 0.66333 0.43446 0.85906 0.0
H859 H 0.64484 0.45326 0.89288 0.0
C860 C 0.70369 0.40858 0.84146 0.0
C861 C 0.7177 0.41396 0.82068 0.0
C862 C 0.69295 0.41934 0.86042 0.0
C863 C 0.6959 0.43575 0.85873 0.0
C864 C 0.70985 0.4411 0.83739 0.0
C865 C 0.72065 0.43034 0.81878 0.0
C866 C 0.67949 0.47177 0.9206 0.0
C867 C 0.66304 0.46922 0.91782 0.0
C868 C 0.69011 0.46088 0.90176 0.0
C869 C 0.68455 0.44724 0.8793 0.0
C870 C 0.66807 0.4447 0.87663 0.0
C871 C 0.65745 0.45553 0.89583 0.0
H872 H 0.7907 0.39541 0.14697 0.0
H873 H 0.76032 0.43423 0.18684 0.0
H874 H 0.80907 0.41411 0.11212 0.0
H875 H 0.77893 0.45297 0.15346 0.0
H876 H 0.80666 0.48121 0.04919 0.0
H877 H 0.78836 0.46205 0.08208 0.0
H878 H 0.82808 0.43413 0.12914 0.0
H879 H 0.84635 0.45303 0.09479 0.0
C880 C 0.78802 0.40795 0.14865 0.0
C881 C 0.77403 0.41333 0.16959 0.0
C882 C 0.7986 0.4187 0.12886 0.0
C883 C 0.7955 0.43508 0.12983 0.0
C884 C 0.78158 0.44044 0.15127 0.0
C885 C 0.77094 0.42969 0.17074 0.0
C886 C 0.81148 0.47095 0.06641 0.0
C887 C 0.82796 0.46865 0.06937 0.0
C888 C 0.80098 0.46001 0.08559 0.0
C889 C 0.80671 0.44655 0.10855 0.0
C890 C 0.82322 0.44422 0.11122 0.0
C891 C 0.83371 0.45511 0.09171 0.0
H892 H 0.79236 0.59696 0.34789 0.0
H893 H 0.7647 0.55669 0.30373 0.0
H894 H 0.81183 0.57915 0.38147 0.0
H895 H 0.78444 0.53885 0.3357 0.0
H896 H 0.81361 0.51136 0.43832 0.0
H897 H 0.79422 0.52951 0.40603 0.0
H898 H 0.83217 0.56072 0.36392 0.0
H899 H 0.85149 0.54282 0.39782 0.0
C900 C 0.79052 0.5843 0.34496 0.0
C901 C 0.77696 0.57824 0.32326 0.0
C902 C 0.80174 0.57406 0.36401 0.0
C903 C 0.79974 0.55752 0.36144 0.0
C904 C 0.78625 0.5515 0.33915 0.0
C905 C 0.77496 0.56174 0.32049 0.0
C906 C 0.8178 0.52212 0.42227 0.0
C907 C 0.83409 0.52565 0.42066 0.0
C908 C 0.80669 0.53249 0.40343 0.0
C909 C 0.81159 0.54659 0.3821 0.0
C910 C 0.82791 0.55011 0.38061 0.0
C911 C 0.83902 0.5398 0.39985 0.0
H912 H 0.37142 0.4295 0.43043 0.0
H913 H 0.34002 0.4668 0.3855 0.0
H914 H 0.35306 0.40971 0.40077 0.0
H915 H 0.32184 0.44703 0.3549 0.0
H916 H 0.28505 0.40727 0.35042 0.0
H917 H 0.3035 0.42687 0.3806 0.0
H918 H 0.34294 0.39932 0.32997 0.0
H919 H 0.3245 0.37953 0.30071 0.0
C920 C 0.36065 0.43349 0.41394 0.0
C921 C 0.35717 0.44973 0.41039 0.0
C922 C 0.35016 0.42214 0.39673 0.0
C923 C 0.33596 0.42677 0.3755 0.0
C924 C 0.33255 0.44304 0.37166 0.0
C925 C 0.34303 0.45438 0.38894 0.0
C926 C 0.29766 0.40537 0.34582 0.0
C927 C 0.3033 0.39183 0.32319 0.0
C928 C 0.30824 0.41666 0.36286 0.0
C929 C 0.32471 0.4147 0.3576 0.0
C930 C 0.33034 0.40111 0.33511 0.0
C931 C 0.31976 0.3898 0.31814 0.0
H932 H 0.31575 0.61885 0.15037 0.0
H933 H 0.28377 0.58069 0.18453 0.0
H934 H 0.33414 0.59989 0.11695 0.0
H935 H 0.30248 0.56158 0.15363 0.0
H936 H 0.33158 0.53216 0.05613 0.0
H937 H 0.31308 0.55144 0.08712 0.0
H938 H 0.35254 0.58013 0.1329 0.0
H939 H 0.37096 0.5612 0.09942 0.0
C940 C 0.31274 0.60637 0.15109 0.0
C941 C 0.29831 0.60126 0.16988 0.0
C942 C 0.32333 0.59545 0.13223 0.0
C943 C 0.31988 0.57911 0.13251 0.0
C944 C 0.30546 0.57405 0.1518 0.0
C945 C 0.29474 0.585 0.16985 0.0
C946 C 0.33627 0.5426 0.07284 0.0
C947 C 0.35271 0.54518 0.07534 0.0
C948 C 0.32566 0.55364 0.09093 0.0
C949 C 0.33123 0.56741 0.11279 0.0
C950 C 0.34774 0.56987 0.11561 0.0
C951 C 0.35834 0.55895 0.09672 0.0
H952 H 0.14144 0.53341 0.85843 0.0
H953 H 0.13278 0.56529 0.97052 0.0
H954 H 0.15976 0.55279 0.82512 0.0
H955 H 0.15149 0.58437 0.93777 0.0
H956 H 0.20344 0.59945 0.88167 0.0
H957 H 0.18486 0.58027 0.91474 0.0
H958 H 0.15397 0.58562 0.79915 0.0
H959 H 0.17223 0.60518 0.76658 0.0
C960 C 0.14351 0.54451 0.876 0.0
C961 C 0.13568 0.54788 0.91698 0.0
C962 C 0.15393 0.55556 0.85691 0.0
C963 C 0.15697 0.56996 0.8791 0.0
C964 C 0.14931 0.57329 0.92026 0.0
C965 C 0.1386 0.56242 0.93878 0.0
C966 C 0.19267 0.59655 0.86339 0.0
C967 C 0.18924 0.60382 0.82164 0.0
C968 C 0.18207 0.58564 0.88234 0.0
C969 C 0.1681 0.58155 0.85929 0.0
C970 C 0.16473 0.58862 0.81734 0.0
C971 C 0.17513 0.59982 0.79891 0.0
H972 H 0.12484 0.43028 0.59908 0.0
H973 H 0.16318 0.46125 0.55925 0.0
H974 H 0.14388 0.41189 0.63209 0.0
H975 H 0.18232 0.44253 0.58978 0.0
H976 H 0.21247 0.41362 0.6856 0.0
H977 H 0.19306 0.43224 0.65591 0.0
H978 H 0.16315 0.39304 0.61513 0.0
H979 H 0.18222 0.37453 0.64731 0.0
C980 C 0.13737 0.43308 0.59707 0.0
C981 C 0.14253 0.44722 0.57674 0.0
C982 C 0.14833 0.42248 0.61568 0.0
C983 C 0.16473 0.42563 0.61364 0.0
C984 C 0.16982 0.43979 0.59295 0.0
C985 C 0.15885 0.45051 0.57512 0.0
C986 C 0.20173 0.40901 0.67031 0.0
C987 C 0.19886 0.39263 0.66878 0.0
C988 C 0.19061 0.41969 0.65296 0.0
C989 C 0.17647 0.41423 0.63284 0.0
C990 C 0.17371 0.39777 0.63108 0.0
C991 C 0.18471 0.38711 0.64923 0.0
H992 H 0.2197 0.21277 0.30052 0.0
H993 H 0.25668 0.21787 0.40107 0.0
H994 H 0.21727 0.24143 0.29595 0.0
H995 H 0.25401 0.24666 0.39706 0.0
H996 H 0.25937 0.29533 0.32306 0.0
H997 H 0.26029 0.26723 0.34181 0.0
H998 H 0.2091 0.26506 0.3366 0.0
H999 H 0.20817 0.2931 0.31693 0.0
C1000 C 0.22718 0.22 0.32211 0.0
C1001 C 0.23847 0.21301 0.35091 0.0
C1002 C 0.2257 0.23646 0.31973 0.0
C1003 C 0.23546 0.24636 0.34611 0.0
C1004 C 0.24644 0.23937 0.37591 0.0
C1005 C 0.24792 0.22287 0.37834 0.0
C1006 C 0.24829 0.28892 0.32654 0.0
C1007 C 0.23371 0.29642 0.31794 0.0
C1008 C 0.24882 0.27281 0.33753 0.0
C1009 C 0.23477 0.26385 0.34024 0.0
C1010 C 0.22015 0.27156 0.33395 0.0
C1011 C 0.21962 0.28766 0.32292 0.0
H1012 H 0.02134 0.01228 0.58404 0.0
H1013 H 0.02673 0.96167 0.60039 0.0
H1014 H 0.99276 0.00901 0.57774 0.0
H1015 H -0.00198 0.95843 0.59529 0.0
H1016 H 0.95108 0.95824 0.51372 0.0
H1017 H 0.97881 0.96027 0.53531 0.0
H1018 H 0.96826 0.00198 0.615 0.0
H1019 H 0.94044 0.00017 0.59233 0.0
C1020 C 0.01641 0.00047 0.58705 0.0
C1021 C 0.02635 0.98722 0.59219 0.0
C1022 C -3e-05 -0.00139 0.58376 0.0
C1023 C 0.99307 0.98344 0.58571 0.0
C1024 C 0.00297 0.97025 0.59288 0.0
C1025 C 0.01942 0.97212 0.59602 0.0
C1026 C 0.9546 0.96775 0.53628 0.0
C1027 C 0.94356 0.97914 0.55092 0.0
C1028 C 0.97053 0.96885 0.54896 0.0
C1029 C 0.97581 0.98134 0.57673 0.0
C1030 C 0.96463 0.99235 0.593 0.0
C1031 C 0.94867 0.99126 0.58022 0.0
H1032 H 0.23861 0.69602 0.84052 0.0
H1033 H 0.28018 0.70689 0.76048 0.0
H1034 H 0.23667 0.72382 0.86295 0.0
H1035 H 0.278 0.73461 0.78178 0.0
H1036 H 0.27668 0.78243 0.8475 0.0
H1037 H 0.28004 0.75379 0.8416 0.0
H1038 H 0.22933 0.74825 0.82635 0.0
H1039 H 0.22594 0.77677 0.83351 0.0
C1040 C 0.24739 0.7043 0.82799 0.0
C1041 C 0.25947 0.69925 0.79844 0.0
C1042 C 0.24623 0.72025 0.84063 0.0
C1043 C 0.25711 0.73149 0.82394 0.0
C1044 C 0.26952 0.72628 0.79577 0.0
C1045 C 0.27071 0.71037 0.78326 0.0
C1046 C 0.26623 0.77508 0.84343 0.0
C1047 C 0.25106 0.7819 0.84056 0.0
C1048 C 0.26817 0.75866 0.83983 0.0
C1049 C 0.25497 0.74871 0.83311 0.0
C1050 C 0.23975 0.75551 0.83201 0.0
C1051 C 0.23781 0.77191 0.83579 0.0
H1052 H 0.4722 0.97764 0.08085 0.0
H1053 H 0.46451 0.02779 0.10116 0.0
H1054 H 0.5006 0.98229 0.07446 0.0
H1055 H 0.49303 0.03239 0.09596 0.0
H1056 H 0.53971 0.03543 0.01351 0.0
H1057 H 0.51215 0.03195 0.03544 0.0
H1058 H 0.5248 0.99016 0.11202 0.0
H1059 H 0.55245 0.99343 0.08901 0.0
C1060 C 0.47659 0.98963 0.08472 0.0
C1061 C 0.46606 0.00236 0.09097 0.0
C1062 C 0.49291 0.99229 0.08138 0.0
C1063 C 0.49911 0.00774 0.08439 0.0
C1064 C 0.48863 0.02038 0.09271 0.0
C1065 C 0.47229 0.01773 0.0959 0.0
C1066 C 0.53668 0.02559 0.03547 0.0
C1067 C 0.54827 0.01461 0.04911 0.0
C1068 C 0.52086 0.02366 0.04834 0.0
C1069 C 0.51622 0.01072 0.07531 0.0
C1070 C 0.52793 0.00012 0.09063 0.0
C1071 C 0.54379 0.00204 0.07766 0.0
H1072 H 0.20897 0.70317 0.23945 0.0
H1073 H 0.2491 0.691 0.15504 0.0
H1074 H 0.21152 0.73075 0.21705 0.0
H1075 H 0.25141 0.71866 0.1316 0.0
H1076 H 0.2639 0.77144 0.15931 0.0
H1077 H 0.25987 0.74302 0.16714 0.0
H1078 H 0.20917 0.74977 0.15675 0.0
H1079 H 0.21318 0.77831 0.1501 0.0
C1080 C 0.21818 0.70633 0.21549 0.0
C1081 C 0.22892 0.69489 0.19939 0.0
C1082 C 0.21958 0.72216 0.20236 0.0
C1083 C 0.23172 0.72697 0.17266 0.0
C1084 C 0.24207 0.71541 0.15507 0.0
C1085 C 0.24069 0.69954 0.16829 0.0
C1086 C 0.25189 0.76687 0.1582 0.0
C1087 C 0.23885 0.77717 0.1546 0.0
C1088 C 0.24959 0.75053 0.16238 0.0
C1089 C 0.23419 0.7441 0.16288 0.0
C1090 C 0.22118 0.75436 0.15727 0.0
C1091 C 0.22348 0.77071 0.15323 0.0
H1092 H 0.47094 0.01532 0.40714 0.0
H1093 H 0.46296 0.96473 0.40339 0.0
H1094 H 0.49934 0.01081 0.41472 0.0
H1095 H 0.49144 0.96022 0.40977 0.0
H1096 H 0.53845 0.95986 0.49025 0.0
H1097 H 0.51077 0.96293 0.46916 0.0
H1098 H 0.52339 0.00134 0.37915 0.0
H1099 H 0.55119 -0.00148 0.40125 0.0
C1100 C 0.47526 0.00323 0.40722 0.0
C1101 C 0.46465 0.99039 0.40518 0.0
C1102 C 0.49158 0.00064 0.41124 0.0
C1103 C 0.49769 0.98514 0.41316 0.0
C1104 C 0.48712 0.97231 0.40919 0.0
C1105 C 0.47079 0.97489 0.40532 0.0
C1106 C 0.53538 0.96887 0.46559 0.0
C1107 C 0.54703 0.97904 0.44774 0.0
C1108 C 0.51948 0.97056 0.45323 0.0
C1109 C 0.51482 0.98243 0.42256 0.0
C1110 C 0.52655 0.99223 0.40337 0.0
C1111 C 0.54249 0.99055 0.41582 0.0
H1112 H 0.26937 0.30365 0.65182 0.0
H1113 H 0.22135 0.29779 0.70058 0.0
H1114 H 0.26963 0.27604 0.62708 0.0
H1115 H 0.22174 0.2702 0.67674 0.0
H1116 H 0.22305 0.22294 0.60666 0.0
H1117 H 0.22275 0.25176 0.61342 0.0
H1118 H 0.27051 0.25074 0.66659 0.0
H1119 H 0.27094 0.22203 0.65904 0.0
C1120 C 0.25881 0.29654 0.65681 0.0
C1121 C 0.24539 0.30289 0.67857 0.0
C1122 C 0.259 0.28069 0.64286 0.0
C1123 C 0.24576 0.27086 0.65029 0.0
C1124 C 0.23209 0.27745 0.67008 0.0
C1125 C 0.2319 0.29328 0.68403 0.0
C1126 C 0.23356 0.22888 0.61924 0.0
C1127 C 0.24697 0.22016 0.63271 0.0
C1128 C 0.23336 0.2454 0.6233 0.0
C1129 C 0.24656 0.25356 0.64083 0.0
C1130 C 0.2602 0.24487 0.65249 0.0
C1131 C 0.2604 0.22837 0.64846 0.0
H1132 H 0.02543 0.97968 0.90673 0.0
H1133 H 0.0322 0.03015 0.89077 0.0
H1134 H 0.99698 0.98374 0.91412 0.0
H1135 H 0.00362 0.03418 0.89692 0.0
H1136 H 0.95699 0.03563 0.97965 0.0
H1137 H 0.98458 0.03283 0.95733 0.0
H1138 H 0.97256 0.99146 0.87785 0.0
H1139 H 0.94489 0.99403 0.9013 0.0
C1140 C 0.02082 0.99163 0.90404 0.0
C1141 C 0.03111 0.00461 0.8987 0.0
C1142 C 0.00446 0.99395 0.90795 0.0
C1143 C -0.00201 0.0093 0.90641 0.0
C1144 C 0.00823 0.02222 0.89904 0.0
C1145 C 0.02461 0.01991 0.8953 0.0
C1146 C 0.96016 0.02603 0.957 0.0
C1147 C 0.94875 0.01496 0.94264 0.0
C1148 C 0.97601 0.02448 0.94391 0.0
C1149 C 0.98084 0.01186 0.91595 0.0
C1150 C 0.96929 0.00117 0.89999 0.0
C1151 C 0.95341 0.0027 0.91321 0.0
H1152 H 0.72746 0.80045 0.83643 0.0
H1153 H 0.77564 0.79486 0.78869 0.0
H1154 H 0.72699 0.77262 0.85901 0.0
H1155 H 0.77505 0.76706 0.81049 0.0
H1156 H 0.77323 0.71947 0.87939 0.0
H1157 H 0.7737 0.74831 0.87326 0.0
H1158 H 0.72628 0.74756 0.81762 0.0
H1159 H 0.72569 0.71881 0.82445 0.0
C1160 C 0.73801 0.79335 0.8312 0.0
C1161 C 0.75154 0.79985 0.81039 0.0
C1162 C 0.7377 0.77738 0.8439 0.0
C1163 C 0.75093 0.76758 0.83621 0.0
C1164 C 0.7647 0.77429 0.8173 0.0
C1165 C 0.765 0.79023 0.80454 0.0
C1166 C 0.76283 0.72547 0.86634 0.0
C1167 C 0.74947 0.71682 0.85206 0.0
C1168 C 0.76313 0.74199 0.86265 0.0
C1169 C 0.75006 0.75023 0.84472 0.0
C1170 C 0.73648 0.74161 0.83205 0.0
C1171 C 0.73619 0.7251 0.83567 0.0
H1172 H 0.78418 0.2821 0.34401 0.0
H1173 H 0.73358 0.27388 0.34002 0.0
H1174 H 0.78883 0.25366 0.33731 0.0
H1175 H 0.73822 0.24557 0.33207 0.0
H1176 H 0.75029 0.19388 0.34214 0.0
H1177 H 0.74768 0.22144 0.36641 0.0
H1178 H 0.78628 0.23455 0.27742 0.0
H1179 H 0.78914 0.20708 0.25422 0.0
C1180 C 0.77405 0.27422 0.34202 0.0
C1181 C 0.75851 0.28028 0.34209 0.0
C1182 C 0.77672 0.25793 0.33796 0.0
C1183 C 0.76391 0.24732 0.33373 0.0
C1184 C 0.74837 0.25334 0.33575 0.0
C1185 C 0.7457 0.26962 0.33998 0.0
C1186 C 0.75836 0.20262 0.32831 0.0
C1187 C 0.76983 0.1983 0.29596 0.0
C1188 C 0.75681 0.21843 0.34201 0.0
C1189 C 0.76669 0.23025 0.32362 0.0
C1190 C 0.77858 0.22577 0.29273 0.0
C1191 C 0.78016 0.20999 0.27915 0.0
H1192 H 0.76598 0.27615 0.6027 0.0
H1193 H 0.72022 0.27817 0.6687 0.0
H1194 H 0.76556 0.24729 0.60772 0.0
H1195 H 0.71995 0.24939 0.67443 0.0
H1196 H 0.71871 0.1966 0.65504 0.0
H1197 H 0.71858 0.22446 0.63279 0.0
H1198 H 0.76809 0.22825 0.66928 0.0
H1199 H 0.76831 0.20041 0.69067 0.0
C1200 C 0.75577 0.27045 0.61794 0.0
C1201 C 0.74319 0.27948 0.63565 0.0
C1202 C 0.75557 0.2539 0.62099 0.0
C1203 C 0.74277 0.24603 0.64172 0.0
C1204 C 0.72992 0.25505 0.6578 0.0
C1205 C 0.73012 0.27158 0.6548 0.0
C1206 C 0.72963 0.20332 0.65764 0.0
C1207 C 0.74349 0.19631 0.67503 0.0
C1208 C 0.72952 0.21931 0.64514 0.0
C1209 C 0.74328 0.22863 0.64964 0.0
C1210 C 0.75732 0.2214 0.66498 0.0
C1211 C 0.75742 0.20544 0.67751 0.0
H1212 H 0.72607 0.71783 0.16671 0.0
H1213 H 0.77652 0.71103 0.1491 0.0
H1214 H 0.73019 0.74628 0.17352 0.0
H1215 H 0.78061 0.73958 0.15473 0.0
H1216 H 0.78243 0.78644 0.23622 0.0
H1217 H 0.77945 0.75878 0.21498 0.0
H1218 H 0.73788 0.77054 0.13604 0.0
H1219 H 0.74065 0.79829 0.15835 0.0
C1220 C 0.73802 0.72243 0.16356 0.0
C1221 C 0.75098 0.71213 0.15787 0.0
C1222 C 0.74038 0.73878 0.16714 0.0
C1223 C 0.75575 0.74523 0.16495 0.0
C1224 C 0.76864 0.73498 0.15733 0.0
C1225 C 0.76629 0.71862 0.15389 0.0
C1226 C 0.77274 0.78319 0.21392 0.0
C1227 C 0.76169 0.79456 0.19935 0.0
C1228 C 0.77109 0.7673 0.20145 0.0
C1229 C 0.75837 0.76239 0.17396 0.0
C1230 C 0.74768 0.77388 0.15783 0.0
C1231 C 0.74931 0.7898 0.1704 0.0
H1232 H 0.52336 0.51118 0.08456 0.0
H1233 H 0.53096 0.46055 0.08828 0.0
H1234 H 0.49496 0.50687 0.07657 0.0
H1235 H 0.50244 0.45622 0.08152 0.0
H1236 H 0.45573 0.45643 -0.00098 0.0
H1237 H 0.4833 0.45904 0.02174 0.0
H1238 H 0.47073 0.49765 0.11118 0.0
H1239 H 0.44306 0.49531 0.08741 0.0
C1240 C 0.51895 0.49912 0.08443 0.0
C1241 C 0.52946 0.48621 0.08652 0.0
C1242 C 0.50262 0.49664 0.08018 0.0
C1243 C 0.4964 0.48119 0.0781 0.0
C1244 C 0.50686 0.46828 0.08223 0.0
C1245 C 0.52321 0.47076 0.08632 0.0
C1246 C 0.45878 0.46537 0.02393 0.0
C1247 C 0.4472 0.47577 0.04104 0.0
C1248 C 0.47461 0.46679 0.03724 0.0
C1249 C 0.47928 0.47861 0.06814 0.0
C1250 C 0.46758 0.48858 0.08677 0.0
C1251 C 0.45171 0.48718 0.07336 0.0
H1252 H 0.97074 0.52189 0.57535 0.0
H1253 H 0.97133 0.47608 0.64089 0.0
H1254 H -0.00054 0.52085 0.56721 0.0
H1255 H 0.00015 0.4752 0.63347 0.0
H1256 H 0.04598 0.47022 0.54658 0.0
H1257 H 0.01837 0.4718 0.57023 0.0
H1258 H 0.02492 0.52101 0.60641 0.0
H1259 H 0.05255 0.51952 0.5819 0.0
C1260 C 0.97701 0.5117 0.58866 0.0
C1261 C 0.96871 0.49899 0.60835 0.0
C1262 C 0.99352 0.51116 0.58427 0.0
C1263 C 0.00211 0.4979 0.59946 0.0
C1264 C 0.99386 0.48548 0.62082 0.0
C1265 C 0.97734 0.48602 0.62526 0.0
C1266 C 0.04161 0.48134 0.56012 0.0
C1267 C 0.05144 0.49479 0.56191 0.0
C1268 C 0.02578 0.48222 0.57396 0.0
C1269 C 0.01939 0.49657 0.58994 0.0
C1270 C 0.02941 0.50984 0.59362 0.0
C1271 C 0.04528 0.50896 0.57982 0.0
H1272 H 0.04061 0.52351 0.94928 0.0
H1273 H 0.04636 0.47468 0.90795 0.0
H1274 H 0.01275 0.52244 0.92777 0.0
H1275 H 0.01849 0.47372 0.88567 0.0
H1276 H 0.96471 0.47276 0.92196 0.0
H1277 H 0.99352 0.47357 0.92778 0.0
H1278 H 0.99385 0.51991 0.86546 0.0
H1279 H 0.96496 0.51923 0.86029 0.0
C1280 C 0.03601 0.51262 0.93487 0.0
C1281 C 0.04568 0.49913 0.93079 0.0
C1282 C 0.02003 0.51204 0.92227 0.0
C1283 C 0.01336 0.49795 0.90531 0.0
C1284 C 0.02322 0.48468 0.89928 0.0
C1285 C 0.03921 0.48526 0.9118 0.0
C1286 C 0.97092 0.48306 0.90903 0.0
C1287 C 0.96251 0.496 0.89108 0.0
C1288 C 0.98746 0.48348 0.91208 0.0
C1289 C 0.99598 0.49684 0.89728 0.0
C1290 C 0.98761 0.50953 0.87773 0.0
C1291 C 0.97106 0.5091 0.87459 0.0
H1292 H 0.52737 0.47374 0.35507 0.0
H1293 H 0.52954 0.51992 0.41839 0.0
H1294 H 0.49848 0.47422 0.36043 0.0
H1295 H 0.50073 0.52025 0.42443 0.0
H1296 H 0.44786 0.52138 0.40481 0.0
H1297 H 0.47576 0.52132 0.38263 0.0
H1298 H 0.47948 0.47219 0.4225 0.0
H1299 H 0.45159 0.47215 0.44387 0.0
C1300 C 0.52169 0.48405 0.36979 0.0
C1301 C 0.53078 0.49674 0.38665 0.0
C1302 C 0.50514 0.48428 0.37304 0.0
C1303 C 0.4973 0.49722 0.3931 0.0
C1304 C 0.50637 0.51017 0.40833 0.0
C1305 C 0.52291 0.50993 0.40516 0.0
C1306 C 0.45457 0.5105 0.4082 0.0
C1307 C 0.44752 0.49681 0.4265 0.0
C1308 C 0.47058 0.5105 0.39573 0.0
C1309 C 0.47988 0.4968 0.40116 0.0
C1310 C 0.47263 0.48291 0.41747 0.0
C1311 C 0.45664 0.48292 0.42999 0.0
loop_
_geom_bond_atom_site_label_1
_geom_bond_atom_site_label_2
_geom_bond_distance
_geom_bond_site_symmetry_2
_ccdc_geom_bond_type
O0 Cd1 2.300 . S
O0 C7 1.275 . S
Cd1 O0 2.300 . S
Cd1 O9 2.381 . S
Cd1 O10 2.378 . S
O2 Cd3 2.385 . S
O2 C7 1.255 . S
Cd3 O2 2.385 . S
Cd3 O4 2.317 . S
O4 Cd3 2.317 . S
O4 C5 1.232 . S
C5 O4 1.232 . S
C5 O6 1.218 . S
O6 C5 1.218 . S
C7 O0 1.275 . S
C7 O2 1.255 . S
C8 O9 1.258 . S
C8 O10 1.256 . S
O9 Cd1 2.381 . S
O9 C8 1.258 . S
O10 Cd1 2.378 . S
O10 C8 1.256 . S
O11 Cd12 2.300 . S
O11 C18 1.275 . S
Cd12 O11 2.300 . S
Cd12 O20 2.381 . S
Cd12 O21 2.378 . S
O13 Cd14 2.385 . S
O13 C18 1.255 . S
Cd14 O13 2.385 . S
Cd14 O15 2.317 . S
O15 Cd14 2.317 . S
O15 C16 1.232 . S
C16 O15 1.232 . S
C16 O17 1.218 . S
O17 C16 1.218 . S
C18 O11 1.275 . S
C18 O13 1.255 . S
C19 O20 1.258 . S
C19 O21 1.256 . S
O20 Cd12 2.381 . S
O20 C19 1.258 . S
O21 Cd12 2.378 . S
O21 C19 1.256 . S
O22 Cd23 2.300 . S
O22 C29 1.275 . S
Cd23 O22 2.300 . S
Cd23 O31 2.381 . S
Cd23 O32 2.378 . S
O24 Cd25 2.385 . S
O24 C29 1.255 . S
Cd25 O24 2.385 . S
Cd25 O26 2.317 . S
O26 Cd25 2.317 . S
O26 C27 1.232 . S
C27 O26 1.232 . S
C27 O28 1.218 . S
O28 C27 1.218 . S
C29 O22 1.275 . S
C29 O24 1.255 . S
C30 O31 1.258 . S
C30 O32 1.256 . S
O31 Cd23 2.381 . S
O31 C30 1.258 . S
O32 Cd23 2.378 . S
O32 C30 1.256 . S
O33 Cd34 2.300 . S
O33 C40 1.275 . S
Cd34 O33 2.300 . S
Cd34 O42 2.381 1_554 S
Cd34 O43 2.378 1_554 S
O35 Cd36 2.385 . S
O35 C40 1.255 . S
Cd36 O35 2.385 . S
Cd36 O37 2.317 1_554 S
O37 Cd36 2.317 1_556 S
O37 C38 1.232 1_556 S
C38 O37 1.232 1_554 S
C38 O39 1.218 . S
O39 C38 1.218 . S
C40 O33 1.275 . S
C40 O35 1.255 . S
C41 O42 1.258 . S
C41 O43 1.256 . S
O42 Cd34 2.381 1_556 S
O42 C41 1.258 . S
O43 Cd34 2.378 1_556 S
O43 C41 1.256 . S
O44 Cd45 2.300 . S
O44 C51 1.275 . S
Cd45 O44 2.300 . S
Cd45 O53 2.381 . S
Cd45 O54 2.378 . S
O46 Cd47 2.385 . S
O46 C51 1.255 . S
Cd47 O46 2.385 . S
Cd47 O48 2.317 . S
O48 Cd47 2.317 . S
O48 C49 1.232 . S
C49 O48 1.232 . S
C49 O50 1.218 . S
O50 C49 1.218 . S
C51 O44 1.275 . S
C51 O46 1.255 . S
C52 O53 1.258 . S
C52 O54 1.256 . S
O53 Cd45 2.381 . S
O53 C52 1.258 . S
O54 Cd45 2.378 . S
O54 C52 1.256 . S
O55 Cd56 2.300 . S
O55 C62 1.275 . S
Cd56 O55 2.300 . S
Cd56 O64 2.381 . S
Cd56 O65 2.378 . S
O57 Cd58 2.385 . S
O57 C62 1.255 . S
Cd58 O57 2.385 . S
Cd58 O59 2.317 . S
O59 Cd58 2.317 . S
O59 C60 1.232 . S
C60 O59 1.232 . S
C60 O61 1.218 . S
O61 C60 1.218 . S
C62 O55 1.275 . S
C62 O57 1.255 . S
C63 O64 1.258 . S
C63 O65 1.256 . S
O64 Cd56 2.381 . S
O64 C63 1.258 . S
O65 Cd56 2.378 . S
O65 C63 1.256 . S
O66 Cd67 2.300 . S
O66 C73 1.275 . S
Cd67 O66 2.300 . S
Cd67 O75 2.381 . S
Cd67 O76 2.378 . S
O68 Cd69 2.385 . S
O68 C73 1.255 . S
Cd69 O68 2.385 . S
Cd69 O70 2.317 . S
O70 Cd69 2.317 . S
O70 C71 1.232 . S
C71 O70 1.232 . S
C71 O72 1.218 . S
O72 C71 1.218 . S
C73 O66 1.275 . S
C73 O68 1.255 . S
C74 O75 1.258 . S
C74 O76 1.256 . S
O75 Cd67 2.381 . S
O75 C74 1.258 . S
O76 Cd67 2.378 . S
O76 C74 1.256 . S
O77 Cd78 2.300 . S
O77 C84 1.275 . S
Cd78 O77 2.300 . S
Cd78 O86 2.381 1_556 S
Cd78 O87 2.378 1_556 S
O79 Cd80 2.385 . S
O79 C84 1.255 . S
Cd80 O79 2.385 . S
Cd80 O81 2.317 1_556 S
O81 Cd80 2.317 1_554 S
O81 C82 1.232 1_554 S
C82 O81 1.232 1_556 S
C82 O83 1.218 . S
O83 C82 1.218 . S
C84 O77 1.275 . S
C84 O79 1.255 . S
C85 O86 1.258 . S
C85 O87 1.256 . S
O86 Cd78 2.381 1_554 S
O86 C85 1.258 . S
O87 Cd78 2.378 1_554 S
O87 C85 1.256 . S
O88 Cd89 2.300 . S
O88 C95 1.275 . S
Cd89 O88 2.300 . S
Cd89 O97 2.381 . S
Cd89 O98 2.378 . S
O90 Cd91 2.385 . S
O90 C95 1.255 . S
Cd91 O90 2.385 . S
Cd91 O92 2.317 . S
O92 Cd91 2.317 . S
O92 C93 1.232 . S
C93 O92 1.232 . S
C93 O94 1.218 . S
O94 C93 1.218 . S
C95 O88 1.275 . S
C95 O90 1.255 . S
C96 O97 1.258 . S
C96 O98 1.256 . S
O97 Cd89 2.381 . S
O97 C96 1.258 . S
O98 Cd89 2.378 . S
O98 C96 1.256 . S
O99 Cd100 2.300 . S
O99 C106 1.275 . S
Cd100 O99 2.300 . S
Cd100 O108 2.381 . S
Cd100 O109 2.378 . S
O101 Cd102 2.385 . S
O101 C106 1.255 1_565 S
Cd102 O101 2.385 . S
Cd102 O103 2.317 . S
O103 Cd102 2.317 . S
O103 C104 1.232 . S
C104 O103 1.232 . S
C104 O105 1.218 . S
O105 C104 1.218 . S
C106 O99 1.275 . S
C106 O101 1.255 1_545 S
C107 O108 1.258 . S
C107 O109 1.256 . S
O108 Cd100 2.381 . S
O108 C107 1.258 . S
O109 Cd100 2.378 . S
O109 C107 1.256 . S
O110 Cd111 2.300 . S
O110 C117 1.275 . S
Cd111 O110 2.300 . S
Cd111 O119 2.381 . S
Cd111 O120 2.378 . S
O112 Cd113 2.385 . S
O112 C117 1.255 . S
Cd113 O112 2.385 . S
Cd113 O114 2.317 . S
O114 Cd113 2.317 . S
O114 C115 1.232 . S
C115 O114 1.232 . S
C115 O116 1.218 . S
O116 C115 1.218 . S
C117 O110 1.275 . S
C117 O112 1.255 . S
C118 O119 1.258 . S
C118 O120 1.256 . S
O119 Cd111 2.381 . S
O119 C118 1.258 . S
O120 Cd111 2.378 . S
O120 C118 1.256 . S
O121 Cd122 2.300 1_556 S
O121 C128 1.275 . S
Cd122 O121 2.300 1_554 S
Cd122 O130 2.381 . S
Cd122 O131 2.378 . S
O123 Cd124 2.385 1_556 S
O123 C128 1.255 1_545 S
Cd124 O123 2.385 1_554 S
Cd124 O125 2.317 . S
O125 Cd124 2.317 . S
O125 C126 1.232 . S
C126 O125 1.232 . S
C126 O127 1.218 1_554 S
O127 C126 1.218 1_556 S
C128 O121 1.275 . S
C128 O123 1.255 1_565 S
C129 O130 1.258 . S
C129 O131 1.256 . S
O130 Cd122 2.381 . S
O130 C129 1.258 . S
O131 Cd122 2.378 . S
O131 C129 1.256 . S
O132 Cd133 2.300 . S
O132 C139 1.275 . S
Cd133 O132 2.300 . S
Cd133 O141 2.381 . S
Cd133 O142 2.378 . S
O134 Cd135 2.385 . S
O134 C139 1.255 . S
Cd135 O134 2.385 . S
Cd135 O136 2.317 . S
O136 Cd135 2.317 . S
O136 C137 1.232 . S
C137 O136 1.232 . S
C137 O138 1.218 . S
O138 C137 1.218 . S
C139 O132 1.275 . S
C139 O134 1.255 . S
C140 O141 1.258 . S
C140 O142 1.256 . S
O141 Cd133 2.381 . S
O141 C140 1.258 . S
O142 Cd133 2.378 . S
O142 C140 1.256 . S
O143 Cd144 2.300 . S
O143 C150 1.275 . S
Cd144 O143 2.300 . S
Cd144 O152 2.381 . S
Cd144 O153 2.378 . S
O145 Cd146 2.385 . S
O145 C150 1.255 1_565 S
Cd146 O145 2.385 . S
Cd146 O147 2.317 . S
O147 Cd146 2.317 . S
O147 C148 1.232 . S
C148 O147 1.232 . S
C148 O149 1.218 . S
O149 C148 1.218 . S
C150 O143 1.275 . S
C150 O145 1.255 1_545 S
C151 O152 1.258 . S
C151 O153 1.256 . S
O152 Cd144 2.381 . S
O152 C151 1.258 . S
O153 Cd144 2.378 . S
O153 C151 1.256 . S
O154 Cd155 2.300 . S
O154 C161 1.275 . S
Cd155 O154 2.300 . S
Cd155 O163 2.381 . S
Cd155 O164 2.378 . S
O156 Cd157 2.385 . S
O156 C161 1.255 . S
Cd157 O156 2.385 . S
Cd157 O158 2.317 . S
O158 Cd157 2.317 . S
O158 C159 1.232 . S
C159 O158 1.232 . S
C159 O160 1.218 . S
O160 C159 1.218 . S
C161 O154 1.275 . S
C161 O156 1.255 . S
C162 O163 1.258 . S
C162 O164 1.256 . S
O163 Cd155 2.381 . S
O163 C162 1.258 . S
O164 Cd155 2.378 . S
O164 C162 1.256 . S
O165 Cd166 2.300 1_554 S
O165 C172 1.275 . S
Cd166 O165 2.300 1_556 S
Cd166 O174 2.381 . S
Cd166 O175 2.378 . S
O167 Cd168 2.385 1_554 S
O167 C172 1.255 1_545 S
Cd168 O167 2.385 1_556 S
Cd168 O169 2.317 . S
O169 Cd168 2.317 . S
O169 C170 1.232 . S
C170 O169 1.232 . S
C170 O171 1.218 1_556 S
O171 C170 1.218 1_554 S
C172 O165 1.275 . S
C172 O167 1.255 1_565 S
C173 O174 1.258 . S
C173 O175 1.256 . S
O174 Cd166 2.381 . S
O174 C173 1.258 . S
O175 Cd166 2.378 . S
O175 C173 1.256 . S
O176 Cd177 2.300 . S
O176 C183 1.275 . S
Cd177 O176 2.300 . S
Cd177 O185 2.381 . S
Cd177 O186 2.378 . S
O178 Cd179 2.385 . S
O178 C183 1.255 . S
Cd179 O178 2.385 . S
Cd179 O180 2.317 . S
O180 Cd179 2.317 . S
O180 C181 1.232 . S
C181 O180 1.232 . S
C181 O182 1.218 . S
O182 C181 1.218 . S
C183 O176 1.275 . S
C183 O178 1.255 . S
C184 O185 1.258 . S
C184 O186 1.256 . S
O185 Cd177 2.381 . S
O185 C184 1.258 . S
O186 Cd177 2.378 . S
O186 C184 1.256 . S
O187 Cd188 2.300 . S
O187 C194 1.275 . S
Cd188 O187 2.300 . S
Cd188 O196 2.381 1_554 S
Cd188 O197 2.378 1_554 S
O189 Cd190 2.385 . S
O189 C194 1.255 . S
Cd190 O189 2.385 . S
Cd190 O191 2.317 1_554 S
O191 Cd190 2.317 1_556 S
O191 C192 1.232 1_556 S
C192 O191 1.232 1_554 S
C192 O193 1.218 . S
O193 C192 1.218 . S
C194 O187 1.275 . S
C194 O189 1.255 . S
C195 O196 1.258 . S
C195 O197 1.256 . S
O196 Cd188 2.381 1_556 S
O196 C195 1.258 . S
O197 Cd188 2.378 1_556 S
O197 C195 1.256 . S
O198 Cd199 2.300 . S
O198 C205 1.275 . S
Cd199 O198 2.300 . S
Cd199 O207 2.381 . S
Cd199 O208 2.378 . S
O200 Cd201 2.385 . S
O200 C205 1.255 . S
Cd201 O200 2.385 . S
Cd201 O202 2.317 . S
O202 Cd201 2.317 . S
O202 C203 1.232 . S
C203 O202 1.232 . S
C203 O204 1.218 . S
O204 C203 1.218 . S
C205 O198 1.275 . S
C205 O200 1.255 . S
C206 O207 1.258 . S
C206 O208 1.256 . S
O207 Cd199 2.381 . S
O207 C206 1.258 . S
O208 Cd199 2.378 . S
O208 C206 1.256 . S
O209 Cd210 2.300 . S
O209 C216 1.275 . S
Cd210 O209 2.300 . S
Cd210 O218 2.381 . S
Cd210 O219 2.378 . S
O211 Cd212 2.385 . S
O211 C216 1.255 . S
Cd212 O211 2.385 . S
Cd212 O213 2.317 . S
O213 Cd212 2.317 . S
O213 C214 1.232 . S
C214 O213 1.232 . S
C214 O215 1.218 . S
O215 C214 1.218 . S
C216 O209 1.275 . S
C216 O211 1.255 . S
C217 O218 1.258 . S
C217 O219 1.256 . S
O218 Cd210 2.381 . S
O218 C217 1.258 . S
O219 Cd210 2.378 . S
O219 C217 1.256 . S
O220 Cd221 2.300 . S
O220 C227 1.275 . S
Cd221 O220 2.300 . S
Cd221 O229 2.381 . S
Cd221 O230 2.378 . S
O222 Cd223 2.385 . S
O222 C227 1.255 . S
Cd223 O222 2.385 . S
Cd223 O224 2.317 . S
O224 Cd223 2.317 . S
O224 C225 1.232 . S
C225 O224 1.232 . S
C225 O226 1.218 . S
O226 C225 1.218 . S
C227 O220 1.275 . S
C227 O222 1.255 . S
C228 O229 1.258 . S
C228 O230 1.256 . S
O229 Cd221 2.381 . S
O229 C228 1.258 . S
O230 Cd221 2.378 . S
O230 C228 1.256 . S
O231 Cd232 2.300 . S
O231 C238 1.275 . S
Cd232 O231 2.300 . S
Cd232 O240 2.381 1_556 S
Cd232 O241 2.378 1_556 S
O233 Cd234 2.385 . S
O233 C238 1.255 . S
Cd234 O233 2.385 . S
Cd234 O235 2.317 1_556 S
O235 Cd234 2.317 1_554 S
O235 C236 1.232 1_554 S
C236 O235 1.232 1_556 S
C236 O237 1.218 . S
O237 C236 1.218 . S
C238 O231 1.275 . S
C238 O233 1.255 . S
C239 O240 1.258 . S
C239 O241 1.256 . S
O240 Cd232 2.381 1_554 S
O240 C239 1.258 . S
O241 Cd232 2.378 1_554 S
O241 C239 1.256 . S
O242 Cd243 2.300 . S
O242 C249 1.275 . S
Cd243 O242 2.300 . S
Cd243 O251 2.381 . S
Cd243 O252 2.378 . S
O244 Cd245 2.385 . S
O244 C249 1.255 . S
Cd245 O244 2.385 . S
Cd245 O246 2.317 . S
O246 Cd245 2.317 . S
O246 C247 1.232 . S
C247 O246 1.232 . S
C247 O248 1.218 . S
O248 C247 1.218 . S
C249 O242 1.275 . S
C249 O244 1.255 . S
C250 O251 1.258 . S
C250 O252 1.256 . S
O251 Cd243 2.381 . S
O251 C250 1.258 . S
O252 Cd243 2.378 . S
O252 C250 1.256 . S
O253 Cd254 2.300 . S
O253 C260 1.275 . S
Cd254 O253 2.300 . S
Cd254 O262 2.381 . S
Cd254 O263 2.378 . S
O255 Cd256 2.385 . S
O255 C260 1.255 . S
Cd256 O255 2.385 . S
Cd256 O257 2.317 . S
O257 Cd256 2.317 . S
O257 C258 1.232 . S
C258 O257 1.232 . S
C258 O259 1.218 . S
O259 C258 1.218 . S
C260 O253 1.275 . S
C260 O255 1.255 . S
C261 O262 1.258 . S
C261 O263 1.256 . S
O262 Cd254 2.381 . S
O262 C261 1.258 . S
O263 Cd254 2.378 . S
O263 C261 1.256 . S
O264 Cd265 2.300 . S
O264 C271 1.275 . S
Cd265 O264 2.300 . S
Cd265 O273 2.381 . S
Cd265 O274 2.378 . S
O266 Cd267 2.385 . S
O266 C271 1.255 . S
Cd267 O266 2.385 . S
Cd267 O268 2.317 . S
O268 Cd267 2.317 . S
O268 C269 1.232 . S
C269 O268 1.232 . S
C269 O270 1.218 . S
O270 C269 1.218 . S
C271 O264 1.275 . S
C271 O266 1.255 . S
C272 O273 1.258 . S
C272 O274 1.256 . S
O273 Cd265 2.381 . S
O273 C272 1.258 . S
O274 Cd265 2.378 . S
O274 C272 1.256 . S
O275 Cd276 2.300 1_556 S
O275 C282 1.275 . S
Cd276 O275 2.300 1_554 S
Cd276 O284 2.381 . S
Cd276 O285 2.378 . S
O277 Cd278 2.385 1_556 S
O277 C282 1.255 . S
Cd278 O277 2.385 1_554 S
Cd278 O279 2.317 . S
O279 Cd278 2.317 . S
O279 C280 1.232 . S
C280 O279 1.232 . S
C280 O281 1.218 1_554 S
O281 C280 1.218 1_556 S
C282 O275 1.275 . S
C282 O277 1.255 . S
C283 O284 1.258 . S
C283 O285 1.256 . S
O284 Cd276 2.381 . S
O284 C283 1.258 . S
O285 Cd276 2.378 . S
O285 C283 1.256 . S
O286 Cd287 2.300 . S
O286 C293 1.275 . S
Cd287 O286 2.300 . S
Cd287 O295 2.381 . S
Cd287 O296 2.378 . S
O288 Cd289 2.385 . S
O288 C293 1.255 . S
Cd289 O288 2.385 . S
Cd289 O290 2.317 . S
O290 Cd289 2.317 . S
O290 C291 1.232 . S
C291 O290 1.232 . S
C291 O292 1.218 . S
O292 C291 1.218 . S
C293 O286 1.275 . S
C293 O288 1.255 . S
C294 O295 1.258 . S
C294 O296 1.256 . S
O295 Cd287 2.381 . S
O295 C294 1.258 . S
O296 Cd287 2.378 . S
O296 C294 1.256 . S
O297 Cd298 2.300 . S
O297 C304 1.275 . S
Cd298 O297 2.300 . S
Cd298 O306 2.381 . S
Cd298 O307 2.378 . S
O299 Cd300 2.385 . S
O299 C304 1.255 . S
Cd300 O299 2.385 . S
Cd300 O301 2.317 . S
O301 Cd300 2.317 . S
O301 C302 1.232 . S
C302 O301 1.232 . S
C302 O303 1.218 . S
O303 C302 1.218 . S
C304 O297 1.275 . S
C304 O299 1.255 . S
C305 O306 1.258 . S
C305 O307 1.256 . S
O306 Cd298 2.381 . S
O306 C305 1.258 . S
O307 Cd298 2.378 . S
O307 C305 1.256 . S
O308 Cd309 2.300 . S
O308 C315 1.275 . S
Cd309 O308 2.300 . S
Cd309 O317 2.381 . S
Cd309 O318 2.378 . S
O310 Cd311 2.385 . S
O310 C315 1.255 . S
Cd311 O310 2.385 . S
Cd311 O312 2.317 . S
O312 Cd311 2.317 . S
O312 C313 1.232 . S
C313 O312 1.232 . S
C313 O314 1.218 . S
O314 C313 1.218 . S
C315 O308 1.275 . S
C315 O310 1.255 . S
C316 O317 1.258 . S
C316 O318 1.256 . S
O317 Cd309 2.381 . S
O317 C316 1.258 . S
O318 Cd309 2.378 . S
O318 C316 1.256 . S
O319 Cd320 2.300 1_554 S
O319 C326 1.275 . S
Cd320 O319 2.300 1_556 S
Cd320 O328 2.381 . S
Cd320 O329 2.378 . S
O321 Cd322 2.385 1_554 S
O321 C326 1.255 . S
Cd322 O321 2.385 1_556 S
Cd322 O323 2.317 . S
O323 Cd322 2.317 . S
O323 C324 1.232 . S
C324 O323 1.232 . S
C324 O325 1.218 1_556 S
O325 C324 1.218 1_554 S
C326 O319 1.275 . S
C326 O321 1.255 . S
C327 O328 1.258 . S
C327 O329 1.256 . S
O328 Cd320 2.381 . S
O328 C327 1.258 . S
O329 Cd320 2.378 . S
O329 C327 1.256 . S
O330 Cd331 2.300 . S
O330 C337 1.275 . S
Cd331 O330 2.300 . S
Cd331 O339 2.381 . S
Cd331 O340 2.378 . S
O332 Cd333 2.385 . S
O332 C337 1.255 . S
Cd333 O332 2.385 . S
Cd333 O334 2.317 . S
O334 Cd333 2.317 . S
O334 C335 1.232 . S
C335 O334 1.232 . S
C335 O336 1.218 . S
O336 C335 1.218 . S
C337 O330 1.275 . S
C337 O332 1.255 . S
C338 O339 1.258 . S
C338 O340 1.256 . S
O339 Cd331 2.381 . S
O339 C338 1.258 . S
O340 Cd331 2.378 . S
O340 C338 1.256 . S
O341 Cd342 2.300 . S
O341 C348 1.275 . S
Cd342 O341 2.300 . S
Cd342 O350 2.381 . S
Cd342 O351 2.378 . S
O343 Cd344 2.385 . S
O343 C348 1.255 . S
Cd344 O343 2.385 . S
Cd344 O345 2.317 . S
O345 Cd344 2.317 . S
O345 C346 1.232 . S
C346 O345 1.232 . S
C346 O347 1.218 . S
O347 C346 1.218 . S
C348 O341 1.275 . S
C348 O343 1.255 . S
C349 O350 1.258 . S
C349 O351 1.256 . S
O350 Cd342 2.381 . S
O350 C349 1.258 . S
O351 Cd342 2.378 . S
O351 C349 1.256 . S
H352 C360 0.950 . S
H353 C365 0.950 . S
H354 C362 0.950 . S
H355 C364 0.950 . S
H356 C366 0.950 . S
H357 C368 0.950 . S
H358 C370 0.950 . S
H359 C371 0.950 . S
C360 H352 0.950 . S
C360 C361 1.386 . S
C360 C362 1.391 . S
C361 C360 1.386 . S
C361 C365 1.393 . S
C362 H354 0.950 . S
C362 C360 1.391 . S
C362 C363 1.400 . S
C363 C362 1.400 . S
C363 C364 1.398 . S
C363 C369 1.491 . S
C364 H355 0.950 . S
C364 C363 1.398 . S
C364 C365 1.391 . S
C365 H353 0.950 . S
C365 C361 1.393 . S
C365 C364 1.391 . S
C366 H356 0.950 . S
C366 C367 1.386 . S
C366 C368 1.391 . S
C367 C366 1.386 . S
C367 C371 1.393 . S
C368 H357 0.950 . S
C368 C366 1.391 . S
C368 C369 1.400 . S
C369 C363 1.491 . S
C369 C368 1.400 . S
C369 C370 1.398 . S
C370 H358 0.950 . S
C370 C369 1.398 . S
C370 C371 1.391 . S
C371 H359 0.950 . S
C371 C367 1.393 . S
C371 C370 1.391 . S
H372 C380 0.950 . S
H373 C385 0.950 . S
H374 C382 0.950 . S
H375 C384 0.950 . S
H376 C386 0.950 . S
H377 C388 0.950 . S
H378 C390 0.950 . S
H379 C391 0.950 . S
C380 H372 0.950 . S
C380 C381 1.386 1_545 S
C380 C382 1.391 . S
C381 C380 1.386 1_565 S
C381 C385 1.393 . S
C382 H374 0.950 . S
C382 C380 1.391 . S
C382 C383 1.385 1_545 S
C383 C382 1.385 1_565 S
C383 C384 1.415 . S
C383 C389 1.489 1_565 S
C384 H375 0.950 . S
C384 C383 1.415 . S
C384 C385 1.391 . S
C385 H373 0.950 . S
C385 C381 1.393 . S
C385 C384 1.391 . S
C386 H376 0.950 . S
C386 C387 1.386 1_565 S
C386 C388 1.391 . S
C387 C386 1.386 1_545 S
C387 C391 1.393 . S
C388 H377 0.950 . S
C388 C386 1.391 . S
C388 C389 1.380 1_565 S
C389 C383 1.489 1_545 S
C389 C388 1.380 1_545 S
C389 C390 1.420 . S
C390 H378 0.950 . S
C390 C389 1.420 . S
C390 C391 1.391 . S
C391 H379 0.950 . S
C391 C387 1.393 . S
C391 C390 1.391 . S
H392 C400 0.950 . S
H393 C405 0.950 . S
H394 C402 0.950 . S
H395 C404 0.950 . S
H396 C406 0.950 . S
H397 C408 0.950 . S
H398 C410 0.950 . S
H399 C411 0.950 . S
C400 H392 0.950 . S
C400 C401 1.386 . S
C400 C402 1.391 . S
C401 C400 1.386 . S
C401 C405 1.393 . S
C402 H394 0.950 . S
C402 C400 1.391 . S
C402 C403 1.400 . S
C403 C402 1.400 . S
C403 C404 1.398 . S
C403 C409 1.491 1_556 S
C404 H395 0.950 . S
C404 C403 1.398 . S
C404 C405 1.391 . S
C405 H393 0.950 . S
C405 C401 1.393 . S
C405 C404 1.391 . S
C406 H396 0.950 . S
C406 C407 1.386 . S
C406 C408 1.391 . S
C407 C406 1.386 . S
C407 C411 1.393 . S
C408 H397 0.950 . S
C408 C406 1.391 . S
C408 C409 1.400 . S
C409 C403 1.491 1_554 S
C409 C408 1.400 . S
C409 C410 1.398 . S
C410 H398 0.950 . S
C410 C409 1.398 . S
C410 C411 1.391 . S
C411 H399 0.950 . S
C411 C407 1.393 . S
C411 C410 1.391 . S
H412 C420 0.950 . S
H413 C425 0.950 . S
H414 C422 0.950 . S
H415 C424 0.950 . S
H416 C426 0.950 . S
H417 C428 0.950 . S
H418 C430 0.950 . S
H419 C431 0.950 . S
C420 H412 0.950 . S
C420 C421 1.386 1_565 S
C420 C422 1.391 . S
C421 C420 1.386 1_545 S
C421 C425 1.393 . S
C422 H414 0.950 . S
C422 C420 1.391 . S
C422 C423 1.400 1_565 S
C423 C422 1.400 1_545 S
C423 C424 1.399 . S
C423 C429 1.491 1_545 S
C424 H415 0.950 . S
C424 C423 1.399 . S
C424 C425 1.391 . S
C425 H413 0.950 . S
C425 C421 1.393 . S
C425 C424 1.391 . S
C426 H416 0.950 . S
C426 C427 1.386 1_545 S
C426 C428 1.391 . S
C427 C426 1.386 1_565 S
C427 C431 1.393 . S
C428 H417 0.950 . S
C428 C426 1.391 . S
C428 C429 1.399 1_545 S
C429 C423 1.491 1_565 S
C429 C428 1.399 1_565 S
C429 C430 1.400 . S
C430 H418 0.950 . S
C430 C429 1.400 . S
C430 C431 1.391 . S
C431 H419 0.950 . S
C431 C427 1.393 . S
C431 C430 1.391 . S
H432 C440 0.950 . S
H433 C445 0.950 . S
H434 C442 0.950 . S
H435 C444 0.950 . S
H436 C446 0.950 . S
H437 C448 0.950 . S
H438 C450 0.950 . S
H439 C451 0.950 . S
C440 H432 0.950 . S
C440 C441 1.386 . S
C440 C442 1.391 . S
C441 C440 1.386 . S
C441 C445 1.393 . S
C442 H434 0.950 . S
C442 C440 1.391 . S
C442 C443 1.400 . S
C443 C442 1.400 . S
C443 C444 1.398 . S
C443 C449 1.491 . S
C444 H435 0.950 . S
C444 C443 1.398 . S
C444 C445 1.391 . S
C445 H433 0.950 . S
C445 C441 1.393 . S
C445 C444 1.391 . S
C446 H436 0.950 . S
C446 C447 1.386 . S
C446 C448 1.391 . S
C447 C446 1.386 . S
C447 C451 1.393 . S
C448 H437 0.950 . S
C448 C446 1.391 . S
C448 C449 1.400 . S
C449 C443 1.491 . S
C449 C448 1.400 . S
C449 C450 1.398 . S
C450 H438 0.950 . S
C450 C449 1.398 . S
C450 C451 1.391 . S
C451 H439 0.950 . S
C451 C447 1.393 . S
C451 C450 1.391 . S
H452 C460 0.950 . S
H453 C465 0.950 . S
H454 C462 0.950 . S
H455 C464 0.950 . S
H456 C466 0.950 . S
H457 C468 0.950 . S
H458 C470 0.950 . S
H459 C471 0.950 . S
C460 H452 0.950 . S
C460 C461 1.386 1_545 S
C460 C462 1.391 . S
C461 C460 1.386 1_565 S
C461 C465 1.393 . S
C462 H454 0.950 . S
C462 C460 1.391 . S
C462 C463 1.372 1_545 S
C463 C462 1.372 1_565 S
C463 C464 1.430 . S
C463 C469 1.488 1_565 S
C464 H455 0.950 . S
C464 C463 1.430 . S
C464 C465 1.391 . S
C465 H453 0.950 . S
C465 C461 1.393 . S
C465 C464 1.391 . S
C466 H456 0.950 . S
C466 C467 1.386 1_565 S
C466 C468 1.391 . S
C467 C466 1.386 1_545 S
C467 C471 1.393 . S
C468 H457 0.950 . S
C468 C466 1.391 . S
C468 C469 1.376 1_565 S
C469 C463 1.488 1_545 S
C469 C468 1.376 1_545 S
C469 C470 1.425 . S
C470 H458 0.950 . S
C470 C469 1.425 . S
C470 C471 1.391 . S
C471 H459 0.950 . S
C471 C467 1.393 . S
C471 C470 1.391 . S
H472 C480 0.950 . S
H473 C485 0.950 . S
H474 C482 0.950 . S
H475 C484 0.950 . S
H476 C486 0.950 . S
H477 C488 0.950 . S
H478 C490 0.950 . S
H479 C491 0.950 . S
C480 H472 0.950 . S
C480 C481 1.386 . S
C480 C482 1.391 . S
C481 C480 1.386 . S
C481 C485 1.393 . S
C482 H474 0.950 . S
C482 C480 1.391 . S
C482 C483 1.400 . S
C483 C482 1.400 . S
C483 C484 1.398 . S
C483 C489 1.491 1_556 S
C484 H475 0.950 . S
C484 C483 1.398 . S
C484 C485 1.391 . S
C485 H473 0.950 . S
C485 C481 1.393 . S
C485 C484 1.391 . S
C486 H476 0.950 . S
C486 C487 1.386 . S
C486 C488 1.391 . S
C487 C486 1.386 . S
C487 C491 1.393 . S
C488 H477 0.950 . S
C488 C486 1.391 . S
C488 C489 1.400 . S
C489 C483 1.491 1_554 S
C489 C488 1.400 . S
C489 C490 1.398 . S
C490 H478 0.950 . S
C490 C489 1.398 . S
C490 C491 1.391 . S
C491 H479 0.950 . S
C491 C487 1.393 . S
C491 C490 1.391 . S
H492 C500 0.950 . S
H493 C505 0.950 . S
H494 C502 0.950 . S
H495 C504 0.950 . S
H496 C506 0.950 . S
H497 C508 0.950 . S
H498 C510 0.950 . S
H499 C511 0.950 . S
C500 H492 0.950 . S
C500 C501 1.386 . S
C500 C502 1.391 . S
C501 C500 1.386 . S
C501 C505 1.393 1_545 S
C502 H494 0.950 . S
C502 C500 1.391 . S
C502 C503 1.424 . S
C503 C502 1.424 . S
C503 C504 1.378 1_545 S
C503 C509 1.487 1_545 S
C504 H495 0.950 . S
C504 C503 1.378 1_565 S
C504 C505 1.391 . S
C505 H493 0.950 . S
C505 C501 1.393 1_565 S
C505 C504 1.391 . S
C506 H496 0.950 . S
C506 C507 1.386 . S
C506 C508 1.391 . S
C507 C506 1.386 . S
C507 C511 1.393 1_565 S
C508 H497 0.950 . S
C508 C506 1.391 . S
C508 C509 1.423 . S
C509 C503 1.487 1_565 S
C509 C508 1.423 . S
C509 C510 1.379 1_565 S
C510 H498 0.950 . S
C510 C509 1.379 1_545 S
C510 C511 1.391 . S
C511 H499 0.950 . S
C511 C507 1.393 1_545 S
C511 C510 1.391 . S
H512 C520 0.950 . S
H513 C525 0.950 . S
H514 C522 0.950 . S
H515 C524 0.950 . S
H516 C526 0.950 . S
H517 C528 0.950 . S
H518 C530 0.950 . S
H519 C531 0.950 . S
C520 H512 0.950 . S
C520 C521 1.386 . S
C520 C522 1.391 . S
C521 C520 1.386 . S
C521 C525 1.393 . S
C522 H514 0.950 . S
C522 C520 1.391 . S
C522 C523 1.400 . S
C523 C522 1.400 . S
C523 C524 1.398 . S
C523 C529 1.491 1_554 S
C524 H515 0.950 . S
C524 C523 1.398 . S
C524 C525 1.391 . S
C525 H513 0.950 . S
C525 C521 1.393 . S
C525 C524 1.391 . S
C526 H516 0.950 . S
C526 C527 1.386 . S
C526 C528 1.391 . S
C527 C526 1.386 . S
C527 C531 1.393 . S
C528 H517 0.950 . S
C528 C526 1.391 . S
C528 C529 1.400 . S
C529 C523 1.491 1_556 S
C529 C528 1.400 . S
C529 C530 1.398 . S
C530 H518 0.950 . S
C530 C529 1.398 . S
C530 C531 1.391 . S
C531 H519 0.950 . S
C531 C527 1.393 . S
C531 C530 1.391 . S
H532 C540 0.950 . S
H533 C545 0.950 . S
H534 C542 0.950 . S
H535 C544 0.950 . S
H536 C546 0.950 . S
H537 C548 0.950 . S
H538 C550 0.950 . S
H539 C551 0.950 . S
C540 H532 0.950 . S
C540 C541 1.386 . S
C540 C542 1.391 . S
C541 C540 1.386 . S
C541 C545 1.393 . S
C542 H534 0.950 . S
C542 C540 1.391 . S
C542 C543 1.400 . S
C543 C542 1.400 . S
C543 C544 1.398 . S
C543 C549 1.491 . S
C544 H535 0.950 . S
C544 C543 1.398 . S
C544 C545 1.391 . S
C545 H533 0.950 . S
C545 C541 1.393 . S
C545 C544 1.391 . S
C546 H536 0.950 . S
C546 C547 1.386 . S
C546 C548 1.391 . S
C547 C546 1.386 . S
C547 C551 1.393 . S
C548 H537 0.950 . S
C548 C546 1.391 . S
C548 C549 1.400 . S
C549 C543 1.491 . S
C549 C548 1.400 . S
C549 C550 1.398 . S
C550 H538 0.950 . S
C550 C549 1.398 . S
C550 C551 1.391 . S
C551 H539 0.950 . S
C551 C547 1.393 . S
C551 C550 1.391 . S
H552 C560 0.950 . S
H553 C565 0.950 . S
H554 C562 0.950 . S
H555 C564 0.950 . S
H556 C566 0.950 . S
H557 C568 0.950 . S
H558 C570 0.950 . S
H559 C571 0.950 . S
C560 H552 0.950 . S
C560 C561 1.386 . S
C560 C562 1.391 . S
C561 C560 1.386 . S
C561 C565 1.393 . S
C562 H554 0.950 . S
C562 C560 1.391 . S
C562 C563 1.400 . S
C563 C562 1.400 . S
C563 C564 1.398 . S
C563 C569 1.491 . S
C564 H555 0.950 . S
C564 C563 1.398 . S
C564 C565 1.391 . S
C565 H553 0.950 . S
C565 C561 1.393 . S
C565 C564 1.391 . S
C566 H556 0.950 . S
C566 C567 1.386 . S
C566 C568 1.391 . S
C567 C566 1.386 . S
C567 C571 1.393 . S
C568 H557 0.950 . S
C568 C566 1.391 . S
C568 C569 1.400 . S
C569 C563 1.491 . S
C569 C568 1.400 . S
C569 C570 1.398 . S
C570 H558 0.950 . S
C570 C569 1.398 . S
C570 C571 1.391 . S
C571 H559 0.950 . S
C571 C567 1.393 . S
C571 C570 1.391 . S
H572 C580 0.950 . S
H573 C585 0.950 . S
H574 C582 0.950 . S
H575 C584 0.950 . S
H576 C586 0.950 . S
H577 C588 0.950 . S
H578 C590 0.950 . S
H579 C591 0.950 . S
C580 H572 0.950 . S
C580 C581 1.386 . S
C580 C582 1.391 . S
C581 C580 1.386 . S
C581 C585 1.393 . S
C582 H574 0.950 . S
C582 C580 1.391 . S
C582 C583 1.400 . S
C583 C582 1.400 . S
C583 C584 1.398 . S
C583 C589 1.491 . S
C584 H575 0.950 . S
C584 C583 1.398 . S
C584 C585 1.391 . S
C585 H573 0.950 . S
C585 C581 1.393 . S
C585 C584 1.391 . S
C586 H576 0.950 . S
C586 C587 1.386 . S
C586 C588 1.391 . S
C587 C586 1.386 . S
C587 C591 1.393 . S
C588 H577 0.950 . S
C588 C586 1.391 . S
C588 C589 1.400 . S
C589 C583 1.491 . S
C589 C588 1.400 . S
C589 C590 1.398 . S
C590 H578 0.950 . S
C590 C589 1.398 . S
C590 C591 1.391 . S
C591 H579 0.950 . S
C591 C587 1.393 . S
C591 C590 1.391 . S
H592 C600 0.950 . S
H593 C605 0.950 . S
H594 C602 0.950 . S
H595 C604 0.950 . S
H596 C606 0.950 . S
H597 C608 0.950 . S
H598 C610 0.950 . S
H599 C611 0.950 . S
C600 H592 0.950 . S
C600 C601 1.386 . S
C600 C602 1.391 . S
C601 C600 1.386 . S
C601 C605 1.393 . S
C602 H594 0.950 . S
C602 C600 1.391 . S
C602 C603 1.400 . S
C603 C602 1.400 . S
C603 C604 1.398 . S
C603 C609 1.491 1_556 S
C604 H595 0.950 . S
C604 C603 1.398 . S
C604 C605 1.391 . S
C605 H593 0.950 . S
C605 C601 1.393 . S
C605 C604 1.391 . S
C606 H596 0.950 . S
C606 C607 1.386 . S
C606 C608 1.391 . S
C607 C606 1.386 . S
C607 C611 1.393 . S
C608 H597 0.950 . S
C608 C606 1.391 . S
C608 C609 1.400 . S
C609 C603 1.491 1_554 S
C609 C608 1.400 . S
C609 C610 1.398 . S
C610 H598 0.950 . S
C610 C609 1.398 . S
C610 C611 1.391 . S
C611 H599 0.950 . S
C611 C607 1.393 . S
C611 C610 1.391 . S
H612 C620 0.950 . S
H613 C625 0.950 . S
H614 C622 0.950 . S
H615 C624 0.950 . S
H616 C626 0.950 . S
H617 C628 0.950 . S
H618 C630 0.950 . S
H619 C631 0.950 . S
C620 H612 0.950 . S
C620 C621 1.386 . S
C620 C622 1.391 . S
C621 C620 1.386 . S
C621 C625 1.393 . S
C622 H614 0.950 . S
C622 C620 1.391 . S
C622 C623 1.400 . S
C623 C622 1.400 . S
C623 C624 1.398 . S
C623 C629 1.491 . S
C624 H615 0.950 . S
C624 C623 1.398 . S
C624 C625 1.391 . S
C625 H613 0.950 . S
C625 C621 1.393 . S
C625 C624 1.391 . S
C626 H616 0.950 . S
C626 C627 1.386 . S
C626 C628 1.391 . S
C627 C626 1.386 . S
C627 C631 1.393 . S
C628 H617 0.950 . S
C628 C626 1.391 . S
C628 C629 1.400 . S
C629 C623 1.491 . S
C629 C628 1.400 . S
C629 C630 1.398 . S
C630 H618 0.950 . S
C630 C629 1.398 . S
C630 C631 1.391 . S
C631 H619 0.950 . S
C631 C627 1.393 . S
C631 C630 1.391 . S
H632 C640 0.950 . S
H633 C645 0.950 . S
H634 C642 0.950 . S
H635 C644 0.950 . S
H636 C646 0.950 . S
H637 C648 0.950 . S
H638 C650 0.950 . S
H639 C651 0.950 . S
C640 H632 0.950 . S
C640 C641 1.386 . S
C640 C642 1.391 . S
C641 C640 1.386 . S
C641 C645 1.393 . S
C642 H634 0.950 . S
C642 C640 1.391 . S
C642 C643 1.400 . S
C643 C642 1.400 . S
C643 C644 1.398 . S
C643 C649 1.491 . S
C644 H635 0.950 . S
C644 C643 1.398 . S
C644 C645 1.391 . S
C645 H633 0.950 . S
C645 C641 1.393 . S
C645 C644 1.391 . S
C646 H636 0.950 . S
C646 C647 1.386 . S
C646 C648 1.391 . S
C647 C646 1.386 . S
C647 C651 1.393 . S
C648 H637 0.950 . S
C648 C646 1.391 . S
C648 C649 1.400 . S
C649 C643 1.491 . S
C649 C648 1.400 . S
C649 C650 1.398 . S
C650 H638 0.950 . S
C650 C649 1.398 . S
C650 C651 1.391 . S
C651 H639 0.950 . S
C651 C647 1.393 . S
C651 C650 1.391 . S
H652 C660 0.950 . S
H653 C665 0.950 . S
H654 C662 0.950 . S
H655 C664 0.950 . S
H656 C666 0.950 . S
H657 C668 0.950 . S
H658 C670 0.950 . S
H659 C671 0.950 . S
C660 H652 0.950 . S
C660 C661 1.386 . S
C660 C662 1.391 . S
C661 C660 1.386 . S
C661 C665 1.393 . S
C662 H654 0.950 . S
C662 C660 1.391 . S
C662 C663 1.400 . S
C663 C662 1.400 . S
C663 C664 1.398 . S
C663 C669 1.491 . S
C664 H655 0.950 . S
C664 C663 1.398 . S
C664 C665 1.391 . S
C665 H653 0.950 . S
C665 C661 1.393 . S
C665 C664 1.391 . S
C666 H656 0.950 . S
C666 C667 1.386 . S
C666 C668 1.391 . S
C667 C666 1.386 . S
C667 C671 1.393 . S
C668 H657 0.950 . S
C668 C666 1.391 . S
C668 C669 1.400 . S
C669 C663 1.491 . S
C669 C668 1.400 . S
C669 C670 1.398 . S
C670 H658 0.950 . S
C670 C669 1.398 . S
C670 C671 1.391 . S
C671 H659 0.950 . S
C671 C667 1.393 . S
C671 C670 1.391 . S
H672 C680 0.950 . S
H673 C685 0.950 . S
H674 C682 0.950 . S
H675 C684 0.950 . S
H676 C686 0.950 . S
H677 C688 0.950 . S
H678 C690 0.950 . S
H679 C691 0.950 . S
C680 H672 0.950 . S
C680 C681 1.386 . S
C680 C682 1.391 . S
C681 C680 1.386 . S
C681 C685 1.393 . S
C682 H674 0.950 . S
C682 C680 1.391 . S
C682 C683 1.400 . S
C683 C682 1.400 . S
C683 C684 1.398 . S
C683 C689 1.491 . S
C684 H675 0.950 . S
C684 C683 1.398 . S
C684 C685 1.391 . S
C685 H673 0.950 . S
C685 C681 1.393 . S
C685 C684 1.391 . S
C686 H676 0.950 . S
C686 C687 1.386 . S
C686 C688 1.391 . S
C687 C686 1.386 . S
C687 C691 1.393 . S
C688 H677 0.950 . S
C688 C686 1.391 . S
C688 C689 1.400 . S
C689 C683 1.491 . S
C689 C688 1.400 . S
C689 C690 1.398 . S
C690 H678 0.950 . S
C690 C689 1.398 . S
C690 C691 1.391 . S
C691 H679 0.950 . S
C691 C687 1.393 . S
C691 C690 1.391 . S
H692 C700 0.950 . S
H693 C705 0.950 . S
H694 C702 0.950 . S
H695 C704 0.950 . S
H696 C706 0.950 . S
H697 C708 0.950 . S
H698 C710 0.950 . S
H699 C711 0.950 . S
C700 H692 0.950 . S
C700 C701 1.386 . S
C700 C702 1.391 . S
C701 C700 1.386 . S
C701 C705 1.393 . S
C702 H694 0.950 . S
C702 C700 1.391 . S
C702 C703 1.400 . S
C703 C702 1.400 . S
C703 C704 1.398 . S
C703 C709 1.491 . S
C704 H695 0.950 . S
C704 C703 1.398 . S
C704 C705 1.391 . S
C705 H693 0.950 . S
C705 C701 1.393 . S
C705 C704 1.391 . S
C706 H696 0.950 . S
C706 C707 1.386 . S
C706 C708 1.391 . S
C707 C706 1.386 . S
C707 C711 1.393 . S
C708 H697 0.950 . S
C708 C706 1.391 . S
C708 C709 1.400 . S
C709 C703 1.491 . S
C709 C708 1.400 . S
C709 C710 1.398 . S
C710 H698 0.950 . S
C710 C709 1.398 . S
C710 C711 1.391 . S
C711 H699 0.950 . S
C711 C707 1.393 . S
C711 C710 1.391 . S
H712 C720 0.950 . S
H713 C725 0.950 . S
H714 C722 0.950 . S
H715 C724 0.950 . S
H716 C726 0.950 . S
H717 C728 0.950 . S
H718 C730 0.950 . S
H719 C731 0.950 . S
C720 H712 0.950 . S
C720 C721 1.386 . S
C720 C722 1.391 . S
C721 C720 1.386 . S
C721 C725 1.393 . S
C722 H714 0.950 . S
C722 C720 1.391 . S
C722 C723 1.400 . S
C723 C722 1.400 . S
C723 C724 1.398 . S
C723 C729 1.491 . S
C724 H715 0.950 . S
C724 C723 1.398 . S
C724 C725 1.391 . S
C725 H713 0.950 . S
C725 C721 1.393 . S
C725 C724 1.391 . S
C726 H716 0.950 . S
C726 C727 1.386 . S
C726 C728 1.391 . S
C727 C726 1.386 . S
C727 C731 1.393 . S
C728 H717 0.950 . S
C728 C726 1.391 . S
C728 C729 1.400 . S
C729 C723 1.491 . S
C729 C728 1.400 . S
C729 C730 1.398 . S
C730 H718 0.950 . S
C730 C729 1.398 . S
C730 C731 1.391 . S
C731 H719 0.950 . S
C731 C727 1.393 . S
C731 C730 1.391 . S
H732 C740 0.950 . S
H733 C745 0.950 . S
H734 C742 0.950 . S
H735 C744 0.950 . S
H736 C746 0.950 . S
H737 C748 0.950 . S
H738 C750 0.950 . S
H739 C751 0.950 . S
C740 H732 0.950 . S
C740 C741 1.386 . S
C740 C742 1.391 . S
C741 C740 1.386 . S
C741 C745 1.393 . S
C742 H734 0.950 . S
C742 C740 1.391 . S
C742 C743 1.400 . S
C743 C742 1.400 . S
C743 C744 1.398 . S
C743 C749 1.491 . S
C744 H735 0.950 . S
C744 C743 1.398 . S
C744 C745 1.391 . S
C745 H733 0.950 . S
C745 C741 1.393 . S
C745 C744 1.391 . S
C746 H736 0.950 . S
C746 C747 1.386 . S
C746 C748 1.391 . S
C747 C746 1.386 . S
C747 C751 1.393 . S
C748 H737 0.950 . S
C748 C746 1.391 . S
C748 C749 1.400 . S
C749 C743 1.491 . S
C749 C748 1.400 . S
C749 C750 1.398 . S
C750 H738 0.950 . S
C750 C749 1.398 . S
C750 C751 1.391 . S
C751 H739 0.950 . S
C751 C747 1.393 . S
C751 C750 1.391 . S
H752 C760 0.950 . S
H753 C765 0.950 . S
H754 C762 0.950 . S
H755 C764 0.950 . S
H756 C766 0.950 . S
H757 C768 0.950 . S
H758 C770 0.950 . S
H759 C771 0.950 . S
C760 H752 0.950 . S
C760 C761 1.386 . S
C760 C762 1.391 . S
C761 C760 1.386 . S
C761 C765 1.393 . S
C762 H754 0.950 . S
C762 C760 1.391 . S
C762 C763 1.400 . S
C763 C762 1.400 . S
C763 C764 1.398 . S
C763 C769 1.491 . S
C764 H755 0.950 . S
C764 C763 1.398 . S
C764 C765 1.391 . S
C765 H753 0.950 . S
C765 C761 1.393 . S
C765 C764 1.391 . S
C766 H756 0.950 . S
C766 C767 1.386 . S
C766 C768 1.391 . S
C767 C766 1.386 . S
C767 C771 1.393 . S
C768 H757 0.950 . S
C768 C766 1.391 . S
C768 C769 1.400 . S
C769 C763 1.491 . S
C769 C768 1.400 . S
C769 C770 1.398 . S
C770 H758 0.950 . S
C770 C769 1.398 . S
C770 C771 1.391 . S
C771 H759 0.950 . S
C771 C767 1.393 . S
C771 C770 1.391 . S
H772 C780 0.950 . S
H773 C785 0.950 . S
H774 C782 0.950 . S
H775 C784 0.950 . S
H776 C786 0.950 . S
H777 C788 0.950 . S
H778 C790 0.950 . S
H779 C791 0.950 . S
C780 H772 0.950 . S
C780 C781 1.386 . S
C780 C782 1.391 . S
C781 C780 1.386 . S
C781 C785 1.393 . S
C782 H774 0.950 . S
C782 C780 1.391 . S
C782 C783 1.400 . S
C783 C782 1.400 . S
C783 C784 1.398 . S
C783 C789 1.491 . S
C784 H775 0.950 . S
C784 C783 1.398 . S
C784 C785 1.391 . S
C785 H773 0.950 . S
C785 C781 1.393 . S
C785 C784 1.391 . S
C786 H776 0.950 . S
C786 C787 1.386 . S
C786 C788 1.391 . S
C787 C786 1.386 . S
C787 C791 1.393 . S
C788 H777 0.950 . S
C788 C786 1.391 . S
C788 C789 1.400 . S
C789 C783 1.491 . S
C789 C788 1.400 . S
C789 C790 1.398 . S
C790 H778 0.950 . S
C790 C789 1.398 . S
C790 C791 1.391 . S
C791 H779 0.950 . S
C791 C787 1.393 . S
C791 C790 1.391 . S
H792 C800 0.950 . S
H793 C805 0.950 . S
H794 C802 0.950 . S
H795 C804 0.950 . S
H796 C806 0.950 . S
H797 C808 0.950 . S
H798 C810 0.950 . S
H799 C811 0.950 . S
C800 H792 0.950 . S
C800 C801 1.386 . S
C800 C802 1.391 . S
C801 C800 1.386 . S
C801 C805 1.393 . S
C802 H794 0.950 . S
C802 C800 1.391 . S
C802 C803 1.400 . S
C803 C802 1.400 . S
C803 C804 1.398 . S
C803 C809 1.491 . S
C804 H795 0.950 . S
C804 C803 1.398 . S
C804 C805 1.391 . S
C805 H793 0.950 . S
C805 C801 1.393 . S
C805 C804 1.391 . S
C806 H796 0.950 . S
C806 C807 1.386 . S
C806 C808 1.391 . S
C807 C806 1.386 . S
C807 C811 1.393 . S
C808 H797 0.950 . S
C808 C806 1.391 . S
C808 C809 1.400 . S
C809 C803 1.491 . S
C809 C808 1.400 . S
C809 C810 1.398 . S
C810 H798 0.950 . S
C810 C809 1.398 . S
C810 C811 1.391 . S
C811 H799 0.950 . S
C811 C807 1.393 . S
C811 C810 1.391 . S
H812 C820 0.950 . S
H813 C825 0.950 . S
H814 C822 0.950 . S
H815 C824 0.950 . S
H816 C826 0.950 . S
H817 C828 0.950 . S
H818 C830 0.950 . S
H819 C831 0.950 . S
C820 H812 0.950 . S
C820 C821 1.386 . S
C820 C822 1.391 . S
C821 C820 1.386 . S
C821 C825 1.393 . S
C822 H814 0.950 . S
C822 C820 1.391 . S
C822 C823 1.400 . S
C823 C822 1.400 . S
C823 C824 1.398 . S
C823 C829 1.491 . S
C824 H815 0.950 . S
C824 C823 1.398 . S
C824 C825 1.391 . S
C825 H813 0.950 . S
C825 C821 1.393 . S
C825 C824 1.391 . S
C826 H816 0.950 . S
C826 C827 1.386 . S
C826 C828 1.391 . S
C827 C826 1.386 . S
C827 C831 1.393 . S
C828 H817 0.950 . S
C828 C826 1.391 . S
C828 C829 1.400 . S
C829 C823 1.491 . S
C829 C828 1.400 . S
C829 C830 1.398 . S
C830 H818 0.950 . S
C830 C829 1.398 . S
C830 C831 1.391 . S
C831 H819 0.950 . S
C831 C827 1.393 . S
C831 C830 1.391 . S
H832 C840 0.950 . S
H833 C845 0.950 . S
H834 C842 0.950 . S
H835 C844 0.950 . S
H836 C846 0.950 . S
H837 C848 0.950 . S
H838 C850 0.950 . S
H839 C851 0.950 . S
C840 H832 0.950 . S
C840 C841 1.386 . S
C840 C842 1.391 . S
C841 C840 1.386 . S
C841 C845 1.393 . S
C842 H834 0.950 . S
C842 C840 1.391 . S
C842 C843 1.400 . S
C843 C842 1.400 . S
C843 C844 1.398 . S
C843 C849 1.491 . S
C844 H835 0.950 . S
C844 C843 1.398 . S
C844 C845 1.391 . S
C845 H833 0.950 . S
C845 C841 1.393 . S
C845 C844 1.391 . S
C846 H836 0.950 . S
C846 C847 1.386 . S
C846 C848 1.391 . S
C847 C846 1.386 . S
C847 C851 1.393 . S
C848 H837 0.950 . S
C848 C846 1.391 . S
C848 C849 1.400 . S
C849 C843 1.491 . S
C849 C848 1.400 . S
C849 C850 1.398 . S
C850 H838 0.950 . S
C850 C849 1.398 . S
C850 C851 1.391 . S
C851 H839 0.950 . S
C851 C847 1.393 . S
C851 C850 1.391 . S
H852 C860 0.950 . S
H853 C865 0.950 . S
H854 C862 0.950 . S
H855 C864 0.950 . S
H856 C866 0.950 . S
H857 C868 0.950 . S
H858 C870 0.950 . S
H859 C871 0.950 . S
C860 H852 0.950 . S
C860 C861 1.386 . S
C860 C862 1.391 . S
C861 C860 1.386 . S
C861 C865 1.393 . S
C862 H854 0.950 . S
C862 C860 1.391 . S
C862 C863 1.400 . S
C863 C862 1.400 . S
C863 C864 1.398 . S
C863 C869 1.491 . S
C864 H855 0.950 . S
C864 C863 1.398 . S
C864 C865 1.391 . S
C865 H853 0.950 . S
C865 C861 1.393 . S
C865 C864 1.391 . S
C866 H856 0.950 . S
C866 C867 1.386 . S
C866 C868 1.391 . S
C867 C866 1.386 . S
C867 C871 1.393 . S
C868 H857 0.950 . S
C868 C866 1.391 . S
C868 C869 1.400 . S
C869 C863 1.491 . S
C869 C868 1.400 . S
C869 C870 1.398 . S
C870 H858 0.950 . S
C870 C869 1.398 . S
C870 C871 1.391 . S
C871 H859 0.950 . S
C871 C867 1.393 . S
C871 C870 1.391 . S
H872 C880 0.950 . S
H873 C885 0.950 . S
H874 C882 0.950 . S
H875 C884 0.950 . S
H876 C886 0.950 . S
H877 C888 0.950 . S
H878 C890 0.950 . S
H879 C891 0.950 . S
C880 H872 0.950 . S
C880 C881 1.386 . S
C880 C882 1.391 . S
C881 C880 1.386 . S
C881 C885 1.393 . S
C882 H874 0.950 . S
C882 C880 1.391 . S
C882 C883 1.400 . S
C883 C882 1.400 . S
C883 C884 1.398 . S
C883 C889 1.491 . S
C884 H875 0.950 . S
C884 C883 1.398 . S
C884 C885 1.391 . S
C885 H873 0.950 . S
C885 C881 1.393 . S
C885 C884 1.391 . S
C886 H876 0.950 . S
C886 C887 1.386 . S
C886 C888 1.391 . S
C887 C886 1.386 . S
C887 C891 1.393 . S
C888 H877 0.950 . S
C888 C886 1.391 . S
C888 C889 1.400 . S
C889 C883 1.491 . S
C889 C888 1.400 . S
C889 C890 1.398 . S
C890 H878 0.950 . S
C890 C889 1.398 . S
C890 C891 1.391 . S
C891 H879 0.950 . S
C891 C887 1.393 . S
C891 C890 1.391 . S
H892 C900 0.950 . S
H893 C905 0.950 . S
H894 C902 0.950 . S
H895 C904 0.950 . S
H896 C906 0.950 . S
H897 C908 0.950 . S
H898 C910 0.950 . S
H899 C911 0.950 . S
C900 H892 0.950 . S
C900 C901 1.386 . S
C900 C902 1.391 . S
C901 C900 1.386 . S
C901 C905 1.393 . S
C902 H894 0.950 . S
C902 C900 1.391 . S
C902 C903 1.400 . S
C903 C902 1.400 . S
C903 C904 1.398 . S
C903 C909 1.491 . S
C904 H895 0.950 . S
C904 C903 1.398 . S
C904 C905 1.391 . S
C905 H893 0.950 . S
C905 C901 1.393 . S
C905 C904 1.391 . S
C906 H896 0.950 . S
C906 C907 1.386 . S
C906 C908 1.391 . S
C907 C906 1.386 . S
C907 C911 1.393 . S
C908 H897 0.950 . S
C908 C906 1.391 . S
C908 C909 1.400 . S
C909 C903 1.491 . S
C909 C908 1.400 . S
C909 C910 1.398 . S
C910 H898 0.950 . S
C910 C909 1.398 . S
C910 C911 1.391 . S
C911 H899 0.950 . S
C911 C907 1.393 . S
C911 C910 1.391 . S
H912 C920 0.950 . S
H913 C925 0.950 . S
H914 C922 0.950 . S
H915 C924 0.950 . S
H916 C926 0.950 . S
H917 C928 0.950 . S
H918 C930 0.950 . S
H919 C931 0.950 . S
C920 H912 0.950 . S
C920 C921 1.386 . S
C920 C922 1.391 . S
C921 C920 1.386 . S
C921 C925 1.393 . S
C922 H914 0.950 . S
C922 C920 1.391 . S
C922 C923 1.400 . S
C923 C922 1.400 . S
C923 C924 1.398 . S
C923 C929 1.491 . S
C924 H915 0.950 . S
C924 C923 1.398 . S
C924 C925 1.391 . S
C925 H913 0.950 . S
C925 C921 1.393 . S
C925 C924 1.391 . S
C926 H916 0.950 . S
C926 C927 1.386 . S
C926 C928 1.391 . S
C927 C926 1.386 . S
C927 C931 1.393 . S
C928 H917 0.950 . S
C928 C926 1.391 . S
C928 C929 1.400 . S
C929 C923 1.491 . S
C929 C928 1.400 . S
C929 C930 1.398 . S
C930 H918 0.950 . S
C930 C929 1.398 . S
C930 C931 1.391 . S
C931 H919 0.950 . S
C931 C927 1.393 . S
C931 C930 1.391 . S
H932 C940 0.950 . S
H933 C945 0.950 . S
H934 C942 0.950 . S
H935 C944 0.950 . S
H936 C946 0.950 . S
H937 C948 0.950 . S
H938 C950 0.950 . S
H939 C951 0.950 . S
C940 H932 0.950 . S
C940 C941 1.386 . S
C940 C942 1.391 . S
C941 C940 1.386 . S
C941 C945 1.393 . S
C942 H934 0.950 . S
C942 C940 1.391 . S
C942 C943 1.400 . S
C943 C942 1.400 . S
C943 C944 1.398 . S
C943 C949 1.491 . S
C944 H935 0.950 . S
C944 C943 1.398 . S
C944 C945 1.391 . S
C945 H933 0.950 . S
C945 C941 1.393 . S
C945 C944 1.391 . S
C946 H936 0.950 . S
C946 C947 1.386 . S
C946 C948 1.391 . S
C947 C946 1.386 . S
C947 C951 1.393 . S
C948 H937 0.950 . S
C948 C946 1.391 . S
C948 C949 1.400 . S
C949 C943 1.491 . S
C949 C948 1.400 . S
C949 C950 1.398 . S
C950 H938 0.950 . S
C950 C949 1.398 . S
C950 C951 1.391 . S
C951 H939 0.950 . S
C951 C947 1.393 . S
C951 C950 1.391 . S
H952 C960 0.950 . S
H953 C965 0.950 . S
H954 C962 0.950 . S
H955 C964 0.950 . S
H956 C966 0.950 . S
H957 C968 0.950 . S
H958 C970 0.950 . S
H959 C971 0.950 . S
C960 H952 0.950 . S
C960 C961 1.386 . S
C960 C962 1.391 . S
C961 C960 1.386 . S
C961 C965 1.393 . S
C962 H954 0.950 . S
C962 C960 1.391 . S
C962 C963 1.400 . S
C963 C962 1.400 . S
C963 C964 1.398 . S
C963 C969 1.491 . S
C964 H955 0.950 . S
C964 C963 1.398 . S
C964 C965 1.391 . S
C965 H953 0.950 . S
C965 C961 1.393 . S
C965 C964 1.391 . S
C966 H956 0.950 . S
C966 C967 1.386 . S
C966 C968 1.391 . S
C967 C966 1.386 . S
C967 C971 1.393 . S
C968 H957 0.950 . S
C968 C966 1.391 . S
C968 C969 1.400 . S
C969 C963 1.491 . S
C969 C968 1.400 . S
C969 C970 1.398 . S
C970 H958 0.950 . S
C970 C969 1.398 . S
C970 C971 1.391 . S
C971 H959 0.950 . S
C971 C967 1.393 . S
C971 C970 1.391 . S
H972 C980 0.950 . S
H973 C985 0.950 . S
H974 C982 0.950 . S
H975 C984 0.950 . S
H976 C986 0.950 . S
H977 C988 0.950 . S
H978 C990 0.950 . S
H979 C991 0.950 . S
C980 H972 0.950 . S
C980 C981 1.386 . S
C980 C982 1.391 . S
C981 C980 1.386 . S
C981 C985 1.393 . S
C982 H974 0.950 . S
C982 C980 1.391 . S
C982 C983 1.400 . S
C983 C982 1.400 . S
C983 C984 1.398 . S
C983 C989 1.491 . S
C984 H975 0.950 . S
C984 C983 1.398 . S
C984 C985 1.391 . S
C985 H973 0.950 . S
C985 C981 1.393 . S
C985 C984 1.391 . S
C986 H976 0.950 . S
C986 C987 1.386 . S
C986 C988 1.391 . S
C987 C986 1.386 . S
C987 C991 1.393 . S
C988 H977 0.950 . S
C988 C986 1.391 . S
C988 C989 1.400 . S
C989 C983 1.491 . S
C989 C988 1.400 . S
C989 C990 1.398 . S
C990 H978 0.950 . S
C990 C989 1.398 . S
C990 C991 1.391 . S
C991 H979 0.950 . S
C991 C987 1.393 . S
C991 C990 1.391 . S
H992 C1000 0.950 . S
H993 C1005 0.950 . S
H994 C1002 0.950 . S
H995 C1004 0.950 . S
H996 C1006 0.950 . S
H997 C1008 0.950 . S
H998 C1010 0.950 . S
H999 C1011 0.950 . S
C1000 H992 0.950 . S
C1000 C1001 1.386 . S
C1000 C1002 1.391 . S
C1001 C1000 1.386 . S
C1001 C1005 1.393 . S
C1002 H994 0.950 . S
C1002 C1000 1.391 . S
C1002 C1003 1.400 . S
C1003 C1002 1.400 . S
C1003 C1004 1.398 . S
C1003 C1009 1.491 . S
C1004 H995 0.950 . S
C1004 C1003 1.398 . S
C1004 C1005 1.391 . S
C1005 H993 0.950 . S
C1005 C1001 1.393 . S
C1005 C1004 1.391 . S
C1006 H996 0.950 . S
C1006 C1007 1.386 . S
C1006 C1008 1.391 . S
C1007 C1006 1.386 . S
C1007 C1011 1.393 . S
C1008 H997 0.950 . S
C1008 C1006 1.391 . S
C1008 C1009 1.400 . S
C1009 C1003 1.491 . S
C1009 C1008 1.400 . S
C1009 C1010 1.398 . S
C1010 H998 0.950 . S
C1010 C1009 1.398 . S
C1010 C1011 1.391 . S
C1011 H999 0.950 . S
C1011 C1007 1.393 . S
C1011 C1010 1.391 . S
H1012 C1020 0.950 . S
H1013 C1025 0.950 . S
H1014 C1022 0.950 . S
H1015 C1024 0.950 . S
H1016 C1026 0.950 . S
H1017 C1028 0.950 . S
H1018 C1030 0.950 . S
H1019 C1031 0.950 . S
C1020 H1012 0.950 . S
C1020 C1021 1.402 . S
C1020 C1022 1.391 . S
C1021 C1020 1.402 . S
C1021 C1025 1.379 1_545 S
C1022 H1014 0.950 . S
C1022 C1020 1.391 . S
C1022 C1023 1.406 . S
C1023 C1022 1.406 . S
C1023 C1024 1.394 1_545 S
C1023 C1029 1.490 1_445 S
C1024 H1015 0.950 . S
C1024 C1023 1.394 1_565 S
C1024 C1025 1.391 . S
C1025 H1013 0.950 . S
C1025 C1021 1.379 1_565 S
C1025 C1024 1.391 . S
C1026 H1016 0.950 . S
C1026 C1027 1.402 . S
C1026 C1028 1.391 . S
C1027 C1026 1.402 . S
C1027 C1031 1.379 1_565 S
C1028 H1017 0.950 . S
C1028 C1026 1.391 . S
C1028 C1029 1.406 . S
C1029 C1023 1.490 1_665 S
C1029 C1028 1.406 . S
C1029 C1030 1.394 1_565 S
C1030 H1018 0.950 . S
C1030 C1029 1.394 1_545 S
C1030 C1031 1.391 . S
C1031 H1019 0.950 . S
C1031 C1027 1.379 1_545 S
C1031 C1030 1.391 . S
H1032 C1040 0.950 . S
H1033 C1045 0.950 . S
H1034 C1042 0.950 . S
H1035 C1044 0.950 . S
H1036 C1046 0.950 . S
H1037 C1048 0.950 . S
H1038 C1050 0.950 . S
H1039 C1051 0.950 . S
C1040 H1032 0.950 . S
C1040 C1041 1.386 . S
C1040 C1042 1.391 . S
C1041 C1040 1.386 . S
C1041 C1045 1.393 . S
C1042 H1034 0.950 . S
C1042 C1040 1.391 . S
C1042 C1043 1.400 . S
C1043 C1042 1.400 . S
C1043 C1044 1.398 . S
C1043 C1049 1.491 . S
C1044 H1035 0.950 . S
C1044 C1043 1.398 . S
C1044 C1045 1.391 . S
C1045 H1033 0.950 . S
C1045 C1041 1.393 . S
C1045 C1044 1.391 . S
C1046 H1036 0.950 . S
C1046 C1047 1.386 . S
C1046 C1048 1.391 . S
C1047 C1046 1.386 . S
C1047 C1051 1.393 . S
C1048 H1037 0.950 . S
C1048 C1046 1.391 . S
C1048 C1049 1.400 . S
C1049 C1043 1.491 . S
C1049 C1048 1.400 . S
C1049 C1050 1.398 . S
C1050 H1038 0.950 . S
C1050 C1049 1.398 . S
C1050 C1051 1.391 . S
C1051 H1039 0.950 . S
C1051 C1047 1.393 . S
C1051 C1050 1.391 . S
H1052 C1060 0.950 . S
H1053 C1065 0.952 . S
H1054 C1062 0.950 . S
H1055 C1064 0.949 . S
H1056 C1066 0.950 . S
H1057 C1068 0.950 . S
H1058 C1070 0.949 . S
H1059 C1071 0.952 . S
C1060 H1052 0.950 . S
C1060 C1061 1.393 1_554 S
C1060 C1062 1.391 . S
C1061 C1060 1.393 1_556 S
C1061 C1065 1.389 1_565 S
C1062 H1054 0.950 . S
C1062 C1060 1.391 . S
C1062 C1063 1.402 1_554 S
C1063 C1062 1.402 1_556 S
C1063 C1064 1.397 1_565 S
C1063 C1069 1.489 1_566 S
C1064 H1055 0.949 . S
C1064 C1063 1.397 1_545 S
C1064 C1065 1.391 . S
C1065 H1053 0.952 . S
C1065 C1061 1.389 1_545 S
C1065 C1064 1.391 . S
C1066 H1056 0.950 . S
C1066 C1067 1.393 1_556 S
C1066 C1068 1.391 . S
C1067 C1066 1.393 1_554 S
C1067 C1071 1.389 1_545 S
C1068 H1057 0.950 . S
C1068 C1066 1.391 . S
C1068 C1069 1.402 1_556 S
C1069 C1063 1.489 1_544 S
C1069 C1068 1.402 1_554 S
C1069 C1070 1.397 1_545 S
C1070 H1058 0.949 . S
C1070 C1069 1.397 1_565 S
C1070 C1071 1.391 . S
C1071 H1059 0.952 . S
C1071 C1067 1.389 1_565 S
C1071 C1070 1.391 . S
H1072 C1080 0.950 . S
H1073 C1085 0.950 . S
H1074 C1082 0.950 . S
H1075 C1084 0.950 . S
H1076 C1086 0.950 . S
H1077 C1088 0.950 . S
H1078 C1090 0.950 . S
H1079 C1091 0.950 . S
C1080 H1072 0.950 . S
C1080 C1081 1.386 . S
C1080 C1082 1.391 . S
C1081 C1080 1.386 . S
C1081 C1085 1.393 . S
C1082 H1074 0.950 . S
C1082 C1080 1.391 . S
C1082 C1083 1.400 . S
C1083 C1082 1.400 . S
C1083 C1084 1.398 . S
C1083 C1089 1.491 . S
C1084 H1075 0.950 . S
C1084 C1083 1.398 . S
C1084 C1085 1.391 . S
C1085 H1073 0.950 . S
C1085 C1081 1.393 . S
C1085 C1084 1.391 . S
C1086 H1076 0.950 . S
C1086 C1087 1.386 . S
C1086 C1088 1.391 . S
C1087 C1086 1.386 . S
C1087 C1091 1.393 . S
C1088 H1077 0.950 . S
C1088 C1086 1.391 . S
C1088 C1089 1.400 . S
C1089 C1083 1.491 . S
C1089 C1088 1.400 . S
C1089 C1090 1.398 . S
C1090 H1078 0.950 . S
C1090 C1089 1.398 . S
C1090 C1091 1.391 . S
C1091 H1079 0.950 . S
C1091 C1087 1.393 . S
C1091 C1090 1.391 . S
H1092 C1100 0.950 . S
H1093 C1105 0.950 . S
H1094 C1102 0.950 . S
H1095 C1104 0.950 . S
H1096 C1106 0.950 . S
H1097 C1108 0.950 . S
H1098 C1110 0.950 . S
H1099 C1111 0.950 . S
C1100 H1092 0.950 . S
C1100 C1101 1.408 . S
C1100 C1102 1.391 . S
C1101 C1100 1.408 . S
C1101 C1105 1.373 1_545 S
C1102 H1094 0.950 . S
C1102 C1100 1.391 . S
C1102 C1103 1.407 . S
C1103 C1102 1.407 . S
C1103 C1104 1.392 1_545 S
C1103 C1109 1.490 1_545 S
C1104 H1095 0.950 . S
C1104 C1103 1.392 1_565 S
C1104 C1105 1.391 . S
C1105 H1093 0.950 . S
C1105 C1101 1.373 1_565 S
C1105 C1104 1.391 . S
C1106 H1096 0.950 . S
C1106 C1107 1.408 . S
C1106 C1108 1.391 . S
C1107 C1106 1.408 . S
C1107 C1111 1.373 1_565 S
C1108 H1097 0.950 . S
C1108 C1106 1.391 . S
C1108 C1109 1.407 . S
C1109 C1103 1.490 1_565 S
C1109 C1108 1.407 . S
C1109 C1110 1.392 1_565 S
C1110 H1098 0.950 . S
C1110 C1109 1.392 1_545 S
C1110 C1111 1.391 . S
C1111 H1099 0.950 . S
C1111 C1107 1.373 1_545 S
C1111 C1110 1.391 . S
H1112 C1120 0.950 . S
H1113 C1125 0.950 . S
H1114 C1122 0.950 . S
H1115 C1124 0.950 . S
H1116 C1126 0.950 . S
H1117 C1128 0.950 . S
H1118 C1130 0.950 . S
H1119 C1131 0.950 . S
C1120 H1112 0.950 . S
C1120 C1121 1.386 . S
C1120 C1122 1.391 . S
C1121 C1120 1.386 . S
C1121 C1125 1.393 . S
C1122 H1114 0.950 . S
C1122 C1120 1.391 . S
C1122 C1123 1.400 . S
C1123 C1122 1.400 . S
C1123 C1124 1.398 . S
C1123 C1129 1.491 . S
C1124 H1115 0.950 . S
C1124 C1123 1.398 . S
C1124 C1125 1.391 . S
C1125 H1113 0.950 . S
C1125 C1121 1.393 . S
C1125 C1124 1.391 . S
C1126 H1116 0.950 . S
C1126 C1127 1.386 . S
C1126 C1128 1.391 . S
C1127 C1126 1.386 . S
C1127 C1131 1.393 . S
C1128 H1117 0.950 . S
C1128 C1126 1.391 . S
C1128 C1129 1.400 . S
C1129 C1123 1.491 . S
C1129 C1128 1.400 . S
C1129 C1130 1.398 . S
C1130 H1118 0.950 . S
C1130 C1129 1.398 . S
C1130 C1131 1.391 . S
C1131 H1119 0.950 . S
C1131 C1127 1.393 . S
C1131 C1130 1.391 . S
H1132 C1140 0.950 . S
H1133 C1145 0.950 . S
H1134 C1142 0.950 . S
H1135 C1144 0.950 . S
H1136 C1146 0.950 . S
H1137 C1148 0.950 . S
H1138 C1150 0.950 . S
H1139 C1151 0.950 . S
C1140 H1132 0.950 . S
C1140 C1141 1.408 1_556 S
C1140 C1142 1.391 . S
C1141 C1140 1.408 1_554 S
C1141 C1145 1.373 1_565 S
C1142 H1134 0.950 . S
C1142 C1140 1.391 . S
C1142 C1143 1.407 1_556 S
C1143 C1142 1.407 1_554 S
C1143 C1144 1.392 1_565 S
C1143 C1149 1.490 1_464 S
C1144 H1135 0.950 . S
C1144 C1143 1.392 1_545 S
C1144 C1145 1.391 . S
C1145 H1133 0.950 . S
C1145 C1141 1.373 1_545 S
C1145 C1144 1.391 . S
C1146 H1136 0.950 . S
C1146 C1147 1.408 1_554 S
C1146 C1148 1.391 . S
C1147 C1146 1.408 1_556 S
C1147 C1151 1.373 1_545 S
C1148 H1137 0.950 . S
C1148 C1146 1.391 . S
C1148 C1149 1.407 1_554 S
C1149 C1143 1.490 1_646 S
C1149 C1148 1.407 1_556 S
C1149 C1150 1.392 1_545 S
C1150 H1138 0.950 . S
C1150 C1149 1.392 1_565 S
C1150 C1151 1.391 . S
C1151 H1139 0.950 . S
C1151 C1147 1.373 1_565 S
C1151 C1150 1.391 . S
H1152 C1160 0.950 . S
H1153 C1165 0.950 . S
H1154 C1162 0.950 . S
H1155 C1164 0.950 . S
H1156 C1166 0.950 . S
H1157 C1168 0.950 . S
H1158 C1170 0.950 . S
H1159 C1171 0.950 . S
C1160 H1152 0.950 . S
C1160 C1161 1.386 . S
C1160 C1162 1.391 . S
C1161 C1160 1.386 . S
C1161 C1165 1.393 . S
C1162 H1154 0.950 . S
C1162 C1160 1.391 . S
C1162 C1163 1.400 . S
C1163 C1162 1.400 . S
C1163 C1164 1.398 . S
C1163 C1169 1.491 . S
C1164 H1155 0.950 . S
C1164 C1163 1.398 . S
C1164 C1165 1.391 . S
C1165 H1153 0.950 . S
C1165 C1161 1.393 . S
C1165 C1164 1.391 . S
C1166 H1156 0.950 . S
C1166 C1167 1.386 . S
C1166 C1168 1.391 . S
C1167 C1166 1.386 . S
C1167 C1171 1.393 . S
C1168 H1157 0.950 . S
C1168 C1166 1.391 . S
C1168 C1169 1.400 . S
C1169 C1163 1.491 . S
C1169 C1168 1.400 . S
C1169 C1170 1.398 . S
C1170 H1158 0.950 . S
C1170 C1169 1.398 . S
C1170 C1171 1.391 . S
C1171 H1159 0.950 . S
C1171 C1167 1.393 . S
C1171 C1170 1.391 . S
H1172 C1180 0.950 . S
H1173 C1185 0.950 . S
H1174 C1182 0.950 . S
H1175 C1184 0.950 . S
H1176 C1186 0.950 . S
H1177 C1188 0.950 . S
H1178 C1190 0.950 . S
H1179 C1191 0.950 . S
C1180 H1172 0.950 . S
C1180 C1181 1.386 . S
C1180 C1182 1.391 . S
C1181 C1180 1.386 . S
C1181 C1185 1.393 . S
C1182 H1174 0.950 . S
C1182 C1180 1.391 . S
C1182 C1183 1.400 . S
C1183 C1182 1.400 . S
C1183 C1184 1.398 . S
C1183 C1189 1.491 . S
C1184 H1175 0.950 . S
C1184 C1183 1.398 . S
C1184 C1185 1.391 . S
C1185 H1173 0.950 . S
C1185 C1181 1.393 . S
C1185 C1184 1.391 . S
C1186 H1176 0.950 . S
C1186 C1187 1.386 . S
C1186 C1188 1.391 . S
C1187 C1186 1.386 . S
C1187 C1191 1.393 . S
C1188 H1177 0.950 . S
C1188 C1186 1.391 . S
C1188 C1189 1.400 . S
C1189 C1183 1.491 . S
C1189 C1188 1.400 . S
C1189 C1190 1.398 . S
C1190 H1178 0.950 . S
C1190 C1189 1.398 . S
C1190 C1191 1.391 . S
C1191 H1179 0.950 . S
C1191 C1187 1.393 . S
C1191 C1190 1.391 . S
H1192 C1200 0.950 . S
H1193 C1205 0.950 . S
H1194 C1202 0.950 . S
H1195 C1204 0.950 . S
H1196 C1206 0.950 . S
H1197 C1208 0.950 . S
H1198 C1210 0.950 . S
H1199 C1211 0.950 . S
C1200 H1192 0.950 . S
C1200 C1201 1.386 . S
C1200 C1202 1.391 . S
C1201 C1200 1.386 . S
C1201 C1205 1.393 . S
C1202 H1194 0.950 . S
C1202 C1200 1.391 . S
C1202 C1203 1.400 . S
C1203 C1202 1.400 . S
C1203 C1204 1.398 . S
C1203 C1209 1.491 . S
C1204 H1195 0.950 . S
C1204 C1203 1.398 . S
C1204 C1205 1.391 . S
C1205 H1193 0.950 . S
C1205 C1201 1.393 . S
C1205 C1204 1.391 . S
C1206 H1196 0.950 . S
C1206 C1207 1.386 . S
C1206 C1208 1.391 . S
C1207 C1206 1.386 . S
C1207 C1211 1.393 . S
C1208 H1197 0.950 . S
C1208 C1206 1.391 . S
C1208 C1209 1.400 . S
C1209 C1203 1.491 . S
C1209 C1208 1.400 . S
C1209 C1210 1.398 . S
C1210 H1198 0.950 . S
C1210 C1209 1.398 . S
C1210 C1211 1.391 . S
C1211 H1199 0.950 . S
C1211 C1207 1.393 . S
C1211 C1210 1.391 . S
H1212 C1220 0.950 . S
H1213 C1225 0.950 . S
H1214 C1222 0.950 . S
H1215 C1224 0.950 . S
H1216 C1226 0.950 . S
H1217 C1228 0.950 . S
H1218 C1230 0.950 . S
H1219 C1231 0.950 . S
C1220 H1212 0.950 . S
C1220 C1221 1.386 . S
C1220 C1222 1.391 . S
C1221 C1220 1.386 . S
C1221 C1225 1.393 . S
C1222 H1214 0.950 . S
C1222 C1220 1.391 . S
C1222 C1223 1.400 . S
C1223 C1222 1.400 . S
C1223 C1224 1.398 . S
C1223 C1229 1.491 . S
C1224 H1215 0.950 . S
C1224 C1223 1.398 . S
C1224 C1225 1.391 . S
C1225 H1213 0.950 . S
C1225 C1221 1.393 . S
C1225 C1224 1.391 . S
C1226 H1216 0.950 . S
C1226 C1227 1.386 . S
C1226 C1228 1.391 . S
C1227 C1226 1.386 . S
C1227 C1231 1.393 . S
C1228 H1217 0.950 . S
C1228 C1226 1.391 . S
C1228 C1229 1.400 . S
C1229 C1223 1.491 . S
C1229 C1228 1.400 . S
C1229 C1230 1.398 . S
C1230 H1218 0.950 . S
C1230 C1229 1.398 . S
C1230 C1231 1.391 . S
C1231 H1219 0.950 . S
C1231 C1227 1.393 . S
C1231 C1230 1.391 . S
H1232 C1240 0.950 . S
H1233 C1245 0.950 . S
H1234 C1242 0.950 . S
H1235 C1244 0.950 . S
H1236 C1246 0.950 . S
H1237 C1248 0.950 . S
H1238 C1250 0.950 . S
H1239 C1251 0.950 . S
C1240 H1232 0.950 . S
C1240 C1241 1.386 1_554 S
C1240 C1242 1.391 . S
C1241 C1240 1.386 1_556 S
C1241 C1245 1.393 . S
C1242 H1234 0.950 . S
C1242 C1240 1.391 . S
C1242 C1243 1.400 1_554 S
C1243 C1242 1.400 1_556 S
C1243 C1244 1.398 . S
C1243 C1249 1.491 1_556 S
C1244 H1235 0.950 . S
C1244 C1243 1.398 . S
C1244 C1245 1.391 . S
C1245 H1233 0.950 . S
C1245 C1241 1.393 . S
C1245 C1244 1.391 . S
C1246 H1236 0.950 . S
C1246 C1247 1.386 1_556 S
C1246 C1248 1.391 . S
C1247 C1246 1.386 1_554 S
C1247 C1251 1.393 . S
C1248 H1237 0.950 . S
C1248 C1246 1.391 . S
C1248 C1249 1.400 1_556 S
C1249 C1243 1.491 1_554 S
C1249 C1248 1.400 1_554 S
C1249 C1250 1.398 . S
C1250 H1238 0.950 . S
C1250 C1249 1.398 . S
C1250 C1251 1.391 . S
C1251 H1239 0.950 . S
C1251 C1247 1.393 . S
C1251 C1250 1.391 . S
H1252 C1260 0.950 . S
H1253 C1265 0.950 . S
H1254 C1262 0.950 . S
H1255 C1264 0.950 . S
H1256 C1266 0.950 . S
H1257 C1268 0.950 . S
H1258 C1270 0.950 . S
H1259 C1271 0.950 . S
C1260 H1252 0.950 . S
C1260 C1261 1.386 . S
C1260 C1262 1.391 . S
C1261 C1260 1.386 . S
C1261 C1265 1.393 . S
C1262 H1254 0.950 . S
C1262 C1260 1.391 . S
C1262 C1263 1.400 . S
C1263 C1262 1.400 . S
C1263 C1264 1.398 . S
C1263 C1269 1.491 1_655 S
C1264 H1255 0.950 . S
C1264 C1263 1.398 . S
C1264 C1265 1.391 . S
C1265 H1253 0.950 . S
C1265 C1261 1.393 . S
C1265 C1264 1.391 . S
C1266 H1256 0.950 . S
C1266 C1267 1.386 . S
C1266 C1268 1.391 . S
C1267 C1266 1.386 . S
C1267 C1271 1.393 . S
C1268 H1257 0.950 . S
C1268 C1266 1.391 . S
C1268 C1269 1.400 . S
C1269 C1263 1.491 1_455 S
C1269 C1268 1.400 . S
C1269 C1270 1.398 . S
C1270 H1258 0.950 . S
C1270 C1269 1.398 . S
C1270 C1271 1.391 . S
C1271 H1259 0.950 . S
C1271 C1267 1.393 . S
C1271 C1270 1.391 . S
H1272 C1280 0.950 1_554 S
H1273 C1285 0.950 . S
H1274 C1282 0.950 . S
H1275 C1284 0.950 . S
H1276 C1286 0.950 1_556 S
H1277 C1288 0.950 . S
H1278 C1290 0.950 . S
H1279 C1291 0.950 . S
C1280 H1272 0.950 1_556 S
C1280 C1281 1.386 . S
C1280 C1282 1.391 1_556 S
C1281 C1280 1.386 . S
C1281 C1285 1.393 . S
C1282 H1274 0.950 . S
C1282 C1280 1.391 1_554 S
C1282 C1283 1.400 1_554 S
C1283 C1282 1.400 1_556 S
C1283 C1284 1.398 . S
C1283 C1289 1.491 1_456 S
C1284 H1275 0.950 . S
C1284 C1283 1.398 . S
C1284 C1285 1.391 . S
C1285 H1273 0.950 . S
C1285 C1281 1.393 . S
C1285 C1284 1.391 . S
C1286 H1276 0.950 1_554 S
C1286 C1287 1.386 . S
C1286 C1288 1.391 1_554 S
C1287 C1286 1.386 . S
C1287 C1291 1.393 . S
C1288 H1277 0.950 . S
C1288 C1286 1.391 1_556 S
C1288 C1289 1.400 1_556 S
C1289 C1283 1.491 1_654 S
C1289 C1288 1.400 1_554 S
C1289 C1290 1.398 . S
C1290 H1278 0.950 . S
C1290 C1289 1.398 . S
C1290 C1291 1.391 . S
C1291 H1279 0.950 . S
C1291 C1287 1.393 . S
C1291 C1290 1.391 . S
H1292 C1300 0.950 . S
H1293 C1305 0.950 . S
H1294 C1302 0.950 . S
H1295 C1304 0.950 . S
H1296 C1306 0.950 . S
H1297 C1308 0.950 . S
H1298 C1310 0.950 . S
H1299 C1311 0.950 . S
C1300 H1292 0.950 . S
C1300 C1301 1.386 . S
C1300 C1302 1.391 . S
C1301 C1300 1.386 . S
C1301 C1305 1.393 . S
C1302 H1294 0.950 . S
C1302 C1300 1.391 . S
C1302 C1303 1.400 . S
C1303 C1302 1.400 . S
C1303 C1304 1.398 . S
C1303 C1309 1.491 . S
C1304 H1295 0.950 . S
C1304 C1303 1.398 . S
C1304 C1305 1.391 . S
C1305 H1293 0.950 . S
C1305 C1301 1.393 . S
C1305 C1304 1.391 . S
C1306 H1296 0.950 . S
C1306 C1307 1.386 . S
C1306 C1308 1.391 . S
C1307 C1306 1.386 . S
C1307 C1311 1.393 . S
C1308 H1297 0.950 . S
C1308 C1306 1.391 . S
C1308 C1309 1.400 . S
C1309 C1303 1.491 . S
C1309 C1308 1.400 . S
C1309 C1310 1.398 . S
C1310 H1298 0.950 . S
C1310 C1309 1.398 . S
C1310 C1311 1.391 . S
C1311 H1299 0.950 . S
C1311 C1307 1.393 . S
C1311 C1310 1.391 . S
C361 C7 1.425 . S
C367 C73 1.424 . S
C381 C18 1.442 . S
C387 C84 1.439 . S
C401 C29 1.436 . S
C407 C51 1.439 . S
C421 C40 1.455 . S
C427 C62 1.453 . S
C441 C161 1.523 . S
C447 C95 1.536 . S
C461 C172 1.522 . S
C467 C106 1.533 . S
C481 C139 1.537 . S
C487 C117 1.524 . S
C501 C150 1.533 . S
C507 C128 1.523 . S
C521 C249 1.457 . S
C527 C183 1.457 . S
C541 C194 1.440 . S
C547 C260 1.443 . S
C561 C227 1.438 . S
C567 C205 1.441 . S
C581 C216 1.447 . S
C587 C238 1.444 . S
C601 C337 1.529 . S
C607 C271 1.533 . S
C621 C282 1.530 . S
C627 C348 1.524 . S
C641 C293 1.534 . S
C647 C315 1.521 . S
C661 C304 1.534 . S
C667 C326 1.529 . S
C681 C8 1.651 . S
C687 C85 1.640 . S
C701 C52 1.649 . S
C707 C19 1.636 . S
C721 C63 1.650 . S
C727 C30 1.644 . S
C741 C74 1.633 . S
C747 C41 1.646 . S
C761 C173 1.681 . S
C767 C96 1.679 . S
C781 C107 1.680 . S
C787 C140 1.678 . S
C801 C118 1.680 . S
C807 C151 1.678 . S
C821 C162 1.676 . S
C827 C129 1.677 . S
C841 C261 1.632 . S
C847 C184 1.640 . S
C861 C228 1.651 . S
C867 C195 1.639 . S
C881 C206 1.641 . S
C887 C239 1.651 . S
C901 C250 1.651 . S
C907 C217 1.640 . S
C921 C349 1.676 . S
C927 C272 1.677 . S
C941 C316 1.677 . S
C947 C283 1.676 . S
C961 C327 1.679 . S
C967 C294 1.677 . S
C981 C305 1.678 . S
C987 C338 1.676 . S
C1001 C5 1.312 . S
C1007 C269 1.613 . S
C1021 C16 1.329 1_545 S
C1027 C104 1.621 . S
C1041 C291 1.600 . S
C1047 C27 1.344 . S
C1061 C38 1.327 1_566 S
C1067 C126 1.621 . S
C1081 C313 1.630 . S
C1087 C49 1.309 . S
C1101 C60 1.333 1_545 S
C1107 C148 1.621 . S
C1121 C335 1.611 . S
C1127 C71 1.316 . S
C1141 C82 1.333 1_564 S
C1147 C170 1.620 . S
C1161 C93 1.611 . S
C1167 C181 1.315 . S
C1181 C203 1.303 . S
C1187 C115 1.623 . S
C1201 C225 1.332 . S
C1207 C137 1.625 . S
C1221 C247 1.357 . S
C1227 C159 1.606 . S
C1241 C192 1.356 1_556 S
C1247 C280 1.607 . S
C1261 C214 1.318 . S
C1267 C302 1.609 . S
C1281 C324 1.617 . S
C1287 C236 1.348 1_554 S
C1301 C258 1.338 . S
C1307 C346 1.623 . S
