# Generated by pormake.
# Topology uoa, (4)-cn, num edge types: 1
# Building blocks:
#     Node 0, Type 0, BuildingBlock: KUFVIS_clean_sbu_0, # of connection points: 4
#     Node 1, Type 0, BuildingBlock: KUFVIS_clean_sbu_0, # of connection points: 4
#     Node 2, Type 0, BuildingBlock: KUFVIS_clean_sbu_0, # of connection points: 4
#     Node 3, Type 0, BuildingBlock: KUFVIS_clean_sbu_0, # of connection points: 4
#     Node 4, Type 0, BuildingBlock: KUFVIS_clean_sbu_0, # of connection points: 4
#     Node 5, Type 0, BuildingBlock: KUFVIS_clean_sbu_0, # of connection points: 4
#     Node 6, Type 0, BuildingBlock: KUFVIS_clean_sbu_0, # of connection points: 4
#     Node 7, Type 0, BuildingBlock: KUFVIS_clean_sbu_0, # of connection points: 4
#     Node 8, Type 0, BuildingBlock: KUFVIS_clean_sbu_0, # of connection points: 4
#     Node 9, Type 0, BuildingBlock: KUFVIS_clean_sbu_0, # of connection points: 4
#     Node 10, Type 0, BuildingBlock: KUFVIS_clean_sbu_0, # of connection points: 4
#     Node 11, Type 0, BuildingBlock: KUFVIS_clean_sbu_0, # of connection points: 4
#     Node 12, Type 0, BuildingBlock: KUFVIS_clean_sbu_0, # of connection points: 4
#     Node 13, Type 0, BuildingBlock: KUFVIS_clean_sbu_0, # of connection points: 4
#     Node 14, Type 0, BuildingBlock: KUFVIS_clean_sbu_0, # of connection points: 4
#     Node 15, Type 0, BuildingBlock: KUFVIS_clean_sbu_0, # of connection points: 4
#     Node 16, Type 0, BuildingBlock: KUFVIS_clean_sbu_0, # of connection points: 4
#     Node 17, Type 0, BuildingBlock: KUFVIS_clean_sbu_0, # of connection points: 4
#     Node 18, Type 0, BuildingBlock: KUFVIS_clean_sbu_0, # of connection points: 4
#     Node 19, Type 0, BuildingBlock: KUFVIS_clean_sbu_0, # of connection points: 4
#     Node 20, Type 0, BuildingBlock: KUFVIS_clean_sbu_0, # of connection points: 4
#     Node 21, Type 0, BuildingBlock: KUFVIS_clean_sbu_0, # of connection points: 4
#     Node 22, Type 0, BuildingBlock: KUFVIS_clean_sbu_0, # of connection points: 4
#     Node 23, Type 0, BuildingBlock: KUFVIS_clean_sbu_0, # of connection points: 4
#     Node 24, Type 0, BuildingBlock: KUFVIS_clean_sbu_0, # of connection points: 4
#     Node 25, Type 0, BuildingBlock: KUFVIS_clean_sbu_0, # of connection points: 4
#     Node 26, Type 0, BuildingBlock: KUFVIS_clean_sbu_0, # of connection points: 4
#     Node 27, Type 0, BuildingBlock: KUFVIS_clean_sbu_0, # of connection points: 4
#     Node 28, Type 0, BuildingBlock: KUFVIS_clean_sbu_0, # of connection points: 4
#     Node 29, Type 0, BuildingBlock: KUFVIS_clean_sbu_0, # of connection points: 4
#     Node 30, Type 0, BuildingBlock: KUFVIS_clean_sbu_0, # of connection points: 4
#     Node 31, Type 0, BuildingBlock: KUFVIS_clean_sbu_0, # of connection points: 4
#     Edge 32, Type (0, 0), BuildingBlock: XUDNAN_clean_linker_2, # of connection points: 2
#     Edge 33, Type (0, 0), BuildingBlock: XUDNAN_clean_linker_2, # of connection points: 2
#     Edge 34, Type (0, 0), BuildingBlock: XUDNAN_clean_linker_2, # of connection points: 2
#     Edge 35, Type (0, 0), BuildingBlock: XUDNAN_clean_linker_2, # of connection points: 2
#     Edge 36, Type (0, 0), BuildingBlock: XUDNAN_clean_linker_2, # of connection points: 2
#     Edge 37, Type (0, 0), BuildingBlock: XUDNAN_clean_linker_2, # of connection points: 2
#     Edge 38, Type (0, 0), BuildingBlock: XUDNAN_clean_linker_2, # of connection points: 2
#     Edge 39, Type (0, 0), BuildingBlock: XUDNAN_clean_linker_2, # of connection points: 2
#     Edge 40, Type (0, 0), BuildingBlock: XUDNAN_clean_linker_2, # of connection points: 2
#     Edge 41, Type (0, 0), BuildingBlock: XUDNAN_clean_linker_2, # of connection points: 2
#     Edge 42, Type (0, 0), BuildingBlock: XUDNAN_clean_linker_2, # of connection points: 2
#     Edge 43, Type (0, 0), BuildingBlock: XUDNAN_clean_linker_2, # of connection points: 2
#     Edge 44, Type (0, 0), BuildingBlock: XUDNAN_clean_linker_2, # of connection points: 2
#     Edge 45, Type (0, 0), BuildingBlock: XUDNAN_clean_linker_2, # of connection points: 2
#     Edge 46, Type (0, 0), BuildingBlock: XUDNAN_clean_linker_2, # of connection points: 2
#     Edge 47, Type (0, 0), BuildingBlock: XUDNAN_clean_linker_2, # of connection points: 2
#     Edge 48, Type (0, 0), BuildingBlock: XUDNAN_clean_linker_2, # of connection points: 2
#     Edge 49, Type (0, 0), BuildingBlock: XUDNAN_clean_linker_2, # of connection points: 2
#     Edge 50, Type (0, 0), BuildingBlock: XUDNAN_clean_linker_2, # of connection points: 2
#     Edge 51, Type (0, 0), BuildingBlock: XUDNAN_clean_linker_2, # of connection points: 2
#     Edge 52, Type (0, 0), BuildingBlock: XUDNAN_clean_linker_2, # of connection points: 2
#     Edge 53, Type (0, 0), BuildingBlock: XUDNAN_clean_linker_2, # of connection points: 2
#     Edge 54, Type (0, 0), BuildingBlock: XUDNAN_clean_linker_2, # of connection points: 2
#     Edge 55, Type (0, 0), BuildingBlock: XUDNAN_clean_linker_2, # of connection points: 2
#     Edge 56, Type (0, 0), BuildingBlock: XUDNAN_clean_linker_2, # of connection points: 2
#     Edge 57, Type (0, 0), BuildingBlock: XUDNAN_clean_linker_2, # of connection points: 2
#     Edge 58, Type (0, 0), BuildingBlock: XUDNAN_clean_linker_2, # of connection points: 2
#     Edge 59, Type (0, 0), BuildingBlock: XUDNAN_clean_linker_2, # of connection points: 2
#     Edge 60, Type (0, 0), BuildingBlock: XUDNAN_clean_linker_2, # of connection points: 2
#     Edge 61, Type (0, 0), BuildingBlock: XUDNAN_clean_linker_2, # of connection points: 2
#     Edge 62, Type (0, 0), BuildingBlock: XUDNAN_clean_linker_2, # of connection points: 2
#     Edge 63, Type (0, 0), BuildingBlock: XUDNAN_clean_linker_2, # of connection points: 2
#     Edge 64, Type (0, 0), BuildingBlock: XUDNAN_clean_linker_2, # of connection points: 2
#     Edge 65, Type (0, 0), BuildingBlock: XUDNAN_clean_linker_2, # of connection points: 2
#     Edge 66, Type (0, 0), BuildingBlock: XUDNAN_clean_linker_2, # of connection points: 2
#     Edge 67, Type (0, 0), BuildingBlock: XUDNAN_clean_linker_2, # of connection points: 2
#     Edge 68, Type (0, 0), BuildingBlock: XUDNAN_clean_linker_2, # of connection points: 2
#     Edge 69, Type (0, 0), BuildingBlock: XUDNAN_clean_linker_2, # of connection points: 2
#     Edge 70, Type (0, 0), BuildingBlock: XUDNAN_clean_linker_2, # of connection points: 2
#     Edge 71, Type (0, 0), BuildingBlock: XUDNAN_clean_linker_2, # of connection points: 2
#     Edge 72, Type (0, 0), BuildingBlock: XUDNAN_clean_linker_2, # of connection points: 2
#     Edge 73, Type (0, 0), BuildingBlock: XUDNAN_clean_linker_2, # of connection points: 2
#     Edge 74, Type (0, 0), BuildingBlock: XUDNAN_clean_linker_2, # of connection points: 2
#     Edge 75, Type (0, 0), BuildingBlock: XUDNAN_clean_linker_2, # of connection points: 2
#     Edge 76, Type (0, 0), BuildingBlock: XUDNAN_clean_linker_2, # of connection points: 2
#     Edge 77, Type (0, 0), BuildingBlock: XUDNAN_clean_linker_2, # of connection points: 2
#     Edge 78, Type (0, 0), BuildingBlock: XUDNAN_clean_linker_2, # of connection points: 2
#     Edge 79, Type (0, 0), BuildingBlock: XUDNAN_clean_linker_2, # of connection points: 2
#     Edge 80, Type (0, 0), BuildingBlock: XUDNAN_clean_linker_2, # of connection points: 2
#     Edge 81, Type (0, 0), BuildingBlock: XUDNAN_clean_linker_2, # of connection points: 2
#     Edge 82, Type (0, 0), BuildingBlock: XUDNAN_clean_linker_2, # of connection points: 2
#     Edge 83, Type (0, 0), BuildingBlock: XUDNAN_clean_linker_2, # of connection points: 2
#     Edge 84, Type (0, 0), BuildingBlock: XUDNAN_clean_linker_2, # of connection points: 2
#     Edge 85, Type (0, 0), BuildingBlock: XUDNAN_clean_linker_2, # of connection points: 2
#     Edge 86, Type (0, 0), BuildingBlock: XUDNAN_clean_linker_2, # of connection points: 2
#     Edge 87, Type (0, 0), BuildingBlock: XUDNAN_clean_linker_2, # of connection points: 2
#     Edge 88, Type (0, 0), BuildingBlock: XUDNAN_clean_linker_2, # of connection points: 2
#     Edge 89, Type (0, 0), BuildingBlock: XUDNAN_clean_linker_2, # of connection points: 2
#     Edge 90, Type (0, 0), BuildingBlock: XUDNAN_clean_linker_2, # of connection points: 2
#     Edge 91, Type (0, 0), BuildingBlock: XUDNAN_clean_linker_2, # of connection points: 2
#     Edge 92, Type (0, 0), BuildingBlock: XUDNAN_clean_linker_2, # of connection points: 2
#     Edge 93, Type (0, 0), BuildingBlock: XUDNAN_clean_linker_2, # of connection points: 2
#     Edge 94, Type (0, 0), BuildingBlock: XUDNAN_clean_linker_2, # of connection points: 2
#     Edge 95, Type (0, 0), BuildingBlock: XUDNAN_clean_linker_2, # of connection points: 2
# Relax obj value: 0.183
# Max RMSD: 0.292
# Mean RMSD: 0.247
data_MOF--net-uoa--node1-KUFVIS_clean_sbu_0--edge1-XUDNAN_clean_linker_2
_symmetry_space_group_name_H-M    P1
_symmetry_Int_Tables_number       1
_symmetry_cell_setting            triclinic
loop_
_symmetry_equiv_pos_as_xyz
'x, y, z'
_cell_length_a     71.477679
_cell_length_b     79.95571
_cell_length_c     26.817133
_cell_angle_alpha  89.971367
_cell_angle_beta   89.999109
_cell_angle_gamma 90.014843
loop_
_atom_site_label
_atom_site_type_symbol
_atom_site_fract_x
_atom_site_fract_y
_atom_site_fract_z
_atom_type_partial_charge
Mn0 Mn 0.01865 0.08229 0.98133 0.0
Mn1 Mn 0.00474 0.12232 0.98933 0.0
C2 C 0.01921 0.09886 0.91135 0.0
C3 C 0.0076 0.05486 0.97124 0.0
C4 C 0.04239 0.1097 0.02748 0.0
O5 O 0.00652 0.08399 0.04892 0.0
O6 O 0.99357 0.1097 0.04616 0.0
C7 C 0.9644 0.11784 0.96874 0.0
N8 N 0.98117 0.12482 0.95663 0.0
C9 C 0.96757 0.13956 0.88733 0.0
C10 C 0.95011 0.13264 0.89929 0.0
C11 C 0.94854 0.12167 0.94002 0.0
C12 C 0.98289 0.13521 0.91714 0.0
H13 H 0.96317 0.10942 9e-05 0.0
C14 C 0.99678 0.09571 0.06781 0.0
O15 O 0.02373 0.05765 0.99229 0.0
O16 O 0.99836 0.06782 0.95661 0.0
N17 N 0.01456 0.13602 0.93698 0.0
C18 C 0.03244 0.14148 0.93022 0.0
C19 C 0.03649 0.15229 0.89035 0.0
C20 C 0.0221 0.15749 0.85821 0.0
C21 C 0.00375 0.15192 0.86645 0.0
C22 C 0.00055 0.14121 0.90687 0.0
H23 H 0.04353 0.13758 0.95495 0.0
O24 O 0.02837 0.08486 0.91198 0.0
O25 O 0.00951 0.10221 0.95099 0.0
O26 O 0.04161 0.0947 0.01054 0.0
O27 O 0.02925 0.12047 0.02252 0.0
C28 C 0.98851 0.1566 0.8362 0.0
C29 C 0.97042 0.15049 0.84681 0.0
H30 H 0.93784 0.13557 0.87721 0.0
H31 H 0.93513 0.1162 0.94929 0.0
H32 H 0.05067 0.15659 0.88438 0.0
H33 H 0.02529 0.16577 0.82739 0.0
H34 H 0.99054 0.16487 0.80465 0.0
H35 H 0.95881 0.15416 0.82324 0.0
Mn36 Mn 0.15517 0.79269 0.27705 0.0
Mn37 Mn 0.10924 0.78726 0.25559 0.0
C38 C 0.14364 0.79395 0.19666 0.0
C39 C 0.18452 0.78076 0.28678 0.0
C40 C 0.1256 0.81924 0.29871 0.0
O41 O 0.14598 0.78196 0.34099 0.0
O42 O 0.11565 0.77735 0.32196 0.0
C43 C 0.10874 0.75037 0.24624 0.0
N44 N 0.1055 0.76574 0.22615 0.0
C45 C 0.09493 0.75356 0.1491 0.0
C46 C 0.09798 0.73759 0.16915 0.0
C47 C 0.10499 0.736 0.21787 0.0
C48 C 0.09891 0.76742 0.17916 0.0
H49 H 0.11419 0.74909 0.28362 0.0
C50 C 0.12978 0.77622 0.35137 0.0
O51 O 0.18098 0.79555 0.30449 0.0
O52 O 0.17114 0.77302 0.26388 0.0
N53 N 0.10144 0.79608 0.19252 0.0
C54 C 0.09977 0.81237 0.1782 0.0
C55 C 0.09326 0.81613 0.13008 0.0
C56 C 0.08853 0.80312 0.09722 0.0
C57 C 0.09027 0.78646 0.11289 0.0
C58 C 0.09666 0.78348 0.16145 0.0
H59 H 0.10351 0.82241 0.20313 0.0
O60 O 0.15951 0.80092 0.20756 0.0
O61 O 0.13514 0.78658 0.23336 0.0
O62 O 0.14276 0.81482 0.29715 0.0
O63 O 0.1121 0.80986 0.28454 0.0
C64 C 0.08603 0.7727 0.08212 0.0
C65 C 0.0883 0.75626 0.10027 0.0
H66 H 0.09517 0.72648 0.14731 0.0
H67 H 0.10751 0.72372 0.23347 0.0
H68 H 0.09198 0.82902 0.11825 0.0
H69 H 0.08366 0.80607 0.05999 0.0
H70 H 0.08109 0.77461 0.04435 0.0
H71 H 0.08508 0.74578 0.07619 0.0
Mn72 Mn 0.49006 0.91611 0.51593 0.0
Mn73 Mn 0.4954 0.8757 0.48244 0.0
C74 C 0.49341 0.90903 0.43339 0.0
C75 C 0.50495 0.94108 0.5384 0.0
C76 C 0.45821 0.89066 0.51518 0.0
O77 O 0.49646 0.90464 0.5809 0.0
O78 O 0.50197 0.87828 0.55381 0.0
C79 C 0.53655 0.87325 0.49201 0.0
N80 N 0.5208 0.87169 0.46383 0.0
C81 C 0.5386 0.86217 0.39319 0.0
C82 C 0.55501 0.86357 0.42153 0.0
C83 C 0.55398 0.86918 0.47111 0.0
C84 C 0.52163 0.86637 0.41606 0.0
H85 H 0.5358 0.87758 0.5301 0.0
C86 C 0.50113 0.88942 0.58791 0.0
O87 O 0.48736 0.93865 0.54872 0.0
O88 O 0.51372 0.92891 0.51707 0.0
N89 N 0.48955 0.87134 0.41409 0.0
C90 C 0.47257 0.87162 0.39109 0.0
C91 C 0.47118 0.86658 0.34107 0.0
C92 C 0.48725 0.86125 0.31538 0.0
C93 C 0.50458 0.86117 0.33974 0.0
C94 C 0.50506 0.86609 0.38979 0.0
H95 H 0.46018 0.87558 0.41086 0.0
O96 O 0.48592 0.92323 0.44534 0.0
O97 O 0.49851 0.8995 0.47005 0.0
O98 O 0.46364 0.90582 0.52102 0.0
O99 O 0.46897 0.87886 0.50049 0.0
C100 C 0.52143 0.85657 0.31618 0.0
C101 C 0.53845 0.85712 0.34283 0.0
H102 H 0.56849 0.86053 0.40548 0.0
H103 H 0.56659 0.87038 0.49314 0.0
H104 H 0.45777 0.86675 0.32238 0.0
H105 H 0.48613 0.85731 0.27686 0.0
H106 H 0.52151 0.85281 0.27737 0.0
H107 H 0.55135 0.85382 0.3241 0.0
Mn108 Mn 0.34787 0.20913 0.77278 0.0
Mn109 Mn 0.39356 0.21513 0.7501 0.0
C110 C 0.35915 0.20698 0.6924 0.0
C111 C 0.31857 0.22122 0.78237 0.0
C112 C 0.37786 0.18426 0.80171 0.0
O113 O 0.35744 0.22069 0.83521 0.0
O114 O 0.38701 0.22731 0.81251 0.0
C115 C 0.39404 0.25138 0.72817 0.0
N116 N 0.39712 0.23534 0.71328 0.0
C117 C 0.40762 0.24449 0.63251 0.0
C118 C 0.40481 0.26113 0.64721 0.0
C119 C 0.39791 0.26458 0.69517 0.0
C120 C 0.40368 0.23187 0.66716 0.0
H121 H 0.38869 0.25407 0.76498 0.0
C122 C 0.3732 0.22778 0.84308 0.0
O123 O 0.32217 0.20662 0.80146 0.0
O124 O 0.33182 0.22863 0.75803 0.0
N125 N 0.40126 0.20392 0.69047 0.0
C126 C 0.4028 0.18719 0.6818 0.0
C127 C 0.40909 0.18159 0.63508 0.0
C128 C 0.41373 0.19324 0.59784 0.0
C129 C 0.41211 0.2104 0.60772 0.0
C130 C 0.40592 0.21524 0.6551 0.0
H131 H 0.3992 0.1782 0.71025 0.0
O132 O 0.34331 0.20009 0.70426 0.0
O133 O 0.36764 0.21477 0.72824 0.0
O134 O 0.36052 0.18732 0.79489 0.0
O135 O 0.39104 0.19399 0.78762 0.0
C136 C 0.41617 0.22289 0.57225 0.0
C137 C 0.41397 0.23992 0.58467 0.0
H138 H 0.40768 0.27134 0.62178 0.0
H139 H 0.39554 0.27738 0.7066 0.0
H140 H 0.41029 0.16833 0.62773 0.0
H141 H 0.41844 0.18887 0.56173 0.0
H142 H 0.42091 0.21953 0.53522 0.0
H143 H 0.41706 0.2494 0.55702 0.0
Mn144 Mn 0.02337 0.92236 0.51393 0.0
Mn145 Mn 0.01285 0.88149 0.50533 0.0
C146 C 0.01999 0.90646 0.58518 0.0
C147 C 0.01066 0.94932 0.51909 0.0
C148 C 0.05075 0.89638 0.47773 0.0
O149 O 0.01474 0.91934 0.44262 0.0
O150 O 0.00314 0.89296 0.4449 0.0
C151 C 0.97155 0.88224 0.51184 0.0
N152 N 0.98832 0.87707 0.53035 0.0
C153 C 0.97327 0.86214 0.59718 0.0
C154 C 0.95583 0.86727 0.57876 0.0
C155 C 0.95498 0.87737 0.53591 0.0
C156 C 0.98931 0.86724 0.5713 0.0
H157 H 0.97087 0.89009 0.47908 0.0
C158 C 0.00626 0.90694 0.42292 0.0
O159 O 0.02777 0.94711 0.50378 0.0
O160 O 0.00124 0.93604 0.5299 0.0
N161 N 0.0216 0.86943 0.56241 0.0
C162 C 0.03954 0.86666 0.57744 0.0
C163 C 0.04287 0.85731 0.62088 0.0
C164 C 0.02774 0.85092 0.64837 0.0
C165 C 0.00939 0.85399 0.63227 0.0
C166 C 0.00694 0.86324 0.58841 0.0
H167 H 0.05121 0.87161 0.55657 0.0
O168 O 0.02901 0.92053 0.58714 0.0
O169 O 0.01372 0.90234 0.54169 0.0
O170 O 0.04834 0.91126 0.49421 0.0
O171 O 0.03829 0.88492 0.47931 0.0
C172 C 0.99345 0.84855 0.65858 0.0
C173 C 0.97541 0.8526 0.64102 0.0
H174 H 0.94302 0.8637 0.59754 0.0
H175 H 0.94157 0.88145 0.52162 0.0
H176 H 0.05706 0.85508 0.63326 0.0
H177 H 0.03037 0.8438 0.68201 0.0
H178 H 0.99492 0.84144 0.69275 0.0
H179 H 0.96326 0.84855 0.66197 0.0
Mn180 Mn 0.34843 0.79123 0.7187 0.0
Mn181 Mn 0.39413 0.78411 0.73808 0.0
C182 C 0.36036 0.79215 0.79874 0.0
C183 C 0.31871 0.77996 0.70934 0.0
C184 C 0.3788 0.81607 0.692 0.0
O185 O 0.3572 0.78029 0.65426 0.0
O186 O 0.38672 0.77287 0.67472 0.0
C187 C 0.39354 0.7476 0.75592 0.0
N188 N 0.39737 0.76335 0.77231 0.0
C189 C 0.40801 0.75291 0.85154 0.0
C190 C 0.4044 0.73656 0.83528 0.0
C191 C 0.39705 0.7339 0.78734 0.0
C192 C 0.40435 0.76605 0.81846 0.0
H193 H 0.38781 0.74553 0.71915 0.0
C194 C 0.37269 0.77296 0.64483 0.0
O195 O 0.32262 0.79471 0.69179 0.0
O196 O 0.33192 0.7719 0.73195 0.0
N197 N 0.40267 0.79433 0.79851 0.0
C198 C 0.4049 0.81089 0.80893 0.0
C199 C 0.4118 0.81571 0.85582 0.0
C200 C 0.41631 0.80347 0.89145 0.0
C201 C 0.41397 0.78651 0.87978 0.0
C202 C 0.40723 0.78245 0.83226 0.0
H203 H 0.40141 0.82035 0.78175 0.0
O204 O 0.34459 0.79943 0.78848 0.0
O205 O 0.3684 0.78464 0.76162 0.0
O206 O 0.36146 0.81309 0.69886 0.0
O207 O 0.3919 0.80588 0.7034 0.0
C208 C 0.41784 0.77348 0.91361 0.0
C209 C 0.41489 0.75669 0.89949 0.0
H210 H 0.40699 0.72596 0.85951 0.0
H211 H 0.39407 0.72133 0.77471 0.0
H212 H 0.41356 0.82883 0.86455 0.0
H213 H 0.42148 0.80725 0.92772 0.0
H214 H 0.42298 0.77623 0.95071 0.0
H215 H 0.41781 0.74678 0.92592 0.0
Mn216 Mn 0.47636 0.07393 0.98865 0.0
Mn217 Mn 0.49345 0.1127 0.00709 0.0
C218 C 0.48415 0.0826 0.06758 0.0
C219 C 0.48298 0.04601 0.97016 0.0
C220 C 0.45241 0.10545 0.98564 0.0
O221 O 0.48337 0.08159 0.91944 0.0
O222 O 0.49706 0.10646 0.93608 0.0
C223 C 0.53363 0.10557 0.99129 0.0
N224 N 0.51962 0.11138 0.02099 0.0
C225 C 0.54136 0.11822 0.08636 0.0
C226 C 0.55605 0.11239 0.05638 0.0
C227 C 0.55216 0.106 0.00868 0.0
C228 C 0.52319 0.11748 0.067 0.0
H229 H 0.53066 0.10061 0.95467 0.0
C230 C 0.49177 0.09493 0.90607 0.0
O231 O 0.4664 0.05222 0.96244 0.0
O232 O 0.49557 0.05608 0.98743 0.0
N233 N 0.49091 0.12036 0.0743 0.0
C234 C 0.47508 0.12489 0.09913 0.0
C235 C 0.47653 0.1316 0.14735 0.0
C236 C 0.49422 0.13362 0.16939 0.0
C237 C 0.51029 0.1287 0.14332 0.0
C238 C 0.508 0.12236 0.09508 0.0
H239 H 0.46148 0.12351 0.0821 0.0
O240 O 0.47279 0.07009 0.06163 0.0
O241 O 0.49048 0.08948 0.0272 0.0
O242 O 0.45346 0.08947 0.98504 0.0
O243 O 0.46647 0.115 0.99371 0.0
C244 C 0.52847 0.12979 0.16335 0.0
C245 C 0.544 0.12448 0.13498 0.0
H246 H 0.57035 0.11265 0.06972 0.0
H247 H 0.56341 0.10141 0.98541 0.0
H248 H 0.46406 0.13529 0.16741 0.0
H249 H 0.49532 0.13896 0.20637 0.0
H250 H 0.53066 0.13455 0.20073 0.0
H251 H 0.55788 0.12519 0.15099 0.0
Mn252 Mn 0.15267 0.21534 0.21052 0.0
Mn253 Mn 0.10733 0.2235 0.23318 0.0
C254 C 0.14139 0.21475 0.29116 0.0
C255 C 0.18277 0.22593 0.20078 0.0
C256 C 0.12104 0.19042 0.19064 0.0
O257 O 0.14405 0.22647 0.14664 0.0
O258 O 0.11416 0.23277 0.1663 0.0
C259 C 0.10978 0.26036 0.24143 0.0
N260 N 0.10542 0.24529 0.26208 0.0
C261 C 0.09632 0.25833 0.3392 0.0
C262 C 0.10054 0.274 0.31859 0.0
C263 C 0.10736 0.27501 0.26954 0.0
C264 C 0.09899 0.24417 0.30938 0.0
H265 H 0.1151 0.26118 0.2038 0.0
C266 C 0.12822 0.23303 0.13651 0.0
O267 O 0.17838 0.21131 0.18303 0.0
O268 O 0.16981 0.23425 0.22343 0.0
N269 N 0.09914 0.21538 0.29673 0.0
C270 C 0.09619 0.19929 0.31151 0.0
C271 C 0.08966 0.19609 0.35998 0.0
C272 C 0.08622 0.20945 0.39269 0.0
C273 C 0.08922 0.22592 0.37651 0.0
C274 C 0.09557 0.22834 0.32763 0.0
H275 H 0.09891 0.18896 0.28666 0.0
O276 O 0.15671 0.20693 0.27986 0.0
O277 O 0.13329 0.22259 0.25469 0.0
O278 O 0.13854 0.19381 0.19113 0.0
O279 O 0.10842 0.20071 0.20498 0.0
C280 C 0.08629 0.24 0.40705 0.0
C281 C 0.08978 0.2562 0.38836 0.0
H282 H 0.09877 0.28533 0.34023 0.0
H283 H 0.11077 0.28705 0.2535 0.0
H284 H 0.08738 0.18335 0.37219 0.0
H285 H 0.08133 0.20693 0.43018 0.0
H286 H 0.08142 0.23852 0.44506 0.0
H287 H 0.08754 0.26692 0.41227 0.0
Mn288 Mn 0.95544 0.91082 0.00063 0.0
Mn289 Mn 0.97371 0.87259 0.01858 0.0
C290 C 0.96207 0.90189 0.08001 0.0
C291 C 0.96153 0.93892 0.98315 0.0
C292 C 0.93316 0.87882 0.9886 0.0
O293 O 0.96413 0.90357 0.9325 0.0
O294 O 0.98041 0.87998 0.9499 0.0
C295 C 0.01408 0.88078 0.0174 0.0
N296 N 0.99891 0.87446 0.0417 0.0
C297 C 0.01726 0.86865 0.11494 0.0
C298 C 0.0331 0.87501 0.09059 0.0
C299 C 0.03149 0.88111 0.04162 0.0
C300 C 0.00031 0.86854 0.08879 0.0
H301 H 0.01284 0.88561 0.97991 0.0
C302 C 0.97452 0.89131 0.91991 0.0
O303 O 0.9453 0.93231 0.97337 0.0
O304 O 0.97406 0.9292 0.00238 0.0
N305 N 0.96815 0.86431 0.08389 0.0
C306 C 0.95135 0.85944 0.10296 0.0
C307 C 0.95047 0.85314 0.15178 0.0
C308 C 0.96686 0.85193 0.18044 0.0
C309 C 0.98397 0.85718 0.1602 0.0
C310 C 0.98403 0.86309 0.11104 0.0
H311 H 0.93871 0.86032 0.08107 0.0
O312 O 0.95044 0.91416 0.07324 0.0
O313 O 0.96919 0.89544 0.03999 0.0
O314 O 0.93325 0.89473 0.99372 0.0
O315 O 0.9476 0.86963 0.99561 0.0
C316 C 0.00091 0.85698 0.18704 0.0
C317 C 0.01754 0.86276 0.16448 0.0
H318 H 0.04653 0.8754 0.10927 0.0
H319 H 0.04363 0.88613 0.02269 0.0
H320 H 0.9372 0.84921 0.16729 0.0
H321 H 0.96612 0.84703 0.21804 0.0
H322 H 0.00127 0.85259 0.22526 0.0
H323 H 0.03044 0.86274 0.18571 0.0
Mn324 Mn 0.83286 0.23056 0.71123 0.0
Mn325 Mn 0.79949 0.20943 0.64926 0.0
C326 C 0.802 0.23887 0.71787 0.0
C327 C 0.85046 0.23372 0.78351 0.0
C328 C 0.82748 0.23284 0.59966 0.0
O329 O 0.84572 0.20885 0.69096 0.0
O330 O 0.8212 0.19431 0.66006 0.0
C331 C 0.78878 0.18437 0.72524 0.0
N332 N 0.78397 0.19716 0.69426 0.0
C333 C 0.75176 0.19564 0.71998 0.0
C334 C 0.75634 0.18239 0.75202 0.0
C335 C 0.77494 0.17675 0.75471 0.0
C336 C 0.76613 0.20267 0.69133 0.0
H337 H 0.80307 0.18005 0.72747 0.0
C338 C 0.83849 0.1956 0.67239 0.0
O339 O 0.85633 0.23976 0.74129 0.0
O340 O 0.83508 0.22516 0.78278 0.0
N341 N 0.77775 0.22276 0.63668 0.0
C342 C 0.77594 0.23637 0.60652 0.0
C343 C 0.75828 0.2438 0.60053 0.0
C344 C 0.7427 0.23713 0.62552 0.0
C345 C 0.74494 0.22322 0.65676 0.0
C346 C 0.76283 0.21622 0.66075 0.0
H347 H 0.78788 0.24149 0.5871 0.0
O348 O 0.81537 0.24924 0.72846 0.0
O349 O 0.80722 0.22404 0.70376 0.0
O350 O 0.8349 0.23873 0.63915 0.0
O351 O 0.81463 0.22171 0.59964 0.0
C352 C 0.73019 0.21616 0.68457 0.0
C353 C 0.73361 0.2024 0.71623 0.0
H354 H 0.74574 0.17656 0.77507 0.0
H355 H 0.7786 0.16659 0.77953 0.0
H356 H 0.75667 0.25462 0.57666 0.0
H357 H 0.72908 0.24284 0.62067 0.0
H358 H 0.71623 0.22137 0.6824 0.0
H359 H 0.72222 0.19725 0.73802 0.0
Mn360 Mn 0.54812 0.0866 0.50381 0.0
Mn361 Mn 0.52458 0.1226 0.48764 0.0
C362 C 0.5377 0.10147 0.57164 0.0
C363 C 0.54598 0.05751 0.51109 0.0
C364 C 0.56653 0.11894 0.47025 0.0
O365 O 0.54062 0.08605 0.43127 0.0
O366 O 0.52155 0.10864 0.42675 0.0
C367 C 0.48563 0.1101 0.48467 0.0
N368 N 0.49896 0.11985 0.50636 0.0
C369 C 0.47726 0.1294 0.56876 0.0
C370 C 0.46326 0.11954 0.54688 0.0
C371 C 0.46747 0.10986 0.50465 0.0
C372 C 0.49503 0.12934 0.54676 0.0
H373 H 0.48887 0.1025 0.45255 0.0
C374 C 0.52918 0.09552 0.40816 0.0
O375 O 0.56164 0.06464 0.49833 0.0
O376 O 0.53182 0.06722 0.51864 0.0
N377 N 0.52652 0.13671 0.54511 0.0
C378 C 0.54194 0.14448 0.56397 0.0
C379 C 0.54032 0.15407 0.6076 0.0
C380 C 0.5229 0.15557 0.63139 0.0
C381 C 0.50722 0.14748 0.61125 0.0
C382 C 0.50964 0.13822 0.5674 0.0
H383 H 0.55541 0.14323 0.54613 0.0
O384 O 0.55116 0.09072 0.57685 0.0
O385 O 0.53117 0.10315 0.52693 0.0
O386 O 0.56828 0.10396 0.48643 0.0
O387 O 0.55086 0.12664 0.46834 0.0
C388 C 0.4894 0.1479 0.63365 0.0
C389 C 0.47441 0.1389 0.61236 0.0
H390 H 0.4493 0.11916 0.56254 0.0
H391 H 0.45678 0.10213 0.48775 0.0
H392 H 0.55251 0.1602 0.62308 0.0
H393 H 0.52176 0.16282 0.66537 0.0
H394 H 0.48712 0.15492 0.66766 0.0
H395 H 0.46084 0.13915 0.63029 0.0
Mn396 Mn 0.66438 0.77166 0.21228 0.0
Mn397 Mn 0.6973 0.78227 0.12777 0.0
C398 C 0.69215 0.75701 0.20912 0.0
C399 C 0.65021 0.77397 0.2902 0.0
C400 C 0.66245 0.76258 0.10181 0.0
O401 O 0.65619 0.79486 0.18978 0.0
O402 O 0.6796 0.80127 0.13679 0.0
C403 C 0.7169 0.8092 0.18249 0.0
N404 N 0.71732 0.79412 0.15892 0.0
C405 C 0.75092 0.79316 0.16308 0.0
C406 C 0.75087 0.80867 0.18744 0.0
C407 C 0.73377 0.81665 0.19759 0.0
C408 C 0.73366 0.78615 0.15011 0.0
H409 H 0.7038 0.81555 0.18919 0.0
C410 C 0.66431 0.80482 0.1594 0.0
O411 O 0.64109 0.7685 0.2517 0.0
O412 O 0.66728 0.77897 0.2829 0.0
N413 N 0.71537 0.76515 0.11514 0.0
C414 C 0.71293 0.75005 0.0925 0.0
C415 C 0.72859 0.74002 0.08223 0.0
C416 C 0.7466 0.74582 0.09407 0.0
C417 C 0.74877 0.76154 0.11653 0.0
C418 C 0.73262 0.77077 0.1271 0.0
H419 H 0.69913 0.74569 0.08246 0.0
O420 O 0.67732 0.75043 0.229 0.0
O421 O 0.69044 0.77221 0.1922 0.0
O422 O 0.65582 0.76176 0.14577 0.0
O423 O 0.67768 0.77006 0.09101 0.0
C424 C 0.76633 0.76851 0.1282 0.0
C425 C 0.76741 0.78438 0.1511 0.0
H426 H 0.76386 0.81456 0.19858 0.0
H427 H 0.73362 0.82864 0.21633 0.0
H428 H 0.7268 0.72795 0.06465 0.0
H429 H 0.75867 0.73816 0.08547 0.0
H430 H 0.77908 0.76173 0.12005 0.0
H431 H 0.78099 0.78954 0.16029 0.0
Mn432 Mn 0.95611 0.09279 0.49942 0.0
Mn433 Mn 0.97172 0.1313 0.47191 0.0
C434 C 0.95841 0.10114 0.41728 0.0
C435 C 0.96355 0.06495 0.51651 0.0
C436 C 0.93346 0.12422 0.51743 0.0
O437 O 0.96836 0.10079 0.56326 0.0
O438 O 0.98243 0.12463 0.53745 0.0
C439 C 0.01202 0.12426 0.45786 0.0
N440 N 0.99546 0.12993 0.43933 0.0
C441 C 0.00939 0.1356 0.35938 0.0
C442 C 0.02663 0.12991 0.3777 0.0
C443 C 0.02794 0.1242 0.42713 0.0
C444 C 0.99404 0.13544 0.39181 0.0
H445 H 0.01304 0.11973 0.4957 0.0
C446 C 0.97907 0.11336 0.57036 0.0
O447 O 0.94788 0.07149 0.53157 0.0
O448 O 0.97486 0.07462 0.49223 0.0
N449 N 0.96234 0.13879 0.40888 0.0
C450 C 0.94449 0.14297 0.39618 0.0
C451 C 0.94072 0.14878 0.3478 0.0
C452 C 0.95533 0.15023 0.31304 0.0
C453 C 0.97356 0.1457 0.32681 0.0
C454 C 0.97651 0.14021 0.37576 0.0
H455 H 0.93322 0.14192 0.42278 0.0
O456 O 0.94755 0.08875 0.4292 0.0
O457 O 0.96711 0.10813 0.45414 0.0
O458 O 0.93403 0.10832 0.51337 0.0
O459 O 0.94699 0.13381 0.50463 0.0
C460 C 0.98888 0.14621 0.29374 0.0
C461 C 0.00676 0.1411 0.30994 0.0
H462 H 0.03891 0.12974 0.35401 0.0
H463 H 0.04117 0.1197 0.44145 0.0
H464 H 0.9266 0.15216 0.33732 0.0
H465 H 0.95236 0.15473 0.27579 0.0
H466 H 0.98702 0.15035 0.25559 0.0
H467 H 0.01837 0.14133 0.28397 0.0
Mn468 Mn 0.66053 0.22781 0.26113 0.0
Mn469 Mn 0.6947 0.21399 0.33738 0.0
C470 C 0.6906 0.23815 0.25304 0.0
C471 C 0.64372 0.22576 0.18699 0.0
C472 C 0.66431 0.2382 0.36995 0.0
O473 O 0.64945 0.20646 0.29086 0.0
O474 O 0.67422 0.19722 0.33533 0.0
C475 C 0.7077 0.18486 0.27879 0.0
N476 N 0.7114 0.19972 0.30154 0.0
C477 C 0.74392 0.19818 0.27872 0.0
C478 C 0.74048 0.1828 0.25529 0.0
C479 C 0.72229 0.17614 0.25524 0.0
C480 C 0.72884 0.20626 0.30175 0.0
H481 H 0.69373 0.17974 0.27855 0.0
C482 C 0.65747 0.19566 0.31888 0.0
O483 O 0.63676 0.23333 0.22562 0.0
O484 O 0.65984 0.21856 0.19251 0.0
N485 N 0.71545 0.22902 0.34233 0.0
C486 C 0.71616 0.24443 0.36391 0.0
C487 C 0.73332 0.25296 0.36631 0.0
C488 C 0.74953 0.24555 0.34662 0.0
C489 C 0.74842 0.22976 0.32422 0.0
C490 C 0.731 0.22175 0.32354 0.0
H491 H 0.70375 0.25014 0.37929 0.0
O492 O 0.67649 0.24662 0.23612 0.0
O493 O 0.6866 0.22399 0.27436 0.0
O494 O 0.65649 0.23982 0.32752 0.0
O495 O 0.6784 0.2287 0.3778 0.0
C496 C 0.76387 0.22173 0.30205 0.0
C497 C 0.76161 0.20596 0.2792 0.0
H498 H 0.75167 0.17608 0.23684 0.0
H499 H 0.71951 0.16433 0.23702 0.0
H500 H 0.73405 0.26521 0.38334 0.0
H501 H 0.76275 0.25213 0.34864 0.0
H502 H 0.77749 0.22766 0.30177 0.0
H503 H 0.77352 0.20003 0.26162 0.0
Mn504 Mn 0.54148 0.90344 0.98976 0.0
Mn505 Mn 0.53052 0.86293 0.00867 0.0
C506 C 0.53804 0.88561 0.92337 0.0
C507 C 0.52953 0.93042 0.97718 0.0
C508 C 0.56917 0.87736 0.02796 0.0
O509 O 0.53254 0.90306 0.06087 0.0
O510 O 0.52376 0.87598 0.06907 0.0
C511 C 0.48928 0.86571 0.0121 0.0
N512 N 0.50498 0.85922 0.99085 0.0
C513 C 0.48676 0.84393 0.93073 0.0
C514 C 0.47038 0.85036 0.9522 0.0
C515 C 0.47165 0.8613 0.99305 0.0
C516 C 0.50392 0.84857 0.95179 0.0
H517 H 0.49022 0.87425 0.04322 0.0
C518 C 0.52565 0.89093 0.08554 0.0
O519 O 0.54657 0.92829 0.99323 0.0
O520 O 0.51981 0.91708 0.96949 0.0
N521 N 0.53647 0.84919 0.95245 0.0
C522 C 0.55361 0.84522 0.93367 0.0
C523 C 0.55482 0.83502 0.89118 0.0
C524 C 0.53843 0.82901 0.86852 0.0
C525 C 0.52094 0.83322 0.88865 0.0
C526 C 0.52061 0.8433 0.93133 0.0
H527 H 0.56623 0.84996 0.9507 0.0
O528 O 0.54749 0.89937 0.91825 0.0
O529 O 0.53118 0.88281 0.9673 0.0
O530 O 0.56621 0.89233 0.01265 0.0
O531 O 0.55688 0.86574 0.02724 0.0
C532 C 0.50384 0.82817 0.86733 0.0
C533 C 0.48676 0.83349 0.88841 0.0
H534 H 0.45677 0.84714 0.93725 0.0
H535 H 0.45908 0.8664 0.0096 0.0
H536 H 0.56836 0.83188 0.87572 0.0
H537 H 0.53942 0.82131 0.8354 0.0
H538 H 0.50366 0.82039 0.83428 0.0
H539 H 0.4737 0.82971 0.87126 0.0
Mn540 Mn 0.83285 0.77327 0.78748 0.0
Mn541 Mn 0.79947 0.78823 0.86413 0.0
C542 C 0.80251 0.76371 0.7806 0.0
C543 C 0.84923 0.77445 0.71275 0.0
C544 C 0.82898 0.76318 0.89652 0.0
O545 O 0.84478 0.79435 0.81608 0.0
O546 O 0.82067 0.80436 0.86165 0.0
C547 C 0.78752 0.81769 0.80535 0.0
N548 N 0.78329 0.80296 0.82821 0.0
C549 C 0.7509 0.8053 0.80466 0.0
C550 C 0.7549 0.82056 0.78114 0.0
C551 C 0.77329 0.82676 0.78142 0.0
C552 C 0.76564 0.79687 0.82817 0.0
H553 H 0.80167 0.82244 0.80527 0.0
C554 C 0.83738 0.80536 0.84448 0.0
O555 O 0.85621 0.76692 0.75145 0.0
O556 O 0.83347 0.78221 0.7186 0.0
N557 N 0.77815 0.77384 0.86942 0.0
C558 C 0.77689 0.75846 0.89106 0.0
C559 C 0.75949 0.75032 0.89289 0.0
C560 C 0.74359 0.75809 0.87258 0.0
C561 C 0.74525 0.77388 0.85031 0.0
C562 C 0.7629 0.78148 0.85015 0.0
H563 H 0.78906 0.75245 0.90677 0.0
O564 O 0.81628 0.7548 0.76375 0.0
O565 O 0.807 0.77787 0.8012 0.0
O566 O 0.83675 0.76141 0.85409 0.0
O567 O 0.81521 0.77301 0.90445 0.0
C568 C 0.73015 0.78226 0.82765 0.0
C569 C 0.73298 0.79795 0.80475 0.0
H570 H 0.74399 0.82754 0.76235 0.0
H571 H 0.7765 0.83848 0.76311 0.0
H572 H 0.75832 0.73808 0.90988 0.0
H573 H 0.73019 0.75178 0.87403 0.0
H574 H 0.71635 0.77665 0.82701 0.0
H575 H 0.72131 0.80417 0.78681 0.0
Mn576 Mn 0.51313 0.58305 0.47157 0.0
Mn577 Mn 0.50197 0.62377 0.4651 0.0
C578 C 0.51569 0.59678 0.39661 0.0
C579 C 0.50054 0.55601 0.47102 0.0
C580 C 0.53775 0.61044 0.51266 0.0
O581 O 0.50054 0.58826 0.53698 0.0
O582 O 0.48827 0.6138 0.52261 0.0
C583 C 0.46204 0.62115 0.43722 0.0
N584 N 0.47965 0.62667 0.42695 0.0
C585 C 0.46923 0.64026 0.35189 0.0
C586 C 0.45094 0.63486 0.36187 0.0
C587 C 0.44736 0.62517 0.40455 0.0
C588 C 0.4833 0.63575 0.38558 0.0
H589 H 0.45927 0.61376 0.47014 0.0
C590 C 0.49094 0.60092 0.55012 0.0
O591 O 0.51662 0.55899 0.49212 0.0
O592 O 0.49217 0.56859 0.45065 0.0
N593 N 0.51435 0.63507 0.41154 0.0
C594 C 0.53275 0.63933 0.40747 0.0
C595 C 0.53874 0.64883 0.3664 0.0
C596 C 0.52573 0.65402 0.33032 0.0
C597 C 0.50681 0.64975 0.33581 0.0
C598 C 0.50166 0.6403 0.37758 0.0
H599 H 0.54278 0.63551 0.43531 0.0
O600 O 0.52367 0.58233 0.40254 0.0
O601 O 0.50588 0.60214 0.43397 0.0
O602 O 0.53656 0.59517 0.49842 0.0
O603 O 0.52528 0.62156 0.50381 0.0
C604 C 0.49286 0.65453 0.30156 0.0
C605 C 0.47408 0.64986 0.30971 0.0
H606 H 0.43957 0.63796 0.3368 0.0
H607 H 0.4333 0.62087 0.41233 0.0
H608 H 0.55334 0.65216 0.36259 0.0
H609 H 0.53041 0.66131 0.29861 0.0
H610 H 0.49642 0.66181 0.26883 0.0
H611 H 0.46348 0.6536 0.28308 0.0
Mn612 Mn 0.64437 0.2833 0.77677 0.0
Mn613 Mn 0.60036 0.27144 0.75074 0.0
C614 C 0.63386 0.28366 0.69555 0.0
C615 C 0.6752 0.27526 0.78896 0.0
C616 C 0.6101 0.30496 0.79761 0.0
O617 O 0.63629 0.27101 0.83921 0.0
O618 O 0.60762 0.26183 0.81687 0.0
C619 C 0.60687 0.23515 0.73777 0.0
N620 N 0.60105 0.25007 0.71885 0.0
C621 C 0.59422 0.23756 0.63931 0.0
C622 C 0.59996 0.22202 0.6581 0.0
C623 C 0.60637 0.22082 0.7075 0.0
C624 C 0.59499 0.25138 0.67126 0.0
H625 H 0.61191 0.2342 0.77565 0.0
C626 C 0.62132 0.2628 0.84768 0.0
O627 O 0.66908 0.28931 0.8071 0.0
O628 O 0.66356 0.26608 0.76421 0.0
N629 N 0.59184 0.27981 0.68782 0.0
C630 C 0.58725 0.29578 0.67507 0.0
C631 C 0.58088 0.29918 0.62656 0.0
C632 C 0.57928 0.28613 0.59177 0.0
C633 C 0.58392 0.26977 0.60591 0.0
C634 C 0.59001 0.26711 0.65491 0.0
H635 H 0.58851 0.30587 0.70161 0.0
O636 O 0.64823 0.29259 0.70845 0.0
O637 O 0.62627 0.27485 0.73087 0.0
O638 O 0.62788 0.30329 0.79625 0.0
O639 O 0.59871 0.29373 0.78229 0.0
C640 C 0.5829 0.25601 0.57322 0.0
C641 C 0.588 0.23992 0.58994 0.0
H642 H 0.59969 0.21096 0.63479 0.0
H643 H 0.61096 0.2089 0.72215 0.0
H644 H 0.57731 0.31185 0.61594 0.0
H645 H 0.57451 0.28883 0.55427 0.0
H646 H 0.57829 0.25769 0.53505 0.0
H647 H 0.58723 0.22945 0.56439 0.0
Mn648 Mn 0.97765 0.42296 0.98904 0.0
Mn649 Mn 0.99718 0.38498 0.00406 0.0
C650 C 0.98488 0.40715 0.92018 0.0
C651 C 0.98251 0.45175 0.98356 0.0
C652 C 0.9564 0.39302 0.02723 0.0
O653 O 0.98596 0.42247 0.06125 0.0
O654 O 0.00358 0.39897 0.06267 0.0
C655 C 0.03757 0.39285 -0.00055 0.0
N656 N 0.02251 0.38432 0.98159 0.0
C657 C 0.04161 0.36964 0.92209 0.0
C658 C 0.05735 0.37823 0.93995 0.0
C659 C 0.05532 0.3899 0.97874 0.0
C660 C 0.02432 0.37297 0.94455 0.0
H661 H 0.03603 0.40183 0.02924 0.0
C662 C 0.99704 0.41227 0.08283 0.0
O663 O 0.96643 0.44566 -0.00273 0.0
O664 O 0.99565 0.44113 0.97345 0.0
N665 N 0.99194 0.37038 0.94928 0.0
C666 C 0.97512 0.36447 0.93316 0.0
C667 C 0.97454 0.35341 0.89251 0.0
C668 C 0.99124 0.34848 0.86912 0.0
C669 C 0.00838 0.35472 0.88644 0.0
C670 C 0.0081 0.36565 0.92722 0.0
H671 H 0.96226 0.36825 0.95097 0.0
O672 O 0.97307 0.41942 0.9163 0.0
O673 O 0.99224 0.40482 0.96384 0.0
O674 O 0.95569 0.40762 0.00801 0.0
O675 O 0.97122 0.38411 0.0284 0.0
C676 C 0.02568 0.35088 0.86401 0.0
C677 C 0.04229 0.35831 0.88188 0.0
H678 H 0.07103 0.37611 0.92375 0.0
H679 H 0.06739 0.39663 0.99255 0.0
H680 H 0.96125 0.34873 0.87914 0.0
H681 H 0.99071 0.34005 0.83756 0.0
H682 H 0.02633 0.34249 0.83237 0.0
H683 H 0.05546 0.35551 0.86372 0.0
Mn684 Mn 0.8472 0.71324 0.30034 0.0
Mn685 Mn 0.89024 0.72827 0.27647 0.0
C686 C 0.85821 0.71455 0.21958 0.0
C687 C 0.81523 0.71764 0.30887 0.0
C688 C 0.88328 0.69365 0.31896 0.0
O689 O 0.85356 0.72567 0.36419 0.0
O690 O 0.88208 0.73586 0.34386 0.0
C691 C 0.88086 0.76427 0.27032 0.0
N692 N 0.88785 0.75019 0.24871 0.0
C693 C 0.89427 0.76492 0.17233 0.0
C694 C 0.8873 0.77962 0.19393 0.0
C695 C 0.88049 0.77927 0.24307 0.0
C696 C 0.89426 0.75035 0.20128 0.0
H697 H 0.87559 0.76405 0.30808 0.0
C698 C 0.86829 0.73412 0.37408 0.0
O699 O 0.82312 0.70441 0.32757 0.0
O700 O 0.82596 0.72854 0.28749 0.0
N701 N 0.89955 0.72188 0.21233 0.0
C702 C 0.90553 0.70657 0.19675 0.0
C703 C 0.91242 0.70469 0.14802 0.0
C704 C 0.91318 0.71858 0.11598 0.0
C705 C 0.90716 0.73425 0.13307 0.0
C706 C 0.90053 0.73538 0.18209 0.0
H707 H 0.90496 0.69585 0.22121 0.0
O708 O 0.8449 0.70425 0.23117 0.0
O709 O 0.86466 0.72363 0.25581 0.0
O710 O 0.86545 0.69451 0.31933 0.0
O711 O 0.89379 0.70555 0.3037 0.0
C712 C 0.90743 0.74879 0.10337 0.0
C713 C 0.90108 0.76412 0.12307 0.0
H714 H 0.88695 0.7912 0.17298 0.0
H715 H 0.87498 0.79054 0.25988 0.0
H716 H 0.91708 0.69256 0.13515 0.0
H717 H 0.91841 0.71707 0.07832 0.0
H718 H 0.91246 0.7483 0.06529 0.0
H719 H 0.90132 0.7752 0.09984 0.0
Mn720 Mn 0.5149 0.41895 0.00835 0.0
Mn721 Mn 0.49639 0.38125 0.03395 0.0
C722 C 0.5166 0.40867 0.08854 0.0
C723 C 0.50989 0.44756 0.99703 0.0
C724 C 0.533 0.38623 0.97788 0.0
O725 O 0.49921 0.41337 0.94743 0.0
O726 O 0.48365 0.39049 0.97383 0.0
C727 C 0.45807 0.39124 0.06311 0.0
N728 N 0.47458 0.38366 0.07447 0.0
C729 C 0.46293 0.37488 0.15447 0.0
C730 C 0.44575 0.38253 0.14358 0.0
C731 C 0.44336 0.39085 0.09784 0.0
C732 C 0.47716 0.37594 0.11879 0.0
H733 H 0.45615 0.39749 0.02774 0.0
C734 C 0.48704 0.40187 0.94132 0.0
O735 O 0.52394 0.43993 0.97633 0.0
O736 O 0.49875 0.43855 0.02415 0.0
N737 N 0.50743 0.37074 0.09092 0.0
C738 C 0.52475 0.36377 0.09533 0.0
C739 C 0.52952 0.35524 0.13931 0.0
C740 C 0.51634 0.35369 0.17789 0.0
C741 C 0.49845 0.3606 0.17197 0.0
C742 C 0.49452 0.36903 0.12741 0.0
H743 H 0.53486 0.36473 0.06558 0.0
O744 O 0.52737 0.4209 0.07479 0.0
O745 O 0.5047 0.40339 0.05546 0.0
O746 O 0.53452 0.40198 0.98475 0.0
O747 O 0.519 0.37762 0.99287 0.0
C748 C 0.48428 0.35924 0.20825 0.0
C749 C 0.46648 0.36624 0.1993 0.0
H750 H 0.43434 0.38215 0.17013 0.0
H751 H 0.43017 0.39682 0.08923 0.0
H752 H 0.54331 0.34982 0.1434 0.0
H753 H 0.52006 0.34707 0.21172 0.0
H754 H 0.48689 0.35277 0.24306 0.0
H755 H 0.45568 0.36507 0.22743 0.0
Mn756 Mn 0.84616 0.28793 0.20084 0.0
Mn757 Mn 0.89164 0.27969 0.22127 0.0
C758 C 0.85682 0.28324 0.28083 0.0
C759 C 0.81642 0.27753 0.18438 0.0
C760 C 0.87689 0.31415 0.19344 0.0
O761 O 0.85565 0.28085 0.13298 0.0
O762 O 0.88556 0.27363 0.15073 0.0
C763 C 0.89161 0.2428 0.21262 0.0
N764 N 0.8947 0.25681 0.24027 0.0
C765 C 0.90332 0.24038 0.31191 0.0
C766 C 0.90033 0.22578 0.28409 0.0
C767 C 0.89447 0.227 0.23421 0.0
C768 C 0.90054 0.25579 0.28815 0.0
H769 H 0.88688 0.24367 0.17444 0.0
C770 C 0.8716 0.27492 0.12076 0.0
O771 O 0.8205 0.29305 0.17469 0.0
O772 O 0.82953 0.26825 0.20276 0.0
N773 N 0.89858 0.28484 0.28853 0.0
C774 C 0.89934 0.30005 0.31134 0.0
C775 C 0.90415 0.30098 0.36203 0.0
C776 C 0.90805 0.28629 0.38877 0.0
C777 C 0.90718 0.27077 0.36451 0.0
C778 C 0.90252 0.27063 0.31378 0.0
H779 H 0.89609 0.31137 0.29116 0.0
O780 O 0.84159 0.29174 0.27362 0.0
O781 O 0.86548 0.2785 0.24076 0.0
O782 O 0.85949 0.31052 0.19321 0.0
O783 O 0.88975 0.30351 0.203 0.0
C784 C 0.91025 0.25543 0.389 0.0
C785 C 0.90837 0.24025 0.3627 0.0
H786 H 0.90227 0.21357 0.3008 0.0
H787 H 0.89202 0.21579 0.2126 0.0
H788 H 0.90468 0.31299 0.38058 0.0
H789 H 0.91151 0.28704 0.42804 0.0
H790 H 0.91381 0.25515 0.42827 0.0
H791 H 0.91052 0.22852 0.38211 0.0
Mn792 Mn 0.98703 0.58371 0.5229 0.0
Mn793 Mn 0.00962 0.62043 0.50938 0.0
C794 C 0.99149 0.60055 0.59103 0.0
C795 C 0.98967 0.55479 0.53237 0.0
C796 C 0.96904 0.61489 0.47899 0.0
O797 O 0.99792 0.58257 0.45354 0.0
O798 O 0.01604 0.60565 0.45229 0.0
C799 C 0.04851 0.60864 0.52283 0.0
N800 N 0.03414 0.61873 0.53713 0.0
C801 C 0.05321 0.63194 0.59962 0.0
C802 C 0.06826 0.62174 0.58546 0.0
C803 C 0.06586 0.60997 0.54708 0.0
C804 C 0.03619 0.62987 0.57458 0.0
H805 H 0.04673 0.59968 0.49305 0.0
C806 C 0.00964 0.59226 0.4325 0.0
O807 O 0.97466 0.56153 0.51372 0.0
O808 O 0.00303 0.56482 0.54546 0.0
N809 N 0.00479 0.63617 0.56149 0.0
C810 C 0.9889 0.64509 0.57047 0.0
C811 C 0.9888 0.6571 0.60868 0.0
C812 C 0.00512 0.66005 0.63649 0.0
C813 C 0.02145 0.65105 0.62559 0.0
C814 C 0.02067 0.63916 0.58735 0.0
H815 H 0.97638 0.643 0.54885 0.0
O816 O 0.97941 0.58846 0.59275 0.0
O817 O 0.00146 0.60169 0.55062 0.0
O818 O 0.96719 0.60006 0.49632 0.0
O819 O 0.98435 0.62318 0.48092 0.0
C820 C 0.03851 0.65352 0.65084 0.0
C821 C 0.0544 0.64403 0.63766 0.0
H822 H 0.08169 0.6228 0.60391 0.0
H823 H 0.07739 0.60202 0.53603 0.0
H824 H 0.97619 0.6641 0.61656 0.0
H825 H 0.005 0.66935 0.66587 0.0
H826 H 0.03956 0.66265 0.68052 0.0
H827 H 0.06742 0.64598 0.65753 0.0
Mn828 Mn 0.64725 0.71469 0.7035 0.0
Mn829 Mn 0.60197 0.72447 0.71949 0.0
C830 C 0.63444 0.71474 0.78246 0.0
C831 C 0.67766 0.72458 0.69676 0.0
C832 C 0.6152 0.69077 0.68 0.0
O833 O 0.64029 0.7257 0.63812 0.0
O834 O 0.61057 0.73355 0.65379 0.0
C835 C 0.60579 0.76123 0.72816 0.0
N836 N 0.60039 0.74632 0.74813 0.0
C837 C 0.59059 0.75968 0.82417 0.0
C838 C 0.59587 0.77519 0.8042 0.0
C839 C 0.60355 0.77595 0.75604 0.0
C840 C 0.59308 0.74544 0.79456 0.0
H841 H 0.61182 0.76187 0.69127 0.0
C842 C 0.62517 0.73309 0.62589 0.0
O843 O 0.67327 0.70991 0.67931 0.0
O844 O 0.66459 0.73321 0.71783 0.0
N845 N 0.59219 0.71666 0.7818 0.0
C846 C 0.58836 0.70068 0.79623 0.0
C847 C 0.58087 0.69772 0.84384 0.0
C848 C 0.57744 0.7112 0.87612 0.0
C849 C 0.5814 0.72754 0.86036 0.0
C850 C 0.58864 0.72974 0.81227 0.0
H851 H 0.59111 0.69026 0.77178 0.0
O852 O 0.64971 0.7065 0.77358 0.0
O853 O 0.62736 0.72267 0.74468 0.0
O854 O 0.63278 0.69352 0.68333 0.0
O855 O 0.60272 0.7016 0.69153 0.0
C856 C 0.57863 0.74172 0.89065 0.0
C857 C 0.58319 0.75777 0.87254 0.0
H858 H 0.59426 0.78656 0.8257 0.0
H859 H 0.60779 0.78786 0.74052 0.0
H860 H 0.57788 0.68506 0.85576 0.0
H861 H 0.57183 0.70885 0.913 0.0
H862 H 0.57311 0.7404 0.92807 0.0
H863 H 0.5811 0.76857 0.89628 0.0
Mn864 Mn 0.45431 0.41072 0.50891 0.0
Mn865 Mn 0.47766 0.37512 0.53065 0.0
C866 C 0.45384 0.39945 0.58789 0.0
C867 C 0.45678 0.43968 0.50032 0.0
C868 C 0.44116 0.377 0.4723 0.0
O869 O 0.47083 0.40755 0.44848 0.0
O870 O 0.48982 0.38659 0.47279 0.0
C871 C 0.51417 0.3883 0.56462 0.0
N872 N 0.49851 0.3791 0.57363 0.0
C873 C 0.50979 0.37106 0.65471 0.0
C874 C 0.52613 0.38034 0.64615 0.0
C875 C 0.52827 0.38908 0.60103 0.0
C876 C 0.49619 0.37083 0.61717 0.0
H877 H 0.51588 0.39496 0.52985 0.0
C878 C 0.48477 0.39789 0.44153 0.0
O879 O 0.44338 0.43139 0.47867 0.0
O880 O 0.4683 0.43119 0.52765 0.0
N881 N 0.46722 0.36291 0.58542 0.0
C882 C 0.45053 0.35473 0.58807 0.0
C883 C 0.44596 0.34574 0.63139 0.0
C884 C 0.45867 0.34511 0.67131 0.0
C885 C 0.47587 0.35346 0.66747 0.0
C886 C 0.47965 0.36222 0.62337 0.0
H887 H 0.44074 0.35509 0.55743 0.0
O888 O 0.4415 0.41058 0.57512 0.0
O889 O 0.46627 0.3958 0.55428 0.0
O890 O 0.43703 0.39219 0.4822 0.0
O891 O 0.45625 0.36987 0.48661 0.0
C892 C 0.48942 0.35342 0.70563 0.0
C893 C 0.50641 0.36211 0.69911 0.0
H894 H 0.53704 0.38096 0.67413 0.0
H895 H 0.54079 0.39635 0.59428 0.0
H896 H 0.43268 0.33929 0.63401 0.0
H897 H 0.45509 0.33819 0.7047 0.0
H898 H 0.48691 0.34674 0.74014 0.0
H899 H 0.51673 0.36197 0.72872 0.0
Mn900 Mn 0.34166 0.73032 0.2304 0.0
Mn901 Mn 0.30993 0.71547 0.14829 0.0
C902 C 0.31132 0.74014 0.23154 0.0
C903 C 0.35648 0.72992 0.30771 0.0
C904 C 0.33993 0.74042 0.12013 0.0
O905 O 0.35373 0.70859 0.2067 0.0
O906 O 0.33153 0.69989 0.15251 0.0
C907 C 0.29787 0.68547 0.20447 0.0
N908 N 0.29359 0.70019 0.18158 0.0
C909 C 0.26088 0.69685 0.20039 0.0
C910 C 0.26492 0.6816 0.22391 0.0
C911 C 0.2835 0.67591 0.22603 0.0
C912 C 0.27576 0.70578 0.17929 0.0
H913 H 0.31215 0.68109 0.20632 0.0
C914 C 0.34728 0.69821 0.17477 0.0
O915 O 0.3643 0.73686 0.2692 0.0
O916 O 0.34067 0.72233 0.30055 0.0
N917 N 0.28829 0.72933 0.14076 0.0
C918 C 0.28695 0.74478 0.11962 0.0
C919 C 0.26936 0.7525 0.11586 0.0
C920 C 0.25335 0.74423 0.13369 0.0
C921 C 0.25508 0.72833 0.15522 0.0
C922 C 0.27294 0.72119 0.15747 0.0
H923 H 0.29922 0.75119 0.10592 0.0
O924 O 0.3248 0.74918 0.24945 0.0
O925 O 0.31607 0.72578 0.21262 0.0
O926 O 0.3474 0.74154 0.16319 0.0
O927 O 0.32581 0.73117 0.1106 0.0
C928 C 0.23984 0.71943 0.17539 0.0
C929 C 0.24274 0.70371 0.19801 0.0
H930 H 0.2539 0.67425 0.24088 0.0
H931 H 0.28674 0.6642 0.24434 0.0
H932 H 0.26814 0.76481 0.0994 0.0
H933 H 0.23982 0.75026 0.13101 0.0
H934 H 0.22587 0.72468 0.17439 0.0
H935 H 0.23096 0.6971 0.21406 0.0
Mn936 Mn 0.04431 0.59229 -0.00039 0.0
Mn937 Mn 0.03643 0.63222 0.03224 0.0
C938 C 0.04505 0.59997 0.08239 0.0
C939 C 0.02998 0.5666 0.98299 0.0
C940 C 0.07236 0.62033 0.98275 0.0
O941 O 0.03291 0.60246 0.93835 0.0
O942 O 0.02507 0.62835 0.96505 0.0
C943 C 0.99534 0.63048 0.04448 0.0
N944 N 0.01257 0.63354 0.06415 0.0
C945 C 0.99936 0.63921 0.14494 0.0
C946 C 0.98146 0.63624 0.12546 0.0
C947 C 0.97945 0.63184 0.07502 0.0
C948 C 0.01466 0.63776 0.11264 0.0
H949 H 0.99377 0.62692 0.00585 0.0
C950 C 0.02571 0.61686 0.93169 0.0
O951 O 0.04668 0.56979 0.96597 0.0
O952 O 0.0221 0.5781 0.00935 0.0
N953 N 0.04664 0.63731 0.09644 0.0
C954 C 0.06492 0.63887 0.10998 0.0
C955 C 0.06938 0.64319 0.15931 0.0
C956 C 0.05502 0.64579 0.19418 0.0
C957 C 0.0363 0.64391 0.17953 0.0
C958 C 0.0327 0.63988 0.12965 0.0
H959 H 0.076 0.63684 0.08335 0.0
O960 O 0.05332 0.58634 0.06805 0.0
O961 O 0.03722 0.60857 0.0472 0.0
O962 O 0.06868 0.60463 0.98202 0.0
O963 O 0.06137 0.63147 0.00057 0.0
C964 C 0.0211 0.64566 0.21257 0.0
C965 C 0.00264 0.64325 0.19534 0.0
H966 H 0.96918 0.63716 0.14897 0.0
H967 H 0.9657 0.62942 0.05979 0.0
H968 H 0.08386 0.64448 0.17046 0.0
H969 H 0.05853 0.6491 0.2322 0.0
H970 H 0.02346 0.64869 0.25144 0.0
H971 H 0.99109 0.64443 0.22124 0.0
Mn972 Mn 0.16236 0.27412 0.72392 0.0
Mn973 Mn 0.1952 0.28935 0.6457 0.0
C974 C 0.19273 0.26439 0.72871 0.0
C975 C 0.14623 0.27496 0.79932 0.0
C976 C 0.1652 0.26458 0.61422 0.0
O977 O 0.15038 0.29544 0.69664 0.0
O978 O 0.17437 0.30572 0.65104 0.0
C979 C 0.20837 0.31825 0.70501 0.0
N980 N 0.21208 0.30367 0.68075 0.0
C981 C 0.2449 0.30578 0.69979 0.0
C982 C 0.24145 0.32089 0.72468 0.0
C983 C 0.2231 0.32713 0.72739 0.0
C984 C 0.22968 0.29755 0.67793 0.0
H985 H 0.19427 0.32305 0.70733 0.0
C986 C 0.15779 0.30672 0.66907 0.0
O987 O 0.13915 0.26766 0.76041 0.0
O988 O 0.16204 0.28268 0.79344 0.0
N989 N 0.21622 0.27477 0.63756 0.0
C990 C 0.21694 0.25946 0.61538 0.0
C991 C 0.23421 0.25122 0.61104 0.0
C992 C 0.25054 0.25882 0.62937 0.0
C993 C 0.24944 0.27456 0.65213 0.0
C994 C 0.23188 0.28226 0.65491 0.0
H995 H 0.20443 0.25357 0.60119 0.0
O996 O 0.17905 0.2555 0.74622 0.0
O997 O 0.1882 0.27868 0.70887 0.0
O998 O 0.15797 0.26247 0.65717 0.0
O999 O 0.17877 0.27459 0.60571 0.0
C1000 C 0.26503 0.28278 0.67297 0.0
C1001 C 0.26275 0.29837 0.69684 0.0
H1002 H 0.25275 0.32772 0.74229 0.0
H1003 H 0.22032 0.33873 0.74679 0.0
H1004 H 0.23493 0.23902 0.59368 0.0
H1005 H 0.26383 0.25241 0.62614 0.0
H1006 H 0.27877 0.2771 0.67156 0.0
H1007 H 0.27479 0.30444 0.71344 0.0
Mn1008 Mn 0.45648 0.59226 0.97942 0.0
Mn1009 Mn 0.46554 0.63317 0.96141 0.0
C1010 C 0.45521 0.60367 0.90034 0.0
C1011 C 0.46929 0.56528 0.98299 0.0
C1012 C 0.42986 0.62015 0.00967 0.0
O1013 O 0.46954 0.59922 0.04268 0.0
O1014 O 0.47781 0.62591 0.02471 0.0
C1015 C 0.50641 0.63154 0.94429 0.0
N1016 N 0.48897 0.63561 0.92779 0.0
C1017 C 0.50122 0.64508 0.84906 0.0
C1018 C 0.51932 0.64108 0.86535 0.0
C1019 C 0.52191 0.63428 0.91317 0.0
C1020 C 0.48633 0.64226 0.88195 0.0
H1021 H 0.50844 0.62614 0.9808 0.0
C1022 C 0.47761 0.613 0.05322 0.0
O1023 O 0.45329 0.56854 0.00407 0.0
O1024 O 0.47758 0.5776 0.96106 0.0
N1025 N 0.45457 0.64125 0.90085 0.0
C1026 C 0.43613 0.64315 0.88935 0.0
C1027 C 0.43107 0.64932 0.84222 0.0
C1028 C 0.44501 0.65339 0.80734 0.0
C1029 C 0.46389 0.65119 0.81984 0.0
C1030 C 0.4681 0.64522 0.86765 0.0
H1031 H 0.42538 0.63988 0.91582 0.0
O1032 O 0.44631 0.58988 0.90991 0.0
O1033 O 0.46371 0.61035 0.93796 0.0
O1034 O 0.43298 0.60447 0.0046 0.0
O1035 O 0.44106 0.63165 0.99517 0.0
C1036 C 0.47868 0.65433 0.78638 0.0
C1037 C 0.49733 0.65128 0.80097 0.0
H1038 H 0.53129 0.64299 0.84124 0.0
H1039 H 0.53582 0.63106 0.92588 0.0
H1040 H 0.41646 0.65084 0.83268 0.0
H1041 H 0.44103 0.65802 0.77089 0.0
H1042 H 0.47584 0.65887 0.74907 0.0
H1043 H 0.50856 0.6535 0.77464 0.0
Mn1044 Mn 0.16025 0.73227 0.76448 0.0
Mn1045 Mn 0.19196 0.71671 0.84561 0.0
C1046 C 0.19085 0.74152 0.76254 0.0
C1047 C 0.14498 0.73232 0.68773 0.0
C1048 C 0.1627 0.74218 0.87475 0.0
O1049 O 0.14775 0.71074 0.78843 0.0
O1050 O 0.17 0.70154 0.84178 0.0
C1051 C 0.2031 0.6866 0.78873 0.0
N1052 N 0.20781 0.70118 0.81176 0.0
C1053 C 0.24039 0.69721 0.79242 0.0
C1054 C 0.2359 0.6821 0.76875 0.0
C1055 C 0.21717 0.67679 0.76682 0.0
C1056 C 0.22578 0.7064 0.81384 0.0
H1057 H 0.18871 0.68251 0.78704 0.0
C1058 C 0.15413 0.70019 0.81999 0.0
O1059 O 0.13758 0.73933 0.72666 0.0
O1060 O 0.16063 0.72439 0.69417 0.0
N1061 N 0.21395 0.73014 0.85282 0.0
C1062 C 0.21574 0.7455 0.87425 0.0
C1063 C 0.23354 0.75283 0.87798 0.0
C1064 C 0.24929 0.74428 0.85979 0.0
C1065 C 0.2471 0.72847 0.83799 0.0
C1066 C 0.22905 0.72171 0.83581 0.0
H1067 H 0.20367 0.75212 0.88825 0.0
O1068 O 0.17751 0.75082 0.74503 0.0
O1069 O 0.18582 0.72722 0.78147 0.0
O1070 O 0.15512 0.74351 0.83189 0.0
O1071 O 0.17659 0.73264 0.88391 0.0
C1072 C 0.26207 0.7193 0.81751 0.0
C1073 C 0.25871 0.70369 0.79468 0.0
H1074 H 0.24669 0.67455 0.75153 0.0
H1075 H 0.21359 0.66519 0.74839 0.0
H1076 H 0.23511 0.76507 0.8947 0.0
H1077 H 0.26299 0.75001 0.86243 0.0
H1078 H 0.27618 0.72425 0.81843 0.0
H1079 H 0.27029 0.69687 0.77839 0.0
Mn1080 Mn 0.03791 0.41053 0.51257 0.0
Mn1081 Mn 0.02496 0.37151 0.48186 0.0
C1082 C 0.03439 0.40347 0.43022 0.0
C1083 C 0.02655 0.43697 0.53473 0.0
C1084 C 0.06373 0.38061 0.521 0.0
O1085 O 0.02888 0.40043 0.57676 0.0
O1086 O 0.01634 0.37585 0.55144 0.0
C1087 C 0.9839 0.37601 0.47916 0.0
N1088 N 0.00011 0.37186 0.45559 0.0
C1089 C 0.98387 0.36708 0.37826 0.0
C1090 C 0.96697 0.37119 0.40181 0.0
C1091 C 0.967 0.37569 0.45247 0.0
C1092 C 0.00026 0.36752 0.40686 0.0
H1093 H 0.98391 0.37963 0.51798 0.0
C1094 C 0.02024 0.38676 0.58489 0.0
O1095 O 0.04362 0.43265 0.5459 0.0
O1096 O 0.01656 0.42608 0.51135 0.0
N1097 N 0.03259 0.36592 0.41555 0.0
C1098 C 0.05018 0.36312 0.39792 0.0
C1099 C 0.05265 0.35855 0.3478 0.0
C1100 C 0.03703 0.35694 0.3164 0.0
C1101 C 0.01907 0.36005 0.33527 0.0
C1102 C 0.01745 0.36426 0.38575 0.0
H1103 H 0.06222 0.36432 0.42195 0.0
O1104 O 0.04409 0.41658 0.44226 0.0
O1105 O 0.0273 0.39513 0.46709 0.0
O1106 O 0.062 0.39658 0.52028 0.0
O1107 O 0.05074 0.37048 0.5079 0.0
C1108 C 0.00275 0.35933 0.30588 0.0
C1109 C 0.98516 0.3629 0.32732 0.0
H1110 H 0.95393 0.37108 0.38126 0.0
H1111 H 0.95403 0.37899 0.47081 0.0
H1112 H 0.06656 0.35627 0.33339 0.0
H1113 H 0.03901 0.35338 0.27781 0.0
H1114 H 0.00358 0.35623 0.26662 0.0
H1115 H 0.97274 0.36251 0.30421 0.0
Mn1116 Mn 0.34304 0.26809 0.25928 0.0
Mn1117 Mn 0.31408 0.28708 0.34068 0.0
C1118 C 0.31166 0.26156 0.25894 0.0
C1119 C 0.35803 0.26729 0.18248 0.0
C1120 C 0.34053 0.25908 0.36973 0.0
O1121 O 0.35817 0.28805 0.28306 0.0
O1122 O 0.33741 0.30068 0.33394 0.0
C1123 C 0.3051 0.31742 0.28219 0.0
N1124 N 0.29933 0.30341 0.30662 0.0
C1125 C 0.26706 0.30938 0.28824 0.0
C1126 C 0.27264 0.32394 0.26317 0.0
C1127 C 0.29175 0.32796 0.26008 0.0
C1128 C 0.28098 0.29944 0.30992 0.0
H1129 H 0.31977 0.3205 0.27954 0.0
C1130 C 0.35345 0.29986 0.31255 0.0
O1131 O 0.36468 0.25925 0.22066 0.0
O1132 O 0.34321 0.27633 0.18954 0.0
N1133 N 0.29103 0.27535 0.35059 0.0
C1134 C 0.28809 0.26028 0.37307 0.0
C1135 C 0.26977 0.25412 0.37764 0.0
C1136 C 0.25467 0.26353 0.35927 0.0
C1137 C 0.25803 0.27903 0.33648 0.0
C1138 C 0.27657 0.2846 0.33337 0.0
H1139 H 0.29966 0.25298 0.38708 0.0
O1140 O 0.3238 0.25123 0.24038 0.0
O1141 O 0.31831 0.27546 0.27713 0.0
O1142 O 0.34711 0.25638 0.3263 0.0
O1143 O 0.32836 0.27034 0.37917 0.0
C1144 C 0.24376 0.28898 0.31572 0.0
C1145 C 0.24827 0.30415 0.29161 0.0
H1146 H 0.2624 0.33204 0.24573 0.0
H1147 H 0.29617 0.33913 0.24055 0.0
H1148 H 0.2673 0.24211 0.39506 0.0
H1149 H 0.24058 0.25867 0.36246 0.0
H1150 H 0.2293 0.28497 0.3174 0.0
H1151 H 0.2372 0.31157 0.27514 0.0
H1152 H 0.96459 0.10318 0.65887 0.0
H1153 H 0.0128 0.12776 0.5933 0.0
H1154 H 0.02744 0.12973 0.67684 0.0
H1155 H 0.96333 0.12748 0.77103 0.0
H1156 H 0.95695 0.11034 0.81151 0.0
H1157 H 0.94956 0.11045 0.74728 0.0
H1158 H 0.96492 0.0821 0.72954 0.0
H1159 H 0.97147 0.08077 0.79415 0.0
H1160 H 0.98905 0.07875 0.74632 0.0
H1161 H 0.03862 0.12457 0.76483 0.0
H1162 H 0.04404 0.1154 0.85205 0.0
H1163 H 0.98683 0.09802 0.86131 0.0
C1164 C 0.97819 0.10906 0.66212 0.0
C1165 C 0.98768 0.11519 0.61984 0.0
C1166 C 0.00534 0.12299 0.62547 0.0
C1167 C 0.01372 0.12418 0.67265 0.0
C1168 C 0.00401 0.11787 0.71365 0.0
C1169 C 0.98653 0.11066 0.70883 0.0
C1170 C 0.97916 0.10444 0.75822 0.0
C1171 C 0.96119 0.11374 0.77297 0.0
C1172 C 0.97597 0.08539 0.75696 0.0
C1173 C 0.99538 0.10901 0.79168 0.0
C1174 C 0.00973 0.11653 0.76522 0.0
C1175 C 0.02727 0.11933 0.78647 0.0
C1176 C 0.03024 0.11413 0.83579 0.0
C1177 C 0.01553 0.10687 0.86345 0.0
C1178 C 0.9979 0.10444 0.84138 0.0
H1179 H 0.15982 0.73282 0.97193 0.0
H1180 H 0.14898 0.77416 0.87139 0.0
H1181 H 0.13918 0.79165 0.94312 0.0
H1182 H 0.12043 0.74087 0.05574 0.0
H1183 H 0.13328 0.73507 0.11104 0.0
H1184 H 0.13861 0.72536 0.05211 0.0
H1185 H 0.17316 0.73427 0.05874 0.0
H1186 H 0.16842 0.74357 0.11844 0.0
H1187 H 0.17886 0.75593 0.06958 0.0
H1188 H 0.13624 0.80578 0.02758 0.0
H1189 H 0.13684 0.8143 0.11661 0.0
H1190 H 0.14527 0.76274 0.16011 0.0
C1191 C 0.15513 0.74549 0.96499 0.0
C1192 C 0.15521 0.75222 0.91636 0.0
C1193 C 0.14891 0.76879 0.90849 0.0
C1194 C 0.14335 0.77879 0.94895 0.0
C1195 C 0.1437 0.77184 0.99669 0.0
C1196 C 0.14911 0.75545 0.00464 0.0
C1197 C 0.14886 0.75105 0.05947 0.0
C1198 C 0.13442 0.73728 0.07026 0.0
C1199 C 0.16849 0.74591 0.07759 0.0
C1200 C 0.14295 0.76765 0.08143 0.0
C1201 C 0.14024 0.77959 0.04475 0.0
C1202 C 0.13759 0.79643 0.05655 0.0
C1203 C 0.13794 0.80118 0.107 0.0
C1204 C 0.14022 0.78903 0.14474 0.0
C1205 C 0.14252 0.77209 0.13177 0.0
H1206 H 0.49504 0.90247 0.13642 0.0
H1207 H 0.5521 0.88494 0.15303 0.0
H1208 H 0.55037 0.88966 0.24394 0.0
H1209 H 0.49789 0.93473 0.23612 0.0
H1210 H 0.47419 0.93112 0.25643 0.0
H1211 H 0.48047 0.92791 0.19203 0.0
H1212 H 0.46705 0.8985 0.19773 0.0
H1213 H 0.46196 0.90007 0.26333 0.0
H1214 H 0.47684 0.88359 0.24031 0.0
H1215 H 0.5433 0.89722 0.33012 0.0
H1216 H 0.52929 0.90239 0.4126 0.0
H1217 H 0.47571 0.91257 0.34325 0.0
C1218 C 0.50708 0.89974 0.15956 0.0
C1219 C 0.5237 0.89339 0.13881 0.0
C1220 C 0.5393 0.88981 0.16919 0.0
C1221 C 0.5385 0.89257 0.22044 0.0
C1222 C 0.52199 0.89893 0.24016 0.0
C1223 C 0.50648 0.90236 0.21105 0.0
C1224 C 0.49019 0.90824 0.24268 0.0
C1225 C 0.48541 0.92659 0.23112 0.0
C1226 C 0.473 0.89692 0.23572 0.0
C1227 C 0.49873 0.90658 0.29418 0.0
C1228 C 0.51732 0.90191 0.29132 0.0
C1229 C 0.52866 0.90051 0.33315 0.0
C1230 C 0.52058 0.90331 0.37964 0.0
C1231 C 0.50129 0.90684 0.38374 0.0
C1232 C 0.49034 0.90918 0.34063 0.0
H1233 H 0.34233 0.26798 0.46755 0.0
H1234 H 0.35371 0.22683 0.36669 0.0
H1235 H 0.36304 0.20918 0.43851 0.0
H1236 H 0.38086 0.26009 0.55273 0.0
H1237 H 0.36739 0.26587 0.60704 0.0
H1238 H 0.36245 0.27535 0.54759 0.0
H1239 H 0.32794 0.26593 0.55369 0.0
H1240 H 0.33263 0.25662 0.61344 0.0
H1241 H 0.32264 0.24417 0.56415 0.0
H1242 H 0.36636 0.19501 0.52325 0.0
H1243 H 0.36624 0.18656 0.61248 0.0
H1244 H 0.35647 0.23797 0.65544 0.0
C1245 C 0.34695 0.2553 0.46047 0.0
C1246 C 0.34723 0.24872 0.41168 0.0
C1247 C 0.35347 0.23211 0.40387 0.0
C1248 C 0.35877 0.22201 0.44439 0.0
C1249 C 0.35814 0.22886 0.49219 0.0
C1250 C 0.35261 0.24521 0.50017 0.0
C1251 C 0.35257 0.24955 0.55496 0.0
C1252 C 0.36668 0.26354 0.56626 0.0
C1253 C 0.33277 0.25434 0.57257 0.0
C1254 C 0.35871 0.23302 0.57687 0.0
C1255 C 0.36162 0.22112 0.54026 0.0
C1256 C 0.36476 0.20434 0.55216 0.0
C1257 C 0.3647 0.19963 0.60269 0.0
C1258 C 0.36216 0.21178 0.64028 0.0
C1259 C 0.35935 0.22864 0.62716 0.0
H1260 H 0.0084 0.88681 0.87368 0.0
H1261 H 0.94885 0.89207 0.84726 0.0
H1262 H 0.95433 0.89202 0.75665 0.0
H1263 H 0.02233 0.91489 0.78519 0.0
H1264 H 0.04287 0.90392 0.76396 0.0
H1265 H 0.03437 0.90064 0.82629 0.0
H1266 H 0.03245 0.86887 0.80981 0.0
H1267 H 0.0407 0.87184 0.74685 0.0
H1268 H 0.01886 0.86119 0.75806 0.0
H1269 H 0.96582 0.89664 0.67335 0.0
H1270 H 0.98304 0.90463 0.59781 0.0
H1271 H 0.03572 0.89646 0.67404 0.0
C1272 C 0.99659 0.88742 0.84846 0.0
C1273 C 0.97823 0.88938 0.86672 0.0
C1274 C 0.96299 0.8906 0.83339 0.0
C1275 C 0.96596 0.89044 0.78206 0.0
C1276 C 0.98424 0.88908 0.76487 0.0
C1277 C 0.99936 0.88751 0.79676 0.0
C1278 C 0.01766 0.88837 0.76824 0.0
C1279 C 0.03002 0.90282 0.78704 0.0
C1280 C 0.02804 0.87156 0.77089 0.0
C1281 C 0.01042 0.89168 0.71605 0.0
C1282 C 0.99107 0.89165 0.71514 0.0
C1283 C 0.98094 0.89611 0.67299 0.0
C1284 C 0.99083 0.90059 0.63032 0.0
C1285 C 0.01058 0.90034 0.62989 0.0
C1286 C 0.02058 0.89605 0.6733 0.0
H1287 H 0.35725 0.76101 0.83485 0.0
H1288 H 0.36887 0.81201 0.8788 0.0
H1289 H 0.36939 0.80327 0.9677 0.0
H1290 H 0.32392 0.75541 0.92563 0.0
H1291 H 0.32845 0.73351 0.93599 0.0
H1292 H 0.3336 0.74273 0.87641 0.0
H1293 H 0.36792 0.73266 0.88286 0.0
H1294 H 0.36281 0.72321 0.94229 0.0
H1295 H 0.38163 0.73807 0.93704 0.0
H1296 H 0.36584 0.78909 0.05221 0.0
H1297 H 0.35533 0.77183 0.12384 0.0
H1298 H 0.34209 0.73124 0.02272 0.0
C1299 C 0.36068 0.77016 0.86324 0.0
C1300 C 0.36386 0.787 0.85043 0.0
C1301 C 0.36706 0.79894 0.88826 0.0
C1302 C 0.36738 0.79406 0.93864 0.0
C1303 C 0.36383 0.77732 0.95029 0.0
C1304 C 0.36032 0.7656 0.9135 0.0
C1305 C 0.35362 0.74922 0.9354 0.0
C1306 C 0.33372 0.74498 0.91729 0.0
C1307 C 0.36734 0.73496 0.92369 0.0
C1308 C 0.35379 0.75351 0.99025 0.0
C1309 C 0.36012 0.76963 -0.00165 0.0
C1310 C 0.36098 0.77643 0.04623 0.0
C1311 C 0.35502 0.76656 0.08665 0.0
C1312 C 0.34785 0.75028 0.07862 0.0
C1313 C 0.34745 0.74369 0.02985 0.0
H1314 H 0.46874 0.08753 0.15974 0.0
H1315 H 0.52124 0.08049 0.08168 0.0
H1316 H 0.5384 0.08224 0.16132 0.0
H1317 H 0.48476 0.11666 0.25712 0.0
H1318 H 0.46986 0.10673 0.302 0.0
H1319 H 0.46358 0.10638 0.23696 0.0
H1320 H 0.46153 0.07361 0.24824 0.0
H1321 H 0.47005 0.07503 0.31134 0.0
H1322 H 0.48226 0.06232 0.26644 0.0
H1323 H 0.54978 0.08442 0.24782 0.0
H1324 H 0.55508 0.0884 0.33811 0.0
H1325 H 0.4954 0.09458 0.36086 0.0
C1326 C 0.48385 0.08657 0.15977 0.0
C1327 C 0.49388 0.08452 0.11501 0.0
C1328 C 0.51353 0.08268 0.11584 0.0
C1329 C 0.52333 0.0835 0.16075 0.0
C1330 C 0.51315 0.08585 0.20435 0.0
C1331 C 0.49387 0.08739 0.20446 0.0
C1332 C 0.48641 0.08933 0.257 0.0
C1333 C 0.4755 0.10575 0.26349 0.0
C1334 C 0.47435 0.07417 0.2716 0.0
C1335 C 0.50461 0.08955 0.28582 0.0
C1336 C 0.51979 0.08708 0.25478 0.0
C1337 C 0.53805 0.08641 0.27263 0.0
C1338 C 0.54092 0.08863 0.32373 0.0
C1339 C 0.52563 0.09183 0.35573 0.0
C1340 C 0.50726 0.09224 0.33673 0.0
H1341 H 0.16323 0.27423 0.51675 0.0
H1342 H 0.15011 0.23312 0.61635 0.0
H1343 H 0.139 0.21641 0.54448 0.0
H1344 H 0.1231 0.2686 0.43481 0.0
H1345 H 0.13582 0.27382 0.37879 0.0
H1346 H 0.14238 0.28304 0.43755 0.0
H1347 H 0.17616 0.2722 0.42891 0.0
H1348 H 0.17028 0.26346 0.36916 0.0
H1349 H 0.18019 0.25031 0.41695 0.0
H1350 H 0.13429 0.20286 0.46009 0.0
H1351 H 0.13347 0.19465 0.37086 0.0
H1352 H 0.14546 0.24573 0.32821 0.0
C1353 C 0.15786 0.26176 0.52346 0.0
C1354 C 0.1576 0.2549 0.57194 0.0
C1355 C 0.15036 0.23861 0.57941 0.0
C1356 C 0.14402 0.22904 0.53887 0.0
C1357 C 0.1446 0.23614 0.49138 0.0
C1358 C 0.15108 0.25223 0.48368 0.0
C1359 C 0.1507 0.25685 0.429 0.0
C1360 C 0.13718 0.27143 0.41944 0.0
C1361 C 0.17051 0.26093 0.40991 0.0
C1362 C 0.14344 0.24069 0.40688 0.0
C1363 C 0.14017 0.22881 0.44336 0.0
C1364 C 0.1361 0.21221 0.4313 0.0
C1365 C 0.13563 0.20764 0.38074 0.0
C1366 C 0.13853 0.21975 0.34321 0.0
C1367 C 0.14223 0.23648 0.35647 0.0
H1368 H 0.97356 0.89905 0.3754 0.0
H1369 H 0.03045 0.9161 0.35116 0.0
H1370 H 0.0257 0.91448 0.26007 0.0
H1371 H 0.9709 0.87075 0.27525 0.0
H1372 H 0.94734 0.8757 0.2559 0.0
H1373 H 0.95417 0.87825 0.32012 0.0
H1374 H 0.94484 0.9093 0.32045 0.0
H1375 H 0.93668 0.90707 0.25727 0.0
H1376 H 0.95359 0.92301 0.27241 0.0
H1377 H 0.01537 0.91044 0.17339 0.0
H1378 H 0.99854 0.90791 0.09351 0.0
H1379 H 0.9476 0.89503 0.17243 0.0
C1380 C 0.98487 0.9026 0.35066 0.0
C1381 C 0.00231 0.90778 0.36961 0.0
C1382 C 0.01692 0.91234 0.33679 0.0
C1383 C 0.01442 0.9113 0.28524 0.0
C1384 C 0.99713 0.90597 0.26751 0.0
C1385 C 0.98244 0.90209 0.29899 0.0
C1386 C 0.96502 0.89756 0.26987 0.0
C1387 C 0.95899 0.87948 0.2809 0.0
C1388 C 0.94909 0.90998 0.28064 0.0
C1389 C 0.97228 0.89942 0.21712 0.0
C1390 C 0.99093 0.90402 0.21686 0.0
C1391 C 0.00079 0.9068 0.17296 0.0
C1392 C 0.99119 0.90522 0.12793 0.0
C1393 C 0.97203 0.90089 0.12736 0.0
C1394 C 0.96239 0.898 0.17233 0.0
H1395 H 0.84499 0.25886 0.06745 0.0
H1396 H 0.9025 0.27587 0.05964 0.0
H1397 H 0.90455 0.26557 0.97238 0.0
H1398 H 0.852 0.22078 0.99555 0.0
H1399 H 0.8293 0.22218 0.9666 0.0
H1400 H 0.83286 0.23054 0.02824 0.0
H1401 H 0.82068 0.25944 -0.00127 0.0
H1402 H 0.81701 0.25118 0.93714 0.0
H1403 H 0.83148 0.26942 0.94573 0.0
H1404 H 0.89863 0.25575 0.88234 0.0
H1405 H 0.88614 0.24554 0.80138 0.0
H1406 H 0.83369 0.23308 0.87373 0.0
C1407 C 0.85804 0.26038 0.04741 0.0
C1408 C 0.87352 0.2683 0.06976 0.0
C1409 C 0.89048 0.26984 0.04286 0.0
C1410 C 0.89175 0.26404 0.99342 0.0
C1411 C 0.87607 0.25641 0.97224 0.0
C1412 C 0.85966 0.25437 -0.00114 0.0
C1413 C 0.84475 0.24583 0.96825 0.0
C1414 C 0.83942 0.22882 0.99102 0.0
C1415 C 0.82747 0.25715 0.9621 0.0
C1416 C 0.85512 0.24371 0.91964 0.0
C1417 C 0.87313 0.24994 0.92224 0.0
C1418 C 0.88468 0.25052 0.88023 0.0
C1419 C 0.87751 0.24472 0.83449 0.0
C1420 C 0.85911 0.23825 0.83158 0.0
C1421 C 0.848 0.23754 0.87498 0.0
H1422 H 0.52089 0.11075 0.85963 0.0
H1423 H 0.46804 0.08565 0.83244 0.0
H1424 H 0.47174 0.09032 0.7422 0.0
H1425 H 0.51795 0.14119 0.75128 0.0
H1426 H 0.54259 0.1392 0.73839 0.0
H1427 H 0.53415 0.13735 0.80156 0.0
H1428 H 0.54998 0.10826 0.80942 0.0
H1429 H 0.55855 0.11013 0.74671 0.0
H1430 H 0.54461 0.09227 0.7642 0.0
H1431 H 0.48253 0.09398 0.65702 0.0
H1432 H 0.50147 0.09354 0.58058 0.0
H1433 H 0.54812 0.11547 0.66027 0.0
C1434 C 0.50997 0.10659 0.83454 0.0
C1435 C 0.4942 0.09788 0.85256 0.0
C1436 C 0.4803 0.09224 0.81902 0.0
C1437 C 0.48213 0.09507 0.7679 0.0
C1438 C 0.49795 0.10351 0.75106 0.0
C1439 C 0.51174 0.10908 0.78318 0.0
C1440 C 0.5286 0.11548 0.75476 0.0
C1441 C 0.53095 0.13444 0.76195 0.0
C1442 C 0.54648 0.10596 0.76964 0.0
C1443 C 0.52263 0.11151 0.70196 0.0
C1444 C 0.50457 0.10528 0.70071 0.0
C1445 C 0.49647 0.09926 0.65718 0.0
C1446 C 0.50729 0.09912 0.61396 0.0
C1447 C 0.5259 0.10506 0.61465 0.0
C1448 C 0.53366 0.11145 0.6589 0.0
H1449 H 0.65501 0.74386 0.57065 0.0
H1450 H 0.59432 0.74191 0.57065 0.0
H1451 H 0.59391 0.75511 0.48717 0.0
H1452 H 0.65909 0.78426 0.50585 0.0
H1453 H 0.67962 0.77779 0.47194 0.0
H1454 H 0.67499 0.76932 0.53301 0.0
H1455 H 0.67658 0.73925 0.49718 0.0
H1456 H 0.6813 0.74761 0.4362 0.0
H1457 H 0.66178 0.73366 0.44536 0.0
H1458 H 0.60043 0.76547 0.39976 0.0
H1459 H 0.61331 0.77297 0.31703 0.0
H1460 H 0.66955 0.76979 0.37683 0.0
C1461 C 0.6416 0.74631 0.55332 0.0
C1462 C 0.62468 0.74176 0.57706 0.0
C1463 C 0.60745 0.74532 0.55322 0.0
C1464 C 0.60708 0.75283 0.50585 0.0
C1465 C 0.62405 0.75699 0.48329 0.0
C1466 C 0.64097 0.75401 0.50654 0.0
C1467 C 0.65726 0.75908 0.47378 0.0
C1468 C 0.66839 0.77347 0.49757 0.0
C1469 C 0.66997 0.744 0.46246 0.0
C1470 C 0.6469 0.76489 0.42769 0.0
C1471 C 0.62774 0.76364 0.43391 0.0
C1472 C 0.61537 0.76684 0.39483 0.0
C1473 C 0.6228 0.77109 0.34802 0.0
C1474 C 0.64238 0.77226 0.34089 0.0
C1475 C 0.6545 0.76949 0.38161 0.0
H1476 H 0.94133 0.10649 0.32617 0.0
H1477 H 0.99426 0.09491 0.39734 0.0
H1478 H 0.00919 0.09189 0.31526 0.0
H1479 H 0.94623 0.07774 0.22518 0.0
H1480 H 0.93602 0.09108 0.17834 0.0
H1481 H 0.92909 0.09321 0.24263 0.0
H1482 H 0.93844 0.12472 0.24208 0.0
H1483 H 0.94425 0.12245 0.17707 0.0
H1484 H 0.9614 0.1305 0.21983 0.0
H1485 H 0.0179 0.08789 0.22853 0.0
H1486 H 0.02156 0.08679 0.13746 0.0
H1487 H 0.96395 0.10274 0.11851 0.0
C1488 C 0.9561 0.10359 0.32402 0.0
C1489 C 0.96685 0.10127 0.36762 0.0
C1490 C 0.98602 0.09711 0.36408 0.0
C1491 C 0.99456 0.09526 0.31775 0.0
C1492 C 0.9837 0.09757 0.27536 0.0
C1493 C 0.96501 0.10192 0.27765 0.0
C1494 C 0.95677 0.1035 0.22562 0.0
C1495 C 0.9411 0.09061 0.21749 0.0
C1496 C 0.9498 0.12137 0.21564 0.0
C1497 C 0.97383 0.09944 0.19419 0.0
C1498 C 0.98903 0.09575 0.22405 0.0
C1499 C 0.00619 0.09089 0.20458 0.0
C1500 C 0.00807 0.09016 0.15291 0.0
C1501 C 0.99299 0.09457 0.12138 0.0
C1502 C 0.97562 0.09928 0.14211 0.0
H1503 H 0.66189 0.2251 0.09835 0.0
H1504 H 0.60688 0.23161 0.16347 0.0
H1505 H 0.59408 0.23844 0.07994 0.0
H1506 H 0.65943 0.25989 0.02332 0.0
H1507 H 0.67245 0.25118 0.97195 0.0
H1508 H 0.6764 0.24362 0.03419 0.0
H1509 H 0.66909 0.21337 0.00546 0.0
H1510 H 0.66524 0.22085 0.94288 0.0
H1511 H 0.64729 0.20899 0.97425 0.0
H1512 H 0.58803 0.2468 0.98987 0.0
H1513 H 0.58976 0.25823 0.90406 0.0
H1514 H 0.64942 0.24849 0.90137 0.0
C1515 C 0.64701 0.22738 0.09478 0.0
C1516 C 0.63525 0.22748 0.13705 0.0
C1517 C 0.61603 0.23123 0.1313 0.0
C1518 C 0.60866 0.23508 0.08403 0.0
C1519 C 0.62078 0.23531 0.0432 0.0
C1520 C 0.63959 0.23164 0.0483 0.0
C1521 C 0.6502 0.23486 0.00041 0.0
C1522 C 0.66551 0.24818 0.00795 0.0
C1523 C 0.65843 0.21854 0.97952 0.0
C1524 C 0.63454 0.24131 0.96779 0.0
C1525 C 0.61758 0.2411 0.99257 0.0
C1526 C 0.60122 0.24691 0.97007 0.0
C1527 C 0.60231 0.25334 0.92136 0.0
C1528 C 0.61973 0.25427 0.89635 0.0
C1529 C 0.63593 0.24796 0.91975 0.0
H1530 H 0.53315 0.87996 0.63507 0.0
H1531 H 0.47347 0.88646 0.65463 0.0
H1532 H 0.47626 0.87819 0.74298 0.0
H1533 H 0.53938 0.84513 0.73376 0.0
H1534 H 0.56137 0.85393 0.75349 0.0
H1535 H 0.55429 0.85545 0.68905 0.0
H1536 H 0.55819 0.8877 0.69252 0.0
H1537 H 0.56539 0.8862 0.75642 0.0
H1538 H 0.54589 0.89938 0.73979 0.0
H1539 H 0.48566 0.87567 0.82877 0.0
H1540 H 0.50128 0.88132 0.90835 0.0
H1541 H 0.55537 0.87625 0.83755 0.0
C1542 C 0.52072 0.87912 0.65803 0.0
C1543 C 0.50312 0.88371 0.63906 0.0
C1544 C 0.48704 0.88295 0.66937 0.0
C1545 C 0.48847 0.87804 0.71915 0.0
C1546 C 0.5061 0.87396 0.73767 0.0
C1547 C 0.522 0.87446 0.70818 0.0
C1548 C 0.53954 0.8725 0.73931 0.0
C1549 C 0.54921 0.85575 0.72822 0.0
C1550 C 0.55302 0.88734 0.73156 0.0
C1551 C 0.53109 0.87246 0.79105 0.0
C1552 C 0.51173 0.8725 0.78898 0.0
C1553 C 0.50075 0.87492 0.83117 0.0
C1554 C 0.50973 0.878 0.87633 0.0
C1555 C 0.52945 0.87831 0.87911 0.0
C1556 C 0.54027 0.87523 0.8363 0.0
H1557 H 0.82971 0.77305 0.62646 0.0
H1558 H 0.88579 0.76861 0.68653 0.0
H1559 H 0.89745 0.76032 0.60298 0.0
H1560 H 0.83193 0.73677 0.55659 0.0
H1561 H 0.81795 0.74435 0.5054 0.0
H1562 H 0.81468 0.75285 0.56686 0.0
H1563 H 0.82074 0.78275 0.53316 0.0
H1564 H 0.82384 0.77436 0.47135 0.0
H1565 H 0.84192 0.78705 0.49899 0.0
H1566 H 0.90239 0.75089 0.51383 0.0
H1567 H 0.89999 0.73901 0.4289 0.0
H1568 H 0.83999 0.74707 0.43084 0.0
C1569 C 0.84456 0.7709 0.62164 0.0
C1570 C 0.85699 0.77185 0.66245 0.0
C1571 C 0.87616 0.7682 0.65537 0.0
C1572 C 0.88286 0.76351 0.60813 0.0
C1573 C 0.87012 0.76228 0.56884 0.0
C1574 C 0.85134 0.76577 0.57528 0.0
C1575 C 0.84011 0.76158 0.52908 0.0
C1576 C 0.8253 0.74809 0.54017 0.0
C1577 C 0.83113 0.77738 0.50683 0.0
C1578 C 0.85544 0.75491 0.49575 0.0
C1579 C 0.87271 0.75577 0.51887 0.0
C1580 C 0.88895 0.75022 0.49537 0.0
C1581 C 0.88745 0.74351 0.44718 0.0
C1582 C 0.86979 0.74207 0.42358 0.0
C1583 C 0.85364 0.74793 0.4482 0.0
H1584 H 0.46334 0.6013 0.13935 0.0
H1585 H 0.51113 0.62757 0.07781 0.0
H1586 H 0.52604 0.62779 0.16151 0.0
H1587 H 0.46125 0.6232 0.25301 0.0
H1588 H 0.45537 0.60554 0.29194 0.0
H1589 H 0.44814 0.60607 0.22762 0.0
H1590 H 0.46439 0.57851 0.20679 0.0
H1591 H 0.47076 0.57644 0.27141 0.0
H1592 H 0.48854 0.57544 0.22383 0.0
H1593 H 0.53737 0.62068 0.2491 0.0
H1594 H 0.54185 0.61164 0.33698 0.0
H1595 H 0.48446 0.59452 0.34227 0.0
C1596 C 0.47693 0.60716 0.1436 0.0
C1597 C 0.48628 0.61425 0.10255 0.0
C1598 C 0.50386 0.62205 0.1092 0.0
C1599 C 0.51239 0.62218 0.15638 0.0
C1600 C 0.50286 0.61483 0.19616 0.0
C1601 C 0.48536 0.60774 0.19028 0.0
C1602 C 0.47791 0.60073 0.23856 0.0
C1603 C 0.4596 0.60941 0.25378 0.0
C1604 C 0.47526 0.58166 0.23491 0.0
C1605 C 0.49389 0.60511 0.27295 0.0
C1606 C 0.50845 0.61273 0.2476 0.0
C1607 C 0.52583 0.61537 0.26989 0.0
C1608 C 0.52827 0.61025 0.31953 0.0
C1609 C 0.51315 0.60334 0.34638 0.0
C1610 C 0.49584 0.60068 0.32287 0.0
H1611 H 0.6638 0.22824 0.46715 0.0
H1612 H 0.6467 0.26865 0.36932 0.0
H1613 H 0.63389 0.28401 0.44192 0.0
H1614 H 0.62329 0.22978 0.54761 0.0
H1615 H 0.63625 0.22529 0.6038 0.0
H1616 H 0.64414 0.21722 0.54473 0.0
H1617 H 0.67646 0.23107 0.55586 0.0
H1618 H 0.6692 0.23872 0.61587 0.0
H1619 H 0.67785 0.25311 0.56951 0.0
H1620 H 0.62702 0.2964 0.52711 0.0
H1621 H 0.62432 0.30364 0.61685 0.0
H1622 H 0.64191 0.25361 0.65658 0.0
C1623 C 0.65732 0.24031 0.46099 0.0
C1624 C 0.65636 0.24735 0.4128 0.0
C1625 C 0.64757 0.26306 0.40605 0.0
C1626 C 0.64024 0.27185 0.447 0.0
C1627 C 0.64144 0.26454 0.49413 0.0
C1628 C 0.64958 0.24903 0.50113 0.0
C1629 C 0.64936 0.24396 0.55546 0.0
C1630 C 0.63754 0.22813 0.56339 0.0
C1631 C 0.6694 0.24159 0.57532 0.0
C1632 C 0.64013 0.25918 0.5782 0.0
C1633 C 0.63586 0.27103 0.54237 0.0
C1634 C 0.62967 0.28702 0.55532 0.0
C1635 C 0.62812 0.29103 0.60616 0.0
C1636 C 0.63206 0.2789 0.64299 0.0
C1637 C 0.63789 0.26277 0.62878 0.0
H1638 H 0.98731 0.38225 0.63597 0.0
H1639 H 0.04766 0.38277 0.65079 0.0
H1640 H 0.04472 0.38332 0.74209 0.0
H1641 H 0.97752 0.41039 0.72115 0.0
H1642 H 0.95714 0.40109 0.74948 0.0
H1643 H 0.96324 0.3959 0.68639 0.0
H1644 H 0.9641 0.36448 0.70881 0.0
H1645 H 0.9578 0.36937 0.7723 0.0
H1646 H 0.97858 0.35736 0.75956 0.0
H1647 H 0.036 0.39354 0.82317 0.0
H1648 H 0.02144 0.40527 0.89851 0.0
H1649 H 0.96643 0.39512 0.8383 0.0
C1650 C -0.00024 0.38158 0.65888 0.0
C1651 C 0.01768 0.38242 0.63721 0.0
C1652 C 0.03385 0.38208 0.66741 0.0
C1653 C 0.03232 0.38235 0.71913 0.0
C1654 C 0.0145 0.38268 0.7398 0.0
C1655 C 0.99844 0.38168 0.71106 0.0
C1656 C 0.98112 0.38412 0.74296 0.0
C1657 C 0.96906 0.39875 0.72384 0.0
C1658 C 0.96973 0.36786 0.7461 0.0
C1659 C 0.99011 0.38819 0.79267 0.0
C1660 C 0.00938 0.38718 0.78979 0.0
C1661 C 0.02094 0.39329 0.82731 0.0
C1662 C 0.0126 0.3999 0.8699 0.0
C1663 C 0.99298 0.39978 0.87536 0.0
C1664 C 0.98153 0.39428 0.83589 0.0
H1665 H 0.84811 0.74451 0.18331 0.0
H1666 H 0.86946 0.69608 0.13932 0.0
H1667 H 0.86707 0.70434 0.05029 0.0
H1668 H 0.81311 0.74428 0.09349 0.0
H1669 H 0.81316 0.76652 0.08253 0.0
H1670 H 0.82028 0.75844 0.14219 0.0
H1671 H 0.85255 0.77352 0.13482 0.0
H1672 H 0.84453 0.78226 0.0767 0.0
H1673 H 0.86615 0.7708 0.07864 0.0
H1674 H 0.86051 0.71756 0.96623 0.0
H1675 H 0.84803 0.73342 0.89427 0.0
H1676 H 0.82722 0.77157 0.99507 0.0
C1677 C 0.85295 0.73594 0.15479 0.0
C1678 C 0.85977 0.71998 0.16757 0.0
C1679 C 0.86484 0.70858 0.12976 0.0
C1680 C 0.86349 0.71317 0.07934 0.0
C1681 C 0.85639 0.72896 0.06777 0.0
C1682 C 0.851 0.7401 0.10452 0.0
C1683 C 0.84106 0.75513 0.08272 0.0
C1684 C 0.82071 0.75613 0.10134 0.0
C1685 C 0.85173 0.77138 0.09395 0.0
C1686 C 0.84187 0.75083 0.02792 0.0
C1687 C 0.851 0.73584 0.01988 0.0
C1688 C 0.85337 0.72933 0.9721 0.0
C1689 C 0.84624 0.73841 0.93151 0.0
C1690 C 0.83657 0.75366 0.93917 0.0
C1691 C 0.83439 0.75987 0.98807 0.0
H1692 H 0.48866 0.41715 0.15118 0.0
H1693 H 0.54255 0.39261 0.14557 0.0
H1694 H 0.54083 0.38711 0.23662 0.0
H1695 H 0.50089 0.43837 0.26619 0.0
H1696 H 0.47724 0.43879 0.28938 0.0
H1697 H 0.48152 0.43911 0.22317 0.0
H1698 H 0.46123 0.41175 0.20965 0.0
H1699 H 0.45573 0.41398 0.27481 0.0
H1700 H 0.465 0.3946 0.25234 0.0
H1701 H 0.53174 0.38291 0.32794 0.0
H1702 H 0.51804 0.38321 0.41281 0.0
H1703 H 0.47274 0.41454 0.35872 0.0
C1704 C 0.49983 0.41027 0.16918 0.0
C1705 C 0.51525 0.40441 0.14159 0.0
C1706 C 0.53029 0.3965 0.16628 0.0
C1707 C 0.52946 0.39344 0.21781 0.0
C1708 C 0.51392 0.3992 0.24415 0.0
C1709 C 0.49961 0.40783 0.22078 0.0
C1710 C 0.48573 0.41463 0.2582 0.0
C1711 C 0.48639 0.43387 0.25929 0.0
C1712 C 0.46576 0.40836 0.24797 0.0
C1713 C 0.49361 0.40731 0.30574 0.0
C1714 C 0.50992 0.39852 0.29712 0.0
C1715 C 0.51911 0.38996 0.33528 0.0
C1716 C 0.51123 0.39018 0.38332 0.0
C1717 C 0.4944 0.399 0.39269 0.0
C1718 C 0.48577 0.40788 0.35329 0.0
H1719 H 0.85571 0.2943 0.37792 0.0
H1720 H 0.85904 0.2498 0.28615 0.0
H1721 H 0.85608 0.23212 0.36061 0.0
H1722 H 0.88025 0.27537 0.491 0.0
H1723 H 0.86511 0.28637 0.53359 0.0
H1724 H 0.87114 0.29563 0.47436 0.0
H1725 H 0.83592 0.29884 0.45375 0.0
H1726 H 0.82973 0.28939 0.51232 0.0
H1727 H 0.82102 0.28064 0.45489 0.0
H1728 H 0.84692 0.21951 0.43967 0.0
H1729 H 0.83457 0.21221 0.52258 0.0
H1730 H 0.83781 0.26428 0.56722 0.0
C1731 C 0.85651 0.28083 0.37413 0.0
C1732 C 0.85837 0.27335 0.32676 0.0
C1733 C 0.85848 0.25573 0.32244 0.0
C1734 C 0.85668 0.24558 0.36449 0.0
C1735 C 0.85464 0.25325 0.41066 0.0
C1736 C 0.8548 0.27045 0.4161 0.0
C1737 C 0.85063 0.27536 0.46964 0.0
C1738 C 0.8678 0.28367 0.49358 0.0
C1739 C 0.83329 0.28672 0.47279 0.0
C1740 C 0.84689 0.25829 0.49239 0.0
C1741 C 0.84953 0.24576 0.45761 0.0
C1742 C 0.84523 0.22912 0.46768 0.0
C1743 C 0.83804 0.22514 0.51462 0.0
C1744 C 0.83532 0.23769 0.55104 0.0
C1745 C 0.84007 0.25445 0.54011 0.0
H1746 H 0.04213 0.60692 0.84677 0.0
H1747 H 0.99462 0.63482 0.90298 0.0
H1748 H 0.98254 0.63771 0.81645 0.0
H1749 H 0.04808 0.62988 0.73154 0.0
H1750 H 0.05385 0.61159 0.69492 0.0
H1751 H 0.05993 0.61253 0.76004 0.0
H1752 H 0.04207 0.58558 0.77995 0.0
H1753 H 0.0366 0.58338 0.71493 0.0
H1754 H 0.01805 0.58342 0.76049 0.0
H1755 H 0.97282 0.63188 0.72767 0.0
H1756 H 0.96777 0.62055 0.64272 0.0
H1757 H 0.02341 0.59935 0.6438 0.0
C1758 C 0.02932 0.61389 0.84077 0.0
C1759 C 0.01914 0.62055 0.88109 0.0
C1760 C 0.00256 0.62969 0.87218 0.0
C1761 C 0.99567 0.63137 0.82333 0.0
C1762 C 0.00585 0.62419 0.78433 0.0
C1763 C 0.02246 0.61583 0.79267 0.0
C1764 C 0.0302 0.60817 0.74562 0.0
C1765 C 0.04913 0.61602 0.73211 0.0
C1766 C 0.0318 0.58902 0.75057 0.0
C1767 C 0.01505 0.61306 0.70922 0.0
C1768 C 0.00101 0.62219 0.73226 0.0
C1769 C 0.98402 0.62541 0.70858 0.0
C1770 C 0.98124 0.61893 0.6606 0.0
C1771 C 0.99559 0.60988 0.6365 0.0
C1772 C 0.01273 0.60711 0.66073 0.0
H1773 H 0.65877 0.77321 0.00594 0.0
H1774 H 0.6439 0.73271 0.10582 0.0
H1775 H 0.63032 0.71703 0.03483 0.0
H1776 H 0.61672 0.76957 0.92456 0.0
H1777 H 0.62985 0.77453 0.86902 0.0
H1778 H 0.6366 0.78335 0.92818 0.0
H1779 H 0.66999 0.77139 0.91838 0.0
H1780 H 0.66362 0.7628 0.85888 0.0
H1781 H 0.67302 0.74935 0.90667 0.0
H1782 H 0.62471 0.70373 0.9508 0.0
H1783 H 0.62446 0.69523 0.86182 0.0
H1784 H 0.63886 0.74572 0.81851 0.0
C1785 C 0.65229 0.76119 0.01294 0.0
C1786 C 0.65237 0.7541 0.06109 0.0
C1787 C 0.64382 0.73836 0.06911 0.0
C1788 C 0.63608 0.7294 0.02907 0.0
C1789 C 0.63655 0.73661 0.98169 0.0
C1790 C 0.6441 0.75232 0.97373 0.0
C1791 C 0.64385 0.75693 0.91906 0.0
C1792 C 0.63097 0.77199 0.90964 0.0
C1793 C 0.6638 0.7603 0.89964 0.0
C1794 C 0.63578 0.74107 0.89711 0.0
C1795 C 0.63169 0.72943 0.93374 0.0
C1796 C 0.62707 0.71294 0.92188 0.0
C1797 C 0.62694 0.70819 0.87146 0.0
C1798 C 0.63078 0.72005 0.83381 0.0
C1799 C 0.6349 0.73671 0.84679 0.0
H1800 H 0.49835 0.41595 0.85346 0.0
H1801 H 0.45527 0.38421 0.91732 0.0
H1802 H 0.44228 0.3794 0.83302 0.0
H1803 H 0.46914 0.43415 0.75407 0.0
H1804 H 0.48843 0.43448 0.71077 0.0
H1805 H 0.49273 0.43662 0.77664 0.0
H1806 H 0.51572 0.41222 0.77088 0.0
H1807 H 0.51073 0.40843 0.70608 0.0
H1808 H 0.50771 0.39196 0.75149 0.0
H1809 H 0.43347 0.37896 0.7412 0.0
H1810 H 0.43067 0.38183 0.6493 0.0
H1811 H 0.48188 0.4107 0.64605 0.0
C1812 C 0.48594 0.40826 0.85001 0.0
C1813 C 0.47773 0.40057 0.89213 0.0
C1814 C 0.46174 0.3903 0.88564 0.0
C1815 C 0.45428 0.38748 0.83791 0.0
C1816 C 0.46307 0.3949 0.79709 0.0
C1817 C 0.4785 0.40514 0.80276 0.0
C1818 C 0.48584 0.41112 0.75293 0.0
C1819 C 0.48391 0.43022 0.74834 0.0
C1820 C 0.5062 0.40558 0.74479 0.0
C1821 C 0.47247 0.40222 0.71812 0.0
C1822 C 0.45909 0.39332 0.74429 0.0
C1823 C 0.4441 0.38556 0.72027 0.0
C1824 C 0.44266 0.38715 0.66825 0.0
C1825 C 0.45654 0.39578 0.64097 0.0
C1826 C 0.47161 0.40335 0.66617 0.0
H1827 H 0.33609 0.7319 0.39291 0.0
H1828 H 0.39272 0.73576 0.33624 0.0
H1829 H 0.40368 0.74458 0.41988 0.0
H1830 H 0.33783 0.76855 0.4613 0.0
H1831 H 0.32347 0.76127 0.51212 0.0
H1832 H 0.32065 0.75241 0.45096 0.0
H1833 H 0.32641 0.72272 0.48662 0.0
H1834 H 0.32908 0.73149 0.54811 0.0
H1835 H 0.34734 0.71863 0.52211 0.0
H1836 H 0.40791 0.75491 0.50827 0.0
H1837 H 0.40488 0.76759 0.59198 0.0
H1838 H 0.34494 0.7591 0.58781 0.0
C1839 C 0.35091 0.73405 0.39856 0.0
C1840 C 0.36368 0.7328 0.35856 0.0
C1841 C 0.38281 0.73641 0.36673 0.0
C1842 C 0.38913 0.7414 0.41405 0.0
C1843 C 0.37607 0.74294 0.45247 0.0
C1844 C 0.35733 0.73943 0.44511 0.0
C1845 C 0.34578 0.74391 0.49054 0.0
C1846 C 0.33107 0.75733 0.47795 0.0
C1847 C 0.33662 0.72825 0.51318 0.0
C1848 C 0.36087 0.75078 0.52434 0.0
C1849 C 0.3783 0.7498 0.50219 0.0
C1850 C 0.39435 0.75565 0.52605 0.0
C1851 C 0.39249 0.76281 0.57358 0.0
C1852 C 0.37467 0.76437 0.59627 0.0
C1853 C 0.35873 0.75815 0.5713 0.0
H1854 H 0.06345 0.60189 0.1726 0.0
H1855 H 0.00872 0.59748 0.10399 0.0
H1856 H 0.9944 0.59316 0.18644 0.0
H1857 H 0.05686 0.57133 0.26739 0.0
H1858 H 0.06875 0.58268 0.31603 0.0
H1859 H 0.07522 0.58589 0.25179 0.0
H1860 H 0.06898 0.61782 0.25986 0.0
H1861 H 0.06346 0.61451 0.32463 0.0
H1862 H 0.04681 0.62479 0.28468 0.0
H1863 H 0.9864 0.58659 0.27309 0.0
H1864 H 0.98351 0.58452 0.36433 0.0
H1865 H 0.04259 0.59588 0.38034 0.0
C1866 C 0.04844 0.60032 0.17544 0.0
C1867 C 0.03706 0.60022 0.13251 0.0
C1868 C 0.01753 0.59788 0.13687 0.0
C1869 C 0.00931 0.59526 0.18335 0.0
C1870 C 0.02086 0.59512 0.22501 0.0
C1871 C 0.03989 0.59807 0.222 0.0
C1872 C 0.04879 0.59772 0.27335 0.0
C1873 C 0.06326 0.58356 0.27735 0.0
C1874 C 0.05753 0.61473 0.28634 0.0
C1875 C 0.03176 0.59414 0.3053 0.0
C1876 C 0.01594 0.59222 0.27624 0.0
C1877 C 0.9986 0.58825 0.29646 0.0
C1878 C 0.99715 0.58691 0.3482 0.0
C1879 C 0.01285 0.58997 0.37898 0.0
C1880 C 0.03044 0.59341 0.35734 0.0
H1881 H 0.16522 0.27495 0.88691 0.0
H1882 H 0.10993 0.26755 0.82435 0.0
H1883 H 0.09826 0.25875 0.90739 0.0
H1884 H 0.16505 0.23886 0.95696 0.0
H1885 H 0.17807 0.2472 0.00886 0.0
H1886 H 0.18117 0.25592 0.94761 0.0
H1887 H 0.17269 0.28538 0.98099 0.0
H1888 H 0.16976 0.27676 0.04262 0.0
H1889 H 0.151 0.28839 0.01406 0.0
H1890 H 0.09343 0.24862 0.99624 0.0
H1891 H 0.09627 0.2364 0.0808 0.0
H1892 H 0.15546 0.24836 0.0817 0.0
C1893 C 0.1505 0.27206 0.89105 0.0
C1894 C 0.13834 0.27227 0.84957 0.0
C1895 C 0.11937 0.2677 0.85595 0.0
C1896 C 0.11264 0.26272 0.90293 0.0
C1897 C 0.12516 0.26218 0.94286 0.0
C1898 C 0.14372 0.26669 0.93724 0.0
C1899 C 0.15488 0.26311 0.98403 0.0
C1900 C 0.17071 0.25053 0.97372 0.0
C1901 C 0.16253 0.27938 0.00677 0.0
C1902 C 0.13982 0.25554 0.01657 0.0
C1903 C 0.12268 0.25543 0.99271 0.0
C1904 C 0.10677 0.24873 0.01532 0.0
C1905 C 0.1085 0.24183 0.06331 0.0
C1906 C 0.1261 0.24135 0.08758 0.0
C1907 C 0.14185 0.24845 0.0639 0.0
H1908 H 0.4577 0.60592 0.60174 0.0
H1909 H 0.51778 0.60041 0.61834 0.0
H1910 H 0.51487 0.60373 0.70903 0.0
H1911 H 0.45115 0.63599 0.70505 0.0
H1912 H 0.42958 0.6268 0.72667 0.0
H1913 H 0.43575 0.62576 0.66152 0.0
H1914 H 0.43292 0.59357 0.66233 0.0
H1915 H 0.42624 0.5943 0.72702 0.0
H1916 H 0.44585 0.58167 0.70788 0.0
H1917 H 0.50612 0.6049 0.79542 0.0
H1918 H 0.49149 0.60335 0.87794 0.0
H1919 H 0.4365 0.60764 0.81067 0.0
C1920 C 0.47013 0.60556 0.6248 0.0
C1921 C 0.48795 0.60284 0.60369 0.0
C1922 C 0.50402 0.60232 0.63435 0.0
C1923 C 0.50253 0.60433 0.68571 0.0
C1924 C 0.48484 0.60671 0.70581 0.0
C1925 C 0.46885 0.60724 0.67681 0.0
C1926 C 0.45152 0.60862 0.70933 0.0
C1927 C 0.4414 0.62529 0.7001 0.0
C1928 C 0.43836 0.59364 0.70115 0.0
C1929 C 0.46035 0.60819 0.76083 0.0
C1930 C 0.47962 0.6074 0.75737 0.0
C1931 C 0.49108 0.60587 0.79888 0.0
C1932 C 0.48265 0.60507 0.84553 0.0
C1933 C 0.46299 0.60603 0.85041 0.0
C1934 C 0.4516 0.60741 0.80763 0.0
H1935 H 0.15648 0.76036 0.40686 0.0
H1936 H 0.0975 0.77314 0.40601 0.0
H1937 H 0.094 0.7606 0.48993 0.0
H1938 H 0.15111 0.72017 0.47269 0.0
H1939 H 0.17268 0.72284 0.50655 0.0
H1940 H 0.17012 0.73179 0.44523 0.0
H1941 H 0.17861 0.76102 0.48027 0.0
H1942 H 0.18127 0.75218 0.54152 0.0
H1943 H 0.1654 0.76939 0.53182 0.0
H1944 H 0.09807 0.7498 0.57823 0.0
H1945 H 0.10902 0.74032 0.66125 0.0
H1946 H 0.16465 0.73271 0.60104 0.0
C1947 C 0.14278 0.76039 0.42411 0.0
C1948 C 0.12727 0.76781 0.40009 0.0
C1949 C 0.10955 0.76748 0.42373 0.0
C1950 C 0.10744 0.76038 0.47135 0.0
C1951 C 0.1231 0.75335 0.49428 0.0
C1952 C 0.14036 0.7531 0.47107 0.0
C1953 C 0.15512 0.74525 0.50406 0.0
C1954 C 0.1627 0.72905 0.48074 0.0
C1955 C 0.17103 0.7577 0.51507 0.0
C1956 C 0.14363 0.74162 0.55021 0.0
C1957 C 0.12518 0.74636 0.54394 0.0
C1958 C 0.11237 0.74568 0.58318 0.0
C1959 C 0.11869 0.74029 0.63015 0.0
C1960 C 0.13755 0.73547 0.6372 0.0
C1961 C 0.15001 0.73582 0.59636 0.0
H1962 H 0.02971 0.40784 0.13403 0.0
H1963 H 0.97098 0.42018 0.1516 0.0
H1964 H 0.97416 0.41788 0.24298 0.0
H1965 H 0.03296 0.37846 0.22697 0.0
H1966 H 0.05548 0.38437 0.25192 0.0
H1967 H 0.05002 0.38838 0.18746 0.0
H1968 H 0.05639 0.41988 0.19642 0.0
H1969 H 0.06332 0.41629 0.26012 0.0
H1970 H 0.04539 0.43144 0.24612 0.0
H1971 H 0.98276 0.41158 0.33019 0.0
H1972 H 0.99779 0.40705 0.41189 0.0
H1973 H 0.0515 0.4006 0.33935 0.0
C1974 C 0.0177 0.41047 0.15739 0.0
C1975 C 0.00015 0.41428 0.13633 0.0
C1976 C 0.9846 0.41752 0.16747 0.0
C1977 C 0.98622 0.41606 0.21921 0.0
C1978 C 0.00358 0.41174 0.23886 0.0
C1979 C 0.0192 0.40955 0.20922 0.0
C1980 C 0.03626 0.40532 0.24015 0.0
C1981 C 0.04415 0.3881 0.22582 0.0
C1982 C 0.05122 0.41906 0.23543 0.0
C1983 C 0.02766 0.4051 0.29171 0.0
C1984 C 0.00873 0.40862 0.28983 0.0
C1985 C 0.99759 0.40895 0.33231 0.0
C1986 C 0.00618 0.40619 0.37831 0.0
C1987 C 0.02562 0.40316 0.38119 0.0
C1988 C 0.03653 0.4026 0.33755 0.0
H1989 H 0.33858 0.26857 0.09587 0.0
H1990 H 0.39382 0.25882 0.15588 0.0
H1991 H 0.40491 0.25096 0.0715 0.0
H1992 H 0.33737 0.23347 0.02148 0.0
H1993 H 0.3244 0.24286 0.97108 0.0
H1994 H 0.32183 0.25077 0.03344 0.0
H1995 H 0.33106 0.28045 0.00321 0.0
H1996 H 0.33355 0.27263 0.94053 0.0
H1997 H 0.35274 0.28342 0.97001 0.0
H1998 H 0.40912 0.24207 0.98186 0.0
H1999 H 0.40553 0.23053 0.89679 0.0
H2000 H 0.34674 0.24395 0.89834 0.0
C2001 C 0.35318 0.26532 0.09091 0.0
C2002 C 0.3655 0.26461 0.13194 0.0
C2003 C 0.38428 0.25963 0.12459 0.0
C2004 C 0.39068 0.25521 0.07686 0.0
C2005 C 0.37803 0.25566 0.03725 0.0
C2006 C 0.35962 0.26049 0.04392 0.0
C2007 C 0.34819 0.25784 0.99709 0.0
C2008 C 0.33201 0.2455 0.00635 0.0
C2009 C 0.34097 0.27458 0.9765 0.0
C2010 C 0.36291 0.25038 0.9633 0.0
C2011 C 0.38014 0.24961 0.98663 0.0
C2012 C 0.39574 0.24274 0.96311 0.0
C2013 C 0.39358 0.23626 0.91483 0.0
C2014 C 0.37586 0.23636 0.89121 0.0
C2015 C 0.36044 0.24371 0.91562 0.0
H2016 H 0.01981 0.02418 0.00801 0.0
H2017 H 0.97618 0.04749 0.91917 0.0
H2018 H 0.96027 0.02045 0.91085 0.0
H2019 H 0.02052 0.98448 0.93881 0.0
H2020 H 0.02425 0.972 0.99391 0.0
H2021 H 0.03293 0.99315 0.99132 0.0
H2022 H 0.01477 1.0002 0.07225 0.0
H2023 H 0.00597 0.97911 0.07492 0.0
H2024 H 0.9899 0.99648 0.07489 0.0
H2025 H 0.94779 0.99144 0.9157 0.0
H2026 H 0.94051 0.96162 0.93084 0.0
H2027 H 0.99218 0.95657 0.01463 0.0
C2028 C 0.00705 0.02352 0.98635 0.0
C2029 C 0.99928 0.03801 0.96439 0.0
C2030 C 0.98244 0.03662 0.93659 0.0
C2031 C 0.97325 0.02129 0.93151 0.0
C2032 C 0.98103 0.00731 0.95418 0.0
C2033 C 0.99761 0.00818 0.98074 0.0
C2034 C 0.00263 0.9912 0.00215 0.0
C2035 C 0.02118 0.98483 0.98022 0.0
C2036 C 0.00335 0.99179 0.05945 0.0
C2037 C 0.98619 0.98083 0.98394 0.0
C2038 C 0.9739 0.99039 0.95634 0.0
C2039 C 0.95738 0.98375 0.9369 0.0
C2040 C 0.95333 0.96683 0.94577 0.0
C2041 C 0.96579 0.95676 0.97363 0.0
C2042 C 0.98244 0.96391 0.99278 0.0
H2043 H 0.21871 0.79474 0.26776 0.0
H2044 H 0.1914 0.74869 0.31219 0.0
H2045 H 0.22173 0.7339 0.30924 0.0
H2046 H 0.24645 0.77689 0.17873 0.0
H2047 H 0.26744 0.78898 0.18818 0.0
H2048 H 0.24497 0.79774 0.20344 0.0
H2049 H 0.25454 0.80347 0.294 0.0
H2050 H 0.27768 0.79587 0.27984 0.0
H2051 H 0.26467 0.78696 0.33097 0.0
H2052 H 0.2544 0.724 0.29956 0.0
H2053 H 0.28709 0.71862 0.27449 0.0
H2054 H 0.29283 0.77016 0.22689 0.0
C2055 C 0.21933 0.78169 0.27843 0.0
C2056 C 0.20295 0.77284 0.29129 0.0
C2057 C 0.20396 0.75563 0.30298 0.0
C2058 C 0.22108 0.74717 0.30153 0.0
C2059 C 0.23697 0.75611 0.28766 0.0
C2060 C 0.2363 0.77295 0.27603 0.0
C2061 C 0.25507 0.77908 0.25693 0.0
C2062 C 0.25339 0.78607 0.20366 0.0
C2063 C 0.26349 0.79211 0.29257 0.0
C2064 C 0.26616 0.76292 0.25817 0.0
C2065 C 0.25556 0.74998 0.27745 0.0
C2066 C 0.26277 0.73395 0.28373 0.0
C2067 C 0.28121 0.73096 0.26884 0.0
C2068 C 0.29196 0.74375 0.2464 0.0
C2069 C 0.28457 0.76006 0.24242 0.0
H2070 H 0.51367 0.04018 0.52746 0.0
H2071 H 0.57359 0.03352 0.51053 0.0
H2072 H 0.5697 0.00306 0.52423 0.0
H2073 H 0.50645 0.00875 0.62346 0.0
H2074 H 0.48431 0.00205 0.59822 0.0
H2075 H 0.49194 0.02335 0.58984 0.0
H2076 H 0.48834 0.02036 0.49411 0.0
H2077 H 0.48053 0.99914 0.50221 0.0
H2078 H 0.50022 0.00357 0.46235 0.0
H2079 H 0.55903 0.97338 0.53665 0.0
H2080 H 0.54246 0.94639 0.54047 0.0
H2081 H 0.4893 0.97242 0.54906 0.0
C2082 C 0.52603 0.03236 0.52692 0.0
C2083 C 0.54398 0.03923 0.51809 0.0
C2084 C 0.55973 0.02852 0.51719 0.0
C2085 C 0.55765 0.01124 0.52523 0.0
C2086 C 0.53973 0.00492 0.53411 0.0
C2087 C 0.52419 0.01515 0.53467 0.0
C2088 C 0.50637 0.00517 0.54237 0.0
C2089 C 0.4967 0.01013 0.5914 0.0
C2090 C 0.49309 0.00718 0.49759 0.0
C2091 C 0.51425 0.98762 0.54532 0.0
C2092 C 0.53355 0.98781 0.54103 0.0
C2093 C 0.54396 0.97311 0.54037 0.0
C2094 C 0.53439 0.95783 0.54263 0.0
C2095 C 0.51459 0.9573 0.54538 0.0
C2096 C 0.50444 0.97243 0.54795 0.0
H2097 H 0.28405 0.20792 0.76301 0.0
H2098 H 0.3124 0.25322 0.80938 0.0
H2099 H 0.28241 0.26858 0.80719 0.0
H2100 H 0.25681 0.22654 0.67495 0.0
H2101 H 0.23544 0.21495 0.68389 0.0
H2102 H 0.25762 0.20558 0.69907 0.0
H2103 H 0.24792 0.19978 0.7894 0.0
H2104 H 0.22499 0.2079 0.77535 0.0
H2105 H 0.23818 0.21636 0.82678 0.0
H2106 H 0.24991 0.27913 0.79813 0.0
H2107 H 0.21737 0.28525 0.77303 0.0
H2108 H 0.21057 0.23413 0.72282 0.0
C2109 C 0.28371 0.22092 0.77431 0.0
C2110 C 0.3003 0.22939 0.78751 0.0
C2111 C 0.29968 0.24656 0.79996 0.0
C2112 C 0.28275 0.25533 0.79894 0.0
C2113 C 0.26665 0.24677 0.78473 0.0
C2114 C 0.26694 0.22997 0.77237 0.0
C2115 C 0.24803 0.22431 0.753 0.0
C2116 C 0.24955 0.21746 0.69955 0.0
C2117 C 0.23926 0.21132 0.78824 0.0
C2118 C 0.23735 0.24068 0.7547 0.0
C2119 C 0.24822 0.25331 0.77468 0.0
C2120 C 0.24135 0.26943 0.7817 0.0
C2121 C 0.22299 0.27285 0.76678 0.0
C2122 C 0.21201 0.2604 0.74353 0.0
C2123 C 0.21903 0.24398 0.73887 0.0
H2124 H 0.02287 0.98045 0.48597 0.0
H2125 H 0.97823 0.95572 0.56758 0.0
H2126 H 0.96219 0.98259 0.57839 0.0
H2127 H 0.02281 0.01906 0.55934 0.0
H2128 H 0.0269 0.03235 0.50614 0.0
H2129 H 0.03562 0.01121 0.50639 0.0
H2130 H 0.01806 0.00527 0.42374 0.0
H2131 H 0.00929 0.02638 0.42328 0.0
H2132 H 0.99323 0.00903 0.42024 0.0
H2133 H 0.95017 0.0117 0.57869 0.0
H2134 H 0.94287 0.04164 0.56705 0.0
H2135 H 0.99478 0.048 0.48503 0.0
C2136 C 0.00982 0.98076 0.50643 0.0
C2137 C 0.00184 0.96594 0.52586 0.0
C2138 C 0.98463 0.96685 0.5521 0.0
C2139 C 0.97538 0.98209 0.55866 0.0
C2140 C 0.98345 0.99642 0.53878 0.0
C2141 C 0.00025 0.99597 0.51317 0.0
C2142 C 0.0054 0.01325 0.49425 0.0
C2143 C 0.02377 0.01932 0.51796 0.0
C2144 C 0.00656 0.01349 0.43698 0.0
C2145 C 0.98881 0.02333 0.51291 0.0
C2146 C 0.97638 0.01336 0.53873 0.0
C2147 C 0.95983 0.01969 0.55872 0.0
C2148 C 0.95579 0.0367 0.55192 0.0
C2149 C 0.96824 0.04716 0.52526 0.0
C2150 C 0.98501 0.04034 0.50581 0.0
H2151 H 0.20997 0.77124 0.7675 0.0
H2152 H 0.21461 0.71972 0.71911 0.0
H2153 H 0.24745 0.72457 0.69453 0.0
H2154 H 0.2388 0.78773 0.66388 0.0
H2155 H 0.24909 0.80401 0.70137 0.0
H2156 H 0.22577 0.7967 0.71483 0.0
H2157 H 0.23542 0.78946 0.80648 0.0
H2158 H 0.25815 0.79792 0.79228 0.0
H2159 H 0.25614 0.77704 0.81649 0.0
H2160 H 0.28039 0.73384 0.68586 0.0
H2161 H 0.31109 0.74805 0.68371 0.0
H2162 H 0.28478 0.79455 0.72809 0.0
C2163 C 0.21801 0.76104 0.75183 0.0
C2164 C 0.21027 0.74487 0.74758 0.0
C2165 C 0.22075 0.73195 0.72497 0.0
C2166 C 0.23928 0.73464 0.71035 0.0
C2167 C 0.24686 0.75052 0.71701 0.0
C2168 C 0.23651 0.76362 0.73622 0.0
C2169 C 0.24802 0.77956 0.73801 0.0
C2170 C 0.23994 0.79278 0.70239 0.0
C2171 C 0.24949 0.78638 0.7915 0.0
C2172 C 0.2667 0.77309 0.7194 0.0
C2173 C 0.26564 0.7563 0.70743 0.0
C2174 C 0.28135 0.74709 0.6938 0.0
C2175 C 0.29868 0.75522 0.6928 0.0
C2176 C 0.30008 0.77239 0.70467 0.0
C2177 C 0.28388 0.78153 0.71731 0.0
H2178 H 0.54269 0.96203 0.00244 0.0
H2179 H 0.49664 0.93619 0.93004 0.0
H2180 H 0.4806 0.96295 0.91667 0.0
H2181 H 0.51472 0.99168 0.06684 0.0
H2182 H 0.5307 0.00893 0.05905 0.0
H2183 H 0.53945 0.98782 0.0603 0.0
H2184 H 0.55529 0.99241 0.97446 0.0
H2185 H 0.54661 0.01356 0.97303 0.0
H2186 H 0.54143 0.99948 0.9224 0.0
H2187 H 0.46831 0.99206 0.91544 0.0
H2188 H 0.4611 0.02213 0.92553 0.0
H2189 H 0.51492 0.02949 -0.0027 0.0
C2190 C 0.52936 0.96207 0.98325 0.0
C2191 C 0.52096 0.94698 0.96741 0.0
C2192 C 0.50339 0.94754 0.94278 0.0
C2193 C 0.49413 0.96271 0.9348 0.0
C2194 C 0.50258 0.97731 0.95144 0.0
C2195 C 0.51982 0.9772 0.97494 0.0
C2196 C 0.52537 0.99473 0.99065 0.0
C2197 C 0.52769 0.99585 0.04758 0.0
C2198 C 0.54323 1.00037 0.9635 0.0
C2199 C 0.50843 0.00454 0.973 0.0
C2200 C 0.49549 0.99426 0.95031 0.0
C2201 C 0.47841 1.00031 0.93272 0.0
C2202 C 0.4744 0.01738 0.93866 0.0
C2203 C 0.48744 0.02816 0.9619 0.0
C2204 C 0.50472 0.02161 0.97889 0.0
H2205 H 0.21594 0.21109 0.22606 0.0
H2206 H 0.19163 0.25724 0.17148 0.0
H2207 H 0.22247 0.27113 0.17745 0.0
H2208 H 0.24338 0.23005 0.31702 0.0
H2209 H 0.2635 0.21658 0.31167 0.0
H2210 H 0.24059 0.20882 0.29594 0.0
H2211 H 0.25133 0.20064 0.20754 0.0
H2212 H 0.27464 0.20752 0.22283 0.0
H2213 H 0.26291 0.2159 0.16883 0.0
H2214 H 0.25554 0.28014 0.19092 0.0
H2215 H 0.28856 0.28418 0.21576 0.0
H2216 H 0.29084 0.23314 0.26953 0.0
C2217 C 0.21735 0.22394 0.21385 0.0
C2218 C 0.20166 0.23306 0.19711 0.0
C2219 C 0.20367 0.25006 0.18353 0.0
C2220 C 0.22107 0.25802 0.18687 0.0
C2221 C 0.23623 0.24886 0.20465 0.0
C2222 C 0.23458 0.23221 0.21806 0.0
C2223 C 0.2527 0.22571 0.24019 0.0
C2224 C 0.24987 0.21996 0.29442 0.0
C2225 C 0.26088 0.21161 0.20791 0.0
C2226 C 0.26468 0.24133 0.2375 0.0
C2227 C 0.25497 0.25446 0.21617 0.0
C2228 C 0.2632 0.27003 0.20835 0.0
C2229 C 0.28183 0.2723 0.22315 0.0
C2230 C 0.29177 0.25925 0.24683 0.0
C2231 C 0.28323 0.24347 0.25305 0.0
H2232 H 0.78076 0.26693 0.70243 0.0
H2233 H 0.78158 0.21921 0.77891 0.0
H2234 H 0.74998 0.22465 0.81237 0.0
H2235 H 0.75645 0.2889 0.8044 0.0
H2236 H 0.74333 0.30223 0.76298 0.0
H2237 H 0.76615 0.2948 0.74487 0.0
H2238 H 0.75242 0.28139 0.66344 0.0
H2239 H 0.7303 0.29033 0.68128 0.0
H2240 H 0.73195 0.26831 0.66886 0.0
H2241 H 0.71747 0.23375 0.8297 0.0
H2242 H 0.68615 0.24679 0.8338 0.0
H2243 H 0.70697 0.28998 0.75361 0.0
C2244 C 0.77413 0.25766 0.72599 0.0
C2245 C 0.78302 0.24228 0.73621 0.0
C2246 C 0.77447 0.23068 0.76878 0.0
C2247 C 0.75668 0.23377 0.78847 0.0
C2248 C 0.74797 0.24881 0.77655 0.0
C2249 C 0.75643 0.26069 0.7466 0.0
C2250 C 0.74401 0.27593 0.74043 0.0
C2251 C 0.75303 0.29138 0.76462 0.0
C2252 C 0.73943 0.27916 0.68521 0.0
C2253 C 0.72686 0.27033 0.76928 0.0
C2254 C 0.72957 0.25469 0.79018 0.0
C2255 C 0.71529 0.24617 0.81471 0.0
C2256 C 0.69761 0.25364 0.81697 0.0
C2257 C 0.69449 0.26951 0.79537 0.0
C2258 C 0.70933 0.27813 0.77212 0.0
H2259 H 0.72348 0.76988 0.25295 0.0
H2260 H 0.70056 0.72489 0.18695 0.0
H2261 H 0.72862 0.70904 0.21325 0.0
H2262 H 0.77358 0.76292 0.229 0.0
H2263 H 0.77948 0.77143 0.28885 0.0
H2264 H 0.75847 0.77827 0.25827 0.0
H2265 H 0.74109 0.76961 0.34041 0.0
H2266 H 0.76235 0.76125 0.36659 0.0
H2267 H 0.74202 0.74809 0.36039 0.0
H2268 H 0.75879 0.69802 0.24816 0.0
H2269 H 0.791 0.69352 0.27926 0.0
H2270 H 0.79412 0.74554 0.32347 0.0
C2271 C 0.72472 0.75682 0.24282 0.0
C2272 C 0.71024 0.74862 0.21664 0.0
C2273 C 0.71178 0.73136 0.20606 0.0
C2274 C 0.72755 0.72227 0.22123 0.0
C2275 C 0.74139 0.73057 0.24816 0.0
C2276 C 0.74024 0.74748 0.25858 0.0
C2277 C 0.75669 0.75315 0.29008 0.0
C2278 C 0.76767 0.76731 0.2649 0.0
C2279 C 0.75014 0.75833 0.34247 0.0
C2280 C 0.76797 0.73714 0.29208 0.0
C2281 C 0.75856 0.7241 0.26937 0.0
C2282 C 0.76628 0.70812 0.26609 0.0
C2283 C 0.78449 0.70564 0.28421 0.0
C2284 C 0.79484 0.71917 0.30393 0.0
C2285 C 0.78632 0.73498 0.30904 0.0
H2286 H 0.70906 0.2683 0.25414 0.0
H2287 H 0.71373 0.21675 0.20601 0.0
H2288 H 0.74553 0.22227 0.17426 0.0
H2289 H 0.73495 0.28506 0.14417 0.0
H2290 H 0.74578 0.30164 0.17933 0.0
H2291 H 0.72295 0.29405 0.19687 0.0
H2292 H 0.73476 0.2871 0.28725 0.0
H2293 H 0.75669 0.29625 0.26872 0.0
H2294 H 0.75622 0.27544 0.29376 0.0
H2295 H 0.77758 0.23214 0.15782 0.0
H2296 H 0.80816 0.24634 0.15328 0.0
H2297 H 0.78267 0.29242 0.2046 0.0
C2298 C 0.71689 0.25825 0.23694 0.0
C2299 C 0.70949 0.2419 0.23455 0.0
C2300 C 0.71965 0.22915 0.21018 0.0
C2301 C 0.73757 0.23223 0.19145 0.0
C2302 C 0.74483 0.2483 0.1959 0.0
C2303 C 0.7348 0.2612 0.21736 0.0
C2304 C 0.74602 0.27734 0.21693 0.0
C2305 C 0.73688 0.29028 0.18226 0.0
C2306 C 0.74854 0.28442 0.26982 0.0
C2307 C 0.76438 0.27111 0.19541 0.0
C2308 C 0.76319 0.25437 0.18278 0.0
C2309 C 0.77863 0.24533 0.16637 0.0
C2310 C 0.79592 0.25348 0.16399 0.0
C2311 C 0.79759 0.27048 0.17773 0.0
C2312 C 0.78156 0.27955 0.19237 0.0
H2313 H 0.71075 0.70985 0.72405 0.0
H2314 H 0.68648 0.75567 0.66682 0.0
H2315 H 0.71677 0.77007 0.67702 0.0
H2316 H 0.73496 0.72786 0.81786 0.0
H2317 H 0.7562 0.71573 0.81571 0.0
H2318 H 0.73452 0.70684 0.79419 0.0
H2319 H 0.7477 0.70053 0.70734 0.0
H2320 H 0.77016 0.70806 0.72809 0.0
H2321 H 0.75955 0.71674 0.67286 0.0
H2322 H 0.74839 0.78008 0.69869 0.0
H2323 H 0.77988 0.78543 0.73287 0.0
H2324 H 0.78342 0.73398 0.78284 0.0
C2325 C 0.71214 0.7227 0.71181 0.0
C2326 C 0.69655 0.73164 0.69364 0.0
C2327 C 0.69846 0.74864 0.68005 0.0
C2328 C 0.71556 0.7569 0.68572 0.0
C2329 C 0.73055 0.74798 0.70538 0.0
C2330 C 0.72913 0.73124 0.71798 0.0
C2331 C 0.74691 0.72515 0.74304 0.0
C2332 C 0.74292 0.71852 0.79584 0.0
C2333 C 0.75666 0.71183 0.7109 0.0
C2334 C 0.75815 0.74124 0.74426 0.0
C2335 C 0.74856 0.75411 0.72126 0.0
C2336 C 0.75601 0.77014 0.71707 0.0
C2337 C 0.77374 0.77312 0.73716 0.0
C2338 C 0.78353 0.76032 0.7624 0.0
C2339 C 0.77586 0.74407 0.76498 0.0
H2340 H 0.51186 0.52672 0.51765 0.0
H2341 H 0.46864 0.54755 0.42219 0.0
H2342 H 0.45253 0.52042 0.42087 0.0
H2343 H 0.51318 0.48593 0.45944 0.0
H2344 H 0.51662 0.4748 0.51717 0.0
H2345 H 0.52495 0.49595 0.51083 0.0
H2346 H 0.50591 0.50456 0.58894 0.0
H2347 H 0.49744 0.48345 0.59533 0.0
H2348 H 0.4811 0.50054 0.59077 0.0
H2349 H 0.4409 0.49112 0.42905 0.0
H2350 H 0.43501 0.46116 0.44565 0.0
H2351 H 0.48531 0.45913 0.53624 0.0
C2352 C 0.49905 0.52553 0.49639 0.0
C2353 C 0.49155 0.5393 0.47007 0.0
C2354 C 0.4747 0.53723 0.44278 0.0
C2355 C 0.46538 0.52185 0.44176 0.0
C2356 C 0.47302 0.50857 0.46826 0.0
C2357 C 0.48947 0.51018 0.49502 0.0
C2358 C 0.49459 0.49381 0.52011 0.0
C2359 C 0.51345 0.48724 0.50071 0.0
C2360 C 0.49476 0.49571 0.57717 0.0
C2361 C 0.47849 0.48283 0.50306 0.0
C2362 C 0.4662 0.4916 0.47323 0.0
C2363 C 0.45039 0.4841 0.45248 0.0
C2364 C 0.44714 0.46709 0.46215 0.0
C2365 C 0.45963 0.45781 0.49233 0.0
C2366 C 0.47543 0.46589 0.51322 0.0
H2367 H 0.01599 0.46765 0.96776 0.0
H2368 H 0.95675 0.47694 0.99053 0.0
H2369 H 0.96251 0.50734 0.98454 0.0
H2370 H 0.03224 0.50127 0.04159 0.0
H2371 H 0.05186 0.50623 0.00204 0.0
H2372 H 0.04292 0.4852 0.00403 0.0
H2373 H 0.03838 0.48571 0.90819 0.0
H2374 H 0.04724 0.50681 0.90593 0.0
H2375 H 0.02455 0.50207 0.88022 0.0
H2376 H 0.97465 0.53634 0.98077 0.0
H2377 H 0.99252 0.56258 0.98384 0.0
H2378 H 0.04428 0.53501 0.96382 0.0
C2379 C 0.00419 0.47608 0.97096 0.0
C2380 C 0.98587 0.46994 0.97941 0.0
C2381 C 0.97087 0.48136 0.98402 0.0
C2382 C 0.974 0.49863 0.98041 0.0
C2383 C 0.99221 0.50426 0.97218 0.0
C2384 C 0.00708 0.49336 0.96768 0.0
C2385 C 0.02543 0.50276 0.96194 0.0
C2386 C 0.0389 0.49862 0.00497 0.0
C2387 C 0.03443 0.49912 0.91104 0.0
C2388 C 0.01858 0.52068 0.96493 0.0
C2389 C 0.99932 0.52117 0.97026 0.0
C2390 C 0.9897 0.53613 0.97623 0.0
C2391 C 1e-05 0.55096 0.97801 0.0
C2392 C 0.01978 0.55082 0.97392 0.0
C2393 C 0.02916 0.5355 0.96621 0.0
H2394 H 0.48058 0.46658 0.03216 0.0
H2395 H 0.53205 0.46962 0.94652 0.0
H2396 H 0.52713 0.49991 0.93533 0.0
H2397 H 0.45444 0.49619 0.9584 0.0
H2398 H 0.44236 0.50518 0.01096 0.0
H2399 H 0.44993 0.4837 0.01307 0.0
H2400 H 0.46828 0.48969 0.09439 0.0
H2401 H 0.4608 0.5112 0.0925 0.0
H2402 H 0.48538 0.50626 0.09533 0.0
H2403 H 0.51704 0.52947 0.93337 0.0
H2404 H 0.50203 0.55697 0.93853 0.0
H2405 H 0.45648 0.5355 0.02477 0.0
C2406 C 0.49082 0.47363 0.01109 0.0
C2407 C 0.50675 0.46572 0.99024 0.0
C2408 C 0.51977 0.47538 0.96282 0.0
C2409 C 0.51711 0.4926 0.95631 0.0
C2410 C 0.50133 0.49999 0.97736 0.0
C2411 C 0.48835 0.49087 0.00407 0.0
C2412 C 0.4725 0.50199 0.02223 0.0
C2413 C 0.45369 0.49643 -0.00019 0.0
C2414 C 0.4717 0.5023 0.07952 0.0
C2415 C 0.47862 0.51878 0.00142 0.0
C2416 C 0.49533 0.51724 0.97586 0.0
C2417 C 0.50395 0.53084 0.95323 0.0
C2418 C 0.49525 0.54645 0.95648 0.0
C2419 C 0.47802 0.54846 0.98208 0.0
C2420 C 0.46963 0.53439 0.00499 0.0
H2421 H 0.04436 0.46754 0.54795 0.0
H2422 H 0.98979 0.44373 0.54472 0.0
H2423 H 0.97456 0.47121 0.54935 0.0
H2424 H 0.03057 0.50274 0.63298 0.0
H2425 H 0.04491 0.51764 0.59999 0.0
H2426 H 0.05176 0.49596 0.60266 0.0
H2427 H 0.05322 0.4951 0.50619 0.0
H2428 H 0.04617 0.51668 0.50318 0.0
H2429 H 0.03287 0.50097 0.47051 0.0
H2430 H 0.965 0.50086 0.54302 0.0
H2431 H 0.96177 0.53147 0.53368 0.0
H2432 H 0.02209 0.53679 0.54366 0.0
C2433 C 0.02924 0.46815 0.54978 0.0
C2434 C 0.01826 0.45349 0.54607 0.0
C2435 C 0.99849 0.45479 0.54741 0.0
C2436 C 0.98967 0.47036 0.55011 0.0
C2437 C 0.00078 0.4846 0.5518 0.0
C2438 C 0.02012 0.48372 0.55244 0.0
C2439 C 0.0286 0.50113 0.55152 0.0
C2440 C 0.03961 0.50457 0.59966 0.0
C2441 C 0.04094 0.50361 0.50509 0.0
C2442 C 0.01102 0.51178 0.54885 0.0
C2443 C 0.99515 0.50195 0.54915 0.0
C2444 C 0.9773 0.50876 0.54368 0.0
C2445 C 0.9756 0.52613 0.53809 0.0
C2446 C 0.99163 0.53649 0.53837 0.0
C2447 C 0.00955 0.52919 0.54409 0.0
H2448 H 0.04149 0.12785 0.11157 0.0
H2449 H 0.07994 0.10557 0.00605 0.0
H2450 H 0.1062 0.12117 0.04535 0.0
H2451 H 0.0587 0.16692 0.10586 0.0
H2452 H 0.05528 0.17215 0.1706 0.0
H2453 H 0.04073 0.15662 0.14175 0.0
H2454 H 0.0502 0.13498 0.20907 0.0
H2455 H 0.06466 0.15053 0.23874 0.0
H2456 H 0.07461 0.13076 0.22032 0.0
H2457 H 0.12704 0.14314 0.08824 0.0
H2458 H 0.14003 0.16829 0.12976 0.0
H2459 H 0.08701 0.17582 0.20516 0.0
C2460 C 0.05557 0.12582 0.09781 0.0
C2461 C 0.0588 0.11548 0.05611 0.0
C2462 C 0.07728 0.11324 0.03856 0.0
C2463 C 0.09222 0.12211 0.06058 0.0
C2464 C 0.08837 0.13288 0.10044 0.0
C2465 C 0.07044 0.13449 0.11928 0.0
C2466 C 0.06927 0.14806 0.15836 0.0
C2467 C 0.05518 0.16174 0.14319 0.0
C2468 C 0.0644 0.14063 0.20966 0.0
C2469 C 0.08913 0.15448 0.15712 0.0
C2470 C 0.10012 0.14544 0.12433 0.0
C2471 C 0.11862 0.15006 0.11464 0.0
C2472 C 0.12589 0.16438 0.13839 0.0
C2473 C 0.11456 0.17406 0.17078 0.0
C2474 C 0.09611 0.16871 0.18083 0.0
H2475 H 0.09442 0.83783 0.28061 0.0
H2476 H 0.1452 0.83714 0.3689 0.0
H2477 H 0.13386 0.86163 0.41657 0.0
H2478 H 0.08761 0.8849 0.28183 0.0
H2479 H 0.0626 0.88236 0.28572 0.0
H2480 H 0.0765 0.86724 0.25234 0.0
H2481 H 0.06262 0.8435 0.3068 0.0
H2482 H 0.04875 0.85847 0.34007 0.0
H2483 H 0.0644 0.84487 0.37376 0.0
H2484 H 0.11387 0.8823 0.46549 0.0
H2485 H 0.08766 0.89694 0.50816 0.0
H2486 H 0.05115 0.88473 0.38478 0.0
C2487 C 0.10345 0.84316 0.30885 0.0
C2488 C 0.12069 0.83561 0.32098 0.0
C2489 C 0.13201 0.84285 0.3586 0.0
C2490 C 0.12568 0.85677 0.38586 0.0
C2491 C 0.10822 0.86355 0.37416 0.0
C2492 C 0.09746 0.85712 0.33575 0.0
C2493 C 0.07842 0.8653 0.33362 0.0
C2494 C 0.07616 0.87556 0.28552 0.0
C2495 C 0.06264 0.85226 0.33893 0.0
C2496 C 0.07965 0.87654 0.37876 0.0
C2497 C 0.09701 0.8757 0.40136 0.0
C2498 C 0.10043 0.88347 0.44726 0.0
C2499 C 0.08556 0.89182 0.4712 0.0
C2500 C 0.06762 0.89211 0.44913 0.0
C2501 C 0.06492 0.88494 0.40171 0.0
H2502 H 0.39589 0.81698 0.60306 0.0
H2503 H 0.3746 0.84888 0.72027 0.0
H2504 H 0.3881 0.87372 0.67743 0.0
H2505 H 0.43814 0.83543 0.58938 0.0
H2506 H 0.43961 0.83315 0.52262 0.0
H2507 H 0.42558 0.81889 0.55826 0.0
H2508 H 0.39671 0.8263 0.50397 0.0
H2509 H 0.41072 0.84073 0.46823 0.0
H2510 H 0.38954 0.84782 0.49795 0.0
H2511 H 0.40908 0.89389 0.62904 0.0
H2512 H 0.43494 0.90692 0.58151 0.0
H2513 H 0.44 0.86184 0.49271 0.0
C2514 C 0.39365 0.8293 0.61881 0.0
C2515 C 0.38423 0.8312 0.6645 0.0
C2516 C 0.38165 0.84734 0.68481 0.0
C2517 C 0.38923 0.86145 0.66068 0.0
C2518 C 0.39887 0.85913 0.61583 0.0
C2519 C 0.40077 0.84342 0.59479 0.0
C2520 C 0.41308 0.84381 0.54905 0.0
C2521 C 0.4301 0.83214 0.55526 0.0
C2522 C 0.40183 0.83941 0.50202 0.0
C2523 C 0.41877 0.86201 0.54904 0.0
C2524 C 0.41028 0.87079 0.58727 0.0
C2525 C 0.41539 0.88726 0.59815 0.0
C2526 C 0.43005 0.89463 0.57073 0.0
C2527 C 0.43947 0.88544 0.53318 0.0
C2528 C 0.43298 0.86928 0.52079 0.0
H2529 H 0.44432 0.13864 0.99092 0.0
H2530 H 0.4214 0.0913 0.9407 0.0
H2531 H 0.39637 0.10651 0.89588 0.0
H2532 H 0.39935 0.16276 -0.00182 0.0
H2533 H 0.41076 0.18126 0.97462 0.0
H2534 H 0.42365 0.16654 0.01219 0.0
H2535 H 0.44843 0.16405 0.942 0.0
H2536 H 0.43551 0.17844 0.90388 0.0
H2537 H 0.44113 0.15794 0.88027 0.0
H2538 H 0.37661 0.12751 0.84587 0.0
H2539 H 0.3649 0.15176 0.79665 0.0
H2540 H 0.40307 0.18434 0.87595 0.0
C2541 C 0.4337 0.13136 0.97198 0.0
C2542 C 0.43485 0.11375 0.96952 0.0
C2543 C 0.42073 0.10479 0.94371 0.0
C2544 C 0.40647 0.11335 0.91796 0.0
C2545 C 0.40648 0.13081 0.91872 0.0
C2546 C 0.41969 0.13966 0.94566 0.0
C2547 C 0.41848 0.15822 0.93564 0.0
C2548 C 0.41271 0.16775 0.98297 0.0
C2549 C 0.43698 0.16504 0.91416 0.0
C2550 C 0.40308 0.15845 0.89721 0.0
C2551 C 0.39591 0.14265 0.88863 0.0
C2552 C 0.38201 0.13993 0.85281 0.0
C2553 C 0.37548 0.1537 0.82498 0.0
C2554 C 0.38328 0.16977 0.83237 0.0
C2555 C 0.39702 0.17211 0.86935 0.0
H2556 H 0.87542 0.80607 0.85604 0.0
H2557 H 0.82548 0.83627 0.87476 0.0
H2558 H 0.84451 0.85873 0.91277 0.0
H2559 H 0.89553 0.81646 0.97201 0.0
H2560 H 0.9193 0.81668 0.94957 0.0
H2561 H 0.90212 0.80366 0.91956 0.0
H2562 H 0.90927 0.81774 0.83454 0.0
H2563 H 0.92666 0.83066 0.86418 0.0
H2564 H 0.90796 0.84019 0.82919 0.0
H2565 H 0.8691 0.87763 0.95116 0.0
H2566 H 0.89719 0.89123 0.98688 0.0
H2567 H 0.93036 0.84778 0.94662 0.0
C2568 C 0.86855 0.81756 0.86709 0.0
C2569 C 0.84901 0.81951 0.86192 0.0
C2570 C 0.84046 0.83455 0.87814 0.0
C2571 C 0.85114 0.84737 0.89979 0.0
C2572 C 0.87032 0.84489 0.9054 0.0
C2573 C 0.87893 0.83035 0.88948 0.0
C2574 C 0.89955 0.83037 0.90225 0.0
C2575 C 0.9044 0.81594 0.93797 0.0
C2576 C 0.91157 0.8297 0.85471 0.0
C2577 C 0.90119 0.84715 0.92793 0.0
C2578 C 0.88424 0.85542 0.9291 0.0
C2579 C 0.88245 0.87125 0.9505 0.0
C2580 C 0.89846 0.87886 0.97078 0.0
C2581 C 0.91596 0.87054 0.97001 0.0
C2582 C 0.91718 0.85443 0.9485 0.0
H2583 H 0.92972 0.15648 0.55074 0.0
H2584 H 0.89964 0.10944 0.53882 0.0
H2585 H 0.87274 0.12204 0.58275 0.0
H2586 H 0.91363 0.16712 0.67372 0.0
H2587 H 0.91195 0.18917 0.66051 0.0
H2588 H 0.92883 0.1765 0.62795 0.0
H2589 H 0.91511 0.18602 0.54302 0.0
H2590 H 0.89839 0.1989 0.57531 0.0
H2591 H 0.89045 0.18344 0.53123 0.0
H2592 H 0.84871 0.14015 0.62567 0.0
H2593 H 0.82918 0.16257 0.66191 0.0
H2594 H 0.87564 0.19724 0.64873 0.0
C2595 C 0.91746 0.14881 0.557 0.0
C2596 C 0.91681 0.13195 0.54107 0.0
C2597 C 0.9005 0.12237 0.55056 0.0
C2598 C 0.88517 0.1294 0.57566 0.0
C2599 C 0.88641 0.14598 0.59141 0.0
C2600 C 0.90214 0.15555 0.58236 0.0
C2601 C 0.89992 0.1731 0.60273 0.0
C2602 C 0.91445 0.17667 0.64366 0.0
C2603 C 0.90103 0.18613 0.56056 0.0
C2604 C 0.88038 0.17198 0.62418 0.0
C2605 C 0.87283 0.15623 0.61736 0.0
C2606 C 0.85456 0.15248 0.63166 0.0
C2607 C 0.84358 0.16527 0.65229 0.0
C2608 C 0.85096 0.18158 0.65875 0.0
C2609 C 0.86974 0.18481 0.64544 0.0
H2610 H 0.61938 0.19279 0.32821 0.0
H2611 H 0.67126 0.16579 0.35225 0.0
H2612 H 0.65371 0.1428 0.39217 0.0
H2613 H 0.59925 0.18279 0.44394 0.0
H2614 H 0.57571 0.18075 0.42065 0.0
H2615 H 0.59203 0.19435 0.3895 0.0
H2616 H 0.58657 0.17858 0.30628 0.0
H2617 H 0.57002 0.16507 0.33703 0.0
H2618 H 0.58964 0.15622 0.30414 0.0
H2619 H 0.63053 0.12333 0.43366 0.0
H2620 H 0.60344 0.10878 0.47135 0.0
H2621 H 0.56718 0.14917 0.4222 0.0
C2622 C 0.627 0.18187 0.34077 0.0
C2623 C 0.64667 0.18104 0.33675 0.0
C2624 C 0.65617 0.16669 0.35482 0.0
C2625 C 0.64634 0.15356 0.37757 0.0
C2626 C 0.627 0.15498 0.3822 0.0
C2627 C 0.61743 0.16874 0.36409 0.0
C2628 C 0.59678 0.16763 0.37606 0.0
C2629 C 0.59059 0.18225 0.40953 0.0
C2630 C 0.58506 0.16682 0.32802 0.0
C2631 C 0.59628 0.15118 0.40401 0.0
C2632 C 0.61379 0.14401 0.40698 0.0
C2633 C 0.61672 0.12881 0.43139 0.0
C2634 C 0.60125 0.12066 0.45284 0.0
C2635 C 0.58314 0.12779 0.45001 0.0
C2636 C 0.58079 0.14333 0.4254 0.0
H2637 H 0.57375 0.85784 0.10857 0.0
H2638 H 0.60499 0.88589 -0.00177 0.0
H2639 H 0.63451 0.8733 0.02997 0.0
H2640 H 0.61022 0.85826 0.20946 0.0
H2641 H 0.6041 0.83729 0.22796 0.0
H2642 H 0.58645 0.85105 0.20296 0.0
H2643 H 0.57843 0.82894 0.1356 0.0
H2644 H 0.59608 0.81522 0.15996 0.0
H2645 H 0.5967 0.8213 0.09524 0.0
H2646 H 0.65949 0.85382 0.06487 0.0
H2647 H 0.67745 0.8301 0.09908 0.0
H2648 H 0.62913 0.81508 0.18638 0.0
C2649 C 0.58688 0.8617 0.09194 0.0
C2650 C 0.5872 0.8728 0.051 0.0
C2651 C 0.60455 0.87753 0.02999 0.0
C2652 C 0.62131 0.87041 0.0478 0.0
C2653 C 0.62037 0.85891 0.08709 0.0
C2654 C 0.60355 0.85481 0.10931 0.0
C2655 C 0.60574 0.84093 0.14718 0.0
C2656 C 0.60137 0.84727 0.20003 0.0
C2657 C 0.59352 0.82571 0.13364 0.0
C2658 C 0.62631 0.83714 0.1412 0.0
C2659 C 0.63464 0.8478 0.10709 0.0
C2660 C 0.65317 0.84564 0.09231 0.0
C2661 C 0.66325 0.83207 0.11191 0.0
C2662 C 0.65474 0.82067 0.14562 0.0
C2663 C 0.63619 0.82364 0.16134 0.0
H2664 H 0.53551 0.62948 0.59456 0.0
H2665 H 0.5755 0.60502 0.4978 0.0
H2666 H 0.60136 0.6203 0.54002 0.0
H2667 H 0.55399 0.66785 0.58817 0.0
H2668 H 0.54937 0.67393 0.65171 0.0
H2669 H 0.53498 0.65842 0.62228 0.0
H2670 H 0.54232 0.63732 0.69296 0.0
H2671 H 0.55656 0.6529 0.7233 0.0
H2672 H 0.56631 0.63272 0.70845 0.0
H2673 H 0.62186 0.64217 0.58379 0.0
H2674 H 0.63471 0.66752 0.62443 0.0
H2675 H 0.58038 0.67734 0.69029 0.0
C2676 C 0.5498 0.6269 0.58346 0.0
C2677 C 0.55365 0.61606 0.54333 0.0
C2678 C 0.57239 0.6131 0.52912 0.0
C2679 C 0.5871 0.62177 0.55281 0.0
C2680 C 0.5827 0.63304 0.59097 0.0
C2681 C 0.56445 0.63535 0.60664 0.0
C2682 C 0.56284 0.64939 0.64407 0.0
C2683 C 0.54952 0.6632 0.62539 0.0
C2684 C 0.55665 0.64267 0.69523 0.0
C2685 C 0.58288 0.65532 0.64525 0.0
C2686 C 0.59429 0.64559 0.61535 0.0
C2687 C 0.6131 0.64964 0.60801 0.0
C2688 C 0.62028 0.66408 0.63118 0.0
C2689 C 0.60856 0.67445 0.66055 0.0
C2690 C 0.58976 0.66969 0.66828 0.0
H2691 H 0.52889 0.35772 0.92378 0.0
H2692 H 0.5702 0.39468 0.96744 0.0
H2693 H 0.59458 0.37882 0.92162 0.0
H2694 H 0.55707 0.32207 0.93547 0.0
H2695 H 0.54743 0.31163 0.88173 0.0
H2696 H 0.53342 0.32638 0.9159 0.0
H2697 H 0.52775 0.34333 0.83477 0.0
H2698 H 0.54178 0.32862 0.8003 0.0
H2699 H 0.54749 0.35058 0.79894 0.0
H2700 H 0.61477 0.35737 0.87544 0.0
H2701 H 0.62856 0.33309 0.83163 0.0
H2702 H 0.57316 0.31135 0.81651 0.0
C2703 C 0.54306 0.36253 0.92373 0.0
C2704 C 0.54771 0.37734 0.94955 0.0
C2705 C 0.56635 0.38334 0.94789 0.0
C2706 C 0.58026 0.37442 0.92198 0.0
C2707 C 0.57518 0.35974 0.89725 0.0
C2708 C 0.55695 0.35398 0.89755 0.0
C2709 C 0.55497 0.33785 0.86871 0.0
C2710 C 0.54781 0.32365 0.90248 0.0
C2711 C 0.54225 0.34025 0.82297 0.0
C2712 C 0.57507 0.33506 0.85337 0.0
C2713 C 0.58656 0.34782 0.86983 0.0
C2714 C 0.60585 0.34743 0.86191 0.0
C2715 C 0.61356 0.33356 0.83703 0.0
C2716 C 0.60199 0.32027 0.82036 0.0
C2717 C 0.58247 0.32129 0.82823 0.0
H2718 H 0.91049 0.32887 0.21111 0.0
H2719 H 0.8576 0.33681 0.13561 0.0
H2720 H 0.87102 0.36139 0.09233 0.0
H2721 H 0.92518 0.37423 0.21937 0.0
H2722 H 0.94921 0.36859 0.20778 0.0
H2723 H 0.93407 0.35441 0.24099 0.0
H2724 H 0.94188 0.33114 0.17704 0.0
H2725 H 0.95675 0.34524 0.14328 0.0
H2726 H 0.93777 0.33488 0.11163 0.0
H2727 H 0.89228 0.38204 0.04616 0.0
H2728 H 0.91881 0.39653 0.00434 0.0
H2729 H 0.95718 0.37392 0.10979 0.0
C2730 C 0.90149 0.33611 0.18682 0.0
C2731 C 0.883 0.33094 0.1768 0.0
C2732 C 0.87175 0.34066 0.14434 0.0
C2733 C 0.87929 0.35463 0.11948 0.0
C2734 C 0.89797 0.35883 0.12816 0.0
C2735 C 0.90879 0.34996 0.16185 0.0
C2736 C 0.92899 0.35547 0.16051 0.0
C2737 C 0.93469 0.36367 0.2101 0.0
C2738 C 0.94209 0.34082 0.1473 0.0
C2739 C 0.92811 0.36818 0.11897 0.0
C2740 C 0.91011 0.37032 0.10128 0.0
C2741 C 0.90637 0.38066 0.06037 0.0
C2742 C 0.92146 0.38881 0.03676 0.0
C2743 C 0.93998 0.38618 0.05362 0.0
C2744 C 0.94315 0.37605 0.09584 0.0
H2745 H 0.97019 0.64181 0.4169 0.0
H2746 H 0.93155 0.60669 0.48512 0.0
H2747 H 0.90501 0.62177 0.44604 0.0
H2748 H 0.94351 0.67781 0.43421 0.0
H2749 H 0.95 0.68721 0.3756 0.0
H2750 H 0.96567 0.67282 0.40577 0.0
H2751 H 0.96636 0.65448 0.32604 0.0
H2752 H 0.95064 0.66883 0.29555 0.0
H2753 H 0.94469 0.64697 0.29994 0.0
H2754 H 0.88265 0.64237 0.40389 0.0
H2755 H 0.86674 0.66619 0.36307 0.0
H2756 H 0.92079 0.68693 0.32237 0.0
C2757 C 0.95617 0.63716 0.42357 0.0
C2758 C 0.95294 0.62311 0.45437 0.0
C2759 C 0.93436 0.61742 0.46161 0.0
C2760 C 0.91922 0.62589 0.43953 0.0
C2761 C 0.92297 0.63986 0.40985 0.0
C2762 C 0.94104 0.64532 0.40164 0.0
C2763 C 0.94151 0.66093 0.36989 0.0
C2764 C 0.95071 0.67555 0.39807 0.0
C2765 C 0.95138 0.65759 0.3199 0.0
C2766 C 0.9208 0.66377 0.36263 0.0
C2767 C 0.91028 0.65144 0.38545 0.0
C2768 C 0.89078 0.65197 0.38547 0.0
C2769 C 0.88187 0.66557 0.36216 0.0
C2770 C 0.89247 0.67849 0.33942 0.0
C2771 C 0.91219 0.6773 0.33915 0.0
H2772 H 0.35234 0.32366 0.38705 0.0
H2773 H 0.38695 0.30526 0.26569 0.0
H2774 H 0.41181 0.32499 0.28964 0.0
H2775 H 0.36779 0.36788 0.38017 0.0
H2776 H 0.36746 0.37038 0.44697 0.0
H2777 H 0.35148 0.35604 0.41738 0.0
H2778 H 0.36369 0.33208 0.47366 0.0
H2779 H 0.37974 0.34629 0.50326 0.0
H2780 H 0.38837 0.32743 0.47459 0.0
H2781 H 0.43408 0.34421 0.33112 0.0
H2782 H 0.45233 0.36249 0.38707 0.0
H2783 H 0.40358 0.36944 0.48094 0.0
C2784 C 0.36498 0.32401 0.36484 0.0
C2785 C 0.36761 0.31287 0.32432 0.0
C2786 C 0.38454 0.3136 0.29684 0.0
C2787 C 0.39875 0.32482 0.31006 0.0
C2788 C 0.39586 0.33534 0.35071 0.0
C2789 C 0.37938 0.33515 0.37758 0.0
C2790 C 0.38038 0.34708 0.42158 0.0
C2791 C 0.36592 0.36118 0.41618 0.0
C2792 C 0.3779 0.33765 0.47119 0.0
C2793 C 0.40017 0.35369 0.41588 0.0
C2794 C 0.40876 0.34677 0.3745 0.0
C2795 C 0.42743 0.34991 0.36313 0.0
C2796 C 0.43768 0.36025 0.39513 0.0
C2797 C 0.42924 0.36745 0.43774 0.0
C2798 C 0.41017 0.36435 0.44792 0.0
H2799 H 0.35463 0.68802 0.08067 0.0
H2800 H 0.36616 0.6763 0.23538 0.0
H2801 H 0.38486 0.65167 0.20872 0.0
H2802 H 0.35266 0.64543 0.03156 0.0
H2803 H 0.36475 0.65094 0.97488 0.0
H2804 H 0.35047 0.66624 0.0063 0.0
H2805 H 0.37868 0.68657 0.01086 0.0
H2806 H 0.3929 0.67147 0.9788 0.0
H2807 H 0.40029 0.67952 0.03841 0.0
H2808 H 0.40293 0.62875 0.16417 0.0
H2809 H 0.42347 0.61287 0.10677 0.0
H2810 H 0.40198 0.64137 0.98198 0.0
C2811 C 0.3609 0.6801 0.1089 0.0
C2812 C 0.35882 0.68379 0.16001 0.0
C2813 C 0.3676 0.67353 0.19602 0.0
C2814 C 0.37805 0.65948 0.1812 0.0
C2815 C 0.37975 0.6561 0.13029 0.0
C2816 C 0.37171 0.66635 0.09472 0.0
C2817 C 0.37737 0.66128 0.04252 0.0
C2818 C 0.36029 0.65563 0.01203 0.0
C2819 C 0.38794 0.67555 0.01613 0.0
C2820 C 0.39013 0.6467 0.05409 0.0
C2821 C 0.3909 0.64357 0.10481 0.0
C2822 C 0.40229 0.63101 0.12441 0.0
C2823 C 0.41374 0.62193 0.09156 0.0
C2824 C 0.41395 0.62574 0.04005 0.0
C2825 C 0.40171 0.638 0.02107 0.0
H2826 H 0.09704 0.64444 0.01136 0.0
H2827 H 0.08262 0.61162 0.88878 0.0
H2828 H 0.10325 0.62793 0.83276 0.0
H2829 H 0.09676 0.68116 0.94761 0.0
H2830 H 0.11661 0.69063 0.97799 0.0
H2831 H 0.10302 0.67507 0.01017 0.0
H2832 H 0.13265 0.65703 0.02444 0.0
H2833 H 0.14647 0.67277 0.99345 0.0
H2834 H 0.14712 0.65142 0.972 0.0
H2835 H 0.12073 0.65113 0.78744 0.0
H2836 H 0.13862 0.67617 0.75998 0.0
H2837 H 0.14345 0.69224 0.91365 0.0
C2838 C 0.09889 0.64028 0.97326 0.0
C2839 C 0.08854 0.62665 0.95445 0.0
C2840 C 0.09085 0.62177 0.9041 0.0
C2841 C 0.10236 0.63108 0.87193 0.0
C2842 C 0.11175 0.64496 0.89113 0.0
C2843 C 0.11062 0.64919 0.94107 0.0
C2844 C 0.12151 0.66499 0.95216 0.0
C2845 C 0.1087 0.67877 0.97321 0.0
C2846 C 0.13792 0.66133 0.9876 0.0
C2847 C 0.12836 0.66935 0.90042 0.0
C2848 C 0.12249 0.65776 0.86552 0.0
C2849 C 0.1258 0.66004 0.81461 0.0
C2850 C 0.13576 0.67433 0.79927 0.0
C2851 C 0.14243 0.68591 0.83486 0.0
C2852 C 0.13867 0.68337 0.8859 0.0
H2853 H 0.06636 0.34984 0.56309 0.0
H2854 H 0.09927 0.39412 0.53022 0.0
H2855 H 0.12695 0.38066 0.5694 0.0
H2856 H 0.08664 0.34155 0.68321 0.0
H2857 H 0.0855 0.31918 0.67562 0.0
H2858 H 0.0686 0.33238 0.64505 0.0
H2859 H 0.07735 0.3194 0.55956 0.0
H2860 H 0.09413 0.30606 0.58987 0.0
H2861 H 0.10144 0.31954 0.53961 0.0
H2862 H 0.15136 0.36118 0.60818 0.0
H2863 H 0.17 0.33811 0.6444 0.0
H2864 H 0.11992 0.30772 0.65571 0.0
C2865 C 0.0794 0.35674 0.56362 0.0
C2866 C 0.08074 0.37296 0.54287 0.0
C2867 C 0.09797 0.38164 0.54557 0.0
C2868 C 0.11371 0.3741 0.56783 0.0
C2869 C 0.11181 0.35805 0.58792 0.0
C2870 C 0.09501 0.34957 0.58623 0.0
C2871 C 0.09637 0.33252 0.61044 0.0
C2872 C 0.08352 0.33135 0.6563 0.0
C2873 C 0.09208 0.31856 0.57261 0.0
C2874 C 0.11674 0.3325 0.6254 0.0
C2875 C 0.12547 0.3473 0.61206 0.0
C2876 C 0.14459 0.34967 0.61935 0.0
C2877 C 0.15505 0.3365 0.63994 0.0
C2878 C 0.14634 0.32122 0.65351 0.0
C2879 C 0.12688 0.31938 0.64688 0.0
loop_
_geom_bond_atom_site_label_1
_geom_bond_atom_site_label_2
_geom_bond_distance
_geom_bond_site_symmetry_2
_ccdc_geom_bond_type
Mn0 O5 2.094 1_455 S
Mn0 O15 2.162 . S
Mn0 O16 2.297 1_455 S
Mn0 O24 2.385 1_554 S
Mn0 O25 2.209 1_455 S
Mn0 O26 2.094 . S
Mn1 O6 2.121 . S
Mn1 N8 2.257 . S
Mn1 N17 2.282 . S
Mn1 O25 2.215 . S
Mn1 O27 2.117 1_655 S
C2 O24 1.234 1_655 S
C2 O25 1.283 1_556 S
C3 O15 1.281 . S
C3 O16 1.236 1_455 S
C4 O26 1.240 . S
C4 O27 1.264 . S
O5 Mn0 2.094 1_655 S
O5 C14 1.253 . S
O6 Mn1 2.121 . S
O6 C14 1.258 . S
C7 N8 1.326 . S
C7 C11 1.460 . S
C7 H13 0.929 . S
N8 Mn1 2.257 . S
N8 C7 1.326 . S
N8 C12 1.362 . S
C9 C10 1.258 1_556 S
C9 C12 1.431 1_556 S
C9 C29 1.449 . S
C10 C9 1.258 1_554 S
C10 C11 1.477 . S
C10 H30 0.931 . S
C11 C7 1.460 . S
C11 C10 1.477 . S
C11 H31 0.930 . S
C12 N8 1.362 . S
C12 C9 1.431 1_554 S
C12 C22 1.476 1_554 S
H13 C7 0.929 . S
C14 O5 1.253 . S
C14 O6 1.258 . S
O15 Mn0 2.162 . S
O15 C3 1.281 . S
O16 Mn0 2.297 1_655 S
O16 C3 1.236 1_655 S
N17 Mn1 2.282 . S
N17 C18 1.328 1_654 S
N17 C22 1.318 1_554 S
C18 N17 1.328 1_456 S
C18 C19 1.457 . S
C18 H23 0.929 . S
C19 C18 1.457 . S
C19 C20 1.291 1_455 S
C19 H32 0.931 . S
C20 C19 1.291 1_655 S
C20 C21 1.373 . S
C20 H33 0.929 . S
C21 C20 1.373 . S
C21 C22 1.396 . S
C21 C28 1.403 . S
C22 C12 1.476 1_556 S
C22 N17 1.318 1_556 S
C22 C21 1.396 . S
H23 C18 0.929 . S
O24 Mn0 2.385 1_556 S
O24 C2 1.234 1_455 S
O25 Mn0 2.209 1_655 S
O25 Mn1 2.215 . S
O25 C2 1.283 1_554 S
O26 Mn0 2.094 . S
O26 C4 1.240 . S
O27 Mn1 2.117 1_455 S
O27 C4 1.264 . S
C28 C21 1.403 . S
C28 C29 1.399 . S
C28 H34 0.929 . S
C29 C9 1.449 . S
C29 C28 1.399 . S
C29 H35 0.930 . S
H30 C10 0.931 . S
H31 C11 0.930 . S
H32 C19 0.931 . S
H33 C20 0.929 . S
H34 C28 0.929 . S
H35 C29 0.930 . S
Mn36 O41 2.095 . S
Mn36 O51 2.162 . S
Mn36 O52 2.297 . S
Mn36 O60 2.385 . S
Mn36 O61 2.209 . S
Mn36 O62 2.094 . S
Mn37 O42 2.121 . S
Mn37 N44 2.257 . S
Mn37 N53 2.282 . S
Mn37 O61 2.215 . S
Mn37 O63 2.117 . S
C38 O60 1.234 . S
C38 O61 1.283 . S
C39 O51 1.281 . S
C39 O52 1.236 . S
C40 O62 1.240 . S
C40 O63 1.264 . S
O41 Mn36 2.095 . S
O41 C50 1.250 . S
O42 Mn37 2.121 . S
O42 C50 1.258 . S
C43 N44 1.326 . S
C43 C47 1.460 . S
C43 H49 0.929 . S
N44 Mn37 2.257 . S
N44 C43 1.326 . S
N44 C48 1.362 . S
C45 C46 1.258 . S
C45 C48 1.431 . S
C45 C65 1.449 . S
C46 C45 1.258 . S
C46 C47 1.477 . S
C46 H66 0.931 . S
C47 C43 1.460 . S
C47 C46 1.477 . S
C47 H67 0.930 . S
C48 N44 1.362 . S
C48 C45 1.431 . S
C48 C58 1.476 . S
H49 C43 0.929 . S
C50 O41 1.250 . S
C50 O42 1.258 . S
O51 Mn36 2.162 . S
O51 C39 1.281 . S
O52 Mn36 2.297 . S
O52 C39 1.236 . S
N53 Mn37 2.282 . S
N53 C54 1.328 . S
N53 C58 1.318 . S
C54 N53 1.328 . S
C54 C55 1.457 . S
C54 H59 0.929 . S
C55 C54 1.457 . S
C55 C56 1.291 . S
C55 H68 0.931 . S
C56 C55 1.291 . S
C56 C57 1.373 . S
C56 H69 0.929 . S
C57 C56 1.373 . S
C57 C58 1.396 . S
C57 C64 1.403 . S
C58 C48 1.476 . S
C58 N53 1.318 . S
C58 C57 1.396 . S
H59 C54 0.929 . S
O60 Mn36 2.385 . S
O60 C38 1.234 . S
O61 Mn36 2.209 . S
O61 Mn37 2.215 . S
O61 C38 1.283 . S
O62 Mn36 2.094 . S
O62 C40 1.240 . S
O63 Mn37 2.117 . S
O63 C40 1.264 . S
C64 C57 1.403 . S
C64 C65 1.399 . S
C64 H70 0.929 . S
C65 C45 1.449 . S
C65 C64 1.399 . S
C65 H71 0.930 . S
H66 C46 0.931 . S
H67 C47 0.930 . S
H68 C55 0.931 . S
H69 C56 0.929 . S
H70 C64 0.929 . S
H71 C65 0.930 . S
Mn72 O77 2.095 . S
Mn72 O87 2.162 . S
Mn72 O88 2.297 . S
Mn72 O96 2.385 . S
Mn72 O97 2.209 . S
Mn72 O98 2.094 . S
Mn73 O78 2.121 . S
Mn73 N80 2.257 . S
Mn73 N89 2.282 . S
Mn73 O97 2.215 . S
Mn73 O99 2.117 . S
C74 O96 1.234 . S
C74 O97 1.283 . S
C75 O87 1.281 . S
C75 O88 1.236 . S
C76 O98 1.240 . S
C76 O99 1.264 . S
O77 Mn72 2.095 . S
O77 C86 1.250 . S
O78 Mn73 2.121 . S
O78 C86 1.258 . S
C79 N80 1.326 . S
C79 C83 1.460 . S
C79 H85 0.929 . S
N80 Mn73 2.257 . S
N80 C79 1.326 . S
N80 C84 1.362 . S
C81 C82 1.258 . S
C81 C84 1.431 . S
C81 C101 1.449 . S
C82 C81 1.258 . S
C82 C83 1.477 . S
C82 H102 0.931 . S
C83 C79 1.460 . S
C83 C82 1.477 . S
C83 H103 0.930 . S
C84 N80 1.362 . S
C84 C81 1.431 . S
C84 C94 1.476 . S
H85 C79 0.929 . S
C86 O77 1.250 . S
C86 O78 1.258 . S
O87 Mn72 2.162 . S
O87 C75 1.281 . S
O88 Mn72 2.297 . S
O88 C75 1.236 . S
N89 Mn73 2.282 . S
N89 C90 1.328 . S
N89 C94 1.318 . S
C90 N89 1.328 . S
C90 C91 1.457 . S
C90 H95 0.929 . S
C91 C90 1.457 . S
C91 C92 1.291 . S
C91 H104 0.931 . S
C92 C91 1.291 . S
C92 C93 1.373 . S
C92 H105 0.929 . S
C93 C92 1.373 . S
C93 C94 1.396 . S
C93 C100 1.403 . S
C94 C84 1.476 . S
C94 N89 1.318 . S
C94 C93 1.396 . S
H95 C90 0.929 . S
O96 Mn72 2.385 . S
O96 C74 1.234 . S
O97 Mn72 2.209 . S
O97 Mn73 2.215 . S
O97 C74 1.283 . S
O98 Mn72 2.094 . S
O98 C76 1.240 . S
O99 Mn73 2.117 . S
O99 C76 1.264 . S
C100 C93 1.403 . S
C100 C101 1.399 . S
C100 H106 0.929 . S
C101 C81 1.449 . S
C101 C100 1.399 . S
C101 H107 0.930 . S
H102 C82 0.931 . S
H103 C83 0.930 . S
H104 C91 0.931 . S
H105 C92 0.929 . S
H106 C100 0.929 . S
H107 C101 0.930 . S
Mn108 O113 2.095 . S
Mn108 O123 2.162 . S
Mn108 O124 2.297 . S
Mn108 O132 2.385 . S
Mn108 O133 2.209 . S
Mn108 O134 2.094 . S
Mn109 O114 2.121 . S
Mn109 N116 2.257 . S
Mn109 N125 2.282 . S
Mn109 O133 2.215 . S
Mn109 O135 2.117 . S
C110 O132 1.234 . S
C110 O133 1.283 . S
C111 O123 1.281 . S
C111 O124 1.236 . S
C112 O134 1.240 . S
C112 O135 1.264 . S
O113 Mn108 2.095 . S
O113 C122 1.250 . S
O114 Mn109 2.121 . S
O114 C122 1.258 . S
C115 N116 1.326 . S
C115 C119 1.460 . S
C115 H121 0.929 . S
N116 Mn109 2.257 . S
N116 C115 1.326 . S
N116 C120 1.362 . S
C117 C118 1.258 . S
C117 C120 1.431 . S
C117 C137 1.449 . S
C118 C117 1.258 . S
C118 C119 1.477 . S
C118 H138 0.931 . S
C119 C115 1.460 . S
C119 C118 1.477 . S
C119 H139 0.930 . S
C120 N116 1.362 . S
C120 C117 1.431 . S
C120 C130 1.476 . S
H121 C115 0.929 . S
C122 O113 1.250 . S
C122 O114 1.258 . S
O123 Mn108 2.162 . S
O123 C111 1.281 . S
O124 Mn108 2.297 . S
O124 C111 1.236 . S
N125 Mn109 2.282 . S
N125 C126 1.328 . S
N125 C130 1.318 . S
C126 N125 1.328 . S
C126 C127 1.457 . S
C126 H131 0.929 . S
C127 C126 1.457 . S
C127 C128 1.291 . S
C127 H140 0.931 . S
C128 C127 1.291 . S
C128 C129 1.373 . S
C128 H141 0.929 . S
C129 C128 1.373 . S
C129 C130 1.396 . S
C129 C136 1.403 . S
C130 C120 1.476 . S
C130 N125 1.318 . S
C130 C129 1.396 . S
H131 C126 0.929 . S
O132 Mn108 2.385 . S
O132 C110 1.234 . S
O133 Mn108 2.209 . S
O133 Mn109 2.215 . S
O133 C110 1.283 . S
O134 Mn108 2.094 . S
O134 C112 1.240 . S
O135 Mn109 2.117 . S
O135 C112 1.264 . S
C136 C129 1.403 . S
C136 C137 1.399 . S
C136 H142 0.929 . S
C137 C117 1.449 . S
C137 C136 1.399 . S
C137 H143 0.930 . S
H138 C118 0.931 . S
H139 C119 0.930 . S
H140 C127 0.931 . S
H141 C128 0.929 . S
H142 C136 0.929 . S
H143 C137 0.930 . S
Mn144 O149 2.094 1_455 S
Mn144 O159 2.162 . S
Mn144 O160 2.297 1_455 S
Mn144 O168 2.385 . S
Mn144 O169 2.209 1_455 S
Mn144 O170 2.094 . S
Mn145 O150 2.121 . S
Mn145 N152 2.257 . S
Mn145 N161 2.282 . S
Mn145 O169 2.215 . S
Mn145 O171 2.117 1_655 S
C146 O168 1.234 1_655 S
C146 O169 1.283 . S
C147 O159 1.281 . S
C147 O160 1.236 1_455 S
C148 O170 1.240 . S
C148 O171 1.264 . S
O149 Mn144 2.094 1_655 S
O149 C158 1.254 . S
O150 Mn145 2.121 . S
O150 C158 1.258 . S
C151 N152 1.326 . S
C151 C155 1.460 . S
C151 H157 0.929 . S
N152 Mn145 2.257 . S
N152 C151 1.326 . S
N152 C156 1.362 . S
C153 C154 1.258 . S
C153 C156 1.431 . S
C153 C173 1.449 . S
C154 C153 1.258 . S
C154 C155 1.477 . S
C154 H174 0.931 . S
C155 C151 1.460 . S
C155 C154 1.477 . S
C155 H175 0.930 . S
C156 N152 1.362 . S
C156 C153 1.431 . S
C156 C166 1.476 . S
H157 C151 0.929 . S
C158 O149 1.254 . S
C158 O150 1.258 . S
O159 Mn144 2.162 . S
O159 C147 1.281 . S
O160 Mn144 2.297 1_655 S
O160 C147 1.236 1_655 S
N161 Mn145 2.282 . S
N161 C162 1.328 1_655 S
N161 C166 1.318 . S
C162 N161 1.328 1_455 S
C162 C163 1.457 . S
C162 H167 0.929 . S
C163 C162 1.457 . S
C163 C164 1.291 1_455 S
C163 H176 0.931 . S
C164 C163 1.291 1_655 S
C164 C165 1.373 . S
C164 H177 0.929 . S
C165 C164 1.373 . S
C165 C166 1.396 . S
C165 C172 1.403 . S
C166 C156 1.476 . S
C166 N161 1.318 . S
C166 C165 1.396 . S
H167 C162 0.929 . S
O168 Mn144 2.385 . S
O168 C146 1.234 1_455 S
O169 Mn144 2.209 1_655 S
O169 Mn145 2.215 . S
O169 C146 1.283 . S
O170 Mn144 2.094 . S
O170 C148 1.240 . S
O171 Mn145 2.117 1_455 S
O171 C148 1.264 . S
C172 C165 1.403 . S
C172 C173 1.399 . S
C172 H178 0.929 . S
C173 C153 1.449 . S
C173 C172 1.399 . S
C173 H179 0.930 . S
H174 C154 0.931 . S
H175 C155 0.930 . S
H176 C163 0.931 . S
H177 C164 0.929 . S
H178 C172 0.929 . S
H179 C173 0.930 . S
Mn180 O185 2.095 . S
Mn180 O195 2.162 . S
Mn180 O196 2.297 . S
Mn180 O204 2.385 . S
Mn180 O205 2.209 . S
Mn180 O206 2.094 . S
Mn181 O186 2.121 . S
Mn181 N188 2.257 . S
Mn181 N197 2.282 . S
Mn181 O205 2.215 . S
Mn181 O207 2.117 . S
C182 O204 1.234 . S
C182 O205 1.283 . S
C183 O195 1.281 . S
C183 O196 1.236 . S
C184 O206 1.240 . S
C184 O207 1.264 . S
O185 Mn180 2.095 . S
O185 C194 1.250 . S
O186 Mn181 2.121 . S
O186 C194 1.258 . S
C187 N188 1.326 . S
C187 C191 1.460 . S
C187 H193 0.929 . S
N188 Mn181 2.257 . S
N188 C187 1.326 . S
N188 C192 1.362 . S
C189 C190 1.258 . S
C189 C192 1.431 . S
C189 C209 1.449 . S
C190 C189 1.258 . S
C190 C191 1.477 . S
C190 H210 0.931 . S
C191 C187 1.460 . S
C191 C190 1.477 . S
C191 H211 0.930 . S
C192 N188 1.362 . S
C192 C189 1.431 . S
C192 C202 1.476 . S
H193 C187 0.929 . S
C194 O185 1.250 . S
C194 O186 1.258 . S
O195 Mn180 2.162 . S
O195 C183 1.281 . S
O196 Mn180 2.297 . S
O196 C183 1.236 . S
N197 Mn181 2.282 . S
N197 C198 1.328 . S
N197 C202 1.318 . S
C198 N197 1.328 . S
C198 C199 1.457 . S
C198 H203 0.929 . S
C199 C198 1.457 . S
C199 C200 1.291 . S
C199 H212 0.931 . S
C200 C199 1.291 . S
C200 C201 1.373 . S
C200 H213 0.929 . S
C201 C200 1.373 . S
C201 C202 1.396 . S
C201 C208 1.403 . S
C202 C192 1.476 . S
C202 N197 1.318 . S
C202 C201 1.396 . S
H203 C198 0.929 . S
O204 Mn180 2.385 . S
O204 C182 1.234 . S
O205 Mn180 2.209 . S
O205 Mn181 2.215 . S
O205 C182 1.283 . S
O206 Mn180 2.094 . S
O206 C184 1.240 . S
O207 Mn181 2.117 . S
O207 C184 1.264 . S
C208 C201 1.403 . S
C208 C209 1.399 . S
C208 H214 0.929 . S
C209 C189 1.449 . S
C209 C208 1.399 . S
C209 H215 0.930 . S
H210 C190 0.931 . S
H211 C191 0.930 . S
H212 C199 0.931 . S
H213 C200 0.929 . S
H214 C208 0.929 . S
H215 C209 0.930 . S
Mn216 O221 2.095 . S
Mn216 O231 2.162 . S
Mn216 O232 2.297 . S
Mn216 O240 2.385 1_556 S
Mn216 O241 2.209 . S
Mn216 O242 2.094 . S
Mn217 O222 2.121 . S
Mn217 N224 2.257 . S
Mn217 N233 2.282 . S
Mn217 O241 2.215 . S
Mn217 O243 2.117 . S
C218 O240 1.234 . S
C218 O241 1.283 1_554 S
C219 O231 1.281 . S
C219 O232 1.236 . S
C220 O242 1.240 . S
C220 O243 1.264 . S
O221 Mn216 2.095 . S
O221 C230 1.250 . S
O222 Mn217 2.121 . S
O222 C230 1.258 . S
C223 N224 1.326 . S
C223 C227 1.460 . S
C223 H229 0.929 . S
N224 Mn217 2.257 . S
N224 C223 1.326 . S
N224 C228 1.362 . S
C225 C226 1.258 1_554 S
C225 C228 1.431 1_554 S
C225 C245 1.449 . S
C226 C225 1.258 1_556 S
C226 C227 1.477 . S
C226 H246 0.931 . S
C227 C223 1.460 . S
C227 C226 1.477 . S
C227 H247 0.930 . S
C228 N224 1.362 . S
C228 C225 1.431 1_556 S
C228 C238 1.476 1_556 S
H229 C223 0.929 . S
C230 O221 1.250 . S
C230 O222 1.258 . S
O231 Mn216 2.162 . S
O231 C219 1.281 . S
O232 Mn216 2.297 . S
O232 C219 1.236 . S
N233 Mn217 2.282 . S
N233 C234 1.328 1_556 S
N233 C238 1.318 1_556 S
C234 N233 1.328 1_554 S
C234 C235 1.457 . S
C234 H239 0.929 . S
C235 C234 1.457 . S
C235 C236 1.291 . S
C235 H248 0.931 . S
C236 C235 1.291 . S
C236 C237 1.373 . S
C236 H249 0.929 . S
C237 C236 1.373 . S
C237 C238 1.396 . S
C237 C244 1.403 . S
C238 C228 1.476 1_554 S
C238 N233 1.318 1_554 S
C238 C237 1.396 . S
H239 C234 0.929 . S
O240 Mn216 2.385 1_554 S
O240 C218 1.234 . S
O241 Mn216 2.209 . S
O241 Mn217 2.215 . S
O241 C218 1.283 1_556 S
O242 Mn216 2.094 . S
O242 C220 1.240 . S
O243 Mn217 2.117 . S
O243 C220 1.264 . S
C244 C237 1.403 . S
C244 C245 1.399 . S
C244 H250 0.929 . S
C245 C225 1.449 . S
C245 C244 1.399 . S
C245 H251 0.930 . S
H246 C226 0.931 . S
H247 C227 0.930 . S
H248 C235 0.931 . S
H249 C236 0.929 . S
H250 C244 0.929 . S
H251 C245 0.930 . S
Mn252 O257 2.095 . S
Mn252 O267 2.162 . S
Mn252 O268 2.297 . S
Mn252 O276 2.385 . S
Mn252 O277 2.209 . S
Mn252 O278 2.094 . S
Mn253 O258 2.121 . S
Mn253 N260 2.257 . S
Mn253 N269 2.282 . S
Mn253 O277 2.215 . S
Mn253 O279 2.117 . S
C254 O276 1.234 . S
C254 O277 1.283 . S
C255 O267 1.281 . S
C255 O268 1.236 . S
C256 O278 1.240 . S
C256 O279 1.264 . S
O257 Mn252 2.095 . S
O257 C266 1.250 . S
O258 Mn253 2.121 . S
O258 C266 1.258 . S
C259 N260 1.326 . S
C259 C263 1.460 . S
C259 H265 0.929 . S
N260 Mn253 2.257 . S
N260 C259 1.326 . S
N260 C264 1.362 . S
C261 C262 1.258 . S
C261 C264 1.431 . S
C261 C281 1.449 . S
C262 C261 1.258 . S
C262 C263 1.477 . S
C262 H282 0.931 . S
C263 C259 1.460 . S
C263 C262 1.477 . S
C263 H283 0.930 . S
C264 N260 1.362 . S
C264 C261 1.431 . S
C264 C274 1.476 . S
H265 C259 0.929 . S
C266 O257 1.250 . S
C266 O258 1.258 . S
O267 Mn252 2.162 . S
O267 C255 1.281 . S
O268 Mn252 2.297 . S
O268 C255 1.236 . S
N269 Mn253 2.282 . S
N269 C270 1.328 . S
N269 C274 1.318 . S
C270 N269 1.328 . S
C270 C271 1.457 . S
C270 H275 0.929 . S
C271 C270 1.457 . S
C271 C272 1.291 . S
C271 H284 0.931 . S
C272 C271 1.291 . S
C272 C273 1.373 . S
C272 H285 0.929 . S
C273 C272 1.373 . S
C273 C274 1.396 . S
C273 C280 1.403 . S
C274 C264 1.476 . S
C274 N269 1.318 . S
C274 C273 1.396 . S
H275 C270 0.929 . S
O276 Mn252 2.385 . S
O276 C254 1.234 . S
O277 Mn252 2.209 . S
O277 Mn253 2.215 . S
O277 C254 1.283 . S
O278 Mn252 2.094 . S
O278 C256 1.240 . S
O279 Mn253 2.117 . S
O279 C256 1.264 . S
C280 C273 1.403 . S
C280 C281 1.399 . S
C280 H286 0.929 . S
C281 C261 1.449 . S
C281 C280 1.399 . S
C281 H287 0.930 . S
H282 C262 0.931 . S
H283 C263 0.930 . S
H284 C271 0.931 . S
H285 C272 0.929 . S
H286 C280 0.929 . S
H287 C281 0.930 . S
Mn288 O293 2.095 . S
Mn288 O303 2.162 . S
Mn288 O304 2.297 . S
Mn288 O312 2.385 1_556 S
Mn288 O313 2.209 . S
Mn288 O314 2.094 . S
Mn289 O294 2.121 . S
Mn289 N296 2.257 1_655 S
Mn289 N305 2.282 . S
Mn289 O313 2.215 . S
Mn289 O315 2.117 . S
C290 O312 1.234 . S
C290 O313 1.283 1_554 S
C291 O303 1.281 . S
C291 O304 1.236 . S
C292 O314 1.240 . S
C292 O315 1.264 . S
O293 Mn288 2.095 . S
O293 C302 1.250 . S
O294 Mn289 2.121 . S
O294 C302 1.258 . S
C295 N296 1.326 . S
C295 C299 1.460 . S
C295 H301 0.929 . S
N296 Mn289 2.257 1_455 S
N296 C295 1.326 . S
N296 C300 1.362 . S
C297 C298 1.258 1_554 S
C297 C300 1.431 1_554 S
C297 C317 1.449 . S
C298 C297 1.258 1_556 S
C298 C299 1.477 . S
C298 H318 0.931 . S
C299 C295 1.460 . S
C299 C298 1.477 . S
C299 H319 0.930 . S
C300 N296 1.362 . S
C300 C297 1.431 1_556 S
C300 C310 1.476 1_456 S
H301 C295 0.929 . S
C302 O293 1.250 . S
C302 O294 1.258 . S
O303 Mn288 2.162 . S
O303 C291 1.281 . S
O304 Mn288 2.297 . S
O304 C291 1.236 . S
N305 Mn289 2.282 . S
N305 C306 1.328 1_556 S
N305 C310 1.318 1_556 S
C306 N305 1.328 1_554 S
C306 C307 1.457 . S
C306 H311 0.929 . S
C307 C306 1.457 . S
C307 C308 1.291 . S
C307 H320 0.931 . S
C308 C307 1.291 . S
C308 C309 1.373 . S
C308 H321 0.929 . S
C309 C308 1.373 . S
C309 C310 1.396 . S
C309 C316 1.403 1_655 S
C310 C300 1.476 1_654 S
C310 N305 1.318 1_554 S
C310 C309 1.396 . S
H311 C306 0.929 . S
O312 Mn288 2.385 1_554 S
O312 C290 1.234 . S
O313 Mn288 2.209 . S
O313 Mn289 2.215 . S
O313 C290 1.283 1_556 S
O314 Mn288 2.094 . S
O314 C292 1.240 . S
O315 Mn289 2.117 . S
O315 C292 1.264 . S
C316 C309 1.403 1_455 S
C316 C317 1.399 . S
C316 H322 0.929 . S
C317 C297 1.449 . S
C317 C316 1.399 . S
C317 H323 0.930 . S
H318 C298 0.931 . S
H319 C299 0.930 . S
H320 C307 0.931 . S
H321 C308 0.929 . S
H322 C316 0.929 . S
H323 C317 0.930 . S
Mn324 O329 2.095 . S
Mn324 O339 2.162 . S
Mn324 O340 2.297 . S
Mn324 O348 2.385 . S
Mn324 O349 2.209 . S
Mn324 O350 2.094 . S
Mn325 O330 2.121 . S
Mn325 N332 2.257 . S
Mn325 N341 2.282 . S
Mn325 O349 2.215 . S
Mn325 O351 2.117 . S
C326 O348 1.234 . S
C326 O349 1.283 . S
C327 O339 1.281 . S
C327 O340 1.236 . S
C328 O350 1.240 . S
C328 O351 1.264 . S
O329 Mn324 2.095 . S
O329 C338 1.250 . S
O330 Mn325 2.121 . S
O330 C338 1.258 . S
C331 N332 1.326 . S
C331 C335 1.460 . S
C331 H337 0.929 . S
N332 Mn325 2.257 . S
N332 C331 1.326 . S
N332 C336 1.362 . S
C333 C334 1.258 . S
C333 C336 1.431 . S
C333 C353 1.449 . S
C334 C333 1.258 . S
C334 C335 1.477 . S
C334 H354 0.931 . S
C335 C331 1.460 . S
C335 C334 1.477 . S
C335 H355 0.930 . S
C336 N332 1.362 . S
C336 C333 1.431 . S
C336 C346 1.476 . S
H337 C331 0.929 . S
C338 O329 1.250 . S
C338 O330 1.258 . S
O339 Mn324 2.162 . S
O339 C327 1.281 . S
O340 Mn324 2.297 . S
O340 C327 1.236 . S
N341 Mn325 2.282 . S
N341 C342 1.328 . S
N341 C346 1.318 . S
C342 N341 1.328 . S
C342 C343 1.457 . S
C342 H347 0.929 . S
C343 C342 1.457 . S
C343 C344 1.291 . S
C343 H356 0.931 . S
C344 C343 1.291 . S
C344 C345 1.373 . S
C344 H357 0.929 . S
C345 C344 1.373 . S
C345 C346 1.396 . S
C345 C352 1.403 . S
C346 C336 1.476 . S
C346 N341 1.318 . S
C346 C345 1.396 . S
H347 C342 0.929 . S
O348 Mn324 2.385 . S
O348 C326 1.234 . S
O349 Mn324 2.209 . S
O349 Mn325 2.215 . S
O349 C326 1.283 . S
O350 Mn324 2.094 . S
O350 C328 1.240 . S
O351 Mn325 2.117 . S
O351 C328 1.264 . S
C352 C345 1.403 . S
C352 C353 1.399 . S
C352 H358 0.929 . S
C353 C333 1.449 . S
C353 C352 1.399 . S
C353 H359 0.930 . S
H354 C334 0.931 . S
H355 C335 0.930 . S
H356 C343 0.931 . S
H357 C344 0.929 . S
H358 C352 0.929 . S
H359 C353 0.930 . S
Mn360 O365 2.095 . S
Mn360 O375 2.162 . S
Mn360 O376 2.297 . S
Mn360 O384 2.385 . S
Mn360 O385 2.209 . S
Mn360 O386 2.094 . S
Mn361 O366 2.121 . S
Mn361 N368 2.257 . S
Mn361 N377 2.282 . S
Mn361 O385 2.215 . S
Mn361 O387 2.117 . S
C362 O384 1.234 . S
C362 O385 1.283 . S
C363 O375 1.281 . S
C363 O376 1.236 . S
C364 O386 1.240 . S
C364 O387 1.264 . S
O365 Mn360 2.095 . S
O365 C374 1.250 . S
O366 Mn361 2.121 . S
O366 C374 1.258 . S
C367 N368 1.326 . S
C367 C371 1.460 . S
C367 H373 0.929 . S
N368 Mn361 2.257 . S
N368 C367 1.326 . S
N368 C372 1.362 . S
C369 C370 1.258 . S
C369 C372 1.431 . S
C369 C389 1.449 . S
C370 C369 1.258 . S
C370 C371 1.477 . S
C370 H390 0.931 . S
C371 C367 1.460 . S
C371 C370 1.477 . S
C371 H391 0.930 . S
C372 N368 1.362 . S
C372 C369 1.431 . S
C372 C382 1.476 . S
H373 C367 0.929 . S
C374 O365 1.250 . S
C374 O366 1.258 . S
O375 Mn360 2.162 . S
O375 C363 1.281 . S
O376 Mn360 2.297 . S
O376 C363 1.236 . S
N377 Mn361 2.282 . S
N377 C378 1.328 . S
N377 C382 1.318 . S
C378 N377 1.328 . S
C378 C379 1.457 . S
C378 H383 0.929 . S
C379 C378 1.457 . S
C379 C380 1.291 . S
C379 H392 0.931 . S
C380 C379 1.291 . S
C380 C381 1.373 . S
C380 H393 0.929 . S
C381 C380 1.373 . S
C381 C382 1.396 . S
C381 C388 1.403 . S
C382 C372 1.476 . S
C382 N377 1.318 . S
C382 C381 1.396 . S
H383 C378 0.929 . S
O384 Mn360 2.385 . S
O384 C362 1.234 . S
O385 Mn360 2.209 . S
O385 Mn361 2.215 . S
O385 C362 1.283 . S
O386 Mn360 2.094 . S
O386 C364 1.240 . S
O387 Mn361 2.117 . S
O387 C364 1.264 . S
C388 C381 1.403 . S
C388 C389 1.399 . S
C388 H394 0.929 . S
C389 C369 1.449 . S
C389 C388 1.399 . S
C389 H395 0.930 . S
H390 C370 0.931 . S
H391 C371 0.930 . S
H392 C379 0.931 . S
H393 C380 0.929 . S
H394 C388 0.929 . S
H395 C389 0.930 . S
Mn396 O401 2.095 . S
Mn396 O411 2.162 . S
Mn396 O412 2.297 . S
Mn396 O420 2.385 . S
Mn396 O421 2.209 . S
Mn396 O422 2.094 . S
Mn397 O402 2.121 . S
Mn397 N404 2.257 . S
Mn397 N413 2.282 . S
Mn397 O421 2.215 . S
Mn397 O423 2.117 . S
C398 O420 1.234 . S
C398 O421 1.283 . S
C399 O411 1.281 . S
C399 O412 1.236 . S
C400 O422 1.240 . S
C400 O423 1.264 . S
O401 Mn396 2.095 . S
O401 C410 1.250 . S
O402 Mn397 2.121 . S
O402 C410 1.258 . S
C403 N404 1.326 . S
C403 C407 1.460 . S
C403 H409 0.929 . S
N404 Mn397 2.257 . S
N404 C403 1.326 . S
N404 C408 1.362 . S
C405 C406 1.258 . S
C405 C408 1.431 . S
C405 C425 1.449 . S
C406 C405 1.258 . S
C406 C407 1.477 . S
C406 H426 0.931 . S
C407 C403 1.460 . S
C407 C406 1.477 . S
C407 H427 0.930 . S
C408 N404 1.362 . S
C408 C405 1.431 . S
C408 C418 1.476 . S
H409 C403 0.929 . S
C410 O401 1.250 . S
C410 O402 1.258 . S
O411 Mn396 2.162 . S
O411 C399 1.281 . S
O412 Mn396 2.297 . S
O412 C399 1.236 . S
N413 Mn397 2.282 . S
N413 C414 1.328 . S
N413 C418 1.318 . S
C414 N413 1.328 . S
C414 C415 1.457 . S
C414 H419 0.929 . S
C415 C414 1.457 . S
C415 C416 1.291 . S
C415 H428 0.931 . S
C416 C415 1.291 . S
C416 C417 1.373 . S
C416 H429 0.929 . S
C417 C416 1.373 . S
C417 C418 1.396 . S
C417 C424 1.403 . S
C418 C408 1.476 . S
C418 N413 1.318 . S
C418 C417 1.396 . S
H419 C414 0.929 . S
O420 Mn396 2.385 . S
O420 C398 1.234 . S
O421 Mn396 2.209 . S
O421 Mn397 2.215 . S
O421 C398 1.283 . S
O422 Mn396 2.094 . S
O422 C400 1.240 . S
O423 Mn397 2.117 . S
O423 C400 1.264 . S
C424 C417 1.403 . S
C424 C425 1.399 . S
C424 H430 0.929 . S
C425 C405 1.449 . S
C425 C424 1.399 . S
C425 H431 0.930 . S
H426 C406 0.931 . S
H427 C407 0.930 . S
H428 C415 0.931 . S
H429 C416 0.929 . S
H430 C424 0.929 . S
H431 C425 0.930 . S
Mn432 O437 2.095 . S
Mn432 O447 2.162 . S
Mn432 O448 2.297 . S
Mn432 O456 2.385 . S
Mn432 O457 2.209 . S
Mn432 O458 2.094 . S
Mn433 O438 2.121 . S
Mn433 N440 2.257 1_655 S
Mn433 N449 2.282 . S
Mn433 O457 2.215 . S
Mn433 O459 2.117 . S
C434 O456 1.234 . S
C434 O457 1.283 . S
C435 O447 1.281 . S
C435 O448 1.236 . S
C436 O458 1.240 . S
C436 O459 1.264 . S
O437 Mn432 2.095 . S
O437 C446 1.250 . S
O438 Mn433 2.121 . S
O438 C446 1.258 . S
C439 N440 1.326 . S
C439 C443 1.460 . S
C439 H445 0.929 . S
N440 Mn433 2.257 1_455 S
N440 C439 1.326 . S
N440 C444 1.362 . S
C441 C442 1.258 . S
C441 C444 1.431 . S
C441 C461 1.449 . S
C442 C441 1.258 . S
C442 C443 1.477 . S
C442 H462 0.931 . S
C443 C439 1.460 . S
C443 C442 1.477 . S
C443 H463 0.930 . S
C444 N440 1.362 . S
C444 C441 1.431 . S
C444 C454 1.476 1_455 S
H445 C439 0.929 . S
C446 O437 1.250 . S
C446 O438 1.258 . S
O447 Mn432 2.162 . S
O447 C435 1.281 . S
O448 Mn432 2.297 . S
O448 C435 1.236 . S
N449 Mn433 2.282 . S
N449 C450 1.328 . S
N449 C454 1.318 . S
C450 N449 1.328 . S
C450 C451 1.457 . S
C450 H455 0.929 . S
C451 C450 1.457 . S
C451 C452 1.291 . S
C451 H464 0.931 . S
C452 C451 1.291 . S
C452 C453 1.373 . S
C452 H465 0.929 . S
C453 C452 1.373 . S
C453 C454 1.396 . S
C453 C460 1.403 1_655 S
C454 C444 1.476 1_655 S
C454 N449 1.318 . S
C454 C453 1.396 . S
H455 C450 0.929 . S
O456 Mn432 2.385 . S
O456 C434 1.234 . S
O457 Mn432 2.209 . S
O457 Mn433 2.215 . S
O457 C434 1.283 . S
O458 Mn432 2.094 . S
O458 C436 1.240 . S
O459 Mn433 2.117 . S
O459 C436 1.264 . S
C460 C453 1.403 1_455 S
C460 C461 1.399 . S
C460 H466 0.929 . S
C461 C441 1.449 . S
C461 C460 1.399 . S
C461 H467 0.930 . S
H462 C442 0.931 . S
H463 C443 0.930 . S
H464 C451 0.931 . S
H465 C452 0.929 . S
H466 C460 0.929 . S
H467 C461 0.930 . S
Mn468 O473 2.095 . S
Mn468 O483 2.162 . S
Mn468 O484 2.297 . S
Mn468 O492 2.385 . S
Mn468 O493 2.209 . S
Mn468 O494 2.094 . S
Mn469 O474 2.121 . S
Mn469 N476 2.257 . S
Mn469 N485 2.282 . S
Mn469 O493 2.215 . S
Mn469 O495 2.117 . S
C470 O492 1.234 . S
C470 O493 1.283 . S
C471 O483 1.281 . S
C471 O484 1.236 . S
C472 O494 1.240 . S
C472 O495 1.264 . S
O473 Mn468 2.095 . S
O473 C482 1.250 . S
O474 Mn469 2.121 . S
O474 C482 1.258 . S
C475 N476 1.326 . S
C475 C479 1.460 . S
C475 H481 0.929 . S
N476 Mn469 2.257 . S
N476 C475 1.326 . S
N476 C480 1.362 . S
C477 C478 1.258 . S
C477 C480 1.431 . S
C477 C497 1.449 . S
C478 C477 1.258 . S
C478 C479 1.477 . S
C478 H498 0.931 . S
C479 C475 1.460 . S
C479 C478 1.477 . S
C479 H499 0.930 . S
C480 N476 1.362 . S
C480 C477 1.431 . S
C480 C490 1.476 . S
H481 C475 0.929 . S
C482 O473 1.250 . S
C482 O474 1.258 . S
O483 Mn468 2.162 . S
O483 C471 1.281 . S
O484 Mn468 2.297 . S
O484 C471 1.236 . S
N485 Mn469 2.282 . S
N485 C486 1.328 . S
N485 C490 1.318 . S
C486 N485 1.328 . S
C486 C487 1.457 . S
C486 H491 0.929 . S
C487 C486 1.457 . S
C487 C488 1.291 . S
C487 H500 0.931 . S
C488 C487 1.291 . S
C488 C489 1.373 . S
C488 H501 0.929 . S
C489 C488 1.373 . S
C489 C490 1.396 . S
C489 C496 1.403 . S
C490 C480 1.476 . S
C490 N485 1.318 . S
C490 C489 1.396 . S
H491 C486 0.929 . S
O492 Mn468 2.385 . S
O492 C470 1.234 . S
O493 Mn468 2.209 . S
O493 Mn469 2.215 . S
O493 C470 1.283 . S
O494 Mn468 2.094 . S
O494 C472 1.240 . S
O495 Mn469 2.117 . S
O495 C472 1.264 . S
C496 C489 1.403 . S
C496 C497 1.399 . S
C496 H502 0.929 . S
C497 C477 1.449 . S
C497 C496 1.399 . S
C497 H503 0.930 . S
H498 C478 0.931 . S
H499 C479 0.930 . S
H500 C487 0.931 . S
H501 C488 0.929 . S
H502 C496 0.929 . S
H503 C497 0.930 . S
Mn504 O509 2.095 . S
Mn504 O519 2.162 . S
Mn504 O520 2.297 . S
Mn504 O528 2.385 1_554 S
Mn504 O529 2.209 . S
Mn504 O530 2.094 . S
Mn505 O510 2.121 . S
Mn505 N512 2.257 . S
Mn505 N521 2.282 . S
Mn505 O529 2.215 . S
Mn505 O531 2.117 . S
C506 O528 1.234 . S
C506 O529 1.283 1_556 S
C507 O519 1.281 . S
C507 O520 1.236 . S
C508 O530 1.240 . S
C508 O531 1.264 . S
O509 Mn504 2.095 . S
O509 C518 1.250 . S
O510 Mn505 2.121 . S
O510 C518 1.258 . S
C511 N512 1.326 . S
C511 C515 1.460 . S
C511 H517 0.929 . S
N512 Mn505 2.257 . S
N512 C511 1.326 . S
N512 C516 1.362 . S
C513 C514 1.258 1_556 S
C513 C516 1.431 1_556 S
C513 C533 1.449 . S
C514 C513 1.258 1_554 S
C514 C515 1.477 . S
C514 H534 0.931 . S
C515 C511 1.460 . S
C515 C514 1.477 . S
C515 H535 0.930 . S
C516 N512 1.362 . S
C516 C513 1.431 1_554 S
C516 C526 1.476 1_554 S
H517 C511 0.929 . S
C518 O509 1.250 . S
C518 O510 1.258 . S
O519 Mn504 2.162 . S
O519 C507 1.281 . S
O520 Mn504 2.297 . S
O520 C507 1.236 . S
N521 Mn505 2.282 . S
N521 C522 1.328 1_554 S
N521 C526 1.318 1_554 S
C522 N521 1.328 1_556 S
C522 C523 1.457 . S
C522 H527 0.929 . S
C523 C522 1.457 . S
C523 C524 1.291 . S
C523 H536 0.931 . S
C524 C523 1.291 . S
C524 C525 1.373 . S
C524 H537 0.929 . S
C525 C524 1.373 . S
C525 C526 1.396 . S
C525 C532 1.403 . S
C526 C516 1.476 1_556 S
C526 N521 1.318 1_556 S
C526 C525 1.396 . S
H527 C522 0.929 . S
O528 Mn504 2.385 1_556 S
O528 C506 1.234 . S
O529 Mn504 2.209 . S
O529 Mn505 2.215 . S
O529 C506 1.283 1_554 S
O530 Mn504 2.094 . S
O530 C508 1.240 . S
O531 Mn505 2.117 . S
O531 C508 1.264 . S
C532 C525 1.403 . S
C532 C533 1.399 . S
C532 H538 0.929 . S
C533 C513 1.449 . S
C533 C532 1.399 . S
C533 H539 0.930 . S
H534 C514 0.931 . S
H535 C515 0.930 . S
H536 C523 0.931 . S
H537 C524 0.929 . S
H538 C532 0.929 . S
H539 C533 0.930 . S
Mn540 O545 2.095 . S
Mn540 O555 2.162 . S
Mn540 O556 2.297 . S
Mn540 O564 2.385 . S
Mn540 O565 2.209 . S
Mn540 O566 2.094 . S
Mn541 O546 2.121 . S
Mn541 N548 2.257 . S
Mn541 N557 2.282 . S
Mn541 O565 2.215 . S
Mn541 O567 2.117 . S
C542 O564 1.234 . S
C542 O565 1.283 . S
C543 O555 1.281 . S
C543 O556 1.236 . S
C544 O566 1.240 . S
C544 O567 1.264 . S
O545 Mn540 2.095 . S
O545 C554 1.250 . S
O546 Mn541 2.121 . S
O546 C554 1.258 . S
C547 N548 1.326 . S
C547 C551 1.460 . S
C547 H553 0.929 . S
N548 Mn541 2.257 . S
N548 C547 1.326 . S
N548 C552 1.362 . S
C549 C550 1.258 . S
C549 C552 1.431 . S
C549 C569 1.449 . S
C550 C549 1.258 . S
C550 C551 1.477 . S
C550 H570 0.931 . S
C551 C547 1.460 . S
C551 C550 1.477 . S
C551 H571 0.930 . S
C552 N548 1.362 . S
C552 C549 1.431 . S
C552 C562 1.476 . S
H553 C547 0.929 . S
C554 O545 1.250 . S
C554 O546 1.258 . S
O555 Mn540 2.162 . S
O555 C543 1.281 . S
O556 Mn540 2.297 . S
O556 C543 1.236 . S
N557 Mn541 2.282 . S
N557 C558 1.328 . S
N557 C562 1.318 . S
C558 N557 1.328 . S
C558 C559 1.457 . S
C558 H563 0.929 . S
C559 C558 1.457 . S
C559 C560 1.291 . S
C559 H572 0.931 . S
C560 C559 1.291 . S
C560 C561 1.373 . S
C560 H573 0.929 . S
C561 C560 1.373 . S
C561 C562 1.396 . S
C561 C568 1.403 . S
C562 C552 1.476 . S
C562 N557 1.318 . S
C562 C561 1.396 . S
H563 C558 0.929 . S
O564 Mn540 2.385 . S
O564 C542 1.234 . S
O565 Mn540 2.209 . S
O565 Mn541 2.215 . S
O565 C542 1.283 . S
O566 Mn540 2.094 . S
O566 C544 1.240 . S
O567 Mn541 2.117 . S
O567 C544 1.264 . S
C568 C561 1.403 . S
C568 C569 1.399 . S
C568 H574 0.929 . S
C569 C549 1.449 . S
C569 C568 1.399 . S
C569 H575 0.930 . S
H570 C550 0.931 . S
H571 C551 0.930 . S
H572 C559 0.931 . S
H573 C560 0.929 . S
H574 C568 0.929 . S
H575 C569 0.930 . S
Mn576 O581 2.095 . S
Mn576 O591 2.162 . S
Mn576 O592 2.297 . S
Mn576 O600 2.385 . S
Mn576 O601 2.209 . S
Mn576 O602 2.094 . S
Mn577 O582 2.121 . S
Mn577 N584 2.257 . S
Mn577 N593 2.282 . S
Mn577 O601 2.215 . S
Mn577 O603 2.117 . S
C578 O600 1.234 . S
C578 O601 1.283 . S
C579 O591 1.281 . S
C579 O592 1.236 . S
C580 O602 1.240 . S
C580 O603 1.264 . S
O581 Mn576 2.095 . S
O581 C590 1.250 . S
O582 Mn577 2.121 . S
O582 C590 1.258 . S
C583 N584 1.326 . S
C583 C587 1.460 . S
C583 H589 0.929 . S
N584 Mn577 2.257 . S
N584 C583 1.326 . S
N584 C588 1.362 . S
C585 C586 1.258 . S
C585 C588 1.431 . S
C585 C605 1.449 . S
C586 C585 1.258 . S
C586 C587 1.477 . S
C586 H606 0.931 . S
C587 C583 1.460 . S
C587 C586 1.477 . S
C587 H607 0.930 . S
C588 N584 1.362 . S
C588 C585 1.431 . S
C588 C598 1.476 . S
H589 C583 0.929 . S
C590 O581 1.250 . S
C590 O582 1.258 . S
O591 Mn576 2.162 . S
O591 C579 1.281 . S
O592 Mn576 2.297 . S
O592 C579 1.236 . S
N593 Mn577 2.282 . S
N593 C594 1.328 . S
N593 C598 1.318 . S
C594 N593 1.328 . S
C594 C595 1.457 . S
C594 H599 0.929 . S
C595 C594 1.457 . S
C595 C596 1.291 . S
C595 H608 0.931 . S
C596 C595 1.291 . S
C596 C597 1.373 . S
C596 H609 0.929 . S
C597 C596 1.373 . S
C597 C598 1.396 . S
C597 C604 1.403 . S
C598 C588 1.476 . S
C598 N593 1.318 . S
C598 C597 1.396 . S
H599 C594 0.929 . S
O600 Mn576 2.385 . S
O600 C578 1.234 . S
O601 Mn576 2.209 . S
O601 Mn577 2.215 . S
O601 C578 1.283 . S
O602 Mn576 2.094 . S
O602 C580 1.240 . S
O603 Mn577 2.117 . S
O603 C580 1.264 . S
C604 C597 1.403 . S
C604 C605 1.399 . S
C604 H610 0.929 . S
C605 C585 1.449 . S
C605 C604 1.399 . S
C605 H611 0.930 . S
H606 C586 0.931 . S
H607 C587 0.930 . S
H608 C595 0.931 . S
H609 C596 0.929 . S
H610 C604 0.929 . S
H611 C605 0.930 . S
Mn612 O617 2.095 . S
Mn612 O627 2.162 . S
Mn612 O628 2.297 . S
Mn612 O636 2.385 . S
Mn612 O637 2.209 . S
Mn612 O638 2.094 . S
Mn613 O618 2.121 . S
Mn613 N620 2.257 . S
Mn613 N629 2.282 . S
Mn613 O637 2.215 . S
Mn613 O639 2.117 . S
C614 O636 1.234 . S
C614 O637 1.283 . S
C615 O627 1.281 . S
C615 O628 1.236 . S
C616 O638 1.240 . S
C616 O639 1.264 . S
O617 Mn612 2.095 . S
O617 C626 1.250 . S
O618 Mn613 2.121 . S
O618 C626 1.258 . S
C619 N620 1.326 . S
C619 C623 1.460 . S
C619 H625 0.929 . S
N620 Mn613 2.257 . S
N620 C619 1.326 . S
N620 C624 1.362 . S
C621 C622 1.258 . S
C621 C624 1.431 . S
C621 C641 1.449 . S
C622 C621 1.258 . S
C622 C623 1.477 . S
C622 H642 0.931 . S
C623 C619 1.460 . S
C623 C622 1.477 . S
C623 H643 0.930 . S
C624 N620 1.362 . S
C624 C621 1.431 . S
C624 C634 1.476 . S
H625 C619 0.929 . S
C626 O617 1.250 . S
C626 O618 1.258 . S
O627 Mn612 2.162 . S
O627 C615 1.281 . S
O628 Mn612 2.297 . S
O628 C615 1.236 . S
N629 Mn613 2.282 . S
N629 C630 1.328 . S
N629 C634 1.318 . S
C630 N629 1.328 . S
C630 C631 1.457 . S
C630 H635 0.929 . S
C631 C630 1.457 . S
C631 C632 1.291 . S
C631 H644 0.931 . S
C632 C631 1.291 . S
C632 C633 1.373 . S
C632 H645 0.929 . S
C633 C632 1.373 . S
C633 C634 1.396 . S
C633 C640 1.403 . S
C634 C624 1.476 . S
C634 N629 1.318 . S
C634 C633 1.396 . S
H635 C630 0.929 . S
O636 Mn612 2.385 . S
O636 C614 1.234 . S
O637 Mn612 2.209 . S
O637 Mn613 2.215 . S
O637 C614 1.283 . S
O638 Mn612 2.094 . S
O638 C616 1.240 . S
O639 Mn613 2.117 . S
O639 C616 1.264 . S
C640 C633 1.403 . S
C640 C641 1.399 . S
C640 H646 0.929 . S
C641 C621 1.449 . S
C641 C640 1.399 . S
C641 H647 0.930 . S
H642 C622 0.931 . S
H643 C623 0.930 . S
H644 C631 0.931 . S
H645 C632 0.929 . S
H646 C640 0.929 . S
H647 C641 0.930 . S
Mn648 O653 2.094 1_655 S
Mn648 O663 2.162 . S
Mn648 O664 2.297 1_655 S
Mn648 O672 2.385 1_554 S
Mn648 O673 2.209 1_655 S
Mn648 O674 2.094 . S
Mn649 O654 2.121 . S
Mn649 N656 2.257 . S
Mn649 N665 2.282 . S
Mn649 O673 2.215 . S
Mn649 O675 2.117 1_455 S
C650 O672 1.234 1_455 S
C650 O673 1.283 1_556 S
C651 O663 1.281 . S
C651 O664 1.236 1_655 S
C652 O674 1.240 . S
C652 O675 1.264 . S
O653 Mn648 2.094 1_455 S
O653 C662 1.254 . S
O654 Mn649 2.121 . S
O654 C662 1.258 . S
C655 N656 1.326 . S
C655 C659 1.460 . S
C655 H661 0.929 . S
N656 Mn649 2.257 . S
N656 C655 1.326 . S
N656 C660 1.362 . S
C657 C658 1.258 1_556 S
C657 C660 1.431 1_556 S
C657 C677 1.449 . S
C658 C657 1.258 1_554 S
C658 C659 1.477 . S
C658 H678 0.931 . S
C659 C655 1.460 . S
C659 C658 1.477 . S
C659 H679 0.930 . S
C660 N656 1.362 . S
C660 C657 1.431 1_554 S
C660 C670 1.476 1_554 S
H661 C655 0.929 . S
C662 O653 1.254 . S
C662 O654 1.258 . S
O663 Mn648 2.162 . S
O663 C651 1.281 . S
O664 Mn648 2.297 1_455 S
O664 C651 1.236 1_455 S
N665 Mn649 2.282 . S
N665 C666 1.328 1_454 S
N665 C670 1.318 1_554 S
C666 N665 1.328 1_656 S
C666 C667 1.457 . S
C666 H671 0.929 . S
C667 C666 1.457 . S
C667 C668 1.291 1_655 S
C667 H680 0.931 . S
C668 C667 1.291 1_455 S
C668 C669 1.373 . S
C668 H681 0.929 . S
C669 C668 1.373 . S
C669 C670 1.396 . S
C669 C676 1.403 . S
C670 C660 1.476 1_556 S
C670 N665 1.318 1_556 S
C670 C669 1.396 . S
H671 C666 0.929 . S
O672 Mn648 2.385 1_556 S
O672 C650 1.234 1_655 S
O673 Mn648 2.209 1_455 S
O673 Mn649 2.215 . S
O673 C650 1.283 1_554 S
O674 Mn648 2.094 . S
O674 C652 1.240 . S
O675 Mn649 2.117 1_655 S
O675 C652 1.264 . S
C676 C669 1.403 . S
C676 C677 1.399 . S
C676 H682 0.929 . S
C677 C657 1.449 . S
C677 C676 1.399 . S
C677 H683 0.930 . S
H678 C658 0.931 . S
H679 C659 0.930 . S
H680 C667 0.931 . S
H681 C668 0.929 . S
H682 C676 0.929 . S
H683 C677 0.930 . S
Mn684 O689 2.095 . S
Mn684 O699 2.162 . S
Mn684 O700 2.297 . S
Mn684 O708 2.385 . S
Mn684 O709 2.209 . S
Mn684 O710 2.094 . S
Mn685 O690 2.121 . S
Mn685 N692 2.257 . S
Mn685 N701 2.282 . S
Mn685 O709 2.215 . S
Mn685 O711 2.117 . S
C686 O708 1.234 . S
C686 O709 1.283 . S
C687 O699 1.281 . S
C687 O700 1.236 . S
C688 O710 1.240 . S
C688 O711 1.264 . S
O689 Mn684 2.095 . S
O689 C698 1.250 . S
O690 Mn685 2.121 . S
O690 C698 1.258 . S
C691 N692 1.326 . S
C691 C695 1.460 . S
C691 H697 0.929 . S
N692 Mn685 2.257 . S
N692 C691 1.326 . S
N692 C696 1.362 . S
C693 C694 1.258 . S
C693 C696 1.431 . S
C693 C713 1.449 . S
C694 C693 1.258 . S
C694 C695 1.477 . S
C694 H714 0.931 . S
C695 C691 1.460 . S
C695 C694 1.477 . S
C695 H715 0.930 . S
C696 N692 1.362 . S
C696 C693 1.431 . S
C696 C706 1.476 . S
H697 C691 0.929 . S
C698 O689 1.250 . S
C698 O690 1.258 . S
O699 Mn684 2.162 . S
O699 C687 1.281 . S
O700 Mn684 2.297 . S
O700 C687 1.236 . S
N701 Mn685 2.282 . S
N701 C702 1.328 . S
N701 C706 1.318 . S
C702 N701 1.328 . S
C702 C703 1.457 . S
C702 H707 0.929 . S
C703 C702 1.457 . S
C703 C704 1.291 . S
C703 H716 0.931 . S
C704 C703 1.291 . S
C704 C705 1.373 . S
C704 H717 0.929 . S
C705 C704 1.373 . S
C705 C706 1.396 . S
C705 C712 1.403 . S
C706 C696 1.476 . S
C706 N701 1.318 . S
C706 C705 1.396 . S
H707 C702 0.929 . S
O708 Mn684 2.385 . S
O708 C686 1.234 . S
O709 Mn684 2.209 . S
O709 Mn685 2.215 . S
O709 C686 1.283 . S
O710 Mn684 2.094 . S
O710 C688 1.240 . S
O711 Mn685 2.117 . S
O711 C688 1.264 . S
C712 C705 1.403 . S
C712 C713 1.399 . S
C712 H718 0.929 . S
C713 C693 1.449 . S
C713 C712 1.399 . S
C713 H719 0.930 . S
H714 C694 0.931 . S
H715 C695 0.930 . S
H716 C703 0.931 . S
H717 C704 0.929 . S
H718 C712 0.929 . S
H719 C713 0.930 . S
Mn720 O725 2.095 . S
Mn720 O735 2.162 . S
Mn720 O736 2.297 . S
Mn720 O744 2.385 1_556 S
Mn720 O745 2.209 . S
Mn720 O746 2.094 . S
Mn721 O726 2.121 . S
Mn721 N728 2.257 . S
Mn721 N737 2.282 . S
Mn721 O745 2.215 . S
Mn721 O747 2.117 . S
C722 O744 1.234 . S
C722 O745 1.283 1_554 S
C723 O735 1.281 . S
C723 O736 1.236 . S
C724 O746 1.240 . S
C724 O747 1.264 . S
O725 Mn720 2.095 . S
O725 C734 1.250 . S
O726 Mn721 2.121 . S
O726 C734 1.258 . S
C727 N728 1.326 . S
C727 C731 1.460 . S
C727 H733 0.929 . S
N728 Mn721 2.257 . S
N728 C727 1.326 . S
N728 C732 1.362 . S
C729 C730 1.258 1_554 S
C729 C732 1.431 1_554 S
C729 C749 1.449 . S
C730 C729 1.258 1_556 S
C730 C731 1.477 . S
C730 H750 0.931 . S
C731 C727 1.460 . S
C731 C730 1.477 . S
C731 H751 0.930 . S
C732 N728 1.362 . S
C732 C729 1.431 1_556 S
C732 C742 1.476 1_556 S
H733 C727 0.929 . S
C734 O725 1.250 . S
C734 O726 1.258 . S
O735 Mn720 2.162 . S
O735 C723 1.281 . S
O736 Mn720 2.297 . S
O736 C723 1.236 . S
N737 Mn721 2.282 . S
N737 C738 1.328 1_556 S
N737 C742 1.318 1_556 S
C738 N737 1.328 1_554 S
C738 C739 1.457 . S
C738 H743 0.929 . S
C739 C738 1.457 . S
C739 C740 1.291 . S
C739 H752 0.931 . S
C740 C739 1.291 . S
C740 C741 1.373 . S
C740 H753 0.929 . S
C741 C740 1.373 . S
C741 C742 1.396 . S
C741 C748 1.403 . S
C742 C732 1.476 1_554 S
C742 N737 1.318 1_554 S
C742 C741 1.396 . S
H743 C738 0.929 . S
O744 Mn720 2.385 1_554 S
O744 C722 1.234 . S
O745 Mn720 2.209 . S
O745 Mn721 2.215 . S
O745 C722 1.283 1_556 S
O746 Mn720 2.094 . S
O746 C724 1.240 . S
O747 Mn721 2.117 . S
O747 C724 1.264 . S
C748 C741 1.403 . S
C748 C749 1.399 . S
C748 H754 0.929 . S
C749 C729 1.449 . S
C749 C748 1.399 . S
C749 H755 0.930 . S
H750 C730 0.931 . S
H751 C731 0.930 . S
H752 C739 0.931 . S
H753 C740 0.929 . S
H754 C748 0.929 . S
H755 C749 0.930 . S
Mn756 O761 2.095 . S
Mn756 O771 2.162 . S
Mn756 O772 2.297 . S
Mn756 O780 2.385 . S
Mn756 O781 2.209 . S
Mn756 O782 2.094 . S
Mn757 O762 2.121 . S
Mn757 N764 2.257 . S
Mn757 N773 2.282 . S
Mn757 O781 2.215 . S
Mn757 O783 2.117 . S
C758 O780 1.234 . S
C758 O781 1.283 . S
C759 O771 1.281 . S
C759 O772 1.236 . S
C760 O782 1.240 . S
C760 O783 1.264 . S
O761 Mn756 2.095 . S
O761 C770 1.250 . S
O762 Mn757 2.121 . S
O762 C770 1.258 . S
C763 N764 1.326 . S
C763 C767 1.460 . S
C763 H769 0.929 . S
N764 Mn757 2.257 . S
N764 C763 1.326 . S
N764 C768 1.362 . S
C765 C766 1.258 . S
C765 C768 1.431 . S
C765 C785 1.449 . S
C766 C765 1.258 . S
C766 C767 1.477 . S
C766 H786 0.931 . S
C767 C763 1.460 . S
C767 C766 1.477 . S
C767 H787 0.930 . S
C768 N764 1.362 . S
C768 C765 1.431 . S
C768 C778 1.476 . S
H769 C763 0.929 . S
C770 O761 1.250 . S
C770 O762 1.258 . S
O771 Mn756 2.162 . S
O771 C759 1.281 . S
O772 Mn756 2.297 . S
O772 C759 1.236 . S
N773 Mn757 2.282 . S
N773 C774 1.328 . S
N773 C778 1.318 . S
C774 N773 1.328 . S
C774 C775 1.457 . S
C774 H779 0.929 . S
C775 C774 1.457 . S
C775 C776 1.291 . S
C775 H788 0.931 . S
C776 C775 1.291 . S
C776 C777 1.373 . S
C776 H789 0.929 . S
C777 C776 1.373 . S
C777 C778 1.396 . S
C777 C784 1.403 . S
C778 C768 1.476 . S
C778 N773 1.318 . S
C778 C777 1.396 . S
H779 C774 0.929 . S
O780 Mn756 2.385 . S
O780 C758 1.234 . S
O781 Mn756 2.209 . S
O781 Mn757 2.215 . S
O781 C758 1.283 . S
O782 Mn756 2.094 . S
O782 C760 1.240 . S
O783 Mn757 2.117 . S
O783 C760 1.264 . S
C784 C777 1.403 . S
C784 C785 1.399 . S
C784 H790 0.929 . S
C785 C765 1.449 . S
C785 C784 1.399 . S
C785 H791 0.930 . S
H786 C766 0.931 . S
H787 C767 0.930 . S
H788 C775 0.931 . S
H789 C776 0.929 . S
H790 C784 0.929 . S
H791 C785 0.930 . S
Mn792 O797 2.094 1_655 S
Mn792 O807 2.162 . S
Mn792 O808 2.297 1_655 S
Mn792 O816 2.385 . S
Mn792 O817 2.209 1_655 S
Mn792 O818 2.094 . S
Mn793 O798 2.121 . S
Mn793 N800 2.257 . S
Mn793 N809 2.282 . S
Mn793 O817 2.215 . S
Mn793 O819 2.117 1_455 S
C794 O816 1.234 1_455 S
C794 O817 1.283 . S
C795 O807 1.281 . S
C795 O808 1.236 1_655 S
C796 O818 1.240 . S
C796 O819 1.264 . S
O797 Mn792 2.094 1_455 S
O797 C806 1.253 . S
O798 Mn793 2.121 . S
O798 C806 1.258 . S
C799 N800 1.326 . S
C799 C803 1.460 . S
C799 H805 0.929 . S
N800 Mn793 2.257 . S
N800 C799 1.326 . S
N800 C804 1.362 . S
C801 C802 1.258 . S
C801 C804 1.431 . S
C801 C821 1.449 . S
C802 C801 1.258 . S
C802 C803 1.477 . S
C802 H822 0.931 . S
C803 C799 1.460 . S
C803 C802 1.477 . S
C803 H823 0.930 . S
C804 N800 1.362 . S
C804 C801 1.431 . S
C804 C814 1.476 . S
H805 C799 0.929 . S
C806 O797 1.253 . S
C806 O798 1.258 . S
O807 Mn792 2.162 . S
O807 C795 1.281 . S
O808 Mn792 2.297 1_455 S
O808 C795 1.236 1_455 S
N809 Mn793 2.282 . S
N809 C810 1.328 1_455 S
N809 C814 1.318 . S
C810 N809 1.328 1_655 S
C810 C811 1.457 . S
C810 H815 0.929 . S
C811 C810 1.457 . S
C811 C812 1.291 1_655 S
C811 H824 0.931 . S
C812 C811 1.291 1_455 S
C812 C813 1.373 . S
C812 H825 0.929 . S
C813 C812 1.373 . S
C813 C814 1.396 . S
C813 C820 1.403 . S
C814 C804 1.476 . S
C814 N809 1.318 . S
C814 C813 1.396 . S
H815 C810 0.929 . S
O816 Mn792 2.385 . S
O816 C794 1.234 1_655 S
O817 Mn792 2.209 1_455 S
O817 Mn793 2.215 . S
O817 C794 1.283 . S
O818 Mn792 2.094 . S
O818 C796 1.240 . S
O819 Mn793 2.117 1_655 S
O819 C796 1.264 . S
C820 C813 1.403 . S
C820 C821 1.399 . S
C820 H826 0.929 . S
C821 C801 1.449 . S
C821 C820 1.399 . S
C821 H827 0.930 . S
H822 C802 0.931 . S
H823 C803 0.930 . S
H824 C811 0.931 . S
H825 C812 0.929 . S
H826 C820 0.929 . S
H827 C821 0.930 . S
Mn828 O833 2.095 . S
Mn828 O843 2.162 . S
Mn828 O844 2.297 . S
Mn828 O852 2.385 . S
Mn828 O853 2.209 . S
Mn828 O854 2.094 . S
Mn829 O834 2.121 . S
Mn829 N836 2.257 . S
Mn829 N845 2.282 . S
Mn829 O853 2.215 . S
Mn829 O855 2.117 . S
C830 O852 1.234 . S
C830 O853 1.283 . S
C831 O843 1.281 . S
C831 O844 1.236 . S
C832 O854 1.240 . S
C832 O855 1.264 . S
O833 Mn828 2.095 . S
O833 C842 1.250 . S
O834 Mn829 2.121 . S
O834 C842 1.258 . S
C835 N836 1.326 . S
C835 C839 1.460 . S
C835 H841 0.929 . S
N836 Mn829 2.257 . S
N836 C835 1.326 . S
N836 C840 1.362 . S
C837 C838 1.258 . S
C837 C840 1.431 . S
C837 C857 1.449 . S
C838 C837 1.258 . S
C838 C839 1.477 . S
C838 H858 0.931 . S
C839 C835 1.460 . S
C839 C838 1.477 . S
C839 H859 0.930 . S
C840 N836 1.362 . S
C840 C837 1.431 . S
C840 C850 1.476 . S
H841 C835 0.929 . S
C842 O833 1.250 . S
C842 O834 1.258 . S
O843 Mn828 2.162 . S
O843 C831 1.281 . S
O844 Mn828 2.297 . S
O844 C831 1.236 . S
N845 Mn829 2.282 . S
N845 C846 1.328 . S
N845 C850 1.318 . S
C846 N845 1.328 . S
C846 C847 1.457 . S
C846 H851 0.929 . S
C847 C846 1.457 . S
C847 C848 1.291 . S
C847 H860 0.931 . S
C848 C847 1.291 . S
C848 C849 1.373 . S
C848 H861 0.929 . S
C849 C848 1.373 . S
C849 C850 1.396 . S
C849 C856 1.403 . S
C850 C840 1.476 . S
C850 N845 1.318 . S
C850 C849 1.396 . S
H851 C846 0.929 . S
O852 Mn828 2.385 . S
O852 C830 1.234 . S
O853 Mn828 2.209 . S
O853 Mn829 2.215 . S
O853 C830 1.283 . S
O854 Mn828 2.094 . S
O854 C832 1.240 . S
O855 Mn829 2.117 . S
O855 C832 1.264 . S
C856 C849 1.403 . S
C856 C857 1.399 . S
C856 H862 0.929 . S
C857 C837 1.449 . S
C857 C856 1.399 . S
C857 H863 0.930 . S
H858 C838 0.931 . S
H859 C839 0.930 . S
H860 C847 0.931 . S
H861 C848 0.929 . S
H862 C856 0.929 . S
H863 C857 0.930 . S
Mn864 O869 2.095 . S
Mn864 O879 2.162 . S
Mn864 O880 2.297 . S
Mn864 O888 2.385 . S
Mn864 O889 2.209 . S
Mn864 O890 2.094 . S
Mn865 O870 2.121 . S
Mn865 N872 2.257 . S
Mn865 N881 2.282 . S
Mn865 O889 2.215 . S
Mn865 O891 2.117 . S
C866 O888 1.234 . S
C866 O889 1.283 . S
C867 O879 1.281 . S
C867 O880 1.236 . S
C868 O890 1.240 . S
C868 O891 1.264 . S
O869 Mn864 2.095 . S
O869 C878 1.250 . S
O870 Mn865 2.121 . S
O870 C878 1.258 . S
C871 N872 1.326 . S
C871 C875 1.460 . S
C871 H877 0.929 . S
N872 Mn865 2.257 . S
N872 C871 1.326 . S
N872 C876 1.362 . S
C873 C874 1.258 . S
C873 C876 1.431 . S
C873 C893 1.449 . S
C874 C873 1.258 . S
C874 C875 1.477 . S
C874 H894 0.931 . S
C875 C871 1.460 . S
C875 C874 1.477 . S
C875 H895 0.930 . S
C876 N872 1.362 . S
C876 C873 1.431 . S
C876 C886 1.476 . S
H877 C871 0.929 . S
C878 O869 1.250 . S
C878 O870 1.258 . S
O879 Mn864 2.162 . S
O879 C867 1.281 . S
O880 Mn864 2.297 . S
O880 C867 1.236 . S
N881 Mn865 2.282 . S
N881 C882 1.328 . S
N881 C886 1.318 . S
C882 N881 1.328 . S
C882 C883 1.457 . S
C882 H887 0.929 . S
C883 C882 1.457 . S
C883 C884 1.291 . S
C883 H896 0.931 . S
C884 C883 1.291 . S
C884 C885 1.373 . S
C884 H897 0.929 . S
C885 C884 1.373 . S
C885 C886 1.396 . S
C885 C892 1.403 . S
C886 C876 1.476 . S
C886 N881 1.318 . S
C886 C885 1.396 . S
H887 C882 0.929 . S
O888 Mn864 2.385 . S
O888 C866 1.234 . S
O889 Mn864 2.209 . S
O889 Mn865 2.215 . S
O889 C866 1.283 . S
O890 Mn864 2.094 . S
O890 C868 1.240 . S
O891 Mn865 2.117 . S
O891 C868 1.264 . S
C892 C885 1.403 . S
C892 C893 1.399 . S
C892 H898 0.929 . S
C893 C873 1.449 . S
C893 C892 1.399 . S
C893 H899 0.930 . S
H894 C874 0.931 . S
H895 C875 0.930 . S
H896 C883 0.931 . S
H897 C884 0.929 . S
H898 C892 0.929 . S
H899 C893 0.930 . S
Mn900 O905 2.095 . S
Mn900 O915 2.162 . S
Mn900 O916 2.297 . S
Mn900 O924 2.385 . S
Mn900 O925 2.209 . S
Mn900 O926 2.094 . S
Mn901 O906 2.121 . S
Mn901 N908 2.257 . S
Mn901 N917 2.282 . S
Mn901 O925 2.215 . S
Mn901 O927 2.117 . S
C902 O924 1.234 . S
C902 O925 1.283 . S
C903 O915 1.281 . S
C903 O916 1.236 . S
C904 O926 1.240 . S
C904 O927 1.264 . S
O905 Mn900 2.095 . S
O905 C914 1.250 . S
O906 Mn901 2.121 . S
O906 C914 1.258 . S
C907 N908 1.326 . S
C907 C911 1.460 . S
C907 H913 0.929 . S
N908 Mn901 2.257 . S
N908 C907 1.326 . S
N908 C912 1.362 . S
C909 C910 1.258 . S
C909 C912 1.431 . S
C909 C929 1.449 . S
C910 C909 1.258 . S
C910 C911 1.477 . S
C910 H930 0.931 . S
C911 C907 1.460 . S
C911 C910 1.477 . S
C911 H931 0.930 . S
C912 N908 1.362 . S
C912 C909 1.431 . S
C912 C922 1.476 . S
H913 C907 0.929 . S
C914 O905 1.250 . S
C914 O906 1.258 . S
O915 Mn900 2.162 . S
O915 C903 1.281 . S
O916 Mn900 2.297 . S
O916 C903 1.236 . S
N917 Mn901 2.282 . S
N917 C918 1.328 . S
N917 C922 1.318 . S
C918 N917 1.328 . S
C918 C919 1.457 . S
C918 H923 0.929 . S
C919 C918 1.457 . S
C919 C920 1.291 . S
C919 H932 0.931 . S
C920 C919 1.291 . S
C920 C921 1.373 . S
C920 H933 0.929 . S
C921 C920 1.373 . S
C921 C922 1.396 . S
C921 C928 1.403 . S
C922 C912 1.476 . S
C922 N917 1.318 . S
C922 C921 1.396 . S
H923 C918 0.929 . S
O924 Mn900 2.385 . S
O924 C902 1.234 . S
O925 Mn900 2.209 . S
O925 Mn901 2.215 . S
O925 C902 1.283 . S
O926 Mn900 2.094 . S
O926 C904 1.240 . S
O927 Mn901 2.117 . S
O927 C904 1.264 . S
C928 C921 1.403 . S
C928 C929 1.399 . S
C928 H934 0.929 . S
C929 C909 1.449 . S
C929 C928 1.399 . S
C929 H935 0.930 . S
H930 C910 0.931 . S
H931 C911 0.930 . S
H932 C919 0.931 . S
H933 C920 0.929 . S
H934 C928 0.929 . S
H935 C929 0.930 . S
Mn936 O941 2.095 . S
Mn936 O951 2.162 . S
Mn936 O952 2.297 . S
Mn936 O960 2.385 1_556 S
Mn936 O961 2.209 . S
Mn936 O962 2.094 . S
Mn937 O942 2.121 . S
Mn937 N944 2.257 1_455 S
Mn937 N953 2.282 . S
Mn937 O961 2.215 . S
Mn937 O963 2.117 . S
C938 O960 1.234 . S
C938 O961 1.283 1_554 S
C939 O951 1.281 . S
C939 O952 1.236 . S
C940 O962 1.240 . S
C940 O963 1.264 . S
O941 Mn936 2.095 . S
O941 C950 1.250 . S
O942 Mn937 2.121 . S
O942 C950 1.258 . S
C943 N944 1.326 . S
C943 C947 1.460 . S
C943 H949 0.929 . S
N944 Mn937 2.257 1_655 S
N944 C943 1.326 . S
N944 C948 1.362 . S
C945 C946 1.258 1_554 S
C945 C948 1.431 1_554 S
C945 C965 1.449 . S
C946 C945 1.258 1_556 S
C946 C947 1.477 . S
C946 H966 0.931 . S
C947 C943 1.460 . S
C947 C946 1.477 . S
C947 H967 0.930 . S
C948 N944 1.362 . S
C948 C945 1.431 1_556 S
C948 C958 1.476 1_656 S
H949 C943 0.929 . S
C950 O941 1.250 . S
C950 O942 1.258 . S
O951 Mn936 2.162 . S
O951 C939 1.281 . S
O952 Mn936 2.297 . S
O952 C939 1.236 . S
N953 Mn937 2.282 . S
N953 C954 1.328 1_556 S
N953 C958 1.318 1_556 S
C954 N953 1.328 1_554 S
C954 C955 1.457 . S
C954 H959 0.929 . S
C955 C954 1.457 . S
C955 C956 1.291 . S
C955 H968 0.931 . S
C956 C955 1.291 . S
C956 C957 1.373 . S
C956 H969 0.929 . S
C957 C956 1.373 . S
C957 C958 1.396 . S
C957 C964 1.403 1_455 S
C958 C948 1.476 1_454 S
C958 N953 1.318 1_554 S
C958 C957 1.396 . S
H959 C954 0.929 . S
O960 Mn936 2.385 1_554 S
O960 C938 1.234 . S
O961 Mn936 2.209 . S
O961 Mn937 2.215 . S
O961 C938 1.283 1_556 S
O962 Mn936 2.094 . S
O962 C940 1.240 . S
O963 Mn937 2.117 . S
O963 C940 1.264 . S
C964 C957 1.403 1_655 S
C964 C965 1.399 . S
C964 H970 0.929 . S
C965 C945 1.449 . S
C965 C964 1.399 . S
C965 H971 0.930 . S
H966 C946 0.931 . S
H967 C947 0.930 . S
H968 C955 0.931 . S
H969 C956 0.929 . S
H970 C964 0.929 . S
H971 C965 0.930 . S
Mn972 O977 2.095 . S
Mn972 O987 2.162 . S
Mn972 O988 2.297 . S
Mn972 O996 2.385 . S
Mn972 O997 2.209 . S
Mn972 O998 2.094 . S
Mn973 O978 2.121 . S
Mn973 N980 2.257 . S
Mn973 N989 2.282 . S
Mn973 O997 2.215 . S
Mn973 O999 2.117 . S
C974 O996 1.234 . S
C974 O997 1.283 . S
C975 O987 1.281 . S
C975 O988 1.236 . S
C976 O998 1.240 . S
C976 O999 1.264 . S
O977 Mn972 2.095 . S
O977 C986 1.250 . S
O978 Mn973 2.121 . S
O978 C986 1.258 . S
C979 N980 1.326 . S
C979 C983 1.460 . S
C979 H985 0.929 . S
N980 Mn973 2.257 . S
N980 C979 1.326 . S
N980 C984 1.362 . S
C981 C982 1.258 . S
C981 C984 1.431 . S
C981 C1001 1.449 . S
C982 C981 1.258 . S
C982 C983 1.477 . S
C982 H1002 0.931 . S
C983 C979 1.460 . S
C983 C982 1.477 . S
C983 H1003 0.930 . S
C984 N980 1.362 . S
C984 C981 1.431 . S
C984 C994 1.476 . S
H985 C979 0.929 . S
C986 O977 1.250 . S
C986 O978 1.258 . S
O987 Mn972 2.162 . S
O987 C975 1.281 . S
O988 Mn972 2.297 . S
O988 C975 1.236 . S
N989 Mn973 2.282 . S
N989 C990 1.328 . S
N989 C994 1.318 . S
C990 N989 1.328 . S
C990 C991 1.457 . S
C990 H995 0.929 . S
C991 C990 1.457 . S
C991 C992 1.291 . S
C991 H1004 0.931 . S
C992 C991 1.291 . S
C992 C993 1.373 . S
C992 H1005 0.929 . S
C993 C992 1.373 . S
C993 C994 1.396 . S
C993 C1000 1.403 . S
C994 C984 1.476 . S
C994 N989 1.318 . S
C994 C993 1.396 . S
H995 C990 0.929 . S
O996 Mn972 2.385 . S
O996 C974 1.234 . S
O997 Mn972 2.209 . S
O997 Mn973 2.215 . S
O997 C974 1.283 . S
O998 Mn972 2.094 . S
O998 C976 1.240 . S
O999 Mn973 2.117 . S
O999 C976 1.264 . S
C1000 C993 1.403 . S
C1000 C1001 1.399 . S
C1000 H1006 0.929 . S
C1001 C981 1.449 . S
C1001 C1000 1.399 . S
C1001 H1007 0.930 . S
H1002 C982 0.931 . S
H1003 C983 0.930 . S
H1004 C991 0.931 . S
H1005 C992 0.929 . S
H1006 C1000 0.929 . S
H1007 C1001 0.930 . S
Mn1008 O1013 2.095 . S
Mn1008 O1023 2.162 . S
Mn1008 O1024 2.297 . S
Mn1008 O1032 2.385 1_554 S
Mn1008 O1033 2.209 . S
Mn1008 O1034 2.094 . S
Mn1009 O1014 2.121 . S
Mn1009 N1016 2.257 . S
Mn1009 N1025 2.282 . S
Mn1009 O1033 2.215 . S
Mn1009 O1035 2.117 . S
C1010 O1032 1.234 . S
C1010 O1033 1.283 1_556 S
C1011 O1023 1.281 . S
C1011 O1024 1.236 . S
C1012 O1034 1.240 . S
C1012 O1035 1.264 . S
O1013 Mn1008 2.095 . S
O1013 C1022 1.250 . S
O1014 Mn1009 2.121 . S
O1014 C1022 1.258 . S
C1015 N1016 1.326 . S
C1015 C1019 1.460 . S
C1015 H1021 0.929 . S
N1016 Mn1009 2.257 . S
N1016 C1015 1.326 . S
N1016 C1020 1.362 . S
C1017 C1018 1.258 1_556 S
C1017 C1020 1.431 1_556 S
C1017 C1037 1.449 . S
C1018 C1017 1.258 1_554 S
C1018 C1019 1.477 . S
C1018 H1038 0.931 . S
C1019 C1015 1.460 . S
C1019 C1018 1.477 . S
C1019 H1039 0.930 . S
C1020 N1016 1.362 . S
C1020 C1017 1.431 1_554 S
C1020 C1030 1.476 1_554 S
H1021 C1015 0.929 . S
C1022 O1013 1.250 . S
C1022 O1014 1.258 . S
O1023 Mn1008 2.162 . S
O1023 C1011 1.281 . S
O1024 Mn1008 2.297 . S
O1024 C1011 1.236 . S
N1025 Mn1009 2.282 . S
N1025 C1026 1.328 1_554 S
N1025 C1030 1.318 1_554 S
C1026 N1025 1.328 1_556 S
C1026 C1027 1.457 . S
C1026 H1031 0.929 . S
C1027 C1026 1.457 . S
C1027 C1028 1.291 . S
C1027 H1040 0.931 . S
C1028 C1027 1.291 . S
C1028 C1029 1.373 . S
C1028 H1041 0.929 . S
C1029 C1028 1.373 . S
C1029 C1030 1.396 . S
C1029 C1036 1.403 . S
C1030 C1020 1.476 1_556 S
C1030 N1025 1.318 1_556 S
C1030 C1029 1.396 . S
H1031 C1026 0.929 . S
O1032 Mn1008 2.385 1_556 S
O1032 C1010 1.234 . S
O1033 Mn1008 2.209 . S
O1033 Mn1009 2.215 . S
O1033 C1010 1.283 1_554 S
O1034 Mn1008 2.094 . S
O1034 C1012 1.240 . S
O1035 Mn1009 2.117 . S
O1035 C1012 1.264 . S
C1036 C1029 1.403 . S
C1036 C1037 1.399 . S
C1036 H1042 0.929 . S
C1037 C1017 1.449 . S
C1037 C1036 1.399 . S
C1037 H1043 0.930 . S
H1038 C1018 0.931 . S
H1039 C1019 0.930 . S
H1040 C1027 0.931 . S
H1041 C1028 0.929 . S
H1042 C1036 0.929 . S
H1043 C1037 0.930 . S
Mn1044 O1049 2.095 . S
Mn1044 O1059 2.162 . S
Mn1044 O1060 2.297 . S
Mn1044 O1068 2.385 . S
Mn1044 O1069 2.209 . S
Mn1044 O1070 2.094 . S
Mn1045 O1050 2.121 . S
Mn1045 N1052 2.257 . S
Mn1045 N1061 2.282 . S
Mn1045 O1069 2.215 . S
Mn1045 O1071 2.117 . S
C1046 O1068 1.234 . S
C1046 O1069 1.283 . S
C1047 O1059 1.281 . S
C1047 O1060 1.236 . S
C1048 O1070 1.240 . S
C1048 O1071 1.264 . S
O1049 Mn1044 2.095 . S
O1049 C1058 1.250 . S
O1050 Mn1045 2.121 . S
O1050 C1058 1.258 . S
C1051 N1052 1.326 . S
C1051 C1055 1.460 . S
C1051 H1057 0.929 . S
N1052 Mn1045 2.257 . S
N1052 C1051 1.326 . S
N1052 C1056 1.362 . S
C1053 C1054 1.258 . S
C1053 C1056 1.431 . S
C1053 C1073 1.449 . S
C1054 C1053 1.258 . S
C1054 C1055 1.477 . S
C1054 H1074 0.931 . S
C1055 C1051 1.460 . S
C1055 C1054 1.477 . S
C1055 H1075 0.930 . S
C1056 N1052 1.362 . S
C1056 C1053 1.431 . S
C1056 C1066 1.476 . S
H1057 C1051 0.929 . S
C1058 O1049 1.250 . S
C1058 O1050 1.258 . S
O1059 Mn1044 2.162 . S
O1059 C1047 1.281 . S
O1060 Mn1044 2.297 . S
O1060 C1047 1.236 . S
N1061 Mn1045 2.282 . S
N1061 C1062 1.328 . S
N1061 C1066 1.318 . S
C1062 N1061 1.328 . S
C1062 C1063 1.457 . S
C1062 H1067 0.929 . S
C1063 C1062 1.457 . S
C1063 C1064 1.291 . S
C1063 H1076 0.931 . S
C1064 C1063 1.291 . S
C1064 C1065 1.373 . S
C1064 H1077 0.929 . S
C1065 C1064 1.373 . S
C1065 C1066 1.396 . S
C1065 C1072 1.403 . S
C1066 C1056 1.476 . S
C1066 N1061 1.318 . S
C1066 C1065 1.396 . S
H1067 C1062 0.929 . S
O1068 Mn1044 2.385 . S
O1068 C1046 1.234 . S
O1069 Mn1044 2.209 . S
O1069 Mn1045 2.215 . S
O1069 C1046 1.283 . S
O1070 Mn1044 2.094 . S
O1070 C1048 1.240 . S
O1071 Mn1045 2.117 . S
O1071 C1048 1.264 . S
C1072 C1065 1.403 . S
C1072 C1073 1.399 . S
C1072 H1078 0.929 . S
C1073 C1053 1.449 . S
C1073 C1072 1.399 . S
C1073 H1079 0.930 . S
H1074 C1054 0.931 . S
H1075 C1055 0.930 . S
H1076 C1063 0.931 . S
H1077 C1064 0.929 . S
H1078 C1072 0.929 . S
H1079 C1073 0.930 . S
Mn1080 O1085 2.095 . S
Mn1080 O1095 2.162 . S
Mn1080 O1096 2.297 . S
Mn1080 O1104 2.385 . S
Mn1080 O1105 2.209 . S
Mn1080 O1106 2.094 . S
Mn1081 O1086 2.121 . S
Mn1081 N1088 2.257 1_455 S
Mn1081 N1097 2.282 . S
Mn1081 O1105 2.215 . S
Mn1081 O1107 2.117 . S
C1082 O1104 1.234 . S
C1082 O1105 1.283 . S
C1083 O1095 1.281 . S
C1083 O1096 1.236 . S
C1084 O1106 1.240 . S
C1084 O1107 1.264 . S
O1085 Mn1080 2.095 . S
O1085 C1094 1.250 . S
O1086 Mn1081 2.121 . S
O1086 C1094 1.258 . S
C1087 N1088 1.326 . S
C1087 C1091 1.460 . S
C1087 H1093 0.929 . S
N1088 Mn1081 2.257 1_655 S
N1088 C1087 1.326 . S
N1088 C1092 1.362 . S
C1089 C1090 1.258 . S
C1089 C1092 1.431 . S
C1089 C1109 1.449 . S
C1090 C1089 1.258 . S
C1090 C1091 1.477 . S
C1090 H1110 0.931 . S
C1091 C1087 1.460 . S
C1091 C1090 1.477 . S
C1091 H1111 0.930 . S
C1092 N1088 1.362 . S
C1092 C1089 1.431 . S
C1092 C1102 1.476 1_655 S
H1093 C1087 0.929 . S
C1094 O1085 1.250 . S
C1094 O1086 1.258 . S
O1095 Mn1080 2.162 . S
O1095 C1083 1.281 . S
O1096 Mn1080 2.297 . S
O1096 C1083 1.236 . S
N1097 Mn1081 2.282 . S
N1097 C1098 1.328 . S
N1097 C1102 1.318 . S
C1098 N1097 1.328 . S
C1098 C1099 1.457 . S
C1098 H1103 0.929 . S
C1099 C1098 1.457 . S
C1099 C1100 1.291 . S
C1099 H1112 0.931 . S
C1100 C1099 1.291 . S
C1100 C1101 1.373 . S
C1100 H1113 0.929 . S
C1101 C1100 1.373 . S
C1101 C1102 1.396 . S
C1101 C1108 1.403 1_455 S
C1102 C1092 1.476 1_455 S
C1102 N1097 1.318 . S
C1102 C1101 1.396 . S
H1103 C1098 0.929 . S
O1104 Mn1080 2.385 . S
O1104 C1082 1.234 . S
O1105 Mn1080 2.209 . S
O1105 Mn1081 2.215 . S
O1105 C1082 1.283 . S
O1106 Mn1080 2.094 . S
O1106 C1084 1.240 . S
O1107 Mn1081 2.117 . S
O1107 C1084 1.264 . S
C1108 C1101 1.403 1_655 S
C1108 C1109 1.399 . S
C1108 H1114 0.929 . S
C1109 C1089 1.449 . S
C1109 C1108 1.399 . S
C1109 H1115 0.930 . S
H1110 C1090 0.931 . S
H1111 C1091 0.930 . S
H1112 C1099 0.931 . S
H1113 C1100 0.929 . S
H1114 C1108 0.929 . S
H1115 C1109 0.930 . S
Mn1116 O1121 2.095 . S
Mn1116 O1131 2.162 . S
Mn1116 O1132 2.297 . S
Mn1116 O1140 2.385 . S
Mn1116 O1141 2.209 . S
Mn1116 O1142 2.094 . S
Mn1117 O1122 2.121 . S
Mn1117 N1124 2.257 . S
Mn1117 N1133 2.282 . S
Mn1117 O1141 2.215 . S
Mn1117 O1143 2.117 . S
C1118 O1140 1.234 . S
C1118 O1141 1.283 . S
C1119 O1131 1.281 . S
C1119 O1132 1.236 . S
C1120 O1142 1.240 . S
C1120 O1143 1.264 . S
O1121 Mn1116 2.095 . S
O1121 C1130 1.250 . S
O1122 Mn1117 2.121 . S
O1122 C1130 1.258 . S
C1123 N1124 1.326 . S
C1123 C1127 1.460 . S
C1123 H1129 0.929 . S
N1124 Mn1117 2.257 . S
N1124 C1123 1.326 . S
N1124 C1128 1.362 . S
C1125 C1126 1.258 . S
C1125 C1128 1.431 . S
C1125 C1145 1.449 . S
C1126 C1125 1.258 . S
C1126 C1127 1.477 . S
C1126 H1146 0.931 . S
C1127 C1123 1.460 . S
C1127 C1126 1.477 . S
C1127 H1147 0.930 . S
C1128 N1124 1.362 . S
C1128 C1125 1.431 . S
C1128 C1138 1.476 . S
H1129 C1123 0.929 . S
C1130 O1121 1.250 . S
C1130 O1122 1.258 . S
O1131 Mn1116 2.162 . S
O1131 C1119 1.281 . S
O1132 Mn1116 2.297 . S
O1132 C1119 1.236 . S
N1133 Mn1117 2.282 . S
N1133 C1134 1.328 . S
N1133 C1138 1.318 . S
C1134 N1133 1.328 . S
C1134 C1135 1.457 . S
C1134 H1139 0.929 . S
C1135 C1134 1.457 . S
C1135 C1136 1.291 . S
C1135 H1148 0.931 . S
C1136 C1135 1.291 . S
C1136 C1137 1.373 . S
C1136 H1149 0.929 . S
C1137 C1136 1.373 . S
C1137 C1138 1.396 . S
C1137 C1144 1.403 . S
C1138 C1128 1.476 . S
C1138 N1133 1.318 . S
C1138 C1137 1.396 . S
H1139 C1134 0.929 . S
O1140 Mn1116 2.385 . S
O1140 C1118 1.234 . S
O1141 Mn1116 2.209 . S
O1141 Mn1117 2.215 . S
O1141 C1118 1.283 . S
O1142 Mn1116 2.094 . S
O1142 C1120 1.240 . S
O1143 Mn1117 2.117 . S
O1143 C1120 1.264 . S
C1144 C1137 1.403 . S
C1144 C1145 1.399 . S
C1144 H1150 0.929 . S
C1145 C1125 1.449 . S
C1145 C1144 1.399 . S
C1145 H1151 0.930 . S
H1146 C1126 0.931 . S
H1147 C1127 0.930 . S
H1148 C1135 0.931 . S
H1149 C1136 0.929 . S
H1150 C1144 0.929 . S
H1151 C1145 0.930 . S
H1152 C1164 0.930 . S
H1153 C1166 0.930 . S
H1154 C1167 0.930 1_455 S
H1155 C1171 0.959 . S
H1156 C1171 0.959 . S
H1157 C1171 0.961 . S
H1158 C1172 0.960 . S
H1159 C1172 0.961 . S
H1160 C1172 0.959 . S
H1161 C1175 0.929 1_455 S
H1162 C1176 0.931 1_455 S
H1163 C1178 0.930 . S
C1164 H1152 0.930 . S
C1164 C1165 1.399 . S
C1164 C1169 1.399 . S
C1165 C1164 1.399 . S
C1165 C1166 1.376 . S
C1166 H1153 0.930 . S
C1166 C1165 1.376 . S
C1166 C1167 1.388 . S
C1167 H1154 0.930 1_655 S
C1167 C1166 1.388 . S
C1167 C1168 1.390 . S
C1168 C1167 1.390 . S
C1168 C1169 1.394 . S
C1168 C1174 1.465 . S
C1169 C1164 1.399 . S
C1169 C1168 1.394 . S
C1169 C1170 1.516 . S
C1170 C1169 1.516 . S
C1170 C1171 1.502 . S
C1170 C1172 1.561 . S
C1170 C1173 1.526 . S
C1171 H1155 0.959 . S
C1171 H1156 0.959 . S
C1171 H1157 0.961 . S
C1171 C1170 1.502 . S
C1172 H1158 0.960 . S
C1172 H1159 0.961 . S
C1172 H1160 0.959 . S
C1172 C1170 1.561 . S
C1173 C1170 1.526 . S
C1173 C1174 1.396 . S
C1173 C1178 1.390 . S
C1174 C1168 1.465 . S
C1174 C1173 1.396 . S
C1174 C1175 1.399 . S
C1175 H1161 0.929 1_655 S
C1175 C1174 1.399 . S
C1175 C1176 1.385 . S
C1176 H1162 0.931 1_655 S
C1176 C1175 1.385 . S
C1176 C1177 1.389 . S
C1177 C1176 1.389 . S
C1177 C1178 1.387 . S
C1178 H1163 0.930 . S
C1178 C1173 1.390 . S
C1178 C1177 1.387 . S
H1179 C1191 0.930 . S
H1180 C1193 0.930 . S
H1181 C1194 0.930 . S
H1182 C1198 0.959 . S
H1183 C1198 0.959 . S
H1184 C1198 0.961 . S
H1185 C1199 0.960 . S
H1186 C1199 0.961 . S
H1187 C1199 0.959 . S
H1188 C1202 0.929 . S
H1189 C1203 0.931 . S
H1190 C1205 0.930 . S
C1191 H1179 0.930 . S
C1191 C1192 1.399 . S
C1191 C1196 1.399 1_556 S
C1192 C1191 1.399 . S
C1192 C1193 1.376 . S
C1193 H1180 0.930 . S
C1193 C1192 1.376 . S
C1193 C1194 1.388 1_556 S
C1194 H1181 0.930 . S
C1194 C1193 1.388 1_554 S
C1194 C1195 1.390 . S
C1195 C1194 1.390 . S
C1195 C1196 1.394 . S
C1195 C1201 1.465 . S
C1196 C1191 1.399 1_554 S
C1196 C1195 1.394 . S
C1196 C1197 1.516 . S
C1197 C1196 1.516 . S
C1197 C1198 1.502 . S
C1197 C1199 1.561 . S
C1197 C1200 1.526 . S
C1198 H1182 0.959 . S
C1198 H1183 0.959 . S
C1198 H1184 0.961 . S
C1198 C1197 1.502 . S
C1199 H1185 0.960 . S
C1199 H1186 0.961 . S
C1199 H1187 0.959 . S
C1199 C1197 1.561 . S
C1200 C1197 1.526 . S
C1200 C1201 1.396 . S
C1200 C1205 1.390 . S
C1201 C1195 1.465 . S
C1201 C1200 1.396 . S
C1201 C1202 1.399 . S
C1202 H1188 0.929 . S
C1202 C1201 1.399 . S
C1202 C1203 1.385 . S
C1203 H1189 0.931 . S
C1203 C1202 1.385 . S
C1203 C1204 1.389 . S
C1204 C1203 1.389 . S
C1204 C1205 1.387 . S
C1205 H1190 0.930 . S
C1205 C1200 1.390 . S
C1205 C1204 1.387 . S
H1206 C1218 0.930 . S
H1207 C1220 0.930 . S
H1208 C1221 0.930 . S
H1209 C1225 0.959 . S
H1210 C1225 0.959 . S
H1211 C1225 0.961 . S
H1212 C1226 0.960 . S
H1213 C1226 0.961 . S
H1214 C1226 0.959 . S
H1215 C1229 0.929 . S
H1216 C1230 0.931 . S
H1217 C1232 0.930 . S
C1218 H1206 0.930 . S
C1218 C1219 1.399 . S
C1218 C1223 1.399 . S
C1219 C1218 1.399 . S
C1219 C1220 1.376 . S
C1220 H1207 0.930 . S
C1220 C1219 1.376 . S
C1220 C1221 1.388 . S
C1221 H1208 0.930 . S
C1221 C1220 1.388 . S
C1221 C1222 1.390 . S
C1222 C1221 1.390 . S
C1222 C1223 1.394 . S
C1222 C1228 1.465 . S
C1223 C1218 1.399 . S
C1223 C1222 1.394 . S
C1223 C1224 1.516 . S
C1224 C1223 1.516 . S
C1224 C1225 1.502 . S
C1224 C1226 1.561 . S
C1224 C1227 1.526 . S
C1225 H1209 0.959 . S
C1225 H1210 0.959 . S
C1225 H1211 0.961 . S
C1225 C1224 1.502 . S
C1226 H1212 0.960 . S
C1226 H1213 0.961 . S
C1226 H1214 0.959 . S
C1226 C1224 1.561 . S
C1227 C1224 1.526 . S
C1227 C1228 1.396 . S
C1227 C1232 1.390 . S
C1228 C1222 1.465 . S
C1228 C1227 1.396 . S
C1228 C1229 1.399 . S
C1229 H1215 0.929 . S
C1229 C1228 1.399 . S
C1229 C1230 1.385 . S
C1230 H1216 0.931 . S
C1230 C1229 1.385 . S
C1230 C1231 1.389 . S
C1231 C1230 1.389 . S
C1231 C1232 1.387 . S
C1232 H1217 0.930 . S
C1232 C1227 1.390 . S
C1232 C1231 1.387 . S
H1233 C1245 0.930 . S
H1234 C1247 0.930 . S
H1235 C1248 0.930 . S
H1236 C1252 0.959 . S
H1237 C1252 0.959 . S
H1238 C1252 0.961 . S
H1239 C1253 0.960 . S
H1240 C1253 0.961 . S
H1241 C1253 0.959 . S
H1242 C1256 0.929 . S
H1243 C1257 0.931 . S
H1244 C1259 0.930 . S
C1245 H1233 0.930 . S
C1245 C1246 1.399 . S
C1245 C1250 1.399 . S
C1246 C1245 1.399 . S
C1246 C1247 1.376 . S
C1247 H1234 0.930 . S
C1247 C1246 1.376 . S
C1247 C1248 1.388 . S
C1248 H1235 0.930 . S
C1248 C1247 1.388 . S
C1248 C1249 1.390 . S
C1249 C1248 1.390 . S
C1249 C1250 1.394 . S
C1249 C1255 1.465 . S
C1250 C1245 1.399 . S
C1250 C1249 1.394 . S
C1250 C1251 1.516 . S
C1251 C1250 1.516 . S
C1251 C1252 1.502 . S
C1251 C1253 1.561 . S
C1251 C1254 1.526 . S
C1252 H1236 0.959 . S
C1252 H1237 0.959 . S
C1252 H1238 0.961 . S
C1252 C1251 1.502 . S
C1253 H1239 0.960 . S
C1253 H1240 0.961 . S
C1253 H1241 0.959 . S
C1253 C1251 1.561 . S
C1254 C1251 1.526 . S
C1254 C1255 1.396 . S
C1254 C1259 1.390 . S
C1255 C1249 1.465 . S
C1255 C1254 1.396 . S
C1255 C1256 1.399 . S
C1256 H1242 0.929 . S
C1256 C1255 1.399 . S
C1256 C1257 1.385 . S
C1257 H1243 0.931 . S
C1257 C1256 1.385 . S
C1257 C1258 1.389 . S
C1258 C1257 1.389 . S
C1258 C1259 1.387 . S
C1259 H1244 0.930 . S
C1259 C1254 1.390 . S
C1259 C1258 1.387 . S
H1260 C1272 0.930 . S
H1261 C1274 0.930 . S
H1262 C1275 0.930 . S
H1263 C1279 0.959 . S
H1264 C1279 0.959 . S
H1265 C1279 0.961 . S
H1266 C1280 0.960 . S
H1267 C1280 0.961 . S
H1268 C1280 0.959 . S
H1269 C1283 0.929 . S
H1270 C1284 0.931 . S
H1271 C1286 0.930 . S
C1272 H1260 0.930 . S
C1272 C1273 1.399 . S
C1272 C1277 1.399 . S
C1273 C1272 1.399 . S
C1273 C1274 1.376 . S
C1274 H1261 0.930 . S
C1274 C1273 1.376 . S
C1274 C1275 1.388 . S
C1275 H1262 0.930 . S
C1275 C1274 1.388 . S
C1275 C1276 1.390 . S
C1276 C1275 1.390 . S
C1276 C1277 1.394 . S
C1276 C1282 1.465 . S
C1277 C1272 1.399 . S
C1277 C1276 1.394 . S
C1277 C1278 1.516 . S
C1278 C1277 1.516 . S
C1278 C1279 1.502 . S
C1278 C1280 1.561 1_655 S
C1278 C1281 1.526 . S
C1279 H1263 0.959 . S
C1279 H1264 0.959 . S
C1279 H1265 0.961 . S
C1279 C1278 1.502 . S
C1280 H1266 0.960 . S
C1280 H1267 0.961 . S
C1280 H1268 0.959 . S
C1280 C1278 1.561 1_455 S
C1281 C1278 1.526 . S
C1281 C1282 1.396 . S
C1281 C1286 1.390 . S
C1282 C1276 1.465 . S
C1282 C1281 1.396 . S
C1282 C1283 1.399 . S
C1283 H1269 0.929 . S
C1283 C1282 1.399 . S
C1283 C1284 1.385 . S
C1284 H1270 0.931 . S
C1284 C1283 1.385 . S
C1284 C1285 1.389 . S
C1285 C1284 1.389 . S
C1285 C1286 1.387 . S
C1286 H1271 0.930 . S
C1286 C1281 1.390 . S
C1286 C1285 1.387 . S
H1287 C1299 0.930 . S
H1288 C1301 0.930 . S
H1289 C1302 0.930 . S
H1290 C1306 0.959 . S
H1291 C1306 0.959 . S
H1292 C1306 0.961 . S
H1293 C1307 0.960 . S
H1294 C1307 0.961 . S
H1295 C1307 0.959 . S
H1296 C1310 0.929 . S
H1297 C1311 0.931 . S
H1298 C1313 0.930 . S
C1299 H1287 0.930 . S
C1299 C1300 1.399 . S
C1299 C1304 1.399 . S
C1300 C1299 1.399 . S
C1300 C1301 1.376 . S
C1301 H1288 0.930 . S
C1301 C1300 1.376 . S
C1301 C1302 1.388 . S
C1302 H1289 0.930 . S
C1302 C1301 1.388 . S
C1302 C1303 1.390 . S
C1303 C1302 1.390 . S
C1303 C1304 1.394 . S
C1303 C1309 1.465 . S
C1304 C1299 1.399 . S
C1304 C1303 1.394 . S
C1304 C1305 1.516 . S
C1305 C1304 1.516 . S
C1305 C1306 1.502 . S
C1305 C1307 1.561 . S
C1305 C1308 1.526 . S
C1306 H1290 0.959 . S
C1306 H1291 0.959 . S
C1306 H1292 0.961 . S
C1306 C1305 1.502 . S
C1307 H1293 0.960 . S
C1307 H1294 0.961 . S
C1307 H1295 0.959 . S
C1307 C1305 1.561 . S
C1308 C1305 1.526 . S
C1308 C1309 1.396 . S
C1308 C1313 1.390 1_556 S
C1309 C1303 1.465 . S
C1309 C1308 1.396 . S
C1309 C1310 1.399 . S
C1310 H1296 0.929 . S
C1310 C1309 1.399 . S
C1310 C1311 1.385 1_556 S
C1311 H1297 0.931 . S
C1311 C1310 1.385 1_554 S
C1311 C1312 1.389 . S
C1312 C1311 1.389 . S
C1312 C1313 1.387 . S
C1313 H1298 0.930 . S
C1313 C1308 1.390 1_554 S
C1313 C1312 1.387 . S
H1314 C1326 0.930 . S
H1315 C1328 0.930 . S
H1316 C1329 0.930 . S
H1317 C1333 0.959 . S
H1318 C1333 0.959 . S
H1319 C1333 0.961 . S
H1320 C1334 0.960 . S
H1321 C1334 0.961 . S
H1322 C1334 0.959 . S
H1323 C1337 0.929 . S
H1324 C1338 0.931 . S
H1325 C1340 0.930 . S
C1326 H1314 0.930 . S
C1326 C1327 1.399 . S
C1326 C1331 1.399 . S
C1327 C1326 1.399 . S
C1327 C1328 1.376 . S
C1328 H1315 0.930 . S
C1328 C1327 1.376 . S
C1328 C1329 1.388 . S
C1329 H1316 0.930 . S
C1329 C1328 1.388 . S
C1329 C1330 1.390 . S
C1330 C1329 1.390 . S
C1330 C1331 1.394 . S
C1330 C1336 1.465 . S
C1331 C1326 1.399 . S
C1331 C1330 1.394 . S
C1331 C1332 1.516 . S
C1332 C1331 1.516 . S
C1332 C1333 1.502 . S
C1332 C1334 1.561 . S
C1332 C1335 1.526 . S
C1333 H1317 0.959 . S
C1333 H1318 0.959 . S
C1333 H1319 0.961 . S
C1333 C1332 1.502 . S
C1334 H1320 0.960 . S
C1334 H1321 0.961 . S
C1334 H1322 0.959 . S
C1334 C1332 1.561 . S
C1335 C1332 1.526 . S
C1335 C1336 1.396 . S
C1335 C1340 1.390 . S
C1336 C1330 1.465 . S
C1336 C1335 1.396 . S
C1336 C1337 1.399 . S
C1337 H1323 0.929 . S
C1337 C1336 1.399 . S
C1337 C1338 1.385 . S
C1338 H1324 0.931 . S
C1338 C1337 1.385 . S
C1338 C1339 1.389 . S
C1339 C1338 1.389 . S
C1339 C1340 1.387 . S
C1340 H1325 0.930 . S
C1340 C1335 1.390 . S
C1340 C1339 1.387 . S
H1341 C1353 0.930 . S
H1342 C1355 0.930 . S
H1343 C1356 0.930 . S
H1344 C1360 0.959 . S
H1345 C1360 0.959 . S
H1346 C1360 0.961 . S
H1347 C1361 0.960 . S
H1348 C1361 0.961 . S
H1349 C1361 0.959 . S
H1350 C1364 0.929 . S
H1351 C1365 0.931 . S
H1352 C1367 0.930 . S
C1353 H1341 0.930 . S
C1353 C1354 1.399 . S
C1353 C1358 1.399 . S
C1354 C1353 1.399 . S
C1354 C1355 1.376 . S
C1355 H1342 0.930 . S
C1355 C1354 1.376 . S
C1355 C1356 1.388 . S
C1356 H1343 0.930 . S
C1356 C1355 1.388 . S
C1356 C1357 1.390 . S
C1357 C1356 1.390 . S
C1357 C1358 1.394 . S
C1357 C1363 1.465 . S
C1358 C1353 1.399 . S
C1358 C1357 1.394 . S
C1358 C1359 1.516 . S
C1359 C1358 1.516 . S
C1359 C1360 1.502 . S
C1359 C1361 1.561 . S
C1359 C1362 1.526 . S
C1360 H1344 0.959 . S
C1360 H1345 0.959 . S
C1360 H1346 0.961 . S
C1360 C1359 1.502 . S
C1361 H1347 0.960 . S
C1361 H1348 0.961 . S
C1361 H1349 0.959 . S
C1361 C1359 1.561 . S
C1362 C1359 1.526 . S
C1362 C1363 1.396 . S
C1362 C1367 1.390 . S
C1363 C1357 1.465 . S
C1363 C1362 1.396 . S
C1363 C1364 1.399 . S
C1364 H1350 0.929 . S
C1364 C1363 1.399 . S
C1364 C1365 1.385 . S
C1365 H1351 0.931 . S
C1365 C1364 1.385 . S
C1365 C1366 1.389 . S
C1366 C1365 1.389 . S
C1366 C1367 1.387 . S
C1367 H1352 0.930 . S
C1367 C1362 1.390 . S
C1367 C1366 1.387 . S
H1368 C1380 0.930 . S
H1369 C1382 0.930 . S
H1370 C1383 0.930 . S
H1371 C1387 0.959 . S
H1372 C1387 0.959 . S
H1373 C1387 0.961 . S
H1374 C1388 0.960 . S
H1375 C1388 0.961 . S
H1376 C1388 1.015 . S
H1377 C1391 0.929 . S
H1378 C1392 0.931 . S
H1379 C1394 0.930 . S
C1380 H1368 0.930 . S
C1380 C1381 1.399 . S
C1380 C1385 1.399 . S
C1381 C1380 1.399 . S
C1381 C1382 1.376 . S
C1382 H1369 0.930 . S
C1382 C1381 1.376 . S
C1382 C1383 1.388 . S
C1383 H1370 0.930 . S
C1383 C1382 1.388 . S
C1383 C1384 1.390 . S
C1384 C1383 1.390 . S
C1384 C1385 1.394 . S
C1384 C1390 1.465 . S
C1385 C1380 1.399 . S
C1385 C1384 1.394 . S
C1385 C1386 1.516 . S
C1386 C1385 1.516 . S
C1386 C1387 1.502 . S
C1386 C1388 1.561 . S
C1386 C1389 1.526 . S
C1387 H1371 0.959 . S
C1387 H1372 0.959 . S
C1387 H1373 0.961 . S
C1387 C1386 1.502 . S
C1388 H1374 0.960 . S
C1388 H1375 0.961 . S
C1388 H1376 1.015 . S
C1388 C1386 1.561 . S
C1389 C1386 1.526 . S
C1389 C1390 1.396 . S
C1389 C1394 1.390 . S
C1390 C1384 1.465 . S
C1390 C1389 1.396 . S
C1390 C1391 1.399 . S
C1391 H1377 0.929 . S
C1391 C1390 1.399 . S
C1391 C1392 1.385 . S
C1392 H1378 0.931 . S
C1392 C1391 1.385 . S
C1392 C1393 1.389 . S
C1393 C1392 1.389 . S
C1393 C1394 1.387 . S
C1394 H1379 0.930 . S
C1394 C1389 1.390 . S
C1394 C1393 1.387 . S
H1395 C1407 0.930 . S
H1396 C1409 0.930 . S
H1397 C1410 0.930 . S
H1398 C1414 0.959 . S
H1399 C1414 0.959 . S
H1400 C1414 0.961 . S
H1401 C1415 0.960 . S
H1402 C1415 0.961 . S
H1403 C1415 0.959 . S
H1404 C1418 0.929 . S
H1405 C1419 0.931 . S
H1406 C1421 0.930 . S
C1407 H1395 0.930 . S
C1407 C1408 1.399 . S
C1407 C1412 1.399 1_554 S
C1408 C1407 1.399 . S
C1408 C1409 1.376 . S
C1409 H1396 0.930 . S
C1409 C1408 1.376 . S
C1409 C1410 1.388 . S
C1410 H1397 0.930 . S
C1410 C1409 1.388 . S
C1410 C1411 1.390 1_554 S
C1411 C1410 1.390 1_556 S
C1411 C1412 1.394 . S
C1411 C1417 1.465 . S
C1412 C1407 1.399 1_556 S
C1412 C1411 1.394 . S
C1412 C1413 1.516 . S
C1413 C1412 1.516 . S
C1413 C1414 1.502 . S
C1413 C1415 1.561 . S
C1413 C1416 1.526 . S
C1414 H1398 0.959 . S
C1414 H1399 0.959 . S
C1414 H1400 0.961 . S
C1414 C1413 1.502 . S
C1415 H1401 0.960 . S
C1415 H1402 0.961 . S
C1415 H1403 0.959 . S
C1415 C1413 1.561 . S
C1416 C1413 1.526 . S
C1416 C1417 1.396 . S
C1416 C1421 1.390 . S
C1417 C1411 1.465 . S
C1417 C1416 1.396 . S
C1417 C1418 1.399 . S
C1418 H1404 0.929 . S
C1418 C1417 1.399 . S
C1418 C1419 1.385 . S
C1419 H1405 0.931 . S
C1419 C1418 1.385 . S
C1419 C1420 1.389 . S
C1420 C1419 1.389 . S
C1420 C1421 1.387 . S
C1421 H1406 0.930 . S
C1421 C1416 1.390 . S
C1421 C1420 1.387 . S
H1422 C1434 0.930 . S
H1423 C1436 0.930 . S
H1424 C1437 0.930 . S
H1425 C1441 0.959 . S
H1426 C1441 0.959 . S
H1427 C1441 0.961 . S
H1428 C1442 0.960 . S
H1429 C1442 0.961 . S
H1430 C1442 0.959 . S
H1431 C1445 0.929 . S
H1432 C1446 0.931 . S
H1433 C1448 0.930 . S
C1434 H1422 0.930 . S
C1434 C1435 1.399 . S
C1434 C1439 1.399 . S
C1435 C1434 1.399 . S
C1435 C1436 1.376 . S
C1436 H1423 0.930 . S
C1436 C1435 1.376 . S
C1436 C1437 1.388 . S
C1437 H1424 0.930 . S
C1437 C1436 1.388 . S
C1437 C1438 1.390 . S
C1438 C1437 1.390 . S
C1438 C1439 1.394 . S
C1438 C1444 1.465 . S
C1439 C1434 1.399 . S
C1439 C1438 1.394 . S
C1439 C1440 1.516 . S
C1440 C1439 1.516 . S
C1440 C1441 1.502 . S
C1440 C1442 1.561 . S
C1440 C1443 1.526 . S
C1441 H1425 0.959 . S
C1441 H1426 0.959 . S
C1441 H1427 0.961 . S
C1441 C1440 1.502 . S
C1442 H1428 0.960 . S
C1442 H1429 0.961 . S
C1442 H1430 0.959 . S
C1442 C1440 1.561 . S
C1443 C1440 1.526 . S
C1443 C1444 1.396 . S
C1443 C1448 1.390 . S
C1444 C1438 1.465 . S
C1444 C1443 1.396 . S
C1444 C1445 1.399 . S
C1445 H1431 0.929 . S
C1445 C1444 1.399 . S
C1445 C1446 1.385 . S
C1446 H1432 0.931 . S
C1446 C1445 1.385 . S
C1446 C1447 1.389 . S
C1447 C1446 1.389 . S
C1447 C1448 1.387 . S
C1448 H1433 0.930 . S
C1448 C1443 1.390 . S
C1448 C1447 1.387 . S
H1449 C1461 0.930 . S
H1450 C1463 0.930 . S
H1451 C1464 0.930 . S
H1452 C1468 0.959 . S
H1453 C1468 0.959 . S
H1454 C1468 0.961 . S
H1455 C1469 0.960 . S
H1456 C1469 0.961 . S
H1457 C1469 0.959 . S
H1458 C1472 0.929 . S
H1459 C1473 0.931 . S
H1460 C1475 0.930 . S
C1461 H1449 0.930 . S
C1461 C1462 1.399 . S
C1461 C1466 1.399 . S
C1462 C1461 1.399 . S
C1462 C1463 1.376 . S
C1463 H1450 0.930 . S
C1463 C1462 1.376 . S
C1463 C1464 1.388 . S
C1464 H1451 0.930 . S
C1464 C1463 1.388 . S
C1464 C1465 1.390 . S
C1465 C1464 1.390 . S
C1465 C1466 1.394 . S
C1465 C1471 1.465 . S
C1466 C1461 1.399 . S
C1466 C1465 1.394 . S
C1466 C1467 1.516 . S
C1467 C1466 1.516 . S
C1467 C1468 1.502 . S
C1467 C1469 1.561 . S
C1467 C1470 1.526 . S
C1468 H1452 0.959 . S
C1468 H1453 0.959 . S
C1468 H1454 0.961 . S
C1468 C1467 1.502 . S
C1469 H1455 0.960 . S
C1469 H1456 0.961 . S
C1469 H1457 0.959 . S
C1469 C1467 1.561 . S
C1470 C1467 1.526 . S
C1470 C1471 1.396 . S
C1470 C1475 1.390 . S
C1471 C1465 1.465 . S
C1471 C1470 1.396 . S
C1471 C1472 1.399 . S
C1472 H1458 0.929 . S
C1472 C1471 1.399 . S
C1472 C1473 1.385 . S
C1473 H1459 0.931 . S
C1473 C1472 1.385 . S
C1473 C1474 1.389 . S
C1474 C1473 1.389 . S
C1474 C1475 1.387 . S
C1475 H1460 0.930 . S
C1475 C1470 1.390 . S
C1475 C1474 1.387 . S
H1476 C1488 0.930 . S
H1477 C1490 0.930 1_455 S
H1478 C1491 0.930 . S
H1479 C1495 0.959 . S
H1480 C1495 0.959 . S
H1481 C1495 0.961 . S
H1482 C1496 0.960 . S
H1483 C1496 0.961 . S
H1484 C1496 0.959 . S
H1485 C1499 0.929 . S
H1486 C1500 0.948 . S
H1487 C1502 0.930 . S
C1488 H1476 0.930 . S
C1488 C1489 1.399 . S
C1488 C1493 1.399 . S
C1489 C1488 1.399 . S
C1489 C1490 1.376 . S
C1490 H1477 0.930 1_655 S
C1490 C1489 1.376 . S
C1490 C1491 1.388 1_655 S
C1491 H1478 0.930 . S
C1491 C1490 1.388 1_455 S
C1491 C1492 1.390 1_455 S
C1492 C1491 1.390 1_655 S
C1492 C1493 1.394 . S
C1492 C1498 1.465 . S
C1493 C1488 1.399 . S
C1493 C1492 1.394 . S
C1493 C1494 1.516 . S
C1494 C1493 1.516 . S
C1494 C1495 1.502 . S
C1494 C1496 1.561 . S
C1494 C1497 1.526 . S
C1495 H1479 0.959 . S
C1495 H1480 0.959 . S
C1495 H1481 0.961 . S
C1495 C1494 1.502 . S
C1496 H1482 0.960 . S
C1496 H1483 0.961 . S
C1496 H1484 0.959 . S
C1496 C1494 1.561 . S
C1497 C1494 1.526 . S
C1497 C1498 1.396 . S
C1497 C1502 1.390 . S
C1498 C1492 1.465 . S
C1498 C1497 1.396 . S
C1498 C1499 1.399 1_655 S
C1499 H1485 0.929 . S
C1499 C1498 1.399 1_455 S
C1499 C1500 1.389 . S
C1500 H1486 0.948 . S
C1500 C1499 1.389 . S
C1500 C1501 1.368 1_455 S
C1501 C1500 1.368 1_655 S
C1501 C1502 1.387 . S
C1502 H1487 0.930 . S
C1502 C1497 1.390 . S
C1502 C1501 1.387 . S
H1503 C1515 0.930 . S
H1504 C1517 0.930 . S
H1505 C1518 0.930 . S
H1506 C1522 0.959 . S
H1507 C1522 0.959 . S
H1508 C1522 0.961 . S
H1509 C1523 0.960 . S
H1510 C1523 0.961 . S
H1511 C1523 0.959 . S
H1512 C1526 0.923 1_554 S
H1513 C1527 0.931 . S
H1514 C1529 0.930 . S
C1515 H1503 0.930 . S
C1515 C1516 1.399 . S
C1515 C1520 1.399 . S
C1516 C1515 1.399 . S
C1516 C1517 1.376 . S
C1517 H1504 0.930 . S
C1517 C1516 1.376 . S
C1517 C1518 1.388 . S
C1518 H1505 0.930 . S
C1518 C1517 1.388 . S
C1518 C1519 1.390 . S
C1519 C1518 1.390 . S
C1519 C1520 1.394 . S
C1519 C1525 1.465 . S
C1520 C1515 1.399 . S
C1520 C1519 1.394 . S
C1520 C1521 1.516 . S
C1521 C1520 1.516 . S
C1521 C1522 1.502 . S
C1521 C1523 1.561 . S
C1521 C1524 1.526 . S
C1522 H1506 0.959 . S
C1522 H1507 0.959 . S
C1522 H1508 0.961 . S
C1522 C1521 1.502 . S
C1523 H1509 0.960 . S
C1523 H1510 0.961 . S
C1523 H1511 0.959 . S
C1523 C1521 1.561 . S
C1524 C1521 1.526 . S
C1524 C1525 1.396 . S
C1524 C1529 1.390 1_554 S
C1525 C1519 1.465 . S
C1525 C1524 1.396 . S
C1525 C1526 1.387 1_554 S
C1526 H1512 0.923 1_556 S
C1526 C1525 1.387 1_556 S
C1526 C1527 1.404 . S
C1527 H1513 0.931 . S
C1527 C1526 1.404 . S
C1527 C1528 1.389 . S
C1528 C1527 1.389 . S
C1528 C1529 1.387 . S
C1529 H1514 0.930 . S
C1529 C1524 1.390 1_556 S
C1529 C1528 1.387 . S
H1530 C1542 0.930 . S
H1531 C1544 0.930 . S
H1532 C1545 0.930 . S
H1533 C1549 0.959 . S
H1534 C1549 0.959 . S
H1535 C1549 0.961 . S
H1536 C1550 0.960 . S
H1537 C1550 0.961 . S
H1538 C1550 0.959 . S
H1539 C1553 0.929 . S
H1540 C1554 0.931 . S
H1541 C1556 0.930 . S
C1542 H1530 0.930 . S
C1542 C1543 1.399 . S
C1542 C1547 1.399 . S
C1543 C1542 1.399 . S
C1543 C1544 1.376 . S
C1544 H1531 0.930 . S
C1544 C1543 1.376 . S
C1544 C1545 1.388 . S
C1545 H1532 0.930 . S
C1545 C1544 1.388 . S
C1545 C1546 1.390 . S
C1546 C1545 1.390 . S
C1546 C1547 1.394 . S
C1546 C1552 1.465 . S
C1547 C1542 1.399 . S
C1547 C1546 1.394 . S
C1547 C1548 1.516 . S
C1548 C1547 1.516 . S
C1548 C1549 1.502 . S
C1548 C1550 1.561 . S
C1548 C1551 1.526 . S
C1549 H1533 0.959 . S
C1549 H1534 0.959 . S
C1549 H1535 0.961 . S
C1549 C1548 1.502 . S
C1550 H1536 0.960 . S
C1550 H1537 0.961 . S
C1550 H1538 0.959 . S
C1550 C1548 1.561 . S
C1551 C1548 1.526 . S
C1551 C1552 1.396 . S
C1551 C1556 1.390 . S
C1552 C1546 1.465 . S
C1552 C1551 1.396 . S
C1552 C1553 1.399 . S
C1553 H1539 0.929 . S
C1553 C1552 1.399 . S
C1553 C1554 1.385 . S
C1554 H1540 0.931 . S
C1554 C1553 1.385 . S
C1554 C1555 1.389 . S
C1555 C1554 1.389 . S
C1555 C1556 1.387 . S
C1556 H1541 0.930 . S
C1556 C1551 1.390 . S
C1556 C1555 1.387 . S
H1557 C1569 0.930 . S
H1558 C1571 0.930 . S
H1559 C1572 0.930 . S
H1560 C1576 0.959 . S
H1561 C1576 0.959 . S
H1562 C1576 0.961 . S
H1563 C1577 0.960 . S
H1564 C1577 0.961 . S
H1565 C1577 0.959 . S
H1566 C1580 0.929 . S
H1567 C1581 0.931 . S
H1568 C1583 0.930 . S
C1569 H1557 0.930 . S
C1569 C1570 1.399 . S
C1569 C1574 1.399 . S
C1570 C1569 1.399 . S
C1570 C1571 1.376 . S
C1571 H1558 0.930 . S
C1571 C1570 1.376 . S
C1571 C1572 1.388 . S
C1572 H1559 0.930 . S
C1572 C1571 1.388 . S
C1572 C1573 1.390 . S
C1573 C1572 1.390 . S
C1573 C1574 1.394 . S
C1573 C1579 1.465 . S
C1574 C1569 1.399 . S
C1574 C1573 1.394 . S
C1574 C1575 1.516 . S
C1575 C1574 1.516 . S
C1575 C1576 1.502 . S
C1575 C1577 1.561 . S
C1575 C1578 1.526 . S
C1576 H1560 0.959 . S
C1576 H1561 0.959 . S
C1576 H1562 0.961 . S
C1576 C1575 1.502 . S
C1577 H1563 0.960 . S
C1577 H1564 0.961 . S
C1577 H1565 0.959 . S
C1577 C1575 1.561 . S
C1578 C1575 1.526 . S
C1578 C1579 1.396 . S
C1578 C1583 1.390 . S
C1579 C1573 1.465 . S
C1579 C1578 1.396 . S
C1579 C1580 1.399 . S
C1580 H1566 0.929 . S
C1580 C1579 1.399 . S
C1580 C1581 1.385 . S
C1581 H1567 0.931 . S
C1581 C1580 1.385 . S
C1581 C1582 1.389 . S
C1582 C1581 1.389 . S
C1582 C1583 1.387 . S
C1583 H1568 0.930 . S
C1583 C1578 1.390 . S
C1583 C1582 1.387 . S
H1584 C1596 0.930 . S
H1585 C1598 0.930 . S
H1586 C1599 0.930 . S
H1587 C1603 0.959 . S
H1588 C1603 0.959 . S
H1589 C1603 0.961 . S
H1590 C1604 0.960 . S
H1591 C1604 0.961 . S
H1592 C1604 0.959 . S
H1593 C1607 0.929 . S
H1594 C1608 0.931 . S
H1595 C1610 0.930 . S
C1596 H1584 0.930 . S
C1596 C1597 1.399 . S
C1596 C1601 1.399 . S
C1597 C1596 1.399 . S
C1597 C1598 1.376 . S
C1598 H1585 0.930 . S
C1598 C1597 1.376 . S
C1598 C1599 1.388 . S
C1599 H1586 0.930 . S
C1599 C1598 1.388 . S
C1599 C1600 1.390 . S
C1600 C1599 1.390 . S
C1600 C1601 1.394 . S
C1600 C1606 1.465 . S
C1601 C1596 1.399 . S
C1601 C1600 1.394 . S
C1601 C1602 1.516 . S
C1602 C1601 1.516 . S
C1602 C1603 1.502 . S
C1602 C1604 1.561 . S
C1602 C1605 1.526 . S
C1603 H1587 0.959 . S
C1603 H1588 0.959 . S
C1603 H1589 0.961 . S
C1603 C1602 1.502 . S
C1604 H1590 0.960 . S
C1604 H1591 0.961 . S
C1604 H1592 0.959 . S
C1604 C1602 1.561 . S
C1605 C1602 1.526 . S
C1605 C1606 1.396 . S
C1605 C1610 1.390 . S
C1606 C1600 1.465 . S
C1606 C1605 1.396 . S
C1606 C1607 1.399 . S
C1607 H1593 0.929 . S
C1607 C1606 1.399 . S
C1607 C1608 1.385 . S
C1608 H1594 0.931 . S
C1608 C1607 1.385 . S
C1608 C1609 1.389 . S
C1609 C1608 1.389 . S
C1609 C1610 1.387 . S
C1610 H1595 0.930 . S
C1610 C1605 1.390 . S
C1610 C1609 1.387 . S
H1611 C1623 0.930 . S
H1612 C1625 0.930 . S
H1613 C1626 0.930 . S
H1614 C1630 0.959 . S
H1615 C1630 0.959 . S
H1616 C1630 0.961 . S
H1617 C1631 0.960 . S
H1618 C1631 0.961 . S
H1619 C1631 0.959 . S
H1620 C1634 0.929 . S
H1621 C1635 0.931 . S
H1622 C1637 0.930 . S
C1623 H1611 0.930 . S
C1623 C1624 1.399 . S
C1623 C1628 1.399 . S
C1624 C1623 1.399 . S
C1624 C1625 1.376 . S
C1625 H1612 0.930 . S
C1625 C1624 1.376 . S
C1625 C1626 1.388 . S
C1626 H1613 0.930 . S
C1626 C1625 1.388 . S
C1626 C1627 1.390 . S
C1627 C1626 1.390 . S
C1627 C1628 1.394 . S
C1627 C1633 1.465 . S
C1628 C1623 1.399 . S
C1628 C1627 1.394 . S
C1628 C1629 1.516 . S
C1629 C1628 1.516 . S
C1629 C1630 1.502 . S
C1629 C1631 1.561 . S
C1629 C1632 1.526 . S
C1630 H1614 0.959 . S
C1630 H1615 0.959 . S
C1630 H1616 0.961 . S
C1630 C1629 1.502 . S
C1631 H1617 0.960 . S
C1631 H1618 0.961 . S
C1631 H1619 0.959 . S
C1631 C1629 1.561 . S
C1632 C1629 1.526 . S
C1632 C1633 1.396 . S
C1632 C1637 1.390 . S
C1633 C1627 1.465 . S
C1633 C1632 1.396 . S
C1633 C1634 1.399 . S
C1634 H1620 0.929 . S
C1634 C1633 1.399 . S
C1634 C1635 1.385 . S
C1635 H1621 0.931 . S
C1635 C1634 1.385 . S
C1635 C1636 1.389 . S
C1636 C1635 1.389 . S
C1636 C1637 1.387 . S
C1637 H1622 0.930 . S
C1637 C1632 1.390 . S
C1637 C1636 1.387 . S
H1638 C1650 0.930 . S
H1639 C1652 0.930 . S
H1640 C1653 0.930 . S
H1641 C1657 0.959 . S
H1642 C1657 0.959 . S
H1643 C1657 0.961 . S
H1644 C1658 0.960 . S
H1645 C1658 0.961 . S
H1646 C1658 0.959 . S
H1647 C1661 0.929 . S
H1648 C1662 0.931 . S
H1649 C1664 0.930 . S
C1650 H1638 0.930 . S
C1650 C1651 1.399 . S
C1650 C1655 1.399 . S
C1651 C1650 1.399 . S
C1651 C1652 1.376 . S
C1652 H1639 0.930 . S
C1652 C1651 1.376 . S
C1652 C1653 1.388 . S
C1653 H1640 0.930 . S
C1653 C1652 1.388 . S
C1653 C1654 1.390 . S
C1654 C1653 1.390 . S
C1654 C1655 1.394 . S
C1654 C1660 1.465 . S
C1655 C1650 1.399 . S
C1655 C1654 1.394 . S
C1655 C1656 1.516 . S
C1656 C1655 1.516 . S
C1656 C1657 1.502 1_455 S
C1656 C1658 1.561 . S
C1656 C1659 1.526 . S
C1657 H1641 0.959 . S
C1657 H1642 0.959 . S
C1657 H1643 0.961 . S
C1657 C1656 1.502 1_655 S
C1658 H1644 0.960 . S
C1658 H1645 0.961 . S
C1658 H1646 0.959 . S
C1658 C1656 1.561 . S
C1659 C1656 1.526 . S
C1659 C1660 1.396 . S
C1659 C1664 1.390 . S
C1660 C1654 1.465 . S
C1660 C1659 1.396 . S
C1660 C1661 1.399 . S
C1661 H1647 0.929 . S
C1661 C1660 1.399 . S
C1661 C1662 1.385 . S
C1662 H1648 0.931 . S
C1662 C1661 1.385 . S
C1662 C1663 1.389 . S
C1663 C1662 1.389 . S
C1663 C1664 1.387 . S
C1664 H1649 0.930 . S
C1664 C1659 1.390 . S
C1664 C1663 1.387 . S
H1665 C1677 0.930 . S
H1666 C1679 0.930 . S
H1667 C1680 0.930 . S
H1668 C1684 0.959 . S
H1669 C1684 0.959 . S
H1670 C1684 0.961 . S
H1671 C1685 0.960 . S
H1672 C1685 0.961 . S
H1673 C1685 0.959 . S
H1674 C1688 0.929 . S
H1675 C1689 0.931 . S
H1676 C1691 0.930 . S
C1677 H1665 0.930 . S
C1677 C1678 1.399 . S
C1677 C1682 1.399 . S
C1678 C1677 1.399 . S
C1678 C1679 1.376 . S
C1679 H1666 0.930 . S
C1679 C1678 1.376 . S
C1679 C1680 1.388 . S
C1680 H1667 0.930 . S
C1680 C1679 1.388 . S
C1680 C1681 1.390 . S
C1681 C1680 1.390 . S
C1681 C1682 1.394 . S
C1681 C1687 1.465 . S
C1682 C1677 1.399 . S
C1682 C1681 1.394 . S
C1682 C1683 1.516 . S
C1683 C1682 1.516 . S
C1683 C1684 1.502 . S
C1683 C1685 1.561 . S
C1683 C1686 1.526 . S
C1684 H1668 0.959 . S
C1684 H1669 0.959 . S
C1684 H1670 0.961 . S
C1684 C1683 1.502 . S
C1685 H1671 0.960 . S
C1685 H1672 0.961 . S
C1685 H1673 0.959 . S
C1685 C1683 1.561 . S
C1686 C1683 1.526 . S
C1686 C1687 1.396 . S
C1686 C1691 1.390 1_554 S
C1687 C1681 1.465 . S
C1687 C1686 1.396 . S
C1687 C1688 1.399 . S
C1688 H1674 0.929 . S
C1688 C1687 1.399 . S
C1688 C1689 1.385 1_554 S
C1689 H1675 0.931 . S
C1689 C1688 1.385 1_556 S
C1689 C1690 1.389 . S
C1690 C1689 1.389 . S
C1690 C1691 1.387 . S
C1691 H1676 0.930 . S
C1691 C1686 1.390 1_556 S
C1691 C1690 1.387 . S
H1692 C1704 0.930 . S
H1693 C1706 0.930 . S
H1694 C1707 0.930 . S
H1695 C1711 0.959 . S
H1696 C1711 0.959 . S
H1697 C1711 0.961 . S
H1698 C1712 0.960 . S
H1699 C1712 0.961 . S
H1700 C1712 0.959 . S
H1701 C1715 0.929 . S
H1702 C1716 0.931 . S
H1703 C1718 0.930 . S
C1704 H1692 0.930 . S
C1704 C1705 1.399 . S
C1704 C1709 1.399 . S
C1705 C1704 1.399 . S
C1705 C1706 1.376 . S
C1706 H1693 0.930 . S
C1706 C1705 1.376 . S
C1706 C1707 1.388 . S
C1707 H1694 0.930 . S
C1707 C1706 1.388 . S
C1707 C1708 1.390 . S
C1708 C1707 1.390 . S
C1708 C1709 1.394 . S
C1708 C1714 1.465 . S
C1709 C1704 1.399 . S
C1709 C1708 1.394 . S
C1709 C1710 1.516 . S
C1710 C1709 1.516 . S
C1710 C1711 1.502 . S
C1710 C1712 1.561 . S
C1710 C1713 1.526 . S
C1711 H1695 0.959 . S
C1711 H1696 0.959 . S
C1711 H1697 0.961 . S
C1711 C1710 1.502 . S
C1712 H1698 0.960 . S
C1712 H1699 0.961 . S
C1712 H1700 0.959 . S
C1712 C1710 1.561 . S
C1713 C1710 1.526 . S
C1713 C1714 1.396 . S
C1713 C1718 1.390 . S
C1714 C1708 1.465 . S
C1714 C1713 1.396 . S
C1714 C1715 1.399 . S
C1715 H1701 0.929 . S
C1715 C1714 1.399 . S
C1715 C1716 1.385 . S
C1716 H1702 0.931 . S
C1716 C1715 1.385 . S
C1716 C1717 1.389 . S
C1717 C1716 1.389 . S
C1717 C1718 1.387 . S
C1718 H1703 0.930 . S
C1718 C1713 1.390 . S
C1718 C1717 1.387 . S
H1719 C1731 0.930 . S
H1720 C1733 0.930 . S
H1721 C1734 0.930 . S
H1722 C1738 0.959 . S
H1723 C1738 0.959 . S
H1724 C1738 0.961 . S
H1725 C1739 0.960 . S
H1726 C1739 0.961 . S
H1727 C1739 0.959 . S
H1728 C1742 0.929 . S
H1729 C1743 0.931 . S
H1730 C1745 0.930 . S
C1731 H1719 0.930 . S
C1731 C1732 1.399 . S
C1731 C1736 1.399 . S
C1732 C1731 1.399 . S
C1732 C1733 1.376 . S
C1733 H1720 0.930 . S
C1733 C1732 1.376 . S
C1733 C1734 1.388 . S
C1734 H1721 0.930 . S
C1734 C1733 1.388 . S
C1734 C1735 1.390 . S
C1735 C1734 1.390 . S
C1735 C1736 1.394 . S
C1735 C1741 1.465 . S
C1736 C1731 1.399 . S
C1736 C1735 1.394 . S
C1736 C1737 1.516 . S
C1737 C1736 1.516 . S
C1737 C1738 1.502 . S
C1737 C1739 1.561 . S
C1737 C1740 1.526 . S
C1738 H1722 0.959 . S
C1738 H1723 0.959 . S
C1738 H1724 0.961 . S
C1738 C1737 1.502 . S
C1739 H1725 0.960 . S
C1739 H1726 0.961 . S
C1739 H1727 0.959 . S
C1739 C1737 1.561 . S
C1740 C1737 1.526 . S
C1740 C1741 1.396 . S
C1740 C1745 1.390 . S
C1741 C1735 1.465 . S
C1741 C1740 1.396 . S
C1741 C1742 1.399 . S
C1742 H1728 0.929 . S
C1742 C1741 1.399 . S
C1742 C1743 1.385 . S
C1743 H1729 0.931 . S
C1743 C1742 1.385 . S
C1743 C1744 1.389 . S
C1744 C1743 1.389 . S
C1744 C1745 1.387 . S
C1745 H1730 0.930 . S
C1745 C1740 1.390 . S
C1745 C1744 1.387 . S
H1746 C1758 0.930 . S
H1747 C1760 0.930 . S
H1748 C1761 0.930 1_655 S
H1749 C1765 0.959 . S
H1750 C1765 0.959 . S
H1751 C1765 0.961 . S
H1752 C1766 0.960 . S
H1753 C1766 0.961 . S
H1754 C1766 0.959 . S
H1755 C1769 0.901 1_655 S
H1756 C1770 0.931 1_655 S
H1757 C1772 0.930 . S
C1758 H1746 0.930 . S
C1758 C1759 1.399 . S
C1758 C1763 1.399 . S
C1759 C1758 1.399 . S
C1759 C1760 1.376 . S
C1760 H1747 0.930 . S
C1760 C1759 1.376 . S
C1760 C1761 1.388 . S
C1761 H1748 0.930 1_455 S
C1761 C1760 1.388 . S
C1761 C1762 1.390 . S
C1762 C1761 1.390 . S
C1762 C1763 1.394 . S
C1762 C1768 1.465 . S
C1763 C1758 1.399 . S
C1763 C1762 1.394 . S
C1763 C1764 1.516 . S
C1764 C1763 1.516 . S
C1764 C1765 1.502 . S
C1764 C1766 1.561 . S
C1764 C1767 1.526 . S
C1765 H1749 0.959 . S
C1765 H1750 0.959 . S
C1765 H1751 0.961 . S
C1765 C1764 1.502 . S
C1766 H1752 0.960 . S
C1766 H1753 0.961 . S
C1766 H1754 0.959 . S
C1766 C1764 1.561 . S
C1767 C1764 1.526 . S
C1767 C1768 1.396 . S
C1767 C1772 1.390 . S
C1768 C1762 1.465 . S
C1768 C1767 1.396 . S
C1768 C1769 1.424 . S
C1769 H1755 0.901 1_455 S
C1769 C1768 1.424 . S
C1769 C1770 1.392 . S
C1770 H1756 0.931 1_455 S
C1770 C1769 1.392 . S
C1770 C1771 1.389 . S
C1771 C1770 1.389 . S
C1771 C1772 1.387 . S
C1772 H1757 0.930 . S
C1772 C1767 1.390 . S
C1772 C1771 1.387 . S
H1773 C1785 0.930 . S
H1774 C1787 0.930 . S
H1775 C1788 0.930 . S
H1776 C1792 0.959 . S
H1777 C1792 0.959 . S
H1778 C1792 0.961 . S
H1779 C1793 0.960 . S
H1780 C1793 0.961 . S
H1781 C1793 0.959 . S
H1782 C1796 0.929 . S
H1783 C1797 0.931 . S
H1784 C1799 0.930 . S
C1785 H1773 0.930 . S
C1785 C1786 1.399 . S
C1785 C1790 1.399 1_554 S
C1786 C1785 1.399 . S
C1786 C1787 1.376 . S
C1787 H1774 0.930 . S
C1787 C1786 1.376 . S
C1787 C1788 1.388 1_554 S
C1788 H1775 0.930 . S
C1788 C1787 1.388 1_556 S
C1788 C1789 1.390 . S
C1789 C1788 1.390 . S
C1789 C1790 1.394 . S
C1789 C1795 1.465 . S
C1790 C1785 1.399 1_556 S
C1790 C1789 1.394 . S
C1790 C1791 1.516 . S
C1791 C1790 1.516 . S
C1791 C1792 1.502 . S
C1791 C1793 1.561 . S
C1791 C1794 1.526 . S
C1792 H1776 0.959 . S
C1792 H1777 0.959 . S
C1792 H1778 0.961 . S
C1792 C1791 1.502 . S
C1793 H1779 0.960 . S
C1793 H1780 0.961 . S
C1793 H1781 0.959 . S
C1793 C1791 1.561 . S
C1794 C1791 1.526 . S
C1794 C1795 1.396 . S
C1794 C1799 1.390 . S
C1795 C1789 1.465 . S
C1795 C1794 1.396 . S
C1795 C1796 1.399 . S
C1796 H1782 0.929 . S
C1796 C1795 1.399 . S
C1796 C1797 1.385 . S
C1797 H1783 0.931 . S
C1797 C1796 1.385 . S
C1797 C1798 1.389 . S
C1798 C1797 1.389 . S
C1798 C1799 1.387 . S
C1799 H1784 0.930 . S
C1799 C1794 1.390 . S
C1799 C1798 1.387 . S
H1800 C1812 0.930 . S
H1801 C1814 0.930 . S
H1802 C1815 0.930 . S
H1803 C1819 0.959 . S
H1804 C1819 0.959 . S
H1805 C1819 0.961 . S
H1806 C1820 0.960 . S
H1807 C1820 0.961 . S
H1808 C1820 0.959 . S
H1809 C1823 0.929 . S
H1810 C1824 0.931 . S
H1811 C1826 0.930 . S
C1812 H1800 0.930 . S
C1812 C1813 1.399 . S
C1812 C1817 1.399 . S
C1813 C1812 1.399 . S
C1813 C1814 1.376 . S
C1814 H1801 0.930 . S
C1814 C1813 1.376 . S
C1814 C1815 1.388 . S
C1815 H1802 0.930 . S
C1815 C1814 1.388 . S
C1815 C1816 1.390 . S
C1816 C1815 1.390 . S
C1816 C1817 1.394 . S
C1816 C1822 1.465 . S
C1817 C1812 1.399 . S
C1817 C1816 1.394 . S
C1817 C1818 1.516 . S
C1818 C1817 1.516 . S
C1818 C1819 1.502 . S
C1818 C1820 1.561 . S
C1818 C1821 1.526 . S
C1819 H1803 0.959 . S
C1819 H1804 0.959 . S
C1819 H1805 0.961 . S
C1819 C1818 1.502 . S
C1820 H1806 0.960 . S
C1820 H1807 0.961 . S
C1820 H1808 0.959 . S
C1820 C1818 1.561 . S
C1821 C1818 1.526 . S
C1821 C1822 1.396 . S
C1821 C1826 1.390 . S
C1822 C1816 1.465 . S
C1822 C1821 1.396 . S
C1822 C1823 1.399 . S
C1823 H1809 0.929 . S
C1823 C1822 1.399 . S
C1823 C1824 1.385 . S
C1824 H1810 0.931 . S
C1824 C1823 1.385 . S
C1824 C1825 1.389 . S
C1825 C1824 1.389 . S
C1825 C1826 1.387 . S
C1826 H1811 0.930 . S
C1826 C1821 1.390 . S
C1826 C1825 1.387 . S
H1827 C1839 0.930 . S
H1828 C1841 0.930 . S
H1829 C1842 0.930 . S
H1830 C1846 0.959 . S
H1831 C1846 0.959 . S
H1832 C1846 0.961 . S
H1833 C1847 0.960 . S
H1834 C1847 0.961 . S
H1835 C1847 0.959 . S
H1836 C1850 0.929 . S
H1837 C1851 0.931 . S
H1838 C1853 0.930 . S
C1839 H1827 0.930 . S
C1839 C1840 1.399 . S
C1839 C1844 1.399 . S
C1840 C1839 1.399 . S
C1840 C1841 1.376 . S
C1841 H1828 0.930 . S
C1841 C1840 1.376 . S
C1841 C1842 1.388 . S
C1842 H1829 0.930 . S
C1842 C1841 1.388 . S
C1842 C1843 1.390 . S
C1843 C1842 1.390 . S
C1843 C1844 1.394 . S
C1843 C1849 1.465 . S
C1844 C1839 1.399 . S
C1844 C1843 1.394 . S
C1844 C1845 1.516 . S
C1845 C1844 1.516 . S
C1845 C1846 1.502 . S
C1845 C1847 1.561 . S
C1845 C1848 1.526 . S
C1846 H1830 0.959 . S
C1846 H1831 0.959 . S
C1846 H1832 0.961 . S
C1846 C1845 1.502 . S
C1847 H1833 0.960 . S
C1847 H1834 0.961 . S
C1847 H1835 0.959 . S
C1847 C1845 1.561 . S
C1848 C1845 1.526 . S
C1848 C1849 1.396 . S
C1848 C1853 1.390 . S
C1849 C1843 1.465 . S
C1849 C1848 1.396 . S
C1849 C1850 1.399 . S
C1850 H1836 0.929 . S
C1850 C1849 1.399 . S
C1850 C1851 1.385 . S
C1851 H1837 0.931 . S
C1851 C1850 1.385 . S
C1851 C1852 1.389 . S
C1852 C1851 1.389 . S
C1852 C1853 1.387 . S
C1853 H1838 0.930 . S
C1853 C1848 1.390 . S
C1853 C1852 1.387 . S
H1854 C1866 0.930 . S
H1855 C1868 0.930 . S
H1856 C1869 0.930 . S
H1857 C1873 0.959 . S
H1858 C1873 0.959 . S
H1859 C1873 0.961 . S
H1860 C1874 0.960 . S
H1861 C1874 0.961 . S
H1862 C1874 0.959 . S
H1863 C1877 0.929 . S
H1864 C1878 0.931 . S
H1865 C1880 0.930 . S
C1866 H1854 0.930 . S
C1866 C1867 1.399 . S
C1866 C1871 1.399 . S
C1867 C1866 1.399 . S
C1867 C1868 1.376 . S
C1868 H1855 0.930 . S
C1868 C1867 1.376 . S
C1868 C1869 1.388 . S
C1869 H1856 0.930 . S
C1869 C1868 1.388 . S
C1869 C1870 1.390 . S
C1870 C1869 1.390 . S
C1870 C1871 1.394 . S
C1870 C1876 1.465 . S
C1871 C1866 1.399 . S
C1871 C1870 1.394 . S
C1871 C1872 1.516 . S
C1872 C1871 1.516 . S
C1872 C1873 1.502 . S
C1872 C1874 1.561 . S
C1872 C1875 1.526 . S
C1873 H1857 0.959 . S
C1873 H1858 0.959 . S
C1873 H1859 0.961 . S
C1873 C1872 1.502 . S
C1874 H1860 0.960 . S
C1874 H1861 0.961 . S
C1874 H1862 0.959 . S
C1874 C1872 1.561 . S
C1875 C1872 1.526 . S
C1875 C1876 1.396 . S
C1875 C1880 1.390 . S
C1876 C1870 1.465 . S
C1876 C1875 1.396 . S
C1876 C1877 1.399 . S
C1877 H1863 0.929 . S
C1877 C1876 1.399 . S
C1877 C1878 1.385 . S
C1878 H1864 0.931 . S
C1878 C1877 1.385 . S
C1878 C1879 1.389 . S
C1879 C1878 1.389 . S
C1879 C1880 1.387 . S
C1880 H1865 0.930 . S
C1880 C1875 1.390 . S
C1880 C1879 1.387 . S
H1881 C1893 0.930 . S
H1882 C1895 0.930 . S
H1883 C1896 0.930 . S
H1884 C1900 0.959 . S
H1885 C1900 0.959 . S
H1886 C1900 0.961 . S
H1887 C1901 0.960 . S
H1888 C1901 0.961 . S
H1889 C1901 0.959 . S
H1890 C1904 0.929 . S
H1891 C1905 0.931 . S
H1892 C1907 0.930 . S
C1893 H1881 0.930 . S
C1893 C1894 1.399 . S
C1893 C1898 1.399 . S
C1894 C1893 1.399 . S
C1894 C1895 1.376 . S
C1895 H1882 0.930 . S
C1895 C1894 1.376 . S
C1895 C1896 1.388 . S
C1896 H1883 0.930 . S
C1896 C1895 1.388 . S
C1896 C1897 1.390 . S
C1897 C1896 1.390 . S
C1897 C1898 1.394 . S
C1897 C1903 1.465 . S
C1898 C1893 1.399 . S
C1898 C1897 1.394 . S
C1898 C1899 1.516 . S
C1899 C1898 1.516 . S
C1899 C1900 1.502 . S
C1899 C1901 1.561 . S
C1899 C1902 1.526 . S
C1900 H1884 0.959 . S
C1900 H1885 0.959 . S
C1900 H1886 0.961 . S
C1900 C1899 1.502 . S
C1901 H1887 0.960 . S
C1901 H1888 0.961 . S
C1901 H1889 0.959 . S
C1901 C1899 1.561 . S
C1902 C1899 1.526 . S
C1902 C1903 1.396 . S
C1902 C1907 1.390 1_556 S
C1903 C1897 1.465 . S
C1903 C1902 1.396 . S
C1903 C1904 1.397 . S
C1904 H1890 0.929 . S
C1904 C1903 1.397 . S
C1904 C1905 1.387 1_556 S
C1905 H1891 0.931 . S
C1905 C1904 1.387 1_554 S
C1905 C1906 1.389 . S
C1906 C1905 1.389 . S
C1906 C1907 1.387 . S
C1907 H1892 0.930 . S
C1907 C1902 1.390 1_554 S
C1907 C1906 1.387 . S
H1908 C1920 0.930 . S
H1909 C1922 0.930 . S
H1910 C1923 0.930 . S
H1911 C1927 0.959 . S
H1912 C1927 0.959 . S
H1913 C1927 0.961 . S
H1914 C1928 0.960 . S
H1915 C1928 0.961 . S
H1916 C1928 0.959 . S
H1917 C1931 0.929 . S
H1918 C1932 0.931 . S
H1919 C1934 0.930 . S
C1920 H1908 0.930 . S
C1920 C1921 1.399 . S
C1920 C1925 1.399 . S
C1921 C1920 1.399 . S
C1921 C1922 1.376 . S
C1922 H1909 0.930 . S
C1922 C1921 1.376 . S
C1922 C1923 1.388 . S
C1923 H1910 0.930 . S
C1923 C1922 1.388 . S
C1923 C1924 1.390 . S
C1924 C1923 1.390 . S
C1924 C1925 1.394 . S
C1924 C1930 1.465 . S
C1925 C1920 1.399 . S
C1925 C1924 1.394 . S
C1925 C1926 1.516 . S
C1926 C1925 1.516 . S
C1926 C1927 1.502 . S
C1926 C1928 1.561 . S
C1926 C1929 1.526 . S
C1927 H1911 0.959 . S
C1927 H1912 0.959 . S
C1927 H1913 0.961 . S
C1927 C1926 1.502 . S
C1928 H1914 0.960 . S
C1928 H1915 0.961 . S
C1928 H1916 0.959 . S
C1928 C1926 1.561 . S
C1929 C1926 1.526 . S
C1929 C1930 1.396 . S
C1929 C1934 1.390 . S
C1930 C1924 1.465 . S
C1930 C1929 1.396 . S
C1930 C1931 1.399 . S
C1931 H1917 0.929 . S
C1931 C1930 1.399 . S
C1931 C1932 1.385 . S
C1932 H1918 0.931 . S
C1932 C1931 1.385 . S
C1932 C1933 1.389 . S
C1933 C1932 1.389 . S
C1933 C1934 1.387 . S
C1934 H1919 0.930 . S
C1934 C1929 1.390 . S
C1934 C1933 1.387 . S
H1935 C1947 0.930 . S
H1936 C1949 0.930 . S
H1937 C1950 0.930 . S
H1938 C1954 0.959 . S
H1939 C1954 0.959 . S
H1940 C1954 0.961 . S
H1941 C1955 0.960 . S
H1942 C1955 0.961 . S
H1943 C1955 0.959 . S
H1944 C1958 0.929 . S
H1945 C1959 0.931 . S
H1946 C1961 0.930 . S
C1947 H1935 0.930 . S
C1947 C1948 1.399 . S
C1947 C1952 1.399 . S
C1948 C1947 1.399 . S
C1948 C1949 1.376 . S
C1949 H1936 0.930 . S
C1949 C1948 1.376 . S
C1949 C1950 1.388 . S
C1950 H1937 0.930 . S
C1950 C1949 1.388 . S
C1950 C1951 1.390 . S
C1951 C1950 1.390 . S
C1951 C1952 1.394 . S
C1951 C1957 1.465 . S
C1952 C1947 1.399 . S
C1952 C1951 1.394 . S
C1952 C1953 1.516 . S
C1953 C1952 1.516 . S
C1953 C1954 1.502 . S
C1953 C1955 1.561 . S
C1953 C1956 1.526 . S
C1954 H1938 0.959 . S
C1954 H1939 0.959 . S
C1954 H1940 0.961 . S
C1954 C1953 1.502 . S
C1955 H1941 0.960 . S
C1955 H1942 0.961 . S
C1955 H1943 0.959 . S
C1955 C1953 1.561 . S
C1956 C1953 1.526 . S
C1956 C1957 1.396 . S
C1956 C1961 1.390 . S
C1957 C1951 1.465 . S
C1957 C1956 1.396 . S
C1957 C1958 1.399 . S
C1958 H1944 0.929 . S
C1958 C1957 1.399 . S
C1958 C1959 1.385 . S
C1959 H1945 0.931 . S
C1959 C1958 1.385 . S
C1959 C1960 1.389 . S
C1960 C1959 1.389 . S
C1960 C1961 1.387 . S
C1961 H1946 0.930 . S
C1961 C1956 1.390 . S
C1961 C1960 1.387 . S
H1962 C1974 0.930 . S
H1963 C1976 0.930 . S
H1964 C1977 0.930 . S
H1965 C1981 0.979 . S
H1966 C1981 0.959 . S
H1967 C1981 0.961 . S
H1968 C1982 0.960 . S
H1969 C1982 0.961 . S
H1970 C1982 0.959 . S
H1971 C1985 0.929 . S
H1972 C1986 0.931 . S
H1973 C1988 0.930 . S
C1974 H1962 0.930 . S
C1974 C1975 1.399 . S
C1974 C1979 1.399 . S
C1975 C1974 1.399 . S
C1975 C1976 1.376 . S
C1976 H1963 0.930 . S
C1976 C1975 1.376 . S
C1976 C1977 1.388 . S
C1977 H1964 0.930 . S
C1977 C1976 1.388 . S
C1977 C1978 1.390 . S
C1978 C1977 1.390 . S
C1978 C1979 1.394 . S
C1978 C1984 1.465 . S
C1979 C1974 1.399 . S
C1979 C1978 1.394 . S
C1979 C1980 1.516 . S
C1980 C1979 1.516 . S
C1980 C1981 1.502 . S
C1980 C1982 1.561 . S
C1980 C1983 1.526 . S
C1981 H1965 0.979 . S
C1981 H1966 0.959 . S
C1981 H1967 0.961 . S
C1981 C1980 1.502 . S
C1982 H1968 0.960 . S
C1982 H1969 0.961 . S
C1982 H1970 0.959 . S
C1982 C1980 1.561 . S
C1983 C1980 1.526 . S
C1983 C1984 1.396 . S
C1983 C1988 1.390 . S
C1984 C1978 1.465 . S
C1984 C1983 1.396 . S
C1984 C1985 1.399 . S
C1985 H1971 0.929 . S
C1985 C1984 1.399 . S
C1985 C1986 1.385 . S
C1986 H1972 0.931 . S
C1986 C1985 1.385 . S
C1986 C1987 1.389 . S
C1987 C1986 1.389 . S
C1987 C1988 1.387 . S
C1988 H1973 0.930 . S
C1988 C1983 1.390 . S
C1988 C1987 1.387 . S
H1989 C2001 0.930 . S
H1990 C2003 0.930 . S
H1991 C2004 0.930 . S
H1992 C2008 0.959 . S
H1993 C2008 0.959 . S
H1994 C2008 0.961 . S
H1995 C2009 0.960 . S
H1996 C2009 0.961 . S
H1997 C2009 0.959 . S
H1998 C2012 0.929 1_554 S
H1999 C2013 0.931 . S
H2000 C2015 0.930 . S
C2001 H1989 0.930 . S
C2001 C2002 1.399 . S
C2001 C2006 1.399 . S
C2002 C2001 1.399 . S
C2002 C2003 1.376 . S
C2003 H1990 0.930 . S
C2003 C2002 1.376 . S
C2003 C2004 1.388 . S
C2004 H1991 0.930 . S
C2004 C2003 1.388 . S
C2004 C2005 1.390 . S
C2005 C2004 1.390 . S
C2005 C2006 1.394 . S
C2005 C2011 1.465 . S
C2006 C2001 1.399 . S
C2006 C2005 1.394 . S
C2006 C2007 1.516 . S
C2007 C2006 1.516 . S
C2007 C2008 1.502 . S
C2007 C2009 1.561 . S
C2007 C2010 1.526 . S
C2008 H1992 0.959 . S
C2008 H1993 0.959 . S
C2008 H1994 0.961 . S
C2008 C2007 1.502 . S
C2009 H1995 0.960 . S
C2009 H1996 0.961 . S
C2009 H1997 0.959 . S
C2009 C2007 1.561 . S
C2010 C2007 1.526 . S
C2010 C2011 1.396 . S
C2010 C2015 1.390 1_554 S
C2011 C2005 1.465 . S
C2011 C2010 1.396 . S
C2011 C2012 1.398 1_554 S
C2012 H1998 0.929 1_556 S
C2012 C2011 1.398 1_556 S
C2012 C2013 1.386 . S
C2013 H1999 0.931 . S
C2013 C2012 1.386 . S
C2013 C2014 1.389 . S
C2014 C2013 1.389 . S
C2014 C2015 1.387 . S
C2015 H2000 0.930 . S
C2015 C2010 1.390 1_556 S
C2015 C2014 1.387 . S
H2016 C2028 0.930 . S
H2017 C2030 0.930 . S
H2018 C2031 0.930 . S
H2019 C2035 0.959 1_455 S
H2020 C2035 0.959 . S
H2021 C2035 0.971 . S
H2022 C2036 1.000 . S
H2023 C2036 0.961 . S
H2024 C2036 0.959 . S
H2025 C2039 0.929 . S
H2026 C2040 0.931 . S
H2027 C2042 0.930 . S
C2028 H2016 0.930 . S
C2028 C2029 1.399 . S
C2028 C2033 1.399 . S
C2029 C2028 1.399 . S
C2029 C2030 1.376 1_554 S
C2030 H2017 0.930 . S
C2030 C2029 1.376 1_556 S
C2030 C2031 1.388 . S
C2031 H2018 0.930 . S
C2031 C2030 1.388 . S
C2031 C2032 1.390 . S
C2032 C2031 1.390 . S
C2032 C2033 1.394 1_556 S
C2032 C2038 1.465 1_545 S
C2033 C2028 1.399 . S
C2033 C2032 1.394 1_554 S
C2033 C2034 1.516 1_545 S
C2034 C2033 1.516 1_565 S
C2034 C2035 1.502 . S
C2034 C2036 1.561 . S
C2034 C2037 1.526 . S
C2035 H2019 0.959 1_655 S
C2035 H2020 0.959 . S
C2035 H2021 0.971 . S
C2035 C2034 1.502 . S
C2036 H2022 1.000 . S
C2036 H2023 0.961 . S
C2036 H2024 0.959 . S
C2036 C2034 1.561 . S
C2037 C2034 1.526 . S
C2037 C2038 1.396 1_554 S
C2037 C2042 1.390 . S
C2038 C2032 1.465 1_565 S
C2038 C2037 1.396 1_556 S
C2038 C2039 1.399 . S
C2039 H2025 0.929 . S
C2039 C2038 1.399 . S
C2039 C2040 1.385 . S
C2040 H2026 0.931 . S
C2040 C2039 1.385 . S
C2040 C2041 1.389 . S
C2041 C2040 1.389 . S
C2041 C2042 1.387 1_556 S
C2042 H2027 0.930 . S
C2042 C2037 1.390 . S
C2042 C2041 1.387 1_554 S
H2043 C2055 0.930 . S
H2044 C2057 0.930 . S
H2045 C2058 0.930 . S
H2046 C2062 0.959 . S
H2047 C2062 0.959 . S
H2048 C2062 0.961 . S
H2049 C2063 0.960 . S
H2050 C2063 0.961 . S
H2051 C2063 0.959 . S
H2052 C2066 0.929 . S
H2053 C2067 0.931 . S
H2054 C2069 0.930 . S
C2055 H2043 0.930 . S
C2055 C2056 1.399 . S
C2055 C2060 1.399 . S
C2056 C2055 1.399 . S
C2056 C2057 1.376 . S
C2057 H2044 0.930 . S
C2057 C2056 1.376 . S
C2057 C2058 1.388 . S
C2058 H2045 0.930 . S
C2058 C2057 1.388 . S
C2058 C2059 1.390 . S
C2059 C2058 1.390 . S
C2059 C2060 1.394 . S
C2059 C2065 1.465 . S
C2060 C2055 1.399 . S
C2060 C2059 1.394 . S
C2060 C2061 1.516 . S
C2061 C2060 1.516 . S
C2061 C2062 1.502 . S
C2061 C2063 1.561 . S
C2061 C2064 1.526 . S
C2062 H2046 0.959 . S
C2062 H2047 0.959 . S
C2062 H2048 0.961 . S
C2062 C2061 1.502 . S
C2063 H2049 0.960 . S
C2063 H2050 0.961 . S
C2063 H2051 0.959 . S
C2063 C2061 1.561 . S
C2064 C2061 1.526 . S
C2064 C2065 1.396 . S
C2064 C2069 1.390 . S
C2065 C2059 1.465 . S
C2065 C2064 1.396 . S
C2065 C2066 1.399 . S
C2066 H2052 0.929 . S
C2066 C2065 1.399 . S
C2066 C2067 1.385 . S
C2067 H2053 0.931 . S
C2067 C2066 1.385 . S
C2067 C2068 1.389 . S
C2068 C2067 1.389 . S
C2068 C2069 1.387 . S
C2069 H2054 0.930 . S
C2069 C2064 1.390 . S
C2069 C2068 1.387 . S
H2070 C2082 0.930 . S
H2071 C2084 0.930 . S
H2072 C2085 0.930 . S
H2073 C2089 0.959 . S
H2074 C2089 0.959 1_565 S
H2075 C2089 0.961 . S
H2076 C2090 0.960 . S
H2077 C2090 0.961 . S
H2078 C2090 0.959 . S
H2079 C2093 0.929 . S
H2080 C2094 0.931 . S
H2081 C2096 0.930 . S
C2082 H2070 0.930 . S
C2082 C2083 1.399 . S
C2082 C2087 1.399 . S
C2083 C2082 1.399 . S
C2083 C2084 1.376 . S
C2084 H2071 0.930 . S
C2084 C2083 1.376 . S
C2084 C2085 1.388 . S
C2085 H2072 0.930 . S
C2085 C2084 1.388 . S
C2085 C2086 1.390 . S
C2086 C2085 1.390 . S
C2086 C2087 1.394 . S
C2086 C2092 1.465 1_545 S
C2087 C2082 1.399 . S
C2087 C2086 1.394 . S
C2087 C2088 1.516 1_545 S
C2088 C2087 1.516 1_565 S
C2088 C2089 1.502 1_565 S
C2088 C2090 1.561 . S
C2088 C2091 1.526 . S
C2089 H2073 0.959 . S
C2089 H2074 0.959 1_545 S
C2089 H2075 0.961 . S
C2089 C2088 1.502 1_545 S
C2090 H2076 0.960 . S
C2090 H2077 0.961 . S
C2090 H2078 0.959 . S
C2090 C2088 1.561 . S
C2091 C2088 1.526 . S
C2091 C2092 1.396 . S
C2091 C2096 1.390 . S
C2092 C2086 1.465 1_565 S
C2092 C2091 1.396 . S
C2092 C2093 1.399 . S
C2093 H2079 0.929 . S
C2093 C2092 1.399 . S
C2093 C2094 1.385 . S
C2094 H2080 0.931 . S
C2094 C2093 1.385 . S
C2094 C2095 1.389 . S
C2095 C2094 1.389 . S
C2095 C2096 1.387 . S
C2096 H2081 0.930 . S
C2096 C2091 1.390 . S
C2096 C2095 1.387 . S
H2097 C2109 0.930 . S
H2098 C2111 0.930 . S
H2099 C2112 0.930 . S
H2100 C2116 0.959 . S
H2101 C2116 0.959 . S
H2102 C2116 0.961 . S
H2103 C2117 0.960 . S
H2104 C2117 0.961 . S
H2105 C2117 0.959 . S
H2106 C2120 0.929 . S
H2107 C2121 0.931 . S
H2108 C2123 0.930 . S
C2109 H2097 0.930 . S
C2109 C2110 1.399 . S
C2109 C2114 1.399 . S
C2110 C2109 1.399 . S
C2110 C2111 1.376 . S
C2111 H2098 0.930 . S
C2111 C2110 1.376 . S
C2111 C2112 1.388 . S
C2112 H2099 0.930 . S
C2112 C2111 1.388 . S
C2112 C2113 1.390 . S
C2113 C2112 1.390 . S
C2113 C2114 1.394 . S
C2113 C2119 1.465 . S
C2114 C2109 1.399 . S
C2114 C2113 1.394 . S
C2114 C2115 1.516 . S
C2115 C2114 1.516 . S
C2115 C2116 1.502 . S
C2115 C2117 1.561 . S
C2115 C2118 1.526 . S
C2116 H2100 0.959 . S
C2116 H2101 0.959 . S
C2116 H2102 0.961 . S
C2116 C2115 1.502 . S
C2117 H2103 0.960 . S
C2117 H2104 0.961 . S
C2117 H2105 0.959 . S
C2117 C2115 1.561 . S
C2118 C2115 1.526 . S
C2118 C2119 1.396 . S
C2118 C2123 1.390 . S
C2119 C2113 1.465 . S
C2119 C2118 1.396 . S
C2119 C2120 1.399 . S
C2120 H2106 0.929 . S
C2120 C2119 1.399 . S
C2120 C2121 1.385 . S
C2121 H2107 0.931 . S
C2121 C2120 1.385 . S
C2121 C2122 1.389 . S
C2122 C2121 1.389 . S
C2122 C2123 1.387 . S
C2123 H2108 0.930 . S
C2123 C2118 1.390 . S
C2123 C2122 1.387 . S
H2124 C2136 0.930 . S
H2125 C2138 0.930 . S
H2126 C2139 0.930 . S
H2127 C2143 0.959 1_455 S
H2128 C2143 0.959 . S
H2129 C2143 0.961 . S
H2130 C2144 0.985 . S
H2131 C2144 0.961 . S
H2132 C2144 0.959 . S
H2133 C2147 0.929 . S
H2134 C2148 0.931 . S
H2135 C2150 0.930 . S
C2136 H2124 0.930 . S
C2136 C2137 1.399 . S
C2136 C2141 1.399 . S
C2137 C2136 1.399 . S
C2137 C2138 1.376 . S
C2138 H2125 0.930 . S
C2138 C2137 1.376 . S
C2138 C2139 1.388 . S
C2139 H2126 0.930 . S
C2139 C2138 1.388 . S
C2139 C2140 1.390 . S
C2140 C2139 1.390 . S
C2140 C2141 1.394 . S
C2140 C2146 1.465 1_565 S
C2141 C2136 1.399 . S
C2141 C2140 1.394 . S
C2141 C2142 1.516 1_565 S
C2142 C2141 1.516 1_545 S
C2142 C2143 1.502 . S
C2142 C2144 1.561 . S
C2142 C2145 1.526 . S
C2143 H2127 0.959 1_655 S
C2143 H2128 0.959 . S
C2143 H2129 0.961 . S
C2143 C2142 1.502 . S
C2144 H2130 0.985 . S
C2144 H2131 0.961 . S
C2144 H2132 0.959 . S
C2144 C2142 1.561 . S
C2145 C2142 1.526 . S
C2145 C2146 1.396 . S
C2145 C2150 1.390 . S
C2146 C2140 1.465 1_545 S
C2146 C2145 1.396 . S
C2146 C2147 1.399 . S
C2147 H2133 0.929 . S
C2147 C2146 1.399 . S
C2147 C2148 1.385 . S
C2148 H2134 0.931 . S
C2148 C2147 1.385 . S
C2148 C2149 1.389 . S
C2149 C2148 1.389 . S
C2149 C2150 1.387 . S
C2150 H2135 0.930 . S
C2150 C2145 1.390 . S
C2150 C2149 1.387 . S
H2151 C2163 0.930 . S
H2152 C2165 0.930 . S
H2153 C2166 0.930 . S
H2154 C2170 0.959 . S
H2155 C2170 0.959 . S
H2156 C2170 0.961 . S
H2157 C2171 0.960 . S
H2158 C2171 0.961 . S
H2159 C2171 0.959 . S
H2160 C2174 0.929 . S
H2161 C2175 0.931 . S
H2162 C2177 0.930 . S
C2163 H2151 0.930 . S
C2163 C2164 1.399 . S
C2163 C2168 1.399 . S
C2164 C2163 1.399 . S
C2164 C2165 1.376 . S
C2165 H2152 0.930 . S
C2165 C2164 1.376 . S
C2165 C2166 1.388 . S
C2166 H2153 0.930 . S
C2166 C2165 1.388 . S
C2166 C2167 1.390 . S
C2167 C2166 1.390 . S
C2167 C2168 1.394 . S
C2167 C2173 1.465 . S
C2168 C2163 1.399 . S
C2168 C2167 1.394 . S
C2168 C2169 1.516 . S
C2169 C2168 1.516 . S
C2169 C2170 1.502 . S
C2169 C2171 1.561 . S
C2169 C2172 1.526 . S
C2170 H2154 0.959 . S
C2170 H2155 0.959 . S
C2170 H2156 0.961 . S
C2170 C2169 1.502 . S
C2171 H2157 0.960 . S
C2171 H2158 0.961 . S
C2171 H2159 0.959 . S
C2171 C2169 1.561 . S
C2172 C2169 1.526 . S
C2172 C2173 1.396 . S
C2172 C2177 1.390 . S
C2173 C2167 1.465 . S
C2173 C2172 1.396 . S
C2173 C2174 1.399 . S
C2174 H2160 0.929 . S
C2174 C2173 1.399 . S
C2174 C2175 1.385 . S
C2175 H2161 0.931 . S
C2175 C2174 1.385 . S
C2175 C2176 1.389 . S
C2176 C2175 1.389 . S
C2176 C2177 1.387 . S
C2177 H2162 0.930 . S
C2177 C2172 1.390 . S
C2177 C2176 1.387 . S
H2178 C2190 0.930 . S
H2179 C2192 0.930 . S
H2180 C2193 0.930 . S
H2181 C2197 0.959 1_565 S
H2182 C2197 0.959 . S
H2183 C2197 0.961 1_565 S
H2184 C2198 0.960 . S
H2185 C2198 0.961 . S
H2186 C2198 0.959 . S
H2187 C2201 0.929 . S
H2188 C2202 0.931 . S
H2189 C2204 0.938 . S
C2190 H2178 0.930 . S
C2190 C2191 1.399 . S
C2190 C2195 1.399 . S
C2191 C2190 1.399 . S
C2191 C2192 1.376 1_554 S
C2192 H2179 0.930 . S
C2192 C2191 1.376 1_556 S
C2192 C2193 1.388 . S
C2193 H2180 0.930 . S
C2193 C2192 1.388 . S
C2193 C2194 1.390 . S
C2194 C2193 1.390 . S
C2194 C2195 1.394 1_556 S
C2194 C2200 1.465 1_565 S
C2195 C2190 1.399 . S
C2195 C2194 1.394 1_554 S
C2195 C2196 1.516 1_565 S
C2196 C2195 1.516 1_545 S
C2196 C2197 1.502 . S
C2196 C2198 1.561 . S
C2196 C2199 1.526 . S
C2197 H2181 0.959 1_545 S
C2197 H2182 0.959 . S
C2197 H2183 0.961 1_545 S
C2197 C2196 1.502 . S
C2198 H2184 0.960 . S
C2198 H2185 0.961 . S
C2198 H2186 0.959 . S
C2198 C2196 1.561 . S
C2199 C2196 1.526 . S
C2199 C2200 1.396 1_554 S
C2199 C2204 1.391 . S
C2200 C2194 1.465 1_545 S
C2200 C2199 1.396 1_556 S
C2200 C2201 1.399 . S
C2201 H2187 0.929 . S
C2201 C2200 1.399 . S
C2201 C2202 1.385 . S
C2202 H2188 0.931 . S
C2202 C2201 1.385 . S
C2202 C2203 1.389 . S
C2203 C2202 1.389 . S
C2203 C2204 1.377 1_556 S
C2204 H2189 0.938 . S
C2204 C2199 1.391 . S
C2204 C2203 1.377 1_554 S
H2205 C2217 0.930 . S
H2206 C2219 0.930 . S
H2207 C2220 0.930 . S
H2208 C2224 0.959 . S
H2209 C2224 0.959 . S
H2210 C2224 0.961 . S
H2211 C2225 0.960 . S
H2212 C2225 0.961 . S
H2213 C2225 0.959 . S
H2214 C2228 0.929 . S
H2215 C2229 0.931 . S
H2216 C2231 0.930 . S
C2217 H2205 0.930 . S
C2217 C2218 1.399 . S
C2217 C2222 1.399 . S
C2218 C2217 1.399 . S
C2218 C2219 1.376 . S
C2219 H2206 0.930 . S
C2219 C2218 1.376 . S
C2219 C2220 1.388 . S
C2220 H2207 0.930 . S
C2220 C2219 1.388 . S
C2220 C2221 1.390 . S
C2221 C2220 1.390 . S
C2221 C2222 1.394 . S
C2221 C2227 1.465 . S
C2222 C2217 1.399 . S
C2222 C2221 1.394 . S
C2222 C2223 1.516 . S
C2223 C2222 1.516 . S
C2223 C2224 1.502 . S
C2223 C2225 1.561 . S
C2223 C2226 1.526 . S
C2224 H2208 0.959 . S
C2224 H2209 0.959 . S
C2224 H2210 0.961 . S
C2224 C2223 1.502 . S
C2225 H2211 0.960 . S
C2225 H2212 0.961 . S
C2225 H2213 0.959 . S
C2225 C2223 1.561 . S
C2226 C2223 1.526 . S
C2226 C2227 1.396 . S
C2226 C2231 1.390 . S
C2227 C2221 1.465 . S
C2227 C2226 1.396 . S
C2227 C2228 1.399 . S
C2228 H2214 0.929 . S
C2228 C2227 1.399 . S
C2228 C2229 1.385 . S
C2229 H2215 0.931 . S
C2229 C2228 1.385 . S
C2229 C2230 1.389 . S
C2230 C2229 1.389 . S
C2230 C2231 1.387 . S
C2231 H2216 0.930 . S
C2231 C2226 1.390 . S
C2231 C2230 1.387 . S
H2232 C2244 0.930 . S
H2233 C2246 0.930 . S
H2234 C2247 0.930 . S
H2235 C2251 0.959 . S
H2236 C2251 0.959 . S
H2237 C2251 0.961 . S
H2238 C2252 0.960 . S
H2239 C2252 0.961 . S
H2240 C2252 0.959 . S
H2241 C2255 0.929 . S
H2242 C2256 0.931 . S
H2243 C2258 0.930 . S
C2244 H2232 0.930 . S
C2244 C2245 1.399 . S
C2244 C2249 1.399 . S
C2245 C2244 1.399 . S
C2245 C2246 1.376 . S
C2246 H2233 0.930 . S
C2246 C2245 1.376 . S
C2246 C2247 1.388 . S
C2247 H2234 0.930 . S
C2247 C2246 1.388 . S
C2247 C2248 1.390 . S
C2248 C2247 1.390 . S
C2248 C2249 1.394 . S
C2248 C2254 1.465 . S
C2249 C2244 1.399 . S
C2249 C2248 1.394 . S
C2249 C2250 1.516 . S
C2250 C2249 1.516 . S
C2250 C2251 1.502 . S
C2250 C2252 1.561 . S
C2250 C2253 1.526 . S
C2251 H2235 0.959 . S
C2251 H2236 0.959 . S
C2251 H2237 0.961 . S
C2251 C2250 1.502 . S
C2252 H2238 0.960 . S
C2252 H2239 0.961 . S
C2252 H2240 0.959 . S
C2252 C2250 1.561 . S
C2253 C2250 1.526 . S
C2253 C2254 1.396 . S
C2253 C2258 1.390 . S
C2254 C2248 1.465 . S
C2254 C2253 1.396 . S
C2254 C2255 1.399 . S
C2255 H2241 0.929 . S
C2255 C2254 1.399 . S
C2255 C2256 1.385 . S
C2256 H2242 0.931 . S
C2256 C2255 1.385 . S
C2256 C2257 1.389 . S
C2257 C2256 1.389 . S
C2257 C2258 1.387 . S
C2258 H2243 0.930 . S
C2258 C2253 1.390 . S
C2258 C2257 1.387 . S
H2259 C2271 0.930 . S
H2260 C2273 0.930 . S
H2261 C2274 0.930 . S
H2262 C2278 0.959 . S
H2263 C2278 0.959 . S
H2264 C2278 0.961 . S
H2265 C2279 0.960 . S
H2266 C2279 0.961 . S
H2267 C2279 0.959 . S
H2268 C2282 0.929 . S
H2269 C2283 0.931 . S
H2270 C2285 0.930 . S
C2271 H2259 0.930 . S
C2271 C2272 1.399 . S
C2271 C2276 1.399 . S
C2272 C2271 1.399 . S
C2272 C2273 1.376 . S
C2273 H2260 0.930 . S
C2273 C2272 1.376 . S
C2273 C2274 1.388 . S
C2274 H2261 0.930 . S
C2274 C2273 1.388 . S
C2274 C2275 1.390 . S
C2275 C2274 1.390 . S
C2275 C2276 1.394 . S
C2275 C2281 1.465 . S
C2276 C2271 1.399 . S
C2276 C2275 1.394 . S
C2276 C2277 1.516 . S
C2277 C2276 1.516 . S
C2277 C2278 1.502 . S
C2277 C2279 1.561 . S
C2277 C2280 1.526 . S
C2278 H2262 0.959 . S
C2278 H2263 0.959 . S
C2278 H2264 0.961 . S
C2278 C2277 1.502 . S
C2279 H2265 0.960 . S
C2279 H2266 0.961 . S
C2279 H2267 0.959 . S
C2279 C2277 1.561 . S
C2280 C2277 1.526 . S
C2280 C2281 1.396 . S
C2280 C2285 1.390 . S
C2281 C2275 1.465 . S
C2281 C2280 1.396 . S
C2281 C2282 1.399 . S
C2282 H2268 0.929 . S
C2282 C2281 1.399 . S
C2282 C2283 1.385 . S
C2283 H2269 0.931 . S
C2283 C2282 1.385 . S
C2283 C2284 1.389 . S
C2284 C2283 1.389 . S
C2284 C2285 1.387 . S
C2285 H2270 0.930 . S
C2285 C2280 1.390 . S
C2285 C2284 1.387 . S
H2286 C2298 0.930 . S
H2287 C2300 0.930 . S
H2288 C2301 0.930 . S
H2289 C2305 0.959 . S
H2290 C2305 0.959 . S
H2291 C2305 0.961 . S
H2292 C2306 0.960 . S
H2293 C2306 0.961 . S
H2294 C2306 0.959 . S
H2295 C2309 0.929 . S
H2296 C2310 0.931 . S
H2297 C2312 0.930 . S
C2298 H2286 0.930 . S
C2298 C2299 1.399 . S
C2298 C2303 1.399 . S
C2299 C2298 1.399 . S
C2299 C2300 1.376 . S
C2300 H2287 0.930 . S
C2300 C2299 1.376 . S
C2300 C2301 1.388 . S
C2301 H2288 0.930 . S
C2301 C2300 1.388 . S
C2301 C2302 1.390 . S
C2302 C2301 1.390 . S
C2302 C2303 1.394 . S
C2302 C2308 1.465 . S
C2303 C2298 1.399 . S
C2303 C2302 1.394 . S
C2303 C2304 1.516 . S
C2304 C2303 1.516 . S
C2304 C2305 1.502 . S
C2304 C2306 1.561 . S
C2304 C2307 1.526 . S
C2305 H2289 0.959 . S
C2305 H2290 0.959 . S
C2305 H2291 0.961 . S
C2305 C2304 1.502 . S
C2306 H2292 0.960 . S
C2306 H2293 0.961 . S
C2306 H2294 0.959 . S
C2306 C2304 1.561 . S
C2307 C2304 1.526 . S
C2307 C2308 1.396 . S
C2307 C2312 1.390 . S
C2308 C2302 1.465 . S
C2308 C2307 1.396 . S
C2308 C2309 1.399 . S
C2309 H2295 0.929 . S
C2309 C2308 1.399 . S
C2309 C2310 1.385 . S
C2310 H2296 0.931 . S
C2310 C2309 1.385 . S
C2310 C2311 1.389 . S
C2311 C2310 1.389 . S
C2311 C2312 1.387 . S
C2312 H2297 0.930 . S
C2312 C2307 1.390 . S
C2312 C2311 1.387 . S
H2313 C2325 0.930 . S
H2314 C2327 0.930 . S
H2315 C2328 0.930 . S
H2316 C2332 0.959 . S
H2317 C2332 0.959 . S
H2318 C2332 0.961 . S
H2319 C2333 0.960 . S
H2320 C2333 0.961 . S
H2321 C2333 0.959 . S
H2322 C2336 0.929 . S
H2323 C2337 0.931 . S
H2324 C2339 0.930 . S
C2325 H2313 0.930 . S
C2325 C2326 1.399 . S
C2325 C2330 1.399 . S
C2326 C2325 1.399 . S
C2326 C2327 1.376 . S
C2327 H2314 0.930 . S
C2327 C2326 1.376 . S
C2327 C2328 1.388 . S
C2328 H2315 0.930 . S
C2328 C2327 1.388 . S
C2328 C2329 1.390 . S
C2329 C2328 1.390 . S
C2329 C2330 1.394 . S
C2329 C2335 1.465 . S
C2330 C2325 1.399 . S
C2330 C2329 1.394 . S
C2330 C2331 1.516 . S
C2331 C2330 1.516 . S
C2331 C2332 1.502 . S
C2331 C2333 1.561 . S
C2331 C2334 1.526 . S
C2332 H2316 0.959 . S
C2332 H2317 0.959 . S
C2332 H2318 0.961 . S
C2332 C2331 1.502 . S
C2333 H2319 0.960 . S
C2333 H2320 0.961 . S
C2333 H2321 0.959 . S
C2333 C2331 1.561 . S
C2334 C2331 1.526 . S
C2334 C2335 1.396 . S
C2334 C2339 1.390 . S
C2335 C2329 1.465 . S
C2335 C2334 1.396 . S
C2335 C2336 1.399 . S
C2336 H2322 0.929 . S
C2336 C2335 1.399 . S
C2336 C2337 1.385 . S
C2337 H2323 0.931 . S
C2337 C2336 1.385 . S
C2337 C2338 1.389 . S
C2338 C2337 1.389 . S
C2338 C2339 1.387 . S
C2339 H2324 0.930 . S
C2339 C2334 1.390 . S
C2339 C2338 1.387 . S
H2340 C2352 0.930 . S
H2341 C2354 0.930 . S
H2342 C2355 0.930 . S
H2343 C2359 0.959 . S
H2344 C2359 0.959 . S
H2345 C2359 0.961 . S
H2346 C2360 0.960 . S
H2347 C2360 0.961 . S
H2348 C2360 0.959 . S
H2349 C2363 0.929 . S
H2350 C2364 0.931 . S
H2351 C2366 0.930 . S
C2352 H2340 0.930 . S
C2352 C2353 1.399 . S
C2352 C2357 1.399 . S
C2353 C2352 1.399 . S
C2353 C2354 1.376 . S
C2354 H2341 0.930 . S
C2354 C2353 1.376 . S
C2354 C2355 1.388 . S
C2355 H2342 0.930 . S
C2355 C2354 1.388 . S
C2355 C2356 1.390 . S
C2356 C2355 1.390 . S
C2356 C2357 1.394 . S
C2356 C2362 1.465 . S
C2357 C2352 1.399 . S
C2357 C2356 1.394 . S
C2357 C2358 1.516 . S
C2358 C2357 1.516 . S
C2358 C2359 1.502 . S
C2358 C2360 1.561 . S
C2358 C2361 1.526 . S
C2359 H2343 0.959 . S
C2359 H2344 0.959 . S
C2359 H2345 0.961 . S
C2359 C2358 1.502 . S
C2360 H2346 0.960 . S
C2360 H2347 0.961 . S
C2360 H2348 0.959 . S
C2360 C2358 1.561 . S
C2361 C2358 1.526 . S
C2361 C2362 1.396 . S
C2361 C2366 1.390 . S
C2362 C2356 1.465 . S
C2362 C2361 1.396 . S
C2362 C2363 1.399 . S
C2363 H2349 0.929 . S
C2363 C2362 1.399 . S
C2363 C2364 1.385 . S
C2364 H2350 0.931 . S
C2364 C2363 1.385 . S
C2364 C2365 1.389 . S
C2365 C2364 1.389 . S
C2365 C2366 1.387 . S
C2366 H2351 0.930 . S
C2366 C2361 1.390 . S
C2366 C2365 1.387 . S
H2367 C2379 0.930 1_556 S
H2368 C2381 0.930 . S
H2369 C2382 0.930 . S
H2370 C2386 0.959 1_554 S
H2371 C2386 0.959 . S
H2372 C2386 0.961 . S
H2373 C2387 0.960 . S
H2374 C2387 0.961 . S
H2375 C2387 0.959 . S
H2376 C2390 0.929 . S
H2377 C2391 0.927 1_554 S
H2378 C2393 0.930 . S
C2379 H2367 0.930 1_554 S
C2379 C2380 1.399 . S
C2379 C2384 1.399 1_554 S
C2380 C2379 1.399 . S
C2380 C2381 1.376 1_455 S
C2381 H2368 0.930 . S
C2381 C2380 1.376 1_655 S
C2381 C2382 1.388 . S
C2382 H2369 0.930 . S
C2382 C2381 1.388 . S
C2382 C2383 1.390 1_655 S
C2383 C2382 1.390 1_455 S
C2383 C2384 1.394 1_554 S
C2383 C2389 1.465 . S
C2384 C2379 1.399 1_556 S
C2384 C2383 1.394 1_556 S
C2384 C2385 1.516 . S
C2385 C2384 1.516 . S
C2385 C2386 1.502 . S
C2385 C2387 1.561 . S
C2385 C2388 1.526 . S
C2386 H2370 0.959 1_556 S
C2386 H2371 0.959 . S
C2386 H2372 0.961 . S
C2386 C2385 1.502 . S
C2387 H2373 0.960 . S
C2387 H2374 0.961 . S
C2387 H2375 0.959 . S
C2387 C2385 1.561 . S
C2388 C2385 1.526 . S
C2388 C2389 1.396 1_556 S
C2388 C2393 1.390 . S
C2389 C2383 1.465 . S
C2389 C2388 1.396 1_554 S
C2389 C2390 1.399 . S
C2390 H2376 0.929 . S
C2390 C2389 1.399 . S
C2390 C2391 1.385 1_554 S
C2391 H2377 0.927 1_556 S
C2391 C2390 1.385 1_556 S
C2391 C2392 1.389 . S
C2392 C2391 1.389 . S
C2392 C2393 1.387 . S
C2393 H2378 0.930 . S
C2393 C2388 1.390 . S
C2393 C2392 1.387 . S
H2394 C2406 0.943 . S
H2395 C2408 0.930 . S
H2396 C2409 0.930 . S
H2397 C2413 0.959 . S
H2398 C2413 0.959 . S
H2399 C2413 0.961 . S
H2400 C2414 0.960 . S
H2401 C2414 0.961 . S
H2402 C2414 0.959 . S
H2403 C2417 0.929 . S
H2404 C2418 0.931 . S
H2405 C2420 0.930 . S
C2406 H2394 0.943 . S
C2406 C2407 1.383 1_554 S
C2406 C2411 1.402 . S
C2407 C2406 1.383 1_556 S
C2407 C2408 1.376 . S
C2408 H2395 0.930 . S
C2408 C2407 1.376 . S
C2408 C2409 1.388 . S
C2409 H2396 0.930 . S
C2409 C2408 1.388 . S
C2409 C2410 1.390 . S
C2410 C2409 1.390 . S
C2410 C2411 1.394 1_556 S
C2410 C2416 1.465 . S
C2411 C2406 1.402 . S
C2411 C2410 1.394 1_554 S
C2411 C2412 1.516 . S
C2412 C2411 1.516 . S
C2412 C2413 1.502 . S
C2412 C2414 1.561 . S
C2412 C2415 1.526 . S
C2413 H2397 0.959 . S
C2413 H2398 0.959 . S
C2413 H2399 0.961 . S
C2413 C2412 1.502 . S
C2414 H2400 0.960 . S
C2414 H2401 0.961 . S
C2414 H2402 0.959 . S
C2414 C2412 1.561 . S
C2415 C2412 1.526 . S
C2415 C2416 1.396 1_554 S
C2415 C2420 1.390 . S
C2416 C2410 1.465 . S
C2416 C2415 1.396 1_556 S
C2416 C2417 1.399 . S
C2417 H2403 0.929 . S
C2417 C2416 1.399 . S
C2417 C2418 1.385 . S
C2418 H2404 0.931 . S
C2418 C2417 1.385 . S
C2418 C2419 1.389 1_556 S
C2419 C2418 1.389 1_554 S
C2419 C2420 1.387 . S
C2420 H2405 0.930 . S
C2420 C2415 1.390 . S
C2420 C2419 1.387 . S
H2421 C2433 0.930 . S
H2422 C2435 0.930 . S
H2423 C2436 0.930 1_655 S
H2424 C2440 0.959 . S
H2425 C2440 0.959 . S
H2426 C2440 0.961 . S
H2427 C2441 0.960 . S
H2428 C2441 0.961 . S
H2429 C2441 0.959 . S
H2430 C2444 0.929 . S
H2431 C2445 0.931 . S
H2432 C2447 0.930 . S
C2433 H2421 0.930 . S
C2433 C2434 1.399 . S
C2433 C2438 1.399 . S
C2434 C2433 1.399 . S
C2434 C2435 1.376 . S
C2435 H2422 0.930 . S
C2435 C2434 1.376 . S
C2435 C2436 1.388 . S
C2436 H2423 0.930 1_455 S
C2436 C2435 1.388 . S
C2436 C2437 1.390 . S
C2437 C2436 1.390 . S
C2437 C2438 1.394 . S
C2437 C2443 1.465 . S
C2438 C2433 1.399 . S
C2438 C2437 1.394 . S
C2438 C2439 1.516 . S
C2439 C2438 1.516 . S
C2439 C2440 1.502 . S
C2439 C2441 1.561 . S
C2439 C2442 1.526 . S
C2440 H2424 0.959 . S
C2440 H2425 0.959 . S
C2440 H2426 0.961 . S
C2440 C2439 1.502 . S
C2441 H2427 0.960 . S
C2441 H2428 0.961 . S
C2441 H2429 0.959 . S
C2441 C2439 1.561 . S
C2442 C2439 1.526 . S
C2442 C2443 1.396 . S
C2442 C2447 1.390 . S
C2443 C2437 1.465 . S
C2443 C2442 1.396 . S
C2443 C2444 1.399 1_455 S
C2444 H2430 0.929 . S
C2444 C2443 1.399 1_655 S
C2444 C2445 1.385 . S
C2445 H2431 0.931 . S
C2445 C2444 1.385 . S
C2445 C2446 1.389 1_655 S
C2446 C2445 1.389 1_455 S
C2446 C2447 1.387 . S
C2447 H2432 0.930 . S
C2447 C2442 1.390 . S
C2447 C2446 1.387 . S
H2448 C2460 0.930 . S
H2449 C2462 0.930 . S
H2450 C2463 0.930 . S
H2451 C2467 0.959 . S
H2452 C2467 0.959 . S
H2453 C2467 0.961 . S
H2454 C2468 0.960 . S
H2455 C2468 0.961 . S
H2456 C2468 0.959 . S
H2457 C2471 0.929 . S
H2458 C2472 0.931 . S
H2459 C2474 0.930 . S
C2460 H2448 0.930 . S
C2460 C2461 1.399 . S
C2460 C2465 1.399 . S
C2461 C2460 1.399 . S
C2461 C2462 1.376 . S
C2462 H2449 0.930 . S
C2462 C2461 1.376 . S
C2462 C2463 1.388 . S
C2463 H2450 0.930 . S
C2463 C2462 1.388 . S
C2463 C2464 1.390 . S
C2464 C2463 1.390 . S
C2464 C2465 1.394 . S
C2464 C2470 1.465 . S
C2465 C2460 1.399 . S
C2465 C2464 1.394 . S
C2465 C2466 1.516 . S
C2466 C2465 1.516 . S
C2466 C2467 1.502 . S
C2466 C2468 1.561 . S
C2466 C2469 1.526 . S
C2467 H2451 0.959 . S
C2467 H2452 0.959 . S
C2467 H2453 0.961 . S
C2467 C2466 1.502 . S
C2468 H2454 0.960 . S
C2468 H2455 0.961 . S
C2468 H2456 0.959 . S
C2468 C2466 1.561 . S
C2469 C2466 1.526 . S
C2469 C2470 1.396 . S
C2469 C2474 1.390 . S
C2470 C2464 1.465 . S
C2470 C2469 1.396 . S
C2470 C2471 1.399 . S
C2471 H2457 0.929 . S
C2471 C2470 1.399 . S
C2471 C2472 1.385 . S
C2472 H2458 0.931 . S
C2472 C2471 1.385 . S
C2472 C2473 1.389 . S
C2473 C2472 1.389 . S
C2473 C2474 1.387 . S
C2474 H2459 0.930 . S
C2474 C2469 1.390 . S
C2474 C2473 1.387 . S
H2475 C2487 0.930 . S
H2476 C2489 0.930 . S
H2477 C2490 0.930 . S
H2478 C2494 0.959 . S
H2479 C2494 0.959 . S
H2480 C2494 0.961 . S
H2481 C2495 0.960 . S
H2482 C2495 0.961 . S
H2483 C2495 0.959 . S
H2484 C2498 0.929 . S
H2485 C2499 0.931 . S
H2486 C2501 0.930 . S
C2487 H2475 0.930 . S
C2487 C2488 1.399 . S
C2487 C2492 1.399 . S
C2488 C2487 1.399 . S
C2488 C2489 1.376 . S
C2489 H2476 0.930 . S
C2489 C2488 1.376 . S
C2489 C2490 1.388 . S
C2490 H2477 0.930 . S
C2490 C2489 1.388 . S
C2490 C2491 1.390 . S
C2491 C2490 1.390 . S
C2491 C2492 1.394 . S
C2491 C2497 1.465 . S
C2492 C2487 1.399 . S
C2492 C2491 1.394 . S
C2492 C2493 1.516 . S
C2493 C2492 1.516 . S
C2493 C2494 1.502 . S
C2493 C2495 1.561 . S
C2493 C2496 1.526 . S
C2494 H2478 0.959 . S
C2494 H2479 0.959 . S
C2494 H2480 0.961 . S
C2494 C2493 1.502 . S
C2495 H2481 0.960 . S
C2495 H2482 0.961 . S
C2495 H2483 0.959 . S
C2495 C2493 1.561 . S
C2496 C2493 1.526 . S
C2496 C2497 1.396 . S
C2496 C2501 1.390 . S
C2497 C2491 1.465 . S
C2497 C2496 1.396 . S
C2497 C2498 1.399 . S
C2498 H2484 0.929 . S
C2498 C2497 1.399 . S
C2498 C2499 1.385 . S
C2499 H2485 0.931 . S
C2499 C2498 1.385 . S
C2499 C2500 1.389 . S
C2500 C2499 1.389 . S
C2500 C2501 1.387 . S
C2501 H2486 0.930 . S
C2501 C2496 1.390 . S
C2501 C2500 1.387 . S
H2502 C2514 0.930 . S
H2503 C2516 0.930 . S
H2504 C2517 0.930 . S
H2505 C2521 0.959 . S
H2506 C2521 0.959 . S
H2507 C2521 0.961 . S
H2508 C2522 0.960 . S
H2509 C2522 0.961 . S
H2510 C2522 0.959 . S
H2511 C2525 0.929 . S
H2512 C2526 0.931 . S
H2513 C2528 0.930 . S
C2514 H2502 0.930 . S
C2514 C2515 1.399 . S
C2514 C2519 1.399 . S
C2515 C2514 1.399 . S
C2515 C2516 1.376 . S
C2516 H2503 0.930 . S
C2516 C2515 1.376 . S
C2516 C2517 1.388 . S
C2517 H2504 0.930 . S
C2517 C2516 1.388 . S
C2517 C2518 1.390 . S
C2518 C2517 1.390 . S
C2518 C2519 1.394 . S
C2518 C2524 1.465 . S
C2519 C2514 1.399 . S
C2519 C2518 1.394 . S
C2519 C2520 1.516 . S
C2520 C2519 1.516 . S
C2520 C2521 1.502 . S
C2520 C2522 1.561 . S
C2520 C2523 1.526 . S
C2521 H2505 0.959 . S
C2521 H2506 0.959 . S
C2521 H2507 0.961 . S
C2521 C2520 1.502 . S
C2522 H2508 0.960 . S
C2522 H2509 0.961 . S
C2522 H2510 0.959 . S
C2522 C2520 1.561 . S
C2523 C2520 1.526 . S
C2523 C2524 1.396 . S
C2523 C2528 1.390 . S
C2524 C2518 1.465 . S
C2524 C2523 1.396 . S
C2524 C2525 1.399 . S
C2525 H2511 0.929 . S
C2525 C2524 1.399 . S
C2525 C2526 1.385 . S
C2526 H2512 0.931 . S
C2526 C2525 1.385 . S
C2526 C2527 1.389 . S
C2527 C2526 1.389 . S
C2527 C2528 1.387 . S
C2528 H2513 0.930 . S
C2528 C2523 1.390 . S
C2528 C2527 1.387 . S
H2529 C2541 0.930 . S
H2530 C2543 0.930 . S
H2531 C2544 0.930 . S
H2532 C2548 0.959 . S
H2533 C2548 0.959 . S
H2534 C2548 0.961 . S
H2535 C2549 0.960 . S
H2536 C2549 0.961 . S
H2537 C2549 0.959 . S
H2538 C2552 0.929 . S
H2539 C2553 0.931 . S
H2540 C2555 0.930 . S
C2541 H2529 0.930 . S
C2541 C2542 1.399 . S
C2541 C2546 1.399 . S
C2542 C2541 1.399 . S
C2542 C2543 1.376 . S
C2543 H2530 0.930 . S
C2543 C2542 1.376 . S
C2543 C2544 1.388 . S
C2544 H2531 0.930 . S
C2544 C2543 1.388 . S
C2544 C2545 1.390 . S
C2545 C2544 1.390 . S
C2545 C2546 1.394 . S
C2545 C2551 1.465 . S
C2546 C2541 1.399 . S
C2546 C2545 1.394 . S
C2546 C2547 1.516 . S
C2547 C2546 1.516 . S
C2547 C2548 1.502 . S
C2547 C2549 1.561 . S
C2547 C2550 1.526 . S
C2548 H2532 0.959 . S
C2548 H2533 0.959 . S
C2548 H2534 0.961 . S
C2548 C2547 1.502 . S
C2549 H2535 0.960 . S
C2549 H2536 0.961 . S
C2549 H2537 0.959 . S
C2549 C2547 1.561 . S
C2550 C2547 1.526 . S
C2550 C2551 1.396 . S
C2550 C2555 1.390 . S
C2551 C2545 1.465 . S
C2551 C2550 1.396 . S
C2551 C2552 1.399 . S
C2552 H2538 0.929 . S
C2552 C2551 1.399 . S
C2552 C2553 1.385 . S
C2553 H2539 0.931 . S
C2553 C2552 1.385 . S
C2553 C2554 1.389 . S
C2554 C2553 1.389 . S
C2554 C2555 1.387 . S
C2555 H2540 0.930 . S
C2555 C2550 1.390 . S
C2555 C2554 1.387 . S
H2556 C2568 0.930 . S
H2557 C2570 0.930 . S
H2558 C2571 0.930 . S
H2559 C2575 0.959 . S
H2560 C2575 0.959 . S
H2561 C2575 0.961 . S
H2562 C2576 0.960 . S
H2563 C2576 0.961 . S
H2564 C2576 0.959 . S
H2565 C2579 0.929 . S
H2566 C2580 0.931 . S
H2567 C2582 0.930 . S
C2568 H2556 0.930 . S
C2568 C2569 1.399 . S
C2568 C2573 1.399 . S
C2569 C2568 1.399 . S
C2569 C2570 1.376 . S
C2570 H2557 0.930 . S
C2570 C2569 1.376 . S
C2570 C2571 1.388 . S
C2571 H2558 0.930 . S
C2571 C2570 1.388 . S
C2571 C2572 1.390 . S
C2572 C2571 1.390 . S
C2572 C2573 1.394 . S
C2572 C2578 1.465 . S
C2573 C2568 1.399 . S
C2573 C2572 1.394 . S
C2573 C2574 1.516 . S
C2574 C2573 1.516 . S
C2574 C2575 1.502 . S
C2574 C2576 1.561 . S
C2574 C2577 1.526 . S
C2575 H2559 0.959 . S
C2575 H2560 0.959 . S
C2575 H2561 0.961 . S
C2575 C2574 1.502 . S
C2576 H2562 0.960 . S
C2576 H2563 0.961 . S
C2576 H2564 0.959 . S
C2576 C2574 1.561 . S
C2577 C2574 1.526 . S
C2577 C2578 1.396 . S
C2577 C2582 1.390 . S
C2578 C2572 1.465 . S
C2578 C2577 1.396 . S
C2578 C2579 1.399 . S
C2579 H2565 0.929 . S
C2579 C2578 1.399 . S
C2579 C2580 1.385 . S
C2580 H2566 0.931 . S
C2580 C2579 1.385 . S
C2580 C2581 1.389 . S
C2581 C2580 1.389 . S
C2581 C2582 1.387 . S
C2582 H2567 0.930 . S
C2582 C2577 1.390 . S
C2582 C2581 1.387 . S
H2583 C2595 0.930 . S
H2584 C2597 0.930 . S
H2585 C2598 0.930 . S
H2586 C2602 0.959 . S
H2587 C2602 0.959 . S
H2588 C2602 0.961 . S
H2589 C2603 0.960 . S
H2590 C2603 0.961 . S
H2591 C2603 0.959 . S
H2592 C2606 0.929 . S
H2593 C2607 0.931 . S
H2594 C2609 0.930 . S
C2595 H2583 0.930 . S
C2595 C2596 1.399 . S
C2595 C2600 1.399 . S
C2596 C2595 1.399 . S
C2596 C2597 1.376 . S
C2597 H2584 0.930 . S
C2597 C2596 1.376 . S
C2597 C2598 1.388 . S
C2598 H2585 0.930 . S
C2598 C2597 1.388 . S
C2598 C2599 1.390 . S
C2599 C2598 1.390 . S
C2599 C2600 1.394 . S
C2599 C2605 1.465 . S
C2600 C2595 1.399 . S
C2600 C2599 1.394 . S
C2600 C2601 1.516 . S
C2601 C2600 1.516 . S
C2601 C2602 1.502 . S
C2601 C2603 1.561 . S
C2601 C2604 1.526 . S
C2602 H2586 0.959 . S
C2602 H2587 0.959 . S
C2602 H2588 0.961 . S
C2602 C2601 1.502 . S
C2603 H2589 0.960 . S
C2603 H2590 0.961 . S
C2603 H2591 0.959 . S
C2603 C2601 1.561 . S
C2604 C2601 1.526 . S
C2604 C2605 1.396 . S
C2604 C2609 1.390 . S
C2605 C2599 1.465 . S
C2605 C2604 1.396 . S
C2605 C2606 1.399 . S
C2606 H2592 0.929 . S
C2606 C2605 1.399 . S
C2606 C2607 1.385 . S
C2607 H2593 0.931 . S
C2607 C2606 1.385 . S
C2607 C2608 1.389 . S
C2608 C2607 1.389 . S
C2608 C2609 1.387 . S
C2609 H2594 0.930 . S
C2609 C2604 1.390 . S
C2609 C2608 1.387 . S
H2610 C2622 0.930 . S
H2611 C2624 0.930 . S
H2612 C2625 0.930 . S
H2613 C2629 0.959 . S
H2614 C2629 0.959 . S
H2615 C2629 0.961 . S
H2616 C2630 0.960 . S
H2617 C2630 0.961 . S
H2618 C2630 0.959 . S
H2619 C2633 0.929 . S
H2620 C2634 0.931 . S
H2621 C2636 0.930 . S
C2622 H2610 0.930 . S
C2622 C2623 1.399 . S
C2622 C2627 1.399 . S
C2623 C2622 1.399 . S
C2623 C2624 1.376 . S
C2624 H2611 0.930 . S
C2624 C2623 1.376 . S
C2624 C2625 1.388 . S
C2625 H2612 0.930 . S
C2625 C2624 1.388 . S
C2625 C2626 1.390 . S
C2626 C2625 1.390 . S
C2626 C2627 1.394 . S
C2626 C2632 1.465 . S
C2627 C2622 1.399 . S
C2627 C2626 1.394 . S
C2627 C2628 1.516 . S
C2628 C2627 1.516 . S
C2628 C2629 1.502 . S
C2628 C2630 1.561 . S
C2628 C2631 1.526 . S
C2629 H2613 0.959 . S
C2629 H2614 0.959 . S
C2629 H2615 0.961 . S
C2629 C2628 1.502 . S
C2630 H2616 0.960 . S
C2630 H2617 0.961 . S
C2630 H2618 0.959 . S
C2630 C2628 1.561 . S
C2631 C2628 1.526 . S
C2631 C2632 1.396 . S
C2631 C2636 1.390 . S
C2632 C2626 1.465 . S
C2632 C2631 1.396 . S
C2632 C2633 1.399 . S
C2633 H2619 0.929 . S
C2633 C2632 1.399 . S
C2633 C2634 1.385 . S
C2634 H2620 0.931 . S
C2634 C2633 1.385 . S
C2634 C2635 1.389 . S
C2635 C2634 1.389 . S
C2635 C2636 1.387 . S
C2636 H2621 0.930 . S
C2636 C2631 1.390 . S
C2636 C2635 1.387 . S
H2637 C2649 0.930 . S
H2638 C2651 0.930 . S
H2639 C2652 0.930 . S
H2640 C2656 0.959 . S
H2641 C2656 0.959 . S
H2642 C2656 0.961 . S
H2643 C2657 0.960 . S
H2644 C2657 0.961 . S
H2645 C2657 0.959 . S
H2646 C2660 0.929 . S
H2647 C2661 0.931 . S
H2648 C2663 0.930 . S
C2649 H2637 0.930 . S
C2649 C2650 1.399 . S
C2649 C2654 1.399 . S
C2650 C2649 1.399 . S
C2650 C2651 1.376 . S
C2651 H2638 0.930 . S
C2651 C2650 1.376 . S
C2651 C2652 1.388 . S
C2652 H2639 0.930 . S
C2652 C2651 1.388 . S
C2652 C2653 1.390 . S
C2653 C2652 1.390 . S
C2653 C2654 1.394 . S
C2653 C2659 1.465 . S
C2654 C2649 1.399 . S
C2654 C2653 1.394 . S
C2654 C2655 1.516 . S
C2655 C2654 1.516 . S
C2655 C2656 1.502 . S
C2655 C2657 1.561 . S
C2655 C2658 1.526 . S
C2656 H2640 0.959 . S
C2656 H2641 0.959 . S
C2656 H2642 0.961 . S
C2656 C2655 1.502 . S
C2657 H2643 0.960 . S
C2657 H2644 0.961 . S
C2657 H2645 0.959 . S
C2657 C2655 1.561 . S
C2658 C2655 1.526 . S
C2658 C2659 1.396 . S
C2658 C2663 1.390 . S
C2659 C2653 1.465 . S
C2659 C2658 1.396 . S
C2659 C2660 1.399 . S
C2660 H2646 0.929 . S
C2660 C2659 1.399 . S
C2660 C2661 1.385 . S
C2661 H2647 0.931 . S
C2661 C2660 1.385 . S
C2661 C2662 1.389 . S
C2662 C2661 1.389 . S
C2662 C2663 1.387 . S
C2663 H2648 0.930 . S
C2663 C2658 1.390 . S
C2663 C2662 1.387 . S
H2664 C2676 0.930 . S
H2665 C2678 0.930 . S
H2666 C2679 0.930 . S
H2667 C2683 0.959 . S
H2668 C2683 0.959 . S
H2669 C2683 0.961 . S
H2670 C2684 0.960 . S
H2671 C2684 0.961 . S
H2672 C2684 0.959 . S
H2673 C2687 0.929 . S
H2674 C2688 0.931 . S
H2675 C2690 0.930 . S
C2676 H2664 0.930 . S
C2676 C2677 1.399 . S
C2676 C2681 1.399 . S
C2677 C2676 1.399 . S
C2677 C2678 1.376 . S
C2678 H2665 0.930 . S
C2678 C2677 1.376 . S
C2678 C2679 1.388 . S
C2679 H2666 0.930 . S
C2679 C2678 1.388 . S
C2679 C2680 1.390 . S
C2680 C2679 1.390 . S
C2680 C2681 1.394 . S
C2680 C2686 1.465 . S
C2681 C2676 1.399 . S
C2681 C2680 1.394 . S
C2681 C2682 1.516 . S
C2682 C2681 1.516 . S
C2682 C2683 1.502 . S
C2682 C2684 1.561 . S
C2682 C2685 1.526 . S
C2683 H2667 0.959 . S
C2683 H2668 0.959 . S
C2683 H2669 0.961 . S
C2683 C2682 1.502 . S
C2684 H2670 0.960 . S
C2684 H2671 0.961 . S
C2684 H2672 0.959 . S
C2684 C2682 1.561 . S
C2685 C2682 1.526 . S
C2685 C2686 1.396 . S
C2685 C2690 1.390 . S
C2686 C2680 1.465 . S
C2686 C2685 1.396 . S
C2686 C2687 1.399 . S
C2687 H2673 0.929 . S
C2687 C2686 1.399 . S
C2687 C2688 1.385 . S
C2688 H2674 0.931 . S
C2688 C2687 1.385 . S
C2688 C2689 1.389 . S
C2689 C2688 1.389 . S
C2689 C2690 1.387 . S
C2690 H2675 0.930 . S
C2690 C2685 1.390 . S
C2690 C2689 1.387 . S
H2691 C2703 0.930 . S
H2692 C2705 0.930 . S
H2693 C2706 0.930 . S
H2694 C2710 0.959 . S
H2695 C2710 0.959 . S
H2696 C2710 0.961 . S
H2697 C2711 0.960 . S
H2698 C2711 0.961 . S
H2699 C2711 0.959 . S
H2700 C2714 0.929 . S
H2701 C2715 0.931 . S
H2702 C2717 0.930 . S
C2703 H2691 0.930 . S
C2703 C2704 1.399 . S
C2703 C2708 1.399 . S
C2704 C2703 1.399 . S
C2704 C2705 1.376 . S
C2705 H2692 0.930 . S
C2705 C2704 1.376 . S
C2705 C2706 1.388 . S
C2706 H2693 0.930 . S
C2706 C2705 1.388 . S
C2706 C2707 1.390 . S
C2707 C2706 1.390 . S
C2707 C2708 1.394 . S
C2707 C2713 1.465 . S
C2708 C2703 1.399 . S
C2708 C2707 1.394 . S
C2708 C2709 1.516 . S
C2709 C2708 1.516 . S
C2709 C2710 1.502 . S
C2709 C2711 1.561 . S
C2709 C2712 1.526 . S
C2710 H2694 0.959 . S
C2710 H2695 0.959 . S
C2710 H2696 0.961 . S
C2710 C2709 1.502 . S
C2711 H2697 0.960 . S
C2711 H2698 0.961 . S
C2711 H2699 0.959 . S
C2711 C2709 1.561 . S
C2712 C2709 1.526 . S
C2712 C2713 1.396 . S
C2712 C2717 1.390 . S
C2713 C2707 1.465 . S
C2713 C2712 1.396 . S
C2713 C2714 1.399 . S
C2714 H2700 0.929 . S
C2714 C2713 1.399 . S
C2714 C2715 1.385 . S
C2715 H2701 0.931 . S
C2715 C2714 1.385 . S
C2715 C2716 1.389 . S
C2716 C2715 1.389 . S
C2716 C2717 1.387 . S
C2717 H2702 0.930 . S
C2717 C2712 1.390 . S
C2717 C2716 1.387 . S
H2718 C2730 0.930 . S
H2719 C2732 0.930 . S
H2720 C2733 0.930 . S
H2721 C2737 0.959 . S
H2722 C2737 0.959 . S
H2723 C2737 0.961 . S
H2724 C2738 0.960 . S
H2725 C2738 0.961 . S
H2726 C2738 0.959 . S
H2727 C2741 0.929 . S
H2728 C2742 0.931 . S
H2729 C2744 0.930 . S
C2730 H2718 0.930 . S
C2730 C2731 1.399 . S
C2730 C2735 1.399 . S
C2731 C2730 1.399 . S
C2731 C2732 1.376 . S
C2732 H2719 0.930 . S
C2732 C2731 1.376 . S
C2732 C2733 1.388 . S
C2733 H2720 0.930 . S
C2733 C2732 1.388 . S
C2733 C2734 1.390 . S
C2734 C2733 1.390 . S
C2734 C2735 1.394 . S
C2734 C2740 1.465 . S
C2735 C2730 1.399 . S
C2735 C2734 1.394 . S
C2735 C2736 1.516 . S
C2736 C2735 1.516 . S
C2736 C2737 1.502 . S
C2736 C2738 1.561 . S
C2736 C2739 1.526 . S
C2737 H2721 0.959 . S
C2737 H2722 0.959 . S
C2737 H2723 0.961 . S
C2737 C2736 1.502 . S
C2738 H2724 0.960 . S
C2738 H2725 0.961 . S
C2738 H2726 0.959 . S
C2738 C2736 1.561 . S
C2739 C2736 1.526 . S
C2739 C2740 1.396 . S
C2739 C2744 1.390 . S
C2740 C2734 1.465 . S
C2740 C2739 1.396 . S
C2740 C2741 1.399 . S
C2741 H2727 0.929 . S
C2741 C2740 1.399 . S
C2741 C2742 1.385 . S
C2742 H2728 0.931 . S
C2742 C2741 1.385 . S
C2742 C2743 1.389 . S
C2743 C2742 1.389 . S
C2743 C2744 1.387 . S
C2744 H2729 0.930 . S
C2744 C2739 1.390 . S
C2744 C2743 1.387 . S
H2745 C2757 0.930 . S
H2746 C2759 0.930 . S
H2747 C2760 0.930 . S
H2748 C2764 0.959 . S
H2749 C2764 0.959 . S
H2750 C2764 0.961 . S
H2751 C2765 0.960 . S
H2752 C2765 0.961 . S
H2753 C2765 0.959 . S
H2754 C2768 0.929 . S
H2755 C2769 0.931 . S
H2756 C2771 0.930 . S
C2757 H2745 0.930 . S
C2757 C2758 1.399 . S
C2757 C2762 1.399 . S
C2758 C2757 1.399 . S
C2758 C2759 1.376 . S
C2759 H2746 0.930 . S
C2759 C2758 1.376 . S
C2759 C2760 1.388 . S
C2760 H2747 0.930 . S
C2760 C2759 1.388 . S
C2760 C2761 1.390 . S
C2761 C2760 1.390 . S
C2761 C2762 1.394 . S
C2761 C2767 1.465 . S
C2762 C2757 1.399 . S
C2762 C2761 1.394 . S
C2762 C2763 1.516 . S
C2763 C2762 1.516 . S
C2763 C2764 1.502 . S
C2763 C2765 1.561 . S
C2763 C2766 1.526 . S
C2764 H2748 0.959 . S
C2764 H2749 0.959 . S
C2764 H2750 0.961 . S
C2764 C2763 1.502 . S
C2765 H2751 0.960 . S
C2765 H2752 0.961 . S
C2765 H2753 0.959 . S
C2765 C2763 1.561 . S
C2766 C2763 1.526 . S
C2766 C2767 1.396 . S
C2766 C2771 1.390 . S
C2767 C2761 1.465 . S
C2767 C2766 1.396 . S
C2767 C2768 1.399 . S
C2768 H2754 0.929 . S
C2768 C2767 1.399 . S
C2768 C2769 1.385 . S
C2769 H2755 0.931 . S
C2769 C2768 1.385 . S
C2769 C2770 1.389 . S
C2770 C2769 1.389 . S
C2770 C2771 1.387 . S
C2771 H2756 0.930 . S
C2771 C2766 1.390 . S
C2771 C2770 1.387 . S
H2772 C2784 0.930 . S
H2773 C2786 0.930 . S
H2774 C2787 0.930 . S
H2775 C2791 0.959 . S
H2776 C2791 0.959 . S
H2777 C2791 0.961 . S
H2778 C2792 0.960 . S
H2779 C2792 0.961 . S
H2780 C2792 0.959 . S
H2781 C2795 0.929 . S
H2782 C2796 0.931 . S
H2783 C2798 0.930 . S
C2784 H2772 0.930 . S
C2784 C2785 1.399 . S
C2784 C2789 1.399 . S
C2785 C2784 1.399 . S
C2785 C2786 1.376 . S
C2786 H2773 0.930 . S
C2786 C2785 1.376 . S
C2786 C2787 1.388 . S
C2787 H2774 0.930 . S
C2787 C2786 1.388 . S
C2787 C2788 1.390 . S
C2788 C2787 1.390 . S
C2788 C2789 1.394 . S
C2788 C2794 1.465 . S
C2789 C2784 1.399 . S
C2789 C2788 1.394 . S
C2789 C2790 1.516 . S
C2790 C2789 1.516 . S
C2790 C2791 1.502 . S
C2790 C2792 1.561 . S
C2790 C2793 1.526 . S
C2791 H2775 0.959 . S
C2791 H2776 0.959 . S
C2791 H2777 0.961 . S
C2791 C2790 1.502 . S
C2792 H2778 0.960 . S
C2792 H2779 0.961 . S
C2792 H2780 0.959 . S
C2792 C2790 1.561 . S
C2793 C2790 1.526 . S
C2793 C2794 1.396 . S
C2793 C2798 1.390 . S
C2794 C2788 1.465 . S
C2794 C2793 1.396 . S
C2794 C2795 1.399 . S
C2795 H2781 0.929 . S
C2795 C2794 1.399 . S
C2795 C2796 1.385 . S
C2796 H2782 0.931 . S
C2796 C2795 1.385 . S
C2796 C2797 1.389 . S
C2797 C2796 1.389 . S
C2797 C2798 1.387 . S
C2798 H2783 0.930 . S
C2798 C2793 1.390 . S
C2798 C2797 1.387 . S
H2799 C2811 0.930 . S
H2800 C2813 0.930 . S
H2801 C2814 0.930 . S
H2802 C2818 0.959 . S
H2803 C2818 0.959 . S
H2804 C2818 0.961 . S
H2805 C2819 0.960 . S
H2806 C2819 0.961 . S
H2807 C2819 0.959 . S
H2808 C2822 0.929 . S
H2809 C2823 0.931 . S
H2810 C2825 0.930 . S
C2811 H2799 0.930 . S
C2811 C2812 1.399 . S
C2811 C2816 1.399 . S
C2812 C2811 1.399 . S
C2812 C2813 1.376 . S
C2813 H2800 0.930 . S
C2813 C2812 1.376 . S
C2813 C2814 1.388 . S
C2814 H2801 0.930 . S
C2814 C2813 1.388 . S
C2814 C2815 1.390 . S
C2815 C2814 1.390 . S
C2815 C2816 1.394 . S
C2815 C2821 1.465 . S
C2816 C2811 1.399 . S
C2816 C2815 1.394 . S
C2816 C2817 1.516 . S
C2817 C2816 1.516 . S
C2817 C2818 1.502 . S
C2817 C2819 1.561 . S
C2817 C2820 1.526 . S
C2818 H2802 0.959 . S
C2818 H2803 0.959 . S
C2818 H2804 0.961 . S
C2818 C2817 1.502 . S
C2819 H2805 0.960 . S
C2819 H2806 0.961 . S
C2819 H2807 0.959 . S
C2819 C2817 1.561 . S
C2820 C2817 1.526 . S
C2820 C2821 1.396 . S
C2820 C2825 1.390 . S
C2821 C2815 1.465 . S
C2821 C2820 1.396 . S
C2821 C2822 1.399 . S
C2822 H2808 0.929 . S
C2822 C2821 1.399 . S
C2822 C2823 1.385 . S
C2823 H2809 0.931 . S
C2823 C2822 1.385 . S
C2823 C2824 1.389 . S
C2824 C2823 1.389 . S
C2824 C2825 1.387 . S
C2825 H2810 0.930 . S
C2825 C2820 1.390 . S
C2825 C2824 1.387 . S
H2826 C2838 0.930 . S
H2827 C2840 0.930 . S
H2828 C2841 0.930 . S
H2829 C2845 0.959 . S
H2830 C2845 0.959 . S
H2831 C2845 0.961 . S
H2832 C2846 0.960 . S
H2833 C2846 0.961 . S
H2834 C2846 0.959 . S
H2835 C2849 0.929 . S
H2836 C2850 0.931 . S
H2837 C2852 0.930 . S
C2838 H2826 0.930 . S
C2838 C2839 1.399 . S
C2838 C2843 1.399 . S
C2839 C2838 1.399 . S
C2839 C2840 1.376 . S
C2840 H2827 0.930 . S
C2840 C2839 1.376 . S
C2840 C2841 1.388 . S
C2841 H2828 0.930 . S
C2841 C2840 1.388 . S
C2841 C2842 1.390 . S
C2842 C2841 1.390 . S
C2842 C2843 1.394 . S
C2842 C2848 1.465 . S
C2843 C2838 1.399 . S
C2843 C2842 1.394 . S
C2843 C2844 1.516 . S
C2844 C2843 1.516 . S
C2844 C2845 1.502 . S
C2844 C2846 1.561 . S
C2844 C2847 1.526 . S
C2845 H2829 0.959 . S
C2845 H2830 0.959 . S
C2845 H2831 0.961 . S
C2845 C2844 1.502 . S
C2846 H2832 0.960 . S
C2846 H2833 0.961 . S
C2846 H2834 0.959 . S
C2846 C2844 1.561 . S
C2847 C2844 1.526 . S
C2847 C2848 1.396 . S
C2847 C2852 1.390 . S
C2848 C2842 1.465 . S
C2848 C2847 1.396 . S
C2848 C2849 1.399 . S
C2849 H2835 0.929 . S
C2849 C2848 1.399 . S
C2849 C2850 1.385 . S
C2850 H2836 0.931 . S
C2850 C2849 1.385 . S
C2850 C2851 1.389 . S
C2851 C2850 1.389 . S
C2851 C2852 1.387 . S
C2852 H2837 0.930 . S
C2852 C2847 1.390 . S
C2852 C2851 1.387 . S
H2853 C2865 0.930 . S
H2854 C2867 0.930 . S
H2855 C2868 0.930 . S
H2856 C2872 0.959 . S
H2857 C2872 0.959 . S
H2858 C2872 0.961 . S
H2859 C2873 0.960 . S
H2860 C2873 0.961 . S
H2861 C2873 0.959 . S
H2862 C2876 0.929 . S
H2863 C2877 0.931 . S
H2864 C2879 0.930 . S
C2865 H2853 0.930 . S
C2865 C2866 1.399 . S
C2865 C2870 1.399 . S
C2866 C2865 1.399 . S
C2866 C2867 1.376 . S
C2867 H2854 0.930 . S
C2867 C2866 1.376 . S
C2867 C2868 1.388 . S
C2868 H2855 0.930 . S
C2868 C2867 1.388 . S
C2868 C2869 1.390 . S
C2869 C2868 1.390 . S
C2869 C2870 1.394 . S
C2869 C2875 1.465 . S
C2870 C2865 1.399 . S
C2870 C2869 1.394 . S
C2870 C2871 1.516 . S
C2871 C2870 1.516 . S
C2871 C2872 1.502 . S
C2871 C2873 1.561 . S
C2871 C2874 1.526 . S
C2872 H2856 0.959 . S
C2872 H2857 0.959 . S
C2872 H2858 0.961 . S
C2872 C2871 1.502 . S
C2873 H2859 0.960 . S
C2873 H2860 0.961 . S
C2873 H2861 0.959 . S
C2873 C2871 1.561 . S
C2874 C2871 1.526 . S
C2874 C2875 1.396 . S
C2874 C2879 1.390 . S
C2875 C2869 1.465 . S
C2875 C2874 1.396 . S
C2875 C2876 1.399 . S
C2876 H2862 0.929 . S
C2876 C2875 1.399 . S
C2876 C2877 1.385 . S
C2877 H2863 0.931 . S
C2877 C2876 1.385 . S
C2877 C2878 1.389 . S
C2878 C2877 1.389 . S
C2878 C2879 1.387 . S
C2879 H2864 0.930 . S
C2879 C2874 1.390 . S
C2879 C2878 1.387 . S
C1165 C446 1.120 . S
C1177 C2 1.099 . S
C1192 C1048 0.929 . S
C1204 C38 0.812 . S
C1219 C518 1.123 . S
C1231 C74 1.089 . S
C1246 C1120 0.944 . S
C1258 C110 0.819 . S
C1273 C302 1.081 . S
C1285 C146 1.142 . S
C1300 C182 0.896 . S
C1312 C904 0.967 . S
C1327 C218 1.163 . S
C1339 C374 1.061 . S
C1354 C976 0.929 . S
C1366 C254 0.812 . S
C1381 C158 1.019 . S
C1393 C290 1.124 . S
C1408 C770 0.907 . S
C1420 C327 0.929 . S
C1435 C230 1.141 . S
C1447 C362 1.007 . S
C1462 C842 0.921 . S
C1474 C399 0.945 . S
C1489 C434 1.126 . S
C1501 C14 1.049 . S
C1516 C471 0.979 . S
C1528 C626 0.851 . S
C1543 C86 1.019 . S
C1555 C506 1.124 . S
C1570 C543 0.979 . S
C1582 C698 0.856 . S
C1597 C1022 1.172 . S
C1609 C578 1.032 . S
C1624 C472 0.929 . S
C1636 C614 0.812 . S
C1651 C1094 1.125 . S
C1663 C650 1.087 . S
C1678 C686 0.928 . S
C1690 C544 0.959 . S
C1705 C722 1.032 . S
C1717 C878 1.171 . S
C1732 C758 0.904 . S
C1744 C328 0.850 . S
C1759 C950 1.125 . S
C1771 C794 1.094 . S
C1786 C400 0.926 . S
C1798 C830 0.811 . S
C1813 C734 1.140 . S
C1825 C866 1.000 . S
C1840 C903 0.979 . S
C1852 C194 0.853 . S
C1867 C938 1.084 . S
C1879 C806 1.098 . S
C1894 C975 0.979 . S
C1906 C266 0.853 . S
C1921 C590 1.141 . S
C1933 C1010 1.004 . S
C1948 C50 0.910 . S
C1960 C1047 0.927 . S
C1975 C662 1.136 . S
C1987 C1082 1.026 . S
C2002 C1119 0.979 . S
C2014 C122 0.852 . S
C2029 C3 1.375 1_655 S
C2041 C291 1.407 . S
C2056 C39 1.411 . S
C2068 C902 1.366 . S
C2083 C363 1.407 . S
C2095 C75 1.394 . S
C2110 C111 1.400 . S
C2122 C974 1.384 . S
C2137 C147 1.376 1_655 S
C2149 C435 1.407 . S
C2164 C1046 1.385 . S
C2176 C183 1.400 . S
C2191 C507 1.395 . S
C2203 C219 1.405 . S
C2218 C255 1.414 . S
C2230 C1118 1.361 . S
C2245 C326 1.397 . S
C2257 C615 1.391 . S
C2272 C398 1.323 . S
C2284 C687 1.427 . S
C2299 C470 1.409 . S
C2311 C759 1.378 . S
C2326 C831 1.395 . S
C2338 C542 1.390 . S
C2353 C579 1.374 . S
C2365 C867 1.421 . S
C2380 C651 1.429 1_455 S
C2392 C939 1.351 . S
C2407 C723 1.425 . S
C2419 C1011 1.366 . S
C2434 C1083 1.349 . S
C2446 C795 1.425 1_455 S
C2461 C4 1.318 . S
C2473 C256 1.290 . S
C2488 C40 1.288 . S
C2500 C148 1.316 . S
C2515 C184 1.342 . S
C2527 C76 1.334 . S
C2542 C220 1.288 . S
C2554 C112 1.308 . S
C2569 C554 1.190 . S
C2581 C292 1.301 . S
C2596 C436 1.242 . S
C2608 C338 1.215 . S
C2623 C482 1.192 . S
C2635 C364 1.302 . S
C2650 C508 1.255 . S
C2662 C410 1.199 . S
C2677 C580 1.342 . S
C2689 C832 1.317 . S
C2704 C724 1.341 . S
C2716 C616 1.314 . S
C2731 C760 1.287 . S
C2743 C652 1.298 . S
C2758 C796 1.340 . S
C2770 C688 1.312 . S
C2785 C1130 1.292 . S
C2797 C868 1.247 . S
C2812 C914 1.294 . S
C2824 C1012 1.254 . S
C2839 C940 1.287 . S
C2851 C1058 1.281 . S
C2866 C1084 1.291 . S
C2878 C986 1.277 . S
