# Generated by pormake.
# Topology hcp, (12)-cn, num edge types: 1
# Building blocks:
#     Node 0, Type 0, BuildingBlock: EZIPEK_clean_sbu_0, # of connection points: 12
#     Node 1, Type 0, BuildingBlock: EZIPEK_clean_sbu_0, # of connection points: 12
#     Edge 2, Type (0, 0), BuildingBlock: MIFKUJ_clean_linker_0, # of connection points: 2
#     Edge 3, Type (0, 0), BuildingBlock: MIFKUJ_clean_linker_0, # of connection points: 2
#     Edge 4, Type (0, 0), BuildingBlock: MIFKUJ_clean_linker_0, # of connection points: 2
#     Edge 5, Type (0, 0), BuildingBlock: MIFKUJ_clean_linker_0, # of connection points: 2
#     Edge 6, Type (0, 0), BuildingBlock: MIFKUJ_clean_linker_0, # of connection points: 2
#     Edge 7, Type (0, 0), BuildingBlock: MIFKUJ_clean_linker_0, # of connection points: 2
#     Edge 8, Type (0, 0), BuildingBlock: MIFKUJ_clean_linker_0, # of connection points: 2
#     Edge 9, Type (0, 0), BuildingBlock: MIFKUJ_clean_linker_0, # of connection points: 2
#     Edge 10, Type (0, 0), BuildingBlock: MIFKUJ_clean_linker_0, # of connection points: 2
#     Edge 11, Type (0, 0), BuildingBlock: MIFKUJ_clean_linker_0, # of connection points: 2
#     Edge 12, Type (0, 0), BuildingBlock: MIFKUJ_clean_linker_0, # of connection points: 2
#     Edge 13, Type (0, 0), BuildingBlock: MIFKUJ_clean_linker_0, # of connection points: 2
# Relax obj value: 0.186
# Max RMSD: 0.270
# Mean RMSD: 0.270
data_MOF--net-hcp--node1-EZIPEK_clean_sbu_0--edge1-MIFKUJ_clean_linker_0
_symmetry_space_group_name_H-M    P1
_symmetry_Int_Tables_number       1
_symmetry_cell_setting            triclinic
loop_
_symmetry_equiv_pos_as_xyz
'x, y, z'
_cell_length_a     23.16138
_cell_length_b     23.204749
_cell_length_c     36.27586
_cell_angle_alpha  89.809248
_cell_angle_beta   90.088504
_cell_angle_gamma 119.91717
loop_
_atom_site_label
_atom_site_type_symbol
_atom_site_fract_x
_atom_site_fract_y
_atom_site_fract_z
_atom_type_partial_charge
C0 C 0.67877 0.13725 0.29119 0.0
C1 C 0.80341 0.39589 0.18845 0.0
C2 C 0.52189 0.24166 0.3885 0.0
C3 C 0.63902 0.50813 0.28364 0.0
C4 C 0.45596 0.31334 0.28063 0.0
C5 C 0.60195 0.19554 0.18152 0.0
C6 C 0.69852 0.44445 0.39308 0.0
C7 C 0.86168 0.34392 0.28987 0.0
C8 C 0.84606 0.52713 0.2936 0.0
C9 C 0.59398 0.39782 0.18511 0.0
C10 C 0.72254 0.26728 0.39386 0.0
C11 C 0.47145 0.1218 0.27912 0.0
Eu12 Eu 0.71528 0.27662 0.24762 0.0
O13 O 0.66363 0.3265 0.22779 0.0
O14 O 0.70938 0.27958 0.30698 0.0
Eu15 Eu 0.56002 0.27211 0.24298 0.0
Eu16 Eu 0.75523 0.37857 0.33015 0.0
O17 O 0.61477 0.22822 0.26668 0.0
O18 O 0.75357 0.37447 0.27085 0.0
Eu19 Eu 0.60925 0.21921 0.3259 0.0
Eu20 Eu 0.70979 0.42757 0.24699 0.0
O21 O 0.55902 0.26853 0.30266 0.0
O22 O 0.60969 0.36806 0.2671 0.0
O23 O 0.69853 0.41923 0.30648 0.0
O24 O 0.65206 0.32003 0.34377 0.0
Eu25 Eu 0.59639 0.36539 0.32584 0.0
O26 O 0.70843 0.17904 0.26316 0.0
O27 O 0.78295 0.33491 0.20105 0.0
O28 O 0.54071 0.30428 0.37795 0.0
O29 O 0.6043 0.46324 0.30968 0.0
O30 O 0.47134 0.28576 0.25297 0.0
O31 O 0.56084 0.2163 0.19286 0.0
O32 O 0.74375 0.42715 0.38331 0.0
O33 O 0.84853 0.37549 0.31626 0.0
O34 O 0.80725 0.51601 0.26425 0.0
O35 O 0.6542 0.4383 0.19888 0.0
O36 O 0.66126 0.22429 0.38134 0.0
O37 O 0.51324 0.13024 0.3067 0.0
O38 O 0.64448 0.43138 0.37404 0.0
O39 O 0.49284 0.34118 0.31048 0.0
O40 O 0.82038 0.30478 0.26368 0.0
O41 O 0.65935 0.20934 0.19808 0.0
O42 O 0.78337 0.43768 0.20083 0.0
O43 O 0.68076 0.50492 0.25948 0.0
O44 O 0.64133 0.1435 0.31692 0.0
O45 O 0.53677 0.20065 0.37103 0.0
O46 O 0.47909 0.16722 0.25405 0.0
O47 O 0.55245 0.33544 0.19637 0.0
O48 O 0.76656 0.3228 0.37706 0.0
O49 O 0.83493 0.48457 0.32099 0.0
C50 C 0.2878 0.44253 0.78648 0.0
C51 C 0.17281 0.58775 0.68434 0.0
C52 C 0.44528 0.69776 0.88825 0.0
C53 C 0.34227 0.85897 0.78172 0.0
C54 C 0.27845 0.73823 0.89031 0.0
C55 C 0.1051 0.47402 0.78645 0.0
C56 C 0.52496 0.83403 0.78203 0.0
C57 C 0.36853 0.57299 0.6817 0.0
C58 C 0.38856 0.79043 0.68323 0.0
C59 C 0.13544 0.68487 0.79014 0.0
C60 C 0.49671 0.62941 0.78472 0.0
C61 C 0.23015 0.52089 0.88909 0.0
Eu62 Eu 0.25346 0.54902 0.7454 0.0
O63 O 0.21856 0.61242 0.76769 0.0
O64 O 0.35274 0.59554 0.76618 0.0
Eu65 Eu 0.21543 0.61524 0.82705 0.0
Eu66 Eu 0.41403 0.69344 0.74244 0.0
O67 O 0.25597 0.5566 0.80477 0.0
O68 O 0.31131 0.65005 0.72576 0.0
Eu69 Eu 0.35341 0.58966 0.82562 0.0
Eu70 Eu 0.2689 0.70932 0.74388 0.0
O71 O 0.31724 0.65403 0.84284 0.0
O72 O 0.27851 0.71105 0.80337 0.0
O73 O 0.36845 0.74549 0.76509 0.0
O74 O 0.40968 0.68863 0.80204 0.0
Eu75 Eu 0.37949 0.75443 0.82418 0.0
O76 O 0.25769 0.45613 0.75925 0.0
O77 O 0.19137 0.54592 0.69747 0.0
O78 O 0.43652 0.74748 0.87551 0.0
O79 O 0.37501 0.84678 0.80821 0.0
O80 O 0.23024 0.67726 0.88007 0.0
O81 O 0.1203 0.5192 0.81307 0.0
O82 O 0.50776 0.79193 0.75377 0.0
O83 O 0.41236 0.63383 0.69327 0.0
O84 O 0.32841 0.77363 0.69611 0.0
O85 O 0.17397 0.70838 0.76027 0.0
O86 O 0.4525 0.59806 0.81163 0.0
O87 O 0.2897 0.53168 0.8769 0.0
O88 O 0.48652 0.82799 0.8107 0.0
O89 O 0.33416 0.77628 0.87202 0.0
O90 O 0.30889 0.53305 0.69716 0.0
O91 O 0.14622 0.4758 0.76007 0.0
O92 O 0.19506 0.64983 0.6969 0.0
O93 O 0.30151 0.81591 0.75667 0.0
O94 O 0.32427 0.48401 0.81314 0.0
O95 O 0.41946 0.63777 0.87352 0.0
O96 O 0.19548 0.54619 0.87398 0.0
O97 O 0.14326 0.65114 0.81749 0.0
O98 O 0.4911 0.66497 0.75735 0.0
O99 O 0.42738 0.76662 0.69548 0.0
H100 H 0.32624 0.71249 0.95116 0.0
H101 H 0.3784 0.79013 1.00244 0.0
H102 H 0.29467 0.90769 0.96257 0.0
H103 H 0.24587 0.83191 0.90992 0.0
H104 H 0.42917 0.98064 0.9726 0.0
H105 H 0.2434 0.83457 0.04318 0.0
H106 H 0.15559 0.7335 0.07337 0.0
H107 H 0.30382 0.70836 0.1306 0.0
H108 H 0.39284 0.80924 0.10064 0.0
H109 H 0.53224 0.20465 0.12403 0.0
H110 H 0.47407 0.12346 0.07571 0.0
H111 H 0.55692 0.00484 0.11576 0.0
H112 H 0.61522 0.08653 0.16506 0.0
H113 H 0.42092 0.93171 0.10623 0.0
H114 H 0.60679 0.09441 1.03487 0.0
H115 H 0.68205 0.20635 1.00994 0.0
H116 H 0.51773 0.20687 0.95557 0.0
H117 H 0.44079 0.09619 0.98135 0.0
C118 C 0.31649 0.75325 0.95435 0.0
C119 C 0.27973 0.76454 0.92739 0.0
C120 C 0.34657 0.79779 0.98358 0.0
C121 C 0.33949 0.85411 0.98698 0.0
C122 C 0.29992 0.86392 0.96102 0.0
C123 C 0.27077 0.81983 0.93135 0.0
C124 C 0.38024 0.90632 1.0147 0.0
C125 C 0.42661 0.97017 1.00191 0.0
C126 C 0.37795 0.89244 0.05292 0.0
C127 C 0.32498 0.82916 0.06918 0.0
C128 C 0.25746 0.80706 0.06178 0.0
C129 C 0.2074 0.75015 0.07917 0.0
C130 C 0.22414 0.71488 0.10414 0.0
C131 C 0.29098 0.73628 0.11162 0.0
C132 C 0.34128 0.79323 0.09435 0.0
C133 C 0.53923 0.16191 0.12224 0.0
C134 C 0.57853 0.15214 0.14842 0.0
C135 C 0.50595 0.1155 0.09442 0.0
C136 C 0.51116 0.05798 0.09179 0.0
C137 C 0.55224 0.04896 0.11712 0.0
C138 C 0.58613 0.09594 0.14505 0.0
C139 C 0.47011 0.0058 0.0641 0.0
C140 C 0.42377 0.94189 0.07688 0.0
C141 C 0.47108 0.02025 1.02599 0.0
C142 C 0.51777 0.08694 1.01037 0.0
C143 C 0.58646 0.11856 1.01794 0.0
C144 C 0.62949 0.18183 1.00362 0.0
C145 C 0.60477 0.21358 0.98114 0.0
C146 C 0.53684 0.18225 0.97302 0.0
C147 C 0.49345 0.11931 0.98757 0.0
H148 H 0.63826 0.26246 0.97001 0.0
H149 H 0.18535 0.67065 0.11744 0.0
H150 H 0.35213 0.44841 0.6691 0.0
H151 H 0.40835 0.41855 0.6214 0.0
H152 H 0.49354 0.61573 0.57521 0.0
H153 H 0.43837 0.6456 0.62252 0.0
H154 H 0.44877 0.51444 0.52109 0.0
H155 H 0.58075 0.57732 0.63647 0.0
H156 H 0.58833 0.55711 0.7026 0.0
H157 H 0.54277 0.35764 0.67925 0.0
H158 H 0.53404 0.37627 0.61292 0.0
H159 H 0.70551 0.56191 0.40836 0.0
H160 H 0.65145 0.57969 0.46138 0.0
H161 H 0.62718 0.40012 0.51164 0.0
H162 H 0.68557 0.38541 0.4595 0.0
H163 H 0.62954 0.47464 0.56405 0.0
H164 H 0.50505 0.39957 0.45549 0.0
H165 H 0.47506 0.39372 0.38986 0.0
H166 H 0.48114 0.58118 0.39837 0.0
H167 H 0.51228 0.58877 0.46402 0.0
C168 C 0.38153 0.48468 0.64819 0.0
C169 C 0.39084 0.54937 0.64959 0.0
C170 C 0.41412 0.46783 0.62114 0.0
C171 C 0.45593 0.51518 0.59487 0.0
C172 C 0.46183 0.57835 0.5951 0.0
C173 C 0.43023 0.59538 0.62224 0.0
C174 C 0.49726 0.50167 0.56844 0.0
C175 C 0.48868 0.50634 0.53045 0.0
C176 C 0.54721 0.48761 0.58042 0.0
C177 C 0.55618 0.47798 0.61989 0.0
C178 C 0.57235 0.52917 0.64546 0.0
C179 C 0.57678 0.518 0.68295 0.0
C180 C 0.56571 0.45613 0.6951 0.0
C181 C 0.55113 0.40548 0.66977 0.0
C182 C 0.54651 0.41632 0.63223 0.0
C183 C 0.69237 0.52857 0.43179 0.0
C184 C 0.69982 0.47216 0.42985 0.0
C185 C 0.65983 0.53775 0.46176 0.0
C186 C 0.63216 0.48958 0.48988 0.0
C187 C 0.6469 0.43762 0.49016 0.0
C188 C 0.68107 0.42947 0.46049 0.0
C189 C 0.58301 0.49025 0.5165 0.0
C190 C 0.58978 0.48275 0.55445 0.0
C191 C 0.5292 0.49852 0.50435 0.0
C192 C 0.51148 0.49497 0.46469 0.0
C193 C 0.50054 0.43986 0.44333 0.0
C194 C 0.48319 0.43614 0.40613 0.0
C195 C 0.47591 0.4869 0.39001 0.0
C196 C 0.48655 0.54178 0.41097 0.0
C197 C 0.50406 0.54582 0.44819 0.0
H198 H 0.462 0.48368 0.36127 0.0
H199 H 0.56817 0.44738 0.72413 0.0
H200 H 0.79017 0.39302 0.11345 0.0
H201 H 0.87207 0.39925 0.06822 0.0
H202 H 0.0148 0.44439 0.15568 0.0
H203 H 0.93356 0.43997 0.20032 0.0
H204 H 0.07868 0.51218 0.09936 0.0
H205 H 0.91935 0.28718 0.11798 0.0
H206 H 0.80941 0.18561 0.12167 0.0
H207 H 0.78146 0.19693 1.00541 0.0
H208 H 0.88955 0.30039 1.00128 0.0
H209 H 0.28506 0.51046 0.9557 0.0
H210 H 0.22341 0.4668 1.01377 0.0
H211 H 0.03847 0.40385 0.95595 0.0
H212 H 0.09848 0.43941 0.89843 0.0
H213 H 0.008 0.32857 1.00955 0.0
H214 H 0.1369 0.58712 1.01588 0.0
H215 H 0.24481 0.68881 1.01191 0.0
H216 H 0.33333 0.60212 0.07999 0.0
H217 H 0.22313 0.50056 0.08692 0.0
C218 C 0.83994 0.40684 0.12264 0.0
C219 C 0.8563 0.418 0.16021 0.0
C220 C 0.88637 0.40899 0.09695 0.0
C221 C 0.94957 0.42081 0.10845 0.0
C222 C 0.96669 0.43499 0.14585 0.0
C223 C 0.92046 0.43319 0.17139 0.0
C224 C -0.00254 0.41777 0.08174 0.0
C225 C 0.06311 0.47116 0.08025 0.0
C226 C 0.97853 0.36406 0.05691 0.0
C227 C 0.91257 0.30225 0.05941 0.0
C228 C 0.88935 0.26873 0.09328 0.0
C229 C 0.82717 0.21081 0.09548 0.0
C230 C 0.78814 0.18512 0.06386 0.0
C231 C 0.8113 0.21727 1.02998 0.0
C232 C 0.87297 0.27572 1.02772 0.0
C233 C 0.23113 0.48484 0.95536 0.0
C234 C 0.19691 0.47967 0.9224 0.0
C235 C 0.1957 0.46167 0.98887 0.0
C236 C 0.12586 0.43544 0.99021 0.0
C237 C 0.09198 0.42455 0.95656 0.0
C238 C 0.12675 0.44542 0.92334 0.0
C239 C 0.08735 0.42513 1.02555 0.0
C240 C 0.02348 0.36878 1.02917 0.0
C241 C 0.10788 0.47511 0.05288 0.0
C242 C 0.17281 0.53629 0.05101 0.0
C243 C 0.17951 0.58981 1.02992 0.0
C244 C 0.24133 0.64723 1.02695 0.0
C245 C 0.29723 0.65109 0.04414 0.0
C246 C 0.29038 0.59846 0.06607 0.0
C247 C 0.22799 0.54138 0.07006 0.0
H248 H 0.34543 0.69542 0.04142 0.0
H249 H 0.74013 0.14014 0.06557 0.0
H250 H 0.42287 0.91838 0.69422 0.0
H251 H 0.44463 0.00352 0.64766 0.0
H252 H 0.42924 0.86776 0.56213 0.0
H253 H 0.40878 0.78283 0.60916 0.0
H254 H 0.52354 0.98892 0.54451 0.0
H255 H 0.29846 0.89414 0.58785 0.0
H256 H 0.2095 0.86266 0.63397 0.0
H257 H 0.28798 0.06801 0.66204 0.0
H258 H 0.37862 0.10063 0.61686 0.0
H259 H 0.40336 0.13032 0.40173 0.0
H260 H 0.37786 0.06098 0.45709 0.0
H261 H 0.55081 0.21758 0.51085 0.0
H262 H 0.57324 0.28887 0.45628 0.0
H263 H 0.37608 0.08722 0.5441 0.0
H264 H 0.63278 0.11026 0.52591 0.0
H265 H 0.71622 0.13108 0.47779 0.0
H266 H 0.56318 0.0585 0.39512 0.0
H267 H 0.47866 0.03452 0.44288 0.0
C268 C 0.42555 0.90732 0.66548 0.0
C269 C 0.41468 0.8443 0.65526 0.0
C270 C 0.43735 0.95581 0.63882 0.0
C271 C 0.43714 0.94199 0.60109 0.0
C272 C 0.42943 0.87987 0.59095 0.0
C273 C 0.41813 0.83138 0.6178 0.0
C274 C 0.44264 -0.00879 0.57232 0.0
C275 C 0.49133 0.01042 0.54468 0.0
C276 C 0.40041 0.01944 0.57199 0.0
C277 C 0.34583 -0.00022 0.5992 0.0
C278 C 0.29719 0.93256 0.60411 0.0
C279 C 0.24644 0.9145 0.6301 0.0
C280 C 0.24319 0.96329 0.65098 0.0
C281 C 0.29062 0.03026 0.64587 0.0
C282 C 0.34181 0.04854 0.62016 0.0
C283 C 0.4334 0.15155 0.42621 0.0
C284 C 0.49016 0.21536 0.42476 0.0
C285 C 0.4194 0.11144 0.45768 0.0
C286 C 0.46321 0.13343 0.48784 0.0
C287 C 0.51653 0.19927 0.4878 0.0
C288 C 0.52903 0.2403 0.45675 0.0
C289 C 0.45745 0.08521 0.51699 0.0
C290 C 0.4087 0.0662 0.54449 0.0
C291 C 0.49895 0.05649 0.51701 0.0
C292 C 0.5496 0.07207 0.48792 0.0
C293 C 0.61699 0.09877 0.49746 0.0
C294 C 0.6644 0.11057 0.47027 0.0
C295 C 0.64506 0.09623 0.43339 0.0
C296 C 0.5782 0.06979 0.42365 0.0
C297 C 0.5305 0.05711 0.4508 0.0
H298 H 0.68188 0.1057 0.41236 0.0
H299 H 0.20389 0.94923 0.6711 0.0
H300 H 0.56679 0.49666 0.19606 0.0
H301 H 0.54486 0.56018 0.14938 0.0
H302 H 0.55274 0.43505 0.06423 0.0
H303 H 0.57319 0.37026 0.11125 0.0
H304 H 0.64047 0.58176 0.0555 0.0
H305 H 0.40784 0.41591 0.08006 0.0
H306 H 0.31266 0.35429 0.1222 0.0
H307 H 0.33041 0.53801 0.15924 0.0
H308 H 0.42658 0.60072 0.11787 0.0
H309 H 0.53971 0.66415 0.89327 0.0
H310 H 0.56819 0.62488 0.94803 0.0
H311 H 0.47112 0.70514 1.0151 0.0
H312 H 0.43715 0.7396 0.95871 0.0
H313 H 0.43343 0.59297 0.04021 0.0
H314 H 0.65493 0.76131 1.01505 0.0
H315 H 0.75559 0.83133 0.97817 0.0
H316 H 0.7705 0.65957 0.95015 0.0
H317 H 0.6696 0.58839 0.98656 0.0
C318 C 0.56223 0.48183 0.16742 0.0
C319 C 0.57078 0.42818 0.15717 0.0
C320 C 0.5499 0.51822 0.14081 0.0
C321 C 0.54711 0.50242 0.1033 0.0
C322 C 0.55451 0.44798 0.09304 0.0
C323 C 0.56567 0.41071 0.11983 0.0
C324 C 0.54048 0.54516 0.07474 0.0
C325 C 0.59503 0.58378 0.05174 0.0
C326 C 0.48265 0.5508 0.07141 0.0
C327 C 0.42441 0.51298 0.09593 0.0
C328 C 0.39164 0.44315 0.09734 0.0
C329 C 0.33755 0.40802 0.1211 0.0
C330 C 0.31553 0.4422 0.14342 0.0
C331 C 0.34753 0.51157 0.14198 0.0
C332 C 0.40182 0.54691 0.11839 0.0
C333 C 0.52652 0.67587 0.91973 0.0
C334 C 0.48574 0.70473 0.92148 0.0
C335 C 0.54324 0.65342 0.95146 0.0
C336 C 0.52295 0.66226 0.98647 0.0
C337 C 0.48742 0.69706 0.98863 0.0
C338 C 0.46883 0.71796 0.95639 0.0
C339 C 0.53321 0.62896 1.01955 0.0
C340 C 0.47948 0.59209 0.0438 0.0
C341 C 0.59289 0.62662 1.02488 0.0
C342 C 0.65446 0.66947 1.00348 0.0
C343 C 0.67955 0.73843 1.00095 0.0
C344 C 0.73668 0.77833 0.98012 0.0
C345 C 0.76938 0.74991 0.96181 0.0
C346 C 0.74518 0.68155 0.9644 0.0
C347 C 0.68813 0.64142 0.98522 0.0
H348 H 0.81351 0.78087 0.94563 0.0
H349 H 0.27368 0.41492 0.16181 0.0
H350 H 0.66845 0.27655 0.45811 0.0
H351 H 0.73631 0.33194 0.51255 0.0
H352 H 0.89289 0.30188 0.46971 0.0
H353 H 0.82752 0.25292 0.41392 0.0
H354 H 0.8069 0.32661 0.5684 0.0
H355 H 0.0323 0.42588 0.4731 0.0
H356 H 0.05341 0.43661 0.4062 0.0
H357 H 0.88934 0.4709 0.38956 0.0
H358 H 0.86607 0.45837 0.45639 0.0
H359 H 0.10214 0.45796 0.66382 0.0
H360 H 0.01707 0.4064 0.61748 0.0
H361 H 0.03664 0.5961 0.58997 0.0
H362 H 0.12434 0.65008 0.63745 0.0
H363 H 0.02639 0.51031 0.52633 0.0
H364 H 0.9079 0.50211 0.63451 0.0
H365 H 0.89014 0.48813 0.70167 0.0
H366 H 0.83648 0.28291 0.6926 0.0
H367 H 0.85562 0.29607 0.62556 0.0
C368 C 0.71634 0.27977 0.46108 0.0
C369 C 0.74321 0.26184 0.43157 0.0
C370 C 0.75545 0.31181 0.49213 0.0
C371 C 0.82138 0.32444 0.49442 0.0
C372 C 0.84345 0.29568 0.46786 0.0
C373 C 0.80538 0.26607 0.4363 0.0
C374 C 0.86961 0.37407 0.5213 0.0
C375 C 0.85455 0.36693 0.55912 0.0
C376 C 0.93115 0.42869 0.5094 0.0
C377 C 0.94788 0.44171 0.4697 0.0
C378 C 0.00138 0.43668 0.4552 0.0
C379 C 0.01339 0.4426 0.41725 0.0
C380 C 0.97317 0.45511 0.39359 0.0
C381 C 0.92061 0.46145 0.40788 0.0
C382 C 0.90778 0.45462 0.44578 0.0
C383 C 0.08953 0.48985 0.64806 0.0
C384 C 0.12106 0.55895 0.65467 0.0
C385 C 0.04017 0.45965 0.62141 0.0
C386 C 0.01998 0.497 0.60031 0.0
C387 C 0.05153 0.56623 0.60599 0.0
C388 C 0.1014 0.59698 0.63322 0.0
C389 C 0.96451 0.4613 0.57339 0.0
C390 C 0.97809 0.47096 0.53553 0.0
C391 C 0.90101 0.41017 0.58522 0.0
C392 C 0.88369 0.40023 0.625 0.0
C393 C 0.8923 0.45397 0.64685 0.0
C394 C 0.88226 0.44629 0.68493 0.0
C395 C 0.86293 0.38491 0.70145 0.0
C396 C 0.852 0.33063 0.67982 0.0
C397 C 0.86234 0.33812 0.64174 0.0
H398 H 0.85665 0.3796 0.73102 0.0
H399 H 0.98256 0.45956 0.36419 0.0
H400 H 0.74576 0.09914 0.24379 0.0
H401 H 0.74342 -0.00741 0.24351 0.0
H402 H 0.62555 0.9342 0.34286 0.0
H403 H 0.62748 0.03986 0.34372 0.0
H404 H 0.77214 0.91407 0.30039 0.0
H405 H 0.49058 0.79258 0.32003 0.0
H406 H 0.40406 0.82376 0.31001 0.0
H407 H 0.51072 0.94072 0.21577 0.0
H408 H 0.59724 0.90964 0.22495 0.0
H409 H 0.5779 0.54876 0.3333 0.0
H410 H 0.57769 0.65401 0.33301 0.0
H411 H 0.68453 0.70752 0.2299 0.0
H412 H 0.68406 0.60239 0.22938 0.0
H413 H 0.54305 0.72979 0.27351 0.0
H414 H 0.82162 0.84736 0.25176 0.0
H415 H 0.90802 0.81584 0.26126 0.0
H416 H 0.80713 0.70654 0.35866 0.0
H417 H 0.72072 0.73795 0.34995 0.0
C418 C 0.72031 0.06418 0.26596 0.0
C419 C 0.68555 0.07746 0.29333 0.0
C420 C 0.71959 0.0037 0.26588 0.0
C421 C 0.68389 0.95598 0.29299 0.0
C422 C 0.6531 0.97075 0.32167 0.0
C423 C 0.65394 0.03104 0.3219 0.0
C424 C 0.67057 0.88757 0.28875 0.0
C425 C 0.72238 0.87391 0.29417 0.0
C426 C 0.60537 0.83548 0.28097 0.0
C427 C 0.5505 0.84924 0.27338 0.0
C428 C 0.49513 0.82439 0.29698 0.0
C429 C 0.44639 0.84239 0.29159 0.0
C430 C 0.45253 0.88487 0.26258 0.0
C431 C 0.50654 0.90842 0.23845 0.0
C432 C 0.55531 0.89056 0.24371 0.0
C433 C 0.59985 0.58211 0.31011 0.0
C434 C 0.63197 0.56772 0.28171 0.0
C435 C 0.59929 0.64192 0.30991 0.0
C436 C 0.63129 0.68797 0.2815 0.0
C437 C 0.65966 0.67212 0.252 0.0
C438 C 0.65993 0.61237 0.25204 0.0
C439 C 0.64455 0.75638 0.2853 0.0
C440 C 0.59278 0.77 0.27975 0.0
C441 C 0.70978 0.80847 0.29287 0.0
C442 C 0.76472 0.79469 0.30007 0.0
C443 C 0.81838 0.81723 0.27539 0.0
C444 C 0.86703 0.79903 0.28051 0.0
C445 C 0.86253 0.75868 0.31032 0.0
C446 C 0.81014 0.73732 0.33543 0.0
C447 C 0.76143 0.75536 0.33044 0.0
H448 H 0.90008 0.74461 0.31429 0.0
H449 H 0.41494 0.89879 0.25839 0.0
H450 H 0.07707 0.72066 0.73569 0.0
H451 H 0.97068 0.71885 0.73968 0.0
H452 H 0.95559 0.66661 0.85491 0.0
H453 H 0.06136 0.66866 0.85146 0.0
H454 H 0.84663 0.57965 0.81532 0.0
H455 H 0.97712 0.81118 0.83509 0.0
H456 H 0.06881 0.92502 0.82327 0.0
H457 H 0.98412 0.92576 0.71805 0.0
H458 H 0.89223 0.81125 0.72897 0.0
H459 H 0.54683 0.59268 0.84294 0.0
H460 H 0.65779 0.60564 0.8479 0.0
H461 H 0.69949 0.67602 0.73545 0.0
H462 H 0.59002 0.66562 0.73061 0.0
H463 H 0.79691 0.7569 0.77969 0.0
H464 H 0.66475 0.51594 0.76369 0.0
H465 H 0.57728 0.4018 0.7806 0.0
H466 H 0.66893 0.42208 0.88615 0.0
H467 H 0.75607 0.53624 0.87027 0.0
C468 C 0.05175 0.71011 0.76202 0.0
C469 C 0.077 0.69371 0.79306 0.0
C470 C -0.00886 0.70914 0.76425 0.0
C471 C 0.95555 0.69212 0.79755 0.0
C472 C 0.98235 0.67928 0.82896 0.0
C473 C 0.04273 0.68038 0.82682 0.0
C474 C 0.88774 0.68203 0.79888 0.0
C475 C 0.83556 0.61853 0.80805 0.0
C476 C 0.8741 0.73293 0.78922 0.0
C477 C 0.92827 0.80225 0.78264 0.0
C478 C 0.97829 0.83535 0.80928 0.0
C479 C 0.03023 0.89998 0.80278 0.0
C480 C 0.03248 0.9323 0.76984 0.0
C481 C 0.98242 0.90038 0.74346 0.0
C482 C 0.93032 0.83561 0.74982 0.0
C483 C 0.57931 0.61019 0.81912 0.0
C484 C 0.55978 0.62857 0.78646 0.0
C485 C 0.64261 0.61736 0.82199 0.0
C486 C 0.6866 0.64159 0.79198 0.0
C487 C 0.66632 0.65769 0.759 0.0
C488 C 0.60362 0.65151 0.75628 0.0
C489 C 0.75517 0.65372 0.79518 0.0
C490 C 0.80774 0.71789 0.78703 0.0
C491 C 0.76921 0.60358 0.80646 0.0
C492 C 0.71634 0.53497 0.81594 0.0
C493 C 0.66572 0.49624 0.79063 0.0
C494 C 0.61634 0.43163 0.8 0.0
C495 C 0.61741 0.40509 0.83442 0.0
C496 C 0.66803 0.44284 0.85953 0.0
C497 C 0.71739 0.50746 0.85038 0.0
H498 H 0.57901 0.35529 0.84162 0.0
H499 H 0.07307 0.98203 0.76487 0.0
H500 H 0.44052 0.00645 0.31568 0.0
H501 H 0.33396 0.90222 0.31446 0.0
H502 H 0.25682 0.98741 0.23642 0.0
H503 H 0.36247 0.09131 0.23699 0.0
H504 H 0.18525 0.93297 0.30808 0.0
H505 H 0.27538 0.886 0.20204 0.0
H506 H 0.35611 0.87139 0.16504 0.0
H507 H 0.33041 0.71159 0.23568 0.0
H508 H 0.25115 0.72699 0.27412 0.0
H509 H 0.87588 0.64232 0.25785 0.0
H510 H 0.98374 0.74513 0.25651 0.0
H511 H 0.06525 0.65748 0.3301 0.0
H512 H 0.95787 0.55483 0.33198 0.0
H513 H 0.13469 0.71313 0.25938 0.0
H514 H 0.0465 0.76421 0.36634 0.0
H515 H 0.96965 0.78379 0.40415 0.0
H516 H -0.00899 0.93698 0.32932 0.0
H517 H 0.06697 0.9174 0.29062 0.0
C518 C 0.40115 0.00286 0.29798 0.0
C519 C 0.4098 0.05725 0.27661 0.0
C520 C 0.34069 0.94331 0.29718 0.0
C521 C 0.28857 0.93776 0.27511 0.0
C522 C 0.29726 -0.0088 0.25326 0.0
C523 C 0.35765 0.0504 0.25373 0.0
C524 C 0.22262 0.87872 0.27786 0.0
C525 C 0.1736 0.88494 0.29701 0.0
C526 C 0.20908 0.81656 0.26388 0.0
C527 C 0.2582 0.80849 0.24144 0.0
C528 C 0.28781 0.84859 0.21019 0.0
C529 C 0.3331 0.83997 0.18884 0.0
C530 C 0.34847 0.79067 0.19808 0.0
C531 C 0.3184 0.74974 0.22863 0.0
C532 C 0.27358 0.75864 0.25031 0.0
C533 C 0.91662 0.64518 0.27399 0.0
C534 C 0.90862 0.59074 0.29502 0.0
C535 C 0.97783 0.70382 0.27331 0.0
C536 C 0.03156 0.70828 0.29338 0.0
C537 C 0.02368 0.65454 0.31474 0.0
C538 C 0.96237 0.59624 0.31585 0.0
C539 C 0.09741 0.76735 0.28981 0.0
C540 C 0.14636 0.76117 0.27042 0.0
C541 C 0.11081 0.82976 0.30331 0.0
C542 C 0.0618 0.83867 0.32529 0.0
C543 C 0.03395 0.80127 0.35757 0.0
C544 C -0.00909 0.81272 0.37933 0.0
C545 C 0.97567 0.86179 0.36923 0.0
C546 C 0.0031 0.89922 0.33721 0.0
C547 C 0.04599 0.8878 0.3153 0.0
H548 H 0.94231 0.87054 0.38609 0.0
H549 H 0.38383 0.7843 0.18164 0.0
H550 H 0.26031 0.35846 0.7282 0.0
H551 H 0.26971 0.25813 0.72685 0.0
H552 H 0.31691 0.28006 0.84292 0.0
H553 H 0.30831 0.38047 0.84451 0.0
H554 H 0.40667 0.26475 0.80308 0.0
H555 H 0.16629 0.15283 0.81441 0.0
H556 H 0.0529 0.12799 0.79742 0.0
H557 H 0.0799 0.07384 0.68839 0.0
H558 H 0.19343 0.09827 0.70478 0.0
H559 H 0.37592 0.94801 0.83803 0.0
H560 H 0.37111 0.05094 0.8372 0.0
H561 H 0.31954 0.02229 0.72181 0.0
H562 H 0.32249 0.91893 0.72245 0.0
H563 H 0.23339 0.04214 0.75978 0.0
H564 H 0.47126 0.1477 0.74926 0.0
H565 H 0.5835 0.16971 0.76644 0.0
H566 H 0.56263 0.23656 0.87321 0.0
H567 H 0.4499 0.21431 0.85678 0.0
C568 C 0.27137 0.34114 0.75357 0.0
C569 C 0.28403 0.37744 0.78639 0.0
C570 C 0.27678 0.28395 0.75274 0.0
C571 C 0.29406 0.26205 0.78481 0.0
C572 C 0.30398 0.29665 0.81788 0.0
C573 C 0.29896 0.35388 0.8187 0.0
C574 C 0.30573 0.20532 0.7835 0.0
C575 C 0.36859 0.21577 0.79409 0.0
C576 C 0.25655 0.14231 0.77073 0.0
C577 C 0.18848 0.1279 0.76073 0.0
C578 C 0.14816 0.13605 0.78674 0.0
C579 C 0.08385 0.1219 0.77725 0.0
C580 C 0.05933 0.09964 0.7418 0.0
C581 C 0.09905 0.09134 0.71579 0.0
C582 C 0.16328 0.10507 0.7252 0.0
C583 C 0.36482 0.96438 0.81233 0.0
C584 C 0.34905 0.9253 0.78042 0.0
C585 C 0.36218 0.02312 0.81188 0.0
C586 C 0.34485 0.04386 0.77937 0.0
C587 C 0.33244 0.0066 0.74712 0.0
C588 C 0.3343 0.9477 0.7476 0.0
C589 C 0.33428 0.10135 0.77958 0.0
C590 C 0.27162 0.09111 0.76872 0.0
C591 C 0.38374 0.16456 0.79202 0.0
C592 C 0.4519 0.17886 0.80187 0.0
C593 C 0.49046 0.16679 0.77647 0.0
C594 C 0.55424 0.17945 0.78605 0.0
C595 C 0.58023 0.20459 0.82088 0.0
C596 C 0.54244 0.21708 0.84623 0.0
C597 C 0.47866 0.20463 0.83676 0.0
H598 H 0.62962 0.21438 0.82822 0.0
H599 H 0.00945 0.0885 0.73456 0.0
H600 H 0.38757 0.33173 0.33575 0.0
H601 H 0.29253 0.34883 0.32975 0.0
H602 H 0.29343 0.32534 0.21178 0.0
H603 H 0.38848 0.30717 0.21755 0.0
H604 H 0.28104 0.44458 0.29282 0.0
H605 H 0.13101 0.25238 0.18366 0.0
H606 H 0.11749 0.14828 0.15743 0.0
H607 H 0.16937 0.09859 0.26179 0.0
H608 H 0.18256 0.20208 0.28867 0.0
H609 H 0.97334 0.44933 0.2631 0.0
H610 H 0.08159 0.45593 0.25369 0.0
H611 H 0.00631 0.26548 0.3078 0.0
H612 H 0.8974 0.25725 0.31467 0.0
H613 H 0.06349 0.26648 0.24622 0.0
H614 H 0.11321 0.42828 0.34564 0.0
H615 H 0.13074 0.53369 0.37235 0.0
H616 H 0.28289 0.64441 0.29253 0.0
H617 H 0.26427 0.54039 0.26403 0.0
C618 C 0.36738 0.32976 0.30853 0.0
C619 C 0.39505 0.31761 0.27715 0.0
C620 C 0.31345 0.34003 0.30514 0.0
C621 C 0.28637 0.33848 0.27036 0.0
C622 C 0.31357 0.32618 0.23888 0.0
C623 C 0.36741 0.31535 0.24228 0.0
C624 C 0.22822 0.34783 0.26778 0.0
C625 C 0.23333 0.40603 0.28243 0.0
C626 C 0.16685 0.29782 0.25363 0.0
C627 C 0.15839 0.23516 0.23799 0.0
C628 C 0.13934 0.21909 0.20098 0.0
C629 C 0.13179 0.16026 0.18602 0.0
C630 C 0.14277 0.11696 0.2079 0.0
C631 C 0.16112 0.13229 0.24484 0.0
C632 C 0.16872 0.19105 0.25994 0.0
C633 C 0.98068 0.40934 0.27296 0.0
C634 C 0.92818 0.35265 0.28931 0.0
C635 C 0.04222 0.41321 0.26781 0.0
C636 C 0.05188 0.36119 0.28007 0.0
C637 C -0.00035 0.30587 0.29786 0.0
C638 C 0.93789 0.3013 0.30207 0.0
C639 C 0.11493 0.36177 0.27341 0.0
C640 C 0.11112 0.30577 0.25625 0.0
C641 C 0.17739 0.4139 0.28552 0.0
C642 C 0.18642 0.47626 0.30224 0.0
C643 C 0.14944 0.47504 0.33327 0.0
C644 C 0.15947 0.53456 0.34869 0.0
C645 C 0.20719 0.59553 0.33386 0.0
C646 C 0.24511 0.59722 0.30359 0.0
C647 C 0.23466 0.53802 0.28769 0.0
H648 H 0.21514 0.64148 0.34601 0.0
H649 H 0.13694 0.07147 0.19626 0.0
H650 H 0.0351 0.39846 0.72768 0.0
H651 H 0.93062 0.29246 0.72903 0.0
H652 H 0.91913 0.30848 0.84674 0.0
H653 H 0.02319 0.41555 0.84568 0.0
H654 H 0.9276 0.18728 0.79728 0.0
H655 H 0.81455 0.30615 0.83151 0.0
H656 H 0.7767 0.38794 0.8266 0.0
H657 H 0.68081 0.30249 0.72375 0.0
H658 H 0.71984 0.22139 0.72744 0.0
H659 H 0.60752 0.89526 0.83986 0.0
H660 H 0.70861 0.00485 0.83991 0.0
H661 H 0.68905 0.02133 0.72269 0.0
H662 H 0.58884 0.91067 0.72224 0.0
H663 H 0.6931 0.12743 0.77435 0.0
H664 H 0.8077 0.00933 0.7407 0.0
H665 H 0.84243 0.92517 0.74755 0.0
H666 H 0.9293 0.00646 0.8528 0.0
H667 H 0.89411 0.0904 0.84692 0.0
C668 C 0.00958 0.38026 0.75378 0.0
C669 C 0.03752 0.41513 0.78665 0.0
C670 C 0.94948 0.32013 0.75439 0.0
C671 C 0.91621 0.29385 0.78777 0.0
C672 C 0.94307 0.32913 0.82055 0.0
C673 C 0.00269 0.39002 0.81992 0.0
C674 C 0.86024 0.2248 0.78876 0.0
C675 C 0.87611 0.1741 0.79278 0.0
C676 C 0.79346 0.2082 0.78216 0.0
C677 C 0.77247 0.25906 0.77912 0.0
C678 C 0.78733 0.30602 0.80724 0.0
C679 C 0.76505 0.35194 0.80486 0.0
C680 C 0.727 0.35089 0.77469 0.0
C681 C 0.71072 0.3036 0.74698 0.0
C682 C 0.73302 0.25769 0.74921 0.0
C683 C 0.62571 0.92171 0.81399 0.0
C684 C 0.59069 0.89478 0.78102 0.0
C685 C 0.68333 0.98404 0.81407 0.0
C686 C 0.70593 0.02078 0.78132 0.0
C687 C 0.67226 -0.00675 0.74816 0.0
C688 C 0.61543 0.93013 0.74791 0.0
C689 C 0.76077 0.09033 0.78249 0.0
C690 C 0.74466 0.14088 0.77885 0.0
C691 C 0.82718 0.1069 0.78979 0.0
C692 C 0.8472 0.05552 0.79364 0.0
C693 C 0.83329 0.00867 0.76557 0.0
C694 C 0.85333 0.96116 0.7692 0.0
C695 C 0.88766 0.96024 0.80069 0.0
C696 C 0.90242 0.00705 0.8285 0.0
C697 C 0.88244 0.0546 0.82503 0.0
H698 H 0.90289 0.92332 0.80355 0.0
H699 H 0.7098 0.38642 0.7729 0.0
loop_
_geom_bond_atom_site_label_1
_geom_bond_atom_site_label_2
_geom_bond_distance
_geom_bond_site_symmetry_2
_ccdc_geom_bond_type
C0 O26 1.283 . S
C0 O44 1.283 . S
C1 O27 1.283 . S
C1 O42 1.283 . S
C2 O28 1.283 . S
C2 O45 1.283 . S
C3 O29 1.283 . S
C3 O43 1.283 . S
C4 O30 1.283 . S
C4 O39 1.283 . S
C5 O31 1.283 . S
C5 O41 1.283 . S
C6 O32 1.283 . S
C6 O38 1.283 . S
C7 O33 1.283 . S
C7 O40 1.283 . S
C8 O34 1.283 . S
C8 O49 1.283 . S
C9 O35 1.283 . S
C9 O47 1.283 . S
C10 O36 1.283 . S
C10 O48 1.283 . S
C11 O37 1.283 . S
C11 O46 1.283 . S
Eu12 O13 2.370 . S
Eu12 O14 2.370 . S
Eu12 O17 2.370 . S
Eu12 O18 2.370 . S
Eu12 O26 2.363 . S
Eu12 O27 2.363 . S
Eu12 O40 2.363 . S
Eu12 O41 2.363 . S
O13 Eu12 2.370 . S
O13 Eu15 2.370 . S
O13 Eu20 2.370 . S
O14 Eu12 2.370 . S
O14 Eu16 2.370 . S
O14 Eu19 2.370 . S
Eu15 O13 2.370 . S
Eu15 O17 2.370 . S
Eu15 O21 2.370 . S
Eu15 O22 2.370 . S
Eu15 O30 2.363 . S
Eu15 O31 2.363 . S
Eu15 O46 2.363 . S
Eu15 O47 2.363 . S
Eu16 O14 2.370 . S
Eu16 O18 2.370 . S
Eu16 O23 2.370 . S
Eu16 O24 2.370 . S
Eu16 O32 2.363 . S
Eu16 O33 2.363 . S
Eu16 O48 2.363 . S
Eu16 O49 2.363 . S
O17 Eu12 2.370 . S
O17 Eu15 2.370 . S
O17 Eu19 2.370 . S
O18 Eu12 2.370 . S
O18 Eu16 2.370 . S
O18 Eu20 2.370 . S
Eu19 O14 2.370 . S
Eu19 O17 2.370 . S
Eu19 O21 2.370 . S
Eu19 O24 2.370 . S
Eu19 O36 2.363 . S
Eu19 O37 2.363 . S
Eu19 O44 2.363 . S
Eu19 O45 2.363 . S
Eu20 O13 2.370 . S
Eu20 O18 2.370 . S
Eu20 O22 2.370 . S
Eu20 O23 2.370 . S
Eu20 O34 2.363 . S
Eu20 O35 2.363 . S
Eu20 O42 2.363 . S
Eu20 O43 2.363 . S
O21 Eu15 2.370 . S
O21 Eu19 2.370 . S
O21 Eu25 2.370 . S
O22 Eu15 2.370 . S
O22 Eu20 2.370 . S
O22 Eu25 2.370 . S
O23 Eu16 2.370 . S
O23 Eu20 2.370 . S
O23 Eu25 2.370 . S
O24 Eu16 2.370 . S
O24 Eu19 2.370 . S
O24 Eu25 2.370 . S
Eu25 O21 2.370 . S
Eu25 O22 2.370 . S
Eu25 O23 2.370 . S
Eu25 O24 2.370 . S
Eu25 O28 2.363 . S
Eu25 O29 2.363 . S
Eu25 O38 2.363 . S
Eu25 O39 2.363 . S
O26 C0 1.283 . S
O26 Eu12 2.363 . S
O27 C1 1.283 . S
O27 Eu12 2.363 . S
O28 C2 1.283 . S
O28 Eu25 2.363 . S
O29 C3 1.283 . S
O29 Eu25 2.363 . S
O30 C4 1.283 . S
O30 Eu15 2.363 . S
O31 C5 1.283 . S
O31 Eu15 2.363 . S
O32 C6 1.283 . S
O32 Eu16 2.363 . S
O33 C7 1.283 . S
O33 Eu16 2.363 . S
O34 C8 1.283 . S
O34 Eu20 2.363 . S
O35 C9 1.283 . S
O35 Eu20 2.363 . S
O36 C10 1.283 . S
O36 Eu19 2.363 . S
O37 C11 1.283 . S
O37 Eu19 2.363 . S
O38 C6 1.283 . S
O38 Eu25 2.363 . S
O39 C4 1.283 . S
O39 Eu25 2.363 . S
O40 C7 1.283 . S
O40 Eu12 2.363 . S
O41 C5 1.283 . S
O41 Eu12 2.363 . S
O42 C1 1.283 . S
O42 Eu20 2.363 . S
O43 C3 1.283 . S
O43 Eu20 2.363 . S
O44 C0 1.283 . S
O44 Eu19 2.363 . S
O45 C2 1.283 . S
O45 Eu19 2.363 . S
O46 C11 1.283 . S
O46 Eu15 2.363 . S
O47 C9 1.283 . S
O47 Eu15 2.363 . S
O48 C10 1.283 . S
O48 Eu16 2.363 . S
O49 C8 1.283 . S
O49 Eu16 2.363 . S
C50 O76 1.283 . S
C50 O94 1.283 . S
C51 O77 1.283 . S
C51 O92 1.283 . S
C52 O78 1.283 . S
C52 O95 1.283 . S
C53 O79 1.283 . S
C53 O93 1.283 . S
C54 O80 1.283 . S
C54 O89 1.283 . S
C55 O81 1.283 . S
C55 O91 1.283 . S
C56 O82 1.283 . S
C56 O88 1.283 . S
C57 O83 1.283 . S
C57 O90 1.283 . S
C58 O84 1.283 . S
C58 O99 1.283 . S
C59 O85 1.283 . S
C59 O97 1.283 . S
C60 O86 1.283 . S
C60 O98 1.283 . S
C61 O87 1.283 . S
C61 O96 1.283 . S
Eu62 O63 2.370 . S
Eu62 O64 2.370 . S
Eu62 O67 2.370 . S
Eu62 O68 2.370 . S
Eu62 O76 2.363 . S
Eu62 O77 2.363 . S
Eu62 O90 2.363 . S
Eu62 O91 2.363 . S
O63 Eu62 2.370 . S
O63 Eu65 2.370 . S
O63 Eu70 2.370 . S
O64 Eu62 2.370 . S
O64 Eu66 2.370 . S
O64 Eu69 2.370 . S
Eu65 O63 2.370 . S
Eu65 O67 2.370 . S
Eu65 O71 2.370 . S
Eu65 O72 2.370 . S
Eu65 O80 2.363 . S
Eu65 O81 2.363 . S
Eu65 O96 2.363 . S
Eu65 O97 2.363 . S
Eu66 O64 2.370 . S
Eu66 O68 2.370 . S
Eu66 O73 2.370 . S
Eu66 O74 2.370 . S
Eu66 O82 2.363 . S
Eu66 O83 2.363 . S
Eu66 O98 2.363 . S
Eu66 O99 2.363 . S
O67 Eu62 2.370 . S
O67 Eu65 2.370 . S
O67 Eu69 2.370 . S
O68 Eu62 2.370 . S
O68 Eu66 2.370 . S
O68 Eu70 2.370 . S
Eu69 O64 2.370 . S
Eu69 O67 2.370 . S
Eu69 O71 2.370 . S
Eu69 O74 2.370 . S
Eu69 O86 2.363 . S
Eu69 O87 2.363 . S
Eu69 O94 2.363 . S
Eu69 O95 2.363 . S
Eu70 O63 2.370 . S
Eu70 O68 2.370 . S
Eu70 O72 2.370 . S
Eu70 O73 2.370 . S
Eu70 O84 2.363 . S
Eu70 O85 2.363 . S
Eu70 O92 2.363 . S
Eu70 O93 2.363 . S
O71 Eu65 2.370 . S
O71 Eu69 2.370 . S
O71 Eu75 2.370 . S
O72 Eu65 2.370 . S
O72 Eu70 2.370 . S
O72 Eu75 2.370 . S
O73 Eu66 2.370 . S
O73 Eu70 2.370 . S
O73 Eu75 2.370 . S
O74 Eu66 2.370 . S
O74 Eu69 2.370 . S
O74 Eu75 2.370 . S
Eu75 O71 2.370 . S
Eu75 O72 2.370 . S
Eu75 O73 2.370 . S
Eu75 O74 2.370 . S
Eu75 O78 2.363 . S
Eu75 O79 2.363 . S
Eu75 O88 2.363 . S
Eu75 O89 2.363 . S
O76 C50 1.283 . S
O76 Eu62 2.363 . S
O77 C51 1.283 . S
O77 Eu62 2.363 . S
O78 C52 1.283 . S
O78 Eu75 2.363 . S
O79 C53 1.283 . S
O79 Eu75 2.363 . S
O80 C54 1.283 . S
O80 Eu65 2.363 . S
O81 C55 1.283 . S
O81 Eu65 2.363 . S
O82 C56 1.283 . S
O82 Eu66 2.363 . S
O83 C57 1.283 . S
O83 Eu66 2.363 . S
O84 C58 1.283 . S
O84 Eu70 2.363 . S
O85 C59 1.283 . S
O85 Eu70 2.363 . S
O86 C60 1.283 . S
O86 Eu69 2.363 . S
O87 C61 1.283 . S
O87 Eu69 2.363 . S
O88 C56 1.283 . S
O88 Eu75 2.363 . S
O89 C54 1.283 . S
O89 Eu75 2.363 . S
O90 C57 1.283 . S
O90 Eu62 2.363 . S
O91 C55 1.283 . S
O91 Eu62 2.363 . S
O92 C51 1.283 . S
O92 Eu70 2.363 . S
O93 C53 1.283 . S
O93 Eu70 2.363 . S
O94 C50 1.283 . S
O94 Eu69 2.363 . S
O95 C52 1.283 . S
O95 Eu69 2.363 . S
O96 C61 1.283 . S
O96 Eu65 2.363 . S
O97 C59 1.283 . S
O97 Eu65 2.363 . S
O98 C60 1.283 . S
O98 Eu66 2.363 . S
O99 C58 1.283 . S
O99 Eu66 2.363 . S
H100 C118 0.951 . S
H101 C120 0.951 . S
H102 C122 0.950 . S
H103 C123 0.950 . S
H104 C125 0.950 1_545 S
H105 C128 0.944 1_556 S
H106 C129 0.950 . S
H107 C131 0.950 . S
H108 C132 0.950 . S
H109 C133 0.951 . S
H110 C135 0.951 . S
H111 C137 0.950 . S
H112 C138 0.950 . S
H113 C140 0.950 . S
H114 C143 0.944 1_554 S
H115 C144 0.950 . S
H116 C146 0.950 . S
H117 C147 0.950 . S
C118 H100 0.951 . S
C118 C119 1.366 . S
C118 C120 1.388 . S
C119 C118 1.366 . S
C119 C123 1.385 . S
C120 H101 0.951 . S
C120 C118 1.388 . S
C120 C121 1.366 . S
C121 C120 1.366 . S
C121 C122 1.414 . S
C121 C124 1.499 . S
C122 H102 0.950 . S
C122 C121 1.414 . S
C122 C123 1.374 . S
C123 H103 0.950 . S
C123 C119 1.385 . S
C123 C122 1.374 . S
C124 C121 1.499 . S
C124 C125 1.373 . S
C124 C126 1.389 1_556 S
C125 H104 0.950 1_565 S
C125 C124 1.373 . S
C125 C141 1.377 1_565 S
C126 C124 1.389 1_554 S
C126 C127 1.524 . S
C126 C140 1.377 . S
C127 C126 1.524 . S
C127 C128 1.397 . S
C127 C132 1.363 . S
C128 H105 0.944 1_554 S
C128 C127 1.397 . S
C128 C129 1.334 . S
C129 H106 0.950 . S
C129 C128 1.334 . S
C129 C130 1.287 . S
C130 C129 1.287 . S
C130 C131 1.524 . S
C130 H149 0.913 . S
C131 H107 0.950 . S
C131 C130 1.524 . S
C131 C132 1.415 . S
C132 H108 0.950 . S
C132 C127 1.363 . S
C132 C131 1.415 . S
C133 H109 0.951 . S
C133 C134 1.366 . S
C133 C135 1.388 . S
C134 C133 1.366 . S
C134 C138 1.385 . S
C135 H110 0.951 . S
C135 C133 1.388 . S
C135 C136 1.366 . S
C136 C135 1.366 . S
C136 C137 1.414 . S
C136 C139 1.499 . S
C137 H111 0.950 . S
C137 C136 1.414 . S
C137 C138 1.374 . S
C138 H112 0.950 . S
C138 C134 1.385 . S
C138 C137 1.374 . S
C139 C136 1.499 . S
C139 C140 1.373 1_545 S
C139 C141 1.389 1_554 S
C140 H113 0.950 . S
C140 C126 1.377 . S
C140 C139 1.373 1_565 S
C141 C125 1.377 1_545 S
C141 C139 1.389 1_556 S
C141 C142 1.524 . S
C142 C141 1.524 . S
C142 C143 1.397 . S
C142 C147 1.363 . S
C143 H114 0.944 1_556 S
C143 C142 1.397 . S
C143 C144 1.334 . S
C144 H115 0.950 . S
C144 C143 1.334 . S
C144 C145 1.287 . S
C145 C144 1.287 . S
C145 C146 1.524 . S
C145 H148 0.999 . S
C146 H116 0.950 . S
C146 C145 1.524 . S
C146 C147 1.415 . S
C147 H117 0.950 . S
C147 C142 1.363 . S
C147 C146 1.415 . S
H148 C145 0.999 . S
H149 C130 0.913 . S
H150 C168 0.951 . S
H151 C170 0.951 . S
H152 C172 0.950 . S
H153 C173 0.950 . S
H154 C175 0.950 . S
H155 C178 0.950 . S
H156 C179 0.950 . S
H157 C181 0.950 . S
H158 C182 0.950 . S
H159 C183 0.951 . S
H160 C185 0.951 . S
H161 C187 0.950 . S
H162 C188 0.950 . S
H163 C190 0.950 . S
H164 C193 0.950 . S
H165 C194 0.950 . S
H166 C196 0.950 . S
H167 C197 0.950 . S
C168 H150 0.951 . S
C168 C169 1.366 . S
C168 C170 1.388 . S
C169 C168 1.366 . S
C169 C173 1.385 . S
C170 H151 0.951 . S
C170 C168 1.388 . S
C170 C171 1.366 . S
C171 C170 1.366 . S
C171 C172 1.414 . S
C171 C174 1.499 . S
C172 H152 0.950 . S
C172 C171 1.414 . S
C172 C173 1.374 . S
C173 H153 0.950 . S
C173 C169 1.385 . S
C173 C172 1.374 . S
C174 C171 1.499 . S
C174 C175 1.373 . S
C174 C176 1.389 . S
C175 H154 0.950 . S
C175 C174 1.373 . S
C175 C191 1.377 . S
C176 C174 1.389 . S
C176 C177 1.524 . S
C176 C190 1.377 . S
C177 C176 1.524 . S
C177 C178 1.397 . S
C177 C182 1.363 . S
C178 H155 0.950 . S
C178 C177 1.397 . S
C178 C179 1.334 . S
C179 H156 0.950 . S
C179 C178 1.334 . S
C179 C180 1.287 . S
C180 C179 1.287 . S
C180 C181 1.524 . S
C180 H199 0.913 . S
C181 H157 0.950 . S
C181 C180 1.524 . S
C181 C182 1.415 . S
C182 H158 0.950 . S
C182 C177 1.363 . S
C182 C181 1.415 . S
C183 H159 0.951 . S
C183 C184 1.366 . S
C183 C185 1.388 . S
C184 C183 1.366 . S
C184 C188 1.385 . S
C185 H160 0.951 . S
C185 C183 1.388 . S
C185 C186 1.366 . S
C186 C185 1.366 . S
C186 C187 1.414 . S
C186 C189 1.499 . S
C187 H161 0.950 . S
C187 C186 1.414 . S
C187 C188 1.374 . S
C188 H162 0.950 . S
C188 C184 1.385 . S
C188 C187 1.374 . S
C189 C186 1.499 . S
C189 C190 1.373 . S
C189 C191 1.389 . S
C190 H163 0.950 . S
C190 C176 1.377 . S
C190 C189 1.373 . S
C191 C175 1.377 . S
C191 C189 1.389 . S
C191 C192 1.524 . S
C192 C191 1.524 . S
C192 C193 1.397 . S
C192 C197 1.363 . S
C193 H164 0.950 . S
C193 C192 1.397 . S
C193 C194 1.334 . S
C194 H165 0.950 . S
C194 C193 1.334 . S
C194 C195 1.287 . S
C195 C194 1.287 . S
C195 C196 1.524 . S
C195 H198 0.999 . S
C196 H166 0.950 . S
C196 C195 1.524 . S
C196 C197 1.415 . S
C197 H167 0.950 . S
C197 C192 1.363 . S
C197 C196 1.415 . S
H198 C195 0.999 . S
H199 C180 0.913 . S
H200 C218 0.951 . S
H201 C220 0.951 . S
H202 C222 0.950 1_455 S
H203 C223 0.950 . S
H204 C225 0.950 . S
H205 C228 0.950 . S
H206 C229 0.950 . S
H207 C231 0.950 . S
H208 C232 0.950 . S
H209 C233 0.951 . S
H210 C235 0.951 . S
H211 C237 0.950 . S
H212 C238 0.950 . S
H213 C240 0.950 1_655 S
H214 C243 0.950 . S
H215 C244 0.950 . S
H216 C246 0.950 . S
H217 C247 0.950 . S
C218 H200 0.951 . S
C218 C219 1.366 . S
C218 C220 1.388 . S
C219 C218 1.366 . S
C219 C223 1.385 . S
C220 H201 0.951 . S
C220 C218 1.388 . S
C220 C221 1.366 . S
C221 C220 1.366 . S
C221 C222 1.414 . S
C221 C224 1.499 . S
C222 H202 0.950 1_655 S
C222 C221 1.414 . S
C222 C223 1.374 . S
C223 H203 0.950 . S
C223 C219 1.385 . S
C223 C222 1.374 . S
C224 C221 1.499 . S
C224 C225 1.373 1_655 S
C224 C226 1.389 . S
C225 H204 0.950 . S
C225 C224 1.373 1_455 S
C225 C241 1.377 1_554 S
C226 C224 1.389 . S
C226 C227 1.524 . S
C226 C240 1.377 1_654 S
C227 C226 1.524 . S
C227 C228 1.397 . S
C227 C232 1.363 1_554 S
C228 H205 0.950 . S
C228 C227 1.397 . S
C228 C229 1.334 . S
C229 H206 0.950 . S
C229 C228 1.334 . S
C229 C230 1.287 . S
C230 C229 1.287 . S
C230 C231 1.524 1_554 S
C230 H249 0.913 . S
C231 H207 0.950 . S
C231 C230 1.524 1_556 S
C231 C232 1.415 . S
C232 H208 0.950 . S
C232 C227 1.363 1_556 S
C232 C231 1.415 . S
C233 H209 0.951 . S
C233 C234 1.366 . S
C233 C235 1.388 . S
C234 C233 1.366 . S
C234 C238 1.385 . S
C235 H210 0.951 . S
C235 C233 1.388 . S
C235 C236 1.366 . S
C236 C235 1.366 . S
C236 C237 1.414 . S
C236 C239 1.499 . S
C237 H211 0.950 . S
C237 C236 1.414 . S
C237 C238 1.374 . S
C238 H212 0.950 . S
C238 C234 1.385 . S
C238 C237 1.374 . S
C239 C236 1.499 . S
C239 C240 1.373 . S
C239 C241 1.389 . S
C240 H213 0.950 1_455 S
C240 C226 1.377 1_456 S
C240 C239 1.373 . S
C241 C225 1.377 1_556 S
C241 C239 1.389 . S
C241 C242 1.524 . S
C242 C241 1.524 . S
C242 C243 1.397 . S
C242 C247 1.363 1_556 S
C243 H214 0.950 . S
C243 C242 1.397 . S
C243 C244 1.334 . S
C244 H215 0.950 . S
C244 C243 1.334 . S
C244 C245 1.287 . S
C245 C244 1.287 . S
C245 C246 1.524 1_556 S
C245 H248 0.999 . S
C246 H216 0.950 . S
C246 C245 1.524 1_554 S
C246 C247 1.415 . S
C247 H217 0.950 . S
C247 C242 1.363 1_554 S
C247 C246 1.415 . S
H248 C245 0.999 . S
H249 C230 0.913 . S
H250 C268 0.951 . S
H251 C270 0.951 . S
H252 C272 0.950 . S
H253 C273 0.950 . S
H254 C275 0.961 . S
H255 C278 0.950 . S
H256 C279 0.950 . S
H257 C281 0.950 1_545 S
H258 C282 0.950 . S
H259 C283 0.951 . S
H260 C285 0.951 . S
H261 C287 0.950 . S
H262 C288 0.950 . S
H263 C290 0.950 . S
H264 C293 0.950 . S
H265 C294 0.950 . S
H266 C296 0.950 . S
H267 C297 0.950 . S
C268 H250 0.951 . S
C268 C269 1.366 . S
C268 C270 1.388 . S
C269 C268 1.366 . S
C269 C273 1.385 . S
C270 H251 0.951 . S
C270 C268 1.388 . S
C270 C271 1.366 . S
C271 C270 1.366 . S
C271 C272 1.414 . S
C271 C274 1.499 . S
C272 H252 0.950 . S
C272 C271 1.414 . S
C272 C273 1.374 . S
C273 H253 0.950 . S
C273 C269 1.385 . S
C273 C272 1.374 . S
C274 C271 1.499 . S
C274 C275 1.373 1_565 S
C274 C276 1.389 1_565 S
C275 H254 0.961 . S
C275 C274 1.373 1_545 S
C275 C291 1.377 . S
C276 C274 1.389 1_545 S
C276 C277 1.524 1_545 S
C276 C290 1.377 . S
C277 C276 1.524 1_565 S
C277 C278 1.397 . S
C277 C282 1.363 1_565 S
C278 H255 0.950 . S
C278 C277 1.397 . S
C278 C279 1.334 . S
C279 H256 0.950 . S
C279 C278 1.334 . S
C279 C280 1.287 . S
C280 C279 1.287 . S
C280 C281 1.524 . S
C280 H299 0.913 . S
C281 H257 0.950 1_565 S
C281 C280 1.524 . S
C281 C282 1.415 1_565 S
C282 H258 0.950 . S
C282 C277 1.363 1_545 S
C282 C281 1.415 1_545 S
C283 H259 0.951 . S
C283 C284 1.366 . S
C283 C285 1.388 . S
C284 C283 1.366 . S
C284 C288 1.385 . S
C285 H260 0.951 . S
C285 C283 1.388 . S
C285 C286 1.366 . S
C286 C285 1.366 . S
C286 C287 1.414 . S
C286 C289 1.499 . S
C287 H261 0.950 . S
C287 C286 1.414 . S
C287 C288 1.374 . S
C288 H262 0.950 . S
C288 C284 1.385 . S
C288 C287 1.374 . S
C289 C286 1.499 . S
C289 C290 1.373 . S
C289 C291 1.389 . S
C290 H263 0.950 . S
C290 C276 1.377 . S
C290 C289 1.373 . S
C291 C275 1.377 . S
C291 C289 1.389 . S
C291 C292 1.524 . S
C292 C291 1.524 . S
C292 C293 1.397 . S
C292 C297 1.363 . S
C293 H264 0.950 . S
C293 C292 1.397 . S
C293 C294 1.334 . S
C294 H265 0.950 . S
C294 C293 1.334 . S
C294 C295 1.287 . S
C295 C294 1.287 . S
C295 C296 1.524 . S
C295 H298 0.999 . S
C296 H266 0.950 . S
C296 C295 1.524 . S
C296 C297 1.415 . S
C297 H267 0.950 . S
C297 C292 1.363 . S
C297 C296 1.415 . S
H298 C295 0.999 . S
H299 C280 0.913 . S
H300 C318 0.951 . S
H301 C320 0.951 . S
H302 C322 0.950 . S
H303 C323 0.950 . S
H304 C325 0.950 . S
H305 C328 0.950 . S
H306 C329 0.950 . S
H307 C331 0.950 . S
H308 C332 0.950 . S
H309 C333 0.951 . S
H310 C335 0.951 . S
H311 C337 0.950 . S
H312 C338 0.950 . S
H313 C340 0.950 . S
H314 C343 0.950 . S
H315 C344 0.950 . S
H316 C346 0.950 . S
H317 C347 0.950 . S
C318 H300 0.951 . S
C318 C319 1.366 . S
C318 C320 1.388 . S
C319 C318 1.366 . S
C319 C323 1.385 . S
C320 H301 0.951 . S
C320 C318 1.388 . S
C320 C321 1.366 . S
C321 C320 1.366 . S
C321 C322 1.414 . S
C321 C324 1.499 . S
C322 H302 0.950 . S
C322 C321 1.414 . S
C322 C323 1.374 . S
C323 H303 0.950 . S
C323 C319 1.385 . S
C323 C322 1.374 . S
C324 C321 1.499 . S
C324 C325 1.381 . S
C324 C326 1.389 . S
C325 H304 0.950 . S
C325 C324 1.381 . S
C325 C341 1.369 1_554 S
C326 C324 1.389 . S
C326 C327 1.524 . S
C326 C340 1.369 1_554 S
C327 C326 1.524 . S
C327 C328 1.397 . S
C327 C332 1.363 . S
C328 H305 0.950 . S
C328 C327 1.397 . S
C328 C329 1.334 . S
C329 H306 0.950 . S
C329 C328 1.334 . S
C329 C330 1.287 . S
C330 C329 1.287 . S
C330 C331 1.524 . S
C330 H349 0.913 . S
C331 H307 0.950 . S
C331 C330 1.524 . S
C331 C332 1.415 . S
C332 H308 0.950 . S
C332 C327 1.363 . S
C332 C331 1.415 . S
C333 H309 0.951 . S
C333 C334 1.366 . S
C333 C335 1.388 . S
C334 C333 1.366 . S
C334 C338 1.385 . S
C335 H310 0.951 . S
C335 C333 1.388 . S
C335 C336 1.366 . S
C336 C335 1.366 . S
C336 C337 1.414 . S
C336 C339 1.499 . S
C337 H311 0.950 . S
C337 C336 1.414 . S
C337 C338 1.374 . S
C338 H312 0.950 . S
C338 C334 1.385 . S
C338 C337 1.374 . S
C339 C336 1.499 . S
C339 C340 1.381 . S
C339 C341 1.389 . S
C340 H313 0.950 . S
C340 C326 1.369 1_556 S
C340 C339 1.381 . S
C341 C325 1.369 1_556 S
C341 C339 1.389 . S
C341 C342 1.524 . S
C342 C341 1.524 . S
C342 C343 1.397 . S
C342 C347 1.363 . S
C343 H314 0.950 . S
C343 C342 1.397 . S
C343 C344 1.334 . S
C344 H315 0.950 . S
C344 C343 1.334 . S
C344 C345 1.287 . S
C345 C344 1.287 . S
C345 C346 1.524 . S
C345 H348 0.999 . S
C346 H316 0.950 . S
C346 C345 1.524 . S
C346 C347 1.415 . S
C347 H317 0.950 . S
C347 C342 1.363 . S
C347 C346 1.415 . S
H348 C345 0.999 . S
H349 C330 0.913 . S
H350 C368 0.951 . S
H351 C370 0.951 . S
H352 C372 0.950 . S
H353 C373 0.950 . S
H354 C375 0.950 . S
H355 C378 0.950 1_655 S
H356 C379 0.950 . S
H357 C381 0.950 . S
H358 C382 0.950 . S
H359 C383 0.951 . S
H360 C385 0.951 . S
H361 C387 0.950 . S
H362 C388 0.950 . S
H363 C390 0.950 . S
H364 C393 0.950 . S
H365 C394 0.950 . S
H366 C396 0.950 . S
H367 C397 0.950 . S
C368 H350 0.951 . S
C368 C369 1.366 . S
C368 C370 1.388 . S
C369 C368 1.366 . S
C369 C373 1.385 . S
C370 H351 0.951 . S
C370 C368 1.388 . S
C370 C371 1.366 . S
C371 C370 1.366 . S
C371 C372 1.414 . S
C371 C374 1.499 . S
C372 H352 0.950 . S
C372 C371 1.414 . S
C372 C373 1.374 . S
C373 H353 0.950 . S
C373 C369 1.385 . S
C373 C372 1.374 . S
C374 C371 1.499 . S
C374 C375 1.373 . S
C374 C376 1.389 . S
C375 H354 0.950 . S
C375 C374 1.373 . S
C375 C391 1.377 . S
C376 C374 1.389 . S
C376 C377 1.524 1_655 S
C376 C390 1.377 1_655 S
C377 C376 1.524 1_455 S
C377 C378 1.397 . S
C377 C382 1.363 . S
C378 H355 0.950 1_455 S
C378 C377 1.397 . S
C378 C379 1.334 . S
C379 H356 0.950 . S
C379 C378 1.334 . S
C379 C380 1.287 . S
C380 C379 1.287 . S
C380 C381 1.524 . S
C380 H399 0.913 . S
C381 H357 0.950 . S
C381 C380 1.524 . S
C381 C382 1.415 . S
C382 H358 0.950 . S
C382 C377 1.363 . S
C382 C381 1.415 . S
C383 H359 0.951 . S
C383 C384 1.366 . S
C383 C385 1.388 . S
C384 C383 1.366 . S
C384 C388 1.385 . S
C385 H360 0.951 . S
C385 C383 1.388 . S
C385 C386 1.366 . S
C386 C385 1.366 . S
C386 C387 1.414 . S
C386 C389 1.499 . S
C387 H361 0.950 . S
C387 C386 1.414 . S
C387 C388 1.374 . S
C388 H362 0.950 . S
C388 C384 1.385 . S
C388 C387 1.374 . S
C389 C386 1.499 . S
C389 C390 1.373 . S
C389 C391 1.389 1_455 S
C390 H363 0.950 . S
C390 C376 1.377 1_455 S
C390 C389 1.373 . S
C391 C375 1.377 . S
C391 C389 1.389 1_655 S
C391 C392 1.524 . S
C392 C391 1.524 . S
C392 C393 1.397 . S
C392 C397 1.363 . S
C393 H364 0.950 . S
C393 C392 1.397 . S
C393 C394 1.334 . S
C394 H365 0.950 . S
C394 C393 1.334 . S
C394 C395 1.287 . S
C395 C394 1.287 . S
C395 C396 1.524 . S
C395 H398 0.999 . S
C396 H366 0.950 . S
C396 C395 1.524 . S
C396 C397 1.415 . S
C397 H367 0.950 . S
C397 C392 1.363 . S
C397 C396 1.415 . S
H398 C395 0.999 . S
H399 C380 0.913 . S
H400 C418 0.951 . S
H401 C420 0.951 . S
H402 C422 0.954 . S
H403 C423 0.950 . S
H404 C425 0.950 . S
H405 C428 0.950 . S
H406 C429 0.950 . S
H407 C431 0.950 . S
H408 C432 0.950 . S
H409 C433 0.951 . S
H410 C435 0.951 . S
H411 C437 0.950 . S
H412 C438 0.950 . S
H413 C440 0.950 . S
H414 C443 0.950 . S
H415 C444 0.950 . S
H416 C446 0.950 . S
H417 C447 0.950 . S
C418 H400 0.951 . S
C418 C419 1.366 . S
C418 C420 1.388 1_545 S
C419 C418 1.366 . S
C419 C423 1.385 . S
C420 H401 0.951 . S
C420 C418 1.388 1_565 S
C420 C421 1.366 . S
C421 C420 1.366 . S
C421 C422 1.414 1_565 S
C421 C424 1.499 . S
C422 H402 0.954 . S
C422 C421 1.414 1_545 S
C422 C423 1.374 . S
C423 H403 0.950 . S
C423 C419 1.385 . S
C423 C422 1.374 . S
C424 C421 1.499 . S
C424 C425 1.373 . S
C424 C426 1.389 . S
C425 H404 0.950 . S
C425 C424 1.373 . S
C425 C441 1.377 . S
C426 C424 1.389 . S
C426 C427 1.524 . S
C426 C440 1.377 . S
C427 C426 1.524 . S
C427 C428 1.397 . S
C427 C432 1.363 . S
C428 H405 0.950 . S
C428 C427 1.397 . S
C428 C429 1.334 . S
C429 H406 0.950 . S
C429 C428 1.334 . S
C429 C430 1.287 . S
C430 C429 1.287 . S
C430 C431 1.524 . S
C430 H449 0.913 . S
C431 H407 0.950 . S
C431 C430 1.524 . S
C431 C432 1.415 . S
C432 H408 0.950 . S
C432 C427 1.363 . S
C432 C431 1.415 . S
C433 H409 0.951 . S
C433 C434 1.366 . S
C433 C435 1.388 . S
C434 C433 1.366 . S
C434 C438 1.385 . S
C435 H410 0.951 . S
C435 C433 1.388 . S
C435 C436 1.366 . S
C436 C435 1.366 . S
C436 C437 1.414 . S
C436 C439 1.499 . S
C437 H411 0.950 . S
C437 C436 1.414 . S
C437 C438 1.374 . S
C438 H412 0.950 . S
C438 C434 1.385 . S
C438 C437 1.374 . S
C439 C436 1.499 . S
C439 C440 1.373 . S
C439 C441 1.389 . S
C440 H413 0.950 . S
C440 C426 1.377 . S
C440 C439 1.373 . S
C441 C425 1.377 . S
C441 C439 1.389 . S
C441 C442 1.524 . S
C442 C441 1.524 . S
C442 C443 1.397 . S
C442 C447 1.363 . S
C443 H414 0.950 . S
C443 C442 1.397 . S
C443 C444 1.334 . S
C444 H415 0.950 . S
C444 C443 1.334 . S
C444 C445 1.287 . S
C445 C444 1.287 . S
C445 C446 1.524 . S
C445 H448 0.999 . S
C446 H416 0.950 . S
C446 C445 1.524 . S
C446 C447 1.415 . S
C447 H417 0.950 . S
C447 C442 1.363 . S
C447 C446 1.415 . S
H448 C445 0.999 . S
H449 C430 0.913 . S
H450 C468 0.951 . S
H451 C470 0.951 . S
H452 C472 0.950 . S
H453 C473 0.950 . S
H454 C475 0.950 . S
H455 C478 0.950 . S
H456 C479 0.950 . S
H457 C481 0.952 1_455 S
H458 C482 0.950 . S
H459 C483 0.951 . S
H460 C485 0.951 . S
H461 C487 0.950 . S
H462 C488 0.950 . S
H463 C490 0.950 . S
H464 C493 0.950 . S
H465 C494 0.950 . S
H466 C496 0.950 . S
H467 C497 0.950 . S
C468 H450 0.951 . S
C468 C469 1.366 . S
C468 C470 1.388 . S
C469 C468 1.366 . S
C469 C473 1.385 . S
C470 H451 0.951 . S
C470 C468 1.388 . S
C470 C471 1.366 1_455 S
C471 C470 1.366 1_655 S
C471 C472 1.414 . S
C471 C474 1.499 . S
C472 H452 0.950 . S
C472 C471 1.414 . S
C472 C473 1.374 1_655 S
C473 H453 0.950 . S
C473 C469 1.385 . S
C473 C472 1.374 1_455 S
C474 C471 1.499 . S
C474 C475 1.373 . S
C474 C476 1.389 . S
C475 H454 0.950 . S
C475 C474 1.373 . S
C475 C491 1.377 . S
C476 C474 1.389 . S
C476 C477 1.524 . S
C476 C490 1.377 . S
C477 C476 1.524 . S
C477 C478 1.397 . S
C477 C482 1.363 . S
C478 H455 0.950 . S
C478 C477 1.397 . S
C478 C479 1.334 1_655 S
C479 H456 0.950 . S
C479 C478 1.334 1_455 S
C479 C480 1.287 . S
C480 C479 1.287 . S
C480 C481 1.518 1_455 S
C480 H499 0.913 . S
C481 H457 0.952 1_655 S
C481 C480 1.518 1_655 S
C481 C482 1.418 . S
C482 H458 0.950 . S
C482 C477 1.363 . S
C482 C481 1.418 . S
C483 H459 0.951 . S
C483 C484 1.366 . S
C483 C485 1.388 . S
C484 C483 1.366 . S
C484 C488 1.385 . S
C485 H460 0.951 . S
C485 C483 1.388 . S
C485 C486 1.366 . S
C486 C485 1.366 . S
C486 C487 1.414 . S
C486 C489 1.499 . S
C487 H461 0.950 . S
C487 C486 1.414 . S
C487 C488 1.374 . S
C488 H462 0.950 . S
C488 C484 1.385 . S
C488 C487 1.374 . S
C489 C486 1.499 . S
C489 C490 1.373 . S
C489 C491 1.389 . S
C490 H463 0.950 . S
C490 C476 1.377 . S
C490 C489 1.373 . S
C491 C475 1.377 . S
C491 C489 1.389 . S
C491 C492 1.524 . S
C492 C491 1.524 . S
C492 C493 1.397 . S
C492 C497 1.363 . S
C493 H464 0.950 . S
C493 C492 1.397 . S
C493 C494 1.334 . S
C494 H465 0.950 . S
C494 C493 1.334 . S
C494 C495 1.287 . S
C495 C494 1.287 . S
C495 C496 1.524 . S
C495 H498 0.999 . S
C496 H466 0.950 . S
C496 C495 1.524 . S
C496 C497 1.415 . S
C497 H467 0.950 . S
C497 C492 1.363 . S
C497 C496 1.415 . S
H498 C495 0.999 . S
H499 C480 0.913 . S
H500 C518 0.951 1_565 S
H501 C520 0.951 . S
H502 C522 0.950 . S
H503 C523 0.950 . S
H504 C525 0.950 . S
H505 C528 0.950 . S
H506 C529 0.950 . S
H507 C531 0.950 . S
H508 C532 0.950 . S
H509 C533 0.951 . S
H510 C535 0.951 . S
H511 C537 0.950 . S
H512 C538 0.950 . S
H513 C540 0.950 . S
H514 C543 0.950 . S
H515 C544 0.950 1_655 S
H516 C546 0.950 . S
H517 C547 0.950 . S
C518 H500 0.951 1_545 S
C518 C519 1.366 . S
C518 C520 1.388 1_545 S
C519 C518 1.366 . S
C519 C523 1.385 . S
C520 H501 0.951 . S
C520 C518 1.388 1_565 S
C520 C521 1.366 . S
C521 C520 1.366 . S
C521 C522 1.414 1_565 S
C521 C524 1.499 . S
C522 H502 0.950 . S
C522 C521 1.414 1_545 S
C522 C523 1.374 . S
C523 H503 0.950 . S
C523 C519 1.385 . S
C523 C522 1.374 . S
C524 C521 1.499 . S
C524 C525 1.373 . S
C524 C526 1.389 . S
C525 H504 0.950 . S
C525 C524 1.373 . S
C525 C541 1.377 . S
C526 C524 1.389 . S
C526 C527 1.524 . S
C526 C540 1.377 . S
C527 C526 1.524 . S
C527 C528 1.397 . S
C527 C532 1.363 . S
C528 H505 0.950 . S
C528 C527 1.397 . S
C528 C529 1.334 . S
C529 H506 0.950 . S
C529 C528 1.334 . S
C529 C530 1.287 . S
C530 C529 1.287 . S
C530 C531 1.524 . S
C530 H549 0.913 . S
C531 H507 0.950 . S
C531 C530 1.524 . S
C531 C532 1.415 . S
C532 H508 0.950 . S
C532 C527 1.363 . S
C532 C531 1.415 . S
C533 H509 0.951 . S
C533 C534 1.366 . S
C533 C535 1.388 . S
C534 C533 1.366 . S
C534 C538 1.385 . S
C535 H510 0.951 . S
C535 C533 1.388 . S
C535 C536 1.366 1_655 S
C536 C535 1.366 1_455 S
C536 C537 1.414 . S
C536 C539 1.499 . S
C537 H511 0.950 . S
C537 C536 1.414 . S
C537 C538 1.374 1_455 S
C538 H512 0.950 . S
C538 C534 1.385 . S
C538 C537 1.374 1_655 S
C539 C536 1.499 . S
C539 C540 1.373 . S
C539 C541 1.389 . S
C540 H513 0.950 . S
C540 C526 1.377 . S
C540 C539 1.373 . S
C541 C525 1.377 . S
C541 C539 1.389 . S
C541 C542 1.524 . S
C542 C541 1.524 . S
C542 C543 1.397 . S
C542 C547 1.363 . S
C543 H514 0.950 . S
C543 C542 1.397 . S
C543 C544 1.334 . S
C544 H515 0.950 1_455 S
C544 C543 1.334 . S
C544 C545 1.290 . S
C545 C544 1.290 . S
C545 C546 1.523 . S
C545 H548 0.996 1_455 S
C546 H516 0.950 . S
C546 C545 1.523 . S
C546 C547 1.415 . S
C547 H517 0.950 . S
C547 C542 1.363 . S
C547 C546 1.415 . S
H548 C545 0.996 1_655 S
H549 C530 0.913 . S
H550 C568 0.951 . S
H551 C570 0.951 . S
H552 C572 0.950 . S
H553 C573 0.950 . S
H554 C575 0.950 . S
H555 C578 0.950 . S
H556 C579 0.950 . S
H557 C581 0.950 . S
H558 C582 0.950 . S
H559 C583 0.951 . S
H560 C585 0.951 . S
H561 C587 0.950 . S
H562 C588 0.950 . S
H563 C590 0.950 . S
H564 C593 0.950 . S
H565 C594 0.950 . S
H566 C596 0.950 . S
H567 C597 0.950 . S
C568 H550 0.951 . S
C568 C569 1.366 . S
C568 C570 1.388 . S
C569 C568 1.366 . S
C569 C573 1.385 . S
C570 H551 0.951 . S
C570 C568 1.388 . S
C570 C571 1.366 . S
C571 C570 1.366 . S
C571 C572 1.414 . S
C571 C574 1.499 . S
C572 H552 0.950 . S
C572 C571 1.414 . S
C572 C573 1.374 . S
C573 H553 0.950 . S
C573 C569 1.385 . S
C573 C572 1.374 . S
C574 C571 1.499 . S
C574 C575 1.373 . S
C574 C576 1.389 . S
C575 H554 0.950 . S
C575 C574 1.373 . S
C575 C591 1.377 . S
C576 C574 1.389 . S
C576 C577 1.524 . S
C576 C590 1.377 . S
C577 C576 1.524 . S
C577 C578 1.397 . S
C577 C582 1.363 . S
C578 H555 0.950 . S
C578 C577 1.397 . S
C578 C579 1.334 . S
C579 H556 0.950 . S
C579 C578 1.334 . S
C579 C580 1.287 . S
C580 C579 1.287 . S
C580 C581 1.524 . S
C580 H599 0.913 . S
C581 H557 0.950 . S
C581 C580 1.524 . S
C581 C582 1.415 . S
C582 H558 0.950 . S
C582 C577 1.363 . S
C582 C581 1.415 . S
C583 H559 0.951 . S
C583 C584 1.366 . S
C583 C585 1.388 1_565 S
C584 C583 1.366 . S
C584 C588 1.385 . S
C585 H560 0.951 . S
C585 C583 1.388 1_545 S
C585 C586 1.366 . S
C586 C585 1.366 . S
C586 C587 1.414 . S
C586 C589 1.499 . S
C587 H561 0.950 . S
C587 C586 1.414 . S
C587 C588 1.374 1_545 S
C588 H562 0.950 . S
C588 C584 1.385 . S
C588 C587 1.374 1_565 S
C589 C586 1.499 . S
C589 C590 1.373 . S
C589 C591 1.389 . S
C590 H563 0.950 . S
C590 C576 1.377 . S
C590 C589 1.373 . S
C591 C575 1.377 . S
C591 C589 1.389 . S
C591 C592 1.524 . S
C592 C591 1.524 . S
C592 C593 1.397 . S
C592 C597 1.363 . S
C593 H564 0.950 . S
C593 C592 1.397 . S
C593 C594 1.334 . S
C594 H565 0.950 . S
C594 C593 1.334 . S
C594 C595 1.287 . S
C595 C594 1.287 . S
C595 C596 1.524 . S
C595 H598 0.999 . S
C596 H566 0.950 . S
C596 C595 1.524 . S
C596 C597 1.415 . S
C597 H567 0.950 . S
C597 C592 1.363 . S
C597 C596 1.415 . S
H598 C595 0.999 . S
H599 C580 0.913 . S
H600 C618 0.951 . S
H601 C620 0.951 . S
H602 C622 0.950 . S
H603 C623 0.950 . S
H604 C625 0.950 . S
H605 C628 0.950 . S
H606 C629 0.950 . S
H607 C631 0.950 . S
H608 C632 0.950 . S
H609 C633 0.951 1_455 S
H610 C635 0.951 . S
H611 C637 0.950 . S
H612 C638 0.950 . S
H613 C640 0.950 . S
H614 C643 0.950 . S
H615 C644 0.950 . S
H616 C646 0.950 . S
H617 C647 0.950 . S
C618 H600 0.951 . S
C618 C619 1.366 . S
C618 C620 1.388 . S
C619 C618 1.366 . S
C619 C623 1.385 . S
C620 H601 0.951 . S
C620 C618 1.388 . S
C620 C621 1.366 . S
C621 C620 1.366 . S
C621 C622 1.414 . S
C621 C624 1.499 . S
C622 H602 0.950 . S
C622 C621 1.414 . S
C622 C623 1.374 . S
C623 H603 0.950 . S
C623 C619 1.385 . S
C623 C622 1.374 . S
C624 C621 1.499 . S
C624 C625 1.373 . S
C624 C626 1.389 . S
C625 H604 0.950 . S
C625 C624 1.373 . S
C625 C641 1.377 . S
C626 C624 1.389 . S
C626 C627 1.524 . S
C626 C640 1.377 . S
C627 C626 1.524 . S
C627 C628 1.397 . S
C627 C632 1.363 . S
C628 H605 0.950 . S
C628 C627 1.397 . S
C628 C629 1.334 . S
C629 H606 0.950 . S
C629 C628 1.334 . S
C629 C630 1.287 . S
C630 C629 1.287 . S
C630 C631 1.524 . S
C630 H649 0.913 . S
C631 H607 0.950 . S
C631 C630 1.524 . S
C631 C632 1.415 . S
C632 H608 0.950 . S
C632 C627 1.363 . S
C632 C631 1.415 . S
C633 H609 0.951 1_655 S
C633 C634 1.366 . S
C633 C635 1.388 1_655 S
C634 C633 1.366 . S
C634 C638 1.385 . S
C635 H610 0.951 . S
C635 C633 1.388 1_455 S
C635 C636 1.366 . S
C636 C635 1.366 . S
C636 C637 1.414 1_455 S
C636 C639 1.499 . S
C637 H611 0.950 . S
C637 C636 1.414 1_655 S
C637 C638 1.374 . S
C638 H612 0.950 . S
C638 C634 1.385 . S
C638 C637 1.374 . S
C639 C636 1.499 . S
C639 C640 1.373 . S
C639 C641 1.389 . S
C640 H613 0.950 . S
C640 C626 1.377 . S
C640 C639 1.373 . S
C641 C625 1.377 . S
C641 C639 1.389 . S
C641 C642 1.524 . S
C642 C641 1.524 . S
C642 C643 1.397 . S
C642 C647 1.363 . S
C643 H614 0.950 . S
C643 C642 1.397 . S
C643 C644 1.334 . S
C644 H615 0.950 . S
C644 C643 1.334 . S
C644 C645 1.287 . S
C645 C644 1.287 . S
C645 C646 1.524 . S
C645 H648 0.999 . S
C646 H616 0.950 . S
C646 C645 1.524 . S
C646 C647 1.415 . S
C647 H617 0.950 . S
C647 C642 1.363 . S
C647 C646 1.415 . S
H648 C645 0.999 . S
H649 C630 0.913 . S
H650 C668 0.951 . S
H651 C670 0.951 . S
H652 C672 0.950 . S
H653 C673 0.950 . S
H654 C675 0.950 . S
H655 C678 0.950 . S
H656 C679 0.950 . S
H657 C681 0.950 . S
H658 C682 0.950 . S
H659 C683 0.951 . S
H660 C685 0.951 1_545 S
H661 C687 0.950 . S
H662 C688 0.950 . S
H663 C690 0.950 . S
H664 C693 0.950 . S
H665 C694 0.950 . S
H666 C696 0.950 . S
H667 C697 0.950 . S
C668 H650 0.951 . S
C668 C669 1.366 . S
C668 C670 1.388 1_455 S
C669 C668 1.366 . S
C669 C673 1.385 . S
C670 H651 0.951 . S
C670 C668 1.388 1_655 S
C670 C671 1.366 . S
C671 C670 1.366 . S
C671 C672 1.414 . S
C671 C674 1.499 . S
C672 H652 0.950 . S
C672 C671 1.414 . S
C672 C673 1.374 1_655 S
C673 H653 0.950 . S
C673 C669 1.385 . S
C673 C672 1.374 1_455 S
C674 C671 1.499 . S
C674 C675 1.373 . S
C674 C676 1.389 . S
C675 H654 0.950 . S
C675 C674 1.373 . S
C675 C691 1.377 . S
C676 C674 1.389 . S
C676 C677 1.524 . S
C676 C690 1.377 . S
C677 C676 1.524 . S
C677 C678 1.397 . S
C677 C682 1.363 . S
C678 H655 0.950 . S
C678 C677 1.397 . S
C678 C679 1.334 . S
C679 H656 0.950 . S
C679 C678 1.334 . S
C679 C680 1.287 . S
C680 C679 1.287 . S
C680 C681 1.524 . S
C680 H699 0.913 . S
C681 H657 0.950 . S
C681 C680 1.524 . S
C681 C682 1.415 . S
C682 H658 0.950 . S
C682 C677 1.363 . S
C682 C681 1.415 . S
C683 H659 0.951 . S
C683 C684 1.366 . S
C683 C685 1.388 . S
C684 C683 1.366 . S
C684 C688 1.385 . S
C685 H660 0.951 1_565 S
C685 C683 1.388 . S
C685 C686 1.366 1_565 S
C686 C685 1.366 1_545 S
C686 C687 1.414 . S
C686 C689 1.499 . S
C687 H661 0.950 . S
C687 C686 1.414 . S
C687 C688 1.374 1_545 S
C688 H662 0.950 . S
C688 C684 1.385 . S
C688 C687 1.374 1_565 S
C689 C686 1.499 . S
C689 C690 1.373 . S
C689 C691 1.389 . S
C690 H663 0.950 . S
C690 C676 1.377 . S
C690 C689 1.373 . S
C691 C675 1.377 . S
C691 C689 1.389 . S
C691 C692 1.524 . S
C692 C691 1.524 . S
C692 C693 1.397 . S
C692 C697 1.363 . S
C693 H664 0.950 . S
C693 C692 1.397 . S
C693 C694 1.334 1_545 S
C694 H665 0.950 . S
C694 C693 1.334 1_565 S
C694 C695 1.287 . S
C695 C694 1.287 . S
C695 C696 1.524 1_565 S
C695 H698 0.999 . S
C696 H666 0.950 . S
C696 C695 1.524 1_545 S
C696 C697 1.415 . S
C697 H667 0.950 . S
C697 C692 1.363 . S
C697 C696 1.415 . S
H698 C695 0.999 . S
H699 C680 0.913 . S
C119 C54 1.760 . S
C134 C5 1.865 . S
C169 C57 1.865 . S
C184 C6 1.761 . S
C219 C1 1.865 . S
C234 C61 1.761 . S
C269 C58 1.865 . S
C284 C2 1.761 . S
C319 C9 1.865 . S
C334 C52 1.760 . S
C369 C10 1.760 . S
C384 C51 1.865 . S
C419 C0 1.008 . S
C434 C3 1.008 . S
C469 C59 1.007 . S
C484 C60 1.007 . S
C519 C11 1.007 . S
C534 C8 1.007 . S
C569 C50 1.007 . S
C584 C53 1.007 . S
C619 C4 1.007 . S
C634 C7 1.007 . S
C669 C55 1.007 . S
C684 C56 1.007 . S
