# Generated by pormake.
# Topology smu, (6)-cn, num edge types: 1
# Building blocks:
#     Node 0, Type 0, BuildingBlock: BETGAK_clean_sbu_0, # of connection points: 6
#     Node 1, Type 0, BuildingBlock: BETGAK_clean_sbu_0, # of connection points: 6
#     Node 2, Type 0, BuildingBlock: BETGAK_clean_sbu_0, # of connection points: 6
#     Node 3, Type 0, BuildingBlock: BETGAK_clean_sbu_0, # of connection points: 6
#     Node 4, Type 0, BuildingBlock: BETGAK_clean_sbu_0, # of connection points: 6
#     Node 5, Type 0, BuildingBlock: BETGAK_clean_sbu_0, # of connection points: 6
#     Edge 6, Type (0, 0), BuildingBlock: FUNLAD_clean_linker_0, # of connection points: 2
#     Edge 7, Type (0, 0), BuildingBlock: FUNLAD_clean_linker_0, # of connection points: 2
#     Edge 8, Type (0, 0), BuildingBlock: FUNLAD_clean_linker_0, # of connection points: 2
#     Edge 9, Type (0, 0), BuildingBlock: FUNLAD_clean_linker_0, # of connection points: 2
#     Edge 10, Type (0, 0), BuildingBlock: FUNLAD_clean_linker_0, # of connection points: 2
#     Edge 11, Type (0, 0), BuildingBlock: FUNLAD_clean_linker_0, # of connection points: 2
#     Edge 12, Type (0, 0), BuildingBlock: FUNLAD_clean_linker_0, # of connection points: 2
#     Edge 13, Type (0, 0), BuildingBlock: FUNLAD_clean_linker_0, # of connection points: 2
#     Edge 14, Type (0, 0), BuildingBlock: FUNLAD_clean_linker_0, # of connection points: 2
#     Edge 15, Type (0, 0), BuildingBlock: FUNLAD_clean_linker_0, # of connection points: 2
#     Edge 16, Type (0, 0), BuildingBlock: FUNLAD_clean_linker_0, # of connection points: 2
#     Edge 17, Type (0, 0), BuildingBlock: FUNLAD_clean_linker_0, # of connection points: 2
#     Edge 18, Type (0, 0), BuildingBlock: FUNLAD_clean_linker_0, # of connection points: 2
#     Edge 19, Type (0, 0), BuildingBlock: FUNLAD_clean_linker_0, # of connection points: 2
#     Edge 20, Type (0, 0), BuildingBlock: FUNLAD_clean_linker_0, # of connection points: 2
#     Edge 21, Type (0, 0), BuildingBlock: FUNLAD_clean_linker_0, # of connection points: 2
#     Edge 22, Type (0, 0), BuildingBlock: FUNLAD_clean_linker_0, # of connection points: 2
#     Edge 23, Type (0, 0), BuildingBlock: FUNLAD_clean_linker_0, # of connection points: 2
# Relax obj value: 0.213
# Max RMSD: 0.302
# Mean RMSD: 0.302
data_MOF--net-smu--node1-BETGAK_clean_sbu_0--edge1-FUNLAD_clean_linker_0
_symmetry_space_group_name_H-M    P1
_symmetry_Int_Tables_number       1
_symmetry_cell_setting            triclinic
loop_
_symmetry_equiv_pos_as_xyz
'x, y, z'
_cell_length_a     43.387796
_cell_length_b     43.251484
_cell_length_c     30.465173
_cell_angle_alpha  89.975917
_cell_angle_beta   90.235723
_cell_angle_gamma 119.49346
loop_
_atom_site_label
_atom_site_type_symbol
_atom_site_fract_x
_atom_site_fract_y
_atom_site_fract_z
_atom_type_partial_charge
La0 La 0.40488 0.09725 0.28953 0.0
La1 La 0.35787 0.12666 0.3167 0.0
C2 C 0.45168 0.08686 0.25413 0.0
C3 C 0.49068 0.10654 0.25802 0.0
C4 C 0.50695 0.1286 0.29446 0.0
C5 C 0.54369 0.14597 0.2996 0.0
C6 C 0.56514 0.14149 0.26863 0.0
C7 C 0.54884 0.12003 0.23154 0.0
C8 C 0.5119 0.1027 0.22632 0.0
C9 C 0.38805 0.08744 0.37325 0.0
C10 C 0.44058 0.1795 0.31122 0.0
C11 C 0.32739 0.15783 0.35014 0.0
C12 C 0.29616 0.16226 0.34412 0.0
C13 C 0.27611 0.15166 0.30523 0.0
C14 C 0.25039 0.16164 0.2972 0.0
C15 C 0.24442 0.1825 0.32786 0.0
C16 C 0.26381 0.19185 0.36744 0.0
C17 C 0.28937 0.1818 0.37542 0.0
C18 C 0.35295 0.10899 0.23231 0.0
C19 C 0.32437 0.04558 0.30292 0.0
O20 O 0.43489 0.07125 0.28997 0.0
O21 O 0.43705 0.10339 0.23475 0.0
O22 O 0.39382 0.06642 0.34888 0.0
O23 O 0.39423 0.11505 0.35159 0.0
O24 O 0.44552 0.15251 0.30148 0.0
O25 O 0.40884 0.17504 0.31918 0.0
O26 O 0.3508 0.17097 0.31876 0.0
O27 O 0.32259 0.12707 0.36399 0.0
O28 O 0.32718 0.10719 0.25534 0.0
O29 O 0.38028 0.1226 0.2561 0.0
O30 O 0.32486 0.07039 0.32878 0.0
O31 O 0.3515 0.05216 0.27685 0.0
H32 H 0.4912 0.13191 0.31952 0.0
H33 H 0.55529 0.16273 0.32815 0.0
H34 H 0.5645 0.11574 0.20723 0.0
H35 H 0.49988 0.08577 0.19799 0.0
H36 H 0.2812 0.13676 0.2805 0.0
H37 H 0.2356 0.15352 0.26668 0.0
H38 H 0.26039 0.20829 0.39156 0.0
H39 H 0.30495 0.19065 0.40535 0.0
La40 La 0.76181 0.66679 0.29438 0.0
La41 La 0.83609 0.71954 0.32019 0.0
C42 C 0.70743 0.61688 0.25802 0.0
C43 C 0.68826 0.57801 0.26475 0.0
C44 C 0.69337 0.56329 0.30333 0.0
C45 C 0.67404 0.52663 0.31065 0.0
C46 C 0.64916 0.50381 0.27952 0.0
C47 C 0.64476 0.51861 0.24038 0.0
C48 C 0.6641 0.55538 0.23314 0.0
C49 C 0.76751 0.68458 0.37801 0.0
C50 C 0.81413 0.63773 0.31611 0.0
C51 C 0.89782 0.75465 0.35218 0.0
C52 C 0.93362 0.78384 0.3405 0.0
C53 C 0.95622 0.77678 0.31451 0.0
C54 C 0.99156 0.80258 0.30833 0.0
C55 C 1.00543 0.83623 0.32798 0.0
C56 C 0.9825 0.84377 0.3527 0.0
C57 C 0.94705 0.81779 0.35908 0.0
C58 C 0.82168 0.72215 0.23577 0.0
C59 C 0.78262 0.74598 0.30725 0.0
O60 O 0.70641 0.63578 0.29075 0.0
O61 O 0.73931 0.63048 0.24194 0.0
O62 O 0.7397 0.6748 0.35386 0.0
O63 O 0.79076 0.6812 0.35647 0.0
O64 O 0.78085 0.62951 0.30941 0.0
O65 O 0.83944 0.67096 0.32064 0.0
O66 O 0.88627 0.72545 0.32948 0.0
O67 O 0.87252 0.76204 0.36037 0.0
O68 O 0.84455 0.74904 0.25826 0.0
O69 O 0.8105 0.69505 0.25974 0.0
O70 O 0.80769 0.74786 0.33377 0.0
O71 O 0.7647 0.71824 0.28076 0.0
H72 H 0.71197 0.58022 0.32816 0.0
H73 H 0.67851 0.51617 0.34084 0.0
H74 H 0.62563 0.50192 0.21589 0.0
H75 H 0.65978 0.5662 0.20314 0.0
H76 H 0.94707 0.75079 0.30011 0.0
H77 H 1.00838 0.79548 0.28971 0.0
H78 H 0.99209 0.86957 0.36782 0.0
H79 H 0.93045 0.82398 0.37957 0.0
La80 La 0.97196 0.31061 0.2933 0.0
La81 La 0.94218 0.23274 0.31148 0.0
C82 C 0.99575 0.37383 0.26753 0.0
C83 C 0.98049 0.3977 0.27156 0.0
C84 C 0.94969 0.38733 0.29634 0.0
C85 C 0.9349 0.40961 0.30003 0.0
C86 C 0.95046 0.44285 0.27888 0.0
C87 C 0.98123 0.45296 0.25375 0.0
C88 C 0.99606 0.43062 0.25016 0.0
C89 C 0.95863 0.29259 0.37824 0.0
C90 C 0.89095 0.26432 0.3027 0.0
C91 C 0.90755 0.16929 0.33793 0.0
C92 C 0.90034 0.13288 0.32862 0.0
C93 C 0.90272 0.12187 0.28598 0.0
C94 C 0.89027 0.08582 0.27696 0.0
C95 C 0.87505 0.0602 0.31038 0.0
C96 C 0.8742 0.07171 0.35333 0.0
C97 C 0.88669 0.10764 0.36229 0.0
C98 C 0.96252 0.25093 0.22944 0.0
C99 C 1.02356 0.27874 0.30694 0.0
O100 O 1.00534 0.36532 0.3043 0.0
O101 O 0.97809 0.34605 0.24238 0.0
O102 O 0.954 0.31658 0.3587 0.0
O103 O 0.97012 0.27991 0.3498 0.0
O104 O 0.91601 0.29185 0.28189 0.0
O105 O 0.89839 0.24266 0.32492 0.0
O106 O 0.896 0.18341 0.30879 0.0
O107 O 0.93872 0.19227 0.35354 0.0
O108 O 0.96195 0.22431 0.24948 0.0
O109 O 0.94801 0.26372 0.25377 0.0
O110 O 0.99717 0.25079 0.32594 0.0
O111 O 1.01895 0.30346 0.2866 0.0
H112 H 0.93709 0.36195 0.31301 0.0
H113 H 0.91155 0.40098 0.32011 0.0
H114 H 0.99372 0.47802 0.23638 0.0
H115 H 1.01962 0.43902 0.23055 0.0
H116 H 0.91298 0.14093 0.25941 0.0
H117 H 0.89123 0.07787 0.24352 0.0
H118 H 0.86331 0.05281 0.37999 0.0
H119 H 0.88451 0.11556 0.39536 0.0
La120 La 0.14254 0.34682 0.8148 0.0
La121 La 0.10957 0.39095 0.78828 0.0
C122 C 0.17606 0.31832 0.8475 0.0
C123 C 0.18009 0.28666 0.84212 0.0
C124 C 0.16781 0.26542 0.80429 0.0
C125 C 0.17631 0.23851 0.79702 0.0
C126 C 0.19738 0.23247 0.82737 0.0
C127 C 0.20862 0.25318 0.86585 0.0
C128 C 0.20007 0.28 0.87308 0.0
C129 C 0.12275 0.33971 0.73111 0.0
C130 C 0.061 0.30949 0.80261 0.0
C131 C 0.0933 0.43499 0.75603 0.0
C132 C 0.1123 0.47369 0.74788 0.0
C133 C 0.09508 0.49309 0.75733 0.0
C134 C 0.11384 0.53022 0.75793 0.0
C135 C 0.15045 0.54892 0.74939 0.0
C136 C 0.16731 0.5294 0.73764 0.0
C137 C 0.14837 0.4921 0.73688 0.0
C138 C 0.1015 0.37315 0.87194 0.0
C139 C 0.19284 0.42952 0.80422 0.0
O140 O 0.18728 0.34056 0.81458 0.0
O141 O 0.14616 0.31398 0.86351 0.0
O142 O 0.12339 0.31522 0.75467 0.0
O143 O 0.13578 0.36784 0.75372 0.0
O144 O 0.08691 0.31095 0.8272 0.0
O145 O 0.06555 0.33662 0.77751 0.0
O146 O 0.0905 0.42649 0.79743 0.0
O147 O 0.10123 0.41471 0.73216 0.0
O148 O 0.07856 0.37601 0.84772 0.0
O149 O 0.12941 0.38193 0.84991 0.0
O150 O 0.16534 0.43285 0.79205 0.0
O151 O 0.18925 0.39881 0.81666 0.0
H152 H 0.15264 0.27039 0.77975 0.0
H153 H 0.16741 0.22327 0.7669 0.0
H154 H 0.2243 0.24885 0.89027 0.0
H155 H 0.20995 0.29625 0.90236 0.0
H156 H 0.06728 0.47946 0.76598 0.0
H157 H 0.09974 0.54428 0.76605 0.0
H158 H 0.19543 0.54283 0.73091 0.0
H159 H 0.16217 0.47767 0.7293 0.0
La160 La 0.24138 0.9215 0.80874 0.0
La161 La 0.32009 0.95253 0.7974 0.0
C162 C 0.17778 0.88696 0.83295 0.0
C163 C 0.14208 0.88148 0.82455 0.0
C164 C 0.13275 0.89057 0.78435 0.0
C165 C 0.0973 0.88047 0.77539 0.0
C166 C 0.07071 0.86108 0.80648 0.0
C167 C 0.08063 0.85303 0.84711 0.0
C168 C 0.11592 0.8632 0.85601 0.0
C169 C 0.26321 0.936 0.72692 0.0
C170 C 0.28482 1.00283 0.79401 0.0
C171 C 0.38371 0.97529 0.77532 0.0
C172 C 0.40489 0.95696 0.77679 0.0
C173 C 0.392 0.92458 0.79926 0.0
C174 C 0.41129 0.90649 0.80012 0.0
C175 C 0.44413 0.92042 0.77872 0.0
C176 C 0.45714 0.95307 0.75647 0.0
C177 C 0.43761 0.97108 0.75539 0.0
C178 C 0.29804 0.94387 0.88059 0.0
C179 C 0.27474 0.87157 0.81204 0.0
O180 O 0.19145 0.87665 0.80186 0.0
O181 O 0.20111 0.91692 0.85125 0.0
O182 O 0.23566 0.93657 0.74206 0.0
O183 O 0.27507 0.92386 0.75619 0.0
O184 O 0.25489 0.97647 0.80933 0.0
O185 O 0.31287 0.99917 0.78434 0.0
O186 O 0.37425 0.9817 0.81342 0.0
O187 O 0.35725 0.96228 0.74751 0.0
O188 O 0.32331 0.93884 0.86624 0.0
O189 O 0.28664 0.95353 0.84846 0.0
O190 O 0.30239 0.89599 0.79074 0.0
O191 O 0.25202 0.87946 0.83031 0.0
H192 H 0.15267 0.90458 0.75956 0.0
H193 H 0.09069 0.88752 0.74402 0.0
H194 H 0.06096 0.83765 0.87158 0.0
H195 H 0.1226 0.8556 0.887 0.0
H196 H 0.36697 0.91325 0.81636 0.0
H197 H 0.40067 0.88178 0.81814 0.0
H198 H 0.48216 0.96445 0.73932 0.0
H199 H 0.44801 0.99595 0.73773 0.0
La200 La 0.72917 0.8195 0.81753 0.0
La201 La 0.67784 0.74387 0.79397 0.0
C202 C 0.76304 0.88258 0.84524 0.0
C203 C 0.79322 0.91813 0.83482 0.0
C204 C 0.78725 0.94215 0.81 0.0
C205 C 0.81387 0.97735 0.80482 0.0
C206 C 0.84726 0.98966 0.82446 0.0
C207 C 0.85366 0.96538 0.84819 0.0
C208 C 0.82687 0.93003 0.8535 0.0
C209 C 0.72818 0.80417 0.73278 0.0
C210 C 0.75845 0.76823 0.80181 0.0
C211 C 0.62797 0.68542 0.76628 0.0
C212 C 0.58997 0.67017 0.75531 0.0
C213 C 0.56879 0.68131 0.77758 0.0
C214 C 0.53182 0.66181 0.77432 0.0
C215 C 0.51513 0.63072 0.74864 0.0
C216 C 0.53659 0.62114 0.72397 0.0
C217 C 0.57359 0.64057 0.72747 0.0
C218 C 0.70147 0.75238 0.8757 0.0
C219 C 0.648 0.79567 0.81638 0.0
O220 O 0.73604 0.87059 0.81826 0.0
O221 O 0.76918 0.85731 0.85907 0.0
O222 O 0.75555 0.82755 0.75398 0.0
O223 O 0.70197 0.79243 0.75831 0.0
O224 O 0.76135 0.79454 0.82687 0.0
O225 O 0.72926 0.74773 0.77863 0.0
O226 O 0.63576 0.69351 0.80764 0.0
O227 O 0.65156 0.70959 0.74027 0.0
O228 O 0.69407 0.72539 0.85093 0.0
O229 O 0.6941 0.77358 0.85535 0.0
O230 O 0.64157 0.7656 0.79755 0.0
O231 O 0.6796 0.81808 0.83179 0.0
H232 H 0.76147 0.93417 0.7958 0.0
H233 H 0.80766 0.99527 0.78701 0.0
H234 H 0.87921 0.97383 0.86334 0.0
H235 H 0.83222 0.91235 0.87323 0.0
H236 H 0.58066 0.70391 0.79958 0.0
H237 H 0.51639 0.66999 0.79408 0.0
H238 H 0.5248 0.59787 0.70305 0.0
H239 H 0.58933 0.63142 0.71004 0.0
C240 C 0.3236 0.96062 0.95682 0.0
C241 C 0.29752 0.95615 0.92595 0.0
C242 C 0.32626 0.97744 0.9972 0.0
C243 C 0.30277 0.99004 1.00761 0.0
C244 C 0.27561 0.98381 0.97759 0.0
C245 C 0.27316 0.96733 0.93717 0.0
C246 C 0.30542 1.00958 1.04924 0.0
C247 C 0.33586 0.02865 0.07211 0.0
C248 C 0.33919 0.04981 0.11258 0.0
C249 C 0.37311 0.07602 0.12646 0.0
C250 C 0.37764 0.0959 0.1647 0.0
C251 C 0.34839 0.08979 0.1903 0.0
H252 H 0.28327 1.02374 0.12963 0.0
C253 C 0.31441 0.06407 0.17624 0.0
C254 C 0.30981 0.04409 0.13812 0.0
H255 H 0.29131 0.05864 0.19543 0.0
H256 H 0.34272 0.95221 0.94922 0.0
H257 H 0.34682 0.98059 1.01996 0.0
H258 H 0.25682 0.99274 0.98481 0.0
H259 H 0.25278 0.96429 0.91411 0.0
H260 H 0.28176 1.0101 0.05939 0.0
H261 H 0.36006 0.03038 0.05963 0.0
H262 H 0.39628 0.08123 0.10759 0.0
H263 H 0.40402 0.11618 0.17407 0.0
C264 C 0.76378 0.79711 0.6731 0.0
C265 C 0.73042 0.78854 0.69023 0.0
C266 C 0.76677 0.782 0.63374 0.0
C267 C 0.73631 0.75798 0.61016 0.0
C268 C 0.70297 0.74999 0.62704 0.0
C269 C 0.70003 0.765 0.66659 0.0
C270 C 0.73783 0.74167 0.5673 0.0
C271 C 0.76652 0.74064 0.55136 0.0
C272 C 0.76685 0.72402 0.50812 0.0
C273 C 0.79939 0.7329 0.48776 0.0
C274 C 0.80036 0.71895 0.44627 0.0
C275 C 0.76873 0.69586 0.42436 0.0
H276 H 0.70979 0.69011 0.5016 0.0
C277 C 0.73643 0.68581 0.44557 0.0
C278 C 0.73544 0.6993 0.48684 0.0
H279 H 0.71152 0.66766 0.42985 0.0
H280 H 0.7878 0.8154 0.69039 0.0
H281 H 0.79302 0.78977 0.62184 0.0
H282 H 0.67895 0.73194 0.60954 0.0
H283 H 0.67402 0.75845 0.6784 0.0
H284 H 0.7136 0.72997 0.54812 0.0
H285 H 0.79103 0.75278 0.57001 0.0
H286 H 0.82414 0.75143 0.50348 0.0
H287 H 0.82564 0.72726 0.43073 0.0
C288 C 0.98139 0.2937 0.16539 0.0
C289 C 0.98277 0.26629 0.18844 0.0
C290 C 1.00134 0.30767 0.12693 0.0
C291 C 1.02295 0.29428 0.1107 0.0
C292 C 1.0238 0.26661 0.13369 0.0
C293 C 1.00417 0.25294 0.17204 0.0
C294 C 0.04321 0.30663 0.06874 0.0
C295 C 0.05422 0.33896 0.05098 0.0
C296 C 0.07148 0.35009 1.007 0.0
C297 C 0.06864 0.37692 0.9846 0.0
C298 C 0.08081 0.3859 0.9416 0.0
C299 C 0.09699 0.36895 0.92006 0.0
H300 H 0.0932 0.31427 1.00281 0.0
C301 C 0.10219 0.3438 0.94315 0.0
C302 C 0.08946 0.33433 0.98629 0.0
H303 H 0.11417 0.33003 0.92713 0.0
H304 H 0.96441 0.30383 0.17652 0.0
H305 H 0.99893 0.32816 0.10947 0.0
H306 H 1.03981 0.25547 0.12196 0.0
H307 H 1.00587 0.23177 0.18894 0.0
H308 H 0.04893 0.28793 0.05192 0.0
H309 H 0.04855 0.35761 0.06808 0.0
H310 H 0.05538 0.38988 0.99962 0.0
H311 H 0.07628 0.40529 0.92448 0.0
C312 C 0.38666 0.05531 0.44113 0.0
C313 C 0.37882 0.07962 0.42029 0.0
C314 C 0.37427 0.04272 0.4832 0.0
C315 C 0.35279 0.05343 0.50559 0.0
C316 C 0.34648 0.07929 0.48564 0.0
C317 C 0.3595 0.09241 0.44341 0.0
C318 C 0.33634 0.038 0.54918 0.0
C319 C 0.33364 1.00765 0.56584 0.0
C320 C 0.31618 0.99083 0.60827 0.0
C321 C 0.32391 0.96587 0.62779 0.0
C322 C 0.30697 0.94806 0.66641 0.0
C323 C 0.28165 0.9546 0.68623 0.0
H324 H 0.28315 1.01549 0.61399 0.0
C325 C 0.27365 0.97933 0.66671 0.0
C326 C 0.29072 0.9973 0.62829 0.0
H327 H 0.25411 0.98486 0.68121 0.0
H328 H 0.40206 0.04537 0.42448 0.0
H329 H 0.38159 1.02436 0.49745 0.0
H330 H 0.33057 0.08864 0.50222 0.0
H331 H 0.35322 0.11128 0.42832 0.0
H332 H 0.32543 0.05187 0.56746 0.0
H333 H 0.34442 0.99365 0.5477 0.0
H334 H 0.34308 0.95995 0.61295 0.0
H335 H 0.31323 0.92875 0.68032 0.0
C336 C 0.70839 0.72285 0.94175 0.0
C337 C 0.71365 0.75437 0.92179 0.0
C338 C 0.72198 0.72312 0.9834 0.0
C339 C 0.74218 0.75521 1.00635 0.0
C340 C 0.74641 0.78677 0.98703 0.0
C341 C 0.73222 0.78639 0.94515 0.0
C342 C 0.75848 0.75638 1.05044 0.0
C343 C 0.76354 0.7298 0.06603 0.0
C344 C 0.77858 0.72909 0.11013 0.0
C345 C 0.7724 0.69614 0.1268 0.0
C346 C 0.78641 0.69381 0.1674 0.0
C347 C 0.80728 0.72444 0.1923 0.0
H348 H 0.80601 0.78588 0.12313 0.0
C349 C 0.81412 0.75753 0.17548 0.0
C350 C 0.7998 0.75988 0.135 0.0
H351 H 0.83036 0.78169 0.19385 0.0
H352 H 0.6937 0.69758 0.92495 0.0
H353 H 0.71623 0.69783 0.99719 0.0
H354 H 0.76131 0.8119 1.00402 0.0
H355 H 0.73667 0.81109 0.93064 0.0
H356 H 0.76657 0.77998 0.07029 0.0
H357 H 0.75597 0.70653 1.04582 0.0
H358 H 0.75654 0.67195 0.10831 0.0
H359 H 0.78131 0.66807 0.17896 0.0
C360 C 0.98635 0.27691 0.44033 0.0
C361 C 0.97075 0.29661 0.42466 0.0
C362 C 1.00382 0.28483 0.48099 0.0
C363 C 1.00585 0.31254 0.50745 0.0
C364 C 0.98902 0.33129 0.49241 0.0
C365 C 0.97157 0.32337 0.45162 0.0
C366 C 1.02703 0.32409 0.54924 0.0
C367 C 1.03681 0.30352 0.57217 0.0
C368 C 0.05884 0.31463 0.61316 0.0
C369 C 0.05826 0.28794 0.63997 0.0
C370 C 0.0792 0.29646 0.67777 0.0
C371 C 0.10153 0.33202 0.69006 0.0
H372 H 0.08365 0.37189 0.60474 0.0
C373 C 0.1027 0.35898 0.66317 0.0
C374 C 0.08151 0.35043 0.62509 0.0
H375 H 0.12041 0.3866 0.67109 0.0
H376 H 0.9865 0.25633 0.42021 0.0
H377 H 1.01696 0.2701 0.49032 0.0
H378 H 0.99009 0.35279 0.51181 0.0
H379 H 0.96005 0.33924 0.44043 0.0
H380 H 1.03412 0.35025 0.56179 0.0
H381 H 1.02723 0.27637 0.5615 0.0
H382 H 0.0414 0.26017 0.63169 0.0
H383 H 0.07761 0.27496 0.69767 0.0
C384 C 0.62843 0.17293 0.24179 0.0
C385 C 0.60406 0.15789 0.27635 0.0
C386 C 0.66491 0.1878 0.24951 0.0
C387 C 0.67783 0.18794 0.29209 0.0
C388 C 0.6534 0.17279 0.32642 0.0
C389 C 0.6171 0.15807 0.31874 0.0
C390 C 0.71608 0.20148 0.30206 0.0
C391 C 0.74314 0.22381 0.27617 0.0
C392 C 0.78103 0.23525 0.28612 0.0
C393 C 0.8079 0.26633 0.2667 0.0
C394 C 0.8437 0.27664 0.27325 0.0
C395 C 0.85344 0.25588 0.29915 0.0
H396 H 0.77131 0.1901 0.32707 0.0
C397 C 0.82658 0.2251 0.31911 0.0
C398 C 0.79091 0.21481 0.31254 0.0
H399 H 0.83299 0.20821 0.33891 0.0
H400 H 0.61931 0.17332 0.20875 0.0
H401 H 0.68264 0.19835 0.22186 0.0
H402 H 0.66239 0.17207 0.35944 0.0
H403 H 0.59916 0.14613 0.34603 0.0
H404 H 0.72201 0.19313 0.33306 0.0
H405 H 0.73771 0.23483 0.24706 0.0
H406 H 0.80117 0.28251 0.24594 0.0
H407 H 0.86366 0.30042 0.25718 0.0
C408 C 0.61914 0.43941 0.25576 0.0
C409 C 0.62692 0.46502 0.28877 0.0
C410 C 0.59723 0.40311 0.26445 0.0
C411 C 0.58249 0.39158 0.30644 0.0
C412 C 0.59042 0.41721 0.33933 0.0
C413 C 0.61244 0.45336 0.33074 0.0
C414 C 0.55674 0.35365 0.31657 0.0
C415 C 0.55376 0.32553 0.29369 0.0
C416 C 0.52576 0.28805 0.30244 0.0
C417 C 0.53085 0.25984 0.28865 0.0
C418 C 0.50389 0.22441 0.29326 0.0
C419 C 0.47099 0.21642 0.31126 0.0
H420 H 0.48751 0.30061 0.3315 0.0
C421 C 0.46622 0.24463 0.32591 0.0
C422 C 0.49312 0.27989 0.3215 0.0
H423 H 0.44122 0.23961 0.33976 0.0
H424 H 0.62994 0.44743 0.2231 0.0
H425 H 0.59117 0.38441 0.23784 0.0
H426 H 0.5792 0.40928 0.37182 0.0
H427 H 0.61734 0.47228 0.3568 0.0
H428 H 0.53991 0.34888 0.34492 0.0
H429 H 0.57263 0.32983 0.26788 0.0
H430 H 0.55557 0.26523 0.27358 0.0
H431 H 0.50845 0.20342 0.28133 0.0
C432 C 0.8981 0.45346 0.28506 0.0
C433 C 0.93503 0.46701 0.28358 0.0
C434 C 0.88381 0.4762 0.29001 0.0
C435 C 0.90613 0.51324 0.29366 0.0
C436 C 0.94296 0.52663 0.29197 0.0
C437 C 0.95719 0.50397 0.28711 0.0
C438 C 0.8929 0.53923 0.29885 0.0
C439 C 0.85873 0.53088 0.30495 0.0
C440 C 0.84721 0.55819 0.31018 0.0
C441 C 0.81196 0.5491 0.30052 0.0
C442 C 0.80065 0.57441 0.30368 0.0
C443 C 0.82436 0.60946 0.31685 0.0
H444 H 0.89729 0.60085 0.3349 0.0
C445 C 0.85919 0.61811 0.32821 0.0
C446 C 0.8704 0.59289 0.32518 0.0
H447 H 0.87815 0.64465 0.33912 0.0
H448 H 0.8801 0.42522 0.28179 0.0
H449 H 0.85533 0.46441 0.29055 0.0
H450 H 0.96102 0.55493 0.29473 0.0
H451 H 0.98571 0.51551 0.28685 0.0
H452 H 0.9129 0.56707 0.29714 0.0
H453 H 0.83808 0.50329 0.30506 0.0
H454 H 0.79324 0.52249 0.28952 0.0
H455 H 0.77362 0.56671 0.29474 0.0
C456 C 0.16321 0.60477 0.78977 0.0
C457 C 0.17093 0.58839 0.7549 0.0
C458 C 0.18168 0.64168 0.79502 0.0
C459 C 0.20882 0.66345 0.76573 0.0
C460 C 0.21663 0.64709 0.73093 0.0
C461 C 0.19811 0.61003 0.72569 0.0
C462 C 0.22788 0.70316 0.76889 0.0
C463 C 0.22938 0.72111 0.80588 0.0
C464 C 0.24411 0.76039 0.80824 0.0
C465 C 0.23102 0.77387 0.8407 0.0
C466 C 0.24197 0.8101 0.84278 0.0
C467 C 0.26689 0.83405 0.81291 0.0
H468 H 0.28164 0.77531 0.75459 0.0
C469 C 0.28151 0.82098 0.78177 0.0
C470 C 0.27012 0.78447 0.77927 0.0
H471 H 0.30084 0.83877 0.75834 0.0
H472 H 0.14279 0.58902 0.81329 0.0
H473 H 0.17379 0.65284 0.82154 0.0
H474 H 0.23706 0.66305 0.70751 0.0
H475 H 0.2046 0.59843 0.69823 0.0
H476 H 0.24018 0.71787 0.73917 0.0
H477 H 0.2174 0.70642 0.83568 0.0
H478 H 0.21129 0.75611 0.86379 0.0
H479 H 0.23032 0.81923 0.86739 0.0
C480 C 0.50154 0.91925 0.78646 0.0
C481 C 0.46462 0.90095 0.78003 0.0
C482 C 0.52052 0.90082 0.78912 0.0
C483 C 0.50305 0.86348 0.78545 0.0
C484 C 0.46633 0.84532 0.77791 0.0
C485 C 0.44732 0.86373 0.77554 0.0
C486 C 0.52239 0.84284 0.78808 0.0
C487 C 0.55277 0.85414 0.81106 0.0
C488 C 0.57392 0.83532 0.81424 0.0
C489 C 0.60301 0.84934 0.84312 0.0
C490 C 0.62584 0.83526 0.84511 0.0
C491 C 0.62034 0.80652 0.8183 0.0
H492 H 0.54559 0.79385 0.76551 0.0
C493 C 0.59039 0.79124 0.79065 0.0
C494 C 0.56747 0.80556 0.78845 0.0
H495 H 0.58548 0.76921 0.76937 0.0
H496 H 0.51576 0.94787 0.79013 0.0
H497 H 0.54893 0.91604 0.7935 0.0
H498 H 0.45216 0.81668 0.77431 0.0
H499 H 0.41902 0.84877 0.76981 0.0
H500 H 0.51027 0.81714 0.77199 0.0
H501 H 0.5629 0.87878 0.82943 0.0
H502 H 0.60875 0.87204 0.86362 0.0
H503 H 0.64846 0.84766 0.86703 0.0
C504 C 0.25817 0.45612 0.81619 0.0
C505 C 0.22953 0.46019 0.80164 0.0
C506 C 0.29308 0.48277 0.80941 0.0
C507 C 0.30055 0.5143 0.78746 0.0
C508 C 0.27205 0.51934 0.7751 0.0
C509 C 0.23689 0.49254 0.78198 0.0
C510 C 0.33774 0.54222 0.7776 0.0
C511 C 0.36386 0.53427 0.77081 0.0
C512 C 0.40202 0.56033 0.76252 0.0
C513 C 0.42545 0.54693 0.7573 0.0
C514 C 0.46173 0.56966 0.75171 0.0
C515 C 0.47589 0.60672 0.7509 0.0
H516 H 0.39916 0.60917 0.7646 0.0
C517 C 0.45242 0.62028 0.75515 0.0
C518 C 0.41595 0.59743 0.76093 0.0
H519 H 0.46225 0.64864 0.75426 0.0
H520 H 0.25375 0.43193 0.83224 0.0
H521 H 0.31414 0.47841 0.82144 0.0
H522 H 0.27694 0.54365 0.75893 0.0
H523 H 0.21563 0.49685 0.77086 0.0
H524 H 0.34302 0.56937 0.77468 0.0
H525 H 0.35699 0.5065 0.77126 0.0
H526 H 0.41578 0.51858 0.75845 0.0
H527 H 0.4788 0.55805 0.74951 0.0
C528 C 0.19866 0.19862 0.35168 0.0
C529 C 0.21942 0.196 0.31813 0.0
C530 C 0.17704 0.21352 0.34348 0.0
C531 C 0.1756 0.22627 0.30142 0.0
C532 C 0.19531 0.22253 0.26749 0.0
C533 C 0.2172 0.20782 0.27577 0.0
C534 C 0.15241 0.24186 0.29183 0.0
C535 C 0.14472 0.25956 0.32238 0.0
C536 C 0.11706 0.27008 0.31683 0.0
C537 C 0.09969 0.27201 0.35461 0.0
C538 C 0.07051 0.27721 0.35124 0.0
C539 C 0.05868 0.28164 0.31008 0.0
H540 H 0.11975 0.27612 0.24583 0.0
C541 C 0.07743 0.2824 0.2723 0.0
C542 C 0.10639 0.27647 0.27558 0.0
H543 H 0.06842 0.28542 0.24018 0.0
H544 H 0.19895 0.18896 0.3844 0.0
H545 H 0.16103 0.21443 0.37006 0.0
H546 H 0.1943 0.23163 0.23465 0.0
H547 H 0.23301 0.20654 0.24917 0.0
H548 H 0.14085 0.23772 0.25923 0.0
H549 H 0.15704 0.26392 0.35459 0.0
H550 H 0.10748 0.26753 0.38679 0.0
H551 H 0.05625 0.27632 0.38077 0.0
C552 C 0.06334 0.86523 0.28663 0.0
C553 C 0.04409 0.86222 0.32508 0.0
C554 C 0.10009 0.88783 0.28521 0.0
C555 C 0.11843 0.90805 0.32226 0.0
C556 C 0.09906 0.90567 0.36017 0.0
C557 C 0.06249 0.88295 0.36171 0.0
C558 C 0.15738 0.9327 0.32292 0.0
C559 C 0.18096 0.93103 0.29552 0.0
C560 C 0.21972 0.95656 0.2987 0.0
C561 C 0.24091 0.96603 0.26082 0.0
C562 C 0.27642 0.99322 0.26241 0.0
C563 C 0.29106 1.0113 0.30194 0.0
H564 H 0.221 0.96459 0.36932 0.0
C565 C 0.27078 0.99969 0.34038 0.0
C566 C 0.2357 0.97243 0.33893 0.0
H567 H 0.28168 1.01274 0.37151 0.0
H568 H 0.05 0.85019 0.25748 0.0
H569 H 0.11377 0.88965 0.2549 0.0
H570 H 0.1124 0.92104 0.38917 0.0
H571 H 0.04884 0.88101 0.39213 0.0
H572 H 0.16698 0.95315 0.3481 0.0
H573 H 0.1719 0.91144 0.26938 0.0
H574 H 0.22951 0.95367 0.22956 0.0
H575 H 0.29157 1.00154 0.23235 0.0
C576 C 0.82633 0.99714 0.31964 0.0
C577 C 0.85882 1.02151 0.30057 0.0
C578 C 0.81136 0.96068 0.31187 0.0
C579 C 0.82871 0.94753 0.28508 0.0
C580 C 0.86052 0.97199 0.26472 0.0
C581 C 0.87546 1.00855 0.27239 0.0
C582 C 0.81496 0.90868 0.2785 0.0
C583 C 0.79403 0.88388 0.30787 0.0
C584 C 0.7857 0.84617 0.30587 0.0
C585 C 0.78268 0.82843 0.34554 0.0
C586 C 0.77922 0.79461 0.34567 0.0
C587 C 0.7776 0.77728 0.30609 0.0
H588 H 0.78334 0.84065 0.2349 0.0
C589 C 0.77768 0.79363 0.26623 0.0
C590 C 0.78205 0.82805 0.26606 0.0
H591 H 0.77658 0.7808 0.23531 0.0
H592 H 0.81226 1.00629 0.34047 0.0
H593 H 0.78614 0.94303 0.32684 0.0
H594 H 0.87437 0.96274 0.24364 0.0
H595 H 0.90047 0.02657 0.25712 0.0
H596 H 0.82531 0.90072 0.25094 0.0
H597 H 0.78635 0.89211 0.3376 0.0
H598 H 0.78498 0.84155 0.37666 0.0
H599 H 0.77927 0.78254 0.37684 0.0
C600 C 0.24268 0.21199 0.82841 0.0
C601 C 0.20813 0.20518 0.81863 0.0
C602 C 0.25272 0.18626 0.82051 0.0
C603 C 0.22837 0.15302 0.80254 0.0
C604 C 0.19392 0.14635 0.79277 0.0
C605 C 0.18395 0.17207 0.80051 0.0
C606 C 0.23677 0.12385 0.79529 0.0
C607 C 0.2697 0.12778 0.79404 0.0
C608 C 0.27602 0.09703 0.78831 0.0
C609 C 0.30698 0.09871 0.80563 0.0
C610 C 0.31158 0.06873 0.80488 0.0
C611 C 0.28519 0.0367 0.78679 0.0
H612 H 0.22796 0.06361 0.75107 0.0
C613 C 0.25557 0.03578 0.76678 0.0
C614 C 0.25122 0.06564 0.76697 0.0
H615 H 0.23508 1.01144 0.75207 0.0
H616 H 0.26211 0.23735 0.84202 0.0
H617 H 0.2793 0.19244 0.82937 0.0
H618 H 0.17444 0.12096 0.77922 0.0
H619 H 0.15704 0.16573 0.79304 0.0
H620 H 0.21409 0.09749 0.79128 0.0
H621 H 0.29268 0.15374 0.79911 0.0
H622 H 0.32687 0.12272 0.82158 0.0
H623 H 0.33457 0.06998 0.8207 0.0
C624 C 1.00966 0.8469 0.82963 0.0
C625 C 1.03258 0.8479 0.79649 0.0
C626 C 0.97336 0.83166 0.82177 0.0
C627 C 0.95899 0.81711 0.78044 0.0
C628 C 0.98194 0.81956 0.74663 0.0
C629 C 1.01836 0.83451 0.75463 0.0
C630 C 0.92033 0.80075 0.7719 0.0
C631 C 0.89633 0.78221 0.80311 0.0
C632 C 0.85824 0.7719 0.80052 0.0
C633 C 0.84042 0.76831 0.84014 0.0
C634 C 0.80657 0.76436 0.84018 0.0
C635 C 0.78937 0.76292 0.80057 0.0
H636 H 0.85255 0.76954 0.72943 0.0
C637 C 0.80563 0.76324 0.76072 0.0
C638 C 0.84004 0.76796 0.76062 0.0
H639 H 0.79278 0.76223 0.7298 0.0
H640 H 1.01974 0.85789 0.86185 0.0
H641 H 0.95665 0.83169 0.84806 0.0
H642 H 0.97158 0.80909 0.7143 0.0
H643 H 1.03515 0.83463 0.72837 0.0
H644 H 0.91195 0.80534 0.74011 0.0
H645 H 0.90567 0.7775 0.83422 0.0
H646 H 0.85356 0.77083 0.87134 0.0
H647 H 0.79446 0.76417 0.87132 0.0
C648 C 1.01751 0.25456 0.84045 0.0
C649 C 1.02741 0.27551 0.80239 0.0
C650 C 0.99007 0.21949 0.8393 0.0
C651 C 0.97231 0.20418 0.79969 0.0
C652 C 0.98042 0.22596 0.76233 0.0
C653 C 1.00778 0.26144 0.76365 0.0
C654 C 0.94594 0.16558 0.79645 0.0
C655 C 0.94737 0.1411 0.82269 0.0
C656 C 0.9218 0.1023 0.82135 0.0
C657 C 0.91858 0.08201 0.85882 0.0
C658 C 0.89498 0.04549 0.85953 0.0
C659 C 0.8742 0.02815 0.82249 0.0
H660 H 0.90408 0.09939 0.75389 0.0
C661 C 0.87808 0.04832 0.78449 0.0
C662 C 0.90157 0.08498 0.78389 0.0
H663 H 0.86303 0.03575 0.75505 0.0
H664 H 1.03179 0.26502 0.87102 0.0
H665 H 0.98341 0.20437 0.86945 0.0
H666 H 0.96667 0.21508 0.73159 0.0
H667 H 1.01488 0.27709 0.73386 0.0
H668 H 0.92575 0.15731 0.77112 0.0
H669 H 0.96818 0.14971 0.84727 0.0
H670 H 0.93398 0.09458 0.88808 0.0
H671 H 0.89238 0.03108 0.88961 0.0
loop_
_geom_bond_atom_site_label_1
_geom_bond_atom_site_label_2
_geom_bond_distance
_geom_bond_site_symmetry_2
_ccdc_geom_bond_type
La0 C2 2.928 . S
La0 O20 2.521 . S
La0 O21 2.628 . S
La0 O22 2.554 . S
La0 O23 2.757 . S
La0 O24 2.470 . S
La0 O29 2.482 . S
La0 O31 2.503 . S
La1 C11 2.928 . S
La1 O23 2.482 . S
La1 O25 2.503 . S
La1 O26 2.521 . S
La1 O27 2.628 . S
La1 O28 2.554 . S
La1 O29 2.757 . S
La1 O30 2.470 . S
C2 La0 2.928 . S
C2 C3 1.503 . S
C2 O20 1.261 . S
C2 O21 1.243 . S
C3 C2 1.503 . S
C3 C4 1.394 . S
C3 C8 1.373 . S
C4 C3 1.394 . S
C4 C5 1.380 . S
C4 H32 0.930 . S
C5 C4 1.380 . S
C5 C6 1.376 . S
C5 H33 0.930 . S
C6 C5 1.376 . S
C6 C7 1.370 . S
C7 C6 1.370 . S
C7 C8 1.396 . S
C7 H34 0.929 . S
C8 C3 1.373 . S
C8 C7 1.396 . S
C8 H35 0.929 . S
C9 O22 1.240 . S
C9 O23 1.289 . S
C10 O24 1.258 . S
C10 O25 1.256 . S
C11 La1 2.928 . S
C11 C12 1.503 . S
C11 O26 1.261 . S
C11 O27 1.243 . S
C12 C11 1.503 . S
C12 C13 1.394 . S
C12 C17 1.373 . S
C13 C12 1.394 . S
C13 C14 1.380 . S
C13 H36 0.930 . S
C14 C13 1.380 . S
C14 C15 1.376 . S
C14 H37 0.930 . S
C15 C14 1.376 . S
C15 C16 1.370 . S
C16 C15 1.370 . S
C16 C17 1.396 . S
C16 H38 0.929 . S
C17 C12 1.373 . S
C17 C16 1.396 . S
C17 H39 0.929 . S
C18 O28 1.240 . S
C18 O29 1.289 . S
C19 O30 1.258 . S
C19 O31 1.256 . S
O20 La0 2.521 . S
O20 C2 1.261 . S
O21 La0 2.628 . S
O21 C2 1.243 . S
O22 La0 2.554 . S
O22 C9 1.240 . S
O23 La0 2.757 . S
O23 La1 2.482 . S
O23 C9 1.289 . S
O24 La0 2.470 . S
O24 C10 1.258 . S
O25 La1 2.503 . S
O25 C10 1.256 . S
O26 La1 2.521 . S
O26 C11 1.261 . S
O27 La1 2.628 . S
O27 C11 1.243 . S
O28 La1 2.554 . S
O28 C18 1.240 . S
O29 La0 2.482 . S
O29 La1 2.757 . S
O29 C18 1.289 . S
O30 La1 2.470 . S
O30 C19 1.258 . S
O31 La0 2.503 . S
O31 C19 1.256 . S
H32 C4 0.930 . S
H33 C5 0.930 . S
H34 C7 0.929 . S
H35 C8 0.929 . S
H36 C13 0.930 . S
H37 C14 0.930 . S
H38 C16 0.929 . S
H39 C17 0.929 . S
La40 C42 2.928 . S
La40 O60 2.521 . S
La40 O61 2.628 . S
La40 O62 2.554 . S
La40 O63 2.757 . S
La40 O64 2.470 . S
La40 O69 2.482 . S
La40 O71 2.503 . S
La41 C51 2.928 . S
La41 O63 2.482 . S
La41 O65 2.503 . S
La41 O66 2.521 . S
La41 O67 2.628 . S
La41 O68 2.554 . S
La41 O69 2.757 . S
La41 O70 2.470 . S
C42 La40 2.928 . S
C42 C43 1.503 . S
C42 O60 1.261 . S
C42 O61 1.243 . S
C43 C42 1.503 . S
C43 C44 1.394 . S
C43 C48 1.373 . S
C44 C43 1.394 . S
C44 C45 1.380 . S
C44 H72 0.930 . S
C45 C44 1.380 . S
C45 C46 1.376 . S
C45 H73 0.930 . S
C46 C45 1.376 . S
C46 C47 1.370 . S
C47 C46 1.370 . S
C47 C48 1.396 . S
C47 H74 0.929 . S
C48 C43 1.373 . S
C48 C47 1.396 . S
C48 H75 0.929 . S
C49 O62 1.240 . S
C49 O63 1.289 . S
C50 O64 1.258 . S
C50 O65 1.256 . S
C51 La41 2.928 . S
C51 C52 1.503 . S
C51 O66 1.261 . S
C51 O67 1.243 . S
C52 C51 1.503 . S
C52 C53 1.394 . S
C52 C57 1.373 . S
C53 C52 1.394 . S
C53 C54 1.380 . S
C53 H76 0.930 . S
C54 C53 1.380 . S
C54 C55 1.376 . S
C54 H77 0.930 . S
C55 C54 1.376 . S
C55 C56 1.370 . S
C56 C55 1.370 . S
C56 C57 1.396 . S
C56 H78 0.929 . S
C57 C52 1.373 . S
C57 C56 1.396 . S
C57 H79 0.929 . S
C58 O68 1.240 . S
C58 O69 1.289 . S
C59 O70 1.258 . S
C59 O71 1.256 . S
O60 La40 2.521 . S
O60 C42 1.261 . S
O61 La40 2.628 . S
O61 C42 1.243 . S
O62 La40 2.554 . S
O62 C49 1.240 . S
O63 La40 2.757 . S
O63 La41 2.482 . S
O63 C49 1.289 . S
O64 La40 2.470 . S
O64 C50 1.258 . S
O65 La41 2.503 . S
O65 C50 1.256 . S
O66 La41 2.521 . S
O66 C51 1.261 . S
O67 La41 2.628 . S
O67 C51 1.243 . S
O68 La41 2.554 . S
O68 C58 1.240 . S
O69 La40 2.482 . S
O69 La41 2.757 . S
O69 C58 1.289 . S
O70 La41 2.470 . S
O70 C59 1.258 . S
O71 La40 2.503 . S
O71 C59 1.256 . S
H72 C44 0.930 . S
H73 C45 0.930 . S
H74 C47 0.929 . S
H75 C48 0.929 . S
H76 C53 0.930 . S
H77 C54 0.930 . S
H78 C56 0.929 . S
H79 C57 0.929 . S
La80 C82 2.928 . S
La80 O100 2.521 . S
La80 O101 2.628 . S
La80 O102 2.554 . S
La80 O103 2.757 . S
La80 O104 2.470 . S
La80 O109 2.482 . S
La80 O111 2.503 . S
La81 C91 2.928 . S
La81 O103 2.482 . S
La81 O105 2.503 . S
La81 O106 2.521 . S
La81 O107 2.628 . S
La81 O108 2.554 . S
La81 O109 2.757 . S
La81 O110 2.470 . S
C82 La80 2.928 . S
C82 C83 1.503 . S
C82 O100 1.261 . S
C82 O101 1.243 . S
C83 C82 1.503 . S
C83 C84 1.394 . S
C83 C88 1.373 . S
C84 C83 1.394 . S
C84 C85 1.380 . S
C84 H112 0.930 . S
C85 C84 1.380 . S
C85 C86 1.376 . S
C85 H113 0.930 . S
C86 C85 1.376 . S
C86 C87 1.370 . S
C87 C86 1.370 . S
C87 C88 1.396 . S
C87 H114 0.929 . S
C88 C83 1.373 . S
C88 C87 1.396 . S
C88 H115 0.929 . S
C89 O102 1.240 . S
C89 O103 1.289 . S
C90 O104 1.258 . S
C90 O105 1.256 . S
C91 La81 2.928 . S
C91 C92 1.503 . S
C91 O106 1.261 . S
C91 O107 1.243 . S
C92 C91 1.503 . S
C92 C93 1.394 . S
C92 C97 1.373 . S
C93 C92 1.394 . S
C93 C94 1.380 . S
C93 H116 0.930 . S
C94 C93 1.380 . S
C94 C95 1.376 . S
C94 H117 0.930 . S
C95 C94 1.376 . S
C95 C96 1.370 . S
C96 C95 1.370 . S
C96 C97 1.396 . S
C96 H118 0.929 . S
C97 C92 1.373 . S
C97 C96 1.396 . S
C97 H119 0.929 . S
C98 O108 1.240 . S
C98 O109 1.289 . S
C99 O110 1.258 . S
C99 O111 1.256 . S
O100 La80 2.521 . S
O100 C82 1.261 . S
O101 La80 2.628 . S
O101 C82 1.243 . S
O102 La80 2.554 . S
O102 C89 1.240 . S
O103 La80 2.757 . S
O103 La81 2.482 . S
O103 C89 1.289 . S
O104 La80 2.470 . S
O104 C90 1.258 . S
O105 La81 2.503 . S
O105 C90 1.256 . S
O106 La81 2.521 . S
O106 C91 1.261 . S
O107 La81 2.628 . S
O107 C91 1.243 . S
O108 La81 2.554 . S
O108 C98 1.240 . S
O109 La80 2.482 . S
O109 La81 2.757 . S
O109 C98 1.289 . S
O110 La81 2.470 . S
O110 C99 1.258 . S
O111 La80 2.503 . S
O111 C99 1.256 . S
H112 C84 0.930 . S
H113 C85 0.930 . S
H114 C87 0.929 . S
H115 C88 0.929 . S
H116 C93 0.930 . S
H117 C94 0.930 . S
H118 C96 0.929 . S
H119 C97 0.929 . S
La120 C122 2.928 . S
La120 O140 2.521 . S
La120 O141 2.628 . S
La120 O142 2.554 . S
La120 O143 2.757 . S
La120 O144 2.470 . S
La120 O149 2.482 . S
La120 O151 2.503 . S
La121 C131 2.928 . S
La121 O143 2.482 . S
La121 O145 2.503 . S
La121 O146 2.521 . S
La121 O147 2.628 . S
La121 O148 2.554 . S
La121 O149 2.757 . S
La121 O150 2.470 . S
C122 La120 2.928 . S
C122 C123 1.503 . S
C122 O140 1.261 . S
C122 O141 1.243 . S
C123 C122 1.503 . S
C123 C124 1.394 . S
C123 C128 1.373 . S
C124 C123 1.394 . S
C124 C125 1.380 . S
C124 H152 0.930 . S
C125 C124 1.380 . S
C125 C126 1.376 . S
C125 H153 0.930 . S
C126 C125 1.376 . S
C126 C127 1.370 . S
C127 C126 1.370 . S
C127 C128 1.396 . S
C127 H154 0.929 . S
C128 C123 1.373 . S
C128 C127 1.396 . S
C128 H155 0.929 . S
C129 O142 1.240 . S
C129 O143 1.289 . S
C130 O144 1.258 . S
C130 O145 1.256 . S
C131 La121 2.928 . S
C131 C132 1.503 . S
C131 O146 1.261 . S
C131 O147 1.243 . S
C132 C131 1.503 . S
C132 C133 1.394 . S
C132 C137 1.373 . S
C133 C132 1.394 . S
C133 C134 1.380 . S
C133 H156 0.930 . S
C134 C133 1.380 . S
C134 C135 1.376 . S
C134 H157 0.930 . S
C135 C134 1.376 . S
C135 C136 1.370 . S
C136 C135 1.370 . S
C136 C137 1.396 . S
C136 H158 0.929 . S
C137 C132 1.373 . S
C137 C136 1.396 . S
C137 H159 0.929 . S
C138 O148 1.240 . S
C138 O149 1.289 . S
C139 O150 1.258 . S
C139 O151 1.256 . S
O140 La120 2.521 . S
O140 C122 1.261 . S
O141 La120 2.628 . S
O141 C122 1.243 . S
O142 La120 2.554 . S
O142 C129 1.240 . S
O143 La120 2.757 . S
O143 La121 2.482 . S
O143 C129 1.289 . S
O144 La120 2.470 . S
O144 C130 1.258 . S
O145 La121 2.503 . S
O145 C130 1.256 . S
O146 La121 2.521 . S
O146 C131 1.261 . S
O147 La121 2.628 . S
O147 C131 1.243 . S
O148 La121 2.554 . S
O148 C138 1.240 . S
O149 La120 2.482 . S
O149 La121 2.757 . S
O149 C138 1.289 . S
O150 La121 2.470 . S
O150 C139 1.258 . S
O151 La120 2.503 . S
O151 C139 1.256 . S
H152 C124 0.930 . S
H153 C125 0.930 . S
H154 C127 0.929 . S
H155 C128 0.929 . S
H156 C133 0.930 . S
H157 C134 0.930 . S
H158 C136 0.929 . S
H159 C137 0.929 . S
La160 C162 2.928 . S
La160 O180 2.521 . S
La160 O181 2.628 . S
La160 O182 2.554 . S
La160 O183 2.757 . S
La160 O184 2.470 . S
La160 O189 2.482 . S
La160 O191 2.503 . S
La161 C171 2.928 . S
La161 O183 2.482 . S
La161 O185 2.503 . S
La161 O186 2.521 . S
La161 O187 2.628 . S
La161 O188 2.554 . S
La161 O189 2.757 . S
La161 O190 2.470 . S
C162 La160 2.928 . S
C162 C163 1.503 . S
C162 O180 1.261 . S
C162 O181 1.243 . S
C163 C162 1.503 . S
C163 C164 1.394 . S
C163 C168 1.373 . S
C164 C163 1.394 . S
C164 C165 1.380 . S
C164 H192 0.930 . S
C165 C164 1.380 . S
C165 C166 1.376 . S
C165 H193 0.930 . S
C166 C165 1.376 . S
C166 C167 1.370 . S
C167 C166 1.370 . S
C167 C168 1.396 . S
C167 H194 0.929 . S
C168 C163 1.373 . S
C168 C167 1.396 . S
C168 H195 0.929 . S
C169 O182 1.240 . S
C169 O183 1.289 . S
C170 O184 1.258 . S
C170 O185 1.256 . S
C171 La161 2.928 . S
C171 C172 1.503 . S
C171 O186 1.261 . S
C171 O187 1.243 . S
C172 C171 1.503 . S
C172 C173 1.394 . S
C172 C177 1.373 . S
C173 C172 1.394 . S
C173 C174 1.380 . S
C173 H196 0.930 . S
C174 C173 1.380 . S
C174 C175 1.376 . S
C174 H197 0.930 . S
C175 C174 1.376 . S
C175 C176 1.370 . S
C176 C175 1.370 . S
C176 C177 1.396 . S
C176 H198 0.929 . S
C177 C172 1.373 . S
C177 C176 1.396 . S
C177 H199 0.929 . S
C178 O188 1.240 . S
C178 O189 1.289 . S
C179 O190 1.258 . S
C179 O191 1.256 . S
O180 La160 2.521 . S
O180 C162 1.261 . S
O181 La160 2.628 . S
O181 C162 1.243 . S
O182 La160 2.554 . S
O182 C169 1.240 . S
O183 La160 2.757 . S
O183 La161 2.482 . S
O183 C169 1.289 . S
O184 La160 2.470 . S
O184 C170 1.258 . S
O185 La161 2.503 . S
O185 C170 1.256 . S
O186 La161 2.521 . S
O186 C171 1.261 . S
O187 La161 2.628 . S
O187 C171 1.243 . S
O188 La161 2.554 . S
O188 C178 1.240 . S
O189 La160 2.482 . S
O189 La161 2.757 . S
O189 C178 1.289 . S
O190 La161 2.470 . S
O190 C179 1.258 . S
O191 La160 2.503 . S
O191 C179 1.256 . S
H192 C164 0.930 . S
H193 C165 0.930 . S
H194 C167 0.929 . S
H195 C168 0.929 . S
H196 C173 0.930 . S
H197 C174 0.930 . S
H198 C176 0.929 . S
H199 C177 0.929 . S
La200 C202 2.928 . S
La200 O220 2.521 . S
La200 O221 2.628 . S
La200 O222 2.554 . S
La200 O223 2.757 . S
La200 O224 2.470 . S
La200 O229 2.482 . S
La200 O231 2.503 . S
La201 C211 2.928 . S
La201 O223 2.482 . S
La201 O225 2.503 . S
La201 O226 2.521 . S
La201 O227 2.628 . S
La201 O228 2.554 . S
La201 O229 2.757 . S
La201 O230 2.470 . S
C202 La200 2.928 . S
C202 C203 1.503 . S
C202 O220 1.261 . S
C202 O221 1.243 . S
C203 C202 1.503 . S
C203 C204 1.394 . S
C203 C208 1.373 . S
C204 C203 1.394 . S
C204 C205 1.380 . S
C204 H232 0.930 . S
C205 C204 1.380 . S
C205 C206 1.376 . S
C205 H233 0.930 . S
C206 C205 1.376 . S
C206 C207 1.370 . S
C207 C206 1.370 . S
C207 C208 1.396 . S
C207 H234 0.929 . S
C208 C203 1.373 . S
C208 C207 1.396 . S
C208 H235 0.929 . S
C209 O222 1.240 . S
C209 O223 1.289 . S
C210 O224 1.258 . S
C210 O225 1.256 . S
C211 La201 2.928 . S
C211 C212 1.503 . S
C211 O226 1.261 . S
C211 O227 1.243 . S
C212 C211 1.503 . S
C212 C213 1.394 . S
C212 C217 1.373 . S
C213 C212 1.394 . S
C213 C214 1.380 . S
C213 H236 0.930 . S
C214 C213 1.380 . S
C214 C215 1.376 . S
C214 H237 0.930 . S
C215 C214 1.376 . S
C215 C216 1.370 . S
C216 C215 1.370 . S
C216 C217 1.396 . S
C216 H238 0.929 . S
C217 C212 1.373 . S
C217 C216 1.396 . S
C217 H239 0.929 . S
C218 O228 1.240 . S
C218 O229 1.289 . S
C219 O230 1.258 . S
C219 O231 1.256 . S
O220 La200 2.521 . S
O220 C202 1.261 . S
O221 La200 2.628 . S
O221 C202 1.243 . S
O222 La200 2.554 . S
O222 C209 1.240 . S
O223 La200 2.757 . S
O223 La201 2.482 . S
O223 C209 1.289 . S
O224 La200 2.470 . S
O224 C210 1.258 . S
O225 La201 2.503 . S
O225 C210 1.256 . S
O226 La201 2.521 . S
O226 C211 1.261 . S
O227 La201 2.628 . S
O227 C211 1.243 . S
O228 La201 2.554 . S
O228 C218 1.240 . S
O229 La200 2.482 . S
O229 La201 2.757 . S
O229 C218 1.289 . S
O230 La201 2.470 . S
O230 C219 1.258 . S
O231 La200 2.503 . S
O231 C219 1.256 . S
H232 C204 0.930 . S
H233 C205 0.930 . S
H234 C207 0.929 . S
H235 C208 0.929 . S
H236 C213 0.930 . S
H237 C214 0.930 . S
H238 C216 0.929 . S
H239 C217 0.929 . S
C240 C241 1.386 . S
C240 C242 1.383 . S
C240 H256 0.951 . S
C241 C240 1.386 . S
C241 C245 1.383 . S
C242 C240 1.383 . S
C242 C243 1.402 . S
C242 H257 0.951 . S
C243 C242 1.402 . S
C243 C244 1.375 . S
C243 C246 1.481 1_565 S
C244 C243 1.375 . S
C244 C245 1.367 . S
C244 H258 0.951 1_565 S
C245 C241 1.383 . S
C245 C244 1.367 . S
C245 H259 0.950 . S
C246 C243 1.481 1_545 S
C246 C247 1.297 1_546 S
C246 H260 0.950 . S
C247 C246 1.297 1_564 S
C247 C248 1.481 1_565 S
C247 H261 0.948 . S
C248 C247 1.481 1_545 S
C248 C249 1.375 . S
C248 C254 1.404 . S
C249 C248 1.375 . S
C249 C250 1.369 . S
C249 H262 0.950 1_545 S
C250 C249 1.369 . S
C250 C251 1.392 . S
C250 H263 0.951 . S
C251 C250 1.392 . S
C251 C253 1.384 . S
H252 C254 0.949 . S
C253 C251 1.384 . S
C253 C254 1.385 . S
C253 H255 0.950 . S
C254 C248 1.404 . S
C254 H252 0.949 . S
C254 C253 1.385 . S
H255 C253 0.950 . S
H256 C240 0.951 . S
H257 C242 0.951 . S
H258 C244 0.951 1_545 S
H259 C245 0.950 . S
H260 C246 0.950 . S
H261 C247 0.948 . S
H262 C249 0.950 1_565 S
H263 C250 0.951 . S
C264 C265 1.386 . S
C264 C266 1.383 . S
C264 H280 0.951 . S
C265 C264 1.386 . S
C265 C269 1.383 . S
C266 C264 1.383 . S
C266 C267 1.402 . S
C266 H281 0.951 . S
C267 C266 1.402 . S
C267 C268 1.375 . S
C267 C270 1.481 . S
C268 C267 1.375 . S
C268 C269 1.367 . S
C268 H282 0.951 . S
C269 C265 1.383 . S
C269 C268 1.367 . S
C269 H283 0.950 . S
C270 C267 1.481 . S
C270 C271 1.297 . S
C270 H284 0.950 . S
C271 C270 1.297 . S
C271 C272 1.479 . S
C271 H285 0.950 . S
C272 C271 1.479 . S
C272 C273 1.375 . S
C272 C278 1.404 . S
C273 C272 1.375 . S
C273 C274 1.369 . S
C273 H286 0.950 . S
C274 C273 1.369 . S
C274 C275 1.392 . S
C274 H287 0.951 . S
C275 C274 1.392 . S
C275 C277 1.384 . S
H276 C278 0.949 . S
C277 C275 1.384 . S
C277 C278 1.385 . S
C277 H279 0.950 . S
C278 C272 1.404 . S
C278 H276 0.949 . S
C278 C277 1.385 . S
H279 C277 0.950 . S
H280 C264 0.951 . S
H281 C266 0.951 . S
H282 C268 0.951 . S
H283 C269 0.950 . S
H284 C270 0.950 . S
H285 C271 0.950 . S
H286 C273 0.950 . S
H287 C274 0.951 . S
C288 C289 1.386 . S
C288 C290 1.383 . S
C288 H304 0.951 . S
C289 C288 1.386 . S
C289 C293 1.383 . S
C290 C288 1.383 . S
C290 C291 1.402 . S
C290 H305 0.951 . S
C291 C290 1.402 . S
C291 C292 1.375 . S
C291 C294 1.481 . S
C292 C291 1.375 . S
C292 C293 1.367 . S
C292 H306 0.951 . S
C293 C289 1.383 . S
C293 C292 1.367 . S
C293 H307 0.950 . S
C294 C291 1.481 . S
C294 C295 1.297 1_655 S
C294 H308 0.938 1_554 S
C295 C294 1.297 1_455 S
C295 C296 1.479 1_554 S
C295 H309 0.950 . S
C296 C295 1.479 1_556 S
C296 C297 1.375 . S
C296 C302 1.404 . S
C297 C296 1.375 . S
C297 C298 1.369 . S
C297 H310 0.950 . S
C298 C297 1.369 . S
C298 C299 1.392 . S
C298 H311 0.951 . S
C299 C298 1.392 . S
C299 C301 1.384 . S
H300 C302 0.949 . S
C301 C299 1.384 . S
C301 C302 1.385 . S
C301 H303 0.950 . S
C302 C296 1.404 . S
C302 H300 0.949 . S
C302 C301 1.385 . S
H303 C301 0.950 . S
H304 C288 0.951 . S
H305 C290 0.951 . S
H306 C292 0.951 . S
H307 C293 0.950 . S
H308 C294 0.938 1_556 S
H309 C295 0.950 . S
H310 C297 0.950 . S
H311 C298 0.951 . S
C312 C313 1.386 . S
C312 C314 1.383 . S
C312 H328 0.951 . S
C313 C312 1.386 . S
C313 C317 1.383 . S
C314 C312 1.383 . S
C314 C315 1.402 . S
C314 H329 0.951 . S
C315 C314 1.402 . S
C315 C316 1.375 . S
C315 C318 1.481 . S
C316 C315 1.375 . S
C316 C317 1.367 . S
C316 H330 0.951 . S
C317 C313 1.383 . S
C317 C316 1.367 . S
C317 H331 0.950 . S
C318 C315 1.481 . S
C318 C319 1.297 . S
C318 H332 0.950 . S
C319 C318 1.297 . S
C319 C320 1.479 1_545 S
C319 H333 0.950 . S
C320 C319 1.479 1_565 S
C320 C321 1.375 . S
C320 C326 1.404 . S
C321 C320 1.375 . S
C321 C322 1.369 . S
C321 H334 0.950 . S
C322 C321 1.369 . S
C322 C323 1.392 . S
C322 H335 0.951 . S
C323 C322 1.392 . S
C323 C325 1.384 . S
H324 C326 0.949 . S
C325 C323 1.384 . S
C325 C326 1.385 . S
C325 H327 0.950 . S
C326 C320 1.404 . S
C326 H324 0.949 . S
C326 C325 1.385 . S
H327 C325 0.950 . S
H328 C312 0.951 . S
H329 C314 0.951 . S
H330 C316 0.951 . S
H331 C317 0.950 . S
H332 C318 0.950 . S
H333 C319 0.950 . S
H334 C321 0.950 . S
H335 C322 0.951 . S
C336 C337 1.386 . S
C336 C338 1.383 . S
C336 H352 0.951 . S
C337 C336 1.386 . S
C337 C341 1.383 . S
C338 C336 1.383 . S
C338 C339 1.402 . S
C338 H353 0.951 . S
C339 C338 1.402 . S
C339 C340 1.375 . S
C339 C342 1.481 . S
C340 C339 1.375 . S
C340 C341 1.367 . S
C340 H354 0.951 . S
C341 C337 1.383 . S
C341 C340 1.367 . S
C341 H355 0.950 . S
C342 C339 1.481 . S
C342 C343 1.306 . S
C342 H356 0.950 . S
C343 C342 1.306 . S
C343 C344 1.465 1_556 S
C343 H357 0.957 . S
C344 C343 1.465 1_554 S
C344 C345 1.375 . S
C344 C350 1.404 . S
C345 C344 1.375 . S
C345 C346 1.369 . S
C345 H358 0.950 . S
C346 C345 1.369 . S
C346 C347 1.392 . S
C346 H359 0.951 . S
C347 C346 1.392 . S
C347 C349 1.384 . S
H348 C350 0.949 . S
C349 C347 1.384 . S
C349 C350 1.385 . S
C349 H351 0.950 . S
C350 C344 1.404 . S
C350 H348 0.949 . S
C350 C349 1.385 . S
H351 C349 0.950 . S
H352 C336 0.951 . S
H353 C338 0.951 . S
H354 C340 0.951 . S
H355 C341 0.950 . S
H356 C342 0.950 . S
H357 C343 0.957 . S
H358 C345 0.950 . S
H359 C346 0.951 . S
C360 C361 1.386 . S
C360 C362 1.383 . S
C360 H376 0.951 . S
C361 C360 1.386 . S
C361 C365 1.383 . S
C362 C360 1.383 . S
C362 C363 1.402 . S
C362 H377 0.951 . S
C363 C362 1.402 . S
C363 C364 1.375 . S
C363 C366 1.481 1_655 S
C364 C363 1.375 . S
C364 C365 1.367 . S
C364 H378 0.951 . S
C365 C361 1.383 . S
C365 C364 1.367 . S
C365 H379 0.950 . S
C366 C363 1.481 1_455 S
C366 C367 1.297 . S
C366 H380 0.950 . S
C367 C366 1.297 . S
C367 C368 1.479 . S
C367 H381 0.950 . S
C368 C367 1.479 . S
C368 C369 1.375 . S
C368 C374 1.404 . S
C369 C368 1.375 . S
C369 C370 1.369 . S
C369 H382 0.950 . S
C370 C369 1.369 . S
C370 C371 1.392 . S
C370 H383 0.951 . S
C371 C370 1.392 . S
C371 C373 1.384 . S
H372 C374 0.949 . S
C373 C371 1.384 . S
C373 C374 1.385 . S
C373 H375 0.950 . S
C374 C368 1.404 . S
C374 H372 0.949 . S
C374 C373 1.385 . S
H375 C373 0.950 . S
H376 C360 0.951 . S
H377 C362 0.951 . S
H378 C364 0.951 . S
H379 C365 0.950 . S
H380 C366 0.950 . S
H381 C367 0.950 . S
H382 C369 0.950 . S
H383 C370 0.951 . S
C384 C385 1.386 . S
C384 C386 1.383 . S
C384 H400 0.951 . S
C385 C384 1.386 . S
C385 C389 1.383 . S
C386 C384 1.383 . S
C386 C387 1.402 . S
C386 H401 0.951 . S
C387 C386 1.402 . S
C387 C388 1.375 . S
C387 C390 1.481 . S
C388 C387 1.375 . S
C388 C389 1.367 . S
C388 H402 0.951 . S
C389 C385 1.383 . S
C389 C388 1.367 . S
C389 H403 0.950 . S
C390 C387 1.481 . S
C390 C391 1.297 . S
C390 H404 0.950 . S
C391 C390 1.297 . S
C391 C392 1.479 . S
C391 H405 0.950 . S
C392 C391 1.479 . S
C392 C393 1.375 . S
C392 C398 1.404 . S
C393 C392 1.375 . S
C393 C394 1.369 . S
C393 H406 0.950 . S
C394 C393 1.369 . S
C394 C395 1.392 . S
C394 H407 0.951 . S
C395 C394 1.392 . S
C395 C397 1.384 . S
H396 C398 0.949 . S
C397 C395 1.384 . S
C397 C398 1.385 . S
C397 H399 0.950 . S
C398 C392 1.404 . S
C398 H396 0.949 . S
C398 C397 1.385 . S
H399 C397 0.950 . S
H400 C384 0.951 . S
H401 C386 0.951 . S
H402 C388 0.951 . S
H403 C389 0.950 . S
H404 C390 0.950 . S
H405 C391 0.950 . S
H406 C393 0.950 . S
H407 C394 0.951 . S
C408 C409 1.386 . S
C408 C410 1.383 . S
C408 H424 0.951 . S
C409 C408 1.386 . S
C409 C413 1.383 . S
C410 C408 1.383 . S
C410 C411 1.402 . S
C410 H425 0.951 . S
C411 C410 1.402 . S
C411 C412 1.375 . S
C411 C414 1.481 . S
C412 C411 1.375 . S
C412 C413 1.367 . S
C412 H426 0.951 . S
C413 C409 1.383 . S
C413 C412 1.367 . S
C413 H427 0.950 . S
C414 C411 1.481 . S
C414 C415 1.297 . S
C414 H428 0.950 . S
C415 C414 1.297 . S
C415 C416 1.479 . S
C415 H429 0.950 . S
C416 C415 1.479 . S
C416 C417 1.375 . S
C416 C422 1.404 . S
C417 C416 1.375 . S
C417 C418 1.369 . S
C417 H430 0.950 . S
C418 C417 1.369 . S
C418 C419 1.392 . S
C418 H431 0.951 . S
C419 C418 1.392 . S
C419 C421 1.384 . S
H420 C422 0.949 . S
C421 C419 1.384 . S
C421 C422 1.385 . S
C421 H423 0.950 . S
C422 C416 1.404 . S
C422 H420 0.949 . S
C422 C421 1.385 . S
H423 C421 0.950 . S
H424 C408 0.951 . S
H425 C410 0.951 . S
H426 C412 0.951 . S
H427 C413 0.950 . S
H428 C414 0.950 . S
H429 C415 0.950 . S
H430 C417 0.950 . S
H431 C418 0.951 . S
C432 C433 1.386 . S
C432 C434 1.383 . S
C432 H448 0.951 . S
C433 C432 1.386 . S
C433 C437 1.383 . S
C434 C432 1.383 . S
C434 C435 1.402 . S
C434 H449 0.951 . S
C435 C434 1.402 . S
C435 C436 1.375 . S
C435 C438 1.481 . S
C436 C435 1.375 . S
C436 C437 1.367 . S
C436 H450 0.951 . S
C437 C433 1.383 . S
C437 C436 1.367 . S
C437 H451 0.950 . S
C438 C435 1.481 . S
C438 C439 1.297 . S
C438 H452 0.950 . S
C439 C438 1.297 . S
C439 C440 1.479 . S
C439 H453 0.950 . S
C440 C439 1.479 . S
C440 C441 1.375 . S
C440 C446 1.404 . S
C441 C440 1.375 . S
C441 C442 1.369 . S
C441 H454 0.950 . S
C442 C441 1.369 . S
C442 C443 1.392 . S
C442 H455 0.951 . S
C443 C442 1.392 . S
C443 C445 1.384 . S
H444 C446 0.949 . S
C445 C443 1.384 . S
C445 C446 1.385 . S
C445 H447 0.950 . S
C446 C440 1.404 . S
C446 H444 0.949 . S
C446 C445 1.385 . S
H447 C445 0.950 . S
H448 C432 0.951 . S
H449 C434 0.951 . S
H450 C436 0.951 . S
H451 C437 0.950 . S
H452 C438 0.950 . S
H453 C439 0.950 . S
H454 C441 0.950 . S
H455 C442 0.951 . S
C456 C457 1.386 . S
C456 C458 1.383 . S
C456 H472 0.951 . S
C457 C456 1.386 . S
C457 C461 1.383 . S
C458 C456 1.383 . S
C458 C459 1.402 . S
C458 H473 0.951 . S
C459 C458 1.402 . S
C459 C460 1.375 . S
C459 C462 1.481 . S
C460 C459 1.375 . S
C460 C461 1.367 . S
C460 H474 0.951 . S
C461 C457 1.383 . S
C461 C460 1.367 . S
C461 H475 0.950 . S
C462 C459 1.481 . S
C462 C463 1.297 . S
C462 H476 0.950 . S
C463 C462 1.297 . S
C463 C464 1.479 . S
C463 H477 0.950 . S
C464 C463 1.479 . S
C464 C465 1.375 . S
C464 C470 1.404 . S
C465 C464 1.375 . S
C465 C466 1.369 . S
C465 H478 0.950 . S
C466 C465 1.369 . S
C466 C467 1.392 . S
C466 H479 0.951 . S
C467 C466 1.392 . S
C467 C469 1.384 . S
H468 C470 0.949 . S
C469 C467 1.384 . S
C469 C470 1.385 . S
C469 H471 0.950 . S
C470 C464 1.404 . S
C470 H468 0.949 . S
C470 C469 1.385 . S
H471 C469 0.950 . S
H472 C456 0.951 . S
H473 C458 0.951 . S
H474 C460 0.951 . S
H475 C461 0.950 . S
H476 C462 0.950 . S
H477 C463 0.950 . S
H478 C465 0.950 . S
H479 C466 0.951 . S
C480 C481 1.386 . S
C480 C482 1.383 . S
C480 H496 0.951 . S
C481 C480 1.386 . S
C481 C485 1.383 . S
C482 C480 1.383 . S
C482 C483 1.402 . S
C482 H497 0.951 . S
C483 C482 1.402 . S
C483 C484 1.375 . S
C483 C486 1.481 . S
C484 C483 1.375 . S
C484 C485 1.367 . S
C484 H498 0.951 . S
C485 C481 1.383 . S
C485 C484 1.367 . S
C485 H499 0.950 . S
C486 C483 1.481 . S
C486 C487 1.297 . S
C486 H500 0.950 . S
C487 C486 1.297 . S
C487 C488 1.479 . S
C487 H501 0.950 . S
C488 C487 1.479 . S
C488 C489 1.375 . S
C488 C494 1.404 . S
C489 C488 1.375 . S
C489 C490 1.369 . S
C489 H502 0.950 . S
C490 C489 1.369 . S
C490 C491 1.392 . S
C490 H503 0.951 . S
C491 C490 1.392 . S
C491 C493 1.384 . S
H492 C494 0.949 . S
C493 C491 1.384 . S
C493 C494 1.385 . S
C493 H495 0.950 . S
C494 C488 1.404 . S
C494 H492 0.949 . S
C494 C493 1.385 . S
H495 C493 0.950 . S
H496 C480 0.951 . S
H497 C482 0.951 . S
H498 C484 0.951 . S
H499 C485 0.950 . S
H500 C486 0.950 . S
H501 C487 0.950 . S
H502 C489 0.950 . S
H503 C490 0.951 . S
C504 C505 1.386 . S
C504 C506 1.383 . S
C504 H520 0.951 . S
C505 C504 1.386 . S
C505 C509 1.383 . S
C506 C504 1.383 . S
C506 C507 1.402 . S
C506 H521 0.951 . S
C507 C506 1.402 . S
C507 C508 1.375 . S
C507 C510 1.481 . S
C508 C507 1.375 . S
C508 C509 1.367 . S
C508 H522 0.951 . S
C509 C505 1.383 . S
C509 C508 1.367 . S
C509 H523 0.950 . S
C510 C507 1.481 . S
C510 C511 1.297 . S
C510 H524 0.950 . S
C511 C510 1.297 . S
C511 C512 1.479 . S
C511 H525 0.950 . S
C512 C511 1.479 . S
C512 C513 1.375 . S
C512 C518 1.404 . S
C513 C512 1.375 . S
C513 C514 1.369 . S
C513 H526 0.950 . S
C514 C513 1.369 . S
C514 C515 1.392 . S
C514 H527 0.951 . S
C515 C514 1.392 . S
C515 C517 1.384 . S
H516 C518 0.949 . S
C517 C515 1.384 . S
C517 C518 1.385 . S
C517 H519 0.950 . S
C518 C512 1.404 . S
C518 H516 0.949 . S
C518 C517 1.385 . S
H519 C517 0.950 . S
H520 C504 0.951 . S
H521 C506 0.951 . S
H522 C508 0.951 . S
H523 C509 0.950 . S
H524 C510 0.950 . S
H525 C511 0.950 . S
H526 C513 0.950 . S
H527 C514 0.951 . S
C528 C529 1.386 . S
C528 C530 1.383 . S
C528 H544 0.951 . S
C529 C528 1.386 . S
C529 C533 1.383 . S
C530 C528 1.383 . S
C530 C531 1.402 . S
C530 H545 0.951 . S
C531 C530 1.402 . S
C531 C532 1.375 . S
C531 C534 1.481 . S
C532 C531 1.375 . S
C532 C533 1.367 . S
C532 H546 0.951 . S
C533 C529 1.383 . S
C533 C532 1.367 . S
C533 H547 0.950 . S
C534 C531 1.481 . S
C534 C535 1.297 . S
C534 H548 0.950 . S
C535 C534 1.297 . S
C535 C536 1.479 . S
C535 H549 0.950 . S
C536 C535 1.479 . S
C536 C537 1.375 1_455 S
C536 C542 1.404 . S
C537 C536 1.375 1_655 S
C537 C538 1.369 . S
C537 H550 0.950 . S
C538 C537 1.369 . S
C538 C539 1.392 . S
C538 H551 0.951 . S
C539 C538 1.392 . S
C539 C541 1.384 1_655 S
H540 C542 0.949 . S
C541 C539 1.384 1_455 S
C541 C542 1.385 . S
C541 H543 0.950 . S
C542 C536 1.404 . S
C542 H540 0.949 . S
C542 C541 1.385 . S
H543 C541 0.950 . S
H544 C528 0.951 . S
H545 C530 0.951 . S
H546 C532 0.951 . S
H547 C533 0.950 . S
H548 C534 0.950 . S
H549 C535 0.950 . S
H550 C537 0.950 . S
H551 C538 0.951 . S
C552 C553 1.386 1_455 S
C552 C554 1.383 . S
C552 H568 0.951 . S
C553 C552 1.386 1_655 S
C553 C557 1.383 1_655 S
C554 C552 1.383 . S
C554 C555 1.402 . S
C554 H569 0.951 . S
C555 C554 1.402 . S
C555 C556 1.375 . S
C555 C558 1.481 . S
C556 C555 1.375 . S
C556 C557 1.367 . S
C556 H570 0.951 . S
C557 C553 1.383 1_455 S
C557 C556 1.367 . S
C557 H571 0.950 1_455 S
C558 C555 1.481 . S
C558 C559 1.297 . S
C558 H572 0.950 . S
C559 C558 1.297 . S
C559 C560 1.479 . S
C559 H573 0.950 . S
C560 C559 1.479 . S
C560 C561 1.375 . S
C560 C566 1.404 1_565 S
C561 C560 1.375 . S
C561 C562 1.369 1_565 S
C561 H574 0.950 . S
C562 C561 1.369 1_545 S
C562 C563 1.392 . S
C562 H575 0.951 . S
C563 C562 1.392 . S
C563 C565 1.384 . S
H564 C566 0.949 . S
C565 C563 1.384 . S
C565 C566 1.385 . S
C565 H567 0.950 . S
C566 C560 1.404 1_545 S
C566 H564 0.949 . S
C566 C565 1.385 . S
H567 C565 0.950 . S
H568 C552 0.951 . S
H569 C554 0.951 . S
H570 C556 0.951 . S
H571 C557 0.950 1_655 S
H572 C558 0.950 . S
H573 C559 0.950 . S
H574 C561 0.950 . S
H575 C562 0.951 . S
C576 C577 1.386 1_565 S
C576 C578 1.383 . S
C576 H592 0.951 . S
C577 C576 1.386 1_545 S
C577 C581 1.383 1_545 S
C578 C576 1.383 . S
C578 C579 1.402 . S
C578 H593 0.951 . S
C579 C578 1.402 . S
C579 C580 1.375 . S
C579 C582 1.481 . S
C580 C579 1.375 . S
C580 C581 1.367 . S
C580 H594 0.951 . S
C581 C577 1.383 1_565 S
C581 C580 1.367 . S
C581 H595 0.950 1_565 S
C582 C579 1.481 . S
C582 C583 1.297 . S
C582 H596 0.950 . S
C583 C582 1.297 . S
C583 C584 1.479 . S
C583 H597 0.950 . S
C584 C583 1.479 . S
C584 C585 1.375 . S
C584 C590 1.404 . S
C585 C584 1.375 . S
C585 C586 1.369 . S
C585 H598 0.950 . S
C586 C585 1.369 . S
C586 C587 1.392 . S
C586 H599 0.951 . S
C587 C586 1.392 . S
C587 C589 1.384 . S
H588 C590 0.949 . S
C589 C587 1.384 . S
C589 C590 1.385 . S
C589 H591 0.950 . S
C590 C584 1.404 . S
C590 H588 0.949 . S
C590 C589 1.385 . S
H591 C589 0.950 . S
H592 C576 0.951 . S
H593 C578 0.951 . S
H594 C580 0.951 . S
H595 C581 0.950 1_545 S
H596 C582 0.950 . S
H597 C583 0.950 . S
H598 C585 0.950 . S
H599 C586 0.951 . S
C600 C601 1.386 . S
C600 C602 1.383 . S
C600 H616 0.951 . S
C601 C600 1.386 . S
C601 C605 1.383 . S
C602 C600 1.383 . S
C602 C603 1.402 . S
C602 H617 0.951 . S
C603 C602 1.402 . S
C603 C604 1.375 . S
C603 C606 1.481 . S
C604 C603 1.375 . S
C604 C605 1.367 . S
C604 H618 0.951 . S
C605 C601 1.383 . S
C605 C604 1.367 . S
C605 H619 0.950 . S
C606 C603 1.481 . S
C606 C607 1.297 . S
C606 H620 0.950 . S
C607 C606 1.297 . S
C607 C608 1.479 . S
C607 H621 0.950 . S
C608 C607 1.479 . S
C608 C609 1.375 . S
C608 C614 1.404 1_545 S
C609 C608 1.375 . S
C609 C610 1.369 1_545 S
C609 H622 0.950 . S
C610 C609 1.369 1_565 S
C610 C611 1.392 . S
C610 H623 0.951 . S
C611 C610 1.392 . S
C611 C613 1.384 . S
H612 C614 0.949 . S
C613 C611 1.384 . S
C613 C614 1.385 . S
C613 H615 0.950 . S
C614 C608 1.404 1_565 S
C614 H612 0.949 . S
C614 C613 1.385 . S
H615 C613 0.950 . S
H616 C600 0.951 . S
H617 C602 0.951 . S
H618 C604 0.951 . S
H619 C605 0.950 . S
H620 C606 0.950 . S
H621 C607 0.950 . S
H622 C609 0.950 . S
H623 C610 0.951 . S
C624 C625 1.386 1_655 S
C624 C626 1.383 . S
C624 H640 0.951 . S
C625 C624 1.386 1_455 S
C625 C629 1.383 1_455 S
C626 C624 1.383 . S
C626 C627 1.402 . S
C626 H641 0.951 . S
C627 C626 1.402 . S
C627 C628 1.375 . S
C627 C630 1.481 . S
C628 C627 1.375 . S
C628 C629 1.367 . S
C628 H642 0.951 . S
C629 C625 1.383 1_655 S
C629 C628 1.367 . S
C629 H643 0.950 1_655 S
C630 C627 1.481 . S
C630 C631 1.297 . S
C630 H644 0.950 . S
C631 C630 1.297 . S
C631 C632 1.479 . S
C631 H645 0.950 . S
C632 C631 1.479 . S
C632 C633 1.375 . S
C632 C638 1.404 . S
C633 C632 1.375 . S
C633 C634 1.369 . S
C633 H646 0.950 . S
C634 C633 1.369 . S
C634 C635 1.392 . S
C634 H647 0.951 . S
C635 C634 1.392 . S
C635 C637 1.384 . S
H636 C638 0.949 . S
C637 C635 1.384 . S
C637 C638 1.385 . S
C637 H639 0.950 . S
C638 C632 1.404 . S
C638 H636 0.949 . S
C638 C637 1.385 . S
H639 C637 0.950 . S
H640 C624 0.951 . S
H641 C626 0.951 . S
H642 C628 0.951 . S
H643 C629 0.950 1_455 S
H644 C630 0.950 . S
H645 C631 0.950 . S
H646 C633 0.950 . S
H647 C634 0.951 . S
C648 C649 1.386 1_655 S
C648 C650 1.383 . S
C648 H664 0.951 . S
C649 C648 1.386 1_455 S
C649 C653 1.383 . S
C650 C648 1.383 . S
C650 C651 1.402 . S
C650 H665 0.951 . S
C651 C650 1.402 . S
C651 C652 1.375 1_655 S
C651 C654 1.481 . S
C652 C651 1.375 1_455 S
C652 C653 1.367 . S
C652 H666 0.951 . S
C653 C649 1.383 . S
C653 C652 1.367 . S
C653 H667 0.950 . S
C654 C651 1.481 . S
C654 C655 1.297 . S
C654 H668 0.950 . S
C655 C654 1.297 . S
C655 C656 1.479 . S
C655 H669 0.950 . S
C656 C655 1.479 . S
C656 C657 1.375 . S
C656 C662 1.404 . S
C657 C656 1.375 . S
C657 C658 1.369 . S
C657 H670 0.950 . S
C658 C657 1.369 . S
C658 C659 1.392 1_545 S
C658 H671 0.951 . S
C659 C658 1.392 1_565 S
C659 C661 1.384 1_565 S
H660 C662 0.949 . S
C661 C659 1.384 1_545 S
C661 C662 1.385 . S
C661 H663 0.968 . S
C662 C656 1.404 . S
C662 H660 0.949 . S
C662 C661 1.385 . S
H663 C661 0.968 . S
H664 C648 0.951 . S
H665 C650 0.951 . S
H666 C652 0.951 . S
H667 C653 0.950 . S
H668 C654 0.950 . S
H669 C655 0.950 . S
H670 C657 0.950 . S
H671 C658 0.951 . S
C241 C178 2.279 . S
C251 C18 2.504 . S
C265 C209 2.482 . S
C275 C49 2.347 . S
C289 C98 2.475 . S
C299 C138 2.350 . S
C313 C9 2.338 . S
C323 C169 2.466 . S
C337 C218 2.304 . S
C347 C58 2.505 . S
C361 C89 2.279 . S
C371 C129 2.480 . S
C385 C6 1.882 . S
C395 C90 1.842 . S
C409 C46 1.885 . S
C419 C10 1.834 . S
C433 C86 1.899 . S
C443 C50 1.770 . S
C457 C135 1.881 . S
C467 C179 1.848 . S
C481 C175 1.882 . S
C491 C219 1.771 . S
C505 C139 1.844 . S
C515 C215 1.868 . S
C529 C15 1.039 . S
C539 C99 1.144 . S
C553 C55 1.118 . S
C563 C19 1.052 . S
C577 C95 1.059 . S
C587 C59 1.128 . S
C601 C126 1.110 . S
C611 C170 1.076 . S
C625 C166 1.076 . S
C635 C210 1.050 . S
C649 C130 1.088 . S
C659 C206 1.007 . S
