# Generated by pormake.
# Topology sod, (4)-cn, num edge types: 1
# Building blocks:
#     Node 0, Type 0, BuildingBlock: UXUYUI_clean_sbu_0, # of connection points: 4
#     Node 1, Type 0, BuildingBlock: UXUYUI_clean_sbu_0, # of connection points: 4
#     Node 2, Type 0, BuildingBlock: UXUYUI_clean_sbu_0, # of connection points: 4
#     Node 3, Type 0, BuildingBlock: UXUYUI_clean_sbu_0, # of connection points: 4
#     Node 4, Type 0, BuildingBlock: UXUYUI_clean_sbu_0, # of connection points: 4
#     Node 5, Type 0, BuildingBlock: UXUYUI_clean_sbu_0, # of connection points: 4
#     Node 6, Type 0, BuildingBlock: UXUYUI_clean_sbu_0, # of connection points: 4
#     Node 7, Type 0, BuildingBlock: UXUYUI_clean_sbu_0, # of connection points: 4
#     Node 8, Type 0, BuildingBlock: UXUYUI_clean_sbu_0, # of connection points: 4
#     Node 9, Type 0, BuildingBlock: UXUYUI_clean_sbu_0, # of connection points: 4
#     Node 10, Type 0, BuildingBlock: UXUYUI_clean_sbu_0, # of connection points: 4
#     Node 11, Type 0, BuildingBlock: UXUYUI_clean_sbu_0, # of connection points: 4
#     Edge 12, Type (0, 0), BuildingBlock: KIFKEQ_clean_linker_1, # of connection points: 2
#     Edge 13, Type (0, 0), BuildingBlock: KIFKEQ_clean_linker_1, # of connection points: 2
#     Edge 14, Type (0, 0), BuildingBlock: KIFKEQ_clean_linker_1, # of connection points: 2
#     Edge 15, Type (0, 0), BuildingBlock: KIFKEQ_clean_linker_1, # of connection points: 2
#     Edge 16, Type (0, 0), BuildingBlock: KIFKEQ_clean_linker_1, # of connection points: 2
#     Edge 17, Type (0, 0), BuildingBlock: KIFKEQ_clean_linker_1, # of connection points: 2
#     Edge 18, Type (0, 0), BuildingBlock: KIFKEQ_clean_linker_1, # of connection points: 2
#     Edge 19, Type (0, 0), BuildingBlock: KIFKEQ_clean_linker_1, # of connection points: 2
#     Edge 20, Type (0, 0), BuildingBlock: KIFKEQ_clean_linker_1, # of connection points: 2
#     Edge 21, Type (0, 0), BuildingBlock: KIFKEQ_clean_linker_1, # of connection points: 2
#     Edge 22, Type (0, 0), BuildingBlock: KIFKEQ_clean_linker_1, # of connection points: 2
#     Edge 23, Type (0, 0), BuildingBlock: KIFKEQ_clean_linker_1, # of connection points: 2
#     Edge 24, Type (0, 0), BuildingBlock: KIFKEQ_clean_linker_1, # of connection points: 2
#     Edge 25, Type (0, 0), BuildingBlock: KIFKEQ_clean_linker_1, # of connection points: 2
#     Edge 26, Type (0, 0), BuildingBlock: KIFKEQ_clean_linker_1, # of connection points: 2
#     Edge 27, Type (0, 0), BuildingBlock: KIFKEQ_clean_linker_1, # of connection points: 2
#     Edge 28, Type (0, 0), BuildingBlock: KIFKEQ_clean_linker_1, # of connection points: 2
#     Edge 29, Type (0, 0), BuildingBlock: KIFKEQ_clean_linker_1, # of connection points: 2
#     Edge 30, Type (0, 0), BuildingBlock: KIFKEQ_clean_linker_1, # of connection points: 2
#     Edge 31, Type (0, 0), BuildingBlock: KIFKEQ_clean_linker_1, # of connection points: 2
#     Edge 32, Type (0, 0), BuildingBlock: KIFKEQ_clean_linker_1, # of connection points: 2
#     Edge 33, Type (0, 0), BuildingBlock: KIFKEQ_clean_linker_1, # of connection points: 2
#     Edge 34, Type (0, 0), BuildingBlock: KIFKEQ_clean_linker_1, # of connection points: 2
#     Edge 35, Type (0, 0), BuildingBlock: KIFKEQ_clean_linker_1, # of connection points: 2
# Relax obj value: 0.150
# Max RMSD: 0.167
# Mean RMSD: 0.167
data_MOF--net-sod--node1-UXUYUI_clean_sbu_0--edge1-KIFKEQ_clean_linker_1
_symmetry_space_group_name_H-M    P1
_symmetry_Int_Tables_number       1
_symmetry_cell_setting            triclinic
loop_
_symmetry_equiv_pos_as_xyz
'x, y, z'
_cell_length_a     63.087682
_cell_length_b     63.097061
_cell_length_c     63.079737
_cell_angle_alpha  90.014661
_cell_angle_beta   89.997379
_cell_angle_gamma 89.976232
loop_
_atom_site_label
_atom_site_type_symbol
_atom_site_fract_x
_atom_site_fract_y
_atom_site_fract_z
_atom_type_partial_charge
Li0 Li 0.98196 0.23617 0.4995 0.0
Li1 Li -0.00088 0.26342 0.51966 0.0
Li2 Li 0.0013 0.26356 0.48154 0.0
Li3 Li 0.02004 0.23735 0.50169 0.0
C4 C 0.9586 0.27132 0.4864 0.0
N5 N 0.92458 0.28041 0.46034 0.0
C6 C 0.94503 0.28814 0.49126 0.0
C7 C 0.95486 0.25911 0.46828 0.0
C8 C 0.92792 0.29249 0.47789 0.0
C9 C 0.93758 0.26396 0.45532 0.0
C10 C 0.987 0.22754 0.54201 0.0
C11 C 0.97931 0.20603 0.57266 0.0
N12 N 0.96122 0.2173 0.57592 0.0
C13 C 0.96834 0.23894 0.54569 0.0
C14 C 0.99255 0.21096 0.55561 0.0
C15 C 0.95552 0.23351 0.5629 0.0
C16 C 0.96344 0.19682 0.49278 0.0
N17 N 0.95876 0.21706 0.49841 0.0
C18 C 0.92221 0.2082 0.5028 0.0
C19 C 0.93867 0.22298 0.50349 0.0
C20 C 0.92653 0.18711 0.49704 0.0
C21 C 0.94752 0.18151 0.49201 0.0
H22 H 0.97963 0.19256 0.48908 0.0
H23 H 0.9354 0.23914 0.50815 0.0
C24 C 0.98942 0.30125 0.54008 0.0
N25 N 0.99739 0.28157 0.54356 0.0
C26 C 0.98817 0.31584 0.55664 0.0
C27 C 0.00343 0.28961 0.58007 0.0
C28 C 0.0043 0.27548 0.56305 0.0
C29 C 0.99531 0.31011 0.57694 0.0
H30 H 0.98426 0.30566 0.52433 0.0
H31 H 0.01063 0.25973 0.56536 0.0
C32 C 0.01543 0.22814 0.45918 0.0
N33 N 0.04166 0.21889 0.42533 0.0
C34 C 0.03295 0.241 0.45482 0.0
C35 C 0.01126 0.2106 0.44633 0.0
C36 C 0.04601 0.23605 0.43764 0.0
C37 C 0.0247 0.20618 0.42929 0.0
C38 C 0.04135 0.27372 0.51474 0.0
C39 C 0.05385 0.29134 0.50991 0.0
C40 C 0.04595 0.26161 0.53273 0.0
C41 C 0.07078 0.29658 0.52319 0.0
C42 C 0.06301 0.26738 0.54561 0.0
N43 N 0.07497 0.2846 0.54062 0.0
C44 C 0.00734 0.30243 0.46182 0.0
C45 C 0.99547 0.27572 0.43819 0.0
C46 C 0.00685 0.31748 0.44564 0.0
N47 N 0.00162 0.28207 0.45785 0.0
C48 C 0.99473 0.29027 0.42152 0.0
C49 C 0.0003 0.31152 0.4252 0.0
H50 H 0.01204 0.307 0.47766 0.0
H51 H 0.99078 0.25945 0.43552 0.0
C52 C 0.04145 0.20006 0.5111 0.0
N53 N 0.04441 0.2198 0.50306 0.0
C54 C 0.0584 0.18595 0.51252 0.0
C55 C 0.08116 0.21272 0.49721 0.0
C56 C 0.06375 0.22637 0.49618 0.0
C57 C 0.07858 0.1922 0.50549 0.0
H58 H 0.02582 0.19526 0.51626 0.0
H59 H 0.06567 0.24218 0.48986 0.0
O60 O 0.9755 0.26707 0.49932 0.0
O61 O -0.00015 0.2324 0.52522 0.0
O62 O 0.00241 0.2325 0.47597 0.0
O63 O 0.02468 0.26854 0.50186 0.0
H64 H 0.94772 0.29775 0.50523 0.0
H65 H 0.96513 0.246 0.46425 0.0
H66 H 0.9173 0.30547 0.48147 0.0
H67 H 0.93452 0.25465 0.44125 0.0
H68 H 0.98341 0.19322 0.5833 0.0
H69 H 0.96377 0.25186 0.53543 0.0
H70 H 0.00695 0.202 0.553 0.0
H71 H 0.94104 0.24219 0.56591 0.0
H72 H 0.90627 0.21331 0.50661 0.0
H73 H 0.95171 0.16538 0.4879 0.0
H74 H 0.9821 0.33158 0.55347 0.0
H75 H 0.00894 0.28452 0.59551 0.0
H76 H 0.03645 0.25465 0.46454 0.0
H77 H 0.99776 0.20049 0.44951 0.0
H78 H 0.05962 0.24585 0.43409 0.0
H79 H 0.02166 0.19264 0.41921 0.0
H80 H 0.0505 0.30086 0.49604 0.0
H81 H 0.03651 0.24791 0.53674 0.0
H82 H 0.08059 0.31019 0.51965 0.0
H83 H 0.06673 0.25816 0.55958 0.0
H84 H 0.01155 0.33362 0.44912 0.0
H85 H 0.98934 0.28504 0.40609 0.0
H86 H 0.05564 0.17017 0.51869 0.0
H87 H 0.09649 0.2182 0.49176 0.0
Li88 Li 0.73796 -0.00077 0.51997 0.0
Li89 Li 0.76346 0.97822 0.50041 0.0
Li90 Li 0.76568 0.01708 0.49997 0.0
Li91 Li 0.73735 -0.00127 0.48078 0.0
C92 C 0.77465 0.00313 0.54445 0.0
N93 N 0.7856 0.0143 0.58534 0.0
C94 C 0.78349 0.98808 0.5581 0.0
C95 C 0.77159 0.02389 0.5515 0.0
C96 C 0.78886 0.99403 0.57875 0.0
C97 C 0.77718 0.02922 0.57226 0.0
C98 C 0.7259 0.9576 0.51243 0.0
C99 C 0.70167 0.92875 0.51883 0.0
N100 N 0.71306 0.9232 0.53628 0.0
C101 C 0.73738 0.9516 0.5304 0.0
C102 C 0.70791 0.9461 0.50656 0.0
C103 C 0.73063 0.93417 0.54226 0.0
C104 C 0.70029 0.00961 0.53975 0.0
N105 N 0.7195 0.00075 0.54373 0.0
C106 C 0.70943 0.99335 0.5795 0.0
C107 C 0.72433 0.99265 0.56313 0.0
C108 C 0.68935 0.00223 0.57575 0.0
C109 C 0.68493 0.01058 0.5556 0.0
H110 H 0.69681 0.01569 0.5241 0.0
H111 H 0.7395 0.98522 0.56581 0.0
C112 C 0.80047 0.95551 0.50766 0.0
N113 N 0.7803 0.95338 0.50048 0.0
C114 C 0.81405 0.93808 0.50804 0.0
C115 C 0.78582 0.91657 0.49356 0.0
C116 C 0.77277 0.93445 0.49345 0.0
C117 C 0.80678 0.91826 0.50093 0.0
H118 H 0.80602 0.97084 0.51297 0.0
H119 H 0.75666 0.93324 0.48774 0.0
C120 C 0.72902 0.04375 0.49967 0.0
N121 N 0.71689 0.08581 0.49865 0.0
C122 C 0.72391 0.0534 0.48039 0.0
C123 C 0.72756 0.05537 0.51848 0.0
C124 C 0.71793 0.07472 0.48019 0.0
C125 C 0.72151 0.07665 0.51762 0.0
C126 C 0.77274 0.98515 0.45799 0.0
C127 C 0.79026 0.98982 0.44527 0.0
C128 C 0.75977 0.96793 0.45286 0.0
C129 C 0.79451 0.97719 0.42758 0.0
C130 C 0.76455 0.95568 0.43505 0.0
N131 N 0.78167 0.96052 0.42288 0.0
C132 C 0.80363 0.03777 0.51 0.0
C133 C 0.78094 0.058 0.48794 0.0
C134 C 0.81878 0.05386 0.50984 0.0
N135 N 0.78506 0.04018 0.49934 0.0
C136 C 0.79559 0.07458 0.48746 0.0
C137 C 0.81482 0.07259 0.49848 0.0
H138 H 0.80674 0.02324 0.51854 0.0
H139 H 0.76648 0.05925 0.47892 0.0
C140 C 0.69856 0.99356 0.46094 0.0
N141 N 0.71882 -0.00019 0.45728 0.0
C142 C 0.68363 0.99416 0.44468 0.0
C143 C 0.71072 0.00763 0.42112 0.0
C144 C 0.72515 0.00681 0.43791 0.0
C145 C 0.68961 0.00133 0.42446 0.0
H146 H 0.69403 0.98818 0.47658 0.0
H147 H 0.74135 0.01192 0.43556 0.0
O148 O 0.76913 0.99749 0.52426 0.0
O149 O 0.7321 0.97468 0.5006 0.0
O150 O 0.73474 0.02284 0.50016 0.0
O151 O 0.76852 0.99734 0.47542 0.0
H152 H 0.78605 0.97196 0.55283 0.0
H153 H 0.76511 0.03578 0.54103 0.0
H154 H 0.79561 0.98253 0.58952 0.0
H155 H 0.77486 0.04523 0.57795 0.0
H156 H 0.68777 0.91971 0.51449 0.0
H157 H 0.75136 0.96026 0.53514 0.0
H158 H 0.69887 0.95053 0.49267 0.0
H159 H 0.73936 0.92937 0.55621 0.0
H160 H 0.71335 0.98645 0.59473 0.0
H161 H 0.66973 0.01774 0.55209 0.0
H162 H 0.83018 0.9402 0.5135 0.0
H163 H 0.77952 0.90157 0.4881 0.0
H164 H 0.72477 0.04458 0.46571 0.0
H165 H 0.73086 0.04801 0.5336 0.0
H166 H 0.71411 0.08244 0.46537 0.0
H167 H 0.7204 0.08586 0.53204 0.0
H168 H 0.80047 0.00308 0.44906 0.0
H169 H 0.74614 0.96405 0.4625 0.0
H170 H 0.80801 0.98063 0.41759 0.0
H171 H 0.75464 0.94231 0.4309 0.0
H172 H 0.83339 0.05173 0.5186 0.0
H173 H 0.79213 0.08859 0.47816 0.0
H174 H 0.66761 0.9889 0.44787 0.0
H175 H 0.71591 0.01347 0.40584 0.0
Li176 Li 0.01755 0.76233 0.49593 0.0
Li177 Li 0.99833 0.73383 0.51378 0.0
Li178 Li -0.00127 0.73554 0.47432 0.0
Li179 Li 0.97778 0.76012 0.49569 0.0
C180 C 0.04291 0.7261 0.48749 0.0
N181 N 0.08311 0.7155 0.47363 0.0
C182 C 0.0568 0.71517 0.50086 0.0
C183 C 0.04939 0.73135 0.46697 0.0
C184 C 0.07708 0.71003 0.49359 0.0
C185 C 0.06979 0.72593 0.46028 0.0
C186 C 1e-05 0.76457 0.54145 0.0
C187 C 0.98619 0.75926 0.5767 0.0
N188 N 0.00578 0.76307 0.58484 0.0
C189 C 0.01998 0.76855 0.55016 0.0
C190 C 0.98293 0.76001 0.55481 0.0
C191 C 0.02258 0.76769 0.57214 0.0
C192 C 0.0354 0.80239 0.49364 0.0
N193 N 0.0405 0.78176 0.49715 0.0
C194 C 0.07695 0.79083 0.50196 0.0
C195 C 0.06075 0.77578 0.50152 0.0
C196 C 0.07215 0.81224 0.49822 0.0
C197 C 0.05105 0.81798 0.49412 0.0
H198 H 0.01912 0.80667 0.49034 0.0
H199 H 0.06437 0.75942 0.50487 0.0
C200 C 0.9822 0.70278 0.54157 0.0
N201 N -0.00064 0.71504 0.53729 0.0
C202 C 0.98268 0.68842 0.55835 0.0
C203 C 0.01854 0.6995 0.56601 0.0
C204 C 0.0173 0.71377 0.54915 0.0
C205 C 0.00112 0.68643 0.5707 0.0
H206 H 0.96819 0.70398 0.53182 0.0
H207 H 0.03071 0.72374 0.54539 0.0
C208 C 0.0008 0.7752 0.45231 0.0
N209 N 0.00752 0.79264 0.41264 0.0
C210 C 0.98361 0.78078 0.43948 0.0
C211 C 0.02142 0.77896 0.44509 0.0
C212 C 0.98732 0.78943 0.41944 0.0
C213 C 0.02449 0.78766 0.42497 0.0
C214 C 0.95331 0.7264 0.49174 0.0
C215 C 0.94447 0.71978 0.47253 0.0
C216 C 0.94007 0.73071 0.50899 0.0
C217 C 0.92247 0.71785 0.47082 0.0
C218 C 0.91815 0.72862 0.50663 0.0
N219 N 0.90988 0.7223 0.48775 0.0
C220 C 0.0109 0.70033 0.45036 0.0
C221 C 0.98896 0.72422 0.43139 0.0
C222 C 0.0122 0.68697 0.43283 0.0
N223 N -0.0003 0.71871 0.44926 0.0
C224 C 0.98951 0.71109 0.41355 0.0
C225 C 0.00137 0.69228 0.41416 0.0
H226 H 0.0187 0.69594 0.46497 0.0
H227 H 0.97956 0.7385 0.43113 0.0
C228 C 0.95015 0.79035 0.51308 0.0
N229 N 0.95278 0.777 0.49638 0.0
C230 C 0.93245 0.80356 0.51412 0.0
C231 C 0.92045 0.78905 0.48074 0.0
C232 C 0.93836 0.77606 0.48039 0.0
C233 C 0.91739 0.80312 0.49772 0.0
H234 H 0.96197 0.79097 0.52546 0.0
H235 H 0.94077 0.76524 0.46733 0.0
O236 O 0.02301 0.73133 0.49444 0.0
O237 O 0.99725 0.76492 0.51995 0.0
O238 O 0.99739 0.76697 0.47212 0.0
O239 O 0.97481 0.72855 0.49366 0.0
H240 H 0.05201 0.71072 0.5167 0.0
H241 H 0.03868 0.7392 0.4562 0.0
H242 H 0.08802 0.70168 0.50382 0.0
H243 H 0.07498 0.72992 0.44443 0.0
H244 H 0.97314 0.75561 0.58721 0.0
H245 H 0.03338 0.77207 0.54007 0.0
H246 H 0.96737 0.75692 0.54833 0.0
H247 H 0.03798 0.77063 0.5791 0.0
H248 H 0.09299 0.78585 0.50551 0.0
H249 H 0.04675 0.83431 0.49103 0.0
H250 H 0.96873 0.67895 0.56156 0.0
H251 H 0.03317 0.69837 0.57492 0.0
H252 H 0.96755 0.77829 0.44483 0.0
H253 H 0.03496 0.77542 0.45494 0.0
H254 H 0.97414 0.79362 0.4093 0.0
H255 H 0.04037 0.79056 0.41919 0.0
H256 H 0.95446 0.7162 0.45909 0.0
H257 H 0.94662 0.73588 0.52395 0.0
H258 H 0.91541 0.71282 0.45602 0.0
H259 H 0.90772 0.73207 0.51979 0.0
H260 H 0.02113 0.67235 0.43403 0.0
H261 H 0.9808 0.71559 0.39945 0.0
H262 H 0.93087 0.81441 0.52733 0.0
H263 H 0.90911 0.78808 0.46788 0.0
Li264 Li 0.23576 0.01967 0.49957 0.0
Li265 Li 0.26152 0.9983 0.51824 0.0
Li266 Li 0.26248 -0.00094 0.47934 0.0
Li267 Li 0.23487 0.98069 0.4984 0.0
C268 C 0.27304 0.04073 0.48839 0.0
N269 N 0.28547 0.07586 0.46539 0.0
C270 C 0.29091 0.05228 0.49451 0.0
C271 C 0.26151 0.04701 0.47053 0.0
C272 C 0.29693 0.07001 0.48269 0.0
C273 C 0.26804 0.06482 0.45913 0.0
C274 C 0.23044 0.00152 0.54441 0.0
C275 C 0.23018 0.98576 0.57922 0.0
N276 N 0.23209 0.00537 0.58799 0.0
C277 C 0.23228 0.02152 0.55374 0.0
C278 C 0.22928 0.98349 0.55721 0.0
C279 C 0.23313 0.02313 0.57582 0.0
C280 C 0.19751 0.04087 0.49632 0.0
N281 N 0.21831 0.0441 0.50074 0.0
C282 C 0.21186 0.08075 0.50781 0.0
C283 C 0.2257 0.0635 0.50655 0.0
C284 C 0.19023 0.07789 0.50327 0.0
C285 C 0.18314 0.05762 0.49739 0.0
H286 H 0.19206 0.02516 0.49223 0.0
H287 H 0.24225 0.06552 0.51052 0.0
C288 C 0.28466 0.97932 0.55186 0.0
N289 N 0.27908 0.99802 0.54277 0.0
C290 C 0.29826 0.979 0.56927 0.0
C291 C 0.30002 0.01724 0.56783 0.0
C292 C 0.28631 0.01681 0.55044 0.0
C293 C 0.30636 0.99811 0.57732 0.0
H294 H 0.27875 0.96463 0.5455 0.0
H295 H 0.28161 0.03146 0.54286 0.0
C296 C 0.22273 0.99062 0.45749 0.0
N297 N 0.20461 0.9693 0.42377 0.0
C298 C 0.23392 0.97455 0.44714 0.0
C299 C 0.20233 0.9959 0.45063 0.0
C300 C 0.22449 0.96394 0.43015 0.0
C301 C 0.19344 0.98492 0.43358 0.0
C302 C 0.26711 0.95285 0.4974 0.0
C303 C 0.27634 0.94304 0.47978 0.0
C304 C 0.25921 0.94039 0.51394 0.0
C305 C 0.2774 0.92094 0.47897 0.0
C306 C 0.26057 0.91834 0.51253 0.0
N307 N 0.26956 0.90915 0.49522 0.0
C308 C 0.3011 0.99278 0.45924 0.0
C309 C 0.27481 0.00687 0.43637 0.0
C310 C 0.3158 0.99241 0.44276 0.0
N311 N 0.28102 -0.00033 0.45572 0.0
C312 C 0.28904 0.00684 0.4194 0.0
C313 C 0.3098 -0.00063 0.42247 0.0
H314 H 0.30562 0.98746 0.47491 0.0
H315 H 0.25879 0.01254 0.4341 0.0
C316 C 0.19806 0.95942 0.5106 0.0
N317 N 0.21513 0.95769 0.49759 0.0
C318 C 0.18266 0.94356 0.51102 0.0
C319 C 0.20259 0.92441 0.4845 0.0
C320 C 0.2175 0.94074 0.48447 0.0
C321 C 0.18485 0.92568 0.49792 0.0
H322 H 0.1963 0.97323 0.52059 0.0
H323 H 0.23105 0.9397 0.47408 0.0
O324 O 0.26714 0.02322 0.49974 0.0
O325 O 0.23026 -0.00042 0.52283 0.0
O326 O 0.23162 0.00112 0.47427 0.0
O327 O 0.26604 0.9745 0.49849 0.0
H328 H 0.30006 0.04757 0.50825 0.0
H329 H 0.24764 0.0383 0.46551 0.0
H330 H 0.31073 0.0791 0.48725 0.0
H331 H 0.25926 0.06986 0.44529 0.0
H332 H 0.2294 0.97194 0.58933 0.0
H333 H 0.23334 0.03562 0.54404 0.0
H334 H 0.22781 0.9679 0.55022 0.0
H335 H 0.2347 0.03849 0.58327 0.0
H336 H 0.21792 0.09604 0.51273 0.0
H337 H 0.16666 0.05472 0.49358 0.0
H338 H 0.30246 0.96391 0.57629 0.0
H339 H 0.30603 0.03232 0.57337 0.0
H340 H 0.24962 0.97011 0.45232 0.0
H341 H 0.19345 0.00836 0.45836 0.0
H342 H 0.23296 0.9514 0.42207 0.0
H343 H 0.17766 0.98883 0.42812 0.0
H344 H 0.28256 0.95236 0.46682 0.0
H345 H 0.25165 0.94764 0.5275 0.0
H346 H 0.28445 0.91316 0.46541 0.0
H347 H 0.25435 0.90853 0.52514 0.0
H348 H 0.33176 0.98692 0.44592 0.0
H349 H 0.28376 0.01228 0.404 0.0
H350 H 0.16904 0.94548 0.52129 0.0
H351 H 0.20511 0.91085 0.47429 0.0
Li352 Li 0.4999 0.02084 0.2365 0.0
Li353 Li 0.48077 -3e-05 0.26296 0.0
Li354 Li 0.5204 0.00066 0.26299 0.0
Li355 Li 0.50017 0.98121 0.23621 0.0
C356 C 0.50488 0.04436 0.27461 0.0
N357 N 0.5147 0.08466 0.28875 0.0
C358 C 0.48907 0.05738 0.28309 0.0
C359 C 0.52575 0.05174 0.27367 0.0
C360 C 0.49433 0.07773 0.29005 0.0
C361 C 0.53038 0.07217 0.28081 0.0
C362 C 0.45451 0.00313 0.23081 0.0
C363 C 0.41934 0.98857 0.23424 0.0
N364 N 0.411 0.00791 0.22962 0.0
C365 C 0.44561 0.02282 0.22598 0.0
C366 C 0.4413 0.98581 0.23484 0.0
C367 C 0.42357 0.02493 0.22549 0.0
C368 C 0.50575 0.04043 0.19798 0.0
N369 N 0.49961 0.04467 0.21818 0.0
C370 C 0.49294 0.08088 0.2093 0.0
C371 C 0.49319 0.06438 0.22408 0.0
C372 C 0.49917 0.07692 0.18828 0.0
C373 C 0.50574 0.05639 0.18273 0.0
H374 H 0.51061 0.02455 0.19373 0.0
H375 H 0.48789 0.06727 0.24007 0.0
C376 C 0.45432 0.98247 0.29411 0.0
N377 N 0.45671 -0.00055 0.2811 0.0
C378 C 0.43749 0.98166 0.30841 0.0
C379 C 0.42573 0.01579 0.29555 0.0
C380 C 0.44283 0.01593 0.28149 0.0
C381 C 0.42303 -0.00142 0.30942 0.0
H382 H 0.46567 0.96966 0.29361 0.0
H383 H 0.44517 0.0293 0.27106 0.0
C384 C 0.54398 0.00629 0.22487 0.0
N385 N 0.58404 0.01679 0.21054 0.0
C386 C 0.55731 0.99067 0.21652 0.0
C387 C 0.55091 0.02731 0.22555 0.0
C388 C 0.57754 0.99627 0.20947 0.0
C389 C 0.57124 0.03229 0.21834 0.0
C390 C 0.50364 0.95477 0.26814 0.0
C391 C 0.52341 0.9462 0.27331 0.0
C392 C 0.48668 0.94127 0.26358 0.0
C393 C 0.52594 0.9242 0.27359 0.0
C394 C 0.48986 0.91936 0.26399 0.0
N395 N 0.50926 0.91136 0.26893 0.0
C396 C 0.54028 0.00751 0.30138 0.0
C397 C 0.56393 0.99422 0.27537 0.0
C398 C 0.55642 0.0079 0.31644 0.0
N399 N 0.54429 0.00084 0.2813 0.0
C400 C 0.58059 0.99434 0.28997 0.0
C401 C 0.57689 0.00116 0.31086 0.0
H402 H 0.52445 0.0125 0.30568 0.0
H403 H 0.56662 0.98847 0.2595 0.0
C404 C 0.48375 0.95516 0.20418 0.0
N405 N 0.50035 0.95742 0.21771 0.0
C406 C 0.48354 0.9387 0.18943 0.0
C407 C 0.51744 0.927 0.20293 0.0
C408 C 0.51699 0.94373 0.21743 0.0
C409 C 0.50066 0.92449 0.18851 0.0
H410 H 0.47081 0.96637 0.20459 0.0
H411 H 0.53008 0.94598 0.22825 0.0
O412 O 0.49997 0.02435 0.2678 0.0
O413 O 0.47605 0.00081 0.23161 0.0
O414 O 0.52407 0.00104 0.23173 0.0
O415 O 0.50092 0.97627 0.26756 0.0
H416 H 0.47289 0.05189 0.28419 0.0
H417 H 0.53832 0.04174 0.26776 0.0
H418 H 0.48221 0.08801 0.29651 0.0
H419 H 0.54646 0.07808 0.28012 0.0
H420 H 0.40892 0.97534 0.23747 0.0
H421 H 0.45559 0.03638 0.22278 0.0
H422 H 0.44794 0.97045 0.23859 0.0
H423 H 0.41645 0.0401 0.22187 0.0
H424 H 0.48748 0.09642 0.21414 0.0
H425 H 0.51092 0.0527 0.16678 0.0
H426 H 0.43586 0.96796 0.31861 0.0
H427 H 0.4151 0.02927 0.29596 0.0
H428 H 0.55216 0.97436 0.2156 0.0
H429 H 0.54066 0.03974 0.23135 0.0
H430 H 0.58806 0.9843 0.20313 0.0
H431 H 0.57681 0.0485 0.21884 0.0
H432 H 0.53668 0.95641 0.27694 0.0
H433 H 0.47128 0.94765 0.25956 0.0
H434 H 0.54117 0.91734 0.27746 0.0
H435 H 0.47692 0.90873 0.26035 0.0
H436 H 0.55291 0.01352 0.33228 0.0
H437 H 0.59606 0.9887 0.2851 0.0
H438 H 0.47015 0.9372 0.17879 0.0
H439 H 0.53106 0.91655 0.20261 0.0
Li440 Li 0.97807 0.49797 0.23425 0.0
Li441 Li 0.99567 0.47902 0.26198 0.0
Li442 Li -0.00141 0.51713 0.25992 0.0
Li443 Li 0.01624 0.49503 0.2344 0.0
C444 C 0.95618 0.51364 0.26934 0.0
N445 N 0.92309 0.54103 0.27794 0.0
C446 C 0.94265 0.50974 0.28644 0.0
C447 C 0.95289 0.53149 0.25662 0.0
C448 C 0.926 0.52377 0.29052 0.0
C449 C 0.93608 0.54514 0.26123 0.0
C450 C 0.98214 0.45505 0.22761 0.0
C451 C 0.97327 0.42351 0.20793 0.0
N452 N 0.95537 0.4213 0.21975 0.0
C453 C 0.96365 0.45247 0.23957 0.0
C454 C 0.987 0.44047 0.21166 0.0
C455 C 0.95033 0.4353 0.23535 0.0
C456 C 0.95846 0.50125 0.19496 0.0
N457 N 0.95423 0.49837 0.21588 0.0
C458 C 0.91715 0.49541 0.20876 0.0
C459 C 0.93411 0.49528 0.22298 0.0
C460 C 0.92108 0.49826 0.18706 0.0
C461 C 0.94203 0.50114 0.18016 0.0
H462 H 0.97467 0.50346 0.1898 0.0
H463 H 0.9312 0.49251 0.23963 0.0
C464 C 0.98722 0.46004 0.30116 0.0
N465 N 0.99431 0.45595 0.28124 0.0
C466 C 0.98672 0.44394 0.31632 0.0
C467 C 0.00078 0.41972 0.29012 0.0
C468 C 0.00095 0.43628 0.27546 0.0
C469 C 0.9937 0.42348 0.3109 0.0
H470 H 0.98223 0.47591 0.30531 0.0
H471 H 0.00659 0.43347 0.25953 0.0
C472 C 0.01201 0.53682 0.2224 0.0
N473 N 0.03855 0.56917 0.20952 0.0
C474 C 0.03007 0.5418 0.23425 0.0
C475 C 0.00746 0.54827 0.20401 0.0
C476 C 0.04328 0.55821 0.22747 0.0
C477 C 0.02107 0.56458 0.19776 0.0
C478 C 0.03813 0.48384 0.27132 0.0
C479 C 0.05052 0.48932 0.28883 0.0
C480 C 0.04261 0.46527 0.26009 0.0
C481 C 0.06725 0.4761 0.29484 0.0
C482 C 0.05946 0.45246 0.2666 0.0
N483 N 0.07133 0.45809 0.2837 0.0
C484 C 0.00468 0.5389 0.29764 0.0
C485 C 0.99597 0.56161 0.26901 0.0
C486 C 0.00554 0.55609 0.31152 0.0
N487 N 2e-05 0.54196 0.27686 0.0
C488 C 0.99688 0.5793 0.28228 0.0
C489 C 0.0017 0.57668 0.30389 0.0
H490 H 0.0075 0.52302 0.30346 0.0
H491 H 0.99195 0.56358 0.25247 0.0
C492 C 0.03707 0.48427 0.19687 0.0
N493 N 0.04029 0.49255 0.21648 0.0
C494 C 0.05386 0.48268 0.18256 0.0
C495 C 0.07697 0.49813 0.20895 0.0
C496 C 0.05974 0.49937 0.22277 0.0
C497 C 0.07412 0.48977 0.1885 0.0
H498 H 0.02136 0.47916 0.19228 0.0
H499 H 0.06185 0.50594 0.23846 0.0
O500 O 0.97264 0.50008 0.26536 0.0
O501 O 0.99544 0.47179 0.23127 0.0
O502 O -0.00111 0.52068 0.22852 0.0
O503 O 0.02162 0.49661 0.26543 0.0
H504 H 0.94501 0.49601 0.29645 0.0
H505 H 0.96314 0.53479 0.2433 0.0
H506 H 0.9154 0.52094 0.3037 0.0
H507 H 0.93335 0.55901 0.25152 0.0
H508 H 0.97684 0.4121 0.19563 0.0
H509 H 0.9596 0.46353 0.252 0.0
H510 H 0.00124 0.44227 0.20226 0.0
H511 H 0.93598 0.43312 0.24448 0.0
H512 H 0.90121 0.49285 0.2146 0.0
H513 H 0.94563 0.50346 0.16353 0.0
H514 H 0.98142 0.44759 0.33223 0.0
H515 H 0.00609 0.40415 0.28523 0.0
H516 H 0.03386 0.53313 0.24853 0.0
H517 H 0.99356 0.54457 0.19465 0.0
H518 H 0.0573 0.56223 0.23648 0.0
H519 H 0.01774 0.57358 0.18355 0.0
H520 H 0.04723 0.50364 0.2977 0.0
H521 H 0.03321 0.46074 0.2465 0.0
H522 H 0.07697 0.48014 0.30838 0.0
H523 H 0.0631 0.43804 0.25807 0.0
H524 H 0.00884 0.55318 0.32811 0.0
H525 H 0.99399 0.59485 0.27562 0.0
H526 H 0.05089 0.47643 0.16684 0.0
H527 H 0.09236 0.50359 0.21424 0.0
Li528 Li 0.47814 0.99593 0.73609 0.0
Li529 Li 0.49769 0.97626 0.76027 0.0
Li530 Li 0.49663 0.01501 0.76373 0.0
Li531 Li 0.51694 0.99579 0.73348 0.0
C532 C 0.45191 0.99566 0.76873 0.0
N533 N 0.40826 0.99775 0.77156 0.0
C534 C 0.43961 0.97779 0.7643 0.0
C535 C 0.44204 0.01454 0.7748 0.0
C536 C 0.41755 0.97918 0.76574 0.0
C537 C 0.41994 0.01529 0.7761 0.0
C538 C 0.49974 0.95091 0.72678 0.0
C539 C 0.52178 0.92066 0.71895 0.0
N540 N 0.50494 0.90765 0.72237 0.0
C541 C 0.4826 0.93725 0.73004 0.0
C542 C 0.51947 0.94258 0.72107 0.0
C543 C 0.48557 0.91542 0.72782 0.0
C544 C 0.45193 0.9815 0.70314 0.0
N545 N 0.4534 0.99663 0.7184 0.0
C546 C 0.42094 0.01241 0.70676 0.0
C547 C 0.43836 0.01196 0.7204 0.0
C548 C 0.41901 0.99695 0.69087 0.0
C549 C 0.43478 0.98132 0.68919 0.0
H550 H 0.46425 0.96973 0.70155 0.0
H551 H 0.43996 0.02403 0.73241 0.0
C552 C 0.48313 0.94951 0.79262 0.0
N553 N 0.49843 0.9512 0.77755 0.0
C554 C 0.48281 0.93221 0.80635 0.0
C555 C 0.51419 0.91867 0.78906 0.0
C556 C 0.51387 0.93625 0.77561 0.0
C557 C 0.49849 0.91649 0.80469 0.0
H558 H 0.47133 0.96179 0.79425 0.0
H559 H 0.52614 0.93807 0.76385 0.0
C560 C 0.48681 0.03346 0.71875 0.0
N561 N 0.46453 0.05804 0.69017 0.0
C562 C 0.48746 0.02872 0.69712 0.0
C563 C 0.47496 0.05078 0.72585 0.0
C564 C 0.47603 0.04131 0.68292 0.0
C565 C 0.46379 0.06301 0.71115 0.0
C566 C 0.53407 0.98557 0.77926 0.0
C567 C 0.5282 0.98622 0.80061 0.0
C568 C 0.55179 0.97379 0.77308 0.0
C569 C 0.54007 0.97484 0.81545 0.0
C570 C 0.56328 0.96268 0.78841 0.0
N571 N 0.55721 0.96341 0.80909 0.0
C572 C 0.48883 0.03535 0.80225 0.0
C573 C 0.50547 0.05712 0.77654 0.0
C574 C 0.48844 0.05205 0.81673 0.0
N575 N 0.49711 0.03823 0.7826 0.0
C576 C 0.5054 0.0743 0.79052 0.0
C577 C 0.4967 0.07189 0.8109 0.0
H578 H 0.48241 0.02007 0.80662 0.0
H579 H 0.51203 0.05887 0.76079 0.0
C580 C 0.53723 0.99131 0.69453 0.0
N581 N 0.54036 0.99748 0.71491 0.0
C582 C 0.55371 0.99256 0.67986 0.0
C583 C 0.57644 0.00626 0.70753 0.0
C584 C 0.55943 0.0049 0.72166 0.0
C585 C 0.57362 0.00016 0.68629 0.0
H586 H 0.5219 0.98536 0.6897 0.0
H587 H 0.56137 0.00983 0.73797 0.0
O588 O 0.47353 0.99459 0.76738 0.0
O589 O 0.49712 0.97233 0.72886 0.0
O590 O 0.49759 0.02111 0.73293 0.0
O591 O 0.5224 0.99625 0.76446 0.0
H592 H 0.44701 0.96301 0.75975 0.0
H593 H 0.45128 0.02858 0.77815 0.0
H594 H 0.40783 0.9655 0.76225 0.0
H595 H 0.41207 0.02983 0.78064 0.0
H596 H 0.53698 0.91398 0.71467 0.0
H597 H 0.4672 0.94344 0.73428 0.0
H598 H 0.53293 0.95288 0.71858 0.0
H599 H 0.47248 0.90467 0.7304 0.0
H600 H 0.4091 0.02469 0.70869 0.0
H601 H 0.43416 0.96934 0.67691 0.0
H602 H 0.47068 0.93143 0.81847 0.0
H603 H 0.52655 0.90691 0.7872 0.0
H604 H 0.49647 0.01531 0.69138 0.0
H605 H 0.47412 0.05455 0.74256 0.0
H606 H 0.47627 0.03773 0.66615 0.0
H607 H 0.45444 0.07639 0.71642 0.0
H608 H 0.51447 0.99519 0.80562 0.0
H609 H 0.55643 0.97299 0.75658 0.0
H610 H 0.53563 0.97507 0.83201 0.0
H611 H 0.57695 0.95338 0.78384 0.0
H612 H 0.48193 0.04936 0.83238 0.0
H613 H 0.51179 0.08936 0.78533 0.0
H614 H 0.55096 0.98742 0.66371 0.0
H615 H 0.59151 0.01236 0.71305 0.0
Li616 Li -0.00069 0.5204 0.7356 0.0
Li617 Li 0.97881 0.50246 0.76154 0.0
Li618 Li 0.01869 0.50103 0.76265 0.0
Li619 Li 0.9969 0.48242 0.73504 0.0
C620 C 0.00271 0.54684 0.76919 0.0
N621 N 0.00921 0.58982 0.77458 0.0
C622 C 0.9869 0.5613 0.76355 0.0
C623 C 0.02182 0.55424 0.77764 0.0
C624 C 0.9905 0.58297 0.76636 0.0
C625 C 0.0248 0.57603 0.78024 0.0
C626 C 0.9524 0.50576 0.73113 0.0
C627 C 0.91721 0.49183 0.73664 0.0
N628 N 0.90904 0.51155 0.73368 0.0
C629 C 0.94363 0.5259 0.72814 0.0
C630 C 0.93908 0.48857 0.73538 0.0
C631 C 0.92168 0.52849 0.72947 0.0
C632 C 0.98975 0.54215 0.69844 0.0
N633 N 0.00132 0.54398 0.71652 0.0
C634 C 0.01599 0.57681 0.70452 0.0
C635 C 0.0146 0.5607 0.71964 0.0
C636 C 0.00407 0.57534 0.68581 0.0
C637 C 0.99086 0.55771 0.68282 0.0
H638 H 0.97988 0.52837 0.69599 0.0
H639 H 0.02449 0.56135 0.73357 0.0
C640 C 0.95043 0.48559 0.79152 0.0
N641 N 0.95492 0.50327 0.78007 0.0
C642 C 0.93375 0.48563 0.80603 0.0
C643 C 0.92644 0.52203 0.79659 0.0
C644 C 0.94332 0.5213 0.78231 0.0
C645 C 0.92163 0.50409 0.80885 0.0
H646 H 0.96 0.47154 0.78962 0.0
H647 H 0.94726 0.53519 0.77318 0.0
C648 C 0.03331 0.50782 0.71479 0.0
N649 N 0.05284 0.5259 0.68004 0.0
C650 C 0.02675 0.50248 0.69431 0.0
C651 C 0.04986 0.52225 0.71762 0.0
C652 C 0.03681 0.51182 0.67695 0.0
C653 C 0.05952 0.53124 0.69984 0.0
C654 C 0.00037 0.45611 0.76689 0.0
C655 C 0.02034 0.44764 0.77145 0.0
C656 C 0.98347 0.4425 0.76241 0.0
C657 C 0.02309 0.42567 0.77131 0.0
C658 C 0.98688 0.42062 0.76238 0.0
N659 N 0.00645 0.41273 0.76679 0.0
C660 C 0.03753 0.50094 0.80212 0.0
C661 C 0.06247 0.49864 0.77408 0.0
C662 C 0.05375 0.50089 0.8171 0.0
N663 N 0.04216 0.49999 0.78112 0.0
C664 C 0.07925 0.49861 0.78855 0.0
C665 C 0.07498 0.49991 0.8104 0.0
H666 H 0.02116 0.50186 0.80716 0.0
H667 H 0.06563 0.4977 0.75726 0.0
C668 C 0.9787 0.45524 0.70475 0.0
N669 N 0.99619 0.45839 0.7169 0.0
C670 C 0.97789 0.43833 0.69056 0.0
C671 C 0.0132 0.42823 0.70153 0.0
C672 C 0.01334 0.44542 0.7155 0.0
C673 C 0.99534 0.42463 0.6887 0.0
H674 H 0.96549 0.46606 0.70581 0.0
H675 H 0.02723 0.4486 0.72503 0.0
O676 O -0.00054 0.52554 0.76677 0.0
O677 O 0.9739 0.50295 0.73025 0.0
O678 O 0.02322 0.49932 0.73198 0.0
O679 O 0.99745 0.4776 0.76659 0.0
H680 H 0.97219 0.55592 0.75665 0.0
H681 H 0.03425 0.54332 0.78209 0.0
H682 H 0.97846 0.59433 0.76191 0.0
H683 H 0.03951 0.58198 0.78672 0.0
H684 H 0.90675 0.47869 0.74005 0.0
H685 H 0.95365 0.53945 0.72508 0.0
H686 H 0.94557 0.47293 0.73801 0.0
H687 H 0.9147 0.544 0.72728 0.0
H688 H 0.02668 0.58998 0.70717 0.0
H689 H 0.98142 0.55601 0.66858 0.0
H690 H 0.93045 0.47138 0.81501 0.0
H691 H 0.91766 0.53666 0.79846 0.0
H692 H 0.01385 0.49145 0.69186 0.0
H693 H 0.05491 0.52678 0.73338 0.0
H694 H 0.03182 0.50795 0.661 0.0
H695 H 0.07225 0.54256 0.70178 0.0
H696 H 0.03362 0.4579 0.77489 0.0
H697 H 0.96794 0.44877 0.75871 0.0
H698 H 0.03847 0.4189 0.77472 0.0
H699 H 0.97397 0.40992 0.75879 0.0
H700 H 0.04968 0.50148 0.83377 0.0
H701 H 0.09537 0.49795 0.78268 0.0
H702 H 0.96376 0.43605 0.68108 0.0
H703 H 0.02711 0.41824 0.70036 0.0
Li704 Li 0.23524 0.49617 0.01932 0.0
Li705 Li 0.26218 0.47793 -0.00101 0.0
Li706 Li 0.26261 0.51678 8e-05 0.0
Li707 Li 0.23616 0.49755 0.98023 0.0
C708 C 0.27131 0.50747 0.04221 0.0
N709 N 0.28159 0.52999 0.07834 0.0
C710 C 0.28813 0.50088 0.05502 0.0
C711 C 0.25972 0.52553 0.04776 0.0
C712 C 0.29307 0.51247 0.07323 0.0
C713 C 0.26516 0.5367 0.06608 0.0
C714 C 0.23094 0.4514 0.00057 0.0
C715 C 0.23238 0.41673 0.98455 0.0
N716 N 0.23195 0.40778 0.00417 0.0
C717 C 0.23036 0.44188 0.02056 0.0
C718 C 0.23182 0.43876 0.9824 0.0
C719 C 0.23093 0.41979 0.02205 0.0
C720 C 0.19616 0.49941 0.03915 0.0
N721 N 0.21682 0.49477 0.043 0.0
C722 C 0.20912 0.48722 0.07932 0.0
C723 C 0.22352 0.48861 0.06254 0.0
C724 C 0.18763 0.49202 0.07582 0.0
C725 C 0.18125 0.49823 0.05541 0.0
H726 H 0.19127 0.50382 0.02333 0.0
H727 H 0.23996 0.48447 0.06505 0.0
C728 C 0.28915 0.44662 0.98127 0.0
N729 N 0.27999 0.45366 -0.00056 0.0
C730 C 0.30297 0.42938 0.98171 0.0
C731 C 0.29761 0.42687 0.01958 0.0
C732 C 0.28389 0.4442 0.01839 0.0
C733 C 0.30749 0.41935 0.00107 0.0
H734 H 0.28608 0.45462 0.96649 0.0
H735 H 0.27647 0.45026 0.03262 0.0
C736 C 0.22327 0.53866 0.99047 0.0
N737 N 0.2064 0.57348 0.96991 0.0
C738 C 0.23468 0.54872 0.97439 0.0
C739 C 0.20329 0.54638 0.99617 0.0
C740 C 0.22589 0.56627 0.96416 0.0
C741 C 0.19503 0.56399 0.98557 0.0
C742 C 0.26971 0.49922 0.95403 0.0
C743 C 0.27886 0.51722 0.94489 0.0
C744 C 0.26307 0.48254 0.94104 0.0
C745 C 0.28096 0.51832 0.92287 0.0
C746 C 0.26544 0.48426 0.91909 0.0
N747 N 0.27425 0.50197 0.91053 0.0
C748 C 0.30153 0.53676 0.99659 0.0
C749 C 0.27419 0.56011 0.00754 0.0
C750 C 0.31625 0.55322 0.99688 0.0
N751 N 0.28095 0.54053 0.0016 0.0
C752 C 0.28838 0.57711 0.00794 0.0
C753 C 0.30972 0.5738 0.00238 0.0
H754 H 0.30645 0.52092 0.99225 0.0
H755 H 0.25778 0.56259 0.01183 0.0
C756 C 0.20061 0.48481 0.95735 0.0
N757 N 0.2175 0.49813 0.95632 0.0
C758 C 0.18562 0.48448 0.9411 0.0
C759 C 0.20567 0.51155 0.92289 0.0
C760 C 0.22022 0.51144 0.93957 0.0
C761 C 0.18802 0.49802 0.92362 0.0
H762 H 0.19866 0.47454 0.97092 0.0
H763 H 0.23359 0.52208 0.9391 0.0
O764 O 0.26642 0.49628 0.02429 0.0
O765 O 0.23096 0.473 -0.00118 0.0
O766 O 0.2316 0.52145 0.00072 0.0
O767 O 0.26758 0.49786 0.97558 0.0
H768 H 0.29726 0.48693 0.05092 0.0
H769 H 0.24662 0.53088 0.03808 0.0
H770 H 0.30605 0.50755 0.08331 0.0
H771 H 0.25633 0.5507 0.07057 0.0
H772 H 0.23317 0.40675 0.97063 0.0
H773 H 0.22976 0.45144 0.03478 0.0
H774 H 0.23213 0.44588 0.96682 0.0
H775 H 0.23065 0.4122 0.03742 0.0
H776 H 0.21465 0.48203 0.09472 0.0
H777 H 0.1649 0.50226 0.05204 0.0
H778 H 0.31053 0.42438 0.96712 0.0
H779 H 0.30049 0.41949 0.03481 0.0
H780 H 0.25014 0.54299 0.9698 0.0
H781 H 0.19428 0.53892 0.0087 0.0
H782 H 0.23456 0.57415 0.95164 0.0
H783 H 0.17959 0.57012 0.98983 0.0
H784 H 0.28424 0.53023 0.95466 0.0
H785 H 0.25588 0.46856 0.9478 0.0
H786 H 0.28793 0.53219 0.91559 0.0
H787 H 0.26021 0.47154 0.90885 0.0
H788 H 0.33261 0.5498 0.99295 0.0
H789 H 0.2826 0.5927 0.01218 0.0
H790 H 0.17232 0.47368 0.9422 0.0
H791 H 0.20795 0.52243 0.90982 0.0
Li792 Li 0.5187 0.26173 0.99713 0.0
Li793 Li 0.49932 0.23536 0.0164 0.0
Li794 Li 0.49942 0.23508 0.97823 0.0
Li795 Li 0.48056 0.26209 0.99707 0.0
C796 C 0.54133 0.22577 0.00926 0.0
N797 N 0.57646 0.21552 0.03333 0.0
C798 C 0.54651 0.23783 0.02712 0.0
C799 C 0.55402 0.2085 0.00365 0.0
C800 C 0.56433 0.23239 0.03908 0.0
C801 C 0.57171 0.20357 0.01602 0.0
C802 C 0.48791 0.27146 0.03917 0.0
C803 C 0.45828 0.26502 0.06246 0.0
N804 N 0.46407 0.28203 0.07437 0.0
C805 C 0.49358 0.28886 0.05164 0.0
C806 C 0.47013 0.25941 0.04462 0.0
C807 C 0.48132 0.29396 0.06937 0.0
C808 C 0.53978 0.29981 0.0038 0.0
N809 N 0.54282 0.27964 0.99696 0.0
C810 C 0.57942 0.28659 0.99021 0.0
C811 C 0.5621 0.27283 0.99013 0.0
C812 C 0.5768 0.30755 0.9973 0.0
C813 C 0.55662 0.31411 0.0041 0.0
H814 H 0.52419 0.3048 0.00891 0.0
H815 H 0.56406 0.25671 0.98465 0.0
C816 C 0.49217 0.19715 0.03674 0.0
N817 N 0.49929 0.21714 0.04026 0.0
C818 C 0.49208 0.18233 0.05312 0.0
C819 C 0.50659 0.20902 0.07652 0.0
C820 C 0.50642 0.22334 0.05964 0.0
C821 C 0.49946 0.18816 0.07331 0.0
H822 H 0.48668 0.19272 0.02111 0.0
H823 H 0.51218 0.23931 0.06195 0.0
C824 C 0.51165 0.27043 0.95489 0.0
N825 N 0.5359 0.27957 0.91958 0.0
C826 C 0.50621 0.2874 0.94174 0.0
C827 C 0.52944 0.2581 0.95007 0.0
C828 C 0.51867 0.29176 0.92396 0.0
C829 C 0.54149 0.26298 0.93216 0.0
C830 C 0.45721 0.22655 0.98547 0.0
C831 C 0.45242 0.23844 0.96739 0.0
C832 C 0.44401 0.20979 0.99136 0.0
C833 C 0.43448 0.23332 0.95548 0.0
C834 C 0.4262 0.20517 0.97903 0.0
N835 N 0.42185 0.21692 0.9615 0.0
C836 C 0.50525 0.19617 0.95882 0.0
C837 C 0.49257 0.22241 0.93508 0.0
C838 C 0.50494 0.18096 0.94279 0.0
N839 N 0.49911 0.21638 0.95472 0.0
C840 C 0.49209 0.20772 0.91852 0.0
C841 C 0.49822 0.18664 0.92234 0.0
H842 H 0.51026 0.19186 0.97465 0.0
H843 H 0.48752 0.23855 0.93231 0.0
C844 C 0.45975 0.30041 0.99001 0.0
N845 N 0.45672 0.2804 0.99731 0.0
C846 C 0.44319 0.31506 0.99048 0.0
C847 C 0.42066 0.28815 0.00588 0.0
C848 C 0.43767 0.27402 0.0051 0.0
C849 C 0.42334 0.30903 -0.00138 0.0
H850 H 0.47513 0.30501 0.98398 0.0
H851 H 0.43574 0.25804 0.01097 0.0
O852 O 0.52391 0.23062 0.99728 0.0
O853 O 0.49978 0.26643 0.02171 0.0
O854 O 0.49958 0.26613 0.97239 0.0
O855 O 0.47473 0.23112 0.99742 0.0
H856 H 0.53694 0.25127 0.03172 0.0
H857 H 0.55021 0.19901 0.98987 0.0
H858 H 0.56851 0.24159 0.05293 0.0
H859 H 0.58168 0.19025 0.01185 0.0
H860 H 0.44448 0.25584 0.06685 0.0
H861 H 0.50731 0.29834 0.04764 0.0
H862 H 0.4655 0.24586 0.03522 0.0
H863 H 0.48552 0.30739 0.07916 0.0
H864 H 0.59473 0.28081 0.98502 0.0
H865 H 0.55378 0.33021 0.00933 0.0
H866 H 0.48619 0.16651 0.05002 0.0
H867 H 0.51262 0.21408 0.09178 0.0
H868 H 0.49249 0.29709 0.94525 0.0
H869 H 0.5339 0.24487 0.95998 0.0
H870 H 0.51463 0.30485 0.91364 0.0
H871 H 0.55528 0.25357 0.92825 0.0
H872 H 0.46239 0.2515 0.96257 0.0
H873 H 0.4475 0.20044 0.00532 0.0
H874 H 0.43059 0.24238 0.94145 0.0
H875 H 0.41584 0.19223 0.98341 0.0
H876 H 0.51001 0.16495 0.94635 0.0
H877 H 0.48657 0.21267 0.90304 0.0
H878 H 0.44588 0.3309 0.98446 0.0
H879 H 0.40573 0.28291 0.01252 0.0
Li880 Li 0.73243 0.51746 0.99821 0.0
Li881 Li 0.76093 0.49737 0.01727 0.0
Li882 Li 0.76134 0.49915 0.97849 0.0
Li883 Li 0.73556 0.47884 0.9968 0.0
C884 C 0.77965 0.53455 0.99145 0.0
N885 N 0.8131 0.55622 0.97337 0.0
C886 C 0.8004 0.53049 0.99807 0.0
C887 C 0.77588 0.54967 0.97571 0.0
C888 C 0.8171 0.54162 0.98871 0.0
C889 C 0.79302 0.56045 0.96674 0.0
C890 C 0.72765 0.49878 0.04302 0.0
C891 C 0.73068 0.48415 0.07821 0.0
N892 N 0.72464 0.50312 0.0865 0.0
C893 C 0.72134 0.51809 0.05187 0.0
C894 C 0.73221 0.48162 0.05626 0.0
C895 C 0.71995 0.51997 0.0739 0.0
C896 C 0.69293 0.53756 0.99782 0.0
N897 N 0.71409 0.54116 -0.00073 0.0
C898 C 0.70825 0.5784 0.00294 0.0
C899 C 0.72197 0.56103 0.00191 0.0
C900 C 0.68625 0.57521 0.00127 0.0
C901 C 0.67867 0.55443 -0.00136 0.0
H902 H 0.68712 0.52156 0.99617 0.0
H903 H 0.73888 0.56336 0.00343 0.0
C904 C 0.79357 0.48187 0.04307 0.0
N905 N 0.77879 0.49744 0.04152 0.0
C906 C 0.80768 0.48153 0.06006 0.0
C907 C 0.79108 0.51328 0.07366 0.0
C908 C 0.77746 0.51315 0.0562 0.0
C909 C 0.80655 0.49735 0.07573 0.0
H910 H 0.79471 0.46992 0.03085 0.0
H911 H 0.76591 0.52566 0.05429 0.0
C912 C 0.71947 0.48695 0.95856 0.0
N913 N 0.69661 0.46187 0.93082 0.0
C914 C 0.72976 0.47632 0.94204 0.0
C915 C 0.69754 0.48483 0.96092 0.0
C916 C 0.71792 0.46375 0.92817 0.0
C917 C 0.68627 0.47205 0.94677 0.0
C918 C 0.76869 0.45326 0.99453 0.0
C919 C 0.77422 0.44461 0.97489 0.0
C920 C 0.76516 0.43987 0.01182 0.0
C921 C 0.77593 0.42262 0.97283 0.0
C922 C 0.76698 0.41797 0.0091 0.0
N923 N 0.77227 0.40987 0.98983 0.0
C924 C 0.80001 0.49379 0.95802 0.0
C925 C 0.77456 0.51199 0.93718 0.0
C926 C 0.81505 0.4956 0.94198 0.0
N927 N 0.78023 0.50182 0.95531 0.0
C928 C 0.78913 0.51412 0.92063 0.0
C929 C 0.8097 0.50587 0.92296 0.0
H930 H 0.80409 0.486 0.97275 0.0
H931 H 0.75877 0.51851 0.93564 0.0
C932 C 0.70384 0.45179 0.01221 0.0
N933 N 0.71829 0.45378 0.99635 0.0
C934 C 0.6902 0.43442 0.0128 0.0
C935 C 0.70638 0.42141 0.98061 0.0
C936 C 0.71982 0.43897 0.98073 0.0
C937 C 0.69129 0.41901 0.99678 0.0
H938 H 0.70266 0.46386 0.02429 0.0
H939 H 0.73128 0.44086 0.96819 0.0
O940 O 0.76317 0.52331 -0.00011 0.0
O941 O 0.72925 0.49664 0.02151 0.0
O942 O 0.73081 0.49926 0.97236 0.0
O943 O 0.76697 0.47474 0.99688 0.0
H944 H 0.80359 0.51871 0.01012 0.0
H945 H 0.75992 0.5528 0.97025 0.0
H946 H 0.83326 0.53857 0.99359 0.0
H947 H 0.79036 0.57209 0.95445 0.0
H948 H 0.73429 0.47104 0.08865 0.0
H949 H 0.7177 0.53153 0.04188 0.0
H950 H 0.73701 0.46654 0.04965 0.0
H951 H 0.7152 0.53485 0.08098 0.0
H952 H 0.7148 0.59408 0.00535 0.0
H953 H 0.66189 0.55119 0.99704 0.0
H954 H 0.81967 0.46926 0.06058 0.0
H955 H 0.78947 0.52573 0.08536 0.0
H956 H 0.74673 0.47744 0.94012 0.0
H957 H 0.68932 0.49269 0.97371 0.0
H958 H 0.7257 0.45537 0.91539 0.0
H959 H 0.66932 0.47016 0.94852 0.0
H960 H 0.7769 0.45471 0.96131 0.0
H961 H 0.76095 0.44631 0.02714 0.0
H962 H 0.78007 0.4157 0.9577 0.0
H963 H 0.76417 0.40741 0.02231 0.0
H964 H 0.83064 0.4888 0.94435 0.0
H965 H 0.78446 0.52236 0.90631 0.0
H966 H 0.67856 0.43334 0.02537 0.0
H967 H 0.7078 0.40982 0.96802 0.0
Li968 Li 0.49755 0.76383 0.0185 0.0
Li969 Li 0.47807 0.7364 0.00025 0.0
Li970 Li 0.51712 0.73596 -0.00095 0.0
Li971 Li 0.49649 0.76183 0.97964 0.0
C972 C 0.48791 0.72603 0.04216 0.0
N973 N 0.46682 0.7119 0.07789 0.0
C974 C 0.47235 0.73861 0.05166 0.0
C975 C 0.49282 0.70629 0.05094 0.0
C976 C 0.46185 0.7312 0.06968 0.0
C977 C 0.48195 0.69941 0.06897 0.0
C978 C 0.45135 0.76937 0.00055 0.0
C979 C 0.4166 0.76298 0.9859 0.0
N980 N 0.40772 0.77277 0.00293 0.0
C981 C 0.44187 0.77947 0.01785 0.0
C982 C 0.43862 0.76116 0.98438 0.0
C983 C 0.4198 0.78099 0.01879 0.0
C984 C 0.4932 0.8033 0.0378 0.0
N985 N 0.4993 0.78302 0.04161 0.0
C986 C 0.50821 0.79161 0.07741 0.0
C987 C 0.5069 0.77697 0.06086 0.0
C988 C 0.50184 0.81267 0.07399 0.0
C989 C 0.49428 0.81845 0.05385 0.0
H990 H 0.48742 0.80765 0.02225 0.0
H991 H 0.51202 0.7608 0.06334 0.0
C992 C 0.45439 0.70116 0.98758 0.0
N993 N 0.4542 0.71765 0.00145 0.0
C994 C 0.43778 0.68659 0.9873 0.0
C995 C 0.42117 0.70591 0.01591 0.0
C996 C 0.43803 0.72023 0.01551 0.0
C997 C 0.42092 0.68886 0.00163 0.0
H998 H 0.46754 0.69924 0.97677 0.0
H999 H 0.438 0.73351 0.02628 0.0
C1000 C 0.53942 0.77292 0.00886 0.0
N1001 N 0.57506 0.7852 0.03116 0.0
C1002 C 0.55121 0.79044 0.00221 0.0
C1003 C 0.54572 0.76168 0.0269 0.0
C1004 C 0.5692 0.79639 0.01368 0.0
C1005 C 0.56379 0.76813 0.03794 0.0
C1006 C 0.49899 0.73017 0.95431 0.0
C1007 C 0.51914 0.73096 0.94515 0.0
C1008 C 0.48104 0.72969 0.94133 0.0
C1009 C 0.521 0.73144 0.92308 0.0
C1010 C 0.48357 0.73019 0.91933 0.0
N1011 N 0.50333 0.73106 0.91074 0.0
C1012 C 0.53833 0.6982 0.00662 0.0
C1013 C 0.56051 0.72459 0.99166 0.0
C1014 C 0.55525 0.68406 0.00777 0.0
N1015 N 0.54129 0.71808 -0.00104 0.0
C1016 C 0.57789 0.71085 0.99231 0.0
C1017 C 0.57537 0.69036 0.00065 0.0
H1018 H 0.52274 0.69333 0.01172 0.0
H1019 H 0.56235 0.74042 0.98537 0.0
C1020 C 0.47813 0.78443 0.94531 0.0
N1021 N 0.49669 0.77876 0.95464 0.0
C1022 C 0.47813 0.79758 0.92755 0.0
C1023 C 0.5164 0.79869 0.92915 0.0
C1024 C 0.51564 0.78543 0.94687 0.0
C1025 C 0.49743 0.80515 0.9194 0.0
H1026 H 0.4633 0.77894 0.95174 0.0
H1027 H 0.53017 0.78064 0.95462 0.0
O1028 O 0.49845 0.73302 0.0245 0.0
O1029 O 0.47297 0.76778 -0.00063 0.0
O1030 O 0.52165 0.7671 0.99787 0.0
O1031 O 0.49684 0.73039 0.97588 0.0
H1032 H 0.46826 0.75385 0.04508 0.0
H1033 H 0.50492 0.69635 0.04398 0.0
H1034 H 0.44971 0.74078 0.0771 0.0
H1035 H 0.48558 0.68415 0.07589 0.0
H1036 H 0.40657 0.75651 0.97359 0.0
H1037 H 0.45142 0.78607 0.03047 0.0
H1038 H 0.44561 0.75301 0.97103 0.0
H1039 H 0.41226 0.7887 0.03213 0.0
H1040 H 0.51441 0.78658 0.0926 0.0
H1041 H 0.489 0.83446 0.05059 0.0
H1042 H 0.43832 0.67347 0.97624 0.0
H1043 H 0.40836 0.70831 0.02708 0.0
H1044 H 0.54649 0.79937 0.98834 0.0
H1045 H 0.53677 0.74812 0.03235 0.0
H1046 H 0.57848 0.80991 0.00871 0.0
H1047 H 0.56884 0.75957 0.05191 0.0
H1048 H 0.53317 0.7315 0.95497 0.0
H1049 H 0.46533 0.7291 0.94815 0.0
H1050 H 0.53649 0.73219 0.91578 0.0
H1051 H 0.46982 0.72993 0.90909 0.0
H1052 H 0.55257 0.66824 0.01389 0.0
H1053 H 0.59316 0.71626 0.98664 0.0
H1054 H 0.46315 0.80184 0.92035 0.0
H1055 H 0.53162 0.80429 0.92355 0.0
H1056 H 0.98548 0.35214 0.4279 0.0
H1057 H 0.0118 0.30705 0.38354 0.0
H1058 H 0.98377 0.37868 0.39995 0.0
H1059 H 0.00928 0.33339 0.35532 0.0
H1060 H 0.0248 0.39406 0.31769 0.0
H1061 H 0.02593 0.36658 0.34482 0.0
H1062 H 0.96451 0.3866 0.36762 0.0
H1063 H 0.96344 0.41415 0.34052 0.0
C1064 C 0.99093 0.3479 0.41218 0.0
C1065 C -0.00111 0.32751 0.40798 0.0
C1066 C 0.98969 0.36303 0.39609 0.0
C1067 C 0.99634 0.35814 0.37539 0.0
C1068 C 0.00421 0.33772 0.37115 0.0
C1069 C 0.00544 0.32256 0.38726 0.0
C1070 C 0.01143 0.39243 0.32833 0.0
C1071 C 0.99404 0.40631 0.32698 0.0
C1072 C 0.01207 0.37667 0.34388 0.0
C1073 C 0.99533 0.37443 0.35841 0.0
C1074 C 0.97783 0.38814 0.35688 0.0
C1075 C 0.9772 0.40391 0.34136 0.0
H1076 H 0.64871 0.01519 0.42679 0.0
H1077 H 0.69473 0.98977 0.38289 0.0
H1078 H 0.62207 0.01529 0.39887 0.0
H1079 H 0.66798 0.98985 0.35486 0.0
H1080 H 0.61837 0.01318 0.3059 0.0
H1081 H 0.64621 0.01373 0.33285 0.0
H1082 H 0.60199 0.98901 0.37892 0.0
H1083 H 0.57429 0.98844 0.35211 0.0
C1084 C 0.6531 0.0095 0.41119 0.0
C1085 C 0.67377 0.00229 0.40709 0.0
C1086 C 0.63784 0.00956 0.39519 0.0
C1087 C 0.64286 0.00239 0.3747 0.0
C1088 C 0.66367 0.99563 0.37044 0.0
C1089 C 0.67898 0.99559 0.38648 0.0
C1090 C 0.61468 0.00769 0.32175 0.0
C1091 C 0.59408 0.00093 0.32692 0.0
C1092 C 0.63061 0.00801 0.33717 0.0
C1093 C 0.62625 0.00159 0.35806 0.0
C1094 C 0.60575 0.99449 0.36309 0.0
C1095 C 0.58987 0.99416 0.34772 0.0
H1096 H 0.02891 0.58334 0.33707 0.0
H1097 H 0.97629 0.61205 0.30386 0.0
H1098 H 0.02882 0.61233 0.36231 0.0
H1099 H 0.97723 0.64192 0.32824 0.0
H1100 H 0.96785 0.67714 0.39153 0.0
H1101 H 0.96843 0.65036 0.36365 0.0
H1102 H 0.03688 0.64834 0.36721 0.0
H1103 H 0.03606 0.67447 0.39568 0.0
C1104 C 0.01736 0.59589 0.33506 0.0
C1105 C 0.00248 0.5952 0.31849 0.0
C1106 C 0.01755 0.61276 0.34937 0.0
C1107 C 0.00304 0.62956 0.34734 0.0
C1108 C 0.98846 0.62913 0.33048 0.0
C1109 C 0.98812 0.61212 0.31629 0.0
C1110 C 0.98299 0.67111 0.38612 0.0
C1111 C 0.00189 0.67772 0.3958 0.0
C1112 C 0.98337 0.65581 0.37009 0.0
C1113 C 0.00271 0.64701 0.36323 0.0
C1114 C 0.02167 0.65435 0.37241 0.0
C1115 C 0.02124 0.66941 0.38862 0.0
H1116 H 0.31672 0.02955 0.39203 0.0
H1117 H 0.33768 0.96776 0.41277 0.0
H1118 H 0.3434 0.02913 0.36395 0.0
H1119 H 0.36426 0.96732 0.38477 0.0
H1120 H 0.42531 0.98609 0.35075 0.0
H1121 H 0.39719 0.98596 0.37712 0.0
H1122 H 0.35347 0.0111 0.33078 0.0
H1123 H 0.38172 0.01119 0.30426 0.0
C1124 C 0.32684 0.01578 0.39043 0.0
C1125 C 0.32523 -0.00123 0.40472 0.0
C1126 C 0.34211 0.01553 0.37435 0.0
C1127 C 0.35605 0.99826 0.37226 0.0
C1128 C 0.35404 0.98104 0.38624 0.0
C1129 C 0.33882 0.9813 0.40228 0.0
C1130 C 0.40965 0.99135 0.34609 0.0
C1131 C 0.40572 -0.00148 0.32536 0.0
C1132 C 0.39352 0.99128 0.36121 0.0
C1133 C 0.37307 -0.0016 0.35601 0.0
C1134 C 0.36913 0.00571 0.33533 0.0
C1135 C 0.3853 0.00576 0.32015 0.0
H1136 H 0.00955 0.56973 0.6434 0.0
H1137 H 0.00179 0.61824 0.69103 0.0
H1138 H 0.01016 0.59674 0.61583 0.0
H1139 H 0.00176 0.64538 0.66341 0.0
H1140 H 0.02027 0.69011 0.60965 0.0
H1141 H 0.02279 0.66333 0.63739 0.0
H1142 H 0.98615 0.62014 0.59885 0.0
H1143 H 0.98479 0.6463 0.57071 0.0
C1144 C 0.00786 0.58621 0.64791 0.0
C1145 C 0.00547 0.59192 0.66929 0.0
C1146 C 0.00813 0.6017 0.63214 0.0
C1147 C 0.00577 0.62325 0.63735 0.0
C1148 C 0.00385 0.62897 0.65883 0.0
C1149 C 0.0038 0.61345 0.67465 0.0
C1150 C 0.013 0.6748 0.60699 0.0
C1151 C 0.00231 0.67039 0.58792 0.0
C1152 C 0.01422 0.65953 0.62302 0.0
C1153 C 0.00471 0.63955 0.62037 0.0
C1154 C 0.99396 0.63522 0.60133 0.0
C1155 C 0.99287 0.65039 0.58529 0.0
H1156 H 0.39598 0.96334 0.67617 0.0
H1157 H 0.40136 0.03143 0.67132 0.0
H1158 H 0.3678 0.96369 0.64974 0.0
H1159 H 0.37311 0.03177 0.6449 0.0
H1160 H 0.30876 0.02521 0.61128 0.0
H1161 H 0.33491 0.02507 0.63986 0.0
H1162 H 0.36533 0.97058 0.61166 0.0
H1163 H 0.3394 0.97078 0.58315 0.0
C1164 C 0.39117 0.97838 0.66942 0.0
C1165 C 0.401 0.99734 0.67574 0.0
C1166 C 0.37502 0.97858 0.6543 0.0
C1167 C 0.36832 0.99775 0.64513 0.0
C1168 C 0.37776 0.01678 0.65184 0.0
C1169 C 0.39394 0.01658 0.66697 0.0
C1170 C 0.3211 0.01328 0.61115 0.0
C1171 C 0.32193 0.99795 0.59498 0.0
C1172 C 0.33605 0.01319 0.62752 0.0
C1173 C 0.35212 0.99775 0.62807 0.0
C1174 C 0.35291 0.98243 0.61192 0.0
C1175 C 0.33802 0.98255 0.59558 0.0
H1176 H 0.02594 0.31802 0.6066 0.0
H1177 H 0.96323 0.33736 0.58708 0.0
H1178 H 0.02565 0.34502 0.63431 0.0
H1179 H 0.96285 0.36423 0.61484 0.0
H1180 H 0.9809 0.42603 0.64797 0.0
H1181 H 0.98044 0.39758 0.62195 0.0
H1182 H 0.00887 0.35522 0.66764 0.0
H1183 H 0.00942 0.38384 0.69376 0.0
C1184 C 0.01198 0.32784 0.60843 0.0
C1185 C 0.99466 0.32566 0.59458 0.0
C1186 C 0.0118 0.3433 0.62431 0.0
C1187 C 0.99428 0.35687 0.62669 0.0
C1188 C 0.97676 0.35431 0.61316 0.0
C1189 C 0.97696 0.33891 0.59727 0.0
C1190 C 0.98685 0.41059 0.65256 0.0
C1191 C 0.9951 0.40715 0.67296 0.0
C1192 C 0.98656 0.39427 0.63764 0.0
C1193 C 0.9945 0.37409 0.64275 0.0
C1194 C 0.00284 0.37065 0.66314 0.0
C1195 C 0.00316 0.38702 0.67809 0.0
H1196 H 0.57194 0.01565 0.64601 0.0
H1197 H 0.61499 0.98823 0.69162 0.0
H1198 H 0.6003 0.01685 0.61985 0.0
H1199 H 0.6434 0.98909 0.66531 0.0
H1200 H 0.69385 0.01199 0.61785 0.0
H1201 H 0.66631 0.0124 0.64511 0.0
H1202 H 0.62018 0.99238 0.59858 0.0
H1203 H 0.64756 0.99224 0.57144 0.0
C1204 C 0.58747 0.00977 0.65039 0.0
C1205 C 0.59122 0.00171 0.6708 0.0
C1206 C 0.60371 0.0104 0.63539 0.0
C1207 C 0.62409 0.00287 0.64041 0.0
C1208 C 0.62796 0.99521 0.66099 0.0
C1209 C 0.61169 0.99469 0.67605 0.0
C1210 C 0.67783 0.00759 0.61352 0.0
C1211 C 0.67283 0.00224 0.59248 0.0
C1212 C 0.66206 0.0078 0.62912 0.0
C1213 C 0.641 0.00257 0.624 0.0
C1214 C 0.63613 0.99696 0.60299 0.0
C1215 C 0.65183 0.99684 0.58742 0.0
H1216 H 0.38134 0.30242 0.98979 0.0
H1217 H 0.42539 0.35071 0.01022 0.0
H1218 H 0.35239 0.32801 0.99183 0.0
H1219 H 0.39666 0.37644 0.01141 0.0
H1220 H 0.3381 0.41262 0.03103 0.0
H1221 H 0.36508 0.385 0.03154 0.0
H1222 H 0.34003 0.35941 0.97315 0.0
H1223 H 0.31247 0.38649 0.97312 0.0
C1224 C 0.38483 0.31847 0.99477 0.0
C1225 C 0.40568 0.32454 -0.0002 0.0
C1226 C 0.36829 0.33318 0.99573 0.0
C1227 C 0.37222 0.35426 0.00178 0.0
C1228 C 0.39304 0.36027 0.00694 0.0
C1229 C 0.40957 0.34558 0.00598 0.0
C1230 C 0.3381 0.40087 0.01851 0.0
C1231 C 0.32316 0.4018 0.002 0.0
C1232 C 0.35373 0.3852 0.01866 0.0
C1233 C 0.35481 0.3701 0.0023 0.0
C1234 C 0.33955 0.3707 0.98607 0.0
C1235 C 0.3239 0.38637 0.98593 0.0
H1236 H 0.31285 0.60699 0.03037 0.0
H1237 H 0.34139 0.58108 0.97372 0.0
H1238 H 0.33829 0.63606 0.02983 0.0
H1239 H 0.36749 0.60935 0.97389 0.0
H1240 H 0.39939 0.67297 0.96768 0.0
H1241 H 0.37141 0.64635 0.96774 0.0
H1242 H 0.37518 0.64266 0.03608 0.0
H1243 H 0.40283 0.66968 0.03595 0.0
C1244 C 0.3245 0.60751 0.01778 0.0
C1245 C 0.32509 0.59165 0.00212 0.0
C1246 C 0.33926 0.62403 0.01762 0.0
C1247 C 0.35498 0.62505 0.00184 0.0
C1248 C 0.35546 0.60925 0.98613 0.0
C1249 C 0.34066 0.59283 0.98621 0.0
C1250 C 0.3942 0.66645 0.98269 0.0
C1251 C 0.40333 0.67331 0.0018 0.0
C1252 C 0.37822 0.65116 0.98275 0.0
C1253 C 0.37112 0.64223 0.00191 0.0
C1254 C 0.38004 0.64939 0.02106 0.0
C1255 C 0.39591 0.66482 0.021 0.0
H1256 H 0.58659 0.3369 0.02765 0.0
H1257 H 0.60801 0.31221 0.96744 0.0
H1258 H 0.61519 0.36273 0.02726 0.0
H1259 H 0.63729 0.33742 0.96754 0.0
H1260 H 0.6692 0.40317 0.96311 0.0
H1261 H 0.64267 0.37509 0.96335 0.0
H1262 H 0.65305 0.36594 0.03046 0.0
H1263 H 0.67937 0.39425 0.03021 0.0
C1264 C 0.59745 0.33694 0.01435 0.0
C1265 C 0.59492 0.32257 0.99751 0.0
C1266 C 0.61404 0.35157 0.01427 0.0
C1267 C 0.62857 0.35214 0.99738 0.0
C1268 C 0.62625 0.33755 0.98068 0.0
C1269 C 0.6096 0.32294 0.98075 0.0
C1270 C 0.66601 0.39495 0.97784 0.0
C1271 C 0.67627 0.40096 0.99666 0.0
C1272 C 0.65083 0.37884 0.97799 0.0
C1273 C 0.64565 0.36833 0.99695 0.0
C1274 C 0.65637 0.37399 0.01566 0.0
C1275 C 0.67147 0.39016 0.01553 0.0
H1276 H 0.69085 0.61497 0.9842 0.0
H1277 H 0.64758 0.57655 0.02084 0.0
H1278 H 0.66572 0.64432 0.98541 0.0
H1279 H 0.62205 0.60532 0.02096 0.0
H1280 H 0.58712 0.66578 0.03412 0.0
H1281 H 0.6153 0.6394 0.03539 0.0
H1282 H 0.63217 0.6544 0.97068 0.0
H1283 H 0.60427 0.68121 0.9697 0.0
C1284 C 0.67603 0.61279 0.99258 0.0
C1285 C 0.67122 0.59334 0.00235 0.0
C1286 C 0.66151 0.62954 0.99304 0.0
C1287 C 0.64182 0.6272 0.00324 0.0
C1288 C 0.63715 0.60783 0.0132 0.0
C1289 C 0.65169 0.59117 0.01285 0.0
C1290 C 0.59693 0.66346 0.02021 0.0
C1291 C 0.59343 0.67541 0.00176 0.0
C1292 C 0.61303 0.64831 0.02089 0.0
C1293 C 0.62589 0.64459 0.00306 0.0
C1294 C 0.62275 0.657 0.98479 0.0
C1295 C 0.60674 0.67232 0.98418 0.0
H1296 H 0.47049 0.83831 0.91253 0.0
H1297 H 0.52497 0.8066 0.8857 0.0
H1298 H 0.47088 0.86365 0.88352 0.0
H1299 H 0.52547 0.83222 0.85664 0.0
H1300 H 0.53269 0.89863 0.82461 0.0
H1301 H 0.53255 0.87047 0.85115 0.0
H1302 H 0.46454 0.86527 0.8452 0.0
H1303 H 0.46468 0.89331 0.81864 0.0
C1304 C 0.48239 0.83656 0.90029 0.0
C1305 C 0.49763 0.82034 0.9014 0.0
C1306 C 0.48262 0.85111 0.88365 0.0
C1307 C 0.49814 0.84988 0.86772 0.0
C1308 C 0.51343 0.83369 0.86879 0.0
C1309 C 0.51315 0.81905 0.88544 0.0
C1310 C 0.51776 0.89123 0.82872 0.0
C1311 C 0.49867 0.89832 0.81965 0.0
C1312 C 0.51768 0.87511 0.84392 0.0
C1313 C 0.49851 0.86578 0.85039 0.0
C1314 C 0.47952 0.87243 0.84083 0.0
C1315 C 0.4796 0.8885 0.82563 0.0
H1316 H 0.19458 0.49917 0.88073 0.0
H1317 H 0.14503 0.49782 0.92797 0.0
H1318 H 0.16778 0.50024 0.8527 0.0
H1319 H 0.11834 0.49841 0.90004 0.0
H1320 H 0.07761 0.52411 0.84623 0.0
H1321 H 0.10529 0.52378 0.87312 0.0
H1322 H 0.13977 0.47679 0.83721 0.0
H1323 H 0.11188 0.47686 0.81033 0.0
C1324 C 0.17797 0.49913 0.8851 0.0
C1325 C 0.17189 0.4984 0.90653 0.0
C1326 C 0.16266 0.49955 0.86908 0.0
C1327 C 0.14098 0.49945 0.8742 0.0
C1328 C 0.13493 0.49873 0.89562 0.0
C1329 C 0.1502 0.49816 0.9116 0.0
C1330 C 0.09099 0.51357 0.84412 0.0
C1331 C 0.09242 0.50036 0.82622 0.0
C1332 C 0.10687 0.51342 0.85951 0.0
C1333 C 0.12462 0.50016 0.85733 0.0
C1334 C 0.12635 0.48731 0.83921 0.0
C1335 C 0.11039 0.48738 0.82382 0.0
H1336 H 0.4646 0.08315 0.83776 0.0
H1337 H 0.52773 0.10134 0.8184 0.0
H1338 H 0.46441 0.11156 0.86392 0.0
H1339 H 0.52745 0.12989 0.84452 0.0
H1340 H 0.51093 0.19078 0.88104 0.0
H1341 H 0.50977 0.16392 0.8531 0.0
H1342 H 0.48281 0.11919 0.89737 0.0
H1343 H 0.48343 0.14612 0.92504 0.0
C1344 C 0.47848 0.09315 0.83914 0.0
C1345 C 0.49625 0.08987 0.8261 0.0
C1346 C 0.47835 0.10945 0.85411 0.0
C1347 C 0.49596 0.12288 0.85636 0.0
C1348 C 0.51355 0.11994 0.843 0.0
C1349 C 0.51371 0.10358 0.82804 0.0
C1350 C 0.50457 0.17526 0.88471 0.0
C1351 C 0.49732 0.17053 0.90524 0.0
C1352 C 0.50409 0.15985 0.86878 0.0
C1353 C 0.49621 0.13945 0.87305 0.0
C1354 C 0.48878 0.13482 0.89353 0.0
C1355 C 0.48935 0.15017 0.90944 0.0
H1356 H 0.88214 0.52192 0.80551 0.0
H1357 H 0.92289 0.4882 0.84902 0.0
H1358 H 0.85473 0.52397 0.83285 0.0
H1359 H 0.89535 0.48965 0.876 0.0
H1360 H 0.85164 0.51583 0.92646 0.0
H1361 H 0.87829 0.51625 0.89851 0.0
H1362 H 0.83024 0.50037 0.85237 0.0
H1363 H 0.80353 0.49992 0.88041 0.0
C1364 C 0.88523 0.51495 0.82089 0.0
C1365 C 0.90466 0.50488 0.82511 0.0
C1366 C 0.86948 0.51596 0.83646 0.0
C1367 C 0.87292 0.50705 0.85659 0.0
C1368 C 0.89233 0.49692 0.86074 0.0
C1369 C 0.908 0.49585 0.84519 0.0
C1370 C 0.84677 0.51238 0.91036 0.0
C1371 C 0.82552 0.50764 0.90567 0.0
C1372 C 0.86203 0.51261 0.89436 0.0
C1373 C 0.8564 0.50813 0.87328 0.0
C1374 C 0.83503 0.50405 0.86844 0.0
C1375 C 0.81974 0.50381 0.88449 0.0
H1376 H 0.51173 0.1183 0.19238 0.0
H1377 H 0.48512 0.07395 0.14751 0.0
H1378 H 0.51194 0.14575 0.16503 0.0
H1379 H 0.48531 0.10127 0.12029 0.0
H1380 H 0.51175 0.14677 0.0712 0.0
H1381 H 0.51149 0.12048 0.09943 0.0
H1382 H 0.48802 0.16762 0.14324 0.0
H1383 H 0.4883 0.19402 0.11489 0.0
C1384 C 0.50574 0.11448 0.17675 0.0
C1385 C 0.49858 0.09392 0.17204 0.0
C1386 C 0.50586 0.13018 0.1611 0.0
C1387 C 0.49882 0.12561 0.14045 0.0
C1388 C 0.49126 0.10516 0.13591 0.0
C1389 C 0.49115 0.08951 0.15151 0.0
C1390 C 0.50639 0.1515 0.08681 0.0
C1391 C 0.49989 0.17243 0.09077 0.0
C1392 C 0.50624 0.13644 0.10299 0.0
C1393 C 0.49957 0.14193 0.12353 0.0
C1394 C 0.49342 0.16295 0.12762 0.0
C1395 C 0.49358 0.17806 0.1114 0.0
H1396 H 0.88395 0.52039 0.18878 0.0
H1397 H 0.91859 0.47537 0.15059 0.0
H1398 H 0.85503 0.52016 0.16279 0.0
H1399 H 0.88968 0.47502 0.12474 0.0
H1400 H 0.82305 0.46325 0.09713 0.0
H1401 H 0.85022 0.4634 0.1246 0.0
H1402 H 0.85151 0.53175 0.12319 0.0
H1403 H 0.82499 0.53176 0.09506 0.0
C1404 C 0.88528 0.51038 0.17489 0.0
C1405 C 0.90346 0.49793 0.1716 0.0
C1406 C 0.86885 0.51033 0.16002 0.0
C1407 C 0.87017 0.49754 0.14184 0.0
C1408 C 0.88823 0.48489 0.13872 0.0
C1409 C 0.90479 0.48521 0.15339 0.0
C1410 C 0.82922 0.47834 0.10248 0.0
C1411 C 0.8219 0.49749 0.09367 0.0
C1412 C 0.8447 0.47839 0.11829 0.0
C1413 C 0.85296 0.49757 0.12591 0.0
C1414 C 0.84523 0.51674 0.11769 0.0
C1415 C 0.82996 0.51671 0.10164 0.0
H1416 H 0.49084 0.80759 0.11565 0.0
H1417 H 0.51541 0.85369 0.0714 0.0
H1418 H 0.49124 0.83427 0.14368 0.0
H1419 H 0.51587 0.88031 0.09938 0.0
H1420 H 0.48934 0.92781 0.14689 0.0
H1421 H 0.49013 0.9004 0.11979 0.0
H1422 H 0.51512 0.85589 0.16545 0.0
H1423 H 0.51358 0.88321 0.19287 0.0
C1424 C 0.49657 0.82334 0.11198 0.0
C1425 C 0.50296 0.82857 0.09128 0.0
C1426 C 0.4968 0.83862 0.12803 0.0
C1427 C 0.50345 0.85944 0.12372 0.0
C1428 C 0.51026 0.86452 0.10312 0.0
C1429 C 0.51001 0.84927 0.08709 0.0
C1430 C 0.49478 0.91212 0.15123 0.0
C1431 C 0.5013 0.90766 0.17207 0.0
C1432 C 0.4955 0.89647 0.13562 0.0
C1433 C 0.50279 0.87599 0.14044 0.0
C1434 C 0.50928 0.87148 0.16128 0.0
C1435 C 0.50859 0.88718 0.17693 0.0
H1436 H 0.14748 0.47593 0.0738 0.0
H1437 H 0.19215 0.50439 0.11722 0.0
H1438 H 0.12096 0.47478 0.10179 0.0
H1439 H 0.16581 0.50246 0.14552 0.0
H1440 H 0.10415 0.52013 0.18116 0.0
H1441 H 0.13243 0.5196 0.15483 0.0
H1442 H 0.11278 0.45709 0.13494 0.0
H1443 H 0.08444 0.45766 0.16124 0.0
C1444 C 0.15165 0.4819 0.08934 0.0
C1445 C 0.17188 0.4904 0.09323 0.0
C1446 C 0.13653 0.48099 0.10547 0.0
C1447 C 0.14127 0.48852 0.12589 0.0
C1448 C 0.1616 0.49673 0.12989 0.0
C1449 C 0.17675 0.49763 0.11374 0.0
C1450 C 0.10606 0.50615 0.17137 0.0
C1451 C 0.092 0.48897 0.17322 0.0
C1452 C 0.12227 0.50584 0.15629 0.0
C1453 C 0.12481 0.48833 0.14273 0.0
C1454 C 0.11102 0.47096 0.1449 0.0
C1455 C 0.09479 0.47129 0.15996 0.0
H1456 H 0.81084 0.88761 0.47043 0.0
H1457 H 0.83528 0.90676 0.53148 0.0
H1458 H 0.83553 0.85785 0.4699 0.0
H1459 H 0.86056 0.87764 0.53052 0.0
H1460 H 0.89197 0.81337 0.53132 0.0
H1461 H 0.8635 0.83953 0.53232 0.0
H1462 H 0.87335 0.85267 0.46581 0.0
H1463 H 0.90163 0.82639 0.4648 0.0
C1464 C 0.82137 0.88538 0.4838 0.0
C1465 C 0.82115 0.89961 0.50096 0.0
C1466 C 0.83568 0.86847 0.48339 0.0
C1467 C 0.85008 0.86541 0.50012 0.0
C1468 C 0.84954 0.87939 0.51747 0.0
C1469 C 0.83523 0.89626 0.5179 0.0
C1470 C 0.888 0.82183 0.51692 0.0
C1471 C 0.8991 0.8179 0.49801 0.0
C1472 C 0.87172 0.83683 0.51749 0.0
C1473 C 0.86622 0.84828 0.49917 0.0
C1474 C 0.87696 0.84393 0.48013 0.0
C1475 C 0.8932 0.82888 0.47955 0.0
H1476 H 0.89311 0.1827 0.52451 0.0
H1477 H 0.9211 0.15482 0.46848 0.0
H1478 H 0.86561 0.15555 0.5242 0.0
H1479 H 0.89385 0.12745 0.46854 0.0
H1480 H 0.85748 0.06869 0.49249 0.0
H1481 H 0.88399 0.09684 0.49178 0.0
H1482 H 0.83485 0.14344 0.5019 0.0
H1483 H 0.80832 0.1152 0.50295 0.0
C1484 C 0.89329 0.17095 0.512 0.0
C1485 C 0.90939 0.17093 0.49656 0.0
C1486 C 0.87756 0.15537 0.51187 0.0
C1487 C 0.87766 0.13934 0.49641 0.0
C1488 C 0.89358 0.13943 0.48084 0.0
C1489 C 0.90921 0.15509 0.48086 0.0
C1490 C 0.85236 0.08493 0.49469 0.0
C1491 C 0.83084 0.08975 0.49783 0.0
C1492 C 0.8675 0.10105 0.49407 0.0
C1493 C 0.86147 0.12232 0.49675 0.0
C1494 C 0.83996 0.12716 0.49993 0.0
C1495 C 0.82477 0.11104 0.50036 0.0
H1496 H 0.11101 0.81045 0.47928 0.0
H1497 H 0.07135 0.85071 0.51795 0.0
H1498 H 0.13871 0.83757 0.47949 0.0
H1499 H 0.09895 0.87787 0.518 0.0
H1500 H 0.16321 0.90988 0.53213 0.0
H1501 H 0.13612 0.88234 0.53238 0.0
H1502 H 0.14312 0.87466 0.46474 0.0
H1503 H 0.16979 0.90261 0.46427 0.0
C1504 C 0.10828 0.82505 0.4879 0.0
C1505 C 0.08905 0.82851 0.49859 0.0
C1506 C 0.12404 0.84061 0.48788 0.0
C1507 C 0.12095 0.8598 0.49875 0.0
C1508 C 0.10181 0.86315 0.50963 0.0
C1509 C 0.08596 0.84771 0.50945 0.0
C1510 C 0.15882 0.90253 0.51725 0.0
C1511 C 0.16867 0.90855 0.49817 0.0
C1512 C 0.14336 0.8867 0.51744 0.0
C1513 C 0.13755 0.87638 0.49859 0.0
C1514 C 0.1475 0.88218 0.47955 0.0
C1515 C 0.16282 0.89816 0.47931 0.0
H1516 H 0.08927 0.16563 0.53794 0.0
H1517 H 0.10862 0.18475 0.47511 0.0
H1518 H 0.11746 0.1392 0.5386 0.0
H1519 H 0.13674 0.1582 0.47568 0.0
H1520 H 0.19571 0.11902 0.49038 0.0
H1521 H 0.17014 0.14804 0.49234 0.0
H1522 H 0.12457 0.10584 0.52116 0.0
H1523 H 0.15032 0.07717 0.51998 0.0
C1524 C 0.09954 0.16415 0.52426 0.0
C1525 C 0.09663 0.17716 0.50642 0.0
C1526 C 0.11568 0.14901 0.52463 0.0
C1527 C 0.12925 0.14648 0.50713 0.0
C1528 C 0.12672 0.15991 0.48952 0.0
C1529 C 0.1106 0.17511 0.48918 0.0
C1530 C 0.18033 0.11605 0.49739 0.0
C1531 C 0.17501 0.09577 0.50493 0.0
C1532 C 0.16561 0.13261 0.49831 0.0
C1533 C 0.1453 0.12925 0.50687 0.0
C1534 C 0.14014 0.10904 0.51469 0.0
C1535 C 0.15482 0.09252 0.51376 0.0
loop_
_geom_bond_atom_site_label_1
_geom_bond_atom_site_label_2
_geom_bond_distance
_geom_bond_site_symmetry_2
_ccdc_geom_bond_type
Li0 N17 1.990 . S
Li0 O60 1.956 . S
Li0 O61 1.972 . S
Li0 O62 1.950 1_655 S
Li1 N25 1.991 . S
Li1 O60 1.955 1_455 S
Li1 O61 1.956 1_455 S
Li1 O63 1.976 . S
Li2 N47 1.991 . S
Li2 O60 1.967 . S
Li2 O62 1.956 1_655 S
Li2 O63 1.964 1_655 S
Li3 N53 1.990 . S
Li3 O61 1.959 1_455 S
Li3 O62 1.981 . S
Li3 O63 1.956 . S
C4 C6 1.348 . S
C4 C7 1.356 . S
C4 O60 1.325 . S
N5 C8 1.314 . S
N5 C9 1.279 . S
C6 C4 1.348 . S
C6 C8 1.353 . S
C6 H64 0.929 . S
C7 C4 1.356 . S
C7 C9 1.358 . S
C7 H65 0.930 . S
C8 N5 1.314 . S
C8 C6 1.353 . S
C8 H66 0.930 . S
C9 N5 1.279 . S
C9 C7 1.358 . S
C9 H67 0.930 . S
C10 C13 1.345 1_455 S
C10 C14 1.359 . S
C10 O61 1.325 1_455 S
C11 N12 1.279 . S
C11 C14 1.358 . S
C11 H68 0.930 . S
N12 C11 1.279 . S
N12 C15 1.314 1_455 S
C13 C10 1.345 1_655 S
C13 C15 1.353 . S
C13 H69 0.929 . S
C14 C10 1.359 . S
C14 C11 1.358 . S
C14 H70 0.930 . S
C15 N12 1.314 1_655 S
C15 C13 1.353 . S
C15 H71 0.930 . S
C16 N17 1.314 . S
C16 C21 1.353 . S
C16 H22 0.930 . S
N17 Li0 1.990 . S
N17 C16 1.314 . S
N17 C19 1.279 . S
C18 C19 1.358 . S
C18 C20 1.356 . S
C18 H72 0.930 . S
C19 N17 1.279 . S
C19 C18 1.358 . S
C19 H23 0.930 . S
C20 C18 1.356 . S
C20 C21 1.348 . S
C21 C16 1.353 . S
C21 C20 1.348 . S
C21 H73 0.929 . S
H22 C16 0.930 . S
H23 C19 0.930 . S
C24 N25 1.314 . S
C24 C26 1.353 . S
C24 H30 0.930 . S
N25 Li1 1.991 . S
N25 C24 1.314 . S
N25 C28 1.279 1_455 S
C26 C24 1.353 . S
C26 C29 1.346 . S
C26 H74 0.929 . S
C27 C28 1.358 . S
C27 C29 1.357 1_655 S
C27 H75 0.930 . S
C28 N25 1.279 1_655 S
C28 C27 1.358 . S
C28 H31 0.930 . S
C29 C26 1.346 . S
C29 C27 1.357 1_455 S
H30 C24 0.930 . S
H31 C28 0.930 . S
C32 C34 1.345 . S
C32 C35 1.359 1_455 S
C32 O62 1.325 . S
N33 C36 1.277 1_655 S
N33 C37 1.316 . S
C34 C32 1.345 . S
C34 C36 1.353 . S
C34 H76 0.929 . S
C35 C32 1.359 1_655 S
C35 C37 1.358 . S
C35 H77 0.930 . S
C36 N33 1.277 1_455 S
C36 C34 1.353 . S
C36 H78 0.930 . S
C37 N33 1.316 . S
C37 C35 1.358 . S
C37 H79 0.930 . S
C38 C39 1.348 . S
C38 C40 1.356 . S
C38 O63 1.325 . S
C39 C38 1.348 . S
C39 C41 1.353 . S
C39 H80 0.929 . S
C40 C38 1.356 . S
C40 C42 1.358 . S
C40 H81 0.930 . S
C41 C39 1.353 . S
C41 N43 1.314 . S
C41 H82 0.930 . S
C42 C40 1.358 . S
C42 N43 1.279 . S
C42 H83 0.930 . S
N43 C41 1.314 . S
N43 C42 1.279 . S
C44 C46 1.353 . S
C44 N47 1.314 . S
C44 H50 0.930 . S
C45 N47 1.279 1_455 S
C45 C48 1.358 . S
C45 H51 0.930 . S
C46 C44 1.353 . S
C46 C49 1.346 1_655 S
C46 H84 0.929 . S
N47 Li2 1.991 . S
N47 C44 1.314 . S
N47 C45 1.279 1_655 S
C48 C45 1.358 . S
C48 C49 1.357 . S
C48 H85 0.930 . S
C49 C46 1.346 1_455 S
C49 C48 1.357 . S
H50 C44 0.930 . S
H51 C45 0.930 . S
C52 N53 1.314 . S
C52 C54 1.353 . S
C52 H58 0.930 . S
N53 Li3 1.990 . S
N53 C52 1.314 . S
N53 C56 1.279 . S
C54 C52 1.353 . S
C54 C57 1.348 . S
C54 H86 0.929 . S
C55 C56 1.358 . S
C55 C57 1.356 . S
C55 H87 0.930 . S
C56 N53 1.279 . S
C56 C55 1.358 . S
C56 H59 0.930 . S
C57 C54 1.348 . S
C57 C55 1.356 . S
H58 C52 0.930 . S
H59 C56 0.930 . S
O60 Li0 1.956 . S
O60 Li1 1.955 1_655 S
O60 Li2 1.967 . S
O60 C4 1.325 . S
O61 Li0 1.972 . S
O61 Li1 1.956 1_655 S
O61 Li3 1.959 1_655 S
O61 C10 1.325 1_655 S
O62 Li0 1.950 1_455 S
O62 Li2 1.956 1_455 S
O62 Li3 1.981 . S
O62 C32 1.325 . S
O63 Li1 1.976 . S
O63 Li2 1.964 1_455 S
O63 Li3 1.956 . S
O63 C38 1.325 . S
H64 C6 0.929 . S
H65 C7 0.930 . S
H66 C8 0.930 . S
H67 C9 0.930 . S
H68 C11 0.930 . S
H69 C13 0.929 . S
H70 C14 0.930 . S
H71 C15 0.930 . S
H72 C18 0.930 . S
H73 C21 0.929 . S
H74 C26 0.929 . S
H75 C27 0.930 . S
H76 C34 0.929 . S
H77 C35 0.930 . S
H78 C36 0.930 . S
H79 C37 0.930 . S
H80 C39 0.929 . S
H81 C40 0.930 . S
H82 C41 0.930 . S
H83 C42 0.930 . S
H84 C46 0.929 . S
H85 C48 0.930 . S
H86 C54 0.929 . S
H87 C55 0.930 . S
Li88 N105 1.991 . S
Li88 O148 1.956 1_545 S
Li88 O149 1.955 1_545 S
Li88 O150 1.976 . S
Li89 N113 1.990 . S
Li89 O148 1.972 . S
Li89 O149 1.956 . S
Li89 O151 1.950 1_565 S
Li90 N135 1.990 . S
Li90 O148 1.959 1_545 S
Li90 O150 1.956 . S
Li90 O151 1.981 . S
Li91 N141 1.991 . S
Li91 O149 1.967 . S
Li91 O150 1.964 1_565 S
Li91 O151 1.956 1_565 S
C92 C94 1.345 1_545 S
C92 C95 1.359 . S
C92 O148 1.325 1_545 S
N93 C96 1.314 1_545 S
N93 C97 1.279 . S
C94 C92 1.345 1_565 S
C94 C96 1.353 . S
C94 H152 0.929 . S
C95 C92 1.359 . S
C95 C97 1.358 . S
C95 H153 0.930 . S
C96 N93 1.314 1_565 S
C96 C94 1.353 . S
C96 H154 0.930 . S
C97 N93 1.279 . S
C97 C95 1.358 . S
C97 H155 0.930 . S
C98 C101 1.348 . S
C98 C102 1.356 . S
C98 O149 1.325 . S
C99 N100 1.279 . S
C99 C102 1.358 . S
C99 H156 0.930 . S
N100 C99 1.279 . S
N100 C103 1.314 . S
C101 C98 1.348 . S
C101 C103 1.353 . S
C101 H157 0.929 . S
C102 C98 1.356 . S
C102 C99 1.358 . S
C102 H158 0.930 . S
C103 N100 1.314 . S
C103 C101 1.353 . S
C103 H159 0.930 . S
C104 N105 1.314 . S
C104 C109 1.353 . S
C104 H110 0.930 . S
N105 Li88 1.991 . S
N105 C104 1.314 . S
N105 C107 1.279 1_545 S
C106 C107 1.358 . S
C106 C108 1.357 1_565 S
C106 H160 0.930 . S
C107 N105 1.279 1_565 S
C107 C106 1.358 . S
C107 H111 0.930 . S
C108 C106 1.357 1_545 S
C108 C109 1.346 . S
C109 C104 1.353 . S
C109 C108 1.346 . S
C109 H161 0.929 . S
H110 C104 0.930 . S
H111 C107 0.930 . S
C112 N113 1.314 . S
C112 C114 1.353 . S
C112 H118 0.930 . S
N113 Li89 1.990 . S
N113 C112 1.314 . S
N113 C116 1.279 . S
C114 C112 1.353 . S
C114 C117 1.348 . S
C114 H162 0.929 . S
C115 C116 1.358 . S
C115 C117 1.356 . S
C115 H163 0.930 . S
C116 N113 1.279 . S
C116 C115 1.358 . S
C116 H119 0.930 . S
C117 C114 1.348 . S
C117 C115 1.356 . S
H118 C112 0.930 . S
H119 C116 0.930 . S
C120 C122 1.348 . S
C120 C123 1.356 . S
C120 O150 1.325 . S
N121 C124 1.314 . S
N121 C125 1.279 . S
C122 C120 1.348 . S
C122 C124 1.353 . S
C122 H164 0.929 . S
C123 C120 1.356 . S
C123 C125 1.358 . S
C123 H165 0.930 . S
C124 N121 1.314 . S
C124 C122 1.353 . S
C124 H166 0.930 . S
C125 N121 1.279 . S
C125 C123 1.358 . S
C125 H167 0.930 . S
C126 C127 1.345 . S
C126 C128 1.359 1_545 S
C126 O151 1.325 . S
C127 C126 1.345 . S
C127 C129 1.353 . S
C127 H168 0.929 . S
C128 C126 1.359 1_565 S
C128 C130 1.358 . S
C128 H169 0.930 . S
C129 C127 1.353 . S
C129 N131 1.277 1_545 S
C129 H170 0.930 . S
C130 C128 1.358 . S
C130 N131 1.316 . S
C130 H171 0.930 . S
N131 C129 1.277 1_565 S
N131 C130 1.316 . S
C132 C134 1.353 . S
C132 N135 1.314 . S
C132 H138 0.930 . S
C133 N135 1.279 . S
C133 C136 1.358 . S
C133 H139 0.930 . S
C134 C132 1.353 . S
C134 C137 1.348 . S
C134 H172 0.929 . S
N135 Li90 1.990 . S
N135 C132 1.314 . S
N135 C133 1.279 . S
C136 C133 1.358 . S
C136 C137 1.356 . S
C136 H173 0.930 . S
C137 C134 1.348 . S
C137 C136 1.356 . S
H138 C132 0.930 . S
H139 C133 0.930 . S
C140 N141 1.314 . S
C140 C142 1.353 . S
C140 H146 0.930 . S
N141 Li91 1.991 . S
N141 C140 1.314 . S
N141 C144 1.279 1_565 S
C142 C140 1.353 . S
C142 C145 1.346 1_565 S
C142 H174 0.929 . S
C143 C144 1.358 . S
C143 C145 1.357 . S
C143 H175 0.930 . S
C144 N141 1.279 1_545 S
C144 C143 1.358 . S
C144 H147 0.930 . S
C145 C142 1.346 1_545 S
C145 C143 1.357 . S
H146 C140 0.930 . S
H147 C144 0.930 . S
O148 Li88 1.956 1_565 S
O148 Li89 1.972 . S
O148 Li90 1.959 1_565 S
O148 C92 1.325 1_565 S
O149 Li88 1.955 1_565 S
O149 Li89 1.956 . S
O149 Li91 1.967 . S
O149 C98 1.325 . S
O150 Li88 1.976 . S
O150 Li90 1.956 . S
O150 Li91 1.964 1_545 S
O150 C120 1.325 . S
O151 Li89 1.950 1_545 S
O151 Li90 1.981 . S
O151 Li91 1.956 1_545 S
O151 C126 1.325 . S
H152 C94 0.929 . S
H153 C95 0.930 . S
H154 C96 0.930 . S
H155 C97 0.930 . S
H156 C99 0.930 . S
H157 C101 0.929 . S
H158 C102 0.930 . S
H159 C103 0.930 . S
H160 C106 0.930 . S
H161 C109 0.929 . S
H162 C114 0.929 . S
H163 C115 0.930 . S
H164 C122 0.929 . S
H165 C123 0.930 . S
H166 C124 0.930 . S
H167 C125 0.930 . S
H168 C127 0.929 . S
H169 C128 0.930 . S
H170 C129 0.930 . S
H171 C130 0.930 . S
H172 C134 0.929 . S
H173 C136 0.930 . S
H174 C142 0.929 . S
H175 C143 0.930 . S
Li176 N193 1.990 . S
Li176 O236 1.956 . S
Li176 O237 1.981 . S
Li176 O238 1.959 1_455 S
Li177 N201 1.991 . S
Li177 O236 1.964 1_655 S
Li177 O237 1.956 1_655 S
Li177 O239 1.967 . S
Li178 N223 1.991 . S
Li178 O236 1.976 . S
Li178 O238 1.956 1_455 S
Li178 O239 1.955 1_455 S
Li179 N229 1.990 . S
Li179 O237 1.950 1_655 S
Li179 O238 1.972 . S
Li179 O239 1.956 . S
C180 C182 1.348 . S
C180 C183 1.356 . S
C180 O236 1.325 . S
N181 C184 1.314 . S
N181 C185 1.279 . S
C182 C180 1.348 . S
C182 C184 1.353 . S
C182 H240 0.929 . S
C183 C180 1.356 . S
C183 C185 1.358 . S
C183 H241 0.930 . S
C184 N181 1.314 . S
C184 C182 1.353 . S
C184 H242 0.930 . S
C185 N181 1.279 . S
C185 C183 1.358 . S
C185 H243 0.930 . S
C186 C189 1.345 . S
C186 C190 1.359 1_455 S
C186 O237 1.325 . S
C187 N188 1.316 . S
C187 C190 1.358 . S
C187 H244 0.930 . S
N188 C187 1.316 . S
N188 C191 1.277 1_655 S
C189 C186 1.345 . S
C189 C191 1.353 . S
C189 H245 0.929 . S
C190 C186 1.359 1_655 S
C190 C187 1.358 . S
C190 H246 0.930 . S
C191 N188 1.277 1_455 S
C191 C189 1.353 . S
C191 H247 0.930 . S
C192 N193 1.314 . S
C192 C197 1.353 . S
C192 H198 0.930 . S
N193 Li176 1.990 . S
N193 C192 1.314 . S
N193 C195 1.279 . S
C194 C195 1.358 . S
C194 C196 1.356 . S
C194 H248 0.930 . S
C195 N193 1.279 . S
C195 C194 1.358 . S
C195 H199 0.930 . S
C196 C194 1.356 . S
C196 C197 1.348 . S
C197 C192 1.353 . S
C197 C196 1.348 . S
C197 H249 0.929 . S
H198 C192 0.930 . S
H199 C195 0.930 . S
C200 N201 1.314 . S
C200 C202 1.353 . S
C200 H206 0.930 . S
N201 Li177 1.991 . S
N201 C200 1.314 . S
N201 C204 1.279 1_655 S
C202 C200 1.353 . S
C202 C205 1.346 1_655 S
C202 H250 0.929 . S
C203 C204 1.358 . S
C203 C205 1.357 . S
C203 H251 0.930 . S
C204 N201 1.279 1_455 S
C204 C203 1.358 . S
C204 H207 0.930 . S
C205 C202 1.346 1_455 S
C205 C203 1.357 . S
H206 C200 0.930 . S
H207 C204 0.930 . S
C208 C210 1.345 1_455 S
C208 C211 1.359 . S
C208 O238 1.325 1_455 S
N209 C212 1.314 1_455 S
N209 C213 1.279 . S
C210 C208 1.345 1_655 S
C210 C212 1.353 . S
C210 H252 0.929 . S
C211 C208 1.359 . S
C211 C213 1.358 . S
C211 H253 0.930 . S
C212 N209 1.314 1_655 S
C212 C210 1.353 . S
C212 H254 0.930 . S
C213 N209 1.279 . S
C213 C211 1.358 . S
C213 H255 0.930 . S
C214 C215 1.348 . S
C214 C216 1.356 . S
C214 O239 1.325 . S
C215 C214 1.348 . S
C215 C217 1.353 . S
C215 H256 0.929 . S
C216 C214 1.356 . S
C216 C218 1.358 . S
C216 H257 0.930 . S
C217 C215 1.353 . S
C217 N219 1.314 . S
C217 H258 0.930 . S
C218 C216 1.358 . S
C218 N219 1.279 . S
C218 H259 0.930 . S
N219 C217 1.314 . S
N219 C218 1.279 . S
C220 C222 1.353 . S
C220 N223 1.314 . S
C220 H226 0.930 . S
C221 N223 1.279 1_655 S
C221 C224 1.358 . S
C221 H227 0.930 . S
C222 C220 1.353 . S
C222 C225 1.346 . S
C222 H260 0.929 . S
N223 Li178 1.991 . S
N223 C220 1.314 . S
N223 C221 1.279 1_455 S
C224 C221 1.358 . S
C224 C225 1.357 1_655 S
C224 H261 0.930 . S
C225 C222 1.346 . S
C225 C224 1.357 1_455 S
H226 C220 0.930 . S
H227 C221 0.930 . S
C228 N229 1.314 . S
C228 C230 1.353 . S
C228 H234 0.930 . S
N229 Li179 1.990 . S
N229 C228 1.314 . S
N229 C232 1.279 . S
C230 C228 1.353 . S
C230 C233 1.348 . S
C230 H262 0.929 . S
C231 C232 1.358 . S
C231 C233 1.356 . S
C231 H263 0.930 . S
C232 N229 1.279 . S
C232 C231 1.358 . S
C232 H235 0.930 . S
C233 C230 1.348 . S
C233 C231 1.356 . S
H234 C228 0.930 . S
H235 C232 0.930 . S
O236 Li176 1.956 . S
O236 Li177 1.964 1_455 S
O236 Li178 1.976 . S
O236 C180 1.325 . S
O237 Li176 1.981 . S
O237 Li177 1.956 1_455 S
O237 Li179 1.950 1_455 S
O237 C186 1.325 . S
O238 Li176 1.959 1_655 S
O238 Li178 1.956 1_655 S
O238 Li179 1.972 . S
O238 C208 1.325 1_655 S
O239 Li177 1.967 . S
O239 Li178 1.955 1_655 S
O239 Li179 1.956 . S
O239 C214 1.325 . S
H240 C182 0.929 . S
H241 C183 0.930 . S
H242 C184 0.930 . S
H243 C185 0.930 . S
H244 C187 0.930 . S
H245 C189 0.929 . S
H246 C190 0.930 . S
H247 C191 0.930 . S
H248 C194 0.930 . S
H249 C197 0.929 . S
H250 C202 0.929 . S
H251 C203 0.930 . S
H252 C210 0.929 . S
H253 C211 0.930 . S
H254 C212 0.930 . S
H255 C213 0.930 . S
H256 C215 0.929 . S
H257 C216 0.930 . S
H258 C217 0.930 . S
H259 C218 0.930 . S
H260 C222 0.929 . S
H261 C224 0.930 . S
H262 C230 0.929 . S
H263 C231 0.930 . S
Li264 N281 1.990 . S
Li264 O324 1.956 . S
Li264 O325 1.981 . S
Li264 O326 1.959 1_545 S
Li265 N289 1.991 . S
Li265 O324 1.964 1_565 S
Li265 O325 1.956 1_565 S
Li265 O327 1.967 . S
Li266 N311 1.991 . S
Li266 O324 1.976 . S
Li266 O326 1.956 1_545 S
Li266 O327 1.955 1_545 S
Li267 N317 1.990 . S
Li267 O325 1.950 1_565 S
Li267 O326 1.972 . S
Li267 O327 1.956 . S
C268 C270 1.348 . S
C268 C271 1.356 . S
C268 O324 1.325 . S
N269 C272 1.314 . S
N269 C273 1.279 . S
C270 C268 1.348 . S
C270 C272 1.353 . S
C270 H328 0.929 . S
C271 C268 1.356 . S
C271 C273 1.358 . S
C271 H329 0.930 . S
C272 N269 1.314 . S
C272 C270 1.353 . S
C272 H330 0.930 . S
C273 N269 1.279 . S
C273 C271 1.358 . S
C273 H331 0.930 . S
C274 C277 1.345 . S
C274 C278 1.359 1_545 S
C274 O325 1.325 . S
C275 N276 1.316 . S
C275 C278 1.358 . S
C275 H332 0.930 . S
N276 C275 1.316 . S
N276 C279 1.277 1_565 S
C277 C274 1.345 . S
C277 C279 1.353 . S
C277 H333 0.929 . S
C278 C274 1.359 1_565 S
C278 C275 1.358 . S
C278 H334 0.930 . S
C279 N276 1.277 1_545 S
C279 C277 1.353 . S
C279 H335 0.930 . S
C280 N281 1.314 . S
C280 C285 1.353 . S
C280 H286 0.930 . S
N281 Li264 1.990 . S
N281 C280 1.314 . S
N281 C283 1.279 . S
C282 C283 1.358 . S
C282 C284 1.356 . S
C282 H336 0.930 . S
C283 N281 1.279 . S
C283 C282 1.358 . S
C283 H287 0.930 . S
C284 C282 1.356 . S
C284 C285 1.348 . S
C285 C280 1.353 . S
C285 C284 1.348 . S
C285 H337 0.929 . S
H286 C280 0.930 . S
H287 C283 0.930 . S
C288 N289 1.314 . S
C288 C290 1.353 . S
C288 H294 0.930 . S
N289 Li265 1.991 . S
N289 C288 1.314 . S
N289 C292 1.279 1_565 S
C290 C288 1.353 . S
C290 C293 1.346 1_565 S
C290 H338 0.929 . S
C291 C292 1.358 . S
C291 C293 1.357 . S
C291 H339 0.930 . S
C292 N289 1.279 1_545 S
C292 C291 1.358 . S
C292 H295 0.930 . S
C293 C290 1.346 1_545 S
C293 C291 1.357 . S
H294 C288 0.930 . S
H295 C292 0.930 . S
C296 C298 1.345 1_545 S
C296 C299 1.359 . S
C296 O326 1.325 1_545 S
N297 C300 1.314 1_545 S
N297 C301 1.279 . S
C298 C296 1.345 1_565 S
C298 C300 1.353 . S
C298 H340 0.929 . S
C299 C296 1.359 . S
C299 C301 1.358 . S
C299 H341 0.930 . S
C300 N297 1.314 1_565 S
C300 C298 1.353 . S
C300 H342 0.930 . S
C301 N297 1.279 . S
C301 C299 1.358 . S
C301 H343 0.930 . S
C302 C303 1.348 . S
C302 C304 1.356 . S
C302 O327 1.325 . S
C303 C302 1.348 . S
C303 C305 1.353 . S
C303 H344 0.929 . S
C304 C302 1.356 . S
C304 C306 1.358 . S
C304 H345 0.930 . S
C305 C303 1.353 . S
C305 N307 1.314 . S
C305 H346 0.930 . S
C306 C304 1.358 . S
C306 N307 1.279 . S
C306 H347 0.930 . S
N307 C305 1.314 . S
N307 C306 1.279 . S
C308 C310 1.353 . S
C308 N311 1.314 . S
C308 H314 0.930 . S
C309 N311 1.279 1_565 S
C309 C312 1.358 . S
C309 H315 0.930 . S
C310 C308 1.353 . S
C310 C313 1.346 . S
C310 H348 0.929 . S
N311 Li266 1.991 . S
N311 C308 1.314 . S
N311 C309 1.279 1_545 S
C312 C309 1.358 . S
C312 C313 1.357 1_565 S
C312 H349 0.930 . S
C313 C310 1.346 . S
C313 C312 1.357 1_545 S
H314 C308 0.930 . S
H315 C309 0.930 . S
C316 N317 1.314 . S
C316 C318 1.353 . S
C316 H322 0.930 . S
N317 Li267 1.990 . S
N317 C316 1.314 . S
N317 C320 1.279 . S
C318 C316 1.353 . S
C318 C321 1.348 . S
C318 H350 0.929 . S
C319 C320 1.358 . S
C319 C321 1.356 . S
C319 H351 0.930 . S
C320 N317 1.279 . S
C320 C319 1.358 . S
C320 H323 0.930 . S
C321 C318 1.348 . S
C321 C319 1.356 . S
H322 C316 0.930 . S
H323 C320 0.930 . S
O324 Li264 1.956 . S
O324 Li265 1.964 1_545 S
O324 Li266 1.976 . S
O324 C268 1.325 . S
O325 Li264 1.981 . S
O325 Li265 1.956 1_545 S
O325 Li267 1.950 1_545 S
O325 C274 1.325 . S
O326 Li264 1.959 1_565 S
O326 Li266 1.956 1_565 S
O326 Li267 1.972 . S
O326 C296 1.325 1_565 S
O327 Li265 1.967 . S
O327 Li266 1.955 1_565 S
O327 Li267 1.956 . S
O327 C302 1.325 . S
H328 C270 0.929 . S
H329 C271 0.930 . S
H330 C272 0.930 . S
H331 C273 0.930 . S
H332 C275 0.930 . S
H333 C277 0.929 . S
H334 C278 0.930 . S
H335 C279 0.930 . S
H336 C282 0.930 . S
H337 C285 0.929 . S
H338 C290 0.929 . S
H339 C291 0.930 . S
H340 C298 0.929 . S
H341 C299 0.930 . S
H342 C300 0.930 . S
H343 C301 0.930 . S
H344 C303 0.929 . S
H345 C304 0.930 . S
H346 C305 0.930 . S
H347 C306 0.930 . S
H348 C310 0.929 . S
H349 C312 0.930 . S
H350 C318 0.929 . S
H351 C319 0.930 . S
Li352 N369 1.990 . S
Li352 O412 1.956 . S
Li352 O413 1.981 . S
Li352 O414 1.959 1_545 S
Li353 N377 1.991 . S
Li353 O412 1.964 1_565 S
Li353 O413 1.956 1_565 S
Li353 O415 1.967 . S
Li354 N399 1.991 . S
Li354 O412 1.976 . S
Li354 O414 1.956 1_545 S
Li354 O415 1.955 1_545 S
Li355 N405 1.990 . S
Li355 O413 1.950 1_565 S
Li355 O414 1.972 . S
Li355 O415 1.956 . S
C356 C358 1.348 . S
C356 C359 1.356 . S
C356 O412 1.325 . S
N357 C360 1.314 . S
N357 C361 1.279 . S
C358 C356 1.348 . S
C358 C360 1.353 . S
C358 H416 0.929 . S
C359 C356 1.356 . S
C359 C361 1.358 . S
C359 H417 0.930 . S
C360 N357 1.314 . S
C360 C358 1.353 . S
C360 H418 0.930 . S
C361 N357 1.279 . S
C361 C359 1.358 . S
C361 H419 0.930 . S
C362 C365 1.345 . S
C362 C366 1.359 1_545 S
C362 O413 1.325 . S
C363 N364 1.316 . S
C363 C366 1.358 . S
C363 H420 0.930 . S
N364 C363 1.316 . S
N364 C367 1.277 1_565 S
C365 C362 1.345 . S
C365 C367 1.353 . S
C365 H421 0.929 . S
C366 C362 1.359 1_565 S
C366 C363 1.358 . S
C366 H422 0.930 . S
C367 N364 1.277 1_545 S
C367 C365 1.353 . S
C367 H423 0.930 . S
C368 N369 1.314 . S
C368 C373 1.353 . S
C368 H374 0.930 . S
N369 Li352 1.990 . S
N369 C368 1.314 . S
N369 C371 1.279 . S
C370 C371 1.358 . S
C370 C372 1.356 . S
C370 H424 0.930 . S
C371 N369 1.279 . S
C371 C370 1.358 . S
C371 H375 0.930 . S
C372 C370 1.356 . S
C372 C373 1.348 . S
C373 C368 1.353 . S
C373 C372 1.348 . S
C373 H425 0.929 . S
H374 C368 0.930 . S
H375 C371 0.930 . S
C376 N377 1.314 . S
C376 C378 1.353 . S
C376 H382 0.930 . S
N377 Li353 1.991 . S
N377 C376 1.314 . S
N377 C380 1.279 1_565 S
C378 C376 1.353 . S
C378 C381 1.346 1_565 S
C378 H426 0.929 . S
C379 C380 1.358 . S
C379 C381 1.357 . S
C379 H427 0.930 . S
C380 N377 1.279 1_545 S
C380 C379 1.358 . S
C380 H383 0.930 . S
C381 C378 1.346 1_545 S
C381 C379 1.357 . S
H382 C376 0.930 . S
H383 C380 0.930 . S
C384 C386 1.345 1_545 S
C384 C387 1.359 . S
C384 O414 1.325 1_545 S
N385 C388 1.314 1_545 S
N385 C389 1.279 . S
C386 C384 1.345 1_565 S
C386 C388 1.353 . S
C386 H428 0.929 . S
C387 C384 1.359 . S
C387 C389 1.358 . S
C387 H429 0.930 . S
C388 N385 1.314 1_565 S
C388 C386 1.353 . S
C388 H430 0.930 . S
C389 N385 1.279 . S
C389 C387 1.358 . S
C389 H431 0.930 . S
C390 C391 1.348 . S
C390 C392 1.356 . S
C390 O415 1.325 . S
C391 C390 1.348 . S
C391 C393 1.353 . S
C391 H432 0.929 . S
C392 C390 1.356 . S
C392 C394 1.358 . S
C392 H433 0.930 . S
C393 C391 1.353 . S
C393 N395 1.314 . S
C393 H434 0.930 . S
C394 C392 1.358 . S
C394 N395 1.279 . S
C394 H435 0.930 . S
N395 C393 1.314 . S
N395 C394 1.279 . S
C396 C398 1.353 . S
C396 N399 1.314 . S
C396 H402 0.930 . S
C397 N399 1.279 1_565 S
C397 C400 1.358 . S
C397 H403 0.930 . S
C398 C396 1.353 . S
C398 C401 1.346 . S
C398 H436 0.929 . S
N399 Li354 1.991 . S
N399 C396 1.314 . S
N399 C397 1.279 1_545 S
C400 C397 1.358 . S
C400 C401 1.357 1_565 S
C400 H437 0.930 . S
C401 C398 1.346 . S
C401 C400 1.357 1_545 S
H402 C396 0.930 . S
H403 C397 0.930 . S
C404 N405 1.314 . S
C404 C406 1.353 . S
C404 H410 0.930 . S
N405 Li355 1.990 . S
N405 C404 1.314 . S
N405 C408 1.279 . S
C406 C404 1.353 . S
C406 C409 1.348 . S
C406 H438 0.929 . S
C407 C408 1.358 . S
C407 C409 1.356 . S
C407 H439 0.930 . S
C408 N405 1.279 . S
C408 C407 1.358 . S
C408 H411 0.930 . S
C409 C406 1.348 . S
C409 C407 1.356 . S
H410 C404 0.930 . S
H411 C408 0.930 . S
O412 Li352 1.956 . S
O412 Li353 1.964 1_545 S
O412 Li354 1.976 . S
O412 C356 1.325 . S
O413 Li352 1.981 . S
O413 Li353 1.956 1_545 S
O413 Li355 1.950 1_545 S
O413 C362 1.325 . S
O414 Li352 1.959 1_565 S
O414 Li354 1.956 1_565 S
O414 Li355 1.972 . S
O414 C384 1.325 1_565 S
O415 Li353 1.967 . S
O415 Li354 1.955 1_565 S
O415 Li355 1.956 . S
O415 C390 1.325 . S
H416 C358 0.929 . S
H417 C359 0.930 . S
H418 C360 0.930 . S
H419 C361 0.930 . S
H420 C363 0.930 . S
H421 C365 0.929 . S
H422 C366 0.930 . S
H423 C367 0.930 . S
H424 C370 0.930 . S
H425 C373 0.929 . S
H426 C378 0.929 . S
H427 C379 0.930 . S
H428 C386 0.929 . S
H429 C387 0.930 . S
H430 C388 0.930 . S
H431 C389 0.930 . S
H432 C391 0.929 . S
H433 C392 0.930 . S
H434 C393 0.930 . S
H435 C394 0.930 . S
H436 C398 0.929 . S
H437 C400 0.930 . S
H438 C406 0.929 . S
H439 C407 0.930 . S
Li440 N457 1.990 . S
Li440 O500 1.956 . S
Li440 O501 1.972 . S
Li440 O502 1.950 1_655 S
Li441 N465 1.991 . S
Li441 O500 1.955 1_455 S
Li441 O501 1.956 1_455 S
Li441 O503 1.976 . S
Li442 N487 1.991 . S
Li442 O500 1.967 . S
Li442 O502 1.956 1_655 S
Li442 O503 1.964 1_655 S
Li443 N493 1.990 . S
Li443 O501 1.959 1_455 S
Li443 O502 1.981 . S
Li443 O503 1.956 . S
C444 C446 1.348 . S
C444 C447 1.356 . S
C444 O500 1.325 . S
N445 C448 1.314 . S
N445 C449 1.279 . S
C446 C444 1.348 . S
C446 C448 1.353 . S
C446 H504 0.929 . S
C447 C444 1.356 . S
C447 C449 1.358 . S
C447 H505 0.930 . S
C448 N445 1.314 . S
C448 C446 1.353 . S
C448 H506 0.930 . S
C449 N445 1.279 . S
C449 C447 1.358 . S
C449 H507 0.930 . S
C450 C453 1.345 1_455 S
C450 C454 1.359 . S
C450 O501 1.325 1_455 S
C451 N452 1.279 . S
C451 C454 1.358 . S
C451 H508 0.930 . S
N452 C451 1.279 . S
N452 C455 1.314 1_455 S
C453 C450 1.345 1_655 S
C453 C455 1.353 . S
C453 H509 0.929 . S
C454 C450 1.359 . S
C454 C451 1.358 . S
C454 H510 0.930 . S
C455 N452 1.314 1_655 S
C455 C453 1.353 . S
C455 H511 0.930 . S
C456 N457 1.314 . S
C456 C461 1.353 . S
C456 H462 0.930 . S
N457 Li440 1.990 . S
N457 C456 1.314 . S
N457 C459 1.279 . S
C458 C459 1.358 . S
C458 C460 1.356 . S
C458 H512 0.930 . S
C459 N457 1.279 . S
C459 C458 1.358 . S
C459 H463 0.930 . S
C460 C458 1.356 . S
C460 C461 1.348 . S
C461 C456 1.353 . S
C461 C460 1.348 . S
C461 H513 0.929 . S
H462 C456 0.930 . S
H463 C459 0.930 . S
C464 N465 1.314 . S
C464 C466 1.353 . S
C464 H470 0.930 . S
N465 Li441 1.991 . S
N465 C464 1.314 . S
N465 C468 1.279 1_455 S
C466 C464 1.353 . S
C466 C469 1.346 . S
C466 H514 0.929 . S
C467 C468 1.358 . S
C467 C469 1.357 1_655 S
C467 H515 0.930 . S
C468 N465 1.279 1_655 S
C468 C467 1.358 . S
C468 H471 0.930 . S
C469 C466 1.346 . S
C469 C467 1.357 1_455 S
H470 C464 0.930 . S
H471 C468 0.930 . S
C472 C474 1.345 . S
C472 C475 1.359 1_455 S
C472 O502 1.325 . S
N473 C476 1.277 1_655 S
N473 C477 1.316 . S
C474 C472 1.345 . S
C474 C476 1.353 . S
C474 H516 0.929 . S
C475 C472 1.359 1_655 S
C475 C477 1.358 . S
C475 H517 0.930 . S
C476 N473 1.277 1_455 S
C476 C474 1.353 . S
C476 H518 0.930 . S
C477 N473 1.316 . S
C477 C475 1.358 . S
C477 H519 0.930 . S
C478 C479 1.348 . S
C478 C480 1.356 . S
C478 O503 1.325 . S
C479 C478 1.348 . S
C479 C481 1.353 . S
C479 H520 0.929 . S
C480 C478 1.356 . S
C480 C482 1.358 . S
C480 H521 0.930 . S
C481 C479 1.353 . S
C481 N483 1.314 . S
C481 H522 0.930 . S
C482 C480 1.358 . S
C482 N483 1.279 . S
C482 H523 0.930 . S
N483 C481 1.314 . S
N483 C482 1.279 . S
C484 C486 1.353 . S
C484 N487 1.314 . S
C484 H490 0.930 . S
C485 N487 1.279 1_455 S
C485 C488 1.358 . S
C485 H491 0.930 . S
C486 C484 1.353 . S
C486 C489 1.346 1_655 S
C486 H524 0.929 . S
N487 Li442 1.991 . S
N487 C484 1.314 . S
N487 C485 1.279 1_655 S
C488 C485 1.358 . S
C488 C489 1.357 . S
C488 H525 0.930 . S
C489 C486 1.346 1_455 S
C489 C488 1.357 . S
H490 C484 0.930 . S
H491 C485 0.930 . S
C492 N493 1.314 . S
C492 C494 1.353 . S
C492 H498 0.930 . S
N493 Li443 1.990 . S
N493 C492 1.314 . S
N493 C496 1.279 . S
C494 C492 1.353 . S
C494 C497 1.348 . S
C494 H526 0.929 . S
C495 C496 1.358 . S
C495 C497 1.356 . S
C495 H527 0.930 . S
C496 N493 1.279 . S
C496 C495 1.358 . S
C496 H499 0.930 . S
C497 C494 1.348 . S
C497 C495 1.356 . S
H498 C492 0.930 . S
H499 C496 0.930 . S
O500 Li440 1.956 . S
O500 Li441 1.955 1_655 S
O500 Li442 1.967 . S
O500 C444 1.325 . S
O501 Li440 1.972 . S
O501 Li441 1.956 1_655 S
O501 Li443 1.959 1_655 S
O501 C450 1.325 1_655 S
O502 Li440 1.950 1_455 S
O502 Li442 1.956 1_455 S
O502 Li443 1.981 . S
O502 C472 1.325 . S
O503 Li441 1.976 . S
O503 Li442 1.964 1_455 S
O503 Li443 1.956 . S
O503 C478 1.325 . S
H504 C446 0.929 . S
H505 C447 0.930 . S
H506 C448 0.930 . S
H507 C449 0.930 . S
H508 C451 0.930 . S
H509 C453 0.929 . S
H510 C454 0.930 . S
H511 C455 0.930 . S
H512 C458 0.930 . S
H513 C461 0.929 . S
H514 C466 0.929 . S
H515 C467 0.930 . S
H516 C474 0.929 . S
H517 C475 0.930 . S
H518 C476 0.930 . S
H519 C477 0.930 . S
H520 C479 0.929 . S
H521 C480 0.930 . S
H522 C481 0.930 . S
H523 C482 0.930 . S
H524 C486 0.929 . S
H525 C488 0.930 . S
H526 C494 0.929 . S
H527 C495 0.930 . S
Li528 N545 1.991 . S
Li528 O588 1.956 1_545 S
Li528 O589 1.955 1_545 S
Li528 O590 1.976 . S
Li529 N553 1.990 . S
Li529 O588 1.972 . S
Li529 O589 1.956 . S
Li529 O591 1.950 1_565 S
Li530 N575 1.990 . S
Li530 O588 1.959 1_545 S
Li530 O590 1.956 . S
Li530 O591 1.981 . S
Li531 N581 1.991 . S
Li531 O589 1.967 . S
Li531 O590 1.964 1_565 S
Li531 O591 1.956 1_565 S
C532 C534 1.345 1_545 S
C532 C535 1.359 . S
C532 O588 1.325 1_545 S
N533 C536 1.314 1_545 S
N533 C537 1.279 . S
C534 C532 1.345 1_565 S
C534 C536 1.353 . S
C534 H592 0.929 . S
C535 C532 1.359 . S
C535 C537 1.358 . S
C535 H593 0.930 . S
C536 N533 1.314 1_565 S
C536 C534 1.353 . S
C536 H594 0.930 . S
C537 N533 1.279 . S
C537 C535 1.358 . S
C537 H595 0.930 . S
C538 C541 1.348 . S
C538 C542 1.356 . S
C538 O589 1.325 . S
C539 N540 1.279 . S
C539 C542 1.358 . S
C539 H596 0.930 . S
N540 C539 1.279 . S
N540 C543 1.314 . S
C541 C538 1.348 . S
C541 C543 1.353 . S
C541 H597 0.929 . S
C542 C538 1.356 . S
C542 C539 1.358 . S
C542 H598 0.930 . S
C543 N540 1.314 . S
C543 C541 1.353 . S
C543 H599 0.930 . S
C544 N545 1.314 . S
C544 C549 1.353 . S
C544 H550 0.930 . S
N545 Li528 1.991 . S
N545 C544 1.314 . S
N545 C547 1.279 1_545 S
C546 C547 1.358 . S
C546 C548 1.357 1_565 S
C546 H600 0.930 . S
C547 N545 1.279 1_565 S
C547 C546 1.358 . S
C547 H551 0.930 . S
C548 C546 1.357 1_545 S
C548 C549 1.346 . S
C549 C544 1.353 . S
C549 C548 1.346 . S
C549 H601 0.929 . S
H550 C544 0.930 . S
H551 C547 0.930 . S
C552 N553 1.314 . S
C552 C554 1.353 . S
C552 H558 0.930 . S
N553 Li529 1.990 . S
N553 C552 1.314 . S
N553 C556 1.279 . S
C554 C552 1.353 . S
C554 C557 1.348 . S
C554 H602 0.929 . S
C555 C556 1.358 . S
C555 C557 1.356 . S
C555 H603 0.930 . S
C556 N553 1.279 . S
C556 C555 1.358 . S
C556 H559 0.930 . S
C557 C554 1.348 . S
C557 C555 1.356 . S
H558 C552 0.930 . S
H559 C556 0.930 . S
C560 C562 1.348 . S
C560 C563 1.356 . S
C560 O590 1.325 . S
N561 C564 1.314 . S
N561 C565 1.279 . S
C562 C560 1.348 . S
C562 C564 1.353 . S
C562 H604 0.929 . S
C563 C560 1.356 . S
C563 C565 1.358 . S
C563 H605 0.930 . S
C564 N561 1.314 . S
C564 C562 1.353 . S
C564 H606 0.930 . S
C565 N561 1.279 . S
C565 C563 1.358 . S
C565 H607 0.930 . S
C566 C567 1.345 . S
C566 C568 1.359 1_545 S
C566 O591 1.325 . S
C567 C566 1.345 . S
C567 C569 1.353 . S
C567 H608 0.929 . S
C568 C566 1.359 1_565 S
C568 C570 1.358 . S
C568 H609 0.930 . S
C569 C567 1.353 . S
C569 N571 1.277 1_545 S
C569 H610 0.930 . S
C570 C568 1.358 . S
C570 N571 1.316 . S
C570 H611 0.930 . S
N571 C569 1.277 1_565 S
N571 C570 1.316 . S
C572 C574 1.353 . S
C572 N575 1.314 . S
C572 H578 0.930 . S
C573 N575 1.279 . S
C573 C576 1.358 . S
C573 H579 0.930 . S
C574 C572 1.353 . S
C574 C577 1.348 . S
C574 H612 0.929 . S
N575 Li530 1.990 . S
N575 C572 1.314 . S
N575 C573 1.279 . S
C576 C573 1.358 . S
C576 C577 1.356 . S
C576 H613 0.930 . S
C577 C574 1.348 . S
C577 C576 1.356 . S
H578 C572 0.930 . S
H579 C573 0.930 . S
C580 N581 1.314 . S
C580 C582 1.353 . S
C580 H586 0.930 . S
N581 Li531 1.991 . S
N581 C580 1.314 . S
N581 C584 1.279 1_565 S
C582 C580 1.353 . S
C582 C585 1.346 1_565 S
C582 H614 0.929 . S
C583 C584 1.358 . S
C583 C585 1.357 . S
C583 H615 0.930 . S
C584 N581 1.279 1_545 S
C584 C583 1.358 . S
C584 H587 0.930 . S
C585 C582 1.346 1_545 S
C585 C583 1.357 . S
H586 C580 0.930 . S
H587 C584 0.930 . S
O588 Li528 1.956 1_565 S
O588 Li529 1.972 . S
O588 Li530 1.959 1_565 S
O588 C532 1.325 1_565 S
O589 Li528 1.955 1_565 S
O589 Li529 1.956 . S
O589 Li531 1.967 . S
O589 C538 1.325 . S
O590 Li528 1.976 . S
O590 Li530 1.956 . S
O590 Li531 1.964 1_545 S
O590 C560 1.325 . S
O591 Li529 1.950 1_545 S
O591 Li530 1.981 . S
O591 Li531 1.956 1_545 S
O591 C566 1.325 . S
H592 C534 0.929 . S
H593 C535 0.930 . S
H594 C536 0.930 . S
H595 C537 0.930 . S
H596 C539 0.930 . S
H597 C541 0.929 . S
H598 C542 0.930 . S
H599 C543 0.930 . S
H600 C546 0.930 . S
H601 C549 0.929 . S
H602 C554 0.929 . S
H603 C555 0.930 . S
H604 C562 0.929 . S
H605 C563 0.930 . S
H606 C564 0.930 . S
H607 C565 0.930 . S
H608 C567 0.929 . S
H609 C568 0.930 . S
H610 C569 0.930 . S
H611 C570 0.930 . S
H612 C574 0.929 . S
H613 C576 0.930 . S
H614 C582 0.929 . S
H615 C583 0.930 . S
Li616 N633 1.991 . S
Li616 O676 1.956 1_455 S
Li616 O677 1.955 1_455 S
Li616 O678 1.976 . S
Li617 N641 1.990 . S
Li617 O676 1.972 . S
Li617 O677 1.956 . S
Li617 O679 1.950 1_655 S
Li618 N663 1.990 . S
Li618 O676 1.959 1_455 S
Li618 O678 1.956 . S
Li618 O679 1.981 . S
Li619 N669 1.991 . S
Li619 O677 1.967 . S
Li619 O678 1.964 1_655 S
Li619 O679 1.956 1_655 S
C620 C622 1.345 1_455 S
C620 C623 1.359 . S
C620 O676 1.325 1_455 S
N621 C624 1.314 1_455 S
N621 C625 1.279 . S
C622 C620 1.345 1_655 S
C622 C624 1.353 . S
C622 H680 0.929 . S
C623 C620 1.359 . S
C623 C625 1.358 . S
C623 H681 0.930 . S
C624 N621 1.314 1_655 S
C624 C622 1.353 . S
C624 H682 0.930 . S
C625 N621 1.279 . S
C625 C623 1.358 . S
C625 H683 0.930 . S
C626 C629 1.348 . S
C626 C630 1.356 . S
C626 O677 1.325 . S
C627 N628 1.279 . S
C627 C630 1.358 . S
C627 H684 0.930 . S
N628 C627 1.279 . S
N628 C631 1.314 . S
C629 C626 1.348 . S
C629 C631 1.353 . S
C629 H685 0.929 . S
C630 C626 1.356 . S
C630 C627 1.358 . S
C630 H686 0.930 . S
C631 N628 1.314 . S
C631 C629 1.353 . S
C631 H687 0.930 . S
C632 N633 1.314 . S
C632 C637 1.353 . S
C632 H638 0.930 . S
N633 Li616 1.991 . S
N633 C632 1.314 . S
N633 C635 1.279 1_455 S
C634 C635 1.358 . S
C634 C636 1.357 1_655 S
C634 H688 0.930 . S
C635 N633 1.279 1_655 S
C635 C634 1.358 . S
C635 H639 0.930 . S
C636 C634 1.357 1_455 S
C636 C637 1.346 . S
C637 C632 1.353 . S
C637 C636 1.346 . S
C637 H689 0.929 . S
H638 C632 0.930 . S
H639 C635 0.930 . S
C640 N641 1.314 . S
C640 C642 1.353 . S
C640 H646 0.930 . S
N641 Li617 1.990 . S
N641 C640 1.314 . S
N641 C644 1.279 . S
C642 C640 1.353 . S
C642 C645 1.348 . S
C642 H690 0.929 . S
C643 C644 1.358 . S
C643 C645 1.356 . S
C643 H691 0.930 . S
C644 N641 1.279 . S
C644 C643 1.358 . S
C644 H647 0.930 . S
C645 C642 1.348 . S
C645 C643 1.356 . S
H646 C640 0.930 . S
H647 C644 0.930 . S
C648 C650 1.348 . S
C648 C651 1.356 . S
C648 O678 1.325 . S
N649 C652 1.314 . S
N649 C653 1.279 . S
C650 C648 1.348 . S
C650 C652 1.353 . S
C650 H692 0.929 . S
C651 C648 1.356 . S
C651 C653 1.358 . S
C651 H693 0.930 . S
C652 N649 1.314 . S
C652 C650 1.353 . S
C652 H694 0.930 . S
C653 N649 1.279 . S
C653 C651 1.358 . S
C653 H695 0.930 . S
C654 C655 1.345 . S
C654 C656 1.359 1_455 S
C654 O679 1.325 . S
C655 C654 1.345 . S
C655 C657 1.353 . S
C655 H696 0.929 . S
C656 C654 1.359 1_655 S
C656 C658 1.358 . S
C656 H697 0.930 . S
C657 C655 1.353 . S
C657 N659 1.277 1_455 S
C657 H698 0.930 . S
C658 C656 1.358 . S
C658 N659 1.316 . S
C658 H699 0.930 . S
N659 C657 1.277 1_655 S
N659 C658 1.316 . S
C660 C662 1.353 . S
C660 N663 1.314 . S
C660 H666 0.930 . S
C661 N663 1.279 . S
C661 C664 1.358 . S
C661 H667 0.930 . S
C662 C660 1.353 . S
C662 C665 1.348 . S
C662 H700 0.929 . S
N663 Li618 1.990 . S
N663 C660 1.314 . S
N663 C661 1.279 . S
C664 C661 1.358 . S
C664 C665 1.356 . S
C664 H701 0.930 . S
C665 C662 1.348 . S
C665 C664 1.356 . S
H666 C660 0.930 . S
H667 C661 0.930 . S
C668 N669 1.314 . S
C668 C670 1.353 . S
C668 H674 0.930 . S
N669 Li619 1.991 . S
N669 C668 1.314 . S
N669 C672 1.279 1_655 S
C670 C668 1.353 . S
C670 C673 1.346 1_655 S
C670 H702 0.929 . S
C671 C672 1.358 . S
C671 C673 1.357 . S
C671 H703 0.930 . S
C672 N669 1.279 1_455 S
C672 C671 1.358 . S
C672 H675 0.930 . S
C673 C670 1.346 1_455 S
C673 C671 1.357 . S
H674 C668 0.930 . S
H675 C672 0.930 . S
O676 Li616 1.956 1_655 S
O676 Li617 1.972 . S
O676 Li618 1.959 1_655 S
O676 C620 1.325 1_655 S
O677 Li616 1.955 1_655 S
O677 Li617 1.956 . S
O677 Li619 1.967 . S
O677 C626 1.325 . S
O678 Li616 1.976 . S
O678 Li618 1.956 . S
O678 Li619 1.964 1_455 S
O678 C648 1.325 . S
O679 Li617 1.950 1_455 S
O679 Li618 1.981 . S
O679 Li619 1.956 1_455 S
O679 C654 1.325 . S
H680 C622 0.929 . S
H681 C623 0.930 . S
H682 C624 0.930 . S
H683 C625 0.930 . S
H684 C627 0.930 . S
H685 C629 0.929 . S
H686 C630 0.930 . S
H687 C631 0.930 . S
H688 C634 0.930 . S
H689 C637 0.929 . S
H690 C642 0.929 . S
H691 C643 0.930 . S
H692 C650 0.929 . S
H693 C651 0.930 . S
H694 C652 0.930 . S
H695 C653 0.930 . S
H696 C655 0.929 . S
H697 C656 0.930 . S
H698 C657 0.930 . S
H699 C658 0.930 . S
H700 C662 0.929 . S
H701 C664 0.930 . S
H702 C670 0.929 . S
H703 C671 0.930 . S
Li704 N721 1.990 . S
Li704 O764 1.956 . S
Li704 O765 1.981 . S
Li704 O766 1.959 1_554 S
Li705 N729 1.991 . S
Li705 O764 1.964 1_556 S
Li705 O765 1.956 1_556 S
Li705 O767 1.967 . S
Li706 N751 1.991 . S
Li706 O764 1.976 . S
Li706 O766 1.956 1_554 S
Li706 O767 1.955 1_554 S
Li707 N757 1.990 . S
Li707 O765 1.950 1_556 S
Li707 O766 1.972 . S
Li707 O767 1.956 . S
C708 C710 1.348 . S
C708 C711 1.356 . S
C708 O764 1.325 . S
N709 C712 1.314 . S
N709 C713 1.279 . S
C710 C708 1.348 . S
C710 C712 1.353 . S
C710 H768 0.929 . S
C711 C708 1.356 . S
C711 C713 1.358 . S
C711 H769 0.930 . S
C712 N709 1.314 . S
C712 C710 1.353 . S
C712 H770 0.930 . S
C713 N709 1.279 . S
C713 C711 1.358 . S
C713 H771 0.930 . S
C714 C717 1.345 . S
C714 C718 1.359 1_554 S
C714 O765 1.325 . S
C715 N716 1.316 . S
C715 C718 1.358 . S
C715 H772 0.930 . S
N716 C715 1.316 . S
N716 C719 1.277 1_556 S
C717 C714 1.345 . S
C717 C719 1.353 . S
C717 H773 0.929 . S
C718 C714 1.359 1_556 S
C718 C715 1.358 . S
C718 H774 0.930 . S
C719 N716 1.277 1_554 S
C719 C717 1.353 . S
C719 H775 0.930 . S
C720 N721 1.314 . S
C720 C725 1.353 . S
C720 H726 0.930 . S
N721 Li704 1.990 . S
N721 C720 1.314 . S
N721 C723 1.279 . S
C722 C723 1.358 . S
C722 C724 1.356 . S
C722 H776 0.930 . S
C723 N721 1.279 . S
C723 C722 1.358 . S
C723 H727 0.930 . S
C724 C722 1.356 . S
C724 C725 1.348 . S
C725 C720 1.353 . S
C725 C724 1.348 . S
C725 H777 0.929 . S
H726 C720 0.930 . S
H727 C723 0.930 . S
C728 N729 1.314 . S
C728 C730 1.353 . S
C728 H734 0.930 . S
N729 Li705 1.991 . S
N729 C728 1.314 . S
N729 C732 1.279 1_556 S
C730 C728 1.353 . S
C730 C733 1.346 1_556 S
C730 H778 0.929 . S
C731 C732 1.358 . S
C731 C733 1.357 . S
C731 H779 0.930 . S
C732 N729 1.279 1_554 S
C732 C731 1.358 . S
C732 H735 0.930 . S
C733 C730 1.346 1_554 S
C733 C731 1.357 . S
H734 C728 0.930 . S
H735 C732 0.930 . S
C736 C738 1.345 1_554 S
C736 C739 1.359 . S
C736 O766 1.325 1_554 S
N737 C740 1.314 1_554 S
N737 C741 1.279 . S
C738 C736 1.345 1_556 S
C738 C740 1.353 . S
C738 H780 0.929 . S
C739 C736 1.359 . S
C739 C741 1.358 . S
C739 H781 0.930 . S
C740 N737 1.314 1_556 S
C740 C738 1.353 . S
C740 H782 0.930 . S
C741 N737 1.279 . S
C741 C739 1.358 . S
C741 H783 0.930 . S
C742 C743 1.348 . S
C742 C744 1.356 . S
C742 O767 1.325 . S
C743 C742 1.348 . S
C743 C745 1.353 . S
C743 H784 0.929 . S
C744 C742 1.356 . S
C744 C746 1.358 . S
C744 H785 0.930 . S
C745 C743 1.353 . S
C745 N747 1.314 . S
C745 H786 0.930 . S
C746 C744 1.358 . S
C746 N747 1.279 . S
C746 H787 0.930 . S
N747 C745 1.314 . S
N747 C746 1.279 . S
C748 C750 1.353 . S
C748 N751 1.314 . S
C748 H754 0.930 . S
C749 N751 1.279 1_556 S
C749 C752 1.358 . S
C749 H755 0.930 . S
C750 C748 1.353 . S
C750 C753 1.346 . S
C750 H788 0.929 . S
N751 Li706 1.991 . S
N751 C748 1.314 . S
N751 C749 1.279 1_554 S
C752 C749 1.358 . S
C752 C753 1.357 1_556 S
C752 H789 0.930 . S
C753 C750 1.346 . S
C753 C752 1.357 1_554 S
H754 C748 0.930 . S
H755 C749 0.930 . S
C756 N757 1.314 . S
C756 C758 1.353 . S
C756 H762 0.930 . S
N757 Li707 1.990 . S
N757 C756 1.314 . S
N757 C760 1.279 . S
C758 C756 1.353 . S
C758 C761 1.348 . S
C758 H790 0.929 . S
C759 C760 1.358 . S
C759 C761 1.356 . S
C759 H791 0.930 . S
C760 N757 1.279 . S
C760 C759 1.358 . S
C760 H763 0.930 . S
C761 C758 1.348 . S
C761 C759 1.356 . S
H762 C756 0.930 . S
H763 C760 0.930 . S
O764 Li704 1.956 . S
O764 Li705 1.964 1_554 S
O764 Li706 1.976 . S
O764 C708 1.325 . S
O765 Li704 1.981 . S
O765 Li705 1.956 1_554 S
O765 Li707 1.950 1_554 S
O765 C714 1.325 . S
O766 Li704 1.959 1_556 S
O766 Li706 1.956 1_556 S
O766 Li707 1.972 . S
O766 C736 1.325 1_556 S
O767 Li705 1.967 . S
O767 Li706 1.955 1_556 S
O767 Li707 1.956 . S
O767 C742 1.325 . S
H768 C710 0.929 . S
H769 C711 0.930 . S
H770 C712 0.930 . S
H771 C713 0.930 . S
H772 C715 0.930 . S
H773 C717 0.929 . S
H774 C718 0.930 . S
H775 C719 0.930 . S
H776 C722 0.930 . S
H777 C725 0.929 . S
H778 C730 0.929 . S
H779 C731 0.930 . S
H780 C738 0.929 . S
H781 C739 0.930 . S
H782 C740 0.930 . S
H783 C741 0.930 . S
H784 C743 0.929 . S
H785 C744 0.930 . S
H786 C745 0.930 . S
H787 C746 0.930 . S
H788 C750 0.929 . S
H789 C752 0.930 . S
H790 C758 0.929 . S
H791 C759 0.930 . S
Li792 N809 1.991 . S
Li792 O852 1.956 1_556 S
Li792 O853 1.964 1_556 S
Li792 O854 1.967 . S
Li793 N817 1.990 . S
Li793 O852 1.981 . S
Li793 O853 1.956 . S
Li793 O855 1.959 1_554 S
Li794 N839 1.990 . S
Li794 O852 1.950 1_556 S
Li794 O854 1.956 . S
Li794 O855 1.972 . S
Li795 N845 1.991 . S
Li795 O853 1.976 . S
Li795 O854 1.955 1_554 S
Li795 O855 1.956 1_554 S
C796 C798 1.345 . S
C796 C799 1.359 1_554 S
C796 O852 1.325 . S
N797 C800 1.277 1_556 S
N797 C801 1.316 . S
C798 C796 1.345 . S
C798 C800 1.353 . S
C798 H856 0.929 . S
C799 C796 1.359 1_556 S
C799 C801 1.358 . S
C799 H857 0.930 . S
C800 N797 1.277 1_554 S
C800 C798 1.353 . S
C800 H858 0.930 . S
C801 N797 1.316 . S
C801 C799 1.358 . S
C801 H859 0.930 . S
C802 C805 1.348 . S
C802 C806 1.356 . S
C802 O853 1.325 . S
C803 N804 1.279 . S
C803 C806 1.358 . S
C803 H860 0.930 . S
N804 C803 1.279 . S
N804 C807 1.314 . S
C805 C802 1.348 . S
C805 C807 1.353 . S
C805 H861 0.929 . S
C806 C802 1.356 . S
C806 C803 1.358 . S
C806 H862 0.930 . S
C807 N804 1.314 . S
C807 C805 1.353 . S
C807 H863 0.930 . S
C808 N809 1.314 . S
C808 C813 1.353 . S
C808 H814 0.930 . S
N809 Li792 1.991 . S
N809 C808 1.314 . S
N809 C811 1.279 1_556 S
C810 C811 1.358 . S
C810 C812 1.357 . S
C810 H864 0.930 . S
C811 N809 1.279 1_554 S
C811 C810 1.358 . S
C811 H815 0.930 . S
C812 C810 1.357 . S
C812 C813 1.346 1_554 S
C813 C808 1.353 . S
C813 C812 1.346 1_556 S
C813 H865 0.929 . S
H814 C808 0.930 . S
H815 C811 0.930 . S
C816 N817 1.314 . S
C816 C818 1.353 . S
C816 H822 0.930 . S
N817 Li793 1.990 . S
N817 C816 1.314 . S
N817 C820 1.279 . S
C818 C816 1.353 . S
C818 C821 1.348 . S
C818 H866 0.929 . S
C819 C820 1.358 . S
C819 C821 1.356 . S
C819 H867 0.930 . S
C820 N817 1.279 . S
C820 C819 1.358 . S
C820 H823 0.930 . S
C821 C818 1.348 . S
C821 C819 1.356 . S
H822 C816 0.930 . S
H823 C820 0.930 . S
C824 C826 1.348 . S
C824 C827 1.356 . S
C824 O854 1.325 . S
N825 C828 1.314 . S
N825 C829 1.279 . S
C826 C824 1.348 . S
C826 C828 1.353 . S
C826 H868 0.929 . S
C827 C824 1.356 . S
C827 C829 1.358 . S
C827 H869 0.930 . S
C828 N825 1.314 . S
C828 C826 1.353 . S
C828 H870 0.930 . S
C829 N825 1.279 . S
C829 C827 1.358 . S
C829 H871 0.930 . S
C830 C831 1.345 1_554 S
C830 C832 1.359 . S
C830 O855 1.325 1_554 S
C831 C830 1.345 1_556 S
C831 C833 1.353 . S
C831 H872 0.929 . S
C832 C830 1.359 . S
C832 C834 1.358 . S
C832 H873 0.930 . S
C833 C831 1.353 . S
C833 N835 1.314 1_556 S
C833 H874 0.930 . S
C834 C832 1.358 . S
C834 N835 1.279 . S
C834 H875 0.930 . S
N835 C833 1.314 1_554 S
N835 C834 1.279 . S
C836 C838 1.353 . S
C836 N839 1.314 . S
C836 H842 0.930 . S
C837 N839 1.279 . S
C837 C840 1.358 . S
C837 H843 0.930 . S
C838 C836 1.353 . S
C838 C841 1.348 . S
C838 H876 0.929 . S
N839 Li794 1.990 . S
N839 C836 1.314 . S
N839 C837 1.279 . S
C840 C837 1.358 . S
C840 C841 1.356 . S
C840 H877 0.930 . S
C841 C838 1.348 . S
C841 C840 1.356 . S
H842 C836 0.930 . S
H843 C837 0.930 . S
C844 N845 1.314 . S
C844 C846 1.353 . S
C844 H850 0.930 . S
N845 Li795 1.991 . S
N845 C844 1.314 . S
N845 C848 1.279 1_554 S
C846 C844 1.353 . S
C846 C849 1.346 . S
C846 H878 0.929 . S
C847 C848 1.358 . S
C847 C849 1.357 1_556 S
C847 H879 0.930 . S
C848 N845 1.279 1_556 S
C848 C847 1.358 . S
C848 H851 0.930 . S
C849 C846 1.346 . S
C849 C847 1.357 1_554 S
H850 C844 0.930 . S
H851 C848 0.930 . S
O852 Li792 1.956 1_554 S
O852 Li793 1.981 . S
O852 Li794 1.950 1_554 S
O852 C796 1.325 . S
O853 Li792 1.964 1_554 S
O853 Li793 1.956 . S
O853 Li795 1.976 . S
O853 C802 1.325 . S
O854 Li792 1.967 . S
O854 Li794 1.956 . S
O854 Li795 1.955 1_556 S
O854 C824 1.325 . S
O855 Li793 1.959 1_556 S
O855 Li794 1.972 . S
O855 Li795 1.956 1_556 S
O855 C830 1.325 1_556 S
H856 C798 0.929 . S
H857 C799 0.930 . S
H858 C800 0.930 . S
H859 C801 0.930 . S
H860 C803 0.930 . S
H861 C805 0.929 . S
H862 C806 0.930 . S
H863 C807 0.930 . S
H864 C810 0.930 . S
H865 C813 0.929 . S
H866 C818 0.929 . S
H867 C819 0.930 . S
H868 C826 0.929 . S
H869 C827 0.930 . S
H870 C828 0.930 . S
H871 C829 0.930 . S
H872 C831 0.929 . S
H873 C832 0.930 . S
H874 C833 0.930 . S
H875 C834 0.930 . S
H876 C838 0.929 . S
H877 C840 0.930 . S
H878 C846 0.929 . S
H879 C847 0.930 . S
Li880 N897 1.991 . S
Li880 O940 1.956 1_556 S
Li880 O941 1.964 1_556 S
Li880 O942 1.967 . S
Li881 N905 1.990 . S
Li881 O940 1.981 . S
Li881 O941 1.956 . S
Li881 O943 1.959 1_554 S
Li882 N927 1.990 . S
Li882 O940 1.950 1_556 S
Li882 O942 1.956 . S
Li882 O943 1.972 . S
Li883 N933 1.991 . S
Li883 O941 1.976 . S
Li883 O942 1.955 1_554 S
Li883 O943 1.956 1_554 S
C884 C886 1.345 . S
C884 C887 1.359 1_554 S
C884 O940 1.325 . S
N885 C888 1.277 1_556 S
N885 C889 1.316 . S
C886 C884 1.345 . S
C886 C888 1.353 . S
C886 H944 0.929 . S
C887 C884 1.359 1_556 S
C887 C889 1.358 . S
C887 H945 0.930 . S
C888 N885 1.277 1_554 S
C888 C886 1.353 . S
C888 H946 0.930 . S
C889 N885 1.316 . S
C889 C887 1.358 . S
C889 H947 0.930 . S
C890 C893 1.348 . S
C890 C894 1.356 . S
C890 O941 1.325 . S
C891 N892 1.279 . S
C891 C894 1.358 . S
C891 H948 0.930 . S
N892 C891 1.279 . S
N892 C895 1.314 . S
C893 C890 1.348 . S
C893 C895 1.353 . S
C893 H949 0.929 . S
C894 C890 1.356 . S
C894 C891 1.358 . S
C894 H950 0.930 . S
C895 N892 1.314 . S
C895 C893 1.353 . S
C895 H951 0.930 . S
C896 N897 1.314 . S
C896 C901 1.353 . S
C896 H902 0.930 . S
N897 Li880 1.991 . S
N897 C896 1.314 . S
N897 C899 1.279 1_556 S
C898 C899 1.358 . S
C898 C900 1.357 . S
C898 H952 0.930 . S
C899 N897 1.279 1_554 S
C899 C898 1.358 . S
C899 H903 0.930 . S
C900 C898 1.357 . S
C900 C901 1.346 1_554 S
C901 C896 1.353 . S
C901 C900 1.346 1_556 S
C901 H953 0.929 . S
H902 C896 0.930 . S
H903 C899 0.930 . S
C904 N905 1.314 . S
C904 C906 1.353 . S
C904 H910 0.930 . S
N905 Li881 1.990 . S
N905 C904 1.314 . S
N905 C908 1.279 . S
C906 C904 1.353 . S
C906 C909 1.348 . S
C906 H954 0.929 . S
C907 C908 1.358 . S
C907 C909 1.356 . S
C907 H955 0.930 . S
C908 N905 1.279 . S
C908 C907 1.358 . S
C908 H911 0.930 . S
C909 C906 1.348 . S
C909 C907 1.356 . S
H910 C904 0.930 . S
H911 C908 0.930 . S
C912 C914 1.348 . S
C912 C915 1.356 . S
C912 O942 1.325 . S
N913 C916 1.314 . S
N913 C917 1.279 . S
C914 C912 1.348 . S
C914 C916 1.353 . S
C914 H956 0.929 . S
C915 C912 1.356 . S
C915 C917 1.358 . S
C915 H957 0.930 . S
C916 N913 1.314 . S
C916 C914 1.353 . S
C916 H958 0.930 . S
C917 N913 1.279 . S
C917 C915 1.358 . S
C917 H959 0.930 . S
C918 C919 1.345 1_554 S
C918 C920 1.359 . S
C918 O943 1.325 1_554 S
C919 C918 1.345 1_556 S
C919 C921 1.353 . S
C919 H960 0.929 . S
C920 C918 1.359 . S
C920 C922 1.358 . S
C920 H961 0.930 . S
C921 C919 1.353 . S
C921 N923 1.314 1_556 S
C921 H962 0.930 . S
C922 C920 1.358 . S
C922 N923 1.279 . S
C922 H963 0.930 . S
N923 C921 1.314 1_554 S
N923 C922 1.279 . S
C924 C926 1.353 . S
C924 N927 1.314 . S
C924 H930 0.930 . S
C925 N927 1.279 . S
C925 C928 1.358 . S
C925 H931 0.930 . S
C926 C924 1.353 . S
C926 C929 1.348 . S
C926 H964 0.929 . S
N927 Li882 1.990 . S
N927 C924 1.314 . S
N927 C925 1.279 . S
C928 C925 1.358 . S
C928 C929 1.356 . S
C928 H965 0.930 . S
C929 C926 1.348 . S
C929 C928 1.356 . S
H930 C924 0.930 . S
H931 C925 0.930 . S
C932 N933 1.314 . S
C932 C934 1.353 . S
C932 H938 0.930 . S
N933 Li883 1.991 . S
N933 C932 1.314 . S
N933 C936 1.279 1_554 S
C934 C932 1.353 . S
C934 C937 1.346 . S
C934 H966 0.929 . S
C935 C936 1.358 . S
C935 C937 1.357 1_556 S
C935 H967 0.930 . S
C936 N933 1.279 1_556 S
C936 C935 1.358 . S
C936 H939 0.930 . S
C937 C934 1.346 . S
C937 C935 1.357 1_554 S
H938 C932 0.930 . S
H939 C936 0.930 . S
O940 Li880 1.956 1_554 S
O940 Li881 1.981 . S
O940 Li882 1.950 1_554 S
O940 C884 1.325 . S
O941 Li880 1.964 1_554 S
O941 Li881 1.956 . S
O941 Li883 1.976 . S
O941 C890 1.325 . S
O942 Li880 1.967 . S
O942 Li882 1.956 . S
O942 Li883 1.955 1_556 S
O942 C912 1.325 . S
O943 Li881 1.959 1_556 S
O943 Li882 1.972 . S
O943 Li883 1.956 1_556 S
O943 C918 1.325 1_556 S
H944 C886 0.929 . S
H945 C887 0.930 . S
H946 C888 0.930 . S
H947 C889 0.930 . S
H948 C891 0.930 . S
H949 C893 0.929 . S
H950 C894 0.930 . S
H951 C895 0.930 . S
H952 C898 0.930 . S
H953 C901 0.929 . S
H954 C906 0.929 . S
H955 C907 0.930 . S
H956 C914 0.929 . S
H957 C915 0.930 . S
H958 C916 0.930 . S
H959 C917 0.930 . S
H960 C919 0.929 . S
H961 C920 0.930 . S
H962 C921 0.930 . S
H963 C922 0.930 . S
H964 C926 0.929 . S
H965 C928 0.930 . S
H966 C934 0.929 . S
H967 C935 0.930 . S
Li968 N985 1.990 . S
Li968 O1028 1.956 . S
Li968 O1029 1.981 . S
Li968 O1030 1.959 1_554 S
Li969 N993 1.991 . S
Li969 O1028 1.964 1_556 S
Li969 O1029 1.956 1_556 S
Li969 O1031 1.967 . S
Li970 N1015 1.991 . S
Li970 O1028 1.976 . S
Li970 O1030 1.956 1_554 S
Li970 O1031 1.955 1_554 S
Li971 N1021 1.990 . S
Li971 O1029 1.950 1_556 S
Li971 O1030 1.972 . S
Li971 O1031 1.956 . S
C972 C974 1.348 . S
C972 C975 1.356 . S
C972 O1028 1.325 . S
N973 C976 1.314 . S
N973 C977 1.279 . S
C974 C972 1.348 . S
C974 C976 1.353 . S
C974 H1032 0.929 . S
C975 C972 1.356 . S
C975 C977 1.358 . S
C975 H1033 0.930 . S
C976 N973 1.314 . S
C976 C974 1.353 . S
C976 H1034 0.930 . S
C977 N973 1.279 . S
C977 C975 1.358 . S
C977 H1035 0.930 . S
C978 C981 1.345 . S
C978 C982 1.359 1_554 S
C978 O1029 1.325 . S
C979 N980 1.316 . S
C979 C982 1.358 . S
C979 H1036 0.930 . S
N980 C979 1.316 . S
N980 C983 1.277 1_556 S
C981 C978 1.345 . S
C981 C983 1.353 . S
C981 H1037 0.929 . S
C982 C978 1.359 1_556 S
C982 C979 1.358 . S
C982 H1038 0.930 . S
C983 N980 1.277 1_554 S
C983 C981 1.353 . S
C983 H1039 0.930 . S
C984 N985 1.314 . S
C984 C989 1.353 . S
C984 H990 0.930 . S
N985 Li968 1.990 . S
N985 C984 1.314 . S
N985 C987 1.279 . S
C986 C987 1.358 . S
C986 C988 1.356 . S
C986 H1040 0.930 . S
C987 N985 1.279 . S
C987 C986 1.358 . S
C987 H991 0.930 . S
C988 C986 1.356 . S
C988 C989 1.348 . S
C989 C984 1.353 . S
C989 C988 1.348 . S
C989 H1041 0.929 . S
H990 C984 0.930 . S
H991 C987 0.930 . S
C992 N993 1.314 . S
C992 C994 1.353 . S
C992 H998 0.930 . S
N993 Li969 1.991 . S
N993 C992 1.314 . S
N993 C996 1.279 1_556 S
C994 C992 1.353 . S
C994 C997 1.346 1_556 S
C994 H1042 0.929 . S
C995 C996 1.358 . S
C995 C997 1.357 . S
C995 H1043 0.930 . S
C996 N993 1.279 1_554 S
C996 C995 1.358 . S
C996 H999 0.930 . S
C997 C994 1.346 1_554 S
C997 C995 1.357 . S
H998 C992 0.930 . S
H999 C996 0.930 . S
C1000 C1002 1.345 1_554 S
C1000 C1003 1.359 . S
C1000 O1030 1.325 1_554 S
N1001 C1004 1.314 1_554 S
N1001 C1005 1.279 . S
C1002 C1000 1.345 1_556 S
C1002 C1004 1.353 . S
C1002 H1044 0.929 . S
C1003 C1000 1.359 . S
C1003 C1005 1.358 . S
C1003 H1045 0.930 . S
C1004 N1001 1.314 1_556 S
C1004 C1002 1.353 . S
C1004 H1046 0.930 . S
C1005 N1001 1.279 . S
C1005 C1003 1.358 . S
C1005 H1047 0.930 . S
C1006 C1007 1.348 . S
C1006 C1008 1.356 . S
C1006 O1031 1.325 . S
C1007 C1006 1.348 . S
C1007 C1009 1.353 . S
C1007 H1048 0.929 . S
C1008 C1006 1.356 . S
C1008 C1010 1.358 . S
C1008 H1049 0.930 . S
C1009 C1007 1.353 . S
C1009 N1011 1.314 . S
C1009 H1050 0.930 . S
C1010 C1008 1.358 . S
C1010 N1011 1.279 . S
C1010 H1051 0.930 . S
N1011 C1009 1.314 . S
N1011 C1010 1.279 . S
C1012 C1014 1.353 . S
C1012 N1015 1.314 . S
C1012 H1018 0.930 . S
C1013 N1015 1.279 1_556 S
C1013 C1016 1.358 . S
C1013 H1019 0.930 . S
C1014 C1012 1.353 . S
C1014 C1017 1.346 . S
C1014 H1052 0.929 . S
N1015 Li970 1.991 . S
N1015 C1012 1.314 . S
N1015 C1013 1.279 1_554 S
C1016 C1013 1.358 . S
C1016 C1017 1.357 1_556 S
C1016 H1053 0.930 . S
C1017 C1014 1.346 . S
C1017 C1016 1.357 1_554 S
H1018 C1012 0.930 . S
H1019 C1013 0.930 . S
C1020 N1021 1.314 . S
C1020 C1022 1.353 . S
C1020 H1026 0.930 . S
N1021 Li971 1.990 . S
N1021 C1020 1.314 . S
N1021 C1024 1.279 . S
C1022 C1020 1.353 . S
C1022 C1025 1.348 . S
C1022 H1054 0.929 . S
C1023 C1024 1.358 . S
C1023 C1025 1.356 . S
C1023 H1055 0.930 . S
C1024 N1021 1.279 . S
C1024 C1023 1.358 . S
C1024 H1027 0.930 . S
C1025 C1022 1.348 . S
C1025 C1023 1.356 . S
H1026 C1020 0.930 . S
H1027 C1024 0.930 . S
O1028 Li968 1.956 . S
O1028 Li969 1.964 1_554 S
O1028 Li970 1.976 . S
O1028 C972 1.325 . S
O1029 Li968 1.981 . S
O1029 Li969 1.956 1_554 S
O1029 Li971 1.950 1_554 S
O1029 C978 1.325 . S
O1030 Li968 1.959 1_556 S
O1030 Li970 1.956 1_556 S
O1030 Li971 1.972 . S
O1030 C1000 1.325 1_556 S
O1031 Li969 1.967 . S
O1031 Li970 1.955 1_556 S
O1031 Li971 1.956 . S
O1031 C1006 1.325 . S
H1032 C974 0.929 . S
H1033 C975 0.930 . S
H1034 C976 0.930 . S
H1035 C977 0.930 . S
H1036 C979 0.930 . S
H1037 C981 0.929 . S
H1038 C982 0.930 . S
H1039 C983 0.930 . S
H1040 C986 0.930 . S
H1041 C989 0.929 . S
H1042 C994 0.929 . S
H1043 C995 0.930 . S
H1044 C1002 0.929 . S
H1045 C1003 0.930 . S
H1046 C1004 0.930 . S
H1047 C1005 0.930 . S
H1048 C1007 0.929 . S
H1049 C1008 0.930 . S
H1050 C1009 0.930 . S
H1051 C1010 0.930 . S
H1052 C1014 0.929 . S
H1053 C1016 0.930 . S
H1054 C1022 0.929 . S
H1055 C1023 0.930 . S
H1056 C1064 0.950 . S
H1057 C1069 0.950 . S
H1058 C1066 0.950 . S
H1059 C1068 0.950 . S
H1060 C1070 0.950 . S
H1061 C1072 0.950 . S
H1062 C1074 0.950 . S
H1063 C1075 0.950 . S
C1064 H1056 0.950 . S
C1064 C1065 1.386 1_655 S
C1064 C1066 1.391 . S
C1065 C1064 1.386 1_455 S
C1065 C1069 1.393 . S
C1066 H1058 0.950 . S
C1066 C1064 1.391 . S
C1066 C1067 1.392 1_655 S
C1067 C1066 1.392 1_455 S
C1067 C1068 1.409 . S
C1067 C1073 1.490 1_455 S
C1068 H1059 0.950 . S
C1068 C1067 1.409 . S
C1068 C1069 1.391 . S
C1069 H1057 0.950 . S
C1069 C1065 1.393 . S
C1069 C1068 1.391 . S
C1070 H1060 0.950 . S
C1070 C1071 1.369 1_455 S
C1070 C1072 1.391 . S
C1071 C1070 1.369 1_655 S
C1071 C1075 1.412 . S
C1072 H1061 0.950 . S
C1072 C1070 1.391 . S
C1072 C1073 1.395 1_455 S
C1073 C1067 1.490 1_655 S
C1073 C1072 1.395 1_655 S
C1073 C1074 1.404 . S
C1074 H1062 0.950 . S
C1074 C1073 1.404 . S
C1074 C1075 1.391 . S
C1075 H1063 0.950 . S
C1075 C1071 1.412 . S
C1075 C1074 1.391 . S
H1076 C1084 0.950 . S
H1077 C1089 0.950 . S
H1078 C1086 0.950 . S
H1079 C1088 0.950 . S
H1080 C1090 0.950 . S
H1081 C1092 0.950 . S
H1082 C1094 0.950 . S
H1083 C1095 0.950 . S
C1084 H1076 0.950 . S
C1084 C1085 1.386 1_565 S
C1084 C1086 1.391 . S
C1085 C1084 1.386 1_545 S
C1085 C1089 1.393 . S
C1086 H1078 0.950 . S
C1086 C1084 1.391 . S
C1086 C1087 1.397 1_565 S
C1087 C1086 1.397 1_545 S
C1087 C1088 1.403 . S
C1087 C1093 1.489 1_545 S
C1088 H1079 0.950 . S
C1088 C1087 1.403 . S
C1088 C1089 1.391 . S
C1089 H1077 0.950 . S
C1089 C1085 1.393 . S
C1089 C1088 1.391 . S
C1090 H1080 0.950 . S
C1090 C1091 1.386 1_545 S
C1090 C1092 1.391 . S
C1091 C1090 1.386 1_565 S
C1091 C1095 1.393 . S
C1092 H1081 0.950 . S
C1092 C1090 1.391 . S
C1092 C1093 1.398 1_545 S
C1093 C1087 1.489 1_565 S
C1093 C1092 1.398 1_565 S
C1093 C1094 1.401 . S
C1094 H1082 0.950 . S
C1094 C1093 1.401 . S
C1094 C1095 1.391 . S
C1095 H1083 0.950 . S
C1095 C1091 1.393 . S
C1095 C1094 1.391 . S
H1096 C1104 0.950 . S
H1097 C1109 0.950 . S
H1098 C1106 0.950 . S
H1099 C1108 0.950 . S
H1100 C1110 0.950 . S
H1101 C1112 0.950 . S
H1102 C1114 0.950 . S
H1103 C1115 0.950 . S
C1104 H1096 0.950 . S
C1104 C1105 1.386 . S
C1104 C1106 1.391 . S
C1105 C1104 1.386 . S
C1105 C1109 1.393 1_455 S
C1106 H1098 0.950 . S
C1106 C1104 1.391 . S
C1106 C1107 1.411 . S
C1107 C1106 1.411 . S
C1107 C1108 1.389 1_455 S
C1107 C1113 1.490 1_455 S
C1108 H1099 0.950 . S
C1108 C1107 1.389 1_655 S
C1108 C1109 1.391 . S
C1109 H1097 0.950 . S
C1109 C1105 1.393 1_655 S
C1109 C1108 1.391 . S
C1110 H1100 0.950 . S
C1110 C1111 1.406 . S
C1110 C1112 1.391 . S
C1111 C1110 1.406 . S
C1111 C1115 1.374 1_655 S
C1112 H1101 0.950 . S
C1112 C1110 1.391 . S
C1112 C1113 1.406 . S
C1113 C1107 1.490 1_655 S
C1113 C1112 1.406 . S
C1113 C1114 1.394 1_655 S
C1114 H1102 0.950 . S
C1114 C1113 1.394 1_455 S
C1114 C1115 1.391 . S
C1115 H1103 0.950 . S
C1115 C1111 1.374 1_455 S
C1115 C1114 1.391 . S
H1116 C1124 0.950 . S
H1117 C1129 0.950 . S
H1118 C1126 0.950 . S
H1119 C1128 0.950 . S
H1120 C1130 0.950 . S
H1121 C1132 0.950 . S
H1122 C1134 0.950 . S
H1123 C1135 0.950 . S
C1124 H1116 0.950 . S
C1124 C1125 1.392 . S
C1124 C1126 1.391 . S
C1125 C1124 1.392 . S
C1125 C1129 1.388 1_545 S
C1126 H1118 0.950 . S
C1126 C1124 1.391 . S
C1126 C1127 1.405 . S
C1127 C1126 1.405 . S
C1127 C1128 1.395 1_545 S
C1127 C1133 1.490 1_545 S
C1128 H1119 0.950 . S
C1128 C1127 1.395 1_565 S
C1128 C1129 1.391 . S
C1129 H1117 0.950 . S
C1129 C1125 1.388 1_565 S
C1129 C1128 1.391 . S
C1130 H1120 0.950 . S
C1130 C1131 1.389 . S
C1130 C1132 1.391 . S
C1131 C1130 1.389 . S
C1131 C1135 1.390 1_565 S
C1132 H1121 0.950 . S
C1132 C1130 1.391 . S
C1132 C1133 1.402 . S
C1133 C1127 1.490 1_565 S
C1133 C1132 1.402 . S
C1133 C1134 1.397 1_565 S
C1134 H1122 0.950 . S
C1134 C1133 1.397 1_545 S
C1134 C1135 1.391 . S
C1135 H1123 0.950 . S
C1135 C1131 1.390 1_545 S
C1135 C1134 1.391 . S
H1136 C1144 0.950 . S
H1137 C1149 0.950 . S
H1138 C1146 0.950 . S
H1139 C1148 0.950 . S
H1140 C1150 0.950 . S
H1141 C1152 0.950 . S
H1142 C1154 0.950 . S
H1143 C1155 0.950 . S
C1144 H1136 0.950 . S
C1144 C1145 1.367 1_455 S
C1144 C1146 1.391 . S
C1145 C1144 1.367 1_655 S
C1145 C1149 1.414 . S
C1146 H1138 0.950 . S
C1146 C1144 1.391 . S
C1146 C1147 1.395 1_455 S
C1147 C1146 1.395 1_655 S
C1147 C1148 1.404 . S
C1147 C1153 1.490 1_655 S
C1148 H1139 0.950 . S
C1148 C1147 1.404 . S
C1148 C1149 1.391 . S
C1149 H1137 0.950 . S
C1149 C1145 1.414 . S
C1149 C1148 1.391 . S
C1150 H1140 0.950 . S
C1150 C1151 1.386 1_655 S
C1150 C1152 1.391 . S
C1151 C1150 1.386 1_455 S
C1151 C1155 1.393 . S
C1152 H1141 0.950 . S
C1152 C1150 1.391 . S
C1152 C1153 1.391 1_655 S
C1153 C1147 1.490 1_455 S
C1153 C1152 1.391 1_455 S
C1153 C1154 1.410 . S
C1154 H1142 0.950 . S
C1154 C1153 1.410 . S
C1154 C1155 1.391 . S
C1155 H1143 0.950 . S
C1155 C1151 1.393 . S
C1155 C1154 1.391 . S
H1156 C1164 0.950 . S
H1157 C1169 0.950 . S
H1158 C1166 0.950 . S
H1159 C1168 0.950 . S
H1160 C1170 0.950 . S
H1161 C1172 0.950 . S
H1162 C1174 0.950 . S
H1163 C1175 0.950 . S
C1164 H1156 0.950 . S
C1164 C1165 1.396 . S
C1164 C1166 1.391 . S
C1165 C1164 1.396 . S
C1165 C1169 1.385 1_565 S
C1166 H1158 0.950 . S
C1166 C1164 1.391 . S
C1166 C1167 1.403 . S
C1167 C1166 1.403 . S
C1167 C1168 1.396 1_565 S
C1167 C1173 1.490 1_565 S
C1168 H1159 0.950 . S
C1168 C1167 1.396 1_545 S
C1168 C1169 1.391 . S
C1169 H1157 0.950 . S
C1169 C1165 1.385 1_545 S
C1169 C1168 1.391 . S
C1170 H1160 0.950 . S
C1170 C1171 1.386 . S
C1170 C1172 1.391 . S
C1171 C1170 1.386 . S
C1171 C1175 1.393 1_545 S
C1172 H1161 0.950 . S
C1172 C1170 1.391 . S
C1172 C1173 1.406 . S
C1173 C1167 1.490 1_545 S
C1173 C1172 1.406 . S
C1173 C1174 1.395 1_545 S
C1174 H1162 0.950 . S
C1174 C1173 1.395 1_565 S
C1174 C1175 1.391 . S
C1175 H1163 0.950 . S
C1175 C1171 1.393 1_565 S
C1175 C1174 1.391 . S
H1176 C1184 0.950 . S
H1177 C1189 0.950 . S
H1178 C1186 0.950 . S
H1179 C1188 0.950 . S
H1180 C1190 0.950 . S
H1181 C1192 0.950 . S
H1182 C1194 0.950 . S
H1183 C1195 0.950 . S
C1184 H1176 0.950 . S
C1184 C1185 1.389 . S
C1184 C1186 1.391 . S
C1185 C1184 1.389 . S
C1185 C1189 1.390 1_455 S
C1186 H1178 0.950 . S
C1186 C1184 1.391 . S
C1186 C1187 1.403 . S
C1187 C1186 1.403 . S
C1187 C1188 1.397 1_455 S
C1187 C1193 1.490 1_455 S
C1188 H1179 0.950 . S
C1188 C1187 1.397 1_655 S
C1188 C1189 1.391 . S
C1189 H1177 0.950 . S
C1189 C1185 1.390 1_655 S
C1189 C1188 1.391 . S
C1190 H1180 0.950 . S
C1190 C1191 1.388 . S
C1190 C1192 1.391 . S
C1191 C1190 1.388 . S
C1191 C1195 1.391 1_655 S
C1192 H1181 0.950 . S
C1192 C1190 1.391 . S
C1192 C1193 1.401 . S
C1193 C1187 1.490 1_655 S
C1193 C1192 1.401 . S
C1193 C1194 1.398 1_655 S
C1194 H1182 0.950 . S
C1194 C1193 1.398 1_455 S
C1194 C1195 1.391 . S
C1195 H1183 0.950 . S
C1195 C1191 1.391 1_455 S
C1195 C1194 1.391 . S
H1196 C1204 0.950 . S
H1197 C1209 0.950 . S
H1198 C1206 0.950 . S
H1199 C1208 0.950 . S
H1200 C1210 0.950 . S
H1201 C1212 0.950 . S
H1202 C1214 0.950 . S
H1203 C1215 0.950 . S
C1204 H1196 0.950 . S
C1204 C1205 1.386 . S
C1204 C1206 1.391 . S
C1205 C1204 1.386 . S
C1205 C1209 1.393 1_545 S
C1206 H1198 0.950 . S
C1206 C1204 1.391 . S
C1206 C1207 1.407 . S
C1207 C1206 1.407 . S
C1207 C1208 1.394 1_545 S
C1207 C1213 1.490 1_545 S
C1208 H1199 0.950 . S
C1208 C1207 1.394 1_565 S
C1208 C1209 1.391 . S
C1209 H1197 0.950 . S
C1209 C1205 1.393 1_565 S
C1209 C1208 1.391 . S
C1210 H1200 0.950 . S
C1210 C1211 1.398 . S
C1210 C1212 1.391 . S
C1211 C1210 1.398 . S
C1211 C1215 1.383 1_565 S
C1212 H1201 0.950 . S
C1212 C1210 1.391 . S
C1212 C1213 1.404 . S
C1213 C1207 1.490 1_565 S
C1213 C1212 1.404 . S
C1213 C1214 1.396 1_565 S
C1214 H1202 0.950 . S
C1214 C1213 1.396 1_545 S
C1214 C1215 1.391 . S
C1215 H1203 0.950 . S
C1215 C1211 1.383 1_545 S
C1215 C1214 1.391 . S
H1216 C1224 0.950 . S
H1217 C1229 0.950 . S
H1218 C1226 0.950 . S
H1219 C1228 0.950 . S
H1220 C1230 0.950 . S
H1221 C1232 0.950 . S
H1222 C1234 0.950 . S
H1223 C1235 0.950 . S
C1224 H1216 0.950 . S
C1224 C1225 1.401 . S
C1224 C1226 1.391 . S
C1225 C1224 1.401 . S
C1225 C1229 1.377 1_556 S
C1226 H1218 0.950 . S
C1226 C1224 1.391 . S
C1226 C1227 1.399 . S
C1227 C1226 1.399 . S
C1227 C1228 1.400 1_556 S
C1227 C1233 1.490 1_556 S
C1228 H1219 0.950 . S
C1228 C1227 1.400 1_554 S
C1228 C1229 1.391 . S
C1229 H1217 0.950 . S
C1229 C1225 1.377 1_554 S
C1229 C1228 1.391 . S
C1230 H1220 0.950 . S
C1230 C1231 1.412 . S
C1230 C1232 1.391 . S
C1231 C1230 1.412 . S
C1231 C1235 1.367 1_554 S
C1232 H1221 0.950 . S
C1232 C1230 1.391 . S
C1232 C1233 1.409 . S
C1233 C1227 1.490 1_554 S
C1233 C1232 1.409 . S
C1233 C1234 1.390 1_554 S
C1234 H1222 0.950 . S
C1234 C1233 1.390 1_556 S
C1234 C1235 1.391 . S
C1235 H1223 0.950 . S
C1235 C1231 1.367 1_556 S
C1235 C1234 1.391 . S
H1236 C1244 0.950 . S
H1237 C1249 0.950 . S
H1238 C1246 0.950 . S
H1239 C1248 0.950 . S
H1240 C1250 0.950 . S
H1241 C1252 0.950 . S
H1242 C1254 0.950 . S
H1243 C1255 0.950 . S
C1244 H1236 0.950 . S
C1244 C1245 1.390 1_554 S
C1244 C1246 1.391 . S
C1245 C1244 1.390 1_556 S
C1245 C1249 1.388 . S
C1246 H1238 0.950 . S
C1246 C1244 1.391 . S
C1246 C1247 1.403 . S
C1247 C1246 1.403 . S
C1247 C1248 1.396 1_554 S
C1247 C1253 1.491 . S
C1248 H1239 0.950 . S
C1248 C1247 1.396 1_556 S
C1248 C1249 1.391 . S
C1249 H1237 0.950 . S
C1249 C1245 1.388 . S
C1249 C1248 1.391 . S
C1250 H1240 0.950 . S
C1250 C1251 1.380 1_556 S
C1250 C1252 1.391 . S
C1251 C1250 1.380 1_554 S
C1251 C1255 1.398 . S
C1252 H1241 0.950 . S
C1252 C1250 1.391 . S
C1252 C1253 1.403 1_556 S
C1253 C1247 1.491 . S
C1253 C1252 1.403 1_554 S
C1253 C1254 1.396 . S
C1254 H1242 0.950 . S
C1254 C1253 1.396 . S
C1254 C1255 1.391 . S
C1255 H1243 0.950 . S
C1255 C1251 1.398 . S
C1255 C1254 1.391 . S
H1256 C1264 0.950 . S
H1257 C1269 0.950 . S
H1258 C1266 0.950 . S
H1259 C1268 0.950 . S
H1260 C1270 0.950 . S
H1261 C1272 0.950 . S
H1262 C1274 0.950 . S
H1263 C1275 0.950 . S
C1264 H1256 0.950 . S
C1264 C1265 1.417 . S
C1264 C1266 1.391 . S
C1265 C1264 1.417 . S
C1265 C1269 1.363 1_554 S
C1266 H1258 0.950 . S
C1266 C1264 1.391 . S
C1266 C1267 1.413 . S
C1267 C1266 1.413 . S
C1267 C1268 1.387 1_554 S
C1267 C1273 1.490 1_554 S
C1268 H1259 0.950 . S
C1268 C1267 1.387 1_556 S
C1268 C1269 1.391 . S
C1269 H1257 0.950 . S
C1269 C1265 1.363 1_556 S
C1269 C1268 1.391 . S
C1270 H1260 0.950 . S
C1270 C1271 1.409 . S
C1270 C1272 1.391 . S
C1271 C1270 1.409 . S
C1271 C1275 1.370 1_556 S
C1272 H1261 0.950 . S
C1272 C1270 1.391 . S
C1272 C1273 1.405 . S
C1273 C1267 1.490 1_556 S
C1273 C1272 1.405 . S
C1273 C1274 1.393 1_556 S
C1274 H1262 0.950 . S
C1274 C1273 1.393 1_554 S
C1274 C1275 1.391 . S
C1275 H1263 0.950 . S
C1275 C1271 1.370 1_554 S
C1275 C1274 1.391 . S
H1276 C1284 0.950 . S
H1277 C1289 0.950 . S
H1278 C1286 0.950 . S
H1279 C1288 0.950 . S
H1280 C1290 0.950 . S
H1281 C1292 0.950 . S
H1282 C1294 0.950 . S
H1283 C1295 0.950 . S
C1284 H1276 0.950 . S
C1284 C1285 1.382 1_556 S
C1284 C1286 1.391 . S
C1285 C1284 1.382 1_554 S
C1285 C1289 1.397 . S
C1286 H1278 0.950 . S
C1286 C1284 1.391 . S
C1286 C1287 1.404 1_556 S
C1287 C1286 1.404 1_554 S
C1287 C1288 1.395 . S
C1287 C1293 1.491 . S
C1288 H1279 0.950 . S
C1288 C1287 1.395 . S
C1288 C1289 1.391 . S
C1289 H1277 0.950 . S
C1289 C1285 1.397 . S
C1289 C1288 1.391 . S
C1290 H1280 0.950 . S
C1290 C1291 1.382 . S
C1290 C1292 1.391 . S
C1291 C1290 1.382 . S
C1291 C1295 1.397 1_554 S
C1292 H1281 0.950 . S
C1292 C1290 1.391 . S
C1292 C1293 1.404 . S
C1293 C1287 1.491 . S
C1293 C1292 1.404 . S
C1293 C1294 1.395 1_554 S
C1294 H1282 0.950 . S
C1294 C1293 1.395 1_556 S
C1294 C1295 1.391 . S
C1295 H1283 0.950 . S
C1295 C1291 1.397 1_556 S
C1295 C1294 1.391 . S
H1296 C1304 0.950 . S
H1297 C1309 0.950 . S
H1298 C1306 0.950 . S
H1299 C1308 0.950 . S
H1300 C1310 0.950 . S
H1301 C1312 0.950 . S
H1302 C1314 0.950 . S
H1303 C1315 0.950 . S
C1304 H1296 0.950 . S
C1304 C1305 1.386 . S
C1304 C1306 1.391 . S
C1305 C1304 1.386 . S
C1305 C1309 1.393 . S
C1306 H1298 0.950 . S
C1306 C1304 1.391 . S
C1306 C1307 1.400 . S
C1307 C1306 1.400 . S
C1307 C1308 1.398 . S
C1307 C1313 1.491 . S
C1308 H1299 0.950 . S
C1308 C1307 1.398 . S
C1308 C1309 1.391 . S
C1309 H1297 0.950 . S
C1309 C1305 1.393 . S
C1309 C1308 1.391 . S
C1310 H1300 0.950 . S
C1310 C1311 1.386 . S
C1310 C1312 1.391 . S
C1311 C1310 1.386 . S
C1311 C1315 1.393 . S
C1312 H1301 0.950 . S
C1312 C1310 1.391 . S
C1312 C1313 1.400 . S
C1313 C1307 1.491 . S
C1313 C1312 1.400 . S
C1313 C1314 1.398 . S
C1314 H1302 0.950 . S
C1314 C1313 1.398 . S
C1314 C1315 1.391 . S
C1315 H1303 0.950 . S
C1315 C1311 1.393 . S
C1315 C1314 1.391 . S
H1316 C1324 0.950 . S
H1317 C1329 0.950 . S
H1318 C1326 0.950 . S
H1319 C1328 0.950 . S
H1320 C1330 0.950 . S
H1321 C1332 0.950 . S
H1322 C1334 0.950 . S
H1323 C1335 0.950 . S
C1324 H1316 0.950 . S
C1324 C1325 1.386 . S
C1324 C1326 1.391 . S
C1325 C1324 1.386 . S
C1325 C1329 1.393 . S
C1326 H1318 0.950 . S
C1326 C1324 1.391 . S
C1326 C1327 1.400 . S
C1327 C1326 1.400 . S
C1327 C1328 1.398 . S
C1327 C1333 1.491 . S
C1328 H1319 0.950 . S
C1328 C1327 1.398 . S
C1328 C1329 1.391 . S
C1329 H1317 0.950 . S
C1329 C1325 1.393 . S
C1329 C1328 1.391 . S
C1330 H1320 0.950 . S
C1330 C1331 1.386 . S
C1330 C1332 1.391 . S
C1331 C1330 1.386 . S
C1331 C1335 1.393 . S
C1332 H1321 0.950 . S
C1332 C1330 1.391 . S
C1332 C1333 1.400 . S
C1333 C1327 1.491 . S
C1333 C1332 1.400 . S
C1333 C1334 1.398 . S
C1334 H1322 0.950 . S
C1334 C1333 1.398 . S
C1334 C1335 1.391 . S
C1335 H1323 0.950 . S
C1335 C1331 1.393 . S
C1335 C1334 1.391 . S
H1336 C1344 0.950 . S
H1337 C1349 0.950 . S
H1338 C1346 0.950 . S
H1339 C1348 0.950 . S
H1340 C1350 0.950 . S
H1341 C1352 0.950 . S
H1342 C1354 0.950 . S
H1343 C1355 0.950 . S
C1344 H1336 0.950 . S
C1344 C1345 1.386 . S
C1344 C1346 1.391 . S
C1345 C1344 1.386 . S
C1345 C1349 1.393 . S
C1346 H1338 0.950 . S
C1346 C1344 1.391 . S
C1346 C1347 1.400 . S
C1347 C1346 1.400 . S
C1347 C1348 1.398 . S
C1347 C1353 1.491 . S
C1348 H1339 0.950 . S
C1348 C1347 1.398 . S
C1348 C1349 1.391 . S
C1349 H1337 0.950 . S
C1349 C1345 1.393 . S
C1349 C1348 1.391 . S
C1350 H1340 0.950 . S
C1350 C1351 1.386 . S
C1350 C1352 1.391 . S
C1351 C1350 1.386 . S
C1351 C1355 1.393 . S
C1352 H1341 0.950 . S
C1352 C1350 1.391 . S
C1352 C1353 1.400 . S
C1353 C1347 1.491 . S
C1353 C1352 1.400 . S
C1353 C1354 1.398 . S
C1354 H1342 0.950 . S
C1354 C1353 1.398 . S
C1354 C1355 1.391 . S
C1355 H1343 0.950 . S
C1355 C1351 1.393 . S
C1355 C1354 1.391 . S
H1356 C1364 0.950 . S
H1357 C1369 0.950 . S
H1358 C1366 0.950 . S
H1359 C1368 0.950 . S
H1360 C1370 0.950 . S
H1361 C1372 0.950 . S
H1362 C1374 0.950 . S
H1363 C1375 0.950 . S
C1364 H1356 0.950 . S
C1364 C1365 1.386 . S
C1364 C1366 1.391 . S
C1365 C1364 1.386 . S
C1365 C1369 1.393 . S
C1366 H1358 0.950 . S
C1366 C1364 1.391 . S
C1366 C1367 1.400 . S
C1367 C1366 1.400 . S
C1367 C1368 1.398 . S
C1367 C1373 1.491 . S
C1368 H1359 0.950 . S
C1368 C1367 1.398 . S
C1368 C1369 1.391 . S
C1369 H1357 0.950 . S
C1369 C1365 1.393 . S
C1369 C1368 1.391 . S
C1370 H1360 0.950 . S
C1370 C1371 1.386 . S
C1370 C1372 1.391 . S
C1371 C1370 1.386 . S
C1371 C1375 1.393 . S
C1372 H1361 0.950 . S
C1372 C1370 1.391 . S
C1372 C1373 1.400 . S
C1373 C1367 1.491 . S
C1373 C1372 1.400 . S
C1373 C1374 1.398 . S
C1374 H1362 0.950 . S
C1374 C1373 1.398 . S
C1374 C1375 1.391 . S
C1375 H1363 0.950 . S
C1375 C1371 1.393 . S
C1375 C1374 1.391 . S
H1376 C1384 0.950 . S
H1377 C1389 0.950 . S
H1378 C1386 0.950 . S
H1379 C1388 0.950 . S
H1380 C1390 0.950 . S
H1381 C1392 0.950 . S
H1382 C1394 0.950 . S
H1383 C1395 0.950 . S
C1384 H1376 0.950 . S
C1384 C1385 1.386 . S
C1384 C1386 1.391 . S
C1385 C1384 1.386 . S
C1385 C1389 1.393 . S
C1386 H1378 0.950 . S
C1386 C1384 1.391 . S
C1386 C1387 1.400 . S
C1387 C1386 1.400 . S
C1387 C1388 1.398 . S
C1387 C1393 1.491 . S
C1388 H1379 0.950 . S
C1388 C1387 1.398 . S
C1388 C1389 1.391 . S
C1389 H1377 0.950 . S
C1389 C1385 1.393 . S
C1389 C1388 1.391 . S
C1390 H1380 0.950 . S
C1390 C1391 1.386 . S
C1390 C1392 1.391 . S
C1391 C1390 1.386 . S
C1391 C1395 1.393 . S
C1392 H1381 0.950 . S
C1392 C1390 1.391 . S
C1392 C1393 1.400 . S
C1393 C1387 1.491 . S
C1393 C1392 1.400 . S
C1393 C1394 1.398 . S
C1394 H1382 0.950 . S
C1394 C1393 1.398 . S
C1394 C1395 1.391 . S
C1395 H1383 0.950 . S
C1395 C1391 1.393 . S
C1395 C1394 1.391 . S
H1396 C1404 0.950 . S
H1397 C1409 0.950 . S
H1398 C1406 0.950 . S
H1399 C1408 0.950 . S
H1400 C1410 0.950 . S
H1401 C1412 0.950 . S
H1402 C1414 0.950 . S
H1403 C1415 0.950 . S
C1404 H1396 0.950 . S
C1404 C1405 1.386 . S
C1404 C1406 1.391 . S
C1405 C1404 1.386 . S
C1405 C1409 1.393 . S
C1406 H1398 0.950 . S
C1406 C1404 1.391 . S
C1406 C1407 1.400 . S
C1407 C1406 1.400 . S
C1407 C1408 1.398 . S
C1407 C1413 1.491 . S
C1408 H1399 0.950 . S
C1408 C1407 1.398 . S
C1408 C1409 1.391 . S
C1409 H1397 0.950 . S
C1409 C1405 1.393 . S
C1409 C1408 1.391 . S
C1410 H1400 0.950 . S
C1410 C1411 1.386 . S
C1410 C1412 1.391 . S
C1411 C1410 1.386 . S
C1411 C1415 1.393 . S
C1412 H1401 0.950 . S
C1412 C1410 1.391 . S
C1412 C1413 1.400 . S
C1413 C1407 1.491 . S
C1413 C1412 1.400 . S
C1413 C1414 1.398 . S
C1414 H1402 0.950 . S
C1414 C1413 1.398 . S
C1414 C1415 1.391 . S
C1415 H1403 0.950 . S
C1415 C1411 1.393 . S
C1415 C1414 1.391 . S
H1416 C1424 0.950 . S
H1417 C1429 0.950 . S
H1418 C1426 0.950 . S
H1419 C1428 0.950 . S
H1420 C1430 0.950 . S
H1421 C1432 0.950 . S
H1422 C1434 0.950 . S
H1423 C1435 0.950 . S
C1424 H1416 0.950 . S
C1424 C1425 1.386 . S
C1424 C1426 1.391 . S
C1425 C1424 1.386 . S
C1425 C1429 1.393 . S
C1426 H1418 0.950 . S
C1426 C1424 1.391 . S
C1426 C1427 1.400 . S
C1427 C1426 1.400 . S
C1427 C1428 1.398 . S
C1427 C1433 1.491 . S
C1428 H1419 0.950 . S
C1428 C1427 1.398 . S
C1428 C1429 1.391 . S
C1429 H1417 0.950 . S
C1429 C1425 1.393 . S
C1429 C1428 1.391 . S
C1430 H1420 0.950 . S
C1430 C1431 1.386 . S
C1430 C1432 1.391 . S
C1431 C1430 1.386 . S
C1431 C1435 1.393 . S
C1432 H1421 0.950 . S
C1432 C1430 1.391 . S
C1432 C1433 1.400 . S
C1433 C1427 1.491 . S
C1433 C1432 1.400 . S
C1433 C1434 1.398 . S
C1434 H1422 0.950 . S
C1434 C1433 1.398 . S
C1434 C1435 1.391 . S
C1435 H1423 0.950 . S
C1435 C1431 1.393 . S
C1435 C1434 1.391 . S
H1436 C1444 0.950 . S
H1437 C1449 0.950 . S
H1438 C1446 0.950 . S
H1439 C1448 0.950 . S
H1440 C1450 0.950 . S
H1441 C1452 0.950 . S
H1442 C1454 0.950 . S
H1443 C1455 0.950 . S
C1444 H1436 0.950 . S
C1444 C1445 1.386 . S
C1444 C1446 1.391 . S
C1445 C1444 1.386 . S
C1445 C1449 1.393 . S
C1446 H1438 0.950 . S
C1446 C1444 1.391 . S
C1446 C1447 1.400 . S
C1447 C1446 1.400 . S
C1447 C1448 1.398 . S
C1447 C1453 1.491 . S
C1448 H1439 0.950 . S
C1448 C1447 1.398 . S
C1448 C1449 1.391 . S
C1449 H1437 0.950 . S
C1449 C1445 1.393 . S
C1449 C1448 1.391 . S
C1450 H1440 0.950 . S
C1450 C1451 1.386 . S
C1450 C1452 1.391 . S
C1451 C1450 1.386 . S
C1451 C1455 1.393 . S
C1452 H1441 0.950 . S
C1452 C1450 1.391 . S
C1452 C1453 1.400 . S
C1453 C1447 1.491 . S
C1453 C1452 1.400 . S
C1453 C1454 1.398 . S
C1454 H1442 0.950 . S
C1454 C1453 1.398 . S
C1454 C1455 1.391 . S
C1455 H1443 0.950 . S
C1455 C1451 1.393 . S
C1455 C1454 1.391 . S
H1456 C1464 0.950 . S
H1457 C1469 0.950 . S
H1458 C1466 0.950 . S
H1459 C1468 0.950 . S
H1460 C1470 0.950 . S
H1461 C1472 0.950 . S
H1462 C1474 0.950 . S
H1463 C1475 0.950 . S
C1464 H1456 0.950 . S
C1464 C1465 1.386 . S
C1464 C1466 1.391 . S
C1465 C1464 1.386 . S
C1465 C1469 1.393 . S
C1466 H1458 0.950 . S
C1466 C1464 1.391 . S
C1466 C1467 1.400 . S
C1467 C1466 1.400 . S
C1467 C1468 1.398 . S
C1467 C1473 1.491 . S
C1468 H1459 0.950 . S
C1468 C1467 1.398 . S
C1468 C1469 1.391 . S
C1469 H1457 0.950 . S
C1469 C1465 1.393 . S
C1469 C1468 1.391 . S
C1470 H1460 0.950 . S
C1470 C1471 1.386 . S
C1470 C1472 1.391 . S
C1471 C1470 1.386 . S
C1471 C1475 1.393 . S
C1472 H1461 0.950 . S
C1472 C1470 1.391 . S
C1472 C1473 1.400 . S
C1473 C1467 1.491 . S
C1473 C1472 1.400 . S
C1473 C1474 1.398 . S
C1474 H1462 0.950 . S
C1474 C1473 1.398 . S
C1474 C1475 1.391 . S
C1475 H1463 0.950 . S
C1475 C1471 1.393 . S
C1475 C1474 1.391 . S
H1476 C1484 0.950 . S
H1477 C1489 0.950 . S
H1478 C1486 0.950 . S
H1479 C1488 0.950 . S
H1480 C1490 0.950 . S
H1481 C1492 0.950 . S
H1482 C1494 0.950 . S
H1483 C1495 0.950 . S
C1484 H1476 0.950 . S
C1484 C1485 1.386 . S
C1484 C1486 1.391 . S
C1485 C1484 1.386 . S
C1485 C1489 1.393 . S
C1486 H1478 0.950 . S
C1486 C1484 1.391 . S
C1486 C1487 1.400 . S
C1487 C1486 1.400 . S
C1487 C1488 1.398 . S
C1487 C1493 1.491 . S
C1488 H1479 0.950 . S
C1488 C1487 1.398 . S
C1488 C1489 1.391 . S
C1489 H1477 0.950 . S
C1489 C1485 1.393 . S
C1489 C1488 1.391 . S
C1490 H1480 0.950 . S
C1490 C1491 1.386 . S
C1490 C1492 1.391 . S
C1491 C1490 1.386 . S
C1491 C1495 1.393 . S
C1492 H1481 0.950 . S
C1492 C1490 1.391 . S
C1492 C1493 1.400 . S
C1493 C1487 1.491 . S
C1493 C1492 1.400 . S
C1493 C1494 1.398 . S
C1494 H1482 0.950 . S
C1494 C1493 1.398 . S
C1494 C1495 1.391 . S
C1495 H1483 0.950 . S
C1495 C1491 1.393 . S
C1495 C1494 1.391 . S
H1496 C1504 0.950 . S
H1497 C1509 0.950 . S
H1498 C1506 0.950 . S
H1499 C1508 0.950 . S
H1500 C1510 0.950 . S
H1501 C1512 0.950 . S
H1502 C1514 0.950 . S
H1503 C1515 0.950 . S
C1504 H1496 0.950 . S
C1504 C1505 1.386 . S
C1504 C1506 1.391 . S
C1505 C1504 1.386 . S
C1505 C1509 1.393 . S
C1506 H1498 0.950 . S
C1506 C1504 1.391 . S
C1506 C1507 1.400 . S
C1507 C1506 1.400 . S
C1507 C1508 1.398 . S
C1507 C1513 1.491 . S
C1508 H1499 0.950 . S
C1508 C1507 1.398 . S
C1508 C1509 1.391 . S
C1509 H1497 0.950 . S
C1509 C1505 1.393 . S
C1509 C1508 1.391 . S
C1510 H1500 0.950 . S
C1510 C1511 1.386 . S
C1510 C1512 1.391 . S
C1511 C1510 1.386 . S
C1511 C1515 1.393 . S
C1512 H1501 0.950 . S
C1512 C1510 1.391 . S
C1512 C1513 1.400 . S
C1513 C1507 1.491 . S
C1513 C1512 1.400 . S
C1513 C1514 1.398 . S
C1514 H1502 0.950 . S
C1514 C1513 1.398 . S
C1514 C1515 1.391 . S
C1515 H1503 0.950 . S
C1515 C1511 1.393 . S
C1515 C1514 1.391 . S
H1516 C1524 0.950 . S
H1517 C1529 0.950 . S
H1518 C1526 0.950 . S
H1519 C1528 0.950 . S
H1520 C1530 0.950 . S
H1521 C1532 0.950 . S
H1522 C1534 0.950 . S
H1523 C1535 0.950 . S
C1524 H1516 0.950 . S
C1524 C1525 1.386 . S
C1524 C1526 1.391 . S
C1525 C1524 1.386 . S
C1525 C1529 1.393 . S
C1526 H1518 0.950 . S
C1526 C1524 1.391 . S
C1526 C1527 1.400 . S
C1527 C1526 1.400 . S
C1527 C1528 1.398 . S
C1527 C1533 1.491 . S
C1528 H1519 0.950 . S
C1528 C1527 1.398 . S
C1528 C1529 1.391 . S
C1529 H1517 0.950 . S
C1529 C1525 1.393 . S
C1529 C1528 1.391 . S
C1530 H1520 0.950 . S
C1530 C1531 1.386 . S
C1530 C1532 1.391 . S
C1531 C1530 1.386 . S
C1531 C1535 1.393 . S
C1532 H1521 0.950 . S
C1532 C1530 1.391 . S
C1532 C1533 1.400 . S
C1533 C1527 1.491 . S
C1533 C1532 1.400 . S
C1533 C1534 1.398 . S
C1534 H1522 0.950 . S
C1534 C1533 1.398 . S
C1534 C1535 1.391 . S
C1535 H1523 0.950 . S
C1535 C1531 1.393 . S
C1535 C1534 1.391 . S
C1065 C49 1.213 . S
C1071 C469 1.214 1_655 S
C1085 C145 1.214 . S
C1091 C401 1.215 1_565 S
C1105 C489 1.217 . S
C1111 C225 1.210 1_655 S
C1125 C313 1.211 . S
C1131 C381 1.214 1_565 S
C1145 C636 1.211 1_655 S
C1151 C205 1.216 . S
C1165 C548 1.214 1_565 S
C1171 C293 1.213 . S
C1185 C29 1.211 . S
C1191 C673 1.213 1_655 S
C1205 C585 1.216 . S
C1211 C108 1.211 1_565 S
C1225 C849 1.217 1_556 S
C1231 C733 1.209 . S
C1245 C753 1.209 1_556 S
C1251 C997 1.217 . S
C1265 C812 1.216 . S
C1271 C937 1.210 1_556 S
C1285 C900 1.209 . S
C1291 C1017 1.217 . S
C1305 C1025 1.215 . S
C1311 C557 1.218 . S
C1325 C761 1.211 . S
C1331 C665 1.215 . S
C1345 C577 1.212 . S
C1351 C841 1.218 . S
C1365 C645 1.210 . S
C1371 C929 1.219 . S
C1385 C372 1.212 . S
C1391 C821 1.208 . S
C1405 C460 1.210 . S
C1411 C909 1.215 . S
C1425 C988 1.214 . S
C1431 C409 1.211 . S
C1445 C724 1.217 . S
C1451 C497 1.207 . S
C1465 C117 1.209 . S
C1471 C233 1.220 . S
C1485 C20 1.216 . S
C1491 C137 1.209 . S
C1505 C196 1.209 . S
C1511 C321 1.217 . S
C1525 C57 1.212 . S
C1531 C284 1.213 . S
