# Generated by pormake.
# Topology sof, (5)-cn, num edge types: 1
# Building blocks:
#     Node 0, Type 0, BuildingBlock: XOMCOT_clean_sbu_0, # of connection points: 5
#     Node 1, Type 0, BuildingBlock: XOMCOT_clean_sbu_0, # of connection points: 5
#     Node 2, Type 0, BuildingBlock: XOMCOT_clean_sbu_0, # of connection points: 5
#     Node 3, Type 0, BuildingBlock: XOMCOT_clean_sbu_0, # of connection points: 5
#     Node 4, Type 0, BuildingBlock: XOMCOT_clean_sbu_0, # of connection points: 5
#     Node 5, Type 0, BuildingBlock: XOMCOT_clean_sbu_0, # of connection points: 5
#     Node 6, Type 0, BuildingBlock: XOMCOT_clean_sbu_0, # of connection points: 5
#     Node 7, Type 0, BuildingBlock: XOMCOT_clean_sbu_0, # of connection points: 5
#     Edge 8, Type (0, 0), BuildingBlock: KIFKEQ_clean_linker_1, # of connection points: 2
#     Edge 9, Type (0, 0), BuildingBlock: KIFKEQ_clean_linker_1, # of connection points: 2
#     Edge 10, Type (0, 0), BuildingBlock: KIFKEQ_clean_linker_1, # of connection points: 2
#     Edge 11, Type (0, 0), BuildingBlock: KIFKEQ_clean_linker_1, # of connection points: 2
#     Edge 12, Type (0, 0), BuildingBlock: KIFKEQ_clean_linker_1, # of connection points: 2
#     Edge 13, Type (0, 0), BuildingBlock: KIFKEQ_clean_linker_1, # of connection points: 2
#     Edge 14, Type (0, 0), BuildingBlock: KIFKEQ_clean_linker_1, # of connection points: 2
#     Edge 15, Type (0, 0), BuildingBlock: KIFKEQ_clean_linker_1, # of connection points: 2
#     Edge 16, Type (0, 0), BuildingBlock: KIFKEQ_clean_linker_1, # of connection points: 2
#     Edge 17, Type (0, 0), BuildingBlock: KIFKEQ_clean_linker_1, # of connection points: 2
#     Edge 18, Type (0, 0), BuildingBlock: KIFKEQ_clean_linker_1, # of connection points: 2
#     Edge 19, Type (0, 0), BuildingBlock: KIFKEQ_clean_linker_1, # of connection points: 2
#     Edge 20, Type (0, 0), BuildingBlock: KIFKEQ_clean_linker_1, # of connection points: 2
#     Edge 21, Type (0, 0), BuildingBlock: KIFKEQ_clean_linker_1, # of connection points: 2
#     Edge 22, Type (0, 0), BuildingBlock: KIFKEQ_clean_linker_1, # of connection points: 2
#     Edge 23, Type (0, 0), BuildingBlock: KIFKEQ_clean_linker_1, # of connection points: 2
#     Edge 24, Type (0, 0), BuildingBlock: KIFKEQ_clean_linker_1, # of connection points: 2
#     Edge 25, Type (0, 0), BuildingBlock: KIFKEQ_clean_linker_1, # of connection points: 2
#     Edge 26, Type (0, 0), BuildingBlock: KIFKEQ_clean_linker_1, # of connection points: 2
#     Edge 27, Type (0, 0), BuildingBlock: KIFKEQ_clean_linker_1, # of connection points: 2
# Relax obj value: 0.129
# Max RMSD: 0.156
# Mean RMSD: 0.156
data_MOF--net-sof--node1-XOMCOT_clean_sbu_0--edge1-KIFKEQ_clean_linker_1
_symmetry_space_group_name_H-M    P1
_symmetry_Int_Tables_number       1
_symmetry_cell_setting            triclinic
loop_
_symmetry_equiv_pos_as_xyz
'x, y, z'
_cell_length_a     60.050615
_cell_length_b     17.803968
_cell_length_c     47.755112
_cell_angle_alpha  89.941419
_cell_angle_beta   90.101288
_cell_angle_gamma 89.969496
loop_
_atom_site_label
_atom_site_type_symbol
_atom_site_fract_x
_atom_site_fract_y
_atom_site_fract_z
_atom_type_partial_charge
Co0 Co 0.08442 0.10234 0.09624 0.0
C1 C 0.0852 0.93485 0.1027 0.0
C2 C 0.0624 0.98852 0.1307 0.0
C3 C 0.0602 0.91202 0.1337 0.0
N4 N 0.07835 1.00313 0.11159 0.0
N5 N 0.07457 0.8784 0.11606 0.0
H6 H 0.09652 0.92563 0.08563 0.0
H7 H 0.05247 0.03081 0.1411 0.0
C8 C 0.0921 0.11821 0.15768 0.0
O9 O 0.10281 0.05385 0.15693 0.0
N10 N 0.08966 0.20107 0.08096 0.0
C11 C 0.10053 0.21753 0.05715 0.0
C12 C 0.10128 0.29441 0.05424 0.0
C13 C 0.08389 0.26769 0.09219 0.0
N14 N 0.09088 0.32632 0.07637 0.0
C15 C 0.12622 0.03862 0.07901 0.0
C16 C 0.15297 0.12563 0.1131 0.0
C17 C 0.16296 0.07188 0.09579 0.0
C18 C 0.14927 0.02879 0.07828 0.0
C19 C 0.12985 0.13371 0.11309 0.0
N20 N 0.11661 0.08742 0.09741 0.0
H21 H 0.11623 1.00857 0.064 0.0
H22 H 0.12276 0.17904 0.1251 0.0
H23 H 0.10761 0.17649 0.04305 0.0
H24 H 0.07501 0.27263 0.11173 0.0
O25 O 0.07844 0.06418 0.05918 0.0
O26 O 0.05309 0.11215 0.08779 0.0
O27 O 0.08398 0.14617 0.1352 0.0
C28 C 0.0577 0.0811 0.06382 0.0
H29 H 0.04863 0.88344 0.1474 0.0
H30 H 0.10901 0.32387 0.03702 0.0
H31 H 0.16296 0.16277 0.12594 0.0
H32 H 0.15628 0.98797 0.06398 0.0
Co33 Co 0.40622 0.92494 0.0953 0.0
C34 C 0.40722 0.09036 0.09968 0.0
C35 C 0.42249 0.03794 0.13538 0.0
C36 C 0.42413 0.11473 0.13828 0.0
N37 N 0.41185 0.02289 0.11122 0.0
N38 N 0.4146 0.14783 0.11576 0.0
H39 H 0.39916 0.09683 0.07954 0.0
H40 H 0.42892 0.99611 0.1497 0.0
C41 C 0.39069 0.83121 0.14304 0.0
O42 O 0.37471 0.8071 0.12649 0.0
N43 N 0.40139 0.82541 0.0791 0.0
C44 C 0.39122 0.80665 0.05487 0.0
C45 C 0.3921 0.72994 0.05155 0.0
C46 C 0.40935 0.75961 0.08927 0.0
N47 N 0.40333 0.70015 0.07336 0.0
C48 C 0.36357 0.95799 0.07052 0.0
C49 C 0.34128 0.9844 0.12009 0.0
C50 C 0.32933 0.98682 0.09488 0.0
C51 C 0.34089 0.97508 0.06981 0.0
C52 C 0.36395 0.96696 0.11979 0.0
N53 N 0.37451 0.94881 0.09535 0.0
H54 H 0.37241 0.95466 0.05099 0.0
H55 H 0.373 0.96867 0.13932 0.0
H56 H 0.38405 0.845 0.03996 0.0
H57 H 0.41938 0.75541 0.10805 0.0
O58 O 0.41378 0.96314 0.05877 0.0
O59 O 0.43778 0.91285 0.08882 0.0
O60 O 0.40463 0.8802 0.13427 0.0
C61 C 0.43419 0.94416 0.06455 0.0
H62 H 0.4318 0.14366 0.1557 0.0
H63 H 0.38469 0.69865 0.03451 0.0
H64 H 0.33321 0.9952 0.13993 0.0
H65 H 0.33261 0.98067 0.04974 0.0
Co66 Co 0.08566 0.42455 0.39996 0.0
C67 C 0.08666 0.59162 0.39333 0.0
C68 C 0.06131 0.53936 0.36854 0.0
C69 C 0.05927 0.61597 0.36584 0.0
N70 N 0.07865 0.5239 0.38554 0.0
N71 N 0.07521 0.64903 0.38152 0.0
H72 H 0.10008 0.59921 0.40794 0.0
H73 H 0.05038 0.49761 0.35949 0.0
C74 C 0.09156 0.41322 0.33795 0.0
O75 O 0.10094 0.47988 0.3384 0.0
N76 N 0.09191 0.32573 0.41441 0.0
C77 C 0.10312 0.3089 0.43805 0.0
C78 C 0.10385 0.23191 0.44088 0.0
C79 C 0.08599 0.25931 0.40314 0.0
N80 N 0.09314 0.20099 0.41886 0.0
C81 C 0.12708 0.4875 0.41874 0.0
C82 C 0.15416 0.4147 0.38074 0.0
C83 C 0.16374 0.46395 0.40008 0.0
C84 C 0.15004 0.49942 0.41964 0.0
C85 C 0.13118 0.40306 0.381 0.0
N86 N 0.1177 0.44287 0.39867 0.0
H87 H 0.11692 0.51348 0.43461 0.0
H88 H 0.12453 0.36009 0.36752 0.0
H89 H 0.11032 0.34973 0.45216 0.0
H90 H 0.07638 0.25374 0.38408 0.0
O91 O 0.07961 0.46013 0.43736 0.0
O92 O 0.05451 0.41106 0.40862 0.0
O93 O 0.08505 0.38259 0.36073 0.0
C94 C 0.05902 0.44136 0.43277 0.0
H95 H 0.04636 0.6447 0.35419 0.0
H96 H 0.11196 0.20107 0.45757 0.0
H97 H 0.16444 0.38369 0.36614 0.0
H98 H 0.157 0.53622 0.43545 0.0
Co99 Co 0.40748 0.5964 0.39724 0.0
C100 C 0.40737 0.42852 0.39252 0.0
C101 C 0.4295 0.48159 0.36348 0.0
C102 C 0.43152 0.40509 0.36051 0.0
N103 N 0.41404 0.49648 0.38317 0.0
N104 N 0.41762 0.37183 0.37884 0.0
H105 H 0.39576 0.41986 0.4093 0.0
H106 H 0.43908 0.52372 0.35249 0.0
C107 C 0.39725 0.60291 0.33648 0.0
O108 O 0.38657 0.53918 0.34002 0.0
N109 N 0.40174 0.6958 0.41127 0.0
C110 C 0.39055 0.71284 0.43482 0.0
C111 C 0.38936 0.78971 0.43714 0.0
C112 C 0.40735 0.76205 0.39961 0.0
N113 N 0.39988 0.82059 0.41497 0.0
C114 C 0.36663 0.53124 0.41736 0.0
C115 C 0.33843 0.60962 0.38209 0.0
C116 C 0.32947 0.55648 0.40043 0.0
C117 C 0.34371 0.51853 0.41881 0.0
C118 C 0.36136 0.62183 0.38184 0.0
N119 N 0.37539 0.57869 0.39777 0.0
H120 H 0.37723 0.50415 0.43255 0.0
H121 H 0.36771 0.66693 0.36905 0.0
H122 H 0.3836 0.67214 0.44917 0.0
H123 H 0.41629 0.76718 0.38006 0.0
O124 O 0.41458 0.56352 0.4347 0.0
O125 O 0.43897 0.60922 0.40431 0.0
O126 O 0.40654 0.63524 0.35737 0.0
C127 C 0.43507 0.58126 0.42903 0.0
H128 H 0.44294 0.37629 0.34669 0.0
H129 H 0.38151 0.82038 0.454 0.0
H130 H 0.32773 0.64268 0.36856 0.0
H131 H 0.3372 0.47919 0.43406 0.0
Co132 Co 0.90798 0.92449 0.89658 0.0
C133 C 0.90773 0.09247 0.89165 0.0
C134 C 0.92946 0.0394 0.86219 0.0
C135 C 0.93154 0.11591 0.85926 0.0
N136 N 0.91415 0.02445 0.88208 0.0
N137 N 0.9179 0.14917 0.87787 0.0
H138 H 0.89647 0.10119 0.90879 0.0
H139 H 0.93897 0.9973 0.8511 0.0
C140 C 0.89792 0.91631 0.83585 0.0
O141 O 0.88735 0.98039 0.83906 0.0
N142 N 0.90272 0.82514 0.91108 0.0
C143 C 0.89175 0.80815 0.93481 0.0
C144 C 0.89073 0.73126 0.93731 0.0
C145 C 0.90836 0.75885 0.8995 0.0
N146 N 0.90112 0.70032 0.91508 0.0
C147 C 0.86663 0.98937 0.91559 0.0
C148 C 0.83914 0.90336 0.8821 0.0
C149 C 0.82956 0.95822 0.89929 0.0
C150 C 0.84361 1.00051 0.91666 0.0
C151 C 0.86219 0.89425 0.88171 0.0
N152 N 0.87581 0.94041 0.89691 0.0
H153 H 0.87695 0.01861 0.93048 0.0
H154 H 0.86897 0.8486 0.86956 0.0
H155 H 0.88478 0.84889 0.94911 0.0
H156 H 0.91711 0.75365 0.87982 0.0
O157 O 0.91501 0.95879 0.93386 0.0
O158 O 0.93949 0.91324 0.90352 0.0
O159 O 0.90705 0.8844 0.85697 0.0
C160 C 0.93558 0.94187 0.92811 0.0
H161 H 0.9429 0.14469 0.84533 0.0
H162 H 0.88302 0.70064 0.95431 0.0
H163 H 0.82888 0.86642 0.86951 0.0
H164 H 0.83694 0.04186 0.93099 0.0
Co165 Co 0.58555 0.09337 0.89892 0.0
C166 C 0.58554 0.92828 0.89422 0.0
C167 C 0.56911 0.97963 0.85912 0.0
C168 C 0.56776 0.90266 0.85634 0.0
N169 N 0.58032 0.99539 0.88281 0.0
N170 N 0.57802 0.8704 0.8785 0.0
H171 H 0.5945 0.92222 0.91377 0.0
H172 H 0.56189 0.02106 0.84522 0.0
C173 C 0.60159 0.1848 0.85075 0.0
O174 O 0.61777 0.20809 0.86717 0.0
N175 N 0.58993 0.19288 0.91552 0.0
C176 C 0.59701 0.20967 0.94163 0.0
C177 C 0.59648 0.28628 0.94527 0.0
C178 C 0.58377 0.25994 0.90449 0.0
N179 N 0.58837 0.31812 0.92176 0.0
C180 C 0.62882 0.06862 0.92354 0.0
C181 C 0.65051 0.03446 0.8742 0.0
C182 C 0.66286 0.03773 0.8991 0.0
C183 C 0.65162 0.05342 0.9241 0.0
C184 C 0.62771 0.04975 0.87466 0.0
N185 N 0.61738 0.07132 0.89886 0.0
H186 H 0.62036 0.07615 0.94312 0.0
H187 H 0.61835 0.04419 0.85543 0.0
H188 H 0.60122 0.16969 0.95774 0.0
H189 H 0.57607 0.26618 0.88417 0.0
O190 O 0.57822 0.0532 0.93518 0.0
O191 O 0.55396 0.10412 0.90558 0.0
O192 O 0.5871 0.13828 0.85995 0.0
C193 C 0.55772 0.07145 0.92957 0.0
H194 H 0.55919 0.87292 0.83977 0.0
H195 H 0.60113 0.31594 0.96416 0.0
H196 H 0.65832 0.0192 0.85459 0.0
H197 H 0.66035 0.05448 0.94396 0.0
Co198 Co 0.90663 0.59121 0.59613 0.0
C199 C 0.90703 0.42614 0.60112 0.0
C200 C 0.92514 0.47839 0.63468 0.0
C201 C 0.92692 0.40154 0.63746 0.0
N202 N 0.91265 0.49347 0.61193 0.0
N203 N 0.91554 0.3688 0.61633 0.0
H204 H 0.89753 0.41951 0.582 0.0
H205 H 0.93281 0.52028 0.64793 0.0
C206 C 0.88904 0.67731 0.64475 0.0
O207 O 0.87241 0.69779 0.62849 0.0
N208 N 0.9015 0.69077 0.57995 0.0
C209 C 0.89549 0.70793 0.55347 0.0
C210 C 0.89592 0.7846 0.55007 0.0
C211 C 0.90682 0.75773 0.59159 0.0
N212 N 0.90287 0.81644 0.57419 0.0
C213 C 0.8636 0.5654 0.57088 0.0
C214 C 0.84226 0.52305 0.61962 0.0
C215 C 0.8299 0.52815 0.5948 0.0
C216 C 0.84095 0.54786 0.57006 0.0
C217 C 0.8649 0.54052 0.61942 0.0
N218 N 0.87502 0.56602 0.59559 0.0
H219 H 0.87195 0.57665 0.55147 0.0
H220 H 0.8743 0.53397 0.63858 0.0
H221 H 0.8923 0.66813 0.53695 0.0
H222 H 0.91405 0.76297 0.61217 0.0
O223 O 0.91471 0.55353 0.55977 0.0
O224 O 0.93816 0.60497 0.59025 0.0
O225 O 0.90436 0.63448 0.63519 0.0
C226 C 0.93497 0.57334 0.56597 0.0
H227 H 0.93599 0.37215 0.65373 0.0
H228 H 0.89208 0.8138 0.53081 0.0
H229 H 0.83456 0.50499 0.63899 0.0
H230 H 0.83216 0.55051 0.55026 0.0
Co231 Co 0.58491 0.42505 0.59672 0.0
C232 C 0.58364 0.59278 0.60046 0.0
C233 C 0.56914 0.54018 0.6363 0.0
C234 C 0.56677 0.61665 0.63901 0.0
N235 N 0.58048 0.52493 0.61259 0.0
N236 N 0.57594 0.64978 0.61642 0.0
H237 H 0.58973 0.60061 0.57946 0.0
H238 H 0.56224 0.49855 0.6503 0.0
C239 C 0.5983 0.4054 0.65606 0.0
O240 O 0.61091 0.46496 0.65244 0.0
N241 N 0.58834 0.3261 0.58092 0.0
C242 C 0.59881 0.30878 0.55689 0.0
C243 C 0.59854 0.23199 0.55366 0.0
C244 C 0.5817 0.26011 0.59193 0.0
N245 N 0.5878 0.20133 0.57573 0.0
C246 C 0.62662 0.49235 0.58005 0.0
C247 C 0.65378 0.3886 0.60638 0.0
C248 C 0.66355 0.44982 0.59268 0.0
C249 C 0.64968 0.50132 0.57894 0.0
C250 C 0.63063 0.38214 0.60711 0.0
N251 N 0.61725 0.43611 0.59546 0.0
H252 H 0.61646 0.52925 0.56768 0.0
H253 H 0.62344 0.33357 0.61721 0.0
H254 H 0.60657 0.34913 0.54305 0.0
H255 H 0.57266 0.25544 0.61143 0.0
O256 O 0.57788 0.464 0.56016 0.0
O257 O 0.55314 0.41941 0.5904 0.0
O258 O 0.58631 0.38088 0.63584 0.0
C259 C 0.55719 0.44968 0.56606 0.0
H260 H 0.55856 0.64524 0.6561 0.0
H261 H 0.60628 0.20119 0.53676 0.0
H262 H 0.66388 0.34653 0.61676 0.0
H263 H 0.65661 0.54729 0.56691 0.0
H264 H 0.19 0.05297 0.05026 0.0
H265 H 0.19145 0.06985 0.14048 0.0
H266 H 0.23024 0.0352 0.04977 0.0
H267 H 0.23171 0.05174 0.14002 0.0
H268 H 0.30624 0.08985 0.12609 0.0
H269 H 0.26618 0.11296 0.12605 0.0
H270 H 0.25747 0.94107 0.06317 0.0
H271 H 0.29747 0.91825 0.06314 0.0
C272 C 0.19889 0.05227 0.07001 0.0
C273 C 0.18752 0.06243 0.09542 0.0
C274 C 0.22195 0.04213 0.06973 0.0
C275 C 0.23418 0.04181 0.09486 0.0
C276 C 0.22283 0.05273 0.12026 0.0
C277 C 0.19976 0.06299 0.12053 0.0
C278 C 0.29574 0.05673 0.11239 0.0
C279 C 0.30503 1.00218 0.09462 0.0
C280 C 0.27279 0.06995 0.11237 0.0
C281 C 0.25863 0.02886 0.09461 0.0
C282 C 0.26795 0.97457 0.07677 0.0
C283 C 0.29087 0.96145 0.07676 0.0
H284 H 0.30386 0.5097 0.35707 0.0
H285 H 0.30094 0.57084 0.4443 0.0
H286 H 0.264 0.48406 0.35716 0.0
H287 H 0.26077 0.55029 0.44428 0.0
H288 H 0.19254 0.4421 0.44334 0.0
H289 H 0.23275 0.46141 0.44351 0.0
H290 H 0.22924 0.53882 0.35762 0.0
H291 H 0.18931 0.51449 0.35727 0.0
C292 C 0.2945 0.51838 0.37618 0.0
C293 C 0.3053 0.54199 0.40068 0.0
C294 C 0.27163 0.50435 0.37626 0.0
C295 C 0.25895 0.51536 0.4007 0.0
C296 C 0.26992 0.53963 0.42519 0.0
C297 C 0.2929 0.55199 0.42523 0.0
C298 C 0.20052 0.46304 0.42457 0.0
C299 C 0.18801 0.47673 0.40028 0.0
C300 C 0.22353 0.47471 0.42465 0.0
C301 C 0.23443 0.50193 0.40058 0.0
C302 C 0.22166 0.51627 0.37638 0.0
C303 C 0.19874 0.50296 0.37615 0.0
H304 H 0.80239 0.98429 0.94441 0.0
H305 H 0.80124 0.95789 0.85447 0.0
H306 H 0.76221 1.00411 0.94427 0.0
H307 H 0.761 0.97434 0.85449 0.0
H308 H 0.69334 0.09042 0.8616 0.0
H309 H 0.73352 0.0714 0.86183 0.0
H310 H 0.72775 0.9359 0.93659 0.0
H311 H 0.68754 0.95543 0.93644 0.0
C312 C 0.79358 0.98287 0.92461 0.0
C313 C 0.80505 0.96969 0.89944 0.0
C314 C 0.77051 0.99327 0.92457 0.0
C315 C 0.75838 0.99073 0.89937 0.0
C316 C 0.76985 0.97748 0.87423 0.0
C317 C 0.7929 0.96717 0.87426 0.0
C318 C 0.70063 0.05599 0.87793 0.0
C319 C 0.68726 0.02446 0.899 0.0
C320 C 0.72366 0.04507 0.87807 0.0
C321 C 0.73386 1.00215 0.89924 0.0
C322 C 0.72047 0.97028 0.92024 0.0
C323 C 0.69743 0.98137 0.92014 0.0
H324 H 0.69563 0.34321 0.58371 0.0
H325 H 0.68673 0.57915 0.60151 0.0
H326 H 0.73604 0.36015 0.58457 0.0
H327 H 0.72705 0.59627 0.60189 0.0
H328 H 0.7992 0.57793 0.63241 0.0
H329 H 0.75904 0.55696 0.63195 0.0
H330 H 0.76548 0.42574 0.55637 0.0
H331 H 0.80577 0.44561 0.55711 0.0
C332 C 0.70232 0.3986 0.58785 0.0
C333 C 0.68805 0.45987 0.59258 0.0
C334 C 0.72542 0.40839 0.5881 0.0
C335 C 0.73467 0.47948 0.59336 0.0
C336 C 0.72039 0.54069 0.59806 0.0
C337 C 0.69732 0.53104 0.59757 0.0
C338 C 0.79206 0.54398 0.61587 0.0
C339 C 0.80561 0.51344 0.59479 0.0
C340 C 0.76907 0.5326 0.61545 0.0
C341 C 0.75914 0.48999 0.59406 0.0
C342 C 0.77271 0.45846 0.5732 0.0
C343 C 0.79571 0.47036 0.57349 0.0
H344 H 0.06068 0.98496 0.01973 0.0
H345 H 0.01505 0.13383 0.06205 0.0
H346 H 0.03129 0.9481 0.98744 0.0
H347 H 0.98583 0.10003 0.02892 0.0
H348 H 0.93192 0.97008 0.98393 0.0
H349 H 0.96156 1.00234 0.01662 0.0
H350 H 0.0096 0.98782 0.94944 0.0
H351 H 0.98001 0.95188 0.91719 0.0
C352 C 0.04441 1.01062 0.02185 0.0
C353 C 0.04013 0.06223 0.04339 0.0
C354 C 0.02755 0.98976 0.00324 0.0
C355 C 0.00608 0.0209 0.00548 0.0
C356 C 0.00198 0.07361 0.02684 0.0
C357 C 0.01877 0.09357 0.04572 0.0
C358 C 0.94886 0.9733 0.97626 0.0
C359 C 0.95369 0.95831 0.94807 0.0
C360 C 0.96586 0.99249 0.99493 0.0
C361 C 0.98805 0.99834 0.98572 0.0
C362 C 0.99282 0.98277 0.95746 0.0
C363 C 0.97584 0.96243 0.93889 0.0
H364 H 0.4788 0.94855 0.07535 0.0
H365 H 0.43054 0.97594 0.00901 0.0
H366 H 0.50859 0.9815 0.04302 0.0
H367 H 0.4603 1.00518 0.97625 0.0
H368 H 0.51554 0.12908 0.93076 0.0
H369 H 0.48588 0.0987 0.96372 0.0
H370 H 0.52932 0.9389 0.00482 0.0
H371 H 0.55913 0.97224 0.97278 0.0
C372 C 0.47462 0.96061 0.05373 0.0
C373 C 0.45239 0.95983 0.04469 0.0
C374 C 0.4917 0.97919 0.03511 0.0
C375 C 0.48693 0.99623 0.00691 0.0
C376 C 0.46463 0.99405 -0.00212 0.0
C377 C 0.44755 0.97663 0.01661 0.0
C378 C 0.51869 0.0877 0.94693 0.0
C379 C 0.53963 0.05331 0.9493 0.0
C380 C 0.50166 0.06977 0.96573 0.0
C381 C 0.50511 0.01614 0.98703 0.0
C382 C 0.52611 0.9815 0.98913 0.0
C383 C 0.5432 1.00029 0.97063 0.0
H384 H 0.0613 0.53704 0.47708 0.0
H385 H 0.01696 0.38398 0.43454 0.0
H386 H 0.03154 0.57156 0.50911 0.0
H387 H 0.98742 0.41538 0.4674 0.0
H388 H 0.93232 0.54333 0.5103 0.0
H389 H 0.96256 0.51205 0.47855 0.0
H390 H 0.0096 0.53179 0.54687 0.0
H391 H 0.97932 0.56684 0.57822 0.0
C392 C 0.04525 0.50988 0.47488 0.0
C393 C 0.0414 0.45796 0.45331 0.0
C394 C 0.02818 0.5294 0.49334 0.0
C395 C 0.00696 0.49658 0.49087 0.0
C396 C 0.00336 0.44317 0.46961 0.0
C397 C 0.02034 0.42457 0.45089 0.0
C398 C 0.94916 0.54139 0.51844 0.0
C399 C 0.95351 0.55753 0.54668 0.0
C400 C 0.96651 0.52276 0.50031 0.0
C401 C 0.98859 0.51856 0.51012 0.0
C402 C 0.99289 0.53542 0.53842 0.0
C403 C 0.97554 0.55527 0.55646 0.0
H404 H 0.43102 0.55668 0.48503 0.0
H405 H 0.47965 0.57179 0.41882 0.0
H406 H 0.46042 0.52738 0.51847 0.0
H407 H 0.50903 0.53872 0.45185 0.0
H408 H 0.5597 0.54576 0.52198 0.0
H409 H 0.53025 0.58141 0.48962 0.0
H410 H 0.48487 0.43164 0.53234 0.0
H411 H 0.51422 0.39907 0.5656 0.0
C412 C 0.44803 0.55343 0.47763 0.0
C413 C 0.45308 0.5667 0.44937 0.0
C414 C 0.4649 0.53593 0.49675 0.0
C415 C 0.48718 0.5301 0.48795 0.0
C416 C 0.49217 0.5439 0.45958 0.0
C417 C 0.47532 0.56258 0.44056 0.0
C418 C 0.54342 0.52045 0.52443 0.0
C419 C 0.53924 0.46954 0.54627 0.0
C420 C 0.52653 0.54056 0.50575 0.0
C421 C 0.5051 0.50934 0.50818 0.0
C422 C 0.50101 0.45796 0.53005 0.0
C423 C 0.51786 0.43876 0.54902 0.0
H424 H 0.10199 0.46236 0.28533 0.0
H425 H 0.07846 0.26741 0.33048 0.0
H426 H 0.10125 0.39072 0.24185 0.0
H427 H 0.0775 0.19625 0.28693 0.0
H428 H 0.1055 0.07294 0.20973 0.0
H429 H 0.10449 0.14464 0.25316 0.0
H430 H 0.07461 0.33148 0.20921 0.0
H431 H 0.07582 0.26023 0.16566 0.0
C432 C 0.09655 0.40439 0.28598 0.0
C433 C 0.09034 0.37061 0.3114 0.0
C434 C 0.09601 0.36349 0.26103 0.0
C435 C 0.08935 0.28782 0.26097 0.0
C436 C 0.08295 0.25422 0.28635 0.0
C437 C 0.08338 0.2952 0.31128 0.0
C438 C 0.09866 0.12923 0.20931 0.0
C439 C 0.09079 0.16088 0.1842 0.0
C440 C 0.09796 0.17014 0.23424 0.0
C441 C 0.08948 0.24372 0.2346 0.0
C442 C 0.08146 0.2752 0.20953 0.0
C443 C 0.08205 0.23416 0.18462 0.0
H444 H 0.36616 0.58495 0.29584 0.0
H445 H 0.42689 0.70428 0.31476 0.0
H446 H 0.36485 0.64317 0.24998 0.0
H447 H 0.42646 0.75974 0.26789 0.0
H448 H 0.40802 0.89782 0.18988 0.0
H449 H 0.4097 0.84563 0.23721 0.0
H450 H 0.38122 0.63815 0.2065 0.0
H451 H 0.37835 0.69223 0.15998 0.0
C452 C 0.37943 0.62305 0.28998 0.0
C453 C 0.39672 0.63964 0.30876 0.0
C454 C 0.3788 0.65616 0.26353 0.0
C455 C 0.39575 0.70549 0.25482 0.0
C456 C 0.41298 0.72272 0.27384 0.0
C457 C 0.41334 0.69063 0.30065 0.0
C458 C 0.40212 0.84112 0.19344 0.0
C459 C 0.3928 0.79934 0.17143 0.0
C460 C 0.40319 0.81091 0.22051 0.0
C461 C 0.39536 0.73772 0.22595 0.0
C462 C 0.38676 0.69544 0.2035 0.0
C463 C 0.38524 0.7262 0.1767 0.0
H464 H 0.88328 0.975 0.78654 0.0
H465 H 0.91241 0.77458 0.82233 0.0
H466 H 0.88176 0.91456 0.74104 0.0
H467 H 0.91042 0.71317 0.77659 0.0
H468 H 0.85815 0.76163 0.67214 0.0
H469 H 0.86084 0.81592 0.71866 0.0
H470 H 0.92604 0.71691 0.72914 0.0
H471 H 0.92313 0.66079 0.68259 0.0
C472 C 0.88931 0.91786 0.78473 0.0
C473 C 0.89786 0.87949 0.80811 0.0
C474 C 0.88831 0.88302 0.75863 0.0
C475 C 0.89573 0.80873 0.75523 0.0
C476 C 0.90469 0.77063 0.77849 0.0
C477 C 0.90576 0.8057 0.80469 0.0
C478 C 0.87305 0.75111 0.68434 0.0
C479 C 0.89049 0.70728 0.67356 0.0
C480 C 0.87464 0.78264 0.71099 0.0
C481 C 0.89376 0.77148 0.7275 0.0
C482 C 0.91103 0.72619 0.71701 0.0
C483 C 0.9094 0.69435 0.6903 0.0
H484 H 0.61768 0.31756 0.83181 0.0
H485 H 0.58151 0.12078 0.80506 0.0
H486 H 0.61584 0.36814 0.78469 0.0
H487 H 0.5806 0.16957 0.75715 0.0
H488 H 0.56601 0.3156 0.67909 0.0
H489 H 0.56579 0.26093 0.72614 0.0
H490 H 0.63165 0.3511 0.74088 0.0
H491 H 0.63123 0.40841 0.69482 0.0
C492 C 0.60954 0.28469 0.81569 0.0
C493 C 0.59991 0.215 0.82203 0.0
C494 C 0.60859 0.31344 0.78855 0.0
C495 C 0.5984 0.27252 0.76682 0.0
C496 C 0.58843 0.20303 0.77331 0.0
C497 C 0.58904 0.17482 0.80071 0.0
C498 C 0.58039 0.32341 0.69249 0.0
C499 C 0.59849 0.36709 0.68349 0.0
C500 C 0.58035 0.29183 0.7194 0.0
C501 C 0.59856 0.30243 0.73762 0.0
C502 C 0.617 0.34364 0.72793 0.0
C503 C 0.61685 0.37615 0.70137 0.0
H504 H 0.11177 0.80546 0.09935 0.0
H505 H 0.04278 0.77116 0.12106 0.0
H506 H 0.11584 0.67146 0.09022 0.0
H507 H 0.04664 0.63744 0.11148 0.0
H508 H 0.06659 0.392 0.11825 0.0
H509 H 0.06326 0.52453 0.12851 0.0
H510 H 0.10512 0.57673 0.0577 0.0
H511 H 0.10944 0.44436 0.04805 0.0
C512 C 0.09743 0.76932 0.10195 0.0
C513 C 0.07697 0.79898 0.11094 0.0
C514 C 0.09972 0.69247 0.09666 0.0
C515 C 0.08156 0.64338 0.10004 0.0
C516 C 0.0611 0.67319 0.1091 0.0
C517 C 0.05886 0.74997 0.11457 0.0
C518 C 0.0753 0.43101 0.10485 0.0
C519 C 0.08837 0.40586 0.08222 0.0
C520 C 0.07316 0.50767 0.11066 0.0
C521 C 0.0839 0.56163 0.09396 0.0
C522 C 0.09686 0.53685 0.0713 0.0
C523 C 0.09912 0.46025 0.06557 0.0
H524 H 0.38603 0.21869 0.0801 0.0
H525 H 0.44037 0.25927 0.13759 0.0
H526 H 0.38426 0.35249 0.0697 0.0
H527 H 0.43834 0.39295 0.1274 0.0
H528 H 0.41041 0.63524 0.12421 0.0
H529 H 0.41354 0.50152 0.13449 0.0
H530 H 0.4063 0.45109 0.04653 0.0
H531 H 0.4034 0.58467 0.03617 0.0
C532 C 0.39771 0.25573 0.09041 0.0
C533 C 0.41335 0.22748 0.10973 0.0
C534 C 0.39668 0.33267 0.08443 0.0
C535 C 0.41117 0.38354 0.09769 0.0
C536 C 0.42673 0.3555 0.11708 0.0
C537 C 0.42785 0.27856 0.12296 0.0
C538 C 0.40984 0.5959 0.10698 0.0
C539 C 0.40659 0.62119 0.07933 0.0
C540 C 0.41157 0.51905 0.1129 0.0
C541 C 0.41003 0.46547 0.09135 0.0
C542 C 0.40715 0.49074 0.06368 0.0
C543 C 0.40551 0.56751 0.05775 0.0
H544 H 0.09139 0.13407 0.36805 0.0
H545 H 0.08843 0.08944 0.45678 0.0
H546 H 0.08759 1.00018 0.35844 0.0
H547 H 0.08393 0.95589 0.44737 0.0
H548 H 0.09866 0.71629 0.42368 0.0
H549 H 0.10349 0.84932 0.43167 0.0
H550 H 0.06243 0.89811 0.35952 0.0
H551 H 0.05878 0.76475 0.35031 0.0
C552 C 0.08965 0.09561 0.38548 0.0
C553 C 0.09027 0.12215 0.41317 0.0
C554 C 0.08741 0.01882 0.38001 0.0
C555 C 0.0855 0.96684 0.40211 0.0
C556 C 0.08584 0.99383 0.4298 0.0
C557 C 0.08834 0.07046 0.43525 0.0
C558 C 0.09088 0.75481 0.40916 0.0
C559 C 0.07826 0.72869 0.38627 0.0
C560 C 0.09341 0.83169 0.41404 0.0
C561 C 0.08322 0.88487 0.3964 0.0
C562 C 0.07073 0.85899 0.37343 0.0
C563 C 0.06838 0.78205 0.36836 0.0
H564 H 0.37248 0.93308 0.43135 0.0
H565 H 0.43256 0.88756 0.38473 0.0
H566 H 0.37677 0.06664 0.42213 0.0
H567 H 0.43686 0.02155 0.37547 0.0
H568 H 0.42394 0.25955 0.34145 0.0
H569 H 0.41959 0.12509 0.3496 0.0
H570 H 0.40124 0.16944 0.43544 0.0
H571 H 0.4056 0.30352 0.42731 0.0
C572 C 0.38672 0.95157 0.41933 0.0
C573 C 0.40225 0.89954 0.40893 0.0
C574 C 0.38917 0.02821 0.41403 0.0
C575 C 0.40722 0.05479 0.39819 0.0
C576 C 0.42263 1.00278 0.38748 0.0
C577 C 0.42016 0.92598 0.39278 0.0
C578 C 0.41914 0.24054 0.36211 0.0
C579 C 0.41504 0.29239 0.38368 0.0
C580 C 0.41666 0.16349 0.36678 0.0
C581 C 0.41001 0.13657 0.39315 0.0
C582 C 0.40599 0.18841 0.41474 0.0
C583 C 0.40847 0.26537 0.41007 0.0
H584 H 0.93343 0.63339 0.88419 0.0
H585 H 0.874 0.58768 0.9321 0.0
H586 H 0.93759 0.49948 0.87475 0.0
H587 H 0.87814 0.45422 0.92269 0.0
H588 H 0.90668 0.21683 0.92674 0.0
H589 H 0.90265 0.35082 0.93524 0.0
H590 H 0.91996 0.39651 0.84913 0.0
H591 H 0.92399 0.26211 0.84061 0.0
C592 C 0.92115 0.59496 0.89251 0.0
C593 C 0.90346 0.62136 0.90905 0.0
C594 C 0.92353 0.51819 0.88709 0.0
C595 C 0.90826 0.46613 0.89808 0.0
C596 C 0.89044 0.49265 0.91436 0.0
C597 C 0.88808 0.56927 0.91977 0.0
C598 C 0.9094 0.25524 0.90952 0.0
C599 C 0.91557 0.2286 0.88294 0.0
C600 C 0.90711 0.33217 0.91441 0.0
C601 C 0.91092 0.38437 0.89284 0.0
C602 C 0.91719 0.35783 0.86629 0.0
C603 C 0.91949 0.28081 0.8614 0.0
H604 H 0.57717 0.75461 0.84156 0.0
H605 H 0.58202 0.80537 0.92976 0.0
H606 H 0.57914 0.62079 0.85214 0.0
H607 H 0.58393 0.67175 0.94036 0.0
H608 H 0.6112 0.4323 0.9461 0.0
H609 H 0.60851 0.56549 0.93561 0.0
H610 H 0.55814 0.5192 0.87333 0.0
H611 H 0.56083 0.38546 0.88382 0.0
C612 C 0.57849 0.73732 0.86322 0.0
C613 C 0.57949 0.79106 0.88477 0.0
C614 C 0.57958 0.66045 0.86931 0.0
C615 C 0.58169 0.63525 0.89712 0.0
C616 C 0.58267 0.68902 0.91866 0.0
C617 C 0.58161 0.76585 0.91257 0.0
C618 C 0.59931 0.45028 0.93043 0.0
C619 C 0.58617 0.3976 0.91594 0.0
C620 C 0.59779 0.52697 0.92438 0.0
C621 C 0.58309 0.55336 0.90364 0.0
C622 C 0.56988 0.50085 0.88916 0.0
C623 C 0.5714 0.42398 0.89522 0.0
H624 H 0.89113 0.93492 0.54069 0.0
H625 H 0.9199 0.88209 0.62158 0.0
H626 H 0.89461 0.06731 0.55084 0.0
H627 H 0.92251 0.01475 0.6319 0.0
H628 H 0.94528 0.25981 0.62969 0.0
H629 H 0.94253 0.12622 0.61938 0.0
H630 H 0.8788 0.16366 0.57956 0.0
H631 H 0.88176 0.29754 0.58961 0.0
C632 C 0.89824 0.95066 0.56062 0.0
C633 C 0.90531 0.89605 0.58012 0.0
C634 C 0.9 0.02733 0.56656 0.0
C635 C 0.90877 0.05205 0.59224 0.0
C636 C 0.91591 0.99792 0.61174 0.0
C637 C 0.91424 0.92116 0.60579 0.0
C638 C 0.93059 0.23948 0.61896 0.0
C639 C 0.91374 0.28948 0.61049 0.0
C640 C 0.929 0.16274 0.61305 0.0
C641 C 0.91044 0.13388 0.59862 0.0
C642 C 0.89352 0.18394 0.59027 0.0
C643 C 0.89518 0.26077 0.59607 0.0
H644 H 0.6046 0.72074 0.58136 0.0
H645 H 0.54924 0.76009 0.63721 0.0
H646 H 0.60637 0.85452 0.57115 0.0
H647 H 0.55131 0.89408 0.62725 0.0
H648 H 0.58081 0.13484 0.6263 0.0
H649 H 0.577 1.00103 0.63579 0.0
H650 H 0.58421 0.9536 0.54763 0.0
H651 H 0.5877 0.08732 0.538 0.0
C652 C 0.59264 0.75758 0.59126 0.0
C653 C 0.57674 0.72914 0.6101 0.0
C654 C 0.5937 0.83442 0.58542 0.0
C655 C 0.57897 0.88489 0.59839 0.0
C656 C 0.56307 0.8567 0.61719 0.0
C657 C 0.56192 0.77975 0.62293 0.0
C658 C 0.58127 0.09621 0.60885 0.0
C659 C 0.58467 0.12227 0.58135 0.0
C660 C 0.57912 0.01936 0.61433 0.0
C661 C 0.58041 0.96671 0.59248 0.0
C662 C 0.5835 0.99269 0.56498 0.0
C663 C 0.58554 0.06947 0.55947 0.0
loop_
_geom_bond_atom_site_label_1
_geom_bond_atom_site_label_2
_geom_bond_distance
_geom_bond_site_symmetry_2
_ccdc_geom_bond_type
Co0 N4 2.148 1_545 S
Co0 N10 2.128 . S
Co0 N20 2.194 . S
Co0 O25 2.351 . S
Co0 O26 2.155 . S
Co0 O27 2.096 . S
C1 N4 1.301 . S
C1 N5 1.328 . S
C1 H6 0.930 . S
C2 C3 1.333 . S
C2 N4 1.317 . S
C2 H7 0.930 . S
C3 C2 1.333 . S
C3 N5 1.350 . S
C3 H29 0.931 . S
N4 Co0 2.148 1_565 S
N4 C1 1.301 . S
N4 C2 1.317 . S
N5 C1 1.328 . S
N5 C3 1.350 . S
H6 C1 0.930 . S
H7 C2 0.930 . S
C8 O9 1.224 . S
C8 O27 1.247 . S
O9 C8 1.224 . S
N10 Co0 2.128 . S
N10 C11 1.355 . S
N10 C13 1.311 . S
C11 N10 1.355 . S
C11 C12 1.363 . S
C11 H23 0.929 . S
C12 C11 1.363 . S
C12 N14 1.375 . S
C12 H30 0.931 . S
C13 N10 1.311 . S
C13 N14 1.347 . S
C13 H24 0.929 . S
N14 C12 1.375 . S
N14 C13 1.347 . S
C15 C18 1.365 . S
C15 N20 1.328 . S
C15 H21 0.929 . S
C16 C17 1.362 . S
C16 C19 1.378 . S
C16 H31 0.929 . S
C17 C16 1.362 . S
C17 C18 1.366 . S
C18 C15 1.365 . S
C18 C17 1.366 . S
C18 H32 0.930 . S
C19 C16 1.378 . S
C19 N20 1.315 . S
C19 H22 0.930 . S
N20 Co0 2.194 . S
N20 C15 1.328 . S
N20 C19 1.315 . S
H21 C15 0.929 . S
H22 C19 0.930 . S
H23 C11 0.929 . S
H24 C13 0.929 . S
O25 Co0 2.351 . S
O25 C28 1.244 . S
O26 Co0 2.155 . S
O26 C28 1.240 . S
O27 Co0 2.096 . S
O27 C8 1.247 . S
C28 O25 1.244 . S
C28 O26 1.240 . S
H29 C3 0.931 . S
H30 C12 0.931 . S
H31 C16 0.929 . S
H32 C18 0.930 . S
Co33 N37 2.148 1_565 S
Co33 N43 2.128 . S
Co33 N53 2.194 . S
Co33 O58 2.351 . S
Co33 O59 2.155 . S
Co33 O60 2.096 . S
C34 N37 1.301 . S
C34 N38 1.328 . S
C34 H39 0.930 . S
C35 C36 1.333 . S
C35 N37 1.317 . S
C35 H40 0.930 . S
C36 C35 1.333 . S
C36 N38 1.350 . S
C36 H62 0.931 . S
N37 Co33 2.148 1_545 S
N37 C34 1.301 . S
N37 C35 1.317 . S
N38 C34 1.328 . S
N38 C36 1.350 . S
H39 C34 0.930 . S
H40 C35 0.930 . S
C41 O42 1.224 . S
C41 O60 1.247 . S
O42 C41 1.224 . S
N43 Co33 2.128 . S
N43 C44 1.355 . S
N43 C46 1.311 . S
C44 N43 1.355 . S
C44 C45 1.363 . S
C44 H56 0.929 . S
C45 C44 1.363 . S
C45 N47 1.375 . S
C45 H63 0.931 . S
C46 N43 1.311 . S
C46 N47 1.347 . S
C46 H57 0.929 . S
N47 C45 1.375 . S
N47 C46 1.347 . S
C48 C51 1.365 . S
C48 N53 1.328 . S
C48 H54 0.929 . S
C49 C50 1.362 . S
C49 C52 1.378 . S
C49 H64 0.929 . S
C50 C49 1.362 . S
C50 C51 1.366 . S
C51 C48 1.365 . S
C51 C50 1.366 . S
C51 H65 0.930 . S
C52 C49 1.378 . S
C52 N53 1.315 . S
C52 H55 0.930 . S
N53 Co33 2.194 . S
N53 C48 1.328 . S
N53 C52 1.315 . S
H54 C48 0.929 . S
H55 C52 0.930 . S
H56 C44 0.929 . S
H57 C46 0.929 . S
O58 Co33 2.351 . S
O58 C61 1.244 . S
O59 Co33 2.155 . S
O59 C61 1.240 . S
O60 Co33 2.096 . S
O60 C41 1.247 . S
C61 O58 1.244 . S
C61 O59 1.240 . S
H62 C36 0.931 . S
H63 C45 0.931 . S
H64 C49 0.929 . S
H65 C51 0.930 . S
Co66 N70 2.148 . S
Co66 N76 2.128 . S
Co66 N86 2.194 . S
Co66 O91 2.351 . S
Co66 O92 2.155 . S
Co66 O93 2.096 . S
C67 N70 1.301 . S
C67 N71 1.328 . S
C67 H72 0.930 . S
C68 C69 1.333 . S
C68 N70 1.317 . S
C68 H73 0.930 . S
C69 C68 1.333 . S
C69 N71 1.350 . S
C69 H95 0.931 . S
N70 Co66 2.148 . S
N70 C67 1.301 . S
N70 C68 1.317 . S
N71 C67 1.328 . S
N71 C69 1.350 . S
H72 C67 0.930 . S
H73 C68 0.930 . S
C74 O75 1.224 . S
C74 O93 1.247 . S
O75 C74 1.224 . S
N76 Co66 2.128 . S
N76 C77 1.355 . S
N76 C79 1.311 . S
C77 N76 1.355 . S
C77 C78 1.363 . S
C77 H89 0.929 . S
C78 C77 1.363 . S
C78 N80 1.375 . S
C78 H96 0.931 . S
C79 N76 1.311 . S
C79 N80 1.347 . S
C79 H90 0.929 . S
N80 C78 1.375 . S
N80 C79 1.347 . S
C81 C84 1.365 . S
C81 N86 1.328 . S
C81 H87 0.929 . S
C82 C83 1.362 . S
C82 C85 1.378 . S
C82 H97 0.929 . S
C83 C82 1.362 . S
C83 C84 1.366 . S
C84 C81 1.365 . S
C84 C83 1.366 . S
C84 H98 0.930 . S
C85 C82 1.378 . S
C85 N86 1.315 . S
C85 H88 0.930 . S
N86 Co66 2.194 . S
N86 C81 1.328 . S
N86 C85 1.315 . S
H87 C81 0.929 . S
H88 C85 0.930 . S
H89 C77 0.929 . S
H90 C79 0.929 . S
O91 Co66 2.351 . S
O91 C94 1.244 . S
O92 Co66 2.155 . S
O92 C94 1.240 . S
O93 Co66 2.096 . S
O93 C74 1.247 . S
C94 O91 1.244 . S
C94 O92 1.240 . S
H95 C69 0.931 . S
H96 C78 0.931 . S
H97 C82 0.929 . S
H98 C84 0.930 . S
Co99 N103 2.148 . S
Co99 N109 2.128 . S
Co99 N119 2.194 . S
Co99 O124 2.351 . S
Co99 O125 2.155 . S
Co99 O126 2.096 . S
C100 N103 1.301 . S
C100 N104 1.328 . S
C100 H105 0.930 . S
C101 C102 1.333 . S
C101 N103 1.317 . S
C101 H106 0.930 . S
C102 C101 1.333 . S
C102 N104 1.350 . S
C102 H128 0.931 . S
N103 Co99 2.148 . S
N103 C100 1.301 . S
N103 C101 1.317 . S
N104 C100 1.328 . S
N104 C102 1.350 . S
H105 C100 0.930 . S
H106 C101 0.930 . S
C107 O108 1.224 . S
C107 O126 1.247 . S
O108 C107 1.224 . S
N109 Co99 2.128 . S
N109 C110 1.355 . S
N109 C112 1.311 . S
C110 N109 1.355 . S
C110 C111 1.363 . S
C110 H122 0.929 . S
C111 C110 1.363 . S
C111 N113 1.375 . S
C111 H129 0.931 . S
C112 N109 1.311 . S
C112 N113 1.347 . S
C112 H123 0.929 . S
N113 C111 1.375 . S
N113 C112 1.347 . S
C114 C117 1.365 . S
C114 N119 1.328 . S
C114 H120 0.929 . S
C115 C116 1.362 . S
C115 C118 1.378 . S
C115 H130 0.929 . S
C116 C115 1.362 . S
C116 C117 1.366 . S
C117 C114 1.365 . S
C117 C116 1.366 . S
C117 H131 0.930 . S
C118 C115 1.378 . S
C118 N119 1.315 . S
C118 H121 0.930 . S
N119 Co99 2.194 . S
N119 C114 1.328 . S
N119 C118 1.315 . S
H120 C114 0.929 . S
H121 C118 0.930 . S
H122 C110 0.929 . S
H123 C112 0.929 . S
O124 Co99 2.351 . S
O124 C127 1.244 . S
O125 Co99 2.155 . S
O125 C127 1.240 . S
O126 Co99 2.096 . S
O126 C107 1.247 . S
C127 O124 1.244 . S
C127 O125 1.240 . S
H128 C102 0.931 . S
H129 C111 0.931 . S
H130 C115 0.929 . S
H131 C117 0.930 . S
Co132 N136 2.148 1_565 S
Co132 N142 2.128 . S
Co132 N152 2.194 . S
Co132 O157 2.351 . S
Co132 O158 2.155 . S
Co132 O159 2.096 . S
C133 N136 1.301 . S
C133 N137 1.328 . S
C133 H138 0.930 . S
C134 C135 1.333 . S
C134 N136 1.317 . S
C134 H139 0.930 . S
C135 C134 1.333 . S
C135 N137 1.350 . S
C135 H161 0.931 . S
N136 Co132 2.148 1_545 S
N136 C133 1.301 . S
N136 C134 1.317 . S
N137 C133 1.328 . S
N137 C135 1.350 . S
H138 C133 0.930 . S
H139 C134 0.930 . S
C140 O141 1.224 . S
C140 O159 1.247 . S
O141 C140 1.224 . S
N142 Co132 2.128 . S
N142 C143 1.355 . S
N142 C145 1.311 . S
C143 N142 1.355 . S
C143 C144 1.363 . S
C143 H155 0.929 . S
C144 C143 1.363 . S
C144 N146 1.375 . S
C144 H162 0.931 . S
C145 N142 1.311 . S
C145 N146 1.347 . S
C145 H156 0.929 . S
N146 C144 1.375 . S
N146 C145 1.347 . S
C147 C150 1.365 . S
C147 N152 1.328 . S
C147 H153 0.929 . S
C148 C149 1.362 . S
C148 C151 1.378 . S
C148 H163 0.929 . S
C149 C148 1.362 . S
C149 C150 1.366 . S
C150 C147 1.365 . S
C150 C149 1.366 . S
C150 H164 0.930 . S
C151 C148 1.378 . S
C151 N152 1.315 . S
C151 H154 0.930 . S
N152 Co132 2.194 . S
N152 C147 1.328 . S
N152 C151 1.315 . S
H153 C147 0.929 . S
H154 C151 0.930 . S
H155 C143 0.929 . S
H156 C145 0.929 . S
O157 Co132 2.351 . S
O157 C160 1.244 . S
O158 Co132 2.155 . S
O158 C160 1.240 . S
O159 Co132 2.096 . S
O159 C140 1.247 . S
C160 O157 1.244 . S
C160 O158 1.240 . S
H161 C135 0.931 . S
H162 C144 0.931 . S
H163 C148 0.929 . S
H164 C150 0.930 . S
Co165 N169 2.148 1_545 S
Co165 N175 2.128 . S
Co165 N185 2.194 . S
Co165 O190 2.351 . S
Co165 O191 2.155 . S
Co165 O192 2.096 . S
C166 N169 1.301 . S
C166 N170 1.328 . S
C166 H171 0.930 . S
C167 C168 1.333 . S
C167 N169 1.317 . S
C167 H172 0.930 . S
C168 C167 1.333 . S
C168 N170 1.350 . S
C168 H194 0.931 . S
N169 Co165 2.148 1_565 S
N169 C166 1.301 . S
N169 C167 1.317 . S
N170 C166 1.328 . S
N170 C168 1.350 . S
H171 C166 0.930 . S
H172 C167 0.930 . S
C173 O174 1.224 . S
C173 O192 1.247 . S
O174 C173 1.224 . S
N175 Co165 2.128 . S
N175 C176 1.355 . S
N175 C178 1.311 . S
C176 N175 1.355 . S
C176 C177 1.363 . S
C176 H188 0.929 . S
C177 C176 1.363 . S
C177 N179 1.375 . S
C177 H195 0.931 . S
C178 N175 1.311 . S
C178 N179 1.347 . S
C178 H189 0.929 . S
N179 C177 1.375 . S
N179 C178 1.347 . S
C180 C183 1.365 . S
C180 N185 1.328 . S
C180 H186 0.929 . S
C181 C182 1.362 . S
C181 C184 1.378 . S
C181 H196 0.929 . S
C182 C181 1.362 . S
C182 C183 1.366 . S
C183 C180 1.365 . S
C183 C182 1.366 . S
C183 H197 0.930 . S
C184 C181 1.378 . S
C184 N185 1.315 . S
C184 H187 0.930 . S
N185 Co165 2.194 . S
N185 C180 1.328 . S
N185 C184 1.315 . S
H186 C180 0.929 . S
H187 C184 0.930 . S
H188 C176 0.929 . S
H189 C178 0.929 . S
O190 Co165 2.351 . S
O190 C193 1.244 . S
O191 Co165 2.155 . S
O191 C193 1.240 . S
O192 Co165 2.096 . S
O192 C173 1.247 . S
C193 O190 1.244 . S
C193 O191 1.240 . S
H194 C168 0.931 . S
H195 C177 0.931 . S
H196 C181 0.929 . S
H197 C183 0.930 . S
Co198 N202 2.148 . S
Co198 N208 2.128 . S
Co198 N218 2.194 . S
Co198 O223 2.351 . S
Co198 O224 2.155 . S
Co198 O225 2.096 . S
C199 N202 1.301 . S
C199 N203 1.328 . S
C199 H204 0.930 . S
C200 C201 1.333 . S
C200 N202 1.317 . S
C200 H205 0.930 . S
C201 C200 1.333 . S
C201 N203 1.350 . S
C201 H227 0.931 . S
N202 Co198 2.148 . S
N202 C199 1.301 . S
N202 C200 1.317 . S
N203 C199 1.328 . S
N203 C201 1.350 . S
H204 C199 0.930 . S
H205 C200 0.930 . S
C206 O207 1.224 . S
C206 O225 1.247 . S
O207 C206 1.224 . S
N208 Co198 2.128 . S
N208 C209 1.355 . S
N208 C211 1.311 . S
C209 N208 1.355 . S
C209 C210 1.363 . S
C209 H221 0.929 . S
C210 C209 1.363 . S
C210 N212 1.375 . S
C210 H228 0.931 . S
C211 N208 1.311 . S
C211 N212 1.347 . S
C211 H222 0.929 . S
N212 C210 1.375 . S
N212 C211 1.347 . S
C213 C216 1.365 . S
C213 N218 1.328 . S
C213 H219 0.929 . S
C214 C215 1.362 . S
C214 C217 1.378 . S
C214 H229 0.929 . S
C215 C214 1.362 . S
C215 C216 1.366 . S
C216 C213 1.365 . S
C216 C215 1.366 . S
C216 H230 0.930 . S
C217 C214 1.378 . S
C217 N218 1.315 . S
C217 H220 0.930 . S
N218 Co198 2.194 . S
N218 C213 1.328 . S
N218 C217 1.315 . S
H219 C213 0.929 . S
H220 C217 0.930 . S
H221 C209 0.929 . S
H222 C211 0.929 . S
O223 Co198 2.351 . S
O223 C226 1.244 . S
O224 Co198 2.155 . S
O224 C226 1.240 . S
O225 Co198 2.096 . S
O225 C206 1.247 . S
C226 O223 1.244 . S
C226 O224 1.240 . S
H227 C201 0.931 . S
H228 C210 0.931 . S
H229 C214 0.929 . S
H230 C216 0.930 . S
Co231 N235 2.148 . S
Co231 N241 2.128 . S
Co231 N251 2.194 . S
Co231 O256 2.351 . S
Co231 O257 2.155 . S
Co231 O258 2.096 . S
C232 N235 1.301 . S
C232 N236 1.328 . S
C232 H237 0.930 . S
C233 C234 1.333 . S
C233 N235 1.317 . S
C233 H238 0.930 . S
C234 C233 1.333 . S
C234 N236 1.350 . S
C234 H260 0.931 . S
N235 Co231 2.148 . S
N235 C232 1.301 . S
N235 C233 1.317 . S
N236 C232 1.328 . S
N236 C234 1.350 . S
H237 C232 0.930 . S
H238 C233 0.930 . S
C239 O240 1.224 . S
C239 O258 1.247 . S
O240 C239 1.224 . S
N241 Co231 2.128 . S
N241 C242 1.355 . S
N241 C244 1.311 . S
C242 N241 1.355 . S
C242 C243 1.363 . S
C242 H254 0.929 . S
C243 C242 1.363 . S
C243 N245 1.375 . S
C243 H261 0.931 . S
C244 N241 1.311 . S
C244 N245 1.347 . S
C244 H255 0.929 . S
N245 C243 1.375 . S
N245 C244 1.347 . S
C246 C249 1.365 . S
C246 N251 1.328 . S
C246 H252 0.929 . S
C247 C248 1.362 . S
C247 C250 1.378 . S
C247 H262 0.929 . S
C248 C247 1.362 . S
C248 C249 1.366 . S
C249 C246 1.365 . S
C249 C248 1.366 . S
C249 H263 0.930 . S
C250 C247 1.378 . S
C250 N251 1.315 . S
C250 H253 0.930 . S
N251 Co231 2.194 . S
N251 C246 1.328 . S
N251 C250 1.315 . S
H252 C246 0.929 . S
H253 C250 0.930 . S
H254 C242 0.929 . S
H255 C244 0.929 . S
O256 Co231 2.351 . S
O256 C259 1.244 . S
O257 Co231 2.155 . S
O257 C259 1.240 . S
O258 Co231 2.096 . S
O258 C239 1.247 . S
C259 O256 1.244 . S
C259 O257 1.240 . S
H260 C234 0.931 . S
H261 C243 0.931 . S
H262 C247 0.929 . S
H263 C249 0.930 . S
H264 C272 0.950 . S
H265 C277 0.950 . S
H266 C274 0.950 . S
H267 C276 0.950 . S
H268 C278 0.950 . S
H269 C280 0.950 . S
H270 C282 0.950 . S
H271 C283 0.950 . S
C272 H264 0.950 . S
C272 C273 1.386 . S
C272 C274 1.391 . S
C273 C272 1.386 . S
C273 C277 1.393 . S
C274 H266 0.950 . S
C274 C272 1.391 . S
C274 C275 1.400 . S
C275 C274 1.400 . S
C275 C276 1.398 . S
C275 C281 1.491 1_545 S
C276 H267 0.950 . S
C276 C275 1.398 . S
C276 C277 1.391 . S
C277 H265 0.950 . S
C277 C273 1.393 . S
C277 C276 1.391 . S
C278 H268 0.950 . S
C278 C279 1.386 . S
C278 C280 1.391 . S
C279 C278 1.386 . S
C279 C283 1.393 . S
C280 H269 0.950 . S
C280 C278 1.391 . S
C280 C281 1.400 . S
C281 C275 1.491 1_565 S
C281 C280 1.400 . S
C281 C282 1.398 . S
C282 H270 0.950 . S
C282 C281 1.398 . S
C282 C283 1.391 . S
C283 H271 0.950 . S
C283 C279 1.393 . S
C283 C282 1.391 . S
H284 C292 0.950 . S
H285 C297 0.950 . S
H286 C294 0.950 . S
H287 C296 0.950 . S
H288 C298 0.950 . S
H289 C300 0.950 . S
H290 C302 0.950 . S
H291 C303 0.950 . S
C292 H284 0.950 . S
C292 C293 1.386 . S
C292 C294 1.391 . S
C293 C292 1.386 . S
C293 C297 1.393 . S
C294 H286 0.950 . S
C294 C292 1.391 . S
C294 C295 1.400 . S
C295 C294 1.400 . S
C295 C296 1.398 . S
C295 C301 1.491 . S
C296 H287 0.950 . S
C296 C295 1.398 . S
C296 C297 1.391 . S
C297 H285 0.950 . S
C297 C293 1.393 . S
C297 C296 1.391 . S
C298 H288 0.950 . S
C298 C299 1.386 . S
C298 C300 1.391 . S
C299 C298 1.386 . S
C299 C303 1.393 . S
C300 H289 0.950 . S
C300 C298 1.391 . S
C300 C301 1.400 . S
C301 C295 1.491 . S
C301 C300 1.400 . S
C301 C302 1.398 . S
C302 H290 0.950 . S
C302 C301 1.398 . S
C302 C303 1.391 . S
C303 H291 0.950 . S
C303 C299 1.393 . S
C303 C302 1.391 . S
H304 C312 0.950 . S
H305 C317 0.950 . S
H306 C314 0.950 . S
H307 C316 0.950 . S
H308 C318 0.950 . S
H309 C320 0.950 . S
H310 C322 0.950 . S
H311 C323 0.950 . S
C312 H304 0.950 . S
C312 C313 1.386 . S
C312 C314 1.391 . S
C313 C312 1.386 . S
C313 C317 1.393 1_565 S
C314 H306 0.950 . S
C314 C312 1.391 . S
C314 C315 1.400 . S
C315 C314 1.400 . S
C315 C316 1.398 1_565 S
C315 C321 1.491 1_565 S
C316 H307 0.950 . S
C316 C315 1.398 1_545 S
C316 C317 1.391 . S
C317 H305 0.950 . S
C317 C313 1.393 1_545 S
C317 C316 1.391 . S
C318 H308 0.950 . S
C318 C319 1.386 . S
C318 C320 1.391 . S
C319 C318 1.386 . S
C319 C323 1.393 1_545 S
C320 H309 0.950 . S
C320 C318 1.391 . S
C320 C321 1.400 . S
C321 C315 1.491 1_545 S
C321 C320 1.400 . S
C321 C322 1.398 1_545 S
C322 H310 0.950 . S
C322 C321 1.398 1_565 S
C322 C323 1.391 . S
C323 H311 0.950 . S
C323 C319 1.393 1_565 S
C323 C322 1.391 . S
H324 C332 0.950 . S
H325 C337 0.950 . S
H326 C334 0.950 . S
H327 C336 0.950 . S
H328 C338 0.950 . S
H329 C340 0.950 . S
H330 C342 0.950 . S
H331 C343 0.950 . S
C332 H324 0.950 . S
C332 C333 1.386 . S
C332 C334 1.391 . S
C333 C332 1.386 . S
C333 C337 1.393 . S
C334 H326 0.950 . S
C334 C332 1.391 . S
C334 C335 1.400 . S
C335 C334 1.400 . S
C335 C336 1.398 . S
C335 C341 1.491 . S
C336 H327 0.950 . S
C336 C335 1.398 . S
C336 C337 1.391 . S
C337 H325 0.950 . S
C337 C333 1.393 . S
C337 C336 1.391 . S
C338 H328 0.950 . S
C338 C339 1.386 . S
C338 C340 1.391 . S
C339 C338 1.386 . S
C339 C343 1.393 . S
C340 H329 0.950 . S
C340 C338 1.391 . S
C340 C341 1.400 . S
C341 C335 1.491 . S
C341 C340 1.400 . S
C341 C342 1.398 . S
C342 H330 0.950 . S
C342 C341 1.398 . S
C342 C343 1.391 . S
C343 H331 0.950 . S
C343 C339 1.393 . S
C343 C342 1.391 . S
H344 C352 0.950 . S
H345 C357 0.950 . S
H346 C354 0.950 1_556 S
H347 C356 0.950 . S
H348 C358 0.950 . S
H349 C360 0.950 1_554 S
H350 C362 0.950 . S
H351 C363 0.950 . S
C352 H344 0.950 . S
C352 C353 1.386 . S
C352 C354 1.391 . S
C353 C352 1.386 . S
C353 C357 1.393 1_545 S
C354 H346 0.950 1_554 S
C354 C352 1.391 . S
C354 C355 1.400 . S
C355 C354 1.400 . S
C355 C356 1.398 1_545 S
C355 C361 1.491 1_444 S
C356 H347 0.950 . S
C356 C355 1.398 1_565 S
C356 C357 1.391 . S
C357 H345 0.950 . S
C357 C353 1.393 1_565 S
C357 C356 1.391 . S
C358 H348 0.950 . S
C358 C359 1.386 . S
C358 C360 1.391 . S
C359 C358 1.386 . S
C359 C363 1.393 1_565 S
C360 H349 0.950 1_556 S
C360 C358 1.391 . S
C360 C361 1.400 . S
C361 C355 1.491 1_666 S
C361 C360 1.400 . S
C361 C362 1.398 1_565 S
C362 H350 0.950 . S
C362 C361 1.398 1_545 S
C362 C363 1.391 . S
C363 H351 0.950 . S
C363 C359 1.393 1_545 S
C363 C362 1.391 . S
H364 C372 0.950 . S
H365 C377 0.950 . S
H366 C374 0.950 . S
H367 C376 0.950 . S
H368 C378 0.950 . S
H369 C380 0.950 . S
H370 C382 0.950 . S
H371 C383 0.950 . S
C372 H364 0.950 . S
C372 C373 1.386 . S
C372 C374 1.391 . S
C373 C372 1.386 . S
C373 C377 1.393 1_565 S
C374 H366 0.950 . S
C374 C372 1.391 . S
C374 C375 1.400 . S
C375 C374 1.400 . S
C375 C376 1.398 1_565 S
C375 C381 1.491 1_564 S
C376 H367 0.950 . S
C376 C375 1.398 1_545 S
C376 C377 1.391 . S
C377 H365 0.950 . S
C377 C373 1.393 1_545 S
C377 C376 1.391 . S
C378 H368 0.950 . S
C378 C379 1.386 . S
C378 C380 1.391 . S
C379 C378 1.386 . S
C379 C383 1.393 1_545 S
C380 H369 0.950 . S
C380 C378 1.391 . S
C380 C381 1.400 . S
C381 C375 1.491 1_546 S
C381 C380 1.400 . S
C381 C382 1.398 1_545 S
C382 H370 0.950 . S
C382 C381 1.398 1_565 S
C382 C383 1.391 . S
C383 H371 0.950 . S
C383 C379 1.393 1_565 S
C383 C382 1.391 . S
H384 C392 0.950 . S
H385 C397 0.950 . S
H386 C394 0.950 . S
H387 C396 0.950 1_655 S
H388 C398 0.950 . S
H389 C400 0.950 . S
H390 C402 0.950 1_455 S
H391 C403 0.950 . S
C392 H384 0.950 . S
C392 C393 1.386 . S
C392 C394 1.391 . S
C393 C392 1.386 . S
C393 C397 1.393 . S
C394 H386 0.950 . S
C394 C392 1.391 . S
C394 C395 1.400 . S
C395 C394 1.400 . S
C395 C396 1.398 . S
C395 C401 1.491 1_455 S
C396 H387 0.950 1_455 S
C396 C395 1.398 . S
C396 C397 1.391 . S
C397 H385 0.950 . S
C397 C393 1.393 . S
C397 C396 1.391 . S
C398 H388 0.950 . S
C398 C399 1.386 . S
C398 C400 1.391 . S
C399 C398 1.386 . S
C399 C403 1.393 . S
C400 H389 0.950 . S
C400 C398 1.391 . S
C400 C401 1.400 . S
C401 C395 1.491 1_655 S
C401 C400 1.400 . S
C401 C402 1.398 . S
C402 H390 0.950 1_655 S
C402 C401 1.398 . S
C402 C403 1.391 . S
C403 H391 0.950 . S
C403 C399 1.393 . S
C403 C402 1.391 . S
H404 C412 0.950 . S
H405 C417 0.950 . S
H406 C414 0.950 . S
H407 C416 0.950 . S
H408 C418 0.950 . S
H409 C420 0.950 . S
H410 C422 0.950 . S
H411 C423 0.950 . S
C412 H404 0.950 . S
C412 C413 1.386 . S
C412 C414 1.391 . S
C413 C412 1.386 . S
C413 C417 1.393 . S
C414 H406 0.950 . S
C414 C412 1.391 . S
C414 C415 1.400 . S
C415 C414 1.400 . S
C415 C416 1.398 . S
C415 C421 1.491 . S
C416 H407 0.950 . S
C416 C415 1.398 . S
C416 C417 1.391 . S
C417 H405 0.950 . S
C417 C413 1.393 . S
C417 C416 1.391 . S
C418 H408 0.950 . S
C418 C419 1.386 . S
C418 C420 1.391 . S
C419 C418 1.386 . S
C419 C423 1.393 . S
C420 H409 0.950 . S
C420 C418 1.391 . S
C420 C421 1.400 . S
C421 C415 1.491 . S
C421 C420 1.400 . S
C421 C422 1.398 . S
C422 H410 0.950 . S
C422 C421 1.398 . S
C422 C423 1.391 . S
C423 H411 0.950 . S
C423 C419 1.393 . S
C423 C422 1.391 . S
H424 C432 0.950 . S
H425 C437 0.950 . S
H426 C434 0.950 . S
H427 C436 0.950 . S
H428 C438 0.950 . S
H429 C440 0.950 . S
H430 C442 0.950 . S
H431 C443 0.950 . S
C432 H424 0.950 . S
C432 C433 1.386 . S
C432 C434 1.391 . S
C433 C432 1.386 . S
C433 C437 1.393 . S
C434 H426 0.950 . S
C434 C432 1.391 . S
C434 C435 1.400 . S
C435 C434 1.400 . S
C435 C436 1.398 . S
C435 C441 1.491 . S
C436 H427 0.950 . S
C436 C435 1.398 . S
C436 C437 1.391 . S
C437 H425 0.950 . S
C437 C433 1.393 . S
C437 C436 1.391 . S
C438 H428 0.950 . S
C438 C439 1.386 . S
C438 C440 1.391 . S
C439 C438 1.386 . S
C439 C443 1.393 . S
C440 H429 0.950 . S
C440 C438 1.391 . S
C440 C441 1.400 . S
C441 C435 1.491 . S
C441 C440 1.400 . S
C441 C442 1.398 . S
C442 H430 0.950 . S
C442 C441 1.398 . S
C442 C443 1.391 . S
C443 H431 0.950 . S
C443 C439 1.393 . S
C443 C442 1.391 . S
H444 C452 0.950 . S
H445 C457 0.950 . S
H446 C454 0.950 . S
H447 C456 0.950 . S
H448 C458 0.950 . S
H449 C460 0.950 . S
H450 C462 0.950 . S
H451 C463 0.950 . S
C452 H444 0.950 . S
C452 C453 1.386 . S
C452 C454 1.391 . S
C453 C452 1.386 . S
C453 C457 1.393 . S
C454 H446 0.950 . S
C454 C452 1.391 . S
C454 C455 1.400 . S
C455 C454 1.400 . S
C455 C456 1.398 . S
C455 C461 1.491 . S
C456 H447 0.950 . S
C456 C455 1.398 . S
C456 C457 1.391 . S
C457 H445 0.950 . S
C457 C453 1.393 . S
C457 C456 1.391 . S
C458 H448 0.950 . S
C458 C459 1.386 . S
C458 C460 1.391 . S
C459 C458 1.386 . S
C459 C463 1.393 . S
C460 H449 0.950 . S
C460 C458 1.391 . S
C460 C461 1.400 . S
C461 C455 1.491 . S
C461 C460 1.400 . S
C461 C462 1.398 . S
C462 H450 0.950 . S
C462 C461 1.398 . S
C462 C463 1.391 . S
C463 H451 0.950 . S
C463 C459 1.393 . S
C463 C462 1.391 . S
H464 C472 0.950 . S
H465 C477 0.950 . S
H466 C474 0.950 . S
H467 C476 0.950 . S
H468 C478 0.950 . S
H469 C480 0.950 . S
H470 C482 0.950 . S
H471 C483 0.950 . S
C472 H464 0.950 . S
C472 C473 1.386 . S
C472 C474 1.391 . S
C473 C472 1.386 . S
C473 C477 1.393 . S
C474 H466 0.950 . S
C474 C472 1.391 . S
C474 C475 1.400 . S
C475 C474 1.400 . S
C475 C476 1.398 . S
C475 C481 1.491 . S
C476 H467 0.950 . S
C476 C475 1.398 . S
C476 C477 1.391 . S
C477 H465 0.950 . S
C477 C473 1.393 . S
C477 C476 1.391 . S
C478 H468 0.950 . S
C478 C479 1.386 . S
C478 C480 1.391 . S
C479 C478 1.386 . S
C479 C483 1.393 . S
C480 H469 0.950 . S
C480 C478 1.391 . S
C480 C481 1.400 . S
C481 C475 1.491 . S
C481 C480 1.400 . S
C481 C482 1.398 . S
C482 H470 0.950 . S
C482 C481 1.398 . S
C482 C483 1.391 . S
C483 H471 0.950 . S
C483 C479 1.393 . S
C483 C482 1.391 . S
H484 C492 0.950 . S
H485 C497 0.950 . S
H486 C494 0.950 . S
H487 C496 0.950 . S
H488 C498 0.950 . S
H489 C500 0.950 . S
H490 C502 0.950 . S
H491 C503 0.950 . S
C492 H484 0.950 . S
C492 C493 1.386 . S
C492 C494 1.391 . S
C493 C492 1.386 . S
C493 C497 1.393 . S
C494 H486 0.950 . S
C494 C492 1.391 . S
C494 C495 1.400 . S
C495 C494 1.400 . S
C495 C496 1.398 . S
C495 C501 1.491 . S
C496 H487 0.950 . S
C496 C495 1.398 . S
C496 C497 1.391 . S
C497 H485 0.950 . S
C497 C493 1.393 . S
C497 C496 1.391 . S
C498 H488 0.950 . S
C498 C499 1.386 . S
C498 C500 1.391 . S
C499 C498 1.386 . S
C499 C503 1.393 . S
C500 H489 0.950 . S
C500 C498 1.391 . S
C500 C501 1.400 . S
C501 C495 1.491 . S
C501 C500 1.400 . S
C501 C502 1.398 . S
C502 H490 0.950 . S
C502 C501 1.398 . S
C502 C503 1.391 . S
C503 H491 0.950 . S
C503 C499 1.393 . S
C503 C502 1.391 . S
H504 C512 0.950 . S
H505 C517 0.950 . S
H506 C514 0.950 . S
H507 C516 0.950 . S
H508 C518 0.950 . S
H509 C520 0.950 . S
H510 C522 0.950 . S
H511 C523 0.950 . S
C512 H504 0.950 . S
C512 C513 1.386 . S
C512 C514 1.391 . S
C513 C512 1.386 . S
C513 C517 1.393 . S
C514 H506 0.950 . S
C514 C512 1.391 . S
C514 C515 1.400 . S
C515 C514 1.400 . S
C515 C516 1.398 . S
C515 C521 1.491 . S
C516 H507 0.950 . S
C516 C515 1.398 . S
C516 C517 1.391 . S
C517 H505 0.950 . S
C517 C513 1.393 . S
C517 C516 1.391 . S
C518 H508 0.950 . S
C518 C519 1.386 . S
C518 C520 1.391 . S
C519 C518 1.386 . S
C519 C523 1.393 . S
C520 H509 0.950 . S
C520 C518 1.391 . S
C520 C521 1.400 . S
C521 C515 1.491 . S
C521 C520 1.400 . S
C521 C522 1.398 . S
C522 H510 0.950 . S
C522 C521 1.398 . S
C522 C523 1.391 . S
C523 H511 0.950 . S
C523 C519 1.393 . S
C523 C522 1.391 . S
H524 C532 0.950 . S
H525 C537 0.950 . S
H526 C534 0.950 . S
H527 C536 0.950 . S
H528 C538 0.950 . S
H529 C540 0.950 . S
H530 C542 0.950 . S
H531 C543 0.950 . S
C532 H524 0.950 . S
C532 C533 1.386 . S
C532 C534 1.391 . S
C533 C532 1.386 . S
C533 C537 1.393 . S
C534 H526 0.950 . S
C534 C532 1.391 . S
C534 C535 1.400 . S
C535 C534 1.400 . S
C535 C536 1.398 . S
C535 C541 1.491 . S
C536 H527 0.950 . S
C536 C535 1.398 . S
C536 C537 1.391 . S
C537 H525 0.950 . S
C537 C533 1.393 . S
C537 C536 1.391 . S
C538 H528 0.950 . S
C538 C539 1.386 . S
C538 C540 1.391 . S
C539 C538 1.386 . S
C539 C543 1.393 . S
C540 H529 0.950 . S
C540 C538 1.391 . S
C540 C541 1.400 . S
C541 C535 1.491 . S
C541 C540 1.400 . S
C541 C542 1.398 . S
C542 H530 0.950 . S
C542 C541 1.398 . S
C542 C543 1.391 . S
C543 H531 0.950 . S
C543 C539 1.393 . S
C543 C542 1.391 . S
H544 C552 0.950 . S
H545 C557 0.950 . S
H546 C554 0.950 . S
H547 C556 0.950 . S
H548 C558 0.950 . S
H549 C560 0.950 . S
H550 C562 0.950 . S
H551 C563 0.950 . S
C552 H544 0.950 . S
C552 C553 1.386 . S
C552 C554 1.391 1_545 S
C553 C552 1.386 . S
C553 C557 1.393 . S
C554 H546 0.950 . S
C554 C552 1.391 1_565 S
C554 C555 1.400 . S
C555 C554 1.400 . S
C555 C556 1.398 . S
C555 C561 1.491 . S
C556 H547 0.950 . S
C556 C555 1.398 . S
C556 C557 1.391 1_565 S
C557 H545 0.950 . S
C557 C553 1.393 . S
C557 C556 1.391 1_545 S
C558 H548 0.950 . S
C558 C559 1.386 . S
C558 C560 1.391 . S
C559 C558 1.386 . S
C559 C563 1.393 . S
C560 H549 0.950 . S
C560 C558 1.391 . S
C560 C561 1.400 . S
C561 C555 1.491 . S
C561 C560 1.400 . S
C561 C562 1.398 . S
C562 H550 0.950 . S
C562 C561 1.398 . S
C562 C563 1.391 . S
C563 H551 0.950 . S
C563 C559 1.393 . S
C563 C562 1.391 . S
H564 C572 0.950 . S
H565 C577 0.950 . S
H566 C574 0.950 . S
H567 C576 0.950 . S
H568 C578 0.950 . S
H569 C580 0.950 . S
H570 C582 0.950 . S
H571 C583 0.950 . S
C572 H564 0.950 . S
C572 C573 1.386 . S
C572 C574 1.391 1_565 S
C573 C572 1.386 . S
C573 C577 1.393 . S
C574 H566 0.950 . S
C574 C572 1.391 1_545 S
C574 C575 1.400 . S
C575 C574 1.400 . S
C575 C576 1.398 . S
C575 C581 1.491 . S
C576 H567 0.950 . S
C576 C575 1.398 . S
C576 C577 1.391 1_545 S
C577 H565 0.950 . S
C577 C573 1.393 . S
C577 C576 1.391 1_565 S
C578 H568 0.950 . S
C578 C579 1.386 . S
C578 C580 1.391 . S
C579 C578 1.386 . S
C579 C583 1.393 . S
C580 H569 0.950 . S
C580 C578 1.391 . S
C580 C581 1.400 . S
C581 C575 1.491 . S
C581 C580 1.400 . S
C581 C582 1.398 . S
C582 H570 0.950 . S
C582 C581 1.398 . S
C582 C583 1.391 . S
C583 H571 0.950 . S
C583 C579 1.393 . S
C583 C582 1.391 . S
H584 C592 0.950 . S
H585 C597 0.950 . S
H586 C594 0.950 . S
H587 C596 0.950 . S
H588 C598 0.950 . S
H589 C600 0.950 . S
H590 C602 0.950 . S
H591 C603 0.950 . S
C592 H584 0.950 . S
C592 C593 1.386 . S
C592 C594 1.391 . S
C593 C592 1.386 . S
C593 C597 1.393 . S
C594 H586 0.950 . S
C594 C592 1.391 . S
C594 C595 1.400 . S
C595 C594 1.400 . S
C595 C596 1.398 . S
C595 C601 1.491 . S
C596 H587 0.950 . S
C596 C595 1.398 . S
C596 C597 1.391 . S
C597 H585 0.950 . S
C597 C593 1.393 . S
C597 C596 1.391 . S
C598 H588 0.950 . S
C598 C599 1.386 . S
C598 C600 1.391 . S
C599 C598 1.386 . S
C599 C603 1.393 . S
C600 H589 0.950 . S
C600 C598 1.391 . S
C600 C601 1.400 . S
C601 C595 1.491 . S
C601 C600 1.400 . S
C601 C602 1.398 . S
C602 H590 0.950 . S
C602 C601 1.398 . S
C602 C603 1.391 . S
C603 H591 0.950 . S
C603 C599 1.393 . S
C603 C602 1.391 . S
H604 C612 0.950 . S
H605 C617 0.950 . S
H606 C614 0.950 . S
H607 C616 0.950 . S
H608 C618 0.950 . S
H609 C620 0.950 . S
H610 C622 0.950 . S
H611 C623 0.950 . S
C612 H604 0.950 . S
C612 C613 1.386 . S
C612 C614 1.391 . S
C613 C612 1.386 . S
C613 C617 1.393 . S
C614 H606 0.950 . S
C614 C612 1.391 . S
C614 C615 1.400 . S
C615 C614 1.400 . S
C615 C616 1.398 . S
C615 C621 1.491 . S
C616 H607 0.950 . S
C616 C615 1.398 . S
C616 C617 1.391 . S
C617 H605 0.950 . S
C617 C613 1.393 . S
C617 C616 1.391 . S
C618 H608 0.950 . S
C618 C619 1.386 . S
C618 C620 1.391 . S
C619 C618 1.386 . S
C619 C623 1.393 . S
C620 H609 0.950 . S
C620 C618 1.391 . S
C620 C621 1.400 . S
C621 C615 1.491 . S
C621 C620 1.400 . S
C621 C622 1.398 . S
C622 H610 0.950 . S
C622 C621 1.398 . S
C622 C623 1.391 . S
C623 H611 0.950 . S
C623 C619 1.393 . S
C623 C622 1.391 . S
H624 C632 0.950 . S
H625 C637 0.950 . S
H626 C634 0.950 . S
H627 C636 0.950 . S
H628 C638 0.950 . S
H629 C640 0.950 . S
H630 C642 0.950 . S
H631 C643 0.950 . S
C632 H624 0.950 . S
C632 C633 1.386 . S
C632 C634 1.391 1_565 S
C633 C632 1.386 . S
C633 C637 1.393 . S
C634 H626 0.950 . S
C634 C632 1.391 1_545 S
C634 C635 1.400 . S
C635 C634 1.400 . S
C635 C636 1.398 . S
C635 C641 1.491 . S
C636 H627 0.950 . S
C636 C635 1.398 . S
C636 C637 1.391 1_545 S
C637 H625 0.950 . S
C637 C633 1.393 . S
C637 C636 1.391 1_565 S
C638 H628 0.950 . S
C638 C639 1.386 . S
C638 C640 1.391 . S
C639 C638 1.386 . S
C639 C643 1.393 . S
C640 H629 0.950 . S
C640 C638 1.391 . S
C640 C641 1.400 . S
C641 C635 1.491 . S
C641 C640 1.400 . S
C641 C642 1.398 . S
C642 H630 0.950 . S
C642 C641 1.398 . S
C642 C643 1.391 . S
C643 H631 0.950 . S
C643 C639 1.393 . S
C643 C642 1.391 . S
H644 C652 0.950 . S
H645 C657 0.950 . S
H646 C654 0.950 . S
H647 C656 0.950 . S
H648 C658 0.950 . S
H649 C660 0.950 . S
H650 C662 0.950 . S
H651 C663 0.950 . S
C652 H644 0.950 . S
C652 C653 1.386 . S
C652 C654 1.391 . S
C653 C652 1.386 . S
C653 C657 1.393 . S
C654 H646 0.950 . S
C654 C652 1.391 . S
C654 C655 1.400 . S
C655 C654 1.400 . S
C655 C656 1.398 . S
C655 C661 1.491 . S
C656 H647 0.950 . S
C656 C655 1.398 . S
C656 C657 1.391 . S
C657 H645 0.950 . S
C657 C653 1.393 . S
C657 C656 1.391 . S
C658 H648 0.950 . S
C658 C659 1.386 . S
C658 C660 1.391 1_545 S
C659 C658 1.386 . S
C659 C663 1.393 . S
C660 H649 0.950 . S
C660 C658 1.391 1_565 S
C660 C661 1.400 . S
C661 C655 1.491 . S
C661 C660 1.400 . S
C661 C662 1.398 . S
C662 H650 0.950 . S
C662 C661 1.398 . S
C662 C663 1.391 1_565 S
C663 H651 0.950 . S
C663 C659 1.393 . S
C663 C662 1.391 1_545 S
C273 C17 1.495 . S
C279 C50 1.497 . S
C293 C116 1.488 . S
C299 C83 1.482 . S
C313 C149 1.491 . S
C319 C182 1.482 . S
C333 C248 1.495 . S
C339 C215 1.483 . S
C353 C28 1.049 . S
C359 C160 1.049 . S
C373 C61 1.050 . S
C379 C193 1.050 . S
C393 C94 1.039 . S
C399 C226 1.039 . S
C413 C127 1.045 . S
C419 C259 1.045 . S
C433 C74 1.428 . S
C439 C8 1.442 . S
C453 C107 1.430 . S
C459 C41 1.444 . S
C473 C140 1.436 . S
C479 C206 1.429 . S
C493 C173 1.428 . S
C499 C239 1.442 . S
C513 N5 1.360 . S
C519 N14 1.358 . S
C533 N38 1.359 . S
C539 N47 1.357 . S
C553 N80 1.359 . S
C559 N71 1.362 . S
C573 N113 1.364 . S
C579 N104 1.363 . S
C593 N146 1.357 . S
C599 N137 1.358 . S
C613 N170 1.363 . S
C619 N179 1.363 . S
C633 N212 1.369 . S
C639 N203 1.369 . S
C653 N236 1.368 . S
C659 N245 1.366 . S
