# Generated by pormake.
# Topology qtz-x, (6)-cn, num edge types: 1
# Building blocks:
#     Node 0, Type 0, BuildingBlock: PAMTUU_clean_sbu_0, # of connection points: 6
#     Node 1, Type 0, BuildingBlock: PAMTUU_clean_sbu_0, # of connection points: 6
#     Node 2, Type 0, BuildingBlock: PAMTUU_clean_sbu_0, # of connection points: 6
#     Edge 3, Type (0, 0), BuildingBlock: KIFKEQ_clean_linker_1, # of connection points: 2
#     Edge 4, Type (0, 0), BuildingBlock: KIFKEQ_clean_linker_1, # of connection points: 2
#     Edge 5, Type (0, 0), BuildingBlock: KIFKEQ_clean_linker_1, # of connection points: 2
#     Edge 6, Type (0, 0), BuildingBlock: KIFKEQ_clean_linker_1, # of connection points: 2
#     Edge 7, Type (0, 0), BuildingBlock: KIFKEQ_clean_linker_1, # of connection points: 2
#     Edge 8, Type (0, 0), BuildingBlock: KIFKEQ_clean_linker_1, # of connection points: 2
#     Edge 9, Type (0, 0), BuildingBlock: KIFKEQ_clean_linker_1, # of connection points: 2
#     Edge 10, Type (0, 0), BuildingBlock: KIFKEQ_clean_linker_1, # of connection points: 2
#     Edge 11, Type (0, 0), BuildingBlock: KIFKEQ_clean_linker_1, # of connection points: 2
# Relax obj value: 0.125
# Max RMSD: 0.230
# Mean RMSD: 0.230
data_MOF--net-qtz-x--node1-PAMTUU_clean_sbu_0--edge1-KIFKEQ_clean_linker_1
_symmetry_space_group_name_H-M    P1
_symmetry_Int_Tables_number       1
_symmetry_cell_setting            triclinic
loop_
_symmetry_equiv_pos_as_xyz
'x, y, z'
_cell_length_a     15.340282
_cell_length_b     15.349101
_cell_length_c     54.706794
_cell_angle_alpha  90.016477
_cell_angle_beta   89.833408
_cell_angle_gamma 120.03967
loop_
_atom_site_label
_atom_site_type_symbol
_atom_site_fract_x
_atom_site_fract_y
_atom_site_fract_z
_atom_type_partial_charge
Tb0 Tb 0.10882 0.68341 0.17088 0.0
Tb1 Tb 0.88255 0.56946 0.19628 0.0
C2 C -0.00454 0.45522 0.18369 0.0
C3 C 0.2908 0.76102 0.12015 0.0
C4 C 0.32191 0.74186 0.06977 0.0
C5 C 0.36389 0.7085 0.08782 0.0
C6 C 0.3488 0.71834 0.11269 0.0
C7 C 0.24958 0.79534 0.10216 0.0
C8 C 0.26513 0.78607 0.07732 0.0
C9 C 0.27035 0.7655 0.14651 0.0
O10 O 0.00237 0.65919 0.14209 0.0
O11 O 0.85395 0.5303 0.15761 0.0
O12 O 0.9116 0.71307 0.18164 0.0
O13 O 0.08183 0.79723 0.187 0.0
O14 O 0.74434 0.43984 0.20443 0.0
O15 O 0.77821 0.58572 0.2179 0.0
O16 O 0.98891 0.6397 0.22597 0.0
O17 O 0.14109 0.67327 0.20918 0.0
O18 O 0.04342 0.52171 0.16641 0.0
O19 O 0.94634 0.47245 0.20088 0.0
C20 C 0.91002 0.58446 0.1391 0.0
O21 O 0.21951 0.80993 0.15212 0.0
O22 O 0.23934 0.68268 0.159 0.0
C23 C -0.00307 0.79752 0.18451 0.0
C24 C 0.6944 0.44995 0.2451 0.0
C25 C 0.66361 0.39285 0.29491 0.0
C26 C 0.63222 0.45798 0.28557 0.0
C27 C 0.64703 0.48581 0.26087 0.0
C28 C 0.7252 0.38423 0.25439 0.0
C29 C 0.70929 0.35547 0.27899 0.0
C30 C 0.71898 0.4887 0.21977 0.0
C31 C 0.08355 0.663 0.22813 0.0
H32 H 0.40668 0.67257 0.08279 0.0
H33 H 0.3811 0.6909 0.12612 0.0
H34 H 0.20432 0.82862 0.1072 0.0
H35 H 0.23281 0.814 0.06404 0.0
H36 H 0.59619 0.48737 0.29737 0.0
H37 H 0.62339 0.53717 0.25419 0.0
H38 H 0.7635 0.3566 0.24281 0.0
H39 H 0.73532 0.3061 0.28573 0.0
Tb40 Tb 0.48209 0.98057 0.50386 0.0
Tb41 Tb 0.59408 0.20489 0.52954 0.0
C42 C 0.36798 0.09323 0.51685 0.0
C43 C 0.37515 0.79896 0.45343 0.0
C44 C 0.32341 0.76521 0.40327 0.0
C45 C 0.25279 0.70764 0.42153 0.0
C46 C 0.27858 0.72417 0.44631 0.0
C47 C 0.44589 0.85668 0.43529 0.0
C48 C 0.42052 0.83962 0.41054 0.0
C49 C 0.39997 0.81897 0.4797 0.0
O50 O 0.56729 0.08761 0.47522 0.0
O51 O 0.58453 0.23473 0.49086 0.0
O52 O 0.70979 0.17778 0.51466 0.0
O53 O 0.62359 0.00695 0.51936 0.0
O54 O 0.59916 0.34068 0.53849 0.0
O55 O 0.71446 0.31003 0.55095 0.0
O56 O 0.5642 0.09701 0.55855 0.0
O57 O 0.43916 0.94828 0.54225 0.0
O58 O 0.38828 0.04844 0.49916 0.0
O59 O 0.43286 0.13884 0.53445 0.0
C60 C 0.58561 0.18023 0.47237 0.0
O61 O 0.4954 0.86843 0.48516 0.0
O62 O 0.34939 0.85181 0.49204 0.0
C63 C 0.70886 0.09223 0.51709 0.0
C64 C 0.65945 0.38791 0.57917 0.0
C65 C 0.63136 0.4094 0.62958 0.0
C66 C 0.72836 0.44288 0.61999 0.0
C67 C 0.74216 0.43244 0.59507 0.0
C68 C 0.56273 0.35619 0.58857 0.0
C69 C 0.549 0.36742 0.61342 0.0
C70 C 0.67415 0.36672 0.55354 0.0
C71 C 0.49087 0.00347 0.56104 0.0
H72 H 0.17671 0.65099 0.41676 0.0
H73 H 0.22249 0.67942 0.45996 0.0
H74 H 0.5209 0.91556 0.44019 0.0
H75 H 0.47748 0.88461 0.39711 0.0
H76 H 0.79351 0.47448 0.63183 0.0
H77 H 0.81735 0.45657 0.58831 0.0
H78 H 0.49717 0.32085 0.57686 0.0
H79 H 0.47343 0.34263 0.61995 0.0
Tb80 Tb 0.39062 0.59181 0.83695 0.0
Tb81 Tb 0.50366 0.48211 0.86339 0.0
C82 C 0.61696 0.70799 0.85024 0.0
C83 C 0.32651 0.7023 0.78605 0.0
C84 C 0.35337 0.75438 0.73596 0.0
C85 C 0.28472 0.76806 0.75032 0.0
C86 C 0.27138 0.74211 0.77517 0.0
C87 C 0.39468 0.68822 0.77181 0.0
C88 C 0.40775 0.71362 0.74704 0.0
C89 C 0.31157 0.67231 0.81197 0.0
O90 O 0.4153 0.50631 0.80889 0.0
O91 O 0.54625 0.49256 0.82494 0.0
O92 O 0.36062 0.36571 0.84884 0.0
O93 O 0.27549 0.45162 0.85305 0.0
O94 O 0.63529 0.47939 0.8726 0.0
O95 O 0.4897 0.36295 0.88511 0.0
O96 O 0.427 0.514 0.89238 0.0
O97 O 0.39751 0.63425 0.87531 0.0
O98 O 0.55249 0.68728 0.83243 0.0
O99 O 0.59718 0.64345 0.868 0.0
C100 C 0.49123 0.49029 0.80628 0.0
O101 O 0.26951 0.57581 0.81579 0.0
O102 O 0.38937 0.72271 0.8261 0.0
C103 C 0.27576 0.36649 0.85113 0.0
C104 C 0.62185 0.42264 0.91317 0.0
C105 C 0.67587 0.45276 0.96308 0.0
C106 C 0.67024 0.37049 0.95023 0.0
C107 C 0.64318 0.35548 0.92548 0.0
C108 C 0.6278 0.50491 0.92585 0.0
C109 C 0.65417 0.51967 0.95053 0.0
C110 C 0.58683 0.40418 0.88767 0.0
C111 C 0.40458 0.58589 0.89442 0.0
H112 H 0.2425 0.80032 0.74245 0.0
H113 H 0.21824 0.75324 0.78588 0.0
H114 H 0.4377 0.65717 0.77984 0.0
H115 H 0.45999 0.70049 0.73652 0.0
H116 H 0.68757 0.31817 0.95923 0.0
H117 H 0.63825 0.29115 0.91602 0.0
H118 H 0.61061 0.5571 0.91671 0.0
H119 H 0.65592 0.58275 0.95987 0.0
H120 H 0.83477 0.82592 0.18632 0.0
H121 H 0.15997 0.98816 0.18276 0.0
H122 H 0.83508 0.98495 0.186 0.0
H123 H 0.15999 0.14728 0.18258 0.0
H124 H 0.10695 0.40156 0.15476 0.0
H125 H 0.10771 0.24286 0.15505 0.0
H126 H 0.887 0.13284 0.21319 0.0
H127 H 0.88557 0.29097 0.21288 0.0
C128 C 0.90635 0.89545 0.18549 0.0
C129 C -0.00263 0.89427 0.18457 0.0
C130 C 0.90648 0.98658 0.18545 0.0
C131 C -0.00245 0.07863 0.18427 0.0
C132 C 0.08857 0.07753 0.18326 0.0
C133 C 0.08852 0.98636 0.18352 0.0
C134 C 0.05848 0.34353 0.16759 0.0
C135 C -0.00388 0.359 0.18377 0.0
C136 C 0.05942 0.25286 0.16785 0.0
C137 C -0.00259 0.17537 0.18414 0.0
C138 C 0.93486 0.19074 0.20025 0.0
C139 C 0.9345 0.28162 0.20015 0.0
H140 H 0.20573 0.98688 0.48696 0.0
H141 H 0.31108 0.19859 0.54689 0.0
H142 H 0.04639 0.98649 0.48709 0.0
H143 H 0.15154 0.19761 0.54703 0.0
H144 H 0.89937 0.25418 0.52009 0.0
H145 H 0.05829 0.25396 0.51999 0.0
H146 H 0.89594 0.92989 0.51424 0.0
H147 H 0.73675 0.92981 0.51422 0.0
C148 C 0.19498 0.03331 0.50016 0.0
C149 C 0.27122 0.09284 0.5169 0.0
C150 C 0.10345 0.03259 0.50032 0.0
C151 C 0.08647 0.09202 0.51707 0.0
C152 C 0.16281 0.15178 0.53375 0.0
C153 C 0.25399 0.15188 0.53374 0.0
C154 C 0.89744 0.18282 0.51878 0.0
C155 C 0.8053 0.092 0.51716 0.0
C156 C 0.98852 0.18273 0.51887 0.0
C157 C 0.98959 0.09192 0.51711 0.0
C158 C 0.89753 0.00112 0.51539 0.0
C159 C 0.80635 0.0011 0.51553 0.0
H160 H 0.6745 0.8701 0.82003 0.0
H161 H 0.77762 0.76498 0.88063 0.0
H162 H 0.83373 0.02944 0.82026 0.0
H163 H 0.93631 0.9243 0.88086 0.0
H164 H 0.24686 0.17603 0.85437 0.0
H165 H 0.08747 0.01723 0.85399 0.0
H166 H 0.92625 0.17973 0.84749 0.0
H167 H 0.08557 0.33877 0.84777 0.0
C168 C 0.73101 0.8809 0.83339 0.0
C169 C 0.71333 0.80476 0.8503 0.0
C170 C 0.82195 0.97238 0.8336 0.0
C171 C 0.89748 0.98929 0.85057 0.0
C172 C 0.87992 0.91305 0.86741 0.0
C173 C 0.78873 0.82199 0.86735 0.0
C174 C 0.17749 0.17801 0.85285 0.0
C175 C 0.17898 0.27013 0.85111 0.0
C176 C 0.08617 0.08701 0.85276 0.0
C177 C 0.99439 0.08605 0.85071 0.0
C178 C -0.00416 0.17809 0.84886 0.0
C179 C 0.08712 0.26917 0.84918 0.0
H180 H 0.33108 0.70988 0.90865 0.0
H181 H 0.44521 0.52394 0.93735 0.0
H182 H 0.31206 0.75543 0.9506 0.0
H183 H 0.4276 0.5703 0.97862 0.0
H184 H 0.49 0.76077 0.04685 0.0
H185 H 0.50927 0.72894 1.00411 0.0
H186 H 0.20681 0.66522 0.98933 0.0
H187 H 0.18571 0.69386 0.03232 0.0
C188 C 0.35213 0.67884 0.92379 0.0
C189 C 0.38987 0.6134 0.91953 0.0
C190 C 0.34104 0.70473 0.94777 0.0
C191 C 0.3692 0.66707 0.96786 0.0
C192 C 0.40663 0.60172 0.96354 0.0
C193 C 0.4162 0.57477 0.93977 0.0
C194 C 0.42711 0.73924 0.03462 0.0
C195 C 0.3359 0.72893 0.04324 0.0
C196 C 0.43848 0.72161 1.01007 0.0
C197 C 0.35938 0.69419 0.9934 0.0
C198 C 0.26938 0.68719 1.00171 0.0
C199 C 0.25753 0.70381 0.02637 0.0
H200 H 0.56622 0.33638 0.4539 0.0
H201 H 0.65032 0.11626 0.43373 0.0
H202 H 0.58323 0.39001 0.41117 0.0
H203 H 0.67089 0.17165 0.39158 0.0
H204 H 0.58908 0.20577 0.31474 0.0
H205 H 0.57186 0.15985 0.35779 0.0
H206 H 0.69485 0.4723 0.37774 0.0
H207 H 0.70867 0.51727 0.33448 0.0
C208 C 0.58996 0.30069 0.44043 0.0
C209 C 0.60609 0.22157 0.44719 0.0
C210 C 0.59988 0.33143 0.41593 0.0
C211 C 0.62706 0.28426 0.39773 0.0
C212 C 0.64698 0.2079 0.40483 0.0
C213 C 0.63599 0.1766 0.42914 0.0
C214 C 0.61242 0.26455 0.32834 0.0
C215 C 0.65052 0.36508 0.32124 0.0
C216 C 0.60313 0.23846 0.35307 0.0
C217 C 0.63311 0.31247 0.37139 0.0
C218 C 0.66999 0.41306 0.36423 0.0
C219 C 0.67817 0.43896 0.33943 0.0
H220 H 0.53238 0.84769 0.71119 0.0
H221 H 0.21333 0.72962 0.70123 0.0
H222 H 0.56205 0.89879 0.66852 0.0
H223 H 0.24382 0.78439 0.6585 0.0
H224 H 0.33711 0.81829 0.57637 0.0
H225 H 0.30094 0.7524 0.61826 0.0
H226 H 0.55532 0.02809 0.64423 0.0
H227 H 0.59212 0.09301 0.60289 0.0
C228 C 0.46835 0.83203 0.69988 0.0
C229 C 0.37042 0.78457 0.70972 0.0
C230 C 0.48555 0.86232 0.67543 0.0
C231 C 0.40539 0.84627 0.66013 0.0
C232 C 0.30711 0.79727 0.66977 0.0
C233 C 0.28984 0.76703 0.69433 0.0
C234 C 0.38549 0.86447 0.59103 0.0
C235 C 0.46784 0.96072 0.58615 0.0
C236 C 0.3644 0.82699 0.61503 0.0
C237 C 0.42569 0.88476 0.63456 0.0
C238 C 0.50762 0.98086 0.6296 0.0
C239 C 0.52835 0.0183 0.60579 0.0
H240 H 0.79724 0.63209 0.98591 0.0
H241 H 0.62106 0.31248 0.99988 0.0
H242 H 0.84534 0.6615 0.02867 0.0
H243 H 0.67331 0.34176 0.04268 0.0
H244 H 0.71799 0.44817 0.12345 0.0
H245 H 0.6566 0.41457 0.08124 0.0
H246 H 0.95297 0.6347 0.05543 0.0
H247 H 0.01314 0.66967 0.09706 0.0
C248 C 0.76837 0.56796 0.99811 0.0
C249 C 0.70528 0.46984 0.98936 0.0
C250 C 0.79697 0.58477 0.02263 0.0
C251 C 0.76387 0.50394 0.03913 0.0
C252 C 0.69966 0.40579 0.03052 0.0
C253 C 0.67081 0.38892 1.00591 0.0
C254 C 0.76971 0.48954 0.10874 0.0
C255 C 0.87023 0.56227 0.11376 0.0
C256 C 0.73473 0.46991 0.08455 0.0
C257 C 0.79961 0.52259 0.06493 0.0
C258 C 0.90019 0.59429 0.07005 0.0
C259 C 0.93487 0.61399 0.09406 0.0
H260 H 0.28164 0.7668 0.24277 0.0
H261 H 0.97771 0.58916 0.27034 0.0
H262 H 0.34578 0.79063 0.28477 0.0
H263 H 0.04165 0.61235 0.31188 0.0
H264 H 0.2 0.58665 0.37984 0.0
H265 H 0.14732 0.56111 0.33721 0.0
H266 H 0.3329 0.87966 0.32367 0.0
H267 H 0.38319 0.90649 0.36652 0.0
C268 C 0.22872 0.73256 0.25772 0.0
C269 C 0.12465 0.67662 0.25322 0.0
C270 C 0.26534 0.74654 0.28172 0.0
C271 C 0.19866 0.70312 0.30157 0.0
C272 C 0.09491 0.64595 0.29696 0.0
C273 C 0.05833 0.63339 0.27313 0.0
C274 C 0.22903 0.65162 0.36792 0.0
C275 C 0.29537 0.74881 0.37684 0.0
C276 C 0.19924 0.63675 0.34343 0.0
C277 C 0.23592 0.71841 0.32713 0.0
C278 C 0.30433 0.81517 0.33576 0.0
C279 C 0.33324 0.83033 0.36035 0.0
H280 H 0.36725 0.43084 0.76678 0.0
H281 H 0.66696 0.50549 0.78893 0.0
H282 H 0.40539 0.40728 0.72496 0.0
H283 H 0.70533 0.48226 0.74663 0.0
H284 H 0.75217 0.5598 0.66178 0.0
H285 H 0.72254 0.572 0.70523 0.0
H286 H 0.44444 0.28828 0.70141 0.0
H287 H 0.47504 0.27384 0.65829 0.0
C288 C 0.44122 0.4416 0.76278 0.0
C289 C 0.51403 0.46983 0.78126 0.0
C290 C 0.46282 0.42763 0.73879 0.0
C291 C 0.55822 0.44272 0.73252 0.0
C292 C 0.63124 0.4705 0.75095 0.0
C293 C 0.60905 0.48308 0.77516 0.0
C294 C 0.6855 0.49907 0.67024 0.0
C295 C 0.61551 0.41631 0.65632 0.0
C296 C 0.66862 0.50623 0.69516 0.0
C297 C 0.58094 0.43138 0.70667 0.0
C298 C 0.51204 0.34782 0.69294 0.0
C299 C 0.52936 0.34004 0.66815 0.0
loop_
_geom_bond_atom_site_label_1
_geom_bond_atom_site_label_2
_geom_bond_distance
_geom_bond_site_symmetry_2
_ccdc_geom_bond_type
Tb0 C9 2.764 . S
Tb0 O10 2.325 . S
Tb0 O13 2.303 . S
Tb0 O17 2.322 . S
Tb0 O18 2.349 . S
Tb0 O21 2.415 . S
Tb0 O22 2.399 . S
Tb1 O11 2.322 . S
Tb1 O12 2.349 . S
Tb1 O14 2.415 . S
Tb1 O15 2.399 . S
Tb1 O16 2.325 1_655 S
Tb1 O19 2.303 1_655 S
Tb1 C30 2.764 . S
C2 O18 1.261 . S
C2 O19 1.257 . S
C3 C6 1.358 . S
C3 C7 1.332 . S
C3 C9 1.504 . S
C4 C5 1.373 . S
C4 C8 1.308 . S
C5 C4 1.373 . S
C5 C6 1.429 . S
C5 H32 0.932 . S
C6 C3 1.358 . S
C6 C5 1.429 . S
C6 H33 0.930 . S
C7 C3 1.332 . S
C7 C8 1.394 . S
C7 H34 0.932 . S
C8 C4 1.308 . S
C8 C7 1.394 . S
C8 H35 0.929 . S
C9 Tb0 2.764 . S
C9 C3 1.504 . S
C9 O21 1.239 . S
C9 O22 1.263 . S
O10 Tb0 2.325 . S
O10 C20 1.236 1_455 S
O11 Tb1 2.322 . S
O11 C20 1.257 . S
O12 Tb1 2.349 . S
O12 C23 1.261 1_655 S
O13 Tb0 2.303 . S
O13 C23 1.257 . S
O14 Tb1 2.415 . S
O14 C30 1.239 . S
O15 Tb1 2.399 . S
O15 C30 1.263 . S
O16 Tb1 2.325 1_455 S
O16 C31 1.236 . S
O17 Tb0 2.322 . S
O17 C31 1.257 . S
O18 Tb0 2.349 . S
O18 C2 1.261 . S
O19 Tb1 2.303 1_455 S
O19 C2 1.257 . S
C20 O10 1.236 1_655 S
C20 O11 1.257 . S
O21 Tb0 2.415 . S
O21 C9 1.239 . S
O22 Tb0 2.399 . S
O22 C9 1.263 . S
C23 O12 1.261 1_455 S
C23 O13 1.257 . S
C24 C27 1.358 . S
C24 C28 1.332 . S
C24 C30 1.504 . S
C25 C26 1.373 . S
C25 C29 1.308 . S
C26 C25 1.373 . S
C26 C27 1.429 . S
C26 H36 0.932 . S
C27 C24 1.358 . S
C27 C26 1.429 . S
C27 H37 0.930 . S
C28 C24 1.332 . S
C28 C29 1.394 . S
C28 H38 0.932 . S
C29 C25 1.308 . S
C29 C28 1.394 . S
C29 H39 0.929 . S
C30 Tb1 2.764 . S
C30 O14 1.239 . S
C30 O15 1.263 . S
C30 C24 1.504 . S
C31 O16 1.236 . S
C31 O17 1.257 . S
H32 C5 0.932 . S
H33 C6 0.930 . S
H34 C7 0.932 . S
H35 C8 0.929 . S
H36 C26 0.932 . S
H37 C27 0.930 . S
H38 C28 0.932 . S
H39 C29 0.929 . S
Tb40 C49 2.764 . S
Tb40 O50 2.325 1_565 S
Tb40 O53 2.303 . S
Tb40 O57 2.322 . S
Tb40 O58 2.349 . S
Tb40 O61 2.415 . S
Tb40 O62 2.399 . S
Tb41 O51 2.322 . S
Tb41 O52 2.349 . S
Tb41 O54 2.415 . S
Tb41 O55 2.399 . S
Tb41 O56 2.325 1_545 S
Tb41 O59 2.303 . S
Tb41 C70 2.764 . S
C42 O58 1.261 . S
C42 O59 1.257 1_565 S
C43 C46 1.358 . S
C43 C47 1.332 . S
C43 C49 1.504 . S
C44 C45 1.373 . S
C44 C48 1.308 . S
C45 C44 1.373 . S
C45 C46 1.429 . S
C45 H72 0.932 . S
C46 C43 1.358 . S
C46 C45 1.429 . S
C46 H73 0.930 . S
C47 C43 1.332 . S
C47 C48 1.394 . S
C47 H74 0.932 . S
C48 C44 1.308 . S
C48 C47 1.394 . S
C48 H75 0.929 . S
C49 Tb40 2.764 . S
C49 C43 1.504 . S
C49 O61 1.239 . S
C49 O62 1.263 . S
O50 Tb40 2.325 1_545 S
O50 C60 1.236 . S
O51 Tb41 2.322 . S
O51 C60 1.257 . S
O52 Tb41 2.349 . S
O52 C63 1.261 . S
O53 Tb40 2.303 . S
O53 C63 1.257 1_565 S
O54 Tb41 2.415 . S
O54 C70 1.239 . S
O55 Tb41 2.399 . S
O55 C70 1.263 . S
O56 Tb41 2.325 1_565 S
O56 C71 1.236 . S
O57 Tb40 2.322 . S
O57 C71 1.257 . S
O58 Tb40 2.349 . S
O58 C42 1.261 . S
O59 Tb41 2.303 . S
O59 C42 1.257 1_545 S
C60 O50 1.236 . S
C60 O51 1.257 . S
O61 Tb40 2.415 . S
O61 C49 1.239 . S
O62 Tb40 2.399 . S
O62 C49 1.263 . S
C63 O52 1.261 . S
C63 O53 1.257 1_545 S
C64 C67 1.358 . S
C64 C68 1.332 . S
C64 C70 1.504 . S
C65 C66 1.373 . S
C65 C69 1.308 . S
C66 C65 1.373 . S
C66 C67 1.429 . S
C66 H76 0.932 . S
C67 C64 1.358 . S
C67 C66 1.429 . S
C67 H77 0.930 . S
C68 C64 1.332 . S
C68 C69 1.394 . S
C68 H78 0.932 . S
C69 C65 1.308 . S
C69 C68 1.394 . S
C69 H79 0.929 . S
C70 Tb41 2.764 . S
C70 O54 1.239 . S
C70 O55 1.263 . S
C70 C64 1.504 . S
C71 O56 1.236 . S
C71 O57 1.257 . S
H72 C45 0.932 . S
H73 C46 0.930 . S
H74 C47 0.932 . S
H75 C48 0.929 . S
H76 C66 0.932 . S
H77 C67 0.930 . S
H78 C68 0.932 . S
H79 C69 0.929 . S
Tb80 C89 2.764 . S
Tb80 O90 2.325 . S
Tb80 O93 2.303 . S
Tb80 O97 2.322 . S
Tb80 O98 2.349 . S
Tb80 O101 2.415 . S
Tb80 O102 2.399 . S
Tb81 O91 2.322 . S
Tb81 O92 2.349 . S
Tb81 O94 2.415 . S
Tb81 O95 2.399 . S
Tb81 O96 2.325 . S
Tb81 O99 2.303 . S
Tb81 C110 2.764 . S
C82 O98 1.261 . S
C82 O99 1.257 . S
C83 C86 1.358 . S
C83 C87 1.332 . S
C83 C89 1.504 . S
C84 C85 1.373 . S
C84 C88 1.308 . S
C85 C84 1.373 . S
C85 C86 1.429 . S
C85 H112 0.932 . S
C86 C83 1.358 . S
C86 C85 1.429 . S
C86 H113 0.930 . S
C87 C83 1.332 . S
C87 C88 1.394 . S
C87 H114 0.932 . S
C88 C84 1.308 . S
C88 C87 1.394 . S
C88 H115 0.929 . S
C89 Tb80 2.764 . S
C89 C83 1.504 . S
C89 O101 1.239 . S
C89 O102 1.263 . S
O90 Tb80 2.325 . S
O90 C100 1.236 . S
O91 Tb81 2.322 . S
O91 C100 1.257 . S
O92 Tb81 2.349 . S
O92 C103 1.261 . S
O93 Tb80 2.303 . S
O93 C103 1.257 . S
O94 Tb81 2.415 . S
O94 C110 1.239 . S
O95 Tb81 2.399 . S
O95 C110 1.263 . S
O96 Tb81 2.325 . S
O96 C111 1.236 . S
O97 Tb80 2.322 . S
O97 C111 1.257 . S
O98 Tb80 2.349 . S
O98 C82 1.261 . S
O99 Tb81 2.303 . S
O99 C82 1.257 . S
C100 O90 1.236 . S
C100 O91 1.257 . S
O101 Tb80 2.415 . S
O101 C89 1.239 . S
O102 Tb80 2.399 . S
O102 C89 1.263 . S
C103 O92 1.261 . S
C103 O93 1.257 . S
C104 C107 1.358 . S
C104 C108 1.332 . S
C104 C110 1.504 . S
C105 C106 1.373 . S
C105 C109 1.308 . S
C106 C105 1.373 . S
C106 C107 1.429 . S
C106 H116 0.932 . S
C107 C104 1.358 . S
C107 C106 1.429 . S
C107 H117 0.930 . S
C108 C104 1.332 . S
C108 C109 1.394 . S
C108 H118 0.932 . S
C109 C105 1.308 . S
C109 C108 1.394 . S
C109 H119 0.929 . S
C110 Tb81 2.764 . S
C110 O94 1.239 . S
C110 O95 1.263 . S
C110 C104 1.504 . S
C111 O96 1.236 . S
C111 O97 1.257 . S
H112 C85 0.932 . S
H113 C86 0.930 . S
H114 C87 0.932 . S
H115 C88 0.929 . S
H116 C106 0.932 . S
H117 C107 0.930 . S
H118 C108 0.932 . S
H119 C109 0.929 . S
H120 C128 0.950 1_655 S
H121 C133 0.950 . S
H122 C130 0.950 1_655 S
H123 C132 0.950 . S
H124 C134 0.950 . S
H125 C136 0.950 . S
H126 C138 0.950 1_655 S
H127 C139 0.950 1_655 S
C128 H120 0.950 1_455 S
C128 C129 1.386 . S
C128 C130 1.391 1_565 S
C129 C128 1.386 . S
C129 C133 1.393 . S
C130 H122 0.950 1_455 S
C130 C128 1.391 1_545 S
C130 C131 1.400 . S
C131 C130 1.400 . S
C131 C132 1.398 . S
C131 C137 1.491 . S
C132 H123 0.950 . S
C132 C131 1.398 . S
C132 C133 1.391 1_545 S
C133 H121 0.950 . S
C133 C129 1.393 . S
C133 C132 1.391 1_565 S
C134 H124 0.950 . S
C134 C135 1.386 . S
C134 C136 1.391 . S
C135 C134 1.386 . S
C135 C139 1.393 . S
C136 H125 0.950 . S
C136 C134 1.391 . S
C136 C137 1.400 . S
C137 C131 1.491 . S
C137 C136 1.400 . S
C137 C138 1.398 . S
C138 H126 0.950 1_455 S
C138 C137 1.398 . S
C138 C139 1.391 . S
C139 H127 0.950 1_455 S
C139 C135 1.393 . S
C139 C138 1.391 . S
H140 C148 0.950 . S
H141 C153 0.950 . S
H142 C150 0.950 1_655 S
H143 C152 0.950 . S
H144 C154 0.950 . S
H145 C156 0.950 . S
H146 C158 0.950 . S
H147 C159 0.950 . S
C148 H140 0.950 . S
C148 C149 1.386 1_565 S
C148 C150 1.391 . S
C149 C148 1.386 1_545 S
C149 C153 1.393 . S
C150 H142 0.950 1_455 S
C150 C148 1.391 . S
C150 C151 1.400 1_565 S
C151 C150 1.400 1_545 S
C151 C152 1.398 . S
C151 C157 1.491 1_445 S
C152 H143 0.950 . S
C152 C151 1.398 . S
C152 C153 1.391 . S
C153 H141 0.950 . S
C153 C149 1.393 . S
C153 C152 1.391 . S
C154 H144 0.950 . S
C154 C155 1.386 1_545 S
C154 C156 1.391 . S
C155 C154 1.386 1_565 S
C155 C159 1.393 . S
C156 H145 0.950 . S
C156 C154 1.391 . S
C156 C157 1.400 1_545 S
C157 C151 1.491 1_665 S
C157 C156 1.400 1_565 S
C157 C158 1.398 . S
C158 H146 0.950 . S
C158 C157 1.398 . S
C158 C159 1.391 . S
C159 H147 0.950 . S
C159 C155 1.393 . S
C159 C158 1.391 . S
H160 C168 0.950 . S
H161 C173 0.950 . S
H162 C170 0.950 . S
H163 C172 0.950 . S
H164 C174 0.950 . S
H165 C176 0.950 . S
H166 C178 0.950 1_655 S
H167 C179 0.950 . S
C168 H160 0.950 . S
C168 C169 1.386 . S
C168 C170 1.391 1_565 S
C169 C168 1.386 . S
C169 C173 1.393 . S
C170 H162 0.950 . S
C170 C168 1.391 1_545 S
C170 C171 1.400 . S
C171 C170 1.400 . S
C171 C172 1.398 . S
C171 C177 1.491 1_655 S
C172 H163 0.950 . S
C172 C171 1.398 . S
C172 C173 1.391 1_545 S
C173 H161 0.950 . S
C173 C169 1.393 . S
C173 C172 1.391 1_565 S
C174 H164 0.950 . S
C174 C175 1.386 . S
C174 C176 1.391 . S
C175 C174 1.386 . S
C175 C179 1.393 . S
C176 H165 0.950 . S
C176 C174 1.391 . S
C176 C177 1.400 . S
C177 C171 1.491 1_455 S
C177 C176 1.400 . S
C177 C178 1.398 . S
C178 H166 0.950 1_455 S
C178 C177 1.398 . S
C178 C179 1.391 . S
C179 H167 0.950 . S
C179 C175 1.393 . S
C179 C178 1.391 . S
H180 C188 0.950 . S
H181 C193 0.950 . S
H182 C190 0.950 . S
H183 C192 0.950 . S
H184 C194 0.950 . S
H185 C196 0.950 . S
H186 C198 0.950 . S
H187 C199 0.950 1_554 S
C188 H180 0.950 . S
C188 C189 1.386 . S
C188 C190 1.391 . S
C189 C188 1.386 . S
C189 C193 1.393 . S
C190 H182 0.950 . S
C190 C188 1.391 . S
C190 C191 1.400 . S
C191 C190 1.400 . S
C191 C192 1.398 . S
C191 C197 1.491 . S
C192 H183 0.950 . S
C192 C191 1.398 . S
C192 C193 1.391 . S
C193 H181 0.950 . S
C193 C189 1.393 . S
C193 C192 1.391 . S
C194 H184 0.950 . S
C194 C195 1.386 . S
C194 C196 1.391 1_554 S
C195 C194 1.386 . S
C195 C199 1.393 1_554 S
C196 H185 0.950 . S
C196 C194 1.391 1_556 S
C196 C197 1.400 . S
C197 C191 1.491 . S
C197 C196 1.400 . S
C197 C198 1.398 . S
C198 H186 0.950 . S
C198 C197 1.398 . S
C198 C199 1.391 . S
C199 H187 0.950 1_556 S
C199 C195 1.393 1_556 S
C199 C198 1.391 . S
H200 C208 0.950 . S
H201 C213 0.950 . S
H202 C210 0.950 . S
H203 C212 0.950 . S
H204 C214 0.950 . S
H205 C216 0.950 . S
H206 C218 0.950 . S
H207 C219 0.950 . S
C208 H200 0.950 . S
C208 C209 1.386 . S
C208 C210 1.391 . S
C209 C208 1.386 . S
C209 C213 1.393 . S
C210 H202 0.950 . S
C210 C208 1.391 . S
C210 C211 1.400 . S
C211 C210 1.400 . S
C211 C212 1.398 . S
C211 C217 1.491 . S
C212 H203 0.950 . S
C212 C211 1.398 . S
C212 C213 1.391 . S
C213 H201 0.950 . S
C213 C209 1.393 . S
C213 C212 1.391 . S
C214 H204 0.950 . S
C214 C215 1.386 . S
C214 C216 1.391 . S
C215 C214 1.386 . S
C215 C219 1.393 . S
C216 H205 0.950 . S
C216 C214 1.391 . S
C216 C217 1.400 . S
C217 C211 1.491 . S
C217 C216 1.400 . S
C217 C218 1.398 . S
C218 H206 0.950 . S
C218 C217 1.398 . S
C218 C219 1.391 . S
C219 H207 0.950 . S
C219 C215 1.393 . S
C219 C218 1.391 . S
H220 C228 0.950 . S
H221 C233 0.950 . S
H222 C230 0.950 . S
H223 C232 0.950 . S
H224 C234 0.950 . S
H225 C236 0.950 . S
H226 C238 0.950 . S
H227 C239 0.950 . S
C228 H220 0.950 . S
C228 C229 1.386 . S
C228 C230 1.391 . S
C229 C228 1.386 . S
C229 C233 1.393 . S
C230 H222 0.950 . S
C230 C228 1.391 . S
C230 C231 1.400 . S
C231 C230 1.400 . S
C231 C232 1.398 . S
C231 C237 1.491 . S
C232 H223 0.950 . S
C232 C231 1.398 . S
C232 C233 1.391 . S
C233 H221 0.950 . S
C233 C229 1.393 . S
C233 C232 1.391 . S
C234 H224 0.950 . S
C234 C235 1.386 . S
C234 C236 1.391 . S
C235 C234 1.386 . S
C235 C239 1.393 . S
C236 H225 0.950 . S
C236 C234 1.391 . S
C236 C237 1.400 . S
C237 C231 1.491 . S
C237 C236 1.400 . S
C237 C238 1.398 . S
C238 H226 0.950 . S
C238 C237 1.398 . S
C238 C239 1.391 . S
C239 H227 0.950 . S
C239 C235 1.393 . S
C239 C238 1.391 . S
H240 C248 0.950 . S
H241 C253 0.950 . S
H242 C250 0.950 . S
H243 C252 0.950 . S
H244 C254 0.950 . S
H245 C256 0.950 . S
H246 C258 0.950 . S
H247 C259 0.950 1_455 S
C248 H240 0.950 . S
C248 C249 1.386 . S
C248 C250 1.391 1_556 S
C249 C248 1.386 . S
C249 C253 1.393 1_556 S
C250 H242 0.950 . S
C250 C248 1.391 1_554 S
C250 C251 1.400 . S
C251 C250 1.400 . S
C251 C252 1.398 . S
C251 C257 1.491 . S
C252 H243 0.950 . S
C252 C251 1.398 . S
C252 C253 1.391 . S
C253 H241 0.950 . S
C253 C249 1.393 1_554 S
C253 C252 1.391 . S
C254 H244 0.950 . S
C254 C255 1.386 . S
C254 C256 1.391 . S
C255 C254 1.386 . S
C255 C259 1.393 . S
C256 H245 0.950 . S
C256 C254 1.391 . S
C256 C257 1.400 . S
C257 C251 1.491 . S
C257 C256 1.400 . S
C257 C258 1.398 . S
C258 H246 0.950 . S
C258 C257 1.398 . S
C258 C259 1.391 . S
C259 H247 0.950 1_655 S
C259 C255 1.393 . S
C259 C258 1.391 . S
H260 C268 0.950 . S
H261 C273 0.950 . S
H262 C270 0.950 . S
H263 C272 0.950 . S
H264 C274 0.950 . S
H265 C276 0.950 . S
H266 C278 0.950 . S
H267 C279 0.950 . S
C268 H260 0.950 . S
C268 C269 1.386 . S
C268 C270 1.391 . S
C269 C268 1.386 . S
C269 C273 1.393 . S
C270 H262 0.950 . S
C270 C268 1.391 . S
C270 C271 1.400 . S
C271 C270 1.400 . S
C271 C272 1.398 . S
C271 C277 1.491 . S
C272 H263 0.950 . S
C272 C271 1.398 . S
C272 C273 1.391 . S
C273 H261 0.950 . S
C273 C269 1.393 . S
C273 C272 1.391 . S
C274 H264 0.950 . S
C274 C275 1.386 . S
C274 C276 1.391 . S
C275 C274 1.386 . S
C275 C279 1.393 . S
C276 H265 0.950 . S
C276 C274 1.391 . S
C276 C277 1.400 . S
C277 C271 1.491 . S
C277 C276 1.400 . S
C277 C278 1.398 . S
C278 H266 0.950 . S
C278 C277 1.398 . S
C278 C279 1.391 . S
C279 H267 0.950 . S
C279 C275 1.393 . S
C279 C278 1.391 . S
H280 C288 0.950 . S
H281 C293 0.950 . S
H282 C290 0.950 . S
H283 C292 0.950 . S
H284 C294 0.950 . S
H285 C296 0.950 . S
H286 C298 0.950 . S
H287 C299 0.950 . S
C288 H280 0.950 . S
C288 C289 1.386 . S
C288 C290 1.391 . S
C289 C288 1.386 . S
C289 C293 1.393 . S
C290 H282 0.950 . S
C290 C288 1.391 . S
C290 C291 1.400 . S
C291 C290 1.400 . S
C291 C292 1.398 . S
C291 C297 1.491 . S
C292 H283 0.950 . S
C292 C291 1.398 . S
C292 C293 1.391 . S
C293 H281 0.950 . S
C293 C289 1.393 . S
C293 C292 1.391 . S
C294 H284 0.950 . S
C294 C295 1.386 . S
C294 C296 1.391 . S
C295 C294 1.386 . S
C295 C299 1.393 . S
C296 H285 0.950 . S
C296 C294 1.391 . S
C296 C297 1.400 . S
C297 C291 1.491 . S
C297 C296 1.400 . S
C297 C298 1.398 . S
C298 H286 0.950 . S
C298 C297 1.398 . S
C298 C299 1.391 . S
C299 H287 0.950 . S
C299 C295 1.393 . S
C299 C298 1.391 . S
C129 C23 1.508 . S
C135 C2 1.508 . S
C149 C42 1.521 1_545 S
C155 C63 1.521 1_565 S
C169 C82 1.508 . S
C175 C103 1.508 . S
C189 C111 1.207 . S
C195 C4 1.170 . S
C209 C60 1.471 . S
C215 C25 1.456 . S
C229 C84 1.161 . S
C235 C71 1.200 . S
C249 C105 1.441 . S
C255 C20 1.466 . S
C269 C31 1.208 . S
C275 C44 1.170 . S
C289 C100 1.466 . S
C295 C65 1.445 . S
