# Generated by pormake.
# Topology umc, (4)-cn, num edge types: 1
# Building blocks:
#     Node 0, Type 0, BuildingBlock: QUQFOY_clean_sbu_3, # of connection points: 4
#     Node 1, Type 0, BuildingBlock: QUQFOY_clean_sbu_3, # of connection points: 4
#     Node 2, Type 0, BuildingBlock: QUQFOY_clean_sbu_3, # of connection points: 4
#     Node 3, Type 0, BuildingBlock: QUQFOY_clean_sbu_3, # of connection points: 4
#     Node 4, Type 0, BuildingBlock: QUQFOY_clean_sbu_3, # of connection points: 4
#     Node 5, Type 0, BuildingBlock: QUQFOY_clean_sbu_3, # of connection points: 4
#     Node 6, Type 0, BuildingBlock: QUQFOY_clean_sbu_3, # of connection points: 4
#     Node 7, Type 0, BuildingBlock: QUQFOY_clean_sbu_3, # of connection points: 4
#     Node 8, Type 0, BuildingBlock: QUQFOY_clean_sbu_3, # of connection points: 4
#     Node 9, Type 0, BuildingBlock: QUQFOY_clean_sbu_3, # of connection points: 4
#     Node 10, Type 0, BuildingBlock: QUQFOY_clean_sbu_3, # of connection points: 4
#     Node 11, Type 0, BuildingBlock: QUQFOY_clean_sbu_3, # of connection points: 4
#     Node 12, Type 0, BuildingBlock: QUQFOY_clean_sbu_3, # of connection points: 4
#     Node 13, Type 0, BuildingBlock: QUQFOY_clean_sbu_3, # of connection points: 4
#     Node 14, Type 0, BuildingBlock: QUQFOY_clean_sbu_3, # of connection points: 4
#     Node 15, Type 0, BuildingBlock: QUQFOY_clean_sbu_3, # of connection points: 4
#     Edge 16, Type (0, 0), BuildingBlock: EZIPEK_clean_linker_0, # of connection points: 2
#     Edge 17, Type (0, 0), BuildingBlock: EZIPEK_clean_linker_0, # of connection points: 2
#     Edge 18, Type (0, 0), BuildingBlock: EZIPEK_clean_linker_0, # of connection points: 2
#     Edge 19, Type (0, 0), BuildingBlock: EZIPEK_clean_linker_0, # of connection points: 2
#     Edge 20, Type (0, 0), BuildingBlock: EZIPEK_clean_linker_0, # of connection points: 2
#     Edge 21, Type (0, 0), BuildingBlock: EZIPEK_clean_linker_0, # of connection points: 2
#     Edge 22, Type (0, 0), BuildingBlock: EZIPEK_clean_linker_0, # of connection points: 2
#     Edge 23, Type (0, 0), BuildingBlock: EZIPEK_clean_linker_0, # of connection points: 2
#     Edge 24, Type (0, 0), BuildingBlock: EZIPEK_clean_linker_0, # of connection points: 2
#     Edge 25, Type (0, 0), BuildingBlock: EZIPEK_clean_linker_0, # of connection points: 2
#     Edge 26, Type (0, 0), BuildingBlock: EZIPEK_clean_linker_0, # of connection points: 2
#     Edge 27, Type (0, 0), BuildingBlock: EZIPEK_clean_linker_0, # of connection points: 2
#     Edge 28, Type (0, 0), BuildingBlock: EZIPEK_clean_linker_0, # of connection points: 2
#     Edge 29, Type (0, 0), BuildingBlock: EZIPEK_clean_linker_0, # of connection points: 2
#     Edge 30, Type (0, 0), BuildingBlock: EZIPEK_clean_linker_0, # of connection points: 2
#     Edge 31, Type (0, 0), BuildingBlock: EZIPEK_clean_linker_0, # of connection points: 2
#     Edge 32, Type (0, 0), BuildingBlock: EZIPEK_clean_linker_0, # of connection points: 2
#     Edge 33, Type (0, 0), BuildingBlock: EZIPEK_clean_linker_0, # of connection points: 2
#     Edge 34, Type (0, 0), BuildingBlock: EZIPEK_clean_linker_0, # of connection points: 2
#     Edge 35, Type (0, 0), BuildingBlock: EZIPEK_clean_linker_0, # of connection points: 2
#     Edge 36, Type (0, 0), BuildingBlock: EZIPEK_clean_linker_0, # of connection points: 2
#     Edge 37, Type (0, 0), BuildingBlock: EZIPEK_clean_linker_0, # of connection points: 2
#     Edge 38, Type (0, 0), BuildingBlock: EZIPEK_clean_linker_0, # of connection points: 2
#     Edge 39, Type (0, 0), BuildingBlock: EZIPEK_clean_linker_0, # of connection points: 2
#     Edge 40, Type (0, 0), BuildingBlock: EZIPEK_clean_linker_0, # of connection points: 2
#     Edge 41, Type (0, 0), BuildingBlock: EZIPEK_clean_linker_0, # of connection points: 2
#     Edge 42, Type (0, 0), BuildingBlock: EZIPEK_clean_linker_0, # of connection points: 2
#     Edge 43, Type (0, 0), BuildingBlock: EZIPEK_clean_linker_0, # of connection points: 2
#     Edge 44, Type (0, 0), BuildingBlock: EZIPEK_clean_linker_0, # of connection points: 2
#     Edge 45, Type (0, 0), BuildingBlock: EZIPEK_clean_linker_0, # of connection points: 2
#     Edge 46, Type (0, 0), BuildingBlock: EZIPEK_clean_linker_0, # of connection points: 2
#     Edge 47, Type (0, 0), BuildingBlock: EZIPEK_clean_linker_0, # of connection points: 2
# Relax obj value: 0.084
# Max RMSD: 0.168
# Mean RMSD: 0.168
data_MOF--net-umc--node1-QUQFOY_clean_sbu_3--edge1-EZIPEK_clean_linker_0
_symmetry_space_group_name_H-M    P1
_symmetry_Int_Tables_number       1
_symmetry_cell_setting            triclinic
loop_
_symmetry_equiv_pos_as_xyz
'x, y, z'
_cell_length_a     33.789515
_cell_length_b     26.232443
_cell_length_c     43.345081
_cell_angle_alpha  90.042317
_cell_angle_beta   90.043601
_cell_angle_gamma 90.239559
loop_
_atom_site_label
_atom_site_type_symbol
_atom_site_fract_x
_atom_site_fract_y
_atom_site_fract_z
_atom_type_partial_charge
C0 C 0.30499 0.97114 0.28885 0.0
O1 O 0.30665 0.929 0.30312 0.0
Cd2 Cd 0.3214 0.92586 0.35736 0.0
O3 O 0.30839 0.01325 0.30304 0.0
Cd4 Cd 0.31617 0.04511 0.35556 0.0
C5 C 0.40799 -0.00549 0.35634 0.0
O6 O 0.2791 0.98189 0.38616 0.0
O7 O 0.32094 0.03139 0.40984 0.0
O8 O 0.26189 0.10363 0.3459 0.0
C9 C 0.29353 -0.00159 0.41133 0.0
O10 O 0.39084 0.9518 0.36071 0.0
C11 C 0.28104 0.14359 0.35314 0.0
O12 O 0.3882 0.03513 0.35185 0.0
O13 O 0.31701 0.13824 0.36108 0.0
C14 C 0.68057 -0.00263 0.28346 0.0
O15 O 0.68168 0.04206 0.29461 0.0
Cd16 Cd 0.66816 0.05577 0.34854 0.0
O17 O 0.6756 0.95884 0.30071 0.0
Cd18 Cd 0.66934 0.93841 0.35524 0.0
C19 C 0.57921 0.99313 0.35398 0.0
O20 O 0.71037 0.00434 0.38053 0.0
O21 O 0.66772 0.96231 0.40822 0.0
O22 O 0.72164 0.87718 0.34623 0.0
C23 C 0.69666 0.99305 0.40695 0.0
O24 O 0.59791 0.03534 0.35504 0.0
C25 C 0.70333 0.83935 0.35761 0.0
O26 O 0.59749 0.95083 0.35203 0.0
O27 O 0.66852 0.84689 0.36772 0.0
C28 C 0.30685 0.99413 0.15698 0.0
O29 O 0.30997 0.03887 0.14614 0.0
Cd30 Cd 0.32198 0.05351 0.09221 0.0
O31 O 0.30791 0.95538 0.13944 0.0
Cd32 Cd 0.31395 0.93519 0.08467 0.0
C33 C 0.407 0.98388 0.08552 0.0
O34 O 0.27607 0.00538 0.06116 0.0
O35 O 0.31446 0.96038 0.03174 0.0
O36 O 0.25974 0.87561 0.09306 0.0
C37 C 0.28793 0.99409 0.03424 0.0
O38 O 0.39063 0.02748 0.08484 0.0
C39 C 0.27711 0.83725 0.0816 0.0
O40 O 0.38651 0.94307 0.08746 0.0
O41 O 0.3121 0.84385 0.07156 0.0
C42 C 0.68092 0.96913 0.15189 0.0
O43 O 0.68187 0.92628 0.13833 0.0
Cd44 Cd 0.66672 0.91977 0.08422 0.0
O45 O 0.67564 0.01008 0.13691 0.0
Cd46 Cd 0.66848 0.03904 0.08386 0.0
C47 C 0.57817 0.98356 0.08355 0.0
O48 O 0.70844 0.97649 0.05519 0.0
O49 O 0.6662 0.02238 0.02977 0.0
O50 O 0.72028 0.10076 0.09549 0.0
C51 C 0.69457 0.99098 0.02944 0.0
O52 O 0.59643 0.94157 0.08008 0.0
C53 C 0.7012 0.13921 0.086 0.0
O54 O 0.59685 0.02541 0.08741 0.0
O55 O 0.66639 0.13165 0.07578 0.0
C56 C 0.68478 0.0169 0.65212 0.0
O57 O 0.68442 0.05967 0.63849 0.0
Cd58 Cd 0.67039 0.06517 0.58428 0.0
O59 O 0.68094 0.97555 0.63718 0.0
Cd60 Cd 0.67455 0.94641 0.58397 0.0
C61 C 0.58311 -0.00201 0.58393 0.0
O62 O 0.71353 0.01039 0.55534 0.0
O63 O 0.67201 0.96296 0.52985 0.0
O64 O 0.72737 0.88658 0.59525 0.0
C65 C 0.69991 -0.00467 0.52958 0.0
O66 O 0.60058 0.04066 0.58031 0.0
C67 C 0.70884 0.84746 0.58575 0.0
O68 O 0.6026 0.95693 0.58764 0.0
O69 O 0.67383 0.85379 0.57574 0.0
C70 C 0.30798 0.97646 0.65804 0.0
O71 O 0.30942 0.93388 0.64419 0.0
Cd72 Cd 0.32511 0.92929 0.59009 0.0
O73 O 0.31198 0.01807 0.64343 0.0
Cd74 Cd 0.3202 0.04863 0.59066 0.0
C75 C 0.412 -0.00213 0.58889 0.0
O76 O 0.28225 0.98451 0.56127 0.0
O77 O 0.32261 0.03415 0.53634 0.0
O78 O 0.26624 0.10701 0.60145 0.0
C79 C 0.29552 0.00068 0.53567 0.0
O80 O 0.39463 0.95502 0.58571 0.0
C81 C 0.28477 0.14682 0.59319 0.0
O82 O 0.39248 0.03878 0.59312 0.0
O83 O 0.32027 0.14161 0.58407 0.0
C84 C 0.67671 0.99221 0.78396 0.0
O85 O 0.67266 0.9477 0.79498 0.0
Cd86 Cd 0.66151 0.93352 0.84934 0.0
O87 O 0.67567 0.03109 0.80134 0.0
Cd88 Cd 0.66641 0.05167 0.85554 0.0
C89 C 0.57462 -0.00239 0.85649 0.0
O90 O 0.70577 0.98421 0.88052 0.0
O91 O 0.66617 0.02958 0.90879 0.0
O92 O 0.71953 0.11271 0.84705 0.0
C93 C 0.69335 -0.00339 0.90712 0.0
O94 O 0.59229 0.95496 0.85821 0.0
C95 C 0.70104 0.151 0.85743 0.0
O96 O 0.59386 0.03915 0.85283 0.0
O97 O 0.66587 0.14375 0.86695 0.0
C98 C 0.30371 0.00522 0.78961 0.0
O99 O 0.3063 0.05002 0.80049 0.0
Cd100 Cd 0.31743 0.06402 0.85485 0.0
O101 O 0.30475 0.96668 0.80722 0.0
Cd102 Cd 0.31089 0.94642 0.8616 0.0
C103 C 0.40341 -0.00316 0.86034 0.0
O104 O 0.27324 0.01498 0.88703 0.0
O105 O 0.31387 0.96967 0.91451 0.0
O106 O 0.25573 0.88836 0.85356 0.0
C107 C 0.2866 0.00261 0.91338 0.0
O108 O 0.3865 0.04004 0.86178 0.0
C109 C 0.27331 0.84905 0.86353 0.0
O110 O 0.38341 0.95565 0.85802 0.0
O111 O 0.30883 0.85452 0.87274 0.0
C112 C 0.80456 0.48132 0.28971 0.0
O113 O 0.80457 0.43742 0.30196 0.0
Cd114 Cd 0.8203 0.42809 0.35587 0.0
O115 O 0.80951 0.52112 0.30592 0.0
Cd116 Cd 0.81739 0.54598 0.35965 0.0
C117 C 0.90834 0.49359 0.35752 0.0
O118 O 0.77869 0.48081 0.38759 0.0
O119 O 0.82168 0.52602 0.41314 0.0
O120 O 0.76367 0.60506 0.35028 0.0
C121 C 0.79337 0.49423 0.41334 0.0
O122 O 0.89041 0.45102 0.36009 0.0
C123 C 0.78192 0.64427 0.35995 0.0
O124 O 0.88928 0.53523 0.35497 0.0
O125 O 0.81726 0.63841 0.36938 0.0
C126 C 0.18082 0.5099 0.28731 0.0
O127 O 0.18291 0.55214 0.3015 0.0
Cd128 Cd 0.16837 0.55619 0.35588 0.0
O129 O 0.17543 0.46849 0.30186 0.0
Cd130 Cd 0.16985 0.43858 0.35504 0.0
C131 C 0.07961 0.49243 0.35654 0.0
O132 O 0.2094 0.49977 0.38565 0.0
O133 O 0.1658 0.45288 0.40932 0.0
O134 O 0.22283 0.37873 0.34442 0.0
C135 C 0.19456 0.48388 0.41083 0.0
O136 O 0.09805 0.53446 0.36013 0.0
C137 C 0.2035 0.33945 0.35254 0.0
O138 O 0.09816 0.4508 0.35226 0.0
O139 O 0.16799 0.34565 0.36139 0.0
C140 C 0.79989 0.50495 0.15779 0.0
O141 O 0.79894 0.5482 0.14474 0.0
Cd142 Cd 0.81213 0.55644 0.09058 0.0
O143 O 0.80413 0.46433 0.14223 0.0
Cd144 Cd 0.80877 0.43788 0.08839 0.0
C145 C 0.89979 0.49121 0.08666 0.0
O146 O 0.76805 0.50225 0.06188 0.0
O147 O 0.80876 0.45707 0.03454 0.0
O148 O 0.7569 0.37595 0.09944 0.0
C149 C 0.78062 0.48875 0.03555 0.0
O150 O 0.88196 0.53371 0.0843 0.0
C151 C 0.77549 0.33796 0.08871 0.0
O152 O 0.88069 0.44966 0.09031 0.0
O153 O 0.81011 0.34586 0.07826 0.0
C154 C 0.17426 0.48501 0.15539 0.0
O155 O 0.17384 0.44013 0.14449 0.0
Cd156 Cd 0.15863 0.42638 0.09083 0.0
O157 O 0.16986 0.52338 0.13791 0.0
Cd158 Cd 0.16259 0.54256 0.08291 0.0
C159 C 0.07107 0.49114 0.08558 0.0
O160 O 0.20252 0.47516 0.05837 0.0
O161 O 0.16112 0.51693 0.02971 0.0
O162 O 0.21566 0.60351 0.09182 0.0
C163 C 0.18961 0.48585 0.03163 0.0
O164 O 0.08865 0.44833 0.08488 0.0
C165 C 0.19789 0.64147 0.0803 0.0
O166 O 0.0905 0.53283 0.08681 0.0
O167 O 0.16316 0.63407 0.06987 0.0
C168 C 0.18599 0.51192 0.66032 0.0
O169 O 0.18803 0.55393 0.64592 0.0
Cd170 Cd 0.17177 0.55738 0.59174 0.0
O171 O 0.1797 0.47049 0.64596 0.0
Cd172 Cd 0.17217 0.44093 0.59267 0.0
C173 C 0.08218 0.49537 0.59157 0.0
O174 O 0.21174 0.50099 0.56122 0.0
O175 O 0.16651 0.45539 0.53844 0.0
O176 O 0.22538 0.38117 0.60246 0.0
C177 C 0.1958 0.48545 0.53635 0.0
O178 O 0.10113 0.53691 0.58754 0.0
C179 C 0.20599 0.34177 0.59457 0.0
O180 O 0.10031 0.45354 0.59623 0.0
O181 O 0.1702 0.34789 0.58631 0.0
C182 C 0.80585 0.48707 0.65956 0.0
O183 O 0.80577 0.44304 0.64746 0.0
Cd184 Cd 0.82289 0.4336 0.59389 0.0
O185 O 0.81154 0.52668 0.6433 0.0
Cd186 Cd 0.81934 0.55169 0.58931 0.0
C187 C 0.9107 0.50075 0.59096 0.0
O188 O 0.78034 0.48541 0.56241 0.0
O189 O 0.82197 0.5307 0.53578 0.0
O190 O 0.76643 0.61244 0.59853 0.0
C191 C 0.79407 0.49836 0.53631 0.0
O192 O 0.89294 0.45784 0.58983 0.0
C193 C 0.78509 0.65079 0.58816 0.0
O194 O 0.89136 0.54229 0.59241 0.0
O195 O 0.82016 0.64366 0.57854 0.0
C196 C 0.17793 0.48773 0.79243 0.0
O197 O 0.16723 0.44427 0.80254 0.0
Cd198 Cd 0.15071 0.42052 0.8554 0.0
O199 O 0.18114 0.52602 0.81025 0.0
Cd200 Cd 0.16967 0.54949 0.86388 0.0
C201 C 0.07242 0.50089 0.86552 0.0
O202 O 0.18853 0.47165 0.8896 0.0
O203 O 0.21306 0.53921 0.90916 0.0
O204 O 0.21271 0.6174 0.84701 0.0
C205 C 0.20919 0.49134 0.91079 0.0
O206 O 0.08508 0.45558 0.8621 0.0
C207 C 0.1965 0.65176 0.86332 0.0
O208 O 0.09592 0.53927 0.86668 0.0
O209 O 0.16628 0.6392 0.87924 0.0
C210 C 0.80065 0.51576 0.79098 0.0
O211 O 0.79882 0.55878 0.80427 0.0
Cd212 Cd 0.81178 0.56615 0.85873 0.0
O213 O 0.80604 0.47519 0.80631 0.0
Cd214 Cd 0.8118 0.44793 0.85991 0.0
C215 C 0.90144 0.50555 0.86326 0.0
O216 O 0.76933 0.50955 0.88718 0.0
O217 O 0.81159 0.46548 0.91381 0.0
O218 O 0.76032 0.38606 0.84789 0.0
C219 C 0.78238 0.49555 0.91329 0.0
O220 O 0.88216 0.54695 0.86584 0.0
C221 C 0.77873 0.34776 0.85834 0.0
O222 O 0.88373 0.4631 0.85891 0.0
O223 O 0.81333 0.35529 0.86902 0.0
C224 C 0.30849 0.94613 0.45711 0.0
C225 C 0.28167 0.97843 0.44161 0.0
C226 C 0.25069 0.00158 0.4905 0.0
C227 C 0.2832 0.9792 0.50584 0.0
N228 N 0.33911 0.92304 0.50591 0.0
N229 N 0.22327 0.03025 0.44158 0.0
C230 C 0.31033 0.94798 0.48979 0.0
C231 C 0.25069 0.00293 0.45772 0.0
N232 N 0.33286 0.91544 0.44024 0.0
N233 N 0.22109 0.02311 0.50746 0.0
H234 H 0.22234 0.03006 0.4175 0.0
H235 H 0.20197 0.05339 0.45167 0.0
H236 H 0.22116 0.02224 0.53154 0.0
H237 H 0.19542 0.03836 0.49805 0.0
H238 H 0.35226 0.88908 0.44975 0.0
H239 H 0.33138 0.91402 0.4162 0.0
H240 H 0.36247 0.9035 0.4958 0.0
H241 H 0.33965 0.9226 0.52999 0.0
C242 C 0.74283 0.98586 0.48372 0.0
C243 C 0.71435 0.01485 0.49988 0.0
C244 C 0.68914 0.05026 0.45181 0.0
C245 C 0.71255 0.01446 0.43575 0.0
N246 N 0.76978 0.96085 0.43386 0.0
N247 N 0.66976 0.0856 0.50151 0.0
C248 C 0.74277 0.98716 0.45096 0.0
C249 C 0.69107 0.05154 0.48451 0.0
N250 N 0.76759 0.9546 0.49984 0.0
N251 N 0.66343 0.08014 0.43564 0.0
H252 H 0.67143 0.08647 0.52556 0.0
H253 H 0.65281 0.11474 0.49213 0.0
H254 H 0.66299 0.08035 0.41154 0.0
H255 H 0.64274 0.10422 0.44567 0.0
H256 H 0.78676 0.92856 0.48974 0.0
H257 H 0.76851 0.95473 0.52392 0.0
H258 H 0.79368 0.94125 0.44314 0.0
H259 H 0.76957 0.96182 0.40978 0.0
C260 C 0.29834 0.05479 -0.00838 0.0
C261 C 0.27308 0.01932 0.00631 0.0
C262 C 0.24051 0.00025 0.95739 0.0
C263 C 0.27226 0.02502 0.94233 0.0
N264 N 0.32554 0.0855 0.943 0.0
N265 N 0.21487 0.96669 0.00583 0.0
C266 C 0.29865 0.05676 0.9589 0.0
C267 C 0.24156 -0.00408 -0.00995 0.0
N268 N 0.32306 0.08417 0.00919 0.0
N269 N 0.21104 0.9788 0.94011 0.0
H270 H 0.21507 0.96461 0.02989 0.0
H271 H 0.19286 0.94473 -0.00451 0.0
H272 H 0.21054 0.98211 0.91611 0.0
H273 H 0.18614 0.96098 0.94927 0.0
H274 H 0.34206 0.11185 0.0004 0.0
H275 H 0.32251 0.08256 0.03326 0.0
H276 H 0.348 0.10687 0.95319 0.0
H277 H 0.3249 0.08774 0.91894 0.0
C278 C 0.68345 0.93785 0.95068 0.0
C279 C 0.70824 0.97346 0.93567 0.0
C280 C 0.73952 -0.00409 -0.0154 0.0
C281 C 0.70818 0.97042 -0.00023 0.0
N282 N 0.65526 0.90917 -0.00066 0.0
N283 N 0.7648 0.02901 0.93595 0.0
C284 C 0.68235 0.93757 -0.0166 0.0
C285 C 0.73878 -0.00099 0.95188 0.0
N286 N 0.65995 0.90648 0.93335 0.0
N287 N 0.76846 0.01889 0.00173 0.0
H288 H 0.76498 0.03014 0.91187 0.0
H289 H 0.78574 0.05275 0.9462 0.0
H290 H 0.76884 0.01663 0.02578 0.0
H291 H 0.79319 0.03687 -0.00758 0.0
H292 H 0.64179 0.87812 0.94241 0.0
H293 H 0.66098 0.90691 0.90927 0.0
H294 H 0.63288 0.88769 -0.01089 0.0
H295 H 0.65531 0.90763 0.02341 0.0
C296 C 0.80587 0.4421 0.49149 0.0
C297 C 0.78025 0.47584 0.50716 0.0
C298 C 0.7492 0.50092 0.45874 0.0
C299 C 0.7793 0.47409 0.443 0.0
N300 N 0.82717 0.40701 0.44222 0.0
N301 N 0.72005 0.52391 0.5082 0.0
C302 C 0.80421 0.43981 0.45881 0.0
C303 C 0.74882 0.50005 0.49152 0.0
N304 N 0.83328 0.4153 0.50795 0.0
N305 N 0.72327 0.53004 0.44228 0.0
H306 H 0.71993 0.52337 0.53228 0.0
H307 H 0.69514 0.54075 0.49855 0.0
H308 H 0.72267 0.52959 0.4182 0.0
H309 H 0.70292 0.55483 0.45212 0.0
H310 H 0.85563 0.39357 0.4981 0.0
H311 H 0.83364 0.41554 0.53205 0.0
H312 H 0.84516 0.37927 0.45198 0.0
H313 H 0.82576 0.4055 0.41816 0.0
C314 C 0.23647 0.47047 0.48954 0.0
C315 C 0.20936 0.50171 0.50564 0.0
C316 C 0.18507 0.53765 0.45732 0.0
C317 C 0.20826 0.50153 0.44125 0.0
N318 N 0.26379 0.44484 0.43995 0.0
N319 N 0.16717 0.57499 0.50679 0.0
C320 C 0.23709 0.47219 0.45677 0.0
C321 C 0.1871 0.53922 0.49004 0.0
N322 N 0.25943 0.43697 0.50566 0.0
N323 N 0.15948 0.56786 0.44124 0.0
H324 H 0.16869 0.57623 0.53084 0.0
H325 H 0.15188 0.60539 0.49713 0.0
H326 H 0.15892 0.56849 0.41716 0.0
H327 H 0.13847 0.59132 0.45144 0.0
H328 H 0.27689 0.40905 0.49551 0.0
H329 H 0.26026 0.43666 0.52974 0.0
H330 H 0.28708 0.42441 0.44952 0.0
H331 H 0.26422 0.44587 0.41587 0.0
C332 C 0.73711 0.48274 0.95715 0.0
C333 C 0.76582 0.5137 0.94257 0.0
C334 C 0.78603 0.54917 -0.00784 0.0
C335 C 0.76475 0.50936 0.00661 0.0
N336 N 0.71434 0.44472 0.00522 0.0
N337 N 0.81189 0.58342 0.94401 0.0
C338 C 0.73748 0.47913 -0.01017 0.0
C339 C 0.78769 0.55034 0.95946 0.0
N340 N 0.71124 0.45528 0.93944 0.0
N341 N 0.80582 0.58388 0.00995 0.0
H342 H 0.81211 0.58533 0.91994 0.0
H343 H 0.83161 0.60842 0.95461 0.0
H344 H 0.80434 0.58294 0.03399 0.0
H345 H 0.82116 0.61518 0.00127 0.0
H346 H 0.68847 0.43283 0.94825 0.0
H347 H 0.71118 0.45802 0.91541 0.0
H348 H 0.6962 0.41788 -0.00546 0.0
H349 H 0.71374 0.44312 0.02929 0.0
C350 C 0.2419 0.48949 -0.00874 0.0
C351 C 0.20751 0.46551 0.00321 0.0
C352 C 0.19306 0.42893 0.95256 0.0
C353 C 0.21994 0.46443 0.93976 0.0
N354 N 0.28142 0.50877 0.94562 0.0
N355 N 0.15424 0.40518 -0.00246 0.0
C356 C 0.24868 0.48758 0.95893 0.0
C357 C 0.18486 0.43179 -0.01535 0.0
N358 N 0.26579 0.51731 0.01042 0.0
N359 N 0.17589 0.39297 0.93411 0.0
H360 H 0.14907 0.40529 0.02129 0.0
H361 H 0.13361 0.38435 -0.01518 0.0
H362 H 0.18443 0.38828 0.91116 0.0
H363 H 0.15715 0.36442 0.9422 0.0
H364 H 0.28926 0.53985 0.00296 0.0
H365 H 0.26169 0.51808 0.03427 0.0
H366 H 0.3048 0.52504 0.95784 0.0
H367 H 0.28615 0.50631 0.92184 0.0
C368 C 0.51503 0.97804 0.38166 0.0
C369 C 0.53538 0.99373 0.35463 0.0
C370 C 0.4721 0.00866 0.32835 0.0
C371 C 0.45182 -0.00374 0.35603 0.0
N372 N 0.45343 0.97745 0.41044 0.0
N373 N 0.53416 0.03084 0.30368 0.0
C374 C 0.47314 0.98304 0.38308 0.0
C375 C 0.51415 0.01131 0.32844 0.0
N376 N 0.53576 0.9583 0.40596 0.0
N377 N 0.45126 0.01541 0.30159 0.0
H378 H 0.56495 0.03137 0.30217 0.0
H379 H 0.52042 0.04979 0.28552 0.0
H380 H 0.42045 0.01386 0.30051 0.0
H381 H 0.46443 0.01842 0.27996 0.0
H382 H 0.52247 0.94064 0.42481 0.0
H383 H 0.56659 0.95659 0.40649 0.0
H384 H 0.46748 0.97316 0.43165 0.0
H385 H 0.42283 0.98152 0.41245 0.0
C386 C 0.47219 -0.00387 0.11215 0.0
C387 C 0.45078 0.98133 0.08536 0.0
C388 C 0.51294 0.97116 0.05679 0.0
C389 C 0.53435 0.98313 0.08408 0.0
N390 N 0.53525 -0.00178 0.13896 0.0
N391 N 0.4499 0.94869 0.03336 0.0
C392 C 0.51422 0.99336 0.11211 0.0
C393 C 0.47094 0.96677 0.05805 0.0
N394 N 0.45232 0.01337 0.13757 0.0
N395 N 0.53271 0.96619 0.02942 0.0
H396 H 0.41906 0.94699 0.03299 0.0
H397 H 0.46288 0.93218 0.01404 0.0
H398 H 0.56342 0.96929 0.02761 0.0
H399 H 0.51874 0.96296 0.0081 0.0
H400 H 0.46617 0.03056 0.15637 0.0
H401 H 0.42153 0.01343 0.13919 0.0
H402 H 0.52224 -0.00014 0.16069 0.0
H403 H 0.56606 -0.00358 0.13989 0.0
C404 C 0.51718 0.00999 0.55836 0.0
C405 C 0.53929 -0.00311 0.58506 0.0
C406 C 0.4778 0.98311 0.61402 0.0
C407 C 0.4558 -0.00049 0.58796 0.0
N408 N 0.45377 0.03421 0.53652 0.0
N409 N 0.54156 0.97851 0.63956 0.0
C410 C 0.47531 0.01481 0.56049 0.0
C411 C 0.51985 0.98525 0.61323 0.0
N412 N 0.53615 0.01569 0.53069 0.0
N413 N 0.4584 0.96503 0.63945 0.0
H414 H 0.57241 0.97931 0.63995 0.0
H415 H 0.52919 0.97597 0.66149 0.0
H416 H 0.42769 0.96566 0.64154 0.0
H417 H 0.47242 0.94665 0.65769 0.0
H418 H 0.52155 0.01989 0.50971 0.0
H419 H 0.56672 0.01202 0.52824 0.0
H420 H 0.46639 0.05129 0.5172 0.0
H421 H 0.42296 0.03648 0.53681 0.0
C422 C 0.50891 0.00812 0.8304 0.0
C423 C 0.53078 -0.00191 0.85767 0.0
C424 C 0.46901 0.98108 0.88582 0.0
C425 C 0.4472 -0.00458 0.85924 0.0
N426 N 0.44561 0.02841 0.80726 0.0
N427 N 0.53247 0.98086 0.91226 0.0
C428 C 0.46695 0.0108 0.83185 0.0
C429 C 0.51105 0.98593 0.88565 0.0
N430 N 0.52819 0.01258 0.80281 0.0
N431 N 0.44952 0.96266 0.91113 0.0
H432 H 0.56324 0.9842 0.91295 0.0
H433 H 0.51981 0.97727 0.93403 0.0
H434 H 0.41873 0.96047 0.91245 0.0
H435 H 0.46369 0.94639 0.93002 0.0
H436 H 0.51383 0.0142 0.78157 0.0
H437 H 0.55883 0.01008 0.80082 0.0
H438 H 0.45838 0.04594 0.78815 0.0
H439 H 0.41476 0.02868 0.80673 0.0
C440 C 0.97262 0.47538 0.33085 0.0
C441 C 0.95218 0.49416 0.3571 0.0
C442 C 0.01533 0.50731 0.384 0.0
C443 C 0.03578 0.49246 0.35685 0.0
N444 N 0.03448 0.47146 0.30267 0.0
N445 N 0.95343 0.53336 0.40746 0.0
C446 C 0.0146 0.47879 0.32979 0.0
C447 C 0.97339 0.51201 0.38328 0.0
N448 N 0.95197 0.45377 0.30702 0.0
N449 N 0.0359 0.51461 0.41086 0.0
H450 H 0.92262 0.535 0.40854 0.0
H451 H 0.96733 0.55246 0.42555 0.0
H452 H 0.06656 0.51087 0.41241 0.0
H453 H 0.02248 0.52007 0.43221 0.0
H454 H 0.96534 0.43412 0.28897 0.0
H455 H 0.92116 0.45211 0.30634 0.0
H456 H 0.02047 0.46718 0.28142 0.0
H457 H 0.0652 0.4742 0.30082 0.0
C458 C 0.00665 0.47591 0.11281 0.0
C459 C 0.02722 0.49196 0.08592 0.0
C460 C 0.96413 0.5033 0.05869 0.0
C461 C 0.94361 0.49068 0.08623 0.0
N462 N 0.94455 0.47328 0.14085 0.0
N463 N 0.0264 0.52609 0.03428 0.0
C464 C 0.96465 0.47903 0.11366 0.0
C465 C 0.00617 0.50742 0.05918 0.0
N466 N 0.02725 0.45729 0.13751 0.0
N467 N 0.94344 0.50924 0.03179 0.0
H468 H 0.05722 0.52721 0.03314 0.0
H469 H 0.0128 0.54342 0.01548 0.0
H470 H 0.91268 0.50635 0.03057 0.0
H471 H 0.95669 0.51299 0.01024 0.0
H472 H 0.01392 0.43931 0.15624 0.0
H473 H 0.05806 0.45668 0.13849 0.0
H474 H 0.95833 0.4707 0.16227 0.0
H475 H 0.9138 0.47526 0.14244 0.0
C476 C 0.97589 0.52174 0.6162 0.0
C477 C 0.95466 0.50176 0.59057 0.0
C478 C 0.01696 0.47414 0.56669 0.0
C479 C 0.03828 0.49648 0.59152 0.0
N480 N 0.03905 0.54648 0.63826 0.0
N481 N 0.95474 0.46772 0.53889 0.0
C482 C 0.01799 0.52194 0.61571 0.0
C483 C 0.97514 0.48013 0.56515 0.0
N484 N 0.95584 0.53831 0.64168 0.0
N485 N 0.03672 0.44723 0.54452 0.0
H486 H 0.92426 0.47275 0.53662 0.0
H487 H 0.96822 0.45683 0.51835 0.0
H488 H 0.06749 0.44456 0.54374 0.0
H489 H 0.02265 0.42484 0.52795 0.0
H490 H 0.96934 0.54699 0.66263 0.0
H491 H 0.92512 0.54025 0.64273 0.0
H492 H 0.02649 0.57133 0.65419 0.0
H493 H 0.06972 0.54431 0.6401 0.0
C494 C 0.00736 0.49031 0.89241 0.0
C495 C 0.02897 0.50839 0.86656 0.0
C496 C 0.96696 0.5302 0.84023 0.0
C497 C 0.94533 0.50731 0.86472 0.0
N498 N 0.94407 0.46359 0.91363 0.0
N499 N 0.03024 0.54116 0.81463 0.0
C500 C 0.96532 0.48679 0.89071 0.0
C501 C 0.00903 0.52773 0.84026 0.0
N502 N 0.02718 0.47794 0.91888 0.0
N503 N 0.94726 0.55418 0.81683 0.0
H504 H 0.06106 0.54099 0.81398 0.0
H505 H 0.01752 0.54932 0.79333 0.0
H506 H 0.91655 0.55406 0.81486 0.0
H507 H 0.9611 0.57692 0.80035 0.0
H508 H 0.01333 0.46921 0.93966 0.0
H509 H 0.05791 0.48055 0.92083 0.0
H510 H 0.9568 0.44266 0.93142 0.0
H511 H 0.91321 0.4629 0.9141 0.0
C512 C 0.22367 0.25944 0.32545 0.0
C513 C 0.22245 0.28885 0.35286 0.0
C514 C 0.2575 0.22169 0.38095 0.0
C515 C 0.26167 0.19412 0.35293 0.0
N516 N 0.25426 0.18969 0.29763 0.0
N517 N 0.24265 0.3024 0.40561 0.0
C518 C 0.24612 0.2137 0.32491 0.0
C519 C 0.24068 0.27126 0.38032 0.0
N520 N 0.20277 0.27485 0.30011 0.0
N521 N 0.26788 0.19956 0.40834 0.0
H522 H 0.22968 0.33841 0.40634 0.0
H523 H 0.25956 0.29422 0.42507 0.0
H524 H 0.27987 0.16309 0.40987 0.0
H525 H 0.26148 0.21542 0.42978 0.0
H526 H 0.19884 0.25242 0.28051 0.0
H527 H 0.18668 0.30871 0.29954 0.0
H528 H 0.24736 0.20484 0.27611 0.0
H529 H 0.27105 0.15649 0.29627 0.0
C530 C 0.72963 0.76251 0.33054 0.0
C531 C 0.7221 0.78857 0.35859 0.0
C532 C 0.75211 0.71865 0.38785 0.0
C533 C 0.76257 0.69473 0.35965 0.0
N534 N 0.76701 0.69698 0.30414 0.0
N535 N 0.73085 0.79595 0.41365 0.0
C536 C 0.75284 0.71748 0.33096 0.0
C537 C 0.73453 0.76785 0.38723 0.0
N538 N 0.7135 0.77999 0.30362 0.0
N539 N 0.75766 0.69357 0.41516 0.0
H540 H 0.71777 0.8319 0.41415 0.0
H541 H 0.74339 0.78549 0.43465 0.0
H542 H 0.77067 0.65765 0.41656 0.0
H543 H 0.74663 0.70644 0.43618 0.0
H544 H 0.71425 0.75976 0.28295 0.0
H545 H 0.69625 0.81283 0.30243 0.0
H546 H 0.76463 0.71479 0.28277 0.0
H547 H 0.78428 0.66412 0.30352 0.0
C548 C 0.22444 0.7172 0.10869 0.0
C549 C 0.21681 0.69246 0.08018 0.0
C550 C 0.24674 0.76424 0.05225 0.0
C551 C 0.25741 0.78675 0.08089 0.0
N552 N 0.26241 0.78118 0.1363 0.0
N553 N 0.22531 0.68811 0.025 0.0
C554 C 0.24784 0.76231 0.10912 0.0
C555 C 0.22913 0.71483 0.05195 0.0
N556 N 0.20819 0.69844 0.13528 0.0
N557 N 0.25211 0.79084 0.02545 0.0
H558 H 0.21225 0.65205 0.02385 0.0
H559 H 0.23773 0.69982 0.00419 0.0
H560 H 0.26504 0.827 0.02474 0.0
H561 H 0.24098 0.77896 0.00421 0.0
H562 H 0.20903 0.71776 0.15627 0.0
H563 H 0.1907 0.66559 0.13588 0.0
H564 H 0.26014 0.76203 0.15727 0.0
H565 H 0.27996 0.81393 0.13758 0.0
C566 C 0.73072 0.21425 0.05849 0.0
C567 C 0.71931 0.19061 0.08657 0.0
C568 C 0.74832 0.26135 0.11601 0.0
C569 C 0.75696 0.28679 0.08792 0.0
N570 N 0.7508 0.29201 0.03255 0.0
N571 N 0.71161 0.19411 0.14181 0.0
C572 C 0.7467 0.26447 0.05915 0.0
C573 C 0.72658 0.21483 0.1153 0.0
N574 N 0.72759 0.188 0.03132 0.0
N575 N 0.76213 0.28079 0.14328 0.0
H576 H 0.69563 0.15999 0.14216 0.0
H577 H 0.71211 0.21263 0.16305 0.0
H578 H 0.77822 0.31473 0.1447 0.0
H579 H 0.76058 0.26135 0.16418 0.0
H580 H 0.73956 0.20084 0.01059 0.0
H581 H 0.71573 0.15129 0.02985 0.0
H582 H 0.73975 0.28007 0.0113 0.0
H583 H 0.7624 0.32892 0.03205 0.0
C584 C 0.73802 0.77258 0.55804 0.0
C585 C 0.72768 0.79668 0.58622 0.0
C586 C 0.75891 0.72765 0.61543 0.0
C587 C 0.76639 0.70162 0.58735 0.0
N588 N 0.75814 0.69482 0.53222 0.0
N589 N 0.72271 0.79448 0.64169 0.0
C590 C 0.75465 0.72287 0.55869 0.0
C591 C 0.73666 0.77352 0.61494 0.0
N592 N 0.73333 0.79799 0.53074 0.0
N593 N 0.7742 0.70931 0.64244 0.0
H594 H 0.70625 0.82803 0.64224 0.0
H595 H 0.72451 0.77658 0.66308 0.0
H596 H 0.79056 0.67574 0.64369 0.0
H597 H 0.77356 0.72934 0.66318 0.0
H598 H 0.74437 0.78488 0.50978 0.0
H599 H 0.72113 0.83438 0.52931 0.0
H600 H 0.74603 0.70577 0.51116 0.0
H601 H 0.77054 0.65847 0.53173 0.0
C602 C 0.23919 0.26992 0.62231 0.0
C603 C 0.22505 0.29109 0.59428 0.0
C604 C 0.24818 0.21606 0.56583 0.0
C605 C 0.26512 0.19699 0.59343 0.0
N606 N 0.28162 0.20772 0.64712 0.0
N607 N 0.22161 0.28904 0.53865 0.0
C608 C 0.26201 0.22449 0.62148 0.0
C609 C 0.23088 0.26537 0.56581 0.0
N610 N 0.22952 0.29225 0.6498 0.0
N611 N 0.24779 0.1865 0.53982 0.0
H612 H 0.20912 0.32529 0.53759 0.0
H613 H 0.22929 0.27471 0.51708 0.0
H614 H 0.26101 0.15066 0.53874 0.0
H615 H 0.23189 0.19572 0.52002 0.0
H616 H 0.23536 0.27591 0.67119 0.0
H617 H 0.21255 0.32529 0.65132 0.0
H618 H 0.2842 0.22884 0.66736 0.0
H619 H 0.29804 0.17411 0.64743 0.0
C620 C 0.72963 0.22613 0.8296 0.0
C621 C 0.71998 0.20198 0.85792 0.0
C622 C 0.74744 0.2746 0.88664 0.0
C623 C 0.75996 0.2967 0.85838 0.0
N624 N 0.76851 0.29074 0.8033 0.0
N625 N 0.72475 0.19875 0.91341 0.0
C626 C 0.75255 0.2717 0.82992 0.0
C627 C 0.73018 0.22502 0.88649 0.0
N628 N 0.71565 0.20642 0.80245 0.0
N629 N 0.75069 0.30176 0.91348 0.0
H630 H 0.71198 0.1625 0.91426 0.0
H631 H 0.73566 0.21102 0.93464 0.0
H632 H 0.76344 0.33801 0.91458 0.0
H633 H 0.73803 0.29021 0.93424 0.0
H634 H 0.71799 0.22511 0.78135 0.0
H635 H 0.69857 0.17325 0.80131 0.0
H636 H 0.76788 0.27143 0.78231 0.0
H637 H 0.78545 0.32407 0.80266 0.0
C638 C 0.21659 0.73192 0.83626 0.0
C639 C 0.21337 0.70393 0.86413 0.0
C640 C 0.24593 0.77367 0.89225 0.0
C641 C 0.25307 0.79889 0.86384 0.0
N642 N 0.25076 0.79861 0.80817 0.0
N643 N 0.23018 0.69421 0.91799 0.0
C644 C 0.23979 0.77719 0.83564 0.0
C645 C 0.22926 0.72379 0.89203 0.0
N646 N 0.19649 0.71598 0.81059 0.0
N647 N 0.2538 0.79801 0.9195 0.0
H648 H 0.21852 0.65739 0.91887 0.0
H649 H 0.24543 0.70449 0.93796 0.0
H650 H 0.26587 0.83463 0.92063 0.0
H651 H 0.24516 0.78383 0.94091 0.0
H652 H 0.19432 0.73755 0.79051 0.0
H653 H 0.17871 0.68336 0.81033 0.0
H654 H 0.24563 0.78142 0.78687 0.0
H655 H 0.26827 0.83136 0.80667 0.0
C656 C 0.33883 0.96039 0.23828 0.0
C657 C 0.30388 0.97199 0.25492 0.0
C658 C 0.2711 -3e-05 0.20746 0.0
C659 C 0.30547 0.9863 0.19063 0.0
N660 N 0.37039 0.94796 0.18875 0.0
N661 N 0.2352 -0.00423 0.25598 0.0
C662 C 0.33874 0.96451 0.20566 0.0
C663 C 0.26952 0.98986 0.23967 0.0
N664 N 0.37279 0.94824 0.25383 0.0
N665 N 0.24019 0.02295 0.19264 0.0
H666 H 0.23324 0.98849 0.27959 0.0
H667 H 0.20798 0.00404 0.24597 0.0
H668 H 0.23944 0.02841 0.16881 0.0
H669 H 0.21616 0.03911 0.20394 0.0
H670 H 0.40052 0.94603 0.24348 0.0
H671 H 0.37406 0.94377 0.27772 0.0
H672 H 0.39306 0.92577 0.19781 0.0
H673 H 0.37317 0.95376 0.16506 0.0
C674 C 0.71614 -0.00558 0.20032 0.0
C675 C 0.68265 0.97206 0.18578 0.0
C676 C 0.64711 0.97013 0.23491 0.0
C677 C 0.68143 0.98962 0.24979 0.0
N678 N 0.75041 0.0132 0.24825 0.0
N679 N 0.61807 0.93264 0.18905 0.0
C680 C 0.71648 -3e-05 0.23294 0.0
C681 C 0.64878 0.95775 0.20308 0.0
N682 N 0.74735 0.0109 0.18284 0.0
N683 N 0.61231 0.966 0.25089 0.0
H684 H 0.617 0.9253 0.16543 0.0
H685 H 0.59476 0.91583 0.20105 0.0
H686 H 0.60971 0.9749 0.27423 0.0
H687 H 0.58515 0.95791 0.24061 0.0
H688 H 0.77045 0.0331 0.19148 0.0
H689 H 0.74918 0.00465 0.15911 0.0
H690 H 0.77801 0.01592 0.23773 0.0
H691 H 0.75163 0.01779 0.27214 0.0
C692 C 0.71341 0.98218 0.73401 0.0
C693 C 0.67965 -0.0002 0.75027 0.0
C694 C 0.64987 0.02983 0.70204 0.0
C695 C 0.68445 0.01463 0.68605 0.0
N696 N 0.75116 0.98292 0.68628 0.0
N697 N 0.61799 0.04646 0.75086 0.0
C698 C 0.71681 0.9925 0.70189 0.0
C699 C 0.64869 0.02575 0.73463 0.0
N700 N 0.74212 0.9556 0.74929 0.0
N701 N 0.61719 0.04533 0.68592 0.0
H702 H 0.61394 0.04118 0.77443 0.0
H703 H 0.59765 0.07167 0.74133 0.0
H704 H 0.61673 0.04961 0.66202 0.0
H705 H 0.58941 0.0502 0.69584 0.0
H706 H 0.7651 0.93654 0.73832 0.0
H707 H 0.742 0.95026 0.77312 0.0
H708 H 0.77731 0.97139 0.69681 0.0
H709 H 0.75451 0.99033 0.66278 0.0
C710 C 0.27126 0.01202 0.73771 0.0
C711 C 0.30404 -0.0032 0.75594 0.0
C712 C 0.33826 0.9647 0.71 0.0
C713 C 0.305 0.97853 0.69194 0.0
N714 N 0.23783 0.00794 0.68807 0.0
N715 N 0.36734 0.95466 0.76066 0.0
C716 C 0.27091 0.00024 0.70566 0.0
C717 C 0.33701 0.97165 0.74245 0.0
N718 N 0.24064 0.03786 0.75105 0.0
N719 N 0.37192 0.94757 0.6959 0.0
H720 H 0.37002 0.96337 0.78402 0.0
H721 H 0.38921 0.92983 0.75306 0.0
H722 H 0.3736 0.93994 0.67236 0.0
H723 H 0.39904 0.94359 0.707 0.0
H724 H 0.21798 0.05515 0.73869 0.0
H725 H 0.23877 0.04446 0.77473 0.0
H726 H 0.21062 0.01921 0.6969 0.0
H727 H 0.23666 -0.00087 0.6646 0.0
C728 C 0.76698 0.47889 0.20703 0.0
C729 C 0.79977 0.50139 0.19168 0.0
C730 C 0.83663 0.50595 0.24021 0.0
C731 C 0.80287 0.48672 0.25591 0.0
N732 N 0.73428 0.46128 0.25574 0.0
N733 N 0.86438 0.54114 0.19329 0.0
C734 C 0.76759 0.47467 0.23972 0.0
C735 C 0.83409 0.51664 0.20821 0.0
N736 N 0.73546 0.4612 0.19028 0.0
N737 N 0.87174 0.5116 0.25566 0.0
H738 H 0.8651 0.54671 0.16949 0.0
H739 H 0.88783 0.55892 0.20464 0.0
H740 H 0.87491 0.50425 0.27915 0.0
H741 H 0.8986 0.5195 0.24492 0.0
H742 H 0.71286 0.43893 0.19956 0.0
H743 H 0.73289 0.46642 0.16651 0.0
H744 H 0.70644 0.45741 0.24569 0.0
H745 H 0.73377 0.45759 0.2797 0.0
C746 C 0.14705 0.52445 0.23692 0.0
C747 C 0.18117 0.50835 0.25329 0.0
C748 C 0.21241 0.48132 0.20495 0.0
C749 C 0.17695 0.49315 0.18903 0.0
N750 N 0.10861 0.51956 0.18979 0.0
N751 N 0.24508 0.46787 0.25414 0.0
C752 C 0.14384 0.51344 0.20494 0.0
C753 C 0.21354 0.48573 0.23764 0.0
N754 N 0.11752 0.54985 0.25201 0.0
N755 N 0.24538 0.46771 0.18867 0.0
H756 H 0.24803 0.47327 0.27788 0.0
H757 H 0.26732 0.44541 0.24469 0.0
H758 H 0.24556 0.46408 0.1647 0.0
H759 H 0.27332 0.46381 0.19849 0.0
H760 H 0.09425 0.56798 0.24079 0.0
H761 H 0.11742 0.55601 0.27576 0.0
H762 H 0.08209 0.52825 0.20076 0.0
H763 H 0.10491 0.51192 0.16636 0.0
C764 C 0.21254 0.47236 0.74196 0.0
C765 C 0.18162 0.49601 0.75878 0.0
C766 C 0.15504 0.53302 0.71111 0.0
C767 C 0.18676 0.51088 0.69443 0.0
N768 N 0.249 0.46665 0.69375 0.0
N769 N 0.12589 0.55361 0.76047 0.0
C770 C 0.21646 0.48247 0.70982 0.0
C771 C 0.15384 0.52812 0.7437 0.0
N772 N 0.23795 0.44004 0.7567 0.0
N773 N 0.12458 0.55588 0.69563 0.0
H774 H 0.12084 0.54735 0.78385 0.0
H775 H 0.10884 0.58315 0.7516 0.0
H776 H 0.12449 0.56158 0.67188 0.0
H777 H 0.09795 0.56621 0.70589 0.0
H778 H 0.25822 0.41694 0.74534 0.0
H779 H 0.23744 0.43416 0.78049 0.0
H780 H 0.27363 0.44988 0.70388 0.0
H781 H 0.25288 0.47413 0.6703 0.0
C782 C 0.83802 0.51018 0.70917 0.0
C783 C 0.80383 0.49282 0.69333 0.0
C784 C 0.7668 0.49059 0.74183 0.0
C785 C 0.80005 0.51229 0.75707 0.0
N786 N 0.86515 0.55041 0.75476 0.0
N787 N 0.73429 0.47216 0.69307 0.0
C788 C 0.83493 0.52474 0.74053 0.0
C789 C 0.76777 0.4844 0.70923 0.0
N790 N 0.8739 0.51014 0.6946 0.0
N791 N 0.73458 0.47544 0.75859 0.0
H792 H 0.7342 0.46661 0.66923 0.0
H793 H 0.70617 0.47089 0.70284 0.0
H794 H 0.73202 0.48199 0.78225 0.0
H795 H 0.71137 0.454 0.74945 0.0
H796 H 0.90064 0.51746 0.70576 0.0
H797 H 0.87746 0.49744 0.67198 0.0
H798 H 0.88948 0.56525 0.74302 0.0
H799 H 0.86442 0.56083 0.77795 0.0
loop_
_geom_bond_atom_site_label_1
_geom_bond_atom_site_label_2
_geom_bond_distance
_geom_bond_site_symmetry_2
_ccdc_geom_bond_type
C0 O1 1.306 . S
C0 O3 1.160 1_565 S
O1 C0 1.306 . S
O1 Cd2 2.228 . S
Cd2 O1 2.228 . S
Cd2 O6 2.288 . S
Cd2 O10 2.277 . S
O3 C0 1.160 1_545 S
O3 Cd4 2.203 . S
Cd4 O3 2.203 . S
Cd4 O6 2.397 1_545 S
Cd4 O7 2.333 . S
Cd4 O8 2.352 . S
Cd4 O12 2.277 . S
Cd4 O13 2.356 . S
C5 O10 1.209 1_545 S
C5 O12 1.226 . S
O6 Cd2 2.288 . S
O6 Cd4 2.397 1_565 S
O6 C9 1.310 1_565 S
O7 Cd4 2.333 . S
O7 C9 1.214 . S
O8 Cd4 2.352 . S
O8 C11 1.258 . S
C9 O6 1.310 1_545 S
C9 O7 1.214 . S
O10 Cd2 2.277 . S
O10 C5 1.209 1_565 S
C11 O8 1.258 . S
C11 O13 1.282 . S
O12 Cd4 2.277 . S
O12 C5 1.226 . S
O13 Cd4 2.356 . S
O13 C11 1.282 . S
C14 O15 1.306 . S
C14 O17 1.160 1_545 S
O15 C14 1.306 . S
O15 Cd16 2.228 . S
Cd16 O15 2.228 . S
Cd16 O20 2.288 . S
Cd16 O24 2.277 . S
O17 C14 1.160 1_565 S
O17 Cd18 2.203 . S
Cd18 O17 2.203 . S
Cd18 O20 2.398 1_565 S
Cd18 O21 2.333 . S
Cd18 O22 2.352 . S
Cd18 O26 2.277 . S
Cd18 O27 2.356 . S
C19 O24 1.209 1_565 S
C19 O26 1.226 . S
O20 Cd16 2.288 . S
O20 Cd18 2.398 1_545 S
O20 C23 1.311 1_545 S
O21 Cd18 2.333 . S
O21 C23 1.214 . S
O22 Cd18 2.352 . S
O22 C25 1.258 . S
C23 O20 1.311 1_565 S
C23 O21 1.214 . S
O24 Cd16 2.277 . S
O24 C19 1.209 1_545 S
C25 O22 1.258 . S
C25 O27 1.282 . S
O26 Cd18 2.277 . S
O26 C19 1.226 . S
O27 Cd18 2.356 . S
O27 C25 1.282 . S
C28 O29 1.306 . S
C28 O31 1.160 1_545 S
O29 C28 1.306 . S
O29 Cd30 2.228 . S
Cd30 O29 2.228 . S
Cd30 O34 2.288 . S
Cd30 O38 2.277 . S
O31 C28 1.160 1_565 S
O31 Cd32 2.203 . S
Cd32 O31 2.203 . S
Cd32 O34 2.397 1_565 S
Cd32 O35 2.333 . S
Cd32 O36 2.352 . S
Cd32 O40 2.277 . S
Cd32 O41 2.356 . S
C33 O38 1.209 1_565 S
C33 O40 1.226 . S
O34 Cd30 2.288 . S
O34 Cd32 2.397 1_545 S
O34 C37 1.310 1_545 S
O35 Cd32 2.333 . S
O35 C37 1.214 . S
O36 Cd32 2.352 . S
O36 C39 1.258 . S
C37 O34 1.310 1_565 S
C37 O35 1.214 . S
O38 Cd30 2.277 . S
O38 C33 1.209 1_545 S
C39 O36 1.258 . S
C39 O41 1.282 . S
O40 Cd32 2.277 . S
O40 C33 1.226 . S
O41 Cd32 2.356 . S
O41 C39 1.282 . S
C42 O43 1.306 . S
C42 O45 1.160 1_565 S
O43 C42 1.306 . S
O43 Cd44 2.228 . S
Cd44 O43 2.228 . S
Cd44 O48 2.288 . S
Cd44 O52 2.277 . S
O45 C42 1.160 1_545 S
O45 Cd46 2.203 . S
Cd46 O45 2.203 . S
Cd46 O48 2.398 1_545 S
Cd46 O49 2.333 . S
Cd46 O50 2.352 . S
Cd46 O54 2.277 . S
Cd46 O55 2.356 . S
C47 O52 1.209 1_545 S
C47 O54 1.226 . S
O48 Cd44 2.288 . S
O48 Cd46 2.398 1_565 S
O48 C51 1.311 1_565 S
O49 Cd46 2.333 . S
O49 C51 1.214 . S
O50 Cd46 2.352 . S
O50 C53 1.258 . S
C51 O48 1.311 1_545 S
C51 O49 1.214 . S
O52 Cd44 2.277 . S
O52 C47 1.209 1_565 S
C53 O50 1.258 . S
C53 O55 1.282 . S
O54 Cd46 2.277 . S
O54 C47 1.226 . S
O55 Cd46 2.356 . S
O55 C53 1.282 . S
C56 O57 1.306 . S
C56 O59 1.160 1_545 S
O57 C56 1.306 . S
O57 Cd58 2.228 . S
Cd58 O57 2.228 . S
Cd58 O62 2.288 . S
Cd58 O66 2.277 . S
O59 C56 1.160 1_565 S
O59 Cd60 2.203 . S
Cd60 O59 2.203 . S
Cd60 O62 2.397 1_565 S
Cd60 O63 2.333 . S
Cd60 O64 2.352 . S
Cd60 O68 2.277 . S
Cd60 O69 2.356 . S
C61 O66 1.209 1_565 S
C61 O68 1.226 . S
O62 Cd58 2.288 . S
O62 Cd60 2.397 1_545 S
O62 C65 1.310 1_545 S
O63 Cd60 2.333 . S
O63 C65 1.214 . S
O64 Cd60 2.352 . S
O64 C67 1.258 . S
C65 O62 1.310 1_565 S
C65 O63 1.214 . S
O66 Cd58 2.277 . S
O66 C61 1.209 1_545 S
C67 O64 1.258 . S
C67 O69 1.282 . S
O68 Cd60 2.277 . S
O68 C61 1.226 . S
O69 Cd60 2.356 . S
O69 C67 1.282 . S
C70 O71 1.306 . S
C70 O73 1.160 1_565 S
O71 C70 1.306 . S
O71 Cd72 2.228 . S
Cd72 O71 2.228 . S
Cd72 O76 2.288 . S
Cd72 O80 2.277 . S
O73 C70 1.160 1_545 S
O73 Cd74 2.203 . S
Cd74 O73 2.203 . S
Cd74 O76 2.398 1_545 S
Cd74 O77 2.333 . S
Cd74 O78 2.352 . S
Cd74 O82 2.277 . S
Cd74 O83 2.356 . S
C75 O80 1.209 1_545 S
C75 O82 1.226 . S
O76 Cd72 2.288 . S
O76 Cd74 2.398 1_565 S
O76 C79 1.311 1_565 S
O77 Cd74 2.333 . S
O77 C79 1.214 . S
O78 Cd74 2.352 . S
O78 C81 1.258 . S
C79 O76 1.311 1_545 S
C79 O77 1.214 . S
O80 Cd72 2.277 . S
O80 C75 1.209 1_565 S
C81 O78 1.258 . S
C81 O83 1.282 . S
O82 Cd74 2.277 . S
O82 C75 1.226 . S
O83 Cd74 2.356 . S
O83 C81 1.282 . S
C84 O85 1.306 . S
C84 O87 1.160 1_565 S
O85 C84 1.306 . S
O85 Cd86 2.228 . S
Cd86 O85 2.228 . S
Cd86 O90 2.288 . S
Cd86 O94 2.277 . S
O87 C84 1.160 1_545 S
O87 Cd88 2.203 . S
Cd88 O87 2.203 . S
Cd88 O90 2.397 1_545 S
Cd88 O91 2.333 . S
Cd88 O92 2.352 . S
Cd88 O96 2.277 . S
Cd88 O97 2.356 . S
C89 O94 1.209 1_545 S
C89 O96 1.226 . S
O90 Cd86 2.288 . S
O90 Cd88 2.397 1_565 S
O90 C93 1.310 1_565 S
O91 Cd88 2.333 . S
O91 C93 1.214 . S
O92 Cd88 2.352 . S
O92 C95 1.258 . S
C93 O90 1.310 1_545 S
C93 O91 1.214 . S
O94 Cd86 2.277 . S
O94 C89 1.209 1_565 S
C95 O92 1.258 . S
C95 O97 1.282 . S
O96 Cd88 2.277 . S
O96 C89 1.226 . S
O97 Cd88 2.356 . S
O97 C95 1.282 . S
C98 O99 1.306 . S
C98 O101 1.160 1_545 S
O99 C98 1.306 . S
O99 Cd100 2.228 . S
Cd100 O99 2.228 . S
Cd100 O104 2.288 . S
Cd100 O108 2.277 . S
O101 C98 1.160 1_565 S
O101 Cd102 2.203 . S
Cd102 O101 2.203 . S
Cd102 O104 2.398 1_565 S
Cd102 O105 2.333 . S
Cd102 O106 2.352 . S
Cd102 O110 2.277 . S
Cd102 O111 2.356 . S
C103 O108 1.209 1_565 S
C103 O110 1.226 . S
O104 Cd100 2.288 . S
O104 Cd102 2.398 1_545 S
O104 C107 1.311 1_545 S
O105 Cd102 2.333 . S
O105 C107 1.214 . S
O106 Cd102 2.352 . S
O106 C109 1.258 . S
C107 O104 1.311 1_565 S
C107 O105 1.214 . S
O108 Cd100 2.277 . S
O108 C103 1.209 1_545 S
C109 O106 1.258 . S
C109 O111 1.282 . S
O110 Cd102 2.277 . S
O110 C103 1.226 . S
O111 Cd102 2.356 . S
O111 C109 1.282 . S
C112 O113 1.306 . S
C112 O115 1.160 . S
O113 C112 1.306 . S
O113 Cd114 2.228 . S
Cd114 O113 2.228 . S
Cd114 O118 2.273 . S
Cd114 O122 2.277 . S
O115 C112 1.160 . S
O115 Cd116 2.203 . S
Cd116 O115 2.203 . S
Cd116 O118 2.411 . S
Cd116 O119 2.333 . S
Cd116 O120 2.352 . S
Cd116 O124 2.277 . S
Cd116 O125 2.356 . S
C117 O122 1.209 . S
C117 O124 1.226 . S
O118 Cd114 2.273 . S
O118 Cd116 2.411 . S
O118 C121 1.320 . S
O119 Cd116 2.333 . S
O119 C121 1.214 . S
O120 Cd116 2.352 . S
O120 C123 1.258 . S
C121 O118 1.320 . S
C121 O119 1.214 . S
O122 Cd114 2.277 . S
O122 C117 1.209 . S
C123 O120 1.258 . S
C123 O125 1.282 . S
O124 Cd116 2.277 . S
O124 C117 1.226 . S
O125 Cd116 2.356 . S
O125 C123 1.282 . S
C126 O127 1.306 . S
C126 O129 1.160 . S
O127 C126 1.306 . S
O127 Cd128 2.228 . S
Cd128 O127 2.228 . S
Cd128 O132 2.273 . S
Cd128 O136 2.277 . S
O129 C126 1.160 . S
O129 Cd130 2.203 . S
Cd130 O129 2.203 . S
Cd130 O132 2.411 . S
Cd130 O133 2.333 . S
Cd130 O134 2.352 . S
Cd130 O138 2.277 . S
Cd130 O139 2.356 . S
C131 O136 1.209 . S
C131 O138 1.226 . S
O132 Cd128 2.273 . S
O132 Cd130 2.411 . S
O132 C135 1.320 . S
O133 Cd130 2.333 . S
O133 C135 1.214 . S
O134 Cd130 2.352 . S
O134 C137 1.258 . S
C135 O132 1.320 . S
C135 O133 1.214 . S
O136 Cd128 2.277 . S
O136 C131 1.209 . S
C137 O134 1.258 . S
C137 O139 1.282 . S
O138 Cd130 2.277 . S
O138 C131 1.226 . S
O139 Cd130 2.356 . S
O139 C137 1.282 . S
C140 O141 1.306 . S
C140 O143 1.160 . S
O141 C140 1.306 . S
O141 Cd142 2.228 . S
Cd142 O141 2.228 . S
Cd142 O146 2.273 . S
Cd142 O150 2.277 . S
O143 C140 1.160 . S
O143 Cd144 2.203 . S
Cd144 O143 2.203 . S
Cd144 O146 2.411 . S
Cd144 O147 2.333 . S
Cd144 O148 2.352 . S
Cd144 O152 2.277 . S
Cd144 O153 2.356 . S
C145 O150 1.209 . S
C145 O152 1.226 . S
O146 Cd142 2.273 . S
O146 Cd144 2.411 . S
O146 C149 1.320 . S
O147 Cd144 2.333 . S
O147 C149 1.214 . S
O148 Cd144 2.352 . S
O148 C151 1.258 . S
C149 O146 1.320 . S
C149 O147 1.214 . S
O150 Cd142 2.277 . S
O150 C145 1.209 . S
C151 O148 1.258 . S
C151 O153 1.282 . S
O152 Cd144 2.277 . S
O152 C145 1.226 . S
O153 Cd144 2.356 . S
O153 C151 1.282 . S
C154 O155 1.306 . S
C154 O157 1.160 . S
O155 C154 1.306 . S
O155 Cd156 2.228 . S
Cd156 O155 2.228 . S
Cd156 O160 2.273 . S
Cd156 O164 2.277 . S
O157 C154 1.160 . S
O157 Cd158 2.203 . S
Cd158 O157 2.203 . S
Cd158 O160 2.411 . S
Cd158 O161 2.333 . S
Cd158 O162 2.352 . S
Cd158 O166 2.277 . S
Cd158 O167 2.356 . S
C159 O164 1.209 . S
C159 O166 1.226 . S
O160 Cd156 2.273 . S
O160 Cd158 2.411 . S
O160 C163 1.320 . S
O161 Cd158 2.333 . S
O161 C163 1.214 . S
O162 Cd158 2.352 . S
O162 C165 1.258 . S
C163 O160 1.320 . S
C163 O161 1.214 . S
O164 Cd156 2.277 . S
O164 C159 1.209 . S
C165 O162 1.258 . S
C165 O167 1.282 . S
O166 Cd158 2.277 . S
O166 C159 1.226 . S
O167 Cd158 2.356 . S
O167 C165 1.282 . S
C168 O169 1.306 . S
C168 O171 1.160 . S
O169 C168 1.306 . S
O169 Cd170 2.228 . S
Cd170 O169 2.228 . S
Cd170 O174 2.273 . S
Cd170 O178 2.277 . S
O171 C168 1.160 . S
O171 Cd172 2.203 . S
Cd172 O171 2.203 . S
Cd172 O174 2.411 . S
Cd172 O175 2.333 . S
Cd172 O176 2.352 . S
Cd172 O180 2.277 . S
Cd172 O181 2.356 . S
C173 O178 1.209 . S
C173 O180 1.226 . S
O174 Cd170 2.273 . S
O174 Cd172 2.411 . S
O174 C177 1.320 . S
O175 Cd172 2.333 . S
O175 C177 1.214 . S
O176 Cd172 2.352 . S
O176 C179 1.258 . S
C177 O174 1.320 . S
C177 O175 1.214 . S
O178 Cd170 2.277 . S
O178 C173 1.209 . S
C179 O176 1.258 . S
C179 O181 1.282 . S
O180 Cd172 2.277 . S
O180 C173 1.226 . S
O181 Cd172 2.356 . S
O181 C179 1.282 . S
C182 O183 1.306 . S
C182 O185 1.160 . S
O183 C182 1.306 . S
O183 Cd184 2.228 . S
Cd184 O183 2.228 . S
Cd184 O188 2.273 . S
Cd184 O192 2.277 . S
O185 C182 1.160 . S
O185 Cd186 2.203 . S
Cd186 O185 2.203 . S
Cd186 O188 2.411 . S
Cd186 O189 2.333 . S
Cd186 O190 2.352 . S
Cd186 O194 2.277 . S
Cd186 O195 2.356 . S
C187 O192 1.209 . S
C187 O194 1.226 . S
O188 Cd184 2.273 . S
O188 Cd186 2.411 . S
O188 C191 1.320 . S
O189 Cd186 2.333 . S
O189 C191 1.214 . S
O190 Cd186 2.352 . S
O190 C193 1.258 . S
C191 O188 1.320 . S
C191 O189 1.214 . S
O192 Cd184 2.277 . S
O192 C187 1.209 . S
C193 O190 1.258 . S
C193 O195 1.282 . S
O194 Cd186 2.277 . S
O194 C187 1.226 . S
O195 Cd186 2.356 . S
O195 C193 1.282 . S
C196 O197 1.306 . S
C196 O199 1.160 . S
O197 C196 1.306 . S
O197 Cd198 2.228 . S
Cd198 O197 2.228 . S
Cd198 O202 2.273 . S
Cd198 O206 2.277 . S
O199 C196 1.160 . S
O199 Cd200 2.203 . S
Cd200 O199 2.203 . S
Cd200 O202 2.411 . S
Cd200 O203 2.333 . S
Cd200 O204 2.352 . S
Cd200 O208 2.277 . S
Cd200 O209 2.356 . S
C201 O206 1.209 . S
C201 O208 1.226 . S
O202 Cd198 2.273 . S
O202 Cd200 2.411 . S
O202 C205 1.320 . S
O203 Cd200 2.333 . S
O203 C205 1.214 . S
O204 Cd200 2.352 . S
O204 C207 1.258 . S
C205 O202 1.320 . S
C205 O203 1.214 . S
O206 Cd198 2.277 . S
O206 C201 1.209 . S
C207 O204 1.258 . S
C207 O209 1.282 . S
O208 Cd200 2.277 . S
O208 C201 1.226 . S
O209 Cd200 2.356 . S
O209 C207 1.282 . S
C210 O211 1.306 . S
C210 O213 1.160 . S
O211 C210 1.306 . S
O211 Cd212 2.228 . S
Cd212 O211 2.228 . S
Cd212 O216 2.273 . S
Cd212 O220 2.277 . S
O213 C210 1.160 . S
O213 Cd214 2.203 . S
Cd214 O213 2.203 . S
Cd214 O216 2.411 . S
Cd214 O217 2.333 . S
Cd214 O218 2.352 . S
Cd214 O222 2.277 . S
Cd214 O223 2.356 . S
C215 O220 1.209 . S
C215 O222 1.226 . S
O216 Cd212 2.273 . S
O216 Cd214 2.411 . S
O216 C219 1.320 . S
O217 Cd214 2.333 . S
O217 C219 1.214 . S
O218 Cd214 2.352 . S
O218 C221 1.258 . S
C219 O216 1.320 . S
C219 O217 1.214 . S
O220 Cd212 2.277 . S
O220 C215 1.209 . S
C221 O218 1.258 . S
C221 O223 1.282 . S
O222 Cd214 2.277 . S
O222 C215 1.226 . S
O223 Cd214 2.356 . S
O223 C221 1.282 . S
C224 C225 1.363 . S
C224 C230 1.379 . S
C224 N232 1.356 . S
C225 C224 1.363 . S
C225 C231 1.363 1_545 S
C226 C227 1.363 1_565 S
C226 C231 1.379 . S
C226 N233 1.356 . S
C227 C226 1.363 1_545 S
C227 C230 1.363 . S
N228 C230 1.356 . S
N228 H240 0.984 . S
N228 H241 0.985 . S
N229 C231 1.356 . S
N229 H234 0.984 . S
N229 H235 0.985 . S
C230 C224 1.379 . S
C230 C227 1.363 . S
C230 N228 1.356 . S
C231 C225 1.363 1_565 S
C231 C226 1.379 . S
C231 N229 1.356 . S
N232 C224 1.356 . S
N232 H238 0.984 . S
N232 H239 0.984 . S
N233 C226 1.356 . S
N233 H236 0.984 . S
N233 H237 0.985 . S
H234 N229 0.984 . S
H235 N229 0.985 . S
H236 N233 0.984 . S
H237 N233 0.985 . S
H238 N232 0.984 . S
H239 N232 0.984 . S
H240 N228 0.984 . S
H241 N228 0.985 . S
C242 C243 1.363 . S
C242 C248 1.379 . S
C242 N250 1.356 . S
C243 C242 1.363 . S
C243 C249 1.363 1_565 S
C244 C245 1.363 1_545 S
C244 C249 1.379 . S
C244 N251 1.356 . S
C245 C244 1.363 1_565 S
C245 C248 1.363 . S
N246 C248 1.356 . S
N246 H258 0.984 . S
N246 H259 0.985 . S
N247 C249 1.356 . S
N247 H252 0.984 . S
N247 H253 0.985 . S
C248 C242 1.379 . S
C248 C245 1.363 . S
C248 N246 1.356 . S
C249 C243 1.363 1_545 S
C249 C244 1.379 . S
C249 N247 1.356 . S
N250 C242 1.356 . S
N250 H256 0.984 . S
N250 H257 0.984 . S
N251 C244 1.356 . S
N251 H254 0.984 . S
N251 H255 0.985 . S
H252 N247 0.984 . S
H253 N247 0.985 . S
H254 N251 0.984 . S
H255 N251 0.985 . S
H256 N250 0.984 . S
H257 N250 0.984 . S
H258 N246 0.984 . S
H259 N246 0.985 . S
C260 C261 1.363 . S
C260 C266 1.379 1_554 S
C260 N268 1.356 . S
C261 C260 1.363 . S
C261 C267 1.363 1_565 S
C262 C263 1.363 1_545 S
C262 C267 1.379 1_556 S
C262 N269 1.356 . S
C263 C262 1.363 1_565 S
C263 C266 1.363 . S
N264 C266 1.356 . S
N264 H276 0.984 . S
N264 H277 0.985 . S
N265 C267 1.356 . S
N265 H270 0.984 . S
N265 H271 0.985 . S
C266 C260 1.379 1_556 S
C266 C263 1.363 . S
C266 N264 1.356 . S
C267 C261 1.363 1_545 S
C267 C262 1.379 1_554 S
C267 N265 1.356 . S
N268 C260 1.356 . S
N268 H274 0.984 . S
N268 H275 0.984 . S
N269 C262 1.356 . S
N269 H272 0.984 . S
N269 H273 0.985 . S
H270 N265 0.984 . S
H271 N265 0.985 . S
H272 N269 0.984 . S
H273 N269 0.985 . S
H274 N268 0.984 . S
H275 N268 0.984 . S
H276 N264 0.984 . S
H277 N264 0.985 . S
C278 C279 1.363 1_565 S
C278 C284 1.379 1_556 S
C278 N286 1.356 . S
C279 C278 1.363 1_545 S
C279 C285 1.363 . S
C280 C281 1.363 . S
C280 C285 1.379 1_554 S
C280 N287 1.356 . S
C281 C280 1.363 . S
C281 C284 1.363 1_545 S
N282 C284 1.356 . S
N282 H294 0.984 . S
N282 H295 0.985 . S
N283 C285 1.356 . S
N283 H288 0.984 . S
N283 H289 0.985 . S
C284 C278 1.379 1_554 S
C284 C281 1.363 1_565 S
C284 N282 1.356 . S
C285 C279 1.363 . S
C285 C280 1.379 1_556 S
C285 N283 1.356 . S
N286 C278 1.356 . S
N286 H292 0.984 . S
N286 H293 0.984 . S
N287 C280 1.356 . S
N287 H290 0.984 . S
N287 H291 0.985 . S
H288 N283 0.984 . S
H289 N283 0.985 . S
H290 N287 0.984 . S
H291 N287 0.985 . S
H292 N286 0.984 . S
H293 N286 0.984 . S
H294 N282 0.984 . S
H295 N282 0.985 . S
C296 C297 1.363 . S
C296 C302 1.379 . S
C296 N304 1.356 . S
C297 C296 1.363 . S
C297 C303 1.363 . S
C298 C299 1.363 . S
C298 C303 1.379 . S
C298 N305 1.356 . S
C299 C298 1.363 . S
C299 C302 1.363 . S
N300 C302 1.356 . S
N300 H312 0.984 . S
N300 H313 0.985 . S
N301 C303 1.356 . S
N301 H306 0.984 . S
N301 H307 0.985 . S
C302 C296 1.379 . S
C302 C299 1.363 . S
C302 N300 1.356 . S
C303 C297 1.363 . S
C303 C298 1.379 . S
C303 N301 1.356 . S
N304 C296 1.356 . S
N304 H310 0.984 . S
N304 H311 0.984 . S
N305 C298 1.356 . S
N305 H308 0.984 . S
N305 H309 0.985 . S
H306 N301 0.984 . S
H307 N301 0.985 . S
H308 N305 0.984 . S
H309 N305 0.985 . S
H310 N304 0.984 . S
H311 N304 0.984 . S
H312 N300 0.984 . S
H313 N300 0.985 . S
C314 C315 1.363 . S
C314 C320 1.379 . S
C314 N322 1.356 . S
C315 C314 1.363 . S
C315 C321 1.363 . S
C316 C317 1.363 . S
C316 C321 1.379 . S
C316 N323 1.356 . S
C317 C316 1.363 . S
C317 C320 1.363 . S
N318 C320 1.356 . S
N318 H330 0.984 . S
N318 H331 0.985 . S
N319 C321 1.356 . S
N319 H324 0.984 . S
N319 H325 0.985 . S
C320 C314 1.379 . S
C320 C317 1.363 . S
C320 N318 1.356 . S
C321 C315 1.363 . S
C321 C316 1.379 . S
C321 N319 1.356 . S
N322 C314 1.356 . S
N322 H328 0.984 . S
N322 H329 0.984 . S
N323 C316 1.356 . S
N323 H326 0.984 . S
N323 H327 0.985 . S
H324 N319 0.984 . S
H325 N319 0.985 . S
H326 N323 0.984 . S
H327 N323 0.985 . S
H328 N322 0.984 . S
H329 N322 0.984 . S
H330 N318 0.984 . S
H331 N318 0.985 . S
C332 C333 1.363 . S
C332 C338 1.379 1_556 S
C332 N340 1.356 . S
C333 C332 1.363 . S
C333 C339 1.363 . S
C334 C335 1.363 . S
C334 C339 1.379 1_554 S
C334 N341 1.356 . S
C335 C334 1.363 . S
C335 C338 1.363 . S
N336 C338 1.356 . S
N336 H348 0.984 . S
N336 H349 0.985 . S
N337 C339 1.356 . S
N337 H342 0.984 . S
N337 H343 0.985 . S
C338 C332 1.379 1_554 S
C338 C335 1.363 . S
C338 N336 1.356 . S
C339 C333 1.363 . S
C339 C334 1.379 1_556 S
C339 N337 1.356 . S
N340 C332 1.356 . S
N340 H346 0.984 . S
N340 H347 0.984 . S
N341 C334 1.356 . S
N341 H344 0.984 . S
N341 H345 0.985 . S
H342 N337 0.984 . S
H343 N337 0.985 . S
H344 N341 0.984 . S
H345 N341 0.985 . S
H346 N340 0.984 . S
H347 N340 0.984 . S
H348 N336 0.984 . S
H349 N336 0.985 . S
C350 C351 1.363 . S
C350 C356 1.379 1_554 S
C350 N358 1.356 . S
C351 C350 1.363 . S
C351 C357 1.363 . S
C352 C353 1.363 . S
C352 C357 1.379 1_556 S
C352 N359 1.356 . S
C353 C352 1.363 . S
C353 C356 1.363 . S
N354 C356 1.356 . S
N354 H366 0.984 . S
N354 H367 0.985 . S
N355 C357 1.356 . S
N355 H360 0.984 . S
N355 H361 0.985 . S
C356 C350 1.379 1_556 S
C356 C353 1.363 . S
C356 N354 1.356 . S
C357 C351 1.363 . S
C357 C352 1.379 1_554 S
C357 N355 1.356 . S
N358 C350 1.356 . S
N358 H364 0.984 . S
N358 H365 0.984 . S
N359 C352 1.356 . S
N359 H362 0.984 . S
N359 H363 0.985 . S
H360 N355 0.984 . S
H361 N355 0.985 . S
H362 N359 0.984 . S
H363 N359 0.985 . S
H364 N358 0.984 . S
H365 N358 0.984 . S
H366 N354 0.984 . S
H367 N354 0.985 . S
C368 C369 1.363 . S
C368 C374 1.379 . S
C368 N376 1.356 . S
C369 C368 1.363 . S
C369 C375 1.363 1_565 S
C370 C371 1.363 . S
C370 C375 1.379 . S
C370 N377 1.356 . S
C371 C370 1.363 . S
C371 C374 1.363 1_545 S
N372 C374 1.356 . S
N372 H384 0.984 . S
N372 H385 0.985 . S
N373 C375 1.356 . S
N373 H378 0.984 . S
N373 H379 0.985 . S
C374 C368 1.379 . S
C374 C371 1.363 1_565 S
C374 N372 1.356 . S
C375 C369 1.363 1_545 S
C375 C370 1.379 . S
C375 N373 1.356 . S
N376 C368 1.356 . S
N376 H382 0.984 . S
N376 H383 0.984 . S
N377 C370 1.356 . S
N377 H380 0.984 . S
N377 H381 0.985 . S
H378 N373 0.984 . S
H379 N373 0.985 . S
H380 N377 0.984 . S
H381 N377 0.985 . S
H382 N376 0.984 . S
H383 N376 0.984 . S
H384 N372 0.984 . S
H385 N372 0.985 . S
C386 C387 1.363 1_545 S
C386 C392 1.379 . S
C386 N394 1.356 . S
C387 C386 1.363 1_565 S
C387 C393 1.363 . S
C388 C389 1.363 1_565 S
C388 C393 1.379 . S
C388 N395 1.356 . S
C389 C388 1.363 1_545 S
C389 C392 1.363 . S
N390 C392 1.356 . S
N390 H402 0.984 . S
N390 H403 0.985 . S
N391 C393 1.356 . S
N391 H396 0.984 . S
N391 H397 0.985 . S
C392 C386 1.379 . S
C392 C389 1.363 . S
C392 N390 1.356 . S
C393 C387 1.363 . S
C393 C388 1.379 . S
C393 N391 1.356 . S
N394 C386 1.356 . S
N394 H400 0.984 . S
N394 H401 0.984 . S
N395 C388 1.356 . S
N395 H398 0.984 . S
N395 H399 0.985 . S
H396 N391 0.984 . S
H397 N391 0.985 . S
H398 N395 0.984 . S
H399 N395 0.985 . S
H400 N394 0.984 . S
H401 N394 0.984 . S
H402 N390 0.984 . S
H403 N390 0.985 . S
C404 C405 1.363 1_545 S
C404 C410 1.379 . S
C404 N412 1.356 . S
C405 C404 1.363 1_565 S
C405 C411 1.363 . S
C406 C407 1.363 1_565 S
C406 C411 1.379 . S
C406 N413 1.356 . S
C407 C406 1.363 1_545 S
C407 C410 1.363 . S
N408 C410 1.356 . S
N408 H420 0.984 . S
N408 H421 0.985 . S
N409 C411 1.356 . S
N409 H414 0.984 . S
N409 H415 0.985 . S
C410 C404 1.379 . S
C410 C407 1.363 . S
C410 N408 1.356 . S
C411 C405 1.363 . S
C411 C406 1.379 . S
C411 N409 1.356 . S
N412 C404 1.356 . S
N412 H418 0.984 . S
N412 H419 0.984 . S
N413 C406 1.356 . S
N413 H416 0.984 . S
N413 H417 0.985 . S
H414 N409 0.984 . S
H415 N409 0.985 . S
H416 N413 0.984 . S
H417 N413 0.985 . S
H418 N412 0.984 . S
H419 N412 0.984 . S
H420 N408 0.984 . S
H421 N408 0.985 . S
C422 C423 1.363 . S
C422 C428 1.379 . S
C422 N430 1.356 . S
C423 C422 1.363 . S
C423 C429 1.363 1_545 S
C424 C425 1.363 . S
C424 C429 1.379 . S
C424 N431 1.356 . S
C425 C424 1.363 . S
C425 C428 1.363 1_565 S
N426 C428 1.356 . S
N426 H438 0.984 . S
N426 H439 0.985 . S
N427 C429 1.356 . S
N427 H432 0.984 . S
N427 H433 0.985 . S
C428 C422 1.379 . S
C428 C425 1.363 1_545 S
C428 N426 1.356 . S
C429 C423 1.363 1_565 S
C429 C424 1.379 . S
C429 N427 1.356 . S
N430 C422 1.356 . S
N430 H436 0.984 . S
N430 H437 0.984 . S
N431 C424 1.356 . S
N431 H434 0.984 . S
N431 H435 0.985 . S
H432 N427 0.984 . S
H433 N427 0.985 . S
H434 N431 0.984 . S
H435 N431 0.985 . S
H436 N430 0.984 . S
H437 N430 0.984 . S
H438 N426 0.984 . S
H439 N426 0.985 . S
C440 C441 1.363 . S
C440 C446 1.379 1_655 S
C440 N448 1.356 . S
C441 C440 1.363 . S
C441 C447 1.363 . S
C442 C443 1.363 . S
C442 C447 1.379 1_455 S
C442 N449 1.356 . S
C443 C442 1.363 . S
C443 C446 1.363 . S
N444 C446 1.356 . S
N444 H456 0.984 . S
N444 H457 0.985 . S
N445 C447 1.356 . S
N445 H450 0.984 . S
N445 H451 0.985 . S
C446 C440 1.379 1_455 S
C446 C443 1.363 . S
C446 N444 1.356 . S
C447 C441 1.363 . S
C447 C442 1.379 1_655 S
C447 N445 1.356 . S
N448 C440 1.356 . S
N448 H454 0.984 . S
N448 H455 0.984 . S
N449 C442 1.356 . S
N449 H452 0.984 . S
N449 H453 0.985 . S
H450 N445 0.984 . S
H451 N445 0.985 . S
H452 N449 0.984 . S
H453 N449 0.985 . S
H454 N448 0.984 . S
H455 N448 0.984 . S
H456 N444 0.984 . S
H457 N444 0.985 . S
C458 C459 1.363 . S
C458 C464 1.379 1_455 S
C458 N466 1.356 . S
C459 C458 1.363 . S
C459 C465 1.363 . S
C460 C461 1.363 . S
C460 C465 1.379 1_655 S
C460 N467 1.356 . S
C461 C460 1.363 . S
C461 C464 1.363 . S
N462 C464 1.356 . S
N462 H474 0.984 . S
N462 H475 0.985 . S
N463 C465 1.356 . S
N463 H468 0.984 . S
N463 H469 0.985 . S
C464 C458 1.379 1_655 S
C464 C461 1.363 . S
C464 N462 1.356 . S
C465 C459 1.363 . S
C465 C460 1.379 1_455 S
C465 N463 1.356 . S
N466 C458 1.356 . S
N466 H472 0.984 . S
N466 H473 0.984 . S
N467 C460 1.356 . S
N467 H470 0.984 . S
N467 H471 0.985 . S
H468 N463 0.984 . S
H469 N463 0.985 . S
H470 N467 0.984 . S
H471 N467 0.985 . S
H472 N466 0.984 . S
H473 N466 0.984 . S
H474 N462 0.984 . S
H475 N462 0.985 . S
C476 C477 1.363 . S
C476 C482 1.379 1_655 S
C476 N484 1.356 . S
C477 C476 1.363 . S
C477 C483 1.363 . S
C478 C479 1.363 . S
C478 C483 1.379 1_455 S
C478 N485 1.356 . S
C479 C478 1.363 . S
C479 C482 1.363 . S
N480 C482 1.356 . S
N480 H492 0.984 . S
N480 H493 0.985 . S
N481 C483 1.356 . S
N481 H486 0.984 . S
N481 H487 0.985 . S
C482 C476 1.379 1_455 S
C482 C479 1.363 . S
C482 N480 1.356 . S
C483 C477 1.363 . S
C483 C478 1.379 1_655 S
C483 N481 1.356 . S
N484 C476 1.356 . S
N484 H490 0.984 . S
N484 H491 0.984 . S
N485 C478 1.356 . S
N485 H488 0.984 . S
N485 H489 0.985 . S
H486 N481 0.984 . S
H487 N481 0.985 . S
H488 N485 0.984 . S
H489 N485 0.985 . S
H490 N484 0.984 . S
H491 N484 0.984 . S
H492 N480 0.984 . S
H493 N480 0.985 . S
C494 C495 1.363 . S
C494 C500 1.379 1_455 S
C494 N502 1.356 . S
C495 C494 1.363 . S
C495 C501 1.363 . S
C496 C497 1.363 . S
C496 C501 1.379 1_655 S
C496 N503 1.356 . S
C497 C496 1.363 . S
C497 C500 1.363 . S
N498 C500 1.356 . S
N498 H510 0.984 . S
N498 H511 0.985 . S
N499 C501 1.356 . S
N499 H504 0.984 . S
N499 H505 0.985 . S
C500 C494 1.379 1_655 S
C500 C497 1.363 . S
C500 N498 1.356 . S
C501 C495 1.363 . S
C501 C496 1.379 1_455 S
C501 N499 1.356 . S
N502 C494 1.356 . S
N502 H508 0.984 . S
N502 H509 0.984 . S
N503 C496 1.356 . S
N503 H506 0.984 . S
N503 H507 0.985 . S
H504 N499 0.984 . S
H505 N499 0.985 . S
H506 N503 0.984 . S
H507 N503 0.985 . S
H508 N502 0.984 . S
H509 N502 0.984 . S
H510 N498 0.984 . S
H511 N498 0.985 . S
C512 C513 1.363 . S
C512 C518 1.379 . S
C512 N520 1.356 . S
C513 C512 1.363 . S
C513 C519 1.363 . S
C514 C515 1.363 . S
C514 C519 1.379 . S
C514 N521 1.356 . S
C515 C514 1.363 . S
C515 C518 1.363 . S
N516 C518 1.356 . S
N516 H528 0.984 . S
N516 H529 0.985 . S
N517 C519 1.356 . S
N517 H522 0.984 . S
N517 H523 0.985 . S
C518 C512 1.379 . S
C518 C515 1.363 . S
C518 N516 1.356 . S
C519 C513 1.363 . S
C519 C514 1.379 . S
C519 N517 1.356 . S
N520 C512 1.356 . S
N520 H526 0.984 . S
N520 H527 0.984 . S
N521 C514 1.356 . S
N521 H524 0.984 . S
N521 H525 0.985 . S
H522 N517 0.984 . S
H523 N517 0.985 . S
H524 N521 0.984 . S
H525 N521 0.985 . S
H526 N520 0.984 . S
H527 N520 0.984 . S
H528 N516 0.984 . S
H529 N516 0.985 . S
C530 C531 1.363 . S
C530 C536 1.379 . S
C530 N538 1.356 . S
C531 C530 1.363 . S
C531 C537 1.363 . S
C532 C533 1.363 . S
C532 C537 1.379 . S
C532 N539 1.356 . S
C533 C532 1.363 . S
C533 C536 1.363 . S
N534 C536 1.356 . S
N534 H546 0.984 . S
N534 H547 0.985 . S
N535 C537 1.356 . S
N535 H540 0.984 . S
N535 H541 0.985 . S
C536 C530 1.379 . S
C536 C533 1.363 . S
C536 N534 1.356 . S
C537 C531 1.363 . S
C537 C532 1.379 . S
C537 N535 1.356 . S
N538 C530 1.356 . S
N538 H544 0.984 . S
N538 H545 0.984 . S
N539 C532 1.356 . S
N539 H542 0.984 . S
N539 H543 0.985 . S
H540 N535 0.984 . S
H541 N535 0.985 . S
H542 N539 0.984 . S
H543 N539 0.985 . S
H544 N538 0.984 . S
H545 N538 0.984 . S
H546 N534 0.984 . S
H547 N534 0.985 . S
C548 C549 1.363 . S
C548 C554 1.379 . S
C548 N556 1.356 . S
C549 C548 1.363 . S
C549 C555 1.363 . S
C550 C551 1.363 . S
C550 C555 1.379 . S
C550 N557 1.356 . S
C551 C550 1.363 . S
C551 C554 1.363 . S
N552 C554 1.356 . S
N552 H564 0.984 . S
N552 H565 0.985 . S
N553 C555 1.356 . S
N553 H558 0.984 . S
N553 H559 0.985 . S
C554 C548 1.379 . S
C554 C551 1.363 . S
C554 N552 1.356 . S
C555 C549 1.363 . S
C555 C550 1.379 . S
C555 N553 1.356 . S
N556 C548 1.356 . S
N556 H562 0.984 . S
N556 H563 0.984 . S
N557 C550 1.356 . S
N557 H560 0.984 . S
N557 H561 0.985 . S
H558 N553 0.984 . S
H559 N553 0.985 . S
H560 N557 0.984 . S
H561 N557 0.985 . S
H562 N556 0.984 . S
H563 N556 0.984 . S
H564 N552 0.984 . S
H565 N552 0.985 . S
C566 C567 1.363 . S
C566 C572 1.379 . S
C566 N574 1.356 . S
C567 C566 1.363 . S
C567 C573 1.363 . S
C568 C569 1.363 . S
C568 C573 1.379 . S
C568 N575 1.356 . S
C569 C568 1.363 . S
C569 C572 1.363 . S
N570 C572 1.356 . S
N570 H582 0.984 . S
N570 H583 0.985 . S
N571 C573 1.356 . S
N571 H576 0.984 . S
N571 H577 0.985 . S
C572 C566 1.379 . S
C572 C569 1.363 . S
C572 N570 1.356 . S
C573 C567 1.363 . S
C573 C568 1.379 . S
C573 N571 1.356 . S
N574 C566 1.356 . S
N574 H580 0.984 . S
N574 H581 0.984 . S
N575 C568 1.356 . S
N575 H578 0.984 . S
N575 H579 0.985 . S
H576 N571 0.984 . S
H577 N571 0.985 . S
H578 N575 0.984 . S
H579 N575 0.985 . S
H580 N574 0.984 . S
H581 N574 0.984 . S
H582 N570 0.984 . S
H583 N570 0.985 . S
C584 C585 1.363 . S
C584 C590 1.379 . S
C584 N592 1.356 . S
C585 C584 1.363 . S
C585 C591 1.363 . S
C586 C587 1.363 . S
C586 C591 1.379 . S
C586 N593 1.356 . S
C587 C586 1.363 . S
C587 C590 1.363 . S
N588 C590 1.356 . S
N588 H600 0.984 . S
N588 H601 0.985 . S
N589 C591 1.356 . S
N589 H594 0.984 . S
N589 H595 0.985 . S
C590 C584 1.379 . S
C590 C587 1.363 . S
C590 N588 1.356 . S
C591 C585 1.363 . S
C591 C586 1.379 . S
C591 N589 1.356 . S
N592 C584 1.356 . S
N592 H598 0.984 . S
N592 H599 0.984 . S
N593 C586 1.356 . S
N593 H596 0.984 . S
N593 H597 0.985 . S
H594 N589 0.984 . S
H595 N589 0.985 . S
H596 N593 0.984 . S
H597 N593 0.985 . S
H598 N592 0.984 . S
H599 N592 0.984 . S
H600 N588 0.984 . S
H601 N588 0.985 . S
C602 C603 1.363 . S
C602 C608 1.379 . S
C602 N610 1.356 . S
C603 C602 1.363 . S
C603 C609 1.363 . S
C604 C605 1.363 . S
C604 C609 1.379 . S
C604 N611 1.356 . S
C605 C604 1.363 . S
C605 C608 1.363 . S
N606 C608 1.356 . S
N606 H618 0.984 . S
N606 H619 0.985 . S
N607 C609 1.356 . S
N607 H612 0.984 . S
N607 H613 0.985 . S
C608 C602 1.379 . S
C608 C605 1.363 . S
C608 N606 1.356 . S
C609 C603 1.363 . S
C609 C604 1.379 . S
C609 N607 1.356 . S
N610 C602 1.356 . S
N610 H616 0.984 . S
N610 H617 0.984 . S
N611 C604 1.356 . S
N611 H614 0.984 . S
N611 H615 0.985 . S
H612 N607 0.984 . S
H613 N607 0.985 . S
H614 N611 0.984 . S
H615 N611 0.985 . S
H616 N610 0.984 . S
H617 N610 0.984 . S
H618 N606 0.984 . S
H619 N606 0.985 . S
C620 C621 1.363 . S
C620 C626 1.379 . S
C620 N628 1.356 . S
C621 C620 1.363 . S
C621 C627 1.363 . S
C622 C623 1.363 . S
C622 C627 1.379 . S
C622 N629 1.356 . S
C623 C622 1.363 . S
C623 C626 1.363 . S
N624 C626 1.356 . S
N624 H636 0.984 . S
N624 H637 0.985 . S
N625 C627 1.356 . S
N625 H630 0.984 . S
N625 H631 0.985 . S
C626 C620 1.379 . S
C626 C623 1.363 . S
C626 N624 1.356 . S
C627 C621 1.363 . S
C627 C622 1.379 . S
C627 N625 1.356 . S
N628 C620 1.356 . S
N628 H634 0.984 . S
N628 H635 0.984 . S
N629 C622 1.356 . S
N629 H632 0.984 . S
N629 H633 0.985 . S
H630 N625 0.984 . S
H631 N625 0.985 . S
H632 N629 0.984 . S
H633 N629 0.985 . S
H634 N628 0.984 . S
H635 N628 0.984 . S
H636 N624 0.984 . S
H637 N624 0.985 . S
C638 C639 1.363 . S
C638 C644 1.379 . S
C638 N646 1.356 . S
C639 C638 1.363 . S
C639 C645 1.363 . S
C640 C641 1.363 . S
C640 C645 1.379 . S
C640 N647 1.356 . S
C641 C640 1.363 . S
C641 C644 1.363 . S
N642 C644 1.356 . S
N642 H654 0.984 . S
N642 H655 0.985 . S
N643 C645 1.356 . S
N643 H648 0.984 . S
N643 H649 0.985 . S
C644 C638 1.379 . S
C644 C641 1.363 . S
C644 N642 1.356 . S
C645 C639 1.363 . S
C645 C640 1.379 . S
C645 N643 1.356 . S
N646 C638 1.356 . S
N646 H652 0.984 . S
N646 H653 0.984 . S
N647 C640 1.356 . S
N647 H650 0.984 . S
N647 H651 0.985 . S
H648 N643 0.984 . S
H649 N643 0.985 . S
H650 N647 0.984 . S
H651 N647 0.985 . S
H652 N646 0.984 . S
H653 N646 0.984 . S
H654 N642 0.984 . S
H655 N642 0.985 . S
C656 C657 1.363 . S
C656 C662 1.379 . S
C656 N664 1.356 . S
C657 C656 1.363 . S
C657 C663 1.363 1_565 S
C658 C659 1.363 . S
C658 C663 1.379 . S
C658 N665 1.356 . S
C659 C658 1.363 . S
C659 C662 1.363 1_545 S
N660 C662 1.356 . S
N660 H672 0.984 . S
N660 H673 0.985 . S
N661 C663 1.356 . S
N661 H666 0.984 . S
N661 H667 0.985 . S
C662 C656 1.379 . S
C662 C659 1.363 1_565 S
C662 N660 1.356 . S
C663 C657 1.363 1_545 S
C663 C658 1.379 . S
C663 N661 1.356 . S
N664 C656 1.356 . S
N664 H670 0.984 . S
N664 H671 0.984 . S
N665 C658 1.356 . S
N665 H668 0.984 . S
N665 H669 0.985 . S
H666 N661 0.984 . S
H667 N661 0.985 . S
H668 N665 0.984 . S
H669 N665 0.985 . S
H670 N664 0.984 . S
H671 N664 0.984 . S
H672 N660 0.984 . S
H673 N660 0.985 . S
C674 C675 1.363 1_545 S
C674 C680 1.379 . S
C674 N682 1.356 . S
C675 C674 1.363 1_565 S
C675 C681 1.363 . S
C676 C677 1.363 1_565 S
C676 C681 1.379 . S
C676 N683 1.356 . S
C677 C676 1.363 1_545 S
C677 C680 1.363 . S
N678 C680 1.356 . S
N678 H690 0.984 . S
N678 H691 0.985 . S
N679 C681 1.356 . S
N679 H684 0.984 . S
N679 H685 0.985 . S
C680 C674 1.379 . S
C680 C677 1.363 . S
C680 N678 1.356 . S
C681 C675 1.363 . S
C681 C676 1.379 . S
C681 N679 1.356 . S
N682 C674 1.356 . S
N682 H688 0.984 . S
N682 H689 0.984 . S
N683 C676 1.356 . S
N683 H686 0.984 . S
N683 H687 0.985 . S
H684 N679 0.984 . S
H685 N679 0.985 . S
H686 N683 0.984 . S
H687 N683 0.985 . S
H688 N682 0.984 . S
H689 N682 0.984 . S
H690 N678 0.984 . S
H691 N678 0.985 . S
C692 C693 1.363 . S
C692 C698 1.379 . S
C692 N700 1.356 . S
C693 C692 1.363 . S
C693 C699 1.363 1_565 S
C694 C695 1.363 . S
C694 C699 1.379 . S
C694 N701 1.356 . S
C695 C694 1.363 . S
C695 C698 1.363 1_545 S
N696 C698 1.356 . S
N696 H708 0.984 . S
N696 H709 0.985 . S
N697 C699 1.356 . S
N697 H702 0.984 . S
N697 H703 0.985 . S
C698 C692 1.379 . S
C698 C695 1.363 1_565 S
C698 N696 1.356 . S
C699 C693 1.363 1_545 S
C699 C694 1.379 . S
C699 N697 1.356 . S
N700 C692 1.356 . S
N700 H706 0.984 . S
N700 H707 0.984 . S
N701 C694 1.356 . S
N701 H704 0.984 . S
N701 H705 0.985 . S
H702 N697 0.984 . S
H703 N697 0.985 . S
H704 N701 0.984 . S
H705 N701 0.985 . S
H706 N700 0.984 . S
H707 N700 0.984 . S
H708 N696 0.984 . S
H709 N696 0.985 . S
C710 C711 1.363 . S
C710 C716 1.379 . S
C710 N718 1.356 . S
C711 C710 1.363 . S
C711 C717 1.363 1_545 S
C712 C713 1.363 . S
C712 C717 1.379 . S
C712 N719 1.356 . S
C713 C712 1.363 . S
C713 C716 1.363 1_565 S
N714 C716 1.356 . S
N714 H726 0.984 . S
N714 H727 0.985 . S
N715 C717 1.356 . S
N715 H720 0.984 . S
N715 H721 0.985 . S
C716 C710 1.379 . S
C716 C713 1.363 1_545 S
C716 N714 1.356 . S
C717 C711 1.363 1_565 S
C717 C712 1.379 . S
C717 N715 1.356 . S
N718 C710 1.356 . S
N718 H724 0.984 . S
N718 H725 0.984 . S
N719 C712 1.356 . S
N719 H722 0.984 . S
N719 H723 0.985 . S
H720 N715 0.984 . S
H721 N715 0.985 . S
H722 N719 0.984 . S
H723 N719 0.985 . S
H724 N718 0.984 . S
H725 N718 0.984 . S
H726 N714 0.984 . S
H727 N714 0.985 . S
C728 C729 1.363 . S
C728 C734 1.379 . S
C728 N736 1.356 . S
C729 C728 1.363 . S
C729 C735 1.363 . S
C730 C731 1.363 . S
C730 C735 1.379 . S
C730 N737 1.356 . S
C731 C730 1.363 . S
C731 C734 1.363 . S
N732 C734 1.356 . S
N732 H744 0.984 . S
N732 H745 0.985 . S
N733 C735 1.356 . S
N733 H738 0.984 . S
N733 H739 0.985 . S
C734 C728 1.379 . S
C734 C731 1.363 . S
C734 N732 1.356 . S
C735 C729 1.363 . S
C735 C730 1.379 . S
C735 N733 1.356 . S
N736 C728 1.356 . S
N736 H742 0.984 . S
N736 H743 0.984 . S
N737 C730 1.356 . S
N737 H740 0.984 . S
N737 H741 0.985 . S
H738 N733 0.984 . S
H739 N733 0.985 . S
H740 N737 0.984 . S
H741 N737 0.985 . S
H742 N736 0.984 . S
H743 N736 0.984 . S
H744 N732 0.984 . S
H745 N732 0.985 . S
C746 C747 1.363 . S
C746 C752 1.379 . S
C746 N754 1.356 . S
C747 C746 1.363 . S
C747 C753 1.363 . S
C748 C749 1.363 . S
C748 C753 1.379 . S
C748 N755 1.356 . S
C749 C748 1.363 . S
C749 C752 1.363 . S
N750 C752 1.356 . S
N750 H762 0.984 . S
N750 H763 0.985 . S
N751 C753 1.356 . S
N751 H756 0.984 . S
N751 H757 0.985 . S
C752 C746 1.379 . S
C752 C749 1.363 . S
C752 N750 1.356 . S
C753 C747 1.363 . S
C753 C748 1.379 . S
C753 N751 1.356 . S
N754 C746 1.356 . S
N754 H760 0.984 . S
N754 H761 0.984 . S
N755 C748 1.356 . S
N755 H758 0.984 . S
N755 H759 0.985 . S
H756 N751 0.984 . S
H757 N751 0.985 . S
H758 N755 0.984 . S
H759 N755 0.985 . S
H760 N754 0.984 . S
H761 N754 0.984 . S
H762 N750 0.984 . S
H763 N750 0.985 . S
C764 C765 1.363 . S
C764 C770 1.379 . S
C764 N772 1.356 . S
C765 C764 1.363 . S
C765 C771 1.363 . S
C766 C767 1.363 . S
C766 C771 1.379 . S
C766 N773 1.356 . S
C767 C766 1.363 . S
C767 C770 1.363 . S
N768 C770 1.356 . S
N768 H780 0.984 . S
N768 H781 0.985 . S
N769 C771 1.356 . S
N769 H774 0.984 . S
N769 H775 0.985 . S
C770 C764 1.379 . S
C770 C767 1.363 . S
C770 N768 1.356 . S
C771 C765 1.363 . S
C771 C766 1.379 . S
C771 N769 1.356 . S
N772 C764 1.356 . S
N772 H778 0.984 . S
N772 H779 0.984 . S
N773 C766 1.356 . S
N773 H776 0.984 . S
N773 H777 0.985 . S
H774 N769 0.984 . S
H775 N769 0.985 . S
H776 N773 0.984 . S
H777 N773 0.985 . S
H778 N772 0.984 . S
H779 N772 0.984 . S
H780 N768 0.984 . S
H781 N768 0.985 . S
C782 C783 1.363 . S
C782 C788 1.379 . S
C782 N790 1.356 . S
C783 C782 1.363 . S
C783 C789 1.363 . S
C784 C785 1.363 . S
C784 C789 1.379 . S
C784 N791 1.356 . S
C785 C784 1.363 . S
C785 C788 1.363 . S
N786 C788 1.356 . S
N786 H798 0.984 . S
N786 H799 0.985 . S
N787 C789 1.356 . S
N787 H792 0.984 . S
N787 H793 0.985 . S
C788 C782 1.379 . S
C788 C785 1.363 . S
C788 N786 1.356 . S
C789 C783 1.363 . S
C789 C784 1.379 . S
C789 N787 1.356 . S
N790 C782 1.356 . S
N790 H796 0.984 . S
N790 H797 0.984 . S
N791 C784 1.356 . S
N791 H794 0.984 . S
N791 H795 0.985 . S
H792 N787 0.984 . S
H793 N787 0.985 . S
H794 N791 0.984 . S
H795 N791 0.985 . S
H796 N790 0.984 . S
H797 N790 0.984 . S
H798 N786 0.984 . S
H799 N786 0.985 . S
C225 C9 1.341 . S
C227 C79 1.342 . S
C243 C65 1.342 . S
C245 C23 1.342 . S
C261 C37 1.341 . S
C263 C107 1.342 . S
C279 C93 1.342 . S
C281 C51 1.342 . S
C297 C191 1.342 . S
C299 C121 1.342 . S
C315 C177 1.341 . S
C317 C135 1.342 . S
C333 C219 1.342 . S
C335 C149 1.342 . S
C351 C163 1.342 . S
C353 C205 1.341 . S
C369 C19 1.503 . S
C371 C5 1.503 . S
C387 C33 1.503 . S
C389 C47 1.503 . S
C405 C61 1.503 . S
C407 C75 1.503 . S
C423 C89 1.503 . S
C425 C103 1.503 . S
C441 C117 1.503 . S
C443 C131 1.503 . S
C459 C159 1.503 . S
C461 C145 1.503 . S
C477 C187 1.503 . S
C479 C173 1.503 . S
C495 C201 1.503 . S
C497 C215 1.503 . S
C513 C137 1.512 . S
C515 C11 1.512 . S
C531 C25 1.512 . S
C533 C123 1.512 . S
C549 C165 1.512 . S
C551 C39 1.512 . S
C567 C53 1.512 . S
C569 C151 1.512 . S
C585 C67 1.512 . S
C587 C193 1.512 . S
C603 C179 1.512 . S
C605 C81 1.512 . S
C621 C95 1.512 . S
C623 C221 1.512 . S
C639 C207 1.512 . S
C641 C109 1.512 . S
C657 C0 1.457 . S
C659 C28 1.457 . S
C675 C42 1.456 . S
C677 C14 1.456 . S
C693 C84 1.457 . S
C695 C56 1.457 . S
C711 C98 1.456 . S
C713 C70 1.456 . S
C729 C140 1.457 . S
C731 C112 1.457 . S
C747 C126 1.456 . S
C749 C154 1.456 . S
C765 C196 1.457 . S
C767 C168 1.457 . S
C783 C182 1.456 . S
C785 C210 1.456 . S
