# Generated by pormake.
# Topology uoc, (4)-cn, num edge types: 1
# Building blocks:
#     Node 0, Type 0, BuildingBlock: KUFVIS_clean_sbu_0, # of connection points: 4
#     Node 1, Type 0, BuildingBlock: KUFVIS_clean_sbu_0, # of connection points: 4
#     Node 2, Type 0, BuildingBlock: KUFVIS_clean_sbu_0, # of connection points: 4
#     Node 3, Type 0, BuildingBlock: KUFVIS_clean_sbu_0, # of connection points: 4
#     Node 4, Type 0, BuildingBlock: KUFVIS_clean_sbu_0, # of connection points: 4
#     Node 5, Type 0, BuildingBlock: KUFVIS_clean_sbu_0, # of connection points: 4
#     Node 6, Type 0, BuildingBlock: KUFVIS_clean_sbu_0, # of connection points: 4
#     Node 7, Type 0, BuildingBlock: KUFVIS_clean_sbu_0, # of connection points: 4
#     Edge 8, Type (0, 0), BuildingBlock: ZUJKAS_clean_linker_0, # of connection points: 2
#     Edge 9, Type (0, 0), BuildingBlock: ZUJKAS_clean_linker_0, # of connection points: 2
#     Edge 10, Type (0, 0), BuildingBlock: ZUJKAS_clean_linker_0, # of connection points: 2
#     Edge 11, Type (0, 0), BuildingBlock: ZUJKAS_clean_linker_0, # of connection points: 2
#     Edge 12, Type (0, 0), BuildingBlock: ZUJKAS_clean_linker_0, # of connection points: 2
#     Edge 13, Type (0, 0), BuildingBlock: ZUJKAS_clean_linker_0, # of connection points: 2
#     Edge 14, Type (0, 0), BuildingBlock: ZUJKAS_clean_linker_0, # of connection points: 2
#     Edge 15, Type (0, 0), BuildingBlock: ZUJKAS_clean_linker_0, # of connection points: 2
#     Edge 16, Type (0, 0), BuildingBlock: ZUJKAS_clean_linker_0, # of connection points: 2
#     Edge 17, Type (0, 0), BuildingBlock: ZUJKAS_clean_linker_0, # of connection points: 2
#     Edge 18, Type (0, 0), BuildingBlock: ZUJKAS_clean_linker_0, # of connection points: 2
#     Edge 19, Type (0, 0), BuildingBlock: ZUJKAS_clean_linker_0, # of connection points: 2
#     Edge 20, Type (0, 0), BuildingBlock: ZUJKAS_clean_linker_0, # of connection points: 2
#     Edge 21, Type (0, 0), BuildingBlock: ZUJKAS_clean_linker_0, # of connection points: 2
#     Edge 22, Type (0, 0), BuildingBlock: ZUJKAS_clean_linker_0, # of connection points: 2
#     Edge 23, Type (0, 0), BuildingBlock: ZUJKAS_clean_linker_0, # of connection points: 2
# Relax obj value: 0.118
# Max RMSD: 0.133
# Mean RMSD: 0.131
data_MOF--net-uoc--node1-KUFVIS_clean_sbu_0--edge1-ZUJKAS_clean_linker_0
_symmetry_space_group_name_H-M    P1
_symmetry_Int_Tables_number       1
_symmetry_cell_setting            triclinic
loop_
_symmetry_equiv_pos_as_xyz
'x, y, z'
_cell_length_a     35.226981
_cell_length_b     35.26733
_cell_length_c     70.239841
_cell_angle_alpha  90.475063
_cell_angle_beta   90.481213
_cell_angle_gamma 89.985466
loop_
_atom_site_label
_atom_site_type_symbol
_atom_site_fract_x
_atom_site_fract_y
_atom_site_fract_z
_atom_type_partial_charge
Mn0 Mn 0.09465 0.23409 0.12534 0.0
Mn1 Mn 0.17543 0.18449 0.13221 0.0
C2 C 0.12067 0.2292 0.1554 0.0
C3 C 0.06454 0.29088 0.11784 0.0
C4 C 0.09847 0.14759 0.12582 0.0
O5 O 0.1159 0.22894 0.09869 0.0
O6 O 0.17155 0.19991 0.10511 0.0
C7 C 0.23137 0.24543 0.12541 0.0
N8 N 0.21666 0.21853 0.13703 0.0
C9 C 0.26259 0.23299 0.16159 0.0
C10 C 0.27836 0.26072 0.14985 0.0
C11 C 0.26261 0.26702 0.13171 0.0
C12 C 0.23149 0.21234 0.15455 0.0
H13 H 0.21933 0.25039 0.11147 0.0
C14 C 0.14803 0.21572 0.09362 0.0
O15 O 0.04743 0.2585 0.11552 0.0
O16 O 0.0992 0.29007 0.12418 0.0
N17 N 0.18277 0.16843 0.15794 0.0
C18 C 0.16304 0.142 0.16787 0.0
C19 C 0.17451 0.13309 0.1865 0.0
C20 C 0.20629 0.15119 0.19466 0.0
C21 C 0.22635 0.17802 0.1841 0.0
C22 C 0.21366 0.18567 0.16559 0.0
H23 H 0.13864 0.12793 0.16167 0.0
O24 O 0.08504 0.23771 0.15328 0.0
O25 O 0.13983 0.22413 0.1399 0.0
O26 O 0.07919 0.17817 0.12503 0.0
O27 O 0.13454 0.14697 0.12789 0.0
C28 C 0.25819 0.19776 0.1913 0.0
C29 C 0.27618 0.22538 0.1801 0.0
H30 H 0.30239 0.2775 0.15467 0.0
H31 H 0.27453 0.28848 0.12259 0.0
H32 H 0.15886 0.11236 0.19456 0.0
H33 H 0.21493 0.1444 0.20907 0.0
H34 H 0.26876 0.19231 0.20554 0.0
H35 H 0.30024 0.24083 0.18592 0.0
Mn36 Mn 0.76485 0.61945 0.3728 0.0
Mn37 Mn 0.81427 0.70011 0.38072 0.0
C38 C 0.766 0.64662 0.40262 0.0
C39 C 0.70867 0.5893 0.36367 0.0
C40 C 0.85133 0.62271 0.37713 0.0
O41 O 0.77377 0.63911 0.34623 0.0
O42 O 0.80377 0.69417 0.35293 0.0
C43 C 0.75496 0.75542 0.36974 0.0
N44 N 0.77966 0.74162 0.38299 0.0
C45 C 0.75984 0.7882 0.40609 0.0
C46 C 0.73437 0.80308 0.39264 0.0
C47 C 0.73191 0.78658 0.3744 0.0
C48 C 0.7823 0.7573 0.40059 0.0
H49 H 0.7528 0.74268 0.35574 0.0
C50 C 0.78914 0.67014 0.34118 0.0
O51 O 0.74114 0.5719 0.36271 0.0
O52 O 0.70915 0.62433 0.36938 0.0
N53 N 0.82592 0.70944 0.40702 0.0
C54 C 0.85069 0.69066 0.4186 0.0
C55 C 0.8558 0.70302 0.43751 0.0
C56 C 0.83558 0.73463 0.44428 0.0
C57 C 0.81061 0.75377 0.43204 0.0
C58 C 0.80697 0.7404 0.41328 0.0
H59 H 0.86619 0.66625 0.4135 0.0
O60 O 0.75761 0.61101 0.40051 0.0
O61 O 0.7732 0.66528 0.38719 0.0
O62 O 0.82073 0.60372 0.37492 0.0
O63 O 0.85201 0.65877 0.37911 0.0
C64 C 0.78866 0.78516 0.43781 0.0
C65 C 0.76328 0.80234 0.42485 0.0
H66 H 0.71635 0.82694 0.39622 0.0
H67 H 0.71218 0.79779 0.36397 0.0
H68 H 0.87512 0.68809 0.44687 0.0
H69 H 0.83927 0.74381 0.45894 0.0
H70 H 0.79072 0.796 0.45226 0.0
H71 H 0.74622 0.82617 0.42953 0.0
Mn72 Mn 0.38433 0.23355 0.60793 0.0
Mn73 Mn 0.30217 0.18484 0.6049 0.0
C74 C 0.35164 0.2309 0.57954 0.0
C75 C 0.41604 0.28991 0.61502 0.0
C76 C 0.37979 0.14741 0.60598 0.0
O77 O 0.3698 0.22584 0.63552 0.0
O78 O 0.31193 0.19921 0.63196 0.0
C79 C 0.24837 0.24564 0.61567 0.0
N80 N 0.26049 0.21929 0.60281 0.0
C81 C 0.21124 0.23655 0.58056 0.0
C82 C 0.19807 0.26369 0.59363 0.0
C83 C 0.21674 0.26826 0.61126 0.0
C84 C 0.24265 0.21455 0.58584 0.0
H85 H 0.26281 0.24943 0.62918 0.0
C86 C 0.3388 0.21318 0.64227 0.0
O87 O 0.43358 0.25749 0.61547 0.0
O88 O 0.38008 0.28929 0.61098 0.0
N89 N 0.28955 0.16989 0.57935 0.0
C90 C 0.30711 0.14399 0.56793 0.0
C91 C 0.29268 0.13691 0.54954 0.0
C92 C 0.26033 0.15644 0.54311 0.0
C93 C 0.24256 0.18273 0.55518 0.0
C94 C 0.25797 0.18831 0.57343 0.0
H95 H 0.33212 0.12907 0.57274 0.0
O96 O 0.38745 0.23951 0.57985 0.0
O97 O 0.33603 0.22468 0.59591 0.0
O98 O 0.39946 0.17774 0.6055 0.0
O99 O 0.34353 0.14692 0.6066 0.0
C100 C 0.21062 0.20419 0.54966 0.0
C101 C 0.19497 0.23106 0.56235 0.0
H102 H 0.17389 0.28143 0.59021 0.0
H103 H 0.20688 0.28929 0.62137 0.0
H104 H 0.3066 0.11662 0.5403 0.0
H105 H 0.24956 0.15123 0.52884 0.0
H106 H 0.19819 0.2006 0.53561 0.0
H107 H 0.17071 0.24772 0.55786 0.0
Mn108 Mn 0.75837 0.90824 0.85944 0.0
Mn109 Mn 0.80736 0.82763 0.85104 0.0
C110 C 0.75769 0.88089 0.82956 0.0
C111 C 0.70278 0.93843 0.86899 0.0
C112 C 0.84458 0.90498 0.85469 0.0
O113 O 0.76836 0.88813 0.886 0.0
O114 O 0.79763 0.83306 0.87874 0.0
C115 C 0.74869 0.77192 0.86189 0.0
N116 N 0.7729 0.78597 0.84868 0.0
C117 C 0.75386 0.73845 0.82575 0.0
C118 C 0.72887 0.72334 0.83914 0.0
C119 C 0.72622 0.74021 0.85727 0.0
C120 C 0.77559 0.77003 0.83118 0.0
H121 H 0.74651 0.78483 0.87583 0.0
C122 C 0.7834 0.85661 0.89071 0.0
O123 O 0.73534 0.95573 0.86977 0.0
O124 O 0.70282 0.9035 0.86311 0.0
N125 N 0.81804 0.81871 0.8247 0.0
C126 C 0.84216 0.83783 0.81314 0.0
C127 C 0.84741 0.82509 0.79435 0.0
C128 C 0.82808 0.79271 0.7877 0.0
C129 C 0.8036 0.77335 0.7999 0.0
C130 C 0.79966 0.78724 0.81851 0.0
H131 H 0.85719 0.86267 0.81819 0.0
O132 O 0.74958 0.91658 0.83165 0.0
O133 O 0.76595 0.86252 0.84497 0.0
O134 O 0.81411 0.92399 0.85704 0.0
O135 O 0.84513 0.86893 0.85275 0.0
C136 C 0.78261 0.74109 0.79425 0.0
C137 C 0.75764 0.72375 0.80715 0.0
H138 H 0.7114 0.69896 0.83562 0.0
H139 H 0.70688 0.72881 0.86766 0.0
H140 H 0.86632 0.8402 0.78501 0.0
H141 H 0.83211 0.78307 0.77317 0.0
H142 H 0.78514 0.72961 0.77997 0.0
H143 H 0.74126 0.6993 0.80255 0.0
Mn144 Mn 0.60744 0.73406 0.62341 0.0
Mn145 Mn 0.68865 0.68436 0.62892 0.0
C146 C 0.63342 0.7258 0.65333 0.0
C147 C 0.57616 0.79097 0.61753 0.0
C148 C 0.61201 0.64728 0.62249 0.0
O149 O 0.62856 0.7326 0.59666 0.0
O150 O 0.68277 0.70049 0.60204 0.0
C151 C 0.74337 0.7461 0.62146 0.0
N152 N 0.73004 0.71849 0.63308 0.0
C153 C 0.78015 0.72988 0.65589 0.0
C154 C 0.79452 0.75833 0.64413 0.0
C155 C 0.77592 0.76661 0.62689 0.0
C156 C 0.74743 0.71063 0.64981 0.0
H157 H 0.72933 0.75235 0.60812 0.0
C158 C 0.65977 0.71823 0.59105 0.0
O159 O 0.55988 0.75859 0.61401 0.0
O160 O 0.6106 0.79026 0.62417 0.0
N161 N 0.6985 0.66736 0.65427 0.0
C162 C 0.67966 0.64073 0.66449 0.0
C163 C 0.69378 0.63019 0.68243 0.0
C164 C 0.72745 0.64659 0.68951 0.0
C165 C 0.7465 0.67367 0.67865 0.0
C166 C 0.73084 0.6834 0.66098 0.0
H167 H 0.65404 0.6277 0.65899 0.0
O168 O 0.59765 0.73386 0.65131 0.0
O169 O 0.653 0.72317 0.63779 0.0
O170 O 0.59281 0.67789 0.62139 0.0
O171 O 0.6479 0.64665 0.62514 0.0
C172 C 0.78035 0.69152 0.68468 0.0
C173 C 0.79693 0.71991 0.67342 0.0
H174 H 0.81972 0.7741 0.64824 0.0
H175 H 0.78678 0.78859 0.61776 0.0
H176 H 0.67891 0.60927 0.69073 0.0
H177 H 0.73834 0.63827 0.70333 0.0
H178 H 0.79362 0.684 0.69809 0.0
H179 H 0.82251 0.73398 0.67842 0.0
Mn180 Mn 0.25858 0.12755 0.87426 0.0
Mn181 Mn 0.30734 0.20818 0.88326 0.0
C182 C 0.25778 0.15403 0.9042 0.0
C183 C 0.2029 0.09796 0.86387 0.0
C184 C 0.34467 0.13079 0.8802 0.0
O185 O 0.26986 0.14729 0.84797 0.0
O186 O 0.2988 0.20259 0.85526 0.0
C187 C 0.24858 0.2634 0.87146 0.0
N188 N 0.27247 0.24955 0.88507 0.0
C189 C 0.25107 0.29584 0.90795 0.0
C190 C 0.22641 0.31077 0.89414 0.0
C191 C 0.22514 0.29444 0.87583 0.0
C192 C 0.27394 0.26505 0.90273 0.0
H193 H 0.24735 0.25078 0.85741 0.0
C194 C 0.28548 0.17838 0.84322 0.0
O195 O 0.23528 0.08028 0.8635 0.0
O196 O 0.20325 0.13289 0.86974 0.0
N197 N 0.31735 0.21732 0.90973 0.0
C198 C 0.34168 0.1987 0.9216 0.0
C199 C 0.34569 0.21099 0.94058 0.0
C200 C 0.32488 0.24241 0.94712 0.0
C201 C 0.30046 0.26146 0.93457 0.0
C202 C 0.29791 0.24815 0.91575 0.0
H203 H 0.35765 0.17445 0.91668 0.0
O204 O 0.24914 0.11858 0.9017 0.0
O205 O 0.26601 0.17311 0.88902 0.0
O206 O 0.31427 0.11168 0.87747 0.0
O207 O 0.34515 0.16687 0.88216 0.0
C208 C 0.27806 0.29272 0.94006 0.0
C209 C 0.25335 0.30987 0.92677 0.0
H210 H 0.20811 0.33456 0.89748 0.0
H211 H 0.20605 0.30569 0.86512 0.0
H212 H 0.36462 0.19615 0.95018 0.0
H213 H 0.32774 0.25155 0.96182 0.0
H214 H 0.27927 0.3035 0.95454 0.0
H215 H 0.23595 0.33362 0.93122 0.0
Mn216 Mn 0.87194 0.73371 0.10641 0.0
Mn217 Mn 0.79083 0.68366 0.10144 0.0
C218 C 0.84265 0.72904 0.07716 0.0
C219 C 0.90281 0.79049 0.11357 0.0
C220 C 0.86851 0.64703 0.10436 0.0
O221 O 0.85437 0.72791 0.13354 0.0
O222 O 0.7992 0.69671 0.12884 0.0
C223 C 0.73651 0.74401 0.11224 0.0
N224 N 0.74916 0.71811 0.09928 0.0
C225 C 0.70038 0.73563 0.07683 0.0
C226 C 0.68668 0.76233 0.08999 0.0
C227 C 0.70487 0.76656 0.10776 0.0
C228 C 0.73191 0.71384 0.08213 0.0
H229 H 0.75052 0.74748 0.12588 0.0
C230 C 0.82402 0.71278 0.13967 0.0
O231 O 0.92022 0.75813 0.11503 0.0
O232 O 0.86742 0.78964 0.10836 0.0
N233 N 0.77917 0.66957 0.07568 0.0
C234 C 0.79688 0.64366 0.06431 0.0
C235 C 0.78263 0.63653 0.0459 0.0
C236 C 0.75025 0.65591 0.03941 0.0
C237 C 0.73237 0.68227 0.05141 0.0
C238 C 0.74765 0.68795 0.06968 0.0
H239 H 0.82179 0.62869 0.06921 0.0
O240 O 0.87839 0.73766 0.07842 0.0
O241 O 0.82501 0.72387 0.09311 0.0
O242 O 0.88752 0.67778 0.10557 0.0
O243 O 0.83232 0.64608 0.10301 0.0
C244 C 0.70025 0.70346 0.04589 0.0
C245 C 0.68434 0.73019 0.05857 0.0
H246 H 0.66239 0.7799 0.08655 0.0
H247 H 0.69457 0.78723 0.11796 0.0
H248 H 0.79662 0.61619 0.03671 0.0
H249 H 0.73943 0.65038 0.02518 0.0
H250 H 0.68776 0.69967 0.03186 0.0
H251 H 0.65992 0.74661 0.05407 0.0
Mn252 Mn 0.26514 0.39545 0.36084 0.0
Mn253 Mn 0.3158 0.31485 0.35572 0.0
C254 C 0.26978 0.36649 0.33137 0.0
C255 C 0.2082 0.42603 0.36782 0.0
C256 C 0.35181 0.39267 0.35995 0.0
O257 O 0.27073 0.37681 0.38801 0.0
O258 O 0.30066 0.32125 0.3827 0.0
C259 C 0.2559 0.25878 0.36429 0.0
N260 N 0.28243 0.27261 0.35219 0.0
C261 C 0.26898 0.22349 0.32913 0.0
C262 C 0.24165 0.20859 0.34139 0.0
C263 C 0.23502 0.22639 0.35902 0.0
C264 C 0.28895 0.2558 0.33516 0.0
H265 H 0.25071 0.27236 0.37786 0.0
C266 C 0.28445 0.34534 0.39372 0.0
O267 O 0.24059 0.44336 0.3696 0.0
O268 O 0.20903 0.39085 0.36231 0.0
N269 N 0.33155 0.30507 0.33014 0.0
C270 C 0.3573 0.32427 0.31954 0.0
C271 C 0.36667 0.31061 0.30135 0.0
C272 C 0.34966 0.27726 0.29431 0.0
C273 C 0.32311 0.25807 0.30545 0.0
C274 C 0.31511 0.27288 0.32352 0.0
H275 H 0.37065 0.34979 0.32491 0.0
O276 O 0.26108 0.40219 0.33268 0.0
O277 O 0.27533 0.34896 0.34732 0.0
O278 O 0.32094 0.41154 0.36053 0.0
O279 O 0.35286 0.35653 0.35876 0.0
C280 C 0.304 0.22503 0.29927 0.0
C281 C 0.27682 0.20787 0.31106 0.0
H282 H 0.2254 0.18368 0.33735 0.0
H283 H 0.21386 0.21515 0.36853 0.0
H284 H 0.38706 0.32565 0.2928 0.0
H285 H 0.35712 0.26677 0.2803 0.0
H286 H 0.30968 0.2128 0.28538 0.0
H287 H 0.26191 0.18282 0.30602 0.0
H288 H 0.21203 0.18797 0.07678 0.0
H289 H 0.23001 0.19237 0.04352 0.0
H290 H 0.12836 0.25623 0.03136 0.0
H291 H 0.10953 0.25143 0.06471 0.0
H292 H 0.13841 0.19791 0.00675 0.0
H293 H 0.2721 0.27904 0.01291 0.0
H294 H 0.27236 0.23904 0.02849 0.0
H295 H 0.23837 0.27655 0.03209 0.0
C296 C 0.19351 0.20323 0.06713 0.0
C297 C 0.15923 0.21924 0.07345 0.0
C298 C 0.20412 0.20609 0.04813 0.0
C299 C 0.18096 0.22539 0.03508 0.0
C300 C 0.14682 0.2416 0.04129 0.0
H301 H 0.21046 0.21305 0.91073 0.0
H302 H 0.19119 0.23856 0.94186 0.0
C303 C 0.13607 0.23866 0.06033 0.0
C304 C 0.19093 0.22526 0.01468 0.0
H305 H 0.26478 0.24004 0.98447 0.0
C306 C 0.16565 0.20793 0.00176 0.0
C307 C 0.22643 0.23856 0.00822 0.0
C308 C 0.25367 0.2597 0.02115 0.0
C309 C 0.17603 0.20109 0.98283 0.0
C310 C 0.21247 0.21217 0.97675 0.0
C311 C 0.23696 0.23139 0.98933 0.0
C312 C 0.22688 0.20037 0.958 0.0
C313 C 0.14891 0.1801 0.96975 0.0
C314 C 0.25367 0.17103 0.95695 0.0
C315 C 0.26465 0.15659 0.9393 0.0
C316 C 0.24973 0.17206 0.92254 0.0
C317 C 0.22319 0.20167 0.92357 0.0
C318 C 0.21202 0.216 0.94124 0.0
H319 H 0.12332 0.16995 0.97731 0.0
H320 H 0.13958 0.19918 0.95813 0.0
H321 H 0.16332 0.15536 0.96312 0.0
H322 H 0.26508 0.15845 0.96981 0.0
H323 H 0.28449 0.13314 0.93872 0.0
H324 H 0.75479 0.63129 0.31185 0.0
H325 H 0.75906 0.64415 0.27781 0.0
H326 H 0.8304 0.7409 0.2897 0.0
H327 H 0.82643 0.72846 0.32382 0.0
H328 H 0.74091 0.7172 0.25772 0.0
H329 H 0.89099 0.66878 0.25212 0.0
H330 H 0.86079 0.65503 0.27154 0.0
H331 H 0.88006 0.70206 0.27085 0.0
C332 C 0.77136 0.65537 0.30729 0.0
C333 C 0.79052 0.67867 0.3206 0.0
C334 C 0.77363 0.6627 0.28784 0.0
C335 C 0.79527 0.69322 0.28135 0.0
C336 C 0.81383 0.717 0.29452 0.0
H337 H 0.8627 0.75339 0.16693 0.0
H338 H 0.85362 0.75213 0.20133 0.0
C339 C 0.81144 0.70985 0.31399 0.0
C340 C 0.79911 0.69955 0.26074 0.0
H341 H 0.86185 0.69166 0.22425 0.0
C342 C 0.76732 0.71177 0.25035 0.0
C343 C 0.83369 0.69253 0.25132 0.0
C344 C 0.86839 0.67864 0.26192 0.0
C345 C 0.76924 0.7173 0.23062 0.0
C346 C 0.80363 0.70943 0.22109 0.0
C347 C 0.83554 0.69767 0.2316 0.0
C348 C 0.80706 0.71216 0.20017 0.0
C349 C 0.73463 0.732 0.22025 0.0
C350 C 0.78386 0.69007 0.18812 0.0
C351 C 0.78879 0.69087 0.16843 0.0
C352 C 0.81744 0.71335 0.16044 0.0
C353 C 0.84047 0.73563 0.17258 0.0
C354 C 0.8353 0.73501 0.19225 0.0
H355 H 0.7153 0.74743 0.23004 0.0
H356 H 0.74267 0.75128 0.20853 0.0
H357 H 0.71866 0.70772 0.21402 0.0
H358 H 0.76253 0.67148 0.19397 0.0
H359 H 0.77073 0.67317 0.15952 0.0
H360 H 0.36392 0.20215 0.54433 0.0
H361 H 0.33388 0.22282 0.51453 0.0
H362 H 0.26166 0.29905 0.54611 0.0
H363 H 0.29213 0.27876 0.5759 0.0
H364 H 0.25275 0.22826 0.50169 0.0
H365 H 0.32833 0.36643 0.51056 0.0
H366 H 0.34169 0.32516 0.52408 0.0
H367 H 0.29893 0.35035 0.5297 0.0
C368 C 0.34102 0.22263 0.54485 0.0
C369 C 0.32952 0.23826 0.56225 0.0
C370 C 0.32386 0.23432 0.52793 0.0
C371 C 0.29567 0.26243 0.52822 0.0
C372 C 0.28336 0.2773 0.54567 0.0
H373 H 0.24929 0.38574 0.42226 0.0
H374 H 0.24213 0.3672 0.45559 0.0
C375 C 0.30049 0.26553 0.56261 0.0
C376 C 0.28276 0.27893 0.51008 0.0
H377 H 0.2991 0.35425 0.48117 0.0
C378 C 0.26219 0.25608 0.49726 0.0
C379 C 0.29487 0.3154 0.50453 0.0
C380 C 0.31733 0.34087 0.51783 0.0
C381 C 0.25512 0.26804 0.47858 0.0
C382 C 0.26983 0.30327 0.47257 0.0
C383 C 0.28804 0.3272 0.48581 0.0
C384 C 0.27129 0.31358 0.45224 0.0
C385 C 0.23292 0.24237 0.4653 0.0
C386 C 0.29068 0.28991 0.43949 0.0
C387 C 0.295 0.30039 0.42057 0.0
C388 C 0.28032 0.33504 0.41399 0.0
C389 C 0.26102 0.3589 0.42684 0.0
C390 C 0.25669 0.34829 0.44585 0.0
H391 H 0.21256 0.22461 0.47329 0.0
H392 H 0.21702 0.25885 0.45444 0.0
H393 H 0.25283 0.22299 0.45787 0.0
H394 H 0.30324 0.26357 0.44426 0.0
H395 H 0.31011 0.28129 0.41115 0.0
H396 H 0.77991 0.89663 0.79347 0.0
H397 H 0.75959 0.86351 0.7641 0.0
H398 H 0.68912 0.78922 0.79717 0.0
H399 H 0.70912 0.82235 0.82635 0.0
H400 H 0.76646 0.78124 0.75652 0.0
H401 H 0.61763 0.83416 0.75531 0.0
H402 H 0.65489 0.85744 0.76881 0.0
H403 H 0.63417 0.81443 0.7774 0.0
C404 C 0.76016 0.87318 0.79433 0.0
C405 C 0.74676 0.86112 0.81199 0.0
C406 C 0.74862 0.85438 0.77768 0.0
C407 C 0.72279 0.82415 0.77858 0.0
C408 C 0.70883 0.8127 0.79623 0.0
H409 H 0.61001 0.69738 0.68712 0.0
H410 H 0.63446 0.71464 0.71892 0.0
C411 C 0.72052 0.8313 0.81283 0.0
C412 C 0.71068 0.80422 0.76108 0.0
H413 H 0.6344 0.78922 0.73181 0.0
C414 C 0.73758 0.78275 0.75114 0.0
C415 C 0.67289 0.80617 0.75428 0.0
C416 C 0.64316 0.82947 0.76438 0.0
C417 C 0.72763 0.76304 0.73445 0.0
C418 C 0.69019 0.76597 0.72725 0.0
C419 C 0.66309 0.78691 0.73742 0.0
C420 C 0.67927 0.7506 0.70837 0.0
C421 C 0.75701 0.73877 0.72482 0.0
C422 C 0.69657 0.76491 0.69202 0.0
C423 C 0.6826 0.75523 0.67401 0.0
C424 C 0.65149 0.73068 0.67206 0.0
C425 C 0.63458 0.71573 0.68837 0.0
C426 C 0.64849 0.72553 0.70644 0.0
H427 H 0.78087 0.73164 0.7346 0.0
H428 H 0.74393 0.71205 0.7195 0.0
H429 H 0.76882 0.75432 0.71255 0.0
H430 H 0.71954 0.78523 0.69318 0.0
H431 H 0.69497 0.7684 0.66164 0.0
H432 H 0.22499 0.30517 0.32706 0.0
H433 H 0.20568 0.27406 0.29731 0.0
H434 H 0.27307 0.3537 0.26576 0.0
H435 H 0.29378 0.38384 0.29575 0.0
H436 H 0.16541 0.31004 0.26992 0.0
H437 H 0.2992 0.25426 0.23933 0.0
H438 H 0.29508 0.26847 0.26395 0.0
H439 H 0.30116 0.30359 0.24587 0.0
C440 C 0.23677 0.31505 0.31379 0.0
C441 C 0.26188 0.34588 0.31359 0.0
C442 C 0.22548 0.29754 0.29683 0.0
C443 C 0.23846 0.31114 0.27936 0.0
C444 C 0.26361 0.34205 0.27912 0.0
H445 H 0.17807 0.27791 0.16185 0.0
H446 H 0.20689 0.2952 0.19249 0.0
C447 C 0.27517 0.35942 0.29617 0.0
C448 C 0.22227 0.29565 0.26144 0.0
H449 H 0.24529 0.25567 0.21877 0.0
C450 C 0.18279 0.29764 0.25881 0.0
C451 C 0.24509 0.27996 0.24693 0.0
C452 C 0.28749 0.27611 0.24915 0.0
C453 C 0.16551 0.28515 0.24186 0.0
C454 C 0.18835 0.26937 0.22734 0.0
C455 C 0.22781 0.26723 0.23002 0.0
C456 C 0.17211 0.25696 0.20886 0.0
C457 C 0.12323 0.29048 0.23939 0.0
C458 C 0.14344 0.22928 0.20788 0.0
C459 C 0.1267 0.21973 0.19039 0.0
C460 C 0.1395 0.2367 0.17367 0.0
C461 C 0.16852 0.26385 0.1746 0.0
C462 C 0.18485 0.27377 0.19206 0.0
H463 H 0.11186 0.31191 0.24953 0.0
H464 H 0.11605 0.29951 0.22469 0.0
H465 H 0.10864 0.26321 0.24212 0.0
H466 H 0.13377 0.21541 0.22065 0.0
H467 H 0.10402 0.19899 0.18987 0.0
H468 H 0.72397 0.69204 0.57389 0.0
H469 H 0.74077 0.69602 0.54051 0.0
H470 H 0.63767 0.75791 0.52882 0.0
H471 H 0.62001 0.7535 0.56237 0.0
H472 H 0.64749 0.69842 0.50483 0.0
H473 H 0.78024 0.78137 0.50824 0.0
H474 H 0.78193 0.74256 0.52454 0.0
H475 H 0.7474 0.7797 0.52783 0.0
C476 C 0.70488 0.70683 0.56434 0.0
C477 C 0.67049 0.72228 0.57085 0.0
C478 C 0.71483 0.70949 0.54525 0.0
C479 C 0.6909 0.72801 0.53228 0.0
C480 C 0.65674 0.7439 0.53869 0.0
H481 H 0.71822 0.70553 0.40816 0.0
H482 H 0.69907 0.73342 0.43876 0.0
C483 C 0.64666 0.74121 0.55784 0.0
C484 C 0.69997 0.72686 0.51178 0.0
H485 H 0.77302 0.73918 0.48082 0.0
C486 C 0.6745 0.7082 0.49943 0.0
C487 C 0.73518 0.73981 0.50479 0.0
C488 C 0.76253 0.76234 0.51704 0.0
C489 C 0.68453 0.69959 0.48063 0.0
C490 C 0.7208 0.71017 0.4741 0.0
C491 C 0.74537 0.73086 0.48604 0.0
C492 C 0.73491 0.6966 0.45561 0.0
C493 C 0.6573 0.67721 0.46822 0.0
C494 C 0.76169 0.66717 0.45511 0.0
C495 C 0.77261 0.65134 0.43774 0.0
C496 C 0.75761 0.66552 0.4207 0.0
C497 C 0.73099 0.69512 0.42119 0.0
C498 C 0.71989 0.71081 0.43857 0.0
H499 H 0.63178 0.66791 0.47612 0.0
H500 H 0.64785 0.69496 0.4561 0.0
H501 H 0.67167 0.65178 0.46225 0.0
H502 H 0.77321 0.65569 0.4682 0.0
H503 H 0.79254 0.62795 0.43758 0.0
H504 H 0.39083 0.23375 0.66973 0.0
H505 H 0.38255 0.23326 0.70425 0.0
H506 H 0.26714 0.19501 0.69672 0.0
H507 H 0.27484 0.19557 0.66221 0.0
H508 H 0.27861 0.25612 0.72443 0.0
H509 H 0.37468 0.13249 0.73488 0.0
H510 H 0.3936 0.17152 0.72165 0.0
H511 H 0.35481 0.14441 0.71192 0.0
C512 C 0.3636 0.22536 0.67537 0.0
C513 C 0.3336 0.21435 0.66316 0.0
C514 C 0.359 0.22503 0.6951 0.0
C515 C 0.32439 0.21373 0.70294 0.0
C516 C 0.2941 0.20373 0.69087 0.0
H517 H 0.26645 0.13203 0.81323 0.0
H518 H 0.2758 0.14365 0.77942 0.0
C519 C 0.29865 0.20392 0.67115 0.0
C520 C 0.31992 0.21115 0.72376 0.0
H521 H 0.34818 0.16009 0.7624 0.0
C522 C 0.29393 0.23532 0.7328 0.0
C523 C 0.33978 0.1837 0.73449 0.0
C524 C 0.36711 0.15629 0.7253 0.0
C525 C 0.28712 0.23261 0.7524 0.0
C526 C 0.307 0.20517 0.76311 0.0
C527 C 0.33316 0.1812 0.75408 0.0
C528 C 0.29986 0.19954 0.78356 0.0
C529 C 0.25802 0.25831 0.76143 0.0
C530 C 0.31026 0.22727 0.79703 0.0
C531 C 0.30502 0.22076 0.81644 0.0
C532 C 0.28937 0.18632 0.82266 0.0
C533 C 0.27854 0.15888 0.809 0.0
C534 C 0.2839 0.1654 0.78966 0.0
H535 H 0.24043 0.27322 0.75063 0.0
H536 H 0.23901 0.24188 0.77083 0.0
H537 H 0.27273 0.27996 0.77035 0.0
H538 H 0.32305 0.25363 0.79256 0.0
H539 H 0.31368 0.24252 0.82654 0.0
H540 H 0.78299 0.77579 0.0712 0.0
H541 H 0.75716 0.7958 0.04033 0.0
H542 H 0.83467 0.72006 0.01177 0.0
H543 H 0.86012 0.69975 0.04263 0.0
H544 H 0.80651 0.83017 0.01399 0.0
H545 H 0.73471 0.70508 0.98151 0.0
H546 H 0.73945 0.71204 0.00692 0.0
H547 H 0.77896 0.69489 -0.00665 0.0
C548 C 0.79334 0.76241 0.05831 0.0
C549 C 0.82266 0.73551 0.05912 0.0
C550 C 0.77878 0.77397 0.04075 0.0
C551 C 0.79358 0.75891 0.02383 0.0
C552 C 0.82218 0.73124 0.02469 0.0
H553 H 0.82136 0.79779 0.90716 0.0
H554 H 0.81831 0.77705 0.94008 0.0
C555 C 0.83685 0.71984 0.04224 0.0
C556 C 0.7837 0.77601 0.00535 0.0
H557 H 0.75442 0.75366 0.96028 0.0
C558 C 0.79438 0.81379 0.0023 0.0
C559 C 0.76795 0.75444 0.99024 0.0
C560 C 0.75427 0.71442 -0.00689 0.0
C561 C 0.79204 0.82986 0.98414 0.0
C562 C 0.77799 0.80764 0.9688 0.0
C563 C 0.76542 0.7705 0.97209 0.0
C564 C 0.77935 0.82107 0.94896 0.0
C565 C 0.80672 0.86961 0.98132 0.0
C566 C 0.75852 0.85286 0.94309 0.0
C567 C 0.76048 0.86513 0.92424 0.0
C568 C 0.78297 0.84547 0.91095 0.0
C569 C 0.80375 0.81363 0.91698 0.0
C570 C 0.80194 0.8016 0.93578 0.0
H571 H 0.82321 0.88008 -0.00615 0.0
H572 H 0.82506 0.87093 0.96856 0.0
H573 H 0.78238 0.88908 0.97906 0.0
H574 H 0.74047 0.86791 0.95301 0.0
H575 H 0.74379 0.8895 0.92002 0.0
H576 H 0.0222 0.13524 0.12024 0.0
H577 H 0.98895 0.07436 0.11933 0.0
H578 H 0.09508 0.0158 0.12791 0.0
H579 H 0.1286 0.0763 0.12905 0.0
H580 H 0.00094 0.01229 0.09425 0.0
H581 H 0.02654 0.97255 0.16963 0.0
H582 H 0.0329 0.0203 0.16113 0.0
H583 H 0.06851 0.98488 0.15671 0.0
C584 C 0.03853 0.10946 0.12198 0.0
C585 C 0.07812 0.11079 0.12479 0.0
C586 C 0.01944 0.0747 0.12145 0.0
C587 C 0.0395 0.04069 0.12386 0.0
C588 C 0.07899 0.04181 0.12641 0.0
H589 H 0.9781 0.80212 0.12176 0.0
H590 H 0.01121 0.8631 0.12446 0.0
C591 C 0.09812 0.07648 0.12691 0.0
C592 C 0.01926 0.00392 0.12322 0.0
H593 H 0.9995 0.92531 0.14942 0.0
C594 C 0.00042 0.99334 0.10633 0.0
C595 C 0.01884 0.97925 0.139 0.0
C596 C 0.03748 0.98985 0.15772 0.0
C597 C 0.98164 0.95838 0.10467 0.0
C598 C 0.98112 0.93373 0.12046 0.0
C599 C 0.0 0.94429 0.13735 0.0
C600 C 0.96084 0.89698 0.11972 0.0
C601 C 0.96322 0.94778 0.08589 0.0
C602 C 0.92147 0.89595 0.11666 0.0
C603 C 0.90255 0.86128 0.11509 0.0
C604 C 0.92262 0.82697 0.1167 0.0
C605 C 0.96188 0.82807 0.12042 0.0
C606 C 0.98083 0.86284 0.12195 0.0
H607 H 0.97452 0.96488 0.07399 0.0
H608 H 0.9676 0.91727 0.08253 0.0
H609 H 0.93223 0.95306 0.08674 0.0
H610 H 0.90541 0.922 0.11532 0.0
H611 H 0.87224 0.86142 0.11236 0.0
H612 H 0.19714 0.50043 0.37769 0.0
H613 H 0.13646 0.53358 0.38132 0.0
H614 H 0.07645 0.42976 0.36857 0.0
H615 H 0.13681 0.39637 0.36511 0.0
H616 H 0.08009 0.54078 0.35315 0.0
H617 H 0.02385 0.46827 0.41682 0.0
H618 H 0.07323 0.46592 0.41019 0.0
H619 H 0.03868 0.4367 0.39812 0.0
C620 C 0.17102 0.48457 0.37588 0.0
C621 C 0.17176 0.44577 0.37115 0.0
C622 C 0.1364 0.50355 0.37793 0.0
C623 C 0.10198 0.48401 0.37545 0.0
C624 C 0.10266 0.4452 0.37092 0.0
H625 H 0.86402 0.54671 0.37104 0.0
H626 H 0.92506 0.51359 0.37076 0.0
C627 C 0.13722 0.42622 0.36885 0.0
C628 C 0.06538 0.50461 0.3765 0.0
H629 H 0.98065 0.50748 0.39975 0.0
C630 C 0.05844 0.53373 0.36343 0.0
C631 C 0.03715 0.49514 0.38985 0.0
C632 C 0.04361 0.46503 0.40466 0.0
C633 C 0.02368 0.55318 0.36309 0.0
C634 C 0.99541 0.54368 0.37642 0.0
C635 C 0.00237 0.51463 0.38953 0.0
C636 C 0.95845 0.56371 0.37699 0.0
C637 C 0.01718 0.58305 0.34815 0.0
C638 C 0.95699 0.60273 0.3809 0.0
C639 C 0.92223 0.62179 0.38103 0.0
C640 C 0.88811 0.60214 0.37737 0.0
C641 C 0.88966 0.56281 0.37385 0.0
C642 C 0.92452 0.54379 0.3737 0.0
H643 H 0.03732 0.58006 0.33614 0.0
H644 H 0.98775 0.58161 0.3424 0.0
H645 H 0.02144 0.61152 0.35466 0.0
H646 H 0.98279 0.61848 0.38387 0.0
H647 H 0.9222 0.65198 0.38399 0.0
H648 H 0.38544 0.36084 0.61513 0.0
H649 H 0.41894 0.42137 0.61702 0.0
H650 H 0.52562 0.36236 0.62261 0.0
H651 H 0.49221 0.30138 0.62092 0.0
H652 H 0.51639 0.42513 0.6481 0.0
H653 H 0.48317 0.46358 0.57327 0.0
H654 H 0.44253 0.45145 0.58724 0.0
H655 H 0.47773 0.41598 0.58211 0.0
C656 C 0.41602 0.36065 0.61688 0.0
C657 C 0.43624 0.32631 0.61775 0.0
C658 C 0.43511 0.39529 0.61784 0.0
C659 C 0.47477 0.39628 0.61957 0.0
C660 C 0.49498 0.36212 0.62112 0.0
H661 H 0.64255 0.57605 0.6248 0.0
H662 H 0.60919 0.5155 0.62418 0.0
C663 C 0.47588 0.32736 0.62017 0.0
C664 C 0.49506 0.43303 0.61961 0.0
H665 H 0.51183 0.51121 0.59259 0.0
C666 C 0.51559 0.44391 0.63595 0.0
C667 C 0.49383 0.45742 0.60373 0.0
C668 C 0.47343 0.44648 0.58552 0.0
C669 C 0.53439 0.47897 0.63698 0.0
C670 C 0.53313 0.50338 0.6211 0.0
C671 C 0.51263 0.49246 0.60475 0.0
C672 C 0.5533 0.54021 0.62108 0.0
C673 C 0.55475 0.48994 0.65519 0.0
C674 C 0.53302 0.57417 0.61891 0.0
C675 C 0.55202 0.60899 0.61912 0.0
C676 C 0.59174 0.61044 0.62138 0.0
C677 C 0.61196 0.57617 0.62313 0.0
C678 C 0.59293 0.54145 0.62292 0.0
H679 H 0.54481 0.473 0.66745 0.0
H680 H 0.58561 0.48474 0.65353 0.0
H681 H 0.55063 0.52049 0.65853 0.0
H682 H 0.5024 0.57374 0.61733 0.0
H683 H 0.53551 0.63474 0.61769 0.0
H684 H 0.63135 0.90879 0.86783 0.0
H685 H 0.57134 0.94235 0.87214 0.0
H686 H 0.63236 0.04574 0.88455 0.0
H687 H 0.69273 0.01245 0.87998 0.0
H688 H 0.54184 0.98358 0.90309 0.0
H689 H 0.5627 0.07449 0.83976 0.0
H690 H 0.59137 0.03308 0.84431 0.0
H691 H 0.6004 0.07651 0.85712 0.0
C692 C 0.63208 0.93863 0.8716 0.0
C693 C 0.66679 0.95808 0.8734 0.0
C694 C 0.59773 0.95773 0.87408 0.0
C695 C 0.59742 0.99663 0.87834 0.0
C696 C 0.63202 0.01585 0.88089 0.0
H697 H 0.41508 0.16081 0.88729 0.0
H698 H 0.47589 0.12777 0.88806 0.0
C699 C 0.66646 0.99675 0.87839 0.0
C700 C 0.56079 0.01712 0.87952 0.0
H701 H 0.50827 0.08648 0.85824 0.0
C702 C 0.53446 0.00611 0.89331 0.0
C703 C 0.55124 0.04635 0.86667 0.0
C704 C 0.57771 0.05818 0.85101 0.0
C705 C 0.49891 0.02391 0.89473 0.0
C706 C 0.48934 0.05303 0.88183 0.0
C707 C 0.51576 0.06417 0.86813 0.0
C708 C 0.45202 0.07237 0.8822 0.0
C709 C 0.47214 0.01181 0.91019 0.0
C710 C 0.41839 0.05215 0.87855 0.0
C711 C 0.38342 0.07094 0.87807 0.0
C712 C 0.3815 0.1104 0.88111 0.0
C713 C 0.41536 0.13045 0.88483 0.0
C714 C 0.45022 0.11163 0.88531 0.0
H715 H 0.48718 0.99627 0.92171 0.0
H716 H 0.45744 0.03669 0.91653 0.0
H717 H 0.45027 0.99263 0.90398 0.0
H718 H 0.41926 0.02192 0.87573 0.0
H719 H 0.35801 0.05459 0.87509 0.0
H720 H 0.94483 0.63531 0.1099 0.0
H721 H 0.97862 0.57474 0.11035 0.0
H722 H 0.87347 0.51541 0.09976 0.0
H723 H 0.83938 0.57565 0.0991 0.0
H724 H 0.96482 0.51319 0.1351 0.0
H725 H 0.94549 0.47146 0.05921 0.0
H726 H 0.93844 0.51944 0.06764 0.0
H727 H 0.90254 0.48414 0.07132 0.0
C728 C 0.92885 0.60944 0.10755 0.0
C729 C 0.88933 0.61045 0.10444 0.0
C730 C 0.94824 0.57486 0.10782 0.0
C731 C 0.9286 0.5407 0.10483 0.0
C732 C 0.88924 0.54153 0.10174 0.0
H733 H 0.99022 0.3024 0.10767 0.0
H734 H 0.95748 0.36334 0.10419 0.0
C735 C 0.86979 0.57604 0.10151 0.0
C736 C 0.94901 0.50407 0.10576 0.0
H737 H 0.97122 0.42487 0.07985 0.0
C738 C 0.96645 0.49395 0.123 0.0
C739 C 0.95082 0.47901 0.08996 0.0
C740 C 0.93363 0.48908 0.07092 0.0
C741 C 0.98516 0.45908 0.125 0.0
C742 C 0.98712 0.43405 0.10919 0.0
C743 C 0.96966 0.44415 0.09193 0.0
C744 C 0.00732 0.3973 0.11033 0.0
C745 C 0.00189 0.44898 0.14416 0.0
C746 C 0.04632 0.3963 0.11445 0.0
C747 C 0.06502 0.36165 0.1165 0.0
C748 C 0.0451 0.32732 0.1143 0.0
C749 C 0.0063 0.32837 0.1095 0.0
C750 C 0.98757 0.36312 0.10751 0.0
H751 H 0.98939 0.46629 0.15582 0.0
H752 H 0.99737 0.41853 0.14733 0.0
H753 H 0.03291 0.45442 0.14405 0.0
H754 H 0.06225 0.42236 0.11626 0.0
H755 H 0.095 0.36181 0.12004 0.0
H756 H 0.42355 0.36315 0.35741 0.0
H757 H 0.48365 0.3975 0.35682 0.0
H758 H 0.42361 0.50364 0.36152 0.0
H759 H 0.36319 0.46962 0.36236 0.0
H760 H 0.50737 0.45279 0.33067 0.0
H761 H 0.50311 0.50997 0.40457 0.0
H762 H 0.47267 0.47185 0.39646 0.0
H763 H 0.46174 0.52004 0.39036 0.0
C764 C 0.42299 0.3938 0.35846 0.0
C765 C 0.38839 0.41356 0.36007 0.0
C766 C 0.45743 0.41336 0.35805 0.0
C767 C 0.45809 0.45304 0.35934 0.0
C768 C 0.42374 0.47295 0.36084 0.0
H769 H 0.63783 0.62025 0.36313 0.0
H770 H 0.57716 0.58712 0.3603 0.0
C771 C 0.38921 0.45342 0.36125 0.0
C772 C 0.49477 0.47353 0.35884 0.0
H773 H 0.55256 0.53202 0.38495 0.0
C774 C 0.51736 0.47006 0.34254 0.0
C775 C 0.50764 0.496 0.37435 0.0
C776 C 0.48525 0.49953 0.39251 0.0
C777 C 0.5523 0.489 0.34122 0.0
C778 C 0.56518 0.51144 0.35675 0.0
C779 C 0.54255 0.51489 0.37304 0.0
C780 C 0.60213 0.53153 0.35658 0.0
C781 C 0.57474 0.48546 0.32309 0.0
C782 C 0.63635 0.5113 0.35521 0.0
C783 C 0.67119 0.53021 0.35674 0.0
C784 C 0.6723 0.56962 0.35986 0.0
C785 C 0.63796 0.58987 0.36075 0.0
C786 C 0.60324 0.57099 0.35916 0.0
H787 H 0.55667 0.47584 0.31094 0.0
H788 H 0.5881 0.5129 0.31937 0.0
H789 H 0.59764 0.46423 0.32512 0.0
H790 H 0.63615 0.48073 0.35358 0.0
H791 H 0.69715 0.51381 0.35613 0.0
H792 H 0.44054 0.12745 0.58441 0.0
H793 H 0.47253 0.06581 0.58322 0.0
H794 H 0.39796 0.0245 0.62691 0.0
H795 H 0.36424 0.08508 0.62698 0.0
H796 H 0.51244 0.02985 0.60633 0.0
H797 H 0.38866 0.93821 0.59188 0.0
H798 H 0.38543 0.98915 0.59099 0.0
H799 H 0.38115 0.9647 0.61336 0.0
C800 C 0.43088 0.10498 0.5936 0.0
C801 C 0.39983 0.11074 0.60567 0.0
C802 C 0.44912 0.06977 0.59294 0.0
C803 C 0.43718 0.03994 0.60464 0.0
C804 C 0.40682 0.04629 0.61715 0.0
H805 H 0.58473 0.85574 0.63814 0.0
H806 H 0.55098 0.91561 0.63412 0.0
C807 C 0.38782 0.08107 0.61736 0.0
C808 C 0.45758 0.00291 0.60441 0.0
H809 H 0.44404 0.90705 0.60462 0.0
C810 C 0.49741 0.00303 0.60567 0.0
C811 C 0.43833 0.96768 0.60308 0.0
C812 C 0.39609 0.96495 0.59952 0.0
C813 C 0.51834 0.96918 0.60621 0.0
C814 C 0.49886 0.93403 0.60659 0.0
C815 C 0.45912 0.93386 0.60472 0.0
C816 C 0.51897 0.89724 0.60921 0.0
C817 C 0.56111 0.97175 0.60592 0.0
C818 C 0.51081 0.866 0.59727 0.0
C819 C 0.52899 0.83117 0.60009 0.0
C820 C 0.55623 0.82723 0.61463 0.0
C821 C 0.56431 0.8583 0.62659 0.0
C822 C 0.54529 0.89268 0.62417 0.0
H823 H 0.5706 0.99766 0.59843 0.0
H824 H 0.57207 0.97364 0.62076 0.0
H825 H 0.574 0.94671 0.59881 0.0
H826 H 0.49046 0.86857 0.5857 0.0
H827 H 0.52228 0.80755 0.59069 0.0
H828 H 0.85728 0.98147 0.85888 0.0
H829 H 0.9181 0.0148 0.85774 0.0
H830 H 0.97585 0.90867 0.84806 0.0
H831 H 0.91539 0.87512 0.84889 0.0
H832 H 0.98082 0.00406 0.88139 0.0
H833 H 0.01817 0.97559 0.80602 0.0
H834 H 0.97083 0.96876 0.81505 0.0
H835 H 0.00702 0.93381 0.81931 0.0
C836 C 0.88285 0.96518 0.85639 0.0
C837 C 0.88131 0.92555 0.85396 0.0
C838 C 0.91759 0.98431 0.85573 0.0
C839 C 0.95139 0.96428 0.8525 0.0
C840 C 0.95002 0.92479 0.85014 0.0
H841 H 0.191 0.02272 0.8556 0.0
H842 H 0.12962 0.99047 0.85185 0.0
C843 C 0.91536 0.90563 0.85078 0.0
C844 C 0.98832 0.98441 0.85258 0.0
H845 H 0.0668 0.00207 0.82578 0.0
C846 C 0.9995 0.00387 0.86919 0.0
C847 C 0.01271 0.98391 0.83666 0.0
C848 C 0.00151 0.9647 0.81818 0.0
C849 C 0.03472 0.0223 0.87046 0.0
C850 C 0.05912 0.02179 0.85456 0.0
C851 C 0.048 0.00235 0.83793 0.0
C852 C 0.0962 0.04157 0.85503 0.0
C853 C 0.04587 0.0415 0.88897 0.0
C854 C 0.09764 0.08104 0.85742 0.0
C855 C 0.13249 0.09946 0.85958 0.0
C856 C 0.16661 0.07875 0.85928 0.0
C857 C 0.1652 0.03941 0.85594 0.0
C858 C 0.1302 0.02096 0.85381 0.0
H859 H 0.02846 0.03145 0.90104 0.0
H860 H 0.07628 0.03642 0.89238 0.0
H861 H 0.04154 0.07253 0.88765 0.0
H862 H 0.07172 0.09753 0.85803 0.0
H863 H 0.13259 0.12984 0.86197 0.0
loop_
_geom_bond_atom_site_label_1
_geom_bond_atom_site_label_2
_geom_bond_distance
_geom_bond_site_symmetry_2
_ccdc_geom_bond_type
Mn0 O5 2.095 . S
Mn0 O15 2.162 . S
Mn0 O16 2.297 . S
Mn0 O24 2.385 . S
Mn0 O25 2.209 . S
Mn0 O26 2.094 . S
Mn1 O6 2.121 . S
Mn1 N8 2.257 . S
Mn1 N17 2.282 . S
Mn1 O25 2.215 . S
Mn1 O27 2.117 . S
C2 O24 1.234 . S
C2 O25 1.283 . S
C3 O15 1.281 . S
C3 O16 1.236 . S
C4 O26 1.240 . S
C4 O27 1.264 . S
O5 Mn0 2.095 . S
O5 C14 1.250 . S
O6 Mn1 2.121 . S
O6 C14 1.258 . S
C7 N8 1.326 . S
C7 C11 1.460 . S
C7 H13 0.929 . S
N8 Mn1 2.257 . S
N8 C7 1.326 . S
N8 C12 1.362 . S
C9 C10 1.258 . S
C9 C12 1.431 . S
C9 C29 1.449 . S
C10 C9 1.258 . S
C10 C11 1.477 . S
C10 H30 0.931 . S
C11 C7 1.460 . S
C11 C10 1.477 . S
C11 H31 0.930 . S
C12 N8 1.362 . S
C12 C9 1.431 . S
C12 C22 1.476 . S
H13 C7 0.929 . S
C14 O5 1.250 . S
C14 O6 1.258 . S
O15 Mn0 2.162 . S
O15 C3 1.281 . S
O16 Mn0 2.297 . S
O16 C3 1.236 . S
N17 Mn1 2.282 . S
N17 C18 1.328 . S
N17 C22 1.318 . S
C18 N17 1.328 . S
C18 C19 1.457 . S
C18 H23 0.929 . S
C19 C18 1.457 . S
C19 C20 1.291 . S
C19 H32 0.931 . S
C20 C19 1.291 . S
C20 C21 1.373 . S
C20 H33 0.929 . S
C21 C20 1.373 . S
C21 C22 1.396 . S
C21 C28 1.403 . S
C22 C12 1.476 . S
C22 N17 1.318 . S
C22 C21 1.396 . S
H23 C18 0.929 . S
O24 Mn0 2.385 . S
O24 C2 1.234 . S
O25 Mn0 2.209 . S
O25 Mn1 2.215 . S
O25 C2 1.283 . S
O26 Mn0 2.094 . S
O26 C4 1.240 . S
O27 Mn1 2.117 . S
O27 C4 1.264 . S
C28 C21 1.403 . S
C28 C29 1.399 . S
C28 H34 0.929 . S
C29 C9 1.449 . S
C29 C28 1.399 . S
C29 H35 0.930 . S
H30 C10 0.931 . S
H31 C11 0.930 . S
H32 C19 0.931 . S
H33 C20 0.929 . S
H34 C28 0.929 . S
H35 C29 0.930 . S
Mn36 O41 2.095 . S
Mn36 O51 2.162 . S
Mn36 O52 2.297 . S
Mn36 O60 2.385 . S
Mn36 O61 2.209 . S
Mn36 O62 2.094 . S
Mn37 O42 2.121 . S
Mn37 N44 2.257 . S
Mn37 N53 2.282 . S
Mn37 O61 2.215 . S
Mn37 O63 2.117 . S
C38 O60 1.234 . S
C38 O61 1.283 . S
C39 O51 1.281 . S
C39 O52 1.236 . S
C40 O62 1.240 . S
C40 O63 1.264 . S
O41 Mn36 2.095 . S
O41 C50 1.250 . S
O42 Mn37 2.121 . S
O42 C50 1.258 . S
C43 N44 1.326 . S
C43 C47 1.460 . S
C43 H49 0.929 . S
N44 Mn37 2.257 . S
N44 C43 1.326 . S
N44 C48 1.362 . S
C45 C46 1.258 . S
C45 C48 1.431 . S
C45 C65 1.449 . S
C46 C45 1.258 . S
C46 C47 1.477 . S
C46 H66 0.931 . S
C47 C43 1.460 . S
C47 C46 1.477 . S
C47 H67 0.930 . S
C48 N44 1.362 . S
C48 C45 1.431 . S
C48 C58 1.476 . S
H49 C43 0.929 . S
C50 O41 1.250 . S
C50 O42 1.258 . S
O51 Mn36 2.162 . S
O51 C39 1.281 . S
O52 Mn36 2.297 . S
O52 C39 1.236 . S
N53 Mn37 2.282 . S
N53 C54 1.328 . S
N53 C58 1.318 . S
C54 N53 1.328 . S
C54 C55 1.457 . S
C54 H59 0.929 . S
C55 C54 1.457 . S
C55 C56 1.291 . S
C55 H68 0.931 . S
C56 C55 1.291 . S
C56 C57 1.373 . S
C56 H69 0.929 . S
C57 C56 1.373 . S
C57 C58 1.396 . S
C57 C64 1.403 . S
C58 C48 1.476 . S
C58 N53 1.318 . S
C58 C57 1.396 . S
H59 C54 0.929 . S
O60 Mn36 2.385 . S
O60 C38 1.234 . S
O61 Mn36 2.209 . S
O61 Mn37 2.215 . S
O61 C38 1.283 . S
O62 Mn36 2.094 . S
O62 C40 1.240 . S
O63 Mn37 2.117 . S
O63 C40 1.264 . S
C64 C57 1.403 . S
C64 C65 1.399 . S
C64 H70 0.929 . S
C65 C45 1.449 . S
C65 C64 1.399 . S
C65 H71 0.930 . S
H66 C46 0.931 . S
H67 C47 0.930 . S
H68 C55 0.931 . S
H69 C56 0.929 . S
H70 C64 0.929 . S
H71 C65 0.930 . S
Mn72 O77 2.095 . S
Mn72 O87 2.162 . S
Mn72 O88 2.297 . S
Mn72 O96 2.385 . S
Mn72 O97 2.209 . S
Mn72 O98 2.094 . S
Mn73 O78 2.121 . S
Mn73 N80 2.257 . S
Mn73 N89 2.282 . S
Mn73 O97 2.215 . S
Mn73 O99 2.117 . S
C74 O96 1.234 . S
C74 O97 1.283 . S
C75 O87 1.281 . S
C75 O88 1.236 . S
C76 O98 1.240 . S
C76 O99 1.264 . S
O77 Mn72 2.095 . S
O77 C86 1.250 . S
O78 Mn73 2.121 . S
O78 C86 1.258 . S
C79 N80 1.326 . S
C79 C83 1.460 . S
C79 H85 0.929 . S
N80 Mn73 2.257 . S
N80 C79 1.326 . S
N80 C84 1.362 . S
C81 C82 1.258 . S
C81 C84 1.431 . S
C81 C101 1.449 . S
C82 C81 1.258 . S
C82 C83 1.477 . S
C82 H102 0.931 . S
C83 C79 1.460 . S
C83 C82 1.477 . S
C83 H103 0.930 . S
C84 N80 1.362 . S
C84 C81 1.431 . S
C84 C94 1.476 . S
H85 C79 0.929 . S
C86 O77 1.250 . S
C86 O78 1.258 . S
O87 Mn72 2.162 . S
O87 C75 1.281 . S
O88 Mn72 2.297 . S
O88 C75 1.236 . S
N89 Mn73 2.282 . S
N89 C90 1.328 . S
N89 C94 1.318 . S
C90 N89 1.328 . S
C90 C91 1.457 . S
C90 H95 0.929 . S
C91 C90 1.457 . S
C91 C92 1.291 . S
C91 H104 0.931 . S
C92 C91 1.291 . S
C92 C93 1.373 . S
C92 H105 0.929 . S
C93 C92 1.373 . S
C93 C94 1.396 . S
C93 C100 1.403 . S
C94 C84 1.476 . S
C94 N89 1.318 . S
C94 C93 1.396 . S
H95 C90 0.929 . S
O96 Mn72 2.385 . S
O96 C74 1.234 . S
O97 Mn72 2.209 . S
O97 Mn73 2.215 . S
O97 C74 1.283 . S
O98 Mn72 2.094 . S
O98 C76 1.240 . S
O99 Mn73 2.117 . S
O99 C76 1.264 . S
C100 C93 1.403 . S
C100 C101 1.399 . S
C100 H106 0.929 . S
C101 C81 1.449 . S
C101 C100 1.399 . S
C101 H107 0.930 . S
H102 C82 0.931 . S
H103 C83 0.930 . S
H104 C91 0.931 . S
H105 C92 0.929 . S
H106 C100 0.929 . S
H107 C101 0.930 . S
Mn108 O113 2.095 . S
Mn108 O123 2.162 . S
Mn108 O124 2.297 . S
Mn108 O132 2.385 . S
Mn108 O133 2.209 . S
Mn108 O134 2.094 . S
Mn109 O114 2.121 . S
Mn109 N116 2.257 . S
Mn109 N125 2.282 . S
Mn109 O133 2.215 . S
Mn109 O135 2.117 . S
C110 O132 1.234 . S
C110 O133 1.283 . S
C111 O123 1.281 . S
C111 O124 1.236 . S
C112 O134 1.240 . S
C112 O135 1.264 . S
O113 Mn108 2.095 . S
O113 C122 1.250 . S
O114 Mn109 2.121 . S
O114 C122 1.258 . S
C115 N116 1.326 . S
C115 C119 1.460 . S
C115 H121 0.929 . S
N116 Mn109 2.257 . S
N116 C115 1.326 . S
N116 C120 1.362 . S
C117 C118 1.258 . S
C117 C120 1.431 . S
C117 C137 1.449 . S
C118 C117 1.258 . S
C118 C119 1.477 . S
C118 H138 0.931 . S
C119 C115 1.460 . S
C119 C118 1.477 . S
C119 H139 0.930 . S
C120 N116 1.362 . S
C120 C117 1.431 . S
C120 C130 1.476 . S
H121 C115 0.929 . S
C122 O113 1.250 . S
C122 O114 1.258 . S
O123 Mn108 2.162 . S
O123 C111 1.281 . S
O124 Mn108 2.297 . S
O124 C111 1.236 . S
N125 Mn109 2.282 . S
N125 C126 1.328 . S
N125 C130 1.318 . S
C126 N125 1.328 . S
C126 C127 1.457 . S
C126 H131 0.929 . S
C127 C126 1.457 . S
C127 C128 1.291 . S
C127 H140 0.931 . S
C128 C127 1.291 . S
C128 C129 1.373 . S
C128 H141 0.929 . S
C129 C128 1.373 . S
C129 C130 1.396 . S
C129 C136 1.403 . S
C130 C120 1.476 . S
C130 N125 1.318 . S
C130 C129 1.396 . S
H131 C126 0.929 . S
O132 Mn108 2.385 . S
O132 C110 1.234 . S
O133 Mn108 2.209 . S
O133 Mn109 2.215 . S
O133 C110 1.283 . S
O134 Mn108 2.094 . S
O134 C112 1.240 . S
O135 Mn109 2.117 . S
O135 C112 1.264 . S
C136 C129 1.403 . S
C136 C137 1.399 . S
C136 H142 0.929 . S
C137 C117 1.449 . S
C137 C136 1.399 . S
C137 H143 0.930 . S
H138 C118 0.931 . S
H139 C119 0.930 . S
H140 C127 0.931 . S
H141 C128 0.929 . S
H142 C136 0.929 . S
H143 C137 0.930 . S
Mn144 O149 2.095 . S
Mn144 O159 2.162 . S
Mn144 O160 2.297 . S
Mn144 O168 2.385 . S
Mn144 O169 2.209 . S
Mn144 O170 2.094 . S
Mn145 O150 2.121 . S
Mn145 N152 2.257 . S
Mn145 N161 2.282 . S
Mn145 O169 2.215 . S
Mn145 O171 2.117 . S
C146 O168 1.234 . S
C146 O169 1.283 . S
C147 O159 1.281 . S
C147 O160 1.236 . S
C148 O170 1.240 . S
C148 O171 1.264 . S
O149 Mn144 2.095 . S
O149 C158 1.250 . S
O150 Mn145 2.121 . S
O150 C158 1.258 . S
C151 N152 1.326 . S
C151 C155 1.460 . S
C151 H157 0.929 . S
N152 Mn145 2.257 . S
N152 C151 1.326 . S
N152 C156 1.362 . S
C153 C154 1.258 . S
C153 C156 1.431 . S
C153 C173 1.449 . S
C154 C153 1.258 . S
C154 C155 1.477 . S
C154 H174 0.931 . S
C155 C151 1.460 . S
C155 C154 1.477 . S
C155 H175 0.930 . S
C156 N152 1.362 . S
C156 C153 1.431 . S
C156 C166 1.476 . S
H157 C151 0.929 . S
C158 O149 1.250 . S
C158 O150 1.258 . S
O159 Mn144 2.162 . S
O159 C147 1.281 . S
O160 Mn144 2.297 . S
O160 C147 1.236 . S
N161 Mn145 2.282 . S
N161 C162 1.328 . S
N161 C166 1.318 . S
C162 N161 1.328 . S
C162 C163 1.457 . S
C162 H167 0.929 . S
C163 C162 1.457 . S
C163 C164 1.291 . S
C163 H176 0.931 . S
C164 C163 1.291 . S
C164 C165 1.373 . S
C164 H177 0.929 . S
C165 C164 1.373 . S
C165 C166 1.396 . S
C165 C172 1.403 . S
C166 C156 1.476 . S
C166 N161 1.318 . S
C166 C165 1.396 . S
H167 C162 0.929 . S
O168 Mn144 2.385 . S
O168 C146 1.234 . S
O169 Mn144 2.209 . S
O169 Mn145 2.215 . S
O169 C146 1.283 . S
O170 Mn144 2.094 . S
O170 C148 1.240 . S
O171 Mn145 2.117 . S
O171 C148 1.264 . S
C172 C165 1.403 . S
C172 C173 1.399 . S
C172 H178 0.929 . S
C173 C153 1.449 . S
C173 C172 1.399 . S
C173 H179 0.930 . S
H174 C154 0.931 . S
H175 C155 0.930 . S
H176 C163 0.931 . S
H177 C164 0.929 . S
H178 C172 0.929 . S
H179 C173 0.930 . S
Mn180 O185 2.095 . S
Mn180 O195 2.162 . S
Mn180 O196 2.297 . S
Mn180 O204 2.385 . S
Mn180 O205 2.209 . S
Mn180 O206 2.094 . S
Mn181 O186 2.121 . S
Mn181 N188 2.257 . S
Mn181 N197 2.282 . S
Mn181 O205 2.215 . S
Mn181 O207 2.117 . S
C182 O204 1.234 . S
C182 O205 1.283 . S
C183 O195 1.281 . S
C183 O196 1.236 . S
C184 O206 1.240 . S
C184 O207 1.264 . S
O185 Mn180 2.095 . S
O185 C194 1.250 . S
O186 Mn181 2.121 . S
O186 C194 1.258 . S
C187 N188 1.326 . S
C187 C191 1.460 . S
C187 H193 0.929 . S
N188 Mn181 2.257 . S
N188 C187 1.326 . S
N188 C192 1.362 . S
C189 C190 1.258 . S
C189 C192 1.431 . S
C189 C209 1.449 . S
C190 C189 1.258 . S
C190 C191 1.477 . S
C190 H210 0.931 . S
C191 C187 1.460 . S
C191 C190 1.477 . S
C191 H211 0.930 . S
C192 N188 1.362 . S
C192 C189 1.431 . S
C192 C202 1.476 . S
H193 C187 0.929 . S
C194 O185 1.250 . S
C194 O186 1.258 . S
O195 Mn180 2.162 . S
O195 C183 1.281 . S
O196 Mn180 2.297 . S
O196 C183 1.236 . S
N197 Mn181 2.282 . S
N197 C198 1.328 . S
N197 C202 1.318 . S
C198 N197 1.328 . S
C198 C199 1.457 . S
C198 H203 0.929 . S
C199 C198 1.457 . S
C199 C200 1.291 . S
C199 H212 0.931 . S
C200 C199 1.291 . S
C200 C201 1.373 . S
C200 H213 0.929 . S
C201 C200 1.373 . S
C201 C202 1.396 . S
C201 C208 1.403 . S
C202 C192 1.476 . S
C202 N197 1.318 . S
C202 C201 1.396 . S
H203 C198 0.929 . S
O204 Mn180 2.385 . S
O204 C182 1.234 . S
O205 Mn180 2.209 . S
O205 Mn181 2.215 . S
O205 C182 1.283 . S
O206 Mn180 2.094 . S
O206 C184 1.240 . S
O207 Mn181 2.117 . S
O207 C184 1.264 . S
C208 C201 1.403 . S
C208 C209 1.399 . S
C208 H214 0.929 . S
C209 C189 1.449 . S
C209 C208 1.399 . S
C209 H215 0.930 . S
H210 C190 0.931 . S
H211 C191 0.930 . S
H212 C199 0.931 . S
H213 C200 0.929 . S
H214 C208 0.929 . S
H215 C209 0.930 . S
Mn216 O221 2.095 . S
Mn216 O231 2.162 . S
Mn216 O232 2.297 . S
Mn216 O240 2.385 . S
Mn216 O241 2.209 . S
Mn216 O242 2.094 . S
Mn217 O222 2.121 . S
Mn217 N224 2.257 . S
Mn217 N233 2.282 . S
Mn217 O241 2.215 . S
Mn217 O243 2.117 . S
C218 O240 1.234 . S
C218 O241 1.283 . S
C219 O231 1.281 . S
C219 O232 1.236 . S
C220 O242 1.240 . S
C220 O243 1.264 . S
O221 Mn216 2.095 . S
O221 C230 1.250 . S
O222 Mn217 2.121 . S
O222 C230 1.258 . S
C223 N224 1.326 . S
C223 C227 1.460 . S
C223 H229 0.929 . S
N224 Mn217 2.257 . S
N224 C223 1.326 . S
N224 C228 1.362 . S
C225 C226 1.258 . S
C225 C228 1.431 . S
C225 C245 1.449 . S
C226 C225 1.258 . S
C226 C227 1.477 . S
C226 H246 0.931 . S
C227 C223 1.460 . S
C227 C226 1.477 . S
C227 H247 0.930 . S
C228 N224 1.362 . S
C228 C225 1.431 . S
C228 C238 1.476 . S
H229 C223 0.929 . S
C230 O221 1.250 . S
C230 O222 1.258 . S
O231 Mn216 2.162 . S
O231 C219 1.281 . S
O232 Mn216 2.297 . S
O232 C219 1.236 . S
N233 Mn217 2.282 . S
N233 C234 1.328 . S
N233 C238 1.318 . S
C234 N233 1.328 . S
C234 C235 1.457 . S
C234 H239 0.929 . S
C235 C234 1.457 . S
C235 C236 1.291 . S
C235 H248 0.931 . S
C236 C235 1.291 . S
C236 C237 1.373 . S
C236 H249 0.929 . S
C237 C236 1.373 . S
C237 C238 1.396 . S
C237 C244 1.403 . S
C238 C228 1.476 . S
C238 N233 1.318 . S
C238 C237 1.396 . S
H239 C234 0.929 . S
O240 Mn216 2.385 . S
O240 C218 1.234 . S
O241 Mn216 2.209 . S
O241 Mn217 2.215 . S
O241 C218 1.283 . S
O242 Mn216 2.094 . S
O242 C220 1.240 . S
O243 Mn217 2.117 . S
O243 C220 1.264 . S
C244 C237 1.403 . S
C244 C245 1.399 . S
C244 H250 0.929 . S
C245 C225 1.449 . S
C245 C244 1.399 . S
C245 H251 0.930 . S
H246 C226 0.931 . S
H247 C227 0.930 . S
H248 C235 0.931 . S
H249 C236 0.929 . S
H250 C244 0.929 . S
H251 C245 0.930 . S
Mn252 O257 2.095 . S
Mn252 O267 2.162 . S
Mn252 O268 2.297 . S
Mn252 O276 2.385 . S
Mn252 O277 2.209 . S
Mn252 O278 2.094 . S
Mn253 O258 2.121 . S
Mn253 N260 2.257 . S
Mn253 N269 2.282 . S
Mn253 O277 2.215 . S
Mn253 O279 2.117 . S
C254 O276 1.234 . S
C254 O277 1.283 . S
C255 O267 1.281 . S
C255 O268 1.236 . S
C256 O278 1.240 . S
C256 O279 1.264 . S
O257 Mn252 2.095 . S
O257 C266 1.250 . S
O258 Mn253 2.121 . S
O258 C266 1.258 . S
C259 N260 1.326 . S
C259 C263 1.460 . S
C259 H265 0.929 . S
N260 Mn253 2.257 . S
N260 C259 1.326 . S
N260 C264 1.362 . S
C261 C262 1.258 . S
C261 C264 1.431 . S
C261 C281 1.449 . S
C262 C261 1.258 . S
C262 C263 1.477 . S
C262 H282 0.931 . S
C263 C259 1.460 . S
C263 C262 1.477 . S
C263 H283 0.930 . S
C264 N260 1.362 . S
C264 C261 1.431 . S
C264 C274 1.476 . S
H265 C259 0.929 . S
C266 O257 1.250 . S
C266 O258 1.258 . S
O267 Mn252 2.162 . S
O267 C255 1.281 . S
O268 Mn252 2.297 . S
O268 C255 1.236 . S
N269 Mn253 2.282 . S
N269 C270 1.328 . S
N269 C274 1.318 . S
C270 N269 1.328 . S
C270 C271 1.457 . S
C270 H275 0.929 . S
C271 C270 1.457 . S
C271 C272 1.291 . S
C271 H284 0.931 . S
C272 C271 1.291 . S
C272 C273 1.373 . S
C272 H285 0.929 . S
C273 C272 1.373 . S
C273 C274 1.396 . S
C273 C280 1.403 . S
C274 C264 1.476 . S
C274 N269 1.318 . S
C274 C273 1.396 . S
H275 C270 0.929 . S
O276 Mn252 2.385 . S
O276 C254 1.234 . S
O277 Mn252 2.209 . S
O277 Mn253 2.215 . S
O277 C254 1.283 . S
O278 Mn252 2.094 . S
O278 C256 1.240 . S
O279 Mn253 2.117 . S
O279 C256 1.264 . S
C280 C273 1.403 . S
C280 C281 1.399 . S
C280 H286 0.929 . S
C281 C261 1.449 . S
C281 C280 1.399 . S
C281 H287 0.930 . S
H282 C262 0.931 . S
H283 C263 0.930 . S
H284 C271 0.931 . S
H285 C272 0.929 . S
H286 C280 0.929 . S
H287 C281 0.930 . S
H288 C296 0.929 . S
H289 C298 0.930 . S
H290 C300 0.930 . S
H291 C303 0.929 . S
H292 C306 0.930 . S
H293 C308 0.960 . S
H294 C308 0.960 . S
H295 C308 0.960 . S
C296 H288 0.929 . S
C296 C297 1.377 . S
C296 C298 1.384 . S
C297 C296 1.377 . S
C297 C303 1.390 . S
C298 H289 0.930 . S
C298 C296 1.384 . S
C298 C299 1.372 . S
C299 C298 1.372 . S
C299 C300 1.400 . S
C299 C304 1.490 . S
C300 H290 0.930 . S
C300 C299 1.400 . S
C300 C303 1.386 . S
H301 C317 0.930 . S
H302 C318 0.931 . S
C303 H291 0.929 . S
C303 C297 1.390 . S
C303 C300 1.386 . S
C304 C299 1.490 . S
C304 C306 1.395 . S
C304 C307 1.403 . S
H305 C311 0.930 . S
C306 H292 0.930 . S
C306 C304 1.395 . S
C306 C309 1.403 1_554 S
C307 C304 1.403 . S
C307 C308 1.524 . S
C307 C311 1.400 1_554 S
C308 H293 0.960 . S
C308 H294 0.960 . S
C308 H295 0.960 . S
C308 C307 1.524 . S
C309 C306 1.403 1_556 S
C309 C310 1.392 . S
C309 C313 1.495 . S
C310 C309 1.392 . S
C310 C311 1.385 . S
C310 C312 1.478 . S
C311 H305 0.930 . S
C311 C307 1.400 1_556 S
C311 C310 1.385 . S
C312 C310 1.478 . S
C312 C314 1.381 . S
C312 C318 1.383 . S
C313 C309 1.495 . S
C313 H319 0.959 . S
C313 H320 0.961 . S
C313 H321 0.960 . S
C314 C312 1.381 . S
C314 C315 1.394 . S
C314 H322 0.930 . S
C315 C314 1.394 . S
C315 C316 1.383 . S
C315 H323 0.929 . S
C316 C315 1.383 . S
C316 C317 1.377 . S
C317 H301 0.930 . S
C317 C316 1.377 . S
C317 C318 1.379 . S
C318 H302 0.931 . S
C318 C312 1.383 . S
C318 C317 1.379 . S
H319 C313 0.959 . S
H320 C313 0.961 . S
H321 C313 0.960 . S
H322 C314 0.930 . S
H323 C315 0.929 . S
H324 C332 0.929 . S
H325 C334 0.930 . S
H326 C336 0.930 . S
H327 C339 0.929 . S
H328 C342 0.930 . S
H329 C344 0.960 . S
H330 C344 0.960 . S
H331 C344 0.960 . S
C332 H324 0.929 . S
C332 C333 1.377 . S
C332 C334 1.384 . S
C333 C332 1.377 . S
C333 C339 1.390 . S
C334 H325 0.930 . S
C334 C332 1.384 . S
C334 C335 1.372 . S
C335 C334 1.372 . S
C335 C336 1.400 . S
C335 C340 1.490 . S
C336 H326 0.930 . S
C336 C335 1.400 . S
C336 C339 1.386 . S
H337 C353 0.930 . S
H338 C354 0.931 . S
C339 H327 0.929 . S
C339 C333 1.390 . S
C339 C336 1.386 . S
C340 C335 1.490 . S
C340 C342 1.395 . S
C340 C343 1.403 . S
H341 C347 0.930 . S
C342 H328 0.930 . S
C342 C340 1.395 . S
C342 C345 1.403 . S
C343 C340 1.403 . S
C343 C344 1.524 . S
C343 C347 1.400 . S
C344 H329 0.960 . S
C344 H330 0.960 . S
C344 H331 0.960 . S
C344 C343 1.524 . S
C345 C342 1.403 . S
C345 C346 1.392 . S
C345 C349 1.495 . S
C346 C345 1.392 . S
C346 C347 1.385 . S
C346 C348 1.478 . S
C347 H341 0.930 . S
C347 C343 1.400 . S
C347 C346 1.385 . S
C348 C346 1.478 . S
C348 C350 1.381 . S
C348 C354 1.383 . S
C349 C345 1.495 . S
C349 H355 0.959 . S
C349 H356 0.961 . S
C349 H357 0.960 . S
C350 C348 1.381 . S
C350 C351 1.394 . S
C350 H358 0.930 . S
C351 C350 1.394 . S
C351 C352 1.383 . S
C351 H359 0.929 . S
C352 C351 1.383 . S
C352 C353 1.377 . S
C353 H337 0.930 . S
C353 C352 1.377 . S
C353 C354 1.379 . S
C354 H338 0.931 . S
C354 C348 1.383 . S
C354 C353 1.379 . S
H355 C349 0.959 . S
H356 C349 0.961 . S
H357 C349 0.960 . S
H358 C350 0.930 . S
H359 C351 0.929 . S
H360 C368 0.929 . S
H361 C370 0.930 . S
H362 C372 0.930 . S
H363 C375 0.929 . S
H364 C378 0.930 . S
H365 C380 0.960 . S
H366 C380 0.960 . S
H367 C380 0.960 . S
C368 H360 0.929 . S
C368 C369 1.377 . S
C368 C370 1.384 . S
C369 C368 1.377 . S
C369 C375 1.390 . S
C370 H361 0.930 . S
C370 C368 1.384 . S
C370 C371 1.372 . S
C371 C370 1.372 . S
C371 C372 1.400 . S
C371 C376 1.490 . S
C372 H362 0.930 . S
C372 C371 1.400 . S
C372 C375 1.386 . S
H373 C389 0.930 . S
H374 C390 0.931 . S
C375 H363 0.929 . S
C375 C369 1.390 . S
C375 C372 1.386 . S
C376 C371 1.490 . S
C376 C378 1.395 . S
C376 C379 1.403 . S
H377 C383 0.930 . S
C378 H364 0.930 . S
C378 C376 1.395 . S
C378 C381 1.403 . S
C379 C376 1.403 . S
C379 C380 1.524 . S
C379 C383 1.400 . S
C380 H365 0.960 . S
C380 H366 0.960 . S
C380 H367 0.960 . S
C380 C379 1.524 . S
C381 C378 1.403 . S
C381 C382 1.392 . S
C381 C385 1.495 . S
C382 C381 1.392 . S
C382 C383 1.385 . S
C382 C384 1.478 . S
C383 H377 0.930 . S
C383 C379 1.400 . S
C383 C382 1.385 . S
C384 C382 1.478 . S
C384 C386 1.381 . S
C384 C390 1.383 . S
C385 C381 1.495 . S
C385 H391 0.959 . S
C385 H392 0.961 . S
C385 H393 0.960 . S
C386 C384 1.381 . S
C386 C387 1.394 . S
C386 H394 0.930 . S
C387 C386 1.394 . S
C387 C388 1.383 . S
C387 H395 0.929 . S
C388 C387 1.383 . S
C388 C389 1.377 . S
C389 H373 0.930 . S
C389 C388 1.377 . S
C389 C390 1.379 . S
C390 H374 0.931 . S
C390 C384 1.383 . S
C390 C389 1.379 . S
H391 C385 0.959 . S
H392 C385 0.961 . S
H393 C385 0.960 . S
H394 C386 0.930 . S
H395 C387 0.929 . S
H396 C404 0.929 . S
H397 C406 0.930 . S
H398 C408 0.930 . S
H399 C411 0.929 . S
H400 C414 0.930 . S
H401 C416 0.960 . S
H402 C416 0.960 . S
H403 C416 0.960 . S
C404 H396 0.929 . S
C404 C405 1.377 . S
C404 C406 1.384 . S
C405 C404 1.377 . S
C405 C411 1.390 . S
C406 H397 0.930 . S
C406 C404 1.384 . S
C406 C407 1.372 . S
C407 C406 1.372 . S
C407 C408 1.400 . S
C407 C412 1.490 . S
C408 H398 0.930 . S
C408 C407 1.400 . S
C408 C411 1.386 . S
H409 C425 0.930 . S
H410 C426 0.931 . S
C411 H399 0.929 . S
C411 C405 1.390 . S
C411 C408 1.386 . S
C412 C407 1.490 . S
C412 C414 1.395 . S
C412 C415 1.403 . S
H413 C419 0.930 . S
C414 H400 0.930 . S
C414 C412 1.395 . S
C414 C417 1.403 . S
C415 C412 1.403 . S
C415 C416 1.524 . S
C415 C419 1.400 . S
C416 H401 0.960 . S
C416 H402 0.960 . S
C416 H403 0.960 . S
C416 C415 1.524 . S
C417 C414 1.403 . S
C417 C418 1.392 . S
C417 C421 1.495 . S
C418 C417 1.392 . S
C418 C419 1.385 . S
C418 C420 1.478 . S
C419 H413 0.930 . S
C419 C415 1.400 . S
C419 C418 1.385 . S
C420 C418 1.478 . S
C420 C422 1.381 . S
C420 C426 1.383 . S
C421 C417 1.495 . S
C421 H427 0.959 . S
C421 H428 0.961 . S
C421 H429 0.960 . S
C422 C420 1.381 . S
C422 C423 1.394 . S
C422 H430 0.930 . S
C423 C422 1.394 . S
C423 C424 1.383 . S
C423 H431 0.929 . S
C424 C423 1.383 . S
C424 C425 1.377 . S
C425 H409 0.930 . S
C425 C424 1.377 . S
C425 C426 1.379 . S
C426 H410 0.931 . S
C426 C420 1.383 . S
C426 C425 1.379 . S
H427 C421 0.959 . S
H428 C421 0.961 . S
H429 C421 0.960 . S
H430 C422 0.930 . S
H431 C423 0.929 . S
H432 C440 0.929 . S
H433 C442 0.930 . S
H434 C444 0.930 . S
H435 C447 0.929 . S
H436 C450 0.930 . S
H437 C452 0.960 . S
H438 C452 0.960 . S
H439 C452 0.960 . S
C440 H432 0.929 . S
C440 C441 1.377 . S
C440 C442 1.384 . S
C441 C440 1.377 . S
C441 C447 1.390 . S
C442 H433 0.930 . S
C442 C440 1.384 . S
C442 C443 1.372 . S
C443 C442 1.372 . S
C443 C444 1.400 . S
C443 C448 1.490 . S
C444 H434 0.930 . S
C444 C443 1.400 . S
C444 C447 1.386 . S
H445 C461 0.930 . S
H446 C462 0.931 . S
C447 H435 0.929 . S
C447 C441 1.390 . S
C447 C444 1.386 . S
C448 C443 1.490 . S
C448 C450 1.395 . S
C448 C451 1.403 . S
H449 C455 0.930 . S
C450 H436 0.930 . S
C450 C448 1.395 . S
C450 C453 1.403 . S
C451 C448 1.403 . S
C451 C452 1.524 . S
C451 C455 1.400 . S
C452 H437 0.960 . S
C452 H438 0.960 . S
C452 H439 0.960 . S
C452 C451 1.524 . S
C453 C450 1.403 . S
C453 C454 1.392 . S
C453 C457 1.495 . S
C454 C453 1.392 . S
C454 C455 1.385 . S
C454 C456 1.478 . S
C455 H449 0.930 . S
C455 C451 1.400 . S
C455 C454 1.385 . S
C456 C454 1.478 . S
C456 C458 1.381 . S
C456 C462 1.383 . S
C457 C453 1.495 . S
C457 H463 0.959 . S
C457 H464 0.961 . S
C457 H465 0.960 . S
C458 C456 1.381 . S
C458 C459 1.394 . S
C458 H466 0.930 . S
C459 C458 1.394 . S
C459 C460 1.383 . S
C459 H467 0.929 . S
C460 C459 1.383 . S
C460 C461 1.377 . S
C461 H445 0.930 . S
C461 C460 1.377 . S
C461 C462 1.379 . S
C462 H446 0.931 . S
C462 C456 1.383 . S
C462 C461 1.379 . S
H463 C457 0.959 . S
H464 C457 0.961 . S
H465 C457 0.960 . S
H466 C458 0.930 . S
H467 C459 0.929 . S
H468 C476 0.929 . S
H469 C478 0.930 . S
H470 C480 0.930 . S
H471 C483 0.929 . S
H472 C486 0.930 . S
H473 C488 0.960 . S
H474 C488 0.960 . S
H475 C488 0.960 . S
C476 H468 0.929 . S
C476 C477 1.377 . S
C476 C478 1.384 . S
C477 C476 1.377 . S
C477 C483 1.390 . S
C478 H469 0.930 . S
C478 C476 1.384 . S
C478 C479 1.372 . S
C479 C478 1.372 . S
C479 C480 1.400 . S
C479 C484 1.490 . S
C480 H470 0.930 . S
C480 C479 1.400 . S
C480 C483 1.386 . S
H481 C497 0.930 . S
H482 C498 0.931 . S
C483 H471 0.929 . S
C483 C477 1.390 . S
C483 C480 1.386 . S
C484 C479 1.490 . S
C484 C486 1.395 . S
C484 C487 1.403 . S
H485 C491 0.930 . S
C486 H472 0.930 . S
C486 C484 1.395 . S
C486 C489 1.403 . S
C487 C484 1.403 . S
C487 C488 1.524 . S
C487 C491 1.400 . S
C488 H473 0.960 . S
C488 H474 0.960 . S
C488 H475 0.960 . S
C488 C487 1.524 . S
C489 C486 1.403 . S
C489 C490 1.392 . S
C489 C493 1.495 . S
C490 C489 1.392 . S
C490 C491 1.385 . S
C490 C492 1.478 . S
C491 H485 0.930 . S
C491 C487 1.400 . S
C491 C490 1.385 . S
C492 C490 1.478 . S
C492 C494 1.381 . S
C492 C498 1.383 . S
C493 C489 1.495 . S
C493 H499 0.959 . S
C493 H500 0.961 . S
C493 H501 0.960 . S
C494 C492 1.381 . S
C494 C495 1.394 . S
C494 H502 0.930 . S
C495 C494 1.394 . S
C495 C496 1.383 . S
C495 H503 0.929 . S
C496 C495 1.383 . S
C496 C497 1.377 . S
C497 H481 0.930 . S
C497 C496 1.377 . S
C497 C498 1.379 . S
C498 H482 0.931 . S
C498 C492 1.383 . S
C498 C497 1.379 . S
H499 C493 0.959 . S
H500 C493 0.961 . S
H501 C493 0.960 . S
H502 C494 0.930 . S
H503 C495 0.929 . S
H504 C512 0.929 . S
H505 C514 0.930 . S
H506 C516 0.930 . S
H507 C519 0.929 . S
H508 C522 0.930 . S
H509 C524 0.960 . S
H510 C524 0.960 . S
H511 C524 0.960 . S
C512 H504 0.929 . S
C512 C513 1.377 . S
C512 C514 1.384 . S
C513 C512 1.377 . S
C513 C519 1.390 . S
C514 H505 0.930 . S
C514 C512 1.384 . S
C514 C515 1.372 . S
C515 C514 1.372 . S
C515 C516 1.400 . S
C515 C520 1.490 . S
C516 H506 0.930 . S
C516 C515 1.400 . S
C516 C519 1.386 . S
H517 C533 0.930 . S
H518 C534 0.931 . S
C519 H507 0.929 . S
C519 C513 1.390 . S
C519 C516 1.386 . S
C520 C515 1.490 . S
C520 C522 1.395 . S
C520 C523 1.403 . S
H521 C527 0.930 . S
C522 H508 0.930 . S
C522 C520 1.395 . S
C522 C525 1.403 . S
C523 C520 1.403 . S
C523 C524 1.524 . S
C523 C527 1.400 . S
C524 H509 0.960 . S
C524 H510 0.960 . S
C524 H511 0.960 . S
C524 C523 1.524 . S
C525 C522 1.403 . S
C525 C526 1.392 . S
C525 C529 1.495 . S
C526 C525 1.392 . S
C526 C527 1.385 . S
C526 C528 1.478 . S
C527 H521 0.930 . S
C527 C523 1.400 . S
C527 C526 1.385 . S
C528 C526 1.478 . S
C528 C530 1.381 . S
C528 C534 1.383 . S
C529 C525 1.495 . S
C529 H535 0.959 . S
C529 H536 0.961 . S
C529 H537 0.960 . S
C530 C528 1.381 . S
C530 C531 1.394 . S
C530 H538 0.930 . S
C531 C530 1.394 . S
C531 C532 1.383 . S
C531 H539 0.929 . S
C532 C531 1.383 . S
C532 C533 1.377 . S
C533 H517 0.930 . S
C533 C532 1.377 . S
C533 C534 1.379 . S
C534 H518 0.931 . S
C534 C528 1.383 . S
C534 C533 1.379 . S
H535 C529 0.959 . S
H536 C529 0.961 . S
H537 C529 0.960 . S
H538 C530 0.930 . S
H539 C531 0.929 . S
H540 C548 0.929 . S
H541 C550 0.930 . S
H542 C552 0.930 . S
H543 C555 0.929 . S
H544 C558 0.930 . S
H545 C560 0.960 . S
H546 C560 0.960 . S
H547 C560 0.960 . S
C548 H540 0.929 . S
C548 C549 1.377 . S
C548 C550 1.384 . S
C549 C548 1.377 . S
C549 C555 1.390 . S
C550 H541 0.930 . S
C550 C548 1.384 . S
C550 C551 1.372 . S
C551 C550 1.372 . S
C551 C552 1.400 . S
C551 C556 1.490 . S
C552 H542 0.930 . S
C552 C551 1.400 . S
C552 C555 1.386 . S
H553 C569 0.930 . S
H554 C570 0.931 . S
C555 H543 0.929 . S
C555 C549 1.390 . S
C555 C552 1.386 . S
C556 C551 1.490 . S
C556 C558 1.395 . S
C556 C559 1.403 . S
H557 C563 0.930 . S
C558 H544 0.930 . S
C558 C556 1.395 . S
C558 C561 1.403 1_554 S
C559 C556 1.403 . S
C559 C560 1.524 . S
C559 C563 1.400 1_554 S
C560 H545 0.960 . S
C560 H546 0.960 . S
C560 H547 0.960 . S
C560 C559 1.524 . S
C561 C558 1.403 1_556 S
C561 C562 1.392 . S
C561 C565 1.495 . S
C562 C561 1.392 . S
C562 C563 1.385 . S
C562 C564 1.478 . S
C563 H557 0.930 . S
C563 C559 1.400 1_556 S
C563 C562 1.385 . S
C564 C562 1.478 . S
C564 C566 1.381 . S
C564 C570 1.383 . S
C565 C561 1.495 . S
C565 H571 0.959 1_556 S
C565 H572 0.961 . S
C565 H573 0.960 . S
C566 C564 1.381 . S
C566 C567 1.394 . S
C566 H574 0.930 . S
C567 C566 1.394 . S
C567 C568 1.383 . S
C567 H575 0.929 . S
C568 C567 1.383 . S
C568 C569 1.377 . S
C569 H553 0.930 . S
C569 C568 1.377 . S
C569 C570 1.379 . S
C570 H554 0.931 . S
C570 C564 1.383 . S
C570 C569 1.379 . S
H571 C565 0.959 1_554 S
H572 C565 0.961 . S
H573 C565 0.960 . S
H574 C566 0.930 . S
H575 C567 0.929 . S
H576 C584 0.929 . S
H577 C586 0.930 . S
H578 C588 0.930 . S
H579 C591 0.929 . S
H580 C594 0.930 . S
H581 C596 0.960 . S
H582 C596 0.960 . S
H583 C596 0.960 . S
C584 H576 0.929 . S
C584 C585 1.377 . S
C584 C586 1.384 . S
C585 C584 1.377 . S
C585 C591 1.390 . S
C586 H577 0.930 . S
C586 C584 1.384 . S
C586 C587 1.372 . S
C587 C586 1.372 . S
C587 C588 1.400 . S
C587 C592 1.490 . S
C588 H578 0.930 . S
C588 C587 1.400 . S
C588 C591 1.386 . S
H589 C605 0.930 . S
H590 C606 0.931 . S
C591 H579 0.929 . S
C591 C585 1.390 . S
C591 C588 1.386 . S
C592 C587 1.490 . S
C592 C594 1.395 . S
C592 C595 1.403 . S
H593 C599 0.930 . S
C594 H580 0.930 . S
C594 C592 1.395 . S
C594 C597 1.403 1_445 S
C595 C592 1.403 . S
C595 C596 1.524 . S
C595 C599 1.400 1_445 S
C596 H581 0.960 . S
C596 H582 0.960 . S
C596 H583 0.960 . S
C596 C595 1.524 . S
C597 C594 1.403 1_665 S
C597 C598 1.392 . S
C597 C601 1.495 . S
C598 C597 1.392 . S
C598 C599 1.385 . S
C598 C600 1.478 . S
C599 H593 0.930 . S
C599 C595 1.400 1_665 S
C599 C598 1.385 . S
C600 C598 1.478 . S
C600 C602 1.381 . S
C600 C606 1.383 . S
C601 C597 1.495 . S
C601 H607 0.959 . S
C601 H608 0.961 . S
C601 H609 0.960 . S
C602 C600 1.381 . S
C602 C603 1.394 . S
C602 H610 0.930 . S
C603 C602 1.394 . S
C603 C604 1.383 . S
C603 H611 0.929 . S
C604 C603 1.383 . S
C604 C605 1.377 . S
C605 H589 0.930 . S
C605 C604 1.377 . S
C605 C606 1.379 . S
C606 H590 0.931 . S
C606 C600 1.383 . S
C606 C605 1.379 . S
H607 C601 0.959 . S
H608 C601 0.961 . S
H609 C601 0.960 . S
H610 C602 0.930 . S
H611 C603 0.929 . S
H612 C620 0.929 . S
H613 C622 0.930 . S
H614 C624 0.930 . S
H615 C627 0.929 . S
H616 C630 0.930 . S
H617 C632 0.960 . S
H618 C632 0.960 1_455 S
H619 C632 0.960 1_455 S
C620 H612 0.929 . S
C620 C621 1.377 . S
C620 C622 1.384 . S
C621 C620 1.377 . S
C621 C627 1.390 . S
C622 H613 0.930 . S
C622 C620 1.384 . S
C622 C623 1.372 . S
C623 C622 1.372 . S
C623 C624 1.400 . S
C623 C628 1.490 . S
C624 H614 0.930 . S
C624 C623 1.400 . S
C624 C627 1.386 . S
H625 C641 0.930 . S
H626 C642 0.931 . S
C627 H615 0.929 . S
C627 C621 1.390 . S
C627 C624 1.386 . S
C628 C623 1.490 . S
C628 C630 1.395 . S
C628 C631 1.403 1_455 S
H629 C635 0.930 . S
C630 H616 0.930 . S
C630 C628 1.395 . S
C630 C633 1.403 . S
C631 C628 1.403 1_655 S
C631 C632 1.524 . S
C631 C635 1.400 . S
C632 H617 0.960 . S
C632 H618 0.960 1_655 S
C632 H619 0.960 1_655 S
C632 C631 1.524 . S
C633 C630 1.403 . S
C633 C634 1.392 1_455 S
C633 C637 1.495 . S
C634 C633 1.392 1_655 S
C634 C635 1.385 . S
C634 C636 1.478 . S
C635 H629 0.930 . S
C635 C631 1.400 . S
C635 C634 1.385 . S
C636 C634 1.478 . S
C636 C638 1.381 . S
C636 C642 1.383 . S
C637 C633 1.495 . S
C637 H643 0.959 . S
C637 H644 0.961 1_455 S
C637 H645 0.948 1_455 S
C638 C636 1.381 . S
C638 C639 1.394 . S
C638 H646 0.930 . S
C639 C638 1.394 . S
C639 C640 1.383 . S
C639 H647 0.929 . S
C640 C639 1.383 . S
C640 C641 1.377 . S
C641 H625 0.930 . S
C641 C640 1.377 . S
C641 C642 1.379 . S
C642 H626 0.931 . S
C642 C636 1.383 . S
C642 C641 1.379 . S
H643 C637 0.959 . S
H644 C637 0.961 1_655 S
H645 C637 0.948 1_655 S
H646 C638 0.930 . S
H647 C639 0.929 . S
H648 C656 0.929 . S
H649 C658 0.930 . S
H650 C660 0.930 . S
H651 C663 0.929 . S
H652 C666 0.930 . S
H653 C668 0.960 . S
H654 C668 0.960 . S
H655 C668 0.960 . S
C656 H648 0.929 . S
C656 C657 1.377 . S
C656 C658 1.384 . S
C657 C656 1.377 . S
C657 C663 1.390 . S
C658 H649 0.930 . S
C658 C656 1.384 . S
C658 C659 1.372 . S
C659 C658 1.372 . S
C659 C660 1.400 . S
C659 C664 1.490 . S
C660 H650 0.930 . S
C660 C659 1.400 . S
C660 C663 1.386 . S
H661 C677 0.930 . S
H662 C678 0.931 . S
C663 H651 0.929 . S
C663 C657 1.390 . S
C663 C660 1.386 . S
C664 C659 1.490 . S
C664 C666 1.395 . S
C664 C667 1.403 . S
H665 C671 0.930 . S
C666 H652 0.930 . S
C666 C664 1.395 . S
C666 C669 1.403 . S
C667 C664 1.403 . S
C667 C668 1.524 . S
C667 C671 1.400 . S
C668 H653 0.960 . S
C668 H654 0.960 . S
C668 H655 0.960 . S
C668 C667 1.524 . S
C669 C666 1.403 . S
C669 C670 1.392 . S
C669 C673 1.495 . S
C670 C669 1.392 . S
C670 C671 1.385 . S
C670 C672 1.478 . S
C671 H665 0.930 . S
C671 C667 1.400 . S
C671 C670 1.385 . S
C672 C670 1.478 . S
C672 C674 1.381 . S
C672 C678 1.383 . S
C673 C669 1.495 . S
C673 H679 0.959 . S
C673 H680 0.961 . S
C673 H681 0.960 . S
C674 C672 1.381 . S
C674 C675 1.394 . S
C674 H682 0.930 . S
C675 C674 1.394 . S
C675 C676 1.383 . S
C675 H683 0.929 . S
C676 C675 1.383 . S
C676 C677 1.377 . S
C677 H661 0.930 . S
C677 C676 1.377 . S
C677 C678 1.379 . S
C678 H662 0.931 . S
C678 C672 1.383 . S
C678 C677 1.379 . S
H679 C673 0.959 . S
H680 C673 0.961 . S
H681 C673 0.960 . S
H682 C674 0.930 . S
H683 C675 0.929 . S
H684 C692 0.929 . S
H685 C694 0.930 . S
H686 C696 0.930 . S
H687 C699 0.929 . S
H688 C702 0.930 . S
H689 C704 0.960 . S
H690 C704 0.960 . S
H691 C704 0.960 . S
C692 H684 0.929 . S
C692 C693 1.377 . S
C692 C694 1.384 . S
C693 C692 1.377 . S
C693 C699 1.390 . S
C694 H685 0.930 . S
C694 C692 1.384 . S
C694 C695 1.372 . S
C695 C694 1.372 . S
C695 C696 1.400 . S
C695 C700 1.490 . S
C696 H686 0.930 . S
C696 C695 1.400 . S
C696 C699 1.386 . S
H697 C713 0.930 . S
H698 C714 0.931 . S
C699 H687 0.929 . S
C699 C693 1.390 . S
C699 C696 1.386 . S
C700 C695 1.490 . S
C700 C702 1.395 . S
C700 C703 1.403 1_565 S
H701 C707 0.930 . S
C702 H688 0.930 . S
C702 C700 1.395 . S
C702 C705 1.403 . S
C703 C700 1.403 1_545 S
C703 C704 1.524 . S
C703 C707 1.400 . S
C704 H689 0.960 . S
C704 H690 0.960 . S
C704 H691 0.960 . S
C704 C703 1.524 . S
C705 C702 1.403 . S
C705 C706 1.392 1_565 S
C705 C709 1.495 . S
C706 C705 1.392 1_545 S
C706 C707 1.385 . S
C706 C708 1.478 . S
C707 H701 0.930 . S
C707 C703 1.400 . S
C707 C706 1.385 . S
C708 C706 1.478 . S
C708 C710 1.381 . S
C708 C714 1.383 . S
C709 C705 1.495 . S
C709 H715 0.959 . S
C709 H716 0.961 . S
C709 H717 0.960 . S
C710 C708 1.381 . S
C710 C711 1.394 . S
C710 H718 0.930 . S
C711 C710 1.394 . S
C711 C712 1.383 . S
C711 H719 0.929 . S
C712 C711 1.383 . S
C712 C713 1.377 . S
C713 H697 0.930 . S
C713 C712 1.377 . S
C713 C714 1.379 . S
C714 H698 0.931 . S
C714 C708 1.383 . S
C714 C713 1.379 . S
H715 C709 0.959 . S
H716 C709 0.961 . S
H717 C709 0.960 . S
H718 C710 0.930 . S
H719 C711 0.929 . S
H720 C728 0.929 . S
H721 C730 0.930 . S
H722 C732 0.930 . S
H723 C735 0.929 . S
H724 C738 0.930 . S
H725 C740 0.960 . S
H726 C740 0.960 . S
H727 C740 0.960 . S
C728 H720 0.929 . S
C728 C729 1.377 . S
C728 C730 1.384 . S
C729 C728 1.377 . S
C729 C735 1.390 . S
C730 H721 0.930 . S
C730 C728 1.384 . S
C730 C731 1.372 . S
C731 C730 1.372 . S
C731 C732 1.400 . S
C731 C736 1.490 . S
C732 H722 0.930 . S
C732 C731 1.400 . S
C732 C735 1.386 . S
H733 C749 0.930 . S
H734 C750 0.931 . S
C735 H723 0.929 . S
C735 C729 1.390 . S
C735 C732 1.386 . S
C736 C731 1.490 . S
C736 C738 1.395 1_655 S
C736 C739 1.403 . S
H737 C743 0.930 . S
C738 H724 0.930 . S
C738 C736 1.395 1_455 S
C738 C741 1.403 . S
C739 C736 1.403 . S
C739 C740 1.524 . S
C739 C743 1.400 . S
C740 H725 0.960 . S
C740 H726 0.960 . S
C740 H727 0.960 . S
C740 C739 1.524 . S
C741 C738 1.403 . S
C741 C742 1.392 . S
C741 C745 1.495 . S
C742 C741 1.392 . S
C742 C743 1.385 1_455 S
C742 C744 1.478 . S
C743 H737 0.930 . S
C743 C739 1.400 . S
C743 C742 1.385 1_655 S
C744 C742 1.478 . S
C744 C746 1.381 . S
C744 C750 1.383 . S
C745 C741 1.495 . S
C745 H751 0.959 . S
C745 H752 0.961 . S
C745 H753 0.960 . S
C746 C744 1.381 . S
C746 C747 1.394 . S
C746 H754 0.930 . S
C747 C746 1.394 . S
C747 C748 1.383 . S
C747 H755 0.929 . S
C748 C747 1.383 . S
C748 C749 1.377 . S
C749 H733 0.930 . S
C749 C748 1.377 . S
C749 C750 1.379 . S
C750 H734 0.931 . S
C750 C744 1.383 . S
C750 C749 1.379 . S
H751 C745 0.959 . S
H752 C745 0.961 . S
H753 C745 0.960 . S
H754 C746 0.930 . S
H755 C747 0.929 . S
H756 C764 0.929 . S
H757 C766 0.930 . S
H758 C768 0.930 . S
H759 C771 0.929 . S
H760 C774 0.930 . S
H761 C776 0.960 . S
H762 C776 0.960 . S
H763 C776 0.960 . S
C764 H756 0.929 . S
C764 C765 1.377 . S
C764 C766 1.384 . S
C765 C764 1.377 . S
C765 C771 1.390 . S
C766 H757 0.930 . S
C766 C764 1.384 . S
C766 C767 1.372 . S
C767 C766 1.372 . S
C767 C768 1.400 . S
C767 C772 1.490 . S
C768 H758 0.930 . S
C768 C767 1.400 . S
C768 C771 1.386 . S
H769 C785 0.930 . S
H770 C786 0.931 . S
C771 H759 0.929 . S
C771 C765 1.390 . S
C771 C768 1.386 . S
C772 C767 1.490 . S
C772 C774 1.395 . S
C772 C775 1.403 . S
H773 C779 0.930 . S
C774 H760 0.930 . S
C774 C772 1.395 . S
C774 C777 1.403 . S
C775 C772 1.403 . S
C775 C776 1.524 . S
C775 C779 1.400 . S
C776 H761 0.960 . S
C776 H762 0.960 . S
C776 H763 0.960 . S
C776 C775 1.524 . S
C777 C774 1.403 . S
C777 C778 1.392 . S
C777 C781 1.495 . S
C778 C777 1.392 . S
C778 C779 1.385 . S
C778 C780 1.478 . S
C779 H773 0.930 . S
C779 C775 1.400 . S
C779 C778 1.385 . S
C780 C778 1.478 . S
C780 C782 1.381 . S
C780 C786 1.383 . S
C781 C777 1.495 . S
C781 H787 0.959 . S
C781 H788 0.961 . S
C781 H789 0.960 . S
C782 C780 1.381 . S
C782 C783 1.394 . S
C782 H790 0.930 . S
C783 C782 1.394 . S
C783 C784 1.383 . S
C783 H791 0.929 . S
C784 C783 1.383 . S
C784 C785 1.377 . S
C785 H769 0.930 . S
C785 C784 1.377 . S
C785 C786 1.379 . S
C786 H770 0.931 . S
C786 C780 1.383 . S
C786 C785 1.379 . S
H787 C781 0.959 . S
H788 C781 0.961 . S
H789 C781 0.960 . S
H790 C782 0.930 . S
H791 C783 0.929 . S
H792 C800 0.929 . S
H793 C802 0.930 . S
H794 C804 0.930 . S
H795 C807 0.929 . S
H796 C810 0.930 . S
H797 C812 0.960 . S
H798 C812 0.960 1_545 S
H799 C812 0.960 1_545 S
C800 H792 0.929 . S
C800 C801 1.377 . S
C800 C802 1.384 . S
C801 C800 1.377 . S
C801 C807 1.390 . S
C802 H793 0.930 . S
C802 C800 1.384 . S
C802 C803 1.372 . S
C803 C802 1.372 . S
C803 C804 1.400 . S
C803 C808 1.490 . S
C804 H794 0.930 . S
C804 C803 1.400 . S
C804 C807 1.386 . S
H805 C821 0.930 . S
H806 C822 0.931 . S
C807 H795 0.929 . S
C807 C801 1.390 . S
C807 C804 1.386 . S
C808 C803 1.490 . S
C808 C810 1.395 . S
C808 C811 1.393 1_545 S
H809 C815 0.930 . S
C810 H796 0.930 . S
C810 C808 1.395 . S
C810 C813 1.403 . S
C811 C808 1.393 1_565 S
C811 C812 1.525 . S
C811 C815 1.408 . S
C812 H797 0.960 . S
C812 H798 0.960 1_565 S
C812 H799 0.960 1_565 S
C812 C811 1.525 . S
C813 C810 1.403 . S
C813 C814 1.392 1_545 S
C813 C817 1.495 . S
C814 C813 1.392 1_565 S
C814 C815 1.385 . S
C814 C816 1.478 . S
C815 H809 0.930 . S
C815 C811 1.408 . S
C815 C814 1.385 . S
C816 C814 1.478 . S
C816 C818 1.381 . S
C816 C822 1.383 . S
C817 C813 1.495 . S
C817 H823 0.959 . S
C817 H824 0.961 . S
C817 H825 0.960 1_545 S
C818 C816 1.381 . S
C818 C819 1.394 . S
C818 H826 0.930 . S
C819 C818 1.394 . S
C819 C820 1.383 . S
C819 H827 0.929 . S
C820 C819 1.383 . S
C820 C821 1.377 . S
C821 H805 0.930 . S
C821 C820 1.377 . S
C821 C822 1.379 . S
C822 H806 0.931 . S
C822 C816 1.383 . S
C822 C821 1.379 . S
H823 C817 0.959 . S
H824 C817 0.961 . S
H825 C817 0.960 1_565 S
H826 C818 0.930 . S
H827 C819 0.929 . S
H828 C836 0.929 . S
H829 C838 0.905 1_545 S
H830 C840 0.930 . S
H831 C843 0.929 . S
H832 C846 0.930 . S
H833 C848 0.960 1_455 S
H834 C848 0.960 . S
H835 C848 0.960 . S
C836 H828 0.929 . S
C836 C837 1.377 . S
C836 C838 1.384 . S
C837 C836 1.377 . S
C837 C843 1.390 . S
C838 H829 0.905 1_565 S
C838 C836 1.384 . S
C838 C839 1.372 . S
C839 C838 1.372 . S
C839 C840 1.400 . S
C839 C844 1.490 . S
C840 H830 0.930 . S
C840 C839 1.400 . S
C840 C843 1.386 . S
H841 C857 0.930 . S
H842 C858 0.930 . S
C843 H831 0.929 . S
C843 C837 1.390 . S
C843 C840 1.386 . S
C844 C839 1.490 . S
C844 C846 1.395 1_565 S
C844 C847 1.403 . S
H845 C851 0.930 . S
C846 H832 0.930 . S
C846 C844 1.395 1_545 S
C846 C849 1.403 1_655 S
C847 C844 1.403 . S
C847 C848 1.524 . S
C847 C851 1.400 1_665 S
C848 H833 0.960 1_655 S
C848 H834 0.960 . S
C848 H835 0.960 . S
C848 C847 1.524 . S
C849 C846 1.403 1_455 S
C849 C850 1.392 . S
C849 C853 1.495 . S
C850 C849 1.392 . S
C850 C851 1.385 . S
C850 C852 1.478 . S
C851 H845 0.930 . S
C851 C847 1.400 1_445 S
C851 C850 1.385 . S
C852 C850 1.478 . S
C852 C854 1.381 . S
C852 C858 1.383 . S
C853 C849 1.495 . S
C853 H859 0.959 1_455 S
C853 H860 0.961 . S
C853 H861 0.960 . S
C854 C852 1.381 . S
C854 C855 1.394 . S
C854 H862 0.930 . S
C855 C854 1.394 . S
C855 C856 1.383 . S
C855 H863 0.929 . S
C856 C855 1.383 . S
C856 C857 1.377 . S
C857 H841 0.930 . S
C857 C856 1.377 . S
C857 C858 1.379 . S
C858 H842 0.930 . S
C858 C852 1.383 . S
C858 C857 1.379 . S
H859 C853 0.959 1_655 S
H860 C853 0.961 . S
H861 C853 0.960 . S
H862 C854 0.930 . S
H863 C855 0.929 . S
C297 C14 1.001 . S
C316 C182 1.015 . S
C333 C50 0.947 . S
C352 C230 0.950 . S
C369 C74 0.996 . S
C388 C266 1.033 . S
C405 C110 1.053 . S
C424 C146 1.082 . S
C441 C254 1.063 . S
C460 C2 1.016 . S
C477 C158 1.004 . S
C496 C38 0.989 . S
C513 C86 0.953 . S
C532 C194 0.982 . S
C549 C218 1.011 . S
C568 C122 0.995 . S
C585 C4 1.582 . S
C604 C219 1.571 . S
C621 C255 1.578 . S
C640 C40 1.575 . S
C657 C75 1.578 . S
C676 C148 1.579 . S
C693 C111 1.577 . S
C712 C184 1.582 . S
C729 C220 1.582 . S
C748 C3 1.580 . S
C765 C256 1.581 . S
C784 C39 1.567 . S
C801 C76 1.582 . S
C820 C147 1.582 . S
C837 C112 1.582 . S
C856 C183 1.575 . S
