# Generated by pormake.
# Topology uks, (4)-cn, num edge types: 1
# Building blocks:
#     Node 0, Type 0, BuildingBlock: MUDLON_clean_sbu_0, # of connection points: 4
#     Node 1, Type 0, BuildingBlock: MUDLON_clean_sbu_0, # of connection points: 4
#     Node 2, Type 0, BuildingBlock: MUDLON_clean_sbu_0, # of connection points: 4
#     Node 3, Type 0, BuildingBlock: MUDLON_clean_sbu_0, # of connection points: 4
#     Node 4, Type 0, BuildingBlock: MUDLON_clean_sbu_0, # of connection points: 4
#     Node 5, Type 0, BuildingBlock: MUDLON_clean_sbu_0, # of connection points: 4
#     Node 6, Type 0, BuildingBlock: MUDLON_clean_sbu_0, # of connection points: 4
#     Node 7, Type 0, BuildingBlock: MUDLON_clean_sbu_0, # of connection points: 4
#     Node 8, Type 0, BuildingBlock: MUDLON_clean_sbu_0, # of connection points: 4
#     Node 9, Type 0, BuildingBlock: MUDLON_clean_sbu_0, # of connection points: 4
#     Node 10, Type 0, BuildingBlock: MUDLON_clean_sbu_0, # of connection points: 4
#     Node 11, Type 0, BuildingBlock: MUDLON_clean_sbu_0, # of connection points: 4
#     Node 12, Type 0, BuildingBlock: MUDLON_clean_sbu_0, # of connection points: 4
#     Node 13, Type 0, BuildingBlock: MUDLON_clean_sbu_0, # of connection points: 4
#     Node 14, Type 0, BuildingBlock: MUDLON_clean_sbu_0, # of connection points: 4
#     Node 15, Type 0, BuildingBlock: MUDLON_clean_sbu_0, # of connection points: 4
#     Node 16, Type 0, BuildingBlock: MUDLON_clean_sbu_0, # of connection points: 4
#     Node 17, Type 0, BuildingBlock: MUDLON_clean_sbu_0, # of connection points: 4
#     Node 18, Type 0, BuildingBlock: MUDLON_clean_sbu_0, # of connection points: 4
#     Node 19, Type 0, BuildingBlock: MUDLON_clean_sbu_0, # of connection points: 4
#     Node 20, Type 0, BuildingBlock: MUDLON_clean_sbu_0, # of connection points: 4
#     Node 21, Type 0, BuildingBlock: MUDLON_clean_sbu_0, # of connection points: 4
#     Node 22, Type 0, BuildingBlock: MUDLON_clean_sbu_0, # of connection points: 4
#     Node 23, Type 0, BuildingBlock: MUDLON_clean_sbu_0, # of connection points: 4
#     Edge 24, Type (0, 0), BuildingBlock: OJICUG_clean_linker_0, # of connection points: 2
#     Edge 25, Type (0, 0), BuildingBlock: OJICUG_clean_linker_0, # of connection points: 2
#     Edge 26, Type (0, 0), BuildingBlock: OJICUG_clean_linker_0, # of connection points: 2
#     Edge 27, Type (0, 0), BuildingBlock: OJICUG_clean_linker_0, # of connection points: 2
#     Edge 28, Type (0, 0), BuildingBlock: OJICUG_clean_linker_0, # of connection points: 2
#     Edge 29, Type (0, 0), BuildingBlock: OJICUG_clean_linker_0, # of connection points: 2
#     Edge 30, Type (0, 0), BuildingBlock: OJICUG_clean_linker_0, # of connection points: 2
#     Edge 31, Type (0, 0), BuildingBlock: OJICUG_clean_linker_0, # of connection points: 2
#     Edge 32, Type (0, 0), BuildingBlock: OJICUG_clean_linker_0, # of connection points: 2
#     Edge 33, Type (0, 0), BuildingBlock: OJICUG_clean_linker_0, # of connection points: 2
#     Edge 34, Type (0, 0), BuildingBlock: OJICUG_clean_linker_0, # of connection points: 2
#     Edge 35, Type (0, 0), BuildingBlock: OJICUG_clean_linker_0, # of connection points: 2
#     Edge 36, Type (0, 0), BuildingBlock: OJICUG_clean_linker_0, # of connection points: 2
#     Edge 37, Type (0, 0), BuildingBlock: OJICUG_clean_linker_0, # of connection points: 2
#     Edge 38, Type (0, 0), BuildingBlock: OJICUG_clean_linker_0, # of connection points: 2
#     Edge 39, Type (0, 0), BuildingBlock: OJICUG_clean_linker_0, # of connection points: 2
#     Edge 40, Type (0, 0), BuildingBlock: OJICUG_clean_linker_0, # of connection points: 2
#     Edge 41, Type (0, 0), BuildingBlock: OJICUG_clean_linker_0, # of connection points: 2
#     Edge 42, Type (0, 0), BuildingBlock: OJICUG_clean_linker_0, # of connection points: 2
#     Edge 43, Type (0, 0), BuildingBlock: OJICUG_clean_linker_0, # of connection points: 2
#     Edge 44, Type (0, 0), BuildingBlock: OJICUG_clean_linker_0, # of connection points: 2
#     Edge 45, Type (0, 0), BuildingBlock: OJICUG_clean_linker_0, # of connection points: 2
#     Edge 46, Type (0, 0), BuildingBlock: OJICUG_clean_linker_0, # of connection points: 2
#     Edge 47, Type (0, 0), BuildingBlock: OJICUG_clean_linker_0, # of connection points: 2
#     Edge 48, Type (0, 0), BuildingBlock: OJICUG_clean_linker_0, # of connection points: 2
#     Edge 49, Type (0, 0), BuildingBlock: OJICUG_clean_linker_0, # of connection points: 2
#     Edge 50, Type (0, 0), BuildingBlock: OJICUG_clean_linker_0, # of connection points: 2
#     Edge 51, Type (0, 0), BuildingBlock: OJICUG_clean_linker_0, # of connection points: 2
#     Edge 52, Type (0, 0), BuildingBlock: OJICUG_clean_linker_0, # of connection points: 2
#     Edge 53, Type (0, 0), BuildingBlock: OJICUG_clean_linker_0, # of connection points: 2
#     Edge 54, Type (0, 0), BuildingBlock: OJICUG_clean_linker_0, # of connection points: 2
#     Edge 55, Type (0, 0), BuildingBlock: OJICUG_clean_linker_0, # of connection points: 2
#     Edge 56, Type (0, 0), BuildingBlock: OJICUG_clean_linker_0, # of connection points: 2
#     Edge 57, Type (0, 0), BuildingBlock: OJICUG_clean_linker_0, # of connection points: 2
#     Edge 58, Type (0, 0), BuildingBlock: OJICUG_clean_linker_0, # of connection points: 2
#     Edge 59, Type (0, 0), BuildingBlock: OJICUG_clean_linker_0, # of connection points: 2
#     Edge 60, Type (0, 0), BuildingBlock: OJICUG_clean_linker_0, # of connection points: 2
#     Edge 61, Type (0, 0), BuildingBlock: OJICUG_clean_linker_0, # of connection points: 2
#     Edge 62, Type (0, 0), BuildingBlock: OJICUG_clean_linker_0, # of connection points: 2
#     Edge 63, Type (0, 0), BuildingBlock: OJICUG_clean_linker_0, # of connection points: 2
#     Edge 64, Type (0, 0), BuildingBlock: OJICUG_clean_linker_0, # of connection points: 2
#     Edge 65, Type (0, 0), BuildingBlock: OJICUG_clean_linker_0, # of connection points: 2
#     Edge 66, Type (0, 0), BuildingBlock: OJICUG_clean_linker_0, # of connection points: 2
#     Edge 67, Type (0, 0), BuildingBlock: OJICUG_clean_linker_0, # of connection points: 2
#     Edge 68, Type (0, 0), BuildingBlock: OJICUG_clean_linker_0, # of connection points: 2
#     Edge 69, Type (0, 0), BuildingBlock: OJICUG_clean_linker_0, # of connection points: 2
#     Edge 70, Type (0, 0), BuildingBlock: OJICUG_clean_linker_0, # of connection points: 2
#     Edge 71, Type (0, 0), BuildingBlock: OJICUG_clean_linker_0, # of connection points: 2
# Relax obj value: 0.065
# Max RMSD: 0.062
# Mean RMSD: 0.062
data_MOF--net-uks--node1-MUDLON_clean_sbu_0--edge1-OJICUG_clean_linker_0
_symmetry_space_group_name_H-M    P1
_symmetry_Int_Tables_number       1
_symmetry_cell_setting            triclinic
loop_
_symmetry_equiv_pos_as_xyz
'x, y, z'
_cell_length_a     40.651306
_cell_length_b     41.027372
_cell_length_c     40.569162
_cell_angle_alpha  89.877989
_cell_angle_beta   90.387502
_cell_angle_gamma 89.689753
loop_
_atom_site_label
_atom_site_type_symbol
_atom_site_fract_x
_atom_site_fract_y
_atom_site_fract_z
_atom_type_partial_charge
Mg0 Mg 0.12928 0.40046 0.76006 0.0
C1 C 0.19771 0.37266 0.7735 0.0
O2 O 0.18031 0.34981 0.78767 0.0
C3 C 0.06731 0.38362 0.72182 0.0
O4 O 0.05741 0.40849 0.73962 0.0
C5 C 0.1217 0.46193 0.72222 0.0
O6 O 0.12194 0.43862 0.70006 0.0
O7 O 0.12282 0.45369 0.75259 0.0
O8 O 0.18289 0.39429 0.7562 0.0
O9 O 0.12186 0.37629 0.80804 0.0
C10 C 0.09825 0.35643 0.81194 0.0
O11 O 0.07269 0.35892 0.79211 0.0
O12 O 0.09742 0.37469 0.72409 0.0
Mg13 Mg 0.65599 0.65529 0.21875 0.0
C14 C 0.63272 0.71546 0.25098 0.0
O15 O 0.62913 0.72099 0.21929 0.0
C16 C 0.65548 0.58691 0.19351 0.0
O17 O 0.64899 0.60484 0.16737 0.0
C18 C 0.59151 0.65622 0.18693 0.0
O19 O 0.59018 0.63283 0.20906 0.0
O20 O 0.61918 0.66957 0.18161 0.0
O21 O 0.64207 0.68703 0.26027 0.0
O22 O 0.70811 0.66687 0.21439 0.0
C23 C 0.72064 0.69317 0.22527 0.0
O24 O 0.70147 0.71829 0.23111 0.0
O25 O 0.65809 0.60118 0.22136 0.0
Mg26 Mg 0.38246 0.15065 0.69765 0.0
C27 C 0.40122 0.21382 0.72661 0.0
O28 O 0.40037 0.21871 0.69461 0.0
C29 C 0.35628 0.08224 0.71011 0.0
O30 O 0.33106 0.10003 0.71929 0.0
C31 C 0.45024 0.16044 0.67489 0.0
O32 O 0.45301 0.14588 0.70367 0.0
O33 O 0.42141 0.16404 0.66255 0.0
O34 O 0.39482 0.18522 0.73748 0.0
O35 O 0.32948 0.1591 0.68812 0.0
C36 C 0.31353 0.18072 0.70406 0.0
O37 O 0.32999 0.20415 0.71854 0.0
O38 O 0.3833 0.09663 0.70353 0.0
Mg39 Mg 0.89685 0.89542 0.23017 0.0
C40 C 0.85014 0.9086 0.2894 0.0
O41 O 0.8501 0.93874 0.27842 0.0
C42 C 0.97047 0.88469 0.24733 0.0
O43 O 0.95889 0.86121 0.26594 0.0
C44 C 0.88436 0.96541 0.21115 0.0
O45 O 0.90793 0.96744 0.23337 0.0
O46 O 0.87404 0.93709 0.20326 0.0
O47 O 0.86918 0.88774 0.27604 0.0
O48 O 0.8941 0.84603 0.20891 0.0
C49 C 0.91914 0.83275 0.19561 0.0
O50 O 0.94386 0.85131 0.18698 0.0
O51 O 0.95024 0.904 0.23302 0.0
Mg52 Mg 0.15384 0.15861 0.83789 0.0
C53 C 0.13063 0.22459 0.83778 0.0
O54 O 0.11958 0.20982 0.81127 0.0
C55 C 0.16254 0.09003 0.86327 0.0
O56 O 0.1365 0.08828 0.844 0.0
C57 C 0.0834 0.15178 0.85562 0.0
O58 O 0.09817 0.15312 0.88449 0.0
O59 O 0.10108 0.14997 0.82981 0.0
O60 O 0.14961 0.2087 0.85734 0.0
O61 O 0.1839 0.16716 0.79395 0.0
C62 C 0.19546 0.14678 0.77336 0.0
O63 O 0.1875 0.11589 0.77593 0.0
O64 O 0.17605 0.11781 0.86709 0.0
Mg65 Mg 0.91324 0.65171 0.28681 0.0
C66 C 0.94127 0.70081 0.23807 0.0
O67 O 0.9665 0.6991 0.25841 0.0
C68 C 0.89394 0.58351 0.30614 0.0
O69 O 0.8742 0.60178 0.32385 0.0
C70 C 0.96528 0.65165 0.34162 0.0
O71 O 0.95477 0.62159 0.3448 0.0
O72 O 0.95079 0.67042 0.32108 0.0
O73 O 0.91831 0.68 0.241 0.0
O74 O 0.86191 0.66331 0.29543 0.0
C75 C 0.85001 0.69041 0.28564 0.0
O76 O 0.87002 0.71483 0.28023 0.0
O77 O 0.91411 0.5976 0.28673 0.0
Mg78 Mg 0.39907 0.39106 0.83996 0.0
C79 C 0.33344 0.39307 0.81378 0.0
O80 O 0.35262 0.40922 0.79363 0.0
C81 C 0.46238 0.38748 0.87716 0.0
O82 O 0.46529 0.41478 0.86051 0.0
C83 C 0.40399 0.46118 0.86384 0.0
O84 O 0.40848 0.44503 0.89151 0.0
O85 O 0.40125 0.44509 0.83697 0.0
O86 O 0.3461 0.38155 0.8403 0.0
O87 O 0.41052 0.357 0.79997 0.0
C88 C 0.40627 0.32798 0.81072 0.0
O89 O 0.39775 0.32425 0.84168 0.0
O90 O 0.43488 0.3727 0.87644 0.0
Mg91 Mg 0.65914 0.89315 0.3617 0.0
C92 C 0.64468 0.82861 0.3354 0.0
O93 O 0.64948 0.82452 0.36721 0.0
C94 C 0.67301 0.9614 0.37557 0.0
O95 O 0.68693 0.94421 0.39925 0.0
C96 C 0.59173 0.88767 0.38443 0.0
O97 O 0.59065 0.90357 0.35628 0.0
O98 O 0.61998 0.88097 0.39679 0.0
O99 O 0.6471 0.85738 0.32348 0.0
O100 O 0.71281 0.88823 0.36968 0.0
C101 C 0.73045 0.86913 0.3523 0.0
O102 O 0.71598 0.84606 0.33528 0.0
O103 O 0.65643 0.94628 0.35357 0.0
Mg104 Mg 0.67551 0.17415 0.359 0.0
C105 C 0.68333 0.15337 0.29248 0.0
O106 O 0.70583 0.13947 0.31123 0.0
C107 C 0.6487 0.18465 0.42653 0.0
O108 O 0.66257 0.15569 0.42782 0.0
C109 C 0.69507 0.10137 0.37675 0.0
O110 O 0.72423 0.11271 0.38466 0.0
O111 O 0.67253 0.12113 0.36777 0.0
O112 O 0.66362 0.17383 0.30571 0.0
O113 O 0.72311 0.19893 0.35961 0.0
C114 C 0.7201 0.22988 0.35809 0.0
O115 O 0.69031 0.24248 0.3577 0.0
O116 O 0.64778 0.19943 0.3988 0.0
Mg117 Mg 0.87105 0.17148 0.86118 0.0
C118 C 0.89071 0.15216 0.79079 0.0
O119 O 0.9132 0.13512 0.80673 0.0
C120 C 0.86253 0.13149 0.92345 0.0
O121 O 0.89442 0.13648 0.92395 0.0
C122 C 0.94446 0.18523 0.85103 0.0
O123 O 0.93275 0.20241 0.82619 0.0
O124 O 0.92438 0.17244 0.87125 0.0
O125 O 0.8672 0.1648 0.80717 0.0
O126 O 0.84317 0.21639 0.8687 0.0
C127 C 0.83088 0.22256 0.8968 0.0
O128 O 0.84062 0.20536 0.92244 0.0
O129 O 0.84628 0.13992 0.89777 0.0
Mg130 Mg 0.87489 0.37562 0.35466 0.0
C131 C 0.83141 0.31704 0.34456 0.0
O132 O 0.86015 0.30528 0.33574 0.0
C133 C 0.89372 0.44324 0.32983 0.0
O134 O 0.91936 0.42597 0.3207 0.0
C135 C 0.89659 0.33721 0.41755 0.0
O136 O 0.89206 0.31232 0.39778 0.0
O137 O 0.89308 0.36605 0.40589 0.0
O138 O 0.82924 0.34712 0.35225 0.0
O139 O 0.90762 0.35701 0.31608 0.0
C140 C 0.90784 0.35841 0.28452 0.0
O141 O 0.93282 0.34477 0.26935 0.0
O142 O 0.87053 0.42888 0.3452 0.0
Mg143 Mg 0.66546 0.35331 0.88363 0.0
C144 C 0.67279 0.35199 0.80686 0.0
O145 O 0.70169 0.33901 0.81357 0.0
C146 C 0.68207 0.39277 0.94544 0.0
O147 O 0.65063 0.38752 0.95026 0.0
C148 C 0.59219 0.33501 0.88995 0.0
O149 O 0.59946 0.31363 0.86703 0.0
O150 O 0.61528 0.35151 0.903 0.0
O151 O 0.65544 0.36299 0.83055 0.0
O152 O 0.69569 0.30921 0.884 0.0
C153 C 0.71392 0.30295 0.9089 0.0
O154 O 0.70955 0.31955 0.93618 0.0
O155 O 0.69436 0.38493 0.9176 0.0
Mg156 Mg 0.75358 0.40573 0.14687 0.0
C157 C 0.8003 0.4059 0.20184 0.0
O158 O 0.77083 0.40497 0.21491 0.0
C159 C 0.75741 0.40397 0.06714 0.0
O160 O 0.78596 0.38901 0.06957 0.0
C161 C 0.6996 0.45707 0.15806 0.0
O162 O 0.69176 0.44728 0.12822 0.0
O163 O 0.72281 0.44219 0.17327 0.0
O164 O 0.80237 0.40931 0.17058 0.0
O165 O 0.74684 0.35308 0.15498 0.0
C166 C 0.7712 0.33663 0.14397 0.0
O167 O 0.7951 0.35245 0.12945 0.0
O168 O 0.74294 0.41341 0.09333 0.0
Mg169 Mg 0.63141 0.26232 0.62399 0.0
C170 C 0.69806 0.25324 0.65753 0.0
O171 O 0.68094 0.25998 0.68401 0.0
C172 C 0.56396 0.23206 0.62787 0.0
O173 O 0.55996 0.2538 0.60434 0.0
C174 C 0.6261 0.23237 0.55888 0.0
O175 O 0.62597 0.20908 0.58117 0.0
O176 O 0.62748 0.26179 0.56914 0.0
O177 O 0.68287 0.24777 0.63055 0.0
O178 O 0.63349 0.30616 0.65606 0.0
C179 C 0.61806 0.3068 0.6834 0.0
O180 O 0.59508 0.28502 0.68851 0.0
O181 O 0.59225 0.22945 0.64162 0.0
Mg182 Mg 0.77724 0.12988 0.11897 0.0
C183 C 0.78133 0.1955 0.15347 0.0
O184 O 0.76358 0.17976 0.17513 0.0
C185 C 0.82761 0.08684 0.16028 0.0
O186 O 0.84001 0.11483 0.16977 0.0
C187 C 0.81001 0.11509 0.05503 0.0
O188 O 0.8314 0.10604 0.07774 0.0
O189 O 0.78208 0.12581 0.06455 0.0
O190 O 0.79457 0.1795 0.13002 0.0
O191 O 0.72838 0.13317 0.14223 0.0
C192 C 0.72096 0.11261 0.1645 0.0
O193 O 0.73809 0.08541 0.16626 0.0
O194 O 0.80311 0.08694 0.14055 0.0
Mg195 Mg 0.90464 0.2805 0.62574 0.0
C196 C 0.83774 0.28206 0.65816 0.0
O197 O 0.85558 0.27329 0.68382 0.0
C198 C 0.97043 0.30954 0.64671 0.0
O199 O 0.98031 0.28692 0.62609 0.0
C200 C 0.90954 0.31302 0.55907 0.0
O201 O 0.90596 0.33781 0.5792 0.0
O202 O 0.9113 0.28437 0.57151 0.0
O203 O 0.85224 0.29089 0.63189 0.0
O204 O 0.9047 0.23257 0.65089 0.0
C205 C 0.9244 0.22527 0.67439 0.0
O206 O 0.9499 0.24401 0.67996 0.0
O207 O 0.93957 0.3132 0.65136 0.0
Mg208 Mg 0.3868 0.70397 0.17986 0.0
C209 C 0.35925 0.76827 0.20368 0.0
O210 O 0.3754 0.75917 0.23031 0.0
C211 C 0.46408 0.71452 0.16435 0.0
O212 O 0.45992 0.74581 0.15867 0.0
C213 C 0.34531 0.68667 0.11856 0.0
O214 O 0.33365 0.71614 0.12366 0.0
O215 O 0.36526 0.67439 0.1397 0.0
O216 O 0.36375 0.75238 0.1771 0.0
O217 O 0.37852 0.6903 0.23198 0.0
C218 C 0.40307 0.69215 0.25173 0.0
O219 O 0.4324 0.69661 0.23921 0.0
O220 O 0.43959 0.69699 0.17214 0.0
Mg221 Mg 0.40152 0.79933 0.42393 0.0
C222 C 0.38698 0.73612 0.38569 0.0
O223 O 0.35744 0.74011 0.39801 0.0
C224 C 0.39868 0.82935 0.48912 0.0
O225 O 0.40635 0.85266 0.46833 0.0
C226 C 0.4707 0.82552 0.42621 0.0
O227 O 0.47201 0.80212 0.44835 0.0
O228 O 0.44335 0.83107 0.41147 0.0
O229 O 0.41041 0.75386 0.39646 0.0
O230 O 0.35219 0.81337 0.40687 0.0
C231 C 0.3428 0.8087 0.37727 0.0
O232 O 0.36527 0.80345 0.35473 0.0
O233 O 0.39613 0.80042 0.47793 0.0
Mg234 Mg 0.24459 0.90315 0.92799 0.0
C235 C 0.23624 0.85886 0.86955 0.0
O236 O 0.25295 0.83844 0.88822 0.0
C237 C 0.20711 0.86375 0.98273 0.0
O238 O 0.20898 0.83885 0.96251 0.0
C239 C 0.20912 0.96458 0.91415 0.0
O240 O 0.18689 0.94163 0.91709 0.0
O241 O 0.23922 0.95652 0.91885 0.0
O242 O 0.22346 0.88403 0.88271 0.0
O243 O 0.29321 0.87867 0.92571 0.0
C244 C 0.30098 0.85574 0.94566 0.0
O245 O 0.28397 0.85261 0.97288 0.0
O246 O 0.21886 0.89115 0.97394 0.0
Mg247 Mg 0.16613 0.69669 0.39129 0.0
C248 C 0.17928 0.65811 0.32335 0.0
O249 O 0.1888 0.63071 0.30956 0.0
C250 C 0.20249 0.68336 0.45653 0.0
O251 O 0.22592 0.69836 0.44041 0.0
C252 C 0.09555 0.67832 0.39316 0.0
O253 O 0.11067 0.65398 0.40806 0.0
O254 O 0.11261 0.70277 0.38433 0.0
O255 O 0.1792 0.65932 0.35489 0.0
O256 O 0.19811 0.73962 0.38484 0.0
C257 C 0.22237 0.73794 0.36511 0.0
O258 O 0.22633 0.71143 0.34752 0.0
O259 O 0.17506 0.67853 0.44193 0.0
Mg260 Mg 0.33889 0.65867 0.911 0.0
C261 C 0.31159 0.65903 0.84206 0.0
O262 O 0.34348 0.65856 0.83696 0.0
C263 C 0.34228 0.64221 0.98346 0.0
O264 O 0.37033 0.6301 0.97305 0.0
C265 C 0.35761 0.59298 0.88294 0.0
O266 O 0.32642 0.59575 0.87479 0.0
O267 O 0.37116 0.61621 0.89901 0.0
O268 O 0.30128 0.65967 0.87173 0.0
O269 O 0.35678 0.70931 0.91619 0.0
C270 C 0.34729 0.73254 0.89735 0.0
O271 O 0.33273 0.72541 0.86933 0.0
O272 O 0.32171 0.65299 0.9621 0.0
Mg273 Mg 0.16196 0.81866 0.18556 0.0
C274 C 0.15203 0.77 0.23907 0.0
O275 O 0.14322 0.79756 0.25298 0.0
C276 C 0.16809 0.84719 0.11915 0.0
O277 O 0.17521 0.87112 0.13942 0.0
C278 C 0.10002 0.86249 0.19351 0.0
O279 O 0.10214 0.86498 0.16131 0.0
O280 O 0.12254 0.84722 0.20928 0.0
O281 O 0.1599 0.77034 0.20869 0.0
O282 O 0.2135 0.83207 0.1927 0.0
C283 C 0.23046 0.82361 0.21779 0.0
O284 O 0.21524 0.81287 0.24407 0.0
O285 O 0.15884 0.82014 0.13147 0.0
Mg286 Mg 0.18882 0.65319 0.66674 0.0
C287 C 0.17236 0.72199 0.64302 0.0
O288 O 0.16383 0.70612 0.61624 0.0
C289 C 0.14993 0.59034 0.67018 0.0
O290 O 0.15981 0.58986 0.63942 0.0
C291 C 0.21825 0.66017 0.59722 0.0
O292 O 0.23901 0.679 0.61312 0.0
O293 O 0.19702 0.64438 0.61372 0.0
O294 O 0.17801 0.70578 0.66934 0.0
O295 O 0.23054 0.64989 0.70094 0.0
C296 C 0.22131 0.65484 0.73054 0.0
O297 O 0.18991 0.66036 0.73584 0.0
O298 O 0.15568 0.61571 0.68733 0.0
Mg299 Mg 0.29861 0.88031 0.6692 0.0
C300 C 0.2466 0.84029 0.63241 0.0
O301 O 0.27022 0.83717 0.6107 0.0
C302 C 0.33425 0.94471 0.68093 0.0
O303 O 0.35861 0.92384 0.68477 0.0
C304 C 0.34562 0.87485 0.61262 0.0
O305 O 0.33835 0.90608 0.61246 0.0
O306 O 0.33395 0.85709 0.63547 0.0
O307 O 0.2502 0.86054 0.65588 0.0
O308 O 0.29706 0.86458 0.72043 0.0
C309 C 0.27129 0.87691 0.73328 0.0
O310 O 0.2533 0.89697 0.7153 0.0
O311 O 0.30588 0.93384 0.67285 0.0
C312 C 0.14374 0.28363 0.84864 0.0
C313 C 0.12062 0.25898 0.8427 0.0
H314 H 0.15444 0.33471 0.84476 0.0
C315 C 0.08831 0.26795 0.83401 0.0
H316 H 0.16884 0.27738 0.85532 0.0
C317 C 0.0801 0.30046 0.82769 0.0
C318 C 0.10417 0.32488 0.82947 0.0
H319 H 0.06988 0.24943 0.82959 0.0
H320 H 0.05556 0.30595 0.81864 0.0
C321 C 0.13549 0.31643 0.84223 0.0
C322 C 0.77052 0.72197 0.24728 0.0
C323 C 0.75451 0.69277 0.23901 0.0
H324 H 0.81328 0.74419 0.26869 0.0
C325 C 0.76965 0.66298 0.24738 0.0
H326 H 0.75931 0.74531 0.24146 0.0
C327 C 0.79992 0.66236 0.26387 0.0
C328 C 0.81616 0.6915 0.27187 0.0
H329 H 0.75778 0.64003 0.24188 0.0
H330 H 0.81091 0.63891 0.2697 0.0
C331 C 0.80122 0.72134 0.26321 0.0
C332 C 0.40308 0.2674 0.80293 0.0
C333 C 0.40815 0.29865 0.78927 0.0
H334 H 0.39706 0.21619 0.79417 0.0
C335 C 0.41317 0.30125 0.75522 0.0
H336 H 0.3993 0.26436 0.82915 0.0
C337 C 0.41198 0.27346 0.7352 0.0
C338 C 0.4057 0.24238 0.74872 0.0
H339 H 0.41721 0.32481 0.74389 0.0
H340 H 0.41526 0.27654 0.70891 0.0
C341 C 0.40186 0.23964 0.78292 0.0
C342 C 0.78563 0.85491 0.3289 0.0
C343 C 0.76479 0.87805 0.34368 0.0
H344 H 0.82928 0.8462 0.30091 0.0
C345 C 0.775 0.91076 0.34468 0.0
H346 H 0.77852 0.82953 0.32771 0.0
C347 C 0.80389 0.92048 0.32874 0.0
C348 C 0.82354 0.89763 0.31193 0.0
H349 H 0.75948 0.92929 0.35566 0.0
H350 H 0.80997 0.94614 0.32821 0.0
C351 C 0.81479 0.86452 0.31349 0.0
C352 C 0.69533 0.09995 0.2188 0.0
C353 C 0.70121 0.12278 0.19369 0.0
H354 H 0.68436 0.09208 0.26966 0.0
C355 C 0.69356 0.15584 0.19982 0.0
H356 H 0.70042 0.07429 0.215 0.0
C357 C 0.68412 0.16611 0.23155 0.0
C358 C 0.68193 0.1434 0.25739 0.0
H359 H 0.69743 0.17412 0.18097 0.0
H360 H 0.68139 0.19192 0.23646 0.0
C361 C 0.68601 0.11015 0.25021 0.0
C362 C 0.93957 0.1856 0.71912 0.0
C363 C 0.91511 0.20077 0.69978 0.0
H364 H 0.95095 0.15739 0.76216 0.0
C365 C 0.88192 0.19607 0.7083 0.0
H366 H 0.96533 0.18879 0.71329 0.0
C367 C 0.87362 0.17884 0.73705 0.0
C368 C 0.89827 0.16502 0.75728 0.0
H369 H 0.86244 0.20752 0.69401 0.0
H370 H 0.84802 0.1774 0.7441 0.0
C371 C 0.93125 0.16753 0.74717 0.0
C372 C 0.85133 0.38428 0.27777 0.0
C373 C 0.88129 0.37413 0.26415 0.0
H374 H 0.80267 0.40264 0.26907 0.0
C375 C 0.88538 0.37754 0.22975 0.0
H376 H 0.84705 0.38228 0.30382 0.0
C377 C 0.85981 0.38938 0.20952 0.0
C378 C 0.82936 0.39808 0.22311 0.0
H379 H 0.90818 0.37027 0.21817 0.0
H380 H 0.86352 0.39051 0.18313 0.0
C381 C 0.82575 0.39604 0.2576 0.0
C382 C 0.6648 0.33238 0.71533 0.0
C383 C 0.631 0.32554 0.71226 0.0
H384 H 0.70457 0.34571 0.74769 0.0
C385 C 0.61064 0.33189 0.73948 0.0
H386 H 0.6813 0.32763 0.69503 0.0
C387 C 0.62389 0.34304 0.76946 0.0
C388 C 0.65803 0.34732 0.77334 0.0
H389 H 0.58454 0.32683 0.73806 0.0
H390 H 0.6076 0.34615 0.79026 0.0
C391 C 0.67819 0.34266 0.74562 0.0
C392 C 0.31146 0.79936 0.17912 0.0
C393 C 0.3299 0.78979 0.20697 0.0
H394 H 0.26579 0.81851 0.16069 0.0
C395 C 0.31732 0.79676 0.23845 0.0
H396 H 0.32046 0.7945 0.15454 0.0
C397 C 0.28576 0.81004 0.24202 0.0
C398 C 0.26628 0.81725 0.21419 0.0
H399 H 0.33085 0.78987 0.26049 0.0
H400 H 0.27595 0.81298 0.26662 0.0
C401 C 0.28009 0.81322 0.1827 0.0
C402 C 0.30034 0.78173 0.34167 0.0
C403 C 0.30832 0.7981 0.37106 0.0
H404 H 0.26679 0.75 0.31677 0.0
C405 C 0.28479 0.79898 0.39641 0.0
H406 H 0.3177 0.78053 0.32157 0.0
C407 C 0.25532 0.78151 0.39353 0.0
C408 C 0.24897 0.76259 0.36538 0.0
H409 H 0.29003 0.81144 0.41934 0.0
H410 H 0.23872 0.78094 0.41429 0.0
C411 C 0.27115 0.76402 0.33897 0.0
C412 C 0.32782 0.82308 0.90046 0.0
C413 C 0.32138 0.82757 0.93421 0.0
H414 H 0.34088 0.78938 0.86226 0.0
C415 C 0.32961 0.80209 0.95614 0.0
H416 H 0.32207 0.84214 0.8828 0.0
C417 C 0.34115 0.77199 0.94438 0.0
C418 C 0.34421 0.76643 0.91033 0.0
H419 H 0.32523 0.80469 0.98231 0.0
H420 H 0.34514 0.75234 0.96185 0.0
C421 C 0.33863 0.79274 0.88863 0.0
C422 C 0.19195 0.7747 0.66815 0.0
C423 C 0.18471 0.75598 0.64004 0.0
H424 H 0.21634 0.81677 0.68768 0.0
C425 C 0.19384 0.76817 0.60895 0.0
H426 H 0.18531 0.76603 0.69244 0.0
C427 C 0.21215 0.79686 0.60627 0.0
C428 C 0.22111 0.81453 0.63451 0.0
H429 H 0.18885 0.75441 0.58672 0.0
H430 H 0.22064 0.80439 0.58218 0.0
C431 C 0.20963 0.80387 0.66537 0.0
C432 C 0.89788 0.77554 0.20326 0.0
C433 C 0.92441 0.79694 0.19888 0.0
H434 H 0.88239 0.72761 0.21727 0.0
C435 C 0.95661 0.78448 0.20218 0.0
H436 H 0.8728 0.7843 0.20074 0.0
C437 C 0.9621 0.75233 0.21259 0.0
C438 C 0.93558 0.73154 0.2192 0.0
H439 H 0.97769 0.80021 0.19908 0.0
H440 H 0.98715 0.74429 0.21714 0.0
C441 C 0.90343 0.74301 0.21275 0.0
C442 C 0.24691 0.3582 0.80875 0.0
C443 C 0.23301 0.37644 0.78256 0.0
H444 H 0.28922 0.34942 0.83966 0.0
C445 C 0.25243 0.40007 0.76711 0.0
H446 H 0.23257 0.33995 0.82145 0.0
C447 C 0.28481 0.40542 0.77758 0.0
C448 C 0.2986 0.38755 0.80402 0.0
H449 H 0.24254 0.41469 0.74707 0.0
H450 H 0.299 0.42388 0.765 0.0
C451 C 0.27928 0.36381 0.81948 0.0
C452 C 0.63053 0.803 0.28094 0.0
C453 C 0.63915 0.79961 0.31427 0.0
H454 H 0.62091 0.77915 0.2352 0.0
C455 C 0.64325 0.76795 0.32738 0.0
H456 H 0.62694 0.82693 0.27014 0.0
C457 C 0.64003 0.74037 0.30731 0.0
C458 C 0.63231 0.74382 0.27373 0.0
H459 H 0.64981 0.76441 0.35306 0.0
H460 H 0.64439 0.71647 0.31792 0.0
C461 C 0.62696 0.77546 0.26098 0.0
C462 C 0.26285 0.19741 0.73465 0.0
C463 C 0.27915 0.17439 0.71485 0.0
H464 H 0.22366 0.20697 0.76821 0.0
C465 C 0.26456 0.14363 0.71049 0.0
H466 H 0.27307 0.22147 0.73833 0.0
C467 C 0.23629 0.13506 0.72817 0.0
C468 C 0.22167 0.15726 0.75014 0.0
H469 H 0.27602 0.12544 0.695 0.0
H470 H 0.22682 0.11055 0.72574 0.0
C471 C 0.23446 0.18901 0.75195 0.0
C472 C 0.27742 0.84628 0.78697 0.0
C473 C 0.26084 0.86945 0.7674 0.0
H474 H 0.28192 0.82387 0.83455 0.0
C475 C 0.2336 0.88603 0.78071 0.0
H476 H 0.2982 0.8328 0.7773 0.0
C477 C 0.22424 0.88094 0.81332 0.0
C478 C 0.24172 0.85898 0.83347 0.0
H479 H 0.21994 0.90378 0.76625 0.0
H480 H 0.20403 0.89519 0.82312 0.0
C481 C 0.26783 0.84095 0.81968 0.0
C482 C 0.17625 0.68473 0.2675 0.0
C483 C 0.17034 0.68634 0.3017 0.0
H484 H 0.17511 0.70955 0.22087 0.0
C485 C 0.15657 0.71509 0.31435 0.0
H486 H 0.18676 0.663 0.25661 0.0
C487 C 0.14975 0.74172 0.2938 0.0
C488 C 0.15654 0.74042 0.25986 0.0
H489 H 0.15152 0.7175 0.34014 0.0
H490 H 0.13973 0.76364 0.30479 0.0
C491 C 0.16952 0.71143 0.24686 0.0
C492 C 0.30048 0.65418 0.78119 0.0
C493 C 0.2885 0.65776 0.81353 0.0
H494 H 0.28887 0.65024 0.72963 0.0
C495 C 0.25438 0.65989 0.81817 0.0
H496 H 0.32665 0.65236 0.77669 0.0
C497 C 0.23281 0.65871 0.79119 0.0
C498 C 0.24474 0.65525 0.75883 0.0
H499 H 0.24429 0.6626 0.84266 0.0
H500 H 0.20665 0.66058 0.79579 0.0
C501 C 0.27885 0.65287 0.75416 0.0
C502 C 0.42242 0.71299 0.34081 0.0
C503 C 0.39098 0.7183 0.35396 0.0
H504 H 0.45081 0.69977 0.2987 0.0
C505 C 0.36331 0.71049 0.33441 0.0
H506 H 0.44424 0.71858 0.35514 0.0
C507 C 0.36703 0.7 0.30169 0.0
C508 C 0.39852 0.69676 0.28789 0.0
H509 H 0.33867 0.71434 0.34364 0.0
H510 H 0.34522 0.69609 0.28677 0.0
C511 C 0.42613 0.7022 0.30831 0.0
C512 C 0.76115 0.27183 0.93386 0.0
C513 C 0.74311 0.28136 0.90572 0.0
H514 H 0.80306 0.2461 0.95311 0.0
C515 C 0.75484 0.2723 0.8745 0.0
H516 H 0.75295 0.27861 0.95827 0.0
C517 C 0.784 0.25424 0.87151 0.0
C518 C 0.80187 0.24446 0.89969 0.0
H519 H 0.74179 0.27959 0.85229 0.0
H520 H 0.79219 0.24744 0.84711 0.0
C521 C 0.79004 0.25341 0.93089 0.0
C522 C 0.78501 0.27012 0.68771 0.0
C523 C 0.80173 0.27592 0.65803 0.0
H524 H 0.73933 0.25827 0.71084 0.0
C525 C 0.78428 0.27296 0.62814 0.0
H526 H 0.79777 0.27193 0.71116 0.0
C527 C 0.75099 0.26428 0.62792 0.0
C528 C 0.73417 0.25883 0.65762 0.0
H529 H 0.79646 0.27681 0.60481 0.0
H530 H 0.73828 0.26251 0.60445 0.0
C531 C 0.75157 0.26199 0.68751 0.0
C532 C 0.79741 0.28335 0.12877 0.0
C533 C 0.77376 0.30056 0.14723 0.0
H534 H 0.81851 0.23701 0.11626 0.0
C535 C 0.75374 0.283 0.16894 0.0
H536 H 0.81335 0.29605 0.1118 0.0
C537 C 0.75716 0.24905 0.17189 0.0
C538 C 0.78039 0.23179 0.15287 0.0
H539 H 0.7355 0.29548 0.1837 0.0
H540 H 0.74098 0.23623 0.18854 0.0
C541 C 0.80053 0.24944 0.13137 0.0
C542 C 0.7713 0.30702 0.35448 0.0
C543 C 0.80285 0.29479 0.34775 0.0
H544 H 0.72066 0.2962 0.36307 0.0
C545 C 0.80715 0.26078 0.34499 0.0
H546 H 0.7671 0.333 0.35686 0.0
C547 C 0.78055 0.23954 0.3489 0.0
C548 C 0.74895 0.25183 0.35536 0.0
H549 H 0.83118 0.25045 0.34002 0.0
H550 H 0.78468 0.21356 0.34649 0.0
C551 C 0.74468 0.28583 0.35809 0.0
C552 C 0.12609 0.53458 0.66455 0.0
C553 C 0.13718 0.5597 0.68522 0.0
H554 H 0.11198 0.48475 0.66003 0.0
C555 C 0.13956 0.55345 0.71936 0.0
H556 H 0.12368 0.53848 0.63822 0.0
C557 C 0.13296 0.52213 0.73207 0.0
C558 C 0.12376 0.49654 0.71087 0.0
H559 H 0.14818 0.57221 0.736 0.0
H560 H 0.13655 0.51762 0.75816 0.0
C561 C 0.11941 0.5036 0.67715 0.0
C562 C 0.5262 0.71812 0.16173 0.0
C563 C 0.49745 0.69938 0.16474 0.0
H564 H 0.57897 0.71902 0.16577 0.0
C565 C 0.50071 0.66567 0.17041 0.0
H566 H 0.52461 0.7441 0.15718 0.0
C567 C 0.53161 0.65144 0.17526 0.0
C568 C 0.56022 0.6704 0.17436 0.0
H569 H 0.47924 0.65028 0.17243 0.0
H570 H 0.53297 0.62569 0.18113 0.0
C571 C 0.55736 0.70372 0.16641 0.0
C572 C 0.37214 0.99258 0.68963 0.0
C573 C 0.33991 0.98005 0.68768 0.0
H574 H 0.40277 0.03442 0.698 0.0
C575 C 0.31347 1.00134 0.69362 0.0
H576 H 0.39316 0.97689 0.68523 0.0
C577 C 0.31906 0.03413 0.70158 0.0
C578 C 0.35124 0.04678 0.70334 0.0
H579 H 0.28839 0.99259 0.69258 0.0
H580 H 0.29793 0.04969 0.70594 0.0
C581 C 0.37772 0.02558 0.69706 0.0
C582 C 0.06005 0.85846 0.24052 0.0
C583 C 0.06911 0.87258 0.21028 0.0
H584 H 1.02182 0.85119 0.27596 0.0
C585 C 0.0467 0.8938 0.19452 0.0
H586 H 0.07663 0.84191 0.2533 0.0
C587 C 1.01544 0.89953 0.20778 0.0
C588 C 1.00556 0.88371 0.23688 0.0
H589 H 0.0529 0.90518 0.17127 0.0
H590 H 0.99842 0.91498 0.1942 0.0
C591 C 0.02856 0.86375 0.2535 0.0
C592 C 0.2199 0.02462 0.90055 0.0
C593 C 0.19827 0.99798 0.90338 0.0
H594 H 0.2257 0.07501 0.88621 0.0
C595 C 0.16502 1.00298 0.89474 0.0
H596 H 0.24564 0.02176 0.90702 0.0
C597 C 0.15383 0.033 0.88273 0.0
C598 C 0.17527 0.05949 0.87919 0.0
H599 H 0.1474 0.98337 0.89657 0.0
H600 H 0.12812 0.0353 0.87583 0.0
C601 C 0.20844 0.05517 0.88878 0.0
C602 C 1.01107 0.64112 0.38194 0.0
C603 C 0.99645 0.66162 0.35818 0.0
H604 H 0.05327 0.63059 0.41185 0.0
C605 C 1.01348 0.68984 0.34841 0.0
H606 H 0.99866 0.61933 0.39025 0.0
C607 C 0.04515 0.69632 0.36083 0.0
C608 C 0.06038 0.67477 0.38332 0.0
H609 H 1.00297 0.70617 0.33011 0.0
H610 H 0.05818 0.71746 0.35179 0.0
C611 C 0.04252 0.64761 0.39435 0.0
C612 C 0.39743 0.54764 0.89724 0.0
C613 C 0.37489 0.56189 0.87509 0.0
H614 H 0.4242 0.5044 0.91109 0.0
C615 C 0.36536 0.54404 0.84699 0.0
H616 H 0.40504 0.56062 0.91921 0.0
C617 C 0.37676 0.51211 0.84196 0.0
C618 C 0.39737 0.49693 0.86534 0.0
H619 H 0.34804 0.55439 0.8294 0.0
H620 H 0.36777 0.49867 0.82081 0.0
C621 C 0.40825 0.51536 0.89261 0.0
C622 C 0.53145 0.83594 0.43322 0.0
C623 C 0.50124 0.84358 0.4176 0.0
H624 H 0.58364 0.8439 0.43539 0.0
C625 C 0.50094 0.86765 0.39296 0.0
H626 H 0.53266 0.81761 0.45244 0.0
C627 C 0.53018 0.88279 0.38335 0.0
C628 C 0.56058 0.87432 0.39807 0.0
H629 H 0.47822 0.87431 0.38051 0.0
H630 H 0.52898 0.90064 0.36366 0.0
C631 C 0.56076 0.85112 0.42358 0.0
C632 C 0.62101 0.19012 0.51496 0.0
C633 C 0.62686 0.2229 0.52323 0.0
H634 H 0.62279 0.15288 0.47829 0.0
C635 C 0.63591 0.24446 0.49777 0.0
H636 H 0.61356 0.17272 0.53356 0.0
C637 C 0.64087 0.23285 0.46533 0.0
C638 C 0.63705 0.19948 0.45797 0.0
H639 H 0.64061 0.26985 0.50318 0.0
H640 H 0.64953 0.24952 0.4466 0.0
C641 C 0.62618 0.17863 0.48305 0.0
C642 C 0.80124 0.12974 0.99447 0.0
C643 C 0.82042 0.11533 1.0197 0.0
H644 H 0.79917 0.14573 0.94386 0.0
C645 C 0.85164 0.10287 1.01143 0.0
H646 H 0.7771 0.13958 0.99986 0.0
C647 C 0.86421 0.10646 0.97964 0.0
C648 C 0.84592 0.12231 0.95482 0.0
H649 H 0.86713 0.0913 0.02991 0.0
H650 H 0.88893 0.09777 0.97481 0.0
C651 C 0.81383 0.13309 0.9623 0.0
C652 C 0.90852 0.29305 0.49995 0.0
C653 C 0.90898 0.31892 0.5226 0.0
H654 H 0.90447 0.27845 0.44937 0.0
C655 C 0.90722 0.35103 0.51011 0.0
H656 H 0.90981 0.26805 0.50852 0.0
C657 C 0.90417 0.35708 0.47612 0.0
C658 C 0.90274 0.3312 0.45352 0.0
H659 H 0.90759 0.37168 0.52668 0.0
H660 H 0.9022 0.38207 0.46766 0.0
C661 C 0.90542 0.2991 0.46593 0.0
C662 C 0.68887 0.41387 1.0032 0.0
C663 C 0.70329 0.40113 0.97447 0.0
H664 H 0.69445 0.42525 0.05444 0.0
C665 C 0.73683 0.39246 0.97568 0.0
H666 H 0.66314 0.42086 1.00326 0.0
C667 C 0.75484 0.39464 1.00537 0.0
C668 C 0.73988 0.40584 0.03454 0.0
H669 H 0.74873 0.38232 0.95418 0.0
H670 H 0.7802 0.38642 1.0057 0.0
C671 C 0.7069 0.41636 0.0327 0.0
C672 C 0.9174 0.52706 0.29685 0.0
C673 C 0.89314 0.54736 0.31048 0.0
H674 H 0.93663 0.47857 0.2923 0.0
C675 C 0.86832 0.53287 0.32967 0.0
H676 H 0.93686 0.53727 0.28201 0.0
C677 C 0.86806 0.49915 0.33553 0.0
C678 C 0.89274 0.47894 0.32256 0.0
H679 H 0.84909 0.54765 0.34051 0.0
H680 H 0.84878 0.48902 0.35067 0.0
C681 C 0.91726 0.49334 0.3029 0.0
C682 C 0.51841 0.39007 0.90226 0.0
C683 C 0.49282 0.37121 0.88903 0.0
H684 H 0.56967 0.39307 0.91406 0.0
C685 C 0.4992 0.33847 0.88101 0.0
H686 H 0.51419 0.41543 0.90843 0.0
C687 C 0.53129 0.32581 0.88335 0.0
C688 C 0.5574 0.34545 0.89445 0.0
H689 H 0.48003 0.32351 0.87031 0.0
H690 H 0.53596 0.30124 0.87479 0.0
C691 C 0.55023 0.37721 0.90541 0.0
C692 C 0.66249 0.05237 0.35817 0.0
C693 C 0.68892 0.06563 0.37634 0.0
H694 H 0.6369 1.00902 0.34303 0.0
C695 C 0.70999 0.04428 0.39352 0.0
H696 H 0.64594 0.06815 0.34438 0.0
C697 C 0.70458 1.01065 0.39301 0.0
C698 C 0.67827 0.99728 0.37485 0.0
H699 H 0.73059 0.05357 0.40767 0.0
H700 H 0.72131 0.99506 0.40679 0.0
C701 C 0.65739 0.01851 0.35718 0.0
C702 C 0.03326 0.17192 0.82501 0.0
C703 C 0.04742 0.1581 0.85351 0.0
H704 H 0.99002 0.19207 0.80219 0.0
C705 C 0.02743 0.15337 0.88129 0.0
H706 H 0.04806 0.17635 0.80337 0.0
C707 C 0.99408 0.16224 0.88062 0.0
C708 C 0.98006 0.17667 0.85235 0.0
H709 H 0.03763 0.14296 0.90372 0.0
H710 H 0.97937 0.1581 0.90238 0.0
C711 C 1.00006 0.18133 0.82453 0.0
C712 C 0.82916 0.025 0.16299 0.0
C713 C 0.84208 0.05543 0.17258 0.0
H714 H 0.83221 0.97275 0.16737 0.0
C715 C 0.86912 0.05564 0.19435 0.0
H716 H 0.80835 0.02382 0.14624 0.0
C717 C 0.88273 0.02648 0.20636 0.0
C718 C 0.86981 0.99603 0.19704 0.0
H719 H 0.87984 0.07844 0.20232 0.0
H720 H 0.90345 0.02792 0.2232 0.0
C721 C 0.84287 0.99566 0.17506 0.0
C722 C 1.00908 0.37302 0.70333 0.0
C723 C 0.04286 0.36521 0.70161 0.0
H724 H 0.95988 0.36176 0.68773 0.0
C725 C 0.05253 0.3393 0.68119 0.0
H726 H 1.00059 0.39276 0.71883 0.0
C727 C 0.02907 0.32161 0.66316 0.0
C728 C 0.99525 0.32916 0.66523 0.0
H729 H 0.07824 0.33255 0.67924 0.0
H730 H 0.03749 0.30169 0.64784 0.0
C731 C 0.98561 0.35518 0.68551 0.0
C732 C 0.69626 0.50294 0.20016 0.0
C733 C 0.68477 0.48793 0.17104 0.0
H734 H 0.69568 0.54594 0.23065 0.0
C735 C 0.66069 0.50441 0.1522 0.0
H736 H 0.71477 0.49102 0.21533 0.0
C737 C 0.65003 0.53569 0.16083 0.0
C738 C 0.66275 0.55152 0.1888 0.0
H739 H 0.65095 0.49373 0.1298 0.0
H740 H 0.63252 0.54801 0.14479 0.0
C741 C 0.68523 0.53438 0.20904 0.0
C742 C 0.47702 0.198 0.63367 0.0
C743 C 0.47977 0.17634 0.66041 0.0
H744 H 0.50124 0.23247 0.60253 0.0
C745 C 0.51094 0.17197 0.67533 0.0
H746 H 0.45347 0.20212 0.62168 0.0
C747 C 0.53837 0.18949 0.66449 0.0
C748 C 0.53543 0.21189 0.63842 0.0
H749 H 0.51409 0.15548 0.696 0.0
H750 H 0.56174 0.18589 0.67699 0.0
C751 C 0.50448 0.21554 0.62283 0.0
C752 C 0.37258 0.81688 0.54441 0.0
C753 C 0.38952 0.83833 0.52344 0.0
H754 H 0.34551 0.81145 0.58953 0.0
C755 C 0.39507 0.87039 0.53427 0.0
H756 H 0.36788 0.79203 0.53684 0.0
C757 C 0.38224 0.88145 0.56406 0.0
C758 C 0.36365 0.86076 0.58418 0.0
H759 H 0.40833 0.88756 0.51908 0.0
H760 H 0.38598 0.90671 0.5708 0.0
C761 C 0.35982 0.82799 0.5746 0.0
C762 C 0.18275 0.88227 0.07094 0.0
C763 C 0.17437 0.85134 0.08326 0.0
H764 H 0.19931 0.91044 0.02995 0.0
C765 C 0.17466 0.82468 0.06151 0.0
H766 H 0.18264 0.90344 0.08685 0.0
C767 C 0.18438 0.82874 0.02856 0.0
C768 C 0.19397 0.85955 1.01668 0.0
H769 H 0.16841 0.80052 0.07017 0.0
H770 H 0.1852 0.80758 1.01268 0.0
C771 C 0.19238 0.88632 0.03818 0.0
C772 C 0.18746 0.65147 0.54365 0.0
C773 C 0.21571 0.66234 0.56058 0.0
H774 H 0.16092 0.64969 0.4977 0.0
C775 C 0.24027 0.67825 0.54247 0.0
H776 H 0.16794 0.63929 0.55679 0.0
C777 C 0.2363 0.68408 0.50864 0.0
C778 C 0.2075 0.67445 0.49192 0.0
H779 H 0.26234 0.68695 0.5546 0.0
H780 H 0.25554 0.697 0.4958 0.0
C781 C 0.18334 0.65759 0.50975 0.0
C782 C 0.31726 0.68413 0.06302 0.0
C783 C 0.34007 0.67093 0.08579 0.0
H784 H 0.29951 0.68507 1.01307 0.0
C785 C 0.36039 0.64512 0.07542 0.0
H786 H 0.30109 0.70393 0.07013 0.0
C787 C 0.35961 0.63446 0.04259 0.0
C788 C 0.33824 0.64905 1.01932 0.0
H789 H 0.37823 0.63431 0.09218 0.0
H790 H 0.37681 0.61568 0.03511 0.0
C791 C 0.31623 0.67321 0.03025 0.0
loop_
_geom_bond_atom_site_label_1
_geom_bond_atom_site_label_2
_geom_bond_distance
_geom_bond_site_symmetry_2
_ccdc_geom_bond_type
Mg0 O7 2.141 . S
Mg0 O8 2.048 . S
Mg0 O9 2.048 . S
Mg0 O12 2.141 . S
C1 O2 1.313 . S
C1 O8 1.195 . S
O2 C1 1.313 . S
C3 O4 1.245 . S
C3 O12 1.289 . S
O4 C3 1.245 . S
C5 O6 1.245 . S
C5 O7 1.289 . S
O6 C5 1.245 . S
O7 Mg0 2.141 . S
O7 C5 1.289 . S
O8 Mg0 2.048 . S
O8 C1 1.195 . S
O9 Mg0 2.048 . S
O9 C10 1.195 . S
C10 O9 1.195 . S
C10 O11 1.313 . S
O11 C10 1.313 . S
O12 Mg0 2.141 . S
O12 C3 1.289 . S
Mg13 O20 2.141 . S
Mg13 O21 2.048 . S
Mg13 O22 2.048 . S
Mg13 O25 2.141 . S
C14 O15 1.313 . S
C14 O21 1.195 . S
O15 C14 1.313 . S
C16 O17 1.245 . S
C16 O25 1.289 . S
O17 C16 1.245 . S
C18 O19 1.245 . S
C18 O20 1.289 . S
O19 C18 1.245 . S
O20 Mg13 2.141 . S
O20 C18 1.289 . S
O21 Mg13 2.048 . S
O21 C14 1.195 . S
O22 Mg13 2.048 . S
O22 C23 1.195 . S
C23 O22 1.195 . S
C23 O24 1.313 . S
O24 C23 1.313 . S
O25 Mg13 2.141 . S
O25 C16 1.289 . S
Mg26 O33 2.141 . S
Mg26 O34 2.048 . S
Mg26 O35 2.048 . S
Mg26 O38 2.141 . S
C27 O28 1.313 . S
C27 O34 1.195 . S
O28 C27 1.313 . S
C29 O30 1.245 . S
C29 O38 1.289 . S
O30 C29 1.245 . S
C31 O32 1.245 . S
C31 O33 1.289 . S
O32 C31 1.245 . S
O33 Mg26 2.141 . S
O33 C31 1.289 . S
O34 Mg26 2.048 . S
O34 C27 1.195 . S
O35 Mg26 2.048 . S
O35 C36 1.195 . S
C36 O35 1.195 . S
C36 O37 1.313 . S
O37 C36 1.313 . S
O38 Mg26 2.141 . S
O38 C29 1.289 . S
Mg39 O46 2.141 . S
Mg39 O47 2.048 . S
Mg39 O48 2.048 . S
Mg39 O51 2.141 . S
C40 O41 1.313 . S
C40 O47 1.195 . S
O41 C40 1.313 . S
C42 O43 1.245 . S
C42 O51 1.289 . S
O43 C42 1.245 . S
C44 O45 1.245 . S
C44 O46 1.289 . S
O45 C44 1.245 . S
O46 Mg39 2.141 . S
O46 C44 1.289 . S
O47 Mg39 2.048 . S
O47 C40 1.195 . S
O48 Mg39 2.048 . S
O48 C49 1.195 . S
C49 O48 1.195 . S
C49 O50 1.313 . S
O50 C49 1.313 . S
O51 Mg39 2.141 . S
O51 C42 1.289 . S
Mg52 O59 2.141 . S
Mg52 O60 2.048 . S
Mg52 O61 2.048 . S
Mg52 O64 2.141 . S
C53 O54 1.313 . S
C53 O60 1.195 . S
O54 C53 1.313 . S
C55 O56 1.245 . S
C55 O64 1.289 . S
O56 C55 1.245 . S
C57 O58 1.245 . S
C57 O59 1.289 . S
O58 C57 1.245 . S
O59 Mg52 2.141 . S
O59 C57 1.289 . S
O60 Mg52 2.048 . S
O60 C53 1.195 . S
O61 Mg52 2.048 . S
O61 C62 1.195 . S
C62 O61 1.195 . S
C62 O63 1.313 . S
O63 C62 1.313 . S
O64 Mg52 2.141 . S
O64 C55 1.289 . S
Mg65 O72 2.141 . S
Mg65 O73 2.048 . S
Mg65 O74 2.048 . S
Mg65 O77 2.141 . S
C66 O67 1.313 . S
C66 O73 1.195 . S
O67 C66 1.313 . S
C68 O69 1.245 . S
C68 O77 1.289 . S
O69 C68 1.245 . S
C70 O71 1.245 . S
C70 O72 1.289 . S
O71 C70 1.245 . S
O72 Mg65 2.141 . S
O72 C70 1.289 . S
O73 Mg65 2.048 . S
O73 C66 1.195 . S
O74 Mg65 2.048 . S
O74 C75 1.195 . S
C75 O74 1.195 . S
C75 O76 1.313 . S
O76 C75 1.313 . S
O77 Mg65 2.141 . S
O77 C68 1.289 . S
Mg78 O85 2.141 . S
Mg78 O86 2.048 . S
Mg78 O87 2.048 . S
Mg78 O90 2.141 . S
C79 O80 1.313 . S
C79 O86 1.195 . S
O80 C79 1.313 . S
C81 O82 1.245 . S
C81 O90 1.289 . S
O82 C81 1.245 . S
C83 O84 1.245 . S
C83 O85 1.289 . S
O84 C83 1.245 . S
O85 Mg78 2.141 . S
O85 C83 1.289 . S
O86 Mg78 2.048 . S
O86 C79 1.195 . S
O87 Mg78 2.048 . S
O87 C88 1.195 . S
C88 O87 1.195 . S
C88 O89 1.313 . S
O89 C88 1.313 . S
O90 Mg78 2.141 . S
O90 C81 1.289 . S
Mg91 O98 2.141 . S
Mg91 O99 2.048 . S
Mg91 O100 2.048 . S
Mg91 O103 2.141 . S
C92 O93 1.313 . S
C92 O99 1.195 . S
O93 C92 1.313 . S
C94 O95 1.245 . S
C94 O103 1.289 . S
O95 C94 1.245 . S
C96 O97 1.245 . S
C96 O98 1.289 . S
O97 C96 1.245 . S
O98 Mg91 2.141 . S
O98 C96 1.289 . S
O99 Mg91 2.048 . S
O99 C92 1.195 . S
O100 Mg91 2.048 . S
O100 C101 1.195 . S
C101 O100 1.195 . S
C101 O102 1.313 . S
O102 C101 1.313 . S
O103 Mg91 2.141 . S
O103 C94 1.289 . S
Mg104 O111 2.141 . S
Mg104 O112 2.048 . S
Mg104 O113 2.048 . S
Mg104 O116 2.141 . S
C105 O106 1.313 . S
C105 O112 1.195 . S
O106 C105 1.313 . S
C107 O108 1.245 . S
C107 O116 1.289 . S
O108 C107 1.245 . S
C109 O110 1.245 . S
C109 O111 1.289 . S
O110 C109 1.245 . S
O111 Mg104 2.141 . S
O111 C109 1.289 . S
O112 Mg104 2.048 . S
O112 C105 1.195 . S
O113 Mg104 2.048 . S
O113 C114 1.195 . S
C114 O113 1.195 . S
C114 O115 1.313 . S
O115 C114 1.313 . S
O116 Mg104 2.141 . S
O116 C107 1.289 . S
Mg117 O124 2.141 . S
Mg117 O125 2.048 . S
Mg117 O126 2.048 . S
Mg117 O129 2.141 . S
C118 O119 1.313 . S
C118 O125 1.195 . S
O119 C118 1.313 . S
C120 O121 1.245 . S
C120 O129 1.289 . S
O121 C120 1.245 . S
C122 O123 1.245 . S
C122 O124 1.289 . S
O123 C122 1.245 . S
O124 Mg117 2.141 . S
O124 C122 1.289 . S
O125 Mg117 2.048 . S
O125 C118 1.195 . S
O126 Mg117 2.048 . S
O126 C127 1.195 . S
C127 O126 1.195 . S
C127 O128 1.313 . S
O128 C127 1.313 . S
O129 Mg117 2.141 . S
O129 C120 1.289 . S
Mg130 O137 2.141 . S
Mg130 O138 2.048 . S
Mg130 O139 2.048 . S
Mg130 O142 2.141 . S
C131 O132 1.313 . S
C131 O138 1.195 . S
O132 C131 1.313 . S
C133 O134 1.245 . S
C133 O142 1.289 . S
O134 C133 1.245 . S
C135 O136 1.245 . S
C135 O137 1.289 . S
O136 C135 1.245 . S
O137 Mg130 2.141 . S
O137 C135 1.289 . S
O138 Mg130 2.048 . S
O138 C131 1.195 . S
O139 Mg130 2.048 . S
O139 C140 1.195 . S
C140 O139 1.195 . S
C140 O141 1.313 . S
O141 C140 1.313 . S
O142 Mg130 2.141 . S
O142 C133 1.289 . S
Mg143 O150 2.141 . S
Mg143 O151 2.048 . S
Mg143 O152 2.048 . S
Mg143 O155 2.141 . S
C144 O145 1.313 . S
C144 O151 1.195 . S
O145 C144 1.313 . S
C146 O147 1.245 . S
C146 O155 1.289 . S
O147 C146 1.245 . S
C148 O149 1.245 . S
C148 O150 1.289 . S
O149 C148 1.245 . S
O150 Mg143 2.141 . S
O150 C148 1.289 . S
O151 Mg143 2.048 . S
O151 C144 1.195 . S
O152 Mg143 2.048 . S
O152 C153 1.195 . S
C153 O152 1.195 . S
C153 O154 1.313 . S
O154 C153 1.313 . S
O155 Mg143 2.141 . S
O155 C146 1.289 . S
Mg156 O163 2.141 . S
Mg156 O164 2.048 . S
Mg156 O165 2.048 . S
Mg156 O168 2.141 . S
C157 O158 1.313 . S
C157 O164 1.195 . S
O158 C157 1.313 . S
C159 O160 1.245 . S
C159 O168 1.289 . S
O160 C159 1.245 . S
C161 O162 1.245 . S
C161 O163 1.289 . S
O162 C161 1.245 . S
O163 Mg156 2.141 . S
O163 C161 1.289 . S
O164 Mg156 2.048 . S
O164 C157 1.195 . S
O165 Mg156 2.048 . S
O165 C166 1.195 . S
C166 O165 1.195 . S
C166 O167 1.313 . S
O167 C166 1.313 . S
O168 Mg156 2.141 . S
O168 C159 1.289 . S
Mg169 O176 2.141 . S
Mg169 O177 2.048 . S
Mg169 O178 2.048 . S
Mg169 O181 2.141 . S
C170 O171 1.313 . S
C170 O177 1.195 . S
O171 C170 1.313 . S
C172 O173 1.245 . S
C172 O181 1.289 . S
O173 C172 1.245 . S
C174 O175 1.245 . S
C174 O176 1.289 . S
O175 C174 1.245 . S
O176 Mg169 2.141 . S
O176 C174 1.289 . S
O177 Mg169 2.048 . S
O177 C170 1.195 . S
O178 Mg169 2.048 . S
O178 C179 1.195 . S
C179 O178 1.195 . S
C179 O180 1.313 . S
O180 C179 1.313 . S
O181 Mg169 2.141 . S
O181 C172 1.289 . S
Mg182 O189 2.141 . S
Mg182 O190 2.048 . S
Mg182 O191 2.048 . S
Mg182 O194 2.141 . S
C183 O184 1.313 . S
C183 O190 1.195 . S
O184 C183 1.313 . S
C185 O186 1.245 . S
C185 O194 1.289 . S
O186 C185 1.245 . S
C187 O188 1.245 . S
C187 O189 1.289 . S
O188 C187 1.245 . S
O189 Mg182 2.141 . S
O189 C187 1.289 . S
O190 Mg182 2.048 . S
O190 C183 1.195 . S
O191 Mg182 2.048 . S
O191 C192 1.195 . S
C192 O191 1.195 . S
C192 O193 1.313 . S
O193 C192 1.313 . S
O194 Mg182 2.141 . S
O194 C185 1.289 . S
Mg195 O202 2.141 . S
Mg195 O203 2.048 . S
Mg195 O204 2.048 . S
Mg195 O207 2.141 . S
C196 O197 1.313 . S
C196 O203 1.195 . S
O197 C196 1.313 . S
C198 O199 1.245 . S
C198 O207 1.289 . S
O199 C198 1.245 . S
C200 O201 1.245 . S
C200 O202 1.289 . S
O201 C200 1.245 . S
O202 Mg195 2.141 . S
O202 C200 1.289 . S
O203 Mg195 2.048 . S
O203 C196 1.195 . S
O204 Mg195 2.048 . S
O204 C205 1.195 . S
C205 O204 1.195 . S
C205 O206 1.313 . S
O206 C205 1.313 . S
O207 Mg195 2.141 . S
O207 C198 1.289 . S
Mg208 O215 2.141 . S
Mg208 O216 2.048 . S
Mg208 O217 2.048 . S
Mg208 O220 2.141 . S
C209 O210 1.313 . S
C209 O216 1.195 . S
O210 C209 1.313 . S
C211 O212 1.245 . S
C211 O220 1.289 . S
O212 C211 1.245 . S
C213 O214 1.245 . S
C213 O215 1.289 . S
O214 C213 1.245 . S
O215 Mg208 2.141 . S
O215 C213 1.289 . S
O216 Mg208 2.048 . S
O216 C209 1.195 . S
O217 Mg208 2.048 . S
O217 C218 1.195 . S
C218 O217 1.195 . S
C218 O219 1.313 . S
O219 C218 1.313 . S
O220 Mg208 2.141 . S
O220 C211 1.289 . S
Mg221 O228 2.141 . S
Mg221 O229 2.048 . S
Mg221 O230 2.048 . S
Mg221 O233 2.141 . S
C222 O223 1.313 . S
C222 O229 1.195 . S
O223 C222 1.313 . S
C224 O225 1.245 . S
C224 O233 1.289 . S
O225 C224 1.245 . S
C226 O227 1.245 . S
C226 O228 1.289 . S
O227 C226 1.245 . S
O228 Mg221 2.141 . S
O228 C226 1.289 . S
O229 Mg221 2.048 . S
O229 C222 1.195 . S
O230 Mg221 2.048 . S
O230 C231 1.195 . S
C231 O230 1.195 . S
C231 O232 1.313 . S
O232 C231 1.313 . S
O233 Mg221 2.141 . S
O233 C224 1.289 . S
Mg234 O241 2.141 . S
Mg234 O242 2.048 . S
Mg234 O243 2.048 . S
Mg234 O246 2.141 . S
C235 O236 1.313 . S
C235 O242 1.195 . S
O236 C235 1.313 . S
C237 O238 1.245 . S
C237 O246 1.289 . S
O238 C237 1.245 . S
C239 O240 1.245 . S
C239 O241 1.289 . S
O240 C239 1.245 . S
O241 Mg234 2.141 . S
O241 C239 1.289 . S
O242 Mg234 2.048 . S
O242 C235 1.195 . S
O243 Mg234 2.048 . S
O243 C244 1.195 . S
C244 O243 1.195 . S
C244 O245 1.313 . S
O245 C244 1.313 . S
O246 Mg234 2.141 . S
O246 C237 1.289 . S
Mg247 O254 2.141 . S
Mg247 O255 2.048 . S
Mg247 O256 2.048 . S
Mg247 O259 2.141 . S
C248 O249 1.313 . S
C248 O255 1.195 . S
O249 C248 1.313 . S
C250 O251 1.245 . S
C250 O259 1.289 . S
O251 C250 1.245 . S
C252 O253 1.245 . S
C252 O254 1.289 . S
O253 C252 1.245 . S
O254 Mg247 2.141 . S
O254 C252 1.289 . S
O255 Mg247 2.048 . S
O255 C248 1.195 . S
O256 Mg247 2.048 . S
O256 C257 1.195 . S
C257 O256 1.195 . S
C257 O258 1.313 . S
O258 C257 1.313 . S
O259 Mg247 2.141 . S
O259 C250 1.289 . S
Mg260 O267 2.141 . S
Mg260 O268 2.048 . S
Mg260 O269 2.048 . S
Mg260 O272 2.141 . S
C261 O262 1.313 . S
C261 O268 1.195 . S
O262 C261 1.313 . S
C263 O264 1.245 . S
C263 O272 1.289 . S
O264 C263 1.245 . S
C265 O266 1.245 . S
C265 O267 1.289 . S
O266 C265 1.245 . S
O267 Mg260 2.141 . S
O267 C265 1.289 . S
O268 Mg260 2.048 . S
O268 C261 1.195 . S
O269 Mg260 2.048 . S
O269 C270 1.195 . S
C270 O269 1.195 . S
C270 O271 1.313 . S
O271 C270 1.313 . S
O272 Mg260 2.141 . S
O272 C263 1.289 . S
Mg273 O280 2.141 . S
Mg273 O281 2.048 . S
Mg273 O282 2.048 . S
Mg273 O285 2.141 . S
C274 O275 1.313 . S
C274 O281 1.195 . S
O275 C274 1.313 . S
C276 O277 1.245 . S
C276 O285 1.289 . S
O277 C276 1.245 . S
C278 O279 1.245 . S
C278 O280 1.289 . S
O279 C278 1.245 . S
O280 Mg273 2.141 . S
O280 C278 1.289 . S
O281 Mg273 2.048 . S
O281 C274 1.195 . S
O282 Mg273 2.048 . S
O282 C283 1.195 . S
C283 O282 1.195 . S
C283 O284 1.313 . S
O284 C283 1.313 . S
O285 Mg273 2.141 . S
O285 C276 1.289 . S
Mg286 O293 2.141 . S
Mg286 O294 2.048 . S
Mg286 O295 2.048 . S
Mg286 O298 2.141 . S
C287 O288 1.313 . S
C287 O294 1.195 . S
O288 C287 1.313 . S
C289 O290 1.245 . S
C289 O298 1.289 . S
O290 C289 1.245 . S
C291 O292 1.245 . S
C291 O293 1.289 . S
O292 C291 1.245 . S
O293 Mg286 2.141 . S
O293 C291 1.289 . S
O294 Mg286 2.048 . S
O294 C287 1.195 . S
O295 Mg286 2.048 . S
O295 C296 1.195 . S
C296 O295 1.195 . S
C296 O297 1.313 . S
O297 C296 1.313 . S
O298 Mg286 2.141 . S
O298 C289 1.289 . S
Mg299 O306 2.141 . S
Mg299 O307 2.048 . S
Mg299 O308 2.048 . S
Mg299 O311 2.141 . S
C300 O301 1.313 . S
C300 O307 1.195 . S
O301 C300 1.313 . S
C302 O303 1.245 . S
C302 O311 1.289 . S
O303 C302 1.245 . S
C304 O305 1.245 . S
C304 O306 1.289 . S
O305 C304 1.245 . S
O306 Mg299 2.141 . S
O306 C304 1.289 . S
O307 Mg299 2.048 . S
O307 C300 1.195 . S
O308 Mg299 2.048 . S
O308 C309 1.195 . S
C309 O308 1.195 . S
C309 O310 1.313 . S
O310 C309 1.313 . S
O311 Mg299 2.141 . S
O311 C302 1.289 . S
C312 C313 1.387 . S
C312 H316 0.950 . S
C312 C321 1.390 . S
C313 C312 1.387 . S
C313 C315 1.387 . S
H314 C321 0.950 . S
C315 C313 1.387 . S
C315 C317 1.390 . S
C315 H319 0.950 . S
H316 C312 0.950 . S
C317 C315 1.390 . S
C317 C318 1.387 . S
C317 H320 0.950 . S
C318 C317 1.387 . S
C318 C321 1.387 . S
H319 C315 0.950 . S
H320 C317 0.950 . S
C321 C312 1.390 . S
C321 H314 0.950 . S
C321 C318 1.387 . S
C322 C323 1.387 . S
C322 H326 0.950 . S
C322 C331 1.390 . S
C323 C322 1.387 . S
C323 C325 1.387 . S
H324 C331 0.950 . S
C325 C323 1.387 . S
C325 C327 1.390 . S
C325 H329 0.950 . S
H326 C322 0.950 . S
C327 C325 1.390 . S
C327 C328 1.387 . S
C327 H330 0.950 . S
C328 C327 1.387 . S
C328 C331 1.387 . S
H329 C325 0.950 . S
H330 C327 0.950 . S
C331 C322 1.390 . S
C331 H324 0.950 . S
C331 C328 1.387 . S
C332 C333 1.387 . S
C332 H336 0.950 . S
C332 C341 1.390 . S
C333 C332 1.387 . S
C333 C335 1.387 . S
H334 C341 0.950 . S
C335 C333 1.387 . S
C335 C337 1.390 . S
C335 H339 0.950 . S
H336 C332 0.950 . S
C337 C335 1.390 . S
C337 C338 1.387 . S
C337 H340 0.950 . S
C338 C337 1.387 . S
C338 C341 1.387 . S
H339 C335 0.950 . S
H340 C337 0.950 . S
C341 C332 1.390 . S
C341 H334 0.950 . S
C341 C338 1.387 . S
C342 C343 1.387 . S
C342 H346 0.950 . S
C342 C351 1.390 . S
C343 C342 1.387 . S
C343 C345 1.387 . S
H344 C351 0.950 . S
C345 C343 1.387 . S
C345 C347 1.390 . S
C345 H349 0.950 . S
H346 C342 0.950 . S
C347 C345 1.390 . S
C347 C348 1.387 . S
C347 H350 0.950 . S
C348 C347 1.387 . S
C348 C351 1.387 . S
H349 C345 0.950 . S
H350 C347 0.950 . S
C351 C342 1.390 . S
C351 H344 0.950 . S
C351 C348 1.387 . S
C352 C353 1.387 . S
C352 H356 0.950 . S
C352 C361 1.390 . S
C353 C352 1.387 . S
C353 C355 1.387 . S
H354 C361 0.950 . S
C355 C353 1.387 . S
C355 C357 1.390 . S
C355 H359 0.950 . S
H356 C352 0.950 . S
C357 C355 1.390 . S
C357 C358 1.387 . S
C357 H360 0.950 . S
C358 C357 1.387 . S
C358 C361 1.387 . S
H359 C355 0.950 . S
H360 C357 0.950 . S
C361 C352 1.390 . S
C361 H354 0.950 . S
C361 C358 1.387 . S
C362 C363 1.387 . S
C362 H366 0.950 . S
C362 C371 1.390 . S
C363 C362 1.387 . S
C363 C365 1.387 . S
H364 C371 0.950 . S
C365 C363 1.387 . S
C365 C367 1.390 . S
C365 H369 0.950 . S
H366 C362 0.950 . S
C367 C365 1.390 . S
C367 C368 1.387 . S
C367 H370 0.950 . S
C368 C367 1.387 . S
C368 C371 1.387 . S
H369 C365 0.950 . S
H370 C367 0.950 . S
C371 C362 1.390 . S
C371 H364 0.950 . S
C371 C368 1.387 . S
C372 C373 1.387 . S
C372 H376 0.950 . S
C372 C381 1.390 . S
C373 C372 1.387 . S
C373 C375 1.387 . S
H374 C381 0.950 . S
C375 C373 1.387 . S
C375 C377 1.390 . S
C375 H379 0.950 . S
H376 C372 0.950 . S
C377 C375 1.390 . S
C377 C378 1.387 . S
C377 H380 0.950 . S
C378 C377 1.387 . S
C378 C381 1.387 . S
H379 C375 0.950 . S
H380 C377 0.950 . S
C381 C372 1.390 . S
C381 H374 0.950 . S
C381 C378 1.387 . S
C382 C383 1.387 . S
C382 H386 0.950 . S
C382 C391 1.390 . S
C383 C382 1.387 . S
C383 C385 1.387 . S
H384 C391 0.950 . S
C385 C383 1.387 . S
C385 C387 1.390 . S
C385 H389 0.950 . S
H386 C382 0.950 . S
C387 C385 1.390 . S
C387 C388 1.387 . S
C387 H390 0.950 . S
C388 C387 1.387 . S
C388 C391 1.387 . S
H389 C385 0.950 . S
H390 C387 0.950 . S
C391 C382 1.390 . S
C391 H384 0.950 . S
C391 C388 1.387 . S
C392 C393 1.387 . S
C392 H396 0.950 . S
C392 C401 1.390 . S
C393 C392 1.387 . S
C393 C395 1.387 . S
H394 C401 0.950 . S
C395 C393 1.387 . S
C395 C397 1.390 . S
C395 H399 0.950 . S
H396 C392 0.950 . S
C397 C395 1.390 . S
C397 C398 1.387 . S
C397 H400 0.950 . S
C398 C397 1.387 . S
C398 C401 1.387 . S
H399 C395 0.950 . S
H400 C397 0.950 . S
C401 C392 1.390 . S
C401 H394 0.950 . S
C401 C398 1.387 . S
C402 C403 1.387 . S
C402 H406 0.950 . S
C402 C411 1.390 . S
C403 C402 1.387 . S
C403 C405 1.387 . S
H404 C411 0.950 . S
C405 C403 1.387 . S
C405 C407 1.390 . S
C405 H409 0.950 . S
H406 C402 0.950 . S
C407 C405 1.390 . S
C407 C408 1.387 . S
C407 H410 0.950 . S
C408 C407 1.387 . S
C408 C411 1.387 . S
H409 C405 0.950 . S
H410 C407 0.950 . S
C411 C402 1.390 . S
C411 H404 0.950 . S
C411 C408 1.387 . S
C412 C413 1.387 . S
C412 H416 0.950 . S
C412 C421 1.390 . S
C413 C412 1.387 . S
C413 C415 1.387 . S
H414 C421 0.950 . S
C415 C413 1.387 . S
C415 C417 1.390 . S
C415 H419 0.950 . S
H416 C412 0.950 . S
C417 C415 1.390 . S
C417 C418 1.387 . S
C417 H420 0.950 . S
C418 C417 1.387 . S
C418 C421 1.387 . S
H419 C415 0.950 . S
H420 C417 0.950 . S
C421 C412 1.390 . S
C421 H414 0.950 . S
C421 C418 1.387 . S
C422 C423 1.387 . S
C422 H426 0.950 . S
C422 C431 1.390 . S
C423 C422 1.387 . S
C423 C425 1.387 . S
H424 C431 0.950 . S
C425 C423 1.387 . S
C425 C427 1.390 . S
C425 H429 0.950 . S
H426 C422 0.950 . S
C427 C425 1.390 . S
C427 C428 1.387 . S
C427 H430 0.950 . S
C428 C427 1.387 . S
C428 C431 1.387 . S
H429 C425 0.950 . S
H430 C427 0.950 . S
C431 C422 1.390 . S
C431 H424 0.950 . S
C431 C428 1.387 . S
C432 C433 1.387 . S
C432 H436 0.950 . S
C432 C441 1.390 . S
C433 C432 1.387 . S
C433 C435 1.387 . S
H434 C441 0.950 . S
C435 C433 1.387 . S
C435 C437 1.390 . S
C435 H439 0.950 . S
H436 C432 0.950 . S
C437 C435 1.390 . S
C437 C438 1.387 . S
C437 H440 0.950 . S
C438 C437 1.387 . S
C438 C441 1.387 . S
H439 C435 0.950 . S
H440 C437 0.950 . S
C441 C432 1.390 . S
C441 H434 0.950 . S
C441 C438 1.387 . S
C442 C443 1.387 . S
C442 H446 0.950 . S
C442 C451 1.390 . S
C443 C442 1.387 . S
C443 C445 1.387 . S
H444 C451 0.950 . S
C445 C443 1.387 . S
C445 C447 1.390 . S
C445 H449 0.950 . S
H446 C442 0.950 . S
C447 C445 1.390 . S
C447 C448 1.387 . S
C447 H450 0.950 . S
C448 C447 1.387 . S
C448 C451 1.387 . S
H449 C445 0.950 . S
H450 C447 0.950 . S
C451 C442 1.390 . S
C451 H444 0.950 . S
C451 C448 1.387 . S
C452 C453 1.387 . S
C452 H456 0.950 . S
C452 C461 1.390 . S
C453 C452 1.387 . S
C453 C455 1.387 . S
H454 C461 0.950 . S
C455 C453 1.387 . S
C455 C457 1.390 . S
C455 H459 0.950 . S
H456 C452 0.950 . S
C457 C455 1.390 . S
C457 C458 1.387 . S
C457 H460 0.950 . S
C458 C457 1.387 . S
C458 C461 1.387 . S
H459 C455 0.950 . S
H460 C457 0.950 . S
C461 C452 1.390 . S
C461 H454 0.950 . S
C461 C458 1.387 . S
C462 C463 1.387 . S
C462 H466 0.950 . S
C462 C471 1.390 . S
C463 C462 1.387 . S
C463 C465 1.387 . S
H464 C471 0.950 . S
C465 C463 1.387 . S
C465 C467 1.390 . S
C465 H469 0.950 . S
H466 C462 0.950 . S
C467 C465 1.390 . S
C467 C468 1.387 . S
C467 H470 0.950 . S
C468 C467 1.387 . S
C468 C471 1.387 . S
H469 C465 0.950 . S
H470 C467 0.950 . S
C471 C462 1.390 . S
C471 H464 0.950 . S
C471 C468 1.387 . S
C472 C473 1.387 . S
C472 H476 0.950 . S
C472 C481 1.390 . S
C473 C472 1.387 . S
C473 C475 1.387 . S
H474 C481 0.950 . S
C475 C473 1.387 . S
C475 C477 1.390 . S
C475 H479 0.950 . S
H476 C472 0.950 . S
C477 C475 1.390 . S
C477 C478 1.387 . S
C477 H480 0.950 . S
C478 C477 1.387 . S
C478 C481 1.387 . S
H479 C475 0.950 . S
H480 C477 0.950 . S
C481 C472 1.390 . S
C481 H474 0.950 . S
C481 C478 1.387 . S
C482 C483 1.387 . S
C482 H486 0.950 . S
C482 C491 1.390 . S
C483 C482 1.387 . S
C483 C485 1.387 . S
H484 C491 0.950 . S
C485 C483 1.387 . S
C485 C487 1.390 . S
C485 H489 0.950 . S
H486 C482 0.950 . S
C487 C485 1.390 . S
C487 C488 1.387 . S
C487 H490 0.950 . S
C488 C487 1.387 . S
C488 C491 1.387 . S
H489 C485 0.950 . S
H490 C487 0.950 . S
C491 C482 1.390 . S
C491 H484 0.950 . S
C491 C488 1.387 . S
C492 C493 1.387 . S
C492 H496 0.950 . S
C492 C501 1.390 . S
C493 C492 1.387 . S
C493 C495 1.387 . S
H494 C501 0.950 . S
C495 C493 1.387 . S
C495 C497 1.390 . S
C495 H499 0.950 . S
H496 C492 0.950 . S
C497 C495 1.390 . S
C497 C498 1.387 . S
C497 H500 0.950 . S
C498 C497 1.387 . S
C498 C501 1.387 . S
H499 C495 0.950 . S
H500 C497 0.950 . S
C501 C492 1.390 . S
C501 H494 0.950 . S
C501 C498 1.387 . S
C502 C503 1.387 . S
C502 H506 0.950 . S
C502 C511 1.390 . S
C503 C502 1.387 . S
C503 C505 1.387 . S
H504 C511 0.950 . S
C505 C503 1.387 . S
C505 C507 1.390 . S
C505 H509 0.950 . S
H506 C502 0.950 . S
C507 C505 1.390 . S
C507 C508 1.387 . S
C507 H510 0.950 . S
C508 C507 1.387 . S
C508 C511 1.387 . S
H509 C505 0.950 . S
H510 C507 0.950 . S
C511 C502 1.390 . S
C511 H504 0.950 . S
C511 C508 1.387 . S
C512 C513 1.387 . S
C512 H516 0.950 . S
C512 C521 1.390 . S
C513 C512 1.387 . S
C513 C515 1.387 . S
H514 C521 0.950 . S
C515 C513 1.387 . S
C515 C517 1.390 . S
C515 H519 0.950 . S
H516 C512 0.950 . S
C517 C515 1.390 . S
C517 C518 1.387 . S
C517 H520 0.950 . S
C518 C517 1.387 . S
C518 C521 1.387 . S
H519 C515 0.950 . S
H520 C517 0.950 . S
C521 C512 1.390 . S
C521 H514 0.950 . S
C521 C518 1.387 . S
C522 C523 1.387 . S
C522 H526 0.950 . S
C522 C531 1.390 . S
C523 C522 1.387 . S
C523 C525 1.387 . S
H524 C531 0.950 . S
C525 C523 1.387 . S
C525 C527 1.390 . S
C525 H529 0.950 . S
H526 C522 0.950 . S
C527 C525 1.390 . S
C527 C528 1.387 . S
C527 H530 0.950 . S
C528 C527 1.387 . S
C528 C531 1.387 . S
H529 C525 0.950 . S
H530 C527 0.950 . S
C531 C522 1.390 . S
C531 H524 0.950 . S
C531 C528 1.387 . S
C532 C533 1.387 . S
C532 H536 0.950 . S
C532 C541 1.390 . S
C533 C532 1.387 . S
C533 C535 1.387 . S
H534 C541 0.950 . S
C535 C533 1.387 . S
C535 C537 1.390 . S
C535 H539 0.950 . S
H536 C532 0.950 . S
C537 C535 1.390 . S
C537 C538 1.387 . S
C537 H540 0.950 . S
C538 C537 1.387 . S
C538 C541 1.387 . S
H539 C535 0.950 . S
H540 C537 0.950 . S
C541 C532 1.390 . S
C541 H534 0.950 . S
C541 C538 1.387 . S
C542 C543 1.387 . S
C542 H546 0.950 . S
C542 C551 1.390 . S
C543 C542 1.387 . S
C543 C545 1.387 . S
H544 C551 0.950 . S
C545 C543 1.387 . S
C545 C547 1.390 . S
C545 H549 0.950 . S
H546 C542 0.950 . S
C547 C545 1.390 . S
C547 C548 1.387 . S
C547 H550 0.950 . S
C548 C547 1.387 . S
C548 C551 1.387 . S
H549 C545 0.950 . S
H550 C547 0.950 . S
C551 C542 1.390 . S
C551 H544 0.950 . S
C551 C548 1.387 . S
C552 C553 1.387 . S
C552 H556 0.950 . S
C552 C561 1.390 . S
C553 C552 1.387 . S
C553 C555 1.387 . S
H554 C561 0.950 . S
C555 C553 1.387 . S
C555 C557 1.390 . S
C555 H559 0.950 . S
H556 C552 0.950 . S
C557 C555 1.390 . S
C557 C558 1.387 . S
C557 H560 0.950 . S
C558 C557 1.387 . S
C558 C561 1.387 . S
H559 C555 0.950 . S
H560 C557 0.950 . S
C561 C552 1.390 . S
C561 H554 0.950 . S
C561 C558 1.387 . S
C562 C563 1.387 . S
C562 H566 0.950 . S
C562 C571 1.390 . S
C563 C562 1.387 . S
C563 C565 1.387 . S
H564 C571 0.950 . S
C565 C563 1.387 . S
C565 C567 1.390 . S
C565 H569 0.950 . S
H566 C562 0.950 . S
C567 C565 1.390 . S
C567 C568 1.387 . S
C567 H570 0.950 . S
C568 C567 1.387 . S
C568 C571 1.387 . S
H569 C565 0.950 . S
H570 C567 0.950 . S
C571 C562 1.390 . S
C571 H564 0.950 . S
C571 C568 1.387 . S
C572 C573 1.387 . S
C572 H576 0.950 . S
C572 C581 1.390 1_565 S
C573 C572 1.387 . S
C573 C575 1.387 . S
H574 C581 0.950 . S
C575 C573 1.387 . S
C575 C577 1.390 1_565 S
C575 H579 0.950 . S
H576 C572 0.950 . S
C577 C575 1.390 1_545 S
C577 C578 1.387 . S
C577 H580 0.950 . S
C578 C577 1.387 . S
C578 C581 1.387 . S
H579 C575 0.950 . S
H580 C577 0.950 . S
C581 C572 1.390 1_545 S
C581 H574 0.950 . S
C581 C578 1.387 . S
C582 C583 1.387 . S
C582 H586 0.950 . S
C582 C591 1.390 1_455 S
C583 C582 1.387 . S
C583 C585 1.387 . S
H584 C591 0.950 . S
C585 C583 1.387 . S
C585 C587 1.390 1_455 S
C585 H589 0.950 . S
H586 C582 0.950 . S
C587 C585 1.390 1_655 S
C587 C588 1.387 . S
C587 H590 0.950 . S
C588 C587 1.387 . S
C588 C591 1.387 . S
H589 C585 0.950 . S
H590 C587 0.950 . S
C591 C582 1.390 1_655 S
C591 H584 0.950 . S
C591 C588 1.387 . S
C592 C593 1.387 . S
C592 H596 0.950 . S
C592 C601 1.390 1_565 S
C593 C592 1.387 . S
C593 C595 1.387 . S
H594 C601 0.950 . S
C595 C593 1.387 . S
C595 C597 1.390 1_565 S
C595 H599 0.950 . S
H596 C592 0.950 . S
C597 C595 1.390 1_545 S
C597 C598 1.387 . S
C597 H600 0.950 . S
C598 C597 1.387 . S
C598 C601 1.387 . S
H599 C595 0.950 . S
H600 C597 0.950 . S
C601 C592 1.390 1_545 S
C601 H594 0.950 . S
C601 C598 1.387 . S
C602 C603 1.387 . S
C602 H606 0.950 . S
C602 C611 1.390 1_655 S
C603 C602 1.387 . S
C603 C605 1.387 . S
H604 C611 0.950 . S
C605 C603 1.387 . S
C605 C607 1.390 1_655 S
C605 H609 0.950 . S
H606 C602 0.950 . S
C607 C605 1.390 1_455 S
C607 C608 1.387 . S
C607 H610 0.950 . S
C608 C607 1.387 . S
C608 C611 1.387 . S
H609 C605 0.950 . S
H610 C607 0.950 . S
C611 C602 1.390 1_455 S
C611 H604 0.950 . S
C611 C608 1.387 . S
C612 C613 1.387 . S
C612 H616 0.950 . S
C612 C621 1.390 . S
C613 C612 1.387 . S
C613 C615 1.387 . S
H614 C621 0.950 . S
C615 C613 1.387 . S
C615 C617 1.390 . S
C615 H619 0.950 . S
H616 C612 0.950 . S
C617 C615 1.390 . S
C617 C618 1.387 . S
C617 H620 0.950 . S
C618 C617 1.387 . S
C618 C621 1.387 . S
H619 C615 0.950 . S
H620 C617 0.950 . S
C621 C612 1.390 . S
C621 H614 0.950 . S
C621 C618 1.387 . S
C622 C623 1.387 . S
C622 H626 0.950 . S
C622 C631 1.390 . S
C623 C622 1.387 . S
C623 C625 1.387 . S
H624 C631 0.950 . S
C625 C623 1.387 . S
C625 C627 1.390 . S
C625 H629 0.950 . S
H626 C622 0.950 . S
C627 C625 1.390 . S
C627 C628 1.387 . S
C627 H630 0.950 . S
C628 C627 1.387 . S
C628 C631 1.387 . S
H629 C625 0.950 . S
H630 C627 0.950 . S
C631 C622 1.390 . S
C631 H624 0.950 . S
C631 C628 1.387 . S
C632 C633 1.387 . S
C632 H636 0.950 . S
C632 C641 1.390 . S
C633 C632 1.387 . S
C633 C635 1.387 . S
H634 C641 0.950 . S
C635 C633 1.387 . S
C635 C637 1.390 . S
C635 H639 0.950 . S
H636 C632 0.950 . S
C637 C635 1.390 . S
C637 C638 1.387 . S
C637 H640 0.950 . S
C638 C637 1.387 . S
C638 C641 1.387 . S
H639 C635 0.950 . S
H640 C637 0.950 . S
C641 C632 1.390 . S
C641 H634 0.950 . S
C641 C638 1.387 . S
C642 C643 1.387 . S
C642 H646 0.950 . S
C642 C651 1.390 1_554 S
C643 C642 1.387 . S
C643 C645 1.387 . S
H644 C651 0.950 . S
C645 C643 1.387 . S
C645 C647 1.390 1_554 S
C645 H649 0.950 . S
H646 C642 0.950 . S
C647 C645 1.390 1_556 S
C647 C648 1.387 . S
C647 H650 0.950 . S
C648 C647 1.387 . S
C648 C651 1.387 . S
H649 C645 0.950 . S
H650 C647 0.950 . S
C651 C642 1.390 1_556 S
C651 H644 0.950 . S
C651 C648 1.387 . S
C652 C653 1.387 . S
C652 H656 0.950 . S
C652 C661 1.390 . S
C653 C652 1.387 . S
C653 C655 1.387 . S
H654 C661 0.950 . S
C655 C653 1.387 . S
C655 C657 1.390 . S
C655 H659 0.950 . S
H656 C652 0.950 . S
C657 C655 1.390 . S
C657 C658 1.387 . S
C657 H660 0.950 . S
C658 C657 1.387 . S
C658 C661 1.387 . S
H659 C655 0.950 . S
H660 C657 0.950 . S
C661 C652 1.390 . S
C661 H654 0.950 . S
C661 C658 1.387 . S
C662 C663 1.387 . S
C662 H666 0.950 . S
C662 C671 1.390 1_556 S
C663 C662 1.387 . S
C663 C665 1.387 . S
H664 C671 0.950 . S
C665 C663 1.387 . S
C665 C667 1.390 1_556 S
C665 H669 0.950 . S
H666 C662 0.950 . S
C667 C665 1.390 1_554 S
C667 C668 1.387 . S
C667 H670 0.950 . S
C668 C667 1.387 . S
C668 C671 1.387 . S
H669 C665 0.950 . S
H670 C667 0.950 . S
C671 C662 1.390 1_554 S
C671 H664 0.950 . S
C671 C668 1.387 . S
C672 C673 1.387 . S
C672 H676 0.950 . S
C672 C681 1.390 . S
C673 C672 1.387 . S
C673 C675 1.387 . S
H674 C681 0.950 . S
C675 C673 1.387 . S
C675 C677 1.390 . S
C675 H679 0.950 . S
H676 C672 0.950 . S
C677 C675 1.390 . S
C677 C678 1.387 . S
C677 H680 0.950 . S
C678 C677 1.387 . S
C678 C681 1.387 . S
H679 C675 0.950 . S
H680 C677 0.950 . S
C681 C672 1.390 . S
C681 H674 0.950 . S
C681 C678 1.387 . S
C682 C683 1.387 . S
C682 H686 0.950 . S
C682 C691 1.390 . S
C683 C682 1.387 . S
C683 C685 1.387 . S
H684 C691 0.950 . S
C685 C683 1.387 . S
C685 C687 1.390 . S
C685 H689 0.950 . S
H686 C682 0.950 . S
C687 C685 1.390 . S
C687 C688 1.387 . S
C687 H690 0.950 . S
C688 C687 1.387 . S
C688 C691 1.387 . S
H689 C685 0.950 . S
H690 C687 0.950 . S
C691 C682 1.390 . S
C691 H684 0.950 . S
C691 C688 1.387 . S
C692 C693 1.387 . S
C692 H696 0.950 . S
C692 C701 1.390 1_545 S
C693 C692 1.387 . S
C693 C695 1.387 . S
H694 C701 0.950 . S
C695 C693 1.387 . S
C695 C697 1.390 1_545 S
C695 H699 0.950 . S
H696 C692 0.950 . S
C697 C695 1.390 1_565 S
C697 C698 1.387 . S
C697 H700 0.950 . S
C698 C697 1.387 . S
C698 C701 1.387 . S
H699 C695 0.950 . S
H700 C697 0.950 . S
C701 C692 1.390 1_565 S
C701 H694 0.950 . S
C701 C698 1.387 . S
C702 C703 1.387 . S
C702 H706 0.950 . S
C702 C711 1.390 1_455 S
C703 C702 1.387 . S
C703 C705 1.387 . S
H704 C711 0.950 . S
C705 C703 1.387 . S
C705 C707 1.390 1_455 S
C705 H709 0.950 . S
H706 C702 0.950 . S
C707 C705 1.390 1_655 S
C707 C708 1.387 . S
C707 H710 0.950 . S
C708 C707 1.387 . S
C708 C711 1.387 . S
H709 C705 0.950 . S
H710 C707 0.950 . S
C711 C702 1.390 1_655 S
C711 H704 0.950 . S
C711 C708 1.387 . S
C712 C713 1.387 . S
C712 H716 0.950 . S
C712 C721 1.390 1_545 S
C713 C712 1.387 . S
C713 C715 1.387 . S
H714 C721 0.950 . S
C715 C713 1.387 . S
C715 C717 1.390 1_545 S
C715 H719 0.950 . S
H716 C712 0.950 . S
C717 C715 1.390 1_565 S
C717 C718 1.387 . S
C717 H720 0.950 . S
C718 C717 1.387 . S
C718 C721 1.387 . S
H719 C715 0.950 . S
H720 C717 0.950 . S
C721 C712 1.390 1_565 S
C721 H714 0.950 . S
C721 C718 1.387 . S
C722 C723 1.387 . S
C722 H726 0.950 . S
C722 C731 1.390 1_455 S
C723 C722 1.387 . S
C723 C725 1.387 . S
H724 C731 0.950 . S
C725 C723 1.387 . S
C725 C727 1.390 1_455 S
C725 H729 0.950 . S
H726 C722 0.950 . S
C727 C725 1.390 1_655 S
C727 C728 1.387 . S
C727 H730 0.950 . S
C728 C727 1.387 . S
C728 C731 1.387 . S
H729 C725 0.950 . S
H730 C727 0.950 . S
C731 C722 1.390 1_655 S
C731 H724 0.950 . S
C731 C728 1.387 . S
C732 C733 1.387 . S
C732 H736 0.950 . S
C732 C741 1.390 . S
C733 C732 1.387 . S
C733 C735 1.387 . S
H734 C741 0.950 . S
C735 C733 1.387 . S
C735 C737 1.390 . S
C735 H739 0.950 . S
H736 C732 0.950 . S
C737 C735 1.390 . S
C737 C738 1.387 . S
C737 H740 0.950 . S
C738 C737 1.387 . S
C738 C741 1.387 . S
H739 C735 0.950 . S
H740 C737 0.950 . S
C741 C732 1.390 . S
C741 H734 0.950 . S
C741 C738 1.387 . S
C742 C743 1.387 . S
C742 H746 0.950 . S
C742 C751 1.390 . S
C743 C742 1.387 . S
C743 C745 1.387 . S
H744 C751 0.950 . S
C745 C743 1.387 . S
C745 C747 1.390 . S
C745 H749 0.950 . S
H746 C742 0.950 . S
C747 C745 1.390 . S
C747 C748 1.387 . S
C747 H750 0.950 . S
C748 C747 1.387 . S
C748 C751 1.387 . S
H749 C745 0.950 . S
H750 C747 0.950 . S
C751 C742 1.390 . S
C751 H744 0.950 . S
C751 C748 1.387 . S
C752 C753 1.387 . S
C752 H756 0.950 . S
C752 C761 1.390 . S
C753 C752 1.387 . S
C753 C755 1.387 . S
H754 C761 0.950 . S
C755 C753 1.387 . S
C755 C757 1.390 . S
C755 H759 0.950 . S
H756 C752 0.950 . S
C757 C755 1.390 . S
C757 C758 1.387 . S
C757 H760 0.950 . S
C758 C757 1.387 . S
C758 C761 1.387 . S
H759 C755 0.950 . S
H760 C757 0.950 . S
C761 C752 1.390 . S
C761 H754 0.950 . S
C761 C758 1.387 . S
C762 C763 1.387 . S
C762 H766 0.950 . S
C762 C771 1.390 1_554 S
C763 C762 1.387 . S
C763 C765 1.387 . S
H764 C771 0.950 . S
C765 C763 1.387 . S
C765 C767 1.390 1_554 S
C765 H769 0.950 . S
H766 C762 0.950 . S
C767 C765 1.390 1_556 S
C767 C768 1.387 . S
C767 H770 0.950 . S
C768 C767 1.387 . S
C768 C771 1.387 . S
H769 C765 0.950 . S
H770 C767 0.950 . S
C771 C762 1.390 1_556 S
C771 H764 0.950 . S
C771 C768 1.387 . S
C772 C773 1.387 . S
C772 H776 0.950 . S
C772 C781 1.390 . S
C773 C772 1.387 . S
C773 C775 1.387 . S
H774 C781 0.950 . S
C775 C773 1.387 . S
C775 C777 1.390 . S
C775 H779 0.950 . S
H776 C772 0.950 . S
C777 C775 1.390 . S
C777 C778 1.387 . S
C777 H780 0.950 . S
C778 C777 1.387 . S
C778 C781 1.387 . S
H779 C775 0.950 . S
H780 C777 0.950 . S
C781 C772 1.390 . S
C781 H774 0.950 . S
C781 C778 1.387 . S
C782 C783 1.387 . S
C782 H786 0.950 . S
C782 C791 1.390 1_554 S
C783 C782 1.387 . S
C783 C785 1.387 . S
H784 C791 0.950 . S
C785 C783 1.387 . S
C785 C787 1.390 1_554 S
C785 H789 0.950 . S
H786 C782 0.950 . S
C787 C785 1.390 1_556 S
C787 C788 1.387 . S
C787 H790 0.950 . S
C788 C787 1.387 . S
C788 C791 1.387 . S
H789 C785 0.950 . S
H790 C787 0.950 . S
C791 C782 1.390 1_556 S
C791 H784 0.950 . S
C791 C788 1.387 . S
C313 C53 1.537 . S
C318 C10 1.595 . S
C323 C23 1.595 . S
C328 C75 1.595 . S
C333 C88 1.595 . S
C338 C27 1.537 . S
C343 C101 1.595 . S
C348 C40 1.537 . S
C353 C192 1.593 . S
C358 C105 1.533 . S
C363 C205 1.593 . S
C368 C118 1.533 . S
C373 C140 1.593 . S
C378 C157 1.533 . S
C383 C179 1.595 . S
C388 C144 1.537 . S
C393 C209 1.533 . S
C398 C283 1.593 . S
C403 C231 1.595 . S
C408 C257 1.595 . S
C413 C244 1.595 . S
C418 C270 1.595 . S
C423 C287 1.537 . S
C428 C300 1.537 . S
C433 C49 1.533 . S
C438 C66 1.593 . S
C443 C1 1.593 . S
C448 C79 1.593 . S
C453 C92 1.593 . S
C458 C14 1.593 . S
C463 C36 1.533 . S
C468 C62 1.533 . S
C473 C309 1.533 . S
C478 C235 1.593 . S
C483 C248 1.593 . S
C488 C274 1.593 . S
C493 C261 1.593 . S
C498 C296 1.533 . S
C503 C222 1.595 . S
C508 C218 1.537 . S
C513 C153 1.537 . S
C518 C127 1.537 . S
C523 C196 1.593 . S
C528 C170 1.593 . S
C533 C166 1.537 . S
C538 C183 1.595 . S
C543 C131 1.595 . S
C548 C114 1.537 . S
C553 C289 1.577 . S
C558 C5 1.626 . S
C563 C211 1.575 . S
C568 C18 1.627 . S
C573 C302 1.578 . S
C578 C29 1.578 . S
C583 C278 1.627 . S
C588 C42 1.575 . S
C593 C239 1.627 . S
C598 C55 1.577 . S
C603 C70 1.627 . S
C608 C252 1.627 . S
C613 C265 1.627 . S
C618 C83 1.627 . S
C623 C226 1.627 . S
C628 C96 1.627 . S
C633 C174 1.626 . S
C638 C107 1.577 . S
C643 C187 1.627 . S
C648 C120 1.577 . S
C653 C200 1.627 . S
C658 C135 1.627 . S
C663 C146 1.577 . S
C668 C159 1.575 . S
C673 C68 1.627 . S
C678 C133 1.627 . S
C683 C81 1.627 . S
C688 C148 1.575 . S
C693 C109 1.577 . S
C698 C94 1.626 . S
C703 C57 1.578 . S
C708 C122 1.577 . S
C713 C185 1.626 . S
C718 C44 1.576 . S
C723 C3 1.627 . S
C728 C198 1.626 . S
C733 C161 1.578 . S
C738 C16 1.626 . S
C743 C31 1.575 . S
C748 C172 1.627 . S
C753 C224 1.626 . S
C758 C304 1.578 . S
C763 C276 1.627 . S
C768 C237 1.626 . S
C773 C291 1.577 . S
C778 C250 1.626 . S
C783 C213 1.577 . S
C788 C263 1.627 . S
