# Generated by pormake.
# Topology wme, (6)-cn, num edge types: 1
# Building blocks:
#     Node 0, Type 0, BuildingBlock: MIFKUJ_clean_sbu_0, # of connection points: 6
#     Node 1, Type 0, BuildingBlock: MIFKUJ_clean_sbu_0, # of connection points: 6
#     Node 2, Type 0, BuildingBlock: MIFKUJ_clean_sbu_0, # of connection points: 6
#     Node 3, Type 0, BuildingBlock: MIFKUJ_clean_sbu_0, # of connection points: 6
#     Node 4, Type 0, BuildingBlock: MIFKUJ_clean_sbu_0, # of connection points: 6
#     Node 5, Type 0, BuildingBlock: MIFKUJ_clean_sbu_0, # of connection points: 6
#     Node 6, Type 0, BuildingBlock: MIFKUJ_clean_sbu_0, # of connection points: 6
#     Node 7, Type 0, BuildingBlock: MIFKUJ_clean_sbu_0, # of connection points: 6
#     Node 8, Type 0, BuildingBlock: MIFKUJ_clean_sbu_0, # of connection points: 6
#     Node 9, Type 0, BuildingBlock: MIFKUJ_clean_sbu_0, # of connection points: 6
#     Node 10, Type 0, BuildingBlock: MIFKUJ_clean_sbu_0, # of connection points: 6
#     Node 11, Type 0, BuildingBlock: MIFKUJ_clean_sbu_0, # of connection points: 6
#     Edge 12, Type (0, 0), BuildingBlock: XIVTED_clean_linker_0, # of connection points: 2
#     Edge 13, Type (0, 0), BuildingBlock: XIVTED_clean_linker_0, # of connection points: 2
#     Edge 14, Type (0, 0), BuildingBlock: XIVTED_clean_linker_0, # of connection points: 2
#     Edge 15, Type (0, 0), BuildingBlock: XIVTED_clean_linker_0, # of connection points: 2
#     Edge 16, Type (0, 0), BuildingBlock: XIVTED_clean_linker_0, # of connection points: 2
#     Edge 17, Type (0, 0), BuildingBlock: XIVTED_clean_linker_0, # of connection points: 2
#     Edge 18, Type (0, 0), BuildingBlock: XIVTED_clean_linker_0, # of connection points: 2
#     Edge 19, Type (0, 0), BuildingBlock: XIVTED_clean_linker_0, # of connection points: 2
#     Edge 20, Type (0, 0), BuildingBlock: XIVTED_clean_linker_0, # of connection points: 2
#     Edge 21, Type (0, 0), BuildingBlock: XIVTED_clean_linker_0, # of connection points: 2
#     Edge 22, Type (0, 0), BuildingBlock: XIVTED_clean_linker_0, # of connection points: 2
#     Edge 23, Type (0, 0), BuildingBlock: XIVTED_clean_linker_0, # of connection points: 2
#     Edge 24, Type (0, 0), BuildingBlock: XIVTED_clean_linker_0, # of connection points: 2
#     Edge 25, Type (0, 0), BuildingBlock: XIVTED_clean_linker_0, # of connection points: 2
#     Edge 26, Type (0, 0), BuildingBlock: XIVTED_clean_linker_0, # of connection points: 2
#     Edge 27, Type (0, 0), BuildingBlock: XIVTED_clean_linker_0, # of connection points: 2
#     Edge 28, Type (0, 0), BuildingBlock: XIVTED_clean_linker_0, # of connection points: 2
#     Edge 29, Type (0, 0), BuildingBlock: XIVTED_clean_linker_0, # of connection points: 2
#     Edge 30, Type (0, 0), BuildingBlock: XIVTED_clean_linker_0, # of connection points: 2
#     Edge 31, Type (0, 0), BuildingBlock: XIVTED_clean_linker_0, # of connection points: 2
#     Edge 32, Type (0, 0), BuildingBlock: XIVTED_clean_linker_0, # of connection points: 2
#     Edge 33, Type (0, 0), BuildingBlock: XIVTED_clean_linker_0, # of connection points: 2
#     Edge 34, Type (0, 0), BuildingBlock: XIVTED_clean_linker_0, # of connection points: 2
#     Edge 35, Type (0, 0), BuildingBlock: XIVTED_clean_linker_0, # of connection points: 2
#     Edge 36, Type (0, 0), BuildingBlock: XIVTED_clean_linker_0, # of connection points: 2
#     Edge 37, Type (0, 0), BuildingBlock: XIVTED_clean_linker_0, # of connection points: 2
#     Edge 38, Type (0, 0), BuildingBlock: XIVTED_clean_linker_0, # of connection points: 2
#     Edge 39, Type (0, 0), BuildingBlock: XIVTED_clean_linker_0, # of connection points: 2
#     Edge 40, Type (0, 0), BuildingBlock: XIVTED_clean_linker_0, # of connection points: 2
#     Edge 41, Type (0, 0), BuildingBlock: XIVTED_clean_linker_0, # of connection points: 2
#     Edge 42, Type (0, 0), BuildingBlock: XIVTED_clean_linker_0, # of connection points: 2
#     Edge 43, Type (0, 0), BuildingBlock: XIVTED_clean_linker_0, # of connection points: 2
#     Edge 44, Type (0, 0), BuildingBlock: XIVTED_clean_linker_0, # of connection points: 2
#     Edge 45, Type (0, 0), BuildingBlock: XIVTED_clean_linker_0, # of connection points: 2
#     Edge 46, Type (0, 0), BuildingBlock: XIVTED_clean_linker_0, # of connection points: 2
#     Edge 47, Type (0, 0), BuildingBlock: XIVTED_clean_linker_0, # of connection points: 2
# Relax obj value: 0.077
# Max RMSD: 0.169
# Mean RMSD: 0.169
data_MOF--net-wme--node1-MIFKUJ_clean_sbu_0--edge1-XIVTED_clean_linker_0
_symmetry_space_group_name_H-M    P1
_symmetry_Int_Tables_number       1
_symmetry_cell_setting            triclinic
loop_
_symmetry_equiv_pos_as_xyz
'x, y, z'
_cell_length_a     34.839609
_cell_length_b     34.7579
_cell_length_c     53.387317
_cell_angle_alpha  89.849952
_cell_angle_beta   90.08222
_cell_angle_gamma 120.3565
loop_
_atom_site_label
_atom_site_type_symbol
_atom_site_fract_x
_atom_site_fract_y
_atom_site_fract_z
_atom_type_partial_charge
Zn0 Zn 0.2191 0.31381 0.09902 0.0
Zn1 Zn 0.21056 0.39708 0.08223 0.0
C2 C 0.12835 0.25976 0.10981 0.0
O3 O 0.14751 0.26013 0.1311 0.0
C4 C 0.29902 0.4652 0.07051 0.0
O5 O 0.28062 0.4586 0.04825 0.0
O6 O 0.22937 0.26247 0.10659 0.0
O7 O 0.25706 0.34662 0.06997 0.0
O8 O 0.20665 0.35845 0.0525 0.0
C9 C 0.22458 0.23728 0.08814 0.0
O10 O 0.21667 0.24794 0.06588 0.0
O11 O 0.15278 0.28243 0.09148 0.0
C12 C 0.187 0.46231 0.09085 0.0
O13 O 0.20106 0.45816 0.11299 0.0
O14 O 0.18625 0.43756 0.07306 0.0
O15 O 0.1813 0.36797 0.11519 0.0
O16 O 0.23151 0.35221 0.12888 0.0
O17 O 0.27574 0.4409 0.0887 0.0
C18 C 0.23862 0.35088 0.05059 0.0
C19 C 0.20257 0.36325 0.13318 0.0
Zn20 Zn 0.91655 0.19694 0.60304 0.0
Zn21 Zn 0.82561 0.19735 0.58606 0.0
C22 C 0.87246 0.10502 0.61293 0.0
O23 O 0.8907 0.12217 0.63468 0.0
C24 C 0.84661 0.28578 0.57501 0.0
O25 O 0.83753 0.2682 0.55249 0.0
O26 O 0.97621 0.20284 0.61146 0.0
O27 O 0.92647 0.23566 0.57382 0.0
O28 O 0.86074 0.1961 0.55588 0.0
C29 C 0.9963 0.19647 0.59345 0.0
O30 O 0.97858 0.18905 0.57097 0.0
O31 O 0.8773 0.1313 0.59498 0.0
C32 C 0.73604 0.17056 0.59498 0.0
O33 O 0.75397 0.1832 0.6173 0.0
O34 O 0.76058 0.17212 0.57687 0.0
O35 O 0.8248 0.16599 0.61838 0.0
O36 O 0.8922 0.21253 0.63236 0.0
O37 O 0.84604 0.26206 0.59338 0.0
C38 C 0.90257 0.2226 0.5543 0.0
C39 C 0.85122 0.18594 0.63646 0.0
Zn40 Zn 0.73028 0.94164 0.10885 0.0
Zn41 Zn 0.63737 0.84922 0.09323 0.0
C42 C 0.7774 0.89734 0.11968 0.0
O43 O 0.77817 0.9153 0.14144 0.0
C44 C 0.57167 0.86812 0.07513 0.0
O45 O 0.5801 0.85317 0.05451 0.0
O46 O 0.78493 1.00287 0.11322 0.0
O47 O 0.69612 0.94554 0.08035 0.0
O48 O 0.67994 0.88098 0.06447 0.0
C49 C 0.8113 0.01714 0.09455 0.0
O50 O 0.80052 0.99253 0.07426 0.0
O51 O 0.75594 0.90186 0.1017 0.0
C52 C 0.57151 0.75953 0.10215 0.0
O53 O 0.57314 0.77793 0.12389 0.0
O54 O 0.59786 0.78368 0.08483 0.0
O55 O 0.66079 0.85075 0.12835 0.0
O56 O 0.69494 0.92155 0.14001 0.0
O57 O 0.59394 0.87164 0.09478 0.0
C58 C 0.69356 0.92222 0.06159 0.0
C59 C 0.6739 0.88033 0.14539 0.0
Zn60 Zn 0.78777 0.70763 0.60537 0.0
Zn61 Zn 0.79118 0.61755 0.59263 0.0
C62 C 0.87859 0.75825 0.61645 0.0
O63 O 0.8599 0.76074 0.63727 0.0
C64 C 0.70495 0.54887 0.57767 0.0
O65 O 0.72644 0.55519 0.55646 0.0
O66 O 0.78018 0.76109 0.61053 0.0
O67 O 0.74999 0.67339 0.57662 0.0
O68 O 0.79896 0.65655 0.56229 0.0
C69 C 0.78828 0.78707 0.59194 0.0
O70 O 0.79838 0.77651 0.57032 0.0
O71 O 0.85371 0.73492 0.59847 0.0
C72 C 0.81386 0.55181 0.60265 0.0
O73 O 0.7954 0.55301 0.62385 0.0
O74 O 0.8174 0.5783 0.5851 0.0
O75 O 0.81513 0.64446 0.62687 0.0
O76 O 0.77324 0.67315 0.63688 0.0
O77 O 0.72554 0.57346 0.59632 0.0
C78 C 0.7685 0.66581 0.55847 0.0
C79 C 0.79734 0.65706 0.64327 0.0
Zn80 Zn 0.0999 0.82953 0.0993 0.0
Zn81 Zn 0.18986 0.82624 0.08127 0.0
C82 C 0.14581 0.92102 0.11229 0.0
O83 O 0.1279 0.90243 0.13389 0.0
C84 C 0.16921 0.73846 0.06825 0.0
O85 O 0.18124 0.75821 0.0463 0.0
O86 O 0.04036 0.8232 0.108 0.0
O87 O 0.08979 0.79501 0.06839 0.0
O88 O 0.15649 0.83116 0.05107 0.0
C89 C 0.02216 0.83311 0.0904 0.0
O90 O 0.04238 0.84531 0.06861 0.0
O91 O 0.14043 0.89596 0.09367 0.0
C92 C 0.27923 0.85291 0.09124 0.0
O93 O 0.2608 0.84024 0.11345 0.0
O94 O 0.25516 0.85135 0.07284 0.0
O95 O 0.18972 0.8546 0.11456 0.0
O96 O 0.12157 0.80806 0.12729 0.0
O97 O 0.16794 0.7606 0.08688 0.0
C98 C 0.1143 0.80825 0.0491 0.0
C99 C 0.16272 0.83194 0.13194 0.0
Zn100 Zn 0.27748 0.07053 0.60912 0.0
Zn101 Zn 0.36985 0.16163 0.59297 0.0
C102 C 0.23108 0.1157 0.61917 0.0
O103 O 0.22931 0.09692 0.64086 0.0
C104 C 0.43884 0.14585 0.57742 0.0
O105 O 0.43058 0.15958 0.55622 0.0
O106 O 0.22245 0.01046 0.61507 0.0
O107 O 0.30918 0.06282 0.58074 0.0
O108 O 0.3296 0.1279 0.56362 0.0
C109 C 0.19732 0.99264 0.59617 0.0
O110 O 0.20957 0.01305 0.57441 0.0
O111 O 0.25286 0.11126 0.60138 0.0
C112 C 0.43308 0.25187 0.60133 0.0
O113 O 0.43114 0.23405 0.62337 0.0
O114 O 0.40791 0.227 0.58387 0.0
O115 O 0.34451 0.16087 0.62742 0.0
O116 O 0.31436 0.09075 0.63964 0.0
O117 O 0.41517 0.14174 0.5965 0.0
C118 C 0.31599 0.08654 0.56142 0.0
C119 C 0.33438 0.132 0.6447 0.0
Zn120 Zn 0.70717 0.77694 0.36009 0.0
Zn121 Zn 0.62063 0.78221 0.37495 0.0
C122 C 0.75593 0.86885 0.35132 0.0
O123 O 0.75945 0.85178 0.33011 0.0
C124 C 0.54664 0.69549 0.38598 0.0
O125 O 0.55395 0.71302 0.40849 0.0
O126 O 0.76217 0.77236 0.354 0.0
O127 O 0.67265 0.73505 0.38735 0.0
O128 O 0.65792 0.78325 0.40492 0.0
C129 C 0.78895 0.78203 0.37232 0.0
O130 O 0.77788 0.79097 0.39414 0.0
O131 O 0.73267 0.84243 0.36887 0.0
C132 C 0.56408 0.81732 0.36657 0.0
O133 O 0.56951 0.80699 0.34371 0.0
O134 O 0.58447 0.81108 0.38451 0.0
O135 O 0.64978 0.80985 0.34149 0.0
O136 O 0.6717 0.76352 0.32911 0.0
O137 O 0.57284 0.71818 0.36827 0.0
C138 C 0.66643 0.75182 0.4068 0.0
C139 C 0.6573 0.78962 0.32404 0.0
Zn140 Zn 0.96658 0.74047 0.8587 0.0
Zn141 Zn 0.87435 0.60996 0.86281 0.0
C142 C 0.8887 0.74259 0.87684 0.0
O143 O 0.86624 0.70664 0.86315 0.0
C144 C 0.9023 0.54521 0.86965 0.0
O145 O 0.91205 0.56198 0.89233 0.0
O146 O 0.0295 0.79323 0.8568 0.0
O147 O 0.96133 0.68423 0.87085 0.0
O148 O 0.90636 0.63933 0.8948 0.0
C149 C 0.04457 0.82017 0.87519 0.0
O150 O 0.02041 0.81078 0.8956 0.0
O151 O 0.93055 0.75984 0.879 0.0
C152 C 0.78065 0.55953 0.8512 0.0
O153 O 0.79614 0.56232 0.82843 0.0
O154 O 0.80798 0.57896 0.86901 0.0
O155 O 0.89174 0.65352 0.83343 0.0
O156 O 0.93908 0.72497 0.82486 0.0
O157 O 0.88726 0.56155 0.85374 0.0
C158 C 0.94551 0.67215 0.89258 0.0
C159 C 0.90823 0.68638 0.8182 0.0
Zn160 Zn 0.20284 0.94763 0.35239 0.0
Zn161 Zn 0.2247 0.8581 0.36474 0.0
C162 C 0.11093 0.89085 0.34521 0.0
O163 O 0.12466 0.90784 0.32276 0.0
C164 C 0.30078 0.85646 0.38589 0.0
O165 O 0.27473 0.84015 0.40556 0.0
O166 O 0.20445 1.00622 0.35229 0.0
O167 O 0.25074 0.956 0.37568 0.0
O168 O 0.21832 0.89083 0.39429 0.0
C169 C 0.19116 0.01593 0.37218 0.0
O170 O 0.17724 0.98757 0.39098 0.0
O171 O 0.13969 0.90122 0.36254 0.0
C172 C 0.18504 0.76705 0.35244 0.0
O173 O 0.20812 0.78552 0.33201 0.0
O174 O 0.18486 0.79203 0.36971 0.0
O175 O 0.21923 0.87446 0.32873 0.0
O176 O 0.21497 0.93425 0.31865 0.0
O177 O 0.28683 0.86752 0.36671 0.0
C178 C 0.23877 0.93306 0.39552 0.0
C179 C 0.21745 0.90039 0.31245 0.0
Zn180 Zn 0.31085 0.23512 0.86015 0.0
Zn181 Zn 0.39556 0.2284 0.87429 0.0
C182 C 0.26333 0.14243 0.85251 0.0
O183 O 0.25819 0.15793 0.83106 0.0
C184 C 0.47074 0.31398 0.88521 0.0
O185 O 0.46364 0.29583 0.9076 0.0
O186 O 0.25515 0.23837 0.85428 0.0
O187 O 0.34572 0.2774 0.88705 0.0
O188 O 0.35908 0.22805 0.90451 0.0
C189 C 0.22848 0.22836 0.87266 0.0
O190 O 0.24011 0.22005 0.89453 0.0
O191 O 0.28683 0.17005 0.86949 0.0
C192 C 0.45197 0.19395 0.86547 0.0
O193 O 0.44808 0.2071 0.843 0.0
O194 O 0.43068 0.19834 0.88354 0.0
O195 O 0.36655 0.20171 0.84068 0.0
O196 O 0.34542 0.24897 0.82889 0.0
O197 O 0.44394 0.29209 0.86759 0.0
C198 C 0.35195 0.26037 0.90645 0.0
C199 C 0.35928 0.22263 0.82346 0.0
Zn200 Zn 0.05414 0.27494 0.35173 0.0
Zn201 Zn 0.14545 0.38998 0.36273 0.0
C202 C 0.13267 0.2659 0.36054 0.0
O203 O 0.15125 0.29546 0.34257 0.0
C204 C 0.13187 0.46181 0.37927 0.0
O205 O 0.13877 0.4509 0.40172 0.0
O206 O 0.99477 0.21776 0.34859 0.0
O207 O 0.04578 0.31807 0.37204 0.0
O208 O 0.10971 0.35121 0.39193 0.0
C209 C 0.97824 0.1931 0.36785 0.0
O210 O 0.99905 0.2068 0.38939 0.0
O211 O 0.09413 0.25566 0.36827 0.0
C212 C 0.23776 0.44702 0.35318 0.0
O213 O 0.22067 0.45039 0.33191 0.0
O214 O 0.2117 0.42086 0.37 0.0
O215 O 0.13365 0.36474 0.32764 0.0
O216 O 0.07621 0.29842 0.31773 0.0
O217 O 0.13223 0.43975 0.36043 0.0
C218 C 0.06743 0.32949 0.39234 0.0
C219 C 0.11037 0.335 0.31155 0.0
Zn220 Zn 0.81183 0.05108 0.85496 0.0
Zn221 Zn 0.7861 0.14438 0.86413 0.0
C222 C 0.90419 0.10642 0.84622 0.0
O223 O 0.89014 0.08767 0.82421 0.0
C224 C 0.70966 0.14564 0.88425 0.0
O225 O 0.73442 0.15927 0.90451 0.0
O226 O 0.80598 0.99089 0.85946 0.0
O227 O 0.76665 0.05353 0.87653 0.0
O228 O 0.79428 0.11758 0.89559 0.0
C229 C 0.82257 0.9855 0.87948 0.0
O230 O 0.84163 0.01861 0.89548 0.0
O231 O 0.87581 0.09728 0.86359 0.0
C232 C 0.82182 0.2317 0.84633 0.0
O233 O 0.79041 0.20933 0.82976 0.0
O234 O 0.82815 0.2104 0.86366 0.0
O235 O 0.79166 0.11732 0.83177 0.0
O236 O 0.80066 0.06145 0.81991 0.0
O237 O 0.72444 0.13618 0.86487 0.0
C238 C 0.78064 0.07619 0.89639 0.0
C239 C 0.79554 0.09421 0.81458 0.0
H240 H 0.16695 0.98343 0.14892 0.0
H241 H 0.22132 0.18004 0.0521 0.0
H242 H 0.17267 0.97033 0.06884 0.0
H243 H 0.22302 0.19561 0.13234 0.0
H244 H 0.20992 0.10535 0.05804 0.0
H245 H 0.19381 0.0628 0.14344 0.0
C246 C 0.17426 0.99731 0.13017 0.0
C247 C 0.16713 0.97002 0.10928 0.0
C248 C 0.21319 0.12519 0.07438 0.0
C249 C 0.19768 0.06109 0.10286 0.0
C250 C 0.21972 0.16793 0.07101 0.0
C251 C 0.22279 0.19409 0.09177 0.0
C252 C 0.20937 0.10815 0.0987 0.0
C253 C 0.22072 0.17663 0.1158 0.0
C254 C 0.18961 0.04272 0.12707 0.0
C255 C 0.1775 0.99002 0.08548 0.0
N256 N 0.21371 0.1346 0.1186 0.0
N257 N 0.19181 0.03422 0.08291 0.0
H258 H 0.2119 0.14294 0.57479 0.0
H259 H 0.0355 0.19667 0.63827 0.0
H260 H 0.18748 0.13626 0.65435 0.0
H261 H 0.0491 0.1886 0.55841 0.0
H262 H 0.09812 0.18437 0.64465 0.0
H263 H 0.15957 0.16969 0.56858 0.0
C264 C 0.196 0.14761 0.59098 0.0
C265 C 0.20382 0.13694 0.6151 0.0
C266 C 0.08759 0.18562 0.62572 0.0
C267 C 0.14371 0.16731 0.60814 0.0
C268 C 0.05189 0.19277 0.62207 0.0
C269 C 0.03672 0.19332 0.59778 0.0
C270 C 0.10839 0.17906 0.60493 0.0
C271 C 0.05936 0.18808 0.57749 0.0
C272 C 0.16597 0.16272 0.58742 0.0
C273 C 0.1822 0.14365 0.63538 0.0
N274 N 0.09381 0.18094 0.58152 0.0
N275 N 0.153 0.15811 0.63143 0.0
H276 H 0.86957 0.06083 0.05636 0.0
H277 H 0.06722 0.22261 0.14726 0.0
H278 H 0.85333 0.06791 0.13603 0.0
H279 H 0.07833 0.23055 0.06669 0.0
H280 H 0.98801 0.16858 0.1433 0.0
H281 H 0.94475 0.12507 0.05945 0.0
C282 C 0.88168 0.0761 0.07451 0.0
C283 C 0.85517 0.05868 0.09603 0.0
C284 C 0.00758 0.18237 0.12645 0.0
C285 C 0.94155 0.13227 0.09969 0.0
C286 C 0.0529 0.21321 0.12869 0.0
C287 C 0.07955 0.23083 0.10725 0.0
C288 C 0.98865 0.16852 0.10259 0.0
C289 C 0.05905 0.21774 0.08371 0.0
C290 C 0.92465 0.11288 0.07623 0.0
C291 C 0.87258 0.08011 0.11897 0.0
N292 N 0.0149 0.18697 0.082 0.0
N293 N 0.91482 0.11547 0.12024 0.0
H294 H 0.7824 0.82606 0.63531 0.0
H295 H 0.8479 0.05834 0.56865 0.0
H296 H 0.80115 0.84804 0.55554 0.0
H297 H 0.84755 0.04055 0.6487 0.0
H298 H 0.81962 0.97842 0.56318 0.0
H299 H 0.79506 0.90157 0.64018 0.0
C300 C 0.78869 0.84655 0.61879 0.0
C301 C 0.79112 0.8308 0.59501 0.0
C302 C 0.82539 0.99199 0.58194 0.0
C303 C 0.80584 0.9174 0.60045 0.0
C304 C 0.84136 0.03757 0.58507 0.0
C305 C 0.85055 0.05623 0.60915 0.0
C306 C 0.81836 0.9649 0.60305 0.0
C307 C 0.84143 0.02771 0.62977 0.0
C308 C 0.79605 0.88974 0.62158 0.0
C309 C 0.79933 0.85889 0.57427 0.0
N310 N 0.82612 0.9836 0.62624 0.0
N311 N 0.80667 0.90088 0.57748 0.0
H312 H 0.97042 0.84211 0.05512 0.0
H313 H 0.81976 0.87527 0.15504 0.0
H314 H 0.97901 0.82621 0.13477 0.0
H315 H 0.80097 0.87548 0.07513 0.0
H316 H 0.87449 0.85228 0.14803 0.0
H317 H 0.90538 0.84972 0.06203 0.0
C318 C 0.95847 0.83994 0.07409 0.0
C319 C 0.98049 0.83389 0.09443 0.0
C320 C 0.8581 0.85687 0.13202 0.0
C321 C 0.90591 0.84283 0.10249 0.0
C322 C 0.82679 0.87002 0.136 0.0
C323 C 0.80599 0.8777 0.11562 0.0
C324 C 0.86911 0.85175 0.10745 0.0
C325 C 0.81624 0.87006 0.09139 0.0
C326 C 0.9212 0.8442 0.078 0.0
C327 C 0.96319 0.83097 0.11854 0.0
N328 N 0.84744 0.858 0.08798 0.0
N329 N 0.92719 0.83591 0.12192 0.0
H330 H 0.94012 0.79887 0.65338 0.0
H331 H 0.13924 0.94342 0.55895 0.0
H332 H 0.9284 0.7803 0.57326 0.0
H333 H 0.1543 0.94921 0.63935 0.0
H334 H 0.06349 0.88072 0.56367 0.0
H335 H 0.01967 0.85057 0.64856 0.0
C336 C 0.95437 0.8054 0.63475 0.0
C337 C 0.92747 0.78552 0.61366 0.0
C338 C 0.08347 0.89539 0.58027 0.0
C339 C 0.01877 0.84517 0.60798 0.0
C340 C 0.12677 0.93129 0.57761 0.0
C341 C 0.15309 0.9519 0.59882 0.0
C342 C 0.06612 0.88014 0.60433 0.0
C343 C 0.13519 0.9345 0.62249 0.0
C344 C 0.99988 0.83493 0.63202 0.0
C345 C 0.94787 0.79495 0.59003 0.0
N346 N 0.0927 0.89992 0.62461 0.0
N347 N 0.99224 0.82451 0.58779 0.0
H348 H 0.06805 0.86824 0.39085 0.0
H349 H 0.82773 0.77718 0.32857 0.0
H350 H 0.04329 0.855 0.31122 0.0
H351 H 0.85324 0.8019 0.40775 0.0
H352 H 0.90479 0.79569 0.32259 0.0
H353 H 0.98779 0.83401 0.3981 0.0
C354 C 0.04574 0.85755 0.37492 0.0
C355 C 0.06249 0.86489 0.35039 0.0
C356 C 0.89344 0.79671 0.34131 0.0
C357 C 0.97073 0.82601 0.35852 0.0
C358 C 0.84935 0.78601 0.34474 0.0
C359 C 0.83401 0.78834 0.36866 0.0
C360 C 0.92253 0.80988 0.36193 0.0
C361 C 0.86365 0.79996 0.38892 0.0
C362 C 0.99994 0.83821 0.37905 0.0
C363 C 0.03198 0.85044 0.33046 0.0
N364 N 0.90651 0.8106 0.38508 0.0
N365 N 0.98775 0.83203 0.33495 0.0
H366 H 0.0933 0.8589 0.83266 0.0
H367 H 0.24544 0.09718 0.89731 0.0
H368 H 0.08823 0.88289 0.91155 0.0
H369 H 0.2269 0.07664 0.81751 0.0
H370 H 0.19884 0.01633 0.90362 0.0
H371 H 0.15363 0.93605 0.82771 0.0
C372 C 0.10528 0.88015 0.84902 0.0
C373 C 0.08528 0.8645 0.8725 0.0
C374 C 0.20537 0.02957 0.88473 0.0
C375 C 0.15421 0.95301 0.86693 0.0
C376 C 0.23208 0.07565 0.88113 0.0
C377 C 0.23964 0.09368 0.85687 0.0
C378 C 0.18652 1.00141 0.86391 0.0
C379 C 0.22149 0.06425 0.83656 0.0
C380 C 0.13961 0.92429 0.84616 0.0
C381 C 0.10232 0.89364 0.89303 0.0
N382 N 0.19566 0.01968 0.84054 0.0
N383 N 0.13554 0.93657 0.88974 0.0
H384 H 0.20474 0.26596 0.34015 0.0
H385 H 0.1532 0.04027 0.409 0.0
H386 H 0.10285 0.20047 0.39647 0.0
H387 H 0.22575 0.08652 0.33948 0.0
H388 H 0.14688 0.10715 0.41031 0.0
H389 H 0.22592 0.20945 0.34609 0.0
C390 C 0.18733 0.24021 0.35411 0.0
C391 C 0.15147 0.23756 0.36756 0.0
C392 C 0.16445 0.10277 0.39487 0.0
C393 C 0.17543 0.17267 0.37428 0.0
C394 C 0.16809 0.06463 0.3941 0.0
C395 C 0.18959 0.05754 0.37392 0.0
C396 C 0.18273 0.13425 0.37546 0.0
C397 C 0.20847 0.09038 0.35523 0.0
C398 C 0.1993 0.2078 0.35736 0.0
C399 C 0.13035 0.20353 0.38547 0.0
N400 N 0.20444 0.12724 0.35639 0.0
N401 N 0.14236 0.17213 0.38814 0.0
H402 H 0.18833 0.22997 0.82869 0.0
H403 H 0.94786 0.1342 0.89142 0.0
H404 H 0.16433 0.2081 0.90817 0.0
H405 H 0.97105 0.14057 0.81173 0.0
H406 H 0.02846 0.17189 0.89835 0.0
H407 H 0.11035 0.20813 0.82264 0.0
C408 C 0.16684 0.2211 0.84491 0.0
C409 C 0.18287 0.22047 0.86895 0.0
C410 C 0.01586 0.16539 0.87935 0.0
C411 C 0.09334 0.19511 0.86213 0.0
C412 C 0.96988 0.14404 0.87539 0.0
C413 C 0.95265 0.13382 0.85097 0.0
C414 C 0.04477 0.17675 0.85874 0.0
C415 C 0.98277 0.14732 0.8309 0.0
C416 C 0.12223 0.20847 0.84144 0.0
C417 C 0.15338 0.20872 0.88927 0.0
N418 N 0.02723 0.1678 0.83523 0.0
N419 N 0.11001 0.1962 0.88538 0.0
H420 H 0.93264 0.14985 0.32534 0.0
H421 H 0.77657 0.91699 0.39518 0.0
H422 H 0.93423 0.13248 0.40535 0.0
H423 H 0.7933 0.93237 0.31502 0.0
H424 H 0.82547 0.99794 0.39975 0.0
H425 H 0.87268 0.07237 0.32177 0.0
C426 C 0.92013 0.12991 0.3422 0.0
C427 C 0.93887 0.14766 0.36565 0.0
C428 C 0.81809 0.98355 0.38117 0.0
C429 C 0.87018 0.05865 0.36169 0.0
C430 C 0.79005 0.93741 0.37855 0.0
C431 C 0.7812 0.91785 0.3547 0.0
C432 C 0.83706 0.01023 0.35976 0.0
C433 C 0.79961 0.9459 0.33379 0.0
C434 C 0.88592 0.08558 0.34014 0.0
C435 C 0.92108 0.12014 0.38685 0.0
N436 N 0.82674 0.99052 0.33682 0.0
N437 N 0.88795 0.07696 0.38435 0.0
H438 H 0.80953 0.73294 0.86099 0.0
H439 H 0.86495 0.96831 0.91718 0.0
H440 H 0.92167 0.81323 0.90911 0.0
H441 H 0.78187 0.90794 0.85231 0.0
H442 H 0.8721 0.90234 0.92215 0.0
H443 H 0.78494 0.78708 0.8661 0.0
C444 C 0.82842 0.76137 0.87311 0.0
C445 C 0.86815 0.76901 0.88432 0.0
C446 C 0.85195 0.90338 0.90698 0.0
C447 C 0.8403 0.83102 0.89007 0.0
C448 C 0.84782 0.94101 0.90411 0.0
C449 C 0.82336 0.94395 0.88403 0.0
C450 C 0.83124 0.86828 0.88976 0.0
C451 C 0.80157 0.90734 0.86785 0.0
C452 C 0.81451 0.7924 0.87586 0.0
C453 C 0.8912 0.80639 0.89984 0.0
N454 N 0.80629 0.87111 0.87095 0.0
N455 N 0.8772 0.83629 0.90205 0.0
H456 H 0.15593 0.69155 0.11201 0.0
H457 H 0.1727 0.49316 0.04623 0.0
H458 H 0.16809 0.68212 0.03212 0.0
H459 H 0.17627 0.51264 0.12619 0.0
H460 H 0.1612 0.55666 0.04039 0.0
H461 H 0.15327 0.62031 0.11723 0.0
C462 C 0.15755 0.6743 0.09554 0.0
C463 C 0.16261 0.6931 0.07161 0.0
C464 C 0.16418 0.54678 0.05922 0.0
C465 C 0.15985 0.61152 0.07746 0.0
C466 C 0.1706 0.51044 0.06255 0.0
C467 C 0.17581 0.49774 0.08672 0.0
C468 C 0.16278 0.57045 0.0802 0.0
C469 C 0.17283 0.52143 0.10719 0.0
C470 C 0.15619 0.63366 0.09853 0.0
C471 C 0.1645 0.66911 0.05095 0.0
N472 N 0.16674 0.55666 0.10346 0.0
N473 N 0.16341 0.62977 0.05436 0.0
H474 H 0.69154 0.16081 0.55059 0.0
H475 H 0.47222 0.12759 0.61954 0.0
H476 H 0.67349 0.15279 0.63078 0.0
H477 H 0.49579 0.15214 0.54018 0.0
H478 H 0.54162 0.12648 0.62315 0.0
H479 H 0.6158 0.14766 0.5456 0.0
C480 C 0.67153 0.15579 0.56711 0.0
C481 C 0.68905 0.15828 0.59114 0.0
C482 C 0.53146 0.13179 0.6049 0.0
C483 C 0.60249 0.14333 0.5856 0.0
C484 C 0.49172 0.13229 0.60282 0.0
C485 C 0.47827 0.14035 0.57956 0.0
C486 C 0.55804 0.13937 0.58358 0.0
C487 C 0.50495 0.14613 0.55854 0.0
C488 C 0.62835 0.14844 0.56427 0.0
C489 C 0.66158 0.15158 0.61189 0.0
N490 N 0.54365 0.14582 0.56107 0.0
N491 N 0.61988 0.14464 0.60865 0.0
H492 H 0.51895 0.69735 0.13682 0.0
H493 H 0.35875 0.52061 0.03542 0.0
H494 H 0.54458 0.71456 0.05733 0.0
H495 H 0.34217 0.49824 0.11523 0.0
H496 H 0.42945 0.58912 0.04289 0.0
H497 H 0.45701 0.62229 0.1292 0.0
C498 C 0.51177 0.68522 0.11774 0.0
C499 C 0.53684 0.71248 0.09766 0.0
C500 C 0.41059 0.56903 0.05877 0.0
C501 C 0.46546 0.62634 0.08876 0.0
C502 C 0.37016 0.52985 0.05452 0.0
C503 C 0.34423 0.50379 0.07474 0.0
C504 C 0.42514 0.58252 0.08343 0.0
C505 C 0.36091 0.51734 0.09907 0.0
C506 C 0.47635 0.64224 0.11341 0.0
C507 C 0.52611 0.69476 0.07336 0.0
N508 N 0.40005 0.55597 0.10273 0.0
N509 N 0.49093 0.65296 0.06957 0.0
H510 H 0.81998 0.49865 0.63822 0.0
H511 H 0.85396 0.34622 0.53963 0.0
H512 H 0.83758 0.52716 0.55898 0.0
H513 H 0.84974 0.32646 0.61965 0.0
H514 H 0.85303 0.41521 0.5464 0.0
H515 H 0.83548 0.43837 0.63191 0.0
C516 C 0.8274 0.49243 0.61947 0.0
C517 C 0.82713 0.51785 0.59905 0.0
C518 C 0.85275 0.39605 0.5625 0.0
C519 C 0.84471 0.4484 0.59166 0.0
C520 C 0.85329 0.3566 0.55866 0.0
C521 C 0.85156 0.33024 0.5791 0.0
C522 C 0.8501 0.40921 0.58698 0.0
C523 C 0.85098 0.34558 0.60332 0.0
C524 C 0.83633 0.45797 0.61589 0.0
C525 C 0.83731 0.50838 0.57524 0.0
N526 N 0.8498 0.38379 0.60656 0.0
N527 N 0.84528 0.47415 0.57217 0.0
H528 H 0.5171 0.86271 0.03661 0.0
H529 H 0.34179 0.87447 0.12753 0.0
H530 H 0.53836 0.88978 0.11583 0.0
H531 H 0.32359 0.85822 0.0475 0.0
H532 H 0.41646 0.88609 0.12284 0.0
H533 H 0.44923 0.86679 0.03941 0.0
C534 C 0.50778 0.86997 0.05456 0.0
C535 C 0.53334 0.87551 0.07608 0.0
C536 C 0.3964 0.88038 0.10623 0.0
C537 C 0.45538 0.87996 0.07942 0.0
C538 C 0.35365 0.87369 0.1089 0.0
C539 C 0.32621 0.86496 0.08788 0.0
C540 C 0.41191 0.87789 0.08239 0.0
C541 C 0.34359 0.86477 0.0642 0.0
C542 C 0.46896 0.87228 0.05613 0.0
C543 C 0.51965 0.88504 0.09878 0.0
N544 N 0.38518 0.87061 0.06212 0.0
N545 N 0.48144 0.88655 0.09988 0.0
H546 H 0.65509 0.51837 0.62055 0.0
H547 H 0.46225 0.29592 0.55628 0.0
H548 H 0.65111 0.49084 0.54148 0.0
H549 H 0.48122 0.31554 0.63614 0.0
H550 H 0.524 0.37228 0.54976 0.0
H551 H 0.58386 0.44939 0.62571 0.0
C552 C 0.63902 0.49811 0.60421 0.0
C553 C 0.6594 0.51019 0.58059 0.0
C554 C 0.51433 0.35993 0.5687 0.0
C555 C 0.57785 0.43095 0.5864 0.0
C556 C 0.479 0.31643 0.57243 0.0
C557 C 0.46685 0.29919 0.59678 0.0
C558 C 0.5374 0.38637 0.58948 0.0
C559 C 0.48974 0.32726 0.61702 0.0
C560 C 0.59839 0.45861 0.60719 0.0
C561 C 0.63685 0.48263 0.56009 0.0
N562 N 0.52399 0.36929 0.61291 0.0
N563 N 0.59747 0.44414 0.5635 0.0
H564 H 0.34039 0.8337 0.42303 0.0
H565 H 0.53013 0.85031 0.33238 0.0
H566 H 0.36014 0.88294 0.34706 0.0
H567 H 0.52317 0.81697 0.41078 0.0
H568 H 0.47034 0.86635 0.33842 0.0
H569 H 0.40909 0.83096 0.42 0.0
C570 C 0.35932 0.84429 0.40578 0.0
C571 C 0.3442 0.85824 0.38519 0.0
C572 C 0.48204 0.85592 0.35441 0.0
C573 C 0.42281 0.85499 0.38158 0.0
C574 C 0.51623 0.84671 0.35096 0.0
C575 C 0.53148 0.83197 0.37107 0.0
C576 C 0.46235 0.84986 0.37811 0.0
C577 C 0.51242 0.82826 0.39476 0.0
C578 C 0.39858 0.84275 0.40408 0.0
C579 C 0.37026 0.87171 0.36337 0.0
N580 N 0.47845 0.83664 0.39758 0.0
N581 N 0.408 0.86941 0.3621 0.0
H582 H 0.73818 0.53858 0.89672 0.0
H583 H 0.50348 0.35439 0.8397 0.0
H584 H 0.71328 0.51289 0.81757 0.0
H585 H 0.53368 0.36993 0.91875 0.0
H586 H 0.57669 0.41943 0.83129 0.0
H587 H 0.66012 0.48404 0.90506 0.0
C588 C 0.71624 0.52182 0.88106 0.0
C589 C 0.73251 0.53009 0.8564 0.0
C590 C 0.56714 0.40883 0.85049 0.0
C591 C 0.64296 0.46736 0.86586 0.0
C592 C 0.52524 0.37177 0.85532 0.0
C593 C 0.51251 0.35638 0.87997 0.0
C594 C 0.59654 0.43077 0.87043 0.0
C595 C 0.54216 0.38033 0.89944 0.0
C596 C 0.67165 0.49057 0.88585 0.0
C597 C 0.70237 0.50739 0.83689 0.0
N598 N 0.58284 0.41609 0.89424 0.0
N599 N 0.65919 0.4769 0.84204 0.0
H600 H 0.15583 0.72033 0.39656 0.0
H601 H 0.12199 0.49567 0.33504 0.0
H602 H 0.16989 0.70359 0.31765 0.0
H603 H 0.13439 0.52018 0.41472 0.0
H604 H 0.12488 0.56652 0.3285 0.0
H605 H 0.13335 0.64199 0.40344 0.0
C606 C 0.15349 0.70002 0.38063 0.0
C607 C 0.16522 0.71861 0.35652 0.0
C608 C 0.12661 0.55626 0.34744 0.0
C609 C 0.13973 0.62923 0.36428 0.0
C610 C 0.12489 0.51573 0.35121 0.0
C611 C 0.12855 0.5022 0.37546 0.0
C612 C 0.13202 0.58358 0.36803 0.0
C613 C 0.13188 0.52949 0.39568 0.0
C614 C 0.14088 0.6554 0.38459 0.0
C615 C 0.16163 0.69077 0.33658 0.0
N616 N 0.13393 0.5691 0.3915 0.0
N617 N 0.14951 0.64759 0.34094 0.0
H618 H 0.66813 0.1643 0.922 0.0
H619 H 0.4876 0.16489 0.83018 0.0
H620 H 0.65363 0.1259 0.84418 0.0
H621 H 0.48905 0.1873 0.90972 0.0
H622 H 0.54584 0.14648 0.83579 0.0
H623 H 0.60059 0.16913 0.9188 0.0
C624 C 0.65059 0.15653 0.90429 0.0
C625 C 0.66684 0.14502 0.88327 0.0
C626 C 0.53326 0.15502 0.8521 0.0
C627 C 0.5896 0.15068 0.87947 0.0
C628 C 0.49996 0.1656 0.8489 0.0
C629 C 0.48365 0.17799 0.86949 0.0
C630 C 0.55097 0.15731 0.87606 0.0
C631 C 0.5007 0.17796 0.89333 0.0
C632 C 0.61198 0.15926 0.9025 0.0
C633 C 0.64256 0.13514 0.86086 0.0
N634 N 0.53384 0.16829 0.89594 0.0
N635 N 0.60545 0.13855 0.85952 0.0
H636 H 0.28251 0.46357 0.39799 0.0
H637 H 0.5128 0.65645 0.34041 0.0
H638 H 0.30282 0.49884 0.31959 0.0
H639 H 0.48551 0.63732 0.41972 0.0
H640 H 0.44003 0.59074 0.33223 0.0
H641 H 0.36067 0.5191 0.40596 0.0
C642 C 0.30349 0.48257 0.38241 0.0
C643 C 0.28593 0.47678 0.35811 0.0
C644 C 0.45013 0.6007 0.35144 0.0
C645 C 0.37537 0.54043 0.36711 0.0
C646 C 0.49179 0.63814 0.35613 0.0
C647 C 0.5052 0.65273 0.38079 0.0
C648 C 0.42163 0.57748 0.37153 0.0
C649 C 0.47647 0.62756 0.40039 0.0
C650 C 0.34807 0.51439 0.38699 0.0
C651 C 0.31474 0.50241 0.33866 0.0
N652 N 0.43599 0.59138 0.39534 0.0
N653 N 0.35788 0.5332 0.3436 0.0
H654 H 0.92797 0.49854 0.89999 0.0
H655 H 0.82041 0.28686 0.81032 0.0
H656 H 0.87735 0.49756 0.82597 0.0
H657 H 0.87584 0.28856 0.88296 0.0
H658 H 0.85031 0.36702 0.81346 0.0
H659 H 0.91851 0.42511 0.89193 0.0
C660 C 0.9154 0.48316 0.88192 0.0
C661 C 0.90281 0.50395 0.86376 0.0
C662 C 0.85641 0.35001 0.82861 0.0
C663 C 0.89163 0.41978 0.85448 0.0
C664 C 0.8393 0.30419 0.82683 0.0
C665 C 0.84508 0.28089 0.84658 0.0
C666 C 0.87913 0.37269 0.8504 0.0
C667 C 0.87029 0.30515 0.86738 0.0
C668 C 0.90999 0.4412 0.87733 0.0
C669 C 0.88705 0.48259 0.84062 0.0
N670 N 0.88588 0.34967 0.8689 0.0
N671 N 0.88141 0.44145 0.83676 0.0
H672 H 0.19373 0.38921 0.29321 0.0
H673 H 0.12194 0.34752 0.14991 0.0
H674 H 0.05848 0.29874 0.27008 0.0
H675 H 0.25265 0.37996 0.17524 0.0
H676 H 0.09902 0.34386 0.19365 0.0
H677 H 0.21668 0.40042 0.24929 0.0
C678 C 0.16883 0.37206 0.27886 0.0
C679 C 0.12418 0.34297 0.28518 0.0
C680 C 0.13274 0.352 0.18953 0.0
C681 C 0.15013 0.35578 0.23518 0.0
C682 C 0.1459 0.35436 0.16468 0.0
C683 C 0.18916 0.36389 0.15912 0.0
C684 C 0.16337 0.36004 0.20875 0.0
C685 C 0.21889 0.37218 0.17885 0.0
C686 C 0.18198 0.37828 0.25389 0.0
C687 C 0.09329 0.3212 0.26593 0.0
N688 N 0.20546 0.37018 0.20288 0.0
N689 N 0.10684 0.32816 0.24168 0.0
H690 H 0.78296 0.10611 0.65298 0.0
H691 H 0.82215 0.17699 0.79655 0.0
H692 H 0.88579 0.23538 0.67856 0.0
H693 H 0.77197 0.04111 0.77303 0.0
H694 H 0.82918 0.19972 0.75271 0.0
H695 H 0.76285 0.0829 0.69673 0.0
C696 C 0.80085 0.12973 0.66781 0.0
C697 C 0.83624 0.17259 0.66233 0.0
C698 C 0.81617 0.16487 0.75719 0.0
C699 C 0.81324 0.14653 0.71192 0.0
C700 C 0.81176 0.15182 0.78215 0.0
C701 C 0.79631 0.10714 0.78831 0.0
C702 C 0.80465 0.1329 0.73834 0.0
C703 C 0.78424 0.07595 0.76895 0.0
C704 C 0.78953 0.11641 0.69265 0.0
C705 C 0.85858 0.20191 0.68211 0.0
N706 N 0.78869 0.08945 0.7447 0.0
N707 N 0.84666 0.18833 0.7061 0.0
H708 H 0.68727 0.93192 0.18678 0.0
H709 H 0.65506 0.74296 0.28261 0.0
H710 H 0.64555 0.79708 0.1642 0.0
H711 H 0.65402 0.86144 0.30568 0.0
H712 H 0.65504 0.7638 0.23895 0.0
H713 H 0.67882 0.90839 0.23058 0.0
C714 C 0.67624 0.89737 0.19103 0.0
C715 C 0.66737 0.86646 0.17185 0.0
C716 C 0.65449 0.78507 0.25357 0.0
C717 C 0.6578 0.8395 0.22175 0.0
C718 C 0.65468 0.7733 0.27846 0.0
C719 C 0.65479 0.80067 0.29773 0.0
C720 C 0.65501 0.82477 0.24793 0.0
C721 C 0.65395 0.83942 0.29135 0.0
C722 C 0.67123 0.88396 0.216 0.0
C723 C 0.65287 0.82206 0.17839 0.0
N724 N 0.65452 0.85058 0.26692 0.0
N725 N 0.64888 0.80999 0.20284 0.0
H726 H 0.79503 0.71023 0.67996 0.0
H727 H 0.86849 0.60955 0.79089 0.0
H728 H 0.82772 0.60757 0.6667 0.0
H729 H 0.90647 0.7485 0.78786 0.0
H730 H 0.8383 0.59992 0.74832 0.0
H731 H 0.82027 0.71586 0.72326 0.0
C732 C 0.80704 0.68853 0.68624 0.0
C733 C 0.80947 0.65846 0.66977 0.0
C734 C 0.85329 0.63242 0.75708 0.0
C735 C 0.83788 0.66459 0.71909 0.0
C736 C 0.87031 0.63792 0.78128 0.0
C737 C 0.89011 0.67993 0.79272 0.0
C738 C 0.85526 0.66895 0.74464 0.0
C739 C 0.89181 0.71568 0.77954 0.0
C740 C 0.82164 0.69199 0.71084 0.0
C741 C 0.82556 0.63133 0.67882 0.0
N742 N 0.87429 0.70931 0.7562 0.0
N743 N 0.83906 0.63489 0.703 0.0
H744 H 0.12436 0.77542 0.17126 0.0
H745 H 0.24614 0.95913 0.27342 0.0
H746 H 0.23407 0.90557 0.15207 0.0
H747 H 0.18843 0.8193 0.29082 0.0
H748 H 0.23988 0.94115 0.22878 0.0
H749 H 0.14485 0.79105 0.21544 0.0
C750 C 0.15296 0.80715 0.17638 0.0
C751 C 0.17738 0.83945 0.15816 0.0
C752 C 0.22923 0.91454 0.24242 0.0
C753 C 0.20057 0.85763 0.2084 0.0
C754 C 0.23251 0.92471 0.26781 0.0
C755 C 0.21758 0.89056 0.28573 0.0
C756 C 0.20994 0.86988 0.23499 0.0
C757 C 0.20048 0.84657 0.27757 0.0
C758 C 0.16477 0.81592 0.20151 0.0
C759 C 0.21439 0.87985 0.16564 0.0
N760 N 0.19646 0.83735 0.2527 0.0
N761 N 0.22448 0.88815 0.19033 0.0
H762 H 0.35987 0.26963 0.78241 0.0
H763 H 0.32652 0.08176 0.68593 0.0
H764 H 0.36312 0.15166 0.80445 0.0
H765 H 0.36095 0.21488 0.66335 0.0
H766 H 0.33765 0.10569 0.7296 0.0
H767 H 0.35837 0.24926 0.7386 0.0
C768 C 0.36044 0.23952 0.778 0.0
C769 C 0.36129 0.21209 0.79703 0.0
C770 C 0.34305 0.1297 0.71506 0.0
C771 C 0.35936 0.18853 0.74705 0.0
C772 C 0.3365 0.11604 0.69016 0.0
C773 C 0.3425 0.14632 0.67102 0.0
C774 C 0.3552 0.17378 0.72083 0.0
C775 C 0.3558 0.1904 0.67752 0.0
C776 C 0.35976 0.22802 0.75301 0.0
C777 C 0.3624 0.17368 0.79031 0.0
N778 N 0.36137 0.20273 0.70194 0.0
N779 N 0.36096 0.16277 0.76581 0.0
H780 H 0.39042 0.34315 0.92567 0.0
H781 H 0.18979 0.28369 0.01794 0.0
H782 H 0.28787 0.20733 0.93986 0.0
H783 H 0.32047 0.397 0.03044 0.0
H784 H 0.22007 0.26 -0.0165 0.0
H785 H 0.36169 0.36776 0.96016 0.0
C786 C 0.36252 0.3185 0.93658 0.0
C787 C 0.34182 0.27324 0.93045 0.0
C788 C 0.24186 0.29037 -0.0064 0.0
C789 C 0.30758 0.30106 0.96875 0.0
C790 C 0.22449 0.30424 0.01281 0.0
C791 C 0.25275 0.3426 0.0265 0.0
C792 C 0.28749 0.31553 -0.01193 0.0
C793 C 0.29774 0.36754 0.01991 0.0
C794 C 0.34593 0.3325 0.956 0.0
C795 C 0.30516 0.24244 0.94454 0.0
N796 N 0.31381 0.35363 0.00107 0.0
N797 N 0.28865 0.25701 0.96292 0.0
H798 H 0.10209 0.3449 0.43968 0.0
H799 H 0.86519 0.20507 0.50714 0.0
H800 H 0.97745 0.28057 0.3994 0.0
H801 H 0.99113 0.27607 0.54589 0.0
H802 H 0.90494 0.23166 0.46721 0.0
H803 H 0.06106 0.31911 0.47892 0.0
C804 C 0.0661 0.32539 0.43909 0.0
C805 C 0.04319 0.31479 0.41626 0.0
C806 C 0.9237 0.24138 0.48452 0.0
C807 C 0.99594 0.28511 0.46105 0.0
C808 C 0.90105 0.22621 0.50726 0.0
C809 C 0.92482 0.23829 0.52986 0.0
C810 C 0.97029 0.26866 0.48453 0.0
C811 C 0.97129 0.26583 0.52897 0.0
C812 C 0.04264 0.31066 0.46149 0.0
C813 C 0.99649 0.28947 0.4166 0.0
N814 N 0.99241 0.27996 0.50672 0.0
N815 N 0.97436 0.27539 0.43867 0.0
H816 H 0.73314 0.01101 0.05197 0.0
H817 H 0.74414 0.98682 0.90462 0.0
H818 H 0.69142 0.88473 0.01591 0.0
H819 H 0.80139 0.1131 0.94317 0.0
H820 H 0.72736 0.94868 0.94495 0.0
H821 H 0.76008 0.04855 0.01211 0.0
C822 C 0.72958 0.99107 0.03562 0.0
C823 C 0.70976 0.94455 0.03724 0.0
C824 C 0.7439 0.98473 0.94457 0.0
C825 C 0.74061 0.98763 -0.00865 0.0
C826 C 0.75353 0.00658 0.92157 0.0
C827 C 0.77386 0.05323 0.92057 0.0
C828 C 0.75427 0.00969 0.96669 0.0
C829 C 0.78538 0.07709 0.94308 0.0
C830 C 0.74522 0.01266 0.01284 0.0
C831 C 0.70636 0.92063 0.01544 0.0
N832 N 0.77505 0.05498 0.96525 0.0
N833 N 0.72143 0.94248 -0.00673 0.0
H834 H 0.69419 0.61134 0.53244 0.0
H835 H 0.71769 0.80605 0.44473 0.0
H836 H 0.81532 0.73873 0.52924 0.0
H837 H 0.64022 0.6683 0.4224 0.0
H838 H 0.7454 0.7832 0.48093 0.0
H839 H 0.66684 0.63205 0.49538 0.0
C840 C 0.7154 0.64317 0.52341 0.0
C841 C 0.75721 0.67319 0.53332 0.0
C842 C 0.722 0.75807 0.46817 0.0
C843 C 0.72553 0.69794 0.49224 0.0
C844 C 0.70573 0.77098 0.44787 0.0
C845 C 0.67654 0.73883 0.43089 0.0
C846 C 0.70816 0.71278 0.47153 0.0
C847 C 0.66264 0.69389 0.43527 0.0
C848 C 0.6997 0.65514 0.50255 0.0
C849 C 0.78316 0.7146 0.52168 0.0
N850 N 0.67848 0.68209 0.45526 0.0
N851 N 0.76661 0.72615 0.50184 0.0
H852 H 0.91233 0.67663 0.93802 0.0
H853 H 0.15151 0.8161 0.00232 0.0
H854 H 0.035 0.72719 0.89675 0.0
H855 H 0.02608 0.77127 0.03989 0.0
H856 H 0.11096 0.78889 0.96257 0.0
H857 H 0.95486 0.71635 0.97499 0.0
C858 C 0.94826 0.69635 0.93676 0.0
C859 C 0.97028 0.69864 0.91444 0.0
C860 C 0.09255 0.78547 0.97956 0.0
C861 C 0.01933 0.74378 0.95665 0.0
C862 C 0.11566 0.80097 0.00219 0.0
C863 C 0.09216 0.79553 0.02448 0.0
C864 C 0.04585 0.76453 0.97944 0.0
C865 C 0.0457 0.77581 0.02327 0.0
C866 C 0.9726 0.71912 0.95782 0.0
C867 C 0.01686 0.72476 0.9137 0.0
N868 N 0.02418 0.76086 0.00122 0.0
N869 N 0.03998 0.7461 0.93461 0.0
H870 H 0.27597 0.02228 0.40385 0.0
H871 H 0.28284 0.99845 0.55204 0.0
H872 H 0.22578 0.89644 0.44244 0.0
H873 H 0.32441 0.12405 0.51483 0.0
H874 H 0.26322 0.96119 0.51181 0.0
H875 H 0.29477 0.06043 0.44406 0.0
C876 C 0.26891 1.00262 0.4208 0.0
C877 C 0.2494 0.95605 0.41982 0.0
C878 C 0.27661 0.99688 0.51237 0.0
C879 C 0.27098 0.99966 0.46586 0.0
C880 C 0.28798 0.01832 0.53537 0.0
C881 C 0.30532 0.06455 0.5368 0.0
C882 C 0.28273 0.02175 0.49053 0.0
C883 C 0.31114 0.08838 0.51455 0.0
C884 C 0.27962 0.02449 0.44374 0.0
C885 C 0.2408 0.93235 0.44235 0.0
N886 N 0.29985 0.06664 0.49225 0.0
N887 N 0.25179 0.95448 0.46448 0.0
loop_
_geom_bond_atom_site_label_1
_geom_bond_atom_site_label_2
_geom_bond_distance
_geom_bond_site_symmetry_2
_ccdc_geom_bond_type
Zn0 O6 1.969 . S
Zn0 O7 1.965 . S
Zn0 O11 2.024 . S
Zn0 O16 1.969 . S
Zn1 O8 1.969 . S
Zn1 O14 1.969 . S
Zn1 O15 1.965 . S
Zn1 O17 2.024 . S
C2 O3 1.229 . S
C2 O11 1.058 . S
O3 C2 1.229 . S
C4 O5 1.229 . S
C4 O17 1.058 . S
O5 C4 1.229 . S
O6 Zn0 1.969 . S
O6 C9 1.267 . S
O7 Zn0 1.965 . S
O7 C18 1.260 . S
O8 Zn1 1.969 . S
O8 C18 1.258 . S
C9 O6 1.267 . S
C9 O10 1.228 . S
O10 C9 1.228 . S
O11 Zn0 2.024 . S
O11 C2 1.058 . S
C12 O13 1.228 . S
C12 O14 1.267 . S
O13 C12 1.228 . S
O14 Zn1 1.969 . S
O14 C12 1.267 . S
O15 Zn1 1.965 . S
O15 C19 1.260 . S
O16 Zn0 1.969 . S
O16 C19 1.258 . S
O17 Zn1 2.024 . S
O17 C4 1.058 . S
C18 O7 1.260 . S
C18 O8 1.258 . S
C19 O15 1.260 . S
C19 O16 1.258 . S
Zn20 O26 1.969 . S
Zn20 O27 1.965 . S
Zn20 O31 2.024 . S
Zn20 O36 1.969 . S
Zn21 O28 1.969 . S
Zn21 O34 1.969 . S
Zn21 O35 1.965 . S
Zn21 O37 2.024 . S
C22 O23 1.229 . S
C22 O31 1.058 . S
O23 C22 1.229 . S
C24 O25 1.229 . S
C24 O37 1.058 . S
O25 C24 1.229 . S
O26 Zn20 1.969 . S
O26 C29 1.267 . S
O27 Zn20 1.965 . S
O27 C38 1.260 . S
O28 Zn21 1.969 . S
O28 C38 1.258 . S
C29 O26 1.267 . S
C29 O30 1.228 . S
O30 C29 1.228 . S
O31 Zn20 2.024 . S
O31 C22 1.058 . S
C32 O33 1.228 . S
C32 O34 1.267 . S
O33 C32 1.228 . S
O34 Zn21 1.969 . S
O34 C32 1.267 . S
O35 Zn21 1.965 . S
O35 C39 1.260 . S
O36 Zn20 1.969 . S
O36 C39 1.258 . S
O37 Zn21 2.024 . S
O37 C24 1.058 . S
C38 O27 1.260 . S
C38 O28 1.258 . S
C39 O35 1.260 . S
C39 O36 1.258 . S
Zn40 O46 1.969 . S
Zn40 O47 1.965 . S
Zn40 O51 2.024 . S
Zn40 O56 1.969 . S
Zn41 O48 1.969 . S
Zn41 O54 1.969 . S
Zn41 O55 1.965 . S
Zn41 O57 2.024 . S
C42 O43 1.229 . S
C42 O51 1.058 . S
O43 C42 1.229 . S
C44 O45 1.229 . S
C44 O57 1.058 . S
O45 C44 1.229 . S
O46 Zn40 1.969 . S
O46 C49 1.267 . S
O47 Zn40 1.965 . S
O47 C58 1.260 . S
O48 Zn41 1.969 . S
O48 C58 1.258 . S
C49 O46 1.267 . S
C49 O50 1.228 . S
O50 C49 1.228 . S
O51 Zn40 2.024 . S
O51 C42 1.058 . S
C52 O53 1.228 . S
C52 O54 1.267 . S
O53 C52 1.228 . S
O54 Zn41 1.969 . S
O54 C52 1.267 . S
O55 Zn41 1.965 . S
O55 C59 1.260 . S
O56 Zn40 1.969 . S
O56 C59 1.258 . S
O57 Zn41 2.024 . S
O57 C44 1.058 . S
C58 O47 1.260 . S
C58 O48 1.258 . S
C59 O55 1.260 . S
C59 O56 1.258 . S
Zn60 O66 1.969 . S
Zn60 O67 1.965 . S
Zn60 O71 2.024 . S
Zn60 O76 1.969 . S
Zn61 O68 1.969 . S
Zn61 O74 1.969 . S
Zn61 O75 1.965 . S
Zn61 O77 2.024 . S
C62 O63 1.229 . S
C62 O71 1.058 . S
O63 C62 1.229 . S
C64 O65 1.229 . S
C64 O77 1.058 . S
O65 C64 1.229 . S
O66 Zn60 1.969 . S
O66 C69 1.267 . S
O67 Zn60 1.965 . S
O67 C78 1.260 . S
O68 Zn61 1.969 . S
O68 C78 1.258 . S
C69 O66 1.267 . S
C69 O70 1.228 . S
O70 C69 1.228 . S
O71 Zn60 2.024 . S
O71 C62 1.058 . S
C72 O73 1.228 . S
C72 O74 1.267 . S
O73 C72 1.228 . S
O74 Zn61 1.969 . S
O74 C72 1.267 . S
O75 Zn61 1.965 . S
O75 C79 1.260 . S
O76 Zn60 1.969 . S
O76 C79 1.258 . S
O77 Zn61 2.024 . S
O77 C64 1.058 . S
C78 O67 1.260 . S
C78 O68 1.258 . S
C79 O75 1.260 . S
C79 O76 1.258 . S
Zn80 O86 1.969 . S
Zn80 O87 1.965 . S
Zn80 O91 2.024 . S
Zn80 O96 1.969 . S
Zn81 O88 1.969 . S
Zn81 O94 1.969 . S
Zn81 O95 1.965 . S
Zn81 O97 2.024 . S
C82 O83 1.229 . S
C82 O91 1.058 . S
O83 C82 1.229 . S
C84 O85 1.229 . S
C84 O97 1.058 . S
O85 C84 1.229 . S
O86 Zn80 1.969 . S
O86 C89 1.267 . S
O87 Zn80 1.965 . S
O87 C98 1.260 . S
O88 Zn81 1.969 . S
O88 C98 1.258 . S
C89 O86 1.267 . S
C89 O90 1.228 . S
O90 C89 1.228 . S
O91 Zn80 2.024 . S
O91 C82 1.058 . S
C92 O93 1.228 . S
C92 O94 1.267 . S
O93 C92 1.228 . S
O94 Zn81 1.969 . S
O94 C92 1.267 . S
O95 Zn81 1.965 . S
O95 C99 1.260 . S
O96 Zn80 1.969 . S
O96 C99 1.258 . S
O97 Zn81 2.024 . S
O97 C84 1.058 . S
C98 O87 1.260 . S
C98 O88 1.258 . S
C99 O95 1.260 . S
C99 O96 1.258 . S
Zn100 O106 1.969 . S
Zn100 O107 1.965 . S
Zn100 O111 2.024 . S
Zn100 O116 1.969 . S
Zn101 O108 1.969 . S
Zn101 O114 1.969 . S
Zn101 O115 1.965 . S
Zn101 O117 2.024 . S
C102 O103 1.229 . S
C102 O111 1.058 . S
O103 C102 1.229 . S
C104 O105 1.229 . S
C104 O117 1.058 . S
O105 C104 1.229 . S
O106 Zn100 1.969 . S
O106 C109 1.267 . S
O107 Zn100 1.965 . S
O107 C118 1.260 . S
O108 Zn101 1.969 . S
O108 C118 1.258 . S
C109 O106 1.267 . S
C109 O110 1.228 . S
O110 C109 1.228 . S
O111 Zn100 2.024 . S
O111 C102 1.058 . S
C112 O113 1.228 . S
C112 O114 1.267 . S
O113 C112 1.228 . S
O114 Zn101 1.969 . S
O114 C112 1.267 . S
O115 Zn101 1.965 . S
O115 C119 1.260 . S
O116 Zn100 1.969 . S
O116 C119 1.258 . S
O117 Zn101 2.024 . S
O117 C104 1.058 . S
C118 O107 1.260 . S
C118 O108 1.258 . S
C119 O115 1.260 . S
C119 O116 1.258 . S
Zn120 O126 1.969 . S
Zn120 O127 1.965 . S
Zn120 O131 2.024 . S
Zn120 O136 1.969 . S
Zn121 O128 1.969 . S
Zn121 O134 1.969 . S
Zn121 O135 1.965 . S
Zn121 O137 2.024 . S
C122 O123 1.229 . S
C122 O131 1.058 . S
O123 C122 1.229 . S
C124 O125 1.229 . S
C124 O137 1.058 . S
O125 C124 1.229 . S
O126 Zn120 1.969 . S
O126 C129 1.267 . S
O127 Zn120 1.965 . S
O127 C138 1.260 . S
O128 Zn121 1.969 . S
O128 C138 1.258 . S
C129 O126 1.267 . S
C129 O130 1.228 . S
O130 C129 1.228 . S
O131 Zn120 2.024 . S
O131 C122 1.058 . S
C132 O133 1.228 . S
C132 O134 1.267 . S
O133 C132 1.228 . S
O134 Zn121 1.969 . S
O134 C132 1.267 . S
O135 Zn121 1.965 . S
O135 C139 1.260 . S
O136 Zn120 1.969 . S
O136 C139 1.258 . S
O137 Zn121 2.024 . S
O137 C124 1.058 . S
C138 O127 1.260 . S
C138 O128 1.258 . S
C139 O135 1.260 . S
C139 O136 1.258 . S
Zn140 O146 1.969 . S
Zn140 O147 1.965 . S
Zn140 O151 2.024 . S
Zn140 O156 1.969 . S
Zn141 O148 1.969 . S
Zn141 O154 1.969 . S
Zn141 O155 1.965 . S
Zn141 O157 2.024 . S
C142 O143 1.229 . S
C142 O151 1.058 . S
O143 C142 1.229 . S
C144 O145 1.229 . S
C144 O157 1.058 . S
O145 C144 1.229 . S
O146 Zn140 1.969 . S
O146 C149 1.267 . S
O147 Zn140 1.965 . S
O147 C158 1.260 . S
O148 Zn141 1.969 . S
O148 C158 1.258 . S
C149 O146 1.267 . S
C149 O150 1.228 . S
O150 C149 1.228 . S
O151 Zn140 2.024 . S
O151 C142 1.058 . S
C152 O153 1.228 . S
C152 O154 1.267 . S
O153 C152 1.228 . S
O154 Zn141 1.969 . S
O154 C152 1.267 . S
O155 Zn141 1.965 . S
O155 C159 1.260 . S
O156 Zn140 1.969 . S
O156 C159 1.258 . S
O157 Zn141 2.024 . S
O157 C144 1.058 . S
C158 O147 1.260 . S
C158 O148 1.258 . S
C159 O155 1.260 . S
C159 O156 1.258 . S
Zn160 O166 1.969 . S
Zn160 O167 1.965 . S
Zn160 O171 2.024 . S
Zn160 O176 1.969 . S
Zn161 O168 1.969 . S
Zn161 O174 1.969 . S
Zn161 O175 1.965 . S
Zn161 O177 2.024 . S
C162 O163 1.229 . S
C162 O171 1.058 . S
O163 C162 1.229 . S
C164 O165 1.229 . S
C164 O177 1.058 . S
O165 C164 1.229 . S
O166 Zn160 1.969 . S
O166 C169 1.267 . S
O167 Zn160 1.965 . S
O167 C178 1.260 . S
O168 Zn161 1.969 . S
O168 C178 1.258 . S
C169 O166 1.267 . S
C169 O170 1.228 . S
O170 C169 1.228 . S
O171 Zn160 2.024 . S
O171 C162 1.058 . S
C172 O173 1.228 . S
C172 O174 1.267 . S
O173 C172 1.228 . S
O174 Zn161 1.969 . S
O174 C172 1.267 . S
O175 Zn161 1.965 . S
O175 C179 1.260 . S
O176 Zn160 1.969 . S
O176 C179 1.258 . S
O177 Zn161 2.024 . S
O177 C164 1.058 . S
C178 O167 1.260 . S
C178 O168 1.258 . S
C179 O175 1.260 . S
C179 O176 1.258 . S
Zn180 O186 1.969 . S
Zn180 O187 1.965 . S
Zn180 O191 2.024 . S
Zn180 O196 1.969 . S
Zn181 O188 1.969 . S
Zn181 O194 1.969 . S
Zn181 O195 1.965 . S
Zn181 O197 2.024 . S
C182 O183 1.229 . S
C182 O191 1.058 . S
O183 C182 1.229 . S
C184 O185 1.229 . S
C184 O197 1.058 . S
O185 C184 1.229 . S
O186 Zn180 1.969 . S
O186 C189 1.267 . S
O187 Zn180 1.965 . S
O187 C198 1.260 . S
O188 Zn181 1.969 . S
O188 C198 1.258 . S
C189 O186 1.267 . S
C189 O190 1.228 . S
O190 C189 1.228 . S
O191 Zn180 2.024 . S
O191 C182 1.058 . S
C192 O193 1.228 . S
C192 O194 1.267 . S
O193 C192 1.228 . S
O194 Zn181 1.969 . S
O194 C192 1.267 . S
O195 Zn181 1.965 . S
O195 C199 1.260 . S
O196 Zn180 1.969 . S
O196 C199 1.258 . S
O197 Zn181 2.024 . S
O197 C184 1.058 . S
C198 O187 1.260 . S
C198 O188 1.258 . S
C199 O195 1.260 . S
C199 O196 1.258 . S
Zn200 O206 1.969 . S
Zn200 O207 1.965 . S
Zn200 O211 2.024 . S
Zn200 O216 1.969 . S
Zn201 O208 1.969 . S
Zn201 O214 1.969 . S
Zn201 O215 1.965 . S
Zn201 O217 2.024 . S
C202 O203 1.229 . S
C202 O211 1.058 . S
O203 C202 1.229 . S
C204 O205 1.229 . S
C204 O217 1.058 . S
O205 C204 1.229 . S
O206 Zn200 1.969 . S
O206 C209 1.267 . S
O207 Zn200 1.965 . S
O207 C218 1.260 . S
O208 Zn201 1.969 . S
O208 C218 1.258 . S
C209 O206 1.267 . S
C209 O210 1.228 . S
O210 C209 1.228 . S
O211 Zn200 2.024 . S
O211 C202 1.058 . S
C212 O213 1.228 . S
C212 O214 1.267 . S
O213 C212 1.228 . S
O214 Zn201 1.969 . S
O214 C212 1.267 . S
O215 Zn201 1.965 . S
O215 C219 1.260 . S
O216 Zn200 1.969 . S
O216 C219 1.258 . S
O217 Zn201 2.024 . S
O217 C204 1.058 . S
C218 O207 1.260 . S
C218 O208 1.258 . S
C219 O215 1.260 . S
C219 O216 1.258 . S
Zn220 O226 1.969 . S
Zn220 O227 1.965 . S
Zn220 O231 2.024 . S
Zn220 O236 1.969 . S
Zn221 O228 1.969 . S
Zn221 O234 1.969 . S
Zn221 O235 1.965 . S
Zn221 O237 2.024 . S
C222 O223 1.229 . S
C222 O231 1.058 . S
O223 C222 1.229 . S
C224 O225 1.229 . S
C224 O237 1.058 . S
O225 C224 1.229 . S
O226 Zn220 1.969 . S
O226 C229 1.267 . S
O227 Zn220 1.965 . S
O227 C238 1.260 . S
O228 Zn221 1.969 . S
O228 C238 1.258 . S
C229 O226 1.267 . S
C229 O230 1.228 . S
O230 C229 1.228 . S
O231 Zn220 2.024 . S
O231 C222 1.058 . S
C232 O233 1.228 . S
C232 O234 1.267 . S
O233 C232 1.228 . S
O234 Zn221 1.969 . S
O234 C232 1.267 . S
O235 Zn221 1.965 . S
O235 C239 1.260 . S
O236 Zn220 1.969 . S
O236 C239 1.258 . S
O237 Zn221 2.024 . S
O237 C224 1.058 . S
C238 O227 1.260 . S
C238 O228 1.258 . S
C239 O235 1.260 . S
C239 O236 1.258 . S
H240 C246 0.930 . S
H241 C250 0.930 . S
H242 C255 0.929 . S
H243 C253 0.929 . S
H244 C248 0.929 . S
H245 C254 0.929 . S
C246 H240 0.930 . S
C246 C247 1.367 . S
C246 C254 1.378 1_565 S
C247 C246 1.367 . S
C247 C255 1.433 . S
C248 H244 0.929 . S
C248 C250 1.378 . S
C248 C252 1.350 . S
C249 C252 1.463 . S
C249 C254 1.350 . S
C249 N257 1.427 . S
C250 H241 0.930 . S
C250 C248 1.378 . S
C250 C251 1.367 . S
C251 C250 1.367 . S
C251 C253 1.433 . S
C252 C248 1.350 . S
C252 C249 1.463 . S
C252 N256 1.427 . S
C253 H243 0.929 . S
C253 C251 1.433 . S
C253 N256 1.384 . S
C254 H245 0.929 . S
C254 C246 1.378 1_545 S
C254 C249 1.350 . S
C255 H242 0.929 . S
C255 C247 1.433 . S
C255 N257 1.384 1_565 S
N256 C252 1.427 . S
N256 C253 1.384 . S
N257 C249 1.427 . S
N257 C255 1.384 1_545 S
H258 C264 0.930 . S
H259 C268 0.930 . S
H260 C273 0.929 . S
H261 C271 0.929 . S
H262 C266 0.929 . S
H263 C272 0.929 . S
C264 H258 0.930 . S
C264 C265 1.367 . S
C264 C272 1.378 . S
C265 C264 1.367 . S
C265 C273 1.433 . S
C266 H262 0.929 . S
C266 C268 1.378 . S
C266 C270 1.350 . S
C267 C270 1.463 . S
C267 C272 1.350 . S
C267 N275 1.427 . S
C268 H259 0.930 . S
C268 C266 1.378 . S
C268 C269 1.367 . S
C269 C268 1.367 . S
C269 C271 1.433 . S
C270 C266 1.350 . S
C270 C267 1.463 . S
C270 N274 1.427 . S
C271 H261 0.929 . S
C271 C269 1.433 . S
C271 N274 1.384 . S
C272 H263 0.929 . S
C272 C264 1.378 . S
C272 C267 1.350 . S
C273 H260 0.929 . S
C273 C265 1.433 . S
C273 N275 1.384 . S
N274 C270 1.427 . S
N274 C271 1.384 . S
N275 C267 1.427 . S
N275 C273 1.384 . S
H276 C282 0.930 . S
H277 C286 0.930 . S
H278 C291 0.929 . S
H279 C289 0.929 . S
H280 C284 0.929 . S
H281 C290 0.929 . S
C282 H276 0.930 . S
C282 C283 1.367 . S
C282 C290 1.378 . S
C283 C282 1.367 . S
C283 C291 1.433 . S
C284 H280 0.929 . S
C284 C286 1.378 1_655 S
C284 C288 1.350 . S
C285 C288 1.463 . S
C285 C290 1.350 . S
C285 N293 1.427 . S
C286 H277 0.930 . S
C286 C284 1.378 1_455 S
C286 C287 1.367 . S
C287 C286 1.367 . S
C287 C289 1.433 . S
C288 C284 1.350 . S
C288 C285 1.463 . S
C288 N292 1.427 . S
C289 H279 0.929 . S
C289 C287 1.433 . S
C289 N292 1.384 1_455 S
C290 H281 0.929 . S
C290 C282 1.378 . S
C290 C285 1.350 . S
C291 H278 0.929 . S
C291 C283 1.433 . S
C291 N293 1.384 . S
N292 C288 1.427 . S
N292 C289 1.384 1_655 S
N293 C285 1.427 . S
N293 C291 1.384 . S
H294 C300 0.930 . S
H295 C304 0.930 . S
H296 C309 0.929 . S
H297 C307 0.929 . S
H298 C302 0.929 . S
H299 C308 0.929 . S
C300 H294 0.930 . S
C300 C301 1.367 . S
C300 C308 1.378 . S
C301 C300 1.367 . S
C301 C309 1.433 . S
C302 H298 0.929 . S
C302 C304 1.378 1_565 S
C302 C306 1.350 . S
C303 C306 1.463 . S
C303 C308 1.350 . S
C303 N311 1.427 . S
C304 H295 0.930 . S
C304 C302 1.378 1_545 S
C304 C305 1.367 . S
C305 C304 1.367 . S
C305 C307 1.433 . S
C306 C302 1.350 . S
C306 C303 1.463 . S
C306 N310 1.427 . S
C307 H297 0.929 . S
C307 C305 1.433 . S
C307 N310 1.384 1_545 S
C308 H299 0.929 . S
C308 C300 1.378 . S
C308 C303 1.350 . S
C309 H296 0.929 . S
C309 C301 1.433 . S
C309 N311 1.384 . S
N310 C306 1.427 . S
N310 C307 1.384 1_565 S
N311 C303 1.427 . S
N311 C309 1.384 . S
H312 C318 0.930 . S
H313 C322 0.930 . S
H314 C327 0.929 1_455 S
H315 C325 0.929 . S
H316 C320 0.929 . S
H317 C326 0.929 . S
C318 H312 0.930 . S
C318 C319 1.367 . S
C318 C326 1.378 . S
C319 C318 1.367 . S
C319 C327 1.433 . S
C320 H316 0.929 . S
C320 C322 1.378 . S
C320 C324 1.350 . S
C321 C324 1.463 . S
C321 C326 1.350 . S
C321 N329 1.427 . S
C322 H313 0.930 . S
C322 C320 1.378 . S
C322 C323 1.367 . S
C323 C322 1.367 . S
C323 C325 1.433 . S
C324 C320 1.350 . S
C324 C321 1.463 . S
C324 N328 1.427 . S
C325 H315 0.929 . S
C325 C323 1.433 . S
C325 N328 1.384 . S
C326 H317 0.929 . S
C326 C318 1.378 . S
C326 C321 1.350 . S
C327 H314 0.929 1_655 S
C327 C319 1.433 . S
C327 N329 1.384 . S
N328 C324 1.427 . S
N328 C325 1.384 . S
N329 C321 1.427 . S
N329 C327 1.384 . S
H330 C336 0.930 . S
H331 C340 0.930 . S
H332 C345 0.929 . S
H333 C343 0.929 . S
H334 C338 0.929 . S
H335 C344 0.929 . S
C336 H330 0.930 . S
C336 C337 1.367 . S
C336 C344 1.378 1_655 S
C337 C336 1.367 . S
C337 C345 1.433 . S
C338 H334 0.929 . S
C338 C340 1.378 . S
C338 C342 1.350 . S
C339 C342 1.463 . S
C339 C344 1.350 . S
C339 N347 1.427 . S
C340 H331 0.930 . S
C340 C338 1.378 . S
C340 C341 1.367 . S
C341 C340 1.367 . S
C341 C343 1.433 . S
C342 C338 1.350 . S
C342 C339 1.463 . S
C342 N346 1.427 . S
C343 H333 0.929 . S
C343 C341 1.433 . S
C343 N346 1.384 . S
C344 H335 0.929 . S
C344 C336 1.378 1_455 S
C344 C339 1.350 . S
C345 H332 0.929 . S
C345 C337 1.433 . S
C345 N347 1.384 1_655 S
N346 C342 1.427 . S
N346 C343 1.384 . S
N347 C339 1.427 . S
N347 C345 1.384 1_455 S
H348 C354 0.930 . S
H349 C358 0.930 . S
H350 C363 0.929 . S
H351 C361 0.929 . S
H352 C356 0.929 . S
H353 C362 0.929 . S
C354 H348 0.930 . S
C354 C355 1.367 . S
C354 C362 1.378 1_455 S
C355 C354 1.367 . S
C355 C363 1.433 . S
C356 H352 0.929 . S
C356 C358 1.378 . S
C356 C360 1.350 . S
C357 C360 1.463 . S
C357 C362 1.350 . S
C357 N365 1.427 . S
C358 H349 0.930 . S
C358 C356 1.378 . S
C358 C359 1.367 . S
C359 C358 1.367 . S
C359 C361 1.433 . S
C360 C356 1.350 . S
C360 C357 1.463 . S
C360 N364 1.427 . S
C361 H351 0.929 . S
C361 C359 1.433 . S
C361 N364 1.384 . S
C362 H353 0.929 . S
C362 C354 1.378 1_655 S
C362 C357 1.350 . S
C363 H350 0.929 . S
C363 C355 1.433 . S
C363 N365 1.384 1_455 S
N364 C360 1.427 . S
N364 C361 1.384 . S
N365 C357 1.427 . S
N365 C363 1.384 1_655 S
H366 C372 0.930 . S
H367 C376 0.930 . S
H368 C381 0.929 . S
H369 C379 0.929 . S
H370 C374 0.929 . S
H371 C380 0.929 . S
C372 H366 0.930 . S
C372 C373 1.367 . S
C372 C380 1.378 . S
C373 C372 1.367 . S
C373 C381 1.433 . S
C374 H370 0.929 . S
C374 C376 1.378 1_565 S
C374 C378 1.350 . S
C375 C378 1.463 . S
C375 C380 1.350 . S
C375 N383 1.427 . S
C376 H367 0.930 . S
C376 C374 1.378 1_545 S
C376 C377 1.367 . S
C377 C376 1.367 . S
C377 C379 1.433 . S
C378 C374 1.350 . S
C378 C375 1.463 . S
C378 N382 1.427 . S
C379 H369 0.929 . S
C379 C377 1.433 . S
C379 N382 1.384 1_545 S
C380 H371 0.929 . S
C380 C372 1.378 . S
C380 C375 1.350 . S
C381 H368 0.929 . S
C381 C373 1.433 . S
C381 N383 1.384 . S
N382 C378 1.427 . S
N382 C379 1.384 1_565 S
N383 C375 1.427 . S
N383 C381 1.384 . S
H384 C390 0.930 . S
H385 C394 0.930 . S
H386 C399 0.929 . S
H387 C397 0.929 . S
H388 C392 0.929 . S
H389 C398 0.929 . S
C390 H384 0.930 . S
C390 C391 1.367 . S
C390 C398 1.378 . S
C391 C390 1.367 . S
C391 C399 1.433 . S
C392 H388 0.929 . S
C392 C394 1.378 . S
C392 C396 1.350 . S
C393 C396 1.463 . S
C393 C398 1.350 . S
C393 N401 1.427 . S
C394 H385 0.930 . S
C394 C392 1.378 . S
C394 C395 1.367 . S
C395 C394 1.367 . S
C395 C397 1.433 . S
C396 C392 1.350 . S
C396 C393 1.463 . S
C396 N400 1.427 . S
C397 H387 0.929 . S
C397 C395 1.433 . S
C397 N400 1.384 . S
C398 H389 0.929 . S
C398 C390 1.378 . S
C398 C393 1.350 . S
C399 H386 0.929 . S
C399 C391 1.433 . S
C399 N401 1.384 . S
N400 C396 1.427 . S
N400 C397 1.384 . S
N401 C393 1.427 . S
N401 C399 1.384 . S
H402 C408 0.930 . S
H403 C412 0.930 . S
H404 C417 0.929 . S
H405 C415 0.929 . S
H406 C410 0.929 . S
H407 C416 0.929 . S
C408 H402 0.930 . S
C408 C409 1.367 . S
C408 C416 1.378 . S
C409 C408 1.367 . S
C409 C417 1.433 . S
C410 H406 0.929 . S
C410 C412 1.378 1_455 S
C410 C414 1.350 . S
C411 C414 1.463 . S
C411 C416 1.350 . S
C411 N419 1.427 . S
C412 H403 0.930 . S
C412 C410 1.378 1_655 S
C412 C413 1.367 . S
C413 C412 1.367 . S
C413 C415 1.433 . S
C414 C410 1.350 . S
C414 C411 1.463 . S
C414 N418 1.427 . S
C415 H405 0.929 . S
C415 C413 1.433 . S
C415 N418 1.384 1_655 S
C416 H407 0.929 . S
C416 C408 1.378 . S
C416 C411 1.350 . S
C417 H404 0.929 . S
C417 C409 1.433 . S
C417 N419 1.384 . S
N418 C414 1.427 . S
N418 C415 1.384 1_455 S
N419 C411 1.427 . S
N419 C417 1.384 . S
H420 C426 0.930 . S
H421 C430 0.930 . S
H422 C435 0.929 . S
H423 C433 0.929 . S
H424 C428 0.929 . S
H425 C434 0.929 . S
C426 H420 0.930 . S
C426 C427 1.367 . S
C426 C434 1.378 . S
C427 C426 1.367 . S
C427 C435 1.433 . S
C428 H424 0.929 . S
C428 C430 1.378 1_545 S
C428 C432 1.350 . S
C429 C432 1.463 . S
C429 C434 1.350 . S
C429 N437 1.427 . S
C430 H421 0.930 . S
C430 C428 1.378 1_565 S
C430 C431 1.367 . S
C431 C430 1.367 . S
C431 C433 1.433 . S
C432 C428 1.350 . S
C432 C429 1.463 . S
C432 N436 1.427 . S
C433 H423 0.929 . S
C433 C431 1.433 . S
C433 N436 1.384 1_565 S
C434 H425 0.929 . S
C434 C426 1.378 . S
C434 C429 1.350 . S
C435 H422 0.929 . S
C435 C427 1.433 . S
C435 N437 1.384 . S
N436 C432 1.427 . S
N436 C433 1.384 1_545 S
N437 C429 1.427 . S
N437 C435 1.384 . S
H438 C444 0.930 . S
H439 C448 0.930 . S
H440 C453 0.929 . S
H441 C451 0.929 . S
H442 C446 0.929 . S
H443 C452 0.929 . S
C444 H438 0.930 . S
C444 C445 1.367 . S
C444 C452 1.378 . S
C445 C444 1.367 . S
C445 C453 1.433 . S
C446 H442 0.929 . S
C446 C448 1.378 . S
C446 C450 1.350 . S
C447 C450 1.463 . S
C447 C452 1.350 . S
C447 N455 1.427 . S
C448 H439 0.930 . S
C448 C446 1.378 . S
C448 C449 1.367 . S
C449 C448 1.367 . S
C449 C451 1.433 . S
C450 C446 1.350 . S
C450 C447 1.463 . S
C450 N454 1.427 . S
C451 H441 0.929 . S
C451 C449 1.433 . S
C451 N454 1.384 . S
C452 H443 0.929 . S
C452 C444 1.378 . S
C452 C447 1.350 . S
C453 H440 0.929 . S
C453 C445 1.433 . S
C453 N455 1.384 . S
N454 C450 1.427 . S
N454 C451 1.384 . S
N455 C447 1.427 . S
N455 C453 1.384 . S
H456 C462 0.930 . S
H457 C466 0.930 . S
H458 C471 0.929 . S
H459 C469 0.929 . S
H460 C464 0.929 . S
H461 C470 0.929 . S
C462 H456 0.930 . S
C462 C463 1.367 . S
C462 C470 1.378 . S
C463 C462 1.367 . S
C463 C471 1.433 . S
C464 H460 0.929 . S
C464 C466 1.378 . S
C464 C468 1.350 . S
C465 C468 1.463 . S
C465 C470 1.350 . S
C465 N473 1.427 . S
C466 H457 0.930 . S
C466 C464 1.378 . S
C466 C467 1.367 . S
C467 C466 1.367 . S
C467 C469 1.433 . S
C468 C464 1.350 . S
C468 C465 1.463 . S
C468 N472 1.427 . S
C469 H459 0.929 . S
C469 C467 1.433 . S
C469 N472 1.384 . S
C470 H461 0.929 . S
C470 C462 1.378 . S
C470 C465 1.350 . S
C471 H458 0.929 . S
C471 C463 1.433 . S
C471 N473 1.384 . S
N472 C468 1.427 . S
N472 C469 1.384 . S
N473 C465 1.427 . S
N473 C471 1.384 . S
H474 C480 0.930 . S
H475 C484 0.930 . S
H476 C489 0.929 . S
H477 C487 0.929 . S
H478 C482 0.929 . S
H479 C488 0.929 . S
C480 H474 0.930 . S
C480 C481 1.367 . S
C480 C488 1.378 . S
C481 C480 1.367 . S
C481 C489 1.433 . S
C482 H478 0.929 . S
C482 C484 1.378 . S
C482 C486 1.350 . S
C483 C486 1.463 . S
C483 C488 1.350 . S
C483 N491 1.427 . S
C484 H475 0.930 . S
C484 C482 1.378 . S
C484 C485 1.367 . S
C485 C484 1.367 . S
C485 C487 1.433 . S
C486 C482 1.350 . S
C486 C483 1.463 . S
C486 N490 1.427 . S
C487 H477 0.929 . S
C487 C485 1.433 . S
C487 N490 1.384 . S
C488 H479 0.929 . S
C488 C480 1.378 . S
C488 C483 1.350 . S
C489 H476 0.929 . S
C489 C481 1.433 . S
C489 N491 1.384 . S
N490 C486 1.427 . S
N490 C487 1.384 . S
N491 C483 1.427 . S
N491 C489 1.384 . S
H492 C498 0.930 . S
H493 C502 0.930 . S
H494 C507 0.929 . S
H495 C505 0.929 . S
H496 C500 0.929 . S
H497 C506 0.929 . S
C498 H492 0.930 . S
C498 C499 1.367 . S
C498 C506 1.378 . S
C499 C498 1.367 . S
C499 C507 1.433 . S
C500 H496 0.929 . S
C500 C502 1.378 . S
C500 C504 1.350 . S
C501 C504 1.463 . S
C501 C506 1.350 . S
C501 N509 1.427 . S
C502 H493 0.930 . S
C502 C500 1.378 . S
C502 C503 1.367 . S
C503 C502 1.367 . S
C503 C505 1.433 . S
C504 C500 1.350 . S
C504 C501 1.463 . S
C504 N508 1.427 . S
C505 H495 0.929 . S
C505 C503 1.433 . S
C505 N508 1.384 . S
C506 H497 0.929 . S
C506 C498 1.378 . S
C506 C501 1.350 . S
C507 H494 0.929 . S
C507 C499 1.433 . S
C507 N509 1.384 . S
N508 C504 1.427 . S
N508 C505 1.384 . S
N509 C501 1.427 . S
N509 C507 1.384 . S
H510 C516 0.930 . S
H511 C520 0.930 . S
H512 C525 0.929 . S
H513 C523 0.929 . S
H514 C518 0.929 . S
H515 C524 0.929 . S
C516 H510 0.930 . S
C516 C517 1.367 . S
C516 C524 1.378 . S
C517 C516 1.367 . S
C517 C525 1.433 . S
C518 H514 0.929 . S
C518 C520 1.378 . S
C518 C522 1.350 . S
C519 C522 1.463 . S
C519 C524 1.350 . S
C519 N527 1.427 . S
C520 H511 0.930 . S
C520 C518 1.378 . S
C520 C521 1.367 . S
C521 C520 1.367 . S
C521 C523 1.433 . S
C522 C518 1.350 . S
C522 C519 1.463 . S
C522 N526 1.427 . S
C523 H513 0.929 . S
C523 C521 1.433 . S
C523 N526 1.384 . S
C524 H515 0.929 . S
C524 C516 1.378 . S
C524 C519 1.350 . S
C525 H512 0.929 . S
C525 C517 1.433 . S
C525 N527 1.384 . S
N526 C522 1.427 . S
N526 C523 1.384 . S
N527 C519 1.427 . S
N527 C525 1.384 . S
H528 C534 0.930 . S
H529 C538 0.930 . S
H530 C543 0.929 . S
H531 C541 0.929 . S
H532 C536 0.929 . S
H533 C542 0.929 . S
C534 H528 0.930 . S
C534 C535 1.367 . S
C534 C542 1.378 . S
C535 C534 1.367 . S
C535 C543 1.433 . S
C536 H532 0.929 . S
C536 C538 1.378 . S
C536 C540 1.350 . S
C537 C540 1.463 . S
C537 C542 1.350 . S
C537 N545 1.427 . S
C538 H529 0.930 . S
C538 C536 1.378 . S
C538 C539 1.367 . S
C539 C538 1.367 . S
C539 C541 1.433 . S
C540 C536 1.350 . S
C540 C537 1.463 . S
C540 N544 1.427 . S
C541 H531 0.929 . S
C541 C539 1.433 . S
C541 N544 1.384 . S
C542 H533 0.929 . S
C542 C534 1.378 . S
C542 C537 1.350 . S
C543 H530 0.929 . S
C543 C535 1.433 . S
C543 N545 1.384 . S
N544 C540 1.427 . S
N544 C541 1.384 . S
N545 C537 1.427 . S
N545 C543 1.384 . S
H546 C552 0.930 . S
H547 C556 0.930 . S
H548 C561 0.929 . S
H549 C559 0.929 . S
H550 C554 0.929 . S
H551 C560 0.929 . S
C552 H546 0.930 . S
C552 C553 1.367 . S
C552 C560 1.378 . S
C553 C552 1.367 . S
C553 C561 1.433 . S
C554 H550 0.929 . S
C554 C556 1.378 . S
C554 C558 1.350 . S
C555 C558 1.463 . S
C555 C560 1.350 . S
C555 N563 1.427 . S
C556 H547 0.930 . S
C556 C554 1.378 . S
C556 C557 1.367 . S
C557 C556 1.367 . S
C557 C559 1.433 . S
C558 C554 1.350 . S
C558 C555 1.463 . S
C558 N562 1.427 . S
C559 H549 0.929 . S
C559 C557 1.433 . S
C559 N562 1.384 . S
C560 H551 0.929 . S
C560 C552 1.378 . S
C560 C555 1.350 . S
C561 H548 0.929 . S
C561 C553 1.433 . S
C561 N563 1.384 . S
N562 C558 1.427 . S
N562 C559 1.384 . S
N563 C555 1.427 . S
N563 C561 1.384 . S
H564 C570 0.930 . S
H565 C574 0.930 . S
H566 C579 0.929 . S
H567 C577 0.929 . S
H568 C572 0.929 . S
H569 C578 0.929 . S
C570 H564 0.930 . S
C570 C571 1.367 . S
C570 C578 1.378 . S
C571 C570 1.367 . S
C571 C579 1.433 . S
C572 H568 0.929 . S
C572 C574 1.378 . S
C572 C576 1.350 . S
C573 C576 1.463 . S
C573 C578 1.350 . S
C573 N581 1.427 . S
C574 H565 0.930 . S
C574 C572 1.378 . S
C574 C575 1.367 . S
C575 C574 1.367 . S
C575 C577 1.433 . S
C576 C572 1.350 . S
C576 C573 1.463 . S
C576 N580 1.427 . S
C577 H567 0.929 . S
C577 C575 1.433 . S
C577 N580 1.384 . S
C578 H569 0.929 . S
C578 C570 1.378 . S
C578 C573 1.350 . S
C579 H566 0.929 . S
C579 C571 1.433 . S
C579 N581 1.384 . S
N580 C576 1.427 . S
N580 C577 1.384 . S
N581 C573 1.427 . S
N581 C579 1.384 . S
H582 C588 0.930 . S
H583 C592 0.930 . S
H584 C597 0.929 . S
H585 C595 0.929 . S
H586 C590 0.929 . S
H587 C596 0.929 . S
C588 H582 0.930 . S
C588 C589 1.367 . S
C588 C596 1.378 . S
C589 C588 1.367 . S
C589 C597 1.433 . S
C590 H586 0.929 . S
C590 C592 1.378 . S
C590 C594 1.350 . S
C591 C594 1.463 . S
C591 C596 1.350 . S
C591 N599 1.427 . S
C592 H583 0.930 . S
C592 C590 1.378 . S
C592 C593 1.367 . S
C593 C592 1.367 . S
C593 C595 1.433 . S
C594 C590 1.350 . S
C594 C591 1.463 . S
C594 N598 1.427 . S
C595 H585 0.929 . S
C595 C593 1.433 . S
C595 N598 1.384 . S
C596 H587 0.929 . S
C596 C588 1.378 . S
C596 C591 1.350 . S
C597 H584 0.929 . S
C597 C589 1.433 . S
C597 N599 1.384 . S
N598 C594 1.427 . S
N598 C595 1.384 . S
N599 C591 1.427 . S
N599 C597 1.384 . S
H600 C606 0.930 . S
H601 C610 0.930 . S
H602 C615 0.929 . S
H603 C613 0.929 . S
H604 C608 0.929 . S
H605 C614 0.929 . S
C606 H600 0.930 . S
C606 C607 1.367 . S
C606 C614 1.378 . S
C607 C606 1.367 . S
C607 C615 1.433 . S
C608 H604 0.929 . S
C608 C610 1.378 . S
C608 C612 1.350 . S
C609 C612 1.463 . S
C609 C614 1.350 . S
C609 N617 1.427 . S
C610 H601 0.930 . S
C610 C608 1.378 . S
C610 C611 1.367 . S
C611 C610 1.367 . S
C611 C613 1.433 . S
C612 C608 1.350 . S
C612 C609 1.463 . S
C612 N616 1.427 . S
C613 H603 0.929 . S
C613 C611 1.433 . S
C613 N616 1.384 . S
C614 H605 0.929 . S
C614 C606 1.378 . S
C614 C609 1.350 . S
C615 H602 0.929 . S
C615 C607 1.433 . S
C615 N617 1.384 . S
N616 C612 1.427 . S
N616 C613 1.384 . S
N617 C609 1.427 . S
N617 C615 1.384 . S
H618 C624 0.930 . S
H619 C628 0.930 . S
H620 C633 0.929 . S
H621 C631 0.929 . S
H622 C626 0.929 . S
H623 C632 0.929 . S
C624 H618 0.930 . S
C624 C625 1.367 . S
C624 C632 1.378 . S
C625 C624 1.367 . S
C625 C633 1.433 . S
C626 H622 0.929 . S
C626 C628 1.378 . S
C626 C630 1.350 . S
C627 C630 1.463 . S
C627 C632 1.350 . S
C627 N635 1.427 . S
C628 H619 0.930 . S
C628 C626 1.378 . S
C628 C629 1.367 . S
C629 C628 1.367 . S
C629 C631 1.433 . S
C630 C626 1.350 . S
C630 C627 1.463 . S
C630 N634 1.427 . S
C631 H621 0.929 . S
C631 C629 1.433 . S
C631 N634 1.384 . S
C632 H623 0.929 . S
C632 C624 1.378 . S
C632 C627 1.350 . S
C633 H620 0.929 . S
C633 C625 1.433 . S
C633 N635 1.384 . S
N634 C630 1.427 . S
N634 C631 1.384 . S
N635 C627 1.427 . S
N635 C633 1.384 . S
H636 C642 0.930 . S
H637 C646 0.930 . S
H638 C651 0.929 . S
H639 C649 0.929 . S
H640 C644 0.929 . S
H641 C650 0.929 . S
C642 H636 0.930 . S
C642 C643 1.367 . S
C642 C650 1.378 . S
C643 C642 1.367 . S
C643 C651 1.433 . S
C644 H640 0.929 . S
C644 C646 1.378 . S
C644 C648 1.350 . S
C645 C648 1.463 . S
C645 C650 1.350 . S
C645 N653 1.427 . S
C646 H637 0.930 . S
C646 C644 1.378 . S
C646 C647 1.367 . S
C647 C646 1.367 . S
C647 C649 1.433 . S
C648 C644 1.350 . S
C648 C645 1.463 . S
C648 N652 1.427 . S
C649 H639 0.929 . S
C649 C647 1.433 . S
C649 N652 1.384 . S
C650 H641 0.929 . S
C650 C642 1.378 . S
C650 C645 1.350 . S
C651 H638 0.929 . S
C651 C643 1.433 . S
C651 N653 1.384 . S
N652 C648 1.427 . S
N652 C649 1.384 . S
N653 C645 1.427 . S
N653 C651 1.384 . S
H654 C660 0.930 . S
H655 C664 0.930 . S
H656 C669 0.929 . S
H657 C667 0.929 . S
H658 C662 0.929 . S
H659 C668 0.929 . S
C660 H654 0.930 . S
C660 C661 1.367 . S
C660 C668 1.378 . S
C661 C660 1.367 . S
C661 C669 1.433 . S
C662 H658 0.929 . S
C662 C664 1.378 . S
C662 C666 1.350 . S
C663 C666 1.463 . S
C663 C668 1.350 . S
C663 N671 1.427 . S
C664 H655 0.930 . S
C664 C662 1.378 . S
C664 C665 1.367 . S
C665 C664 1.367 . S
C665 C667 1.433 . S
C666 C662 1.350 . S
C666 C663 1.463 . S
C666 N670 1.427 . S
C667 H657 0.929 . S
C667 C665 1.433 . S
C667 N670 1.384 . S
C668 H659 0.929 . S
C668 C660 1.378 . S
C668 C663 1.350 . S
C669 H656 0.929 . S
C669 C661 1.433 . S
C669 N671 1.384 . S
N670 C666 1.427 . S
N670 C667 1.384 . S
N671 C663 1.427 . S
N671 C669 1.384 . S
H672 C678 0.930 . S
H673 C682 0.930 . S
H674 C687 0.929 . S
H675 C685 0.929 . S
H676 C680 0.929 . S
H677 C686 0.929 . S
C678 H672 0.930 . S
C678 C679 1.367 . S
C678 C686 1.378 . S
C679 C678 1.367 . S
C679 C687 1.433 . S
C680 H676 0.929 . S
C680 C682 1.378 . S
C680 C684 1.350 . S
C681 C684 1.463 . S
C681 C686 1.350 . S
C681 N689 1.427 . S
C682 H673 0.930 . S
C682 C680 1.378 . S
C682 C683 1.367 . S
C683 C682 1.367 . S
C683 C685 1.433 . S
C684 C680 1.350 . S
C684 C681 1.463 . S
C684 N688 1.427 . S
C685 H675 0.929 . S
C685 C683 1.433 . S
C685 N688 1.384 . S
C686 H677 0.929 . S
C686 C678 1.378 . S
C686 C681 1.350 . S
C687 H674 0.929 . S
C687 C679 1.433 . S
C687 N689 1.384 . S
N688 C684 1.427 . S
N688 C685 1.384 . S
N689 C681 1.427 . S
N689 C687 1.384 . S
H690 C696 0.930 . S
H691 C700 0.930 . S
H692 C705 0.929 . S
H693 C703 0.929 . S
H694 C698 0.929 . S
H695 C704 0.929 . S
C696 H690 0.930 . S
C696 C697 1.367 . S
C696 C704 1.378 . S
C697 C696 1.367 . S
C697 C705 1.433 . S
C698 H694 0.929 . S
C698 C700 1.378 . S
C698 C702 1.350 . S
C699 C702 1.463 . S
C699 C704 1.350 . S
C699 N707 1.427 . S
C700 H691 0.930 . S
C700 C698 1.378 . S
C700 C701 1.367 . S
C701 C700 1.367 . S
C701 C703 1.433 . S
C702 C698 1.350 . S
C702 C699 1.463 . S
C702 N706 1.427 . S
C703 H693 0.929 . S
C703 C701 1.433 . S
C703 N706 1.384 . S
C704 H695 0.929 . S
C704 C696 1.378 . S
C704 C699 1.350 . S
C705 H692 0.929 . S
C705 C697 1.433 . S
C705 N707 1.384 . S
N706 C702 1.427 . S
N706 C703 1.384 . S
N707 C699 1.427 . S
N707 C705 1.384 . S
H708 C714 0.930 . S
H709 C718 0.930 . S
H710 C723 0.929 . S
H711 C721 0.929 . S
H712 C716 0.929 . S
H713 C722 0.929 . S
C714 H708 0.930 . S
C714 C715 1.367 . S
C714 C722 1.378 . S
C715 C714 1.367 . S
C715 C723 1.433 . S
C716 H712 0.929 . S
C716 C718 1.378 . S
C716 C720 1.350 . S
C717 C720 1.463 . S
C717 C722 1.350 . S
C717 N725 1.427 . S
C718 H709 0.930 . S
C718 C716 1.378 . S
C718 C719 1.367 . S
C719 C718 1.367 . S
C719 C721 1.433 . S
C720 C716 1.350 . S
C720 C717 1.463 . S
C720 N724 1.427 . S
C721 H711 0.929 . S
C721 C719 1.433 . S
C721 N724 1.384 . S
C722 H713 0.929 . S
C722 C714 1.378 . S
C722 C717 1.350 . S
C723 H710 0.929 . S
C723 C715 1.433 . S
C723 N725 1.384 . S
N724 C720 1.427 . S
N724 C721 1.384 . S
N725 C717 1.427 . S
N725 C723 1.384 . S
H726 C732 0.930 . S
H727 C736 0.930 . S
H728 C741 0.929 . S
H729 C739 0.929 . S
H730 C734 0.929 . S
H731 C740 0.929 . S
C732 H726 0.930 . S
C732 C733 1.367 . S
C732 C740 1.378 . S
C733 C732 1.367 . S
C733 C741 1.433 . S
C734 H730 0.929 . S
C734 C736 1.378 . S
C734 C738 1.350 . S
C735 C738 1.463 . S
C735 C740 1.350 . S
C735 N743 1.427 . S
C736 H727 0.930 . S
C736 C734 1.378 . S
C736 C737 1.367 . S
C737 C736 1.367 . S
C737 C739 1.433 . S
C738 C734 1.350 . S
C738 C735 1.463 . S
C738 N742 1.427 . S
C739 H729 0.929 . S
C739 C737 1.433 . S
C739 N742 1.384 . S
C740 H731 0.929 . S
C740 C732 1.378 . S
C740 C735 1.350 . S
C741 H728 0.929 . S
C741 C733 1.433 . S
C741 N743 1.384 . S
N742 C738 1.427 . S
N742 C739 1.384 . S
N743 C735 1.427 . S
N743 C741 1.384 . S
H744 C750 0.930 . S
H745 C754 0.930 . S
H746 C759 0.929 . S
H747 C757 0.929 . S
H748 C752 0.929 . S
H749 C758 0.929 . S
C750 H744 0.930 . S
C750 C751 1.367 . S
C750 C758 1.378 . S
C751 C750 1.367 . S
C751 C759 1.433 . S
C752 H748 0.929 . S
C752 C754 1.378 . S
C752 C756 1.350 . S
C753 C756 1.463 . S
C753 C758 1.350 . S
C753 N761 1.427 . S
C754 H745 0.930 . S
C754 C752 1.378 . S
C754 C755 1.367 . S
C755 C754 1.367 . S
C755 C757 1.433 . S
C756 C752 1.350 . S
C756 C753 1.463 . S
C756 N760 1.427 . S
C757 H747 0.929 . S
C757 C755 1.433 . S
C757 N760 1.384 . S
C758 H749 0.929 . S
C758 C750 1.378 . S
C758 C753 1.350 . S
C759 H746 0.929 . S
C759 C751 1.433 . S
C759 N761 1.384 . S
N760 C756 1.427 . S
N760 C757 1.384 . S
N761 C753 1.427 . S
N761 C759 1.384 . S
H762 C768 0.930 . S
H763 C772 0.930 . S
H764 C777 0.929 . S
H765 C775 0.929 . S
H766 C770 0.929 . S
H767 C776 0.929 . S
C768 H762 0.930 . S
C768 C769 1.367 . S
C768 C776 1.378 . S
C769 C768 1.367 . S
C769 C777 1.433 . S
C770 H766 0.929 . S
C770 C772 1.378 . S
C770 C774 1.350 . S
C771 C774 1.463 . S
C771 C776 1.350 . S
C771 N779 1.427 . S
C772 H763 0.930 . S
C772 C770 1.378 . S
C772 C773 1.367 . S
C773 C772 1.367 . S
C773 C775 1.433 . S
C774 C770 1.350 . S
C774 C771 1.463 . S
C774 N778 1.427 . S
C775 H765 0.929 . S
C775 C773 1.433 . S
C775 N778 1.384 . S
C776 H767 0.929 . S
C776 C768 1.378 . S
C776 C771 1.350 . S
C777 H764 0.929 . S
C777 C769 1.433 . S
C777 N779 1.384 . S
N778 C774 1.427 . S
N778 C775 1.384 . S
N779 C771 1.427 . S
N779 C777 1.384 . S
H780 C786 0.930 . S
H781 C790 0.930 . S
H782 C795 0.929 . S
H783 C793 0.929 . S
H784 C788 0.929 . S
H785 C794 0.929 . S
C786 H780 0.930 . S
C786 C787 1.367 . S
C786 C794 1.378 . S
C787 C786 1.367 . S
C787 C795 1.433 . S
C788 H784 0.929 . S
C788 C790 1.378 . S
C788 C792 1.350 . S
C789 C792 1.463 1_556 S
C789 C794 1.350 . S
C789 N797 1.427 . S
C790 H781 0.930 . S
C790 C788 1.378 . S
C790 C791 1.367 . S
C791 C790 1.367 . S
C791 C793 1.433 . S
C792 C788 1.350 . S
C792 C789 1.463 1_554 S
C792 N796 1.427 . S
C793 H783 0.929 . S
C793 C791 1.433 . S
C793 N796 1.384 . S
C794 H785 0.929 . S
C794 C786 1.378 . S
C794 C789 1.350 . S
C795 H782 0.929 . S
C795 C787 1.433 . S
C795 N797 1.384 . S
N796 C792 1.427 . S
N796 C793 1.384 . S
N797 C789 1.427 . S
N797 C795 1.384 . S
H798 C804 0.930 . S
H799 C808 0.930 . S
H800 C813 0.929 . S
H801 C811 0.929 . S
H802 C806 0.929 . S
H803 C812 0.929 . S
C804 H798 0.930 . S
C804 C805 1.367 . S
C804 C812 1.378 . S
C805 C804 1.367 . S
C805 C813 1.433 . S
C806 H802 0.929 . S
C806 C808 1.378 . S
C806 C810 1.350 . S
C807 C810 1.463 1_455 S
C807 C812 1.350 . S
C807 N815 1.427 . S
C808 H799 0.930 . S
C808 C806 1.378 . S
C808 C809 1.367 . S
C809 C808 1.367 . S
C809 C811 1.433 . S
C810 C806 1.350 . S
C810 C807 1.463 1_655 S
C810 N814 1.427 . S
C811 H801 0.929 . S
C811 C809 1.433 . S
C811 N814 1.384 . S
C812 H803 0.929 . S
C812 C804 1.378 . S
C812 C807 1.350 . S
C813 H800 0.929 . S
C813 C805 1.433 . S
C813 N815 1.384 . S
N814 C810 1.427 . S
N814 C811 1.384 . S
N815 C807 1.427 . S
N815 C813 1.384 . S
H816 C822 0.930 . S
H817 C826 0.930 . S
H818 C831 0.929 . S
H819 C829 0.929 . S
H820 C824 0.929 1_565 S
H821 C830 0.929 1_545 S
C822 H816 0.930 . S
C822 C823 1.367 . S
C822 C830 1.378 . S
C823 C822 1.367 . S
C823 C831 1.433 . S
C824 H820 0.929 1_545 S
C824 C826 1.378 . S
C824 C828 1.350 . S
C825 C828 1.463 1_564 S
C825 C830 1.350 . S
C825 N833 1.427 . S
C826 H817 0.930 . S
C826 C824 1.378 . S
C826 C827 1.367 . S
C827 C826 1.367 . S
C827 C829 1.433 . S
C828 C824 1.350 . S
C828 C825 1.463 1_546 S
C828 N832 1.427 . S
C829 H819 0.929 . S
C829 C827 1.433 . S
C829 N832 1.384 . S
C830 H821 0.929 1_565 S
C830 C822 1.378 . S
C830 C825 1.350 . S
C831 H818 0.929 . S
C831 C823 1.433 . S
C831 N833 1.384 . S
N832 C828 1.427 . S
N832 C829 1.384 . S
N833 C825 1.427 . S
N833 C831 1.384 . S
H834 C840 0.930 . S
H835 C844 0.930 . S
H836 C849 0.929 . S
H837 C847 0.929 . S
H838 C842 0.929 . S
H839 C848 0.929 . S
C840 H834 0.930 . S
C840 C841 1.367 . S
C840 C848 1.378 . S
C841 C840 1.367 . S
C841 C849 1.433 . S
C842 H838 0.929 . S
C842 C844 1.378 . S
C842 C846 1.350 . S
C843 C846 1.463 . S
C843 C848 1.350 . S
C843 N851 1.427 . S
C844 H835 0.930 . S
C844 C842 1.378 . S
C844 C845 1.367 . S
C845 C844 1.367 . S
C845 C847 1.433 . S
C846 C842 1.350 . S
C846 C843 1.463 . S
C846 N850 1.427 . S
C847 H837 0.929 . S
C847 C845 1.433 . S
C847 N850 1.384 . S
C848 H839 0.929 . S
C848 C840 1.378 . S
C848 C843 1.350 . S
C849 H836 0.929 . S
C849 C841 1.433 . S
C849 N851 1.384 . S
N850 C846 1.427 . S
N850 C847 1.384 . S
N851 C843 1.427 . S
N851 C849 1.384 . S
H852 C858 0.930 . S
H853 C862 0.930 . S
H854 C867 0.929 . S
H855 C865 0.929 . S
H856 C860 0.929 1_556 S
H857 C866 0.929 1_554 S
C858 H852 0.930 . S
C858 C859 1.367 . S
C858 C866 1.378 . S
C859 C858 1.367 . S
C859 C867 1.433 . S
C860 H856 0.929 1_554 S
C860 C862 1.378 . S
C860 C864 1.350 . S
C861 C864 1.463 1_656 S
C861 C866 1.350 . S
C861 N869 1.427 . S
C862 H853 0.930 . S
C862 C860 1.378 . S
C862 C863 1.367 . S
C863 C862 1.367 . S
C863 C865 1.433 . S
C864 C860 1.350 . S
C864 C861 1.463 1_454 S
C864 N868 1.427 . S
C865 H855 0.929 . S
C865 C863 1.433 . S
C865 N868 1.384 . S
C866 H857 0.929 1_556 S
C866 C858 1.378 . S
C866 C861 1.350 . S
C867 H854 0.929 . S
C867 C859 1.433 . S
C867 N869 1.384 . S
N868 C864 1.427 . S
N868 C865 1.384 . S
N869 C861 1.427 . S
N869 C867 1.384 . S
H870 C876 0.930 . S
H871 C880 0.930 . S
H872 C885 0.929 . S
H873 C883 0.929 . S
H874 C878 0.929 1_565 S
H875 C884 0.929 1_545 S
C876 H870 0.930 . S
C876 C877 1.367 . S
C876 C884 1.378 . S
C877 C876 1.367 . S
C877 C885 1.433 . S
C878 H874 0.929 1_545 S
C878 C880 1.378 . S
C878 C882 1.350 . S
C879 C882 1.463 1_565 S
C879 C884 1.350 . S
C879 N887 1.427 . S
C880 H871 0.930 . S
C880 C878 1.378 . S
C880 C881 1.367 . S
C881 C880 1.367 . S
C881 C883 1.433 . S
C882 C878 1.350 . S
C882 C879 1.463 1_545 S
C882 N886 1.427 . S
C883 H873 0.929 . S
C883 C881 1.433 . S
C883 N886 1.384 . S
C884 H875 0.929 1_565 S
C884 C876 1.378 . S
C884 C879 1.350 . S
C885 H872 0.929 . S
C885 C877 1.433 . S
C885 N887 1.384 . S
N886 C882 1.427 . S
N886 C883 1.384 . S
N887 C879 1.427 . S
N887 C885 1.384 . S
C247 C82 1.128 . S
C251 C9 1.097 . S
C265 C102 1.142 . S
C269 C29 1.107 1_455 S
C283 C49 1.098 1_545 S
C287 C2 1.127 . S
C301 C69 1.109 . S
C305 C22 1.141 . S
C319 C89 1.111 1_655 S
C323 C42 1.122 . S
C337 C62 1.129 . S
C341 C109 1.096 1_565 S
C355 C162 1.140 . S
C359 C129 1.110 . S
C373 C149 1.106 1_455 S
C377 C182 1.142 . S
C391 C202 1.124 . S
C395 C169 1.104 1_545 S
C409 C189 1.094 . S
C413 C222 1.141 . S
C427 C209 1.110 1_655 S
C431 C122 1.140 . S
C445 C142 1.126 . S
C449 C229 1.099 1_565 S
C463 C84 1.294 . S
C467 C12 1.414 . S
C481 C32 1.416 . S
C485 C104 1.289 . S
C499 C52 1.403 . S
C503 C4 1.286 . S
C517 C72 1.406 . S
C521 C24 1.279 . S
C535 C44 1.294 . S
C539 C92 1.403 . S
C553 C64 1.301 . S
C557 C112 1.410 . S
C571 C164 1.282 . S
C575 C132 1.405 . S
C589 C152 1.416 . S
C593 C184 1.283 . S
C607 C172 1.416 . S
C611 C204 1.283 . S
C625 C224 1.280 . S
C629 C192 1.405 . S
C643 C212 1.414 . S
C647 C124 1.278 . S
C661 C144 1.301 . S
C665 C232 1.406 . S
C679 C219 1.672 . S
C683 C19 1.663 . S
C697 C39 1.664 . S
C701 C239 1.672 . S
C715 C59 1.663 . S
C719 C139 1.672 . S
C733 C79 1.663 . S
C737 C159 1.672 . S
C751 C99 1.672 . S
C755 C179 1.663 . S
C769 C199 1.672 . S
C773 C119 1.663 . S
C787 C198 1.837 . S
C791 C18 1.844 . S
C805 C218 1.842 . S
C809 C38 1.847 . S
C823 C58 1.835 . S
C827 C238 1.834 . S
C841 C78 1.835 . S
C845 C138 1.842 . S
C859 C158 1.843 . S
C863 C98 1.847 . S
C877 C178 1.834 . S
C881 C118 1.836 . S
