# Generated by pormake.
# Topology wkb, (5)-cn, num edge types: 1
# Building blocks:
#     Node 0, Type 0, BuildingBlock: XOMCOT_clean_sbu_0, # of connection points: 5
#     Node 1, Type 0, BuildingBlock: XOMCOT_clean_sbu_0, # of connection points: 5
#     Node 2, Type 0, BuildingBlock: XOMCOT_clean_sbu_0, # of connection points: 5
#     Node 3, Type 0, BuildingBlock: XOMCOT_clean_sbu_0, # of connection points: 5
#     Node 4, Type 0, BuildingBlock: XOMCOT_clean_sbu_0, # of connection points: 5
#     Node 5, Type 0, BuildingBlock: XOMCOT_clean_sbu_0, # of connection points: 5
#     Node 6, Type 0, BuildingBlock: XOMCOT_clean_sbu_0, # of connection points: 5
#     Node 7, Type 0, BuildingBlock: XOMCOT_clean_sbu_0, # of connection points: 5
#     Node 8, Type 0, BuildingBlock: XOMCOT_clean_sbu_0, # of connection points: 5
#     Node 9, Type 0, BuildingBlock: XOMCOT_clean_sbu_0, # of connection points: 5
#     Node 10, Type 0, BuildingBlock: XOMCOT_clean_sbu_0, # of connection points: 5
#     Node 11, Type 0, BuildingBlock: XOMCOT_clean_sbu_0, # of connection points: 5
#     Edge 12, Type (0, 0), BuildingBlock: TEMPAE_clean_linker_10, # of connection points: 2
#     Edge 13, Type (0, 0), BuildingBlock: TEMPAE_clean_linker_10, # of connection points: 2
#     Edge 14, Type (0, 0), BuildingBlock: TEMPAE_clean_linker_10, # of connection points: 2
#     Edge 15, Type (0, 0), BuildingBlock: TEMPAE_clean_linker_10, # of connection points: 2
#     Edge 16, Type (0, 0), BuildingBlock: TEMPAE_clean_linker_10, # of connection points: 2
#     Edge 17, Type (0, 0), BuildingBlock: TEMPAE_clean_linker_10, # of connection points: 2
#     Edge 18, Type (0, 0), BuildingBlock: TEMPAE_clean_linker_10, # of connection points: 2
#     Edge 19, Type (0, 0), BuildingBlock: TEMPAE_clean_linker_10, # of connection points: 2
#     Edge 20, Type (0, 0), BuildingBlock: TEMPAE_clean_linker_10, # of connection points: 2
#     Edge 21, Type (0, 0), BuildingBlock: TEMPAE_clean_linker_10, # of connection points: 2
#     Edge 22, Type (0, 0), BuildingBlock: TEMPAE_clean_linker_10, # of connection points: 2
#     Edge 23, Type (0, 0), BuildingBlock: TEMPAE_clean_linker_10, # of connection points: 2
#     Edge 24, Type (0, 0), BuildingBlock: TEMPAE_clean_linker_10, # of connection points: 2
#     Edge 25, Type (0, 0), BuildingBlock: TEMPAE_clean_linker_10, # of connection points: 2
#     Edge 26, Type (0, 0), BuildingBlock: TEMPAE_clean_linker_10, # of connection points: 2
#     Edge 27, Type (0, 0), BuildingBlock: TEMPAE_clean_linker_10, # of connection points: 2
#     Edge 28, Type (0, 0), BuildingBlock: TEMPAE_clean_linker_10, # of connection points: 2
#     Edge 29, Type (0, 0), BuildingBlock: TEMPAE_clean_linker_10, # of connection points: 2
#     Edge 30, Type (0, 0), BuildingBlock: TEMPAE_clean_linker_10, # of connection points: 2
#     Edge 31, Type (0, 0), BuildingBlock: TEMPAE_clean_linker_10, # of connection points: 2
#     Edge 32, Type (0, 0), BuildingBlock: TEMPAE_clean_linker_10, # of connection points: 2
#     Edge 33, Type (0, 0), BuildingBlock: TEMPAE_clean_linker_10, # of connection points: 2
#     Edge 34, Type (0, 0), BuildingBlock: TEMPAE_clean_linker_10, # of connection points: 2
#     Edge 35, Type (0, 0), BuildingBlock: TEMPAE_clean_linker_10, # of connection points: 2
#     Edge 36, Type (0, 0), BuildingBlock: TEMPAE_clean_linker_10, # of connection points: 2
#     Edge 37, Type (0, 0), BuildingBlock: TEMPAE_clean_linker_10, # of connection points: 2
#     Edge 38, Type (0, 0), BuildingBlock: TEMPAE_clean_linker_10, # of connection points: 2
#     Edge 39, Type (0, 0), BuildingBlock: TEMPAE_clean_linker_10, # of connection points: 2
#     Edge 40, Type (0, 0), BuildingBlock: TEMPAE_clean_linker_10, # of connection points: 2
#     Edge 41, Type (0, 0), BuildingBlock: TEMPAE_clean_linker_10, # of connection points: 2
# Relax obj value: 0.108
# Max RMSD: 0.142
# Mean RMSD: 0.142
data_MOF--net-wkb--node1-XOMCOT_clean_sbu_0--edge1-TEMPAE_clean_linker_10
_symmetry_space_group_name_H-M    P1
_symmetry_Int_Tables_number       1
_symmetry_cell_setting            triclinic
loop_
_symmetry_equiv_pos_as_xyz
'x, y, z'
_cell_length_a     47.205936
_cell_length_b     47.242154
_cell_length_c     36.733329
_cell_angle_alpha  89.957145
_cell_angle_beta   89.990372
_cell_angle_gamma 119.93681
loop_
_atom_site_label
_atom_site_type_symbol
_atom_site_fract_x
_atom_site_fract_y
_atom_site_fract_z
_atom_type_partial_charge
Co0 Co 0.05255 0.32541 0.07928 0.0
C1 C 1.0215 0.30726 1.00404 0.0
C2 C 0.05814 0.35771 0.0096 0.0
C3 C 0.04706 0.35263 0.97453 0.0
N4 N 0.04177 0.32964 0.02877 0.0
N5 N 1.02417 0.32105 0.97085 0.0
H6 H 1.00619 0.28146 0.00964 0.0
H7 H 0.07815 0.38032 0.01978 0.0
C8 C 0.10045 0.31688 0.03776 0.0
O9 O 0.07414 0.2925 0.02336 0.0
N10 N 0.06485 0.32227 0.12928 0.0
C11 C 0.04562 0.31276 0.15921 0.0
C12 C 0.0636 0.31247 0.18866 0.0
C13 C 0.09445 0.32821 0.14132 0.0
N14 N 0.09427 0.32232 0.17733 0.0
C15 C 0.04263 0.37981 0.08301 0.0
C16 C 0.10447 0.42747 0.10389 0.0
C17 C 0.08014 0.43629 0.09943 0.0
C18 C 0.04905 0.41169 0.0883 0.0
C19 C 0.09707 0.39493 0.09769 0.0
N20 N 0.06634 0.37157 0.08735 0.0
H21 H 1.01843 0.36167 0.07424 0.0
H22 H 0.11594 0.38859 0.10135 0.0
H23 H 1.02019 0.30624 0.15992 0.0
H24 H 0.11576 0.33626 0.12426 0.0
O25 O 1.00716 0.30744 0.09378 0.0
O26 O 1.0284 0.27735 0.07676 0.0
O27 O 0.09736 0.33488 0.06173 0.0
C28 C 1.00297 0.27843 0.08888 0.0
H29 H 0.05652 0.37035 0.95263 0.0
H30 H 0.05491 0.30586 0.21635 0.0
H31 H 0.12887 0.44535 0.11256 0.0
H32 H 1.02956 0.41692 0.08305 0.0
Co33 Co 0.74757 0.03869 0.24506 0.0
C34 C 0.73831 0.02782 0.16532 0.0
C35 C 0.7205 0.98238 0.19375 0.0
C36 C 0.71673 0.97608 0.15701 0.0
N37 N 0.73447 1.01493 0.19911 0.0
N38 N 0.72797 1.00462 0.13918 0.0
H39 H 0.74899 0.05366 0.15985 0.0
H40 H 0.71336 0.96407 0.21473 0.0
C41 C 0.80334 0.10802 0.22511 0.0
O42 O 0.79928 0.12015 0.25548 0.0
N43 N 0.76038 0.06178 0.29118 0.0
C44 C 0.74064 0.06554 0.31477 0.0
C45 C 0.75873 0.08272 0.34454 0.0
C46 C 0.7899 0.07545 0.30774 0.0
N47 N 0.7898 0.08929 0.33997 0.0
C48 C 0.68251 0.02626 0.23743 0.0
C49 C 0.69383 0.0895 0.23749 0.0
C50 C 0.66135 0.06369 0.24004 0.0
C51 C 0.65605 0.03177 0.23899 0.0
C52 C 0.71988 0.08289 0.23639 0.0
N53 N 0.7141 0.05147 0.23755 0.0
H54 H 0.67748 1.00131 0.23741 0.0
H55 H 0.74438 0.10315 0.23596 0.0
H56 H 0.71489 0.05669 0.31057 0.0
H57 H 0.81126 0.0763 0.29575 0.0
O58 O 0.7206 0.99886 0.27242 0.0
O59 O 0.77197 1.0164 0.25781 0.0
O60 O 0.78385 0.07791 0.21686 0.0
C61 C 0.74544 0.99418 0.27385 0.0
H62 H 0.7063 0.95227 0.14435 0.0
H63 H 0.74991 0.09086 0.36715 0.0
H64 H 0.69917 0.11461 0.2379 0.0
H65 H 0.63147 1.01099 0.23992 0.0
Co66 Co 0.72336 0.73268 0.4158 0.0
C67 C 0.74218 0.73726 0.33701 0.0
C68 C 0.72051 0.68836 0.35737 0.0
C69 C 0.7269 0.68805 0.32103 0.0
N70 N 0.72907 0.71903 0.36745 0.0
N71 N 0.7403 0.71875 0.30788 0.0
H72 H 0.75248 0.76346 0.33607 0.0
H73 H 0.71025 0.66726 0.37486 0.0
C74 C 0.70534 0.77305 0.36528 0.0
O75 O 0.6874 0.74725 0.34503 0.0
N76 N 0.71795 0.7461 0.46387 0.0
C77 C 0.70398 0.72612 0.49255 0.0
C78 C 0.70223 0.74408 0.52105 0.0
C79 C 0.72488 0.77607 0.47538 0.0
N80 N 0.71527 0.77545 0.51025 0.0
C81 C 0.66728 0.66873 0.42232 0.0
C82 C 0.61823 0.68387 0.4151 0.0
C83 C 0.60951 0.65115 0.42183 0.0
C84 C 0.63476 0.64405 0.42539 0.0
C85 C 0.65162 0.70831 0.41271 0.0
N86 N 0.6759 0.70048 0.4151 0.0
H87 H 0.68549 0.66185 0.42708 0.0
H88 H 0.65763 0.73344 0.41019 0.0
H89 H 0.6951 0.70014 0.49255 0.0
H90 H 0.73576 0.79765 0.45836 0.0
O91 O 0.73826 0.70497 0.43763 0.0
O92 O 0.77108 0.75621 0.42237 0.0
O93 O 0.71897 0.77025 0.39418 0.0
C94 C 0.76787 0.72933 0.4362 0.0
H95 H 0.72084 0.66638 0.30536 0.0
H96 H 0.69197 0.7347 0.54766 0.0
H97 H 0.59953 0.69068 0.41305 0.0
H98 H 0.62945 0.61934 0.43091 0.0
Co99 Co 1.00894 0.71256 0.5797 0.0
C100 C 1.02384 0.73146 0.50058 0.0
C101 C 0.05517 0.71549 0.52349 0.0
C102 C 0.06326 0.72293 0.48754 0.0
N103 N 1.02972 0.71979 0.53177 0.0
N104 N 0.04346 0.73277 0.47286 0.0
H105 H 1.00583 0.7391 0.49811 0.0
H106 H 0.06778 0.70801 0.54211 0.0
C107 C 0.95104 0.69297 0.52845 0.0
O108 O 0.95965 0.67509 0.50911 0.0
N109 N 0.98918 0.7058 0.62746 0.0
C110 C 0.99763 0.69447 0.65676 0.0
C111 C 0.97986 0.69472 0.6863 0.0
C112 C 0.9661 0.71254 0.63946 0.0
N113 N 0.96004 0.706 0.67542 0.0
C114 C 1.01838 0.65731 0.58359 0.0
C115 C 0.95406 0.60796 0.58015 0.0
C116 C 0.9785 0.59958 0.58523 0.0
C117 C 1.01092 0.62492 0.5868 0.0
C118 C 0.96264 0.64117 0.57752 0.0
N119 N 0.99473 0.66554 0.57808 0.0
H120 H 0.04347 0.67574 0.58742 0.0
H121 H 0.94332 0.64706 0.57647 0.0
H122 H 1.0158 0.6869 0.65674 0.0
H123 H 0.95463 0.72278 0.62263 0.0
O124 O 0.05113 0.72791 0.60268 0.0
O125 O 0.03156 0.75991 0.58733 0.0
O126 O 0.96708 0.70742 0.55722 0.0
C127 C 0.05528 0.75717 0.60186 0.0
H128 H 0.08185 0.72037 0.47313 0.0
H129 H 0.98125 0.68704 0.71371 0.0
H130 H 0.92853 0.58917 0.57972 0.0
H131 H 1.03064 0.6198 0.59114 0.0
Co132 Co 0.3118 1.00238 0.74231 0.0
C133 C 0.33315 0.02186 0.66365 0.0
C134 C 0.29608 0.03218 0.68151 0.0
C135 C 0.30179 0.03974 0.64531 0.0
N136 N 0.31572 0.02101 0.69354 0.0
N137 N 0.32501 0.03319 0.63376 0.0
H138 H 0.35 1.0127 0.66301 0.0
H139 H 0.27724 0.03312 0.69723 0.0
C140 C 0.2705 0.94426 0.69485 0.0
O141 O 0.29617 0.95348 0.67392 0.0
N142 N 0.30636 0.98385 0.79052 0.0
C143 C 0.3295 0.99147 0.81602 0.0
C144 C 0.3147 0.97426 0.84732 0.0
C145 C 0.27789 0.96237 0.80656 0.0
N146 N 0.28213 0.95589 0.84145 0.0
C147 C 0.37582 1.01397 0.72686 0.0
C148 C 0.3643 0.95152 0.74036 0.0
C149 C 0.3968 0.977 0.73665 0.0
C150 C 0.40216 1.00835 0.72892 0.0
C151 C 0.33844 0.95829 0.73846 0.0
N152 N 0.34439 0.98932 0.73194 0.0
H153 H 0.38086 0.03869 0.72259 0.0
H154 H 0.31391 0.93898 0.7445 0.0
H155 H 0.35523 1.00871 0.81229 0.0
H156 H 0.25457 0.95185 0.79281 0.0
O157 O 0.34157 0.04548 0.76144 0.0
O158 O 0.28805 0.0241 0.75895 0.0
O159 O 0.27319 0.95977 0.72442 0.0
C160 C 0.31638 0.04886 0.76772 0.0
H161 H 0.28808 0.04737 0.62833 0.0
H162 H 0.32709 0.97586 0.87264 0.0
H163 H 0.35905 0.927 0.74682 0.0
H164 H 0.42675 0.02872 0.72555 0.0
Co165 Co 0.34214 0.31 0.91505 0.0
C166 C 0.33975 0.31652 0.83471 0.0
C167 C 0.30421 0.32513 0.86111 0.0
C168 C 0.30146 0.32747 0.82413 0.0
N169 N 0.32808 0.31799 0.86797 0.0
N170 N 0.32375 0.32205 0.80751 0.0
H171 H 0.35908 0.31087 0.83046 0.0
H172 H 0.28942 0.32842 0.88118 0.0
C173 C 0.35787 0.25494 0.89902 0.0
O174 O 0.37578 0.26114 0.92839 0.0
N175 N 0.35554 0.30181 0.96215 0.0
C176 C 0.37874 0.32412 0.98417 0.0
C177 C 0.38147 0.30845 0.01444 0.0
C178 C 0.34299 0.27321 0.98053 0.0
N179 N 0.35936 0.27629 0.0119 0.0
C180 C 0.39213 0.37384 0.89453 0.0
C181 C 0.44586 0.36671 0.90722 0.0
C182 C 0.45121 0.39825 0.89975 0.0
C183 C 0.42356 0.4011 0.89204 0.0
C184 C 0.4139 0.33984 0.90857 0.0
N185 N 0.38733 0.34368 0.90346 0.0
H186 H 0.37136 0.37728 0.89055 0.0
H187 H 0.4109 0.31664 0.91619 0.0
H188 H 0.39313 0.34997 0.97838 0.0
H189 H 0.32382 0.25023 0.96982 0.0
O190 O 0.32895 0.33806 0.93952 0.0
O191 O 0.29671 0.28504 0.9313 0.0
O192 O 0.3456 0.27291 0.89022 0.0
C193 C 0.30045 0.31229 0.94463 0.0
H194 H 0.2844 0.33288 0.81045 0.0
H195 H 0.39884 0.31987 0.03636 0.0
H196 H 0.466 0.3628 0.91377 0.0
H197 H 0.42591 0.4244 0.88488 0.0
Co198 Co 0.71832 0.9958 0.76212 0.0
C199 C 0.72263 1.0076 0.84185 0.0
C200 C 0.75056 0.05256 0.8127 0.0
C201 C 0.7544 0.05919 0.84937 0.0
N202 N 0.73096 1.02007 0.80781 0.0
N203 N 0.73691 0.03094 0.86766 0.0
H204 H 0.70693 0.98191 0.84773 0.0
H205 H 0.76159 0.07061 0.79144 0.0
C206 C 0.70414 0.9266 0.78225 0.0
O207 O 0.68835 0.91426 0.75173 0.0
N208 N 0.70607 0.97218 0.71617 0.0
C209 C 0.68158 0.96806 0.694 0.0
C210 C 0.68161 0.95106 0.66364 0.0
C211 C 0.72166 0.95897 0.69805 0.0
N212 N 0.70669 0.94506 0.6662 0.0
C213 C 0.66745 1.01034 0.77214 0.0
C214 C 0.61451 0.94766 0.77145 0.0
C215 C 0.6088 0.97412 0.7693 0.0
C216 C 0.63585 1.00572 0.77083 0.0
C217 C 0.64683 0.95339 0.77234 0.0
N218 N 0.6729 0.98454 0.77131 0.0
H219 H 0.68782 0.03504 0.77217 0.0
H220 H 0.65054 0.93274 0.77194 0.0
H221 H 0.66472 0.97677 0.69936 0.0
H222 H 0.74305 0.95889 0.70852 0.0
O223 O 0.73164 0.03554 0.73479 0.0
O224 O 0.76429 1.01599 0.74788 0.0
O225 O 0.71467 0.95666 0.79025 0.0
C226 C 0.76056 0.03876 0.73237 0.0
H227 H 0.76883 0.08303 0.86167 0.0
H228 H 0.66383 0.94297 0.64188 0.0
H229 H 0.5943 0.92279 0.77059 0.0
H230 H 0.63267 0.0269 0.77014 0.0
Co231 Co 0.75063 0.72162 0.93274 0.0
C232 C 0.74488 0.73551 0.01099 0.0
C233 C 0.70065 0.69514 0.99028 0.0
C234 C 0.69617 0.69923 0.02639 0.0
N235 N 0.73148 0.71719 0.98077 0.0
N236 N 0.72403 0.72445 0.03977 0.0
H237 H 0.76979 0.75556 0.01212 0.0
H238 H 0.68261 0.67687 0.97243 0.0
C239 C 0.7935 0.70769 0.98442 0.0
O240 O 0.76958 0.69404 0.00813 0.0
N241 N 0.76923 0.7264 0.88404 0.0
C242 C 0.76219 0.73861 0.85428 0.0
C243 C 0.78141 0.7395 0.82575 0.0
C244 C 0.79234 0.71935 0.87263 0.0
N245 N 0.80036 0.72746 0.83724 0.0
C246 C 0.69825 0.6672 0.89758 0.0
C247 C 0.69668 0.61721 0.93794 0.0
C248 C 0.67076 0.6096 0.91361 0.0
C249 C 0.6725 0.63532 0.89275 0.0
C250 C 0.72208 0.64978 0.94218 0.0
N251 N 0.72196 0.67464 0.92317 0.0
H252 H 0.69824 0.68628 0.88145 0.0
H253 H 0.74104 0.65454 0.96132 0.0
H254 H 0.74434 0.74652 0.85291 0.0
H255 H 0.80354 0.70908 0.88982 0.0
O256 O 0.72122 0.73627 0.91564 0.0
O257 O 0.77105 0.76925 0.936 0.0
O258 O 0.7887 0.71703 0.95326 0.0
C259 C 0.74406 0.76596 0.92237 0.0
H260 H 0.6743 0.68366 0.04182 0.0
H261 H 0.7813 0.74814 0.79847 0.0
H262 H 0.69723 0.59827 0.95399 0.0
H263 H 0.65337 0.63134 0.87371 0.0
Co264 Co 0.05716 0.73829 0.09555 0.0
C265 C 0.04409 0.73837 0.17532 0.0
C266 C 1.01142 0.69281 0.14934 0.0
C267 C 1.00465 0.68974 0.18598 0.0
N268 N 0.03616 0.72321 0.14255 0.0
N269 N 1.02525 0.71828 0.20241 0.0
H270 H 0.06393 0.76302 0.17956 0.0
H271 H 0.99967 0.67378 0.12915 0.0
C272 C 0.12823 0.78679 0.11393 0.0
O273 O 0.13799 0.77393 0.08861 0.0
N274 N 0.07759 0.75293 0.04773 0.0
C275 C 0.07092 0.73392 0.01801 0.0
C276 C 0.08964 0.75253 0.98944 0.0
C277 C 0.09941 0.78345 0.03599 0.0
N278 N 0.10811 0.78368 1.00073 0.0
C279 C 0.05371 0.67735 0.07891 0.0
C280 C 0.10219 0.68186 0.12444 0.0
C281 C 0.08523 0.65359 0.10281 0.0
C282 C 0.06028 0.65167 0.08044 0.0
C283 C 0.09445 0.70713 0.12241 0.0
N284 N 0.07135 0.70541 0.09853 0.0
H285 H 0.03335 0.67376 0.06244 0.0
H286 H 0.10658 0.72749 0.14083 0.0
H287 H 0.05309 0.70832 0.01644 0.0
H288 H 0.10921 0.80491 0.05306 0.0
O289 O 1.01533 0.71168 0.0716 0.0
O290 O 0.03407 0.76272 0.08814 0.0
O291 O 0.09769 0.77423 0.12094 0.0
C292 C 1.01076 0.73652 0.07288 0.0
H293 H 0.98622 0.66794 0.19956 0.0
H294 H 0.08923 0.74362 0.96221 0.0
H295 H 0.12118 0.6845 0.14297 0.0
H296 H 0.04492 0.62991 0.06474 0.0
Co297 Co 0.33968 0.04538 0.25888 0.0
C298 C 0.34067 0.02594 0.33744 0.0
C299 C 0.29236 1.00771 0.31651 0.0
C300 C 0.29007 0.99994 0.35269 0.0
N301 N 0.3241 0.02409 0.30644 0.0
N302 N 0.32041 1.01147 0.3662 0.0
H303 H 0.36699 0.03881 0.3395 0.0
H304 H 0.27182 1.00302 0.29952 0.0
C305 C 0.35511 0.10295 0.30823 0.0
O306 O 0.37263 0.09502 0.32906 0.0
N307 N 0.35365 0.06681 0.21214 0.0
C308 C 0.37289 0.06407 0.18701 0.0
C309 C 0.3764 0.08427 0.15804 0.0
C310 C 0.34543 0.08813 0.19811 0.0
N311 N 0.35914 0.09947 0.1651 0.0
C312 C 0.39127 0.03306 0.27565 0.0
C313 C 0.44326 0.09517 0.26372 0.0
C314 C 0.44956 0.06913 0.26729 0.0
C315 C 0.423 0.03799 0.27433 0.0
C316 C 0.41077 0.0891 0.26489 0.0
N317 N 0.38515 0.05816 0.27037 0.0
H318 H 0.3712 1.00846 0.27935 0.0
H319 H 0.40612 0.10886 0.25912 0.0
H320 H 0.38388 0.04884 0.18976 0.0
H321 H 0.32937 0.09487 0.21177 0.0
O322 O 0.32774 1.00354 0.23689 0.0
O323 O 0.29462 0.02371 0.24064 0.0
O324 O 0.34221 0.0868 0.27905 0.0
C325 C 0.29903 0.99974 0.23045 0.0
H326 H 0.26761 0.98854 0.36825 0.0
H327 H 0.39114 0.08793 0.13404 0.0
H328 H 0.46301 0.11961 0.25795 0.0
H329 H 0.42659 1.01721 0.27769 0.0
Co330 Co 0.31184 0.32487 0.42961 0.0
C331 C 0.33186 0.32537 0.50854 0.0
C332 C 0.30406 0.27727 0.48638 0.0
C333 C 0.30991 0.27458 0.52235 0.0
N334 N 0.31779 0.30914 0.47713 0.0
N335 N 0.32728 0.30475 0.53658 0.0
H336 H 0.34436 0.35162 0.51133 0.0
H337 H 0.28927 0.25674 0.46894 0.0
C338 C 0.26975 0.34033 0.47911 0.0
O339 O 0.29531 0.35839 0.49951 0.0
N340 N 0.30447 0.33902 0.38276 0.0
C341 C 0.32585 0.3522 0.355 0.0
C342 C 0.30963 0.35514 0.32522 0.0
C343 C 0.27569 0.33433 0.36964 0.0
N344 N 0.2782 0.34403 0.33463 0.0
C345 C 0.37536 0.37705 0.44743 0.0
C346 C 0.36411 0.42827 0.43462 0.0
C347 C 0.39658 0.4354 0.43987 0.0
C348 C 0.40166 0.40911 0.4473 0.0
C349 C 0.33827 0.39559 0.43497 0.0
N350 N 0.34411 0.37037 0.44109 0.0
H351 H 0.38032 0.35725 0.4513 0.0
H352 H 0.31385 0.39048 0.42833 0.0
H353 H 0.35122 0.35846 0.35605 0.0
H354 H 0.25301 0.32282 0.38478 0.0
O355 O 0.34173 0.31293 0.40715 0.0
O356 O 0.28849 0.27994 0.41152 0.0
O357 O 0.27293 0.32714 0.45013 0.0
C358 C 0.31671 0.28429 0.40072 0.0
H359 H 0.30028 0.2519 0.53733 0.0
H360 H 0.32003 0.36449 0.29864 0.0
H361 H 0.35885 0.44758 0.42839 0.0
H362 H 0.42604 0.41314 0.45212 0.0
Co363 Co 1.004 0.29984 0.59542 0.0
C364 C 1.00837 0.30079 0.67647 0.0
C365 C 0.05594 0.32283 0.65199 0.0
C366 C 0.05951 0.32374 0.68916 0.0
N367 N 1.02383 0.30829 0.64378 0.0
N368 N 1.02964 0.30991 0.70469 0.0
H369 H 0.98217 0.2895 0.67963 0.0
H370 H 0.07579 0.33239 0.6326 0.0
C371 C 0.93331 0.24368 0.60649 0.0
O372 O 0.92347 0.25028 0.5759 0.0
N373 N 0.9848 0.29141 0.54707 0.0
C374 C 0.98316 0.31319 0.52479 0.0
C375 C 0.96753 0.29755 0.4932 0.0
C376 C 0.97183 0.26326 0.52784 0.0
N377 N 0.95986 0.26595 0.49531 0.0
C378 C 1.01626 0.364 0.60998 0.0
C379 C 0.95372 0.35385 0.60189 0.0
C380 C 0.97973 0.38616 0.60484 0.0
C381 C 1.01119 0.39075 0.61009 0.0
C382 C 0.9599 0.32758 0.60193 0.0
N383 N 0.9911 0.33289 0.60466 0.0
H384 H 0.04095 0.36853 0.61282 0.0
H385 H 0.93965 0.30345 0.59811 0.0
H386 H 0.99237 0.33866 0.53112 0.0
H387 H 0.96916 0.24074 0.53865 0.0
O388 O 0.04592 0.32845 0.57273 0.0
O389 O 1.02636 0.2758 0.58227 0.0
O390 O 0.96264 0.26205 0.61798 0.0
C391 C 0.0499 0.30327 0.5694 0.0
H392 H 0.08248 0.33357 0.7036 0.0
H393 H 0.96187 0.30862 0.47065 0.0
H394 H 0.92893 0.34891 0.59796 0.0
H395 H 0.03202 0.41501 0.61361 0.0
C396 C 0.2305 0.3512 0.32446 0.0
C397 C 0.25229 0.34148 0.31161 0.0
C398 C 0.20525 0.3491 0.30221 0.0
C399 C 0.20095 0.33585 0.26667 0.0
C400 C 0.22269 0.32555 0.25381 0.0
C401 C 0.24841 0.32902 0.27622 0.0
C402 C 0.18334 0.3613 0.31665 0.0
C403 C 0.21839 0.31028 0.21667 0.0
C404 C 0.11614 0.30141 0.2247 0.0
C405 C 0.12109 0.32554 0.19921 0.0
C406 C 0.14201 0.30415 0.24628 0.0
C407 C 0.17342 0.33227 0.24319 0.0
C408 C 0.17842 0.35692 0.2177 0.0
C409 C 0.15233 0.35298 0.1956 0.0
C410 C 0.13577 0.27679 0.27217 0.0
C411 C 0.21119 0.3877 0.21421 0.0
H412 H 0.23371 0.36105 0.35175 0.0
H413 H 0.26508 0.32118 0.26649 0.0
H414 H 0.18356 0.37975 0.29775 0.0
H415 H 0.15777 0.34085 0.31829 0.0
H416 H 0.19094 0.37243 0.3441 0.0
H417 H 0.23689 0.30284 0.21106 0.0
H418 H 0.19367 0.28843 0.21448 0.0
H419 H 0.22027 0.3277 0.19526 0.0
H420 H 0.09206 0.28005 0.2272 0.0
H421 H 0.15605 0.37177 0.17611 0.0
H422 H 0.1402 0.28589 0.30059 0.0
H423 H 0.15299 0.26778 0.26639 0.0
H424 H 0.11037 0.25595 0.27017 0.0
H425 H 0.21868 0.40018 0.24097 0.0
H426 H 0.2108 0.40497 0.19394 0.0
H427 H 0.23009 0.38158 0.20595 0.0
C428 C 0.84822 0.1311 0.34689 0.0
C429 C 0.81743 0.11065 0.36247 0.0
C430 C 0.87406 0.15514 0.36774 0.0
C431 C 0.86904 0.15878 0.4051 0.0
C432 C 0.83851 0.13709 0.42133 0.0
C433 C 0.81315 0.11338 0.39985 0.0
C434 C 0.90617 0.17771 0.34933 0.0
C435 C 0.83206 0.13994 0.46106 0.0
C436 C 0.93988 0.21059 0.46942 0.0
C437 C 0.93886 0.23978 0.47081 0.0
C438 C 0.91796 0.18427 0.44743 0.0
C439 C 0.89432 0.18711 0.42641 0.0
C440 C 0.89363 0.21672 0.42713 0.0
C441 C 0.9158 0.24256 0.44922 0.0
C442 C 0.91963 0.1532 0.44726 0.0
C443 C 0.86874 0.22082 0.40537 0.0
H444 H 0.85169 0.12943 0.31799 0.0
H445 H 0.7896 0.09736 0.41217 0.0
H446 H 0.90961 0.2027 0.34793 0.0
H447 H 0.92681 0.17922 0.36534 0.0
H448 H 0.90733 0.16964 0.32123 0.0
H449 H 0.80807 0.11956 0.47024 0.0
H450 H 0.85156 0.1403 0.47824 0.0
H451 H 0.83238 0.1633 0.46571 0.0
H452 H 0.95774 0.20824 0.48565 0.0
H453 H 0.91422 0.26461 0.45043 0.0
H454 H 0.92167 0.1463 0.41892 0.0
H455 H 0.89677 0.13294 0.45887 0.0
H456 H 0.94066 0.15554 0.46327 0.0
H457 H 0.87003 0.21539 0.37624 0.0
H458 H 0.87241 0.24588 0.40753 0.0
H459 H 0.84376 0.20322 0.41513 0.0
C460 C 0.69175 0.79576 0.55639 0.0
C461 C 0.71654 0.80194 0.53121 0.0
C462 C 0.69256 0.82093 0.57746 0.0
C463 C 0.71905 0.85323 0.57372 0.0
C464 C 0.74424 0.85971 0.54836 0.0
C465 C 0.74254 0.83403 0.52718 0.0
C466 C 0.66482 0.81295 0.60357 0.0
C467 C 0.7731 0.89369 0.54386 0.0
C468 C 0.70187 0.91982 0.60571 0.0
C469 C 0.7134 0.92503 0.64175 0.0
C470 C 0.70463 0.89746 0.58286 0.0
C471 C 0.71975 0.88006 0.59603 0.0
C472 C 0.733 0.88641 0.63167 0.0
C473 C 0.72953 0.90864 0.65413 0.0
C474 C 0.68999 0.89137 0.54516 0.0
C475 C 0.74966 0.8687 0.64667 0.0
H476 H 0.67132 0.77115 0.55921 0.0
H477 H 0.76187 0.8389 0.50798 0.0
H478 H 0.67437 0.81954 0.63173 0.0
H479 H 0.65307 0.82757 0.59667 0.0
H480 H 0.64589 0.78666 0.60305 0.0
H481 H 0.79081 0.89466 0.52326 0.0
H482 H 0.76462 0.9108 0.53552 0.0
H483 H 0.78595 0.90252 0.57027 0.0
H484 H 0.69004 0.93279 0.59544 0.0
H485 H 0.73837 0.91215 0.68187 0.0
H486 H 0.66918 0.86599 0.54339 0.0
H487 H 0.70826 0.89389 0.52453 0.0
H488 H 0.68102 0.90842 0.53809 0.0
H489 H 0.7314 0.84248 0.6505 0.0
H490 H 0.76172 0.87885 0.67323 0.0
H491 H 0.76825 0.87008 0.62715 0.0
C492 C 0.94674 0.72251 0.73367 0.0
C493 C 0.93762 0.71034 0.69822 0.0
C494 C 0.92488 0.72568 0.75698 0.0
C495 C 0.89275 0.71564 0.74489 0.0
C496 C 0.88337 0.70325 0.70906 0.0
C497 C 0.90609 0.70117 0.68598 0.0
C498 C 0.93628 0.73998 0.79446 0.0
C499 C 0.8492 0.69171 0.69531 0.0
C500 C 0.82778 0.69706 0.81753 0.0
C501 C 0.82454 0.72493 0.81568 0.0
C502 C 0.84962 0.6935 0.7944 0.0
C503 C 0.86924 0.71879 0.76952 0.0
C504 C 0.86662 0.74736 0.76836 0.0
C505 C 0.84408 0.74989 0.79113 0.0
C506 C 0.85125 0.66242 0.79607 0.0
C507 C 0.88764 0.77531 0.74308 0.0
H508 H 0.97124 0.72991 0.743 0.0
H509 H 0.89896 0.69145 0.6587 0.0
H510 H 0.93333 0.7617 0.79801 0.0
H511 H 0.92104 0.72193 0.81553 0.0
H512 H 0.96228 0.74735 0.79937 0.0
H513 H 0.84553 0.68198 0.66713 0.0
H514 H 0.83115 0.67229 0.71348 0.0
H515 H 0.84396 0.71212 0.6958 0.0
H516 H 0.81246 0.67765 0.83625 0.0
H517 H 0.84183 0.7716 0.78997 0.0
H518 H 0.87639 0.66808 0.80307 0.0
H519 H 0.84539 0.65048 0.76896 0.0
H520 H 0.83404 0.64488 0.81646 0.0
H521 H 0.91386 0.78391 0.74825 0.0
H522 H 0.88338 0.79627 0.74636 0.0
H523 H 0.88257 0.76695 0.7144 0.0
C524 C 0.26582 0.92279 0.89824 0.0
C525 C 0.25726 0.934 0.86693 0.0
C526 C 0.2419 0.9006 0.92242 0.0
C527 C 0.20841 0.88884 0.9151 0.0
C528 C 0.19954 0.90056 0.88415 0.0
C529 C 0.22398 0.92305 0.86064 0.0
C530 C 0.25248 0.88888 0.9552 0.0
C531 C 0.16412 0.88853 0.87516 0.0
C532 C 0.1475 0.80392 0.94955 0.0
C533 C 0.13332 0.81043 0.97974 0.0
C534 C 0.17171 0.82915 0.92844 0.0
C535 C 0.18265 0.86205 0.93778 0.0
C536 C 0.16897 0.86902 0.96851 0.0
C537 C 0.14444 0.84316 0.98908 0.0
C538 C 0.18563 0.8205 0.89604 0.0
C539 C 0.18019 0.9038 0.97956 0.0
H540 H 0.29121 0.93061 0.90355 0.0
H541 H 0.21678 0.93182 0.83719 0.0
H542 H 0.24061 0.89119 0.98021 0.0
H543 H 0.24464 0.86263 0.95191 0.0
H544 H 0.27941 0.9027 0.9591 0.0
H545 H 0.16127 0.9015 0.85145 0.0
H546 H 0.15162 0.86202 0.86892 0.0
H547 H 0.15148 0.8917 0.89894 0.0
H548 H 0.14001 0.77895 0.94246 0.0
H549 H 0.13377 0.84863 0.01219 0.0
H550 H 0.21236 0.83091 0.89949 0.0
H551 H 0.18191 0.83127 0.8709 0.0
H552 H 0.17423 0.79369 0.89214 0.0
H553 H 0.20693 0.91702 0.9846 0.0
H554 H 0.1676 0.90519 1.00447 0.0
H555 H 0.17556 0.9167 0.95713 0.0
C556 C 0.32808 0.2204 0.03789 0.0
C557 C 0.35732 0.25036 0.03479 0.0
C558 C 0.3264 0.1947 0.05907 0.0
C559 C 0.35468 0.19892 0.0774 0.0
C560 C 0.38421 0.22911 0.0744 0.0
C561 C 0.38514 0.25435 0.05327 0.0
C562 C 0.29438 0.163 0.06178 0.0
C563 C 0.41504 0.23463 0.09315 0.0
C564 C 0.34866 0.14575 0.15848 0.0
C565 C 0.35666 0.12349 0.14279 0.0
C566 C 0.34701 0.16975 0.13738 0.0
C567 C 0.35373 0.17188 0.09959 0.0
C568 C 0.36135 0.14926 0.08344 0.0
C569 C 0.36265 0.12537 0.10515 0.0
C570 C 0.33877 0.19333 0.15575 0.0
C571 C 0.36877 0.15069 0.04327 0.0
H572 H 0.30644 0.21711 0.02393 0.0
H573 H 0.40804 0.27705 0.05052 0.0
H574 H 0.29734 0.14265 0.05118 0.0
H575 H 0.28686 0.15746 0.09071 0.0
H576 H 0.27451 0.16371 0.04632 0.0
H577 H 0.43596 0.2596 0.08836 0.0
H578 H 0.41085 0.23086 0.12291 0.0
H579 H 0.42182 0.21663 0.08325 0.0
H580 H 0.3444 0.14501 0.1875 0.0
H581 H 0.36834 0.10811 0.09253 0.0
H582 H 0.31792 0.19325 0.14171 0.0
H583 H 0.35992 0.2185 0.15386 0.0
H584 H 0.33238 0.18732 0.18492 0.0
H585 H 0.34826 0.14928 0.02711 0.0
H586 H 0.37306 0.13062 0.03458 0.0
H587 H 0.39083 0.17437 0.03667 0.0
C588 C 0.061 0.4755 0.11836 0.0
C589 C 0.08632 0.47053 0.10555 0.0
C590 C 0.06438 0.50681 0.11985 0.0
C591 C 0.0943 0.53454 0.10957 0.0
C592 C 0.12078 0.53012 0.09902 0.0
C593 C 0.1164 0.49827 0.09675 0.0
C594 C 0.03526 0.50997 0.1309 0.0
C595 C 0.15346 0.55896 0.08894 0.0
C596 C 0.08681 0.60617 0.07283 0.0
C597 C 0.09184 0.62543 0.10404 0.0
C598 C 0.08847 0.57725 0.07409 0.0
C599 C 0.09657 0.56746 0.1071 0.0
C600 C 0.10396 0.58785 0.13814 0.0
C601 C 0.10115 0.61628 0.13639 0.0
C602 C 0.07999 0.55634 0.04033 0.0
C603 C 0.11374 0.57906 0.17362 0.0
H604 H 0.03798 0.45469 0.12664 0.0
H605 H 0.13628 0.49514 0.08686 0.0
H606 H 0.04175 0.52717 0.15404 0.0
H607 H 1.02789 0.52016 0.10791 0.0
H608 H 1.01391 0.48618 0.13892 0.0
H609 H 0.17282 0.55221 0.08686 0.0
H610 H 0.15152 0.56894 0.06231 0.0
H611 H 0.16103 0.57874 0.10937 0.0
H612 H 0.08078 0.61328 0.04724 0.0
H613 H 0.10515 0.63061 0.16082 0.0
H614 H 0.05792 0.53227 0.04556 0.0
H615 H 0.10017 0.55172 0.0333 0.0
H616 H 0.07512 0.56776 0.01649 0.0
H617 H 0.09215 0.55792 0.18613 0.0
H618 H 0.12364 0.59965 0.19329 0.0
H619 H 0.1324 0.57172 0.16887 0.0
C620 C 0.48672 0.05181 0.23815 0.0
C621 C 0.4829 0.07324 0.26147 0.0
C622 C 0.5171 0.05333 0.23387 0.0
C623 C 0.54466 0.07658 0.2538 0.0
C624 C 0.5412 0.09886 0.27677 0.0
C625 C 0.5105 0.09714 0.28007 0.0
C626 C 0.51947 0.0294 0.20859 0.0
C627 C 0.56966 0.12377 0.29892 0.0
C628 C 0.60901 0.05151 0.27145 0.0
C629 C 0.63295 0.06935 0.24505 0.0
C630 C 0.58102 0.05467 0.27546 0.0
C631 C 0.57626 0.07589 0.25218 0.0
C632 C 0.60071 0.09458 0.22599 0.0
C633 C 0.62883 0.09131 0.22296 0.0
C634 C 0.5561 0.0346 0.30416 0.0
C635 C 0.59661 0.11718 0.20027 0.0
H636 H 0.46568 0.03355 0.22325 0.0
H637 H 0.5078 0.11371 0.29823 0.0
H638 H 0.53987 0.0426 0.18906 0.0
H639 H 0.52483 1.01267 0.22453 0.0
H640 H 0.49655 1.01451 0.19301 0.0
H641 H 0.56372 0.14067 0.31366 0.0
H642 H 0.57692 0.11107 0.3191 0.0
H643 H 0.5911 0.13831 0.28109 0.0
H644 H 0.61214 0.03485 0.28905 0.0
H645 H 0.64706 0.10511 0.2024 0.0
H646 H 0.53288 1.01661 0.29094 0.0
H647 H 0.55071 0.05056 0.32149 0.0
H648 H 0.56449 0.02116 0.32189 0.0
H649 H 0.57535 0.10269 0.1822 0.0
H650 H 0.61861 0.13159 0.18308 0.0
H651 H 0.59145 0.13427 0.21572 0.0
C652 C 0.55109 0.61713 0.39964 0.0
C653 C 0.57484 0.62405 0.42647 0.0
C654 C 0.52009 0.58838 0.40129 0.0
C655 C 0.51245 0.56609 0.43065 0.0
C656 C 0.53578 0.57403 0.45877 0.0
C657 C 0.56653 0.60265 0.45626 0.0
C658 C 0.49617 0.58105 0.37064 0.0
C659 C 0.5289 0.55148 0.49083 0.0
C660 C 0.42488 0.49682 0.45023 0.0
C661 C 0.42531 0.46946 0.43585 0.0
C662 C 0.45261 0.5285 0.44796 0.0
C663 C 0.48156 0.53321 0.43065 0.0
C664 C 0.4817 0.50582 0.41511 0.0
C665 C 0.45381 0.47454 0.4179 0.0
C666 C 0.45123 0.55682 0.46502 0.0
C667 C 0.5117 0.5094 0.39611 0.0
H668 H 0.55732 0.63334 0.37641 0.0
H669 H 0.58459 0.60791 0.47731 0.0
H670 H 0.49364 0.55995 0.35473 0.0
H671 H 0.47164 0.57413 0.38158 0.0
H672 H 0.50412 0.60218 0.35193 0.0
H673 H 0.54825 0.56244 0.51196 0.0
H674 H 0.5051 0.54516 0.50343 0.0
H675 H 0.52718 0.52836 0.4814 0.0
H676 H 0.40317 0.49336 0.46422 0.0
H677 H 0.45436 0.45387 0.40589 0.0
H678 H 0.45891 0.57697 0.44504 0.0
H679 H 0.46857 0.56649 0.4882 0.0
H680 H 0.42638 0.54974 0.47511 0.0
H681 H 0.51961 0.52818 0.37439 0.0
H682 H 0.50741 0.48613 0.38376 0.0
H683 H 0.53213 0.51779 0.41583 0.0
C684 C 0.95279 0.54064 0.56499 0.0
C685 C 0.97121 0.56513 0.59048 0.0
C686 C 0.95029 0.50958 0.5671 0.0
C687 C 0.9663 0.50268 0.59559 0.0
C688 C 0.98337 0.52681 0.62247 0.0
C689 C 0.98571 0.5576 0.6195 0.0
C690 C 0.9319 0.48474 0.5378 0.0
C691 C 1.00052 0.52066 0.65358 0.0
C692 C 0.94806 0.41562 0.61725 0.0
C693 C 0.97479 0.41511 0.60107 0.0
C694 C 0.94439 0.44351 0.61493 0.0
C695 C 0.96787 0.47162 0.5958 0.0
C696 C 0.99432 0.47082 0.57855 0.0
C697 C 0.99743 0.44277 0.58138 0.0
C698 C 0.91587 0.44321 0.63383 0.0
C699 C 1.01987 0.49995 0.55763 0.0
H700 H 0.94167 0.54629 0.5424 0.0
H701 H 0.9997 0.57626 0.63955 0.0
H702 H 0.94941 0.48129 0.52086 0.0
H703 H 0.91467 0.46072 0.5501 0.0
H704 H 0.91799 0.49236 0.5198 0.0
H705 H 1.01025 0.54072 0.67392 0.0
H706 H 0.98356 0.49743 0.66753 0.0
H707 H 1.02118 0.51822 0.64287 0.0
H708 H 0.93045 0.39455 0.63262 0.0
H709 H 1.01777 0.44252 0.56802 0.0
H710 H 0.90254 0.4505 0.61458 0.0
H711 H 0.92495 0.4613 0.6563 0.0
H712 H 0.89846 0.41882 0.64528 0.0
H713 H 1.00805 0.50738 0.53653 0.0
H714 H 0.03799 0.49493 0.54421 0.0
H715 H 0.03311 0.52097 0.57635 0.0
C716 C 0.42787 0.94693 0.72564 0.0
C717 C 0.4253 0.97196 0.74312 0.0
C718 C 0.456 0.94388 0.72985 0.0
C719 C 0.48196 0.966 0.75263 0.0
C720 C 0.47877 0.99046 0.77144 0.0
C721 C 0.45074 0.99326 0.76626 0.0
C722 C 0.45845 0.91774 0.70889 0.0
C723 C 0.5054 1.01427 0.79645 0.0
C724 C 0.5489 0.94866 0.78587 0.0
C725 C 0.57534 0.96951 0.76358 0.0
C726 C 0.5181 0.94657 0.78213 0.0
C727 C 0.51342 0.9653 0.75503 0.0
C728 C 0.53975 0.9853 0.73154 0.0
C729 C 0.57028 0.98732 0.73626 0.0
C730 C 0.49094 0.92526 0.80808 0.0
C731 C 0.53594 1.00531 0.70188 0.0
H732 H 0.40839 0.93043 0.70767 0.0
H733 H 0.44873 1.01235 0.78034 0.0
H734 H 0.47859 0.92931 0.68873 0.0
H735 H 0.46445 0.903 0.72752 0.0
H736 H 0.43546 0.90115 0.69424 0.0
H737 H 0.49818 0.03022 0.81119 0.0
H738 H 0.51173 1.00089 0.81672 0.0
H739 H 0.5278 0.02998 0.78045 0.0
H740 H 0.55262 0.9349 0.80709 0.0
H741 H 0.59044 1.00312 0.71856 0.0
H742 H 0.46849 0.90848 0.79277 0.0
H743 H 0.48495 0.94077 0.82544 0.0
H744 H 0.49765 0.91055 0.82597 0.0
H745 H 0.51441 0.98955 0.68472 0.0
H746 H 0.55789 1.01762 0.68413 0.0
H747 H 0.53161 0.02425 0.71423 0.0
C748 C 0.51314 0.42644 0.89304 0.0
C749 C 0.4849 0.42806 0.90159 0.0
C750 C 0.54467 0.45419 0.89546 0.0
C751 C 0.54836 0.48475 0.90587 0.0
C752 C 0.52009 0.48665 0.9144 0.0
C753 C 0.489 0.45842 0.91267 0.0
C754 C 0.5741 0.45081 0.88679 0.0
C755 C 0.52263 0.51868 0.92518 0.0
C756 C 0.62884 0.55556 0.94169 0.0
C757 C 0.64137 0.5758 0.91085 0.0
C758 C 0.59944 0.52529 0.94011 0.0
C759 C 0.58154 0.51499 0.9071 0.0
C760 C 0.5945 0.53473 0.87565 0.0
C761 C 0.62428 0.56447 0.87779 0.0
C762 C 0.58701 0.50478 0.97416 0.0
C763 C 0.57626 0.52507 0.83994 0.0
H764 H 0.51073 0.40352 0.88404 0.0
H765 H 0.46787 0.46027 0.92049 0.0
H766 H 0.58703 0.46592 0.86269 0.0
H767 H 0.59157 0.45997 0.90988 0.0
H768 H 0.56738 0.42511 0.88114 0.0
H769 H 0.49833 0.51633 0.93018 0.0
H770 H 0.53754 0.5282 0.95024 0.0
H771 H 0.53519 0.5371 0.90341 0.0
H772 H 0.64135 0.56382 0.96753 0.0
H773 H 0.63387 0.57914 0.85341 0.0
H774 H 0.58043 0.47917 0.96833 0.0
H775 H 0.56453 0.50438 0.98375 0.0
H776 H 0.60531 0.51428 0.99648 0.0
H777 H 0.57107 0.50034 0.83179 0.0
H778 H 0.59006 0.54246 0.81765 0.0
H779 H 0.55237 0.52403 0.84312 0.0
C780 C 0.99333 0.28051 0.75716 0.0
C781 C 1.02271 0.3063 0.74339 0.0
C782 C 0.98721 0.2765 0.79499 0.0
C783 C 1.01106 0.29871 0.81965 0.0
C784 C 0.04059 0.32485 0.80579 0.0
C785 C 0.04595 0.32832 0.76806 0.0
C786 C 0.95549 0.24822 0.80849 0.0
C787 C 0.0666 0.34948 0.83085 0.0
C788 C 0.99584 0.31942 0.91454 0.0
C789 C 1.01094 0.30629 0.93613 0.0
C790 C 0.99264 0.31433 0.87674 0.0
C791 C 1.00533 0.29601 0.85995 0.0
C792 C 1.01778 0.28009 0.88215 0.0
C793 C 1.02044 0.28544 0.92008 0.0
C794 C 0.97868 0.33135 0.85446 0.0
C795 C 0.03124 0.26005 0.86554 0.0
H796 H 0.97537 0.26313 0.73842 0.0
H797 H 0.06842 0.34867 0.75784 0.0
H798 H 0.96034 0.22965 0.82092 0.0
H799 H 0.94446 0.25631 0.82984 0.0
H800 H 0.93747 0.23645 0.78617 0.0
H801 H 0.08842 0.36805 0.81579 0.0
H802 H 0.0565 0.36227 0.84697 0.0
H803 H 0.07452 0.33686 0.85037 0.0
H804 H 0.98886 0.33583 0.92701 0.0
H805 H 0.03266 0.27579 0.93669 0.0
H806 H 0.9618 0.31473 0.83332 0.0
H807 H 0.99885 0.35264 0.8403 0.0
H808 H 0.96534 0.34021 0.87164 0.0
H809 H 1.0146 0.24368 0.8441 0.0
H810 H 0.03497 0.24509 0.88627 0.0
H811 H 0.05513 0.2766 0.85249 0.0
C812 C 0.76279 0.04624 0.92816 0.0
C813 C 0.73524 0.02684 0.90665 0.0
C814 C 0.76171 0.04294 0.9662 0.0
C815 C 0.73215 1.02002 0.9833 0.0
C816 C 0.70416 1.00045 0.96173 0.0
C817 C 0.70614 1.00386 0.92361 0.0
C818 C 0.79233 0.06372 0.98804 0.0
C819 C 0.67207 0.97609 0.97896 0.0
C820 C 0.73637 0.98926 0.0777 0.0
C821 C 0.72945 1.009 0.10024 0.0
C822 C 0.73744 0.99268 0.03968 0.0
C823 C 0.73086 1.01606 0.02367 0.0
C824 C 0.72371 0.03601 0.04629 0.0
C825 C 0.72344 0.03247 0.08436 0.0
C826 C 0.74595 0.97147 0.01667 0.0
C827 C 0.71607 0.06087 0.03027 0.0
H828 H 0.78545 0.06369 0.91508 0.0
H829 H 0.68476 0.98906 0.90706 0.0
H830 H 0.78793 0.07875 0.00795 0.0
H831 H 0.79899 0.04783 1.00378 0.0
H832 H 0.81339 0.08024 0.97056 0.0
H833 H 0.65233 0.96351 0.9585 0.0
H834 H 0.675 0.95741 0.99415 0.0
H835 H 0.66438 0.98861 0.99887 0.0
H836 H 0.74147 0.97141 0.08995 0.0
H837 H 0.7178 0.04753 0.10172 0.0
H838 H 0.76799 0.98704 1.00006 0.0
H839 H 0.72572 0.95669 0.99751 0.0
H840 H 0.75072 0.95468 0.03337 0.0
H841 H 0.73727 0.07921 0.01429 0.0
H842 H 0.71009 0.07381 0.0515 0.0
H843 H 0.69508 0.04869 0.01127 0.0
C844 C 0.76287 0.75023 0.09136 0.0
C845 C 0.73072 0.73367 0.07784 0.0
C846 C 0.7691 0.75485 0.12907 0.0
C847 C 0.74262 0.74183 0.15397 0.0
C848 C 0.71026 0.72689 0.14043 0.0
C849 C 0.7048 0.72358 0.10272 0.0
C850 C 0.80403 0.77218 0.14222 0.0
C851 C 0.68115 0.71228 0.16578 0.0
C852 C 0.74947 0.70719 0.24463 0.0
C853 C 0.7466 0.72802 0.26979 0.0
C854 C 0.74957 0.71225 0.20698 0.0
C855 C 0.74806 0.73962 0.19376 0.0
C856 C 0.74812 0.76242 0.21892 0.0
C857 C 0.74693 0.75613 0.2566 0.0
C858 C 0.74914 0.687 0.18138 0.0
C859 C 0.74788 0.79266 0.20613 0.0
H860 H 0.78326 0.75842 0.07276 0.0
H861 H 0.6799 0.71187 0.09287 0.0
H862 H 0.80712 0.78824 0.16572 0.0
H863 H 0.81073 0.75392 0.1514 0.0
H864 H 0.8213 0.78714 0.12032 0.0
H865 H 0.65762 0.70281 0.15099 0.0
H866 H 0.68061 0.69185 0.18131 0.0
H867 H 0.68316 0.73073 0.18581 0.0
H868 H 0.75042 0.68604 0.25425 0.0
H869 H 0.74487 0.77259 0.27549 0.0
H870 H 0.76948 0.69873 0.16154 0.0
H871 H 0.72597 0.6754 0.16566 0.0
H872 H 0.75127 0.66754 0.19598 0.0
H873 H 0.76454 0.80385 0.18255 0.0
H874 H 0.75525 0.81113 0.22815 0.0
H875 H 0.72289 0.78603 0.19718 0.0
C876 C 1.01206 0.73247 0.41846 0.0
C877 C 0.04175 0.7392 0.43458 0.0
C878 C 1.00908 0.73331 0.38033 0.0
C879 C 0.03632 0.74071 0.35775 0.0
C880 C 0.06681 0.74958 0.37403 0.0
C881 C 0.06918 0.749 0.4121 0.0
C882 C 0.97626 0.72434 0.3642 0.0
C883 C 0.0965 0.75749 0.35123 0.0
C884 C 1.02104 0.69888 0.26564 0.0
C885 C 1.02793 0.72437 0.2412 0.0
C886 C 1.0232 0.70387 0.30343 0.0
C887 C 0.03222 0.73515 0.3175 0.0
C888 C 0.03894 0.76103 0.29304 0.0
C889 C 0.03701 0.7554 0.25515 0.0
C890 C 1.01645 0.67569 0.3283 0.0
C891 C 0.0482 0.7946 0.30691 0.0
H892 H 0.99069 0.72486 0.43543 0.0
H893 H 0.09244 0.7551 0.42423 0.0
H894 H 0.97907 0.74165 0.34219 0.0
H895 H 0.96521 0.69963 0.35194 0.0
H896 H 0.9591 0.7242 0.38501 0.0
H897 H 0.11905 0.76689 0.3679 0.0
H898 H 0.09252 0.73511 0.3369 0.0
H899 H 0.10042 0.7759 0.33014 0.0
H900 H 1.01458 0.67499 0.25514 0.0
H901 H 0.04209 0.77511 0.23644 0.0
H902 H 0.9966 0.67117 0.34768 0.0
H903 H 0.03858 0.68183 0.3446 0.0
H904 H 1.00924 0.65277 0.31306 0.0
H905 H 1.02924 0.79298 0.32602 0.0
H906 H 0.05115 0.81168 0.2845 0.0
H907 H 0.07148 0.80498 0.32228 0.0
C908 C 0.32963 0.05312 0.57063 0.0
C909 C 0.33448 0.03373 0.59609 0.0
C910 C 0.33272 0.04988 0.53312 0.0
C911 C 0.34213 0.02749 0.52043 0.0
C912 C 0.35009 1.01004 0.54599 0.0
C913 C 0.34576 1.01301 0.58351 0.0
C914 C 0.3237 0.06886 0.50704 0.0
C915 C 0.36158 0.98696 0.53373 0.0
C916 C 0.30461 0.99065 0.42905 0.0
C917 C 0.32847 1.0122 0.40444 0.0
C918 C 0.30941 0.99443 0.46681 0.0
C919 C 0.33941 1.01966 0.4807 0.0
C920 C 0.36482 0.03957 0.45614 0.0
C921 C 0.35893 0.03594 0.41833 0.0
C922 C 0.28142 0.97274 0.49179 0.0
C923 C 0.39769 0.06582 0.46974 0.0
H924 H 0.32211 0.0701 0.57994 0.0
H925 H 0.34985 0.99801 0.60268 0.0
H926 H 0.34387 0.08278 0.4875 0.0
H927 H 0.30189 0.05166 0.49101 0.0
H928 H 0.31811 0.08625 0.52129 0.0
H929 H 0.37376 0.98129 0.55614 0.0
H930 H 0.34032 0.96373 0.52444 0.0
H931 H 0.37881 0.99742 0.5105 0.0
H932 H 0.28145 0.9714 0.41888 0.0
H933 H 0.37778 0.05266 0.39992 0.0
H934 H 0.2733 0.98776 0.50695 0.0
H935 H 0.28943 0.96086 0.51214 0.0
H936 H 0.26012 0.95342 0.47674 0.0
H937 H 0.39597 0.08739 0.4784 0.0
H938 H 0.41673 0.07377 0.44825 0.0
H939 H 0.40557 0.05714 0.49368 0.0
C940 C 0.33685 0.28915 0.59769 0.0
C941 C 0.33477 0.31197 0.5749 0.0
C942 C 0.3386 0.29267 0.63571 0.0
C943 C 0.33907 0.32016 0.65166 0.0
C944 C 0.33939 0.34454 0.62879 0.0
C945 C 0.33702 0.34007 0.59071 0.0
C946 C 0.33791 0.26589 0.65885 0.0
C947 C 0.34054 0.37455 0.64461 0.0
C948 C 0.30071 0.30807 0.74564 0.0
C949 C 0.32803 0.32119 0.76867 0.0
C950 C 0.30408 0.30775 0.70769 0.0
C951 C 0.33566 0.32144 0.69207 0.0
C952 C 0.36345 0.33494 0.71517 0.0
C953 C 0.35927 0.33431 0.75325 0.0
C954 C 0.2737 0.29236 0.68432 0.0
C955 C 0.39754 0.35029 0.69963 0.0
H956 H 0.33603 0.26779 0.58582 0.0
H957 H 0.3354 0.35787 0.57358 0.0
H958 H 0.35805 0.27626 0.67903 0.0
H959 H 0.3146 0.25341 0.67431 0.0
H960 H 0.34003 0.24736 0.64231 0.0
H961 H 0.34533 0.39325 0.62346 0.0
H962 H 0.31682 0.36762 0.65785 0.0
H963 H 0.35977 0.38558 0.66582 0.0
H964 H 0.27652 0.29757 0.75747 0.0
H965 H 0.38043 0.34477 0.77098 0.0
H966 H 0.27273 0.27204 0.66819 0.0
H967 H 0.27436 0.31057 0.66476 0.0
H968 H 0.25094 0.28265 0.70071 0.0
H969 H 0.40054 0.33188 0.68399 0.0
H970 H 0.41661 0.3606 0.72112 0.0
H971 H 0.40159 0.37009 0.68039 0.0
C972 C 0.2449 0.28688 0.97446 0.0
C973 C 0.27305 0.31474 0.96178 0.0
C974 C 0.21849 0.28904 0.98943 0.0
C975 C 0.21977 0.31969 0.99101 0.0
C976 C 0.24831 0.34793 0.97855 0.0
C977 C 0.27463 0.34517 0.96452 0.0
C978 C 0.18891 0.25836 1.00299 0.0
C979 C 0.25062 0.38097 0.97878 0.0
C980 C 0.13708 0.31597 0.9894 0.0
C981 C 0.13284 0.322 0.02584 0.0
C982 C 0.1656 0.31629 0.97765 0.0
C983 C 0.19039 0.32179 1.00311 0.0
C984 C 0.18653 0.3285 0.03993 0.0
C985 C 0.158 0.32895 0.05076 0.0
C986 C 0.16883 0.30999 0.93798 0.0
C987 C 0.21191 0.33385 0.06819 0.0
H988 H 0.24349 0.2633 0.97268 0.0
H989 H 0.29616 0.36685 0.95462 0.0
H990 H 0.18272 0.26208 0.03107 0.0
H991 H 0.16754 0.25259 0.98551 0.0
H992 H 0.19279 0.23702 1.00293 0.0
H993 H 0.27496 0.40078 0.96969 0.0
H994 H 0.23169 0.38054 0.9605 0.0
H995 H 0.24578 0.38684 1.00651 0.0
H996 H 0.11774 0.31061 0.96998 0.0
H997 H 0.15468 0.33313 0.07905 0.0
H998 H 0.16899 0.28669 0.93513 0.0
H999 H 0.19234 0.32969 0.92691 0.0
H1000 H 0.14855 0.3085 0.9212 0.0
H1001 H 0.21376 0.31142 0.07084 0.0
H1002 H 0.20599 0.33995 0.09531 0.0
H1003 H 0.23628 0.35384 0.0596 0.0
C1004 C 0.94331 0.2509 0.10461 0.0
C1005 C 0.97194 0.249 0.1009 0.0
C1006 C 0.91491 0.22555 0.12095 0.0
C1007 C 0.91502 0.19758 0.13483 0.0
C1008 C 0.94347 0.19493 0.1299 0.0
C1009 C 0.97143 0.22049 0.11275 0.0
C1010 C 0.88522 0.22947 0.12487 0.0
C1011 C 0.94507 0.16595 0.14462 0.0
C1012 C 0.85875 0.1575 0.21662 0.0
C1013 C 0.83193 0.12977 0.20141 0.0
C1014 C 0.88607 0.17893 0.19554 0.0
C1015 C 0.88677 0.17315 0.15776 0.0
C1016 C 0.85989 0.14504 0.14215 0.0
C1017 C 0.83301 0.12352 0.16418 0.0
C1018 C 0.91414 0.20807 0.21379 0.0
C1019 C 0.85922 0.13806 0.10201 0.0
H1020 H 0.94335 0.27275 0.0955 0.0
H1021 H 0.99348 0.21888 0.11041 0.0
H1022 H 0.86296 0.20702 0.11568 0.0
H1023 H 0.88166 0.2332 0.15396 0.0
H1024 H 0.88757 0.25059 0.10904 0.0
H1025 H 0.9674 0.16575 0.13544 0.0
H1026 H 0.94503 0.16657 0.17482 0.0
H1027 H 0.92327 0.14283 0.13604 0.0
H1028 H 0.85857 0.16246 0.24541 0.0
H1029 H 0.81253 0.10223 0.15207 0.0
H1030 H 0.91647 0.23094 0.20255 0.0
H1031 H 0.93744 0.20848 0.20819 0.0
H1032 H 0.91087 0.20801 0.24376 0.0
H1033 H 0.85965 0.15827 0.08613 0.0
H1034 H 0.83717 0.11478 0.09413 0.0
H1035 H 0.8813 0.13685 0.09427 0.0
C1036 C 0.70421 0.81086 0.31743 0.0
C1037 C 0.71191 0.80609 0.35305 0.0
C1038 C 0.71124 0.84197 0.30497 0.0
C1039 C 0.72613 0.86929 0.32868 0.0
C1040 C 0.73401 0.86465 0.36467 0.0
C1041 C 0.72699 0.83329 0.3763 0.0
C1042 C 0.70258 0.84557 0.26634 0.0
C1043 C 0.7497 0.89283 0.39105 0.0
C1044 C 0.76663 0.9552 0.2863 0.0
C1045 C 0.74198 0.96343 0.28987 0.0
C1046 C 0.76208 0.92497 0.2992 0.0
C1047 C 0.7322 0.90229 0.31622 0.0
C1048 C 0.70757 0.91084 0.32051 0.0
C1049 C 0.71272 0.94108 0.30732 0.0
C1050 C 0.78904 0.91701 0.29396 0.0
C1051 C 0.67538 0.88774 0.33851 0.0
H1052 H 0.69296 0.79026 0.29896 0.0
H1053 H 0.73319 0.83009 0.40381 0.0
H1054 H 0.68435 0.85387 0.26644 0.0
H1055 H 0.72457 0.86444 0.25187 0.0
H1056 H 0.69235 0.82234 0.25083 0.0
H1057 H 0.75486 0.88544 0.41784 0.0
H1058 H 0.77295 0.91258 0.37955 0.0
H1059 H 0.73342 0.90319 0.39541 0.0
H1060 H 0.78927 0.97212 0.27277 0.0
H1061 H 0.69344 0.94703 0.31033 0.0
H1062 H 0.7803 0.89518 0.27629 0.0
H1063 H 0.79588 0.91094 0.32052 0.0
H1064 H 0.81119 0.93753 0.2814 0.0
H1065 H 0.66248 0.86482 0.32251 0.0
H1066 H 0.65915 0.8984 0.34096 0.0
H1067 H 0.6797 0.88108 0.3661 0.0
C1068 C 0.82841 0.75105 0.44655 0.0
C1069 C 0.79583 0.72579 0.44977 0.0
C1070 C 0.85453 0.74703 0.45911 0.0
C1071 C 0.84801 0.7171 0.47546 0.0
C1072 C 0.81514 0.69168 0.47892 0.0
C1073 C 0.78964 0.69629 0.46606 0.0
C1074 C 0.88915 0.77476 0.45472 0.0
C1075 C 0.80682 0.65941 0.49619 0.0
C1076 C 0.91326 0.69151 0.47902 0.0
C1077 C 0.92448 0.6989 0.5151 0.0
C1078 C 0.8891 0.69804 0.46558 0.0
C1079 C 0.87532 0.712 0.48877 0.0
C1080 C 0.88659 0.71956 0.52521 0.0
C1081 C 0.91106 0.71313 0.53782 0.0
C1082 C 0.87818 0.68978 0.4265 0.0
C1083 C 0.87252 0.73416 0.55108 0.0
H1084 H 0.83354 0.7739 0.43402 0.0
H1085 H 0.76463 0.67655 0.46883 0.0
H1086 H 0.90122 0.78205 0.4817 0.0
H1087 H 0.90339 0.76668 0.438 0.0
H1088 H 0.89025 0.79648 0.44159 0.0
H1089 H 0.78004 0.64223 0.49735 0.0
H1090 H 0.81836 0.64773 0.48057 0.0
H1091 H 0.81672 0.66344 0.52428 0.0
H1092 H 0.92367 0.68093 0.461 0.0
H1093 H 0.91951 0.71904 0.56569 0.0
H1094 H 0.88092 0.7117 0.41219 0.0
H1095 H 0.8519 0.67093 0.42558 0.0
H1096 H 0.89232 0.6805 0.41147 0.0
H1097 H 0.87555 0.75726 0.53968 0.0
H1098 H 0.88429 0.73928 0.57832 0.0
H1099 H 0.8459 0.7172 0.55451 0.0
C1100 C 0.23453 0.90392 0.64755 0.0
C1101 C 0.23812 0.91689 0.68278 0.0
C1102 C 0.20416 0.87889 0.63487 0.0
C1103 C 0.17642 0.86605 0.65795 0.0
C1104 C 0.17981 0.87896 0.69358 0.0
C1105 C 0.21052 0.90427 0.7055 0.0
C1106 C 0.20182 0.86608 0.59668 0.0
C1107 C 0.15102 0.86585 0.71923 0.0
C1108 C 0.09222 0.81764 0.61289 0.0
C1109 C 0.08551 0.78534 0.61707 0.0
C1110 C 0.12139 0.84414 0.62657 0.0
C1111 C 0.14434 0.83825 0.64511 0.0
C1112 C 0.13731 0.80563 0.64995 0.0
C1113 C 0.10819 0.77972 0.63584 0.0
C1114 C 0.12794 0.87849 0.62058 0.0
C1115 C 0.16084 0.79805 0.66962 0.0
H1116 H 0.25551 0.91355 0.62955 0.0
H1117 H 0.2129 0.91408 0.7327 0.0
H1118 H 0.19437 0.83979 0.59762 0.0
H1119 H 0.18279 0.86818 0.58115 0.0
H1120 H 0.22534 0.8794 0.58168 0.0
H1121 H 0.15747 0.87874 0.74583 0.0
H1122 H 0.13093 0.86828 0.70677 0.0
H1123 H 0.14151 0.83945 0.72416 0.0
H1124 H 0.0749 0.82227 0.59848 0.0
H1125 H 0.10325 0.75489 0.63945 0.0
H1126 H 0.15019 0.89225 0.60362 0.0
H1127 H 0.13268 0.89145 0.64699 0.0
H1128 H 0.10723 0.87901 0.60689 0.0
H1129 H 0.18429 0.8087 0.65448 0.0
H1130 H 0.15113 0.77137 0.67264 0.0
H1131 H 0.16631 0.80931 0.69708 0.0
C1132 C 0.33926 0.22124 0.84132 0.0
C1133 C 0.35011 0.22514 0.87753 0.0
C1134 C 0.33224 0.19294 0.82132 0.0
C1135 C 0.33547 0.1676 0.83811 0.0
C1136 C 0.34572 0.17121 0.87489 0.0
C1137 C 0.35317 0.19991 0.89391 0.0
C1138 C 0.32194 0.19039 0.78202 0.0
C1139 C 0.34904 0.14478 0.89422 0.0
C1140 C 0.29383 0.08073 0.79955 0.0
C1141 C 0.3203 0.07958 0.78374 0.0
C1142 C 0.29815 0.10942 0.81653 0.0
C1143 C 0.32955 0.13785 0.81718 0.0
C1144 C 0.35605 0.13705 0.80007 0.0
C1145 C 0.35117 0.10796 0.78393 0.0
C1146 C 0.26933 0.10896 0.8349 0.0
C1147 C 0.38984 0.16677 0.79956 0.0
H1148 H 0.3368 0.24054 0.82842 0.0
H1149 H 0.36107 0.20237 0.92201 0.0
H1150 H 0.3399 0.18836 0.76433 0.0
H1151 H 0.29797 0.16797 0.77787 0.0
H1152 H 0.32001 0.21184 0.77308 0.0
H1153 H 0.35554 0.15053 0.9234 0.0
H1154 H 0.32579 0.12117 0.89239 0.0
H1155 H 0.36823 0.14142 0.88083 0.0
H1156 H 0.26992 0.05893 0.79957 0.0
H1157 H 0.37173 0.10744 0.77149 0.0
H1158 H 0.26632 0.12945 0.82487 0.0
H1159 H 0.27378 0.1124 0.86466 0.0
H1160 H 0.24618 0.08567 0.83023 0.0
H1161 H 0.38878 0.18824 0.78901 0.0
H1162 H 0.40716 0.16306 0.78253 0.0
H1163 H 0.39963 0.17267 0.82768 0.0
C1164 C 0.70889 0.78998 0.90686 0.0
C1165 C 0.74029 0.79397 0.91028 0.0
C1166 C 0.7039 0.81391 0.89003 0.0
C1167 C 0.73086 0.84231 0.87526 0.0
C1168 C 0.76282 0.8471 0.87998 0.0
C1169 C 0.76718 0.82303 0.89776 0.0
C1170 C 0.66949 0.80795 0.88645 0.0
C1171 C 0.79223 0.87664 0.86419 0.0
C1172 C 0.71106 0.87794 0.79229 0.0
C1173 C 0.71117 0.90554 0.80661 0.0
C1174 C 0.71825 0.85786 0.81412 0.0
C1175 C 0.72508 0.86494 0.85165 0.0
C1176 C 0.72518 0.89276 0.86639 0.0
C1177 C 0.71862 0.91293 0.84363 0.0
C1178 C 0.71843 0.82891 0.79691 0.0
C1179 C 0.73168 0.9009 0.90632 0.0
H1180 H 0.68799 0.76761 0.91655 0.0
H1181 H 0.79146 0.8261 0.89989 0.0
H1182 H 0.66843 0.82999 0.89473 0.0
H1183 H 0.66166 0.80287 0.85758 0.0
H1184 H 0.65181 0.78692 0.90323 0.0
H1185 H 0.81556 0.87854 0.87328 0.0
H1186 H 0.79113 0.87513 0.83403 0.0
H1187 H 0.79222 0.89932 0.87197 0.0
H1188 H 0.70582 0.87221 0.76364 0.0
H1189 H 0.71879 0.93418 0.85498 0.0
H1190 H 0.69893 0.80594 0.80917 0.0
H1191 H 0.74209 0.83002 0.80226 0.0
H1192 H 0.71448 0.82781 0.767 0.0
H1193 H 0.71295 0.88043 0.92286 0.0
H1194 H 0.73133 0.92356 0.91355 0.0
H1195 H 0.75579 0.90397 0.91394 0.0
C1196 C 0.853 0.72629 0.97076 0.0
C1197 C 0.82641 0.7129 0.995 0.0
C1198 C 0.88413 0.73186 0.98155 0.0
C1199 C 0.88897 0.72404 0.01752 0.0
C1200 C 0.86226 0.71071 0.04206 0.0
C1201 C 0.83152 0.70529 0.03056 0.0
C1202 C 0.91182 0.74599 0.95442 0.0
C1203 C 0.86606 0.70195 0.08061 0.0
C1204 C 0.95726 0.70574 0.03988 0.0
C1205 C 0.98046 0.73445 0.05748 0.0
C1206 C 0.92803 0.70249 0.02585 0.0
C1207 C 0.92146 0.72853 0.02942 0.0
C1208 C 0.94506 0.75786 0.04656 0.0
C1209 C 0.97424 0.76048 0.06032 0.0
C1210 C 0.90376 0.67077 0.0079 0.0
C1211 C 0.93913 0.78622 0.05106 0.0
H1212 H 0.84952 0.73244 0.94332 0.0
H1213 H 0.81142 0.69517 0.04978 0.0
H1214 H 0.93249 0.76895 0.96523 0.0
H1215 H 0.92098 0.72871 0.95008 0.0
H1216 H 0.90433 0.75121 0.92772 0.0
H1217 H 0.84316 0.69261 0.09668 0.0
H1218 H 0.87339 0.683 0.08034 0.0
H1219 H 0.8857 0.72367 0.09468 0.0
H1220 H 0.96177 0.68547 0.0373 0.0
H1221 H 0.99197 0.78279 0.07373 0.0
H1222 H 0.89742 0.67555 0.98036 0.0
H1223 H 0.88084 0.65876 0.02404 0.0
H1224 H 0.91325 0.65356 1.00534 0.0
H1225 H 0.93337 0.79311 0.02435 0.0
H1226 H 0.96054 0.80797 0.06301 0.0
H1227 H 0.91768 0.77897 0.06902 0.0
C1228 C 0.18094 0.84027 0.11328 0.0
C1229 C 0.15248 0.81788 0.13189 0.0
C1230 C 0.20362 0.87042 0.12898 0.0
C1231 C 0.19835 0.87822 0.16471 0.0
C1232 C 0.16971 0.85557 0.18374 0.0
C1233 C 0.14694 0.82596 0.16692 0.0
C1234 C 0.23324 0.89398 0.10719 0.0
C1235 C 0.16337 0.86235 0.22213 0.0
C1236 C 0.2747 0.94022 0.21615 0.0
C1237 C 0.27265 0.96884 0.21414 0.0
C1238 C 0.25037 0.91059 0.20107 0.0
C1239 C 0.22349 0.90943 0.18254 0.0
C1240 C 0.22128 0.93829 0.18032 0.0
C1241 C 0.24562 0.9675 0.19656 0.0
C1242 C 0.25351 0.88044 0.20497 0.0
C1243 C 0.19354 0.93847 0.16014 0.0
H1244 H 0.18519 0.83452 0.08597 0.0
H1245 H 0.12503 0.80883 0.18149 0.0
H1246 H 0.23481 0.9182 0.10592 0.0
H1247 H 0.25578 0.89753 0.12075 0.0
H1248 H 0.23271 0.88529 0.07897 0.0
H1249 H 0.13997 0.84239 0.23321 0.0
H1250 H 0.1836 0.86548 0.24015 0.0
H1251 H 0.16271 0.88547 0.22302 0.0
H1252 H 0.2953 0.94087 0.23 0.0
H1253 H 0.24388 0.98948 0.19477 0.0
H1254 H 0.25618 0.87192 0.17773 0.0
H1255 H 0.23103 0.86039 0.21751 0.0
H1256 H 0.27485 0.88491 0.22189 0.0
H1257 H 0.19355 0.93146 0.13131 0.0
H1258 H 0.19523 0.96278 0.16083 0.0
H1259 H 0.16979 0.92016 0.17211 0.0
C1260 C 0.29533 0.22512 0.3843 0.0
C1261 C 0.32077 0.25775 0.38379 0.0
C1262 C 0.29987 0.19975 0.37051 0.0
C1263 C 0.33048 0.20708 0.3554 0.0
C1264 C 0.35591 0.24012 0.35391 0.0
C1265 C 0.35083 0.26491 0.36825 0.0
C1266 C 0.27213 0.16495 0.373 0.0
C1267 C 0.38881 0.24928 0.33778 0.0
C1268 C 0.3558 0.14173 0.3556 0.0
C1269 C 0.34915 0.12994 0.3197 0.0
C1270 C 0.34948 0.16639 0.36753 0.0
C1271 C 0.33654 0.18019 0.34295 0.0
C1272 C 0.32995 0.16857 0.30656 0.0
C1273 C 0.33612 0.14352 0.29546 0.0
C1274 C 0.35658 0.1776 0.40664 0.0
C1275 C 0.31665 0.18281 0.27922 0.0
H1276 H 0.27206 0.21926 0.39632 0.0
H1277 H 0.37063 0.29002 0.36753 0.0
H1278 H 0.26674 0.15336 0.34571 0.0
H1279 H 0.27933 0.15062 0.39082 0.0
H1280 H 0.24946 0.16332 0.38408 0.0
H1281 H 0.40536 0.27616 0.33653 0.0
H1282 H 0.40071 0.23851 0.35435 0.0
H1283 H 0.38574 0.23919 0.30987 0.0
H1284 H 0.36558 0.13133 0.37474 0.0
H1285 H 0.33096 0.13473 0.26765 0.0
H1286 H 0.33408 0.17451 0.4199 0.0
H1287 H 0.37507 0.20397 0.40769 0.0
H1288 H 0.36579 0.16388 0.42262 0.0
H1289 H 0.29375 0.18105 0.2896 0.0
H1290 H 0.31156 0.17027 0.25245 0.0
H1291 H 0.33449 0.20911 0.27513 0.0
C1292 C 0.0882 0.28162 0.55635 0.0
C1293 C 0.08059 0.30672 0.55351 0.0
C1294 C 0.11817 0.2858 0.54316 0.0
C1295 C 0.14106 0.31568 0.52639 0.0
C1296 C 0.13307 0.34074 0.52268 0.0
C1297 C 0.10315 0.33603 0.53639 0.0
C1298 C 0.12569 0.25851 0.54797 0.0
C1299 C 0.15641 0.37286 0.50475 0.0
C1300 C 0.23199 0.34226 0.52615 0.0
C1301 C 0.23679 0.33421 0.49073 0.0
C1302 C 0.20101 0.3359 0.53815 0.0
C1303 C 0.17392 0.32143 0.51413 0.0
C1304 C 0.17859 0.31338 0.47826 0.0
C1305 C 0.20982 0.31964 0.46709 0.0
C1306 C 0.1973 0.34473 0.57666 0.0
C1307 C 0.1506 0.29834 0.45154 0.0
H1308 H 0.07102 0.25892 0.56959 0.0
H1309 H 0.09754 0.35557 0.53386 0.0
H1310 H 0.13164 0.25177 0.52129 0.0
H1311 H 0.14749 0.26684 0.56564 0.0
H1312 H 0.10498 0.23639 0.56035 0.0
H1313 H 0.1459 0.38922 0.50223 0.0
H1314 H 0.17929 0.38563 0.52085 0.0
H1315 H 0.16311 0.36853 0.4772 0.0
H1316 H 0.25247 0.35326 0.54482 0.0
H1317 H 0.21313 0.31332 0.43969 0.0
H1318 H 0.17828 0.32282 0.59112 0.0
H1319 H 0.1891 0.36303 0.57636 0.0
H1320 H 0.22046 0.35491 0.59233 0.0
H1321 H 0.13062 0.27502 0.46258 0.0
H1322 H 0.15815 0.2935 0.42467 0.0
H1323 H 0.14048 0.31485 0.44746 0.0
C1324 C 0.91447 0.20937 0.6637 0.0
C1325 C 0.91024 0.21342 0.62661 0.0
C1326 C 0.89208 0.18078 0.68251 0.0
C1327 C 0.86511 0.15538 0.66368 0.0
C1328 C 0.86142 0.15902 0.62599 0.0
C1329 C 0.88374 0.18798 0.6081 0.0
C1330 C 0.89673 0.17833 0.72279 0.0
C1331 C 0.83356 0.13243 0.60452 0.0
C1332 C 0.81661 0.06918 0.70374 0.0
C1333 C 0.78807 0.06853 0.7157 0.0
C1334 C 0.84218 0.0974 0.68725 0.0
C1335 C 0.83948 0.12587 0.68344 0.0
C1336 C 0.8111 0.12552 0.69657 0.0
C1337 C 0.78569 0.09685 0.71205 0.0
C1338 C 0.87175 0.09653 0.67312 0.0
C1339 C 0.80735 0.15539 0.69386 0.0
H1340 H 0.93485 0.22884 0.67823 0.0
H1341 H 0.8805 0.19057 0.57931 0.0
H1342 H 0.87805 0.18126 0.73801 0.0
H1343 H 0.89333 0.15399 0.72985 0.0
H1344 H 0.92133 0.19741 0.73212 0.0
H1345 H 0.83555 0.13793 0.57491 0.0
H1346 H 0.83286 0.1088 0.60849 0.0
H1347 H 0.80997 0.12928 0.6145 0.0
H1348 H 0.81862 0.04741 0.7065 0.0
H1349 H 0.76392 0.09674 0.72167 0.0
H1350 H 0.89433 0.11668 0.68529 0.0
H1351 H 0.87362 0.10034 0.6432 0.0
H1352 H 0.8707 0.07299 0.67918 0.0
H1353 H 0.82885 0.17677 0.70615 0.0
H1354 H 0.7849 0.15191 0.70769 0.0
H1355 H 0.8063 0.1613 0.66484 0.0
loop_
_geom_bond_atom_site_label_1
_geom_bond_atom_site_label_2
_geom_bond_distance
_geom_bond_site_symmetry_2
_ccdc_geom_bond_type
Co0 N4 2.148 1_554 S
Co0 N10 2.128 . S
Co0 N20 2.194 . S
Co0 O25 2.351 . S
Co0 O26 2.155 . S
Co0 O27 2.096 . S
C1 N4 1.301 . S
C1 N5 1.328 . S
C1 H6 0.930 . S
C2 C3 1.333 . S
C2 N4 1.317 . S
C2 H7 0.930 . S
C3 C2 1.333 . S
C3 N5 1.350 . S
C3 H29 0.931 . S
N4 Co0 2.148 1_556 S
N4 C1 1.301 . S
N4 C2 1.317 . S
N5 C1 1.328 . S
N5 C3 1.350 . S
H6 C1 0.930 . S
H7 C2 0.930 . S
C8 O9 1.224 . S
C8 O27 1.247 . S
O9 C8 1.224 . S
N10 Co0 2.128 . S
N10 C11 1.355 . S
N10 C13 1.311 . S
C11 N10 1.355 . S
C11 C12 1.363 . S
C11 H23 0.929 . S
C12 C11 1.363 . S
C12 N14 1.375 . S
C12 H30 0.931 . S
C13 N10 1.311 . S
C13 N14 1.347 . S
C13 H24 0.929 . S
N14 C12 1.375 . S
N14 C13 1.347 . S
C15 C18 1.365 . S
C15 N20 1.328 . S
C15 H21 0.929 . S
C16 C17 1.362 . S
C16 C19 1.378 . S
C16 H31 0.929 . S
C17 C16 1.362 . S
C17 C18 1.366 . S
C18 C15 1.365 . S
C18 C17 1.366 . S
C18 H32 0.930 . S
C19 C16 1.378 . S
C19 N20 1.315 . S
C19 H22 0.930 . S
N20 Co0 2.194 . S
N20 C15 1.328 . S
N20 C19 1.315 . S
H21 C15 0.929 . S
H22 C19 0.930 . S
H23 C11 0.929 . S
H24 C13 0.929 . S
O25 Co0 2.351 . S
O25 C28 1.244 . S
O26 Co0 2.155 . S
O26 C28 1.240 . S
O27 Co0 2.096 . S
O27 C8 1.247 . S
C28 O25 1.244 . S
C28 O26 1.240 . S
H29 C3 0.931 . S
H30 C12 0.931 . S
H31 C16 0.929 . S
H32 C18 0.930 . S
Co33 N37 2.148 . S
Co33 N43 2.128 . S
Co33 N53 2.194 . S
Co33 O58 2.351 . S
Co33 O59 2.155 . S
Co33 O60 2.096 . S
C34 N37 1.301 . S
C34 N38 1.328 . S
C34 H39 0.930 . S
C35 C36 1.333 . S
C35 N37 1.317 . S
C35 H40 0.930 . S
C36 C35 1.333 . S
C36 N38 1.350 . S
C36 H62 0.931 . S
N37 Co33 2.148 . S
N37 C34 1.301 . S
N37 C35 1.317 . S
N38 C34 1.328 . S
N38 C36 1.350 . S
H39 C34 0.930 . S
H40 C35 0.930 . S
C41 O42 1.224 . S
C41 O60 1.247 . S
O42 C41 1.224 . S
N43 Co33 2.128 . S
N43 C44 1.355 . S
N43 C46 1.311 . S
C44 N43 1.355 . S
C44 C45 1.363 . S
C44 H56 0.929 . S
C45 C44 1.363 . S
C45 N47 1.375 . S
C45 H63 0.931 . S
C46 N43 1.311 . S
C46 N47 1.347 . S
C46 H57 0.929 . S
N47 C45 1.375 . S
N47 C46 1.347 . S
C48 C51 1.365 . S
C48 N53 1.328 . S
C48 H54 0.929 . S
C49 C50 1.362 . S
C49 C52 1.378 . S
C49 H64 0.929 . S
C50 C49 1.362 . S
C50 C51 1.366 . S
C51 C48 1.365 . S
C51 C50 1.366 . S
C51 H65 0.930 . S
C52 C49 1.378 . S
C52 N53 1.315 . S
C52 H55 0.930 . S
N53 Co33 2.194 . S
N53 C48 1.328 . S
N53 C52 1.315 . S
H54 C48 0.929 . S
H55 C52 0.930 . S
H56 C44 0.929 . S
H57 C46 0.929 . S
O58 Co33 2.351 . S
O58 C61 1.244 . S
O59 Co33 2.155 . S
O59 C61 1.240 . S
O60 Co33 2.096 . S
O60 C41 1.247 . S
C61 O58 1.244 . S
C61 O59 1.240 . S
H62 C36 0.931 . S
H63 C45 0.931 . S
H64 C49 0.929 . S
H65 C51 0.930 . S
Co66 N70 2.148 . S
Co66 N76 2.128 . S
Co66 N86 2.194 . S
Co66 O91 2.351 . S
Co66 O92 2.155 . S
Co66 O93 2.096 . S
C67 N70 1.301 . S
C67 N71 1.328 . S
C67 H72 0.930 . S
C68 C69 1.333 . S
C68 N70 1.317 . S
C68 H73 0.930 . S
C69 C68 1.333 . S
C69 N71 1.350 . S
C69 H95 0.931 . S
N70 Co66 2.148 . S
N70 C67 1.301 . S
N70 C68 1.317 . S
N71 C67 1.328 . S
N71 C69 1.350 . S
H72 C67 0.930 . S
H73 C68 0.930 . S
C74 O75 1.224 . S
C74 O93 1.247 . S
O75 C74 1.224 . S
N76 Co66 2.128 . S
N76 C77 1.355 . S
N76 C79 1.311 . S
C77 N76 1.355 . S
C77 C78 1.363 . S
C77 H89 0.929 . S
C78 C77 1.363 . S
C78 N80 1.375 . S
C78 H96 0.931 . S
C79 N76 1.311 . S
C79 N80 1.347 . S
C79 H90 0.929 . S
N80 C78 1.375 . S
N80 C79 1.347 . S
C81 C84 1.365 . S
C81 N86 1.328 . S
C81 H87 0.929 . S
C82 C83 1.362 . S
C82 C85 1.378 . S
C82 H97 0.929 . S
C83 C82 1.362 . S
C83 C84 1.366 . S
C84 C81 1.365 . S
C84 C83 1.366 . S
C84 H98 0.930 . S
C85 C82 1.378 . S
C85 N86 1.315 . S
C85 H88 0.930 . S
N86 Co66 2.194 . S
N86 C81 1.328 . S
N86 C85 1.315 . S
H87 C81 0.929 . S
H88 C85 0.930 . S
H89 C77 0.929 . S
H90 C79 0.929 . S
O91 Co66 2.351 . S
O91 C94 1.244 . S
O92 Co66 2.155 . S
O92 C94 1.240 . S
O93 Co66 2.096 . S
O93 C74 1.247 . S
C94 O91 1.244 . S
C94 O92 1.240 . S
H95 C69 0.931 . S
H96 C78 0.931 . S
H97 C82 0.929 . S
H98 C84 0.930 . S
Co99 N103 2.148 . S
Co99 N109 2.128 . S
Co99 N119 2.194 . S
Co99 O124 2.351 . S
Co99 O125 2.155 . S
Co99 O126 2.096 . S
C100 N103 1.301 . S
C100 N104 1.328 . S
C100 H105 0.930 . S
C101 C102 1.333 . S
C101 N103 1.317 . S
C101 H106 0.930 . S
C102 C101 1.333 . S
C102 N104 1.350 . S
C102 H128 0.931 . S
N103 Co99 2.148 . S
N103 C100 1.301 . S
N103 C101 1.317 . S
N104 C100 1.328 . S
N104 C102 1.350 . S
H105 C100 0.930 . S
H106 C101 0.930 . S
C107 O108 1.224 . S
C107 O126 1.247 . S
O108 C107 1.224 . S
N109 Co99 2.128 . S
N109 C110 1.355 . S
N109 C112 1.311 . S
C110 N109 1.355 . S
C110 C111 1.363 . S
C110 H122 0.929 . S
C111 C110 1.363 . S
C111 N113 1.375 . S
C111 H129 0.931 . S
C112 N109 1.311 . S
C112 N113 1.347 . S
C112 H123 0.929 . S
N113 C111 1.375 . S
N113 C112 1.347 . S
C114 C117 1.365 . S
C114 N119 1.328 . S
C114 H120 0.929 . S
C115 C116 1.362 . S
C115 C118 1.378 . S
C115 H130 0.929 . S
C116 C115 1.362 . S
C116 C117 1.366 . S
C117 C114 1.365 . S
C117 C116 1.366 . S
C117 H131 0.930 . S
C118 C115 1.378 . S
C118 N119 1.315 . S
C118 H121 0.930 . S
N119 Co99 2.194 . S
N119 C114 1.328 . S
N119 C118 1.315 . S
H120 C114 0.929 . S
H121 C118 0.930 . S
H122 C110 0.929 . S
H123 C112 0.929 . S
O124 Co99 2.351 . S
O124 C127 1.244 . S
O125 Co99 2.155 . S
O125 C127 1.240 . S
O126 Co99 2.096 . S
O126 C107 1.247 . S
C127 O124 1.244 . S
C127 O125 1.240 . S
H128 C102 0.931 . S
H129 C111 0.931 . S
H130 C115 0.929 . S
H131 C117 0.930 . S
Co132 N136 2.148 . S
Co132 N142 2.128 . S
Co132 N152 2.194 . S
Co132 O157 2.351 . S
Co132 O158 2.155 . S
Co132 O159 2.096 . S
C133 N136 1.301 . S
C133 N137 1.328 . S
C133 H138 0.930 . S
C134 C135 1.333 . S
C134 N136 1.317 . S
C134 H139 0.930 . S
C135 C134 1.333 . S
C135 N137 1.350 . S
C135 H161 0.931 . S
N136 Co132 2.148 . S
N136 C133 1.301 . S
N136 C134 1.317 . S
N137 C133 1.328 . S
N137 C135 1.350 . S
H138 C133 0.930 . S
H139 C134 0.930 . S
C140 O141 1.224 . S
C140 O159 1.247 . S
O141 C140 1.224 . S
N142 Co132 2.128 . S
N142 C143 1.355 . S
N142 C145 1.311 . S
C143 N142 1.355 . S
C143 C144 1.363 . S
C143 H155 0.929 . S
C144 C143 1.363 . S
C144 N146 1.375 . S
C144 H162 0.931 . S
C145 N142 1.311 . S
C145 N146 1.347 . S
C145 H156 0.929 . S
N146 C144 1.375 . S
N146 C145 1.347 . S
C147 C150 1.365 . S
C147 N152 1.328 . S
C147 H153 0.929 . S
C148 C149 1.362 . S
C148 C151 1.378 . S
C148 H163 0.929 . S
C149 C148 1.362 . S
C149 C150 1.366 . S
C150 C147 1.365 . S
C150 C149 1.366 . S
C150 H164 0.930 . S
C151 C148 1.378 . S
C151 N152 1.315 . S
C151 H154 0.930 . S
N152 Co132 2.194 . S
N152 C147 1.328 . S
N152 C151 1.315 . S
H153 C147 0.929 . S
H154 C151 0.930 . S
H155 C143 0.929 . S
H156 C145 0.929 . S
O157 Co132 2.351 . S
O157 C160 1.244 . S
O158 Co132 2.155 . S
O158 C160 1.240 . S
O159 Co132 2.096 . S
O159 C140 1.247 . S
C160 O157 1.244 . S
C160 O158 1.240 . S
H161 C135 0.931 . S
H162 C144 0.931 . S
H163 C148 0.929 . S
H164 C150 0.930 . S
Co165 N169 2.148 . S
Co165 N175 2.128 . S
Co165 N185 2.194 . S
Co165 O190 2.351 . S
Co165 O191 2.155 . S
Co165 O192 2.096 . S
C166 N169 1.301 . S
C166 N170 1.328 . S
C166 H171 0.930 . S
C167 C168 1.333 . S
C167 N169 1.317 . S
C167 H172 0.930 . S
C168 C167 1.333 . S
C168 N170 1.350 . S
C168 H194 0.931 . S
N169 Co165 2.148 . S
N169 C166 1.301 . S
N169 C167 1.317 . S
N170 C166 1.328 . S
N170 C168 1.350 . S
H171 C166 0.930 . S
H172 C167 0.930 . S
C173 O174 1.224 . S
C173 O192 1.247 . S
O174 C173 1.224 . S
N175 Co165 2.128 . S
N175 C176 1.355 . S
N175 C178 1.311 . S
C176 N175 1.355 . S
C176 C177 1.363 . S
C176 H188 0.929 . S
C177 C176 1.363 . S
C177 N179 1.375 . S
C177 H195 0.931 1_556 S
C178 N175 1.311 . S
C178 N179 1.347 . S
C178 H189 0.929 . S
N179 C177 1.375 . S
N179 C178 1.347 . S
C180 C183 1.365 . S
C180 N185 1.328 . S
C180 H186 0.929 . S
C181 C182 1.362 . S
C181 C184 1.378 . S
C181 H196 0.929 . S
C182 C181 1.362 . S
C182 C183 1.366 . S
C183 C180 1.365 . S
C183 C182 1.366 . S
C183 H197 0.930 . S
C184 C181 1.378 . S
C184 N185 1.315 . S
C184 H187 0.930 . S
N185 Co165 2.194 . S
N185 C180 1.328 . S
N185 C184 1.315 . S
H186 C180 0.929 . S
H187 C184 0.930 . S
H188 C176 0.929 . S
H189 C178 0.929 . S
O190 Co165 2.351 . S
O190 C193 1.244 . S
O191 Co165 2.155 . S
O191 C193 1.240 . S
O192 Co165 2.096 . S
O192 C173 1.247 . S
C193 O190 1.244 . S
C193 O191 1.240 . S
H194 C168 0.931 . S
H195 C177 0.931 1_554 S
H196 C181 0.929 . S
H197 C183 0.930 . S
Co198 N202 2.148 . S
Co198 N208 2.128 . S
Co198 N218 2.194 . S
Co198 O223 2.351 . S
Co198 O224 2.155 . S
Co198 O225 2.096 . S
C199 N202 1.301 . S
C199 N203 1.328 . S
C199 H204 0.930 . S
C200 C201 1.333 . S
C200 N202 1.317 . S
C200 H205 0.930 . S
C201 C200 1.333 . S
C201 N203 1.350 . S
C201 H227 0.931 . S
N202 Co198 2.148 . S
N202 C199 1.301 . S
N202 C200 1.317 . S
N203 C199 1.328 . S
N203 C201 1.350 . S
H204 C199 0.930 . S
H205 C200 0.930 . S
C206 O207 1.224 . S
C206 O225 1.247 . S
O207 C206 1.224 . S
N208 Co198 2.128 . S
N208 C209 1.355 . S
N208 C211 1.311 . S
C209 N208 1.355 . S
C209 C210 1.363 . S
C209 H221 0.929 . S
C210 C209 1.363 . S
C210 N212 1.375 . S
C210 H228 0.931 . S
C211 N208 1.311 . S
C211 N212 1.347 . S
C211 H222 0.929 . S
N212 C210 1.375 . S
N212 C211 1.347 . S
C213 C216 1.365 . S
C213 N218 1.328 . S
C213 H219 0.929 . S
C214 C215 1.362 . S
C214 C217 1.378 . S
C214 H229 0.929 . S
C215 C214 1.362 . S
C215 C216 1.366 . S
C216 C213 1.365 . S
C216 C215 1.366 . S
C216 H230 0.930 . S
C217 C214 1.378 . S
C217 N218 1.315 . S
C217 H220 0.930 . S
N218 Co198 2.194 . S
N218 C213 1.328 . S
N218 C217 1.315 . S
H219 C213 0.929 . S
H220 C217 0.930 . S
H221 C209 0.929 . S
H222 C211 0.929 . S
O223 Co198 2.351 . S
O223 C226 1.244 . S
O224 Co198 2.155 . S
O224 C226 1.240 . S
O225 Co198 2.096 . S
O225 C206 1.247 . S
C226 O223 1.244 . S
C226 O224 1.240 . S
H227 C201 0.931 . S
H228 C210 0.931 . S
H229 C214 0.929 . S
H230 C216 0.930 . S
Co231 N235 2.148 . S
Co231 N241 2.128 . S
Co231 N251 2.194 . S
Co231 O256 2.351 . S
Co231 O257 2.155 . S
Co231 O258 2.096 . S
C232 N235 1.301 1_554 S
C232 N236 1.328 . S
C232 H237 0.930 1_554 S
C233 C234 1.333 . S
C233 N235 1.317 1_554 S
C233 H238 0.930 . S
C234 C233 1.333 . S
C234 N236 1.350 . S
C234 H260 0.931 . S
N235 Co231 2.148 . S
N235 C232 1.301 1_556 S
N235 C233 1.317 1_556 S
N236 C232 1.328 . S
N236 C234 1.350 . S
H237 C232 0.930 1_556 S
H238 C233 0.930 . S
C239 O240 1.224 . S
C239 O258 1.247 . S
O240 C239 1.224 . S
N241 Co231 2.128 . S
N241 C242 1.355 . S
N241 C244 1.311 . S
C242 N241 1.355 . S
C242 C243 1.363 . S
C242 H254 0.929 . S
C243 C242 1.363 . S
C243 N245 1.375 . S
C243 H261 0.931 . S
C244 N241 1.311 . S
C244 N245 1.347 . S
C244 H255 0.929 . S
N245 C243 1.375 . S
N245 C244 1.347 . S
C246 C249 1.365 . S
C246 N251 1.328 . S
C246 H252 0.929 . S
C247 C248 1.362 . S
C247 C250 1.378 . S
C247 H262 0.929 . S
C248 C247 1.362 . S
C248 C249 1.366 . S
C249 C246 1.365 . S
C249 C248 1.366 . S
C249 H263 0.930 . S
C250 C247 1.378 . S
C250 N251 1.315 . S
C250 H253 0.930 . S
N251 Co231 2.194 . S
N251 C246 1.328 . S
N251 C250 1.315 . S
H252 C246 0.929 . S
H253 C250 0.930 . S
H254 C242 0.929 . S
H255 C244 0.929 . S
O256 Co231 2.351 . S
O256 C259 1.244 . S
O257 Co231 2.155 . S
O257 C259 1.240 . S
O258 Co231 2.096 . S
O258 C239 1.247 . S
C259 O256 1.244 . S
C259 O257 1.240 . S
H260 C234 0.931 . S
H261 C243 0.931 . S
H262 C247 0.929 . S
H263 C249 0.930 . S
Co264 N268 2.148 . S
Co264 N274 2.128 . S
Co264 N284 2.194 . S
Co264 O289 2.351 . S
Co264 O290 2.155 . S
Co264 O291 2.096 . S
C265 N268 1.301 . S
C265 N269 1.328 . S
C265 H270 0.930 . S
C266 C267 1.333 . S
C266 N268 1.317 . S
C266 H271 0.930 . S
C267 C266 1.333 . S
C267 N269 1.350 . S
C267 H293 0.931 . S
N268 Co264 2.148 . S
N268 C265 1.301 . S
N268 C266 1.317 . S
N269 C265 1.328 . S
N269 C267 1.350 . S
H270 C265 0.930 . S
H271 C266 0.930 . S
C272 O273 1.224 . S
C272 O291 1.247 . S
O273 C272 1.224 . S
N274 Co264 2.128 . S
N274 C275 1.355 . S
N274 C277 1.311 . S
C275 N274 1.355 . S
C275 C276 1.363 . S
C275 H287 0.929 . S
C276 C275 1.363 . S
C276 N278 1.375 . S
C276 H294 0.931 1_554 S
C277 N274 1.311 . S
C277 N278 1.347 . S
C277 H288 0.929 . S
N278 C276 1.375 . S
N278 C277 1.347 . S
C279 C282 1.365 . S
C279 N284 1.328 . S
C279 H285 0.929 . S
C280 C281 1.362 . S
C280 C283 1.378 . S
C280 H295 0.929 . S
C281 C280 1.362 . S
C281 C282 1.366 . S
C282 C279 1.365 . S
C282 C281 1.366 . S
C282 H296 0.930 . S
C283 C280 1.378 . S
C283 N284 1.315 . S
C283 H286 0.930 . S
N284 Co264 2.194 . S
N284 C279 1.328 . S
N284 C283 1.315 . S
H285 C279 0.929 . S
H286 C283 0.930 . S
H287 C275 0.929 . S
H288 C277 0.929 . S
O289 Co264 2.351 . S
O289 C292 1.244 . S
O290 Co264 2.155 . S
O290 C292 1.240 . S
O291 Co264 2.096 . S
O291 C272 1.247 . S
C292 O289 1.244 . S
C292 O290 1.240 . S
H293 C267 0.931 . S
H294 C276 0.931 1_556 S
H295 C280 0.929 . S
H296 C282 0.930 . S
Co297 N301 2.148 . S
Co297 N307 2.128 . S
Co297 N317 2.194 . S
Co297 O322 2.351 . S
Co297 O323 2.155 . S
Co297 O324 2.096 . S
C298 N301 1.301 . S
C298 N302 1.328 . S
C298 H303 0.930 . S
C299 C300 1.333 . S
C299 N301 1.317 . S
C299 H304 0.930 . S
C300 C299 1.333 . S
C300 N302 1.350 . S
C300 H326 0.931 . S
N301 Co297 2.148 . S
N301 C298 1.301 . S
N301 C299 1.317 . S
N302 C298 1.328 . S
N302 C300 1.350 . S
H303 C298 0.930 . S
H304 C299 0.930 . S
C305 O306 1.224 . S
C305 O324 1.247 . S
O306 C305 1.224 . S
N307 Co297 2.128 . S
N307 C308 1.355 . S
N307 C310 1.311 . S
C308 N307 1.355 . S
C308 C309 1.363 . S
C308 H320 0.929 . S
C309 C308 1.363 . S
C309 N311 1.375 . S
C309 H327 0.931 . S
C310 N307 1.311 . S
C310 N311 1.347 . S
C310 H321 0.929 . S
N311 C309 1.375 . S
N311 C310 1.347 . S
C312 C315 1.365 . S
C312 N317 1.328 . S
C312 H318 0.929 . S
C313 C314 1.362 . S
C313 C316 1.378 . S
C313 H328 0.929 . S
C314 C313 1.362 . S
C314 C315 1.366 . S
C315 C312 1.365 . S
C315 C314 1.366 . S
C315 H329 0.930 . S
C316 C313 1.378 . S
C316 N317 1.315 . S
C316 H319 0.930 . S
N317 Co297 2.194 . S
N317 C312 1.328 . S
N317 C316 1.315 . S
H318 C312 0.929 . S
H319 C316 0.930 . S
H320 C308 0.929 . S
H321 C310 0.929 . S
O322 Co297 2.351 . S
O322 C325 1.244 . S
O323 Co297 2.155 . S
O323 C325 1.240 . S
O324 Co297 2.096 . S
O324 C305 1.247 . S
C325 O322 1.244 . S
C325 O323 1.240 . S
H326 C300 0.931 . S
H327 C309 0.931 . S
H328 C313 0.929 . S
H329 C315 0.930 . S
Co330 N334 2.148 . S
Co330 N340 2.128 . S
Co330 N350 2.194 . S
Co330 O355 2.351 . S
Co330 O356 2.155 . S
Co330 O357 2.096 . S
C331 N334 1.301 . S
C331 N335 1.328 . S
C331 H336 0.930 . S
C332 C333 1.333 . S
C332 N334 1.317 . S
C332 H337 0.930 . S
C333 C332 1.333 . S
C333 N335 1.350 . S
C333 H359 0.931 . S
N334 Co330 2.148 . S
N334 C331 1.301 . S
N334 C332 1.317 . S
N335 C331 1.328 . S
N335 C333 1.350 . S
H336 C331 0.930 . S
H337 C332 0.930 . S
C338 O339 1.224 . S
C338 O357 1.247 . S
O339 C338 1.224 . S
N340 Co330 2.128 . S
N340 C341 1.355 . S
N340 C343 1.311 . S
C341 N340 1.355 . S
C341 C342 1.363 . S
C341 H353 0.929 . S
C342 C341 1.363 . S
C342 N344 1.375 . S
C342 H360 0.931 . S
C343 N340 1.311 . S
C343 N344 1.347 . S
C343 H354 0.929 . S
N344 C342 1.375 . S
N344 C343 1.347 . S
C345 C348 1.365 . S
C345 N350 1.328 . S
C345 H351 0.929 . S
C346 C347 1.362 . S
C346 C349 1.378 . S
C346 H361 0.929 . S
C347 C346 1.362 . S
C347 C348 1.366 . S
C348 C345 1.365 . S
C348 C347 1.366 . S
C348 H362 0.930 . S
C349 C346 1.378 . S
C349 N350 1.315 . S
C349 H352 0.930 . S
N350 Co330 2.194 . S
N350 C345 1.328 . S
N350 C349 1.315 . S
H351 C345 0.929 . S
H352 C349 0.930 . S
H353 C341 0.929 . S
H354 C343 0.929 . S
O355 Co330 2.351 . S
O355 C358 1.244 . S
O356 Co330 2.155 . S
O356 C358 1.240 . S
O357 Co330 2.096 . S
O357 C338 1.247 . S
C358 O355 1.244 . S
C358 O356 1.240 . S
H359 C333 0.931 . S
H360 C342 0.931 . S
H361 C346 0.929 . S
H362 C348 0.930 . S
Co363 N367 2.148 . S
Co363 N373 2.128 . S
Co363 N383 2.194 . S
Co363 O388 2.351 . S
Co363 O389 2.155 . S
Co363 O390 2.096 . S
C364 N367 1.301 . S
C364 N368 1.328 . S
C364 H369 0.930 . S
C365 C366 1.333 . S
C365 N367 1.317 . S
C365 H370 0.930 . S
C366 C365 1.333 . S
C366 N368 1.350 . S
C366 H392 0.931 . S
N367 Co363 2.148 . S
N367 C364 1.301 . S
N367 C365 1.317 . S
N368 C364 1.328 . S
N368 C366 1.350 . S
H369 C364 0.930 . S
H370 C365 0.930 . S
C371 O372 1.224 . S
C371 O390 1.247 . S
O372 C371 1.224 . S
N373 Co363 2.128 . S
N373 C374 1.355 . S
N373 C376 1.311 . S
C374 N373 1.355 . S
C374 C375 1.363 . S
C374 H386 0.929 . S
C375 C374 1.363 . S
C375 N377 1.375 . S
C375 H393 0.931 . S
C376 N373 1.311 . S
C376 N377 1.347 . S
C376 H387 0.929 . S
N377 C375 1.375 . S
N377 C376 1.347 . S
C378 C381 1.365 . S
C378 N383 1.328 . S
C378 H384 0.929 . S
C379 C380 1.362 . S
C379 C382 1.378 . S
C379 H394 0.929 . S
C380 C379 1.362 . S
C380 C381 1.366 . S
C381 C378 1.365 . S
C381 C380 1.366 . S
C381 H395 0.930 . S
C382 C379 1.378 . S
C382 N383 1.315 . S
C382 H385 0.930 . S
N383 Co363 2.194 . S
N383 C378 1.328 . S
N383 C382 1.315 . S
H384 C378 0.929 . S
H385 C382 0.930 . S
H386 C374 0.929 . S
H387 C376 0.929 . S
O388 Co363 2.351 . S
O388 C391 1.244 . S
O389 Co363 2.155 . S
O389 C391 1.240 . S
O390 Co363 2.096 . S
O390 C371 1.247 . S
C391 O388 1.244 . S
C391 O389 1.240 . S
H392 C366 0.931 . S
H393 C375 0.931 . S
H394 C379 0.929 . S
H395 C381 0.930 . S
C396 C397 1.391 . S
C396 C398 1.394 . S
C396 H412 0.931 . S
C397 C396 1.391 . S
C397 C401 1.376 . S
C398 C396 1.394 . S
C398 C399 1.369 . S
C398 C402 1.531 . S
C399 C398 1.369 . S
C399 C400 1.410 . S
C399 C407 1.503 . S
C400 C399 1.410 . S
C400 C401 1.392 . S
C400 C403 1.511 . S
C401 C397 1.376 . S
C401 C400 1.392 . S
C401 H413 0.929 . S
C402 C398 1.531 . S
C402 H414 0.960 . S
C402 H415 0.962 . S
C402 H416 0.960 . S
C403 C400 1.511 . S
C403 H417 0.961 . S
C403 H418 0.961 . S
C403 H419 0.961 . S
C404 C405 1.370 . S
C404 C406 1.363 . S
C404 H420 0.931 . S
C405 C404 1.370 . S
C405 C409 1.408 . S
C406 C404 1.363 . S
C406 C407 1.370 . S
C406 C410 1.524 . S
C407 C399 1.503 . S
C407 C406 1.370 . S
C407 C408 1.403 . S
C408 C407 1.403 . S
C408 C409 1.404 . S
C408 C411 1.539 . S
C409 C405 1.408 . S
C409 C408 1.404 . S
C409 H421 0.930 . S
C410 C406 1.524 . S
C410 H422 0.956 . S
C410 H423 0.961 . S
C410 H424 0.961 . S
C411 C408 1.539 . S
C411 H425 0.958 . S
C411 H426 0.961 . S
C411 H427 0.960 . S
H412 C396 0.931 . S
H413 C401 0.929 . S
H414 C402 0.960 . S
H415 C402 0.962 . S
H416 C402 0.960 . S
H417 C403 0.961 . S
H418 C403 0.961 . S
H419 C403 0.961 . S
H420 C404 0.931 . S
H421 C409 0.930 . S
H422 C410 0.956 . S
H423 C410 0.961 . S
H424 C410 0.961 . S
H425 C411 0.958 . S
H426 C411 0.961 . S
H427 C411 0.960 . S
C428 C429 1.391 . S
C428 C430 1.394 . S
C428 H444 0.931 . S
C429 C428 1.391 . S
C429 C433 1.376 . S
C430 C428 1.394 . S
C430 C431 1.369 . S
C430 C434 1.531 . S
C431 C430 1.369 . S
C431 C432 1.410 . S
C431 C439 1.503 . S
C432 C431 1.410 . S
C432 C433 1.392 . S
C432 C435 1.511 . S
C433 C429 1.376 . S
C433 C432 1.392 . S
C433 H445 0.929 . S
C434 C430 1.531 . S
C434 H446 0.960 . S
C434 H447 0.962 . S
C434 H448 0.960 . S
C435 C432 1.511 . S
C435 H449 0.961 . S
C435 H450 0.961 . S
C435 H451 0.961 . S
C436 C437 1.370 . S
C436 C438 1.363 . S
C436 H452 0.931 . S
C437 C436 1.370 . S
C437 C441 1.408 . S
C438 C436 1.363 . S
C438 C439 1.370 . S
C438 C442 1.524 . S
C439 C431 1.503 . S
C439 C438 1.370 . S
C439 C440 1.403 . S
C440 C439 1.403 . S
C440 C441 1.404 . S
C440 C443 1.539 . S
C441 C437 1.408 . S
C441 C440 1.404 . S
C441 H453 0.930 . S
C442 C438 1.524 . S
C442 H454 0.956 . S
C442 H455 0.961 . S
C442 H456 0.961 . S
C443 C440 1.539 . S
C443 H457 0.958 . S
C443 H458 0.961 . S
C443 H459 0.960 . S
H444 C428 0.931 . S
H445 C433 0.929 . S
H446 C434 0.960 . S
H447 C434 0.962 . S
H448 C434 0.960 . S
H449 C435 0.961 . S
H450 C435 0.961 . S
H451 C435 0.961 . S
H452 C436 0.931 . S
H453 C441 0.930 . S
H454 C442 0.956 . S
H455 C442 0.961 . S
H456 C442 0.961 . S
H457 C443 0.958 . S
H458 C443 0.961 . S
H459 C443 0.960 . S
C460 C461 1.391 . S
C460 C462 1.394 . S
C460 H476 0.931 . S
C461 C460 1.391 . S
C461 C465 1.376 . S
C462 C460 1.394 . S
C462 C463 1.369 . S
C462 C466 1.531 . S
C463 C462 1.369 . S
C463 C464 1.410 . S
C463 C471 1.503 . S
C464 C463 1.410 . S
C464 C465 1.392 . S
C464 C467 1.511 . S
C465 C461 1.376 . S
C465 C464 1.392 . S
C465 H477 0.929 . S
C466 C462 1.531 . S
C466 H478 0.960 . S
C466 H479 0.962 . S
C466 H480 0.960 . S
C467 C464 1.511 . S
C467 H481 0.961 . S
C467 H482 0.961 . S
C467 H483 0.961 . S
C468 C469 1.370 . S
C468 C470 1.363 . S
C468 H484 0.931 . S
C469 C468 1.370 . S
C469 C473 1.408 . S
C470 C468 1.363 . S
C470 C471 1.370 . S
C470 C474 1.524 . S
C471 C463 1.503 . S
C471 C470 1.370 . S
C471 C472 1.403 . S
C472 C471 1.403 . S
C472 C473 1.404 . S
C472 C475 1.539 . S
C473 C469 1.408 . S
C473 C472 1.404 . S
C473 H485 0.930 . S
C474 C470 1.524 . S
C474 H486 0.956 . S
C474 H487 0.961 . S
C474 H488 0.961 . S
C475 C472 1.539 . S
C475 H489 0.958 . S
C475 H490 0.961 . S
C475 H491 0.960 . S
H476 C460 0.931 . S
H477 C465 0.929 . S
H478 C466 0.960 . S
H479 C466 0.962 . S
H480 C466 0.960 . S
H481 C467 0.961 . S
H482 C467 0.961 . S
H483 C467 0.961 . S
H484 C468 0.931 . S
H485 C473 0.930 . S
H486 C474 0.956 . S
H487 C474 0.961 . S
H488 C474 0.961 . S
H489 C475 0.958 . S
H490 C475 0.961 . S
H491 C475 0.960 . S
C492 C493 1.391 . S
C492 C494 1.394 . S
C492 H508 0.931 . S
C493 C492 1.391 . S
C493 C497 1.376 . S
C494 C492 1.394 . S
C494 C495 1.369 . S
C494 C498 1.531 . S
C495 C494 1.369 . S
C495 C496 1.410 . S
C495 C503 1.503 . S
C496 C495 1.410 . S
C496 C497 1.392 . S
C496 C499 1.511 . S
C497 C493 1.376 . S
C497 C496 1.392 . S
C497 H509 0.929 . S
C498 C494 1.531 . S
C498 H510 0.960 . S
C498 H511 0.962 . S
C498 H512 0.960 . S
C499 C496 1.511 . S
C499 H513 0.961 . S
C499 H514 0.961 . S
C499 H515 0.961 . S
C500 C501 1.370 . S
C500 C502 1.363 . S
C500 H516 0.931 . S
C501 C500 1.370 . S
C501 C505 1.408 . S
C502 C500 1.363 . S
C502 C503 1.370 . S
C502 C506 1.524 . S
C503 C495 1.503 . S
C503 C502 1.370 . S
C503 C504 1.403 . S
C504 C503 1.403 . S
C504 C505 1.404 . S
C504 C507 1.539 . S
C505 C501 1.408 . S
C505 C504 1.404 . S
C505 H517 0.930 . S
C506 C502 1.524 . S
C506 H518 0.956 . S
C506 H519 0.961 . S
C506 H520 0.961 . S
C507 C504 1.539 . S
C507 H521 0.958 . S
C507 H522 0.961 . S
C507 H523 0.960 . S
H508 C492 0.931 . S
H509 C497 0.929 . S
H510 C498 0.960 . S
H511 C498 0.962 . S
H512 C498 0.960 . S
H513 C499 0.961 . S
H514 C499 0.961 . S
H515 C499 0.961 . S
H516 C500 0.931 . S
H517 C505 0.930 . S
H518 C506 0.956 . S
H519 C506 0.961 . S
H520 C506 0.961 . S
H521 C507 0.958 . S
H522 C507 0.961 . S
H523 C507 0.960 . S
C524 C525 1.391 . S
C524 C526 1.394 . S
C524 H540 0.931 . S
C525 C524 1.391 . S
C525 C529 1.376 . S
C526 C524 1.394 . S
C526 C527 1.369 . S
C526 C530 1.531 . S
C527 C526 1.369 . S
C527 C528 1.410 . S
C527 C535 1.503 . S
C528 C527 1.410 . S
C528 C529 1.392 . S
C528 C531 1.511 . S
C529 C525 1.376 . S
C529 C528 1.392 . S
C529 H541 0.929 . S
C530 C526 1.531 . S
C530 H542 0.960 . S
C530 H543 0.962 . S
C530 H544 0.960 . S
C531 C528 1.511 . S
C531 H545 0.961 . S
C531 H546 0.961 . S
C531 H547 0.961 . S
C532 C533 1.370 . S
C532 C534 1.363 . S
C532 H548 0.931 . S
C533 C532 1.370 . S
C533 C537 1.408 . S
C534 C532 1.363 . S
C534 C535 1.370 . S
C534 C538 1.524 . S
C535 C527 1.503 . S
C535 C534 1.370 . S
C535 C536 1.403 . S
C536 C535 1.403 . S
C536 C537 1.404 . S
C536 C539 1.539 . S
C537 C533 1.408 . S
C537 C536 1.404 . S
C537 H549 0.930 1_556 S
C538 C534 1.524 . S
C538 H550 0.956 . S
C538 H551 0.961 . S
C538 H552 0.961 . S
C539 C536 1.539 . S
C539 H553 0.958 . S
C539 H554 0.961 . S
C539 H555 0.960 . S
H540 C524 0.931 . S
H541 C529 0.929 . S
H542 C530 0.960 . S
H543 C530 0.962 . S
H544 C530 0.960 . S
H545 C531 0.961 . S
H546 C531 0.961 . S
H547 C531 0.961 . S
H548 C532 0.931 . S
H549 C537 0.930 1_554 S
H550 C538 0.956 . S
H551 C538 0.961 . S
H552 C538 0.961 . S
H553 C539 0.958 . S
H554 C539 0.961 . S
H555 C539 0.960 . S
C556 C557 1.404 . S
C556 C558 1.394 . S
C556 H572 0.931 . S
C557 C556 1.404 . S
C557 C561 1.384 . S
C558 C556 1.394 . S
C558 C559 1.369 . S
C558 C562 1.531 . S
C559 C558 1.369 . S
C559 C560 1.410 . S
C559 C567 1.503 . S
C560 C559 1.410 . S
C560 C561 1.392 . S
C560 C563 1.511 . S
C561 C557 1.384 . S
C561 C560 1.392 . S
C561 H573 0.927 1_554 S
C562 C558 1.531 . S
C562 H574 0.960 . S
C562 H575 0.962 . S
C562 H576 0.960 . S
C563 C560 1.511 . S
C563 H577 0.961 . S
C563 H578 0.961 . S
C563 H579 0.961 . S
C564 C565 1.370 . S
C564 C566 1.363 . S
C564 H580 0.931 . S
C565 C564 1.370 . S
C565 C569 1.408 . S
C566 C564 1.363 . S
C566 C567 1.370 . S
C566 C570 1.524 . S
C567 C559 1.503 . S
C567 C566 1.370 . S
C567 C568 1.403 . S
C568 C567 1.403 . S
C568 C569 1.404 . S
C568 C571 1.539 . S
C569 C565 1.408 . S
C569 C568 1.404 . S
C569 H581 0.930 . S
C570 C566 1.524 . S
C570 H582 0.956 . S
C570 H583 0.961 . S
C570 H584 0.961 . S
C571 C568 1.539 . S
C571 H585 0.958 . S
C571 H586 0.961 . S
C571 H587 0.960 . S
H572 C556 0.931 . S
H573 C561 0.927 1_556 S
H574 C562 0.960 . S
H575 C562 0.962 . S
H576 C562 0.960 . S
H577 C563 0.961 . S
H578 C563 0.961 . S
H579 C563 0.961 . S
H580 C564 0.931 . S
H581 C569 0.930 . S
H582 C570 0.956 . S
H583 C570 0.961 . S
H584 C570 0.961 . S
H585 C571 0.958 . S
H586 C571 0.961 . S
H587 C571 0.960 . S
C588 C589 1.391 . S
C588 C590 1.394 . S
C588 H604 0.931 . S
C589 C588 1.391 . S
C589 C593 1.376 . S
C590 C588 1.394 . S
C590 C591 1.369 . S
C590 C594 1.531 . S
C591 C590 1.369 . S
C591 C592 1.410 . S
C591 C599 1.503 . S
C592 C591 1.410 . S
C592 C593 1.392 . S
C592 C595 1.511 . S
C593 C589 1.376 . S
C593 C592 1.392 . S
C593 H605 0.929 . S
C594 C590 1.531 . S
C594 H606 0.960 . S
C594 H607 0.962 . S
C594 H608 0.960 . S
C595 C592 1.511 . S
C595 H609 0.961 . S
C595 H610 0.961 . S
C595 H611 0.961 . S
C596 C597 1.370 . S
C596 C598 1.363 . S
C596 H612 0.931 . S
C597 C596 1.370 . S
C597 C601 1.408 . S
C598 C596 1.363 . S
C598 C599 1.370 . S
C598 C602 1.524 . S
C599 C591 1.503 . S
C599 C598 1.370 . S
C599 C600 1.403 . S
C600 C599 1.403 . S
C600 C601 1.404 . S
C600 C603 1.539 . S
C601 C597 1.408 . S
C601 C600 1.404 . S
C601 H613 0.930 . S
C602 C598 1.524 . S
C602 H614 0.956 . S
C602 H615 0.961 . S
C602 H616 0.961 . S
C603 C600 1.539 . S
C603 H617 0.958 . S
C603 H618 0.961 . S
C603 H619 0.960 . S
H604 C588 0.931 . S
H605 C593 0.929 . S
H606 C594 0.960 . S
H607 C594 0.962 . S
H608 C594 0.960 . S
H609 C595 0.961 . S
H610 C595 0.961 . S
H611 C595 0.961 . S
H612 C596 0.931 . S
H613 C601 0.930 . S
H614 C602 0.956 . S
H615 C602 0.961 . S
H616 C602 0.961 . S
H617 C603 0.958 . S
H618 C603 0.961 . S
H619 C603 0.960 . S
C620 C621 1.391 . S
C620 C622 1.394 . S
C620 H636 0.931 . S
C621 C620 1.391 . S
C621 C625 1.376 . S
C622 C620 1.394 . S
C622 C623 1.369 . S
C622 C626 1.531 . S
C623 C622 1.369 . S
C623 C624 1.410 . S
C623 C631 1.503 . S
C624 C623 1.410 . S
C624 C625 1.392 . S
C624 C627 1.511 . S
C625 C621 1.376 . S
C625 C624 1.392 . S
C625 H637 0.929 . S
C626 C622 1.531 . S
C626 H638 0.960 . S
C626 H639 0.962 . S
C626 H640 0.960 . S
C627 C624 1.511 . S
C627 H641 0.961 . S
C627 H642 0.961 . S
C627 H643 0.961 . S
C628 C629 1.370 . S
C628 C630 1.363 . S
C628 H644 0.931 . S
C629 C628 1.370 . S
C629 C633 1.408 . S
C630 C628 1.363 . S
C630 C631 1.370 . S
C630 C634 1.524 . S
C631 C623 1.503 . S
C631 C630 1.370 . S
C631 C632 1.403 . S
C632 C631 1.403 . S
C632 C633 1.404 . S
C632 C635 1.539 . S
C633 C629 1.408 . S
C633 C632 1.404 . S
C633 H645 0.930 . S
C634 C630 1.524 . S
C634 H646 0.956 . S
C634 H647 0.961 . S
C634 H648 0.961 . S
C635 C632 1.539 . S
C635 H649 0.958 . S
C635 H650 0.961 . S
C635 H651 0.960 . S
H636 C620 0.931 . S
H637 C625 0.929 . S
H638 C626 0.960 . S
H639 C626 0.962 . S
H640 C626 0.960 . S
H641 C627 0.961 . S
H642 C627 0.961 . S
H643 C627 0.961 . S
H644 C628 0.931 . S
H645 C633 0.930 . S
H646 C634 0.956 . S
H647 C634 0.961 . S
H648 C634 0.961 . S
H649 C635 0.958 . S
H650 C635 0.961 . S
H651 C635 0.960 . S
C652 C653 1.391 . S
C652 C654 1.394 . S
C652 H668 0.931 . S
C653 C652 1.391 . S
C653 C657 1.376 . S
C654 C652 1.394 . S
C654 C655 1.369 . S
C654 C658 1.531 . S
C655 C654 1.369 . S
C655 C656 1.410 . S
C655 C663 1.503 . S
C656 C655 1.410 . S
C656 C657 1.392 . S
C656 C659 1.511 . S
C657 C653 1.376 . S
C657 C656 1.392 . S
C657 H669 0.929 . S
C658 C654 1.531 . S
C658 H670 0.960 . S
C658 H671 0.962 . S
C658 H672 0.960 . S
C659 C656 1.511 . S
C659 H673 0.961 . S
C659 H674 0.961 . S
C659 H675 0.961 . S
C660 C661 1.370 . S
C660 C662 1.363 . S
C660 H676 0.931 . S
C661 C660 1.370 . S
C661 C665 1.408 . S
C662 C660 1.363 . S
C662 C663 1.370 . S
C662 C666 1.524 . S
C663 C655 1.503 . S
C663 C662 1.370 . S
C663 C664 1.403 . S
C664 C663 1.403 . S
C664 C665 1.404 . S
C664 C667 1.539 . S
C665 C661 1.408 . S
C665 C664 1.404 . S
C665 H677 0.930 . S
C666 C662 1.524 . S
C666 H678 0.956 . S
C666 H679 0.961 . S
C666 H680 0.961 . S
C667 C664 1.539 . S
C667 H681 0.958 . S
C667 H682 0.961 . S
C667 H683 0.960 . S
H668 C652 0.931 . S
H669 C657 0.929 . S
H670 C658 0.960 . S
H671 C658 0.962 . S
H672 C658 0.960 . S
H673 C659 0.961 . S
H674 C659 0.961 . S
H675 C659 0.961 . S
H676 C660 0.931 . S
H677 C665 0.930 . S
H678 C666 0.956 . S
H679 C666 0.961 . S
H680 C666 0.961 . S
H681 C667 0.958 . S
H682 C667 0.961 . S
H683 C667 0.960 . S
C684 C685 1.391 . S
C684 C686 1.394 . S
C684 H700 0.931 . S
C685 C684 1.391 . S
C685 C689 1.376 . S
C686 C684 1.394 . S
C686 C687 1.369 . S
C686 C690 1.531 . S
C687 C686 1.369 . S
C687 C688 1.410 . S
C687 C695 1.503 . S
C688 C687 1.410 . S
C688 C689 1.392 . S
C688 C691 1.511 . S
C689 C685 1.376 . S
C689 C688 1.392 . S
C689 H701 0.929 . S
C690 C686 1.531 . S
C690 H702 0.960 . S
C690 H703 0.962 . S
C690 H704 0.960 . S
C691 C688 1.511 . S
C691 H705 0.961 . S
C691 H706 0.961 . S
C691 H707 0.961 . S
C692 C693 1.370 . S
C692 C694 1.363 . S
C692 H708 0.931 . S
C693 C692 1.370 . S
C693 C697 1.408 . S
C694 C692 1.363 . S
C694 C695 1.370 . S
C694 C698 1.524 . S
C695 C687 1.503 . S
C695 C694 1.370 . S
C695 C696 1.403 . S
C696 C695 1.403 . S
C696 C697 1.404 . S
C696 C699 1.539 . S
C697 C693 1.408 . S
C697 C696 1.404 . S
C697 H709 0.930 . S
C698 C694 1.524 . S
C698 H710 0.956 . S
C698 H711 0.961 . S
C698 H712 0.961 . S
C699 C696 1.539 . S
C699 H713 0.958 . S
C699 H714 0.961 . S
C699 H715 0.960 . S
H700 C684 0.931 . S
H701 C689 0.929 . S
H702 C690 0.960 . S
H703 C690 0.962 . S
H704 C690 0.960 . S
H705 C691 0.961 . S
H706 C691 0.961 . S
H707 C691 0.961 . S
H708 C692 0.931 . S
H709 C697 0.930 . S
H710 C698 0.956 . S
H711 C698 0.961 . S
H712 C698 0.961 . S
H713 C699 0.958 . S
H714 C699 0.961 . S
H715 C699 0.960 . S
C716 C717 1.391 . S
C716 C718 1.394 . S
C716 H732 0.931 . S
C717 C716 1.391 . S
C717 C721 1.376 . S
C718 C716 1.394 . S
C718 C719 1.369 . S
C718 C722 1.531 . S
C719 C718 1.369 . S
C719 C720 1.410 . S
C719 C727 1.503 . S
C720 C719 1.410 . S
C720 C721 1.392 . S
C720 C723 1.511 . S
C721 C717 1.376 . S
C721 C720 1.392 . S
C721 H733 0.929 . S
C722 C718 1.531 . S
C722 H734 0.960 . S
C722 H735 0.962 . S
C722 H736 0.960 . S
C723 C720 1.511 . S
C723 H737 0.961 . S
C723 H738 0.961 . S
C723 H739 0.961 . S
C724 C725 1.370 . S
C724 C726 1.363 . S
C724 H740 0.931 . S
C725 C724 1.370 . S
C725 C729 1.408 . S
C726 C724 1.363 . S
C726 C727 1.370 . S
C726 C730 1.524 . S
C727 C719 1.503 . S
C727 C726 1.370 . S
C727 C728 1.403 . S
C728 C727 1.403 . S
C728 C729 1.404 . S
C728 C731 1.539 . S
C729 C725 1.408 . S
C729 C728 1.404 . S
C729 H741 0.930 . S
C730 C726 1.524 . S
C730 H742 0.956 . S
C730 H743 0.961 . S
C730 H744 0.961 . S
C731 C728 1.539 . S
C731 H745 0.958 . S
C731 H746 0.961 . S
C731 H747 0.960 . S
H732 C716 0.931 . S
H733 C721 0.929 . S
H734 C722 0.960 . S
H735 C722 0.962 . S
H736 C722 0.960 . S
H737 C723 0.961 . S
H738 C723 0.961 . S
H739 C723 0.961 . S
H740 C724 0.931 . S
H741 C729 0.930 . S
H742 C730 0.956 . S
H743 C730 0.961 . S
H744 C730 0.961 . S
H745 C731 0.958 . S
H746 C731 0.961 . S
H747 C731 0.960 . S
C748 C749 1.391 . S
C748 C750 1.394 . S
C748 H764 0.931 . S
C749 C748 1.391 . S
C749 C753 1.376 . S
C750 C748 1.394 . S
C750 C751 1.369 . S
C750 C754 1.531 . S
C751 C750 1.369 . S
C751 C752 1.410 . S
C751 C759 1.503 . S
C752 C751 1.410 . S
C752 C753 1.392 . S
C752 C755 1.511 . S
C753 C749 1.376 . S
C753 C752 1.392 . S
C753 H765 0.929 . S
C754 C750 1.531 . S
C754 H766 0.960 . S
C754 H767 0.962 . S
C754 H768 0.960 . S
C755 C752 1.511 . S
C755 H769 0.961 . S
C755 H770 0.961 . S
C755 H771 0.961 . S
C756 C757 1.370 . S
C756 C758 1.363 . S
C756 H772 0.931 . S
C757 C756 1.370 . S
C757 C761 1.408 . S
C758 C756 1.363 . S
C758 C759 1.370 . S
C758 C762 1.524 . S
C759 C751 1.503 . S
C759 C758 1.370 . S
C759 C760 1.403 . S
C760 C759 1.403 . S
C760 C761 1.404 . S
C760 C763 1.539 . S
C761 C757 1.408 . S
C761 C760 1.404 . S
C761 H773 0.930 . S
C762 C758 1.524 . S
C762 H774 0.956 . S
C762 H775 0.961 . S
C762 H776 0.961 . S
C763 C760 1.539 . S
C763 H777 0.958 . S
C763 H778 0.961 . S
C763 H779 0.960 . S
H764 C748 0.931 . S
H765 C753 0.929 . S
H766 C754 0.960 . S
H767 C754 0.962 . S
H768 C754 0.960 . S
H769 C755 0.961 . S
H770 C755 0.961 . S
H771 C755 0.961 . S
H772 C756 0.931 . S
H773 C761 0.930 . S
H774 C762 0.956 . S
H775 C762 0.961 . S
H776 C762 0.961 . S
H777 C763 0.958 . S
H778 C763 0.961 . S
H779 C763 0.960 . S
C780 C781 1.391 . S
C780 C782 1.394 . S
C780 H796 0.931 . S
C781 C780 1.391 . S
C781 C785 1.376 1_655 S
C782 C780 1.394 . S
C782 C783 1.367 . S
C782 C786 1.531 . S
C783 C782 1.367 . S
C783 C784 1.410 1_655 S
C783 C791 1.504 1_655 S
C784 C783 1.410 1_455 S
C784 C785 1.392 . S
C784 C787 1.511 . S
C785 C781 1.376 1_455 S
C785 C784 1.392 . S
C785 H797 0.929 . S
C786 C782 1.531 . S
C786 H798 0.960 . S
C786 H799 0.962 . S
C786 H800 0.960 . S
C787 C784 1.511 . S
C787 H801 0.961 . S
C787 H802 0.961 . S
C787 H803 0.961 . S
C788 C789 1.338 1_655 S
C788 C790 1.368 . S
C788 H804 0.960 . S
C789 C788 1.338 1_455 S
C789 C793 1.408 . S
C790 C788 1.368 . S
C790 C791 1.370 1_655 S
C790 C794 1.524 . S
C791 C783 1.504 1_455 S
C791 C790 1.370 1_455 S
C791 C792 1.403 . S
C792 C791 1.403 . S
C792 C793 1.404 . S
C792 C795 1.539 . S
C793 C789 1.408 . S
C793 C792 1.404 . S
C793 H805 0.930 . S
C794 C790 1.524 . S
C794 H806 0.956 . S
C794 H807 0.961 . S
C794 H808 0.961 . S
C795 C792 1.539 . S
C795 H809 0.958 . S
C795 H810 0.961 . S
C795 H811 0.960 . S
H796 C780 0.931 . S
H797 C785 0.929 . S
H798 C786 0.960 . S
H799 C786 0.962 . S
H800 C786 0.960 . S
H801 C787 0.961 . S
H802 C787 0.961 . S
H803 C787 0.961 . S
H804 C788 0.960 . S
H805 C793 0.930 . S
H806 C794 0.956 . S
H807 C794 0.961 . S
H808 C794 0.961 . S
H809 C795 0.958 . S
H810 C795 0.961 . S
H811 C795 0.960 . S
C812 C813 1.391 1_545 S
C812 C814 1.394 . S
C812 H828 0.931 . S
C813 C812 1.391 1_565 S
C813 C817 1.376 . S
C814 C812 1.394 . S
C814 C815 1.369 . S
C814 C818 1.531 . S
C815 C814 1.369 . S
C815 C816 1.410 1_545 S
C815 C823 1.503 1_556 S
C816 C815 1.410 1_565 S
C816 C817 1.392 . S
C816 C819 1.511 . S
C817 C813 1.376 . S
C817 C816 1.392 . S
C817 H829 0.929 . S
C818 C814 1.531 . S
C818 H830 0.960 . S
C818 H831 0.962 . S
C818 H832 0.960 . S
C819 C816 1.511 . S
C819 H833 0.961 . S
C819 H834 0.961 1_556 S
C819 H835 0.961 . S
C820 C821 1.370 1_565 S
C820 C822 1.363 . S
C820 H836 0.931 . S
C821 C820 1.370 1_545 S
C821 C825 1.408 . S
C822 C820 1.363 . S
C822 C823 1.370 1_565 S
C822 C826 1.524 . S
C823 C815 1.503 1_554 S
C823 C822 1.370 1_545 S
C823 C824 1.403 . S
C824 C823 1.403 . S
C824 C825 1.404 . S
C824 C827 1.539 . S
C825 C821 1.408 . S
C825 C824 1.404 . S
C825 H837 0.930 . S
C826 C822 1.524 . S
C826 H838 0.956 . S
C826 H839 0.961 . S
C826 H840 0.961 . S
C827 C824 1.539 . S
C827 H841 0.958 . S
C827 H842 0.961 . S
C827 H843 0.960 1_554 S
H828 C812 0.931 . S
H829 C817 0.929 . S
H830 C818 0.960 . S
H831 C818 0.962 . S
H832 C818 0.960 . S
H833 C819 0.961 . S
H834 C819 0.961 1_554 S
H835 C819 0.961 . S
H836 C820 0.931 . S
H837 C825 0.930 . S
H838 C826 0.956 . S
H839 C826 0.961 . S
H840 C826 0.961 . S
H841 C827 0.958 . S
H842 C827 0.961 . S
H843 C827 0.960 1_556 S
C844 C845 1.391 . S
C844 C846 1.394 . S
C844 H860 0.931 . S
C845 C844 1.391 . S
C845 C849 1.376 . S
C846 C844 1.394 . S
C846 C847 1.369 . S
C846 C850 1.531 . S
C847 C846 1.369 . S
C847 C848 1.410 . S
C847 C855 1.503 . S
C848 C847 1.410 . S
C848 C849 1.392 . S
C848 C851 1.511 . S
C849 C845 1.376 . S
C849 C848 1.392 . S
C849 H861 0.929 . S
C850 C846 1.531 . S
C850 H862 0.960 . S
C850 H863 0.962 . S
C850 H864 0.960 . S
C851 C848 1.511 . S
C851 H865 0.961 . S
C851 H866 0.961 . S
C851 H867 0.961 . S
C852 C853 1.370 . S
C852 C854 1.363 . S
C852 H868 0.931 . S
C853 C852 1.370 . S
C853 C857 1.408 . S
C854 C852 1.363 . S
C854 C855 1.370 . S
C854 C858 1.524 . S
C855 C847 1.503 . S
C855 C854 1.370 . S
C855 C856 1.403 . S
C856 C855 1.403 . S
C856 C857 1.404 . S
C856 C859 1.539 . S
C857 C853 1.408 . S
C857 C856 1.404 . S
C857 H869 0.930 . S
C858 C854 1.524 . S
C858 H870 0.956 . S
C858 H871 0.961 . S
C858 H872 0.961 . S
C859 C856 1.539 . S
C859 H873 0.958 . S
C859 H874 0.961 . S
C859 H875 0.960 . S
H860 C844 0.931 . S
H861 C849 0.929 . S
H862 C850 0.960 . S
H863 C850 0.962 . S
H864 C850 0.960 . S
H865 C851 0.961 . S
H866 C851 0.961 . S
H867 C851 0.961 . S
H868 C852 0.931 . S
H869 C857 0.930 . S
H870 C858 0.956 . S
H871 C858 0.961 . S
H872 C858 0.961 . S
H873 C859 0.958 . S
H874 C859 0.961 . S
H875 C859 0.960 . S
C876 C877 1.391 . S
C876 C878 1.394 . S
C876 H892 0.931 . S
C877 C876 1.391 . S
C877 C881 1.376 1_655 S
C878 C876 1.394 . S
C878 C879 1.348 1_655 S
C878 C882 1.531 . S
C879 C878 1.348 1_455 S
C879 C880 1.427 . S
C879 C887 1.507 . S
C880 C879 1.427 . S
C880 C881 1.392 . S
C880 C883 1.511 . S
C881 C877 1.376 1_455 S
C881 C880 1.392 . S
C881 H893 0.929 . S
C882 C878 1.531 . S
C882 H894 0.960 . S
C882 H895 0.962 . S
C882 H896 0.960 . S
C883 C880 1.511 . S
C883 H897 0.961 . S
C883 H898 0.961 . S
C883 H899 0.961 . S
C884 C885 1.370 1_655 S
C884 C886 1.363 . S
C884 H900 0.931 . S
C885 C884 1.370 1_455 S
C885 C889 1.408 . S
C886 C884 1.363 . S
C886 C887 1.370 1_655 S
C886 C890 1.524 . S
C887 C879 1.507 . S
C887 C886 1.370 1_455 S
C887 C888 1.403 . S
C888 C887 1.403 . S
C888 C889 1.404 . S
C888 C891 1.539 . S
C889 C885 1.408 . S
C889 C888 1.404 . S
C889 H901 0.930 . S
C890 C886 1.524 . S
C890 H902 0.956 . S
C890 H903 0.961 . S
C890 H904 0.961 . S
C891 C888 1.539 . S
C891 H905 0.958 . S
C891 H906 0.961 . S
C891 H907 0.960 . S
H892 C876 0.931 . S
H893 C881 0.929 . S
H894 C882 0.960 . S
H895 C882 0.962 . S
H896 C882 0.960 . S
H897 C883 0.961 . S
H898 C883 0.961 . S
H899 C883 0.961 . S
H900 C884 0.931 . S
H901 C889 0.930 . S
H902 C890 0.956 . S
H903 C890 0.961 . S
H904 C890 0.961 . S
H905 C891 0.958 . S
H906 C891 0.961 . S
H907 C891 0.960 . S
C908 C909 1.391 1_545 S
C908 C910 1.394 . S
C908 H924 0.931 . S
C909 C908 1.391 1_565 S
C909 C913 1.376 . S
C910 C908 1.394 . S
C910 C911 1.394 . S
C910 C914 1.531 . S
C911 C910 1.394 . S
C911 C912 1.379 1_545 S
C911 C919 1.509 . S
C912 C911 1.379 1_565 S
C912 C913 1.392 . S
C912 C915 1.511 . S
C913 C909 1.376 . S
C913 C912 1.392 . S
C913 H925 0.929 . S
C914 C910 1.531 . S
C914 H926 0.960 . S
C914 H927 0.962 . S
C914 H928 0.960 . S
C915 C912 1.511 . S
C915 H929 0.961 . S
C915 H930 0.961 . S
C915 H931 0.961 . S
C916 C917 1.370 1_565 S
C916 C918 1.363 . S
C916 H932 0.931 . S
C917 C916 1.370 1_545 S
C917 C921 1.408 . S
C918 C916 1.363 . S
C918 C919 1.370 1_565 S
C918 C922 1.524 . S
C919 C911 1.509 . S
C919 C918 1.370 1_545 S
C919 C920 1.403 . S
C920 C919 1.403 . S
C920 C921 1.404 . S
C920 C923 1.539 . S
C921 C917 1.408 . S
C921 C920 1.404 . S
C921 H933 0.930 . S
C922 C918 1.524 . S
C922 H934 0.956 . S
C922 H935 0.961 . S
C922 H936 0.961 . S
C923 C920 1.539 . S
C923 H937 0.958 . S
C923 H938 0.961 . S
C923 H939 0.960 . S
H924 C908 0.931 . S
H925 C913 0.929 . S
H926 C914 0.960 . S
H927 C914 0.962 . S
H928 C914 0.960 . S
H929 C915 0.961 . S
H930 C915 0.961 . S
H931 C915 0.961 . S
H932 C916 0.931 . S
H933 C921 0.930 . S
H934 C922 0.956 . S
H935 C922 0.961 . S
H936 C922 0.961 . S
H937 C923 0.958 . S
H938 C923 0.961 . S
H939 C923 0.960 . S
C940 C941 1.391 . S
C940 C942 1.394 . S
C940 H956 0.931 . S
C941 C940 1.391 . S
C941 C945 1.376 . S
C942 C940 1.394 . S
C942 C943 1.369 . S
C942 C946 1.531 . S
C943 C942 1.369 . S
C943 C944 1.410 . S
C943 C951 1.503 . S
C944 C943 1.410 . S
C944 C945 1.392 . S
C944 C947 1.511 . S
C945 C941 1.376 . S
C945 C944 1.392 . S
C945 H957 0.929 . S
C946 C942 1.531 . S
C946 H958 0.960 . S
C946 H959 0.962 . S
C946 H960 0.960 . S
C947 C944 1.511 . S
C947 H961 0.961 . S
C947 H962 0.961 . S
C947 H963 0.961 . S
C948 C949 1.370 . S
C948 C950 1.363 . S
C948 H964 0.931 . S
C949 C948 1.370 . S
C949 C953 1.408 . S
C950 C948 1.363 . S
C950 C951 1.370 . S
C950 C954 1.524 . S
C951 C943 1.503 . S
C951 C950 1.370 . S
C951 C952 1.403 . S
C952 C951 1.403 . S
C952 C953 1.404 . S
C952 C955 1.539 . S
C953 C949 1.408 . S
C953 C952 1.404 . S
C953 H965 0.930 . S
C954 C950 1.524 . S
C954 H966 0.956 . S
C954 H967 0.961 . S
C954 H968 0.961 . S
C955 C952 1.539 . S
C955 H969 0.958 . S
C955 H970 0.961 . S
C955 H971 0.960 . S
H956 C940 0.931 . S
H957 C945 0.929 . S
H958 C946 0.960 . S
H959 C946 0.962 . S
H960 C946 0.960 . S
H961 C947 0.961 . S
H962 C947 0.961 . S
H963 C947 0.961 . S
H964 C948 0.931 . S
H965 C953 0.930 . S
H966 C954 0.956 . S
H967 C954 0.961 . S
H968 C954 0.961 . S
H969 C955 0.958 . S
H970 C955 0.961 . S
H971 C955 0.960 . S
C972 C973 1.391 . S
C972 C974 1.394 . S
C972 H988 0.931 . S
C973 C972 1.391 . S
C973 C977 1.376 . S
C974 C972 1.394 . S
C974 C975 1.369 . S
C974 C978 1.531 . S
C975 C974 1.369 . S
C975 C976 1.410 . S
C975 C983 1.503 . S
C976 C975 1.410 . S
C976 C977 1.392 . S
C976 C979 1.511 . S
C977 C973 1.376 . S
C977 C976 1.392 . S
C977 H989 0.929 . S
C978 C974 1.531 . S
C978 H990 0.960 . S
C978 H991 0.962 . S
C978 H992 0.960 . S
C979 C976 1.511 . S
C979 H993 0.961 . S
C979 H994 0.961 . S
C979 H995 0.961 . S
C980 C981 1.370 1_556 S
C980 C982 1.363 . S
C980 H996 0.931 . S
C981 C980 1.370 1_554 S
C981 C985 1.408 . S
C982 C980 1.363 . S
C982 C983 1.370 . S
C982 C986 1.524 . S
C983 C975 1.503 . S
C983 C982 1.370 . S
C983 C984 1.403 1_556 S
C984 C983 1.403 1_554 S
C984 C985 1.404 . S
C984 C987 1.539 . S
C985 C981 1.408 . S
C985 C984 1.404 . S
C985 H997 0.930 . S
C986 C982 1.524 . S
C986 H998 0.956 . S
C986 H999 0.961 . S
C986 H1000 0.961 . S
C987 C984 1.539 . S
C987 H1001 0.958 . S
C987 H1002 0.961 . S
C987 H1003 0.960 . S
H988 C972 0.931 . S
H989 C977 0.929 . S
H990 C978 0.960 . S
H991 C978 0.962 . S
H992 C978 0.960 . S
H993 C979 0.961 . S
H994 C979 0.961 . S
H995 C979 0.961 . S
H996 C980 0.931 . S
H997 C985 0.930 . S
H998 C986 0.956 . S
H999 C986 0.961 . S
H1000 C986 0.961 . S
H1001 C987 0.958 . S
H1002 C987 0.961 . S
H1003 C987 0.960 . S
C1004 C1005 1.391 . S
C1004 C1006 1.394 . S
C1004 H1020 0.931 . S
C1005 C1004 1.391 . S
C1005 C1009 1.376 . S
C1006 C1004 1.394 . S
C1006 C1007 1.369 . S
C1006 C1010 1.531 . S
C1007 C1006 1.369 . S
C1007 C1008 1.410 . S
C1007 C1015 1.503 . S
C1008 C1007 1.410 . S
C1008 C1009 1.392 . S
C1008 C1011 1.511 . S
C1009 C1005 1.376 . S
C1009 C1008 1.392 . S
C1009 H1021 0.929 . S
C1010 C1006 1.531 . S
C1010 H1022 0.960 . S
C1010 H1023 0.962 . S
C1010 H1024 0.960 . S
C1011 C1008 1.511 . S
C1011 H1025 0.961 . S
C1011 H1026 0.961 . S
C1011 H1027 0.961 . S
C1012 C1013 1.370 . S
C1012 C1014 1.363 . S
C1012 H1028 0.931 . S
C1013 C1012 1.370 . S
C1013 C1017 1.408 . S
C1014 C1012 1.363 . S
C1014 C1015 1.370 . S
C1014 C1018 1.524 . S
C1015 C1007 1.503 . S
C1015 C1014 1.370 . S
C1015 C1016 1.403 . S
C1016 C1015 1.403 . S
C1016 C1017 1.404 . S
C1016 C1019 1.539 . S
C1017 C1013 1.408 . S
C1017 C1016 1.404 . S
C1017 H1029 0.930 . S
C1018 C1014 1.524 . S
C1018 H1030 0.956 . S
C1018 H1031 0.961 . S
C1018 H1032 0.961 . S
C1019 C1016 1.539 . S
C1019 H1033 0.958 . S
C1019 H1034 0.961 . S
C1019 H1035 0.960 . S
H1020 C1004 0.931 . S
H1021 C1009 0.929 . S
H1022 C1010 0.960 . S
H1023 C1010 0.962 . S
H1024 C1010 0.960 . S
H1025 C1011 0.961 . S
H1026 C1011 0.961 . S
H1027 C1011 0.961 . S
H1028 C1012 0.931 . S
H1029 C1017 0.930 . S
H1030 C1018 0.956 . S
H1031 C1018 0.961 . S
H1032 C1018 0.961 . S
H1033 C1019 0.958 . S
H1034 C1019 0.961 . S
H1035 C1019 0.960 . S
C1036 C1037 1.391 . S
C1036 C1038 1.394 . S
C1036 H1052 0.931 . S
C1037 C1036 1.391 . S
C1037 C1041 1.376 . S
C1038 C1036 1.394 . S
C1038 C1039 1.369 . S
C1038 C1042 1.531 . S
C1039 C1038 1.369 . S
C1039 C1040 1.410 . S
C1039 C1047 1.503 . S
C1040 C1039 1.410 . S
C1040 C1041 1.392 . S
C1040 C1043 1.511 . S
C1041 C1037 1.376 . S
C1041 C1040 1.392 . S
C1041 H1053 0.929 . S
C1042 C1038 1.531 . S
C1042 H1054 0.960 . S
C1042 H1055 0.962 . S
C1042 H1056 0.960 . S
C1043 C1040 1.511 . S
C1043 H1057 0.961 . S
C1043 H1058 0.961 . S
C1043 H1059 0.961 . S
C1044 C1045 1.370 . S
C1044 C1046 1.363 . S
C1044 H1060 0.931 . S
C1045 C1044 1.370 . S
C1045 C1049 1.408 . S
C1046 C1044 1.363 . S
C1046 C1047 1.370 . S
C1046 C1050 1.524 . S
C1047 C1039 1.503 . S
C1047 C1046 1.370 . S
C1047 C1048 1.403 . S
C1048 C1047 1.403 . S
C1048 C1049 1.404 . S
C1048 C1051 1.539 . S
C1049 C1045 1.408 . S
C1049 C1048 1.404 . S
C1049 H1061 0.930 . S
C1050 C1046 1.524 . S
C1050 H1062 0.956 . S
C1050 H1063 0.961 . S
C1050 H1064 0.961 . S
C1051 C1048 1.539 . S
C1051 H1065 0.958 . S
C1051 H1066 0.961 . S
C1051 H1067 0.960 . S
H1052 C1036 0.931 . S
H1053 C1041 0.929 . S
H1054 C1042 0.960 . S
H1055 C1042 0.962 . S
H1056 C1042 0.960 . S
H1057 C1043 0.961 . S
H1058 C1043 0.961 . S
H1059 C1043 0.961 . S
H1060 C1044 0.931 . S
H1061 C1049 0.930 . S
H1062 C1050 0.956 . S
H1063 C1050 0.961 . S
H1064 C1050 0.961 . S
H1065 C1051 0.958 . S
H1066 C1051 0.961 . S
H1067 C1051 0.960 . S
C1068 C1069 1.391 . S
C1068 C1070 1.394 . S
C1068 H1084 0.931 . S
C1069 C1068 1.391 . S
C1069 C1073 1.376 . S
C1070 C1068 1.394 . S
C1070 C1071 1.369 . S
C1070 C1074 1.531 . S
C1071 C1070 1.369 . S
C1071 C1072 1.410 . S
C1071 C1079 1.503 . S
C1072 C1071 1.410 . S
C1072 C1073 1.392 . S
C1072 C1075 1.511 . S
C1073 C1069 1.376 . S
C1073 C1072 1.392 . S
C1073 H1085 0.929 . S
C1074 C1070 1.531 . S
C1074 H1086 0.960 . S
C1074 H1087 0.962 . S
C1074 H1088 0.960 . S
C1075 C1072 1.511 . S
C1075 H1089 0.961 . S
C1075 H1090 0.961 . S
C1075 H1091 0.961 . S
C1076 C1077 1.370 . S
C1076 C1078 1.363 . S
C1076 H1092 0.931 . S
C1077 C1076 1.370 . S
C1077 C1081 1.408 . S
C1078 C1076 1.363 . S
C1078 C1079 1.370 . S
C1078 C1082 1.524 . S
C1079 C1071 1.503 . S
C1079 C1078 1.370 . S
C1079 C1080 1.403 . S
C1080 C1079 1.403 . S
C1080 C1081 1.404 . S
C1080 C1083 1.539 . S
C1081 C1077 1.408 . S
C1081 C1080 1.404 . S
C1081 H1093 0.930 . S
C1082 C1078 1.524 . S
C1082 H1094 0.956 . S
C1082 H1095 0.961 . S
C1082 H1096 0.961 . S
C1083 C1080 1.539 . S
C1083 H1097 0.958 . S
C1083 H1098 0.961 . S
C1083 H1099 0.960 . S
H1084 C1068 0.931 . S
H1085 C1073 0.929 . S
H1086 C1074 0.960 . S
H1087 C1074 0.962 . S
H1088 C1074 0.960 . S
H1089 C1075 0.961 . S
H1090 C1075 0.961 . S
H1091 C1075 0.961 . S
H1092 C1076 0.931 . S
H1093 C1081 0.930 . S
H1094 C1082 0.956 . S
H1095 C1082 0.961 . S
H1096 C1082 0.961 . S
H1097 C1083 0.958 . S
H1098 C1083 0.961 . S
H1099 C1083 0.960 . S
C1100 C1101 1.391 . S
C1100 C1102 1.394 . S
C1100 H1116 0.931 . S
C1101 C1100 1.391 . S
C1101 C1105 1.376 . S
C1102 C1100 1.394 . S
C1102 C1103 1.369 . S
C1102 C1106 1.531 . S
C1103 C1102 1.369 . S
C1103 C1104 1.410 . S
C1103 C1111 1.503 . S
C1104 C1103 1.410 . S
C1104 C1105 1.392 . S
C1104 C1107 1.511 . S
C1105 C1101 1.376 . S
C1105 C1104 1.392 . S
C1105 H1117 0.929 . S
C1106 C1102 1.531 . S
C1106 H1118 0.960 . S
C1106 H1119 0.962 . S
C1106 H1120 0.960 . S
C1107 C1104 1.511 . S
C1107 H1121 0.961 . S
C1107 H1122 0.961 . S
C1107 H1123 0.961 . S
C1108 C1109 1.370 . S
C1108 C1110 1.363 . S
C1108 H1124 0.931 . S
C1109 C1108 1.370 . S
C1109 C1113 1.408 . S
C1110 C1108 1.363 . S
C1110 C1111 1.370 . S
C1110 C1114 1.524 . S
C1111 C1103 1.503 . S
C1111 C1110 1.370 . S
C1111 C1112 1.403 . S
C1112 C1111 1.403 . S
C1112 C1113 1.404 . S
C1112 C1115 1.539 . S
C1113 C1109 1.408 . S
C1113 C1112 1.404 . S
C1113 H1125 0.930 . S
C1114 C1110 1.524 . S
C1114 H1126 0.956 . S
C1114 H1127 0.961 . S
C1114 H1128 0.961 . S
C1115 C1112 1.539 . S
C1115 H1129 0.958 . S
C1115 H1130 0.961 . S
C1115 H1131 0.960 . S
H1116 C1100 0.931 . S
H1117 C1105 0.929 . S
H1118 C1106 0.960 . S
H1119 C1106 0.962 . S
H1120 C1106 0.960 . S
H1121 C1107 0.961 . S
H1122 C1107 0.961 . S
H1123 C1107 0.961 . S
H1124 C1108 0.931 . S
H1125 C1113 0.930 . S
H1126 C1114 0.956 . S
H1127 C1114 0.961 . S
H1128 C1114 0.961 . S
H1129 C1115 0.958 . S
H1130 C1115 0.961 . S
H1131 C1115 0.960 . S
C1132 C1133 1.391 . S
C1132 C1134 1.394 . S
C1132 H1148 0.931 . S
C1133 C1132 1.391 . S
C1133 C1137 1.376 . S
C1134 C1132 1.394 . S
C1134 C1135 1.369 . S
C1134 C1138 1.531 . S
C1135 C1134 1.369 . S
C1135 C1136 1.410 . S
C1135 C1143 1.503 . S
C1136 C1135 1.410 . S
C1136 C1137 1.392 . S
C1136 C1139 1.511 . S
C1137 C1133 1.376 . S
C1137 C1136 1.392 . S
C1137 H1149 0.929 . S
C1138 C1134 1.531 . S
C1138 H1150 0.960 . S
C1138 H1151 0.962 . S
C1138 H1152 0.960 . S
C1139 C1136 1.511 . S
C1139 H1153 0.961 . S
C1139 H1154 0.961 . S
C1139 H1155 0.961 . S
C1140 C1141 1.370 . S
C1140 C1142 1.363 . S
C1140 H1156 0.931 . S
C1141 C1140 1.370 . S
C1141 C1145 1.408 . S
C1142 C1140 1.363 . S
C1142 C1143 1.370 . S
C1142 C1146 1.524 . S
C1143 C1135 1.503 . S
C1143 C1142 1.370 . S
C1143 C1144 1.403 . S
C1144 C1143 1.403 . S
C1144 C1145 1.404 . S
C1144 C1147 1.539 . S
C1145 C1141 1.408 . S
C1145 C1144 1.404 . S
C1145 H1157 0.930 . S
C1146 C1142 1.524 . S
C1146 H1158 0.956 . S
C1146 H1159 0.961 . S
C1146 H1160 0.961 . S
C1147 C1144 1.539 . S
C1147 H1161 0.958 . S
C1147 H1162 0.961 . S
C1147 H1163 0.960 . S
H1148 C1132 0.931 . S
H1149 C1137 0.929 . S
H1150 C1138 0.960 . S
H1151 C1138 0.962 . S
H1152 C1138 0.960 . S
H1153 C1139 0.961 . S
H1154 C1139 0.961 . S
H1155 C1139 0.961 . S
H1156 C1140 0.931 . S
H1157 C1145 0.930 . S
H1158 C1146 0.956 . S
H1159 C1146 0.961 . S
H1160 C1146 0.961 . S
H1161 C1147 0.958 . S
H1162 C1147 0.961 . S
H1163 C1147 0.960 . S
C1164 C1165 1.391 . S
C1164 C1166 1.394 . S
C1164 H1180 0.931 . S
C1165 C1164 1.391 . S
C1165 C1169 1.376 . S
C1166 C1164 1.394 . S
C1166 C1167 1.369 . S
C1166 C1170 1.531 . S
C1167 C1166 1.369 . S
C1167 C1168 1.410 . S
C1167 C1175 1.503 . S
C1168 C1167 1.410 . S
C1168 C1169 1.392 . S
C1168 C1171 1.511 . S
C1169 C1165 1.376 . S
C1169 C1168 1.392 . S
C1169 H1181 0.929 . S
C1170 C1166 1.531 . S
C1170 H1182 0.960 . S
C1170 H1183 0.962 . S
C1170 H1184 0.960 . S
C1171 C1168 1.511 . S
C1171 H1185 0.961 . S
C1171 H1186 0.961 . S
C1171 H1187 0.961 . S
C1172 C1173 1.370 . S
C1172 C1174 1.363 . S
C1172 H1188 0.931 . S
C1173 C1172 1.370 . S
C1173 C1177 1.408 . S
C1174 C1172 1.363 . S
C1174 C1175 1.370 . S
C1174 C1178 1.524 . S
C1175 C1167 1.503 . S
C1175 C1174 1.370 . S
C1175 C1176 1.403 . S
C1176 C1175 1.403 . S
C1176 C1177 1.404 . S
C1176 C1179 1.539 . S
C1177 C1173 1.408 . S
C1177 C1176 1.404 . S
C1177 H1189 0.930 . S
C1178 C1174 1.524 . S
C1178 H1190 0.956 . S
C1178 H1191 0.961 . S
C1178 H1192 0.961 . S
C1179 C1176 1.539 . S
C1179 H1193 0.958 . S
C1179 H1194 0.961 . S
C1179 H1195 0.960 . S
H1180 C1164 0.931 . S
H1181 C1169 0.929 . S
H1182 C1170 0.960 . S
H1183 C1170 0.962 . S
H1184 C1170 0.960 . S
H1185 C1171 0.961 . S
H1186 C1171 0.961 . S
H1187 C1171 0.961 . S
H1188 C1172 0.931 . S
H1189 C1177 0.930 . S
H1190 C1178 0.956 . S
H1191 C1178 0.961 . S
H1192 C1178 0.961 . S
H1193 C1179 0.958 . S
H1194 C1179 0.961 . S
H1195 C1179 0.960 . S
C1196 C1197 1.391 . S
C1196 C1198 1.394 1_556 S
C1196 H1212 0.931 . S
C1197 C1196 1.391 . S
C1197 C1201 1.376 1_556 S
C1198 C1196 1.394 1_554 S
C1198 C1199 1.369 . S
C1198 C1202 1.528 1_554 S
C1199 C1198 1.369 . S
C1199 C1200 1.410 . S
C1199 C1207 1.503 . S
C1200 C1199 1.410 . S
C1200 C1201 1.392 . S
C1200 C1203 1.511 . S
C1201 C1197 1.376 1_554 S
C1201 C1200 1.392 . S
C1201 H1213 0.929 . S
C1202 C1198 1.528 1_556 S
C1202 H1214 0.938 1_556 S
C1202 H1215 0.982 . S
C1202 H1216 0.966 . S
C1203 C1200 1.511 . S
C1203 H1217 0.961 . S
C1203 H1218 0.961 . S
C1203 H1219 0.961 . S
C1204 C1205 1.370 . S
C1204 C1206 1.363 . S
C1204 H1220 0.931 . S
C1205 C1204 1.370 . S
C1205 C1209 1.408 . S
C1206 C1204 1.363 . S
C1206 C1207 1.370 . S
C1206 C1210 1.524 1_554 S
C1207 C1199 1.503 . S
C1207 C1206 1.370 . S
C1207 C1208 1.403 . S
C1208 C1207 1.403 . S
C1208 C1209 1.404 . S
C1208 C1211 1.539 . S
C1209 C1205 1.408 . S
C1209 C1208 1.404 . S
C1209 H1221 0.930 . S
C1210 C1206 1.524 1_556 S
C1210 H1222 0.956 . S
C1210 H1223 0.961 . S
C1210 H1224 0.961 . S
C1211 C1208 1.539 . S
C1211 H1225 0.958 . S
C1211 H1226 0.961 . S
C1211 H1227 0.960 . S
H1212 C1196 0.931 . S
H1213 C1201 0.929 . S
H1214 C1202 0.938 1_554 S
H1215 C1202 0.982 . S
H1216 C1202 0.966 . S
H1217 C1203 0.961 . S
H1218 C1203 0.961 . S
H1219 C1203 0.961 . S
H1220 C1204 0.931 . S
H1221 C1209 0.930 . S
H1222 C1210 0.956 . S
H1223 C1210 0.961 . S
H1224 C1210 0.961 . S
H1225 C1211 0.958 . S
H1226 C1211 0.961 . S
H1227 C1211 0.960 . S
C1228 C1229 1.391 . S
C1228 C1230 1.394 . S
C1228 H1244 0.931 . S
C1229 C1228 1.391 . S
C1229 C1233 1.376 . S
C1230 C1228 1.394 . S
C1230 C1231 1.369 . S
C1230 C1234 1.531 . S
C1231 C1230 1.369 . S
C1231 C1232 1.410 . S
C1231 C1239 1.503 . S
C1232 C1231 1.410 . S
C1232 C1233 1.392 . S
C1232 C1235 1.511 . S
C1233 C1229 1.376 . S
C1233 C1232 1.392 . S
C1233 H1245 0.929 . S
C1234 C1230 1.531 . S
C1234 H1246 0.960 . S
C1234 H1247 0.962 . S
C1234 H1248 0.960 . S
C1235 C1232 1.511 . S
C1235 H1249 0.961 . S
C1235 H1250 0.961 . S
C1235 H1251 0.961 . S
C1236 C1237 1.370 . S
C1236 C1238 1.363 . S
C1236 H1252 0.931 . S
C1237 C1236 1.370 . S
C1237 C1241 1.408 . S
C1238 C1236 1.363 . S
C1238 C1239 1.370 . S
C1238 C1242 1.524 . S
C1239 C1231 1.503 . S
C1239 C1238 1.370 . S
C1239 C1240 1.403 . S
C1240 C1239 1.403 . S
C1240 C1241 1.404 . S
C1240 C1243 1.539 . S
C1241 C1237 1.408 . S
C1241 C1240 1.404 . S
C1241 H1253 0.930 . S
C1242 C1238 1.524 . S
C1242 H1254 0.956 . S
C1242 H1255 0.961 . S
C1242 H1256 0.961 . S
C1243 C1240 1.539 . S
C1243 H1257 0.958 . S
C1243 H1258 0.961 . S
C1243 H1259 0.960 . S
H1244 C1228 0.931 . S
H1245 C1233 0.929 . S
H1246 C1234 0.960 . S
H1247 C1234 0.962 . S
H1248 C1234 0.960 . S
H1249 C1235 0.961 . S
H1250 C1235 0.961 . S
H1251 C1235 0.961 . S
H1252 C1236 0.931 . S
H1253 C1241 0.930 . S
H1254 C1242 0.956 . S
H1255 C1242 0.961 . S
H1256 C1242 0.961 . S
H1257 C1243 0.958 . S
H1258 C1243 0.961 . S
H1259 C1243 0.960 . S
C1260 C1261 1.391 . S
C1260 C1262 1.394 . S
C1260 H1276 0.931 . S
C1261 C1260 1.391 . S
C1261 C1265 1.376 . S
C1262 C1260 1.394 . S
C1262 C1263 1.369 . S
C1262 C1266 1.531 . S
C1263 C1262 1.369 . S
C1263 C1264 1.410 . S
C1263 C1271 1.503 . S
C1264 C1263 1.410 . S
C1264 C1265 1.392 . S
C1264 C1267 1.511 . S
C1265 C1261 1.376 . S
C1265 C1264 1.392 . S
C1265 H1277 0.929 . S
C1266 C1262 1.531 . S
C1266 H1278 0.960 . S
C1266 H1279 0.962 . S
C1266 H1280 0.960 . S
C1267 C1264 1.511 . S
C1267 H1281 0.961 . S
C1267 H1282 0.961 . S
C1267 H1283 0.961 . S
C1268 C1269 1.370 . S
C1268 C1270 1.363 . S
C1268 H1284 0.931 . S
C1269 C1268 1.370 . S
C1269 C1273 1.408 . S
C1270 C1268 1.363 . S
C1270 C1271 1.370 . S
C1270 C1274 1.524 . S
C1271 C1263 1.503 . S
C1271 C1270 1.370 . S
C1271 C1272 1.403 . S
C1272 C1271 1.403 . S
C1272 C1273 1.404 . S
C1272 C1275 1.539 . S
C1273 C1269 1.408 . S
C1273 C1272 1.404 . S
C1273 H1285 0.930 . S
C1274 C1270 1.524 . S
C1274 H1286 0.956 . S
C1274 H1287 0.961 . S
C1274 H1288 0.961 . S
C1275 C1272 1.539 . S
C1275 H1289 0.958 . S
C1275 H1290 0.961 . S
C1275 H1291 0.960 . S
H1276 C1260 0.931 . S
H1277 C1265 0.929 . S
H1278 C1266 0.960 . S
H1279 C1266 0.962 . S
H1280 C1266 0.960 . S
H1281 C1267 0.961 . S
H1282 C1267 0.961 . S
H1283 C1267 0.961 . S
H1284 C1268 0.931 . S
H1285 C1273 0.930 . S
H1286 C1274 0.956 . S
H1287 C1274 0.961 . S
H1288 C1274 0.961 . S
H1289 C1275 0.958 . S
H1290 C1275 0.961 . S
H1291 C1275 0.960 . S
C1292 C1293 1.391 . S
C1292 C1294 1.394 . S
C1292 H1308 0.931 . S
C1293 C1292 1.391 . S
C1293 C1297 1.376 . S
C1294 C1292 1.394 . S
C1294 C1295 1.369 . S
C1294 C1298 1.531 . S
C1295 C1294 1.369 . S
C1295 C1296 1.410 . S
C1295 C1303 1.503 . S
C1296 C1295 1.410 . S
C1296 C1297 1.392 . S
C1296 C1299 1.511 . S
C1297 C1293 1.376 . S
C1297 C1296 1.392 . S
C1297 H1309 0.929 . S
C1298 C1294 1.531 . S
C1298 H1310 0.960 . S
C1298 H1311 0.962 . S
C1298 H1312 0.960 . S
C1299 C1296 1.511 . S
C1299 H1313 0.961 . S
C1299 H1314 0.961 . S
C1299 H1315 0.961 . S
C1300 C1301 1.370 . S
C1300 C1302 1.363 . S
C1300 H1316 0.931 . S
C1301 C1300 1.370 . S
C1301 C1305 1.408 . S
C1302 C1300 1.363 . S
C1302 C1303 1.370 . S
C1302 C1306 1.524 . S
C1303 C1295 1.503 . S
C1303 C1302 1.370 . S
C1303 C1304 1.403 . S
C1304 C1303 1.403 . S
C1304 C1305 1.404 . S
C1304 C1307 1.539 . S
C1305 C1301 1.408 . S
C1305 C1304 1.404 . S
C1305 H1317 0.930 . S
C1306 C1302 1.524 . S
C1306 H1318 0.956 . S
C1306 H1319 0.961 . S
C1306 H1320 0.961 . S
C1307 C1304 1.539 . S
C1307 H1321 0.958 . S
C1307 H1322 0.961 . S
C1307 H1323 0.960 . S
H1308 C1292 0.931 . S
H1309 C1297 0.929 . S
H1310 C1298 0.960 . S
H1311 C1298 0.962 . S
H1312 C1298 0.960 . S
H1313 C1299 0.961 . S
H1314 C1299 0.961 . S
H1315 C1299 0.961 . S
H1316 C1300 0.931 . S
H1317 C1305 0.930 . S
H1318 C1306 0.956 . S
H1319 C1306 0.961 . S
H1320 C1306 0.961 . S
H1321 C1307 0.958 . S
H1322 C1307 0.961 . S
H1323 C1307 0.960 . S
C1324 C1325 1.391 . S
C1324 C1326 1.394 . S
C1324 H1340 0.931 . S
C1325 C1324 1.391 . S
C1325 C1329 1.376 . S
C1326 C1324 1.394 . S
C1326 C1327 1.369 . S
C1326 C1330 1.531 . S
C1327 C1326 1.369 . S
C1327 C1328 1.410 . S
C1327 C1335 1.503 . S
C1328 C1327 1.410 . S
C1328 C1329 1.392 . S
C1328 C1331 1.511 . S
C1329 C1325 1.376 . S
C1329 C1328 1.392 . S
C1329 H1341 0.929 . S
C1330 C1326 1.531 . S
C1330 H1342 0.960 . S
C1330 H1343 0.962 . S
C1330 H1344 0.960 . S
C1331 C1328 1.511 . S
C1331 H1345 0.961 . S
C1331 H1346 0.961 . S
C1331 H1347 0.961 . S
C1332 C1333 1.370 . S
C1332 C1334 1.363 . S
C1332 H1348 0.931 . S
C1333 C1332 1.370 . S
C1333 C1337 1.408 . S
C1334 C1332 1.363 . S
C1334 C1335 1.370 . S
C1334 C1338 1.524 . S
C1335 C1327 1.503 . S
C1335 C1334 1.370 . S
C1335 C1336 1.403 . S
C1336 C1335 1.403 . S
C1336 C1337 1.404 . S
C1336 C1339 1.539 . S
C1337 C1333 1.408 . S
C1337 C1336 1.404 . S
C1337 H1349 0.930 . S
C1338 C1334 1.524 . S
C1338 H1350 0.956 . S
C1338 H1351 0.961 . S
C1338 H1352 0.961 . S
C1339 C1336 1.539 . S
C1339 H1353 0.958 . S
C1339 H1354 0.961 . S
C1339 H1355 0.960 . S
H1340 C1324 0.931 . S
H1341 C1329 0.929 . S
H1342 C1330 0.960 . S
H1343 C1330 0.962 . S
H1344 C1330 0.960 . S
H1345 C1331 0.961 . S
H1346 C1331 0.961 . S
H1347 C1331 0.961 . S
H1348 C1332 0.931 . S
H1349 C1337 0.930 . S
H1350 C1338 0.956 . S
H1351 C1338 0.961 . S
H1352 C1338 0.961 . S
H1353 C1339 0.958 . S
H1354 C1339 0.961 . S
H1355 C1339 0.960 . S
C397 N344 0.974 . S
C405 N14 1.004 . S
C429 N47 1.008 . S
C437 N377 0.991 . S
C461 N80 0.963 . S
C469 N212 1.007 . S
C493 N113 1.003 . S
C501 N245 0.985 . S
C525 N146 0.973 . S
C533 N278 0.997 1_556 S
C557 N179 1.007 1_554 S
C565 N311 0.980 . S
C589 C17 1.492 . S
C597 C281 1.496 . S
C621 C314 1.500 . S
C629 C50 1.498 . S
C653 C83 1.482 . S
C661 C347 1.487 . S
C685 C116 1.487 . S
C693 C380 1.489 . S
C717 C149 1.485 . S
C725 C215 1.488 . S
C749 C182 1.479 . S
C757 C248 1.486 . S
C781 N368 1.171 . S
C789 N5 1.150 . S
C813 N203 1.220 . S
C821 N38 1.164 . S
C845 N236 1.188 . S
C853 N71 1.149 . S
C877 N104 1.176 . S
C885 N269 1.149 . S
C909 N137 1.213 . S
C917 N302 1.174 . S
C941 N335 1.216 . S
C949 N170 1.155 . S
C973 C193 2.030 . S
C981 C8 2.058 . S
C1005 C28 2.049 1_655 S
C1013 C41 2.053 . S
C1037 C74 2.057 . S
C1045 C61 2.041 1_565 S
C1069 C94 2.034 . S
C1077 C107 2.057 . S
C1101 C140 2.057 . S
C1109 C127 2.041 1_455 S
C1133 C173 2.049 . S
C1141 C160 2.047 1_545 S
C1165 C259 2.051 . S
C1173 C206 2.053 . S
C1197 C239 2.044 . S
C1205 C292 2.050 1_655 S
C1229 C272 2.051 . S
C1237 C325 2.046 1_565 S
C1261 C358 2.033 . S
C1269 C305 2.058 . S
C1293 C391 2.036 1_455 S
C1301 C338 2.056 . S
C1325 C371 2.048 . S
C1333 C226 2.047 1_545 S
