# Generated by pormake.
# Topology umf, (4)-cn, num edge types: 1
# Building blocks:
#     Node 0, Type 0, BuildingBlock: NAWXER_clean_sbu_0, # of connection points: 4
#     Node 1, Type 0, BuildingBlock: NAWXER_clean_sbu_0, # of connection points: 4
#     Node 2, Type 0, BuildingBlock: NAWXER_clean_sbu_0, # of connection points: 4
#     Node 3, Type 0, BuildingBlock: NAWXER_clean_sbu_0, # of connection points: 4
#     Node 4, Type 0, BuildingBlock: NAWXER_clean_sbu_0, # of connection points: 4
#     Node 5, Type 0, BuildingBlock: NAWXER_clean_sbu_0, # of connection points: 4
#     Node 6, Type 0, BuildingBlock: NAWXER_clean_sbu_0, # of connection points: 4
#     Node 7, Type 0, BuildingBlock: NAWXER_clean_sbu_0, # of connection points: 4
#     Edge 8, Type (0, 0), BuildingBlock: TEMPAE_clean_linker_10, # of connection points: 2
#     Edge 9, Type (0, 0), BuildingBlock: TEMPAE_clean_linker_10, # of connection points: 2
#     Edge 10, Type (0, 0), BuildingBlock: TEMPAE_clean_linker_10, # of connection points: 2
#     Edge 11, Type (0, 0), BuildingBlock: TEMPAE_clean_linker_10, # of connection points: 2
#     Edge 12, Type (0, 0), BuildingBlock: TEMPAE_clean_linker_10, # of connection points: 2
#     Edge 13, Type (0, 0), BuildingBlock: TEMPAE_clean_linker_10, # of connection points: 2
#     Edge 14, Type (0, 0), BuildingBlock: TEMPAE_clean_linker_10, # of connection points: 2
#     Edge 15, Type (0, 0), BuildingBlock: TEMPAE_clean_linker_10, # of connection points: 2
#     Edge 16, Type (0, 0), BuildingBlock: TEMPAE_clean_linker_10, # of connection points: 2
#     Edge 17, Type (0, 0), BuildingBlock: TEMPAE_clean_linker_10, # of connection points: 2
#     Edge 18, Type (0, 0), BuildingBlock: TEMPAE_clean_linker_10, # of connection points: 2
#     Edge 19, Type (0, 0), BuildingBlock: TEMPAE_clean_linker_10, # of connection points: 2
#     Edge 20, Type (0, 0), BuildingBlock: TEMPAE_clean_linker_10, # of connection points: 2
#     Edge 21, Type (0, 0), BuildingBlock: TEMPAE_clean_linker_10, # of connection points: 2
#     Edge 22, Type (0, 0), BuildingBlock: TEMPAE_clean_linker_10, # of connection points: 2
#     Edge 23, Type (0, 0), BuildingBlock: TEMPAE_clean_linker_10, # of connection points: 2
# Relax obj value: 0.064
# Max RMSD: 0.167
# Mean RMSD: 0.166
data_MOF--net-umf--node1-NAWXER_clean_sbu_0--edge1-TEMPAE_clean_linker_10
_symmetry_space_group_name_H-M    P1
_symmetry_Int_Tables_number       1
_symmetry_cell_setting            triclinic
loop_
_symmetry_equiv_pos_as_xyz
'x, y, z'
_cell_length_a     29.576729
_cell_length_b     29.556662
_cell_length_c     54.244658
_cell_angle_alpha  90.106172
_cell_angle_beta   89.880946
_cell_angle_gamma 90.001506
loop_
_atom_site_label
_atom_site_type_symbol
_atom_site_fract_x
_atom_site_fract_y
_atom_site_fract_z
_atom_type_partial_charge
C0 C 0.1041 0.23268 0.19148 0.0
C1 C 0.03745 0.24983 0.10932 0.0
O2 O 0.06089 0.23566 0.1917 0.0
Zn3 Zn 0.00673 0.24528 0.1663 0.0
O4 O 0.12513 0.23638 0.17111 0.0
Zn5 Zn 0.07221 0.24403 0.15009 0.0
O6 O 0.04805 0.30978 0.15963 0.0
O7 O 0.9806 0.30176 0.17648 0.0
O8 O 0.07931 0.24926 0.11465 0.0
O9 O 0.00785 0.24849 0.12662 0.0
O10 O 0.97242 0.19132 0.17171 0.0
O11 O 0.03853 0.17956 0.15361 0.0
C12 C 0.01279 0.32719 0.16961 0.0
C13 C 0.00101 0.16432 0.16217 0.0
C14 C 0.74854 0.11326 0.69023 0.0
C15 C 0.73352 0.04873 0.60737 0.0
O16 O 0.74726 0.06993 0.68996 0.0
Zn17 Zn 0.74062 0.01618 0.66385 0.0
O18 O 0.74492 0.13474 0.67004 0.0
Zn19 Zn 0.74019 0.08214 0.64844 0.0
O20 O 0.67478 0.05447 0.65733 0.0
O21 O 0.68594 0.98734 0.67412 0.0
O22 O 0.73706 0.09032 0.61308 0.0
O23 O 0.73394 0.01853 0.62432 0.0
O24 O 0.7963 0.98387 0.66848 0.0
O25 O 0.80556 0.05151 0.652 0.0
C26 C 0.65904 0.01823 0.66714 0.0
C27 C 0.82229 0.01425 0.65991 0.0
C28 C 0.968 0.66334 0.16652 0.0
C29 C 0.9625 0.82663 0.16054 0.0
O30 O 0.93062 0.67731 0.15735 0.0
Zn31 Zn 0.89942 0.7404 0.14858 0.0
O32 O -0.002 0.69169 0.17293 0.0
Zn33 Zn 0.9656 0.74523 0.16353 0.0
O34 O 0.91211 0.74849 0.18996 0.0
O35 O 0.84708 0.74205 0.17055 0.0
O36 O -0.00566 0.80218 0.16885 0.0
O37 O 0.92624 0.80801 0.1524 0.0
O38 O 0.89111 0.73447 0.11325 0.0
O39 O 0.96279 0.74186 0.12395 0.0
C40 C 0.86883 0.74711 0.19057 0.0
C41 C 0.93256 0.73753 0.1072 0.0
C42 C 0.32311 0.96886 0.66756 0.0
C43 C 0.1601 0.97488 0.65971 0.0
O44 O 0.30711 0.93262 0.65784 0.0
Zn45 Zn 0.24154 0.90563 0.64887 0.0
O46 O 0.29645 0.00018 0.67436 0.0
Zn47 Zn 0.24159 0.97185 0.66399 0.0
O48 O 0.23341 0.91876 0.69033 0.0
O49 O 0.23566 0.85358 0.67065 0.0
O50 O 0.18634 0.0051 0.66824 0.0
O51 O 0.17646 0.93722 0.65204 0.0
O52 O 0.24534 0.89655 0.61357 0.0
O53 O 0.24901 0.96855 0.62444 0.0
C54 C 0.2316 0.87545 0.69074 0.0
C55 C 0.24945 0.93795 0.60763 0.0
C56 C 0.00274 0.81797 0.8774 0.0
C57 C 0.01393 0.65505 0.87007 0.0
O58 O 0.04021 0.80263 0.8859 0.0
Zn59 Zn 0.07366 0.73806 0.8894 0.0
O60 O 0.97408 0.79104 0.86794 0.0
Zn61 Zn 0.00819 0.73698 0.87331 0.0
O62 O 0.00923 0.73384 0.91298 0.0
O63 O 0.08066 0.7329 0.92485 0.0
O64 O 0.98185 0.68059 0.86322 0.0
O65 O 0.04925 0.67235 0.87996 0.0
O66 O 0.12663 0.7455 0.86826 0.0
O67 O 0.0624 0.74632 0.84781 0.0
C68 C 0.03878 0.73246 0.93024 0.0
C69 C 0.10561 0.74918 0.84792 0.0
C70 C 0.163 0.00578 0.37918 0.0
C71 C 0.32582 0.01603 0.37106 0.0
O72 O 0.17846 0.04376 0.38691 0.0
Zn73 Zn 0.24268 0.07699 0.39002 0.0
O74 O 0.18991 0.97628 0.37048 0.0
Zn75 Zn 0.24434 0.01088 0.37476 0.0
O76 O 0.25132 0.01408 0.41433 0.0
O77 O 0.24603 0.08594 0.42531 0.0
O78 O 0.29996 0.98409 0.36427 0.0
O79 O 0.30892 0.05177 0.3809 0.0
O80 O 0.23549 0.12901 0.36835 0.0
O81 O 0.23483 0.06393 0.34854 0.0
C82 C 0.2509 0.04459 0.43119 0.0
C83 C 0.23193 0.10717 0.34823 0.0
C84 C 0.96363 0.15563 0.87906 0.0
C85 C 0.96855 0.31891 0.87301 0.0
O86 O 0.92722 0.1741 0.88718 0.0
Zn87 Zn 0.90008 0.24162 0.89093 0.0
O88 O -0.00459 0.1802 0.87072 0.0
Zn89 Zn 0.96638 0.23701 0.876 0.0
O90 O 0.9632 0.24041 0.9156 0.0
O91 O 0.89139 0.24757 0.92625 0.0
O92 O -0.00132 0.29064 0.8666 0.0
O93 O 0.93114 0.30484 0.88216 0.0
O94 O 0.84794 0.23974 0.86896 0.0
O95 O 0.91313 0.23347 0.84955 0.0
C96 C 0.93279 0.24465 0.93233 0.0
C97 C 0.86985 0.23469 0.84894 0.0
C98 C 0.82513 0.96741 0.37899 0.0
C99 C 0.6618 0.96768 0.37216 0.0
O100 O 0.80745 0.93068 0.38703 0.0
Zn101 Zn 0.7413 0.90189 0.3909 0.0
O102 O 0.7999 -0.00156 0.37049 0.0
Zn103 Zn 0.74336 0.96773 0.37531 0.0
O104 O 0.73639 0.96592 0.41483 0.0
O105 O 0.73772 0.89422 0.42632 0.0
O106 O 0.68941 -0.00211 0.36506 0.0
O107 O 0.67668 0.93113 0.382 0.0
O108 O 0.74461 0.84898 0.36943 0.0
O109 O 0.74849 0.91355 0.34935 0.0
C110 C 0.73508 0.93596 0.43189 0.0
C111 C 0.74866 0.87021 0.34918 0.0
C112 C 0.97751 0.39628 0.18804 0.0
C113 C 0.00927 0.37675 0.17205 0.0
C114 C 0.9726 0.44341 0.18946 0.0
C115 C -0.00055 0.47135 0.17413 0.0
C116 C 0.03227 0.45183 0.15838 0.0
C117 C 0.03706 0.40474 0.15769 0.0
C118 C 0.93784 0.46323 0.20681 0.0
C119 C 0.06098 0.48053 0.14146 0.0
C120 C 0.95073 0.58398 0.15471 0.0
C121 C 0.97595 0.61437 0.169 0.0
C122 C 0.95802 0.53733 0.15632 0.0
C123 C -0.00927 0.52065 0.17298 0.0
C124 C 0.0158 0.55106 0.1878 0.0
C125 C 0.00843 0.59776 0.18544 0.0
C126 C 0.93124 0.50595 0.13987 0.0
C127 C 0.0504 0.53427 0.20605 0.0
H128 H 0.9563 0.37473 0.19935 0.0
H129 H 0.0616 0.38978 0.14524 0.0
H130 H 0.95329 0.49023 0.21826 0.0
H131 H 0.91018 0.479 0.19604 0.0
H132 H 0.92293 0.43728 0.21918 0.0
H133 H 0.08661 0.46025 0.13131 0.0
H134 H 0.03903 0.49778 0.12782 0.0
H135 H 0.07866 0.50723 0.15211 0.0
H136 H 0.9258 0.59673 0.14186 0.0
H137 H 0.02773 0.62123 0.19663 0.0
H138 H 0.91193 0.48144 0.15121 0.0
H139 H 0.95457 0.48617 0.12797 0.0
H140 H 0.90714 0.52448 0.12787 0.0
H141 H 0.03453 0.50982 0.21893 0.0
H142 H 0.06561 0.56224 0.21694 0.0
H143 H 0.07785 0.51608 0.1962 0.0
C144 C 0.40173 0.94832 0.65544 0.0
C145 C 0.37244 0.97469 0.66986 0.0
C146 C 0.44857 0.95512 0.65624 0.0
C147 C 0.4665 0.98852 0.67218 0.0
C148 C 0.43723 0.0143 0.68735 0.0
C149 C 0.3904 0.00737 0.68584 0.0
C150 C 0.47872 0.92747 0.63949 0.0
C151 C 0.45533 0.04964 0.70488 0.0
C152 C 0.59193 0.97973 0.68568 0.0
C153 C 0.60975 0.01198 0.66943 0.0
C154 C 0.54513 0.97264 0.68735 0.0
C155 C 0.51575 -0.00221 0.67203 0.0
C156 C 0.53356 0.03067 0.65576 0.0
C157 C 0.58036 0.03766 0.65483 0.0
C158 C 0.52716 0.93787 0.70522 0.0
C159 C 0.5033 0.05762 0.63886 0.0
H160 H 0.38797 0.92318 0.64297 0.0
H161 H 0.36785 0.02758 0.69715 0.0
H162 H 0.49687 0.95019 0.62655 0.0
H163 H 0.50467 0.90947 0.65047 0.0
H164 H 0.45946 0.90217 0.62858 0.0
H165 H 0.42833 0.06461 0.7166 0.0
H166 H 0.48146 0.03459 0.71701 0.0
H167 H 0.4718 0.07721 0.69431 0.0
H168 H 0.61456 0.96006 0.69714 0.0
H169 H 0.59403 0.06246 0.64213 0.0
H170 H 0.51052 0.91001 0.69495 0.0
H171 H 0.5012 0.95336 0.71738 0.0
H172 H 0.55426 0.92323 0.7169 0.0
H173 H 0.485 0.03439 0.62626 0.0
H174 H 0.52249 0.08243 0.62758 0.0
H175 H 0.47748 0.07614 0.64977 0.0
C176 C 0.0091 0.38457 0.85416 0.0
C177 C 0.97643 0.36791 0.87054 0.0
C178 C 0.0165 0.43128 0.85185 0.0
C179 C -0.00874 0.46164 0.86667 0.0
C180 C 0.95834 0.4449 0.88327 0.0
C181 C 0.95104 0.39824 0.88482 0.0
C182 C 0.05132 0.44813 0.83367 0.0
C183 C 0.93138 0.47622 0.89973 0.0
C184 C 0.03771 0.57743 0.88207 0.0
C185 C 0.0102 0.6055 0.86767 0.0
C186 C 0.03275 0.53035 0.88139 0.0
C187 C 4e-05 0.51093 0.8656 0.0
C188 C 0.97345 0.53896 0.85025 0.0
C189 C 0.97852 0.58608 0.85166 0.0
C190 C 0.06118 0.50156 0.89834 0.0
C191 C 0.93883 0.51925 0.83286 0.0
H192 H 0.02854 0.36115 0.84297 0.0
H193 H 0.92596 0.38544 0.89764 0.0
H194 H 0.03563 0.4727 0.82083 0.0
H195 H 0.0787 0.4662 0.84358 0.0
H196 H 0.06659 0.42021 0.82273 0.0
H197 H 0.90711 0.45766 0.91166 0.0
H198 H 0.95459 0.49591 0.9117 0.0
H199 H 0.91225 0.50082 0.88839 0.0
H200 H 0.06217 0.59231 0.89453 0.0
H201 H 0.95752 0.6077 0.84032 0.0
H202 H 0.07899 0.4749 0.88769 0.0
H203 H 0.03901 0.48425 0.9119 0.0
H204 H 0.08667 0.52178 0.90858 0.0
H205 H 0.95437 0.4923 0.82137 0.0
H206 H 0.92404 0.54527 0.82052 0.0
H207 H 0.91107 0.50344 0.84359 0.0
C208 C 0.39402 0.9792 0.35263 0.0
C209 C 0.37529 0.01143 0.36865 0.0
C210 C 0.44097 0.97311 0.35117 0.0
C211 C 0.4696 -0.00073 0.36645 0.0
C212 C 0.45091 0.03242 0.38233 0.0
C213 C 0.40394 0.03838 0.38307 0.0
C214 C 0.45987 0.93802 0.3337 0.0
C215 C 0.48037 0.06046 0.39918 0.0
C216 C 0.58273 0.94965 0.38447 0.0
C217 C 0.61265 0.97491 0.36991 0.0
C218 C 0.53604 0.95714 0.3834 0.0
C219 C 0.51886 0.99012 0.36703 0.0
C220 C 0.54878 0.01507 0.35186 0.0
C221 C 0.59548 0.00746 0.35366 0.0
C222 C 0.50519 0.9304 0.40016 0.0
C223 C 0.53148 0.04995 0.3339 0.0
H224 H 0.37197 0.95858 0.34129 0.0
H225 H 0.38959 0.06322 0.39556 0.0
H226 H 0.4865 0.95323 0.32189 0.0
H227 H 0.4759 0.91035 0.34435 0.0
H228 H 0.43338 0.92316 0.32166 0.0
H229 H 0.46064 0.08599 0.40973 0.0
H230 H 0.49794 0.03802 0.41246 0.0
H231 H 0.50678 0.07823 0.38837 0.0
H232 H 0.59588 0.92466 0.39718 0.0
H233 H 0.61853 0.02684 0.34225 0.0
H234 H 0.47992 0.91156 0.38908 0.0
H235 H 0.48626 0.95377 0.41244 0.0
H236 H 0.524 0.90588 0.41176 0.0
H237 H 0.50618 0.03444 0.3214 0.0
H238 H 0.55904 0.06486 0.32259 0.0
H239 H 0.51419 0.07761 0.34406 0.0
C240 C 0.98088 0.21653 0.96661 0.0
C241 C 0.94653 0.24549 0.95847 0.0
C242 C -0.00465 0.21717 0.99123 0.0
C243 C 0.97624 0.24881 1.0079 0.0
C244 C 0.94192 0.27863 0.99964 0.0
C245 C 0.92683 0.276 0.9751 0.0
C246 C 0.03077 0.18366 0.99946 0.0
C247 C 0.9217 0.31378 1.01662 0.0
C248 C 0.98349 0.22566 0.0767 0.0
C249 C 0.02224 0.25005 0.08338 0.0
C250 C 0.96841 0.22467 0.05219 0.0
C251 C -0.00829 0.25003 0.03405 0.0
C252 C 0.03039 0.27551 0.04082 0.0
C253 C 0.04572 0.27453 0.06536 0.0
C254 C 0.92803 0.19579 0.04564 0.0
C255 C 0.05536 0.30405 0.02219 0.0
H256 H -0.00408 0.19275 0.95374 0.0
H257 H 0.90062 0.29875 0.96869 0.0
H258 H 0.06132 0.20183 1.00594 0.0
H259 H 0.01777 0.16355 1.01521 0.0
H260 H 0.04084 0.16006 0.98446 0.0
H261 H 0.89674 0.33566 1.00708 0.0
H262 H 0.90467 0.29707 0.03239 0.0
H263 H 0.94888 0.33548 0.0243 0.0
H264 H 0.96552 0.20638 0.09061 0.0
H265 H 0.07546 0.2937 0.07057 0.0
H266 H 0.93763 0.17081 0.03125 0.0
H267 H 0.90076 0.21715 0.03787 0.0
H268 H 0.91435 0.17725 0.06182 0.0
H269 H 0.06993 0.28215 1.00758 0.0
H270 H 0.08314 0.32395 0.0307 0.0
H271 H 0.03154 0.32774 1.0131 0.0
C272 C 0.70116 -0.00108 0.57479 0.0
C273 C 0.73019 0.03439 0.58136 0.0
C274 C 0.69929 0.98297 0.55041 0.0
C275 C 0.72854 0.00171 0.53242 0.0
C276 C 0.75802 0.03755 0.53904 0.0
C277 C 0.75787 0.05405 0.56336 0.0
C278 C 0.66616 0.94596 0.54394 0.0
C279 C 0.79068 0.05754 0.52061 0.0
C280 C 0.75636 0.92914 0.4763 0.0
C281 C 0.73136 0.95069 0.45784 0.0
C282 C 0.75603 0.94559 0.50064 0.0
C283 C 0.72875 0.98345 0.50677 0.0
C284 C 0.70215 0.00422 0.4883 0.0
C285 C 0.70448 0.98812 0.46396 0.0
C286 C 0.78586 0.92329 0.51963 0.0
C287 C 0.67137 0.04354 0.49422 0.0
H288 H 0.67961 0.98388 0.58875 0.0
H289 H 0.78071 0.08111 0.56856 0.0
H290 H 0.64498 0.95653 0.5281 0.0
H291 H 0.68469 0.91503 0.53825 0.0
H292 H 0.64362 0.93728 0.55965 0.0
H293 H 0.81195 0.08464 0.5288 0.0
H294 H 0.81317 0.0306 0.51328 0.0
H295 H 0.77195 0.07185 0.50474 0.0
H296 H 0.77753 0.90049 0.47149 0.0
H297 H 0.68492 0.00462 0.44967 0.0
H298 H 0.76506 0.91039 0.53512 0.0
H299 H 0.80972 0.94853 0.52739 0.0
H300 H 0.80565 0.89472 0.51179 0.0
H301 H 0.64839 0.03453 0.50964 0.0
H302 H 0.65063 0.05386 0.47812 0.0
H303 H 0.69169 0.07304 0.50029 0.0
C304 C 0.92712 0.7062 0.06441 0.0
C305 C 0.94658 0.73674 0.08106 0.0
C306 C 0.94249 0.70361 0.03988 0.0
C307 C 0.97687 0.73348 0.03167 0.0
C308 C -0.00425 0.76513 0.04836 0.0
C309 C 0.98099 0.76575 0.07297 0.0
C310 C 0.92249 0.66846 0.02288 0.0
C311 C 0.03122 0.7987 0.04018 0.0
C312 C 0.04684 0.70787 0.97422 0.0
C313 C 0.02346 0.73232 0.95619 0.0
C314 C 0.03134 0.70689 0.99876 0.0
C315 C -0.00741 0.73234 1.00553 0.0
C316 C 0.96941 0.75769 0.98739 0.0
C317 C 0.98467 0.7567 0.96288 0.0
C318 C 0.05619 0.67837 1.01739 0.0
C319 C 0.92896 0.78652 0.99394 0.0
H320 H 0.90086 0.68342 0.07079 0.0
H321 H -0.00415 0.78954 0.08586 0.0
H322 H 0.90559 0.68516 1.0071 0.0
H323 H 0.94978 0.64681 1.0152 0.0
H324 H 0.89748 0.64651 0.03239 0.0
H325 H 0.04113 0.82227 0.05521 0.0
H326 H 0.06185 0.78057 0.0337 0.0
H327 H 0.01835 0.81883 0.02443 0.0
H328 H 0.07662 0.6887 0.96899 0.0
H329 H 0.96678 0.77596 0.94898 0.0
H330 H 0.03234 0.65459 0.02643 0.0
H331 H 0.07054 0.70027 0.03203 0.0
H332 H 0.08411 0.65857 1.00889 0.0
H333 H 0.90161 0.76512 1.00167 0.0
H334 H 0.91543 0.80511 0.97777 0.0
H335 H 0.93839 0.81146 1.00837 0.0
C336 C 0.22776 0.0518 0.47534 0.0
C337 C 0.25452 0.03091 0.45729 0.0
C338 C 0.22786 0.03616 0.4998 0.0
C339 C 0.25665 -0.00013 0.5065 0.0
C340 C 0.285 0.97984 0.48845 0.0
C341 C 0.28292 -0.00497 0.46395 0.0
C342 C 0.19616 0.05757 0.5183 0.0
C343 C 0.31738 0.94226 0.49499 0.0
C344 C 0.28135 0.988 0.57499 0.0
C345 C 0.25348 0.95157 0.58153 0.0
C346 C 0.28387 0.00309 0.55049 0.0
C347 C 0.25649 0.98239 0.53228 0.0
C348 C 0.22828 0.94551 0.53884 0.0
C349 C 0.22774 0.93001 0.56334 0.0
C350 C 0.31563 0.04134 0.54412 0.0
C351 C 0.19761 0.92335 0.52017 0.0
H352 H 0.20541 0.07921 0.4701 0.0
H353 H 0.3038 0.97903 0.44999 0.0
H354 H 0.17316 0.03145 0.52598 0.0
H355 H 0.21563 0.07189 0.53392 0.0
H356 H 0.1754 0.08494 0.51005 0.0
H357 H 0.33937 0.93256 0.47921 0.0
H358 H 0.33915 0.95281 0.51062 0.0
H359 H 0.29824 0.91197 0.50102 0.0
H360 H 0.30147 0.0045 0.58907 0.0
H361 H 0.20582 0.90215 0.56847 0.0
H362 H 0.29602 0.07122 0.53797 0.0
H363 H 0.33802 0.03124 0.52862 0.0
H364 H 0.33699 0.05152 0.56001 0.0
H365 H 0.17421 0.94891 0.51235 0.0
H366 H 0.1773 0.89548 0.52829 0.0
H367 H 0.21784 0.90951 0.50466 0.0
C368 C 0.17539 0.21887 0.21576 0.0
C369 C 0.12809 0.22204 0.2148 0.0
C370 C 0.19741 0.20503 0.23748 0.0
C371 C 0.17144 0.19357 0.25855 0.0
C372 C 0.12385 0.19825 0.2579 0.0
C373 C 0.10287 0.21264 0.23615 0.0
C374 C 0.24827 0.20109 0.2376 0.0
C375 C 0.09476 0.18595 0.27982 0.0
C376 C 0.21145 0.10446 0.30363 0.0
C377 C 0.22147 0.13036 0.32465 0.0
C378 C 0.19704 0.12485 0.2817 0.0
C379 C 0.193 0.17251 0.28054 0.0
C380 C 0.20522 0.1991 0.30125 0.0
C381 C 0.21904 0.17769 0.32315 0.0
C382 C 0.18388 0.09511 0.26019 0.0
C383 C 0.202 0.25003 0.30058 0.0
H384 H 0.19518 0.22631 0.19942 0.0
H385 H 0.06632 0.21507 0.23571 0.0
H386 H 0.26246 0.21781 0.2542 0.0
H387 H 0.25806 0.1649 0.23838 0.0
H388 H 0.26383 0.21637 0.22092 0.0
H389 H 0.0585 0.19399 0.27681 0.0
H390 H 0.09782 0.14918 0.28359 0.0
H391 H 0.10643 0.20419 0.29652 0.0
H392 H 0.2133 0.06787 0.30449 0.0
H393 H 0.22701 0.198 0.33922 0.0
H394 H 0.2016 0.10615 0.2432 0.0
H395 H 0.14703 0.09826 0.25677 0.0
H396 H 0.19183 0.05889 0.26348 0.0
H397 H 0.21831 0.26338 0.28365 0.0
H398 H 0.21807 0.266 0.31692 0.0
H399 H 0.16594 0.26031 0.30008 0.0
C400 C 0.87236 0.21779 0.80388 0.0
C401 C 0.84654 0.2268 0.82508 0.0
C402 C 0.85193 0.20477 0.78171 0.0
C403 C 0.8043 0.2011 0.78047 0.0
C404 C 0.77776 0.21276 0.80132 0.0
C405 C 0.79921 0.22522 0.82348 0.0
C406 C 0.88163 0.19232 0.76003 0.0
C407 C 0.72684 0.21003 0.80057 0.0
C408 C 0.75979 0.18434 0.71526 0.0
C409 C 0.75728 0.13698 0.71391 0.0
C410 C 0.77242 0.20614 0.73731 0.0
C411 C 0.78333 0.1799 0.75832 0.0
C412 C 0.77893 0.13227 0.7573 0.0
C413 C 0.76574 0.1115 0.73523 0.0
C414 C 0.77597 0.25706 0.73781 0.0
C415 C 0.79062 0.10287 0.77915 0.0
H416 H 0.90894 0.21919 0.80479 0.0
H417 H 0.77895 0.23245 0.83968 0.0
H418 H 0.87853 0.15555 0.75619 0.0
H419 H 0.87059 0.21056 0.74324 0.0
H420 H 0.91783 0.2002 0.76339 0.0
H421 H 0.71099 0.22656 0.81685 0.0
H422 H 0.71371 0.22616 0.78357 0.0
H423 H 0.71624 0.17404 0.8002 0.0
H424 H 0.75298 0.20435 0.69896 0.0
H425 H 0.76369 0.07491 0.73451 0.0
H426 H 0.81209 0.26709 0.73834 0.0
H427 H 0.75963 0.27087 0.75465 0.0
H428 H 0.76014 0.27279 0.72136 0.0
H429 H 0.8273 0.10572 0.78315 0.0
H430 H 0.78247 0.06666 0.7759 0.0
H431 H 0.77211 0.11446 0.7958 0.0
C432 C 0.75864 0.79871 0.3243 0.0
C433 C 0.75671 0.84611 0.32552 0.0
C434 C 0.77088 0.77654 0.30227 0.0
C435 C 0.78198 0.80244 0.28114 0.0
C436 C 0.77803 0.85013 0.28201 0.0
C437 C 0.76521 0.87127 0.30407 0.0
C438 C 0.77391 0.72559 0.30192 0.0
C439 C 0.78991 0.87917 0.26002 0.0
C440 C 0.87108 0.76375 0.23565 0.0
C441 C 0.84536 0.75492 0.21444 0.0
C442 C 0.85055 0.77689 0.25782 0.0
C443 C 0.80293 0.78086 0.25905 0.0
C444 C 0.77648 0.76928 0.23821 0.0
C445 C 0.79803 0.7567 0.21605 0.0
C446 C 0.88018 0.78925 0.27948 0.0
C447 C 0.72557 0.77227 0.23897 0.0
H448 H 0.75178 0.77896 0.3407 0.0
H449 H 0.76355 0.90788 0.30468 0.0
H450 H 0.75772 0.71176 0.28508 0.0
H451 H 0.80994 0.71519 0.30154 0.0
H452 H 0.75764 0.71021 0.31837 0.0
H453 H 0.78199 0.91548 0.26316 0.0
H454 H 0.82657 0.87605 0.25597 0.0
H455 H 0.77133 0.86751 0.24345 0.0
H456 H 0.90765 0.76216 0.23474 0.0
H457 H 0.77785 0.7496 0.19985 0.0
H458 H 0.86887 0.77118 0.2963 0.0
H459 H 0.87731 0.82606 0.28325 0.0
H460 H 0.91634 0.78109 0.27613 0.0
H461 H 0.71224 0.75656 0.25607 0.0
H462 H 0.70977 0.75548 0.2228 0.0
H463 H 0.71516 0.80832 0.23911 0.0
C464 C 0.21131 0.87796 0.73542 0.0
C465 C 0.22173 0.85217 0.71439 0.0
C466 C 0.19733 0.8574 0.75741 0.0
C467 C 0.19414 0.80969 0.75864 0.0
C468 C 0.20684 0.78324 0.73793 0.0
C469 C 0.22021 0.80481 0.71597 0.0
C470 C 0.18366 0.88699 0.77892 0.0
C471 C 0.20454 0.73226 0.73867 0.0
C472 C 0.17688 0.76352 0.82353 0.0
C473 C 0.12961 0.75972 0.82454 0.0
C474 C 0.19882 0.77746 0.80176 0.0
C475 C 0.17281 0.78836 0.78067 0.0
C476 C 0.12529 0.78295 0.78136 0.0
C477 C 0.1044 0.76849 0.80316 0.0
C478 C 0.24961 0.78216 0.8016 0.0
C479 C 0.09614 0.79461 0.75942 0.0
H480 H 0.21248 0.91458 0.7345 0.0
H481 H 0.22851 0.78458 0.6999 0.0
H482 H 0.14685 0.88327 0.7824 0.0
H483 H 0.20151 0.87629 0.79589 0.0
H484 H 0.19104 0.92333 0.77558 0.0
H485 H 0.22108 0.71653 0.72236 0.0
H486 H 0.22091 0.71928 0.75563 0.0
H487 H 0.16867 0.72133 0.73915 0.0
H488 H 0.19667 0.75656 0.83989 0.0
H489 H 0.06788 0.76553 0.80362 0.0
H490 H 0.25886 0.81851 0.80085 0.0
H491 H 0.26415 0.76572 0.78497 0.0
H492 H 0.26531 0.76706 0.81825 0.0
H493 H 0.0986 0.83139 0.75557 0.0
H494 H 0.06 0.78596 0.76245 0.0
H495 H 0.10823 0.77646 0.74275 0.0
C496 C 0.96098 0.09539 0.17739 0.0
C497 C -0.00814 0.11538 0.1611 0.0
C498 C 0.95435 0.0484 0.17742 0.0
C499 C 0.97862 0.02117 0.16046 0.0
C500 C 0.00875 0.04139 0.14347 0.0
C501 C 0.01531 0.08827 0.14414 0.0
C502 C 0.92233 0.0278 0.19599 0.0
C503 C 0.03457 0.01346 0.12481 0.0
C504 C -0.0001 0.89766 0.17479 0.0
C505 C 0.96661 0.87636 0.16056 0.0
C506 C 0.0036 0.94492 0.17529 0.0
C507 C 0.9737 0.97131 0.16092 0.0
C508 C 0.94009 0.95002 0.14647 0.0
C509 C 0.93675 0.90273 0.14658 0.0
C510 C 0.03955 0.96661 0.19113 0.0
C511 C 0.90807 0.97714 0.13065 0.0
H512 H 0.94297 0.11631 0.19058 0.0
H513 H 0.03886 0.10373 0.13133 0.0
H514 H 0.89626 0.0073 0.18644 0.0
H515 H 0.9412 0.00466 0.20834 0.0
H516 H 0.90512 0.05382 0.20745 0.0
H517 H 0.05485 0.03473 0.11204 0.0
H518 H 0.05771 0.98988 0.13445 0.0
H519 H 0.01083 -0.00738 0.11378 0.0
H520 H 0.02282 0.87743 0.18578 0.0
H521 H 0.91104 0.8864 0.13548 0.0
H522 H 0.02384 -0.00895 0.20412 0.0
H523 H 0.06349 0.98585 0.17938 0.0
H524 H 0.059 0.94133 0.20191 0.0
H525 H 0.88902 0.00161 0.14221 0.0
H526 H 0.8835 0.95538 0.12069 0.0
H527 H 0.92752 -0.00297 0.11692 0.0
C528 C 0.09037 0.01457 0.67427 0.0
C529 C 0.1108 0.98212 0.65903 0.0
C530 C 0.04324 0.01986 0.67461 0.0
C531 C 0.0162 -0.00742 0.65902 0.0
C532 C 0.03675 0.96043 0.64324 0.0
C533 C 0.08381 0.95532 0.64359 0.0
C534 C 0.02233 0.05414 0.69188 0.0
C535 C 0.00903 0.93137 0.62602 0.0
C536 C 0.89229 0.9755 0.67459 0.0
C537 C 0.87168 0.00758 0.6593 0.0
C538 C 0.93946 0.97052 0.67485 0.0
C539 C 0.96635 -0.00229 0.65914 0.0
C540 C 0.94563 0.0296 0.64337 0.0
C541 C 0.89854 0.03441 0.6438 0.0
C542 C 0.96055 0.93654 0.69212 0.0
C543 C 0.9732 0.05857 0.62603 0.0
H544 H 0.11114 0.03513 0.68634 0.0
H545 H 0.09953 0.93039 0.63165 0.0
H546 H 0.00253 0.07926 0.68124 0.0
H547 H -0.00149 0.037 0.70464 0.0
H548 H 0.04809 0.07243 0.70295 0.0
H549 H 0.03039 0.9088 0.61446 0.0
H550 H 0.98518 0.91018 0.63679 0.0
H551 H 0.98849 0.9531 0.61371 0.0
H552 H 0.87164 0.95493 0.68671 0.0
H553 H 0.88268 0.05906 0.63182 0.0
H554 H 0.98457 0.95387 0.70467 0.0
H555 H 0.98015 0.91119 0.68144 0.0
H556 H 0.93491 0.91851 0.70342 0.0
H557 H -0.0028 0.07976 0.63668 0.0
H558 H 0.95174 0.08112 0.61461 0.0
H559 H -0.00643 0.03675 0.61358 0.0
C560 C 0.93843 0.07947 0.89326 0.0
C561 C 0.968 0.10593 0.87908 0.0
C562 C 0.94198 0.0322 0.89341 0.0
C563 C 0.97548 0.01102 0.87876 0.0
C564 C 0.00511 0.03749 0.8642 0.0
C565 C 0.00122 0.08473 0.86468 0.0
C566 C 0.91027 0.00499 0.90943 0.0
C567 C 0.04093 0.01591 0.84815 0.0
C568 C 0.01741 0.89407 0.89527 0.0
C569 C -0.00627 0.86694 0.87847 0.0
C570 C 0.01088 0.94095 0.89597 0.0
C571 C 0.98051 0.96117 0.87916 0.0
C572 C 0.95604 0.93392 0.86235 0.0
C573 C 0.96266 0.88693 0.86235 0.0
C574 C 0.03694 0.9689 0.91446 0.0
C575 C 0.92376 0.95451 0.84399 0.0
H576 H 0.91279 0.09574 0.9045 0.0
H577 H 0.02391 0.10503 0.85355 0.0
H578 H 0.89107 0.98053 0.89799 0.0
H579 H 0.92998 0.98509 0.92301 0.0
H580 H 0.88584 0.02669 0.91959 0.0
H581 H 0.06021 0.04125 0.83728 0.0
H582 H 0.06504 -0.00332 0.85975 0.0
H583 H 0.02513 -0.00854 0.83523 0.0
H584 H 0.04113 0.87863 0.90794 0.0
H585 H 0.94446 0.866 0.84928 0.0
H586 H 0.01332 0.98968 0.92567 0.0
H587 H 0.05988 -0.00745 0.90468 0.0
H588 H 0.05745 0.94765 0.92708 0.0
H589 H 0.89772 0.97487 0.85371 0.0
H590 H 0.90651 0.92849 0.83258 0.0
H591 H 0.94242 0.97777 0.83157 0.0
C592 C 0.90113 0.94447 0.39425 0.0
C593 C 0.87472 0.97277 0.37935 0.0
C594 C 0.94832 0.94841 0.3946 0.0
C595 C 0.96956 0.98096 0.37942 0.0
C596 C 0.94314 0.00943 0.36421 0.0
C597 C 0.89591 0.00525 0.36451 0.0
C598 C 0.97539 0.91801 0.41138 0.0
C599 C 0.9648 0.04418 0.34757 0.0
C600 C 0.08655 0.0229 0.39596 0.0
C601 C 0.11388 -0.00254 0.37997 0.0
C602 C 0.03956 0.01724 0.39626 0.0
C603 C 0.01942 0.98595 0.37987 0.0
C604 C 0.04683 0.95984 0.36382 0.0
C605 C 0.09391 0.96562 0.36423 0.0
C606 C 0.01146 0.04502 0.41398 0.0
C607 C 0.02635 0.92651 0.34591 0.0
H608 H 0.88487 0.91944 0.40585 0.0
H609 H 0.87562 0.02694 0.35284 0.0
H610 H -0.00025 0.89773 0.40039 0.0
H611 H -0.00465 0.9388 0.42448 0.0
H612 H 0.95362 0.89453 0.42209 0.0
H613 H 0.93953 0.06277 0.33635 0.0
H614 H 0.98404 0.06902 0.35875 0.0
H615 H 0.98923 0.02747 0.33495 0.0
H616 H 0.10194 0.0473 0.40831 0.0
H617 H 0.11497 0.94612 0.35175 0.0
H618 H -0.00951 0.02243 0.42566 0.0
H619 H 0.98801 0.06713 0.40357 0.0
H620 H 0.03258 0.06658 0.42618 0.0
H621 H 0.00598 0.90102 0.356 0.0
H622 H 0.05241 0.9086 0.3348 0.0
H623 H 0.00314 0.94444 0.33319 0.0
loop_
_geom_bond_atom_site_label_1
_geom_bond_atom_site_label_2
_geom_bond_distance
_geom_bond_site_symmetry_2
_ccdc_geom_bond_type
C0 O2 1.247 . S
C0 O4 1.258 . S
C1 O8 1.247 . S
C1 O9 1.258 . S
O2 C0 1.247 . S
O2 Zn3 2.028 . S
Zn3 O2 2.028 . S
Zn3 O7 2.035 . S
Zn3 O9 2.035 . S
Zn3 O10 2.028 . S
O4 C0 1.258 . S
O4 Zn5 2.035 . S
Zn5 O4 2.035 . S
Zn5 O6 2.028 . S
Zn5 O8 2.028 . S
Zn5 O11 2.035 . S
O6 Zn5 2.028 . S
O6 C12 1.247 . S
O7 Zn3 2.035 . S
O7 C12 1.258 . S
O8 C1 1.247 . S
O8 Zn5 2.028 . S
O9 C1 1.258 . S
O9 Zn3 2.035 . S
O10 Zn3 2.028 . S
O10 C13 1.247 . S
O11 Zn5 2.035 . S
O11 C13 1.258 . S
C12 O6 1.247 . S
C12 O7 1.258 . S
C13 O10 1.247 . S
C13 O11 1.258 . S
C14 O16 1.247 . S
C14 O18 1.258 . S
C15 O22 1.247 . S
C15 O23 1.258 . S
O16 C14 1.247 . S
O16 Zn17 2.028 . S
Zn17 O16 2.028 . S
Zn17 O21 2.035 . S
Zn17 O23 2.035 . S
Zn17 O24 2.028 . S
O18 C14 1.258 . S
O18 Zn19 2.035 . S
Zn19 O18 2.035 . S
Zn19 O20 2.028 . S
Zn19 O22 2.028 . S
Zn19 O25 2.035 . S
O20 Zn19 2.028 . S
O20 C26 1.247 . S
O21 Zn17 2.035 . S
O21 C26 1.258 . S
O22 C15 1.247 . S
O22 Zn19 2.028 . S
O23 C15 1.258 . S
O23 Zn17 2.035 . S
O24 Zn17 2.028 . S
O24 C27 1.247 . S
O25 Zn19 2.035 . S
O25 C27 1.258 . S
C26 O20 1.247 . S
C26 O21 1.258 . S
C27 O24 1.247 . S
C27 O25 1.258 . S
C28 O30 1.247 . S
C28 O32 1.258 . S
C29 O36 1.247 . S
C29 O37 1.258 . S
O30 C28 1.247 . S
O30 Zn31 2.028 . S
Zn31 O30 2.028 . S
Zn31 O35 2.035 . S
Zn31 O37 2.035 . S
Zn31 O38 2.028 . S
O32 C28 1.258 . S
O32 Zn33 2.035 . S
Zn33 O32 2.035 . S
Zn33 O34 2.028 . S
Zn33 O36 2.028 . S
Zn33 O39 2.035 . S
O34 Zn33 2.028 . S
O34 C40 1.247 . S
O35 Zn31 2.035 . S
O35 C40 1.258 . S
O36 C29 1.247 . S
O36 Zn33 2.028 . S
O37 C29 1.258 . S
O37 Zn31 2.035 . S
O38 Zn31 2.028 . S
O38 C41 1.247 . S
O39 Zn33 2.035 . S
O39 C41 1.258 . S
C40 O34 1.247 . S
C40 O35 1.258 . S
C41 O38 1.247 . S
C41 O39 1.258 . S
C42 O44 1.247 . S
C42 O46 1.258 . S
C43 O50 1.247 . S
C43 O51 1.258 . S
O44 C42 1.247 . S
O44 Zn45 2.028 . S
Zn45 O44 2.028 . S
Zn45 O49 2.035 . S
Zn45 O51 2.035 . S
Zn45 O52 2.028 . S
O46 C42 1.258 . S
O46 Zn47 2.035 . S
Zn47 O46 2.035 . S
Zn47 O48 2.028 . S
Zn47 O50 2.028 . S
Zn47 O53 2.035 . S
O48 Zn47 2.028 . S
O48 C54 1.247 . S
O49 Zn45 2.035 . S
O49 C54 1.258 . S
O50 C43 1.247 . S
O50 Zn47 2.028 . S
O51 C43 1.258 . S
O51 Zn45 2.035 . S
O52 Zn45 2.028 . S
O52 C55 1.247 . S
O53 Zn47 2.035 . S
O53 C55 1.258 . S
C54 O48 1.247 . S
C54 O49 1.258 . S
C55 O52 1.247 . S
C55 O53 1.258 . S
C56 O58 1.247 . S
C56 O60 1.258 . S
C57 O64 1.247 . S
C57 O65 1.258 . S
O58 C56 1.247 . S
O58 Zn59 2.028 . S
Zn59 O58 2.028 . S
Zn59 O63 2.035 . S
Zn59 O65 2.035 . S
Zn59 O66 2.028 . S
O60 C56 1.258 . S
O60 Zn61 2.035 . S
Zn61 O60 2.035 . S
Zn61 O62 2.028 . S
Zn61 O64 2.028 . S
Zn61 O67 2.035 . S
O62 Zn61 2.028 . S
O62 C68 1.247 . S
O63 Zn59 2.035 . S
O63 C68 1.258 . S
O64 C57 1.247 . S
O64 Zn61 2.028 . S
O65 C57 1.258 . S
O65 Zn59 2.035 . S
O66 Zn59 2.028 . S
O66 C69 1.247 . S
O67 Zn61 2.035 . S
O67 C69 1.258 . S
C68 O62 1.247 . S
C68 O63 1.258 . S
C69 O66 1.247 . S
C69 O67 1.258 . S
C70 O72 1.247 . S
C70 O74 1.258 . S
C71 O78 1.247 . S
C71 O79 1.258 . S
O72 C70 1.247 . S
O72 Zn73 2.028 . S
Zn73 O72 2.028 . S
Zn73 O77 2.035 . S
Zn73 O79 2.035 . S
Zn73 O80 2.028 . S
O74 C70 1.258 . S
O74 Zn75 2.035 . S
Zn75 O74 2.035 . S
Zn75 O76 2.028 . S
Zn75 O78 2.028 . S
Zn75 O81 2.035 . S
O76 Zn75 2.028 . S
O76 C82 1.247 . S
O77 Zn73 2.035 . S
O77 C82 1.258 . S
O78 C71 1.247 . S
O78 Zn75 2.028 . S
O79 C71 1.258 . S
O79 Zn73 2.035 . S
O80 Zn73 2.028 . S
O80 C83 1.247 . S
O81 Zn75 2.035 . S
O81 C83 1.258 . S
C82 O76 1.247 . S
C82 O77 1.258 . S
C83 O80 1.247 . S
C83 O81 1.258 . S
C84 O86 1.247 . S
C84 O88 1.258 . S
C85 O92 1.247 . S
C85 O93 1.258 . S
O86 C84 1.247 . S
O86 Zn87 2.028 . S
Zn87 O86 2.028 . S
Zn87 O91 2.035 . S
Zn87 O93 2.035 . S
Zn87 O94 2.028 . S
O88 C84 1.258 . S
O88 Zn89 2.035 . S
Zn89 O88 2.035 . S
Zn89 O90 2.028 . S
Zn89 O92 2.028 . S
Zn89 O95 2.035 . S
O90 Zn89 2.028 . S
O90 C96 1.247 . S
O91 Zn87 2.035 . S
O91 C96 1.258 . S
O92 C85 1.247 . S
O92 Zn89 2.028 . S
O93 C85 1.258 . S
O93 Zn87 2.035 . S
O94 Zn87 2.028 . S
O94 C97 1.247 . S
O95 Zn89 2.035 . S
O95 C97 1.258 . S
C96 O90 1.247 . S
C96 O91 1.258 . S
C97 O94 1.247 . S
C97 O95 1.258 . S
C98 O100 1.247 . S
C98 O102 1.258 . S
C99 O106 1.247 . S
C99 O107 1.258 . S
O100 C98 1.247 . S
O100 Zn101 2.028 . S
Zn101 O100 2.028 . S
Zn101 O105 2.035 . S
Zn101 O107 2.035 . S
Zn101 O108 2.028 . S
O102 C98 1.258 . S
O102 Zn103 2.035 . S
Zn103 O102 2.035 . S
Zn103 O104 2.028 . S
Zn103 O106 2.028 . S
Zn103 O109 2.035 . S
O104 Zn103 2.028 . S
O104 C110 1.247 . S
O105 Zn101 2.035 . S
O105 C110 1.258 . S
O106 C99 1.247 . S
O106 Zn103 2.028 . S
O107 C99 1.258 . S
O107 Zn101 2.035 . S
O108 Zn101 2.028 . S
O108 C111 1.247 . S
O109 Zn103 2.035 . S
O109 C111 1.258 . S
C110 O104 1.247 . S
C110 O105 1.258 . S
C111 O108 1.247 . S
C111 O109 1.258 . S
C112 C113 1.391 . S
C112 C114 1.394 . S
C112 H128 0.931 . S
C113 C112 1.391 . S
C113 C117 1.376 . S
C114 C112 1.394 . S
C114 C115 1.369 . S
C114 C118 1.531 . S
C115 C114 1.369 . S
C115 C116 1.410 . S
C115 C123 1.503 1_455 S
C116 C115 1.410 . S
C116 C117 1.392 . S
C116 C119 1.511 1_455 S
C117 C113 1.376 . S
C117 C116 1.392 . S
C117 H129 0.929 . S
C118 C114 1.531 . S
C118 H130 0.960 . S
C118 H131 0.962 . S
C118 H132 0.960 . S
C119 C116 1.511 1_655 S
C119 H133 0.961 . S
C119 H134 0.961 . S
C119 H135 0.961 . S
C120 C121 1.370 . S
C120 C122 1.363 . S
C120 H136 0.931 . S
C121 C120 1.370 . S
C121 C125 1.408 . S
C122 C120 1.363 . S
C122 C123 1.370 . S
C122 C126 1.524 . S
C123 C115 1.503 1_655 S
C123 C122 1.370 . S
C123 C124 1.403 1_655 S
C124 C123 1.403 1_455 S
C124 C125 1.404 1_455 S
C124 C127 1.539 . S
C125 C121 1.408 . S
C125 C124 1.404 1_655 S
C125 H137 0.930 . S
C126 C122 1.524 . S
C126 H138 0.956 . S
C126 H139 0.961 . S
C126 H140 0.961 . S
C127 C124 1.539 . S
C127 H141 0.958 . S
C127 H142 0.961 . S
C127 H143 0.960 . S
H128 C112 0.931 . S
H129 C117 0.929 . S
H130 C118 0.960 . S
H131 C118 0.962 . S
H132 C118 0.960 . S
H133 C119 0.961 . S
H134 C119 0.961 . S
H135 C119 0.961 . S
H136 C120 0.931 . S
H137 C125 0.930 . S
H138 C126 0.956 . S
H139 C126 0.961 . S
H140 C126 0.961 . S
H141 C127 0.958 . S
H142 C127 0.961 . S
H143 C127 0.960 . S
C144 C145 1.391 . S
C144 C146 1.394 . S
C144 H160 0.931 . S
C145 C144 1.391 . S
C145 C149 1.376 . S
C146 C144 1.394 . S
C146 C147 1.369 . S
C146 C150 1.531 . S
C147 C146 1.369 . S
C147 C148 1.410 1_565 S
C147 C155 1.503 1_565 S
C148 C147 1.410 1_545 S
C148 C149 1.392 1_545 S
C148 C151 1.511 . S
C149 C145 1.376 . S
C149 C148 1.392 1_565 S
C149 H161 0.929 . S
C150 C146 1.531 . S
C150 H162 0.960 . S
C150 H163 0.962 . S
C150 H164 0.960 . S
C151 C148 1.511 . S
C151 H165 0.961 . S
C151 H166 0.961 . S
C151 H167 0.961 . S
C152 C153 1.370 . S
C152 C154 1.372 . S
C152 H168 0.931 . S
C153 C152 1.370 . S
C153 C157 1.408 . S
C154 C152 1.372 . S
C154 C155 1.378 . S
C154 C158 1.508 1_545 S
C155 C147 1.503 1_545 S
C155 C154 1.378 . S
C155 C156 1.403 . S
C156 C155 1.403 . S
C156 C157 1.404 . S
C156 C159 1.539 . S
C157 C153 1.408 . S
C157 C156 1.404 . S
C157 H169 0.930 . S
C158 C154 1.508 1_565 S
C158 H170 0.956 . S
C158 H171 0.961 . S
C158 H172 0.961 . S
C159 C156 1.539 . S
C159 H173 0.958 . S
C159 H174 0.961 . S
C159 H175 0.960 . S
H160 C144 0.931 . S
H161 C149 0.929 . S
H162 C150 0.960 . S
H163 C150 0.962 . S
H164 C150 0.960 . S
H165 C151 0.961 . S
H166 C151 0.961 . S
H167 C151 0.961 . S
H168 C152 0.931 . S
H169 C157 0.930 . S
H170 C158 0.956 . S
H171 C158 0.961 . S
H172 C158 0.961 . S
H173 C159 0.958 . S
H174 C159 0.961 . S
H175 C159 0.960 . S
C176 C177 1.391 . S
C176 C178 1.394 1_655 S
C176 H192 0.931 1_655 S
C177 C176 1.391 . S
C177 C181 1.376 . S
C178 C176 1.394 1_455 S
C178 C179 1.369 1_455 S
C178 C182 1.531 . S
C179 C178 1.369 1_655 S
C179 C180 1.410 . S
C179 C187 1.503 1_655 S
C180 C179 1.410 . S
C180 C181 1.392 . S
C180 C183 1.511 . S
C181 C177 1.376 . S
C181 C180 1.392 . S
C181 H193 0.929 . S
C182 C178 1.531 . S
C182 H194 0.960 . S
C182 H195 0.962 . S
C182 H196 0.960 . S
C183 C180 1.511 . S
C183 H197 0.961 . S
C183 H198 0.961 . S
C183 H199 0.961 . S
C184 C185 1.370 . S
C184 C186 1.363 . S
C184 H200 0.931 . S
C185 C184 1.370 . S
C185 C189 1.408 . S
C186 C184 1.363 . S
C186 C187 1.370 . S
C186 C190 1.524 . S
C187 C179 1.503 1_455 S
C187 C186 1.370 . S
C187 C188 1.403 . S
C188 C187 1.403 . S
C188 C189 1.404 . S
C188 C191 1.539 1_455 S
C189 C185 1.408 . S
C189 C188 1.404 . S
C189 H201 0.930 . S
C190 C186 1.524 . S
C190 H202 0.956 . S
C190 H203 0.948 1_455 S
C190 H204 0.961 . S
C191 C188 1.539 1_655 S
C191 H205 0.958 1_655 S
C191 H206 0.961 . S
C191 H207 0.960 . S
H192 C176 0.931 1_455 S
H193 C181 0.929 . S
H194 C182 0.960 . S
H195 C182 0.962 . S
H196 C182 0.960 . S
H197 C183 0.961 . S
H198 C183 0.961 . S
H199 C183 0.961 . S
H200 C184 0.931 . S
H201 C189 0.930 . S
H202 C190 0.956 . S
H203 C190 0.948 1_655 S
H204 C190 0.961 . S
H205 C191 0.958 1_455 S
H206 C191 0.961 . S
H207 C191 0.960 . S
C208 C209 1.391 . S
C208 C210 1.394 1_545 S
C208 H224 0.931 . S
C209 C208 1.391 . S
C209 C213 1.376 . S
C210 C208 1.394 1_565 S
C210 C211 1.369 1_565 S
C210 C214 1.531 . S
C211 C210 1.369 1_545 S
C211 C212 1.410 . S
C211 C219 1.503 1_545 S
C212 C211 1.410 . S
C212 C213 1.392 . S
C212 C215 1.511 . S
C213 C209 1.376 . S
C213 C212 1.392 . S
C213 H225 0.929 . S
C214 C210 1.531 . S
C214 H226 0.960 . S
C214 H227 0.962 . S
C214 H228 0.960 . S
C215 C212 1.511 . S
C215 H229 0.961 . S
C215 H230 0.961 . S
C215 H231 0.961 . S
C216 C217 1.370 . S
C216 C218 1.363 . S
C216 H232 0.931 . S
C217 C216 1.370 . S
C217 C221 1.408 . S
C218 C216 1.363 . S
C218 C219 1.370 . S
C218 C222 1.524 . S
C219 C211 1.503 1_565 S
C219 C218 1.370 . S
C219 C220 1.403 . S
C220 C219 1.403 . S
C220 C221 1.404 . S
C220 C223 1.539 1_565 S
C221 C217 1.408 . S
C221 C220 1.404 . S
C221 H233 0.930 . S
C222 C218 1.524 . S
C222 H234 0.956 . S
C222 H235 0.961 . S
C222 H236 0.961 . S
C223 C220 1.539 1_545 S
C223 H237 0.958 . S
C223 H238 0.961 . S
C223 H239 0.960 . S
H224 C208 0.931 . S
H225 C213 0.929 . S
H226 C214 0.960 . S
H227 C214 0.962 . S
H228 C214 0.960 . S
H229 C215 0.961 . S
H230 C215 0.961 . S
H231 C215 0.961 . S
H232 C216 0.931 . S
H233 C221 0.930 . S
H234 C222 0.956 . S
H235 C222 0.961 . S
H236 C222 0.961 . S
H237 C223 0.958 . S
H238 C223 0.961 . S
H239 C223 0.960 . S
C240 C241 1.391 1_455 S
C240 C242 1.394 . S
C240 H256 0.931 . S
C241 C240 1.391 1_655 S
C241 C245 1.376 . S
C242 C240 1.394 . S
C242 C243 1.369 1_455 S
C242 C246 1.531 . S
C243 C242 1.369 1_655 S
C243 C244 1.410 . S
C243 C251 1.503 1_656 S
C244 C243 1.410 . S
C244 C245 1.392 . S
C244 C247 1.511 . S
C245 C241 1.376 . S
C245 C244 1.392 . S
C245 H257 0.929 . S
C246 C242 1.531 . S
C246 H258 0.960 . S
C246 H259 0.962 . S
C246 H260 0.960 . S
C247 C244 1.511 . S
C247 H261 0.961 . S
C247 H262 0.961 1_556 S
C247 H263 0.965 . S
C248 C249 1.370 . S
C248 C250 1.365 . S
C248 H264 0.931 . S
C249 C248 1.370 . S
C249 C253 1.408 . S
C250 C248 1.365 . S
C250 C251 1.372 . S
C250 C254 1.522 1_455 S
C251 C243 1.503 1_454 S
C251 C250 1.372 . S
C251 C252 1.403 . S
C252 C251 1.403 . S
C252 C253 1.404 . S
C252 C255 1.539 . S
C253 C249 1.408 . S
C253 C252 1.404 . S
C253 H265 0.930 . S
C254 C250 1.522 1_655 S
C254 H266 0.967 . S
C254 H267 0.961 . S
C254 H268 0.961 . S
C255 C252 1.539 . S
C255 H269 0.958 . S
C255 H270 0.961 . S
C255 H271 0.960 1_554 S
H256 C240 0.931 . S
H257 C245 0.929 . S
H258 C246 0.960 . S
H259 C246 0.962 . S
H260 C246 0.960 . S
H261 C247 0.961 . S
H262 C247 0.961 1_554 S
H263 C247 0.965 . S
H264 C248 0.931 . S
H265 C253 0.930 . S
H266 C254 0.967 . S
H267 C254 0.961 . S
H268 C254 0.961 . S
H269 C255 0.958 . S
H270 C255 0.961 . S
H271 C255 0.960 1_556 S
C272 C273 1.391 . S
C272 C274 1.394 . S
C272 H288 0.931 . S
C273 C272 1.391 . S
C273 C277 1.376 . S
C274 C272 1.394 . S
C274 C275 1.369 . S
C274 C278 1.531 . S
C275 C274 1.369 . S
C275 C276 1.410 . S
C275 C283 1.503 . S
C276 C275 1.410 . S
C276 C277 1.392 . S
C276 C279 1.511 . S
C277 C273 1.376 . S
C277 C276 1.392 . S
C277 H289 0.929 . S
C278 C274 1.531 . S
C278 H290 0.960 . S
C278 H291 0.962 1_545 S
C278 H292 0.960 . S
C279 C276 1.511 . S
C279 H293 0.961 1_545 S
C279 H294 0.961 1_545 S
C279 H295 0.961 . S
C280 C281 1.370 . S
C280 C282 1.363 . S
C280 H296 0.931 . S
C281 C280 1.370 . S
C281 C285 1.408 1_565 S
C282 C280 1.363 . S
C282 C283 1.370 1_565 S
C282 C286 1.524 . S
C283 C275 1.503 . S
C283 C282 1.370 1_545 S
C283 C284 1.403 . S
C284 C283 1.403 . S
C284 C285 1.404 . S
C284 C287 1.539 . S
C285 C281 1.408 1_545 S
C285 C284 1.404 . S
C285 H297 0.930 . S
C286 C282 1.524 . S
C286 H298 0.956 . S
C286 H299 0.961 . S
C286 H300 0.961 . S
C287 C284 1.539 . S
C287 H301 0.958 . S
C287 H302 0.961 . S
C287 H303 0.960 . S
H288 C272 0.931 . S
H289 C277 0.929 . S
H290 C278 0.960 . S
H291 C278 0.962 1_565 S
H292 C278 0.960 . S
H293 C279 0.961 1_565 S
H294 C279 0.961 1_565 S
H295 C279 0.961 . S
H296 C280 0.931 . S
H297 C285 0.930 . S
H298 C286 0.956 . S
H299 C286 0.961 . S
H300 C286 0.961 . S
H301 C287 0.958 . S
H302 C287 0.961 . S
H303 C287 0.960 . S
C304 C305 1.391 . S
C304 C306 1.394 . S
C304 H320 0.931 . S
C305 C304 1.391 . S
C305 C309 1.376 . S
C306 C304 1.394 . S
C306 C307 1.369 . S
C306 C310 1.531 . S
C307 C306 1.369 . S
C307 C308 1.410 . S
C307 C315 1.503 1_554 S
C308 C307 1.410 . S
C308 C309 1.392 . S
C308 C311 1.511 . S
C309 C305 1.376 . S
C309 C308 1.392 . S
C309 H321 0.929 . S
C310 C306 1.531 . S
C310 H322 0.960 1_554 S
C310 H323 0.962 1_655 S
C310 H324 0.960 . S
C311 C308 1.511 . S
C311 H325 0.961 . S
C311 H326 0.961 1_654 S
C311 H327 0.961 . S
C312 C313 1.370 . S
C312 C314 1.363 . S
C312 H328 0.931 . S
C313 C312 1.370 . S
C313 C317 1.408 1_455 S
C314 C312 1.363 . S
C314 C315 1.370 1_455 S
C314 C318 1.508 1_556 S
C315 C307 1.503 1_556 S
C315 C314 1.370 1_655 S
C315 C316 1.403 . S
C316 C315 1.403 . S
C316 C317 1.404 . S
C316 C319 1.539 . S
C317 C313 1.408 1_655 S
C317 C316 1.404 . S
C317 H329 0.930 . S
C318 C314 1.508 1_554 S
C318 H330 0.967 . S
C318 H331 0.975 . S
C318 H332 0.952 1_554 S
C319 C316 1.539 . S
C319 H333 0.958 . S
C319 H334 0.961 . S
C319 H335 0.960 . S
H320 C304 0.931 . S
H321 C309 0.929 . S
H322 C310 0.960 1_556 S
H323 C310 0.962 1_455 S
H324 C310 0.960 . S
H325 C311 0.961 . S
H326 C311 0.961 1_456 S
H327 C311 0.961 . S
H328 C312 0.931 . S
H329 C317 0.930 . S
H330 C318 0.967 . S
H331 C318 0.975 . S
H332 C318 0.952 1_556 S
H333 C319 0.958 . S
H334 C319 0.961 . S
H335 C319 0.960 . S
C336 C337 1.391 . S
C336 C338 1.394 . S
C336 H352 0.931 . S
C337 C336 1.391 . S
C337 C341 1.380 . S
C338 C336 1.394 . S
C338 C339 1.369 1_545 S
C338 C342 1.531 . S
C339 C338 1.369 1_565 S
C339 C340 1.410 . S
C339 C347 1.503 . S
C340 C339 1.410 . S
C340 C341 1.390 1_565 S
C340 C343 1.511 . S
C341 C337 1.380 . S
C341 C340 1.390 1_545 S
C341 H353 0.927 1_545 S
C342 C338 1.531 . S
C342 H354 0.960 . S
C342 H355 0.962 . S
C342 H356 0.960 . S
C343 C340 1.511 . S
C343 H357 0.961 . S
C343 H358 0.961 . S
C343 H359 0.961 . S
C344 C345 1.370 1_545 S
C344 C346 1.363 . S
C344 H360 0.931 . S
C345 C344 1.370 1_565 S
C345 C349 1.408 . S
C346 C344 1.363 . S
C346 C347 1.370 1_545 S
C346 C350 1.524 . S
C347 C339 1.503 . S
C347 C346 1.370 1_565 S
C347 C348 1.403 . S
C348 C347 1.403 . S
C348 C349 1.404 . S
C348 C351 1.539 . S
C349 C345 1.408 . S
C349 C348 1.404 . S
C349 H361 0.930 . S
C350 C346 1.524 . S
C350 H362 0.956 . S
C350 H363 0.961 . S
C350 H364 0.961 . S
C351 C348 1.539 . S
C351 H365 0.958 . S
C351 H366 0.961 . S
C351 H367 0.960 . S
H352 C336 0.931 . S
H353 C341 0.927 1_565 S
H354 C342 0.960 . S
H355 C342 0.962 . S
H356 C342 0.960 . S
H357 C343 0.961 . S
H358 C343 0.961 . S
H359 C343 0.961 . S
H360 C344 0.931 . S
H361 C349 0.930 . S
H362 C350 0.956 . S
H363 C350 0.961 . S
H364 C350 0.961 . S
H365 C351 0.958 . S
H366 C351 0.961 . S
H367 C351 0.960 . S
C368 C369 1.391 . S
C368 C370 1.394 . S
C368 H384 0.931 . S
C369 C368 1.391 . S
C369 C373 1.376 . S
C370 C368 1.394 . S
C370 C371 1.369 . S
C370 C374 1.531 . S
C371 C370 1.369 . S
C371 C372 1.410 . S
C371 C379 1.503 . S
C372 C371 1.410 . S
C372 C373 1.392 . S
C372 C375 1.511 . S
C373 C369 1.376 . S
C373 C372 1.392 . S
C373 H385 0.929 . S
C374 C370 1.531 . S
C374 H386 0.960 . S
C374 H387 0.962 . S
C374 H388 0.960 . S
C375 C372 1.511 . S
C375 H389 0.961 . S
C375 H390 0.961 . S
C375 H391 0.961 . S
C376 C377 1.370 . S
C376 C378 1.363 . S
C376 H392 0.931 . S
C377 C376 1.370 . S
C377 C381 1.408 . S
C378 C376 1.363 . S
C378 C379 1.370 . S
C378 C382 1.524 . S
C379 C371 1.503 . S
C379 C378 1.370 . S
C379 C380 1.403 . S
C380 C379 1.403 . S
C380 C381 1.404 . S
C380 C383 1.539 . S
C381 C377 1.408 . S
C381 C380 1.404 . S
C381 H393 0.930 . S
C382 C378 1.524 . S
C382 H394 0.956 . S
C382 H395 0.961 . S
C382 H396 0.961 . S
C383 C380 1.539 . S
C383 H397 0.958 . S
C383 H398 0.961 . S
C383 H399 0.960 . S
H384 C368 0.931 . S
H385 C373 0.929 . S
H386 C374 0.960 . S
H387 C374 0.962 . S
H388 C374 0.960 . S
H389 C375 0.961 . S
H390 C375 0.961 . S
H391 C375 0.961 . S
H392 C376 0.931 . S
H393 C381 0.930 . S
H394 C382 0.956 . S
H395 C382 0.961 . S
H396 C382 0.961 . S
H397 C383 0.958 . S
H398 C383 0.961 . S
H399 C383 0.960 . S
C400 C401 1.391 . S
C400 C402 1.394 . S
C400 H416 0.931 . S
C401 C400 1.391 . S
C401 C405 1.376 . S
C402 C400 1.394 . S
C402 C403 1.369 . S
C402 C406 1.531 . S
C403 C402 1.369 . S
C403 C404 1.410 . S
C403 C411 1.503 . S
C404 C403 1.410 . S
C404 C405 1.392 . S
C404 C407 1.511 . S
C405 C401 1.376 . S
C405 C404 1.392 . S
C405 H417 0.929 . S
C406 C402 1.531 . S
C406 H418 0.960 . S
C406 H419 0.962 . S
C406 H420 0.960 . S
C407 C404 1.511 . S
C407 H421 0.961 . S
C407 H422 0.961 . S
C407 H423 0.961 . S
C408 C409 1.370 . S
C408 C410 1.363 . S
C408 H424 0.931 . S
C409 C408 1.370 . S
C409 C413 1.408 . S
C410 C408 1.363 . S
C410 C411 1.370 . S
C410 C414 1.524 . S
C411 C403 1.503 . S
C411 C410 1.370 . S
C411 C412 1.403 . S
C412 C411 1.403 . S
C412 C413 1.404 . S
C412 C415 1.539 . S
C413 C409 1.408 . S
C413 C412 1.404 . S
C413 H425 0.930 . S
C414 C410 1.524 . S
C414 H426 0.956 . S
C414 H427 0.961 . S
C414 H428 0.961 . S
C415 C412 1.539 . S
C415 H429 0.958 . S
C415 H430 0.961 . S
C415 H431 0.960 . S
H416 C400 0.931 . S
H417 C405 0.929 . S
H418 C406 0.960 . S
H419 C406 0.962 . S
H420 C406 0.960 . S
H421 C407 0.961 . S
H422 C407 0.961 . S
H423 C407 0.961 . S
H424 C408 0.931 . S
H425 C413 0.930 . S
H426 C414 0.956 . S
H427 C414 0.961 . S
H428 C414 0.961 . S
H429 C415 0.958 . S
H430 C415 0.961 . S
H431 C415 0.960 . S
C432 C433 1.391 . S
C432 C434 1.394 . S
C432 H448 0.931 . S
C433 C432 1.391 . S
C433 C437 1.376 . S
C434 C432 1.394 . S
C434 C435 1.369 . S
C434 C438 1.531 . S
C435 C434 1.369 . S
C435 C436 1.410 . S
C435 C443 1.503 . S
C436 C435 1.410 . S
C436 C437 1.392 . S
C436 C439 1.511 . S
C437 C433 1.376 . S
C437 C436 1.392 . S
C437 H449 0.929 . S
C438 C434 1.531 . S
C438 H450 0.960 . S
C438 H451 0.962 . S
C438 H452 0.960 . S
C439 C436 1.511 . S
C439 H453 0.961 . S
C439 H454 0.961 . S
C439 H455 0.961 . S
C440 C441 1.370 . S
C440 C442 1.363 . S
C440 H456 0.931 . S
C441 C440 1.370 . S
C441 C445 1.408 . S
C442 C440 1.363 . S
C442 C443 1.370 . S
C442 C446 1.524 . S
C443 C435 1.503 . S
C443 C442 1.370 . S
C443 C444 1.403 . S
C444 C443 1.403 . S
C444 C445 1.404 . S
C444 C447 1.539 . S
C445 C441 1.408 . S
C445 C444 1.404 . S
C445 H457 0.930 . S
C446 C442 1.524 . S
C446 H458 0.956 . S
C446 H459 0.961 . S
C446 H460 0.961 . S
C447 C444 1.539 . S
C447 H461 0.958 . S
C447 H462 0.961 . S
C447 H463 0.960 . S
H448 C432 0.931 . S
H449 C437 0.929 . S
H450 C438 0.960 . S
H451 C438 0.962 . S
H452 C438 0.960 . S
H453 C439 0.961 . S
H454 C439 0.961 . S
H455 C439 0.961 . S
H456 C440 0.931 . S
H457 C445 0.930 . S
H458 C446 0.956 . S
H459 C446 0.961 . S
H460 C446 0.961 . S
H461 C447 0.958 . S
H462 C447 0.961 . S
H463 C447 0.960 . S
C464 C465 1.391 . S
C464 C466 1.394 . S
C464 H480 0.931 . S
C465 C464 1.391 . S
C465 C469 1.376 . S
C466 C464 1.394 . S
C466 C467 1.369 . S
C466 C470 1.531 . S
C467 C466 1.369 . S
C467 C468 1.410 . S
C467 C475 1.503 . S
C468 C467 1.410 . S
C468 C469 1.392 . S
C468 C471 1.511 . S
C469 C465 1.376 . S
C469 C468 1.392 . S
C469 H481 0.929 . S
C470 C466 1.531 . S
C470 H482 0.960 . S
C470 H483 0.962 . S
C470 H484 0.960 . S
C471 C468 1.511 . S
C471 H485 0.961 . S
C471 H486 0.961 . S
C471 H487 0.961 . S
C472 C473 1.370 . S
C472 C474 1.363 . S
C472 H488 0.931 . S
C473 C472 1.370 . S
C473 C477 1.408 . S
C474 C472 1.363 . S
C474 C475 1.370 . S
C474 C478 1.524 . S
C475 C467 1.503 . S
C475 C474 1.370 . S
C475 C476 1.403 . S
C476 C475 1.403 . S
C476 C477 1.404 . S
C476 C479 1.539 . S
C477 C473 1.408 . S
C477 C476 1.404 . S
C477 H489 0.930 . S
C478 C474 1.524 . S
C478 H490 0.956 . S
C478 H491 0.961 . S
C478 H492 0.961 . S
C479 C476 1.539 . S
C479 H493 0.958 . S
C479 H494 0.961 . S
C479 H495 0.960 . S
H480 C464 0.931 . S
H481 C469 0.929 . S
H482 C470 0.960 . S
H483 C470 0.962 . S
H484 C470 0.960 . S
H485 C471 0.961 . S
H486 C471 0.961 . S
H487 C471 0.961 . S
H488 C472 0.931 . S
H489 C477 0.930 . S
H490 C478 0.956 . S
H491 C478 0.961 . S
H492 C478 0.961 . S
H493 C479 0.958 . S
H494 C479 0.961 . S
H495 C479 0.960 . S
C496 C497 1.391 . S
C496 C498 1.394 . S
C496 H512 0.931 . S
C497 C496 1.391 . S
C497 C501 1.376 . S
C498 C496 1.394 . S
C498 C499 1.369 . S
C498 C502 1.531 1_545 S
C499 C498 1.369 . S
C499 C500 1.410 1_455 S
C499 C507 1.503 1_445 S
C500 C499 1.410 1_655 S
C500 C501 1.392 1_655 S
C500 C503 1.511 . S
C501 C497 1.376 . S
C501 C500 1.392 1_455 S
C501 H513 0.929 . S
C502 C498 1.531 1_565 S
C502 H514 0.960 . S
C502 H515 0.962 . S
C502 H516 0.960 1_565 S
C503 C500 1.511 . S
C503 H517 0.961 . S
C503 H518 0.961 . S
C503 H519 0.961 . S
C504 C505 1.370 . S
C504 C506 1.363 . S
C504 H520 0.931 . S
C505 C504 1.370 . S
C505 C509 1.408 . S
C506 C504 1.363 . S
C506 C507 1.370 . S
C506 C510 1.524 1_655 S
C507 C499 1.503 1_665 S
C507 C506 1.370 . S
C507 C508 1.403 . S
C508 C507 1.403 . S
C508 C509 1.404 . S
C508 C511 1.539 1_565 S
C509 C505 1.408 . S
C509 C508 1.404 . S
C509 H521 0.930 . S
C510 C506 1.524 1_455 S
C510 H522 0.956 . S
C510 H523 0.961 . S
C510 H524 0.961 . S
C511 C508 1.539 1_545 S
C511 H525 0.957 1_545 S
C511 H526 0.961 1_545 S
C511 H527 0.960 . S
H512 C496 0.931 . S
H513 C501 0.929 . S
H514 C502 0.960 . S
H515 C502 0.962 . S
H516 C502 0.960 1_545 S
H517 C503 0.961 . S
H518 C503 0.961 . S
H519 C503 0.961 . S
H520 C504 0.931 . S
H521 C509 0.930 . S
H522 C510 0.956 . S
H523 C510 0.961 . S
H524 C510 0.961 . S
H525 C511 0.957 1_565 S
H526 C511 0.961 1_565 S
H527 C511 0.960 . S
C528 C529 1.391 . S
C528 C530 1.394 1_565 S
C528 H544 0.931 1_565 S
C529 C528 1.391 . S
C529 C533 1.376 . S
C530 C528 1.394 1_545 S
C530 C531 1.369 1_545 S
C530 C534 1.531 . S
C531 C530 1.369 1_565 S
C531 C532 1.410 . S
C531 C539 1.503 1_465 S
C532 C531 1.410 . S
C532 C533 1.392 . S
C532 C535 1.511 1_455 S
C533 C529 1.376 . S
C533 C532 1.392 . S
C533 H545 0.929 . S
C534 C530 1.531 . S
C534 H546 0.960 . S
C534 H547 0.962 . S
C534 H548 0.960 . S
C535 C532 1.511 1_655 S
C535 H549 0.961 . S
C535 H550 0.961 . S
C535 H551 0.961 . S
C536 C537 1.370 . S
C536 C538 1.363 . S
C536 H552 0.931 . S
C537 C536 1.370 . S
C537 C541 1.408 . S
C538 C536 1.363 . S
C538 C539 1.370 . S
C538 C542 1.524 . S
C539 C531 1.503 1_645 S
C539 C538 1.370 . S
C539 C540 1.403 . S
C540 C539 1.403 . S
C540 C541 1.404 . S
C540 C543 1.539 . S
C541 C537 1.408 . S
C541 C540 1.404 . S
C541 H553 0.930 . S
C542 C538 1.524 . S
C542 H554 0.956 1_655 S
C542 H555 0.961 1_545 S
C542 H556 0.961 . S
C543 C540 1.539 . S
C543 H557 0.958 . S
C543 H558 0.961 1_545 S
C543 H559 0.960 1_545 S
H544 C528 0.931 1_545 S
H545 C533 0.929 . S
H546 C534 0.960 . S
H547 C534 0.962 . S
H548 C534 0.960 . S
H549 C535 0.961 . S
H550 C535 0.961 . S
H551 C535 0.961 . S
H552 C536 0.931 . S
H553 C541 0.930 . S
H554 C542 0.956 1_455 S
H555 C542 0.961 1_565 S
H556 C542 0.961 . S
H557 C543 0.958 . S
H558 C543 0.961 1_565 S
H559 C543 0.960 1_565 S
C560 C561 1.391 . S
C560 C562 1.394 . S
C560 H576 0.931 . S
C561 C560 1.391 . S
C561 C565 1.376 . S
C562 C560 1.394 . S
C562 C563 1.369 . S
C562 C566 1.531 1_545 S
C563 C562 1.369 . S
C563 C564 1.410 1_655 S
C563 C571 1.503 1_645 S
C564 C563 1.410 1_455 S
C564 C565 1.392 1_455 S
C564 C567 1.511 . S
C565 C561 1.376 . S
C565 C564 1.392 1_655 S
C565 H577 0.929 1_655 S
C566 C562 1.531 1_565 S
C566 H578 0.960 . S
C566 H579 0.962 . S
C566 H580 0.960 1_565 S
C567 C564 1.511 . S
C567 H581 0.961 . S
C567 H582 0.961 . S
C567 H583 0.961 . S
C568 C569 1.370 . S
C568 C570 1.363 . S
C568 H584 0.931 . S
C569 C568 1.370 . S
C569 C573 1.408 . S
C570 C568 1.363 . S
C570 C571 1.370 . S
C570 C574 1.524 1_455 S
C571 C563 1.503 1_465 S
C571 C570 1.370 . S
C571 C572 1.403 . S
C572 C571 1.403 . S
C572 C573 1.404 . S
C572 C575 1.539 . S
C573 C569 1.408 . S
C573 C572 1.404 . S
C573 H585 0.930 . S
C574 C570 1.524 1_655 S
C574 H586 0.956 . S
C574 H587 0.961 . S
C574 H588 0.961 . S
C575 C572 1.539 . S
C575 H589 0.958 . S
C575 H590 0.961 . S
C575 H591 0.960 1_565 S
H576 C560 0.931 . S
H577 C565 0.929 1_455 S
H578 C566 0.960 . S
H579 C566 0.962 . S
H580 C566 0.960 1_545 S
H581 C567 0.961 . S
H582 C567 0.961 . S
H583 C567 0.961 . S
H584 C568 0.931 . S
H585 C573 0.930 . S
H586 C574 0.956 . S
H587 C574 0.961 . S
H588 C574 0.961 . S
H589 C575 0.958 . S
H590 C575 0.961 . S
H591 C575 0.960 1_545 S
C592 C593 1.391 . S
C592 C594 1.394 . S
C592 H608 0.931 . S
C593 C592 1.391 . S
C593 C597 1.376 . S
C594 C592 1.394 . S
C594 C595 1.369 . S
C594 C598 1.531 1_655 S
C595 C594 1.369 . S
C595 C596 1.410 1_565 S
C595 C603 1.503 1_665 S
C596 C595 1.410 1_545 S
C596 C597 1.392 1_545 S
C596 C599 1.511 . S
C597 C593 1.376 . S
C597 C596 1.392 1_565 S
C597 H609 0.929 1_565 S
C598 C594 1.531 1_455 S
C598 H610 0.960 . S
C598 H611 0.962 . S
C598 H612 0.960 . S
C599 C596 1.511 . S
C599 H613 0.961 . S
C599 H614 0.961 . S
C599 H615 0.961 . S
C600 C601 1.370 . S
C600 C602 1.363 . S
C600 H616 0.931 . S
C601 C600 1.370 . S
C601 C605 1.408 . S
C602 C600 1.363 . S
C602 C603 1.370 . S
C602 C606 1.524 . S
C603 C595 1.503 1_445 S
C603 C602 1.370 . S
C603 C604 1.403 . S
C604 C603 1.403 . S
C604 C605 1.404 . S
C604 C607 1.539 . S
C605 C601 1.408 . S
C605 C604 1.404 . S
C605 H617 0.930 . S
C606 C602 1.524 . S
C606 H618 0.956 1_545 S
C606 H619 0.961 1_455 S
C606 H620 0.961 . S
C607 C604 1.539 . S
C607 H621 0.958 1_545 S
C607 H622 0.961 . S
C607 H623 0.960 1_455 S
H608 C592 0.931 . S
H609 C597 0.929 1_545 S
H610 C598 0.960 . S
H611 C598 0.962 . S
H612 C598 0.960 . S
H613 C599 0.961 . S
H614 C599 0.961 . S
H615 C599 0.961 . S
H616 C600 0.931 . S
H617 C605 0.930 . S
H618 C606 0.956 1_565 S
H619 C606 0.961 1_655 S
H620 C606 0.961 . S
H621 C607 0.958 1_565 S
H622 C607 0.961 . S
H623 C607 0.960 1_655 S
C113 C12 1.806 . S
C121 C28 1.786 . S
C145 C42 1.774 . S
C153 C26 1.799 . S
C177 C85 1.788 . S
C185 C57 1.782 . S
C209 C71 1.792 . S
C217 C99 1.781 . S
C241 C96 1.607 . S
C249 C1 1.603 . S
C273 C15 1.588 . S
C281 C110 1.597 . S
C305 C41 1.589 . S
C313 C68 1.598 . S
C337 C82 1.590 . S
C345 C55 1.594 . S
C369 C0 1.664 . S
C377 C83 1.662 . S
C401 C97 1.647 . S
C409 C14 1.668 . S
C433 C111 1.651 . S
C441 C40 1.667 . S
C465 C54 1.652 . S
C473 C69 1.665 . S
C497 C13 1.448 . S
C505 C29 1.478 . S
C529 C43 1.463 . S
C537 C27 1.462 . S
C561 C84 1.454 . S
C569 C56 1.479 . S
C593 C98 1.467 . S
C601 C70 1.474 . S
