# Generated by pormake.
# Topology qtz-x, (6)-cn, num edge types: 1
# Building blocks:
#     Node 0, Type 0, BuildingBlock: BETFEN_clean_sbu_0, # of connection points: 6
#     Node 1, Type 0, BuildingBlock: BETFEN_clean_sbu_0, # of connection points: 6
#     Node 2, Type 0, BuildingBlock: BETFEN_clean_sbu_0, # of connection points: 6
#     Edge 3, Type (0, 0), BuildingBlock: UVAHIK_clean_linker_0, # of connection points: 2
#     Edge 4, Type (0, 0), BuildingBlock: UVAHIK_clean_linker_0, # of connection points: 2
#     Edge 5, Type (0, 0), BuildingBlock: UVAHIK_clean_linker_0, # of connection points: 2
#     Edge 6, Type (0, 0), BuildingBlock: UVAHIK_clean_linker_0, # of connection points: 2
#     Edge 7, Type (0, 0), BuildingBlock: UVAHIK_clean_linker_0, # of connection points: 2
#     Edge 8, Type (0, 0), BuildingBlock: UVAHIK_clean_linker_0, # of connection points: 2
#     Edge 9, Type (0, 0), BuildingBlock: UVAHIK_clean_linker_0, # of connection points: 2
#     Edge 10, Type (0, 0), BuildingBlock: UVAHIK_clean_linker_0, # of connection points: 2
#     Edge 11, Type (0, 0), BuildingBlock: UVAHIK_clean_linker_0, # of connection points: 2
# Relax obj value: 0.178
# Max RMSD: 0.237
# Mean RMSD: 0.220
data_MOF--net-qtz-x--node1-BETFEN_clean_sbu_0--edge1-UVAHIK_clean_linker_0
_symmetry_space_group_name_H-M    P1
_symmetry_Int_Tables_number       1
_symmetry_cell_setting            triclinic
loop_
_symmetry_equiv_pos_as_xyz
'x, y, z'
_cell_length_a     19.172049
_cell_length_b     19.169932
_cell_length_c     66.37682
_cell_angle_alpha  72.573223
_cell_angle_beta   109.8324
_cell_angle_gamma 121.02965
loop_
_atom_site_label
_atom_site_type_symbol
_atom_site_fract_x
_atom_site_fract_y
_atom_site_fract_z
_atom_type_partial_charge
Pr0 Pr 0.98743 0.59102 0.18755 0.0
Pr1 Pr 0.14984 0.71635 0.17571 0.0
C2 C 0.86662 0.46132 0.20639 0.0
C3 C 0.84475 0.43276 0.22783 0.0
C4 C 0.81056 0.46961 0.23444 0.0
C5 C 0.79156 0.44268 0.25486 0.0
C6 C 0.80624 0.37827 0.26919 0.0
C7 C 0.83975 0.34105 0.26245 0.0
C8 C 0.85843 0.36775 0.24201 0.0
C9 C 1.01211 0.7525 0.18065 0.0
C10 C 0.15664 0.67313 0.22658 0.0
C11 C 0.27431 0.83636 0.15664 0.0
C12 C 0.30258 0.83968 0.13816 0.0
C13 C 0.29793 0.76866 0.1346 0.0
C14 C 0.31836 0.76972 0.1162 0.0
C15 C 0.34273 0.84148 0.10075 0.0
C16 C 0.34829 0.9129 0.10451 0.0
C17 C 0.32834 0.91192 0.12307 0.0
C18 C 0.12146 0.55368 0.18176 0.0
C19 C 0.98017 0.64633 0.13637 0.0
O20 O 0.93367 0.46083 0.20562 0.0
O21 O 0.85815 0.52559 0.19432 0.0
O22 O 0.06718 0.72938 0.19097 0.0
O23 O 0.94064 0.6912 0.17416 0.0
O24 O 0.18859 0.73502 0.21157 0.0
O25 O 0.0868 0.60619 0.22115 0.0
O26 O 0.20083 0.83315 0.15188 0.0
O27 O 0.28599 0.78606 0.1742 0.0
O28 O 0.06821 0.57897 0.17152 0.0
O29 O 0.19301 0.61329 0.18882 0.0
O30 O 0.94595 0.5816 0.15058 0.0
O31 O 0.05091 0.71065 0.14273 0.0
H32 H 0.79854 0.51942 0.22388 0.0
H33 H 0.76457 0.47191 0.25934 0.0
H34 H 0.85292 0.29203 0.27312 0.0
H35 H 0.88432 0.33784 0.23736 0.0
H36 H 0.27726 0.71177 0.14589 0.0
H37 H 0.31475 0.71401 0.11407 0.0
H38 H 0.36586 0.96893 0.09285 0.0
H39 H 0.33126 0.96703 0.1254 0.0
Pr40 Pr 0.7278 0.1293 0.53672 0.0
Pr41 Pr 0.6632 0.95484 0.53137 0.0
C42 C 0.76303 0.26802 0.54899 0.0
C43 C 0.7829 0.29706 0.56948 0.0
C44 C 0.86201 0.36158 0.57626 0.0
C45 C 0.88287 0.38907 0.59575 0.0
C46 C 0.82473 0.35314 0.60885 0.0
C47 C 0.74526 0.2887 0.60196 0.0
C48 C 0.72461 0.26081 0.58252 0.0
C49 C 0.85004 0.09706 0.53392 0.0
C50 C 0.71287 -0.01678 0.58073 0.0
C51 C 0.62438 0.81848 0.51732 0.0
C52 C 0.59632 0.79657 0.49536 0.0
C53 C 0.51529 0.73412 0.48886 0.0
C54 C 0.48389 0.71947 0.46738 0.0
C55 C 0.53313 0.76659 0.45193 0.0
C56 C 0.61551 0.82693 0.45871 0.0
C57 C 0.64665 0.84197 0.48014 0.0
C58 C 0.5413 -0.01231 0.53403 0.0
C59 C 0.68179 0.10207 0.48744 0.0
O60 O 0.68672 0.21192 0.54242 0.0
O61 O 0.81967 0.25601 0.54594 0.0
O62 O 0.79572 0.04981 0.54506 0.0
O63 O 0.84339 0.16379 0.52423 0.0
O64 O 0.70528 0.93395 0.56901 0.0
O65 O 0.71332 0.05489 0.57169 0.0
O66 O 0.70137 0.87534 0.52283 0.0
O67 O 0.57119 0.82615 0.52354 0.0
O68 O 0.59558 0.03457 0.52284 0.0
O69 O 0.54785 0.92102 0.54383 0.0
O70 O 0.6897 0.15153 0.49911 0.0
O71 O 0.67865 0.02935 0.49643 0.0
H72 H 0.90813 0.39044 0.56653 0.0
H73 H 0.94507 0.43787 0.60068 0.0
H74 H 0.69848 0.26037 0.61145 0.0
H75 H 0.663 0.2109 0.57777 0.0
H76 H 0.47508 0.69842 0.50023 0.0
H77 H 0.41989 0.67318 0.46276 0.0
H78 H 0.65584 0.86341 0.4474 0.0
H79 H 0.70944 0.89069 0.48457 0.0
Pr80 Pr 0.71215 0.77128 0.85434 0.0
Pr81 Pr 0.84991 0.72518 0.86168 0.0
C82 C 0.58071 0.78099 0.85711 0.0
C83 C 0.55391 0.78274 0.87528 0.0
C84 C 0.5395 0.84814 0.87464 0.0
C85 C 0.5212 0.85455 0.8925 0.0
C86 C 0.5166 0.79537 0.91135 0.0
C87 C 0.5292 0.72885 0.91171 0.0
C88 C 0.54797 0.72277 0.89392 0.0
C89 C 0.87016 0.9047 0.8548 0.0
C90 C 0.80885 0.72298 0.90513 0.0
C91 C 0.97903 0.71175 0.85883 0.0
C92 C 0.99535 0.69449 0.84109 0.0
C93 C 1.00534 0.62423 0.8441 0.0
C94 C 1.00764 0.59991 0.82655 0.0
C95 C 0.99989 0.64541 0.80562 0.0
C96 C 0.99395 0.71797 0.80288 0.0
C97 C 0.99191 0.74232 0.82042 0.0
C98 C 0.69126 0.59204 0.86082 0.0
C99 C 0.75431 0.77536 0.81075 0.0
O100 O 0.5773 0.7117 0.85643 0.0
O101 O 0.64833 0.84585 0.85232 0.0
O102 O 0.85435 0.83827 0.86796 0.0
O103 O 0.80306 0.90513 0.84121 0.0
O104 O 0.86995 0.73478 0.89751 0.0
O105 O 0.73973 0.72385 0.89195 0.0
O106 O 0.97999 0.78281 0.85606 0.0
O107 O 0.91762 0.65064 0.86733 0.0
O108 O 0.70803 0.65873 0.84781 0.0
O109 O 0.75794 0.59095 0.87444 0.0
O110 O 0.69375 0.76565 0.81822 0.0
O111 O 0.82207 0.77173 0.82404 0.0
H112 H 0.54436 0.89542 0.8605 0.0
H113 H 0.51293 0.90714 0.89172 0.0
H114 H 0.52479 0.68136 0.92578 0.0
H115 H 0.55917 0.67174 0.89497 0.0
H116 H 1.00832 0.58644 0.8599 0.0
H117 H 1.01371 0.54448 0.8293 0.0
H118 H 0.98702 0.75413 0.78698 0.0
H119 H 0.98446 0.79696 0.81758 0.0
C120 C 0.10072 0.89592 0.18936 0.0
C121 C 0.02336 0.83543 0.17986 0.0
C122 C 0.11059 0.97341 0.18939 0.0
C123 C 0.01765 0.11524 0.16229 0.0
H124 H 0.14266 0.2145 0.21462 0.0
C125 C 0.03031 0.41091 0.17259 0.0
C126 C 0.10824 0.47022 0.18227 0.0
C127 C 0.01867 0.33273 0.17248 0.0
C128 C 0.10831 0.18807 0.1998 0.0
H129 H 0.89606 0.80877 0.16265 0.0
H130 H 0.913 0.94394 0.16282 0.0
H131 H 0.12562 0.08039 0.21365 0.0
H132 H 0.23477 0.49424 0.19962 0.0
H133 H 0.21485 0.35815 0.19928 0.0
H134 H 1.00049 0.22306 0.14843 0.0
C135 C 0.96628 0.93184 0.1701 0.0
C136 C 0.09858 0.11118 0.19924 0.0
C137 C 0.95642 0.85428 0.17009 0.0
C138 C 0.17398 0.44965 0.19207 0.0
C139 C 0.16238 0.37151 0.19197 0.0
C140 C 0.02741 0.1922 0.16285 0.0
C141 C 0.04333 -0.00786 0.1799 0.0
C142 C 0.05333 0.0739 0.18046 0.0
C143 C 0.0847 0.3122 0.18208 0.0
C144 C 0.07304 0.22966 0.1816 0.0
H145 H 0.15357 0.88323 0.19691 0.0
H146 H 0.17112 0.01884 0.19677 0.0
H147 H 0.98335 0.08877 0.14747 0.0
H148 H 0.97838 0.42503 0.165 0.0
H149 H 0.95773 0.28816 0.165 0.0
C150 C 0.46376 0.07156 0.52204 0.0
C151 C 0.4721 0.00126 0.53412 0.0
C152 C 0.39671 0.08236 0.522 0.0
C153 C 0.18427 0.96527 0.5331 0.0
H154 H 0.21773 0.18027 0.53548 0.0
C155 C 0.92764 0.01333 0.54575 0.0
C156 C 0.91925 0.08367 0.53374 0.0
C157 C 0.99467 0.00264 0.54574 0.0
C158 C 0.20703 0.11992 0.53457 0.0
H159 H 0.41786 0.88799 0.55591 0.0
H160 H 0.30185 0.90704 0.55599 0.0
H161 H 0.33572 0.16412 0.53539 0.0
H162 H 0.97338 0.19712 0.51199 0.0
H163 H 0.08939 0.17824 0.5118 0.0
H164 H 0.05559 0.92106 0.53228 0.0
C165 C 0.34593 0.95325 0.54625 0.0
C166 C 0.27478 0.11071 0.5345 0.0
C167 C 0.4128 0.94257 0.54631 0.0
C168 C 0.97849 0.14251 0.52155 0.0
C169 C 0.04535 0.13192 0.52154 0.0
C170 C 0.11652 0.97448 0.53316 0.0
C171 C 0.33662 0.02299 0.534 0.0
C172 C 0.26433 0.03325 0.53379 0.0
C173 C 0.0547 0.06213 0.53373 0.0
C174 C 0.12697 0.05194 0.53388 0.0
H175 H 0.50861 0.11784 0.51251 0.0
H176 H 0.39115 0.1365 0.51224 0.0
H177 H 0.17358 0.90492 0.53219 0.0
H178 H 0.88283 0.96692 0.55528 0.0
H179 H 1.00027 0.94846 0.55545 0.0
C180 C 0.96594 0.04731 0.84035 0.0
C181 C 0.95431 0.97502 0.85537 0.0
C182 C 0.04558 0.11422 0.84085 0.0
C183 C 0.26942 0.16907 0.86039 0.0
H184 H 0.29822 0.39049 0.85252 0.0
C185 C 0.5944 0.44983 0.8751 0.0
C186 C 0.6068 0.52221 0.86007 0.0
C187 C 0.51453 0.38329 0.87445 0.0
C188 C 0.29104 0.32911 0.85451 0.0
H189 H 0.01632 0.9154 0.88264 0.0
H190 H 0.15558 0.03264 0.88367 0.0
H191 H 0.15916 0.27345 0.85158 0.0
H192 H 0.54593 0.58242 0.83264 0.0
H193 H 0.40611 0.46579 0.83138 0.0
H194 H 0.40128 0.2247 0.86334 0.0
C195 C 0.10336 0.03742 0.87136 0.0
C196 C 0.21142 0.26208 0.85397 0.0
C197 C 0.02365 0.97051 0.87086 0.0
C198 C 0.53796 0.52723 0.84443 0.0
C199 C 0.45796 0.46068 0.84379 0.0
C200 C 0.34902 0.23608 0.86093 0.0
C201 C 0.11517 0.11007 0.85638 0.0
C202 C 0.19975 0.18131 0.85693 0.0
C203 C 0.44544 0.38788 0.85876 0.0
C204 C 0.36072 0.31683 0.85802 0.0
H205 H 0.91352 0.0522 0.82815 0.0
H206 H 0.05278 0.16886 0.82889 0.0
H207 H 0.2623 0.10772 0.86238 0.0
H208 H 0.64642 0.44457 0.88741 0.0
H209 H 0.50674 0.32853 0.88639 0.0
C210 C 0.44397 0.83318 0.92842 0.0
C211 C 0.50038 0.80364 0.93072 0.0
C212 C 0.4288 0.84063 0.94666 0.0
C213 C 0.4366 0.75801 1.00438 0.0
H214 H 0.42896 0.95324 1.00712 0.0
C215 C 0.31203 0.77078 0.07018 0.0
C216 C 0.36048 0.84074 0.08066 0.0
C217 C 0.32983 0.76851 0.05173 0.0
C218 C 0.43128 0.89855 1.0066 0.0
H219 H 0.58672 0.76094 0.95416 0.0
H220 H 0.55865 0.77219 0.9859 0.0
H221 H 0.45998 0.94552 0.97521 0.0
H222 H 0.46523 0.96368 0.07964 0.0
H223 H 0.49527 0.96008 0.0471 0.0
H224 H 0.40776 0.71087 0.03569 0.0
C225 C 0.52574 0.78892 0.96995 0.0
C226 C 0.44833 0.89385 0.98829 0.0
C227 C 0.54149 0.78216 0.95174 0.0
C228 C 0.42608 0.90914 0.07188 0.0
C229 C 0.44344 0.90708 0.05327 0.0
C230 C 0.4187 0.76235 1.02255 0.0
C231 C 0.46913 0.81806 0.96762 0.0
C232 C 0.45127 0.82354 0.98701 0.0
C233 C 0.39598 0.83639 0.04315 0.0
C234 C 0.41581 0.83261 1.02386 0.0
H235 H 0.41032 0.84924 0.91253 0.0
H236 H 0.38412 0.86239 0.94438 0.0
H237 H 0.43781 0.7028 1.00378 0.0
H238 H 0.25975 0.71772 0.07614 0.0
H239 H 0.29124 0.71374 0.04405 0.0
C240 C 0.70333 0.21259 0.45476 0.0
C241 C 0.68206 0.12995 0.46405 0.0
C242 C 0.71076 0.24004 0.43317 0.0
C243 C 0.65331 0.16878 0.38108 0.0
H244 H 0.84863 0.37306 0.36905 0.0
C245 C 0.75362 0.26627 0.30002 0.0
C246 C 0.78724 0.35033 0.2911 0.0
C247 C 0.73717 0.24021 0.32072 0.0
C248 C 0.79304 0.31654 0.37201 0.0
H249 H 0.64909 0.01073 0.45765 0.0
H250 H 0.6619 0.05855 0.4201 0.0
H251 H 0.82403 0.32646 0.40555 0.0
H252 H 0.83006 0.47286 0.29717 0.0
H253 H 0.79918 0.42728 0.33294 0.0
H254 H 0.6222 0.15877 0.34756 0.0
C255 C 0.6727 0.10218 0.42946 0.0
C256 C 0.77898 0.28979 0.39297 0.0
C257 C 0.66581 0.07487 0.45106 0.0
C258 C 0.80332 0.40755 0.30338 0.0
C259 C 0.7866 0.38146 0.32405 0.0
C260 C 0.66712 0.19574 0.36008 0.0
C261 C 0.69648 0.18537 0.42034 0.0
C262 C 0.70922 0.21536 0.3978 0.0
C263 C 0.7536 0.29746 0.33305 0.0
C264 C 0.73747 0.26975 0.35528 0.0
H265 H 0.71628 0.25666 0.46429 0.0
H266 H 0.72814 0.30429 0.42655 0.0
H267 H 0.59843 0.11165 0.3842 0.0
H268 H 0.73946 0.22029 0.29096 0.0
H269 H 0.71272 0.17515 0.32718 0.0
C270 C 0.81732 0.81483 0.77909 0.0
C271 C 0.74773 0.79157 0.78702 0.0
C272 C 0.81275 0.83182 0.75683 0.0
C273 C 0.66689 0.79638 0.70357 0.0
H274 H 0.84938 -0.00691 0.68212 0.0
C275 C 0.70011 0.87647 0.61436 0.0
C276 C 0.71916 0.95822 0.60445 0.0
C277 C 0.70312 0.85329 0.63666 0.0
C278 C 0.79788 0.93801 0.68785 0.0
H279 H 0.61807 0.76688 0.77759 0.0
H280 H 0.61006 0.79654 0.73856 0.0
H281 H 0.85361 0.9578 0.72087 0.0
H282 H 0.75732 0.0799 0.61031 0.0
H283 H 0.76342 0.03965 0.64903 0.0
H284 H 0.61107 0.77707 0.67041 0.0
C285 C 0.66814 0.80124 0.7497 0.0
C286 C 0.80058 0.91746 0.71006 0.0
C287 C 0.67291 0.78477 0.77206 0.0
C288 C 0.74225 0.01635 0.61737 0.0
C289 C 0.74615 -0.00656 0.63962 0.0
C290 C 0.66461 0.81652 0.68132 0.0
C291 C 0.73831 0.82565 0.74186 0.0
C292 C 0.735 0.84663 0.71819 0.0
C293 C 0.72632 0.91164 0.64953 0.0
C294 C 0.72986 0.88791 0.67321 0.0
H295 H 0.876 0.82095 0.79006 0.0
H296 H 0.86762 0.84954 0.75132 0.0
H297 H 0.61574 0.74108 0.70936 0.0
H298 H 0.68181 0.83014 0.60487 0.0
H299 H 0.68806 0.7899 0.64389 0.0
C300 C 0.88441 0.6967 0.94351 0.0
C301 C 0.81719 0.70862 0.9289 0.0
C302 C 0.89175 0.68292 0.96591 0.0
C303 C 0.82917 0.71884 1.00695 0.0
H304 H 0.89869 0.55711 0.04497 0.0
C305 C 0.96709 0.72207 0.0986 0.0
C306 C 0.94355 0.64679 0.1128 0.0
C307 C 0.94033 0.72378 0.07619 0.0
C308 C 0.87829 0.60182 0.03455 0.0
H309 H 0.7049 0.71534 0.92647 0.0
H310 H 0.71806 0.69176 0.96545 0.0
H311 H 0.875 0.57056 1.0057 0.0
H312 H 0.8719 0.51415 0.11458 0.0
H313 H 0.82553 0.5171 0.07515 0.0
H314 H 0.83373 0.751 0.03579 0.0
C315 C 0.7652 0.69324 0.95959 0.0
C316 C 0.86565 0.61019 1.01208 0.0
C317 C 0.75751 0.70641 0.93722 0.0
C318 C 0.89069 0.5731 0.10405 0.0
C319 C 0.86472 0.57477 0.08152 0.0
C320 C 0.84254 0.71099 0.0294 0.0
C321 C 0.83241 0.68135 0.97421 0.0
C322 C 0.84181 0.66941 0.99803 0.0
C323 C 0.89004 0.65022 0.06736 0.0
C324 C 0.86817 0.65306 0.04347 0.0
H325 H 0.93145 0.69794 0.93768 0.0
H326 H 0.94483 0.675 0.97674 0.0
H327 H 0.8113 0.76537 0.9966 0.0
H328 H 1.00768 0.77999 0.10481 0.0
H329 H 0.96163 0.78283 0.06575 0.0
C330 C 0.26317 0.75604 0.25582 0.0
C331 C 0.19702 0.68049 0.24976 0.0
C332 C 0.29994 0.76402 0.27767 0.0
C333 C 0.33214 0.64607 0.33186 0.0
H334 H 0.37262 0.83674 0.35195 0.0
C335 C 0.44139 0.67643 0.42289 0.0
C336 C 0.49759 0.75519 0.42871 0.0
C337 C 0.40544 0.66643 0.4011 0.0
C338 C 0.36302 0.78372 0.3466 0.0
H339 H 0.11822 0.55375 0.26196 0.0
H340 H 0.1831 0.56769 0.30017 0.0
H341 H 0.30919 0.8209 0.31395 0.0
H342 H 0.55981 0.88531 0.41593 0.0
H343 H 0.50019 0.86751 0.37808 0.0
H344 H 0.38717 0.6094 0.36438 0.0
C345 C 0.20646 0.62063 0.28795 0.0
C346 C 0.32634 0.77455 0.3248 0.0
C347 C 0.1691 0.6128 0.26607 0.0
C348 C 0.51778 0.82353 0.41213 0.0
C349 C 0.48241 0.81345 0.39035 0.0
C350 C 0.36958 0.65558 0.35364 0.0
C351 C 0.27192 0.69649 0.29398 0.0
C352 C 0.3105 0.70567 0.31719 0.0
C353 C 0.42518 0.73486 0.38453 0.0
C354 C 0.38555 0.72458 0.36131 0.0
H355 H 0.28622 0.80947 0.24369 0.0
H356 H 0.35085 0.82302 0.28181 0.0
H357 H 0.32153 0.59279 0.3264 0.0
H358 H 0.42504 0.62225 0.43517 0.0
H359 H 0.36099 0.60507 0.3973 0.0
C360 C 0.02964 0.6699 0.76931 0.0
C361 C 0.99245 0.61482 0.78649 0.0
C362 C 0.0167 0.64173 0.75058 0.0
C363 C 0.94859 0.45464 0.72874 0.0
H364 H 0.89369 0.58016 0.67355 0.0
C365 C 0.81956 0.32761 0.64793 0.0
C366 C 0.84685 0.38308 0.62952 0.0
C367 C 0.84008 0.35597 0.66729 0.0
C368 C 0.91007 0.5449 0.68879 0.0
H369 H 0.91305 0.4866 0.79744 0.0
H370 H 0.89129 0.43751 0.76488 0.0
H371 H 0.92742 0.6298 0.70705 0.0
H372 H 0.91683 0.51222 0.61713 0.0
H373 H 0.95481 0.56119 0.65099 0.0
H374 H 0.93142 0.36977 0.71049 0.0
C375 C 0.93116 0.50238 0.766 0.0
C376 C 0.92938 0.57341 0.70801 0.0
C377 C 0.94385 0.53057 0.7847 0.0
C378 C 0.89551 0.46755 0.63102 0.0
C379 C 0.91638 0.49582 0.65039 0.0
C380 C 0.92965 0.42628 0.7095 0.0
C381 C 0.9665 0.55779 0.74861 0.0
C382 C 0.94861 0.5285 0.72821 0.0
C383 C 0.88871 0.44047 0.66876 0.0
C384 C 0.90989 0.47094 0.68927 0.0
H385 H 0.06845 0.73498 0.77028 0.0
H386 H 0.0459 0.68575 0.73759 0.0
H387 H 0.96404 0.41911 0.74405 0.0
H388 H 0.78286 0.26203 0.64748 0.0
H389 H 0.81685 0.31164 0.68102 0.0
loop_
_geom_bond_atom_site_label_1
_geom_bond_atom_site_label_2
_geom_bond_distance
_geom_bond_site_symmetry_2
_ccdc_geom_bond_type
Pr0 C2 2.880 . S
Pr0 O20 2.562 . S
Pr0 O21 2.490 . S
Pr0 O22 2.695 1_655 S
Pr0 O23 2.512 . S
Pr0 O25 2.437 1_655 S
Pr0 O28 2.436 . S
Pr0 O30 2.438 . S
Pr1 C11 2.880 . S
Pr1 O22 2.436 . S
Pr1 O24 2.438 . S
Pr1 O26 2.562 . S
Pr1 O27 2.490 . S
Pr1 O28 2.695 1_455 S
Pr1 O29 2.512 . S
Pr1 O31 2.437 1_455 S
C2 Pr0 2.880 . S
C2 C3 1.491 . S
C2 O20 1.254 . S
C2 O21 1.225 . S
C3 C2 1.491 . S
C3 C4 1.392 . S
C3 C8 1.356 . S
C4 C3 1.392 . S
C4 C5 1.368 . S
C4 H32 0.929 . S
C5 C4 1.368 . S
C5 C6 1.386 . S
C5 H33 0.929 . S
C6 C5 1.386 . S
C6 C7 1.373 . S
C7 C6 1.373 . S
C7 C8 1.409 . S
C7 H34 0.931 . S
C8 C3 1.356 . S
C8 C7 1.409 . S
C8 H35 0.930 . S
C9 O22 1.270 1_655 S
C9 O23 1.248 . S
C10 O24 1.267 . S
C10 O25 1.278 . S
C11 Pr1 2.880 . S
C11 C12 1.491 . S
C11 O26 1.254 . S
C11 O27 1.225 . S
C12 C11 1.491 . S
C12 C13 1.392 . S
C12 C17 1.356 . S
C13 C12 1.392 . S
C13 C14 1.368 . S
C13 H36 0.929 . S
C14 C13 1.368 . S
C14 C15 1.386 . S
C14 H37 0.929 . S
C15 C14 1.386 . S
C15 C16 1.373 . S
C16 C15 1.373 . S
C16 C17 1.409 . S
C16 H38 0.931 . S
C17 C12 1.356 . S
C17 C16 1.409 . S
C17 H39 0.930 . S
C18 O28 1.270 1_455 S
C18 O29 1.248 . S
C19 O30 1.267 . S
C19 O31 1.278 . S
O20 Pr0 2.562 . S
O20 C2 1.254 . S
O21 Pr0 2.490 . S
O21 C2 1.225 . S
O22 Pr0 2.695 1_455 S
O22 Pr1 2.436 . S
O22 C9 1.270 1_455 S
O23 Pr0 2.512 . S
O23 C9 1.248 . S
O24 Pr1 2.438 . S
O24 C10 1.267 . S
O25 Pr0 2.437 1_455 S
O25 C10 1.278 . S
O26 Pr1 2.562 . S
O26 C11 1.254 . S
O27 Pr1 2.490 . S
O27 C11 1.225 . S
O28 Pr0 2.436 . S
O28 Pr1 2.695 1_655 S
O28 C18 1.270 1_655 S
O29 Pr1 2.512 . S
O29 C18 1.248 . S
O30 Pr0 2.438 . S
O30 C19 1.267 . S
O31 Pr1 2.437 1_655 S
O31 C19 1.278 . S
H32 C4 0.929 . S
H33 C5 0.929 . S
H34 C7 0.931 . S
H35 C8 0.930 . S
H36 C13 0.929 . S
H37 C14 0.929 . S
H38 C16 0.931 . S
H39 C17 0.930 . S
Pr40 C42 2.880 . S
Pr40 O60 2.562 . S
Pr40 O61 2.490 . S
Pr40 O62 2.695 1_545 S
Pr40 O63 2.512 . S
Pr40 O65 2.437 . S
Pr40 O68 2.436 . S
Pr40 O70 2.438 . S
Pr41 C51 2.880 . S
Pr41 O62 2.436 . S
Pr41 O64 2.438 . S
Pr41 O66 2.562 . S
Pr41 O67 2.490 . S
Pr41 O68 2.695 1_565 S
Pr41 O69 2.512 . S
Pr41 O71 2.437 1_565 S
C42 Pr40 2.880 . S
C42 C43 1.491 . S
C42 O60 1.254 . S
C42 O61 1.225 . S
C43 C42 1.491 . S
C43 C44 1.392 . S
C43 C48 1.356 . S
C44 C43 1.392 . S
C44 C45 1.368 . S
C44 H72 0.929 . S
C45 C44 1.368 . S
C45 C46 1.386 . S
C45 H73 0.929 . S
C46 C45 1.386 . S
C46 C47 1.373 . S
C47 C46 1.373 . S
C47 C48 1.409 . S
C47 H74 0.931 . S
C48 C43 1.356 . S
C48 C47 1.409 . S
C48 H75 0.930 . S
C49 O62 1.270 1_545 S
C49 O63 1.248 . S
C50 O64 1.267 . S
C50 O65 1.278 1_565 S
C51 Pr41 2.880 . S
C51 C52 1.491 . S
C51 O66 1.254 . S
C51 O67 1.225 . S
C52 C51 1.491 . S
C52 C53 1.392 . S
C52 C57 1.356 . S
C53 C52 1.392 . S
C53 C54 1.368 . S
C53 H76 0.929 . S
C54 C53 1.368 . S
C54 C55 1.386 . S
C54 H77 0.929 . S
C55 C54 1.386 . S
C55 C56 1.373 . S
C56 C55 1.373 . S
C56 C57 1.409 . S
C56 H78 0.931 . S
C57 C52 1.356 . S
C57 C56 1.409 . S
C57 H79 0.930 . S
C58 O68 1.270 1_565 S
C58 O69 1.248 . S
C59 O70 1.267 . S
C59 O71 1.278 . S
O60 Pr40 2.562 . S
O60 C42 1.254 . S
O61 Pr40 2.490 . S
O61 C42 1.225 . S
O62 Pr40 2.695 1_565 S
O62 Pr41 2.436 . S
O62 C49 1.270 1_565 S
O63 Pr40 2.512 . S
O63 C49 1.248 . S
O64 Pr41 2.438 . S
O64 C50 1.267 . S
O65 Pr40 2.437 . S
O65 C50 1.278 1_545 S
O66 Pr41 2.562 . S
O66 C51 1.254 . S
O67 Pr41 2.490 . S
O67 C51 1.225 . S
O68 Pr40 2.436 . S
O68 Pr41 2.695 1_545 S
O68 C58 1.270 1_545 S
O69 Pr41 2.512 . S
O69 C58 1.248 . S
O70 Pr40 2.438 . S
O70 C59 1.267 . S
O71 Pr41 2.437 1_545 S
O71 C59 1.278 . S
H72 C44 0.929 . S
H73 C45 0.929 . S
H74 C47 0.931 . S
H75 C48 0.930 . S
H76 C53 0.929 . S
H77 C54 0.929 . S
H78 C56 0.931 . S
H79 C57 0.930 . S
Pr80 C82 2.880 . S
Pr80 O100 2.562 . S
Pr80 O101 2.490 . S
Pr80 O102 2.695 . S
Pr80 O103 2.512 1_565 S
Pr80 O105 2.437 . S
Pr80 O108 2.436 . S
Pr80 O110 2.438 . S
Pr81 C91 2.880 . S
Pr81 O102 2.436 . S
Pr81 O104 2.438 . S
Pr81 O106 2.562 . S
Pr81 O107 2.490 . S
Pr81 O108 2.695 . S
Pr81 O109 2.512 . S
Pr81 O111 2.437 . S
C82 Pr80 2.880 . S
C82 C83 1.491 . S
C82 O100 1.254 . S
C82 O101 1.225 . S
C83 C82 1.491 . S
C83 C84 1.392 1_565 S
C83 C88 1.356 . S
C84 C83 1.392 1_545 S
C84 C85 1.368 . S
C84 H112 0.929 . S
C85 C84 1.368 . S
C85 C86 1.386 1_545 S
C85 H113 0.929 . S
C86 C85 1.386 1_565 S
C86 C87 1.373 . S
C87 C86 1.373 . S
C87 C88 1.409 . S
C87 H114 0.931 . S
C88 C83 1.356 . S
C88 C87 1.409 . S
C88 H115 0.930 . S
C89 O102 1.270 . S
C89 O103 1.248 1_565 S
C90 O104 1.267 . S
C90 O105 1.278 . S
C91 Pr81 2.880 . S
C91 C92 1.491 . S
C91 O106 1.254 . S
C91 O107 1.225 . S
C92 C91 1.491 . S
C92 C93 1.392 . S
C92 C97 1.356 . S
C93 C92 1.392 . S
C93 C94 1.368 . S
C93 H116 0.929 . S
C94 C93 1.368 . S
C94 C95 1.386 . S
C94 H117 0.929 . S
C95 C94 1.386 . S
C95 C96 1.373 . S
C96 C95 1.373 . S
C96 C97 1.409 . S
C96 H118 0.931 1_655 S
C97 C92 1.356 . S
C97 C96 1.409 . S
C97 H119 0.930 . S
C98 O108 1.270 . S
C98 O109 1.248 . S
C99 O110 1.267 . S
C99 O111 1.278 . S
O100 Pr80 2.562 . S
O100 C82 1.254 . S
O101 Pr80 2.490 . S
O101 C82 1.225 . S
O102 Pr80 2.695 . S
O102 Pr81 2.436 . S
O102 C89 1.270 . S
O103 Pr80 2.512 1_545 S
O103 C89 1.248 1_545 S
O104 Pr81 2.438 . S
O104 C90 1.267 . S
O105 Pr80 2.437 . S
O105 C90 1.278 . S
O106 Pr81 2.562 . S
O106 C91 1.254 . S
O107 Pr81 2.490 . S
O107 C91 1.225 . S
O108 Pr80 2.436 . S
O108 Pr81 2.695 . S
O108 C98 1.270 . S
O109 Pr81 2.512 . S
O109 C98 1.248 . S
O110 Pr80 2.438 . S
O110 C99 1.267 . S
O111 Pr81 2.437 . S
O111 C99 1.278 . S
H112 C84 0.929 . S
H113 C85 0.929 . S
H114 C87 0.931 . S
H115 C88 0.930 . S
H116 C93 0.929 . S
H117 C94 0.929 . S
H118 C96 0.931 1_455 S
H119 C97 0.930 . S
C120 C121 1.349 . S
C120 C122 1.327 . S
C120 H145 0.950 . S
C121 C120 1.349 . S
C121 C137 1.349 1_455 S
C122 C120 1.327 . S
C122 C141 1.419 1_565 S
C122 H146 0.950 . S
C123 C140 1.574 . S
C123 C142 1.364 1_655 S
C123 H147 0.949 . S
H124 C128 0.949 . S
C125 C126 1.349 . S
C125 C127 1.327 . S
C125 H148 0.950 . S
C126 C125 1.349 . S
C126 C138 1.349 1_655 S
C127 C125 1.327 . S
C127 C143 1.438 . S
C127 H149 0.950 . S
C128 H124 0.949 . S
C128 C136 1.574 . S
C128 C144 1.366 1_455 S
H129 C137 0.950 . S
H130 C135 0.950 . S
H131 C136 0.949 . S
H132 C138 0.950 . S
H133 C139 0.950 . S
H134 C140 0.949 . S
C135 H130 0.950 . S
C135 C137 1.327 . S
C135 C141 1.420 1_665 S
C136 C128 1.574 . S
C136 H131 0.949 . S
C136 C142 1.369 . S
C137 C121 1.349 1_655 S
C137 H129 0.950 . S
C137 C135 1.327 . S
C138 C126 1.349 1_455 S
C138 H132 0.950 . S
C138 C139 1.327 . S
C139 H133 0.950 . S
C139 C138 1.327 . S
C139 C143 1.429 1_455 S
C140 C123 1.574 . S
C140 H134 0.949 . S
C140 C144 1.369 . S
C141 C122 1.419 1_545 S
C141 C135 1.420 1_445 S
C141 C142 1.545 . S
C142 C123 1.364 1_455 S
C142 C136 1.369 . S
C142 C141 1.545 . S
C143 C127 1.438 . S
C143 C139 1.429 1_655 S
C143 C144 1.517 . S
C144 C128 1.366 1_655 S
C144 C140 1.369 . S
C144 C143 1.517 . S
H145 C120 0.950 . S
H146 C122 0.950 . S
H147 C123 0.949 . S
H148 C125 0.950 . S
H149 C127 0.950 . S
C150 C151 1.349 . S
C150 C152 1.327 . S
C150 H175 0.950 . S
C151 C150 1.349 . S
C151 C167 1.349 1_545 S
C152 C150 1.327 . S
C152 C171 1.429 . S
C152 H176 0.950 . S
C153 C170 1.574 . S
C153 C172 1.368 1_565 S
C153 H177 0.949 . S
H154 C158 0.949 . S
C155 C156 1.349 1_565 S
C155 C157 1.327 . S
C155 H178 0.950 . S
C156 C155 1.349 1_545 S
C156 C168 1.349 . S
C157 C155 1.327 . S
C157 C173 1.429 1_665 S
C157 H179 0.950 . S
C158 H154 0.949 . S
C158 C166 1.574 . S
C158 C174 1.368 . S
H159 C167 0.950 . S
H160 C165 0.950 . S
H161 C166 0.949 . S
H162 C168 0.950 . S
H163 C169 0.950 . S
H164 C170 0.949 . S
C165 H160 0.950 . S
C165 C167 1.327 . S
C165 C171 1.429 1_565 S
C166 C158 1.574 . S
C166 H161 0.949 . S
C166 C172 1.368 . S
C167 C151 1.349 1_565 S
C167 H159 0.950 . S
C167 C165 1.327 . S
C168 C156 1.349 . S
C168 H162 0.950 . S
C168 C169 1.327 1_655 S
C169 H163 0.950 . S
C169 C168 1.327 1_455 S
C169 C173 1.429 . S
C170 C153 1.574 . S
C170 H164 0.949 . S
C170 C174 1.368 1_565 S
C171 C152 1.429 . S
C171 C165 1.429 1_545 S
C171 C172 1.523 . S
C172 C153 1.368 1_545 S
C172 C166 1.368 . S
C172 C171 1.523 . S
C173 C157 1.429 1_445 S
C173 C169 1.429 . S
C173 C174 1.523 . S
C174 C158 1.368 . S
C174 C170 1.368 1_545 S
C174 C173 1.523 . S
H175 C150 0.950 . S
H176 C152 0.950 . S
H177 C153 0.949 . S
H178 C155 0.950 . S
H179 C157 0.950 . S
C180 C181 1.349 1_455 S
C180 C182 1.327 . S
C180 H205 0.950 1_455 S
C181 C180 1.349 1_655 S
C181 C197 1.349 1_655 S
C182 C180 1.327 . S
C182 C201 1.429 . S
C182 H206 0.950 . S
C183 C200 1.574 . S
C183 C202 1.368 . S
C183 H207 0.949 . S
H184 C188 0.949 . S
C185 C186 1.349 . S
C185 C187 1.327 . S
C185 H208 0.950 . S
C186 C185 1.349 . S
C186 C198 1.349 . S
C187 C185 1.327 . S
C187 C203 1.429 . S
C187 H209 0.950 . S
C188 H184 0.949 . S
C188 C196 1.574 . S
C188 C204 1.368 . S
H189 C197 0.950 . S
H190 C195 0.950 . S
H191 C196 0.949 . S
H192 C198 0.950 . S
H193 C199 0.950 . S
H194 C200 0.949 . S
C195 H190 0.950 . S
C195 C197 1.327 . S
C195 C201 1.429 . S
C196 C188 1.574 . S
C196 H191 0.949 . S
C196 C202 1.368 . S
C197 C181 1.349 1_455 S
C197 H189 0.950 . S
C197 C195 1.327 . S
C198 C186 1.349 . S
C198 H192 0.950 . S
C198 C199 1.327 . S
C199 H193 0.950 . S
C199 C198 1.327 . S
C199 C203 1.429 . S
C200 C183 1.574 . S
C200 H194 0.949 . S
C200 C204 1.368 . S
C201 C182 1.429 . S
C201 C195 1.429 . S
C201 C202 1.523 . S
C202 C183 1.368 . S
C202 C196 1.368 . S
C202 C201 1.523 . S
C203 C187 1.429 . S
C203 C199 1.429 . S
C203 C204 1.523 . S
C204 C188 1.368 . S
C204 C200 1.368 . S
C204 C203 1.523 . S
H205 C180 0.950 1_655 S
H206 C182 0.950 . S
H207 C183 0.949 . S
H208 C185 0.950 . S
H209 C187 0.950 . S
C210 C211 1.349 1_545 S
C210 C212 1.327 . S
C210 H235 0.950 . S
C211 C210 1.349 1_565 S
C211 C227 1.349 . S
C212 C210 1.327 . S
C212 C231 1.429 1_545 S
C212 H236 0.950 . S
C213 C230 1.574 . S
C213 C232 1.368 . S
C213 H237 0.949 . S
H214 C218 0.949 1_545 S
C215 C216 1.349 . S
C215 C217 1.327 . S
C215 H238 0.950 . S
C216 C215 1.349 . S
C216 C228 1.349 . S
C217 C215 1.327 . S
C217 C233 1.429 . S
C217 H239 0.950 . S
C218 H214 0.949 1_565 S
C218 C226 1.574 1_565 S
C218 C234 1.368 . S
H219 C227 0.950 . S
H220 C225 0.950 . S
H221 C226 0.949 . S
H222 C228 0.950 . S
H223 C229 0.950 1_545 S
H224 C230 0.949 1_554 S
C225 H220 0.950 . S
C225 C227 1.327 . S
C225 C231 1.429 . S
C226 C218 1.574 1_545 S
C226 H221 0.949 . S
C226 C232 1.368 1_545 S
C227 C211 1.349 . S
C227 H219 0.950 . S
C227 C225 1.327 . S
C228 C216 1.349 . S
C228 H222 0.950 . S
C228 C229 1.327 . S
C229 H223 0.950 1_565 S
C229 C228 1.327 . S
C229 C233 1.429 . S
C230 C213 1.574 . S
C230 H224 0.949 1_556 S
C230 C234 1.368 . S
C231 C212 1.429 1_565 S
C231 C225 1.429 . S
C231 C232 1.523 . S
C232 C213 1.368 . S
C232 C226 1.368 1_565 S
C232 C231 1.523 . S
C233 C217 1.429 . S
C233 C229 1.429 . S
C233 C234 1.523 1_554 S
C234 C218 1.368 . S
C234 C230 1.368 . S
C234 C233 1.523 1_556 S
H235 C210 0.950 . S
H236 C212 0.950 . S
H237 C213 0.949 . S
H238 C215 0.950 . S
H239 C217 0.950 . S
C240 C241 1.349 . S
C240 C242 1.327 . S
C240 H265 0.950 . S
C241 C240 1.349 . S
C241 C257 1.349 . S
C242 C240 1.327 . S
C242 C261 1.429 . S
C242 H266 0.950 . S
C243 C260 1.574 . S
C243 C262 1.368 . S
C243 H267 0.949 . S
H244 C248 0.949 . S
C245 C246 1.349 . S
C245 C247 1.327 . S
C245 H268 0.950 . S
C246 C245 1.349 . S
C246 C258 1.349 . S
C247 C245 1.327 . S
C247 C263 1.429 . S
C247 H269 0.950 . S
C248 H244 0.949 . S
C248 C256 1.574 . S
C248 C264 1.368 . S
H249 C257 0.950 . S
H250 C255 0.950 . S
H251 C256 0.949 . S
H252 C258 0.950 . S
H253 C259 0.950 . S
H254 C260 0.949 . S
C255 H250 0.950 . S
C255 C257 1.327 . S
C255 C261 1.429 . S
C256 C248 1.574 . S
C256 H251 0.949 . S
C256 C262 1.368 . S
C257 C241 1.349 . S
C257 H249 0.950 . S
C257 C255 1.327 . S
C258 C246 1.349 . S
C258 H252 0.950 . S
C258 C259 1.327 . S
C259 H253 0.950 . S
C259 C258 1.327 . S
C259 C263 1.429 . S
C260 C243 1.574 . S
C260 H254 0.949 . S
C260 C264 1.368 . S
C261 C242 1.429 . S
C261 C255 1.429 . S
C261 C262 1.523 . S
C262 C243 1.368 . S
C262 C256 1.368 . S
C262 C261 1.523 . S
C263 C247 1.429 . S
C263 C259 1.429 . S
C263 C264 1.523 . S
C264 C248 1.368 . S
C264 C260 1.368 . S
C264 C263 1.523 . S
H265 C240 0.950 . S
H266 C242 0.950 . S
H267 C243 0.949 . S
H268 C245 0.950 . S
H269 C247 0.950 . S
C270 C271 1.349 . S
C270 C272 1.327 . S
C270 H295 0.950 . S
C271 C270 1.349 . S
C271 C287 1.349 . S
C272 C270 1.327 . S
C272 C291 1.429 . S
C272 H296 0.950 . S
C273 C290 1.574 . S
C273 C292 1.368 . S
C273 H297 0.949 . S
H274 C278 0.949 1_545 S
C275 C276 1.349 . S
C275 C277 1.327 . S
C275 H298 0.950 . S
C276 C275 1.349 . S
C276 C288 1.349 . S
C277 C275 1.327 . S
C277 C293 1.429 . S
C277 H299 0.950 . S
C278 H274 0.949 1_565 S
C278 C286 1.574 . S
C278 C294 1.368 . S
H279 C287 0.950 . S
H280 C285 0.950 . S
H281 C286 0.949 . S
H282 C288 0.950 1_545 S
H283 C289 0.950 1_545 S
H284 C290 0.949 . S
C285 H280 0.950 . S
C285 C287 1.327 . S
C285 C291 1.429 . S
C286 C278 1.574 . S
C286 H281 0.949 . S
C286 C292 1.368 . S
C287 C271 1.349 . S
C287 H279 0.950 . S
C287 C285 1.327 . S
C288 C276 1.349 . S
C288 H282 0.950 1_565 S
C288 C289 1.327 . S
C289 H283 0.950 1_565 S
C289 C288 1.327 . S
C289 C293 1.429 . S
C290 C273 1.574 . S
C290 H284 0.949 . S
C290 C294 1.368 . S
C291 C272 1.429 . S
C291 C285 1.429 . S
C291 C292 1.523 . S
C292 C273 1.368 . S
C292 C286 1.368 . S
C292 C291 1.523 . S
C293 C277 1.429 . S
C293 C289 1.429 . S
C293 C294 1.523 . S
C294 C278 1.368 . S
C294 C290 1.368 . S
C294 C293 1.523 . S
H295 C270 0.950 . S
H296 C272 0.950 . S
H297 C273 0.949 . S
H298 C275 0.950 . S
H299 C277 0.950 . S
C300 C301 1.349 . S
C300 C302 1.327 . S
C300 H325 0.950 . S
C301 C300 1.349 . S
C301 C317 1.349 . S
C302 C300 1.327 . S
C302 C321 1.429 . S
C302 H326 0.950 . S
C303 C320 1.574 1_556 S
C303 C322 1.368 . S
C303 H327 0.949 . S
H304 C308 0.949 . S
C305 C306 1.349 . S
C305 C307 1.327 . S
C305 H328 0.950 . S
C306 C305 1.349 . S
C306 C318 1.349 . S
C307 C305 1.327 . S
C307 C323 1.429 . S
C307 H329 0.950 . S
C308 H304 0.949 . S
C308 C316 1.574 1_554 S
C308 C324 1.368 . S
H309 C317 0.950 . S
H310 C315 0.950 . S
H311 C316 0.949 . S
H312 C318 0.950 . S
H313 C319 0.950 . S
H314 C320 0.949 . S
C315 H310 0.950 . S
C315 C317 1.327 . S
C315 C321 1.429 . S
C316 C308 1.574 1_556 S
C316 H311 0.949 . S
C316 C322 1.368 . S
C317 C301 1.349 . S
C317 H309 0.950 . S
C317 C315 1.327 . S
C318 C306 1.349 . S
C318 H312 0.950 . S
C318 C319 1.327 . S
C319 H313 0.950 . S
C319 C318 1.327 . S
C319 C323 1.429 . S
C320 C303 1.574 1_554 S
C320 H314 0.949 . S
C320 C324 1.368 . S
C321 C302 1.429 . S
C321 C315 1.429 . S
C321 C322 1.523 . S
C322 C303 1.368 . S
C322 C316 1.368 . S
C322 C321 1.523 . S
C323 C307 1.429 . S
C323 C319 1.429 . S
C323 C324 1.523 . S
C324 C308 1.368 . S
C324 C320 1.368 . S
C324 C323 1.523 . S
H325 C300 0.950 . S
H326 C302 0.950 . S
H327 C303 0.949 . S
H328 C305 0.950 . S
H329 C307 0.950 . S
C330 C331 1.349 . S
C330 C332 1.327 . S
C330 H355 0.950 . S
C331 C330 1.349 . S
C331 C347 1.349 . S
C332 C330 1.327 . S
C332 C351 1.429 . S
C332 H356 0.950 . S
C333 C350 1.574 . S
C333 C352 1.368 . S
C333 H357 0.949 . S
H334 C338 0.949 . S
C335 C336 1.349 . S
C335 C337 1.327 . S
C335 H358 0.950 . S
C336 C335 1.349 . S
C336 C348 1.349 . S
C337 C335 1.327 . S
C337 C353 1.429 . S
C337 H359 0.950 . S
C338 H334 0.949 . S
C338 C346 1.574 . S
C338 C354 1.368 . S
H339 C347 0.950 . S
H340 C345 0.950 . S
H341 C346 0.949 . S
H342 C348 0.950 . S
H343 C349 0.950 . S
H344 C350 0.949 . S
C345 H340 0.950 . S
C345 C347 1.327 . S
C345 C351 1.429 . S
C346 C338 1.574 . S
C346 H341 0.949 . S
C346 C352 1.368 . S
C347 C331 1.349 . S
C347 H339 0.950 . S
C347 C345 1.327 . S
C348 C336 1.349 . S
C348 H342 0.950 . S
C348 C349 1.327 . S
C349 H343 0.950 . S
C349 C348 1.327 . S
C349 C353 1.429 . S
C350 C333 1.574 . S
C350 H344 0.949 . S
C350 C354 1.368 . S
C351 C332 1.429 . S
C351 C345 1.429 . S
C351 C352 1.523 . S
C352 C333 1.368 . S
C352 C346 1.368 . S
C352 C351 1.523 . S
C353 C337 1.429 . S
C353 C349 1.429 . S
C353 C354 1.523 . S
C354 C338 1.368 . S
C354 C350 1.368 . S
C354 C353 1.523 . S
H355 C330 0.950 . S
H356 C332 0.950 . S
H357 C333 0.949 . S
H358 C335 0.950 . S
H359 C337 0.950 . S
C360 C361 1.349 1_455 S
C360 C362 1.333 1_455 S
C360 H385 0.950 . S
C361 C360 1.349 1_655 S
C361 C377 1.349 . S
C362 C360 1.333 1_655 S
C362 C381 1.430 . S
C362 H386 0.942 1_655 S
C363 C380 1.574 . S
C363 C382 1.368 . S
C363 H387 0.949 . S
H364 C368 0.945 1_455 S
C365 C366 1.349 . S
C365 C367 1.327 . S
C365 H388 0.950 . S
C366 C365 1.349 . S
C366 C378 1.349 . S
C367 C365 1.327 . S
C367 C383 1.429 . S
C367 H389 0.950 . S
C368 H364 0.945 1_655 S
C368 C376 1.574 . S
C368 C384 1.368 . S
H369 C377 0.950 . S
H370 C375 0.950 . S
H371 C376 0.949 1_455 S
H372 C378 0.950 . S
H373 C379 0.950 . S
H374 C380 0.949 . S
C375 H370 0.950 . S
C375 C377 1.327 . S
C375 C381 1.429 . S
C376 C368 1.574 . S
C376 H371 0.949 1_655 S
C376 C382 1.368 . S
C377 C361 1.349 . S
C377 H369 0.950 . S
C377 C375 1.327 . S
C378 C366 1.349 . S
C378 H372 0.950 . S
C378 C379 1.327 . S
C379 H373 0.950 . S
C379 C378 1.327 . S
C379 C383 1.429 . S
C380 C363 1.574 . S
C380 H374 0.949 . S
C380 C384 1.368 . S
C381 C362 1.430 . S
C381 C375 1.429 . S
C381 C382 1.523 . S
C382 C363 1.368 . S
C382 C376 1.368 . S
C382 C381 1.523 . S
C383 C367 1.429 . S
C383 C379 1.429 . S
C383 C384 1.523 . S
C384 C368 1.368 . S
C384 C380 1.368 . S
C384 C383 1.523 . S
H385 C360 0.950 . S
H386 C362 0.942 1_455 S
H387 C363 0.949 . S
H388 C365 0.950 . S
H389 C367 0.950 . S
C121 C9 1.329 1_455 S
C126 C18 1.329 1_655 S
C151 C58 1.407 1_545 S
C156 C49 1.407 . S
C181 C89 1.185 1_545 S
C186 C98 1.185 . S
C211 C86 0.899 . S
C216 C15 0.899 . S
C241 C59 1.801 . S
C246 C6 1.772 . S
C271 C99 2.264 . S
C276 C50 2.259 . S
C301 C90 2.192 . S
C306 C19 2.171 . S
C331 C10 1.501 . S
C336 C55 1.452 . S
C361 C95 0.890 . S
C366 C46 0.897 . S
