# Generated by pormake.
# Topology umu, (4)-cn, num edge types: 1
# Building blocks:
#     Node 0, Type 0, BuildingBlock: QUQFOY_clean_sbu_3, # of connection points: 4
#     Node 1, Type 0, BuildingBlock: QUQFOY_clean_sbu_3, # of connection points: 4
#     Node 2, Type 0, BuildingBlock: QUQFOY_clean_sbu_3, # of connection points: 4
#     Node 3, Type 0, BuildingBlock: QUQFOY_clean_sbu_3, # of connection points: 4
#     Node 4, Type 0, BuildingBlock: QUQFOY_clean_sbu_3, # of connection points: 4
#     Node 5, Type 0, BuildingBlock: QUQFOY_clean_sbu_3, # of connection points: 4
#     Node 6, Type 0, BuildingBlock: QUQFOY_clean_sbu_3, # of connection points: 4
#     Node 7, Type 0, BuildingBlock: QUQFOY_clean_sbu_3, # of connection points: 4
#     Node 8, Type 0, BuildingBlock: QUQFOY_clean_sbu_3, # of connection points: 4
#     Node 9, Type 0, BuildingBlock: QUQFOY_clean_sbu_3, # of connection points: 4
#     Node 10, Type 0, BuildingBlock: QUQFOY_clean_sbu_3, # of connection points: 4
#     Node 11, Type 0, BuildingBlock: QUQFOY_clean_sbu_3, # of connection points: 4
#     Node 12, Type 0, BuildingBlock: QUQFOY_clean_sbu_3, # of connection points: 4
#     Node 13, Type 0, BuildingBlock: QUQFOY_clean_sbu_3, # of connection points: 4
#     Node 14, Type 0, BuildingBlock: QUQFOY_clean_sbu_3, # of connection points: 4
#     Node 15, Type 0, BuildingBlock: QUQFOY_clean_sbu_3, # of connection points: 4
#     Node 16, Type 0, BuildingBlock: QUQFOY_clean_sbu_3, # of connection points: 4
#     Node 17, Type 0, BuildingBlock: QUQFOY_clean_sbu_3, # of connection points: 4
#     Node 18, Type 0, BuildingBlock: QUQFOY_clean_sbu_3, # of connection points: 4
#     Node 19, Type 0, BuildingBlock: QUQFOY_clean_sbu_3, # of connection points: 4
#     Node 20, Type 0, BuildingBlock: QUQFOY_clean_sbu_3, # of connection points: 4
#     Node 21, Type 0, BuildingBlock: QUQFOY_clean_sbu_3, # of connection points: 4
#     Node 22, Type 0, BuildingBlock: QUQFOY_clean_sbu_3, # of connection points: 4
#     Node 23, Type 0, BuildingBlock: QUQFOY_clean_sbu_3, # of connection points: 4
#     Node 24, Type 0, BuildingBlock: QUQFOY_clean_sbu_3, # of connection points: 4
#     Node 25, Type 0, BuildingBlock: QUQFOY_clean_sbu_3, # of connection points: 4
#     Node 26, Type 0, BuildingBlock: QUQFOY_clean_sbu_3, # of connection points: 4
#     Node 27, Type 0, BuildingBlock: QUQFOY_clean_sbu_3, # of connection points: 4
#     Node 28, Type 0, BuildingBlock: QUQFOY_clean_sbu_3, # of connection points: 4
#     Node 29, Type 0, BuildingBlock: QUQFOY_clean_sbu_3, # of connection points: 4
#     Node 30, Type 0, BuildingBlock: QUQFOY_clean_sbu_3, # of connection points: 4
#     Node 31, Type 0, BuildingBlock: QUQFOY_clean_sbu_3, # of connection points: 4
#     Edge 32, Type (0, 0), BuildingBlock: XIVTED_clean_linker_0, # of connection points: 2
#     Edge 33, Type (0, 0), BuildingBlock: XIVTED_clean_linker_0, # of connection points: 2
#     Edge 34, Type (0, 0), BuildingBlock: XIVTED_clean_linker_0, # of connection points: 2
#     Edge 35, Type (0, 0), BuildingBlock: XIVTED_clean_linker_0, # of connection points: 2
#     Edge 36, Type (0, 0), BuildingBlock: XIVTED_clean_linker_0, # of connection points: 2
#     Edge 37, Type (0, 0), BuildingBlock: XIVTED_clean_linker_0, # of connection points: 2
#     Edge 38, Type (0, 0), BuildingBlock: XIVTED_clean_linker_0, # of connection points: 2
#     Edge 39, Type (0, 0), BuildingBlock: XIVTED_clean_linker_0, # of connection points: 2
#     Edge 40, Type (0, 0), BuildingBlock: XIVTED_clean_linker_0, # of connection points: 2
#     Edge 41, Type (0, 0), BuildingBlock: XIVTED_clean_linker_0, # of connection points: 2
#     Edge 42, Type (0, 0), BuildingBlock: XIVTED_clean_linker_0, # of connection points: 2
#     Edge 43, Type (0, 0), BuildingBlock: XIVTED_clean_linker_0, # of connection points: 2
#     Edge 44, Type (0, 0), BuildingBlock: XIVTED_clean_linker_0, # of connection points: 2
#     Edge 45, Type (0, 0), BuildingBlock: XIVTED_clean_linker_0, # of connection points: 2
#     Edge 46, Type (0, 0), BuildingBlock: XIVTED_clean_linker_0, # of connection points: 2
#     Edge 47, Type (0, 0), BuildingBlock: XIVTED_clean_linker_0, # of connection points: 2
#     Edge 48, Type (0, 0), BuildingBlock: XIVTED_clean_linker_0, # of connection points: 2
#     Edge 49, Type (0, 0), BuildingBlock: XIVTED_clean_linker_0, # of connection points: 2
#     Edge 50, Type (0, 0), BuildingBlock: XIVTED_clean_linker_0, # of connection points: 2
#     Edge 51, Type (0, 0), BuildingBlock: XIVTED_clean_linker_0, # of connection points: 2
#     Edge 52, Type (0, 0), BuildingBlock: XIVTED_clean_linker_0, # of connection points: 2
#     Edge 53, Type (0, 0), BuildingBlock: XIVTED_clean_linker_0, # of connection points: 2
#     Edge 54, Type (0, 0), BuildingBlock: XIVTED_clean_linker_0, # of connection points: 2
#     Edge 55, Type (0, 0), BuildingBlock: XIVTED_clean_linker_0, # of connection points: 2
#     Edge 56, Type (0, 0), BuildingBlock: XIVTED_clean_linker_0, # of connection points: 2
#     Edge 57, Type (0, 0), BuildingBlock: XIVTED_clean_linker_0, # of connection points: 2
#     Edge 58, Type (0, 0), BuildingBlock: XIVTED_clean_linker_0, # of connection points: 2
#     Edge 59, Type (0, 0), BuildingBlock: XIVTED_clean_linker_0, # of connection points: 2
#     Edge 60, Type (0, 0), BuildingBlock: XIVTED_clean_linker_0, # of connection points: 2
#     Edge 61, Type (0, 0), BuildingBlock: XIVTED_clean_linker_0, # of connection points: 2
#     Edge 62, Type (0, 0), BuildingBlock: XIVTED_clean_linker_0, # of connection points: 2
#     Edge 63, Type (0, 0), BuildingBlock: XIVTED_clean_linker_0, # of connection points: 2
#     Edge 64, Type (0, 0), BuildingBlock: XIVTED_clean_linker_0, # of connection points: 2
#     Edge 65, Type (0, 0), BuildingBlock: XIVTED_clean_linker_0, # of connection points: 2
#     Edge 66, Type (0, 0), BuildingBlock: XIVTED_clean_linker_0, # of connection points: 2
#     Edge 67, Type (0, 0), BuildingBlock: XIVTED_clean_linker_0, # of connection points: 2
#     Edge 68, Type (0, 0), BuildingBlock: XIVTED_clean_linker_0, # of connection points: 2
#     Edge 69, Type (0, 0), BuildingBlock: XIVTED_clean_linker_0, # of connection points: 2
#     Edge 70, Type (0, 0), BuildingBlock: XIVTED_clean_linker_0, # of connection points: 2
#     Edge 71, Type (0, 0), BuildingBlock: XIVTED_clean_linker_0, # of connection points: 2
#     Edge 72, Type (0, 0), BuildingBlock: XIVTED_clean_linker_0, # of connection points: 2
#     Edge 73, Type (0, 0), BuildingBlock: XIVTED_clean_linker_0, # of connection points: 2
#     Edge 74, Type (0, 0), BuildingBlock: XIVTED_clean_linker_0, # of connection points: 2
#     Edge 75, Type (0, 0), BuildingBlock: XIVTED_clean_linker_0, # of connection points: 2
#     Edge 76, Type (0, 0), BuildingBlock: XIVTED_clean_linker_0, # of connection points: 2
#     Edge 77, Type (0, 0), BuildingBlock: XIVTED_clean_linker_0, # of connection points: 2
#     Edge 78, Type (0, 0), BuildingBlock: XIVTED_clean_linker_0, # of connection points: 2
#     Edge 79, Type (0, 0), BuildingBlock: XIVTED_clean_linker_0, # of connection points: 2
#     Edge 80, Type (0, 0), BuildingBlock: XIVTED_clean_linker_0, # of connection points: 2
#     Edge 81, Type (0, 0), BuildingBlock: XIVTED_clean_linker_0, # of connection points: 2
#     Edge 82, Type (0, 0), BuildingBlock: XIVTED_clean_linker_0, # of connection points: 2
#     Edge 83, Type (0, 0), BuildingBlock: XIVTED_clean_linker_0, # of connection points: 2
#     Edge 84, Type (0, 0), BuildingBlock: XIVTED_clean_linker_0, # of connection points: 2
#     Edge 85, Type (0, 0), BuildingBlock: XIVTED_clean_linker_0, # of connection points: 2
#     Edge 86, Type (0, 0), BuildingBlock: XIVTED_clean_linker_0, # of connection points: 2
#     Edge 87, Type (0, 0), BuildingBlock: XIVTED_clean_linker_0, # of connection points: 2
#     Edge 88, Type (0, 0), BuildingBlock: XIVTED_clean_linker_0, # of connection points: 2
#     Edge 89, Type (0, 0), BuildingBlock: XIVTED_clean_linker_0, # of connection points: 2
#     Edge 90, Type (0, 0), BuildingBlock: XIVTED_clean_linker_0, # of connection points: 2
#     Edge 91, Type (0, 0), BuildingBlock: XIVTED_clean_linker_0, # of connection points: 2
#     Edge 92, Type (0, 0), BuildingBlock: XIVTED_clean_linker_0, # of connection points: 2
#     Edge 93, Type (0, 0), BuildingBlock: XIVTED_clean_linker_0, # of connection points: 2
#     Edge 94, Type (0, 0), BuildingBlock: XIVTED_clean_linker_0, # of connection points: 2
#     Edge 95, Type (0, 0), BuildingBlock: XIVTED_clean_linker_0, # of connection points: 2
# Relax obj value: 0.122
# Max RMSD: 0.093
# Mean RMSD: 0.093
data_MOF--net-umu--node1-QUQFOY_clean_sbu_3--edge1-XIVTED_clean_linker_0
_symmetry_space_group_name_H-M    P1
_symmetry_Int_Tables_number       1
_symmetry_cell_setting            triclinic
loop_
_symmetry_equiv_pos_as_xyz
'x, y, z'
_cell_length_a     85.018114
_cell_length_b     85.081379
_cell_length_c     26.520166
_cell_angle_alpha  90.061895
_cell_angle_beta   89.967069
_cell_angle_gamma 90.009581
loop_
_atom_site_label
_atom_site_type_symbol
_atom_site_fract_x
_atom_site_fract_y
_atom_site_fract_z
_atom_type_partial_charge
C0 C 0.23509 0.13872 0.13477 0.0
O1 O 0.2445 0.14431 0.1023 0.0
Cd2 Cd 0.23637 0.16088 0.0365 0.0
O3 O 0.22027 0.14098 0.13092 0.0
Cd4 Cd 0.20144 0.15293 0.06861 0.0
C5 C 0.21361 0.18837 0.10244 0.0
O6 O 0.21644 0.14644 -0.00497 0.0
O7 O 0.20043 0.16579 0.98538 0.0
O8 O 0.18697 0.1285 0.07146 0.0
C9 C 0.2096 0.15583 0.96548 0.0
O10 O 0.22595 0.18433 0.07834 0.0
C11 C 0.17347 0.13452 0.0652 0.0
O12 O 0.20213 0.1789 0.10768 0.0
O13 O 0.17269 0.14943 0.06561 0.0
C14 C 0.10694 0.98905 0.40396 0.0
O15 O 0.09891 0.00057 0.38794 0.0
Cd16 Cd 0.07678 -0.00145 0.33439 0.0
O17 O 0.10446 0.97518 0.38734 0.0
Cd18 Cd 0.0881 0.96313 0.3186 0.0
C19 C 0.05567 0.96778 0.38839 0.0
O20 O 0.08576 0.98542 0.2618 0.0
O21 O 0.06936 0.96636 0.24983 0.0
O22 O 0.11075 0.95239 0.27565 0.0
C23 C 0.07499 0.97936 0.23516 0.0
O24 O 0.05751 0.9823 0.37825 0.0
C25 C 0.10578 0.93835 0.27366 0.0
O26 O 0.06545 0.95753 0.37274 0.0
O27 O 0.09294 0.93541 0.29637 0.0
C28 C 0.26758 0.84203 0.63881 0.0
O29 O 0.25696 0.84009 0.60571 0.0
Cd30 Cd 0.25999 0.83845 0.51761 0.0
O31 O 0.2821 0.84306 0.62649 0.0
Cd32 Cd 0.29692 0.84219 0.54488 0.0
C33 C 0.28352 0.80568 0.5169 0.0
O34 O 0.27812 0.85919 0.50621 0.0
O35 O 0.29452 0.84919 0.45411 0.0
O36 O 0.31613 0.8614 0.57327 0.0
C37 C 0.28352 0.85892 0.46206 0.0
O38 O 0.27059 0.81217 0.50463 0.0
C39 C 0.32775 0.85485 0.5516 0.0
O40 O 0.29475 0.81373 0.53532 0.0
O41 O 0.32533 0.84135 0.53271 0.0
C42 C 0.38912 0.02108 0.89528 0.0
O43 O 0.39325 0.01111 0.86225 0.0
Cd44 Cd 0.40778 0.01737 0.78988 0.0
O45 O 0.39197 0.03572 0.88928 0.0
Cd46 Cd 0.40331 0.05313 0.8217 0.0
C47 C 0.43876 0.03843 0.8442 0.0
O48 O 0.39323 0.03798 0.75307 0.0
O49 O 0.41317 0.05219 0.73387 0.0
O50 O 0.38062 0.06988 0.83216 0.0
C51 C 0.40208 0.04338 0.71912 0.0
O52 O 0.4332 0.02637 0.82189 0.0
C53 C 0.38748 0.08262 0.82069 0.0
O54 O 0.43021 0.05046 0.85245 0.0
O55 O 0.4023 0.082 0.81496 0.0
C56 C 0.23126 0.84822 -0.00296 0.0
O57 O 0.2418 0.84648 0.03051 0.0
Cd58 Cd 0.23874 0.84536 0.11871 0.0
O59 O 0.21675 0.84967 0.00895 0.0
Cd60 Cd 0.20159 0.85029 0.08995 0.0
C61 C 0.21374 0.81343 0.11958 0.0
O62 O 0.22099 0.86635 0.12971 0.0
O63 O 0.2038 0.8572 0.18067 0.0
O64 O 0.1834 0.8703 0.06003 0.0
C65 C 0.21551 0.86615 0.17379 0.0
O66 O 0.22691 0.81955 0.13138 0.0
C67 C 0.17139 0.86421 0.08087 0.0
O68 O 0.20273 0.82177 0.10106 0.0
O69 O 0.17317 0.85069 0.10029 0.0
C70 C 0.39074 0.98327 0.23472 0.0
O71 O 0.39544 0.99498 0.2602 0.0
Cd72 Cd 0.41131 0.9939 0.33197 0.0
O73 O 0.39384 0.96922 0.24866 0.0
Cd74 Cd 0.40628 0.95722 0.32592 0.0
C75 C 0.44172 0.96959 0.29093 0.0
O76 O 0.39688 0.97667 0.38356 0.0
O77 O 0.41704 0.96405 0.41035 0.0
O78 O 0.38361 0.94061 0.3373 0.0
C79 C 0.40592 0.97353 0.41974 0.0
O80 O 0.43648 0.98295 0.30476 0.0
C81 C 0.39108 0.92845 0.35097 0.0
O82 O 0.43295 0.95746 0.29195 0.0
O83 O 0.40598 0.92901 0.34775 0.0
C84 C 0.26919 0.14306 0.46823 0.0
O85 O 0.25657 0.14873 0.4861 0.0
Cd86 Cd 0.25471 0.16729 0.55091 0.0
O87 O 0.28257 0.14668 0.48688 0.0
Cd88 Cd 0.2912 0.16155 0.5644 0.0
C89 C 0.28141 0.19601 0.51356 0.0
O90 O 0.26891 0.1544 0.61456 0.0
O91 O 0.28167 0.17425 0.64341 0.0
O92 O 0.30624 0.13896 0.58997 0.0
C93 C 0.27113 0.16394 0.65019 0.0
O94 O 0.2674 0.19135 0.52171 0.0
C95 C 0.31836 0.14637 0.60447 0.0
O96 O 0.29311 0.1872 0.52353 0.0
O97 O 0.31862 0.16107 0.596 0.0
C98 C 0.10001 0.01536 0.73373 0.0
O99 O 0.09048 0.00472 0.74742 0.0
Cd100 Cd 0.0683 0.00877 0.79953 0.0
O101 O 0.09884 0.02932 0.75109 0.0
Cd102 Cd 0.08291 0.04283 0.81816 0.0
C103 C 0.05056 0.04165 0.7464 0.0
O104 O 0.0788 0.02032 0.87297 0.0
O105 O 0.06483 0.04089 0.88965 0.0
O106 O 0.10718 0.05113 0.85711 0.0
C107 C 0.06917 0.02719 0.90196 0.0
O108 O 0.05101 0.02697 0.75555 0.0
C109 C 0.10341 0.06544 0.86276 0.0
O110 O 0.06109 0.05088 0.76352 0.0
O111 O 0.09032 0.06971 0.84412 0.0
C112 C 0.76796 0.86224 0.97993 0.0
O113 O 0.75666 0.85529 0.00172 0.0
Cd114 Cd 0.7598 0.83644 0.06492 0.0
O115 O 0.78217 0.86014 -0.00574 0.0
Cd116 Cd 0.79555 0.84692 0.06781 0.0
C117 C 0.78897 0.81211 0.0146 0.0
O118 O 0.77418 0.85106 0.12456 0.0
O119 O 0.79028 0.83325 0.14937 0.0
O120 O 0.80821 0.87191 0.08257 0.0
C121 C 0.77858 0.84195 0.15916 0.0
O122 O 0.77473 0.81493 0.02661 0.0
C123 C 0.82145 0.86643 0.09564 0.0
O124 O 0.79981 0.822 0.02406 0.0
O125 O 0.82319 0.85163 0.0924 0.0
C126 C 0.89107 0.02114 0.72984 0.0
O127 O 0.89939 0.00959 0.74411 0.0
Cd128 Cd 0.92163 0.01154 0.79689 0.0
O129 O 0.89331 0.03485 0.7481 0.0
Cd130 Cd 0.90939 0.04631 0.81866 0.0
C131 C 0.94158 0.04371 0.74678 0.0
O132 O 0.91187 0.02307 0.87124 0.0
O133 O 0.92765 0.04222 0.88869 0.0
O134 O 0.88592 0.05584 0.85992 0.0
C135 C 0.92221 0.02883 0.90015 0.0
O136 O 0.94011 0.02899 0.75424 0.0
C137 C 0.89059 0.06988 0.86575 0.0
O138 O 0.93175 0.05345 0.76525 0.0
O139 O 0.90378 0.07344 0.84624 0.0
C140 C 0.72315 0.14408 0.46834 0.0
O141 O 0.73561 0.14786 0.49162 0.0
Cd142 Cd 0.73691 0.16416 0.56249 0.0
O143 O 0.70964 0.14836 0.48449 0.0
Cd144 Cd 0.6997 0.16156 0.56333 0.0
C145 C 0.71375 0.19595 0.52484 0.0
O146 O 0.71964 0.15123 0.61774 0.0
O147 O 0.70826 0.17189 0.64644 0.0
O148 O 0.68207 0.13968 0.57361 0.0
C149 C 0.71754 0.1605 0.65417 0.0
O150 O 0.72695 0.18983 0.53632 0.0
C151 C 0.67065 0.14743 0.59167 0.0
O152 O 0.70106 0.18805 0.5284 0.0
O153 O 0.67202 0.1623 0.59189 0.0
C154 C 0.60811 0.98516 0.23981 0.0
O155 O 0.60368 0.99641 0.26779 0.0
Cd156 Cd 0.58792 0.99371 0.33951 0.0
O157 O 0.60498 0.9709 0.25132 0.0
Cd158 Cd 0.5931 0.95695 0.32602 0.0
C159 C 0.55773 0.96986 0.29302 0.0
O160 O 0.60238 0.97541 0.38704 0.0
O161 O 0.58264 0.96182 0.41212 0.0
O162 O 0.6161 0.94038 0.32792 0.0
C163 C 0.59344 0.97152 0.4228 0.0
O164 O 0.56295 0.98297 0.30921 0.0
C165 C 0.60911 0.92798 0.34209 0.0
O166 O 0.56645 0.95769 0.29226 0.0
O167 O 0.59418 0.92853 0.34407 0.0
C168 C 0.75904 0.14357 0.12987 0.0
O169 O 0.74962 0.14862 0.09656 0.0
Cd170 Cd 0.75771 0.16344 0.0265 0.0
O171 O 0.77386 0.14574 0.12559 0.0
Cd172 Cd 0.79265 0.15701 0.0622 0.0
C173 C 0.77929 0.19297 0.08613 0.0
O174 O 0.77812 0.14824 -0.00958 0.0
O175 O 0.79376 0.16746 0.97523 0.0
O176 O 0.80806 0.13338 0.07324 0.0
C177 C 0.78469 0.15692 0.95817 0.0
O178 O 0.7673 0.18822 0.06164 0.0
C179 C 0.82132 0.13972 0.06502 0.0
O180 O 0.79074 0.18374 0.09526 0.0
O181 O 0.82149 0.15458 0.06056 0.0
C182 C 0.60555 0.02191 0.89976 0.0
O183 O 0.60113 0.01162 0.86821 0.0
Cd184 Cd 0.58633 0.01698 0.79583 0.0
O185 O 0.60263 0.03648 0.89254 0.0
Cd186 Cd 0.59065 0.0527 0.82307 0.0
C187 C 0.55517 0.03831 0.84697 0.0
O188 O 0.6011 0.03698 0.75627 0.0
O189 O 0.58072 0.05026 0.73532 0.0
O190 O 0.61291 0.07025 0.82812 0.0
C191 C 0.59219 0.04178 0.72162 0.0
O192 O 0.56068 0.02605 0.82575 0.0
C193 C 0.60546 0.08265 0.81664 0.0
O194 O 0.56383 0.05031 0.85442 0.0
O195 O 0.59059 0.08151 0.81384 0.0
C196 C 0.73321 0.85737 0.64942 0.0
O197 O 0.74392 0.85078 0.62371 0.0
Cd198 Cd 0.73879 0.83222 0.56073 0.0
O199 O 0.71869 0.85475 0.64006 0.0
Cd200 Cd 0.70323 0.84056 0.57273 0.0
C201 C 0.7133 0.80616 0.62117 0.0
O202 O 0.72165 0.84651 0.50761 0.0
O203 O 0.70653 0.82695 0.49021 0.0
O204 O 0.68871 0.86471 0.56405 0.0
C205 C 0.71626 0.83718 0.47501 0.0
O206 O 0.72673 0.80968 0.6031 0.0
C207 C 0.67563 0.8585 0.55265 0.0
O208 O 0.70175 0.8156 0.61737 0.0
O209 O 0.67481 0.84362 0.55545 0.0
C210 C 0.89578 0.9933 0.39984 0.0
O211 O 0.90467 0.00384 0.38165 0.0
Cd212 Cd 0.92586 -0.00092 0.32597 0.0
O213 O 0.89709 0.97898 0.38585 0.0
Cd214 Cd 0.91201 0.96358 0.32068 0.0
C215 C 0.94549 0.96838 0.38596 0.0
O216 O 0.914 0.98467 0.26031 0.0
O217 O 0.9278 0.96414 0.24269 0.0
O218 O 0.88678 0.95332 0.29512 0.0
C219 C 0.92311 0.9777 0.23003 0.0
O220 O 0.94431 0.98271 0.37257 0.0
C221 C 0.89107 0.93911 0.29081 0.0
O222 O 0.93515 0.95828 0.37326 0.0
O223 O 0.90511 0.9359 0.30366 0.0
C224 C 0.73672 0.64255 0.65034 0.0
O225 O 0.74786 0.65001 0.62938 0.0
Cd226 Cd 0.74497 0.67046 0.57001 0.0
O227 O 0.72246 0.64473 0.63683 0.0
Cd228 Cd 0.70831 0.65928 0.56818 0.0
C229 C 0.71574 0.69337 0.62669 0.0
O230 O 0.72922 0.65936 0.50689 0.0
O231 O 0.71009 0.67526 0.49138 0.0
O232 O 0.6968 0.6349 0.54059 0.0
C233 C 0.72301 0.66925 0.47751 0.0
O234 O 0.72985 0.69086 0.61255 0.0
C235 C 0.68288 0.64003 0.53556 0.0
O236 O 0.70484 0.68349 0.61734 0.0
O237 O 0.6803 0.65403 0.55023 0.0
C238 C 0.61035 0.47975 0.9208 0.0
O239 O 0.60437 0.49229 0.90362 0.0
Cd240 Cd 0.58506 0.49368 0.84091 0.0
O241 O 0.60691 0.46638 0.90183 0.0
Cd242 Cd 0.59221 0.45753 0.82437 0.0
C243 C 0.55783 0.46541 0.879 0.0
O244 O 0.5975 0.48041 0.77438 0.0
O245 O 0.5781 0.46652 0.74764 0.0
O246 O 0.61568 0.44433 0.79668 0.0
C247 C 0.58758 0.47776 0.74012 0.0
O248 O 0.56194 0.47963 0.87167 0.0
C249 C 0.60911 0.43176 0.78196 0.0
O250 O 0.56695 0.45411 0.86709 0.0
O251 O 0.59448 0.43039 0.79103 0.0
C252 C 0.77549 0.36127 0.15119 0.0
O253 O 0.76352 0.35806 0.12461 0.0
Cd254 Cd 0.76324 0.34253 0.05183 0.0
O255 O 0.78919 0.35655 0.1382 0.0
Cd256 Cd 0.80018 0.34257 0.062 0.0
C257 C 0.78271 0.30912 0.09458 0.0
O258 O 0.78276 0.35482 0.00235 0.0
O259 O 0.79243 0.33291 0.97757 0.0
O260 O 0.82237 0.36089 0.05962 0.0
C261 C 0.78464 0.34514 0.96691 0.0
O262 O 0.77031 0.31581 0.07819 0.0
C263 C 0.83197 0.35105 0.04093 0.0
O264 O 0.7957 0.31652 0.0966 0.0
O265 O 0.82719 0.33701 0.03629 0.0
C266 C 0.88536 0.51254 0.39822 0.0
O267 O 0.89002 0.50232 0.36673 0.0
Cd268 Cd 0.90487 0.50788 0.29459 0.0
O269 O 0.88776 0.52718 0.39051 0.0
Cd270 Cd 0.89879 0.54369 0.31988 0.0
C271 C 0.93475 0.53089 0.34656 0.0
O272 O 0.88959 0.52709 0.25331 0.0
O273 O 0.9092 0.54155 0.23278 0.0
O274 O 0.87567 0.56025 0.32361 0.0
C275 C 0.89845 0.5322 0.21893 0.0
O276 O 0.92985 0.51822 0.32621 0.0
C277 C 0.88269 0.57296 0.31266 0.0
O278 O 0.92563 0.54264 0.3521 0.0
O279 O 0.8976 0.57241 0.31012 0.0
C280 C 0.73835 0.36063 0.49034 0.0
O281 O 0.74794 0.35525 0.52255 0.0
Cd282 Cd 0.74055 0.3406 0.59337 0.0
O283 O 0.7235 0.35891 0.49624 0.0
Cd284 Cd 0.70557 0.34805 0.56358 0.0
C285 C 0.71731 0.31172 0.53745 0.0
O286 O 0.72152 0.35687 0.63221 0.0
O287 O 0.70614 0.33783 0.65132 0.0
O288 O 0.68975 0.3716 0.55667 0.0
C289 C 0.71552 0.34843 0.66615 0.0
O290 O 0.72986 0.31605 0.55975 0.0
C291 C 0.67671 0.36505 0.56668 0.0
O292 O 0.70602 0.32131 0.5306 0.0
O293 O 0.67678 0.35017 0.57008 0.0
C294 C 0.89033 0.47556 0.73776 0.0
O295 O 0.89427 0.48694 0.76593 0.0
Cd296 Cd 0.90983 0.48519 0.83832 0.0
O297 O 0.89444 0.46147 0.74834 0.0
Cd298 Cd 0.90856 0.4487 0.82144 0.0
C299 C 0.94251 0.46563 0.79076 0.0
O300 O 0.89663 0.46532 0.88375 0.0
O301 O 0.91832 0.45486 0.90724 0.0
O302 O 0.88967 0.42699 0.82009 0.0
C303 C 0.90611 0.46252 0.9191 0.0
O304 O 0.93629 0.4779 0.80987 0.0
C305 C 0.89926 0.41691 0.83736 0.0
O306 O 0.93464 0.45296 0.78655 0.0
O307 O 0.91343 0.42126 0.84257 0.0
C308 C 0.76686 0.64911 0.98185 0.0
O309 O 0.75578 0.65746 -0.00053 0.0
Cd310 Cd 0.7586 0.67831 0.0574 0.0
O311 O 0.78097 0.65082 -0.00247 0.0
Cd312 Cd 0.7945 0.66579 0.0668 0.0
C313 C 0.78956 0.69994 0.00598 0.0
O314 O 0.77243 0.66654 0.12388 0.0
O315 O 0.79195 0.68141 0.14447 0.0
O316 O 0.80438 0.64093 0.09595 0.0
C317 C 0.77855 0.67587 0.15534 0.0
O318 O 0.77511 0.69794 0.01705 0.0
C319 C 0.81842 0.64534 0.10364 0.0
O320 O 0.79991 0.68978 0.01814 0.0
O321 O 0.82194 0.65923 0.08995 0.0
C322 C 0.6086 0.5128 0.25291 0.0
O323 O 0.60226 0.50319 0.28324 0.0
Cd324 Cd 0.58464 0.51126 0.34632 0.0
O325 O 0.60634 0.52759 0.25762 0.0
Cd326 Cd 0.59327 0.54597 0.31912 0.0
C327 C 0.55836 0.53465 0.27819 0.0
O328 O 0.59903 0.53041 0.39189 0.0
O329 O 0.57954 0.54631 0.40133 0.0
O330 O 0.61787 0.56012 0.31817 0.0
C331 C 0.58954 0.53722 0.42127 0.0
O332 O 0.56188 0.52209 0.30179 0.0
C333 C 0.61209 0.57356 0.32721 0.0
O334 O 0.56804 0.54605 0.27561 0.0
O335 O 0.59718 0.57459 0.32745 0.0
C336 C 0.2668 0.36217 0.47178 0.0
O337 O 0.25534 0.35706 0.49762 0.0
Cd338 Cd 0.25772 0.33955 0.56501 0.0
O339 O 0.28098 0.35886 0.48383 0.0
Cd340 Cd 0.29429 0.34566 0.55746 0.0
C341 C 0.28269 0.3109 0.51478 0.0
O342 O 0.27505 0.35311 0.61868 0.0
O343 O 0.28876 0.33302 0.63997 0.0
O344 O 0.31016 0.36892 0.56779 0.0
C345 C 0.27884 0.34343 0.65244 0.0
O346 O 0.26925 0.31553 0.5301 0.0
C347 C 0.32264 0.3619 0.58111 0.0
O348 O 0.29469 0.31981 0.51792 0.0
O349 O 0.32252 0.34699 0.57862 0.0
C350 C 0.3917 0.51737 0.22961 0.0
O351 O 0.39767 0.50551 0.25124 0.0
Cd352 Cd 0.4167 0.5066 0.31467 0.0
O353 O 0.39519 0.53133 0.24363 0.0
Cd354 Cd 0.41016 0.54312 0.3165 0.0
C355 C 0.44434 0.53277 0.26557 0.0
O356 O 0.40387 0.52255 0.37422 0.0
O357 O 0.42379 0.5364 0.39672 0.0
O358 O 0.38684 0.558 0.3351 0.0
C359 C 0.41367 0.52606 0.40798 0.0
O360 O 0.44003 0.51902 0.2786 0.0
C361 C 0.39372 0.57048 0.34905 0.0
O362 O 0.43541 0.54458 0.27279 0.0
O363 O 0.40854 0.57099 0.34301 0.0
C364 C 0.22739 0.65415 0.0026 0.0
O365 O 0.23773 0.65595 0.0366 0.0
Cd366 Cd 0.23352 0.66151 0.12258 0.0
O367 O 0.21274 0.65515 0.01307 0.0
Cd368 Cd 0.19726 0.65976 0.09252 0.0
C369 C 0.21206 0.69583 0.11058 0.0
O370 O 0.21355 0.64373 0.1463 0.0
O371 O 0.19931 0.6606 0.18505 0.0
O372 O 0.1782 0.63948 0.07329 0.0
C373 C 0.20858 0.64899 0.18783 0.0
O374 O 0.22426 0.68861 0.12609 0.0
C375 C 0.16635 0.64707 0.08936 0.0
O376 O 0.20052 0.68831 0.09168 0.0
O377 O 0.1686 0.66139 0.10074 0.0
C378 C 0.10921 0.48534 0.73722 0.0
O379 O 0.10486 0.49607 0.76737 0.0
Cd380 Cd 0.08917 0.49223 0.83895 0.0
O381 O 0.10605 0.47091 0.7461 0.0
Cd382 Cd 0.09398 0.45553 0.81735 0.0
C383 C 0.05871 0.4697 0.78774 0.0
O384 O 0.10286 0.47257 0.88298 0.0
O385 O 0.08283 0.45858 0.903 0.0
O386 O 0.11683 0.43877 0.81866 0.0
C387 C 0.0935 0.46802 0.91683 0.0
O388 O 0.06405 0.48234 0.80716 0.0
C389 C 0.1096 0.42619 0.82971 0.0
O390 O 0.06738 0.45754 0.78351 0.0
O391 O 0.09466 0.4268 0.82954 0.0
C392 C 0.26725 0.64837 0.649 0.0
O393 O 0.25695 0.64993 0.61475 0.0
Cd394 Cd 0.26095 0.65467 0.52803 0.0
O395 O 0.28193 0.64889 0.63852 0.0
Cd396 Cd 0.29774 0.65199 0.55915 0.0
C397 C 0.28376 0.68832 0.5383 0.0
O398 O 0.28079 0.63678 0.50493 0.0
O399 O 0.29628 0.65262 0.46681 0.0
O400 O 0.31603 0.63106 0.57847 0.0
C401 C 0.28603 0.64188 0.46355 0.0
O402 O 0.27129 0.68139 0.52354 0.0
C403 C 0.32821 0.63842 0.56386 0.0
O404 O 0.29514 0.68058 0.5574 0.0
O405 O 0.32645 0.65287 0.55329 0.0
C406 C 0.10252 0.5214 0.39878 0.0
O407 O 0.09796 0.51036 0.37019 0.0
Cd408 Cd 0.08199 0.51362 0.29934 0.0
O409 O 0.099 0.5357 0.38914 0.0
Cd410 Cd 0.08568 0.54984 0.31729 0.0
C411 C 0.05081 0.53534 0.34857 0.0
O412 O 0.09605 0.53285 0.25394 0.0
O413 O 0.07517 0.54504 0.23104 0.0
O414 O 0.10781 0.56749 0.31437 0.0
C415 C 0.08692 0.53673 0.21873 0.0
O416 O 0.05651 0.52273 0.33013 0.0
C417 C 0.10018 0.57953 0.30055 0.0
O418 O 0.05914 0.54774 0.35176 0.0
O419 O 0.08528 0.57838 0.30055 0.0
C420 C 0.23137 0.35453 0.13814 0.0
O421 O 0.24197 0.34857 0.11049 0.0
Cd422 Cd 0.23683 0.3313 0.04405 0.0
O423 O 0.21681 0.35179 0.12954 0.0
Cd424 Cd 0.20118 0.33815 0.06142 0.0
C425 C 0.21289 0.30315 0.10103 0.0
O426 O 0.21869 0.34599 -0.00402 0.0
O427 O 0.20453 0.326 0.97644 0.0
O428 O 0.1857 0.36187 0.05853 0.0
C429 C 0.21371 0.33686 0.96222 0.0
O430 O 0.22589 0.30751 0.08167 0.0
C431 C 0.17294 0.35546 0.0448 0.0
O432 O 0.20106 0.31232 0.10159 0.0
O433 O 0.17268 0.34053 0.04434 0.0
C434 C 0.3925 0.48318 0.89965 0.0
O435 O 0.39893 0.49368 0.87273 0.0
Cd436 Cd 0.4172 0.48823 0.80918 0.0
O437 O 0.39512 0.4686 0.89137 0.0
Cd438 Cd 0.40907 0.45258 0.82489 0.0
C439 C 0.44372 0.46331 0.87018 0.0
O440 O 0.40297 0.47042 0.75842 0.0
O441 O 0.4226 0.45526 0.74234 0.0
O442 O 0.38492 0.43792 0.81811 0.0
C443 C 0.41242 0.46491 0.72635 0.0
O444 O 0.44 0.47652 0.851 0.0
C445 C 0.39114 0.42489 0.80629 0.0
O446 O 0.4343 0.45169 0.86835 0.0
O447 O 0.40604 0.42415 0.80842 0.0
H448 H 0.13044 0.05816 0.9123 0.0
H449 H 0.14546 0.14391 0.02329 0.0
H450 H 0.09846 0.09666 0.8855 0.0
H451 H 0.17158 0.10258 0.06657 0.0
H452 H 0.12713 0.12713 0.97642 0.0
H453 H 0.14539 0.07473 0.96946 0.0
C454 C 0.12661 0.07017 0.91813 0.0
C455 C 0.1132 0.07605 0.89384 0.0
C456 C 0.13672 0.12174 -0.0031 0.0
C457 C 0.13027 0.09515 0.96006 0.0
C458 C 0.14711 0.13129 0.02406 0.0
C459 C 0.16017 0.12463 0.04842 0.0
C460 C 0.13952 0.10548 -0.00597 0.0
C461 C 0.16177 0.10823 0.04794 0.0
C462 C 0.1351 0.07961 0.95121 0.0
C463 C 0.10878 0.09169 0.90324 0.0
N464 N 0.15171 0.09926 0.0206 0.0
N465 N 0.11733 0.10074 0.93556 0.0
H466 H 0.09972 0.90665 0.26584 0.0
H467 H 0.16569 0.89468 0.05396 0.0
H468 H 0.12989 0.94327 0.20812 0.0
H469 H 0.14576 0.85605 0.13789 0.0
H470 H 0.14749 0.91253 0.09612 0.0
H471 H 0.11253 0.88788 0.2085 0.0
C472 C 0.10906 0.91072 0.24133 0.0
C473 C 0.11387 0.9265 0.24215 0.0
C474 C 0.14693 0.9001 0.10473 0.0
C475 C 0.1282 0.90529 0.17583 0.0
C476 C 0.1572 0.88986 0.08022 0.0
C477 C 0.15746 0.87389 0.09313 0.0
C478 C 0.13685 0.89433 0.14239 0.0
C479 C 0.1461 0.86832 0.12724 0.0
C480 C 0.11628 0.90004 0.20846 0.0
C481 C 0.12591 0.93119 0.20924 0.0
N482 N 0.13641 0.87858 0.15142 0.0
N483 N 0.13263 0.92065 0.17745 0.0
H484 H 0.36055 0.92797 0.38061 0.0
H485 H 0.3538 0.84506 0.49866 0.0
H486 H 0.403 0.90012 0.38451 0.0
H487 H 0.33303 0.88601 0.5682 0.0
H488 H 0.37137 0.86236 0.45045 0.0
H489 H 0.34819 0.90952 0.43827 0.0
C490 C 0.36722 0.91782 0.39287 0.0
C491 C 0.38288 0.91563 0.37783 0.0
C492 C 0.36322 0.86745 0.47731 0.0
C493 C 0.36874 0.89452 0.44433 0.0
C494 C 0.35327 0.85762 0.50507 0.0
C495 C 0.34171 0.86412 0.53684 0.0
C496 C 0.36131 0.88377 0.48085 0.0
C497 C 0.34158 0.88047 0.54371 0.0
C498 C 0.3602 0.90742 0.42634 0.0
C499 C 0.3909 0.90223 0.39524 0.0
N500 N 0.35092 0.88975 0.51487 0.0
N501 N 0.3837 0.89208 0.42762 0.0
H502 H 0.35606 0.08732 0.83256 0.0
H503 H 0.34725 0.15751 0.63643 0.0
H504 H 0.39754 0.10865 0.76822 0.0
H505 H 0.31615 0.11751 0.64687 0.0
H506 H 0.36486 0.14482 0.69825 0.0
H507 H 0.33977 0.10497 0.78256 0.0
C508 C 0.36176 0.09601 0.80895 0.0
C509 C 0.37817 0.0963 0.80379 0.0
C510 C 0.35417 0.13892 0.68663 0.0
C511 C 0.35957 0.11635 0.74593 0.0
C512 C 0.34421 0.14605 0.65127 0.0
C513 C 0.33025 0.13851 0.63629 0.0
C514 C 0.34984 0.12444 0.70784 0.0
C515 C 0.3268 0.12374 0.65696 0.0
C516 C 0.35245 0.10597 0.78008 0.0
C517 C 0.38491 0.10794 0.77294 0.0
N518 N 0.33642 0.11729 0.69195 0.0
N519 N 0.37555 0.11739 0.74436 0.0
H520 H 0.84975 0.85817 0.13869 0.0
H521 H 0.86082 0.94336 0.26051 0.0
H522 H 0.81999 0.89813 0.1079 0.0
H523 H 0.8976 0.90841 0.26509 0.0
H524 H 0.84473 0.92547 0.21107 0.0
H525 H 0.86707 0.8753 0.18856 0.0
C526 C 0.84699 0.87056 0.14177 0.0
C527 C 0.83337 0.87673 0.11924 0.0
C528 C 0.8563 0.92165 0.22292 0.0
C529 C 0.85287 0.8962 0.17685 0.0
C530 C 0.86547 0.93183 0.25154 0.0
C531 C 0.88062 0.92741 0.2668 0.0
C532 C 0.86225 0.90684 0.20937 0.0
C533 C 0.88598 0.91229 0.25408 0.0
C534 C 0.85682 0.88029 0.17045 0.0
C535 C 0.83031 0.89284 0.12469 0.0
N536 N 0.87681 0.90253 0.22587 0.0
N537 N 0.83989 0.90195 0.15321 0.0
H538 H 0.89648 0.10124 0.88371 0.0
H539 H 0.82486 0.10818 0.07842 0.0
H540 H 0.86464 0.06357 0.92217 0.0
H541 H 0.84845 0.14883 0.01714 0.0
H542 H 0.84349 0.09128 0.03443 0.0
H543 H 0.88215 0.11858 0.94196 0.0
C544 C 0.88646 0.09665 0.90415 0.0
C545 C 0.88166 0.08098 0.89775 0.0
C546 C 0.84475 0.1039 0.03109 0.0
C547 C 0.86554 0.10056 0.96502 0.0
C548 C 0.8342 0.11357 0.05663 0.0
C549 C 0.83497 0.12993 0.05086 0.0
C550 C 0.85612 0.11062 -0.00072 0.0
C551 C 0.84739 0.13626 0.02239 0.0
C552 C 0.87836 0.10651 0.93755 0.0
C553 C 0.86869 0.07559 0.92551 0.0
N554 N 0.85735 0.12657 -0.00309 0.0
N555 N 0.86113 0.08535 0.9579 0.0
H556 H 0.66722 0.11597 0.60411 0.0
H557 H 0.59326 0.10941 0.77294 0.0
H558 H 0.64567 0.16022 0.64436 0.0
H559 H 0.63712 0.0867 0.81076 0.0
H560 H 0.60777 0.12729 0.71664 0.0
H561 H 0.65056 0.10278 0.66555 0.0
C562 C 0.65875 0.1229 0.62507 0.0
C563 C 0.65799 0.13927 0.6195 0.0
C564 C 0.61415 0.11859 0.73834 0.0
C565 C 0.63894 0.12416 0.69002 0.0
C566 C 0.60595 0.10847 0.77065 0.0
C567 C 0.61397 0.09636 0.79598 0.0
C568 C 0.6303 0.11627 0.73092 0.0
C569 C 0.6304 0.09568 0.79152 0.0
C570 C 0.64938 0.11537 0.66047 0.0
C571 C 0.64668 0.14758 0.64771 0.0
N572 N 0.63796 0.10522 0.75858 0.0
N573 N 0.63757 0.13992 0.68217 0.0
H574 H 0.64089 0.92489 0.34574 0.0
H575 H 0.64692 0.84884 0.51502 0.0
H576 H 0.598 0.90153 0.39044 0.0
H577 H 0.6764 0.88981 0.53314 0.0
H578 H 0.6296 0.86422 0.45922 0.0
H579 H 0.65573 0.90709 0.39945 0.0
C580 C 0.6346 0.91581 0.36603 0.0
C581 C 0.61815 0.91485 0.36413 0.0
C582 C 0.63978 0.86978 0.47611 0.0
C583 C 0.63512 0.89453 0.42612 0.0
C584 C 0.64959 0.8611 0.50813 0.0
C585 C 0.6632 0.86802 0.52849 0.0
C586 C 0.6439 0.88528 0.4638 0.0
C587 C 0.66612 0.88392 0.51813 0.0
C588 C 0.64308 0.90576 0.39707 0.0
C589 C 0.61067 0.90272 0.39109 0.0
N590 N 0.65672 0.89191 0.48591 0.0
N591 N 0.61923 0.89305 0.42148 0.0
H592 H 0.65234 0.64804 0.51168 0.0
H593 H 0.64402 0.57503 0.32386 0.0
H594 H 0.68678 0.61118 0.49342 0.0
H595 H 0.60337 0.60075 0.37595 0.0
H596 H 0.66079 0.59222 0.37381 0.0
H597 H 0.6347 0.63374 0.45413 0.0
C598 C 0.65611 0.63688 0.49617 0.0
C599 C 0.67106 0.63079 0.50742 0.0
C600 C 0.64821 0.59423 0.37397 0.0
C601 C 0.65123 0.61474 0.44079 0.0
C602 C 0.63864 0.58452 0.345 0.0
C603 C 0.62226 0.58634 0.34622 0.0
C604 C 0.6414 0.60587 0.4045 0.0
C605 C 0.61595 0.59891 0.3741 0.0
C606 C 0.6461 0.62881 0.46311 0.0
C607 C 0.67539 0.61634 0.48595 0.0
N608 N 0.62554 0.60812 0.40276 0.0
N609 N 0.66559 0.60891 0.45346 0.0
H610 H 0.59955 0.4027 0.74669 0.0
H611 H 0.67345 0.39685 0.56207 0.0
H612 H 0.63828 0.43552 0.74248 0.0
H613 H 0.64954 0.35497 0.61282 0.0
H614 H 0.65523 0.4127 0.61153 0.0
H615 H 0.61363 0.38605 0.68528 0.0
C616 C 0.61102 0.40633 0.73327 0.0
C617 C 0.61779 0.42048 0.74991 0.0
C618 C 0.65383 0.40005 0.61127 0.0
C619 C 0.63352 0.40192 0.67891 0.0
C620 C 0.66413 0.39099 0.58265 0.0
C621 C 0.66319 0.37455 0.58401 0.0
C622 C 0.64247 0.39265 0.64145 0.0
C623 C 0.65076 0.36763 0.61107 0.0
C624 C 0.61896 0.3969 0.69812 0.0
C625 C 0.63262 0.42469 0.73104 0.0
N626 N 0.64097 0.37672 0.63946 0.0
N627 N 0.63989 0.41553 0.69635 0.0
H628 H 0.87421 0.39882 0.8085 0.0
H629 H 0.85141 0.37508 0.06948 0.0
H630 H 0.91072 0.4025 0.92078 0.0
H631 H 0.84488 0.33971 0.95474 0.0
H632 H 0.87188 0.38728 0.01701 0.0
H633 H 0.86138 0.37849 0.85993 0.0
C634 C 0.87973 0.39503 0.84323 0.0
C635 C 0.89352 0.40226 0.86045 0.0
C636 C 0.86622 0.37661 0.00411 0.0
C637 C 0.8787 0.37969 0.91984 0.0
C638 C 0.85459 0.36968 0.03389 0.0
C639 C 0.84655 0.35638 0.01637 0.0
C640 C 0.86929 0.37052 0.95589 0.0
C641 C 0.85093 0.34989 0.96971 0.0
C642 C 0.87244 0.38349 0.87244 0.0
C643 C 0.90014 0.39709 0.90604 0.0
N644 N 0.86171 0.35731 0.94028 0.0
N645 N 0.89241 0.38643 0.93502 0.0
H646 H 0.84925 0.6512 0.13048 0.0
H647 H 0.85099 0.57736 0.31636 0.0
H648 H 0.81206 0.61696 0.14567 0.0
H649 H 0.89382 0.59936 0.26468 0.0
H650 H 0.83586 0.59616 0.26713 0.0
H651 H 0.86543 0.63553 0.18878 0.0
C652 C 0.84456 0.64034 0.14556 0.0
C653 C 0.82929 0.63537 0.13309 0.0
C654 C 0.84857 0.597 0.26695 0.0
C655 C 0.84744 0.61779 0.20053 0.0
C656 C 0.85722 0.58636 0.29548 0.0
C657 C 0.8737 0.58665 0.2941 0.0
C658 C 0.85641 0.60805 0.23673 0.0
C659 C 0.88112 0.59867 0.26658 0.0
C660 C 0.85374 0.6315 0.179 0.0
C661 C 0.82375 0.62127 0.15402 0.0
N662 N 0.87241 0.60881 0.23836 0.0
N663 N 0.83276 0.61308 0.18688 0.0
H664 H 0.32444 0.39344 0.5961 0.0
H665 H 0.40106 0.39709 0.76305 0.0
H666 H 0.3494 0.35028 0.62656 0.0
H667 H 0.35955 0.42505 0.79093 0.0
H668 H 0.38564 0.38064 0.70469 0.0
H669 H 0.34171 0.40714 0.65455 0.0
C670 C 0.33375 0.38687 0.61433 0.0
C671 C 0.33535 0.37064 0.60686 0.0
C672 C 0.37996 0.39025 0.72434 0.0
C673 C 0.35507 0.38629 0.67434 0.0
C674 C 0.38866 0.39956 0.75787 0.0
C675 C 0.38161 0.41256 0.78156 0.0
C676 C 0.36428 0.39427 0.71401 0.0
C677 C 0.36554 0.41526 0.77327 0.0
C678 C 0.34349 0.39469 0.64811 0.0
C679 C 0.34773 0.3628 0.63145 0.0
N680 N 0.35752 0.40638 0.73955 0.0
N681 N 0.35713 0.37071 0.6645 0.0
H682 H 0.35441 0.64973 0.51486 0.0
H683 H 0.3633 0.56917 0.3795 0.0
H684 H 0.3337 0.607 0.57234 0.0
H685 H 0.40456 0.59868 0.38763 0.0
H686 H 0.35031 0.5861 0.44045 0.0
H687 H 0.37242 0.63383 0.4633 0.0
C688 C 0.35398 0.63704 0.51795 0.0
C689 C 0.34231 0.62967 0.54723 0.0
C690 C 0.3622 0.58889 0.42881 0.0
C691 C 0.36242 0.61164 0.48747 0.0
C692 C 0.36958 0.57936 0.39348 0.0
C693 C 0.3851 0.58246 0.37857 0.0
C694 C 0.37023 0.60183 0.44896 0.0
C695 C 0.39259 0.59588 0.39819 0.0
C696 C 0.36418 0.62802 0.48825 0.0
C697 C 0.34231 0.61321 0.54978 0.0
N698 N 0.38505 0.60517 0.43247 0.0
N699 N 0.35192 0.60475 0.51926 0.0
H700 H 0.08766 0.60685 0.26108 0.0
H701 H 0.16001 0.61585 0.07961 0.0
H702 H 0.13135 0.5816 0.27957 0.0
H703 H 0.14073 0.65881 0.14062 0.0
H704 H 0.14192 0.60088 0.13234 0.0
H705 H 0.10106 0.6248 0.20186 0.0
C706 C 0.10008 0.60527 0.25359 0.0
C707 C 0.10838 0.59265 0.27514 0.0
C708 C 0.14144 0.6136 0.13321 0.0
C709 C 0.12332 0.6125 0.20639 0.0
C710 C 0.15164 0.62217 0.10281 0.0
C711 C 0.15213 0.63861 0.10652 0.0
C712 C 0.1315 0.6215 0.16693 0.0
C713 C 0.14087 0.64614 0.13709 0.0
C714 C 0.10762 0.6154 0.2196 0.0
C715 C 0.12443 0.59109 0.26386 0.0
N716 N 0.13111 0.63749 0.16693 0.0
N717 N 0.13128 0.60068 0.22956 0.0
H718 H 0.14127 0.42298 0.83868 0.0
H719 H 0.14534 0.34548 0.0002 0.0
H720 H 0.09767 0.39922 0.87289 0.0
H721 H 0.17267 0.38712 0.03201 0.0
H722 H 0.12875 0.36114 0.94293 0.0
H723 H 0.15509 0.4048 0.89392 0.0
C724 C 0.13463 0.41372 0.85689 0.0
C725 C 0.11824 0.41277 0.8517 0.0
C726 C 0.13826 0.36678 0.96319 0.0
C727 C 0.13404 0.39202 0.91541 0.0
C728 C 0.14764 0.35794 -0.00391 0.0
C729 C 0.1605 0.36498 0.02063 0.0
C730 C 0.14209 0.38257 0.95423 0.0
C731 C 0.16299 0.38113 0.01371 0.0
C732 C 0.14251 0.40346 0.88883 0.0
C733 C 0.1103 0.40041 0.8761 0.0
N734 N 0.15407 0.38929 0.98049 0.0
N735 N 0.11828 0.39053 0.90742 0.0
H736 H 0.21865 0.13244 0.9034 0.0
H737 H 0.2671 0.18697 0.72183 0.0
H738 H 0.21404 0.18286 0.91173 0.0
H739 H 0.25121 0.14073 0.67785 0.0
H740 H 0.24938 0.18584 0.79505 0.0
H741 H 0.23207 0.13516 0.82253 0.0
C742 C 0.22028 0.14407 0.8876 0.0
C743 C 0.21529 0.15745 0.91375 0.0
C744 C 0.24972 0.17605 0.76892 0.0
C745 C 0.23092 0.1607 0.82248 0.0
C746 C 0.25988 0.17663 0.72757 0.0
C747 C 0.26064 0.16388 0.69413 0.0
C748 C 0.24058 0.16253 0.77691 0.0
C749 C 0.251 0.1508 0.70285 0.0
C750 C 0.22792 0.14563 0.84162 0.0
C751 C 0.21766 0.17229 0.89217 0.0
N752 N 0.24148 0.1504 0.74369 0.0
N753 N 0.22561 0.17357 0.84789 0.0
H754 H 0.07727 0.01034 0.21091 0.0
H755 H 0.06804 0.99608 0.92456 0.0
H756 H 0.06011 0.96588 0.15499 0.0
H757 H 0.06002 0.04207 -0.01176 0.0
H758 H 0.06461 0.98454 0.00823 0.0
H759 H 0.07072 0.02242 0.13001 0.0
C760 C 0.07196 0.00318 0.1817 0.0
C761 C 0.0694 0.98708 0.18911 0.0
C762 C 0.06327 0.99712 0.0037 0.0
C763 C 0.06207 0.00071 0.09683 0.0
C764 C 0.0653 0.0037 0.95613 0.0
C765 C 0.0645 0.02002 0.94994 0.0
C766 C 0.06086 0.00702 0.04532 0.0
C767 C 0.0608 0.02942 -0.00829 0.0
C768 C 0.06812 0.01009 0.13579 0.0
C769 C 0.06234 0.97833 0.15047 0.0
N770 N 0.05946 0.0228 0.03807 0.0
N771 N 0.0592 0.9852 0.10542 0.0
H772 H 0.24546 0.87746 0.17028 0.0
H773 H 0.25524 0.87381 0.46791 0.0
H774 H 0.20739 0.86768 0.27349 0.0
H775 H 0.29169 0.86075 0.36236 0.0
H776 H 0.23861 0.88177 0.39746 0.0
H777 H 0.26296 0.88164 0.24202 0.0
C778 C 0.24069 0.87653 0.20804 0.0
C779 C 0.22506 0.87182 0.21618 0.0
C780 C 0.25036 0.87744 0.38994 0.0
C781 C 0.24495 0.87674 0.29777 0.0
C782 C 0.25987 0.87289 0.42995 0.0
C783 C 0.27471 0.86624 0.42067 0.0
C784 C 0.25583 0.87549 0.34054 0.0
C785 C 0.28019 0.86552 0.37093 0.0
C786 C 0.2507 0.8789 0.2488 0.0
C787 C 0.21945 0.87098 0.26575 0.0
N788 N 0.27064 0.86992 0.33247 0.0
N789 N 0.22948 0.87322 0.30488 0.0
H790 H 0.37732 0.03122 0.66875 0.0
H791 H 0.43009 0.98007 0.48487 0.0
H792 H 0.4276 0.03744 0.65937 0.0
H793 H 0.38103 0.98961 0.45636 0.0
H794 H 0.42937 -0.00115 0.55524 0.0
H795 H 0.37833 0.01424 0.59456 0.0
C796 C 0.38853 0.02919 0.65039 0.0
C797 C 0.40239 0.03568 0.6698 0.0
C798 C 0.4188 0.99679 0.53343 0.0
C799 C 0.40371 0.01603 0.58625 0.0
C800 C 0.41916 0.98599 0.49384 0.0
C801 C 0.40559 0.98336 0.46507 0.0
C802 C 0.40472 0.00472 0.54442 0.0
C803 C 0.39175 0.99138 0.47769 0.0
C804 C 0.38912 0.01948 0.6083 0.0
C805 C 0.41665 0.0327 0.64508 0.0
N806 N 0.39165 0.00168 0.51659 0.0
N807 N 0.417 0.02285 0.60477 0.0
H808 H 0.77798 0.81739 0.2266 0.0
H809 H 0.72414 0.86249 0.4204 0.0
H810 H 0.75713 0.86256 0.19457 0.0
H811 H 0.72416 0.81182 0.41628 0.0
H812 H 0.73858 0.86292 0.34104 0.0
H813 H 0.76081 0.81512 0.30111 0.0
C814 C 0.76985 0.82681 0.23536 0.0
C815 C 0.76897 0.84021 0.20477 0.0
C816 C 0.73528 0.85169 0.35708 0.0
C817 C 0.74954 0.8377 0.28884 0.0
C818 C 0.72706 0.85145 0.40223 0.0
C819 C 0.723 0.83711 0.42435 0.0
C820 C 0.73978 0.83747 0.33459 0.0
C821 C 0.72703 0.82309 0.39977 0.0
C822 C 0.76 0.82544 0.27736 0.0
C823 C 0.75818 0.85204 0.21724 0.0
N824 N 0.73547 0.82359 0.35621 0.0
N825 N 0.74898 0.85056 0.25855 0.0
H826 H 0.91961 0.99755 0.9198 0.0
H827 H 0.9246 0.0089 0.20961 0.0
H828 H 0.93592 0.04119 0.98431 0.0
H829 H 0.93211 0.96328 0.1426 0.0
H830 H 0.92911 0.02107 0.12751 0.0
H831 H 0.92452 0.98448 0.00031 0.0
C832 C 0.92442 0.00432 0.9508 0.0
C833 C 0.92717 0.02049 0.94588 0.0
C834 C 0.93005 0.00842 0.13092 0.0
C835 C 0.93261 0.00572 0.03775 0.0
C836 C 0.92738 0.00148 0.17759 0.0
C837 C 0.9278 0.98509 0.18242 0.0
C838 C 0.93276 -0.00115 0.0887 0.0
C839 C 0.93162 0.97597 0.14013 0.0
C840 C 0.9273 0.99685 -0.00347 0.0
C841 C 0.93355 0.02872 0.98683 0.0
N842 N 0.93364 0.98297 0.09458 0.0
N843 N 0.93577 0.02129 0.03154 0.0
H844 H 0.7811 0.18274 0.89801 0.0
H845 H 0.73425 0.13543 0.68667 0.0
H846 H 0.77322 0.13267 0.9038 0.0
H847 H 0.72516 0.18431 0.71939 0.0
H848 H 0.75316 0.13473 0.75578 0.0
H849 H 0.76558 0.18393 0.82 0.0
C850 C 0.77642 0.17198 0.88212 0.0
C851 C 0.77829 0.15759 0.90707 0.0
C852 C 0.74702 0.1456 0.74782 0.0
C853 C 0.76065 0.15888 0.81909 0.0
C854 C 0.73622 0.146 0.70859 0.0
C855 C 0.72811 0.15992 0.69776 0.0
C856 C 0.74984 0.15926 0.77594 0.0
C857 C 0.73109 0.17331 0.72705 0.0
C858 C 0.76746 0.17269 0.83815 0.0
C859 C 0.77191 0.14398 0.88557 0.0
N860 N 0.74182 0.17268 0.76491 0.0
N861 N 0.7633 0.14496 0.84278 0.0
H862 H 0.6178 0.03061 0.6733 0.0
H863 H 0.56863 0.97683 0.48661 0.0
H864 H 0.56734 0.03432 0.6607 0.0
H865 H 0.6175 0.98828 0.46205 0.0
H866 H 0.56806 0.99554 0.55712 0.0
H867 H 0.61809 0.01333 0.59981 0.0
C868 C 0.60681 0.02796 0.65439 0.0
C869 C 0.59254 0.03384 0.67269 0.0
C870 C 0.57888 0.9939 0.53621 0.0
C871 C 0.59271 0.01383 0.58988 0.0
C872 C 0.57926 0.98313 0.49654 0.0
C873 C 0.59314 0.98107 0.46877 0.0
C874 C 0.59253 0.0024 0.54827 0.0
C875 C 0.60657 0.98959 0.4826 0.0
C876 C 0.60697 0.01808 0.61269 0.0
C877 C 0.57859 0.03007 0.64727 0.0
N878 N 0.60594 -0.00013 0.52152 0.0
N879 N 0.57899 0.02007 0.60733 0.0
H880 H 0.71007 0.68237 0.39342 0.0
H881 H 0.79158 0.68524 0.2444 0.0
H882 H 0.75434 0.66789 0.45797 0.0
H883 H 0.74711 0.67525 0.17279 0.0
H884 H 0.77787 0.68784 0.3255 0.0
H885 H 0.72375 0.68855 0.31431 0.0
C886 C 0.72268 0.68071 0.39108 0.0
C887 C 0.73111 0.67439 0.43163 0.0
C888 C 0.77115 0.68535 0.29174 0.0
C889 C 0.74669 0.68164 0.34254 0.0
C890 C 0.77891 0.68391 0.24568 0.0
C891 C 0.77043 0.67979 0.2024 0.0
C892 C 0.75484 0.6829 0.29391 0.0
C893 C 0.75405 0.67819 0.20569 0.0
C894 C 0.73043 0.68422 0.34617 0.0
C895 C 0.74742 0.67249 0.42707 0.0
N896 N 0.74676 0.67967 0.25089 0.0
N897 N 0.75471 0.67606 0.3831 0.0
H898 H 0.61362 0.53075 0.48348 0.0
H899 H 0.5639 0.47966 0.66994 0.0
H900 H 0.56296 0.5315 0.47634 0.0
H901 H 0.60853 0.50006 0.71206 0.0
H902 H 0.56312 0.49717 0.59633 0.0
H903 H 0.61208 0.51827 0.56611 0.0
C904 C 0.60217 0.52848 0.49992 0.0
C905 C 0.5884 0.53209 0.47363 0.0
C906 C 0.57295 0.49788 0.62221 0.0
C907 C 0.58651 0.51752 0.56694 0.0
C908 C 0.57346 0.48784 0.66379 0.0
C909 C 0.58636 0.48835 0.69667 0.0
C910 C 0.58555 0.50819 0.61342 0.0
C911 C 0.5984 0.49923 0.68744 0.0
C912 C 0.60128 0.52139 0.54691 0.0
C913 C 0.57381 0.52893 0.49601 0.0
N914 N 0.59779 0.5086 0.64632 0.0
N915 N 0.57321 0.5215 0.54132 0.0
H916 H 0.71891 0.32328 0.72947 0.0
H917 H 0.77043 0.371 0.92858 0.0
H918 H 0.7291 0.37276 0.71503 0.0
H919 H 0.77554 0.32104 0.9051 0.0
H920 H 0.75154 0.37194 0.85929 0.0
H921 H 0.73543 0.32242 0.80531 0.0
C922 C 0.72435 0.33401 0.74295 0.0
C923 C 0.72278 0.34811 0.71616 0.0
C924 C 0.75685 0.3608 0.86922 0.0
C925 C 0.74161 0.34718 0.80175 0.0
C926 C 0.76764 0.36027 0.90851 0.0
C927 C 0.77456 0.34595 0.92218 0.0
C928 C 0.75282 0.34688 0.84395 0.0
C929 C 0.77053 0.33235 0.89526 0.0
C930 C 0.73388 0.33347 0.78571 0.0
C931 C 0.73015 0.36166 0.73467 0.0
N932 N 0.75981 0.33312 0.85746 0.0
N933 N 0.7393 0.36086 0.77634 0.0
H934 H 0.87444 0.5175 0.17163 0.0
H935 H 0.93 0.47077 0.98312 0.0
H936 H 0.92404 0.52748 0.1582 0.0
H937 H 0.87997 0.47549 0.96 0.0
H938 H 0.92817 0.489 0.05457 0.0
H939 H 0.87629 0.50007 0.09868 0.0
C940 C 0.88567 0.51616 0.15274 0.0
C941 C 0.8991 0.52388 0.17063 0.0
C942 C 0.91762 0.48598 0.03382 0.0
C943 C 0.90139 0.50376 0.08834 0.0
C944 C 0.91864 0.47546 -0.00644 0.0
C945 C 0.90511 0.47169 0.96585 0.0
C946 C 0.90297 0.49249 0.04655 0.0
C947 C 0.89068 0.47818 0.98049 0.0
C948 C 0.88673 0.50621 0.11134 0.0
C949 C 0.9134 0.52179 0.14516 0.0
N950 N 0.88997 0.48827 0.01994 0.0
N951 N 0.91422 0.51172 0.10547 0.0
H952 H 0.26169 0.36661 0.69498 0.0
H953 H 0.21999 0.31207 0.89904 0.0
H954 H 0.27421 0.31777 0.71328 0.0
H955 H 0.22436 0.36241 0.91346 0.0
H956 H 0.23582 0.31323 0.82134 0.0
H957 H 0.24415 0.36454 0.76728 0.0
C958 C 0.26079 0.35546 0.71452 0.0
C959 C 0.26941 0.34236 0.69853 0.0
C960 C 0.23317 0.32399 0.8415 0.0
C961 C 0.24924 0.33985 0.78058 0.0
C962 C 0.22405 0.32335 0.88527 0.0
C963 C 0.221 0.33718 0.91232 0.0
C964 C 0.23892 0.33856 0.82483 0.0
C965 C 0.22658 0.3515 0.8936 0.0
C966 C 0.25077 0.35429 0.75563 0.0
C967 C 0.26783 0.32817 0.72493 0.0
N968 N 0.23529 0.35182 0.85096 0.0
N969 N 0.25781 0.32725 0.76476 0.0
H970 H 0.43837 0.52283 0.47408 0.0
H971 H 0.38787 0.47555 0.67265 0.0
H972 H 0.39053 0.50806 0.4467 0.0
H973 H 0.43831 0.47028 0.66706 0.0
H974 H 0.38874 0.48996 0.59342 0.0
H975 H 0.43883 0.50618 0.54995 0.0
C976 C 0.42799 0.51614 0.48417 0.0
C977 C 0.41438 0.51678 0.45443 0.0
C978 C 0.39961 0.48552 0.60915 0.0
C979 C 0.41484 0.49797 0.54004 0.0
C980 C 0.39912 0.47732 0.65424 0.0
C981 C 0.41303 0.47178 0.67594 0.0
C982 C 0.41417 0.48845 0.58616 0.0
C983 C 0.42734 0.47433 0.65096 0.0
C984 C 0.42831 0.50659 0.52696 0.0
C985 C 0.40127 0.50786 0.46864 0.0
N986 N 0.42759 0.48272 0.60737 0.0
N987 N 0.40179 0.49889 0.51063 0.0
H988 H 0.26804 0.61695 0.43438 0.0
H989 H 0.21406 0.66928 0.26514 0.0
H990 H 0.28114 0.66415 0.39204 0.0
H991 H 0.22423 0.62224 0.21337 0.0
H992 H 0.23372 0.66608 0.33164 0.0
H993 H 0.24781 0.61716 0.36793 0.0
C994 C 0.26684 0.6272 0.41047 0.0
C995 C 0.27625 0.64052 0.4183 0.0
C996 C 0.23143 0.65642 0.30603 0.0
C997 C 0.25298 0.64104 0.34495 0.0
C998 C 0.22013 0.65814 0.26861 0.0
C999 C 0.21766 0.64601 0.23378 0.0
C1000 C 0.23998 0.64238 0.3091 0.0
C1001 C 0.22594 0.63186 0.23957 0.0
C1002 C 0.25532 0.62732 0.37305 0.0
C1003 C 0.27422 0.6536 0.38688 0.0
N1004 N 0.23683 0.63039 0.2767 0.0
N1005 N 0.26257 0.65364 0.35209 0.0
H1006 H 0.11324 0.52598 0.17388 0.0
H1007 H 0.06772 0.47215 0.97741 0.0
H1008 H 0.06286 0.52819 0.15579 0.0
H1009 H 0.11677 0.4844 0.96217 0.0
H1010 H 0.06578 0.49007 0.04972 0.0
H1011 H 0.11485 0.50871 0.1007 0.0
C1012 C 0.10254 0.52296 0.15392 0.0
C1013 C 0.08791 0.52845 0.17052 0.0
C1014 C 0.07695 0.48876 0.0305 0.0
C1015 C 0.08959 0.50849 0.08783 0.0
C1016 C 0.07811 0.47843 -0.0102 0.0
C1017 C 0.09243 0.47687 0.96407 0.0
C1018 C 0.09026 0.49731 0.04558 0.0
C1019 C 0.10551 0.48534 0.98107 0.0
C1020 C 0.10345 0.51309 0.11236 0.0
C1021 C 0.07436 0.52424 0.14369 0.0
N1022 N 0.10412 0.49522 0.02085 0.0
N1023 N 0.0755 0.51429 0.10375 0.0
H1024 H 0.23768 0.20734 0.13096 0.0
H1025 H 0.18622 0.28515 0.11314 0.0
H1026 H 0.18719 0.20656 0.11538 0.0
H1027 H 0.23668 0.28391 0.13039 0.0
H1028 H 0.18535 0.25675 0.12931 0.0
H1029 H 0.23658 0.23546 0.14698 0.0
C1030 C 0.22631 0.21309 0.13158 0.0
C1031 C 0.21253 0.20468 0.12109 0.0
C1032 C 0.19657 0.26277 0.13039 0.0
C1033 C 0.21116 0.23704 0.13836 0.0
C1034 C 0.19706 0.27898 0.12134 0.0
C1035 C 0.21158 0.28683 0.11951 0.0
C1036 C 0.21068 0.25447 0.13777 0.0
C1037 C 0.22526 0.27828 0.13046 0.0
C1038 C 0.22567 0.22918 0.14072 0.0
C1039 C 0.1981 0.21267 0.12306 0.0
N1040 N 0.22448 0.26258 0.13855 0.0
N1041 N 0.1978 0.22851 0.13051 0.0
H1042 H 0.03947 0.94012 0.37645 0.0
H1043 H 0.96219 0.98483 0.45536 0.0
H1044 H 0.03781 0.98468 0.45398 0.0
H1045 H 0.96225 0.9412 0.37257 0.0
H1046 H 0.98956 0.9804 0.47838 0.0
H1047 H 0.01166 0.93598 0.39708 0.0
C1048 C 0.0334 0.94879 0.39923 0.0
C1049 C 0.0408 0.96294 0.41254 0.0
C1050 C 0.98356 0.97158 0.45608 0.0
C1051 C 0.00908 0.95838 0.43571 0.0
C1052 C 0.9679 0.9741 0.44308 0.0
C1053 C 0.9601 0.9635 0.4113 0.0
C1054 C 0.99162 0.9586 0.43588 0.0
C1055 C 0.96794 0.94971 0.39687 0.0
C1056 C 0.0175 0.94646 0.41075 0.0
C1057 C 0.03242 0.97376 0.44203 0.0
N1058 N 0.98345 0.94784 0.40813 0.0
N1059 N 0.01695 0.97138 0.45186 0.0
H1060 H 0.26285 0.78518 0.47338 0.0
H1061 H 0.30769 0.70802 0.56848 0.0
H1062 H 0.30723 0.78672 0.55245 0.0
H1063 H 0.26246 0.70797 0.49428 0.0
H1064 H 0.30885 0.73662 0.55841 0.0
H1065 H 0.26383 0.75662 0.47502 0.0
C1066 C 0.27288 0.77952 0.4908 0.0
C1067 C 0.28491 0.78839 0.51319 0.0
C1068 C 0.29871 0.73031 0.54426 0.0
C1069 C 0.28605 0.75556 0.51558 0.0
C1070 C 0.29802 0.71399 0.55005 0.0
C1071 C 0.28491 0.70557 0.53249 0.0
C1072 C 0.28622 0.73822 0.52066 0.0
C1073 C 0.27277 0.71393 0.50873 0.0
C1074 C 0.27342 0.76317 0.49181 0.0
C1075 C 0.29766 0.78036 0.53488 0.0
N1076 N 0.27371 0.72976 0.50365 0.0
N1077 N 0.29784 0.76437 0.53589 0.0
H1078 H 0.45802 0.0131 0.85394 0.0
H1079 H 0.53675 0.06394 0.87026 0.0
H1080 H 0.45785 0.0637 0.86586 0.0
H1081 H 0.53505 0.0135 0.85317 0.0
H1082 H 0.50809 0.06418 0.88109 0.0
H1083 H 0.48632 0.01312 0.8664 0.0
C1084 C 0.46394 0.02424 0.85956 0.0
C1085 C 0.45559 0.03844 0.85813 0.0
C1086 C 0.51405 0.05306 0.87555 0.0
C1087 C 0.48817 0.03857 0.87197 0.0
C1088 C 0.5304 0.05291 0.86951 0.0
C1089 C 0.53828 0.0387 0.8601 0.0
C1090 C 0.5056 0.0389 0.87231 0.0
C1091 C 0.52947 0.02476 0.85958 0.0
C1092 C 0.48014 0.02424 0.86673 0.0
C1093 C 0.46387 0.05249 0.86642 0.0
N1094 N 0.51363 0.02524 0.86517 0.0
N1095 N 0.47977 0.05223 0.87231 0.0
H1096 H 0.18924 0.79503 0.08614 0.0
H1097 H 0.2338 0.71507 0.15439 0.0
H1098 H 0.23397 0.79248 0.16281 0.0
H1099 H 0.189 0.71613 0.07773 0.0
H1100 H 0.23308 0.74352 0.16131 0.0
H1101 H 0.18783 0.76628 0.08705 0.0
C1102 C 0.19868 0.78846 0.1036 0.0
C1103 C 0.2118 0.7962 0.12409 0.0
C1104 C 0.22336 0.73758 0.14303 0.0
C1105 C 0.2103 0.76335 0.12494 0.0
C1106 C 0.22378 0.72128 0.13894 0.0
C1107 C 0.21147 0.71316 0.11514 0.0
C1108 C 0.21058 0.74593 0.12307 0.0
C1109 C 0.19877 0.7219 0.09621 0.0
C1110 C 0.19789 0.77205 0.10395 0.0
C1111 C 0.22368 0.78707 0.1462 0.0
N1112 N 0.19867 0.73785 0.1004 0.0
N1113 N 0.22268 0.77116 0.14577 0.0
H1114 H 0.46005 0.94298 0.28444 0.0
H1115 H 0.53856 0.99391 0.26519 0.0
H1116 H 0.46162 0.99334 0.26538 0.0
H1117 H 0.53888 0.94363 0.28678 0.0
H1118 H 0.51031 0.99295 0.25174 0.0
H1119 H 0.48866 0.94203 0.27244 0.0
C1120 C 0.46636 0.95379 0.27695 0.0
C1121 C 0.45848 0.96829 0.2767 0.0
C1122 C 0.51651 0.98207 0.25894 0.0
C1123 C 0.49109 0.96729 0.26312 0.0
C1124 C 0.53268 0.98262 0.26667 0.0
C1125 C 0.54104 0.96886 0.27787 0.0
C1126 C 0.50853 0.96768 0.26311 0.0
C1127 C 0.53284 0.95453 0.27852 0.0
C1128 C 0.48268 0.95324 0.27025 0.0
C1129 C 0.46722 0.98192 0.26673 0.0
N1130 N 0.51696 0.95433 0.27204 0.0
N1131 N 0.48303 0.98109 0.2608 0.0
H1132 H 0.30846 0.21377 0.51763 0.0
H1133 H 0.25987 0.29235 0.47462 0.0
H1134 H 0.25983 0.21561 0.47123 0.0
H1135 H 0.30902 0.29218 0.51507 0.0
H1136 H 0.26124 0.26421 0.4589 0.0
H1137 H 0.31052 0.24215 0.50305 0.0
C1138 C 0.29831 0.22007 0.50345 0.0
C1139 C 0.28386 0.21237 0.49655 0.0
C1140 C 0.27182 0.2703 0.47059 0.0
C1141 C 0.28611 0.24475 0.48011 0.0
C1142 C 0.27103 0.28639 0.47959 0.0
C1143 C 0.28429 0.29454 0.49693 0.0
C1144 C 0.28591 0.26218 0.47987 0.0
C1145 C 0.2985 0.28629 0.50201 0.0
C1146 C 0.29949 0.23627 0.49528 0.0
C1147 C 0.27112 0.2211 0.47799 0.0
N1148 N 0.29887 0.27046 0.49443 0.0
N1149 N 0.2725 0.23682 0.47102 0.0
H1150 H 0.9576 0.02957 0.67063 0.0
H1151 H 0.0356 0.06966 0.76411 0.0
H1152 H 0.95874 0.07013 0.76811 0.0
H1153 H 0.03289 0.02752 0.67414 0.0
H1154 H 0.00813 0.07544 0.74297 0.0
H1155 H 0.98496 0.03436 0.64789 0.0
C1156 C 0.96354 0.03974 0.68625 0.0
C1157 C 0.95607 0.04927 0.72208 0.0
C1158 C 0.01369 0.06517 0.72663 0.0
C1159 C 0.98755 0.05453 0.69775 0.0
C1160 C 0.0294 0.06194 0.73842 0.0
C1161 C 0.03634 0.04791 0.72174 0.0
C1162 C 0.00501 0.05428 0.69803 0.0
C1163 C 0.02783 0.03829 0.68864 0.0
C1164 C 0.97919 0.04246 0.6734 0.0
C1165 C 0.96418 0.06241 0.74069 0.0
N1166 N 0.01253 0.0415 0.67862 0.0
N1167 N 0.97967 0.06441 0.72942 0.0
H1168 H 0.81667 0.71672 0.02235 0.0
H1169 H 0.77054 0.79428 0.95373 0.0
H1170 H 0.77247 0.71828 0.94287 0.0
H1171 H 0.81581 0.7946 0.02692 0.0
H1172 H 0.77436 0.76675 0.93193 0.0
H1173 H 0.82001 0.74496 0.00689 0.0
C1174 C 0.80794 0.7229 0.00018 0.0
C1175 C 0.79413 0.71528 0.98467 0.0
C1176 C 0.78362 0.77283 0.95205 0.0
C1177 C 0.79771 0.74747 0.96758 0.0
C1178 C 0.78142 0.78857 0.96451 0.0
C1179 C 0.79276 0.7966 -0.00713 0.0
C1180 C 0.79709 0.7649 0.96923 0.0
C1181 C 0.80674 0.78875 0.00528 0.0
C1182 C 0.80979 0.73903 -0.00832 0.0
C1183 C 0.78316 0.7238 0.95629 0.0
N1184 N 0.80837 0.77318 -0.00561 0.0
N1185 N 0.78506 0.73947 0.9494 0.0
H1186 H 0.73839 0.21435 0.49632 0.0
H1187 H 0.69037 0.29481 0.51825 0.0
H1188 H 0.68828 0.21594 0.52232 0.0
H1189 H 0.74098 0.29085 0.52091 0.0
H1190 H 0.6886 0.26641 0.50231 0.0
H1191 H 0.73857 0.24276 0.48657 0.0
C1192 C 0.72737 0.22067 0.49949 0.0
C1193 C 0.71333 0.21277 0.51106 0.0
C1194 C 0.70007 0.27184 0.5058 0.0
C1195 C 0.7135 0.24544 0.50041 0.0
C1196 C 0.70109 0.28802 0.51472 0.0
C1197 C 0.71584 0.29513 0.52159 0.0
C1198 C 0.7139 0.26283 0.50327 0.0
C1199 C 0.72936 0.28582 0.51663 0.0
C1200 C 0.72748 0.23692 0.49395 0.0
C1201 C 0.69938 0.22157 0.51384 0.0
N1202 N 0.72805 0.27016 0.50808 0.0
N1203 N 0.69984 0.2375 0.50929 0.0
H1204 H 0.75663 0.29071 0.10578 0.0
H1205 H 0.80516 0.21033 0.11442 0.0
H1206 H 0.80734 0.28896 0.11283 0.0
H1207 H 0.75498 0.2137 0.09222 0.0
H1208 H 0.80609 0.23882 0.12864 0.0
H1209 H 0.75576 0.26231 0.11606 0.0
C1210 C 0.7676 0.28437 0.10996 0.0
C1211 C 0.78209 0.29223 0.10765 0.0
C1212 C 0.79487 0.23326 0.12123 0.0
C1213 C 0.78119 0.25957 0.11901 0.0
C1214 C 0.79432 0.21701 0.11327 0.0
C1215 C 0.78 0.20967 0.1014 0.0
C1216 C 0.78098 0.24215 0.11753 0.0
C1217 C 0.76632 0.21888 0.10047 0.0
C1218 C 0.7671 0.26812 0.11581 0.0
C1219 C 0.79591 0.28338 0.11398 0.0
N1220 N 0.76717 0.23462 0.10801 0.0
N1221 N 0.79513 0.26748 0.11873 0.0
H1222 H 0.68801 0.70991 0.62203 0.0
H1223 H 0.73512 0.78851 0.66978 0.0
H1224 H 0.73535 0.71232 0.67998 0.0
H1225 H 0.68669 0.78789 0.62161 0.0
H1226 H 0.73319 0.76077 0.69113 0.0
H1227 H 0.68494 0.7381 0.63896 0.0
C1228 C 0.69758 0.71626 0.6397 0.0
C1229 C 0.71207 0.70889 0.64865 0.0
C1230 C 0.72286 0.76668 0.67665 0.0
C1231 C 0.70874 0.74103 0.66746 0.0
C1232 C 0.72399 0.78254 0.66443 0.0
C1233 C 0.71113 0.79039 0.64313 0.0
C1234 C 0.70889 0.75847 0.66633 0.0
C1235 C 0.69691 0.78219 0.63766 0.0
C1236 C 0.69586 0.73237 0.64908 0.0
C1237 C 0.72409 0.71764 0.67152 0.0
N1238 N 0.69625 0.76654 0.64811 0.0
N1239 N 0.72223 0.73328 0.67937 0.0
H1240 H 0.5405 0.4382 0.87049 0.0
H1241 H 0.46169 0.48572 0.91473 0.0
H1242 H 0.53821 0.48569 0.92747 0.0
H1243 H 0.46215 0.43682 0.87176 0.0
H1244 H 0.48962 0.48414 0.93403 0.0
H1245 H 0.51212 0.43557 0.88472 0.0
C1246 C 0.53411 0.44794 0.88704 0.0
C1247 C 0.54165 0.4623 0.89682 0.0
C1248 C 0.48364 0.47365 0.92112 0.0
C1249 C 0.50927 0.45942 0.91278 0.0
C1250 C 0.46767 0.47457 0.9101 0.0
C1251 C 0.45969 0.46145 0.89096 0.0
C1252 C 0.49182 0.4596 0.91183 0.0
C1253 C 0.46793 0.44723 0.88625 0.0
C1254 C 0.5179 0.44645 0.89501 0.0
C1255 C 0.53282 0.47451 0.91837 0.0
N1256 N 0.48367 0.44675 0.89559 0.0
N1257 N 0.5171 0.47286 0.92494 0.0
H1258 H 0.95494 0.50671 0.36399 0.0
H1259 H 0.03148 0.56089 0.36406 0.0
H1260 H 0.95269 0.55738 0.36228 0.0
H1261 H 0.03183 0.51015 0.3657 0.0
H1262 H 0.00285 0.56035 0.3759 0.0
H1263 H 0.98317 0.50822 0.37739 0.0
C1264 C 0.96039 0.51818 0.36684 0.0
C1265 C 0.95148 0.53194 0.36128 0.0
C1266 C 0.00925 0.54936 0.37433 0.0
C1267 C 0.98397 0.53379 0.37607 0.0
C1268 C 0.02559 0.54966 0.36773 0.0
C1269 C 0.03402 0.53554 0.3631 0.0
C1270 C 0.00139 0.53484 0.37642 0.0
C1271 C 0.0258 0.52133 0.36821 0.0
C1272 C 0.97654 0.51905 0.37456 0.0
C1273 C 0.95915 0.54649 0.36609 0.0
N1274 N 0.00997 0.52136 0.37412 0.0
N1275 N 0.97503 0.54704 0.37248 0.0
H1276 H 0.96177 0.44076 0.76675 0.0
H1277 H 0.03876 0.49439 0.77429 0.0
H1278 H 0.96165 0.49127 0.78283 0.0
H1279 H 0.04034 0.44369 0.76923 0.0
H1280 H 0.0104 0.49338 0.76287 0.0
H1281 H 0.99029 0.44158 0.75371 0.0
C1282 C 0.96769 0.45203 0.76687 0.0
C1283 C 0.95933 0.46595 0.77659 0.0
C1284 C 0.01692 0.48246 0.76377 0.0
C1285 C 0.99189 0.46695 0.7618 0.0
C1286 C 0.03315 0.48302 0.77029 0.0
C1287 C 0.04192 0.46909 0.7735 0.0
C1288 C 0.00931 0.46785 0.76089 0.0
C1289 C 0.03402 0.45472 0.76731 0.0
C1290 C 0.98397 0.45248 0.75953 0.0
C1291 C 0.96761 0.48022 0.77616 0.0
N1292 N 0.0181 0.45445 0.76199 0.0
N1293 N 0.98342 0.48032 0.76934 0.0
H1294 H 0.46318 0.51073 0.22219 0.0
H1295 H 0.54096 0.56146 0.26302 0.0
H1296 H 0.46251 0.55953 0.26673 0.0
H1297 H 0.53935 0.51105 0.246 0.0
H1298 H 0.51279 0.56266 0.24268 0.0
H1299 H 0.49138 0.51263 0.20768 0.0
C1300 C 0.46894 0.52194 0.22818 0.0
C1301 C 0.46055 0.5349 0.2467 0.0
C1302 C 0.5187 0.55138 0.24252 0.0
C1303 C 0.49295 0.5371 0.23096 0.0
C1304 C 0.53477 0.5507 0.25388 0.0
C1305 C 0.54239 0.5361 0.25698 0.0
C1306 C 0.51036 0.53738 0.23379 0.0
C1307 C 0.53385 0.52252 0.24488 0.0
C1308 C 0.48507 0.52301 0.21995 0.0
C1309 C 0.46858 0.5492 0.25291 0.0
N1310 N 0.51829 0.52348 0.23429 0.0
N1311 N 0.48443 0.54985 0.24601 0.0
H1312 H 0.26609 0.13321 0.15597 0.0
H1313 H 0.24549 0.12318 0.44406 0.0
H1314 H 0.21938 0.1268 0.21674 0.0
H1315 H 0.28953 0.14129 0.38814 0.0
H1316 H 0.23898 0.11407 0.35944 0.0
H1317 H 0.27713 0.12619 0.23769 0.0
C1318 C 0.25813 0.13003 0.18618 0.0
C1319 C 0.24174 0.1311 0.18 0.0
C1320 C 0.25025 0.11967 0.36582 0.0
C1321 C 0.25438 0.12301 0.27342 0.0
C1322 C 0.25399 0.12485 0.41407 0.0
C1323 C 0.26785 0.13339 0.4225 0.0
C1324 C 0.26035 0.12331 0.3257 0.0
C1325 C 0.27861 0.13495 0.38286 0.0
C1326 C 0.26448 0.12599 0.23279 0.0
C1327 C 0.23206 0.1265 0.22014 0.0
N1328 N 0.27444 0.13033 0.33563 0.0
N1329 N 0.23854 0.12293 0.26549 0.0
H1330 H 0.11731 0.96745 0.47319 0.0
H1331 H 0.11504 0.03574 0.66945 0.0
H1332 H 0.11947 0.0168 0.43647 0.0
H1333 H 0.11044 0.98645 0.70465 0.0
H1334 H 0.12699 0.02864 0.5887 0.0
H1335 H 0.12549 0.97369 0.55916 0.0
C1336 C 0.12002 0.97954 0.48269 0.0
C1337 C 0.11708 0.9917 0.44835 0.0
C1338 C 0.12375 0.01937 0.61466 0.0
C1339 C 0.12606 -0.00105 0.54668 0.0
C1340 C 0.11695 0.02344 0.66084 0.0
C1341 C 0.11119 0.01165 0.69281 0.0
C1342 C 0.12461 0.00345 0.60048 0.0
C1343 C 0.11421 0.99591 0.68019 0.0
C1344 C 0.12461 0.98312 0.53193 0.0
C1345 C 0.12103 0.00711 0.46245 0.0
N1346 N 0.12036 0.99225 0.63449 0.0
N1347 N 0.1249 0.01036 0.51096 0.0
H1348 H 0.2127 0.84859 0.91219 0.0
H1349 H 0.28617 0.84534 0.723 0.0
H1350 H 0.26123 0.84803 0.96053 0.0
H1351 H 0.23765 0.84195 0.67568 0.0
H1352 H 0.27725 0.84772 0.81041 0.0
H1353 H 0.22164 0.8477 0.82454 0.0
C1354 C 0.22521 0.84834 0.90441 0.0
C1355 C 0.23621 0.8483 0.94373 0.0
C1356 C 0.26858 0.84645 0.78078 0.0
C1357 C 0.24652 0.84726 0.84386 0.0
C1358 C 0.27367 0.84509 0.73094 0.0
C1359 C 0.26267 0.8434 0.69199 0.0
C1360 C 0.25238 0.84616 0.79157 0.0
C1361 C 0.24659 0.84318 0.70445 0.0
C1362 C 0.23031 0.8478 0.85443 0.0
C1363 C 0.2523 0.84798 0.93147 0.0
N1364 N 0.24195 0.84454 0.75312 0.0
N1365 N 0.25695 0.84745 0.88265 0.0
H1366 H 0.37992 0.03803 0.97844 0.0
H1367 H 0.388 0.96394 0.15202 0.0
H1368 H 0.38281 0.99062 0.9207 0.0
H1369 H 0.37581 0.01012 0.20707 0.0
H1370 H 0.38102 0.97238 0.06672 0.0
H1371 H 0.37344 0.02744 0.06137 0.0
C1372 C 0.37895 0.02542 0.98298 0.0
C1373 C 0.38234 0.01521 0.94294 0.0
C1374 C 0.37954 0.98056 0.09767 0.0
C1375 C 0.37512 0.00297 0.03773 0.0
C1376 C 0.38348 0.97571 0.14636 0.0
C1377 C 0.38294 0.9865 0.18625 0.0
C1378 C 0.37518 0.9963 0.08919 0.0
C1379 C 0.37685 0.00157 0.177 0.0
C1380 C 0.37522 0.01935 0.03033 0.0
C1381 C 0.38065 -0.00104 0.9508 0.0
N1382 N 0.37352 0.00613 0.12929 0.0
N1383 N 0.37748 0.99333 -0.00248 0.0
H1384 H 0.7403 0.87644 0.95623 0.0
H1385 H 0.7623 0.86938 0.66912 0.0
H1386 H 0.78714 0.86839 0.8991 0.0
H1387 H 0.71515 0.86731 0.72926 0.0
H1388 H 0.77162 0.87949 0.74969 0.0
H1389 H 0.7318 0.8839 0.87185 0.0
C1390 C 0.7489 0.87663 0.92607 0.0
C1391 C 0.76431 0.87127 0.93409 0.0
C1392 C 0.75918 0.87715 0.74494 0.0
C1393 C 0.7546 0.87957 0.83759 0.0
C1394 C 0.75383 0.87132 0.69902 0.0
C1395 C 0.738 0.86695 0.69316 0.0
C1396 C 0.74865 0.87849 0.78538 0.0
C1397 C 0.72751 0.87018 0.73257 0.0
C1398 C 0.74403 0.88089 0.87795 0.0
C1399 C 0.77507 0.87215 0.89421 0.0
N1400 N 0.73309 0.87542 0.77753 0.0
N1401 N 0.7699 0.87579 0.84719 0.0
H1402 H 0.88141 0.04289 0.66019 0.0
H1403 H 0.88056 0.97381 0.4665 0.0
H1404 H 0.87749 0.9938 0.69873 0.0
H1405 H 0.88678 0.02276 0.42878 0.0
H1406 H 0.86927 0.98168 0.5474 0.0
H1407 H 0.87287 0.03666 0.57451 0.0
C1408 C 0.87822 0.03089 0.65114 0.0
C1409 C 0.88075 0.01874 0.68585 0.0
C1410 C 0.87275 0.99072 0.52091 0.0
C1411 C 0.87136 0.01148 0.58798 0.0
C1412 C 0.8792 0.98621 0.47466 0.0
C1413 C 0.88519 0.99764 0.4418 0.0
C1414 C 0.87251 0.00672 0.53436 0.0
C1415 C 0.88282 0.01353 0.45386 0.0
C1416 C 0.87343 0.0273 0.60209 0.0
C1417 C 0.87622 0.00344 0.6724 0.0
N1418 N 0.87702 0.01761 0.49968 0.0
N1419 N 0.87215 0.00016 0.6241 0.0
H1420 H 0.77491 0.13052 0.20957 0.0
H1421 H 0.70289 0.14403 0.3877 0.0
H1422 H 0.72804 0.14027 0.15511 0.0
H1423 H 0.74766 0.12598 0.4378 0.0
H1424 H 0.70991 0.13697 0.3011 0.0
H1425 H 0.76377 0.12329 0.29106 0.0
C1426 C 0.76227 0.13092 0.2145 0.0
C1427 C 0.75245 0.13644 0.17598 0.0
C1428 C 0.71804 0.13419 0.33122 0.0
C1429 C 0.73961 0.12837 0.26923 0.0
C1430 C 0.71399 0.13817 0.38065 0.0
C1431 C 0.72493 0.13605 0.4195 0.0
C1432 C 0.73316 0.12822 0.32101 0.0
C1433 C 0.73909 0.12827 0.40853 0.0
C1434 C 0.75588 0.12674 0.26101 0.0
C1435 C 0.73611 0.13642 0.18415 0.0
N1436 N 0.74295 0.12496 0.36014 0.0
N1437 N 0.73023 0.1328 0.23023 0.0
H1438 H 0.6217 0.01292 0.21335 0.0
H1439 H 0.61507 0.99214 0.92289 0.0
H1440 H 0.61118 0.96666 0.15538 0.0
H1441 H 0.61307 0.03918 0.98405 0.0
H1442 H 0.62258 0.98228 0.00557 0.0
H1443 H 0.62775 0.02168 0.12811 0.0
C1444 C 0.62095 0.00451 0.18276 0.0
C1445 C 0.61547 0.98916 0.19115 0.0
C1446 C 0.62076 0.99479 0.00068 0.0
C1447 C 0.62229 -0.00083 0.09366 0.0
C1448 C 0.61643 0.00046 0.95352 0.0
C1449 C 0.61298 0.01648 0.94691 0.0
C1450 C 0.62163 0.00519 0.04153 0.0
C1451 C 0.61531 0.02671 -0.01233 0.0
C1452 C 0.62441 0.00954 0.13415 0.0
C1453 C 0.6151 0.97867 0.15041 0.0
N1454 N 0.61925 0.02084 0.03358 0.0
N1455 N 0.61815 0.98397 0.10309 0.0
H1456 H 0.7872 0.63676 0.91167 0.0
H1457 H 0.71656 0.63219 0.72415 0.0
H1458 H 0.73825 0.63746 0.95479 0.0
H1459 H 0.76545 0.6317 0.68016 0.0
H1460 H 0.72429 0.62448 0.80924 0.0
H1461 H 0.77969 0.62556 0.8302 0.0
C1462 C 0.77492 0.63418 0.90452 0.0
C1463 C 0.76327 0.63859 0.93914 0.0
C1464 C 0.73331 0.62567 0.78066 0.0
C1465 C 0.75458 0.62602 0.84611 0.0
C1466 C 0.72888 0.63002 0.73196 0.0
C1467 C 0.74044 0.63322 0.69568 0.0
C1468 C 0.74938 0.62473 0.79298 0.0
C1469 C 0.75619 0.62992 0.70762 0.0
C1470 C 0.77062 0.62781 0.85796 0.0
C1471 C 0.74757 0.63474 0.92834 0.0
N1472 N 0.76025 0.62627 0.75562 0.0
N1473 N 0.74364 0.62902 0.88233 0.0
H1474 H 0.61539 0.48205 0.23212 0.0
H1475 H 0.6295 0.50384 0.94746 0.0
H1476 H 0.62182 0.52903 0.17411 0.0
H1477 H 0.61238 0.45898 -0.0006 0.0
H1478 H 0.63749 0.51027 0.03329 0.0
H1479 H 0.62452 0.47143 0.1519 0.0
C1480 C 0.619 0.49016 0.20287 0.0
C1481 C 0.61732 0.50648 0.20919 0.0
C1482 C 0.63239 0.49884 0.02579 0.0
C1483 C 0.62781 0.49433 0.11747 0.0
C1484 C 0.62786 0.49515 0.97682 0.0
C1485 C 0.61984 0.48107 0.96691 0.0
C1486 C 0.6286 0.48849 0.06505 0.0
C1487 C 0.6183 0.47007 0.00581 0.0
C1488 C 0.62426 0.48405 0.15714 0.0
C1489 C 0.62255 0.51638 0.17045 0.0
N1490 N 0.62223 0.4742 0.05369 0.0
N1491 N 0.62727 0.51013 0.1258 0.0
H1492 H 0.76916 0.36661 0.46849 0.0
H1493 H 0.75019 0.37886 0.17867 0.0
H1494 H 0.72239 0.37081 0.40631 0.0
H1495 H 0.79431 0.3611 0.23544 0.0
H1496 H 0.74223 0.38526 0.26452 0.0
H1497 H 0.78014 0.37359 0.3867 0.0
C1498 C 0.76116 0.36923 0.43786 0.0
C1499 C 0.7448 0.36769 0.44388 0.0
C1500 C 0.75378 0.38027 0.25812 0.0
C1501 C 0.75739 0.37576 0.35031 0.0
C1502 C 0.75836 0.37661 0.20916 0.0
C1503 C 0.77275 0.36899 0.20019 0.0
C1504 C 0.76362 0.37621 0.29836 0.0
C1505 C 0.78301 0.36673 0.24084 0.0
C1506 C 0.76748 0.37325 0.39122 0.0
C1507 C 0.73506 0.37157 0.40313 0.0
N1508 N 0.7781 0.37001 0.28848 0.0
N1509 N 0.74153 0.37519 0.35775 0.0
H1510 H 0.87509 0.5027 0.71414 0.0
H1511 H 0.87673 0.48258 0.4223 0.0
H1512 H 0.88701 0.45717 0.65305 0.0
H1513 H 0.87874 0.52956 0.48382 0.0
H1514 H 0.87127 0.47239 0.50629 0.0
H1515 H 0.86714 0.51129 0.6304 0.0
C1516 C 0.87578 0.49439 0.68323 0.0
C1517 C 0.88217 0.47932 0.69022 0.0
C1518 C 0.87262 0.48495 0.50123 0.0
C1519 C 0.8731 0.48915 0.5944 0.0
C1520 C 0.87575 0.49082 0.45332 0.0
C1521 C 0.87866 0.50693 0.4463 0.0
C1522 C 0.87238 0.49527 0.54239 0.0
C1523 C 0.87687 0.51704 0.48766 0.0
C1524 C 0.87122 0.49933 0.63548 0.0
C1525 C 0.8824 0.46896 0.64913 0.0
N1526 N 0.87411 0.51099 0.53423 0.0
N1527 N 0.87822 0.47418 0.6026 0.0
H1528 H 0.2606 0.36614 0.15792 0.0
H1529 H 0.23932 0.37644 0.44577 0.0
H1530 H 0.2136 0.36397 0.21939 0.0
H1531 H 0.28575 0.36605 0.38886 0.0
H1532 H 0.2307 0.38236 0.36027 0.0
H1533 H 0.27011 0.37625 0.23823 0.0
C1534 C 0.25221 0.36803 0.18808 0.0
C1535 C 0.23635 0.3637 0.18257 0.0
C1536 C 0.24287 0.37916 0.36663 0.0
C1537 C 0.24723 0.37529 0.27444 0.0
C1538 C 0.24782 0.37577 0.41539 0.0
C1539 C 0.26314 0.3702 0.42404 0.0
C1540 C 0.25328 0.37686 0.32635 0.0
C1541 C 0.27375 0.36998 0.38365 0.0
C1542 C 0.25767 0.37386 0.23384 0.0
C1543 C 0.22597 0.36683 0.22239 0.0
N1544 N 0.26851 0.37288 0.33618 0.0
N1545 N 0.23167 0.37215 0.26713 0.0
H1546 H 0.38138 0.51262 0.91948 0.0
H1547 H 0.37506 0.49102 0.207 0.0
H1548 H 0.38237 0.46555 0.98014 0.0
H1549 H 0.38655 0.537 0.14924 0.0
H1550 H 0.36634 0.48315 0.12318 0.0
H1551 H 0.37212 0.52237 0.00063 0.0
C1552 C 0.37936 0.50427 0.94959 0.0
C1553 C 0.38323 0.48831 0.94371 0.0
C1554 C 0.37037 0.49509 0.12908 0.0
C1555 C 0.37264 0.49946 0.03647 0.0
C1556 C 0.37537 0.4996 0.17686 0.0
C1557 C 0.38207 0.5145 0.18444 0.0
C1558 C 0.37228 0.5055 0.08865 0.0
C1559 C 0.38178 0.52529 0.14464 0.0
C1560 C 0.37401 0.50987 -0.00417 0.0
C1561 C 0.37991 0.478 0.98344 0.0
N1562 N 0.37736 0.52044 0.09792 0.0
N1563 N 0.37514 0.48381 0.02865 0.0
H1564 H 0.2096 0.65098 0.91646 0.0
H1565 H 0.28498 0.6473 0.73571 0.0
H1566 H 0.25759 0.65046 0.96998 0.0
H1567 H 0.23701 0.64564 0.68225 0.0
H1568 H 0.27514 0.64672 0.8224 0.0
H1569 H 0.21937 0.6474 0.83036 0.0
C1570 C 0.22215 0.65004 0.91019 0.0
C1571 C 0.23277 0.65117 0.95046 0.0
C1572 C 0.26679 0.64638 0.79162 0.0
C1573 C 0.24403 0.6471 0.85229 0.0
C1574 C 0.27241 0.64669 0.74215 0.0
C1575 C 0.26182 0.64668 0.70165 0.0
C1576 C 0.25047 0.6461 0.80054 0.0
C1577 C 0.24563 0.64583 0.71225 0.0
C1578 C 0.22773 0.64799 0.86107 0.0
C1579 C 0.24893 0.6498 0.94012 0.0
N1580 N 0.24047 0.64568 0.76061 0.0
N1581 N 0.25406 0.64793 0.89209 0.0
H1582 H 0.116 0.49323 0.42116 0.0
H1583 H 0.12019 0.51439 0.71161 0.0
H1584 H 0.10834 0.53966 0.48237 0.0
H1585 H 0.11428 0.46745 0.65244 0.0
H1586 H 0.12552 0.52386 0.62665 0.0
H1587 H 0.1249 0.48438 0.5036 0.0
C1588 C 0.11641 0.50165 0.45179 0.0
C1589 C 0.11095 0.5171 0.44535 0.0
C1590 C 0.12337 0.51144 0.63243 0.0
C1591 C 0.12115 0.50699 0.53967 0.0
C1592 C 0.12031 0.50599 0.68088 0.0
C1593 C 0.11627 0.49017 0.68884 0.0
C1594 C 0.12236 0.501 0.59171 0.0
C1595 C 0.11702 0.47979 0.64786 0.0
C1596 C 0.12154 0.49657 0.49878 0.0
C1597 C 0.11217 0.52758 0.48595 0.0
N1598 N 0.11967 0.48545 0.60076 0.0
N1599 N 0.11687 0.52224 0.53181 0.0
loop_
_geom_bond_atom_site_label_1
_geom_bond_atom_site_label_2
_geom_bond_distance
_geom_bond_site_symmetry_2
_ccdc_geom_bond_type
C0 O1 1.306 . S
C0 O3 1.160 . S
O1 C0 1.306 . S
O1 Cd2 2.228 . S
Cd2 O1 2.228 . S
Cd2 O6 2.273 . S
Cd2 O10 2.277 . S
O3 C0 1.160 . S
O3 Cd4 2.203 . S
Cd4 O3 2.203 . S
Cd4 O6 2.411 . S
Cd4 O7 2.333 1_554 S
Cd4 O8 2.352 . S
Cd4 O12 2.277 . S
Cd4 O13 2.356 . S
C5 O10 1.209 . S
C5 O12 1.226 . S
O6 Cd2 2.273 . S
O6 Cd4 2.411 . S
O6 C9 1.320 1_554 S
O7 Cd4 2.333 1_556 S
O7 C9 1.214 . S
O8 Cd4 2.352 . S
O8 C11 1.258 . S
C9 O6 1.320 1_556 S
C9 O7 1.214 . S
O10 Cd2 2.277 . S
O10 C5 1.209 . S
C11 O8 1.258 . S
C11 O13 1.282 . S
O12 Cd4 2.277 . S
O12 C5 1.226 . S
O13 Cd4 2.356 . S
O13 C11 1.282 . S
C14 O15 1.306 . S
C14 O17 1.160 . S
O15 C14 1.306 . S
O15 Cd16 2.228 1_565 S
Cd16 O15 2.228 1_545 S
Cd16 O20 2.273 1_545 S
Cd16 O24 2.277 1_545 S
O17 C14 1.160 . S
O17 Cd18 2.203 . S
Cd18 O17 2.203 . S
Cd18 O20 2.411 . S
Cd18 O21 2.333 . S
Cd18 O22 2.352 . S
Cd18 O26 2.277 . S
Cd18 O27 2.356 . S
C19 O24 1.209 . S
C19 O26 1.226 . S
O20 Cd16 2.273 1_565 S
O20 Cd18 2.411 . S
O20 C23 1.320 . S
O21 Cd18 2.333 . S
O21 C23 1.214 . S
O22 Cd18 2.352 . S
O22 C25 1.258 . S
C23 O20 1.320 . S
C23 O21 1.214 . S
O24 Cd16 2.277 1_565 S
O24 C19 1.209 . S
C25 O22 1.258 . S
C25 O27 1.282 . S
O26 Cd18 2.277 . S
O26 C19 1.226 . S
O27 Cd18 2.356 . S
O27 C25 1.282 . S
C28 O29 1.306 . S
C28 O31 1.160 . S
O29 C28 1.306 . S
O29 Cd30 2.228 . S
Cd30 O29 2.228 . S
Cd30 O34 2.273 . S
Cd30 O38 2.277 . S
O31 C28 1.160 . S
O31 Cd32 2.203 . S
Cd32 O31 2.203 . S
Cd32 O34 2.411 . S
Cd32 O35 2.333 . S
Cd32 O36 2.352 . S
Cd32 O40 2.277 . S
Cd32 O41 2.356 . S
C33 O38 1.209 . S
C33 O40 1.226 . S
O34 Cd30 2.273 . S
O34 Cd32 2.411 . S
O34 C37 1.320 . S
O35 Cd32 2.333 . S
O35 C37 1.214 . S
O36 Cd32 2.352 . S
O36 C39 1.258 . S
C37 O34 1.320 . S
C37 O35 1.214 . S
O38 Cd30 2.277 . S
O38 C33 1.209 . S
C39 O36 1.258 . S
C39 O41 1.282 . S
O40 Cd32 2.277 . S
O40 C33 1.226 . S
O41 Cd32 2.356 . S
O41 C39 1.282 . S
C42 O43 1.306 . S
C42 O45 1.160 . S
O43 C42 1.306 . S
O43 Cd44 2.228 . S
Cd44 O43 2.228 . S
Cd44 O48 2.273 . S
Cd44 O52 2.277 . S
O45 C42 1.160 . S
O45 Cd46 2.203 . S
Cd46 O45 2.203 . S
Cd46 O48 2.411 . S
Cd46 O49 2.333 . S
Cd46 O50 2.352 . S
Cd46 O54 2.277 . S
Cd46 O55 2.356 . S
C47 O52 1.209 . S
C47 O54 1.226 . S
O48 Cd44 2.273 . S
O48 Cd46 2.411 . S
O48 C51 1.320 . S
O49 Cd46 2.333 . S
O49 C51 1.214 . S
O50 Cd46 2.352 . S
O50 C53 1.258 . S
C51 O48 1.320 . S
C51 O49 1.214 . S
O52 Cd44 2.277 . S
O52 C47 1.209 . S
C53 O50 1.258 . S
C53 O55 1.282 . S
O54 Cd46 2.277 . S
O54 C47 1.226 . S
O55 Cd46 2.356 . S
O55 C53 1.282 . S
C56 O57 1.306 . S
C56 O59 1.160 . S
O57 C56 1.306 . S
O57 Cd58 2.228 . S
Cd58 O57 2.228 . S
Cd58 O62 2.273 . S
Cd58 O66 2.277 . S
O59 C56 1.160 . S
O59 Cd60 2.203 . S
Cd60 O59 2.203 . S
Cd60 O62 2.411 . S
Cd60 O63 2.333 . S
Cd60 O64 2.352 . S
Cd60 O68 2.277 . S
Cd60 O69 2.356 . S
C61 O66 1.209 . S
C61 O68 1.226 . S
O62 Cd58 2.273 . S
O62 Cd60 2.411 . S
O62 C65 1.320 . S
O63 Cd60 2.333 . S
O63 C65 1.214 . S
O64 Cd60 2.352 . S
O64 C67 1.258 . S
C65 O62 1.320 . S
C65 O63 1.214 . S
O66 Cd58 2.277 . S
O66 C61 1.209 . S
C67 O64 1.258 . S
C67 O69 1.282 . S
O68 Cd60 2.277 . S
O68 C61 1.226 . S
O69 Cd60 2.356 . S
O69 C67 1.282 . S
C70 O71 1.306 . S
C70 O73 1.160 . S
O71 C70 1.306 . S
O71 Cd72 2.228 1_565 S
Cd72 O71 2.228 1_545 S
Cd72 O76 2.273 1_545 S
Cd72 O80 2.277 1_545 S
O73 C70 1.160 . S
O73 Cd74 2.203 . S
Cd74 O73 2.203 . S
Cd74 O76 2.411 . S
Cd74 O77 2.333 . S
Cd74 O78 2.352 . S
Cd74 O82 2.277 . S
Cd74 O83 2.356 . S
C75 O80 1.209 . S
C75 O82 1.226 . S
O76 Cd72 2.273 1_565 S
O76 Cd74 2.411 . S
O76 C79 1.320 . S
O77 Cd74 2.333 . S
O77 C79 1.214 . S
O78 Cd74 2.352 . S
O78 C81 1.258 . S
C79 O76 1.320 . S
C79 O77 1.214 . S
O80 Cd72 2.277 1_565 S
O80 C75 1.209 . S
C81 O78 1.258 . S
C81 O83 1.282 . S
O82 Cd74 2.277 . S
O82 C75 1.226 . S
O83 Cd74 2.356 . S
O83 C81 1.282 . S
C84 O85 1.306 . S
C84 O87 1.160 . S
O85 C84 1.306 . S
O85 Cd86 2.228 . S
Cd86 O85 2.228 . S
Cd86 O90 2.273 . S
Cd86 O94 2.277 . S
O87 C84 1.160 . S
O87 Cd88 2.203 . S
Cd88 O87 2.203 . S
Cd88 O90 2.411 . S
Cd88 O91 2.333 . S
Cd88 O92 2.352 . S
Cd88 O96 2.277 . S
Cd88 O97 2.356 . S
C89 O94 1.209 . S
C89 O96 1.226 . S
O90 Cd86 2.273 . S
O90 Cd88 2.411 . S
O90 C93 1.320 . S
O91 Cd88 2.333 . S
O91 C93 1.214 . S
O92 Cd88 2.352 . S
O92 C95 1.258 . S
C93 O90 1.320 . S
C93 O91 1.214 . S
O94 Cd86 2.277 . S
O94 C89 1.209 . S
C95 O92 1.258 . S
C95 O97 1.282 . S
O96 Cd88 2.277 . S
O96 C89 1.226 . S
O97 Cd88 2.356 . S
O97 C95 1.282 . S
C98 O99 1.306 . S
C98 O101 1.160 . S
O99 C98 1.306 . S
O99 Cd100 2.228 . S
Cd100 O99 2.228 . S
Cd100 O104 2.273 . S
Cd100 O108 2.277 . S
O101 C98 1.160 . S
O101 Cd102 2.203 . S
Cd102 O101 2.203 . S
Cd102 O104 2.411 . S
Cd102 O105 2.333 . S
Cd102 O106 2.352 . S
Cd102 O110 2.277 . S
Cd102 O111 2.356 . S
C103 O108 1.209 . S
C103 O110 1.226 . S
O104 Cd100 2.273 . S
O104 Cd102 2.411 . S
O104 C107 1.320 . S
O105 Cd102 2.333 . S
O105 C107 1.214 . S
O106 Cd102 2.352 . S
O106 C109 1.258 . S
C107 O104 1.320 . S
C107 O105 1.214 . S
O108 Cd100 2.277 . S
O108 C103 1.209 . S
C109 O106 1.258 . S
C109 O111 1.282 . S
O110 Cd102 2.277 . S
O110 C103 1.226 . S
O111 Cd102 2.356 . S
O111 C109 1.282 . S
C112 O113 1.306 . S
C112 O115 1.160 . S
O113 C112 1.306 . S
O113 Cd114 2.228 . S
Cd114 O113 2.228 . S
Cd114 O118 2.273 . S
Cd114 O122 2.277 . S
O115 C112 1.160 . S
O115 Cd116 2.203 . S
Cd116 O115 2.203 . S
Cd116 O118 2.411 . S
Cd116 O119 2.333 . S
Cd116 O120 2.352 . S
Cd116 O124 2.277 . S
Cd116 O125 2.356 . S
C117 O122 1.209 . S
C117 O124 1.226 . S
O118 Cd114 2.273 . S
O118 Cd116 2.411 . S
O118 C121 1.320 . S
O119 Cd116 2.333 . S
O119 C121 1.214 . S
O120 Cd116 2.352 . S
O120 C123 1.258 . S
C121 O118 1.320 . S
C121 O119 1.214 . S
O122 Cd114 2.277 . S
O122 C117 1.209 . S
C123 O120 1.258 . S
C123 O125 1.282 . S
O124 Cd116 2.277 . S
O124 C117 1.226 . S
O125 Cd116 2.356 . S
O125 C123 1.282 . S
C126 O127 1.306 . S
C126 O129 1.160 . S
O127 C126 1.306 . S
O127 Cd128 2.228 . S
Cd128 O127 2.228 . S
Cd128 O132 2.273 . S
Cd128 O136 2.277 . S
O129 C126 1.160 . S
O129 Cd130 2.203 . S
Cd130 O129 2.203 . S
Cd130 O132 2.411 . S
Cd130 O133 2.333 . S
Cd130 O134 2.352 . S
Cd130 O138 2.277 . S
Cd130 O139 2.356 . S
C131 O136 1.209 . S
C131 O138 1.226 . S
O132 Cd128 2.273 . S
O132 Cd130 2.411 . S
O132 C135 1.320 . S
O133 Cd130 2.333 . S
O133 C135 1.214 . S
O134 Cd130 2.352 . S
O134 C137 1.258 . S
C135 O132 1.320 . S
C135 O133 1.214 . S
O136 Cd128 2.277 . S
O136 C131 1.209 . S
C137 O134 1.258 . S
C137 O139 1.282 . S
O138 Cd130 2.277 . S
O138 C131 1.226 . S
O139 Cd130 2.356 . S
O139 C137 1.282 . S
C140 O141 1.306 . S
C140 O143 1.160 . S
O141 C140 1.306 . S
O141 Cd142 2.228 . S
Cd142 O141 2.228 . S
Cd142 O146 2.273 . S
Cd142 O150 2.277 . S
O143 C140 1.160 . S
O143 Cd144 2.203 . S
Cd144 O143 2.203 . S
Cd144 O146 2.411 . S
Cd144 O147 2.333 . S
Cd144 O148 2.352 . S
Cd144 O152 2.277 . S
Cd144 O153 2.356 . S
C145 O150 1.209 . S
C145 O152 1.226 . S
O146 Cd142 2.273 . S
O146 Cd144 2.411 . S
O146 C149 1.320 . S
O147 Cd144 2.333 . S
O147 C149 1.214 . S
O148 Cd144 2.352 . S
O148 C151 1.258 . S
C149 O146 1.320 . S
C149 O147 1.214 . S
O150 Cd142 2.277 . S
O150 C145 1.209 . S
C151 O148 1.258 . S
C151 O153 1.282 . S
O152 Cd144 2.277 . S
O152 C145 1.226 . S
O153 Cd144 2.356 . S
O153 C151 1.282 . S
C154 O155 1.306 . S
C154 O157 1.160 . S
O155 C154 1.306 . S
O155 Cd156 2.228 1_565 S
Cd156 O155 2.228 1_545 S
Cd156 O160 2.273 1_545 S
Cd156 O164 2.277 1_545 S
O157 C154 1.160 . S
O157 Cd158 2.203 . S
Cd158 O157 2.203 . S
Cd158 O160 2.411 . S
Cd158 O161 2.333 . S
Cd158 O162 2.352 . S
Cd158 O166 2.277 . S
Cd158 O167 2.356 . S
C159 O164 1.209 . S
C159 O166 1.226 . S
O160 Cd156 2.273 1_565 S
O160 Cd158 2.411 . S
O160 C163 1.320 . S
O161 Cd158 2.333 . S
O161 C163 1.214 . S
O162 Cd158 2.352 . S
O162 C165 1.258 . S
C163 O160 1.320 . S
C163 O161 1.214 . S
O164 Cd156 2.277 1_565 S
O164 C159 1.209 . S
C165 O162 1.258 . S
C165 O167 1.282 . S
O166 Cd158 2.277 . S
O166 C159 1.226 . S
O167 Cd158 2.356 . S
O167 C165 1.282 . S
C168 O169 1.306 . S
C168 O171 1.160 . S
O169 C168 1.306 . S
O169 Cd170 2.228 . S
Cd170 O169 2.228 . S
Cd170 O174 2.273 . S
Cd170 O178 2.277 . S
O171 C168 1.160 . S
O171 Cd172 2.203 . S
Cd172 O171 2.203 . S
Cd172 O174 2.411 . S
Cd172 O175 2.333 1_554 S
Cd172 O176 2.352 . S
Cd172 O180 2.277 . S
Cd172 O181 2.356 . S
C173 O178 1.209 . S
C173 O180 1.226 . S
O174 Cd170 2.273 . S
O174 Cd172 2.411 . S
O174 C177 1.320 1_554 S
O175 Cd172 2.333 1_556 S
O175 C177 1.214 . S
O176 Cd172 2.352 . S
O176 C179 1.258 . S
C177 O174 1.320 1_556 S
C177 O175 1.214 . S
O178 Cd170 2.277 . S
O178 C173 1.209 . S
C179 O176 1.258 . S
C179 O181 1.282 . S
O180 Cd172 2.277 . S
O180 C173 1.226 . S
O181 Cd172 2.356 . S
O181 C179 1.282 . S
C182 O183 1.306 . S
C182 O185 1.160 . S
O183 C182 1.306 . S
O183 Cd184 2.228 . S
Cd184 O183 2.228 . S
Cd184 O188 2.273 . S
Cd184 O192 2.277 . S
O185 C182 1.160 . S
O185 Cd186 2.203 . S
Cd186 O185 2.203 . S
Cd186 O188 2.411 . S
Cd186 O189 2.333 . S
Cd186 O190 2.352 . S
Cd186 O194 2.277 . S
Cd186 O195 2.356 . S
C187 O192 1.209 . S
C187 O194 1.226 . S
O188 Cd184 2.273 . S
O188 Cd186 2.411 . S
O188 C191 1.320 . S
O189 Cd186 2.333 . S
O189 C191 1.214 . S
O190 Cd186 2.352 . S
O190 C193 1.258 . S
C191 O188 1.320 . S
C191 O189 1.214 . S
O192 Cd184 2.277 . S
O192 C187 1.209 . S
C193 O190 1.258 . S
C193 O195 1.282 . S
O194 Cd186 2.277 . S
O194 C187 1.226 . S
O195 Cd186 2.356 . S
O195 C193 1.282 . S
C196 O197 1.306 . S
C196 O199 1.160 . S
O197 C196 1.306 . S
O197 Cd198 2.228 . S
Cd198 O197 2.228 . S
Cd198 O202 2.273 . S
Cd198 O206 2.277 . S
O199 C196 1.160 . S
O199 Cd200 2.203 . S
Cd200 O199 2.203 . S
Cd200 O202 2.411 . S
Cd200 O203 2.333 . S
Cd200 O204 2.352 . S
Cd200 O208 2.277 . S
Cd200 O209 2.356 . S
C201 O206 1.209 . S
C201 O208 1.226 . S
O202 Cd198 2.273 . S
O202 Cd200 2.411 . S
O202 C205 1.320 . S
O203 Cd200 2.333 . S
O203 C205 1.214 . S
O204 Cd200 2.352 . S
O204 C207 1.258 . S
C205 O202 1.320 . S
C205 O203 1.214 . S
O206 Cd198 2.277 . S
O206 C201 1.209 . S
C207 O204 1.258 . S
C207 O209 1.282 . S
O208 Cd200 2.277 . S
O208 C201 1.226 . S
O209 Cd200 2.356 . S
O209 C207 1.282 . S
C210 O211 1.306 . S
C210 O213 1.160 . S
O211 C210 1.306 . S
O211 Cd212 2.228 1_565 S
Cd212 O211 2.228 1_545 S
Cd212 O216 2.273 1_545 S
Cd212 O220 2.277 1_545 S
O213 C210 1.160 . S
O213 Cd214 2.203 . S
Cd214 O213 2.203 . S
Cd214 O216 2.411 . S
Cd214 O217 2.333 . S
Cd214 O218 2.352 . S
Cd214 O222 2.277 . S
Cd214 O223 2.356 . S
C215 O220 1.209 . S
C215 O222 1.226 . S
O216 Cd212 2.273 1_565 S
O216 Cd214 2.411 . S
O216 C219 1.320 . S
O217 Cd214 2.333 . S
O217 C219 1.214 . S
O218 Cd214 2.352 . S
O218 C221 1.258 . S
C219 O216 1.320 . S
C219 O217 1.214 . S
O220 Cd212 2.277 1_565 S
O220 C215 1.209 . S
C221 O218 1.258 . S
C221 O223 1.282 . S
O222 Cd214 2.277 . S
O222 C215 1.226 . S
O223 Cd214 2.356 . S
O223 C221 1.282 . S
C224 O225 1.306 . S
C224 O227 1.160 . S
O225 C224 1.306 . S
O225 Cd226 2.228 . S
Cd226 O225 2.228 . S
Cd226 O230 2.273 . S
Cd226 O234 2.277 . S
O227 C224 1.160 . S
O227 Cd228 2.203 . S
Cd228 O227 2.203 . S
Cd228 O230 2.411 . S
Cd228 O231 2.333 . S
Cd228 O232 2.352 . S
Cd228 O236 2.277 . S
Cd228 O237 2.356 . S
C229 O234 1.209 . S
C229 O236 1.226 . S
O230 Cd226 2.273 . S
O230 Cd228 2.411 . S
O230 C233 1.320 . S
O231 Cd228 2.333 . S
O231 C233 1.214 . S
O232 Cd228 2.352 . S
O232 C235 1.258 . S
C233 O230 1.320 . S
C233 O231 1.214 . S
O234 Cd226 2.277 . S
O234 C229 1.209 . S
C235 O232 1.258 . S
C235 O237 1.282 . S
O236 Cd228 2.277 . S
O236 C229 1.226 . S
O237 Cd228 2.356 . S
O237 C235 1.282 . S
C238 O239 1.306 . S
C238 O241 1.160 . S
O239 C238 1.306 . S
O239 Cd240 2.228 . S
Cd240 O239 2.228 . S
Cd240 O244 2.273 . S
Cd240 O248 2.277 . S
O241 C238 1.160 . S
O241 Cd242 2.203 . S
Cd242 O241 2.203 . S
Cd242 O244 2.411 . S
Cd242 O245 2.333 . S
Cd242 O246 2.352 . S
Cd242 O250 2.277 . S
Cd242 O251 2.356 . S
C243 O248 1.209 . S
C243 O250 1.226 . S
O244 Cd240 2.273 . S
O244 Cd242 2.411 . S
O244 C247 1.320 . S
O245 Cd242 2.333 . S
O245 C247 1.214 . S
O246 Cd242 2.352 . S
O246 C249 1.258 . S
C247 O244 1.320 . S
C247 O245 1.214 . S
O248 Cd240 2.277 . S
O248 C243 1.209 . S
C249 O246 1.258 . S
C249 O251 1.282 . S
O250 Cd242 2.277 . S
O250 C243 1.226 . S
O251 Cd242 2.356 . S
O251 C249 1.282 . S
C252 O253 1.306 . S
C252 O255 1.160 . S
O253 C252 1.306 . S
O253 Cd254 2.228 . S
Cd254 O253 2.228 . S
Cd254 O258 2.273 . S
Cd254 O262 2.277 . S
O255 C252 1.160 . S
O255 Cd256 2.203 . S
Cd256 O255 2.203 . S
Cd256 O258 2.411 . S
Cd256 O259 2.333 1_554 S
Cd256 O260 2.352 . S
Cd256 O264 2.277 . S
Cd256 O265 2.356 . S
C257 O262 1.209 . S
C257 O264 1.226 . S
O258 Cd254 2.273 . S
O258 Cd256 2.411 . S
O258 C261 1.320 1_554 S
O259 Cd256 2.333 1_556 S
O259 C261 1.214 . S
O260 Cd256 2.352 . S
O260 C263 1.258 . S
C261 O258 1.320 1_556 S
C261 O259 1.214 . S
O262 Cd254 2.277 . S
O262 C257 1.209 . S
C263 O260 1.258 . S
C263 O265 1.282 . S
O264 Cd256 2.277 . S
O264 C257 1.226 . S
O265 Cd256 2.356 . S
O265 C263 1.282 . S
C266 O267 1.306 . S
C266 O269 1.160 . S
O267 C266 1.306 . S
O267 Cd268 2.228 . S
Cd268 O267 2.228 . S
Cd268 O272 2.273 . S
Cd268 O276 2.277 . S
O269 C266 1.160 . S
O269 Cd270 2.203 . S
Cd270 O269 2.203 . S
Cd270 O272 2.411 . S
Cd270 O273 2.333 . S
Cd270 O274 2.352 . S
Cd270 O278 2.277 . S
Cd270 O279 2.356 . S
C271 O276 1.209 . S
C271 O278 1.226 . S
O272 Cd268 2.273 . S
O272 Cd270 2.411 . S
O272 C275 1.320 . S
O273 Cd270 2.333 . S
O273 C275 1.214 . S
O274 Cd270 2.352 . S
O274 C277 1.258 . S
C275 O272 1.320 . S
C275 O273 1.214 . S
O276 Cd268 2.277 . S
O276 C271 1.209 . S
C277 O274 1.258 . S
C277 O279 1.282 . S
O278 Cd270 2.277 . S
O278 C271 1.226 . S
O279 Cd270 2.356 . S
O279 C277 1.282 . S
C280 O281 1.306 . S
C280 O283 1.160 . S
O281 C280 1.306 . S
O281 Cd282 2.228 . S
Cd282 O281 2.228 . S
Cd282 O286 2.273 . S
Cd282 O290 2.277 . S
O283 C280 1.160 . S
O283 Cd284 2.203 . S
Cd284 O283 2.203 . S
Cd284 O286 2.411 . S
Cd284 O287 2.333 . S
Cd284 O288 2.352 . S
Cd284 O292 2.277 . S
Cd284 O293 2.356 . S
C285 O290 1.209 . S
C285 O292 1.226 . S
O286 Cd282 2.273 . S
O286 Cd284 2.411 . S
O286 C289 1.320 . S
O287 Cd284 2.333 . S
O287 C289 1.214 . S
O288 Cd284 2.352 . S
O288 C291 1.258 . S
C289 O286 1.320 . S
C289 O287 1.214 . S
O290 Cd282 2.277 . S
O290 C285 1.209 . S
C291 O288 1.258 . S
C291 O293 1.282 . S
O292 Cd284 2.277 . S
O292 C285 1.226 . S
O293 Cd284 2.356 . S
O293 C291 1.282 . S
C294 O295 1.306 . S
C294 O297 1.160 . S
O295 C294 1.306 . S
O295 Cd296 2.228 . S
Cd296 O295 2.228 . S
Cd296 O300 2.273 . S
Cd296 O304 2.277 . S
O297 C294 1.160 . S
O297 Cd298 2.203 . S
Cd298 O297 2.203 . S
Cd298 O300 2.411 . S
Cd298 O301 2.333 . S
Cd298 O302 2.352 . S
Cd298 O306 2.277 . S
Cd298 O307 2.356 . S
C299 O304 1.209 . S
C299 O306 1.226 . S
O300 Cd296 2.273 . S
O300 Cd298 2.411 . S
O300 C303 1.320 . S
O301 Cd298 2.333 . S
O301 C303 1.214 . S
O302 Cd298 2.352 . S
O302 C305 1.258 . S
C303 O300 1.320 . S
C303 O301 1.214 . S
O304 Cd296 2.277 . S
O304 C299 1.209 . S
C305 O302 1.258 . S
C305 O307 1.282 . S
O306 Cd298 2.277 . S
O306 C299 1.226 . S
O307 Cd298 2.356 . S
O307 C305 1.282 . S
C308 O309 1.306 . S
C308 O311 1.160 . S
O309 C308 1.306 . S
O309 Cd310 2.228 . S
Cd310 O309 2.228 . S
Cd310 O314 2.273 . S
Cd310 O318 2.277 . S
O311 C308 1.160 . S
O311 Cd312 2.203 . S
Cd312 O311 2.203 . S
Cd312 O314 2.411 . S
Cd312 O315 2.333 . S
Cd312 O316 2.352 . S
Cd312 O320 2.277 . S
Cd312 O321 2.356 . S
C313 O318 1.209 . S
C313 O320 1.226 . S
O314 Cd310 2.273 . S
O314 Cd312 2.411 . S
O314 C317 1.320 . S
O315 Cd312 2.333 . S
O315 C317 1.214 . S
O316 Cd312 2.352 . S
O316 C319 1.258 . S
C317 O314 1.320 . S
C317 O315 1.214 . S
O318 Cd310 2.277 . S
O318 C313 1.209 . S
C319 O316 1.258 . S
C319 O321 1.282 . S
O320 Cd312 2.277 . S
O320 C313 1.226 . S
O321 Cd312 2.356 . S
O321 C319 1.282 . S
C322 O323 1.306 . S
C322 O325 1.160 . S
O323 C322 1.306 . S
O323 Cd324 2.228 . S
Cd324 O323 2.228 . S
Cd324 O328 2.273 . S
Cd324 O332 2.277 . S
O325 C322 1.160 . S
O325 Cd326 2.203 . S
Cd326 O325 2.203 . S
Cd326 O328 2.411 . S
Cd326 O329 2.333 . S
Cd326 O330 2.352 . S
Cd326 O334 2.277 . S
Cd326 O335 2.356 . S
C327 O332 1.209 . S
C327 O334 1.226 . S
O328 Cd324 2.273 . S
O328 Cd326 2.411 . S
O328 C331 1.320 . S
O329 Cd326 2.333 . S
O329 C331 1.214 . S
O330 Cd326 2.352 . S
O330 C333 1.258 . S
C331 O328 1.320 . S
C331 O329 1.214 . S
O332 Cd324 2.277 . S
O332 C327 1.209 . S
C333 O330 1.258 . S
C333 O335 1.282 . S
O334 Cd326 2.277 . S
O334 C327 1.226 . S
O335 Cd326 2.356 . S
O335 C333 1.282 . S
C336 O337 1.306 . S
C336 O339 1.160 . S
O337 C336 1.306 . S
O337 Cd338 2.228 . S
Cd338 O337 2.228 . S
Cd338 O342 2.273 . S
Cd338 O346 2.277 . S
O339 C336 1.160 . S
O339 Cd340 2.203 . S
Cd340 O339 2.203 . S
Cd340 O342 2.411 . S
Cd340 O343 2.333 . S
Cd340 O344 2.352 . S
Cd340 O348 2.277 . S
Cd340 O349 2.356 . S
C341 O346 1.209 . S
C341 O348 1.226 . S
O342 Cd338 2.273 . S
O342 Cd340 2.411 . S
O342 C345 1.320 . S
O343 Cd340 2.333 . S
O343 C345 1.214 . S
O344 Cd340 2.352 . S
O344 C347 1.258 . S
C345 O342 1.320 . S
C345 O343 1.214 . S
O346 Cd338 2.277 . S
O346 C341 1.209 . S
C347 O344 1.258 . S
C347 O349 1.282 . S
O348 Cd340 2.277 . S
O348 C341 1.226 . S
O349 Cd340 2.356 . S
O349 C347 1.282 . S
C350 O351 1.306 . S
C350 O353 1.160 . S
O351 C350 1.306 . S
O351 Cd352 2.228 . S
Cd352 O351 2.228 . S
Cd352 O356 2.273 . S
Cd352 O360 2.277 . S
O353 C350 1.160 . S
O353 Cd354 2.203 . S
Cd354 O353 2.203 . S
Cd354 O356 2.411 . S
Cd354 O357 2.333 . S
Cd354 O358 2.352 . S
Cd354 O362 2.277 . S
Cd354 O363 2.356 . S
C355 O360 1.209 . S
C355 O362 1.226 . S
O356 Cd352 2.273 . S
O356 Cd354 2.411 . S
O356 C359 1.320 . S
O357 Cd354 2.333 . S
O357 C359 1.214 . S
O358 Cd354 2.352 . S
O358 C361 1.258 . S
C359 O356 1.320 . S
C359 O357 1.214 . S
O360 Cd352 2.277 . S
O360 C355 1.209 . S
C361 O358 1.258 . S
C361 O363 1.282 . S
O362 Cd354 2.277 . S
O362 C355 1.226 . S
O363 Cd354 2.356 . S
O363 C361 1.282 . S
C364 O365 1.306 . S
C364 O367 1.160 . S
O365 C364 1.306 . S
O365 Cd366 2.228 . S
Cd366 O365 2.228 . S
Cd366 O370 2.273 . S
Cd366 O374 2.277 . S
O367 C364 1.160 . S
O367 Cd368 2.203 . S
Cd368 O367 2.203 . S
Cd368 O370 2.411 . S
Cd368 O371 2.333 . S
Cd368 O372 2.352 . S
Cd368 O376 2.277 . S
Cd368 O377 2.356 . S
C369 O374 1.209 . S
C369 O376 1.226 . S
O370 Cd366 2.273 . S
O370 Cd368 2.411 . S
O370 C373 1.320 . S
O371 Cd368 2.333 . S
O371 C373 1.214 . S
O372 Cd368 2.352 . S
O372 C375 1.258 . S
C373 O370 1.320 . S
C373 O371 1.214 . S
O374 Cd366 2.277 . S
O374 C369 1.209 . S
C375 O372 1.258 . S
C375 O377 1.282 . S
O376 Cd368 2.277 . S
O376 C369 1.226 . S
O377 Cd368 2.356 . S
O377 C375 1.282 . S
C378 O379 1.306 . S
C378 O381 1.160 . S
O379 C378 1.306 . S
O379 Cd380 2.228 . S
Cd380 O379 2.228 . S
Cd380 O384 2.273 . S
Cd380 O388 2.277 . S
O381 C378 1.160 . S
O381 Cd382 2.203 . S
Cd382 O381 2.203 . S
Cd382 O384 2.411 . S
Cd382 O385 2.333 . S
Cd382 O386 2.352 . S
Cd382 O390 2.277 . S
Cd382 O391 2.356 . S
C383 O388 1.209 . S
C383 O390 1.226 . S
O384 Cd380 2.273 . S
O384 Cd382 2.411 . S
O384 C387 1.320 . S
O385 Cd382 2.333 . S
O385 C387 1.214 . S
O386 Cd382 2.352 . S
O386 C389 1.258 . S
C387 O384 1.320 . S
C387 O385 1.214 . S
O388 Cd380 2.277 . S
O388 C383 1.209 . S
C389 O386 1.258 . S
C389 O391 1.282 . S
O390 Cd382 2.277 . S
O390 C383 1.226 . S
O391 Cd382 2.356 . S
O391 C389 1.282 . S
C392 O393 1.306 . S
C392 O395 1.160 . S
O393 C392 1.306 . S
O393 Cd394 2.228 . S
Cd394 O393 2.228 . S
Cd394 O398 2.273 . S
Cd394 O402 2.277 . S
O395 C392 1.160 . S
O395 Cd396 2.203 . S
Cd396 O395 2.203 . S
Cd396 O398 2.411 . S
Cd396 O399 2.333 . S
Cd396 O400 2.352 . S
Cd396 O404 2.277 . S
Cd396 O405 2.356 . S
C397 O402 1.209 . S
C397 O404 1.226 . S
O398 Cd394 2.273 . S
O398 Cd396 2.411 . S
O398 C401 1.320 . S
O399 Cd396 2.333 . S
O399 C401 1.214 . S
O400 Cd396 2.352 . S
O400 C403 1.258 . S
C401 O398 1.320 . S
C401 O399 1.214 . S
O402 Cd394 2.277 . S
O402 C397 1.209 . S
C403 O400 1.258 . S
C403 O405 1.282 . S
O404 Cd396 2.277 . S
O404 C397 1.226 . S
O405 Cd396 2.356 . S
O405 C403 1.282 . S
C406 O407 1.306 . S
C406 O409 1.160 . S
O407 C406 1.306 . S
O407 Cd408 2.228 . S
Cd408 O407 2.228 . S
Cd408 O412 2.273 . S
Cd408 O416 2.277 . S
O409 C406 1.160 . S
O409 Cd410 2.203 . S
Cd410 O409 2.203 . S
Cd410 O412 2.411 . S
Cd410 O413 2.333 . S
Cd410 O414 2.352 . S
Cd410 O418 2.277 . S
Cd410 O419 2.356 . S
C411 O416 1.209 . S
C411 O418 1.226 . S
O412 Cd408 2.273 . S
O412 Cd410 2.411 . S
O412 C415 1.320 . S
O413 Cd410 2.333 . S
O413 C415 1.214 . S
O414 Cd410 2.352 . S
O414 C417 1.258 . S
C415 O412 1.320 . S
C415 O413 1.214 . S
O416 Cd408 2.277 . S
O416 C411 1.209 . S
C417 O414 1.258 . S
C417 O419 1.282 . S
O418 Cd410 2.277 . S
O418 C411 1.226 . S
O419 Cd410 2.356 . S
O419 C417 1.282 . S
C420 O421 1.306 . S
C420 O423 1.160 . S
O421 C420 1.306 . S
O421 Cd422 2.228 . S
Cd422 O421 2.228 . S
Cd422 O426 2.273 . S
Cd422 O430 2.277 . S
O423 C420 1.160 . S
O423 Cd424 2.203 . S
Cd424 O423 2.203 . S
Cd424 O426 2.411 . S
Cd424 O427 2.333 1_554 S
Cd424 O428 2.352 . S
Cd424 O432 2.277 . S
Cd424 O433 2.356 . S
C425 O430 1.209 . S
C425 O432 1.226 . S
O426 Cd422 2.273 . S
O426 Cd424 2.411 . S
O426 C429 1.320 1_554 S
O427 Cd424 2.333 1_556 S
O427 C429 1.214 . S
O428 Cd424 2.352 . S
O428 C431 1.258 . S
C429 O426 1.320 1_556 S
C429 O427 1.214 . S
O430 Cd422 2.277 . S
O430 C425 1.209 . S
C431 O428 1.258 . S
C431 O433 1.282 . S
O432 Cd424 2.277 . S
O432 C425 1.226 . S
O433 Cd424 2.356 . S
O433 C431 1.282 . S
C434 O435 1.306 . S
C434 O437 1.160 . S
O435 C434 1.306 . S
O435 Cd436 2.228 . S
Cd436 O435 2.228 . S
Cd436 O440 2.273 . S
Cd436 O444 2.277 . S
O437 C434 1.160 . S
O437 Cd438 2.203 . S
Cd438 O437 2.203 . S
Cd438 O440 2.411 . S
Cd438 O441 2.333 . S
Cd438 O442 2.352 . S
Cd438 O446 2.277 . S
Cd438 O447 2.356 . S
C439 O444 1.209 . S
C439 O446 1.226 . S
O440 Cd436 2.273 . S
O440 Cd438 2.411 . S
O440 C443 1.320 . S
O441 Cd438 2.333 . S
O441 C443 1.214 . S
O442 Cd438 2.352 . S
O442 C445 1.258 . S
C443 O440 1.320 . S
C443 O441 1.214 . S
O444 Cd436 2.277 . S
O444 C439 1.209 . S
C445 O442 1.258 . S
C445 O447 1.282 . S
O446 Cd438 2.277 . S
O446 C439 1.226 . S
O447 Cd438 2.356 . S
O447 C445 1.282 . S
H448 C454 0.930 . S
H449 C458 0.930 . S
H450 C463 0.929 . S
H451 C461 0.929 . S
H452 C456 0.929 . S
H453 C462 0.929 . S
C454 H448 0.930 . S
C454 C455 1.367 . S
C454 C462 1.378 . S
C455 C454 1.367 . S
C455 C463 1.433 . S
C456 H452 0.929 . S
C456 C458 1.378 . S
C456 C460 1.350 . S
C457 C460 1.463 . S
C457 C462 1.350 . S
C457 N465 1.427 . S
C458 H449 0.930 . S
C458 C456 1.378 . S
C458 C459 1.367 1_556 S
C459 C458 1.367 1_554 S
C459 C461 1.433 . S
C460 C456 1.350 . S
C460 C457 1.463 . S
C460 N464 1.427 1_556 S
C461 H451 0.929 . S
C461 C459 1.433 . S
C461 N464 1.384 . S
C462 H453 0.929 . S
C462 C454 1.378 . S
C462 C457 1.350 . S
C463 H450 0.929 . S
C463 C455 1.433 . S
C463 N465 1.384 . S
N464 C460 1.427 1_554 S
N464 C461 1.384 . S
N465 C457 1.427 . S
N465 C463 1.384 . S
H466 C472 0.930 . S
H467 C476 0.930 . S
H468 C481 0.929 . S
H469 C479 0.929 . S
H470 C474 0.929 . S
H471 C480 0.929 . S
C472 H466 0.930 . S
C472 C473 1.367 . S
C472 C480 1.378 . S
C473 C472 1.367 . S
C473 C481 1.433 . S
C474 H470 0.929 . S
C474 C476 1.378 . S
C474 C478 1.350 . S
C475 C478 1.463 . S
C475 C480 1.350 . S
C475 N483 1.427 . S
C476 H467 0.930 . S
C476 C474 1.378 . S
C476 C477 1.367 . S
C477 C476 1.367 . S
C477 C479 1.433 . S
C478 C474 1.350 . S
C478 C475 1.463 . S
C478 N482 1.427 . S
C479 H469 0.929 . S
C479 C477 1.433 . S
C479 N482 1.384 . S
C480 H471 0.929 . S
C480 C472 1.378 . S
C480 C475 1.350 . S
C481 H468 0.929 . S
C481 C473 1.433 . S
C481 N483 1.384 . S
N482 C478 1.427 . S
N482 C479 1.384 . S
N483 C475 1.427 . S
N483 C481 1.384 . S
H484 C490 0.930 . S
H485 C494 0.930 . S
H486 C499 0.929 . S
H487 C497 0.929 . S
H488 C492 0.929 . S
H489 C498 0.929 . S
C490 H484 0.930 . S
C490 C491 1.367 . S
C490 C498 1.378 . S
C491 C490 1.367 . S
C491 C499 1.433 . S
C492 H488 0.929 . S
C492 C494 1.378 . S
C492 C496 1.350 . S
C493 C496 1.463 . S
C493 C498 1.350 . S
C493 N501 1.427 . S
C494 H485 0.930 . S
C494 C492 1.378 . S
C494 C495 1.367 . S
C495 C494 1.367 . S
C495 C497 1.433 . S
C496 C492 1.350 . S
C496 C493 1.463 . S
C496 N500 1.427 . S
C497 H487 0.929 . S
C497 C495 1.433 . S
C497 N500 1.384 . S
C498 H489 0.929 . S
C498 C490 1.378 . S
C498 C493 1.350 . S
C499 H486 0.929 . S
C499 C491 1.433 . S
C499 N501 1.384 . S
N500 C496 1.427 . S
N500 C497 1.384 . S
N501 C493 1.427 . S
N501 C499 1.384 . S
H502 C508 0.930 . S
H503 C512 0.930 . S
H504 C517 0.929 . S
H505 C515 0.929 . S
H506 C510 0.929 . S
H507 C516 0.929 . S
C508 H502 0.930 . S
C508 C509 1.367 . S
C508 C516 1.378 . S
C509 C508 1.367 . S
C509 C517 1.433 . S
C510 H506 0.929 . S
C510 C512 1.378 . S
C510 C514 1.350 . S
C511 C514 1.463 . S
C511 C516 1.350 . S
C511 N519 1.427 . S
C512 H503 0.930 . S
C512 C510 1.378 . S
C512 C513 1.367 . S
C513 C512 1.367 . S
C513 C515 1.433 . S
C514 C510 1.350 . S
C514 C511 1.463 . S
C514 N518 1.427 . S
C515 H505 0.929 . S
C515 C513 1.433 . S
C515 N518 1.384 . S
C516 H507 0.929 . S
C516 C508 1.378 . S
C516 C511 1.350 . S
C517 H504 0.929 . S
C517 C509 1.433 . S
C517 N519 1.384 . S
N518 C514 1.427 . S
N518 C515 1.384 . S
N519 C511 1.427 . S
N519 C517 1.384 . S
H520 C526 0.930 . S
H521 C530 0.930 . S
H522 C535 0.929 . S
H523 C533 0.929 . S
H524 C528 0.929 . S
H525 C534 0.929 . S
C526 H520 0.930 . S
C526 C527 1.367 . S
C526 C534 1.378 . S
C527 C526 1.367 . S
C527 C535 1.433 . S
C528 H524 0.929 . S
C528 C530 1.378 . S
C528 C532 1.350 . S
C529 C532 1.463 . S
C529 C534 1.350 . S
C529 N537 1.427 . S
C530 H521 0.930 . S
C530 C528 1.378 . S
C530 C531 1.367 . S
C531 C530 1.367 . S
C531 C533 1.433 . S
C532 C528 1.350 . S
C532 C529 1.463 . S
C532 N536 1.427 . S
C533 H523 0.929 . S
C533 C531 1.433 . S
C533 N536 1.384 . S
C534 H525 0.929 . S
C534 C526 1.378 . S
C534 C529 1.350 . S
C535 H522 0.929 . S
C535 C527 1.433 . S
C535 N537 1.384 . S
N536 C532 1.427 . S
N536 C533 1.384 . S
N537 C529 1.427 . S
N537 C535 1.384 . S
H538 C544 0.930 . S
H539 C548 0.930 . S
H540 C553 0.929 . S
H541 C551 0.929 . S
H542 C546 0.929 . S
H543 C552 0.929 . S
C544 H538 0.930 . S
C544 C545 1.367 . S
C544 C552 1.378 . S
C545 C544 1.367 . S
C545 C553 1.433 . S
C546 H542 0.929 . S
C546 C548 1.378 . S
C546 C550 1.350 . S
C547 C550 1.463 . S
C547 C552 1.350 . S
C547 N555 1.427 . S
C548 H539 0.930 . S
C548 C546 1.378 . S
C548 C549 1.367 1_556 S
C549 C548 1.367 1_554 S
C549 C551 1.433 . S
C550 C546 1.350 . S
C550 C547 1.463 . S
C550 N554 1.427 1_556 S
C551 H541 0.929 . S
C551 C549 1.433 . S
C551 N554 1.384 . S
C552 H543 0.929 . S
C552 C544 1.378 . S
C552 C547 1.350 . S
C553 H540 0.929 . S
C553 C545 1.433 . S
C553 N555 1.384 . S
N554 C550 1.427 1_554 S
N554 C551 1.384 . S
N555 C547 1.427 . S
N555 C553 1.384 . S
H556 C562 0.930 . S
H557 C566 0.930 . S
H558 C571 0.929 . S
H559 C569 0.929 . S
H560 C564 0.929 . S
H561 C570 0.929 . S
C562 H556 0.930 . S
C562 C563 1.367 . S
C562 C570 1.378 . S
C563 C562 1.367 . S
C563 C571 1.433 . S
C564 H560 0.929 . S
C564 C566 1.378 . S
C564 C568 1.350 . S
C565 C568 1.463 . S
C565 C570 1.350 . S
C565 N573 1.427 . S
C566 H557 0.930 . S
C566 C564 1.378 . S
C566 C567 1.367 . S
C567 C566 1.367 . S
C567 C569 1.433 . S
C568 C564 1.350 . S
C568 C565 1.463 . S
C568 N572 1.427 . S
C569 H559 0.929 . S
C569 C567 1.433 . S
C569 N572 1.384 . S
C570 H561 0.929 . S
C570 C562 1.378 . S
C570 C565 1.350 . S
C571 H558 0.929 . S
C571 C563 1.433 . S
C571 N573 1.384 . S
N572 C568 1.427 . S
N572 C569 1.384 . S
N573 C565 1.427 . S
N573 C571 1.384 . S
H574 C580 0.930 . S
H575 C584 0.930 . S
H576 C589 0.929 . S
H577 C587 0.929 . S
H578 C582 0.929 . S
H579 C588 0.929 . S
C580 H574 0.930 . S
C580 C581 1.367 . S
C580 C588 1.378 . S
C581 C580 1.367 . S
C581 C589 1.433 . S
C582 H578 0.929 . S
C582 C584 1.378 . S
C582 C586 1.350 . S
C583 C586 1.463 . S
C583 C588 1.350 . S
C583 N591 1.427 . S
C584 H575 0.930 . S
C584 C582 1.378 . S
C584 C585 1.367 . S
C585 C584 1.367 . S
C585 C587 1.433 . S
C586 C582 1.350 . S
C586 C583 1.463 . S
C586 N590 1.427 . S
C587 H577 0.929 . S
C587 C585 1.433 . S
C587 N590 1.384 . S
C588 H579 0.929 . S
C588 C580 1.378 . S
C588 C583 1.350 . S
C589 H576 0.929 . S
C589 C581 1.433 . S
C589 N591 1.384 . S
N590 C586 1.427 . S
N590 C587 1.384 . S
N591 C583 1.427 . S
N591 C589 1.384 . S
H592 C598 0.930 . S
H593 C602 0.930 . S
H594 C607 0.929 . S
H595 C605 0.929 . S
H596 C600 0.929 . S
H597 C606 0.929 . S
C598 H592 0.930 . S
C598 C599 1.367 . S
C598 C606 1.378 . S
C599 C598 1.367 . S
C599 C607 1.433 . S
C600 H596 0.929 . S
C600 C602 1.378 . S
C600 C604 1.350 . S
C601 C604 1.463 . S
C601 C606 1.350 . S
C601 N609 1.427 . S
C602 H593 0.930 . S
C602 C600 1.378 . S
C602 C603 1.367 . S
C603 C602 1.367 . S
C603 C605 1.433 . S
C604 C600 1.350 . S
C604 C601 1.463 . S
C604 N608 1.427 . S
C605 H595 0.929 . S
C605 C603 1.433 . S
C605 N608 1.384 . S
C606 H597 0.929 . S
C606 C598 1.378 . S
C606 C601 1.350 . S
C607 H594 0.929 . S
C607 C599 1.433 . S
C607 N609 1.384 . S
N608 C604 1.427 . S
N608 C605 1.384 . S
N609 C601 1.427 . S
N609 C607 1.384 . S
H610 C616 0.930 . S
H611 C620 0.930 . S
H612 C625 0.929 . S
H613 C623 0.929 . S
H614 C618 0.929 . S
H615 C624 0.929 . S
C616 H610 0.930 . S
C616 C617 1.367 . S
C616 C624 1.378 . S
C617 C616 1.367 . S
C617 C625 1.433 . S
C618 H614 0.929 . S
C618 C620 1.378 . S
C618 C622 1.350 . S
C619 C622 1.463 . S
C619 C624 1.350 . S
C619 N627 1.427 . S
C620 H611 0.930 . S
C620 C618 1.378 . S
C620 C621 1.367 . S
C621 C620 1.367 . S
C621 C623 1.433 . S
C622 C618 1.350 . S
C622 C619 1.463 . S
C622 N626 1.427 . S
C623 H613 0.929 . S
C623 C621 1.433 . S
C623 N626 1.384 . S
C624 H615 0.929 . S
C624 C616 1.378 . S
C624 C619 1.350 . S
C625 H612 0.929 . S
C625 C617 1.433 . S
C625 N627 1.384 . S
N626 C622 1.427 . S
N626 C623 1.384 . S
N627 C619 1.427 . S
N627 C625 1.384 . S
H628 C634 0.930 . S
H629 C638 0.930 . S
H630 C643 0.929 . S
H631 C641 0.929 . S
H632 C636 0.929 . S
H633 C642 0.929 . S
C634 H628 0.930 . S
C634 C635 1.367 . S
C634 C642 1.378 . S
C635 C634 1.367 . S
C635 C643 1.433 . S
C636 H632 0.929 . S
C636 C638 1.378 . S
C636 C640 1.350 1_554 S
C637 C640 1.463 . S
C637 C642 1.350 . S
C637 N645 1.427 . S
C638 H629 0.930 . S
C638 C636 1.378 . S
C638 C639 1.367 . S
C639 C638 1.367 . S
C639 C641 1.433 1_554 S
C640 C636 1.350 1_556 S
C640 C637 1.463 . S
C640 N644 1.427 . S
C641 H631 0.929 . S
C641 C639 1.433 1_556 S
C641 N644 1.384 . S
C642 H633 0.929 . S
C642 C634 1.378 . S
C642 C637 1.350 . S
C643 H630 0.929 . S
C643 C635 1.433 . S
C643 N645 1.384 . S
N644 C640 1.427 . S
N644 C641 1.384 . S
N645 C637 1.427 . S
N645 C643 1.384 . S
H646 C652 0.930 . S
H647 C656 0.930 . S
H648 C661 0.929 . S
H649 C659 0.929 . S
H650 C654 0.929 . S
H651 C660 0.929 . S
C652 H646 0.930 . S
C652 C653 1.367 . S
C652 C660 1.378 . S
C653 C652 1.367 . S
C653 C661 1.433 . S
C654 H650 0.929 . S
C654 C656 1.378 . S
C654 C658 1.350 . S
C655 C658 1.463 . S
C655 C660 1.350 . S
C655 N663 1.427 . S
C656 H647 0.930 . S
C656 C654 1.378 . S
C656 C657 1.367 . S
C657 C656 1.367 . S
C657 C659 1.433 . S
C658 C654 1.350 . S
C658 C655 1.463 . S
C658 N662 1.427 . S
C659 H649 0.929 . S
C659 C657 1.433 . S
C659 N662 1.384 . S
C660 H651 0.929 . S
C660 C652 1.378 . S
C660 C655 1.350 . S
C661 H648 0.929 . S
C661 C653 1.433 . S
C661 N663 1.384 . S
N662 C658 1.427 . S
N662 C659 1.384 . S
N663 C655 1.427 . S
N663 C661 1.384 . S
H664 C670 0.930 . S
H665 C674 0.930 . S
H666 C679 0.929 . S
H667 C677 0.929 . S
H668 C672 0.929 . S
H669 C678 0.929 . S
C670 H664 0.930 . S
C670 C671 1.367 . S
C670 C678 1.378 . S
C671 C670 1.367 . S
C671 C679 1.433 . S
C672 H668 0.929 . S
C672 C674 1.378 . S
C672 C676 1.350 . S
C673 C676 1.463 . S
C673 C678 1.350 . S
C673 N681 1.427 . S
C674 H665 0.930 . S
C674 C672 1.378 . S
C674 C675 1.367 . S
C675 C674 1.367 . S
C675 C677 1.433 . S
C676 C672 1.350 . S
C676 C673 1.463 . S
C676 N680 1.427 . S
C677 H667 0.929 . S
C677 C675 1.433 . S
C677 N680 1.384 . S
C678 H669 0.929 . S
C678 C670 1.378 . S
C678 C673 1.350 . S
C679 H666 0.929 . S
C679 C671 1.433 . S
C679 N681 1.384 . S
N680 C676 1.427 . S
N680 C677 1.384 . S
N681 C673 1.427 . S
N681 C679 1.384 . S
H682 C688 0.930 . S
H683 C692 0.930 . S
H684 C697 0.929 . S
H685 C695 0.929 . S
H686 C690 0.929 . S
H687 C696 0.929 . S
C688 H682 0.930 . S
C688 C689 1.367 . S
C688 C696 1.378 . S
C689 C688 1.367 . S
C689 C697 1.433 . S
C690 H686 0.929 . S
C690 C692 1.378 . S
C690 C694 1.350 . S
C691 C694 1.463 . S
C691 C696 1.350 . S
C691 N699 1.427 . S
C692 H683 0.930 . S
C692 C690 1.378 . S
C692 C693 1.367 . S
C693 C692 1.367 . S
C693 C695 1.433 . S
C694 C690 1.350 . S
C694 C691 1.463 . S
C694 N698 1.427 . S
C695 H685 0.929 . S
C695 C693 1.433 . S
C695 N698 1.384 . S
C696 H687 0.929 . S
C696 C688 1.378 . S
C696 C691 1.350 . S
C697 H684 0.929 . S
C697 C689 1.433 . S
C697 N699 1.384 . S
N698 C694 1.427 . S
N698 C695 1.384 . S
N699 C691 1.427 . S
N699 C697 1.384 . S
H700 C706 0.930 . S
H701 C710 0.930 . S
H702 C715 0.929 . S
H703 C713 0.929 . S
H704 C708 0.929 . S
H705 C714 0.929 . S
C706 H700 0.930 . S
C706 C707 1.367 . S
C706 C714 1.378 . S
C707 C706 1.367 . S
C707 C715 1.433 . S
C708 H704 0.929 . S
C708 C710 1.378 . S
C708 C712 1.350 . S
C709 C712 1.463 . S
C709 C714 1.350 . S
C709 N717 1.427 . S
C710 H701 0.930 . S
C710 C708 1.378 . S
C710 C711 1.367 . S
C711 C710 1.367 . S
C711 C713 1.433 . S
C712 C708 1.350 . S
C712 C709 1.463 . S
C712 N716 1.427 . S
C713 H703 0.929 . S
C713 C711 1.433 . S
C713 N716 1.384 . S
C714 H705 0.929 . S
C714 C706 1.378 . S
C714 C709 1.350 . S
C715 H702 0.929 . S
C715 C707 1.433 . S
C715 N717 1.384 . S
N716 C712 1.427 . S
N716 C713 1.384 . S
N717 C709 1.427 . S
N717 C715 1.384 . S
H718 C724 0.930 . S
H719 C728 0.930 . S
H720 C733 0.929 . S
H721 C731 0.929 . S
H722 C726 0.929 . S
H723 C732 0.929 . S
C724 H718 0.930 . S
C724 C725 1.367 . S
C724 C732 1.378 . S
C725 C724 1.367 . S
C725 C733 1.433 . S
C726 H722 0.929 . S
C726 C728 1.378 . S
C726 C730 1.350 1_554 S
C727 C730 1.463 . S
C727 C732 1.350 . S
C727 N735 1.427 . S
C728 H719 0.930 . S
C728 C726 1.378 . S
C728 C729 1.367 . S
C729 C728 1.367 . S
C729 C731 1.433 1_554 S
C730 C726 1.350 1_556 S
C730 C727 1.463 . S
C730 N734 1.427 . S
C731 H721 0.929 . S
C731 C729 1.433 1_556 S
C731 N734 1.384 . S
C732 H723 0.929 . S
C732 C724 1.378 . S
C732 C727 1.350 . S
C733 H720 0.929 . S
C733 C725 1.433 . S
C733 N735 1.384 . S
N734 C730 1.427 . S
N734 C731 1.384 . S
N735 C727 1.427 . S
N735 C733 1.384 . S
H736 C742 0.930 . S
H737 C746 0.930 . S
H738 C751 0.929 . S
H739 C749 0.929 . S
H740 C744 0.929 . S
H741 C750 0.929 . S
C742 H736 0.930 . S
C742 C743 1.367 . S
C742 C750 1.378 . S
C743 C742 1.367 . S
C743 C751 1.433 . S
C744 H740 0.929 . S
C744 C746 1.378 . S
C744 C748 1.350 . S
C745 C748 1.463 . S
C745 C750 1.350 . S
C745 N753 1.427 . S
C746 H737 0.930 . S
C746 C744 1.378 . S
C746 C747 1.367 . S
C747 C746 1.367 . S
C747 C749 1.433 . S
C748 C744 1.350 . S
C748 C745 1.463 . S
C748 N752 1.427 . S
C749 H739 0.929 . S
C749 C747 1.433 . S
C749 N752 1.384 . S
C750 H741 0.929 . S
C750 C742 1.378 . S
C750 C745 1.350 . S
C751 H738 0.929 . S
C751 C743 1.433 . S
C751 N753 1.384 . S
N752 C748 1.427 . S
N752 C749 1.384 . S
N753 C745 1.427 . S
N753 C751 1.384 . S
H754 C760 0.930 . S
H755 C764 0.958 . S
H756 C769 0.929 . S
H757 C767 0.929 . S
H758 C762 0.978 . S
H759 C768 0.929 . S
C760 H754 0.930 . S
C760 C761 1.367 1_545 S
C760 C768 1.378 . S
C761 C760 1.367 1_565 S
C761 C769 1.433 . S
C762 H758 0.978 . S
C762 C764 1.356 1_564 S
C762 C766 1.324 1_565 S
C763 C766 1.473 . S
C763 C768 1.363 . S
C763 N771 1.403 1_545 S
C764 H755 0.958 . S
C764 C762 1.356 1_546 S
C764 C765 1.367 . S
C765 C764 1.367 . S
C765 C767 1.433 . S
C766 C762 1.324 1_545 S
C766 C763 1.473 . S
C766 N770 1.427 . S
C767 H757 0.929 . S
C767 C765 1.433 . S
C767 N770 1.384 1_556 S
C768 H759 0.929 . S
C768 C760 1.378 . S
C768 C763 1.363 . S
C769 H756 0.929 . S
C769 C761 1.433 . S
C769 N771 1.384 . S
N770 C766 1.427 . S
N770 C767 1.384 1_554 S
N771 C763 1.403 1_565 S
N771 C769 1.384 . S
H772 C778 0.930 . S
H773 C782 0.930 . S
H774 C787 0.929 . S
H775 C785 0.929 . S
H776 C780 0.929 . S
H777 C786 0.929 . S
C778 H772 0.930 . S
C778 C779 1.367 . S
C778 C786 1.378 . S
C779 C778 1.367 . S
C779 C787 1.433 . S
C780 H776 0.929 . S
C780 C782 1.378 . S
C780 C784 1.350 . S
C781 C784 1.463 . S
C781 C786 1.350 . S
C781 N789 1.427 . S
C782 H773 0.930 . S
C782 C780 1.378 . S
C782 C783 1.367 . S
C783 C782 1.367 . S
C783 C785 1.433 . S
C784 C780 1.350 . S
C784 C781 1.463 . S
C784 N788 1.427 . S
C785 H775 0.929 . S
C785 C783 1.433 . S
C785 N788 1.384 . S
C786 H777 0.929 . S
C786 C778 1.378 . S
C786 C781 1.350 . S
C787 H774 0.929 . S
C787 C779 1.433 . S
C787 N789 1.384 . S
N788 C784 1.427 . S
N788 C785 1.384 . S
N789 C781 1.427 . S
N789 C787 1.384 . S
H790 C796 0.930 . S
H791 C800 0.932 1_545 S
H792 C805 0.929 . S
H793 C803 0.929 . S
H794 C798 0.929 . S
H795 C804 0.899 1_565 S
C796 H790 0.930 . S
C796 C797 1.367 . S
C796 C804 1.394 . S
C797 C796 1.367 . S
C797 C805 1.433 . S
C798 H794 0.929 . S
C798 C800 1.380 1_545 S
C798 C802 1.360 . S
C799 C802 1.472 . S
C799 C804 1.365 . S
C799 N807 1.427 . S
C800 H791 0.932 1_565 S
C800 C798 1.380 1_565 S
C800 C801 1.362 . S
C801 C800 1.362 . S
C801 C803 1.433 . S
C802 C798 1.360 . S
C802 C799 1.472 . S
C802 N806 1.408 1_545 S
C803 H793 0.929 . S
C803 C801 1.433 . S
C803 N806 1.384 . S
C804 H795 0.899 1_545 S
C804 C796 1.394 . S
C804 C799 1.365 . S
C805 H792 0.929 . S
C805 C797 1.433 . S
C805 N807 1.384 . S
N806 C802 1.408 1_565 S
N806 C803 1.384 . S
N807 C799 1.427 . S
N807 C805 1.384 . S
H808 C814 0.930 . S
H809 C818 0.930 . S
H810 C823 0.929 . S
H811 C821 0.929 . S
H812 C816 0.929 . S
H813 C822 0.929 . S
C814 H808 0.930 . S
C814 C815 1.367 . S
C814 C822 1.378 . S
C815 C814 1.367 . S
C815 C823 1.433 . S
C816 H812 0.929 . S
C816 C818 1.378 . S
C816 C820 1.350 . S
C817 C820 1.463 . S
C817 C822 1.350 . S
C817 N825 1.427 . S
C818 H809 0.930 . S
C818 C816 1.378 . S
C818 C819 1.367 . S
C819 C818 1.367 . S
C819 C821 1.433 . S
C820 C816 1.350 . S
C820 C817 1.463 . S
C820 N824 1.427 . S
C821 H811 0.929 . S
C821 C819 1.433 . S
C821 N824 1.384 . S
C822 H813 0.929 . S
C822 C814 1.378 . S
C822 C817 1.350 . S
C823 H810 0.929 . S
C823 C815 1.433 . S
C823 N825 1.384 . S
N824 C820 1.427 . S
N824 C821 1.384 . S
N825 C817 1.427 . S
N825 C823 1.384 . S
H826 C832 0.930 1_565 S
H827 C836 0.930 . S
H828 C841 0.929 1_556 S
H829 C839 0.929 . S
H830 C834 0.929 . S
H831 C840 0.929 . S
C832 H826 0.930 1_545 S
C832 C833 1.367 . S
C832 C840 1.378 1_546 S
C833 C832 1.367 . S
C833 C841 1.435 1_556 S
C834 H830 0.929 . S
C834 C836 1.378 . S
C834 C838 1.368 . S
C835 C838 1.474 . S
C835 C840 1.350 1_545 S
C835 N843 1.427 . S
C836 H827 0.930 . S
C836 C834 1.378 . S
C836 C837 1.367 1_545 S
C837 C836 1.367 1_565 S
C837 C839 1.433 . S
C838 C834 1.368 . S
C838 C835 1.474 . S
C838 N842 1.397 1_545 S
C839 H829 0.929 . S
C839 C837 1.433 . S
C839 N842 1.384 . S
C840 H831 0.929 . S
C840 C832 1.378 1_564 S
C840 C835 1.350 1_565 S
C841 H828 0.929 1_554 S
C841 C833 1.435 1_554 S
C841 N843 1.382 . S
N842 C838 1.397 1_565 S
N842 C839 1.384 . S
N843 C835 1.427 . S
N843 C841 1.382 . S
H844 C850 0.930 . S
H845 C854 0.930 . S
H846 C859 0.929 . S
H847 C857 0.929 . S
H848 C852 0.929 . S
H849 C858 0.929 . S
C850 H844 0.930 . S
C850 C851 1.367 . S
C850 C858 1.378 . S
C851 C850 1.367 . S
C851 C859 1.433 . S
C852 H848 0.929 . S
C852 C854 1.378 . S
C852 C856 1.350 . S
C853 C856 1.463 . S
C853 C858 1.350 . S
C853 N861 1.427 . S
C854 H845 0.930 . S
C854 C852 1.378 . S
C854 C855 1.367 . S
C855 C854 1.367 . S
C855 C857 1.433 . S
C856 C852 1.350 . S
C856 C853 1.463 . S
C856 N860 1.427 . S
C857 H847 0.929 . S
C857 C855 1.433 . S
C857 N860 1.384 . S
C858 H849 0.929 . S
C858 C850 1.378 . S
C858 C853 1.350 . S
C859 H846 0.929 . S
C859 C851 1.433 . S
C859 N861 1.384 . S
N860 C856 1.427 . S
N860 C857 1.384 . S
N861 C853 1.427 . S
N861 C859 1.384 . S
H862 C868 0.930 . S
H863 C872 0.930 . S
H864 C877 0.929 . S
H865 C875 0.929 . S
H866 C870 0.929 . S
H867 C876 0.929 1_565 S
C868 H862 0.930 . S
C868 C869 1.367 . S
C868 C876 1.378 . S
C869 C868 1.367 . S
C869 C877 1.433 . S
C870 H866 0.929 . S
C870 C872 1.378 1_545 S
C870 C874 1.353 . S
C871 C874 1.468 . S
C871 C876 1.350 . S
C871 N879 1.427 . S
C872 H863 0.930 . S
C872 C870 1.378 1_565 S
C872 C873 1.367 . S
C873 C872 1.367 . S
C873 C875 1.433 . S
C874 C870 1.353 . S
C874 C871 1.468 . S
C874 N878 1.419 1_545 S
C875 H865 0.929 . S
C875 C873 1.433 . S
C875 N878 1.384 . S
C876 H867 0.929 1_545 S
C876 C868 1.378 . S
C876 C871 1.350 . S
C877 H864 0.929 . S
C877 C869 1.433 . S
C877 N879 1.384 . S
N878 C874 1.419 1_565 S
N878 C875 1.384 . S
N879 C871 1.427 . S
N879 C877 1.384 . S
H880 C886 0.930 . S
H881 C890 0.930 . S
H882 C895 0.929 . S
H883 C893 0.929 . S
H884 C888 0.929 . S
H885 C894 0.929 . S
C886 H880 0.930 . S
C886 C887 1.367 . S
C886 C894 1.378 . S
C887 C886 1.367 . S
C887 C895 1.433 . S
C888 H884 0.929 . S
C888 C890 1.378 . S
C888 C892 1.350 . S
C889 C892 1.463 . S
C889 C894 1.350 . S
C889 N897 1.427 . S
C890 H881 0.930 . S
C890 C888 1.378 . S
C890 C891 1.367 . S
C891 C890 1.367 . S
C891 C893 1.433 . S
C892 C888 1.350 . S
C892 C889 1.463 . S
C892 N896 1.427 . S
C893 H883 0.929 . S
C893 C891 1.433 . S
C893 N896 1.384 . S
C894 H885 0.929 . S
C894 C886 1.378 . S
C894 C889 1.350 . S
C895 H882 0.929 . S
C895 C887 1.433 . S
C895 N897 1.384 . S
N896 C892 1.427 . S
N896 C893 1.384 . S
N897 C889 1.427 . S
N897 C895 1.384 . S
H898 C904 0.930 . S
H899 C908 0.930 . S
H900 C913 0.929 . S
H901 C911 0.929 . S
H902 C906 0.929 . S
H903 C912 0.929 . S
C904 H898 0.930 . S
C904 C905 1.367 . S
C904 C912 1.378 . S
C905 C904 1.367 . S
C905 C913 1.433 . S
C906 H902 0.929 . S
C906 C908 1.378 . S
C906 C910 1.350 . S
C907 C910 1.463 . S
C907 C912 1.350 . S
C907 N915 1.427 . S
C908 H899 0.930 . S
C908 C906 1.378 . S
C908 C909 1.367 . S
C909 C908 1.367 . S
C909 C911 1.433 . S
C910 C906 1.350 . S
C910 C907 1.463 . S
C910 N914 1.427 . S
C911 H901 0.929 . S
C911 C909 1.433 . S
C911 N914 1.384 . S
C912 H903 0.929 . S
C912 C904 1.378 . S
C912 C907 1.350 . S
C913 H900 0.929 . S
C913 C905 1.433 . S
C913 N915 1.384 . S
N914 C910 1.427 . S
N914 C911 1.384 . S
N915 C907 1.427 . S
N915 C913 1.384 . S
H916 C922 0.930 . S
H917 C926 0.930 . S
H918 C931 0.929 . S
H919 C929 0.929 . S
H920 C924 0.929 . S
H921 C930 0.929 . S
C922 H916 0.930 . S
C922 C923 1.367 . S
C922 C930 1.378 . S
C923 C922 1.367 . S
C923 C931 1.433 . S
C924 H920 0.929 . S
C924 C926 1.378 . S
C924 C928 1.350 . S
C925 C928 1.463 . S
C925 C930 1.350 . S
C925 N933 1.427 . S
C926 H917 0.930 . S
C926 C924 1.378 . S
C926 C927 1.367 . S
C927 C926 1.367 . S
C927 C929 1.433 . S
C928 C924 1.350 . S
C928 C925 1.463 . S
C928 N932 1.427 . S
C929 H919 0.929 . S
C929 C927 1.433 . S
C929 N932 1.384 . S
C930 H921 0.929 . S
C930 C922 1.378 . S
C930 C925 1.350 . S
C931 H918 0.929 . S
C931 C923 1.433 . S
C931 N933 1.384 . S
N932 C928 1.427 . S
N932 C929 1.384 . S
N933 C925 1.427 . S
N933 C931 1.384 . S
H934 C940 0.930 . S
H935 C944 0.930 . S
H936 C949 0.929 . S
H937 C947 0.929 . S
H938 C942 0.929 . S
H939 C948 0.929 . S
C940 H934 0.930 . S
C940 C941 1.367 . S
C940 C948 1.378 . S
C941 C940 1.367 . S
C941 C949 1.433 . S
C942 H938 0.929 . S
C942 C944 1.378 1_554 S
C942 C946 1.350 . S
C943 C946 1.463 . S
C943 C948 1.350 . S
C943 N951 1.427 . S
C944 H935 0.930 . S
C944 C942 1.378 1_556 S
C944 C945 1.367 . S
C945 C944 1.367 . S
C945 C947 1.433 . S
C946 C942 1.350 . S
C946 C943 1.463 . S
C946 N950 1.427 . S
C947 H937 0.929 . S
C947 C945 1.433 . S
C947 N950 1.384 1_556 S
C948 H939 0.929 . S
C948 C940 1.378 . S
C948 C943 1.350 . S
C949 H936 0.929 . S
C949 C941 1.433 . S
C949 N951 1.384 . S
N950 C946 1.427 . S
N950 C947 1.384 1_554 S
N951 C943 1.427 . S
N951 C949 1.384 . S
H952 C958 0.930 . S
H953 C962 0.930 . S
H954 C967 0.929 . S
H955 C965 0.929 . S
H956 C960 0.929 . S
H957 C966 0.929 . S
C958 H952 0.930 . S
C958 C959 1.367 . S
C958 C966 1.378 . S
C959 C958 1.367 . S
C959 C967 1.433 . S
C960 H956 0.929 . S
C960 C962 1.378 . S
C960 C964 1.350 . S
C961 C964 1.463 . S
C961 C966 1.350 . S
C961 N969 1.427 . S
C962 H953 0.930 . S
C962 C960 1.378 . S
C962 C963 1.367 . S
C963 C962 1.367 . S
C963 C965 1.433 . S
C964 C960 1.350 . S
C964 C961 1.463 . S
C964 N968 1.427 . S
C965 H955 0.929 . S
C965 C963 1.433 . S
C965 N968 1.384 . S
C966 H957 0.929 . S
C966 C958 1.378 . S
C966 C961 1.350 . S
C967 H954 0.929 . S
C967 C959 1.433 . S
C967 N969 1.384 . S
N968 C964 1.427 . S
N968 C965 1.384 . S
N969 C961 1.427 . S
N969 C967 1.384 . S
H970 C976 0.930 . S
H971 C980 0.930 . S
H972 C985 0.929 . S
H973 C983 0.929 . S
H974 C978 0.929 . S
H975 C984 0.929 . S
C976 H970 0.930 . S
C976 C977 1.367 . S
C976 C984 1.378 . S
C977 C976 1.367 . S
C977 C985 1.433 . S
C978 H974 0.929 . S
C978 C980 1.378 . S
C978 C982 1.350 . S
C979 C982 1.463 . S
C979 C984 1.350 . S
C979 N987 1.427 . S
C980 H971 0.930 . S
C980 C978 1.378 . S
C980 C981 1.367 . S
C981 C980 1.367 . S
C981 C983 1.433 . S
C982 C978 1.350 . S
C982 C979 1.463 . S
C982 N986 1.427 . S
C983 H973 0.929 . S
C983 C981 1.433 . S
C983 N986 1.384 . S
C984 H975 0.929 . S
C984 C976 1.378 . S
C984 C979 1.350 . S
C985 H972 0.929 . S
C985 C977 1.433 . S
C985 N987 1.384 . S
N986 C982 1.427 . S
N986 C983 1.384 . S
N987 C979 1.427 . S
N987 C985 1.384 . S
H988 C994 0.930 . S
H989 C998 0.930 . S
H990 C1003 0.929 . S
H991 C1001 0.929 . S
H992 C996 0.929 . S
H993 C1002 0.929 . S
C994 H988 0.930 . S
C994 C995 1.367 . S
C994 C1002 1.378 . S
C995 C994 1.367 . S
C995 C1003 1.433 . S
C996 H992 0.929 . S
C996 C998 1.378 . S
C996 C1000 1.350 . S
C997 C1000 1.463 . S
C997 C1002 1.350 . S
C997 N1005 1.427 . S
C998 H989 0.930 . S
C998 C996 1.378 . S
C998 C999 1.367 . S
C999 C998 1.367 . S
C999 C1001 1.433 . S
C1000 C996 1.350 . S
C1000 C997 1.463 . S
C1000 N1004 1.427 . S
C1001 H991 0.929 . S
C1001 C999 1.433 . S
C1001 N1004 1.384 . S
C1002 H993 0.929 . S
C1002 C994 1.378 . S
C1002 C997 1.350 . S
C1003 H990 0.929 . S
C1003 C995 1.433 . S
C1003 N1005 1.384 . S
N1004 C1000 1.427 . S
N1004 C1001 1.384 . S
N1005 C997 1.427 . S
N1005 C1003 1.384 . S
H1006 C1012 0.930 . S
H1007 C1016 0.930 . S
H1008 C1021 0.929 . S
H1009 C1019 0.929 . S
H1010 C1014 0.929 . S
H1011 C1020 0.929 . S
C1012 H1006 0.930 . S
C1012 C1013 1.367 . S
C1012 C1020 1.378 . S
C1013 C1012 1.367 . S
C1013 C1021 1.433 . S
C1014 H1010 0.929 . S
C1014 C1016 1.378 1_554 S
C1014 C1018 1.350 . S
C1015 C1018 1.463 . S
C1015 C1020 1.350 . S
C1015 N1023 1.427 . S
C1016 H1007 0.930 . S
C1016 C1014 1.378 1_556 S
C1016 C1017 1.367 . S
C1017 C1016 1.367 . S
C1017 C1019 1.433 . S
C1018 C1014 1.350 . S
C1018 C1015 1.463 . S
C1018 N1022 1.427 . S
C1019 H1009 0.929 . S
C1019 C1017 1.433 . S
C1019 N1022 1.384 1_556 S
C1020 H1011 0.929 . S
C1020 C1012 1.378 . S
C1020 C1015 1.350 . S
C1021 H1008 0.929 . S
C1021 C1013 1.433 . S
C1021 N1023 1.384 . S
N1022 C1018 1.427 . S
N1022 C1019 1.384 1_554 S
N1023 C1015 1.427 . S
N1023 C1021 1.384 . S
H1024 C1030 0.930 . S
H1025 C1034 0.930 . S
H1026 C1039 0.929 . S
H1027 C1037 0.929 . S
H1028 C1032 0.929 . S
H1029 C1038 0.929 . S
C1030 H1024 0.930 . S
C1030 C1031 1.367 . S
C1030 C1038 1.378 . S
C1031 C1030 1.367 . S
C1031 C1039 1.433 . S
C1032 H1028 0.929 . S
C1032 C1034 1.378 . S
C1032 C1036 1.350 . S
C1033 C1036 1.463 . S
C1033 C1038 1.350 . S
C1033 N1041 1.427 . S
C1034 H1025 0.930 . S
C1034 C1032 1.378 . S
C1034 C1035 1.367 . S
C1035 C1034 1.367 . S
C1035 C1037 1.433 . S
C1036 C1032 1.350 . S
C1036 C1033 1.463 . S
C1036 N1040 1.427 . S
C1037 H1027 0.929 . S
C1037 C1035 1.433 . S
C1037 N1040 1.384 . S
C1038 H1029 0.929 . S
C1038 C1030 1.378 . S
C1038 C1033 1.350 . S
C1039 H1026 0.929 . S
C1039 C1031 1.433 . S
C1039 N1041 1.384 . S
N1040 C1036 1.427 . S
N1040 C1037 1.384 . S
N1041 C1033 1.427 . S
N1041 C1039 1.384 . S
H1042 C1048 0.930 . S
H1043 C1052 0.930 . S
H1044 C1057 0.929 . S
H1045 C1055 0.929 . S
H1046 C1050 0.929 . S
H1047 C1056 0.929 . S
C1048 H1042 0.930 . S
C1048 C1049 1.367 . S
C1048 C1056 1.378 . S
C1049 C1048 1.367 . S
C1049 C1057 1.433 . S
C1050 H1046 0.929 . S
C1050 C1052 1.378 . S
C1050 C1054 1.350 . S
C1051 C1054 1.463 1_455 S
C1051 C1056 1.350 . S
C1051 N1059 1.427 . S
C1052 H1043 0.930 . S
C1052 C1050 1.378 . S
C1052 C1053 1.367 . S
C1053 C1052 1.367 . S
C1053 C1055 1.433 . S
C1054 C1050 1.350 . S
C1054 C1051 1.463 1_655 S
C1054 N1058 1.427 . S
C1055 H1045 0.929 . S
C1055 C1053 1.433 . S
C1055 N1058 1.384 . S
C1056 H1047 0.929 . S
C1056 C1048 1.378 . S
C1056 C1051 1.350 . S
C1057 H1044 0.929 . S
C1057 C1049 1.433 . S
C1057 N1059 1.384 . S
N1058 C1054 1.427 . S
N1058 C1055 1.384 . S
N1059 C1051 1.427 . S
N1059 C1057 1.384 . S
H1060 C1066 0.930 . S
H1061 C1070 0.930 . S
H1062 C1075 0.929 . S
H1063 C1073 0.929 . S
H1064 C1068 0.929 . S
H1065 C1074 0.929 . S
C1066 H1060 0.930 . S
C1066 C1067 1.367 . S
C1066 C1074 1.378 . S
C1067 C1066 1.367 . S
C1067 C1075 1.433 . S
C1068 H1064 0.929 . S
C1068 C1070 1.378 . S
C1068 C1072 1.350 . S
C1069 C1072 1.463 . S
C1069 C1074 1.350 . S
C1069 N1077 1.427 . S
C1070 H1061 0.930 . S
C1070 C1068 1.378 . S
C1070 C1071 1.367 . S
C1071 C1070 1.367 . S
C1071 C1073 1.433 . S
C1072 C1068 1.350 . S
C1072 C1069 1.463 . S
C1072 N1076 1.427 . S
C1073 H1063 0.929 . S
C1073 C1071 1.433 . S
C1073 N1076 1.384 . S
C1074 H1065 0.929 . S
C1074 C1066 1.378 . S
C1074 C1069 1.350 . S
C1075 H1062 0.929 . S
C1075 C1067 1.433 . S
C1075 N1077 1.384 . S
N1076 C1072 1.427 . S
N1076 C1073 1.384 . S
N1077 C1069 1.427 . S
N1077 C1075 1.384 . S
H1078 C1084 0.930 . S
H1079 C1088 0.930 . S
H1080 C1093 0.929 . S
H1081 C1091 0.929 . S
H1082 C1086 0.929 . S
H1083 C1092 0.929 . S
C1084 H1078 0.930 . S
C1084 C1085 1.367 . S
C1084 C1092 1.378 . S
C1085 C1084 1.367 . S
C1085 C1093 1.433 . S
C1086 H1082 0.929 . S
C1086 C1088 1.378 . S
C1086 C1090 1.350 . S
C1087 C1090 1.463 . S
C1087 C1092 1.350 . S
C1087 N1095 1.427 . S
C1088 H1079 0.930 . S
C1088 C1086 1.378 . S
C1088 C1089 1.367 . S
C1089 C1088 1.367 . S
C1089 C1091 1.433 . S
C1090 C1086 1.350 . S
C1090 C1087 1.463 . S
C1090 N1094 1.427 . S
C1091 H1081 0.929 . S
C1091 C1089 1.433 . S
C1091 N1094 1.384 . S
C1092 H1083 0.929 . S
C1092 C1084 1.378 . S
C1092 C1087 1.350 . S
C1093 H1080 0.929 . S
C1093 C1085 1.433 . S
C1093 N1095 1.384 . S
N1094 C1090 1.427 . S
N1094 C1091 1.384 . S
N1095 C1087 1.427 . S
N1095 C1093 1.384 . S
H1096 C1102 0.930 . S
H1097 C1106 0.930 . S
H1098 C1111 0.929 . S
H1099 C1109 0.929 . S
H1100 C1104 0.929 . S
H1101 C1110 0.929 . S
C1102 H1096 0.930 . S
C1102 C1103 1.367 . S
C1102 C1110 1.378 . S
C1103 C1102 1.367 . S
C1103 C1111 1.433 . S
C1104 H1100 0.929 . S
C1104 C1106 1.378 . S
C1104 C1108 1.350 . S
C1105 C1108 1.463 . S
C1105 C1110 1.350 . S
C1105 N1113 1.427 . S
C1106 H1097 0.930 . S
C1106 C1104 1.378 . S
C1106 C1107 1.367 . S
C1107 C1106 1.367 . S
C1107 C1109 1.433 . S
C1108 C1104 1.350 . S
C1108 C1105 1.463 . S
C1108 N1112 1.427 . S
C1109 H1099 0.929 . S
C1109 C1107 1.433 . S
C1109 N1112 1.384 . S
C1110 H1101 0.929 . S
C1110 C1102 1.378 . S
C1110 C1105 1.350 . S
C1111 H1098 0.929 . S
C1111 C1103 1.433 . S
C1111 N1113 1.384 . S
N1112 C1108 1.427 . S
N1112 C1109 1.384 . S
N1113 C1105 1.427 . S
N1113 C1111 1.384 . S
H1114 C1120 0.930 . S
H1115 C1124 0.930 . S
H1116 C1129 0.929 . S
H1117 C1127 0.929 . S
H1118 C1122 0.929 . S
H1119 C1128 0.929 . S
C1120 H1114 0.930 . S
C1120 C1121 1.367 . S
C1120 C1128 1.378 . S
C1121 C1120 1.367 . S
C1121 C1129 1.433 . S
C1122 H1118 0.929 . S
C1122 C1124 1.378 . S
C1122 C1126 1.350 . S
C1123 C1126 1.463 . S
C1123 C1128 1.350 . S
C1123 N1131 1.427 . S
C1124 H1115 0.930 . S
C1124 C1122 1.378 . S
C1124 C1125 1.367 . S
C1125 C1124 1.367 . S
C1125 C1127 1.433 . S
C1126 C1122 1.350 . S
C1126 C1123 1.463 . S
C1126 N1130 1.427 . S
C1127 H1117 0.929 . S
C1127 C1125 1.433 . S
C1127 N1130 1.384 . S
C1128 H1119 0.929 . S
C1128 C1120 1.378 . S
C1128 C1123 1.350 . S
C1129 H1116 0.929 . S
C1129 C1121 1.433 . S
C1129 N1131 1.384 . S
N1130 C1126 1.427 . S
N1130 C1127 1.384 . S
N1131 C1123 1.427 . S
N1131 C1129 1.384 . S
H1132 C1138 0.930 . S
H1133 C1142 0.930 . S
H1134 C1147 0.929 . S
H1135 C1145 0.929 . S
H1136 C1140 0.929 . S
H1137 C1146 0.929 . S
C1138 H1132 0.930 . S
C1138 C1139 1.367 . S
C1138 C1146 1.378 . S
C1139 C1138 1.367 . S
C1139 C1147 1.433 . S
C1140 H1136 0.929 . S
C1140 C1142 1.378 . S
C1140 C1144 1.350 . S
C1141 C1144 1.463 . S
C1141 C1146 1.350 . S
C1141 N1149 1.427 . S
C1142 H1133 0.930 . S
C1142 C1140 1.378 . S
C1142 C1143 1.367 . S
C1143 C1142 1.367 . S
C1143 C1145 1.433 . S
C1144 C1140 1.350 . S
C1144 C1141 1.463 . S
C1144 N1148 1.427 . S
C1145 H1135 0.929 . S
C1145 C1143 1.433 . S
C1145 N1148 1.384 . S
C1146 H1137 0.929 . S
C1146 C1138 1.378 . S
C1146 C1141 1.350 . S
C1147 H1134 0.929 . S
C1147 C1139 1.433 . S
C1147 N1149 1.384 . S
N1148 C1144 1.427 . S
N1148 C1145 1.384 . S
N1149 C1141 1.427 . S
N1149 C1147 1.384 . S
H1150 C1156 0.930 . S
H1151 C1160 0.930 . S
H1152 C1165 0.929 . S
H1153 C1163 0.929 . S
H1154 C1158 0.929 . S
H1155 C1164 0.929 . S
C1156 H1150 0.930 . S
C1156 C1157 1.367 . S
C1156 C1164 1.378 . S
C1157 C1156 1.367 . S
C1157 C1165 1.433 . S
C1158 H1154 0.929 . S
C1158 C1160 1.378 . S
C1158 C1162 1.350 . S
C1159 C1162 1.463 1_655 S
C1159 C1164 1.350 . S
C1159 N1167 1.427 . S
C1160 H1151 0.930 . S
C1160 C1158 1.378 . S
C1160 C1161 1.367 . S
C1161 C1160 1.367 . S
C1161 C1163 1.433 . S
C1162 C1158 1.350 . S
C1162 C1159 1.463 1_455 S
C1162 N1166 1.427 . S
C1163 H1153 0.929 . S
C1163 C1161 1.433 . S
C1163 N1166 1.384 . S
C1164 H1155 0.929 . S
C1164 C1156 1.378 . S
C1164 C1159 1.350 . S
C1165 H1152 0.929 . S
C1165 C1157 1.433 . S
C1165 N1167 1.384 . S
N1166 C1162 1.427 . S
N1166 C1163 1.384 . S
N1167 C1159 1.427 . S
N1167 C1165 1.384 . S
H1168 C1174 0.930 . S
H1169 C1178 0.930 . S
H1170 C1183 0.929 . S
H1171 C1181 0.929 . S
H1172 C1176 0.929 . S
H1173 C1182 0.929 . S
C1174 H1168 0.930 . S
C1174 C1175 1.367 . S
C1174 C1182 1.378 . S
C1175 C1174 1.367 . S
C1175 C1183 1.433 . S
C1176 H1172 0.929 . S
C1176 C1178 1.378 . S
C1176 C1180 1.350 . S
C1177 C1180 1.463 . S
C1177 C1182 1.350 . S
C1177 N1185 1.427 . S
C1178 H1169 0.930 . S
C1178 C1176 1.378 . S
C1178 C1179 1.367 . S
C1179 C1178 1.367 . S
C1179 C1181 1.433 . S
C1180 C1176 1.350 . S
C1180 C1177 1.463 . S
C1180 N1184 1.427 . S
C1181 H1171 0.929 . S
C1181 C1179 1.433 . S
C1181 N1184 1.384 . S
C1182 H1173 0.929 . S
C1182 C1174 1.378 . S
C1182 C1177 1.350 . S
C1183 H1170 0.929 . S
C1183 C1175 1.433 . S
C1183 N1185 1.384 . S
N1184 C1180 1.427 . S
N1184 C1181 1.384 . S
N1185 C1177 1.427 . S
N1185 C1183 1.384 . S
H1186 C1192 0.930 . S
H1187 C1196 0.930 . S
H1188 C1201 0.929 . S
H1189 C1199 0.929 . S
H1190 C1194 0.929 . S
H1191 C1200 0.929 . S
C1192 H1186 0.930 . S
C1192 C1193 1.367 . S
C1192 C1200 1.378 . S
C1193 C1192 1.367 . S
C1193 C1201 1.433 . S
C1194 H1190 0.929 . S
C1194 C1196 1.378 . S
C1194 C1198 1.350 . S
C1195 C1198 1.463 . S
C1195 C1200 1.350 . S
C1195 N1203 1.427 . S
C1196 H1187 0.930 . S
C1196 C1194 1.378 . S
C1196 C1197 1.367 . S
C1197 C1196 1.367 . S
C1197 C1199 1.433 . S
C1198 C1194 1.350 . S
C1198 C1195 1.463 . S
C1198 N1202 1.427 . S
C1199 H1189 0.929 . S
C1199 C1197 1.433 . S
C1199 N1202 1.384 . S
C1200 H1191 0.929 . S
C1200 C1192 1.378 . S
C1200 C1195 1.350 . S
C1201 H1188 0.929 . S
C1201 C1193 1.433 . S
C1201 N1203 1.384 . S
N1202 C1198 1.427 . S
N1202 C1199 1.384 . S
N1203 C1195 1.427 . S
N1203 C1201 1.384 . S
H1204 C1210 0.930 . S
H1205 C1214 0.930 . S
H1206 C1219 0.929 . S
H1207 C1217 0.929 . S
H1208 C1212 0.929 . S
H1209 C1218 0.929 . S
C1210 H1204 0.930 . S
C1210 C1211 1.367 . S
C1210 C1218 1.378 . S
C1211 C1210 1.367 . S
C1211 C1219 1.433 . S
C1212 H1208 0.929 . S
C1212 C1214 1.378 . S
C1212 C1216 1.350 . S
C1213 C1216 1.463 . S
C1213 C1218 1.350 . S
C1213 N1221 1.427 . S
C1214 H1205 0.930 . S
C1214 C1212 1.378 . S
C1214 C1215 1.367 . S
C1215 C1214 1.367 . S
C1215 C1217 1.433 . S
C1216 C1212 1.350 . S
C1216 C1213 1.463 . S
C1216 N1220 1.427 . S
C1217 H1207 0.929 . S
C1217 C1215 1.433 . S
C1217 N1220 1.384 . S
C1218 H1209 0.929 . S
C1218 C1210 1.378 . S
C1218 C1213 1.350 . S
C1219 H1206 0.929 . S
C1219 C1211 1.433 . S
C1219 N1221 1.384 . S
N1220 C1216 1.427 . S
N1220 C1217 1.384 . S
N1221 C1213 1.427 . S
N1221 C1219 1.384 . S
H1222 C1228 0.930 . S
H1223 C1232 0.930 . S
H1224 C1237 0.929 . S
H1225 C1235 0.929 . S
H1226 C1230 0.929 . S
H1227 C1236 0.929 . S
C1228 H1222 0.930 . S
C1228 C1229 1.367 . S
C1228 C1236 1.378 . S
C1229 C1228 1.367 . S
C1229 C1237 1.433 . S
C1230 H1226 0.929 . S
C1230 C1232 1.378 . S
C1230 C1234 1.350 . S
C1231 C1234 1.463 . S
C1231 C1236 1.350 . S
C1231 N1239 1.427 . S
C1232 H1223 0.930 . S
C1232 C1230 1.378 . S
C1232 C1233 1.367 . S
C1233 C1232 1.367 . S
C1233 C1235 1.433 . S
C1234 C1230 1.350 . S
C1234 C1231 1.463 . S
C1234 N1238 1.427 . S
C1235 H1225 0.929 . S
C1235 C1233 1.433 . S
C1235 N1238 1.384 . S
C1236 H1227 0.929 . S
C1236 C1228 1.378 . S
C1236 C1231 1.350 . S
C1237 H1224 0.929 . S
C1237 C1229 1.433 . S
C1237 N1239 1.384 . S
N1238 C1234 1.427 . S
N1238 C1235 1.384 . S
N1239 C1231 1.427 . S
N1239 C1237 1.384 . S
H1240 C1246 0.930 . S
H1241 C1250 0.930 . S
H1242 C1255 0.929 . S
H1243 C1253 0.929 . S
H1244 C1248 0.929 . S
H1245 C1254 0.929 . S
C1246 H1240 0.930 . S
C1246 C1247 1.367 . S
C1246 C1254 1.378 . S
C1247 C1246 1.367 . S
C1247 C1255 1.433 . S
C1248 H1244 0.929 . S
C1248 C1250 1.378 . S
C1248 C1252 1.350 . S
C1249 C1252 1.463 . S
C1249 C1254 1.350 . S
C1249 N1257 1.427 . S
C1250 H1241 0.930 . S
C1250 C1248 1.378 . S
C1250 C1251 1.367 . S
C1251 C1250 1.367 . S
C1251 C1253 1.433 . S
C1252 C1248 1.350 . S
C1252 C1249 1.463 . S
C1252 N1256 1.427 . S
C1253 H1243 0.929 . S
C1253 C1251 1.433 . S
C1253 N1256 1.384 . S
C1254 H1245 0.929 . S
C1254 C1246 1.378 . S
C1254 C1249 1.350 . S
C1255 H1242 0.929 . S
C1255 C1247 1.433 . S
C1255 N1257 1.384 . S
N1256 C1252 1.427 . S
N1256 C1253 1.384 . S
N1257 C1249 1.427 . S
N1257 C1255 1.384 . S
H1258 C1264 0.930 . S
H1259 C1268 0.930 . S
H1260 C1273 0.929 . S
H1261 C1271 0.929 . S
H1262 C1266 0.929 . S
H1263 C1272 0.929 . S
C1264 H1258 0.930 . S
C1264 C1265 1.367 . S
C1264 C1272 1.378 . S
C1265 C1264 1.367 . S
C1265 C1273 1.433 . S
C1266 H1262 0.929 . S
C1266 C1268 1.378 . S
C1266 C1270 1.350 . S
C1267 C1270 1.463 1_655 S
C1267 C1272 1.350 . S
C1267 N1275 1.427 . S
C1268 H1259 0.930 . S
C1268 C1266 1.378 . S
C1268 C1269 1.367 . S
C1269 C1268 1.367 . S
C1269 C1271 1.433 . S
C1270 C1266 1.350 . S
C1270 C1267 1.463 1_455 S
C1270 N1274 1.427 . S
C1271 H1261 0.929 . S
C1271 C1269 1.433 . S
C1271 N1274 1.384 . S
C1272 H1263 0.929 . S
C1272 C1264 1.378 . S
C1272 C1267 1.350 . S
C1273 H1260 0.929 . S
C1273 C1265 1.433 . S
C1273 N1275 1.384 . S
N1274 C1270 1.427 . S
N1274 C1271 1.384 . S
N1275 C1267 1.427 . S
N1275 C1273 1.384 . S
H1276 C1282 0.930 . S
H1277 C1286 0.930 . S
H1278 C1291 0.929 . S
H1279 C1289 0.929 . S
H1280 C1284 0.929 . S
H1281 C1290 0.929 . S
C1282 H1276 0.930 . S
C1282 C1283 1.367 . S
C1282 C1290 1.378 . S
C1283 C1282 1.367 . S
C1283 C1291 1.433 . S
C1284 H1280 0.929 . S
C1284 C1286 1.378 . S
C1284 C1288 1.350 . S
C1285 C1288 1.463 1_655 S
C1285 C1290 1.350 . S
C1285 N1293 1.427 . S
C1286 H1277 0.930 . S
C1286 C1284 1.378 . S
C1286 C1287 1.367 . S
C1287 C1286 1.367 . S
C1287 C1289 1.433 . S
C1288 C1284 1.350 . S
C1288 C1285 1.463 1_455 S
C1288 N1292 1.427 . S
C1289 H1279 0.929 . S
C1289 C1287 1.433 . S
C1289 N1292 1.384 . S
C1290 H1281 0.929 . S
C1290 C1282 1.378 . S
C1290 C1285 1.350 . S
C1291 H1278 0.929 . S
C1291 C1283 1.433 . S
C1291 N1293 1.384 . S
N1292 C1288 1.427 . S
N1292 C1289 1.384 . S
N1293 C1285 1.427 . S
N1293 C1291 1.384 . S
H1294 C1300 0.930 . S
H1295 C1304 0.930 . S
H1296 C1309 0.929 . S
H1297 C1307 0.929 . S
H1298 C1302 0.929 . S
H1299 C1308 0.929 . S
C1300 H1294 0.930 . S
C1300 C1301 1.367 . S
C1300 C1308 1.378 . S
C1301 C1300 1.367 . S
C1301 C1309 1.433 . S
C1302 H1298 0.929 . S
C1302 C1304 1.378 . S
C1302 C1306 1.350 . S
C1303 C1306 1.463 . S
C1303 C1308 1.350 . S
C1303 N1311 1.427 . S
C1304 H1295 0.930 . S
C1304 C1302 1.378 . S
C1304 C1305 1.367 . S
C1305 C1304 1.367 . S
C1305 C1307 1.433 . S
C1306 C1302 1.350 . S
C1306 C1303 1.463 . S
C1306 N1310 1.427 . S
C1307 H1297 0.929 . S
C1307 C1305 1.433 . S
C1307 N1310 1.384 . S
C1308 H1299 0.929 . S
C1308 C1300 1.378 . S
C1308 C1303 1.350 . S
C1309 H1296 0.929 . S
C1309 C1301 1.433 . S
C1309 N1311 1.384 . S
N1310 C1306 1.427 . S
N1310 C1307 1.384 . S
N1311 C1303 1.427 . S
N1311 C1309 1.384 . S
H1312 C1318 0.930 . S
H1313 C1322 0.930 . S
H1314 C1327 0.929 . S
H1315 C1325 0.929 . S
H1316 C1320 0.929 . S
H1317 C1326 0.929 . S
C1318 H1312 0.930 . S
C1318 C1319 1.367 . S
C1318 C1326 1.378 . S
C1319 C1318 1.367 . S
C1319 C1327 1.433 . S
C1320 H1316 0.929 . S
C1320 C1322 1.378 . S
C1320 C1324 1.350 . S
C1321 C1324 1.463 . S
C1321 C1326 1.350 . S
C1321 N1329 1.427 . S
C1322 H1313 0.930 . S
C1322 C1320 1.378 . S
C1322 C1323 1.367 . S
C1323 C1322 1.367 . S
C1323 C1325 1.433 . S
C1324 C1320 1.350 . S
C1324 C1321 1.463 . S
C1324 N1328 1.427 . S
C1325 H1315 0.929 . S
C1325 C1323 1.433 . S
C1325 N1328 1.384 . S
C1326 H1317 0.929 . S
C1326 C1318 1.378 . S
C1326 C1321 1.350 . S
C1327 H1314 0.929 . S
C1327 C1319 1.433 . S
C1327 N1329 1.384 . S
N1328 C1324 1.427 . S
N1328 C1325 1.384 . S
N1329 C1321 1.427 . S
N1329 C1327 1.384 . S
H1330 C1336 0.930 . S
H1331 C1340 0.930 . S
H1332 C1345 0.960 . S
H1333 C1343 0.929 . S
H1334 C1338 0.929 . S
H1335 C1344 0.929 . S
C1336 H1330 0.930 . S
C1336 C1337 1.367 . S
C1336 C1344 1.378 . S
C1337 C1336 1.367 . S
C1337 C1345 1.376 1_565 S
C1338 H1334 0.929 . S
C1338 C1340 1.378 . S
C1338 C1342 1.350 . S
C1339 C1342 1.437 1_565 S
C1339 C1344 1.400 . S
C1339 N1347 1.401 1_565 S
C1340 H1331 0.930 . S
C1340 C1338 1.378 . S
C1340 C1341 1.367 . S
C1341 C1340 1.367 . S
C1341 C1343 1.433 . S
C1342 C1338 1.350 . S
C1342 C1339 1.437 1_545 S
C1342 N1346 1.393 1_545 S
C1343 H1333 0.929 . S
C1343 C1341 1.433 . S
C1343 N1346 1.355 1_545 S
C1344 H1335 0.929 . S
C1344 C1336 1.378 . S
C1344 C1339 1.400 . S
C1345 H1332 0.960 . S
C1345 C1337 1.376 1_545 S
C1345 N1347 1.412 . S
N1346 C1342 1.393 1_565 S
N1346 C1343 1.355 1_565 S
N1347 C1339 1.401 1_545 S
N1347 C1345 1.412 . S
H1348 C1354 0.930 . S
H1349 C1358 0.930 . S
H1350 C1363 0.929 . S
H1351 C1361 0.929 . S
H1352 C1356 0.929 . S
H1353 C1362 0.929 . S
C1354 H1348 0.930 . S
C1354 C1355 1.367 . S
C1354 C1362 1.378 . S
C1355 C1354 1.367 . S
C1355 C1363 1.433 . S
C1356 H1352 0.929 . S
C1356 C1358 1.378 . S
C1356 C1360 1.350 . S
C1357 C1360 1.463 . S
C1357 C1362 1.350 . S
C1357 N1365 1.427 . S
C1358 H1349 0.930 . S
C1358 C1356 1.378 . S
C1358 C1359 1.367 . S
C1359 C1358 1.367 . S
C1359 C1361 1.433 . S
C1360 C1356 1.350 . S
C1360 C1357 1.463 . S
C1360 N1364 1.427 . S
C1361 H1351 0.929 . S
C1361 C1359 1.433 . S
C1361 N1364 1.384 . S
C1362 H1353 0.929 . S
C1362 C1354 1.378 . S
C1362 C1357 1.350 . S
C1363 H1350 0.929 . S
C1363 C1355 1.433 . S
C1363 N1365 1.384 . S
N1364 C1360 1.427 . S
N1364 C1361 1.384 . S
N1365 C1357 1.427 . S
N1365 C1363 1.384 . S
H1366 C1372 0.930 . S
H1367 C1376 0.930 . S
H1368 C1381 0.929 . S
H1369 C1379 0.929 . S
H1370 C1374 0.929 . S
H1371 C1380 0.929 . S
C1372 H1366 0.930 . S
C1372 C1373 1.367 . S
C1372 C1380 1.378 1_556 S
C1373 C1372 1.367 . S
C1373 C1381 1.433 . S
C1374 H1370 0.929 . S
C1374 C1376 1.378 . S
C1374 C1378 1.362 . S
C1375 C1378 1.450 1_545 S
C1375 C1380 1.350 . S
C1375 N1383 1.427 . S
C1376 H1367 0.930 . S
C1376 C1374 1.378 . S
C1376 C1377 1.367 . S
C1377 C1376 1.367 . S
C1377 C1379 1.433 . S
C1378 C1374 1.362 . S
C1378 C1375 1.450 1_565 S
C1378 N1382 1.427 . S
C1379 H1369 0.929 . S
C1379 C1377 1.433 . S
C1379 N1382 1.398 . S
C1380 H1371 0.929 . S
C1380 C1372 1.378 1_554 S
C1380 C1375 1.350 . S
C1381 H1368 0.929 . S
C1381 C1373 1.433 . S
C1381 N1383 1.384 1_556 S
N1382 C1378 1.427 . S
N1382 C1379 1.398 . S
N1383 C1375 1.427 . S
N1383 C1381 1.384 1_554 S
H1384 C1390 0.930 . S
H1385 C1394 0.930 . S
H1386 C1399 0.929 . S
H1387 C1397 0.929 . S
H1388 C1392 0.929 . S
H1389 C1398 0.929 . S
C1390 H1384 0.930 . S
C1390 C1391 1.367 . S
C1390 C1398 1.378 . S
C1391 C1390 1.367 . S
C1391 C1399 1.433 . S
C1392 H1388 0.929 . S
C1392 C1394 1.378 . S
C1392 C1396 1.350 . S
C1393 C1396 1.463 . S
C1393 C1398 1.350 . S
C1393 N1401 1.427 . S
C1394 H1385 0.930 . S
C1394 C1392 1.378 . S
C1394 C1395 1.367 . S
C1395 C1394 1.367 . S
C1395 C1397 1.433 . S
C1396 C1392 1.350 . S
C1396 C1393 1.463 . S
C1396 N1400 1.427 . S
C1397 H1387 0.929 . S
C1397 C1395 1.433 . S
C1397 N1400 1.384 . S
C1398 H1389 0.929 . S
C1398 C1390 1.378 . S
C1398 C1393 1.350 . S
C1399 H1386 0.929 . S
C1399 C1391 1.433 . S
C1399 N1401 1.384 . S
N1400 C1396 1.427 . S
N1400 C1397 1.384 . S
N1401 C1393 1.427 . S
N1401 C1399 1.384 . S
H1402 C1408 0.930 . S
H1403 C1412 0.930 . S
H1404 C1417 0.929 . S
H1405 C1415 0.929 . S
H1406 C1410 0.929 . S
H1407 C1416 0.929 . S
C1408 H1402 0.930 . S
C1408 C1409 1.367 . S
C1408 C1416 1.378 . S
C1409 C1408 1.367 . S
C1409 C1417 1.433 . S
C1410 H1406 0.929 . S
C1410 C1412 1.378 . S
C1410 C1414 1.361 . S
C1411 C1414 1.450 1_545 S
C1411 C1416 1.350 . S
C1411 N1419 1.427 . S
C1412 H1403 0.930 . S
C1412 C1410 1.378 . S
C1412 C1413 1.367 . S
C1413 C1412 1.367 . S
C1413 C1415 1.433 . S
C1414 C1410 1.361 . S
C1414 C1411 1.450 1_565 S
C1414 N1418 1.429 . S
C1415 H1405 0.929 . S
C1415 C1413 1.433 . S
C1415 N1418 1.384 . S
C1416 H1407 0.929 . S
C1416 C1408 1.378 . S
C1416 C1411 1.350 . S
C1417 H1404 0.929 . S
C1417 C1409 1.433 . S
C1417 N1419 1.384 . S
N1418 C1414 1.429 . S
N1418 C1415 1.384 . S
N1419 C1411 1.427 . S
N1419 C1417 1.384 . S
H1420 C1426 0.930 . S
H1421 C1430 0.930 . S
H1422 C1435 0.929 . S
H1423 C1433 0.929 . S
H1424 C1428 0.929 . S
H1425 C1434 0.929 . S
C1426 H1420 0.930 . S
C1426 C1427 1.367 . S
C1426 C1434 1.378 . S
C1427 C1426 1.367 . S
C1427 C1435 1.433 . S
C1428 H1424 0.929 . S
C1428 C1430 1.378 . S
C1428 C1432 1.350 . S
C1429 C1432 1.463 . S
C1429 C1434 1.350 . S
C1429 N1437 1.427 . S
C1430 H1421 0.930 . S
C1430 C1428 1.378 . S
C1430 C1431 1.367 . S
C1431 C1430 1.367 . S
C1431 C1433 1.433 . S
C1432 C1428 1.350 . S
C1432 C1429 1.463 . S
C1432 N1436 1.427 . S
C1433 H1423 0.929 . S
C1433 C1431 1.433 . S
C1433 N1436 1.384 . S
C1434 H1425 0.929 . S
C1434 C1426 1.378 . S
C1434 C1429 1.350 . S
C1435 H1422 0.929 . S
C1435 C1427 1.433 . S
C1435 N1437 1.384 . S
N1436 C1432 1.427 . S
N1436 C1433 1.384 . S
N1437 C1429 1.427 . S
N1437 C1435 1.384 . S
H1438 C1444 0.930 . S
H1439 C1448 0.930 . S
H1440 C1453 0.929 . S
H1441 C1451 0.929 . S
H1442 C1446 0.929 . S
H1443 C1452 0.936 . S
C1444 H1438 0.930 . S
C1444 C1445 1.367 . S
C1444 C1452 1.371 1_565 S
C1445 C1444 1.367 . S
C1445 C1453 1.433 . S
C1446 H1442 0.929 . S
C1446 C1448 1.378 1_554 S
C1446 C1450 1.350 . S
C1447 C1450 1.459 1_565 S
C1447 C1452 1.349 1_565 S
C1447 N1455 1.431 . S
C1448 H1439 0.930 . S
C1448 C1446 1.378 1_556 S
C1448 C1449 1.367 . S
C1449 C1448 1.367 . S
C1449 C1451 1.433 . S
C1450 C1446 1.350 . S
C1450 C1447 1.459 1_545 S
C1450 N1454 1.427 . S
C1451 H1441 0.929 . S
C1451 C1449 1.433 . S
C1451 N1454 1.384 1_556 S
C1452 H1443 0.936 . S
C1452 C1444 1.371 1_545 S
C1452 C1447 1.349 1_545 S
C1453 H1440 0.929 . S
C1453 C1445 1.433 . S
C1453 N1455 1.384 . S
N1454 C1450 1.427 . S
N1454 C1451 1.384 1_554 S
N1455 C1447 1.431 . S
N1455 C1453 1.384 . S
H1456 C1462 0.930 . S
H1457 C1466 0.930 . S
H1458 C1471 0.929 . S
H1459 C1469 0.929 . S
H1460 C1464 0.929 . S
H1461 C1470 0.929 . S
C1462 H1456 0.930 . S
C1462 C1463 1.367 . S
C1462 C1470 1.378 . S
C1463 C1462 1.367 . S
C1463 C1471 1.433 . S
C1464 H1460 0.929 . S
C1464 C1466 1.378 . S
C1464 C1468 1.350 . S
C1465 C1468 1.463 . S
C1465 C1470 1.350 . S
C1465 N1473 1.427 . S
C1466 H1457 0.930 . S
C1466 C1464 1.378 . S
C1466 C1467 1.367 . S
C1467 C1466 1.367 . S
C1467 C1469 1.433 . S
C1468 C1464 1.350 . S
C1468 C1465 1.463 . S
C1468 N1472 1.427 . S
C1469 H1459 0.929 . S
C1469 C1467 1.433 . S
C1469 N1472 1.384 . S
C1470 H1461 0.929 . S
C1470 C1462 1.378 . S
C1470 C1465 1.350 . S
C1471 H1458 0.929 . S
C1471 C1463 1.433 . S
C1471 N1473 1.384 . S
N1472 C1468 1.427 . S
N1472 C1469 1.384 . S
N1473 C1465 1.427 . S
N1473 C1471 1.384 . S
H1474 C1480 0.930 . S
H1475 C1484 0.930 . S
H1476 C1489 0.929 . S
H1477 C1487 0.929 . S
H1478 C1482 0.929 . S
H1479 C1488 0.929 . S
C1480 H1474 0.930 . S
C1480 C1481 1.367 . S
C1480 C1488 1.378 . S
C1481 C1480 1.367 . S
C1481 C1489 1.433 . S
C1482 H1478 0.929 . S
C1482 C1484 1.378 1_554 S
C1482 C1486 1.350 . S
C1483 C1486 1.463 . S
C1483 C1488 1.350 . S
C1483 N1491 1.427 . S
C1484 H1475 0.930 . S
C1484 C1482 1.378 1_556 S
C1484 C1485 1.367 . S
C1485 C1484 1.367 . S
C1485 C1487 1.433 . S
C1486 C1482 1.350 . S
C1486 C1483 1.463 . S
C1486 N1490 1.427 . S
C1487 H1477 0.929 . S
C1487 C1485 1.433 . S
C1487 N1490 1.384 1_556 S
C1488 H1479 0.929 . S
C1488 C1480 1.378 . S
C1488 C1483 1.350 . S
C1489 H1476 0.929 . S
C1489 C1481 1.433 . S
C1489 N1491 1.384 . S
N1490 C1486 1.427 . S
N1490 C1487 1.384 1_554 S
N1491 C1483 1.427 . S
N1491 C1489 1.384 . S
H1492 C1498 0.930 . S
H1493 C1502 0.930 . S
H1494 C1507 0.929 . S
H1495 C1505 0.929 . S
H1496 C1500 0.929 . S
H1497 C1506 0.929 . S
C1498 H1492 0.930 . S
C1498 C1499 1.367 . S
C1498 C1506 1.378 . S
C1499 C1498 1.367 . S
C1499 C1507 1.433 . S
C1500 H1496 0.929 . S
C1500 C1502 1.378 . S
C1500 C1504 1.350 . S
C1501 C1504 1.463 . S
C1501 C1506 1.350 . S
C1501 N1509 1.427 . S
C1502 H1493 0.930 . S
C1502 C1500 1.378 . S
C1502 C1503 1.367 . S
C1503 C1502 1.367 . S
C1503 C1505 1.433 . S
C1504 C1500 1.350 . S
C1504 C1501 1.463 . S
C1504 N1508 1.427 . S
C1505 H1495 0.929 . S
C1505 C1503 1.433 . S
C1505 N1508 1.384 . S
C1506 H1497 0.929 . S
C1506 C1498 1.378 . S
C1506 C1501 1.350 . S
C1507 H1494 0.929 . S
C1507 C1499 1.433 . S
C1507 N1509 1.384 . S
N1508 C1504 1.427 . S
N1508 C1505 1.384 . S
N1509 C1501 1.427 . S
N1509 C1507 1.384 . S
H1510 C1516 0.930 . S
H1511 C1520 0.930 . S
H1512 C1525 0.929 . S
H1513 C1523 0.929 . S
H1514 C1518 0.929 . S
H1515 C1524 0.929 . S
C1516 H1510 0.930 . S
C1516 C1517 1.367 . S
C1516 C1524 1.378 . S
C1517 C1516 1.367 . S
C1517 C1525 1.433 . S
C1518 H1514 0.929 . S
C1518 C1520 1.378 . S
C1518 C1522 1.350 . S
C1519 C1522 1.463 . S
C1519 C1524 1.350 . S
C1519 N1527 1.427 . S
C1520 H1511 0.930 . S
C1520 C1518 1.378 . S
C1520 C1521 1.367 . S
C1521 C1520 1.367 . S
C1521 C1523 1.433 . S
C1522 C1518 1.350 . S
C1522 C1519 1.463 . S
C1522 N1526 1.427 . S
C1523 H1513 0.929 . S
C1523 C1521 1.433 . S
C1523 N1526 1.384 . S
C1524 H1515 0.929 . S
C1524 C1516 1.378 . S
C1524 C1519 1.350 . S
C1525 H1512 0.929 . S
C1525 C1517 1.433 . S
C1525 N1527 1.384 . S
N1526 C1522 1.427 . S
N1526 C1523 1.384 . S
N1527 C1519 1.427 . S
N1527 C1525 1.384 . S
H1528 C1534 0.930 . S
H1529 C1538 0.930 . S
H1530 C1543 0.929 . S
H1531 C1541 0.929 . S
H1532 C1536 0.929 . S
H1533 C1542 0.929 . S
C1534 H1528 0.930 . S
C1534 C1535 1.367 . S
C1534 C1542 1.378 . S
C1535 C1534 1.367 . S
C1535 C1543 1.433 . S
C1536 H1532 0.929 . S
C1536 C1538 1.378 . S
C1536 C1540 1.350 . S
C1537 C1540 1.463 . S
C1537 C1542 1.350 . S
C1537 N1545 1.427 . S
C1538 H1529 0.930 . S
C1538 C1536 1.378 . S
C1538 C1539 1.367 . S
C1539 C1538 1.367 . S
C1539 C1541 1.433 . S
C1540 C1536 1.350 . S
C1540 C1537 1.463 . S
C1540 N1544 1.427 . S
C1541 H1531 0.929 . S
C1541 C1539 1.433 . S
C1541 N1544 1.384 . S
C1542 H1533 0.929 . S
C1542 C1534 1.378 . S
C1542 C1537 1.350 . S
C1543 H1530 0.929 . S
C1543 C1535 1.433 . S
C1543 N1545 1.384 . S
N1544 C1540 1.427 . S
N1544 C1541 1.384 . S
N1545 C1537 1.427 . S
N1545 C1543 1.384 . S
H1546 C1552 0.930 . S
H1547 C1556 0.930 . S
H1548 C1561 0.929 . S
H1549 C1559 0.929 . S
H1550 C1554 0.929 . S
H1551 C1560 0.929 . S
C1552 H1546 0.930 . S
C1552 C1553 1.367 . S
C1552 C1560 1.378 1_556 S
C1553 C1552 1.367 . S
C1553 C1561 1.433 . S
C1554 H1550 0.929 . S
C1554 C1556 1.378 . S
C1554 C1558 1.350 . S
C1555 C1558 1.463 . S
C1555 C1560 1.350 . S
C1555 N1563 1.427 . S
C1556 H1547 0.930 . S
C1556 C1554 1.378 . S
C1556 C1557 1.367 . S
C1557 C1556 1.367 . S
C1557 C1559 1.433 . S
C1558 C1554 1.350 . S
C1558 C1555 1.463 . S
C1558 N1562 1.427 . S
C1559 H1549 0.929 . S
C1559 C1557 1.433 . S
C1559 N1562 1.384 . S
C1560 H1551 0.929 . S
C1560 C1552 1.378 1_554 S
C1560 C1555 1.350 . S
C1561 H1548 0.929 . S
C1561 C1553 1.433 . S
C1561 N1563 1.384 1_556 S
N1562 C1558 1.427 . S
N1562 C1559 1.384 . S
N1563 C1555 1.427 . S
N1563 C1561 1.384 1_554 S
H1564 C1570 0.930 . S
H1565 C1574 0.930 . S
H1566 C1579 0.929 . S
H1567 C1577 0.929 . S
H1568 C1572 0.929 . S
H1569 C1578 0.929 . S
C1570 H1564 0.930 . S
C1570 C1571 1.367 . S
C1570 C1578 1.378 . S
C1571 C1570 1.367 . S
C1571 C1579 1.433 . S
C1572 H1568 0.929 . S
C1572 C1574 1.378 . S
C1572 C1576 1.350 . S
C1573 C1576 1.463 . S
C1573 C1578 1.350 . S
C1573 N1581 1.427 . S
C1574 H1565 0.930 . S
C1574 C1572 1.378 . S
C1574 C1575 1.367 . S
C1575 C1574 1.367 . S
C1575 C1577 1.433 . S
C1576 C1572 1.350 . S
C1576 C1573 1.463 . S
C1576 N1580 1.427 . S
C1577 H1567 0.929 . S
C1577 C1575 1.433 . S
C1577 N1580 1.384 . S
C1578 H1569 0.929 . S
C1578 C1570 1.378 . S
C1578 C1573 1.350 . S
C1579 H1566 0.929 . S
C1579 C1571 1.433 . S
C1579 N1581 1.384 . S
N1580 C1576 1.427 . S
N1580 C1577 1.384 . S
N1581 C1573 1.427 . S
N1581 C1579 1.384 . S
H1582 C1588 0.930 . S
H1583 C1592 0.930 . S
H1584 C1597 0.929 . S
H1585 C1595 0.929 . S
H1586 C1590 0.929 . S
H1587 C1596 0.929 . S
C1588 H1582 0.930 . S
C1588 C1589 1.367 . S
C1588 C1596 1.378 . S
C1589 C1588 1.367 . S
C1589 C1597 1.433 . S
C1590 H1586 0.929 . S
C1590 C1592 1.378 . S
C1590 C1594 1.350 . S
C1591 C1594 1.463 . S
C1591 C1596 1.350 . S
C1591 N1599 1.427 . S
C1592 H1583 0.930 . S
C1592 C1590 1.378 . S
C1592 C1593 1.367 . S
C1593 C1592 1.367 . S
C1593 C1595 1.433 . S
C1594 C1590 1.350 . S
C1594 C1591 1.463 . S
C1594 N1598 1.427 . S
C1595 H1585 0.929 . S
C1595 C1593 1.433 . S
C1595 N1598 1.384 . S
C1596 H1587 0.929 . S
C1596 C1588 1.378 . S
C1596 C1591 1.350 . S
C1597 H1584 0.929 . S
C1597 C1589 1.433 . S
C1597 N1599 1.384 . S
N1598 C1594 1.427 . S
N1598 C1595 1.384 . S
N1599 C1591 1.427 . S
N1599 C1597 1.384 . S
C455 C109 1.524 . S
C459 C11 1.522 . S
C473 C25 1.529 . S
C477 C67 1.531 . S
C491 C81 1.533 . S
C495 C39 1.532 . S
C509 C53 1.532 . S
C513 C95 1.530 . S
C527 C123 1.522 . S
C531 C221 1.524 . S
C545 C137 1.521 . S
C549 C179 1.523 . S
C563 C151 1.532 . S
C567 C193 1.531 . S
C581 C165 1.532 . S
C585 C207 1.531 . S
C599 C235 1.521 . S
C603 C333 1.521 . S
C617 C249 1.528 . S
C621 C291 1.531 . S
C635 C305 1.533 . S
C639 C263 1.533 . S
C653 C319 1.530 . S
C657 C277 1.532 . S
C671 C347 1.521 . S
C675 C445 1.521 . S
C689 C403 1.522 . S
C693 C361 1.525 . S
C707 C417 1.529 . S
C711 C375 1.531 . S
C725 C389 1.532 . S
C729 C431 1.529 . S
C743 C9 0.608 . S
C747 C93 0.605 . S
C761 C23 0.616 . S
C765 C107 0.614 . S
C779 C65 0.616 . S
C783 C37 0.616 . S
C797 C51 0.615 . S
C801 C79 0.613 . S
C815 C121 0.601 . S
C819 C205 0.603 . S
C833 C135 0.615 . S
C837 C219 0.616 . S
C851 C177 0.598 . S
C855 C149 0.599 . S
C869 C191 0.613 . S
C873 C163 0.610 . S
C887 C233 0.598 . S
C891 C317 0.598 . S
C905 C331 0.605 . S
C909 C247 0.602 . S
C923 C289 0.611 . S
C927 C261 0.613 . S
C941 C275 0.615 . S
C945 C303 0.614 . S
C959 C345 0.614 . S
C963 C429 0.613 . S
C977 C359 0.614 . S
C981 C443 0.615 . S
C995 C401 0.601 . S
C999 C373 0.600 . S
C1013 C415 0.601 . S
C1017 C387 0.599 . S
C1031 C5 1.521 . S
C1035 C425 1.522 . S
C1049 C19 1.523 . S
C1053 C215 1.520 . S
C1067 C33 1.520 . S
C1071 C397 1.523 . S
C1085 C47 1.521 . S
C1089 C187 1.522 . S
C1103 C61 1.523 . S
C1107 C369 1.520 . S
C1121 C75 1.523 . S
C1125 C159 1.520 . S
C1139 C89 1.522 . S
C1143 C341 1.521 . S
C1157 C131 1.521 . S
C1161 C103 1.522 . S
C1175 C313 1.522 . S
C1179 C117 1.521 . S
C1193 C145 1.520 . S
C1197 C285 1.523 . S
C1211 C257 1.521 . S
C1215 C173 1.522 . S
C1229 C229 1.522 . S
C1233 C201 1.521 . S
C1247 C243 1.522 . S
C1251 C439 1.521 . S
C1265 C271 1.520 . S
C1269 C411 1.523 . S
C1283 C299 1.523 . S
C1287 C383 1.520 . S
C1301 C355 1.521 . S
C1305 C327 1.521 . S
C1319 C0 1.599 . S
C1323 C84 1.602 . S
C1337 C14 1.605 . S
C1341 C98 1.608 . S
C1355 C56 1.601 1_556 S
C1359 C28 1.608 . S
C1373 C42 1.608 . S
C1377 C70 1.601 . S
C1391 C112 1.606 1_556 S
C1395 C196 1.599 . S
C1409 C126 1.601 . S
C1413 C210 1.608 . S
C1427 C168 1.608 . S
C1431 C140 1.601 . S
C1445 C154 1.606 . S
C1449 C182 1.599 . S
C1463 C308 1.603 1_556 S
C1467 C224 1.609 . S
C1481 C322 1.599 . S
C1485 C238 1.605 . S
C1499 C280 1.603 . S
C1503 C252 1.599 . S
C1517 C294 1.599 . S
C1521 C266 1.604 . S
C1535 C420 1.599 . S
C1539 C336 1.606 . S
C1553 C434 1.607 . S
C1557 C350 1.599 . S
C1571 C364 1.608 1_556 S
C1575 C392 1.602 . S
C1589 C406 1.599 . S
C1593 C378 1.603 . S
