# Generated by pormake.
# Topology zfu, (5)-cn, num edge types: 1
# Building blocks:
#     Node 0, Type 0, BuildingBlock: XOMCOT_clean_sbu_1, # of connection points: 5
#     Node 1, Type 0, BuildingBlock: XOMCOT_clean_sbu_1, # of connection points: 5
#     Node 2, Type 0, BuildingBlock: XOMCOT_clean_sbu_1, # of connection points: 5
#     Node 3, Type 0, BuildingBlock: XOMCOT_clean_sbu_1, # of connection points: 5
#     Node 4, Type 0, BuildingBlock: XOMCOT_clean_sbu_1, # of connection points: 5
#     Node 5, Type 0, BuildingBlock: XOMCOT_clean_sbu_1, # of connection points: 5
#     Node 6, Type 0, BuildingBlock: XOMCOT_clean_sbu_1, # of connection points: 5
#     Node 7, Type 0, BuildingBlock: XOMCOT_clean_sbu_1, # of connection points: 5
#     Edge 8, Type (0, 0), BuildingBlock: AJUNOK_clean_linker_0, # of connection points: 2
#     Edge 9, Type (0, 0), BuildingBlock: AJUNOK_clean_linker_0, # of connection points: 2
#     Edge 10, Type (0, 0), BuildingBlock: AJUNOK_clean_linker_0, # of connection points: 2
#     Edge 11, Type (0, 0), BuildingBlock: AJUNOK_clean_linker_0, # of connection points: 2
#     Edge 12, Type (0, 0), BuildingBlock: AJUNOK_clean_linker_0, # of connection points: 2
#     Edge 13, Type (0, 0), BuildingBlock: AJUNOK_clean_linker_0, # of connection points: 2
#     Edge 14, Type (0, 0), BuildingBlock: AJUNOK_clean_linker_0, # of connection points: 2
#     Edge 15, Type (0, 0), BuildingBlock: AJUNOK_clean_linker_0, # of connection points: 2
#     Edge 16, Type (0, 0), BuildingBlock: AJUNOK_clean_linker_0, # of connection points: 2
#     Edge 17, Type (0, 0), BuildingBlock: AJUNOK_clean_linker_0, # of connection points: 2
#     Edge 18, Type (0, 0), BuildingBlock: AJUNOK_clean_linker_0, # of connection points: 2
#     Edge 19, Type (0, 0), BuildingBlock: AJUNOK_clean_linker_0, # of connection points: 2
#     Edge 20, Type (0, 0), BuildingBlock: AJUNOK_clean_linker_0, # of connection points: 2
#     Edge 21, Type (0, 0), BuildingBlock: AJUNOK_clean_linker_0, # of connection points: 2
#     Edge 22, Type (0, 0), BuildingBlock: AJUNOK_clean_linker_0, # of connection points: 2
#     Edge 23, Type (0, 0), BuildingBlock: AJUNOK_clean_linker_0, # of connection points: 2
#     Edge 24, Type (0, 0), BuildingBlock: AJUNOK_clean_linker_0, # of connection points: 2
#     Edge 25, Type (0, 0), BuildingBlock: AJUNOK_clean_linker_0, # of connection points: 2
#     Edge 26, Type (0, 0), BuildingBlock: AJUNOK_clean_linker_0, # of connection points: 2
#     Edge 27, Type (0, 0), BuildingBlock: AJUNOK_clean_linker_0, # of connection points: 2
# Relax obj value: 0.136
# Max RMSD: 0.160
# Mean RMSD: 0.160
data_MOF--net-zfu--node1-XOMCOT_clean_sbu_1--edge1-AJUNOK_clean_linker_0
_symmetry_space_group_name_H-M    P1
_symmetry_Int_Tables_number       1
_symmetry_cell_setting            triclinic
loop_
_symmetry_equiv_pos_as_xyz
'x, y, z'
_cell_length_a     29.39709
_cell_length_b     29.280303
_cell_length_c     20.810027
_cell_angle_alpha  90.840731
_cell_angle_beta   90.755397
_cell_angle_gamma 90.421549
loop_
_atom_site_label
_atom_site_type_symbol
_atom_site_fract_x
_atom_site_fract_y
_atom_site_fract_z
_atom_type_partial_charge
C0 C 0.45586 0.67836 0.98785 0.0
C1 C 0.483 0.64064 -0.00691 0.0
N2 N 0.5262 0.65377 0.98343 0.0
N3 N 0.48174 0.7152 0.97435 0.0
C4 C 0.5248 0.69911 0.97221 0.0
H5 H 0.41926 0.67873 -0.00767 0.0
Co6 Co 0.45675 0.77275 0.95674 0.0
C7 C 0.52161 0.83925 0.01596 0.0
O8 O 0.48563 0.85791 0.04141 0.0
N9 N 0.42977 0.83159 0.93693 0.0
C10 C 0.38988 0.89626 0.94341 0.0
C11 C 0.40537 0.85935 0.97617 0.0
C12 C 0.42814 0.85354 0.8796 0.0
N13 N 0.40358 0.89251 0.88244 0.0
O14 O 0.47 0.7624 0.8676 0.0
H15 H 0.39953 0.85452 0.02667 0.0
H16 H 0.44349 0.84079 0.836 0.0
O17 O 0.51674 0.80364 0.97936 0.0
C18 C 0.43414 0.73888 0.85293 0.0
O19 O 0.40176 0.73544 0.89543 0.0
N20 N 0.43673 0.77521 0.04063 0.0
C21 C 0.39402 0.74403 0.14955 0.0
C22 C 0.44136 0.75097 0.14986 0.0
C23 C 0.46233 0.76645 0.09424 0.0
C24 C 0.39075 0.76893 0.04055 0.0
C25 C 0.36861 0.7549 0.09493 0.0
H26 H 0.49906 0.76701 0.09231 0.0
H27 H 0.37116 0.77276 -0.00329 0.0
H28 H 0.55423 0.71973 0.96087 0.0
H29 H 0.47196 0.60611 0.0029 0.0
H30 H 0.37004 0.92402 0.96311 0.0
H31 H 0.46218 0.74139 0.19074 0.0
H32 H 0.33204 0.7499 0.09294 0.0
C33 C 0.89195 0.95369 0.25088 0.0
C34 C 0.93201 0.97833 0.25494 0.0
N35 N 0.92235 1.02268 0.24637 0.0
N36 N 0.85721 0.98233 0.23903 0.0
C37 C 0.87687 1.02429 0.2366 0.0
H38 H 0.88839 0.91708 0.25526 0.0
Co39 Co 0.79651 0.96403 0.22394 0.0
C40 C 0.75497 0.05837 0.21439 0.0
O41 O 0.74337 0.05354 0.1535 0.0
N42 N 0.73501 0.94569 0.20732 0.0
C43 C 0.65941 0.94333 0.21226 0.0
C44 C 0.69869 0.96015 0.24081 0.0
C45 C 0.71662 0.91924 0.1591 0.0
N46 N 0.6707 0.91749 0.16096 0.0
O47 O 0.80553 0.97333 0.13411 0.0
H48 H 0.70055 0.98266 0.28247 0.0
H49 H 0.73598 0.90302 0.12154 0.0
O50 O 0.77598 1.02614 0.24256 0.0
C51 C 0.82047 0.93397 0.11758 0.0
O52 O 0.82252 0.90211 0.16141 0.0
N53 N 0.79128 0.94952 0.31097 0.0
C54 C 0.80792 0.91474 0.43319 0.0
C55 C 0.81504 0.96125 0.4208 0.0
C56 C 0.80646 0.97801 0.3593 0.0
C57 C 0.78203 0.90478 0.32284 0.0
C58 C 0.78965 0.8868 0.38379 0.0
H59 H 0.81624 1.01274 0.34914 0.0
H60 H 0.77166 0.88211 0.28376 0.0
H61 H 0.85857 0.05528 0.22606 0.0
H62 H 0.9657 0.96477 0.26333 0.0
H63 H 0.62499 0.95038 0.22721 0.0
H64 H 0.8305 0.98381 0.45668 0.0
H65 H 0.78371 0.85071 0.39119 0.0
C66 C 0.6329 0.39851 0.54075 0.0
C67 C 0.60686 0.43634 0.55444 0.0
N68 N 0.56773 0.4328 0.52033 0.0
N69 N 0.60995 0.37097 0.4988 0.0
C70 C 0.57063 0.3932 0.48665 0.0
H71 H 0.6662 0.3913 0.56069 0.0
Co72 Co 0.6268 0.31321 0.4654 0.0
C73 C 0.53481 0.26801 0.45133 0.0
O74 O 0.54199 0.25382 0.39217 0.0
N75 N 0.64221 0.25457 0.4323 0.0
C76 C 0.64825 0.17887 0.42911 0.0
C77 C 0.63021 0.21542 0.4614 0.0
C78 C 0.66767 0.24061 0.38168 0.0
N79 N 0.67185 0.19449 0.37896 0.0
O80 O 0.6157 0.33523 0.38055 0.0
H81 H 0.61018 0.21354 0.50452 0.0
H82 H 0.68403 0.26371 0.34891 0.0
O83 O 0.56508 0.29204 0.48065 0.0
C84 C 0.65273 0.35821 0.37398 0.0
O85 O 0.68383 0.35627 0.41986 0.0
N86 N 0.64484 0.29559 0.54669 0.0
C87 C 0.6899 0.30422 0.66377 0.0
C88 C 0.64205 0.30323 0.66094 0.0
C89 C 0.61988 0.29899 0.60128 0.0
C90 C 0.69087 0.29127 0.54947 0.0
C91 C 0.71417 0.29546 0.60761 0.0
H92 H 0.58351 0.3037 0.5985 0.0
H93 H 0.71005 0.28977 0.50552 0.0
H94 H 0.54422 0.38023 0.45439 0.0
H95 H 0.61617 0.46451 0.58634 0.0
H96 H 0.64468 0.14332 0.44189 0.0
H97 H 0.62222 0.30997 0.7035 0.0
H98 H 0.75098 0.29707 0.60714 0.0
C99 C 0.23973 1.04137 0.61442 0.0
C100 C 0.20614 1.00948 0.62409 0.0
N101 N 0.19361 1.01255 0.68591 0.0
N102 N 0.24826 0.0649 0.66949 0.0
C103 C 0.21906 0.04674 0.71216 0.0
H104 H 0.25764 0.04671 0.57006 0.0
Co105 Co 0.29668 0.10659 0.67 0.0
C106 C 0.3593 1.03506 0.70379 0.0
O107 O 0.37331 1.03481 0.64414 0.0
N108 N 0.34656 0.14617 0.66543 0.0
C109 C 0.40852 0.18809 0.68544 0.0
C110 C 0.37459 0.16219 0.71245 0.0
C111 C 0.36426 0.16228 0.61044 0.0
N112 N 0.40219 0.18792 0.6211 0.0
O113 O 0.26148 0.14613 0.61387 0.0
H114 H 0.3711 0.15481 0.76294 0.0
H115 H 0.3494 0.15521 0.56348 0.0
O116 O 0.3309 0.06503 0.72231 0.0
C117 C 0.21902 0.1557 0.61318 0.0
O118 O 0.19233 0.13951 0.65769 0.0
N119 N 0.27582 0.13906 0.74565 0.0
C120 C 0.24132 0.18675 0.85225 0.0
C121 C 0.2546 0.14107 0.85715 0.0
C122 C 0.27242 0.11818 0.80382 0.0
C123 C 0.26712 0.18491 0.74221 0.0
C124 C 0.24925 0.20913 0.79446 0.0
H125 H 0.28228 0.08308 0.80958 0.0
H126 H 0.27376 0.20336 0.69873 0.0
H127 H 0.21704 0.05669 0.76202 0.0
H128 H 0.19226 0.9858 0.58844 0.0
H129 H 0.43652 0.20464 0.71106 0.0
H130 H 0.25122 0.12305 0.90193 0.0
H131 H 0.24096 0.24488 0.78922 0.0
C132 C 1.03183 0.86572 0.89867 0.0
C133 C 0.06288 0.89934 0.88483 0.0
N134 N 0.06811 0.89954 0.82086 0.0
N135 N 1.01647 0.84553 0.84366 0.0
C136 C 1.03995 0.86672 0.79698 0.0
H137 H 1.0215 0.85592 0.94626 0.0
Co138 Co 0.97688 0.79505 0.84769 0.0
C139 C 0.05794 0.74658 0.81683 0.0
O140 O 0.07046 0.75676 0.87617 0.0
N141 N 0.93939 0.74392 0.8566 0.0
C142 C 0.89939 0.68008 0.84061 0.0
C143 C 0.92418 0.71388 0.81141 0.0
C144 C 0.92398 0.72748 0.91277 0.0
N145 N 0.89947 0.68849 0.90452 0.0
O146 O 0.93584 0.83097 0.90167 0.0
H147 H 0.93126 0.71601 0.76066 0.0
H148 H 0.93063 0.74405 0.95878 0.0
O149 O 1.01878 0.75908 0.79704 0.0
C150 C 0.92347 0.87283 0.90035 0.0
O151 O 0.93934 0.90021 0.85635 0.0
N152 N 0.94323 0.81181 0.77118 0.0
C153 C 0.89336 0.84006 0.66298 0.0
C154 C 0.93928 0.82822 0.65811 0.0
C155 C 0.96321 0.81328 0.71221 0.0
C156 C 0.89734 0.81916 0.77502 0.0
C157 C 0.87204 0.83393 0.722 0.0
H158 H 0.99792 0.80291 0.7058 0.0
H159 H 0.8795 0.81321 0.81915 0.0
H160 H 1.0378 0.85824 0.74661 0.0
H161 H 0.08143 0.9208 0.9191 0.0
H162 H 0.88364 0.65078 0.8168 0.0
H163 H 0.95688 0.83093 0.6129 0.0
H164 H 0.83596 0.83999 0.72712 0.0
C165 C 0.69629 0.44903 -0.00105 0.0
C166 C 0.65826 0.47374 0.9826 0.0
N167 N 0.6644 0.5174 0.00287 0.0
N168 N 0.72651 0.4769 0.02934 0.0
C169 C 0.7062 0.51821 0.03083 0.0
H170 H 0.70145 0.41298 0.98985 0.0
Co171 Co 0.78352 0.46169 0.06511 0.0
C172 C 0.82491 0.55631 0.07929 0.0
O173 O 0.83746 0.55164 0.13963 0.0
N174 N 0.84118 0.44765 0.1009 0.0
C175 C 0.91647 0.44632 0.11407 0.0
C176 C 0.88118 0.4627 0.07747 0.0
C177 C 0.85325 0.42127 0.15134 0.0
N178 N 0.89889 0.42037 0.16036 0.0
O179 O 0.75926 0.47334 0.14867 0.0
H180 H 0.88456 0.48399 0.03574 0.0
H181 H 0.82928 0.40294 0.18061 0.0
O182 O 0.80387 0.52381 0.05008 0.0
C183 C 0.73752 0.43551 0.15531 0.0
O184 O 0.74363 0.4028 0.1124 0.0
N185 N 0.80302 0.44348 0.9849 0.0
C186 C 0.78971 0.39784 0.86898 0.0
C187 C 0.79153 0.44584 0.8713 0.0
C188 C 0.79804 0.4683 0.93039 0.0
C189 C 0.80746 0.39727 0.98209 0.0
C190 C 0.80078 0.37361 0.92442 0.0
H191 H 0.79327 0.5048 0.93318 0.0
H192 H 0.81016 0.37817 0.02603 0.0
H193 H 0.72222 0.54839 0.0515 0.0
H194 H 0.62802 0.46023 0.95872 0.0
H195 H 0.95241 0.45223 0.10665 0.0
H196 H 0.78331 0.46564 0.82919 0.0
H197 H 0.79885 0.33668 0.92523 0.0
C198 C 0.13054 0.19306 0.24081 0.0
C199 C 0.10517 0.15383 0.23159 0.0
N200 N 0.06198 0.16187 0.24973 0.0
N201 N 0.10382 0.22611 0.26477 0.0
C202 C 0.06227 0.20621 0.26971 0.0
H203 H 0.16641 0.19715 0.2313 0.0
Co204 Co 0.124 0.28518 0.2883 0.0
C205 C 1.0363 0.33317 0.31182 0.0
O206 O 0.05057 0.34911 0.36794 0.0
N207 N 0.14473 0.34489 0.31327 0.0
C208 C 0.15099 0.42076 0.32222 0.0
C209 C 0.13309 0.38485 0.28603 0.0
C210 C 0.17062 0.35768 0.36523 0.0
N211 N 0.1747 0.40343 0.37175 0.0
O212 O 0.1169 0.26967 0.37639 0.0
H213 H 0.11131 0.38776 0.24401 0.0
H214 H 0.18501 0.33436 0.3995 0.0
O215 O 0.06218 0.30762 0.27856 0.0
C216 C 0.1551 0.2509 0.38869 0.0
O217 O 0.18562 0.24943 0.34306 0.0
N218 N 0.13582 0.29664 0.20193 0.0
C219 C 0.16516 0.27717 0.07782 0.0
C220 C 0.11854 0.28081 0.09081 0.0
C221 C 0.10445 0.29036 0.15354 0.0
C222 C 0.1811 0.29778 0.1889 0.0
C223 C 0.19656 0.28831 0.12697 0.0
H224 H 0.06864 0.28808 0.16398 0.0
H225 H 0.20554 0.3015 0.22798 0.0
H226 H 1.03294 0.22425 0.28715 0.0
H227 H 0.11806 0.12154 0.214 0.0
H228 H 0.14589 0.45679 0.31395 0.0
H229 H 0.09321 0.27318 0.05386 0.0
H230 H 0.2328 0.28577 0.11906 0.0
C231 C 0.38323 0.62455 0.48643 0.0
C232 C 0.42367 0.60215 0.47643 0.0
N233 N 0.42346 0.5638 0.51129 0.0
N234 N 0.35721 0.59979 0.52623 0.0
C235 C 0.38297 0.56322 0.54117 0.0
H236 H 0.37314 0.65655 0.46546 0.0
Co237 Co 0.2981 0.61299 0.55508 0.0
C238 C 0.25416 0.52033 0.57043 0.0
O239 O 0.23359 0.53139 0.62406 0.0
N240 N 0.23826 0.6258 0.58462 0.0
C241 C 0.16259 0.62852 0.58743 0.0
C242 C 0.19933 0.61178 0.5549 0.0
C243 C 0.22394 0.65157 0.6351 0.0
N244 N 0.1779 0.65361 0.63804 0.0
O245 O 0.32205 0.61248 0.64137 0.0
H246 H 0.19766 0.59064 0.51186 0.0
H247 H 0.24677 0.66961 0.66792 0.0
O248 O 0.2829 0.54798 0.54673 0.0
C249 C 0.33856 0.65336 0.64277 0.0
O250 O 0.32832 0.6802 0.59461 0.0
N251 N 0.27882 0.62074 0.47107 0.0
C252 C 0.29506 0.65697 0.35266 0.0
C253 C 0.29955 0.60984 0.3616 0.0
C254 C 0.29062 0.59199 0.42192 0.0
C255 C 0.26721 0.66485 0.45983 0.0
C256 C 0.27418 0.68355 0.39998 0.0
H257 H 0.30043 0.55721 0.43136 0.0
H258 H 0.25846 0.68735 0.49936 0.0
H259 H 0.37197 0.53632 0.57267 0.0
H260 H 0.45128 0.61332 0.44639 0.0
H261 H 0.12718 0.62247 0.57486 0.0
H262 H 0.31517 0.5883 0.32547 0.0
H263 H 0.26895 0.7198 0.39355 0.0
C264 C 0.60026 0.55377 0.94507 0.0
C265 C 0.6325 0.55467 -0.00408 0.0
C266 C 0.56678 0.58746 0.93967 0.0
C267 C 0.56477 0.62396 0.98393 0.0
H268 H 0.60038 0.52644 0.90952 0.0
H269 H 0.54159 0.58458 0.90133 0.0
S270 S 0.6396 0.64314 0.12601 0.0
N271 N 0.65889 0.59575 0.09246 0.0
N272 N 0.59693 0.65974 0.07976 0.0
C273 C 0.59719 0.6264 0.03371 0.0
C274 C 0.63088 0.59167 0.04026 0.0
C275 C 1.02612 0.09114 0.20472 0.0
C276 C 1.02453 0.12907 0.24738 0.0
C277 C 0.99235 0.05701 0.20407 0.0
C278 C 0.9548 0.05977 0.24477 0.0
H279 H 0.05388 0.08741 0.17151 0.0
H280 H 0.99556 1.02809 0.17145 0.0
S281 S 0.93298 0.15063 0.36568 0.0
N282 N 0.98142 0.16607 0.33272 0.0
N283 N 0.91711 0.1028 0.32849 0.0
C284 C 0.95165 0.0977 0.28636 0.0
C285 C 0.98661 0.13215 0.28831 0.0
C286 C 0.51281 0.4798 0.46002 0.0
C287 C 0.53084 0.465 0.51903 0.0
C288 C 0.47788 0.51231 0.45782 0.0
C289 C 0.45892 0.53014 0.51453 0.0
H290 H 0.52651 0.4668 0.41536 0.0
H291 H 0.46525 0.52336 0.41151 0.0
S292 S 0.49318 0.50158 0.68102 0.0
N293 N 0.52687 0.47032 0.63539 0.0
N294 N 0.46041 0.53043 0.63114 0.0
C295 C 0.47608 0.51502 0.57374 0.0
C296 C 0.51229 0.48274 0.57602 0.0
C297 C 0.10355 0.97432 0.80031 0.0
C298 C 0.09938 0.92742 0.78592 0.0
C299 C 0.13418 1.00199 0.76715 0.0
C300 C 0.16187 0.98364 0.71871 0.0
H301 H 0.08258 0.98969 0.83702 0.0
H302 H 0.13595 1.03808 0.77905 0.0
S303 S 0.16764 0.86155 0.66893 0.0
N304 N 0.12757 0.86309 0.72375 0.0
N305 N 0.1857 0.91477 0.66198 0.0
C306 C 0.15871 0.93648 0.70503 0.0
C307 C 0.12732 0.90845 0.73852 0.0
C308 C 0.3156 0.66432 0.23755 0.0
C309 C 0.32032 0.67961 0.30137 0.0
C310 C 0.34044 0.6849 0.18897 0.0
C311 C 0.3708 0.72135 0.20273 0.0
H312 H 0.29239 0.63657 0.22511 0.0
H313 H 0.33579 0.67221 0.14013 0.0
S314 S 0.39819 0.77115 0.36323 0.0
N315 N 0.36015 0.73083 0.3769 0.0
N316 N 0.40566 0.77049 0.28474 0.0
C317 C 0.37677 0.73608 0.26657 0.0
C318 C 0.35168 0.71503 0.31612 0.0
C319 C 0.85206 0.85457 0.49059 0.0
C320 C 0.82534 0.89426 0.49378 0.0
C321 C 0.87294 0.83678 0.54562 0.0
C322 C 0.86804 0.85788 0.60627 0.0
H323 H 0.85823 0.83785 0.44479 0.0
H324 H 0.89355 0.80646 0.54042 0.0
S325 S 0.79995 0.96137 0.64143 0.0
N326 N 0.79326 0.95284 0.56325 0.0
N327 N 0.83354 0.92015 0.66654 0.0
C328 C 0.84048 0.89693 0.61054 0.0
C329 C 0.81905 0.915 0.55439 0.0
C330 C 0.72454 0.39008 0.79237 0.0
C331 C 0.76663 0.37364 0.81465 0.0
C332 C 0.69902 0.36605 0.74589 0.0
C333 C 0.71432 0.32434 0.72013 0.0
H334 H 0.71071 0.42153 0.81171 0.0
H335 H 0.66762 0.38104 0.72873 0.0
S336 S 0.82161 0.26569 0.76351 0.0
N337 N 0.82249 0.31296 0.80782 0.0
N338 N 0.77355 0.26678 0.72157 0.0
C339 C 0.75599 0.30701 0.74267 0.0
C340 C 0.78231 0.33183 0.78969 0.0
C341 C 0.23585 0.25389 0.9287 0.0
C342 C 0.21962 0.21084 0.90732 0.0
C343 C 0.21725 0.2759 0.98271 0.0
C344 C 0.18125 0.25602 0.01675 0.0
H345 H 0.264 0.2701 0.90461 0.0
H346 H 0.23153 0.30845 -0.00152 0.0
S347 S 0.12535 0.14455 0.97874 0.0
N348 N 0.16427 0.15006 0.92286 0.0
N349 N 0.12989 0.19088 0.0246 0.0
C350 C 0.16404 0.21348 -0.00515 0.0
C351 C 0.1831 0.19104 0.9402 0.0
C352 C 0.38287 0.71884 0.69104 0.0
C353 C 0.3701 0.67213 0.6934 0.0
C354 C 0.40998 0.73968 0.7392 0.0
C355 C 0.42583 0.71464 0.79148 0.0
H356 H 0.37011 0.74045 0.65316 0.0
H357 H 0.41523 0.77634 0.73825 0.0
S358 S 0.40844 0.59054 0.8168 0.0
N359 N 0.38024 0.60064 0.74934 0.0
N360 N 0.43091 0.63999 0.84034 0.0
C361 C 0.41635 0.66736 0.79221 0.0
C362 C 0.38854 0.64604 0.7432 0.0
C363 C 0.86686 0.95233 0.02097 0.0
C364 C 0.83763 0.92243 0.05307 0.0
C365 C 0.89319 0.93659 0.96924 0.0
C366 C 0.89129 0.89046 0.94871 0.0
H367 H 0.87177 0.98704 0.03859 0.0
H368 H 0.91702 0.96003 0.94768 0.0
S369 S 0.81379 0.80102 0.00981 0.0
N370 N 0.8036 0.8465 0.05505 0.0
N371 N 0.85321 0.81703 0.9589 0.0
C372 C 0.85961 0.86136 0.97744 0.0
C373 C 0.83269 0.87738 0.02932 0.0
C374 C 0.71755 0.44103 0.27158 0.0
C375 C 0.70695 0.42547 0.20926 0.0
C376 C 0.69641 0.42143 0.32468 0.0
C377 C 0.66391 0.38579 0.31725 0.0
H378 H 0.74471 0.46573 0.27973 0.0
H379 H 0.70775 0.4324 0.37223 0.0
S380 S 0.61804 0.3396 0.16311 0.0
N381 N 0.6567 0.37763 0.14223 0.0
N382 N 0.61772 0.34061 0.24247 0.0
C383 C 0.6497 0.37338 0.25505 0.0
C384 C 0.67117 0.39326 0.20091 0.0
C385 C 0.21448 0.2326 0.46919 0.0
C386 C 0.168 0.23296 0.45215 0.0
C387 C 0.23023 0.20895 0.52266 0.0
C388 C 0.20016 0.18457 0.56151 0.0
H389 H 0.23933 0.24963 0.43969 0.0
H390 H 0.26652 0.20886 0.53247 0.0
S391 S 0.07449 0.17765 0.5403 0.0
N392 N 0.09157 0.20943 0.48014 0.0
N393 N 0.12092 0.1647 0.58157 0.0
C394 C 0.15313 0.18667 0.54714 0.0
C395 C 0.13708 0.211 0.49227 0.0
C396 C 0.42493 0.94191 0.79141 0.0
C397 C 0.39169 0.92378 0.8321 0.0
C398 C 0.41434 0.97758 0.74892 0.0
C399 C 0.37037 0.99646 0.74658 0.0
H400 H 0.45954 0.92966 0.79426 0.0
H401 H 0.44098 0.99139 0.71927 0.0
S402 S 0.26968 0.95515 0.8351 0.0
N403 N 0.31195 0.92319 0.86103 0.0
N404 N 0.2924 0.99017 0.78283 0.0
C405 C 0.33654 0.97681 0.7847 0.0
C406 C 0.34711 0.94048 0.827 0.0
C407 C 0.56811 0.90576 0.05291 0.0
C408 C 0.56633 0.85867 0.03774 0.0
C409 C 0.60347 0.92489 0.09042 0.0
C410 C 0.63917 0.89804 0.11394 0.0
H411 H 0.54035 0.92777 0.03879 0.0
H412 H 0.60204 0.96082 0.1033 0.0
S413 S 0.65388 0.77403 0.08292 0.0
N414 N 0.60557 0.78615 0.04551 0.0
N415 N 0.67299 0.82262 0.11498 0.0
C416 C 0.63998 0.8516 0.09527 0.0
C417 C 0.60338 0.8318 0.05731 0.0
C418 C 0.7436 0.09712 0.32132 0.0
C419 C 0.7382 0.0979 0.25392 0.0
C420 C 0.72383 0.13019 0.36121 0.0
C421 C 0.69797 0.16605 0.33593 0.0
H422 H 0.76173 0.06972 0.34421 0.0
H423 H 0.72767 0.12692 0.41277 0.0
S424 S 0.67615 0.18707 0.16321 0.0
N425 N 0.70706 0.14013 0.16357 0.0
N426 N 0.67006 0.20237 0.23934 0.0
C427 C 0.69408 0.16904 0.26878 0.0
C428 C 0.71403 0.13496 0.22769 0.0
C429 C 0.48499 0.27075 0.5483 0.0
C430 C 0.49613 0.24967 0.48929 0.0
C431 C 0.45344 0.25104 0.58995 0.0
C432 C 0.43138 0.2094 0.57455 0.0
H433 H 0.50151 0.30241 0.56326 0.0
H434 H 0.44668 0.26831 0.63514 0.0
S435 S 0.44747 0.14043 0.42553 0.0
N436 N 0.48137 0.18508 0.41696 0.0
N437 N 0.42246 0.14799 0.49541 0.0
C438 C 0.44096 0.18862 0.5148 0.0
C439 C 0.47316 0.20876 0.47219 0.0
C440 C 0.83804 0.63645 0.93861 0.0
C441 C 0.87889 0.66007 0.95276 0.0
C442 C 0.8197 0.6049 0.98146 0.0
C443 C 0.84142 0.59536 0.04047 0.0
H444 H 0.82045 0.64183 0.89335 0.0
H445 H 0.78868 0.58699 0.96738 0.0
S446 S 0.94859 0.64903 0.10174 0.0
N447 N 0.93995 0.67265 0.0311 0.0
N448 N 0.90537 0.61363 0.11184 0.0
C449 C 0.88132 0.62014 0.05657 0.0
C450 C 0.90008 0.65236 0.01271 0.0
C451 C 0.9817 0.39737 0.29408 0.0
C452 C 0.9947 0.352 0.28083 0.0
C453 C 0.94797 0.41884 0.25692 0.0
C454 C 0.92526 0.39539 0.20646 0.0
H455 H 0.99964 0.41741 0.33064 0.0
H456 H 0.941 0.45465 0.26563 0.0
S457 S 0.94295 0.27525 0.15601 0.0
N458 N 0.9795 0.28355 0.21611 0.0
N459 N 0.91579 0.32404 0.14745 0.0
C460 C 0.93588 0.34945 0.19516 0.0
C461 C 0.97063 0.3277 0.23213 0.0
C462 C 0.26131 0.46406 0.47833 0.0
C463 C 0.23426 0.48451 0.52623 0.0
C464 C 0.24193 0.43625 0.42911 0.0
C465 C 0.19473 0.42861 0.42523 0.0
H466 H 0.29762 0.47061 0.47791 0.0
H467 H 0.26371 0.42187 0.39259 0.0
S468 S 0.1086 0.47336 0.53736 0.0
N469 N 0.15735 0.49383 0.56628 0.0
N470 N 0.12151 0.44251 0.47314 0.0
C471 C 0.16743 0.44788 0.47305 0.0
C472 C 0.18704 0.47551 0.52375 0.0
C473 C 0.108 0.6967 0.66308 0.0
C474 C 0.14978 0.67814 0.68344 0.0
C475 C 0.07873 0.71852 0.70637 0.0
C476 C 0.08985 0.7229 0.77222 0.0
H477 H 0.09779 0.69452 0.61296 0.0
H478 H 0.04711 0.7321 0.68776 0.0
S479 S 0.19486 0.67915 0.8508 0.0
N480 N 0.20035 0.66478 0.77431 0.0
N481 N 0.14594 0.70626 0.85569 0.0
C482 C 0.13174 0.70471 0.79329 0.0
C483 C 0.16154 0.68235 0.749 0.0
loop_
_geom_bond_atom_site_label_1
_geom_bond_atom_site_label_2
_geom_bond_distance
_geom_bond_site_symmetry_2
_ccdc_geom_bond_type
C0 C1 1.351 . S
C0 N3 1.368 . S
C0 H5 0.931 . S
C1 C0 1.351 . S
C1 N2 1.373 . S
C1 H29 0.930 . S
N2 C1 1.373 . S
N2 C4 1.340 . S
N3 C0 1.368 . S
N3 C4 1.321 . S
N3 Co6 2.135 . S
C4 N2 1.340 . S
C4 N3 1.321 . S
C4 H28 0.930 1_556 S
H5 C0 0.931 . S
Co6 N3 2.135 . S
Co6 N9 2.121 . S
Co6 O14 2.055 . S
Co6 O17 2.039 . S
Co6 N20 2.140 1_556 S
C7 O8 1.227 . S
C7 O17 1.265 1_554 S
O8 C7 1.227 . S
N9 Co6 2.121 . S
N9 C11 1.375 1_556 S
N9 C12 1.313 . S
C10 C11 1.337 1_556 S
C10 N13 1.379 . S
C10 H30 0.928 1_556 S
C11 N9 1.375 1_554 S
C11 C10 1.337 1_554 S
C11 H15 0.931 . S
C12 N9 1.313 . S
C12 N13 1.344 . S
C12 H16 0.930 . S
N13 C10 1.379 . S
N13 C12 1.344 . S
O14 Co6 2.055 . S
O14 C18 1.253 . S
H15 C11 0.931 . S
H16 C12 0.930 . S
O17 Co6 2.039 . S
O17 C7 1.265 1_556 S
C18 O14 1.253 . S
C18 O19 1.227 . S
O19 C18 1.227 . S
N20 Co6 2.140 1_554 S
N20 C23 1.346 . S
N20 C24 1.345 . S
C21 C22 1.387 . S
C21 C25 1.391 . S
C22 C21 1.387 . S
C22 C23 1.369 . S
C22 H31 0.929 . S
C23 N20 1.346 . S
C23 C22 1.369 . S
C23 H26 0.928 . S
C24 N20 1.345 . S
C24 C25 1.371 . S
C24 H27 0.931 . S
C25 C21 1.391 . S
C25 C24 1.371 . S
C25 H32 0.930 . S
H26 C23 0.928 . S
H27 C24 0.931 . S
H28 C4 0.930 1_554 S
H29 C1 0.930 . S
H30 C10 0.928 1_554 S
H31 C22 0.929 . S
H32 C25 0.930 . S
C33 C34 1.351 . S
C33 N36 1.368 . S
C33 H38 0.931 . S
C34 C33 1.351 . S
C34 N35 1.373 1_565 S
C34 H62 0.930 . S
N35 C34 1.373 1_545 S
N35 C37 1.340 . S
N36 C33 1.368 . S
N36 C37 1.321 1_565 S
N36 Co39 2.135 . S
C37 N35 1.340 . S
C37 N36 1.321 1_545 S
C37 H61 0.930 . S
H38 C33 0.931 . S
Co39 N36 2.135 . S
Co39 N42 2.121 . S
Co39 O47 2.055 . S
Co39 O50 2.039 . S
Co39 N53 2.140 . S
C40 O41 1.227 1_545 S
C40 O50 1.265 1_545 S
O41 C40 1.227 1_565 S
N42 Co39 2.121 . S
N42 C44 1.375 . S
N42 C45 1.313 . S
C43 C44 1.338 . S
C43 N46 1.377 . S
C43 H63 0.930 . S
C44 N42 1.375 . S
C44 C43 1.338 . S
C44 H48 0.931 . S
C45 N42 1.313 . S
C45 N46 1.344 . S
C45 H49 0.930 . S
N46 C43 1.377 . S
N46 C45 1.344 . S
O47 Co39 2.055 . S
O47 C51 1.253 . S
H48 C44 0.931 . S
H49 C45 0.930 . S
O50 Co39 2.039 . S
O50 C40 1.265 1_565 S
C51 O47 1.253 . S
C51 O52 1.227 . S
O52 C51 1.227 . S
N53 Co39 2.140 . S
N53 C56 1.346 . S
N53 C57 1.345 . S
C54 C55 1.387 . S
C54 C58 1.391 . S
C55 C54 1.387 . S
C55 C56 1.369 . S
C55 H64 0.929 . S
C56 N53 1.346 . S
C56 C55 1.369 . S
C56 H59 0.928 . S
C57 N53 1.345 . S
C57 C58 1.371 . S
C57 H60 0.931 . S
C58 C54 1.391 . S
C58 C57 1.371 . S
C58 H65 0.930 . S
H59 C56 0.928 . S
H60 C57 0.931 . S
H61 C37 0.930 . S
H62 C34 0.930 . S
H63 C43 0.930 . S
H64 C55 0.929 . S
H65 C58 0.930 . S
C66 C67 1.351 . S
C66 N69 1.368 . S
C66 H71 0.931 . S
C67 C66 1.351 . S
C67 N68 1.373 . S
C67 H95 0.930 . S
N68 C67 1.373 . S
N68 C70 1.340 . S
N69 C66 1.368 . S
N69 C70 1.321 . S
N69 Co72 2.135 . S
C70 N68 1.340 . S
C70 N69 1.321 . S
C70 H94 0.930 . S
H71 C66 0.931 . S
Co72 N69 2.135 . S
Co72 N75 2.121 . S
Co72 O80 2.055 . S
Co72 O83 2.039 . S
Co72 N86 2.140 . S
C73 O74 1.227 . S
C73 O83 1.265 . S
O74 C73 1.227 . S
N75 Co72 2.121 . S
N75 C77 1.375 . S
N75 C78 1.313 . S
C76 C77 1.338 . S
C76 N79 1.377 . S
C76 H96 0.930 . S
C77 N75 1.375 . S
C77 C76 1.338 . S
C77 H81 0.931 . S
C78 N75 1.313 . S
C78 N79 1.344 . S
C78 H82 0.930 . S
N79 C76 1.377 . S
N79 C78 1.344 . S
O80 Co72 2.055 . S
O80 C84 1.253 . S
H81 C77 0.931 . S
H82 C78 0.930 . S
O83 Co72 2.039 . S
O83 C73 1.265 . S
C84 O80 1.253 . S
C84 O85 1.227 . S
O85 C84 1.227 . S
N86 Co72 2.140 . S
N86 C89 1.346 . S
N86 C90 1.345 . S
C87 C88 1.387 . S
C87 C91 1.391 . S
C88 C87 1.387 . S
C88 C89 1.369 . S
C88 H97 0.929 . S
C89 N86 1.346 . S
C89 C88 1.369 . S
C89 H92 0.928 . S
C90 N86 1.345 . S
C90 C91 1.371 . S
C90 H93 0.931 . S
C91 C87 1.391 . S
C91 C90 1.371 . S
C91 H98 0.930 . S
H92 C89 0.928 . S
H93 C90 0.931 . S
H94 C70 0.930 . S
H95 C67 0.930 . S
H96 C76 0.930 . S
H97 C88 0.929 . S
H98 C91 0.930 . S
C99 C100 1.351 . S
C99 N102 1.368 . S
C99 H104 0.931 . S
C100 C99 1.351 . S
C100 N101 1.373 1_545 S
C100 H128 0.930 . S
N101 C100 1.373 1_565 S
N101 C103 1.340 . S
N102 C99 1.368 . S
N102 C103 1.321 1_545 S
N102 Co105 2.135 . S
C103 N101 1.340 . S
C103 N102 1.321 1_565 S
C103 H127 0.930 . S
H104 C99 0.931 . S
Co105 N102 2.135 . S
Co105 N108 2.121 . S
Co105 O113 2.055 . S
Co105 O116 2.039 . S
Co105 N119 2.140 . S
C106 O107 1.227 1_565 S
C106 O116 1.265 1_565 S
O107 C106 1.227 1_545 S
N108 Co105 2.121 . S
N108 C110 1.375 . S
N108 C111 1.313 . S
C109 C110 1.338 . S
C109 N112 1.377 . S
C109 H129 0.930 . S
C110 N108 1.375 . S
C110 C109 1.338 . S
C110 H114 0.931 . S
C111 N108 1.313 . S
C111 N112 1.344 . S
C111 H115 0.930 . S
N112 C109 1.377 . S
N112 C111 1.344 . S
O113 Co105 2.055 . S
O113 C117 1.253 . S
H114 C110 0.931 . S
H115 C111 0.930 . S
O116 Co105 2.039 . S
O116 C106 1.265 1_545 S
C117 O113 1.253 . S
C117 O118 1.227 . S
O118 C117 1.227 . S
N119 Co105 2.140 . S
N119 C122 1.346 . S
N119 C123 1.345 . S
C120 C121 1.387 . S
C120 C124 1.391 . S
C121 C120 1.387 . S
C121 C122 1.369 . S
C121 H130 0.929 . S
C122 N119 1.346 . S
C122 C121 1.369 . S
C122 H125 0.928 . S
C123 N119 1.345 . S
C123 C124 1.371 . S
C123 H126 0.931 . S
C124 C120 1.391 . S
C124 C123 1.371 . S
C124 H131 0.930 . S
H125 C122 0.928 . S
H126 C123 0.931 . S
H127 C103 0.930 . S
H128 C100 0.930 . S
H129 C109 0.930 . S
H130 C121 0.929 . S
H131 C124 0.930 . S
C132 C133 1.351 . S
C132 N135 1.368 . S
C132 H137 0.931 . S
C133 C132 1.351 . S
C133 N134 1.373 1_655 S
C133 H161 0.930 . S
N134 C133 1.373 1_455 S
N134 C136 1.340 . S
N135 C132 1.368 . S
N135 C136 1.321 1_655 S
N135 Co138 2.135 . S
C136 N134 1.340 . S
C136 N135 1.321 1_455 S
C136 H160 0.930 . S
H137 C132 0.931 . S
Co138 N135 2.135 . S
Co138 N141 2.121 . S
Co138 O146 2.055 . S
Co138 O149 2.039 . S
Co138 N152 2.140 . S
C139 O140 1.227 1_455 S
C139 O149 1.265 1_455 S
O140 C139 1.227 1_655 S
N141 Co138 2.121 . S
N141 C143 1.375 . S
N141 C144 1.313 . S
C142 C143 1.338 . S
C142 N145 1.377 . S
C142 H162 0.930 . S
C143 N141 1.375 . S
C143 C142 1.338 . S
C143 H147 0.931 . S
C144 N141 1.313 . S
C144 N145 1.344 . S
C144 H148 0.930 . S
N145 C142 1.377 . S
N145 C144 1.344 . S
O146 Co138 2.055 . S
O146 C150 1.253 . S
H147 C143 0.931 . S
H148 C144 0.930 . S
O149 Co138 2.039 . S
O149 C139 1.265 1_655 S
C150 O146 1.253 . S
C150 O151 1.227 . S
O151 C150 1.227 . S
N152 Co138 2.140 . S
N152 C155 1.346 . S
N152 C156 1.345 . S
C153 C154 1.387 . S
C153 C157 1.391 . S
C154 C153 1.387 . S
C154 C155 1.369 . S
C154 H163 0.929 . S
C155 N152 1.346 . S
C155 C154 1.369 . S
C155 H158 0.928 . S
C156 N152 1.345 . S
C156 C157 1.371 . S
C156 H159 0.931 . S
C157 C153 1.391 . S
C157 C156 1.371 . S
C157 H164 0.930 . S
H158 C155 0.928 . S
H159 C156 0.931 . S
H160 C136 0.930 . S
H161 C133 0.930 . S
H162 C142 0.930 . S
H163 C154 0.929 . S
H164 C157 0.930 . S
C165 C166 1.351 . S
C165 N168 1.368 . S
C165 H170 0.931 . S
C166 C165 1.351 . S
C166 N167 1.373 . S
C166 H194 0.930 . S
N167 C166 1.373 . S
N167 C169 1.340 . S
N168 C165 1.368 . S
N168 C169 1.321 . S
N168 Co171 2.135 . S
C169 N167 1.340 . S
C169 N168 1.321 . S
C169 H193 0.930 . S
H170 C165 0.931 . S
Co171 N168 2.135 . S
Co171 N174 2.121 . S
Co171 O179 2.055 . S
Co171 O182 2.039 . S
Co171 N185 2.140 1_554 S
C172 O173 1.227 1_554 S
C172 O182 1.265 . S
O173 C172 1.227 1_556 S
N174 Co171 2.121 . S
N174 C176 1.375 . S
N174 C177 1.313 . S
C175 C176 1.338 . S
C175 N178 1.377 . S
C175 H195 0.930 . S
C176 N174 1.375 . S
C176 C175 1.338 . S
C176 H180 0.931 1_554 S
C177 N174 1.313 . S
C177 N178 1.344 . S
C177 H181 0.930 . S
N178 C175 1.377 . S
N178 C177 1.344 . S
O179 Co171 2.055 . S
O179 C183 1.253 . S
H180 C176 0.931 1_556 S
H181 C177 0.930 . S
O182 Co171 2.039 . S
O182 C172 1.265 . S
C183 O179 1.253 . S
C183 O184 1.227 . S
O184 C183 1.227 . S
N185 Co171 2.140 1_556 S
N185 C188 1.346 . S
N185 C189 1.345 . S
C186 C187 1.387 . S
C186 C190 1.391 . S
C187 C186 1.387 . S
C187 C188 1.369 . S
C187 H196 0.929 . S
C188 N185 1.346 . S
C188 C187 1.369 . S
C188 H191 0.928 . S
C189 N185 1.345 . S
C189 C190 1.371 . S
C189 H192 0.931 1_556 S
C190 C186 1.391 . S
C190 C189 1.371 . S
C190 H197 0.930 . S
H191 C188 0.928 . S
H192 C189 0.931 1_554 S
H193 C169 0.930 . S
H194 C166 0.930 . S
H195 C175 0.930 . S
H196 C187 0.929 . S
H197 C190 0.930 . S
C198 C199 1.351 . S
C198 N201 1.368 . S
C198 H203 0.931 . S
C199 C198 1.351 . S
C199 N200 1.373 1_455 S
C199 H227 0.930 . S
N200 C199 1.373 1_655 S
N200 C202 1.340 . S
N201 C198 1.368 . S
N201 C202 1.321 1_455 S
N201 Co204 2.135 . S
C202 N200 1.340 . S
C202 N201 1.321 1_655 S
C202 H226 0.930 . S
H203 C198 0.931 . S
Co204 N201 2.135 . S
Co204 N207 2.121 . S
Co204 O212 2.055 . S
Co204 O215 2.039 . S
Co204 N218 2.140 . S
C205 O206 1.227 1_655 S
C205 O215 1.265 1_655 S
O206 C205 1.227 1_455 S
N207 Co204 2.121 . S
N207 C209 1.375 . S
N207 C210 1.313 . S
C208 C209 1.338 . S
C208 N211 1.377 . S
C208 H228 0.930 . S
C209 N207 1.375 . S
C209 C208 1.338 . S
C209 H213 0.931 . S
C210 N207 1.313 . S
C210 N211 1.344 . S
C210 H214 0.930 . S
N211 C208 1.377 . S
N211 C210 1.344 . S
O212 Co204 2.055 . S
O212 C216 1.253 . S
H213 C209 0.931 . S
H214 C210 0.930 . S
O215 Co204 2.039 . S
O215 C205 1.265 1_455 S
C216 O212 1.253 . S
C216 O217 1.227 . S
O217 C216 1.227 . S
N218 Co204 2.140 . S
N218 C221 1.346 . S
N218 C222 1.345 . S
C219 C220 1.387 . S
C219 C223 1.391 . S
C220 C219 1.387 . S
C220 C221 1.369 . S
C220 H229 0.929 . S
C221 N218 1.346 . S
C221 C220 1.369 . S
C221 H224 0.928 . S
C222 N218 1.345 . S
C222 C223 1.371 . S
C222 H225 0.931 . S
C223 C219 1.391 . S
C223 C222 1.371 . S
C223 H230 0.930 . S
H224 C221 0.928 . S
H225 C222 0.931 . S
H226 C202 0.930 . S
H227 C199 0.930 . S
H228 C208 0.930 . S
H229 C220 0.929 . S
H230 C223 0.930 . S
C231 C232 1.351 . S
C231 N234 1.368 . S
C231 H236 0.931 . S
C232 C231 1.351 . S
C232 N233 1.373 . S
C232 H260 0.930 . S
N233 C232 1.373 . S
N233 C235 1.340 . S
N234 C231 1.368 . S
N234 C235 1.321 . S
N234 Co237 2.135 . S
C235 N233 1.340 . S
C235 N234 1.321 . S
C235 H259 0.930 . S
H236 C231 0.931 . S
Co237 N234 2.135 . S
Co237 N240 2.121 . S
Co237 O245 2.055 . S
Co237 O248 2.039 . S
Co237 N251 2.140 . S
C238 O239 1.227 . S
C238 O248 1.265 . S
O239 C238 1.227 . S
N240 Co237 2.121 . S
N240 C242 1.375 . S
N240 C243 1.313 . S
C241 C242 1.338 . S
C241 N244 1.377 . S
C241 H261 0.930 . S
C242 N240 1.375 . S
C242 C241 1.338 . S
C242 H246 0.931 . S
C243 N240 1.313 . S
C243 N244 1.344 . S
C243 H247 0.930 . S
N244 C241 1.377 . S
N244 C243 1.344 . S
O245 Co237 2.055 . S
O245 C249 1.253 . S
H246 C242 0.931 . S
H247 C243 0.930 . S
O248 Co237 2.039 . S
O248 C238 1.265 . S
C249 O245 1.253 . S
C249 O250 1.227 . S
O250 C249 1.227 . S
N251 Co237 2.140 . S
N251 C254 1.346 . S
N251 C255 1.345 . S
C252 C253 1.387 . S
C252 C256 1.391 . S
C253 C252 1.387 . S
C253 C254 1.369 . S
C253 H262 0.929 . S
C254 N251 1.346 . S
C254 C253 1.369 . S
C254 H257 0.928 . S
C255 N251 1.345 . S
C255 C256 1.371 . S
C255 H258 0.931 . S
C256 C252 1.391 . S
C256 C255 1.371 . S
C256 H263 0.930 . S
H257 C254 0.928 . S
H258 C255 0.931 . S
H259 C235 0.930 . S
H260 C232 0.930 . S
H261 C241 0.930 . S
H262 C253 0.929 . S
H263 C256 0.930 . S
C264 C265 1.369 . S
C264 C266 1.419 . S
C264 H268 0.930 . S
C265 C264 1.369 . S
C265 C274 1.429 . S
C266 C264 1.419 . S
C266 C267 1.363 . S
C266 H269 0.929 1_554 S
C267 C266 1.363 . S
C267 C273 1.428 . S
H268 C264 0.930 . S
H269 C266 0.929 1_556 S
S270 N271 1.613 . S
S270 N272 1.610 . S
N271 S270 1.613 . S
N271 C274 1.350 . S
N272 S270 1.610 . S
N272 C273 1.351 . S
C273 C267 1.428 . S
C273 N272 1.351 . S
C273 C274 1.434 . S
C274 C265 1.429 . S
C274 N271 1.350 . S
C274 C273 1.434 . S
C275 C276 1.369 . S
C275 C277 1.419 . S
C275 H279 0.930 . S
C276 C275 1.369 . S
C276 C285 1.429 . S
C277 C275 1.419 . S
C277 C278 1.363 . S
C277 H280 0.929 . S
C278 C277 1.363 . S
C278 C284 1.428 . S
H279 C275 0.930 . S
H280 C277 0.929 . S
S281 N282 1.613 . S
S281 N283 1.610 . S
N282 S281 1.613 . S
N282 C285 1.350 . S
N283 S281 1.610 . S
N283 C284 1.351 . S
C284 C278 1.428 . S
C284 N283 1.351 . S
C284 C285 1.434 . S
C285 C276 1.429 . S
C285 N282 1.350 . S
C285 C284 1.434 . S
C286 C287 1.369 . S
C286 C288 1.419 . S
C286 H290 0.930 . S
C287 C286 1.369 . S
C287 C296 1.429 . S
C288 C286 1.419 . S
C288 C289 1.363 . S
C288 H291 0.929 . S
C289 C288 1.363 . S
C289 C295 1.428 . S
H290 C286 0.930 . S
H291 C288 0.929 . S
S292 N293 1.613 . S
S292 N294 1.610 . S
N293 S292 1.613 . S
N293 C296 1.350 . S
N294 S292 1.610 . S
N294 C295 1.351 . S
C295 C289 1.428 . S
C295 N294 1.351 . S
C295 C296 1.434 . S
C296 C287 1.429 . S
C296 N293 1.350 . S
C296 C295 1.434 . S
C297 C298 1.369 . S
C297 C299 1.419 . S
C297 H301 0.930 . S
C298 C297 1.369 . S
C298 C307 1.429 . S
C299 C297 1.419 . S
C299 C300 1.363 . S
C299 H302 0.929 . S
C300 C299 1.363 . S
C300 C306 1.428 . S
H301 C297 0.930 . S
H302 C299 0.929 . S
S303 N304 1.613 . S
S303 N305 1.610 . S
N304 S303 1.613 . S
N304 C307 1.350 . S
N305 S303 1.610 . S
N305 C306 1.351 . S
C306 C300 1.428 . S
C306 N305 1.351 . S
C306 C307 1.434 . S
C307 C298 1.429 . S
C307 N304 1.350 . S
C307 C306 1.434 . S
C308 C309 1.369 . S
C308 C310 1.419 . S
C308 H312 0.930 . S
C309 C308 1.369 . S
C309 C318 1.429 . S
C310 C308 1.419 . S
C310 C311 1.363 . S
C310 H313 0.929 . S
C311 C310 1.363 . S
C311 C317 1.428 . S
H312 C308 0.930 . S
H313 C310 0.929 . S
S314 N315 1.613 . S
S314 N316 1.610 . S
N315 S314 1.613 . S
N315 C318 1.350 . S
N316 S314 1.610 . S
N316 C317 1.351 . S
C317 C311 1.428 . S
C317 N316 1.351 . S
C317 C318 1.434 . S
C318 C309 1.429 . S
C318 N315 1.350 . S
C318 C317 1.434 . S
C319 C320 1.369 . S
C319 C321 1.419 . S
C319 H323 0.930 . S
C320 C319 1.369 . S
C320 C329 1.429 . S
C321 C319 1.419 . S
C321 C322 1.363 . S
C321 H324 0.929 . S
C322 C321 1.363 . S
C322 C328 1.428 . S
H323 C319 0.930 . S
H324 C321 0.929 . S
S325 N326 1.613 . S
S325 N327 1.610 . S
N326 S325 1.613 . S
N326 C329 1.350 . S
N327 S325 1.610 . S
N327 C328 1.351 . S
C328 C322 1.428 . S
C328 N327 1.351 . S
C328 C329 1.434 . S
C329 C320 1.429 . S
C329 N326 1.350 . S
C329 C328 1.434 . S
C330 C331 1.369 . S
C330 C332 1.419 . S
C330 H334 0.930 . S
C331 C330 1.369 . S
C331 C340 1.429 . S
C332 C330 1.419 . S
C332 C333 1.363 . S
C332 H335 0.929 . S
C333 C332 1.363 . S
C333 C339 1.428 . S
H334 C330 0.930 . S
H335 C332 0.929 . S
S336 N337 1.613 . S
S336 N338 1.610 . S
N337 S336 1.613 . S
N337 C340 1.350 . S
N338 S336 1.610 . S
N338 C339 1.351 . S
C339 C333 1.428 . S
C339 N338 1.351 . S
C339 C340 1.434 . S
C340 C331 1.429 . S
C340 N337 1.350 . S
C340 C339 1.434 . S
C341 C342 1.369 1_554 S
C341 C343 1.419 . S
C341 H345 0.930 1_554 S
C342 C341 1.369 1_556 S
C342 C351 1.429 . S
C343 C341 1.419 . S
C343 C344 1.363 . S
C343 H346 0.929 . S
C344 C343 1.363 . S
C344 C350 1.428 . S
H345 C341 0.930 1_556 S
H346 C343 0.929 . S
S347 N348 1.613 . S
S347 N349 1.610 1_556 S
N348 S347 1.613 . S
N348 C351 1.350 . S
N349 S347 1.610 1_554 S
N349 C350 1.351 . S
C350 C344 1.428 . S
C350 N349 1.351 . S
C350 C351 1.434 1_554 S
C351 C342 1.429 . S
C351 N348 1.350 . S
C351 C350 1.434 1_556 S
C352 C353 1.369 . S
C352 C354 1.419 . S
C352 H356 0.930 . S
C353 C352 1.369 . S
C353 C362 1.429 . S
C354 C352 1.419 . S
C354 C355 1.363 . S
C354 H357 0.929 . S
C355 C354 1.363 . S
C355 C361 1.428 . S
H356 C352 0.930 . S
H357 C354 0.929 . S
S358 N359 1.613 . S
S358 N360 1.610 . S
N359 S358 1.613 . S
N359 C362 1.350 . S
N360 S358 1.610 . S
N360 C361 1.351 . S
C361 C355 1.428 . S
C361 N360 1.351 . S
C361 C362 1.434 . S
C362 C353 1.429 . S
C362 N359 1.350 . S
C362 C361 1.434 . S
C363 C364 1.369 . S
C363 C365 1.419 1_554 S
C363 H367 0.930 . S
C364 C363 1.369 . S
C364 C373 1.429 . S
C365 C363 1.419 1_556 S
C365 C366 1.363 . S
C365 H368 0.929 . S
C366 C365 1.363 . S
C366 C372 1.428 1_556 S
H367 C363 0.930 . S
H368 C365 0.929 . S
S369 N370 1.613 . S
S369 N371 1.610 . S
N370 S369 1.613 . S
N370 C373 1.350 . S
N371 S369 1.610 . S
N371 C372 1.351 . S
C372 C366 1.428 1_554 S
C372 N371 1.351 . S
C372 C373 1.434 . S
C373 C364 1.429 . S
C373 N370 1.350 . S
C373 C372 1.434 . S
C374 C375 1.369 . S
C374 C376 1.419 . S
C374 H378 0.930 . S
C375 C374 1.369 . S
C375 C384 1.429 . S
C376 C374 1.419 . S
C376 C377 1.363 . S
C376 H379 0.929 . S
C377 C376 1.363 . S
C377 C383 1.428 . S
H378 C374 0.930 . S
H379 C376 0.929 . S
S380 N381 1.613 . S
S380 N382 1.610 . S
N381 S380 1.613 . S
N381 C384 1.350 . S
N382 S380 1.610 . S
N382 C383 1.351 . S
C383 C377 1.428 . S
C383 N382 1.351 . S
C383 C384 1.434 . S
C384 C375 1.429 . S
C384 N381 1.350 . S
C384 C383 1.434 . S
C385 C386 1.369 . S
C385 C387 1.419 . S
C385 H389 0.930 . S
C386 C385 1.369 . S
C386 C395 1.429 . S
C387 C385 1.419 . S
C387 C388 1.363 . S
C387 H390 0.929 . S
C388 C387 1.363 . S
C388 C394 1.428 . S
H389 C385 0.930 . S
H390 C387 0.929 . S
S391 N392 1.613 . S
S391 N393 1.610 . S
N392 S391 1.613 . S
N392 C395 1.350 . S
N393 S391 1.610 . S
N393 C394 1.351 . S
C394 C388 1.428 . S
C394 N393 1.351 . S
C394 C395 1.434 . S
C395 C386 1.429 . S
C395 N392 1.350 . S
C395 C394 1.434 . S
C396 C397 1.369 . S
C396 C398 1.419 . S
C396 H400 0.930 . S
C397 C396 1.369 . S
C397 C406 1.429 . S
C398 C396 1.419 . S
C398 C399 1.363 . S
C398 H401 0.929 . S
C399 C398 1.363 . S
C399 C405 1.428 . S
H400 C396 0.930 . S
H401 C398 0.929 . S
S402 N403 1.613 . S
S402 N404 1.610 . S
N403 S402 1.613 . S
N403 C406 1.350 . S
N404 S402 1.610 . S
N404 C405 1.351 . S
C405 C399 1.428 . S
C405 N404 1.351 . S
C405 C406 1.434 . S
C406 C397 1.429 . S
C406 N403 1.350 . S
C406 C405 1.434 . S
C407 C408 1.369 . S
C407 C409 1.419 . S
C407 H411 0.930 . S
C408 C407 1.369 . S
C408 C417 1.429 . S
C409 C407 1.419 . S
C409 C410 1.363 . S
C409 H412 0.929 . S
C410 C409 1.363 . S
C410 C416 1.428 . S
H411 C407 0.930 . S
H412 C409 0.929 . S
S413 N414 1.613 . S
S413 N415 1.610 . S
N414 S413 1.613 . S
N414 C417 1.350 . S
N415 S413 1.610 . S
N415 C416 1.351 . S
C416 C410 1.428 . S
C416 N415 1.351 . S
C416 C417 1.434 . S
C417 C408 1.429 . S
C417 N414 1.350 . S
C417 C416 1.434 . S
C418 C419 1.369 . S
C418 C420 1.419 . S
C418 H422 0.930 . S
C419 C418 1.369 . S
C419 C428 1.429 . S
C420 C418 1.419 . S
C420 C421 1.363 . S
C420 H423 0.929 . S
C421 C420 1.363 . S
C421 C427 1.428 . S
H422 C418 0.930 . S
H423 C420 0.929 . S
S424 N425 1.613 . S
S424 N426 1.610 . S
N425 S424 1.613 . S
N425 C428 1.350 . S
N426 S424 1.610 . S
N426 C427 1.351 . S
C427 C421 1.428 . S
C427 N426 1.351 . S
C427 C428 1.434 . S
C428 C419 1.429 . S
C428 N425 1.350 . S
C428 C427 1.434 . S
C429 C430 1.369 . S
C429 C431 1.419 . S
C429 H433 0.930 . S
C430 C429 1.369 . S
C430 C439 1.429 . S
C431 C429 1.419 . S
C431 C432 1.363 . S
C431 H434 0.929 . S
C432 C431 1.363 . S
C432 C438 1.428 . S
H433 C429 0.930 . S
H434 C431 0.929 . S
S435 N436 1.613 . S
S435 N437 1.610 . S
N436 S435 1.613 . S
N436 C439 1.350 . S
N437 S435 1.610 . S
N437 C438 1.351 . S
C438 C432 1.428 . S
C438 N437 1.351 . S
C438 C439 1.434 . S
C439 C430 1.429 . S
C439 N436 1.350 . S
C439 C438 1.434 . S
C440 C441 1.369 . S
C440 C442 1.419 . S
C440 H444 0.930 . S
C441 C440 1.369 . S
C441 C450 1.429 . S
C442 C440 1.419 . S
C442 C443 1.363 . S
C442 H445 0.929 1_556 S
C443 C442 1.363 . S
C443 C449 1.428 . S
H444 C440 0.930 . S
H445 C442 0.929 1_554 S
S446 N447 1.613 . S
S446 N448 1.610 . S
N447 S446 1.613 . S
N447 C450 1.350 . S
N448 S446 1.610 . S
N448 C449 1.351 . S
C449 C443 1.428 . S
C449 N448 1.351 . S
C449 C450 1.434 . S
C450 C441 1.429 . S
C450 N447 1.350 . S
C450 C449 1.434 . S
C451 C452 1.369 . S
C451 C453 1.419 . S
C451 H455 0.930 . S
C452 C451 1.369 . S
C452 C461 1.429 . S
C453 C451 1.419 . S
C453 C454 1.363 . S
C453 H456 0.929 . S
C454 C453 1.363 . S
C454 C460 1.428 . S
H455 C451 0.930 . S
H456 C453 0.929 . S
S457 N458 1.613 . S
S457 N459 1.610 . S
N458 S457 1.613 . S
N458 C461 1.350 . S
N459 S457 1.610 . S
N459 C460 1.351 . S
C460 C454 1.428 . S
C460 N459 1.351 . S
C460 C461 1.434 . S
C461 C452 1.429 . S
C461 N458 1.350 . S
C461 C460 1.434 . S
C462 C463 1.369 . S
C462 C464 1.419 . S
C462 H466 0.930 . S
C463 C462 1.369 . S
C463 C472 1.429 . S
C464 C462 1.419 . S
C464 C465 1.363 . S
C464 H467 0.929 . S
C465 C464 1.363 . S
C465 C471 1.428 . S
H466 C462 0.930 . S
H467 C464 0.929 . S
S468 N469 1.613 . S
S468 N470 1.610 . S
N469 S468 1.613 . S
N469 C472 1.350 . S
N470 S468 1.610 . S
N470 C471 1.351 . S
C471 C465 1.428 . S
C471 N470 1.351 . S
C471 C472 1.434 . S
C472 C463 1.429 . S
C472 N469 1.350 . S
C472 C471 1.434 . S
C473 C474 1.369 . S
C473 C475 1.419 . S
C473 H477 0.930 . S
C474 C473 1.369 . S
C474 C483 1.429 . S
C475 C473 1.419 . S
C475 C476 1.363 . S
C475 H478 0.929 . S
C476 C475 1.363 . S
C476 C482 1.428 . S
H477 C473 0.930 . S
H478 C475 0.929 . S
S479 N480 1.613 . S
S479 N481 1.610 . S
N480 S479 1.613 . S
N480 C483 1.350 . S
N481 S479 1.610 . S
N481 C482 1.351 . S
C482 C476 1.428 . S
C482 N481 1.351 . S
C482 C483 1.434 . S
C483 C474 1.429 . S
C483 N480 1.350 . S
C483 C482 1.434 . S
C265 N167 1.288 . S
C267 N2 1.287 1_554 S
C276 N200 1.284 . S
C278 N35 1.291 . S
C287 N68 1.289 . S
C289 N233 1.286 . S
C298 N134 1.290 . S
C300 N101 1.291 . S
C309 C252 1.022 . S
C311 C21 1.021 . S
C320 C54 1.020 . S
C322 C153 1.020 . S
C331 C186 1.022 . S
C333 C87 1.021 . S
C342 C120 1.018 . S
C344 C219 1.018 . S
C353 C249 1.722 . S
C355 C18 1.716 . S
C364 C51 1.715 . S
C366 C150 1.722 . S
C375 C183 1.714 . S
C377 C84 1.722 . S
C386 C216 1.723 . S
C388 C117 1.716 . S
C397 N13 1.697 . S
C399 C106 1.668 . S
C408 C7 1.668 . S
C410 N46 1.697 . S
C419 C40 1.675 . S
C421 N79 1.690 . S
C430 C73 1.677 . S
C432 N112 1.691 . S
C441 N145 1.692 . S
C443 C172 1.671 1_556 S
C452 C205 1.670 . S
C454 N178 1.697 . S
C463 C238 1.674 . S
C465 N211 1.691 . S
C474 N244 1.690 . S
C476 C139 1.673 . S
