# Generated by pormake.
# Topology cag, (4)-cn, num edge types: 1
# Building blocks:
#     Node 0, Type 0, BuildingBlock: KUFVIS_clean_sbu_0, # of connection points: 4
#     Node 1, Type 0, BuildingBlock: KUFVIS_clean_sbu_0, # of connection points: 4
#     Node 2, Type 0, BuildingBlock: KUFVIS_clean_sbu_0, # of connection points: 4
#     Node 3, Type 0, BuildingBlock: KUFVIS_clean_sbu_0, # of connection points: 4
#     Node 4, Type 0, BuildingBlock: KUFVIS_clean_sbu_0, # of connection points: 4
#     Node 5, Type 0, BuildingBlock: KUFVIS_clean_sbu_0, # of connection points: 4
#     Node 6, Type 0, BuildingBlock: KUFVIS_clean_sbu_0, # of connection points: 4
#     Node 7, Type 0, BuildingBlock: KUFVIS_clean_sbu_0, # of connection points: 4
#     Node 8, Type 0, BuildingBlock: KUFVIS_clean_sbu_0, # of connection points: 4
#     Node 9, Type 0, BuildingBlock: KUFVIS_clean_sbu_0, # of connection points: 4
#     Node 10, Type 0, BuildingBlock: KUFVIS_clean_sbu_0, # of connection points: 4
#     Node 11, Type 0, BuildingBlock: KUFVIS_clean_sbu_0, # of connection points: 4
#     Node 12, Type 0, BuildingBlock: KUFVIS_clean_sbu_0, # of connection points: 4
#     Node 13, Type 0, BuildingBlock: KUFVIS_clean_sbu_0, # of connection points: 4
#     Node 14, Type 0, BuildingBlock: KUFVIS_clean_sbu_0, # of connection points: 4
#     Node 15, Type 0, BuildingBlock: KUFVIS_clean_sbu_0, # of connection points: 4
#     Edge 16, Type (0, 0), BuildingBlock: CIFDUS_clean_linker_0, # of connection points: 2
#     Edge 17, Type (0, 0), BuildingBlock: CIFDUS_clean_linker_0, # of connection points: 2
#     Edge 18, Type (0, 0), BuildingBlock: CIFDUS_clean_linker_0, # of connection points: 2
#     Edge 19, Type (0, 0), BuildingBlock: CIFDUS_clean_linker_0, # of connection points: 2
#     Edge 20, Type (0, 0), BuildingBlock: CIFDUS_clean_linker_0, # of connection points: 2
#     Edge 21, Type (0, 0), BuildingBlock: CIFDUS_clean_linker_0, # of connection points: 2
#     Edge 22, Type (0, 0), BuildingBlock: CIFDUS_clean_linker_0, # of connection points: 2
#     Edge 23, Type (0, 0), BuildingBlock: CIFDUS_clean_linker_0, # of connection points: 2
#     Edge 24, Type (0, 0), BuildingBlock: CIFDUS_clean_linker_0, # of connection points: 2
#     Edge 25, Type (0, 0), BuildingBlock: CIFDUS_clean_linker_0, # of connection points: 2
#     Edge 26, Type (0, 0), BuildingBlock: CIFDUS_clean_linker_0, # of connection points: 2
#     Edge 27, Type (0, 0), BuildingBlock: CIFDUS_clean_linker_0, # of connection points: 2
#     Edge 28, Type (0, 0), BuildingBlock: CIFDUS_clean_linker_0, # of connection points: 2
#     Edge 29, Type (0, 0), BuildingBlock: CIFDUS_clean_linker_0, # of connection points: 2
#     Edge 30, Type (0, 0), BuildingBlock: CIFDUS_clean_linker_0, # of connection points: 2
#     Edge 31, Type (0, 0), BuildingBlock: CIFDUS_clean_linker_0, # of connection points: 2
#     Edge 32, Type (0, 0), BuildingBlock: CIFDUS_clean_linker_0, # of connection points: 2
#     Edge 33, Type (0, 0), BuildingBlock: CIFDUS_clean_linker_0, # of connection points: 2
#     Edge 34, Type (0, 0), BuildingBlock: CIFDUS_clean_linker_0, # of connection points: 2
#     Edge 35, Type (0, 0), BuildingBlock: CIFDUS_clean_linker_0, # of connection points: 2
#     Edge 36, Type (0, 0), BuildingBlock: CIFDUS_clean_linker_0, # of connection points: 2
#     Edge 37, Type (0, 0), BuildingBlock: CIFDUS_clean_linker_0, # of connection points: 2
#     Edge 38, Type (0, 0), BuildingBlock: CIFDUS_clean_linker_0, # of connection points: 2
#     Edge 39, Type (0, 0), BuildingBlock: CIFDUS_clean_linker_0, # of connection points: 2
#     Edge 40, Type (0, 0), BuildingBlock: CIFDUS_clean_linker_0, # of connection points: 2
#     Edge 41, Type (0, 0), BuildingBlock: CIFDUS_clean_linker_0, # of connection points: 2
#     Edge 42, Type (0, 0), BuildingBlock: CIFDUS_clean_linker_0, # of connection points: 2
#     Edge 43, Type (0, 0), BuildingBlock: CIFDUS_clean_linker_0, # of connection points: 2
#     Edge 44, Type (0, 0), BuildingBlock: CIFDUS_clean_linker_0, # of connection points: 2
#     Edge 45, Type (0, 0), BuildingBlock: CIFDUS_clean_linker_0, # of connection points: 2
#     Edge 46, Type (0, 0), BuildingBlock: CIFDUS_clean_linker_0, # of connection points: 2
#     Edge 47, Type (0, 0), BuildingBlock: CIFDUS_clean_linker_0, # of connection points: 2
# Relax obj value: 0.084
# Max RMSD: 0.121
# Mean RMSD: 0.116
data_MOF--net-cag--node1-KUFVIS_clean_sbu_0--edge1-CIFDUS_clean_linker_0
_symmetry_space_group_name_H-M    P1
_symmetry_Int_Tables_number       1
_symmetry_cell_setting            triclinic
loop_
_symmetry_equiv_pos_as_xyz
'x, y, z'
_cell_length_a     36.286612
_cell_length_b     43.315317
_cell_length_c     35.89059
_cell_angle_alpha  90.166574
_cell_angle_beta   90.097169
_cell_angle_gamma 89.895118
loop_
_atom_site_label
_atom_site_type_symbol
_atom_site_fract_x
_atom_site_fract_y
_atom_site_fract_z
_atom_type_partial_charge
Mn0 Mn 0.37697 0.13996 0.10554 0.0
Mn1 Mn 0.39746 0.19888 0.16421 0.0
C2 C 0.43377 0.16517 0.10086 0.0
C3 C 0.3749 0.08869 0.08357 0.0
C4 C 0.34651 0.20586 0.09803 0.0
O5 O 0.34038 0.13276 0.1484 0.0
O6 O 0.3581 0.17239 0.18495 0.0
C7 C 0.4284 0.16224 0.22648 0.0
N8 N 0.43096 0.1862 0.20219 0.0
C9 C 0.47984 0.20946 0.23762 0.0
C10 C 0.4778 0.18507 0.26318 0.0
C11 C 0.4524 0.16106 0.2572 0.0
C12 C 0.45682 0.2083 0.20636 0.0
H13 H 0.40789 0.14447 0.22261 0.0
C14 C 0.33833 0.14856 0.17855 0.0
O15 O 0.35166 0.10949 0.07282 0.0
O16 O 0.39828 0.097 0.10925 0.0
N17 N 0.43498 0.22739 0.14996 0.0
C18 C 0.43338 0.24906 0.12254 0.0
C19 C 0.45593 0.27534 0.12486 0.0
C20 C 0.47924 0.27947 0.15579 0.0
C21 C 0.48071 0.25672 0.1835 0.0
C22 C 0.45826 0.23067 0.17919 0.0
H23 H 0.41403 0.24691 0.09979 0.0
O24 O 0.41865 0.15146 0.0725 0.0
O25 O 0.41482 0.16466 0.13163 0.0
O26 O 0.34861 0.17774 0.08835 0.0
O27 O 0.36324 0.21644 0.1265 0.0
C28 C 0.50289 0.25921 0.2157 0.0
C29 C 0.50292 0.23533 0.24244 0.0
H30 H 0.49538 0.18467 0.2876 0.0
H31 H 0.4506 0.14219 0.27681 0.0
H32 H 0.45465 0.29276 0.10334 0.0
H33 H 0.49606 0.30003 0.15783 0.0
H34 H 0.52047 0.27911 0.21984 0.0
H35 H 0.5206 0.23719 0.26668 0.0
Mn36 Mn 0.15312 0.90418 0.60284 0.0
Mn37 Mn 0.12197 0.85862 0.67209 0.0
C38 C 0.0905 0.89248 0.60665 0.0
C39 C 0.16799 0.95273 0.57823 0.0
C40 C 0.16399 0.83414 0.60482 0.0
O41 O 0.19561 0.90472 0.6416 0.0
O42 O 0.16779 0.87921 0.6886 0.0
C43 C 0.10285 0.9069 0.72744 0.0
N44 N 0.09295 0.88197 0.70653 0.0
C45 C 0.03102 0.88388 0.73025 0.0
C46 C 0.0409 0.90894 0.75293 0.0
C47 C 0.07695 0.92061 0.75136 0.0
C48 C 0.05827 0.87076 0.70753 0.0
H49 H 0.13012 0.91654 0.72543 0.0
C50 C 0.19439 0.89517 0.67546 0.0
O51 O 0.18199 0.9275 0.56479 0.0
O52 O 0.14685 0.95001 0.60719 0.0
N53 N 0.07725 0.83793 0.65976 0.0
C54 C 0.07123 0.81611 0.63302 0.0
C55 C 0.0356 0.80447 0.62788 0.0
C56 C 0.00685 0.81528 0.65047 0.0
C57 C 0.01391 0.83661 0.67891 0.0
C58 C 0.04994 0.84748 0.68266 0.0
H59 H 0.09313 0.80831 0.61501 0.0
O60 O 0.10472 0.9016 0.57546 0.0
O61 O 0.11326 0.89073 0.63458 0.0
O62 O 0.16537 0.85972 0.58741 0.0
O63 O 0.15085 0.83164 0.63772 0.0
C64 C 0.98622 0.84889 0.70213 0.0
C65 C 0.99482 0.87234 0.72801 0.0
H66 H 0.0208 0.91991 0.77093 0.0
H67 H 0.0846 0.94037 0.76817 0.0
H68 H 0.03004 0.78806 0.60579 0.0
H69 H 0.97916 0.80851 0.64432 0.0
H70 H 0.958 0.84121 0.69951 0.0
H71 H 0.97312 0.88211 0.74508 0.0
Mn72 Mn 0.36496 0.89043 0.92496 0.0
Mn73 Mn 0.38795 0.83963 0.85708 0.0
C74 C 0.42308 0.86711 0.92634 0.0
C75 C 0.35976 0.93989 0.95147 0.0
C76 C 0.33728 0.82399 0.92133 0.0
O77 O 0.32694 0.89946 0.88348 0.0
O78 O 0.34995 0.86852 0.83875 0.0
C79 C 0.4221 0.88191 0.80246 0.0
N80 N 0.42334 0.85566 0.82316 0.0
C81 C 0.47382 0.83553 0.78728 0.0
C82 C 0.47346 0.86248 0.76569 0.0
C83 C 0.44782 0.88598 0.77368 0.0
C84 C 0.44903 0.83368 0.81696 0.0
H85 H 0.40127 0.89926 0.80759 0.0
C86 C 0.32757 0.88932 0.84991 0.0
O87 O 0.33826 0.91749 0.96098 0.0
O88 O 0.38343 0.93427 0.92514 0.0
N89 N 0.4243 0.80925 0.8688 0.0
C90 C 0.42133 0.78507 0.89281 0.0
C91 C 0.44374 0.75892 0.88779 0.0
C92 C 0.46826 0.75754 0.85757 0.0
C93 C 0.47075 0.78265 0.83315 0.0
C94 C 0.44867 0.80852 0.84037 0.0
H95 H 0.40113 0.78525 0.91486 0.0
O96 O 0.40778 0.87839 0.95611 0.0
O97 O 0.40386 0.86976 0.89575 0.0
O98 O 0.34029 0.84965 0.93821 0.0
O99 O 0.3516 0.81881 0.88957 0.0
C100 C 0.49458 0.78324 0.80211 0.0
C101 C 0.49683 0.80999 0.77981 0.0
H102 H 0.49241 0.86521 0.74264 0.0
H103 H 0.44717 0.90673 0.75697 0.0
H104 H 0.44152 0.73957 0.90666 0.0
H105 H 0.48512 0.73715 0.85346 0.0
H106 H 0.51213 0.76364 0.79589 0.0
H107 H 0.51592 0.81049 0.75665 0.0
Mn108 Mn 0.16262 0.15183 0.42359 0.0
Mn109 Mn 0.14104 0.20128 0.35434 0.0
C110 C 0.1015 0.16838 0.41707 0.0
C111 C 0.17188 0.10205 0.44774 0.0
C112 C 0.18173 0.22028 0.42498 0.0
O113 O 0.20687 0.1485 0.38758 0.0
O114 O 0.18367 0.17559 0.33935 0.0
C115 C 0.11679 0.15713 0.29606 0.0
N116 N 0.11071 0.18294 0.31689 0.0
C117 C 0.05609 0.19531 0.28195 0.0
C118 C 0.06191 0.16901 0.2598 0.0
C119 C 0.09218 0.14965 0.26717 0.0
C120 C 0.08097 0.20105 0.31095 0.0
H121 H 0.1401 0.14237 0.30165 0.0
C122 C 0.20774 0.15758 0.35362 0.0
O123 O 0.1874 0.12614 0.46233 0.0
O124 O 0.15217 0.10653 0.41796 0.0
N125 N 0.10001 0.22792 0.36378 0.0
C126 C 0.09758 0.2517 0.38862 0.0
C127 C 0.06983 0.27404 0.38429 0.0
C128 C 0.04517 0.27196 0.35421 0.0
C129 C 0.04764 0.24689 0.32948 0.0
C130 C 0.07587 0.22538 0.33521 0.0
H131 H 0.1173 0.2542 0.41094 0.0
O132 O 0.11394 0.15769 0.44842 0.0
O133 O 0.12537 0.16913 0.39 0.0
O134 O 0.17846 0.19457 0.44162 0.0
O135 O 0.17193 0.22419 0.39113 0.0
C136 C 0.02285 0.24218 0.29971 0.0
C137 C 0.0267 0.21611 0.27635 0.0
H138 H 0.04326 0.16341 0.23718 0.0
H139 H 0.09673 0.1292 0.2504 0.0
H140 H 0.06783 0.2931 0.40375 0.0
H141 H 0.02384 0.28927 0.35092 0.0
H142 H 1.0004 0.25821 0.29492 0.0
H143 H 0.00711 0.21243 0.25398 0.0
Mn144 Mn 0.70396 0.88453 0.93915 0.0
Mn145 Mn 0.66838 0.81315 0.92709 0.0
C146 C 0.64253 0.8787 0.92104 0.0
C147 C 0.7176 0.92809 0.97489 0.0
C148 C 0.71776 0.84377 0.87027 0.0
O149 O 0.7411 0.85714 0.96785 0.0
O150 O 0.71292 0.8117 0.95815 0.0
C151 C 0.64733 0.7999 1.00519 0.0
N152 N 0.63801 0.80254 0.96854 0.0
C153 C 0.57564 0.78715 0.98109 0.0
C154 C 0.5846 0.78403 0.01891 0.0
C155 C 0.62061 0.79049 0.031 0.0
C156 C 0.60356 0.79622 0.95658 0.0
H157 H 0.67492 0.80492 1.01469 0.0
C158 C 0.73845 0.82795 0.97285 0.0
O159 O 0.73531 0.92197 0.94442 0.0
O160 O 0.693 0.9083 0.98561 0.0
N161 N 0.62455 0.81137 0.89813 0.0
C162 C 0.61976 0.81839 0.86147 0.0
C163 C 0.58435 0.81689 0.84606 0.0
C164 C 0.55476 0.80767 0.86844 0.0
C165 C 0.56075 0.79836 0.90521 0.0
C166 C 0.59643 0.801 0.91931 0.0
H167 H 0.64242 0.82638 0.84463 0.0
O168 O 0.66022 0.90405 0.91433 0.0
O169 O 0.66118 0.85732 0.9383 0.0
O170 O 0.72244 0.86887 0.88832 0.0
O171 O 0.69868 0.82134 0.8826 0.0
C172 C 0.53229 0.78875 0.92914 0.0
C173 C 0.53984 0.78265 0.96696 0.0
H174 H 0.56394 0.77712 0.03896 0.0
H175 H 0.62771 0.78833 0.06018 0.0
H176 H 0.5796 0.82404 0.81758 0.0
H177 H 0.52732 0.80986 0.85804 0.0
H178 H 0.50428 0.78717 0.91918 0.0
H179 H 0.51756 0.77588 0.98523 0.0
Mn180 Mn 0.81999 0.15022 0.44408 0.0
Mn181 Mn 0.85153 0.22319 0.43477 0.0
C182 C 0.88222 0.15939 0.43226 0.0
C183 C 0.80718 0.10569 0.47827 0.0
C184 C 0.80823 0.19023 0.37431 0.0
O185 O 0.77891 0.17604 0.4694 0.0
O186 O 0.80446 0.22302 0.46192 0.0
C187 C 0.86583 0.23757 0.51425 0.0
N188 N 0.87816 0.23497 0.47854 0.0
C189 C 0.93921 0.25061 0.49665 0.0
C190 C 0.92711 0.25366 0.53356 0.0
C191 C 0.89026 0.2471 0.54239 0.0
C192 C 0.91345 0.24149 0.46969 0.0
H193 H 0.8376 0.23236 0.52125 0.0
C194 C 0.77892 0.20543 0.47411 0.0
O195 O 0.79136 0.11105 0.44654 0.0
O196 O 0.82896 0.12692 0.49126 0.0
N197 N 0.89752 0.22622 0.40952 0.0
C198 C 0.90535 0.21969 0.37324 0.0
C199 C 0.94171 0.22244 0.36065 0.0
C200 C 0.96927 0.23216 0.38547 0.0
C201 C 0.9603 0.24032 0.42205 0.0
C202 C 0.92368 0.23684 0.43314 0.0
H203 H 0.88429 0.21142 0.35444 0.0
O204 O 0.8674 0.13314 0.42344 0.0
O205 O 0.86016 0.17961 0.44714 0.0
O206 O 0.80436 0.16495 0.39197 0.0
O207 O 0.825 0.21357 0.38793 0.0
C208 C 0.98665 0.24999 0.4485 0.0
C209 C 0.97604 0.25535 0.48575 0.0
H210 H 0.94599 0.26065 0.55542 0.0
H211 H 0.88075 0.24922 0.57085 0.0
H212 H 0.94873 0.21601 0.33237 0.0
H213 H 0.99752 0.23148 0.37697 0.0
H214 H 0.01527 0.25265 0.4407 0.0
H215 H 0.99663 0.26228 0.50598 0.0
Mn216 Mn 0.71339 0.14213 0.0917 0.0
Mn217 Mn 0.68143 0.21319 0.1135 0.0
C218 C 0.6526 0.14861 0.11112 0.0
C219 C 0.7243 0.10035 0.05209 0.0
C220 C 0.72974 0.1761 0.16555 0.0
O221 O 0.75075 0.17037 0.06519 0.0
O222 O 0.72662 0.21589 0.08324 0.0
C223 C 0.66223 0.234 0.03728 0.0
N224 N 0.65209 0.22819 0.07313 0.0
C225 C 0.58968 0.24367 0.06052 0.0
C226 C 0.59947 0.24999 0.02356 0.0
C227 C 0.63594 0.24517 1.01192 0.0
C228 C 0.61722 0.23313 0.08475 0.0
H229 H 0.69011 0.23008 0.02798 0.0
C230 C 0.7504 0.19995 0.06522 0.0
O231 O 0.74311 0.10437 0.08242 0.0
O232 O 0.70046 0.12157 0.04341 0.0
N233 N 0.63714 0.21384 0.1419 0.0
C234 C 0.63177 0.20488 0.17784 0.0
C235 C 0.59615 0.20588 0.19283 0.0
C236 C 0.56673 0.21615 0.17069 0.0
C237 C 0.57329 0.22698 0.13459 0.0
C238 C 0.60932 0.22551 0.12116 0.0
H239 H 0.6542 0.19601 0.19448 0.0
O240 O 0.6693 0.12235 0.11523 0.0
O241 O 0.67206 0.17062 0.09627 0.0
O242 O 0.73378 0.15333 0.14337 0.0
O243 O 0.71074 0.19992 0.15726 0.0
C244 C 0.54512 0.23707 0.11052 0.0
C245 C 0.55336 0.24615 0.07382 0.0
H246 H 0.5791 0.25813 1.00378 0.0
H247 H 0.64371 0.24981 0.98338 0.0
H248 H 0.59112 0.19759 0.22078 0.0
H249 H 0.53904 0.21414 0.18096 0.0
H250 H 0.51678 0.23625 0.11918 0.0
H251 H 0.53125 0.25348 0.05554 0.0
Mn252 Mn 0.81148 0.88751 0.58749 0.0
Mn253 Mn 0.83216 0.81292 0.60593 0.0
C254 C 0.87143 0.87398 0.60567 0.0
C255 C 0.80544 0.93154 0.55031 0.0
C256 C 0.79016 0.85386 0.65959 0.0
O257 O 0.76965 0.86447 0.56027 0.0
O258 O 0.78775 0.81623 0.57445 0.0
C259 C 0.85097 0.79307 0.52919 0.0
N260 N 0.85969 0.79506 0.56604 0.0
C261 C 0.91315 0.76293 0.55771 0.0
C262 C 0.90487 0.76055 0.51962 0.0
C263 C 0.87381 0.77592 0.50525 0.0
C264 C 0.89007 0.78117 0.57991 0.0
H265 H 0.82667 0.80431 0.51826 0.0
C266 C 0.766 0.83513 0.55823 0.0
O267 O 0.7871 0.92815 0.58089 0.0
O268 O 0.8263 0.90861 0.53999 0.0
N269 N 0.87452 0.80486 0.63604 0.0
C270 C 0.87835 0.80927 0.67346 0.0
C271 C 0.90618 0.79348 0.69284 0.0
C272 C 0.92966 0.77317 0.67364 0.0
C273 C 0.92574 0.76948 0.63498 0.0
C274 C 0.89728 0.7856 0.61725 0.0
H275 H 0.8595 0.82389 0.6887 0.0
O276 O 0.85834 0.90151 0.61126 0.0
O277 O 0.84868 0.85449 0.59027 0.0
O278 O 0.79025 0.87756 0.63881 0.0
O279 O 0.80441 0.82826 0.64965 0.0
C280 C 0.94898 0.75046 0.61338 0.0
C281 C 0.94308 0.74761 0.57464 0.0
H282 H 0.92204 0.74689 0.5012 0.0
H283 H 0.86718 0.77415 0.47591 0.0
H284 H 0.90921 0.79662 0.72261 0.0
H285 H 0.95111 0.76103 0.6887 0.0
H286 H 0.97162 0.7381 0.62624 0.0
H287 H 0.96133 0.73317 0.55825 0.0
Mn288 Mn 0.86201 0.64015 0.11788 0.0
Mn289 Mn 0.88004 0.69724 0.17994 0.0
C290 C 0.92038 0.66307 0.11949 0.0
C291 C 0.85875 0.58991 0.09351 0.0
C292 C 0.83368 0.70654 0.11078 0.0
O293 O 0.82145 0.63381 0.15751 0.0
O294 O 0.83908 0.671 0.19798 0.0
C295 C 0.90762 0.65862 0.24215 0.0
N296 N 0.91169 0.68313 0.21888 0.0
C297 C 0.96565 0.70038 0.25181 0.0
C298 C 0.96177 0.67559 0.27655 0.0
C299 C 0.93288 0.65441 0.27142 0.0
C300 C 0.94023 0.70286 0.22263 0.0
H301 H 0.88544 0.64239 0.2382 0.0
C302 C 0.81856 0.64821 0.18872 0.0
O303 O 0.83822 0.61209 0.08144 0.0
O304 O 0.8798 0.59603 0.12204 0.0
N305 N 0.91921 0.72472 0.16742 0.0
C306 C 0.92005 0.74641 0.14002 0.0
C307 C 0.94625 0.77019 0.14173 0.0
C308 C 0.97107 0.77157 0.17174 0.0
C309 C 0.97041 0.74845 0.19905 0.0
C310 C 0.94359 0.72543 0.19592 0.0
H311 H 0.90023 0.7461 0.11757 0.0
O312 O 0.90757 0.65041 0.08931 0.0
O313 O 0.89814 0.66297 0.1479 0.0
O314 O 0.83749 0.67901 0.0996 0.0
O315 O 0.84763 0.71622 0.14121 0.0
C316 C 0.99563 0.74709 0.22892 0.0
C317 C 0.99365 0.72276 0.25493 0.0
H318 H 0.98092 0.6725 0.29943 0.0
H319 H 0.9299 0.63505 0.29017 0.0
H320 H 0.94695 0.78766 0.12025 0.0
H321 H 0.99124 0.78996 0.17298 0.0
H322 H 0.01703 0.76434 0.23179 0.0
H323 H 0.0136 0.72161 0.27736 0.0
Mn324 Mn 0.63939 0.39433 0.60793 0.0
Mn325 Mn 0.62131 0.33522 0.66642 0.0
C326 C 0.58245 0.36915 0.60486 0.0
C327 C 0.64058 0.44543 0.58651 0.0
C328 C 0.67001 0.32872 0.59842 0.0
O329 O 0.67786 0.40116 0.64956 0.0
O330 O 0.66083 0.36205 0.68698 0.0
C331 C 0.59103 0.37131 0.72966 0.0
N332 N 0.58833 0.34745 0.70508 0.0
C333 C 0.539 0.32447 0.73983 0.0
C334 C 0.54127 0.34871 0.76575 0.0
C335 C 0.56698 0.37252 0.76028 0.0
C336 C 0.56221 0.32554 0.70879 0.0
H337 H 0.61161 0.38902 0.72606 0.0
C338 C 0.68054 0.38579 0.67993 0.0
O339 O 0.66294 0.42458 0.57411 0.0
O340 O 0.61885 0.43742 0.61364 0.0
N341 N 0.58374 0.30664 0.65213 0.0
C342 C 0.5848 0.2853 0.62417 0.0
C343 C 0.56174 0.25933 0.62585 0.0
C344 C 0.53848 0.25516 0.6567 0.0
C345 C 0.5375 0.2776 0.68491 0.0
C346 C 0.56045 0.30338 0.68124 0.0
H347 H 0.60405 0.28749 0.60143 0.0
O348 O 0.59635 0.38324 0.57632 0.0
O349 O 0.60259 0.36951 0.63496 0.0
O350 O 0.66661 0.3567 0.58887 0.0
O351 O 0.65511 0.31804 0.62777 0.0
C352 C 0.51531 0.27509 0.717 0.0
C353 C 0.51548 0.29885 0.74407 0.0
H354 H 0.5236 0.34917 0.79004 0.0
H355 H 0.56891 0.39131 0.78013 0.0
H356 H 0.56259 0.24216 0.60391 0.0
H357 H 0.52125 0.23481 0.65824 0.0
H358 H 0.49738 0.25537 0.7207 0.0
H359 H 0.49766 0.29705 0.76814 0.0
Mn360 Mn 0.85827 0.39851 0.92515 0.0
Mn361 Mn 0.87636 0.34211 0.86224 0.0
C362 C 0.91757 0.37743 0.92141 0.0
C363 C 0.85425 0.44869 0.9495 0.0
C364 C 0.83456 0.331 0.93393 0.0
O365 O 0.8155 0.40353 0.88752 0.0
O366 O 0.83297 0.36687 0.8463 0.0
C367 C 0.89865 0.38218 0.79938 0.0
N368 N 0.90515 0.35758 0.82195 0.0
C369 C 0.95819 0.34253 0.78613 0.0
C370 C 0.95174 0.36741 0.76203 0.0
C371 C 0.92209 0.38755 0.76898 0.0
C372 C 0.93451 0.33893 0.81651 0.0
H373 H 0.87593 0.39759 0.80477 0.0
C374 C 0.81177 0.38893 0.85659 0.0
O375 O 0.83512 0.4261 0.96261 0.0
O376 O 0.87391 0.44298 0.91992 0.0
N377 N 0.91756 0.31585 0.87235 0.0
C378 C 0.9206 0.29357 0.89892 0.0
C379 C 0.94764 0.27054 0.89526 0.0
C380 C 0.97112 0.27048 0.8642 0.0
C381 C 0.96802 0.29401 0.83759 0.0
C382 C 0.94041 0.31622 0.84263 0.0
H383 H 0.90182 0.29277 0.92218 0.0
O384 O 0.90524 0.38978 0.95192 0.0
O385 O 0.89437 0.37684 0.89365 0.0
O386 O 0.83683 0.35879 0.94465 0.0
O387 O 0.84728 0.32195 0.90266 0.0
C388 C 0.99158 0.29655 0.80655 0.0
C389 C 0.98707 0.32111 0.78118 0.0
H390 H 0.96946 0.37136 0.73827 0.0
H391 H 0.91713 0.40699 0.75076 0.0
H392 H 0.95007 0.25263 0.91609 0.0
H393 H 0.99199 0.25271 0.86151 0.0
H394 H 0.01358 0.27999 0.80224 0.0
H395 H 0.00572 0.32314 0.75779 0.0
Mn396 Mn 0.63441 0.64249 0.42803 0.0
Mn397 Mn 0.62014 0.69817 0.36366 0.0
C398 C 0.57586 0.66478 0.4217 0.0
C399 C 0.63746 0.59209 0.45164 0.0
C400 C 0.66017 0.70944 0.43668 0.0
O401 O 0.67852 0.63674 0.39221 0.0
O402 O 0.6622 0.67169 0.34863 0.0
C403 C 0.59632 0.65809 0.30104 0.0
N404 N 0.59089 0.68319 0.32325 0.0
C405 C 0.5388 0.69952 0.28678 0.0
C406 C 0.54424 0.67418 0.26298 0.0
C407 C 0.57284 0.65314 0.27045 0.0
C408 C 0.56245 0.7027 0.31737 0.0
H409 H 0.61816 0.64193 0.3069 0.0
C410 C 0.68281 0.64982 0.36047 0.0
O411 O 0.6558 0.61464 0.46618 0.0
O412 O 0.61865 0.59812 0.42158 0.0
N413 N 0.58016 0.72584 0.37315 0.0
C414 C 0.57772 0.74824 0.39977 0.0
C415 C 0.55129 0.77173 0.39606 0.0
C416 C 0.52791 0.77215 0.36486 0.0
C417 C 0.53055 0.74859 0.33807 0.0
C418 C 0.55738 0.7258 0.3433 0.0
H419 H 0.59648 0.74874 0.42314 0.0
O420 O 0.58628 0.65194 0.45261 0.0
O421 O 0.60023 0.66457 0.39511 0.0
O422 O 0.65552 0.68219 0.44844 0.0
O423 O 0.65004 0.71781 0.40418 0.0
C424 C 0.50729 0.74664 0.30663 0.0
C425 C 0.51096 0.72179 0.28138 0.0
H426 H 0.52649 0.67054 0.23908 0.0
H427 H 0.57695 0.63331 0.2525 0.0
H428 H 0.54929 0.78973 0.41694 0.0
H429 H 0.50757 0.79034 0.36207 0.0
H430 H 0.48599 0.76378 0.30205 0.0
H431 H 0.49241 0.72014 0.25778 0.0
Mn432 Mn 0.19978 0.38983 0.95067 0.0
Mn433 Mn 0.1643 0.31814 0.94045 0.0
C434 C 0.137 0.38302 0.93866 0.0
C435 C 0.21528 0.4336 0.98583 0.0
C436 C 0.20896 0.34968 0.8803 0.0
O437 O 0.23971 0.36237 0.97524 0.0
O438 O 0.21155 0.3165 0.96725 0.0
C439 C 0.14996 0.3045 0.01995 0.0
N440 N 0.13746 0.30744 0.98432 0.0
C441 C 0.07575 0.2944 1.00278 0.0
C442 C 0.08798 0.29102 0.03962 0.0
C443 C 0.12526 0.2961 0.04823 0.0
C444 C 0.10175 0.30239 0.97568 0.0
H445 H 0.17852 0.30858 0.02679 0.0
C446 C 0.23819 0.33299 0.9794 0.0
O447 O 0.23056 0.42789 0.95392 0.0
O448 O 0.19236 0.41312 0.99835 0.0
N449 N 0.118 0.31667 0.91541 0.0
C450 C 0.11036 0.32271 0.87897 0.0
C451 C 0.07385 0.32084 0.8664 0.0
C452 C 0.04594 0.31253 0.89141 0.0
C453 C 0.05468 0.30477 0.92817 0.0
C454 C 0.09148 0.3072 0.93917 0.0
H455 H 0.13174 0.32984 0.85999 0.0
O456 O 0.15313 0.4088 0.93045 0.0
O457 O 0.15806 0.36196 0.95322 0.0
O458 O 0.21428 0.37474 0.89826 0.0
O459 O 0.19097 0.32694 0.89361 0.0
C460 C 0.02804 0.29642 0.95482 0.0
C461 C 0.03861 0.29103 0.99206 0.0
H462 H 0.06893 0.28489 0.06157 0.0
H463 H 0.13489 0.29371 0.07663 0.0
H464 H 0.06703 0.3269 0.83798 0.0
H465 H 0.0177 0.31407 0.88287 0.0
H466 H 0.99925 0.29482 0.94721 0.0
H467 H 0.01782 0.28506 1.01241 0.0
Mn468 Mn 0.29457 0.65449 0.44639 0.0
Mn469 Mn 0.32292 0.72702 0.42724 0.0
C470 C 0.35625 0.66436 0.43293 0.0
C471 C 0.28362 0.61169 0.48442 0.0
C472 C 0.28209 0.68745 0.37127 0.0
O473 O 0.25298 0.68121 0.46921 0.0
O474 O 0.2748 0.72811 0.45292 0.0
C475 C 0.33405 0.74862 0.5049 0.0
N476 N 0.34767 0.74319 0.47012 0.0
C477 C 0.40808 0.76013 0.48868 0.0
C478 C 0.39465 0.76611 0.52459 0.0
C479 C 0.35745 0.76034 0.53271 0.0
C480 C 0.38331 0.74891 0.46193 0.0
H481 H 0.3056 0.74395 0.51146 0.0
C482 C 0.25086 0.71079 0.46846 0.0
O483 O 0.26722 0.61509 0.45263 0.0
O484 O 0.30461 0.63419 0.49559 0.0
N485 N 0.36956 0.72919 0.4031 0.0
C486 C 0.37849 0.72072 0.36766 0.0
C487 C 0.41508 0.72343 0.35575 0.0
C488 C 0.44178 0.73492 0.38041 0.0
C489 C 0.43173 0.74475 0.41613 0.0
C490 C 0.39485 0.7416 0.42642 0.0
H491 H 0.3581 0.71116 0.34899 0.0
O492 O 0.34233 0.6372 0.42714 0.0
O493 O 0.33353 0.68511 0.44567 0.0
O494 O 0.27809 0.66465 0.39321 0.0
O495 O 0.29844 0.7123 0.38095 0.0
C496 C 0.45714 0.7562 0.44246 0.0
C497 C 0.44528 0.76407 0.47866 0.0
H498 H 0.41273 0.77479 0.54625 0.0
H499 H 0.3469 0.76471 0.56042 0.0
H500 H 0.42293 0.71579 0.32814 0.0
H501 H 0.47012 0.73478 0.37228 0.0
H502 H 0.48596 0.75846 0.43546 0.0
H503 H 0.46516 0.7725 0.4988 0.0
Mn504 Mn 0.20218 0.65286 0.09025 0.0
Mn505 Mn 0.16871 0.72565 0.09662 0.0
C506 C 0.13964 0.66119 0.10054 0.0
C507 C 0.21722 0.60817 0.05658 0.0
C508 C 0.21162 0.69477 0.15899 0.0
O509 O 0.24311 0.67886 0.06598 0.0
O510 O 0.21627 0.72591 0.07006 0.0
C511 C 0.15483 0.73745 1.01655 0.0
N512 N 0.14219 0.73565 0.0522 0.0
C513 C 0.08073 0.74901 0.03281 0.0
C514 C 0.09314 0.75126 0.99594 0.0
C515 C 0.13036 0.74544 0.98779 0.0
C516 C 0.10653 0.74143 0.06039 0.0
H517 H 0.18334 0.73274 1.01008 0.0
C518 C 0.2424 0.70799 0.05987 0.0
O519 O 0.23198 0.61404 0.08876 0.0
O520 O 0.19509 0.6289 0.04306 0.0
N521 N 0.12236 0.72845 0.12127 0.0
C522 C 0.11443 0.72309 0.15777 0.0
C523 C 0.07786 0.72546 0.16991 0.0
C524 C 0.05019 0.73357 0.14442 0.0
C525 C 0.05921 0.7406 0.10756 0.0
C526 C 0.09606 0.73766 0.09698 0.0
H527 H 0.13561 0.71606 0.17715 0.0
O528 O 0.15495 0.63528 0.10995 0.0
O529 O 0.16139 0.68155 0.08566 0.0
O530 O 0.21597 0.66888 0.14249 0.0
O531 O 0.19502 0.71764 0.14404 0.0
C532 C 0.03278 0.74867 0.08045 0.0
C533 C 0.04358 0.75309 0.04312 0.0
H534 H 0.07424 0.75706 0.97362 0.0
H535 H 0.14012 0.74693 0.95937 0.0
H536 H 0.07082 0.71994 0.19841 0.0
H537 H 0.02191 0.73253 0.15273 0.0
H538 H 1.00397 0.75085 0.08784 0.0
H539 H 0.02296 0.75882 0.0224 0.0
Mn540 Mn 0.30295 0.39557 0.5979 0.0
Mn541 Mn 0.33261 0.32334 0.61782 0.0
C542 C 0.36389 0.38729 0.61595 0.0
C543 C 0.29184 0.43849 0.55993 0.0
C544 C 0.28747 0.36139 0.67166 0.0
O545 O 0.26406 0.36834 0.57174 0.0
O546 O 0.28592 0.3218 0.58937 0.0
C547 C 0.34814 0.30287 0.54054 0.0
N548 N 0.35979 0.30785 0.57617 0.0
C549 C 0.42093 0.2904 0.56118 0.0
C550 C 0.40955 0.28487 0.52443 0.0
C551 C 0.37297 0.29112 0.51408 0.0
C552 C 0.3948 0.30165 0.58651 0.0
H553 H 0.32017 0.30787 0.53226 0.0
C554 C 0.26261 0.33878 0.57224 0.0
O555 O 0.27396 0.43408 0.59062 0.0
O556 O 0.31491 0.41702 0.54986 0.0
N557 N 0.37791 0.32113 0.6446 0.0
C558 C 0.38495 0.32943 0.68056 0.0
C559 C 0.42096 0.32693 0.6944 0.0
C560 C 0.44902 0.31571 0.67116 0.0
C561 C 0.44068 0.30552 0.63508 0.0
C562 C 0.40435 0.30862 0.62277 0.0
H563 H 0.36357 0.33893 0.69809 0.0
O564 O 0.34824 0.41394 0.62086 0.0
O565 O 0.34334 0.36589 0.60096 0.0
O566 O 0.28355 0.38421 0.64971 0.0
O567 O 0.30552 0.33716 0.66281 0.0
C568 C 0.46742 0.29437 0.61004 0.0
C569 C 0.45749 0.28628 0.57333 0.0
H570 H 0.42878 0.27621 0.50382 0.0
H571 H 0.36399 0.2871 0.4857 0.0
H572 H 0.42737 0.33471 0.72235 0.0
H573 H 0.4771 0.31651 0.68061 0.0
H574 H 0.49599 0.29339 0.61808 0.0
H575 H 0.47851 0.27818 0.55424 0.0
H576 H 0.34222 0.26985 0.09961 0.0
H577 H 0.30336 0.18945 0.03955 0.0
H578 H 0.27143 0.22217 0.99562 0.0
H579 H 0.25287 0.27245 0.97456 0.0
H580 H 0.28598 0.3543 0.03446 0.0
H581 H 0.32293 0.32223 0.07715 0.0
C582 C 0.32655 0.25953 0.07706 0.0
C583 C 0.32529 0.227 0.07326 0.0
C584 C 0.30771 0.2787 0.05142 0.0
C585 C 0.30502 0.2142 0.04354 0.0
C586 C 0.28675 0.23293 0.01812 0.0
C587 C 0.26825 0.28355 0.99682 0.0
C588 C 0.26637 0.31581 1.00136 0.0
C589 C 0.28786 0.26506 0.02182 0.0
C590 C 0.28708 0.32957 0.03008 0.0
C591 C 0.30781 0.31116 0.05477 0.0
H592 H 0.23863 0.71171 0.54327 0.0
H593 H 0.20157 0.75057 0.43942 0.0
H594 H 0.17014 0.79216 0.47281 0.0
H595 H 0.16015 0.82122 0.53083 0.0
H596 H 0.19665 0.78296 0.63531 0.0
H597 H 0.22144 0.73767 0.60267 0.0
C598 C 0.22224 0.72852 0.52818 0.0
C599 C 0.22176 0.72771 0.48893 0.0
C600 C 0.20521 0.7531 0.54766 0.0
C601 C 0.20161 0.75032 0.46962 0.0
C602 C 0.18416 0.77441 0.4887 0.0
C603 C 0.17341 0.8029 0.54648 0.0
C604 C 0.17722 0.8058 0.58539 0.0
C605 C 0.18703 0.77672 0.52758 0.0
C606 C 0.19367 0.78148 0.60532 0.0
C607 C 0.2078 0.75553 0.58664 0.0
H608 H 0.34138 0.81138 0.99487 0.0
H609 H 0.29523 0.77743 0.89193 0.0
H610 H 0.26633 0.73449 0.92535 0.0
H611 H 0.24996 0.70935 0.98506 0.0
H612 H 0.29685 0.74354 0.08739 0.0
H613 H 0.33079 0.78302 0.05303 0.0
C614 C 0.32487 0.79462 0.97979 0.0
C615 C 0.31958 0.79799 0.94117 0.0
C616 C 0.3092 0.76967 0.99903 0.0
C617 C 0.29916 0.77557 0.92177 0.0
C618 C 0.28283 0.75095 0.94084 0.0
C619 C 0.26889 0.72464 0.99949 0.0
C620 C 0.27179 0.72312 0.03853 0.0
C621 C 0.28732 0.74795 0.97957 0.0
C622 C 0.29515 0.74379 0.05724 0.0
C623 C 0.31399 0.76668 0.03766 0.0
H624 H 0.25451 0.33975 0.49683 0.0
H625 H 0.21357 0.29686 0.5966 0.0
H626 H 0.18419 0.25639 0.55951 0.0
H627 H 0.17617 0.22995 0.49955 0.0
H628 H 0.21703 0.27198 0.39905 0.0
H629 H 0.24061 0.31575 0.43535 0.0
C630 C 0.23783 0.32224 0.5102 0.0
C631 C 0.2355 0.32165 0.54938 0.0
C632 C 0.22206 0.2983 0.48862 0.0
C633 C 0.21502 0.29815 0.56648 0.0
C634 C 0.19872 0.27474 0.5453 0.0
C635 C 0.19027 0.24867 0.48553 0.0
C636 C 0.19551 0.2473 0.44668 0.0
C637 C 0.20319 0.27396 0.5065 0.0
C638 C 0.21298 0.27221 0.42895 0.0
C639 C 0.22637 0.29733 0.44971 0.0
H640 H 0.83829 0.77033 0.1019 0.0
H641 H 0.78042 0.68908 0.06327 0.0
H642 H 0.7495 0.71912 1.01601 0.0
H643 H 0.73942 0.76674 0.98458 0.0
H644 H 0.79171 0.8507 0.02217 0.0
H645 H 0.8252 0.82105 0.07008 0.0
C646 C 0.81857 0.7594 0.08341 0.0
C647 C 0.81207 0.72729 0.08608 0.0
C648 C 0.80047 0.77705 0.05562 0.0
C649 C 0.78642 0.71355 0.06176 0.0
C650 C 0.76869 0.73069 0.03453 0.0
C651 C 0.75809 0.77899 1.00303 0.0
C652 C 0.76289 0.8111 0.99948 0.0
C653 C 0.77585 0.76222 0.03093 0.0
C654 C 0.78759 0.82599 0.02388 0.0
C655 C 0.80645 0.80904 0.05154 0.0
H656 H 0.75956 0.26496 0.46951 0.0
H657 H 0.73528 0.18227 0.53126 0.0
H658 H 0.69874 0.21296 0.57588 0.0
H659 H 0.67771 0.26473 0.59961 0.0
H660 H 0.70843 0.34616 0.53741 0.0
H661 H 0.7392 0.31451 0.49161 0.0
C662 C 0.74612 0.25339 0.49256 0.0
C663 C 0.7504 0.22132 0.49704 0.0
C664 C 0.72689 0.27118 0.51866 0.0
C665 C 0.73223 0.20687 0.52686 0.0
C666 C 0.71178 0.22453 0.55267 0.0
C667 C 0.69136 0.2755 0.57618 0.0
C668 C 0.69063 0.30803 0.57241 0.0
C669 C 0.70969 0.25693 0.54938 0.0
C670 C 0.70831 0.32139 0.5415 0.0
C671 C 0.72593 0.30326 0.51496 0.0
H672 H 0.8333 0.26661 0.93192 0.0
H673 H 0.79881 0.34539 0.99773 0.0
H674 H 0.7757 0.31164 0.04549 0.0
H675 H 0.76344 0.26092 0.06881 0.0
H676 H 0.79095 0.18028 1.00373 0.0
H677 H 0.81983 0.21349 0.95651 0.0
C678 C 0.82046 0.27632 0.95657 0.0
C679 C 0.81802 0.30876 0.96083 0.0
C680 C 0.80653 0.25648 0.98456 0.0
C681 C 0.8014 0.32074 0.99327 0.0
C682 C 0.78817 0.30141 0.02094 0.0
C683 C 0.77591 0.25029 0.04448 0.0
C684 C 0.77478 0.21802 0.03995 0.0
C685 C 0.79058 0.2694 1.01692 0.0
C686 C 0.79162 0.205 1.00826 0.0
C687 C 0.80768 0.22407 0.98098 0.0
H688 H 0.73126 0.78191 0.57097 0.0
H689 H 0.73915 0.85472 0.48995 0.0
H690 H 0.70544 0.82271 0.44447 0.0
H691 H 0.67943 0.77112 0.42611 0.0
H692 H 0.67686 0.69886 0.50912 0.0
H693 H 0.7032 0.73329 0.55473 0.0
C694 C 0.72506 0.79109 0.54354 0.0
C695 C 0.73776 0.82061 0.53388 0.0
C696 C 0.70731 0.77222 0.5174 0.0
C697 C 0.72929 0.83219 0.4983 0.0
C698 C 0.71052 0.81366 0.47211 0.0
C699 C 0.68464 0.76297 0.45416 0.0
C700 C 0.67647 0.73203 0.46358 0.0
C701 C 0.70041 0.78314 0.48098 0.0
C702 C 0.68314 0.72218 0.5004 0.0
C703 C 0.6981 0.74197 0.52688 0.0
H704 H 0.32372 0.06374 0.03711 0.0
H705 H 0.43092 0.04597 0.08457 0.0
H706 H 0.43694 0.99953 0.04583 0.0
H707 H 0.41194 0.96424 0.99724 0.0
H708 H 0.30326 0.98073 0.95314 0.0
H709 H 0.29778 0.02764 0.99113 0.0
C710 C 0.34832 0.0496 0.03927 0.0
C711 C 0.37683 0.05841 0.06383 0.0
C712 C 0.35154 0.02295 1.01692 0.0
C713 C 0.40842 0.03967 0.06622 0.0
C714 C 0.412 1.01323 0.04379 0.0
C715 C 0.38736 0.97845 0.99567 0.0
C716 C 0.35836 0.96963 0.97178 0.0
C717 C 0.38392 1.00481 0.0187 0.0
C718 C 0.32612 0.98751 0.97081 0.0
C719 C 0.32292 1.01416 0.99272 0.0
H720 H 0.17194 0.96345 0.50387 0.0
H721 H 0.17378 1.00959 0.61039 0.0
H722 H 0.17819 0.05973 0.57925 0.0
H723 H 0.17863 0.0906 0.52165 0.0
H724 H 0.16922 0.04492 0.41522 0.0
H725 H 0.17068 0.9945 0.44614 0.0
C726 C 0.17378 0.98451 0.5202 0.0
C727 C 0.17305 0.98286 0.5594 0.0
C728 C 0.1747 1.01331 0.50202 0.0
C729 C 0.17451 1.0103 0.58023 0.0
C730 C 0.17697 0.03895 0.56241 0.0
C731 C 0.17727 0.06958 0.50522 0.0
C732 C 0.17422 0.07145 0.46614 0.0
C733 C 0.17669 0.04077 0.52333 0.0
C734 C 0.17168 0.04406 0.44529 0.0
C735 C 0.17252 1.01525 0.46298 0.0
H736 H 0.72205 0.98479 0.94427 0.0
H737 H 0.72339 0.93737 0.04963 0.0
H738 H 0.72926 0.98681 0.08257 0.0
H739 H 0.73108 0.04355 0.08136 0.0
H740 H 0.72096 0.09138 0.97673 0.0
H741 H 0.72153 0.04186 0.94324 0.0
C742 C 0.72405 0.9854 0.97443 0.0
C743 C 0.72285 0.95764 0.99464 0.0
C744 C 0.72568 1.01395 0.99312 0.0
C745 C 0.72449 0.95854 0.03366 0.0
C746 C 0.72781 0.98674 0.05241 0.0
C747 C 0.72947 0.04307 0.05117 0.0
C748 C 0.72658 0.07094 0.03136 0.0
C749 C 0.72808 1.01459 0.03244 0.0
C750 C 0.72347 0.07014 0.99241 0.0
C751 C 0.72374 0.04188 0.97335 0.0
H752 H 0.80756 0.04918 0.44596 0.0
H753 H 0.79991 0.09483 0.55251 0.0
H754 H 0.79642 0.0447 0.58383 0.0
H755 H 0.79744 0.98801 0.58095 0.0
H756 H 0.81268 0.94208 0.47539 0.0
H757 H 0.81148 0.99212 0.4434 0.0
C758 C 0.80474 0.04803 0.476 0.0
C759 C 0.80337 0.07554 0.49699 0.0
C760 C 0.80438 1.01913 0.49385 0.0
C761 C 0.80072 0.07392 0.5359 0.0
C762 C 0.79879 0.04529 0.55374 0.0
C763 C 0.80025 0.98896 0.55089 0.0
C764 C 0.80469 0.96143 0.53042 0.0
C765 C 0.80085 1.01778 0.53302 0.0
C766 C 0.80913 0.96298 0.49164 0.0
C767 C 0.80839 0.99156 0.47342 0.0
H768 H 0.85744 0.45539 0.02415 0.0
H769 H 0.85693 0.50773 0.9222 0.0
H770 H 0.85786 0.55603 0.95826 0.0
H771 H 0.85726 0.58312 0.0189 0.0
H772 H 0.86418 0.53086 0.12069 0.0
H773 H 0.86255 0.48252 0.08466 0.0
C774 C 0.85751 0.47743 1.00986 0.0
C775 C 0.85649 0.47812 0.97056 0.0
C776 C 0.85925 0.50493 0.03079 0.0
C777 C 0.85749 0.50669 0.95234 0.0
C778 C 0.85797 0.53423 0.97299 0.0
C779 C 0.85847 0.5611 0.03318 0.0
C780 C 0.8603 0.56044 0.07244 0.0
C781 C 0.85859 0.5336 1.01221 0.0
C782 C 0.86265 0.53188 0.09057 0.0
C783 C 0.86161 0.50432 0.06995 0.0
H784 H 0.64229 0.45514 0.51239 0.0
H785 H 0.63189 0.503 0.61728 0.0
H786 H 0.63056 0.5527 0.58444 0.0
H787 H 0.634 0.58238 0.5258 0.0
H788 H 0.63781 0.5342 0.42064 0.0
H789 H 0.63987 0.48456 0.45353 0.0
C790 C 0.6397 0.47651 0.52802 0.0
C791 C 0.63776 0.47556 0.56724 0.0
C792 C 0.63776 0.50477 0.50884 0.0
C793 C 0.63359 0.50323 0.58716 0.0
C794 C 0.6329 0.53158 0.56835 0.0
C795 C 0.6352 0.56095 0.51011 0.0
C796 C 0.63626 0.56185 0.47084 0.0
C797 C 0.63525 0.53261 0.52923 0.0
C798 C 0.63706 0.53403 0.45081 0.0
C799 C 0.63835 0.50572 0.46964 0.0
H800 H 0.22212 0.55196 0.08914 0.0
H801 H 0.22212 0.59674 0.98208 0.0
H802 H 0.2256 0.54642 0.95084 0.0
H803 H 0.2246 0.48957 0.95396 0.0
H804 H 0.21627 0.44484 0.06069 0.0
H805 H 0.22026 0.49503 0.09221 0.0
C806 C 0.22345 0.55063 0.05898 0.0
C807 C 0.22236 0.57797 0.03787 0.0
C808 C 0.22372 0.52158 0.04125 0.0
C809 C 0.22313 0.57599 0.99884 0.0
C810 C 0.22505 0.54724 0.98102 0.0
C811 C 0.22422 0.49084 0.98414 0.0
C812 C 0.22062 0.46357 1.00506 0.0
C813 C 0.22483 0.51986 1.00192 0.0
C814 C 0.21921 0.46553 0.04408 0.0
C815 C 0.22143 0.49421 0.06206 0.0
H816 H 0.28437 0.55472 0.45376 0.0
H817 H 0.28097 0.60189 0.55958 0.0
H818 H 0.2806 0.55209 0.59207 0.0
H819 H 0.28306 0.49517 0.59021 0.0
H820 H 0.29447 0.44834 0.48473 0.0
H821 H 0.28993 0.49791 0.45203 0.0
C822 C 0.28318 0.55402 0.48394 0.0
C823 C 0.28207 0.58185 0.50434 0.0
C824 C 0.28459 0.52538 0.50233 0.0
C825 C 0.28155 0.58074 0.54339 0.0
C826 C 0.28138 0.5523 0.56189 0.0
C827 C 0.28425 0.49585 0.56003 0.0
C828 C 0.28856 0.46816 0.53978 0.0
C829 C 0.28311 0.52449 0.54165 0.0
C830 C 0.29098 0.46935 0.50081 0.0
C831 C 0.28838 0.49766 0.48218 0.0
H832 H 0.60259 0.16843 0.0605 0.0
H833 H 0.61178 0.13026 0.1707 0.0
H834 H 0.54478 0.13455 0.17895 0.0
H835 H 0.48355 0.15035 0.15496 0.0
H836 H 0.4746 0.18594 0.0433 0.0
H837 H 0.54135 0.18181 0.03548 0.0
C838 C 0.58984 0.16132 0.0864 0.0
C839 C 0.61208 0.15045 0.11568 0.0
C840 C 0.55136 0.16356 0.09068 0.0
C841 C 0.59519 0.13963 0.14828 0.0
C842 C 0.55694 0.14208 0.15297 0.0
C843 C 0.49639 0.15812 0.1294 0.0
C844 C 0.47426 0.1694 0.10013 0.0
C845 C 0.53479 0.15469 0.12466 0.0
C846 C 0.49114 0.17794 0.06651 0.0
C847 C 0.52922 0.17506 0.0618 0.0
H848 H 0.92197 0.90341 0.64842 0.0
H849 H 0.9122 0.83872 0.55766 0.0
H850 H 0.979 0.83837 0.54982 0.0
H851 H 0.04064 0.85894 0.56666 0.0
H852 H 0.04973 0.92557 0.65544 0.0
H853 H 0.98293 0.92432 0.66465 0.0
C854 C 0.93455 0.88882 0.62734 0.0
C855 C 0.9121 0.86989 0.60488 0.0
C856 C 0.9729 0.89011 0.62168 0.0
C857 C 0.92881 0.85189 0.57696 0.0
C858 C 0.96704 0.85245 0.5717 0.0
C859 C 0.02784 0.87302 0.58808 0.0
C860 C 0.05002 0.89148 0.61129 0.0
C861 C 0.98937 0.87176 0.59359 0.0
C862 C 0.0332 0.91041 0.63814 0.0
C863 C 0.99503 0.90976 0.64332 0.0
H864 H 0.47441 0.88047 0.87265 0.0
H865 H 0.46245 0.84546 0.98428 0.0
H866 H 0.52882 0.84888 0.9939 0.0
H867 H 0.59067 0.86141 0.97078 0.0
H868 H 0.60382 0.89571 0.85922 0.0
H869 H 0.53692 0.89287 0.84917 0.0
C870 C 0.48648 0.87234 0.89844 0.0
C871 C 0.46347 0.86186 0.92732 0.0
C872 C 0.52495 0.87456 0.90394 0.0
C873 C 0.47955 0.85303 0.96134 0.0
C874 C 0.51749 0.8554 0.96709 0.0
C875 C 0.57884 0.86785 0.94413 0.0
C876 C 0.60212 0.87738 0.91519 0.0
C877 C 0.54049 0.86605 0.93862 0.0
C878 C 0.5864 0.88742 0.88152 0.0
C879 C 0.54819 0.88576 0.87578 0.0
H880 H 0.05004 0.18291 0.46838 0.0
H881 H 0.06204 0.15159 0.35519 0.0
H882 H 0.99533 0.14634 0.34923 0.0
H883 H 0.93301 0.14808 0.37777 0.0
H884 H 0.92218 0.17532 0.49274 0.0
H885 H 0.98885 0.18247 0.49749 0.0
C886 C 0.03796 0.17544 0.44219 0.0
C887 C 0.06097 0.16957 0.41144 0.0
C888 C 0.99975 0.17038 0.43993 0.0
C889 C 0.04496 0.15873 0.37823 0.0
C890 C 0.00678 0.15465 0.37529 0.0
C891 C 0.94541 0.15564 0.40374 0.0
C892 C 0.92276 0.16238 0.43447 0.0
C893 C 0.98387 0.1601 0.4061 0.0
C894 C 0.93907 0.17111 0.46838 0.0
C895 C 0.97717 0.17511 0.47112 0.0
H896 H 0.09035 0.65117 0.15616 0.0
H897 H 0.0982 0.67441 0.03991 0.0
H898 H 0.03102 0.67886 0.0358 0.0
H899 H 0.96996 0.67727 0.06575 0.0
H900 H 0.96205 0.6516 0.18125 0.0
H901 H 0.02896 0.64903 0.18601 0.0
C902 C 0.07719 0.65736 0.13007 0.0
C903 C 0.09904 0.66361 0.09871 0.0
C904 C 0.03855 0.66039 0.12813 0.0
C905 C 0.08184 0.67058 0.06469 0.0
C906 C 0.04347 0.67302 0.06233 0.0
C907 C 0.98297 0.67165 0.09211 0.0
C908 C 0.96092 0.66624 0.12365 0.0
C909 C 0.02156 0.66854 0.09403 0.0
C910 C 0.97821 0.65799 0.15727 0.0
C911 C 0.01658 0.65554 0.15968 0.0
H912 H 0.53329 0.3836 0.6598 0.0
H913 H 0.54108 0.34689 0.54838 0.0
H914 H 0.4743 0.351 0.54093 0.0
H915 H 0.41342 0.36578 0.56563 0.0
H916 H 0.40527 0.40465 0.6758 0.0
H917 H 0.47216 0.3994 0.68417 0.0
C918 C 0.52017 0.3755 0.63443 0.0
C919 C 0.54205 0.36411 0.60503 0.0
C920 C 0.48169 0.37888 0.6299 0.0
C921 C 0.52477 0.35506 0.57168 0.0
C922 C 0.48665 0.35791 0.56717 0.0
C923 C 0.42634 0.37275 0.5916 0.0
C924 C 0.40437 0.38426 0.62074 0.0
C925 C 0.46481 0.3699 0.59599 0.0
C926 C 0.42158 0.39485 0.65344 0.0
C927 C 0.4598 0.39182 0.65821 0.0
H928 H 0.08679 0.39385 0.88332 0.0
H929 H 0.0963 0.37017 0.99941 0.0
H930 H 0.02936 0.36499 1.00398 0.0
H931 H 0.9683 0.36485 0.97438 0.0
H932 H 0.95794 0.3894 0.85868 0.0
H933 H 0.02477 0.39458 0.85373 0.0
C934 C 0.07402 0.38758 0.90952 0.0
C935 C 0.09634 0.38137 0.9407 0.0
C936 C 0.03543 0.38385 0.91166 0.0
C937 C 0.07962 0.37411 0.97479 0.0
C938 C 0.04138 0.3712 0.97742 0.0
C939 C 0.98074 0.37085 0.94792 0.0
C940 C 0.95814 0.37531 0.91648 0.0
C941 C 0.01908 0.37525 0.94584 0.0
C942 C 0.97467 0.38393 0.88269 0.0
C943 C 0.01292 0.38786 0.88017 0.0
H944 H 0.52462 0.68457 0.47106 0.0
H945 H 0.5369 0.65116 0.35866 0.0
H946 H 0.47004 0.64837 0.35166 0.0
H947 H 0.40755 0.65137 0.37953 0.0
H948 H 0.39561 0.68424 0.49223 0.0
H949 H 0.46247 0.68985 0.49785 0.0
C950 C 0.51257 0.67732 0.44478 0.0
C951 C 0.53581 0.66916 0.41497 0.0
C952 C 0.47403 0.67458 0.44153 0.0
C953 C 0.51979 0.65911 0.38139 0.0
C954 C 0.48146 0.6567 0.37772 0.0
C955 C 0.41974 0.65995 0.40514 0.0
C956 C 0.39675 0.66818 0.4351 0.0
C957 C 0.45829 0.66374 0.40788 0.0
C958 C 0.41277 0.67856 0.46849 0.0
C959 C 0.45099 0.6817 0.47173 0.0
H960 H 0.34855 0.15276 0.25318 0.0
H961 H 0.26785 0.12675 0.17056 0.0
H962 H 0.22061 0.12358 0.21924 0.0
H963 H 0.20114 0.13503 0.28361 0.0
H964 H 0.28202 0.15989 0.36641 0.0
H965 H 0.33083 0.15608 0.31933 0.0
C966 C 0.3208 0.14575 0.24588 0.0
C967 C 0.31159 0.14031 0.20816 0.0
C968 C 0.29396 0.14395 0.274 0.0
C969 C 0.27563 0.13099 0.19927 0.0
C970 C 0.24861 0.1294 0.2271 0.0
C971 C 0.22956 0.13893 0.29155 0.0
C972 C 0.23798 0.14796 0.3284 0.0
C973 C 0.25726 0.13681 0.26431 0.0
C974 C 0.27492 0.15271 0.33836 0.0
C975 C 0.30272 0.15083 0.31134 0.0
H976 H 0.33717 0.89425 0.77515 0.0
H977 H 0.25604 0.90729 0.86155 0.0
H978 H 0.20798 0.91357 0.81412 0.0
H979 H 0.18828 0.90828 0.74898 0.0
H980 H 0.26898 0.89611 0.66211 0.0
H981 H 0.31834 0.8968 0.70902 0.0
C982 C 0.30906 0.89906 0.78363 0.0
C983 C 0.30009 0.89992 0.82195 0.0
C984 C 0.28162 0.90246 0.75618 0.0
C985 C 0.26369 0.90657 0.8324 0.0
C986 C 0.23619 0.90989 0.80525 0.0
C987 C 0.21668 0.90642 0.74009 0.0
C988 C 0.22488 0.90184 0.70201 0.0
C989 C 0.24469 0.90683 0.76717 0.0
C990 C 0.26192 0.89972 0.69111 0.0
C991 C 0.29007 0.89989 0.718 0.0
H992 H 0.73173 0.88962 0.8204 0.0
H993 H 0.73798 0.79087 0.8343 0.0
H994 H 0.76052 0.78513 0.77053 0.0
H995 H 0.77793 0.80805 0.71048 0.0
H996 H 0.76881 0.90669 0.69569 0.0
H997 H 0.7477 0.91242 0.75977 0.0
C998 C 0.7384 0.86688 0.80958 0.0
C999 C 0.73351 0.84075 0.83226 0.0
C1000 C 0.75049 0.86365 0.7725 0.0
C1001 C 0.74158 0.81139 0.81751 0.0
C1002 C 0.75441 0.80807 0.78099 0.0
C1003 C 0.77118 0.83081 0.72114 0.0
C1004 C 0.775 0.85685 0.698 0.0
C1005 C 0.75878 0.83401 0.75813 0.0
C1006 C 0.76601 0.88614 0.71256 0.0
C1007 C 0.75406 0.88951 0.74938 0.0
H1008 H 0.79544 0.1437 0.32451 0.0
H1009 H 0.78728 0.24252 0.33749 0.0
H1010 H 0.76241 0.24701 0.27442 0.0
H1011 H 0.74255 0.22288 0.21543 0.0
H1012 H 0.75387 0.12429 0.20146 0.0
H1013 H 0.77799 0.11984 0.26468 0.0
C1014 C 0.78807 0.16621 0.3136 0.0
C1015 C 0.79298 0.19269 0.33592 0.0
C1016 C 0.77446 0.16873 0.27693 0.0
C1017 C 0.78381 0.22173 0.32102 0.0
C1018 C 0.76954 0.22433 0.2849 0.0
C1019 C 0.75038 0.20042 0.22615 0.0
C1020 C 0.74628 0.17398 0.20351 0.0
C1021 C 0.76473 0.198 0.26256 0.0
C1022 C 0.75685 0.14511 0.21798 0.0
C1023 C 0.77054 0.14248 0.2543 0.0
H1024 H 0.67719 0.63248 0.28806 0.0
H1025 H 0.7566 0.64814 0.37544 0.0
H1026 H 0.8066 0.64615 0.3295 0.0
H1027 H 0.82615 0.64713 0.26386 0.0
H1028 H 0.74708 0.63 0.17644 0.0
H1029 H 0.69813 0.62516 0.2232 0.0
C1030 C 0.70549 0.6347 0.29721 0.0
C1031 C 0.71319 0.64055 0.33516 0.0
C1032 C 0.73391 0.63366 0.27058 0.0
C1033 C 0.75002 0.64329 0.34656 0.0
C1034 C 0.77851 0.64248 0.32019 0.0
C1035 C 0.79839 0.64165 0.25498 0.0
C1036 C 0.79023 0.6392 0.21656 0.0
C1037 C 0.7706 0.63875 0.28202 0.0
C1038 C 0.75411 0.63192 0.20569 0.0
C1039 C 0.72612 0.62936 0.23246 0.0
H1040 H 0.67158 0.38208 0.75487 0.0
H1041 H 0.75019 0.40961 0.6714 0.0
H1042 H 0.79713 0.41668 0.72002 0.0
H1043 H 0.81724 0.40927 0.78529 0.0
H1044 H 0.73803 0.3833 0.86872 0.0
H1045 H 0.68939 0.38213 0.82115 0.0
C1046 C 0.69879 0.39016 0.74729 0.0
C1047 C 0.70745 0.39499 0.70936 0.0
C1048 C 0.7254 0.39446 0.77543 0.0
C1049 C 0.74277 0.40573 0.70023 0.0
C1050 C 0.76964 0.40963 0.72805 0.0
C1051 C 0.78917 0.40409 0.79323 0.0
C1052 C 0.78122 0.39642 0.83057 0.0
C1053 C 0.7615 0.40329 0.76562 0.0
C1054 C 0.74471 0.38973 0.84038 0.0
C1055 C 0.71703 0.38871 0.81306 0.0
H1056 H 0.27251 0.31492 0.72107 0.0
H1057 H 0.26728 0.41393 0.70856 0.0
H1058 H 0.24374 0.41912 0.77184 0.0
H1059 H 0.22475 0.39579 0.8312 0.0
H1060 H 0.22663 0.2967 0.84281 0.0
H1061 H 0.25126 0.29141 0.77978 0.0
C1062 C 0.26617 0.33763 0.73215 0.0
C1063 C 0.27176 0.36396 0.70989 0.0
C1064 C 0.25206 0.34051 0.7686 0.0
C1065 C 0.2631 0.39319 0.7248 0.0
C1066 C 0.24973 0.39624 0.76114 0.0
C1067 C 0.2307 0.37304 0.82001 0.0
C1068 C 0.22406 0.34672 0.84192 0.0
C1069 C 0.24418 0.37009 0.78337 0.0
C1070 C 0.23142 0.31739 0.82665 0.0
C1071 C 0.24557 0.31432 0.79056 0.0
H1072 H 0.26952 0.7329 0.31958 0.0
H1073 H 0.26405 0.63418 0.33482 0.0
H1074 H 0.24319 0.62767 0.27075 0.0
H1075 H 0.22615 0.64972 0.21006 0.0
H1076 H 0.22853 0.74851 0.19533 0.0
H1077 H 0.25086 0.75513 0.25911 0.0
C1078 C 0.26375 0.70997 0.30891 0.0
C1079 C 0.26841 0.68412 0.33226 0.0
C1080 C 0.25121 0.70631 0.27191 0.0
C1081 C 0.26055 0.65459 0.3178 0.0
C1082 C 0.2487 0.65077 0.28099 0.0
C1083 C 0.23175 0.6727 0.22071 0.0
C1084 C 0.22584 0.69853 0.1977 0.0
C1085 C 0.24394 0.67643 0.25775 0.0
C1086 C 0.23276 0.72817 0.2123 0.0
C1087 C 0.24558 0.732 0.24884 0.0
loop_
_geom_bond_atom_site_label_1
_geom_bond_atom_site_label_2
_geom_bond_distance
_geom_bond_site_symmetry_2
_ccdc_geom_bond_type
Mn0 O5 2.095 . S
Mn0 O15 2.162 . S
Mn0 O16 2.297 . S
Mn0 O24 2.385 . S
Mn0 O25 2.209 . S
Mn0 O26 2.094 . S
Mn1 O6 2.121 . S
Mn1 N8 2.257 . S
Mn1 N17 2.282 . S
Mn1 O25 2.215 . S
Mn1 O27 2.117 . S
C2 O24 1.234 . S
C2 O25 1.283 . S
C3 O15 1.281 . S
C3 O16 1.236 . S
C4 O26 1.240 . S
C4 O27 1.264 . S
O5 Mn0 2.095 . S
O5 C14 1.250 . S
O6 Mn1 2.121 . S
O6 C14 1.258 . S
C7 N8 1.326 . S
C7 C11 1.460 . S
C7 H13 0.929 . S
N8 Mn1 2.257 . S
N8 C7 1.326 . S
N8 C12 1.362 . S
C9 C10 1.258 . S
C9 C12 1.431 . S
C9 C29 1.449 . S
C10 C9 1.258 . S
C10 C11 1.477 . S
C10 H30 0.931 . S
C11 C7 1.460 . S
C11 C10 1.477 . S
C11 H31 0.930 . S
C12 N8 1.362 . S
C12 C9 1.431 . S
C12 C22 1.476 . S
H13 C7 0.929 . S
C14 O5 1.250 . S
C14 O6 1.258 . S
O15 Mn0 2.162 . S
O15 C3 1.281 . S
O16 Mn0 2.297 . S
O16 C3 1.236 . S
N17 Mn1 2.282 . S
N17 C18 1.328 . S
N17 C22 1.318 . S
C18 N17 1.328 . S
C18 C19 1.457 . S
C18 H23 0.929 . S
C19 C18 1.457 . S
C19 C20 1.291 . S
C19 H32 0.931 . S
C20 C19 1.291 . S
C20 C21 1.373 . S
C20 H33 0.929 . S
C21 C20 1.373 . S
C21 C22 1.396 . S
C21 C28 1.403 . S
C22 C12 1.476 . S
C22 N17 1.318 . S
C22 C21 1.396 . S
H23 C18 0.929 . S
O24 Mn0 2.385 . S
O24 C2 1.234 . S
O25 Mn0 2.209 . S
O25 Mn1 2.215 . S
O25 C2 1.283 . S
O26 Mn0 2.094 . S
O26 C4 1.240 . S
O27 Mn1 2.117 . S
O27 C4 1.264 . S
C28 C21 1.403 . S
C28 C29 1.399 . S
C28 H34 0.929 . S
C29 C9 1.449 . S
C29 C28 1.399 . S
C29 H35 0.930 . S
H30 C10 0.931 . S
H31 C11 0.930 . S
H32 C19 0.931 . S
H33 C20 0.929 . S
H34 C28 0.929 . S
H35 C29 0.930 . S
Mn36 O41 2.095 . S
Mn36 O51 2.162 . S
Mn36 O52 2.297 . S
Mn36 O60 2.385 . S
Mn36 O61 2.209 . S
Mn36 O62 2.094 . S
Mn37 O42 2.121 . S
Mn37 N44 2.257 . S
Mn37 N53 2.282 . S
Mn37 O61 2.215 . S
Mn37 O63 2.117 . S
C38 O60 1.234 . S
C38 O61 1.283 . S
C39 O51 1.281 . S
C39 O52 1.236 . S
C40 O62 1.240 . S
C40 O63 1.264 . S
O41 Mn36 2.095 . S
O41 C50 1.250 . S
O42 Mn37 2.121 . S
O42 C50 1.258 . S
C43 N44 1.326 . S
C43 C47 1.460 . S
C43 H49 0.929 . S
N44 Mn37 2.257 . S
N44 C43 1.326 . S
N44 C48 1.362 . S
C45 C46 1.258 . S
C45 C48 1.431 . S
C45 C65 1.449 . S
C46 C45 1.258 . S
C46 C47 1.477 . S
C46 H66 0.931 . S
C47 C43 1.460 . S
C47 C46 1.477 . S
C47 H67 0.930 . S
C48 N44 1.362 . S
C48 C45 1.431 . S
C48 C58 1.476 . S
H49 C43 0.929 . S
C50 O41 1.250 . S
C50 O42 1.258 . S
O51 Mn36 2.162 . S
O51 C39 1.281 . S
O52 Mn36 2.297 . S
O52 C39 1.236 . S
N53 Mn37 2.282 . S
N53 C54 1.328 . S
N53 C58 1.318 . S
C54 N53 1.328 . S
C54 C55 1.457 . S
C54 H59 0.929 . S
C55 C54 1.457 . S
C55 C56 1.291 . S
C55 H68 0.931 . S
C56 C55 1.291 . S
C56 C57 1.373 . S
C56 H69 0.929 . S
C57 C56 1.373 . S
C57 C58 1.396 . S
C57 C64 1.427 . S
C58 C48 1.476 . S
C58 N53 1.318 . S
C58 C57 1.396 . S
H59 C54 0.929 . S
O60 Mn36 2.385 . S
O60 C38 1.234 . S
O61 Mn36 2.209 . S
O61 Mn37 2.215 . S
O61 C38 1.283 . S
O62 Mn36 2.094 . S
O62 C40 1.240 . S
O63 Mn37 2.117 . S
O63 C40 1.264 . S
C64 C57 1.427 . S
C64 C65 1.402 . S
C64 H70 0.902 1_455 S
C65 C45 1.449 . S
C65 C64 1.402 . S
C65 H71 0.930 1_455 S
H66 C46 0.931 . S
H67 C47 0.930 . S
H68 C55 0.931 . S
H69 C56 0.929 . S
H70 C64 0.902 1_655 S
H71 C65 0.930 1_655 S
Mn72 O77 2.095 . S
Mn72 O87 2.162 . S
Mn72 O88 2.297 . S
Mn72 O96 2.385 . S
Mn72 O97 2.209 . S
Mn72 O98 2.094 . S
Mn73 O78 2.121 . S
Mn73 N80 2.257 . S
Mn73 N89 2.282 . S
Mn73 O97 2.215 . S
Mn73 O99 2.117 . S
C74 O96 1.234 . S
C74 O97 1.283 . S
C75 O87 1.281 . S
C75 O88 1.236 . S
C76 O98 1.240 . S
C76 O99 1.264 . S
O77 Mn72 2.095 . S
O77 C86 1.250 . S
O78 Mn73 2.121 . S
O78 C86 1.258 . S
C79 N80 1.326 . S
C79 C83 1.460 . S
C79 H85 0.929 . S
N80 Mn73 2.257 . S
N80 C79 1.326 . S
N80 C84 1.362 . S
C81 C82 1.258 . S
C81 C84 1.431 . S
C81 C101 1.449 . S
C82 C81 1.258 . S
C82 C83 1.477 . S
C82 H102 0.931 . S
C83 C79 1.460 . S
C83 C82 1.477 . S
C83 H103 0.930 . S
C84 N80 1.362 . S
C84 C81 1.431 . S
C84 C94 1.476 . S
H85 C79 0.929 . S
C86 O77 1.250 . S
C86 O78 1.258 . S
O87 Mn72 2.162 . S
O87 C75 1.281 . S
O88 Mn72 2.297 . S
O88 C75 1.236 . S
N89 Mn73 2.282 . S
N89 C90 1.328 . S
N89 C94 1.318 . S
C90 N89 1.328 . S
C90 C91 1.457 . S
C90 H95 0.929 . S
C91 C90 1.457 . S
C91 C92 1.291 . S
C91 H104 0.931 . S
C92 C91 1.291 . S
C92 C93 1.373 . S
C92 H105 0.929 . S
C93 C92 1.373 . S
C93 C94 1.396 . S
C93 C100 1.403 . S
C94 C84 1.476 . S
C94 N89 1.318 . S
C94 C93 1.396 . S
H95 C90 0.929 . S
O96 Mn72 2.385 . S
O96 C74 1.234 . S
O97 Mn72 2.209 . S
O97 Mn73 2.215 . S
O97 C74 1.283 . S
O98 Mn72 2.094 . S
O98 C76 1.240 . S
O99 Mn73 2.117 . S
O99 C76 1.264 . S
C100 C93 1.403 . S
C100 C101 1.399 . S
C100 H106 0.929 . S
C101 C81 1.449 . S
C101 C100 1.399 . S
C101 H107 0.930 . S
H102 C82 0.931 . S
H103 C83 0.930 . S
H104 C91 0.931 . S
H105 C92 0.929 . S
H106 C100 0.929 . S
H107 C101 0.930 . S
Mn108 O113 2.095 . S
Mn108 O123 2.162 . S
Mn108 O124 2.297 . S
Mn108 O132 2.385 . S
Mn108 O133 2.209 . S
Mn108 O134 2.094 . S
Mn109 O114 2.121 . S
Mn109 N116 2.257 . S
Mn109 N125 2.282 . S
Mn109 O133 2.215 . S
Mn109 O135 2.117 . S
C110 O132 1.234 . S
C110 O133 1.283 . S
C111 O123 1.281 . S
C111 O124 1.236 . S
C112 O134 1.240 . S
C112 O135 1.264 . S
O113 Mn108 2.095 . S
O113 C122 1.250 . S
O114 Mn109 2.121 . S
O114 C122 1.258 . S
C115 N116 1.326 . S
C115 C119 1.460 . S
C115 H121 0.929 . S
N116 Mn109 2.257 . S
N116 C115 1.326 . S
N116 C120 1.362 . S
C117 C118 1.258 . S
C117 C120 1.431 . S
C117 C137 1.449 . S
C118 C117 1.258 . S
C118 C119 1.477 . S
C118 H138 0.931 . S
C119 C115 1.460 . S
C119 C118 1.477 . S
C119 H139 0.930 . S
C120 N116 1.362 . S
C120 C117 1.431 . S
C120 C130 1.476 . S
H121 C115 0.929 . S
C122 O113 1.250 . S
C122 O114 1.258 . S
O123 Mn108 2.162 . S
O123 C111 1.281 . S
O124 Mn108 2.297 . S
O124 C111 1.236 . S
N125 Mn109 2.282 . S
N125 C126 1.328 . S
N125 C130 1.318 . S
C126 N125 1.328 . S
C126 C127 1.457 . S
C126 H131 0.929 . S
C127 C126 1.457 . S
C127 C128 1.291 . S
C127 H140 0.931 . S
C128 C127 1.291 . S
C128 C129 1.373 . S
C128 H141 0.929 . S
C129 C128 1.373 . S
C129 C130 1.396 . S
C129 C136 1.427 . S
C130 C120 1.476 . S
C130 N125 1.318 . S
C130 C129 1.396 . S
H131 C126 0.929 . S
O132 Mn108 2.385 . S
O132 C110 1.234 . S
O133 Mn108 2.209 . S
O133 Mn109 2.215 . S
O133 C110 1.283 . S
O134 Mn108 2.094 . S
O134 C112 1.240 . S
O135 Mn109 2.117 . S
O135 C112 1.264 . S
C136 C129 1.427 . S
C136 C137 1.402 . S
C136 H142 0.902 1_455 S
C137 C117 1.449 . S
C137 C136 1.402 . S
C137 H143 0.930 1_455 S
H138 C118 0.931 . S
H139 C119 0.930 . S
H140 C127 0.931 . S
H141 C128 0.929 . S
H142 C136 0.902 1_655 S
H143 C137 0.930 1_655 S
Mn144 O149 2.095 . S
Mn144 O159 2.162 . S
Mn144 O160 2.297 . S
Mn144 O168 2.385 . S
Mn144 O169 2.209 . S
Mn144 O170 2.094 . S
Mn145 O150 2.121 . S
Mn145 N152 2.257 . S
Mn145 N161 2.282 . S
Mn145 O169 2.215 . S
Mn145 O171 2.117 . S
C146 O168 1.234 . S
C146 O169 1.283 . S
C147 O159 1.281 . S
C147 O160 1.236 . S
C148 O170 1.240 . S
C148 O171 1.264 . S
O149 Mn144 2.095 . S
O149 C158 1.250 . S
O150 Mn145 2.121 . S
O150 C158 1.258 . S
C151 N152 1.326 . S
C151 C155 1.460 . S
C151 H157 0.929 . S
N152 Mn145 2.257 . S
N152 C151 1.326 . S
N152 C156 1.362 . S
C153 C154 1.258 . S
C153 C156 1.431 . S
C153 C173 1.449 . S
C154 C153 1.258 . S
C154 C155 1.477 . S
C154 H174 0.931 . S
C155 C151 1.460 . S
C155 C154 1.477 . S
C155 H175 0.930 . S
C156 N152 1.362 . S
C156 C153 1.431 . S
C156 C166 1.476 . S
H157 C151 0.929 . S
C158 O149 1.250 . S
C158 O150 1.258 . S
O159 Mn144 2.162 . S
O159 C147 1.281 . S
O160 Mn144 2.297 . S
O160 C147 1.236 . S
N161 Mn145 2.282 . S
N161 C162 1.328 . S
N161 C166 1.318 . S
C162 N161 1.328 . S
C162 C163 1.457 . S
C162 H167 0.929 . S
C163 C162 1.457 . S
C163 C164 1.291 . S
C163 H176 0.931 . S
C164 C163 1.291 . S
C164 C165 1.373 . S
C164 H177 0.929 . S
C165 C164 1.373 . S
C165 C166 1.396 . S
C165 C172 1.403 . S
C166 C156 1.476 . S
C166 N161 1.318 . S
C166 C165 1.396 . S
H167 C162 0.929 . S
O168 Mn144 2.385 . S
O168 C146 1.234 . S
O169 Mn144 2.209 . S
O169 Mn145 2.215 . S
O169 C146 1.283 . S
O170 Mn144 2.094 . S
O170 C148 1.240 . S
O171 Mn145 2.117 . S
O171 C148 1.264 . S
C172 C165 1.403 . S
C172 C173 1.399 . S
C172 H178 0.929 . S
C173 C153 1.449 . S
C173 C172 1.399 . S
C173 H179 0.930 . S
H174 C154 0.931 . S
H175 C155 0.930 . S
H176 C163 0.931 . S
H177 C164 0.929 . S
H178 C172 0.929 . S
H179 C173 0.930 . S
Mn180 O185 2.095 . S
Mn180 O195 2.162 . S
Mn180 O196 2.297 . S
Mn180 O204 2.385 . S
Mn180 O205 2.209 . S
Mn180 O206 2.094 . S
Mn181 O186 2.121 . S
Mn181 N188 2.257 . S
Mn181 N197 2.282 . S
Mn181 O205 2.215 . S
Mn181 O207 2.117 . S
C182 O204 1.234 . S
C182 O205 1.283 . S
C183 O195 1.281 . S
C183 O196 1.236 . S
C184 O206 1.240 . S
C184 O207 1.264 . S
O185 Mn180 2.095 . S
O185 C194 1.250 . S
O186 Mn181 2.121 . S
O186 C194 1.258 . S
C187 N188 1.326 . S
C187 C191 1.460 . S
C187 H193 0.929 . S
N188 Mn181 2.257 . S
N188 C187 1.326 . S
N188 C192 1.362 . S
C189 C190 1.258 . S
C189 C192 1.431 . S
C189 C209 1.449 . S
C190 C189 1.258 . S
C190 C191 1.477 . S
C190 H210 0.931 . S
C191 C187 1.460 . S
C191 C190 1.477 . S
C191 H211 0.930 . S
C192 N188 1.362 . S
C192 C189 1.431 . S
C192 C202 1.476 . S
H193 C187 0.929 . S
C194 O185 1.250 . S
C194 O186 1.258 . S
O195 Mn180 2.162 . S
O195 C183 1.281 . S
O196 Mn180 2.297 . S
O196 C183 1.236 . S
N197 Mn181 2.282 . S
N197 C198 1.328 . S
N197 C202 1.318 . S
C198 N197 1.328 . S
C198 C199 1.457 . S
C198 H203 0.929 . S
C199 C198 1.457 . S
C199 C200 1.291 . S
C199 H212 0.931 . S
C200 C199 1.291 . S
C200 C201 1.373 . S
C200 H213 0.929 . S
C201 C200 1.373 . S
C201 C202 1.396 . S
C201 C208 1.403 . S
C202 C192 1.476 . S
C202 N197 1.318 . S
C202 C201 1.396 . S
H203 C198 0.929 . S
O204 Mn180 2.385 . S
O204 C182 1.234 . S
O205 Mn180 2.209 . S
O205 Mn181 2.215 . S
O205 C182 1.283 . S
O206 Mn180 2.094 . S
O206 C184 1.240 . S
O207 Mn181 2.117 . S
O207 C184 1.264 . S
C208 C201 1.403 . S
C208 C209 1.399 . S
C208 H214 0.929 . S
C209 C189 1.449 . S
C209 C208 1.399 . S
C209 H215 0.930 . S
H210 C190 0.931 . S
H211 C191 0.930 . S
H212 C199 0.931 . S
H213 C200 0.929 . S
H214 C208 0.929 . S
H215 C209 0.930 . S
Mn216 O221 2.095 . S
Mn216 O231 2.162 . S
Mn216 O232 2.297 . S
Mn216 O240 2.385 . S
Mn216 O241 2.209 . S
Mn216 O242 2.094 . S
Mn217 O222 2.121 . S
Mn217 N224 2.257 . S
Mn217 N233 2.282 . S
Mn217 O241 2.215 . S
Mn217 O243 2.117 . S
C218 O240 1.234 . S
C218 O241 1.283 . S
C219 O231 1.281 . S
C219 O232 1.236 . S
C220 O242 1.240 . S
C220 O243 1.264 . S
O221 Mn216 2.095 . S
O221 C230 1.250 . S
O222 Mn217 2.121 . S
O222 C230 1.258 . S
C223 N224 1.326 . S
C223 C227 1.460 . S
C223 H229 0.929 . S
N224 Mn217 2.257 . S
N224 C223 1.326 . S
N224 C228 1.362 . S
C225 C226 1.258 . S
C225 C228 1.431 . S
C225 C245 1.449 . S
C226 C225 1.258 . S
C226 C227 1.477 . S
C226 H246 0.931 . S
C227 C223 1.460 . S
C227 C226 1.477 . S
C227 H247 0.930 . S
C228 N224 1.362 . S
C228 C225 1.431 . S
C228 C238 1.476 . S
H229 C223 0.929 . S
C230 O221 1.250 . S
C230 O222 1.258 . S
O231 Mn216 2.162 . S
O231 C219 1.281 . S
O232 Mn216 2.297 . S
O232 C219 1.236 . S
N233 Mn217 2.282 . S
N233 C234 1.328 . S
N233 C238 1.318 . S
C234 N233 1.328 . S
C234 C235 1.457 . S
C234 H239 0.929 . S
C235 C234 1.457 . S
C235 C236 1.291 . S
C235 H248 0.931 . S
C236 C235 1.291 . S
C236 C237 1.373 . S
C236 H249 0.929 . S
C237 C236 1.373 . S
C237 C238 1.396 . S
C237 C244 1.403 . S
C238 C228 1.476 . S
C238 N233 1.318 . S
C238 C237 1.396 . S
H239 C234 0.929 . S
O240 Mn216 2.385 . S
O240 C218 1.234 . S
O241 Mn216 2.209 . S
O241 Mn217 2.215 . S
O241 C218 1.283 . S
O242 Mn216 2.094 . S
O242 C220 1.240 . S
O243 Mn217 2.117 . S
O243 C220 1.264 . S
C244 C237 1.403 . S
C244 C245 1.399 . S
C244 H250 0.929 . S
C245 C225 1.449 . S
C245 C244 1.399 . S
C245 H251 0.930 . S
H246 C226 0.931 . S
H247 C227 0.930 . S
H248 C235 0.931 . S
H249 C236 0.929 . S
H250 C244 0.929 . S
H251 C245 0.930 . S
Mn252 O257 2.095 . S
Mn252 O267 2.162 . S
Mn252 O268 2.297 . S
Mn252 O276 2.385 . S
Mn252 O277 2.209 . S
Mn252 O278 2.094 . S
Mn253 O258 2.121 . S
Mn253 N260 2.257 . S
Mn253 N269 2.282 . S
Mn253 O277 2.215 . S
Mn253 O279 2.117 . S
C254 O276 1.234 . S
C254 O277 1.283 . S
C255 O267 1.281 . S
C255 O268 1.236 . S
C256 O278 1.240 . S
C256 O279 1.264 . S
O257 Mn252 2.095 . S
O257 C266 1.250 . S
O258 Mn253 2.121 . S
O258 C266 1.258 . S
C259 N260 1.326 . S
C259 C263 1.460 . S
C259 H265 0.929 . S
N260 Mn253 2.257 . S
N260 C259 1.326 . S
N260 C264 1.362 . S
C261 C262 1.258 . S
C261 C264 1.431 . S
C261 C281 1.449 . S
C262 C261 1.258 . S
C262 C263 1.477 . S
C262 H282 0.931 . S
C263 C259 1.460 . S
C263 C262 1.477 . S
C263 H283 0.930 . S
C264 N260 1.362 . S
C264 C261 1.431 . S
C264 C274 1.476 . S
H265 C259 0.929 . S
C266 O257 1.250 . S
C266 O258 1.258 . S
O267 Mn252 2.162 . S
O267 C255 1.281 . S
O268 Mn252 2.297 . S
O268 C255 1.236 . S
N269 Mn253 2.282 . S
N269 C270 1.328 . S
N269 C274 1.318 . S
C270 N269 1.328 . S
C270 C271 1.457 . S
C270 H275 0.929 . S
C271 C270 1.457 . S
C271 C272 1.291 . S
C271 H284 0.931 . S
C272 C271 1.291 . S
C272 C273 1.373 . S
C272 H285 0.929 . S
C273 C272 1.373 . S
C273 C274 1.396 . S
C273 C280 1.403 . S
C274 C264 1.476 . S
C274 N269 1.318 . S
C274 C273 1.396 . S
H275 C270 0.929 . S
O276 Mn252 2.385 . S
O276 C254 1.234 . S
O277 Mn252 2.209 . S
O277 Mn253 2.215 . S
O277 C254 1.283 . S
O278 Mn252 2.094 . S
O278 C256 1.240 . S
O279 Mn253 2.117 . S
O279 C256 1.264 . S
C280 C273 1.403 . S
C280 C281 1.399 . S
C280 H286 0.929 . S
C281 C261 1.449 . S
C281 C280 1.399 . S
C281 H287 0.930 . S
H282 C262 0.931 . S
H283 C263 0.930 . S
H284 C271 0.931 . S
H285 C272 0.929 . S
H286 C280 0.929 . S
H287 C281 0.930 . S
Mn288 O293 2.095 . S
Mn288 O303 2.162 . S
Mn288 O304 2.297 . S
Mn288 O312 2.385 . S
Mn288 O313 2.209 . S
Mn288 O314 2.094 . S
Mn289 O294 2.121 . S
Mn289 N296 2.257 . S
Mn289 N305 2.282 . S
Mn289 O313 2.215 . S
Mn289 O315 2.117 . S
C290 O312 1.234 . S
C290 O313 1.283 . S
C291 O303 1.281 . S
C291 O304 1.236 . S
C292 O314 1.240 . S
C292 O315 1.264 . S
O293 Mn288 2.095 . S
O293 C302 1.250 . S
O294 Mn289 2.121 . S
O294 C302 1.258 . S
C295 N296 1.326 . S
C295 C299 1.460 . S
C295 H301 0.929 . S
N296 Mn289 2.257 . S
N296 C295 1.326 . S
N296 C300 1.362 . S
C297 C298 1.258 . S
C297 C300 1.431 . S
C297 C317 1.449 . S
C298 C297 1.258 . S
C298 C299 1.477 . S
C298 H318 0.931 . S
C299 C295 1.460 . S
C299 C298 1.477 . S
C299 H319 0.930 . S
C300 N296 1.362 . S
C300 C297 1.431 . S
C300 C310 1.476 . S
H301 C295 0.929 . S
C302 O293 1.250 . S
C302 O294 1.258 . S
O303 Mn288 2.162 . S
O303 C291 1.281 . S
O304 Mn288 2.297 . S
O304 C291 1.236 . S
N305 Mn289 2.282 . S
N305 C306 1.328 . S
N305 C310 1.318 . S
C306 N305 1.328 . S
C306 C307 1.457 . S
C306 H311 0.929 . S
C307 C306 1.457 . S
C307 C308 1.291 . S
C307 H320 0.931 . S
C308 C307 1.291 . S
C308 C309 1.373 . S
C308 H321 0.929 . S
C309 C308 1.373 . S
C309 C310 1.396 . S
C309 C316 1.427 . S
C310 C300 1.476 . S
C310 N305 1.318 . S
C310 C309 1.396 . S
H311 C306 0.929 . S
O312 Mn288 2.385 . S
O312 C290 1.234 . S
O313 Mn288 2.209 . S
O313 Mn289 2.215 . S
O313 C290 1.283 . S
O314 Mn288 2.094 . S
O314 C292 1.240 . S
O315 Mn289 2.117 . S
O315 C292 1.264 . S
C316 C309 1.427 . S
C316 C317 1.402 . S
C316 H322 0.902 1_655 S
C317 C297 1.449 . S
C317 C316 1.402 . S
C317 H323 0.930 1_655 S
H318 C298 0.931 . S
H319 C299 0.930 . S
H320 C307 0.931 . S
H321 C308 0.929 . S
H322 C316 0.902 1_455 S
H323 C317 0.930 1_455 S
Mn324 O329 2.095 . S
Mn324 O339 2.162 . S
Mn324 O340 2.297 . S
Mn324 O348 2.385 . S
Mn324 O349 2.209 . S
Mn324 O350 2.094 . S
Mn325 O330 2.121 . S
Mn325 N332 2.257 . S
Mn325 N341 2.282 . S
Mn325 O349 2.215 . S
Mn325 O351 2.117 . S
C326 O348 1.234 . S
C326 O349 1.283 . S
C327 O339 1.281 . S
C327 O340 1.236 . S
C328 O350 1.240 . S
C328 O351 1.264 . S
O329 Mn324 2.095 . S
O329 C338 1.250 . S
O330 Mn325 2.121 . S
O330 C338 1.258 . S
C331 N332 1.326 . S
C331 C335 1.460 . S
C331 H337 0.929 . S
N332 Mn325 2.257 . S
N332 C331 1.326 . S
N332 C336 1.362 . S
C333 C334 1.258 . S
C333 C336 1.431 . S
C333 C353 1.449 . S
C334 C333 1.258 . S
C334 C335 1.477 . S
C334 H354 0.931 . S
C335 C331 1.460 . S
C335 C334 1.477 . S
C335 H355 0.930 . S
C336 N332 1.362 . S
C336 C333 1.431 . S
C336 C346 1.476 . S
H337 C331 0.929 . S
C338 O329 1.250 . S
C338 O330 1.258 . S
O339 Mn324 2.162 . S
O339 C327 1.281 . S
O340 Mn324 2.297 . S
O340 C327 1.236 . S
N341 Mn325 2.282 . S
N341 C342 1.328 . S
N341 C346 1.318 . S
C342 N341 1.328 . S
C342 C343 1.457 . S
C342 H347 0.929 . S
C343 C342 1.457 . S
C343 C344 1.291 . S
C343 H356 0.931 . S
C344 C343 1.291 . S
C344 C345 1.373 . S
C344 H357 0.929 . S
C345 C344 1.373 . S
C345 C346 1.396 . S
C345 C352 1.403 . S
C346 C336 1.476 . S
C346 N341 1.318 . S
C346 C345 1.396 . S
H347 C342 0.929 . S
O348 Mn324 2.385 . S
O348 C326 1.234 . S
O349 Mn324 2.209 . S
O349 Mn325 2.215 . S
O349 C326 1.283 . S
O350 Mn324 2.094 . S
O350 C328 1.240 . S
O351 Mn325 2.117 . S
O351 C328 1.264 . S
C352 C345 1.403 . S
C352 C353 1.399 . S
C352 H358 0.929 . S
C353 C333 1.449 . S
C353 C352 1.399 . S
C353 H359 0.930 . S
H354 C334 0.931 . S
H355 C335 0.930 . S
H356 C343 0.931 . S
H357 C344 0.929 . S
H358 C352 0.929 . S
H359 C353 0.930 . S
Mn360 O365 2.095 . S
Mn360 O375 2.162 . S
Mn360 O376 2.297 . S
Mn360 O384 2.385 . S
Mn360 O385 2.209 . S
Mn360 O386 2.094 . S
Mn361 O366 2.121 . S
Mn361 N368 2.257 . S
Mn361 N377 2.282 . S
Mn361 O385 2.215 . S
Mn361 O387 2.117 . S
C362 O384 1.234 . S
C362 O385 1.283 . S
C363 O375 1.281 . S
C363 O376 1.236 . S
C364 O386 1.240 . S
C364 O387 1.264 . S
O365 Mn360 2.095 . S
O365 C374 1.250 . S
O366 Mn361 2.121 . S
O366 C374 1.258 . S
C367 N368 1.326 . S
C367 C371 1.460 . S
C367 H373 0.929 . S
N368 Mn361 2.257 . S
N368 C367 1.326 . S
N368 C372 1.362 . S
C369 C370 1.258 . S
C369 C372 1.431 . S
C369 C389 1.449 . S
C370 C369 1.258 . S
C370 C371 1.477 . S
C370 H390 0.931 . S
C371 C367 1.460 . S
C371 C370 1.477 . S
C371 H391 0.930 . S
C372 N368 1.362 . S
C372 C369 1.431 . S
C372 C382 1.476 . S
H373 C367 0.929 . S
C374 O365 1.250 . S
C374 O366 1.258 . S
O375 Mn360 2.162 . S
O375 C363 1.281 . S
O376 Mn360 2.297 . S
O376 C363 1.236 . S
N377 Mn361 2.282 . S
N377 C378 1.328 . S
N377 C382 1.318 . S
C378 N377 1.328 . S
C378 C379 1.457 . S
C378 H383 0.929 . S
C379 C378 1.457 . S
C379 C380 1.291 . S
C379 H392 0.931 . S
C380 C379 1.291 . S
C380 C381 1.373 . S
C380 H393 0.929 . S
C381 C380 1.373 . S
C381 C382 1.396 . S
C381 C388 1.427 . S
C382 C372 1.476 . S
C382 N377 1.318 . S
C382 C381 1.396 . S
H383 C378 0.929 . S
O384 Mn360 2.385 . S
O384 C362 1.234 . S
O385 Mn360 2.209 . S
O385 Mn361 2.215 . S
O385 C362 1.283 . S
O386 Mn360 2.094 . S
O386 C364 1.240 . S
O387 Mn361 2.117 . S
O387 C364 1.264 . S
C388 C381 1.427 . S
C388 C389 1.402 . S
C388 H394 0.902 1_655 S
C389 C369 1.449 . S
C389 C388 1.402 . S
C389 H395 0.930 1_655 S
H390 C370 0.931 . S
H391 C371 0.930 . S
H392 C379 0.931 . S
H393 C380 0.929 . S
H394 C388 0.902 1_455 S
H395 C389 0.930 1_455 S
Mn396 O401 2.095 . S
Mn396 O411 2.162 . S
Mn396 O412 2.297 . S
Mn396 O420 2.385 . S
Mn396 O421 2.209 . S
Mn396 O422 2.094 . S
Mn397 O402 2.121 . S
Mn397 N404 2.257 . S
Mn397 N413 2.282 . S
Mn397 O421 2.215 . S
Mn397 O423 2.117 . S
C398 O420 1.234 . S
C398 O421 1.283 . S
C399 O411 1.281 . S
C399 O412 1.236 . S
C400 O422 1.240 . S
C400 O423 1.264 . S
O401 Mn396 2.095 . S
O401 C410 1.250 . S
O402 Mn397 2.121 . S
O402 C410 1.258 . S
C403 N404 1.326 . S
C403 C407 1.460 . S
C403 H409 0.929 . S
N404 Mn397 2.257 . S
N404 C403 1.326 . S
N404 C408 1.362 . S
C405 C406 1.258 . S
C405 C408 1.431 . S
C405 C425 1.449 . S
C406 C405 1.258 . S
C406 C407 1.477 . S
C406 H426 0.931 . S
C407 C403 1.460 . S
C407 C406 1.477 . S
C407 H427 0.930 . S
C408 N404 1.362 . S
C408 C405 1.431 . S
C408 C418 1.476 . S
H409 C403 0.929 . S
C410 O401 1.250 . S
C410 O402 1.258 . S
O411 Mn396 2.162 . S
O411 C399 1.281 . S
O412 Mn396 2.297 . S
O412 C399 1.236 . S
N413 Mn397 2.282 . S
N413 C414 1.328 . S
N413 C418 1.318 . S
C414 N413 1.328 . S
C414 C415 1.457 . S
C414 H419 0.929 . S
C415 C414 1.457 . S
C415 C416 1.291 . S
C415 H428 0.931 . S
C416 C415 1.291 . S
C416 C417 1.373 . S
C416 H429 0.929 . S
C417 C416 1.373 . S
C417 C418 1.396 . S
C417 C424 1.403 . S
C418 C408 1.476 . S
C418 N413 1.318 . S
C418 C417 1.396 . S
H419 C414 0.929 . S
O420 Mn396 2.385 . S
O420 C398 1.234 . S
O421 Mn396 2.209 . S
O421 Mn397 2.215 . S
O421 C398 1.283 . S
O422 Mn396 2.094 . S
O422 C400 1.240 . S
O423 Mn397 2.117 . S
O423 C400 1.264 . S
C424 C417 1.403 . S
C424 C425 1.399 . S
C424 H430 0.929 . S
C425 C405 1.449 . S
C425 C424 1.399 . S
C425 H431 0.930 . S
H426 C406 0.931 . S
H427 C407 0.930 . S
H428 C415 0.931 . S
H429 C416 0.929 . S
H430 C424 0.929 . S
H431 C425 0.930 . S
Mn432 O437 2.095 . S
Mn432 O447 2.162 . S
Mn432 O448 2.297 . S
Mn432 O456 2.385 . S
Mn432 O457 2.209 . S
Mn432 O458 2.094 . S
Mn433 O438 2.121 . S
Mn433 N440 2.257 . S
Mn433 N449 2.282 . S
Mn433 O457 2.215 . S
Mn433 O459 2.117 . S
C434 O456 1.234 . S
C434 O457 1.283 . S
C435 O447 1.281 . S
C435 O448 1.236 . S
C436 O458 1.240 . S
C436 O459 1.264 . S
O437 Mn432 2.095 . S
O437 C446 1.250 . S
O438 Mn433 2.121 . S
O438 C446 1.258 . S
C439 N440 1.326 . S
C439 C443 1.460 . S
C439 H445 0.929 . S
N440 Mn433 2.257 . S
N440 C439 1.326 . S
N440 C444 1.362 . S
C441 C442 1.258 . S
C441 C444 1.431 . S
C441 C461 1.449 . S
C442 C441 1.258 . S
C442 C443 1.477 . S
C442 H462 0.931 . S
C443 C439 1.460 . S
C443 C442 1.477 . S
C443 H463 0.930 . S
C444 N440 1.362 . S
C444 C441 1.431 . S
C444 C454 1.476 . S
H445 C439 0.929 . S
C446 O437 1.250 . S
C446 O438 1.258 . S
O447 Mn432 2.162 . S
O447 C435 1.281 . S
O448 Mn432 2.297 . S
O448 C435 1.236 . S
N449 Mn433 2.282 . S
N449 C450 1.328 . S
N449 C454 1.318 . S
C450 N449 1.328 . S
C450 C451 1.457 . S
C450 H455 0.929 . S
C451 C450 1.457 . S
C451 C452 1.291 . S
C451 H464 0.931 . S
C452 C451 1.291 . S
C452 C453 1.373 . S
C452 H465 0.929 . S
C453 C452 1.373 . S
C453 C454 1.396 . S
C453 C460 1.403 . S
C454 C444 1.476 . S
C454 N449 1.318 . S
C454 C453 1.396 . S
H455 C450 0.929 . S
O456 Mn432 2.385 . S
O456 C434 1.234 . S
O457 Mn432 2.209 . S
O457 Mn433 2.215 . S
O457 C434 1.283 . S
O458 Mn432 2.094 . S
O458 C436 1.240 . S
O459 Mn433 2.117 . S
O459 C436 1.264 . S
C460 C453 1.403 . S
C460 C461 1.399 . S
C460 H466 0.929 . S
C461 C441 1.449 . S
C461 C460 1.399 . S
C461 H467 0.930 . S
H462 C442 0.931 . S
H463 C443 0.930 . S
H464 C451 0.931 . S
H465 C452 0.929 . S
H466 C460 0.929 . S
H467 C461 0.930 . S
Mn468 O473 2.095 . S
Mn468 O483 2.162 . S
Mn468 O484 2.297 . S
Mn468 O492 2.385 . S
Mn468 O493 2.209 . S
Mn468 O494 2.094 . S
Mn469 O474 2.121 . S
Mn469 N476 2.257 . S
Mn469 N485 2.282 . S
Mn469 O493 2.215 . S
Mn469 O495 2.117 . S
C470 O492 1.234 . S
C470 O493 1.283 . S
C471 O483 1.281 . S
C471 O484 1.236 . S
C472 O494 1.240 . S
C472 O495 1.264 . S
O473 Mn468 2.095 . S
O473 C482 1.250 . S
O474 Mn469 2.121 . S
O474 C482 1.258 . S
C475 N476 1.326 . S
C475 C479 1.460 . S
C475 H481 0.929 . S
N476 Mn469 2.257 . S
N476 C475 1.326 . S
N476 C480 1.362 . S
C477 C478 1.258 . S
C477 C480 1.431 . S
C477 C497 1.449 . S
C478 C477 1.258 . S
C478 C479 1.477 . S
C478 H498 0.931 . S
C479 C475 1.460 . S
C479 C478 1.477 . S
C479 H499 0.930 . S
C480 N476 1.362 . S
C480 C477 1.431 . S
C480 C490 1.476 . S
H481 C475 0.929 . S
C482 O473 1.250 . S
C482 O474 1.258 . S
O483 Mn468 2.162 . S
O483 C471 1.281 . S
O484 Mn468 2.297 . S
O484 C471 1.236 . S
N485 Mn469 2.282 . S
N485 C486 1.328 . S
N485 C490 1.318 . S
C486 N485 1.328 . S
C486 C487 1.457 . S
C486 H491 0.929 . S
C487 C486 1.457 . S
C487 C488 1.291 . S
C487 H500 0.931 . S
C488 C487 1.291 . S
C488 C489 1.373 . S
C488 H501 0.929 . S
C489 C488 1.373 . S
C489 C490 1.396 . S
C489 C496 1.403 . S
C490 C480 1.476 . S
C490 N485 1.318 . S
C490 C489 1.396 . S
H491 C486 0.929 . S
O492 Mn468 2.385 . S
O492 C470 1.234 . S
O493 Mn468 2.209 . S
O493 Mn469 2.215 . S
O493 C470 1.283 . S
O494 Mn468 2.094 . S
O494 C472 1.240 . S
O495 Mn469 2.117 . S
O495 C472 1.264 . S
C496 C489 1.403 . S
C496 C497 1.399 . S
C496 H502 0.929 . S
C497 C477 1.449 . S
C497 C496 1.399 . S
C497 H503 0.930 . S
H498 C478 0.931 . S
H499 C479 0.930 . S
H500 C487 0.931 . S
H501 C488 0.929 . S
H502 C496 0.929 . S
H503 C497 0.930 . S
Mn504 O509 2.095 . S
Mn504 O519 2.162 . S
Mn504 O520 2.297 . S
Mn504 O528 2.385 . S
Mn504 O529 2.209 . S
Mn504 O530 2.094 . S
Mn505 O510 2.121 . S
Mn505 N512 2.257 . S
Mn505 N521 2.282 . S
Mn505 O529 2.215 . S
Mn505 O531 2.117 . S
C506 O528 1.234 . S
C506 O529 1.283 . S
C507 O519 1.281 . S
C507 O520 1.236 . S
C508 O530 1.240 . S
C508 O531 1.264 . S
O509 Mn504 2.095 . S
O509 C518 1.250 . S
O510 Mn505 2.121 . S
O510 C518 1.258 . S
C511 N512 1.326 . S
C511 C515 1.460 . S
C511 H517 0.929 . S
N512 Mn505 2.257 . S
N512 C511 1.326 . S
N512 C516 1.362 . S
C513 C514 1.258 . S
C513 C516 1.431 . S
C513 C533 1.449 . S
C514 C513 1.258 . S
C514 C515 1.477 . S
C514 H534 0.931 . S
C515 C511 1.460 . S
C515 C514 1.477 . S
C515 H535 0.930 . S
C516 N512 1.362 . S
C516 C513 1.431 . S
C516 C526 1.476 . S
H517 C511 0.929 . S
C518 O509 1.250 . S
C518 O510 1.258 . S
O519 Mn504 2.162 . S
O519 C507 1.281 . S
O520 Mn504 2.297 . S
O520 C507 1.236 . S
N521 Mn505 2.282 . S
N521 C522 1.328 . S
N521 C526 1.318 . S
C522 N521 1.328 . S
C522 C523 1.457 . S
C522 H527 0.929 . S
C523 C522 1.457 . S
C523 C524 1.291 . S
C523 H536 0.931 . S
C524 C523 1.291 . S
C524 C525 1.373 . S
C524 H537 0.929 . S
C525 C524 1.373 . S
C525 C526 1.396 . S
C525 C532 1.403 . S
C526 C516 1.476 . S
C526 N521 1.318 . S
C526 C525 1.396 . S
H527 C522 0.929 . S
O528 Mn504 2.385 . S
O528 C506 1.234 . S
O529 Mn504 2.209 . S
O529 Mn505 2.215 . S
O529 C506 1.283 . S
O530 Mn504 2.094 . S
O530 C508 1.240 . S
O531 Mn505 2.117 . S
O531 C508 1.264 . S
C532 C525 1.403 . S
C532 C533 1.399 . S
C532 H538 0.929 . S
C533 C513 1.449 . S
C533 C532 1.399 . S
C533 H539 0.930 . S
H534 C514 0.931 . S
H535 C515 0.930 . S
H536 C523 0.931 . S
H537 C524 0.929 . S
H538 C532 0.929 . S
H539 C533 0.930 . S
Mn540 O545 2.095 . S
Mn540 O555 2.162 . S
Mn540 O556 2.297 . S
Mn540 O564 2.385 . S
Mn540 O565 2.209 . S
Mn540 O566 2.094 . S
Mn541 O546 2.121 . S
Mn541 N548 2.257 . S
Mn541 N557 2.282 . S
Mn541 O565 2.215 . S
Mn541 O567 2.117 . S
C542 O564 1.234 . S
C542 O565 1.283 . S
C543 O555 1.281 . S
C543 O556 1.236 . S
C544 O566 1.240 . S
C544 O567 1.264 . S
O545 Mn540 2.095 . S
O545 C554 1.250 . S
O546 Mn541 2.121 . S
O546 C554 1.258 . S
C547 N548 1.326 . S
C547 C551 1.460 . S
C547 H553 0.929 . S
N548 Mn541 2.257 . S
N548 C547 1.326 . S
N548 C552 1.362 . S
C549 C550 1.258 . S
C549 C552 1.431 . S
C549 C569 1.449 . S
C550 C549 1.258 . S
C550 C551 1.477 . S
C550 H570 0.931 . S
C551 C547 1.460 . S
C551 C550 1.477 . S
C551 H571 0.930 . S
C552 N548 1.362 . S
C552 C549 1.431 . S
C552 C562 1.476 . S
H553 C547 0.929 . S
C554 O545 1.250 . S
C554 O546 1.258 . S
O555 Mn540 2.162 . S
O555 C543 1.281 . S
O556 Mn540 2.297 . S
O556 C543 1.236 . S
N557 Mn541 2.282 . S
N557 C558 1.328 . S
N557 C562 1.318 . S
C558 N557 1.328 . S
C558 C559 1.457 . S
C558 H563 0.929 . S
C559 C558 1.457 . S
C559 C560 1.291 . S
C559 H572 0.931 . S
C560 C559 1.291 . S
C560 C561 1.373 . S
C560 H573 0.929 . S
C561 C560 1.373 . S
C561 C562 1.396 . S
C561 C568 1.403 . S
C562 C552 1.476 . S
C562 N557 1.318 . S
C562 C561 1.396 . S
H563 C558 0.929 . S
O564 Mn540 2.385 . S
O564 C542 1.234 . S
O565 Mn540 2.209 . S
O565 Mn541 2.215 . S
O565 C542 1.283 . S
O566 Mn540 2.094 . S
O566 C544 1.240 . S
O567 Mn541 2.117 . S
O567 C544 1.264 . S
C568 C561 1.403 . S
C568 C569 1.399 . S
C568 H574 0.929 . S
C569 C549 1.449 . S
C569 C568 1.399 . S
C569 H575 0.930 . S
H570 C550 0.931 . S
H571 C551 0.930 . S
H572 C559 0.931 . S
H573 C560 0.929 . S
H574 C568 0.929 . S
H575 C569 0.930 . S
H576 C582 0.930 . S
H577 C585 0.930 . S
H578 C586 0.930 . S
H579 C587 0.930 . S
H580 C590 0.930 . S
H581 C591 0.930 . S
C582 H576 0.930 . S
C582 C583 1.355 . S
C582 C584 1.415 . S
C583 C582 1.355 . S
C583 C585 1.419 . S
C584 C582 1.415 . S
C584 C589 1.425 1_554 S
C584 C591 1.409 . S
C585 H577 0.930 . S
C585 C583 1.419 . S
C585 C586 1.362 1_554 S
C586 H578 0.930 . S
C586 C585 1.362 1_556 S
C586 C589 1.409 . S
C587 H579 0.930 . S
C587 C588 1.355 . S
C587 C589 1.415 . S
C588 C587 1.355 . S
C588 C590 1.419 . S
C589 C584 1.425 1_556 S
C589 C586 1.409 . S
C589 C587 1.415 . S
C590 H580 0.930 . S
C590 C588 1.419 . S
C590 C591 1.362 1_556 S
C591 H581 0.930 . S
C591 C584 1.409 . S
C591 C590 1.362 1_554 S
H592 C598 0.930 . S
H593 C601 0.930 . S
H594 C602 0.930 . S
H595 C603 0.930 . S
H596 C606 0.930 . S
H597 C607 0.930 . S
C598 H592 0.930 . S
C598 C599 1.355 . S
C598 C600 1.415 . S
C599 C598 1.355 . S
C599 C601 1.419 . S
C600 C598 1.415 . S
C600 C605 1.425 . S
C600 C607 1.409 . S
C601 H593 0.930 . S
C601 C599 1.419 . S
C601 C602 1.362 . S
C602 H594 0.930 . S
C602 C601 1.362 . S
C602 C605 1.409 . S
C603 H595 0.930 . S
C603 C604 1.355 . S
C603 C605 1.415 . S
C604 C603 1.355 . S
C604 C606 1.419 . S
C605 C600 1.425 . S
C605 C602 1.409 . S
C605 C603 1.415 . S
C606 H596 0.930 . S
C606 C604 1.419 . S
C606 C607 1.362 . S
C607 H597 0.930 . S
C607 C600 1.409 . S
C607 C606 1.362 . S
H608 C614 0.930 1_554 S
H609 C617 0.930 . S
H610 C618 0.930 . S
H611 C619 0.930 . S
H612 C622 0.930 . S
H613 C623 0.930 . S
C614 H608 0.930 1_556 S
C614 C615 1.355 . S
C614 C616 1.415 1_556 S
C615 C614 1.355 . S
C615 C617 1.419 . S
C616 C614 1.415 1_554 S
C616 C621 1.425 1_554 S
C616 C623 1.409 . S
C617 H609 0.930 . S
C617 C615 1.419 . S
C617 C618 1.362 . S
C618 H610 0.930 . S
C618 C617 1.362 . S
C618 C621 1.409 . S
C619 H611 0.930 . S
C619 C620 1.355 1_556 S
C619 C621 1.415 . S
C620 C619 1.355 1_554 S
C620 C622 1.419 . S
C621 C616 1.425 1_556 S
C621 C618 1.409 . S
C621 C619 1.415 . S
C622 H612 0.930 . S
C622 C620 1.419 . S
C622 C623 1.362 . S
C623 H613 0.930 . S
C623 C616 1.409 . S
C623 C622 1.362 . S
H624 C630 0.930 . S
H625 C633 0.930 . S
H626 C634 0.930 . S
H627 C635 0.930 . S
H628 C638 0.930 . S
H629 C639 0.930 . S
C630 H624 0.930 . S
C630 C631 1.355 . S
C630 C632 1.415 . S
C631 C630 1.355 . S
C631 C633 1.419 . S
C632 C630 1.415 . S
C632 C637 1.425 . S
C632 C639 1.409 . S
C633 H625 0.930 . S
C633 C631 1.419 . S
C633 C634 1.362 . S
C634 H626 0.930 . S
C634 C633 1.362 . S
C634 C637 1.409 . S
C635 H627 0.930 . S
C635 C636 1.355 . S
C635 C637 1.415 . S
C636 C635 1.355 . S
C636 C638 1.419 . S
C637 C632 1.425 . S
C637 C634 1.409 . S
C637 C635 1.415 . S
C638 H628 0.930 . S
C638 C636 1.419 . S
C638 C639 1.362 . S
C639 H629 0.930 . S
C639 C632 1.409 . S
C639 C638 1.362 . S
H640 C646 0.930 . S
H641 C649 0.930 . S
H642 C650 0.930 . S
H643 C651 0.930 . S
H644 C654 0.930 . S
H645 C655 0.930 . S
C646 H640 0.930 . S
C646 C647 1.355 . S
C646 C648 1.415 . S
C647 C646 1.355 . S
C647 C649 1.419 . S
C648 C646 1.415 . S
C648 C653 1.425 . S
C648 C655 1.409 1_554 S
C649 H641 0.930 . S
C649 C647 1.419 . S
C649 C650 1.362 . S
C650 H642 0.930 . S
C650 C649 1.362 . S
C650 C653 1.409 . S
C651 H643 0.930 . S
C651 C652 1.355 . S
C651 C653 1.415 1_556 S
C652 C651 1.355 . S
C652 C654 1.419 . S
C653 C648 1.425 . S
C653 C650 1.409 . S
C653 C651 1.415 1_554 S
C654 H644 0.930 . S
C654 C652 1.419 . S
C654 C655 1.362 . S
C655 H645 0.930 . S
C655 C648 1.409 1_556 S
C655 C654 1.362 . S
H656 C662 0.930 . S
H657 C665 0.930 . S
H658 C666 0.930 . S
H659 C667 0.930 . S
H660 C670 0.930 . S
H661 C671 0.930 . S
C662 H656 0.930 . S
C662 C663 1.355 . S
C662 C664 1.415 . S
C663 C662 1.355 . S
C663 C665 1.419 . S
C664 C662 1.415 . S
C664 C669 1.425 . S
C664 C671 1.409 . S
C665 H657 0.930 . S
C665 C663 1.419 . S
C665 C666 1.362 . S
C666 H658 0.930 . S
C666 C665 1.362 . S
C666 C669 1.409 . S
C667 H659 0.930 . S
C667 C668 1.355 . S
C667 C669 1.415 . S
C668 C667 1.355 . S
C668 C670 1.419 . S
C669 C664 1.425 . S
C669 C666 1.409 . S
C669 C667 1.415 . S
C670 H660 0.930 . S
C670 C668 1.419 . S
C670 C671 1.362 . S
C671 H661 0.930 . S
C671 C664 1.409 . S
C671 C670 1.362 . S
H672 C678 0.930 . S
H673 C681 0.930 . S
H674 C682 0.930 . S
H675 C683 0.930 . S
H676 C686 0.930 . S
H677 C687 0.931 1_556 S
C678 H672 0.930 . S
C678 C679 1.355 . S
C678 C680 1.415 . S
C679 C678 1.355 . S
C679 C681 1.419 . S
C680 C678 1.415 . S
C680 C685 1.425 . S
C680 C687 1.409 1_556 S
C681 H673 0.930 . S
C681 C679 1.419 . S
C681 C682 1.362 . S
C682 H674 0.930 . S
C682 C681 1.362 . S
C682 C685 1.409 . S
C683 H675 0.930 . S
C683 C684 1.355 . S
C683 C685 1.415 1_554 S
C684 C683 1.355 . S
C684 C686 1.419 . S
C685 C680 1.425 . S
C685 C682 1.409 . S
C685 C683 1.415 1_556 S
C686 H676 0.930 . S
C686 C684 1.419 . S
C686 C687 1.362 . S
C687 H677 0.931 1_554 S
C687 C680 1.409 1_554 S
C687 C686 1.362 . S
H688 C694 0.930 . S
H689 C697 0.930 . S
H690 C698 0.930 . S
H691 C699 0.930 . S
H692 C702 0.930 . S
H693 C703 0.930 . S
C694 H688 0.930 . S
C694 C695 1.355 . S
C694 C696 1.415 . S
C695 C694 1.355 . S
C695 C697 1.419 . S
C696 C694 1.415 . S
C696 C701 1.425 . S
C696 C703 1.409 . S
C697 H689 0.930 . S
C697 C695 1.419 . S
C697 C698 1.362 . S
C698 H690 0.930 . S
C698 C697 1.362 . S
C698 C701 1.409 . S
C699 H691 0.930 . S
C699 C700 1.355 . S
C699 C701 1.415 . S
C700 C699 1.355 . S
C700 C702 1.419 . S
C701 C696 1.425 . S
C701 C698 1.409 . S
C701 C699 1.415 . S
C702 H692 0.930 . S
C702 C700 1.419 . S
C702 C703 1.362 . S
C703 H693 0.930 . S
C703 C696 1.409 . S
C703 C702 1.362 . S
H704 C710 0.930 . S
H705 C713 0.930 1_556 S
H706 C714 0.930 . S
H707 C715 0.930 . S
H708 C718 0.930 1_554 S
H709 C719 0.930 . S
C710 H704 0.930 . S
C710 C711 1.355 . S
C710 C712 1.415 1_545 S
C711 C710 1.355 . S
C711 C713 1.419 . S
C712 C710 1.415 1_565 S
C712 C717 1.425 1_564 S
C712 C719 1.409 . S
C713 H705 0.930 1_554 S
C713 C711 1.419 . S
C713 C714 1.362 1_554 S
C714 H706 0.930 . S
C714 C713 1.362 1_556 S
C714 C717 1.409 . S
C715 H707 0.930 . S
C715 C716 1.355 . S
C715 C717 1.415 1_565 S
C716 C715 1.355 . S
C716 C718 1.419 . S
C717 C712 1.425 1_546 S
C717 C714 1.409 . S
C717 C715 1.415 1_545 S
C718 H708 0.930 1_556 S
C718 C716 1.419 . S
C718 C719 1.362 1_556 S
C719 H709 0.930 . S
C719 C712 1.409 . S
C719 C718 1.362 1_554 S
H720 C726 0.930 . S
H721 C729 0.930 . S
H722 C730 0.930 . S
H723 C731 0.930 . S
H724 C734 0.930 . S
H725 C735 0.930 . S
C726 H720 0.930 . S
C726 C727 1.355 . S
C726 C728 1.415 1_565 S
C727 C726 1.355 . S
C727 C729 1.419 . S
C728 C726 1.415 1_545 S
C728 C733 1.425 1_545 S
C728 C735 1.409 . S
C729 H721 0.930 . S
C729 C727 1.419 . S
C729 C730 1.362 . S
C730 H722 0.930 . S
C730 C729 1.362 . S
C730 C733 1.409 . S
C731 H723 0.930 . S
C731 C732 1.355 . S
C731 C733 1.415 1_545 S
C732 C731 1.355 . S
C732 C734 1.419 . S
C733 C728 1.425 1_565 S
C733 C730 1.409 . S
C733 C731 1.415 1_565 S
C734 H724 0.930 . S
C734 C732 1.419 . S
C734 C735 1.362 . S
C735 H725 0.930 . S
C735 C728 1.409 . S
C735 C734 1.362 . S
H736 C742 0.930 . S
H737 C745 0.930 . S
H738 C746 0.930 1_545 S
H739 C747 0.930 . S
H740 C750 0.930 . S
H741 C751 0.930 1_565 S
C742 H736 0.930 . S
C742 C743 1.355 1_554 S
C742 C744 1.415 . S
C743 C742 1.355 1_556 S
C743 C745 1.419 . S
C744 C742 1.415 . S
C744 C749 1.425 1_564 S
C744 C751 1.409 1_565 S
C745 H737 0.930 . S
C745 C743 1.419 . S
C745 C746 1.362 . S
C746 H738 0.930 1_565 S
C746 C745 1.362 . S
C746 C749 1.409 1_565 S
C747 H739 0.930 . S
C747 C748 1.355 1_556 S
C747 C749 1.415 . S
C748 C747 1.355 1_554 S
C748 C750 1.419 . S
C749 C744 1.425 1_546 S
C749 C746 1.409 1_545 S
C749 C747 1.415 . S
C750 H740 0.930 . S
C750 C748 1.419 . S
C750 C751 1.362 . S
C751 H741 0.930 1_545 S
C751 C744 1.409 1_545 S
C751 C750 1.362 . S
H752 C758 0.930 . S
H753 C761 0.930 . S
H754 C762 0.930 . S
H755 C763 0.930 . S
H756 C766 0.930 . S
H757 C767 0.930 . S
C758 H752 0.930 . S
C758 C759 1.355 . S
C758 C760 1.415 . S
C759 C758 1.355 . S
C759 C761 1.419 . S
C760 C758 1.415 . S
C760 C765 1.425 1_545 S
C760 C767 1.409 1_545 S
C761 H753 0.930 . S
C761 C759 1.419 . S
C761 C762 1.362 . S
C762 H754 0.930 . S
C762 C761 1.362 . S
C762 C765 1.409 1_545 S
C763 H755 0.930 . S
C763 C764 1.355 . S
C763 C765 1.415 . S
C764 C763 1.355 . S
C764 C766 1.419 . S
C765 C760 1.425 1_565 S
C765 C762 1.409 1_565 S
C765 C763 1.415 . S
C766 H756 0.930 . S
C766 C764 1.419 . S
C766 C767 1.362 . S
C767 H757 0.930 . S
C767 C760 1.409 1_565 S
C767 C766 1.362 . S
H768 C774 0.930 1_554 S
H769 C777 0.930 . S
H770 C778 0.930 . S
H771 C779 0.930 1_556 S
H772 C782 0.930 . S
H773 C783 0.930 . S
C774 H768 0.930 1_556 S
C774 C775 1.355 . S
C774 C776 1.415 1_556 S
C775 C774 1.355 . S
C775 C777 1.419 . S
C776 C774 1.415 1_554 S
C776 C781 1.425 1_554 S
C776 C783 1.409 . S
C777 H769 0.930 . S
C777 C775 1.419 . S
C777 C778 1.362 . S
C778 H770 0.930 . S
C778 C777 1.362 . S
C778 C781 1.409 . S
C779 H771 0.930 1_554 S
C779 C780 1.355 . S
C779 C781 1.415 1_554 S
C780 C779 1.355 . S
C780 C782 1.419 . S
C781 C776 1.425 1_556 S
C781 C778 1.409 . S
C781 C779 1.415 1_556 S
C782 H772 0.930 . S
C782 C780 1.419 . S
C782 C783 1.362 . S
C783 H773 0.930 . S
C783 C776 1.409 . S
C783 C782 1.362 . S
H784 C790 0.930 . S
H785 C793 0.930 . S
H786 C794 0.930 . S
H787 C795 0.930 . S
H788 C798 0.930 . S
H789 C799 0.930 . S
C790 H784 0.930 . S
C790 C791 1.355 . S
C790 C792 1.415 . S
C791 C790 1.355 . S
C791 C793 1.419 . S
C792 C790 1.415 . S
C792 C797 1.425 . S
C792 C799 1.409 . S
C793 H785 0.930 . S
C793 C791 1.419 . S
C793 C794 1.362 . S
C794 H786 0.930 . S
C794 C793 1.362 . S
C794 C797 1.409 . S
C795 H787 0.930 . S
C795 C796 1.355 . S
C795 C797 1.415 . S
C796 C795 1.355 . S
C796 C798 1.419 . S
C797 C792 1.425 . S
C797 C794 1.409 . S
C797 C795 1.415 . S
C798 H788 0.930 . S
C798 C796 1.419 . S
C798 C799 1.362 . S
C799 H789 0.930 . S
C799 C792 1.409 . S
C799 C798 1.362 . S
H800 C806 0.930 . S
H801 C809 0.930 . S
H802 C810 0.930 . S
H803 C811 0.930 . S
H804 C814 0.930 . S
H805 C815 0.930 . S
C806 H800 0.930 . S
C806 C807 1.355 . S
C806 C808 1.415 . S
C807 C806 1.355 . S
C807 C809 1.419 1_554 S
C808 C806 1.415 . S
C808 C813 1.425 1_554 S
C808 C815 1.409 . S
C809 H801 0.930 . S
C809 C807 1.419 1_556 S
C809 C810 1.362 . S
C810 H802 0.930 . S
C810 C809 1.362 . S
C810 C813 1.409 . S
C811 H803 0.930 . S
C811 C812 1.355 . S
C811 C813 1.415 . S
C812 C811 1.355 . S
C812 C814 1.419 1_556 S
C813 C808 1.425 1_556 S
C813 C810 1.409 . S
C813 C811 1.415 . S
C814 H804 0.930 . S
C814 C812 1.419 1_554 S
C814 C815 1.362 . S
C815 H805 0.930 . S
C815 C808 1.409 . S
C815 C814 1.362 . S
H816 C822 0.930 . S
H817 C825 0.930 . S
H818 C826 0.930 . S
H819 C827 0.930 . S
H820 C830 0.930 . S
H821 C831 0.930 . S
C822 H816 0.930 . S
C822 C823 1.355 . S
C822 C824 1.415 . S
C823 C822 1.355 . S
C823 C825 1.419 . S
C824 C822 1.415 . S
C824 C829 1.425 . S
C824 C831 1.409 . S
C825 H817 0.930 . S
C825 C823 1.419 . S
C825 C826 1.362 . S
C826 H818 0.930 . S
C826 C825 1.362 . S
C826 C829 1.409 . S
C827 H819 0.930 . S
C827 C828 1.355 . S
C827 C829 1.415 . S
C828 C827 1.355 . S
C828 C830 1.419 . S
C829 C824 1.425 . S
C829 C826 1.409 . S
C829 C827 1.415 . S
C830 H820 0.930 . S
C830 C828 1.419 . S
C830 C831 1.362 . S
C831 H821 0.930 . S
C831 C824 1.409 . S
C831 C830 1.362 . S
H832 C838 0.930 . S
H833 C841 0.930 . S
H834 C842 0.930 . S
H835 C843 0.930 . S
H836 C846 0.930 . S
H837 C847 0.930 . S
C838 H832 0.930 . S
C838 C839 1.355 . S
C838 C840 1.415 . S
C839 C838 1.355 . S
C839 C841 1.419 . S
C840 C838 1.415 . S
C840 C845 1.425 . S
C840 C847 1.409 . S
C841 H833 0.930 . S
C841 C839 1.419 . S
C841 C842 1.362 . S
C842 H834 0.930 . S
C842 C841 1.362 . S
C842 C845 1.409 . S
C843 H835 0.930 . S
C843 C844 1.355 . S
C843 C845 1.415 . S
C844 C843 1.355 . S
C844 C846 1.419 . S
C845 C840 1.425 . S
C845 C842 1.409 . S
C845 C843 1.415 . S
C846 H836 0.930 . S
C846 C844 1.419 . S
C846 C847 1.362 . S
C847 H837 0.930 . S
C847 C840 1.409 . S
C847 C846 1.362 . S
H848 C854 0.930 . S
H849 C857 0.930 . S
H850 C858 0.930 . S
H851 C859 0.930 . S
H852 C862 0.930 . S
H853 C863 0.938 . S
C854 H848 0.930 . S
C854 C855 1.355 . S
C854 C856 1.415 . S
C855 C854 1.355 . S
C855 C857 1.419 . S
C856 C854 1.415 . S
C856 C861 1.425 . S
C856 C863 1.409 1_655 S
C857 H849 0.930 . S
C857 C855 1.419 . S
C857 C858 1.362 . S
C858 H850 0.930 . S
C858 C857 1.362 . S
C858 C861 1.409 . S
C859 H851 0.930 . S
C859 C860 1.355 . S
C859 C861 1.415 1_455 S
C860 C859 1.355 . S
C860 C862 1.419 . S
C861 C856 1.425 . S
C861 C858 1.409 . S
C861 C859 1.415 1_655 S
C862 H852 0.930 . S
C862 C860 1.419 . S
C862 C863 1.362 . S
C863 H853 0.938 . S
C863 C856 1.409 1_455 S
C863 C862 1.362 . S
H864 C870 0.930 . S
H865 C873 0.930 . S
H866 C874 0.930 . S
H867 C875 0.930 . S
H868 C878 0.930 . S
H869 C879 0.930 . S
C870 H864 0.930 . S
C870 C871 1.355 . S
C870 C872 1.415 . S
C871 C870 1.355 . S
C871 C873 1.419 . S
C872 C870 1.415 . S
C872 C877 1.425 . S
C872 C879 1.409 . S
C873 H865 0.930 . S
C873 C871 1.419 . S
C873 C874 1.362 . S
C874 H866 0.930 . S
C874 C873 1.362 . S
C874 C877 1.409 . S
C875 H867 0.930 . S
C875 C876 1.355 . S
C875 C877 1.415 . S
C876 C875 1.355 . S
C876 C878 1.419 . S
C877 C872 1.425 . S
C877 C874 1.409 . S
C877 C875 1.415 . S
C878 H868 0.930 . S
C878 C876 1.419 . S
C878 C879 1.362 . S
C879 H869 0.930 . S
C879 C872 1.409 . S
C879 C878 1.362 . S
H880 C886 0.930 . S
H881 C889 0.930 . S
H882 C890 0.930 . S
H883 C891 0.930 . S
H884 C894 0.930 . S
H885 C895 0.930 . S
C886 H880 0.930 . S
C886 C887 1.355 . S
C886 C888 1.415 1_455 S
C887 C886 1.355 . S
C887 C889 1.419 . S
C888 C886 1.415 1_655 S
C888 C893 1.425 . S
C888 C895 1.409 . S
C889 H881 0.930 . S
C889 C887 1.419 . S
C889 C890 1.362 . S
C890 H882 0.930 . S
C890 C889 1.362 . S
C890 C893 1.409 1_455 S
C891 H883 0.930 . S
C891 C892 1.355 . S
C891 C893 1.415 . S
C892 C891 1.355 . S
C892 C894 1.419 . S
C893 C888 1.425 . S
C893 C890 1.409 1_655 S
C893 C891 1.415 . S
C894 H884 0.930 . S
C894 C892 1.419 . S
C894 C895 1.362 . S
C895 H885 0.930 . S
C895 C888 1.409 . S
C895 C894 1.362 . S
H896 C902 0.930 . S
H897 C905 0.930 . S
H898 C906 0.930 . S
H899 C907 0.930 . S
H900 C910 0.930 . S
H901 C911 0.930 . S
C902 H896 0.930 . S
C902 C903 1.355 . S
C902 C904 1.415 . S
C903 C902 1.355 . S
C903 C905 1.419 . S
C904 C902 1.415 . S
C904 C909 1.425 . S
C904 C911 1.409 1_455 S
C905 H897 0.930 . S
C905 C903 1.419 . S
C905 C906 1.362 . S
C906 H898 0.930 . S
C906 C905 1.362 . S
C906 C909 1.409 . S
C907 H899 0.930 . S
C907 C908 1.355 . S
C907 C909 1.415 1_655 S
C908 C907 1.355 . S
C908 C910 1.419 . S
C909 C904 1.425 . S
C909 C906 1.409 . S
C909 C907 1.415 1_455 S
C910 H900 0.930 . S
C910 C908 1.419 . S
C910 C911 1.362 . S
C911 H901 0.930 . S
C911 C904 1.409 1_655 S
C911 C910 1.362 . S
H912 C918 0.930 . S
H913 C921 0.930 . S
H914 C922 0.930 . S
H915 C923 0.930 . S
H916 C926 0.930 . S
H917 C927 0.930 . S
C918 H912 0.930 . S
C918 C919 1.355 . S
C918 C920 1.415 . S
C919 C918 1.355 . S
C919 C921 1.419 . S
C920 C918 1.415 . S
C920 C925 1.425 . S
C920 C927 1.409 . S
C921 H913 0.930 . S
C921 C919 1.419 . S
C921 C922 1.362 . S
C922 H914 0.930 . S
C922 C921 1.362 . S
C922 C925 1.409 . S
C923 H915 0.930 . S
C923 C924 1.355 . S
C923 C925 1.415 . S
C924 C923 1.355 . S
C924 C926 1.419 . S
C925 C920 1.425 . S
C925 C922 1.409 . S
C925 C923 1.415 . S
C926 H916 0.930 . S
C926 C924 1.419 . S
C926 C927 1.362 . S
C927 H917 0.930 . S
C927 C920 1.409 . S
C927 C926 1.362 . S
H928 C934 0.930 . S
H929 C937 0.930 . S
H930 C938 0.930 . S
H931 C939 0.930 . S
H932 C942 0.930 . S
H933 C943 0.930 1_455 S
C934 H928 0.930 . S
C934 C935 1.355 . S
C934 C936 1.415 . S
C935 C934 1.355 . S
C935 C937 1.419 . S
C936 C934 1.415 . S
C936 C941 1.425 . S
C936 C943 1.409 1_455 S
C937 H929 0.930 . S
C937 C935 1.419 . S
C937 C938 1.362 . S
C938 H930 0.930 . S
C938 C937 1.362 . S
C938 C941 1.409 . S
C939 H931 0.930 . S
C939 C940 1.355 . S
C939 C941 1.415 1_655 S
C940 C939 1.355 . S
C940 C942 1.419 . S
C941 C936 1.425 . S
C941 C938 1.409 . S
C941 C939 1.415 1_455 S
C942 H932 0.930 . S
C942 C940 1.419 . S
C942 C943 1.362 . S
C943 H933 0.930 1_655 S
C943 C936 1.409 1_655 S
C943 C942 1.362 . S
H944 C950 0.930 . S
H945 C953 0.930 . S
H946 C954 0.930 . S
H947 C955 0.930 . S
H948 C958 0.930 . S
H949 C959 0.930 . S
C950 H944 0.930 . S
C950 C951 1.355 . S
C950 C952 1.415 . S
C951 C950 1.355 . S
C951 C953 1.419 . S
C952 C950 1.415 . S
C952 C957 1.425 . S
C952 C959 1.409 . S
C953 H945 0.930 . S
C953 C951 1.419 . S
C953 C954 1.362 . S
C954 H946 0.930 . S
C954 C953 1.362 . S
C954 C957 1.409 . S
C955 H947 0.930 . S
C955 C956 1.355 . S
C955 C957 1.415 . S
C956 C955 1.355 . S
C956 C958 1.419 . S
C957 C952 1.425 . S
C957 C954 1.409 . S
C957 C955 1.415 . S
C958 H948 0.930 . S
C958 C956 1.419 . S
C958 C959 1.362 . S
C959 H949 0.930 . S
C959 C952 1.409 . S
C959 C958 1.362 . S
H960 C966 0.930 . S
H961 C969 0.930 . S
H962 C970 0.930 . S
H963 C971 0.930 . S
H964 C974 0.930 . S
H965 C975 0.930 . S
C966 H960 0.930 . S
C966 C967 1.355 . S
C966 C968 1.415 . S
C967 C966 1.355 . S
C967 C969 1.419 . S
C968 C966 1.415 . S
C968 C973 1.425 . S
C968 C975 1.409 . S
C969 H961 0.930 . S
C969 C967 1.419 . S
C969 C970 1.362 . S
C970 H962 0.930 . S
C970 C969 1.362 . S
C970 C973 1.409 . S
C971 H963 0.930 . S
C971 C972 1.355 . S
C971 C973 1.415 . S
C972 C971 1.355 . S
C972 C974 1.419 . S
C973 C968 1.425 . S
C973 C970 1.409 . S
C973 C971 1.415 . S
C974 H964 0.930 . S
C974 C972 1.419 . S
C974 C975 1.362 . S
C975 H965 0.930 . S
C975 C968 1.409 . S
C975 C974 1.362 . S
H976 C982 0.930 . S
H977 C985 0.930 . S
H978 C986 0.930 . S
H979 C987 0.930 . S
H980 C990 0.930 . S
H981 C991 0.930 . S
C982 H976 0.930 . S
C982 C983 1.355 . S
C982 C984 1.415 . S
C983 C982 1.355 . S
C983 C985 1.419 . S
C984 C982 1.415 . S
C984 C989 1.425 . S
C984 C991 1.409 . S
C985 H977 0.930 . S
C985 C983 1.419 . S
C985 C986 1.362 . S
C986 H978 0.930 . S
C986 C985 1.362 . S
C986 C989 1.409 . S
C987 H979 0.930 . S
C987 C988 1.355 . S
C987 C989 1.415 . S
C988 C987 1.355 . S
C988 C990 1.419 . S
C989 C984 1.425 . S
C989 C986 1.409 . S
C989 C987 1.415 . S
C990 H980 0.930 . S
C990 C988 1.419 . S
C990 C991 1.362 . S
C991 H981 0.930 . S
C991 C984 1.409 . S
C991 C990 1.362 . S
H992 C998 0.930 . S
H993 C1001 0.930 . S
H994 C1002 0.930 . S
H995 C1003 0.930 . S
H996 C1006 0.930 . S
H997 C1007 0.930 . S
C998 H992 0.930 . S
C998 C999 1.355 . S
C998 C1000 1.415 . S
C999 C998 1.355 . S
C999 C1001 1.419 . S
C1000 C998 1.415 . S
C1000 C1005 1.425 . S
C1000 C1007 1.409 . S
C1001 H993 0.930 . S
C1001 C999 1.419 . S
C1001 C1002 1.362 . S
C1002 H994 0.930 . S
C1002 C1001 1.362 . S
C1002 C1005 1.409 . S
C1003 H995 0.930 . S
C1003 C1004 1.355 . S
C1003 C1005 1.415 . S
C1004 C1003 1.355 . S
C1004 C1006 1.419 . S
C1005 C1000 1.425 . S
C1005 C1002 1.409 . S
C1005 C1003 1.415 . S
C1006 H996 0.930 . S
C1006 C1004 1.419 . S
C1006 C1007 1.362 . S
C1007 H997 0.930 . S
C1007 C1000 1.409 . S
C1007 C1006 1.362 . S
H1008 C1014 0.930 . S
H1009 C1017 0.930 . S
H1010 C1018 0.930 . S
H1011 C1019 0.930 . S
H1012 C1022 0.930 . S
H1013 C1023 0.930 . S
C1014 H1008 0.930 . S
C1014 C1015 1.355 . S
C1014 C1016 1.415 . S
C1015 C1014 1.355 . S
C1015 C1017 1.419 . S
C1016 C1014 1.415 . S
C1016 C1021 1.425 . S
C1016 C1023 1.409 . S
C1017 H1009 0.930 . S
C1017 C1015 1.419 . S
C1017 C1018 1.362 . S
C1018 H1010 0.930 . S
C1018 C1017 1.362 . S
C1018 C1021 1.409 . S
C1019 H1011 0.930 . S
C1019 C1020 1.355 . S
C1019 C1021 1.415 . S
C1020 C1019 1.355 . S
C1020 C1022 1.419 . S
C1021 C1016 1.425 . S
C1021 C1018 1.409 . S
C1021 C1019 1.415 . S
C1022 H1012 0.930 . S
C1022 C1020 1.419 . S
C1022 C1023 1.362 . S
C1023 H1013 0.930 . S
C1023 C1016 1.409 . S
C1023 C1022 1.362 . S
H1024 C1030 0.930 . S
H1025 C1033 0.930 . S
H1026 C1034 0.930 . S
H1027 C1035 0.930 . S
H1028 C1038 0.930 . S
H1029 C1039 0.930 . S
C1030 H1024 0.930 . S
C1030 C1031 1.355 . S
C1030 C1032 1.415 . S
C1031 C1030 1.355 . S
C1031 C1033 1.419 . S
C1032 C1030 1.415 . S
C1032 C1037 1.425 . S
C1032 C1039 1.409 . S
C1033 H1025 0.930 . S
C1033 C1031 1.419 . S
C1033 C1034 1.362 . S
C1034 H1026 0.930 . S
C1034 C1033 1.362 . S
C1034 C1037 1.409 . S
C1035 H1027 0.930 . S
C1035 C1036 1.355 . S
C1035 C1037 1.415 . S
C1036 C1035 1.355 . S
C1036 C1038 1.419 . S
C1037 C1032 1.425 . S
C1037 C1034 1.409 . S
C1037 C1035 1.415 . S
C1038 H1028 0.930 . S
C1038 C1036 1.419 . S
C1038 C1039 1.362 . S
C1039 H1029 0.930 . S
C1039 C1032 1.409 . S
C1039 C1038 1.362 . S
H1040 C1046 0.930 . S
H1041 C1049 0.930 . S
H1042 C1050 0.930 . S
H1043 C1051 0.930 . S
H1044 C1054 0.930 . S
H1045 C1055 0.930 . S
C1046 H1040 0.930 . S
C1046 C1047 1.355 . S
C1046 C1048 1.415 . S
C1047 C1046 1.355 . S
C1047 C1049 1.419 . S
C1048 C1046 1.415 . S
C1048 C1053 1.425 . S
C1048 C1055 1.409 . S
C1049 H1041 0.930 . S
C1049 C1047 1.419 . S
C1049 C1050 1.362 . S
C1050 H1042 0.930 . S
C1050 C1049 1.362 . S
C1050 C1053 1.409 . S
C1051 H1043 0.930 . S
C1051 C1052 1.355 . S
C1051 C1053 1.415 . S
C1052 C1051 1.355 . S
C1052 C1054 1.419 . S
C1053 C1048 1.425 . S
C1053 C1050 1.409 . S
C1053 C1051 1.415 . S
C1054 H1044 0.930 . S
C1054 C1052 1.419 . S
C1054 C1055 1.362 . S
C1055 H1045 0.930 . S
C1055 C1048 1.409 . S
C1055 C1054 1.362 . S
H1056 C1062 0.930 . S
H1057 C1065 0.930 . S
H1058 C1066 0.930 . S
H1059 C1067 0.930 . S
H1060 C1070 0.930 . S
H1061 C1071 0.930 . S
C1062 H1056 0.930 . S
C1062 C1063 1.355 . S
C1062 C1064 1.415 . S
C1063 C1062 1.355 . S
C1063 C1065 1.419 . S
C1064 C1062 1.415 . S
C1064 C1069 1.425 . S
C1064 C1071 1.409 . S
C1065 H1057 0.930 . S
C1065 C1063 1.419 . S
C1065 C1066 1.362 . S
C1066 H1058 0.930 . S
C1066 C1065 1.362 . S
C1066 C1069 1.409 . S
C1067 H1059 0.930 . S
C1067 C1068 1.355 . S
C1067 C1069 1.415 . S
C1068 C1067 1.355 . S
C1068 C1070 1.419 . S
C1069 C1064 1.425 . S
C1069 C1066 1.409 . S
C1069 C1067 1.415 . S
C1070 H1060 0.930 . S
C1070 C1068 1.419 . S
C1070 C1071 1.362 . S
C1071 H1061 0.930 . S
C1071 C1064 1.409 . S
C1071 C1070 1.362 . S
H1072 C1078 0.930 . S
H1073 C1081 0.930 . S
H1074 C1082 0.930 . S
H1075 C1083 0.930 . S
H1076 C1086 0.930 . S
H1077 C1087 0.930 . S
C1078 H1072 0.930 . S
C1078 C1079 1.355 . S
C1078 C1080 1.415 . S
C1079 C1078 1.355 . S
C1079 C1081 1.419 . S
C1080 C1078 1.415 . S
C1080 C1085 1.425 . S
C1080 C1087 1.409 . S
C1081 H1073 0.930 . S
C1081 C1079 1.419 . S
C1081 C1082 1.362 . S
C1082 H1074 0.930 . S
C1082 C1081 1.362 . S
C1082 C1085 1.409 . S
C1083 H1075 0.930 . S
C1083 C1084 1.355 . S
C1083 C1085 1.415 . S
C1084 C1083 1.355 . S
C1084 C1086 1.419 . S
C1085 C1080 1.425 . S
C1085 C1082 1.409 . S
C1085 C1083 1.415 . S
C1086 H1076 0.930 . S
C1086 C1084 1.419 . S
C1086 C1087 1.362 . S
C1087 H1077 0.930 . S
C1087 C1080 1.409 . S
C1087 C1086 1.362 . S
C583 C4 1.496 . S
C588 C446 1.466 . S
C599 C482 1.416 . S
C604 C40 1.495 . S
C615 C76 1.492 . S
C620 C518 1.397 . S
C631 C554 1.396 . S
C636 C112 1.492 . S
C647 C292 1.496 . S
C652 C158 1.448 . S
C663 C194 1.448 . S
C668 C328 1.496 . S
C679 C364 1.489 . S
C684 C230 1.420 . S
C695 C266 1.454 . S
C700 C400 1.496 . S
C711 C3 1.583 . S
C716 C75 1.583 . S
C727 C39 1.593 . S
C732 C111 1.592 . S
C743 C147 1.474 . S
C748 C219 1.475 . S
C759 C183 1.482 . S
C764 C255 1.481 . S
C775 C363 1.619 . S
C780 C291 1.620 . S
C791 C327 1.597 . S
C796 C399 1.598 . S
C807 C507 1.504 . S
C812 C435 1.504 . S
C823 C471 1.465 . S
C828 C543 1.466 . S
C839 C218 1.488 . S
C844 C2 1.456 . S
C855 C254 1.489 . S
C860 C38 1.458 . S
C871 C74 1.487 . S
C876 C146 1.467 . S
C887 C110 1.466 . S
C892 C182 1.488 . S
C903 C506 1.477 . S
C908 C290 1.484 . S
C919 C326 1.481 . S
C924 C542 1.468 . S
C935 C434 1.469 . S
C940 C362 1.489 . S
C951 C398 1.456 . S
C956 C470 1.487 . S
C967 C14 1.638 . S
C972 C122 1.610 . S
C983 C86 1.629 . S
C988 C50 1.622 . S
C999 C148 1.279 . S
C1004 C256 1.279 . S
C1015 C184 1.286 . S
C1020 C220 1.288 . S
C1031 C410 1.582 . S
C1036 C302 1.617 . S
C1047 C338 1.592 . S
C1052 C374 1.645 . S
C1063 C544 1.284 . S
C1068 C436 1.283 . S
C1079 C472 1.291 . S
C1084 C508 1.291 . S
