# Generated by pormake.
# Topology fnr, (5)-cn, num edge types: 1
# Building blocks:
#     Node 0, Type 0, BuildingBlock: BEQFEK_clean_sbu_0, # of connection points: 5
#     Node 1, Type 0, BuildingBlock: BEQFEK_clean_sbu_0, # of connection points: 5
#     Node 2, Type 0, BuildingBlock: BEQFEK_clean_sbu_0, # of connection points: 5
#     Node 3, Type 0, BuildingBlock: BEQFEK_clean_sbu_0, # of connection points: 5
#     Node 4, Type 0, BuildingBlock: BEQFEK_clean_sbu_0, # of connection points: 5
#     Node 5, Type 0, BuildingBlock: BEQFEK_clean_sbu_0, # of connection points: 5
#     Node 6, Type 0, BuildingBlock: BEQFEK_clean_sbu_0, # of connection points: 5
#     Node 7, Type 0, BuildingBlock: BEQFEK_clean_sbu_0, # of connection points: 5
#     Node 8, Type 0, BuildingBlock: BEQFEK_clean_sbu_0, # of connection points: 5
#     Node 9, Type 0, BuildingBlock: BEQFEK_clean_sbu_0, # of connection points: 5
#     Node 10, Type 0, BuildingBlock: BEQFEK_clean_sbu_0, # of connection points: 5
#     Node 11, Type 0, BuildingBlock: BEQFEK_clean_sbu_0, # of connection points: 5
#     Edge 12, Type (0, 0), BuildingBlock: AJUNOK_clean_linker_0, # of connection points: 2
#     Edge 13, Type (0, 0), BuildingBlock: AJUNOK_clean_linker_0, # of connection points: 2
#     Edge 14, Type (0, 0), BuildingBlock: AJUNOK_clean_linker_0, # of connection points: 2
#     Edge 15, Type (0, 0), BuildingBlock: AJUNOK_clean_linker_0, # of connection points: 2
#     Edge 16, Type (0, 0), BuildingBlock: AJUNOK_clean_linker_0, # of connection points: 2
#     Edge 17, Type (0, 0), BuildingBlock: AJUNOK_clean_linker_0, # of connection points: 2
#     Edge 18, Type (0, 0), BuildingBlock: AJUNOK_clean_linker_0, # of connection points: 2
#     Edge 19, Type (0, 0), BuildingBlock: AJUNOK_clean_linker_0, # of connection points: 2
#     Edge 20, Type (0, 0), BuildingBlock: AJUNOK_clean_linker_0, # of connection points: 2
#     Edge 21, Type (0, 0), BuildingBlock: AJUNOK_clean_linker_0, # of connection points: 2
#     Edge 22, Type (0, 0), BuildingBlock: AJUNOK_clean_linker_0, # of connection points: 2
#     Edge 23, Type (0, 0), BuildingBlock: AJUNOK_clean_linker_0, # of connection points: 2
#     Edge 24, Type (0, 0), BuildingBlock: AJUNOK_clean_linker_0, # of connection points: 2
#     Edge 25, Type (0, 0), BuildingBlock: AJUNOK_clean_linker_0, # of connection points: 2
#     Edge 26, Type (0, 0), BuildingBlock: AJUNOK_clean_linker_0, # of connection points: 2
#     Edge 27, Type (0, 0), BuildingBlock: AJUNOK_clean_linker_0, # of connection points: 2
#     Edge 28, Type (0, 0), BuildingBlock: AJUNOK_clean_linker_0, # of connection points: 2
#     Edge 29, Type (0, 0), BuildingBlock: AJUNOK_clean_linker_0, # of connection points: 2
#     Edge 30, Type (0, 0), BuildingBlock: AJUNOK_clean_linker_0, # of connection points: 2
#     Edge 31, Type (0, 0), BuildingBlock: AJUNOK_clean_linker_0, # of connection points: 2
#     Edge 32, Type (0, 0), BuildingBlock: AJUNOK_clean_linker_0, # of connection points: 2
#     Edge 33, Type (0, 0), BuildingBlock: AJUNOK_clean_linker_0, # of connection points: 2
#     Edge 34, Type (0, 0), BuildingBlock: AJUNOK_clean_linker_0, # of connection points: 2
#     Edge 35, Type (0, 0), BuildingBlock: AJUNOK_clean_linker_0, # of connection points: 2
#     Edge 36, Type (0, 0), BuildingBlock: AJUNOK_clean_linker_0, # of connection points: 2
#     Edge 37, Type (0, 0), BuildingBlock: AJUNOK_clean_linker_0, # of connection points: 2
#     Edge 38, Type (0, 0), BuildingBlock: AJUNOK_clean_linker_0, # of connection points: 2
#     Edge 39, Type (0, 0), BuildingBlock: AJUNOK_clean_linker_0, # of connection points: 2
#     Edge 40, Type (0, 0), BuildingBlock: AJUNOK_clean_linker_0, # of connection points: 2
#     Edge 41, Type (0, 0), BuildingBlock: AJUNOK_clean_linker_0, # of connection points: 2
# Relax obj value: 0.159
# Max RMSD: 0.109
# Mean RMSD: 0.109
data_MOF--net-fnr--node1-BEQFEK_clean_sbu_0--edge1-AJUNOK_clean_linker_0
_symmetry_space_group_name_H-M    P1
_symmetry_Int_Tables_number       1
_symmetry_cell_setting            triclinic
loop_
_symmetry_equiv_pos_as_xyz
'x, y, z'
_cell_length_a     34.36312
_cell_length_b     34.45534
_cell_length_c     35.849629
_cell_angle_alpha  89.947536
_cell_angle_beta   89.948931
_cell_angle_gamma 120.09526
loop_
_atom_site_label
_atom_site_type_symbol
_atom_site_fract_x
_atom_site_fract_y
_atom_site_fract_z
_atom_type_partial_charge
Co0 Co 0.48779 0.30588 0.1332 0.0
Co1 Co 0.41726 0.20994 0.10486 0.0
C2 C 0.51043 0.23546 0.10311 0.0
O3 O 0.5182 0.27188 0.11856 0.0
O4 O 0.47127 0.20722 0.09181 0.0
C5 C 0.55762 0.38844 0.10477 0.0
O6 O 0.53863 0.36935 0.07304 0.0
C7 C 0.36133 0.12702 0.06263 0.0
C8 C 0.29344 0.10545 0.0849 0.0
C9 C 0.31639 0.09433 0.05927 0.0
N10 N 0.36472 0.15661 0.08868 0.0
N11 N 0.32405 0.14344 0.10196 0.0
C12 C 0.40088 0.12871 0.04345 0.0
H13 H 0.42 0.16098 0.02821 0.0
H14 H 0.39073 0.1003 0.02394 0.0
H15 H 0.42357 0.12733 0.06471 0.0
C16 C 0.4314 0.32951 0.08631 0.0
N17 N 0.4431 0.30009 0.09924 0.0
N18 N 0.41746 0.26089 0.08378 0.0
C19 C 0.391 0.26477 0.05807 0.0
C20 C 0.39777 0.30844 0.05933 0.0
C21 C 0.44937 0.37542 0.1025 0.0
H22 H 0.46221 0.37666 0.13114 0.0
H23 H 0.47772 0.40021 0.08512 0.0
H24 H 0.42288 0.38485 0.10329 0.0
O25 O 0.46046 0.28039 0.18185 0.0
O26 O 0.41611 0.21059 0.16126 0.0
H27 H 0.33174 0.20389 0.04224 0.0
H28 H 0.35926 0.24298 1.00409 0.0
C29 C 0.36464 0.22878 0.03007 0.0
H30 H 0.38293 0.21083 0.02307 0.0
H31 H 0.31717 0.16056 0.12255 0.0
O32 O 0.53932 0.36861 0.13529 0.0
C33 C 0.43316 0.23885 0.18794 0.0
Co34 Co 0.19947 0.48029 0.62866 0.0
Co35 Co 0.22037 0.40408 0.60765 0.0
C36 C 0.2921 0.49871 0.60416 0.0
O37 O 0.26437 0.5098 0.6165 0.0
O38 O 0.27971 0.45808 0.59672 0.0
C39 C 0.19647 0.55507 0.60106 0.0
O40 O 0.20709 0.54175 0.57031 0.0
C41 C 0.24175 0.34475 0.5634 0.0
C42 C 0.21509 0.28505 0.59981 0.0
C43 C 0.23755 0.30257 0.56645 0.0
N44 N 0.2227 0.3517 0.59359 0.0
N45 N 0.20661 0.31573 0.61509 0.0
C46 C 0.26536 0.37875 0.53323 0.0
H47 H 0.27151 0.4122 0.54164 0.0
H48 H 0.24401 0.36867 0.50791 0.0
H49 H 0.29763 0.38054 0.52596 0.0
C50 C 0.1229 0.42789 0.57737 0.0
N51 N 0.16195 0.43645 0.59331 0.0
N52 N 0.1709 0.40484 0.58378 0.0
C53 C 0.13795 0.37552 0.56096 0.0
C54 C 0.10668 0.38935 0.55604 0.0
C55 C 0.09981 0.45419 0.58461 0.0
H56 H 0.11353 0.4833 0.56534 0.0
H57 H 0.06305 0.43353 0.57971 0.0
H58 H 0.10606 0.46686 0.61368 0.0
O59 O 0.1929 0.45238 0.67824 0.0
O60 O 0.21366 0.40261 0.66327 0.0
H61 H 0.10338 0.31337 0.52993 0.0
H62 H 0.16408 0.34144 0.52901 0.0
C63 C 0.13439 0.33312 0.54664 0.0
H64 H 0.13428 0.3125 0.57045 0.0
H65 H 0.19046 0.31241 0.64055 0.0
O66 O 0.18817 0.53141 0.63046 0.0
C67 C 0.20231 0.42225 0.68752 0.0
Co68 Co 0.72495 0.18882 0.13383 0.0
Co69 Co 0.82011 0.21025 0.1071 0.0
C70 C 0.79538 0.27907 0.10064 0.0
O71 O 0.75821 0.25123 0.11567 0.0
O72 O 0.82424 0.26774 0.09225 0.0
C73 C 0.64606 0.18206 0.10639 0.0
O74 O 0.66614 0.18391 0.07471 0.0
C75 C 0.90178 0.23483 0.0639 0.0
C76 C 0.92846 0.19603 0.09224 0.0
C77 C 0.93698 0.22611 0.0635 0.0
N78 N 0.87336 0.21062 0.09147 0.0
N79 N 0.88939 0.18737 0.10821 0.0
C80 C 0.89682 0.26817 0.04059 0.0
H81 H 0.86178 0.25287 0.03018 0.0
H82 H 0.92069 0.28055 0.01682 0.0
H83 H 0.90347 0.29728 0.05826 0.0
C84 C 0.6977 0.10694 0.08997 0.0
N85 N 0.72917 0.14766 0.10204 0.0
N86 N 0.76801 0.15883 0.08667 0.0
C87 C 0.76177 0.12693 0.06161 0.0
C88 C 0.71661 0.09232 0.06264 0.0
C89 C 0.65321 0.08064 0.10929 0.0
H90 H 0.65683 0.09007 0.13923 0.0
H91 H 0.62877 0.08915 0.09712 0.0
H92 H 0.64002 0.044 0.10699 0.0
O93 O 0.75092 0.19143 0.18256 0.0
O94 O 0.82025 0.21069 0.16393 0.0
H95 H 0.81718 0.11706 0.04984 0.0
H96 H 0.7839 0.11311 1.0094 0.0
C97 C 0.79811 0.13115 0.03598 0.0
H98 H 0.82176 0.16695 0.02969 0.0
H99 H 0.87398 0.16609 0.13092 0.0
O100 O 0.66318 0.17856 0.13678 0.0
C101 C 0.79163 0.20321 0.18979 0.0
Co102 Co 0.55148 0.72296 0.62768 0.0
Co103 Co 0.62883 0.82033 0.60685 0.0
C104 C 0.53365 0.79506 0.59787 0.0
O105 O 0.52173 0.75575 0.60932 0.0
O106 O 0.57491 0.82467 0.5945 0.0
C107 C 0.47837 0.64214 0.60069 0.0
O108 O 0.49371 0.66313 0.56877 0.0
C109 C 0.68496 0.90162 0.56281 0.0
C110 C 0.75073 0.93029 0.59117 0.0
C111 C 0.72898 0.93703 0.56152 0.0
N112 N 0.68115 0.87471 0.59146 0.0
N113 N 0.72054 0.89211 0.60838 0.0
C114 C 0.64602 0.89509 0.53946 0.0
H115 H 0.6214 0.89802 0.55753 0.0
H116 H 0.62896 0.86081 0.52742 0.0
H117 H 0.65625 0.92045 0.51698 0.0
C118 C 0.60681 0.69863 0.57942 0.0
N119 N 0.5977 0.72888 0.59494 0.0
N120 N 0.62862 0.7695 0.58447 0.0
C121 C 0.6575 0.76607 0.5609 0.0
C122 C 0.64469 0.72109 0.55701 0.0
C123 C 0.58014 0.64914 0.58626 0.0
H124 H 0.56359 0.64209 0.61396 0.0
H125 H 0.55398 0.63334 0.56439 0.0
H126 H 0.60186 0.63388 0.58473 0.0
O127 O 0.57634 0.74787 0.67797 0.0
O128 O 0.62915 0.81734 0.66243 0.0
H129 H 0.72171 0.8253 0.5664 0.0
H130 H 0.71544 0.79435 0.52414 0.0
C131 C 0.69795 0.80521 0.54395 0.0
H132 H 0.6876 0.82686 0.52916 0.0
H133 H 0.72679 0.87792 0.6317 0.0
O134 O 0.4999 0.66035 0.63055 0.0
C135 C 0.60689 0.78745 0.687 0.0
Co136 Co 0.83721 0.54057 0.12137 0.0
Co137 Co 0.81959 0.6206 0.10839 0.0
C138 C 0.7462 0.52614 0.09932 0.0
O139 O 0.77342 0.51278 0.10772 0.0
O140 O 0.75935 0.56773 0.09653 0.0
C141 C 0.84105 0.46566 0.09216 0.0
O142 O 0.83419 0.48 0.06026 0.0
C143 C 0.798 0.67982 0.06578 0.0
C144 C 0.81827 0.73676 0.10431 0.0
C145 C 0.79848 0.72009 0.06994 0.0
N146 N 0.81657 0.67301 0.09627 0.0
N147 N 0.82899 0.70737 0.11905 0.0
C148 C 0.77666 0.64634 0.03501 0.0
H149 H 0.78365 0.61841 0.03828 0.0
H150 H 0.78976 0.66253 1.00759 0.0
H151 H 0.73978 0.63294 0.03525 0.0
C152 C 0.91538 0.59675 0.07192 0.0
N153 N 0.8767 0.58772 0.089 0.0
N154 N 0.869 0.62098 0.08282 0.0
C155 C 0.90245 0.65192 0.06113 0.0
C156 C 0.93271 0.63741 0.05334 0.0
C157 C 0.93711 0.56863 0.07541 0.0
H158 H 0.92945 0.55188 0.10304 0.0
H159 H 0.92372 0.54255 0.05339 0.0
H160 H 0.9741 0.58925 0.07168 0.0
O161 O 0.8392 0.56235 0.17269 0.0
O162 O 0.82561 0.61852 0.16399 0.0
H163 H 0.9053 0.71362 0.07518 0.0
H164 H 0.93911 0.71735 0.03508 0.0
C165 C 0.90698 0.69583 0.05 0.0
H166 H 0.87858 0.6896 0.0315 0.0
H167 H 0.84361 0.71012 0.14515 0.0
O168 O 0.84734 0.48879 0.12155 0.0
C169 C 0.83214 0.5928 0.18555 0.0
Co170 Co 0.31114 0.83078 0.62673 0.0
Co171 Co 0.21425 0.81061 0.60447 0.0
C172 C 0.23538 0.7391 0.60093 0.0
O173 O 0.27338 0.76603 0.61515 0.0
O174 O 0.20827 0.7521 0.59107 0.0
C175 C 0.38208 0.82461 0.59698 0.0
O176 O 0.35107 0.80591 0.5711 0.0
C177 C 0.13311 0.78834 0.56167 0.0
C178 C 0.10557 0.82515 0.59195 0.0
C179 C 0.09823 0.79765 0.56147 0.0
N180 N 0.16032 0.81008 0.59053 0.0
N181 N 0.14364 0.83193 0.60858 0.0
C182 C 0.13897 0.75662 0.53695 0.0
H183 H 0.17346 0.77389 0.52505 0.0
H184 H 0.11373 0.74296 0.51428 0.0
H185 H 0.1352 0.72804 0.55395 0.0
C186 C 0.3365 0.90793 0.57636 0.0
N187 N 0.30535 0.86897 0.59195 0.0
N188 N 0.26504 0.86032 0.58167 0.0
C189 C 0.26944 0.89325 0.55849 0.0
C190 C 0.31485 0.92458 0.55451 0.0
C191 C 0.38598 0.92923 0.5832 0.0
H192 H 0.39223 0.92677 0.61324 0.0
H193 H 0.3992 0.91077 0.5672 0.0
H194 H 0.40433 0.96485 0.57424 0.0
O195 O 0.28997 0.8366 0.67669 0.0
O196 O 0.21899 0.81373 0.66028 0.0
H197 H 0.21167 0.90044 0.56567 0.0
H198 H 0.24249 0.92521 0.52317 0.0
C199 C 0.23087 0.8964 0.54262 0.0
H200 H 0.20802 0.86492 0.52763 0.0
H201 H 0.15824 0.85147 0.63228 0.0
O202 O 0.37374 0.84108 0.62566 0.0
C203 C 0.24934 0.82461 0.68515 0.0
Co204 Co 0.72999 0.54068 0.40774 0.0
Co205 Co 0.82684 0.62277 0.42005 0.0
C206 C 0.80452 0.52845 0.43673 0.0
O207 O 0.76328 0.51364 0.42958 0.0
O208 O 0.83336 0.56998 0.43375 0.0
C209 C 0.64992 0.46535 0.43414 0.0
O210 O 0.67086 0.4786 0.46626 0.0
C211 C 0.90858 0.68065 0.46219 0.0
C212 C 0.93859 0.74418 0.43038 0.0
C213 C 0.94528 0.72393 0.46121 0.0
N214 N 0.88142 0.67575 0.43343 0.0
N215 N 0.89948 0.71383 0.41454 0.0
C216 C 0.90088 0.64294 0.48764 0.0
H217 H 0.90787 0.61929 0.47206 0.0
H218 H 0.86508 0.62437 0.49648 0.0
H219 H 0.92295 0.65445 0.51244 0.0
C220 C 0.70521 0.59765 0.45292 0.0
N221 N 0.73565 0.58917 0.43677 0.0
N222 N 0.77642 0.6227 0.44359 0.0
C223 C 0.77303 0.65308 0.46511 0.0
C224 C 0.72784 0.63824 0.47164 0.0
C225 C 0.65535 0.56755 0.45031 0.0
H226 H 0.6462 0.55124 0.42255 0.0
H227 H 0.64431 0.54108 0.47197 0.0
H228 H 0.63741 0.58636 0.45513 0.0
O229 O 0.75433 0.56008 0.35644 0.0
O230 O 0.82142 0.62101 0.36459 0.0
H231 H 0.83035 0.71699 0.45313 0.0
H232 H 0.80131 0.71567 0.49558 0.0
C233 C 0.81217 0.69645 0.47782 0.0
H234 H 0.83571 0.68958 0.49378 0.0
H235 H 0.88528 0.71896 0.39065 0.0
O236 O 0.66756 0.4894 0.40524 0.0
C237 C 0.79091 0.5922 0.34329 0.0
Co238 Co 0.19962 0.72408 0.90427 0.0
Co239 Co 0.21817 0.82121 0.92072 0.0
C240 C 0.28922 0.79792 0.93274 0.0
O241 O 0.26198 0.75809 0.92243 0.0
O242 O 0.27732 0.82738 0.93425 0.0
C243 C 0.19734 0.64645 0.93187 0.0
O244 O 0.20604 0.66897 0.96323 0.0
C245 C 0.24058 0.90175 0.96355 0.0
C246 C 0.21399 0.93564 0.92808 0.0
C247 C 0.23724 0.94015 0.96085 0.0
N248 N 0.22024 0.87581 0.93375 0.0
N249 N 0.20414 0.89607 0.91277 0.0
C250 C 0.26643 0.89145 0.99157 0.0
H251 H 0.30066 0.90299 0.98041 0.0
H252 H 0.24973 0.85467 0.99613 0.0
H253 H 0.2699 0.90861 0.01847 0.0
C254 C 0.11967 0.69989 0.952 0.0
N255 N 0.15887 0.7302 0.93602 0.0
N256 N 0.1671 0.77094 0.94395 0.0
C257 C 0.13348 0.76768 0.9658 0.0
C258 C 0.10227 0.72252 0.9717 0.0
C259 C 0.09961 0.65017 0.94852 0.0
H260 H 0.11603 0.6388 0.96894 0.0
H261 H 0.06303 0.63193 0.95444 0.0
H262 H 0.10572 0.64161 0.92012 0.0
O263 O 0.1993 0.74657 0.85317 0.0
O264 O 0.21503 0.81633 0.86531 0.0
H265 H 0.09774 0.79636 0.99372 0.0
H266 H 0.15844 0.82839 0.99691 0.0
C267 C 0.12964 0.80698 0.97848 0.0
H268 H 0.13121 0.82732 0.95393 0.0
H269 H 0.18727 0.88331 0.88759 0.0
O270 O 0.18916 0.66209 0.90261 0.0
C271 C 0.20754 0.78523 0.8422 0.0
Co272 Co 0.49052 0.18739 0.40171 0.0
Co273 Co 0.41404 0.20797 0.42374 0.0
C274 C 0.50766 0.2793 0.42731 0.0
O275 O 0.51855 0.25207 0.41364 0.0
O276 O 0.4673 0.26652 0.43649 0.0
C277 C 0.56624 0.19196 0.43234 0.0
O278 O 0.55233 0.20869 0.45864 0.0
C279 C 0.35686 0.23209 0.46681 0.0
C280 C 0.29213 0.1967 0.43669 0.0
C281 C 0.31312 0.22427 0.46698 0.0
N282 N 0.36129 0.20954 0.4381 0.0
N283 N 0.32251 0.18848 0.42018 0.0
C284 C 0.39514 0.26344 0.49124 0.0
H285 H 0.41981 0.29221 0.47419 0.0
H286 H 0.41244 0.24598 0.50234 0.0
H287 H 0.38418 0.27692 0.51446 0.0
C288 C 0.43815 0.11069 0.45259 0.0
N289 N 0.44621 0.14948 0.43666 0.0
N290 N 0.41479 0.15843 0.44695 0.0
C291 C 0.38618 0.12591 0.47049 0.0
C292 C 0.4 0.09452 0.47476 0.0
C293 C 0.46622 0.08931 0.44608 0.0
H294 H 0.47634 0.09281 0.41631 0.0
H295 H 0.49719 0.10686 0.46317 0.0
H296 H 0.44814 0.05337 0.45409 0.0
O297 O 0.46327 0.18162 0.35176 0.0
O298 O 0.41436 0.20334 0.36797 0.0
H299 H 0.32177 0.12006 0.46324 0.0
H300 H 0.32658 0.09406 0.50537 0.0
C301 C 0.34459 0.12319 0.48634 0.0
H302 H 0.35375 0.15452 0.50174 0.0
H303 H 0.31687 0.16869 0.39653 0.0
O304 O 0.54272 0.17694 0.4028 0.0
C305 C 0.43384 0.19242 0.34314 0.0
Co306 Co 0.30864 0.47954 0.8985 0.0
Co307 Co 0.21292 0.40922 0.92688 0.0
C308 C 0.23769 0.50188 0.92811 0.0
O309 O 0.27402 0.50951 0.91233 0.0
O310 O 0.20943 0.46293 0.93981 0.0
C311 C 0.38657 0.55159 0.92701 0.0
O312 O 0.36365 0.53437 0.95784 0.0
C313 C 0.12925 0.35206 0.96828 0.0
C314 C 0.10654 0.28583 0.9425 0.0
C315 C 0.09518 0.30753 0.96913 0.0
N316 N 0.15948 0.35643 0.94235 0.0
N317 N 0.14577 0.31672 0.92713 0.0
C318 C 0.13162 0.39066 0.98939 0.0
H319 H 0.12718 0.41289 0.96957 0.0
H320 H 0.16535 0.41063 1.00225 0.0
H321 H 0.10524 0.37959 1.01116 0.0
C322 C 0.33334 0.4254 0.94691 0.0
N323 N 0.30337 0.43601 0.93334 0.0
N324 N 0.26394 0.40982 0.94849 0.0
C325 C 0.26806 0.38377 0.97444 0.0
C326 C 0.31229 0.39164 0.97382 0.0
C327 C 0.37998 0.44481 0.93154 0.0
H328 H 0.3814 0.45702 0.90263 0.0
H329 H 0.40353 0.47382 0.94888 0.0
H330 H 0.39094 0.41951 0.93166 0.0
O331 O 0.28451 0.45138 0.85018 0.0
O332 O 0.2143 0.40745 0.87045 0.0
H333 H 0.20723 0.32377 0.98919 0.0
H334 H 0.24537 0.35086 0.02798 0.0
C335 C 0.23151 0.35645 1.00189 0.0
H336 H 0.21286 0.37403 1.00883 0.0
H337 H 0.16308 0.31081 0.90601 0.0
O338 O 0.3708 0.53132 0.89626 0.0
C339 C 0.24306 0.42382 0.84395 0.0
Co340 Co 0.84001 0.30688 0.41091 0.0
Co341 Co 0.8244 0.2091 0.42107 0.0
C342 C 0.75021 0.22916 0.43334 0.0
O343 O 0.77685 0.27051 0.42701 0.0
O344 O 0.76374 0.20093 0.43218 0.0
C345 C 0.83682 0.37934 0.44252 0.0
O346 O 0.81844 0.34902 0.46899 0.0
C347 C 0.80005 0.12695 0.46227 0.0
C348 C 0.83151 0.0959 0.42916 0.0
C349 C 0.80548 0.08966 0.46062 0.0
N350 N 0.82203 0.15395 0.4333 0.0
N351 N 0.84082 0.13527 0.41362 0.0
C352 C 0.77128 0.13549 0.48857 0.0
H353 H 0.78894 0.17147 0.4965 0.0
H354 H 0.76197 0.11429 0.51388 0.0
H355 H 0.73978 0.12799 0.47402 0.0
C356 C 0.91792 0.32848 0.45944 0.0
N357 N 0.87967 0.29869 0.44212 0.0
N358 N 0.87271 0.2579 0.44752 0.0
C359 C 0.90626 0.26055 0.46903 0.0
C360 C 0.93603 0.30538 0.47726 0.0
C361 C 0.93691 0.3782 0.45836 0.0
H362 H 0.9359 0.389 0.42939 0.0
H363 H 0.91583 0.38684 0.476 0.0
H364 H 0.97188 0.39673 0.46899 0.0
O365 O 0.84196 0.28745 0.35883 0.0
O366 O 0.83254 0.21899 0.36616 0.0
H367 H 0.91266 0.2043 0.45297 0.0
H368 H 0.94302 0.23174 0.49495 0.0
C369 C 0.91174 0.22136 0.47888 0.0
H370 H 0.8824 0.19707 0.49564 0.0
H371 H 0.85968 0.14922 0.3894 0.0
O372 O 0.85184 0.36989 0.41348 0.0
C373 C 0.83775 0.25124 0.3452 0.0
Co374 Co 0.54507 0.83365 0.89953 0.0
Co375 Co 0.61776 0.80999 0.92581 0.0
C376 C 0.52381 0.7403 0.92743 0.0
O377 O 0.51514 0.76885 0.91304 0.0
O378 O 0.56372 0.75171 0.93706 0.0
C379 C 0.47238 0.83283 0.93114 0.0
O380 O 0.4888 0.81939 0.95806 0.0
C381 C 0.67368 0.78186 0.96701 0.0
C382 C 0.74213 0.83134 0.94789 0.0
C383 C 0.71875 0.79516 0.97164 0.0
N384 N 0.67056 0.80938 0.94209 0.0
N385 N 0.71161 0.83876 0.93067 0.0
C386 C 0.63392 0.74207 0.98409 0.0
H387 H 0.61272 0.71937 0.96151 0.0
H388 H 0.61344 0.75331 0.99971 0.0
H389 H 0.6439 0.72295 1.00281 0.0
C390 C 0.59819 0.91141 0.94776 0.0
N391 N 0.58891 0.87137 0.93412 0.0
N392 N 0.61582 0.85911 0.94911 0.0
C393 C 0.6409 0.88945 0.97545 0.0
C394 C 0.63091 0.92432 0.97567 0.0
C395 C 0.58114 0.93901 0.92926 0.0
H396 H 0.57612 0.93109 0.89902 0.0
H397 H 0.54785 0.93017 0.94108 0.0
H398 H 0.60497 0.97544 0.93278 0.0
O399 O 0.57296 0.8385 0.85066 0.0
O400 O 0.61999 0.8153 0.86924 0.0
H401 H 0.70586 0.89862 0.98768 0.0
H402 H 0.67519 0.90009 0.02816 0.0
C403 C 0.67215 0.88364 1.00087 0.0
H404 H 0.65962 0.84747 1.00562 0.0
H405 H 0.71881 0.8642 0.91137 0.0
O406 O 0.49376 0.8454 0.90033 0.0
C407 C 0.60214 0.82696 0.84343 0.0
C408 C 0.57806 0.17919 0.07827 0.0
C409 C 0.61031 0.19388 0.10691 0.0
C410 C 0.54589 0.19294 0.07691 0.0
C411 C 0.54594 0.22308 0.10341 0.0
H412 H 0.57757 0.15674 0.0569 0.0
H413 H 0.5211 0.18022 0.05479 0.0
S414 S 0.6246 0.27247 0.18333 0.0
N415 N 0.64076 0.24042 0.16209 0.0
N416 N 0.58136 0.26717 0.15915 0.0
C417 C 0.57851 0.23841 0.13192 0.0
C418 C 0.61041 0.22355 0.13379 0.0
C419 C 0.35804 0.56601 0.63117 0.0
C420 C 0.34032 0.53337 0.60285 0.0
C421 C 0.4034 0.59964 0.63124 0.0
C422 C 0.43255 0.60266 0.60246 0.0
H423 H 0.33666 0.5655 0.65363 0.0
H424 H 0.41526 0.62447 0.65328 0.0
S425 S 0.40334 0.5249 0.52234 0.0
N426 N 0.35589 0.50504 0.54613 0.0
N427 N 0.44097 0.56966 0.5453 0.0
C428 C 0.4155 0.57005 0.57414 0.0
C429 C 0.36945 0.53498 0.57462 0.0
C430 C 0.83594 0.35521 0.07012 0.0
C431 C 0.80707 0.32665 0.09817 0.0
C432 C 0.84727 0.40051 0.06829 0.0
C433 C 0.83148 0.41897 0.09528 0.0
H434 H 0.84921 0.34231 0.04915 0.0
H435 H 0.8687 0.42129 0.04581 0.0
S436 S 0.75572 0.35882 0.17472 0.0
N437 N 0.76306 0.32047 0.15353 0.0
N438 N 0.78559 0.40543 0.15062 0.0
C439 C 0.8033 0.39099 0.12374 0.0
C440 C 0.79079 0.34487 0.12505 0.0
C441 C 0.45736 0.77628 0.57635 0.0
C442 C 0.49838 0.80714 0.59296 0.0
C443 C 0.42065 0.78338 0.57657 0.0
C444 C 0.42309 0.82091 0.59448 0.0
H445 H 0.4533 0.74585 0.56383 0.0
H446 H 0.38947 0.75818 0.56399 0.0
S447 S 0.52337 0.91229 0.64128 0.0
N448 N 0.54008 0.87758 0.62651 0.0
N449 N 0.47038 0.89017 0.62805 0.0
C450 C 0.4642 0.85254 0.61055 0.0
C451 C 0.50205 0.84588 0.60944 0.0
C452 C 0.68139 0.45848 0.127 0.0
C453 C 0.69757 0.4927 0.09988 0.0
C454 C 0.63564 0.4264 0.12957 0.0
C455 C 0.60433 0.42656 0.10453 0.0
H456 H 0.70429 0.4566 0.14671 0.0
H457 H 0.62504 0.40028 0.15049 0.0
S458 S 0.62899 0.50946 0.02898 0.0
N459 N 0.67843 0.52596 0.04848 0.0
N460 N 0.59234 0.46416 0.0521 0.0
C461 C 0.61986 0.46073 0.07741 0.0
C462 C 0.66648 0.49426 0.07545 0.0
C463 C 0.19851 0.62074 0.56894 0.0
C464 C 0.20046 0.59994 0.60227 0.0
C465 C 0.20789 0.66543 0.5686 0.0
C466 C 0.22057 0.69094 0.60144 0.0
H467 H 0.19057 0.60266 0.54278 0.0
H468 H 0.20703 0.68061 0.54237 0.0
S469 S 0.22762 0.65202 0.6963 0.0
N470 N 0.2131 0.60801 0.66936 0.0
N471 N 0.23185 0.69206 0.66834 0.0
C472 C 0.22115 0.67027 0.63504 0.0
C473 C 0.21075 0.6247 0.63559 0.0
C474 C 0.79087 0.45632 0.46419 0.0
C475 C 0.81895 0.49522 0.44357 0.0
C476 C 0.79852 0.42006 0.46513 0.0
C477 C 0.83382 0.42072 0.44461 0.0
H478 H 0.76178 0.45329 0.4787 0.0
H479 H 0.77507 0.39035 0.48056 0.0
S480 S 0.91858 0.51575 0.3879 0.0
N481 N 0.88516 0.53351 0.40399 0.0
N482 N 0.8988 0.46464 0.40488 0.0
C483 C 0.86319 0.46006 0.42498 0.0
C484 C 0.856 0.49752 0.42474 0.0
C485 C 0.37128 0.84917 0.92065 0.0
C486 C 0.33676 0.81054 0.93811 0.0
C487 C 0.41545 0.85672 0.91872 0.0
C488 C 0.42668 0.82651 0.93509 0.0
H489 H 0.36359 0.87238 0.90661 0.0
H490 H 0.4408 0.886 0.90396 0.0
S491 S 0.34878 0.72153 0.98559 0.0
N492 N 0.31696 0.74252 0.97273 0.0
N493 N 0.3999 0.75737 0.97047 0.0
C494 C 0.39279 0.78885 0.95403 0.0
C495 C 0.34783 0.78069 0.95519 0.0
C496 C 0.58103 0.39929 0.46081 0.0
C497 C 0.61089 0.41946 0.43066 0.0
C498 C 0.54656 0.35413 0.45937 0.0
C499 C 0.54197 0.32741 0.42825 0.0
H500 H 0.5846 0.41844 0.48581 0.0
H501 H 0.52438 0.33967 0.48316 0.0
S502 S 0.61046 0.3643 0.34165 0.0
N503 N 0.63227 0.40945 0.36824 0.0
N504 N 0.56868 0.32459 0.36605 0.0
C505 C 0.57111 0.34736 0.39775 0.0
C506 C 0.60528 0.39341 0.3988 0.0
C507 C 0.19403 0.57831 0.96003 0.0
C508 C 0.2046 0.60773 0.92953 0.0
C509 C 0.20403 0.54343 0.95935 0.0
C510 C 0.22638 0.53797 0.92871 0.0
H511 H 0.17796 0.58231 0.98457 0.0
H512 H 0.1952 0.52131 0.98326 0.0
S513 S 0.26111 0.60598 0.84185 0.0
N514 N 0.23779 0.62852 0.86764 0.0
N515 N 0.25774 0.5641 0.86678 0.0
C516 C 0.23698 0.56713 0.89805 0.0
C517 C 0.22578 0.60173 0.89834 0.0
C518 C 0.64478 0.23268 0.4563 0.0
C519 C 0.61145 0.19676 0.43546 0.0
C520 C 0.68922 0.24151 0.457 0.0
C521 C 0.70189 0.21405 0.43779 0.0
H522 H 0.63704 0.25555 0.47084 0.0
H523 H 0.71419 0.27088 0.47186 0.0
S524 S 0.62675 0.11345 0.38176 0.0
N525 N 0.59361 0.1321 0.39674 0.0
N526 N 0.67713 0.14792 0.399 0.0
C527 C 0.66848 0.17656 0.41849 0.0
C528 C 0.62328 0.16817 0.41702 0.0
C529 C 0.46485 0.61331 0.94002 0.0
C530 C 0.42139 0.59923 0.92679 0.0
C531 C 0.49754 0.65911 0.94108 0.0
C532 C 0.4876 0.69235 0.92944 0.0
H533 H 0.47369 0.58879 0.94929 0.0
H534 H 0.53093 0.66835 0.95068 0.0
S535 S 0.37614 0.6715 0.8961 0.0
N536 N 0.36866 0.62102 0.90415 0.0
N537 N 0.42922 0.70695 0.90651 0.0
C538 C 0.44334 0.6782 0.91736 0.0
C539 C 0.41047 0.63167 0.91594 0.0
C540 C 0.42144 0.23561 0.29322 0.0
C541 C 0.42697 0.19912 0.30335 0.0
C542 C 0.42179 0.24741 0.25569 0.0
C543 C 0.42622 0.22232 0.22687 0.0
H544 H 0.41922 0.25674 0.31449 0.0
H545 H 0.41962 0.27699 0.24922 0.0
S546 S 0.43862 0.12198 0.23831 0.0
N547 N 0.43535 0.13704 0.28141 0.0
N548 N 0.43428 0.15812 0.21082 0.0
C549 C 0.42948 0.18442 0.2365 0.0
C550 C 0.43034 0.17312 0.27476 0.0
C551 C 0.24261 0.40882 0.73929 0.0
C552 C 0.20688 0.41489 0.7276 0.0
C553 C 0.25311 0.40985 0.77722 0.0
C554 C 0.22737 0.41551 0.80485 0.0
H555 H 0.26434 0.40593 0.71893 0.0
H556 H 0.28232 0.40746 0.78493 0.0
S557 S 0.1281 0.429 0.78913 0.0
N558 N 0.14444 0.42454 0.74679 0.0
N559 N 0.16308 0.42474 0.81816 0.0
C560 C 0.18996 0.41894 0.79369 0.0
C561 C 0.18001 0.4191 0.75502 0.0
C562 C 0.83902 0.21063 0.28715 0.0
C563 C 0.83195 0.24353 0.30425 0.0
C564 C 0.82755 0.19843 0.24954 0.0
C565 C 0.8075 0.21788 0.22823 0.0
H566 H 0.85267 0.19353 0.30316 0.0
H567 H 0.8328 0.17257 0.23755 0.0
S568 S 0.78371 0.30679 0.25851 0.0
N569 N 0.80563 0.29672 0.29565 0.0
N570 N 0.78319 0.2729 0.22577 0.0
C571 C 0.80144 0.25153 0.24452 0.0
C572 C 0.81391 0.26463 0.28231 0.0
C573 C 0.61056 0.78186 0.79279 0.0
C574 C 0.61065 0.82112 0.80389 0.0
C575 C 0.61061 0.77153 0.75486 0.0
C576 C 0.61227 0.80084 0.72677 0.0
H577 H 0.60793 0.75773 0.8135 0.0
H578 H 0.60847 0.74004 0.74745 0.0
S579 S 0.61573 0.9092 0.74127 0.0
N580 N 0.6138 0.88995 0.78385 0.0
N581 N 0.61582 0.87164 0.71274 0.0
C582 C 0.61459 0.84123 0.7376 0.0
C583 C 0.61327 0.85108 0.77611 0.0
C584 C 0.83651 0.6333 0.24528 0.0
C585 C 0.82359 0.59301 0.22608 0.0
C586 C 0.82594 0.63308 0.28329 0.0
C587 C 0.80058 0.59249 0.30292 0.0
H588 H 0.85517 0.66516 0.23091 0.0
H589 H 0.83717 0.66481 0.29727 0.0
S590 S 0.75755 0.47786 0.26503 0.0
N591 N 0.78389 0.51152 0.22957 0.0
N592 N 0.76301 0.51107 0.30021 0.0
C593 C 0.78704 0.55206 0.28382 0.0
C594 C 0.79879 0.55233 0.24562 0.0
C595 C 0.24844 0.83872 0.79008 0.0
C596 C 0.21409 0.79606 0.80186 0.0
C597 C 0.25942 0.8483 0.75215 0.0
C598 C 0.23541 0.81606 0.72466 0.0
H599 H 0.26833 0.8643 0.81042 0.0
H600 H 0.28711 0.88091 0.7443 0.0
S601 S 0.14167 0.70001 0.74052 0.0
N602 N 0.15594 0.72164 0.78279 0.0
N603 N 0.17533 0.74022 0.7115 0.0
C604 C 0.20004 0.77388 0.73592 0.0
C605 C 0.18969 0.76372 0.77452 0.0
C606 C 0.24878 0.97491 0.0241 0.0
C607 C 0.25713 0.97982 0.98549 0.0
C608 C 0.26784 0.01227 0.04783 0.0
C609 C 0.29598 0.05564 0.03368 0.0
H610 H 0.22701 0.94204 0.036 0.0
H611 H 0.26097 1.00716 0.07748 0.0
S612 S 0.32449 0.08687 0.93433 0.0
N613 N 0.29295 0.03162 0.93392 0.0
N614 N 0.32815 0.10191 0.97849 0.0
C615 C 0.30325 0.06117 0.99502 0.0
C616 C 0.28385 0.02321 0.9709 0.0
C617 C 0.25345 0.28427 0.5024 0.0
C618 C 0.25569 0.28113 0.54141 0.0
C619 C 0.27161 0.26522 0.47848 0.0
C620 C 0.29266 0.24242 0.49273 0.0
H621 H 0.23705 0.30096 0.4901 0.0
H622 H 0.26973 0.2689 0.44862 0.0
S623 S 0.30265 0.21998 0.59233 0.0
N624 N 0.27789 0.25051 0.593 0.0
N625 N 0.3108 0.21368 0.54787 0.0
C626 C 0.29335 0.2372 0.5315 0.0
C627 C 0.27505 0.25671 0.55588 0.0
C628 C 0.01996 0.27092 0.05457 0.0
C629 C 0.9768 0.24594 0.03905 0.0
C630 C 0.05827 0.2911 0.03172 0.0
C631 C 0.0545 0.28649 0.99273 0.0
H632 H 0.02406 0.27535 0.08451 0.0
H633 H 0.09105 0.3101 0.04464 0.0
S634 S 0.94916 0.22165 0.93886 0.0
N635 N 0.93246 0.21565 0.98278 0.0
N636 N 1.00451 0.25351 0.93974 0.0
C637 C 1.0116 0.26051 0.97702 0.0
C638 C 0.97265 0.24031 1.00023 0.0
C639 C 0.77296 0.0193 0.54902 0.0
C640 C 0.7493 0.97524 0.53523 0.0
C641 C 0.79144 0.05622 0.52472 0.0
C642 C 0.78674 0.05031 0.48584 0.0
H643 H 0.77669 0.02528 0.57882 0.0
H644 H 0.8098 0.08962 0.53648 0.0
S645 S 0.7332 0.94158 0.43574 0.0
N646 N 0.72656 0.92757 0.48033 0.0
N647 N 0.76009 0.99698 0.43463 0.0
C648 C 0.76496 1.00637 0.47171 0.0
C649 C 0.74636 0.9688 0.49643 0.0
C650 C 0.78856 0.74565 1.007 0.0
C651 C 0.77822 0.73961 0.04529 0.0
C652 C 0.76937 0.76396 0.98334 0.0
C653 C 0.73894 0.77645 0.99716 0.0
H654 H 0.81227 0.73699 0.99533 0.0
H655 H 0.77805 0.76799 0.95398 0.0
S656 S 0.70376 0.77099 0.0957 0.0
N657 N 0.73745 0.74972 0.09624 0.0
N658 N 0.70196 0.78475 0.05185 0.0
C659 C 0.72935 0.77181 0.03552 0.0
C660 C 0.74893 0.75331 0.05959 0.0
C661 C 0.97875 0.74188 0.52525 0.0
C662 C 0.9847 0.74453 0.48632 0.0
C663 C 1.01578 0.75978 0.54943 0.0
C664 C 0.05992 0.78104 0.53544 0.0
H665 H 0.94524 0.72591 0.53713 0.0
H666 H 1.00981 0.75627 0.57925 0.0
S667 S 0.09365 0.80255 0.43597 0.0
N668 N 0.03811 0.77361 0.43498 0.0
N669 N 0.10771 0.80844 0.48051 0.0
C670 C 0.06638 0.78612 0.49667 0.0
C671 C 0.02872 0.7677 0.47207 0.0
C672 C 0.71767 0.02739 0.03033 0.0
C673 C 0.69411 0.04958 0.04027 0.0
C674 C 0.69749 0.98778 1.00902 0.0
C675 C 0.65171 0.9664 0.99889 0.0
H676 H 0.75214 0.04048 0.039 0.0
H677 H 0.71838 0.97422 1.0003 0.0
S678 S 0.57369 1.00881 0.01973 0.0
N679 N 0.6229 0.04837 0.0352 0.0
N680 N 0.58233 0.96874 1.00421 0.0
C681 C 0.62712 0.98697 1.01043 0.0
C682 C 0.6488 0.02952 0.02895 0.0
C683 C 0.70936 0.66171 0.53209 0.0
C684 C 0.70798 0.66099 0.49291 0.0
C685 C 0.68897 0.68144 0.55275 0.0
C686 C 0.66699 0.70141 0.53481 0.0
H687 H 0.72574 0.64637 0.54683 0.0
H688 H 0.69032 0.68102 0.58293 0.0
S689 S 0.65545 0.70949 0.43282 0.0
N690 N 0.68379 0.68262 0.43698 0.0
N691 N 0.64585 0.72003 0.47576 0.0
C692 C 0.66614 0.70156 0.49568 0.0
C693 C 0.68653 0.68121 0.47471 0.0
C694 C 0.97704 0.65513 0.9941 0.0
C695 C 0.97588 0.66139 0.03271 0.0
C696 C 1.018 0.67557 0.97441 0.0
C697 C 0.05914 0.7028 0.99273 0.0
H698 H 0.94613 0.63387 0.97914 0.0
H699 H 1.01755 0.66984 0.94467 0.0
S700 S 0.0738 0.73 0.09355 0.0
N701 N 1.01892 0.69707 0.08848 0.0
N702 N 0.09592 0.73528 0.0516 0.0
C703 C 0.05821 0.7098 0.03124 0.0
C704 C 1.01655 0.68903 0.05123 0.0
C705 C 0.33675 0.96941 0.49546 0.0
C706 C 0.33533 0.96813 0.53463 0.0
C707 C 0.35755 1.01052 0.4762 0.0
C708 C 0.37715 0.05153 0.49554 0.0
H709 H 0.32224 0.93847 0.47968 0.0
H710 H 0.35845 1.01029 0.44599 0.0
S711 S 0.38067 0.06602 0.59804 0.0
N712 N 0.35412 1.01108 0.59203 0.0
N713 N 0.39293 0.08831 0.55581 0.0
C714 C 0.37513 0.05059 0.53463 0.0
C715 C 0.35431 1.00884 0.55421 0.0
C716 C 0.37789 0.39394 1.00739 0.0
C717 C 0.33273 0.36916 0.99577 0.0
C718 C 0.39868 0.37374 0.02662 0.0
C719 C 0.37461 0.32842 0.03769 0.0
H720 H 0.39775 0.42947 1.0017 0.0
H721 H 0.43413 0.39418 0.03264 0.0
S722 S 0.25458 0.24855 0.01609 0.0
N723 N 0.26551 0.29527 0.99456 0.0
N724 N 0.30138 0.26024 0.038 0.0
C725 C 0.3288 0.30361 0.02773 0.0
C726 C 0.30863 0.32327 1.00531 0.0
C727 C 0.06137 0.37263 0.49767 0.0
C728 C 0.0632 0.36578 0.5361 0.0
C729 C 0.02007 0.35245 0.47866 0.0
C730 C 0.97941 0.3247 0.49751 0.0
H731 H 0.09198 0.39421 0.48238 0.0
H732 H 0.01985 0.35883 0.44909 0.0
S733 S 0.96658 0.29577 0.598 0.0
N734 N 0.02132 0.32909 0.59224 0.0
N735 N 0.94368 0.29099 0.5565 0.0
C736 C 0.981 0.31704 0.53578 0.0
C737 C 0.02296 0.33772 0.55512 0.0
loop_
_geom_bond_atom_site_label_1
_geom_bond_atom_site_label_2
_geom_bond_distance
_geom_bond_site_symmetry_2
_ccdc_geom_bond_type
Co0 O3 1.970 . S
Co0 N17 1.989 . S
Co0 O25 1.967 . S
Co0 O32 1.920 . S
Co1 O4 1.966 . S
Co1 N10 2.022 . S
Co1 N18 1.993 . S
Co1 O26 1.941 . S
C2 O3 1.258 . S
C2 O4 1.263 . S
O3 Co0 1.970 . S
O3 C2 1.258 . S
O4 Co1 1.966 . S
O4 C2 1.263 . S
C5 O6 1.235 . S
C5 O32 1.289 . S
O6 C5 1.235 . S
C7 C9 1.400 . S
C7 N10 1.351 . S
C7 C12 1.501 . S
C8 C9 1.387 . S
C8 N11 1.341 . S
C9 C7 1.400 . S
C9 C8 1.387 . S
N10 Co1 2.022 . S
N10 C7 1.351 . S
N10 N11 1.365 . S
N11 C8 1.341 . S
N11 N10 1.365 . S
N11 H31 0.862 . S
C12 C7 1.501 . S
C12 H13 0.961 . S
C12 H14 0.961 . S
C12 H15 0.960 . S
H13 C12 0.961 . S
H14 C12 0.961 . S
H15 C12 0.960 . S
C16 N17 1.342 . S
C16 C20 1.401 . S
C16 C21 1.499 . S
N17 Co0 1.989 . S
N17 C16 1.342 . S
N17 N18 1.388 . S
N18 Co1 1.993 . S
N18 N17 1.388 . S
N18 C19 1.346 . S
C19 N18 1.346 . S
C19 C20 1.396 . S
C19 C29 1.510 . S
C20 C16 1.401 . S
C20 C19 1.396 . S
C21 C16 1.499 . S
C21 H22 0.959 . S
C21 H23 0.960 . S
C21 H24 0.961 . S
H22 C21 0.959 . S
H23 C21 0.960 . S
H24 C21 0.961 . S
O25 Co0 1.967 . S
O25 C33 1.258 . S
O26 Co1 1.941 . S
O26 C33 1.266 . S
H27 C29 0.959 . S
H28 C29 0.961 . S
C29 C19 1.510 . S
C29 H27 0.959 . S
C29 H28 0.961 . S
C29 H30 0.960 . S
H30 C29 0.960 . S
H31 N11 0.862 . S
O32 Co0 1.920 . S
O32 C5 1.289 . S
C33 O25 1.258 . S
C33 O26 1.266 . S
Co34 O37 1.970 . S
Co34 N51 1.989 . S
Co34 O59 1.967 . S
Co34 O66 1.920 . S
Co35 O38 1.966 . S
Co35 N44 2.022 . S
Co35 N52 1.993 . S
Co35 O60 1.941 . S
C36 O37 1.258 . S
C36 O38 1.263 . S
O37 Co34 1.970 . S
O37 C36 1.258 . S
O38 Co35 1.966 . S
O38 C36 1.263 . S
C39 O40 1.235 . S
C39 O66 1.289 . S
O40 C39 1.235 . S
C41 C43 1.400 . S
C41 N44 1.351 . S
C41 C46 1.501 . S
C42 C43 1.387 . S
C42 N45 1.341 . S
C43 C41 1.400 . S
C43 C42 1.387 . S
N44 Co35 2.022 . S
N44 C41 1.351 . S
N44 N45 1.365 . S
N45 C42 1.341 . S
N45 N44 1.365 . S
N45 H65 0.862 . S
C46 C41 1.501 . S
C46 H47 0.961 . S
C46 H48 0.961 . S
C46 H49 0.960 . S
H47 C46 0.961 . S
H48 C46 0.961 . S
H49 C46 0.960 . S
C50 N51 1.342 . S
C50 C54 1.401 . S
C50 C55 1.499 . S
N51 Co34 1.989 . S
N51 C50 1.342 . S
N51 N52 1.388 . S
N52 Co35 1.993 . S
N52 N51 1.388 . S
N52 C53 1.346 . S
C53 N52 1.346 . S
C53 C54 1.396 . S
C53 C63 1.510 . S
C54 C50 1.401 . S
C54 C53 1.396 . S
C55 C50 1.499 . S
C55 H56 0.959 . S
C55 H57 0.960 . S
C55 H58 0.961 . S
H56 C55 0.959 . S
H57 C55 0.960 . S
H58 C55 0.961 . S
O59 Co34 1.967 . S
O59 C67 1.258 . S
O60 Co35 1.941 . S
O60 C67 1.266 . S
H61 C63 0.959 . S
H62 C63 0.961 . S
C63 C53 1.510 . S
C63 H61 0.959 . S
C63 H62 0.961 . S
C63 H64 0.960 . S
H64 C63 0.960 . S
H65 N45 0.862 . S
O66 Co34 1.920 . S
O66 C39 1.289 . S
C67 O59 1.258 . S
C67 O60 1.266 . S
Co68 O71 1.970 . S
Co68 N85 1.989 . S
Co68 O93 1.967 . S
Co68 O100 1.920 . S
Co69 O72 1.966 . S
Co69 N78 2.022 . S
Co69 N86 1.993 . S
Co69 O94 1.941 . S
C70 O71 1.258 . S
C70 O72 1.263 . S
O71 Co68 1.970 . S
O71 C70 1.258 . S
O72 Co69 1.966 . S
O72 C70 1.263 . S
C73 O74 1.235 . S
C73 O100 1.289 . S
O74 C73 1.235 . S
C75 C77 1.400 . S
C75 N78 1.351 . S
C75 C80 1.501 . S
C76 C77 1.387 . S
C76 N79 1.341 . S
C77 C75 1.400 . S
C77 C76 1.387 . S
N78 Co69 2.022 . S
N78 C75 1.351 . S
N78 N79 1.365 . S
N79 C76 1.341 . S
N79 N78 1.365 . S
N79 H99 0.862 . S
C80 C75 1.501 . S
C80 H81 0.961 . S
C80 H82 0.961 . S
C80 H83 0.960 . S
H81 C80 0.961 . S
H82 C80 0.961 . S
H83 C80 0.960 . S
C84 N85 1.342 . S
C84 C88 1.401 . S
C84 C89 1.499 . S
N85 Co68 1.989 . S
N85 C84 1.342 . S
N85 N86 1.388 . S
N86 Co69 1.993 . S
N86 N85 1.388 . S
N86 C87 1.346 . S
C87 N86 1.346 . S
C87 C88 1.396 . S
C87 C97 1.510 . S
C88 C84 1.401 . S
C88 C87 1.396 . S
C89 C84 1.499 . S
C89 H90 0.959 . S
C89 H91 0.960 . S
C89 H92 0.961 . S
H90 C89 0.959 . S
H91 C89 0.960 . S
H92 C89 0.961 . S
O93 Co68 1.967 . S
O93 C101 1.258 . S
O94 Co69 1.941 . S
O94 C101 1.266 . S
H95 C97 0.959 . S
H96 C97 0.961 . S
C97 C87 1.510 . S
C97 H95 0.959 . S
C97 H96 0.961 . S
C97 H98 0.960 . S
H98 C97 0.960 . S
H99 N79 0.862 . S
O100 Co68 1.920 . S
O100 C73 1.289 . S
C101 O93 1.258 . S
C101 O94 1.266 . S
Co102 O105 1.970 . S
Co102 N119 1.989 . S
Co102 O127 1.967 . S
Co102 O134 1.920 . S
Co103 O106 1.966 . S
Co103 N112 2.022 . S
Co103 N120 1.993 . S
Co103 O128 1.941 . S
C104 O105 1.258 . S
C104 O106 1.263 . S
O105 Co102 1.970 . S
O105 C104 1.258 . S
O106 Co103 1.966 . S
O106 C104 1.263 . S
C107 O108 1.235 . S
C107 O134 1.289 . S
O108 C107 1.235 . S
C109 C111 1.400 . S
C109 N112 1.351 . S
C109 C114 1.501 . S
C110 C111 1.387 . S
C110 N113 1.341 . S
C111 C109 1.400 . S
C111 C110 1.387 . S
N112 Co103 2.022 . S
N112 C109 1.351 . S
N112 N113 1.365 . S
N113 C110 1.341 . S
N113 N112 1.365 . S
N113 H133 0.862 . S
C114 C109 1.501 . S
C114 H115 0.961 . S
C114 H116 0.961 . S
C114 H117 0.960 . S
H115 C114 0.961 . S
H116 C114 0.961 . S
H117 C114 0.960 . S
C118 N119 1.342 . S
C118 C122 1.401 . S
C118 C123 1.499 . S
N119 Co102 1.989 . S
N119 C118 1.342 . S
N119 N120 1.388 . S
N120 Co103 1.993 . S
N120 N119 1.388 . S
N120 C121 1.346 . S
C121 N120 1.346 . S
C121 C122 1.396 . S
C121 C131 1.510 . S
C122 C118 1.401 . S
C122 C121 1.396 . S
C123 C118 1.499 . S
C123 H124 0.959 . S
C123 H125 0.960 . S
C123 H126 0.961 . S
H124 C123 0.959 . S
H125 C123 0.960 . S
H126 C123 0.961 . S
O127 Co102 1.967 . S
O127 C135 1.258 . S
O128 Co103 1.941 . S
O128 C135 1.266 . S
H129 C131 0.959 . S
H130 C131 0.961 . S
C131 C121 1.510 . S
C131 H129 0.959 . S
C131 H130 0.961 . S
C131 H132 0.960 . S
H132 C131 0.960 . S
H133 N113 0.862 . S
O134 Co102 1.920 . S
O134 C107 1.289 . S
C135 O127 1.258 . S
C135 O128 1.266 . S
Co136 O139 1.970 . S
Co136 N153 1.989 . S
Co136 O161 1.967 . S
Co136 O168 1.920 . S
Co137 O140 1.966 . S
Co137 N146 2.022 . S
Co137 N154 1.993 . S
Co137 O162 1.941 . S
C138 O139 1.258 . S
C138 O140 1.263 . S
O139 Co136 1.970 . S
O139 C138 1.258 . S
O140 Co137 1.966 . S
O140 C138 1.263 . S
C141 O142 1.235 . S
C141 O168 1.289 . S
O142 C141 1.235 . S
C143 C145 1.400 . S
C143 N146 1.351 . S
C143 C148 1.501 . S
C144 C145 1.387 . S
C144 N147 1.341 . S
C145 C143 1.400 . S
C145 C144 1.387 . S
N146 Co137 2.022 . S
N146 C143 1.351 . S
N146 N147 1.365 . S
N147 C144 1.341 . S
N147 N146 1.365 . S
N147 H167 0.862 . S
C148 C143 1.501 . S
C148 H149 0.961 . S
C148 H150 0.961 . S
C148 H151 0.960 . S
H149 C148 0.961 . S
H150 C148 0.961 . S
H151 C148 0.960 . S
C152 N153 1.342 . S
C152 C156 1.401 . S
C152 C157 1.499 . S
N153 Co136 1.989 . S
N153 C152 1.342 . S
N153 N154 1.388 . S
N154 Co137 1.993 . S
N154 N153 1.388 . S
N154 C155 1.346 . S
C155 N154 1.346 . S
C155 C156 1.396 . S
C155 C165 1.510 . S
C156 C152 1.401 . S
C156 C155 1.396 . S
C157 C152 1.499 . S
C157 H158 0.959 . S
C157 H159 0.960 . S
C157 H160 0.961 . S
H158 C157 0.959 . S
H159 C157 0.960 . S
H160 C157 0.961 . S
O161 Co136 1.967 . S
O161 C169 1.258 . S
O162 Co137 1.941 . S
O162 C169 1.266 . S
H163 C165 0.959 . S
H164 C165 0.961 . S
C165 C155 1.510 . S
C165 H163 0.959 . S
C165 H164 0.961 . S
C165 H166 0.960 . S
H166 C165 0.960 . S
H167 N147 0.862 . S
O168 Co136 1.920 . S
O168 C141 1.289 . S
C169 O161 1.258 . S
C169 O162 1.266 . S
Co170 O173 1.970 . S
Co170 N187 1.989 . S
Co170 O195 1.967 . S
Co170 O202 1.920 . S
Co171 O174 1.966 . S
Co171 N180 2.022 . S
Co171 N188 1.993 . S
Co171 O196 1.941 . S
C172 O173 1.258 . S
C172 O174 1.263 . S
O173 Co170 1.970 . S
O173 C172 1.258 . S
O174 Co171 1.966 . S
O174 C172 1.263 . S
C175 O176 1.235 . S
C175 O202 1.289 . S
O176 C175 1.235 . S
C177 C179 1.400 . S
C177 N180 1.351 . S
C177 C182 1.501 . S
C178 C179 1.387 . S
C178 N181 1.341 . S
C179 C177 1.400 . S
C179 C178 1.387 . S
N180 Co171 2.022 . S
N180 C177 1.351 . S
N180 N181 1.365 . S
N181 C178 1.341 . S
N181 N180 1.365 . S
N181 H201 0.862 . S
C182 C177 1.501 . S
C182 H183 0.961 . S
C182 H184 0.961 . S
C182 H185 0.960 . S
H183 C182 0.961 . S
H184 C182 0.961 . S
H185 C182 0.960 . S
C186 N187 1.342 . S
C186 C190 1.401 . S
C186 C191 1.499 . S
N187 Co170 1.989 . S
N187 C186 1.342 . S
N187 N188 1.388 . S
N188 Co171 1.993 . S
N188 N187 1.388 . S
N188 C189 1.346 . S
C189 N188 1.346 . S
C189 C190 1.396 . S
C189 C199 1.510 . S
C190 C186 1.401 . S
C190 C189 1.396 . S
C191 C186 1.499 . S
C191 H192 0.959 . S
C191 H193 0.960 . S
C191 H194 0.961 . S
H192 C191 0.959 . S
H193 C191 0.960 . S
H194 C191 0.961 . S
O195 Co170 1.967 . S
O195 C203 1.258 . S
O196 Co171 1.941 . S
O196 C203 1.266 . S
H197 C199 0.959 . S
H198 C199 0.961 . S
C199 C189 1.510 . S
C199 H197 0.959 . S
C199 H198 0.961 . S
C199 H200 0.960 . S
H200 C199 0.960 . S
H201 N181 0.862 . S
O202 Co170 1.920 . S
O202 C175 1.289 . S
C203 O195 1.258 . S
C203 O196 1.266 . S
Co204 O207 1.970 . S
Co204 N221 1.989 . S
Co204 O229 1.967 . S
Co204 O236 1.920 . S
Co205 O208 1.966 . S
Co205 N214 2.022 . S
Co205 N222 1.993 . S
Co205 O230 1.941 . S
C206 O207 1.258 . S
C206 O208 1.263 . S
O207 Co204 1.970 . S
O207 C206 1.258 . S
O208 Co205 1.966 . S
O208 C206 1.263 . S
C209 O210 1.235 . S
C209 O236 1.289 . S
O210 C209 1.235 . S
C211 C213 1.400 . S
C211 N214 1.351 . S
C211 C216 1.501 . S
C212 C213 1.387 . S
C212 N215 1.341 . S
C213 C211 1.400 . S
C213 C212 1.387 . S
N214 Co205 2.022 . S
N214 C211 1.351 . S
N214 N215 1.365 . S
N215 C212 1.341 . S
N215 N214 1.365 . S
N215 H235 0.862 . S
C216 C211 1.501 . S
C216 H217 0.961 . S
C216 H218 0.961 . S
C216 H219 0.960 . S
H217 C216 0.961 . S
H218 C216 0.961 . S
H219 C216 0.960 . S
C220 N221 1.342 . S
C220 C224 1.401 . S
C220 C225 1.499 . S
N221 Co204 1.989 . S
N221 C220 1.342 . S
N221 N222 1.388 . S
N222 Co205 1.993 . S
N222 N221 1.388 . S
N222 C223 1.346 . S
C223 N222 1.346 . S
C223 C224 1.396 . S
C223 C233 1.510 . S
C224 C220 1.401 . S
C224 C223 1.396 . S
C225 C220 1.499 . S
C225 H226 0.959 . S
C225 H227 0.960 . S
C225 H228 0.961 . S
H226 C225 0.959 . S
H227 C225 0.960 . S
H228 C225 0.961 . S
O229 Co204 1.967 . S
O229 C237 1.258 . S
O230 Co205 1.941 . S
O230 C237 1.266 . S
H231 C233 0.959 . S
H232 C233 0.961 . S
C233 C223 1.510 . S
C233 H231 0.959 . S
C233 H232 0.961 . S
C233 H234 0.960 . S
H234 C233 0.960 . S
H235 N215 0.862 . S
O236 Co204 1.920 . S
O236 C209 1.289 . S
C237 O229 1.258 . S
C237 O230 1.266 . S
Co238 O241 1.970 . S
Co238 N255 1.989 . S
Co238 O263 1.967 . S
Co238 O270 1.920 . S
Co239 O242 1.966 . S
Co239 N248 2.022 . S
Co239 N256 1.993 . S
Co239 O264 1.941 . S
C240 O241 1.258 . S
C240 O242 1.263 . S
O241 Co238 1.970 . S
O241 C240 1.258 . S
O242 Co239 1.966 . S
O242 C240 1.263 . S
C243 O244 1.235 . S
C243 O270 1.289 . S
O244 C243 1.235 . S
C245 C247 1.400 . S
C245 N248 1.351 . S
C245 C250 1.501 . S
C246 C247 1.387 . S
C246 N249 1.341 . S
C247 C245 1.400 . S
C247 C246 1.387 . S
N248 Co239 2.022 . S
N248 C245 1.351 . S
N248 N249 1.365 . S
N249 C246 1.341 . S
N249 N248 1.365 . S
N249 H269 0.862 . S
C250 C245 1.501 . S
C250 H251 0.961 . S
C250 H252 0.961 . S
C250 H253 0.960 . S
H251 C250 0.961 . S
H252 C250 0.961 . S
H253 C250 0.960 . S
C254 N255 1.342 . S
C254 C258 1.401 . S
C254 C259 1.499 . S
N255 Co238 1.989 . S
N255 C254 1.342 . S
N255 N256 1.388 . S
N256 Co239 1.993 . S
N256 N255 1.388 . S
N256 C257 1.346 . S
C257 N256 1.346 . S
C257 C258 1.396 . S
C257 C267 1.510 . S
C258 C254 1.401 . S
C258 C257 1.396 . S
C259 C254 1.499 . S
C259 H260 0.959 . S
C259 H261 0.960 . S
C259 H262 0.961 . S
H260 C259 0.959 . S
H261 C259 0.960 . S
H262 C259 0.961 . S
O263 Co238 1.967 . S
O263 C271 1.258 . S
O264 Co239 1.941 . S
O264 C271 1.266 . S
H265 C267 0.959 . S
H266 C267 0.961 . S
C267 C257 1.510 . S
C267 H265 0.959 . S
C267 H266 0.961 . S
C267 H268 0.960 . S
H268 C267 0.960 . S
H269 N249 0.862 . S
O270 Co238 1.920 . S
O270 C243 1.289 . S
C271 O263 1.258 . S
C271 O264 1.266 . S
Co272 O275 1.970 . S
Co272 N289 1.989 . S
Co272 O297 1.967 . S
Co272 O304 1.920 . S
Co273 O276 1.966 . S
Co273 N282 2.022 . S
Co273 N290 1.993 . S
Co273 O298 1.941 . S
C274 O275 1.258 . S
C274 O276 1.263 . S
O275 Co272 1.970 . S
O275 C274 1.258 . S
O276 Co273 1.966 . S
O276 C274 1.263 . S
C277 O278 1.235 . S
C277 O304 1.289 . S
O278 C277 1.235 . S
C279 C281 1.400 . S
C279 N282 1.351 . S
C279 C284 1.501 . S
C280 C281 1.387 . S
C280 N283 1.341 . S
C281 C279 1.400 . S
C281 C280 1.387 . S
N282 Co273 2.022 . S
N282 C279 1.351 . S
N282 N283 1.365 . S
N283 C280 1.341 . S
N283 N282 1.365 . S
N283 H303 0.862 . S
C284 C279 1.501 . S
C284 H285 0.961 . S
C284 H286 0.961 . S
C284 H287 0.960 . S
H285 C284 0.961 . S
H286 C284 0.961 . S
H287 C284 0.960 . S
C288 N289 1.342 . S
C288 C292 1.401 . S
C288 C293 1.499 . S
N289 Co272 1.989 . S
N289 C288 1.342 . S
N289 N290 1.388 . S
N290 Co273 1.993 . S
N290 N289 1.388 . S
N290 C291 1.346 . S
C291 N290 1.346 . S
C291 C292 1.396 . S
C291 C301 1.510 . S
C292 C288 1.401 . S
C292 C291 1.396 . S
C293 C288 1.499 . S
C293 H294 0.959 . S
C293 H295 0.960 . S
C293 H296 0.961 . S
H294 C293 0.959 . S
H295 C293 0.960 . S
H296 C293 0.961 . S
O297 Co272 1.967 . S
O297 C305 1.258 . S
O298 Co273 1.941 . S
O298 C305 1.266 . S
H299 C301 0.959 . S
H300 C301 0.961 . S
C301 C291 1.510 . S
C301 H299 0.959 . S
C301 H300 0.961 . S
C301 H302 0.960 . S
H302 C301 0.960 . S
H303 N283 0.862 . S
O304 Co272 1.920 . S
O304 C277 1.289 . S
C305 O297 1.258 . S
C305 O298 1.266 . S
Co306 O309 1.970 . S
Co306 N323 1.989 . S
Co306 O331 1.967 . S
Co306 O338 1.920 . S
Co307 O310 1.966 . S
Co307 N316 2.022 . S
Co307 N324 1.993 . S
Co307 O332 1.941 . S
C308 O309 1.258 . S
C308 O310 1.263 . S
O309 Co306 1.970 . S
O309 C308 1.258 . S
O310 Co307 1.966 . S
O310 C308 1.263 . S
C311 O312 1.235 . S
C311 O338 1.289 . S
O312 C311 1.235 . S
C313 C315 1.400 . S
C313 N316 1.351 . S
C313 C318 1.501 . S
C314 C315 1.387 . S
C314 N317 1.341 . S
C315 C313 1.400 . S
C315 C314 1.387 . S
N316 Co307 2.022 . S
N316 C313 1.351 . S
N316 N317 1.365 . S
N317 C314 1.341 . S
N317 N316 1.365 . S
N317 H337 0.862 . S
C318 C313 1.501 . S
C318 H319 0.961 . S
C318 H320 0.961 . S
C318 H321 0.960 . S
H319 C318 0.961 . S
H320 C318 0.961 . S
H321 C318 0.960 . S
C322 N323 1.342 . S
C322 C326 1.401 . S
C322 C327 1.499 . S
N323 Co306 1.989 . S
N323 C322 1.342 . S
N323 N324 1.388 . S
N324 Co307 1.993 . S
N324 N323 1.388 . S
N324 C325 1.346 . S
C325 N324 1.346 . S
C325 C326 1.396 . S
C325 C335 1.510 . S
C326 C322 1.401 . S
C326 C325 1.396 . S
C327 C322 1.499 . S
C327 H328 0.959 . S
C327 H329 0.960 . S
C327 H330 0.961 . S
H328 C327 0.959 . S
H329 C327 0.960 . S
H330 C327 0.961 . S
O331 Co306 1.967 . S
O331 C339 1.258 . S
O332 Co307 1.941 . S
O332 C339 1.266 . S
H333 C335 0.959 . S
H334 C335 0.961 . S
C335 C325 1.510 . S
C335 H333 0.959 . S
C335 H334 0.961 . S
C335 H336 0.960 . S
H336 C335 0.960 . S
H337 N317 0.862 . S
O338 Co306 1.920 . S
O338 C311 1.289 . S
C339 O331 1.258 . S
C339 O332 1.266 . S
Co340 O343 1.970 . S
Co340 N357 1.989 . S
Co340 O365 1.967 . S
Co340 O372 1.920 . S
Co341 O344 1.966 . S
Co341 N350 2.022 . S
Co341 N358 1.993 . S
Co341 O366 1.941 . S
C342 O343 1.258 . S
C342 O344 1.263 . S
O343 Co340 1.970 . S
O343 C342 1.258 . S
O344 Co341 1.966 . S
O344 C342 1.263 . S
C345 O346 1.235 . S
C345 O372 1.289 . S
O346 C345 1.235 . S
C347 C349 1.400 . S
C347 N350 1.351 . S
C347 C352 1.501 . S
C348 C349 1.387 . S
C348 N351 1.341 . S
C349 C347 1.400 . S
C349 C348 1.387 . S
N350 Co341 2.022 . S
N350 C347 1.351 . S
N350 N351 1.365 . S
N351 C348 1.341 . S
N351 N350 1.365 . S
N351 H371 0.862 . S
C352 C347 1.501 . S
C352 H353 0.961 . S
C352 H354 0.961 . S
C352 H355 0.960 . S
H353 C352 0.961 . S
H354 C352 0.961 . S
H355 C352 0.960 . S
C356 N357 1.342 . S
C356 C360 1.401 . S
C356 C361 1.499 . S
N357 Co340 1.989 . S
N357 C356 1.342 . S
N357 N358 1.388 . S
N358 Co341 1.993 . S
N358 N357 1.388 . S
N358 C359 1.346 . S
C359 N358 1.346 . S
C359 C360 1.396 . S
C359 C369 1.510 . S
C360 C356 1.401 . S
C360 C359 1.396 . S
C361 C356 1.499 . S
C361 H362 0.959 . S
C361 H363 0.960 . S
C361 H364 0.961 . S
H362 C361 0.959 . S
H363 C361 0.960 . S
H364 C361 0.961 . S
O365 Co340 1.967 . S
O365 C373 1.258 . S
O366 Co341 1.941 . S
O366 C373 1.266 . S
H367 C369 0.959 . S
H368 C369 0.961 . S
C369 C359 1.510 . S
C369 H367 0.959 . S
C369 H368 0.961 . S
C369 H370 0.960 . S
H370 C369 0.960 . S
H371 N351 0.862 . S
O372 Co340 1.920 . S
O372 C345 1.289 . S
C373 O365 1.258 . S
C373 O366 1.266 . S
Co374 O377 1.970 . S
Co374 N391 1.989 . S
Co374 O399 1.967 . S
Co374 O406 1.920 . S
Co375 O378 1.966 . S
Co375 N384 2.022 . S
Co375 N392 1.993 . S
Co375 O400 1.941 . S
C376 O377 1.258 . S
C376 O378 1.263 . S
O377 Co374 1.970 . S
O377 C376 1.258 . S
O378 Co375 1.966 . S
O378 C376 1.263 . S
C379 O380 1.235 . S
C379 O406 1.289 . S
O380 C379 1.235 . S
C381 C383 1.400 . S
C381 N384 1.351 . S
C381 C386 1.501 . S
C382 C383 1.387 . S
C382 N385 1.341 . S
C383 C381 1.400 . S
C383 C382 1.387 . S
N384 Co375 2.022 . S
N384 C381 1.351 . S
N384 N385 1.365 . S
N385 C382 1.341 . S
N385 N384 1.365 . S
N385 H405 0.862 . S
C386 C381 1.501 . S
C386 H387 0.961 . S
C386 H388 0.961 . S
C386 H389 0.960 . S
H387 C386 0.961 . S
H388 C386 0.961 . S
H389 C386 0.960 . S
C390 N391 1.342 . S
C390 C394 1.401 . S
C390 C395 1.499 . S
N391 Co374 1.989 . S
N391 C390 1.342 . S
N391 N392 1.388 . S
N392 Co375 1.993 . S
N392 N391 1.388 . S
N392 C393 1.346 . S
C393 N392 1.346 . S
C393 C394 1.396 . S
C393 C403 1.510 . S
C394 C390 1.401 . S
C394 C393 1.396 . S
C395 C390 1.499 . S
C395 H396 0.959 . S
C395 H397 0.960 . S
C395 H398 0.961 . S
H396 C395 0.959 . S
H397 C395 0.960 . S
H398 C395 0.961 . S
O399 Co374 1.967 . S
O399 C407 1.258 . S
O400 Co375 1.941 . S
O400 C407 1.266 . S
H401 C403 0.959 . S
H402 C403 0.961 . S
C403 C393 1.510 . S
C403 H401 0.959 . S
C403 H402 0.961 . S
C403 H404 0.960 . S
H404 C403 0.960 . S
H405 N385 0.862 . S
O406 Co374 1.920 . S
O406 C379 1.289 . S
C407 O399 1.258 . S
C407 O400 1.266 . S
C408 C409 1.369 . S
C408 C410 1.419 . S
C408 H412 0.930 . S
C409 C408 1.369 . S
C409 C418 1.429 . S
C410 C408 1.419 . S
C410 C411 1.363 . S
C410 H413 0.929 . S
C411 C410 1.363 . S
C411 C417 1.428 . S
H412 C408 0.930 . S
H413 C410 0.929 . S
S414 N415 1.613 . S
S414 N416 1.610 . S
N415 S414 1.613 . S
N415 C418 1.350 . S
N416 S414 1.610 . S
N416 C417 1.351 . S
C417 C411 1.428 . S
C417 N416 1.351 . S
C417 C418 1.434 . S
C418 C409 1.429 . S
C418 N415 1.350 . S
C418 C417 1.434 . S
C419 C420 1.369 . S
C419 C421 1.419 . S
C419 H423 0.930 . S
C420 C419 1.369 . S
C420 C429 1.429 . S
C421 C419 1.419 . S
C421 C422 1.363 . S
C421 H424 0.929 . S
C422 C421 1.363 . S
C422 C428 1.428 . S
H423 C419 0.930 . S
H424 C421 0.929 . S
S425 N426 1.613 . S
S425 N427 1.610 . S
N426 S425 1.613 . S
N426 C429 1.350 . S
N427 S425 1.610 . S
N427 C428 1.351 . S
C428 C422 1.428 . S
C428 N427 1.351 . S
C428 C429 1.434 . S
C429 C420 1.429 . S
C429 N426 1.350 . S
C429 C428 1.434 . S
C430 C431 1.369 . S
C430 C432 1.419 . S
C430 H434 0.930 . S
C431 C430 1.369 . S
C431 C440 1.429 . S
C432 C430 1.419 . S
C432 C433 1.363 . S
C432 H435 0.929 . S
C433 C432 1.363 . S
C433 C439 1.428 . S
H434 C430 0.930 . S
H435 C432 0.929 . S
S436 N437 1.613 . S
S436 N438 1.610 . S
N437 S436 1.613 . S
N437 C440 1.350 . S
N438 S436 1.610 . S
N438 C439 1.351 . S
C439 C433 1.428 . S
C439 N438 1.351 . S
C439 C440 1.434 . S
C440 C431 1.429 . S
C440 N437 1.350 . S
C440 C439 1.434 . S
C441 C442 1.369 . S
C441 C443 1.419 . S
C441 H445 0.930 . S
C442 C441 1.369 . S
C442 C451 1.429 . S
C443 C441 1.419 . S
C443 C444 1.363 . S
C443 H446 0.929 . S
C444 C443 1.363 . S
C444 C450 1.428 . S
H445 C441 0.930 . S
H446 C443 0.929 . S
S447 N448 1.613 . S
S447 N449 1.610 . S
N448 S447 1.613 . S
N448 C451 1.350 . S
N449 S447 1.610 . S
N449 C450 1.351 . S
C450 C444 1.428 . S
C450 N449 1.351 . S
C450 C451 1.434 . S
C451 C442 1.429 . S
C451 N448 1.350 . S
C451 C450 1.434 . S
C452 C453 1.369 . S
C452 C454 1.419 . S
C452 H456 0.930 . S
C453 C452 1.369 . S
C453 C462 1.429 . S
C454 C452 1.419 . S
C454 C455 1.363 . S
C454 H457 0.929 . S
C455 C454 1.363 . S
C455 C461 1.428 . S
H456 C452 0.930 . S
H457 C454 0.929 . S
S458 N459 1.613 . S
S458 N460 1.610 . S
N459 S458 1.613 . S
N459 C462 1.350 . S
N460 S458 1.610 . S
N460 C461 1.351 . S
C461 C455 1.428 . S
C461 N460 1.351 . S
C461 C462 1.434 . S
C462 C453 1.429 . S
C462 N459 1.350 . S
C462 C461 1.434 . S
C463 C464 1.369 . S
C463 C465 1.419 . S
C463 H467 0.930 . S
C464 C463 1.369 . S
C464 C473 1.429 . S
C465 C463 1.419 . S
C465 C466 1.363 . S
C465 H468 0.929 . S
C466 C465 1.363 . S
C466 C472 1.428 . S
H467 C463 0.930 . S
H468 C465 0.929 . S
S469 N470 1.613 . S
S469 N471 1.610 . S
N470 S469 1.613 . S
N470 C473 1.350 . S
N471 S469 1.610 . S
N471 C472 1.351 . S
C472 C466 1.428 . S
C472 N471 1.351 . S
C472 C473 1.434 . S
C473 C464 1.429 . S
C473 N470 1.350 . S
C473 C472 1.434 . S
C474 C475 1.369 . S
C474 C476 1.419 . S
C474 H478 0.930 . S
C475 C474 1.369 . S
C475 C484 1.429 . S
C476 C474 1.419 . S
C476 C477 1.363 . S
C476 H479 0.929 . S
C477 C476 1.363 . S
C477 C483 1.428 . S
H478 C474 0.930 . S
H479 C476 0.929 . S
S480 N481 1.613 . S
S480 N482 1.610 . S
N481 S480 1.613 . S
N481 C484 1.350 . S
N482 S480 1.610 . S
N482 C483 1.351 . S
C483 C477 1.428 . S
C483 N482 1.351 . S
C483 C484 1.434 . S
C484 C475 1.429 . S
C484 N481 1.350 . S
C484 C483 1.434 . S
C485 C486 1.369 . S
C485 C487 1.419 . S
C485 H489 0.930 . S
C486 C485 1.369 . S
C486 C495 1.429 . S
C487 C485 1.419 . S
C487 C488 1.363 . S
C487 H490 0.929 . S
C488 C487 1.363 . S
C488 C494 1.428 . S
H489 C485 0.930 . S
H490 C487 0.929 . S
S491 N492 1.613 . S
S491 N493 1.610 . S
N492 S491 1.613 . S
N492 C495 1.350 . S
N493 S491 1.610 . S
N493 C494 1.351 . S
C494 C488 1.428 . S
C494 N493 1.351 . S
C494 C495 1.434 . S
C495 C486 1.429 . S
C495 N492 1.350 . S
C495 C494 1.434 . S
C496 C497 1.369 . S
C496 C498 1.419 . S
C496 H500 0.930 . S
C497 C496 1.369 . S
C497 C506 1.429 . S
C498 C496 1.419 . S
C498 C499 1.363 . S
C498 H501 0.929 . S
C499 C498 1.363 . S
C499 C505 1.428 . S
H500 C496 0.930 . S
H501 C498 0.929 . S
S502 N503 1.613 . S
S502 N504 1.610 . S
N503 S502 1.613 . S
N503 C506 1.350 . S
N504 S502 1.610 . S
N504 C505 1.351 . S
C505 C499 1.428 . S
C505 N504 1.351 . S
C505 C506 1.434 . S
C506 C497 1.429 . S
C506 N503 1.350 . S
C506 C505 1.434 . S
C507 C508 1.369 . S
C507 C509 1.419 . S
C507 H511 0.930 . S
C508 C507 1.369 . S
C508 C517 1.429 . S
C509 C507 1.419 . S
C509 C510 1.363 . S
C509 H512 0.929 . S
C510 C509 1.363 . S
C510 C516 1.428 . S
H511 C507 0.930 . S
H512 C509 0.929 . S
S513 N514 1.613 . S
S513 N515 1.610 . S
N514 S513 1.613 . S
N514 C517 1.350 . S
N515 S513 1.610 . S
N515 C516 1.351 . S
C516 C510 1.428 . S
C516 N515 1.351 . S
C516 C517 1.434 . S
C517 C508 1.429 . S
C517 N514 1.350 . S
C517 C516 1.434 . S
C518 C519 1.369 . S
C518 C520 1.419 . S
C518 H522 0.930 . S
C519 C518 1.369 . S
C519 C528 1.429 . S
C520 C518 1.419 . S
C520 C521 1.363 . S
C520 H523 0.929 . S
C521 C520 1.363 . S
C521 C527 1.428 . S
H522 C518 0.930 . S
H523 C520 0.929 . S
S524 N525 1.613 . S
S524 N526 1.610 . S
N525 S524 1.613 . S
N525 C528 1.350 . S
N526 S524 1.610 . S
N526 C527 1.351 . S
C527 C521 1.428 . S
C527 N526 1.351 . S
C527 C528 1.434 . S
C528 C519 1.429 . S
C528 N525 1.350 . S
C528 C527 1.434 . S
C529 C530 1.369 . S
C529 C531 1.419 . S
C529 H533 0.930 . S
C530 C529 1.369 . S
C530 C539 1.429 . S
C531 C529 1.419 . S
C531 C532 1.363 . S
C531 H534 0.929 . S
C532 C531 1.363 . S
C532 C538 1.428 . S
H533 C529 0.930 . S
H534 C531 0.929 . S
S535 N536 1.613 . S
S535 N537 1.610 . S
N536 S535 1.613 . S
N536 C539 1.350 . S
N537 S535 1.610 . S
N537 C538 1.351 . S
C538 C532 1.428 . S
C538 N537 1.351 . S
C538 C539 1.434 . S
C539 C530 1.429 . S
C539 N536 1.350 . S
C539 C538 1.434 . S
C540 C541 1.369 . S
C540 C542 1.419 . S
C540 H544 0.930 . S
C541 C540 1.369 . S
C541 C550 1.429 . S
C542 C540 1.419 . S
C542 C543 1.363 . S
C542 H545 0.929 . S
C543 C542 1.363 . S
C543 C549 1.428 . S
H544 C540 0.930 . S
H545 C542 0.929 . S
S546 N547 1.613 . S
S546 N548 1.610 . S
N547 S546 1.613 . S
N547 C550 1.350 . S
N548 S546 1.610 . S
N548 C549 1.351 . S
C549 C543 1.428 . S
C549 N548 1.351 . S
C549 C550 1.434 . S
C550 C541 1.429 . S
C550 N547 1.350 . S
C550 C549 1.434 . S
C551 C552 1.369 . S
C551 C553 1.419 . S
C551 H555 0.930 . S
C552 C551 1.369 . S
C552 C561 1.429 . S
C553 C551 1.419 . S
C553 C554 1.363 . S
C553 H556 0.929 . S
C554 C553 1.363 . S
C554 C560 1.428 . S
H555 C551 0.930 . S
H556 C553 0.929 . S
S557 N558 1.613 . S
S557 N559 1.610 . S
N558 S557 1.613 . S
N558 C561 1.350 . S
N559 S557 1.610 . S
N559 C560 1.351 . S
C560 C554 1.428 . S
C560 N559 1.351 . S
C560 C561 1.434 . S
C561 C552 1.429 . S
C561 N558 1.350 . S
C561 C560 1.434 . S
C562 C563 1.369 . S
C562 C564 1.419 . S
C562 H566 0.930 . S
C563 C562 1.369 . S
C563 C572 1.429 . S
C564 C562 1.419 . S
C564 C565 1.363 . S
C564 H567 0.929 . S
C565 C564 1.363 . S
C565 C571 1.428 . S
H566 C562 0.930 . S
H567 C564 0.929 . S
S568 N569 1.613 . S
S568 N570 1.610 . S
N569 S568 1.613 . S
N569 C572 1.350 . S
N570 S568 1.610 . S
N570 C571 1.351 . S
C571 C565 1.428 . S
C571 N570 1.351 . S
C571 C572 1.434 . S
C572 C563 1.429 . S
C572 N569 1.350 . S
C572 C571 1.434 . S
C573 C574 1.369 . S
C573 C575 1.419 . S
C573 H577 0.930 . S
C574 C573 1.369 . S
C574 C583 1.429 . S
C575 C573 1.419 . S
C575 C576 1.363 . S
C575 H578 0.929 . S
C576 C575 1.363 . S
C576 C582 1.428 . S
H577 C573 0.930 . S
H578 C575 0.929 . S
S579 N580 1.613 . S
S579 N581 1.610 . S
N580 S579 1.613 . S
N580 C583 1.350 . S
N581 S579 1.610 . S
N581 C582 1.351 . S
C582 C576 1.428 . S
C582 N581 1.351 . S
C582 C583 1.434 . S
C583 C574 1.429 . S
C583 N580 1.350 . S
C583 C582 1.434 . S
C584 C585 1.369 . S
C584 C586 1.419 . S
C584 H588 0.930 . S
C585 C584 1.369 . S
C585 C594 1.429 . S
C586 C584 1.419 . S
C586 C587 1.363 . S
C586 H589 0.929 . S
C587 C586 1.363 . S
C587 C593 1.428 . S
H588 C584 0.930 . S
H589 C586 0.929 . S
S590 N591 1.613 . S
S590 N592 1.610 . S
N591 S590 1.613 . S
N591 C594 1.350 . S
N592 S590 1.610 . S
N592 C593 1.351 . S
C593 C587 1.428 . S
C593 N592 1.351 . S
C593 C594 1.434 . S
C594 C585 1.429 . S
C594 N591 1.350 . S
C594 C593 1.434 . S
C595 C596 1.369 . S
C595 C597 1.419 . S
C595 H599 0.930 . S
C596 C595 1.369 . S
C596 C605 1.429 . S
C597 C595 1.419 . S
C597 C598 1.363 . S
C597 H600 0.929 . S
C598 C597 1.363 . S
C598 C604 1.428 . S
H599 C595 0.930 . S
H600 C597 0.929 . S
S601 N602 1.613 . S
S601 N603 1.610 . S
N602 S601 1.613 . S
N602 C605 1.350 . S
N603 S601 1.610 . S
N603 C604 1.351 . S
C604 C598 1.428 . S
C604 N603 1.351 . S
C604 C605 1.434 . S
C605 C596 1.429 . S
C605 N602 1.350 . S
C605 C604 1.434 . S
C606 C607 1.369 1_554 S
C606 C608 1.419 1_565 S
C606 H610 0.930 . S
C607 C606 1.369 1_556 S
C607 C616 1.448 . S
C608 C606 1.419 1_545 S
C608 C609 1.363 . S
C608 H611 0.929 . S
C609 C608 1.363 . S
C609 C615 1.428 1_554 S
H610 C606 0.930 . S
H611 C608 0.929 . S
S612 N613 1.613 . S
S612 N614 1.610 . S
N613 S612 1.613 . S
N613 C616 1.342 1_545 S
N614 S612 1.610 . S
N614 C615 1.351 . S
C615 C609 1.428 1_556 S
C615 N614 1.351 . S
C615 C616 1.420 1_545 S
C616 C607 1.448 . S
C616 N613 1.342 1_565 S
C616 C615 1.420 1_565 S
C617 C618 1.369 . S
C617 C619 1.419 . S
C617 H621 0.930 . S
C618 C617 1.369 . S
C618 C627 1.429 . S
C619 C617 1.419 . S
C619 C620 1.363 . S
C619 H622 0.929 . S
C620 C619 1.363 . S
C620 C626 1.428 . S
H621 C617 0.930 . S
H622 C619 0.929 . S
S623 N624 1.613 . S
S623 N625 1.610 . S
N624 S623 1.613 . S
N624 C627 1.350 . S
N625 S623 1.610 . S
N625 C626 1.351 . S
C626 C620 1.428 . S
C626 N625 1.351 . S
C626 C627 1.434 . S
C627 C618 1.429 . S
C627 N624 1.350 . S
C627 C626 1.434 . S
C628 C629 1.369 1_455 S
C628 C630 1.419 . S
C628 H632 0.930 . S
C629 C628 1.369 1_655 S
C629 C638 1.429 1_554 S
C630 C628 1.419 . S
C630 C631 1.363 1_554 S
C630 H633 0.929 . S
C631 C630 1.363 1_556 S
C631 C637 1.428 1_455 S
H632 C628 0.930 . S
H633 C630 0.929 . S
S634 N635 1.613 . S
S634 N636 1.610 . S
N635 S634 1.613 . S
N635 C638 1.350 . S
N636 S634 1.610 . S
N636 C637 1.351 . S
C637 C631 1.428 1_655 S
C637 N636 1.351 . S
C637 C638 1.434 . S
C638 C629 1.429 1_556 S
C638 N635 1.350 . S
C638 C637 1.434 . S
C639 C640 1.369 . S
C639 C641 1.419 1_565 S
C639 H643 0.930 . S
C640 C639 1.369 . S
C640 C649 1.429 . S
C641 C639 1.419 1_545 S
C641 C642 1.363 . S
C641 H644 0.929 . S
C642 C641 1.363 . S
C642 C648 1.428 . S
H643 C639 0.930 . S
H644 C641 0.929 . S
S645 N646 1.613 . S
S645 N647 1.610 1_565 S
N646 S645 1.613 . S
N646 C649 1.350 . S
N647 S645 1.610 1_545 S
N647 C648 1.351 . S
C648 C642 1.428 . S
C648 N647 1.351 . S
C648 C649 1.434 1_545 S
C649 C640 1.429 . S
C649 N646 1.350 . S
C649 C648 1.434 1_565 S
C650 C651 1.380 . S
C650 C652 1.408 1_554 S
C650 H654 0.930 . S
C651 C650 1.380 . S
C651 C660 1.429 . S
C652 C650 1.408 1_556 S
C652 C653 1.363 . S
C652 H655 0.929 . S
C653 C652 1.363 . S
C653 C659 1.429 . S
H654 C650 0.930 . S
H655 C652 0.929 . S
S656 N657 1.613 . S
S656 N658 1.610 . S
N657 S656 1.613 . S
N657 C660 1.350 . S
N658 S656 1.610 . S
N658 C659 1.351 1_554 S
C659 C653 1.429 . S
C659 N658 1.351 1_556 S
C659 C660 1.433 1_556 S
C660 C651 1.429 . S
C660 N657 1.350 . S
C660 C659 1.433 1_554 S
C661 C662 1.369 . S
C661 C663 1.419 1_655 S
C661 H665 0.930 . S
C662 C661 1.369 . S
C662 C671 1.429 1_655 S
C663 C661 1.419 1_455 S
C663 C664 1.363 . S
C663 H666 0.929 1_455 S
C664 C663 1.363 . S
C664 C670 1.428 . S
H665 C661 0.930 . S
H666 C663 0.929 1_655 S
S667 N668 1.613 . S
S667 N669 1.610 . S
N668 S667 1.613 . S
N668 C671 1.350 . S
N669 S667 1.610 . S
N669 C670 1.351 . S
C670 C664 1.428 . S
C670 N669 1.351 . S
C670 C671 1.434 . S
C671 C662 1.429 1_455 S
C671 N668 1.350 . S
C671 C670 1.434 . S
C672 C673 1.369 . S
C672 C674 1.419 1_544 S
C672 H676 0.930 . S
C673 C672 1.369 . S
C673 C682 1.429 . S
C674 C672 1.419 1_566 S
C674 C675 1.363 . S
C674 H677 0.929 . S
C675 C674 1.363 . S
C675 C681 1.428 . S
H676 C672 0.930 . S
H677 C674 0.929 . S
S678 N679 1.613 1_565 S
S678 N680 1.610 1_554 S
N679 S678 1.613 1_545 S
N679 C682 1.350 . S
N680 S678 1.610 1_556 S
N680 C681 1.351 . S
C681 C675 1.428 . S
C681 N680 1.351 . S
C681 C682 1.434 1_566 S
C682 C673 1.429 . S
C682 N679 1.350 . S
C682 C681 1.434 1_544 S
C683 C684 1.369 . S
C683 C685 1.419 . S
C683 H687 0.930 . S
C684 C683 1.369 . S
C684 C693 1.429 . S
C685 C683 1.419 . S
C685 C686 1.363 . S
C685 H688 0.929 . S
C686 C685 1.363 . S
C686 C692 1.428 . S
H687 C683 0.930 . S
H688 C685 0.929 . S
S689 N690 1.613 . S
S689 N691 1.610 . S
N690 S689 1.613 . S
N690 C693 1.350 . S
N691 S689 1.610 . S
N691 C692 1.351 . S
C692 C686 1.428 . S
C692 N691 1.351 . S
C692 C693 1.434 . S
C693 C684 1.429 . S
C693 N690 1.350 . S
C693 C692 1.434 . S
C694 C695 1.369 1_556 S
C694 C696 1.419 1_655 S
C694 H698 0.930 . S
C695 C694 1.369 1_554 S
C695 C704 1.429 . S
C696 C694 1.419 1_455 S
C696 C697 1.363 . S
C696 H699 0.929 . S
C697 C696 1.363 . S
C697 C703 1.428 1_556 S
H698 C694 0.930 . S
H699 C696 0.929 . S
S700 N701 1.613 . S
S700 N702 1.610 . S
N701 S700 1.613 . S
N701 C704 1.350 1_455 S
N702 S700 1.610 . S
N702 C703 1.351 . S
C703 C697 1.428 1_554 S
C703 N702 1.351 . S
C703 C704 1.434 1_455 S
C704 C695 1.429 . S
C704 N701 1.350 1_655 S
C704 C703 1.434 1_655 S
C705 C706 1.369 . S
C705 C707 1.419 . S
C705 H709 0.930 . S
C706 C705 1.369 . S
C706 C715 1.429 1_565 S
C707 C705 1.419 . S
C707 C708 1.363 1_565 S
C707 H710 0.929 . S
C708 C707 1.363 1_545 S
C708 C714 1.428 . S
H709 C705 0.930 . S
H710 C707 0.929 . S
S711 N712 1.613 . S
S711 N713 1.610 . S
N712 S711 1.613 . S
N712 C715 1.350 . S
N713 S711 1.610 . S
N713 C714 1.351 . S
C714 C708 1.428 . S
C714 N713 1.351 . S
C714 C715 1.434 . S
C715 C706 1.429 1_545 S
C715 N712 1.350 . S
C715 C714 1.434 . S
C716 C717 1.369 . S
C716 C718 1.419 1_556 S
C716 H720 0.930 . S
C717 C716 1.369 . S
C717 C726 1.429 . S
C718 C716 1.419 1_554 S
C718 C719 1.363 . S
C718 H721 0.929 . S
C719 C718 1.363 . S
C719 C725 1.428 . S
H720 C716 0.930 . S
H721 C718 0.929 . S
S722 N723 1.613 . S
S722 N724 1.610 1_556 S
N723 S722 1.613 . S
N723 C726 1.350 . S
N724 S722 1.610 1_554 S
N724 C725 1.351 . S
C725 C719 1.428 . S
C725 N724 1.351 . S
C725 C726 1.434 1_554 S
C726 C717 1.429 . S
C726 N723 1.350 . S
C726 C725 1.434 1_556 S
C727 C728 1.369 . S
C727 C729 1.419 1_455 S
C727 H731 0.930 . S
C728 C727 1.369 . S
C728 C737 1.429 . S
C729 C727 1.419 1_655 S
C729 C730 1.363 . S
C729 H732 0.929 . S
C730 C729 1.363 . S
C730 C736 1.428 . S
H731 C727 0.930 . S
H732 C729 0.929 . S
S733 N734 1.613 1_655 S
S733 N735 1.610 . S
N734 S733 1.613 1_455 S
N734 C737 1.350 . S
N735 S733 1.610 . S
N735 C736 1.351 . S
C736 C730 1.428 . S
C736 N735 1.351 . S
C736 C737 1.434 1_655 S
C737 C728 1.429 . S
C737 N734 1.350 . S
C737 C736 1.434 1_455 S
C409 C73 1.573 . S
C411 C2 1.725 . S
C420 C36 1.725 . S
C422 C107 1.577 . S
C431 C70 1.724 . S
C433 C141 1.575 . S
C442 C104 1.724 . S
C444 C175 1.579 . S
C453 C138 1.726 . S
C455 C5 1.576 . S
C464 C39 1.574 . S
C466 C172 1.725 . S
C475 C206 1.724 . S
C477 C345 1.577 . S
C486 C240 1.727 . S
C488 C379 1.569 . S
C497 C209 1.575 . S
C499 C274 1.725 . S
C508 C243 1.575 . S
C510 C308 1.725 . S
C519 C277 1.578 . S
C521 C342 1.726 . S
C530 C311 1.569 . S
C532 C376 1.726 . S
C541 C305 1.316 . S
C543 C33 1.310 . S
C552 C67 1.314 . S
C554 C339 1.309 . S
C563 C373 1.308 . S
C565 C101 1.313 . S
C574 C407 1.315 . S
C576 C135 1.309 . S
C585 C169 1.312 . S
C587 C237 1.310 . S
C596 C271 1.314 . S
C598 C203 1.309 . S
C607 C247 1.509 . S
C609 C9 1.511 . S
C618 C43 1.511 . S
C620 C281 1.512 . S
C629 C77 1.511 . S
C631 C315 1.509 . S
C640 C111 1.512 . S
C642 C349 1.510 . S
C651 C145 1.511 . S
C653 C383 1.512 . S
C662 C213 1.509 . S
C664 C179 1.511 . S
C673 C88 1.883 . S
C675 C394 1.882 . S
C684 C224 1.884 . S
C686 C122 1.883 . S
C695 C156 1.885 . S
C697 C258 1.884 . S
C706 C190 1.884 . S
C708 C292 1.883 . S
C717 C326 1.884 . S
C719 C20 1.884 . S
C728 C54 1.883 . S
C730 C360 1.882 . S
