# Generated by pormake.
# Topology uns, (4)-cn, num edge types: 1
# Building blocks:
#     Node 0, Type 0, BuildingBlock: NAWXER_clean_sbu_0, # of connection points: 4
#     Node 1, Type 0, BuildingBlock: NAWXER_clean_sbu_0, # of connection points: 4
#     Node 2, Type 0, BuildingBlock: NAWXER_clean_sbu_0, # of connection points: 4
#     Node 3, Type 0, BuildingBlock: NAWXER_clean_sbu_0, # of connection points: 4
#     Node 4, Type 0, BuildingBlock: NAWXER_clean_sbu_0, # of connection points: 4
#     Node 5, Type 0, BuildingBlock: NAWXER_clean_sbu_0, # of connection points: 4
#     Node 6, Type 0, BuildingBlock: NAWXER_clean_sbu_0, # of connection points: 4
#     Node 7, Type 0, BuildingBlock: NAWXER_clean_sbu_0, # of connection points: 4
#     Node 8, Type 0, BuildingBlock: NAWXER_clean_sbu_0, # of connection points: 4
#     Node 9, Type 0, BuildingBlock: NAWXER_clean_sbu_0, # of connection points: 4
#     Node 10, Type 0, BuildingBlock: NAWXER_clean_sbu_0, # of connection points: 4
#     Node 11, Type 0, BuildingBlock: NAWXER_clean_sbu_0, # of connection points: 4
#     Node 12, Type 0, BuildingBlock: NAWXER_clean_sbu_0, # of connection points: 4
#     Node 13, Type 0, BuildingBlock: NAWXER_clean_sbu_0, # of connection points: 4
#     Node 14, Type 0, BuildingBlock: NAWXER_clean_sbu_0, # of connection points: 4
#     Node 15, Type 0, BuildingBlock: NAWXER_clean_sbu_0, # of connection points: 4
#     Node 16, Type 0, BuildingBlock: NAWXER_clean_sbu_0, # of connection points: 4
#     Node 17, Type 0, BuildingBlock: NAWXER_clean_sbu_0, # of connection points: 4
#     Node 18, Type 0, BuildingBlock: NAWXER_clean_sbu_0, # of connection points: 4
#     Node 19, Type 0, BuildingBlock: NAWXER_clean_sbu_0, # of connection points: 4
#     Node 20, Type 0, BuildingBlock: NAWXER_clean_sbu_0, # of connection points: 4
#     Node 21, Type 0, BuildingBlock: NAWXER_clean_sbu_0, # of connection points: 4
#     Node 22, Type 0, BuildingBlock: NAWXER_clean_sbu_0, # of connection points: 4
#     Node 23, Type 0, BuildingBlock: NAWXER_clean_sbu_0, # of connection points: 4
#     Node 24, Type 0, BuildingBlock: NAWXER_clean_sbu_0, # of connection points: 4
#     Node 25, Type 0, BuildingBlock: NAWXER_clean_sbu_0, # of connection points: 4
#     Node 26, Type 0, BuildingBlock: NAWXER_clean_sbu_0, # of connection points: 4
#     Node 27, Type 0, BuildingBlock: NAWXER_clean_sbu_0, # of connection points: 4
#     Node 28, Type 0, BuildingBlock: NAWXER_clean_sbu_0, # of connection points: 4
#     Node 29, Type 0, BuildingBlock: NAWXER_clean_sbu_0, # of connection points: 4
#     Node 30, Type 0, BuildingBlock: NAWXER_clean_sbu_0, # of connection points: 4
#     Node 31, Type 0, BuildingBlock: NAWXER_clean_sbu_0, # of connection points: 4
#     Node 32, Type 0, BuildingBlock: NAWXER_clean_sbu_0, # of connection points: 4
#     Node 33, Type 0, BuildingBlock: NAWXER_clean_sbu_0, # of connection points: 4
#     Node 34, Type 0, BuildingBlock: NAWXER_clean_sbu_0, # of connection points: 4
#     Node 35, Type 0, BuildingBlock: NAWXER_clean_sbu_0, # of connection points: 4
#     Edge 36, Type (0, 0), BuildingBlock: OJICUG_clean_linker_0, # of connection points: 2
#     Edge 37, Type (0, 0), BuildingBlock: OJICUG_clean_linker_0, # of connection points: 2
#     Edge 38, Type (0, 0), BuildingBlock: OJICUG_clean_linker_0, # of connection points: 2
#     Edge 39, Type (0, 0), BuildingBlock: OJICUG_clean_linker_0, # of connection points: 2
#     Edge 40, Type (0, 0), BuildingBlock: OJICUG_clean_linker_0, # of connection points: 2
#     Edge 41, Type (0, 0), BuildingBlock: OJICUG_clean_linker_0, # of connection points: 2
#     Edge 42, Type (0, 0), BuildingBlock: OJICUG_clean_linker_0, # of connection points: 2
#     Edge 43, Type (0, 0), BuildingBlock: OJICUG_clean_linker_0, # of connection points: 2
#     Edge 44, Type (0, 0), BuildingBlock: OJICUG_clean_linker_0, # of connection points: 2
#     Edge 45, Type (0, 0), BuildingBlock: OJICUG_clean_linker_0, # of connection points: 2
#     Edge 46, Type (0, 0), BuildingBlock: OJICUG_clean_linker_0, # of connection points: 2
#     Edge 47, Type (0, 0), BuildingBlock: OJICUG_clean_linker_0, # of connection points: 2
#     Edge 48, Type (0, 0), BuildingBlock: OJICUG_clean_linker_0, # of connection points: 2
#     Edge 49, Type (0, 0), BuildingBlock: OJICUG_clean_linker_0, # of connection points: 2
#     Edge 50, Type (0, 0), BuildingBlock: OJICUG_clean_linker_0, # of connection points: 2
#     Edge 51, Type (0, 0), BuildingBlock: OJICUG_clean_linker_0, # of connection points: 2
#     Edge 52, Type (0, 0), BuildingBlock: OJICUG_clean_linker_0, # of connection points: 2
#     Edge 53, Type (0, 0), BuildingBlock: OJICUG_clean_linker_0, # of connection points: 2
#     Edge 54, Type (0, 0), BuildingBlock: OJICUG_clean_linker_0, # of connection points: 2
#     Edge 55, Type (0, 0), BuildingBlock: OJICUG_clean_linker_0, # of connection points: 2
#     Edge 56, Type (0, 0), BuildingBlock: OJICUG_clean_linker_0, # of connection points: 2
#     Edge 57, Type (0, 0), BuildingBlock: OJICUG_clean_linker_0, # of connection points: 2
#     Edge 58, Type (0, 0), BuildingBlock: OJICUG_clean_linker_0, # of connection points: 2
#     Edge 59, Type (0, 0), BuildingBlock: OJICUG_clean_linker_0, # of connection points: 2
#     Edge 60, Type (0, 0), BuildingBlock: OJICUG_clean_linker_0, # of connection points: 2
#     Edge 61, Type (0, 0), BuildingBlock: OJICUG_clean_linker_0, # of connection points: 2
#     Edge 62, Type (0, 0), BuildingBlock: OJICUG_clean_linker_0, # of connection points: 2
#     Edge 63, Type (0, 0), BuildingBlock: OJICUG_clean_linker_0, # of connection points: 2
#     Edge 64, Type (0, 0), BuildingBlock: OJICUG_clean_linker_0, # of connection points: 2
#     Edge 65, Type (0, 0), BuildingBlock: OJICUG_clean_linker_0, # of connection points: 2
#     Edge 66, Type (0, 0), BuildingBlock: OJICUG_clean_linker_0, # of connection points: 2
#     Edge 67, Type (0, 0), BuildingBlock: OJICUG_clean_linker_0, # of connection points: 2
#     Edge 68, Type (0, 0), BuildingBlock: OJICUG_clean_linker_0, # of connection points: 2
#     Edge 69, Type (0, 0), BuildingBlock: OJICUG_clean_linker_0, # of connection points: 2
#     Edge 70, Type (0, 0), BuildingBlock: OJICUG_clean_linker_0, # of connection points: 2
#     Edge 71, Type (0, 0), BuildingBlock: OJICUG_clean_linker_0, # of connection points: 2
#     Edge 72, Type (0, 0), BuildingBlock: OJICUG_clean_linker_0, # of connection points: 2
#     Edge 73, Type (0, 0), BuildingBlock: OJICUG_clean_linker_0, # of connection points: 2
#     Edge 74, Type (0, 0), BuildingBlock: OJICUG_clean_linker_0, # of connection points: 2
#     Edge 75, Type (0, 0), BuildingBlock: OJICUG_clean_linker_0, # of connection points: 2
#     Edge 76, Type (0, 0), BuildingBlock: OJICUG_clean_linker_0, # of connection points: 2
#     Edge 77, Type (0, 0), BuildingBlock: OJICUG_clean_linker_0, # of connection points: 2
#     Edge 78, Type (0, 0), BuildingBlock: OJICUG_clean_linker_0, # of connection points: 2
#     Edge 79, Type (0, 0), BuildingBlock: OJICUG_clean_linker_0, # of connection points: 2
#     Edge 80, Type (0, 0), BuildingBlock: OJICUG_clean_linker_0, # of connection points: 2
#     Edge 81, Type (0, 0), BuildingBlock: OJICUG_clean_linker_0, # of connection points: 2
#     Edge 82, Type (0, 0), BuildingBlock: OJICUG_clean_linker_0, # of connection points: 2
#     Edge 83, Type (0, 0), BuildingBlock: OJICUG_clean_linker_0, # of connection points: 2
#     Edge 84, Type (0, 0), BuildingBlock: OJICUG_clean_linker_0, # of connection points: 2
#     Edge 85, Type (0, 0), BuildingBlock: OJICUG_clean_linker_0, # of connection points: 2
#     Edge 86, Type (0, 0), BuildingBlock: OJICUG_clean_linker_0, # of connection points: 2
#     Edge 87, Type (0, 0), BuildingBlock: OJICUG_clean_linker_0, # of connection points: 2
#     Edge 88, Type (0, 0), BuildingBlock: OJICUG_clean_linker_0, # of connection points: 2
#     Edge 89, Type (0, 0), BuildingBlock: OJICUG_clean_linker_0, # of connection points: 2
#     Edge 90, Type (0, 0), BuildingBlock: OJICUG_clean_linker_0, # of connection points: 2
#     Edge 91, Type (0, 0), BuildingBlock: OJICUG_clean_linker_0, # of connection points: 2
#     Edge 92, Type (0, 0), BuildingBlock: OJICUG_clean_linker_0, # of connection points: 2
#     Edge 93, Type (0, 0), BuildingBlock: OJICUG_clean_linker_0, # of connection points: 2
#     Edge 94, Type (0, 0), BuildingBlock: OJICUG_clean_linker_0, # of connection points: 2
#     Edge 95, Type (0, 0), BuildingBlock: OJICUG_clean_linker_0, # of connection points: 2
#     Edge 96, Type (0, 0), BuildingBlock: OJICUG_clean_linker_0, # of connection points: 2
#     Edge 97, Type (0, 0), BuildingBlock: OJICUG_clean_linker_0, # of connection points: 2
#     Edge 98, Type (0, 0), BuildingBlock: OJICUG_clean_linker_0, # of connection points: 2
#     Edge 99, Type (0, 0), BuildingBlock: OJICUG_clean_linker_0, # of connection points: 2
#     Edge 100, Type (0, 0), BuildingBlock: OJICUG_clean_linker_0, # of connection points: 2
#     Edge 101, Type (0, 0), BuildingBlock: OJICUG_clean_linker_0, # of connection points: 2
#     Edge 102, Type (0, 0), BuildingBlock: OJICUG_clean_linker_0, # of connection points: 2
#     Edge 103, Type (0, 0), BuildingBlock: OJICUG_clean_linker_0, # of connection points: 2
#     Edge 104, Type (0, 0), BuildingBlock: OJICUG_clean_linker_0, # of connection points: 2
#     Edge 105, Type (0, 0), BuildingBlock: OJICUG_clean_linker_0, # of connection points: 2
#     Edge 106, Type (0, 0), BuildingBlock: OJICUG_clean_linker_0, # of connection points: 2
#     Edge 107, Type (0, 0), BuildingBlock: OJICUG_clean_linker_0, # of connection points: 2
# Relax obj value: 0.008
# Max RMSD: 0.156
# Mean RMSD: 0.156
data_MOF--net-uns--node1-NAWXER_clean_sbu_0--edge1-OJICUG_clean_linker_0
_symmetry_space_group_name_H-M    P1
_symmetry_Int_Tables_number       1
_symmetry_cell_setting            triclinic
loop_
_symmetry_equiv_pos_as_xyz
'x, y, z'
_cell_length_a     43.816366
_cell_length_b     43.81663
_cell_length_c     33.167838
_cell_angle_alpha  90.001906
_cell_angle_beta   89.994453
_cell_angle_gamma 119.9983
loop_
_atom_site_label
_atom_site_type_symbol
_atom_site_fract_x
_atom_site_fract_y
_atom_site_fract_z
_atom_type_partial_charge
C0 C 0.29063 0.18006 0.11949 0.0
C1 C 0.20235 0.20103 0.05513 0.0
O2 O 0.26158 0.17468 0.13442 0.0
Zn3 Zn 0.24542 0.18894 0.08788 0.0
O4 O 0.29852 0.19103 0.08302 0.0
Zn5 Zn 0.27597 0.20565 0.03408 0.0
O6 O 0.31096 0.25484 0.02662 0.0
O7 O 0.28413 0.24371 0.08561 0.0
O8 O 0.22807 0.20713 0.03178 0.0
O9 O 0.20168 0.19017 0.09082 0.0
O10 O 0.23506 0.14764 0.04557 0.0
O11 O 0.26902 0.17189 0.99239 0.0
C12 C 0.30729 0.2655 0.06098 0.0
C13 C 0.24567 0.14459 0.01052 0.0
C14 C 0.81196 1.00393 0.05526 0.0
C15 C 0.8327 0.11315 0.11943 0.0
O16 O 0.82278 0.01416 0.09094 0.0
Zn17 Zn 0.82398 0.05912 0.08788 0.0
O18 O 0.80591 0.02353 0.03181 0.0
Zn19 Zn 0.80738 0.07291 0.03398 0.0
O20 O 0.84123 0.09971 0.99237 0.0
O21 O 0.8654 0.09011 0.0457 0.0
O22 O 0.82182 0.11008 0.08292 0.0
O23 O 0.83807 0.08951 0.13442 0.0
O24 O 0.7692 0.04301 0.08539 0.0
O25 O 0.75821 0.05868 0.0263 0.0
C26 C 0.86851 0.10374 0.01062 0.0
C27 C 0.74746 0.04435 0.06064 0.0
C28 C 0.90917 0.76738 0.01096 0.0
C29 C 0.96886 0.70601 0.0609 0.0
O30 O 0.91324 0.74416 0.99271 0.0
Zn31 Zn 0.94016 0.73725 0.03425 0.0
O32 O 0.92285 0.77797 0.04601 0.0
Zn33 Zn 0.95399 0.7677 0.08813 0.0
O34 O 0.9989 0.81152 0.09105 0.0
O35 O 0.98945 0.78523 0.03194 0.0
O36 O 0.97018 0.72908 0.08564 0.0
O37 O 0.95448 0.70237 0.02658 0.0
O38 O 0.90307 0.71455 0.08326 0.0
O39 O 0.92365 0.75139 0.13473 0.0
C40 C 0.00905 0.81093 0.05531 0.0
C41 C 0.90001 0.72236 0.11977 0.0
C42 C 0.14705 0.24296 0.49168 0.0
C43 C 0.26803 0.30452 0.44148 0.0
O44 O 0.17435 0.26622 0.50989 0.0
Zn45 Zn 0.20814 0.27319 0.46825 0.0
O46 O 0.15012 0.23238 0.45662 0.0
Zn47 Zn 0.19149 0.24274 0.41439 0.0
O48 O 0.19268 0.19898 0.41138 0.0
O49 O 0.20959 0.22528 0.47048 0.0
O50 O 0.24627 0.28142 0.41678 0.0
O51 O 0.25732 0.30814 0.47583 0.0
O52 O 0.19363 0.29585 0.41931 0.0
O53 O 0.17733 0.25899 0.36785 0.0
C54 C 0.20351 0.19959 0.44707 0.0
C55 C 0.18271 0.28801 0.38282 0.0
C56 C 0.81341 0.00645 0.44718 0.0
C57 C 0.72489 0.89736 0.38279 0.0
O58 O 0.81401 0.99627 0.41147 0.0
Zn59 Zn 0.77022 0.95134 0.41442 0.0
O60 O 0.78771 0.98684 0.47057 0.0
Zn61 Zn 0.73976 0.93752 0.46829 0.0
O62 O 0.7467 0.91063 0.50987 0.0
O63 O 0.78053 0.92025 0.45658 0.0
O64 O 0.71707 0.90042 0.4193 0.0
O65 O 0.75394 0.92099 0.36783 0.0
O66 O 0.73158 0.9675 0.41689 0.0
O67 O 0.70486 0.9518 0.47595 0.0
C68 C 0.76995 0.90658 0.49163 0.0
C69 C 0.7085 0.96617 0.44161 0.0
C70 C 1.00657 0.80944 0.44717 0.0
C71 C 0.11567 0.82999 0.38283 0.0
O72 O 0.01676 0.82022 0.41146 0.0
Zn73 Zn 0.06169 0.82135 0.41444 0.0
O74 O 0.02616 0.80335 0.47057 0.0
Zn75 Zn 0.07549 0.80472 0.46832 0.0
O76 O 0.10237 0.83856 0.5099 0.0
O77 O 0.09277 0.86275 0.45659 0.0
O78 O 0.11261 0.81912 0.41934 0.0
O79 O 0.09204 0.8354 0.36786 0.0
O80 O 0.04551 0.76655 0.41693 0.0
O81 O 0.06118 0.75552 0.47599 0.0
C82 C 0.10643 0.86585 0.49165 0.0
C83 C 0.04682 0.7448 0.44165 0.0
C84 C 0.76972 0.86581 0.99185 0.0
C85 C 0.70823 0.74469 0.94205 0.0
O86 O 0.78025 0.86266 0.95679 0.0
Zn87 Zn 0.76989 0.82121 0.9147 0.0
O88 O 0.7465 0.83854 0.01015 0.0
Zn89 Zn 0.7395 0.80465 0.96862 0.0
O90 O 0.78746 0.80327 0.97083 0.0
O91 O 0.81368 0.82008 0.91168 0.0
O92 O 0.70462 0.75546 0.97637 0.0
O93 O 0.73128 0.76643 0.91728 0.0
O94 O 0.75356 0.83522 0.86812 0.0
O95 O 0.71674 0.81899 0.91963 0.0
C96 C 0.81313 0.80934 0.94739 0.0
C97 C 0.72453 0.82983 0.8831 0.0
C98 C 0.20333 0.00663 0.9466 0.0
C99 C 0.18262 0.89739 0.88247 0.0
O100 O 0.2094 0.98704 0.97004 0.0
Zn101 Zn 0.20799 0.9377 0.96787 0.0
O102 O 0.19254 0.99641 0.9109 0.0
Zn103 Zn 0.19135 0.95145 0.91398 0.0
O104 O 0.14996 0.92047 0.95622 0.0
O105 O 0.17421 0.91091 0.00952 0.0
O106 O 0.17723 0.92102 0.86746 0.0
O107 O 0.19352 0.9005 0.91898 0.0
O108 O 0.25716 0.95196 0.97552 0.0
O109 O 0.24615 0.96759 0.91643 0.0
C110 C 0.14691 0.90686 0.99131 0.0
C111 C 0.2679 0.96628 0.94117 0.0
C112 C 0.1064 0.24303 0.99133 0.0
C113 C 0.04678 0.30444 0.94133 0.0
O114 O 0.09274 0.23244 0.95628 0.0
Zn115 Zn 0.06163 0.24273 0.91412 0.0
O116 O 0.10232 0.26625 0.00957 0.0
Zn117 Zn 0.07543 0.27318 0.96799 0.0
O118 O 0.02611 0.22522 0.97026 0.0
O119 O 0.01671 0.19893 0.91116 0.0
O120 O 0.06115 0.30807 0.97566 0.0
O121 O 0.04545 0.28136 0.9166 0.0
O122 O 0.09198 0.25903 0.86753 0.0
O123 O 0.11255 0.29589 0.919 0.0
C124 C 1.00651 0.19953 0.94686 0.0
C125 C 0.11561 0.28807 0.88249 0.0
C126 C 0.86857 0.76733 0.51087 0.0
C127 C 0.74751 0.70579 0.56085 0.0
O128 O 0.86546 0.77789 0.54593 0.0
Zn129 Zn 0.82404 0.76753 0.58808 0.0
O130 O 0.84129 0.74408 0.49263 0.0
Zn131 Zn 0.80744 0.7371 0.5342 0.0
O132 O 0.80601 0.78503 0.53195 0.0
O133 O 0.82286 0.8113 0.59106 0.0
O134 O 0.75827 0.70218 0.52652 0.0
O135 O 0.76925 0.72887 0.58558 0.0
O136 O 0.8381 0.75124 0.63466 0.0
O137 O 0.82185 0.7144 0.58319 0.0
C138 C 0.81207 0.81071 0.55535 0.0
C139 C 0.83271 0.72221 0.6197 0.0
C140 C 0.29076 0.11307 0.61956 0.0
C141 C 0.2023 1.00388 0.55529 0.0
O142 O 0.29858 0.11 0.58306 0.0
Zn143 Zn 0.2759 0.07284 0.5341 0.0
O144 O 0.26173 0.08942 0.63454 0.0
Zn145 Zn 0.24546 0.05904 0.58798 0.0
O146 O 0.28413 0.04292 0.58554 0.0
O147 O 0.31084 0.0586 0.52648 0.0
O148 O 0.2017 0.01409 0.59098 0.0
O149 O 0.22798 0.02348 0.53188 0.0
O150 O 0.26891 0.09968 0.4925 0.0
O151 O 0.2351 0.09007 0.5458 0.0
C152 C 0.30722 0.04426 0.56083 0.0
C153 C 0.24566 0.10372 0.51074 0.0
C154 C 0.89991 0.18012 0.61986 0.0
C155 C 0.00909 0.20087 0.55552 0.0
O156 O 0.90297 0.19101 0.58335 0.0
Zn157 Zn 0.94012 0.20549 0.53438 0.0
O158 O 0.92357 0.17476 0.63483 0.0
Zn159 Zn 0.95395 0.18888 0.58825 0.0
O160 O 0.97005 0.24367 0.58579 0.0
O161 O 0.95434 0.25466 0.52673 0.0
O162 O 0.99891 0.19008 0.59123 0.0
O163 O 0.98948 0.20693 0.53213 0.0
O164 O 0.91329 0.17168 0.49278 0.0
O165 O 0.92292 0.14748 0.54607 0.0
C166 C 0.96869 0.2654 0.56106 0.0
C167 C 0.90926 0.14439 0.511 0.0
C168 C 0.95712 0.51348 0.45304 0.0
C169 C 0.86869 0.53423 0.3887 0.0
O170 O 0.92808 0.50811 0.468 0.0
Zn171 Zn 0.91184 0.52224 0.42143 0.0
O172 O 0.96495 0.52439 0.41654 0.0
Zn173 Zn 0.9423 0.53887 0.36757 0.0
O174 O 0.97725 0.58805 0.35996 0.0
O175 O 0.95052 0.57702 0.41901 0.0
O176 O 0.89439 0.54031 0.36531 0.0
O177 O 0.86807 0.52342 0.4244 0.0
O178 O 0.90149 0.48085 0.37923 0.0
O179 O 0.93534 0.50507 0.32596 0.0
C180 C 0.97363 0.59877 0.3943 0.0
C181 C 0.91207 0.47777 0.34417 0.0
C182 C 0.47856 0.33713 0.38845 0.0
C183 C 0.49931 0.44632 0.45276 0.0
O184 O 0.48938 0.34734 0.42415 0.0
Zn185 Zn 0.49057 0.39229 0.42116 0.0
O186 O 0.47249 0.35674 0.36505 0.0
Zn187 Zn 0.47394 0.40611 0.36729 0.0
O188 O 0.50776 0.43295 0.32569 0.0
O189 O 0.53196 0.42334 0.37898 0.0
O190 O 0.48842 0.44326 0.41626 0.0
O191 O 0.50468 0.42267 0.46773 0.0
O192 O 0.43579 0.37619 0.41873 0.0
O193 O 0.42476 0.39187 0.35968 0.0
C194 C 0.53505 0.437 0.34392 0.0
C195 C 0.41403 0.37753 0.39403 0.0
C196 C 0.57576 0.10051 0.34422 0.0
C197 C 0.63541 0.03912 0.39427 0.0
O198 O 0.57982 0.07727 0.32599 0.0
Zn199 Zn 0.60673 0.07036 0.36757 0.0
O200 O 0.58943 0.11111 0.37927 0.0
Zn201 Zn 0.62054 0.10082 0.42143 0.0
O202 O 0.66545 0.14463 0.42436 0.0
O203 O 0.65604 0.11832 0.36527 0.0
O204 O 0.63673 0.06221 0.41898 0.0
O205 O 0.62104 0.03547 0.35994 0.0
O206 O 0.56962 0.04767 0.41657 0.0
O207 O 0.59019 0.08454 0.46802 0.0
C208 C 0.67564 0.14403 0.38865 0.0
C209 C 0.56656 0.05549 0.45308 0.0
C210 C 0.81365 0.57623 0.82508 0.0
C211 C 0.93464 0.63772 0.7749 0.0
O212 O 0.84096 0.59949 0.84328 0.0
Zn213 Zn 0.87475 0.60644 0.80164 0.0
O214 O 0.81671 0.56565 0.79001 0.0
Zn215 Zn 0.85808 0.57599 0.74778 0.0
O216 O 0.85923 0.53221 0.74478 0.0
O217 O 0.87615 0.5585 0.80388 0.0
O218 O 0.91287 0.61463 0.75019 0.0
O219 O 0.92393 0.64136 0.80925 0.0
O220 O 0.86028 0.62913 0.75269 0.0
O221 O 0.84396 0.59226 0.70123 0.0
C222 C 0.87005 0.53281 0.78047 0.0
C223 C 0.84937 0.6213 0.71619 0.0
C224 C 0.37506 0.29957 0.77471 0.0
C225 C 0.43651 0.24001 0.82484 0.0
O226 O 0.3714 0.2852 0.80905 0.0
Zn227 Zn 0.40632 0.27093 0.80146 0.0
O228 O 0.39817 0.30091 0.75003 0.0
Zn229 Zn 0.43682 0.28478 0.74762 0.0
O230 O 0.42058 0.25442 0.70102 0.0
O231 O 0.3837 0.23383 0.75247 0.0
O232 O 0.44712 0.2537 0.7898 0.0
O233 O 0.41324 0.24404 0.84305 0.0
O234 O 0.45427 0.32025 0.80379 0.0
O235 O 0.48062 0.32972 0.74472 0.0
C236 C 0.39154 0.23077 0.71597 0.0
C237 C 0.47999 0.33987 0.78044 0.0
C238 C 0.77288 0.19907 0.82504 0.0
C239 C 0.7133 0.078 0.77511 0.0
O240 O 0.76881 0.17178 0.8433 0.0
Zn241 Zn 0.74196 0.13794 0.80173 0.0
O242 O 0.75923 0.19596 0.78997 0.0
Zn243 Zn 0.72817 0.15454 0.74782 0.0
O244 O 0.68326 0.15342 0.74478 0.0
O245 O 0.69262 0.13657 0.80392 0.0
O246 O 0.712 0.09974 0.75035 0.0
O247 O 0.72766 0.08875 0.80944 0.0
O248 O 0.77911 0.15233 0.75276 0.0
O249 O 0.75855 0.16859 0.70126 0.0
C250 C 0.67304 0.14265 0.78049 0.0
C251 C 0.78218 0.1632 0.71625 0.0
C252 C 0.43644 0.19909 0.32486 0.0
C253 C 0.37496 0.07802 0.27492 0.0
O254 O 0.44702 0.19598 0.28981 0.0
Zn255 Zn 0.4367 0.15455 0.2477 0.0
O256 O 0.4132 0.17181 0.34311 0.0
Zn257 Zn 0.40624 0.13795 0.30156 0.0
O258 O 0.45417 0.13653 0.30385 0.0
O259 O 0.48048 0.15339 0.24476 0.0
O260 O 0.37132 0.08876 0.30924 0.0
O261 O 0.39805 0.09976 0.25019 0.0
O262 O 0.42043 0.16859 0.20109 0.0
O263 O 0.38355 0.15234 0.25254 0.0
C264 C 0.47987 0.1426 0.28047 0.0
C265 C 0.39138 0.1632 0.21603 0.0
C266 C 0.86997 0.33983 0.28032 0.0
C267 C 0.84936 0.23072 0.21592 0.0
O268 O 0.87606 0.32022 0.30371 0.0
Zn269 Zn 0.87466 0.27088 0.30142 0.0
O270 O 0.85918 0.32965 0.24462 0.0
Zn271 Zn 0.85803 0.28471 0.24757 0.0
O272 O 0.81663 0.25363 0.28974 0.0
O273 O 0.84085 0.24401 0.34301 0.0
O274 O 0.84396 0.25436 0.20097 0.0
O275 O 0.86024 0.23378 0.25242 0.0
O276 O 0.92383 0.28514 0.30907 0.0
O277 O 0.91283 0.30086 0.25002 0.0
C278 C 0.81355 0.23996 0.32479 0.0
C279 C 0.93458 0.29951 0.27474 0.0
C280 C 0.77285 0.57637 0.32492 0.0
C281 C 0.71338 0.63791 0.27485 0.0
O282 O 0.75923 0.56582 0.28984 0.0
Zn283 Zn 0.72821 0.5762 0.24765 0.0
O284 O 0.7688 0.59961 0.34316 0.0
Zn285 Zn 0.74198 0.6066 0.30154 0.0
O286 O 0.69264 0.55866 0.30373 0.0
O287 O 0.68328 0.53242 0.2446 0.0
O288 O 0.72771 0.64151 0.3092 0.0
O289 O 0.71207 0.61485 0.25011 0.0
O290 O 0.75862 0.5925 0.20111 0.0
O291 O 0.77917 0.62932 0.25261 0.0
C292 C 0.67305 0.53299 0.28029 0.0
C293 C 0.78226 0.62152 0.21611 0.0
C294 C 0.49916 0.05556 0.95284 0.0
C295 C 0.47859 0.14411 0.88854 0.0
O296 O 0.4883 0.04775 0.91633 0.0
Zn297 Zn 0.4739 0.07048 0.86735 0.0
O298 O 0.50454 0.08458 0.96782 0.0
Zn299 Zn 0.4905 0.1009 0.92124 0.0
O300 O 0.4357 0.06227 0.91872 0.0
O301 O 0.42472 0.03559 0.85965 0.0
O302 O 0.48936 0.14468 0.92425 0.0
O303 O 0.47251 0.11843 0.86512 0.0
O304 O 0.50775 0.07745 0.82579 0.0
O305 O 0.53192 0.11124 0.87911 0.0
C306 C 0.41396 0.03921 0.89398 0.0
C307 C 0.53503 0.10068 0.84405 0.0
C308 C 0.95728 0.44625 0.95296 0.0
C309 C 0.86879 0.33708 0.88868 0.0
O310 O 0.96509 0.44318 0.91645 0.0
Zn311 Zn 0.94239 0.40604 0.86748 0.0
O312 O 0.92826 0.4226 0.96794 0.0
Zn313 Zn 0.91197 0.39222 0.92138 0.0
O314 O 0.95064 0.37609 0.91888 0.0
O315 O 0.97732 0.39179 0.8598 0.0
O316 O 0.8682 0.34728 0.92438 0.0
O317 O 0.89446 0.35668 0.86526 0.0
O318 O 0.9354 0.43288 0.8259 0.0
O319 O 0.9016 0.42327 0.87922 0.0
C320 C 0.97371 0.37743 0.89413 0.0
C321 C 0.91216 0.43692 0.84415 0.0
C322 C 0.56658 0.51335 0.95345 0.0
C323 C 0.67572 0.53408 0.88903 0.0
O324 O 0.56965 0.52427 0.91696 0.0
Zn325 Zn 0.60678 0.53878 0.86798 0.0
O326 O 0.59022 0.50794 0.96839 0.0
Zn327 Zn 0.62059 0.52209 0.9218 0.0
O328 O 0.63672 0.57689 0.91945 0.0
O329 O 0.62101 0.58795 0.86042 0.0
O330 O 0.66554 0.52325 0.92473 0.0
O331 O 0.65611 0.54019 0.86567 0.0
O332 O 0.57993 0.50502 0.82634 0.0
O333 O 0.58953 0.48073 0.87956 0.0
C334 C 0.63537 0.59865 0.89476 0.0
C335 C 0.57588 0.4777 0.84451 0.0
C336 C 0.57876 0.81097 0.67769 0.0
C337 C 0.64022 0.93194 0.72788 0.0
O338 O 0.60203 0.83828 0.65951 0.0
Zn339 Zn 0.60894 0.87205 0.70114 0.0
O340 O 0.56815 0.81401 0.71274 0.0
Zn341 Zn 0.57845 0.85537 0.75497 0.0
O342 O 0.53466 0.85653 0.75791 0.0
O343 O 0.56101 0.87346 0.69885 0.0
O344 O 0.61711 0.91018 0.75258 0.0
O345 O 0.64387 0.92122 0.69355 0.0
O346 O 0.63157 0.85755 0.75012 0.0
O347 O 0.59467 0.84123 0.80155 0.0
C348 C 0.5353 0.86736 0.72222 0.0
C349 C 0.62371 0.84663 0.78661 0.0
C350 C 0.08066 0.71076 0.72749 0.0
C351 C 0.2017 0.77033 0.67746 0.0
O352 O 0.09138 0.7251 0.69314 0.0
Zn353 Zn 0.14057 0.7394 0.70079 0.0
O354 O 0.10241 0.70946 0.75222 0.0
Zn355 Zn 0.15721 0.72563 0.7547 0.0
O356 O 0.17126 0.75603 0.80125 0.0
O357 O 0.15498 0.77655 0.74973 0.0
O358 O 0.1986 0.75668 0.71253 0.0
O359 O 0.17441 0.76626 0.6592 0.0
O360 O 0.1392 0.69008 0.69859 0.0
O361 O 0.15607 0.6807 0.75771 0.0
C362 C 0.16586 0.77965 0.78624 0.0
C363 C 0.14529 0.67049 0.72201 0.0
C364 C 0.30204 0.37255 0.72727 0.0
C365 C 0.24252 0.43406 0.67722 0.0
O366 O 0.2877 0.36892 0.69293 0.0
Zn367 Zn 0.27343 0.40385 0.70056 0.0
O368 O 0.30337 0.39563 0.75199 0.0
Zn369 Zn 0.28723 0.43429 0.75444 0.0
O370 O 0.25686 0.418 0.80101 0.0
O371 O 0.23629 0.38115 0.74953 0.0
O372 O 0.25618 0.44463 0.71228 0.0
O373 O 0.24657 0.41082 0.65897 0.0
O374 O 0.32278 0.45178 0.69833 0.0
O375 O 0.33217 0.47806 0.75743 0.0
C376 C 0.23322 0.38897 0.78604 0.0
C377 C 0.34238 0.47746 0.72173 0.0
C378 C 0.48043 0.90974 0.1581 0.0
C379 C 0.60143 0.97131 0.10795 0.0
O380 O 0.50772 0.93301 0.17631 0.0
Zn381 Zn 0.54152 0.93998 0.13469 0.0
O382 O 0.48351 0.89916 0.12304 0.0
Zn383 Zn 0.5249 0.90952 0.08084 0.0
O384 O 0.52608 0.86575 0.07788 0.0
O385 O 0.54295 0.89206 0.13697 0.0
O386 O 0.57968 0.9482 0.08325 0.0
O387 O 0.5907 0.97493 0.14229 0.0
O388 O 0.52702 0.96262 0.08573 0.0
O389 O 0.51075 0.92576 0.03427 0.0
C390 C 0.53688 0.86636 0.11359 0.0
C391 C 0.51611 0.95478 0.04923 0.0
C392 C 0.14667 0.67306 0.11367 0.0
C393 C 0.05811 0.56395 0.04935 0.0
O394 O 0.14726 0.66286 0.07796 0.0
Zn395 Zn 0.10345 0.61795 0.08094 0.0
O396 O 0.12098 0.65347 0.13707 0.0
Zn397 Zn 0.073 0.60416 0.13481 0.0
O398 O 0.07993 0.57729 0.17642 0.0
O399 O 0.11376 0.58688 0.12313 0.0
O400 O 0.05029 0.56703 0.08585 0.0
O401 O 0.08715 0.58758 0.03438 0.0
O402 O 0.06485 0.63416 0.0834 0.0
O403 O 0.03813 0.61849 0.14246 0.0
C404 C 0.10317 0.57322 0.15819 0.0
C405 C 0.04178 0.63286 0.10813 0.0
C406 C 0.3802 0.41143 0.10866 0.0
C407 C 0.43962 0.53249 0.15868 0.0
O408 O 0.3945 0.42215 0.14303 0.0
Zn409 Zn 0.40874 0.47134 0.13538 0.0
O410 O 0.37887 0.43318 0.08394 0.0
Zn411 Zn 0.39495 0.48795 0.08147 0.0
O412 O 0.42533 0.50203 0.03492 0.0
O413 O 0.4459 0.48578 0.08642 0.0
O414 O 0.42597 0.52936 0.12361 0.0
O415 O 0.43559 0.50521 0.17696 0.0
O416 O 0.35938 0.46989 0.13757 0.0
O417 O 0.35 0.48675 0.07844 0.0
C418 C 0.44898 0.49665 0.04991 0.0
C419 C 0.33978 0.47596 0.11414 0.0
C420 C 0.05798 0.49669 0.54945 0.0
C421 C 0.14653 0.47608 0.61364 0.0
O422 O 0.05018 0.48581 0.58596 0.0
Zn423 Zn 0.07292 0.47139 0.6349 0.0
O424 O 0.087 0.50208 0.53446 0.0
Zn425 Zn 0.10332 0.48801 0.581 0.0
O426 O 0.06468 0.43321 0.5835 0.0
O427 O 0.03802 0.42221 0.64259 0.0
O428 O 0.1471 0.48687 0.57794 0.0
O429 O 0.12087 0.47 0.63708 0.0
O430 O 0.07991 0.50522 0.6765 0.0
O431 O 0.1137 0.52942 0.62318 0.0
C432 C 0.04163 0.41147 0.60825 0.0
C433 C 0.10315 0.53251 0.65826 0.0
C434 C 0.53686 0.67311 0.61368 0.0
C435 C 0.51622 0.56401 0.54922 0.0
O436 O 0.54292 0.65348 0.63705 0.0
Zn437 Zn 0.54153 0.60415 0.63473 0.0
O438 O 0.52611 0.66297 0.57795 0.0
Zn439 Zn 0.52494 0.61802 0.58087 0.0
O440 O 0.48352 0.58695 0.62301 0.0
O441 O 0.50768 0.57726 0.67629 0.0
O442 O 0.51086 0.58768 0.53426 0.0
O443 O 0.52709 0.56705 0.58572 0.0
O444 O 0.5907 0.61839 0.64239 0.0
O445 O 0.57972 0.63414 0.58335 0.0
C446 C 0.48041 0.57326 0.65806 0.0
C447 C 0.60146 0.63278 0.60807 0.0
C448 C 0.43953 0.90956 0.65839 0.0
C449 C 0.38013 0.97116 0.60824 0.0
O450 O 0.42589 0.899 0.62333 0.0
Zn451 Zn 0.39488 0.90938 0.58112 0.0
O452 O 0.4355 0.93283 0.67661 0.0
Zn453 Zn 0.40869 0.93982 0.63499 0.0
O454 O 0.35932 0.89191 0.63721 0.0
O455 O 0.34993 0.86562 0.57811 0.0
O456 O 0.39446 0.97478 0.6426 0.0
O457 O 0.37879 0.94807 0.58354 0.0
O458 O 0.42528 0.92563 0.53457 0.0
O459 O 0.44585 0.96248 0.58604 0.0
C460 C 0.33972 0.86623 0.61381 0.0
C461 C 0.44893 0.95465 0.54954 0.0
C462 C 0.16581 0.38882 0.28642 0.0
C463 C 0.14525 0.47735 0.22202 0.0
O464 O 0.15496 0.38102 0.24991 0.0
Zn465 Zn 0.14058 0.40372 0.2009 0.0
O466 O 0.17119 0.41785 0.30139 0.0
Zn467 Zn 0.15716 0.43416 0.25479 0.0
O468 O 0.10237 0.39552 0.25226 0.0
O469 O 0.0914 0.36882 0.1932 0.0
O470 O 0.15601 0.47794 0.25773 0.0
O471 O 0.13919 0.45166 0.19862 0.0
O472 O 0.17445 0.41068 0.15936 0.0
O473 O 0.1986 0.44448 0.21268 0.0
C474 C 0.08064 0.37245 0.22752 0.0
C475 C 0.20172 0.43391 0.17764 0.0
C476 C 0.62397 0.77979 0.28632 0.0
C477 C 0.53546 0.67059 0.22213 0.0
O478 O 0.63178 0.77671 0.24982 0.0
Zn479 Zn 0.60906 0.73954 0.20088 0.0
O480 O 0.59494 0.75617 0.3013 0.0
Zn481 Zn 0.57864 0.72577 0.25475 0.0
O482 O 0.6173 0.70962 0.25231 0.0
O483 O 0.64398 0.72528 0.19322 0.0
O484 O 0.53487 0.68084 0.25781 0.0
O485 O 0.56113 0.69017 0.1987 0.0
O486 O 0.60209 0.76635 0.15925 0.0
O487 O 0.56829 0.75681 0.21255 0.0
C488 C 0.64037 0.71094 0.22757 0.0
C489 C 0.57885 0.77043 0.17747 0.0
C490 C 0.23327 0.84671 0.28634 0.0
C491 C 0.34244 0.86748 0.22196 0.0
O492 O 0.23633 0.85761 0.24984 0.0
Zn493 Zn 0.27346 0.8721 0.20086 0.0
O494 O 0.25693 0.84134 0.30129 0.0
Zn495 Zn 0.2873 0.85546 0.25471 0.0
O496 O 0.30339 0.91025 0.25229 0.0
O497 O 0.28768 0.92127 0.19324 0.0
O498 O 0.33226 0.85666 0.25766 0.0
O499 O 0.32282 0.87355 0.19858 0.0
O500 O 0.24662 0.83829 0.15925 0.0
O501 O 0.25626 0.81407 0.21252 0.0
C502 C 0.30204 0.93199 0.22758 0.0
C503 C 0.24259 0.81099 0.17746 0.0
C504 C 0.30887 0.16467 0.18463 0.0
C505 C 0.31609 0.17519 0.14412 0.0
H506 H 0.32699 0.15286 0.23909 0.0
C507 C 0.34848 0.18204 0.12751 0.0
H508 H 0.28426 0.15929 0.19841 0.0
C509 C 0.37309 0.17848 0.15086 0.0
C510 C 0.36587 0.16798 0.19137 0.0
H511 H 0.35497 0.1903 0.0964 0.0
H512 H 0.3977 0.18387 0.13708 0.0
C513 C 0.33347 0.16111 0.20798 0.0
C514 C 0.84793 0.14675 0.18458 0.0
C515 C 0.83748 0.14346 0.14405 0.0
H516 H 0.85964 0.17665 0.23905 0.0
C517 C 0.83063 0.16899 0.1274 0.0
H518 H 0.8533 0.12752 0.19839 0.0
C519 C 0.83414 0.19714 0.15074 0.0
C520 C 0.84459 0.20043 0.19128 0.0
H521 H 0.82243 0.16723 0.09628 0.0
H522 H 0.82877 0.21637 0.13694 0.0
C523 C 0.85144 0.1749 0.20792 0.0
C524 C 0.81594 0.63987 0.151 0.0
C525 C 0.81261 0.64703 0.19153 0.0
H526 H 0.84593 0.65804 0.09659 0.0
C527 C 0.83815 0.67939 0.2082 0.0
H528 H 0.79671 0.61528 0.13717 0.0
C529 C 0.86635 0.70401 0.1849 0.0
C530 C 0.86968 0.69685 0.14438 0.0
H531 H 0.83637 0.68583 0.23932 0.0
H532 H 0.88559 0.72859 0.19873 0.0
C533 C 0.84414 0.66449 0.12771 0.0
C534 C 0.16737 0.30633 0.3177 0.0
C535 C 0.17785 0.31351 0.35822 0.0
H536 H 0.15558 0.32449 0.26327 0.0
C537 C 0.18466 0.34587 0.37488 0.0
H538 H 0.16203 0.28175 0.30388 0.0
C539 C 0.18109 0.37048 0.35157 0.0
C540 C 0.17062 0.36331 0.31105 0.0
H541 H 0.19289 0.35232 0.406 0.0
H542 H 0.18643 0.39507 0.36539 0.0
C543 C 0.16379 0.33095 0.29438 0.0
C544 C 0.64233 0.8134 0.35147 0.0
C545 C 0.6495 0.8101 0.31094 0.0
H546 H 0.66053 0.84332 0.40592 0.0
C547 C 0.68189 0.83562 0.29429 0.0
H548 H 0.61773 0.79418 0.36528 0.0
C549 C 0.70653 0.86377 0.31762 0.0
C550 C 0.69936 0.86707 0.35815 0.0
H551 H 0.68833 0.83385 0.26317 0.0
H552 H 0.73113 0.88299 0.30381 0.0
C553 C 0.66698 0.84155 0.3748 0.0
C554 C 0.14927 0.84522 0.31766 0.0
C555 C 0.14597 0.83476 0.35819 0.0
H556 H 0.17918 0.85696 0.2632 0.0
C557 C 0.1715 0.82791 0.37484 0.0
H558 H 0.13004 0.85059 0.30386 0.0
C559 C 0.19966 0.83144 0.3515 0.0
C560 C 0.20296 0.8419 0.31097 0.0
H561 H 0.16974 0.8197 0.40596 0.0
H562 H 0.2189 0.82608 0.3653 0.0
C563 C 0.17743 0.84875 0.29432 0.0
C564 C 0.68157 0.84862 0.79461 0.0
C565 C 0.6492 0.84179 0.81125 0.0
H566 H 0.73078 0.85043 0.80414 0.0
C567 C 0.64201 0.83132 0.85177 0.0
H568 H 0.68804 0.85684 0.76349 0.0
C569 C 0.66663 0.82777 0.87511 0.0
C570 C 0.69901 0.83461 0.85847 0.0
H571 H 0.61741 0.82596 0.86558 0.0
H572 H 0.66017 0.81955 0.90623 0.0
C573 C 0.70619 0.84507 0.81794 0.0
C574 C 0.18465 0.84152 0.87462 0.0
C575 C 0.17781 0.86704 0.85791 0.0
H576 H 0.18648 0.79411 0.8652 0.0
C577 C 0.16734 0.86369 0.81738 0.0
H578 H 0.19287 0.84333 0.90575 0.0
C579 C 0.1638 0.83549 0.79411 0.0
C580 C 0.17065 0.80998 0.81082 0.0
H581 H 0.16198 0.88291 0.80353 0.0
H582 H 0.15558 0.83369 0.76298 0.0
C583 C 0.18111 0.81333 0.85135 0.0
C584 C 0.14921 0.30644 0.81733 0.0
C585 C 0.14592 0.3136 0.85786 0.0
H586 H 0.17914 0.32463 0.76288 0.0
C587 C 0.17144 0.34598 0.87452 0.0
H588 H 0.12999 0.28184 0.80352 0.0
C589 C 0.1996 0.37061 0.85119 0.0
C590 C 0.2029 0.36345 0.81066 0.0
H591 H 0.16968 0.35242 0.90564 0.0
H592 H 0.21883 0.39521 0.865 0.0
C593 C 0.17738 0.33108 0.794 0.0
C594 C 0.84793 0.70385 0.68487 0.0
C595 C 0.83748 0.69668 0.64434 0.0
H596 H 0.85966 0.68566 0.73933 0.0
C597 C 0.83062 0.6643 0.6277 0.0
H598 H 0.85331 0.72845 0.69867 0.0
C599 C 0.83413 0.63966 0.65104 0.0
C600 C 0.84459 0.64682 0.69157 0.0
H601 H 0.82241 0.65785 0.59657 0.0
H602 H 0.82875 0.61506 0.63723 0.0
C603 C 0.85145 0.67921 0.70821 0.0
C604 C 0.33368 0.1749 0.708 0.0
C605 C 0.36605 0.20045 0.69135 0.0
H606 H 0.28448 0.12748 0.6985 0.0
C607 C 0.37323 0.19714 0.65083 0.0
H608 H 0.32722 0.17667 0.73912 0.0
C609 C 0.34862 0.16895 0.62751 0.0
C610 C 0.31625 0.14341 0.64417 0.0
H611 H 0.39782 0.21638 0.63702 0.0
H612 H 0.35508 0.16718 0.59639 0.0
C613 C 0.30907 0.14672 0.68469 0.0
C614 C 0.86626 0.16479 0.68499 0.0
C615 C 0.86957 0.17527 0.64447 0.0
H616 H 0.83629 0.15299 0.73943 0.0
C617 C 0.84402 0.18207 0.6278 0.0
H618 H 0.88551 0.15945 0.69881 0.0
C619 C 0.81582 0.17849 0.65112 0.0
C620 C 0.81251 0.16802 0.69164 0.0
H621 H 0.84578 0.1903 0.59668 0.0
H622 H 0.79658 0.18383 0.63729 0.0
C623 C 0.83806 0.16121 0.70831 0.0
C624 C 0.97545 0.49819 0.51818 0.0
C625 C 0.98262 0.50867 0.47765 0.0
H626 H 0.99363 0.48642 0.57262 0.0
C627 C 0.01499 0.51551 0.461 0.0
H628 H 0.95085 0.49282 0.53199 0.0
C629 C 0.03962 0.51196 0.48431 0.0
C630 C 0.03245 0.50149 0.52484 0.0
H631 H 0.02145 0.52373 0.42988 0.0
H632 H 0.06421 0.51733 0.4705 0.0
C633 C 1.00008 0.49464 0.5415 0.0
C634 C 0.49735 0.50222 0.46073 0.0
C635 C 0.50415 0.47666 0.47738 0.0
H636 H 0.49559 0.54965 0.47025 0.0
C637 C 0.51463 0.47995 0.5179 0.0
H638 H 0.48913 0.50046 0.42961 0.0
C639 C 0.51821 0.50814 0.54123 0.0
C640 C 0.5114 0.53369 0.52458 0.0
H641 H 0.51997 0.4607 0.53171 0.0
H642 H 0.52643 0.50989 0.57235 0.0
C643 C 0.50093 0.5304 0.48406 0.0
C644 C 0.53296 0.03716 0.51824 0.0
C645 C 0.53626 0.02998 0.47771 0.0
H646 H 0.50302 0.01899 0.57268 0.0
C647 C 0.51073 0.9976 0.46107 0.0
H648 H 0.55219 0.06175 0.53204 0.0
C649 C 0.48256 0.97297 0.4844 0.0
C650 C 0.47926 0.98015 0.52492 0.0
H651 H 0.5125 0.99114 0.42995 0.0
H652 H 0.46333 0.94838 0.47059 0.0
C653 C 0.50479 0.01253 0.54157 0.0
C654 C 0.51446 0.03722 0.01797 0.0
C655 C 0.50398 0.03005 0.97745 0.0
H656 H 0.52628 0.01908 0.0724 0.0
C657 C 0.49716 0.99768 0.96079 0.0
H658 H 0.5198 0.06181 0.03179 0.0
C659 C 0.50075 0.97308 0.98411 0.0
C660 C 0.51125 0.98026 0.02462 0.0
H661 H 0.48894 0.99123 0.92968 0.0
H662 H 0.49542 0.94849 0.97029 0.0
C663 C 0.51805 0.01262 0.04129 0.0
C664 C 0.01516 0.50212 0.9609 0.0
C665 C 0.98279 0.47658 0.97757 0.0
H666 H 0.06437 0.54954 0.9704 0.0
C667 C 0.97562 0.4799 0.01809 0.0
H668 H 0.02162 0.50034 0.92979 0.0
C669 C 1.00023 0.50809 0.0414 0.0
C670 C 0.0326 0.53362 0.02474 0.0
H671 H 0.95102 0.46067 0.03191 0.0
H672 H 0.99378 0.50987 0.07251 0.0
C673 C 0.03978 0.5303 0.98421 0.0
C674 C 0.51074 0.51541 0.96143 0.0
C675 C 0.53627 0.50855 0.97808 0.0
H676 H 0.46336 0.51726 0.97095 0.0
C677 C 0.53297 0.49808 0.01861 0.0
H678 H 0.51251 0.52362 0.93031 0.0
C679 C 0.5048 0.49456 0.04194 0.0
C680 C 0.47929 0.50143 0.02529 0.0
H681 H 0.55219 0.49271 0.03242 0.0
H682 H 0.50303 0.48635 0.07306 0.0
C683 C 0.48259 0.51189 0.98476 0.0
C684 C 0.22383 0.07075 0.93561 0.0
C685 C 0.21056 0.04141 0.96139 0.0
H686 H 0.2461 0.12684 0.93107 0.0
C687 C 0.2071 0.04604 0.00268 0.0
H688 H 0.22701 0.06789 0.90369 0.0
C689 C 0.21737 0.07941 0.01815 0.0
C690 C 0.23214 0.1091 0.99285 0.0
H691 H 0.19689 0.02385 0.02321 0.0
H692 H 0.21488 0.08207 0.05028 0.0
C693 C 0.23496 0.10444 0.95131 0.0
C694 C 0.94247 0.15565 0.93582 0.0
C695 C 0.97174 0.17198 0.96168 0.0
H696 H 0.88642 0.12157 0.93115 0.0
C697 C 0.96702 0.16408 0.00301 0.0
H698 H 0.94538 0.16152 0.90386 0.0
C699 C 0.93364 0.14095 0.01845 0.0
C700 C 0.90403 0.12577 0.99304 0.0
H701 H 0.98915 0.17626 0.02361 0.0
H702 H 0.93091 0.13595 0.0506 0.0
C703 C 0.90877 0.13304 0.95147 0.0
C704 C 0.87974 0.77823 0.95188 0.0
C705 C 0.88705 0.78078 0.99344 0.0
H706 H 0.85117 0.7863 0.90432 0.0
C707 C 0.87183 0.79515 0.01889 0.0
H708 H 0.89124 0.7674 0.93153 0.0
C709 C 0.84863 0.80532 0.0035 0.0
C710 C 0.84071 0.80215 0.96217 0.0
H711 H 0.87685 0.79742 0.05104 0.0
H712 H 0.83643 0.81524 0.02413 0.0
C713 C 0.85706 0.78925 0.93628 0.0
C714 C 0.04855 0.20487 0.49935 0.0
C715 C 0.04386 0.20808 0.54069 0.0
H716 H 0.08463 0.21278 0.45174 0.0
C717 C 0.07315 0.22103 0.56652 0.0
H718 H 0.02642 0.19492 0.47877 0.0
C719 C 0.10683 0.23208 0.55086 0.0
C720 C 0.11154 0.22951 0.50929 0.0
H721 H 0.07025 0.22401 0.59849 0.0
H722 H 0.12919 0.24296 0.57116 0.0
C723 C 0.08191 0.21507 0.4839 0.0
C724 C 0.80801 0.84614 0.4992 0.0
C725 C 0.80484 0.83825 0.54054 0.0
H726 H 0.80005 0.87429 0.45162 0.0
C727 C 0.79192 0.85459 0.5664 0.0
H728 H 0.81794 0.83395 0.47859 0.0
C729 C 0.78085 0.87723 0.55077 0.0
C730 C 0.78339 0.8845 0.5092 0.0
H731 H 0.78897 0.84873 0.59836 0.0
H732 H 0.77 0.88872 0.57109 0.0
C733 C 0.79779 0.8693 0.48378 0.0
C734 C 0.15842 0.93984 0.56638 0.0
C735 C 0.17476 0.96909 0.54049 0.0
H736 H 0.1243 0.8838 0.5711 0.0
C737 C 0.16688 0.96435 0.49916 0.0
H738 H 0.16428 0.94277 0.59834 0.0
C739 C 0.14372 0.93097 0.48375 0.0
C740 C 0.12851 0.90137 0.50919 0.0
H741 H 0.17907 0.98646 0.47853 0.0
H742 H 0.13873 0.92822 0.4516 0.0
C743 C 0.13578 0.90613 0.55076 0.0
C744 C 0.79754 0.93091 0.98384 0.0
C745 C 0.78318 0.90135 0.00933 0.0
H746 H 0.8177 0.9864 0.97852 0.0
C747 C 0.7807 0.90617 0.05089 0.0
H748 H 0.79976 0.92812 0.95168 0.0
C749 C 0.79179 0.9399 0.06645 0.0
C750 C 0.80469 0.96911 0.04052 0.0
H751 H 0.76987 0.88387 0.07127 0.0
H752 H 0.7889 0.94288 0.09841 0.0
C753 C 0.80779 0.96431 0.99918 0.0
C754 C 0.08176 0.86959 0.9836 0.0
C755 C 0.11142 0.88482 0.00895 0.0
H756 H 0.02627 0.83419 0.97853 0.0
C757 C 0.10675 0.87758 0.05053 0.0
H758 H 0.08444 0.87457 0.95143 0.0
C759 C 0.07308 0.85492 0.06624 0.0
C760 C 0.04378 0.83853 0.04044 0.0
H761 H 0.12912 0.88909 0.0708 0.0
H762 H 0.07022 0.84907 0.0982 0.0
C763 C 0.04843 0.84641 0.99909 0.0
C764 C 0.1357 0.23209 0.05049 0.0
C765 C 0.12851 0.22963 0.0089 0.0
H766 H 0.16414 0.22393 0.09812 0.0
C767 C 0.14385 0.21536 0.98347 0.0
H768 H 0.12411 0.24284 0.07081 0.0
C769 C 0.16703 0.20519 0.99891 0.0
C770 C 0.17482 0.20826 0.04027 0.0
H771 H 0.13892 0.21317 0.9513 0.0
H772 H 0.17931 0.19535 0.9783 0.0
C773 C 0.15836 0.22107 0.06614 0.0
C774 C 0.93369 0.7952 0.51873 0.0
C775 C 0.90409 0.78078 0.49331 0.0
H776 H 0.98919 0.81534 0.52392 0.0
C777 C 0.90883 0.77824 0.45174 0.0
H778 H 0.93095 0.79746 0.55089 0.0
C779 C 0.94253 0.7893 0.43611 0.0
C780 C 0.97179 0.80223 0.46198 0.0
H781 H 0.88649 0.76738 0.43142 0.0
H782 H 0.94545 0.78635 0.40415 0.0
C783 C 0.96707 0.8054 0.50331 0.0
C784 C 0.22367 0.15571 0.43599 0.0
C785 C 0.21075 0.17204 0.46187 0.0
H786 H 0.24559 0.12158 0.43128 0.0
C787 C 0.20759 0.16415 0.50321 0.0
H788 H 0.2266 0.16157 0.40403 0.0
C789 C 0.21781 0.14099 0.51861 0.0
C790 C 0.23221 0.12579 0.49318 0.0
H791 H 0.19766 0.17634 0.52382 0.0
H792 H 0.21556 0.136 0.55077 0.0
C793 C 0.23473 0.13307 0.45161 0.0
C794 C 0.84885 0.0459 0.50336 0.0
C795 C 0.84097 0.04121 0.46202 0.0
H796 H 0.877 0.08197 0.55097 0.0
C797 C 0.85732 0.07049 0.43618 0.0
H798 H 0.83666 0.02376 0.52395 0.0
C799 C 0.87996 0.10417 0.45184 0.0
C800 C 0.88722 0.10889 0.49341 0.0
H801 H 0.85147 0.06759 0.40421 0.0
H802 H 0.89145 0.12653 0.43153 0.0
C803 C 0.87201 0.07926 0.51881 0.0
C804 C 0.88419 0.41264 0.35196 0.0
C805 C 0.89862 0.44227 0.32657 0.0
H806 H 0.86404 0.35714 0.35709 0.0
C807 C 0.90117 0.43756 0.28499 0.0
H808 H 0.88191 0.41535 0.38412 0.0
C809 C 0.89012 0.40388 0.26933 0.0
C810 C 0.87718 0.37459 0.29516 0.0
H811 H 0.91204 0.45992 0.26469 0.0
H812 H 0.89309 0.40098 0.23736 0.0
C813 C 0.87399 0.37928 0.3365 0.0
C814 C 0.60017 0.47428 0.3518 0.0
C815 C 0.57057 0.45909 0.32637 0.0
H816 H 0.65566 0.50965 0.35702 0.0
C817 C 0.57532 0.46641 0.28481 0.0
H818 H 0.59743 0.46925 0.38395 0.0
C819 C 0.60902 0.48908 0.26919 0.0
C820 C 0.63827 0.50541 0.29507 0.0
H821 H 0.55299 0.45494 0.26448 0.0
H822 H 0.61195 0.49499 0.23724 0.0
C823 C 0.63354 0.49747 0.3364 0.0
C824 C 0.53843 0.1283 0.35207 0.0
C825 C 0.55367 0.11393 0.32665 0.0
H826 H 0.50305 0.14841 0.35725 0.0
C827 C 0.54642 0.11141 0.28508 0.0
H828 H 0.5434 0.13054 0.38423 0.0
C829 C 0.52378 0.12247 0.26944 0.0
C830 C 0.50741 0.13536 0.2953 0.0
H831 H 0.55793 0.10058 0.26476 0.0
H832 H 0.51794 0.11954 0.23747 0.0
C833 C 0.51526 0.1385 0.33664 0.0
C834 C 0.71516 0.53813 0.83282 0.0
C835 C 0.71049 0.5413 0.87417 0.0
H836 H 0.75122 0.54608 0.78517 0.0
C837 C 0.73978 0.55424 0.89998 0.0
H838 H 0.69301 0.52818 0.81225 0.0
C839 C 0.77346 0.56531 0.88429 0.0
C840 C 0.77816 0.56277 0.84271 0.0
H841 H 0.73689 0.55719 0.93195 0.0
H842 H 0.79583 0.57617 0.90458 0.0
C843 C 0.74852 0.54835 0.81734 0.0
C844 C 0.44736 0.21063 0.88397 0.0
C845 C 0.44994 0.21793 0.84241 0.0
H846 H 0.45544 0.18209 0.93156 0.0
C847 C 0.46438 0.20276 0.817 0.0
H848 H 0.43648 0.22209 0.90429 0.0
C849 C 0.47459 0.17959 0.83241 0.0
C850 C 0.47138 0.17167 0.87374 0.0
H851 H 0.46668 0.20778 0.78484 0.0
H852 H 0.48455 0.16743 0.81181 0.0
C853 C 0.45842 0.18798 0.8996 0.0
C854 C 0.82488 0.27305 0.89977 0.0
C855 C 0.84123 0.3023 0.87388 0.0
H856 H 0.79073 0.21702 0.90449 0.0
C857 C 0.83335 0.29756 0.83255 0.0
H858 H 0.83073 0.27598 0.93173 0.0
C859 C 0.81018 0.26418 0.81714 0.0
C860 C 0.79496 0.23459 0.84258 0.0
H861 H 0.84555 0.31967 0.81192 0.0
H862 H 0.80519 0.26143 0.78498 0.0
C863 C 0.80223 0.23935 0.88415 0.0
C864 C 0.46423 0.2642 0.31693 0.0
C865 C 0.44987 0.23462 0.34238 0.0
H866 H 0.48434 0.31969 0.31169 0.0
C867 C 0.44737 0.23939 0.38395 0.0
H868 H 0.46646 0.26144 0.28477 0.0
C869 C 0.45843 0.2731 0.39955 0.0
C870 C 0.47132 0.30234 0.37366 0.0
H871 H 0.43655 0.21707 0.4043 0.0
H872 H 0.45552 0.27604 0.43152 0.0
C873 C 0.47444 0.29758 0.33232 0.0
C874 C 0.71507 0.17947 0.33246 0.0
C875 C 0.71039 0.1716 0.3738 0.0
H876 H 0.75114 0.20763 0.28484 0.0
C877 C 0.73967 0.18798 0.39963 0.0
H878 H 0.69294 0.16725 0.31187 0.0
C879 C 0.77335 0.21063 0.38397 0.0
C880 C 0.77805 0.21789 0.34239 0.0
H881 H 0.73677 0.18213 0.4316 0.0
H882 H 0.7957 0.22214 0.40427 0.0
C883 C 0.74843 0.20265 0.317 0.0
C884 C 0.82479 0.55437 0.39973 0.0
C885 C 0.84115 0.54146 0.37387 0.0
H886 H 0.79065 0.57628 0.40439 0.0
C887 C 0.83328 0.5383 0.33253 0.0
H888 H 0.83063 0.55731 0.43169 0.0
C889 C 0.81013 0.54852 0.31709 0.0
C890 C 0.7949 0.56291 0.3425 0.0
H891 H 0.84548 0.52838 0.31193 0.0
H892 H 0.80515 0.54626 0.28493 0.0
C893 C 0.80215 0.56543 0.38408 0.0
C894 C 0.60014 0.12847 0.85197 0.0
C895 C 0.57056 0.1141 0.82652 0.0
H896 H 0.65562 0.14855 0.85722 0.0
C897 C 0.57533 0.11156 0.78496 0.0
H898 H 0.59739 0.13074 0.88413 0.0
C899 C 0.60903 0.12258 0.76937 0.0
C900 C 0.63827 0.13547 0.79526 0.0
H901 H 0.553 0.10073 0.76462 0.0
H902 H 0.61197 0.11963 0.73741 0.0
C903 C 0.63352 0.13864 0.83659 0.0
C904 C 0.90123 0.46626 0.78503 0.0
C905 C 0.8987 0.45899 0.8266 0.0
H906 H 0.89311 0.49477 0.73744 0.0
C907 C 0.88431 0.4742 0.85202 0.0
H908 H 0.91207 0.45477 0.7647 0.0
C909 C 0.8741 0.49736 0.83661 0.0
C910 C 0.87726 0.50525 0.79527 0.0
H911 H 0.88206 0.4692 0.88418 0.0
H912 H 0.86418 0.50956 0.85723 0.0
C913 C 0.89017 0.4889 0.7694 0.0
C914 C 0.54657 0.43758 0.78527 0.0
C915 C 0.55382 0.44223 0.82685 0.0
H916 H 0.51808 0.40107 0.73758 0.0
C917 C 0.53859 0.41256 0.85219 0.0
H918 H 0.55808 0.45996 0.76501 0.0
C919 C 0.51542 0.37923 0.83668 0.0
C920 C 0.50755 0.3746 0.79533 0.0
H921 H 0.54357 0.41523 0.88435 0.0
H922 H 0.50321 0.35706 0.85723 0.0
C923 C 0.52393 0.40392 0.76955 0.0
C924 C 0.55696 0.73716 0.60276 0.0
C925 C 0.54403 0.70785 0.62856 0.0
H926 H 0.57883 0.7932 0.5982 0.0
C927 C 0.54079 0.71249 0.6699 0.0
H928 H 0.55996 0.7343 0.5708 0.0
C929 C 0.55094 0.74583 0.6854 0.0
C930 C 0.56536 0.77548 0.66005 0.0
H931 H 0.53084 0.69033 0.69046 0.0
H932 H 0.54862 0.7485 0.71756 0.0
C933 C 0.56796 0.77082 0.61847 0.0
C934 C 0.24198 0.79967 0.61834 0.0
C935 C 0.23722 0.79241 0.65991 0.0
H936 H 0.27862 0.82817 0.57076 0.0
C937 C 0.26681 0.80764 0.68535 0.0
H938 H 0.21965 0.78817 0.59801 0.0
C939 C 0.30019 0.83081 0.66995 0.0
C940 C 0.30493 0.83868 0.62861 0.0
H941 H 0.26406 0.80265 0.71751 0.0
H942 H 0.3223 0.84301 0.69057 0.0
C943 C 0.27568 0.82232 0.60272 0.0
C944 C 0.21312 0.44493 0.61812 0.0
C945 C 0.22043 0.44749 0.65968 0.0
H946 H 0.18455 0.453 0.57056 0.0
C947 C 0.20524 0.46189 0.68512 0.0
H948 H 0.22459 0.43408 0.59778 0.0
C949 C 0.18205 0.47208 0.66973 0.0
C950 C 0.17412 0.46889 0.62841 0.0
H951 H 0.21026 0.46417 0.71727 0.0
H952 H 0.16987 0.48201 0.69036 0.0
C953 C 0.19045 0.45597 0.60252 0.0
C954 C 0.38192 0.87154 0.16578 0.0
C955 C 0.37722 0.87473 0.20712 0.0
H956 H 0.41801 0.87952 0.11816 0.0
C957 C 0.40651 0.88771 0.23295 0.0
H958 H 0.35978 0.86157 0.1452 0.0
C959 C 0.4402 0.8988 0.21728 0.0
C960 C 0.44492 0.89625 0.17571 0.0
H961 H 0.40361 0.89067 0.26491 0.0
H962 H 0.46256 0.9097 0.23758 0.0
C963 C 0.41529 0.88179 0.15032 0.0
C964 C 0.1251 0.52125 0.23302 0.0
C965 C 0.13804 0.50491 0.20718 0.0
H966 H 0.10319 0.55538 0.23766 0.0
C967 C 0.14122 0.51278 0.16584 0.0
H968 H 0.12215 0.5154 0.26498 0.0
C969 C 0.13102 0.53594 0.15039 0.0
C970 C 0.11661 0.55116 0.17579 0.0
H971 H 0.15117 0.50059 0.14525 0.0
H972 H 0.1333 0.54093 0.11823 0.0
C973 C 0.11405 0.54389 0.21736 0.0
C974 C 0.50001 0.631 0.16607 0.0
C975 C 0.50792 0.63578 0.20739 0.0
H976 H 0.47185 0.59482 0.11856 0.0
C977 C 0.49161 0.60656 0.23332 0.0
H978 H 0.51218 0.65309 0.14541 0.0
C979 C 0.46898 0.57283 0.21775 0.0
C980 C 0.46169 0.56802 0.17619 0.0
H981 H 0.49749 0.60953 0.26527 0.0
H982 H 0.45752 0.55052 0.23811 0.0
C983 C 0.47686 0.5976 0.15071 0.0
C984 C 0.12512 0.60644 0.73306 0.0
C985 C 0.13809 0.63572 0.70721 0.0
H986 H 0.10315 0.5504 0.73772 0.0
C987 C 0.14131 0.63101 0.66588 0.0
H988 H 0.12213 0.60935 0.76501 0.0
C989 C 0.13109 0.59765 0.65044 0.0
C990 C 0.11663 0.56802 0.67584 0.0
H991 H 0.15129 0.65315 0.64528 0.0
H992 H 0.13339 0.59492 0.61829 0.0
C993 C 0.11405 0.57275 0.71741 0.0
C994 C 0.40642 0.5213 0.7328 0.0
C995 C 0.37716 0.505 0.70693 0.0
H996 H 0.46247 0.55538 0.73751 0.0
C997 C 0.3819 0.5129 0.6656 0.0
H998 H 0.40349 0.51543 0.76476 0.0
C999 C 0.41528 0.53604 0.65019 0.0
C1000 C 0.44488 0.55121 0.67561 0.0
H1001 H 0.35978 0.50074 0.64499 0.0
H1002 H 0.41803 0.54105 0.61803 0.0
C1003 C 0.44013 0.54392 0.71718 0.0
C1004 C 0.4999 0.87144 0.66604 0.0
C1005 C 0.50776 0.8746 0.70739 0.0
H1006 H 0.4718 0.87941 0.61843 0.0
C1007 C 0.49142 0.88754 0.73323 0.0
H1008 H 0.5121 0.86149 0.64545 0.0
C1009 C 0.46881 0.89862 0.71757 0.0
C1010 C 0.46156 0.89609 0.67599 0.0
H1011 H 0.49726 0.89047 0.7652 0.0
H1012 H 0.45732 0.90948 0.73787 0.0
C1013 C 0.47677 0.88167 0.65059 0.0
C1014 C 0.24205 0.44481 0.11857 0.0
C1015 C 0.23726 0.44732 0.16013 0.0
H1016 H 0.27872 0.45293 0.07103 0.0
C1017 C 0.26683 0.46167 0.1856 0.0
H1018 H 0.21974 0.434 0.09821 0.0
C1019 C 0.30021 0.47186 0.17024 0.0
C1020 C 0.30499 0.46873 0.1289 0.0
H1021 H 0.26405 0.46391 0.21776 0.0
H1022 H 0.32231 0.48175 0.19088 0.0
C1023 C 0.27576 0.45585 0.10299 0.0
C1024 C 0.55697 0.82241 0.10261 0.0
C1025 C 0.54407 0.8388 0.12844 0.0
H1026 H 0.57882 0.78823 0.09799 0.0
C1027 C 0.54088 0.83094 0.16979 0.0
H1028 H 0.55992 0.82826 0.07064 0.0
C1029 C 0.55105 0.80776 0.18525 0.0
C1030 C 0.56543 0.7925 0.15986 0.0
H1031 H 0.53096 0.84316 0.19037 0.0
H1032 H 0.54877 0.80278 0.21741 0.0
C1033 C 0.56798 0.79975 0.11829 0.0
C1034 C 0.21325 0.77078 0.1183 0.0
C1035 C 0.22054 0.77549 0.15987 0.0
H1036 H 0.18472 0.7342 0.07069 0.0
C1037 C 0.20534 0.74586 0.18526 0.0
H1038 H 0.22473 0.79313 0.098 0.0
C1039 C 0.18216 0.7125 0.16982 0.0
C1040 C 0.17426 0.70781 0.12849 0.0
H1041 H 0.21034 0.74858 0.21742 0.0
H1042 H 0.16997 0.69037 0.19041 0.0
C1043 C 0.1906 0.73709 0.10264 0.0
C1044 C 0.34301 0.32957 0.04385 0.0
C1045 C 0.32879 0.3028 0.07296 0.0
H1046 H 0.37022 0.38508 0.03251 0.0
C1047 C 0.33366 0.312 0.11408 0.0
H1048 H 0.33964 0.32322 0.012 0.0
C1049 C 0.35166 0.34736 0.12587 0.0
C1050 C 0.36443 0.37412 0.09674 0.0
H1051 H 0.32319 0.29183 0.13719 0.0
H1052 H 0.35443 0.3537 0.15771 0.0
C1053 C 0.36035 0.36492 0.05564 0.0
C1054 C 0.64804 0.9978 0.05499 0.0
C1055 C 0.63876 0.99282 0.09608 0.0
H1056 H 0.68983 0.01869 0.01147 0.0
C1057 C 0.66546 0.00695 0.12527 0.0
H1058 H 0.62792 0.98739 0.03182 0.0
C1059 C 0.70084 0.02431 0.11357 0.0
C1060 C 0.71013 0.02852 0.07249 0.0
H1061 H 0.65905 1.00348 0.15709 0.0
H1062 H 0.72096 0.03412 0.13675 0.0
C1063 C 0.68342 0.01583 0.0433 0.0
C1064 C 0.98898 0.67948 0.11382 0.0
C1065 C 0.98471 0.68452 0.07274 0.0
H1066 H 0.00981 0.65852 0.15732 0.0
C1067 C 0.99732 0.67044 0.04354 0.0
H1068 H 0.97924 0.68986 0.13701 0.0
C1069 C 0.01531 0.65304 0.05521 0.0
C1070 C 0.02034 0.64876 0.09629 0.0
H1071 H 0.99441 0.67395 0.01172 0.0
H1072 H 0.02565 0.64326 0.03203 0.0
C1073 C 1.0063 0.66143 0.1255 0.0
C1074 C 0.31461 0.33103 0.38848 0.0
C1075 C 0.30535 0.32602 0.42958 0.0
H1076 H 0.35637 0.35193 0.34492 0.0
C1077 C 0.33208 0.34012 0.45874 0.0
H1078 H 0.29447 0.32065 0.36533 0.0
C1079 C 0.36745 0.35748 0.44701 0.0
C1080 C 0.37671 0.36171 0.40592 0.0
H1081 H 0.3257 0.33664 0.49057 0.0
H1082 H 0.38759 0.36726 0.47016 0.0
C1083 C 0.34998 0.34905 0.37675 0.0
C1084 C 0.66393 1.00359 0.37696 0.0
C1085 C 0.65129 0.01766 0.40614 0.0
H1086 H 0.69234 0.97649 0.36549 0.0
C1087 C 0.65555 0.01265 0.44723 0.0
H1088 H 0.66102 0.00709 0.34513 0.0
C1089 C 0.67292 0.99465 0.45893 0.0
C1090 C 0.687 0.98201 0.42974 0.0
H1091 H 0.64578 0.02301 0.4704 0.0
H1092 H 0.67643 0.99176 0.49076 0.0
C1093 C 0.68197 0.98625 0.38866 0.0
C1094 C 0.01822 0.68074 0.45898 0.0
C1095 C 0.03094 0.70746 0.42979 0.0
H1096 H 0.98973 0.62524 0.47044 0.0
C1097 C 0.02672 0.69818 0.38871 0.0
H1098 H 0.02109 0.68715 0.49081 0.0
C1099 C 0.00931 0.66281 0.377 0.0
C1100 C 0.99515 0.6361 0.40619 0.0
H1101 H 0.03654 0.71831 0.36554 0.0
H1102 H 1.00583 0.65641 0.34518 0.0
C1103 C 1.00015 0.64537 0.44727 0.0
C1104 C 0.65557 0.64527 0.94774 0.0
C1105 C 0.65118 0.63598 0.90666 0.0
H1106 H 0.67649 0.68706 0.99126 0.0
C1107 C 0.66364 0.66268 0.87747 0.0
H1108 H 0.64595 0.62515 0.97092 0.0
C1109 C 0.6816 0.69806 0.88915 0.0
C1110 C 0.68676 0.70735 0.93023 0.0
H1111 H 0.66063 0.65628 0.84564 0.0
H1112 H 0.69182 0.71818 0.86598 0.0
C1113 C 0.67287 0.68065 0.95943 0.0
C1114 C 0.33192 0.99471 0.95854 0.0
C1115 C 0.30523 0.98211 0.92932 0.0
H1116 H 0.38741 0.02304 0.97006 0.0
C1117 C 0.31455 0.98638 0.88825 0.0
H1118 H 0.32549 0.9918 0.99036 0.0
C1119 C 0.34993 1.00371 0.87658 0.0
C1120 C 0.37662 0.01774 0.9058 0.0
H1121 H 0.29444 0.97665 0.86506 0.0
H1122 H 0.35636 0.00723 0.84476 0.0
C1123 C 0.3673 0.0127 0.94687 0.0
C1124 C 0.01829 0.33998 0.9587 0.0
C1125 C 0.03091 0.32591 0.92949 0.0
H1126 H 0.98991 0.3671 0.97023 0.0
C1127 C 0.02663 0.33094 0.88842 0.0
H1128 H 0.02121 0.33648 0.99052 0.0
C1129 C 0.00926 0.34895 0.87675 0.0
C1130 C 0.99521 0.36159 0.90596 0.0
H1131 H 0.03638 0.32058 0.86523 0.0
H1132 H 1.00574 0.35185 0.84493 0.0
C1133 C 1.00026 0.35734 0.94704 0.0
C1134 C 0.68348 0.67025 0.54347 0.0
C1135 C 0.71017 0.68429 0.57268 0.0
H1136 H 0.62799 0.64315 0.53197 0.0
C1137 C 0.70087 0.67924 0.61376 0.0
H1138 H 0.68991 0.67377 0.51165 0.0
C1139 C 0.66549 0.66122 0.62543 0.0
C1140 C 0.63879 0.64861 0.59623 0.0
H1141 H 0.72098 0.68958 0.63694 0.0
H1142 H 0.65906 0.6583 0.65726 0.0
C1143 C 0.6481 0.65289 0.55515 0.0
C1144 C 0.33374 0.02419 0.6138 0.0
C1145 C 0.32871 0.02842 0.57271 0.0
H1146 H 0.35462 1.00331 0.65735 0.0
C1147 C 0.34276 0.01574 0.54354 0.0
H1148 H 0.32339 0.03398 0.63696 0.0
C1149 C 0.36009 0.9977 0.55526 0.0
C1150 C 0.36434 0.99269 0.59635 0.0
H1151 H 0.33926 0.01863 0.51171 0.0
H1152 H 0.36983 0.98731 0.5321 0.0
C1153 C 0.35173 0.00681 0.62552 0.0
C1154 C 1.00612 0.34743 0.62564 0.0
C1155 C 0.02015 0.37412 0.59643 0.0
H1156 H 0.97906 0.29194 0.63717 0.0
C1157 C 0.0151 0.36481 0.55535 0.0
H1158 H 0.00965 0.35386 0.65746 0.0
C1159 C 0.9971 0.32943 0.54369 0.0
C1160 C 0.98451 0.30274 0.5729 0.0
H1161 H 0.02543 0.38492 0.53216 0.0
H1162 H 0.99419 0.323 0.51187 0.0
C1163 C 0.98879 0.31205 0.61398 0.0
C1164 C 0.98123 0.66421 0.72191 0.0
C1165 C 0.97197 0.65921 0.763 0.0
H1166 H 0.023 0.68511 0.67836 0.0
C1167 C 0.99869 0.67333 0.79217 0.0
H1168 H 0.9611 0.65381 0.69875 0.0
C1169 C 0.03406 0.69069 0.78046 0.0
C1170 C 0.04332 0.69491 0.73937 0.0
H1171 H 0.99229 0.66985 0.82401 0.0
H1172 H 0.05419 0.70049 0.80362 0.0
C1173 C 0.0166 0.68223 0.71019 0.0
C1174 C 0.33056 0.33702 0.70999 0.0
C1175 C 0.31787 0.35106 0.73916 0.0
H1176 H 0.35899 0.30994 0.69856 0.0
C1177 C 0.32207 0.346 0.78025 0.0
H1178 H 0.3277 0.34054 0.67816 0.0
C1179 C 0.33944 0.328 0.79198 0.0
C1180 C 0.35356 0.3154 0.76281 0.0
H1181 H 0.31227 0.35634 0.8034 0.0
H1182 H 0.3429 0.32508 0.82381 0.0
C1183 C 0.34859 0.31967 0.72172 0.0
C1184 C 0.67587 0.99597 0.71054 0.0
C1185 C 0.66171 0.96927 0.73975 0.0
H1186 H 0.70308 0.05146 0.69903 0.0
C1187 C 0.66666 0.97858 0.78083 0.0
H1188 H 0.67242 0.98955 0.67872 0.0
C1189 C 0.6847 0.01396 0.7925 0.0
C1190 C 0.69744 0.04065 0.76329 0.0
H1191 H 0.65623 0.95847 0.80401 0.0
H1192 H 0.68755 0.02039 0.82432 0.0
C1193 C 0.69325 0.03135 0.72221 0.0
C1194 C 0.33044 0.99603 0.21028 0.0
C1195 C 0.31785 0.96932 0.23946 0.0
H1196 H 0.35876 0.05153 0.19881 0.0
C1197 C 0.32211 0.9786 0.28055 0.0
H1198 H 0.32753 0.98963 0.17845 0.0
C1199 C 0.33945 0.01397 0.29225 0.0
C1200 C 0.35348 0.04068 0.26306 0.0
H1201 H 0.31239 0.95847 0.30371 0.0
H1202 H 0.34297 0.02038 0.32407 0.0
C1203 C 0.34843 0.03141 0.22198 0.0
C1204 C 0.98122 0.31963 0.22181 0.0
C1205 C 0.97191 0.31534 0.26289 0.0
H1206 H 0.02303 0.3405 0.17832 0.0
C1207 C 0.9986 0.32791 0.29209 0.0
H1208 H 0.96111 0.30992 0.19863 0.0
C1209 C 0.03399 0.3459 0.28042 0.0
C1210 C 0.04329 0.35097 0.23935 0.0
H1211 H 0.99218 0.32498 0.32392 0.0
H1212 H 0.05409 0.35622 0.30361 0.0
C1213 C 0.0166 0.33696 0.21014 0.0
C1214 C 0.6849 0.67347 0.2922 0.0
C1215 C 0.69755 0.65941 0.263 0.0
H1216 H 0.65651 0.70058 0.30369 0.0
C1217 C 0.6933 0.66446 0.22192 0.0
H1218 H 0.6878 0.66996 0.32402 0.0
C1219 C 0.67594 0.68247 0.21023 0.0
C1220 C 0.66186 0.6951 0.23943 0.0
H1221 H 0.70307 0.6541 0.19874 0.0
H1222 H 0.67244 0.68539 0.17841 0.0
C1223 C 0.66688 0.69083 0.28051 0.0
loop_
_geom_bond_atom_site_label_1
_geom_bond_atom_site_label_2
_geom_bond_distance
_geom_bond_site_symmetry_2
_ccdc_geom_bond_type
C0 O2 1.247 . S
C0 O4 1.258 . S
C1 O8 1.247 . S
C1 O9 1.258 . S
O2 C0 1.247 . S
O2 Zn3 2.028 . S
Zn3 O2 2.028 . S
Zn3 O7 2.035 . S
Zn3 O9 2.035 . S
Zn3 O10 2.028 . S
O4 C0 1.258 . S
O4 Zn5 2.035 . S
Zn5 O4 2.035 . S
Zn5 O6 2.028 . S
Zn5 O8 2.028 . S
Zn5 O11 2.035 . S
O6 Zn5 2.028 . S
O6 C12 1.247 . S
O7 Zn3 2.035 . S
O7 C12 1.258 . S
O8 C1 1.247 . S
O8 Zn5 2.028 . S
O9 C1 1.258 . S
O9 Zn3 2.035 . S
O10 Zn3 2.028 . S
O10 C13 1.247 . S
O11 Zn5 2.035 . S
O11 C13 1.258 . S
C12 O6 1.247 . S
C12 O7 1.258 . S
C13 O10 1.247 . S
C13 O11 1.258 . S
C14 O16 1.247 . S
C14 O18 1.258 . S
C15 O22 1.247 . S
C15 O23 1.258 . S
O16 C14 1.247 . S
O16 Zn17 2.028 . S
Zn17 O16 2.028 . S
Zn17 O21 2.035 . S
Zn17 O23 2.035 . S
Zn17 O24 2.028 . S
O18 C14 1.258 . S
O18 Zn19 2.035 . S
Zn19 O18 2.035 . S
Zn19 O20 2.028 . S
Zn19 O22 2.028 . S
Zn19 O25 2.035 . S
O20 Zn19 2.028 . S
O20 C26 1.247 . S
O21 Zn17 2.035 . S
O21 C26 1.258 . S
O22 C15 1.247 . S
O22 Zn19 2.028 . S
O23 C15 1.258 . S
O23 Zn17 2.035 . S
O24 Zn17 2.028 . S
O24 C27 1.247 . S
O25 Zn19 2.035 . S
O25 C27 1.258 . S
C26 O20 1.247 . S
C26 O21 1.258 . S
C27 O24 1.247 . S
C27 O25 1.258 . S
C28 O30 1.247 . S
C28 O32 1.258 . S
C29 O36 1.247 . S
C29 O37 1.258 . S
O30 C28 1.247 . S
O30 Zn31 2.028 . S
Zn31 O30 2.028 . S
Zn31 O35 2.035 . S
Zn31 O37 2.035 . S
Zn31 O38 2.028 . S
O32 C28 1.258 . S
O32 Zn33 2.035 . S
Zn33 O32 2.035 . S
Zn33 O34 2.028 . S
Zn33 O36 2.028 . S
Zn33 O39 2.035 . S
O34 Zn33 2.028 . S
O34 C40 1.247 . S
O35 Zn31 2.035 . S
O35 C40 1.258 . S
O36 C29 1.247 . S
O36 Zn33 2.028 . S
O37 C29 1.258 . S
O37 Zn31 2.035 . S
O38 Zn31 2.028 . S
O38 C41 1.247 . S
O39 Zn33 2.035 . S
O39 C41 1.258 . S
C40 O34 1.247 . S
C40 O35 1.258 . S
C41 O38 1.247 . S
C41 O39 1.258 . S
C42 O44 1.247 . S
C42 O46 1.258 . S
C43 O50 1.247 . S
C43 O51 1.258 . S
O44 C42 1.247 . S
O44 Zn45 2.028 . S
Zn45 O44 2.028 . S
Zn45 O49 2.035 . S
Zn45 O51 2.035 . S
Zn45 O52 2.028 . S
O46 C42 1.258 . S
O46 Zn47 2.035 . S
Zn47 O46 2.035 . S
Zn47 O48 2.028 . S
Zn47 O50 2.028 . S
Zn47 O53 2.035 . S
O48 Zn47 2.028 . S
O48 C54 1.247 . S
O49 Zn45 2.035 . S
O49 C54 1.258 . S
O50 C43 1.247 . S
O50 Zn47 2.028 . S
O51 C43 1.258 . S
O51 Zn45 2.035 . S
O52 Zn45 2.028 . S
O52 C55 1.247 . S
O53 Zn47 2.035 . S
O53 C55 1.258 . S
C54 O48 1.247 . S
C54 O49 1.258 . S
C55 O52 1.247 . S
C55 O53 1.258 . S
C56 O58 1.247 . S
C56 O60 1.258 . S
C57 O64 1.247 . S
C57 O65 1.258 . S
O58 C56 1.247 . S
O58 Zn59 2.028 . S
Zn59 O58 2.028 . S
Zn59 O63 2.035 . S
Zn59 O65 2.035 . S
Zn59 O66 2.028 . S
O60 C56 1.258 . S
O60 Zn61 2.035 . S
Zn61 O60 2.035 . S
Zn61 O62 2.028 . S
Zn61 O64 2.028 . S
Zn61 O67 2.035 . S
O62 Zn61 2.028 . S
O62 C68 1.247 . S
O63 Zn59 2.035 . S
O63 C68 1.258 . S
O64 C57 1.247 . S
O64 Zn61 2.028 . S
O65 C57 1.258 . S
O65 Zn59 2.035 . S
O66 Zn59 2.028 . S
O66 C69 1.247 . S
O67 Zn61 2.035 . S
O67 C69 1.258 . S
C68 O62 1.247 . S
C68 O63 1.258 . S
C69 O66 1.247 . S
C69 O67 1.258 . S
C70 O72 1.247 . S
C70 O74 1.258 . S
C71 O78 1.247 . S
C71 O79 1.258 . S
O72 C70 1.247 . S
O72 Zn73 2.028 . S
Zn73 O72 2.028 . S
Zn73 O77 2.035 . S
Zn73 O79 2.035 . S
Zn73 O80 2.028 . S
O74 C70 1.258 . S
O74 Zn75 2.035 . S
Zn75 O74 2.035 . S
Zn75 O76 2.028 . S
Zn75 O78 2.028 . S
Zn75 O81 2.035 . S
O76 Zn75 2.028 . S
O76 C82 1.247 . S
O77 Zn73 2.035 . S
O77 C82 1.258 . S
O78 C71 1.247 . S
O78 Zn75 2.028 . S
O79 C71 1.258 . S
O79 Zn73 2.035 . S
O80 Zn73 2.028 . S
O80 C83 1.247 . S
O81 Zn75 2.035 . S
O81 C83 1.258 . S
C82 O76 1.247 . S
C82 O77 1.258 . S
C83 O80 1.247 . S
C83 O81 1.258 . S
C84 O86 1.247 . S
C84 O88 1.258 . S
C85 O92 1.247 . S
C85 O93 1.258 . S
O86 C84 1.247 . S
O86 Zn87 2.028 . S
Zn87 O86 2.028 . S
Zn87 O91 2.035 . S
Zn87 O93 2.035 . S
Zn87 O94 2.028 . S
O88 C84 1.258 . S
O88 Zn89 2.035 . S
Zn89 O88 2.035 . S
Zn89 O90 2.028 . S
Zn89 O92 2.028 . S
Zn89 O95 2.035 . S
O90 Zn89 2.028 . S
O90 C96 1.247 . S
O91 Zn87 2.035 . S
O91 C96 1.258 . S
O92 C85 1.247 . S
O92 Zn89 2.028 . S
O93 C85 1.258 . S
O93 Zn87 2.035 . S
O94 Zn87 2.028 . S
O94 C97 1.247 . S
O95 Zn89 2.035 . S
O95 C97 1.258 . S
C96 O90 1.247 . S
C96 O91 1.258 . S
C97 O94 1.247 . S
C97 O95 1.258 . S
C98 O100 1.247 . S
C98 O102 1.258 . S
C99 O106 1.247 . S
C99 O107 1.258 . S
O100 C98 1.247 . S
O100 Zn101 2.028 . S
Zn101 O100 2.028 . S
Zn101 O105 2.035 . S
Zn101 O107 2.035 . S
Zn101 O108 2.028 . S
O102 C98 1.258 . S
O102 Zn103 2.035 . S
Zn103 O102 2.035 . S
Zn103 O104 2.028 . S
Zn103 O106 2.028 . S
Zn103 O109 2.035 . S
O104 Zn103 2.028 . S
O104 C110 1.247 . S
O105 Zn101 2.035 . S
O105 C110 1.258 . S
O106 C99 1.247 . S
O106 Zn103 2.028 . S
O107 C99 1.258 . S
O107 Zn101 2.035 . S
O108 Zn101 2.028 . S
O108 C111 1.247 . S
O109 Zn103 2.035 . S
O109 C111 1.258 . S
C110 O104 1.247 . S
C110 O105 1.258 . S
C111 O108 1.247 . S
C111 O109 1.258 . S
C112 O114 1.247 . S
C112 O116 1.258 . S
C113 O120 1.247 . S
C113 O121 1.258 . S
O114 C112 1.247 . S
O114 Zn115 2.028 . S
Zn115 O114 2.028 . S
Zn115 O119 2.035 . S
Zn115 O121 2.035 . S
Zn115 O122 2.028 . S
O116 C112 1.258 . S
O116 Zn117 2.035 . S
Zn117 O116 2.035 . S
Zn117 O118 2.028 . S
Zn117 O120 2.028 . S
Zn117 O123 2.035 . S
O118 Zn117 2.028 . S
O118 C124 1.247 . S
O119 Zn115 2.035 . S
O119 C124 1.258 . S
O120 C113 1.247 . S
O120 Zn117 2.028 . S
O121 C113 1.258 . S
O121 Zn115 2.035 . S
O122 Zn115 2.028 . S
O122 C125 1.247 . S
O123 Zn117 2.035 . S
O123 C125 1.258 . S
C124 O118 1.247 . S
C124 O119 1.258 . S
C125 O122 1.247 . S
C125 O123 1.258 . S
C126 O128 1.247 . S
C126 O130 1.258 . S
C127 O134 1.247 . S
C127 O135 1.258 . S
O128 C126 1.247 . S
O128 Zn129 2.028 . S
Zn129 O128 2.028 . S
Zn129 O133 2.035 . S
Zn129 O135 2.035 . S
Zn129 O136 2.028 . S
O130 C126 1.258 . S
O130 Zn131 2.035 . S
Zn131 O130 2.035 . S
Zn131 O132 2.028 . S
Zn131 O134 2.028 . S
Zn131 O137 2.035 . S
O132 Zn131 2.028 . S
O132 C138 1.247 . S
O133 Zn129 2.035 . S
O133 C138 1.258 . S
O134 C127 1.247 . S
O134 Zn131 2.028 . S
O135 C127 1.258 . S
O135 Zn129 2.035 . S
O136 Zn129 2.028 . S
O136 C139 1.247 . S
O137 Zn131 2.035 . S
O137 C139 1.258 . S
C138 O132 1.247 . S
C138 O133 1.258 . S
C139 O136 1.247 . S
C139 O137 1.258 . S
C140 O142 1.247 . S
C140 O144 1.258 . S
C141 O148 1.247 . S
C141 O149 1.258 . S
O142 C140 1.247 . S
O142 Zn143 2.028 . S
Zn143 O142 2.028 . S
Zn143 O147 2.035 . S
Zn143 O149 2.035 . S
Zn143 O150 2.028 . S
O144 C140 1.258 . S
O144 Zn145 2.035 . S
Zn145 O144 2.035 . S
Zn145 O146 2.028 . S
Zn145 O148 2.028 . S
Zn145 O151 2.035 . S
O146 Zn145 2.028 . S
O146 C152 1.247 . S
O147 Zn143 2.035 . S
O147 C152 1.258 . S
O148 C141 1.247 . S
O148 Zn145 2.028 . S
O149 C141 1.258 . S
O149 Zn143 2.035 . S
O150 Zn143 2.028 . S
O150 C153 1.247 . S
O151 Zn145 2.035 . S
O151 C153 1.258 . S
C152 O146 1.247 . S
C152 O147 1.258 . S
C153 O150 1.247 . S
C153 O151 1.258 . S
C154 O156 1.247 . S
C154 O158 1.258 . S
C155 O162 1.247 . S
C155 O163 1.258 . S
O156 C154 1.247 . S
O156 Zn157 2.028 . S
Zn157 O156 2.028 . S
Zn157 O161 2.035 . S
Zn157 O163 2.035 . S
Zn157 O164 2.028 . S
O158 C154 1.258 . S
O158 Zn159 2.035 . S
Zn159 O158 2.035 . S
Zn159 O160 2.028 . S
Zn159 O162 2.028 . S
Zn159 O165 2.035 . S
O160 Zn159 2.028 . S
O160 C166 1.247 . S
O161 Zn157 2.035 . S
O161 C166 1.258 . S
O162 C155 1.247 . S
O162 Zn159 2.028 . S
O163 C155 1.258 . S
O163 Zn157 2.035 . S
O164 Zn157 2.028 . S
O164 C167 1.247 . S
O165 Zn159 2.035 . S
O165 C167 1.258 . S
C166 O160 1.247 . S
C166 O161 1.258 . S
C167 O164 1.247 . S
C167 O165 1.258 . S
C168 O170 1.247 . S
C168 O172 1.258 . S
C169 O176 1.247 . S
C169 O177 1.258 . S
O170 C168 1.247 . S
O170 Zn171 2.028 . S
Zn171 O170 2.028 . S
Zn171 O175 2.035 . S
Zn171 O177 2.035 . S
Zn171 O178 2.028 . S
O172 C168 1.258 . S
O172 Zn173 2.035 . S
Zn173 O172 2.035 . S
Zn173 O174 2.028 . S
Zn173 O176 2.028 . S
Zn173 O179 2.035 . S
O174 Zn173 2.028 . S
O174 C180 1.247 . S
O175 Zn171 2.035 . S
O175 C180 1.258 . S
O176 C169 1.247 . S
O176 Zn173 2.028 . S
O177 C169 1.258 . S
O177 Zn171 2.035 . S
O178 Zn171 2.028 . S
O178 C181 1.247 . S
O179 Zn173 2.035 . S
O179 C181 1.258 . S
C180 O174 1.247 . S
C180 O175 1.258 . S
C181 O178 1.247 . S
C181 O179 1.258 . S
C182 O184 1.247 . S
C182 O186 1.258 . S
C183 O190 1.247 . S
C183 O191 1.258 . S
O184 C182 1.247 . S
O184 Zn185 2.028 . S
Zn185 O184 2.028 . S
Zn185 O189 2.035 . S
Zn185 O191 2.035 . S
Zn185 O192 2.028 . S
O186 C182 1.258 . S
O186 Zn187 2.035 . S
Zn187 O186 2.035 . S
Zn187 O188 2.028 . S
Zn187 O190 2.028 . S
Zn187 O193 2.035 . S
O188 Zn187 2.028 . S
O188 C194 1.247 . S
O189 Zn185 2.035 . S
O189 C194 1.258 . S
O190 C183 1.247 . S
O190 Zn187 2.028 . S
O191 C183 1.258 . S
O191 Zn185 2.035 . S
O192 Zn185 2.028 . S
O192 C195 1.247 . S
O193 Zn187 2.035 . S
O193 C195 1.258 . S
C194 O188 1.247 . S
C194 O189 1.258 . S
C195 O192 1.247 . S
C195 O193 1.258 . S
C196 O198 1.247 . S
C196 O200 1.258 . S
C197 O204 1.247 . S
C197 O205 1.258 . S
O198 C196 1.247 . S
O198 Zn199 2.028 . S
Zn199 O198 2.028 . S
Zn199 O203 2.035 . S
Zn199 O205 2.035 . S
Zn199 O206 2.028 . S
O200 C196 1.258 . S
O200 Zn201 2.035 . S
Zn201 O200 2.035 . S
Zn201 O202 2.028 . S
Zn201 O204 2.028 . S
Zn201 O207 2.035 . S
O202 Zn201 2.028 . S
O202 C208 1.247 . S
O203 Zn199 2.035 . S
O203 C208 1.258 . S
O204 C197 1.247 . S
O204 Zn201 2.028 . S
O205 C197 1.258 . S
O205 Zn199 2.035 . S
O206 Zn199 2.028 . S
O206 C209 1.247 . S
O207 Zn201 2.035 . S
O207 C209 1.258 . S
C208 O202 1.247 . S
C208 O203 1.258 . S
C209 O206 1.247 . S
C209 O207 1.258 . S
C210 O212 1.247 . S
C210 O214 1.258 . S
C211 O218 1.247 . S
C211 O219 1.258 . S
O212 C210 1.247 . S
O212 Zn213 2.028 . S
Zn213 O212 2.028 . S
Zn213 O217 2.035 . S
Zn213 O219 2.035 . S
Zn213 O220 2.028 . S
O214 C210 1.258 . S
O214 Zn215 2.035 . S
Zn215 O214 2.035 . S
Zn215 O216 2.028 . S
Zn215 O218 2.028 . S
Zn215 O221 2.035 . S
O216 Zn215 2.028 . S
O216 C222 1.247 . S
O217 Zn213 2.035 . S
O217 C222 1.258 . S
O218 C211 1.247 . S
O218 Zn215 2.028 . S
O219 C211 1.258 . S
O219 Zn213 2.035 . S
O220 Zn213 2.028 . S
O220 C223 1.247 . S
O221 Zn215 2.035 . S
O221 C223 1.258 . S
C222 O216 1.247 . S
C222 O217 1.258 . S
C223 O220 1.247 . S
C223 O221 1.258 . S
C224 O226 1.247 . S
C224 O228 1.258 . S
C225 O232 1.247 . S
C225 O233 1.258 . S
O226 C224 1.247 . S
O226 Zn227 2.028 . S
Zn227 O226 2.028 . S
Zn227 O231 2.035 . S
Zn227 O233 2.035 . S
Zn227 O234 2.028 . S
O228 C224 1.258 . S
O228 Zn229 2.035 . S
Zn229 O228 2.035 . S
Zn229 O230 2.028 . S
Zn229 O232 2.028 . S
Zn229 O235 2.035 . S
O230 Zn229 2.028 . S
O230 C236 1.247 . S
O231 Zn227 2.035 . S
O231 C236 1.258 . S
O232 C225 1.247 . S
O232 Zn229 2.028 . S
O233 C225 1.258 . S
O233 Zn227 2.035 . S
O234 Zn227 2.028 . S
O234 C237 1.247 . S
O235 Zn229 2.035 . S
O235 C237 1.258 . S
C236 O230 1.247 . S
C236 O231 1.258 . S
C237 O234 1.247 . S
C237 O235 1.258 . S
C238 O240 1.247 . S
C238 O242 1.258 . S
C239 O246 1.247 . S
C239 O247 1.258 . S
O240 C238 1.247 . S
O240 Zn241 2.028 . S
Zn241 O240 2.028 . S
Zn241 O245 2.035 . S
Zn241 O247 2.035 . S
Zn241 O248 2.028 . S
O242 C238 1.258 . S
O242 Zn243 2.035 . S
Zn243 O242 2.035 . S
Zn243 O244 2.028 . S
Zn243 O246 2.028 . S
Zn243 O249 2.035 . S
O244 Zn243 2.028 . S
O244 C250 1.247 . S
O245 Zn241 2.035 . S
O245 C250 1.258 . S
O246 C239 1.247 . S
O246 Zn243 2.028 . S
O247 C239 1.258 . S
O247 Zn241 2.035 . S
O248 Zn241 2.028 . S
O248 C251 1.247 . S
O249 Zn243 2.035 . S
O249 C251 1.258 . S
C250 O244 1.247 . S
C250 O245 1.258 . S
C251 O248 1.247 . S
C251 O249 1.258 . S
C252 O254 1.247 . S
C252 O256 1.258 . S
C253 O260 1.247 . S
C253 O261 1.258 . S
O254 C252 1.247 . S
O254 Zn255 2.028 . S
Zn255 O254 2.028 . S
Zn255 O259 2.035 . S
Zn255 O261 2.035 . S
Zn255 O262 2.028 . S
O256 C252 1.258 . S
O256 Zn257 2.035 . S
Zn257 O256 2.035 . S
Zn257 O258 2.028 . S
Zn257 O260 2.028 . S
Zn257 O263 2.035 . S
O258 Zn257 2.028 . S
O258 C264 1.247 . S
O259 Zn255 2.035 . S
O259 C264 1.258 . S
O260 C253 1.247 . S
O260 Zn257 2.028 . S
O261 C253 1.258 . S
O261 Zn255 2.035 . S
O262 Zn255 2.028 . S
O262 C265 1.247 . S
O263 Zn257 2.035 . S
O263 C265 1.258 . S
C264 O258 1.247 . S
C264 O259 1.258 . S
C265 O262 1.247 . S
C265 O263 1.258 . S
C266 O268 1.247 . S
C266 O270 1.258 . S
C267 O274 1.247 . S
C267 O275 1.258 . S
O268 C266 1.247 . S
O268 Zn269 2.028 . S
Zn269 O268 2.028 . S
Zn269 O273 2.035 . S
Zn269 O275 2.035 . S
Zn269 O276 2.028 . S
O270 C266 1.258 . S
O270 Zn271 2.035 . S
Zn271 O270 2.035 . S
Zn271 O272 2.028 . S
Zn271 O274 2.028 . S
Zn271 O277 2.035 . S
O272 Zn271 2.028 . S
O272 C278 1.247 . S
O273 Zn269 2.035 . S
O273 C278 1.258 . S
O274 C267 1.247 . S
O274 Zn271 2.028 . S
O275 C267 1.258 . S
O275 Zn269 2.035 . S
O276 Zn269 2.028 . S
O276 C279 1.247 . S
O277 Zn271 2.035 . S
O277 C279 1.258 . S
C278 O272 1.247 . S
C278 O273 1.258 . S
C279 O276 1.247 . S
C279 O277 1.258 . S
C280 O282 1.247 . S
C280 O284 1.258 . S
C281 O288 1.247 . S
C281 O289 1.258 . S
O282 C280 1.247 . S
O282 Zn283 2.028 . S
Zn283 O282 2.028 . S
Zn283 O287 2.035 . S
Zn283 O289 2.035 . S
Zn283 O290 2.028 . S
O284 C280 1.258 . S
O284 Zn285 2.035 . S
Zn285 O284 2.035 . S
Zn285 O286 2.028 . S
Zn285 O288 2.028 . S
Zn285 O291 2.035 . S
O286 Zn285 2.028 . S
O286 C292 1.247 . S
O287 Zn283 2.035 . S
O287 C292 1.258 . S
O288 C281 1.247 . S
O288 Zn285 2.028 . S
O289 C281 1.258 . S
O289 Zn283 2.035 . S
O290 Zn283 2.028 . S
O290 C293 1.247 . S
O291 Zn285 2.035 . S
O291 C293 1.258 . S
C292 O286 1.247 . S
C292 O287 1.258 . S
C293 O290 1.247 . S
C293 O291 1.258 . S
C294 O296 1.247 . S
C294 O298 1.258 . S
C295 O302 1.247 . S
C295 O303 1.258 . S
O296 C294 1.247 . S
O296 Zn297 2.028 . S
Zn297 O296 2.028 . S
Zn297 O301 2.035 . S
Zn297 O303 2.035 . S
Zn297 O304 2.028 . S
O298 C294 1.258 . S
O298 Zn299 2.035 . S
Zn299 O298 2.035 . S
Zn299 O300 2.028 . S
Zn299 O302 2.028 . S
Zn299 O305 2.035 . S
O300 Zn299 2.028 . S
O300 C306 1.247 . S
O301 Zn297 2.035 . S
O301 C306 1.258 . S
O302 C295 1.247 . S
O302 Zn299 2.028 . S
O303 C295 1.258 . S
O303 Zn297 2.035 . S
O304 Zn297 2.028 . S
O304 C307 1.247 . S
O305 Zn299 2.035 . S
O305 C307 1.258 . S
C306 O300 1.247 . S
C306 O301 1.258 . S
C307 O304 1.247 . S
C307 O305 1.258 . S
C308 O310 1.247 . S
C308 O312 1.258 . S
C309 O316 1.247 . S
C309 O317 1.258 . S
O310 C308 1.247 . S
O310 Zn311 2.028 . S
Zn311 O310 2.028 . S
Zn311 O315 2.035 . S
Zn311 O317 2.035 . S
Zn311 O318 2.028 . S
O312 C308 1.258 . S
O312 Zn313 2.035 . S
Zn313 O312 2.035 . S
Zn313 O314 2.028 . S
Zn313 O316 2.028 . S
Zn313 O319 2.035 . S
O314 Zn313 2.028 . S
O314 C320 1.247 . S
O315 Zn311 2.035 . S
O315 C320 1.258 . S
O316 C309 1.247 . S
O316 Zn313 2.028 . S
O317 C309 1.258 . S
O317 Zn311 2.035 . S
O318 Zn311 2.028 . S
O318 C321 1.247 . S
O319 Zn313 2.035 . S
O319 C321 1.258 . S
C320 O314 1.247 . S
C320 O315 1.258 . S
C321 O318 1.247 . S
C321 O319 1.258 . S
C322 O324 1.247 . S
C322 O326 1.258 . S
C323 O330 1.247 . S
C323 O331 1.258 . S
O324 C322 1.247 . S
O324 Zn325 2.028 . S
Zn325 O324 2.028 . S
Zn325 O329 2.035 . S
Zn325 O331 2.035 . S
Zn325 O332 2.028 . S
O326 C322 1.258 . S
O326 Zn327 2.035 . S
Zn327 O326 2.035 . S
Zn327 O328 2.028 . S
Zn327 O330 2.028 . S
Zn327 O333 2.035 . S
O328 Zn327 2.028 . S
O328 C334 1.247 . S
O329 Zn325 2.035 . S
O329 C334 1.258 . S
O330 C323 1.247 . S
O330 Zn327 2.028 . S
O331 C323 1.258 . S
O331 Zn325 2.035 . S
O332 Zn325 2.028 . S
O332 C335 1.247 . S
O333 Zn327 2.035 . S
O333 C335 1.258 . S
C334 O328 1.247 . S
C334 O329 1.258 . S
C335 O332 1.247 . S
C335 O333 1.258 . S
C336 O338 1.247 . S
C336 O340 1.258 . S
C337 O344 1.247 . S
C337 O345 1.258 . S
O338 C336 1.247 . S
O338 Zn339 2.028 . S
Zn339 O338 2.028 . S
Zn339 O343 2.035 . S
Zn339 O345 2.035 . S
Zn339 O346 2.028 . S
O340 C336 1.258 . S
O340 Zn341 2.035 . S
Zn341 O340 2.035 . S
Zn341 O342 2.028 . S
Zn341 O344 2.028 . S
Zn341 O347 2.035 . S
O342 Zn341 2.028 . S
O342 C348 1.247 . S
O343 Zn339 2.035 . S
O343 C348 1.258 . S
O344 C337 1.247 . S
O344 Zn341 2.028 . S
O345 C337 1.258 . S
O345 Zn339 2.035 . S
O346 Zn339 2.028 . S
O346 C349 1.247 . S
O347 Zn341 2.035 . S
O347 C349 1.258 . S
C348 O342 1.247 . S
C348 O343 1.258 . S
C349 O346 1.247 . S
C349 O347 1.258 . S
C350 O352 1.247 . S
C350 O354 1.258 . S
C351 O358 1.247 . S
C351 O359 1.258 . S
O352 C350 1.247 . S
O352 Zn353 2.028 . S
Zn353 O352 2.028 . S
Zn353 O357 2.035 . S
Zn353 O359 2.035 . S
Zn353 O360 2.028 . S
O354 C350 1.258 . S
O354 Zn355 2.035 . S
Zn355 O354 2.035 . S
Zn355 O356 2.028 . S
Zn355 O358 2.028 . S
Zn355 O361 2.035 . S
O356 Zn355 2.028 . S
O356 C362 1.247 . S
O357 Zn353 2.035 . S
O357 C362 1.258 . S
O358 C351 1.247 . S
O358 Zn355 2.028 . S
O359 C351 1.258 . S
O359 Zn353 2.035 . S
O360 Zn353 2.028 . S
O360 C363 1.247 . S
O361 Zn355 2.035 . S
O361 C363 1.258 . S
C362 O356 1.247 . S
C362 O357 1.258 . S
C363 O360 1.247 . S
C363 O361 1.258 . S
C364 O366 1.247 . S
C364 O368 1.258 . S
C365 O372 1.247 . S
C365 O373 1.258 . S
O366 C364 1.247 . S
O366 Zn367 2.028 . S
Zn367 O366 2.028 . S
Zn367 O371 2.035 . S
Zn367 O373 2.035 . S
Zn367 O374 2.028 . S
O368 C364 1.258 . S
O368 Zn369 2.035 . S
Zn369 O368 2.035 . S
Zn369 O370 2.028 . S
Zn369 O372 2.028 . S
Zn369 O375 2.035 . S
O370 Zn369 2.028 . S
O370 C376 1.247 . S
O371 Zn367 2.035 . S
O371 C376 1.258 . S
O372 C365 1.247 . S
O372 Zn369 2.028 . S
O373 C365 1.258 . S
O373 Zn367 2.035 . S
O374 Zn367 2.028 . S
O374 C377 1.247 . S
O375 Zn369 2.035 . S
O375 C377 1.258 . S
C376 O370 1.247 . S
C376 O371 1.258 . S
C377 O374 1.247 . S
C377 O375 1.258 . S
C378 O380 1.247 . S
C378 O382 1.258 . S
C379 O386 1.247 . S
C379 O387 1.258 . S
O380 C378 1.247 . S
O380 Zn381 2.028 . S
Zn381 O380 2.028 . S
Zn381 O385 2.035 . S
Zn381 O387 2.035 . S
Zn381 O388 2.028 . S
O382 C378 1.258 . S
O382 Zn383 2.035 . S
Zn383 O382 2.035 . S
Zn383 O384 2.028 . S
Zn383 O386 2.028 . S
Zn383 O389 2.035 . S
O384 Zn383 2.028 . S
O384 C390 1.247 . S
O385 Zn381 2.035 . S
O385 C390 1.258 . S
O386 C379 1.247 . S
O386 Zn383 2.028 . S
O387 C379 1.258 . S
O387 Zn381 2.035 . S
O388 Zn381 2.028 . S
O388 C391 1.247 . S
O389 Zn383 2.035 . S
O389 C391 1.258 . S
C390 O384 1.247 . S
C390 O385 1.258 . S
C391 O388 1.247 . S
C391 O389 1.258 . S
C392 O394 1.247 . S
C392 O396 1.258 . S
C393 O400 1.247 . S
C393 O401 1.258 . S
O394 C392 1.247 . S
O394 Zn395 2.028 . S
Zn395 O394 2.028 . S
Zn395 O399 2.035 . S
Zn395 O401 2.035 . S
Zn395 O402 2.028 . S
O396 C392 1.258 . S
O396 Zn397 2.035 . S
Zn397 O396 2.035 . S
Zn397 O398 2.028 . S
Zn397 O400 2.028 . S
Zn397 O403 2.035 . S
O398 Zn397 2.028 . S
O398 C404 1.247 . S
O399 Zn395 2.035 . S
O399 C404 1.258 . S
O400 C393 1.247 . S
O400 Zn397 2.028 . S
O401 C393 1.258 . S
O401 Zn395 2.035 . S
O402 Zn395 2.028 . S
O402 C405 1.247 . S
O403 Zn397 2.035 . S
O403 C405 1.258 . S
C404 O398 1.247 . S
C404 O399 1.258 . S
C405 O402 1.247 . S
C405 O403 1.258 . S
C406 O408 1.247 . S
C406 O410 1.258 . S
C407 O414 1.247 . S
C407 O415 1.258 . S
O408 C406 1.247 . S
O408 Zn409 2.028 . S
Zn409 O408 2.028 . S
Zn409 O413 2.035 . S
Zn409 O415 2.035 . S
Zn409 O416 2.028 . S
O410 C406 1.258 . S
O410 Zn411 2.035 . S
Zn411 O410 2.035 . S
Zn411 O412 2.028 . S
Zn411 O414 2.028 . S
Zn411 O417 2.035 . S
O412 Zn411 2.028 . S
O412 C418 1.247 . S
O413 Zn409 2.035 . S
O413 C418 1.258 . S
O414 C407 1.247 . S
O414 Zn411 2.028 . S
O415 C407 1.258 . S
O415 Zn409 2.035 . S
O416 Zn409 2.028 . S
O416 C419 1.247 . S
O417 Zn411 2.035 . S
O417 C419 1.258 . S
C418 O412 1.247 . S
C418 O413 1.258 . S
C419 O416 1.247 . S
C419 O417 1.258 . S
C420 O422 1.247 . S
C420 O424 1.258 . S
C421 O428 1.247 . S
C421 O429 1.258 . S
O422 C420 1.247 . S
O422 Zn423 2.028 . S
Zn423 O422 2.028 . S
Zn423 O427 2.035 . S
Zn423 O429 2.035 . S
Zn423 O430 2.028 . S
O424 C420 1.258 . S
O424 Zn425 2.035 . S
Zn425 O424 2.035 . S
Zn425 O426 2.028 . S
Zn425 O428 2.028 . S
Zn425 O431 2.035 . S
O426 Zn425 2.028 . S
O426 C432 1.247 . S
O427 Zn423 2.035 . S
O427 C432 1.258 . S
O428 C421 1.247 . S
O428 Zn425 2.028 . S
O429 C421 1.258 . S
O429 Zn423 2.035 . S
O430 Zn423 2.028 . S
O430 C433 1.247 . S
O431 Zn425 2.035 . S
O431 C433 1.258 . S
C432 O426 1.247 . S
C432 O427 1.258 . S
C433 O430 1.247 . S
C433 O431 1.258 . S
C434 O436 1.247 . S
C434 O438 1.258 . S
C435 O442 1.247 . S
C435 O443 1.258 . S
O436 C434 1.247 . S
O436 Zn437 2.028 . S
Zn437 O436 2.028 . S
Zn437 O441 2.035 . S
Zn437 O443 2.035 . S
Zn437 O444 2.028 . S
O438 C434 1.258 . S
O438 Zn439 2.035 . S
Zn439 O438 2.035 . S
Zn439 O440 2.028 . S
Zn439 O442 2.028 . S
Zn439 O445 2.035 . S
O440 Zn439 2.028 . S
O440 C446 1.247 . S
O441 Zn437 2.035 . S
O441 C446 1.258 . S
O442 C435 1.247 . S
O442 Zn439 2.028 . S
O443 C435 1.258 . S
O443 Zn437 2.035 . S
O444 Zn437 2.028 . S
O444 C447 1.247 . S
O445 Zn439 2.035 . S
O445 C447 1.258 . S
C446 O440 1.247 . S
C446 O441 1.258 . S
C447 O444 1.247 . S
C447 O445 1.258 . S
C448 O450 1.247 . S
C448 O452 1.258 . S
C449 O456 1.247 . S
C449 O457 1.258 . S
O450 C448 1.247 . S
O450 Zn451 2.028 . S
Zn451 O450 2.028 . S
Zn451 O455 2.035 . S
Zn451 O457 2.035 . S
Zn451 O458 2.028 . S
O452 C448 1.258 . S
O452 Zn453 2.035 . S
Zn453 O452 2.035 . S
Zn453 O454 2.028 . S
Zn453 O456 2.028 . S
Zn453 O459 2.035 . S
O454 Zn453 2.028 . S
O454 C460 1.247 . S
O455 Zn451 2.035 . S
O455 C460 1.258 . S
O456 C449 1.247 . S
O456 Zn453 2.028 . S
O457 C449 1.258 . S
O457 Zn451 2.035 . S
O458 Zn451 2.028 . S
O458 C461 1.247 . S
O459 Zn453 2.035 . S
O459 C461 1.258 . S
C460 O454 1.247 . S
C460 O455 1.258 . S
C461 O458 1.247 . S
C461 O459 1.258 . S
C462 O464 1.247 . S
C462 O466 1.258 . S
C463 O470 1.247 . S
C463 O471 1.258 . S
O464 C462 1.247 . S
O464 Zn465 2.028 . S
Zn465 O464 2.028 . S
Zn465 O469 2.035 . S
Zn465 O471 2.035 . S
Zn465 O472 2.028 . S
O466 C462 1.258 . S
O466 Zn467 2.035 . S
Zn467 O466 2.035 . S
Zn467 O468 2.028 . S
Zn467 O470 2.028 . S
Zn467 O473 2.035 . S
O468 Zn467 2.028 . S
O468 C474 1.247 . S
O469 Zn465 2.035 . S
O469 C474 1.258 . S
O470 C463 1.247 . S
O470 Zn467 2.028 . S
O471 C463 1.258 . S
O471 Zn465 2.035 . S
O472 Zn465 2.028 . S
O472 C475 1.247 . S
O473 Zn467 2.035 . S
O473 C475 1.258 . S
C474 O468 1.247 . S
C474 O469 1.258 . S
C475 O472 1.247 . S
C475 O473 1.258 . S
C476 O478 1.247 . S
C476 O480 1.258 . S
C477 O484 1.247 . S
C477 O485 1.258 . S
O478 C476 1.247 . S
O478 Zn479 2.028 . S
Zn479 O478 2.028 . S
Zn479 O483 2.035 . S
Zn479 O485 2.035 . S
Zn479 O486 2.028 . S
O480 C476 1.258 . S
O480 Zn481 2.035 . S
Zn481 O480 2.035 . S
Zn481 O482 2.028 . S
Zn481 O484 2.028 . S
Zn481 O487 2.035 . S
O482 Zn481 2.028 . S
O482 C488 1.247 . S
O483 Zn479 2.035 . S
O483 C488 1.258 . S
O484 C477 1.247 . S
O484 Zn481 2.028 . S
O485 C477 1.258 . S
O485 Zn479 2.035 . S
O486 Zn479 2.028 . S
O486 C489 1.247 . S
O487 Zn481 2.035 . S
O487 C489 1.258 . S
C488 O482 1.247 . S
C488 O483 1.258 . S
C489 O486 1.247 . S
C489 O487 1.258 . S
C490 O492 1.247 . S
C490 O494 1.258 . S
C491 O498 1.247 . S
C491 O499 1.258 . S
O492 C490 1.247 . S
O492 Zn493 2.028 . S
Zn493 O492 2.028 . S
Zn493 O497 2.035 . S
Zn493 O499 2.035 . S
Zn493 O500 2.028 . S
O494 C490 1.258 . S
O494 Zn495 2.035 . S
Zn495 O494 2.035 . S
Zn495 O496 2.028 . S
Zn495 O498 2.028 . S
Zn495 O501 2.035 . S
O496 Zn495 2.028 . S
O496 C502 1.247 . S
O497 Zn493 2.035 . S
O497 C502 1.258 . S
O498 C491 1.247 . S
O498 Zn495 2.028 . S
O499 C491 1.258 . S
O499 Zn493 2.035 . S
O500 Zn493 2.028 . S
O500 C503 1.247 . S
O501 Zn495 2.035 . S
O501 C503 1.258 . S
C502 O496 1.247 . S
C502 O497 1.258 . S
C503 O500 1.247 . S
C503 O501 1.258 . S
C504 C505 1.387 . S
C504 H508 0.950 . S
C504 C513 1.390 . S
C505 C504 1.387 . S
C505 C507 1.387 . S
H506 C513 0.950 . S
C507 C505 1.387 . S
C507 C509 1.390 . S
C507 H511 0.950 . S
H508 C504 0.950 . S
C509 C507 1.390 . S
C509 C510 1.387 . S
C509 H512 0.950 . S
C510 C509 1.387 . S
C510 C513 1.387 . S
H511 C507 0.950 . S
H512 C509 0.950 . S
C513 C504 1.390 . S
C513 H506 0.950 . S
C513 C510 1.387 . S
C514 C515 1.387 . S
C514 H518 0.950 . S
C514 C523 1.390 . S
C515 C514 1.387 . S
C515 C517 1.387 . S
H516 C523 0.950 . S
C517 C515 1.387 . S
C517 C519 1.390 . S
C517 H521 0.950 . S
H518 C514 0.950 . S
C519 C517 1.390 . S
C519 C520 1.387 . S
C519 H522 0.950 . S
C520 C519 1.387 . S
C520 C523 1.387 . S
H521 C517 0.950 . S
H522 C519 0.950 . S
C523 C514 1.390 . S
C523 H516 0.950 . S
C523 C520 1.387 . S
C524 C525 1.387 . S
C524 H528 0.950 . S
C524 C533 1.390 . S
C525 C524 1.387 . S
C525 C527 1.387 . S
H526 C533 0.950 . S
C527 C525 1.387 . S
C527 C529 1.390 . S
C527 H531 0.950 . S
H528 C524 0.950 . S
C529 C527 1.390 . S
C529 C530 1.387 . S
C529 H532 0.950 . S
C530 C529 1.387 . S
C530 C533 1.387 . S
H531 C527 0.950 . S
H532 C529 0.950 . S
C533 C524 1.390 . S
C533 H526 0.950 . S
C533 C530 1.387 . S
C534 C535 1.387 . S
C534 H538 0.950 . S
C534 C543 1.390 . S
C535 C534 1.387 . S
C535 C537 1.387 . S
H536 C543 0.950 . S
C537 C535 1.387 . S
C537 C539 1.390 . S
C537 H541 0.950 . S
H538 C534 0.950 . S
C539 C537 1.390 . S
C539 C540 1.387 . S
C539 H542 0.950 . S
C540 C539 1.387 . S
C540 C543 1.387 . S
H541 C537 0.950 . S
H542 C539 0.950 . S
C543 C534 1.390 . S
C543 H536 0.950 . S
C543 C540 1.387 . S
C544 C545 1.387 . S
C544 H548 0.950 . S
C544 C553 1.390 . S
C545 C544 1.387 . S
C545 C547 1.387 . S
H546 C553 0.950 . S
C547 C545 1.387 . S
C547 C549 1.390 . S
C547 H551 0.950 . S
H548 C544 0.950 . S
C549 C547 1.390 . S
C549 C550 1.387 . S
C549 H552 0.950 . S
C550 C549 1.387 . S
C550 C553 1.387 . S
H551 C547 0.950 . S
H552 C549 0.950 . S
C553 C544 1.390 . S
C553 H546 0.950 . S
C553 C550 1.387 . S
C554 C555 1.387 . S
C554 H558 0.950 . S
C554 C563 1.390 . S
C555 C554 1.387 . S
C555 C557 1.387 . S
H556 C563 0.950 . S
C557 C555 1.387 . S
C557 C559 1.390 . S
C557 H561 0.950 . S
H558 C554 0.950 . S
C559 C557 1.390 . S
C559 C560 1.387 . S
C559 H562 0.950 . S
C560 C559 1.387 . S
C560 C563 1.387 . S
H561 C557 0.950 . S
H562 C559 0.950 . S
C563 C554 1.390 . S
C563 H556 0.950 . S
C563 C560 1.387 . S
C564 C565 1.387 . S
C564 H568 0.950 . S
C564 C573 1.390 . S
C565 C564 1.387 . S
C565 C567 1.387 . S
H566 C573 0.950 . S
C567 C565 1.387 . S
C567 C569 1.390 . S
C567 H571 0.950 . S
H568 C564 0.950 . S
C569 C567 1.390 . S
C569 C570 1.387 . S
C569 H572 0.950 . S
C570 C569 1.387 . S
C570 C573 1.387 . S
H571 C567 0.950 . S
H572 C569 0.950 . S
C573 C564 1.390 . S
C573 H566 0.950 . S
C573 C570 1.387 . S
C574 C575 1.387 . S
C574 H578 0.950 . S
C574 C583 1.390 . S
C575 C574 1.387 . S
C575 C577 1.387 . S
H576 C583 0.950 . S
C577 C575 1.387 . S
C577 C579 1.390 . S
C577 H581 0.950 . S
H578 C574 0.950 . S
C579 C577 1.390 . S
C579 C580 1.387 . S
C579 H582 0.950 . S
C580 C579 1.387 . S
C580 C583 1.387 . S
H581 C577 0.950 . S
H582 C579 0.950 . S
C583 C574 1.390 . S
C583 H576 0.950 . S
C583 C580 1.387 . S
C584 C585 1.387 . S
C584 H588 0.950 . S
C584 C593 1.390 . S
C585 C584 1.387 . S
C585 C587 1.387 . S
H586 C593 0.950 . S
C587 C585 1.387 . S
C587 C589 1.390 . S
C587 H591 0.950 . S
H588 C584 0.950 . S
C589 C587 1.390 . S
C589 C590 1.387 . S
C589 H592 0.950 . S
C590 C589 1.387 . S
C590 C593 1.387 . S
H591 C587 0.950 . S
H592 C589 0.950 . S
C593 C584 1.390 . S
C593 H586 0.950 . S
C593 C590 1.387 . S
C594 C595 1.387 . S
C594 H598 0.950 . S
C594 C603 1.390 . S
C595 C594 1.387 . S
C595 C597 1.387 . S
H596 C603 0.950 . S
C597 C595 1.387 . S
C597 C599 1.390 . S
C597 H601 0.950 . S
H598 C594 0.950 . S
C599 C597 1.390 . S
C599 C600 1.387 . S
C599 H602 0.950 . S
C600 C599 1.387 . S
C600 C603 1.387 . S
H601 C597 0.950 . S
H602 C599 0.950 . S
C603 C594 1.390 . S
C603 H596 0.950 . S
C603 C600 1.387 . S
C604 C605 1.387 . S
C604 H608 0.950 . S
C604 C613 1.390 . S
C605 C604 1.387 . S
C605 C607 1.387 . S
H606 C613 0.950 . S
C607 C605 1.387 . S
C607 C609 1.390 . S
C607 H611 0.950 . S
H608 C604 0.950 . S
C609 C607 1.390 . S
C609 C610 1.387 . S
C609 H612 0.950 . S
C610 C609 1.387 . S
C610 C613 1.387 . S
H611 C607 0.950 . S
H612 C609 0.950 . S
C613 C604 1.390 . S
C613 H606 0.950 . S
C613 C610 1.387 . S
C614 C615 1.387 . S
C614 H618 0.950 . S
C614 C623 1.390 . S
C615 C614 1.387 . S
C615 C617 1.387 . S
H616 C623 0.950 . S
C617 C615 1.387 . S
C617 C619 1.390 . S
C617 H621 0.950 . S
H618 C614 0.950 . S
C619 C617 1.390 . S
C619 C620 1.387 . S
C619 H622 0.950 . S
C620 C619 1.387 . S
C620 C623 1.387 . S
H621 C617 0.950 . S
H622 C619 0.950 . S
C623 C614 1.390 . S
C623 H616 0.950 . S
C623 C620 1.387 . S
C624 C625 1.387 . S
C624 H628 0.950 . S
C624 C633 1.390 . S
C625 C624 1.387 . S
C625 C627 1.387 1_655 S
H626 C633 0.950 . S
C627 C625 1.387 1_455 S
C627 C629 1.390 . S
C627 H631 0.950 . S
H628 C624 0.950 . S
C629 C627 1.390 . S
C629 C630 1.387 . S
C629 H632 0.950 . S
C630 C629 1.387 . S
C630 C633 1.387 1_455 S
H631 C627 0.950 . S
H632 C629 0.950 . S
C633 C624 1.390 . S
C633 H626 0.950 . S
C633 C630 1.387 1_655 S
C634 C635 1.387 . S
C634 H638 0.950 . S
C634 C643 1.390 . S
C635 C634 1.387 . S
C635 C637 1.387 . S
H636 C643 0.950 . S
C637 C635 1.387 . S
C637 C639 1.390 . S
C637 H641 0.950 . S
H638 C634 0.950 . S
C639 C637 1.390 . S
C639 C640 1.387 . S
C639 H642 0.950 . S
C640 C639 1.387 . S
C640 C643 1.387 . S
H641 C637 0.950 . S
H642 C639 0.950 . S
C643 C634 1.390 . S
C643 H636 0.950 . S
C643 C640 1.387 . S
C644 C645 1.387 . S
C644 H648 0.950 . S
C644 C653 1.390 . S
C645 C644 1.387 . S
C645 C647 1.387 1_545 S
H646 C653 0.950 . S
C647 C645 1.387 1_565 S
C647 C649 1.390 . S
C647 H651 0.950 . S
H648 C644 0.950 . S
C649 C647 1.390 . S
C649 C650 1.387 . S
C649 H652 0.950 . S
C650 C649 1.387 . S
C650 C653 1.387 1_565 S
H651 C647 0.950 . S
H652 C649 0.950 . S
C653 C644 1.390 . S
C653 H646 0.950 . S
C653 C650 1.387 1_545 S
C654 C655 1.372 1_554 S
C654 H658 0.950 . S
C654 C663 1.405 . S
C655 C654 1.372 1_556 S
C655 C657 1.387 1_545 S
H656 C663 0.950 . S
C657 C655 1.387 1_565 S
C657 C659 1.405 . S
C657 H661 0.950 . S
H658 C654 0.950 . S
C659 C657 1.405 . S
C659 C660 1.372 1_556 S
C659 H662 0.950 . S
C660 C659 1.372 1_554 S
C660 C663 1.387 1_565 S
H661 C657 0.950 . S
H662 C659 0.950 . S
C663 C654 1.405 . S
C663 H656 0.950 . S
C663 C660 1.387 1_545 S
C664 C665 1.387 1_455 S
C664 H668 0.950 . S
C664 C673 1.390 1_556 S
C665 C664 1.387 1_655 S
C665 C667 1.387 . S
H666 C673 0.950 . S
C667 C665 1.387 . S
C667 C669 1.390 1_556 S
C667 H671 0.950 . S
H668 C664 0.950 . S
C669 C667 1.390 1_554 S
C669 C670 1.387 1_655 S
C669 H672 0.950 . S
C670 C669 1.387 1_455 S
C670 C673 1.387 . S
H671 C667 0.950 . S
H672 C669 0.950 . S
C673 C664 1.390 1_554 S
C673 H666 0.950 . S
C673 C670 1.387 . S
C674 C675 1.387 . S
C674 H678 0.950 . S
C674 C683 1.390 1_556 S
C675 C674 1.387 . S
C675 C677 1.387 . S
H676 C683 0.950 . S
C677 C675 1.387 . S
C677 C679 1.390 1_556 S
C677 H681 0.950 . S
H678 C674 0.950 . S
C679 C677 1.390 1_554 S
C679 C680 1.387 . S
C679 H682 0.950 . S
C680 C679 1.387 . S
C680 C683 1.387 . S
H681 C677 0.950 . S
H682 C679 0.950 . S
C683 C674 1.390 1_554 S
C683 H676 0.950 . S
C683 C680 1.387 . S
C684 C685 1.387 1_554 S
C684 H688 0.950 . S
C684 C693 1.390 . S
C685 C684 1.387 1_556 S
C685 C687 1.387 . S
H686 C693 0.950 . S
C687 C685 1.387 . S
C687 C689 1.390 1_556 S
C687 H691 0.950 . S
H688 C684 0.950 . S
C689 C687 1.390 1_554 S
C689 C690 1.387 . S
C689 H692 0.950 . S
C690 C689 1.387 . S
C690 C693 1.387 . S
H691 C687 0.950 . S
H692 C689 0.950 . S
C693 C684 1.390 . S
C693 H686 0.950 . S
C693 C690 1.387 . S
C694 C695 1.387 . S
C694 H698 0.950 . S
C694 C703 1.390 . S
C695 C694 1.387 . S
C695 C697 1.387 1_556 S
H696 C703 0.950 . S
C697 C695 1.387 1_554 S
C697 C699 1.390 . S
C697 H701 0.950 . S
H698 C694 0.950 . S
C699 C697 1.390 . S
C699 C700 1.387 . S
C699 H702 0.950 . S
C700 C699 1.387 . S
C700 C703 1.387 1_554 S
H701 C697 0.950 . S
H702 C699 0.950 . S
C703 C694 1.390 . S
C703 H696 0.950 . S
C703 C700 1.387 1_556 S
C704 C705 1.387 . S
C704 H708 0.950 . S
C704 C713 1.390 1_554 S
C705 C704 1.387 . S
C705 C707 1.387 . S
H706 C713 0.950 . S
C707 C705 1.387 . S
C707 C709 1.390 . S
C707 H711 0.950 . S
H708 C704 0.950 . S
C709 C707 1.390 . S
C709 C710 1.387 1_554 S
C709 H712 0.950 . S
C710 C709 1.387 1_556 S
C710 C713 1.387 . S
H711 C707 0.950 . S
H712 C709 0.950 . S
C713 C704 1.390 1_556 S
C713 H706 0.950 . S
C713 C710 1.387 . S
C714 C715 1.387 . S
C714 H718 0.950 . S
C714 C723 1.390 . S
C715 C714 1.387 . S
C715 C717 1.387 . S
H716 C723 0.950 . S
C717 C715 1.387 . S
C717 C719 1.390 . S
C717 H721 0.950 . S
H718 C714 0.950 . S
C719 C717 1.390 . S
C719 C720 1.387 . S
C719 H722 0.950 . S
C720 C719 1.387 . S
C720 C723 1.387 . S
H721 C717 0.950 . S
H722 C719 0.950 . S
C723 C714 1.390 . S
C723 H716 0.950 . S
C723 C720 1.387 . S
C724 C725 1.387 . S
C724 H728 0.950 . S
C724 C733 1.390 . S
C725 C724 1.387 . S
C725 C727 1.387 . S
H726 C733 0.950 . S
C727 C725 1.387 . S
C727 C729 1.390 . S
C727 H731 0.950 . S
H728 C724 0.950 . S
C729 C727 1.390 . S
C729 C730 1.387 . S
C729 H732 0.950 . S
C730 C729 1.387 . S
C730 C733 1.387 . S
H731 C727 0.950 . S
H732 C729 0.950 . S
C733 C724 1.390 . S
C733 H726 0.950 . S
C733 C730 1.387 . S
C734 C735 1.387 . S
C734 H738 0.950 . S
C734 C743 1.390 . S
C735 C734 1.387 . S
C735 C737 1.387 . S
H736 C743 0.950 . S
C737 C735 1.387 . S
C737 C739 1.390 . S
C737 H741 0.950 . S
H738 C734 0.950 . S
C739 C737 1.390 . S
C739 C740 1.387 . S
C739 H742 0.950 . S
C740 C739 1.387 . S
C740 C743 1.387 . S
H741 C737 0.950 . S
H742 C739 0.950 . S
C743 C734 1.390 . S
C743 H736 0.950 . S
C743 C740 1.387 . S
C744 C745 1.387 . S
C744 H748 0.950 . S
C744 C753 1.390 . S
C745 C744 1.387 . S
C745 C747 1.387 . S
H746 C753 0.950 . S
C747 C745 1.387 . S
C747 C749 1.390 1_556 S
C747 H751 0.950 1_556 S
H748 C744 0.950 . S
C749 C747 1.390 1_554 S
C749 C750 1.387 . S
C749 H752 0.950 . S
C750 C749 1.387 . S
C750 C753 1.387 1_554 S
H751 C747 0.950 1_554 S
H752 C749 0.950 . S
C753 C744 1.390 . S
C753 H746 0.950 . S
C753 C750 1.387 1_556 S
C754 C755 1.387 . S
C754 H758 0.950 . S
C754 C763 1.390 1_556 S
C755 C754 1.387 . S
C755 C757 1.387 . S
H756 C763 0.950 . S
C757 C755 1.387 . S
C757 C759 1.390 . S
C757 H761 0.950 . S
H758 C754 0.950 . S
C759 C757 1.390 . S
C759 C760 1.387 1_556 S
C759 H762 0.950 1_556 S
C760 C759 1.387 1_554 S
C760 C763 1.387 . S
H761 C757 0.950 . S
H762 C759 0.950 1_554 S
C763 C754 1.390 1_554 S
C763 H756 0.950 . S
C763 C760 1.387 . S
C764 C765 1.387 . S
C764 H768 0.950 . S
C764 C773 1.390 1_556 S
C765 C764 1.387 . S
C765 C767 1.387 . S
H766 C773 0.950 . S
C767 C765 1.387 . S
C767 C769 1.390 . S
C767 H771 0.950 . S
H768 C764 0.950 . S
C769 C767 1.390 . S
C769 C770 1.387 1_556 S
C769 H772 0.950 . S
C770 C769 1.387 1_554 S
C770 C773 1.387 . S
H771 C767 0.950 . S
H772 C769 0.950 . S
C773 C764 1.390 1_554 S
C773 H766 0.950 . S
C773 C770 1.387 . S
C774 C775 1.387 . S
C774 H778 0.950 . S
C774 C783 1.390 . S
C775 C774 1.387 . S
C775 C777 1.387 . S
H776 C783 0.950 . S
C777 C775 1.387 . S
C777 C779 1.390 . S
C777 H781 0.950 . S
H778 C774 0.950 . S
C779 C777 1.390 . S
C779 C780 1.387 . S
C779 H782 0.950 . S
C780 C779 1.387 . S
C780 C783 1.387 . S
H781 C777 0.950 . S
H782 C779 0.950 . S
C783 C774 1.390 . S
C783 H776 0.950 . S
C783 C780 1.387 . S
C784 C785 1.387 . S
C784 H788 0.950 . S
C784 C793 1.390 . S
C785 C784 1.387 . S
C785 C787 1.387 . S
H786 C793 0.950 . S
C787 C785 1.387 . S
C787 C789 1.390 . S
C787 H791 0.950 . S
H788 C784 0.950 . S
C789 C787 1.390 . S
C789 C790 1.387 . S
C789 H792 0.950 . S
C790 C789 1.387 . S
C790 C793 1.387 . S
H791 C787 0.950 . S
H792 C789 0.950 . S
C793 C784 1.390 . S
C793 H786 0.950 . S
C793 C790 1.387 . S
C794 C795 1.387 . S
C794 H798 0.950 . S
C794 C803 1.390 . S
C795 C794 1.387 . S
C795 C797 1.387 . S
H796 C803 0.950 . S
C797 C795 1.387 . S
C797 C799 1.390 . S
C797 H801 0.950 . S
H798 C794 0.950 . S
C799 C797 1.390 . S
C799 C800 1.387 . S
C799 H802 0.950 . S
C800 C799 1.387 . S
C800 C803 1.387 . S
H801 C797 0.950 . S
H802 C799 0.950 . S
C803 C794 1.390 . S
C803 H796 0.950 . S
C803 C800 1.387 . S
C804 C805 1.387 . S
C804 H808 0.950 . S
C804 C813 1.390 . S
C805 C804 1.387 . S
C805 C807 1.387 . S
H806 C813 0.950 . S
C807 C805 1.387 . S
C807 C809 1.390 . S
C807 H811 0.950 . S
H808 C804 0.950 . S
C809 C807 1.390 . S
C809 C810 1.387 . S
C809 H812 0.950 . S
C810 C809 1.387 . S
C810 C813 1.387 . S
H811 C807 0.950 . S
H812 C809 0.950 . S
C813 C804 1.390 . S
C813 H806 0.950 . S
C813 C810 1.387 . S
C814 C815 1.387 . S
C814 H818 0.950 . S
C814 C823 1.390 . S
C815 C814 1.387 . S
C815 C817 1.387 . S
H816 C823 0.950 . S
C817 C815 1.387 . S
C817 C819 1.390 . S
C817 H821 0.950 . S
H818 C814 0.950 . S
C819 C817 1.390 . S
C819 C820 1.387 . S
C819 H822 0.950 . S
C820 C819 1.387 . S
C820 C823 1.387 . S
H821 C817 0.950 . S
H822 C819 0.950 . S
C823 C814 1.390 . S
C823 H816 0.950 . S
C823 C820 1.387 . S
C824 C825 1.387 . S
C824 H828 0.950 . S
C824 C833 1.390 . S
C825 C824 1.387 . S
C825 C827 1.387 . S
H826 C833 0.950 . S
C827 C825 1.387 . S
C827 C829 1.390 . S
C827 H831 0.950 . S
H828 C824 0.950 . S
C829 C827 1.390 . S
C829 C830 1.387 . S
C829 H832 0.950 . S
C830 C829 1.387 . S
C830 C833 1.387 . S
H831 C827 0.950 . S
H832 C829 0.950 . S
C833 C824 1.390 . S
C833 H826 0.950 . S
C833 C830 1.387 . S
C834 C835 1.387 . S
C834 H838 0.950 . S
C834 C843 1.390 . S
C835 C834 1.387 . S
C835 C837 1.387 . S
H836 C843 0.950 . S
C837 C835 1.387 . S
C837 C839 1.390 . S
C837 H841 0.950 . S
H838 C834 0.950 . S
C839 C837 1.390 . S
C839 C840 1.387 . S
C839 H842 0.950 . S
C840 C839 1.387 . S
C840 C843 1.387 . S
H841 C837 0.950 . S
H842 C839 0.950 . S
C843 C834 1.390 . S
C843 H836 0.950 . S
C843 C840 1.387 . S
C844 C845 1.387 . S
C844 H848 0.950 . S
C844 C853 1.390 . S
C845 C844 1.387 . S
C845 C847 1.387 . S
H846 C853 0.950 . S
C847 C845 1.387 . S
C847 C849 1.390 . S
C847 H851 0.950 . S
H848 C844 0.950 . S
C849 C847 1.390 . S
C849 C850 1.387 . S
C849 H852 0.950 . S
C850 C849 1.387 . S
C850 C853 1.387 . S
H851 C847 0.950 . S
H852 C849 0.950 . S
C853 C844 1.390 . S
C853 H846 0.950 . S
C853 C850 1.387 . S
C854 C855 1.387 . S
C854 H858 0.950 . S
C854 C863 1.390 . S
C855 C854 1.387 . S
C855 C857 1.387 . S
H856 C863 0.950 . S
C857 C855 1.387 . S
C857 C859 1.390 . S
C857 H861 0.950 . S
H858 C854 0.950 . S
C859 C857 1.390 . S
C859 C860 1.387 . S
C859 H862 0.950 . S
C860 C859 1.387 . S
C860 C863 1.387 . S
H861 C857 0.950 . S
H862 C859 0.950 . S
C863 C854 1.390 . S
C863 H856 0.950 . S
C863 C860 1.387 . S
C864 C865 1.387 . S
C864 H868 0.950 . S
C864 C873 1.390 . S
C865 C864 1.387 . S
C865 C867 1.387 . S
H866 C873 0.950 . S
C867 C865 1.387 . S
C867 C869 1.390 . S
C867 H871 0.950 . S
H868 C864 0.950 . S
C869 C867 1.390 . S
C869 C870 1.387 . S
C869 H872 0.950 . S
C870 C869 1.387 . S
C870 C873 1.387 . S
H871 C867 0.950 . S
H872 C869 0.950 . S
C873 C864 1.390 . S
C873 H866 0.950 . S
C873 C870 1.387 . S
C874 C875 1.387 . S
C874 H878 0.950 . S
C874 C883 1.390 . S
C875 C874 1.387 . S
C875 C877 1.387 . S
H876 C883 0.950 . S
C877 C875 1.387 . S
C877 C879 1.390 . S
C877 H881 0.950 . S
H878 C874 0.950 . S
C879 C877 1.390 . S
C879 C880 1.387 . S
C879 H882 0.950 . S
C880 C879 1.387 . S
C880 C883 1.387 . S
H881 C877 0.950 . S
H882 C879 0.950 . S
C883 C874 1.390 . S
C883 H876 0.950 . S
C883 C880 1.387 . S
C884 C885 1.387 . S
C884 H888 0.950 . S
C884 C893 1.390 . S
C885 C884 1.387 . S
C885 C887 1.387 . S
H886 C893 0.950 . S
C887 C885 1.387 . S
C887 C889 1.390 . S
C887 H891 0.950 . S
H888 C884 0.950 . S
C889 C887 1.390 . S
C889 C890 1.387 . S
C889 H892 0.950 . S
C890 C889 1.387 . S
C890 C893 1.387 . S
H891 C887 0.950 . S
H892 C889 0.950 . S
C893 C884 1.390 . S
C893 H886 0.950 . S
C893 C890 1.387 . S
C894 C895 1.387 . S
C894 H898 0.950 . S
C894 C903 1.390 . S
C895 C894 1.387 . S
C895 C897 1.387 . S
H896 C903 0.950 . S
C897 C895 1.387 . S
C897 C899 1.390 . S
C897 H901 0.950 . S
H898 C894 0.950 . S
C899 C897 1.390 . S
C899 C900 1.387 . S
C899 H902 0.950 . S
C900 C899 1.387 . S
C900 C903 1.387 . S
H901 C897 0.950 . S
H902 C899 0.950 . S
C903 C894 1.390 . S
C903 H896 0.950 . S
C903 C900 1.387 . S
C904 C905 1.387 . S
C904 H908 0.950 . S
C904 C913 1.390 . S
C905 C904 1.387 . S
C905 C907 1.387 . S
H906 C913 0.950 . S
C907 C905 1.387 . S
C907 C909 1.390 . S
C907 H911 0.950 . S
H908 C904 0.950 . S
C909 C907 1.390 . S
C909 C910 1.387 . S
C909 H912 0.950 . S
C910 C909 1.387 . S
C910 C913 1.387 . S
H911 C907 0.950 . S
H912 C909 0.950 . S
C913 C904 1.390 . S
C913 H906 0.950 . S
C913 C910 1.387 . S
C914 C915 1.387 . S
C914 H918 0.950 . S
C914 C923 1.390 . S
C915 C914 1.387 . S
C915 C917 1.387 . S
H916 C923 0.950 . S
C917 C915 1.387 . S
C917 C919 1.390 . S
C917 H921 0.950 . S
H918 C914 0.950 . S
C919 C917 1.390 . S
C919 C920 1.387 . S
C919 H922 0.950 . S
C920 C919 1.387 . S
C920 C923 1.387 . S
H921 C917 0.950 . S
H922 C919 0.950 . S
C923 C914 1.390 . S
C923 H916 0.950 . S
C923 C920 1.387 . S
C924 C925 1.387 . S
C924 H928 0.950 . S
C924 C933 1.390 . S
C925 C924 1.387 . S
C925 C927 1.387 . S
H926 C933 0.950 . S
C927 C925 1.387 . S
C927 C929 1.390 . S
C927 H931 0.950 . S
H928 C924 0.950 . S
C929 C927 1.390 . S
C929 C930 1.387 . S
C929 H932 0.950 . S
C930 C929 1.387 . S
C930 C933 1.387 . S
H931 C927 0.950 . S
H932 C929 0.950 . S
C933 C924 1.390 . S
C933 H926 0.950 . S
C933 C930 1.387 . S
C934 C935 1.387 . S
C934 H938 0.950 . S
C934 C943 1.390 . S
C935 C934 1.387 . S
C935 C937 1.387 . S
H936 C943 0.950 . S
C937 C935 1.387 . S
C937 C939 1.390 . S
C937 H941 0.950 . S
H938 C934 0.950 . S
C939 C937 1.390 . S
C939 C940 1.387 . S
C939 H942 0.950 . S
C940 C939 1.387 . S
C940 C943 1.387 . S
H941 C937 0.950 . S
H942 C939 0.950 . S
C943 C934 1.390 . S
C943 H936 0.950 . S
C943 C940 1.387 . S
C944 C945 1.387 . S
C944 H948 0.950 . S
C944 C953 1.390 . S
C945 C944 1.387 . S
C945 C947 1.387 . S
H946 C953 0.950 . S
C947 C945 1.387 . S
C947 C949 1.390 . S
C947 H951 0.950 . S
H948 C944 0.950 . S
C949 C947 1.390 . S
C949 C950 1.387 . S
C949 H952 0.950 . S
C950 C949 1.387 . S
C950 C953 1.387 . S
H951 C947 0.950 . S
H952 C949 0.950 . S
C953 C944 1.390 . S
C953 H946 0.950 . S
C953 C950 1.387 . S
C954 C955 1.387 . S
C954 H958 0.950 . S
C954 C963 1.390 . S
C955 C954 1.387 . S
C955 C957 1.387 . S
H956 C963 0.950 . S
C957 C955 1.387 . S
C957 C959 1.390 . S
C957 H961 0.950 . S
H958 C954 0.950 . S
C959 C957 1.390 . S
C959 C960 1.387 . S
C959 H962 0.950 . S
C960 C959 1.387 . S
C960 C963 1.387 . S
H961 C957 0.950 . S
H962 C959 0.950 . S
C963 C954 1.390 . S
C963 H956 0.950 . S
C963 C960 1.387 . S
C964 C965 1.387 . S
C964 H968 0.950 . S
C964 C973 1.390 . S
C965 C964 1.387 . S
C965 C967 1.387 . S
H966 C973 0.950 . S
C967 C965 1.387 . S
C967 C969 1.390 . S
C967 H971 0.950 . S
H968 C964 0.950 . S
C969 C967 1.390 . S
C969 C970 1.387 . S
C969 H972 0.950 . S
C970 C969 1.387 . S
C970 C973 1.387 . S
H971 C967 0.950 . S
H972 C969 0.950 . S
C973 C964 1.390 . S
C973 H966 0.950 . S
C973 C970 1.387 . S
C974 C975 1.387 . S
C974 H978 0.950 . S
C974 C983 1.390 . S
C975 C974 1.387 . S
C975 C977 1.387 . S
H976 C983 0.950 . S
C977 C975 1.387 . S
C977 C979 1.390 . S
C977 H981 0.950 . S
H978 C974 0.950 . S
C979 C977 1.390 . S
C979 C980 1.387 . S
C979 H982 0.950 . S
C980 C979 1.387 . S
C980 C983 1.387 . S
H981 C977 0.950 . S
H982 C979 0.950 . S
C983 C974 1.390 . S
C983 H976 0.950 . S
C983 C980 1.387 . S
C984 C985 1.387 . S
C984 H988 0.950 . S
C984 C993 1.390 . S
C985 C984 1.387 . S
C985 C987 1.387 . S
H986 C993 0.950 . S
C987 C985 1.387 . S
C987 C989 1.390 . S
C987 H991 0.950 . S
H988 C984 0.950 . S
C989 C987 1.390 . S
C989 C990 1.387 . S
C989 H992 0.950 . S
C990 C989 1.387 . S
C990 C993 1.387 . S
H991 C987 0.950 . S
H992 C989 0.950 . S
C993 C984 1.390 . S
C993 H986 0.950 . S
C993 C990 1.387 . S
C994 C995 1.387 . S
C994 H998 0.950 . S
C994 C1003 1.390 . S
C995 C994 1.387 . S
C995 C997 1.387 . S
H996 C1003 0.950 . S
C997 C995 1.387 . S
C997 C999 1.390 . S
C997 H1001 0.950 . S
H998 C994 0.950 . S
C999 C997 1.390 . S
C999 C1000 1.387 . S
C999 H1002 0.950 . S
C1000 C999 1.387 . S
C1000 C1003 1.387 . S
H1001 C997 0.950 . S
H1002 C999 0.950 . S
C1003 C994 1.390 . S
C1003 H996 0.950 . S
C1003 C1000 1.387 . S
C1004 C1005 1.387 . S
C1004 H1008 0.950 . S
C1004 C1013 1.390 . S
C1005 C1004 1.387 . S
C1005 C1007 1.387 . S
H1006 C1013 0.950 . S
C1007 C1005 1.387 . S
C1007 C1009 1.390 . S
C1007 H1011 0.950 . S
H1008 C1004 0.950 . S
C1009 C1007 1.390 . S
C1009 C1010 1.387 . S
C1009 H1012 0.950 . S
C1010 C1009 1.387 . S
C1010 C1013 1.387 . S
H1011 C1007 0.950 . S
H1012 C1009 0.950 . S
C1013 C1004 1.390 . S
C1013 H1006 0.950 . S
C1013 C1010 1.387 . S
C1014 C1015 1.387 . S
C1014 H1018 0.950 . S
C1014 C1023 1.390 . S
C1015 C1014 1.387 . S
C1015 C1017 1.387 . S
H1016 C1023 0.950 . S
C1017 C1015 1.387 . S
C1017 C1019 1.390 . S
C1017 H1021 0.950 . S
H1018 C1014 0.950 . S
C1019 C1017 1.390 . S
C1019 C1020 1.387 . S
C1019 H1022 0.950 . S
C1020 C1019 1.387 . S
C1020 C1023 1.387 . S
H1021 C1017 0.950 . S
H1022 C1019 0.950 . S
C1023 C1014 1.390 . S
C1023 H1016 0.950 . S
C1023 C1020 1.387 . S
C1024 C1025 1.387 . S
C1024 H1028 0.950 . S
C1024 C1033 1.390 . S
C1025 C1024 1.387 . S
C1025 C1027 1.387 . S
H1026 C1033 0.950 . S
C1027 C1025 1.387 . S
C1027 C1029 1.390 . S
C1027 H1031 0.950 . S
H1028 C1024 0.950 . S
C1029 C1027 1.390 . S
C1029 C1030 1.387 . S
C1029 H1032 0.950 . S
C1030 C1029 1.387 . S
C1030 C1033 1.387 . S
H1031 C1027 0.950 . S
H1032 C1029 0.950 . S
C1033 C1024 1.390 . S
C1033 H1026 0.950 . S
C1033 C1030 1.387 . S
C1034 C1035 1.387 . S
C1034 H1038 0.950 . S
C1034 C1043 1.390 . S
C1035 C1034 1.387 . S
C1035 C1037 1.387 . S
H1036 C1043 0.950 . S
C1037 C1035 1.387 . S
C1037 C1039 1.390 . S
C1037 H1041 0.950 . S
H1038 C1034 0.950 . S
C1039 C1037 1.390 . S
C1039 C1040 1.387 . S
C1039 H1042 0.950 . S
C1040 C1039 1.387 . S
C1040 C1043 1.387 . S
H1041 C1037 0.950 . S
H1042 C1039 0.950 . S
C1043 C1034 1.390 . S
C1043 H1036 0.950 . S
C1043 C1040 1.387 . S
C1044 C1045 1.387 . S
C1044 H1048 0.950 . S
C1044 C1053 1.390 . S
C1045 C1044 1.387 . S
C1045 C1047 1.387 . S
H1046 C1053 0.950 . S
C1047 C1045 1.387 . S
C1047 C1049 1.390 . S
C1047 H1051 0.950 . S
H1048 C1044 0.950 . S
C1049 C1047 1.390 . S
C1049 C1050 1.387 . S
C1049 H1052 0.950 . S
C1050 C1049 1.387 . S
C1050 C1053 1.387 . S
H1051 C1047 0.950 . S
H1052 C1049 0.950 . S
C1053 C1044 1.390 . S
C1053 H1046 0.950 . S
C1053 C1050 1.387 . S
C1054 C1055 1.387 . S
C1054 H1058 0.950 . S
C1054 C1063 1.390 . S
C1055 C1054 1.387 . S
C1055 C1057 1.387 . S
H1056 C1063 0.950 1_545 S
C1057 C1055 1.387 . S
C1057 C1059 1.390 . S
C1057 H1061 0.950 . S
H1058 C1054 0.950 . S
C1059 C1057 1.390 . S
C1059 C1060 1.387 . S
C1059 H1062 0.950 . S
C1060 C1059 1.387 . S
C1060 C1063 1.387 . S
H1061 C1057 0.950 . S
H1062 C1059 0.950 . S
C1063 C1054 1.390 . S
C1063 H1056 0.950 1_565 S
C1063 C1060 1.387 . S
C1064 C1065 1.387 . S
C1064 H1068 0.950 . S
C1064 C1073 1.390 . S
C1065 C1064 1.387 . S
C1065 C1067 1.387 . S
H1066 C1073 0.950 . S
C1067 C1065 1.387 . S
C1067 C1069 1.390 . S
C1067 H1071 0.950 . S
H1068 C1064 0.950 . S
C1069 C1067 1.390 . S
C1069 C1070 1.387 . S
C1069 H1072 0.950 . S
C1070 C1069 1.387 . S
C1070 C1073 1.387 . S
H1071 C1067 0.950 . S
H1072 C1069 0.950 . S
C1073 C1064 1.390 . S
C1073 H1066 0.950 . S
C1073 C1070 1.387 . S
C1074 C1075 1.387 . S
C1074 H1078 0.950 . S
C1074 C1083 1.390 . S
C1075 C1074 1.387 . S
C1075 C1077 1.387 . S
H1076 C1083 0.950 . S
C1077 C1075 1.387 . S
C1077 C1079 1.390 . S
C1077 H1081 0.950 . S
H1078 C1074 0.950 . S
C1079 C1077 1.390 . S
C1079 C1080 1.387 . S
C1079 H1082 0.950 . S
C1080 C1079 1.387 . S
C1080 C1083 1.387 . S
H1081 C1077 0.950 . S
H1082 C1079 0.950 . S
C1083 C1074 1.390 . S
C1083 H1076 0.950 . S
C1083 C1080 1.387 . S
C1084 C1085 1.387 . S
C1084 H1088 0.950 . S
C1084 C1093 1.390 . S
C1085 C1084 1.387 . S
C1085 C1087 1.387 . S
H1086 C1093 0.950 . S
C1087 C1085 1.387 . S
C1087 C1089 1.390 1_545 S
C1087 H1091 0.950 . S
H1088 C1084 0.950 . S
C1089 C1087 1.390 1_565 S
C1089 C1090 1.387 1_565 S
C1089 H1092 0.950 . S
C1090 C1089 1.387 1_545 S
C1090 C1093 1.387 . S
H1091 C1087 0.950 . S
H1092 C1089 0.950 . S
C1093 C1084 1.390 . S
C1093 H1086 0.950 . S
C1093 C1090 1.387 . S
C1094 C1095 1.387 . S
C1094 H1098 0.950 . S
C1094 C1103 1.390 . S
C1095 C1094 1.387 . S
C1095 C1097 1.387 1_655 S
H1096 C1103 0.950 . S
C1097 C1095 1.387 1_455 S
C1097 C1099 1.390 1_455 S
C1097 H1101 0.950 . S
H1098 C1094 0.950 . S
C1099 C1097 1.390 1_655 S
C1099 C1100 1.387 . S
C1099 H1102 0.950 1_655 S
C1100 C1099 1.387 . S
C1100 C1103 1.387 . S
H1101 C1097 0.950 . S
H1102 C1099 0.950 1_455 S
C1103 C1094 1.390 . S
C1103 H1096 0.950 . S
C1103 C1100 1.387 . S
C1104 C1105 1.387 . S
C1104 H1108 0.950 . S
C1104 C1113 1.390 . S
C1105 C1104 1.387 . S
C1105 C1107 1.387 . S
H1106 C1113 0.950 . S
C1107 C1105 1.387 . S
C1107 C1109 1.390 . S
C1107 H1111 0.950 . S
H1108 C1104 0.950 . S
C1109 C1107 1.390 . S
C1109 C1110 1.387 . S
C1109 H1112 0.950 . S
C1110 C1109 1.387 . S
C1110 C1113 1.387 . S
H1111 C1107 0.950 . S
H1112 C1109 0.950 . S
C1113 C1104 1.390 . S
C1113 H1106 0.950 . S
C1113 C1110 1.387 . S
C1114 C1115 1.387 . S
C1114 H1118 0.950 . S
C1114 C1123 1.390 . S
C1115 C1114 1.387 . S
C1115 C1117 1.387 . S
H1116 C1123 0.950 . S
C1117 C1115 1.387 . S
C1117 C1119 1.390 . S
C1117 H1121 0.950 . S
H1118 C1114 0.950 . S
C1119 C1117 1.390 . S
C1119 C1120 1.387 . S
C1119 H1122 0.950 . S
C1120 C1119 1.387 . S
C1120 C1123 1.387 . S
H1121 C1117 0.950 . S
H1122 C1119 0.950 . S
C1123 C1114 1.390 . S
C1123 H1116 0.950 . S
C1123 C1120 1.387 . S
C1124 C1125 1.387 . S
C1124 H1128 0.950 . S
C1124 C1133 1.390 . S
C1125 C1124 1.387 . S
C1125 C1127 1.387 1_655 S
H1126 C1133 0.950 . S
C1127 C1125 1.387 1_455 S
C1127 C1129 1.390 1_455 S
C1127 H1131 0.950 . S
H1128 C1124 0.950 . S
C1129 C1127 1.390 1_655 S
C1129 C1130 1.387 . S
C1129 H1132 0.950 . S
C1130 C1129 1.387 . S
C1130 C1133 1.387 . S
H1131 C1127 0.950 . S
H1132 C1129 0.950 . S
C1133 C1124 1.390 . S
C1133 H1126 0.950 . S
C1133 C1130 1.387 . S
C1134 C1135 1.387 . S
C1134 H1138 0.950 . S
C1134 C1143 1.390 . S
C1135 C1134 1.387 . S
C1135 C1137 1.387 . S
H1136 C1143 0.950 . S
C1137 C1135 1.387 . S
C1137 C1139 1.390 . S
C1137 H1141 0.950 . S
H1138 C1134 0.950 . S
C1139 C1137 1.390 . S
C1139 C1140 1.387 . S
C1139 H1142 0.950 . S
C1140 C1139 1.387 . S
C1140 C1143 1.387 . S
H1141 C1137 0.950 . S
H1142 C1139 0.950 . S
C1143 C1134 1.390 . S
C1143 H1136 0.950 . S
C1143 C1140 1.387 . S
C1144 C1145 1.387 . S
C1144 H1148 0.950 . S
C1144 C1153 1.390 . S
C1145 C1144 1.387 . S
C1145 C1147 1.387 . S
H1146 C1153 0.950 . S
C1147 C1145 1.387 . S
C1147 C1149 1.390 . S
C1147 H1151 0.950 1_565 S
H1148 C1144 0.950 . S
C1149 C1147 1.390 . S
C1149 C1150 1.387 . S
C1149 H1152 0.950 . S
C1150 C1149 1.387 . S
C1150 C1153 1.387 . S
H1151 C1147 0.950 1_545 S
H1152 C1149 0.950 . S
C1153 C1144 1.390 . S
C1153 H1146 0.950 . S
C1153 C1150 1.387 . S
C1154 C1155 1.387 . S
C1154 H1158 0.950 1_455 S
C1154 C1163 1.390 1_455 S
C1155 C1154 1.387 . S
C1155 C1157 1.387 . S
H1156 C1163 0.950 . S
C1157 C1155 1.387 . S
C1157 C1159 1.390 . S
C1157 H1161 0.950 . S
H1158 C1154 0.950 1_655 S
C1159 C1157 1.390 . S
C1159 C1160 1.387 . S
C1159 H1162 0.950 . S
C1160 C1159 1.387 . S
C1160 C1163 1.387 1_455 S
H1161 C1157 0.950 . S
H1162 C1159 0.950 . S
C1163 C1154 1.390 1_655 S
C1163 H1156 0.950 . S
C1163 C1160 1.387 1_655 S
C1164 C1165 1.387 . S
C1164 H1168 0.950 . S
C1164 C1173 1.390 1_655 S
C1165 C1164 1.387 . S
C1165 C1167 1.387 . S
H1166 C1173 0.950 . S
C1167 C1165 1.387 . S
C1167 C1169 1.390 1_655 S
C1167 H1171 0.950 . S
H1168 C1164 0.950 . S
C1169 C1167 1.390 1_455 S
C1169 C1170 1.387 . S
C1169 H1172 0.950 . S
C1170 C1169 1.387 . S
C1170 C1173 1.387 . S
H1171 C1167 0.950 . S
H1172 C1169 0.950 . S
C1173 C1164 1.390 1_455 S
C1173 H1166 0.950 . S
C1173 C1170 1.387 . S
C1174 C1175 1.387 . S
C1174 H1178 0.950 . S
C1174 C1183 1.390 . S
C1175 C1174 1.387 . S
C1175 C1177 1.387 . S
H1176 C1183 0.950 . S
C1177 C1175 1.387 . S
C1177 C1179 1.390 . S
C1177 H1181 0.950 . S
H1178 C1174 0.950 . S
C1179 C1177 1.390 . S
C1179 C1180 1.387 . S
C1179 H1182 0.950 . S
C1180 C1179 1.387 . S
C1180 C1183 1.387 . S
H1181 C1177 0.950 . S
H1182 C1179 0.950 . S
C1183 C1174 1.390 . S
C1183 H1176 0.950 . S
C1183 C1180 1.387 . S
C1184 C1185 1.387 . S
C1184 H1188 0.950 . S
C1184 C1193 1.390 1_565 S
C1185 C1184 1.387 . S
C1185 C1187 1.387 . S
H1186 C1193 0.950 . S
C1187 C1185 1.387 . S
C1187 C1189 1.390 1_565 S
C1187 H1191 0.950 . S
H1188 C1184 0.950 . S
C1189 C1187 1.390 1_545 S
C1189 C1190 1.387 . S
C1189 H1192 0.950 . S
C1190 C1189 1.387 . S
C1190 C1193 1.387 . S
H1191 C1187 0.950 . S
H1192 C1189 0.950 . S
C1193 C1184 1.390 1_545 S
C1193 H1186 0.950 . S
C1193 C1190 1.387 . S
C1194 C1195 1.387 . S
C1194 H1198 0.950 . S
C1194 C1203 1.390 1_565 S
C1195 C1194 1.387 . S
C1195 C1197 1.387 . S
H1196 C1203 0.950 . S
C1197 C1195 1.387 . S
C1197 C1199 1.390 1_565 S
C1197 H1201 0.950 . S
H1198 C1194 0.950 . S
C1199 C1197 1.390 1_545 S
C1199 C1200 1.387 . S
C1199 H1202 0.950 . S
C1200 C1199 1.387 . S
C1200 C1203 1.387 . S
H1201 C1197 0.950 . S
H1202 C1199 0.950 . S
C1203 C1194 1.390 1_545 S
C1203 H1196 0.950 . S
C1203 C1200 1.387 . S
C1204 C1205 1.387 . S
C1204 H1208 0.950 . S
C1204 C1213 1.390 1_655 S
C1205 C1204 1.387 . S
C1205 C1207 1.387 . S
H1206 C1213 0.950 . S
C1207 C1205 1.387 . S
C1207 C1209 1.390 1_655 S
C1207 H1211 0.950 . S
H1208 C1204 0.950 . S
C1209 C1207 1.390 1_455 S
C1209 C1210 1.387 . S
C1209 H1212 0.950 . S
C1210 C1209 1.387 . S
C1210 C1213 1.387 . S
H1211 C1207 0.950 . S
H1212 C1209 0.950 . S
C1213 C1204 1.390 1_455 S
C1213 H1206 0.950 . S
C1213 C1210 1.387 . S
C1214 C1215 1.387 . S
C1214 H1218 0.950 . S
C1214 C1223 1.390 . S
C1215 C1214 1.387 . S
C1215 C1217 1.387 . S
H1216 C1223 0.950 . S
C1217 C1215 1.387 . S
C1217 C1219 1.390 . S
C1217 H1221 0.950 . S
H1218 C1214 0.950 . S
C1219 C1217 1.390 . S
C1219 C1220 1.387 . S
C1219 H1222 0.950 . S
C1220 C1219 1.387 . S
C1220 C1223 1.387 . S
H1221 C1217 0.950 . S
H1222 C1219 0.950 . S
C1223 C1214 1.390 . S
C1223 H1216 0.950 . S
C1223 C1220 1.387 . S
C505 C0 1.540 . S
C510 C265 1.540 . S
C515 C15 1.542 . S
C520 C267 1.541 . S
C525 C293 1.541 . S
C530 C41 1.542 . S
C535 C55 1.541 . S
C540 C462 1.541 . S
C545 C476 1.542 . S
C550 C57 1.542 . S
C555 C71 1.541 . S
C560 C490 1.541 . S
C565 C349 1.542 . S
C570 C97 1.542 . S
C575 C99 1.541 . S
C580 C362 1.541 . S
C585 C125 1.541 . S
C590 C376 1.541 . S
C595 C139 1.541 . S
C600 C223 1.542 . S
C605 C236 1.541 . S
C610 C140 1.542 . S
C615 C154 1.542 . S
C620 C251 1.542 . S
C625 C168 1.540 . S
C630 C420 1.541 . S
C635 C183 1.542 . S
C640 C435 1.541 . S
C645 C209 1.541 . S
C650 C461 1.541 . S
C655 C294 1.542 . S
C660 C391 1.542 . S
C665 C308 1.541 . S
C670 C393 1.541 . S
C675 C322 1.541 . S
C680 C418 1.540 . S
C685 C98 1.613 1_545 S
C690 C13 1.589 . S
C695 C124 1.613 1_655 S
C700 C26 1.589 . S
C705 C28 1.588 . S
C710 C96 1.613 . S
C715 C155 1.613 1_455 S
C720 C42 1.589 . S
C725 C138 1.613 . S
C730 C68 1.587 . S
C735 C141 1.613 1_565 S
C740 C82 1.589 . S
C745 C84 1.591 . S
C750 C14 1.613 1_565 S
C755 C110 1.589 . S
C760 C40 1.613 1_455 S
C765 C112 1.591 . S
C770 C1 1.613 . S
C775 C126 1.589 . S
C780 C70 1.613 1_655 S
C785 C54 1.613 . S
C790 C153 1.587 . S
C795 C56 1.613 1_545 S
C800 C167 1.588 . S
C805 C181 1.591 . S
C810 C266 1.613 . S
C815 C194 1.589 . S
C820 C292 1.613 . S
C825 C196 1.589 . S
C830 C264 1.613 . S
C835 C323 1.613 . S
C840 C210 1.589 . S
C845 C225 1.591 . S
C850 C295 1.614 . S
C855 C309 1.613 . S
C860 C238 1.588 . S
C865 C252 1.591 . S
C870 C182 1.613 . S
C875 C208 1.613 . S
C880 C278 1.591 . S
C885 C169 1.613 . S
C890 C280 1.591 . S
C895 C307 1.587 . S
C900 C250 1.613 . S
C905 C321 1.587 . S
C910 C222 1.613 . S
C915 C335 1.589 . S
C920 C237 1.613 . S
C925 C434 1.613 . S
C930 C336 1.589 . S
C935 C351 1.590 . S
C940 C460 1.613 . S
C945 C365 1.590 . S
C950 C421 1.613 . S
C955 C491 1.613 . S
C960 C378 1.589 . S
C965 C463 1.613 . S
C970 C404 1.589 . S
C975 C477 1.612 . S
C980 C407 1.590 . S
C985 C363 1.613 . S
C990 C433 1.587 . S
C995 C377 1.613 . S
C1000 C446 1.589 . S
C1005 C348 1.613 . S
C1010 C448 1.589 . S
C1015 C475 1.589 . S
C1020 C419 1.613 . S
C1025 C390 1.613 . S
C1030 C489 1.589 . S
C1035 C503 1.587 . S
C1040 C392 1.613 . S
C1045 C12 1.724 . S
C1050 C406 1.724 . S
C1055 C379 1.726 . S
C1060 C27 1.725 1_565 S
C1065 C29 1.726 1_455 S
C1070 C405 1.725 . S
C1075 C43 1.726 . S
C1080 C195 1.725 . S
C1085 C197 1.724 . S
C1090 C69 1.725 1_545 S
C1095 C83 1.724 1_655 S
C1100 C180 1.721 . S
C1105 C334 1.726 . S
C1110 C85 1.724 . S
C1115 C111 1.723 1_545 S
C1120 C306 1.725 . S
C1125 C113 1.724 1_655 S
C1130 C320 1.726 . S
C1135 C127 1.724 . S
C1140 C447 1.723 . S
C1145 C152 1.725 1_565 S
C1150 C449 1.724 . S
C1155 C432 1.724 . S
C1160 C166 1.724 1_455 S
C1165 C211 1.726 . S
C1170 C350 1.723 . S
C1175 C364 1.721 . S
C1180 C224 1.722 . S
C1185 C337 1.726 . S
C1190 C239 1.726 . S
C1195 C502 1.726 . S
C1200 C253 1.723 . S
C1205 C279 1.723 . S
C1210 C474 1.726 . S
C1215 C281 1.723 . S
C1220 C488 1.725 . S
