# Generated by pormake.
# Topology wjx, (5)-cn, num edge types: 1
# Building blocks:
#     Node 0, Type 0, BuildingBlock: XOMCOT_clean_sbu_0, # of connection points: 5
#     Node 1, Type 0, BuildingBlock: XOMCOT_clean_sbu_0, # of connection points: 5
#     Node 2, Type 0, BuildingBlock: XOMCOT_clean_sbu_0, # of connection points: 5
#     Node 3, Type 0, BuildingBlock: XOMCOT_clean_sbu_0, # of connection points: 5
#     Node 4, Type 0, BuildingBlock: XOMCOT_clean_sbu_0, # of connection points: 5
#     Node 5, Type 0, BuildingBlock: XOMCOT_clean_sbu_0, # of connection points: 5
#     Node 6, Type 0, BuildingBlock: XOMCOT_clean_sbu_0, # of connection points: 5
#     Node 7, Type 0, BuildingBlock: XOMCOT_clean_sbu_0, # of connection points: 5
#     Node 8, Type 0, BuildingBlock: XOMCOT_clean_sbu_0, # of connection points: 5
#     Node 9, Type 0, BuildingBlock: XOMCOT_clean_sbu_0, # of connection points: 5
#     Node 10, Type 0, BuildingBlock: XOMCOT_clean_sbu_0, # of connection points: 5
#     Node 11, Type 0, BuildingBlock: XOMCOT_clean_sbu_0, # of connection points: 5
#     Edge 12, Type (0, 0), BuildingBlock: OJICUG_clean_linker_0, # of connection points: 2
#     Edge 13, Type (0, 0), BuildingBlock: OJICUG_clean_linker_0, # of connection points: 2
#     Edge 14, Type (0, 0), BuildingBlock: OJICUG_clean_linker_0, # of connection points: 2
#     Edge 15, Type (0, 0), BuildingBlock: OJICUG_clean_linker_0, # of connection points: 2
#     Edge 16, Type (0, 0), BuildingBlock: OJICUG_clean_linker_0, # of connection points: 2
#     Edge 17, Type (0, 0), BuildingBlock: OJICUG_clean_linker_0, # of connection points: 2
#     Edge 18, Type (0, 0), BuildingBlock: OJICUG_clean_linker_0, # of connection points: 2
#     Edge 19, Type (0, 0), BuildingBlock: OJICUG_clean_linker_0, # of connection points: 2
#     Edge 20, Type (0, 0), BuildingBlock: OJICUG_clean_linker_0, # of connection points: 2
#     Edge 21, Type (0, 0), BuildingBlock: OJICUG_clean_linker_0, # of connection points: 2
#     Edge 22, Type (0, 0), BuildingBlock: OJICUG_clean_linker_0, # of connection points: 2
#     Edge 23, Type (0, 0), BuildingBlock: OJICUG_clean_linker_0, # of connection points: 2
#     Edge 24, Type (0, 0), BuildingBlock: OJICUG_clean_linker_0, # of connection points: 2
#     Edge 25, Type (0, 0), BuildingBlock: OJICUG_clean_linker_0, # of connection points: 2
#     Edge 26, Type (0, 0), BuildingBlock: OJICUG_clean_linker_0, # of connection points: 2
#     Edge 27, Type (0, 0), BuildingBlock: OJICUG_clean_linker_0, # of connection points: 2
#     Edge 28, Type (0, 0), BuildingBlock: OJICUG_clean_linker_0, # of connection points: 2
#     Edge 29, Type (0, 0), BuildingBlock: OJICUG_clean_linker_0, # of connection points: 2
#     Edge 30, Type (0, 0), BuildingBlock: OJICUG_clean_linker_0, # of connection points: 2
#     Edge 31, Type (0, 0), BuildingBlock: OJICUG_clean_linker_0, # of connection points: 2
#     Edge 32, Type (0, 0), BuildingBlock: OJICUG_clean_linker_0, # of connection points: 2
#     Edge 33, Type (0, 0), BuildingBlock: OJICUG_clean_linker_0, # of connection points: 2
#     Edge 34, Type (0, 0), BuildingBlock: OJICUG_clean_linker_0, # of connection points: 2
#     Edge 35, Type (0, 0), BuildingBlock: OJICUG_clean_linker_0, # of connection points: 2
#     Edge 36, Type (0, 0), BuildingBlock: OJICUG_clean_linker_0, # of connection points: 2
#     Edge 37, Type (0, 0), BuildingBlock: OJICUG_clean_linker_0, # of connection points: 2
#     Edge 38, Type (0, 0), BuildingBlock: OJICUG_clean_linker_0, # of connection points: 2
#     Edge 39, Type (0, 0), BuildingBlock: OJICUG_clean_linker_0, # of connection points: 2
#     Edge 40, Type (0, 0), BuildingBlock: OJICUG_clean_linker_0, # of connection points: 2
#     Edge 41, Type (0, 0), BuildingBlock: OJICUG_clean_linker_0, # of connection points: 2
# Relax obj value: 0.149
# Max RMSD: 0.137
# Mean RMSD: 0.137
data_MOF--net-wjx--node1-XOMCOT_clean_sbu_0--edge1-OJICUG_clean_linker_0
_symmetry_space_group_name_H-M    P1
_symmetry_Int_Tables_number       1
_symmetry_cell_setting            triclinic
loop_
_symmetry_equiv_pos_as_xyz
'x, y, z'
_cell_length_a     53.261825
_cell_length_b     53.285397
_cell_length_c     13.584299
_cell_angle_alpha  89.859834
_cell_angle_beta   90.28904
_cell_angle_gamma 120.25106
loop_
_atom_site_label
_atom_site_type_symbol
_atom_site_fract_x
_atom_site_fract_y
_atom_site_fract_z
_atom_type_partial_charge
Co0 Co 0.12159 0.4325 0.1681 0.0
C1 C 0.11967 0.42947 0.38787 0.0
C2 C 0.14576 0.41312 0.32897 0.0
C3 C 0.14516 0.41034 0.42985 0.0
N4 N 0.1307 0.42624 0.30237 0.0
N5 N 0.12878 0.42075 0.46695 0.0
H6 H 0.10429 0.43693 0.3925 0.0
H7 H 0.15564 0.40496 0.27882 0.0
C8 C 0.18289 0.44606 0.14068 0.0
O9 O 0.19034 0.46456 0.21392 0.0
N10 N 0.11193 0.4374 0.03491 0.0
C11 C 0.09852 0.45183 1.00515 0.0
C12 C 0.09658 0.45062 0.90382 0.0
C13 C 0.11782 0.42751 0.95202 0.0
N14 N 0.10885 0.43543 0.87063 0.0
C15 C 0.13711 0.4876 0.25441 0.0
C16 C 0.17614 0.52242 0.11249 0.0
C17 C 0.16898 0.53557 0.1883 0.0
C18 C 0.14946 0.51762 0.26035 0.0
C19 C 0.1634 0.49206 0.10991 0.0
N20 N 0.1444 0.47492 0.18148 0.0
H21 H 0.11999 0.47472 0.30472 0.0
H22 H 0.16796 0.48231 0.04799 0.0
H23 H 0.09118 0.46289 0.0536 0.0
H24 H 0.12844 0.41475 0.95127 0.0
O25 O 0.08517 0.42741 0.21216 0.0
O26 O 0.09138 0.39144 0.16199 0.0
O27 O 0.15619 0.43054 0.11519 0.0
C28 C 0.07383 0.39983 0.19548 0.0
H29 H 0.15519 0.40045 0.47208 0.0
H30 H 0.08762 0.46089 0.85807 0.0
H31 H 0.19065 0.53533 0.05388 0.0
H32 H 0.14198 0.52644 0.31737 0.0
Co33 Co 0.69973 0.11562 0.44564 0.0
C34 C 0.70004 0.11545 0.66264 0.0
C35 C 0.74332 0.1382 0.60431 0.0
C36 C 0.74507 0.13838 0.7056 0.0
N37 N 0.7151 0.12393 0.57782 0.0
N38 N 0.71783 0.12398 0.74215 0.0
H39 H 0.67655 0.10329 0.66579 0.0
H40 H 0.76138 0.14736 0.55362 0.0
C41 C 0.73408 0.17174 0.33696 0.0
O42 O 0.70926 0.1672 0.30012 0.0
N43 N 0.68462 0.10669 0.31112 0.0
C44 C 0.65674 0.0913 0.28006 0.0
C45 C 0.6562 0.08925 0.17914 0.0
C46 C 0.70057 0.11252 0.22812 0.0
N47 N 0.68378 0.10282 0.14634 0.0
C48 C 0.64706 0.11539 0.48419 0.0
C49 C 0.66977 0.17408 0.51562 0.0
C50 C 0.63951 0.15576 0.51122 0.0
C51 C 0.62836 0.12599 0.49911 0.0
C52 C 0.68794 0.16236 0.49963 0.0
N53 N 0.67636 0.13358 0.47643 0.0
H54 H 0.63755 0.09223 0.47898 0.0
H55 H 0.71119 0.17651 0.50516 0.0
H56 H 0.63778 0.08131 0.32604 0.0
H57 H 0.72406 0.12354 0.22771 0.0
O58 O 0.67181 0.07668 0.48407 0.0
O59 O 0.71555 0.08979 0.42684 0.0
O60 O 0.73427 0.15372 0.39912 0.0
C61 C 0.69045 0.06918 0.45839 0.0
H62 H 0.76488 0.14772 0.74876 0.0
H63 H 0.63687 0.07881 0.13352 0.0
H64 H 0.67921 0.19714 0.52895 0.0
H65 H 0.60514 0.11088 0.50066 0.0
Co66 Co 0.59167 0.69328 0.79332 0.0
C67 C 0.59219 0.69436 1.01354 0.0
C68 C 0.62394 0.73505 0.95174 0.0
C69 C 0.62639 0.73709 0.05296 0.0
N70 N 0.60201 0.70841 0.92689 0.0
N71 N 0.60643 0.71136 0.09147 0.0
H72 H 0.57543 0.67204 0.02094 0.0
H73 H 0.63757 0.75172 0.89962 0.0
C74 C 0.58737 0.74769 0.78592 0.0
O75 O 0.57659 0.74248 0.87528 0.0
N76 N 0.58239 0.67882 0.66033 0.0
C77 C 0.5635 0.65152 0.63111 0.0
C78 C 0.56367 0.65063 0.52975 0.0
C79 C 0.59393 0.69411 0.57711 0.0
N80 N 0.58282 0.67744 0.49582 0.0
C81 C 0.53786 0.65035 0.87647 0.0
C82 C 0.50177 0.66647 0.78517 0.0
C83 C 0.48947 0.64188 0.84642 0.0
C84 C 0.50811 0.63411 0.89234 0.0
C85 C 0.53209 0.68263 0.77255 0.0
N86 N 0.54996 0.67499 0.82044 0.0
H87 H 0.55088 0.64188 0.90589 0.0
H88 H 0.54077 0.70019 0.72004 0.0
H89 H 0.55048 0.63357 0.67998 0.0
H90 H 0.61044 0.71688 0.57646 0.0
O91 O 0.59654 0.66108 0.82822 0.0
O92 O 0.63202 0.70308 0.7727 0.0
O93 O 0.59442 0.73052 0.7453 0.0
C94 C 0.6235 0.67671 0.8025 0.0
H95 H 0.64222 0.7557 0.09471 0.0
H96 H 0.55036 0.63172 0.48472 0.0
H97 H 0.48808 0.67265 0.74516 0.0
H98 H 0.49966 0.6144 0.93558 0.0
Co99 Co 0.9032 0.58845 0.1719 0.0
C100 C 0.90399 0.58999 0.39176 0.0
C101 C 0.87882 0.60741 0.33162 0.0
C102 C 0.87934 0.61005 0.43248 0.0
N103 N 0.89334 0.59375 0.30573 0.0
N104 N 0.89519 0.59903 0.4703 0.0
H105 H 0.91902 0.58211 0.39716 0.0
H106 H 0.86954 0.61622 0.28097 0.0
C107 C 0.84229 0.57538 0.14141 0.0
O108 O 0.83484 0.55663 0.21393 0.0
N109 N 0.91369 0.58451 0.03926 0.0
C110 C 0.92743 0.5704 1.01045 0.0
C111 C 0.92936 0.57155 0.90922 0.0
C112 C 0.90759 0.59419 0.95584 0.0
N113 N 0.91674 0.5864 0.87507 0.0
C114 C 0.88673 0.53242 0.25267 0.0
C115 C 0.84965 0.49955 0.10249 0.0
C116 C 0.85659 0.48551 0.17628 0.0
C117 C 0.87495 0.50242 0.25295 0.0
C118 C 0.86182 0.52979 0.10549 0.0
N119 N 0.88007 0.54599 0.18053 0.0
H120 H 0.90308 0.54469 0.30656 0.0
H121 H 0.85765 0.5403 0.04463 0.0
H122 H 0.93481 0.55938 0.05943 0.0
H123 H 0.89653 0.60652 0.95422 0.0
O124 O 0.93909 0.59274 0.21899 0.0
O125 O 0.9337 0.62945 0.17073 0.0
O126 O 0.86901 0.59103 0.117 0.0
C127 C 0.95078 0.62048 0.20515 0.0
H128 H 0.86983 0.62044 0.47421 0.0
H129 H 0.93841 0.56135 0.86418 0.0
H130 H 0.8359 0.48746 0.04089 0.0
H131 H 0.88209 0.49293 0.30918 0.0
Co132 Co 0.33072 0.90064 0.50434 0.0
C133 C 0.32885 0.90571 0.72313 0.0
C134 C 0.28639 0.87822 0.66384 0.0
C135 C 0.28413 0.88011 0.7642 0.0
N136 N 0.31468 0.89307 0.63807 0.0
N137 N 0.31098 0.89717 0.80186 0.0
H138 H 0.35207 0.92033 0.72767 0.0
H139 H 0.26826 0.86742 0.61358 0.0
C140 C 0.28037 0.84067 0.47319 0.0
O141 O 0.28976 0.83225 0.5488 0.0
N142 N 0.34563 0.90976 0.37095 0.0
C143 C 0.37354 0.92317 0.34143 0.0
C144 C 0.3742 0.92581 0.2402 0.0
C145 C 0.3298 0.90491 0.28789 0.0
N146 N 0.34663 0.9142 0.20668 0.0
C147 C 0.35903 0.87354 0.60844 0.0
C148 C 0.37067 0.85131 0.4434 0.0
C149 C 0.3854 0.85279 0.53159 0.0
C150 C 0.37706 0.86173 0.61612 0.0
C151 C 0.35094 0.86152 0.44048 0.0
N152 N 0.34716 0.87484 0.52054 0.0
H153 H 0.35629 0.88275 0.67392 0.0
H154 H 0.34039 0.86053 0.37132 0.0
H155 H 0.39207 0.9302 0.38992 0.0
H156 H 0.30641 0.89509 0.28699 0.0
O157 O 0.36399 0.93583 0.54894 0.0
O158 O 0.32309 0.93283 0.49654 0.0
O159 O 0.29321 0.86751 0.44877 0.0
C160 C 0.34961 0.94898 0.52964 0.0
H161 H 0.26412 0.87004 0.8057 0.0
H162 H 0.39345 0.93498 0.19478 0.0
H163 H 0.37529 0.84397 0.37541 0.0
H164 H 0.3856 0.86136 0.68812 0.0
Co165 Co 0.43192 0.32504 0.83466 0.0
C166 C 0.4323 0.32371 0.05504 0.0
C167 C 0.39802 0.28444 0.99251 0.0
C168 C 0.39612 0.28209 0.09363 0.0
N169 N 0.42106 0.31038 0.96818 0.0
N170 N 0.41781 0.30684 0.13279 0.0
H171 H 0.44989 0.34563 0.06265 0.0
H172 H 0.38353 0.26833 0.94006 0.0
C173 C 0.43606 0.27074 0.83712 0.0
O174 O 0.44658 0.27709 0.92706 0.0
N175 N 0.44171 0.33904 0.70156 0.0
C176 C 0.4611 0.3662 0.67241 0.0
C177 C 0.46172 0.36682 0.57107 0.0
C178 C 0.43052 0.3236 0.6183 0.0
N179 N 0.44248 0.34002 0.53729 0.0
C180 C 0.48586 0.36831 0.91779 0.0
C181 C 0.52165 0.35219 0.82589 0.0
C182 C 0.53426 0.37754 0.88343 0.0
C183 C 0.51578 0.3852 0.93037 0.0
C184 C 0.49126 0.33547 0.81642 0.0
N185 N 0.47357 0.34325 0.86396 0.0
H186 H 0.47281 0.37668 0.94724 0.0
H187 H 0.48235 0.31749 0.76559 0.0
H188 H 0.47389 0.38425 0.72133 0.0
H189 H 0.41428 0.30073 0.61718 0.0
O190 O 0.42721 0.35754 0.8656 0.0
O191 O 0.39173 0.31544 0.81018 0.0
O192 O 0.42913 0.2874 0.79134 0.0
C193 C 0.40035 0.34199 0.83798 0.0
H194 H 0.38005 0.26355 0.13476 0.0
H195 H 0.47504 0.38563 0.52577 0.0
H196 H 0.53512 0.34592 0.78561 0.0
H197 H 0.52437 0.40533 0.97122 0.0
Co198 Co 0.59662 0.89873 0.52604 0.0
C199 C 0.59808 0.89933 0.30666 0.0
C200 C 0.61673 0.87518 0.36558 0.0
C201 C 0.61896 0.87562 0.26435 0.0
N202 N 0.60249 0.88907 0.39235 0.0
N203 N 0.60699 0.8907 0.22749 0.0
H204 H 0.59062 0.91471 0.30167 0.0
H205 H 0.62586 0.86612 0.41584 0.0
C206 C 0.58498 0.83801 0.55548 0.0
O207 O 0.56798 0.83013 0.47755 0.0
N208 N 0.59205 0.90915 0.65827 0.0
C209 C 0.57738 0.92245 0.68551 0.0
C210 C 0.57786 0.92419 0.78675 0.0
C211 C 0.60151 0.90327 0.74275 0.0
N212 N 0.59291 0.91196 0.82285 0.0
C213 C 0.54074 0.88246 0.44155 0.0
C214 C 0.50766 0.84561 0.59105 0.0
C215 C 0.49392 0.85282 0.51716 0.0
C216 C 0.51071 0.87073 0.44028 0.0
C217 C 0.53781 0.85705 0.58764 0.0
N218 N 0.55418 0.8756 0.51387 0.0
H219 H 0.55308 0.89906 0.3889 0.0
H220 H 0.54819 0.85267 0.64848 0.0
H221 H 0.56655 0.92976 0.63536 0.0
H222 H 0.61367 0.89205 0.74554 0.0
O223 O 0.60171 0.93492 0.47839 0.0
O224 O 0.63766 0.92867 0.53084 0.0
O225 O 0.5987 0.8646 0.58274 0.0
C226 C 0.62935 0.94603 0.4945 0.0
H227 H 0.6289 0.86585 0.22157 0.0
H228 H 0.56767 0.93358 0.83012 0.0
H229 H 0.49545 0.83255 0.65347 0.0
H230 H 0.50107 0.87785 0.38441 0.0
Co231 Co 0.70181 0.58304 0.86833 0.0
C232 C 0.70271 0.58523 0.64851 0.0
C233 C 0.74541 0.60227 0.70851 0.0
C234 C 0.74755 0.60506 0.60769 0.0
N235 N 0.71712 0.58874 0.73447 0.0
N236 N 0.72061 0.59425 0.56992 0.0
H237 H 0.67973 0.57739 0.64326 0.0
H238 H 0.76359 0.61093 0.75899 0.0
C239 C 0.75066 0.57166 0.90153 0.0
O240 O 0.73949 0.55219 0.83097 0.0
N241 N 0.68728 0.57877 1.00106 0.0
C242 C 0.65932 0.56421 0.03 0.0
C243 C 0.65856 0.56547 0.13122 0.0
C244 C 0.70311 0.58883 0.08439 0.0
N245 N 0.68613 0.58084 0.16522 0.0
C246 C 0.66338 0.52685 0.78605 0.0
C247 C 0.66631 0.49437 0.93957 0.0
C248 C 0.64546 0.48019 0.86515 0.0
C249 C 0.64482 0.49688 0.78649 0.0
C250 C 0.68483 0.52461 0.9357 0.0
N251 N 0.68317 0.54064 0.85956 0.0
H252 H 0.65974 0.53893 0.73052 0.0
H253 H 0.69936 0.53528 0.99699 0.0
H254 H 0.64086 0.55285 0.98114 0.0
H255 H 0.72659 0.6016 0.08596 0.0
O256 O 0.66954 0.5861 0.82145 0.0
O257 O 0.7114 0.62368 0.86935 0.0
O258 O 0.73914 0.58696 0.92349 0.0
C259 C 0.68505 0.61389 0.83561 0.0
H260 H 0.76753 0.61536 0.566 0.0
H261 H 0.63926 0.55501 0.17639 0.0
H262 H 0.66744 0.48246 1.00249 0.0
H263 H 0.62841 0.48731 0.72934 0.0
Co264 Co 0.12333 0.69831 0.24543 0.0
C265 C 0.12387 0.69941 0.02503 0.0
C266 C 0.13427 0.7404 0.08718 0.0
C267 C 0.13397 0.74255 0.98597 0.0
N268 N 0.12854 0.71347 0.11182 0.0
N269 N 0.12727 0.71664 0.94727 0.0
H270 H 0.1176 0.67697 1.01729 0.0
H271 H 0.13798 0.75722 0.13945 0.0
C272 C 0.18366 0.75118 0.25067 0.0
O273 O 0.18842 0.74541 0.16103 0.0
N274 N 0.11776 0.68385 0.37845 0.0
C275 C 0.10807 0.65634 0.40768 0.0
C276 C 0.10698 0.65549 0.50901 0.0
C277 C 0.12226 0.69933 0.46164 0.0
N278 N 0.1159 0.68255 0.54294 0.0
C279 C 0.13104 0.65364 0.16183 0.0
C280 C 0.18242 0.66678 0.2545 0.0
C281 C 0.16868 0.64209 0.19389 0.0
C282 C 0.1428 0.6359 0.14696 0.0
C283 C 0.1701 0.68458 0.26568 0.0
N284 N 0.14493 0.6783 0.21754 0.0
H285 H 0.10968 0.64626 0.13218 0.0
H286 H 0.18 0.70227 0.31762 0.0
H287 H 0.10223 0.6382 0.35882 0.0
H288 H 0.12955 0.7223 0.46226 0.0
O289 O 0.08527 0.66713 0.21153 0.0
O290 O 0.09414 0.70983 0.26717 0.0
O291 O 0.15929 0.73481 0.29255 0.0
C292 C 0.07519 0.68368 0.2378 0.0
H293 H 0.13749 0.76139 0.94436 0.0
H294 H 0.10045 0.63642 0.55402 0.0
H295 H 0.20194 0.67178 0.29516 0.0
H296 H 0.1305 0.61624 0.104 0.0
Co297 Co 0.43913 0.12261 0.60541 0.0
C298 C 0.43461 0.11874 0.38685 0.0
C299 C 0.41279 0.13988 0.44534 0.0
C300 C 0.40901 0.1378 0.34469 0.0
N301 N 0.43004 0.12917 0.47166 0.0
N302 N 0.42293 0.12467 0.30792 0.0
H303 H 0.44729 0.10806 0.38271 0.0
H304 H 0.4028 0.14789 0.49568 0.0
C305 C 0.44493 0.18092 0.62937 0.0
O306 O 0.46147 0.1892 0.55092 0.0
N307 N 0.44489 0.11349 0.73937 0.0
C308 C 0.45732 0.098 0.76838 0.0
C309 C 0.45557 0.09533 0.8694 0.0
C310 C 0.43505 0.11925 0.8228 0.0
N311 N 0.44159 0.10875 0.90367 0.0
C312 C 0.49402 0.16004 0.49945 0.0
C313 C 0.52976 0.16733 0.65699 0.0
C314 C 0.5414 0.17182 0.56189 0.0
C315 C 0.52358 0.17073 0.48391 0.0
C316 C 0.50017 0.15784 0.66953 0.0
N317 N 0.48169 0.15052 0.59027 0.0
H318 H 0.48171 0.15968 0.4366 0.0
H319 H 0.49239 0.15516 0.74392 0.0
H320 H 0.46735 0.08959 0.71969 0.0
H321 H 0.42278 0.13035 0.8241 0.0
O322 O 0.43864 0.08823 0.56064 0.0
O323 O 0.39971 0.08926 0.61165 0.0
O324 O 0.4331 0.15461 0.65921 0.0
C325 C 0.41092 0.07406 0.5785 0.0
H326 H 0.39644 0.14484 0.30219 0.0
H327 H 0.46438 0.08471 0.91398 0.0
H328 H 0.5427 0.16929 0.7213 0.0
H329 H 0.53196 0.17668 0.40984 0.0
Co330 Co 0.32252 0.43685 0.87289 0.0
C331 C 0.32117 0.43264 0.65322 0.0
C332 C 0.27872 0.41717 0.71181 0.0
C333 C 0.27649 0.41416 0.61101 0.0
N334 N 0.30696 0.42993 0.73856 0.0
N335 N 0.3033 0.42409 0.57402 0.0
H336 H 0.34403 0.43986 0.64886 0.0
H337 H 0.26059 0.40943 0.76168 0.0
C338 C 0.27392 0.44892 0.90283 0.0
O339 O 0.28492 0.46808 0.83138 0.0
N340 N 0.33719 0.4423 1.00622 0.0
C341 C 0.36512 0.45721 0.03614 0.0
C342 C 0.36585 0.45586 0.13746 0.0
C343 C 0.32136 0.43197 0.089 0.0
N344 N 0.33829 0.44009 0.17045 0.0
C345 C 0.3606 0.49193 0.78354 0.0
C346 C 0.35843 0.52659 0.92991 0.0
C347 C 0.37843 0.53974 0.85294 0.0
C348 C 0.37874 0.52188 0.77822 0.0
C349 C 0.34017 0.49626 0.93165 0.0
N350 N 0.34133 0.47917 0.85864 0.0
H351 H 0.36413 0.47914 0.73108 0.0
H352 H 0.32616 0.48645 0.9944 0.0
H353 H 0.38359 0.46862 0.98782 0.0
H354 H 0.29791 0.41869 0.08965 0.0
O355 O 0.35463 0.43318 0.8295 0.0
O356 O 0.3128 0.39621 0.87966 0.0
O357 O 0.28537 0.43357 0.92587 0.0
C358 C 0.33912 0.40557 0.84722 0.0
H359 H 0.2565 0.40458 0.56879 0.0
H360 H 0.38512 0.46637 0.18335 0.0
H361 H 0.35771 0.53944 0.99028 0.0
H362 H 0.39465 0.53065 0.71974 0.0
Co363 Co 0.90098 0.32077 0.20745 0.0
C364 C 0.90234 0.32045 0.9864 0.0
C365 C 0.89159 0.27946 0.04997 0.0
C366 C 0.89198 0.27709 0.94909 0.0
N367 N 0.89753 0.30652 0.07349 0.0
N368 N 0.89885 0.30297 0.90954 0.0
H369 H 0.90838 0.34281 0.97765 0.0
H370 H 0.88738 0.2626 0.10289 0.0
C371 C 0.84034 0.27129 0.19349 0.0
O372 O 0.8391 0.28281 0.10922 0.0
N373 N 0.90495 0.33427 0.34103 0.0
C374 C 0.91471 0.36179 0.37035 0.0
C375 C 0.91599 0.36264 0.47148 0.0
C376 C 0.90062 0.31876 0.42404 0.0
N377 N 0.90723 0.3356 0.50522 0.0
C378 C 0.894 0.36596 0.12156 0.0
C379 C 0.84386 0.35422 0.21866 0.0
C380 C 0.85778 0.37908 0.15912 0.0
C381 C 0.88299 0.38453 0.10953 0.0
C382 C 0.8555 0.33583 0.22767 0.0
N383 N 0.87997 0.34132 0.17719 0.0
H384 H 0.91517 0.37291 0.09164 0.0
H385 H 0.8458 0.31832 0.28036 0.0
H386 H 0.92079 0.38001 0.32156 0.0
H387 H 0.89361 0.29584 0.42455 0.0
O388 O 0.93943 0.35223 0.18081 0.0
O389 O 0.92987 0.30903 0.23401 0.0
O390 O 0.86384 0.28365 0.24441 0.0
C391 C 0.94918 0.33545 0.20845 0.0
H392 H 0.88813 0.25805 0.90823 0.0
H393 H 0.9228 0.38174 0.51648 0.0
H394 H 0.82484 0.34964 0.26103 0.0
H395 H 0.89552 0.40428 0.06739 0.0
C396 C 0.02671 0.39097 0.26148 0.0
C397 C 0.04222 0.38011 0.21113 0.0
H398 H 0.98525 0.38495 0.30046 0.0
C399 C 0.02674 0.35197 0.17046 0.0
H400 H 0.03784 0.41232 0.29504 0.0
C401 C 0.99611 0.33592 0.17496 0.0
C402 C 0.98085 0.34799 0.2197 0.0
H403 H 0.03811 0.34303 0.13126 0.0
H404 H 0.9844 0.31502 0.13858 0.0
C405 C 0.99651 0.37523 0.26509 0.0
C406 C 0.65619 0.02088 0.39286 0.0
C407 C 0.68066 0.03803 0.45156 0.0
H408 H 0.62124 0.97836 0.35964 0.0
C409 C 0.69076 0.02445 0.51643 0.0
H410 H 0.64789 0.03092 0.34296 0.0
C411 C 0.67528 0.99398 0.52653 0.0
C412 C 0.64947 0.97709 0.47264 0.0
H413 H 0.70928 0.03738 0.56383 0.0
H414 H 0.68234 0.98392 0.58092 0.0
C415 C 0.64082 0.9908 0.4031 0.0
C416 C 0.64345 0.61888 0.7792 0.0
C417 C 0.67186 0.63226 0.81746 0.0
H418 H 0.6064 0.62265 0.74455 0.0
C419 C 0.68577 0.66196 0.84234 0.0
H420 H 0.63207 0.5962 0.75792 0.0
C421 C 0.67085 0.67747 0.83295 0.0
C422 C 0.64183 0.66323 0.79993 0.0
H423 H 0.70769 0.67287 0.87177 0.0
H424 H 0.68142 0.69999 0.85578 0.0
C425 C 0.62864 0.63406 0.77133 0.0
C426 C 0.0289 0.68404 0.19825 0.0
C427 C 0.04344 0.67115 0.24342 0.0
H428 H 0.98754 0.67794 0.14955 0.0
C429 C 0.02713 0.64339 0.2845 0.0
H430 H 0.04115 0.7054 0.16529 0.0
C431 C 0.99701 0.628 0.27632 0.0
C432 C 0.98225 0.63973 0.22545 0.0
H433 H 0.03784 0.63307 0.32026 0.0
H434 H 0.98538 0.60626 0.30683 0.0
C435 C 0.99834 0.66832 0.18899 0.0
C436 C 0.4093 0.02703 0.55695 0.0
C437 C 0.39407 0.04207 0.56549 0.0
H438 H 0.40725 0.98634 0.53964 0.0
C439 C 0.36348 0.02622 0.56142 0.0
H440 H 0.43283 0.03845 0.56011 0.0
C441 C 0.34856 0.99584 0.5482 0.0
C442 C 0.36408 0.98097 0.54097 0.0
H443 H 0.35118 0.03727 0.5676 0.0
H444 H 0.32504 0.98402 0.54503 0.0
C445 C 0.39456 0.997 0.54558 0.0
C446 C 0.33808 0.35744 0.86188 0.0
C447 C 0.3524 0.38705 0.83558 0.0
H448 H 0.34196 0.31928 0.88197 0.0
C449 C 0.38125 0.4002 0.8024 0.0
H450 H 0.31584 0.34669 0.88753 0.0
C451 C 0.39599 0.38487 0.80061 0.0
C452 C 0.3823 0.35576 0.83031 0.0
H453 H 0.39299 0.42281 0.78042 0.0
H454 H 0.4185 0.39611 0.77737 0.0
C455 C 0.35293 0.34177 0.85848 0.0
C456 C 0.0938 0.42884 0.69555 0.0
C457 C 0.11303 0.43026 0.7694 0.0
H458 H 0.08309 0.42386 0.54244 0.0
C459 C 0.13687 0.42731 0.74243 0.0
H460 H 0.07498 0.43055 0.71406 0.0
C461 C 0.1417 0.42366 0.64374 0.0
C462 C 0.12276 0.42276 0.56942 0.0
H463 H 0.15234 0.4287 0.79722 0.0
H464 H 0.16079 0.42241 0.62563 0.0
C465 C 0.09853 0.42504 0.59689 0.0
C466 C 0.68313 0.09382 0.87183 0.0
C467 C 0.70959 0.11828 0.84444 0.0
H468 H 0.65454 0.06932 0.98907 0.0
C469 C 0.72788 0.13705 0.91867 0.0
H470 H 0.66878 0.0786 0.81692 0.0
C471 C 0.71971 0.13171 1.01769 0.0
C472 C 0.69306 0.10744 0.04491 0.0
H473 H 0.74825 0.15626 0.90016 0.0
H474 H 0.73394 0.14706 0.07255 0.0
C475 C 0.67499 0.08846 0.97075 0.0
C476 C 0.60095 0.71551 0.3663 0.0
C477 C 0.5897 0.68632 0.39422 0.0
H478 H 0.61493 0.74633 0.248 0.0
C479 C 0.58495 0.6658 0.32083 0.0
H480 H 0.60458 0.73188 0.42043 0.0
C481 C 0.59078 0.6741 0.22216 0.0
C482 C 0.60158 0.70316 0.19401 0.0
H483 H 0.57692 0.64328 0.33951 0.0
H484 H 0.58704 0.65771 0.16797 0.0
C485 C 0.60689 0.72384 0.26737 0.0
C486 C 0.93115 0.59223 0.69991 0.0
C487 C 0.91212 0.59103 0.77347 0.0
H488 H 0.94124 0.59647 0.54663 0.0
C489 C 0.88802 0.59357 0.74581 0.0
H490 H 0.95016 0.59082 0.71889 0.0
C491 C 0.88276 0.59665 0.64681 0.0
C492 C 0.90151 0.59734 0.5729 0.0
H493 H 0.87268 0.59231 0.80033 0.0
H494 H 0.86352 0.59766 0.62811 0.0
C495 C 0.92596 0.59542 0.60092 0.0
C496 C 0.30953 0.88812 0.07718 0.0
C497 C 0.33706 0.911 0.1053 0.0
H498 H 0.27983 0.86556 0.95985 0.0
C499 C 0.3553 0.93017 0.03222 0.0
H500 H 0.29504 0.8727 0.13102 0.0
C501 C 0.34647 0.9262 0.93337 0.0
C502 C 0.31921 0.90283 0.90478 0.0
H503 H 0.37643 0.94831 0.0514 0.0
H504 H 0.36114 0.94147 0.87953 0.0
C505 C 0.30076 0.88406 0.97845 0.0
C506 C 0.45202 0.33623 0.26553 0.0
C507 C 0.42411 0.31441 0.23565 0.0
H508 H 0.47972 0.36127 0.3845 0.0
C509 C 0.40251 0.30056 0.30779 0.0
H510 H 0.46947 0.34691 0.21294 0.0
C511 C 0.40859 0.30869 0.40685 0.0
C512 C 0.43632 0.33095 0.4359 0.0
H513 H 0.38072 0.28387 0.28771 0.0
H514 H 0.39137 0.29802 0.46034 0.0
C515 C 0.45799 0.34447 0.36418 0.0
C516 C 0.57824 0.90706 0.99786 0.0
C517 C 0.59705 0.90726 0.92519 0.0
H518 H 0.56633 0.90123 0.14962 0.0
C519 C 0.6195 0.90212 0.95423 0.0
H520 H 0.56035 0.91031 0.97869 0.0
C521 C 0.62289 0.89679 0.05311 0.0
C522 C 0.604 0.89657 0.12547 0.0
H523 H 0.63466 0.90244 0.90086 0.0
H524 H 0.64051 0.89315 0.07291 0.0
C525 C 0.58167 0.90181 0.09641 0.0
C526 C 0.68602 0.59021 0.43919 0.0
C527 C 0.71257 0.59247 0.46728 0.0
H528 H 0.657 0.58509 0.32116 0.0
C529 C 0.7307 0.59193 0.39339 0.0
H530 H 0.67171 0.59113 0.4934 0.0
C531 C 0.72229 0.58866 0.29442 0.0
C532 C 0.69548 0.58574 0.26674 0.0
H533 H 0.75107 0.59319 0.41206 0.0
H534 H 0.73644 0.58752 0.23994 0.0
C535 C 0.67756 0.5868 0.34022 0.0
C536 C 0.13712 0.72055 0.67257 0.0
C537 C 0.11819 0.69151 0.64452 0.0
H538 H 0.15495 0.75128 0.79102 0.0
C539 C 0.10171 0.67122 0.71778 0.0
H540 H 0.15042 0.73673 0.61855 0.0
C541 C 0.10444 0.67956 0.81644 0.0
C542 C 0.12367 0.70845 0.84471 0.0
H543 H 0.08646 0.64884 0.69903 0.0
H544 H 0.09123 0.66335 0.87054 0.0
C545 C 0.13976 0.72893 0.77151 0.0
C546 C 0.4259 0.1382 0.13222 0.0
C547 C 0.42625 0.11971 0.20555 0.0
H548 H 0.43103 0.14968 0.97997 0.0
C549 C 0.43093 0.09703 0.17745 0.0
H550 H 0.42282 0.15617 0.15136 0.0
C551 C 0.4355 0.09315 0.07861 0.0
C552 C 0.43567 0.11197 1.00531 0.0
H553 H 0.43092 0.08215 0.23183 0.0
H554 H 0.43879 0.07531 0.05986 0.0
C555 C 0.43062 0.13444 0.03355 0.0
C556 C 0.29328 0.42711 0.39727 0.0
C557 C 0.31139 0.42628 0.47147 0.0
H558 H 0.2877 0.43241 0.24402 0.0
C559 C 0.33809 0.42899 0.4438 0.0
H560 H 0.27279 0.42556 0.41537 0.0
C561 C 0.34674 0.43317 0.34519 0.0
C562 C 0.32884 0.43452 0.27157 0.0
H563 H 0.35244 0.42791 0.49805 0.0
H564 H 0.36744 0.43525 0.32651 0.0
C565 C 0.30186 0.4311 0.29866 0.0
C566 C 0.88699 0.29801 0.63585 0.0
C567 C 0.90586 0.3269 0.60664 0.0
H568 H 0.86984 0.26777 0.75561 0.0
C569 C 0.92317 0.34738 0.67853 0.0
H570 H 0.87316 0.28174 0.58268 0.0
C571 C 0.92117 0.33939 0.77729 0.0
C572 C 0.90189 0.3107 0.80682 0.0
H573 H 0.93846 0.36963 0.65865 0.0
H574 H 0.9349 0.35571 0.83055 0.0
C575 C 0.88507 0.28998 0.73492 0.0
C576 C 0.17602 0.57976 0.09773 0.0
C577 C 0.17781 0.56695 0.18604 0.0
H578 H 0.17259 0.61434 0.03081 0.0
C579 C 0.18312 0.58273 0.27428 0.0
H580 H 0.17192 0.56831 0.02843 0.0
C581 C 0.18322 0.60906 0.27573 0.0
C582 C 0.17809 0.62014 0.18886 0.0
H583 H 0.18516 0.57372 0.3434 0.0
H584 H 0.18474 0.61932 0.34598 0.0
C585 C 0.17621 0.6061 0.09917 0.0
C586 C 0.61679 0.18088 0.59997 0.0
C587 C 0.61869 0.16645 0.5165 0.0
H588 H 0.59125 0.1948 0.6795 0.0
C589 C 0.59736 0.1578 0.44294 0.0
H590 H 0.63299 0.18769 0.65786 0.0
C591 C 0.57335 0.16123 0.45565 0.0
C592 C 0.56999 0.17375 0.54221 0.0
H593 H 0.59835 0.14664 0.37775 0.0
H594 H 0.55652 0.15211 0.39986 0.0
C595 C 0.59264 0.18454 0.61272 0.0
C596 C 0.44045 0.61202 0.76737 0.0
C597 C 0.45754 0.6216 0.85317 0.0
H598 H 0.40121 0.57882 0.70052 0.0
C599 C 0.44518 0.60754 0.94276 0.0
H600 H 0.44924 0.62235 0.69721 0.0
C601 C 0.41784 0.58232 0.94451 0.0
C602 C 0.40221 0.57071 0.85666 0.0
H603 H 0.45765 0.61474 1.0105 0.0
H604 H 0.41028 0.57057 1.01325 0.0
C605 C 0.413 0.58686 0.7692 0.0
C606 C 0.84332 0.4111 0.24791 0.0
C607 C 0.8493 0.40178 0.15894 0.0
H608 H 0.84008 0.44466 0.32279 0.0
C609 C 0.85193 0.41755 0.07255 0.0
H610 H 0.84121 0.39955 0.31588 0.0
C611 C 0.85174 0.44367 0.07672 0.0
C612 C 0.84877 0.45453 0.16742 0.0
H613 H 0.85608 0.41067 1.00252 0.0
H614 H 0.85626 0.45639 1.01005 0.0
C615 C 0.843 0.43717 0.25202 0.0
C616 C 0.45847 0.86124 0.60651 0.0
C617 C 0.46399 0.84735 0.52955 0.0
H618 H 0.43101 0.87529 0.6653 0.0
C619 C 0.44255 0.83282 0.4572 0.0
H620 H 0.47499 0.87325 0.66173 0.0
C621 C 0.41621 0.83285 0.46071 0.0
C622 C 0.4112 0.84836 0.53478 0.0
H623 H 0.44653 0.82217 0.39645 0.0
H624 H 0.40031 0.82139 0.40353 0.0
C625 C 0.43277 0.86215 0.6084 0.0
C626 C 0.60926 0.43181 0.79169 0.0
C627 C 0.62137 0.44951 0.87543 0.0
H628 H 0.57212 0.39496 0.7284 0.0
C629 C 0.60702 0.43959 0.96599 0.0
H630 H 0.62003 0.43851 0.72112 0.0
C631 C 0.57975 0.41434 0.97042 0.0
C632 C 0.56613 0.39853 0.88441 0.0
H633 H 0.61559 0.45257 0.03205 0.0
H634 H 0.56838 0.40834 0.04009 0.0
C635 C 0.58189 0.40662 0.79603 0.0
C636 C 0.2264 0.42082 0.99226 0.0
C637 C 0.25026 0.44752 0.9632 0.0
H638 H 0.18558 0.39936 0.06927 0.0
C639 C 0.25173 0.47342 0.99321 0.0
H640 H 0.22483 0.40058 0.96987 0.0
C641 C 0.23002 0.47272 0.05246 0.0
C642 C 0.20588 0.44612 0.08015 0.0
H643 H 0.27001 0.49427 0.97231 0.0
H644 H 0.23183 0.49306 0.0752 0.0
C645 C 0.20402 0.42012 0.04871 0.0
C646 C 0.787 0.23582 0.18224 0.0
C647 C 0.8136 0.24554 0.23157 0.0
H648 H 0.74145 0.20536 0.1768 0.0
C649 C 0.81396 0.23066 0.31689 0.0
H650 H 0.78577 0.24669 0.11647 0.0
C651 C 0.78824 0.20654 0.3515 0.0
C652 C 0.76165 0.19711 0.30219 0.0
H653 H 0.83407 0.23758 0.35671 0.0
H654 H 0.78915 0.19545 0.4172 0.0
C655 C 0.76143 0.21209 0.21723 0.0
C656 C 0.59096 0.81856 0.7169 0.0
C657 C 0.58718 0.81573 0.61417 0.0
H658 H 0.59344 0.79895 0.8522 0.0
C659 C 0.58432 0.79082 0.56838 0.0
H660 H 0.59295 0.83741 0.75426 0.0
C661 C 0.58525 0.76916 0.62405 0.0
C662 C 0.58824 0.77158 0.7271 0.0
H663 H 0.58141 0.78809 0.48936 0.0
H664 H 0.58281 0.75013 0.58656 0.0
C665 C 0.59109 0.7965 0.77298 0.0
C666 C 0.82073 0.60107 0.04903 0.0
C667 C 0.81926 0.57518 0.07994 0.0
H668 H 0.79941 0.6203 0.97017 0.0
C669 C 0.79535 0.54847 0.05134 0.0
H670 H 0.83899 0.62191 0.07036 0.0
C671 C 0.77346 0.54757 0.99182 0.0
C672 C 0.77451 0.57334 0.96235 0.0
H673 H 0.79384 0.52822 0.07373 0.0
H674 H 0.75536 0.52663 0.97032 0.0
C675 C 0.79816 0.60015 0.99219 0.0
C676 C 0.253 0.82147 0.31431 0.0
C677 C 0.25476 0.81882 0.41675 0.0
H678 H 0.22941 0.80184 0.18095 0.0
C679 C 0.2325 0.79429 0.4643 0.0
H680 H 0.27 0.84002 0.27572 0.0
C681 C 0.20897 0.77282 0.41061 0.0
C682 C 0.20764 0.77498 0.30771 0.0
H683 H 0.23327 0.79168 0.54318 0.0
H684 H 0.19225 0.75408 0.44941 0.0
C685 C 0.22988 0.79956 0.2601 0.0
C686 C 0.43856 0.24731 0.68081 0.0
C687 C 0.43588 0.2464 0.78384 0.0
H688 H 0.44387 0.22747 0.55166 0.0
C689 C 0.43458 0.22284 0.83532 0.0
H690 H 0.43979 0.26524 0.63903 0.0
C691 C 0.4363 0.20084 0.78483 0.0
C692 C 0.44012 0.20239 0.68226 0.0
H693 H 0.43248 0.22155 0.91471 0.0
H694 H 0.43575 0.18321 0.82644 0.0
C695 C 0.44103 0.22574 0.63078 0.0
loop_
_geom_bond_atom_site_label_1
_geom_bond_atom_site_label_2
_geom_bond_distance
_geom_bond_site_symmetry_2
_ccdc_geom_bond_type
Co0 N4 2.148 . S
Co0 N10 2.128 1_554 S
Co0 N20 2.194 . S
Co0 O25 2.351 . S
Co0 O26 2.155 . S
Co0 O27 2.096 . S
C1 N4 1.301 . S
C1 N5 1.328 . S
C1 H6 0.930 . S
C2 C3 1.333 . S
C2 N4 1.317 . S
C2 H7 0.930 . S
C3 C2 1.333 . S
C3 N5 1.350 . S
C3 H29 0.931 . S
N4 Co0 2.148 . S
N4 C1 1.301 . S
N4 C2 1.317 . S
N5 C1 1.328 . S
N5 C3 1.350 . S
H6 C1 0.930 . S
H7 C2 0.930 . S
C8 O9 1.224 . S
C8 O27 1.247 . S
O9 C8 1.224 . S
N10 Co0 2.128 1_556 S
N10 C11 1.355 . S
N10 C13 1.311 . S
C11 N10 1.355 . S
C11 C12 1.363 . S
C11 H23 0.929 . S
C12 C11 1.363 . S
C12 N14 1.375 . S
C12 H30 0.931 . S
C13 N10 1.311 . S
C13 N14 1.347 . S
C13 H24 0.929 . S
N14 C12 1.375 . S
N14 C13 1.347 . S
C15 C18 1.365 . S
C15 N20 1.328 . S
C15 H21 0.929 . S
C16 C17 1.362 . S
C16 C19 1.378 . S
C16 H31 0.929 . S
C17 C16 1.362 . S
C17 C18 1.366 . S
C18 C15 1.365 . S
C18 C17 1.366 . S
C18 H32 0.930 . S
C19 C16 1.378 . S
C19 N20 1.315 . S
C19 H22 0.930 . S
N20 Co0 2.194 . S
N20 C15 1.328 . S
N20 C19 1.315 . S
H21 C15 0.929 . S
H22 C19 0.930 . S
H23 C11 0.929 . S
H24 C13 0.929 . S
O25 Co0 2.351 . S
O25 C28 1.244 . S
O26 Co0 2.155 . S
O26 C28 1.240 . S
O27 Co0 2.096 . S
O27 C8 1.247 . S
C28 O25 1.244 . S
C28 O26 1.240 . S
H29 C3 0.931 . S
H30 C12 0.931 . S
H31 C16 0.929 . S
H32 C18 0.930 . S
Co33 N37 2.148 . S
Co33 N43 2.128 . S
Co33 N53 2.194 . S
Co33 O58 2.351 . S
Co33 O59 2.155 . S
Co33 O60 2.096 . S
C34 N37 1.301 . S
C34 N38 1.328 . S
C34 H39 0.930 . S
C35 C36 1.333 . S
C35 N37 1.317 . S
C35 H40 0.930 . S
C36 C35 1.333 . S
C36 N38 1.350 . S
C36 H62 0.931 . S
N37 Co33 2.148 . S
N37 C34 1.301 . S
N37 C35 1.317 . S
N38 C34 1.328 . S
N38 C36 1.350 . S
H39 C34 0.930 . S
H40 C35 0.930 . S
C41 O42 1.224 . S
C41 O60 1.247 . S
O42 C41 1.224 . S
N43 Co33 2.128 . S
N43 C44 1.355 . S
N43 C46 1.311 . S
C44 N43 1.355 . S
C44 C45 1.363 . S
C44 H56 0.929 . S
C45 C44 1.363 . S
C45 N47 1.375 . S
C45 H63 0.931 . S
C46 N43 1.311 . S
C46 N47 1.347 . S
C46 H57 0.929 . S
N47 C45 1.375 . S
N47 C46 1.347 . S
C48 C51 1.365 . S
C48 N53 1.328 . S
C48 H54 0.929 . S
C49 C50 1.362 . S
C49 C52 1.378 . S
C49 H64 0.929 . S
C50 C49 1.362 . S
C50 C51 1.366 . S
C51 C48 1.365 . S
C51 C50 1.366 . S
C51 H65 0.930 . S
C52 C49 1.378 . S
C52 N53 1.315 . S
C52 H55 0.930 . S
N53 Co33 2.194 . S
N53 C48 1.328 . S
N53 C52 1.315 . S
H54 C48 0.929 . S
H55 C52 0.930 . S
H56 C44 0.929 . S
H57 C46 0.929 . S
O58 Co33 2.351 . S
O58 C61 1.244 . S
O59 Co33 2.155 . S
O59 C61 1.240 . S
O60 Co33 2.096 . S
O60 C41 1.247 . S
C61 O58 1.244 . S
C61 O59 1.240 . S
H62 C36 0.931 . S
H63 C45 0.931 . S
H64 C49 0.929 . S
H65 C51 0.930 . S
Co66 N70 2.148 . S
Co66 N76 2.128 . S
Co66 N86 2.194 . S
Co66 O91 2.351 . S
Co66 O92 2.155 . S
Co66 O93 2.096 . S
C67 N70 1.301 1_554 S
C67 N71 1.328 . S
C67 H72 0.930 . S
C68 C69 1.333 1_556 S
C68 N70 1.317 . S
C68 H73 0.930 . S
C69 C68 1.333 1_554 S
C69 N71 1.350 . S
C69 H95 0.931 . S
N70 Co66 2.148 . S
N70 C67 1.301 1_556 S
N70 C68 1.317 . S
N71 C67 1.328 . S
N71 C69 1.350 . S
H72 C67 0.930 . S
H73 C68 0.930 . S
C74 O75 1.224 . S
C74 O93 1.247 . S
O75 C74 1.224 . S
N76 Co66 2.128 . S
N76 C77 1.355 . S
N76 C79 1.311 . S
C77 N76 1.355 . S
C77 C78 1.363 . S
C77 H89 0.929 . S
C78 C77 1.363 . S
C78 N80 1.375 . S
C78 H96 0.931 . S
C79 N76 1.311 . S
C79 N80 1.347 . S
C79 H90 0.929 . S
N80 C78 1.375 . S
N80 C79 1.347 . S
C81 C84 1.365 . S
C81 N86 1.328 . S
C81 H87 0.929 . S
C82 C83 1.362 . S
C82 C85 1.378 . S
C82 H97 0.929 . S
C83 C82 1.362 . S
C83 C84 1.366 . S
C84 C81 1.365 . S
C84 C83 1.366 . S
C84 H98 0.930 . S
C85 C82 1.378 . S
C85 N86 1.315 . S
C85 H88 0.930 . S
N86 Co66 2.194 . S
N86 C81 1.328 . S
N86 C85 1.315 . S
H87 C81 0.929 . S
H88 C85 0.930 . S
H89 C77 0.929 . S
H90 C79 0.929 . S
O91 Co66 2.351 . S
O91 C94 1.244 . S
O92 Co66 2.155 . S
O92 C94 1.240 . S
O93 Co66 2.096 . S
O93 C74 1.247 . S
C94 O91 1.244 . S
C94 O92 1.240 . S
H95 C69 0.931 . S
H96 C78 0.931 . S
H97 C82 0.929 . S
H98 C84 0.930 . S
Co99 N103 2.148 . S
Co99 N109 2.128 1_554 S
Co99 N119 2.194 . S
Co99 O124 2.351 . S
Co99 O125 2.155 . S
Co99 O126 2.096 . S
C100 N103 1.301 . S
C100 N104 1.328 . S
C100 H105 0.930 . S
C101 C102 1.333 . S
C101 N103 1.317 . S
C101 H106 0.930 . S
C102 C101 1.333 . S
C102 N104 1.350 . S
C102 H128 0.931 . S
N103 Co99 2.148 . S
N103 C100 1.301 . S
N103 C101 1.317 . S
N104 C100 1.328 . S
N104 C102 1.350 . S
H105 C100 0.930 . S
H106 C101 0.930 . S
C107 O108 1.224 . S
C107 O126 1.247 . S
O108 C107 1.224 . S
N109 Co99 2.128 1_556 S
N109 C110 1.355 . S
N109 C112 1.311 . S
C110 N109 1.355 . S
C110 C111 1.363 . S
C110 H122 0.929 . S
C111 C110 1.363 . S
C111 N113 1.375 . S
C111 H129 0.931 . S
C112 N109 1.311 . S
C112 N113 1.347 . S
C112 H123 0.929 . S
N113 C111 1.375 . S
N113 C112 1.347 . S
C114 C117 1.365 . S
C114 N119 1.328 . S
C114 H120 0.929 . S
C115 C116 1.362 . S
C115 C118 1.378 . S
C115 H130 0.929 . S
C116 C115 1.362 . S
C116 C117 1.366 . S
C117 C114 1.365 . S
C117 C116 1.366 . S
C117 H131 0.930 . S
C118 C115 1.378 . S
C118 N119 1.315 . S
C118 H121 0.930 . S
N119 Co99 2.194 . S
N119 C114 1.328 . S
N119 C118 1.315 . S
H120 C114 0.929 . S
H121 C118 0.930 . S
H122 C110 0.929 . S
H123 C112 0.929 . S
O124 Co99 2.351 . S
O124 C127 1.244 . S
O125 Co99 2.155 . S
O125 C127 1.240 . S
O126 Co99 2.096 . S
O126 C107 1.247 . S
C127 O124 1.244 . S
C127 O125 1.240 . S
H128 C102 0.931 . S
H129 C111 0.931 . S
H130 C115 0.929 . S
H131 C117 0.930 . S
Co132 N136 2.148 . S
Co132 N142 2.128 . S
Co132 N152 2.194 . S
Co132 O157 2.351 . S
Co132 O158 2.155 . S
Co132 O159 2.096 . S
C133 N136 1.301 . S
C133 N137 1.328 . S
C133 H138 0.930 . S
C134 C135 1.333 . S
C134 N136 1.317 . S
C134 H139 0.930 . S
C135 C134 1.333 . S
C135 N137 1.350 . S
C135 H161 0.931 . S
N136 Co132 2.148 . S
N136 C133 1.301 . S
N136 C134 1.317 . S
N137 C133 1.328 . S
N137 C135 1.350 . S
H138 C133 0.930 . S
H139 C134 0.930 . S
C140 O141 1.224 . S
C140 O159 1.247 . S
O141 C140 1.224 . S
N142 Co132 2.128 . S
N142 C143 1.355 . S
N142 C145 1.311 . S
C143 N142 1.355 . S
C143 C144 1.363 . S
C143 H155 0.929 . S
C144 C143 1.363 . S
C144 N146 1.375 . S
C144 H162 0.931 . S
C145 N142 1.311 . S
C145 N146 1.347 . S
C145 H156 0.929 . S
N146 C144 1.375 . S
N146 C145 1.347 . S
C147 C150 1.365 . S
C147 N152 1.328 . S
C147 H153 0.929 . S
C148 C149 1.362 . S
C148 C151 1.378 . S
C148 H163 0.929 . S
C149 C148 1.362 . S
C149 C150 1.366 . S
C150 C147 1.365 . S
C150 C149 1.366 . S
C150 H164 0.930 . S
C151 C148 1.378 . S
C151 N152 1.315 . S
C151 H154 0.930 . S
N152 Co132 2.194 . S
N152 C147 1.328 . S
N152 C151 1.315 . S
H153 C147 0.929 . S
H154 C151 0.930 . S
H155 C143 0.929 . S
H156 C145 0.929 . S
O157 Co132 2.351 . S
O157 C160 1.244 . S
O158 Co132 2.155 . S
O158 C160 1.240 . S
O159 Co132 2.096 . S
O159 C140 1.247 . S
C160 O157 1.244 . S
C160 O158 1.240 . S
H161 C135 0.931 . S
H162 C144 0.931 . S
H163 C148 0.929 . S
H164 C150 0.930 . S
Co165 N169 2.148 . S
Co165 N175 2.128 . S
Co165 N185 2.194 . S
Co165 O190 2.351 . S
Co165 O191 2.155 . S
Co165 O192 2.096 . S
C166 N169 1.301 1_554 S
C166 N170 1.328 . S
C166 H171 0.930 . S
C167 C168 1.333 1_556 S
C167 N169 1.317 . S
C167 H172 0.930 . S
C168 C167 1.333 1_554 S
C168 N170 1.350 . S
C168 H194 0.931 . S
N169 Co165 2.148 . S
N169 C166 1.301 1_556 S
N169 C167 1.317 . S
N170 C166 1.328 . S
N170 C168 1.350 . S
H171 C166 0.930 . S
H172 C167 0.930 . S
C173 O174 1.224 . S
C173 O192 1.247 . S
O174 C173 1.224 . S
N175 Co165 2.128 . S
N175 C176 1.355 . S
N175 C178 1.311 . S
C176 N175 1.355 . S
C176 C177 1.363 . S
C176 H188 0.929 . S
C177 C176 1.363 . S
C177 N179 1.375 . S
C177 H195 0.931 . S
C178 N175 1.311 . S
C178 N179 1.347 . S
C178 H189 0.929 . S
N179 C177 1.375 . S
N179 C178 1.347 . S
C180 C183 1.365 . S
C180 N185 1.328 . S
C180 H186 0.929 . S
C181 C182 1.362 . S
C181 C184 1.378 . S
C181 H196 0.929 . S
C182 C181 1.362 . S
C182 C183 1.366 . S
C183 C180 1.365 . S
C183 C182 1.366 . S
C183 H197 0.930 . S
C184 C181 1.378 . S
C184 N185 1.315 . S
C184 H187 0.930 . S
N185 Co165 2.194 . S
N185 C180 1.328 . S
N185 C184 1.315 . S
H186 C180 0.929 . S
H187 C184 0.930 . S
H188 C176 0.929 . S
H189 C178 0.929 . S
O190 Co165 2.351 . S
O190 C193 1.244 . S
O191 Co165 2.155 . S
O191 C193 1.240 . S
O192 Co165 2.096 . S
O192 C173 1.247 . S
C193 O190 1.244 . S
C193 O191 1.240 . S
H194 C168 0.931 . S
H195 C177 0.931 . S
H196 C181 0.929 . S
H197 C183 0.930 . S
Co198 N202 2.148 . S
Co198 N208 2.128 . S
Co198 N218 2.194 . S
Co198 O223 2.351 . S
Co198 O224 2.155 . S
Co198 O225 2.096 . S
C199 N202 1.301 . S
C199 N203 1.328 . S
C199 H204 0.930 . S
C200 C201 1.333 . S
C200 N202 1.317 . S
C200 H205 0.930 . S
C201 C200 1.333 . S
C201 N203 1.350 . S
C201 H227 0.931 . S
N202 Co198 2.148 . S
N202 C199 1.301 . S
N202 C200 1.317 . S
N203 C199 1.328 . S
N203 C201 1.350 . S
H204 C199 0.930 . S
H205 C200 0.930 . S
C206 O207 1.224 . S
C206 O225 1.247 . S
O207 C206 1.224 . S
N208 Co198 2.128 . S
N208 C209 1.355 . S
N208 C211 1.311 . S
C209 N208 1.355 . S
C209 C210 1.363 . S
C209 H221 0.929 . S
C210 C209 1.363 . S
C210 N212 1.375 . S
C210 H228 0.931 . S
C211 N208 1.311 . S
C211 N212 1.347 . S
C211 H222 0.929 . S
N212 C210 1.375 . S
N212 C211 1.347 . S
C213 C216 1.365 . S
C213 N218 1.328 . S
C213 H219 0.929 . S
C214 C215 1.362 . S
C214 C217 1.378 . S
C214 H229 0.929 . S
C215 C214 1.362 . S
C215 C216 1.366 . S
C216 C213 1.365 . S
C216 C215 1.366 . S
C216 H230 0.930 . S
C217 C214 1.378 . S
C217 N218 1.315 . S
C217 H220 0.930 . S
N218 Co198 2.194 . S
N218 C213 1.328 . S
N218 C217 1.315 . S
H219 C213 0.929 . S
H220 C217 0.930 . S
H221 C209 0.929 . S
H222 C211 0.929 . S
O223 Co198 2.351 . S
O223 C226 1.244 . S
O224 Co198 2.155 . S
O224 C226 1.240 . S
O225 Co198 2.096 . S
O225 C206 1.247 . S
C226 O223 1.244 . S
C226 O224 1.240 . S
H227 C201 0.931 . S
H228 C210 0.931 . S
H229 C214 0.929 . S
H230 C216 0.930 . S
Co231 N235 2.148 . S
Co231 N241 2.128 1_556 S
Co231 N251 2.194 . S
Co231 O256 2.351 . S
Co231 O257 2.155 . S
Co231 O258 2.096 . S
C232 N235 1.301 . S
C232 N236 1.328 . S
C232 H237 0.930 . S
C233 C234 1.333 . S
C233 N235 1.317 . S
C233 H238 0.930 . S
C234 C233 1.333 . S
C234 N236 1.350 . S
C234 H260 0.931 . S
N235 Co231 2.148 . S
N235 C232 1.301 . S
N235 C233 1.317 . S
N236 C232 1.328 . S
N236 C234 1.350 . S
H237 C232 0.930 . S
H238 C233 0.930 . S
C239 O240 1.224 . S
C239 O258 1.247 . S
O240 C239 1.224 . S
N241 Co231 2.128 1_554 S
N241 C242 1.355 . S
N241 C244 1.311 . S
C242 N241 1.355 . S
C242 C243 1.363 . S
C242 H254 0.929 . S
C243 C242 1.363 . S
C243 N245 1.375 . S
C243 H261 0.931 . S
C244 N241 1.311 . S
C244 N245 1.347 . S
C244 H255 0.929 . S
N245 C243 1.375 . S
N245 C244 1.347 . S
C246 C249 1.365 . S
C246 N251 1.328 . S
C246 H252 0.929 . S
C247 C248 1.362 . S
C247 C250 1.378 . S
C247 H262 0.929 . S
C248 C247 1.362 . S
C248 C249 1.366 . S
C249 C246 1.365 . S
C249 C248 1.366 . S
C249 H263 0.930 . S
C250 C247 1.378 . S
C250 N251 1.315 . S
C250 H253 0.930 . S
N251 Co231 2.194 . S
N251 C246 1.328 . S
N251 C250 1.315 . S
H252 C246 0.929 . S
H253 C250 0.930 . S
H254 C242 0.929 . S
H255 C244 0.929 . S
O256 Co231 2.351 . S
O256 C259 1.244 . S
O257 Co231 2.155 . S
O257 C259 1.240 . S
O258 Co231 2.096 . S
O258 C239 1.247 . S
C259 O256 1.244 . S
C259 O257 1.240 . S
H260 C234 0.931 . S
H261 C243 0.931 . S
H262 C247 0.929 . S
H263 C249 0.930 . S
Co264 N268 2.148 . S
Co264 N274 2.128 . S
Co264 N284 2.194 . S
Co264 O289 2.351 . S
Co264 O290 2.155 . S
Co264 O291 2.096 . S
C265 N268 1.301 1_556 S
C265 N269 1.328 . S
C265 H270 0.930 . S
C266 C267 1.333 1_554 S
C266 N268 1.317 . S
C266 H271 0.930 . S
C267 C266 1.333 1_556 S
C267 N269 1.350 . S
C267 H293 0.931 . S
N268 Co264 2.148 . S
N268 C265 1.301 1_554 S
N268 C266 1.317 . S
N269 C265 1.328 . S
N269 C267 1.350 . S
H270 C265 0.930 . S
H271 C266 0.930 . S
C272 O273 1.224 . S
C272 O291 1.247 . S
O273 C272 1.224 . S
N274 Co264 2.128 . S
N274 C275 1.355 . S
N274 C277 1.311 . S
C275 N274 1.355 . S
C275 C276 1.363 . S
C275 H287 0.929 . S
C276 C275 1.363 . S
C276 N278 1.375 . S
C276 H294 0.931 . S
C277 N274 1.311 . S
C277 N278 1.347 . S
C277 H288 0.929 . S
N278 C276 1.375 . S
N278 C277 1.347 . S
C279 C282 1.365 . S
C279 N284 1.328 . S
C279 H285 0.929 . S
C280 C281 1.362 . S
C280 C283 1.378 . S
C280 H295 0.929 . S
C281 C280 1.362 . S
C281 C282 1.366 . S
C282 C279 1.365 . S
C282 C281 1.366 . S
C282 H296 0.930 . S
C283 C280 1.378 . S
C283 N284 1.315 . S
C283 H286 0.930 . S
N284 Co264 2.194 . S
N284 C279 1.328 . S
N284 C283 1.315 . S
H285 C279 0.929 . S
H286 C283 0.930 . S
H287 C275 0.929 . S
H288 C277 0.929 . S
O289 Co264 2.351 . S
O289 C292 1.244 . S
O290 Co264 2.155 . S
O290 C292 1.240 . S
O291 Co264 2.096 . S
O291 C272 1.247 . S
C292 O289 1.244 . S
C292 O290 1.240 . S
H293 C267 0.931 . S
H294 C276 0.931 . S
H295 C280 0.929 . S
H296 C282 0.930 . S
Co297 N301 2.148 . S
Co297 N307 2.128 . S
Co297 N317 2.194 . S
Co297 O322 2.351 . S
Co297 O323 2.155 . S
Co297 O324 2.096 . S
C298 N301 1.301 . S
C298 N302 1.328 . S
C298 H303 0.930 . S
C299 C300 1.333 . S
C299 N301 1.317 . S
C299 H304 0.930 . S
C300 C299 1.333 . S
C300 N302 1.350 . S
C300 H326 0.931 . S
N301 Co297 2.148 . S
N301 C298 1.301 . S
N301 C299 1.317 . S
N302 C298 1.328 . S
N302 C300 1.350 . S
H303 C298 0.930 . S
H304 C299 0.930 . S
C305 O306 1.224 . S
C305 O324 1.247 . S
O306 C305 1.224 . S
N307 Co297 2.128 . S
N307 C308 1.355 . S
N307 C310 1.311 . S
C308 N307 1.355 . S
C308 C309 1.363 . S
C308 H320 0.929 . S
C309 C308 1.363 . S
C309 N311 1.375 . S
C309 H327 0.931 . S
C310 N307 1.311 . S
C310 N311 1.347 . S
C310 H321 0.929 . S
N311 C309 1.375 . S
N311 C310 1.347 . S
C312 C315 1.365 . S
C312 N317 1.328 . S
C312 H318 0.929 . S
C313 C314 1.362 . S
C313 C316 1.378 . S
C313 H328 0.929 . S
C314 C313 1.362 . S
C314 C315 1.366 . S
C315 C312 1.365 . S
C315 C314 1.366 . S
C315 H329 0.930 . S
C316 C313 1.378 . S
C316 N317 1.315 . S
C316 H319 0.930 . S
N317 Co297 2.194 . S
N317 C312 1.328 . S
N317 C316 1.315 . S
H318 C312 0.929 . S
H319 C316 0.930 . S
H320 C308 0.929 . S
H321 C310 0.929 . S
O322 Co297 2.351 . S
O322 C325 1.244 . S
O323 Co297 2.155 . S
O323 C325 1.240 . S
O324 Co297 2.096 . S
O324 C305 1.247 . S
C325 O322 1.244 . S
C325 O323 1.240 . S
H326 C300 0.931 . S
H327 C309 0.931 . S
H328 C313 0.929 . S
H329 C315 0.930 . S
Co330 N334 2.148 . S
Co330 N340 2.128 1_556 S
Co330 N350 2.194 . S
Co330 O355 2.351 . S
Co330 O356 2.155 . S
Co330 O357 2.096 . S
C331 N334 1.301 . S
C331 N335 1.328 . S
C331 H336 0.930 . S
C332 C333 1.333 . S
C332 N334 1.317 . S
C332 H337 0.930 . S
C333 C332 1.333 . S
C333 N335 1.350 . S
C333 H359 0.931 . S
N334 Co330 2.148 . S
N334 C331 1.301 . S
N334 C332 1.317 . S
N335 C331 1.328 . S
N335 C333 1.350 . S
H336 C331 0.930 . S
H337 C332 0.930 . S
C338 O339 1.224 . S
C338 O357 1.247 . S
O339 C338 1.224 . S
N340 Co330 2.128 1_554 S
N340 C341 1.355 . S
N340 C343 1.311 . S
C341 N340 1.355 . S
C341 C342 1.363 . S
C341 H353 0.929 . S
C342 C341 1.363 . S
C342 N344 1.375 . S
C342 H360 0.931 . S
C343 N340 1.311 . S
C343 N344 1.347 . S
C343 H354 0.929 . S
N344 C342 1.375 . S
N344 C343 1.347 . S
C345 C348 1.365 . S
C345 N350 1.328 . S
C345 H351 0.929 . S
C346 C347 1.362 . S
C346 C349 1.378 . S
C346 H361 0.929 . S
C347 C346 1.362 . S
C347 C348 1.366 . S
C348 C345 1.365 . S
C348 C347 1.366 . S
C348 H362 0.930 . S
C349 C346 1.378 . S
C349 N350 1.315 . S
C349 H352 0.930 . S
N350 Co330 2.194 . S
N350 C345 1.328 . S
N350 C349 1.315 . S
H351 C345 0.929 . S
H352 C349 0.930 . S
H353 C341 0.929 . S
H354 C343 0.929 . S
O355 Co330 2.351 . S
O355 C358 1.244 . S
O356 Co330 2.155 . S
O356 C358 1.240 . S
O357 Co330 2.096 . S
O357 C338 1.247 . S
C358 O355 1.244 . S
C358 O356 1.240 . S
H359 C333 0.931 . S
H360 C342 0.931 . S
H361 C346 0.929 . S
H362 C348 0.930 . S
Co363 N367 2.148 . S
Co363 N373 2.128 . S
Co363 N383 2.194 . S
Co363 O388 2.351 . S
Co363 O389 2.155 . S
Co363 O390 2.096 . S
C364 N367 1.301 1_556 S
C364 N368 1.328 . S
C364 H369 0.930 . S
C365 C366 1.333 1_554 S
C365 N367 1.317 . S
C365 H370 0.930 . S
C366 C365 1.333 1_556 S
C366 N368 1.350 . S
C366 H392 0.931 . S
N367 Co363 2.148 . S
N367 C364 1.301 1_554 S
N367 C365 1.317 . S
N368 C364 1.328 . S
N368 C366 1.350 . S
H369 C364 0.930 . S
H370 C365 0.930 . S
C371 O372 1.224 . S
C371 O390 1.247 . S
O372 C371 1.224 . S
N373 Co363 2.128 . S
N373 C374 1.355 . S
N373 C376 1.311 . S
C374 N373 1.355 . S
C374 C375 1.363 . S
C374 H386 0.929 . S
C375 C374 1.363 . S
C375 N377 1.375 . S
C375 H393 0.931 . S
C376 N373 1.311 . S
C376 N377 1.347 . S
C376 H387 0.929 . S
N377 C375 1.375 . S
N377 C376 1.347 . S
C378 C381 1.365 . S
C378 N383 1.328 . S
C378 H384 0.929 . S
C379 C380 1.362 . S
C379 C382 1.378 . S
C379 H394 0.929 . S
C380 C379 1.362 . S
C380 C381 1.366 . S
C381 C378 1.365 . S
C381 C380 1.366 . S
C381 H395 0.930 . S
C382 C379 1.378 . S
C382 N383 1.315 . S
C382 H385 0.930 . S
N383 Co363 2.194 . S
N383 C378 1.328 . S
N383 C382 1.315 . S
H384 C378 0.929 . S
H385 C382 0.930 . S
H386 C374 0.929 . S
H387 C376 0.929 . S
O388 Co363 2.351 . S
O388 C391 1.244 . S
O389 Co363 2.155 . S
O389 C391 1.240 . S
O390 Co363 2.096 . S
O390 C371 1.247 . S
C391 O388 1.244 . S
C391 O389 1.240 . S
H392 C366 0.931 . S
H393 C375 0.931 . S
H394 C379 0.929 . S
H395 C381 0.930 . S
C396 C397 1.387 . S
C396 H400 0.950 . S
C396 C405 1.390 1_455 S
C397 C396 1.387 . S
C397 C399 1.387 . S
H398 C405 0.950 . S
C399 C397 1.387 . S
C399 C401 1.390 1_455 S
C399 H403 0.950 . S
H400 C396 0.950 . S
C401 C399 1.390 1_655 S
C401 C402 1.387 . S
C401 H404 0.950 . S
C402 C401 1.387 . S
C402 C405 1.387 . S
H403 C399 0.950 . S
H404 C401 0.950 . S
C405 C396 1.390 1_655 S
C405 H398 0.950 . S
C405 C402 1.387 . S
C406 C407 1.387 . S
C406 H410 0.950 . S
C406 C415 1.390 1_545 S
C407 C406 1.387 . S
C407 C409 1.387 . S
H408 C415 0.950 . S
C409 C407 1.387 . S
C409 C411 1.390 1_545 S
C409 H413 0.950 . S
H410 C406 0.950 . S
C411 C409 1.390 1_565 S
C411 C412 1.387 . S
C411 H414 0.950 . S
C412 C411 1.387 . S
C412 C415 1.387 . S
H413 C409 0.950 . S
H414 C411 0.950 . S
C415 C406 1.390 1_565 S
C415 H408 0.950 . S
C415 C412 1.387 . S
C416 C417 1.387 . S
C416 H420 0.950 . S
C416 C425 1.390 . S
C417 C416 1.387 . S
C417 C419 1.387 . S
H418 C425 0.950 . S
C419 C417 1.387 . S
C419 C421 1.390 . S
C419 H423 0.950 . S
H420 C416 0.950 . S
C421 C419 1.390 . S
C421 C422 1.387 . S
C421 H424 0.950 . S
C422 C421 1.387 . S
C422 C425 1.387 . S
H423 C419 0.950 . S
H424 C421 0.950 . S
C425 C416 1.390 . S
C425 H418 0.950 . S
C425 C422 1.387 . S
C426 C427 1.387 . S
C426 H430 0.950 . S
C426 C435 1.390 1_455 S
C427 C426 1.387 . S
C427 C429 1.387 . S
H428 C435 0.950 . S
C429 C427 1.387 . S
C429 C431 1.390 1_455 S
C429 H433 0.950 . S
H430 C426 0.950 . S
C431 C429 1.390 1_655 S
C431 C432 1.387 . S
C431 H434 0.950 . S
C432 C431 1.387 . S
C432 C435 1.387 . S
H433 C429 0.950 . S
H434 C431 0.950 . S
C435 C426 1.390 1_655 S
C435 H428 0.950 . S
C435 C432 1.387 . S
C436 C437 1.387 . S
C436 H440 0.950 . S
C436 C445 1.390 1_545 S
C437 C436 1.387 . S
C437 C439 1.387 . S
H438 C445 0.950 . S
C439 C437 1.387 . S
C439 C441 1.390 1_545 S
C439 H443 0.950 . S
H440 C436 0.950 . S
C441 C439 1.390 1_565 S
C441 C442 1.387 . S
C441 H444 0.950 . S
C442 C441 1.387 . S
C442 C445 1.387 . S
H443 C439 0.950 . S
H444 C441 0.950 . S
C445 C436 1.390 1_565 S
C445 H438 0.950 . S
C445 C442 1.387 . S
C446 C447 1.387 . S
C446 H450 0.950 . S
C446 C455 1.390 . S
C447 C446 1.387 . S
C447 C449 1.387 . S
H448 C455 0.950 . S
C449 C447 1.387 . S
C449 C451 1.390 . S
C449 H453 0.950 . S
H450 C446 0.950 . S
C451 C449 1.390 . S
C451 C452 1.387 . S
C451 H454 0.950 . S
C452 C451 1.387 . S
C452 C455 1.387 . S
H453 C449 0.950 . S
H454 C451 0.950 . S
C455 C446 1.390 . S
C455 H448 0.950 . S
C455 C452 1.387 . S
C456 C457 1.387 . S
C456 H460 0.950 . S
C456 C465 1.390 . S
C457 C456 1.387 . S
C457 C459 1.387 . S
H458 C465 0.950 . S
C459 C457 1.387 . S
C459 C461 1.390 . S
C459 H463 0.950 . S
H460 C456 0.950 . S
C461 C459 1.390 . S
C461 C462 1.387 . S
C461 H464 0.950 . S
C462 C461 1.387 . S
C462 C465 1.387 . S
H463 C459 0.950 . S
H464 C461 0.950 . S
C465 C456 1.390 . S
C465 H458 0.950 . S
C465 C462 1.387 . S
C466 C467 1.387 . S
C466 H470 0.950 . S
C466 C475 1.390 1_556 S
C467 C466 1.387 . S
C467 C469 1.387 . S
H468 C475 0.950 . S
C469 C467 1.387 . S
C469 C471 1.390 1_556 S
C469 H473 0.950 . S
H470 C466 0.950 . S
C471 C469 1.390 1_554 S
C471 C472 1.387 . S
C471 H474 0.950 . S
C472 C471 1.387 . S
C472 C475 1.387 . S
H473 C469 0.950 . S
H474 C471 0.950 . S
C475 C466 1.390 1_554 S
C475 H468 0.950 . S
C475 C472 1.387 . S
C476 C477 1.387 . S
C476 H480 0.950 . S
C476 C485 1.390 . S
C477 C476 1.387 . S
C477 C479 1.387 . S
H478 C485 0.950 . S
C479 C477 1.387 . S
C479 C481 1.390 . S
C479 H483 0.950 . S
H480 C476 0.950 . S
C481 C479 1.390 . S
C481 C482 1.387 . S
C481 H484 0.950 . S
C482 C481 1.387 . S
C482 C485 1.387 . S
H483 C479 0.950 . S
H484 C481 0.950 . S
C485 C476 1.390 . S
C485 H478 0.950 . S
C485 C482 1.387 . S
C486 C487 1.387 . S
C486 H490 0.950 . S
C486 C495 1.390 . S
C487 C486 1.387 . S
C487 C489 1.387 . S
H488 C495 0.950 . S
C489 C487 1.387 . S
C489 C491 1.390 . S
C489 H493 0.950 . S
H490 C486 0.950 . S
C491 C489 1.390 . S
C491 C492 1.387 . S
C491 H494 0.950 . S
C492 C491 1.387 . S
C492 C495 1.387 . S
H493 C489 0.950 . S
H494 C491 0.950 . S
C495 C486 1.390 . S
C495 H488 0.950 . S
C495 C492 1.387 . S
C496 C497 1.387 . S
C496 H500 0.950 . S
C496 C505 1.390 1_554 S
C497 C496 1.387 . S
C497 C499 1.387 . S
H498 C505 0.950 . S
C499 C497 1.387 . S
C499 C501 1.390 1_554 S
C499 H503 0.950 . S
H500 C496 0.950 . S
C501 C499 1.390 1_556 S
C501 C502 1.387 . S
C501 H504 0.950 . S
C502 C501 1.387 . S
C502 C505 1.387 . S
H503 C499 0.950 . S
H504 C501 0.950 . S
C505 C496 1.390 1_556 S
C505 H498 0.950 . S
C505 C502 1.387 . S
C506 C507 1.387 . S
C506 H510 0.950 . S
C506 C515 1.390 . S
C507 C506 1.387 . S
C507 C509 1.387 . S
H508 C515 0.950 . S
C509 C507 1.387 . S
C509 C511 1.390 . S
C509 H513 0.950 . S
H510 C506 0.950 . S
C511 C509 1.390 . S
C511 C512 1.387 . S
C511 H514 0.950 . S
C512 C511 1.387 . S
C512 C515 1.387 . S
H513 C509 0.950 . S
H514 C511 0.950 . S
C515 C506 1.390 . S
C515 H508 0.950 . S
C515 C512 1.387 . S
C516 C517 1.393 . S
C516 H520 0.954 . S
C516 C525 1.381 1_556 S
C517 C516 1.393 . S
C517 C519 1.387 . S
H518 C525 0.950 . S
C519 C517 1.387 . S
C519 C521 1.390 1_556 S
C519 H523 0.950 . S
H520 C516 0.954 . S
C521 C519 1.390 1_554 S
C521 C522 1.387 . S
C521 H524 0.950 . S
C522 C521 1.387 . S
C522 C525 1.387 . S
H523 C519 0.950 . S
H524 C521 0.950 . S
C525 C516 1.381 1_554 S
C525 H518 0.950 . S
C525 C522 1.387 . S
C526 C527 1.387 . S
C526 H530 0.950 . S
C526 C535 1.390 . S
C527 C526 1.387 . S
C527 C529 1.387 . S
H528 C535 0.950 . S
C529 C527 1.387 . S
C529 C531 1.390 . S
C529 H533 0.950 . S
H530 C526 0.950 . S
C531 C529 1.390 . S
C531 C532 1.387 . S
C531 H534 0.950 . S
C532 C531 1.387 . S
C532 C535 1.387 . S
H533 C529 0.950 . S
H534 C531 0.950 . S
C535 C526 1.390 . S
C535 H528 0.950 . S
C535 C532 1.387 . S
C536 C537 1.387 . S
C536 H540 0.950 . S
C536 C545 1.390 . S
C537 C536 1.387 . S
C537 C539 1.387 . S
H538 C545 0.950 . S
C539 C537 1.387 . S
C539 C541 1.390 . S
C539 H543 0.950 . S
H540 C536 0.950 . S
C541 C539 1.390 . S
C541 C542 1.387 . S
C541 H544 0.950 . S
C542 C541 1.387 . S
C542 C545 1.387 . S
H543 C539 0.950 . S
H544 C541 0.950 . S
C545 C536 1.390 . S
C545 H538 0.950 . S
C545 C542 1.387 . S
C546 C547 1.387 . S
C546 H550 0.950 . S
C546 C555 1.390 1_554 S
C547 C546 1.387 . S
C547 C549 1.387 . S
H548 C555 0.950 . S
C549 C547 1.387 . S
C549 C551 1.390 1_554 S
C549 H553 0.950 . S
H550 C546 0.950 . S
C551 C549 1.390 1_556 S
C551 C552 1.387 . S
C551 H554 0.950 . S
C552 C551 1.387 . S
C552 C555 1.387 . S
H553 C549 0.950 . S
H554 C551 0.950 . S
C555 C546 1.390 1_556 S
C555 H548 0.950 . S
C555 C552 1.387 . S
C556 C557 1.387 . S
C556 H560 0.950 . S
C556 C565 1.390 . S
C557 C556 1.387 . S
C557 C559 1.387 . S
H558 C565 0.950 . S
C559 C557 1.387 . S
C559 C561 1.390 . S
C559 H563 0.950 . S
H560 C556 0.950 . S
C561 C559 1.390 . S
C561 C562 1.387 . S
C561 H564 0.950 . S
C562 C561 1.387 . S
C562 C565 1.387 . S
H563 C559 0.950 . S
H564 C561 0.950 . S
C565 C556 1.390 . S
C565 H558 0.950 . S
C565 C562 1.387 . S
C566 C567 1.387 . S
C566 H570 0.950 . S
C566 C575 1.390 . S
C567 C566 1.387 . S
C567 C569 1.387 . S
H568 C575 0.950 . S
C569 C567 1.387 . S
C569 C571 1.390 . S
C569 H573 0.950 . S
H570 C566 0.950 . S
C571 C569 1.390 . S
C571 C572 1.387 . S
C571 H574 0.950 . S
C572 C571 1.387 . S
C572 C575 1.387 . S
H573 C569 0.950 . S
H574 C571 0.950 . S
C575 C566 1.390 . S
C575 H568 0.950 . S
C575 C572 1.387 . S
C576 C577 1.387 . S
C576 H580 0.950 . S
C576 C585 1.390 . S
C577 C576 1.387 . S
C577 C579 1.387 . S
H578 C585 0.950 . S
C579 C577 1.387 . S
C579 C581 1.390 . S
C579 H583 0.950 . S
H580 C576 0.950 . S
C581 C579 1.390 . S
C581 C582 1.387 . S
C581 H584 0.950 . S
C582 C581 1.387 . S
C582 C585 1.387 . S
H583 C579 0.950 . S
H584 C581 0.950 . S
C585 C576 1.390 . S
C585 H578 0.950 . S
C585 C582 1.387 . S
C586 C587 1.387 . S
C586 H590 0.950 . S
C586 C595 1.390 . S
C587 C586 1.387 . S
C587 C589 1.387 . S
H588 C595 0.950 . S
C589 C587 1.387 . S
C589 C591 1.390 . S
C589 H593 0.950 . S
H590 C586 0.950 . S
C591 C589 1.390 . S
C591 C592 1.387 . S
C591 H594 0.950 . S
C592 C591 1.387 . S
C592 C595 1.387 . S
H593 C589 0.950 . S
H594 C591 0.950 . S
C595 C586 1.390 . S
C595 H588 0.950 . S
C595 C592 1.387 . S
C596 C597 1.387 . S
C596 H600 0.950 . S
C596 C605 1.390 . S
C597 C596 1.387 . S
C597 C599 1.387 . S
H598 C605 0.950 . S
C599 C597 1.387 . S
C599 C601 1.390 . S
C599 H603 0.950 . S
H600 C596 0.950 . S
C601 C599 1.390 . S
C601 C602 1.387 . S
C601 H604 0.950 . S
C602 C601 1.387 . S
C602 C605 1.387 . S
H603 C599 0.950 . S
H604 C601 0.950 . S
C605 C596 1.390 . S
C605 H598 0.950 . S
C605 C602 1.387 . S
C606 C607 1.387 . S
C606 H610 0.950 . S
C606 C615 1.390 . S
C607 C606 1.387 . S
C607 C609 1.387 . S
H608 C615 0.950 . S
C609 C607 1.387 . S
C609 C611 1.390 . S
C609 H613 0.950 . S
H610 C606 0.950 . S
C611 C609 1.390 . S
C611 C612 1.387 . S
C611 H614 0.950 . S
C612 C611 1.387 . S
C612 C615 1.387 . S
H613 C609 0.950 . S
H614 C611 0.950 . S
C615 C606 1.390 . S
C615 H608 0.950 . S
C615 C612 1.387 . S
C616 C617 1.387 . S
C616 H620 0.950 . S
C616 C625 1.390 . S
C617 C616 1.387 . S
C617 C619 1.387 . S
H618 C625 0.950 . S
C619 C617 1.387 . S
C619 C621 1.390 . S
C619 H623 0.950 . S
H620 C616 0.950 . S
C621 C619 1.390 . S
C621 C622 1.387 . S
C621 H624 0.950 . S
C622 C621 1.387 . S
C622 C625 1.387 . S
H623 C619 0.950 . S
H624 C621 0.950 . S
C625 C616 1.390 . S
C625 H618 0.950 . S
C625 C622 1.387 . S
C626 C627 1.387 . S
C626 H630 0.950 . S
C626 C635 1.390 . S
C627 C626 1.387 . S
C627 C629 1.387 . S
H628 C635 0.950 . S
C629 C627 1.387 . S
C629 C631 1.390 . S
C629 H633 0.950 . S
H630 C626 0.950 . S
C631 C629 1.390 . S
C631 C632 1.387 . S
C631 H634 0.950 . S
C632 C631 1.387 . S
C632 C635 1.387 . S
H633 C629 0.950 . S
H634 C631 0.950 . S
C635 C626 1.390 . S
C635 H628 0.950 . S
C635 C632 1.387 . S
C636 C637 1.387 . S
C636 H640 0.950 . S
C636 C645 1.390 1_556 S
C637 C636 1.387 . S
C637 C639 1.387 . S
H638 C645 0.950 . S
C639 C637 1.387 . S
C639 C641 1.390 1_556 S
C639 H643 0.950 . S
H640 C636 0.950 . S
C641 C639 1.390 1_554 S
C641 C642 1.387 . S
C641 H644 0.950 . S
C642 C641 1.387 . S
C642 C645 1.387 . S
H643 C639 0.950 . S
H644 C641 0.950 . S
C645 C636 1.390 1_554 S
C645 H638 0.950 . S
C645 C642 1.387 . S
C646 C647 1.387 . S
C646 H650 0.950 . S
C646 C655 1.390 . S
C647 C646 1.387 . S
C647 C649 1.387 . S
H648 C655 0.950 . S
C649 C647 1.387 . S
C649 C651 1.390 . S
C649 H653 0.950 . S
H650 C646 0.950 . S
C651 C649 1.390 . S
C651 C652 1.387 . S
C651 H654 0.950 . S
C652 C651 1.387 . S
C652 C655 1.387 . S
H653 C649 0.950 . S
H654 C651 0.950 . S
C655 C646 1.390 . S
C655 H648 0.950 . S
C655 C652 1.387 . S
C656 C657 1.387 . S
C656 H660 0.950 . S
C656 C665 1.390 . S
C657 C656 1.387 . S
C657 C659 1.387 . S
H658 C665 0.950 . S
C659 C657 1.387 . S
C659 C661 1.390 . S
C659 H663 0.950 . S
H660 C656 0.950 . S
C661 C659 1.390 . S
C661 C662 1.387 . S
C661 H664 0.950 . S
C662 C661 1.387 . S
C662 C665 1.387 . S
H663 C659 0.950 . S
H664 C661 0.950 . S
C665 C656 1.390 . S
C665 H658 0.950 . S
C665 C662 1.387 . S
C666 C667 1.387 . S
C666 H670 0.950 . S
C666 C675 1.390 1_554 S
C667 C666 1.387 . S
C667 C669 1.387 . S
H668 C675 0.950 . S
C669 C667 1.387 . S
C669 C671 1.390 1_554 S
C669 H673 0.950 . S
H670 C666 0.950 . S
C671 C669 1.390 1_556 S
C671 C672 1.387 . S
C671 H674 0.950 . S
C672 C671 1.387 . S
C672 C675 1.387 . S
H673 C669 0.950 . S
H674 C671 0.950 . S
C675 C666 1.390 1_556 S
C675 H668 0.950 . S
C675 C672 1.387 . S
C676 C677 1.387 . S
C676 H680 0.950 . S
C676 C685 1.390 . S
C677 C676 1.387 . S
C677 C679 1.387 . S
H678 C685 0.950 . S
C679 C677 1.387 . S
C679 C681 1.390 . S
C679 H683 0.950 . S
H680 C676 0.950 . S
C681 C679 1.390 . S
C681 C682 1.387 . S
C681 H684 0.950 . S
C682 C681 1.387 . S
C682 C685 1.387 . S
H683 C679 0.950 . S
H684 C681 0.950 . S
C685 C676 1.390 . S
C685 H678 0.950 . S
C685 C682 1.387 . S
C686 C687 1.387 . S
C686 H690 0.950 . S
C686 C695 1.390 . S
C687 C686 1.387 . S
C687 C689 1.387 . S
H688 C695 0.950 . S
C689 C687 1.387 . S
C689 C691 1.390 . S
C689 H693 0.950 . S
H690 C686 0.950 . S
C691 C689 1.390 . S
C691 C692 1.387 . S
C691 H694 0.950 . S
C692 C691 1.387 . S
C692 C695 1.387 . S
H693 C689 0.950 . S
H694 C691 0.950 . S
C695 C686 1.390 . S
C695 H688 0.950 . S
C695 C692 1.387 . S
C397 C28 1.421 . S
C402 C391 1.419 . S
C407 C61 1.420 . S
C412 C226 1.420 . S
C417 C259 1.421 . S
C422 C94 1.419 . S
C427 C292 1.420 . S
C432 C127 1.419 . S
C437 C325 1.420 . S
C442 C160 1.420 . S
C447 C358 1.419 . S
C452 C193 1.420 . S
C457 N14 1.441 . S
C462 N5 1.444 . S
C467 N38 1.444 . S
C472 N47 1.441 . S
C477 N80 1.441 . S
C482 N71 1.445 . S
C487 N113 1.441 . S
C492 N104 1.444 . S
C497 N146 1.440 . S
C502 N137 1.444 . S
C507 N170 1.443 . S
C512 N179 1.440 . S
C517 N212 1.440 . S
C522 N203 1.443 . S
C527 N236 1.445 . S
C532 N245 1.441 . S
C537 N278 1.441 . S
C542 N269 1.445 . S
C547 N302 1.444 . S
C552 N311 1.441 . S
C557 N335 1.445 . S
C562 N344 1.441 . S
C567 N377 1.441 . S
C572 N368 1.445 . S
C577 C17 1.596 . S
C582 C281 1.594 . S
C587 C50 1.595 . S
C592 C314 1.595 . S
C597 C83 1.596 . S
C602 C347 1.595 . S
C607 C380 1.595 . S
C612 C116 1.594 . S
C617 C215 1.596 . S
C622 C149 1.596 . S
C627 C248 1.595 . S
C632 C182 1.596 . S
C637 C338 1.229 . S
C642 C8 1.229 . S
C647 C371 1.228 . S
C652 C41 1.227 . S
C657 C206 1.229 . S
C662 C74 1.227 . S
C667 C107 1.229 . S
C672 C239 1.229 . S
C677 C140 1.229 . S
C682 C272 1.228 . S
C687 C173 1.229 . S
C692 C305 1.228 . S
