# Generated by pormake.
# Topology tfs, (6)-cn, num edge types: 1
# Building blocks:
#     Node 0, Type 0, BuildingBlock: BETFEN_clean_sbu_0, # of connection points: 6
#     Node 1, Type 0, BuildingBlock: BETFEN_clean_sbu_0, # of connection points: 6
#     Node 2, Type 0, BuildingBlock: BETFEN_clean_sbu_0, # of connection points: 6
#     Node 3, Type 0, BuildingBlock: BETFEN_clean_sbu_0, # of connection points: 6
#     Node 4, Type 0, BuildingBlock: BETFEN_clean_sbu_0, # of connection points: 6
#     Node 5, Type 0, BuildingBlock: BETFEN_clean_sbu_0, # of connection points: 6
#     Edge 6, Type (0, 0), BuildingBlock: CIFDUS_clean_linker_0, # of connection points: 2
#     Edge 7, Type (0, 0), BuildingBlock: CIFDUS_clean_linker_0, # of connection points: 2
#     Edge 8, Type (0, 0), BuildingBlock: CIFDUS_clean_linker_0, # of connection points: 2
#     Edge 9, Type (0, 0), BuildingBlock: CIFDUS_clean_linker_0, # of connection points: 2
#     Edge 10, Type (0, 0), BuildingBlock: CIFDUS_clean_linker_0, # of connection points: 2
#     Edge 11, Type (0, 0), BuildingBlock: CIFDUS_clean_linker_0, # of connection points: 2
#     Edge 12, Type (0, 0), BuildingBlock: CIFDUS_clean_linker_0, # of connection points: 2
#     Edge 13, Type (0, 0), BuildingBlock: CIFDUS_clean_linker_0, # of connection points: 2
#     Edge 14, Type (0, 0), BuildingBlock: CIFDUS_clean_linker_0, # of connection points: 2
#     Edge 15, Type (0, 0), BuildingBlock: CIFDUS_clean_linker_0, # of connection points: 2
#     Edge 16, Type (0, 0), BuildingBlock: CIFDUS_clean_linker_0, # of connection points: 2
#     Edge 17, Type (0, 0), BuildingBlock: CIFDUS_clean_linker_0, # of connection points: 2
#     Edge 18, Type (0, 0), BuildingBlock: CIFDUS_clean_linker_0, # of connection points: 2
#     Edge 19, Type (0, 0), BuildingBlock: CIFDUS_clean_linker_0, # of connection points: 2
#     Edge 20, Type (0, 0), BuildingBlock: CIFDUS_clean_linker_0, # of connection points: 2
#     Edge 21, Type (0, 0), BuildingBlock: CIFDUS_clean_linker_0, # of connection points: 2
#     Edge 22, Type (0, 0), BuildingBlock: CIFDUS_clean_linker_0, # of connection points: 2
#     Edge 23, Type (0, 0), BuildingBlock: CIFDUS_clean_linker_0, # of connection points: 2
# Relax obj value: 0.577
# Max RMSD: 0.466
# Mean RMSD: 0.362
data_MOF--net-tfs--node1-BETFEN_clean_sbu_0--edge1-CIFDUS_clean_linker_0
_symmetry_space_group_name_H-M    P1
_symmetry_Int_Tables_number       1
_symmetry_cell_setting            triclinic
loop_
_symmetry_equiv_pos_as_xyz
'x, y, z'
_cell_length_a     47.01
_cell_length_b     42.64444
_cell_length_c     11.405726
_cell_angle_alpha  100.78048
_cell_angle_beta   81.393789
_cell_angle_gamma 112.30127
loop_
_atom_site_label
_atom_site_type_symbol
_atom_site_fract_x
_atom_site_fract_y
_atom_site_fract_z
_atom_type_partial_charge
Pr0 Pr 0.23643 0.40372 0.37609 0.0
Pr1 Pr 0.21631 0.45772 0.29612 0.0
C2 C 0.24867 0.36137 0.49154 0.0
C3 C 0.24189 0.32626 0.51531 0.0
C4 C 0.26083 0.30839 0.45692 0.0
C5 C 0.25972 0.27896 0.4967 0.0
C6 C 0.2396 0.26659 0.59615 0.0
C7 C 0.21879 0.2829 0.64819 0.0
C8 C 0.22007 0.31262 0.60874 0.0
C9 C 0.23054 0.39608 0.13126 0.0
C10 C 0.16054 0.39109 0.38897 0.0
C11 C 0.20529 0.49982 0.17631 0.0
C12 C 0.21936 0.51824 0.07299 0.0
C13 C 0.24973 0.54188 0.07034 0.0
C14 C 0.2611 0.56262 0.98023 0.0
C15 C 0.24242 0.55988 0.89 0.0
C16 C 0.21328 0.53338 0.88572 0.0
C17 C 0.20168 0.51315 0.97762 0.0
C18 C 0.22072 0.46344 0.54116 0.0
C19 C 0.29089 0.47116 0.28659 0.0
O20 O 0.22923 0.37669 0.53693 0.0
O21 O 0.26244 0.36966 0.38717 0.0
O22 O 0.21275 0.40349 0.2156 0.0
O23 O 0.25175 0.38959 0.17224 0.0
O24 O 0.16783 0.41667 0.32717 0.0
O25 O 0.18191 0.38273 0.42577 0.0
O26 O 0.19322 0.46652 0.15208 0.0
O27 O 0.21965 0.51062 0.27455 0.0
O28 O 0.23948 0.45757 0.45766 0.0
O29 O 0.19898 0.46892 0.49934 0.0
O30 O 0.2832 0.4505 0.36866 0.0
O31 O 0.2694 0.4734 0.22899 0.0
H32 H 0.27811 0.3184 0.38552 0.0
H33 H 0.27657 0.26772 0.4552 0.0
H34 H 0.20271 0.27387 0.72385 0.0
H35 H 0.2052 0.32591 0.65591 0.0
H36 H 0.26417 0.54576 0.14139 0.0
H37 H 0.28357 0.5827 -0.01181 0.0
H38 H 0.19857 0.5298 0.81605 0.0
H39 H 0.17834 0.49451 0.97688 0.0
Pr40 Pr 0.83223 0.23984 0.63866 0.0
Pr41 Pr 0.76165 0.22024 0.56683 0.0
C42 C 0.88637 0.26076 0.73808 0.0
C43 C 0.91991 0.27506 0.70365 0.0
C44 C 0.93186 0.26991 0.58425 0.0
C45 C 0.96381 0.28238 0.55374 0.0
C46 C 0.98455 0.30041 0.64189 0.0
C47 C 0.97234 0.30568 0.76136 0.0
C48 C 0.94038 0.29311 0.79176 0.0
C49 C 0.82466 0.22593 0.39931 0.0
C50 C 0.78603 0.1585 0.5868 0.0
C51 C 0.70501 0.20092 0.49319 0.0
C52 C 0.67783 0.20961 0.54552 0.0
C53 C 0.67273 0.21757 0.67025 0.0
C54 C 0.64795 0.22769 0.71971 0.0
C55 C 0.62786 0.23026 0.64542 0.0
C56 C 0.63296 0.22204 0.52044 0.0
C57 C 0.65775 0.21186 0.47103 0.0
C58 C 0.77126 0.23556 0.80565 0.0
C59 C 0.8046 0.30196 0.61925 0.0
O60 O 0.87169 0.22912 0.69173 0.0
O61 O 0.87067 0.28069 0.74285 0.0
O62 O 0.81073 0.24081 0.4778 0.0
O63 O 0.84785 0.2229 0.43892 0.0
O64 O 0.77079 0.16843 0.52114 0.0
O65 O 0.80683 0.18115 0.6577 0.0
O66 O 0.72866 0.22599 0.45324 0.0
O67 O 0.71284 0.1824 0.55273 0.0
O68 O 0.78365 0.21928 0.72668 0.0
O69 O 0.74925 0.24102 0.76699 0.0
O70 O 0.82553 0.29377 0.66121 0.0
O71 O 0.78046 0.27886 0.56731 0.0
H72 H 0.9165 0.25593 0.51469 0.0
H73 H 0.97224 0.2774 0.46115 0.0
H74 H 0.98745 0.31987 0.83144 0.0
H75 H 0.93165 0.29737 0.88445 0.0
H76 H 0.68811 0.21637 0.72964 0.0
H77 H 0.64492 0.23417 0.81602 0.0
H78 H 0.61768 0.22331 0.46071 0.0
H79 H 0.66139 0.20601 0.37462 0.0
Pr80 Pr 0.65041 0.78384 0.44584 0.0
Pr81 Pr 0.60583 0.70904 0.32967 0.0
C82 C 0.68454 0.84388 0.56923 0.0
C83 C 0.69492 0.8812 0.56291 0.0
C84 C 0.72592 0.90226 0.57608 0.0
C85 C 0.73625 0.93746 0.56934 0.0
C86 C 0.71579 0.95263 0.54941 0.0
C87 C 0.68463 0.93138 0.53714 0.0
C88 C 0.67437 0.89618 0.54335 0.0
C89 C 0.66064 0.76607 0.19984 0.0
C90 C 0.66633 0.71446 0.45012 0.0
C91 C 0.56783 0.65166 0.20474 0.0
C92 C 0.53526 0.62823 0.22072 0.0
C93 C 0.51886 0.62755 0.33431 0.0
C94 C 0.48813 0.60525 0.34943 0.0
C95 C 0.47292 0.58328 0.25114 0.0
C96 C 0.48935 0.58418 0.13715 0.0
C97 C 0.52026 0.60634 0.12227 0.0
C98 C 0.59294 0.72768 0.57382 0.0
C99 C 0.59394 0.77983 0.2993 0.0
O100 O 0.65515 0.82764 0.59796 0.0
O101 O 0.69662 0.82583 0.48586 0.0
O102 O 0.65395 0.74614 0.27673 0.0
O103 O 0.6655 0.7973 0.25132 0.0
O104 O 0.65044 0.69968 0.35516 0.0
O105 O 0.66531 0.74356 0.5135 0.0
O106 O 0.57244 0.68259 0.18547 0.0
O107 O 0.58653 0.65139 0.27846 0.0
O108 O 0.60158 0.74723 0.49531 0.0
O109 O 0.58697 0.69624 0.5238 0.0
O110 O 0.6119 0.79796 0.38573 0.0
O111 O 0.59079 0.74774 0.25649 0.0
H112 H 0.74228 0.89139 0.59094 0.0
H113 H 0.76044 0.95264 0.57764 0.0
H114 H 0.66796 0.94196 0.52371 0.0
H115 H 0.65032 0.88071 0.5327 0.0
H116 H 0.52986 0.6443 0.41154 0.0
H117 H 0.47612 0.60549 0.43819 0.0
H118 H 0.47847 0.56735 0.05987 0.0
H119 H 0.53247 0.6063 0.03384 0.0
Pr120 Pr 0.80264 0.55174 0.52093 0.0
Pr121 Pr 0.73793 0.52895 0.67144 0.0
C122 C 0.85101 0.57472 0.35941 0.0
C123 C 0.88455 0.58418 0.33735 0.0
C124 C 0.90313 0.59214 0.43208 0.0
C125 C 0.93528 0.60494 0.41064 0.0
C126 C 0.94929 0.61 0.29415 0.0
C127 C 0.93044 0.60067 0.19904 0.0
C128 C 0.89833 0.58788 0.22061 0.0
C129 C 0.80495 0.56367 0.76893 0.0
C130 C 0.75715 0.59862 0.55684 0.0
C131 C 0.68798 0.51419 0.82983 0.0
C132 C 0.6599 0.52277 0.8483 0.0
C133 C 0.64113 0.51524 0.75454 0.0
C134 C 0.61428 0.52271 0.77314 0.0
C135 C 0.60559 0.53835 0.8857 0.0
C136 C 0.62542 0.5476 0.97771 0.0
C137 C 0.65223 0.53971 0.95925 0.0
C138 C 0.73625 0.51768 0.422 0.0
C139 C 0.7794 0.4777 0.62125 0.0
O140 O 0.84125 0.59483 0.44279 0.0
O141 O 0.8342 0.5422 0.3584 0.0
O142 O 0.78573 0.56774 0.71298 0.0
O143 O 0.82624 0.55659 0.6948 0.0
O144 O 0.7426 0.58393 0.6515 0.0
O145 O 0.77757 0.58783 0.48536 0.0
O146 O 0.69091 0.49292 0.73373 0.0
O147 O 0.71362 0.53989 0.85213 0.0
O148 O 0.755 0.51317 0.47893 0.0
O149 O 0.71535 0.52564 0.49599 0.0
O150 O 0.79788 0.49588 0.5388 0.0
O151 O 0.75793 0.4873 0.69032 0.0
H152 H 0.89278 0.58949 0.52292 0.0
H153 H 0.94913 0.61219 0.48598 0.0
H154 H 0.94052 0.60379 0.10817 0.0
H155 H 0.88425 0.58178 0.14651 0.0
H156 H 0.64672 0.50278 0.66718 0.0
H157 H 0.59957 0.51437 0.70024 0.0
H158 H 0.6198 0.56002 0.06501 0.0
H159 H 0.66677 0.54641 0.0322 0.0
Pr160 Pr 0.27886 0.79335 0.16907 0.0
Pr161 Pr 0.34847 0.82772 0.05981 0.0
C162 C 0.22611 0.76732 0.30671 0.0
C163 C 0.19431 0.7428 0.30182 0.0
C164 C 0.18027 0.7309 0.19378 0.0
C165 C 0.14952 0.70843 0.19264 0.0
C166 C 0.13245 0.69746 0.29948 0.0
C167 C 0.14695 0.70904 0.4069 0.0
C168 C 0.17761 0.7315 0.40791 0.0
C169 C 0.28619 0.82009 0.95755 0.0
C170 C 0.32153 0.87194 0.27738 0.0
C171 C 0.40371 0.8522 0.93607 0.0
C172 C 0.43154 0.84352 0.92851 0.0
C173 C 0.45992 0.86955 0.95436 0.0
C174 C 0.48499 0.86138 0.97189 0.0
C175 C 0.48213 0.82699 0.9632 0.0
C176 C 0.4542 0.80101 0.93053 0.0
C177 C 0.42912 0.80917 0.91397 0.0
C178 C 0.34148 0.79844 0.26667 0.0
C179 C 0.30495 0.74786 0.94705 0.0
O180 O 0.2331 0.79508 0.25777 0.0
O181 O 0.24791 0.75447 0.28764 0.0
O182 O 0.30309 0.83371 0.04308 0.0
O183 O 0.26224 0.79401 -0.01293 0.0
O184 O 0.33924 0.87477 0.17539 0.0
O185 O 0.30063 0.84252 0.30197 0.0
O186 O 0.37955 0.82888 0.88697 0.0
O187 O 0.39668 0.8672 0.04103 0.0
O188 O 0.32426 0.78682 0.18226 0.0
O189 O 0.3659 0.82375 0.23687 0.0
O190 O 0.28314 0.7472 0.03534 0.0
O191 O 0.33049 0.77488 0.93434 0.0
H192 H 0.193 0.73922 0.11082 0.0
H193 H 0.13908 0.69967 0.10831 0.0
H194 H 0.13436 0.70147 0.4909 0.0
H195 H 0.18818 0.74047 0.49203 0.0
H196 H 0.46223 0.8962 0.96692 0.0
H197 H 0.50631 0.88193 -0.00406 0.0
H198 H 0.45111 0.77428 0.92464 0.0
H199 H 0.40739 0.78851 0.8959 0.0
Pr200 Pr 0.4001 0.18818 0.91015 0.0
Pr201 Pr 0.41168 0.26128 0.84913 0.0
C202 C 0.39375 0.13118 -0.00422 0.0
C203 C 0.38308 0.09523 0.93984 0.0
C204 C 0.35722 0.08199 0.87316 0.0
C205 C 0.35136 0.05108 0.79677 0.0
C206 C 0.37142 0.03302 0.78474 0.0
C207 C 0.39626 0.04526 0.85669 0.0
C208 C 0.40198 0.07613 0.93409 0.0
C209 C 0.41899 0.19631 0.67189 0.0
C210 C 0.34712 0.19663 0.78295 0.0
C211 C 0.41432 0.31981 0.78356 0.0
C212 C 0.42424 0.35528 0.84391 0.0
C213 C 0.41648 0.38 0.80456 0.0
C214 C 0.4278 0.41421 0.85882 0.0
C215 C 0.44723 0.42413 0.95265 0.0
C216 C 0.45314 0.39848 -0.00405 0.0
C217 C 0.44169 0.36451 0.94245 0.0
C218 C 0.39454 0.2514 0.08759 0.0
C219 C 0.46957 0.24891 0.92857 0.0
O220 O 0.37317 0.14582 0.02194 0.0
O221 O 0.4198 0.15051 0.94565 0.0
O222 O 0.42863 0.21798 0.76109 0.0
O223 O 0.39921 0.16764 0.70366 0.0
O224 O 0.36932 0.22382 0.74603 0.0
O225 O 0.35093 0.18042 0.86369 0.0
O226 O 0.43613 0.30706 0.75095 0.0
O227 O 0.38933 0.29868 0.83366 0.0
O228 O 0.38326 0.23112 -0.00205 0.0
O229 O 0.41562 0.2793 0.05602 0.0
O230 O 0.44797 0.22461 -0.01585 0.0
O231 O 0.46206 0.2658 0.85969 0.0
H232 H 0.34255 0.09646 0.87427 0.0
H233 H 0.33223 0.04245 0.74149 0.0
H234 H 0.41186 0.0316 0.84986 0.0
H235 H 0.42222 0.0861 -0.01601 0.0
H236 H 0.40244 0.37306 0.72992 0.0
H237 H 0.42239 0.43304 0.82402 0.0
H238 H 0.46839 0.40475 0.06605 0.0
H239 H 0.44751 0.3456 0.97515 0.0
H240 H 0.30115 0.21259 0.91211 0.0
H241 H 0.32671 0.16624 0.56473 0.0
H242 H 0.28709 0.17649 0.47786 0.0
H243 H 0.25507 0.21121 0.49336 0.0
H244 H 0.23661 0.26575 0.83739 0.0
H245 H 0.2617 0.23831 0.93377 0.0
C246 C 0.29684 0.20323 0.81874 0.0
C247 C 0.31654 0.18869 0.74445 0.0
C248 C 0.27544 0.21129 0.76851 0.0
C249 C 0.31158 0.17735 0.62311 0.0
C250 C 0.28914 0.18355 0.57344 0.0
C251 C 0.25602 0.21661 0.58976 0.0
C252 C 0.2448 0.24142 0.65693 0.0
C253 C 0.27246 0.20258 0.64389 0.0
C254 C 0.24512 0.24701 0.78248 0.0
C255 C 0.25991 0.23162 0.83796 0.0
H256 H 0.13156 0.35648 0.58041 0.0
H257 H 0.1142 0.38299 0.25792 0.0
H258 H 0.05884 0.35686 0.30582 0.0
H259 H 1.0151 0.3293 0.44322 0.0
H260 H 0.03111 0.3024 0.76718 0.0
H261 H 0.08684 0.3262 0.71591 0.0
C262 C 0.11561 0.35605 0.52003 0.0
C263 C 0.12712 0.37175 0.41577 0.0
C264 C 0.08343 0.34133 0.54914 0.0
C265 C 0.10608 0.37134 0.33918 0.0
C266 C 0.07432 0.35639 0.36645 0.0
C267 C 0.03067 0.3281 0.50201 0.0
C268 C 1.01867 0.31403 0.60911 0.0
C269 C 0.0627 0.34174 0.47187 0.0
C270 C 0.03951 0.31347 0.68493 0.0
C271 C 0.07148 0.3269 0.65525 0.0
H272 H 0.74508 0.10452 0.45357 0.0
H273 H 0.80799 0.12774 0.72437 0.0
H274 H 0.79228 0.06678 0.73608 0.0
H275 H 0.75931 1.0067 0.67487 0.0
H276 H 0.69743 0.98369 0.40024 0.0
H277 H 0.71378 0.04445 0.38658 0.0
C278 C 0.75554 0.09634 0.51483 0.0
C279 C 0.77775 0.12103 0.58806 0.0
C280 C 0.74632 0.06108 0.52154 0.0
C281 C 0.79092 0.10959 0.66661 0.0
C282 C 0.78186 0.0746 0.6737 0.0
C283 C 0.7496 1.01481 0.61088 0.0
C284 C 0.72681 0.99019 0.53961 0.0
C285 C 0.7594 0.05007 0.60223 0.0
C286 C 0.71443 1.00172 0.45844 0.0
C287 C 0.72398 0.03662 0.44971 0.0
H288 H 0.72732 0.63779 0.69817 0.0
H289 H 0.76263 0.61595 0.33321 0.0
H290 H 0.73721 0.64922 0.26684 0.0
H291 H 0.70212 0.68186 0.3112 0.0
H292 H 0.67143 0.70857 0.67833 0.0
H293 H 0.69779 0.67628 0.74534 0.0
C294 C 0.72982 0.64068 0.60429 0.0
C295 C 0.74643 0.62379 0.52053 0.0
C296 C 0.71571 0.66058 0.56709 0.0
C297 C 0.74977 0.62831 0.39955 0.0
C298 C 0.73513 0.64729 0.36139 0.0
C299 C 0.70143 0.68073 0.40585 0.0
C300 C 0.68451 0.69716 0.48971 0.0
C301 C 0.71753 0.66301 0.44402 0.0
C302 C 0.6842 0.69604 0.6122 0.0
C303 C 0.69926 0.67754 0.65048 0.0
H304 H 0.08845 0.70273 0.1829 0.0
H305 H 0.10187 0.64263 0.42013 0.0
H306 H 0.04652 0.60934 0.43594 0.0
H307 H 0.99403 0.59887 0.38868 0.0
H308 H 0.98086 0.65972 0.15356 0.0
H309 H 0.03644 0.69046 0.12811 0.0
C310 C 0.07936 0.68196 0.23639 0.0
C311 C 0.09926 0.67531 0.30065 0.0
C312 C 0.04753 0.66301 0.24541 0.0
C313 C 0.08699 0.6486 0.37104 0.0
C314 C 0.05536 0.62948 0.37982 0.0
C315 C 1.00335 0.61887 0.33194 0.0
C316 C 0.98328 0.62696 0.27328 0.0
C317 C 0.03535 0.63679 0.3188 0.0
C318 C 0.99577 0.65263 0.19862 0.0
C319 C 0.02756 0.67043 0.18466 0.0
H320 H 0.37513 0.92417 0.33016 0.0
H321 H 0.27771 0.88434 0.4402 0.0
H322 H 0.2848 0.92959 0.61142 0.0
H323 H 0.31857 0.98022 0.7303 0.0
H324 H 0.41619 0.02001 0.62427 0.0
H325 H 0.40934 0.97453 0.45296 0.0
C326 C 0.35548 0.92586 0.39073 0.0
C327 C 0.32592 0.90146 0.37203 0.0
C328 C 0.35983 0.95146 0.49081 0.0
C329 C 0.30067 0.90315 0.45263 0.0
C330 C 0.3047 0.92885 0.55078 0.0
C331 C 0.33832 0.97886 0.66967 0.0
C332 C 0.36777 1.00336 0.68952 0.0
C333 C 0.33417 0.95302 0.57099 0.0
C334 C 0.3933 1.00112 0.61149 0.0
C335 C 0.38936 0.97539 0.51285 0.0
H336 H 0.2528 0.70337 0.85651 0.0
H337 H 0.34894 0.72018 0.86166 0.0
H338 H 0.33829 0.65898 0.79834 0.0
H339 H 0.29957 0.60085 0.80221 0.0
H340 H 0.20278 0.58593 0.82596 0.0
H341 H 0.21579 0.64538 0.80774 0.0
C342 C 0.27153 0.69367 0.83938 0.0
C343 C 0.3013 0.7156 0.86721 0.0
C344 C 0.26498 0.6585 0.80853 0.0
C345 C 0.32571 0.70341 0.84216 0.0
C346 C 0.31955 0.6684 0.80702 0.0
C347 C 0.28134 0.61043 0.80044 0.0
C348 C 0.25028 0.58922 0.8225 0.0
C349 C 0.28891 0.64553 0.79938 0.0
C350 C 0.22697 0.6015 0.81227 0.0
C351 C 0.23435 0.6359 0.80367 0.0
H352 H 0.5165 0.28204 0.77409 0.0
H353 H 0.495 0.21736 0.04915 0.0
H354 H 0.54355 0.20772 -0.00954 0.0
H355 H 0.58866 0.21171 0.8442 0.0
H356 H 0.60851 0.27458 0.56467 0.0
H357 H 0.56367 0.29028 0.64074 0.0
C358 C 0.52265 0.26646 0.82344 0.0
C359 C 0.5019 0.25026 0.91554 0.0
C360 C 0.54997 0.25995 0.78625 0.0
C361 C 0.51043 0.23012 0.97783 0.0
C362 C 0.53809 0.22433 0.94353 0.0
C363 C 0.58348 0.2293 0.80112 0.0
C364 C 0.60174 0.24156 0.69773 0.0
C365 C 0.55749 0.23812 0.84508 0.0
C366 C 0.5945 0.26414 0.64264 0.0
C367 C 0.56898 0.27336 0.68669 0.0
H368 H 0.42467 0.57089 0.11838 0.0
H369 H 0.44745 0.54196 0.42455 0.0
H370 H 0.39377 0.50449 0.46091 0.0
H371 H 0.33999 0.48068 0.40899 0.0
H372 H 0.31652 0.5106 0.10624 0.0
H373 H 0.37054 0.54662 0.06547 0.0
C374 C 0.41791 0.55615 0.1924 0.0
C375 C 0.44017 0.5594 0.26882 0.0
C376 C 0.38674 0.53483 0.21382 0.0
C377 C 0.43084 0.54032 0.36509 0.0
C378 C 0.40011 0.51876 0.38577 0.0
C379 C 0.34663 0.49494 0.3337 0.0
C380 C 0.324 0.49275 0.26089 0.0
C381 C 0.37778 0.51597 0.31135 0.0
C382 C 0.33325 0.51171 0.16419 0.0
C383 C 0.36424 0.53236 0.14061 0.0
H384 H 0.82974 0.45733 0.58311 0.0
H385 H 0.73182 0.42232 0.68687 0.0
H386 H 0.73155 0.36598 0.70079 0.0
H387 H 0.75816 0.3256 0.67587 0.0
H388 H 0.85635 0.35938 0.58457 0.0
H389 H 0.85768 0.41717 0.57534 0.0
C390 C 0.80843 0.43733 0.60899 0.0
C391 C 0.78076 0.44409 0.63296 0.0
C392 C 0.80851 0.40478 0.61968 0.0
C393 C 0.75343 0.41801 0.6681 0.0
C394 C 0.75321 0.38566 0.67595 0.0
C395 C 0.77995 0.34572 0.65512 0.0
C396 C 0.80709 0.33819 0.63029 0.0
C397 C 0.78049 0.37867 0.6511 0.0
C398 C 0.83518 0.36458 0.60479 0.0
C399 C 0.83585 0.39754 0.59858 0.0
H400 H 0.515 0.85587 0.15783 0.0
H401 H 0.5042 0.77724 0.85063 0.0
H402 H 0.53922 0.75687 0.92534 0.0
H403 H 0.56922 0.75842 0.08553 0.0
H404 H 0.58054 0.83717 0.39268 0.0
H405 H 0.54912 0.86071 0.30963 0.0
C406 C 0.52082 0.83475 0.10592 0.0
C407 C 0.50681 0.81792 -0.00075 0.0
C408 C 0.54069 0.82292 0.15013 0.0
C409 C 0.51434 0.79032 0.93379 0.0
C410 C 0.53434 0.77866 0.97645 0.0
C411 C 0.56492 0.78081 0.13435 0.0
C412 C 0.57679 0.79569 0.24616 0.0
C413 C 0.54696 0.7942 0.08603 0.0
C414 C 0.5715 0.82509 0.3069 0.0
C415 C 0.55351 0.83853 0.25949 0.0
H416 H 0.56749 0.52889 0.09334 0.0
H417 H 0.57112 0.55003 0.73457 0.0
H418 H 0.51526 0.52237 0.73724 0.0
H419 H 0.47118 0.47555 0.81353 0.0
H420 H 0.46682 0.45645 0.17551 0.0
H421 H 0.51718 0.50165 0.20106 0.0
C422 C 0.5562 0.52914 0.01759 0.0
C423 C 0.57372 0.53901 0.9101 0.0
C424 C 0.52402 0.51291 0.01922 0.0
C425 C 0.55828 0.54041 0.81557 0.0
C426 C 0.52626 0.52465 0.81701 0.0
C427 C 0.48027 0.48221 0.90041 0.0
C428 C 0.46642 0.46075 -0.01081 0.0
C429 C 0.50948 0.50788 0.91389 0.0
C430 C 0.47807 0.47112 0.10266 0.0
C431 C 0.50693 0.49698 0.11744 0.0
H432 H 0.18617 0.40453 0.03072 0.0
H433 H 0.28015 0.40858 0.96426 0.0
H434 H 0.28578 0.43178 0.77768 0.0
H435 H 0.26449 0.45283 0.63832 0.0
H436 H 0.17067 0.44947 0.70606 0.0
H437 H 0.16473 0.42521 0.89053 0.0
C438 C 0.20787 0.41051 0.97513 0.0
C439 C 0.2328 0.40522 0.01115 0.0
C440 C 0.21112 0.42461 0.8702 0.0
C441 C 0.26062 0.41236 0.93782 0.0
C442 C 0.26393 0.42596 0.83207 0.0
C443 C 0.24284 0.44711 0.69427 0.0
C444 C 0.21808 0.45302 0.65942 0.0
C445 C 0.2395 0.43271 0.79863 0.0
C446 C 0.19011 0.44537 0.73185 0.0
C447 C 0.18663 0.43118 0.83642 0.0
H448 H 0.77118 0.21378 0.32321 0.0
H449 H 0.86613 0.22877 0.20304 0.0
H450 H 0.85799 0.23743 0.00563 0.0
H451 H 0.8245 0.24427 0.87739 0.0
H452 H 0.73044 0.23315 0.00265 0.0
H453 H 0.7382 0.22268 0.19761 0.0
C454 C 0.78994 0.21897 0.25342 0.0
C455 C 0.81912 0.22133 0.27567 0.0
C456 C 0.78562 0.22632 0.14615 0.0
C457 C 0.84342 0.22674 0.18555 0.0
C458 C 0.83894 0.2324 0.07475 0.0
C459 C 0.80602 0.24037 0.94862 0.0
C460 C 0.77712 0.2395 0.92841 0.0
C461 C 0.81041 0.23329 0.05627 0.0
C462 C 0.75297 0.23437 0.01905 0.0
C463 C 0.75723 0.22768 0.12846 0.0
H464 H 0.64672 0.80235 0.06271 0.0
H465 H 0.64981 0.70293 0.07122 0.0
H466 H 0.6264 0.6813 0.88051 0.0
H467 H 0.60527 0.69095 0.71332 0.0
H468 H 0.6009 0.78983 0.70693 0.0
H469 H 0.62386 0.8114 0.89892 0.0
C470 C 0.64269 0.77609 0.02189 0.0
C471 C 0.65029 0.75427 0.07917 0.0
C472 C 0.62848 0.76371 0.91492 0.0
C473 C 0.6444 0.72015 0.02722 0.0
C474 C 0.63077 0.70776 0.91928 0.0
C475 C 0.60894 0.71708 0.75483 0.0
C476 C 0.60184 0.73905 0.69655 0.0
C477 C 0.62254 0.72927 0.86308 0.0
C478 C 0.60669 0.7728 0.75044 0.0
C479 C 0.6199 0.78509 0.85934 0.0
H480 H 0.78113 0.50687 0.26019 0.0
H481 H 0.70874 0.54812 0.30874 0.0
H482 H 0.72593 0.56934 0.1158 0.0
H483 H 0.7629 0.57804 0.93672 0.0
H484 H 0.83264 0.53293 0.88055 0.0
H485 H 0.81681 0.51364 0.07719 0.0
C486 C 0.76912 0.52044 0.22816 0.0
C487 C 0.74391 0.52619 0.29875 0.0
C488 C 0.77925 0.5327 0.11756 0.0
C489 C 0.72815 0.54325 0.25566 0.0
C490 C 0.73815 0.55569 0.14596 0.0
C491 C 0.77413 0.56335 0.96673 0.0
C492 C 0.79828 0.55614 0.89335 0.0
C493 C 0.76386 0.55086 0.07684 0.0
C494 C 0.81385 0.53869 0.93542 0.0
C495 C 0.80459 0.52732 0.04716 0.0
H496 H 0.35996 0.84672 0.45745 0.0
H497 H 0.2961 0.74443 0.35542 0.0
H498 H 0.27158 0.74315 0.56075 0.0
H499 H 0.26804 0.77165 0.76671 0.0
H500 H 0.33282 0.8734 0.86993 0.0
H501 H 0.35703 0.87484 0.66432 0.0
C502 C 0.34098 0.82394 0.48065 0.0
C503 C 0.32965 0.79566 0.39226 0.0
C504 C 0.32689 0.82368 0.59766 0.0
C505 C 0.30491 0.76649 0.42263 0.0
C506 C 0.29089 0.76585 0.53943 0.0
C507 C 0.28719 0.79432 0.74381 0.0
C508 C 0.29849 0.8226 0.83224 0.0
C509 C 0.30145 0.79449 0.62706 0.0
C510 C 0.32366 0.85154 0.80239 0.0
C511 C 0.33761 0.85222 0.68551 0.0
H512 H 0.3781 0.16854 0.50587 0.0
H513 H 0.46539 0.24853 0.58262 0.0
H514 H 0.46481 0.27448 0.40977 0.0
H515 H 0.43797 0.27596 0.24444 0.0
H516 H 0.3493 0.19765 0.17389 0.0
H517 H 0.35107 0.17013 0.34079 0.0
C518 C 0.39708 0.19134 0.48324 0.0
C519 C 0.42164 0.2068 0.55543 0.0
C520 C 0.39581 0.20696 0.38806 0.0
C521 C 0.44629 0.23633 0.52679 0.0
C522 C 0.44579 0.25136 0.42937 0.0
C523 C 0.41885 0.25325 0.26729 0.0
C524 C 0.39348 0.23884 0.19884 0.0
C525 C 0.42028 0.23737 0.36144 0.0
C526 C 0.36896 0.20914 0.22705 0.0
C527 C 0.3701 0.19325 0.3212 0.0
loop_
_geom_bond_atom_site_label_1
_geom_bond_atom_site_label_2
_geom_bond_distance
_geom_bond_site_symmetry_2
_ccdc_geom_bond_type
Pr0 C2 2.880 1_556 S
Pr0 O20 2.562 1_556 S
Pr0 O21 2.490 . S
Pr0 O22 2.695 . S
Pr0 O23 2.512 . S
Pr0 O25 2.437 . S
Pr0 O28 2.436 1_556 S
Pr0 O30 2.438 . S
Pr1 C11 2.880 1_554 S
Pr1 O22 2.436 1_554 S
Pr1 O24 2.438 . S
Pr1 O26 2.562 1_554 S
Pr1 O27 2.490 . S
Pr1 O28 2.695 . S
Pr1 O29 2.512 . S
Pr1 O31 2.437 . S
C2 Pr0 2.880 1_554 S
C2 C3 1.491 . S
C2 O20 1.254 . S
C2 O21 1.225 1_554 S
C3 C2 1.491 . S
C3 C4 1.392 1_554 S
C3 C8 1.356 . S
C4 C3 1.392 1_556 S
C4 C5 1.368 . S
C4 H32 0.929 . S
C5 C4 1.368 . S
C5 C6 1.386 1_556 S
C5 H33 0.929 . S
C6 C5 1.386 1_554 S
C6 C7 1.373 . S
C7 C6 1.373 . S
C7 C8 1.409 . S
C7 H34 0.931 . S
C8 C3 1.356 . S
C8 C7 1.409 . S
C8 H35 0.930 . S
C9 O22 1.270 . S
C9 O23 1.248 . S
C10 O24 1.267 . S
C10 O25 1.278 1_554 S
C11 Pr1 2.880 1_556 S
C11 C12 1.491 . S
C11 O26 1.254 . S
C11 O27 1.225 1_556 S
C12 C11 1.491 . S
C12 C13 1.392 1_556 S
C12 C17 1.356 . S
C13 C12 1.392 1_554 S
C13 C14 1.368 . S
C13 H36 0.929 . S
C14 C13 1.368 . S
C14 C15 1.386 1_554 S
C14 H37 0.929 . S
C15 C14 1.386 1_556 S
C15 C16 1.373 . S
C16 C15 1.373 . S
C16 C17 1.409 . S
C16 H38 0.931 . S
C17 C12 1.356 . S
C17 C16 1.409 . S
C17 H39 0.930 . S
C18 O28 1.270 . S
C18 O29 1.248 . S
C19 O30 1.267 . S
C19 O31 1.278 1_556 S
O20 Pr0 2.562 1_554 S
O20 C2 1.254 . S
O21 Pr0 2.490 . S
O21 C2 1.225 1_556 S
O22 Pr0 2.695 . S
O22 Pr1 2.436 1_556 S
O22 C9 1.270 . S
O23 Pr0 2.512 . S
O23 C9 1.248 . S
O24 Pr1 2.438 . S
O24 C10 1.267 . S
O25 Pr0 2.437 . S
O25 C10 1.278 1_556 S
O26 Pr1 2.562 1_556 S
O26 C11 1.254 . S
O27 Pr1 2.490 . S
O27 C11 1.225 1_554 S
O28 Pr0 2.436 1_554 S
O28 Pr1 2.695 . S
O28 C18 1.270 . S
O29 Pr1 2.512 . S
O29 C18 1.248 . S
O30 Pr0 2.438 . S
O30 C19 1.267 . S
O31 Pr1 2.437 . S
O31 C19 1.278 1_554 S
H32 C4 0.929 . S
H33 C5 0.929 . S
H34 C7 0.931 . S
H35 C8 0.930 . S
H36 C13 0.929 . S
H37 C14 0.929 . S
H38 C16 0.931 . S
H39 C17 0.930 . S
Pr40 C42 2.880 . S
Pr40 O60 2.562 . S
Pr40 O61 2.490 . S
Pr40 O62 2.695 . S
Pr40 O63 2.512 . S
Pr40 O65 2.437 . S
Pr40 O68 2.436 1_556 S
Pr40 O70 2.438 . S
Pr41 C51 2.880 1_556 S
Pr41 O62 2.436 . S
Pr41 O64 2.438 . S
Pr41 O66 2.562 . S
Pr41 O67 2.490 1_556 S
Pr41 O68 2.695 1_556 S
Pr41 O69 2.512 1_556 S
Pr41 O71 2.437 1_556 S
C42 Pr40 2.880 . S
C42 C43 1.491 . S
C42 O60 1.254 . S
C42 O61 1.225 . S
C43 C42 1.491 . S
C43 C44 1.392 . S
C43 C48 1.356 . S
C44 C43 1.392 . S
C44 C45 1.368 . S
C44 H72 0.929 . S
C45 C44 1.368 . S
C45 C46 1.386 . S
C45 H73 0.929 . S
C46 C45 1.386 . S
C46 C47 1.373 . S
C47 C46 1.373 . S
C47 C48 1.409 . S
C47 H74 0.931 . S
C48 C43 1.356 . S
C48 C47 1.409 . S
C48 H75 0.930 . S
C49 O62 1.270 . S
C49 O63 1.248 . S
C50 O64 1.267 . S
C50 O65 1.278 . S
C51 Pr41 2.880 1_554 S
C51 C52 1.491 . S
C51 O66 1.254 1_554 S
C51 O67 1.225 . S
C52 C51 1.491 . S
C52 C53 1.392 . S
C52 C57 1.356 1_554 S
C53 C52 1.392 . S
C53 C54 1.368 . S
C53 H76 0.929 . S
C54 C53 1.368 . S
C54 C55 1.386 . S
C54 H77 0.929 . S
C55 C54 1.386 . S
C55 C56 1.373 1_554 S
C56 C55 1.373 1_556 S
C56 C57 1.409 . S
C56 H78 0.931 . S
C57 C52 1.356 1_556 S
C57 C56 1.409 . S
C57 H79 0.930 . S
C58 O68 1.270 . S
C58 O69 1.248 . S
C59 O70 1.267 1_554 S
C59 O71 1.278 . S
O60 Pr40 2.562 . S
O60 C42 1.254 . S
O61 Pr40 2.490 . S
O61 C42 1.225 . S
O62 Pr40 2.695 . S
O62 Pr41 2.436 . S
O62 C49 1.270 . S
O63 Pr40 2.512 . S
O63 C49 1.248 . S
O64 Pr41 2.438 . S
O64 C50 1.267 . S
O65 Pr40 2.437 . S
O65 C50 1.278 . S
O66 Pr41 2.562 . S
O66 C51 1.254 1_556 S
O67 Pr41 2.490 1_554 S
O67 C51 1.225 . S
O68 Pr40 2.436 1_554 S
O68 Pr41 2.695 1_554 S
O68 C58 1.270 . S
O69 Pr41 2.512 1_554 S
O69 C58 1.248 . S
O70 Pr40 2.438 . S
O70 C59 1.267 1_556 S
O71 Pr41 2.437 1_554 S
O71 C59 1.278 . S
H72 C44 0.929 . S
H73 C45 0.929 . S
H74 C47 0.931 . S
H75 C48 0.930 . S
H76 C53 0.929 . S
H77 C54 0.929 . S
H78 C56 0.931 . S
H79 C57 0.930 . S
Pr80 C82 2.880 . S
Pr80 O100 2.562 . S
Pr80 O101 2.490 . S
Pr80 O102 2.695 1_554 S
Pr80 O103 2.512 1_554 S
Pr80 O105 2.437 . S
Pr80 O108 2.436 . S
Pr80 O110 2.438 . S
Pr81 C91 2.880 1_554 S
Pr81 O102 2.436 1_554 S
Pr81 O104 2.438 . S
Pr81 O106 2.562 1_554 S
Pr81 O107 2.490 . S
Pr81 O108 2.695 . S
Pr81 O109 2.512 . S
Pr81 O111 2.437 . S
C82 Pr80 2.880 . S
C82 C83 1.491 . S
C82 O100 1.254 . S
C82 O101 1.225 . S
C83 C82 1.491 . S
C83 C84 1.392 . S
C83 C88 1.356 . S
C84 C83 1.392 . S
C84 C85 1.368 . S
C84 H112 0.929 . S
C85 C84 1.368 . S
C85 C86 1.386 . S
C85 H113 0.929 . S
C86 C85 1.386 . S
C86 C87 1.373 . S
C87 C86 1.373 . S
C87 C88 1.409 . S
C87 H114 0.931 . S
C88 C83 1.356 . S
C88 C87 1.409 . S
C88 H115 0.930 . S
C89 O102 1.270 . S
C89 O103 1.248 . S
C90 O104 1.267 . S
C90 O105 1.278 . S
C91 Pr81 2.880 1_556 S
C91 C92 1.491 . S
C91 O106 1.254 . S
C91 O107 1.225 1_556 S
C92 C91 1.491 . S
C92 C93 1.392 1_556 S
C92 C97 1.356 . S
C93 C92 1.392 1_554 S
C93 C94 1.368 1_554 S
C93 H116 0.929 . S
C94 C93 1.368 1_556 S
C94 C95 1.386 . S
C94 H117 0.929 1_556 S
C95 C94 1.386 . S
C95 C96 1.373 . S
C96 C95 1.373 . S
C96 C97 1.409 . S
C96 H118 0.931 . S
C97 C92 1.356 . S
C97 C96 1.409 . S
C97 H119 0.930 . S
C98 O108 1.270 . S
C98 O109 1.248 . S
C99 O110 1.267 . S
C99 O111 1.278 . S
O100 Pr80 2.562 . S
O100 C82 1.254 . S
O101 Pr80 2.490 . S
O101 C82 1.225 . S
O102 Pr80 2.695 1_556 S
O102 Pr81 2.436 1_556 S
O102 C89 1.270 . S
O103 Pr80 2.512 1_556 S
O103 C89 1.248 . S
O104 Pr81 2.438 . S
O104 C90 1.267 . S
O105 Pr80 2.437 . S
O105 C90 1.278 . S
O106 Pr81 2.562 1_556 S
O106 C91 1.254 . S
O107 Pr81 2.490 . S
O107 C91 1.225 1_554 S
O108 Pr80 2.436 . S
O108 Pr81 2.695 . S
O108 C98 1.270 . S
O109 Pr81 2.512 . S
O109 C98 1.248 . S
O110 Pr80 2.438 . S
O110 C99 1.267 . S
O111 Pr81 2.437 . S
O111 C99 1.278 . S
H112 C84 0.929 . S
H113 C85 0.929 . S
H114 C87 0.931 . S
H115 C88 0.930 . S
H116 C93 0.929 . S
H117 C94 0.929 1_554 S
H118 C96 0.931 . S
H119 C97 0.930 . S
Pr120 C122 2.880 . S
Pr120 O140 2.562 . S
Pr120 O141 2.490 1_556 S
Pr120 O142 2.695 1_556 S
Pr120 O143 2.512 1_556 S
Pr120 O145 2.437 1_556 S
Pr120 O148 2.436 . S
Pr120 O150 2.438 1_556 S
Pr121 C131 2.880 . S
Pr121 O142 2.436 . S
Pr121 O144 2.438 1_554 S
Pr121 O146 2.562 . S
Pr121 O147 2.490 1_554 S
Pr121 O148 2.695 1_554 S
Pr121 O149 2.512 1_554 S
Pr121 O151 2.437 1_554 S
C122 Pr120 2.880 . S
C122 C123 1.491 . S
C122 O140 1.254 . S
C122 O141 1.225 1_556 S
C123 C122 1.491 . S
C123 C124 1.392 . S
C123 C128 1.356 . S
C124 C123 1.392 . S
C124 C125 1.368 . S
C124 H152 0.929 1_556 S
C125 C124 1.368 . S
C125 C126 1.386 . S
C125 H153 0.929 . S
C126 C125 1.386 . S
C126 C127 1.373 . S
C127 C126 1.373 . S
C127 C128 1.409 . S
C127 H154 0.931 . S
C128 C123 1.356 . S
C128 C127 1.409 . S
C128 H155 0.930 . S
C129 O142 1.270 . S
C129 O143 1.248 . S
C130 O144 1.267 . S
C130 O145 1.278 1_556 S
C131 Pr121 2.880 . S
C131 C132 1.491 . S
C131 O146 1.254 . S
C131 O147 1.225 1_554 S
C132 C131 1.491 . S
C132 C133 1.392 . S
C132 C137 1.356 . S
C133 C132 1.392 . S
C133 C134 1.368 . S
C133 H156 0.929 1_554 S
C134 C133 1.368 . S
C134 C135 1.386 . S
C134 H157 0.929 . S
C135 C134 1.386 . S
C135 C136 1.373 . S
C136 C135 1.373 . S
C136 C137 1.409 . S
C136 H158 0.931 . S
C137 C132 1.356 . S
C137 C136 1.409 . S
C137 H159 0.930 . S
C138 O148 1.270 . S
C138 O149 1.248 . S
C139 O150 1.267 . S
C139 O151 1.278 1_554 S
O140 Pr120 2.562 . S
O140 C122 1.254 . S
O141 Pr120 2.490 1_554 S
O141 C122 1.225 1_554 S
O142 Pr120 2.695 1_554 S
O142 Pr121 2.436 . S
O142 C129 1.270 . S
O143 Pr120 2.512 1_554 S
O143 C129 1.248 . S
O144 Pr121 2.438 1_556 S
O144 C130 1.267 . S
O145 Pr120 2.437 1_554 S
O145 C130 1.278 1_554 S
O146 Pr121 2.562 . S
O146 C131 1.254 . S
O147 Pr121 2.490 1_556 S
O147 C131 1.225 1_556 S
O148 Pr120 2.436 . S
O148 Pr121 2.695 1_556 S
O148 C138 1.270 . S
O149 Pr121 2.512 1_556 S
O149 C138 1.248 . S
O150 Pr120 2.438 1_554 S
O150 C139 1.267 . S
O151 Pr121 2.437 1_556 S
O151 C139 1.278 1_556 S
H152 C124 0.929 1_554 S
H153 C125 0.929 . S
H154 C127 0.931 . S
H155 C128 0.930 . S
H156 C133 0.929 1_556 S
H157 C134 0.929 . S
H158 C136 0.931 . S
H159 C137 0.930 . S
Pr160 C162 2.880 . S
Pr160 O180 2.562 . S
Pr160 O181 2.490 1_554 S
Pr160 O182 2.695 1_554 S
Pr160 O183 2.512 1_554 S
Pr160 O185 2.437 . S
Pr160 O188 2.436 . S
Pr160 O190 2.438 1_554 S
Pr161 C171 2.880 . S
Pr161 O182 2.436 . S
Pr161 O184 2.438 1_556 S
Pr161 O186 2.562 . S
Pr161 O187 2.490 1_556 S
Pr161 O188 2.695 1_556 S
Pr161 O189 2.512 1_556 S
Pr161 O191 2.437 . S
C162 Pr160 2.880 . S
C162 C163 1.491 . S
C162 O180 1.254 . S
C162 O181 1.225 1_554 S
C163 C162 1.491 . S
C163 C164 1.392 . S
C163 C168 1.356 . S
C164 C163 1.392 . S
C164 C165 1.368 . S
C164 H192 0.929 1_554 S
C165 C164 1.368 . S
C165 C166 1.386 . S
C165 H193 0.929 . S
C166 C165 1.386 . S
C166 C167 1.373 . S
C167 C166 1.373 . S
C167 C168 1.409 . S
C167 H194 0.931 . S
C168 C163 1.356 . S
C168 C167 1.409 . S
C168 H195 0.930 . S
C169 O182 1.270 . S
C169 O183 1.248 . S
C170 O184 1.267 . S
C170 O185 1.278 . S
C171 Pr161 2.880 . S
C171 C172 1.491 . S
C171 O186 1.254 . S
C171 O187 1.225 1_556 S
C172 C171 1.491 . S
C172 C173 1.392 . S
C172 C177 1.356 . S
C173 C172 1.392 . S
C173 C174 1.368 . S
C173 H196 0.929 1_556 S
C174 C173 1.368 . S
C174 C175 1.386 . S
C174 H197 0.929 . S
C175 C174 1.386 . S
C175 C176 1.373 . S
C176 C175 1.373 . S
C176 C177 1.409 . S
C176 H198 0.931 . S
C177 C172 1.356 . S
C177 C176 1.409 . S
C177 H199 0.930 . S
C178 O188 1.270 . S
C178 O189 1.248 . S
C179 O190 1.267 . S
C179 O191 1.278 . S
O180 Pr160 2.562 . S
O180 C162 1.254 . S
O181 Pr160 2.490 1_556 S
O181 C162 1.225 1_556 S
O182 Pr160 2.695 1_556 S
O182 Pr161 2.436 . S
O182 C169 1.270 . S
O183 Pr160 2.512 1_556 S
O183 C169 1.248 . S
O184 Pr161 2.438 1_554 S
O184 C170 1.267 . S
O185 Pr160 2.437 . S
O185 C170 1.278 . S
O186 Pr161 2.562 . S
O186 C171 1.254 . S
O187 Pr161 2.490 1_554 S
O187 C171 1.225 1_554 S
O188 Pr160 2.436 . S
O188 Pr161 2.695 1_554 S
O188 C178 1.270 . S
O189 Pr161 2.512 1_554 S
O189 C178 1.248 . S
O190 Pr160 2.438 1_556 S
O190 C179 1.267 . S
O191 Pr161 2.437 . S
O191 C179 1.278 . S
H192 C164 0.929 1_556 S
H193 C165 0.929 . S
H194 C167 0.931 . S
H195 C168 0.930 . S
H196 C173 0.929 1_554 S
H197 C174 0.929 . S
H198 C176 0.931 . S
H199 C177 0.930 . S
Pr200 C202 2.880 . S
Pr200 O220 2.562 1_556 S
Pr200 O221 2.490 . S
Pr200 O222 2.695 . S
Pr200 O223 2.512 . S
Pr200 O225 2.437 . S
Pr200 O228 2.436 1_556 S
Pr200 O230 2.438 . S
Pr201 C211 2.880 . S
Pr201 O222 2.436 1_554 S
Pr201 O224 2.438 . S
Pr201 O226 2.562 1_554 S
Pr201 O227 2.490 . S
Pr201 O228 2.695 . S
Pr201 O229 2.512 . S
Pr201 O231 2.437 . S
C202 Pr200 2.880 . S
C202 C203 1.491 . S
C202 O220 1.254 1_556 S
C202 O221 1.225 . S
C203 C202 1.491 . S
C203 C204 1.392 . S
C203 C208 1.356 . S
C204 C203 1.392 . S
C204 C205 1.368 1_545 S
C204 H232 0.929 . S
C205 C204 1.368 1_565 S
C205 C206 1.386 . S
C205 H233 0.929 . S
C206 C205 1.386 . S
C206 C207 1.373 1_565 S
C207 C206 1.373 1_545 S
C207 C208 1.409 . S
C207 H234 0.931 1_546 S
C208 C203 1.356 . S
C208 C207 1.409 . S
C208 H235 0.930 1_556 S
C209 O222 1.270 . S
C209 O223 1.248 . S
C210 O224 1.267 1_556 S
C210 O225 1.278 . S
C211 Pr201 2.880 . S
C211 C212 1.491 . S
C211 O226 1.254 1_554 S
C211 O227 1.225 . S
C212 C211 1.491 . S
C212 C213 1.392 . S
C212 C217 1.356 . S
C213 C212 1.392 . S
C213 C214 1.368 . S
C213 H236 0.929 . S
C214 C213 1.368 . S
C214 C215 1.386 . S
C214 H237 0.929 . S
C215 C214 1.386 . S
C215 C216 1.373 . S
C216 C215 1.373 . S
C216 C217 1.409 . S
C216 H238 0.931 1_554 S
C217 C212 1.356 . S
C217 C216 1.409 . S
C217 H239 0.930 1_554 S
C218 O228 1.270 . S
C218 O229 1.248 . S
C219 O230 1.267 1_554 S
C219 O231 1.278 . S
O220 Pr200 2.562 1_554 S
O220 C202 1.254 1_554 S
O221 Pr200 2.490 . S
O221 C202 1.225 . S
O222 Pr200 2.695 . S
O222 Pr201 2.436 1_556 S
O222 C209 1.270 . S
O223 Pr200 2.512 . S
O223 C209 1.248 . S
O224 Pr201 2.438 . S
O224 C210 1.267 1_554 S
O225 Pr200 2.437 . S
O225 C210 1.278 . S
O226 Pr201 2.562 1_556 S
O226 C211 1.254 1_556 S
O227 Pr201 2.490 . S
O227 C211 1.225 . S
O228 Pr200 2.436 1_554 S
O228 Pr201 2.695 . S
O228 C218 1.270 . S
O229 Pr201 2.512 . S
O229 C218 1.248 . S
O230 Pr200 2.438 . S
O230 C219 1.267 1_556 S
O231 Pr201 2.437 . S
O231 C219 1.278 . S
H232 C204 0.929 . S
H233 C205 0.929 . S
H234 C207 0.931 1_564 S
H235 C208 0.930 1_554 S
H236 C213 0.929 . S
H237 C214 0.929 . S
H238 C216 0.931 1_556 S
H239 C217 0.930 1_556 S
H240 C246 0.930 . S
H241 C249 0.930 . S
H242 C250 0.930 . S
H243 C251 0.930 . S
H244 C254 0.930 . S
H245 C255 0.930 . S
C246 H240 0.930 . S
C246 C247 1.355 . S
C246 C248 1.415 . S
C247 C246 1.355 . S
C247 C249 1.419 . S
C248 C246 1.415 . S
C248 C253 1.425 . S
C248 C255 1.409 . S
C249 H241 0.930 . S
C249 C247 1.419 . S
C249 C250 1.362 . S
C250 H242 0.930 . S
C250 C249 1.362 . S
C250 C253 1.409 . S
C251 H243 0.930 . S
C251 C252 1.355 . S
C251 C253 1.415 . S
C252 C251 1.355 . S
C252 C254 1.419 . S
C253 C248 1.425 . S
C253 C250 1.409 . S
C253 C251 1.415 . S
C254 H244 0.930 . S
C254 C252 1.419 . S
C254 C255 1.362 . S
C255 H245 0.930 . S
C255 C248 1.409 . S
C255 C254 1.362 . S
H256 C262 0.930 . S
H257 C265 0.930 . S
H258 C266 0.930 . S
H259 C267 0.930 . S
H260 C270 0.930 . S
H261 C271 0.930 . S
C262 H256 0.930 . S
C262 C263 1.355 . S
C262 C264 1.415 . S
C263 C262 1.355 . S
C263 C265 1.419 . S
C264 C262 1.415 . S
C264 C269 1.425 . S
C264 C271 1.409 . S
C265 H257 0.930 . S
C265 C263 1.419 . S
C265 C266 1.362 . S
C266 H258 0.930 . S
C266 C265 1.362 . S
C266 C269 1.409 . S
C267 H259 0.930 . S
C267 C268 1.355 . S
C267 C269 1.415 . S
C268 C267 1.355 . S
C268 C270 1.419 . S
C269 C264 1.425 . S
C269 C266 1.409 . S
C269 C267 1.415 . S
C270 H260 0.930 . S
C270 C268 1.419 . S
C270 C271 1.362 . S
C271 H261 0.930 . S
C271 C264 1.409 . S
C271 C270 1.362 . S
H272 C278 0.930 . S
H273 C281 0.930 . S
H274 C282 0.930 . S
H275 C283 0.930 . S
H276 C286 0.930 . S
H277 C287 0.930 . S
C278 H272 0.930 . S
C278 C279 1.355 . S
C278 C280 1.415 . S
C279 C278 1.355 . S
C279 C281 1.419 . S
C280 C278 1.415 . S
C280 C285 1.425 . S
C280 C287 1.409 . S
C281 H273 0.930 . S
C281 C279 1.419 . S
C281 C282 1.362 . S
C282 H274 0.930 . S
C282 C281 1.362 . S
C282 C285 1.409 . S
C283 H275 0.930 . S
C283 C284 1.355 1_545 S
C283 C285 1.415 . S
C284 C283 1.355 1_565 S
C284 C286 1.419 . S
C285 C280 1.425 . S
C285 C282 1.409 . S
C285 C283 1.415 . S
C286 H276 0.930 . S
C286 C284 1.419 . S
C286 C287 1.362 1_565 S
C287 H277 0.930 . S
C287 C280 1.409 . S
C287 C286 1.362 1_545 S
H288 C294 0.930 . S
H289 C297 0.930 . S
H290 C298 0.930 . S
H291 C299 0.930 . S
H292 C302 0.930 . S
H293 C303 0.930 . S
C294 H288 0.930 . S
C294 C295 1.355 . S
C294 C296 1.415 . S
C295 C294 1.355 . S
C295 C297 1.419 . S
C296 C294 1.415 . S
C296 C301 1.425 . S
C296 C303 1.409 . S
C297 H289 0.930 . S
C297 C295 1.419 . S
C297 C298 1.362 . S
C298 H290 0.930 . S
C298 C297 1.362 . S
C298 C301 1.409 . S
C299 H291 0.930 . S
C299 C300 1.355 . S
C299 C301 1.415 . S
C300 C299 1.355 . S
C300 C302 1.419 . S
C301 C296 1.425 . S
C301 C298 1.409 . S
C301 C299 1.415 . S
C302 H292 0.930 . S
C302 C300 1.419 . S
C302 C303 1.362 . S
C303 H293 0.930 . S
C303 C296 1.409 . S
C303 C302 1.362 . S
H304 C310 0.930 . S
H305 C313 0.930 . S
H306 C314 0.930 . S
H307 C315 0.930 . S
H308 C318 0.930 . S
H309 C319 0.934 1_455 S
C310 H304 0.930 . S
C310 C311 1.355 . S
C310 C312 1.415 . S
C311 C310 1.355 . S
C311 C313 1.419 . S
C312 C310 1.415 . S
C312 C317 1.425 . S
C312 C319 1.394 1_455 S
C313 H305 0.930 . S
C313 C311 1.419 . S
C313 C314 1.362 . S
C314 H306 0.930 . S
C314 C313 1.362 . S
C314 C317 1.409 . S
C315 H307 0.930 . S
C315 C316 1.355 . S
C315 C317 1.415 1_655 S
C316 C315 1.355 . S
C316 C318 1.419 . S
C317 C312 1.425 . S
C317 C314 1.409 . S
C317 C315 1.415 1_455 S
C318 H308 0.930 . S
C318 C316 1.419 . S
C318 C319 1.374 . S
C319 H309 0.934 1_655 S
C319 C312 1.394 1_655 S
C319 C318 1.374 . S
H320 C326 0.930 . S
H321 C329 0.930 . S
H322 C330 0.930 . S
H323 C331 0.930 . S
H324 C334 0.930 . S
H325 C335 0.930 . S
C326 H320 0.930 . S
C326 C327 1.355 . S
C326 C328 1.415 . S
C327 C326 1.355 . S
C327 C329 1.419 . S
C328 C326 1.415 . S
C328 C333 1.425 . S
C328 C335 1.409 . S
C329 H321 0.930 . S
C329 C327 1.419 . S
C329 C330 1.362 . S
C330 H322 0.930 . S
C330 C329 1.362 . S
C330 C333 1.409 . S
C331 H323 0.930 . S
C331 C332 1.355 . S
C331 C333 1.415 . S
C332 C331 1.355 . S
C332 C334 1.419 . S
C333 C328 1.425 . S
C333 C330 1.409 . S
C333 C331 1.415 . S
C334 H324 0.930 . S
C334 C332 1.419 . S
C334 C335 1.362 . S
C335 H325 0.930 . S
C335 C328 1.409 . S
C335 C334 1.362 . S
H336 C342 0.930 . S
H337 C345 0.930 1_554 S
H338 C346 0.930 . S
H339 C347 0.930 . S
H340 C350 0.930 . S
H341 C351 0.930 . S
C342 H336 0.930 . S
C342 C343 1.355 . S
C342 C344 1.415 . S
C343 C342 1.355 . S
C343 C345 1.419 . S
C344 C342 1.415 . S
C344 C349 1.425 . S
C344 C351 1.409 . S
C345 H337 0.930 1_556 S
C345 C343 1.419 . S
C345 C346 1.362 1_556 S
C346 H338 0.930 . S
C346 C345 1.362 1_554 S
C346 C349 1.409 1_554 S
C347 H339 0.930 . S
C347 C348 1.355 . S
C347 C349 1.415 . S
C348 C347 1.355 . S
C348 C350 1.419 . S
C349 C344 1.425 . S
C349 C346 1.409 1_556 S
C349 C347 1.415 . S
C350 H340 0.930 . S
C350 C348 1.419 . S
C350 C351 1.362 . S
C351 H341 0.930 . S
C351 C344 1.409 . S
C351 C350 1.362 . S
H352 C358 0.930 . S
H353 C361 0.930 . S
H354 C362 0.930 . S
H355 C363 0.930 . S
H356 C366 0.930 . S
H357 C367 0.930 . S
C358 H352 0.930 . S
C358 C359 1.355 1_556 S
C358 C360 1.415 1_556 S
C359 C358 1.355 1_554 S
C359 C361 1.419 . S
C360 C358 1.415 1_554 S
C360 C365 1.425 . S
C360 C367 1.409 1_554 S
C361 H353 0.930 . S
C361 C359 1.419 . S
C361 C362 1.362 . S
C362 H354 0.930 . S
C362 C361 1.362 . S
C362 C365 1.409 . S
C363 H355 0.930 . S
C363 C364 1.355 . S
C363 C365 1.415 . S
C364 C363 1.355 . S
C364 C366 1.419 1_554 S
C365 C360 1.425 . S
C365 C362 1.409 . S
C365 C363 1.415 . S
C366 H356 0.930 . S
C366 C364 1.419 1_556 S
C366 C367 1.362 . S
C367 H357 0.930 . S
C367 C360 1.409 1_556 S
C367 C366 1.362 . S
H368 C374 0.930 . S
H369 C377 0.930 . S
H370 C378 0.930 . S
H371 C379 0.930 . S
H372 C382 0.930 . S
H373 C383 0.930 . S
C374 H368 0.930 . S
C374 C375 1.355 . S
C374 C376 1.415 . S
C375 C374 1.355 . S
C375 C377 1.419 . S
C376 C374 1.415 . S
C376 C381 1.425 . S
C376 C383 1.409 . S
C377 H369 0.930 . S
C377 C375 1.419 . S
C377 C378 1.362 . S
C378 H370 0.930 . S
C378 C377 1.362 . S
C378 C381 1.409 . S
C379 H371 0.930 . S
C379 C380 1.355 . S
C379 C381 1.415 . S
C380 C379 1.355 . S
C380 C382 1.419 . S
C381 C376 1.425 . S
C381 C378 1.409 . S
C381 C379 1.415 . S
C382 H372 0.930 . S
C382 C380 1.419 . S
C382 C383 1.362 . S
C383 H373 0.930 . S
C383 C376 1.409 . S
C383 C382 1.362 . S
H384 C390 0.930 . S
H385 C393 0.930 . S
H386 C394 0.930 . S
H387 C395 0.930 . S
H388 C398 0.930 . S
H389 C399 0.930 . S
C390 H384 0.930 . S
C390 C391 1.355 . S
C390 C392 1.415 . S
C391 C390 1.355 . S
C391 C393 1.419 1_554 S
C392 C390 1.415 . S
C392 C397 1.425 . S
C392 C399 1.409 . S
C393 H385 0.930 . S
C393 C391 1.419 1_556 S
C393 C394 1.362 . S
C394 H386 0.930 . S
C394 C393 1.362 . S
C394 C397 1.409 1_556 S
C395 H387 0.930 . S
C395 C396 1.355 1_556 S
C395 C397 1.415 1_556 S
C396 C395 1.355 1_554 S
C396 C398 1.419 . S
C397 C392 1.425 . S
C397 C394 1.409 1_554 S
C397 C395 1.415 1_554 S
C398 H388 0.930 . S
C398 C396 1.419 . S
C398 C399 1.362 . S
C399 H389 0.930 . S
C399 C392 1.409 . S
C399 C398 1.362 . S
H400 C406 0.930 . S
H401 C409 0.930 . S
H402 C410 0.930 . S
H403 C411 0.930 . S
H404 C414 0.930 . S
H405 C415 0.930 . S
C406 H400 0.930 . S
C406 C407 1.355 . S
C406 C408 1.415 . S
C407 C406 1.355 . S
C407 C409 1.419 . S
C408 C406 1.415 . S
C408 C413 1.425 . S
C408 C415 1.409 1_556 S
C409 H401 0.930 . S
C409 C407 1.419 . S
C409 C410 1.362 . S
C410 H402 0.930 . S
C410 C409 1.362 . S
C410 C413 1.409 . S
C411 H403 0.930 . S
C411 C412 1.355 . S
C411 C413 1.415 . S
C412 C411 1.355 . S
C412 C414 1.419 1_556 S
C413 C408 1.425 . S
C413 C410 1.409 . S
C413 C411 1.415 . S
C414 H404 0.930 . S
C414 C412 1.419 1_554 S
C414 C415 1.362 . S
C415 H405 0.930 . S
C415 C408 1.409 1_554 S
C415 C414 1.362 . S
H416 C422 0.930 . S
H417 C425 0.930 . S
H418 C426 0.930 . S
H419 C427 0.930 . S
H420 C430 0.930 . S
H421 C431 0.930 . S
C422 H416 0.930 . S
C422 C423 1.355 . S
C422 C424 1.415 . S
C423 C422 1.355 . S
C423 C425 1.419 . S
C424 C422 1.415 . S
C424 C429 1.425 . S
C424 C431 1.409 . S
C425 H417 0.930 . S
C425 C423 1.419 . S
C425 C426 1.362 . S
C426 H418 0.930 . S
C426 C425 1.362 . S
C426 C429 1.409 . S
C427 H419 0.930 . S
C427 C428 1.355 . S
C427 C429 1.415 . S
C428 C427 1.355 . S
C428 C430 1.419 . S
C429 C424 1.425 . S
C429 C426 1.409 . S
C429 C427 1.415 . S
C430 H420 0.930 . S
C430 C428 1.419 . S
C430 C431 1.362 . S
C431 H421 0.930 . S
C431 C424 1.409 . S
C431 C430 1.362 . S
H432 C438 0.930 . S
H433 C441 0.930 . S
H434 C442 0.930 . S
H435 C443 0.930 . S
H436 C446 0.930 . S
H437 C447 0.930 . S
C438 H432 0.930 . S
C438 C439 1.355 . S
C438 C440 1.415 . S
C439 C438 1.355 . S
C439 C441 1.419 . S
C440 C438 1.415 . S
C440 C445 1.425 . S
C440 C447 1.409 . S
C441 H433 0.930 . S
C441 C439 1.419 . S
C441 C442 1.362 . S
C442 H434 0.930 . S
C442 C441 1.362 . S
C442 C445 1.409 . S
C443 H435 0.930 . S
C443 C444 1.355 . S
C443 C445 1.415 . S
C444 C443 1.355 . S
C444 C446 1.419 . S
C445 C440 1.425 . S
C445 C442 1.409 . S
C445 C443 1.415 . S
C446 H436 0.930 . S
C446 C444 1.419 . S
C446 C447 1.362 . S
C447 H437 0.930 . S
C447 C440 1.409 . S
C447 C446 1.362 . S
H448 C454 0.930 . S
H449 C457 0.930 . S
H450 C458 0.930 . S
H451 C459 0.930 . S
H452 C462 0.930 . S
H453 C463 0.930 . S
C454 H448 0.930 . S
C454 C455 1.355 . S
C454 C456 1.415 . S
C455 C454 1.355 . S
C455 C457 1.419 . S
C456 C454 1.415 . S
C456 C461 1.425 . S
C456 C463 1.409 . S
C457 H449 0.930 . S
C457 C455 1.419 . S
C457 C458 1.362 . S
C458 H450 0.930 . S
C458 C457 1.362 . S
C458 C461 1.409 . S
C459 H451 0.930 . S
C459 C460 1.355 . S
C459 C461 1.415 . S
C460 C459 1.355 . S
C460 C462 1.419 . S
C461 C456 1.425 . S
C461 C458 1.409 . S
C461 C459 1.415 . S
C462 H452 0.930 . S
C462 C460 1.419 . S
C462 C463 1.362 . S
C463 H453 0.930 . S
C463 C456 1.409 . S
C463 C462 1.362 . S
H464 C470 0.930 . S
H465 C473 0.930 . S
H466 C474 0.930 . S
H467 C475 0.930 . S
H468 C478 0.930 . S
H469 C479 0.930 . S
C470 H464 0.930 . S
C470 C471 1.355 . S
C470 C472 1.415 . S
C471 C470 1.355 . S
C471 C473 1.419 . S
C472 C470 1.415 . S
C472 C477 1.425 . S
C472 C479 1.409 . S
C473 H465 0.930 . S
C473 C471 1.419 . S
C473 C474 1.362 . S
C474 H466 0.930 . S
C474 C473 1.362 . S
C474 C477 1.409 . S
C475 H467 0.930 . S
C475 C476 1.355 . S
C475 C477 1.415 . S
C476 C475 1.355 . S
C476 C478 1.419 . S
C477 C472 1.425 . S
C477 C474 1.409 . S
C477 C475 1.415 . S
C478 H468 0.930 . S
C478 C476 1.419 . S
C478 C479 1.362 . S
C479 H469 0.930 . S
C479 C472 1.409 . S
C479 C478 1.362 . S
H480 C486 0.930 . S
H481 C489 0.930 . S
H482 C490 0.930 . S
H483 C491 0.930 . S
H484 C494 0.930 . S
H485 C495 0.930 . S
C486 H480 0.930 . S
C486 C487 1.355 . S
C486 C488 1.415 . S
C487 C486 1.355 . S
C487 C489 1.419 . S
C488 C486 1.415 . S
C488 C493 1.425 . S
C488 C495 1.409 . S
C489 H481 0.930 . S
C489 C487 1.419 . S
C489 C490 1.362 . S
C490 H482 0.930 . S
C490 C489 1.362 . S
C490 C493 1.409 . S
C491 H483 0.930 . S
C491 C492 1.355 . S
C491 C493 1.415 . S
C492 C491 1.355 . S
C492 C494 1.419 . S
C493 C488 1.425 . S
C493 C490 1.409 . S
C493 C491 1.415 . S
C494 H484 0.930 . S
C494 C492 1.419 . S
C494 C495 1.362 . S
C495 H485 0.930 . S
C495 C488 1.409 . S
C495 C494 1.362 . S
H496 C502 0.930 . S
H497 C505 0.930 . S
H498 C506 0.930 . S
H499 C507 0.930 . S
H500 C510 0.930 . S
H501 C511 0.930 . S
C502 H496 0.930 . S
C502 C503 1.355 . S
C502 C504 1.415 . S
C503 C502 1.355 . S
C503 C505 1.419 . S
C504 C502 1.415 . S
C504 C509 1.425 . S
C504 C511 1.409 . S
C505 H497 0.930 . S
C505 C503 1.419 . S
C505 C506 1.362 . S
C506 H498 0.930 . S
C506 C505 1.362 . S
C506 C509 1.409 . S
C507 H499 0.930 . S
C507 C508 1.355 . S
C507 C509 1.415 . S
C508 C507 1.355 . S
C508 C510 1.419 . S
C509 C504 1.425 . S
C509 C506 1.409 . S
C509 C507 1.415 . S
C510 H500 0.930 . S
C510 C508 1.419 . S
C510 C511 1.362 . S
C511 H501 0.930 . S
C511 C504 1.409 . S
C511 C510 1.362 . S
H512 C518 0.930 . S
H513 C521 0.930 . S
H514 C522 0.930 . S
H515 C523 0.930 . S
H516 C526 0.930 . S
H517 C527 0.930 . S
C518 H512 0.930 . S
C518 C519 1.355 . S
C518 C520 1.415 . S
C519 C518 1.355 . S
C519 C521 1.419 . S
C520 C518 1.415 . S
C520 C525 1.425 . S
C520 C527 1.409 . S
C521 H513 0.930 . S
C521 C519 1.419 . S
C521 C522 1.362 . S
C522 H514 0.930 . S
C522 C521 1.362 . S
C522 C525 1.409 . S
C523 H515 0.930 . S
C523 C524 1.355 . S
C523 C525 1.415 . S
C524 C523 1.355 . S
C524 C526 1.419 . S
C525 C520 1.425 . S
C525 C522 1.409 . S
C525 C523 1.415 . S
C526 H516 0.930 . S
C526 C524 1.419 . S
C526 C527 1.362 . S
C527 H517 0.930 . S
C527 C520 1.409 . S
C527 C526 1.362 . S
C247 C210 2.725 . S
C252 C6 2.634 . S
C263 C10 3.686 . S
C268 C46 3.610 1_455 S
C279 C50 3.653 . S
C284 C86 3.384 . S
C295 C130 3.143 . S
C300 C90 3.164 . S
C311 C166 2.340 . S
C316 C126 2.224 . S
C327 C170 3.396 . S
C332 C206 2.891 . S
C343 C179 1.156 . S
C348 C15 1.221 . S
C359 C219 2.500 . S
C364 C55 2.430 . S
C375 C95 3.122 . S
C380 C19 3.152 . S
C391 C139 3.683 . S
C396 C59 3.706 . S
C407 C175 1.969 . S
C412 C99 2.069 1_556 S
C423 C135 0.764 . S
C428 C215 0.778 . S
C439 C9 0.603 . S
C444 C18 0.603 . S
C455 C49 0.702 . S
C460 C58 0.702 . S
C471 C89 0.714 . S
C476 C98 0.714 . S
C487 C138 0.633 . S
C492 C129 0.633 . S
C503 C178 0.570 . S
C508 C169 0.570 . S
C519 C209 0.762 . S
C524 C218 0.762 . S
