# Generated by pormake.
# Topology wjv, (5)-cn, num edge types: 1
# Building blocks:
#     Node 0, Type 0, BuildingBlock: XOMCOT_clean_sbu_1, # of connection points: 5
#     Node 1, Type 0, BuildingBlock: XOMCOT_clean_sbu_1, # of connection points: 5
#     Node 2, Type 0, BuildingBlock: XOMCOT_clean_sbu_1, # of connection points: 5
#     Node 3, Type 0, BuildingBlock: XOMCOT_clean_sbu_1, # of connection points: 5
#     Node 4, Type 0, BuildingBlock: XOMCOT_clean_sbu_1, # of connection points: 5
#     Node 5, Type 0, BuildingBlock: XOMCOT_clean_sbu_1, # of connection points: 5
#     Node 6, Type 0, BuildingBlock: XOMCOT_clean_sbu_1, # of connection points: 5
#     Node 7, Type 0, BuildingBlock: XOMCOT_clean_sbu_1, # of connection points: 5
#     Node 8, Type 0, BuildingBlock: XOMCOT_clean_sbu_1, # of connection points: 5
#     Node 9, Type 0, BuildingBlock: XOMCOT_clean_sbu_1, # of connection points: 5
#     Node 10, Type 0, BuildingBlock: XOMCOT_clean_sbu_1, # of connection points: 5
#     Node 11, Type 0, BuildingBlock: XOMCOT_clean_sbu_1, # of connection points: 5
#     Edge 12, Type (0, 0), BuildingBlock: AJUNOK_clean_linker_0, # of connection points: 2
#     Edge 13, Type (0, 0), BuildingBlock: AJUNOK_clean_linker_0, # of connection points: 2
#     Edge 14, Type (0, 0), BuildingBlock: AJUNOK_clean_linker_0, # of connection points: 2
#     Edge 15, Type (0, 0), BuildingBlock: AJUNOK_clean_linker_0, # of connection points: 2
#     Edge 16, Type (0, 0), BuildingBlock: AJUNOK_clean_linker_0, # of connection points: 2
#     Edge 17, Type (0, 0), BuildingBlock: AJUNOK_clean_linker_0, # of connection points: 2
#     Edge 18, Type (0, 0), BuildingBlock: AJUNOK_clean_linker_0, # of connection points: 2
#     Edge 19, Type (0, 0), BuildingBlock: AJUNOK_clean_linker_0, # of connection points: 2
#     Edge 20, Type (0, 0), BuildingBlock: AJUNOK_clean_linker_0, # of connection points: 2
#     Edge 21, Type (0, 0), BuildingBlock: AJUNOK_clean_linker_0, # of connection points: 2
#     Edge 22, Type (0, 0), BuildingBlock: AJUNOK_clean_linker_0, # of connection points: 2
#     Edge 23, Type (0, 0), BuildingBlock: AJUNOK_clean_linker_0, # of connection points: 2
#     Edge 24, Type (0, 0), BuildingBlock: AJUNOK_clean_linker_0, # of connection points: 2
#     Edge 25, Type (0, 0), BuildingBlock: AJUNOK_clean_linker_0, # of connection points: 2
#     Edge 26, Type (0, 0), BuildingBlock: AJUNOK_clean_linker_0, # of connection points: 2
#     Edge 27, Type (0, 0), BuildingBlock: AJUNOK_clean_linker_0, # of connection points: 2
#     Edge 28, Type (0, 0), BuildingBlock: AJUNOK_clean_linker_0, # of connection points: 2
#     Edge 29, Type (0, 0), BuildingBlock: AJUNOK_clean_linker_0, # of connection points: 2
#     Edge 30, Type (0, 0), BuildingBlock: AJUNOK_clean_linker_0, # of connection points: 2
#     Edge 31, Type (0, 0), BuildingBlock: AJUNOK_clean_linker_0, # of connection points: 2
#     Edge 32, Type (0, 0), BuildingBlock: AJUNOK_clean_linker_0, # of connection points: 2
#     Edge 33, Type (0, 0), BuildingBlock: AJUNOK_clean_linker_0, # of connection points: 2
#     Edge 34, Type (0, 0), BuildingBlock: AJUNOK_clean_linker_0, # of connection points: 2
#     Edge 35, Type (0, 0), BuildingBlock: AJUNOK_clean_linker_0, # of connection points: 2
#     Edge 36, Type (0, 0), BuildingBlock: AJUNOK_clean_linker_0, # of connection points: 2
#     Edge 37, Type (0, 0), BuildingBlock: AJUNOK_clean_linker_0, # of connection points: 2
#     Edge 38, Type (0, 0), BuildingBlock: AJUNOK_clean_linker_0, # of connection points: 2
#     Edge 39, Type (0, 0), BuildingBlock: AJUNOK_clean_linker_0, # of connection points: 2
#     Edge 40, Type (0, 0), BuildingBlock: AJUNOK_clean_linker_0, # of connection points: 2
#     Edge 41, Type (0, 0), BuildingBlock: AJUNOK_clean_linker_0, # of connection points: 2
# Relax obj value: 0.266
# Max RMSD: 0.167
# Mean RMSD: 0.167
data_MOF--net-wjv--node1-XOMCOT_clean_sbu_1--edge1-AJUNOK_clean_linker_0
_symmetry_space_group_name_H-M    P1
_symmetry_Int_Tables_number       1
_symmetry_cell_setting            triclinic
loop_
_symmetry_equiv_pos_as_xyz
'x, y, z'
_cell_length_a     25.929047
_cell_length_b     25.827319
_cell_length_c     37.62957
_cell_angle_alpha  89.953298
_cell_angle_beta   89.480164
_cell_angle_gamma 118.92428
loop_
_atom_site_label
_atom_site_type_symbol
_atom_site_fract_x
_atom_site_fract_y
_atom_site_fract_z
_atom_type_partial_charge
C0 C 0.27703 0.44497 0.29733 0.0
C1 C 0.28715 0.42883 0.33027 0.0
N2 N 0.27821 0.37301 0.32854 0.0
N3 N 0.26177 0.39992 0.27448 0.0
C4 C 0.26062 0.35574 0.29473 0.0
H5 H 0.28541 0.48875 0.28965 0.0
Co6 Co 0.26517 0.41656 0.22533 0.0
C7 C 0.39217 0.46364 0.20564 0.0
O8 O 0.37502 0.43572 0.17524 0.0
N9 N 0.26968 0.43875 0.17718 0.0
C10 C 0.29647 0.50395 0.13265 0.0
C11 C 0.30063 0.49663 0.16845 0.0
C12 C 0.24558 0.41182 0.14606 0.0
N13 N 0.26124 0.45056 0.11851 0.0
O14 O 0.17861 0.37539 0.22254 0.0
H15 H 0.32512 0.5316 0.18719 0.0
H16 H 0.21563 0.36523 0.14337 0.0
O17 O 0.35317 0.46075 0.22807 0.0
C18 C 0.13755 0.38514 0.23401 0.0
O19 O 0.15106 0.43125 0.25427 0.0
N20 N 0.26585 0.34377 0.21409 0.0
C21 C 0.2581 0.2323 0.2085 0.0
C22 C 0.30724 0.27915 0.22379 0.0
C23 C 0.31016 0.33422 0.22653 0.0
C24 C 0.2188 0.29828 0.19766 0.0
C25 C 0.21419 0.24245 0.19451 0.0
H26 H 0.34566 0.367 0.24199 0.0
H27 H 0.18253 0.30308 0.18808 0.0
H28 H 0.24998 0.31262 0.28468 0.0
H29 H 0.30512 0.45794 0.35283 0.0
H30 H 0.31842 0.54546 0.11827 0.0
H31 H 0.34199 0.27257 0.23501 0.0
H32 H 0.17519 0.20682 0.18274 0.0
C33 C 0.85992 0.22799 0.62092 0.0
C34 C 0.88553 0.23786 0.65387 0.0
N35 N 0.92617 0.29524 0.65591 0.0
N36 N 0.88539 0.27835 0.60118 0.0
C37 C 0.9238 0.3189 0.62437 0.0
H38 H 0.82653 0.18541 0.61172 0.0
Co39 Co 0.86988 0.28579 0.55144 0.0
C40 C 0.97645 0.40925 0.55872 0.0
O41 O 1.01088 0.38745 0.56805 0.0
N42 N 0.85191 0.29308 0.50421 0.0
C43 C 0.8164 0.31986 0.45845 0.0
C44 C 0.82909 0.32772 0.49411 0.0
C45 C 0.85214 0.26403 0.4743 0.0
N46 N 0.83146 0.2801 0.44575 0.0
O47 O 0.81986 0.19981 0.54717 0.0
H48 H 0.82033 0.35546 0.51193 0.0
H49 H 0.86677 0.23131 0.4736 0.0
O50 O 0.92132 0.37426 0.55317 0.0
C51 C 0.76542 0.16089 0.54847 0.0
O52 O 0.72584 0.17674 0.557 0.0
N53 N 0.93407 0.27504 0.5367 0.0
C54 C 0.03772 0.27049 0.528 0.0
C55 C 0.02766 0.30987 0.50747 0.0
C56 C 0.97449 0.3106 0.51175 0.0
C57 C 0.9405 0.23097 0.55265 0.0
C58 C 0.99219 0.22824 0.54889 0.0
H59 H 0.96838 0.34366 0.4976 0.0
H60 H 0.90695 0.19886 0.56986 0.0
H61 H 0.94865 0.36558 0.61954 0.0
H62 H 0.87656 0.20471 0.67413 0.0
H63 H 0.79484 0.33978 0.4437 0.0
H64 H 0.06198 0.34262 0.49055 0.0
H65 H 0.99791 0.1956 0.56395 0.0
C66 C 0.62597 0.86247 0.96563 0.0
C67 C 0.64612 0.89634 0.99578 0.0
N68 N 0.65939 0.95207 0.98754 0.0
N69 N 0.62857 0.89675 0.93775 0.0
C70 C 0.64707 0.95096 0.95262 0.0
H71 H 0.60909 0.81518 0.96441 0.0
Co72 Co 0.5982 0.86622 0.89168 0.0
C73 C 0.5319 0.93391 0.87194 0.0
O74 O 0.5007 0.89704 0.84685 0.0
N75 N 0.56474 0.834 0.8473 0.0
C76 C 0.5085 0.76473 0.80866 0.0
C77 C 0.51982 0.77838 0.84413 0.0
C78 C 0.57942 0.85365 0.81324 0.0
N79 N 0.54647 0.81195 0.78938 0.0
O80 O 0.62658 0.80534 0.89545 0.0
H81 H 0.49822 0.74884 0.86631 0.0
H82 H 0.6145 0.89705 0.80583 0.0
O83 O 0.56904 0.92473 0.88932 0.0
C84 C 0.67614 0.81093 0.90624 0.0
O85 O 0.71513 0.86186 0.91958 0.0
N86 N 0.6703 0.91921 0.86811 0.0
C87 C 0.78236 0.99146 0.84119 0.0
C88 C 0.75124 0.01615 0.85807 0.0
C89 C 0.69461 0.97914 0.8709 0.0
C90 C 0.69792 0.89608 0.84725 0.0
C91 C 0.75476 0.9313 0.83433 0.0
H92 H 0.67133 0.99916 0.88346 0.0
H93 H 0.67676 0.84957 0.84098 0.0
H94 H 0.64953 0.98874 0.93891 0.0
H95 H 0.64891 0.8808 1.02206 0.0
H96 H 0.47677 0.72249 0.79781 0.0
H97 H 0.7716 0.06335 0.86273 0.0
H98 H 0.77755 0.91148 0.82037 0.0
C99 C 0.77569 0.5819 0.3059 0.0
C100 C 0.76791 0.6016 0.33856 0.0
N101 N 0.75772 0.64741 0.33322 0.0
N102 N 0.77055 0.61492 0.27984 0.0
C103 C 0.76001 0.65475 0.29756 0.0
H104 H 0.78133 0.54359 0.30133 0.0
Co105 Co 0.76554 0.59355 0.23108 0.0
C106 C 0.64364 0.58457 0.23986 0.0
O107 O 0.66484 0.63912 0.25095 0.0
N108 N 0.75882 0.56787 0.18423 0.0
C109 C 0.72849 0.50034 0.14172 0.0
C110 C 0.72435 0.5101 0.17717 0.0
C111 C 0.78423 0.59259 0.15255 0.0
N112 N 0.76617 0.55218 0.12614 0.0
O113 O 0.85034 0.62116 0.22759 0.0
H114 H 0.69834 0.47693 0.19688 0.0
H115 H 0.81608 0.63875 0.14901 0.0
O116 O 0.67879 0.56418 0.23231 0.0
C117 C 0.89458 0.61595 0.23735 0.0
O118 O 0.8871 0.575 0.26071 0.0
N119 N 0.78268 0.67015 0.21643 0.0
C120 C 0.81319 0.78554 0.19864 0.0
C121 C 0.84709 0.77425 0.22256 0.0
C122 C 0.83122 0.71645 0.23106 0.0
C123 C 0.75083 0.6805 0.19141 0.0
C124 C 0.76533 0.7384 0.18217 0.0
H125 H 0.85713 0.7093 0.2508 0.0
H126 H 0.7134 0.64402 0.17909 0.0
H127 H 0.753 0.68824 0.2848 0.0
H128 H 0.7661 0.58127 0.36404 0.0
H129 H 0.70557 0.45816 0.12838 0.0
H130 H 0.88424 0.81 0.23575 0.0
H131 H 0.73809 0.74626 0.16365 0.0
C132 C 0.204 0.81744 0.63857 0.0
C133 C 0.1784 0.80601 0.67194 0.0
N134 N 0.12068 0.76711 0.66884 0.0
N135 N 0.16303 0.78701 0.61383 0.0
C136 C 0.11308 0.75516 0.63359 0.0
H137 H 0.25039 0.84537 0.63283 0.0
Co138 Co 0.18401 0.7881 0.56451 0.0
C139 C 0.0994 0.66593 0.53874 0.0
O140 O 0.09266 0.68811 0.50888 0.0
N141 N 0.20981 0.7898 0.51754 0.0
C142 C 0.2794 0.80291 0.47789 0.0
C143 C 0.26378 0.79498 0.51323 0.0
C144 C 0.19307 0.79426 0.48405 0.0
N145 N 0.23503 0.80266 0.45959 0.0
O146 O 0.239 0.87448 0.56594 0.0
H147 H 0.29083 0.79462 0.53484 0.0
H148 H 0.15187 0.79292 0.47762 0.0
O149 O 0.13342 0.70079 0.56267 0.0
C150 C 0.23838 0.91996 0.57896 0.0
O151 O 0.1931 0.9129 0.59847 0.0
N152 N 0.1208 0.80212 0.54947 0.0
C153 C 0.03477 0.83668 0.54572 0.0
C154 C 0.02075 0.78073 0.55847 0.0
C155 C 0.06398 0.7639 0.55942 0.0
C156 C 0.13234 0.85316 0.53178 0.0
C157 C 0.09002 0.87196 0.53017 0.0
H158 H 0.05117 0.72058 0.56954 0.0
H159 H 0.1753 0.88141 0.52027 0.0
H160 H 0.07198 0.72193 0.62311 0.0
H161 H 0.20139 0.8233 0.69661 0.0
H162 H 0.32014 0.80821 0.46642 0.0
H163 H 0.977 0.75083 0.56869 0.0
H164 H 0.10112 0.91439 0.51836 0.0
C165 C 0.26225 0.04796 0.92421 0.0
C166 C 0.24386 0.01752 0.95595 0.0
N167 N 0.29161 0.03048 0.97573 0.0
N168 N 0.32147 0.08046 0.92374 0.0
C169 C 0.33796 0.07032 0.95599 0.0
H170 H 0.23457 0.0426 0.90166 0.0
Co171 Co 0.36547 0.11341 0.88145 0.0
C172 C 0.48686 0.12898 0.91363 0.0
O173 O 0.52374 0.16628 0.93676 0.0
N174 N 0.40911 0.14837 0.83906 0.0
C175 C 0.48267 0.21256 0.80426 0.0
C176 C 0.46595 0.19215 0.83836 0.0
C177 C 0.39151 0.14579 0.80489 0.0
N178 N 0.43582 0.18345 0.78339 0.0
O179 O 0.36788 0.18912 0.89161 0.0
H180 H 0.49363 0.21024 0.86127 0.0
H181 H 0.3468 0.11936 0.79595 0.0
O182 O 0.44128 0.13459 0.90592 0.0
C183 C 0.32442 0.18804 0.87487 0.0
O184 O 0.29007 0.14004 0.85701 0.0
N185 N 0.35465 0.03782 0.87009 0.0
C186 C 0.28286 0.91601 0.87061 0.0
C187 C 0.32858 0.94248 0.89492 0.0
C188 C 0.36328 1.00368 0.89462 0.0
C189 C 0.31567 0.01138 0.8433 0.0
C190 C 0.27987 0.95023 0.84268 0.0
H191 H 0.38972 0.02301 0.91761 0.0
H192 H 0.30453 0.03733 0.82588 0.0
H193 H 0.38343 0.08824 0.96372 0.0
H194 H 0.19921 0.98427 0.96257 0.0
H195 H 0.52529 0.2476 0.79558 0.0
H196 H 0.33142 0.91744 0.91724 0.0
H197 H 0.24397 0.93153 0.82394 0.0
C198 C 0.63702 0.80813 0.46126 0.0
C199 C 0.65509 0.7948 0.42967 0.0
N200 N 0.67543 0.75684 0.43654 0.0
N201 N 0.64726 0.7803 0.48851 0.0
C202 C 0.66839 0.74738 0.47204 0.0
H203 H 0.61672 0.83595 0.46408 0.0
Co204 Co 0.62239 0.7823 0.53635 0.0
C205 C 0.58843 0.6631 0.56686 0.0
O206 O 0.6091 0.68913 0.59742 0.0
N207 N 0.59164 0.78232 0.58203 0.0
C208 C 0.5155 0.75632 0.61893 0.0
C209 C 0.53246 0.75332 0.58476 0.0
C210 C 0.60984 0.80369 0.6153 0.0
N211 N 0.56401 0.78815 0.63846 0.0
O212 O 0.64991 0.86962 0.53244 0.0
H213 H 0.50331 0.73049 0.56301 0.0
H214 H 0.65534 0.83028 0.62246 0.0
O215 O 0.59117 0.69486 0.53991 0.0
C216 C 0.69555 0.91199 0.51735 0.0
O217 O 0.73219 0.89939 0.49994 0.0
N218 N 0.69841 0.79842 0.55484 0.0
C219 C 0.81798 0.83464 0.56081 0.0
C220 C 0.77876 0.77726 0.55039 0.0
C221 C 0.71924 0.7597 0.54829 0.0
C222 C 0.73545 0.85155 0.57042 0.0
C223 C 0.79592 0.87113 0.57303 0.0
H224 H 0.6914 0.71552 0.53939 0.0
H225 H 0.71979 0.88148 0.57871 0.0
H226 H 0.67434 0.71346 0.48481 0.0
H227 H 0.65278 0.81129 0.40361 0.0
H228 H 0.47049 0.7354 0.6287 0.0
H229 H 0.79435 0.74681 0.54248 0.0
H230 H 0.82523 0.91517 0.5827 0.0
C231 C 0.84722 0.63216 0.79925 0.0
C232 C 0.87987 0.65172 0.76823 0.0
N233 N 0.93639 0.6683 0.77564 0.0
N234 N 0.88284 0.63621 0.82622 0.0
C235 C 0.93706 0.65792 0.81084 0.0
H236 H 0.80015 0.61489 0.80185 0.0
Co237 Co 0.85553 0.60785 0.87268 0.0
C238 C 0.87807 0.50462 0.86122 0.0
O239 O 0.82376 0.46962 0.8511 0.0
N240 N 0.82586 0.5769 0.91778 0.0
C241 C 0.7703 0.50806 0.95724 0.0
C242 C 0.78449 0.51989 0.9219 0.0
C243 C 0.83494 0.59964 0.95108 0.0
N244 N 0.80207 0.5581 0.97566 0.0
O245 O 0.8178 0.65844 0.8769 0.0
H246 H 0.76543 0.48885 0.90041 0.0
H247 H 0.86582 0.64516 0.95727 0.0
O248 O 0.89371 0.55812 0.86922 0.0
C249 C 0.76278 0.64199 0.87422 0.0
O250 O 0.72646 0.58656 0.86639 0.0
N251 N 0.926 0.66793 0.89214 0.0
C252 C 0.04471 0.7456 0.89958 0.0
C253 C 1.00827 0.76444 0.88337 0.0
C254 C 0.94829 0.72487 0.88037 0.0
C255 C 0.9599 0.6521 0.91232 0.0
C256 C 0.01993 0.69028 0.91596 0.0
H257 H 0.92149 0.73783 0.86485 0.0
H258 H 0.94191 0.60788 0.92313 0.0
H259 H 0.97604 0.6647 0.82493 0.0
H260 H 0.86343 0.65369 0.7422 0.0
H261 H 0.73867 0.46583 0.9686 0.0
H262 H 0.02671 0.80757 0.87077 0.0
H263 H 0.04728 0.6752 0.92914 0.0
C264 C 0.28906 0.81989 0.12951 0.0
C265 C 0.29569 0.84201 0.09551 0.0
N266 N 0.27904 0.88399 0.09524 0.0
N267 N 0.26804 0.84719 0.15102 0.0
C268 C 0.26076 0.88494 0.12896 0.0
H269 H 0.30087 0.7872 0.13841 0.0
Co270 Co 0.26423 0.833 0.20085 0.0
C271 C 0.3888 0.91462 0.22363 0.0
O272 O 0.36944 0.92998 0.25187 0.0
N273 N 0.26007 0.81405 0.24934 0.0
C274 C 0.23915 0.74839 0.29297 0.0
C275 C 0.24822 0.75838 0.25706 0.0
C276 C 0.25872 0.83762 0.2814 0.0
N277 N 0.2458 0.7982 0.30828 0.0
O278 O 0.17768 0.78467 0.2002 0.0
H279 H 0.24444 0.72628 0.23736 0.0
H280 H 0.26506 0.88183 0.28508 0.0
O281 O 0.35177 0.87676 0.20205 0.0
C282 C 0.13335 0.78387 0.18511 0.0
O283 O 0.1421 0.8251 0.16171 0.0
N284 N 0.26029 0.90373 0.21012 0.0
C285 C 0.25044 1.00609 0.21433 0.0
C286 C 0.2988 1.00705 0.19734 0.0
C287 C 0.30303 0.95569 0.19562 0.0
C288 C 0.21418 0.90308 0.22851 0.0
C289 C 0.20849 0.95413 0.23103 0.0
H290 H 0.3388 0.95718 0.17999 0.0
H291 H 0.18088 0.86285 0.24089 0.0
H292 H 0.24467 0.91456 0.13747 0.0
H293 H 0.31219 0.82847 0.07285 0.0
H294 H 0.22819 0.70754 0.30683 0.0
H295 H 0.33217 0.04688 0.18438 0.0
H296 H 0.17089 0.95254 0.2448 0.0
C297 C 0.47309 0.31931 0.46193 0.0
C298 C 0.45199 0.32491 0.42953 0.0
N299 N 0.39346 0.30384 0.43269 0.0
N300 N 0.42836 0.29526 0.4857 0.0
C301 C 0.38001 0.28531 0.46683 0.0
H302 H 0.51873 0.33418 0.46825 0.0
Co303 Co 0.44176 0.2865 0.53394 0.0
C304 C 0.49731 0.40665 0.56466 0.0
O305 O 0.4673 0.38123 0.59376 0.0
N306 N 0.45935 0.27644 0.58096 0.0
C307 C 0.51827 0.26842 0.62064 0.0
C308 C 0.51373 0.28357 0.58632 0.0
C309 C 0.43152 0.25728 0.61289 0.0
N310 N 0.46655 0.2519 0.63735 0.0
O311 O 0.3918 0.20049 0.53072 0.0
H312 H 0.54754 0.29731 0.56593 0.0
H313 H 0.38645 0.24604 0.61836 0.0
O314 O 0.49355 0.37432 0.5378 0.0
C315 C 0.40816 0.16118 0.53264 0.0
O316 O 0.46478 0.1782 0.5321 0.0
N317 N 0.37479 0.29478 0.54702 0.0
C318 C 0.26808 0.2953 0.54797 0.0
C319 C 0.3183 0.34373 0.53435 0.0
C320 C 0.37134 0.34279 0.53425 0.0
C321 C 0.32636 0.24917 0.56274 0.0
C322 C 0.27251 0.24877 0.56374 0.0
H323 H 0.40762 0.37791 0.51994 0.0
H324 H 0.32767 0.21086 0.57271 0.0
H325 H 0.33604 0.26687 0.47807 0.0
H326 H 0.47823 0.34616 0.40604 0.0
H327 H 0.55646 0.26885 0.63234 0.0
H328 H 0.31575 0.38018 0.52177 0.0
H329 H 0.23392 0.21064 0.57451 0.0
C330 C 0.18099 0.41102 0.79627 0.0
C331 C 0.1566 0.4047 0.76291 0.0
N332 N 0.10018 0.39282 0.76676 0.0
N333 N 0.13958 0.40041 0.82148 0.0
C334 C 0.09304 0.39489 0.80226 0.0
H335 H 0.22539 0.41976 0.80152 0.0
Co336 Co 0.13864 0.38716 0.87218 0.0
C337 C 0.03275 0.40447 0.89479 0.0
O338 O 1.01176 0.36109 0.91808 0.0
N339 N 0.13725 0.37527 0.92205 0.0
C340 C 0.11435 0.33526 0.97635 0.0
C341 C 0.09636 0.32985 0.94186 0.0
C342 C 0.17957 0.40835 0.94574 0.0
N343 N 0.16656 0.38451 0.97884 0.0
O344 O 0.20288 0.36362 0.86846 0.0
H345 H 0.05544 0.29423 0.93229 0.0
H346 H 0.21966 0.44826 0.9387 0.0
O347 O 0.07961 0.41609 0.877 0.0
C348 C 0.21485 0.33203 0.84696 0.0
O349 O 0.18163 0.30906 0.81896 0.0
N350 N 0.07909 0.30558 0.866 0.0
C351 C 1.00152 0.18912 0.8472 0.0
C352 C 0.98598 0.23343 0.84299 0.0
C353 C 0.02493 0.29089 0.85271 0.0
C354 C 0.09102 0.2608 0.87467 0.0
C355 C 0.05369 0.20257 0.86462 0.0
H356 H 1.0101 0.32259 0.84953 0.0
H357 H 0.1291 0.26924 0.89008 0.0
H358 H 0.05462 0.39384 0.81393 0.0
H359 H 0.1781 0.40578 0.73792 0.0
H360 H 0.09059 0.30562 0.99816 0.0
H361 H 0.94313 0.22348 0.83303 0.0
H362 H 0.06509 0.16843 0.87092 0.0
C363 C 0.80319 0.20594 0.12613 0.0
C364 C 0.7899 0.18958 0.0911 0.0
N365 N 0.73784 0.13962 0.09002 0.0
N366 N 0.76166 0.16451 0.14767 0.0
C367 C 0.72031 0.12765 0.12434 0.0
H368 H 0.84253 0.24441 0.13491 0.0
Co369 Co 0.76234 0.15511 0.19886 0.0
C370 C 0.64335 0.03826 0.19947 0.0
O371 O 0.66693 1.0036 0.20239 0.0
N372 N 0.75995 0.14776 0.24922 0.0
C373 C 0.74019 0.11076 0.30412 0.0
C374 C 0.7321 0.09757 0.26869 0.0
C375 C 0.78447 0.1911 0.27386 0.0
N376 N 0.77351 0.16973 0.30772 0.0
O377 O 0.84814 0.21789 0.20189 0.0
H378 H 0.70855 0.05356 0.2582 0.0
H379 H 0.81055 0.23718 0.26679 0.0
O380 O 0.67609 0.09484 0.1981 0.0
C381 C 0.89548 0.22295 0.18727 0.0
O382 O 0.89101 0.18495 0.16264 0.0
N383 N 0.78784 0.09635 0.19414 0.0
C384 C 0.82729 0.01319 0.18978 0.0
C385 C 0.78912 0.01453 0.1645 0.0
C386 C 0.77062 0.05649 0.16692 0.0
C387 C 0.82776 0.09708 0.21812 0.0
C388 C 0.84794 0.05598 0.21643 0.0
H389 H 0.7378 0.0516 0.1485 0.0
H390 H 0.84482 0.1298 0.23888 0.0
H391 H 0.68054 0.08815 0.1322 0.0
H392 H 0.8186 0.21019 0.06838 0.0
H393 H 0.72235 0.07886 0.32562 0.0
H394 H 0.7699 0.98063 0.14438 0.0
H395 H 0.87785 0.05643 0.2365 0.0
C396 C 0.32387 0.33979 0.41684 0.0
C397 C 0.35678 0.31185 0.40703 0.0
C398 C 0.29548 0.35654 0.3912 0.0
C399 C 0.29862 0.34585 0.3547 0.0
H400 H 0.32287 0.35172 0.44431 0.0
H401 H 0.27259 0.38003 0.39988 0.0
S402 S 0.37739 0.27104 0.31573 0.0
N403 N 0.38881 0.27159 0.35886 0.0
N404 N 0.33639 0.30336 0.31059 0.0
C405 C 0.32957 0.31564 0.34482 0.0
C406 C 0.35857 0.29883 0.37097 0.0
C407 C 0.02774 0.36355 0.67635 0.0
C408 C 0.96811 0.3238 0.68414 0.0
C409 C 0.07014 0.38715 0.70341 0.0
C410 C 0.05478 0.37253 0.73955 0.0
H411 H 0.04212 0.37494 0.64898 0.0
H412 H 0.1155 0.41654 0.69585 0.0
S413 S 0.90235 0.27396 0.77377 0.0
N414 N 0.89487 0.27418 0.73033 0.0
N415 N 0.97323 0.31686 0.78103 0.0
C416 C 0.99441 0.33426 0.74754 0.0
C417 C 0.95157 0.3103 0.71993 0.0
C418 C 0.65294 0.03639 1.01521 0.0
C419 C 0.68117 1.00168 1.01164 0.0
C420 C 0.67177 0.08212 1.04063 0.0
C421 C 0.72026 0.09539 0.06255 0.0
H422 H 0.6151 0.02689 0.99901 0.0
H423 H 0.64816 0.10687 1.0434 0.0
S424 S 0.81122 0.02049 0.06199 0.0
N425 N 0.76099 0.9854 1.03141 0.0
N426 N 0.79711 0.07187 0.07808 0.0
C427 C 0.74959 0.06211 0.05844 0.0
C428 C 0.7299 0.01517 1.03326 0.0
C429 C 0.69431 0.6905 0.35117 0.0
C430 C 0.73882 0.67612 0.35935 0.0
C431 C 0.67387 0.71665 0.37641 0.0
C432 C 0.69704 0.72965 0.41098 0.0
H433 H 0.67418 0.68035 0.32523 0.0
H434 H 0.6389 0.72587 0.36894 0.0
S435 S 0.81821 0.70603 0.44484 0.0
N436 N 0.80777 0.68002 0.40391 0.0
N437 N 0.76993 0.7296 0.45118 0.0
C438 C 0.74235 0.71648 0.41932 0.0
C439 C 0.76303 0.68965 0.3936 0.0
C440 C 0.02721 0.685 0.69334 0.0
C441 C 0.07635 0.7419 0.69702 0.0
C442 C 0.98233 0.66084 0.7194 0.0
C443 C 0.98508 0.69191 0.7506 0.0
H444 H 0.02312 0.65874 0.67009 0.0
H445 H 0.94496 0.61746 0.71516 0.0
S446 S 0.10083 0.84326 0.77296 0.0
N447 N 0.12239 0.82969 0.73427 0.0
N448 N 0.03905 0.7828 0.78346 0.0
C449 C 0.03373 0.74828 0.75502 0.0
C450 C 0.07909 0.77356 0.72825 0.0
C451 C 0.24581 0.97824 1.03234 0.0
C452 C 0.29215 0.998 1.00712 0.0
C453 C 0.2423 0.94201 0.06131 0.0
C454 C 0.2845 0.92318 0.06603 0.0
H455 H 0.21163 0.99053 1.02944 0.0
H456 H 0.20542 0.9274 0.07966 0.0
S457 S 0.41606 0.96413 1.00843 0.0
N458 N 0.38181 0.99638 0.98941 0.0
N459 N 0.37613 0.93007 1.04395 0.0
C460 C 0.33181 0.94371 1.04146 0.0
C461 C 0.33546 0.98067 1.01206 0.0
C462 C 0.2085 0.36674 1.03281 0.0
C463 C 0.19897 0.40571 1.01124 0.0
C464 C 0.23032 0.38234 0.06736 0.0
C465 C 0.24273 0.43731 0.08192 0.0
H466 H 0.19748 0.32318 1.02307 0.0
H467 H 0.23668 0.3507 0.08297 0.0
S468 S 0.22311 0.55421 1.03612 0.0
N469 N 0.2033 0.50116 1.00636 0.0
N470 N 0.24271 0.53055 0.07162 0.0
C471 C 0.23427 0.47717 0.06019 0.0
C472 C 0.21278 0.46135 1.02478 0.0
C473 C 0.79683 0.17044 0.37156 0.0
C474 C 0.79294 0.20072 0.3413 0.0
C475 C 0.81047 0.19689 0.40516 0.0
C476 C 0.82171 0.25535 0.41026 0.0
H477 H 0.78875 0.12537 0.36953 0.0
H478 H 0.81059 0.17048 0.42746 0.0
S479 S 0.82427 0.35713 0.33947 0.0
N480 N 0.80485 0.29422 0.31869 0.0
N481 N 0.83393 0.34499 0.38133 0.0
C482 C 0.82101 0.2874 0.38002 0.0
C483 C 0.80609 0.26002 0.34573 0.0
C484 C 0.50926 0.80555 0.72873 0.0
C485 C 0.55493 0.81338 0.75144 0.0
C486 C 0.51403 0.80029 0.69188 0.0
C487 C 0.56405 0.80082 0.67615 0.0
H488 H 0.46924 0.80279 0.73971 0.0
H489 H 0.47747 0.79475 0.67569 0.0
S490 S 0.69582 0.81967 0.72526 0.0
N491 N 0.65216 0.82284 0.75641 0.0
N492 N 0.66064 0.81014 0.68739 0.0
C493 C 0.61067 0.80975 0.69887 0.0
C494 C 0.60611 0.81646 0.73643 0.0
C495 C 0.79837 0.51623 1.03489 0.0
C496 C 0.80181 0.56283 1.01387 0.0
C497 C 0.78969 0.51481 0.07168 0.0
C498 C 0.78385 0.55985 0.08916 0.0
H499 H 0.80102 0.47969 1.02258 0.0
H500 H 0.78604 0.47724 0.08653 0.0
S501 S 0.79264 0.69352 0.0466 0.0
N502 N 0.80158 0.65678 1.01331 0.0
N503 N 0.78491 0.65404 0.08282 0.0
C504 C 0.79008 0.60833 0.06879 0.0
C505 C 0.79912 0.60983 1.03105 0.0
C506 C 0.18759 0.76267 0.40211 0.0
C507 C 0.23324 0.80761 0.42154 0.0
C508 C 0.19078 0.76125 0.36483 0.0
C509 C 0.23904 0.80546 0.34572 0.0
H510 H 0.15097 0.7267 0.41595 0.0
H511 H 0.15615 0.7244 0.35082 0.0
S512 S 0.36714 0.9354 0.38421 0.0
N513 N 0.32624 0.89913 0.41904 0.0
N514 N 0.33146 0.89716 0.34896 0.0
C515 C 0.28317 0.8524 0.36477 0.0
C516 C 0.2805 0.85323 0.40271 0.0
C517 C 0.46459 0.17478 0.72246 0.0
C518 C 0.43471 0.19342 0.74599 0.0
C519 C 0.47285 0.19232 0.68667 0.0
C520 C 0.45187 0.22953 0.67324 0.0
H521 H 0.48321 0.14796 0.73219 0.0
H522 H 0.49694 0.1777 0.66949 0.0
S523 S 0.37189 0.29132 0.7248 0.0
N524 N 0.38436 0.25087 0.75396 0.0
N525 N 0.39989 0.28435 0.68661 0.0
C526 C 0.4206 0.24726 0.69645 0.0
C527 C 0.41218 0.22921 0.73292 0.0
C528 C 0.53955 0.56527 0.24933 0.0
C529 C 0.5791 0.5497 0.23266 0.0
C530 C 0.47916 0.53661 0.24108 0.0
C531 C 0.45583 0.49191 0.21527 0.0
H532 H 0.55543 0.60033 0.26882 0.0
H533 H 0.45083 0.55061 0.25446 0.0
S534 S 0.53978 0.43254 0.1649 0.0
N535 N 0.58962 0.48475 0.19005 0.0
N536 N 0.47697 0.43153 0.17423 0.0
C537 C 0.49468 0.4751 0.19889 0.0
C538 C 0.55595 0.50371 0.20768 0.0
C539 C 0.05414 0.51163 0.57479 0.0
C540 C 1.00297 0.47471 0.55549 0.0
C541 C 0.08392 0.57337 0.57006 0.0
C542 C 0.06454 0.60084 0.54528 0.0
H543 H 0.07185 0.49261 0.59354 0.0
H544 H 0.12347 0.59953 0.58519 0.0
S545 S 0.93118 0.52457 0.48921 0.0
N546 N 0.93283 0.47058 0.5118 0.0
N547 N 0.98888 0.58618 0.50238 0.0
C548 C 1.01254 0.56455 0.52641 0.0
C549 C 0.98173 0.5017 0.53168 0.0
C550 C 0.52007 0.05389 0.92555 0.0
C551 C 0.49859 0.08011 0.90096 0.0
C552 C 0.53164 1.00772 0.91592 0.0
C553 C 0.52193 0.98497 0.88117 0.0
H554 H 0.52721 0.0686 0.9529 0.0
H555 H 0.5471 0.98884 0.93617 0.0
S556 S 0.47256 0.0416 0.8053 0.0
N557 N 0.47401 0.08287 0.83914 0.0
N558 N 0.49292 0.99483 0.8214 0.0
C559 C 0.50182 0.0115 0.85602 0.0
C560 C 0.49113 0.05939 0.86573 0.0
C561 C 0.54096 0.50453 0.59466 0.0
C562 C 0.52672 0.47263 0.56265 0.0
C563 C 0.56092 0.56549 0.59531 0.0
C564 C 0.56759 0.59812 0.56398 0.0
H565 H 0.5356 0.48196 0.61983 0.0
H566 H 0.57028 0.58692 0.62098 0.0
S567 S 0.53925 0.53671 0.47258 0.0
N568 N 0.52283 0.4788 0.49833 0.0
N569 N 0.56058 0.59387 0.49946 0.0
C570 C 0.55505 0.56727 0.53148 0.0
C571 C 0.53481 0.50462 0.53083 0.0
C572 C 0.89628 0.42002 0.87651 0.0
C573 C 0.91914 0.48018 0.86757 0.0
C574 C 0.93344 0.39643 0.88523 0.0
C575 C 0.99531 0.43148 0.88462 0.0
H576 H 0.84908 0.39103 0.87774 0.0
H577 H 0.91334 0.35001 0.89237 0.0
S578 S 0.07809 0.59103 0.86137 0.0
N579 N 1.00822 0.57419 0.85796 0.0
N580 N 0.07781 0.52923 0.87316 0.0
C581 C 0.01896 0.49129 0.87471 0.0
C582 C 0.98102 0.51577 0.86659 0.0
C583 C 0.5508 0.03379 0.22388 0.0
C584 C 0.57805 0.01033 0.2016 0.0
C585 C 0.48969 1.0026 0.23063 0.0
C586 C 0.45316 0.94719 0.21488 0.0
H587 H 0.57719 0.07527 0.23742 0.0
H588 H 0.47107 0.02203 0.24863 0.0
S589 S 0.50273 0.86924 0.15194 0.0
N590 N 0.56377 0.92996 0.16233 0.0
N591 N 0.44906 0.87228 0.17417 0.0
C592 C 0.47972 0.92463 0.1913 0.0
C593 C 0.54204 0.95589 0.18494 0.0
C594 C 0.06362 0.31023 0.19229 0.0
C595 C 0.07504 0.34585 0.22264 0.0
C596 C 1.00589 0.2723 0.18094 0.0
C597 C 0.95609 0.26787 0.1992 0.0
H598 H 0.09962 0.31183 0.17673 0.0
H599 H 1.00053 0.24581 0.15755 0.0
S600 S 0.96101 0.35289 0.27991 0.0
N601 N 0.03101 0.37514 0.27051 0.0
N602 N 0.92277 0.30428 0.24905 0.0
C603 C 0.96672 0.3042 0.22923 0.0
C604 C 0.02587 0.34298 0.2409 0.0
C605 C 0.67557 0.99134 0.54357 0.0
C606 C 0.71239 0.9757 0.52372 0.0
C607 C 0.69245 0.05102 0.55113 0.0
C608 C 0.74726 0.09773 0.53964 0.0
H609 H 0.63347 0.95721 0.55362 0.0
H610 H 0.66263 0.06047 0.56665 0.0
S611 S 0.85916 0.08172 0.48539 0.0
N612 N 0.80582 0.01328 0.4916 0.0
N613 N 0.83721 0.12394 0.50615 0.0
C614 C 0.78409 0.08275 0.51943 0.0
C615 C 0.76678 0.02232 0.5114 0.0
C616 C 0.7521 0.77636 0.90854 0.0
C617 C 0.6951 0.76521 0.89869 0.0
C618 C 0.77363 0.73704 0.90018 0.0
C619 C 0.73921 0.68403 0.88177 0.0
H620 H 0.78106 0.81636 0.92269 0.0
H621 H 0.81765 0.74822 0.90858 0.0
S622 S 0.58728 0.63348 0.84905 0.0
N623 N 0.60503 0.69693 0.86877 0.0
N624 N 0.64481 0.62286 0.85349 0.0
C625 C 0.68198 0.67201 0.87182 0.0
C626 C 0.66018 0.71244 0.88014 0.0
C627 C 1.00552 0.65827 0.23662 0.0
C628 C 0.95493 0.65779 0.22277 0.0
C629 C 0.06261 0.69837 0.22405 0.0
C630 C 0.07197 0.73989 0.19689 0.0
H631 H 1.00123 0.62786 0.25772 0.0
H632 H 0.09976 0.69707 0.23608 0.0
S633 S 0.95452 0.75611 0.15049 0.0
N634 N 0.91866 0.70214 0.17942 0.0
N635 N 0.02487 0.77674 0.15602 0.0
C636 C 0.02173 0.73933 0.18243 0.0
C637 C 0.96371 0.69863 0.19527 0.0
C638 C 0.26816 0.0266 0.56698 0.0
C639 C 0.2826 0.98057 0.56648 0.0
C640 C 0.30771 0.08368 0.5544 0.0
C641 C 0.36439 0.09818 0.54157 0.0
H642 H 0.22545 0.01843 0.57679 0.0
H643 H 0.29364 0.11674 0.55534 0.0
S644 S 0.42274 0.99266 0.53219 0.0
N645 N 0.3564 0.95246 0.54979 0.0
N646 N 0.43142 0.05998 0.52733 0.0
C647 C 0.37897 0.05216 0.54019 0.0
C648 C 0.33808 0.99353 0.55235 0.0
C649 C 0.27957 0.28945 0.82877 0.0
C650 C 0.25686 0.30971 0.85633 0.0
C651 C 0.30706 0.25519 0.83571 0.0
C652 C 0.31388 0.23967 0.87052 0.0
H653 H 0.27291 0.29709 0.80128 0.0
H654 H 0.3195 0.23711 0.81335 0.0
S655 S 0.2669 0.28511 0.95273 0.0
N656 N 0.24721 0.31514 0.92043 0.0
N657 N 0.29881 0.25036 0.93325 0.0
C658 C 0.29526 0.26291 0.89861 0.0
C659 C 0.26697 0.29812 0.89157 0.0
C660 C 0.25437 0.14779 0.24243 0.0
C661 C 0.25095 0.17222 0.20965 0.0
C662 C 0.25067 0.09197 0.24415 0.0
C663 C 0.24404 0.05947 0.2131 0.0
H664 H 0.26073 0.1724 0.2668 0.0
H665 H 0.25542 0.0752 0.26962 0.0
S666 S 0.23052 0.10265 0.12116 0.0
N667 N 0.23833 0.15887 0.14581 0.0
N668 N 0.23191 0.05389 0.14903 0.0
C669 C 0.23882 0.08256 0.18037 0.0
C670 C 0.24207 0.13904 0.17864 0.0
C671 C 0.1763 0.2903 0.57134 0.0
C672 C 0.21024 0.29038 0.54222 0.0
C673 C 0.12052 0.28441 0.56622 0.0
C674 C 0.09709 0.2779 0.53188 0.0
H675 H 0.19307 0.29499 0.5981 0.0
H676 H 0.0955 0.28503 0.5893 0.0
S677 S 0.16785 0.27169 0.44742 0.0
N678 N 0.21662 0.2813 0.47825 0.0
N679 N 0.11103 0.27008 0.46863 0.0
C680 C 0.13063 0.27775 0.50259 0.0
C681 C 0.18749 0.28387 0.50781 0.0
C682 C 0.88235 0.03596 0.86455 0.0
C683 C 0.84553 0.02799 0.83564 0.0
C684 C 0.93807 0.08554 0.86612 0.0
C685 C 0.95779 0.128 0.83875 0.0
H686 H 0.86559 1.00722 0.88765 0.0
H687 H 0.96249 0.09392 0.89059 0.0
S688 S 0.8831 0.11798 0.75351 0.0
N689 N 0.83567 0.05935 0.77652 0.0
N690 N 0.94193 0.15225 0.77871 0.0
C691 C 0.92466 0.11557 0.80747 0.0
C692 C 0.86765 0.06553 0.80615 0.0
C693 C 0.82339 0.9302 0.22447 0.0
C694 C 0.83557 0.96082 0.19196 0.0
C695 C 0.81742 0.87376 0.22622 0.0
C696 C 0.82308 0.84604 0.19553 0.0
H697 H 0.81494 0.94836 0.24838 0.0
H698 H 0.80606 0.85067 0.25156 0.0
S699 S 0.86263 0.91 0.10504 0.0
N700 N 0.85954 0.96194 0.12911 0.0
N701 N 0.84664 0.85421 0.13254 0.0
C702 C 0.83805 0.87685 0.16321 0.0
C703 C 0.84491 0.93484 0.16142 0.0
C704 C 0.90481 0.85576 0.52332 0.0
C705 C 0.88133 0.85497 0.55732 0.0
C706 C 0.95889 0.85658 0.51931 0.0
C707 C 0.99045 0.85624 0.54926 0.0
H708 H 0.87897 0.85094 0.49984 0.0
H709 H 0.97337 0.85208 0.49295 0.0
S710 S 0.95148 0.86205 0.64359 0.0
N711 N 0.8963 0.86035 0.62103 0.0
N712 N 0.99828 0.86177 0.6136 0.0
C713 C 0.97 0.8609 0.58318 0.0
C714 C 0.91515 0.86033 0.58723 0.0
C715 C 0.20122 0.86312 0.91369 0.0
C716 C 0.22839 0.86232 0.88118 0.0
C717 C 0.142 0.82295 0.92049 0.0
C718 C 0.10865 0.7806 0.89516 0.0
H719 H 0.22445 0.8979 0.93283 0.0
H720 H 0.12143 0.82703 0.94475 0.0
S721 S 0.16118 0.75316 0.80905 0.0
N722 N 0.21924 0.81117 0.82552 0.0
N723 N 0.10756 0.73469 0.83865 0.0
C724 C 0.13621 0.77601 0.86397 0.0
C725 C 0.19636 0.81716 0.8569 0.0
loop_
_geom_bond_atom_site_label_1
_geom_bond_atom_site_label_2
_geom_bond_distance
_geom_bond_site_symmetry_2
_ccdc_geom_bond_type
C0 C1 1.351 . S
C0 N3 1.368 . S
C0 H5 0.931 . S
C1 C0 1.351 . S
C1 N2 1.373 . S
C1 H29 0.930 . S
N2 C1 1.373 . S
N2 C4 1.340 . S
N3 C0 1.368 . S
N3 C4 1.321 . S
N3 Co6 2.135 . S
C4 N2 1.340 . S
C4 N3 1.321 . S
C4 H28 0.930 . S
H5 C0 0.931 . S
Co6 N3 2.135 . S
Co6 N9 2.121 . S
Co6 O14 2.055 . S
Co6 O17 2.039 . S
Co6 N20 2.140 . S
C7 O8 1.227 . S
C7 O17 1.265 . S
O8 C7 1.227 . S
N9 Co6 2.121 . S
N9 C11 1.375 . S
N9 C12 1.313 . S
C10 C11 1.338 . S
C10 N13 1.377 . S
C10 H30 0.930 . S
C11 N9 1.375 . S
C11 C10 1.338 . S
C11 H15 0.931 . S
C12 N9 1.313 . S
C12 N13 1.344 . S
C12 H16 0.930 . S
N13 C10 1.377 . S
N13 C12 1.344 . S
O14 Co6 2.055 . S
O14 C18 1.253 . S
H15 C11 0.931 . S
H16 C12 0.930 . S
O17 Co6 2.039 . S
O17 C7 1.265 . S
C18 O14 1.253 . S
C18 O19 1.227 . S
O19 C18 1.227 . S
N20 Co6 2.140 . S
N20 C23 1.346 . S
N20 C24 1.345 . S
C21 C22 1.387 . S
C21 C25 1.391 . S
C22 C21 1.387 . S
C22 C23 1.369 . S
C22 H31 0.929 . S
C23 N20 1.346 . S
C23 C22 1.369 . S
C23 H26 0.928 . S
C24 N20 1.345 . S
C24 C25 1.371 . S
C24 H27 0.931 . S
C25 C21 1.391 . S
C25 C24 1.371 . S
C25 H32 0.930 . S
H26 C23 0.928 . S
H27 C24 0.931 . S
H28 C4 0.930 . S
H29 C1 0.930 . S
H30 C10 0.930 . S
H31 C22 0.929 . S
H32 C25 0.930 . S
C33 C34 1.351 . S
C33 N36 1.368 . S
C33 H38 0.931 . S
C34 C33 1.351 . S
C34 N35 1.373 . S
C34 H62 0.930 . S
N35 C34 1.373 . S
N35 C37 1.340 . S
N36 C33 1.368 . S
N36 C37 1.321 . S
N36 Co39 2.135 . S
C37 N35 1.340 . S
C37 N36 1.321 . S
C37 H61 0.930 . S
H38 C33 0.931 . S
Co39 N36 2.135 . S
Co39 N42 2.121 . S
Co39 O47 2.055 . S
Co39 O50 2.039 . S
Co39 N53 2.140 . S
C40 O41 1.227 . S
C40 O50 1.265 . S
O41 C40 1.227 . S
N42 Co39 2.121 . S
N42 C44 1.375 . S
N42 C45 1.313 . S
C43 C44 1.338 . S
C43 N46 1.377 . S
C43 H63 0.930 . S
C44 N42 1.375 . S
C44 C43 1.338 . S
C44 H48 0.931 . S
C45 N42 1.313 . S
C45 N46 1.344 . S
C45 H49 0.930 . S
N46 C43 1.377 . S
N46 C45 1.344 . S
O47 Co39 2.055 . S
O47 C51 1.253 . S
H48 C44 0.931 . S
H49 C45 0.930 . S
O50 Co39 2.039 . S
O50 C40 1.265 . S
C51 O47 1.253 . S
C51 O52 1.227 . S
O52 C51 1.227 . S
N53 Co39 2.140 . S
N53 C56 1.355 . S
N53 C57 1.345 . S
C54 C55 1.387 . S
C54 C58 1.391 . S
C55 C54 1.387 . S
C55 C56 1.353 1_455 S
C55 H64 0.929 . S
C56 N53 1.355 . S
C56 C55 1.353 1_655 S
C56 H59 0.936 . S
C57 N53 1.345 . S
C57 C58 1.371 1_655 S
C57 H60 0.931 . S
C58 C54 1.391 . S
C58 C57 1.371 1_455 S
C58 H65 0.930 . S
H59 C56 0.936 . S
H60 C57 0.931 . S
H61 C37 0.930 . S
H62 C34 0.930 . S
H63 C43 0.930 . S
H64 C55 0.929 . S
H65 C58 0.930 . S
C66 C67 1.351 . S
C66 N69 1.368 . S
C66 H71 0.931 . S
C67 C66 1.351 . S
C67 N68 1.373 . S
C67 H95 0.930 . S
N68 C67 1.373 . S
N68 C70 1.340 . S
N69 C66 1.368 . S
N69 C70 1.321 . S
N69 Co72 2.135 . S
C70 N68 1.340 . S
C70 N69 1.321 . S
C70 H94 0.930 . S
H71 C66 0.931 . S
Co72 N69 2.135 . S
Co72 N75 2.121 . S
Co72 O80 2.055 . S
Co72 O83 2.039 . S
Co72 N86 2.140 . S
C73 O74 1.227 . S
C73 O83 1.265 . S
O74 C73 1.227 . S
N75 Co72 2.121 . S
N75 C77 1.375 . S
N75 C78 1.313 . S
C76 C77 1.338 . S
C76 N79 1.377 . S
C76 H96 0.930 . S
C77 N75 1.375 . S
C77 C76 1.338 . S
C77 H81 0.931 . S
C78 N75 1.313 . S
C78 N79 1.344 . S
C78 H82 0.930 . S
N79 C76 1.377 . S
N79 C78 1.344 . S
O80 Co72 2.055 . S
O80 C84 1.253 . S
H81 C77 0.931 . S
H82 C78 0.930 . S
O83 Co72 2.039 . S
O83 C73 1.265 . S
C84 O80 1.253 . S
C84 O85 1.227 . S
O85 C84 1.227 . S
N86 Co72 2.140 . S
N86 C89 1.359 . S
N86 C90 1.345 . S
C87 C88 1.387 . S
C87 C91 1.391 . S
C88 C87 1.387 . S
C88 C89 1.360 1_545 S
C88 H97 0.929 . S
C89 N86 1.359 . S
C89 C88 1.360 1_565 S
C89 H92 0.924 . S
C90 N86 1.345 . S
C90 C91 1.371 1_565 S
C90 H93 0.931 . S
C91 C87 1.391 . S
C91 C90 1.371 1_545 S
C91 H98 0.930 . S
H92 C89 0.924 . S
H93 C90 0.931 . S
H94 C70 0.930 . S
H95 C67 0.930 . S
H96 C76 0.930 . S
H97 C88 0.929 . S
H98 C91 0.930 . S
C99 C100 1.351 . S
C99 N102 1.368 . S
C99 H104 0.931 . S
C100 C99 1.351 . S
C100 N101 1.373 . S
C100 H128 0.930 . S
N101 C100 1.373 . S
N101 C103 1.340 . S
N102 C99 1.368 . S
N102 C103 1.321 . S
N102 Co105 2.135 . S
C103 N101 1.340 . S
C103 N102 1.321 . S
C103 H127 0.930 . S
H104 C99 0.931 . S
Co105 N102 2.135 . S
Co105 N108 2.121 . S
Co105 O113 2.055 . S
Co105 O116 2.039 . S
Co105 N119 2.140 . S
C106 O107 1.227 . S
C106 O116 1.265 . S
O107 C106 1.227 . S
N108 Co105 2.121 . S
N108 C110 1.375 . S
N108 C111 1.313 . S
C109 C110 1.338 . S
C109 N112 1.377 . S
C109 H129 0.930 . S
C110 N108 1.375 . S
C110 C109 1.338 . S
C110 H114 0.931 . S
C111 N108 1.313 . S
C111 N112 1.344 . S
C111 H115 0.930 . S
N112 C109 1.377 . S
N112 C111 1.344 . S
O113 Co105 2.055 . S
O113 C117 1.253 . S
H114 C110 0.931 . S
H115 C111 0.930 . S
O116 Co105 2.039 . S
O116 C106 1.265 . S
C117 O113 1.253 . S
C117 O118 1.227 . S
O118 C117 1.227 . S
N119 Co105 2.140 . S
N119 C122 1.346 . S
N119 C123 1.345 . S
C120 C121 1.387 . S
C120 C124 1.391 . S
C121 C120 1.387 . S
C121 C122 1.369 . S
C121 H130 0.929 . S
C122 N119 1.346 . S
C122 C121 1.369 . S
C122 H125 0.928 . S
C123 N119 1.345 . S
C123 C124 1.371 . S
C123 H126 0.931 . S
C124 C120 1.391 . S
C124 C123 1.371 . S
C124 H131 0.930 . S
H125 C122 0.928 . S
H126 C123 0.931 . S
H127 C103 0.930 . S
H128 C100 0.930 . S
H129 C109 0.930 . S
H130 C121 0.929 . S
H131 C124 0.930 . S
C132 C133 1.351 . S
C132 N135 1.368 . S
C132 H137 0.931 . S
C133 C132 1.351 . S
C133 N134 1.373 . S
C133 H161 0.930 . S
N134 C133 1.373 . S
N134 C136 1.340 . S
N135 C132 1.368 . S
N135 C136 1.321 . S
N135 Co138 2.135 . S
C136 N134 1.340 . S
C136 N135 1.321 . S
C136 H160 0.930 . S
H137 C132 0.931 . S
Co138 N135 2.135 . S
Co138 N141 2.121 . S
Co138 O146 2.055 . S
Co138 O149 2.039 . S
Co138 N152 2.140 . S
C139 O140 1.227 . S
C139 O149 1.265 . S
O140 C139 1.227 . S
N141 Co138 2.121 . S
N141 C143 1.375 . S
N141 C144 1.313 . S
C142 C143 1.338 . S
C142 N145 1.377 . S
C142 H162 0.930 . S
C143 N141 1.375 . S
C143 C142 1.338 . S
C143 H147 0.931 . S
C144 N141 1.313 . S
C144 N145 1.344 . S
C144 H148 0.930 . S
N145 C142 1.377 . S
N145 C144 1.344 . S
O146 Co138 2.055 . S
O146 C150 1.253 . S
H147 C143 0.931 . S
H148 C144 0.930 . S
O149 Co138 2.039 . S
O149 C139 1.265 . S
C150 O146 1.253 . S
C150 O151 1.227 . S
O151 C150 1.227 . S
N152 Co138 2.140 . S
N152 C155 1.355 . S
N152 C156 1.345 . S
C153 C154 1.387 . S
C153 C157 1.391 . S
C154 C153 1.387 . S
C154 C155 1.353 1_655 S
C154 H163 0.929 . S
C155 N152 1.355 . S
C155 C154 1.353 1_455 S
C155 H158 0.936 . S
C156 N152 1.345 . S
C156 C157 1.371 1_455 S
C156 H159 0.931 . S
C157 C153 1.391 . S
C157 C156 1.371 1_655 S
C157 H164 0.930 . S
H158 C155 0.936 . S
H159 C156 0.931 . S
H160 C136 0.930 . S
H161 C133 0.930 . S
H162 C142 0.930 . S
H163 C154 0.929 . S
H164 C157 0.930 . S
C165 C166 1.351 . S
C165 N168 1.368 . S
C165 H170 0.931 . S
C166 C165 1.351 . S
C166 N167 1.373 . S
C166 H194 0.930 . S
N167 C166 1.373 . S
N167 C169 1.340 . S
N168 C165 1.368 . S
N168 C169 1.321 . S
N168 Co171 2.135 . S
C169 N167 1.340 . S
C169 N168 1.321 . S
C169 H193 0.930 . S
H170 C165 0.931 . S
Co171 N168 2.135 . S
Co171 N174 2.121 . S
Co171 O179 2.055 . S
Co171 O182 2.039 . S
Co171 N185 2.140 . S
C172 O173 1.227 . S
C172 O182 1.265 . S
O173 C172 1.227 . S
N174 Co171 2.121 . S
N174 C176 1.375 . S
N174 C177 1.313 . S
C175 C176 1.338 . S
C175 N178 1.377 . S
C175 H195 0.930 . S
C176 N174 1.375 . S
C176 C175 1.338 . S
C176 H180 0.931 . S
C177 N174 1.313 . S
C177 N178 1.344 . S
C177 H181 0.930 . S
N178 C175 1.377 . S
N178 C177 1.344 . S
O179 Co171 2.055 . S
O179 C183 1.253 . S
H180 C176 0.931 . S
H181 C177 0.930 . S
O182 Co171 2.039 . S
O182 C172 1.265 . S
C183 O179 1.253 . S
C183 O184 1.227 . S
O184 C183 1.227 . S
N185 Co171 2.140 . S
N185 C188 1.359 . S
N185 C189 1.345 . S
C186 C187 1.387 . S
C186 C190 1.391 . S
C187 C186 1.387 . S
C187 C188 1.360 1_565 S
C187 H196 0.929 . S
C188 N185 1.359 . S
C188 C187 1.360 1_545 S
C188 H191 0.924 . S
C189 N185 1.345 . S
C189 C190 1.371 1_545 S
C189 H192 0.931 . S
C190 C186 1.391 . S
C190 C189 1.371 1_565 S
C190 H197 0.930 . S
H191 C188 0.924 . S
H192 C189 0.931 . S
H193 C169 0.930 . S
H194 C166 0.930 . S
H195 C175 0.930 . S
H196 C187 0.929 . S
H197 C190 0.930 . S
C198 C199 1.351 . S
C198 N201 1.368 . S
C198 H203 0.931 . S
C199 C198 1.351 . S
C199 N200 1.373 . S
C199 H227 0.930 . S
N200 C199 1.373 . S
N200 C202 1.340 . S
N201 C198 1.368 . S
N201 C202 1.321 . S
N201 Co204 2.135 . S
C202 N200 1.340 . S
C202 N201 1.321 . S
C202 H226 0.930 . S
H203 C198 0.931 . S
Co204 N201 2.135 . S
Co204 N207 2.121 . S
Co204 O212 2.055 . S
Co204 O215 2.039 . S
Co204 N218 2.140 . S
C205 O206 1.227 . S
C205 O215 1.265 . S
O206 C205 1.227 . S
N207 Co204 2.121 . S
N207 C209 1.375 . S
N207 C210 1.313 . S
C208 C209 1.338 . S
C208 N211 1.377 . S
C208 H228 0.930 . S
C209 N207 1.375 . S
C209 C208 1.338 . S
C209 H213 0.931 . S
C210 N207 1.313 . S
C210 N211 1.344 . S
C210 H214 0.930 . S
N211 C208 1.377 . S
N211 C210 1.344 . S
O212 Co204 2.055 . S
O212 C216 1.253 . S
H213 C209 0.931 . S
H214 C210 0.930 . S
O215 Co204 2.039 . S
O215 C205 1.265 . S
C216 O212 1.253 . S
C216 O217 1.227 . S
O217 C216 1.227 . S
N218 Co204 2.140 . S
N218 C221 1.346 . S
N218 C222 1.345 . S
C219 C220 1.387 . S
C219 C223 1.391 . S
C220 C219 1.387 . S
C220 C221 1.369 . S
C220 H229 0.929 . S
C221 N218 1.346 . S
C221 C220 1.369 . S
C221 H224 0.928 . S
C222 N218 1.345 . S
C222 C223 1.371 . S
C222 H225 0.931 . S
C223 C219 1.391 . S
C223 C222 1.371 . S
C223 H230 0.930 . S
H224 C221 0.928 . S
H225 C222 0.931 . S
H226 C202 0.930 . S
H227 C199 0.930 . S
H228 C208 0.930 . S
H229 C220 0.929 . S
H230 C223 0.930 . S
C231 C232 1.351 . S
C231 N234 1.368 . S
C231 H236 0.931 . S
C232 C231 1.351 . S
C232 N233 1.373 . S
C232 H260 0.930 . S
N233 C232 1.373 . S
N233 C235 1.340 . S
N234 C231 1.368 . S
N234 C235 1.321 . S
N234 Co237 2.135 . S
C235 N233 1.340 . S
C235 N234 1.321 . S
C235 H259 0.930 . S
H236 C231 0.931 . S
Co237 N234 2.135 . S
Co237 N240 2.121 . S
Co237 O245 2.055 . S
Co237 O248 2.039 . S
Co237 N251 2.140 . S
C238 O239 1.227 . S
C238 O248 1.265 . S
O239 C238 1.227 . S
N240 Co237 2.121 . S
N240 C242 1.375 . S
N240 C243 1.313 . S
C241 C242 1.338 . S
C241 N244 1.377 . S
C241 H261 0.930 . S
C242 N240 1.375 . S
C242 C241 1.338 . S
C242 H246 0.931 . S
C243 N240 1.313 . S
C243 N244 1.344 . S
C243 H247 0.930 . S
N244 C241 1.377 . S
N244 C243 1.344 . S
O245 Co237 2.055 . S
O245 C249 1.253 . S
H246 C242 0.931 . S
H247 C243 0.930 . S
O248 Co237 2.039 . S
O248 C238 1.265 . S
C249 O245 1.253 . S
C249 O250 1.227 . S
O250 C249 1.227 . S
N251 Co237 2.140 . S
N251 C254 1.359 . S
N251 C255 1.345 . S
C252 C253 1.387 . S
C252 C256 1.391 . S
C253 C252 1.387 . S
C253 C254 1.360 1_455 S
C253 H262 0.929 . S
C254 N251 1.359 . S
C254 C253 1.360 1_655 S
C254 H257 0.924 . S
C255 N251 1.345 . S
C255 C256 1.371 1_655 S
C255 H258 0.931 . S
C256 C252 1.391 . S
C256 C255 1.371 1_455 S
C256 H263 0.930 . S
H257 C254 0.924 . S
H258 C255 0.931 . S
H259 C235 0.930 . S
H260 C232 0.930 . S
H261 C241 0.930 . S
H262 C253 0.929 . S
H263 C256 0.930 . S
C264 C265 1.351 . S
C264 N267 1.368 . S
C264 H269 0.931 . S
C265 C264 1.351 . S
C265 N266 1.373 . S
C265 H293 0.930 . S
N266 C265 1.373 . S
N266 C268 1.340 . S
N267 C264 1.368 . S
N267 C268 1.321 . S
N267 Co270 2.135 . S
C268 N266 1.340 . S
C268 N267 1.321 . S
C268 H292 0.930 . S
H269 C264 0.931 . S
Co270 N267 2.135 . S
Co270 N273 2.121 . S
Co270 O278 2.055 . S
Co270 O281 2.039 . S
Co270 N284 2.140 . S
C271 O272 1.227 . S
C271 O281 1.265 . S
O272 C271 1.227 . S
N273 Co270 2.121 . S
N273 C275 1.375 . S
N273 C276 1.313 . S
C274 C275 1.338 . S
C274 N277 1.377 . S
C274 H294 0.930 . S
C275 N273 1.375 . S
C275 C274 1.338 . S
C275 H279 0.931 . S
C276 N273 1.313 . S
C276 N277 1.344 . S
C276 H280 0.930 . S
N277 C274 1.377 . S
N277 C276 1.344 . S
O278 Co270 2.055 . S
O278 C282 1.253 . S
H279 C275 0.931 . S
H280 C276 0.930 . S
O281 Co270 2.039 . S
O281 C271 1.265 . S
C282 O278 1.253 . S
C282 O283 1.227 . S
O283 C282 1.227 . S
N284 Co270 2.140 . S
N284 C287 1.355 . S
N284 C288 1.345 . S
C285 C286 1.387 . S
C285 C289 1.391 . S
C286 C285 1.387 . S
C286 C287 1.353 1_545 S
C286 H295 0.929 . S
C287 N284 1.355 . S
C287 C286 1.353 1_565 S
C287 H290 0.936 . S
C288 N284 1.345 . S
C288 C289 1.371 1_565 S
C288 H291 0.931 . S
C289 C285 1.391 . S
C289 C288 1.371 1_545 S
C289 H296 0.930 . S
H290 C287 0.936 . S
H291 C288 0.931 . S
H292 C268 0.930 . S
H293 C265 0.930 . S
H294 C274 0.930 . S
H295 C286 0.929 . S
H296 C289 0.930 . S
C297 C298 1.351 . S
C297 N300 1.368 . S
C297 H302 0.931 . S
C298 C297 1.351 . S
C298 N299 1.373 . S
C298 H326 0.930 . S
N299 C298 1.373 . S
N299 C301 1.340 . S
N300 C297 1.368 . S
N300 C301 1.321 . S
N300 Co303 2.135 . S
C301 N299 1.340 . S
C301 N300 1.321 . S
C301 H325 0.930 . S
H302 C297 0.931 . S
Co303 N300 2.135 . S
Co303 N306 2.121 . S
Co303 O311 2.055 . S
Co303 O314 2.039 . S
Co303 N317 2.140 . S
C304 O305 1.227 . S
C304 O314 1.265 . S
O305 C304 1.227 . S
N306 Co303 2.121 . S
N306 C308 1.375 . S
N306 C309 1.313 . S
C307 C308 1.338 . S
C307 N310 1.377 . S
C307 H327 0.930 . S
C308 N306 1.375 . S
C308 C307 1.338 . S
C308 H312 0.931 . S
C309 N306 1.313 . S
C309 N310 1.344 . S
C309 H313 0.930 . S
N310 C307 1.377 . S
N310 C309 1.344 . S
O311 Co303 2.055 . S
O311 C315 1.253 . S
H312 C308 0.931 . S
H313 C309 0.930 . S
O314 Co303 2.039 . S
O314 C304 1.265 . S
C315 O311 1.253 . S
C315 O316 1.227 . S
O316 C315 1.227 . S
N317 Co303 2.140 . S
N317 C320 1.346 . S
N317 C321 1.345 . S
C318 C319 1.387 . S
C318 C322 1.391 . S
C319 C318 1.387 . S
C319 C320 1.369 . S
C319 H328 0.929 . S
C320 N317 1.346 . S
C320 C319 1.369 . S
C320 H323 0.928 . S
C321 N317 1.345 . S
C321 C322 1.371 . S
C321 H324 0.931 . S
C322 C318 1.391 . S
C322 C321 1.371 . S
C322 H329 0.930 . S
H323 C320 0.928 . S
H324 C321 0.931 . S
H325 C301 0.930 . S
H326 C298 0.930 . S
H327 C307 0.930 . S
H328 C319 0.929 . S
H329 C322 0.930 . S
C330 C331 1.351 . S
C330 N333 1.368 . S
C330 H335 0.931 . S
C331 C330 1.351 . S
C331 N332 1.373 . S
C331 H359 0.930 . S
N332 C331 1.373 . S
N332 C334 1.340 . S
N333 C330 1.368 . S
N333 C334 1.321 . S
N333 Co336 2.135 . S
C334 N332 1.340 . S
C334 N333 1.321 . S
C334 H358 0.930 . S
H335 C330 0.931 . S
Co336 N333 2.135 . S
Co336 N339 2.121 . S
Co336 O344 2.055 . S
Co336 O347 2.039 . S
Co336 N350 2.140 . S
C337 O338 1.227 . S
C337 O347 1.265 . S
O338 C337 1.227 . S
N339 Co336 2.121 . S
N339 C341 1.375 . S
N339 C342 1.313 . S
C340 C341 1.338 . S
C340 N343 1.377 . S
C340 H360 0.930 . S
C341 N339 1.375 . S
C341 C340 1.338 . S
C341 H345 0.931 . S
C342 N339 1.313 . S
C342 N343 1.344 . S
C342 H346 0.930 . S
N343 C340 1.377 . S
N343 C342 1.344 . S
O344 Co336 2.055 . S
O344 C348 1.253 . S
H345 C341 0.931 . S
H346 C342 0.930 . S
O347 Co336 2.039 . S
O347 C337 1.265 . S
C348 O344 1.253 . S
C348 O349 1.227 . S
O349 C348 1.227 . S
N350 Co336 2.140 . S
N350 C353 1.359 . S
N350 C354 1.345 . S
C351 C352 1.387 . S
C351 C355 1.391 . S
C352 C351 1.387 . S
C352 C353 1.360 1_655 S
C352 H361 0.929 . S
C353 N350 1.359 . S
C353 C352 1.360 1_455 S
C353 H356 0.924 . S
C354 N350 1.345 . S
C354 C355 1.371 1_455 S
C354 H357 0.931 . S
C355 C351 1.391 . S
C355 C354 1.371 1_655 S
C355 H362 0.930 . S
H356 C353 0.924 . S
H357 C354 0.931 . S
H358 C334 0.930 . S
H359 C331 0.930 . S
H360 C340 0.930 . S
H361 C352 0.929 . S
H362 C355 0.930 . S
C363 C364 1.351 . S
C363 N366 1.368 . S
C363 H368 0.931 . S
C364 C363 1.351 . S
C364 N365 1.373 . S
C364 H392 0.930 . S
N365 C364 1.373 . S
N365 C367 1.340 . S
N366 C363 1.368 . S
N366 C367 1.321 . S
N366 Co369 2.135 . S
C367 N365 1.340 . S
C367 N366 1.321 . S
C367 H391 0.930 . S
H368 C363 0.931 . S
Co369 N366 2.135 . S
Co369 N372 2.121 . S
Co369 O377 2.055 . S
Co369 O380 2.039 . S
Co369 N383 2.140 . S
C370 O371 1.227 . S
C370 O380 1.265 . S
O371 C370 1.227 . S
N372 Co369 2.121 . S
N372 C374 1.375 . S
N372 C375 1.313 . S
C373 C374 1.338 . S
C373 N376 1.377 . S
C373 H393 0.930 . S
C374 N372 1.375 . S
C374 C373 1.338 . S
C374 H378 0.931 . S
C375 N372 1.313 . S
C375 N376 1.344 . S
C375 H379 0.930 . S
N376 C373 1.377 . S
N376 C375 1.344 . S
O377 Co369 2.055 . S
O377 C381 1.253 . S
H378 C374 0.931 . S
H379 C375 0.930 . S
O380 Co369 2.039 . S
O380 C370 1.265 . S
C381 O377 1.253 . S
C381 O382 1.227 . S
O382 C381 1.227 . S
N383 Co369 2.140 . S
N383 C386 1.355 . S
N383 C387 1.345 . S
C384 C385 1.387 . S
C384 C388 1.391 . S
C385 C384 1.387 . S
C385 C386 1.353 1_565 S
C385 H394 0.929 . S
C386 N383 1.355 . S
C386 C385 1.353 1_545 S
C386 H389 0.936 . S
C387 N383 1.345 . S
C387 C388 1.371 1_545 S
C387 H390 0.931 . S
C388 C384 1.391 . S
C388 C387 1.371 1_565 S
C388 H395 0.930 . S
H389 C386 0.936 . S
H390 C387 0.931 . S
H391 C367 0.930 . S
H392 C364 0.930 . S
H393 C373 0.930 . S
H394 C385 0.929 . S
H395 C388 0.930 . S
C396 C397 1.369 . S
C396 C398 1.419 . S
C396 H400 0.930 . S
C397 C396 1.369 . S
C397 C406 1.429 . S
C398 C396 1.419 . S
C398 C399 1.363 . S
C398 H401 0.929 . S
C399 C398 1.363 . S
C399 C405 1.428 . S
H400 C396 0.930 . S
H401 C398 0.929 . S
S402 N403 1.613 . S
S402 N404 1.610 . S
N403 S402 1.613 . S
N403 C406 1.350 . S
N404 S402 1.610 . S
N404 C405 1.351 . S
C405 C399 1.428 . S
C405 N404 1.351 . S
C405 C406 1.434 . S
C406 C397 1.429 . S
C406 N403 1.350 . S
C406 C405 1.434 . S
C407 C408 1.369 1_455 S
C407 C409 1.419 . S
C407 H411 0.930 . S
C408 C407 1.369 1_655 S
C408 C417 1.429 . S
C409 C407 1.419 . S
C409 C410 1.363 . S
C409 H412 0.929 . S
C410 C409 1.363 . S
C410 C416 1.428 1_455 S
H411 C407 0.930 . S
H412 C409 0.929 . S
S413 N414 1.613 . S
S413 N415 1.610 . S
N414 S413 1.613 . S
N414 C417 1.350 . S
N415 S413 1.610 . S
N415 C416 1.351 . S
C416 C410 1.428 1_655 S
C416 N415 1.351 . S
C416 C417 1.434 . S
C417 C408 1.429 . S
C417 N414 1.350 . S
C417 C416 1.434 . S
C418 C419 1.369 . S
C418 C420 1.419 1_566 S
C418 H422 0.930 . S
C419 C418 1.369 . S
C419 C428 1.429 . S
C420 C418 1.419 1_544 S
C420 C421 1.363 . S
C420 H423 0.929 . S
C421 C420 1.363 . S
C421 C427 1.428 . S
H422 C418 0.930 . S
H423 C420 0.929 . S
S424 N425 1.613 1_554 S
S424 N426 1.610 1_565 S
N425 S424 1.613 1_556 S
N425 C428 1.350 . S
N426 S424 1.610 1_545 S
N426 C427 1.351 . S
C427 C421 1.428 . S
C427 N426 1.351 . S
C427 C428 1.434 1_544 S
C428 C419 1.429 . S
C428 N425 1.350 . S
C428 C427 1.434 1_566 S
C429 C430 1.369 . S
C429 C431 1.419 . S
C429 H433 0.930 . S
C430 C429 1.369 . S
C430 C439 1.429 . S
C431 C429 1.419 . S
C431 C432 1.363 . S
C431 H434 0.929 . S
C432 C431 1.363 . S
C432 C438 1.428 . S
H433 C429 0.930 . S
H434 C431 0.929 . S
S435 N436 1.613 . S
S435 N437 1.610 . S
N436 S435 1.613 . S
N436 C439 1.350 . S
N437 S435 1.610 . S
N437 C438 1.351 . S
C438 C432 1.428 . S
C438 N437 1.351 . S
C438 C439 1.434 . S
C439 C430 1.429 . S
C439 N436 1.350 . S
C439 C438 1.434 . S
C440 C441 1.369 . S
C440 C442 1.419 1_455 S
C440 H444 0.930 . S
C441 C440 1.369 . S
C441 C450 1.429 . S
C442 C440 1.419 1_655 S
C442 C443 1.363 . S
C442 H445 0.929 . S
C443 C442 1.363 . S
C443 C449 1.428 . S
H444 C440 0.930 . S
H445 C442 0.929 . S
S446 N447 1.613 1_655 S
S446 N448 1.610 . S
N447 S446 1.613 1_455 S
N447 C450 1.350 . S
N448 S446 1.610 . S
N448 C449 1.351 . S
C449 C443 1.428 . S
C449 N448 1.351 . S
C449 C450 1.434 1_655 S
C450 C441 1.429 . S
C450 N447 1.350 . S
C450 C449 1.434 1_455 S
C451 C452 1.369 1_554 S
C451 C453 1.419 . S
C451 H455 0.930 . S
C452 C451 1.369 1_556 S
C452 C461 1.429 1_545 S
C453 C451 1.419 . S
C453 C454 1.363 1_545 S
C453 H456 0.929 . S
C454 C453 1.363 1_565 S
C454 C460 1.428 1_554 S
H455 C451 0.930 . S
H456 C453 0.929 . S
S457 N458 1.613 . S
S457 N459 1.610 . S
N458 S457 1.613 . S
N458 C461 1.350 . S
N459 S457 1.610 . S
N459 C460 1.351 . S
C460 C454 1.428 1_556 S
C460 N459 1.351 . S
C460 C461 1.434 . S
C461 C452 1.429 1_565 S
C461 N458 1.350 . S
C461 C460 1.434 . S
C462 C463 1.369 . S
C462 C464 1.419 1_556 S
C462 H466 0.930 . S
C463 C462 1.369 . S
C463 C472 1.429 . S
C464 C462 1.419 1_554 S
C464 C465 1.363 . S
C464 H467 0.929 . S
C465 C464 1.363 . S
C465 C471 1.428 . S
H466 C462 0.930 . S
H467 C464 0.929 . S
S468 N469 1.613 1_554 S
S468 N470 1.610 . S
N469 S468 1.613 1_556 S
N469 C472 1.350 . S
N470 S468 1.610 . S
N470 C471 1.351 . S
C471 C465 1.428 . S
C471 N470 1.351 . S
C471 C472 1.434 1_554 S
C472 C463 1.429 . S
C472 N469 1.350 . S
C472 C471 1.434 1_556 S
C473 C474 1.369 . S
C473 C475 1.419 . S
C473 H477 0.930 . S
C474 C473 1.369 . S
C474 C483 1.429 . S
C475 C473 1.419 . S
C475 C476 1.363 . S
C475 H478 0.929 . S
C476 C475 1.363 . S
C476 C482 1.428 . S
H477 C473 0.930 . S
H478 C475 0.929 . S
S479 N480 1.613 . S
S479 N481 1.610 . S
N480 S479 1.613 . S
N480 C483 1.350 . S
N481 S479 1.610 . S
N481 C482 1.351 . S
C482 C476 1.428 . S
C482 N481 1.351 . S
C482 C483 1.434 . S
C483 C474 1.429 . S
C483 N480 1.350 . S
C483 C482 1.434 . S
C484 C485 1.369 . S
C484 C486 1.419 . S
C484 H488 0.930 . S
C485 C484 1.369 . S
C485 C494 1.429 . S
C486 C484 1.419 . S
C486 C487 1.363 . S
C486 H489 0.929 . S
C487 C486 1.363 . S
C487 C493 1.428 . S
H488 C484 0.930 . S
H489 C486 0.929 . S
S490 N491 1.613 . S
S490 N492 1.610 . S
N491 S490 1.613 . S
N491 C494 1.350 . S
N492 S490 1.610 . S
N492 C493 1.351 . S
C493 C487 1.428 . S
C493 N492 1.351 . S
C493 C494 1.434 . S
C494 C485 1.429 . S
C494 N491 1.350 . S
C494 C493 1.434 . S
C495 C496 1.369 . S
C495 C497 1.419 1_556 S
C495 H499 0.930 . S
C496 C495 1.369 . S
C496 C505 1.429 . S
C497 C495 1.419 1_554 S
C497 C498 1.363 . S
C497 H500 0.929 . S
C498 C497 1.363 . S
C498 C504 1.428 . S
H499 C495 0.930 . S
H500 C497 0.929 . S
S501 N502 1.613 . S
S501 N503 1.610 1_556 S
N502 S501 1.613 . S
N502 C505 1.350 . S
N503 S501 1.610 1_554 S
N503 C504 1.351 . S
C504 C498 1.428 . S
C504 N503 1.351 . S
C504 C505 1.434 1_554 S
C505 C496 1.429 . S
C505 N502 1.350 . S
C505 C504 1.434 1_556 S
C506 C507 1.369 . S
C506 C508 1.419 . S
C506 H510 0.930 . S
C507 C506 1.369 . S
C507 C516 1.429 . S
C508 C506 1.419 . S
C508 C509 1.363 . S
C508 H511 0.929 . S
C509 C508 1.363 . S
C509 C515 1.428 . S
H510 C506 0.930 . S
H511 C508 0.929 . S
S512 N513 1.613 . S
S512 N514 1.610 . S
N513 S512 1.613 . S
N513 C516 1.350 . S
N514 S512 1.610 . S
N514 C515 1.351 . S
C515 C509 1.428 . S
C515 N514 1.351 . S
C515 C516 1.434 . S
C516 C507 1.429 . S
C516 N513 1.350 . S
C516 C515 1.434 . S
C517 C518 1.369 . S
C517 C519 1.419 . S
C517 H521 0.930 . S
C518 C517 1.369 . S
C518 C527 1.429 . S
C519 C517 1.419 . S
C519 C520 1.363 . S
C519 H522 0.929 . S
C520 C519 1.363 . S
C520 C526 1.428 . S
H521 C517 0.930 . S
H522 C519 0.929 . S
S523 N524 1.613 . S
S523 N525 1.610 . S
N524 S523 1.613 . S
N524 C527 1.350 . S
N525 S523 1.610 . S
N525 C526 1.351 . S
C526 C520 1.428 . S
C526 N525 1.351 . S
C526 C527 1.434 . S
C527 C518 1.429 . S
C527 N524 1.350 . S
C527 C526 1.434 . S
C528 C529 1.369 . S
C528 C530 1.419 . S
C528 H532 0.930 . S
C529 C528 1.369 . S
C529 C538 1.429 . S
C530 C528 1.419 . S
C530 C531 1.363 . S
C530 H533 0.929 . S
C531 C530 1.363 . S
C531 C537 1.428 . S
H532 C528 0.930 . S
H533 C530 0.929 . S
S534 N535 1.613 . S
S534 N536 1.610 . S
N535 S534 1.613 . S
N535 C538 1.350 . S
N536 S534 1.610 . S
N536 C537 1.351 . S
C537 C531 1.428 . S
C537 N536 1.351 . S
C537 C538 1.434 . S
C538 C529 1.429 . S
C538 N535 1.350 . S
C538 C537 1.434 . S
C539 C540 1.369 . S
C539 C541 1.419 1_655 S
C539 H543 0.930 . S
C540 C539 1.369 . S
C540 C549 1.429 . S
C541 C539 1.419 1_455 S
C541 C542 1.363 . S
C541 H544 0.929 . S
C542 C541 1.363 . S
C542 C548 1.428 . S
H543 C539 0.930 . S
H544 C541 0.929 . S
S545 N546 1.613 . S
S545 N547 1.610 . S
N546 S545 1.613 . S
N546 C549 1.350 1_455 S
N547 S545 1.610 . S
N547 C548 1.351 . S
C548 C542 1.428 . S
C548 N547 1.351 . S
C548 C549 1.434 1_455 S
C549 C540 1.429 . S
C549 N546 1.350 1_655 S
C549 C548 1.434 1_655 S
C550 C551 1.369 . S
C550 C552 1.419 1_545 S
C550 H554 0.930 . S
C551 C550 1.369 . S
C551 C560 1.429 . S
C552 C550 1.419 1_565 S
C552 C553 1.363 . S
C552 H555 0.929 . S
C553 C552 1.363 . S
C553 C559 1.428 . S
H554 C550 0.930 . S
H555 C552 0.929 . S
S556 N557 1.613 1_565 S
S556 N558 1.610 . S
N557 S556 1.613 1_545 S
N557 C560 1.350 . S
N558 S556 1.610 . S
N558 C559 1.351 . S
C559 C553 1.428 . S
C559 N558 1.351 . S
C559 C560 1.434 1_565 S
C560 C551 1.429 . S
C560 N557 1.350 . S
C560 C559 1.434 1_545 S
C561 C562 1.369 . S
C561 C563 1.419 . S
C561 H565 0.930 . S
C562 C561 1.369 . S
C562 C571 1.429 . S
C563 C561 1.419 . S
C563 C564 1.363 . S
C563 H566 0.929 . S
C564 C563 1.363 . S
C564 C570 1.428 . S
H565 C561 0.930 . S
H566 C563 0.929 . S
S567 N568 1.613 . S
S567 N569 1.610 . S
N568 S567 1.613 . S
N568 C571 1.350 . S
N569 S567 1.610 . S
N569 C570 1.351 . S
C570 C564 1.428 . S
C570 N569 1.351 . S
C570 C571 1.434 . S
C571 C562 1.429 . S
C571 N568 1.350 . S
C571 C570 1.434 . S
C572 C573 1.369 . S
C572 C574 1.419 1_655 S
C572 H576 0.930 . S
C573 C572 1.369 . S
C573 C582 1.429 . S
C574 C572 1.419 1_455 S
C574 C575 1.363 . S
C574 H577 0.929 . S
C575 C574 1.363 . S
C575 C581 1.428 . S
H576 C572 0.930 . S
H577 C574 0.929 . S
S578 N579 1.613 . S
S578 N580 1.610 1_655 S
N579 S578 1.613 . S
N579 C582 1.350 . S
N580 S578 1.610 1_455 S
N580 C581 1.351 . S
C581 C575 1.428 . S
C581 N580 1.351 . S
C581 C582 1.434 1_455 S
C582 C573 1.429 . S
C582 N579 1.350 . S
C582 C581 1.434 1_655 S
C583 C584 1.369 . S
C583 C585 1.419 1_545 S
C583 H587 0.930 . S
C584 C583 1.369 . S
C584 C593 1.429 . S
C585 C583 1.419 1_565 S
C585 C586 1.363 . S
C585 H588 0.929 . S
C586 C585 1.363 . S
C586 C592 1.428 . S
H587 C583 0.930 . S
H588 C585 0.929 . S
S589 N590 1.613 . S
S589 N591 1.610 . S
N590 S589 1.613 . S
N590 C593 1.350 . S
N591 S589 1.610 . S
N591 C592 1.351 1_545 S
C592 C586 1.428 . S
C592 N591 1.351 1_565 S
C592 C593 1.434 1_565 S
C593 C584 1.429 . S
C593 N590 1.350 . S
C593 C592 1.434 1_545 S
C594 C595 1.369 . S
C594 C596 1.419 1_455 S
C594 H598 0.930 . S
C595 C594 1.369 . S
C595 C604 1.429 . S
C596 C594 1.419 1_655 S
C596 C597 1.363 . S
C596 H599 0.929 . S
C597 C596 1.363 . S
C597 C603 1.428 . S
H598 C594 0.930 . S
H599 C596 0.929 . S
S600 N601 1.613 1_655 S
S600 N602 1.610 . S
N601 S600 1.613 1_455 S
N601 C604 1.350 . S
N602 S600 1.610 . S
N602 C603 1.351 . S
C603 C597 1.428 . S
C603 N602 1.351 . S
C603 C604 1.434 1_655 S
C604 C595 1.429 . S
C604 N601 1.350 . S
C604 C603 1.434 1_455 S
C605 C606 1.369 . S
C605 C607 1.419 1_565 S
C605 H609 0.930 . S
C606 C605 1.369 . S
C606 C615 1.429 . S
C607 C605 1.419 1_545 S
C607 C608 1.363 . S
C607 H610 0.929 . S
C608 C607 1.363 . S
C608 C614 1.428 . S
H609 C605 0.930 . S
H610 C607 0.929 . S
S611 N612 1.613 1_545 S
S611 N613 1.610 . S
N612 S611 1.613 1_565 S
N612 C615 1.350 . S
N613 S611 1.610 . S
N613 C614 1.351 . S
C614 C608 1.428 . S
C614 N613 1.351 . S
C614 C615 1.434 1_545 S
C615 C606 1.429 . S
C615 N612 1.350 . S
C615 C614 1.434 1_565 S
C616 C617 1.369 . S
C616 C618 1.419 . S
C616 H620 0.930 . S
C617 C616 1.369 . S
C617 C626 1.429 . S
C618 C616 1.419 . S
C618 C619 1.363 . S
C618 H621 0.929 . S
C619 C618 1.363 . S
C619 C625 1.428 . S
H620 C616 0.930 . S
H621 C618 0.929 . S
S622 N623 1.613 . S
S622 N624 1.610 . S
N623 S622 1.613 . S
N623 C626 1.350 . S
N624 S622 1.610 . S
N624 C625 1.351 . S
C625 C619 1.428 . S
C625 N624 1.351 . S
C625 C626 1.434 . S
C626 C617 1.429 . S
C626 N623 1.350 . S
C626 C625 1.434 . S
C627 C628 1.369 . S
C627 C629 1.419 1_655 S
C627 H631 0.930 . S
C628 C627 1.369 . S
C628 C637 1.429 . S
C629 C627 1.419 1_455 S
C629 C630 1.363 . S
C629 H632 0.929 . S
C630 C629 1.363 . S
C630 C636 1.428 . S
H631 C627 0.930 . S
H632 C629 0.929 . S
S633 N634 1.613 . S
S633 N635 1.610 1_655 S
N634 S633 1.613 . S
N634 C637 1.350 . S
N635 S633 1.610 1_455 S
N635 C636 1.351 . S
C636 C630 1.428 . S
C636 N635 1.351 . S
C636 C637 1.434 1_455 S
C637 C628 1.429 . S
C637 N634 1.350 . S
C637 C636 1.434 1_655 S
C638 C639 1.369 . S
C638 C640 1.419 1_565 S
C638 H642 0.930 . S
C639 C638 1.369 . S
C639 C648 1.429 . S
C640 C638 1.419 1_545 S
C640 C641 1.363 . S
C640 H643 0.929 . S
C641 C640 1.363 . S
C641 C647 1.428 . S
H642 C638 0.930 . S
H643 C640 0.929 . S
S644 N645 1.613 . S
S644 N646 1.610 1_565 S
N645 S644 1.613 . S
N645 C648 1.350 . S
N646 S644 1.610 1_545 S
N646 C647 1.351 . S
C647 C641 1.428 . S
C647 N646 1.351 . S
C647 C648 1.434 1_545 S
C648 C639 1.429 . S
C648 N645 1.350 . S
C648 C647 1.434 1_565 S
C649 C650 1.369 . S
C649 C651 1.419 . S
C649 H653 0.930 . S
C650 C649 1.369 . S
C650 C659 1.429 . S
C651 C649 1.419 . S
C651 C652 1.363 . S
C651 H654 0.929 . S
C652 C651 1.363 . S
C652 C658 1.428 . S
H653 C649 0.930 . S
H654 C651 0.929 . S
S655 N656 1.613 . S
S655 N657 1.610 . S
N656 S655 1.613 . S
N656 C659 1.350 . S
N657 S655 1.610 . S
N657 C658 1.351 . S
C658 C652 1.428 . S
C658 N657 1.351 . S
C658 C659 1.434 . S
C659 C650 1.429 . S
C659 N656 1.350 . S
C659 C658 1.434 . S
C660 C661 1.369 . S
C660 C662 1.419 . S
C660 H664 0.930 . S
C661 C660 1.369 . S
C661 C670 1.429 . S
C662 C660 1.419 . S
C662 C663 1.363 . S
C662 H665 0.929 . S
C663 C662 1.363 . S
C663 C669 1.428 . S
H664 C660 0.930 . S
H665 C662 0.929 . S
S666 N667 1.613 . S
S666 N668 1.610 . S
N667 S666 1.613 . S
N667 C670 1.350 . S
N668 S666 1.610 . S
N668 C669 1.351 . S
C669 C663 1.428 . S
C669 N668 1.351 . S
C669 C670 1.434 . S
C670 C661 1.429 . S
C670 N667 1.350 . S
C670 C669 1.434 . S
C671 C672 1.369 . S
C671 C673 1.419 . S
C671 H675 0.930 . S
C672 C671 1.369 . S
C672 C681 1.429 . S
C673 C671 1.419 . S
C673 C674 1.363 . S
C673 H676 0.929 . S
C674 C673 1.363 . S
C674 C680 1.428 . S
H675 C671 0.930 . S
H676 C673 0.929 . S
S677 N678 1.613 . S
S677 N679 1.610 . S
N678 S677 1.613 . S
N678 C681 1.350 . S
N679 S677 1.610 . S
N679 C680 1.351 . S
C680 C674 1.428 . S
C680 N679 1.351 . S
C680 C681 1.434 . S
C681 C672 1.429 . S
C681 N678 1.350 . S
C681 C680 1.434 . S
C682 C683 1.369 . S
C682 C684 1.419 . S
C682 H686 0.930 . S
C683 C682 1.369 . S
C683 C692 1.429 . S
C684 C682 1.419 . S
C684 C685 1.363 . S
C684 H687 0.929 . S
C685 C684 1.363 . S
C685 C691 1.428 . S
H686 C682 0.930 . S
H687 C684 0.929 . S
S688 N689 1.613 . S
S688 N690 1.610 . S
N689 S688 1.613 . S
N689 C692 1.350 . S
N690 S688 1.610 . S
N690 C691 1.351 . S
C691 C685 1.428 . S
C691 N690 1.351 . S
C691 C692 1.434 . S
C692 C683 1.429 . S
C692 N689 1.350 . S
C692 C691 1.434 . S
C693 C694 1.369 . S
C693 C695 1.419 . S
C693 H697 0.930 . S
C694 C693 1.369 . S
C694 C703 1.429 . S
C695 C693 1.419 . S
C695 C696 1.363 . S
C695 H698 0.929 . S
C696 C695 1.363 . S
C696 C702 1.428 . S
H697 C693 0.930 . S
H698 C695 0.929 . S
S699 N700 1.613 . S
S699 N701 1.610 . S
N700 S699 1.613 . S
N700 C703 1.350 . S
N701 S699 1.610 . S
N701 C702 1.351 . S
C702 C696 1.428 . S
C702 N701 1.351 . S
C702 C703 1.434 . S
C703 C694 1.429 . S
C703 N700 1.350 . S
C703 C702 1.434 . S
C704 C705 1.369 . S
C704 C706 1.419 . S
C704 H708 0.930 . S
C705 C704 1.369 . S
C705 C714 1.429 . S
C706 C704 1.419 . S
C706 C707 1.363 . S
C706 H709 0.929 . S
C707 C706 1.363 . S
C707 C713 1.428 . S
H708 C704 0.930 . S
H709 C706 0.929 . S
S710 N711 1.613 . S
S710 N712 1.610 . S
N711 S710 1.613 . S
N711 C714 1.350 . S
N712 S710 1.610 . S
N712 C713 1.351 . S
C713 C707 1.428 . S
C713 N712 1.351 . S
C713 C714 1.434 . S
C714 C705 1.429 . S
C714 N711 1.350 . S
C714 C713 1.434 . S
C715 C716 1.369 . S
C715 C717 1.419 . S
C715 H719 0.930 . S
C716 C715 1.369 . S
C716 C725 1.429 . S
C717 C715 1.419 . S
C717 C718 1.363 . S
C717 H720 0.929 . S
C718 C717 1.363 . S
C718 C724 1.428 . S
H719 C715 0.930 . S
H720 C717 0.929 . S
S721 N722 1.613 . S
S721 N723 1.610 . S
N722 S721 1.613 . S
N722 C725 1.350 . S
N723 S721 1.610 . S
N723 C724 1.351 . S
C724 C718 1.428 . S
C724 N723 1.351 . S
C724 C725 1.434 . S
C725 C716 1.429 . S
C725 N722 1.350 . S
C725 C724 1.434 . S
C397 N299 1.776 . S
C399 N2 1.773 . S
C408 N35 1.779 . S
C410 N332 1.776 . S
C419 N68 1.774 . S
C421 N365 1.772 . S
C430 N101 1.778 . S
C432 N200 1.774 . S
C441 N134 1.772 . S
C443 N233 1.772 . S
C452 N167 1.774 . S
C454 N266 1.777 . S
C463 N343 1.599 . S
C465 N13 1.604 . S
C474 N376 1.604 . S
C476 N46 1.600 . S
C485 N79 1.602 . S
C487 N211 1.604 . S
C496 N244 1.603 . S
C498 N112 1.603 . S
C507 N145 1.605 . S
C509 N277 1.600 . S
C518 N178 1.604 . S
C520 N310 1.600 . S
C529 C106 1.707 . S
C531 C7 1.718 . S
C540 C40 1.706 . S
C542 C139 1.718 . S
C551 C172 1.707 . S
C553 C73 1.718 . S
C562 C304 1.714 . S
C564 C205 1.711 . S
C573 C238 1.712 . S
C575 C337 1.715 . S
C584 C370 1.720 . S
C586 C271 1.708 . S
C595 C18 1.800 . S
C597 C381 1.800 . S
C606 C216 1.805 . S
C608 C51 1.802 . S
C617 C84 1.800 . S
C619 C249 1.803 . S
C628 C117 1.802 . S
C630 C282 1.804 . S
C639 C150 1.800 . S
C641 C315 1.803 . S
C650 C348 1.807 . S
C652 C183 1.805 . S
C661 C21 0.592 . S
C663 C285 0.577 . S
C672 C318 0.574 . S
C674 C54 0.592 . S
C683 C87 0.595 . S
C685 C351 0.577 . S
C694 C384 0.576 . S
C696 C120 0.589 . S
C705 C219 0.593 . S
C707 C153 0.577 . S
C716 C186 0.595 . S
C718 C252 0.578 . S
