# Generated by pormake.
# Topology umd, (4)-cn, num edge types: 1
# Building blocks:
#     Node 0, Type 0, BuildingBlock: KOZSID_clean_sbu_0, # of connection points: 4
#     Node 1, Type 0, BuildingBlock: KOZSID_clean_sbu_0, # of connection points: 4
#     Node 2, Type 0, BuildingBlock: KOZSID_clean_sbu_0, # of connection points: 4
#     Node 3, Type 0, BuildingBlock: KOZSID_clean_sbu_0, # of connection points: 4
#     Node 4, Type 0, BuildingBlock: KOZSID_clean_sbu_0, # of connection points: 4
#     Node 5, Type 0, BuildingBlock: KOZSID_clean_sbu_0, # of connection points: 4
#     Node 6, Type 0, BuildingBlock: KOZSID_clean_sbu_0, # of connection points: 4
#     Node 7, Type 0, BuildingBlock: KOZSID_clean_sbu_0, # of connection points: 4
#     Node 8, Type 0, BuildingBlock: KOZSID_clean_sbu_0, # of connection points: 4
#     Node 9, Type 0, BuildingBlock: KOZSID_clean_sbu_0, # of connection points: 4
#     Node 10, Type 0, BuildingBlock: KOZSID_clean_sbu_0, # of connection points: 4
#     Node 11, Type 0, BuildingBlock: KOZSID_clean_sbu_0, # of connection points: 4
#     Node 12, Type 0, BuildingBlock: KOZSID_clean_sbu_0, # of connection points: 4
#     Node 13, Type 0, BuildingBlock: KOZSID_clean_sbu_0, # of connection points: 4
#     Node 14, Type 0, BuildingBlock: KOZSID_clean_sbu_0, # of connection points: 4
#     Node 15, Type 0, BuildingBlock: KOZSID_clean_sbu_0, # of connection points: 4
#     Edge 16, Type (0, 0), BuildingBlock: KIFKEQ_clean_linker_1, # of connection points: 2
#     Edge 17, Type (0, 0), BuildingBlock: KIFKEQ_clean_linker_1, # of connection points: 2
#     Edge 18, Type (0, 0), BuildingBlock: KIFKEQ_clean_linker_1, # of connection points: 2
#     Edge 19, Type (0, 0), BuildingBlock: KIFKEQ_clean_linker_1, # of connection points: 2
#     Edge 20, Type (0, 0), BuildingBlock: KIFKEQ_clean_linker_1, # of connection points: 2
#     Edge 21, Type (0, 0), BuildingBlock: KIFKEQ_clean_linker_1, # of connection points: 2
#     Edge 22, Type (0, 0), BuildingBlock: KIFKEQ_clean_linker_1, # of connection points: 2
#     Edge 23, Type (0, 0), BuildingBlock: KIFKEQ_clean_linker_1, # of connection points: 2
#     Edge 24, Type (0, 0), BuildingBlock: KIFKEQ_clean_linker_1, # of connection points: 2
#     Edge 25, Type (0, 0), BuildingBlock: KIFKEQ_clean_linker_1, # of connection points: 2
#     Edge 26, Type (0, 0), BuildingBlock: KIFKEQ_clean_linker_1, # of connection points: 2
#     Edge 27, Type (0, 0), BuildingBlock: KIFKEQ_clean_linker_1, # of connection points: 2
#     Edge 28, Type (0, 0), BuildingBlock: KIFKEQ_clean_linker_1, # of connection points: 2
#     Edge 29, Type (0, 0), BuildingBlock: KIFKEQ_clean_linker_1, # of connection points: 2
#     Edge 30, Type (0, 0), BuildingBlock: KIFKEQ_clean_linker_1, # of connection points: 2
#     Edge 31, Type (0, 0), BuildingBlock: KIFKEQ_clean_linker_1, # of connection points: 2
#     Edge 32, Type (0, 0), BuildingBlock: KIFKEQ_clean_linker_1, # of connection points: 2
#     Edge 33, Type (0, 0), BuildingBlock: KIFKEQ_clean_linker_1, # of connection points: 2
#     Edge 34, Type (0, 0), BuildingBlock: KIFKEQ_clean_linker_1, # of connection points: 2
#     Edge 35, Type (0, 0), BuildingBlock: KIFKEQ_clean_linker_1, # of connection points: 2
#     Edge 36, Type (0, 0), BuildingBlock: KIFKEQ_clean_linker_1, # of connection points: 2
#     Edge 37, Type (0, 0), BuildingBlock: KIFKEQ_clean_linker_1, # of connection points: 2
#     Edge 38, Type (0, 0), BuildingBlock: KIFKEQ_clean_linker_1, # of connection points: 2
#     Edge 39, Type (0, 0), BuildingBlock: KIFKEQ_clean_linker_1, # of connection points: 2
#     Edge 40, Type (0, 0), BuildingBlock: KIFKEQ_clean_linker_1, # of connection points: 2
#     Edge 41, Type (0, 0), BuildingBlock: KIFKEQ_clean_linker_1, # of connection points: 2
#     Edge 42, Type (0, 0), BuildingBlock: KIFKEQ_clean_linker_1, # of connection points: 2
#     Edge 43, Type (0, 0), BuildingBlock: KIFKEQ_clean_linker_1, # of connection points: 2
#     Edge 44, Type (0, 0), BuildingBlock: KIFKEQ_clean_linker_1, # of connection points: 2
#     Edge 45, Type (0, 0), BuildingBlock: KIFKEQ_clean_linker_1, # of connection points: 2
#     Edge 46, Type (0, 0), BuildingBlock: KIFKEQ_clean_linker_1, # of connection points: 2
#     Edge 47, Type (0, 0), BuildingBlock: KIFKEQ_clean_linker_1, # of connection points: 2
# Relax obj value: 0.058
# Max RMSD: 0.214
# Mean RMSD: 0.214
data_MOF--net-umd--node1-KOZSID_clean_sbu_0--edge1-KIFKEQ_clean_linker_1
_symmetry_space_group_name_H-M    P1
_symmetry_Int_Tables_number       1
_symmetry_cell_setting            triclinic
loop_
_symmetry_equiv_pos_as_xyz
'x, y, z'
_cell_length_a     54.512589
_cell_length_b     54.43495
_cell_length_c     63.565401
_cell_angle_alpha  90.081084
_cell_angle_beta   90.056259
_cell_angle_gamma 90.019569
loop_
_atom_site_label
_atom_site_type_symbol
_atom_site_fract_x
_atom_site_fract_y
_atom_site_fract_z
_atom_type_partial_charge
C0 C 0.1693 0.43888 0.18742 0.0
C1 C 0.16199 0.42315 0.20336 0.0
C2 C 0.15859 0.40044 0.19426 0.0
C3 C 0.16406 0.40348 0.1733 0.0
N4 N 0.17058 0.42668 0.16871 0.0
Co5 Co 0.1796 0.43889 0.14028 0.0
N6 N 0.16418 0.41046 0.12573 0.0
C7 C 0.15813 0.38908 0.13499 0.0
C8 C 0.14778 0.37264 0.12116 0.0
C9 C 0.1476 0.38433 0.10201 0.0
C10 C 0.15806 0.4073 0.10511 0.0
N11 N 0.18871 0.45161 0.11204 0.0
C12 C 0.18063 0.44514 0.09259 0.0
C13 C 0.19321 0.45805 0.07712 0.0
C14 C 0.20962 0.47299 0.08723 0.0
C15 C 0.20632 0.46837 0.10823 0.0
N16 N 0.19526 0.46726 0.15473 0.0
C17 C 0.2121 0.48237 0.14626 0.0
C18 C 0.21949 0.50063 0.15975 0.0
C19 C 0.20657 0.49674 0.17791 0.0
C20 C 0.19206 0.47613 0.17452 0.0
N21 N 0.21093 0.42001 0.1416 0.0
C22 C 0.25158 0.3873 0.14413 0.0
C23 C 0.23931 0.39155 0.12506 0.0
C24 C 0.21913 0.40761 0.12417 0.0
C25 C 0.2434 0.40052 0.16182 0.0
C26 C 0.22342 0.41698 0.16017 0.0
N27 N 0.14797 0.45665 0.13897 0.0
C28 C 0.12314 0.49245 0.13118 0.0
C29 C 0.10163 0.48018 0.13757 0.0
C30 C 0.10407 0.45585 0.14441 0.0
C31 C 0.12708 0.44455 0.14491 0.0
C32 C 0.14611 0.48043 0.13214 0.0
H33 H 0.12781 0.42579 0.15012 0.0
H34 H 0.16235 0.49033 0.12737 0.0
H35 H 0.20971 0.40929 0.10935 0.0
H36 H 0.2177 0.42677 0.1741 0.0
C37 C 0.15914 0.38666 0.15702 0.0
C38 C 0.1766 0.46474 0.19076 0.0
C39 C 0.16337 0.425 0.08805 0.0
C40 C 0.21703 0.48155 0.12472 0.0
H41 H 0.15945 0.42763 0.2198 0.0
H42 H 0.15195 0.38397 0.20188 0.0
H43 H 0.14049 0.35462 0.12469 0.0
H44 H 0.14067 0.37671 0.08744 0.0
H45 H 0.19128 0.45643 0.06023 0.0
H46 H 0.22215 0.48598 0.08012 0.0
H47 H 0.23191 0.51565 0.15647 0.0
H48 H 0.20772 0.5079 0.19197 0.0
H49 H 0.2447 0.3818 0.11093 0.0
H50 H 0.25239 0.39822 0.17689 0.0
H51 H 0.12231 0.5113 0.12582 0.0
H52 H 0.08815 0.4453 0.14911 0.0
C53 C 0.58646 0.17069 0.68755 0.0
C54 C 0.59822 0.15681 0.7028 0.0
C55 C 0.615 0.14246 0.69255 0.0
C56 C 0.61265 0.14838 0.67168 0.0
N57 N 0.59578 0.16597 0.668 0.0
Co58 Co 0.58573 0.17811 0.63944 0.0
N59 N 0.61308 0.16026 0.62482 0.0
C60 C 0.62774 0.14326 0.63369 0.0
C61 C 0.64428 0.13316 0.61991 0.0
C62 C 0.63962 0.14418 0.60098 0.0
C63 C 0.62046 0.16048 0.60429 0.0
N64 N 0.57533 0.19019 0.61101 0.0
C65 C 0.58636 0.1884 0.59188 0.0
C66 C 0.5729 0.20042 0.57644 0.0
C67 C 0.55243 0.20947 0.58597 0.0
C68 C 0.55462 0.20272 0.60663 0.0
N69 N 0.55823 0.19599 0.65392 0.0
C70 C 0.53953 0.20767 0.64427 0.0
C71 C 0.5229 0.21795 0.65778 0.0
C72 C 0.53122 0.21219 0.67736 0.0
C73 C 0.55263 0.19867 0.67469 0.0
N74 N 0.60765 0.20733 0.64274 0.0
C75 C 0.6412 0.24774 0.64468 0.0
C76 C 0.61652 0.25086 0.63848 0.0
C77 C 0.60022 0.23063 0.63761 0.0
C78 C 0.64823 0.22373 0.6502 0.0
C79 C 0.63141 0.20415 0.64926 0.0
N80 N 0.56474 0.14835 0.63613 0.0
C81 C 0.54097 0.11583 0.65232 0.0
C82 C 0.54394 0.10048 0.63472 0.0
C83 C 0.556 0.11057 0.61721 0.0
C84 C 0.56594 0.13441 0.61817 0.0
C85 C 0.55128 0.13949 0.65266 0.0
H86 H 0.5755 0.14098 0.60454 0.0
H87 H 0.54896 0.15012 0.66672 0.0
H88 H 0.58167 0.23395 0.63257 0.0
H89 H 0.63804 0.18628 0.65353 0.0
C90 C 0.62633 0.13834 0.65521 0.0
C91 C 0.56503 0.18627 0.69223 0.0
C92 C 0.60814 0.17365 0.58707 0.0
C93 C 0.53873 0.20976 0.62254 0.0
H94 H 0.59451 0.15656 0.71952 0.0
H95 H 0.62727 0.12909 0.69949 0.0
H96 H 0.65808 0.1194 0.62321 0.0
H97 H 0.64882 0.14022 0.58628 0.0
H98 H 0.57722 0.20211 0.55989 0.0
H99 H 0.53787 0.22005 0.57876 0.0
H100 H 0.50658 0.22829 0.65384 0.0
H101 H 0.522 0.21679 0.69189 0.0
H102 H 0.60962 0.26886 0.63438 0.0
H103 H 0.66692 0.2197 0.65477 0.0
H104 H 0.53101 0.10956 0.66603 0.0
H105 H 0.55874 0.09985 0.60306 0.0
C106 C 0.85663 0.58978 0.18644 0.0
C107 C 0.87103 0.60132 0.20152 0.0
C108 C 0.88499 0.61832 0.19118 0.0
C109 C 0.87848 0.61622 0.17042 0.0
N110 N 0.86087 0.59932 0.16686 0.0
Co111 Co 0.84854 0.58915 0.13831 0.0
N112 N 0.8666 0.61626 0.12352 0.0
C113 C 0.88353 0.63106 0.13236 0.0
C114 C 0.89377 0.64741 0.1185 0.0
C115 C 0.88292 0.64247 0.09954 0.0
C116 C 0.86658 0.62335 0.10292 0.0
N117 N 0.83629 0.57858 0.10993 0.0
C118 C 0.8385 0.58923 0.09067 0.0
C119 C 0.82617 0.57585 0.07533 0.0
C120 C 0.81641 0.55584 0.08506 0.0
C121 C 0.82309 0.55819 0.10574 0.0
N122 N 0.83034 0.562 0.15295 0.0
C123 C 0.81737 0.54396 0.14354 0.0
C124 C 0.80588 0.5284 0.15728 0.0
C125 C 0.81228 0.53668 0.17676 0.0
C126 C 0.82766 0.55671 0.17376 0.0
N127 N 0.81954 0.61146 0.14149 0.0
C128 C 0.77936 0.64531 0.14341 0.0
C129 C 0.7761 0.62062 0.13725 0.0
C130 C 0.79619 0.6042 0.13637 0.0
C131 C 0.8034 0.65224 0.14891 0.0
C132 C 0.82287 0.63526 0.14798 0.0
N133 N 0.87804 0.56777 0.1351 0.0
C134 C 0.91013 0.54341 0.15133 0.0
C135 C 0.9256 0.54632 0.13383 0.0
C136 C 0.91574 0.55862 0.11634 0.0
C137 C 0.89207 0.56886 0.11722 0.0
C138 C 0.88665 0.55405 0.15158 0.0
H139 H 0.8857 0.57852 0.10357 0.0
H140 H 0.87596 0.55169 0.16554 0.0
H141 H 0.79264 0.58568 0.13133 0.0
H142 H 0.84077 0.64181 0.15224 0.0
C143 C 0.88844 0.62981 0.15388 0.0
C144 C 0.84158 0.56792 0.19106 0.0
C145 C 0.85366 0.6107 0.08571 0.0
C146 C 0.81524 0.54289 0.12181 0.0
H147 H 0.87209 0.59726 0.21814 0.0
H148 H 0.89867 0.63039 0.19796 0.0
H149 H 0.90757 0.6612 0.12176 0.0
H150 H 0.88708 0.65142 0.08478 0.0
H151 H 0.82463 0.57999 0.05873 0.0
H152 H 0.80534 0.54152 0.07798 0.0
H153 H 0.79422 0.51288 0.15357 0.0
H154 H 0.80689 0.52841 0.19153 0.0
H155 H 0.75808 0.61376 0.13317 0.0
H156 H 0.80754 0.67093 0.15349 0.0
H157 H 0.91618 0.53325 0.165 0.0
H158 H 0.92654 0.56131 0.10225 0.0
C159 C 0.43505 0.85767 0.68697 0.0
C160 C 0.41944 0.86659 0.70243 0.0
C161 C 0.39694 0.87006 0.69307 0.0
C162 C 0.39995 0.86334 0.67239 0.0
N163 N 0.42297 0.85597 0.66821 0.0
Co164 Co 0.43558 0.84681 0.63992 0.0
N165 N 0.40801 0.86308 0.62493 0.0
C166 C 0.38663 0.86972 0.63383 0.0
C167 C 0.3709 0.88066 0.61978 0.0
C168 C 0.38306 0.88059 0.60084 0.0
C169 C 0.40559 0.86943 0.6043 0.0
N170 N 0.44862 0.83731 0.6119 0.0
C171 C 0.44284 0.84552 0.59236 0.0
C172 C 0.45558 0.83237 0.5771 0.0
C173 C 0.46964 0.81542 0.58746 0.0
C174 C 0.46472 0.81899 0.60838 0.0
N175 N 0.46315 0.8305 0.65474 0.0
C176 C 0.47743 0.81269 0.64668 0.0
C177 C 0.49461 0.8042 0.66069 0.0
C178 C 0.49088 0.8175 0.67873 0.0
C179 C 0.47166 0.83355 0.67465 0.0
N180 N 0.41594 0.81588 0.64079 0.0
C181 C 0.38282 0.77519 0.64265 0.0
C182 C 0.38581 0.78925 0.62425 0.0
C183 C 0.4024 0.80901 0.62359 0.0
C184 C 0.3976 0.78194 0.66001 0.0
C185 C 0.41383 0.8022 0.65878 0.0
N186 N 0.4541 0.87808 0.63902 0.0
C187 C 0.49037 0.90231 0.63153 0.0
C188 C 0.47845 0.92404 0.63794 0.0
C189 C 0.45409 0.92202 0.64464 0.0
C190 C 0.44237 0.8992 0.64497 0.0
C191 C 0.47794 0.8795 0.63234 0.0
H192 H 0.42358 0.89885 0.65003 0.0
H193 H 0.48754 0.86306 0.62756 0.0
H194 H 0.40362 0.8192 0.60912 0.0
H195 H 0.42437 0.80705 0.67257 0.0
C196 C 0.38371 0.86876 0.65581 0.0
C197 C 0.46088 0.85007 0.69049 0.0
C198 C 0.42346 0.8635 0.58751 0.0
C199 C 0.47693 0.80765 0.62512 0.0
H200 H 0.4238 0.87067 0.71865 0.0
H201 H 0.38077 0.87799 0.70024 0.0
H202 H 0.35306 0.8885 0.62303 0.0
H203 H 0.37603 0.8878 0.58618 0.0
H204 H 0.45437 0.83428 0.56019 0.0
H205 H 0.4822 0.80231 0.58055 0.0
H206 H 0.50875 0.79063 0.65791 0.0
H207 H 0.50103 0.81546 0.69326 0.0
H208 H 0.37491 0.78566 0.61036 0.0
H209 H 0.39674 0.77173 0.67457 0.0
H210 H 0.50924 0.90284 0.62625 0.0
H211 H 0.4438 0.93813 0.64935 0.0
C212 C 0.17089 0.59142 0.32991 0.0
C213 C 0.16352 0.60736 0.31413 0.0
C214 C 0.1602 0.62996 0.32347 0.0
C215 C 0.16577 0.62665 0.34439 0.0
N216 N 0.17229 0.60339 0.34872 0.0
Co217 Co 0.18127 0.59071 0.37701 0.0
N218 N 0.16575 0.61882 0.39186 0.0
C219 C 0.15974 0.64037 0.38287 0.0
C220 C 0.14936 0.65654 0.39688 0.0
C221 C 0.14913 0.6445 0.41588 0.0
C222 C 0.15957 0.62159 0.41249 0.0
N223 N 0.19032 0.57749 0.40509 0.0
C224 C 0.18211 0.58353 0.42458 0.0
C225 C 0.19465 0.57035 0.43993 0.0
C226 C 0.21117 0.55569 0.42969 0.0
C227 C 0.20798 0.56073 0.40874 0.0
N228 N 0.19703 0.56267 0.36224 0.0
C229 C 0.21394 0.5475 0.37054 0.0
C230 C 0.22133 0.52947 0.35685 0.0
C231 C 0.20831 0.53356 0.33875 0.0
C232 C 0.19374 0.55406 0.34238 0.0
N233 N 0.21256 0.60977 0.37607 0.0
C234 C 0.25268 0.64357 0.37418 0.0
C235 C 0.24045 0.63832 0.39315 0.0
C236 C 0.2206 0.62183 0.39371 0.0
C237 C 0.24483 0.63022 0.35632 0.0
C238 C 0.2251 0.61337 0.35764 0.0
N239 N 0.14966 0.57285 0.37796 0.0
C240 C 0.1248 0.53693 0.3853 0.0
C241 C 0.10331 0.5493 0.37899 0.0
C242 C 0.10577 0.57372 0.37242 0.0
C243 C 0.12878 0.58503 0.3721 0.0
C244 C 0.14779 0.54896 0.38452 0.0
H245 H 0.12952 0.60387 0.36711 0.0
H246 H 0.16402 0.539 0.38923 0.0
H247 H 0.21132 0.61951 0.40852 0.0
H248 H 0.2195 0.60386 0.34351 0.0
C249 C 0.1608 0.64318 0.36087 0.0
C250 C 0.17804 0.56557 0.32635 0.0
C251 C 0.16481 0.60355 0.42932 0.0
C252 C 0.21882 0.54793 0.39211 0.0
H253 H 0.16086 0.60308 0.29766 0.0
H254 H 0.1535 0.64652 0.31602 0.0
H255 H 0.14209 0.67463 0.39358 0.0
H256 H 0.14218 0.65184 0.43053 0.0
H257 H 0.19261 0.57161 0.45683 0.0
H258 H 0.2237 0.5426 0.43667 0.0
H259 H 0.23377 0.51441 0.35996 0.0
H260 H 0.20939 0.52259 0.32458 0.0
H261 H 0.24587 0.647 0.40774 0.0
H262 H 0.25325 0.63318 0.34114 0.0
H263 H 0.12395 0.51801 0.39047 0.0
H264 H 0.08987 0.58434 0.36779 0.0
C265 C 0.43786 0.17144 0.82991 0.0
C266 C 0.42604 0.1575 0.8147 0.0
C267 C 0.40929 0.14319 0.82501 0.0
C268 C 0.41173 0.14921 0.84588 0.0
N269 N 0.42862 0.16681 0.8495 0.0
Co270 Co 0.43883 0.17903 0.87803 0.0
N271 N 0.41167 0.16107 0.89278 0.0
C272 C 0.39693 0.14408 0.88394 0.0
C273 C 0.38056 0.13388 0.8978 0.0
C274 C 0.38543 0.14482 0.91675 0.0
C275 C 0.40453 0.16116 0.91337 0.0
N276 N 0.44942 0.19117 0.90643 0.0
C277 C 0.43865 0.1892 0.92564 0.0
C278 C 0.45217 0.2013 0.94103 0.0
C279 C 0.47243 0.2106 0.93137 0.0
C280 C 0.47006 0.20391 0.91069 0.0
N281 N 0.46614 0.19706 0.86342 0.0
C282 C 0.48478 0.20897 0.87297 0.0
C283 C 0.50126 0.21932 0.85938 0.0
C284 C 0.4929 0.21338 0.83984 0.0
C285 C 0.47162 0.19967 0.84261 0.0
N286 N 0.41674 0.20818 0.87491 0.0
C287 C 0.38302 0.24849 0.87313 0.0
C288 C 0.40769 0.25169 0.87932 0.0
C289 C 0.42408 0.23152 0.8801 0.0
C290 C 0.37607 0.22445 0.86755 0.0
C291 C 0.39297 0.20493 0.86842 0.0
N292 N 0.45999 0.14935 0.88115 0.0
C293 C 0.48393 0.11703 0.86476 0.0
C294 C 0.48108 0.10157 0.88229 0.0
C295 C 0.469 0.11155 0.89985 0.0
C296 C 0.45892 0.13533 0.89903 0.0
C297 C 0.47346 0.14062 0.86455 0.0
H298 H 0.44939 0.1418 0.91273 0.0
H299 H 0.4757 0.1513 0.85054 0.0
H300 H 0.44263 0.23494 0.88511 0.0
H301 H 0.38638 0.18703 0.86411 0.0
C302 C 0.39817 0.13918 0.8624 0.0
C303 C 0.45927 0.18702 0.82515 0.0
C304 C 0.41705 0.17424 0.93058 0.0
C305 C 0.48574 0.2111 0.89469 0.0
H306 H 0.42969 0.15717 0.79797 0.0
H307 H 0.39701 0.12977 0.81813 0.0
H308 H 0.36676 0.12009 0.89454 0.0
H309 H 0.37642 0.14075 0.93151 0.0
H310 H 0.44804 0.20288 0.95763 0.0
H311 H 0.48699 0.22129 0.9385 0.0
H312 H 0.51753 0.22982 0.86324 0.0
H313 H 0.50201 0.21796 0.82527 0.0
H314 H 0.41454 0.26972 0.88348 0.0
H315 H 0.35739 0.22036 0.86297 0.0
H316 H 0.49391 0.11089 0.85101 0.0
H317 H 0.46634 0.10077 0.91396 0.0
C318 C 0.85823 0.44114 0.32896 0.0
C319 C 0.87289 0.42996 0.31389 0.0
C320 C 0.88706 0.41311 0.3242 0.0
C321 C 0.88042 0.41493 0.34494 0.0
N322 N 0.86252 0.43151 0.34849 0.0
Co323 Co 0.84994 0.44127 0.37705 0.0
N324 N 0.86802 0.4141 0.39172 0.0
C325 C 0.88508 0.39949 0.38287 0.0
C326 C 0.89522 0.38298 0.39665 0.0
C327 C 0.88415 0.38759 0.41556 0.0
C328 C 0.86779 0.4067 0.41224 0.0
N329 N 0.83755 0.45152 0.40545 0.0
C330 C 0.83966 0.44067 0.42463 0.0
C331 C 0.8273 0.45391 0.44002 0.0
C332 C 0.81762 0.47404 0.4304 0.0
C333 C 0.82439 0.4719 0.40974 0.0
N334 N 0.83159 0.46839 0.36251 0.0
C335 C 0.81843 0.48622 0.37198 0.0
C336 C 0.80678 0.50173 0.35829 0.0
C337 C 0.81325 0.49364 0.33879 0.0
C338 C 0.82884 0.47376 0.34172 0.0
N339 N 0.82114 0.4188 0.37359 0.0
C340 C 0.78167 0.38421 0.37179 0.0
C341 C 0.77812 0.40849 0.3789 0.0
C342 C 0.79788 0.42534 0.37964 0.0
C343 C 0.80546 0.37818 0.36501 0.0
C344 C 0.82463 0.39545 0.36605 0.0
N345 N 0.87929 0.46279 0.38055 0.0
C346 C 0.9114 0.48729 0.36457 0.0
C347 C 0.9269 0.4841 0.38204 0.0
C348 C 0.91703 0.47163 0.39942 0.0
C349 C 0.89333 0.46145 0.39844 0.0
C350 C 0.88788 0.47673 0.36421 0.0
H351 H 0.88695 0.45161 0.41199 0.0
H352 H 0.87715 0.47927 0.35026 0.0
H353 H 0.79423 0.4435 0.38549 0.0
H354 H 0.84243 0.38951 0.36097 0.0
C355 C 0.89028 0.40116 0.36143 0.0
C356 C 0.84284 0.46277 0.32438 0.0
C357 C 0.85465 0.41905 0.42947 0.0
C358 C 0.81637 0.48719 0.39371 0.0
H359 H 0.87394 0.43416 0.2973 0.0
H360 H 0.90091 0.40127 0.31742 0.0
H361 H 0.9091 0.36929 0.39337 0.0
H362 H 0.88817 0.37843 0.43027 0.0
H363 H 0.82564 0.44958 0.45658 0.0
H364 H 0.8065 0.48826 0.43753 0.0
H365 H 0.79498 0.51711 0.36206 0.0
H366 H 0.80776 0.50193 0.32405 0.0
H367 H 0.7603 0.4144 0.38444 0.0
H368 H 0.80947 0.36009 0.35882 0.0
H369 H 0.91747 0.4976 0.35098 0.0
H370 H 0.92785 0.46872 0.41348 0.0
C371 C 0.58994 0.85912 0.82852 0.0
C372 C 0.60559 0.86814 0.81316 0.0
C373 C 0.62809 0.87146 0.82256 0.0
C374 C 0.62503 0.86456 0.84318 0.0
N375 N 0.60197 0.85724 0.84729 0.0
Co376 Co 0.58936 0.8477 0.8755 0.0
N377 N 0.61719 0.86335 0.89065 0.0
C378 C 0.63862 0.86989 0.88178 0.0
C379 C 0.65458 0.88033 0.89594 0.0
C380 C 0.64253 0.88004 0.91492 0.0
C381 C 0.61983 0.86924 0.91137 0.0
N382 N 0.57618 0.83806 0.90344 0.0
C383 C 0.58203 0.84603 0.92307 0.0
C384 C 0.56903 0.83297 0.9382 0.0
C385 C 0.55473 0.81633 0.92767 0.0
C386 C 0.55977 0.81998 0.90679 0.0
N387 N 0.56164 0.83177 0.8605 0.0
C388 C 0.5472 0.81401 0.86842 0.0
C389 C 0.53009 0.8056 0.85429 0.0
C390 C 0.53402 0.8189 0.83633 0.0
C391 C 0.55328 0.83487 0.84056 0.0
N392 N 0.60868 0.81659 0.8742 0.0
C393 C 0.64146 0.77592 0.87196 0.0
C394 C 0.63682 0.78812 0.89101 0.0
C395 C 0.62073 0.8083 0.89177 0.0
C396 C 0.62866 0.78428 0.8541 0.0
C397 C 0.61219 0.80428 0.8556 0.0
N398 N 0.57116 0.87914 0.87681 0.0
C399 C 0.53495 0.90351 0.88424 0.0
C400 C 0.5471 0.92526 0.87825 0.0
C401 C 0.57157 0.92317 0.8718 0.0
C402 C 0.58313 0.90028 0.87129 0.0
C403 C 0.54723 0.88064 0.88326 0.0
H404 H 0.60198 0.89986 0.86641 0.0
H405 H 0.53743 0.86419 0.8877 0.0
H406 H 0.61868 0.81759 0.90662 0.0
H407 H 0.60273 0.81011 0.84154 0.0
C408 C 0.6414 0.86944 0.85978 0.0
C409 C 0.56417 0.85141 0.82484 0.0
C410 C 0.60188 0.86345 0.92812 0.0
C411 C 0.54753 0.80886 0.88995 0.0
H412 H 0.60127 0.87227 0.79695 0.0
H413 H 0.64433 0.87931 0.81545 0.0
H414 H 0.6725 0.88803 0.89275 0.0
H415 H 0.64971 0.88694 0.92966 0.0
H416 H 0.57026 0.83469 0.95512 0.0
H417 H 0.54196 0.80333 0.93445 0.0
H418 H 0.51587 0.79207 0.85695 0.0
H419 H 0.52395 0.8169 0.82174 0.0
H420 H 0.64624 0.78265 0.90527 0.0
H421 H 0.63128 0.77537 0.83902 0.0
H422 H 0.516 0.90408 0.88931 0.0
H423 H 0.58202 0.93929 0.86741 0.0
C424 C 0.83483 0.55224 0.84204 0.0
C425 C 0.82073 0.53124 0.83919 0.0
C426 C 0.80866 0.52718 0.85773 0.0
C427 C 0.81612 0.54573 0.8709 0.0
N428 N 0.83215 0.56125 0.86185 0.0
Co429 Co 0.84786 0.59007 0.87569 0.0
N430 N 0.83983 0.57758 0.90429 0.0
C431 C 0.82324 0.55996 0.90867 0.0
C432 C 0.82125 0.55503 0.92974 0.0
C433 C 0.83734 0.57073 0.93933 0.0
C434 C 0.84823 0.58455 0.9235 0.0
N435 N 0.86351 0.61889 0.88957 0.0
C436 C 0.86943 0.62284 0.91013 0.0
C437 C 0.87889 0.64629 0.91289 0.0
C438 C 0.87855 0.65741 0.8935 0.0
C439 C 0.86893 0.64022 0.87995 0.0
N440 N 0.85563 0.6021 0.84692 0.0
C441 C 0.86167 0.62533 0.84196 0.0
C442 C 0.86634 0.6282 0.82085 0.0
C443 C 0.86294 0.60535 0.81203 0.0
C444 C 0.85643 0.58972 0.82828 0.0
N445 N 0.81626 0.60856 0.87506 0.0
C446 C 0.77536 0.64136 0.87314 0.0
C447 C 0.78193 0.62629 0.85592 0.0
C448 C 0.80227 0.61017 0.85718 0.0
C449 C 0.78957 0.63866 0.89149 0.0
C450 C 0.80941 0.62223 0.89219 0.0
N451 N 0.87981 0.57271 0.87637 0.0
C452 C 0.92351 0.5738 0.86967 0.0
C453 C 0.92658 0.54995 0.87747 0.0
C454 C 0.90551 0.53772 0.88486 0.0
C455 C 0.88231 0.54931 0.88399 0.0
C456 C 0.9003 0.58479 0.86942 0.0
H457 H 0.86643 0.53938 0.88951 0.0
H458 H 0.8991 0.60329 0.86363 0.0
H459 H 0.807 0.59943 0.84348 0.0
H460 H 0.81975 0.62137 0.90659 0.0
C461 C 0.81227 0.54639 0.89257 0.0
C462 C 0.84956 0.56369 0.82535 0.0
C463 C 0.86406 0.60589 0.92763 0.0
C464 C 0.86704 0.64237 0.85795 0.0
H465 H 0.81938 0.51989 0.82526 0.0
H466 H 0.79686 0.5118 0.86149 0.0
H467 H 0.80984 0.54131 0.93722 0.0
H468 H 0.84028 0.57221 0.95612 0.0
H469 H 0.88489 0.65463 0.92748 0.0
H470 H 0.88487 0.67573 0.88971 0.0
H471 H 0.8725 0.64467 0.81292 0.0
H472 H 0.865 0.6007 0.79556 0.0
H473 H 0.77155 0.6269 0.84141 0.0
H474 H 0.7861 0.64976 0.90529 0.0
H475 H 0.93911 0.58424 0.86408 0.0
H476 H 0.90685 0.51921 0.89095 0.0
C477 C 0.47608 0.83668 0.34219 0.0
C478 C 0.49687 0.82245 0.33892 0.0
C479 C 0.50127 0.81014 0.35731 0.0
C480 C 0.4831 0.8176 0.37081 0.0
N481 N 0.46753 0.83385 0.36211 0.0
Co482 Co 0.43916 0.84954 0.37649 0.0
N483 N 0.45234 0.84134 0.40482 0.0
C484 C 0.46983 0.82451 0.40885 0.0
C485 C 0.47529 0.82243 0.42983 0.0
C486 C 0.4601 0.83876 0.43972 0.0
C487 C 0.44605 0.84988 0.42415 0.0
N488 N 0.41078 0.86509 0.39095 0.0
C489 C 0.40756 0.87123 0.41155 0.0
C490 C 0.38423 0.88065 0.41479 0.0
C491 C 0.37247 0.88011 0.39565 0.0
C492 C 0.38917 0.87039 0.38176 0.0
N493 N 0.42647 0.85756 0.34799 0.0
C494 C 0.40315 0.86361 0.34346 0.0
C495 C 0.39978 0.86848 0.32242 0.0
C496 C 0.42239 0.86519 0.31321 0.0
C497 C 0.4384 0.85854 0.32917 0.0
N498 N 0.42064 0.8179 0.37597 0.0
C499 C 0.38772 0.77703 0.37424 0.0
C500 C 0.40239 0.78373 0.35685 0.0
C501 C 0.41857 0.80405 0.35802 0.0
C502 C 0.39089 0.79107 0.39266 0.0
C503 C 0.40738 0.81092 0.39326 0.0
N504 N 0.45651 0.8815 0.37703 0.0
C505 C 0.45484 0.92543 0.37142 0.0
C506 C 0.47921 0.92841 0.37802 0.0
C507 C 0.49196 0.90707 0.38424 0.0
C508 C 0.48035 0.88385 0.38355 0.0
C509 C 0.44399 0.90215 0.37105 0.0
H510 H 0.49059 0.86783 0.38832 0.0
H511 H 0.4252 0.90101 0.36598 0.0
H512 H 0.42898 0.80891 0.34419 0.0
H513 H 0.40861 0.82117 0.40771 0.0
C514 C 0.4829 0.81353 0.39247 0.0
C515 C 0.46433 0.85165 0.32578 0.0
C516 C 0.42526 0.86627 0.42864 0.0
C517 C 0.38649 0.86871 0.35977 0.0
H518 H 0.50787 0.82115 0.3248 0.0
H519 H 0.51661 0.79818 0.36073 0.0
H520 H 0.48906 0.81086 0.43705 0.0
H521 H 0.45916 0.84175 0.45654 0.0
H522 H 0.37642 0.88685 0.42952 0.0
H523 H 0.35409 0.88648 0.39224 0.0
H524 H 0.38314 0.87467 0.31479 0.0
H525 H 0.42663 0.86738 0.29669 0.0
H526 H 0.40142 0.77349 0.34227 0.0
H527 H 0.38012 0.78748 0.40659 0.0
H528 H 0.44386 0.94112 0.36687 0.0
H529 H 0.51088 0.9082 0.38936 0.0
C530 C 0.19165 0.47423 0.84308 0.0
C531 C 0.20598 0.49499 0.83981 0.0
C532 C 0.21843 0.49926 0.85817 0.0
C533 C 0.21096 0.48109 0.87166 0.0
N534 N 0.19457 0.46561 0.86297 0.0
Co535 Co 0.1787 0.43735 0.87734 0.0
N536 N 0.18704 0.45052 0.90566 0.0
C537 C 0.20403 0.46788 0.9097 0.0
C538 C 0.20608 0.47343 0.93067 0.0
C539 C 0.18956 0.45844 0.94053 0.0
C540 C 0.17838 0.44439 0.92496 0.0
N541 N 0.16291 0.40911 0.89176 0.0
C542 C 0.15668 0.40602 0.91234 0.0
C543 C 0.14703 0.38276 0.9156 0.0
C544 C 0.1475 0.37091 0.89648 0.0
C545 C 0.15741 0.3875 0.88259 0.0
N546 N 0.17059 0.42466 0.84884 0.0
C547 C 0.16442 0.40133 0.84429 0.0
C548 C 0.15943 0.39801 0.82326 0.0
C549 C 0.16275 0.42066 0.81408 0.0
C550 C 0.16954 0.43664 0.83005 0.0
N551 N 0.21015 0.41852 0.8769 0.0
C552 C 0.25076 0.38529 0.87526 0.0
C553 C 0.24395 0.39975 0.85777 0.0
C554 C 0.22382 0.41614 0.85891 0.0
C555 C 0.23701 0.38883 0.89375 0.0
C556 C 0.2172 0.40539 0.89428 0.0
N557 N 0.14691 0.455 0.87781 0.0
C558 C 0.10319 0.45405 0.87115 0.0
C559 C 0.10034 0.47817 0.87841 0.0
C560 C 0.12152 0.49046 0.88556 0.0
C561 C 0.14463 0.47866 0.88494 0.0
C562 C 0.12629 0.44287 0.87114 0.0
H563 H 0.16062 0.48861 0.89025 0.0
H564 H 0.12732 0.42417 0.86575 0.0
H565 H 0.21895 0.42645 0.84502 0.0
H566 H 0.20705 0.4068 0.90874 0.0
C567 C 0.21509 0.48087 0.89333 0.0
C568 C 0.17645 0.4626 0.82673 0.0
C569 C 0.16177 0.42376 0.92941 0.0
C570 C 0.15913 0.38472 0.86061 0.0
H571 H 0.20721 0.50605 0.82573 0.0
H572 H 0.23047 0.51457 0.8616 0.0
H573 H 0.21772 0.48718 0.93789 0.0
H574 H 0.18647 0.45766 0.95734 0.0
H575 H 0.14073 0.37505 0.93032 0.0
H576 H 0.14097 0.35255 0.89307 0.0
H577 H 0.15308 0.38139 0.81563 0.0
H578 H 0.16046 0.42495 0.79757 0.0
H579 H 0.254 0.39845 0.84314 0.0
H580 H 0.24084 0.37824 0.90776 0.0
H581 H 0.08749 0.44356 0.86578 0.0
H582 H 0.12034 0.50917 0.89126 0.0
C583 C 0.55608 0.19375 0.34101 0.0
C584 C 0.53655 0.2094 0.33686 0.0
C585 C 0.53218 0.2223 0.35498 0.0
C586 C 0.54934 0.21402 0.3691 0.0
N587 N 0.56427 0.19677 0.36101 0.0
Co588 Co 0.59215 0.18103 0.37595 0.0
N589 N 0.57863 0.19009 0.40397 0.0
C590 C 0.56124 0.20719 0.40749 0.0
C591 C 0.55537 0.20975 0.42834 0.0
C592 C 0.57023 0.19351 0.4387 0.0
C593 C 0.58456 0.18201 0.42352 0.0
N594 N 0.6202 0.16564 0.39098 0.0
C595 C 0.62328 0.16034 0.41174 0.0
C596 C 0.64651 0.15084 0.41538 0.0
C597 C 0.65836 0.15046 0.39632 0.0
C598 C 0.64182 0.15976 0.38208 0.0
N599 N 0.60499 0.17198 0.34768 0.0
C600 C 0.62814 0.165 0.34352 0.0
C601 C 0.63129 0.15825 0.32286 0.0
C602 C 0.60875 0.16128 0.31347 0.0
C603 C 0.59298 0.16999 0.32889 0.0
N604 N 0.61112 0.2124 0.37514 0.0
C605 C 0.64516 0.25221 0.3735 0.0
C606 C 0.63167 0.24482 0.35561 0.0
C607 C 0.61478 0.22508 0.35677 0.0
C608 C 0.63995 0.23985 0.39237 0.0
C609 C 0.62316 0.22028 0.39285 0.0
N610 N 0.57439 0.1493 0.37687 0.0
C611 C 0.57592 0.1051 0.37294 0.0
C612 C 0.55143 0.10259 0.37926 0.0
C613 C 0.53847 0.12435 0.38395 0.0
C614 C 0.55028 0.14746 0.38273 0.0
C615 C 0.5869 0.12828 0.37186 0.0
H616 H 0.54003 0.16379 0.3867 0.0
H617 H 0.60576 0.12904 0.36701 0.0
H618 H 0.60531 0.21957 0.3426 0.0
H619 H 0.62068 0.21102 0.40763 0.0
C620 C 0.549 0.21841 0.39074 0.0
C621 C 0.5671 0.17731 0.32527 0.0
C622 C 0.60558 0.16612 0.42859 0.0
C623 C 0.6446 0.16037 0.36009 0.0
H624 H 0.52647 0.2113 0.32227 0.0
H625 H 0.51756 0.23534 0.35778 0.0
H626 H 0.54167 0.2217 0.43519 0.0
H627 H 0.57091 0.19097 0.45557 0.0
H628 H 0.65418 0.14517 0.43031 0.0
H629 H 0.67668 0.14375 0.39317 0.0
H630 H 0.64765 0.15069 0.31571 0.0
H631 H 0.6045 0.15716 0.29724 0.0
H632 H 0.63469 0.25359 0.34057 0.0
H633 H 0.649 0.24502 0.40688 0.0
H634 H 0.58671 0.08919 0.3686 0.0
H635 H 0.51951 0.12355 0.38894 0.0
C636 C 0.83342 0.47292 0.6743 0.0
C637 C 0.81925 0.49376 0.67764 0.0
C638 C 0.80683 0.49812 0.65929 0.0
C639 C 0.81414 0.47988 0.64577 0.0
N640 N 0.83039 0.46426 0.65442 0.0
Co641 Co 0.84587 0.43573 0.64004 0.0
N642 N 0.83752 0.44882 0.61171 0.0
C643 C 0.82088 0.46651 0.60771 0.0
C644 C 0.81872 0.47191 0.58674 0.0
C645 C 0.83475 0.45645 0.57681 0.0
C646 C 0.84577 0.44229 0.59236 0.0
N647 N 0.86117 0.40714 0.62562 0.0
C648 C 0.86691 0.40363 0.60498 0.0
C649 C 0.87619 0.3802 0.60179 0.0
C650 C 0.87594 0.36864 0.621 0.0
C651 C 0.86653 0.38556 0.63487 0.0
N652 N 0.85409 0.42317 0.66854 0.0
C653 C 0.86017 0.39986 0.67314 0.0
C654 C 0.86526 0.39664 0.69415 0.0
C655 C 0.86212 0.41937 0.70329 0.0
C656 C 0.85531 0.43527 0.6873 0.0
N657 N 0.81423 0.41726 0.64068 0.0
C658 C 0.77338 0.38441 0.64252 0.0
C659 C 0.78047 0.39879 0.66001 0.0
C660 C 0.80073 0.41501 0.65877 0.0
C661 C 0.78695 0.38784 0.62394 0.0
C662 C 0.80687 0.40423 0.62332 0.0
N663 N 0.87783 0.45305 0.63936 0.0
C664 C 0.92174 0.45144 0.64485 0.0
C665 C 0.92464 0.4759 0.63842 0.0
C666 C 0.90326 0.48866 0.63232 0.0
C667 C 0.88011 0.47696 0.63297 0.0
C668 C 0.89851 0.44052 0.64521 0.0
H669 H 0.86406 0.48724 0.62831 0.0
H670 H 0.89742 0.42168 0.65018 0.0
H671 H 0.80585 0.42527 0.67265 0.0
H672 H 0.81686 0.40556 0.60877 0.0
C673 C 0.81003 0.47969 0.6241 0.0
C674 C 0.8486 0.46127 0.69059 0.0
C675 C 0.86164 0.4211 0.58782 0.0
C676 C 0.86509 0.38304 0.65687 0.0
H677 H 0.8181 0.50479 0.69177 0.0
H678 H 0.79491 0.51352 0.65589 0.0
H679 H 0.80724 0.48578 0.57954 0.0
H680 H 0.83757 0.45537 0.55998 0.0
H681 H 0.88206 0.37218 0.58704 0.0
H682 H 0.88225 0.35023 0.62445 0.0
H683 H 0.87152 0.38004 0.70181 0.0
H684 H 0.86453 0.42376 0.71977 0.0
H685 H 0.77056 0.39755 0.67471 0.0
H686 H 0.7829 0.37729 0.60992 0.0
H687 H 0.93745 0.44045 0.6493 0.0
H688 H 0.90431 0.50763 0.62734 0.0
C689 C 0.55315 0.83597 0.174 0.0
C690 C 0.53252 0.82159 0.17754 0.0
C691 C 0.52803 0.80902 0.15927 0.0
C692 C 0.54599 0.81645 0.14558 0.0
N693 N 0.56153 0.83294 0.15405 0.0
Co694 Co 0.58965 0.84864 0.13937 0.0
N695 N 0.5762 0.84009 0.1112 0.0
C696 C 0.55876 0.82312 0.10739 0.0
C697 C 0.55301 0.82089 0.08647 0.0
C698 C 0.56795 0.83729 0.0764 0.0
C699 C 0.58216 0.84857 0.0918 0.0
N700 N 0.6178 0.86416 0.12462 0.0
C701 C 0.62073 0.87017 0.10398 0.0
C702 C 0.64398 0.87966 0.10049 0.0
C703 C 0.65599 0.87932 0.11952 0.0
C704 C 0.6395 0.86963 0.1336 0.0
N705 N 0.60258 0.85708 0.16772 0.0
C706 C 0.62591 0.86329 0.17206 0.0
C707 C 0.62944 0.86846 0.19304 0.0
C708 C 0.60692 0.86519 0.20241 0.0
C709 C 0.5908 0.85825 0.18661 0.0
N710 N 0.60838 0.81712 0.13991 0.0
C711 C 0.6418 0.77669 0.1416 0.0
C712 C 0.62757 0.78367 0.15918 0.0
C713 C 0.61107 0.80371 0.15801 0.0
C714 C 0.6379 0.79013 0.123 0.0
C715 C 0.62124 0.80985 0.12245 0.0
N716 N 0.57216 0.88052 0.13876 0.0
C717 C 0.57399 0.92462 0.14341 0.0
C718 C 0.54962 0.92744 0.13681 0.0
C719 C 0.53658 0.90589 0.13159 0.0
C720 C 0.54818 0.88268 0.1326 0.0
C721 C 0.58477 0.90133 0.14427 0.0
H722 H 0.53786 0.86652 0.12823 0.0
H723 H 0.60355 0.90031 0.14935 0.0
H724 H 0.60096 0.80876 0.17197 0.0
H725 H 0.61956 0.81979 0.1079 0.0
C726 C 0.54596 0.81217 0.12393 0.0
C727 C 0.56493 0.85129 0.19019 0.0
C728 C 0.60279 0.86508 0.08709 0.0
C729 C 0.64241 0.86825 0.15558 0.0
H730 H 0.52169 0.82039 0.19176 0.0
H731 H 0.51274 0.79689 0.15604 0.0
H732 H 0.53919 0.8092 0.07942 0.0
H733 H 0.56861 0.84021 0.05957 0.0
H734 H 0.65157 0.88581 0.08567 0.0
H735 H 0.67438 0.88583 0.12276 0.0
H736 H 0.64613 0.87482 0.20051 0.0
H737 H 0.60281 0.86758 0.21894 0.0
H738 H 0.62916 0.77384 0.1739 0.0
H739 H 0.64829 0.78616 0.10891 0.0
H740 H 0.58483 0.94036 0.14814 0.0
H741 H 0.5177 0.90693 0.12636 0.0
C742 C 0.18954 0.55152 0.6752 0.0
C743 C 0.20373 0.53076 0.67882 0.0
C744 C 0.21633 0.52616 0.66062 0.0
C745 C 0.20909 0.54419 0.64689 0.0
N746 N 0.19269 0.55987 0.65527 0.0
Co747 Co 0.17745 0.58824 0.64053 0.0
N748 N 0.18619 0.5748 0.61238 0.0
C749 C 0.20292 0.55712 0.60868 0.0
C750 C 0.20528 0.55141 0.58776 0.0
C751 C 0.18924 0.56663 0.57757 0.0
C752 C 0.17802 0.58096 0.59291 0.0
N753 N 0.16255 0.6167 0.62571 0.0
C754 C 0.157 0.61988 0.605 0.0
C755 C 0.14788 0.64331 0.60149 0.0
C756 C 0.14799 0.65518 0.6206 0.0
C757 C 0.15717 0.63843 0.63473 0.0
N758 N 0.16865 0.60109 0.66884 0.0
C759 C 0.16248 0.62446 0.67318 0.0
C760 C 0.15713 0.62796 0.69412 0.0
C761 C 0.16023 0.60538 0.70347 0.0
C762 C 0.16727 0.58926 0.68769 0.0
N763 N 0.20911 0.60667 0.64158 0.0
C764 C 0.24978 0.63952 0.64371 0.0
C765 C 0.24146 0.62677 0.66159 0.0
C766 C 0.22149 0.61024 0.66014 0.0
C767 C 0.23769 0.63461 0.62465 0.0
C768 C 0.21753 0.61848 0.62395 0.0
N769 N 0.14547 0.57099 0.63944 0.0
C770 C 0.10138 0.573 0.64356 0.0
C771 C 0.09856 0.54851 0.63716 0.0
C772 C 0.12009 0.53536 0.63224 0.0
C773 C 0.14329 0.54692 0.63341 0.0
C774 C 0.12468 0.58375 0.64458 0.0
H775 H 0.15943 0.53647 0.6293 0.0
H776 H 0.12573 0.60261 0.64955 0.0
H777 H 0.21565 0.60088 0.67424 0.0
H778 H 0.20827 0.61633 0.6091 0.0
C779 C 0.21355 0.54415 0.62528 0.0
C780 C 0.17428 0.56339 0.69133 0.0
C781 C 0.162 0.60194 0.5881 0.0
C782 C 0.15807 0.64115 0.65674 0.0
H783 H 0.20481 0.51993 0.69305 0.0
H784 H 0.22836 0.51078 0.65746 0.0
H785 H 0.21685 0.53745 0.58078 0.0
H786 H 0.18653 0.56743 0.56072 0.0
H787 H 0.1421 0.65109 0.58664 0.0
H788 H 0.14163 0.67363 0.62385 0.0
H789 H 0.15084 0.64469 0.70158 0.0
H790 H 0.15773 0.60125 0.71998 0.0
H791 H 0.25032 0.62952 0.67667 0.0
H792 H 0.24316 0.64394 0.61036 0.0
H793 H 0.08565 0.58395 0.64805 0.0
H794 H 0.11906 0.5164 0.62714 0.0
C795 C 0.47322 0.19296 0.17602 0.0
C796 C 0.49293 0.2085 0.1799 0.0
C797 C 0.49716 0.22117 0.16166 0.0
C798 C 0.47977 0.21285 0.14775 0.0
N799 N 0.4648 0.1958 0.15607 0.0
Co800 Co 0.43664 0.18006 0.14146 0.0
N801 N 0.4498 0.18883 0.11327 0.0
C802 C 0.46721 0.20584 0.10952 0.0
C803 C 0.47272 0.20832 0.0886 0.0
C804 C 0.45759 0.19214 0.07843 0.0
C805 C 0.44347 0.18074 0.09379 0.0
N806 N 0.40836 0.16451 0.12676 0.0
C807 C 0.405 0.159 0.10604 0.0
C808 C 0.38173 0.14943 0.10268 0.0
C809 C 0.37013 0.14924 0.12186 0.0
C810 C 0.38685 0.15871 0.13588 0.0
N811 N 0.42405 0.17146 0.1699 0.0
C812 C 0.40091 0.16463 0.17428 0.0
C813 C 0.39791 0.1582 0.19502 0.0
C814 C 0.42055 0.16127 0.20422 0.0
C815 C 0.43622 0.1697 0.18862 0.0
N816 N 0.41788 0.21152 0.14227 0.0
C817 C 0.38519 0.25252 0.14408 0.0
C818 C 0.39967 0.24554 0.16153 0.0
C819 C 0.41572 0.22514 0.16033 0.0
C820 C 0.38836 0.2386 0.1256 0.0
C821 C 0.40475 0.21872 0.12496 0.0
N822 N 0.45427 0.14825 0.1406 0.0
C823 C 0.45294 0.10422 0.14565 0.0
C824 C 0.47743 0.10158 0.13934 0.0
C825 C 0.49007 0.12315 0.13352 0.0
C826 C 0.47822 0.14625 0.13434 0.0
C827 C 0.44187 0.12738 0.14617 0.0
H828 H 0.48838 0.16246 0.1299 0.0
H829 H 0.42301 0.12822 0.15104 0.0
H830 H 0.42601 0.22008 0.17419 0.0
H831 H 0.40603 0.20866 0.11043 0.0
C832 C 0.47979 0.21709 0.1261 0.0
C833 C 0.46219 0.17687 0.192 0.0
C834 C 0.42235 0.16487 0.08895 0.0
C835 C 0.3843 0.15971 0.15788 0.0
H836 H 0.50317 0.21052 0.19439 0.0
H837 H 0.51183 0.2341 0.15866 0.0
H838 H 0.48637 0.2202 0.08158 0.0
H839 H 0.45662 0.18955 0.06157 0.0
H840 H 0.37383 0.14367 0.08785 0.0
H841 H 0.35183 0.1426 0.12521 0.0
H842 H 0.3816 0.15078 0.20234 0.0
H843 H 0.42494 0.15734 0.22045 0.0
H844 H 0.39867 0.25565 0.17617 0.0
H845 H 0.3777 0.24236 0.11161 0.0
H846 H 0.44202 0.08836 0.14987 0.0
H847 H 0.50906 0.12228 0.12863 0.0
H848 H 0.08099 0.51014 0.10716 0.0
H849 H 0.06534 0.47709 0.16732 0.0
H850 H 0.03922 0.52685 0.10602 0.0
H851 H 0.02374 0.49318 0.166 0.0
H852 H 0.95768 0.54448 0.16739 0.0
H853 H 0.99993 0.53022 0.1682 0.0
H854 H 0.99634 0.514 0.10181 0.0
H855 H 0.95379 0.52797 0.10099 0.0
C856 C 0.06876 0.50658 0.12022 0.0
C857 C 0.07669 0.4921 0.13728 0.0
C858 C 0.04465 0.51594 0.11947 0.0
C859 C 0.02782 0.51137 0.13587 0.0
C860 C 0.03603 0.49737 0.15312 0.0
C861 C 0.05996 0.48789 0.15379 0.0
C862 C 0.96562 0.53757 0.15295 0.0
C863 C 0.95184 0.5373 0.13415 0.0
C864 C 0.99008 0.52943 0.15341 0.0
C865 C 1.00181 0.52081 0.13509 0.0
C866 C 0.98819 0.52077 0.11622 0.0
C867 C 0.96363 0.52882 0.11577 0.0
H868 H 0.50829 0.94468 0.60746 0.0
H869 H 0.47614 0.96005 0.66805 0.0
H870 H 0.52505 0.98652 0.60641 0.0
H871 H 0.49227 1.00169 0.66684 0.0
H872 H 0.54294 0.06814 0.66808 0.0
H873 H 0.52914 0.02567 0.66877 0.0
H874 H 0.51204 0.02944 0.60256 0.0
H875 H 0.52559 0.07221 0.60186 0.0
C876 C 0.50498 0.95685 0.62065 0.0
C877 C 0.49071 0.94885 0.63779 0.0
C878 C 0.51436 0.981 0.61995 0.0
C879 C 0.51001 0.99777 0.6365 0.0
C880 C 0.49628 0.98945 0.65385 0.0
C881 C 0.4868 0.9655 0.65446 0.0
C882 C 0.53594 0.06018 0.65365 0.0
C883 C 0.53528 0.07408 0.63495 0.0
C884 C 0.52807 0.0356 0.65405 0.0
C885 C 0.51931 0.02387 0.63574 0.0
C886 C 0.51893 0.0376 0.61695 0.0
C887 C 0.52672 0.06228 0.61657 0.0
H888 H 0.0671 0.55273 0.34916 0.0
H889 H 0.08254 0.51909 0.40913 0.0
H890 H 0.0254 0.53683 0.35029 0.0
H891 H 0.04067 0.50257 0.41009 0.0
H892 H 0.95525 0.50197 0.41502 0.0
H893 H 0.99791 0.51564 0.41433 0.0
H894 H 1.0013 0.50002 0.34783 0.0
H895 H 0.95893 0.48607 0.34851 0.0
C896 C 0.06165 0.54183 0.3626 0.0
C897 C 0.07834 0.53741 0.37912 0.0
C898 C 0.03766 0.53247 0.36317 0.0
C899 C 0.02937 0.51837 0.38031 0.0
C900 C 0.04617 0.51356 0.39672 0.0
C901 C 0.07034 0.52281 0.39607 0.0
C902 C 0.96507 0.50119 0.40024 0.0
C903 C 0.95319 0.49297 0.38178 0.0
C904 C 0.98969 0.50906 0.39986 0.0
C905 C 1.00328 0.5091 0.38101 0.0
C906 C 0.99147 0.50074 0.36261 0.0
C907 C 0.96695 0.49279 0.363 0.0
H908 H 0.51683 0.94566 0.90857 0.0
H909 H 0.5501 0.96165 0.84859 0.0
H910 H 0.50007 0.98749 0.90981 0.0
H911 H 0.53391 1.00327 0.84998 0.0
H912 H 0.48271 0.06943 0.84869 0.0
H913 H 0.49681 0.02708 0.8478 0.0
H914 H 0.51306 0.03049 0.91417 0.0
H915 H 0.49929 0.07317 0.91508 0.0
C916 C 0.5204 0.95796 0.89556 0.0
C917 C 0.53497 0.95014 0.87853 0.0
C918 C 0.51101 0.98211 0.89637 0.0
C919 C 0.51563 0.99904 0.88004 0.0
C920 C 0.52968 0.99091 0.8628 0.0
C921 C 0.5392 0.96696 0.86209 0.0
C922 C 0.4896 0.06144 0.86311 0.0
C923 C 0.48995 0.07523 0.88192 0.0
C924 C 0.49764 0.03692 0.8626 0.0
C925 C 0.50623 0.02511 0.88089 0.0
C926 C 0.50631 0.03871 0.89978 0.0
C927 C 0.49838 0.06334 0.90028 0.0
H928 H 0.9494 0.52393 0.90932 0.0
H929 H 0.96104 0.55004 0.84608 0.0
H930 H 0.99136 0.50745 0.90992 0.0
H931 H 1.00272 0.53371 0.84667 0.0
H932 H 0.06604 0.47751 0.84687 0.0
H933 H 0.02441 0.49398 0.84702 0.0
H934 H 0.03564 0.52177 0.90989 0.0
H935 H 0.07756 0.50515 0.90972 0.0
C936 C 0.96079 0.52599 0.89548 0.0
C937 C 0.9517 0.53838 0.87766 0.0
C938 C 0.98499 0.51677 0.8959 0.0
C939 C 1.00064 0.51925 0.87836 0.0
C940 C 0.99131 0.53126 0.86044 0.0
C941 C 0.96735 0.54077 0.86015 0.0
C942 C 0.05971 0.48717 0.86075 0.0
C943 C 0.07532 0.48993 0.87829 0.0
C944 C 0.03579 0.49676 0.86079 0.0
C945 C 0.02643 0.50922 0.87849 0.0
C946 C 0.04204 0.5121 0.89605 0.0
C947 C 0.06621 0.5028 0.89587 0.0
H948 H 0.57258 0.05964 0.3932 0.0
H949 H 0.50433 0.08787 0.36871 0.0
H950 H 0.55579 0.01825 0.39291 0.0
H951 H 0.48711 0.04638 0.36919 0.0
H952 H 0.473 0.96634 0.34983 0.0
H953 H 0.48939 1.00786 0.35126 0.0
H954 H 0.52796 0.99002 0.40858 0.0
H955 H 0.5115 0.94828 0.40712 0.0
C956 C 0.55391 0.0571 0.38778 0.0
C957 C 0.54001 0.07737 0.38074 0.0
C958 C 0.54413 0.03321 0.38786 0.0
C959 C 0.52002 0.02859 0.38092 0.0
C960 C 0.50587 0.04894 0.37435 0.0
C961 C 0.51567 0.07291 0.37431 0.0
C962 C 0.48482 0.97121 0.36289 0.0
C963 C 0.49068 0.95368 0.37844 0.0
C964 C 0.49423 0.99523 0.36373 0.0
C965 C 0.50994 1.00272 0.38014 0.0
C966 C 0.51615 0.98509 0.39554 0.0
C967 C 0.50671 0.961 0.39469 0.0
H968 H 0.96275 0.46946 0.66643 0.0
H969 H 0.94419 0.50876 0.60968 0.0
H970 H 1.00412 0.48608 0.6651 0.0
H971 H 0.98577 0.52548 0.60834 0.0
H972 H 0.05545 0.57002 0.62394 0.0
H973 H 0.01409 0.55323 0.62428 0.0
H974 H 0.04242 0.48411 0.64697 0.0
H975 H 0.08384 0.50131 0.64739 0.0
C976 C 0.96747 0.4815 0.65351 0.0
C977 C 0.94984 0.48749 0.63807 0.0
C978 C 0.99141 0.49106 0.65273 0.0
C979 C 0.99872 0.50707 0.63651 0.0
C980 C 0.98099 0.51344 0.62124 0.0
C981 C 0.95697 0.50384 0.62201 0.0
C982 C 0.05296 0.55127 0.62916 0.0
C983 C 0.07327 0.53722 0.63586 0.0
C984 C 0.02908 0.54148 0.62911 0.0
C985 C 0.02454 0.51723 0.63576 0.0
C986 C 0.04491 0.50297 0.64204 0.0
C987 C 0.06886 0.51276 0.64203 0.0
H988 H 0.51034 0.08234 0.11048 0.0
H989 H 0.47111 0.06327 0.16709 0.0
H990 H 0.52696 0.04067 0.10876 0.0
H991 H 0.48761 0.02183 0.16539 0.0
H992 H 0.50245 0.94215 0.14695 0.0
H993 H 0.4854 0.98369 0.14682 0.0
H994 H 0.55458 1.01207 0.12449 0.0
H995 H 0.57123 0.97062 0.12388 0.0
C996 C 0.50542 0.06942 0.12271 0.0
C997 C 0.48911 0.07642 0.13882 0.0
C998 C 0.51495 0.04536 0.12171 0.0
C999 C 0.50854 0.02747 0.13682 0.0
C1000 C 0.4926 0.03467 0.15313 0.0
C1001 C 0.48312 0.05865 0.15413 0.0
C1002 C 0.51395 0.95718 0.14173 0.0
C1003 C 0.53837 0.95276 0.13559 0.0
C1004 C 0.50424 0.98118 0.14191 0.0
C1005 C 0.51857 1.0016 0.13583 0.0
C1006 C 0.54279 0.99704 0.12917 0.0
C1007 C 0.55248 0.97312 0.12906 0.0
H1008 H 0.13857 0.53988 0.31078 0.0
H1009 H 0.21182 0.56254 0.29464 0.0
H1010 H 0.1366 0.51471 0.27862 0.0
H1011 H 0.21013 0.53737 0.26268 0.0
H1012 H 0.21109 0.46794 0.22194 0.0
H1013 H 0.21008 0.49314 0.25389 0.0
H1014 H 0.13614 0.51559 0.23905 0.0
H1015 H 0.13743 0.49038 0.20689 0.0
C1016 C 0.15407 0.53982 0.30013 0.0
C1017 C 0.1753 0.55329 0.3052 0.0
C1018 C 0.15301 0.52532 0.28172 0.0
C1019 C 0.17333 0.52361 0.26804 0.0
C1020 C 0.19426 0.53778 0.27291 0.0
C1021 C 0.19517 0.55248 0.29111 0.0
C1022 C 0.1945 0.47798 0.2257 0.0
C1023 C 0.17432 0.4771 0.21192 0.0
C1024 C 0.19398 0.49269 0.24391 0.0
C1025 C 0.17313 0.50681 0.24908 0.0
C1026 C 0.15251 0.50502 0.23571 0.0
C1027 C 0.15318 0.4905 0.2173 0.0
H1028 H 0.53965 0.1472 0.70864 0.0
H1029 H 0.55962 0.22205 0.72236 0.0
H1030 H 0.51325 0.14637 0.73984 0.0
H1031 H 0.53346 0.22139 0.75369 0.0
H1032 H 0.46461 0.2224 0.79474 0.0
H1033 H 0.49078 0.22139 0.76343 0.0
H1034 H 0.51117 0.14663 0.77785 0.0
H1035 H 0.48475 0.14781 0.80904 0.0
C1036 C 0.53878 0.16332 0.71862 0.0
C1037 C 0.5519 0.18463 0.7131 0.0
C1038 C 0.52356 0.16292 0.73653 0.0
C1039 C 0.52081 0.1839 0.7494 0.0
C1040 C 0.53459 0.20498 0.7441 0.0
C1041 C 0.5499 0.20531 0.72627 0.0
C1042 C 0.47438 0.20564 0.79097 0.0
C1043 C 0.47243 0.18514 0.80429 0.0
C1044 C 0.4897 0.20511 0.77315 0.0
C1045 C 0.50352 0.18401 0.76801 0.0
C1046 C 0.50083 0.16319 0.78104 0.0
C1047 C 0.48559 0.1638 0.79894 0.0
H1048 H 0.86064 0.52167 0.1956 0.0
H1049 H 0.82962 0.58091 0.23187 0.0
H1050 H 0.86229 0.49597 0.22715 0.0
H1051 H 0.83187 0.55541 0.26371 0.0
H1052 H 0.86128 0.50927 0.31975 0.0
H1053 H 0.86231 0.53497 0.28817 0.0
H1054 H 0.83237 0.47508 0.25178 0.0
H1055 H 0.83075 0.44957 0.28365 0.0
C1056 C 0.85439 0.5293 0.2104 0.0
C1057 C 0.84498 0.55341 0.21116 0.0
C1058 C 0.85522 0.51449 0.2285 0.0
C1059 C 0.84709 0.52344 0.24808 0.0
C1060 C 0.83843 0.54787 0.24898 0.0
C1061 C 0.8372 0.56256 0.23074 0.0
C1062 C 0.85501 0.50154 0.30497 0.0
C1063 C 0.84589 0.47731 0.30427 0.0
C1064 C 0.85548 0.51635 0.28687 0.0
C1065 C 0.84729 0.50728 0.26733 0.0
C1066 C 0.83896 0.48272 0.26648 0.0
C1067 C 0.83808 0.46803 0.28472 0.0
H1068 H 0.51879 0.87183 0.81966 0.0
H1069 H 0.57726 0.83855 0.78408 0.0
H1070 H 0.49336 0.87349 0.78782 0.0
H1071 H 0.55233 0.8413 0.75205 0.0
H1072 H 0.50632 0.87055 0.69529 0.0
H1073 H 0.53186 0.87295 0.72705 0.0
H1074 H 0.47318 0.84107 0.76333 0.0
H1075 H 0.44817 0.83756 0.7314 0.0
C1076 C 0.52648 0.86547 0.80492 0.0
C1077 C 0.55043 0.85572 0.80445 0.0
C1078 C 0.51181 0.86625 0.78668 0.0
C1079 C 0.52073 0.85763 0.76723 0.0
C1080 C 0.54492 0.84846 0.76662 0.0
C1081 C 0.5594 0.84716 0.78499 0.0
C1082 C 0.49873 0.86439 0.71012 0.0
C1083 C 0.47481 0.85456 0.71077 0.0
C1084 C 0.51345 0.8656 0.72832 0.0
C1085 C 0.50463 0.85734 0.74789 0.0
C1086 C 0.48051 0.848 0.74866 0.0
C1087 C 0.46598 0.84627 0.73034 0.0
H1088 H 0.81444 0.55894 0.79483 0.0
H1089 H 0.88905 0.5389 0.80888 0.0
H1090 H 0.81551 0.53337 0.76308 0.0
H1091 H 0.89038 0.51329 0.77696 0.0
H1092 H 0.8876 0.48796 0.7057 0.0
H1093 H 0.88931 0.5135 0.73764 0.0
H1094 H 0.81643 0.48938 0.75425 0.0
H1095 H 0.81499 0.4639 0.72246 0.0
C1096 C 0.83123 0.54933 0.79089 0.0
C1097 C 0.85168 0.55101 0.80433 0.0
C1098 C 0.83179 0.53441 0.77281 0.0
C1099 C 0.85294 0.52085 0.76742 0.0
C1100 C 0.87377 0.52341 0.78046 0.0
C1101 C 0.87308 0.53815 0.79874 0.0
C1102 C 0.8722 0.48777 0.71646 0.0
C1103 C 0.85125 0.47376 0.71165 0.0
C1104 C 0.8731 0.50249 0.73475 0.0
C1105 C 0.85289 0.50388 0.74857 0.0
C1106 C 0.83222 0.48922 0.74393 0.0
C1107 C 0.83147 0.47433 0.72583 0.0
H1108 H 0.46814 0.8169 0.29478 0.0
H1109 H 0.48922 0.89118 0.30944 0.0
H1110 H 0.49329 0.81811 0.26286 0.0
H1111 H 0.51438 0.89267 0.27734 0.0
H1112 H 0.5389 0.89048 0.20585 0.0
H1113 H 0.51375 0.89209 0.23795 0.0
H1114 H 0.5372 0.81868 0.25379 0.0
H1115 H 0.56233 0.81736 0.22186 0.0
C1116 C 0.47786 0.83366 0.29094 0.0
C1117 C 0.47659 0.85397 0.3046 0.0
C1118 C 0.49255 0.8343 0.27275 0.0
C1119 C 0.50628 0.85539 0.26747 0.0
C1120 C 0.50412 0.87611 0.28074 0.0
C1121 C 0.48962 0.87533 0.29912 0.0
C1122 C 0.53904 0.87494 0.21648 0.0
C1123 C 0.55276 0.85387 0.21139 0.0
C1124 C 0.52454 0.87578 0.23486 0.0
C1125 C 0.52305 0.85539 0.24851 0.0
C1126 C 0.53743 0.83461 0.24361 0.0
C1127 C 0.55212 0.83392 0.22542 0.0
H1128 H 0.13645 0.48696 0.81066 0.0
H1129 H 0.21085 0.46719 0.79563 0.0
H1130 H 0.13428 0.51224 0.77864 0.0
H1131 H 0.20896 0.49248 0.76381 0.0
H1132 H 0.20822 0.56173 0.72303 0.0
H1133 H 0.20749 0.5366 0.75499 0.0
H1134 H 0.13466 0.5115 0.73916 0.0
H1135 H 0.13567 0.53664 0.70702 0.0
C1136 C 0.15219 0.48768 0.80029 0.0
C1137 C 0.17379 0.47501 0.80564 0.0
C1138 C 0.15102 0.50225 0.78195 0.0
C1139 C 0.17156 0.50482 0.76862 0.0
C1140 C 0.19289 0.49143 0.77377 0.0
C1141 C 0.19393 0.47667 0.7919 0.0
C1142 C 0.19189 0.55118 0.72661 0.0
C1143 C 0.17193 0.55135 0.71259 0.0
C1144 C 0.19155 0.53649 0.74481 0.0
C1145 C 0.17112 0.52164 0.74971 0.0
C1146 C 0.1507 0.52267 0.73606 0.0
C1147 C 0.15119 0.53716 0.71767 0.0
H1148 H 0.57952 0.18978 0.28428 0.0
H1149 H 0.52192 0.15626 0.32069 0.0
H1150 H 0.55413 0.18642 0.25254 0.0
H1151 H 0.496 0.15408 0.28915 0.0
H1152 H 0.45009 0.19014 0.2329 0.0
H1153 H 0.4755 0.18693 0.26463 0.0
H1154 H 0.53322 0.15356 0.22815 0.0
H1155 H 0.50725 0.15559 0.19664 0.0
C1156 C 0.56177 0.18097 0.28543 0.0
C1157 C 0.55318 0.17253 0.30503 0.0
C1158 C 0.54702 0.17935 0.26723 0.0
C1159 C 0.52292 0.16997 0.26818 0.0
C1160 C 0.51438 0.16146 0.28776 0.0
C1161 C 0.52933 0.16254 0.30582 0.0
C1162 C 0.46774 0.18115 0.23178 0.0
C1163 C 0.47619 0.17236 0.21223 0.0
C1164 C 0.48251 0.17961 0.24997 0.0
C1165 C 0.5065 0.16996 0.24905 0.0
C1166 C 0.51492 0.16115 0.22951 0.0
C1167 C 0.49994 0.16215 0.21146 0.0
H1168 H 0.12237 0.43635 0.95392 0.0
H1169 H 0.19167 0.39865 0.95613 0.0
H1170 H 0.11867 0.43288 0.9922 0.0
H1171 H 0.18898 0.39615 0.99434 0.0
H1172 H 0.17777 0.38595 0.06342 0.0
H1173 H 0.17339 0.38127 0.0254 0.0
H1174 H 0.13352 0.44987 0.02295 0.0
H1175 H 0.1367 0.45343 0.0611 0.0
C1176 C 0.13658 0.42687 0.96263 0.0
C1177 C 0.15711 0.41744 0.95204 0.0
C1178 C 0.13474 0.4252 0.98468 0.0
C1179 C 0.15363 0.41444 0.99682 0.0
C1180 C 0.17375 0.40421 0.98589 0.0
C1181 C 0.17539 0.40561 0.96387 0.0
C1182 C 0.16728 0.39951 0.0548 0.0
C1183 C 0.15713 0.4198 0.06538 0.0
C1184 C 0.16516 0.39715 0.03283 0.0
C1185 C 0.15328 0.41529 0.02063 0.0
C1186 C 0.14246 0.43519 0.03147 0.0
C1187 C 0.14429 0.43734 0.05346 0.0
H1188 H 0.59611 0.12703 0.45449 0.0
H1189 H 0.62893 0.19893 0.45409 0.0
H1190 H 0.60093 0.12507 0.49278 0.0
H1191 H 0.63284 0.19782 0.49233 0.0
H1192 H 0.64618 0.18876 0.56176 0.0
H1193 H 0.65004 0.18362 0.52357 0.0
H1194 H 0.58327 0.14071 0.5231 0.0
H1195 H 0.58037 0.14507 0.56116 0.0
C1196 C 0.60476 0.14224 0.46263 0.0
C1197 C 0.61234 0.16302 0.45134 0.0
C1198 C 0.60724 0.14136 0.48466 0.0
C1199 C 0.61706 0.16142 0.49605 0.0
C1200 C 0.62553 0.18179 0.48442 0.0
C1201 C 0.62326 0.18253 0.46241 0.0
C1202 C 0.63277 0.17772 0.55345 0.0
C1203 C 0.61304 0.16725 0.56443 0.0
C1204 C 0.63472 0.17501 0.53147 0.0
C1205 C 0.61683 0.16193 0.51984 0.0
C1206 C 0.59768 0.15062 0.53119 0.0
C1207 C 0.5959 0.15316 0.55311 0.0
H1208 H 0.84093 0.64936 0.06001 0.0
H1209 H 0.88098 0.58123 0.06023 0.0
H1210 H 0.84714 0.65288 0.02192 0.0
H1211 H 0.8863 0.58381 0.02227 0.0
H1212 H 0.90223 0.59523 0.95414 0.0
H1213 H 0.90364 0.60051 0.99237 0.0
H1214 H 0.833 0.63657 0.99029 0.0
H1215 H 0.83252 0.63219 0.95207 0.0
C1216 C 0.85137 0.63532 0.0519 0.0
C1217 C 0.8605 0.61506 0.06309 0.0
C1218 C 0.8547 0.6371 0.02998 0.0
C1219 C 0.86708 0.61852 0.0186 0.0
C1220 C 0.87701 0.59876 0.03016 0.0
C1221 C 0.87387 0.59715 0.05203 0.0
C1222 C 0.88746 0.60498 0.96189 0.0
C1223 C 0.86745 0.6136 0.95013 0.0
C1224 C 0.88798 0.60769 0.9839 0.0
C1225 C 0.86826 0.61871 0.99483 0.0
C1226 C 0.84875 0.62829 0.98274 0.0
C1227 C 0.84841 0.62581 0.96073 0.0
H1228 H 0.45335 0.88923 0.56107 0.0
H1229 H 0.38462 0.8503 0.56216 0.0
H1230 H 0.45073 0.89264 0.52289 0.0
H1231 H 0.38096 0.85486 0.52407 0.0
H1232 H 0.3991 0.8366 0.45483 0.0
H1233 H 0.39607 0.83895 0.49306 0.0
H1234 H 0.4347 0.90835 0.49204 0.0
H1235 H 0.43862 0.905 0.45377 0.0
C1236 C 0.43721 0.88216 0.55315 0.0
C1237 C 0.41902 0.86988 0.56475 0.0
C1238 C 0.43561 0.88412 0.53114 0.0
C1239 C 0.41564 0.87396 0.51993 0.0
C1240 C 0.3969 0.86259 0.53179 0.0
C1241 C 0.39869 0.86037 0.5538 0.0
C1242 C 0.40638 0.85262 0.46282 0.0
C1243 C 0.41881 0.87076 0.4513 0.0
C1244 C 0.40467 0.85406 0.48485 0.0
C1245 C 0.41524 0.87382 0.4961 0.0
C1246 C 0.4267 0.89256 0.48427 0.0
C1247 C 0.42864 0.89092 0.46222 0.0
H1248 H 0.13777 0.57472 0.45565 0.0
H1249 H 0.17939 0.64193 0.45464 0.0
H1250 H 0.13446 0.57745 0.49385 0.0
H1251 H 0.17499 0.64573 0.49273 0.0
H1252 H 0.19284 0.62647 0.56177 0.0
H1253 H 0.19049 0.62964 0.52356 0.0
H1254 H 0.11947 0.59423 0.52476 0.0
H1255 H 0.12276 0.59015 0.56304 0.0
C1256 C 0.14547 0.59058 0.46359 0.0
C1257 C 0.15848 0.60829 0.45203 0.0
C1258 C 0.14357 0.59224 0.48561 0.0
C1259 C 0.15454 0.61179 0.49682 0.0
C1260 C 0.16663 0.63011 0.48499 0.0
C1261 C 0.16877 0.62825 0.46299 0.0
C1262 C 0.17651 0.6199 0.55383 0.0
C1263 C 0.15788 0.60829 0.56539 0.0
C1264 C 0.17506 0.62171 0.53181 0.0
C1265 C 0.1548 0.6121 0.52063 0.0
C1266 C 0.13563 0.60146 0.5325 0.0
C1267 C 0.13725 0.59942 0.55454 0.0
H1268 H 0.37936 0.18881 0.95652 0.0
H1269 H 0.44546 0.14561 0.95587 0.0
H1270 H 0.37617 0.18323 0.9947 0.0
H1271 H 0.44321 0.1408 0.99391 0.0
H1272 H 0.43155 0.12614 0.06249 0.0
H1273 H 0.42612 0.12464 0.02425 0.0
H1274 H 0.39374 0.19713 0.02594 0.0
H1275 H 0.39827 0.19778 0.06414 0.0
C1276 C 0.39298 0.17778 0.96456 0.0
C1277 C 0.41259 0.16757 0.95322 0.0
C1278 C 0.39141 0.17481 0.98653 0.0
C1279 C 0.40956 0.16172 0.9978 0.0
C1280 C 0.4286 0.15069 0.9861 0.0
C1281 C 0.43001 0.1535 0.96419 0.0
C1282 C 0.42265 0.14138 0.05464 0.0
C1283 C 0.41511 0.16194 0.06628 0.0
C1284 C 0.41983 0.14076 0.03263 0.0
C1285 C 0.40971 0.1609 0.02159 0.0
C1286 C 0.40128 0.18105 0.03357 0.0
C1287 C 0.40389 0.18151 0.05556 0.0
H1288 H 0.88202 0.44768 0.45567 0.0
H1289 H 0.84085 0.3802 0.4545 0.0
H1290 H 0.8864 0.44456 0.49369 0.0
H1291 H 0.8461 0.37612 0.49267 0.0
H1292 H 0.90043 0.4319 0.5621 0.0
H1293 H 0.90266 0.42727 0.52383 0.0
H1294 H 0.83141 0.3923 0.52412 0.0
H1295 H 0.8301 0.39603 0.56238 0.0
C1296 C 0.87448 0.43176 0.46359 0.0
C1297 C 0.86107 0.41421 0.45212 0.0
C1298 C 0.87706 0.42984 0.48549 0.0
C1299 C 0.86651 0.41012 0.49668 0.0
C1300 C 0.85412 0.39187 0.4849 0.0
C1301 C 0.85135 0.39396 0.46293 0.0
C1302 C 0.88567 0.42257 0.55393 0.0
C1303 C 0.86526 0.41405 0.5652 0.0
C1304 C 0.88668 0.42022 0.5319 0.0
C1305 C 0.86706 0.40965 0.52047 0.0
C1306 C 0.8471 0.40022 0.53206 0.0
C1307 C 0.84626 0.40234 0.55408 0.0
H1308 H 0.58954 0.90413 0.06239 0.0
H1309 H 0.62799 0.83517 0.06037 0.0
H1310 H 0.59278 0.9076 0.02408 0.0
H1311 H 0.63031 0.83764 0.02213 0.0
H1312 H 0.64071 0.84916 0.95298 0.0
H1313 H 0.64506 0.8534 0.99105 0.0
H1314 H 0.57599 0.89235 0.99334 0.0
H1315 H 0.57273 0.8893 0.95516 0.0
C1316 C 0.59913 0.88995 0.05371 0.0
C1317 C 0.60885 0.86959 0.06437 0.0
C1318 C 0.60067 0.89166 0.03165 0.0
C1319 C 0.61162 0.8728 0.01956 0.0
C1320 C 0.6221 0.85284 0.03054 0.0
C1321 C 0.6208 0.85133 0.05258 0.0
C1322 C 0.62694 0.85939 0.96159 0.0
C1323 C 0.60663 0.86936 0.95094 0.0
C1324 C 0.62913 0.86144 0.98358 0.0
C1325 C 0.6108 0.87307 0.99574 0.0
C1326 C 0.59082 0.88363 0.98485 0.0
C1327 C 0.58883 0.88185 0.96284 0.0
H1328 H 0.29092 0.38181 0.11744 0.0
H1329 H 0.25937 0.35071 0.17348 0.0
H1330 H 0.32357 0.35146 0.11838 0.0
H1331 H 0.29116 0.31917 0.17392 0.0
H1332 H 0.35965 0.27163 0.17852 0.0
H1333 H 0.3297 0.30462 0.17945 0.0
H1334 H 0.33658 0.31317 0.11215 0.0
H1335 H 0.36805 0.28217 0.11157 0.0
C1336 C 0.29082 0.36829 0.12993 0.0
C1337 C 0.27233 0.36889 0.14537 0.0
C1338 C 0.3096 0.3505 0.1304 0.0
C1339 C 0.31041 0.33209 0.14609 0.0
C1340 C 0.29189 0.33292 0.16167 0.0
C1341 C 0.27338 0.35109 0.16142 0.0
C1342 C 0.35527 0.28082 0.16391 0.0
C1343 C 0.36671 0.27357 0.14495 0.0
C1344 C 0.33749 0.29972 0.16438 0.0
C1345 C 0.33006 0.31208 0.14587 0.0
C1346 C 0.34162 0.30485 0.12697 0.0
C1347 C 0.35965 0.28633 0.12656 0.0
H1348 H 0.757 0.35681 0.6766 0.0
H1349 H 0.74195 0.36871 0.61071 0.0
H1350 H 0.72473 0.32598 0.6778 0.0
H1351 H 0.71103 0.33675 0.61153 0.0
H1352 H 0.64274 0.29003 0.62008 0.0
H1353 H 0.67247 0.32331 0.62053 0.0
H1354 H 0.71262 0.28653 0.66987 0.0
H1355 H 0.68199 0.25426 0.67048 0.0
C1356 C 0.74689 0.35304 0.6623 0.0
C1357 C 0.75263 0.36564 0.64353 0.0
C1358 C 0.72841 0.33483 0.6629 0.0
C1359 C 0.71491 0.32825 0.64473 0.0
C1360 C 0.72048 0.34109 0.62604 0.0
C1361 C 0.73878 0.35941 0.62549 0.0
C1362 C 0.6576 0.2891 0.63134 0.0
C1363 C 0.65954 0.26891 0.64517 0.0
C1364 C 0.67512 0.30823 0.63137 0.0
C1365 C 0.69552 0.30802 0.64514 0.0
C1366 C 0.6973 0.28795 0.65911 0.0
C1367 C 0.67969 0.26895 0.6592 0.0
H1368 H 0.73695 0.64672 0.11893 0.0
H1369 H 0.77306 0.68643 0.169 0.0
H1370 H 0.70362 0.6763 0.11948 0.0
H1371 H 0.74066 0.71694 0.16849 0.0
H1372 H 0.67003 0.76081 0.17553 0.0
H1373 H 0.70121 0.72888 0.17661 0.0
H1374 H 0.68982 0.71474 0.11046 0.0
H1375 H 0.65755 0.74531 0.10976 0.0
C1376 C 0.73796 0.66166 0.13014 0.0
C1377 C 0.75825 0.66373 0.14388 0.0
C1378 C 0.71877 0.6791 0.13022 0.0
C1379 C 0.71901 0.69959 0.14393 0.0
C1380 C 0.73921 0.70155 0.15778 0.0
C1381 C 0.75828 0.684 0.15782 0.0
C1382 C 0.67375 0.75067 0.16123 0.0
C1383 C 0.66085 0.75618 0.14254 0.0
C1384 C 0.69216 0.73239 0.16176 0.0
C1385 C 0.69865 0.71885 0.14359 0.0
C1386 C 0.68555 0.72421 0.12498 0.0
C1387 C 0.66705 0.74231 0.12449 0.0
H1388 H 0.25768 0.67636 0.67296 0.0
H1389 H 0.2888 0.6453 0.61665 0.0
H1390 H 0.28925 0.70814 0.67311 0.0
H1391 H 0.32117 0.676 0.61725 0.0
H1392 H 0.36503 0.74578 0.61013 0.0
H1393 H 0.3337 0.71457 0.61093 0.0
H1394 H 0.32791 0.7228 0.67835 0.0
H1395 H 0.35775 0.75589 0.67725 0.0
C1396 C 0.27154 0.67603 0.66077 0.0
C1397 C 0.27042 0.65814 0.64474 0.0
C1398 C 0.28991 0.69436 0.66086 0.0
C1399 C 0.30823 0.69532 0.6451 0.0
C1400 C 0.30735 0.67685 0.62942 0.0
C1401 C 0.28873 0.65887 0.62913 0.0
C1402 C 0.35691 0.74149 0.6252 0.0
C1403 C 0.36428 0.75416 0.64358 0.0
C1404 C 0.33896 0.72286 0.62573 0.0
C1405 C 0.32776 0.71548 0.64473 0.0
C1406 C 0.33543 0.7278 0.66321 0.0
C1407 C 0.35315 0.74678 0.66263 0.0
H1408 H 0.3702 0.74753 0.40671 0.0
H1409 H 0.36204 0.75813 0.33968 0.0
H1410 H 0.33824 0.71649 0.40587 0.0
H1411 H 0.33081 0.72589 0.3389 0.0
H1412 H 0.29204 0.64809 0.34607 0.0
H1413 H 0.32414 0.67943 0.34507 0.0
H1414 H 0.29253 0.7146 0.39938 0.0
H1415 H 0.25979 0.68446 0.39986 0.0
C1416 C 0.36166 0.74357 0.39173 0.0
C1417 C 0.36899 0.75617 0.37332 0.0
C1418 C 0.34324 0.72541 0.39128 0.0
C1419 C 0.33162 0.71858 0.37236 0.0
C1420 C 0.33935 0.73045 0.3538 0.0
C1421 C 0.35752 0.74901 0.35428 0.0
C1422 C 0.2915 0.6626 0.35769 0.0
C1423 C 0.27291 0.663 0.37322 0.0
C1424 C 0.31017 0.68066 0.35713 0.0
C1425 C 0.31127 0.69959 0.37227 0.0
C1426 C 0.29272 0.70014 0.38766 0.0
C1427 C 0.27385 0.68246 0.388 0.0
H1428 H 0.34223 0.25495 0.84731 0.0
H1429 H 0.38128 0.29076 0.89789 0.0
H1430 H 0.31156 0.28718 0.84793 0.0
H1431 H 0.35145 0.32396 0.89752 0.0
H1432 H 0.28182 0.36931 0.90723 0.0
H1433 H 0.31273 0.33733 0.90644 0.0
H1434 H 0.29951 0.32673 0.84007 0.0
H1435 H 0.26732 0.35763 0.8412 0.0
C1436 C 0.34447 0.26963 0.85864 0.0
C1437 C 0.36459 0.26962 0.8727 0.0
C1438 C 0.32683 0.28861 0.85874 0.0
C1439 C 0.32852 0.30868 0.87279 0.0
C1440 C 0.34887 0.3089 0.88662 0.0
C1441 C 0.36644 0.2898 0.88661 0.0
C1442 C 0.2851 0.36005 0.89243 0.0
C1443 C 0.27142 0.36639 0.87433 0.0
C1444 C 0.3034 0.34171 0.8919 0.0
C1445 C 0.30911 0.32891 0.87319 0.0
C1446 C 0.29574 0.33555 0.85498 0.0
C1447 C 0.2773 0.3538 0.85554 0.0
H1448 H 0.64757 0.29456 0.34889 0.0
H1449 H 0.68841 0.25498 0.39614 0.0
H1450 H 0.67972 0.3259 0.34796 0.0
H1451 H 0.71965 0.28666 0.39598 0.0
H1452 H 0.78481 0.33406 0.37853 0.0
H1453 H 0.75267 0.30327 0.37775 0.0
H1454 H 0.69896 0.35966 0.36531 0.0
H1455 H 0.73152 0.39053 0.36504 0.0
C1456 C 0.66331 0.29241 0.35912 0.0
C1457 C 0.66494 0.27194 0.37268 0.0
C1458 C 0.68176 0.3107 0.35878 0.0
C1459 C 0.70267 0.30919 0.3719 0.0
C1460 C 0.70425 0.28866 0.38537 0.0
C1461 C 0.6859 0.27046 0.3857 0.0
C1462 C 0.76627 0.34008 0.37531 0.0
C1463 C 0.7612 0.36517 0.37172 0.0
C1464 C 0.74754 0.32223 0.37518 0.0
C1465 C 0.72279 0.3286 0.37158 0.0
C1466 C 0.71765 0.35368 0.36796 0.0
C1467 C 0.73645 0.3716 0.36807 0.0
H1468 H 0.75609 0.66627 0.83845 0.0
H1469 H 0.74622 0.65945 0.9056 0.0
H1470 H 0.72335 0.69652 0.83729 0.0
H1471 H 0.7154 0.69114 0.90474 0.0
H1472 H 0.6468 0.73683 0.89901 0.0
H1473 H 0.67699 0.70401 0.89839 0.0
H1474 H 0.70934 0.73551 0.84251 0.0
H1475 H 0.67804 0.76756 0.84268 0.0
C1476 C 0.74709 0.67105 0.85305 0.0
C1477 C 0.75444 0.65997 0.87214 0.0
C1478 C 0.72834 0.68899 0.85244 0.0
C1479 C 0.71623 0.69691 0.87092 0.0
C1480 C 0.72355 0.6857 0.88995 0.0
C1481 C 0.74195 0.66755 0.89051 0.0
C1482 C 0.66031 0.73672 0.88653 0.0
C1483 C 0.6598 0.75505 0.87092 0.0
C1484 C 0.678 0.71783 0.88623 0.0
C1485 C 0.69636 0.71671 0.87054 0.0
C1486 C 0.69562 0.73505 0.85478 0.0
C1487 C 0.67758 0.75369 0.85488 0.0
loop_
_geom_bond_atom_site_label_1
_geom_bond_atom_site_label_2
_geom_bond_distance
_geom_bond_site_symmetry_2
_ccdc_geom_bond_type
C0 C1 1.443 . S
C0 N4 1.376 . S
C0 C38 1.389 . S
C1 C0 1.443 . S
C1 C2 1.340 . S
C1 H41 0.951 . S
C2 C1 1.340 . S
C2 C3 1.439 . S
C2 H42 0.950 . S
C3 C2 1.439 . S
C3 N4 1.374 . S
C3 C37 1.395 . S
N4 C0 1.376 . S
N4 C3 1.374 . S
N4 Co5 2.008 . S
Co5 N4 2.008 . S
Co5 N6 1.995 . S
Co5 N11 2.008 . S
Co5 N16 1.995 . S
Co5 N21 2.282 . S
Co5 N27 2.282 . S
N6 Co5 1.995 . S
N6 C7 1.376 . S
N6 C10 1.383 . S
C7 N6 1.376 . S
C7 C8 1.446 . S
C7 C37 1.391 . S
C8 C7 1.446 . S
C8 C9 1.339 . S
C8 H43 0.949 . S
C9 C8 1.339 . S
C9 C10 1.439 . S
C9 H44 0.950 . S
C10 N6 1.383 . S
C10 C9 1.439 . S
C10 C39 1.392 . S
N11 Co5 2.008 . S
N11 C12 1.376 . S
N11 C15 1.374 . S
C12 N11 1.376 . S
C12 C13 1.443 . S
C12 C39 1.389 . S
C13 C12 1.443 . S
C13 C14 1.340 . S
C13 H45 0.951 . S
C14 C13 1.340 . S
C14 C15 1.439 . S
C14 H46 0.950 . S
C15 N11 1.374 . S
C15 C14 1.439 . S
C15 C40 1.395 . S
N16 Co5 1.995 . S
N16 C17 1.376 . S
N16 C20 1.383 . S
C17 N16 1.376 . S
C17 C18 1.446 . S
C17 C40 1.391 . S
C18 C17 1.446 . S
C18 C19 1.339 . S
C18 H47 0.949 . S
C19 C18 1.339 . S
C19 C20 1.439 . S
C19 H48 0.950 . S
C20 N16 1.383 . S
C20 C19 1.439 . S
C20 C38 1.392 . S
N21 Co5 2.282 . S
N21 C24 1.332 . S
N21 C26 1.332 . S
C22 C23 1.386 . S
C22 C25 1.388 . S
C23 C22 1.386 . S
C23 C24 1.382 . S
C23 H49 0.950 . S
C24 N21 1.332 . S
C24 C23 1.382 . S
C24 H35 0.952 . S
C25 C22 1.388 . S
C25 C26 1.382 . S
C25 H50 0.950 . S
C26 N21 1.332 . S
C26 C25 1.382 . S
C26 H36 0.948 . S
N27 Co5 2.282 . S
N27 C31 1.332 . S
N27 C32 1.332 . S
C28 C29 1.388 . S
C28 C32 1.382 . S
C28 H51 0.950 . S
C29 C28 1.388 . S
C29 C30 1.386 . S
C30 C29 1.386 . S
C30 C31 1.382 . S
C30 H52 0.950 . S
C31 N27 1.332 . S
C31 C30 1.382 . S
C31 H33 0.952 . S
C32 N27 1.332 . S
C32 C28 1.382 . S
C32 H34 0.948 . S
H33 C31 0.952 . S
H34 C32 0.948 . S
H35 C24 0.952 . S
H36 C26 0.948 . S
C37 C3 1.395 . S
C37 C7 1.391 . S
C38 C0 1.389 . S
C38 C20 1.392 . S
C39 C10 1.392 . S
C39 C12 1.389 . S
C40 C15 1.395 . S
C40 C17 1.391 . S
H41 C1 0.951 . S
H42 C2 0.950 . S
H43 C8 0.949 . S
H44 C9 0.950 . S
H45 C13 0.951 . S
H46 C14 0.950 . S
H47 C18 0.949 . S
H48 C19 0.950 . S
H49 C23 0.950 . S
H50 C25 0.950 . S
H51 C28 0.950 . S
H52 C30 0.950 . S
C53 C54 1.443 . S
C53 N57 1.376 . S
C53 C91 1.389 . S
C54 C53 1.443 . S
C54 C55 1.340 . S
C54 H94 0.951 . S
C55 C54 1.340 . S
C55 C56 1.439 . S
C55 H95 0.950 . S
C56 C55 1.439 . S
C56 N57 1.374 . S
C56 C90 1.395 . S
N57 C53 1.376 . S
N57 C56 1.374 . S
N57 Co58 2.008 . S
Co58 N57 2.008 . S
Co58 N59 1.995 . S
Co58 N64 2.008 . S
Co58 N69 1.995 . S
Co58 N74 2.282 . S
Co58 N80 2.282 . S
N59 Co58 1.995 . S
N59 C60 1.376 . S
N59 C63 1.383 . S
C60 N59 1.376 . S
C60 C61 1.446 . S
C60 C90 1.391 . S
C61 C60 1.446 . S
C61 C62 1.339 . S
C61 H96 0.949 . S
C62 C61 1.339 . S
C62 C63 1.439 . S
C62 H97 0.950 . S
C63 N59 1.383 . S
C63 C62 1.439 . S
C63 C92 1.392 . S
N64 Co58 2.008 . S
N64 C65 1.376 . S
N64 C68 1.374 . S
C65 N64 1.376 . S
C65 C66 1.443 . S
C65 C92 1.389 . S
C66 C65 1.443 . S
C66 C67 1.340 . S
C66 H98 0.951 . S
C67 C66 1.340 . S
C67 C68 1.439 . S
C67 H99 0.950 . S
C68 N64 1.374 . S
C68 C67 1.439 . S
C68 C93 1.395 . S
N69 Co58 1.995 . S
N69 C70 1.376 . S
N69 C73 1.383 . S
C70 N69 1.376 . S
C70 C71 1.446 . S
C70 C93 1.391 . S
C71 C70 1.446 . S
C71 C72 1.339 . S
C71 H100 0.949 . S
C72 C71 1.339 . S
C72 C73 1.439 . S
C72 H101 0.950 . S
C73 N69 1.383 . S
C73 C72 1.439 . S
C73 C91 1.392 . S
N74 Co58 2.282 . S
N74 C77 1.332 . S
N74 C79 1.332 . S
C75 C76 1.386 . S
C75 C78 1.388 . S
C76 C75 1.386 . S
C76 C77 1.382 . S
C76 H102 0.950 . S
C77 N74 1.332 . S
C77 C76 1.382 . S
C77 H88 0.952 . S
C78 C75 1.388 . S
C78 C79 1.382 . S
C78 H103 0.950 . S
C79 N74 1.332 . S
C79 C78 1.382 . S
C79 H89 0.948 . S
N80 Co58 2.282 . S
N80 C84 1.332 . S
N80 C85 1.332 . S
C81 C82 1.388 . S
C81 C85 1.382 . S
C81 H104 0.950 . S
C82 C81 1.388 . S
C82 C83 1.386 . S
C83 C82 1.386 . S
C83 C84 1.382 . S
C83 H105 0.950 . S
C84 N80 1.332 . S
C84 C83 1.382 . S
C84 H86 0.952 . S
C85 N80 1.332 . S
C85 C81 1.382 . S
C85 H87 0.948 . S
H86 C84 0.952 . S
H87 C85 0.948 . S
H88 C77 0.952 . S
H89 C79 0.948 . S
C90 C56 1.395 . S
C90 C60 1.391 . S
C91 C53 1.389 . S
C91 C73 1.392 . S
C92 C63 1.392 . S
C92 C65 1.389 . S
C93 C68 1.395 . S
C93 C70 1.391 . S
H94 C54 0.951 . S
H95 C55 0.950 . S
H96 C61 0.949 . S
H97 C62 0.950 . S
H98 C66 0.951 . S
H99 C67 0.950 . S
H100 C71 0.949 . S
H101 C72 0.950 . S
H102 C76 0.950 . S
H103 C78 0.950 . S
H104 C81 0.950 . S
H105 C83 0.950 . S
C106 C107 1.443 . S
C106 N110 1.376 . S
C106 C144 1.389 . S
C107 C106 1.443 . S
C107 C108 1.340 . S
C107 H147 0.951 . S
C108 C107 1.340 . S
C108 C109 1.439 . S
C108 H148 0.950 . S
C109 C108 1.439 . S
C109 N110 1.374 . S
C109 C143 1.395 . S
N110 C106 1.376 . S
N110 C109 1.374 . S
N110 Co111 2.008 . S
Co111 N110 2.008 . S
Co111 N112 1.995 . S
Co111 N117 2.008 . S
Co111 N122 1.995 . S
Co111 N127 2.282 . S
Co111 N133 2.282 . S
N112 Co111 1.995 . S
N112 C113 1.376 . S
N112 C116 1.383 . S
C113 N112 1.376 . S
C113 C114 1.446 . S
C113 C143 1.391 . S
C114 C113 1.446 . S
C114 C115 1.339 . S
C114 H149 0.949 . S
C115 C114 1.339 . S
C115 C116 1.439 . S
C115 H150 0.950 . S
C116 N112 1.383 . S
C116 C115 1.439 . S
C116 C145 1.392 . S
N117 Co111 2.008 . S
N117 C118 1.376 . S
N117 C121 1.374 . S
C118 N117 1.376 . S
C118 C119 1.443 . S
C118 C145 1.389 . S
C119 C118 1.443 . S
C119 C120 1.340 . S
C119 H151 0.951 . S
C120 C119 1.340 . S
C120 C121 1.439 . S
C120 H152 0.950 . S
C121 N117 1.374 . S
C121 C120 1.439 . S
C121 C146 1.395 . S
N122 Co111 1.995 . S
N122 C123 1.376 . S
N122 C126 1.383 . S
C123 N122 1.376 . S
C123 C124 1.446 . S
C123 C146 1.391 . S
C124 C123 1.446 . S
C124 C125 1.339 . S
C124 H153 0.949 . S
C125 C124 1.339 . S
C125 C126 1.439 . S
C125 H154 0.950 . S
C126 N122 1.383 . S
C126 C125 1.439 . S
C126 C144 1.392 . S
N127 Co111 2.282 . S
N127 C130 1.332 . S
N127 C132 1.332 . S
C128 C129 1.386 . S
C128 C131 1.388 . S
C129 C128 1.386 . S
C129 C130 1.382 . S
C129 H155 0.950 . S
C130 N127 1.332 . S
C130 C129 1.382 . S
C130 H141 0.952 . S
C131 C128 1.388 . S
C131 C132 1.382 . S
C131 H156 0.950 . S
C132 N127 1.332 . S
C132 C131 1.382 . S
C132 H142 0.948 . S
N133 Co111 2.282 . S
N133 C137 1.332 . S
N133 C138 1.332 . S
C134 C135 1.388 . S
C134 C138 1.382 . S
C134 H157 0.950 . S
C135 C134 1.388 . S
C135 C136 1.386 . S
C136 C135 1.386 . S
C136 C137 1.382 . S
C136 H158 0.950 . S
C137 N133 1.332 . S
C137 C136 1.382 . S
C137 H139 0.952 . S
C138 N133 1.332 . S
C138 C134 1.382 . S
C138 H140 0.948 . S
H139 C137 0.952 . S
H140 C138 0.948 . S
H141 C130 0.952 . S
H142 C132 0.948 . S
C143 C109 1.395 . S
C143 C113 1.391 . S
C144 C106 1.389 . S
C144 C126 1.392 . S
C145 C116 1.392 . S
C145 C118 1.389 . S
C146 C121 1.395 . S
C146 C123 1.391 . S
H147 C107 0.951 . S
H148 C108 0.950 . S
H149 C114 0.949 . S
H150 C115 0.950 . S
H151 C119 0.951 . S
H152 C120 0.950 . S
H153 C124 0.949 . S
H154 C125 0.950 . S
H155 C129 0.950 . S
H156 C131 0.950 . S
H157 C134 0.950 . S
H158 C136 0.950 . S
C159 C160 1.443 . S
C159 N163 1.376 . S
C159 C197 1.389 . S
C160 C159 1.443 . S
C160 C161 1.340 . S
C160 H200 0.951 . S
C161 C160 1.340 . S
C161 C162 1.439 . S
C161 H201 0.950 . S
C162 C161 1.439 . S
C162 N163 1.374 . S
C162 C196 1.395 . S
N163 C159 1.376 . S
N163 C162 1.374 . S
N163 Co164 2.008 . S
Co164 N163 2.008 . S
Co164 N165 1.995 . S
Co164 N170 2.008 . S
Co164 N175 1.995 . S
Co164 N180 2.282 . S
Co164 N186 2.282 . S
N165 Co164 1.995 . S
N165 C166 1.376 . S
N165 C169 1.383 . S
C166 N165 1.376 . S
C166 C167 1.446 . S
C166 C196 1.391 . S
C167 C166 1.446 . S
C167 C168 1.339 . S
C167 H202 0.949 . S
C168 C167 1.339 . S
C168 C169 1.439 . S
C168 H203 0.950 . S
C169 N165 1.383 . S
C169 C168 1.439 . S
C169 C198 1.392 . S
N170 Co164 2.008 . S
N170 C171 1.376 . S
N170 C174 1.374 . S
C171 N170 1.376 . S
C171 C172 1.443 . S
C171 C198 1.389 . S
C172 C171 1.443 . S
C172 C173 1.340 . S
C172 H204 0.951 . S
C173 C172 1.340 . S
C173 C174 1.439 . S
C173 H205 0.950 . S
C174 N170 1.374 . S
C174 C173 1.439 . S
C174 C199 1.395 . S
N175 Co164 1.995 . S
N175 C176 1.376 . S
N175 C179 1.383 . S
C176 N175 1.376 . S
C176 C177 1.446 . S
C176 C199 1.391 . S
C177 C176 1.446 . S
C177 C178 1.339 . S
C177 H206 0.949 . S
C178 C177 1.339 . S
C178 C179 1.439 . S
C178 H207 0.950 . S
C179 N175 1.383 . S
C179 C178 1.439 . S
C179 C197 1.392 . S
N180 Co164 2.282 . S
N180 C183 1.332 . S
N180 C185 1.332 . S
C181 C182 1.386 . S
C181 C184 1.388 . S
C182 C181 1.386 . S
C182 C183 1.382 . S
C182 H208 0.950 . S
C183 N180 1.332 . S
C183 C182 1.382 . S
C183 H194 0.952 . S
C184 C181 1.388 . S
C184 C185 1.382 . S
C184 H209 0.950 . S
C185 N180 1.332 . S
C185 C184 1.382 . S
C185 H195 0.948 . S
N186 Co164 2.282 . S
N186 C190 1.332 . S
N186 C191 1.332 . S
C187 C188 1.388 . S
C187 C191 1.382 . S
C187 H210 0.950 . S
C188 C187 1.388 . S
C188 C189 1.386 . S
C189 C188 1.386 . S
C189 C190 1.382 . S
C189 H211 0.950 . S
C190 N186 1.332 . S
C190 C189 1.382 . S
C190 H192 0.952 . S
C191 N186 1.332 . S
C191 C187 1.382 . S
C191 H193 0.948 . S
H192 C190 0.952 . S
H193 C191 0.948 . S
H194 C183 0.952 . S
H195 C185 0.948 . S
C196 C162 1.395 . S
C196 C166 1.391 . S
C197 C159 1.389 . S
C197 C179 1.392 . S
C198 C169 1.392 . S
C198 C171 1.389 . S
C199 C174 1.395 . S
C199 C176 1.391 . S
H200 C160 0.951 . S
H201 C161 0.950 . S
H202 C167 0.949 . S
H203 C168 0.950 . S
H204 C172 0.951 . S
H205 C173 0.950 . S
H206 C177 0.949 . S
H207 C178 0.950 . S
H208 C182 0.950 . S
H209 C184 0.950 . S
H210 C187 0.950 . S
H211 C189 0.950 . S
C212 C213 1.443 . S
C212 N216 1.376 . S
C212 C250 1.389 . S
C213 C212 1.443 . S
C213 C214 1.340 . S
C213 H253 0.951 . S
C214 C213 1.340 . S
C214 C215 1.439 . S
C214 H254 0.950 . S
C215 C214 1.439 . S
C215 N216 1.374 . S
C215 C249 1.395 . S
N216 C212 1.376 . S
N216 C215 1.374 . S
N216 Co217 2.008 . S
Co217 N216 2.008 . S
Co217 N218 1.995 . S
Co217 N223 2.008 . S
Co217 N228 1.995 . S
Co217 N233 2.282 . S
Co217 N239 2.282 . S
N218 Co217 1.995 . S
N218 C219 1.376 . S
N218 C222 1.383 . S
C219 N218 1.376 . S
C219 C220 1.446 . S
C219 C249 1.391 . S
C220 C219 1.446 . S
C220 C221 1.339 . S
C220 H255 0.949 . S
C221 C220 1.339 . S
C221 C222 1.439 . S
C221 H256 0.950 . S
C222 N218 1.383 . S
C222 C221 1.439 . S
C222 C251 1.392 . S
N223 Co217 2.008 . S
N223 C224 1.376 . S
N223 C227 1.374 . S
C224 N223 1.376 . S
C224 C225 1.443 . S
C224 C251 1.389 . S
C225 C224 1.443 . S
C225 C226 1.340 . S
C225 H257 0.951 . S
C226 C225 1.340 . S
C226 C227 1.439 . S
C226 H258 0.950 . S
C227 N223 1.374 . S
C227 C226 1.439 . S
C227 C252 1.395 . S
N228 Co217 1.995 . S
N228 C229 1.376 . S
N228 C232 1.383 . S
C229 N228 1.376 . S
C229 C230 1.446 . S
C229 C252 1.391 . S
C230 C229 1.446 . S
C230 C231 1.339 . S
C230 H259 0.949 . S
C231 C230 1.339 . S
C231 C232 1.439 . S
C231 H260 0.950 . S
C232 N228 1.383 . S
C232 C231 1.439 . S
C232 C250 1.392 . S
N233 Co217 2.282 . S
N233 C236 1.332 . S
N233 C238 1.332 . S
C234 C235 1.386 . S
C234 C237 1.388 . S
C235 C234 1.386 . S
C235 C236 1.382 . S
C235 H261 0.950 . S
C236 N233 1.332 . S
C236 C235 1.382 . S
C236 H247 0.952 . S
C237 C234 1.388 . S
C237 C238 1.382 . S
C237 H262 0.950 . S
C238 N233 1.332 . S
C238 C237 1.382 . S
C238 H248 0.948 . S
N239 Co217 2.282 . S
N239 C243 1.332 . S
N239 C244 1.332 . S
C240 C241 1.388 . S
C240 C244 1.382 . S
C240 H263 0.950 . S
C241 C240 1.388 . S
C241 C242 1.386 . S
C242 C241 1.386 . S
C242 C243 1.382 . S
C242 H264 0.950 . S
C243 N239 1.332 . S
C243 C242 1.382 . S
C243 H245 0.952 . S
C244 N239 1.332 . S
C244 C240 1.382 . S
C244 H246 0.948 . S
H245 C243 0.952 . S
H246 C244 0.948 . S
H247 C236 0.952 . S
H248 C238 0.948 . S
C249 C215 1.395 . S
C249 C219 1.391 . S
C250 C212 1.389 . S
C250 C232 1.392 . S
C251 C222 1.392 . S
C251 C224 1.389 . S
C252 C227 1.395 . S
C252 C229 1.391 . S
H253 C213 0.951 . S
H254 C214 0.950 . S
H255 C220 0.949 . S
H256 C221 0.950 . S
H257 C225 0.951 . S
H258 C226 0.950 . S
H259 C230 0.949 . S
H260 C231 0.950 . S
H261 C235 0.950 . S
H262 C237 0.950 . S
H263 C240 0.950 . S
H264 C242 0.950 . S
C265 C266 1.443 . S
C265 N269 1.376 . S
C265 C303 1.389 . S
C266 C265 1.443 . S
C266 C267 1.340 . S
C266 H306 0.951 . S
C267 C266 1.340 . S
C267 C268 1.439 . S
C267 H307 0.950 . S
C268 C267 1.439 . S
C268 N269 1.374 . S
C268 C302 1.395 . S
N269 C265 1.376 . S
N269 C268 1.374 . S
N269 Co270 2.008 . S
Co270 N269 2.008 . S
Co270 N271 1.995 . S
Co270 N276 2.008 . S
Co270 N281 1.995 . S
Co270 N286 2.282 . S
Co270 N292 2.282 . S
N271 Co270 1.995 . S
N271 C272 1.376 . S
N271 C275 1.383 . S
C272 N271 1.376 . S
C272 C273 1.446 . S
C272 C302 1.391 . S
C273 C272 1.446 . S
C273 C274 1.339 . S
C273 H308 0.949 . S
C274 C273 1.339 . S
C274 C275 1.439 . S
C274 H309 0.950 . S
C275 N271 1.383 . S
C275 C274 1.439 . S
C275 C304 1.392 . S
N276 Co270 2.008 . S
N276 C277 1.376 . S
N276 C280 1.374 . S
C277 N276 1.376 . S
C277 C278 1.443 . S
C277 C304 1.389 . S
C278 C277 1.443 . S
C278 C279 1.340 . S
C278 H310 0.951 . S
C279 C278 1.340 . S
C279 C280 1.439 . S
C279 H311 0.950 . S
C280 N276 1.374 . S
C280 C279 1.439 . S
C280 C305 1.395 . S
N281 Co270 1.995 . S
N281 C282 1.376 . S
N281 C285 1.383 . S
C282 N281 1.376 . S
C282 C283 1.446 . S
C282 C305 1.391 . S
C283 C282 1.446 . S
C283 C284 1.339 . S
C283 H312 0.949 . S
C284 C283 1.339 . S
C284 C285 1.439 . S
C284 H313 0.950 . S
C285 N281 1.383 . S
C285 C284 1.439 . S
C285 C303 1.392 . S
N286 Co270 2.282 . S
N286 C289 1.332 . S
N286 C291 1.332 . S
C287 C288 1.386 . S
C287 C290 1.388 . S
C288 C287 1.386 . S
C288 C289 1.382 . S
C288 H314 0.950 . S
C289 N286 1.332 . S
C289 C288 1.382 . S
C289 H300 0.952 . S
C290 C287 1.388 . S
C290 C291 1.382 . S
C290 H315 0.950 . S
C291 N286 1.332 . S
C291 C290 1.382 . S
C291 H301 0.948 . S
N292 Co270 2.282 . S
N292 C296 1.332 . S
N292 C297 1.332 . S
C293 C294 1.388 . S
C293 C297 1.382 . S
C293 H316 0.950 . S
C294 C293 1.388 . S
C294 C295 1.386 . S
C295 C294 1.386 . S
C295 C296 1.382 . S
C295 H317 0.950 . S
C296 N292 1.332 . S
C296 C295 1.382 . S
C296 H298 0.952 . S
C297 N292 1.332 . S
C297 C293 1.382 . S
C297 H299 0.948 . S
H298 C296 0.952 . S
H299 C297 0.948 . S
H300 C289 0.952 . S
H301 C291 0.948 . S
C302 C268 1.395 . S
C302 C272 1.391 . S
C303 C265 1.389 . S
C303 C285 1.392 . S
C304 C275 1.392 . S
C304 C277 1.389 . S
C305 C280 1.395 . S
C305 C282 1.391 . S
H306 C266 0.951 . S
H307 C267 0.950 . S
H308 C273 0.949 . S
H309 C274 0.950 . S
H310 C278 0.951 . S
H311 C279 0.950 . S
H312 C283 0.949 . S
H313 C284 0.950 . S
H314 C288 0.950 . S
H315 C290 0.950 . S
H316 C293 0.950 . S
H317 C295 0.950 . S
C318 C319 1.443 . S
C318 N322 1.376 . S
C318 C356 1.389 . S
C319 C318 1.443 . S
C319 C320 1.340 . S
C319 H359 0.951 . S
C320 C319 1.340 . S
C320 C321 1.439 . S
C320 H360 0.950 . S
C321 C320 1.439 . S
C321 N322 1.374 . S
C321 C355 1.395 . S
N322 C318 1.376 . S
N322 C321 1.374 . S
N322 Co323 2.008 . S
Co323 N322 2.008 . S
Co323 N324 1.995 . S
Co323 N329 2.008 . S
Co323 N334 1.995 . S
Co323 N339 2.282 . S
Co323 N345 2.282 . S
N324 Co323 1.995 . S
N324 C325 1.376 . S
N324 C328 1.383 . S
C325 N324 1.376 . S
C325 C326 1.446 . S
C325 C355 1.391 . S
C326 C325 1.446 . S
C326 C327 1.339 . S
C326 H361 0.949 . S
C327 C326 1.339 . S
C327 C328 1.439 . S
C327 H362 0.950 . S
C328 N324 1.383 . S
C328 C327 1.439 . S
C328 C357 1.392 . S
N329 Co323 2.008 . S
N329 C330 1.376 . S
N329 C333 1.374 . S
C330 N329 1.376 . S
C330 C331 1.443 . S
C330 C357 1.389 . S
C331 C330 1.443 . S
C331 C332 1.340 . S
C331 H363 0.951 . S
C332 C331 1.340 . S
C332 C333 1.439 . S
C332 H364 0.950 . S
C333 N329 1.374 . S
C333 C332 1.439 . S
C333 C358 1.395 . S
N334 Co323 1.995 . S
N334 C335 1.376 . S
N334 C338 1.383 . S
C335 N334 1.376 . S
C335 C336 1.446 . S
C335 C358 1.391 . S
C336 C335 1.446 . S
C336 C337 1.339 . S
C336 H365 0.949 . S
C337 C336 1.339 . S
C337 C338 1.439 . S
C337 H366 0.950 . S
C338 N334 1.383 . S
C338 C337 1.439 . S
C338 C356 1.392 . S
N339 Co323 2.282 . S
N339 C342 1.332 . S
N339 C344 1.332 . S
C340 C341 1.386 . S
C340 C343 1.388 . S
C341 C340 1.386 . S
C341 C342 1.382 . S
C341 H367 0.950 . S
C342 N339 1.332 . S
C342 C341 1.382 . S
C342 H353 0.952 . S
C343 C340 1.388 . S
C343 C344 1.382 . S
C343 H368 0.950 . S
C344 N339 1.332 . S
C344 C343 1.382 . S
C344 H354 0.948 . S
N345 Co323 2.282 . S
N345 C349 1.332 . S
N345 C350 1.332 . S
C346 C347 1.388 . S
C346 C350 1.382 . S
C346 H369 0.950 . S
C347 C346 1.388 . S
C347 C348 1.386 . S
C348 C347 1.386 . S
C348 C349 1.382 . S
C348 H370 0.950 . S
C349 N345 1.332 . S
C349 C348 1.382 . S
C349 H351 0.952 . S
C350 N345 1.332 . S
C350 C346 1.382 . S
C350 H352 0.948 . S
H351 C349 0.952 . S
H352 C350 0.948 . S
H353 C342 0.952 . S
H354 C344 0.948 . S
C355 C321 1.395 . S
C355 C325 1.391 . S
C356 C318 1.389 . S
C356 C338 1.392 . S
C357 C328 1.392 . S
C357 C330 1.389 . S
C358 C333 1.395 . S
C358 C335 1.391 . S
H359 C319 0.951 . S
H360 C320 0.950 . S
H361 C326 0.949 . S
H362 C327 0.950 . S
H363 C331 0.951 . S
H364 C332 0.950 . S
H365 C336 0.949 . S
H366 C337 0.950 . S
H367 C341 0.950 . S
H368 C343 0.950 . S
H369 C346 0.950 . S
H370 C348 0.950 . S
C371 C372 1.443 . S
C371 N375 1.376 . S
C371 C409 1.389 . S
C372 C371 1.443 . S
C372 C373 1.340 . S
C372 H412 0.951 . S
C373 C372 1.340 . S
C373 C374 1.439 . S
C373 H413 0.950 . S
C374 C373 1.439 . S
C374 N375 1.374 . S
C374 C408 1.395 . S
N375 C371 1.376 . S
N375 C374 1.374 . S
N375 Co376 2.008 . S
Co376 N375 2.008 . S
Co376 N377 1.995 . S
Co376 N382 2.008 . S
Co376 N387 1.995 . S
Co376 N392 2.282 . S
Co376 N398 2.282 . S
N377 Co376 1.995 . S
N377 C378 1.376 . S
N377 C381 1.383 . S
C378 N377 1.376 . S
C378 C379 1.446 . S
C378 C408 1.391 . S
C379 C378 1.446 . S
C379 C380 1.339 . S
C379 H414 0.949 . S
C380 C379 1.339 . S
C380 C381 1.439 . S
C380 H415 0.950 . S
C381 N377 1.383 . S
C381 C380 1.439 . S
C381 C410 1.392 . S
N382 Co376 2.008 . S
N382 C383 1.376 . S
N382 C386 1.374 . S
C383 N382 1.376 . S
C383 C384 1.443 . S
C383 C410 1.389 . S
C384 C383 1.443 . S
C384 C385 1.340 . S
C384 H416 0.951 . S
C385 C384 1.340 . S
C385 C386 1.439 . S
C385 H417 0.950 . S
C386 N382 1.374 . S
C386 C385 1.439 . S
C386 C411 1.395 . S
N387 Co376 1.995 . S
N387 C388 1.376 . S
N387 C391 1.383 . S
C388 N387 1.376 . S
C388 C389 1.446 . S
C388 C411 1.391 . S
C389 C388 1.446 . S
C389 C390 1.339 . S
C389 H418 0.949 . S
C390 C389 1.339 . S
C390 C391 1.439 . S
C390 H419 0.950 . S
C391 N387 1.383 . S
C391 C390 1.439 . S
C391 C409 1.392 . S
N392 Co376 2.282 . S
N392 C395 1.332 . S
N392 C397 1.332 . S
C393 C394 1.386 . S
C393 C396 1.388 . S
C394 C393 1.386 . S
C394 C395 1.382 . S
C394 H420 0.950 . S
C395 N392 1.332 . S
C395 C394 1.382 . S
C395 H406 0.952 . S
C396 C393 1.388 . S
C396 C397 1.382 . S
C396 H421 0.950 . S
C397 N392 1.332 . S
C397 C396 1.382 . S
C397 H407 0.948 . S
N398 Co376 2.282 . S
N398 C402 1.332 . S
N398 C403 1.332 . S
C399 C400 1.388 . S
C399 C403 1.382 . S
C399 H422 0.950 . S
C400 C399 1.388 . S
C400 C401 1.386 . S
C401 C400 1.386 . S
C401 C402 1.382 . S
C401 H423 0.950 . S
C402 N398 1.332 . S
C402 C401 1.382 . S
C402 H404 0.952 . S
C403 N398 1.332 . S
C403 C399 1.382 . S
C403 H405 0.948 . S
H404 C402 0.952 . S
H405 C403 0.948 . S
H406 C395 0.952 . S
H407 C397 0.948 . S
C408 C374 1.395 . S
C408 C378 1.391 . S
C409 C371 1.389 . S
C409 C391 1.392 . S
C410 C381 1.392 . S
C410 C383 1.389 . S
C411 C386 1.395 . S
C411 C388 1.391 . S
H412 C372 0.951 . S
H413 C373 0.950 . S
H414 C379 0.949 . S
H415 C380 0.950 . S
H416 C384 0.951 . S
H417 C385 0.950 . S
H418 C389 0.949 . S
H419 C390 0.950 . S
H420 C394 0.950 . S
H421 C396 0.950 . S
H422 C399 0.950 . S
H423 C401 0.950 . S
C424 C425 1.443 . S
C424 N428 1.376 . S
C424 C462 1.389 . S
C425 C424 1.443 . S
C425 C426 1.340 . S
C425 H465 0.951 . S
C426 C425 1.340 . S
C426 C427 1.439 . S
C426 H466 0.950 . S
C427 C426 1.439 . S
C427 N428 1.374 . S
C427 C461 1.395 . S
N428 C424 1.376 . S
N428 C427 1.374 . S
N428 Co429 2.008 . S
Co429 N428 2.008 . S
Co429 N430 1.995 . S
Co429 N435 2.008 . S
Co429 N440 1.995 . S
Co429 N445 2.282 . S
Co429 N451 2.282 . S
N430 Co429 1.995 . S
N430 C431 1.376 . S
N430 C434 1.383 . S
C431 N430 1.376 . S
C431 C432 1.446 . S
C431 C461 1.391 . S
C432 C431 1.446 . S
C432 C433 1.339 . S
C432 H467 0.949 . S
C433 C432 1.339 . S
C433 C434 1.439 . S
C433 H468 0.950 . S
C434 N430 1.383 . S
C434 C433 1.439 . S
C434 C463 1.392 . S
N435 Co429 2.008 . S
N435 C436 1.376 . S
N435 C439 1.374 . S
C436 N435 1.376 . S
C436 C437 1.443 . S
C436 C463 1.389 . S
C437 C436 1.443 . S
C437 C438 1.340 . S
C437 H469 0.951 . S
C438 C437 1.340 . S
C438 C439 1.439 . S
C438 H470 0.950 . S
C439 N435 1.374 . S
C439 C438 1.439 . S
C439 C464 1.395 . S
N440 Co429 1.995 . S
N440 C441 1.376 . S
N440 C444 1.383 . S
C441 N440 1.376 . S
C441 C442 1.446 . S
C441 C464 1.391 . S
C442 C441 1.446 . S
C442 C443 1.339 . S
C442 H471 0.949 . S
C443 C442 1.339 . S
C443 C444 1.439 . S
C443 H472 0.950 . S
C444 N440 1.383 . S
C444 C443 1.439 . S
C444 C462 1.392 . S
N445 Co429 2.282 . S
N445 C448 1.332 . S
N445 C450 1.332 . S
C446 C447 1.386 . S
C446 C449 1.388 . S
C447 C446 1.386 . S
C447 C448 1.382 . S
C447 H473 0.950 . S
C448 N445 1.332 . S
C448 C447 1.382 . S
C448 H459 0.952 . S
C449 C446 1.388 . S
C449 C450 1.382 . S
C449 H474 0.950 . S
C450 N445 1.332 . S
C450 C449 1.382 . S
C450 H460 0.948 . S
N451 Co429 2.282 . S
N451 C455 1.332 . S
N451 C456 1.332 . S
C452 C453 1.388 . S
C452 C456 1.382 . S
C452 H475 0.950 . S
C453 C452 1.388 . S
C453 C454 1.386 . S
C454 C453 1.386 . S
C454 C455 1.382 . S
C454 H476 0.950 . S
C455 N451 1.332 . S
C455 C454 1.382 . S
C455 H457 0.952 . S
C456 N451 1.332 . S
C456 C452 1.382 . S
C456 H458 0.948 . S
H457 C455 0.952 . S
H458 C456 0.948 . S
H459 C448 0.952 . S
H460 C450 0.948 . S
C461 C427 1.395 . S
C461 C431 1.391 . S
C462 C424 1.389 . S
C462 C444 1.392 . S
C463 C434 1.392 . S
C463 C436 1.389 . S
C464 C439 1.395 . S
C464 C441 1.391 . S
H465 C425 0.951 . S
H466 C426 0.950 . S
H467 C432 0.949 . S
H468 C433 0.950 . S
H469 C437 0.951 . S
H470 C438 0.950 . S
H471 C442 0.949 . S
H472 C443 0.950 . S
H473 C447 0.950 . S
H474 C449 0.950 . S
H475 C452 0.950 . S
H476 C454 0.950 . S
C477 C478 1.443 . S
C477 N481 1.376 . S
C477 C515 1.389 . S
C478 C477 1.443 . S
C478 C479 1.340 . S
C478 H518 0.951 . S
C479 C478 1.340 . S
C479 C480 1.439 . S
C479 H519 0.950 . S
C480 C479 1.439 . S
C480 N481 1.374 . S
C480 C514 1.395 . S
N481 C477 1.376 . S
N481 C480 1.374 . S
N481 Co482 2.008 . S
Co482 N481 2.008 . S
Co482 N483 1.995 . S
Co482 N488 2.008 . S
Co482 N493 1.995 . S
Co482 N498 2.282 . S
Co482 N504 2.282 . S
N483 Co482 1.995 . S
N483 C484 1.376 . S
N483 C487 1.383 . S
C484 N483 1.376 . S
C484 C485 1.446 . S
C484 C514 1.391 . S
C485 C484 1.446 . S
C485 C486 1.339 . S
C485 H520 0.949 . S
C486 C485 1.339 . S
C486 C487 1.439 . S
C486 H521 0.950 . S
C487 N483 1.383 . S
C487 C486 1.439 . S
C487 C516 1.392 . S
N488 Co482 2.008 . S
N488 C489 1.376 . S
N488 C492 1.374 . S
C489 N488 1.376 . S
C489 C490 1.443 . S
C489 C516 1.389 . S
C490 C489 1.443 . S
C490 C491 1.340 . S
C490 H522 0.951 . S
C491 C490 1.340 . S
C491 C492 1.439 . S
C491 H523 0.950 . S
C492 N488 1.374 . S
C492 C491 1.439 . S
C492 C517 1.395 . S
N493 Co482 1.995 . S
N493 C494 1.376 . S
N493 C497 1.383 . S
C494 N493 1.376 . S
C494 C495 1.446 . S
C494 C517 1.391 . S
C495 C494 1.446 . S
C495 C496 1.339 . S
C495 H524 0.949 . S
C496 C495 1.339 . S
C496 C497 1.439 . S
C496 H525 0.950 . S
C497 N493 1.383 . S
C497 C496 1.439 . S
C497 C515 1.392 . S
N498 Co482 2.282 . S
N498 C501 1.332 . S
N498 C503 1.332 . S
C499 C500 1.386 . S
C499 C502 1.388 . S
C500 C499 1.386 . S
C500 C501 1.382 . S
C500 H526 0.950 . S
C501 N498 1.332 . S
C501 C500 1.382 . S
C501 H512 0.952 . S
C502 C499 1.388 . S
C502 C503 1.382 . S
C502 H527 0.950 . S
C503 N498 1.332 . S
C503 C502 1.382 . S
C503 H513 0.948 . S
N504 Co482 2.282 . S
N504 C508 1.332 . S
N504 C509 1.332 . S
C505 C506 1.388 . S
C505 C509 1.382 . S
C505 H528 0.950 . S
C506 C505 1.388 . S
C506 C507 1.386 . S
C507 C506 1.386 . S
C507 C508 1.382 . S
C507 H529 0.950 . S
C508 N504 1.332 . S
C508 C507 1.382 . S
C508 H510 0.952 . S
C509 N504 1.332 . S
C509 C505 1.382 . S
C509 H511 0.948 . S
H510 C508 0.952 . S
H511 C509 0.948 . S
H512 C501 0.952 . S
H513 C503 0.948 . S
C514 C480 1.395 . S
C514 C484 1.391 . S
C515 C477 1.389 . S
C515 C497 1.392 . S
C516 C487 1.392 . S
C516 C489 1.389 . S
C517 C492 1.395 . S
C517 C494 1.391 . S
H518 C478 0.951 . S
H519 C479 0.950 . S
H520 C485 0.949 . S
H521 C486 0.950 . S
H522 C490 0.951 . S
H523 C491 0.950 . S
H524 C495 0.949 . S
H525 C496 0.950 . S
H526 C500 0.950 . S
H527 C502 0.950 . S
H528 C505 0.950 . S
H529 C507 0.950 . S
C530 C531 1.443 . S
C530 N534 1.376 . S
C530 C568 1.389 . S
C531 C530 1.443 . S
C531 C532 1.340 . S
C531 H571 0.951 . S
C532 C531 1.340 . S
C532 C533 1.439 . S
C532 H572 0.950 . S
C533 C532 1.439 . S
C533 N534 1.374 . S
C533 C567 1.395 . S
N534 C530 1.376 . S
N534 C533 1.374 . S
N534 Co535 2.008 . S
Co535 N534 2.008 . S
Co535 N536 1.995 . S
Co535 N541 2.008 . S
Co535 N546 1.995 . S
Co535 N551 2.282 . S
Co535 N557 2.282 . S
N536 Co535 1.995 . S
N536 C537 1.376 . S
N536 C540 1.383 . S
C537 N536 1.376 . S
C537 C538 1.446 . S
C537 C567 1.391 . S
C538 C537 1.446 . S
C538 C539 1.339 . S
C538 H573 0.949 . S
C539 C538 1.339 . S
C539 C540 1.439 . S
C539 H574 0.950 . S
C540 N536 1.383 . S
C540 C539 1.439 . S
C540 C569 1.392 . S
N541 Co535 2.008 . S
N541 C542 1.376 . S
N541 C545 1.374 . S
C542 N541 1.376 . S
C542 C543 1.443 . S
C542 C569 1.389 . S
C543 C542 1.443 . S
C543 C544 1.340 . S
C543 H575 0.951 . S
C544 C543 1.340 . S
C544 C545 1.439 . S
C544 H576 0.950 . S
C545 N541 1.374 . S
C545 C544 1.439 . S
C545 C570 1.395 . S
N546 Co535 1.995 . S
N546 C547 1.376 . S
N546 C550 1.383 . S
C547 N546 1.376 . S
C547 C548 1.446 . S
C547 C570 1.391 . S
C548 C547 1.446 . S
C548 C549 1.339 . S
C548 H577 0.949 . S
C549 C548 1.339 . S
C549 C550 1.439 . S
C549 H578 0.950 . S
C550 N546 1.383 . S
C550 C549 1.439 . S
C550 C568 1.392 . S
N551 Co535 2.282 . S
N551 C554 1.332 . S
N551 C556 1.332 . S
C552 C553 1.386 . S
C552 C555 1.388 . S
C553 C552 1.386 . S
C553 C554 1.382 . S
C553 H579 0.950 . S
C554 N551 1.332 . S
C554 C553 1.382 . S
C554 H565 0.952 . S
C555 C552 1.388 . S
C555 C556 1.382 . S
C555 H580 0.950 . S
C556 N551 1.332 . S
C556 C555 1.382 . S
C556 H566 0.948 . S
N557 Co535 2.282 . S
N557 C561 1.332 . S
N557 C562 1.332 . S
C558 C559 1.388 . S
C558 C562 1.382 . S
C558 H581 0.950 . S
C559 C558 1.388 . S
C559 C560 1.386 . S
C560 C559 1.386 . S
C560 C561 1.382 . S
C560 H582 0.950 . S
C561 N557 1.332 . S
C561 C560 1.382 . S
C561 H563 0.952 . S
C562 N557 1.332 . S
C562 C558 1.382 . S
C562 H564 0.948 . S
H563 C561 0.952 . S
H564 C562 0.948 . S
H565 C554 0.952 . S
H566 C556 0.948 . S
C567 C533 1.395 . S
C567 C537 1.391 . S
C568 C530 1.389 . S
C568 C550 1.392 . S
C569 C540 1.392 . S
C569 C542 1.389 . S
C570 C545 1.395 . S
C570 C547 1.391 . S
H571 C531 0.951 . S
H572 C532 0.950 . S
H573 C538 0.949 . S
H574 C539 0.950 . S
H575 C543 0.951 . S
H576 C544 0.950 . S
H577 C548 0.949 . S
H578 C549 0.950 . S
H579 C553 0.950 . S
H580 C555 0.950 . S
H581 C558 0.950 . S
H582 C560 0.950 . S
C583 C584 1.443 . S
C583 N587 1.376 . S
C583 C621 1.389 . S
C584 C583 1.443 . S
C584 C585 1.340 . S
C584 H624 0.951 . S
C585 C584 1.340 . S
C585 C586 1.439 . S
C585 H625 0.950 . S
C586 C585 1.439 . S
C586 N587 1.374 . S
C586 C620 1.395 . S
N587 C583 1.376 . S
N587 C586 1.374 . S
N587 Co588 2.008 . S
Co588 N587 2.008 . S
Co588 N589 1.995 . S
Co588 N594 2.008 . S
Co588 N599 1.995 . S
Co588 N604 2.282 . S
Co588 N610 2.282 . S
N589 Co588 1.995 . S
N589 C590 1.376 . S
N589 C593 1.383 . S
C590 N589 1.376 . S
C590 C591 1.446 . S
C590 C620 1.391 . S
C591 C590 1.446 . S
C591 C592 1.339 . S
C591 H626 0.949 . S
C592 C591 1.339 . S
C592 C593 1.439 . S
C592 H627 0.950 . S
C593 N589 1.383 . S
C593 C592 1.439 . S
C593 C622 1.392 . S
N594 Co588 2.008 . S
N594 C595 1.376 . S
N594 C598 1.374 . S
C595 N594 1.376 . S
C595 C596 1.443 . S
C595 C622 1.389 . S
C596 C595 1.443 . S
C596 C597 1.340 . S
C596 H628 0.951 . S
C597 C596 1.340 . S
C597 C598 1.439 . S
C597 H629 0.950 . S
C598 N594 1.374 . S
C598 C597 1.439 . S
C598 C623 1.395 . S
N599 Co588 1.995 . S
N599 C600 1.376 . S
N599 C603 1.383 . S
C600 N599 1.376 . S
C600 C601 1.446 . S
C600 C623 1.391 . S
C601 C600 1.446 . S
C601 C602 1.339 . S
C601 H630 0.949 . S
C602 C601 1.339 . S
C602 C603 1.439 . S
C602 H631 0.950 . S
C603 N599 1.383 . S
C603 C602 1.439 . S
C603 C621 1.392 . S
N604 Co588 2.282 . S
N604 C607 1.332 . S
N604 C609 1.332 . S
C605 C606 1.386 . S
C605 C608 1.388 . S
C606 C605 1.386 . S
C606 C607 1.382 . S
C606 H632 0.950 . S
C607 N604 1.332 . S
C607 C606 1.382 . S
C607 H618 0.952 . S
C608 C605 1.388 . S
C608 C609 1.382 . S
C608 H633 0.950 . S
C609 N604 1.332 . S
C609 C608 1.382 . S
C609 H619 0.948 . S
N610 Co588 2.282 . S
N610 C614 1.332 . S
N610 C615 1.332 . S
C611 C612 1.388 . S
C611 C615 1.382 . S
C611 H634 0.950 . S
C612 C611 1.388 . S
C612 C613 1.386 . S
C613 C612 1.386 . S
C613 C614 1.382 . S
C613 H635 0.950 . S
C614 N610 1.332 . S
C614 C613 1.382 . S
C614 H616 0.952 . S
C615 N610 1.332 . S
C615 C611 1.382 . S
C615 H617 0.948 . S
H616 C614 0.952 . S
H617 C615 0.948 . S
H618 C607 0.952 . S
H619 C609 0.948 . S
C620 C586 1.395 . S
C620 C590 1.391 . S
C621 C583 1.389 . S
C621 C603 1.392 . S
C622 C593 1.392 . S
C622 C595 1.389 . S
C623 C598 1.395 . S
C623 C600 1.391 . S
H624 C584 0.951 . S
H625 C585 0.950 . S
H626 C591 0.949 . S
H627 C592 0.950 . S
H628 C596 0.951 . S
H629 C597 0.950 . S
H630 C601 0.949 . S
H631 C602 0.950 . S
H632 C606 0.950 . S
H633 C608 0.950 . S
H634 C611 0.950 . S
H635 C613 0.950 . S
C636 C637 1.443 . S
C636 N640 1.376 . S
C636 C674 1.389 . S
C637 C636 1.443 . S
C637 C638 1.340 . S
C637 H677 0.951 . S
C638 C637 1.340 . S
C638 C639 1.439 . S
C638 H678 0.950 . S
C639 C638 1.439 . S
C639 N640 1.374 . S
C639 C673 1.395 . S
N640 C636 1.376 . S
N640 C639 1.374 . S
N640 Co641 2.008 . S
Co641 N640 2.008 . S
Co641 N642 1.995 . S
Co641 N647 2.008 . S
Co641 N652 1.995 . S
Co641 N657 2.282 . S
Co641 N663 2.282 . S
N642 Co641 1.995 . S
N642 C643 1.376 . S
N642 C646 1.383 . S
C643 N642 1.376 . S
C643 C644 1.446 . S
C643 C673 1.391 . S
C644 C643 1.446 . S
C644 C645 1.339 . S
C644 H679 0.949 . S
C645 C644 1.339 . S
C645 C646 1.439 . S
C645 H680 0.950 . S
C646 N642 1.383 . S
C646 C645 1.439 . S
C646 C675 1.392 . S
N647 Co641 2.008 . S
N647 C648 1.376 . S
N647 C651 1.374 . S
C648 N647 1.376 . S
C648 C649 1.443 . S
C648 C675 1.389 . S
C649 C648 1.443 . S
C649 C650 1.340 . S
C649 H681 0.951 . S
C650 C649 1.340 . S
C650 C651 1.439 . S
C650 H682 0.950 . S
C651 N647 1.374 . S
C651 C650 1.439 . S
C651 C676 1.395 . S
N652 Co641 1.995 . S
N652 C653 1.376 . S
N652 C656 1.383 . S
C653 N652 1.376 . S
C653 C654 1.446 . S
C653 C676 1.391 . S
C654 C653 1.446 . S
C654 C655 1.339 . S
C654 H683 0.949 . S
C655 C654 1.339 . S
C655 C656 1.439 . S
C655 H684 0.950 . S
C656 N652 1.383 . S
C656 C655 1.439 . S
C656 C674 1.392 . S
N657 Co641 2.282 . S
N657 C660 1.332 . S
N657 C662 1.332 . S
C658 C659 1.386 . S
C658 C661 1.388 . S
C659 C658 1.386 . S
C659 C660 1.382 . S
C659 H685 0.950 . S
C660 N657 1.332 . S
C660 C659 1.382 . S
C660 H671 0.952 . S
C661 C658 1.388 . S
C661 C662 1.382 . S
C661 H686 0.950 . S
C662 N657 1.332 . S
C662 C661 1.382 . S
C662 H672 0.948 . S
N663 Co641 2.282 . S
N663 C667 1.332 . S
N663 C668 1.332 . S
C664 C665 1.388 . S
C664 C668 1.382 . S
C664 H687 0.950 . S
C665 C664 1.388 . S
C665 C666 1.386 . S
C666 C665 1.386 . S
C666 C667 1.382 . S
C666 H688 0.950 . S
C667 N663 1.332 . S
C667 C666 1.382 . S
C667 H669 0.952 . S
C668 N663 1.332 . S
C668 C664 1.382 . S
C668 H670 0.948 . S
H669 C667 0.952 . S
H670 C668 0.948 . S
H671 C660 0.952 . S
H672 C662 0.948 . S
C673 C639 1.395 . S
C673 C643 1.391 . S
C674 C636 1.389 . S
C674 C656 1.392 . S
C675 C646 1.392 . S
C675 C648 1.389 . S
C676 C651 1.395 . S
C676 C653 1.391 . S
H677 C637 0.951 . S
H678 C638 0.950 . S
H679 C644 0.949 . S
H680 C645 0.950 . S
H681 C649 0.951 . S
H682 C650 0.950 . S
H683 C654 0.949 . S
H684 C655 0.950 . S
H685 C659 0.950 . S
H686 C661 0.950 . S
H687 C664 0.950 . S
H688 C666 0.950 . S
C689 C690 1.443 . S
C689 N693 1.376 . S
C689 C727 1.389 . S
C690 C689 1.443 . S
C690 C691 1.340 . S
C690 H730 0.951 . S
C691 C690 1.340 . S
C691 C692 1.439 . S
C691 H731 0.950 . S
C692 C691 1.439 . S
C692 N693 1.374 . S
C692 C726 1.395 . S
N693 C689 1.376 . S
N693 C692 1.374 . S
N693 Co694 2.008 . S
Co694 N693 2.008 . S
Co694 N695 1.995 . S
Co694 N700 2.008 . S
Co694 N705 1.995 . S
Co694 N710 2.282 . S
Co694 N716 2.282 . S
N695 Co694 1.995 . S
N695 C696 1.376 . S
N695 C699 1.383 . S
C696 N695 1.376 . S
C696 C697 1.446 . S
C696 C726 1.391 . S
C697 C696 1.446 . S
C697 C698 1.339 . S
C697 H732 0.949 . S
C698 C697 1.339 . S
C698 C699 1.439 . S
C698 H733 0.950 . S
C699 N695 1.383 . S
C699 C698 1.439 . S
C699 C728 1.392 . S
N700 Co694 2.008 . S
N700 C701 1.376 . S
N700 C704 1.374 . S
C701 N700 1.376 . S
C701 C702 1.443 . S
C701 C728 1.389 . S
C702 C701 1.443 . S
C702 C703 1.340 . S
C702 H734 0.951 . S
C703 C702 1.340 . S
C703 C704 1.439 . S
C703 H735 0.950 . S
C704 N700 1.374 . S
C704 C703 1.439 . S
C704 C729 1.395 . S
N705 Co694 1.995 . S
N705 C706 1.376 . S
N705 C709 1.383 . S
C706 N705 1.376 . S
C706 C707 1.446 . S
C706 C729 1.391 . S
C707 C706 1.446 . S
C707 C708 1.339 . S
C707 H736 0.949 . S
C708 C707 1.339 . S
C708 C709 1.439 . S
C708 H737 0.950 . S
C709 N705 1.383 . S
C709 C708 1.439 . S
C709 C727 1.392 . S
N710 Co694 2.282 . S
N710 C713 1.332 . S
N710 C715 1.332 . S
C711 C712 1.386 . S
C711 C714 1.388 . S
C712 C711 1.386 . S
C712 C713 1.382 . S
C712 H738 0.950 . S
C713 N710 1.332 . S
C713 C712 1.382 . S
C713 H724 0.952 . S
C714 C711 1.388 . S
C714 C715 1.382 . S
C714 H739 0.950 . S
C715 N710 1.332 . S
C715 C714 1.382 . S
C715 H725 0.948 . S
N716 Co694 2.282 . S
N716 C720 1.332 . S
N716 C721 1.332 . S
C717 C718 1.388 . S
C717 C721 1.382 . S
C717 H740 0.950 . S
C718 C717 1.388 . S
C718 C719 1.386 . S
C719 C718 1.386 . S
C719 C720 1.382 . S
C719 H741 0.950 . S
C720 N716 1.332 . S
C720 C719 1.382 . S
C720 H722 0.952 . S
C721 N716 1.332 . S
C721 C717 1.382 . S
C721 H723 0.948 . S
H722 C720 0.952 . S
H723 C721 0.948 . S
H724 C713 0.952 . S
H725 C715 0.948 . S
C726 C692 1.395 . S
C726 C696 1.391 . S
C727 C689 1.389 . S
C727 C709 1.392 . S
C728 C699 1.392 . S
C728 C701 1.389 . S
C729 C704 1.395 . S
C729 C706 1.391 . S
H730 C690 0.951 . S
H731 C691 0.950 . S
H732 C697 0.949 . S
H733 C698 0.950 . S
H734 C702 0.951 . S
H735 C703 0.950 . S
H736 C707 0.949 . S
H737 C708 0.950 . S
H738 C712 0.950 . S
H739 C714 0.950 . S
H740 C717 0.950 . S
H741 C719 0.950 . S
C742 C743 1.443 . S
C742 N746 1.376 . S
C742 C780 1.389 . S
C743 C742 1.443 . S
C743 C744 1.340 . S
C743 H783 0.951 . S
C744 C743 1.340 . S
C744 C745 1.439 . S
C744 H784 0.950 . S
C745 C744 1.439 . S
C745 N746 1.374 . S
C745 C779 1.395 . S
N746 C742 1.376 . S
N746 C745 1.374 . S
N746 Co747 2.008 . S
Co747 N746 2.008 . S
Co747 N748 1.995 . S
Co747 N753 2.008 . S
Co747 N758 1.995 . S
Co747 N763 2.282 . S
Co747 N769 2.282 . S
N748 Co747 1.995 . S
N748 C749 1.376 . S
N748 C752 1.383 . S
C749 N748 1.376 . S
C749 C750 1.446 . S
C749 C779 1.391 . S
C750 C749 1.446 . S
C750 C751 1.339 . S
C750 H785 0.949 . S
C751 C750 1.339 . S
C751 C752 1.439 . S
C751 H786 0.950 . S
C752 N748 1.383 . S
C752 C751 1.439 . S
C752 C781 1.392 . S
N753 Co747 2.008 . S
N753 C754 1.376 . S
N753 C757 1.374 . S
C754 N753 1.376 . S
C754 C755 1.443 . S
C754 C781 1.389 . S
C755 C754 1.443 . S
C755 C756 1.340 . S
C755 H787 0.951 . S
C756 C755 1.340 . S
C756 C757 1.439 . S
C756 H788 0.950 . S
C757 N753 1.374 . S
C757 C756 1.439 . S
C757 C782 1.395 . S
N758 Co747 1.995 . S
N758 C759 1.376 . S
N758 C762 1.383 . S
C759 N758 1.376 . S
C759 C760 1.446 . S
C759 C782 1.391 . S
C760 C759 1.446 . S
C760 C761 1.339 . S
C760 H789 0.949 . S
C761 C760 1.339 . S
C761 C762 1.439 . S
C761 H790 0.950 . S
C762 N758 1.383 . S
C762 C761 1.439 . S
C762 C780 1.392 . S
N763 Co747 2.282 . S
N763 C766 1.332 . S
N763 C768 1.332 . S
C764 C765 1.386 . S
C764 C767 1.388 . S
C765 C764 1.386 . S
C765 C766 1.382 . S
C765 H791 0.950 . S
C766 N763 1.332 . S
C766 C765 1.382 . S
C766 H777 0.952 . S
C767 C764 1.388 . S
C767 C768 1.382 . S
C767 H792 0.950 . S
C768 N763 1.332 . S
C768 C767 1.382 . S
C768 H778 0.948 . S
N769 Co747 2.282 . S
N769 C773 1.332 . S
N769 C774 1.332 . S
C770 C771 1.388 . S
C770 C774 1.382 . S
C770 H793 0.950 . S
C771 C770 1.388 . S
C771 C772 1.386 . S
C772 C771 1.386 . S
C772 C773 1.382 . S
C772 H794 0.950 . S
C773 N769 1.332 . S
C773 C772 1.382 . S
C773 H775 0.952 . S
C774 N769 1.332 . S
C774 C770 1.382 . S
C774 H776 0.948 . S
H775 C773 0.952 . S
H776 C774 0.948 . S
H777 C766 0.952 . S
H778 C768 0.948 . S
C779 C745 1.395 . S
C779 C749 1.391 . S
C780 C742 1.389 . S
C780 C762 1.392 . S
C781 C752 1.392 . S
C781 C754 1.389 . S
C782 C757 1.395 . S
C782 C759 1.391 . S
H783 C743 0.951 . S
H784 C744 0.950 . S
H785 C750 0.949 . S
H786 C751 0.950 . S
H787 C755 0.951 . S
H788 C756 0.950 . S
H789 C760 0.949 . S
H790 C761 0.950 . S
H791 C765 0.950 . S
H792 C767 0.950 . S
H793 C770 0.950 . S
H794 C772 0.950 . S
C795 C796 1.443 . S
C795 N799 1.376 . S
C795 C833 1.389 . S
C796 C795 1.443 . S
C796 C797 1.340 . S
C796 H836 0.951 . S
C797 C796 1.340 . S
C797 C798 1.439 . S
C797 H837 0.950 . S
C798 C797 1.439 . S
C798 N799 1.374 . S
C798 C832 1.395 . S
N799 C795 1.376 . S
N799 C798 1.374 . S
N799 Co800 2.008 . S
Co800 N799 2.008 . S
Co800 N801 1.995 . S
Co800 N806 2.008 . S
Co800 N811 1.995 . S
Co800 N816 2.282 . S
Co800 N822 2.282 . S
N801 Co800 1.995 . S
N801 C802 1.376 . S
N801 C805 1.383 . S
C802 N801 1.376 . S
C802 C803 1.446 . S
C802 C832 1.391 . S
C803 C802 1.446 . S
C803 C804 1.339 . S
C803 H838 0.949 . S
C804 C803 1.339 . S
C804 C805 1.439 . S
C804 H839 0.950 . S
C805 N801 1.383 . S
C805 C804 1.439 . S
C805 C834 1.392 . S
N806 Co800 2.008 . S
N806 C807 1.376 . S
N806 C810 1.374 . S
C807 N806 1.376 . S
C807 C808 1.443 . S
C807 C834 1.389 . S
C808 C807 1.443 . S
C808 C809 1.340 . S
C808 H840 0.951 . S
C809 C808 1.340 . S
C809 C810 1.439 . S
C809 H841 0.950 . S
C810 N806 1.374 . S
C810 C809 1.439 . S
C810 C835 1.395 . S
N811 Co800 1.995 . S
N811 C812 1.376 . S
N811 C815 1.383 . S
C812 N811 1.376 . S
C812 C813 1.446 . S
C812 C835 1.391 . S
C813 C812 1.446 . S
C813 C814 1.339 . S
C813 H842 0.949 . S
C814 C813 1.339 . S
C814 C815 1.439 . S
C814 H843 0.950 . S
C815 N811 1.383 . S
C815 C814 1.439 . S
C815 C833 1.392 . S
N816 Co800 2.282 . S
N816 C819 1.332 . S
N816 C821 1.332 . S
C817 C818 1.386 . S
C817 C820 1.388 . S
C818 C817 1.386 . S
C818 C819 1.382 . S
C818 H844 0.950 . S
C819 N816 1.332 . S
C819 C818 1.382 . S
C819 H830 0.952 . S
C820 C817 1.388 . S
C820 C821 1.382 . S
C820 H845 0.950 . S
C821 N816 1.332 . S
C821 C820 1.382 . S
C821 H831 0.948 . S
N822 Co800 2.282 . S
N822 C826 1.332 . S
N822 C827 1.332 . S
C823 C824 1.388 . S
C823 C827 1.382 . S
C823 H846 0.950 . S
C824 C823 1.388 . S
C824 C825 1.386 . S
C825 C824 1.386 . S
C825 C826 1.382 . S
C825 H847 0.950 . S
C826 N822 1.332 . S
C826 C825 1.382 . S
C826 H828 0.952 . S
C827 N822 1.332 . S
C827 C823 1.382 . S
C827 H829 0.948 . S
H828 C826 0.952 . S
H829 C827 0.948 . S
H830 C819 0.952 . S
H831 C821 0.948 . S
C832 C798 1.395 . S
C832 C802 1.391 . S
C833 C795 1.389 . S
C833 C815 1.392 . S
C834 C805 1.392 . S
C834 C807 1.389 . S
C835 C810 1.395 . S
C835 C812 1.391 . S
H836 C796 0.951 . S
H837 C797 0.950 . S
H838 C803 0.949 . S
H839 C804 0.950 . S
H840 C808 0.951 . S
H841 C809 0.950 . S
H842 C813 0.949 . S
H843 C814 0.950 . S
H844 C818 0.950 . S
H845 C820 0.950 . S
H846 C823 0.950 . S
H847 C825 0.950 . S
H848 C856 0.950 . S
H849 C861 0.950 . S
H850 C858 0.950 . S
H851 C860 0.950 . S
H852 C862 0.950 . S
H853 C864 0.950 . S
H854 C866 0.950 . S
H855 C867 0.950 . S
C856 H848 0.950 . S
C856 C857 1.386 . S
C856 C858 1.391 . S
C857 C856 1.386 . S
C857 C861 1.393 . S
C858 H850 0.950 . S
C858 C856 1.391 . S
C858 C859 1.400 . S
C859 C858 1.400 . S
C859 C860 1.398 . S
C859 C865 1.491 1_455 S
C860 H851 0.950 . S
C860 C859 1.398 . S
C860 C861 1.391 . S
C861 H849 0.950 . S
C861 C857 1.393 . S
C861 C860 1.391 . S
C862 H852 0.950 . S
C862 C863 1.386 . S
C862 C864 1.391 . S
C863 C862 1.386 . S
C863 C867 1.393 . S
C864 H853 0.950 . S
C864 C862 1.391 . S
C864 C865 1.400 . S
C865 C859 1.491 1_655 S
C865 C864 1.400 . S
C865 C866 1.398 . S
C866 H854 0.950 . S
C866 C865 1.398 . S
C866 C867 1.391 . S
C867 H855 0.950 . S
C867 C863 1.393 . S
C867 C866 1.391 . S
H868 C876 0.950 . S
H869 C881 0.950 . S
H870 C878 0.950 . S
H871 C880 0.950 . S
H872 C882 0.950 . S
H873 C884 0.950 . S
H874 C886 0.950 . S
H875 C887 0.950 . S
C876 H868 0.950 . S
C876 C877 1.386 . S
C876 C878 1.391 . S
C877 C876 1.386 . S
C877 C881 1.393 . S
C878 H870 0.950 . S
C878 C876 1.391 . S
C878 C879 1.400 . S
C879 C878 1.400 . S
C879 C880 1.398 . S
C879 C885 1.491 1_565 S
C880 H871 0.950 . S
C880 C879 1.398 . S
C880 C881 1.391 . S
C881 H869 0.950 . S
C881 C877 1.393 . S
C881 C880 1.391 . S
C882 H872 0.950 . S
C882 C883 1.386 . S
C882 C884 1.391 . S
C883 C882 1.386 . S
C883 C887 1.393 . S
C884 H873 0.950 . S
C884 C882 1.391 . S
C884 C885 1.400 . S
C885 C879 1.491 1_545 S
C885 C884 1.400 . S
C885 C886 1.398 . S
C886 H874 0.950 . S
C886 C885 1.398 . S
C886 C887 1.391 . S
C887 H875 0.950 . S
C887 C883 1.393 . S
C887 C886 1.391 . S
H888 C896 0.950 . S
H889 C901 0.950 . S
H890 C898 0.950 . S
H891 C900 0.950 . S
H892 C902 0.950 . S
H893 C904 0.950 . S
H894 C906 0.950 . S
H895 C907 0.950 . S
C896 H888 0.950 . S
C896 C897 1.386 . S
C896 C898 1.391 . S
C897 C896 1.386 . S
C897 C901 1.393 . S
C898 H890 0.950 . S
C898 C896 1.391 . S
C898 C899 1.400 . S
C899 C898 1.400 . S
C899 C900 1.398 . S
C899 C905 1.491 1_455 S
C900 H891 0.950 . S
C900 C899 1.398 . S
C900 C901 1.391 . S
C901 H889 0.950 . S
C901 C897 1.393 . S
C901 C900 1.391 . S
C902 H892 0.950 . S
C902 C903 1.386 . S
C902 C904 1.391 . S
C903 C902 1.386 . S
C903 C907 1.393 . S
C904 H893 0.950 . S
C904 C902 1.391 . S
C904 C905 1.400 . S
C905 C899 1.491 1_655 S
C905 C904 1.400 . S
C905 C906 1.398 . S
C906 H894 0.950 . S
C906 C905 1.398 . S
C906 C907 1.391 . S
C907 H895 0.950 . S
C907 C903 1.393 . S
C907 C906 1.391 . S
H908 C916 0.950 . S
H909 C921 0.950 . S
H910 C918 0.950 . S
H911 C920 0.950 . S
H912 C922 0.950 . S
H913 C924 0.950 . S
H914 C926 0.950 . S
H915 C927 0.950 . S
C916 H908 0.950 . S
C916 C917 1.386 . S
C916 C918 1.391 . S
C917 C916 1.386 . S
C917 C921 1.393 . S
C918 H910 0.950 . S
C918 C916 1.391 . S
C918 C919 1.400 . S
C919 C918 1.400 . S
C919 C920 1.398 . S
C919 C925 1.491 1_565 S
C920 H911 0.950 . S
C920 C919 1.398 . S
C920 C921 1.391 . S
C921 H909 0.950 . S
C921 C917 1.393 . S
C921 C920 1.391 . S
C922 H912 0.950 . S
C922 C923 1.386 . S
C922 C924 1.391 . S
C923 C922 1.386 . S
C923 C927 1.393 . S
C924 H913 0.950 . S
C924 C922 1.391 . S
C924 C925 1.400 . S
C925 C919 1.491 1_545 S
C925 C924 1.400 . S
C925 C926 1.398 . S
C926 H914 0.950 . S
C926 C925 1.398 . S
C926 C927 1.391 . S
C927 H915 0.950 . S
C927 C923 1.393 . S
C927 C926 1.391 . S
H928 C936 0.950 . S
H929 C941 0.950 . S
H930 C938 0.950 . S
H931 C940 0.950 . S
H932 C942 0.950 . S
H933 C944 0.950 . S
H934 C946 0.950 . S
H935 C947 0.950 . S
C936 H928 0.950 . S
C936 C937 1.386 . S
C936 C938 1.391 . S
C937 C936 1.386 . S
C937 C941 1.393 . S
C938 H930 0.950 . S
C938 C936 1.391 . S
C938 C939 1.400 . S
C939 C938 1.400 . S
C939 C940 1.398 . S
C939 C945 1.491 1_655 S
C940 H931 0.950 . S
C940 C939 1.398 . S
C940 C941 1.391 . S
C941 H929 0.950 . S
C941 C937 1.393 . S
C941 C940 1.391 . S
C942 H932 0.950 . S
C942 C943 1.386 . S
C942 C944 1.391 . S
C943 C942 1.386 . S
C943 C947 1.393 . S
C944 H933 0.950 . S
C944 C942 1.391 . S
C944 C945 1.400 . S
C945 C939 1.491 1_455 S
C945 C944 1.400 . S
C945 C946 1.398 . S
C946 H934 0.950 . S
C946 C945 1.398 . S
C946 C947 1.391 . S
C947 H935 0.950 . S
C947 C943 1.393 . S
C947 C946 1.391 . S
H948 C956 0.950 . S
H949 C961 0.950 . S
H950 C958 0.950 . S
H951 C960 0.950 . S
H952 C962 0.950 . S
H953 C964 0.950 . S
H954 C966 0.950 . S
H955 C967 0.950 . S
C956 H948 0.950 . S
C956 C957 1.386 . S
C956 C958 1.391 . S
C957 C956 1.386 . S
C957 C961 1.393 . S
C958 H950 0.950 . S
C958 C956 1.391 . S
C958 C959 1.400 . S
C959 C958 1.400 . S
C959 C960 1.398 . S
C959 C965 1.491 1_545 S
C960 H951 0.950 . S
C960 C959 1.398 . S
C960 C961 1.391 . S
C961 H949 0.950 . S
C961 C957 1.393 . S
C961 C960 1.391 . S
C962 H952 0.950 . S
C962 C963 1.386 . S
C962 C964 1.391 . S
C963 C962 1.386 . S
C963 C967 1.393 . S
C964 H953 0.950 . S
C964 C962 1.391 . S
C964 C965 1.400 . S
C965 C959 1.491 1_565 S
C965 C964 1.400 . S
C965 C966 1.398 . S
C966 H954 0.950 . S
C966 C965 1.398 . S
C966 C967 1.391 . S
C967 H955 0.950 . S
C967 C963 1.393 . S
C967 C966 1.391 . S
H968 C976 0.950 . S
H969 C981 0.950 . S
H970 C978 0.950 . S
H971 C980 0.950 . S
H972 C982 0.950 . S
H973 C984 0.950 . S
H974 C986 0.950 . S
H975 C987 0.950 . S
C976 H968 0.950 . S
C976 C977 1.386 . S
C976 C978 1.391 . S
C977 C976 1.386 . S
C977 C981 1.393 . S
C978 H970 0.950 . S
C978 C976 1.391 . S
C978 C979 1.400 . S
C979 C978 1.400 . S
C979 C980 1.398 . S
C979 C985 1.491 1_655 S
C980 H971 0.950 . S
C980 C979 1.398 . S
C980 C981 1.391 . S
C981 H969 0.950 . S
C981 C977 1.393 . S
C981 C980 1.391 . S
C982 H972 0.950 . S
C982 C983 1.386 . S
C982 C984 1.391 . S
C983 C982 1.386 . S
C983 C987 1.393 . S
C984 H973 0.950 . S
C984 C982 1.391 . S
C984 C985 1.400 . S
C985 C979 1.491 1_455 S
C985 C984 1.400 . S
C985 C986 1.398 . S
C986 H974 0.950 . S
C986 C985 1.398 . S
C986 C987 1.391 . S
C987 H975 0.950 . S
C987 C983 1.393 . S
C987 C986 1.391 . S
H988 C996 0.950 . S
H989 C1001 0.950 . S
H990 C998 0.950 . S
H991 C1000 0.950 . S
H992 C1002 0.950 . S
H993 C1004 0.950 . S
H994 C1006 0.950 . S
H995 C1007 0.950 . S
C996 H988 0.950 . S
C996 C997 1.386 . S
C996 C998 1.391 . S
C997 C996 1.386 . S
C997 C1001 1.393 . S
C998 H990 0.950 . S
C998 C996 1.391 . S
C998 C999 1.400 . S
C999 C998 1.400 . S
C999 C1000 1.398 . S
C999 C1005 1.491 1_545 S
C1000 H991 0.950 . S
C1000 C999 1.398 . S
C1000 C1001 1.391 . S
C1001 H989 0.950 . S
C1001 C997 1.393 . S
C1001 C1000 1.391 . S
C1002 H992 0.950 . S
C1002 C1003 1.386 . S
C1002 C1004 1.391 . S
C1003 C1002 1.386 . S
C1003 C1007 1.393 . S
C1004 H993 0.950 . S
C1004 C1002 1.391 . S
C1004 C1005 1.400 . S
C1005 C999 1.491 1_565 S
C1005 C1004 1.400 . S
C1005 C1006 1.398 . S
C1006 H994 0.950 . S
C1006 C1005 1.398 . S
C1006 C1007 1.391 . S
C1007 H995 0.950 . S
C1007 C1003 1.393 . S
C1007 C1006 1.391 . S
H1008 C1016 0.950 . S
H1009 C1021 0.950 . S
H1010 C1018 0.950 . S
H1011 C1020 0.950 . S
H1012 C1022 0.950 . S
H1013 C1024 0.950 . S
H1014 C1026 0.950 . S
H1015 C1027 0.950 . S
C1016 H1008 0.950 . S
C1016 C1017 1.386 . S
C1016 C1018 1.391 . S
C1017 C1016 1.386 . S
C1017 C1021 1.393 . S
C1018 H1010 0.950 . S
C1018 C1016 1.391 . S
C1018 C1019 1.400 . S
C1019 C1018 1.400 . S
C1019 C1020 1.398 . S
C1019 C1025 1.491 . S
C1020 H1011 0.950 . S
C1020 C1019 1.398 . S
C1020 C1021 1.391 . S
C1021 H1009 0.950 . S
C1021 C1017 1.393 . S
C1021 C1020 1.391 . S
C1022 H1012 0.950 . S
C1022 C1023 1.386 . S
C1022 C1024 1.391 . S
C1023 C1022 1.386 . S
C1023 C1027 1.393 . S
C1024 H1013 0.950 . S
C1024 C1022 1.391 . S
C1024 C1025 1.400 . S
C1025 C1019 1.491 . S
C1025 C1024 1.400 . S
C1025 C1026 1.398 . S
C1026 H1014 0.950 . S
C1026 C1025 1.398 . S
C1026 C1027 1.391 . S
C1027 H1015 0.950 . S
C1027 C1023 1.393 . S
C1027 C1026 1.391 . S
H1028 C1036 0.950 . S
H1029 C1041 0.950 . S
H1030 C1038 0.950 . S
H1031 C1040 0.950 . S
H1032 C1042 0.950 . S
H1033 C1044 0.950 . S
H1034 C1046 0.950 . S
H1035 C1047 0.950 . S
C1036 H1028 0.950 . S
C1036 C1037 1.386 . S
C1036 C1038 1.391 . S
C1037 C1036 1.386 . S
C1037 C1041 1.393 . S
C1038 H1030 0.950 . S
C1038 C1036 1.391 . S
C1038 C1039 1.400 . S
C1039 C1038 1.400 . S
C1039 C1040 1.398 . S
C1039 C1045 1.491 . S
C1040 H1031 0.950 . S
C1040 C1039 1.398 . S
C1040 C1041 1.391 . S
C1041 H1029 0.950 . S
C1041 C1037 1.393 . S
C1041 C1040 1.391 . S
C1042 H1032 0.950 . S
C1042 C1043 1.386 . S
C1042 C1044 1.391 . S
C1043 C1042 1.386 . S
C1043 C1047 1.393 . S
C1044 H1033 0.950 . S
C1044 C1042 1.391 . S
C1044 C1045 1.400 . S
C1045 C1039 1.491 . S
C1045 C1044 1.400 . S
C1045 C1046 1.398 . S
C1046 H1034 0.950 . S
C1046 C1045 1.398 . S
C1046 C1047 1.391 . S
C1047 H1035 0.950 . S
C1047 C1043 1.393 . S
C1047 C1046 1.391 . S
H1048 C1056 0.950 . S
H1049 C1061 0.950 . S
H1050 C1058 0.950 . S
H1051 C1060 0.950 . S
H1052 C1062 0.950 . S
H1053 C1064 0.950 . S
H1054 C1066 0.950 . S
H1055 C1067 0.950 . S
C1056 H1048 0.950 . S
C1056 C1057 1.386 . S
C1056 C1058 1.391 . S
C1057 C1056 1.386 . S
C1057 C1061 1.393 . S
C1058 H1050 0.950 . S
C1058 C1056 1.391 . S
C1058 C1059 1.400 . S
C1059 C1058 1.400 . S
C1059 C1060 1.398 . S
C1059 C1065 1.491 . S
C1060 H1051 0.950 . S
C1060 C1059 1.398 . S
C1060 C1061 1.391 . S
C1061 H1049 0.950 . S
C1061 C1057 1.393 . S
C1061 C1060 1.391 . S
C1062 H1052 0.950 . S
C1062 C1063 1.386 . S
C1062 C1064 1.391 . S
C1063 C1062 1.386 . S
C1063 C1067 1.393 . S
C1064 H1053 0.950 . S
C1064 C1062 1.391 . S
C1064 C1065 1.400 . S
C1065 C1059 1.491 . S
C1065 C1064 1.400 . S
C1065 C1066 1.398 . S
C1066 H1054 0.950 . S
C1066 C1065 1.398 . S
C1066 C1067 1.391 . S
C1067 H1055 0.950 . S
C1067 C1063 1.393 . S
C1067 C1066 1.391 . S
H1068 C1076 0.950 . S
H1069 C1081 0.950 . S
H1070 C1078 0.950 . S
H1071 C1080 0.950 . S
H1072 C1082 0.950 . S
H1073 C1084 0.950 . S
H1074 C1086 0.950 . S
H1075 C1087 0.950 . S
C1076 H1068 0.950 . S
C1076 C1077 1.386 . S
C1076 C1078 1.391 . S
C1077 C1076 1.386 . S
C1077 C1081 1.393 . S
C1078 H1070 0.950 . S
C1078 C1076 1.391 . S
C1078 C1079 1.400 . S
C1079 C1078 1.400 . S
C1079 C1080 1.398 . S
C1079 C1085 1.491 . S
C1080 H1071 0.950 . S
C1080 C1079 1.398 . S
C1080 C1081 1.391 . S
C1081 H1069 0.950 . S
C1081 C1077 1.393 . S
C1081 C1080 1.391 . S
C1082 H1072 0.950 . S
C1082 C1083 1.386 . S
C1082 C1084 1.391 . S
C1083 C1082 1.386 . S
C1083 C1087 1.393 . S
C1084 H1073 0.950 . S
C1084 C1082 1.391 . S
C1084 C1085 1.400 . S
C1085 C1079 1.491 . S
C1085 C1084 1.400 . S
C1085 C1086 1.398 . S
C1086 H1074 0.950 . S
C1086 C1085 1.398 . S
C1086 C1087 1.391 . S
C1087 H1075 0.950 . S
C1087 C1083 1.393 . S
C1087 C1086 1.391 . S
H1088 C1096 0.950 . S
H1089 C1101 0.950 . S
H1090 C1098 0.950 . S
H1091 C1100 0.950 . S
H1092 C1102 0.950 . S
H1093 C1104 0.950 . S
H1094 C1106 0.950 . S
H1095 C1107 0.950 . S
C1096 H1088 0.950 . S
C1096 C1097 1.386 . S
C1096 C1098 1.391 . S
C1097 C1096 1.386 . S
C1097 C1101 1.393 . S
C1098 H1090 0.950 . S
C1098 C1096 1.391 . S
C1098 C1099 1.400 . S
C1099 C1098 1.400 . S
C1099 C1100 1.398 . S
C1099 C1105 1.491 . S
C1100 H1091 0.950 . S
C1100 C1099 1.398 . S
C1100 C1101 1.391 . S
C1101 H1089 0.950 . S
C1101 C1097 1.393 . S
C1101 C1100 1.391 . S
C1102 H1092 0.950 . S
C1102 C1103 1.386 . S
C1102 C1104 1.391 . S
C1103 C1102 1.386 . S
C1103 C1107 1.393 . S
C1104 H1093 0.950 . S
C1104 C1102 1.391 . S
C1104 C1105 1.400 . S
C1105 C1099 1.491 . S
C1105 C1104 1.400 . S
C1105 C1106 1.398 . S
C1106 H1094 0.950 . S
C1106 C1105 1.398 . S
C1106 C1107 1.391 . S
C1107 H1095 0.950 . S
C1107 C1103 1.393 . S
C1107 C1106 1.391 . S
H1108 C1116 0.950 . S
H1109 C1121 0.950 . S
H1110 C1118 0.950 . S
H1111 C1120 0.950 . S
H1112 C1122 0.950 . S
H1113 C1124 0.950 . S
H1114 C1126 0.950 . S
H1115 C1127 0.950 . S
C1116 H1108 0.950 . S
C1116 C1117 1.386 . S
C1116 C1118 1.391 . S
C1117 C1116 1.386 . S
C1117 C1121 1.393 . S
C1118 H1110 0.950 . S
C1118 C1116 1.391 . S
C1118 C1119 1.400 . S
C1119 C1118 1.400 . S
C1119 C1120 1.398 . S
C1119 C1125 1.491 . S
C1120 H1111 0.950 . S
C1120 C1119 1.398 . S
C1120 C1121 1.391 . S
C1121 H1109 0.950 . S
C1121 C1117 1.393 . S
C1121 C1120 1.391 . S
C1122 H1112 0.950 . S
C1122 C1123 1.386 . S
C1122 C1124 1.391 . S
C1123 C1122 1.386 . S
C1123 C1127 1.393 . S
C1124 H1113 0.950 . S
C1124 C1122 1.391 . S
C1124 C1125 1.400 . S
C1125 C1119 1.491 . S
C1125 C1124 1.400 . S
C1125 C1126 1.398 . S
C1126 H1114 0.950 . S
C1126 C1125 1.398 . S
C1126 C1127 1.391 . S
C1127 H1115 0.950 . S
C1127 C1123 1.393 . S
C1127 C1126 1.391 . S
H1128 C1136 0.950 . S
H1129 C1141 0.950 . S
H1130 C1138 0.950 . S
H1131 C1140 0.950 . S
H1132 C1142 0.950 . S
H1133 C1144 0.950 . S
H1134 C1146 0.950 . S
H1135 C1147 0.950 . S
C1136 H1128 0.950 . S
C1136 C1137 1.386 . S
C1136 C1138 1.391 . S
C1137 C1136 1.386 . S
C1137 C1141 1.393 . S
C1138 H1130 0.950 . S
C1138 C1136 1.391 . S
C1138 C1139 1.400 . S
C1139 C1138 1.400 . S
C1139 C1140 1.398 . S
C1139 C1145 1.491 . S
C1140 H1131 0.950 . S
C1140 C1139 1.398 . S
C1140 C1141 1.391 . S
C1141 H1129 0.950 . S
C1141 C1137 1.393 . S
C1141 C1140 1.391 . S
C1142 H1132 0.950 . S
C1142 C1143 1.386 . S
C1142 C1144 1.391 . S
C1143 C1142 1.386 . S
C1143 C1147 1.393 . S
C1144 H1133 0.950 . S
C1144 C1142 1.391 . S
C1144 C1145 1.400 . S
C1145 C1139 1.491 . S
C1145 C1144 1.400 . S
C1145 C1146 1.398 . S
C1146 H1134 0.950 . S
C1146 C1145 1.398 . S
C1146 C1147 1.391 . S
C1147 H1135 0.950 . S
C1147 C1143 1.393 . S
C1147 C1146 1.391 . S
H1148 C1156 0.950 . S
H1149 C1161 0.950 . S
H1150 C1158 0.950 . S
H1151 C1160 0.950 . S
H1152 C1162 0.950 . S
H1153 C1164 0.950 . S
H1154 C1166 0.950 . S
H1155 C1167 0.950 . S
C1156 H1148 0.950 . S
C1156 C1157 1.386 . S
C1156 C1158 1.391 . S
C1157 C1156 1.386 . S
C1157 C1161 1.393 . S
C1158 H1150 0.950 . S
C1158 C1156 1.391 . S
C1158 C1159 1.400 . S
C1159 C1158 1.400 . S
C1159 C1160 1.398 . S
C1159 C1165 1.491 . S
C1160 H1151 0.950 . S
C1160 C1159 1.398 . S
C1160 C1161 1.391 . S
C1161 H1149 0.950 . S
C1161 C1157 1.393 . S
C1161 C1160 1.391 . S
C1162 H1152 0.950 . S
C1162 C1163 1.386 . S
C1162 C1164 1.391 . S
C1163 C1162 1.386 . S
C1163 C1167 1.393 . S
C1164 H1153 0.950 . S
C1164 C1162 1.391 . S
C1164 C1165 1.400 . S
C1165 C1159 1.491 . S
C1165 C1164 1.400 . S
C1165 C1166 1.398 . S
C1166 H1154 0.950 . S
C1166 C1165 1.398 . S
C1166 C1167 1.391 . S
C1167 H1155 0.950 . S
C1167 C1163 1.393 . S
C1167 C1166 1.391 . S
H1168 C1176 0.950 . S
H1169 C1181 0.950 . S
H1170 C1178 0.950 . S
H1171 C1180 0.950 . S
H1172 C1182 0.950 . S
H1173 C1184 0.950 . S
H1174 C1186 0.950 . S
H1175 C1187 0.950 . S
C1176 H1168 0.950 . S
C1176 C1177 1.386 . S
C1176 C1178 1.391 . S
C1177 C1176 1.386 . S
C1177 C1181 1.393 . S
C1178 H1170 0.950 . S
C1178 C1176 1.391 . S
C1178 C1179 1.400 . S
C1179 C1178 1.400 . S
C1179 C1180 1.398 . S
C1179 C1185 1.491 1_556 S
C1180 H1171 0.950 . S
C1180 C1179 1.398 . S
C1180 C1181 1.391 . S
C1181 H1169 0.950 . S
C1181 C1177 1.393 . S
C1181 C1180 1.391 . S
C1182 H1172 0.950 . S
C1182 C1183 1.386 . S
C1182 C1184 1.391 . S
C1183 C1182 1.386 . S
C1183 C1187 1.393 . S
C1184 H1173 0.950 . S
C1184 C1182 1.391 . S
C1184 C1185 1.400 . S
C1185 C1179 1.491 1_554 S
C1185 C1184 1.400 . S
C1185 C1186 1.398 . S
C1186 H1174 0.950 . S
C1186 C1185 1.398 . S
C1186 C1187 1.391 . S
C1187 H1175 0.950 . S
C1187 C1183 1.393 . S
C1187 C1186 1.391 . S
H1188 C1196 0.950 . S
H1189 C1201 0.950 . S
H1190 C1198 0.950 . S
H1191 C1200 0.950 . S
H1192 C1202 0.950 . S
H1193 C1204 0.950 . S
H1194 C1206 0.950 . S
H1195 C1207 0.950 . S
C1196 H1188 0.950 . S
C1196 C1197 1.386 . S
C1196 C1198 1.391 . S
C1197 C1196 1.386 . S
C1197 C1201 1.393 . S
C1198 H1190 0.950 . S
C1198 C1196 1.391 . S
C1198 C1199 1.400 . S
C1199 C1198 1.400 . S
C1199 C1200 1.398 . S
C1199 C1205 1.491 . S
C1200 H1191 0.950 . S
C1200 C1199 1.398 . S
C1200 C1201 1.391 . S
C1201 H1189 0.950 . S
C1201 C1197 1.393 . S
C1201 C1200 1.391 . S
C1202 H1192 0.950 . S
C1202 C1203 1.386 . S
C1202 C1204 1.391 . S
C1203 C1202 1.386 . S
C1203 C1207 1.393 . S
C1204 H1193 0.950 . S
C1204 C1202 1.391 . S
C1204 C1205 1.400 . S
C1205 C1199 1.491 . S
C1205 C1204 1.400 . S
C1205 C1206 1.398 . S
C1206 H1194 0.950 . S
C1206 C1205 1.398 . S
C1206 C1207 1.391 . S
C1207 H1195 0.950 . S
C1207 C1203 1.393 . S
C1207 C1206 1.391 . S
H1208 C1216 0.950 . S
H1209 C1221 0.950 . S
H1210 C1218 0.950 . S
H1211 C1220 0.950 . S
H1212 C1222 0.950 . S
H1213 C1224 0.950 . S
H1214 C1226 0.950 . S
H1215 C1227 0.950 . S
C1216 H1208 0.950 . S
C1216 C1217 1.386 . S
C1216 C1218 1.391 . S
C1217 C1216 1.386 . S
C1217 C1221 1.393 . S
C1218 H1210 0.950 . S
C1218 C1216 1.391 . S
C1218 C1219 1.400 . S
C1219 C1218 1.400 . S
C1219 C1220 1.398 . S
C1219 C1225 1.491 1_554 S
C1220 H1211 0.950 . S
C1220 C1219 1.398 . S
C1220 C1221 1.391 . S
C1221 H1209 0.950 . S
C1221 C1217 1.393 . S
C1221 C1220 1.391 . S
C1222 H1212 0.950 . S
C1222 C1223 1.386 . S
C1222 C1224 1.391 . S
C1223 C1222 1.386 . S
C1223 C1227 1.393 . S
C1224 H1213 0.950 . S
C1224 C1222 1.391 . S
C1224 C1225 1.400 . S
C1225 C1219 1.491 1_556 S
C1225 C1224 1.400 . S
C1225 C1226 1.398 . S
C1226 H1214 0.950 . S
C1226 C1225 1.398 . S
C1226 C1227 1.391 . S
C1227 H1215 0.950 . S
C1227 C1223 1.393 . S
C1227 C1226 1.391 . S
H1228 C1236 0.950 . S
H1229 C1241 0.950 . S
H1230 C1238 0.950 . S
H1231 C1240 0.950 . S
H1232 C1242 0.950 . S
H1233 C1244 0.950 . S
H1234 C1246 0.950 . S
H1235 C1247 0.950 . S
C1236 H1228 0.950 . S
C1236 C1237 1.386 . S
C1236 C1238 1.391 . S
C1237 C1236 1.386 . S
C1237 C1241 1.393 . S
C1238 H1230 0.950 . S
C1238 C1236 1.391 . S
C1238 C1239 1.400 . S
C1239 C1238 1.400 . S
C1239 C1240 1.398 . S
C1239 C1245 1.491 . S
C1240 H1231 0.950 . S
C1240 C1239 1.398 . S
C1240 C1241 1.391 . S
C1241 H1229 0.950 . S
C1241 C1237 1.393 . S
C1241 C1240 1.391 . S
C1242 H1232 0.950 . S
C1242 C1243 1.386 . S
C1242 C1244 1.391 . S
C1243 C1242 1.386 . S
C1243 C1247 1.393 . S
C1244 H1233 0.950 . S
C1244 C1242 1.391 . S
C1244 C1245 1.400 . S
C1245 C1239 1.491 . S
C1245 C1244 1.400 . S
C1245 C1246 1.398 . S
C1246 H1234 0.950 . S
C1246 C1245 1.398 . S
C1246 C1247 1.391 . S
C1247 H1235 0.950 . S
C1247 C1243 1.393 . S
C1247 C1246 1.391 . S
H1248 C1256 0.950 . S
H1249 C1261 0.950 . S
H1250 C1258 0.950 . S
H1251 C1260 0.950 . S
H1252 C1262 0.950 . S
H1253 C1264 0.950 . S
H1254 C1266 0.950 . S
H1255 C1267 0.950 . S
C1256 H1248 0.950 . S
C1256 C1257 1.386 . S
C1256 C1258 1.391 . S
C1257 C1256 1.386 . S
C1257 C1261 1.393 . S
C1258 H1250 0.950 . S
C1258 C1256 1.391 . S
C1258 C1259 1.400 . S
C1259 C1258 1.400 . S
C1259 C1260 1.398 . S
C1259 C1265 1.491 . S
C1260 H1251 0.950 . S
C1260 C1259 1.398 . S
C1260 C1261 1.391 . S
C1261 H1249 0.950 . S
C1261 C1257 1.393 . S
C1261 C1260 1.391 . S
C1262 H1252 0.950 . S
C1262 C1263 1.386 . S
C1262 C1264 1.391 . S
C1263 C1262 1.386 . S
C1263 C1267 1.393 . S
C1264 H1253 0.950 . S
C1264 C1262 1.391 . S
C1264 C1265 1.400 . S
C1265 C1259 1.491 . S
C1265 C1264 1.400 . S
C1265 C1266 1.398 . S
C1266 H1254 0.950 . S
C1266 C1265 1.398 . S
C1266 C1267 1.391 . S
C1267 H1255 0.950 . S
C1267 C1263 1.393 . S
C1267 C1266 1.391 . S
H1268 C1276 0.950 . S
H1269 C1281 0.950 . S
H1270 C1278 0.950 . S
H1271 C1280 0.950 . S
H1272 C1282 0.950 . S
H1273 C1284 0.950 . S
H1274 C1286 0.950 . S
H1275 C1287 0.950 . S
C1276 H1268 0.950 . S
C1276 C1277 1.386 . S
C1276 C1278 1.391 . S
C1277 C1276 1.386 . S
C1277 C1281 1.393 . S
C1278 H1270 0.950 . S
C1278 C1276 1.391 . S
C1278 C1279 1.400 . S
C1279 C1278 1.400 . S
C1279 C1280 1.398 . S
C1279 C1285 1.491 1_556 S
C1280 H1271 0.950 . S
C1280 C1279 1.398 . S
C1280 C1281 1.391 . S
C1281 H1269 0.950 . S
C1281 C1277 1.393 . S
C1281 C1280 1.391 . S
C1282 H1272 0.950 . S
C1282 C1283 1.386 . S
C1282 C1284 1.391 . S
C1283 C1282 1.386 . S
C1283 C1287 1.393 . S
C1284 H1273 0.950 . S
C1284 C1282 1.391 . S
C1284 C1285 1.400 . S
C1285 C1279 1.491 1_554 S
C1285 C1284 1.400 . S
C1285 C1286 1.398 . S
C1286 H1274 0.950 . S
C1286 C1285 1.398 . S
C1286 C1287 1.391 . S
C1287 H1275 0.950 . S
C1287 C1283 1.393 . S
C1287 C1286 1.391 . S
H1288 C1296 0.950 . S
H1289 C1301 0.950 . S
H1290 C1298 0.950 . S
H1291 C1300 0.950 . S
H1292 C1302 0.950 . S
H1293 C1304 0.950 . S
H1294 C1306 0.950 . S
H1295 C1307 0.950 . S
C1296 H1288 0.950 . S
C1296 C1297 1.386 . S
C1296 C1298 1.391 . S
C1297 C1296 1.386 . S
C1297 C1301 1.393 . S
C1298 H1290 0.950 . S
C1298 C1296 1.391 . S
C1298 C1299 1.400 . S
C1299 C1298 1.400 . S
C1299 C1300 1.398 . S
C1299 C1305 1.491 . S
C1300 H1291 0.950 . S
C1300 C1299 1.398 . S
C1300 C1301 1.391 . S
C1301 H1289 0.950 . S
C1301 C1297 1.393 . S
C1301 C1300 1.391 . S
C1302 H1292 0.950 . S
C1302 C1303 1.386 . S
C1302 C1304 1.391 . S
C1303 C1302 1.386 . S
C1303 C1307 1.393 . S
C1304 H1293 0.950 . S
C1304 C1302 1.391 . S
C1304 C1305 1.400 . S
C1305 C1299 1.491 . S
C1305 C1304 1.400 . S
C1305 C1306 1.398 . S
C1306 H1294 0.950 . S
C1306 C1305 1.398 . S
C1306 C1307 1.391 . S
C1307 H1295 0.950 . S
C1307 C1303 1.393 . S
C1307 C1306 1.391 . S
H1308 C1316 0.950 . S
H1309 C1321 0.950 . S
H1310 C1318 0.950 . S
H1311 C1320 0.950 . S
H1312 C1322 0.950 . S
H1313 C1324 0.950 . S
H1314 C1326 0.950 . S
H1315 C1327 0.950 . S
C1316 H1308 0.950 . S
C1316 C1317 1.386 . S
C1316 C1318 1.391 . S
C1317 C1316 1.386 . S
C1317 C1321 1.393 . S
C1318 H1310 0.950 . S
C1318 C1316 1.391 . S
C1318 C1319 1.400 . S
C1319 C1318 1.400 . S
C1319 C1320 1.398 . S
C1319 C1325 1.491 1_554 S
C1320 H1311 0.950 . S
C1320 C1319 1.398 . S
C1320 C1321 1.391 . S
C1321 H1309 0.950 . S
C1321 C1317 1.393 . S
C1321 C1320 1.391 . S
C1322 H1312 0.950 . S
C1322 C1323 1.386 . S
C1322 C1324 1.391 . S
C1323 C1322 1.386 . S
C1323 C1327 1.393 . S
C1324 H1313 0.950 . S
C1324 C1322 1.391 . S
C1324 C1325 1.400 . S
C1325 C1319 1.491 1_556 S
C1325 C1324 1.400 . S
C1325 C1326 1.398 . S
C1326 H1314 0.950 . S
C1326 C1325 1.398 . S
C1326 C1327 1.391 . S
C1327 H1315 0.950 . S
C1327 C1323 1.393 . S
C1327 C1326 1.391 . S
H1328 C1336 0.950 . S
H1329 C1341 0.950 . S
H1330 C1338 0.950 . S
H1331 C1340 0.950 . S
H1332 C1342 0.950 . S
H1333 C1344 0.950 . S
H1334 C1346 0.950 . S
H1335 C1347 0.950 . S
C1336 H1328 0.950 . S
C1336 C1337 1.386 . S
C1336 C1338 1.391 . S
C1337 C1336 1.386 . S
C1337 C1341 1.393 . S
C1338 H1330 0.950 . S
C1338 C1336 1.391 . S
C1338 C1339 1.400 . S
C1339 C1338 1.400 . S
C1339 C1340 1.398 . S
C1339 C1345 1.491 . S
C1340 H1331 0.950 . S
C1340 C1339 1.398 . S
C1340 C1341 1.391 . S
C1341 H1329 0.950 . S
C1341 C1337 1.393 . S
C1341 C1340 1.391 . S
C1342 H1332 0.950 . S
C1342 C1343 1.386 . S
C1342 C1344 1.391 . S
C1343 C1342 1.386 . S
C1343 C1347 1.393 . S
C1344 H1333 0.950 . S
C1344 C1342 1.391 . S
C1344 C1345 1.400 . S
C1345 C1339 1.491 . S
C1345 C1344 1.400 . S
C1345 C1346 1.398 . S
C1346 H1334 0.950 . S
C1346 C1345 1.398 . S
C1346 C1347 1.391 . S
C1347 H1335 0.950 . S
C1347 C1343 1.393 . S
C1347 C1346 1.391 . S
H1348 C1356 0.950 . S
H1349 C1361 0.950 . S
H1350 C1358 0.950 . S
H1351 C1360 0.950 . S
H1352 C1362 0.950 . S
H1353 C1364 0.950 . S
H1354 C1366 0.950 . S
H1355 C1367 0.950 . S
C1356 H1348 0.950 . S
C1356 C1357 1.386 . S
C1356 C1358 1.391 . S
C1357 C1356 1.386 . S
C1357 C1361 1.393 . S
C1358 H1350 0.950 . S
C1358 C1356 1.391 . S
C1358 C1359 1.400 . S
C1359 C1358 1.400 . S
C1359 C1360 1.398 . S
C1359 C1365 1.491 . S
C1360 H1351 0.950 . S
C1360 C1359 1.398 . S
C1360 C1361 1.391 . S
C1361 H1349 0.950 . S
C1361 C1357 1.393 . S
C1361 C1360 1.391 . S
C1362 H1352 0.950 . S
C1362 C1363 1.386 . S
C1362 C1364 1.391 . S
C1363 C1362 1.386 . S
C1363 C1367 1.393 . S
C1364 H1353 0.950 . S
C1364 C1362 1.391 . S
C1364 C1365 1.400 . S
C1365 C1359 1.491 . S
C1365 C1364 1.400 . S
C1365 C1366 1.398 . S
C1366 H1354 0.950 . S
C1366 C1365 1.398 . S
C1366 C1367 1.391 . S
C1367 H1355 0.950 . S
C1367 C1363 1.393 . S
C1367 C1366 1.391 . S
H1368 C1376 0.950 . S
H1369 C1381 0.950 . S
H1370 C1378 0.950 . S
H1371 C1380 0.950 . S
H1372 C1382 0.950 . S
H1373 C1384 0.950 . S
H1374 C1386 0.950 . S
H1375 C1387 0.950 . S
C1376 H1368 0.950 . S
C1376 C1377 1.386 . S
C1376 C1378 1.391 . S
C1377 C1376 1.386 . S
C1377 C1381 1.393 . S
C1378 H1370 0.950 . S
C1378 C1376 1.391 . S
C1378 C1379 1.400 . S
C1379 C1378 1.400 . S
C1379 C1380 1.398 . S
C1379 C1385 1.491 . S
C1380 H1371 0.950 . S
C1380 C1379 1.398 . S
C1380 C1381 1.391 . S
C1381 H1369 0.950 . S
C1381 C1377 1.393 . S
C1381 C1380 1.391 . S
C1382 H1372 0.950 . S
C1382 C1383 1.386 . S
C1382 C1384 1.391 . S
C1383 C1382 1.386 . S
C1383 C1387 1.393 . S
C1384 H1373 0.950 . S
C1384 C1382 1.391 . S
C1384 C1385 1.400 . S
C1385 C1379 1.491 . S
C1385 C1384 1.400 . S
C1385 C1386 1.398 . S
C1386 H1374 0.950 . S
C1386 C1385 1.398 . S
C1386 C1387 1.391 . S
C1387 H1375 0.950 . S
C1387 C1383 1.393 . S
C1387 C1386 1.391 . S
H1388 C1396 0.950 . S
H1389 C1401 0.950 . S
H1390 C1398 0.950 . S
H1391 C1400 0.950 . S
H1392 C1402 0.950 . S
H1393 C1404 0.950 . S
H1394 C1406 0.950 . S
H1395 C1407 0.950 . S
C1396 H1388 0.950 . S
C1396 C1397 1.386 . S
C1396 C1398 1.391 . S
C1397 C1396 1.386 . S
C1397 C1401 1.393 . S
C1398 H1390 0.950 . S
C1398 C1396 1.391 . S
C1398 C1399 1.400 . S
C1399 C1398 1.400 . S
C1399 C1400 1.398 . S
C1399 C1405 1.491 . S
C1400 H1391 0.950 . S
C1400 C1399 1.398 . S
C1400 C1401 1.391 . S
C1401 H1389 0.950 . S
C1401 C1397 1.393 . S
C1401 C1400 1.391 . S
C1402 H1392 0.950 . S
C1402 C1403 1.386 . S
C1402 C1404 1.391 . S
C1403 C1402 1.386 . S
C1403 C1407 1.393 . S
C1404 H1393 0.950 . S
C1404 C1402 1.391 . S
C1404 C1405 1.400 . S
C1405 C1399 1.491 . S
C1405 C1404 1.400 . S
C1405 C1406 1.398 . S
C1406 H1394 0.950 . S
C1406 C1405 1.398 . S
C1406 C1407 1.391 . S
C1407 H1395 0.950 . S
C1407 C1403 1.393 . S
C1407 C1406 1.391 . S
H1408 C1416 0.950 . S
H1409 C1421 0.950 . S
H1410 C1418 0.950 . S
H1411 C1420 0.950 . S
H1412 C1422 0.950 . S
H1413 C1424 0.950 . S
H1414 C1426 0.950 . S
H1415 C1427 0.950 . S
C1416 H1408 0.950 . S
C1416 C1417 1.386 . S
C1416 C1418 1.391 . S
C1417 C1416 1.386 . S
C1417 C1421 1.393 . S
C1418 H1410 0.950 . S
C1418 C1416 1.391 . S
C1418 C1419 1.400 . S
C1419 C1418 1.400 . S
C1419 C1420 1.398 . S
C1419 C1425 1.491 . S
C1420 H1411 0.950 . S
C1420 C1419 1.398 . S
C1420 C1421 1.391 . S
C1421 H1409 0.950 . S
C1421 C1417 1.393 . S
C1421 C1420 1.391 . S
C1422 H1412 0.950 . S
C1422 C1423 1.386 . S
C1422 C1424 1.391 . S
C1423 C1422 1.386 . S
C1423 C1427 1.393 . S
C1424 H1413 0.950 . S
C1424 C1422 1.391 . S
C1424 C1425 1.400 . S
C1425 C1419 1.491 . S
C1425 C1424 1.400 . S
C1425 C1426 1.398 . S
C1426 H1414 0.950 . S
C1426 C1425 1.398 . S
C1426 C1427 1.391 . S
C1427 H1415 0.950 . S
C1427 C1423 1.393 . S
C1427 C1426 1.391 . S
H1428 C1436 0.950 . S
H1429 C1441 0.950 . S
H1430 C1438 0.950 . S
H1431 C1440 0.950 . S
H1432 C1442 0.950 . S
H1433 C1444 0.950 . S
H1434 C1446 0.950 . S
H1435 C1447 0.950 . S
C1436 H1428 0.950 . S
C1436 C1437 1.386 . S
C1436 C1438 1.391 . S
C1437 C1436 1.386 . S
C1437 C1441 1.393 . S
C1438 H1430 0.950 . S
C1438 C1436 1.391 . S
C1438 C1439 1.400 . S
C1439 C1438 1.400 . S
C1439 C1440 1.398 . S
C1439 C1445 1.491 . S
C1440 H1431 0.950 . S
C1440 C1439 1.398 . S
C1440 C1441 1.391 . S
C1441 H1429 0.950 . S
C1441 C1437 1.393 . S
C1441 C1440 1.391 . S
C1442 H1432 0.950 . S
C1442 C1443 1.386 . S
C1442 C1444 1.391 . S
C1443 C1442 1.386 . S
C1443 C1447 1.393 . S
C1444 H1433 0.950 . S
C1444 C1442 1.391 . S
C1444 C1445 1.400 . S
C1445 C1439 1.491 . S
C1445 C1444 1.400 . S
C1445 C1446 1.398 . S
C1446 H1434 0.950 . S
C1446 C1445 1.398 . S
C1446 C1447 1.391 . S
C1447 H1435 0.950 . S
C1447 C1443 1.393 . S
C1447 C1446 1.391 . S
H1448 C1456 0.950 . S
H1449 C1461 0.950 . S
H1450 C1458 0.950 . S
H1451 C1460 0.950 . S
H1452 C1462 0.950 . S
H1453 C1464 0.950 . S
H1454 C1466 0.950 . S
H1455 C1467 0.950 . S
C1456 H1448 0.950 . S
C1456 C1457 1.386 . S
C1456 C1458 1.391 . S
C1457 C1456 1.386 . S
C1457 C1461 1.393 . S
C1458 H1450 0.950 . S
C1458 C1456 1.391 . S
C1458 C1459 1.400 . S
C1459 C1458 1.400 . S
C1459 C1460 1.398 . S
C1459 C1465 1.491 . S
C1460 H1451 0.950 . S
C1460 C1459 1.398 . S
C1460 C1461 1.391 . S
C1461 H1449 0.950 . S
C1461 C1457 1.393 . S
C1461 C1460 1.391 . S
C1462 H1452 0.950 . S
C1462 C1463 1.386 . S
C1462 C1464 1.391 . S
C1463 C1462 1.386 . S
C1463 C1467 1.393 . S
C1464 H1453 0.950 . S
C1464 C1462 1.391 . S
C1464 C1465 1.400 . S
C1465 C1459 1.491 . S
C1465 C1464 1.400 . S
C1465 C1466 1.398 . S
C1466 H1454 0.950 . S
C1466 C1465 1.398 . S
C1466 C1467 1.391 . S
C1467 H1455 0.950 . S
C1467 C1463 1.393 . S
C1467 C1466 1.391 . S
H1468 C1476 0.950 . S
H1469 C1481 0.950 . S
H1470 C1478 0.950 . S
H1471 C1480 0.950 . S
H1472 C1482 0.950 . S
H1473 C1484 0.950 . S
H1474 C1486 0.950 . S
H1475 C1487 0.950 . S
C1476 H1468 0.950 . S
C1476 C1477 1.386 . S
C1476 C1478 1.391 . S
C1477 C1476 1.386 . S
C1477 C1481 1.393 . S
C1478 H1470 0.950 . S
C1478 C1476 1.391 . S
C1478 C1479 1.400 . S
C1479 C1478 1.400 . S
C1479 C1480 1.398 . S
C1479 C1485 1.491 . S
C1480 H1471 0.950 . S
C1480 C1479 1.398 . S
C1480 C1481 1.391 . S
C1481 H1469 0.950 . S
C1481 C1477 1.393 . S
C1481 C1480 1.391 . S
C1482 H1472 0.950 . S
C1482 C1483 1.386 . S
C1482 C1484 1.391 . S
C1483 C1482 1.386 . S
C1483 C1487 1.393 . S
C1484 H1473 0.950 . S
C1484 C1482 1.391 . S
C1484 C1485 1.400 . S
C1485 C1479 1.491 . S
C1485 C1484 1.400 . S
C1485 C1486 1.398 . S
C1486 H1474 0.950 . S
C1486 C1485 1.398 . S
C1486 C1487 1.391 . S
C1487 H1475 0.950 . S
C1487 C1483 1.393 . S
C1487 C1486 1.391 . S
C857 C29 1.770 . S
C863 C135 1.773 . S
C877 C188 1.770 . S
C883 C82 1.772 . S
C897 C241 1.786 . S
C903 C347 1.785 . S
C917 C400 1.770 . S
C923 C294 1.770 . S
C937 C453 1.780 . S
C943 C559 1.780 . S
C957 C612 1.777 . S
C963 C506 1.780 . S
C977 C665 1.763 . S
C983 C771 1.765 . S
C997 C824 1.779 . S
C1003 C718 1.775 . S
C1017 C250 1.895 . S
C1023 C38 1.894 . S
C1037 C91 1.895 . S
C1043 C303 1.894 . S
C1057 C144 1.893 . S
C1063 C356 1.889 . S
C1077 C409 1.894 . S
C1083 C197 1.891 . S
C1097 C462 1.885 . S
C1103 C674 1.887 . S
C1117 C515 1.887 . S
C1123 C727 1.888 . S
C1137 C568 1.877 . S
C1143 C780 1.873 . S
C1157 C621 1.877 . S
C1163 C833 1.873 . S
C1177 C569 1.832 . S
C1183 C39 1.835 . S
C1197 C622 1.842 . S
C1203 C92 1.825 . S
C1217 C145 1.839 . S
C1223 C463 1.830 . S
C1237 C198 1.835 . S
C1243 C516 1.832 . S
C1257 C251 1.825 . S
C1263 C781 1.843 . S
C1277 C304 1.839 . S
C1283 C834 1.829 . S
C1297 C357 1.838 . S
C1303 C675 1.830 . S
C1317 C728 1.842 . S
C1323 C410 1.826 . S
C1337 C22 1.649 . S
C1343 C817 1.660 . S
C1357 C658 1.658 . S
C1363 C75 1.651 . S
C1377 C128 1.649 . S
C1383 C711 1.660 . S
C1397 C764 1.655 . S
C1403 C181 1.655 . S
C1417 C499 1.652 . S
C1423 C234 1.658 . S
C1437 C287 1.658 . S
C1443 C552 1.652 . S
C1457 C605 1.660 . S
C1463 C340 1.649 . S
C1477 C446 1.659 . S
C1483 C393 1.650 . S
