# Generated by pormake.
# Topology unb, (4)-cn, num edge types: 1
# Building blocks:
#     Node 0, Type 0, BuildingBlock: NAHDIM_clean_sbu_0, # of connection points: 4
#     Node 1, Type 0, BuildingBlock: NAHDIM_clean_sbu_0, # of connection points: 4
#     Node 2, Type 0, BuildingBlock: NAHDIM_clean_sbu_0, # of connection points: 4
#     Node 3, Type 0, BuildingBlock: NAHDIM_clean_sbu_0, # of connection points: 4
#     Node 4, Type 0, BuildingBlock: NAHDIM_clean_sbu_0, # of connection points: 4
#     Node 5, Type 0, BuildingBlock: NAHDIM_clean_sbu_0, # of connection points: 4
#     Node 6, Type 0, BuildingBlock: NAHDIM_clean_sbu_0, # of connection points: 4
#     Node 7, Type 0, BuildingBlock: NAHDIM_clean_sbu_0, # of connection points: 4
#     Node 8, Type 0, BuildingBlock: NAHDIM_clean_sbu_0, # of connection points: 4
#     Node 9, Type 0, BuildingBlock: NAHDIM_clean_sbu_0, # of connection points: 4
#     Node 10, Type 0, BuildingBlock: NAHDIM_clean_sbu_0, # of connection points: 4
#     Node 11, Type 0, BuildingBlock: NAHDIM_clean_sbu_0, # of connection points: 4
#     Node 12, Type 0, BuildingBlock: NAHDIM_clean_sbu_0, # of connection points: 4
#     Node 13, Type 0, BuildingBlock: NAHDIM_clean_sbu_0, # of connection points: 4
#     Node 14, Type 0, BuildingBlock: NAHDIM_clean_sbu_0, # of connection points: 4
#     Node 15, Type 0, BuildingBlock: NAHDIM_clean_sbu_0, # of connection points: 4
#     Node 16, Type 0, BuildingBlock: NAHDIM_clean_sbu_0, # of connection points: 4
#     Node 17, Type 0, BuildingBlock: NAHDIM_clean_sbu_0, # of connection points: 4
#     Edge 18, Type (0, 0), BuildingBlock: CIFDUS_clean_linker_0, # of connection points: 2
#     Edge 19, Type (0, 0), BuildingBlock: CIFDUS_clean_linker_0, # of connection points: 2
#     Edge 20, Type (0, 0), BuildingBlock: CIFDUS_clean_linker_0, # of connection points: 2
#     Edge 21, Type (0, 0), BuildingBlock: CIFDUS_clean_linker_0, # of connection points: 2
#     Edge 22, Type (0, 0), BuildingBlock: CIFDUS_clean_linker_0, # of connection points: 2
#     Edge 23, Type (0, 0), BuildingBlock: CIFDUS_clean_linker_0, # of connection points: 2
#     Edge 24, Type (0, 0), BuildingBlock: CIFDUS_clean_linker_0, # of connection points: 2
#     Edge 25, Type (0, 0), BuildingBlock: CIFDUS_clean_linker_0, # of connection points: 2
#     Edge 26, Type (0, 0), BuildingBlock: CIFDUS_clean_linker_0, # of connection points: 2
#     Edge 27, Type (0, 0), BuildingBlock: CIFDUS_clean_linker_0, # of connection points: 2
#     Edge 28, Type (0, 0), BuildingBlock: CIFDUS_clean_linker_0, # of connection points: 2
#     Edge 29, Type (0, 0), BuildingBlock: CIFDUS_clean_linker_0, # of connection points: 2
#     Edge 30, Type (0, 0), BuildingBlock: CIFDUS_clean_linker_0, # of connection points: 2
#     Edge 31, Type (0, 0), BuildingBlock: CIFDUS_clean_linker_0, # of connection points: 2
#     Edge 32, Type (0, 0), BuildingBlock: CIFDUS_clean_linker_0, # of connection points: 2
#     Edge 33, Type (0, 0), BuildingBlock: CIFDUS_clean_linker_0, # of connection points: 2
#     Edge 34, Type (0, 0), BuildingBlock: CIFDUS_clean_linker_0, # of connection points: 2
#     Edge 35, Type (0, 0), BuildingBlock: CIFDUS_clean_linker_0, # of connection points: 2
#     Edge 36, Type (0, 0), BuildingBlock: CIFDUS_clean_linker_0, # of connection points: 2
#     Edge 37, Type (0, 0), BuildingBlock: CIFDUS_clean_linker_0, # of connection points: 2
#     Edge 38, Type (0, 0), BuildingBlock: CIFDUS_clean_linker_0, # of connection points: 2
#     Edge 39, Type (0, 0), BuildingBlock: CIFDUS_clean_linker_0, # of connection points: 2
#     Edge 40, Type (0, 0), BuildingBlock: CIFDUS_clean_linker_0, # of connection points: 2
#     Edge 41, Type (0, 0), BuildingBlock: CIFDUS_clean_linker_0, # of connection points: 2
#     Edge 42, Type (0, 0), BuildingBlock: CIFDUS_clean_linker_0, # of connection points: 2
#     Edge 43, Type (0, 0), BuildingBlock: CIFDUS_clean_linker_0, # of connection points: 2
#     Edge 44, Type (0, 0), BuildingBlock: CIFDUS_clean_linker_0, # of connection points: 2
#     Edge 45, Type (0, 0), BuildingBlock: CIFDUS_clean_linker_0, # of connection points: 2
#     Edge 46, Type (0, 0), BuildingBlock: CIFDUS_clean_linker_0, # of connection points: 2
#     Edge 47, Type (0, 0), BuildingBlock: CIFDUS_clean_linker_0, # of connection points: 2
#     Edge 48, Type (0, 0), BuildingBlock: CIFDUS_clean_linker_0, # of connection points: 2
#     Edge 49, Type (0, 0), BuildingBlock: CIFDUS_clean_linker_0, # of connection points: 2
#     Edge 50, Type (0, 0), BuildingBlock: CIFDUS_clean_linker_0, # of connection points: 2
#     Edge 51, Type (0, 0), BuildingBlock: CIFDUS_clean_linker_0, # of connection points: 2
#     Edge 52, Type (0, 0), BuildingBlock: CIFDUS_clean_linker_0, # of connection points: 2
#     Edge 53, Type (0, 0), BuildingBlock: CIFDUS_clean_linker_0, # of connection points: 2
# Relax obj value: 0.065
# Max RMSD: 0.063
# Mean RMSD: 0.063
data_MOF--net-unb--node1-NAHDIM_clean_sbu_0--edge1-CIFDUS_clean_linker_0
_symmetry_space_group_name_H-M    P1
_symmetry_Int_Tables_number       1
_symmetry_cell_setting            triclinic
loop_
_symmetry_equiv_pos_as_xyz
'x, y, z'
_cell_length_a     56.684175
_cell_length_b     56.682107
_cell_length_c     22.681037
_cell_angle_alpha  89.997689
_cell_angle_beta   89.969903
_cell_angle_gamma 119.92402
loop_
_atom_site_label
_atom_site_type_symbol
_atom_site_fract_x
_atom_site_fract_y
_atom_site_fract_z
_atom_type_partial_charge
C0 C 0.1523 0.29417 0.17237 0.0
O1 O 0.17397 0.29727 0.14438 0.0
O2 O 0.13523 0.23618 0.06167 0.0
Zn3 Zn 0.12144 0.26255 0.0684 0.0
O4 O 0.08108 0.24441 0.05472 0.0
C5 C 0.13548 0.27954 0.95166 0.0
O6 O 0.12036 0.25304 0.9457 0.0
O7 O 0.12907 0.28057 0.14825 0.0
C8 C 0.06644 0.22153 0.0299 0.0
O9 O 0.07759 0.20717 0.01273 0.0
C10 C 0.13585 0.22096 0.10197 0.0
O11 O 0.12624 0.22126 0.15452 0.0
O12 O 0.13953 0.28977 0.00311 0.0
C13 C 0.70546 0.85242 0.14528 0.0
O14 O 0.70609 0.87399 0.1222 0.0
O15 O 0.75962 0.89549 0.03858 0.0
Zn16 Zn 0.73647 0.85483 0.04044 0.0
O17 O 0.75886 0.83699 0.0245 0.0
C18 C 0.70127 0.82442 0.94277 0.0
O19 O 0.7073 0.80568 0.95795 0.0
O20 O 0.71691 0.84122 0.11806 0.0
C21 C 0.77924 0.84718 0.98997 0.0
O22 O 0.78689 0.87088 0.96521 0.0
C23 C 0.77934 0.91096 0.07185 0.0
O24 O 0.78646 0.90036 0.11506 0.0
O25 O 0.71031 0.84595 0.97345 0.0
C26 C 0.13329 0.84529 0.19568 0.0
O27 O 0.1188 0.82615 0.15717 0.0
O28 O 0.09238 0.86129 0.08857 0.0
Zn29 Zn 0.13261 0.87822 0.10181 0.0
O30 O 0.15212 0.91863 0.08632 0.0
C31 C 0.14442 0.86615 0.9882 0.0
O32 O 0.13558 0.88281 0.97347 0.0
O33 O 0.1412 0.86993 0.18254 0.0
C34 C 0.14021 0.93057 0.06442 0.0
O35 O 0.11392 0.9165 0.05411 0.0
C36 C 0.07429 0.85639 0.1272 0.0
O37 O 0.08152 0.86299 0.18245 0.0
O38 O 0.14557 0.86117 0.04237 0.0
C39 C 0.28541 0.16707 0.83669 0.0
O40 O 0.27997 0.18547 0.85752 0.0
O41 O 0.23155 0.15262 0.94449 0.0
Zn42 Zn 0.25654 0.13696 0.9419 0.0
O43 O 0.23442 0.0966 0.95546 0.0
C44 C 0.29163 0.17717 0.02707 0.0
O45 O 0.286 0.19335 0.99617 0.0
O46 O 0.2773 0.14499 0.86507 0.0
C47 C 0.24625 0.08405 0.97428 0.0
O48 O 0.27281 0.09756 0.98117 0.0
C49 C 0.21859 0.14923 0.99246 0.0
O50 O 0.22151 0.13517 0.03504 0.0
O51 O 0.2822 0.15268 0.01051 0.0
C52 C 0.84981 0.12425 0.79122 0.0
O53 O 0.86601 0.11399 0.7864 0.0
O54 O 0.83574 0.07479 0.92301 0.0
Zn55 Zn 0.85395 0.11551 0.91559 0.0
O56 O 0.89448 0.13047 0.91556 0.0
C57 C 0.82337 0.1161 0.01811 0.0
O58 O 0.8059 0.09113 0.00161 0.0
O59 O 0.8419 0.12667 0.84216 0.0
C60 C 0.90995 0.15367 0.93832 0.0
O61 O 0.89924 0.16809 0.95771 0.0
C62 C 0.84276 0.06527 0.96609 0.0
O63 O 0.8617 0.08229 0.00235 0.0
O64 O 0.8446 0.13021 0.98734 0.0
C65 C 0.85674 0.699 0.81562 0.0
O66 O 0.83634 0.68603 0.85248 0.0
O67 O 0.92028 0.76336 0.93113 0.0
Zn68 Zn 0.88099 0.73691 0.91371 0.0
O69 O 0.85991 0.75682 0.9192 0.0
C70 C 0.88153 0.6974 0.99355 0.0
O71 O 0.90351 0.70267 0.96375 0.0
O72 O 0.87765 0.7208 0.83245 0.0
C73 C 0.83596 0.74489 0.94043 0.0
O74 O 0.82479 0.71917 0.95577 0.0
C75 C 0.92658 0.77285 0.98313 0.0
O76 O 0.90717 0.76577 0.02247 0.0
O77 O 0.8679 0.70859 0.97796 0.0
C78 C 0.82442 0.62695 0.49895 0.0
O79 O 0.84416 0.64035 0.46085 0.0
O80 O 0.80849 0.5634 0.38905 0.0
Zn81 Zn 0.79493 0.58992 0.39989 0.0
O82 O 0.75443 0.57114 0.38837 0.0
C83 C 0.82978 0.61994 0.30167 0.0
O84 O 0.83989 0.60388 0.31116 0.0
O85 O 0.80286 0.60577 0.4822 0.0
C86 C 0.74248 0.5556 0.34484 0.0
O87 O 0.75683 0.55047 0.30678 0.0
C88 C 0.79648 0.53857 0.40472 0.0
O89 O 0.77318 0.52829 0.43298 0.0
O90 O 0.81143 0.61867 0.33608 0.0
C91 C 0.36893 0.21474 0.53377 0.0
O92 O 0.37527 0.23642 0.50174 0.0
O93 O 0.42163 0.2423 0.42024 0.0
Zn94 Zn 0.39587 0.20283 0.43886 0.0
O95 O 0.41709 0.18307 0.44105 0.0
C96 C 0.36415 0.20342 0.34099 0.0
O97 O 0.37442 0.22889 0.35751 0.0
O98 O 0.37583 0.1978 0.51578 0.0
C99 C 0.42673 0.18011 0.39276 0.0
O100 O 0.42243 0.18998 0.34409 0.0
C101 C 0.44701 0.25487 0.43089 0.0
O102 O 0.45769 0.24247 0.46016 0.0
O103 O 0.36944 0.1877 0.37111 0.0
C104 C 0.79299 0.18137 0.53876 0.0
O105 O 0.77755 0.1925 0.54381 0.0
O106 O 0.7504 0.17838 0.41277 0.0
Zn107 Zn 0.79085 0.19247 0.41494 0.0
O108 O 0.81142 0.23362 0.41222 0.0
C109 C 0.78427 0.15257 0.32995 0.0
O110 O 0.7638 0.13714 0.36491 0.0
O111 O 0.8011 0.1792 0.48786 0.0
C112 C 0.81992 0.24636 0.36366 0.0
O113 O 0.8155 0.23245 0.3146 0.0
C114 C 0.74051 0.18276 0.36648 0.0
O115 O 0.75709 0.19735 0.32387 0.0
O116 O 0.7997 0.17745 0.3433 0.0
C117 C 0.96478 0.48032 0.15253 0.0
O118 O 0.98185 0.48415 0.19551 0.0
O119 O 0.90145 0.47788 0.26286 0.0
Zn120 Zn 0.92432 0.46029 0.24705 0.0
O121 O 0.90205 0.41916 0.25286 0.0
C122 C 0.95178 0.48096 0.35851 0.0
O123 O 0.92806 0.47788 0.37384 0.0
O124 O 0.93964 0.47046 0.16434 0.0
C125 C 0.89804 0.40648 0.30144 0.0
O126 O 0.90812 0.42041 0.35019 0.0
C127 C 0.87921 0.46712 0.29162 0.0
O128 O 0.86909 0.4422 0.3118 0.0
O129 O 0.95504 0.47477 0.30642 0.0
C130 C 0.52912 0.4833 0.12711 0.0
O131 O 0.54394 0.50191 0.16632 0.0
O132 O 0.51057 0.40935 0.23427 0.0
Zn133 Zn 0.53039 0.4498 0.21866 0.0
O134 O 0.57115 0.4654 0.22559 0.0
C135 C 0.52123 0.46391 0.33486 0.0
O136 O 0.53506 0.45197 0.35027 0.0
O137 O 0.52081 0.45843 0.13892 0.0
C138 C 0.58611 0.48771 0.25235 0.0
O139 O 0.57509 0.50149 0.27385 0.0
C140 C 0.52104 0.39876 0.26699 0.0
O141 O 0.54606 0.41405 0.28615 0.0
O142 O 0.51709 0.46591 0.2805 0.0
C143 C 0.51847 0.05567 0.16059 0.0
O144 O 0.52084 0.07991 0.1575 0.0
O145 O 0.57084 0.09466 0.29321 0.0
Zn146 Zn 0.53045 0.07007 0.2837 0.0
O147 O 0.51205 0.09262 0.28185 0.0
C148 C 0.53272 0.04284 0.38933 0.0
O149 O 0.5588 0.05528 0.37665 0.0
O150 O 0.52192 0.04723 0.21 0.0
C151 C 0.50864 0.10184 0.33026 0.0
O152 O 0.51766 0.09676 0.37925 0.0
C153 C 0.58597 0.11495 0.26087 0.0
O154 O 0.57526 0.121 0.21608 0.0
O155 O 0.5165 0.04548 0.35486 0.0
C156 C 0.47735 0.94404 0.90633 0.0
O157 O 0.47391 0.91937 0.90928 0.0
O158 O 0.48037 0.90657 0.77855 0.0
Zn159 Zn 0.46329 0.93042 0.78264 0.0
O160 O 0.42239 0.90722 0.77627 0.0
C161 C 0.50272 0.96897 0.70233 0.0
O162 O 0.51961 0.96661 0.73822 0.0
O163 O 0.47381 0.9527 0.85732 0.0
C164 C 0.41077 0.9031 0.72631 0.0
O165 O 0.42568 0.91424 0.67913 0.0
C166 C 0.48095 0.89689 0.72833 0.0
O167 O 0.46976 0.90208 0.68316 0.0
O168 O 0.47739 0.95596 0.71359 0.0
C169 C 0.04046 0.52432 0.84037 0.0
O170 O 0.02342 0.52058 0.79737 0.0
O171 O 0.10116 0.58101 0.72977 0.0
Zn172 Zn 0.07979 0.54072 0.74462 0.0
O173 O 0.1053 0.52599 0.73192 0.0
C174 C 0.05436 0.52913 0.63112 0.0
O175 O 0.07986 0.54342 0.61404 0.0
O176 O 0.06536 0.53294 0.82822 0.0
C177 C 0.09974 0.50526 0.70059 0.0
O178 O 0.07563 0.49151 0.67595 0.0
C179 C 0.08919 0.59458 0.72078 0.0
O180 O 0.06251 0.58221 0.72454 0.0
O181 O 0.04909 0.52467 0.6858 0.0
C182 C 0.47321 0.50338 0.81845 0.0
O183 O 0.45792 0.48496 0.77933 0.0
O184 O 0.43211 0.52071 0.71997 0.0
Zn185 Zn 0.47293 0.5385 0.72855 0.0
O186 O 0.49058 0.57946 0.72205 0.0
C187 C 0.47599 0.51675 0.6151 0.0
O188 O 0.45449 0.51901 0.60366 0.0
O189 O 0.48198 0.52837 0.80702 0.0
C190 C 0.49839 0.59171 0.67278 0.0
O191 O 0.49518 0.57746 0.6248 0.0
C192 C 0.42067 0.53154 0.69125 0.0
O193 O 0.43571 0.55578 0.66797 0.0
O194 O 0.48733 0.524 0.6653 0.0
C195 C 0.62483 0.80888 0.4519 0.0
O196 O 0.62531 0.78802 0.47585 0.0
O197 O 0.56761 0.81883 0.57205 0.0
Zn198 Zn 0.5924 0.80357 0.55489 0.0
O199 O 0.57067 0.76254 0.55179 0.0
C200 C 0.63221 0.83606 0.64586 0.0
O201 O 0.62968 0.85644 0.62584 0.0
O202 O 0.61201 0.81895 0.47794 0.0
C203 C 0.56417 0.75006 0.60094 0.0
O204 O 0.57086 0.76433 0.64987 0.0
C205 C 0.5611 0.82167 0.6242 0.0
O206 O 0.57039 0.81407 0.66905 0.0
O207 O 0.61927 0.813 0.62088 0.0
C208 C 0.19587 0.83245 0.50162 0.0
O209 O 0.21094 0.85168 0.53948 0.0
O210 O 0.18102 0.75986 0.60774 0.0
Zn211 Zn 0.20002 0.80028 0.59249 0.0
O212 O 0.24097 0.81769 0.59642 0.0
C213 C 0.18041 0.80666 0.70535 0.0
O214 O 0.17972 0.78363 0.71702 0.0
O215 O 0.18874 0.80791 0.51401 0.0
C216 C 0.25259 0.82039 0.64592 0.0
O217 O 0.23755 0.81068 0.69347 0.0
C218 C 0.19296 0.74605 0.61338 0.0
O219 O 0.21944 0.75804 0.60603 0.0
O220 O 0.1882 0.81744 0.65478 0.0
C221 C 0.18826 0.37317 0.48083 0.0
O222 O 0.16627 0.36973 0.50795 0.0
O223 O 0.25413 0.43524 0.59569 0.0
Zn224 Zn 0.21477 0.40816 0.58065 0.0
O225 O 0.19158 0.42599 0.57901 0.0
C226 C 0.21054 0.39113 0.70025 0.0
O227 O 0.22892 0.41694 0.70622 0.0
O228 O 0.21138 0.38862 0.50397 0.0
C229 C 0.19605 0.44516 0.61443 0.0
O230 O 0.21731 0.45475 0.64942 0.0
C231 C 0.26783 0.45874 0.5729 0.0
O232 O 0.25619 0.46705 0.53449 0.0
O233 O 0.20145 0.38189 0.64904 0.0
H234 H 0.14227 0.34004 0.41917 0.0
H235 H 0.22967 0.37606 0.4133 0.0
H236 H 0.22631 0.35457 0.31797 0.0
H237 H 0.19857 0.326 0.23542 0.0
H238 H 0.11119 0.29033 0.24175 0.0
H239 H 0.11462 0.31121 0.33759 0.0
C240 C 0.16061 0.34318 0.39717 0.0
C241 C 0.18617 0.3597 0.42346 0.0
C242 C 0.15856 0.33083 0.34226 0.0
C243 C 0.2097 0.36348 0.39416 0.0
C244 C 0.20782 0.3512 0.33956 0.0
C245 C 0.18027 0.32275 0.25778 0.0
C246 C 0.15468 0.30663 0.23118 0.0
C247 C 0.18236 0.3349 0.31306 0.0
C248 C 0.13119 0.30266 0.26096 0.0
C249 C 0.1331 0.3146 0.31589 0.0
H250 H 0.65228 0.79105 0.3836 0.0
H251 H 0.62891 0.85273 0.39234 0.0
H252 H 0.65179 0.87165 0.29864 0.0
H253 H 0.67834 0.87066 0.21392 0.0
H254 H 0.70147 0.80878 0.20525 0.0
H255 H 0.67879 0.79006 0.29909 0.0
C256 C 0.65219 0.80865 0.36511 0.0
C257 C 0.63887 0.82041 0.3951 0.0
C258 C 0.66535 0.81943 0.31109 0.0
C259 C 0.63897 0.84322 0.37029 0.0
C260 C 0.65207 0.85408 0.31664 0.0
C261 C 0.67844 0.85308 0.23251 0.0
C262 C 0.69162 0.84118 0.20241 0.0
C263 C 0.6653 0.84234 0.2866 0.0
C264 C 0.6915 0.81839 0.2273 0.0
C265 C 0.67852 0.80763 0.28106 0.0
H266 H 0.16159 0.7974 0.41862 0.0
H267 H 0.20923 0.88291 0.46085 0.0
H268 H 0.19355 0.89436 0.3709 0.0
H269 H 0.16659 0.8802 0.27994 0.0
H270 H 0.11902 0.79472 0.2375 0.0
H271 H 0.13429 0.78322 0.32802 0.0
C272 C 0.1686 0.81855 0.40813 0.0
C273 C 0.18662 0.83925 0.44644 0.0
C274 C 0.15944 0.82502 0.35638 0.0
C275 C 0.19539 0.86654 0.43219 0.0
C276 C 0.18641 0.87313 0.38075 0.0
C277 C 0.15945 0.85904 0.29056 0.0
C278 C 0.14168 0.83838 0.25191 0.0
C279 C 0.16843 0.85255 0.34254 0.0
C280 C 0.1327 0.81106 0.26639 0.0
C281 C 0.14146 0.80445 0.31814 0.0
H282 H 0.35032 0.17082 0.6068 0.0
H283 H 0.35304 0.24789 0.58671 0.0
H284 H 0.32759 0.24 0.67838 0.0
H285 H 0.3044 0.2112 0.7642 0.0
H286 H 0.30141 0.13399 0.78382 0.0
H287 H 0.32708 0.14201 0.69246 0.0
C288 C 0.3454 0.18594 0.62245 0.0
C289 C 0.35364 0.20993 0.58978 0.0
C290 C 0.33065 0.18124 0.67517 0.0
C291 C 0.34698 0.22923 0.61082 0.0
C292 C 0.33241 0.22474 0.66331 0.0
C293 C 0.30935 0.19611 0.74856 0.0
C294 C 0.30094 0.17202 0.78099 0.0
C295 C 0.3241 0.20081 0.69583 0.0
C296 C 0.30756 0.1527 0.75986 0.0
C297 C 0.32228 0.15727 0.70756 0.0
H298 H 0.82474 0.15782 0.54336 0.0
H299 H 0.77919 0.1831 0.65349 0.0
H300 H 0.79252 0.1675 0.74094 0.0
H301 H 0.81733 0.14697 0.7864 0.0
H302 H 0.86299 0.12181 0.67633 0.0
H303 H 0.84934 0.13705 0.58878 0.0
C304 C 0.81769 0.15991 0.58646 0.0
C305 C 0.80099 0.17166 0.59171 0.0
C306 C 0.82546 0.15092 0.63669 0.0
C307 C 0.79207 0.17417 0.64801 0.0
C308 C 0.79968 0.16524 0.69814 0.0
C309 C 0.82429 0.14478 0.74328 0.0
C310 C 0.84119 0.13326 0.73809 0.0
C311 C 0.8164 0.15363 0.69303 0.0
C312 C 0.84999 0.1306 0.68176 0.0
C313 C 0.84219 0.13933 0.63158 0.0
H314 H 0.81504 0.65363 0.76569 0.0
H315 H 0.89512 0.72121 0.72846 0.0
H316 H 0.8924 0.70478 0.62782 0.0
H317 H 0.86705 0.67155 0.54968 0.0
H318 H 0.78694 0.60408 0.58731 0.0
H319 H 0.79001 0.62016 0.68821 0.0
C320 C 0.83195 0.66477 0.73566 0.0
C321 C 0.85522 0.68866 0.75478 0.0
C322 C 0.83026 0.65524 0.67771 0.0
C323 C 0.87691 0.70278 0.71508 0.0
C324 C 0.87539 0.6934 0.65741 0.0
C325 C 0.85028 0.66032 0.57994 0.0
C326 C 0.82679 0.63665 0.56067 0.0
C327 C 0.85212 0.6697 0.63814 0.0
C328 C 0.80528 0.62237 0.60071 0.0
C329 C 0.80699 0.63155 0.65855 0.0
H330 H 0.01696 0.50246 0.11318 0.0
H331 H 0.93483 0.47405 0.05323 0.0
H332 H 0.95103 0.48541 0.95182 0.0
H333 H 0.98841 0.50311 0.87996 0.0
H334 H 0.07051 0.53134 0.93985 0.0
H335 H 0.05437 0.52039 0.04139 0.0
C336 C 0.00257 0.49874 0.07799 0.0
C337 C 0.9747 0.48738 0.09097 0.0
C338 C 0.01201 0.50531 0.01967 0.0
C339 C 0.95639 0.48276 0.04466 0.0
C340 C 0.96564 0.48926 0.98656 0.0
C341 C 0.00281 0.50693 0.91518 0.0
C342 C 0.03065 0.51803 0.90213 0.0
C343 C 0.99339 0.50051 0.97354 0.0
C344 C 0.04897 0.52279 0.94847 0.0
C345 C 0.03976 0.51653 0.00664 0.0
H346 H 0.49517 0.45005 0.04112 0.0
H347 H 0.54608 0.53471 0.08738 0.0
H348 H 0.53312 0.54834 0.99661 0.0
H349 H 0.50724 0.53638 0.90426 0.0
H350 H 0.45625 0.45178 0.85768 0.0
H351 H 0.46927 0.43807 0.94842 0.0
C352 C 0.50349 0.47148 0.03129 0.0
C353 C 0.52158 0.4913 0.0711 0.0
C354 C 0.49587 0.47924 0.979 0.0
C355 C 0.5321 0.51899 0.05765 0.0
C356 C 0.52469 0.52684 0.00571 0.0
C357 C 0.49891 0.51493 0.91396 0.0
C358 C 0.48078 0.49517 0.87414 0.0
C359 C 0.50654 0.50715 0.96615 0.0
C360 C 0.47026 0.46746 0.88746 0.0
C361 C 0.4777 0.45957 0.93937 0.0
H362 H 0.51015 0.00405 0.15274 0.0
H363 H 0.51062 0.06807 0.04862 0.0
H364 H 0.49811 0.0393 0.96111 0.0
H365 H 0.48666 0.99593 0.91413 0.0
H366 H 0.486 0.93176 0.01799 0.0
H367 H 0.49895 0.96067 0.10548 0.0
C368 C 0.50757 0.01175 0.11091 0.0
C369 C 0.51132 0.03821 0.10741 0.0
C370 C 0.50029 0.99506 0.06064 0.0
C371 C 0.50786 0.0478 0.05275 0.0
C372 C 0.50069 0.03136 0.00258 0.0
C373 C 0.48934 0.98822 0.95586 0.0
C374 C 0.48531 0.96166 0.95938 0.0
C375 C 0.49678 0.00494 0.00605 0.0
C376 C 0.48894 0.95209 0.01391 0.0
C377 C 0.49635 0.96862 0.06403 0.0
H378 H 0.17284 0.33366 0.94817 0.0
H379 H 0.12486 0.26416 0.83657 0.0
H380 H 0.14408 0.29235 0.74905 0.0
H381 H 0.17412 0.33679 0.70394 0.0
H382 H 0.22262 0.4062 0.81539 0.0
H383 H 0.20367 0.37796 0.90295 0.0
C384 C 0.16657 0.3247 0.90471 0.0
C385 C 0.14739 0.29688 0.899 0.0
C386 C 0.17783 0.34098 0.85441 0.0
C387 C 0.13961 0.28554 0.84232 0.0
C388 C 0.15057 0.30163 0.79214 0.0
C389 C 0.1806 0.34573 0.74736 0.0
C390 C 0.19971 0.37358 0.75299 0.0
C391 C 0.16966 0.32938 0.79765 0.0
C392 C 0.20794 0.38481 0.80966 0.0
C393 C 0.19709 0.36869 0.85987 0.0
H394 H 0.63825 0.79684 0.70091 0.0
H395 H 0.65975 0.88123 0.71527 0.0
H396 H 0.68223 0.88472 0.80936 0.0
H397 H 0.69538 0.86374 0.88772 0.0
H398 H 0.67433 0.77952 0.87266 0.0
H399 H 0.65178 0.77601 0.77866 0.0
C400 C 0.64797 0.81608 0.72438 0.0
C401 C 0.64733 0.83876 0.70096 0.0
C402 C 0.66071 0.81791 0.77852 0.0
C403 C 0.65999 0.86347 0.73214 0.0
C404 C 0.67276 0.86546 0.78607 0.0
C405 C 0.68572 0.84454 0.86412 0.0
C406 C 0.68643 0.82188 0.88735 0.0
C407 C 0.6731 0.84277 0.8098 0.0
C408 C 0.67404 0.79726 0.85585 0.0
C409 C 0.66119 0.79525 0.80203 0.0
H410 H 0.1502 0.877 0.87089 0.0
H411 H 0.15546 0.82481 0.00261 0.0
H412 H 0.16656 0.80149 0.92642 0.0
H413 H 0.17452 0.79577 0.82253 0.0
H414 H 0.17051 0.84876 0.69111 0.0
H415 H 0.15908 0.87188 0.7672 0.0
C416 C 0.15378 0.86053 0.88296 0.0
C417 C 0.15194 0.85262 0.94228 0.0
C418 C 0.1603 0.84732 0.83903 0.0
C419 C 0.1568 0.83135 0.95725 0.0
C420 C 0.16308 0.81795 0.91371 0.0
C421 C 0.17104 0.81231 0.81049 0.0
C422 C 0.17323 0.82045 0.75127 0.0
C423 C 0.1648 0.82572 0.85448 0.0
C424 C 0.16895 0.8421 0.73643 0.0
C425 C 0.16241 0.85533 0.77989 0.0
H426 H 0.35494 0.23354 0.26089 0.0
H427 H 0.33921 0.15199 0.295 0.0
H428 H 0.31599 0.1369 0.20025 0.0
H429 H 0.30052 0.14692 0.10755 0.0
H430 H 0.31626 0.22847 0.07344 0.0
H431 H 0.33935 0.24352 0.16833 0.0
C432 C 0.34631 0.21242 0.24783 0.0
C433 C 0.34877 0.19392 0.28511 0.0
C434 C 0.33318 0.20392 0.19311 0.0
C435 C 0.33757 0.16666 0.26725 0.0
C436 C 0.32435 0.15802 0.21299 0.0
C437 C 0.30911 0.16803 0.12067 0.0
C438 C 0.30672 0.18655 0.08331 0.0
C439 C 0.32217 0.17651 0.17546 0.0
C440 C 0.31784 0.21379 0.10125 0.0
C441 C 0.33099 0.22241 0.15559 0.0
H442 H 0.78439 0.08926 0.10121 0.0
H443 H 0.85338 0.16795 0.06023 0.0
H444 H 0.84757 0.18604 0.15332 0.0
H445 H 0.82309 0.17952 0.24648 0.0
H446 H 0.75435 0.10072 0.2879 0.0
H447 H 0.76002 0.08269 0.1946 0.0
C448 C 0.79809 0.1104 0.11248 0.0
C449 C 0.81923 0.12721 0.07369 0.0
C450 C 0.79479 0.12064 0.1663 0.0
C451 C 0.8369 0.15453 0.08922 0.0
C452 C 0.83363 0.16491 0.14251 0.0
C453 C 0.80938 0.15838 0.23524 0.0
C454 C 0.78835 0.14151 0.27422 0.0
C455 C 0.8127 0.14813 0.18145 0.0
C456 C 0.77075 0.11417 0.25881 0.0
C457 C 0.77393 0.10383 0.20538 0.0
H458 H 0.8455 0.69284 0.07821 0.0
H459 H 0.90169 0.6653 0.03202 0.0
H460 H 0.89127 0.63966 0.12414 0.0
H461 H 0.86624 0.62506 0.21757 0.0
H462 H 0.81049 0.6531 0.26444 0.0
H463 H 0.821 0.67881 0.17247 0.0
C464 C 0.85535 0.68109 0.08807 0.0
C465 C 0.87424 0.68086 0.04807 0.0
C466 C 0.84954 0.66668 0.14146 0.0
C467 C 0.88703 0.66578 0.06192 0.0
C468 C 0.88113 0.65116 0.11467 0.0
C469 C 0.85647 0.63691 0.20792 0.0
C470 C 0.83759 0.63711 0.24796 0.0
C471 C 0.86249 0.65154 0.15482 0.0
C472 C 0.82514 0.65259 0.23456 0.0
C473 C 0.83106 0.66723 0.18183 0.0
H474 H 0.94789 0.48375 0.47715 0.0
H475 H 0.00575 0.49979 0.3375 0.0
H476 H 0.04264 0.5162 0.40961 0.0
H477 H 0.05845 0.52622 0.51228 0.0
H478 H 0.0002 0.50864 0.65196 0.0
H479 H 0.96345 0.49252 0.57978 0.0
C480 C 0.96858 0.4909 0.46244 0.0
C481 C 0.9741 0.4907 0.40205 0.0
C482 C 0.9896 0.49998 0.50413 0.0
C483 C 0.00097 0.49973 0.38377 0.0
C484 C 0.02207 0.50914 0.42495 0.0
C485 C 0.03771 0.51887 0.52692 0.0
C486 C 0.03209 0.51873 0.58737 0.0
C487 C 0.01663 0.50939 0.48523 0.0
C488 C 0.00508 0.50892 0.60569 0.0
C489 C 0.98405 0.49975 0.56445 0.0
H490 H 0.464 0.51041 0.49842 0.0
H491 H 0.51341 0.5003 0.62959 0.0
H492 H 0.53175 0.48303 0.55432 0.0
H493 H 0.53351 0.47056 0.45151 0.0
H494 H 0.48505 0.48192 0.31992 0.0
H495 H 0.46662 0.49903 0.39524 0.0
C496 C 0.47874 0.50437 0.51059 0.0
C497 C 0.48724 0.50652 0.56952 0.0
C498 C 0.48939 0.49473 0.46706 0.0
C499 C 0.50655 0.49887 0.58449 0.0
C500 C 0.51702 0.48896 0.54151 0.0
C501 C 0.51891 0.47676 0.43929 0.0
C502 C 0.51059 0.47486 0.38026 0.0
C503 C 0.50855 0.48678 0.4827 0.0
C504 C 0.49182 0.4832 0.36506 0.0
C505 C 0.48123 0.49294 0.40811 0.0
H506 H 0.47262 0.97409 0.61529 0.0
H507 H 0.55539 -0.00074 0.66509 0.0
H508 H 0.57184 0.02389 0.57219 0.0
H509 H 0.56275 0.03799 0.47674 0.0
H510 H 0.48001 0.01296 0.427 0.0
H511 H 0.46354 0.98841 0.52002 0.0
C512 C 0.49428 0.98506 0.60601 0.0
C513 C 0.51274 0.98485 0.64717 0.0
C514 C 0.5036 0.99907 0.55241 0.0
C515 C 0.54072 0.9991 0.63426 0.0
C516 C 0.55016 0.01315 0.58108 0.0
C517 C 0.54109 0.0271 0.48607 0.0
C518 C 0.52265 0.02727 0.44485 0.0
C519 C 0.53177 0.01317 0.53976 0.0
C520 C 0.49467 0.01314 0.45788 0.0
C521 C 0.48522 0.99913 0.51112 0.0
H522 H 0.15821 0.21722 0.99896 0.0
H523 H 0.14244 0.18709 0.17784 0.0
H524 H 0.16565 0.1613 0.15874 0.0
H525 H 0.1919 0.14877 0.09246 0.0
H526 H 0.20831 0.17969 0.91421 0.0
H527 H 0.18321 0.20366 0.93198 0.0
C528 C 0.15971 0.20493 0.03382 0.0
C529 C 0.14868 0.2042 0.08989 0.0
C530 C 0.17324 0.19034 0.02269 0.0
C531 C 0.15078 0.18808 0.13435 0.0
C532 C 0.16408 0.17335 0.12347 0.0
C533 C 0.18987 0.16061 0.05732 0.0
C534 C 0.20206 0.16248 0.0021 0.0
C535 C 0.17561 0.17454 0.06798 0.0
C536 C 0.19919 0.17793 0.95714 0.0
C537 C 0.18486 0.19167 0.96728 0.0
H538 H 0.85207 0.03898 0.05567 0.0
H539 H 0.80217 0.02484 0.90125 0.0
H540 H 0.77836 0.97601 0.92067 0.0
H541 H 0.77132 0.93753 0.98164 0.0
H542 H 0.82099 0.95113 0.13613 0.0
H543 H 0.8453 0.0001 0.11642 0.0
C544 C 0.83604 0.02523 0.02614 0.0
C545 C 0.82892 0.0356 0.97707 0.0
C546 C 0.82235 0.99713 0.03763 0.0
C547 C 0.80809 0.01745 0.93932 0.0
C548 C 0.79442 0.98951 0.95041 0.0
C549 C 0.78745 0.95114 0.01117 0.0
C550 C 0.79426 0.94064 0.06044 0.0
C551 C 0.80132 0.97916 0.99952 0.0
C552 C 0.8153 0.95865 0.09794 0.0
C553 C 0.82921 0.98665 0.08668 0.0
H554 H 0.94677 0.79242 0.0923 0.0
H555 H 0.97134 0.79213 0.91213 0.0
H556 H 0.01907 0.81873 0.94081 0.0
H557 H 0.05374 0.84062 0.01712 0.0
H558 H 0.0296 0.84052 0.19776 0.0
H559 H 0.9817 0.81556 0.16859 0.0
C560 C 0.96255 0.7983 0.0592 0.0
C561 C 0.95545 0.79021 1.00016 0.0
C562 C 0.99 0.81344 0.07606 0.0
C563 C 0.97619 0.79801 0.9579 0.0
C564 C 0.00351 0.81321 0.97425 0.0
C565 C 0.03805 0.83525 0.05022 0.0
C566 C 0.04528 0.84234 0.10963 0.0
C567 C 0.01063 0.8208 0.03325 0.0
C568 C 0.02462 0.83528 0.15176 0.0
C569 C 0.99723 0.82098 0.13512 0.0
H570 H 0.85268 0.79773 0.91252 0.0
H571 H 0.7867 0.72634 0.99381 0.0
H572 H 0.76363 0.75178 0.01676 0.0
H573 H 0.76238 0.79432 0.0152 0.0
H574 H 0.82776 0.86564 0.93261 0.0
H575 H 0.85087 0.84017 0.90891 0.0
C576 C 0.83321 0.7877 0.93507 0.0
C577 C 0.8215 0.76016 0.95151 0.0
C578 C 0.81998 0.80245 0.94818 0.0
C579 C 0.79621 0.74749 0.98058 0.0
C580 C 0.783 0.76204 0.99389 0.0
C581 C 0.78174 0.80435 0.99219 0.0
C582 C 0.7934 0.83189 0.97602 0.0
C583 C 0.79477 0.78955 0.97823 0.0
C584 C 0.81835 0.84447 0.94565 0.0
C585 C 0.83158 0.82992 0.93205 0.0
H586 H 0.19525 0.9631 0.06493 0.0
H587 H 0.12088 0.96304 0.0235 0.0
H588 H 0.14711 0.01031 0.99093 0.0
H589 H 0.19113 0.0516 0.97387 0.0
H590 H 0.26545 0.05147 0.01485 0.0
H591 H 0.2392 0.00426 0.04756 0.0
C592 C 0.18474 0.97344 0.04905 0.0
C593 C 0.15612 0.95953 0.04683 0.0
C594 C 0.19993 0.00055 0.02996 0.0
C595 C 0.14288 0.97323 0.02576 0.0
C596 C 0.15787 0.00027 0.00701 0.0
C597 C 0.20161 0.04123 0.98972 0.0
C598 C 0.23023 0.05508 0.99181 0.0
C599 C 0.1864 0.01409 0.00873 0.0
C600 C 0.24345 0.04132 0.01268 0.0
C601 C 0.22846 0.01432 0.03154 0.0
H602 H 0.94651 0.19894 0.997 0.0
H603 H 0.939 0.12965 0.90147 0.0
H604 H 0.9867 0.14432 0.92188 0.0
H605 H 0.03038 0.17655 0.96816 0.0
H606 H 0.03728 0.24552 0.06419 0.0
H607 H 0.98992 0.23108 0.04249 0.0
C608 C 0.9553 0.18709 0.9803 0.0
C609 C 0.9392 0.16326 0.9477 0.0
C610 C 0.98261 0.19548 0.99263 0.0
C611 C 0.95094 0.14811 0.92665 0.0
C612 C 0.9782 0.15645 0.93843 0.0
C613 C 0.02151 0.18837 0.9845 0.0
C614 C 0.0374 0.21205 0.01784 0.0
C615 C 0.99419 0.18001 0.9717 0.0
C616 C 0.02557 0.22719 0.03844 0.0
C617 C 0.99846 0.21899 0.026 0.0
H618 H 0.84089 0.55261 0.33654 0.0
H619 H 0.77866 0.48566 0.43668 0.0
H620 H 0.79835 0.45738 0.40941 0.0
H621 H 0.8336 0.45189 0.35782 0.0
H622 H 0.89546 0.51917 0.25755 0.0
H623 H 0.87537 0.54698 0.28403 0.0
C624 C 0.8316 0.53184 0.35259 0.0
C625 C 0.80838 0.52133 0.38885 0.0
C626 C 0.84291 0.5157 0.33654 0.0
C627 C 0.79657 0.49431 0.40882 0.0
C628 C 0.80781 0.47811 0.3932 0.0
C629 C 0.84263 0.47259 0.34154 0.0
C630 C 0.86605 0.48338 0.30578 0.0
C631 C 0.83101 0.4886 0.35711 0.0
C632 C 0.87746 0.51029 0.28514 0.0
C633 C 0.86601 0.52627 0.30034 0.0
H634 H 0.53591 0.37192 0.34458 0.0
H635 H 0.46808 0.36236 0.23985 0.0
H636 H 0.43921 0.3173 0.28224 0.0
H637 H 0.4329 0.28111 0.35044 0.0
H638 H 0.50067 0.29027 0.45468 0.0
H639 H 0.52984 0.33515 0.41129 0.0
C640 C 0.51487 0.35993 0.33066 0.0
C641 C 0.5042 0.37057 0.28909 0.0
C642 C 0.4983 0.33408 0.35551 0.0
C643 C 0.47686 0.35471 0.27169 0.0
C644 C 0.46028 0.32896 0.29608 0.0
C645 C 0.45402 0.29295 0.36396 0.0
C646 C 0.46454 0.2824 0.40608 0.0
C647 C 0.47072 0.31857 0.33841 0.0
C648 C 0.49203 0.29792 0.42251 0.0
C649 C 0.50874 0.32357 0.39762 0.0
H650 H 0.61252 0.11168 0.35741 0.0
H651 H 0.62571 0.15499 0.19307 0.0
H652 H 0.67459 0.18063 0.21267 0.0
H653 H 0.71366 0.1895 0.27466 0.0
H654 H 0.70034 0.14626 0.43915 0.0
H655 H 0.65132 0.12197 0.42137 0.0
C656 C 0.62605 0.12675 0.32584 0.0
C657 C 0.61547 0.13125 0.2736 0.0
C658 C 0.65409 0.14144 0.33743 0.0
C659 C 0.6333 0.15106 0.23354 0.0
C660 C 0.66126 0.16572 0.24469 0.0
C661 C 0.70005 0.17488 0.30684 0.0
C662 C 0.7107 0.16962 0.35803 0.0
C663 C 0.6719 0.1609 0.29625 0.0
C664 C 0.69272 0.15071 0.39937 0.0
C665 C 0.66468 0.13674 0.38916 0.0
H666 H 0.49201 0.11777 0.42711 0.0
H667 H 0.49215 0.12055 0.23687 0.0
H668 H 0.46721 0.14536 0.23961 0.0
H669 H 0.44489 0.16574 0.29591 0.0
H670 H 0.4439 0.16206 0.4861 0.0
H671 H 0.46966 0.13809 0.48338 0.0
C672 C 0.48669 0.12388 0.38621 0.0
C673 C 0.49398 0.11732 0.33188 0.0
C674 C 0.47214 0.13792 0.38807 0.0
C675 C 0.48677 0.12528 0.27931 0.0
C676 C 0.4725 0.13948 0.28082 0.0
C677 C 0.45035 0.15976 0.33681 0.0
C678 C 0.44247 0.1657 0.39112 0.0
C679 C 0.46501 0.14582 0.33494 0.0
C680 C 0.44964 0.1577 0.44367 0.0
C681 C 0.4644 0.14401 0.44217 0.0
H682 H 0.83461 0.27896 0.26691 0.0
H683 H 0.83775 0.2815 0.45713 0.0
H684 H 0.86198 0.3312 0.45453 0.0
H685 H 0.88258 0.37388 0.39832 0.0
H686 H 0.87882 0.3713 0.20813 0.0
H687 H 0.85442 0.32162 0.21079 0.0
C688 C 0.84061 0.29035 0.30785 0.0
C689 C 0.83444 0.27649 0.36213 0.0
C690 C 0.85439 0.31892 0.30607 0.0
C691 C 0.84223 0.29162 0.41472 0.0
C692 C 0.8561 0.32006 0.41329 0.0
C693 C 0.87642 0.36248 0.3574 0.0
C694 C 0.88261 0.37634 0.30311 0.0
C695 C 0.86233 0.33391 0.35922 0.0
C696 C 0.87433 0.36119 0.25056 0.0
C697 C 0.8604 0.33276 0.25201 0.0
H698 H 0.61947 0.52543 0.33127 0.0
H699 H 0.61824 0.47151 0.1955 0.0
H700 H 0.66657 0.48762 0.21226 0.0
H701 H 0.70924 0.5173 0.26535 0.0
H702 H 0.7095 0.5699 0.40342 0.0
H703 H 0.66145 0.55389 0.38601 0.0
C704 C 0.62979 0.51727 0.30512 0.0
C705 C 0.61535 0.49747 0.26191 0.0
C706 C 0.65738 0.52631 0.31558 0.0
C707 C 0.62892 0.48682 0.229 0.0
C708 C 0.65655 0.49602 0.23855 0.0
C709 C 0.69877 0.52522 0.29168 0.0
C710 C 0.71302 0.54484 0.33548 0.0
C711 C 0.67099 0.51578 0.28174 0.0
C712 C 0.69907 0.55475 0.36948 0.0
C713 C 0.67157 0.54567 0.35947 0.0
H714 H 0.54892 0.83625 0.72925 0.0
H715 H 0.53531 0.83589 0.54184 0.0
H716 H 0.50857 0.85823 0.55807 0.0
H717 H 0.4901 0.87889 0.62484 0.0
H718 H 0.50444 0.88037 0.81209 0.0
H719 H 0.52979 0.85643 0.79644 0.0
C720 C 0.54 0.84093 0.69195 0.0
C721 C 0.54416 0.83441 0.6344 0.0
C722 C 0.52482 0.854 0.70152 0.0
C723 C 0.53251 0.84072 0.58659 0.0
C724 C 0.5172 0.8535 0.59581 0.0
C725 C 0.49863 0.87388 0.66236 0.0
C726 C 0.49537 0.88143 0.71956 0.0
C727 C 0.51338 0.86038 0.65301 0.0
C728 C 0.50666 0.87482 0.76758 0.0
C729 C 0.52118 0.86115 0.75867 0.0
H730 H 0.13891 0.71662 0.6386 0.0
H731 H 0.21183 0.71059 0.6302 0.0
H732 H 0.18627 0.66343 0.6639 0.0
H733 H 0.14332 0.62399 0.69598 0.0
H734 H 0.07039 0.63003 0.7038 0.0
H735 H 0.09598 0.6772 0.67037 0.0
C736 C 0.14924 0.705 0.6439 0.0
C737 C 0.17726 0.71716 0.63176 0.0
C738 C 0.13446 0.67793 0.66349 0.0
C739 C 0.19028 0.70176 0.6391 0.0
C740 C 0.17569 0.67479 0.6585 0.0
C741 C 0.13301 0.63564 0.69064 0.0
C742 C 0.10497 0.62347 0.70255 0.0
C743 C 0.1478 0.66271 0.67099 0.0
C744 C 0.09195 0.63886 0.69504 0.0
C745 C 0.10656 0.66584 0.67582 0.0
H746 H 0.39159 0.54496 0.61671 0.0
H747 H 0.38341 0.48248 0.73775 0.0
H748 H 0.33533 0.45489 0.71259 0.0
H749 H 0.29616 0.44773 0.65396 0.0
H750 H 0.30411 0.50962 0.53148 0.0
H751 H 0.35183 0.53823 0.5596 0.0
C752 C 0.37926 0.5254 0.63795 0.0
C753 C 0.39113 0.51579 0.67897 0.0
C754 C 0.35166 0.50947 0.62278 0.0
C755 C 0.37484 0.49036 0.70592 0.0
C756 C 0.34734 0.47453 0.6915 0.0
C757 C 0.30827 0.46749 0.63334 0.0
C758 C 0.29659 0.47644 0.59039 0.0
C759 C 0.33564 0.48375 0.64953 0.0
C760 C 0.31259 0.50218 0.5645 0.0
C761 C 0.33989 0.51856 0.58058 0.0
H762 H 0.199 0.48435 0.68801 0.0
H763 H 0.14816 0.42718 0.55467 0.0
H764 H 0.11385 0.44065 0.56978 0.0
H765 H 0.09775 0.46779 0.62268 0.0
H766 H 0.14884 0.52508 0.75558 0.0
H767 H 0.1835 0.51228 0.73889 0.0
C768 C 0.1805 0.47492 0.66195 0.0
C769 C 0.17617 0.45473 0.62038 0.0
C770 C 0.16079 0.48263 0.67107 0.0
C771 C 0.15206 0.44279 0.58698 0.0
C772 C 0.13237 0.45041 0.59571 0.0
C773 C 0.11644 0.47744 0.6481 0.0
C774 C 0.1206 0.49726 0.69054 0.0
C775 C 0.1364 0.47012 0.63803 0.0
C776 C 0.14506 0.50973 0.7227 0.0
C777 C 0.16493 0.50244 0.71317 0.0
H778 H 0.51243 0.6229 0.57378 0.0
H779 H 0.51074 0.62762 0.76366 0.0
H780 H 0.53026 0.67687 0.75772 0.0
H781 H 0.5483 0.71853 0.69903 0.0
H782 H 0.55006 0.71409 0.50915 0.0
H783 H 0.5298 0.66465 0.5148 0.0
C784 C 0.51634 0.63468 0.61391 0.0
C785 C 0.51021 0.62156 0.6691 0.0
C786 C 0.52749 0.663 0.6102 0.0
C787 C 0.51529 0.63716 0.7206 0.0
C788 C 0.52644 0.66534 0.71727 0.0
C789 C 0.54419 0.70679 0.65877 0.0
C790 C 0.55074 0.72002 0.60374 0.0
C791 C 0.53267 0.67845 0.66235 0.0
C792 C 0.54521 0.70443 0.55209 0.0
C793 C 0.53368 0.67617 0.55529 0.0
H794 H 0.28294 0.83127 0.74544 0.0
H795 H 0.28982 0.84324 0.55683 0.0
H796 H 0.33934 0.86951 0.5652 0.0
H797 H 0.38054 0.88992 0.62616 0.0
H798 H 0.37364 0.87821 0.81484 0.0
H799 H 0.32419 0.85096 0.8062 0.0
C800 C 0.29524 0.83951 0.70607 0.0
C801 C 0.28264 0.83531 0.65059 0.0
C802 C 0.32368 0.85472 0.71121 0.0
C803 C 0.29895 0.84617 0.60009 0.0
C804 C 0.32728 0.86123 0.60484 0.0
C805 C 0.36826 0.8814 0.66545 0.0
C806 C 0.38082 0.88619 0.72109 0.0
C807 C 0.33984 0.86578 0.6602 0.0
C808 C 0.36454 0.87489 0.77147 0.0
C809 C 0.33624 0.8593 0.76658 0.0
loop_
_geom_bond_atom_site_label_1
_geom_bond_atom_site_label_2
_geom_bond_distance
_geom_bond_site_symmetry_2
_ccdc_geom_bond_type
C0 O1 1.160 . S
C0 O7 1.185 . S
O1 C0 1.160 . S
O2 Zn3 1.899 . S
O2 C10 1.284 . S
Zn3 O2 1.899 . S
Zn3 O4 2.032 . S
Zn3 O7 2.086 . S
Zn3 O12 1.977 . S
O4 Zn3 2.032 . S
O4 C8 1.278 . S
C5 O6 1.203 . S
C5 O12 1.267 1_556 S
O6 C5 1.203 . S
O7 C0 1.185 . S
O7 Zn3 2.086 . S
C8 O4 1.278 . S
C8 O9 1.211 1_554 S
O9 C8 1.211 1_556 S
C10 O2 1.284 . S
C10 O11 1.273 . S
O11 C10 1.273 . S
O12 Zn3 1.977 . S
O12 C5 1.267 1_554 S
C13 O14 1.160 . S
C13 O20 1.185 . S
O14 C13 1.160 . S
O15 Zn16 1.899 . S
O15 C23 1.284 . S
Zn16 O15 1.899 . S
Zn16 O17 2.032 . S
Zn16 O20 2.086 . S
Zn16 O25 1.977 . S
O17 Zn16 2.032 . S
O17 C21 1.278 . S
C18 O19 1.203 . S
C18 O25 1.267 1_556 S
O19 C18 1.203 . S
O20 C13 1.185 . S
O20 Zn16 2.086 . S
C21 O17 1.278 . S
C21 O22 1.211 1_554 S
O22 C21 1.211 1_556 S
C23 O15 1.284 . S
C23 O24 1.273 . S
O24 C23 1.273 . S
O25 Zn16 1.977 . S
O25 C18 1.267 1_554 S
C26 O27 1.160 . S
C26 O33 1.185 . S
O27 C26 1.160 . S
O28 Zn29 1.899 . S
O28 C36 1.284 . S
Zn29 O28 1.899 . S
Zn29 O30 2.032 . S
Zn29 O33 2.086 . S
Zn29 O38 1.977 . S
O30 Zn29 2.032 . S
O30 C34 1.278 . S
C31 O32 1.203 . S
C31 O38 1.267 1_556 S
O32 C31 1.203 . S
O33 C26 1.185 . S
O33 Zn29 2.086 . S
C34 O30 1.278 . S
C34 O35 1.211 1_554 S
O35 C34 1.211 1_556 S
C36 O28 1.284 . S
C36 O37 1.273 . S
O37 C36 1.273 . S
O38 Zn29 1.977 . S
O38 C31 1.267 1_554 S
C39 O40 1.160 . S
C39 O46 1.185 . S
O40 C39 1.160 . S
O41 Zn42 1.899 . S
O41 C49 1.284 . S
Zn42 O41 1.899 . S
Zn42 O43 2.032 . S
Zn42 O46 2.086 . S
Zn42 O51 1.977 . S
O43 Zn42 2.032 . S
O43 C47 1.278 . S
C44 O45 1.203 . S
C44 O51 1.267 1_554 S
O45 C44 1.203 . S
O46 C39 1.185 . S
O46 Zn42 2.086 . S
C47 O43 1.278 . S
C47 O48 1.211 1_556 S
O48 C47 1.211 1_554 S
C49 O41 1.284 . S
C49 O50 1.273 . S
O50 C49 1.273 . S
O51 Zn42 1.977 . S
O51 C44 1.267 1_556 S
C52 O53 1.160 . S
C52 O59 1.185 . S
O53 C52 1.160 . S
O54 Zn55 1.899 . S
O54 C62 1.284 . S
Zn55 O54 1.899 . S
Zn55 O56 2.032 . S
Zn55 O59 2.086 . S
Zn55 O64 1.977 . S
O56 Zn55 2.032 . S
O56 C60 1.278 . S
C57 O58 1.203 . S
C57 O64 1.267 1_554 S
O58 C57 1.203 . S
O59 C52 1.185 . S
O59 Zn55 2.086 . S
C60 O56 1.278 . S
C60 O61 1.211 1_556 S
O61 C60 1.211 1_554 S
C62 O54 1.284 . S
C62 O63 1.273 . S
O63 C62 1.273 . S
O64 Zn55 1.977 . S
O64 C57 1.267 1_556 S
C65 O66 1.160 . S
C65 O72 1.185 . S
O66 C65 1.160 . S
O67 Zn68 1.899 . S
O67 C75 1.284 . S
Zn68 O67 1.899 . S
Zn68 O69 2.032 . S
Zn68 O72 2.086 . S
Zn68 O77 1.977 . S
O69 Zn68 2.032 . S
O69 C73 1.278 . S
C70 O71 1.203 . S
C70 O77 1.267 1_554 S
O71 C70 1.203 . S
O72 C65 1.185 . S
O72 Zn68 2.086 . S
C73 O69 1.278 . S
C73 O74 1.211 1_556 S
O74 C73 1.211 1_554 S
C75 O67 1.284 . S
C75 O76 1.273 . S
O76 C75 1.273 . S
O77 Zn68 1.977 . S
O77 C70 1.267 1_556 S
C78 O79 1.160 . S
C78 O85 1.185 . S
O79 C78 1.160 . S
O80 Zn81 1.899 . S
O80 C88 1.284 . S
Zn81 O80 1.899 . S
Zn81 O82 2.032 . S
Zn81 O85 2.086 . S
Zn81 O90 1.977 . S
O82 Zn81 2.032 . S
O82 C86 1.278 . S
C83 O84 1.203 . S
C83 O90 1.267 . S
O84 C83 1.203 . S
O85 C78 1.185 . S
O85 Zn81 2.086 . S
C86 O82 1.278 . S
C86 O87 1.211 . S
O87 C86 1.211 . S
C88 O80 1.284 . S
C88 O89 1.273 . S
O89 C88 1.273 . S
O90 Zn81 1.977 . S
O90 C83 1.267 . S
C91 O92 1.160 . S
C91 O98 1.185 . S
O92 C91 1.160 . S
O93 Zn94 1.899 . S
O93 C101 1.284 . S
Zn94 O93 1.899 . S
Zn94 O95 2.032 . S
Zn94 O98 2.086 . S
Zn94 O103 1.977 . S
O95 Zn94 2.032 . S
O95 C99 1.278 . S
C96 O97 1.203 . S
C96 O103 1.267 . S
O97 C96 1.203 . S
O98 C91 1.185 . S
O98 Zn94 2.086 . S
C99 O95 1.278 . S
C99 O100 1.211 . S
O100 C99 1.211 . S
C101 O93 1.284 . S
C101 O102 1.273 . S
O102 C101 1.273 . S
O103 Zn94 1.977 . S
O103 C96 1.267 . S
C104 O105 1.160 . S
C104 O111 1.185 . S
O105 C104 1.160 . S
O106 Zn107 1.899 . S
O106 C114 1.284 . S
Zn107 O106 1.899 . S
Zn107 O108 2.032 . S
Zn107 O111 2.086 . S
Zn107 O116 1.977 . S
O108 Zn107 2.032 . S
O108 C112 1.278 . S
C109 O110 1.203 . S
C109 O116 1.267 . S
O110 C109 1.203 . S
O111 C104 1.185 . S
O111 Zn107 2.086 . S
C112 O108 1.278 . S
C112 O113 1.211 . S
O113 C112 1.211 . S
C114 O106 1.284 . S
C114 O115 1.273 . S
O115 C114 1.273 . S
O116 Zn107 1.977 . S
O116 C109 1.267 . S
C117 O118 1.160 . S
C117 O124 1.185 . S
O118 C117 1.160 . S
O119 Zn120 1.899 . S
O119 C127 1.284 . S
Zn120 O119 1.899 . S
Zn120 O121 2.032 . S
Zn120 O124 2.086 . S
Zn120 O129 1.977 . S
O121 Zn120 2.032 . S
O121 C125 1.278 . S
C122 O123 1.203 . S
C122 O129 1.267 . S
O123 C122 1.203 . S
O124 C117 1.185 . S
O124 Zn120 2.086 . S
C125 O121 1.278 . S
C125 O126 1.211 . S
O126 C125 1.211 . S
C127 O119 1.284 . S
C127 O128 1.273 . S
O128 C127 1.273 . S
O129 Zn120 1.977 . S
O129 C122 1.267 . S
C130 O131 1.160 . S
C130 O137 1.185 . S
O131 C130 1.160 . S
O132 Zn133 1.899 . S
O132 C140 1.284 . S
Zn133 O132 1.899 . S
Zn133 O134 2.032 . S
Zn133 O137 2.086 . S
Zn133 O142 1.977 . S
O134 Zn133 2.032 . S
O134 C138 1.278 . S
C135 O136 1.203 . S
C135 O142 1.267 . S
O136 C135 1.203 . S
O137 C130 1.185 . S
O137 Zn133 2.086 . S
C138 O134 1.278 . S
C138 O139 1.211 . S
O139 C138 1.211 . S
C140 O132 1.284 . S
C140 O141 1.273 . S
O141 C140 1.273 . S
O142 Zn133 1.977 . S
O142 C135 1.267 . S
C143 O144 1.160 . S
C143 O150 1.185 . S
O144 C143 1.160 . S
O145 Zn146 1.899 . S
O145 C153 1.284 . S
Zn146 O145 1.899 . S
Zn146 O147 2.032 . S
Zn146 O150 2.086 . S
Zn146 O155 1.977 . S
O147 Zn146 2.032 . S
O147 C151 1.278 . S
C148 O149 1.203 . S
C148 O155 1.267 . S
O149 C148 1.203 . S
O150 C143 1.185 . S
O150 Zn146 2.086 . S
C151 O147 1.278 . S
C151 O152 1.211 . S
O152 C151 1.211 . S
C153 O145 1.284 . S
C153 O154 1.273 . S
O154 C153 1.273 . S
O155 Zn146 1.977 . S
O155 C148 1.267 . S
C156 O157 1.160 . S
C156 O163 1.185 . S
O157 C156 1.160 . S
O158 Zn159 1.899 . S
O158 C166 1.284 . S
Zn159 O158 1.899 . S
Zn159 O160 2.032 . S
Zn159 O163 2.086 . S
Zn159 O168 1.977 . S
O160 Zn159 2.032 . S
O160 C164 1.278 . S
C161 O162 1.203 . S
C161 O168 1.267 . S
O162 C161 1.203 . S
O163 C156 1.185 . S
O163 Zn159 2.086 . S
C164 O160 1.278 . S
C164 O165 1.211 . S
O165 C164 1.211 . S
C166 O158 1.284 . S
C166 O167 1.273 . S
O167 C166 1.273 . S
O168 Zn159 1.977 . S
O168 C161 1.267 . S
C169 O170 1.160 . S
C169 O176 1.185 . S
O170 C169 1.160 . S
O171 Zn172 1.899 . S
O171 C179 1.284 . S
Zn172 O171 1.899 . S
Zn172 O173 2.032 . S
Zn172 O176 2.086 . S
Zn172 O181 1.977 . S
O173 Zn172 2.032 . S
O173 C177 1.278 . S
C174 O175 1.203 . S
C174 O181 1.267 . S
O175 C174 1.203 . S
O176 C169 1.185 . S
O176 Zn172 2.086 . S
C177 O173 1.278 . S
C177 O178 1.211 . S
O178 C177 1.211 . S
C179 O171 1.284 . S
C179 O180 1.273 . S
O180 C179 1.273 . S
O181 Zn172 1.977 . S
O181 C174 1.267 . S
C182 O183 1.160 . S
C182 O189 1.185 . S
O183 C182 1.160 . S
O184 Zn185 1.899 . S
O184 C192 1.284 . S
Zn185 O184 1.899 . S
Zn185 O186 2.032 . S
Zn185 O189 2.086 . S
Zn185 O194 1.977 . S
O186 Zn185 2.032 . S
O186 C190 1.278 . S
C187 O188 1.203 . S
C187 O194 1.267 . S
O188 C187 1.203 . S
O189 C182 1.185 . S
O189 Zn185 2.086 . S
C190 O186 1.278 . S
C190 O191 1.211 . S
O191 C190 1.211 . S
C192 O184 1.284 . S
C192 O193 1.273 . S
O193 C192 1.273 . S
O194 Zn185 1.977 . S
O194 C187 1.267 . S
C195 O196 1.160 . S
C195 O202 1.185 . S
O196 C195 1.160 . S
O197 Zn198 1.899 . S
O197 C205 1.284 . S
Zn198 O197 1.899 . S
Zn198 O199 2.032 . S
Zn198 O202 2.086 . S
Zn198 O207 1.977 . S
O199 Zn198 2.032 . S
O199 C203 1.278 . S
C200 O201 1.203 . S
C200 O207 1.267 . S
O201 C200 1.203 . S
O202 C195 1.185 . S
O202 Zn198 2.086 . S
C203 O199 1.278 . S
C203 O204 1.211 . S
O204 C203 1.211 . S
C205 O197 1.284 . S
C205 O206 1.273 . S
O206 C205 1.273 . S
O207 Zn198 1.977 . S
O207 C200 1.267 . S
C208 O209 1.160 . S
C208 O215 1.185 . S
O209 C208 1.160 . S
O210 Zn211 1.899 . S
O210 C218 1.284 . S
Zn211 O210 1.899 . S
Zn211 O212 2.032 . S
Zn211 O215 2.086 . S
Zn211 O220 1.977 . S
O212 Zn211 2.032 . S
O212 C216 1.278 . S
C213 O214 1.203 . S
C213 O220 1.267 . S
O214 C213 1.203 . S
O215 C208 1.185 . S
O215 Zn211 2.086 . S
C216 O212 1.278 . S
C216 O217 1.211 . S
O217 C216 1.211 . S
C218 O210 1.284 . S
C218 O219 1.273 . S
O219 C218 1.273 . S
O220 Zn211 1.977 . S
O220 C213 1.267 . S
C221 O222 1.160 . S
C221 O228 1.185 . S
O222 C221 1.160 . S
O223 Zn224 1.899 . S
O223 C231 1.284 . S
Zn224 O223 1.899 . S
Zn224 O225 2.032 . S
Zn224 O228 2.086 . S
Zn224 O233 1.977 . S
O225 Zn224 2.032 . S
O225 C229 1.278 . S
C226 O227 1.203 . S
C226 O233 1.267 . S
O227 C226 1.203 . S
O228 C221 1.185 . S
O228 Zn224 2.086 . S
C229 O225 1.278 . S
C229 O230 1.211 . S
O230 C229 1.211 . S
C231 O223 1.284 . S
C231 O232 1.273 . S
O232 C231 1.273 . S
O233 Zn224 1.977 . S
O233 C226 1.267 . S
H234 C240 0.930 . S
H235 C243 0.930 . S
H236 C244 0.930 . S
H237 C245 0.930 . S
H238 C248 0.930 . S
H239 C249 0.930 . S
C240 H234 0.930 . S
C240 C241 1.355 . S
C240 C242 1.415 . S
C241 C240 1.355 . S
C241 C243 1.419 . S
C242 C240 1.415 . S
C242 C247 1.425 . S
C242 C249 1.409 . S
C243 H235 0.930 . S
C243 C241 1.419 . S
C243 C244 1.362 . S
C244 H236 0.930 . S
C244 C243 1.362 . S
C244 C247 1.409 . S
C245 H237 0.930 . S
C245 C246 1.355 . S
C245 C247 1.415 . S
C246 C245 1.355 . S
C246 C248 1.419 . S
C247 C242 1.425 . S
C247 C244 1.409 . S
C247 C245 1.415 . S
C248 H238 0.930 . S
C248 C246 1.419 . S
C248 C249 1.362 . S
C249 H239 0.930 . S
C249 C242 1.409 . S
C249 C248 1.362 . S
H250 C256 0.930 . S
H251 C259 0.930 . S
H252 C260 0.930 . S
H253 C261 0.930 . S
H254 C264 0.930 . S
H255 C265 0.930 . S
C256 H250 0.930 . S
C256 C257 1.355 . S
C256 C258 1.415 . S
C257 C256 1.355 . S
C257 C259 1.419 . S
C258 C256 1.415 . S
C258 C263 1.425 . S
C258 C265 1.409 . S
C259 H251 0.930 . S
C259 C257 1.419 . S
C259 C260 1.362 . S
C260 H252 0.930 . S
C260 C259 1.362 . S
C260 C263 1.409 . S
C261 H253 0.930 . S
C261 C262 1.355 . S
C261 C263 1.415 . S
C262 C261 1.355 . S
C262 C264 1.419 . S
C263 C258 1.425 . S
C263 C260 1.409 . S
C263 C261 1.415 . S
C264 H254 0.930 . S
C264 C262 1.419 . S
C264 C265 1.362 . S
C265 H255 0.930 . S
C265 C258 1.409 . S
C265 C264 1.362 . S
H266 C272 0.930 . S
H267 C275 0.930 . S
H268 C276 0.930 . S
H269 C277 0.930 . S
H270 C280 0.930 . S
H271 C281 0.930 . S
C272 H266 0.930 . S
C272 C273 1.355 . S
C272 C274 1.415 . S
C273 C272 1.355 . S
C273 C275 1.419 . S
C274 C272 1.415 . S
C274 C279 1.425 . S
C274 C281 1.409 . S
C275 H267 0.930 . S
C275 C273 1.419 . S
C275 C276 1.362 . S
C276 H268 0.930 . S
C276 C275 1.362 . S
C276 C279 1.409 . S
C277 H269 0.930 . S
C277 C278 1.355 . S
C277 C279 1.415 . S
C278 C277 1.355 . S
C278 C280 1.419 . S
C279 C274 1.425 . S
C279 C276 1.409 . S
C279 C277 1.415 . S
C280 H270 0.930 . S
C280 C278 1.419 . S
C280 C281 1.362 . S
C281 H271 0.930 . S
C281 C274 1.409 . S
C281 C280 1.362 . S
H282 C288 0.930 . S
H283 C291 0.930 . S
H284 C292 0.930 . S
H285 C293 0.930 . S
H286 C296 0.930 . S
H287 C297 0.930 . S
C288 H282 0.930 . S
C288 C289 1.355 . S
C288 C290 1.415 . S
C289 C288 1.355 . S
C289 C291 1.419 . S
C290 C288 1.415 . S
C290 C295 1.425 . S
C290 C297 1.409 . S
C291 H283 0.930 . S
C291 C289 1.419 . S
C291 C292 1.362 . S
C292 H284 0.930 . S
C292 C291 1.362 . S
C292 C295 1.409 . S
C293 H285 0.930 . S
C293 C294 1.355 . S
C293 C295 1.415 . S
C294 C293 1.355 . S
C294 C296 1.419 . S
C295 C290 1.425 . S
C295 C292 1.409 . S
C295 C293 1.415 . S
C296 H286 0.930 . S
C296 C294 1.419 . S
C296 C297 1.362 . S
C297 H287 0.930 . S
C297 C290 1.409 . S
C297 C296 1.362 . S
H298 C304 0.930 . S
H299 C307 0.930 . S
H300 C308 0.930 . S
H301 C309 0.930 . S
H302 C312 0.930 . S
H303 C313 0.930 . S
C304 H298 0.930 . S
C304 C305 1.355 . S
C304 C306 1.415 . S
C305 C304 1.355 . S
C305 C307 1.419 . S
C306 C304 1.415 . S
C306 C311 1.425 . S
C306 C313 1.409 . S
C307 H299 0.930 . S
C307 C305 1.419 . S
C307 C308 1.362 . S
C308 H300 0.930 . S
C308 C307 1.362 . S
C308 C311 1.409 . S
C309 H301 0.930 . S
C309 C310 1.355 . S
C309 C311 1.415 . S
C310 C309 1.355 . S
C310 C312 1.419 . S
C311 C306 1.425 . S
C311 C308 1.409 . S
C311 C309 1.415 . S
C312 H302 0.930 . S
C312 C310 1.419 . S
C312 C313 1.362 . S
C313 H303 0.930 . S
C313 C306 1.409 . S
C313 C312 1.362 . S
H314 C320 0.930 . S
H315 C323 0.930 . S
H316 C324 0.930 . S
H317 C325 0.930 . S
H318 C328 0.930 . S
H319 C329 0.930 . S
C320 H314 0.930 . S
C320 C321 1.355 . S
C320 C322 1.415 . S
C321 C320 1.355 . S
C321 C323 1.419 . S
C322 C320 1.415 . S
C322 C327 1.425 . S
C322 C329 1.409 . S
C323 H315 0.930 . S
C323 C321 1.419 . S
C323 C324 1.362 . S
C324 H316 0.930 . S
C324 C323 1.362 . S
C324 C327 1.409 . S
C325 H317 0.930 . S
C325 C326 1.355 . S
C325 C327 1.415 . S
C326 C325 1.355 . S
C326 C328 1.419 . S
C327 C322 1.425 . S
C327 C324 1.409 . S
C327 C325 1.415 . S
C328 H318 0.930 . S
C328 C326 1.419 . S
C328 C329 1.362 . S
C329 H319 0.930 . S
C329 C322 1.409 . S
C329 C328 1.362 . S
H330 C336 0.930 . S
H331 C339 0.930 . S
H332 C340 0.930 . S
H333 C341 0.930 . S
H334 C344 0.930 . S
H335 C345 0.930 . S
C336 H330 0.930 . S
C336 C337 1.355 . S
C336 C338 1.415 1_554 S
C337 C336 1.355 . S
C337 C339 1.419 . S
C338 C336 1.415 1_556 S
C338 C343 1.425 1_656 S
C338 C345 1.409 . S
C339 H331 0.930 . S
C339 C337 1.419 . S
C339 C340 1.362 1_655 S
C340 H332 0.930 . S
C340 C339 1.362 1_455 S
C340 C343 1.409 . S
C341 H333 0.930 . S
C341 C342 1.355 . S
C341 C343 1.415 1_556 S
C342 C341 1.355 . S
C342 C344 1.419 . S
C343 C338 1.425 1_454 S
C343 C340 1.409 . S
C343 C341 1.415 1_554 S
C344 H334 0.930 . S
C344 C342 1.419 . S
C344 C345 1.362 1_455 S
C345 H335 0.930 . S
C345 C338 1.409 . S
C345 C344 1.362 1_655 S
H346 C352 0.930 . S
H347 C355 0.930 . S
H348 C356 0.930 . S
H349 C357 0.930 . S
H350 C360 0.930 . S
H351 C361 0.930 . S
C352 H346 0.930 . S
C352 C353 1.355 . S
C352 C354 1.415 . S
C353 C352 1.355 . S
C353 C355 1.419 . S
C354 C352 1.415 . S
C354 C359 1.425 1_554 S
C354 C361 1.409 . S
C355 H347 0.930 . S
C355 C353 1.419 . S
C355 C356 1.362 1_554 S
C356 H348 0.930 . S
C356 C355 1.362 1_556 S
C356 C359 1.409 . S
C357 H349 0.930 . S
C357 C358 1.355 . S
C357 C359 1.415 . S
C358 C357 1.355 . S
C358 C360 1.419 . S
C359 C354 1.425 1_556 S
C359 C356 1.409 . S
C359 C357 1.415 . S
C360 H350 0.930 . S
C360 C358 1.419 . S
C360 C361 1.362 1_556 S
C361 H351 0.930 . S
C361 C354 1.409 . S
C361 C360 1.362 1_554 S
H362 C368 0.930 . S
H363 C371 0.930 . S
H364 C372 0.930 . S
H365 C373 0.930 . S
H366 C376 0.930 . S
H367 C377 0.930 . S
C368 H362 0.930 . S
C368 C369 1.355 . S
C368 C370 1.415 1_545 S
C369 C368 1.355 . S
C369 C371 1.419 . S
C370 C368 1.415 1_565 S
C370 C375 1.425 1_564 S
C370 C377 1.409 . S
C371 H363 0.930 . S
C371 C369 1.419 . S
C371 C372 1.362 1_554 S
C372 H364 0.930 . S
C372 C371 1.362 1_556 S
C372 C375 1.409 . S
C373 H365 0.930 . S
C373 C374 1.355 . S
C373 C375 1.415 1_565 S
C374 C373 1.355 . S
C374 C376 1.419 . S
C375 C370 1.425 1_546 S
C375 C372 1.409 . S
C375 C373 1.415 1_545 S
C376 H366 0.930 . S
C376 C374 1.419 . S
C376 C377 1.362 1_556 S
C377 H367 0.930 . S
C377 C370 1.409 . S
C377 C376 1.362 1_554 S
H378 C384 0.930 . S
H379 C387 0.930 . S
H380 C388 0.930 . S
H381 C389 0.930 . S
H382 C392 0.930 . S
H383 C393 0.930 . S
C384 H378 0.930 . S
C384 C385 1.355 . S
C384 C386 1.415 . S
C385 C384 1.355 . S
C385 C387 1.419 . S
C386 C384 1.415 . S
C386 C391 1.425 . S
C386 C393 1.409 . S
C387 H379 0.930 . S
C387 C385 1.419 . S
C387 C388 1.362 . S
C388 H380 0.930 . S
C388 C387 1.362 . S
C388 C391 1.409 . S
C389 H381 0.930 . S
C389 C390 1.355 . S
C389 C391 1.415 . S
C390 C389 1.355 . S
C390 C392 1.419 . S
C391 C386 1.425 . S
C391 C388 1.409 . S
C391 C389 1.415 . S
C392 H382 0.930 . S
C392 C390 1.419 . S
C392 C393 1.362 . S
C393 H383 0.930 . S
C393 C386 1.409 . S
C393 C392 1.362 . S
H394 C400 0.930 . S
H395 C403 0.930 . S
H396 C404 0.930 . S
H397 C405 0.930 . S
H398 C408 0.930 . S
H399 C409 0.930 . S
C400 H394 0.930 . S
C400 C401 1.355 . S
C400 C402 1.415 . S
C401 C400 1.355 . S
C401 C403 1.419 . S
C402 C400 1.415 . S
C402 C407 1.425 . S
C402 C409 1.409 . S
C403 H395 0.930 . S
C403 C401 1.419 . S
C403 C404 1.362 . S
C404 H396 0.930 . S
C404 C403 1.362 . S
C404 C407 1.409 . S
C405 H397 0.930 . S
C405 C406 1.355 . S
C405 C407 1.415 . S
C406 C405 1.355 . S
C406 C408 1.419 . S
C407 C402 1.425 . S
C407 C404 1.409 . S
C407 C405 1.415 . S
C408 H398 0.930 . S
C408 C406 1.419 . S
C408 C409 1.362 . S
C409 H399 0.930 . S
C409 C402 1.409 . S
C409 C408 1.362 . S
H410 C416 0.930 . S
H411 C419 0.930 . S
H412 C420 0.930 . S
H413 C421 0.930 . S
H414 C424 0.930 . S
H415 C425 0.930 . S
C416 H410 0.930 . S
C416 C417 1.355 . S
C416 C418 1.415 . S
C417 C416 1.355 . S
C417 C419 1.419 . S
C418 C416 1.415 . S
C418 C423 1.425 . S
C418 C425 1.409 . S
C419 H411 0.930 . S
C419 C417 1.419 . S
C419 C420 1.362 . S
C420 H412 0.930 . S
C420 C419 1.362 . S
C420 C423 1.409 . S
C421 H413 0.930 . S
C421 C422 1.355 . S
C421 C423 1.415 . S
C422 C421 1.355 . S
C422 C424 1.419 . S
C423 C418 1.425 . S
C423 C420 1.409 . S
C423 C421 1.415 . S
C424 H414 0.930 . S
C424 C422 1.419 . S
C424 C425 1.362 . S
C425 H415 0.930 . S
C425 C418 1.409 . S
C425 C424 1.362 . S
H426 C432 0.930 . S
H427 C435 0.930 . S
H428 C436 0.930 . S
H429 C437 0.930 . S
H430 C440 0.930 . S
H431 C441 0.930 . S
C432 H426 0.930 . S
C432 C433 1.355 . S
C432 C434 1.415 . S
C433 C432 1.355 . S
C433 C435 1.419 . S
C434 C432 1.415 . S
C434 C439 1.425 . S
C434 C441 1.409 . S
C435 H427 0.930 . S
C435 C433 1.419 . S
C435 C436 1.362 . S
C436 H428 0.930 . S
C436 C435 1.362 . S
C436 C439 1.409 . S
C437 H429 0.930 . S
C437 C438 1.355 . S
C437 C439 1.415 . S
C438 C437 1.355 . S
C438 C440 1.419 . S
C439 C434 1.425 . S
C439 C436 1.409 . S
C439 C437 1.415 . S
C440 H430 0.930 . S
C440 C438 1.419 . S
C440 C441 1.362 . S
C441 H431 0.930 . S
C441 C434 1.409 . S
C441 C440 1.362 . S
H442 C448 0.930 . S
H443 C451 0.930 . S
H444 C452 0.930 . S
H445 C453 0.930 . S
H446 C456 0.930 . S
H447 C457 0.930 . S
C448 H442 0.930 . S
C448 C449 1.355 . S
C448 C450 1.415 . S
C449 C448 1.355 . S
C449 C451 1.419 . S
C450 C448 1.415 . S
C450 C455 1.425 . S
C450 C457 1.409 . S
C451 H443 0.930 . S
C451 C449 1.419 . S
C451 C452 1.362 . S
C452 H444 0.930 . S
C452 C451 1.362 . S
C452 C455 1.409 . S
C453 H445 0.930 . S
C453 C454 1.355 . S
C453 C455 1.415 . S
C454 C453 1.355 . S
C454 C456 1.419 . S
C455 C450 1.425 . S
C455 C452 1.409 . S
C455 C453 1.415 . S
C456 H446 0.930 . S
C456 C454 1.419 . S
C456 C457 1.362 . S
C457 H447 0.930 . S
C457 C450 1.409 . S
C457 C456 1.362 . S
H458 C464 0.930 . S
H459 C467 0.930 . S
H460 C468 0.930 . S
H461 C469 0.930 . S
H462 C472 0.930 . S
H463 C473 0.930 . S
C464 H458 0.930 . S
C464 C465 1.355 . S
C464 C466 1.415 . S
C465 C464 1.355 . S
C465 C467 1.419 . S
C466 C464 1.415 . S
C466 C471 1.425 . S
C466 C473 1.409 . S
C467 H459 0.930 . S
C467 C465 1.419 . S
C467 C468 1.362 . S
C468 H460 0.930 . S
C468 C467 1.362 . S
C468 C471 1.409 . S
C469 H461 0.930 . S
C469 C470 1.355 . S
C469 C471 1.415 . S
C470 C469 1.355 . S
C470 C472 1.419 . S
C471 C466 1.425 . S
C471 C468 1.409 . S
C471 C469 1.415 . S
C472 H462 0.930 . S
C472 C470 1.419 . S
C472 C473 1.362 . S
C473 H463 0.930 . S
C473 C466 1.409 . S
C473 C472 1.362 . S
H474 C480 0.930 . S
H475 C483 0.930 . S
H476 C484 0.930 . S
H477 C485 0.930 . S
H478 C488 0.930 . S
H479 C489 0.930 . S
C480 H474 0.930 . S
C480 C481 1.355 . S
C480 C482 1.415 . S
C481 C480 1.355 . S
C481 C483 1.419 1_655 S
C482 C480 1.415 . S
C482 C487 1.425 1_655 S
C482 C489 1.409 . S
C483 H475 0.930 . S
C483 C481 1.419 1_455 S
C483 C484 1.362 . S
C484 H476 0.930 . S
C484 C483 1.362 . S
C484 C487 1.409 . S
C485 H477 0.930 . S
C485 C486 1.355 . S
C485 C487 1.415 . S
C486 C485 1.355 . S
C486 C488 1.419 1_455 S
C487 C482 1.425 1_455 S
C487 C484 1.409 . S
C487 C485 1.415 . S
C488 H478 0.930 . S
C488 C486 1.419 1_655 S
C488 C489 1.362 . S
C489 H479 0.930 . S
C489 C482 1.409 . S
C489 C488 1.362 . S
H490 C496 0.930 . S
H491 C499 0.930 . S
H492 C500 0.930 . S
H493 C501 0.930 . S
H494 C504 0.930 . S
H495 C505 0.930 . S
C496 H490 0.930 . S
C496 C497 1.355 . S
C496 C498 1.415 . S
C497 C496 1.355 . S
C497 C499 1.419 . S
C498 C496 1.415 . S
C498 C503 1.425 . S
C498 C505 1.409 . S
C499 H491 0.930 . S
C499 C497 1.419 . S
C499 C500 1.362 . S
C500 H492 0.930 . S
C500 C499 1.362 . S
C500 C503 1.409 . S
C501 H493 0.930 . S
C501 C502 1.355 . S
C501 C503 1.415 . S
C502 C501 1.355 . S
C502 C504 1.419 . S
C503 C498 1.425 . S
C503 C500 1.409 . S
C503 C501 1.415 . S
C504 H494 0.930 . S
C504 C502 1.419 . S
C504 C505 1.362 . S
C505 H495 0.930 . S
C505 C498 1.409 . S
C505 C504 1.362 . S
H506 C512 0.930 . S
H507 C515 0.930 . S
H508 C516 0.930 1_545 S
H509 C517 0.930 . S
H510 C520 0.930 . S
H511 C521 0.930 1_565 S
C512 H506 0.930 . S
C512 C513 1.355 . S
C512 C514 1.415 . S
C513 C512 1.355 . S
C513 C515 1.419 . S
C514 C512 1.415 . S
C514 C519 1.425 1_565 S
C514 C521 1.409 1_565 S
C515 H507 0.930 . S
C515 C513 1.419 . S
C515 C516 1.362 . S
C516 H508 0.930 1_565 S
C516 C515 1.362 . S
C516 C519 1.409 1_565 S
C517 H509 0.930 . S
C517 C518 1.355 . S
C517 C519 1.415 . S
C518 C517 1.355 . S
C518 C520 1.419 . S
C519 C514 1.425 1_545 S
C519 C516 1.409 1_545 S
C519 C517 1.415 . S
C520 H510 0.930 . S
C520 C518 1.419 . S
C520 C521 1.362 . S
C521 H511 0.930 1_545 S
C521 C514 1.409 1_545 S
C521 C520 1.362 . S
H522 C528 0.930 . S
H523 C531 0.930 . S
H524 C532 0.930 . S
H525 C533 0.930 . S
H526 C536 0.930 . S
H527 C537 0.930 . S
C528 H522 0.930 . S
C528 C529 1.355 . S
C528 C530 1.415 . S
C529 C528 1.355 . S
C529 C531 1.419 . S
C530 C528 1.415 . S
C530 C535 1.425 1_554 S
C530 C537 1.409 . S
C531 H523 0.930 . S
C531 C529 1.419 . S
C531 C532 1.362 1_554 S
C532 H524 0.930 . S
C532 C531 1.362 1_556 S
C532 C535 1.409 . S
C533 H525 0.930 . S
C533 C534 1.355 . S
C533 C535 1.415 . S
C534 C533 1.355 . S
C534 C536 1.419 . S
C535 C530 1.425 1_556 S
C535 C532 1.409 . S
C535 C533 1.415 . S
C536 H526 0.930 . S
C536 C534 1.419 . S
C536 C537 1.362 1_556 S
C537 H527 0.930 . S
C537 C530 1.409 . S
C537 C536 1.362 1_554 S
H538 C544 0.930 . S
H539 C547 0.930 . S
H540 C548 0.930 . S
H541 C549 0.930 . S
H542 C552 0.930 . S
H543 C553 0.930 . S
C544 H538 0.930 . S
C544 C545 1.355 . S
C544 C546 1.415 1_556 S
C545 C544 1.355 . S
C545 C547 1.419 . S
C546 C544 1.415 1_554 S
C546 C551 1.425 1_544 S
C546 C553 1.409 1_545 S
C547 H539 0.930 . S
C547 C545 1.419 . S
C547 C548 1.362 . S
C548 H540 0.930 . S
C548 C547 1.362 . S
C548 C551 1.409 1_545 S
C549 H541 0.930 . S
C549 C550 1.355 . S
C549 C551 1.415 1_554 S
C550 C549 1.355 . S
C550 C552 1.419 . S
C551 C546 1.425 1_566 S
C551 C548 1.409 1_565 S
C551 C549 1.415 1_556 S
C552 H542 0.930 . S
C552 C550 1.419 . S
C552 C553 1.362 . S
C553 H543 0.930 . S
C553 C546 1.409 1_565 S
C553 C552 1.362 . S
H554 C560 0.930 . S
H555 C563 0.930 . S
H556 C564 0.930 1_455 S
H557 C565 0.930 . S
H558 C568 0.930 . S
H559 C569 0.930 1_655 S
C560 H554 0.930 . S
C560 C561 1.355 1_554 S
C560 C562 1.415 . S
C561 C560 1.355 1_556 S
C561 C563 1.419 . S
C562 C560 1.415 . S
C562 C567 1.425 1_654 S
C562 C569 1.409 1_655 S
C563 H555 0.930 . S
C563 C561 1.419 . S
C563 C564 1.362 . S
C564 H556 0.930 1_655 S
C564 C563 1.362 . S
C564 C567 1.409 1_655 S
C565 H557 0.930 . S
C565 C566 1.355 1_556 S
C565 C567 1.415 . S
C566 C565 1.355 1_554 S
C566 C568 1.419 . S
C567 C562 1.425 1_456 S
C567 C564 1.409 1_455 S
C567 C565 1.415 . S
C568 H558 0.930 . S
C568 C566 1.419 . S
C568 C569 1.362 . S
C569 H559 0.930 1_455 S
C569 C562 1.409 1_455 S
C569 C568 1.362 . S
H570 C576 0.930 . S
H571 C579 0.930 . S
H572 C580 0.930 . S
H573 C581 0.930 . S
H574 C584 0.930 . S
H575 C585 0.930 . S
C576 H570 0.930 . S
C576 C577 1.355 . S
C576 C578 1.415 . S
C577 C576 1.355 . S
C577 C579 1.419 1_556 S
C578 C576 1.415 . S
C578 C583 1.425 1_556 S
C578 C585 1.409 . S
C579 H571 0.930 . S
C579 C577 1.419 1_554 S
C579 C580 1.362 . S
C580 H572 0.930 . S
C580 C579 1.362 . S
C580 C583 1.409 . S
C581 H573 0.930 . S
C581 C582 1.355 . S
C581 C583 1.415 . S
C582 C581 1.355 . S
C582 C584 1.419 1_554 S
C583 C578 1.425 1_554 S
C583 C580 1.409 . S
C583 C581 1.415 . S
C584 H574 0.930 . S
C584 C582 1.419 1_556 S
C584 C585 1.362 . S
C585 H575 0.930 . S
C585 C578 1.409 . S
C585 C584 1.362 . S
H586 C592 0.930 . S
H587 C595 0.930 . S
H588 C596 0.930 . S
H589 C597 0.930 . S
H590 C600 0.930 . S
H591 C601 0.930 . S
C592 H586 0.930 . S
C592 C593 1.355 . S
C592 C594 1.415 . S
C593 C592 1.355 . S
C593 C595 1.419 1_554 S
C594 C592 1.415 . S
C594 C599 1.425 1_564 S
C594 C601 1.409 1_565 S
C595 H587 0.930 . S
C595 C593 1.419 1_556 S
C595 C596 1.362 . S
C596 H588 0.930 . S
C596 C595 1.362 . S
C596 C599 1.409 1_565 S
C597 H589 0.930 . S
C597 C598 1.355 . S
C597 C599 1.415 . S
C598 C597 1.355 . S
C598 C600 1.419 1_556 S
C599 C594 1.425 1_546 S
C599 C596 1.409 1_545 S
C599 C597 1.415 . S
C600 H590 0.930 . S
C600 C598 1.419 1_554 S
C600 C601 1.362 . S
C601 H591 0.930 . S
C601 C594 1.409 1_545 S
C601 C600 1.362 . S
H602 C608 0.930 . S
H603 C611 0.930 . S
H604 C612 0.930 . S
H605 C613 0.930 . S
H606 C616 0.930 . S
H607 C617 0.930 . S
C608 H602 0.930 . S
C608 C609 1.355 . S
C608 C610 1.415 1_556 S
C609 C608 1.355 . S
C609 C611 1.419 . S
C610 C608 1.415 1_554 S
C610 C615 1.425 1_654 S
C610 C617 1.409 1_655 S
C611 H603 0.930 . S
C611 C609 1.419 . S
C611 C612 1.362 . S
C612 H604 0.930 . S
C612 C611 1.362 . S
C612 C615 1.409 1_655 S
C613 H605 0.930 . S
C613 C614 1.355 . S
C613 C615 1.415 1_554 S
C614 C613 1.355 . S
C614 C616 1.419 . S
C615 C610 1.425 1_456 S
C615 C612 1.409 1_455 S
C615 C613 1.415 1_556 S
C616 H606 0.930 . S
C616 C614 1.419 . S
C616 C617 1.362 . S
C617 H607 0.930 . S
C617 C610 1.409 1_455 S
C617 C616 1.362 . S
H618 C624 0.930 . S
H619 C627 0.930 . S
H620 C628 0.930 . S
H621 C629 0.930 . S
H622 C632 0.930 . S
H623 C633 0.930 . S
C624 H618 0.930 . S
C624 C625 1.355 . S
C624 C626 1.415 . S
C625 C624 1.355 . S
C625 C627 1.419 . S
C626 C624 1.415 . S
C626 C631 1.425 . S
C626 C633 1.409 . S
C627 H619 0.930 . S
C627 C625 1.419 . S
C627 C628 1.362 . S
C628 H620 0.930 . S
C628 C627 1.362 . S
C628 C631 1.409 . S
C629 H621 0.930 . S
C629 C630 1.355 . S
C629 C631 1.415 . S
C630 C629 1.355 . S
C630 C632 1.419 . S
C631 C626 1.425 . S
C631 C628 1.409 . S
C631 C629 1.415 . S
C632 H622 0.930 . S
C632 C630 1.419 . S
C632 C633 1.362 . S
C633 H623 0.930 . S
C633 C626 1.409 . S
C633 C632 1.362 . S
H634 C640 0.930 . S
H635 C643 0.930 . S
H636 C644 0.930 . S
H637 C645 0.930 . S
H638 C648 0.930 . S
H639 C649 0.930 . S
C640 H634 0.930 . S
C640 C641 1.355 . S
C640 C642 1.415 . S
C641 C640 1.355 . S
C641 C643 1.419 . S
C642 C640 1.415 . S
C642 C647 1.425 . S
C642 C649 1.409 . S
C643 H635 0.930 . S
C643 C641 1.419 . S
C643 C644 1.362 . S
C644 H636 0.930 . S
C644 C643 1.362 . S
C644 C647 1.409 . S
C645 H637 0.930 . S
C645 C646 1.355 . S
C645 C647 1.415 . S
C646 C645 1.355 . S
C646 C648 1.419 . S
C647 C642 1.425 . S
C647 C644 1.409 . S
C647 C645 1.415 . S
C648 H638 0.930 . S
C648 C646 1.419 . S
C648 C649 1.362 . S
C649 H639 0.930 . S
C649 C642 1.409 . S
C649 C648 1.362 . S
H650 C656 0.930 . S
H651 C659 0.930 . S
H652 C660 0.930 . S
H653 C661 0.930 . S
H654 C664 0.930 . S
H655 C665 0.930 . S
C656 H650 0.930 . S
C656 C657 1.355 . S
C656 C658 1.415 . S
C657 C656 1.355 . S
C657 C659 1.419 . S
C658 C656 1.415 . S
C658 C663 1.425 . S
C658 C665 1.409 . S
C659 H651 0.930 . S
C659 C657 1.419 . S
C659 C660 1.362 . S
C660 H652 0.930 . S
C660 C659 1.362 . S
C660 C663 1.409 . S
C661 H653 0.930 . S
C661 C662 1.355 . S
C661 C663 1.415 . S
C662 C661 1.355 . S
C662 C664 1.419 . S
C663 C658 1.425 . S
C663 C660 1.409 . S
C663 C661 1.415 . S
C664 H654 0.930 . S
C664 C662 1.419 . S
C664 C665 1.362 . S
C665 H655 0.930 . S
C665 C658 1.409 . S
C665 C664 1.362 . S
H666 C672 0.930 . S
H667 C675 0.930 . S
H668 C676 0.930 . S
H669 C677 0.930 . S
H670 C680 0.930 . S
H671 C681 0.930 . S
C672 H666 0.930 . S
C672 C673 1.355 . S
C672 C674 1.415 . S
C673 C672 1.355 . S
C673 C675 1.419 . S
C674 C672 1.415 . S
C674 C679 1.425 . S
C674 C681 1.409 . S
C675 H667 0.930 . S
C675 C673 1.419 . S
C675 C676 1.362 . S
C676 H668 0.930 . S
C676 C675 1.362 . S
C676 C679 1.409 . S
C677 H669 0.930 . S
C677 C678 1.355 . S
C677 C679 1.415 . S
C678 C677 1.355 . S
C678 C680 1.419 . S
C679 C674 1.425 . S
C679 C676 1.409 . S
C679 C677 1.415 . S
C680 H670 0.930 . S
C680 C678 1.419 . S
C680 C681 1.362 . S
C681 H671 0.930 . S
C681 C674 1.409 . S
C681 C680 1.362 . S
H682 C688 0.930 . S
H683 C691 0.930 . S
H684 C692 0.930 . S
H685 C693 0.930 . S
H686 C696 0.930 . S
H687 C697 0.930 . S
C688 H682 0.930 . S
C688 C689 1.355 . S
C688 C690 1.415 . S
C689 C688 1.355 . S
C689 C691 1.419 . S
C690 C688 1.415 . S
C690 C695 1.425 . S
C690 C697 1.409 . S
C691 H683 0.930 . S
C691 C689 1.419 . S
C691 C692 1.362 . S
C692 H684 0.930 . S
C692 C691 1.362 . S
C692 C695 1.409 . S
C693 H685 0.930 . S
C693 C694 1.355 . S
C693 C695 1.415 . S
C694 C693 1.355 . S
C694 C696 1.419 . S
C695 C690 1.425 . S
C695 C692 1.409 . S
C695 C693 1.415 . S
C696 H686 0.930 . S
C696 C694 1.419 . S
C696 C697 1.362 . S
C697 H687 0.930 . S
C697 C690 1.409 . S
C697 C696 1.362 . S
H698 C704 0.930 . S
H699 C707 0.930 . S
H700 C708 0.930 . S
H701 C709 0.930 . S
H702 C712 0.930 . S
H703 C713 0.930 . S
C704 H698 0.930 . S
C704 C705 1.355 . S
C704 C706 1.415 . S
C705 C704 1.355 . S
C705 C707 1.419 . S
C706 C704 1.415 . S
C706 C711 1.425 . S
C706 C713 1.409 . S
C707 H699 0.930 . S
C707 C705 1.419 . S
C707 C708 1.362 . S
C708 H700 0.930 . S
C708 C707 1.362 . S
C708 C711 1.409 . S
C709 H701 0.930 . S
C709 C710 1.355 . S
C709 C711 1.415 . S
C710 C709 1.355 . S
C710 C712 1.419 . S
C711 C706 1.425 . S
C711 C708 1.409 . S
C711 C709 1.415 . S
C712 H702 0.930 . S
C712 C710 1.419 . S
C712 C713 1.362 . S
C713 H703 0.930 . S
C713 C706 1.409 . S
C713 C712 1.362 . S
H714 C720 0.930 . S
H715 C723 0.930 . S
H716 C724 0.930 . S
H717 C725 0.930 . S
H718 C728 0.930 . S
H719 C729 0.930 . S
C720 H714 0.930 . S
C720 C721 1.355 . S
C720 C722 1.415 . S
C721 C720 1.355 . S
C721 C723 1.419 . S
C722 C720 1.415 . S
C722 C727 1.425 . S
C722 C729 1.409 . S
C723 H715 0.930 . S
C723 C721 1.419 . S
C723 C724 1.362 . S
C724 H716 0.930 . S
C724 C723 1.362 . S
C724 C727 1.409 . S
C725 H717 0.930 . S
C725 C726 1.355 . S
C725 C727 1.415 . S
C726 C725 1.355 . S
C726 C728 1.419 . S
C727 C722 1.425 . S
C727 C724 1.409 . S
C727 C725 1.415 . S
C728 H718 0.930 . S
C728 C726 1.419 . S
C728 C729 1.362 . S
C729 H719 0.930 . S
C729 C722 1.409 . S
C729 C728 1.362 . S
H730 C736 0.930 . S
H731 C739 0.930 . S
H732 C740 0.930 . S
H733 C741 0.930 . S
H734 C744 0.930 . S
H735 C745 0.930 . S
C736 H730 0.930 . S
C736 C737 1.355 . S
C736 C738 1.415 . S
C737 C736 1.355 . S
C737 C739 1.419 . S
C738 C736 1.415 . S
C738 C743 1.425 . S
C738 C745 1.409 . S
C739 H731 0.930 . S
C739 C737 1.419 . S
C739 C740 1.362 . S
C740 H732 0.930 . S
C740 C739 1.362 . S
C740 C743 1.409 . S
C741 H733 0.930 . S
C741 C742 1.355 . S
C741 C743 1.415 . S
C742 C741 1.355 . S
C742 C744 1.419 . S
C743 C738 1.425 . S
C743 C740 1.409 . S
C743 C741 1.415 . S
C744 H734 0.930 . S
C744 C742 1.419 . S
C744 C745 1.362 . S
C745 H735 0.930 . S
C745 C738 1.409 . S
C745 C744 1.362 . S
H746 C752 0.930 . S
H747 C755 0.930 . S
H748 C756 0.930 . S
H749 C757 0.930 . S
H750 C760 0.930 . S
H751 C761 0.930 . S
C752 H746 0.930 . S
C752 C753 1.355 . S
C752 C754 1.415 . S
C753 C752 1.355 . S
C753 C755 1.419 . S
C754 C752 1.415 . S
C754 C759 1.425 . S
C754 C761 1.409 . S
C755 H747 0.930 . S
C755 C753 1.419 . S
C755 C756 1.362 . S
C756 H748 0.930 . S
C756 C755 1.362 . S
C756 C759 1.409 . S
C757 H749 0.930 . S
C757 C758 1.355 . S
C757 C759 1.415 . S
C758 C757 1.355 . S
C758 C760 1.419 . S
C759 C754 1.425 . S
C759 C756 1.409 . S
C759 C757 1.415 . S
C760 H750 0.930 . S
C760 C758 1.419 . S
C760 C761 1.362 . S
C761 H751 0.930 . S
C761 C754 1.409 . S
C761 C760 1.362 . S
H762 C768 0.930 . S
H763 C771 0.930 . S
H764 C772 0.930 . S
H765 C773 0.930 . S
H766 C776 0.930 . S
H767 C777 0.930 . S
C768 H762 0.930 . S
C768 C769 1.355 . S
C768 C770 1.415 . S
C769 C768 1.355 . S
C769 C771 1.419 . S
C770 C768 1.415 . S
C770 C775 1.425 . S
C770 C777 1.409 . S
C771 H763 0.930 . S
C771 C769 1.419 . S
C771 C772 1.362 . S
C772 H764 0.930 . S
C772 C771 1.362 . S
C772 C775 1.409 . S
C773 H765 0.930 . S
C773 C774 1.355 . S
C773 C775 1.415 . S
C774 C773 1.355 . S
C774 C776 1.419 . S
C775 C770 1.425 . S
C775 C772 1.409 . S
C775 C773 1.415 . S
C776 H766 0.930 . S
C776 C774 1.419 . S
C776 C777 1.362 . S
C777 H767 0.930 . S
C777 C770 1.409 . S
C777 C776 1.362 . S
H778 C784 0.930 . S
H779 C787 0.930 . S
H780 C788 0.930 . S
H781 C789 0.930 . S
H782 C792 0.930 . S
H783 C793 0.930 . S
C784 H778 0.930 . S
C784 C785 1.355 . S
C784 C786 1.415 . S
C785 C784 1.355 . S
C785 C787 1.419 . S
C786 C784 1.415 . S
C786 C791 1.425 . S
C786 C793 1.409 . S
C787 H779 0.930 . S
C787 C785 1.419 . S
C787 C788 1.362 . S
C788 H780 0.930 . S
C788 C787 1.362 . S
C788 C791 1.409 . S
C789 H781 0.930 . S
C789 C790 1.355 . S
C789 C791 1.415 . S
C790 C789 1.355 . S
C790 C792 1.419 . S
C791 C786 1.425 . S
C791 C788 1.409 . S
C791 C789 1.415 . S
C792 H782 0.930 . S
C792 C790 1.419 . S
C792 C793 1.362 . S
C793 H783 0.930 . S
C793 C786 1.409 . S
C793 C792 1.362 . S
H794 C800 0.930 . S
H795 C803 0.930 . S
H796 C804 0.930 . S
H797 C805 0.930 . S
H798 C808 0.930 . S
H799 C809 0.930 . S
C800 H794 0.930 . S
C800 C801 1.355 . S
C800 C802 1.415 . S
C801 C800 1.355 . S
C801 C803 1.419 . S
C802 C800 1.415 . S
C802 C807 1.425 . S
C802 C809 1.409 . S
C803 H795 0.930 . S
C803 C801 1.419 . S
C803 C804 1.362 . S
C804 H796 0.930 . S
C804 C803 1.362 . S
C804 C807 1.409 . S
C805 H797 0.930 . S
C805 C806 1.355 . S
C805 C807 1.415 . S
C806 C805 1.355 . S
C806 C808 1.419 . S
C807 C802 1.425 . S
C807 C804 1.409 . S
C807 C805 1.415 . S
C808 H798 0.930 . S
C808 C806 1.419 . S
C808 C809 1.362 . S
C809 H799 0.930 . S
C809 C802 1.409 . S
C809 C808 1.362 . S
C241 C221 1.767 . S
C246 C0 1.794 . S
C257 C195 1.786 . S
C262 C13 1.775 . S
C273 C208 1.795 . S
C278 C26 1.768 . S
C289 C91 1.761 . S
C294 C39 1.801 . S
C305 C104 1.765 . S
C310 C52 1.797 . S
C321 C65 1.766 . S
C326 C78 1.795 . S
C337 C117 1.798 . S
C342 C169 1.764 . S
C353 C130 1.777 . S
C358 C182 1.787 . S
C369 C143 1.793 . S
C374 C156 1.770 . S
C385 C5 0.941 . S
C390 C226 0.908 . S
C401 C200 0.894 . S
C406 C18 0.892 . S
C417 C31 0.972 . S
C422 C213 0.948 . S
C433 C96 0.973 . S
C438 C44 0.952 . S
C449 C57 0.956 . S
C454 C109 0.923 . S
C465 C70 0.914 . S
C470 C83 0.947 . S
C481 C122 0.963 . S
C486 C174 0.975 . S
C497 C187 0.939 . S
C502 C135 0.967 . S
C513 C161 0.912 . S
C518 C148 0.945 . S
C529 C10 1.449 . S
C534 C49 1.471 . S
C545 C62 1.487 . S
C550 C23 1.467 . S
C561 C75 1.487 . S
C566 C36 1.475 . S
C577 C73 1.381 . S
C582 C21 1.390 . S
C593 C34 1.429 . S
C598 C47 1.401 . S
C609 C60 1.461 . S
C614 C8 1.437 . S
C625 C88 1.456 . S
C630 C127 1.481 . S
C641 C140 1.482 . S
C646 C101 1.457 . S
C657 C153 1.448 . S
C662 C114 1.465 . S
C673 C151 1.417 . S
C678 C99 1.446 . S
C689 C112 1.468 . S
C694 C125 1.452 . S
C705 C138 1.467 . S
C710 C86 1.449 . S
C721 C205 1.480 . S
C726 C166 1.485 . S
C737 C218 1.459 . S
C742 C179 1.450 . S
C753 C192 1.481 . S
C758 C231 1.456 . S
C769 C229 1.402 . S
C774 C177 1.431 . S
C785 C190 1.467 . S
C790 C203 1.468 . S
C801 C216 1.470 . S
C806 C164 1.463 . S
