# Generated by pormake.
# Topology fst, (5)-cn, num edge types: 1
# Building blocks:
#     Node 0, Type 0, BuildingBlock: XOMCOT_clean_sbu_1, # of connection points: 5
#     Node 1, Type 0, BuildingBlock: XOMCOT_clean_sbu_1, # of connection points: 5
#     Node 2, Type 0, BuildingBlock: XOMCOT_clean_sbu_1, # of connection points: 5
#     Node 3, Type 0, BuildingBlock: XOMCOT_clean_sbu_1, # of connection points: 5
#     Node 4, Type 0, BuildingBlock: XOMCOT_clean_sbu_1, # of connection points: 5
#     Node 5, Type 0, BuildingBlock: XOMCOT_clean_sbu_1, # of connection points: 5
#     Node 6, Type 0, BuildingBlock: XOMCOT_clean_sbu_1, # of connection points: 5
#     Node 7, Type 0, BuildingBlock: XOMCOT_clean_sbu_1, # of connection points: 5
#     Node 8, Type 0, BuildingBlock: XOMCOT_clean_sbu_1, # of connection points: 5
#     Node 9, Type 0, BuildingBlock: XOMCOT_clean_sbu_1, # of connection points: 5
#     Node 10, Type 0, BuildingBlock: XOMCOT_clean_sbu_1, # of connection points: 5
#     Node 11, Type 0, BuildingBlock: XOMCOT_clean_sbu_1, # of connection points: 5
#     Edge 12, Type (0, 0), BuildingBlock: OJICUG_clean_linker_0, # of connection points: 2
#     Edge 13, Type (0, 0), BuildingBlock: OJICUG_clean_linker_0, # of connection points: 2
#     Edge 14, Type (0, 0), BuildingBlock: OJICUG_clean_linker_0, # of connection points: 2
#     Edge 15, Type (0, 0), BuildingBlock: OJICUG_clean_linker_0, # of connection points: 2
#     Edge 16, Type (0, 0), BuildingBlock: OJICUG_clean_linker_0, # of connection points: 2
#     Edge 17, Type (0, 0), BuildingBlock: OJICUG_clean_linker_0, # of connection points: 2
#     Edge 18, Type (0, 0), BuildingBlock: OJICUG_clean_linker_0, # of connection points: 2
#     Edge 19, Type (0, 0), BuildingBlock: OJICUG_clean_linker_0, # of connection points: 2
#     Edge 20, Type (0, 0), BuildingBlock: OJICUG_clean_linker_0, # of connection points: 2
#     Edge 21, Type (0, 0), BuildingBlock: OJICUG_clean_linker_0, # of connection points: 2
#     Edge 22, Type (0, 0), BuildingBlock: OJICUG_clean_linker_0, # of connection points: 2
#     Edge 23, Type (0, 0), BuildingBlock: OJICUG_clean_linker_0, # of connection points: 2
#     Edge 24, Type (0, 0), BuildingBlock: OJICUG_clean_linker_0, # of connection points: 2
#     Edge 25, Type (0, 0), BuildingBlock: OJICUG_clean_linker_0, # of connection points: 2
#     Edge 26, Type (0, 0), BuildingBlock: OJICUG_clean_linker_0, # of connection points: 2
#     Edge 27, Type (0, 0), BuildingBlock: OJICUG_clean_linker_0, # of connection points: 2
#     Edge 28, Type (0, 0), BuildingBlock: OJICUG_clean_linker_0, # of connection points: 2
#     Edge 29, Type (0, 0), BuildingBlock: OJICUG_clean_linker_0, # of connection points: 2
#     Edge 30, Type (0, 0), BuildingBlock: OJICUG_clean_linker_0, # of connection points: 2
#     Edge 31, Type (0, 0), BuildingBlock: OJICUG_clean_linker_0, # of connection points: 2
#     Edge 32, Type (0, 0), BuildingBlock: OJICUG_clean_linker_0, # of connection points: 2
#     Edge 33, Type (0, 0), BuildingBlock: OJICUG_clean_linker_0, # of connection points: 2
#     Edge 34, Type (0, 0), BuildingBlock: OJICUG_clean_linker_0, # of connection points: 2
#     Edge 35, Type (0, 0), BuildingBlock: OJICUG_clean_linker_0, # of connection points: 2
#     Edge 36, Type (0, 0), BuildingBlock: OJICUG_clean_linker_0, # of connection points: 2
#     Edge 37, Type (0, 0), BuildingBlock: OJICUG_clean_linker_0, # of connection points: 2
#     Edge 38, Type (0, 0), BuildingBlock: OJICUG_clean_linker_0, # of connection points: 2
#     Edge 39, Type (0, 0), BuildingBlock: OJICUG_clean_linker_0, # of connection points: 2
#     Edge 40, Type (0, 0), BuildingBlock: OJICUG_clean_linker_0, # of connection points: 2
#     Edge 41, Type (0, 0), BuildingBlock: OJICUG_clean_linker_0, # of connection points: 2
# Relax obj value: 0.134
# Max RMSD: 0.119
# Mean RMSD: 0.119
data_MOF--net-fst--node1-XOMCOT_clean_sbu_1--edge1-OJICUG_clean_linker_0
_symmetry_space_group_name_H-M    P1
_symmetry_Int_Tables_number       1
_symmetry_cell_setting            triclinic
loop_
_symmetry_equiv_pos_as_xyz
'x, y, z'
_cell_length_a     54.674922
_cell_length_b     54.595791
_cell_length_c     13.526568
_cell_angle_alpha  90.29433
_cell_angle_beta   89.788218
_cell_angle_gamma 120.09998
loop_
_atom_site_label
_atom_site_type_symbol
_atom_site_fract_x
_atom_site_fract_y
_atom_site_fract_z
_atom_type_partial_charge
C0 C 0.16177 0.47239 0.90219 0.0
C1 C 0.16639 0.47244 0.80234 0.0
N2 N 0.15349 0.44542 0.77036 0.0
N3 N 0.14548 0.44551 0.93356 0.0
C4 C 0.14171 0.42951 0.85205 0.0
H5 H 0.16928 0.49093 0.9488 0.0
Co6 Co 0.13436 0.43654 0.06608 0.0
C7 C 0.07728 0.39104 0.96823 0.0
O8 O 0.08248 0.39819 0.87482 0.0
N9 N 0.12418 0.42841 0.20021 0.0
C10 C 0.09871 0.41898 0.33802 0.0
C11 C 0.09879 0.42222 0.23755 0.0
C12 C 0.13952 0.42961 0.28052 0.0
N13 N 0.12435 0.42368 0.36522 0.0
O14 O 0.14929 0.41133 0.06361 0.0
H15 H 0.08176 0.42152 0.19494 0.0
H16 H 0.16152 0.43539 0.27783 0.0
O17 O 0.09606 0.4051 0.0338 0.0
C18 C 0.17554 0.42424 0.08465 0.0
O19 O 0.18771 0.45094 0.11168 0.0
N20 N 0.12182 0.46302 0.06746 0.0
C21 C 0.11355 0.50946 0.05617 0.0
C22 C 0.09814 0.48563 0.99561 0.0
C23 C 0.10264 0.46264 1.0022 0.0
C24 C 0.13649 0.48568 0.12865 0.0
C25 C 0.13251 0.50902 0.12485 0.0
H26 H 0.09189 0.44542 0.95071 0.0
H27 H 0.15232 0.4862 0.17769 0.0
H28 H 0.13057 0.40662 0.85231 0.0
H29 H 0.17717 0.491 0.75603 0.0
H30 H 0.08163 0.41513 0.38798 0.0
H31 H 0.08328 0.48505 0.94161 0.0
H32 H 0.14525 0.52714 0.17182 0.0
C33 C 0.71954 0.16648 0.94792 0.0
C34 C 0.71825 0.16784 0.84683 0.0
N35 N 0.70898 0.1417 0.80929 0.0
N36 N 0.71122 0.1397 0.97433 0.0
C37 C 0.70466 0.125 0.88862 0.0
H38 H 0.72709 0.18409 0.99906 0.0
Co39 Co 0.71304 0.13005 0.10357 0.0
C40 C 0.70943 0.07509 0.02804 0.0
O41 O 0.73322 0.08536 0.97824 0.0
N42 N 0.71531 0.12069 0.23469 0.0
C43 C 0.72641 0.10374 0.36526 0.0
C44 C 0.72737 0.10561 0.26412 0.0
C45 C 0.70739 0.12798 0.31952 0.0
N46 N 0.71381 0.11781 0.40038 0.0
O47 O 0.75267 0.1432 0.0831 0.0
H48 H 0.73704 0.09716 0.21527 0.0
H49 H 0.69746 0.14079 0.32206 0.0
O50 O 0.70249 0.09166 0.06987 0.0
C51 C 0.7708 0.16533 0.12931 0.0
O52 O 0.7622 0.17488 0.20307 0.0
N53 N 0.67487 0.11964 0.11977 0.0
C54 C 0.62164 0.1151 0.10731 0.0
C55 C 0.6254 0.09233 0.08032 0.0
C56 C 0.65216 0.09501 0.08679 0.0
C57 C 0.67143 0.14157 0.14979 0.0
C58 C 0.645 0.13963 0.1456 0.0
H59 H 0.65454 0.07778 0.05913 0.0
H60 H 0.68969 0.16127 0.1726 0.0
H61 H 0.69726 0.10261 0.88423 0.0
H62 H 0.72497 0.18691 0.80435 0.0
H63 H 0.73534 0.09369 0.4094 0.0
H64 H 0.60826 0.07315 0.04872 0.0
H65 H 0.64319 0.15764 0.16904 0.0
C66 C 0.56257 0.69943 0.92355 0.0
C67 C 0.56249 0.70399 0.82386 0.0
N68 N 0.58946 0.71829 0.79217 0.0
N69 N 0.58942 0.71021 0.95511 0.0
C70 C 0.60537 0.72257 0.87391 0.0
H71 H 0.54405 0.68825 0.96987 0.0
Co72 Co 0.59838 0.70796 0.08745 0.0
C73 C 0.64376 0.69642 0.98822 0.0
O74 O 0.63698 0.69519 0.89471 0.0
N75 N 0.60645 0.70581 0.22145 0.0
C76 C 0.6157 0.68959 0.35858 0.0
C77 C 0.61249 0.68648 0.25799 0.0
C78 C 0.60531 0.71996 0.30238 0.0
N79 N 0.61112 0.71061 0.38666 0.0
O80 O 0.62375 0.74819 0.08615 0.0
H81 H 0.61307 0.67008 0.21473 0.0
H82 H 0.59963 0.73626 0.3005 0.0
O83 O 0.62965 0.70091 0.05447 0.0
C84 C 0.61173 0.76233 0.10867 0.0
O85 O 0.5853 0.74856 0.13857 0.0
N86 N 0.57187 0.66882 0.08731 0.0
C87 C 0.52573 0.61385 0.07264 0.0
C88 C 0.54967 0.62261 1.01268 0.0
C89 C 0.57246 0.6502 1.02087 0.0
C90 C 0.54914 0.66048 0.1482 0.0
C91 C 0.52593 0.63302 0.14266 0.0
H92 H 0.5897 0.65692 0.96954 0.0
H93 H 0.54846 0.67563 0.19833 0.0
H94 H 0.62822 0.7345 0.87437 0.0
H95 H 0.54395 0.69602 0.77739 0.0
H96 H 0.61943 0.67626 0.408 0.0
H97 H 0.55046 0.60852 0.95777 0.0
H98 H 0.50773 0.62737 0.18933 0.0
C99 C 0.87846 0.5564 0.90535 0.0
C100 C 0.87385 0.55634 0.80562 0.0
N101 N 0.88668 0.58335 0.77439 0.0
N102 N 0.89466 0.5833 0.93738 0.0
C103 C 0.8984 0.59928 0.85641 0.0
H104 H 0.87099 0.53787 0.95141 0.0
Co105 Co 0.90576 0.59233 0.06992 0.0
C106 C 0.96279 0.63785 0.97206 0.0
O107 O 0.95762 0.6306 0.87858 0.0
N108 N 0.91595 0.60055 0.20407 0.0
C109 C 0.94147 0.61014 0.34145 0.0
C110 C 0.94139 0.60689 0.24086 0.0
C111 C 0.90059 0.59927 0.28482 0.0
N112 N 0.91578 0.60528 0.36928 0.0
O113 O 0.89069 0.61742 0.06876 0.0
H114 H 0.95846 0.60769 0.19774 0.0
H115 H 0.87855 0.59335 0.2826 0.0
O116 O 0.94401 0.62383 0.03767 0.0
C117 C 0.86445 0.60437 0.09019 0.0
O118 O 0.85245 0.57769 0.11666 0.0
N119 N 0.9184 0.56594 0.07007 0.0
C120 C 0.9267 0.51951 0.05716 0.0
C121 C 0.94209 0.5433 0.99691 0.0
C122 C 0.93759 0.56629 1.00433 0.0
C123 C 0.90375 0.54332 0.13093 0.0
C124 C 0.90774 0.51999 0.12633 0.0
H125 H 0.94833 0.58348 0.95312 0.0
H126 H 0.8879 0.54282 0.18033 0.0
H127 H 0.90948 0.62217 0.85729 0.0
H128 H 0.86314 0.53777 0.75885 0.0
H129 H 0.95858 0.61409 0.39103 0.0
H130 H 0.95695 0.54384 0.94255 0.0
H131 H 0.89501 0.50191 0.17308 0.0
C132 C 0.32484 0.86561 0.90608 0.0
C133 C 0.32257 0.86319 0.80481 0.0
N134 N 0.32117 0.88549 0.76914 0.0
N135 N 0.32497 0.88934 0.93437 0.0
C136 C 0.32241 0.90087 0.84973 0.0
H137 H 0.32705 0.85143 0.95598 0.0
Co138 Co 0.32939 0.90209 0.06403 0.0
C139 C 0.32439 0.95317 0.03983 0.0
O140 O 0.29982 0.94064 0.0851 0.0
N141 N 0.33397 0.9148 0.19578 0.0
C142 C 0.35267 0.94219 0.32818 0.0
C143 C 0.35346 0.94094 0.22706 0.0
C144 C 0.32178 0.90044 0.27984 0.0
N145 N 0.33276 0.91666 0.36173 0.0
O146 O 0.28928 0.88751 0.06906 0.0
H147 H 0.36831 0.95776 0.17969 0.0
H148 H 0.3057 0.87835 0.28139 0.0
O149 O 0.33723 0.93947 1.02218 0.0
C150 C 0.27549 0.8616 0.09497 0.0
O151 O 0.28965 0.84941 0.12453 0.0
N152 N 0.36798 0.91369 0.05664 0.0
C153 C 0.42111 0.91886 0.02847 0.0
C154 C 0.41201 0.93367 0.96823 0.0
C155 C 0.3854 0.93089 0.98378 0.0
C156 C 0.37678 0.90003 0.11826 0.0
C157 C 0.40341 0.90274 0.10673 0.0
H158 H 0.37813 0.94111 0.93311 0.0
H159 H 0.36259 0.88597 0.17429 0.0
H160 H 0.32189 0.92038 0.84727 0.0
H161 H 0.32313 0.84686 0.76092 0.0
H162 H 0.36678 0.96014 0.37352 0.0
H163 H 0.42456 0.94608 0.9061 0.0
H164 H 0.40958 0.89147 0.15714 0.0
C165 C 0.47605 0.32731 0.89573 0.0
C166 C 0.4761 0.32275 0.79581 0.0
N167 N 0.44913 0.30855 0.76432 0.0
N168 N 0.4492 0.3166 0.9276 0.0
C169 C 0.43324 0.30436 0.84631 0.0
H170 H 0.49456 0.33835 0.94207 0.0
Co171 Co 0.44004 0.31841 0.06027 0.0
C172 C 0.39505 0.3306 0.96345 0.0
O173 O 0.40203 0.33235 0.8698 0.0
N174 N 0.43169 0.32014 0.19459 0.0
C175 C 0.42222 0.3361 0.3328 0.0
C176 C 0.42548 0.33933 0.23234 0.0
C177 C 0.43289 0.30596 0.27471 0.0
N178 N 0.42694 0.31515 0.35965 0.0
O179 O 0.41454 0.27823 0.05622 0.0
H180 H 0.42488 0.35576 0.19006 0.0
H181 H 0.43877 0.2898 0.27173 0.0
O182 O 0.40899 0.32572 0.02857 0.0
C183 C 0.42684 0.26431 0.07675 0.0
O184 O 0.45333 0.27828 0.10567 0.0
N185 N 0.46669 0.35747 0.06296 0.0
C186 C 0.51293 0.41249 0.05459 0.0
C187 C 0.48937 0.40418 0.99343 0.0
C188 C 0.46649 0.37654 0.99852 0.0
C189 C 0.48913 0.36532 0.12453 0.0
C190 C 0.51236 0.39279 0.12221 0.0
H191 H 0.44947 0.3702 0.94667 0.0
H192 H 0.48951 0.34981 0.17294 0.0
H193 H 0.41038 0.29251 0.847 0.0
H194 H 0.49465 0.33059 0.74919 0.0
H195 H 0.4184 0.34934 0.38301 0.0
H196 H 0.48891 0.41869 0.94018 0.0
H197 H 0.53028 0.39808 0.16957 0.0
C198 C 0.5584 0.87251 0.13713 0.0
C199 C 0.55769 0.87023 0.23833 0.0
N200 N 0.58436 0.88485 0.27247 0.0
N201 N 0.58539 0.88907 0.1066 0.0
C202 C 0.60073 0.89538 0.19095 0.0
H203 H 0.54013 0.8622 0.08988 0.0
Co204 Co 0.59911 0.89854 0.9757 0.0
C205 C 0.63033 0.95533 0.07988 0.0
O206 O 0.60928 0.94859 0.14159 0.0
N207 N 0.61288 0.90724 0.84606 0.0
C208 C 0.64212 0.92325 0.71747 0.0
C209 C 0.64023 0.92294 0.81892 0.0
C210 C 0.59857 0.89797 0.75994 0.0
N211 N 0.61587 0.90746 0.68026 0.0
O212 O 0.62433 0.88432 1.00431 0.0
H213 H 0.65781 0.93282 0.86972 0.0
H214 H 0.57591 0.88426 0.75584 0.0
O215 O 0.62829 0.93733 1.01468 0.0
C216 C 0.62051 0.86214 0.95868 0.0
O217 O 0.60305 0.85277 0.88331 0.0
N218 N 0.57217 0.90973 0.94674 0.0
C219 C 0.52387 0.915 0.94209 0.0
C220 C 0.55089 0.93899 0.95306 0.0
C221 C 0.57489 0.93599 0.95222 0.0
C222 C 0.54672 0.88702 0.92209 0.0
C223 C 0.52233 0.88911 0.91951 0.0
H224 H 0.59526 0.95478 0.95878 0.0
H225 H 0.54502 0.86657 0.91127 0.0
H226 H 0.62358 0.90769 0.19239 0.0
H227 H 0.53885 0.85904 0.28322 0.0
H228 H 0.66146 0.93355 0.67473 0.0
H229 H 0.55358 0.95974 0.96686 0.0
H230 H 0.50233 0.87023 0.9041 0.0
C231 C 0.70322 0.55499 0.16597 0.0
C232 C 0.70773 0.55486 0.26572 0.0
N233 N 0.72223 0.58186 0.29768 0.0
N234 N 0.71425 0.58192 0.13465 0.0
C235 C 0.72667 0.59784 0.21605 0.0
H236 H 0.69194 0.53648 0.11943 0.0
Co237 Co 0.7124 0.59121 1.0024 0.0
C238 C 0.70061 0.63621 0.10317 0.0
O239 O 0.69841 0.62852 0.19598 0.0
N240 N 0.71067 0.59967 0.86854 0.0
C241 C 0.69501 0.60952 0.73132 0.0
C242 C 0.69182 0.60634 0.83185 0.0
C243 C 0.7246 0.59813 0.78776 0.0
N244 N 0.71559 0.6043 0.70339 0.0
O245 O 0.75257 0.61642 1.00521 0.0
H246 H 0.67562 0.60729 0.87488 0.0
H247 H 0.74046 0.59186 0.78986 0.0
O248 O 0.70551 0.62256 0.03619 0.0
C249 C 0.76598 0.60363 0.9832 0.0
O250 O 0.75151 0.57698 0.95547 0.0
N251 N 0.67334 0.56473 1.00036 0.0
C252 C 0.61843 0.51838 1.00908 0.0
C253 C 0.62671 0.54199 0.07077 0.0
C254 C 0.65429 0.56493 0.06545 0.0
C255 C 0.6655 0.54227 0.93821 0.0
C256 C 0.63809 0.51899 0.94071 0.0
H257 H 0.6606 0.58196 0.11766 0.0
H258 H 0.68099 0.54188 0.88928 0.0
H259 H 0.73869 0.62072 0.21579 0.0
H260 H 0.69963 0.53627 0.31199 0.0
H261 H 0.68198 0.61364 0.6818 0.0
H262 H 0.61221 0.54242 0.1246 0.0
H263 H 0.63282 0.50104 0.89291 0.0
C264 C 0.16364 0.70086 0.15944 0.0
C265 C 0.16831 0.70546 0.25923 0.0
N266 N 0.15569 0.7198 0.29123 0.0
N267 N 0.1476 0.71166 0.12814 0.0
C268 C 0.14404 0.72403 0.20962 0.0
H269 H 0.17097 0.68969 0.11282 0.0
Co270 Co 0.13659 0.70965 0.99568 0.0
C271 C 0.07952 0.69806 0.09369 0.0
O272 O 0.08487 0.69674 0.18732 0.0
N273 N 0.12652 0.70775 0.86157 0.0
C274 C 0.10109 0.69173 0.72384 0.0
C275 C 0.10112 0.6885 0.82426 0.0
C276 C 0.14191 0.72198 0.78123 0.0
N277 N 0.12676 0.71276 0.69659 0.0
O278 O 0.15166 0.74992 0.99873 0.0
H279 H 0.08407 0.67206 0.86683 0.0
H280 H 0.16393 0.73823 0.78385 0.0
O281 O 0.09826 0.70262 0.02808 0.0
C282 C 0.17793 0.76351 0.97769 0.0
O283 O 0.19016 0.74918 0.94948 0.0
N284 N 0.12384 0.67052 0.99395 0.0
C285 C 0.11467 0.61542 1.00465 0.0
C286 C 0.09955 0.62408 0.06556 0.0
C287 C 0.10451 0.65175 0.05932 0.0
C288 C 0.13823 0.66231 0.93241 0.0
C289 C 0.13381 0.63479 0.93592 0.0
H290 H 0.09398 0.65837 0.11116 0.0
H291 H 0.15416 0.67759 0.8832 0.0
H292 H 0.13318 0.73601 0.20937 0.0
H293 H 0.17892 0.69755 0.30549 0.0
H294 H 0.08403 0.67848 0.6739 0.0
H295 H 0.08456 0.60983 0.11959 0.0
H296 H 0.14632 0.62922 0.88866 0.0
C297 C 0.47086 0.16431 0.13811 0.0
C298 C 0.47094 0.16666 0.23941 0.0
N299 N 0.44792 0.14359 0.27552 0.0
N300 N 0.44798 0.13989 0.11026 0.0
C301 C 0.43426 0.12782 0.19519 0.0
H302 H 0.48685 0.17907 0.08788 0.0
Co303 Co 0.44024 0.12717 0.98065 0.0
C304 C 0.38455 0.07534 1.00229 0.0
O305 O 0.37242 0.08741 0.95523 0.0
N306 N 0.43276 0.11446 0.84894 0.0
C307 C 0.42532 0.08727 0.71671 0.0
C308 C 0.42729 0.08866 0.81778 0.0
C309 C 0.43428 0.12848 0.76486 0.0
N310 N 0.42978 0.11236 0.68308 0.0
O311 O 0.41416 0.141 0.97514 0.0
H312 H 0.42602 0.0722 0.86528 0.0
H313 H 0.43922 0.15025 0.7632 0.0
O314 O 0.41093 0.08954 1.02185 0.0
C315 C 0.426 0.1669 0.94944 0.0
O316 O 0.45237 0.17941 0.9191 0.0
N317 N 0.46771 0.11636 0.98876 0.0
C318 C 0.51598 0.11207 1.01845 0.0
C319 C 0.49145 0.09596 0.0751 0.0
C320 C 0.46751 0.09842 0.05916 0.0
C321 C 0.49087 0.13139 0.93062 0.0
C322 C 0.51507 0.12928 0.94327 0.0
H323 H 0.44951 0.08722 0.10757 0.0
H324 H 0.49097 0.14602 0.87675 0.0
H325 H 0.41484 0.10767 0.19805 0.0
H326 H 0.48737 0.18352 0.28298 0.0
H327 H 0.42229 0.06956 0.67146 0.0
H328 H 0.49117 0.08271 0.1349 0.0
H329 H 0.53319 0.14172 0.89625 0.0
C330 C 0.33496 0.47139 0.16013 0.0
C331 C 0.33036 0.47141 0.25996 0.0
N332 N 0.31632 0.44439 0.29118 0.0
N333 N 0.32446 0.44453 0.12802 0.0
C334 C 0.31225 0.4285 0.20907 0.0
H335 H 0.34596 0.48995 0.11404 0.0
Co336 Co 0.3268 0.43578 0.99523 0.0
C337 C 0.33776 0.38971 0.0905 0.0
O338 O 0.33939 0.39634 0.18452 0.0
N339 N 0.32906 0.42788 0.86081 0.0
C340 C 0.34528 0.41865 0.72281 0.0
C341 C 0.34843 0.42192 0.82336 0.0
C342 C 0.31483 0.42889 0.78052 0.0
N343 N 0.32418 0.42308 0.6957 0.0
O344 O 0.2866 0.41074 0.99599 0.0
H345 H 0.36479 0.42131 0.86605 0.0
H346 H 0.29843 0.43441 0.78333 0.0
O347 O 0.33338 0.40417 0.02609 0.0
C348 C 0.27346 0.42384 0.9754 0.0
O349 O 0.28823 0.45057 0.94957 0.0
N350 N 0.36589 0.46208 0.99579 0.0
C351 C 0.42069 0.50835 1.0114 0.0
C352 C 0.41192 0.4843 0.07044 0.0
C353 C 0.3844 0.46141 0.06171 0.0
C354 C 0.37425 0.48495 0.93592 0.0
C355 C 0.40162 0.50821 0.9419 0.0
H356 H 0.37763 0.44402 0.11221 0.0
H357 H 0.35916 0.48569 0.88634 0.0
H358 H 0.30051 0.40561 0.2082 0.0
H359 H 0.3381 0.48996 0.30678 0.0
H360 H 0.35859 0.41491 0.67279 0.0
H361 H 0.42595 0.48348 0.12496 0.0
H362 H 0.40727 0.52649 0.89601 0.0
C363 C 0.87646 0.3282 0.15775 0.0
C364 C 0.87184 0.32368 0.25755 0.0
N365 N 0.88437 0.30927 0.28863 0.0
N366 N 0.89239 0.31728 0.12556 0.0
C367 C 0.89593 0.30492 0.2065 0.0
H368 H 0.86918 0.3394 0.11176 0.0
Co369 Co 0.9034 0.3191 0.99293 0.0
C370 C 0.96048 0.33091 0.09028 0.0
O371 O 0.95507 0.33229 0.18403 0.0
N372 N 0.91348 0.32084 0.85865 0.0
C373 C 0.93896 0.33681 0.72089 0.0
C374 C 0.93892 0.34001 0.82145 0.0
C375 C 0.89808 0.3067 0.77809 0.0
N376 N 0.91325 0.3159 0.69342 0.0
O377 O 0.88848 0.27885 0.99585 0.0
H378 H 0.95598 0.35643 0.86421 0.0
H379 H 0.87601 0.29057 0.78052 0.0
O380 O 0.94176 0.32627 1.02483 0.0
C381 C 0.86225 0.26457 0.97458 0.0
O382 O 0.84954 0.27816 0.94405 0.0
N383 N 0.91608 0.35823 0.99161 0.0
C384 C 0.92538 0.4134 1.00305 0.0
C385 C 0.94047 0.40479 0.06348 0.0
C386 C 0.93545 0.37709 0.05689 0.0
C387 C 0.90171 0.36638 0.9305 0.0
C388 C 0.9062 0.39393 0.9344 0.0
H389 H 0.94596 0.37053 0.10841 0.0
H390 H 0.88576 0.35105 0.88131 0.0
H391 H 0.90675 0.2929 0.20549 0.0
H392 H 0.8613 0.33169 0.30443 0.0
H393 H 0.95605 0.35005 0.67106 0.0
H394 H 0.9555 0.41911 0.11742 0.0
H395 H 0.8937 0.39947 0.88748 0.0
C396 C 0.11165 0.57113 0.93521 0.0
C397 C 0.11209 0.58716 1.01755 0.0
H398 H 0.11171 0.53409 0.8828 0.0
C399 C 0.11154 0.57666 0.11282 0.0
H400 H 0.11187 0.57854 0.86089 0.0
C401 C 0.11133 0.55115 0.12543 0.0
C402 C 0.1115 0.53542 0.04311 0.0
H403 H 0.11219 0.58862 0.17787 0.0
H404 H 0.11133 0.54386 0.19976 0.0
C405 C 0.11126 0.54552 0.94783 0.0
C406 C 0.56823 0.08886 0.09702 0.0
C407 C 0.59432 0.11419 0.08796 0.0
H408 H 0.52324 0.06806 0.08042 0.0
C409 C 0.59424 0.13862 0.05591 0.0
H410 H 0.56736 0.06965 0.12222 0.0
C411 C 0.56894 0.13783 0.03382 0.0
C412 C 0.54287 0.1125 0.04167 0.0
H413 H 0.61381 0.15842 0.04601 0.0
H414 H 0.5699 0.1573 1.01132 0.0
C415 C 0.54284 0.08801 0.07395 0.0
C416 C 0.46499 0.55024 0.94609 0.0
C417 C 0.44872 0.53421 0.02694 0.0
H418 H 0.50194 0.58784 0.89709 0.0
C419 C 0.4587 0.54392 0.12315 0.0
H420 H 0.45799 0.54326 0.8711 0.0
C421 C 0.48396 0.56942 0.13814 0.0
C422 C 0.49994 0.58573 0.05728 0.0
H423 H 0.44652 0.53225 0.1871 0.0
H424 H 0.49087 0.5765 0.21312 0.0
C425 C 0.49033 0.57564 0.96107 0.0
C426 C 0.92866 0.45235 0.11202 0.0
C427 C 0.92802 0.4417 1.01651 0.0
H428 H 0.929 0.4853 0.19978 0.0
C429 C 0.92846 0.45764 0.93455 0.0
H430 H 0.92802 0.44046 0.17681 0.0
C431 C 0.92892 0.48331 0.9478 0.0
C432 C 0.92876 0.49354 0.04335 0.0
H433 H 0.92817 0.45013 0.86006 0.0
H434 H 0.92846 0.49467 0.88308 0.0
C435 C 0.92895 0.47791 0.12527 0.0
C436 C 0.44917 0.89381 1.02374 0.0
C437 C 0.44771 0.91841 1.00593 0.0
H438 H 0.47395 0.87375 1.02126 0.0
C439 C 0.47151 0.94193 0.96431 0.0
H440 H 0.43124 0.87493 0.05331 0.0
C441 C 0.49602 0.94084 0.94159 0.0
C442 C 0.4975 0.91627 0.96077 0.0
H443 H 0.4714 0.96136 0.94999 0.0
H444 H 0.5137 0.95926 0.90865 0.0
C445 C 0.47369 0.89288 1.00275 0.0
C446 C 0.57465 0.47714 0.9374 0.0
C447 C 0.59024 0.49246 1.02061 0.0
H448 H 0.53809 0.43999 0.88286 0.0
C449 C 0.57943 0.48198 0.11529 0.0
H450 H 0.58231 0.48473 0.8635 0.0
C451 C 0.55405 0.45638 0.12645 0.0
C452 C 0.53877 0.44076 0.04322 0.0
H453 H 0.59106 0.49309 0.18096 0.0
H454 H 0.54651 0.44867 0.20034 0.0
C455 C 0.54917 0.45164 0.94856 0.0
C456 C 0.23618 0.41101 0.10198 0.0
C457 C 0.24357 0.41258 1.00177 0.0
H458 H 0.20803 0.41344 0.2075 0.0
C459 C 0.22468 0.4116 0.92969 0.0
H460 H 0.2508 0.41255 0.15886 0.0
C461 C 0.19981 0.41127 0.95751 0.0
C462 C 0.19398 0.4128 0.05779 0.0
H463 H 0.23033 0.41353 0.85209 0.0
H464 H 0.18685 0.41301 0.90069 0.0
C465 C 0.21175 0.41156 0.12982 0.0
C466 C 0.84453 0.22752 0.10495 0.0
C467 C 0.84436 0.23485 1.00573 0.0
H468 H 0.82078 0.19924 0.22278 0.0
C469 C 0.82239 0.21576 0.94377 0.0
H470 H 0.86094 0.24209 0.15464 0.0
C471 C 0.79983 0.1908 0.98202 0.0
C472 C 0.79841 0.18507 0.0837 0.0
H473 H 0.82163 0.22116 0.8673 0.0
H474 H 0.78217 0.17761 0.93405 0.0
C475 C 0.8215 0.20303 0.14398 0.0
C476 C 0.63253 0.80041 0.98211 0.0
C477 C 0.62377 0.79226 0.08005 0.0
H478 H 0.63833 0.82952 0.86606 0.0
C479 C 0.61997 0.81075 0.14243 0.0
H480 H 0.63512 0.78631 0.9321 0.0
C481 C 0.62264 0.8359 0.10546 0.0
C482 C 0.62819 0.84242 1.00462 0.0
H483 H 0.61287 0.80472 0.21793 0.0
H484 H 0.61739 0.84859 0.15329 0.0
C485 C 0.6343 0.8251 0.94429 0.0
C486 C 0.80332 0.61686 0.1094 0.0
C487 C 0.79591 0.61513 1.00932 0.0
H488 H 0.83167 0.61486 0.21418 0.0
C489 C 0.8149 0.61628 0.93682 0.0
H490 H 0.78864 0.61521 0.16658 0.0
C491 C 0.83992 0.61693 0.96406 0.0
C492 C 0.8458 0.61556 0.06414 0.0
H493 H 0.80925 0.61425 0.85929 0.0
H494 H 0.85298 0.61532 0.90687 0.0
C495 C 0.82791 0.61663 0.13664 0.0
C496 C 0.21457 0.8128 0.93607 0.0
C497 C 0.19635 0.79334 1.00657 0.0
H498 H 0.25383 0.85113 0.91015 0.0
C499 C 0.20163 0.80018 0.10736 0.0
H500 H 0.21127 0.8076 0.85803 0.0
C501 C 0.22639 0.82463 0.13719 0.0
C502 C 0.24572 0.843 0.06666 0.0
H503 H 0.18832 0.78515 0.16304 0.0
H504 H 0.23158 0.82794 0.21516 0.0
C505 C 0.23887 0.83771 0.96592 0.0
C506 C 0.41322 0.18998 0.0818 0.0
C507 C 0.41473 0.18523 0.98041 0.0
H508 H 0.41593 0.21954 0.19264 0.0
C509 C 0.41378 0.20398 0.91192 0.0
H510 H 0.41473 0.17625 0.136 0.0
C511 C 0.41358 0.2283 0.94437 0.0
C512 C 0.41527 0.23462 0.04571 0.0
H513 H 0.41564 0.20109 0.83349 0.0
H514 H 0.41532 0.24362 0.89013 0.0
C515 C 0.41396 0.21476 0.11423 0.0
C516 C 0.11513 0.40827 0.53914 0.0
C517 C 0.13392 0.42587 0.46576 0.0
H518 H 0.10682 0.40034 0.69374 0.0
C519 C 0.1609 0.44756 0.49412 0.0
H520 H 0.09432 0.39121 0.51914 0.0
C521 C 0.16804 0.45291 0.59441 0.0
C522 C 0.14849 0.43647 0.66819 0.0
H523 H 0.17577 0.46149 0.43925 0.0
H524 H 0.18844 0.47066 0.61445 0.0
C525 C 0.12239 0.41337 0.63917 0.0
C526 C 0.71024 0.1045 0.57664 0.0
C527 C 0.71006 0.12253 0.5031 0.0
H528 H 0.71038 0.09645 0.73062 0.0
C529 C 0.70741 0.14585 0.53222 0.0
H530 H 0.71166 0.08601 0.55723 0.0
C531 C 0.70607 0.15156 0.63236 0.0
C532 C 0.70751 0.13421 0.706 0.0
H533 H 0.70724 0.16027 0.47809 0.0
H534 H 0.70433 0.16986 0.65187 0.0
C535 C 0.70909 0.1103 0.67665 0.0
C536 C 0.62647 0.71684 0.56073 0.0
C537 C 0.60892 0.718 0.48747 0.0
H538 H 0.63443 0.71662 0.71528 0.0
C539 C 0.5873 0.72334 0.51608 0.0
H540 H 0.64347 0.71305 0.54053 0.0
C541 C 0.58198 0.72522 0.61644 0.0
C542 C 0.5984 0.72217 0.69006 0.0
H543 H 0.5734 0.72426 0.46131 0.0
H544 H 0.56428 0.72789 0.63665 0.0
C545 C 0.62142 0.71911 0.66083 0.0
C546 C 0.87927 0.58123 0.49827 0.0
C547 C 0.9062 0.60302 0.47004 0.0
H548 H 0.85178 0.55802 0.61843 0.0
C549 C 0.92494 0.62066 0.54362 0.0
H550 H 0.86443 0.56727 0.44324 0.0
C551 C 0.91769 0.61551 0.64365 0.0
C552 C 0.89165 0.59232 0.67245 0.0
H553 H 0.94571 0.6378 0.52373 0.0
H554 H 0.93323 0.62858 0.69832 0.0
C555 C 0.87214 0.57584 0.59854 0.0
C556 C 0.3312 0.92103 0.63859 0.0
C557 C 0.32147 0.89283 0.66637 0.0
H558 H 0.34172 0.95054 0.52074 0.0
C559 C 0.31344 0.8722 0.59148 0.0
H560 H 0.33772 0.93762 0.69344 0.0
C561 C 0.31625 0.87977 0.49164 0.0
C562 C 0.32707 0.90817 0.46411 0.0
H563 H 0.30538 0.85019 0.60974 0.0
H564 H 0.31084 0.86347 0.43636 0.0
C565 C 0.33386 0.92856 0.53897 0.0
C566 C 0.41162 0.30891 0.53388 0.0
C567 C 0.42925 0.30786 0.46011 0.0
H568 H 0.40379 0.30944 0.68863 0.0
C569 C 0.45113 0.30294 0.48802 0.0
H570 H 0.39442 0.3124 0.51421 0.0
C571 C 0.45662 0.30139 0.58822 0.0
C572 C 0.44014 0.3044 0.66234 0.0
H573 H 0.46509 0.30212 0.43283 0.0
H574 H 0.47449 0.29902 0.60788 0.0
C575 C 0.41687 0.30701 0.63381 0.0
C576 C 0.61804 0.91447 0.40324 0.0
C577 C 0.59305 0.88986 0.37487 0.0
H578 H 0.64458 0.93962 0.52218 0.0
C579 C 0.57596 0.87091 0.4489 0.0
H580 H 0.63147 0.92979 0.34864 0.0
C581 C 0.58342 0.8766 0.54869 0.0
C582 C 0.60822 0.90139 0.57717 0.0
H583 H 0.55679 0.85154 0.42983 0.0
H584 H 0.56986 0.8614 0.60336 0.0
C585 C 0.62552 0.92016 0.50305 0.0
C586 C 0.72739 0.5797 0.57386 0.0
C587 C 0.72275 0.6018 0.60256 0.0
H588 H 0.73114 0.55615 0.45323 0.0
C589 C 0.72199 0.61958 0.52933 0.0
H590 H 0.72799 0.56562 0.62861 0.0
C591 C 0.72395 0.61431 0.42919 0.0
C592 C 0.72631 0.59085 0.39988 0.0
H593 H 0.71874 0.63696 0.54957 0.0
H594 H 0.72178 0.62754 0.3748 0.0
C595 C 0.72898 0.57418 0.47347 0.0
C596 C 0.17032 0.72693 0.46697 0.0
C597 C 0.15083 0.72391 0.39341 0.0
H598 H 0.17804 0.72609 0.62207 0.0
C599 C 0.12488 0.72113 0.4227 0.0
H600 H 0.19061 0.72941 0.4467 0.0
C601 C 0.11767 0.71908 0.52281 0.0
C602 C 0.13638 0.72015 0.59599 0.0
H603 H 0.10935 0.71867 0.36829 0.0
H604 H 0.09694 0.71547 0.54306 0.0
C605 C 0.16324 0.72525 0.56734 0.0
C606 C 0.4529 0.15684 0.45309 0.0
C607 C 0.4412 0.13607 0.37838 0.0
H608 H 0.45871 0.16574 0.60807 0.0
C609 C 0.42395 0.10763 0.40635 0.0
H610 H 0.46586 0.179 0.43466 0.0
C611 C 0.41943 0.10008 0.50602 0.0
C612 C 0.43216 0.12069 0.58069 0.0
H613 H 0.41462 0.09094 0.3516 0.0
H614 H 0.40627 0.07794 0.52439 0.0
C615 C 0.44849 0.14925 0.55296 0.0
C616 C 0.31804 0.4076 0.52147 0.0
C617 C 0.31667 0.4251 0.59523 0.0
H618 H 0.31845 0.39965 0.36667 0.0
C619 C 0.31106 0.44654 0.56739 0.0
H620 H 0.32204 0.39071 0.54107 0.0
C621 C 0.30913 0.45177 0.46724 0.0
C622 C 0.31244 0.43546 0.3931 0.0
H623 H 0.30997 0.46039 0.62257 0.0
H624 H 0.30625 0.46936 0.44759 0.0
C625 C 0.31575 0.41258 0.42157 0.0
C626 C 0.92226 0.3096 0.51901 0.0
C627 C 0.90362 0.30864 0.59277 0.0
H628 H 0.93055 0.31001 0.36424 0.0
C629 C 0.87685 0.30381 0.56479 0.0
H630 H 0.94292 0.31303 0.53873 0.0
C631 C 0.86978 0.30224 0.46458 0.0
C632 C 0.88921 0.30513 0.39049 0.0
H633 H 0.86211 0.30307 0.61999 0.0
H634 H 0.84956 0.29995 0.44489 0.0
C635 C 0.91507 0.30766 0.41904 0.0
C636 C 0.04043 0.36549 0.09995 0.0
C637 C 0.04772 0.37071 0.99935 0.0
H638 H 1.00731 0.34924 0.20795 0.0
C639 C 0.02594 0.35819 0.92888 0.0
H640 H 0.05655 0.37328 0.15628 0.0
C641 C 0.99758 0.34315 0.95854 0.0
C642 C 0.99022 0.34105 0.05914 0.0
H643 H 0.03068 0.36086 0.85053 0.0
H644 H 0.98147 0.33408 0.90223 0.0
C645 C 1.01205 0.35125 0.1296 0.0
C646 C 0.65275 1.00571 0.13599 0.0
C647 C 0.6529 0.98553 0.07156 0.0
H648 H 0.67026 0.04937 0.17273 0.0
C649 C 0.67316 0.99499 0.99506 0.0
H650 H 0.63765 0.99935 0.19609 0.0
C651 C 0.69213 0.02404 0.98151 0.0
C652 C 0.69098 0.04416 0.04363 0.0
H653 H 0.67391 0.98005 0.94403 0.0
H654 H 0.70707 0.03076 0.92085 0.0
C655 C 0.67141 0.03455 0.12206 0.0
C656 C 0.68959 0.66245 0.97417 0.0
C657 C 0.69135 0.65661 0.0742 0.0
H658 H 0.67293 0.67922 0.86818 0.0
C659 C 0.68171 0.66852 0.14606 0.0
H660 H 0.6982 0.65512 0.91691 0.0
C661 C 0.66832 0.68357 0.11818 0.0
C662 C 0.6634 0.68629 1.01795 0.0
H663 H 0.68352 0.66535 0.22407 0.0
H664 H 0.66093 0.6921 0.1755 0.0
C665 C 0.6754 0.67671 0.94625 0.0
C666 C 0.0425 0.68568 0.96215 0.0
C667 C 0.04981 0.68794 0.06271 0.0
H668 H 1.00945 0.66781 0.85425 0.0
C669 C 0.02795 0.67789 0.13326 0.0
H670 H 0.05863 0.69462 0.9058 0.0
C671 C 0.99959 0.66364 0.10371 0.0
C672 C 0.99233 0.65824 1.00311 0.0
H673 H 0.03266 0.68004 0.21159 0.0
H674 H 0.98343 0.65596 0.1601 0.0
C675 C 1.01415 0.67062 0.93258 0.0
C676 C 0.32471 0.99917 1.02376 0.0
C677 C 0.33954 0.98431 0.02643 0.0
H678 H 0.32729 0.03964 1.01345 0.0
C679 C 0.36925 0.99974 1.02348 0.0
H680 H 0.30182 0.9879 0.02641 0.0
C681 C 0.3838 0.02931 1.0195 0.0
C682 C 0.369 0.04419 1.01552 0.0
H683 H 0.38137 0.98901 0.0263 0.0
H684 H 0.40669 0.04047 1.01747 0.0
C685 C 0.33928 0.02879 1.01698 0.0
C686 C 0.34939 0.36482 0.95669 0.0
C687 C 0.34711 0.36958 0.05772 0.0
H688 H 0.36662 0.34921 0.84731 0.0
C689 C 0.35631 0.35685 0.12712 0.0
H690 H 0.34109 0.37276 0.90105 0.0
C691 C 0.36979 0.34206 0.09618 0.0
C692 C 0.37529 0.34046 0.99541 0.0
H693 H 0.35407 0.35916 0.20568 0.0
H694 H 0.37679 0.33283 0.15172 0.0
C695 C 0.36371 0.35085 0.92582 0.0
loop_
_geom_bond_atom_site_label_1
_geom_bond_atom_site_label_2
_geom_bond_distance
_geom_bond_site_symmetry_2
_ccdc_geom_bond_type
C0 C1 1.351 . S
C0 N3 1.368 . S
C0 H5 0.931 . S
C1 C0 1.351 . S
C1 N2 1.373 . S
C1 H29 0.930 . S
N2 C1 1.373 . S
N2 C4 1.340 . S
N3 C0 1.368 . S
N3 C4 1.321 . S
N3 Co6 2.135 1_556 S
C4 N2 1.340 . S
C4 N3 1.321 . S
C4 H28 0.930 . S
H5 C0 0.931 . S
Co6 N3 2.135 1_554 S
Co6 N9 2.121 . S
Co6 O14 2.055 . S
Co6 O17 2.039 1_554 S
Co6 N20 2.140 . S
C7 O8 1.227 . S
C7 O17 1.265 . S
O8 C7 1.227 . S
N9 Co6 2.121 . S
N9 C11 1.375 . S
N9 C12 1.313 . S
C10 C11 1.338 . S
C10 N13 1.377 . S
C10 H30 0.930 . S
C11 N9 1.375 . S
C11 C10 1.338 . S
C11 H15 0.931 . S
C12 N9 1.313 . S
C12 N13 1.344 . S
C12 H16 0.930 . S
N13 C10 1.377 . S
N13 C12 1.344 . S
O14 Co6 2.055 . S
O14 C18 1.253 . S
H15 C11 0.931 . S
H16 C12 0.930 . S
O17 Co6 2.039 1_556 S
O17 C7 1.265 . S
C18 O14 1.253 . S
C18 O19 1.227 . S
O19 C18 1.227 . S
N20 Co6 2.140 . S
N20 C23 1.346 1_554 S
N20 C24 1.345 . S
C21 C22 1.387 1_554 S
C21 C25 1.391 . S
C22 C21 1.387 1_556 S
C22 C23 1.369 . S
C22 H31 0.929 . S
C23 N20 1.346 1_556 S
C23 C22 1.369 . S
C23 H26 0.928 . S
C24 N20 1.345 . S
C24 C25 1.371 . S
C24 H27 0.931 . S
C25 C21 1.391 . S
C25 C24 1.371 . S
C25 H32 0.930 . S
H26 C23 0.928 . S
H27 C24 0.931 . S
H28 C4 0.930 . S
H29 C1 0.930 . S
H30 C10 0.930 . S
H31 C22 0.929 . S
H32 C25 0.930 . S
C33 C34 1.351 . S
C33 N36 1.368 . S
C33 H38 0.931 . S
C34 C33 1.351 . S
C34 N35 1.373 . S
C34 H62 0.930 . S
N35 C34 1.373 . S
N35 C37 1.340 . S
N36 C33 1.368 . S
N36 C37 1.321 . S
N36 Co39 2.135 1_556 S
C37 N35 1.340 . S
C37 N36 1.321 . S
C37 H61 0.930 . S
H38 C33 0.931 . S
Co39 N36 2.135 1_554 S
Co39 N42 2.121 . S
Co39 O47 2.055 . S
Co39 O50 2.039 1_554 S
Co39 N53 2.140 . S
C40 O41 1.227 . S
C40 O50 1.265 . S
O41 C40 1.227 . S
N42 Co39 2.121 . S
N42 C44 1.375 . S
N42 C45 1.313 . S
C43 C44 1.338 . S
C43 N46 1.377 . S
C43 H63 0.930 . S
C44 N42 1.375 . S
C44 C43 1.338 . S
C44 H48 0.931 . S
C45 N42 1.313 . S
C45 N46 1.344 . S
C45 H49 0.930 . S
N46 C43 1.377 . S
N46 C45 1.344 . S
O47 Co39 2.055 . S
O47 C51 1.253 . S
H48 C44 0.931 . S
H49 C45 0.930 . S
O50 Co39 2.039 1_556 S
O50 C40 1.265 . S
C51 O47 1.253 . S
C51 O52 1.227 . S
O52 C51 1.227 . S
N53 Co39 2.140 . S
N53 C56 1.346 1_554 S
N53 C57 1.345 . S
C54 C55 1.387 1_554 S
C54 C58 1.391 . S
C55 C54 1.387 1_556 S
C55 C56 1.369 . S
C55 H64 0.929 . S
C56 N53 1.346 1_556 S
C56 C55 1.369 . S
C56 H59 0.928 . S
C57 N53 1.345 . S
C57 C58 1.371 . S
C57 H60 0.931 . S
C58 C54 1.391 . S
C58 C57 1.371 . S
C58 H65 0.930 . S
H59 C56 0.928 . S
H60 C57 0.931 . S
H61 C37 0.930 . S
H62 C34 0.930 . S
H63 C43 0.930 . S
H64 C55 0.929 . S
H65 C58 0.930 . S
C66 C67 1.351 . S
C66 N69 1.368 . S
C66 H71 0.931 . S
C67 C66 1.351 . S
C67 N68 1.373 . S
C67 H95 0.930 . S
N68 C67 1.373 . S
N68 C70 1.340 . S
N69 C66 1.368 . S
N69 C70 1.321 . S
N69 Co72 2.135 1_556 S
C70 N68 1.340 . S
C70 N69 1.321 . S
C70 H94 0.930 . S
H71 C66 0.931 . S
Co72 N69 2.135 1_554 S
Co72 N75 2.121 . S
Co72 O80 2.055 . S
Co72 O83 2.039 1_554 S
Co72 N86 2.140 . S
C73 O74 1.227 . S
C73 O83 1.265 . S
O74 C73 1.227 . S
N75 Co72 2.121 . S
N75 C77 1.375 . S
N75 C78 1.313 . S
C76 C77 1.338 . S
C76 N79 1.377 . S
C76 H96 0.930 . S
C77 N75 1.375 . S
C77 C76 1.338 . S
C77 H81 0.931 . S
C78 N75 1.313 . S
C78 N79 1.344 . S
C78 H82 0.930 . S
N79 C76 1.377 . S
N79 C78 1.344 . S
O80 Co72 2.055 . S
O80 C84 1.253 . S
H81 C77 0.931 . S
H82 C78 0.930 . S
O83 Co72 2.039 1_556 S
O83 C73 1.265 . S
C84 O80 1.253 . S
C84 O85 1.227 . S
O85 C84 1.227 . S
N86 Co72 2.140 . S
N86 C89 1.346 1_554 S
N86 C90 1.345 . S
C87 C88 1.387 1_554 S
C87 C91 1.391 . S
C88 C87 1.387 1_556 S
C88 C89 1.369 . S
C88 H97 0.929 . S
C89 N86 1.346 1_556 S
C89 C88 1.369 . S
C89 H92 0.928 . S
C90 N86 1.345 . S
C90 C91 1.371 . S
C90 H93 0.931 . S
C91 C87 1.391 . S
C91 C90 1.371 . S
C91 H98 0.930 . S
H92 C89 0.928 . S
H93 C90 0.931 . S
H94 C70 0.930 . S
H95 C67 0.930 . S
H96 C76 0.930 . S
H97 C88 0.929 . S
H98 C91 0.930 . S
C99 C100 1.351 . S
C99 N102 1.368 . S
C99 H104 0.931 . S
C100 C99 1.351 . S
C100 N101 1.373 . S
C100 H128 0.930 . S
N101 C100 1.373 . S
N101 C103 1.340 . S
N102 C99 1.368 . S
N102 C103 1.321 . S
N102 Co105 2.135 1_556 S
C103 N101 1.340 . S
C103 N102 1.321 . S
C103 H127 0.930 . S
H104 C99 0.931 . S
Co105 N102 2.135 1_554 S
Co105 N108 2.121 . S
Co105 O113 2.055 . S
Co105 O116 2.039 1_554 S
Co105 N119 2.140 . S
C106 O107 1.227 . S
C106 O116 1.265 . S
O107 C106 1.227 . S
N108 Co105 2.121 . S
N108 C110 1.375 . S
N108 C111 1.313 . S
C109 C110 1.338 . S
C109 N112 1.377 . S
C109 H129 0.930 . S
C110 N108 1.375 . S
C110 C109 1.338 . S
C110 H114 0.931 . S
C111 N108 1.313 . S
C111 N112 1.344 . S
C111 H115 0.930 . S
N112 C109 1.377 . S
N112 C111 1.344 . S
O113 Co105 2.055 . S
O113 C117 1.253 . S
H114 C110 0.931 . S
H115 C111 0.930 . S
O116 Co105 2.039 1_556 S
O116 C106 1.265 . S
C117 O113 1.253 . S
C117 O118 1.227 . S
O118 C117 1.227 . S
N119 Co105 2.140 . S
N119 C122 1.346 1_554 S
N119 C123 1.345 . S
C120 C121 1.387 1_554 S
C120 C124 1.391 . S
C121 C120 1.387 1_556 S
C121 C122 1.369 . S
C121 H130 0.929 . S
C122 N119 1.346 1_556 S
C122 C121 1.369 . S
C122 H125 0.928 . S
C123 N119 1.345 . S
C123 C124 1.371 . S
C123 H126 0.931 . S
C124 C120 1.391 . S
C124 C123 1.371 . S
C124 H131 0.930 . S
H125 C122 0.928 . S
H126 C123 0.931 . S
H127 C103 0.930 . S
H128 C100 0.930 . S
H129 C109 0.930 . S
H130 C121 0.929 . S
H131 C124 0.930 . S
C132 C133 1.351 . S
C132 N135 1.368 . S
C132 H137 0.931 . S
C133 C132 1.351 . S
C133 N134 1.373 . S
C133 H161 0.930 . S
N134 C133 1.373 . S
N134 C136 1.340 . S
N135 C132 1.368 . S
N135 C136 1.321 . S
N135 Co138 2.135 1_556 S
C136 N134 1.340 . S
C136 N135 1.321 . S
C136 H160 0.930 . S
H137 C132 0.931 . S
Co138 N135 2.135 1_554 S
Co138 N141 2.121 . S
Co138 O146 2.055 . S
Co138 O149 2.039 1_554 S
Co138 N152 2.140 . S
C139 O140 1.227 . S
C139 O149 1.265 . S
O140 C139 1.227 . S
N141 Co138 2.121 . S
N141 C143 1.375 . S
N141 C144 1.313 . S
C142 C143 1.338 . S
C142 N145 1.377 . S
C142 H162 0.930 . S
C143 N141 1.375 . S
C143 C142 1.338 . S
C143 H147 0.931 . S
C144 N141 1.313 . S
C144 N145 1.344 . S
C144 H148 0.930 . S
N145 C142 1.377 . S
N145 C144 1.344 . S
O146 Co138 2.055 . S
O146 C150 1.253 . S
H147 C143 0.931 . S
H148 C144 0.930 . S
O149 Co138 2.039 1_556 S
O149 C139 1.265 . S
C150 O146 1.253 . S
C150 O151 1.227 . S
O151 C150 1.227 . S
N152 Co138 2.140 . S
N152 C155 1.346 1_554 S
N152 C156 1.345 . S
C153 C154 1.387 1_554 S
C153 C157 1.391 . S
C154 C153 1.387 1_556 S
C154 C155 1.369 . S
C154 H163 0.929 . S
C155 N152 1.346 1_556 S
C155 C154 1.369 . S
C155 H158 0.928 . S
C156 N152 1.345 . S
C156 C157 1.371 . S
C156 H159 0.931 . S
C157 C153 1.391 . S
C157 C156 1.371 . S
C157 H164 0.930 . S
H158 C155 0.928 . S
H159 C156 0.931 . S
H160 C136 0.930 . S
H161 C133 0.930 . S
H162 C142 0.930 . S
H163 C154 0.929 . S
H164 C157 0.930 . S
C165 C166 1.351 . S
C165 N168 1.368 . S
C165 H170 0.931 . S
C166 C165 1.351 . S
C166 N167 1.373 . S
C166 H194 0.930 . S
N167 C166 1.373 . S
N167 C169 1.340 . S
N168 C165 1.368 . S
N168 C169 1.321 . S
N168 Co171 2.135 1_556 S
C169 N167 1.340 . S
C169 N168 1.321 . S
C169 H193 0.930 . S
H170 C165 0.931 . S
Co171 N168 2.135 1_554 S
Co171 N174 2.121 . S
Co171 O179 2.055 . S
Co171 O182 2.039 1_554 S
Co171 N185 2.140 . S
C172 O173 1.227 . S
C172 O182 1.265 . S
O173 C172 1.227 . S
N174 Co171 2.121 . S
N174 C176 1.375 . S
N174 C177 1.313 . S
C175 C176 1.338 . S
C175 N178 1.377 . S
C175 H195 0.930 . S
C176 N174 1.375 . S
C176 C175 1.338 . S
C176 H180 0.931 . S
C177 N174 1.313 . S
C177 N178 1.344 . S
C177 H181 0.930 . S
N178 C175 1.377 . S
N178 C177 1.344 . S
O179 Co171 2.055 . S
O179 C183 1.253 . S
H180 C176 0.931 . S
H181 C177 0.930 . S
O182 Co171 2.039 1_556 S
O182 C172 1.265 . S
C183 O179 1.253 . S
C183 O184 1.227 . S
O184 C183 1.227 . S
N185 Co171 2.140 . S
N185 C188 1.346 1_554 S
N185 C189 1.345 . S
C186 C187 1.387 1_554 S
C186 C190 1.391 . S
C187 C186 1.387 1_556 S
C187 C188 1.369 . S
C187 H196 0.929 . S
C188 N185 1.346 1_556 S
C188 C187 1.369 . S
C188 H191 0.928 . S
C189 N185 1.345 . S
C189 C190 1.371 . S
C189 H192 0.931 . S
C190 C186 1.391 . S
C190 C189 1.371 . S
C190 H197 0.930 . S
H191 C188 0.928 . S
H192 C189 0.931 . S
H193 C169 0.930 . S
H194 C166 0.930 . S
H195 C175 0.930 . S
H196 C187 0.929 . S
H197 C190 0.930 . S
C198 C199 1.351 . S
C198 N201 1.368 . S
C198 H203 0.931 . S
C199 C198 1.351 . S
C199 N200 1.373 . S
C199 H227 0.930 . S
N200 C199 1.373 . S
N200 C202 1.340 . S
N201 C198 1.368 . S
N201 C202 1.321 . S
N201 Co204 2.135 . S
C202 N200 1.340 . S
C202 N201 1.321 . S
C202 H226 0.930 . S
H203 C198 0.931 . S
Co204 N201 2.135 . S
Co204 N207 2.121 1_554 S
Co204 O212 2.055 1_554 S
Co204 O215 2.039 . S
Co204 N218 2.140 . S
C205 O206 1.227 . S
C205 O215 1.265 . S
O206 C205 1.227 . S
N207 Co204 2.121 1_556 S
N207 C209 1.375 . S
N207 C210 1.313 . S
C208 C209 1.338 . S
C208 N211 1.377 . S
C208 H228 0.930 . S
C209 N207 1.375 . S
C209 C208 1.338 . S
C209 H213 0.931 . S
C210 N207 1.313 . S
C210 N211 1.344 . S
C210 H214 0.930 . S
N211 C208 1.377 . S
N211 C210 1.344 . S
O212 Co204 2.055 1_556 S
O212 C216 1.253 . S
H213 C209 0.931 . S
H214 C210 0.930 . S
O215 Co204 2.039 . S
O215 C205 1.265 . S
C216 O212 1.253 . S
C216 O217 1.227 . S
O217 C216 1.227 . S
N218 Co204 2.140 . S
N218 C221 1.346 . S
N218 C222 1.345 1_554 S
C219 C220 1.387 . S
C219 C223 1.391 1_554 S
C220 C219 1.387 . S
C220 C221 1.369 . S
C220 H229 0.929 . S
C221 N218 1.346 . S
C221 C220 1.369 . S
C221 H224 0.928 . S
C222 N218 1.345 1_556 S
C222 C223 1.371 . S
C222 H225 0.931 . S
C223 C219 1.391 1_556 S
C223 C222 1.371 . S
C223 H230 0.930 . S
H224 C221 0.928 . S
H225 C222 0.931 . S
H226 C202 0.930 . S
H227 C199 0.930 . S
H228 C208 0.930 . S
H229 C220 0.929 . S
H230 C223 0.930 . S
C231 C232 1.351 . S
C231 N234 1.368 . S
C231 H236 0.931 . S
C232 C231 1.351 . S
C232 N233 1.373 . S
C232 H260 0.930 . S
N233 C232 1.373 . S
N233 C235 1.340 . S
N234 C231 1.368 . S
N234 C235 1.321 . S
N234 Co237 2.135 . S
C235 N233 1.340 . S
C235 N234 1.321 . S
C235 H259 0.930 . S
H236 C231 0.931 . S
Co237 N234 2.135 . S
Co237 N240 2.121 1_554 S
Co237 O245 2.055 1_554 S
Co237 O248 2.039 . S
Co237 N251 2.140 . S
C238 O239 1.227 . S
C238 O248 1.265 . S
O239 C238 1.227 . S
N240 Co237 2.121 1_556 S
N240 C242 1.375 . S
N240 C243 1.313 . S
C241 C242 1.338 . S
C241 N244 1.377 . S
C241 H261 0.930 . S
C242 N240 1.375 . S
C242 C241 1.338 . S
C242 H246 0.931 . S
C243 N240 1.313 . S
C243 N244 1.344 . S
C243 H247 0.930 . S
N244 C241 1.377 . S
N244 C243 1.344 . S
O245 Co237 2.055 1_556 S
O245 C249 1.253 . S
H246 C242 0.931 . S
H247 C243 0.930 . S
O248 Co237 2.039 . S
O248 C238 1.265 . S
C249 O245 1.253 . S
C249 O250 1.227 . S
O250 C249 1.227 . S
N251 Co237 2.140 . S
N251 C254 1.346 . S
N251 C255 1.345 1_554 S
C252 C253 1.387 . S
C252 C256 1.391 1_554 S
C253 C252 1.387 . S
C253 C254 1.369 . S
C253 H262 0.929 . S
C254 N251 1.346 . S
C254 C253 1.369 . S
C254 H257 0.928 . S
C255 N251 1.345 1_556 S
C255 C256 1.371 . S
C255 H258 0.931 . S
C256 C252 1.391 1_556 S
C256 C255 1.371 . S
C256 H263 0.930 . S
H257 C254 0.928 . S
H258 C255 0.931 . S
H259 C235 0.930 . S
H260 C232 0.930 . S
H261 C241 0.930 . S
H262 C253 0.929 . S
H263 C256 0.930 . S
C264 C265 1.351 . S
C264 N267 1.368 . S
C264 H269 0.931 . S
C265 C264 1.351 . S
C265 N266 1.373 . S
C265 H293 0.930 . S
N266 C265 1.373 . S
N266 C268 1.340 . S
N267 C264 1.368 . S
N267 C268 1.321 . S
N267 Co270 2.135 . S
C268 N266 1.340 . S
C268 N267 1.321 . S
C268 H292 0.930 . S
H269 C264 0.931 . S
Co270 N267 2.135 . S
Co270 N273 2.121 1_554 S
Co270 O278 2.055 1_554 S
Co270 O281 2.039 . S
Co270 N284 2.140 . S
C271 O272 1.227 . S
C271 O281 1.265 . S
O272 C271 1.227 . S
N273 Co270 2.121 1_556 S
N273 C275 1.375 . S
N273 C276 1.313 . S
C274 C275 1.338 . S
C274 N277 1.377 . S
C274 H294 0.930 . S
C275 N273 1.375 . S
C275 C274 1.338 . S
C275 H279 0.931 . S
C276 N273 1.313 . S
C276 N277 1.344 . S
C276 H280 0.930 . S
N277 C274 1.377 . S
N277 C276 1.344 . S
O278 Co270 2.055 1_556 S
O278 C282 1.253 . S
H279 C275 0.931 . S
H280 C276 0.930 . S
O281 Co270 2.039 . S
O281 C271 1.265 . S
C282 O278 1.253 . S
C282 O283 1.227 . S
O283 C282 1.227 . S
N284 Co270 2.140 . S
N284 C287 1.346 . S
N284 C288 1.345 1_554 S
C285 C286 1.387 . S
C285 C289 1.391 1_554 S
C286 C285 1.387 . S
C286 C287 1.369 . S
C286 H295 0.929 . S
C287 N284 1.346 . S
C287 C286 1.369 . S
C287 H290 0.928 . S
C288 N284 1.345 1_556 S
C288 C289 1.371 . S
C288 H291 0.931 . S
C289 C285 1.391 1_556 S
C289 C288 1.371 . S
C289 H296 0.930 . S
H290 C287 0.928 . S
H291 C288 0.931 . S
H292 C268 0.930 . S
H293 C265 0.930 . S
H294 C274 0.930 . S
H295 C286 0.929 . S
H296 C289 0.930 . S
C297 C298 1.351 . S
C297 N300 1.368 . S
C297 H302 0.931 . S
C298 C297 1.351 . S
C298 N299 1.373 . S
C298 H326 0.930 . S
N299 C298 1.373 . S
N299 C301 1.340 . S
N300 C297 1.368 . S
N300 C301 1.321 . S
N300 Co303 2.135 . S
C301 N299 1.340 . S
C301 N300 1.321 . S
C301 H325 0.930 . S
H302 C297 0.931 . S
Co303 N300 2.135 . S
Co303 N306 2.121 1_554 S
Co303 O311 2.055 1_554 S
Co303 O314 2.039 . S
Co303 N317 2.140 . S
C304 O305 1.227 . S
C304 O314 1.265 . S
O305 C304 1.227 . S
N306 Co303 2.121 1_556 S
N306 C308 1.375 . S
N306 C309 1.313 . S
C307 C308 1.338 . S
C307 N310 1.377 . S
C307 H327 0.930 . S
C308 N306 1.375 . S
C308 C307 1.338 . S
C308 H312 0.931 . S
C309 N306 1.313 . S
C309 N310 1.344 . S
C309 H313 0.930 . S
N310 C307 1.377 . S
N310 C309 1.344 . S
O311 Co303 2.055 1_556 S
O311 C315 1.253 . S
H312 C308 0.931 . S
H313 C309 0.930 . S
O314 Co303 2.039 . S
O314 C304 1.265 . S
C315 O311 1.253 . S
C315 O316 1.227 . S
O316 C315 1.227 . S
N317 Co303 2.140 . S
N317 C320 1.346 . S
N317 C321 1.345 1_554 S
C318 C319 1.387 . S
C318 C322 1.391 1_554 S
C319 C318 1.387 . S
C319 C320 1.369 . S
C319 H328 0.929 . S
C320 N317 1.346 . S
C320 C319 1.369 . S
C320 H323 0.928 . S
C321 N317 1.345 1_556 S
C321 C322 1.371 . S
C321 H324 0.931 . S
C322 C318 1.391 1_556 S
C322 C321 1.371 . S
C322 H329 0.930 . S
H323 C320 0.928 . S
H324 C321 0.931 . S
H325 C301 0.930 . S
H326 C298 0.930 . S
H327 C307 0.930 . S
H328 C319 0.929 . S
H329 C322 0.930 . S
C330 C331 1.351 . S
C330 N333 1.368 . S
C330 H335 0.931 . S
C331 C330 1.351 . S
C331 N332 1.373 . S
C331 H359 0.930 . S
N332 C331 1.373 . S
N332 C334 1.340 . S
N333 C330 1.368 . S
N333 C334 1.321 . S
N333 Co336 2.135 . S
C334 N332 1.340 . S
C334 N333 1.321 . S
C334 H358 0.930 . S
H335 C330 0.931 . S
Co336 N333 2.135 . S
Co336 N339 2.121 1_554 S
Co336 O344 2.055 1_554 S
Co336 O347 2.039 . S
Co336 N350 2.140 . S
C337 O338 1.227 . S
C337 O347 1.265 . S
O338 C337 1.227 . S
N339 Co336 2.121 1_556 S
N339 C341 1.375 . S
N339 C342 1.313 . S
C340 C341 1.338 . S
C340 N343 1.377 . S
C340 H360 0.930 . S
C341 N339 1.375 . S
C341 C340 1.338 . S
C341 H345 0.931 . S
C342 N339 1.313 . S
C342 N343 1.344 . S
C342 H346 0.930 . S
N343 C340 1.377 . S
N343 C342 1.344 . S
O344 Co336 2.055 1_556 S
O344 C348 1.253 . S
H345 C341 0.931 . S
H346 C342 0.930 . S
O347 Co336 2.039 . S
O347 C337 1.265 . S
C348 O344 1.253 . S
C348 O349 1.227 . S
O349 C348 1.227 . S
N350 Co336 2.140 . S
N350 C353 1.346 . S
N350 C354 1.345 1_554 S
C351 C352 1.387 . S
C351 C355 1.391 1_554 S
C352 C351 1.387 . S
C352 C353 1.369 . S
C352 H361 0.929 . S
C353 N350 1.346 . S
C353 C352 1.369 . S
C353 H356 0.928 . S
C354 N350 1.345 1_556 S
C354 C355 1.371 . S
C354 H357 0.931 . S
C355 C351 1.391 1_556 S
C355 C354 1.371 . S
C355 H362 0.930 . S
H356 C353 0.928 . S
H357 C354 0.931 . S
H358 C334 0.930 . S
H359 C331 0.930 . S
H360 C340 0.930 . S
H361 C352 0.929 . S
H362 C355 0.930 . S
C363 C364 1.351 . S
C363 N366 1.368 . S
C363 H368 0.931 . S
C364 C363 1.351 . S
C364 N365 1.373 . S
C364 H392 0.930 . S
N365 C364 1.373 . S
N365 C367 1.340 . S
N366 C363 1.368 . S
N366 C367 1.321 . S
N366 Co369 2.135 . S
C367 N365 1.340 . S
C367 N366 1.321 . S
C367 H391 0.930 . S
H368 C363 0.931 . S
Co369 N366 2.135 . S
Co369 N372 2.121 1_554 S
Co369 O377 2.055 1_554 S
Co369 O380 2.039 . S
Co369 N383 2.140 . S
C370 O371 1.227 . S
C370 O380 1.265 . S
O371 C370 1.227 . S
N372 Co369 2.121 1_556 S
N372 C374 1.375 . S
N372 C375 1.313 . S
C373 C374 1.338 . S
C373 N376 1.377 . S
C373 H393 0.930 . S
C374 N372 1.375 . S
C374 C373 1.338 . S
C374 H378 0.931 . S
C375 N372 1.313 . S
C375 N376 1.344 . S
C375 H379 0.930 . S
N376 C373 1.377 . S
N376 C375 1.344 . S
O377 Co369 2.055 1_556 S
O377 C381 1.253 . S
H378 C374 0.931 . S
H379 C375 0.930 . S
O380 Co369 2.039 . S
O380 C370 1.265 . S
C381 O377 1.253 . S
C381 O382 1.227 . S
O382 C381 1.227 . S
N383 Co369 2.140 . S
N383 C386 1.346 . S
N383 C387 1.345 1_554 S
C384 C385 1.387 . S
C384 C388 1.391 1_554 S
C385 C384 1.387 . S
C385 C386 1.369 . S
C385 H394 0.929 . S
C386 N383 1.346 . S
C386 C385 1.369 . S
C386 H389 0.928 . S
C387 N383 1.345 1_556 S
C387 C388 1.371 . S
C387 H390 0.931 . S
C388 C384 1.391 1_556 S
C388 C387 1.371 . S
C388 H395 0.930 . S
H389 C386 0.928 . S
H390 C387 0.931 . S
H391 C367 0.930 . S
H392 C364 0.930 . S
H393 C373 0.930 . S
H394 C385 0.929 . S
H395 C388 0.930 . S
C396 C397 1.387 1_556 S
C396 H400 0.950 . S
C396 C405 1.390 . S
C397 C396 1.387 1_554 S
C397 C399 1.387 . S
H398 C405 0.950 . S
C399 C397 1.387 . S
C399 C401 1.390 . S
C399 H403 0.950 . S
H400 C396 0.950 . S
C401 C399 1.390 . S
C401 C402 1.387 . S
C401 H404 0.950 . S
C402 C401 1.387 . S
C402 C405 1.387 1_554 S
H403 C399 0.950 . S
H404 C401 0.950 . S
C405 C396 1.390 . S
C405 H398 0.950 . S
C405 C402 1.387 1_556 S
C406 C407 1.387 . S
C406 H410 0.950 . S
C406 C415 1.390 . S
C407 C406 1.387 . S
C407 C409 1.387 . S
H408 C415 0.950 . S
C409 C407 1.387 . S
C409 C411 1.390 . S
C409 H413 0.950 . S
H410 C406 0.950 . S
C411 C409 1.390 . S
C411 C412 1.387 . S
C411 H414 0.950 . S
C412 C411 1.387 . S
C412 C415 1.387 . S
H413 C409 0.950 . S
H414 C411 0.950 . S
C415 C406 1.390 . S
C415 H408 0.950 . S
C415 C412 1.387 . S
C416 C417 1.387 1_556 S
C416 H420 0.950 . S
C416 C425 1.390 . S
C417 C416 1.387 1_554 S
C417 C419 1.387 . S
H418 C425 0.950 . S
C419 C417 1.387 . S
C419 C421 1.390 . S
C419 H423 0.950 . S
H420 C416 0.950 . S
C421 C419 1.390 . S
C421 C422 1.387 . S
C421 H424 0.950 . S
C422 C421 1.387 . S
C422 C425 1.387 1_554 S
H423 C419 0.950 . S
H424 C421 0.950 . S
C425 C416 1.390 . S
C425 H418 0.950 . S
C425 C422 1.387 1_556 S
C426 C427 1.387 . S
C426 H430 0.950 . S
C426 C435 1.390 . S
C427 C426 1.387 . S
C427 C429 1.387 1_554 S
H428 C435 0.950 . S
C429 C427 1.387 1_556 S
C429 C431 1.390 . S
C429 H433 0.950 . S
H430 C426 0.950 . S
C431 C429 1.390 . S
C431 C432 1.387 1_556 S
C431 H434 0.950 . S
C432 C431 1.387 1_554 S
C432 C435 1.387 . S
H433 C429 0.950 . S
H434 C431 0.950 . S
C435 C426 1.390 . S
C435 H428 0.950 . S
C435 C432 1.387 . S
C436 C437 1.387 . S
C436 H440 0.950 . S
C436 C445 1.390 . S
C437 C436 1.387 . S
C437 C439 1.387 . S
H438 C445 0.950 . S
C439 C437 1.387 . S
C439 C441 1.390 . S
C439 H443 0.950 . S
H440 C436 0.950 . S
C441 C439 1.390 . S
C441 C442 1.387 . S
C441 H444 0.950 . S
C442 C441 1.387 . S
C442 C445 1.387 . S
H443 C439 0.950 . S
H444 C441 0.950 . S
C445 C436 1.390 . S
C445 H438 0.950 . S
C445 C442 1.387 . S
C446 C447 1.387 1_556 S
C446 H450 0.950 . S
C446 C455 1.390 . S
C447 C446 1.387 1_554 S
C447 C449 1.387 . S
H448 C455 0.950 . S
C449 C447 1.387 . S
C449 C451 1.390 . S
C449 H453 0.950 . S
H450 C446 0.950 . S
C451 C449 1.390 . S
C451 C452 1.387 . S
C451 H454 0.950 . S
C452 C451 1.387 . S
C452 C455 1.387 1_554 S
H453 C449 0.950 . S
H454 C451 0.950 . S
C455 C446 1.390 . S
C455 H448 0.950 . S
C455 C452 1.387 1_556 S
C456 C457 1.388 . S
C456 H460 0.951 . S
C456 C465 1.388 1_556 S
C457 C456 1.388 . S
C457 C459 1.388 . S
H458 C465 0.950 . S
C459 C457 1.388 . S
C459 C461 1.388 1_556 S
C459 H463 0.951 . S
H460 C456 0.951 . S
C461 C459 1.388 1_554 S
C461 C462 1.387 . S
C461 H464 0.950 . S
C462 C461 1.387 . S
C462 C465 1.387 . S
H463 C459 0.951 . S
H464 C461 0.950 . S
C465 C456 1.388 1_554 S
C465 H458 0.950 . S
C465 C462 1.387 . S
C466 C467 1.387 1_554 S
C466 H470 0.950 . S
C466 C475 1.390 . S
C467 C466 1.387 1_556 S
C467 C469 1.387 . S
H468 C475 0.950 . S
C469 C467 1.387 . S
C469 C471 1.390 . S
C469 H473 0.950 . S
H470 C466 0.950 . S
C471 C469 1.390 . S
C471 C472 1.387 1_556 S
C471 H474 0.950 . S
C472 C471 1.387 1_554 S
C472 C475 1.387 . S
H473 C469 0.950 . S
H474 C471 0.950 . S
C475 C466 1.390 . S
C475 H468 0.950 . S
C475 C472 1.387 . S
C476 C477 1.387 1_556 S
C476 H480 0.950 . S
C476 C485 1.390 . S
C477 C476 1.387 1_554 S
C477 C479 1.387 . S
H478 C485 0.950 . S
C479 C477 1.387 . S
C479 C481 1.390 . S
C479 H483 0.950 . S
H480 C476 0.950 . S
C481 C479 1.390 . S
C481 C482 1.387 1_554 S
C481 H484 0.950 . S
C482 C481 1.387 1_556 S
C482 C485 1.387 . S
H483 C479 0.950 . S
H484 C481 0.950 . S
C485 C476 1.390 . S
C485 H478 0.950 . S
C485 C482 1.387 . S
C486 C487 1.387 . S
C486 H490 0.950 . S
C486 C495 1.390 1_556 S
C487 C486 1.387 . S
C487 C489 1.387 . S
H488 C495 0.950 . S
C489 C487 1.387 . S
C489 C491 1.390 1_556 S
C489 H493 0.950 . S
H490 C486 0.950 . S
C491 C489 1.390 1_554 S
C491 C492 1.387 . S
C491 H494 0.950 . S
C492 C491 1.387 . S
C492 C495 1.387 . S
H493 C489 0.950 . S
H494 C491 0.950 . S
C495 C486 1.390 1_554 S
C495 H488 0.950 . S
C495 C492 1.387 . S
C496 C497 1.387 . S
C496 H500 0.950 . S
C496 C505 1.390 . S
C497 C496 1.387 . S
C497 C499 1.387 1_556 S
H498 C505 0.950 . S
C499 C497 1.387 1_554 S
C499 C501 1.390 . S
C499 H503 0.950 . S
H500 C496 0.950 . S
C501 C499 1.390 . S
C501 C502 1.387 . S
C501 H504 0.950 . S
C502 C501 1.387 . S
C502 C505 1.387 1_554 S
H503 C499 0.950 . S
H504 C501 0.950 . S
C505 C496 1.390 . S
C505 H498 0.950 . S
C505 C502 1.387 1_556 S
C506 C507 1.387 1_554 S
C506 H510 0.950 . S
C506 C515 1.390 . S
C507 C506 1.387 1_556 S
C507 C509 1.387 . S
H508 C515 0.950 . S
C509 C507 1.387 . S
C509 C511 1.390 . S
C509 H513 0.950 . S
H510 C506 0.950 . S
C511 C509 1.390 . S
C511 C512 1.387 1_556 S
C511 H514 0.950 . S
C512 C511 1.387 1_554 S
C512 C515 1.387 . S
H513 C509 0.950 . S
H514 C511 0.950 . S
C515 C506 1.390 . S
C515 H508 0.950 . S
C515 C512 1.387 . S
C516 C517 1.387 . S
C516 H520 0.950 . S
C516 C525 1.390 . S
C517 C516 1.387 . S
C517 C519 1.387 . S
H518 C525 0.950 . S
C519 C517 1.387 . S
C519 C521 1.390 . S
C519 H523 0.950 . S
H520 C516 0.950 . S
C521 C519 1.390 . S
C521 C522 1.387 . S
C521 H524 0.950 . S
C522 C521 1.387 . S
C522 C525 1.387 . S
H523 C519 0.950 . S
H524 C521 0.950 . S
C525 C516 1.390 . S
C525 H518 0.950 . S
C525 C522 1.387 . S
C526 C527 1.387 . S
C526 H530 0.950 . S
C526 C535 1.390 . S
C527 C526 1.387 . S
C527 C529 1.387 . S
H528 C535 0.950 . S
C529 C527 1.387 . S
C529 C531 1.390 . S
C529 H533 0.950 . S
H530 C526 0.950 . S
C531 C529 1.390 . S
C531 C532 1.387 . S
C531 H534 0.950 . S
C532 C531 1.387 . S
C532 C535 1.387 . S
H533 C529 0.950 . S
H534 C531 0.950 . S
C535 C526 1.390 . S
C535 H528 0.950 . S
C535 C532 1.387 . S
C536 C537 1.387 . S
C536 H540 0.950 . S
C536 C545 1.390 . S
C537 C536 1.387 . S
C537 C539 1.387 . S
H538 C545 0.950 . S
C539 C537 1.387 . S
C539 C541 1.390 . S
C539 H543 0.950 . S
H540 C536 0.950 . S
C541 C539 1.390 . S
C541 C542 1.387 . S
C541 H544 0.950 . S
C542 C541 1.387 . S
C542 C545 1.387 . S
H543 C539 0.950 . S
H544 C541 0.950 . S
C545 C536 1.390 . S
C545 H538 0.950 . S
C545 C542 1.387 . S
C546 C547 1.387 . S
C546 H550 0.950 . S
C546 C555 1.390 . S
C547 C546 1.387 . S
C547 C549 1.387 . S
H548 C555 0.950 . S
C549 C547 1.387 . S
C549 C551 1.390 . S
C549 H553 0.950 . S
H550 C546 0.950 . S
C551 C549 1.390 . S
C551 C552 1.387 . S
C551 H554 0.950 . S
C552 C551 1.387 . S
C552 C555 1.387 . S
H553 C549 0.950 . S
H554 C551 0.950 . S
C555 C546 1.390 . S
C555 H548 0.950 . S
C555 C552 1.387 . S
C556 C557 1.387 . S
C556 H560 0.950 . S
C556 C565 1.390 . S
C557 C556 1.387 . S
C557 C559 1.387 . S
H558 C565 0.950 . S
C559 C557 1.387 . S
C559 C561 1.390 . S
C559 H563 0.950 . S
H560 C556 0.950 . S
C561 C559 1.390 . S
C561 C562 1.387 . S
C561 H564 0.950 . S
C562 C561 1.387 . S
C562 C565 1.387 . S
H563 C559 0.950 . S
H564 C561 0.950 . S
C565 C556 1.390 . S
C565 H558 0.950 . S
C565 C562 1.387 . S
C566 C567 1.387 . S
C566 H570 0.950 . S
C566 C575 1.390 . S
C567 C566 1.387 . S
C567 C569 1.387 . S
H568 C575 0.950 . S
C569 C567 1.387 . S
C569 C571 1.390 . S
C569 H573 0.950 . S
H570 C566 0.950 . S
C571 C569 1.390 . S
C571 C572 1.387 . S
C571 H574 0.950 . S
C572 C571 1.387 . S
C572 C575 1.387 . S
H573 C569 0.950 . S
H574 C571 0.950 . S
C575 C566 1.390 . S
C575 H568 0.950 . S
C575 C572 1.387 . S
C576 C577 1.387 . S
C576 H580 0.950 . S
C576 C585 1.390 . S
C577 C576 1.387 . S
C577 C579 1.387 . S
H578 C585 0.950 . S
C579 C577 1.387 . S
C579 C581 1.390 . S
C579 H583 0.950 . S
H580 C576 0.950 . S
C581 C579 1.390 . S
C581 C582 1.387 . S
C581 H584 0.950 . S
C582 C581 1.387 . S
C582 C585 1.387 . S
H583 C579 0.950 . S
H584 C581 0.950 . S
C585 C576 1.390 . S
C585 H578 0.950 . S
C585 C582 1.387 . S
C586 C587 1.387 . S
C586 H590 0.950 . S
C586 C595 1.390 . S
C587 C586 1.387 . S
C587 C589 1.387 . S
H588 C595 0.950 . S
C589 C587 1.387 . S
C589 C591 1.390 . S
C589 H593 0.950 . S
H590 C586 0.950 . S
C591 C589 1.390 . S
C591 C592 1.387 . S
C591 H594 0.950 . S
C592 C591 1.387 . S
C592 C595 1.387 . S
H593 C589 0.950 . S
H594 C591 0.950 . S
C595 C586 1.390 . S
C595 H588 0.950 . S
C595 C592 1.387 . S
C596 C597 1.387 . S
C596 H600 0.950 . S
C596 C605 1.390 . S
C597 C596 1.387 . S
C597 C599 1.387 . S
H598 C605 0.950 . S
C599 C597 1.387 . S
C599 C601 1.390 . S
C599 H603 0.950 . S
H600 C596 0.950 . S
C601 C599 1.390 . S
C601 C602 1.387 . S
C601 H604 0.950 . S
C602 C601 1.387 . S
C602 C605 1.387 . S
H603 C599 0.950 . S
H604 C601 0.950 . S
C605 C596 1.390 . S
C605 H598 0.950 . S
C605 C602 1.387 . S
C606 C607 1.387 . S
C606 H610 0.950 . S
C606 C615 1.390 . S
C607 C606 1.387 . S
C607 C609 1.387 . S
H608 C615 0.950 . S
C609 C607 1.387 . S
C609 C611 1.390 . S
C609 H613 0.950 . S
H610 C606 0.950 . S
C611 C609 1.390 . S
C611 C612 1.387 . S
C611 H614 0.950 . S
C612 C611 1.387 . S
C612 C615 1.387 . S
H613 C609 0.950 . S
H614 C611 0.950 . S
C615 C606 1.390 . S
C615 H608 0.950 . S
C615 C612 1.387 . S
C616 C617 1.387 . S
C616 H620 0.950 . S
C616 C625 1.390 . S
C617 C616 1.387 . S
C617 C619 1.387 . S
H618 C625 0.950 . S
C619 C617 1.387 . S
C619 C621 1.390 . S
C619 H623 0.950 . S
H620 C616 0.950 . S
C621 C619 1.390 . S
C621 C622 1.387 . S
C621 H624 0.950 . S
C622 C621 1.387 . S
C622 C625 1.387 . S
H623 C619 0.950 . S
H624 C621 0.950 . S
C625 C616 1.390 . S
C625 H618 0.950 . S
C625 C622 1.387 . S
C626 C627 1.387 . S
C626 H630 0.950 . S
C626 C635 1.390 . S
C627 C626 1.387 . S
C627 C629 1.387 . S
H628 C635 0.950 . S
C629 C627 1.387 . S
C629 C631 1.390 . S
C629 H633 0.950 . S
H630 C626 0.950 . S
C631 C629 1.390 . S
C631 C632 1.387 . S
C631 H634 0.950 . S
C632 C631 1.387 . S
C632 C635 1.387 . S
H633 C629 0.950 . S
H634 C631 0.950 . S
C635 C626 1.390 . S
C635 H628 0.950 . S
C635 C632 1.387 . S
C636 C637 1.387 1_554 S
C636 H640 0.950 . S
C636 C645 1.390 1_455 S
C637 C636 1.387 1_556 S
C637 C639 1.387 . S
H638 C645 0.950 . S
C639 C637 1.387 . S
C639 C641 1.390 1_455 S
C639 H643 0.950 . S
H640 C636 0.950 . S
C641 C639 1.390 1_655 S
C641 C642 1.387 1_556 S
C641 H644 0.950 . S
C642 C641 1.387 1_554 S
C642 C645 1.387 . S
H643 C639 0.950 . S
H644 C641 0.950 . S
C645 C636 1.390 1_655 S
C645 H638 0.950 . S
C645 C642 1.387 . S
C646 C647 1.387 . S
C646 H650 0.950 . S
C646 C655 1.390 1_565 S
C647 C646 1.387 . S
C647 C649 1.387 . S
H648 C655 0.950 1_556 S
C649 C647 1.387 . S
C649 C651 1.390 1_565 S
C649 H653 0.950 . S
H650 C646 0.950 . S
C651 C649 1.390 1_545 S
C651 C652 1.387 1_554 S
C651 H654 0.950 1_554 S
C652 C651 1.387 1_556 S
C652 C655 1.387 1_556 S
H653 C649 0.950 . S
H654 C651 0.950 1_556 S
C655 C646 1.390 1_545 S
C655 H648 0.950 1_554 S
C655 C652 1.387 1_554 S
C656 C657 1.387 1_556 S
C656 H660 0.950 . S
C656 C665 1.390 . S
C657 C656 1.387 1_554 S
C657 C659 1.387 . S
H658 C665 0.950 . S
C659 C657 1.387 . S
C659 C661 1.390 . S
C659 H663 0.950 . S
H660 C656 0.950 . S
C661 C659 1.390 . S
C661 C662 1.387 1_554 S
C661 H664 0.950 . S
C662 C661 1.387 1_556 S
C662 C665 1.387 . S
H663 C659 0.950 . S
H664 C661 0.950 . S
C665 C656 1.390 . S
C665 H658 0.950 . S
C665 C662 1.387 . S
C666 C667 1.387 1_556 S
C666 H670 0.950 . S
C666 C675 1.390 1_455 S
C667 C666 1.387 1_554 S
C667 C669 1.387 . S
H668 C675 0.950 . S
C669 C667 1.387 . S
C669 C671 1.390 1_455 S
C669 H673 0.950 . S
H670 C666 0.950 . S
C671 C669 1.390 1_655 S
C671 C672 1.387 1_554 S
C671 H674 0.950 . S
C672 C671 1.387 1_556 S
C672 C675 1.387 . S
H673 C669 0.950 . S
H674 C671 0.950 . S
C675 C666 1.390 1_655 S
C675 H668 0.950 . S
C675 C672 1.387 . S
C676 C677 1.387 1_554 S
C676 H680 0.949 1_554 S
C676 C685 1.392 1_565 S
C677 C676 1.387 1_556 S
C677 C679 1.387 1_556 S
H678 C685 0.950 . S
C679 C677 1.387 1_554 S
C679 C681 1.390 1_565 S
C679 H683 0.950 1_554 S
H680 C676 0.949 1_556 S
C681 C679 1.390 1_545 S
C681 C682 1.387 . S
C681 H684 0.950 . S
C682 C681 1.387 . S
C682 C685 1.387 . S
H683 C679 0.950 1_556 S
H684 C681 0.950 . S
C685 C676 1.392 1_545 S
C685 H678 0.950 . S
C685 C682 1.387 . S
C686 C687 1.387 1_556 S
C686 H690 0.950 . S
C686 C695 1.390 . S
C687 C686 1.387 1_554 S
C687 C689 1.387 . S
H688 C695 0.950 . S
C689 C687 1.387 . S
C689 C691 1.390 . S
C689 H693 0.950 . S
H690 C686 0.950 . S
C691 C689 1.390 . S
C691 C692 1.387 1_554 S
C691 H694 0.950 . S
C692 C691 1.387 1_556 S
C692 C695 1.387 . S
H693 C689 0.950 . S
H694 C691 0.950 . S
C695 C686 1.390 . S
C695 H688 0.950 . S
C695 C692 1.387 . S
C397 C285 1.565 . S
C402 C21 1.566 . S
C407 C54 1.566 . S
C412 C318 1.566 . S
C417 C351 1.565 . S
C422 C87 1.566 . S
C427 C384 1.566 . S
C432 C120 1.565 . S
C437 C153 1.566 . S
C442 C219 1.566 . S
C447 C252 1.565 . S
C452 C186 1.566 . S
C457 C348 1.332 . S
C462 C18 1.332 . S
C467 C381 1.333 . S
C472 C51 1.332 . S
C477 C84 1.333 . S
C482 C216 1.332 . S
C487 C249 1.333 . S
C492 C117 1.333 . S
C497 C282 1.333 . S
C502 C150 1.334 . S
C507 C315 1.333 . S
C512 C183 1.332 . S
C517 N13 1.464 . S
C522 N2 1.460 . S
C527 N46 1.464 . S
C532 N35 1.460 . S
C537 N79 1.464 . S
C542 N68 1.460 . S
C547 N112 1.468 . S
C552 N101 1.464 . S
C557 N134 1.460 . S
C562 N145 1.464 . S
C567 N178 1.464 . S
C572 N167 1.460 . S
C577 N200 1.460 . S
C582 N211 1.464 . S
C587 N244 1.468 . S
C592 N233 1.464 . S
C597 N266 1.460 . S
C602 N277 1.464 . S
C607 N299 1.460 . S
C612 N310 1.465 . S
C617 N343 1.464 . S
C622 N332 1.460 . S
C627 N376 1.467 . S
C632 N365 1.463 . S
C637 C7 1.359 . S
C642 C370 1.357 . S
C647 C205 1.358 . S
C652 C40 1.358 . S
C657 C238 1.359 . S
C662 C73 1.357 . S
C667 C271 1.359 . S
C672 C106 1.357 . S
C677 C139 1.358 . S
C682 C304 1.358 . S
C687 C337 1.359 . S
C692 C172 1.357 . S
