# Generated by pormake.
# Topology zff, (5)-cn, num edge types: 1
# Building blocks:
#     Node 0, Type 0, BuildingBlock: BEQFEK_clean_sbu_0, # of connection points: 5
#     Node 1, Type 0, BuildingBlock: BEQFEK_clean_sbu_0, # of connection points: 5
#     Node 2, Type 0, BuildingBlock: BEQFEK_clean_sbu_0, # of connection points: 5
#     Node 3, Type 0, BuildingBlock: BEQFEK_clean_sbu_0, # of connection points: 5
#     Node 4, Type 0, BuildingBlock: BEQFEK_clean_sbu_0, # of connection points: 5
#     Node 5, Type 0, BuildingBlock: BEQFEK_clean_sbu_0, # of connection points: 5
#     Node 6, Type 0, BuildingBlock: BEQFEK_clean_sbu_0, # of connection points: 5
#     Node 7, Type 0, BuildingBlock: BEQFEK_clean_sbu_0, # of connection points: 5
#     Node 8, Type 0, BuildingBlock: BEQFEK_clean_sbu_0, # of connection points: 5
#     Node 9, Type 0, BuildingBlock: BEQFEK_clean_sbu_0, # of connection points: 5
#     Node 10, Type 0, BuildingBlock: BEQFEK_clean_sbu_0, # of connection points: 5
#     Node 11, Type 0, BuildingBlock: BEQFEK_clean_sbu_0, # of connection points: 5
#     Node 12, Type 0, BuildingBlock: BEQFEK_clean_sbu_0, # of connection points: 5
#     Node 13, Type 0, BuildingBlock: BEQFEK_clean_sbu_0, # of connection points: 5
#     Node 14, Type 0, BuildingBlock: BEQFEK_clean_sbu_0, # of connection points: 5
#     Node 15, Type 0, BuildingBlock: BEQFEK_clean_sbu_0, # of connection points: 5
#     Edge 16, Type (0, 0), BuildingBlock: XUDNAN_clean_linker_2, # of connection points: 2
#     Edge 17, Type (0, 0), BuildingBlock: XUDNAN_clean_linker_2, # of connection points: 2
#     Edge 18, Type (0, 0), BuildingBlock: XUDNAN_clean_linker_2, # of connection points: 2
#     Edge 19, Type (0, 0), BuildingBlock: XUDNAN_clean_linker_2, # of connection points: 2
#     Edge 20, Type (0, 0), BuildingBlock: XUDNAN_clean_linker_2, # of connection points: 2
#     Edge 21, Type (0, 0), BuildingBlock: XUDNAN_clean_linker_2, # of connection points: 2
#     Edge 22, Type (0, 0), BuildingBlock: XUDNAN_clean_linker_2, # of connection points: 2
#     Edge 23, Type (0, 0), BuildingBlock: XUDNAN_clean_linker_2, # of connection points: 2
#     Edge 24, Type (0, 0), BuildingBlock: XUDNAN_clean_linker_2, # of connection points: 2
#     Edge 25, Type (0, 0), BuildingBlock: XUDNAN_clean_linker_2, # of connection points: 2
#     Edge 26, Type (0, 0), BuildingBlock: XUDNAN_clean_linker_2, # of connection points: 2
#     Edge 27, Type (0, 0), BuildingBlock: XUDNAN_clean_linker_2, # of connection points: 2
#     Edge 28, Type (0, 0), BuildingBlock: XUDNAN_clean_linker_2, # of connection points: 2
#     Edge 29, Type (0, 0), BuildingBlock: XUDNAN_clean_linker_2, # of connection points: 2
#     Edge 30, Type (0, 0), BuildingBlock: XUDNAN_clean_linker_2, # of connection points: 2
#     Edge 31, Type (0, 0), BuildingBlock: XUDNAN_clean_linker_2, # of connection points: 2
#     Edge 32, Type (0, 0), BuildingBlock: XUDNAN_clean_linker_2, # of connection points: 2
#     Edge 33, Type (0, 0), BuildingBlock: XUDNAN_clean_linker_2, # of connection points: 2
#     Edge 34, Type (0, 0), BuildingBlock: XUDNAN_clean_linker_2, # of connection points: 2
#     Edge 35, Type (0, 0), BuildingBlock: XUDNAN_clean_linker_2, # of connection points: 2
#     Edge 36, Type (0, 0), BuildingBlock: XUDNAN_clean_linker_2, # of connection points: 2
#     Edge 37, Type (0, 0), BuildingBlock: XUDNAN_clean_linker_2, # of connection points: 2
#     Edge 38, Type (0, 0), BuildingBlock: XUDNAN_clean_linker_2, # of connection points: 2
#     Edge 39, Type (0, 0), BuildingBlock: XUDNAN_clean_linker_2, # of connection points: 2
#     Edge 40, Type (0, 0), BuildingBlock: XUDNAN_clean_linker_2, # of connection points: 2
#     Edge 41, Type (0, 0), BuildingBlock: XUDNAN_clean_linker_2, # of connection points: 2
#     Edge 42, Type (0, 0), BuildingBlock: XUDNAN_clean_linker_2, # of connection points: 2
#     Edge 43, Type (0, 0), BuildingBlock: XUDNAN_clean_linker_2, # of connection points: 2
#     Edge 44, Type (0, 0), BuildingBlock: XUDNAN_clean_linker_2, # of connection points: 2
#     Edge 45, Type (0, 0), BuildingBlock: XUDNAN_clean_linker_2, # of connection points: 2
#     Edge 46, Type (0, 0), BuildingBlock: XUDNAN_clean_linker_2, # of connection points: 2
#     Edge 47, Type (0, 0), BuildingBlock: XUDNAN_clean_linker_2, # of connection points: 2
#     Edge 48, Type (0, 0), BuildingBlock: XUDNAN_clean_linker_2, # of connection points: 2
#     Edge 49, Type (0, 0), BuildingBlock: XUDNAN_clean_linker_2, # of connection points: 2
#     Edge 50, Type (0, 0), BuildingBlock: XUDNAN_clean_linker_2, # of connection points: 2
#     Edge 51, Type (0, 0), BuildingBlock: XUDNAN_clean_linker_2, # of connection points: 2
#     Edge 52, Type (0, 0), BuildingBlock: XUDNAN_clean_linker_2, # of connection points: 2
#     Edge 53, Type (0, 0), BuildingBlock: XUDNAN_clean_linker_2, # of connection points: 2
#     Edge 54, Type (0, 0), BuildingBlock: XUDNAN_clean_linker_2, # of connection points: 2
#     Edge 55, Type (0, 0), BuildingBlock: XUDNAN_clean_linker_2, # of connection points: 2
# Relax obj value: 0.062
# Max RMSD: 0.101
# Mean RMSD: 0.101
data_MOF--net-zff--node1-BEQFEK_clean_sbu_0--edge1-XUDNAN_clean_linker_2
_symmetry_space_group_name_H-M    P1
_symmetry_Int_Tables_number       1
_symmetry_cell_setting            triclinic
loop_
_symmetry_equiv_pos_as_xyz
'x, y, z'
_cell_length_a     36.967917
_cell_length_b     36.989552
_cell_length_c     72.885517
_cell_angle_alpha  89.905847
_cell_angle_beta   90.109304
_cell_angle_gamma 89.950414
loop_
_atom_site_label
_atom_site_type_symbol
_atom_site_fract_x
_atom_site_fract_y
_atom_site_fract_z
_atom_type_partial_charge
Co0 Co 0.04244 0.26772 0.40771 0.0
Co1 Co 0.04661 0.27111 0.36438 0.0
C2 C 0.09762 0.22588 0.38758 0.0
O3 O 0.08422 0.23671 0.40266 0.0
O4 O 0.08472 0.23598 0.37218 0.0
C5 C 0.05898 0.27746 0.44663 0.0
O6 O 0.09244 0.28337 0.44138 0.0
C7 C 0.08675 0.29321 0.33147 0.0
C8 C 0.04351 0.30003 0.31083 0.0
C9 C 0.08026 0.30528 0.31364 0.0
N10 N 0.05518 0.28268 0.33896 0.0
N11 N 0.02957 0.28614 0.3264 0.0
C12 C 0.12226 0.29165 0.34139 0.0
H13 H 0.12387 0.2669 0.34986 0.0
H14 H 0.12459 0.31525 0.35069 0.0
H15 H 0.14529 0.29155 0.33165 0.0
C16 C 0.04834 0.34677 0.40357 0.0
N17 N 0.0487 0.31311 0.39659 0.0
N18 N 0.04926 0.31492 0.37851 0.0
C19 C 0.04878 0.35008 0.3735 0.0
C20 C 0.04866 0.37116 0.3892 0.0
C21 C 0.04313 0.35538 0.42346 0.0
H22 H 0.02101 0.33858 0.42914 0.0
H23 H 0.0684 0.34907 0.43103 0.0
H24 H 0.03645 0.38431 0.42561 0.0
O25 O -0.00251 0.2471 0.39808 0.0
O26 O -0.0025 0.24898 0.36757 0.0
H27 H 0.02507 0.34825 0.34667 0.0
H28 H 0.04024 0.39271 0.35344 0.0
C29 C 0.04634 0.36339 0.35413 0.0
H30 H 0.0726 0.3589 0.34721 0.0
H31 H 0.00228 0.28052 0.32872 0.0
O32 O 0.03481 0.27095 0.43468 0.0
C33 C 0.98203 0.24148 0.38274 0.0
Co34 Co 0.72252 0.04005 0.40782 0.0
Co35 Co 0.71981 0.04021 0.36448 0.0
C36 C 0.76549 0.09267 0.38664 0.0
O37 O 0.75387 0.0811 0.40197 0.0
O38 O 0.75546 0.07857 0.37153 0.0
C39 C 0.71707 0.05804 0.44683 0.0
O40 O 0.71681 0.09202 0.44155 0.0
C41 C 0.69181 0.07803 0.33228 0.0
C42 C 0.69495 0.03732 0.31026 0.0
C43 C 0.68256 0.07198 0.31399 0.0
N44 N 0.70777 0.04814 0.33906 0.0
N45 N 0.7101 0.02408 0.32573 0.0
C46 C 0.68547 0.1114 0.34344 0.0
H47 H 0.70661 0.11416 0.35413 0.0
H48 H 0.65903 0.10918 0.35052 0.0
H49 H 0.68537 0.13586 0.33461 0.0
C50 C 0.64437 0.03744 0.40348 0.0
N51 N 0.67727 0.04454 0.3965 0.0
N52 N 0.67594 0.04254 0.37847 0.0
C53 C 0.64203 0.03338 0.37347 0.0
C54 C 0.62102 0.02973 0.38914 0.0
C55 C 0.63763 0.03016 0.42339 0.0
H56 H 0.6532 0.00592 0.4277 0.0
H57 H 0.6471 0.05352 0.4316 0.0
H58 H 0.60853 0.02554 0.42624 0.0
O59 O 0.74323 0.9946 0.39905 0.0
O60 O 0.74171 0.99121 0.36859 0.0
H61 H 0.65191 0.0031 0.34891 0.0
H62 H 0.6044 0.00937 0.35403 0.0
C63 C 0.63151 0.02214 0.35445 0.0
H64 H 0.63057 0.04632 0.34549 0.0
H65 H 0.72086 -0.00186 0.32737 0.0
O66 O 0.71875 0.03325 0.43483 0.0
C67 C 0.74891 0.97737 0.38425 0.0
Co68 Co 0.95893 0.72758 0.4091 0.0
Co69 Co 0.94742 0.71792 0.36622 0.0
C70 C 0.89569 0.76036 0.38984 0.0
O71 O 0.91281 0.75357 0.40469 0.0
O72 O 0.90634 0.7485 0.37433 0.0
C73 C 0.95724 0.72867 0.4506 0.0
O74 O 0.92211 0.73401 0.45066 0.0
C75 C 0.91466 0.69577 0.33031 0.0
C76 C 0.96258 0.7015 0.31248 0.0
C77 C 0.92616 0.69281 0.31217 0.0
N78 N 0.94313 0.70581 0.34072 0.0
N79 N 0.97162 0.70893 0.32991 0.0
C80 C 0.87712 0.69102 0.33751 0.0
H81 H 0.87406 0.70456 0.35098 0.0
H82 H 0.87173 0.66175 0.3394 0.0
H83 H 0.85704 0.7019 0.32758 0.0
C84 C 0.96628 0.64868 0.40658 0.0
N85 N 0.95734 0.68058 0.39897 0.0
N86 N 0.95313 0.6763 0.38116 0.0
C87 C 0.95985 0.64153 0.37684 0.0
C88 C 0.96862 0.62293 0.39283 0.0
C89 C 0.97485 0.64365 0.4265 0.0
H90 H 0.95346 0.65653 0.4349 0.0
H91 H 0.97669 0.61459 0.4302 0.0
H92 H 0.00094 0.65708 0.42969 0.0
O93 O -0.0011 0.75501 0.39773 0.0
O94 O 0.99168 0.74702 0.36784 0.0
H95 H 0.97263 0.59968 0.35692 0.0
H96 H 0.9371 0.63074 0.35044 0.0
C97 C 0.96354 0.62819 0.35754 0.0
H98 H 0.98337 0.64527 0.35013 0.0
H99 H -0.00271 0.71665 0.33441 0.0
O100 O 0.97387 0.72553 0.43543 0.0
C101 C 0.00912 0.76015 0.38129 0.0
Co102 Co 0.27266 0.95503 0.40631 0.0
Co103 Co 0.28528 0.95593 0.36321 0.0
C104 C 0.22736 0.91074 0.38129 0.0
O105 O 0.2354 0.92033 0.3976 0.0
O106 O 0.24446 0.92294 0.36746 0.0
C107 C 0.26544 0.93477 0.44518 0.0
O108 O 0.25728 0.90223 0.43928 0.0
C109 C 0.30234 0.92015 0.32818 0.0
C110 C 0.32102 0.96566 0.31102 0.0
C111 C 0.31577 0.92855 0.31089 0.0
N112 N 0.29979 0.95083 0.33802 0.0
N113 N 0.31068 0.97797 0.32759 0.0
C114 C 0.29523 0.88334 0.33589 0.0
H115 H 0.29788 0.88364 0.35106 0.0
H116 H 0.31422 0.86323 0.32999 0.0
H117 H 0.26724 0.87514 0.33232 0.0
C118 C 0.35049 0.93793 0.40571 0.0
N119 N 0.31868 0.94299 0.39709 0.0
N120 N 0.32412 0.94369 0.37923 0.0
C121 C 0.3596 0.93868 0.37597 0.0
C122 C 0.37738 0.93472 0.39262 0.0
C123 C 0.35544 0.93979 0.42606 0.0
H124 H 0.33793 0.91929 0.4327 0.0
H125 H 0.384 0.93484 0.43009 0.0
H126 H 0.3469 0.96683 0.43102 0.0
O127 O 0.26045 0.00373 0.39778 0.0
O128 O 0.26859 0.00657 0.36758 0.0
H129 H 0.40674 0.94247 0.3583 0.0
H130 H 0.36785 0.92037 0.34851 0.0
C131 C 0.37679 0.94281 0.3575 0.0
H132 H 0.36794 0.96866 0.35121 0.0
H133 H 0.31181 0.00484 0.33193 0.0
O134 O 0.273 0.95936 0.43362 0.0
C135 C 0.25984 0.02124 0.38276 0.0
Co136 Co 0.03628 0.72475 0.61511 0.0
Co137 Co 0.04047 0.71273 0.6582 0.0
C138 C 0.0943 0.75837 0.63826 0.0
O139 O 0.07971 0.75313 0.6226 0.0
O140 O 0.08168 0.74403 0.65278 0.0
C141 C 0.05647 0.72288 0.57631 0.0
O142 O 0.09001 0.72175 0.58227 0.0
C143 C 0.06776 0.68992 0.69513 0.0
C144 C 0.01724 0.69375 0.71115 0.0
C145 C 0.05373 0.68582 0.71273 0.0
N146 N 0.04063 0.69971 0.68375 0.0
N147 N 0.01057 0.70175 0.69347 0.0
C148 C 0.1064 0.68623 0.68938 0.0
H149 H 0.11107 0.69975 0.67602 0.0
H150 H 0.113 0.65714 0.68783 0.0
H151 H 0.12459 0.69773 0.70001 0.0
C152 C 0.02678 0.64576 0.61692 0.0
N153 N 0.03691 0.67707 0.6248 0.0
N154 N 0.03975 0.67214 0.64266 0.0
C155 C 0.03204 0.63754 0.64664 0.0
C156 C 0.023 0.61985 0.63055 0.0
C157 C 0.01444 0.64275 0.59741 0.0
H158 H 0.9926 0.66272 0.59479 0.0
H159 H 0.03734 0.64931 0.58818 0.0
H160 H 0.00443 0.61522 0.59417 0.0
O161 O 0.99269 0.74952 0.62413 0.0
O162 O 0.99541 0.74035 0.65421 0.0
H163 H 0.00503 0.63619 0.67256 0.0
H164 H 0.02417 0.59326 0.66572 0.0
C165 C 0.02832 0.62297 0.66572 0.0
H166 H 0.05314 0.62914 0.67364 0.0
H167 H 0.98545 0.70914 0.68807 0.0
O168 O 0.03079 0.72403 0.58786 0.0
C169 C 0.97955 0.75323 0.64013 0.0
Co170 Co 0.26473 0.03366 0.612 0.0
Co171 Co 0.27326 0.04447 0.65504 0.0
C172 C 0.22968 0.0954 0.63153 0.0
O173 O 0.23733 0.07877 0.61669 0.0
O174 O 0.24131 0.08473 0.64711 0.0
C175 C 0.26712 0.03625 0.57028 0.0
O176 O 0.26753 0.07176 0.56999 0.0
C177 C 0.29387 0.07571 0.69171 0.0
C178 C 0.28938 0.02639 0.70868 0.0
C179 C 0.29701 0.06294 0.70964 0.0
N180 N 0.28478 0.04776 0.68075 0.0
N181 N 0.28239 0.01845 0.69107 0.0
C182 C 0.29787 0.11386 0.68523 0.0
H183 H 0.28447 0.11763 0.67174 0.0
H184 H 0.32706 0.12009 0.68367 0.0
H185 H 0.28638 0.13285 0.69547 0.0
C186 C 0.34352 0.02619 0.61523 0.0
N187 N 0.31154 0.03625 0.62238 0.0
N188 N 0.31526 0.04109 0.6402 0.0
C189 C 0.34978 0.03418 0.6449 0.0
C190 C 0.36871 0.02417 0.62929 0.0
C191 C 0.34791 0.01237 0.59606 0.0
H192 H 0.33008 0.98858 0.59404 0.0
H193 H 0.33938 0.03366 0.58623 0.0
H194 H 0.37624 0.0045 0.59309 0.0
O195 O 0.2393 0.9922 0.62288 0.0
O196 O 0.24682 -0.00149 0.65285 0.0
H197 H 0.34963 0.00998 0.67156 0.0
H198 H 0.39296 0.02842 0.66483 0.0
C199 C 0.36323 0.03251 0.66427 0.0
H200 H 0.35646 0.05808 0.67137 0.0
H201 H 0.27557 0.9929 0.68611 0.0
O202 O 0.26641 0.0196 0.58556 0.0
C203 C 0.23496 0.98085 0.63918 0.0
Co204 Co 0.95303 0.27232 0.61114 0.0
Co205 Co 0.95026 0.27057 0.65459 0.0
C206 C 0.90104 0.22534 0.63007 0.0
O207 O 0.91348 0.23808 0.6151 0.0
O208 O 0.9136 0.23486 0.64566 0.0
C209 C 0.95635 0.26412 0.57082 0.0
O210 O 0.93717 0.23442 0.57252 0.0
C211 C 0.91174 0.28954 0.68853 0.0
C212 C 0.95564 0.28996 0.7091 0.0
C213 C 0.91918 0.29772 0.70684 0.0
N214 N 0.94251 0.27857 0.68039 0.0
N215 N 0.96851 0.27832 0.69286 0.0
C216 C 0.87607 0.29144 0.6788 0.0
H217 H 0.87456 0.27047 0.66801 0.0
H218 H 0.87324 0.31814 0.67199 0.0
H219 H 0.85337 0.28764 0.68855 0.0
C220 C 0.93965 0.34883 0.61737 0.0
N221 N 0.9433 0.31499 0.62375 0.0
N222 N 0.94426 0.31539 0.64181 0.0
C223 C 0.9421 0.35005 0.64747 0.0
C224 C 0.93877 0.37214 0.63214 0.0
C225 C 0.93883 0.35864 0.59744 0.0
H226 H 0.92145 0.33929 0.58987 0.0
H227 H 0.92846 0.38651 0.59534 0.0
H228 H 0.96664 0.35681 0.5918 0.0
O229 O -0.00109 0.25278 0.62003 0.0
O230 O 0.00025 0.25144 0.65046 0.0
H231 H 0.95916 0.39035 0.66713 0.0
H232 H 0.92257 0.3619 0.67439 0.0
C233 C 0.94849 0.36232 0.66677 0.0
H234 H 0.96801 0.34414 0.67372 0.0
H235 H 0.99539 0.27154 0.69011 0.0
O236 O 0.96328 0.28304 0.58493 0.0
C237 C 0.01537 0.24623 0.63498 0.0
Co238 Co 0.71985 0.95466 0.61238 0.0
Co239 Co 0.7114 0.95621 0.65561 0.0
C240 C 0.7641 0.90688 0.63515 0.0
O241 O 0.75549 0.91651 0.61889 0.0
O242 O 0.74931 0.92102 0.64918 0.0
C243 C 0.72229 0.95076 0.57058 0.0
O244 O 0.73552 0.91779 0.57034 0.0
C245 C 0.68725 0.91753 0.68844 0.0
C246 C 0.68583 0.96048 0.70943 0.0
C247 C 0.67799 0.92423 0.70662 0.0
N248 N 0.69914 0.94848 0.68085 0.0
N249 N 0.69863 0.97396 0.69353 0.0
C250 C 0.68585 0.88223 0.67841 0.0
H251 H 0.70643 0.8815 0.66741 0.0
H252 H 0.65899 0.87905 0.67182 0.0
H253 H 0.69032 0.85928 0.68798 0.0
C254 C 0.6418 0.93988 0.61486 0.0
N255 N 0.67431 0.94502 0.62274 0.0
N256 N 0.67021 0.94801 0.64062 0.0
C257 C 0.63479 0.94539 0.64464 0.0
C258 C 0.61581 0.93959 0.6285 0.0
C259 C 0.63571 0.93745 0.59461 0.0
H260 H 0.65659 0.91976 0.58839 0.0
H261 H 0.60838 0.92672 0.59144 0.0
H262 H 0.63843 0.9648 0.58848 0.0
O263 O 0.73654 0.00132 0.62181 0.0
O264 O 0.73039 0.00589 0.652 0.0
H265 H 0.59126 0.96558 0.66155 0.0
H266 H 0.61644 0.92865 0.67116 0.0
C267 C 0.61877 0.95386 0.66302 0.0
H268 H 0.63606 0.97333 0.67052 0.0
H269 H 0.7062 0.00077 0.69122 0.0
O270 O 0.71518 0.96588 0.5858 0.0
C271 C 0.73934 0.01931 0.63657 0.0
Co272 Co 0.54642 0.76061 0.9084 0.0
Co273 Co 0.54725 0.77937 0.86613 0.0
C274 C 0.60123 0.72852 0.88312 0.0
O275 O 0.58803 0.73223 0.89916 0.0
O276 O 0.58806 0.74532 0.86938 0.0
C277 C 0.56825 0.76181 0.94697 0.0
O278 O 0.60067 0.77023 0.94098 0.0
C279 C 0.57293 0.80652 0.82985 0.0
C280 C 0.52141 0.80634 0.81444 0.0
C281 C 0.55808 0.81299 0.81258 0.0
N282 N 0.54612 0.79645 0.84128 0.0
N283 N 0.51544 0.79672 0.83195 0.0
C284 C 0.61201 0.8078 0.83515 0.0
H285 H 0.61677 0.79309 0.84819 0.0
H286 H 0.62013 0.83639 0.83715 0.0
H287 H 0.62901 0.79619 0.82408 0.0
C288 C 0.54234 0.84036 0.9105 0.0
N289 N 0.54852 0.80987 0.90093 0.0
N290 N 0.54881 0.8177 0.88329 0.0
C291 C 0.5426 0.85332 0.88108 0.0
C292 C 0.5381 0.86883 0.89827 0.0
C293 C 0.5375 0.8417 0.93088 0.0
H294 H 0.56294 0.83294 0.93758 0.0
H295 H 0.53121 0.86935 0.93579 0.0
H296 H 0.51558 0.82294 0.93502 0.0
O297 O 0.50104 0.73923 0.8992 0.0
O298 O 0.50141 0.753 0.86958 0.0
H299 H 0.52744 0.89941 0.8641 0.0
H300 H 0.55867 0.86778 0.85389 0.0
C301 C 0.53464 0.87044 0.86287 0.0
H302 H 0.51184 0.85598 0.85625 0.0
H303 H 0.49041 0.78954 0.83746 0.0
O304 O 0.54288 0.75654 0.93551 0.0
C305 C 0.48629 0.73858 0.88343 0.0
Co306 Co 0.23167 0.53697 0.91174 0.0
Co307 Co 0.2132 0.54223 0.86933 0.0
C308 C 0.26699 0.59154 0.88807 0.0
O309 O 0.26225 0.57823 0.90401 0.0
O310 O 0.25007 0.57941 0.87417 0.0
C311 C 0.22945 0.55492 0.95045 0.0
O312 O 0.22177 0.58771 0.94467 0.0
C313 C 0.18373 0.58047 0.83694 0.0
C314 C 0.178 0.53623 0.81684 0.0
C315 C 0.17199 0.57294 0.81918 0.0
N316 N 0.19537 0.54953 0.84476 0.0
N317 N 0.19215 0.52329 0.83259 0.0
C318 C 0.18486 0.61654 0.84625 0.0
H319 H 0.20607 0.61709 0.85695 0.0
H320 H 0.15858 0.62171 0.85307 0.0
H321 H 0.18991 0.63842 0.83614 0.0
C322 C 0.15146 0.54024 0.91377 0.0
N323 N 0.18266 0.54289 0.9043 0.0
N324 N 0.17511 0.54479 0.88663 0.0
C325 C 0.13899 0.54321 0.88435 0.0
C326 C 0.12296 0.54063 0.90145 0.0
C327 C 0.149 0.5319 0.93384 0.0
H328 H 0.16886 0.51064 0.93754 0.0
H329 H 0.1552 0.55668 0.94177 0.0
H330 H 0.12156 0.52256 0.93774 0.0
O331 O 0.2508 0.49215 0.90077 0.0
O332 O 0.23635 0.494 0.87114 0.0
H333 H 0.13267 0.5189 0.85788 0.0
H334 H 0.09094 0.53602 0.8675 0.0
C335 C 0.12039 0.54089 0.86611 0.0
H336 H 0.12407 0.56667 0.85863 0.0
H337 H 0.19925 0.4964 0.8351 0.0
O338 O 0.23518 0.53011 0.93878 0.0
C339 C 0.25059 0.47794 0.88486 0.0
Co340 Co 0.46013 0.22571 0.90901 0.0
Co341 Co 0.45143 0.20918 0.86644 0.0
C342 C 0.40379 0.26251 0.88732 0.0
O343 O 0.41801 0.25723 0.90309 0.0
O344 O 0.41521 0.24612 0.87311 0.0
C345 C 0.45869 0.23132 0.95053 0.0
O346 O 0.42371 0.23755 0.95051 0.0
C347 C 0.40939 0.18233 0.83463 0.0
C348 C 0.4516 0.17778 0.81336 0.0
C349 C 0.41499 0.17225 0.81641 0.0
N350 N 0.44124 0.19272 0.84192 0.0
N351 N 0.46627 0.19009 0.82908 0.0
C352 C 0.37436 0.18328 0.8449 0.0
H353 H 0.37588 0.20224 0.85659 0.0
H354 H 0.36861 0.15605 0.85058 0.0
H355 H 0.35181 0.19127 0.83567 0.0
C356 C 0.4533 0.14616 0.91048 0.0
N357 N 0.45214 0.17755 0.90112 0.0
N358 N 0.45001 0.17054 0.88343 0.0
C359 C 0.45042 0.13449 0.88098 0.0
C360 C 0.45232 0.11794 0.89802 0.0
C361 C 0.45974 0.14344 0.93071 0.0
H362 H 0.48677 0.15476 0.934 0.0
H363 H 0.43913 0.15971 0.93803 0.0
H364 H 0.45855 0.11505 0.9356 0.0
O365 O 0.50334 0.2449 0.89645 0.0
O366 O 0.5 0.23148 0.86683 0.0
H367 H 0.47312 0.12885 0.85411 0.0
H368 H 0.45646 0.08691 0.8638 0.0
C369 C 0.45161 0.11641 0.86262 0.0
H370 H 0.42539 0.12052 0.85555 0.0
H371 H 0.49348 0.19659 0.83106 0.0
O372 O 0.47511 0.22638 0.93541 0.0
C373 C 0.51676 0.24527 0.88039 0.0
Co374 Co 0.76607 0.45092 0.90874 0.0
Co375 Co 0.78815 0.44544 0.8667 0.0
C376 C 0.73445 0.3945 0.88466 0.0
O377 O 0.7372 0.40866 0.90058 0.0
O378 O 0.75242 0.40646 0.87102 0.0
C379 C 0.7578 0.44612 0.95044 0.0
O380 O 0.75749 0.41061 0.95051 0.0
C381 C 0.81419 0.41298 0.83147 0.0
C382 C 0.8216 0.4627 0.81509 0.0
C383 C 0.82317 0.42537 0.81402 0.0
N384 N 0.80748 0.44183 0.84226 0.0
N385 N 0.81244 0.47137 0.83236 0.0
C386 C 0.80868 0.37459 0.83726 0.0
H387 H 0.80165 0.37295 0.85202 0.0
H388 H 0.83371 0.35882 0.83481 0.0
H389 H 0.78677 0.36235 0.8289 0.0
C390 C 0.84528 0.45051 0.91261 0.0
N391 N 0.81546 0.44582 0.90231 0.0
N392 N 0.82481 0.44478 0.88488 0.0
C393 C 0.86081 0.44947 0.88354 0.0
C394 C 0.87497 0.45352 0.90112 0.0
C395 C 0.8449 0.45483 0.93302 0.0
H396 H 0.82878 0.43272 0.9392 0.0
H397 H 0.87264 0.45401 0.93885 0.0
H398 H 0.83198 0.48097 0.93659 0.0
O399 O 0.74678 0.49489 0.89684 0.0
O400 O 0.76306 0.49256 0.86763 0.0
H401 H 0.90866 0.46291 0.86749 0.0
H402 H 0.87709 0.43213 0.85684 0.0
C403 C 0.87966 0.45635 0.86569 0.0
H404 H 0.86628 0.47926 0.85856 0.0
H405 H 0.80837 0.49756 0.83725 0.0
O406 O 0.76088 0.46315 0.93534 0.0
C407 C 0.74764 0.50871 0.88086 0.0
Co408 Co 0.53243 0.2213 0.11542 0.0
Co409 Co 0.52832 0.21191 0.15865 0.0
C410 C 0.58067 0.26297 0.14041 0.0
O411 O 0.57077 0.25505 0.12413 0.0
O412 O 0.56602 0.24833 0.15433 0.0
C413 C 0.55582 0.22081 0.07666 0.0
O414 O 0.58924 0.22095 0.08282 0.0
C415 C 0.55721 0.18993 0.19518 0.0
C416 C 0.50733 0.19008 0.21177 0.0
C417 C 0.54424 0.18363 0.21286 0.0
N418 N 0.52914 0.19925 0.18429 0.0
N419 N 0.49947 0.19928 0.19436 0.0
C420 C 0.59558 0.18824 0.18875 0.0
H421 H 0.59899 0.20362 0.17581 0.0
H422 H 0.60292 0.15966 0.18604 0.0
H423 H 0.6141 0.19899 0.19943 0.0
C424 C 0.53097 0.14227 0.1177 0.0
N425 N 0.53726 0.17449 0.12566 0.0
N426 N 0.53563 0.17066 0.14363 0.0
C427 C 0.52874 0.13584 0.1476 0.0
C428 C 0.52487 0.11684 0.13134 0.0
C429 C 0.52277 0.13787 0.09771 0.0
H430 H 0.4988 0.1545 0.09407 0.0
H431 H 0.54604 0.14774 0.08955 0.0
H432 H 0.51739 0.10922 0.09413 0.0
O433 O 0.48449 0.23869 0.12259 0.0
O434 O 0.47972 0.23265 0.15284 0.0
H435 H 0.49496 0.13693 0.17142 0.0
H436 H 0.51377 0.09285 0.1664 0.0
C437 C 0.5192 0.12235 0.16636 0.0
H438 H 0.54196 0.12771 0.17586 0.0
H439 H 0.47379 0.20571 0.18933 0.0
O440 O 0.5298 0.22039 0.08802 0.0
C441 C 0.46634 0.24137 0.13732 0.0
Co442 Co 0.7617 0.53284 0.11463 0.0
Co443 Co 0.76785 0.54467 0.15769 0.0
C444 C 0.72253 0.59254 0.13342 0.0
O445 O 0.73185 0.57651 0.11871 0.0
O446 O 0.73358 0.58207 0.14908 0.0
C447 C 0.76142 0.5474 0.07566 0.0
O448 O 0.75714 0.58097 0.08112 0.0
C449 C 0.78983 0.58614 0.19043 0.0
C450 C 0.79438 0.54334 0.21147 0.0
C451 C 0.80015 0.57994 0.20857 0.0
N452 N 0.77958 0.55451 0.18292 0.0
N453 N 0.78179 0.52918 0.19569 0.0
C454 C 0.78881 0.62152 0.1804 0.0
H455 H 0.76584 0.6222 0.17067 0.0
H456 H 0.81404 0.62485 0.17236 0.0
H457 H 0.78604 0.64446 0.19008 0.0
C458 C 0.84123 0.53957 0.11786 0.0
N459 N 0.80786 0.53992 0.12522 0.0
N460 N 0.81049 0.54465 0.1431 0.0
C461 C 0.84574 0.54703 0.14766 0.0
C462 C 0.86622 0.54443 0.13182 0.0
C463 C 0.84878 0.53434 0.09788 0.0
H464 H 0.83437 0.55545 0.08989 0.0
H465 H 0.87814 0.53592 0.09485 0.0
H466 H 0.83817 0.50766 0.09349 0.0
O467 O 0.73826 0.49007 0.12592 0.0
O468 O 0.74438 0.49692 0.15608 0.0
H469 H 0.88873 0.53906 0.16756 0.0
H470 H 0.8574 0.57482 0.17269 0.0
C471 C 0.85987 0.54723 0.16694 0.0
H472 H 0.844 0.52829 0.17551 0.0
H473 H 0.7758 0.50196 0.19346 0.0
O474 O 0.76489 0.52264 0.08767 0.0
C475 C 0.73369 0.47872 0.14227 0.0
Co476 Co 0.45699 0.77324 0.11014 0.0
Co477 Co 0.44886 0.77209 0.1534 0.0
C478 C 0.41056 0.7187 0.12876 0.0
O479 O 0.42405 0.73284 0.11436 0.0
O480 O 0.4173 0.73124 0.14475 0.0
C481 C 0.46256 0.76049 0.07057 0.0
O482 O 0.44532 0.72997 0.07341 0.0
C483 C 0.41144 0.78785 0.18855 0.0
C484 C 0.45822 0.79547 0.20704 0.0
C485 C 0.42084 0.79787 0.20634 0.0
N486 N 0.44196 0.7804 0.1792 0.0
N487 N 0.46971 0.7844 0.19047 0.0
C488 C 0.37471 0.7891 0.17994 0.0
H489 H 0.37691 0.79002 0.16476 0.0
H490 H 0.35938 0.81293 0.18496 0.0
H491 H 0.35957 0.76438 0.18385 0.0
C492 C 0.4359 0.84818 0.11512 0.0
N493 N 0.44049 0.81476 0.1219 0.0
N494 N 0.43882 0.81563 0.13994 0.0
C495 C 0.4337 0.85025 0.14519 0.0
C496 C 0.4315 0.87181 0.1296 0.0
C497 C 0.4398 0.85776 0.09527 0.0
H498 H 0.42426 0.83832 0.08678 0.0
H499 H 0.43003 0.88562 0.09247 0.0
H500 H 0.46872 0.85578 0.09134 0.0
O501 O 0.50435 0.76073 0.11976 0.0
O502 O 0.50072 0.75772 0.15007 0.0
H503 H 0.44191 0.89288 0.16517 0.0
H504 H 0.41148 0.85749 0.17195 0.0
C505 C 0.43697 0.86333 0.16456 0.0
H506 H 0.45946 0.8491 0.17159 0.0
H507 H 0.49669 0.78118 0.18662 0.0
O508 O 0.46736 0.78226 0.08382 0.0
C509 C 0.51886 0.7552 0.13529 0.0
Co510 Co 0.21385 0.44485 0.11379 0.0
Co511 Co 0.22048 0.44816 0.15699 0.0
C512 C 0.24948 0.3859 0.1337 0.0
O513 O 0.23697 0.39797 0.11857 0.0
O514 O 0.24536 0.40311 0.14871 0.0
C515 C 0.2253 0.44912 0.0743 0.0
O516 O 0.25602 0.43231 0.07743 0.0
C517 C 0.20239 0.41988 0.19389 0.0
C518 C 0.21714 0.46613 0.21147 0.0
C519 C 0.20279 0.43149 0.21209 0.0
N520 N 0.21541 0.44662 0.18319 0.0
N521 N 0.22427 0.4741 0.19383 0.0
C522 C 0.19069 0.38389 0.18666 0.0
H523 H 0.20258 0.37878 0.17298 0.0
H524 H 0.16083 0.38366 0.18515 0.0
H525 H 0.19869 0.36198 0.19628 0.0
C526 C 0.13802 0.45942 0.12244 0.0
N527 N 0.17174 0.45077 0.1278 0.0
N528 N 0.17428 0.45357 0.14576 0.0
C529 C 0.14214 0.4647 0.15239 0.0
C530 C 0.11817 0.46874 0.13783 0.0
C531 C 0.12711 0.46407 0.10277 0.0
H532 H 0.14158 0.48771 0.09696 0.0
H533 H 0.13516 0.43978 0.09486 0.0
H534 H 0.09764 0.46855 0.10119 0.0
O535 O 0.24815 0.48314 0.12009 0.0
O536 O 0.25172 0.4901 0.15026 0.0
H537 H 0.15584 0.49341 0.17692 0.0
H538 H 0.10783 0.48483 0.17427 0.0
C539 C 0.13534 0.4737 0.1721 0.0
H540 H 0.13806 0.44883 0.18047 0.0
H541 H 0.23499 0.49843 0.18903 0.0
O542 O 0.20335 0.45415 0.08745 0.0
C543 C 0.26075 0.49939 0.13406 0.0
H544 H 0.94264 0.5579 0.381 0.0
H545 H 0.0348 0.60852 0.40732 0.0
H546 H 0.06569 0.54935 0.40915 0.0
H547 H 0.94514 0.47435 0.40657 0.0
H548 H 0.93284 0.44678 0.38718 0.0
H549 H 0.91772 0.49301 0.38839 0.0
H550 H 0.94677 0.50587 0.35669 0.0
H551 H 0.96215 0.45971 0.35543 0.0
H552 H 0.99409 0.49625 0.35327 0.0
H553 H 0.08629 0.48501 0.40825 0.0
H554 H 0.09537 0.41902 0.4044 0.0
H555 H 0.99086 0.41073 0.37776 0.0
C556 C 0.96928 0.55632 0.38716 0.0
C557 C 0.98634 0.58738 0.3942 0.0
C558 C 0.0212 0.5847 0.40214 0.0
C559 C 0.03898 0.55136 0.40313 0.0
C560 C 0.02154 0.52114 0.396 0.0
C561 C 0.98751 0.52326 0.38815 0.0
C562 C 0.97498 0.48675 0.38134 0.0
C563 C 0.94064 0.47451 0.39148 0.0
C564 C 0.96917 0.48719 0.36044 0.0
C565 C 0.00728 0.46382 0.3866 0.0
C566 C 0.03381 0.48416 0.39508 0.0
C567 C 0.06586 0.4688 0.40152 0.0
C568 C 0.07084 0.43153 0.39927 0.0
C569 C 0.04405 0.41047 0.39055 0.0
C570 C 0.01194 0.42671 0.38416 0.0
H571 H 0.55492 0.05165 0.40131 0.0
H572 H 0.61376 0.95872 0.38096 0.0
H573 H 0.55838 0.92146 0.38321 0.0
H574 H 0.4965 0.00121 0.43358 0.0
H575 H 0.45777 0.02945 0.42897 0.0
H576 H 0.50275 0.04794 0.42729 0.0
H577 H 0.48974 0.06835 0.39386 0.0
H578 H 0.44474 0.05023 0.39551 0.0
H579 H 0.4743 0.03551 0.37735 0.0
H580 H 0.49588 0.89646 0.38454 0.0
H581 H 0.42969 0.88557 0.38474 0.0
H582 H 0.41198 0.9938 0.40538 0.0
C583 C 0.55596 0.02337 0.39752 0.0
C584 C 0.58802 0.00788 0.39077 0.0
C585 C 0.58898 0.97088 0.38593 0.0
C586 C 0.55788 0.94956 0.38731 0.0
C587 C 0.52636 0.96564 0.39381 0.0
C588 C 0.52517 0.00166 0.39891 0.0
C589 C 0.48738 0.01282 0.40441 0.0
C590 C 0.48603 0.02348 0.42478 0.0
C591 C 0.47322 0.04353 0.39204 0.0
C592 C 0.46732 0.97784 0.40101 0.0
C593 C 0.49036 0.95082 0.39509 0.0
C594 C 0.47763 0.91706 0.38956 0.0
C595 C 0.44022 0.91105 0.38973 0.0
C596 C 0.41641 0.93862 0.39547 0.0
C597 C 0.43007 0.97207 0.4015 0.0
H598 H 0.99043 0.41094 0.61475 0.0
H599 H 0.89505 0.42128 0.64878 0.0
H600 H 0.90253 0.48792 0.64892 0.0
H601 H 0.0415 0.4756 0.63745 0.0
H602 H 0.06385 0.49279 0.61728 0.0
H603 H 0.04807 0.44683 0.61779 0.0
H604 H 0.01039 0.45829 0.5883 0.0
H605 H 0.02614 0.5044 0.58768 0.0
H606 H 0.9783 0.49501 0.58775 0.0
H607 H 0.92297 0.55186 0.64724 0.0
H608 H 0.95716 0.60918 0.64566 0.0
H609 H 0.04031 0.55682 0.61338 0.0
C610 C 0.97067 0.42745 0.62181 0.0
C611 C 0.94182 0.41161 0.6315 0.0
C612 C 0.91706 0.43345 0.64117 0.0
C613 C 0.92101 0.4711 0.64121 0.0
C614 C 0.94992 0.48604 0.63156 0.0
C615 C 0.97442 0.4649 0.6221 0.0
C616 C 0.00508 0.48722 0.61435 0.0
C617 C 0.04177 0.47487 0.62219 0.0
C618 C 0.00495 0.48617 0.59327 0.0
C619 C 0.99458 0.52415 0.62138 0.0
C620 C 0.96233 0.52294 0.63099 0.0
C621 C 0.94803 0.55325 0.63962 0.0
C622 C 0.96759 0.5855 0.63871 0.0
C623 C 0.00115 0.58687 0.62946 0.0
C624 C 0.01448 0.55617 0.62037 0.0
H625 H 0.5762 0.98807 0.60902 0.0
H626 H 0.5676 0.89462 0.6446 0.0
H627 H 0.50117 0.9025 0.6458 0.0
H628 H 0.51625 0.04052 0.63231 0.0
H629 H 0.49622 0.06268 0.61272 0.0
H630 H 0.54173 0.04574 0.6114 0.0
H631 H 0.52485 0.00709 0.58304 0.0
H632 H 0.4793 0.02442 0.58404 0.0
H633 H 0.48714 0.97632 0.58432 0.0
H634 H 0.43821 0.92517 0.64665 0.0
H635 H 0.38147 0.96058 0.64654 0.0
H636 H 0.43095 0.04056 0.6111 0.0
C637 C 0.55999 0.96849 0.61639 0.0
C638 C 0.57638 0.94032 0.62642 0.0
C639 C 0.555 0.91595 0.63663 0.0
C640 C 0.51744 0.92023 0.63736 0.0
C641 C 0.50201 0.94905 0.6278 0.0
C642 C 0.52252 0.97263 0.61738 0.0
C643 C 0.4999 0.00374 0.6102 0.0
C644 C 0.5144 0.04031 0.61708 0.0
C645 C 0.49766 0.00282 0.58915 0.0
C646 C 0.46384 0.99471 0.6188 0.0
C647 C 0.46555 0.96276 0.62866 0.0
C648 C 0.43634 0.94992 0.63877 0.0
C649 C 0.40447 0.97028 0.63877 0.0
C650 C 0.40237 0.00315 0.62891 0.0
C651 C 0.43217 0.01535 0.61866 0.0
H652 H 0.5636 0.93529 0.88865 0.0
H653 H 0.47449 0.88133 0.9158 0.0
H654 H 0.44452 0.94025 0.92083 0.0
H655 H 0.56382 0.0178 0.91649 0.0
H656 H 0.5734 0.04656 0.89712 0.0
H657 H 0.5895 0.00057 0.8974 0.0
H658 H 0.55724 0.98867 0.86636 0.0
H659 H 0.54096 0.03454 0.86601 0.0
H660 H 0.50944 -0.00246 0.86431 0.0
H661 H 0.4228 0.00449 0.92137 0.0
H662 H 0.41017 0.06973 0.91638 0.0
H663 H 0.51229 0.08105 0.88793 0.0
C664 C 0.53805 0.93614 0.89589 0.0
C665 C 0.52154 0.90419 0.90218 0.0
C666 C 0.48782 0.90584 0.91129 0.0
C667 C 0.47059 0.93907 0.91414 0.0
C668 C 0.48742 0.9702 0.90765 0.0
C669 C 0.52035 0.96904 0.89868 0.0
C670 C 0.53146 0.00606 0.89195 0.0
C671 C 0.56663 0.01847 0.9013 0.0
C672 C 0.53496 0.00672 0.87091 0.0
C673 C 0.49943 0.02809 0.89832 0.0
C674 C 0.47446 0.00703 0.90752 0.0
C675 C 0.44221 0.02133 0.91428 0.0
C676 C 0.43522 0.05818 0.91141 0.0
C677 C 0.46025 0.07977 0.90174 0.0
C678 C 0.49281 0.06472 0.89532 0.0
H679 H 0.94161 0.42769 0.89185 0.0
H680 H 0.88762 0.5151 0.92038 0.0
H681 H 0.94652 0.54433 0.92621 0.0
H682 H 0.02549 0.4263 0.91958 0.0
H683 H 0.05358 0.41811 0.89983 0.0
H684 H 0.00779 0.40144 0.9003 0.0
H685 H 0.99427 0.4351 0.86981 0.0
H686 H 0.03986 0.45207 0.8693 0.0
H687 H 0.00228 0.48309 0.86835 0.0
H688 H 0.01036 0.56655 0.92667 0.0
H689 H 0.075 0.58071 0.92097 0.0
H690 H 0.08668 0.48049 0.89091 0.0
C691 C 0.94245 0.45263 0.89962 0.0
C692 C 0.91043 0.46895 0.90595 0.0
C693 C 0.91212 0.50183 0.91581 0.0
C694 C 0.94536 0.51868 0.91911 0.0
C695 C 0.9765 0.5023 0.91236 0.0
C696 C 0.97536 0.47002 0.90281 0.0
C697 C 0.01227 0.45976 0.89561 0.0
C698 C 0.02556 0.4243 0.90436 0.0
C699 C 0.01214 0.45738 0.87452 0.0
C700 C 0.03412 0.49169 0.90224 0.0
C701 C 0.01313 0.51571 0.9121 0.0
C702 C 0.02716 0.54786 0.91909 0.0
C703 C 0.06365 0.55575 0.91578 0.0
C704 C 0.08512 0.53177 0.9054 0.0
C705 C 0.07039 0.49923 0.89878 0.0
H706 H 0.49041 0.90733 0.11723 0.0
H707 H 0.38434 0.92375 0.14095 0.0
H708 H 0.39465 0.99008 0.14093 0.0
H709 H 0.53483 0.97202 0.14364 0.0
H710 H 0.56515 0.98667 0.12578 0.0
H711 H 0.54751 0.94136 0.12555 0.0
H712 H 0.52227 0.95159 0.09274 0.0
H713 H 0.53992 -0.00299 0.09284 0.0
H714 H 0.49258 0.98933 0.08836 0.0
H715 H 0.4181 0.05329 0.14004 0.0
H716 H 0.45439 0.10941 0.14031 0.0
H717 H 0.5461 0.05126 0.11807 0.0
C718 C 0.46912 0.92511 0.12201 0.0
C719 C 0.43637 0.91109 0.12879 0.0
C720 C 0.40937 0.93453 0.13552 0.0
C721 C 0.41498 0.972 0.13548 0.0
C722 C 0.44775 0.98512 0.12873 0.0
C723 C 0.47443 0.96237 0.12219 0.0
C724 C 0.5084 0.98291 0.11721 0.0
C725 C 0.54087 0.96997 0.12874 0.0
C726 C 0.51624 0.98004 0.09656 0.0
C727 C 0.49703 0.02076 0.12239 0.0
C728 C 0.46174 0.0215 0.12871 0.0
C729 C 0.44563 0.05311 0.13501 0.0
C730 C 0.46637 0.08469 0.13517 0.0
C731 C 0.50281 0.08412 0.1293 0.0
C732 C 0.51817 0.05207 0.12251 0.0
H733 H 0.90697 0.48846 0.1194 0.0
H734 H 0.91376 0.59539 0.14327 0.0
H735 H 0.98021 0.58878 0.1462 0.0
H736 H 0.96921 0.44767 0.14845 0.0
H737 H 0.98916 0.41845 0.13148 0.0
H738 H 0.94306 0.43328 0.12888 0.0
H739 H 0.95768 0.45966 0.09677 0.0
H740 H 0.00376 0.44436 0.09912 0.0
H741 H 0.99445 0.49126 0.0943 0.0
H742 H 0.04455 0.56852 0.14882 0.0
H743 H 0.10344 0.53662 0.14995 0.0
H744 H 0.05414 0.44208 0.12539 0.0
C745 C 0.92275 0.51082 0.12468 0.0
C746 C 0.90584 0.54264 0.13086 0.0
C747 C 0.92674 0.57106 0.13828 0.0
C748 C 0.9643 0.56749 0.14001 0.0
C749 C 0.98022 0.53531 0.13425 0.0
C750 C 0.9602 0.50757 0.1266 0.0
C751 C 0.98352 0.47486 0.12269 0.0
C752 C 0.97045 0.44162 0.13353 0.0
C753 C 0.98494 0.46709 0.10199 0.0
C754 C 0.01957 0.48823 0.12975 0.0
C755 C 0.01717 0.52327 0.1362 0.0
C756 C 0.04683 0.54115 0.14373 0.0
C757 C 0.07995 0.52281 0.14448 0.0
C758 C 0.08284 0.48699 0.13791 0.0
C759 C 0.05234 0.4695 0.1305 0.0
H760 H 0.07887 0.30522 0.27599 0.0
H761 H 0.13502 0.35267 0.32241 0.0
H762 H 0.175 0.38563 0.30137 0.0
H763 H 0.15597 0.29785 0.24502 0.0
H764 H 0.13044 0.31134 0.22506 0.0
H765 H 0.10822 0.28832 0.24371 0.0
H766 H 0.06218 0.3409 0.2464 0.0
H767 H 0.08414 0.36395 0.22771 0.0
H768 H 0.0785 0.38642 0.24945 0.0
H769 H 0.20784 0.41515 0.2755 0.0
H770 H 0.22899 0.44204 0.24651 0.0
H771 H 0.14821 0.38017 0.21675 0.0
C772 C 0.09997 0.32212 0.28171 0.0
C773 C 0.10497 0.32469 0.30092 0.0
C774 C 0.13202 0.34819 0.30784 0.0
C775 C 0.15461 0.36757 0.29595 0.0
C776 C 0.1494 0.36389 0.27713 0.0
C777 C 0.12251 0.3421 0.27001 0.0
C778 C 0.12107 0.34507 0.24925 0.0
C779 C 0.12943 0.30846 0.24023 0.0
C780 C 0.08429 0.35998 0.24283 0.0
C781 C 0.15124 0.37204 0.24587 0.0
C782 C 0.16741 0.38223 0.26215 0.0
C783 C 0.19547 0.40727 0.26265 0.0
C784 C 0.20723 0.42247 0.24608 0.0
C785 C 0.19094 0.41281 0.22916 0.0
C786 C 0.16241 0.38726 0.22917 0.0
H787 H 0.6051 0.13966 0.21708 0.0
H788 H 0.5263 0.20239 0.24763 0.0
H789 H 0.55453 0.18268 0.27659 0.0
H790 H 0.60878 0.06536 0.24723 0.0
H791 H 0.65673 0.05774 0.24502 0.0
H792 H 0.63186 0.07826 0.22646 0.0
H793 H 0.6752 0.13322 0.22689 0.0
H794 H 0.70042 0.11275 0.24538 0.0
H795 H 0.68215 0.15764 0.24799 0.0
H796 H 0.58783 0.1529 0.30216 0.0
H797 H 0.62561 0.1167 0.3229 0.0
H798 H 0.68615 0.07583 0.27636 0.0
C799 C 0.59441 0.15024 0.22977 0.0
C800 C 0.56374 0.17323 0.22996 0.0
C801 C 0.54979 0.18491 0.24706 0.0
C802 C 0.56571 0.17395 0.26362 0.0
C803 C 0.59572 0.15125 0.26295 0.0
C804 C 0.61014 0.13965 0.24651 0.0
C805 C 0.64187 0.1143 0.24978 0.0
C806 C 0.63434 0.07669 0.24164 0.0
C807 C 0.677 0.13045 0.24205 0.0
C808 C 0.64261 0.11314 0.2706 0.0
C809 C 0.61575 0.13473 0.27787 0.0
C810 C 0.60965 0.13671 0.29668 0.0
C811 C 0.63177 0.11635 0.30843 0.0
C812 C 0.66019 0.09465 0.30143 0.0
C813 C 0.66528 0.09283 0.28219 0.0
H814 H 0.79682 0.57789 0.24615 0.0
H815 H 0.84709 0.63579 0.20108 0.0
H816 H 0.87855 0.67497 0.223 0.0
H817 H 0.78837 0.65462 0.27815 0.0
H818 H 0.80057 0.62781 0.29789 0.0
H819 H 0.77782 0.60705 0.27871 0.0
H820 H 0.82957 0.5601 0.27598 0.0
H821 H 0.85238 0.58063 0.29515 0.0
H822 H 0.87554 0.57561 0.27356 0.0
H823 H 0.90822 0.70496 0.24933 0.0
H824 H 0.93665 0.72219 0.2786 0.0
H825 H 0.87069 0.64317 0.30717 0.0
C826 C 0.81387 0.59933 0.24091 0.0
C827 C 0.8179 0.60484 0.22179 0.0
C828 C 0.84156 0.63231 0.21552 0.0
C829 C 0.86006 0.6545 0.22793 0.0
C830 C 0.85518 0.6486 0.24662 0.0
C831 C 0.83291 0.62155 0.25315 0.0
C832 C 0.83505 0.61899 0.27393 0.0
C833 C 0.79826 0.62764 0.28268 0.0
C834 C 0.84897 0.58162 0.28 0.0
C835 C 0.86249 0.64841 0.27798 0.0
C836 C 0.87336 0.66534 0.262 0.0
C837 C 0.89969 0.69217 0.26196 0.0
C838 C 0.91575 0.70168 0.27866 0.0
C839 C 0.90556 0.68444 0.29524 0.0
C840 C 0.87827 0.65767 0.29488 0.0
H841 H 0.43644 0.85493 0.22843 0.0
H842 H 0.35383 0.77448 0.21786 0.0
H843 H 0.31748 0.79887 0.24359 0.0
H844 H 0.4308 0.85439 0.27724 0.0
H845 H 0.43753 0.90243 0.27952 0.0
H846 H 0.45654 0.87871 0.26026 0.0
H847 H 0.42345 0.92214 0.23787 0.0
H848 H 0.40449 0.94612 0.25707 0.0
H849 H 0.37513 0.92774 0.23966 0.0
H850 H 0.29162 0.8311 0.2717 0.0
H851 H 0.27649 0.87087 0.29791 0.0
H852 H 0.37535 0.93126 0.28897 0.0
C853 C 0.41065 0.84246 0.23151 0.0
C854 C 0.39783 0.81291 0.22112 0.0
C855 C 0.36388 0.79748 0.22548 0.0
C856 C 0.34321 0.811 0.24015 0.0
C857 C 0.35677 0.84016 0.25018 0.0
C858 C 0.38956 0.85592 0.24588 0.0
C859 C 0.39796 0.88733 0.25848 0.0
C860 C 0.43277 0.88027 0.26953 0.0
C861 C 0.40039 0.92294 0.24762 0.0
C862 C 0.36494 0.88669 0.27072 0.0
C863 C 0.34158 0.85913 0.26585 0.0
C864 C 0.3097 0.85279 0.27556 0.0
C865 C 0.30146 0.87531 0.29052 0.0
C866 C 0.32488 0.90394 0.29553 0.0
C867 C 0.35688 0.90966 0.2854 0.0
H868 H 0.17653 0.56965 0.78167 0.0
H869 H 0.125 0.62923 0.82572 0.0
H870 H 0.09424 0.6678 0.8031 0.0
H871 H 0.18747 0.64584 0.7497 0.0
H872 H 0.17655 0.61907 0.72981 0.0
H873 H 0.19771 0.59818 0.74946 0.0
H874 H 0.14545 0.55171 0.75133 0.0
H875 H 0.12422 0.57236 0.73169 0.0
H876 H 0.09944 0.56762 0.75283 0.0
H877 H 0.06549 0.69708 0.77604 0.0
H878 H 0.03974 0.71465 0.7461 0.0
H879 H 0.10789 0.63543 0.71912 0.0
C880 C 0.15921 0.5912 0.78654 0.0
C881 C 0.15442 0.59725 0.80556 0.0
C882 C 0.13076 0.62511 0.81135 0.0
C883 C 0.11272 0.64697 0.79855 0.0
C884 C 0.11829 0.64051 0.77995 0.0
C885 C 0.14086 0.61326 0.77391 0.0
C886 C 0.14025 0.61064 0.75312 0.0
C887 C 0.17773 0.61893 0.74505 0.0
C888 C 0.12651 0.57338 0.74688 0.0
C889 C 0.11333 0.64028 0.74848 0.0
C890 C 0.10125 0.65727 0.76419 0.0
C891 C 0.07504 0.68428 0.76361 0.0
C892 C 0.06051 0.69399 0.74655 0.0
C893 C 0.07223 0.6769 0.73023 0.0
C894 C 0.09922 0.64984 0.73124 0.0
H895 H 0.41787 0.17863 0.77896 0.0
H896 H 0.35531 0.12899 0.82258 0.0
H897 H 0.31437 0.10261 0.79976 0.0
H898 H 0.34229 0.19598 0.74693 0.0
H899 H 0.36851 0.18389 0.72703 0.0
H900 H 0.39053 0.20313 0.74683 0.0
H901 H 0.43367 0.148 0.74851 0.0
H902 H 0.41191 0.1287 0.72871 0.0
H903 H 0.4149 0.10309 0.74972 0.0
H904 H 0.28325 0.07709 0.77256 0.0
H905 H 0.26536 0.05204 0.74259 0.0
H906 H 0.34871 0.11567 0.71597 0.0
C907 C 0.39514 0.16276 0.78373 0.0
C908 C 0.38907 0.15733 0.80273 0.0
C909 C 0.35963 0.13545 0.80831 0.0
C910 C 0.33633 0.11987 0.79537 0.0
C911 C 0.34294 0.126 0.77682 0.0
C912 C 0.37171 0.14675 0.77095 0.0
C913 C 0.37447 0.14653 0.75016 0.0
C914 C 0.36859 0.18466 0.74227 0.0
C915 C 0.41089 0.13062 0.74392 0.0
C916 C 0.34322 0.12172 0.7453 0.0
C917 C 0.32523 0.11058 0.76093 0.0
C918 C 0.29682 0.08597 0.76021 0.0
C919 C 0.28691 0.07185 0.74312 0.0
C920 C 0.30523 0.08233 0.72692 0.0
C921 C 0.33345 0.10803 0.72802 0.0
H922 H 0.86777 0.36657 0.80752 0.0
H923 H 0.79201 0.43987 0.78126 0.0
H924 H 0.80445 0.41146 0.75136 0.0
H925 H 0.93257 0.3687 0.77275 0.0
H926 H 0.94539 0.32177 0.77432 0.0
H927 H 0.92757 0.34463 0.79412 0.0
H928 H 0.87745 0.29612 0.79719 0.0
H929 H 0.89529 0.27292 0.77744 0.0
H930 H 0.8485 0.28664 0.77786 0.0
H931 H 0.82959 0.38042 0.7241 0.0
H932 H 0.86496 0.34775 0.70105 0.0
H933 H 0.92344 0.29189 0.74434 0.0
C934 C 0.85291 0.37572 0.79558 0.0
C935 C 0.82838 0.40498 0.79674 0.0
C936 C 0.8107 0.41732 0.78066 0.0
C937 C 0.8175 0.40129 0.76363 0.0
C938 C 0.84219 0.37291 0.76283 0.0
C939 C 0.85956 0.36004 0.77835 0.0
C940 C 0.88684 0.33096 0.77335 0.0
C941 C 0.92537 0.3422 0.77897 0.0
C942 C 0.87639 0.29449 0.78197 0.0
C943 C 0.88258 0.33016 0.75262 0.0
C944 C 0.85645 0.35441 0.74691 0.0
C945 C 0.84931 0.36049 0.7284 0.0
C946 C 0.86932 0.34127 0.71533 0.0
C947 C 0.89595 0.3158 0.72075 0.0
C948 C 0.90262 0.31042 0.73972 0.0
H949 H 0.61503 0.86012 0.80635 0.0
H950 H 0.54039 0.78747 0.77895 0.0
H951 H 0.56593 0.80495 0.74903 0.0
H952 H 0.60978 0.93004 0.77396 0.0
H953 H 0.6568 0.94268 0.77518 0.0
H954 H 0.63526 0.92212 0.79471 0.0
H955 H 0.68404 0.87181 0.79524 0.0
H956 H 0.70591 0.89237 0.77576 0.0
H957 H 0.69226 0.84564 0.77482 0.0
H958 H 0.59526 0.83371 0.72215 0.0
H959 H 0.62725 0.87156 0.69978 0.0
H960 H 0.68513 0.92455 0.74406 0.0
C961 C 0.60484 0.84708 0.79412 0.0
C962 C 0.57609 0.82196 0.79502 0.0
C963 C 0.56248 0.80668 0.77859 0.0
C964 C 0.5769 0.81631 0.76153 0.0
C965 C 0.60494 0.84136 0.76108 0.0
C966 C 0.61891 0.85651 0.7769 0.0
C967 C 0.64761 0.88444 0.77238 0.0
C968 C 0.63669 0.92204 0.77948 0.0
C969 C 0.68466 0.87286 0.78 0.0
C970 C 0.64699 0.88303 0.75158 0.0
C971 C 0.62235 0.85778 0.74539 0.0
C972 C 0.61537 0.85288 0.72679 0.0
C973 C 0.63414 0.87428 0.71412 0.0
C974 C 0.65993 0.90006 0.72005 0.0
C975 C 0.66618 0.90452 0.73908 0.0
H976 H 0.11935 0.17718 0.36139 0.0
H977 H 0.14702 0.21963 0.4151 0.0
H978 H 0.19856 0.17755 0.41694 0.0
H979 H 0.13452 0.08724 0.37253 0.0
H980 H 0.15283 0.07418 0.35062 0.0
H981 H 0.12183 0.11154 0.35204 0.0
H982 H 0.16886 0.15303 0.3362 0.0
H983 H 0.20014 0.11571 0.33482 0.0
H984 H 0.2136 0.15716 0.34585 0.0
H985 H 0.24187 0.12748 0.41488 0.0
H986 H 0.27224 0.06905 0.41001 0.0
H987 H 0.21719 0.05719 0.35777 0.0
C988 C 0.1368 0.1781 0.37333 0.0
C989 C 0.12938 0.20175 0.38806 0.0
C990 C 0.15221 0.20167 0.40367 0.0
C991 C 0.18175 0.17812 0.40477 0.0
C992 C 0.18806 0.15477 0.39016 0.0
C993 C 0.16621 0.15435 0.37476 0.0
C994 C 0.17652 0.12365 0.36202 0.0
C995 C 0.14453 0.09762 0.35915 0.0
C996 C 0.19063 0.13827 0.34363 0.0
C997 C 0.20665 0.10609 0.37303 0.0
C998 C 0.21327 0.12507 0.38902 0.0
C999 C 0.23746 0.11272 0.40227 0.0
C1000 C 0.2545 0.07949 0.3994 0.0
C1001 C 0.24724 0.05895 0.38345 0.0
C1002 C 0.22388 0.07291 0.36983 0.0
H1003 H 0.94739 0.19475 0.35879 0.0
H1004 H 0.93237 0.25757 0.40846 0.0
H1005 H 0.87201 0.23118 0.41253 0.0
H1006 H 0.84989 0.1965 0.34365 0.0
H1007 H 0.85154 0.15046 0.33564 0.0
H1008 H 0.89156 0.17824 0.33479 0.0
H1009 H 0.92655 0.13013 0.35365 0.0
H1010 H 0.88669 0.10235 0.35463 0.0
H1011 H 0.90898 0.1158 0.37554 0.0
H1012 H 0.81811 0.19315 0.41399 0.0
H1013 H 0.77161 0.14566 0.41216 0.0
H1014 H 0.81897 0.10678 0.36143 0.0
C1015 C 0.93085 0.20359 0.37019 0.0
C1016 C 0.94444 0.22821 0.38329 0.0
C1017 C 0.92249 0.23861 0.3983 0.0
C1018 C 0.88806 0.22396 0.40069 0.0
C1019 C 0.87578 0.19894 0.38793 0.0
C1020 C 0.89621 0.18889 0.37289 0.0
C1021 C 0.87756 0.1589 0.36227 0.0
C1022 C 0.86701 0.17181 0.34294 0.0
C1023 C 0.90137 0.12478 0.36149 0.0
C1024 C 0.84433 0.15296 0.37412 0.0
C1025 C 0.8438 0.17672 0.38871 0.0
C1026 C 0.81772 0.17481 0.40243 0.0
C1027 C 0.79157 0.14764 0.40134 0.0
C1028 C 0.79158 0.12281 0.3866 0.0
C1029 C 0.81794 0.12592 0.37264 0.0
H1030 H 0.87369 0.80709 0.36299 0.0
H1031 H 0.84929 0.77135 0.41833 0.0
H1032 H 0.80252 0.81875 0.42076 0.0
H1033 H 0.8706 0.89787 0.37256 0.0
H1034 H 0.85076 0.91218 0.35113 0.0
H1035 H 0.87713 0.87135 0.35209 0.0
H1036 H 0.82334 0.83496 0.33878 0.0
H1037 H 0.7968 0.87583 0.33762 0.0
H1038 H 0.77988 0.83705 0.34991 0.0
H1039 H 0.76497 0.87331 0.41891 0.0
H1040 H 0.73916 0.93346 0.41349 0.0
H1041 H 0.78855 0.93659 0.35949 0.0
C1042 C 0.8576 0.80851 0.37537 0.0
C1043 C 0.86464 0.78532 0.39041 0.0
C1044 C 0.84405 0.78872 0.40664 0.0
C1045 C 0.81736 0.81542 0.40809 0.0
C1046 C 0.81179 0.83854 0.39323 0.0
C1047 C 0.83124 0.83544 0.37715 0.0
C1048 C 0.82301 0.86652 0.36416 0.0
C1049 C 0.85742 0.88825 0.35974 0.0
C1050 C 0.80466 0.85276 0.34657 0.0
C1051 C 0.79692 0.8883 0.37575 0.0
C1052 C 0.79042 0.87114 0.3923 0.0
C1053 C 0.76942 0.88679 0.40592 0.0
C1054 C 0.75512 0.92114 0.40272 0.0
C1055 C 0.76198 0.93978 0.38607 0.0
C1056 C 0.78252 0.92278 0.37223 0.0
H1057 H 0.0518 0.79553 0.40637 0.0
H1058 H 0.04157 0.77228 0.34815 0.0
H1059 H 0.09737 0.80664 0.34217 0.0
H1060 H 0.08392 0.88623 0.40118 0.0
H1061 H 0.11473 0.88359 0.42033 0.0
H1062 H 0.07434 0.85643 0.42015 0.0
H1063 H 0.11308 0.79868 0.42469 0.0
H1064 H 0.15364 0.82564 0.42481 0.0
H1065 H 0.14904 0.78888 0.40877 0.0
H1066 H 0.15334 0.84362 0.34234 0.0
H1067 H 0.20563 0.8828 0.34841 0.0
H1068 H 0.17982 0.88242 0.40658 0.0
C1069 C 0.06129 0.79758 0.39236 0.0
C1070 C 0.04231 0.78116 0.37773 0.0
C1071 C 0.0556 0.78464 0.35959 0.0
C1072 C 0.08732 0.80401 0.35604 0.0
C1073 C 0.10538 0.81974 0.37078 0.0
C1074 C 0.09287 0.81688 0.38856 0.0
C1075 C 0.11709 0.83702 0.40184 0.0
C1076 C 0.09627 0.86764 0.41143 0.0
C1077 C 0.13423 0.81099 0.41585 0.0
C1078 C 0.14508 0.85179 0.38869 0.0
C1079 C 0.13782 0.84133 0.37087 0.0
C1080 C 0.1594 0.85196 0.35623 0.0
C1081 C 0.18908 0.87424 0.35986 0.0
C1082 C 0.19691 0.88572 0.378 0.0
C1083 C 0.17468 0.87402 0.39259 0.0
H1084 H 0.19629 0.94079 0.6144 0.0
H1085 H 0.23536 0.94045 0.67065 0.0
H1086 H 0.20937 0.87973 0.67518 0.0
H1087 H 0.11226 0.89916 0.62385 0.0
H1088 H 0.11111 0.87352 0.60284 0.0
H1089 H 0.13516 0.91574 0.60371 0.0
H1090 H 0.19327 0.88334 0.59251 0.0
H1091 H 0.16945 0.84086 0.59185 0.0
H1092 H 0.2104 0.84502 0.60514 0.0
H1093 H 0.17778 0.82053 0.67401 0.0
H1094 H 0.13684 0.76931 0.66839 0.0
H1095 H 0.11739 0.80838 0.61299 0.0
C1096 C 0.19958 0.92788 0.62764 0.0
C1097 C 0.21796 0.94529 0.64216 0.0
C1098 C 0.2213 0.92767 0.65935 0.0
C1099 C 0.20693 0.89306 0.66201 0.0
C1100 C 0.1893 0.87654 0.64736 0.0
C1101 C 0.18521 0.89347 0.63057 0.0
C1102 C 0.16289 0.87083 0.6175 0.0
C1103 C 0.12831 0.89101 0.61164 0.0
C1104 C 0.18536 0.85933 0.60076 0.0
C1105 C 0.15442 0.83883 0.62971 0.0
C1106 C 0.17046 0.84243 0.64676 0.0
C1107 C 0.16522 0.81726 0.66069 0.0
C1108 C 0.14191 0.78825 0.65734 0.0
C1109 C 0.12386 0.78487 0.64025 0.0
C1110 C 0.13111 0.80995 0.6261 0.0
H1111 H 0.18162 0.11713 0.65775 0.0
H1112 H 0.22061 0.14252 0.60312 0.0
H1113 H 0.1745 0.19051 0.60035 0.0
H1114 H 0.09114 0.12314 0.6469 0.0
H1115 H 0.07649 0.14253 0.66831 0.0
H1116 H 0.11657 0.115 0.66764 0.0
H1117 H 0.15389 0.16714 0.68191 0.0
H1118 H 0.11378 0.19487 0.68273 0.0
H1119 H 0.15364 0.21103 0.67112 0.0
H1120 H 0.12102 0.22972 0.60178 0.0
H1121 H 0.06117 0.2568 0.60655 0.0
H1122 H 0.0542 0.20536 0.66004 0.0
C1123 C 0.18111 0.13361 0.64545 0.0
C1124 C 0.20487 0.12655 0.63071 0.0
C1125 C 0.20273 0.14772 0.61458 0.0
C1126 C 0.17681 0.17512 0.61294 0.0
C1127 C 0.15317 0.18084 0.62753 0.0
C1128 C 0.15496 0.16071 0.64348 0.0
C1129 C 0.12354 0.16938 0.65612 0.0
C1130 C 0.10059 0.1355 0.65995 0.0
C1131 C 0.13703 0.18664 0.67403 0.0
C1132 C 0.10311 0.19654 0.64445 0.0
C1133 C 0.12121 0.20318 0.62819 0.0
C1134 C 0.1068 0.22516 0.61454 0.0
C1135 C 0.07265 0.24023 0.61737 0.0
C1136 C 0.053 0.23311 0.63367 0.0
C1137 C 0.06883 0.21166 0.64758 0.0
H1138 H 0.78286 0.05584 0.66099 0.0
H1139 H 0.72892 0.06525 0.60826 0.0
H1140 H 0.76015 0.1228 0.6025 0.0
H1141 H 0.78638 0.15601 0.67122 0.0
H1142 H 0.83077 0.15229 0.68132 0.0
H1143 H 0.79948 0.11505 0.68292 0.0
H1144 H 0.84721 0.07282 0.6682 0.0
H1145 H 0.87842 0.10991 0.66633 0.0
H1146 H 0.86612 0.08449 0.64619 0.0
H1147 H 0.80314 0.1729 0.60001 0.0
H1148 H 0.85344 0.21631 0.6019 0.0
H1149 H 0.8801 0.17631 0.65634 0.0
C1150 C 0.77674 0.0708 0.64858 0.0
C1151 C 0.75342 0.05636 0.63511 0.0
C1152 C 0.74674 0.07598 0.61875 0.0
C1153 C 0.76423 0.10872 0.61537 0.0
C1154 C 0.78823 0.12158 0.62852 0.0
C1155 C 0.79428 0.10362 0.64491 0.0
C1156 C 0.82409 0.12179 0.65583 0.0
C1157 C 0.80928 0.13721 0.67389 0.0
C1158 C 0.85583 0.09569 0.65933 0.0
C1159 C 0.83463 0.15175 0.64267 0.0
C1160 C 0.81332 0.15123 0.62709 0.0
C1161 C 0.81959 0.17417 0.61229 0.0
C1162 C 0.84841 0.19851 0.61343 0.0
C1163 C 0.87053 0.19975 0.62929 0.0
C1164 C 0.86327 0.17629 0.64416 0.0
H1165 H 0.94193 0.79202 0.61418 0.0
H1166 H 0.93876 0.75794 0.67126 0.0
H1167 H 0.88101 0.79017 0.67524 0.0
H1168 H 0.90819 0.88041 0.62157 0.0
H1169 H 0.88195 0.88203 0.60071 0.0
H1170 H 0.92191 0.85429 0.6019 0.0
H1171 H 0.88424 0.79833 0.59237 0.0
H1172 H 0.84407 0.82589 0.5912 0.0
H1173 H 0.84482 0.78611 0.60552 0.0
H1174 H 0.82583 0.82757 0.67362 0.0
H1175 H 0.7767 0.87028 0.66691 0.0
H1176 H 0.81499 0.88093 0.61081 0.0
C1177 C 0.92896 0.79106 0.62748 0.0
C1178 C 0.94484 0.77239 0.64241 0.0
C1179 C 0.92716 0.7721 0.65963 0.0
C1180 C 0.89426 0.79016 0.66202 0.0
C1181 C 0.87944 0.80834 0.64705 0.0
C1182 C 0.89614 0.80907 0.63013 0.0
C1183 C 0.87518 0.83213 0.61658 0.0
C1184 C 0.89818 0.86411 0.6098 0.0
C1185 C 0.86125 0.80924 0.60046 0.0
C1186 C 0.84439 0.84474 0.62866 0.0
C1187 C 0.84732 0.83034 0.64612 0.0
C1188 C 0.82307 0.83888 0.65998 0.0
C1189 C 0.7953 0.86329 0.65601 0.0
C1190 C 0.79202 0.87901 0.63832 0.0
C1191 C 0.81661 0.86912 0.6244 0.0
H1192 H 0.62808 0.67913 0.90768 0.0
H1193 H 0.63888 0.71606 0.85136 0.0
H1194 H 0.681 0.66581 0.8451 0.0
H1195 H 0.72224 0.64669 0.91344 0.0
H1196 H 0.70809 0.60852 0.92704 0.0
H1197 H 0.68245 0.64996 0.9276 0.0
H1198 H 0.62467 0.61455 0.91851 0.0
H1199 H 0.65016 0.57315 0.9177 0.0
H1200 H 0.62473 0.58769 0.89789 0.0
H1201 H 0.71696 0.60807 0.84416 0.0
H1202 H 0.74594 0.54859 0.84901 0.0
H1203 H 0.71094 0.5498 0.90588 0.0
C1204 C 0.63994 0.67724 0.89414 0.0
C1205 C 0.6302 0.70161 0.88003 0.0
C1206 C 0.64595 0.69777 0.86242 0.0
C1207 C 0.66994 0.66933 0.85872 0.0
C1208 C 0.67804 0.64512 0.8728 0.0
C1209 C 0.66379 0.64901 0.89021 0.0
C1210 C 0.67487 0.61806 0.9026 0.0
C1211 C 0.69832 0.63163 0.91861 0.0
C1212 C 0.64163 0.59714 0.90957 0.0
C1213 C 0.69681 0.59569 0.88931 0.0
C1214 C 0.6986 0.61184 0.87223 0.0
C1215 C 0.71612 0.59536 0.85754 0.0
C1216 C 0.73236 0.56151 0.86041 0.0
C1217 C 0.73076 0.5445 0.87782 0.0
C1218 C 0.71284 0.56207 0.89241 0.0
H1219 H 0.44892 0.69856 0.90882 0.0
H1220 H 0.44285 0.73945 0.85297 0.0
H1221 H 0.38331 0.71045 0.84919 0.0
H1222 H 0.41104 0.61302 0.89951 0.0
H1223 H 0.38654 0.61 0.92081 0.0
H1224 H 0.42743 0.63623 0.9196 0.0
H1225 H 0.39279 0.69238 0.93155 0.0
H1226 H 0.35168 0.66633 0.9327 0.0
H1227 H 0.35286 0.70768 0.91959 0.0
H1228 H 0.3264 0.67484 0.85082 0.0
H1229 H 0.27676 0.63239 0.85723 0.0
H1230 H 0.31968 0.61438 0.91204 0.0
C1231 C 0.43496 0.70173 0.89584 0.0
C1232 C 0.45053 0.72136 0.88121 0.0
C1233 C 0.4315 0.72452 0.86438 0.0
C1234 C 0.39758 0.70832 0.86212 0.0
C1235 C 0.38307 0.68914 0.87681 0.0
C1236 C 0.40114 0.68565 0.89333 0.0
C1237 C 0.38043 0.66189 0.90658 0.0
C1238 C 0.40268 0.6283 0.91193 0.0
C1239 C 0.36874 0.68337 0.92361 0.0
C1240 C 0.34821 0.65198 0.89478 0.0
C1241 C 0.35012 0.66833 0.87774 0.0
C1242 C 0.32442 0.66208 0.86416 0.0
C1243 C 0.29635 0.63787 0.86794 0.0
C1244 C 0.2943 0.62007 0.88516 0.0
C1245 C 0.32026 0.62785 0.89884 0.0
H1246 H 0.38069 0.31443 0.91172 0.0
H1247 H 0.36092 0.27155 0.85715 0.0
H1248 H 0.31636 0.31964 0.85143 0.0
H1249 H 0.28643 0.34418 0.9206 0.0
H1250 H 0.30102 0.38435 0.93245 0.0
H1251 H 0.32856 0.34414 0.93309 0.0
H1252 H 0.38295 0.38077 0.92057 0.0
H1253 H 0.35553 0.42094 0.91975 0.0
H1254 H 0.37813 0.40542 0.89934 0.0
H1255 H 0.27864 0.37542 0.85028 0.0
H1256 H 0.24836 0.43436 0.85444 0.0
H1257 H 0.29206 0.44081 0.90973 0.0
C1258 C 0.36641 0.31469 0.89873 0.0
C1259 C 0.37434 0.28919 0.88491 0.0
C1260 C 0.35543 0.29081 0.86797 0.0
C1261 C 0.32994 0.31798 0.86457 0.0
C1262 C 0.32346 0.34325 0.87827 0.0
C1263 C 0.34086 0.34174 0.89507 0.0
C1264 C 0.33044 0.37353 0.907 0.0
C1265 C 0.31041 0.36078 0.92431 0.0
C1266 C 0.36375 0.39651 0.91194 0.0
C1267 C 0.30529 0.39354 0.89408 0.0
C1268 C 0.30142 0.37549 0.87763 0.0
C1269 C 0.28103 0.38962 0.8632 0.0
C1270 C 0.26408 0.42318 0.86566 0.0
C1271 C 0.2677 0.44216 0.88242 0.0
C1272 C 0.28842 0.42686 0.8968 0.0
H1273 H 0.68389 0.36805 0.90872 0.0
H1274 H 0.72382 0.35592 0.85305 0.0
H1275 H 0.67454 0.31306 0.84638 0.0
H1276 H 0.6531 0.27353 0.91466 0.0
H1277 H 0.61397 0.28722 0.92763 0.0
H1278 H 0.65481 0.31373 0.92859 0.0
H1279 H 0.61857 0.3705 0.9186 0.0
H1280 H 0.57777 0.34415 0.91743 0.0
H1281 H 0.59263 0.36931 0.89764 0.0
H1282 H 0.61732 0.27644 0.84479 0.0
H1283 H 0.55804 0.24667 0.84901 0.0
H1284 H 0.55633 0.28275 0.9057 0.0
C1285 C 0.68282 0.3558 0.89525 0.0
C1286 C 0.70777 0.3654 0.88143 0.0
C1287 C 0.70504 0.34904 0.86389 0.0
C1288 C 0.67716 0.32459 0.85995 0.0
C1289 C 0.65239 0.31657 0.87372 0.0
C1290 C 0.65518 0.33138 0.89108 0.0
C1291 C 0.62391 0.31998 0.90311 0.0
C1292 C 0.63725 0.29726 0.91946 0.0
C1293 C 0.60193 0.35295 0.90956 0.0
C1294 C 0.60265 0.29724 0.88966 0.0
C1295 C 0.61957 0.29537 0.87282 0.0
C1296 C 0.60403 0.2773 0.858 0.0
C1297 C 0.5703 0.26062 0.8605 0.0
C1298 C 0.55256 0.26225 0.87769 0.0
C1299 C 0.56923 0.28069 0.89242 0.0
H1300 H 0.60947 0.31079 0.1154 0.0
H1301 H 0.61478 0.27848 0.17269 0.0
H1302 H 0.65737 0.32805 0.17891 0.0
H1303 H 0.70485 0.33922 0.11135 0.0
H1304 H 0.6938 0.37692 0.09667 0.0
H1305 H 0.66621 0.33678 0.09628 0.0
H1306 H 0.60948 0.37557 0.10326 0.0
H1307 H 0.63689 0.41573 0.10379 0.0
H1308 H 0.60918 0.4042 0.12326 0.0
H1309 H 0.69508 0.3837 0.17965 0.0
H1310 H 0.72727 0.4412 0.17453 0.0
H1311 H 0.69805 0.43735 0.11679 0.0
C1312 C 0.62011 0.31373 0.12917 0.0
C1313 C 0.60874 0.29074 0.14354 0.0
C1314 C 0.62296 0.29579 0.16144 0.0
C1315 C 0.64728 0.32382 0.16513 0.0
C1316 C 0.65728 0.34648 0.15077 0.0
C1317 C 0.6444 0.34166 0.13312 0.0
C1318 C 0.65809 0.37103 0.12041 0.0
C1319 C 0.68217 0.35502 0.10528 0.0
C1320 C 0.62653 0.39292 0.11221 0.0
C1321 C 0.67998 0.39344 0.13378 0.0
C1322 C 0.67931 0.37868 0.15119 0.0
C1323 C 0.69619 0.39536 0.16603 0.0
C1324 C 0.71427 0.42808 0.163 0.0
C1325 C 0.7153 0.44375 0.14525 0.0
C1326 C 0.69807 0.42594 0.13048 0.0
H1327 H 0.55325 0.71227 0.16078 0.0
H1328 H 0.56938 0.76938 0.10939 0.0
H1329 H 0.62785 0.73883 0.10532 0.0
H1330 H 0.6532 0.70853 0.17426 0.0
H1331 H 0.6479 0.66384 0.18377 0.0
H1332 H 0.61093 0.69563 0.18467 0.0
H1333 H 0.56967 0.64906 0.16838 0.0
H1334 H 0.60651 0.61743 0.16711 0.0
H1335 H 0.58318 0.63098 0.14647 0.0
H1336 H 0.67667 0.69381 0.10329 0.0
H1337 H 0.71785 0.64136 0.10549 0.0
H1338 H 0.67288 0.61458 0.15874 0.0
C1339 C 0.56988 0.71943 0.14911 0.0
C1340 C 0.55686 0.74312 0.13541 0.0
C1341 C 0.57885 0.75119 0.12004 0.0
C1342 C 0.61217 0.73407 0.11761 0.0
C1343 C 0.6234 0.70931 0.13081 0.0
C1344 C 0.60341 0.7025 0.14648 0.0
C1345 C 0.62007 0.672 0.15756 0.0
C1346 C 0.63385 0.68584 0.17617 0.0
C1347 C 0.59326 0.64052 0.16001 0.0
C1348 C 0.65118 0.66158 0.14514 0.0
C1349 C 0.65275 0.68366 0.12986 0.0
C1350 C 0.67651 0.67694 0.11543 0.0
C1351 C 0.69949 0.64695 0.1167 0.0
C1352 C 0.69867 0.6243 0.13234 0.0
C1353 C 0.67452 0.632 0.14681 0.0
H1354 H 0.28512 0.5513 0.15865 0.0
H1355 H 0.29306 0.5165 0.10182 0.0
H1356 H 0.33159 0.5685 0.09489 0.0
H1357 H 0.28065 0.6462 0.14909 0.0
H1358 H 0.30802 0.65972 0.16839 0.0
H1359 H 0.28171 0.6188 0.16957 0.0
H1360 H 0.33945 0.58209 0.17735 0.0
H1361 H 0.36589 0.62295 0.17634 0.0
H1362 H 0.37804 0.58473 0.16232 0.0
H1363 H 0.36633 0.62427 0.09322 0.0
H1364 H 0.39979 0.68078 0.09729 0.0
H1365 H 0.37179 0.6813 0.15524 0.0
C1366 C 0.2953 0.5545 0.14482 0.0
C1367 C 0.28585 0.52982 0.13078 0.0
C1368 C 0.2996 0.53505 0.11282 0.0
C1369 C 0.3216 0.56454 0.10869 0.0
C1370 C 0.32982 0.58864 0.12266 0.0
C1371 C 0.31749 0.58403 0.14039 0.0
C1372 C 0.33044 0.61463 0.15263 0.0
C1373 C 0.29828 0.6361 0.16037 0.0
C1374 C 0.35492 0.60023 0.16807 0.0
C1375 C 0.35174 0.63699 0.1389 0.0
C1376 C 0.35074 0.62134 0.12172 0.0
C1377 C 0.36757 0.6368 0.10661 0.0
C1378 C 0.38642 0.66907 0.10909 0.0
C1379 C 0.38853 0.6856 0.1266 0.0
C1380 C 0.37076 0.66932 0.1417 0.0
H1381 H 0.29655 0.36335 0.16041 0.0
H1382 H 0.25665 0.33651 0.10605 0.0
H1383 H 0.30352 0.28947 0.10334 0.0
H1384 H 0.38539 0.36005 0.14988 0.0
H1385 H 0.40131 0.34054 0.17109 0.0
H1386 H 0.36015 0.36641 0.17078 0.0
H1387 H 0.32504 0.31239 0.18469 0.0
H1388 H 0.36631 0.28637 0.18531 0.0
H1389 H 0.32702 0.26886 0.17366 0.0
H1390 H 0.36001 0.25433 0.10396 0.0
H1391 H 0.42166 0.23076 0.10836 0.0
H1392 H 0.4259 0.27931 0.16248 0.0
C1393 C 0.2968 0.34666 0.14822 0.0
C1394 C 0.27283 0.35348 0.13347 0.0
C1395 C 0.27464 0.3317 0.11755 0.0
C1396 C 0.30109 0.30481 0.11591 0.0
C1397 C 0.32532 0.29987 0.13037 0.0
C1398 C 0.32321 0.31984 0.14633 0.0
C1399 C 0.35513 0.31217 0.15886 0.0
C1400 C 0.37676 0.34685 0.16287 0.0
C1401 C 0.34262 0.29385 0.17669 0.0
C1402 C 0.37646 0.28623 0.14701 0.0
C1403 C 0.3584 0.27912 0.13077 0.0
C1404 C 0.37405 0.25896 0.11678 0.0
C1405 C 0.40919 0.24597 0.11936 0.0
C1406 C 0.42838 0.25317 0.1358 0.0
C1407 C 0.41151 0.2729 0.14995 0.0
H1408 H 0.00205 0.24481 0.46397 0.0
H1409 H 0.09287 0.3167 0.47335 0.0
H1410 H 0.07448 0.32336 0.50579 0.0
H1411 H 0.93793 0.28889 0.49363 0.0
H1412 H 0.91852 0.24729 0.50193 0.0
H1413 H 0.93794 0.24921 0.4793 0.0
H1414 H 0.98032 0.19564 0.48738 0.0
H1415 H 0.96087 0.1934 0.50998 0.0
H1416 H 0.00906 0.19857 0.50733 0.0
H1417 H 0.04526 0.32344 0.53685 0.0
H1418 H 0.01162 0.31185 0.56539 0.0
H1419 H 0.94182 0.23668 0.53641 0.0
C1420 C 0.01798 0.26205 0.47286 0.0
C1421 C 0.04877 0.28046 0.46617 0.0
C1422 C 0.06926 0.30232 0.47823 0.0
C1423 C 0.05889 0.30642 0.49663 0.0
C1424 C 0.02828 0.28805 0.50277 0.0
C1425 C 0.00842 0.26587 0.49133 0.0
C1426 C 0.97774 0.24773 0.50161 0.0
C1427 C 0.94085 0.25896 0.49364 0.0
C1428 C 0.98229 0.20639 0.50157 0.0
C1429 C 0.98338 0.26325 0.52063 0.0
C1430 C 0.01237 0.28683 0.52091 0.0
C1431 C 0.02264 0.30489 0.53682 0.0
C1432 C 0.00321 0.2982 0.55296 0.0
C1433 C 0.97411 0.27323 0.55319 0.0
C1434 C 0.96397 0.25582 0.53671 0.0
H1435 H 0.73053 0.92809 0.53462 0.0
H1436 H 0.70373 0.02194 0.56772 0.0
H1437 H 0.69859 0.05893 0.5398 0.0
H1438 H 0.78421 0.97434 0.50146 0.0
H1439 H 0.76825 0.94837 0.48217 0.0
H1440 H 0.76893 0.92851 0.50474 0.0
H1441 H 0.70056 0.91403 0.50206 0.0
H1442 H 0.69971 0.93376 0.47944 0.0
H1443 H 0.66912 0.94991 0.49683 0.0
H1444 H 0.69912 0.08687 0.50858 0.0
H1445 H 0.70249 0.10298 0.47573 0.0
H1446 H 0.72704 0.99117 0.46254 0.0
C1447 C 0.72337 0.95635 0.53598 0.0
C1448 C 0.71763 0.972 0.55343 0.0
C1449 C 0.70825 0.00915 0.55456 0.0
C1450 C 0.70528 0.03052 0.53876 0.0
C1451 C 0.71144 0.01441 0.52183 0.0
C1452 C 0.71997 0.97814 0.52027 0.0
C1453 C 0.72528 0.96774 0.50033 0.0
C1454 C 0.76397 0.95393 0.49699 0.0
C1455 C 0.69698 0.9397 0.49431 0.0
C1456 C 0.71892 0.00392 0.49104 0.0
C1457 C 0.71101 0.03047 0.5037 0.0
C1458 C 0.70503 0.06627 0.49849 0.0
C1459 C 0.70709 0.07519 0.47981 0.0
C1460 C 0.71489 0.04839 0.46654 0.0
C1461 C 0.72077 0.01228 0.47232 0.0
H1462 H 0.98987 0.72701 0.55944 0.0
H1463 H 0.10478 0.71826 0.54794 0.0
H1464 H 0.09156 0.7181 0.51474 0.0
H1465 H 0.95928 0.66928 0.52264 0.0
H1466 H 0.91976 0.69619 0.5177 0.0
H1467 H 0.93814 0.69518 0.5406 0.0
H1468 H 0.94347 0.765 0.54031 0.0
H1469 H 0.92512 0.76624 0.51741 0.0
H1470 H 0.96829 0.78687 0.52215 0.0
H1471 H 0.06611 0.71891 0.48288 0.0
H1472 H 0.03045 0.72168 0.45437 0.0
H1473 H 0.9317 0.73075 0.48627 0.0
C1474 C 0.0123 0.725 0.54995 0.0
C1475 C 0.04844 0.72262 0.55635 0.0
C1476 C 0.07691 0.7201 0.54343 0.0
C1477 C 0.06967 0.71997 0.52452 0.0
C1478 C 0.0338 0.7224 0.51871 0.0
C1479 C 0.00556 0.72493 0.53102 0.0
C1480 C 0.96949 0.72762 0.52112 0.0
C1481 C 0.94524 0.69513 0.52579 0.0
C1482 C 0.95048 0.76358 0.52551 0.0
C1483 C 0.98188 0.72637 0.50131 0.0
C1484 C 0.01908 0.7232 0.50027 0.0
C1485 C 0.03697 0.72142 0.48352 0.0
C1486 C 0.01638 0.72301 0.46738 0.0
C1487 C 0.97817 0.72652 0.46801 0.0
C1488 C 0.9608 0.72815 0.48528 0.0
H1489 H 0.27252 0.06092 0.53449 0.0
H1490 H 0.26154 0.96293 0.56694 0.0
H1491 H 0.26042 0.92669 0.53867 0.0
H1492 H 0.21389 0.03379 0.49758 0.0
H1493 H 0.2411 0.05417 0.47987 0.0
H1494 H 0.24133 0.07278 0.50269 0.0
H1495 H 0.31105 0.06604 0.50406 0.0
H1496 H 0.31102 0.04742 0.48124 0.0
H1497 H 0.33128 0.02247 0.49988 0.0
H1498 H 0.25904 0.90076 0.50695 0.0
H1499 H 0.25908 0.88705 0.47379 0.0
H1500 H 0.27227 0.00128 0.46171 0.0
C1501 C 0.26993 0.03186 0.53565 0.0
C1502 C 0.26706 0.0149 0.55301 0.0
C1503 C 0.2638 0.9767 0.55387 0.0
C1504 C 0.26311 0.95578 0.53786 0.0
C1505 C 0.26588 0.97329 0.52101 0.0
C1506 C 0.26938 0.01042 0.51976 0.0
C1507 C 0.27195 0.02234 0.49987 0.0
C1508 C 0.24017 0.04724 0.4947 0.0
C1509 C 0.30851 0.04065 0.49604 0.0
C1510 C 0.26919 0.98613 0.4902 0.0
C1511 C 0.26562 0.95822 0.50266 0.0
C1512 C 0.26197 0.92239 0.49704 0.0
C1513 C 0.26198 0.91486 0.47817 0.0
C1514 C 0.26577 0.943 0.46511 0.0
C1515 C 0.26952 0.97908 0.47131 0.0
H1516 H 0.51198 0.72937 0.96495 0.0
H1517 H 0.6042 0.79994 0.97342 0.0
H1518 H 0.58592 0.80862 1.00573 0.0
H1519 H 0.44915 0.77689 0.99286 0.0
H1520 H 0.42801 0.73688 1.00204 0.0
H1521 H 0.44841 0.73577 0.97962 0.0
H1522 H 0.48881 0.68189 0.98954 0.0
H1523 H 0.46823 0.68251 0.01191 0.0
H1524 H 0.51668 0.6859 1.00976 0.0
H1525 H 0.5553 0.81283 0.03636 0.0
H1526 H 0.51945 0.80592 0.06462 0.0
H1527 H 0.44913 0.72942 0.03691 0.0
C1528 C 0.52848 0.74642 0.97366 0.0
C1529 C 0.55949 0.76406 0.96671 0.0
C1530 C 0.58051 0.78599 0.97851 0.0
C1531 C 0.57019 0.79127 0.99683 0.0
C1532 C 0.5391 0.774 1.00317 0.0
C1533 C 0.51893 0.75147 0.99205 0.0
C1534 C 0.48723 0.73537 1.00239 0.0
C1535 C 0.45107 0.74693 0.99371 0.0
C1536 C 0.49045 0.69396 1.00347 0.0
C1537 C 0.49254 0.75262 0.02104 0.0
C1538 C 0.52234 0.77518 0.02109 0.0
C1539 C 0.53213 0.79497 0.03655 0.0
C1540 C 0.51142 0.79101 0.0525 0.0
C1541 C 0.48154 0.76702 0.053 0.0
C1542 C 0.47191 0.74781 0.03698 0.0
H1543 H 0.2557 0.43393 0.04069 0.0
H1544 H 0.18132 0.50704 0.06795 0.0
H1545 H 0.17545 0.54259 0.03948 0.0
H1546 H 0.3014 0.49897 0.01347 0.0
H1547 H 0.30467 0.47092 0.99334 0.0
H1548 H 0.30277 0.45044 0.01575 0.0
H1549 H 0.24712 0.41259 1.00586 0.0
H1550 H 0.24914 0.43262 0.98334 0.0
H1551 H 0.20798 0.43517 0.99649 0.0
H1552 H 0.18115 0.57296 1.00885 0.0
H1553 H 0.1915 0.5914 0.97669 0.0
H1554 H 0.25883 0.49663 0.96848 0.0
C1555 C 0.23791 0.45721 0.04059 0.0
C1556 C 0.21903 0.46773 0.05656 0.0
C1557 C 0.19588 0.49828 0.05587 0.0
C1558 C 0.19253 0.51882 0.03978 0.0
C1559 C 0.212 0.50816 0.02438 0.0
C1560 C 0.23365 0.47766 0.0245 0.0
C1561 C 0.25089 0.4717 1.00588 0.0
C1562 C 0.29239 0.4731 1.0072 0.0
C1563 C 0.238 0.4359 0.9974 0.0
C1564 C 0.23606 0.50395 0.99543 0.0
C1565 C 0.21398 0.52483 1.00642 0.0
C1566 C 0.19808 0.55664 1.00003 0.0
C1567 C 0.20432 0.56703 0.98179 0.0
C1568 C 0.22588 0.54543 0.97009 0.0
C1569 C 0.24206 0.51359 0.97709 0.0
H1570 H 0.48996 0.22899 0.05947 0.0
H1571 H 0.60434 0.21365 0.04848 0.0
H1572 H 0.59171 0.21457 0.01519 0.0
H1573 H 0.45619 0.17386 0.02258 0.0
H1574 H 0.41862 0.20334 0.0175 0.0
H1575 H 0.43658 0.20116 0.04046 0.0
H1576 H 0.44658 0.27046 0.04016 0.0
H1577 H 0.42868 0.27286 0.01718 0.0
H1578 H 0.47307 0.29057 0.02208 0.0
H1579 H 0.56672 0.21684 0.98316 0.0
H1580 H 0.53153 0.22115 0.95453 0.0
H1581 H 0.43313 0.23609 0.98612 0.0
C1582 C 0.51239 0.22572 0.05008 0.0
C1583 C 0.54821 0.22116 0.05663 0.0
C1584 C 0.57672 0.2172 0.04384 0.0
C1585 C 0.5698 0.21765 0.02489 0.0
C1586 C 0.53423 0.22228 0.01892 0.0
C1587 C 0.50599 0.22634 0.03112 0.0
C1588 C 0.4703 0.23137 0.02108 0.0
C1589 C 0.44387 0.20059 0.02568 0.0
C1590 C 0.45369 0.26853 0.02539 0.0
C1591 C 0.48286 0.22929 1.00131 0.0
C1592 C 0.51984 0.22401 1.00041 0.0
C1593 C 0.53777 0.22104 0.9837 0.0
C1594 C 0.51745 0.22353 0.96749 0.0
C1595 C 0.47946 0.22904 0.96799 0.0
C1596 C 0.46207 0.23198 0.98521 0.0
H1597 H 0.76059 0.42063 0.98623 0.0
H1598 H 0.75328 0.51937 0.95405 0.0
H1599 H 0.7538 0.55528 0.9824 0.0
H1600 H 0.70334 0.45059 0.02366 0.0
H1601 H 0.73003 0.42868 0.04117 0.0
H1602 H 0.72857 0.41024 0.01832 0.0
H1603 H 0.79849 0.41322 0.01658 0.0
H1604 H 0.80015 0.43182 0.0394 0.0
H1605 H 0.82106 0.45566 0.02063 0.0
H1606 H 0.75557 0.58099 0.01393 0.0
H1607 H 0.75772 0.59485 0.04696 0.0
H1608 H 0.7644 0.48009 0.05929 0.0
C1609 C 0.75889 0.44978 0.98516 0.0
C1610 C 0.75685 0.46707 0.96783 0.0
C1611 C 0.75489 0.50535 0.96709 0.0
C1612 C 0.75517 0.52609 0.98314 0.0
C1613 C 0.75747 0.5083 0.99994 0.0
C1614 C 0.75924 0.47105 1.00112 0.0
C1615 C 0.76183 0.45895 0.02101 0.0
C1616 C 0.72898 0.43575 0.02635 0.0
C1617 C 0.79751 0.43872 0.02461 0.0
C1618 C 0.76124 0.49523 0.03074 0.0
C1619 C 0.7587 0.52328 0.01828 0.0
C1620 C 0.75755 0.55926 0.02384 0.0
C1621 C 0.75882 0.56685 0.04267 0.0
C1622 C 0.76126 0.53863 0.05578 0.0
C1623 C 0.76264 0.50232 0.04964 0.0
loop_
_geom_bond_atom_site_label_1
_geom_bond_atom_site_label_2
_geom_bond_distance
_geom_bond_site_symmetry_2
_ccdc_geom_bond_type
Co0 O3 1.970 . S
Co0 N17 1.989 . S
Co0 O25 1.967 1_455 S
Co0 O32 1.920 . S
Co1 O4 1.966 . S
Co1 N10 2.022 . S
Co1 N18 1.993 . S
Co1 O26 1.941 1_455 S
C2 O3 1.258 . S
C2 O4 1.263 . S
O3 Co0 1.970 . S
O3 C2 1.258 . S
O4 Co1 1.966 . S
O4 C2 1.263 . S
C5 O6 1.235 . S
C5 O32 1.289 . S
O6 C5 1.235 . S
C7 C9 1.400 . S
C7 N10 1.351 . S
C7 C12 1.501 . S
C8 C9 1.387 . S
C8 N11 1.341 . S
C9 C7 1.400 . S
C9 C8 1.387 . S
N10 Co1 2.022 . S
N10 C7 1.351 . S
N10 N11 1.365 . S
N11 C8 1.341 . S
N11 N10 1.365 . S
N11 H31 0.862 . S
C12 C7 1.501 . S
C12 H13 0.961 . S
C12 H14 0.961 . S
C12 H15 0.960 . S
H13 C12 0.961 . S
H14 C12 0.961 . S
H15 C12 0.960 . S
C16 N17 1.342 . S
C16 C20 1.401 . S
C16 C21 1.499 . S
N17 Co0 1.989 . S
N17 C16 1.342 . S
N17 N18 1.388 . S
N18 Co1 1.993 . S
N18 N17 1.388 . S
N18 C19 1.346 . S
C19 N18 1.346 . S
C19 C20 1.396 . S
C19 C29 1.510 . S
C20 C16 1.401 . S
C20 C19 1.396 . S
C21 C16 1.499 . S
C21 H22 0.959 . S
C21 H23 0.960 . S
C21 H24 0.961 1_455 S
H22 C21 0.959 . S
H23 C21 0.960 . S
H24 C21 0.961 1_655 S
O25 Co0 1.967 1_655 S
O25 C33 1.258 . S
O26 Co1 1.941 1_655 S
O26 C33 1.266 . S
H27 C29 0.959 . S
H28 C29 0.961 . S
C29 C19 1.510 . S
C29 H27 0.959 . S
C29 H28 0.961 . S
C29 H30 0.960 . S
H30 C29 0.960 . S
H31 N11 0.862 . S
O32 Co0 1.920 . S
O32 C5 1.289 . S
C33 O25 1.258 . S
C33 O26 1.266 . S
Co34 O37 1.970 . S
Co34 N51 1.989 . S
Co34 O59 1.967 1_545 S
Co34 O66 1.920 . S
Co35 O38 1.966 . S
Co35 N44 2.022 . S
Co35 N52 1.993 . S
Co35 O60 1.941 1_545 S
C36 O37 1.258 . S
C36 O38 1.263 . S
O37 Co34 1.970 . S
O37 C36 1.258 . S
O38 Co35 1.966 . S
O38 C36 1.263 . S
C39 O40 1.235 . S
C39 O66 1.289 . S
O40 C39 1.235 . S
C41 C43 1.400 . S
C41 N44 1.351 . S
C41 C46 1.501 . S
C42 C43 1.387 . S
C42 N45 1.341 . S
C43 C41 1.400 . S
C43 C42 1.387 . S
N44 Co35 2.022 . S
N44 C41 1.351 . S
N44 N45 1.365 . S
N45 C42 1.341 . S
N45 N44 1.365 . S
N45 H65 0.862 . S
C46 C41 1.501 . S
C46 H47 0.961 . S
C46 H48 0.961 . S
C46 H49 0.960 . S
H47 C46 0.961 . S
H48 C46 0.961 . S
H49 C46 0.960 . S
C50 N51 1.342 . S
C50 C54 1.401 . S
C50 C55 1.499 . S
N51 Co34 1.989 . S
N51 C50 1.342 . S
N51 N52 1.388 . S
N52 Co35 1.993 . S
N52 N51 1.388 . S
N52 C53 1.346 . S
C53 N52 1.346 . S
C53 C54 1.396 . S
C53 C63 1.510 . S
C54 C50 1.401 . S
C54 C53 1.396 . S
C55 C50 1.499 . S
C55 H56 0.959 . S
C55 H57 0.960 . S
C55 H58 0.961 1_545 S
H56 C55 0.959 . S
H57 C55 0.960 . S
H58 C55 0.961 1_565 S
O59 Co34 1.967 1_565 S
O59 C67 1.258 . S
O60 Co35 1.941 1_565 S
O60 C67 1.266 . S
H61 C63 0.959 . S
H62 C63 0.961 . S
C63 C53 1.510 . S
C63 H61 0.959 . S
C63 H62 0.961 . S
C63 H64 0.960 . S
H64 C63 0.960 . S
H65 N45 0.862 . S
O66 Co34 1.920 . S
O66 C39 1.289 . S
C67 O59 1.258 . S
C67 O60 1.266 . S
Co68 O71 1.970 . S
Co68 N85 1.989 . S
Co68 O93 1.967 1_655 S
Co68 O100 1.920 . S
Co69 O72 1.966 . S
Co69 N78 2.022 . S
Co69 N86 1.993 . S
Co69 O94 1.941 1_655 S
C70 O71 1.258 . S
C70 O72 1.263 . S
O71 Co68 1.970 . S
O71 C70 1.258 . S
O72 Co69 1.966 . S
O72 C70 1.263 . S
C73 O74 1.235 . S
C73 O100 1.289 . S
O74 C73 1.235 . S
C75 C77 1.400 . S
C75 N78 1.351 . S
C75 C80 1.501 . S
C76 C77 1.387 . S
C76 N79 1.341 . S
C77 C75 1.400 . S
C77 C76 1.387 . S
N78 Co69 2.022 . S
N78 C75 1.351 . S
N78 N79 1.365 . S
N79 C76 1.341 . S
N79 N78 1.365 . S
N79 H99 0.862 . S
C80 C75 1.501 . S
C80 H81 0.961 . S
C80 H82 0.961 . S
C80 H83 0.960 . S
H81 C80 0.961 . S
H82 C80 0.961 . S
H83 C80 0.960 . S
C84 N85 1.342 . S
C84 C88 1.401 . S
C84 C89 1.499 . S
N85 Co68 1.989 . S
N85 C84 1.342 . S
N85 N86 1.388 . S
N86 Co69 1.993 . S
N86 N85 1.388 . S
N86 C87 1.346 . S
C87 N86 1.346 . S
C87 C88 1.396 . S
C87 C97 1.510 . S
C88 C84 1.401 . S
C88 C87 1.396 . S
C89 C84 1.499 . S
C89 H90 0.959 . S
C89 H91 0.960 . S
C89 H92 0.961 1_655 S
H90 C89 0.959 . S
H91 C89 0.960 . S
H92 C89 0.961 1_455 S
O93 Co68 1.967 1_455 S
O93 C101 1.258 . S
O94 Co69 1.941 1_455 S
O94 C101 1.266 . S
H95 C97 0.959 . S
H96 C97 0.961 . S
C97 C87 1.510 . S
C97 H95 0.959 . S
C97 H96 0.961 . S
C97 H98 0.960 . S
H98 C97 0.960 . S
H99 N79 0.862 . S
O100 Co68 1.920 . S
O100 C73 1.289 . S
C101 O93 1.258 . S
C101 O94 1.266 . S
Co102 O105 1.970 . S
Co102 N119 1.989 . S
Co102 O127 1.967 1_565 S
Co102 O134 1.920 . S
Co103 O106 1.966 . S
Co103 N112 2.022 . S
Co103 N120 1.993 . S
Co103 O128 1.941 1_565 S
C104 O105 1.258 . S
C104 O106 1.263 . S
O105 Co102 1.970 . S
O105 C104 1.258 . S
O106 Co103 1.966 . S
O106 C104 1.263 . S
C107 O108 1.235 . S
C107 O134 1.289 . S
O108 C107 1.235 . S
C109 C111 1.400 . S
C109 N112 1.351 . S
C109 C114 1.501 . S
C110 C111 1.387 . S
C110 N113 1.341 . S
C111 C109 1.400 . S
C111 C110 1.387 . S
N112 Co103 2.022 . S
N112 C109 1.351 . S
N112 N113 1.365 . S
N113 C110 1.341 . S
N113 N112 1.365 . S
N113 H133 0.862 . S
C114 C109 1.501 . S
C114 H115 0.961 . S
C114 H116 0.961 . S
C114 H117 0.960 . S
H115 C114 0.961 . S
H116 C114 0.961 . S
H117 C114 0.960 . S
C118 N119 1.342 . S
C118 C122 1.401 . S
C118 C123 1.499 . S
N119 Co102 1.989 . S
N119 C118 1.342 . S
N119 N120 1.388 . S
N120 Co103 1.993 . S
N120 N119 1.388 . S
N120 C121 1.346 . S
C121 N120 1.346 . S
C121 C122 1.396 . S
C121 C131 1.510 . S
C122 C118 1.401 . S
C122 C121 1.396 . S
C123 C118 1.499 . S
C123 H124 0.959 . S
C123 H125 0.960 . S
C123 H126 0.961 1_565 S
H124 C123 0.959 . S
H125 C123 0.960 . S
H126 C123 0.961 1_545 S
O127 Co102 1.967 1_545 S
O127 C135 1.258 . S
O128 Co103 1.941 1_545 S
O128 C135 1.266 . S
H129 C131 0.959 . S
H130 C131 0.961 . S
C131 C121 1.510 . S
C131 H129 0.959 . S
C131 H130 0.961 . S
C131 H132 0.960 . S
H132 C131 0.960 . S
H133 N113 0.862 . S
O134 Co102 1.920 . S
O134 C107 1.289 . S
C135 O127 1.258 . S
C135 O128 1.266 . S
Co136 O139 1.970 . S
Co136 N153 1.989 . S
Co136 O161 1.967 1_455 S
Co136 O168 1.920 . S
Co137 O140 1.966 . S
Co137 N146 2.022 . S
Co137 N154 1.993 . S
Co137 O162 1.941 1_455 S
C138 O139 1.258 . S
C138 O140 1.263 . S
O139 Co136 1.970 . S
O139 C138 1.258 . S
O140 Co137 1.966 . S
O140 C138 1.263 . S
C141 O142 1.235 . S
C141 O168 1.289 . S
O142 C141 1.235 . S
C143 C145 1.400 . S
C143 N146 1.351 . S
C143 C148 1.501 . S
C144 C145 1.387 . S
C144 N147 1.341 . S
C145 C143 1.400 . S
C145 C144 1.387 . S
N146 Co137 2.022 . S
N146 C143 1.351 . S
N146 N147 1.365 . S
N147 C144 1.341 . S
N147 N146 1.365 . S
N147 H167 0.862 . S
C148 C143 1.501 . S
C148 H149 0.961 . S
C148 H150 0.961 . S
C148 H151 0.960 . S
H149 C148 0.961 . S
H150 C148 0.961 . S
H151 C148 0.960 . S
C152 N153 1.342 . S
C152 C156 1.401 . S
C152 C157 1.499 . S
N153 Co136 1.989 . S
N153 C152 1.342 . S
N153 N154 1.388 . S
N154 Co137 1.993 . S
N154 N153 1.388 . S
N154 C155 1.346 . S
C155 N154 1.346 . S
C155 C156 1.396 . S
C155 C165 1.510 . S
C156 C152 1.401 . S
C156 C155 1.396 . S
C157 C152 1.499 . S
C157 H158 0.959 . S
C157 H159 0.960 . S
C157 H160 0.961 1_455 S
H158 C157 0.959 . S
H159 C157 0.960 . S
H160 C157 0.961 1_655 S
O161 Co136 1.967 1_655 S
O161 C169 1.258 . S
O162 Co137 1.941 1_655 S
O162 C169 1.266 . S
H163 C165 0.959 . S
H164 C165 0.961 . S
C165 C155 1.510 . S
C165 H163 0.959 . S
C165 H164 0.961 . S
C165 H166 0.960 . S
H166 C165 0.960 . S
H167 N147 0.862 . S
O168 Co136 1.920 . S
O168 C141 1.289 . S
C169 O161 1.258 . S
C169 O162 1.266 . S
Co170 O173 1.970 . S
Co170 N187 1.989 . S
Co170 O195 1.967 1_545 S
Co170 O202 1.920 . S
Co171 O174 1.966 . S
Co171 N180 2.022 . S
Co171 N188 1.993 . S
Co171 O196 1.941 1_545 S
C172 O173 1.258 . S
C172 O174 1.263 . S
O173 Co170 1.970 . S
O173 C172 1.258 . S
O174 Co171 1.966 . S
O174 C172 1.263 . S
C175 O176 1.235 . S
C175 O202 1.289 . S
O176 C175 1.235 . S
C177 C179 1.400 . S
C177 N180 1.351 . S
C177 C182 1.501 . S
C178 C179 1.387 . S
C178 N181 1.341 . S
C179 C177 1.400 . S
C179 C178 1.387 . S
N180 Co171 2.022 . S
N180 C177 1.351 . S
N180 N181 1.365 . S
N181 C178 1.341 . S
N181 N180 1.365 . S
N181 H201 0.862 . S
C182 C177 1.501 . S
C182 H183 0.961 . S
C182 H184 0.961 . S
C182 H185 0.960 . S
H183 C182 0.961 . S
H184 C182 0.961 . S
H185 C182 0.960 . S
C186 N187 1.342 . S
C186 C190 1.401 . S
C186 C191 1.499 . S
N187 Co170 1.989 . S
N187 C186 1.342 . S
N187 N188 1.388 . S
N188 Co171 1.993 . S
N188 N187 1.388 . S
N188 C189 1.346 . S
C189 N188 1.346 . S
C189 C190 1.396 . S
C189 C199 1.510 . S
C190 C186 1.401 . S
C190 C189 1.396 . S
C191 C186 1.499 . S
C191 H192 0.959 . S
C191 H193 0.960 . S
C191 H194 0.961 1_545 S
H192 C191 0.959 . S
H193 C191 0.960 . S
H194 C191 0.961 1_565 S
O195 Co170 1.967 1_565 S
O195 C203 1.258 . S
O196 Co171 1.941 1_565 S
O196 C203 1.266 . S
H197 C199 0.959 . S
H198 C199 0.961 . S
C199 C189 1.510 . S
C199 H197 0.959 . S
C199 H198 0.961 . S
C199 H200 0.960 . S
H200 C199 0.960 . S
H201 N181 0.862 . S
O202 Co170 1.920 . S
O202 C175 1.289 . S
C203 O195 1.258 . S
C203 O196 1.266 . S
Co204 O207 1.970 . S
Co204 N221 1.989 . S
Co204 O229 1.967 1_655 S
Co204 O236 1.920 . S
Co205 O208 1.966 . S
Co205 N214 2.022 . S
Co205 N222 1.993 . S
Co205 O230 1.941 1_655 S
C206 O207 1.258 . S
C206 O208 1.263 . S
O207 Co204 1.970 . S
O207 C206 1.258 . S
O208 Co205 1.966 . S
O208 C206 1.263 . S
C209 O210 1.235 . S
C209 O236 1.289 . S
O210 C209 1.235 . S
C211 C213 1.400 . S
C211 N214 1.351 . S
C211 C216 1.501 . S
C212 C213 1.387 . S
C212 N215 1.341 . S
C213 C211 1.400 . S
C213 C212 1.387 . S
N214 Co205 2.022 . S
N214 C211 1.351 . S
N214 N215 1.365 . S
N215 C212 1.341 . S
N215 N214 1.365 . S
N215 H235 0.862 . S
C216 C211 1.501 . S
C216 H217 0.961 . S
C216 H218 0.961 . S
C216 H219 0.960 . S
H217 C216 0.961 . S
H218 C216 0.961 . S
H219 C216 0.960 . S
C220 N221 1.342 . S
C220 C224 1.401 . S
C220 C225 1.499 . S
N221 Co204 1.989 . S
N221 C220 1.342 . S
N221 N222 1.388 . S
N222 Co205 1.993 . S
N222 N221 1.388 . S
N222 C223 1.346 . S
C223 N222 1.346 . S
C223 C224 1.396 . S
C223 C233 1.510 . S
C224 C220 1.401 . S
C224 C223 1.396 . S
C225 C220 1.499 . S
C225 H226 0.959 . S
C225 H227 0.960 . S
C225 H228 0.961 1_655 S
H226 C225 0.959 . S
H227 C225 0.960 . S
H228 C225 0.961 1_455 S
O229 Co204 1.967 1_455 S
O229 C237 1.258 . S
O230 Co205 1.941 1_455 S
O230 C237 1.266 . S
H231 C233 0.959 . S
H232 C233 0.961 . S
C233 C223 1.510 . S
C233 H231 0.959 . S
C233 H232 0.961 . S
C233 H234 0.960 . S
H234 C233 0.960 . S
H235 N215 0.862 . S
O236 Co204 1.920 . S
O236 C209 1.289 . S
C237 O229 1.258 . S
C237 O230 1.266 . S
Co238 O241 1.970 . S
Co238 N255 1.989 . S
Co238 O263 1.967 1_565 S
Co238 O270 1.920 . S
Co239 O242 1.966 . S
Co239 N248 2.022 . S
Co239 N256 1.993 . S
Co239 O264 1.941 1_565 S
C240 O241 1.258 . S
C240 O242 1.263 . S
O241 Co238 1.970 . S
O241 C240 1.258 . S
O242 Co239 1.966 . S
O242 C240 1.263 . S
C243 O244 1.235 . S
C243 O270 1.289 . S
O244 C243 1.235 . S
C245 C247 1.400 . S
C245 N248 1.351 . S
C245 C250 1.501 . S
C246 C247 1.387 . S
C246 N249 1.341 . S
C247 C245 1.400 . S
C247 C246 1.387 . S
N248 Co239 2.022 . S
N248 C245 1.351 . S
N248 N249 1.365 . S
N249 C246 1.341 . S
N249 N248 1.365 . S
N249 H269 0.862 . S
C250 C245 1.501 . S
C250 H251 0.961 . S
C250 H252 0.961 . S
C250 H253 0.960 . S
H251 C250 0.961 . S
H252 C250 0.961 . S
H253 C250 0.960 . S
C254 N255 1.342 . S
C254 C258 1.401 . S
C254 C259 1.499 . S
N255 Co238 1.989 . S
N255 C254 1.342 . S
N255 N256 1.388 . S
N256 Co239 1.993 . S
N256 N255 1.388 . S
N256 C257 1.346 . S
C257 N256 1.346 . S
C257 C258 1.396 . S
C257 C267 1.510 . S
C258 C254 1.401 . S
C258 C257 1.396 . S
C259 C254 1.499 . S
C259 H260 0.959 . S
C259 H261 0.960 . S
C259 H262 0.961 1_565 S
H260 C259 0.959 . S
H261 C259 0.960 . S
H262 C259 0.961 1_545 S
O263 Co238 1.967 1_545 S
O263 C271 1.258 . S
O264 Co239 1.941 1_545 S
O264 C271 1.266 . S
H265 C267 0.959 . S
H266 C267 0.961 . S
C267 C257 1.510 . S
C267 H265 0.959 . S
C267 H266 0.961 . S
C267 H268 0.960 . S
H268 C267 0.960 . S
H269 N249 0.862 . S
O270 Co238 1.920 . S
O270 C243 1.289 . S
C271 O263 1.258 . S
C271 O264 1.266 . S
Co272 O275 1.970 . S
Co272 N289 1.989 . S
Co272 O297 1.967 . S
Co272 O304 1.920 . S
Co273 O276 1.966 . S
Co273 N282 2.022 . S
Co273 N290 1.993 . S
Co273 O298 1.941 . S
C274 O275 1.258 . S
C274 O276 1.263 . S
O275 Co272 1.970 . S
O275 C274 1.258 . S
O276 Co273 1.966 . S
O276 C274 1.263 . S
C277 O278 1.235 . S
C277 O304 1.289 . S
O278 C277 1.235 . S
C279 C281 1.400 . S
C279 N282 1.351 . S
C279 C284 1.501 . S
C280 C281 1.387 . S
C280 N283 1.341 . S
C281 C279 1.400 . S
C281 C280 1.387 . S
N282 Co273 2.022 . S
N282 C279 1.351 . S
N282 N283 1.365 . S
N283 C280 1.341 . S
N283 N282 1.365 . S
N283 H303 0.862 . S
C284 C279 1.501 . S
C284 H285 0.961 . S
C284 H286 0.961 . S
C284 H287 0.960 . S
H285 C284 0.961 . S
H286 C284 0.961 . S
H287 C284 0.960 . S
C288 N289 1.342 . S
C288 C292 1.401 . S
C288 C293 1.499 . S
N289 Co272 1.989 . S
N289 C288 1.342 . S
N289 N290 1.388 . S
N290 Co273 1.993 . S
N290 N289 1.388 . S
N290 C291 1.346 . S
C291 N290 1.346 . S
C291 C292 1.396 . S
C291 C301 1.510 . S
C292 C288 1.401 . S
C292 C291 1.396 . S
C293 C288 1.499 . S
C293 H294 0.959 . S
C293 H295 0.960 . S
C293 H296 0.961 . S
H294 C293 0.959 . S
H295 C293 0.960 . S
H296 C293 0.961 . S
O297 Co272 1.967 . S
O297 C305 1.258 . S
O298 Co273 1.941 . S
O298 C305 1.266 . S
H299 C301 0.959 . S
H300 C301 0.961 . S
C301 C291 1.510 . S
C301 H299 0.959 . S
C301 H300 0.961 . S
C301 H302 0.960 . S
H302 C301 0.960 . S
H303 N283 0.862 . S
O304 Co272 1.920 . S
O304 C277 1.289 . S
C305 O297 1.258 . S
C305 O298 1.266 . S
Co306 O309 1.970 . S
Co306 N323 1.989 . S
Co306 O331 1.967 . S
Co306 O338 1.920 . S
Co307 O310 1.966 . S
Co307 N316 2.022 . S
Co307 N324 1.993 . S
Co307 O332 1.941 . S
C308 O309 1.258 . S
C308 O310 1.263 . S
O309 Co306 1.970 . S
O309 C308 1.258 . S
O310 Co307 1.966 . S
O310 C308 1.263 . S
C311 O312 1.235 . S
C311 O338 1.289 . S
O312 C311 1.235 . S
C313 C315 1.400 . S
C313 N316 1.351 . S
C313 C318 1.501 . S
C314 C315 1.387 . S
C314 N317 1.341 . S
C315 C313 1.400 . S
C315 C314 1.387 . S
N316 Co307 2.022 . S
N316 C313 1.351 . S
N316 N317 1.365 . S
N317 C314 1.341 . S
N317 N316 1.365 . S
N317 H337 0.862 . S
C318 C313 1.501 . S
C318 H319 0.961 . S
C318 H320 0.961 . S
C318 H321 0.960 . S
H319 C318 0.961 . S
H320 C318 0.961 . S
H321 C318 0.960 . S
C322 N323 1.342 . S
C322 C326 1.401 . S
C322 C327 1.499 . S
N323 Co306 1.989 . S
N323 C322 1.342 . S
N323 N324 1.388 . S
N324 Co307 1.993 . S
N324 N323 1.388 . S
N324 C325 1.346 . S
C325 N324 1.346 . S
C325 C326 1.396 . S
C325 C335 1.510 . S
C326 C322 1.401 . S
C326 C325 1.396 . S
C327 C322 1.499 . S
C327 H328 0.959 . S
C327 H329 0.960 . S
C327 H330 0.961 . S
H328 C327 0.959 . S
H329 C327 0.960 . S
H330 C327 0.961 . S
O331 Co306 1.967 . S
O331 C339 1.258 . S
O332 Co307 1.941 . S
O332 C339 1.266 . S
H333 C335 0.959 . S
H334 C335 0.961 . S
C335 C325 1.510 . S
C335 H333 0.959 . S
C335 H334 0.961 . S
C335 H336 0.960 . S
H336 C335 0.960 . S
H337 N317 0.862 . S
O338 Co306 1.920 . S
O338 C311 1.289 . S
C339 O331 1.258 . S
C339 O332 1.266 . S
Co340 O343 1.970 . S
Co340 N357 1.989 . S
Co340 O365 1.967 . S
Co340 O372 1.920 . S
Co341 O344 1.966 . S
Co341 N350 2.022 . S
Co341 N358 1.993 . S
Co341 O366 1.941 . S
C342 O343 1.258 . S
C342 O344 1.263 . S
O343 Co340 1.970 . S
O343 C342 1.258 . S
O344 Co341 1.966 . S
O344 C342 1.263 . S
C345 O346 1.235 . S
C345 O372 1.289 . S
O346 C345 1.235 . S
C347 C349 1.400 . S
C347 N350 1.351 . S
C347 C352 1.501 . S
C348 C349 1.387 . S
C348 N351 1.341 . S
C349 C347 1.400 . S
C349 C348 1.387 . S
N350 Co341 2.022 . S
N350 C347 1.351 . S
N350 N351 1.365 . S
N351 C348 1.341 . S
N351 N350 1.365 . S
N351 H371 0.862 . S
C352 C347 1.501 . S
C352 H353 0.961 . S
C352 H354 0.961 . S
C352 H355 0.960 . S
H353 C352 0.961 . S
H354 C352 0.961 . S
H355 C352 0.960 . S
C356 N357 1.342 . S
C356 C360 1.401 . S
C356 C361 1.499 . S
N357 Co340 1.989 . S
N357 C356 1.342 . S
N357 N358 1.388 . S
N358 Co341 1.993 . S
N358 N357 1.388 . S
N358 C359 1.346 . S
C359 N358 1.346 . S
C359 C360 1.396 . S
C359 C369 1.510 . S
C360 C356 1.401 . S
C360 C359 1.396 . S
C361 C356 1.499 . S
C361 H362 0.959 . S
C361 H363 0.960 . S
C361 H364 0.961 . S
H362 C361 0.959 . S
H363 C361 0.960 . S
H364 C361 0.961 . S
O365 Co340 1.967 . S
O365 C373 1.258 . S
O366 Co341 1.941 . S
O366 C373 1.266 . S
H367 C369 0.959 . S
H368 C369 0.961 . S
C369 C359 1.510 . S
C369 H367 0.959 . S
C369 H368 0.961 . S
C369 H370 0.960 . S
H370 C369 0.960 . S
H371 N351 0.862 . S
O372 Co340 1.920 . S
O372 C345 1.289 . S
C373 O365 1.258 . S
C373 O366 1.266 . S
Co374 O377 1.970 . S
Co374 N391 1.989 . S
Co374 O399 1.967 . S
Co374 O406 1.920 . S
Co375 O378 1.966 . S
Co375 N384 2.022 . S
Co375 N392 1.993 . S
Co375 O400 1.941 . S
C376 O377 1.258 . S
C376 O378 1.263 . S
O377 Co374 1.970 . S
O377 C376 1.258 . S
O378 Co375 1.966 . S
O378 C376 1.263 . S
C379 O380 1.235 . S
C379 O406 1.289 . S
O380 C379 1.235 . S
C381 C383 1.400 . S
C381 N384 1.351 . S
C381 C386 1.501 . S
C382 C383 1.387 . S
C382 N385 1.341 . S
C383 C381 1.400 . S
C383 C382 1.387 . S
N384 Co375 2.022 . S
N384 C381 1.351 . S
N384 N385 1.365 . S
N385 C382 1.341 . S
N385 N384 1.365 . S
N385 H405 0.862 . S
C386 C381 1.501 . S
C386 H387 0.961 . S
C386 H388 0.961 . S
C386 H389 0.960 . S
H387 C386 0.961 . S
H388 C386 0.961 . S
H389 C386 0.960 . S
C390 N391 1.342 . S
C390 C394 1.401 . S
C390 C395 1.499 . S
N391 Co374 1.989 . S
N391 C390 1.342 . S
N391 N392 1.388 . S
N392 Co375 1.993 . S
N392 N391 1.388 . S
N392 C393 1.346 . S
C393 N392 1.346 . S
C393 C394 1.396 . S
C393 C403 1.510 . S
C394 C390 1.401 . S
C394 C393 1.396 . S
C395 C390 1.499 . S
C395 H396 0.959 . S
C395 H397 0.960 . S
C395 H398 0.961 . S
H396 C395 0.959 . S
H397 C395 0.960 . S
H398 C395 0.961 . S
O399 Co374 1.967 . S
O399 C407 1.258 . S
O400 Co375 1.941 . S
O400 C407 1.266 . S
H401 C403 0.959 . S
H402 C403 0.961 . S
C403 C393 1.510 . S
C403 H401 0.959 . S
C403 H402 0.961 . S
C403 H404 0.960 . S
H404 C403 0.960 . S
H405 N385 0.862 . S
O406 Co374 1.920 . S
O406 C379 1.289 . S
C407 O399 1.258 . S
C407 O400 1.266 . S
Co408 O411 1.970 . S
Co408 N425 1.989 . S
Co408 O433 1.967 . S
Co408 O440 1.920 . S
Co409 O412 1.966 . S
Co409 N418 2.022 . S
Co409 N426 1.993 . S
Co409 O434 1.941 . S
C410 O411 1.258 . S
C410 O412 1.263 . S
O411 Co408 1.970 . S
O411 C410 1.258 . S
O412 Co409 1.966 . S
O412 C410 1.263 . S
C413 O414 1.235 . S
C413 O440 1.289 . S
O414 C413 1.235 . S
C415 C417 1.400 . S
C415 N418 1.351 . S
C415 C420 1.501 . S
C416 C417 1.387 . S
C416 N419 1.341 . S
C417 C415 1.400 . S
C417 C416 1.387 . S
N418 Co409 2.022 . S
N418 C415 1.351 . S
N418 N419 1.365 . S
N419 C416 1.341 . S
N419 N418 1.365 . S
N419 H439 0.862 . S
C420 C415 1.501 . S
C420 H421 0.961 . S
C420 H422 0.961 . S
C420 H423 0.960 . S
H421 C420 0.961 . S
H422 C420 0.961 . S
H423 C420 0.960 . S
C424 N425 1.342 . S
C424 C428 1.401 . S
C424 C429 1.499 . S
N425 Co408 1.989 . S
N425 C424 1.342 . S
N425 N426 1.388 . S
N426 Co409 1.993 . S
N426 N425 1.388 . S
N426 C427 1.346 . S
C427 N426 1.346 . S
C427 C428 1.396 . S
C427 C437 1.510 . S
C428 C424 1.401 . S
C428 C427 1.396 . S
C429 C424 1.499 . S
C429 H430 0.959 . S
C429 H431 0.960 . S
C429 H432 0.961 . S
H430 C429 0.959 . S
H431 C429 0.960 . S
H432 C429 0.961 . S
O433 Co408 1.967 . S
O433 C441 1.258 . S
O434 Co409 1.941 . S
O434 C441 1.266 . S
H435 C437 0.959 . S
H436 C437 0.961 . S
C437 C427 1.510 . S
C437 H435 0.959 . S
C437 H436 0.961 . S
C437 H438 0.960 . S
H438 C437 0.960 . S
H439 N419 0.862 . S
O440 Co408 1.920 . S
O440 C413 1.289 . S
C441 O433 1.258 . S
C441 O434 1.266 . S
Co442 O445 1.970 . S
Co442 N459 1.989 . S
Co442 O467 1.967 . S
Co442 O474 1.920 . S
Co443 O446 1.966 . S
Co443 N452 2.022 . S
Co443 N460 1.993 . S
Co443 O468 1.941 . S
C444 O445 1.258 . S
C444 O446 1.263 . S
O445 Co442 1.970 . S
O445 C444 1.258 . S
O446 Co443 1.966 . S
O446 C444 1.263 . S
C447 O448 1.235 . S
C447 O474 1.289 . S
O448 C447 1.235 . S
C449 C451 1.400 . S
C449 N452 1.351 . S
C449 C454 1.501 . S
C450 C451 1.387 . S
C450 N453 1.341 . S
C451 C449 1.400 . S
C451 C450 1.387 . S
N452 Co443 2.022 . S
N452 C449 1.351 . S
N452 N453 1.365 . S
N453 C450 1.341 . S
N453 N452 1.365 . S
N453 H473 0.862 . S
C454 C449 1.501 . S
C454 H455 0.961 . S
C454 H456 0.961 . S
C454 H457 0.960 . S
H455 C454 0.961 . S
H456 C454 0.961 . S
H457 C454 0.960 . S
C458 N459 1.342 . S
C458 C462 1.401 . S
C458 C463 1.499 . S
N459 Co442 1.989 . S
N459 C458 1.342 . S
N459 N460 1.388 . S
N460 Co443 1.993 . S
N460 N459 1.388 . S
N460 C461 1.346 . S
C461 N460 1.346 . S
C461 C462 1.396 . S
C461 C471 1.510 . S
C462 C458 1.401 . S
C462 C461 1.396 . S
C463 C458 1.499 . S
C463 H464 0.959 . S
C463 H465 0.960 . S
C463 H466 0.961 . S
H464 C463 0.959 . S
H465 C463 0.960 . S
H466 C463 0.961 . S
O467 Co442 1.967 . S
O467 C475 1.258 . S
O468 Co443 1.941 . S
O468 C475 1.266 . S
H469 C471 0.959 . S
H470 C471 0.961 . S
C471 C461 1.510 . S
C471 H469 0.959 . S
C471 H470 0.961 . S
C471 H472 0.960 . S
H472 C471 0.960 . S
H473 N453 0.862 . S
O474 Co442 1.920 . S
O474 C447 1.289 . S
C475 O467 1.258 . S
C475 O468 1.266 . S
Co476 O479 1.970 . S
Co476 N493 1.989 . S
Co476 O501 1.967 . S
Co476 O508 1.920 . S
Co477 O480 1.966 . S
Co477 N486 2.022 . S
Co477 N494 1.993 . S
Co477 O502 1.941 . S
C478 O479 1.258 . S
C478 O480 1.263 . S
O479 Co476 1.970 . S
O479 C478 1.258 . S
O480 Co477 1.966 . S
O480 C478 1.263 . S
C481 O482 1.235 . S
C481 O508 1.289 . S
O482 C481 1.235 . S
C483 C485 1.400 . S
C483 N486 1.351 . S
C483 C488 1.501 . S
C484 C485 1.387 . S
C484 N487 1.341 . S
C485 C483 1.400 . S
C485 C484 1.387 . S
N486 Co477 2.022 . S
N486 C483 1.351 . S
N486 N487 1.365 . S
N487 C484 1.341 . S
N487 N486 1.365 . S
N487 H507 0.862 . S
C488 C483 1.501 . S
C488 H489 0.961 . S
C488 H490 0.961 . S
C488 H491 0.960 . S
H489 C488 0.961 . S
H490 C488 0.961 . S
H491 C488 0.960 . S
C492 N493 1.342 . S
C492 C496 1.401 . S
C492 C497 1.499 . S
N493 Co476 1.989 . S
N493 C492 1.342 . S
N493 N494 1.388 . S
N494 Co477 1.993 . S
N494 N493 1.388 . S
N494 C495 1.346 . S
C495 N494 1.346 . S
C495 C496 1.396 . S
C495 C505 1.510 . S
C496 C492 1.401 . S
C496 C495 1.396 . S
C497 C492 1.499 . S
C497 H498 0.959 . S
C497 H499 0.960 . S
C497 H500 0.961 . S
H498 C497 0.959 . S
H499 C497 0.960 . S
H500 C497 0.961 . S
O501 Co476 1.967 . S
O501 C509 1.258 . S
O502 Co477 1.941 . S
O502 C509 1.266 . S
H503 C505 0.959 . S
H504 C505 0.961 . S
C505 C495 1.510 . S
C505 H503 0.959 . S
C505 H504 0.961 . S
C505 H506 0.960 . S
H506 C505 0.960 . S
H507 N487 0.862 . S
O508 Co476 1.920 . S
O508 C481 1.289 . S
C509 O501 1.258 . S
C509 O502 1.266 . S
Co510 O513 1.970 . S
Co510 N527 1.989 . S
Co510 O535 1.967 . S
Co510 O542 1.920 . S
Co511 O514 1.966 . S
Co511 N520 2.022 . S
Co511 N528 1.993 . S
Co511 O536 1.941 . S
C512 O513 1.258 . S
C512 O514 1.263 . S
O513 Co510 1.970 . S
O513 C512 1.258 . S
O514 Co511 1.966 . S
O514 C512 1.263 . S
C515 O516 1.235 . S
C515 O542 1.289 . S
O516 C515 1.235 . S
C517 C519 1.400 . S
C517 N520 1.351 . S
C517 C522 1.501 . S
C518 C519 1.387 . S
C518 N521 1.341 . S
C519 C517 1.400 . S
C519 C518 1.387 . S
N520 Co511 2.022 . S
N520 C517 1.351 . S
N520 N521 1.365 . S
N521 C518 1.341 . S
N521 N520 1.365 . S
N521 H541 0.862 . S
C522 C517 1.501 . S
C522 H523 0.961 . S
C522 H524 0.961 . S
C522 H525 0.960 . S
H523 C522 0.961 . S
H524 C522 0.961 . S
H525 C522 0.960 . S
C526 N527 1.342 . S
C526 C530 1.401 . S
C526 C531 1.499 . S
N527 Co510 1.989 . S
N527 C526 1.342 . S
N527 N528 1.388 . S
N528 Co511 1.993 . S
N528 N527 1.388 . S
N528 C529 1.346 . S
C529 N528 1.346 . S
C529 C530 1.396 . S
C529 C539 1.510 . S
C530 C526 1.401 . S
C530 C529 1.396 . S
C531 C526 1.499 . S
C531 H532 0.959 . S
C531 H533 0.960 . S
C531 H534 0.961 . S
H532 C531 0.959 . S
H533 C531 0.960 . S
H534 C531 0.961 . S
O535 Co510 1.967 . S
O535 C543 1.258 . S
O536 Co511 1.941 . S
O536 C543 1.266 . S
H537 C539 0.959 . S
H538 C539 0.961 . S
C539 C529 1.510 . S
C539 H537 0.959 . S
C539 H538 0.961 . S
C539 H540 0.960 . S
H540 C539 0.960 . S
H541 N521 0.862 . S
O542 Co510 1.920 . S
O542 C515 1.289 . S
C543 O535 1.258 . S
C543 O536 1.266 . S
H544 C556 0.930 . S
H545 C558 0.932 . S
H546 C559 0.930 . S
H547 C563 0.959 . S
H548 C563 0.959 . S
H549 C563 0.961 . S
H550 C564 0.960 1_655 S
H551 C564 0.961 . S
H552 C564 0.959 . S
H553 C567 0.929 . S
H554 C568 0.931 . S
H555 C570 0.930 1_655 S
C556 H544 0.930 . S
C556 C557 1.399 . S
C556 C561 1.399 . S
C557 C556 1.399 . S
C557 C558 1.371 1_655 S
C558 H545 0.932 . S
C558 C557 1.371 1_455 S
C558 C559 1.392 . S
C559 H546 0.930 . S
C559 C558 1.392 . S
C559 C560 1.390 . S
C560 C559 1.390 . S
C560 C561 1.394 1_455 S
C560 C566 1.465 . S
C561 C556 1.399 . S
C561 C560 1.394 1_655 S
C561 C562 1.516 . S
C562 C561 1.516 . S
C562 C563 1.502 . S
C562 C564 1.561 1_655 S
C562 C565 1.526 1_655 S
C563 H547 0.959 . S
C563 H548 0.959 . S
C563 H549 0.961 . S
C563 C562 1.502 . S
C564 H550 0.960 1_455 S
C564 H551 0.961 . S
C564 H552 0.959 . S
C564 C562 1.561 1_455 S
C565 C562 1.526 1_455 S
C565 C566 1.396 . S
C565 C570 1.390 . S
C566 C560 1.465 . S
C566 C565 1.396 . S
C566 C567 1.399 . S
C567 H553 0.929 . S
C567 C566 1.399 . S
C567 C568 1.385 . S
C568 H554 0.931 . S
C568 C567 1.385 . S
C568 C569 1.389 . S
C569 C568 1.389 . S
C569 C570 1.387 . S
C570 H555 0.930 1_455 S
C570 C565 1.390 . S
C570 C569 1.387 . S
H571 C583 0.930 . S
H572 C585 0.930 . S
H573 C586 0.930 . S
H574 C590 0.959 1_565 S
H575 C590 0.959 . S
H576 C590 0.961 . S
H577 C591 0.960 . S
H578 C591 0.961 . S
H579 C591 0.959 . S
H580 C594 0.929 . S
H581 C595 0.931 . S
H582 C597 0.930 1_545 S
C583 H571 0.930 . S
C583 C584 1.399 . S
C583 C588 1.399 . S
C584 C583 1.399 . S
C584 C585 1.376 . S
C585 H572 0.930 . S
C585 C584 1.376 . S
C585 C586 1.388 1_545 S
C586 H573 0.930 . S
C586 C585 1.388 1_565 S
C586 C587 1.386 1_565 S
C587 C586 1.386 1_545 S
C587 C588 1.406 . S
C587 C593 1.458 1_545 S
C588 C583 1.399 . S
C588 C587 1.406 . S
C588 C589 1.516 . S
C589 C588 1.516 . S
C589 C590 1.502 . S
C589 C591 1.561 . S
C589 C592 1.526 . S
C590 H574 0.959 1_545 S
C590 H575 0.959 . S
C590 H576 0.961 . S
C590 C589 1.502 . S
C591 H577 0.960 . S
C591 H578 0.961 . S
C591 H579 0.959 . S
C591 C589 1.561 . S
C592 C589 1.526 . S
C592 C593 1.396 1_545 S
C592 C597 1.390 1_545 S
C593 C587 1.458 1_565 S
C593 C592 1.396 1_565 S
C593 C594 1.399 . S
C594 H580 0.929 . S
C594 C593 1.399 . S
C594 C595 1.385 . S
C595 H581 0.931 . S
C595 C594 1.385 . S
C595 C596 1.389 . S
C596 C595 1.389 . S
C596 C597 1.387 . S
C597 H582 0.930 1_565 S
C597 C592 1.390 1_565 S
C597 C596 1.387 . S
H598 C610 0.930 1_455 S
H599 C612 0.930 . S
H600 C613 0.930 . S
H601 C617 0.959 . S
H602 C617 0.959 . S
H603 C617 0.961 . S
H604 C618 0.960 1_655 S
H605 C618 0.973 . S
H606 C618 0.937 1_655 S
H607 C621 0.929 . S
H608 C622 0.938 . S
H609 C624 0.930 . S
C610 H598 0.930 1_655 S
C610 C611 1.399 . S
C610 C615 1.399 . S
C611 C610 1.399 . S
C611 C612 1.376 . S
C612 H599 0.930 . S
C612 C611 1.376 . S
C612 C613 1.388 . S
C613 H600 0.930 . S
C613 C612 1.388 . S
C613 C614 1.390 . S
C614 C613 1.390 . S
C614 C615 1.394 . S
C614 C620 1.465 . S
C615 C610 1.399 . S
C615 C614 1.394 . S
C615 C616 1.516 1_655 S
C616 C615 1.516 1_455 S
C616 C617 1.502 . S
C616 C618 1.572 . S
C616 C619 1.526 . S
C617 H601 0.959 . S
C617 H602 0.959 . S
C617 H603 0.961 . S
C617 C616 1.502 . S
C618 H604 0.960 1_455 S
C618 H605 0.973 . S
C618 H606 0.937 1_455 S
C618 C616 1.572 . S
C619 C616 1.526 . S
C619 C620 1.396 1_455 S
C619 C624 1.390 . S
C620 C614 1.465 . S
C620 C619 1.396 1_655 S
C620 C621 1.399 . S
C621 H607 0.929 . S
C621 C620 1.399 . S
C621 C622 1.399 . S
C622 H608 0.938 . S
C622 C621 1.399 . S
C622 C623 1.370 1_655 S
C623 C622 1.370 1_455 S
C623 C624 1.387 . S
C624 H609 0.930 . S
C624 C619 1.390 . S
C624 C623 1.387 . S
H625 C637 0.930 1_545 S
H626 C639 0.930 . S
H627 C640 0.930 . S
H628 C644 0.959 . S
H629 C644 0.959 . S
H630 C644 0.961 . S
H631 C645 0.960 . S
H632 C645 0.961 . S
H633 C645 0.959 1_565 S
H634 C648 0.929 . S
H635 C649 0.931 . S
H636 C651 0.930 . S
C637 H625 0.930 1_565 S
C637 C638 1.399 . S
C637 C642 1.400 . S
C638 C637 1.399 . S
C638 C639 1.376 . S
C639 H626 0.930 . S
C639 C638 1.376 . S
C639 C640 1.388 . S
C640 H627 0.930 . S
C640 C639 1.388 . S
C640 C641 1.390 . S
C641 C640 1.390 . S
C641 C642 1.398 . S
C641 C647 1.465 . S
C642 C637 1.400 . S
C642 C641 1.398 . S
C642 C643 1.512 1_565 S
C643 C642 1.512 1_545 S
C643 C644 1.502 . S
C643 C645 1.561 . S
C643 C646 1.526 . S
C644 H628 0.959 . S
C644 H629 0.959 . S
C644 H630 0.961 . S
C644 C643 1.502 . S
C645 H631 0.960 . S
C645 H632 0.961 . S
C645 H633 0.959 1_545 S
C645 C643 1.561 . S
C646 C643 1.526 . S
C646 C647 1.396 1_545 S
C646 C651 1.390 . S
C647 C641 1.465 . S
C647 C646 1.396 1_565 S
C647 C648 1.399 . S
C648 H634 0.929 . S
C648 C647 1.399 . S
C648 C649 1.385 . S
C649 H635 0.931 . S
C649 C648 1.385 . S
C649 C650 1.389 1_565 S
C650 C649 1.389 1_545 S
C650 C651 1.387 . S
C651 H636 0.930 . S
C651 C646 1.390 . S
C651 C650 1.387 . S
H652 C664 0.930 . S
H653 C666 0.930 . S
H654 C667 0.930 . S
H655 C671 0.959 . S
H656 C671 0.959 . S
H657 C671 0.942 1_565 S
H658 C672 0.960 1_565 S
H659 C672 0.961 . S
H660 C672 0.959 1_565 S
H661 C675 0.929 . S
H662 C676 0.931 . S
H663 C678 0.930 . S
C664 H652 0.930 . S
C664 C665 1.399 . S
C664 C669 1.399 . S
C665 C664 1.399 . S
C665 C666 1.376 . S
C666 H653 0.930 . S
C666 C665 1.376 . S
C666 C667 1.388 . S
C667 H654 0.930 . S
C667 C666 1.388 . S
C667 C668 1.390 . S
C668 C667 1.390 . S
C668 C669 1.394 . S
C668 C674 1.465 1_565 S
C669 C664 1.399 . S
C669 C668 1.394 . S
C669 C670 1.516 1_565 S
C670 C669 1.516 1_545 S
C670 C671 1.502 . S
C670 C672 1.561 . S
C670 C673 1.526 . S
C671 H655 0.959 . S
C671 H656 0.959 . S
C671 H657 0.942 1_545 S
C671 C670 1.502 . S
C672 H658 0.960 1_545 S
C672 H659 0.961 . S
C672 H660 0.959 1_545 S
C672 C670 1.561 . S
C673 C670 1.526 . S
C673 C674 1.396 . S
C673 C678 1.390 . S
C674 C668 1.465 1_545 S
C674 C673 1.396 . S
C674 C675 1.399 . S
C675 H661 0.929 . S
C675 C674 1.399 . S
C675 C676 1.385 . S
C676 H662 0.931 . S
C676 C675 1.385 . S
C676 C677 1.389 . S
C677 C676 1.389 . S
C677 C678 1.387 . S
C678 H663 0.930 . S
C678 C673 1.390 . S
C678 C677 1.387 . S
H679 C691 0.930 . S
H680 C693 0.930 . S
H681 C694 0.930 . S
H682 C698 0.959 . S
H683 C698 0.959 . S
H684 C698 0.961 1_655 S
H685 C699 0.960 . S
H686 C699 0.961 1_455 S
H687 C699 0.959 . S
H688 C702 0.929 . S
H689 C703 0.931 . S
H690 C705 0.930 . S
C691 H679 0.930 . S
C691 C692 1.399 . S
C691 C696 1.399 . S
C692 C691 1.399 . S
C692 C693 1.376 . S
C693 H680 0.930 . S
C693 C692 1.376 . S
C693 C694 1.388 . S
C694 H681 0.930 . S
C694 C693 1.388 . S
C694 C695 1.390 . S
C695 C694 1.390 . S
C695 C696 1.394 . S
C695 C701 1.465 1_655 S
C696 C691 1.399 . S
C696 C695 1.394 . S
C696 C697 1.516 1_655 S
C697 C696 1.516 1_455 S
C697 C698 1.502 . S
C697 C699 1.561 1_455 S
C697 C700 1.526 . S
C698 H682 0.959 . S
C698 H683 0.959 . S
C698 H684 0.961 1_455 S
C698 C697 1.502 . S
C699 H685 0.960 . S
C699 H686 0.961 1_655 S
C699 H687 0.959 . S
C699 C697 1.561 1_655 S
C700 C697 1.526 . S
C700 C701 1.396 . S
C700 C705 1.390 . S
C701 C695 1.465 1_455 S
C701 C700 1.396 . S
C701 C702 1.399 . S
C702 H688 0.929 . S
C702 C701 1.399 . S
C702 C703 1.385 . S
C703 H689 0.931 . S
C703 C702 1.385 . S
C703 C704 1.389 . S
C704 C703 1.389 . S
C704 C705 1.387 . S
C705 H690 0.930 . S
C705 C700 1.390 . S
C705 C704 1.387 . S
H706 C718 0.930 . S
H707 C720 0.930 . S
H708 C721 0.930 . S
H709 C725 0.959 . S
H710 C725 0.959 1_545 S
H711 C725 0.961 . S
H712 C726 0.960 . S
H713 C726 0.961 1_545 S
H714 C726 0.959 1_545 S
H715 C729 0.929 . S
H716 C730 0.931 . S
H717 C732 0.930 . S
C718 H706 0.930 . S
C718 C719 1.399 . S
C718 C723 1.399 . S
C719 C718 1.399 . S
C719 C720 1.376 . S
C720 H707 0.930 . S
C720 C719 1.376 . S
C720 C721 1.388 . S
C721 H708 0.930 . S
C721 C720 1.388 . S
C721 C722 1.390 . S
C722 C721 1.390 . S
C722 C723 1.394 . S
C722 C728 1.465 1_565 S
C723 C718 1.399 . S
C723 C722 1.394 . S
C723 C724 1.516 . S
C724 C723 1.516 . S
C724 C725 1.502 . S
C724 C726 1.561 . S
C724 C727 1.526 1_565 S
C725 H709 0.959 . S
C725 H710 0.959 1_565 S
C725 H711 0.961 . S
C725 C724 1.502 . S
C726 H712 0.960 . S
C726 H713 0.961 1_565 S
C726 H714 0.959 1_565 S
C726 C724 1.561 . S
C727 C724 1.526 1_545 S
C727 C728 1.396 . S
C727 C732 1.390 . S
C728 C722 1.465 1_545 S
C728 C727 1.396 . S
C728 C729 1.399 . S
C729 H715 0.929 . S
C729 C728 1.399 . S
C729 C730 1.385 . S
C730 H716 0.931 . S
C730 C729 1.385 . S
C730 C731 1.389 . S
C731 C730 1.389 . S
C731 C732 1.387 . S
C732 H717 0.930 . S
C732 C727 1.390 . S
C732 C731 1.387 . S
H733 C745 0.930 . S
H734 C747 0.930 . S
H735 C748 0.930 . S
H736 C752 0.959 . S
H737 C752 0.959 1_455 S
H738 C752 0.961 . S
H739 C753 0.960 1_655 S
H740 C753 0.961 . S
H741 C753 0.959 . S
H742 C756 0.929 . S
H743 C757 0.931 . S
H744 C759 0.930 . S
C745 H733 0.930 . S
C745 C746 1.399 . S
C745 C750 1.399 . S
C746 C745 1.399 . S
C746 C747 1.376 . S
C747 H734 0.930 . S
C747 C746 1.376 . S
C747 C748 1.388 . S
C748 H735 0.930 . S
C748 C747 1.388 . S
C748 C749 1.390 . S
C749 C748 1.390 . S
C749 C750 1.394 . S
C749 C755 1.465 1_655 S
C750 C745 1.399 . S
C750 C749 1.394 . S
C750 C751 1.516 . S
C751 C750 1.516 . S
C751 C752 1.502 . S
C751 C753 1.561 1_655 S
C751 C754 1.526 1_655 S
C752 H736 0.959 . S
C752 H737 0.959 1_655 S
C752 H738 0.961 . S
C752 C751 1.502 . S
C753 H739 0.960 1_455 S
C753 H740 0.961 . S
C753 H741 0.959 . S
C753 C751 1.561 1_455 S
C754 C751 1.526 1_455 S
C754 C755 1.396 . S
C754 C759 1.390 . S
C755 C749 1.465 1_455 S
C755 C754 1.396 . S
C755 C756 1.399 . S
C756 H742 0.929 . S
C756 C755 1.399 . S
C756 C757 1.385 . S
C757 H743 0.931 . S
C757 C756 1.385 . S
C757 C758 1.389 . S
C758 C757 1.389 . S
C758 C759 1.387 . S
C759 H744 0.930 . S
C759 C754 1.390 . S
C759 C758 1.387 . S
H760 C772 0.930 . S
H761 C774 0.930 . S
H762 C775 0.930 . S
H763 C779 0.959 . S
H764 C779 0.959 . S
H765 C779 0.961 . S
H766 C780 0.960 . S
H767 C780 0.961 . S
H768 C780 0.959 . S
H769 C783 0.929 . S
H770 C784 0.931 . S
H771 C786 0.930 . S
C772 H760 0.930 . S
C772 C773 1.399 . S
C772 C777 1.399 . S
C773 C772 1.399 . S
C773 C774 1.376 . S
C774 H761 0.930 . S
C774 C773 1.376 . S
C774 C775 1.388 . S
C775 H762 0.930 . S
C775 C774 1.388 . S
C775 C776 1.390 . S
C776 C775 1.390 . S
C776 C777 1.394 . S
C776 C782 1.465 . S
C777 C772 1.399 . S
C777 C776 1.394 . S
C777 C778 1.516 . S
C778 C777 1.516 . S
C778 C779 1.502 . S
C778 C780 1.561 . S
C778 C781 1.526 . S
C779 H763 0.959 . S
C779 H764 0.959 . S
C779 H765 0.961 . S
C779 C778 1.502 . S
C780 H766 0.960 . S
C780 H767 0.961 . S
C780 H768 0.959 . S
C780 C778 1.561 . S
C781 C778 1.526 . S
C781 C782 1.396 . S
C781 C786 1.390 . S
C782 C776 1.465 . S
C782 C781 1.396 . S
C782 C783 1.399 . S
C783 H769 0.929 . S
C783 C782 1.399 . S
C783 C784 1.385 . S
C784 H770 0.931 . S
C784 C783 1.385 . S
C784 C785 1.389 . S
C785 C784 1.389 . S
C785 C786 1.387 . S
C786 H771 0.930 . S
C786 C781 1.390 . S
C786 C785 1.387 . S
H787 C799 0.930 . S
H788 C801 0.930 . S
H789 C802 0.930 . S
H790 C806 0.959 . S
H791 C806 0.959 . S
H792 C806 0.961 . S
H793 C807 0.960 . S
H794 C807 0.961 . S
H795 C807 0.959 . S
H796 C810 0.929 . S
H797 C811 0.931 . S
H798 C813 0.930 . S
C799 H787 0.930 . S
C799 C800 1.399 . S
C799 C804 1.399 . S
C800 C799 1.399 . S
C800 C801 1.376 . S
C801 H788 0.930 . S
C801 C800 1.376 . S
C801 C802 1.388 . S
C802 H789 0.930 . S
C802 C801 1.388 . S
C802 C803 1.390 . S
C803 C802 1.390 . S
C803 C804 1.394 . S
C803 C809 1.465 . S
C804 C799 1.399 . S
C804 C803 1.394 . S
C804 C805 1.516 . S
C805 C804 1.516 . S
C805 C806 1.502 . S
C805 C807 1.561 . S
C805 C808 1.526 . S
C806 H790 0.959 . S
C806 H791 0.959 . S
C806 H792 0.961 . S
C806 C805 1.502 . S
C807 H793 0.960 . S
C807 H794 0.961 . S
C807 H795 0.959 . S
C807 C805 1.561 . S
C808 C805 1.526 . S
C808 C809 1.396 . S
C808 C813 1.390 . S
C809 C803 1.465 . S
C809 C808 1.396 . S
C809 C810 1.399 . S
C810 H796 0.929 . S
C810 C809 1.399 . S
C810 C811 1.385 . S
C811 H797 0.931 . S
C811 C810 1.385 . S
C811 C812 1.389 . S
C812 C811 1.389 . S
C812 C813 1.387 . S
C813 H798 0.930 . S
C813 C808 1.390 . S
C813 C812 1.387 . S
H814 C826 0.930 . S
H815 C828 0.930 . S
H816 C829 0.930 . S
H817 C833 0.959 . S
H818 C833 0.959 . S
H819 C833 0.961 . S
H820 C834 0.960 . S
H821 C834 0.961 . S
H822 C834 0.959 . S
H823 C837 0.929 . S
H824 C838 0.931 . S
H825 C840 0.930 . S
C826 H814 0.930 . S
C826 C827 1.399 . S
C826 C831 1.399 . S
C827 C826 1.399 . S
C827 C828 1.376 . S
C828 H815 0.930 . S
C828 C827 1.376 . S
C828 C829 1.388 . S
C829 H816 0.930 . S
C829 C828 1.388 . S
C829 C830 1.390 . S
C830 C829 1.390 . S
C830 C831 1.394 . S
C830 C836 1.465 . S
C831 C826 1.399 . S
C831 C830 1.394 . S
C831 C832 1.516 . S
C832 C831 1.516 . S
C832 C833 1.502 . S
C832 C834 1.561 . S
C832 C835 1.526 . S
C833 H817 0.959 . S
C833 H818 0.959 . S
C833 H819 0.961 . S
C833 C832 1.502 . S
C834 H820 0.960 . S
C834 H821 0.961 . S
C834 H822 0.959 . S
C834 C832 1.561 . S
C835 C832 1.526 . S
C835 C836 1.396 . S
C835 C840 1.390 . S
C836 C830 1.465 . S
C836 C835 1.396 . S
C836 C837 1.399 . S
C837 H823 0.929 . S
C837 C836 1.399 . S
C837 C838 1.385 . S
C838 H824 0.931 . S
C838 C837 1.385 . S
C838 C839 1.389 . S
C839 C838 1.389 . S
C839 C840 1.387 . S
C840 H825 0.930 . S
C840 C835 1.390 . S
C840 C839 1.387 . S
H841 C853 0.930 . S
H842 C855 0.930 . S
H843 C856 0.930 . S
H844 C860 0.959 . S
H845 C860 0.959 . S
H846 C860 0.961 . S
H847 C861 0.960 . S
H848 C861 0.961 . S
H849 C861 0.959 . S
H850 C864 0.929 . S
H851 C865 0.931 . S
H852 C867 0.930 . S
C853 H841 0.930 . S
C853 C854 1.399 . S
C853 C858 1.399 . S
C854 C853 1.399 . S
C854 C855 1.376 . S
C855 H842 0.930 . S
C855 C854 1.376 . S
C855 C856 1.388 . S
C856 H843 0.930 . S
C856 C855 1.388 . S
C856 C857 1.390 . S
C857 C856 1.390 . S
C857 C858 1.394 . S
C857 C863 1.465 . S
C858 C853 1.399 . S
C858 C857 1.394 . S
C858 C859 1.516 . S
C859 C858 1.516 . S
C859 C860 1.502 . S
C859 C861 1.561 . S
C859 C862 1.526 . S
C860 H844 0.959 . S
C860 H845 0.959 . S
C860 H846 0.961 . S
C860 C859 1.502 . S
C861 H847 0.960 . S
C861 H848 0.961 . S
C861 H849 0.959 . S
C861 C859 1.561 . S
C862 C859 1.526 . S
C862 C863 1.396 . S
C862 C867 1.390 . S
C863 C857 1.465 . S
C863 C862 1.396 . S
C863 C864 1.399 . S
C864 H850 0.929 . S
C864 C863 1.399 . S
C864 C865 1.385 . S
C865 H851 0.931 . S
C865 C864 1.385 . S
C865 C866 1.389 . S
C866 C865 1.389 . S
C866 C867 1.387 . S
C867 H852 0.930 . S
C867 C862 1.390 . S
C867 C866 1.387 . S
H868 C880 0.930 . S
H869 C882 0.930 . S
H870 C883 0.930 . S
H871 C887 0.959 . S
H872 C887 0.959 . S
H873 C887 0.961 . S
H874 C888 0.960 . S
H875 C888 0.961 . S
H876 C888 0.959 . S
H877 C891 0.929 . S
H878 C892 0.931 . S
H879 C894 0.930 . S
C880 H868 0.930 . S
C880 C881 1.399 . S
C880 C885 1.399 . S
C881 C880 1.399 . S
C881 C882 1.376 . S
C882 H869 0.930 . S
C882 C881 1.376 . S
C882 C883 1.388 . S
C883 H870 0.930 . S
C883 C882 1.388 . S
C883 C884 1.390 . S
C884 C883 1.390 . S
C884 C885 1.394 . S
C884 C890 1.465 . S
C885 C880 1.399 . S
C885 C884 1.394 . S
C885 C886 1.516 . S
C886 C885 1.516 . S
C886 C887 1.502 . S
C886 C888 1.561 . S
C886 C889 1.526 . S
C887 H871 0.959 . S
C887 H872 0.959 . S
C887 H873 0.961 . S
C887 C886 1.502 . S
C888 H874 0.960 . S
C888 H875 0.961 . S
C888 H876 0.959 . S
C888 C886 1.561 . S
C889 C886 1.526 . S
C889 C890 1.396 . S
C889 C894 1.390 . S
C890 C884 1.465 . S
C890 C889 1.396 . S
C890 C891 1.399 . S
C891 H877 0.929 . S
C891 C890 1.399 . S
C891 C892 1.385 . S
C892 H878 0.931 . S
C892 C891 1.385 . S
C892 C893 1.389 . S
C893 C892 1.389 . S
C893 C894 1.387 . S
C894 H879 0.930 . S
C894 C889 1.390 . S
C894 C893 1.387 . S
H895 C907 0.930 . S
H896 C909 0.930 . S
H897 C910 0.930 . S
H898 C914 0.959 . S
H899 C914 0.959 . S
H900 C914 0.961 . S
H901 C915 0.960 . S
H902 C915 0.961 . S
H903 C915 0.959 . S
H904 C918 0.929 . S
H905 C919 0.931 . S
H906 C921 0.930 . S
C907 H895 0.930 . S
C907 C908 1.399 . S
C907 C912 1.399 . S
C908 C907 1.399 . S
C908 C909 1.376 . S
C909 H896 0.930 . S
C909 C908 1.376 . S
C909 C910 1.388 . S
C910 H897 0.930 . S
C910 C909 1.388 . S
C910 C911 1.390 . S
C911 C910 1.390 . S
C911 C912 1.394 . S
C911 C917 1.465 . S
C912 C907 1.399 . S
C912 C911 1.394 . S
C912 C913 1.516 . S
C913 C912 1.516 . S
C913 C914 1.502 . S
C913 C915 1.561 . S
C913 C916 1.526 . S
C914 H898 0.959 . S
C914 H899 0.959 . S
C914 H900 0.961 . S
C914 C913 1.502 . S
C915 H901 0.960 . S
C915 H902 0.961 . S
C915 H903 0.959 . S
C915 C913 1.561 . S
C916 C913 1.526 . S
C916 C917 1.396 . S
C916 C921 1.390 . S
C917 C911 1.465 . S
C917 C916 1.396 . S
C917 C918 1.399 . S
C918 H904 0.929 . S
C918 C917 1.399 . S
C918 C919 1.385 . S
C919 H905 0.931 . S
C919 C918 1.385 . S
C919 C920 1.389 . S
C920 C919 1.389 . S
C920 C921 1.387 . S
C921 H906 0.930 . S
C921 C916 1.390 . S
C921 C920 1.387 . S
H922 C934 0.930 . S
H923 C936 0.930 . S
H924 C937 0.930 . S
H925 C941 0.959 . S
H926 C941 0.959 . S
H927 C941 0.961 . S
H928 C942 0.960 . S
H929 C942 0.961 . S
H930 C942 0.959 . S
H931 C945 0.929 . S
H932 C946 0.931 . S
H933 C948 0.930 . S
C934 H922 0.930 . S
C934 C935 1.399 . S
C934 C939 1.399 . S
C935 C934 1.399 . S
C935 C936 1.376 . S
C936 H923 0.930 . S
C936 C935 1.376 . S
C936 C937 1.388 . S
C937 H924 0.930 . S
C937 C936 1.388 . S
C937 C938 1.390 . S
C938 C937 1.390 . S
C938 C939 1.394 . S
C938 C944 1.465 . S
C939 C934 1.399 . S
C939 C938 1.394 . S
C939 C940 1.516 . S
C940 C939 1.516 . S
C940 C941 1.502 . S
C940 C942 1.561 . S
C940 C943 1.526 . S
C941 H925 0.959 . S
C941 H926 0.959 . S
C941 H927 0.961 . S
C941 C940 1.502 . S
C942 H928 0.960 . S
C942 H929 0.961 . S
C942 H930 0.959 . S
C942 C940 1.561 . S
C943 C940 1.526 . S
C943 C944 1.396 . S
C943 C948 1.390 . S
C944 C938 1.465 . S
C944 C943 1.396 . S
C944 C945 1.399 . S
C945 H931 0.929 . S
C945 C944 1.399 . S
C945 C946 1.385 . S
C946 H932 0.931 . S
C946 C945 1.385 . S
C946 C947 1.389 . S
C947 C946 1.389 . S
C947 C948 1.387 . S
C948 H933 0.930 . S
C948 C943 1.390 . S
C948 C947 1.387 . S
H949 C961 0.930 . S
H950 C963 0.930 . S
H951 C964 0.930 . S
H952 C968 0.959 . S
H953 C968 0.959 . S
H954 C968 0.961 . S
H955 C969 0.960 . S
H956 C969 0.961 . S
H957 C969 0.959 . S
H958 C972 0.929 . S
H959 C973 0.931 . S
H960 C975 0.930 . S
C961 H949 0.930 . S
C961 C962 1.399 . S
C961 C966 1.399 . S
C962 C961 1.399 . S
C962 C963 1.376 . S
C963 H950 0.930 . S
C963 C962 1.376 . S
C963 C964 1.388 . S
C964 H951 0.930 . S
C964 C963 1.388 . S
C964 C965 1.390 . S
C965 C964 1.390 . S
C965 C966 1.394 . S
C965 C971 1.465 . S
C966 C961 1.399 . S
C966 C965 1.394 . S
C966 C967 1.516 . S
C967 C966 1.516 . S
C967 C968 1.502 . S
C967 C969 1.561 . S
C967 C970 1.526 . S
C968 H952 0.959 . S
C968 H953 0.959 . S
C968 H954 0.961 . S
C968 C967 1.502 . S
C969 H955 0.960 . S
C969 H956 0.961 . S
C969 H957 0.959 . S
C969 C967 1.561 . S
C970 C967 1.526 . S
C970 C971 1.396 . S
C970 C975 1.390 . S
C971 C965 1.465 . S
C971 C970 1.396 . S
C971 C972 1.399 . S
C972 H958 0.929 . S
C972 C971 1.399 . S
C972 C973 1.385 . S
C973 H959 0.931 . S
C973 C972 1.385 . S
C973 C974 1.389 . S
C974 C973 1.389 . S
C974 C975 1.387 . S
C975 H960 0.930 . S
C975 C970 1.390 . S
C975 C974 1.387 . S
H976 C988 0.930 . S
H977 C990 0.930 . S
H978 C991 0.930 . S
H979 C995 0.959 . S
H980 C995 0.959 . S
H981 C995 0.961 . S
H982 C996 0.960 . S
H983 C996 0.961 . S
H984 C996 0.959 . S
H985 C999 0.929 . S
H986 C1000 0.931 . S
H987 C1002 0.930 . S
C988 H976 0.930 . S
C988 C989 1.399 . S
C988 C993 1.399 . S
C989 C988 1.399 . S
C989 C990 1.376 . S
C990 H977 0.930 . S
C990 C989 1.376 . S
C990 C991 1.388 . S
C991 H978 0.930 . S
C991 C990 1.388 . S
C991 C992 1.390 . S
C992 C991 1.390 . S
C992 C993 1.394 . S
C992 C998 1.465 . S
C993 C988 1.399 . S
C993 C992 1.394 . S
C993 C994 1.516 . S
C994 C993 1.516 . S
C994 C995 1.502 . S
C994 C996 1.561 . S
C994 C997 1.526 . S
C995 H979 0.959 . S
C995 H980 0.959 . S
C995 H981 0.961 . S
C995 C994 1.502 . S
C996 H982 0.960 . S
C996 H983 0.961 . S
C996 H984 0.959 . S
C996 C994 1.561 . S
C997 C994 1.526 . S
C997 C998 1.396 . S
C997 C1002 1.390 . S
C998 C992 1.465 . S
C998 C997 1.396 . S
C998 C999 1.399 . S
C999 H985 0.929 . S
C999 C998 1.399 . S
C999 C1000 1.385 . S
C1000 H986 0.931 . S
C1000 C999 1.385 . S
C1000 C1001 1.389 . S
C1001 C1000 1.389 . S
C1001 C1002 1.387 . S
C1002 H987 0.930 . S
C1002 C997 1.390 . S
C1002 C1001 1.387 . S
H1003 C1015 0.930 . S
H1004 C1017 0.930 . S
H1005 C1018 0.930 . S
H1006 C1022 0.959 . S
H1007 C1022 0.959 . S
H1008 C1022 0.961 . S
H1009 C1023 0.960 . S
H1010 C1023 0.961 . S
H1011 C1023 0.959 . S
H1012 C1026 0.929 . S
H1013 C1027 0.931 . S
H1014 C1029 0.930 . S
C1015 H1003 0.930 . S
C1015 C1016 1.399 . S
C1015 C1020 1.399 . S
C1016 C1015 1.399 . S
C1016 C1017 1.376 . S
C1017 H1004 0.930 . S
C1017 C1016 1.376 . S
C1017 C1018 1.388 . S
C1018 H1005 0.930 . S
C1018 C1017 1.388 . S
C1018 C1019 1.390 . S
C1019 C1018 1.390 . S
C1019 C1020 1.394 . S
C1019 C1025 1.465 . S
C1020 C1015 1.399 . S
C1020 C1019 1.394 . S
C1020 C1021 1.516 . S
C1021 C1020 1.516 . S
C1021 C1022 1.502 . S
C1021 C1023 1.561 . S
C1021 C1024 1.526 . S
C1022 H1006 0.959 . S
C1022 H1007 0.959 . S
C1022 H1008 0.961 . S
C1022 C1021 1.502 . S
C1023 H1009 0.960 . S
C1023 H1010 0.961 . S
C1023 H1011 0.959 . S
C1023 C1021 1.561 . S
C1024 C1021 1.526 . S
C1024 C1025 1.396 . S
C1024 C1029 1.390 . S
C1025 C1019 1.465 . S
C1025 C1024 1.396 . S
C1025 C1026 1.399 . S
C1026 H1012 0.929 . S
C1026 C1025 1.399 . S
C1026 C1027 1.385 . S
C1027 H1013 0.931 . S
C1027 C1026 1.385 . S
C1027 C1028 1.389 . S
C1028 C1027 1.389 . S
C1028 C1029 1.387 . S
C1029 H1014 0.930 . S
C1029 C1024 1.390 . S
C1029 C1028 1.387 . S
H1030 C1042 0.930 . S
H1031 C1044 0.930 . S
H1032 C1045 0.930 . S
H1033 C1049 0.959 . S
H1034 C1049 0.959 . S
H1035 C1049 0.961 . S
H1036 C1050 0.960 . S
H1037 C1050 0.961 . S
H1038 C1050 0.959 . S
H1039 C1053 0.929 . S
H1040 C1054 0.931 . S
H1041 C1056 0.930 . S
C1042 H1030 0.930 . S
C1042 C1043 1.399 . S
C1042 C1047 1.399 . S
C1043 C1042 1.399 . S
C1043 C1044 1.376 . S
C1044 H1031 0.930 . S
C1044 C1043 1.376 . S
C1044 C1045 1.388 . S
C1045 H1032 0.930 . S
C1045 C1044 1.388 . S
C1045 C1046 1.390 . S
C1046 C1045 1.390 . S
C1046 C1047 1.394 . S
C1046 C1052 1.465 . S
C1047 C1042 1.399 . S
C1047 C1046 1.394 . S
C1047 C1048 1.516 . S
C1048 C1047 1.516 . S
C1048 C1049 1.502 . S
C1048 C1050 1.561 . S
C1048 C1051 1.526 . S
C1049 H1033 0.959 . S
C1049 H1034 0.959 . S
C1049 H1035 0.961 . S
C1049 C1048 1.502 . S
C1050 H1036 0.960 . S
C1050 H1037 0.961 . S
C1050 H1038 0.959 . S
C1050 C1048 1.561 . S
C1051 C1048 1.526 . S
C1051 C1052 1.396 . S
C1051 C1056 1.390 . S
C1052 C1046 1.465 . S
C1052 C1051 1.396 . S
C1052 C1053 1.399 . S
C1053 H1039 0.929 . S
C1053 C1052 1.399 . S
C1053 C1054 1.385 . S
C1054 H1040 0.931 . S
C1054 C1053 1.385 . S
C1054 C1055 1.389 . S
C1055 C1054 1.389 . S
C1055 C1056 1.387 . S
C1056 H1041 0.930 . S
C1056 C1051 1.390 . S
C1056 C1055 1.387 . S
H1057 C1069 0.930 . S
H1058 C1071 0.930 . S
H1059 C1072 0.930 . S
H1060 C1076 0.959 . S
H1061 C1076 0.959 . S
H1062 C1076 0.961 . S
H1063 C1077 0.960 . S
H1064 C1077 0.961 . S
H1065 C1077 0.959 . S
H1066 C1080 0.929 . S
H1067 C1081 0.931 . S
H1068 C1083 0.930 . S
C1069 H1057 0.930 . S
C1069 C1070 1.399 . S
C1069 C1074 1.399 . S
C1070 C1069 1.399 . S
C1070 C1071 1.376 . S
C1071 H1058 0.930 . S
C1071 C1070 1.376 . S
C1071 C1072 1.388 . S
C1072 H1059 0.930 . S
C1072 C1071 1.388 . S
C1072 C1073 1.390 . S
C1073 C1072 1.390 . S
C1073 C1074 1.394 . S
C1073 C1079 1.465 . S
C1074 C1069 1.399 . S
C1074 C1073 1.394 . S
C1074 C1075 1.516 . S
C1075 C1074 1.516 . S
C1075 C1076 1.502 . S
C1075 C1077 1.561 . S
C1075 C1078 1.526 . S
C1076 H1060 0.959 . S
C1076 H1061 0.959 . S
C1076 H1062 0.961 . S
C1076 C1075 1.502 . S
C1077 H1063 0.960 . S
C1077 H1064 0.961 . S
C1077 H1065 0.959 . S
C1077 C1075 1.561 . S
C1078 C1075 1.526 . S
C1078 C1079 1.396 . S
C1078 C1083 1.390 . S
C1079 C1073 1.465 . S
C1079 C1078 1.396 . S
C1079 C1080 1.399 . S
C1080 H1066 0.929 . S
C1080 C1079 1.399 . S
C1080 C1081 1.385 . S
C1081 H1067 0.931 . S
C1081 C1080 1.385 . S
C1081 C1082 1.389 . S
C1082 C1081 1.389 . S
C1082 C1083 1.387 . S
C1083 H1068 0.930 . S
C1083 C1078 1.390 . S
C1083 C1082 1.387 . S
H1084 C1096 0.930 . S
H1085 C1098 0.930 . S
H1086 C1099 0.930 . S
H1087 C1103 0.959 . S
H1088 C1103 0.959 . S
H1089 C1103 0.961 . S
H1090 C1104 0.960 . S
H1091 C1104 0.961 . S
H1092 C1104 0.959 . S
H1093 C1107 0.929 . S
H1094 C1108 0.931 . S
H1095 C1110 0.930 . S
C1096 H1084 0.930 . S
C1096 C1097 1.399 . S
C1096 C1101 1.399 . S
C1097 C1096 1.399 . S
C1097 C1098 1.376 . S
C1098 H1085 0.930 . S
C1098 C1097 1.376 . S
C1098 C1099 1.388 . S
C1099 H1086 0.930 . S
C1099 C1098 1.388 . S
C1099 C1100 1.390 . S
C1100 C1099 1.390 . S
C1100 C1101 1.394 . S
C1100 C1106 1.465 . S
C1101 C1096 1.399 . S
C1101 C1100 1.394 . S
C1101 C1102 1.516 . S
C1102 C1101 1.516 . S
C1102 C1103 1.502 . S
C1102 C1104 1.561 . S
C1102 C1105 1.526 . S
C1103 H1087 0.959 . S
C1103 H1088 0.959 . S
C1103 H1089 0.961 . S
C1103 C1102 1.502 . S
C1104 H1090 0.960 . S
C1104 H1091 0.961 . S
C1104 H1092 0.959 . S
C1104 C1102 1.561 . S
C1105 C1102 1.526 . S
C1105 C1106 1.396 . S
C1105 C1110 1.390 . S
C1106 C1100 1.465 . S
C1106 C1105 1.396 . S
C1106 C1107 1.399 . S
C1107 H1093 0.929 . S
C1107 C1106 1.399 . S
C1107 C1108 1.385 . S
C1108 H1094 0.931 . S
C1108 C1107 1.385 . S
C1108 C1109 1.389 . S
C1109 C1108 1.389 . S
C1109 C1110 1.387 . S
C1110 H1095 0.930 . S
C1110 C1105 1.390 . S
C1110 C1109 1.387 . S
H1111 C1123 0.930 . S
H1112 C1125 0.930 . S
H1113 C1126 0.930 . S
H1114 C1130 0.959 . S
H1115 C1130 0.959 . S
H1116 C1130 0.961 . S
H1117 C1131 0.960 . S
H1118 C1131 0.961 . S
H1119 C1131 0.959 . S
H1120 C1134 0.929 . S
H1121 C1135 0.931 . S
H1122 C1137 0.930 . S
C1123 H1111 0.930 . S
C1123 C1124 1.399 . S
C1123 C1128 1.399 . S
C1124 C1123 1.399 . S
C1124 C1125 1.376 . S
C1125 H1112 0.930 . S
C1125 C1124 1.376 . S
C1125 C1126 1.388 . S
C1126 H1113 0.930 . S
C1126 C1125 1.388 . S
C1126 C1127 1.390 . S
C1127 C1126 1.390 . S
C1127 C1128 1.394 . S
C1127 C1133 1.465 . S
C1128 C1123 1.399 . S
C1128 C1127 1.394 . S
C1128 C1129 1.516 . S
C1129 C1128 1.516 . S
C1129 C1130 1.502 . S
C1129 C1131 1.561 . S
C1129 C1132 1.526 . S
C1130 H1114 0.959 . S
C1130 H1115 0.959 . S
C1130 H1116 0.961 . S
C1130 C1129 1.502 . S
C1131 H1117 0.960 . S
C1131 H1118 0.961 . S
C1131 H1119 0.959 . S
C1131 C1129 1.561 . S
C1132 C1129 1.526 . S
C1132 C1133 1.396 . S
C1132 C1137 1.390 . S
C1133 C1127 1.465 . S
C1133 C1132 1.396 . S
C1133 C1134 1.399 . S
C1134 H1120 0.929 . S
C1134 C1133 1.399 . S
C1134 C1135 1.385 . S
C1135 H1121 0.931 . S
C1135 C1134 1.385 . S
C1135 C1136 1.389 . S
C1136 C1135 1.389 . S
C1136 C1137 1.387 . S
C1137 H1122 0.930 . S
C1137 C1132 1.390 . S
C1137 C1136 1.387 . S
H1138 C1150 0.930 . S
H1139 C1152 0.930 . S
H1140 C1153 0.930 . S
H1141 C1157 0.959 . S
H1142 C1157 0.959 . S
H1143 C1157 0.961 . S
H1144 C1158 0.960 . S
H1145 C1158 0.961 . S
H1146 C1158 0.959 . S
H1147 C1161 0.929 . S
H1148 C1162 0.931 . S
H1149 C1164 0.930 . S
C1150 H1138 0.930 . S
C1150 C1151 1.399 . S
C1150 C1155 1.399 . S
C1151 C1150 1.399 . S
C1151 C1152 1.376 . S
C1152 H1139 0.930 . S
C1152 C1151 1.376 . S
C1152 C1153 1.388 . S
C1153 H1140 0.930 . S
C1153 C1152 1.388 . S
C1153 C1154 1.390 . S
C1154 C1153 1.390 . S
C1154 C1155 1.394 . S
C1154 C1160 1.465 . S
C1155 C1150 1.399 . S
C1155 C1154 1.394 . S
C1155 C1156 1.516 . S
C1156 C1155 1.516 . S
C1156 C1157 1.502 . S
C1156 C1158 1.561 . S
C1156 C1159 1.526 . S
C1157 H1141 0.959 . S
C1157 H1142 0.959 . S
C1157 H1143 0.961 . S
C1157 C1156 1.502 . S
C1158 H1144 0.960 . S
C1158 H1145 0.961 . S
C1158 H1146 0.959 . S
C1158 C1156 1.561 . S
C1159 C1156 1.526 . S
C1159 C1160 1.396 . S
C1159 C1164 1.390 . S
C1160 C1154 1.465 . S
C1160 C1159 1.396 . S
C1160 C1161 1.399 . S
C1161 H1147 0.929 . S
C1161 C1160 1.399 . S
C1161 C1162 1.385 . S
C1162 H1148 0.931 . S
C1162 C1161 1.385 . S
C1162 C1163 1.389 . S
C1163 C1162 1.389 . S
C1163 C1164 1.387 . S
C1164 H1149 0.930 . S
C1164 C1159 1.390 . S
C1164 C1163 1.387 . S
H1165 C1177 0.930 . S
H1166 C1179 0.930 . S
H1167 C1180 0.930 . S
H1168 C1184 0.959 . S
H1169 C1184 0.959 . S
H1170 C1184 0.961 . S
H1171 C1185 0.960 . S
H1172 C1185 0.961 . S
H1173 C1185 0.959 . S
H1174 C1188 0.929 . S
H1175 C1189 0.931 . S
H1176 C1191 0.930 . S
C1177 H1165 0.930 . S
C1177 C1178 1.399 . S
C1177 C1182 1.399 . S
C1178 C1177 1.399 . S
C1178 C1179 1.376 . S
C1179 H1166 0.930 . S
C1179 C1178 1.376 . S
C1179 C1180 1.388 . S
C1180 H1167 0.930 . S
C1180 C1179 1.388 . S
C1180 C1181 1.390 . S
C1181 C1180 1.390 . S
C1181 C1182 1.394 . S
C1181 C1187 1.465 . S
C1182 C1177 1.399 . S
C1182 C1181 1.394 . S
C1182 C1183 1.516 . S
C1183 C1182 1.516 . S
C1183 C1184 1.502 . S
C1183 C1185 1.561 . S
C1183 C1186 1.526 . S
C1184 H1168 0.959 . S
C1184 H1169 0.959 . S
C1184 H1170 0.961 . S
C1184 C1183 1.502 . S
C1185 H1171 0.960 . S
C1185 H1172 0.961 . S
C1185 H1173 0.959 . S
C1185 C1183 1.561 . S
C1186 C1183 1.526 . S
C1186 C1187 1.396 . S
C1186 C1191 1.390 . S
C1187 C1181 1.465 . S
C1187 C1186 1.396 . S
C1187 C1188 1.399 . S
C1188 H1174 0.929 . S
C1188 C1187 1.399 . S
C1188 C1189 1.385 . S
C1189 H1175 0.931 . S
C1189 C1188 1.385 . S
C1189 C1190 1.389 . S
C1190 C1189 1.389 . S
C1190 C1191 1.387 . S
C1191 H1176 0.930 . S
C1191 C1186 1.390 . S
C1191 C1190 1.387 . S
H1192 C1204 0.930 . S
H1193 C1206 0.930 . S
H1194 C1207 0.930 . S
H1195 C1211 0.959 . S
H1196 C1211 0.959 . S
H1197 C1211 0.961 . S
H1198 C1212 0.960 . S
H1199 C1212 0.961 . S
H1200 C1212 0.959 . S
H1201 C1215 0.929 . S
H1202 C1216 0.931 . S
H1203 C1218 0.930 . S
C1204 H1192 0.930 . S
C1204 C1205 1.399 . S
C1204 C1209 1.399 . S
C1205 C1204 1.399 . S
C1205 C1206 1.376 . S
C1206 H1193 0.930 . S
C1206 C1205 1.376 . S
C1206 C1207 1.388 . S
C1207 H1194 0.930 . S
C1207 C1206 1.388 . S
C1207 C1208 1.390 . S
C1208 C1207 1.390 . S
C1208 C1209 1.394 . S
C1208 C1214 1.465 . S
C1209 C1204 1.399 . S
C1209 C1208 1.394 . S
C1209 C1210 1.516 . S
C1210 C1209 1.516 . S
C1210 C1211 1.502 . S
C1210 C1212 1.561 . S
C1210 C1213 1.526 . S
C1211 H1195 0.959 . S
C1211 H1196 0.959 . S
C1211 H1197 0.961 . S
C1211 C1210 1.502 . S
C1212 H1198 0.960 . S
C1212 H1199 0.961 . S
C1212 H1200 0.959 . S
C1212 C1210 1.561 . S
C1213 C1210 1.526 . S
C1213 C1214 1.396 . S
C1213 C1218 1.390 . S
C1214 C1208 1.465 . S
C1214 C1213 1.396 . S
C1214 C1215 1.399 . S
C1215 H1201 0.929 . S
C1215 C1214 1.399 . S
C1215 C1216 1.385 . S
C1216 H1202 0.931 . S
C1216 C1215 1.385 . S
C1216 C1217 1.389 . S
C1217 C1216 1.389 . S
C1217 C1218 1.387 . S
C1218 H1203 0.930 . S
C1218 C1213 1.390 . S
C1218 C1217 1.387 . S
H1219 C1231 0.930 . S
H1220 C1233 0.930 . S
H1221 C1234 0.930 . S
H1222 C1238 0.959 . S
H1223 C1238 0.959 . S
H1224 C1238 0.961 . S
H1225 C1239 0.960 . S
H1226 C1239 0.961 . S
H1227 C1239 0.959 . S
H1228 C1242 0.929 . S
H1229 C1243 0.931 . S
H1230 C1245 0.930 . S
C1231 H1219 0.930 . S
C1231 C1232 1.399 . S
C1231 C1236 1.399 . S
C1232 C1231 1.399 . S
C1232 C1233 1.376 . S
C1233 H1220 0.930 . S
C1233 C1232 1.376 . S
C1233 C1234 1.388 . S
C1234 H1221 0.930 . S
C1234 C1233 1.388 . S
C1234 C1235 1.390 . S
C1235 C1234 1.390 . S
C1235 C1236 1.394 . S
C1235 C1241 1.465 . S
C1236 C1231 1.399 . S
C1236 C1235 1.394 . S
C1236 C1237 1.516 . S
C1237 C1236 1.516 . S
C1237 C1238 1.502 . S
C1237 C1239 1.561 . S
C1237 C1240 1.526 . S
C1238 H1222 0.959 . S
C1238 H1223 0.959 . S
C1238 H1224 0.961 . S
C1238 C1237 1.502 . S
C1239 H1225 0.960 . S
C1239 H1226 0.961 . S
C1239 H1227 0.959 . S
C1239 C1237 1.561 . S
C1240 C1237 1.526 . S
C1240 C1241 1.396 . S
C1240 C1245 1.390 . S
C1241 C1235 1.465 . S
C1241 C1240 1.396 . S
C1241 C1242 1.399 . S
C1242 H1228 0.929 . S
C1242 C1241 1.399 . S
C1242 C1243 1.385 . S
C1243 H1229 0.931 . S
C1243 C1242 1.385 . S
C1243 C1244 1.389 . S
C1244 C1243 1.389 . S
C1244 C1245 1.387 . S
C1245 H1230 0.930 . S
C1245 C1240 1.390 . S
C1245 C1244 1.387 . S
H1246 C1258 0.930 . S
H1247 C1260 0.930 . S
H1248 C1261 0.930 . S
H1249 C1265 0.959 . S
H1250 C1265 0.959 . S
H1251 C1265 0.961 . S
H1252 C1266 0.960 . S
H1253 C1266 0.961 . S
H1254 C1266 0.959 . S
H1255 C1269 0.929 . S
H1256 C1270 0.931 . S
H1257 C1272 0.930 . S
C1258 H1246 0.930 . S
C1258 C1259 1.399 . S
C1258 C1263 1.399 . S
C1259 C1258 1.399 . S
C1259 C1260 1.376 . S
C1260 H1247 0.930 . S
C1260 C1259 1.376 . S
C1260 C1261 1.388 . S
C1261 H1248 0.930 . S
C1261 C1260 1.388 . S
C1261 C1262 1.390 . S
C1262 C1261 1.390 . S
C1262 C1263 1.394 . S
C1262 C1268 1.465 . S
C1263 C1258 1.399 . S
C1263 C1262 1.394 . S
C1263 C1264 1.516 . S
C1264 C1263 1.516 . S
C1264 C1265 1.502 . S
C1264 C1266 1.561 . S
C1264 C1267 1.526 . S
C1265 H1249 0.959 . S
C1265 H1250 0.959 . S
C1265 H1251 0.961 . S
C1265 C1264 1.502 . S
C1266 H1252 0.960 . S
C1266 H1253 0.961 . S
C1266 H1254 0.959 . S
C1266 C1264 1.561 . S
C1267 C1264 1.526 . S
C1267 C1268 1.396 . S
C1267 C1272 1.390 . S
C1268 C1262 1.465 . S
C1268 C1267 1.396 . S
C1268 C1269 1.399 . S
C1269 H1255 0.929 . S
C1269 C1268 1.399 . S
C1269 C1270 1.385 . S
C1270 H1256 0.931 . S
C1270 C1269 1.385 . S
C1270 C1271 1.389 . S
C1271 C1270 1.389 . S
C1271 C1272 1.387 . S
C1272 H1257 0.930 . S
C1272 C1267 1.390 . S
C1272 C1271 1.387 . S
H1273 C1285 0.930 . S
H1274 C1287 0.930 . S
H1275 C1288 0.930 . S
H1276 C1292 0.959 . S
H1277 C1292 0.959 . S
H1278 C1292 0.961 . S
H1279 C1293 0.960 . S
H1280 C1293 0.961 . S
H1281 C1293 0.959 . S
H1282 C1296 0.929 . S
H1283 C1297 0.931 . S
H1284 C1299 0.930 . S
C1285 H1273 0.930 . S
C1285 C1286 1.399 . S
C1285 C1290 1.399 . S
C1286 C1285 1.399 . S
C1286 C1287 1.376 . S
C1287 H1274 0.930 . S
C1287 C1286 1.376 . S
C1287 C1288 1.388 . S
C1288 H1275 0.930 . S
C1288 C1287 1.388 . S
C1288 C1289 1.390 . S
C1289 C1288 1.390 . S
C1289 C1290 1.394 . S
C1289 C1295 1.465 . S
C1290 C1285 1.399 . S
C1290 C1289 1.394 . S
C1290 C1291 1.516 . S
C1291 C1290 1.516 . S
C1291 C1292 1.502 . S
C1291 C1293 1.561 . S
C1291 C1294 1.526 . S
C1292 H1276 0.959 . S
C1292 H1277 0.959 . S
C1292 H1278 0.961 . S
C1292 C1291 1.502 . S
C1293 H1279 0.960 . S
C1293 H1280 0.961 . S
C1293 H1281 0.959 . S
C1293 C1291 1.561 . S
C1294 C1291 1.526 . S
C1294 C1295 1.396 . S
C1294 C1299 1.390 . S
C1295 C1289 1.465 . S
C1295 C1294 1.396 . S
C1295 C1296 1.399 . S
C1296 H1282 0.929 . S
C1296 C1295 1.399 . S
C1296 C1297 1.385 . S
C1297 H1283 0.931 . S
C1297 C1296 1.385 . S
C1297 C1298 1.389 . S
C1298 C1297 1.389 . S
C1298 C1299 1.387 . S
C1299 H1284 0.930 . S
C1299 C1294 1.390 . S
C1299 C1298 1.387 . S
H1300 C1312 0.930 . S
H1301 C1314 0.930 . S
H1302 C1315 0.930 . S
H1303 C1319 0.959 . S
H1304 C1319 0.959 . S
H1305 C1319 0.961 . S
H1306 C1320 0.960 . S
H1307 C1320 0.961 . S
H1308 C1320 0.959 . S
H1309 C1323 0.929 . S
H1310 C1324 0.931 . S
H1311 C1326 0.930 . S
C1312 H1300 0.930 . S
C1312 C1313 1.399 . S
C1312 C1317 1.399 . S
C1313 C1312 1.399 . S
C1313 C1314 1.376 . S
C1314 H1301 0.930 . S
C1314 C1313 1.376 . S
C1314 C1315 1.388 . S
C1315 H1302 0.930 . S
C1315 C1314 1.388 . S
C1315 C1316 1.390 . S
C1316 C1315 1.390 . S
C1316 C1317 1.394 . S
C1316 C1322 1.465 . S
C1317 C1312 1.399 . S
C1317 C1316 1.394 . S
C1317 C1318 1.516 . S
C1318 C1317 1.516 . S
C1318 C1319 1.502 . S
C1318 C1320 1.561 . S
C1318 C1321 1.526 . S
C1319 H1303 0.959 . S
C1319 H1304 0.959 . S
C1319 H1305 0.961 . S
C1319 C1318 1.502 . S
C1320 H1306 0.960 . S
C1320 H1307 0.961 . S
C1320 H1308 0.959 . S
C1320 C1318 1.561 . S
C1321 C1318 1.526 . S
C1321 C1322 1.396 . S
C1321 C1326 1.390 . S
C1322 C1316 1.465 . S
C1322 C1321 1.396 . S
C1322 C1323 1.399 . S
C1323 H1309 0.929 . S
C1323 C1322 1.399 . S
C1323 C1324 1.385 . S
C1324 H1310 0.931 . S
C1324 C1323 1.385 . S
C1324 C1325 1.389 . S
C1325 C1324 1.389 . S
C1325 C1326 1.387 . S
C1326 H1311 0.930 . S
C1326 C1321 1.390 . S
C1326 C1325 1.387 . S
H1327 C1339 0.930 . S
H1328 C1341 0.930 . S
H1329 C1342 0.930 . S
H1330 C1346 0.959 . S
H1331 C1346 0.959 . S
H1332 C1346 0.961 . S
H1333 C1347 0.960 . S
H1334 C1347 0.961 . S
H1335 C1347 0.959 . S
H1336 C1350 0.929 . S
H1337 C1351 0.931 . S
H1338 C1353 0.930 . S
C1339 H1327 0.930 . S
C1339 C1340 1.399 . S
C1339 C1344 1.399 . S
C1340 C1339 1.399 . S
C1340 C1341 1.376 . S
C1341 H1328 0.930 . S
C1341 C1340 1.376 . S
C1341 C1342 1.388 . S
C1342 H1329 0.930 . S
C1342 C1341 1.388 . S
C1342 C1343 1.390 . S
C1343 C1342 1.390 . S
C1343 C1344 1.394 . S
C1343 C1349 1.465 . S
C1344 C1339 1.399 . S
C1344 C1343 1.394 . S
C1344 C1345 1.516 . S
C1345 C1344 1.516 . S
C1345 C1346 1.502 . S
C1345 C1347 1.561 . S
C1345 C1348 1.526 . S
C1346 H1330 0.959 . S
C1346 H1331 0.959 . S
C1346 H1332 0.961 . S
C1346 C1345 1.502 . S
C1347 H1333 0.960 . S
C1347 H1334 0.961 . S
C1347 H1335 0.959 . S
C1347 C1345 1.561 . S
C1348 C1345 1.526 . S
C1348 C1349 1.396 . S
C1348 C1353 1.390 . S
C1349 C1343 1.465 . S
C1349 C1348 1.396 . S
C1349 C1350 1.399 . S
C1350 H1336 0.929 . S
C1350 C1349 1.399 . S
C1350 C1351 1.385 . S
C1351 H1337 0.931 . S
C1351 C1350 1.385 . S
C1351 C1352 1.389 . S
C1352 C1351 1.389 . S
C1352 C1353 1.387 . S
C1353 H1338 0.930 . S
C1353 C1348 1.390 . S
C1353 C1352 1.387 . S
H1354 C1366 0.930 . S
H1355 C1368 0.930 . S
H1356 C1369 0.930 . S
H1357 C1373 0.959 . S
H1358 C1373 0.959 . S
H1359 C1373 0.961 . S
H1360 C1374 0.960 . S
H1361 C1374 0.961 . S
H1362 C1374 0.959 . S
H1363 C1377 0.929 . S
H1364 C1378 0.931 . S
H1365 C1380 0.930 . S
C1366 H1354 0.930 . S
C1366 C1367 1.399 . S
C1366 C1371 1.399 . S
C1367 C1366 1.399 . S
C1367 C1368 1.376 . S
C1368 H1355 0.930 . S
C1368 C1367 1.376 . S
C1368 C1369 1.388 . S
C1369 H1356 0.930 . S
C1369 C1368 1.388 . S
C1369 C1370 1.390 . S
C1370 C1369 1.390 . S
C1370 C1371 1.394 . S
C1370 C1376 1.465 . S
C1371 C1366 1.399 . S
C1371 C1370 1.394 . S
C1371 C1372 1.516 . S
C1372 C1371 1.516 . S
C1372 C1373 1.502 . S
C1372 C1374 1.561 . S
C1372 C1375 1.526 . S
C1373 H1357 0.959 . S
C1373 H1358 0.959 . S
C1373 H1359 0.961 . S
C1373 C1372 1.502 . S
C1374 H1360 0.960 . S
C1374 H1361 0.961 . S
C1374 H1362 0.959 . S
C1374 C1372 1.561 . S
C1375 C1372 1.526 . S
C1375 C1376 1.396 . S
C1375 C1380 1.390 . S
C1376 C1370 1.465 . S
C1376 C1375 1.396 . S
C1376 C1377 1.399 . S
C1377 H1363 0.929 . S
C1377 C1376 1.399 . S
C1377 C1378 1.385 . S
C1378 H1364 0.931 . S
C1378 C1377 1.385 . S
C1378 C1379 1.389 . S
C1379 C1378 1.389 . S
C1379 C1380 1.387 . S
C1380 H1365 0.930 . S
C1380 C1375 1.390 . S
C1380 C1379 1.387 . S
H1381 C1393 0.930 . S
H1382 C1395 0.930 . S
H1383 C1396 0.930 . S
H1384 C1400 0.959 . S
H1385 C1400 0.959 . S
H1386 C1400 0.961 . S
H1387 C1401 0.960 . S
H1388 C1401 0.961 . S
H1389 C1401 0.959 . S
H1390 C1404 0.929 . S
H1391 C1405 0.931 . S
H1392 C1407 0.930 . S
C1393 H1381 0.930 . S
C1393 C1394 1.399 . S
C1393 C1398 1.399 . S
C1394 C1393 1.399 . S
C1394 C1395 1.376 . S
C1395 H1382 0.930 . S
C1395 C1394 1.376 . S
C1395 C1396 1.388 . S
C1396 H1383 0.930 . S
C1396 C1395 1.388 . S
C1396 C1397 1.390 . S
C1397 C1396 1.390 . S
C1397 C1398 1.394 . S
C1397 C1403 1.465 . S
C1398 C1393 1.399 . S
C1398 C1397 1.394 . S
C1398 C1399 1.516 . S
C1399 C1398 1.516 . S
C1399 C1400 1.502 . S
C1399 C1401 1.561 . S
C1399 C1402 1.526 . S
C1400 H1384 0.959 . S
C1400 H1385 0.959 . S
C1400 H1386 0.961 . S
C1400 C1399 1.502 . S
C1401 H1387 0.960 . S
C1401 H1388 0.961 . S
C1401 H1389 0.959 . S
C1401 C1399 1.561 . S
C1402 C1399 1.526 . S
C1402 C1403 1.396 . S
C1402 C1407 1.390 . S
C1403 C1397 1.465 . S
C1403 C1402 1.396 . S
C1403 C1404 1.399 . S
C1404 H1390 0.929 . S
C1404 C1403 1.399 . S
C1404 C1405 1.385 . S
C1405 H1391 0.931 . S
C1405 C1404 1.385 . S
C1405 C1406 1.389 . S
C1406 C1405 1.389 . S
C1406 C1407 1.387 . S
C1407 H1392 0.930 . S
C1407 C1402 1.390 . S
C1407 C1406 1.387 . S
H1408 C1420 0.930 . S
H1409 C1422 0.930 . S
H1410 C1423 0.930 . S
H1411 C1427 0.959 . S
H1412 C1427 0.959 . S
H1413 C1427 0.961 . S
H1414 C1428 0.960 . S
H1415 C1428 0.961 . S
H1416 C1428 0.959 . S
H1417 C1431 0.924 1_455 S
H1418 C1432 0.931 . S
H1419 C1434 0.930 . S
C1420 H1408 0.930 . S
C1420 C1421 1.399 . S
C1420 C1425 1.399 . S
C1421 C1420 1.399 . S
C1421 C1422 1.376 . S
C1422 H1409 0.930 . S
C1422 C1421 1.376 . S
C1422 C1423 1.388 . S
C1423 H1410 0.930 . S
C1423 C1422 1.388 . S
C1423 C1424 1.390 . S
C1424 C1423 1.390 . S
C1424 C1425 1.394 . S
C1424 C1430 1.465 . S
C1425 C1420 1.399 . S
C1425 C1424 1.394 . S
C1425 C1426 1.516 1_455 S
C1426 C1425 1.516 1_655 S
C1426 C1427 1.502 . S
C1426 C1428 1.561 1_655 S
C1426 C1429 1.526 . S
C1427 H1411 0.959 . S
C1427 H1412 0.959 . S
C1427 H1413 0.961 . S
C1427 C1426 1.502 . S
C1428 H1414 0.960 . S
C1428 H1415 0.961 . S
C1428 H1416 0.959 . S
C1428 C1426 1.561 1_455 S
C1429 C1426 1.526 . S
C1429 C1430 1.396 1_655 S
C1429 C1434 1.390 . S
C1430 C1424 1.465 . S
C1430 C1429 1.396 1_455 S
C1430 C1431 1.398 1_455 S
C1431 H1417 0.924 1_655 S
C1431 C1430 1.398 1_655 S
C1431 C1432 1.392 . S
C1432 H1418 0.931 . S
C1432 C1431 1.392 . S
C1432 C1433 1.389 . S
C1433 C1432 1.389 . S
C1433 C1434 1.387 . S
C1434 H1419 0.930 . S
C1434 C1429 1.390 . S
C1434 C1433 1.387 . S
H1435 C1447 0.930 . S
H1436 C1449 0.930 . S
H1437 C1450 0.930 . S
H1438 C1454 0.959 . S
H1439 C1454 0.959 . S
H1440 C1454 0.961 . S
H1441 C1455 0.960 . S
H1442 C1455 0.961 . S
H1443 C1455 0.959 . S
H1444 C1458 0.929 . S
H1445 C1459 0.931 . S
H1446 C1461 0.930 . S
C1447 H1435 0.930 . S
C1447 C1448 1.399 . S
C1447 C1452 1.399 . S
C1448 C1447 1.399 . S
C1448 C1449 1.376 1_565 S
C1449 H1436 0.930 . S
C1449 C1448 1.376 1_545 S
C1449 C1450 1.388 . S
C1450 H1437 0.930 . S
C1450 C1449 1.388 . S
C1450 C1451 1.390 . S
C1451 C1450 1.390 . S
C1451 C1452 1.394 1_545 S
C1451 C1457 1.465 . S
C1452 C1447 1.399 . S
C1452 C1451 1.394 1_565 S
C1452 C1453 1.516 . S
C1453 C1452 1.516 . S
C1453 C1454 1.502 . S
C1453 C1455 1.561 . S
C1453 C1456 1.526 . S
C1454 H1438 0.959 . S
C1454 H1439 0.959 . S
C1454 H1440 0.961 . S
C1454 C1453 1.502 . S
C1455 H1441 0.960 . S
C1455 H1442 0.961 . S
C1455 H1443 0.959 . S
C1455 C1453 1.561 . S
C1456 C1453 1.526 . S
C1456 C1457 1.396 1_565 S
C1456 C1461 1.390 . S
C1457 C1451 1.465 . S
C1457 C1456 1.396 1_545 S
C1457 C1458 1.399 . S
C1458 H1444 0.929 . S
C1458 C1457 1.399 . S
C1458 C1459 1.385 . S
C1459 H1445 0.931 . S
C1459 C1458 1.385 . S
C1459 C1460 1.389 . S
C1460 C1459 1.389 . S
C1460 C1461 1.387 1_545 S
C1461 H1446 0.930 . S
C1461 C1456 1.390 . S
C1461 C1460 1.387 1_565 S
H1462 C1474 0.930 . S
H1463 C1476 0.930 . S
H1464 C1477 0.930 . S
H1465 C1481 0.959 . S
H1466 C1481 0.959 . S
H1467 C1481 0.961 . S
H1468 C1482 0.960 . S
H1469 C1482 0.961 . S
H1470 C1482 0.959 . S
H1471 C1485 0.929 . S
H1472 C1486 0.931 . S
H1473 C1488 0.930 . S
C1474 H1462 0.930 . S
C1474 C1475 1.399 1_655 S
C1474 C1479 1.399 . S
C1475 C1474 1.399 1_455 S
C1475 C1476 1.376 . S
C1476 H1463 0.930 . S
C1476 C1475 1.376 . S
C1476 C1477 1.388 . S
C1477 H1464 0.930 . S
C1477 C1476 1.388 . S
C1477 C1478 1.390 . S
C1478 C1477 1.390 . S
C1478 C1479 1.394 1_455 S
C1478 C1484 1.465 . S
C1479 C1474 1.399 . S
C1479 C1478 1.394 1_655 S
C1479 C1480 1.516 . S
C1480 C1479 1.516 . S
C1480 C1481 1.502 . S
C1480 C1482 1.561 . S
C1480 C1483 1.526 . S
C1481 H1465 0.959 . S
C1481 H1466 0.959 . S
C1481 H1467 0.961 . S
C1481 C1480 1.502 . S
C1482 H1468 0.960 . S
C1482 H1469 0.961 . S
C1482 H1470 0.959 . S
C1482 C1480 1.561 . S
C1483 C1480 1.526 . S
C1483 C1484 1.396 1_655 S
C1483 C1488 1.390 . S
C1484 C1478 1.465 . S
C1484 C1483 1.396 1_455 S
C1484 C1485 1.399 . S
C1485 H1471 0.929 . S
C1485 C1484 1.399 . S
C1485 C1486 1.385 . S
C1486 H1472 0.931 . S
C1486 C1485 1.385 . S
C1486 C1487 1.389 1_455 S
C1487 C1486 1.389 1_655 S
C1487 C1488 1.387 . S
C1488 H1473 0.930 . S
C1488 C1483 1.390 . S
C1488 C1487 1.387 . S
H1489 C1501 0.930 . S
H1490 C1503 0.930 . S
H1491 C1504 0.930 . S
H1492 C1508 0.959 . S
H1493 C1508 0.959 . S
H1494 C1508 0.961 . S
H1495 C1509 0.960 . S
H1496 C1509 0.961 . S
H1497 C1509 0.959 . S
H1498 C1512 0.929 . S
H1499 C1513 0.931 . S
H1500 C1515 0.930 . S
C1501 H1489 0.930 . S
C1501 C1502 1.399 . S
C1501 C1506 1.399 . S
C1502 C1501 1.399 . S
C1502 C1503 1.376 1_545 S
C1503 H1490 0.930 . S
C1503 C1502 1.376 1_565 S
C1503 C1504 1.388 . S
C1504 H1491 0.930 . S
C1504 C1503 1.388 . S
C1504 C1505 1.390 . S
C1505 C1504 1.390 . S
C1505 C1506 1.394 1_565 S
C1505 C1511 1.465 . S
C1506 C1501 1.399 . S
C1506 C1505 1.394 1_545 S
C1506 C1507 1.516 . S
C1507 C1506 1.516 . S
C1507 C1508 1.502 . S
C1507 C1509 1.561 . S
C1507 C1510 1.526 . S
C1508 H1492 0.959 . S
C1508 H1493 0.959 . S
C1508 H1494 0.961 . S
C1508 C1507 1.502 . S
C1509 H1495 0.960 . S
C1509 H1496 0.961 . S
C1509 H1497 0.959 . S
C1509 C1507 1.561 . S
C1510 C1507 1.526 . S
C1510 C1511 1.396 1_545 S
C1510 C1515 1.390 . S
C1511 C1505 1.465 . S
C1511 C1510 1.396 1_565 S
C1511 C1512 1.399 . S
C1512 H1498 0.929 . S
C1512 C1511 1.399 . S
C1512 C1513 1.385 . S
C1513 H1499 0.931 . S
C1513 C1512 1.385 . S
C1513 C1514 1.389 . S
C1514 C1513 1.389 . S
C1514 C1515 1.387 1_565 S
C1515 H1500 0.930 . S
C1515 C1510 1.390 . S
C1515 C1514 1.387 1_545 S
H1516 C1528 0.930 . S
H1517 C1530 0.930 . S
H1518 C1531 0.930 . S
H1519 C1535 0.959 . S
H1520 C1535 0.959 1_554 S
H1521 C1535 0.961 . S
H1522 C1536 0.960 1_556 S
H1523 C1536 0.961 . S
H1524 C1536 0.959 . S
H1525 C1539 0.929 . S
H1526 C1540 0.931 . S
H1527 C1542 0.930 . S
C1528 H1516 0.930 . S
C1528 C1529 1.399 . S
C1528 C1533 1.399 . S
C1529 C1528 1.399 . S
C1529 C1530 1.376 . S
C1530 H1517 0.930 . S
C1530 C1529 1.376 . S
C1530 C1531 1.388 . S
C1531 H1518 0.930 . S
C1531 C1530 1.388 . S
C1531 C1532 1.390 . S
C1532 C1531 1.390 . S
C1532 C1533 1.394 . S
C1532 C1538 1.465 1_556 S
C1533 C1528 1.399 . S
C1533 C1532 1.394 . S
C1533 C1534 1.516 . S
C1534 C1533 1.516 . S
C1534 C1535 1.502 . S
C1534 C1536 1.561 1_556 S
C1534 C1537 1.526 1_556 S
C1535 H1519 0.959 . S
C1535 H1520 0.959 1_556 S
C1535 H1521 0.961 . S
C1535 C1534 1.502 . S
C1536 H1522 0.960 1_554 S
C1536 H1523 0.961 . S
C1536 H1524 0.959 . S
C1536 C1534 1.561 1_554 S
C1537 C1534 1.526 1_554 S
C1537 C1538 1.396 . S
C1537 C1542 1.390 . S
C1538 C1532 1.465 1_554 S
C1538 C1537 1.396 . S
C1538 C1539 1.399 . S
C1539 H1525 0.929 . S
C1539 C1538 1.399 . S
C1539 C1540 1.385 . S
C1540 H1526 0.931 . S
C1540 C1539 1.385 . S
C1540 C1541 1.389 . S
C1541 C1540 1.389 . S
C1541 C1542 1.387 . S
C1542 H1527 0.930 . S
C1542 C1537 1.390 . S
C1542 C1541 1.387 . S
H1543 C1555 0.930 . S
H1544 C1557 0.930 . S
H1545 C1558 0.930 . S
H1546 C1562 0.959 . S
H1547 C1562 0.959 . S
H1548 C1562 0.961 . S
H1549 C1563 0.960 . S
H1550 C1563 0.961 . S
H1551 C1563 0.959 . S
H1552 C1566 0.929 . S
H1553 C1567 0.931 . S
H1554 C1569 0.930 . S
C1555 H1543 0.930 . S
C1555 C1556 1.399 . S
C1555 C1560 1.399 . S
C1556 C1555 1.399 . S
C1556 C1557 1.376 . S
C1557 H1544 0.930 . S
C1557 C1556 1.376 . S
C1557 C1558 1.388 . S
C1558 H1545 0.930 . S
C1558 C1557 1.388 . S
C1558 C1559 1.390 . S
C1559 C1558 1.390 . S
C1559 C1560 1.394 . S
C1559 C1565 1.465 1_554 S
C1560 C1555 1.399 . S
C1560 C1559 1.394 . S
C1560 C1561 1.516 1_554 S
C1561 C1560 1.516 1_556 S
C1561 C1562 1.502 . S
C1561 C1563 1.561 . S
C1561 C1564 1.526 . S
C1562 H1546 0.959 . S
C1562 H1547 0.959 . S
C1562 H1548 0.961 . S
C1562 C1561 1.502 . S
C1563 H1549 0.960 . S
C1563 H1550 0.961 . S
C1563 H1551 0.959 . S
C1563 C1561 1.561 . S
C1564 C1561 1.526 . S
C1564 C1565 1.396 . S
C1564 C1569 1.390 . S
C1565 C1559 1.465 1_556 S
C1565 C1564 1.396 . S
C1565 C1566 1.399 . S
C1566 H1552 0.929 . S
C1566 C1565 1.399 . S
C1566 C1567 1.385 . S
C1567 H1553 0.931 . S
C1567 C1566 1.385 . S
C1567 C1568 1.389 . S
C1568 C1567 1.389 . S
C1568 C1569 1.387 . S
C1569 H1554 0.930 . S
C1569 C1564 1.390 . S
C1569 C1568 1.387 . S
H1570 C1582 0.930 . S
H1571 C1584 0.930 . S
H1572 C1585 0.930 . S
H1573 C1589 0.959 . S
H1574 C1589 0.959 . S
H1575 C1589 0.961 . S
H1576 C1590 0.958 . S
H1577 C1590 0.963 1_556 S
H1578 C1590 0.960 1_556 S
H1579 C1593 0.929 . S
H1580 C1594 0.931 . S
H1581 C1596 0.930 . S
C1582 H1570 0.930 . S
C1582 C1583 1.399 . S
C1582 C1587 1.399 . S
C1583 C1582 1.399 . S
C1583 C1584 1.376 . S
C1584 H1571 0.930 . S
C1584 C1583 1.376 . S
C1584 C1585 1.388 . S
C1585 H1572 0.930 . S
C1585 C1584 1.388 . S
C1585 C1586 1.390 . S
C1586 C1585 1.390 . S
C1586 C1587 1.394 . S
C1586 C1592 1.465 1_554 S
C1587 C1582 1.399 . S
C1587 C1586 1.394 . S
C1587 C1588 1.516 . S
C1588 C1587 1.516 . S
C1588 C1589 1.502 . S
C1588 C1590 1.561 . S
C1588 C1591 1.526 1_554 S
C1589 H1573 0.959 . S
C1589 H1574 0.959 . S
C1589 H1575 0.961 . S
C1589 C1588 1.502 . S
C1590 H1576 0.958 . S
C1590 H1577 0.963 1_554 S
C1590 H1578 0.960 1_554 S
C1590 C1588 1.561 . S
C1591 C1588 1.526 1_556 S
C1591 C1592 1.396 . S
C1591 C1596 1.390 . S
C1592 C1586 1.465 1_556 S
C1592 C1591 1.396 . S
C1592 C1593 1.399 . S
C1593 H1579 0.929 . S
C1593 C1592 1.399 . S
C1593 C1594 1.385 . S
C1594 H1580 0.931 . S
C1594 C1593 1.385 . S
C1594 C1595 1.389 . S
C1595 C1594 1.389 . S
C1595 C1596 1.387 . S
C1596 H1581 0.930 . S
C1596 C1591 1.390 . S
C1596 C1595 1.387 . S
H1597 C1609 0.930 . S
H1598 C1611 0.930 . S
H1599 C1612 0.930 . S
H1600 C1616 0.959 . S
H1601 C1616 0.959 . S
H1602 C1616 0.954 1_556 S
H1603 C1617 0.960 . S
H1604 C1617 0.961 . S
H1605 C1617 0.959 . S
H1606 C1620 0.929 . S
H1607 C1621 0.931 . S
H1608 C1623 0.930 . S
C1609 H1597 0.930 . S
C1609 C1610 1.399 . S
C1609 C1614 1.399 . S
C1610 C1609 1.399 . S
C1610 C1611 1.376 . S
C1611 H1598 0.930 . S
C1611 C1610 1.376 . S
C1611 C1612 1.388 . S
C1612 H1599 0.930 . S
C1612 C1611 1.388 . S
C1612 C1613 1.390 . S
C1613 C1612 1.390 . S
C1613 C1614 1.394 . S
C1613 C1619 1.465 1_556 S
C1614 C1609 1.399 . S
C1614 C1613 1.394 . S
C1614 C1615 1.516 1_556 S
C1615 C1614 1.516 1_554 S
C1615 C1616 1.502 . S
C1615 C1617 1.561 . S
C1615 C1618 1.526 . S
C1616 H1600 0.959 . S
C1616 H1601 0.959 . S
C1616 H1602 0.954 1_554 S
C1616 C1615 1.502 . S
C1617 H1603 0.960 . S
C1617 H1604 0.961 . S
C1617 H1605 0.959 . S
C1617 C1615 1.561 . S
C1618 C1615 1.526 . S
C1618 C1619 1.396 . S
C1618 C1623 1.390 . S
C1619 C1613 1.465 1_554 S
C1619 C1618 1.396 . S
C1619 C1620 1.399 . S
C1620 H1606 0.929 . S
C1620 C1619 1.399 . S
C1620 C1621 1.385 . S
C1621 H1607 0.931 . S
C1621 C1620 1.385 . S
C1621 C1622 1.389 . S
C1622 C1621 1.389 . S
C1622 C1623 1.387 . S
C1623 H1608 0.930 . S
C1623 C1618 1.390 . S
C1623 C1622 1.387 . S
C557 C88 0.990 . S
C569 C20 1.001 . S
C584 C54 0.995 . S
C596 C122 0.998 . S
C611 C224 1.002 . S
C623 C156 0.990 . S
C638 C258 1.002 . S
C650 C190 0.990 . S
C665 C292 0.989 . S
C677 C360 1.002 . S
C692 C394 0.990 . S
C704 C326 1.001 . S
C719 C496 1.002 . S
C731 C428 0.990 . S
C746 C462 1.001 . S
C758 C530 0.991 . S
C773 C9 1.549 . S
C785 C519 1.545 . S
C800 C417 1.544 . S
C812 C43 1.551 . S
C827 C451 1.570 . S
C839 C77 1.551 . S
C854 C485 1.603 . S
C866 C111 1.605 . S
C881 C315 1.587 . S
C893 C145 1.565 . S
C908 C349 1.550 . S
C920 C179 1.545 . S
C935 C383 1.569 . S
C947 C213 1.592 . S
C962 C281 1.583 . S
C974 C247 1.601 . S
C989 C2 1.432 . S
C1001 C135 1.419 . S
C1016 C33 1.415 . S
C1028 C36 1.417 . S
C1043 C70 1.430 . S
C1055 C67 1.421 . S
C1070 C101 1.431 . S
C1082 C104 1.410 . S
C1097 C203 1.430 . S
C1109 C138 1.404 . S
C1124 C172 1.432 . S
C1136 C237 1.419 . S
C1151 C271 1.416 . S
C1163 C206 1.415 . S
C1178 C169 1.423 . S
C1190 C240 1.428 . S
C1205 C274 1.409 . S
C1217 C407 1.431 . S
C1232 C305 1.431 . S
C1244 C308 1.409 . S
C1259 C342 1.408 . S
C1271 C339 1.431 . S
C1286 C376 1.403 . S
C1298 C373 1.430 . S
C1313 C410 1.403 . S
C1325 C475 1.429 . S
C1340 C509 1.415 . S
C1352 C444 1.433 . S
C1367 C543 1.416 . S
C1379 C478 1.415 . S
C1394 C512 1.432 . S
C1406 C441 1.415 . S
C1421 C5 1.592 . S
C1433 C209 1.593 . S
C1448 C243 1.599 . S
C1460 C39 1.598 . S
C1475 C141 1.604 . S
C1487 C73 1.605 . S
C1502 C175 1.595 . S
C1514 C107 1.594 . S
C1529 C277 1.592 . S
C1541 C481 1.594 . S
C1556 C515 1.598 . S
C1568 C311 1.596 . S
C1583 C413 1.594 . S
C1595 C345 1.596 . S
C1610 C379 1.595 . S
C1622 C447 1.594 . S
