# Generated by pormake.
# Topology wib, (6)-cn, num edge types: 1
# Building blocks:
#     Node 0, Type 0, BuildingBlock: VOLQOD_clean_sbu_1, # of connection points: 6
#     Node 1, Type 0, BuildingBlock: VOLQOD_clean_sbu_1, # of connection points: 6
#     Node 2, Type 0, BuildingBlock: VOLQOD_clean_sbu_1, # of connection points: 6
#     Node 3, Type 0, BuildingBlock: VOLQOD_clean_sbu_1, # of connection points: 6
#     Node 4, Type 0, BuildingBlock: VOLQOD_clean_sbu_1, # of connection points: 6
#     Node 5, Type 0, BuildingBlock: VOLQOD_clean_sbu_1, # of connection points: 6
#     Node 6, Type 0, BuildingBlock: VOLQOD_clean_sbu_1, # of connection points: 6
#     Node 7, Type 0, BuildingBlock: VOLQOD_clean_sbu_1, # of connection points: 6
#     Node 8, Type 0, BuildingBlock: VOLQOD_clean_sbu_1, # of connection points: 6
#     Node 9, Type 0, BuildingBlock: VOLQOD_clean_sbu_1, # of connection points: 6
#     Node 10, Type 0, BuildingBlock: VOLQOD_clean_sbu_1, # of connection points: 6
#     Node 11, Type 0, BuildingBlock: VOLQOD_clean_sbu_1, # of connection points: 6
#     Node 12, Type 0, BuildingBlock: VOLQOD_clean_sbu_1, # of connection points: 6
#     Node 13, Type 0, BuildingBlock: VOLQOD_clean_sbu_1, # of connection points: 6
#     Node 14, Type 0, BuildingBlock: VOLQOD_clean_sbu_1, # of connection points: 6
#     Node 15, Type 0, BuildingBlock: VOLQOD_clean_sbu_1, # of connection points: 6
#     Edge 16, Type (0, 0), BuildingBlock: AJUNOK_clean_linker_0, # of connection points: 2
#     Edge 17, Type (0, 0), BuildingBlock: AJUNOK_clean_linker_0, # of connection points: 2
#     Edge 18, Type (0, 0), BuildingBlock: AJUNOK_clean_linker_0, # of connection points: 2
#     Edge 19, Type (0, 0), BuildingBlock: AJUNOK_clean_linker_0, # of connection points: 2
#     Edge 20, Type (0, 0), BuildingBlock: AJUNOK_clean_linker_0, # of connection points: 2
#     Edge 21, Type (0, 0), BuildingBlock: AJUNOK_clean_linker_0, # of connection points: 2
#     Edge 22, Type (0, 0), BuildingBlock: AJUNOK_clean_linker_0, # of connection points: 2
#     Edge 23, Type (0, 0), BuildingBlock: AJUNOK_clean_linker_0, # of connection points: 2
#     Edge 24, Type (0, 0), BuildingBlock: AJUNOK_clean_linker_0, # of connection points: 2
#     Edge 25, Type (0, 0), BuildingBlock: AJUNOK_clean_linker_0, # of connection points: 2
#     Edge 26, Type (0, 0), BuildingBlock: AJUNOK_clean_linker_0, # of connection points: 2
#     Edge 27, Type (0, 0), BuildingBlock: AJUNOK_clean_linker_0, # of connection points: 2
#     Edge 28, Type (0, 0), BuildingBlock: AJUNOK_clean_linker_0, # of connection points: 2
#     Edge 29, Type (0, 0), BuildingBlock: AJUNOK_clean_linker_0, # of connection points: 2
#     Edge 30, Type (0, 0), BuildingBlock: AJUNOK_clean_linker_0, # of connection points: 2
#     Edge 31, Type (0, 0), BuildingBlock: AJUNOK_clean_linker_0, # of connection points: 2
#     Edge 32, Type (0, 0), BuildingBlock: AJUNOK_clean_linker_0, # of connection points: 2
#     Edge 33, Type (0, 0), BuildingBlock: AJUNOK_clean_linker_0, # of connection points: 2
#     Edge 34, Type (0, 0), BuildingBlock: AJUNOK_clean_linker_0, # of connection points: 2
#     Edge 35, Type (0, 0), BuildingBlock: AJUNOK_clean_linker_0, # of connection points: 2
#     Edge 36, Type (0, 0), BuildingBlock: AJUNOK_clean_linker_0, # of connection points: 2
#     Edge 37, Type (0, 0), BuildingBlock: AJUNOK_clean_linker_0, # of connection points: 2
#     Edge 38, Type (0, 0), BuildingBlock: AJUNOK_clean_linker_0, # of connection points: 2
#     Edge 39, Type (0, 0), BuildingBlock: AJUNOK_clean_linker_0, # of connection points: 2
#     Edge 40, Type (0, 0), BuildingBlock: AJUNOK_clean_linker_0, # of connection points: 2
#     Edge 41, Type (0, 0), BuildingBlock: AJUNOK_clean_linker_0, # of connection points: 2
#     Edge 42, Type (0, 0), BuildingBlock: AJUNOK_clean_linker_0, # of connection points: 2
#     Edge 43, Type (0, 0), BuildingBlock: AJUNOK_clean_linker_0, # of connection points: 2
#     Edge 44, Type (0, 0), BuildingBlock: AJUNOK_clean_linker_0, # of connection points: 2
#     Edge 45, Type (0, 0), BuildingBlock: AJUNOK_clean_linker_0, # of connection points: 2
#     Edge 46, Type (0, 0), BuildingBlock: AJUNOK_clean_linker_0, # of connection points: 2
#     Edge 47, Type (0, 0), BuildingBlock: AJUNOK_clean_linker_0, # of connection points: 2
#     Edge 48, Type (0, 0), BuildingBlock: AJUNOK_clean_linker_0, # of connection points: 2
#     Edge 49, Type (0, 0), BuildingBlock: AJUNOK_clean_linker_0, # of connection points: 2
#     Edge 50, Type (0, 0), BuildingBlock: AJUNOK_clean_linker_0, # of connection points: 2
#     Edge 51, Type (0, 0), BuildingBlock: AJUNOK_clean_linker_0, # of connection points: 2
#     Edge 52, Type (0, 0), BuildingBlock: AJUNOK_clean_linker_0, # of connection points: 2
#     Edge 53, Type (0, 0), BuildingBlock: AJUNOK_clean_linker_0, # of connection points: 2
#     Edge 54, Type (0, 0), BuildingBlock: AJUNOK_clean_linker_0, # of connection points: 2
#     Edge 55, Type (0, 0), BuildingBlock: AJUNOK_clean_linker_0, # of connection points: 2
#     Edge 56, Type (0, 0), BuildingBlock: AJUNOK_clean_linker_0, # of connection points: 2
#     Edge 57, Type (0, 0), BuildingBlock: AJUNOK_clean_linker_0, # of connection points: 2
#     Edge 58, Type (0, 0), BuildingBlock: AJUNOK_clean_linker_0, # of connection points: 2
#     Edge 59, Type (0, 0), BuildingBlock: AJUNOK_clean_linker_0, # of connection points: 2
#     Edge 60, Type (0, 0), BuildingBlock: AJUNOK_clean_linker_0, # of connection points: 2
#     Edge 61, Type (0, 0), BuildingBlock: AJUNOK_clean_linker_0, # of connection points: 2
#     Edge 62, Type (0, 0), BuildingBlock: AJUNOK_clean_linker_0, # of connection points: 2
#     Edge 63, Type (0, 0), BuildingBlock: AJUNOK_clean_linker_0, # of connection points: 2
# Relax obj value: 0.536
# Max RMSD: 0.268
# Mean RMSD: 0.267
data_MOF--net-wib--node1-VOLQOD_clean_sbu_1--edge1-AJUNOK_clean_linker_0
_symmetry_space_group_name_H-M    P1
_symmetry_Int_Tables_number       1
_symmetry_cell_setting            triclinic
loop_
_symmetry_equiv_pos_as_xyz
'x, y, z'
_cell_length_a     22.611616
_cell_length_b     22.595696
_cell_length_c     50.503544
_cell_angle_alpha  90.039608
_cell_angle_beta   90.066578
_cell_angle_gamma 89.944089
loop_
_atom_site_label
_atom_site_type_symbol
_atom_site_fract_x
_atom_site_fract_y
_atom_site_fract_z
_atom_type_partial_charge
O0 O 0.06029 0.60995 0.27304 0.0
Zn1 Zn 0.13505 0.5606 0.27358 0.0
O2 O 0.14463 0.5094 0.24281 0.0
Zn3 Zn 0.14566 0.42719 0.2547 0.0
Zn4 Zn 0.08161 0.52999 0.21867 0.0
Zn5 Zn 0.21662 0.52755 0.22481 0.0
O6 O 0.22532 0.38628 0.24381 0.0
O7 O 0.27688 0.46662 0.23256 0.0
O8 O 0.15079 0.51745 0.30762 0.0
O9 O 0.15565 0.42391 0.29459 0.0
O10 O 0.06235 0.3925 0.24576 0.0
O11 O 0.01962 0.46628 0.22292 0.0
O12 O 0.10935 0.53916 0.18023 0.0
O13 O 0.19247 0.62576 0.27152 0.0
O14 O 0.20621 0.53417 0.18591 0.0
O15 O 0.24417 0.60751 0.23528 0.0
C16 C 0.0427 0.63578 0.25199 0.0
C17 C 0.27454 0.41189 0.23829 0.0
C18 C 0.01743 0.41511 0.23375 0.0
C19 C 0.15905 0.46285 0.31275 0.0
C20 C 0.1617 0.54098 0.17084 0.0
C21 C 0.23007 0.64137 0.25433 0.0
O22 O 0.05077 0.61148 0.22945 0.0
O23 O 0.16435 0.32263 0.52273 0.0
Zn24 Zn 0.21655 0.39519 0.52146 0.0
O25 O 0.27134 0.39658 0.49179 0.0
Zn26 Zn 0.35245 0.39699 0.50546 0.0
Zn27 Zn 0.25026 0.33167 0.46866 0.0
Zn28 Zn 0.25838 0.46643 0.4713 0.0
O29 O 0.39488 0.47654 0.49514 0.0
O30 O 0.31726 0.52744 0.48011 0.0
O31 O 0.25704 0.41466 0.55563 0.0
O32 O 0.3523 0.40748 0.54558 0.0
O33 O 0.38793 0.31367 0.4965 0.0
O34 O 0.31518 0.27105 0.47297 0.0
O35 O 0.23976 0.35693 0.42982 0.0
O36 O 0.15428 0.45482 0.51592 0.0
O37 O 0.2593 0.45252 0.43268 0.0
O38 O 0.17724 0.49588 0.47757 0.0
C39 C 0.14278 0.29717 0.50235 0.0
C40 C 0.37067 0.52542 0.48786 0.0
C41 C 0.36617 0.26901 0.48397 0.0
C42 C 0.31129 0.41803 0.56224 0.0
C43 C 0.24587 0.40748 0.41891 0.0
C44 C 0.1413 0.48783 0.49648 0.0
O45 O 0.16983 0.29943 0.48018 0.0
O46 O 0.4553 0.41035 0.7705 0.0
Zn47 Zn 0.3838 0.46456 0.77133 0.0
O48 O 0.37964 0.52007 0.74189 0.0
Zn49 Zn 0.38041 0.60064 0.75617 0.0
Zn50 Zn 0.44359 0.50046 0.71804 0.0
Zn51 Zn 0.30867 0.50715 0.72198 0.0
O52 O 0.30142 0.64433 0.74637 0.0
O53 O 0.24934 0.56764 0.73117 0.0
O54 O 0.36844 0.50379 0.80632 0.0
O55 O 0.37053 0.59923 0.79622 0.0
O56 O 0.4642 0.63521 0.74791 0.0
O57 O 0.50607 0.56307 0.72374 0.0
O58 O 0.41792 0.4952 0.6791 0.0
O59 O 0.32193 0.40435 0.76691 0.0
O60 O 0.32135 0.50789 0.68319 0.0
O61 O 0.27762 0.42658 0.7291 0.0
C62 C 0.4769 0.38903 0.74919 0.0
C63 C 0.25216 0.62088 0.73918 0.0
C64 C 0.5088 0.61324 0.73546 0.0
C65 C 0.36337 0.55788 0.81305 0.0
C66 C 0.36656 0.49964 0.66879 0.0
C67 C 0.28629 0.39163 0.74839 0.0
O68 O 0.47325 0.41793 0.72754 0.0
O69 O 0.36918 0.70901 0.02232 0.0
Zn70 Zn 0.31491 0.63791 0.02364 0.0
O71 O 0.26262 0.63101 0.99304 0.0
Zn72 Zn 0.1806 0.62986 0.00517 0.0
Zn73 Zn 0.28273 0.69412 0.96878 0.0
Zn74 Zn 0.27942 0.55931 0.97458 0.0
O75 O 0.13979 0.54984 0.9947 0.0
O76 O 0.22022 0.49837 0.9834 0.0
O77 O 0.27176 0.62744 0.05806 0.0
O78 O 0.17825 0.62198 0.04519 0.0
O79 O 0.14478 0.71235 -0.00431 0.0
O80 O 0.21849 0.75567 0.97318 0.0
O81 O 0.28956 0.6661 0.9301 0.0
O82 O 0.37623 0.57587 0.0222 0.0
O83 O 0.28069 0.56943 0.93563 0.0
O84 O 0.36052 0.53292 0.9835 0.0
C85 C 0.39143 0.73075 0.00126 0.0
C86 C 0.16562 0.50061 0.98927 0.0
C87 C 0.16714 0.75745 0.9838 0.0
C88 C 0.21719 0.62014 0.06341 0.0
C89 C 0.28734 0.61382 0.92054 0.0
C90 C 0.39312 0.5424 0.00354 0.0
O91 O 0.36432 0.72594 0.97914 0.0
O92 O 0.9659 0.41529 0.71803 0.0
Zn93 Zn 0.89192 0.46619 0.71704 0.0
O94 O 0.88286 0.51859 0.74759 0.0
Zn95 Zn 0.88174 0.60039 0.73541 0.0
Zn96 Zn 0.94562 0.49811 0.77176 0.0
Zn97 Zn 0.81147 0.50114 0.76609 0.0
O98 O 0.8015 0.64095 0.7459 0.0
O99 O 0.75033 0.5607 0.75768 0.0
O100 O 0.87853 0.50887 0.68261 0.0
O101 O 0.87344 0.60256 0.69538 0.0
O102 O 0.96472 0.63554 0.74484 0.0
O103 O 1.00795 0.56119 0.76714 0.0
O104 O 0.91862 0.49111 0.81032 0.0
O105 O 0.83338 0.40181 0.71943 0.0
O106 O 0.82182 0.49768 0.80508 0.0
O107 O 0.786 0.41993 0.75691 0.0
C108 C 0.98148 0.38975 0.73945 0.0
C109 C 0.7524 0.61528 0.75163 0.0
C110 C 1.00982 0.61272 0.75665 0.0
C111 C 0.87097 0.56347 0.67723 0.0
C112 C 0.86656 0.49091 0.82 0.0
C113 C 0.79856 0.38586 0.73772 0.0
O114 O 0.97392 0.41537 0.76172 0.0
O115 O 0.86584 0.71909 0.46719 0.0
Zn116 Zn 0.81493 0.64543 0.46617 0.0
O117 O 0.76382 0.63548 0.497 0.0
Zn118 Zn 0.68152 0.63343 0.48512 0.0
Zn119 Zn 0.78308 0.69885 0.52127 0.0
Zn120 Zn 0.78261 0.56352 0.51506 0.0
O121 O 0.64109 0.55388 0.49632 0.0
O122 O 0.72161 0.50302 0.50802 0.0
O123 O 0.77161 0.63162 0.43198 0.0
O124 O 0.67863 0.62329 0.44523 0.0
O125 O 0.64549 0.71621 0.49395 0.0
O126 O 0.71841 0.75976 0.51696 0.0
O127 O 0.79223 0.67123 0.55983 0.0
O128 O 0.87896 0.58656 0.46755 0.0
O129 O 0.79027 0.5743 0.5539 0.0
O130 O 0.86176 0.53527 0.50398 0.0
C131 C 0.88922 0.73929 0.48835 0.0
C132 C 0.66688 0.50497 0.50233 0.0
C133 C 0.66741 0.76141 0.50597 0.0
C134 C 0.71726 0.62187 0.42692 0.0
C135 C 0.7955 0.61878 0.56911 0.0
C136 C 0.89479 0.54857 0.48456 0.0
O137 O 0.86364 0.732 0.51064 0.0
O138 O 0.56034 0.61028 0.21877 0.0
Zn139 Zn 0.63501 0.56158 0.21806 0.0
O140 O 0.64505 0.50872 0.248 0.0
Zn141 Zn 0.64579 0.42748 0.23456 0.0
Zn142 Zn 0.5819 0.52896 0.27216 0.0
Zn143 Zn 0.71721 0.52578 0.26627 0.0
O144 O 0.72542 0.38568 0.24487 0.0
O145 O 0.77698 0.46456 0.25813 0.0
O146 O 0.64964 0.52138 0.18357 0.0
O147 O 0.65516 0.42674 0.1944 0.0
O148 O 0.5623 0.39287 0.2433 0.0
O149 O 0.51992 0.46545 0.2671 0.0
O150 O 0.60956 0.53636 0.3107 0.0
O151 O 0.69238 0.6261 0.22093 0.0
O152 O 0.70645 0.5312 0.30521 0.0
O153 O 0.74589 0.6059 0.25642 0.0
C154 C 0.54342 0.63626 0.23985 0.0
C155 C 0.77457 0.41045 0.25129 0.0
C156 C 0.51757 0.41491 0.25565 0.0
C157 C 0.6577 0.4676 0.17707 0.0
C158 C 0.66185 0.53767 0.32022 0.0
C159 C 0.73121 0.64064 0.23777 0.0
O160 O 0.55141 0.61153 0.26229 0.0
O161 O 0.6628 0.32076 0.9685 0.0
Zn162 Zn 0.71616 0.39273 0.96798 0.0
O163 O 0.77064 0.39697 -0.00205 0.0
Zn164 Zn 0.85202 0.3968 0.98497 0.0
Zn165 Zn 0.74999 0.33407 0.02224 0.0
Zn166 Zn 0.75765 0.46855 0.01692 0.0
O167 O 0.89521 0.47619 0.99477 0.0
O168 O 0.81686 0.52871 0.00765 0.0
O169 O 0.75763 0.40679 0.93337 0.0
O170 O 0.85216 0.40538 0.94502 0.0
O171 O 0.88665 0.31361 0.99412 0.0
O172 O 0.81423 0.27227 0.0182 0.0
O173 O 0.73901 0.3627 0.06071 0.0
O174 O 0.65434 0.45399 0.97173 0.0
O175 O 0.75711 0.45813 0.05563 0.0
O176 O 0.67692 0.49736 0.00963 0.0
C177 C 0.64153 0.29747 0.98943 0.0
C178 C 0.87078 0.52579 0.00079 0.0
C179 C 0.86466 0.26932 0.00675 0.0
C180 C 0.81221 0.41139 0.92743 0.0
C181 C 0.74339 0.41479 0.07031 0.0
C182 C 0.64117 0.48831 0.99071 0.0
O183 O 0.66924 0.30159 0.0114 0.0
O184 O 0.56997 0.11795 0.77121 0.0
Zn185 Zn 0.6423 0.06528 0.77324 0.0
O186 O 0.65016 1.00981 0.74379 0.0
Zn187 Zn 0.65036 0.92877 0.75751 0.0
Zn188 Zn 0.58743 0.0284 0.71905 0.0
Zn189 Zn 0.72235 0.02405 0.72528 0.0
O190 O 0.72995 0.88562 0.74792 0.0
O191 O 0.78188 0.96358 0.73412 0.0
O192 O 0.65304 0.02535 0.80831 0.0
O193 O 0.65798 0.93034 0.79761 0.0
O194 O 0.56729 0.89334 0.7485 0.0
O195 O 0.52549 0.96507 0.72409 0.0
O196 O 0.6156 0.03396 0.68053 0.0
O197 O 0.70356 0.12717 0.77041 0.0
O198 O 0.71218 0.02594 0.6864 0.0
O199 O 0.75196 0.104 0.73379 0.0
C200 C 0.54952 0.13909 0.74965 0.0
C201 C 0.7792 0.9098 0.7413 0.0
C202 C 0.52279 0.91496 0.73582 0.0
C203 C 0.65972 0.97138 0.81491 0.0
C204 C 0.66798 0.03237 0.67118 0.0
C205 C 0.74091 0.13964 0.75255 0.0
O206 O 0.55558 0.11055 0.72801 0.0
O207 O 0.6685 0.80759 0.02198 0.0
Zn208 Zn 0.71621 0.88341 0.02373 0.0
O209 O 0.76996 0.89551 0.99406 0.0
Zn210 Zn 0.85107 0.89599 0.00726 0.0
Zn211 Zn 0.75108 0.83442 0.96874 0.0
Zn212 Zn 0.75297 0.96893 0.97704 0.0
O213 O 0.89301 0.97593 -0.00278 0.0
O214 O 0.81321 0.02864 0.98607 0.0
O215 O 0.75587 0.90033 0.05843 0.0
O216 O 0.85074 0.90498 0.04736 0.0
O217 O 0.88611 0.81291 -0.00217 0.0
O218 O 0.81474 0.772 0.97287 0.0
O219 O 0.7423 0.86516 0.93067 0.0
O220 O 0.64975 0.93891 0.02035 0.0
O221 O 0.74798 0.96145 0.93813 0.0
O222 O 0.6722 0.99577 0.98624 0.0
C223 C 0.64316 0.79399 0.00022 0.0
C224 C 0.86776 0.02562 0.992 0.0
C225 C 0.86487 0.76896 0.98464 0.0
C226 C 0.80983 0.90891 0.06461 0.0
C227 C 0.74028 0.91845 0.92234 0.0
C228 C 0.63585 0.97841 0.00371 0.0
O229 O 0.66892 0.80407 0.97822 0.0
O230 O 0.95467 0.91126 0.27388 0.0
Zn231 Zn 0.88227 0.96372 0.27372 0.0
O232 O 0.87888 0.01769 0.24365 0.0
Zn233 Zn 0.87899 0.09925 0.2565 0.0
Zn234 Zn 0.94258 0.9959 0.21999 0.0
Zn235 Zn 0.80813 1.00417 0.22416 0.0
O236 O 0.79986 0.14231 0.24608 0.0
O237 O 0.74792 0.06392 0.2327 0.0
O238 O 0.86765 1.0056 0.30818 0.0
O239 O 0.87031 0.10012 0.29651 0.0
O240 O 0.96224 0.13354 0.24748 0.0
O241 O 1.00481 0.05933 0.22481 0.0
O242 O 0.91619 0.98834 0.18109 0.0
O243 O 0.82163 0.90139 0.26968 0.0
O244 O 0.82016 1.00356 0.1855 0.0
O245 O 0.77914 0.92377 0.23155 0.0
C246 C 0.97607 0.88734 0.25311 0.0
C247 C 0.75063 0.11796 0.23951 0.0
C248 C 1.00713 0.11057 0.23562 0.0
C249 C 0.86381 0.06029 0.31411 0.0
C250 C 0.86469 0.99336 0.17095 0.0
C251 C 0.78775 0.88815 0.25054 0.0
O252 O 0.97222 0.91366 0.23079 0.0
O253 O 0.8673 0.21583 0.52337 0.0
Zn254 Zn 0.81751 0.1413 0.52425 0.0
O255 O 0.76329 0.13239 0.49446 0.0
Zn256 Zn 0.68238 0.13254 0.50792 0.0
Zn257 Zn 0.78274 0.19534 0.47027 0.0
Zn258 Zn 0.77894 0.06038 0.47579 0.0
O259 O 0.63932 0.05379 0.49722 0.0
O260 O 0.71762 1.00115 0.48409 0.0
O261 O 0.77801 0.12423 0.55888 0.0
O262 O 0.68303 0.12158 0.5479 0.0
O263 O 0.64804 0.21649 0.4996 0.0
O264 O 0.7204 0.25831 0.47565 0.0
O265 O 0.78815 0.16831 0.43166 0.0
O266 O 0.88161 0.08325 0.52052 0.0
O267 O 0.78236 0.07135 0.43684 0.0
O268 O 0.85915 0.03089 0.48484 0.0
C269 C 0.89207 0.23129 0.50178 0.0
C270 C 0.66351 1.00432 0.49075 0.0
C271 C 0.67011 0.26108 0.48721 0.0
C272 C 0.72403 0.11632 0.56507 0.0
C273 C 0.78839 0.11619 0.42194 0.0
C274 C 0.89467 0.04453 0.50335 0.0
O275 O 0.86578 0.22345 0.47969 0.0
O276 O 0.459 0.91199 0.21813 0.0
Zn277 Zn 0.38563 0.9628 0.21758 0.0
O278 O 0.3803 0.01836 0.24692 0.0
Zn279 Zn 0.37939 0.09908 0.23299 0.0
Zn280 Zn 0.44437 0.99846 0.27073 0.0
Zn281 Zn 0.30959 1.00472 0.26649 0.0
O282 O 0.29969 0.14164 0.24283 0.0
O283 O 0.24876 0.06357 0.25726 0.0
O284 O 0.37224 1.00215 0.18261 0.0
O285 O 0.37131 0.09753 0.19286 0.0
O286 O 0.46233 0.1347 0.24178 0.0
O287 O 0.50601 0.06194 0.26499 0.0
O288 O 0.41845 0.99415 0.30958 0.0
O289 O 0.32582 0.9 0.22201 0.0
O290 O 0.32191 1.00693 0.30524 0.0
O291 O 0.28133 0.92343 0.25962 0.0
C292 C 0.47943 0.88854 0.23918 0.0
C293 C 0.2508 0.11717 0.24976 0.0
C294 C 0.50763 0.11268 0.25373 0.0
C295 C 0.36735 0.05616 0.17579 0.0
C296 C 0.36707 0.99913 0.31977 0.0
C297 C 0.2911 0.88732 0.24088 0.0
O298 O 0.4743 0.91528 0.26135 0.0
O299 O 0.3681 0.2112 0.96823 0.0
Zn300 Zn 0.31679 0.13799 0.96624 0.0
O301 O 0.26167 0.12865 -0.00429 0.0
Zn302 Zn 0.1806 0.12927 0.9821 0.0
Zn303 Zn 0.28116 0.19038 0.02081 0.0
Zn304 Zn 0.27572 0.05565 0.01355 0.0
O305 O 0.13675 0.04996 0.99142 0.0
O306 O 0.21412 0.99713 0.00528 0.0
O307 O 0.2765 0.12738 0.93129 0.0
O308 O 0.18163 0.12273 0.942 0.0
O309 O 0.14626 0.21238 0.99139 0.0
O310 O 0.21836 0.25337 0.01591 0.0
O311 O 0.28854 0.16104 0.05919 0.0
O312 O 0.37973 0.07758 0.96897 0.0
O313 O 0.28191 0.06462 0.05232 0.0
O314 O 0.35434 0.02497 0.00405 0.0
C315 C 0.39136 0.22789 0.98999 0.0
C316 C 0.16039 1.00042 -0.00188 0.0
C317 C 0.1683 0.25662 0.00409 0.0
C318 C 0.22251 0.12113 0.92468 0.0
C319 C 0.28997 0.108 0.06784 0.0
C320 C 0.391 0.03793 0.98601 0.0
O321 O 0.36398 0.22028 0.0118 0.0
O322 O 0.06779 0.11608 0.71589 0.0
Zn323 Zn 0.14147 0.06517 0.71531 0.0
O324 O 0.14859 1.01159 0.74548 0.0
Zn325 Zn 0.14974 0.92956 0.73327 0.0
Zn326 Zn 0.08603 0.03175 0.77 0.0
Zn327 Zn 0.22091 0.02665 0.7635 0.0
O328 O 0.22945 0.8874 0.74374 0.0
O329 O 0.28164 0.96742 0.75472 0.0
O330 O 0.15608 0.02254 0.68102 0.0
O331 O 0.15841 0.92836 0.69336 0.0
O332 O 0.06709 0.8942 0.74258 0.0
O333 O 0.025 0.9667 0.76644 0.0
O334 O 0.11581 0.04334 0.80817 0.0
O335 O 0.19996 0.12987 0.71849 0.0
O336 O 0.21175 0.0296 0.80221 0.0
O337 O 0.24777 0.10743 0.75538 0.0
C338 C 0.04611 0.13846 0.73696 0.0
C339 C 0.27896 0.91274 0.74904 0.0
C340 C 0.02264 0.91593 0.7552 0.0
C341 C 0.16257 0.96785 0.67548 0.0
C342 C 0.1685 0.04148 0.81726 0.0
C343 C 0.23542 0.14347 0.73698 0.0
O344 O 0.05223 0.1121 0.75916 0.0
O345 O 0.16373 0.82324 0.46659 0.0
Zn346 Zn 0.21606 0.89619 0.46685 0.0
O347 O 0.27173 0.89958 0.49636 0.0
Zn348 Zn 0.35246 0.89837 0.48266 0.0
Zn349 Zn 0.25115 0.83575 0.51992 0.0
Zn350 Zn 0.25955 0.97059 0.51612 0.0
O351 O 0.39679 0.97684 0.49281 0.0
O352 O 0.32007 0.02977 0.50731 0.0
O353 O 0.25597 0.91498 0.43244 0.0
O354 O 0.3513 0.90907 0.44276 0.0
O355 O 0.38644 0.81432 0.49097 0.0
O356 O 0.31347 0.77252 0.51455 0.0
O357 O 0.24381 0.86174 0.55868 0.0
O358 O 0.15355 0.95575 0.47223 0.0
O359 O 0.25852 0.95803 0.55478 0.0
O360 O 0.1793 1.0015 0.50919 0.0
C361 C 0.14047 0.80422 0.48796 0.0
C362 C 0.37352 0.0264 0.49977 0.0
C363 C 0.36389 0.76958 0.50308 0.0
C364 C 0.31029 0.91886 0.426 0.0
C365 C 0.24755 0.91312 0.56902 0.0
C366 C 0.14209 0.99128 0.49097 0.0
O367 O 0.16832 0.80835 0.50987 0.0
C368 C 0.37315 0.378 0.22246 0.0
C369 C 0.33251 0.38345 0.24345 0.0
C370 C 0.43468 0.37945 0.22701 0.0
C371 C 0.45767 0.38838 0.25264 0.0
H372 H 0.35737 0.37869 0.2022 0.0
H373 H 0.46396 0.38064 0.21005 0.0
S374 S 0.37017 0.39697 0.3146 0.0
N375 N 0.31993 0.39007 0.29103 0.0
N376 N 0.43498 0.39534 0.29951 0.0
C377 C 0.41761 0.38812 0.27395 0.0
C378 C 0.35517 0.38496 0.26936 0.0
C379 C 0.38704 0.66986 0.52208 0.0
C380 C 0.39064 0.70948 0.50059 0.0
C381 C 0.39148 0.60825 0.51835 0.0
C382 C 0.39835 0.58379 0.4929 0.0
H383 H 0.37555 0.68625 0.54157 0.0
H384 H 0.38216 0.57955 0.53502 0.0
S385 S 0.41855 0.6681 0.43066 0.0
N386 N 0.40974 0.71975 0.4535 0.0
N387 N 0.41545 0.60411 0.44642 0.0
C388 C 0.40791 0.62302 0.47173 0.0
C389 C 0.40474 0.68584 0.47559 0.0
C390 C 0.15336 0.65703 0.72462 0.0
C391 C 0.19433 0.6485 0.74532 0.0
C392 C 0.0919 0.65396 0.72914 0.0
C393 C 0.06937 0.64038 0.7544 0.0
H394 H 0.16893 0.65991 0.70437 0.0
H395 H 0.06245 0.65525 0.71221 0.0
S396 S 0.15767 0.62241 0.81583 0.0
N397 N 0.20753 0.63399 0.79252 0.0
N398 N 0.09269 0.6259 0.80089 0.0
C399 C 0.10966 0.63771 0.77564 0.0
C400 C 0.17198 0.64244 0.77113 0.0
C401 C 0.14476 0.35628 0.02299 0.0
C402 C 0.14212 0.31686 0.00139 0.0
C403 C 0.14165 0.41794 0.01929 0.0
C404 C 0.13703 0.44257 0.99379 0.0
H405 H 0.15461 0.33961 0.04262 0.0
H406 H 0.15015 0.44644 0.03614 0.0
S407 S 0.12038 0.359 0.93109 0.0
N408 N 0.12654 0.30712 0.95398 0.0
N409 N 0.12321 0.42284 0.94701 0.0
C410 C 0.12842 0.40367 0.9724 0.0
C411 C 0.13028 0.34082 0.97621 0.0
C412 C 0.59252 0.64724 0.76397 0.0
C413 C 0.56884 0.63949 0.7384 0.0
C414 C 0.65416 0.6484 0.76818 0.0
C415 C 0.69425 0.64375 0.74694 0.0
H416 H 0.56369 0.64538 0.78107 0.0
H417 H 0.67049 0.64687 0.78835 0.0
S418 S 0.65465 0.63361 0.6759 0.0
N419 N 0.59025 0.63465 0.69135 0.0
N420 N 0.70555 0.63926 0.69925 0.0
C421 C 0.67091 0.64341 0.72115 0.0
C422 C 0.60833 0.64061 0.71688 0.0
C423 C 0.63597 0.34523 0.51543 0.0
C424 C 0.6436 0.3211 0.48994 0.0
C425 C 0.6344 0.40699 0.51939 0.0
C426 C 0.63851 0.44669 0.49797 0.0
H427 H 0.63822 0.31672 0.53264 0.0
H428 H 0.63607 0.42373 0.53949 0.0
S429 S 0.64833 0.40572 0.42708 0.0
N430 N 0.64789 0.34159 0.4428 0.0
N431 N 0.64246 0.45708 0.45023 0.0
C432 C 0.63873 0.42282 0.47227 0.0
C433 C 0.64198 0.36016 0.46826 0.0
C434 C 0.87344 0.37577 0.26659 0.0
C435 C 0.83256 0.38245 0.24572 0.0
C436 C 0.93492 0.37767 0.26201 0.0
C437 C 0.95762 0.38826 0.23649 0.0
H438 H 0.85785 0.37512 0.28687 0.0
H439 H 0.96437 0.37784 0.27895 0.0
S440 S 0.86951 0.40053 0.17475 0.0
N441 N 0.81952 0.39201 0.19826 0.0
N442 N 0.93446 0.3981 0.18975 0.0
C443 C 0.91736 0.38922 0.21522 0.0
C444 C 0.85498 0.38562 0.21982 0.0
C445 C 0.90646 0.62389 0.01636 0.0
C446 C 0.89917 0.58356 -0.00469 0.0
C447 C 0.90381 0.68553 0.01217 0.0
C448 C 0.89192 0.70897 0.98688 0.0
H449 H 0.90796 0.60769 0.03654 0.0
H450 H 0.90409 0.71444 0.0293 0.0
S451 S 0.87863 0.62255 0.92467 0.0
N452 N 0.88821 0.57187 0.94784 0.0
N453 N 0.88097 0.68711 0.94003 0.0
C454 C 0.89068 0.6693 0.96536 0.0
C455 C 0.89496 0.60676 0.96957 0.0
C456 C 0.86231 0.88741 0.77137 0.0
C457 C 0.83717 0.88105 0.74602 0.0
C458 C 0.92397 0.89162 0.77479 0.0
C459 C 0.96294 0.88834 0.75308 0.0
H460 H 0.83408 0.89666 0.78821 0.0
H461 H 0.94087 0.90296 0.79423 0.0
S462 S 0.91963 0.86153 0.68326 0.0
N463 N 0.85615 0.86448 0.69938 0.0
N464 N 0.97187 0.86987 0.70586 0.0
C465 C 0.93863 0.87452 0.72816 0.0
C466 C 0.87576 0.87152 0.72462 0.0
C467 C 0.89093 0.10813 0.02229 0.0
C468 C 0.89686 0.08335 -0.00315 0.0
C469 C 0.88765 0.16981 0.02595 0.0
C470 C 0.89137 0.20918 0.00438 0.0
H471 H 0.88143 0.0797 0.03903 0.0
H472 H 0.8767 0.18652 0.04546 0.0
S473 S 0.91701 0.1668 0.93439 0.0
N474 N 0.91326 0.10299 0.95027 0.0
N475 N 0.90961 0.21875 0.95719 0.0
C476 C 0.90463 0.18512 0.97937 0.0
C477 C 0.90668 0.12222 0.97559 0.0
C478 C 0.60623 0.13959 0.27275 0.0
C479 C 0.56709 0.14028 0.25101 0.0
C480 C 0.66785 0.14364 0.26918 0.0
C481 C 0.69269 0.14709 0.2437 0.0
H482 H 0.58949 0.13041 0.29241 0.0
H483 H 0.69626 0.13642 0.28618 0.0
S484 S 0.60957 0.15842 0.18063 0.0
N485 N 0.55758 0.15279 0.20345 0.0
N486 N 0.67321 0.15781 0.19674 0.0
C487 C 0.65387 0.15392 0.22214 0.0
C488 C 0.59107 0.15113 0.22579 0.0
C489 C 0.64247 0.86067 0.52486 0.0
C490 C 0.63981 0.82101 0.50334 0.0
C491 C 0.6391 0.92229 0.52103 0.0
C492 C 0.6343 0.94663 0.49547 0.0
H493 H 0.65281 0.84426 0.54448 0.0
H494 H 0.64784 0.95098 0.53779 0.0
S495 S 0.61685 0.8622 0.43304 0.0
N496 N 0.62348 0.81062 0.45603 0.0
N497 N 0.61979 0.92626 0.44879 0.0
C498 C 0.62539 0.90743 0.47421 0.0
C499 C 0.62744 0.84462 0.47816 0.0
C500 C 0.10591 0.13499 0.21623 0.0
C501 C 0.06687 0.13785 0.23792 0.0
C502 C 0.16754 0.13934 0.21971 0.0
C503 C 0.19253 0.14531 0.2451 0.0
H504 H 0.08907 0.12402 0.19674 0.0
H505 H 0.19586 0.13054 0.20286 0.0
S506 S 0.10974 0.16298 0.3079 0.0
N507 N 0.05762 0.1551 0.28521 0.0
N508 N 0.1733 0.16066 0.29182 0.0
C509 C 0.15383 0.15419 0.26653 0.0
C510 C 0.091 0.15111 0.26292 0.0
C511 C 0.13754 0.91783 0.96789 0.0
C512 C 0.1313 0.94269 0.99329 0.0
C513 C 0.14209 0.85618 0.96435 0.0
C514 C 0.13912 0.81697 0.98599 0.0
H515 H 0.1466 0.94627 0.9511 0.0
H516 H 0.15346 0.83948 0.94489 0.0
S517 S 0.1126 0.85939 0.05589 0.0
N518 N 0.11513 0.92312 0.0399 0.0
N519 N 0.12099 0.8074 0.03317 0.0
C520 C 0.12531 0.84095 0.01095 0.0
C521 C 0.12204 0.90381 0.01461 0.0
C522 C 0.42409 0.88993 0.71637 0.0
C523 C 0.46281 0.88818 0.73825 0.0
C524 C 0.36233 0.88693 0.71967 0.0
C525 C 0.33685 0.88329 0.74503 0.0
H526 H 0.44135 0.89916 0.6968 0.0
H527 H 0.33439 0.89489 0.70258 0.0
S528 S 0.41849 0.86919 0.80837 0.0
N529 N 0.47105 0.8745 0.7858 0.0
N530 N 0.3552 0.87127 0.79201 0.0
C531 C 0.37513 0.87545 0.76671 0.0
C532 C 0.43807 0.87725 0.76333 0.0
C533 C 0.40756 0.18592 0.51098 0.0
C534 C 0.39416 0.20943 0.48586 0.0
C535 C 0.4105 0.12424 0.51507 0.0
C536 C 0.40195 0.08403 0.49406 0.0
H537 H 0.40869 0.21476 0.52812 0.0
H538 H 0.41311 0.10794 0.53521 0.0
S539 S 0.37652 0.12332 0.42377 0.0
N540 N 0.38011 0.18779 0.43916 0.0
N541 N 0.3878 0.07256 0.44676 0.0
C542 C 0.39622 0.10733 0.46841 0.0
C543 C 0.3917 0.16988 0.46432 0.0
C544 C 0.29183 0.7212 0.23513 0.0
C545 C 0.24813 0.7039 0.25327 0.0
C546 C 0.30346 0.78081 0.23045 0.0
C547 C 0.27197 0.82554 0.24379 0.0
H548 H 0.31682 0.68848 0.22413 0.0
H549 H 0.3384 0.79167 0.21661 0.0
S550 S 0.15275 0.80416 0.29322 0.0
N551 N 0.17287 0.73657 0.28473 0.0
N552 N 0.1952 0.84889 0.27582 0.0
C553 C 0.22835 0.80908 0.26211 0.0
C554 C 0.21649 0.74824 0.26696 0.0
C555 C 0.03585 0.47991 0.50933 0.0
C556 C 0.07937 0.50665 0.49344 0.0
C557 C 0.97599 0.49083 0.50513 0.0
C558 C 0.95705 0.52933 0.48501 0.0
H559 H 0.04777 0.44935 0.52498 0.0
H560 H 0.94446 0.4698 0.51824 0.0
S561 S 0.0534 0.60951 0.43736 0.0
N562 N 0.09967 0.5724 0.45641 0.0
N563 N 0.98673 0.59326 0.4484 0.0
C564 C 1.00004 0.55567 0.46858 0.0
C565 C 0.06125 0.54451 0.47291 0.0
C566 C 0.25582 0.30519 0.72134 0.0
C567 C 0.26611 0.33007 0.74645 0.0
C568 C 0.2484 0.24425 0.71828 0.0
C569 C 0.2512 0.2061 0.7402 0.0
H570 H 0.25562 0.33258 0.70374 0.0
H571 H 0.24049 0.22691 0.69858 0.0
S572 S 0.27048 0.25029 0.8106 0.0
N573 N 0.27411 0.31284 0.79386 0.0
N574 N 0.26037 0.19809 0.7882 0.0
C575 C 0.25982 0.23066 0.76555 0.0
C576 C 0.26693 0.29273 0.76866 0.0
C577 C 0.53637 0.48362 0.97614 0.0
C578 C 0.57901 0.50689 0.99358 0.0
C579 C 0.47617 0.4924 0.98045 0.0
C580 C 0.45596 0.52516 0.0023 0.0
H581 H 0.54927 0.45723 0.95918 0.0
H582 H 0.44536 0.47409 0.9662 0.0
S583 S 0.5495 0.59551 0.05412 0.0
N584 N 0.59695 0.56423 0.03366 0.0
N585 N 0.48349 0.5806 0.04192 0.0
C586 C 0.49805 0.54846 0.0201 0.0
C587 C 0.55958 0.53971 0.01561 0.0
C588 C 0.73935 0.30564 0.75813 0.0
C589 C 0.78263 0.32293 0.7398 0.0
C590 C 0.72872 0.24603 0.76328 0.0
C591 C 0.7609 0.20131 0.75026 0.0
H592 H 0.71352 0.3384 0.76871 0.0
H593 H 0.6936 0.23516 0.77702 0.0
S594 S 0.88155 0.2229 0.70154 0.0
N595 N 0.85975 0.29044 0.70926 0.0
N596 N 0.8395 0.1781 0.7191 0.0
C597 C 0.80511 0.21783 0.73223 0.0
C598 C 0.81584 0.27866 0.72686 0.0
C599 C 0.79124 0.78336 0.26529 0.0
C600 C 0.76887 0.8261 0.24765 0.0
C601 C 0.78189 0.72317 0.26102 0.0
C602 C 0.74945 0.70317 0.23902 0.0
H603 H 0.81724 0.79618 0.28239 0.0
H604 H 0.79925 0.69229 0.27548 0.0
S605 S 0.682 0.797 0.18654 0.0
N606 N 0.71304 0.84429 0.20717 0.0
N607 N 0.69583 0.73092 0.19893 0.0
C608 C 0.72725 0.74536 0.221 0.0
C609 C 0.73653 0.80682 0.22545 0.0
C610 C 0.55713 0.03923 0.98282 0.0
C611 C 0.57312 0.99477 0.00089 0.0
C612 C 0.49798 0.05025 0.97683 0.0
C613 C 0.45239 0.01734 0.98875 0.0
H614 H 0.59056 0.06564 0.97303 0.0
H615 H 0.48809 0.08623 0.96336 0.0
S616 S 0.47036 0.89427 0.03669 0.0
N617 N 0.53834 0.91631 0.03024 0.0
N618 N 0.42697 0.93715 0.01876 0.0
C619 C 0.4676 0.97207 0.00655 0.0
C620 C 0.52793 0.96098 0.01279 0.0
C621 C 0.04077 1.00384 0.47305 0.0
C622 C 0.08029 1.01 0.49438 0.0
C623 C 0.98014 1.01154 0.47654 0.0
C624 C 0.95674 0.02603 0.50148 0.0
H625 H 0.05666 0.99228 0.45348 0.0
H626 H 0.95172 1.00783 0.45934 0.0
S627 S 0.04073 0.04477 0.56408 0.0
N628 N 0.09148 0.02977 0.5416 0.0
N629 N 0.97709 0.04463 0.54806 0.0
C630 C 0.99554 0.03196 0.52307 0.0
C631 C 0.05744 0.0242 0.51952 0.0
C632 C 0.20232 0.49008 0.35652 0.0
C633 C 0.18034 0.44581 0.33961 0.0
C634 C 0.22593 0.4764 0.38134 0.0
C635 C 0.22816 0.41773 0.39081 0.0
H636 H 0.2019 0.53611 0.35053 0.0
H637 H 0.24134 0.5129 0.39342 0.0
S638 S 0.17817 0.28453 0.35398 0.0
N639 N 0.16415 0.34009 0.33367 0.0
N640 N 0.20752 0.31444 0.38079 0.0
C641 C 0.2072 0.3726 0.37399 0.0
C642 C 0.18354 0.38659 0.34837 0.0
C643 C 0.39565 0.44897 0.62632 0.0
C644 C 0.35663 0.4863 0.64028 0.0
C645 C 0.38109 0.42714 0.60101 0.0
C646 C 0.32673 0.4413 0.58891 0.0
H647 H 0.43661 0.43452 0.6354 0.0
H648 H 0.41192 0.39773 0.59118 0.0
S649 S 0.21324 0.54451 0.61543 0.0
N650 N 0.26435 0.54164 0.63873 0.0
N651 N 0.23683 0.50029 0.59166 0.0
C652 C 0.28874 0.48083 0.60216 0.0
C653 C 0.30376 0.50344 0.62767 0.0
C654 C 0.35332 0.62864 0.85142 0.0
C655 C 0.34225 0.57263 0.84016 0.0
C656 C 0.33291 0.64312 0.87695 0.0
C657 C 0.30012 0.60235 0.89207 0.0
H658 H 0.37903 0.66111 0.84067 0.0
H659 H 0.3447 0.68577 0.88521 0.0
S660 S 0.25121 0.45322 0.86999 0.0
N661 N 0.29106 0.47861 0.84513 0.0
N662 N 0.25229 0.50588 0.89262 0.0
C663 C 0.28616 0.54741 0.88041 0.0
C664 C 0.30736 0.53252 0.85464 0.0
C665 C 0.24482 0.59109 0.10953 0.0
C666 C 0.20014 0.6023 0.09079 0.0
C667 C 0.23162 0.56963 0.13479 0.0
C668 C 0.17294 0.55864 0.14283 0.0
H669 H 0.2909 0.59823 0.10466 0.0
H670 H 0.26827 0.56236 0.14823 0.0
S671 S 0.03888 0.58063 0.10142 0.0
N672 N 0.09415 0.60044 0.08202 0.0
N673 N 0.06935 0.56075 0.12979 0.0
C674 C 0.1275 0.56969 0.12437 0.0
C675 C 0.14105 0.59139 0.09838 0.0
C676 C 0.82604 0.54919 0.60505 0.0
C677 C 0.81229 0.60754 0.59725 0.0
C678 C 0.84621 0.53612 0.63055 0.0
C679 C 0.8534 0.58057 0.64978 0.0
H680 H 0.82199 0.51273 0.59123 0.0
H681 H 0.8558 0.4903 0.63518 0.0
S682 S 0.82251 0.74084 0.64005 0.0
N683 N 0.80693 0.71052 0.61111 0.0
N684 N 0.8442 0.68595 0.65934 0.0
C685 C 0.83951 0.63932 0.64246 0.0
C686 C 0.81911 0.65275 0.61622 0.0
C687 C 0.73181 0.56346 0.35676 0.0
C688 C 0.67295 0.55512 0.34829 0.0
C689 C 0.74511 0.58632 0.38179 0.0
C690 C 0.70034 0.60157 0.39986 0.0
H691 H 0.76855 0.55326 0.34379 0.0
H692 H 0.79131 0.5915 0.38699 0.0
S693 S 0.53867 0.58669 0.38819 0.0
N694 N 0.56912 0.5631 0.36041 0.0
N695 N 0.59415 0.60531 0.40778 0.0
C696 C 0.6411 0.59259 0.39199 0.0
C697 C 0.62745 0.56952 0.36622 0.0
C698 C 0.71851 0.38374 0.11712 0.0
C699 C 0.72282 0.4282 0.09771 0.0
C700 C 0.69614 0.39625 0.14255 0.0
C701 C 0.67638 0.45354 0.14944 0.0
H702 H 0.7329 0.33907 0.11271 0.0
H703 H 0.69506 0.36084 0.15698 0.0
S704 S 0.67369 0.5848 0.10508 0.0
N705 N 0.70247 0.53148 0.08691 0.0
N706 N 0.6601 0.55435 0.13407 0.0
C707 C 0.67915 0.49795 0.12994 0.0
C708 C 0.70245 0.48549 0.10431 0.0
C709 C 0.79703 0.46902 0.85714 0.0
C710 C 0.85582 0.47468 0.84822 0.0
C711 C 0.78385 0.44735 0.88237 0.0
C712 C 0.82871 0.4306 0.90018 0.0
H713 H 0.76023 0.48044 0.84438 0.0
H714 H 0.7377 0.44416 0.88793 0.0
S715 S 0.9904 0.43853 0.88727 0.0
N716 N 0.95974 0.46272 0.85962 0.0
N717 N 0.93502 0.42266 0.90732 0.0
C718 C 0.88794 0.43691 0.89182 0.0
C719 C 0.90145 0.45884 0.86588 0.0
C720 C 0.70169 0.90163 0.84906 0.0
C721 C 0.67623 0.95694 0.84273 0.0
C722 C 0.72291 0.88935 0.87469 0.0
C723 C 0.72005 0.93206 0.89493 0.0
H724 H 0.7064 0.86783 0.83399 0.0
H725 H 0.74223 0.84633 0.87858 0.0
S726 S 0.65199 0.08174 0.8894 0.0
N727 N 0.64561 0.05311 0.8595 0.0
N728 N 0.68554 0.03065 0.90724 0.0
C729 C 0.69329 0.98702 0.88898 0.0
C730 C 0.67137 0.99926 0.86305 0.0
C731 C 0.88062 0.92264 0.10273 0.0
C732 C 0.82429 0.93166 0.09146 0.0
C733 C 0.89483 0.94526 0.12793 0.0
C734 C 0.85353 0.97852 0.14263 0.0
H735 H 0.91354 0.89686 0.09224 0.0
H736 H 0.93777 0.93494 0.13627 0.0
S737 S 0.70297 0.02221 0.12014 0.0
N738 N 0.7291 0.98092 0.09587 0.0
N739 N 0.75591 0.0243 0.14261 0.0
C740 C 0.79817 0.9904 0.13086 0.0
C741 C 0.7835 0.9667 0.1055 0.0
C742 C 0.80342 0.04691 0.38396 0.0
C743 C 0.80338 0.10549 0.39358 0.0
C744 C 0.82404 0.0331 0.35861 0.0
C745 C 0.84529 0.07714 0.34141 0.0
H746 H 0.78826 1.01073 0.39626 0.0
H747 H 0.82281 0.98717 0.35246 0.0
S748 S 0.85361 0.238 0.35641 0.0
N749 N 0.82589 0.20837 0.38357 0.0
N750 N 0.864 0.18248 0.33565 0.0
C751 C 0.84463 0.13623 0.35047 0.0
C752 C 0.82376 0.15036 0.37653 0.0
C753 C 0.65267 0.10162 0.60276 0.0
C754 C 0.70942 0.09344 0.59186 0.0
C755 C 0.63819 0.07905 0.6279 0.0
C756 C 0.67973 0.04685 0.64293 0.0
H757 H 0.61955 0.12669 0.59204 0.0
H758 H 0.59486 0.08873 0.63595 0.0
S759 S 0.8316 1.00559 0.62159 0.0
N760 N 0.80539 0.04594 0.59701 0.0
N761 N 0.77812 1.00296 0.64374 0.0
C762 C 0.7356 0.03585 0.63159 0.0
C763 C 0.7505 0.05934 0.60625 0.0
C764 C 0.3055 0.13762 0.11558 0.0
C765 C 0.3097 0.09494 0.09537 0.0
C766 C 0.32574 0.12551 0.14139 0.0
C767 C 0.35144 0.07044 0.14791 0.0
H768 H 0.2858 0.18039 0.11153 0.0
H769 H 0.32005 0.15919 0.15645 0.0
S770 S 0.37959 0.94621 0.10139 0.0
N771 N 0.34618 0.99692 0.08328 0.0
N772 N 0.38411 0.97476 0.13138 0.0
C773 C 0.35774 0.02825 0.12763 0.0
C774 C 0.33691 0.04032 0.10152 0.0
C775 C 0.15125 0.08345 0.89012 0.0
C776 C 0.20784 0.10528 0.8968 0.0
C777 C 0.1385 0.06252 0.86449 0.0
C778 C 0.18205 0.06196 0.84463 0.0
H779 H 0.1167 0.08134 0.90493 0.0
H780 H 0.09452 0.04597 0.86032 0.0
S781 S 0.33562 0.11978 0.85107 0.0
N782 N 0.30634 0.12905 0.88065 0.0
N783 N 0.28309 0.08934 0.83298 0.0
C784 C 0.23836 0.0852 0.85089 0.0
C785 C 0.25103 0.10697 0.87679 0.0
C786 C 0.19692 0.99593 0.63026 0.0
C787 C 0.18233 0.95103 0.64836 0.0
C788 C 0.2201 0.98278 0.60533 0.0
C789 C 0.2294 0.92394 0.59696 0.0
H790 H 0.19105 0.04212 0.63538 0.0
H791 H 0.22969 0.01964 0.59233 0.0
S792 S 0.19889 0.7893 0.63673 0.0
N793 N 0.17953 0.84466 0.65626 0.0
N794 N 0.22231 0.81999 0.609 0.0
C795 C 0.21511 0.87828 0.61479 0.0
C796 C 0.19175 0.89177 0.64048 0.0
C797 C 0.39538 0.94873 0.36228 0.0
C798 C 0.35698 0.98657 0.34826 0.0
C799 C 0.3803 0.92707 0.3875 0.0
C800 C 0.32601 0.94194 0.39943 0.0
H801 H 0.43617 0.93365 0.35329 0.0
H802 H 0.41062 0.89718 0.39737 0.0
S803 S 0.21456 0.04729 0.3729 0.0
N804 N 0.26569 0.04358 0.34967 0.0
N805 N 0.23721 1.00254 0.39665 0.0
C806 C 0.28878 0.9822 0.3862 0.0
C807 C 0.30435 1.00464 0.36077 0.0
C808 C 0.02168 0.73314 0.22977 0.0
C809 C 0.02263 0.69899 0.25313 0.0
C810 C 1.0091 0.79404 0.23019 0.0
C811 C 0.99636 0.82411 0.25398 0.0
H812 H 0.03169 0.71298 0.21083 0.0
H813 H 1.00854 0.81746 0.21149 0.0
S814 S 0.99286 0.7556 0.32091 0.0
N815 N 1.00987 0.70032 0.30093 0.0
N816 N 0.98555 0.81431 0.30175 0.0
C817 C 0.99707 0.79055 0.27757 0.0
C818 C 1.01026 0.72836 0.27714 0.0
C819 C 0.04229 0.29138 0.524 0.0
C820 C 0.0806 0.2744 0.50323 0.0
C821 C 0.98145 0.27784 0.52342 0.0
C822 C 0.95606 0.24756 0.50188 0.0
H823 H 0.05897 0.31685 0.54057 0.0
H824 H 0.95393 0.29212 0.53977 0.0
S825 S 0.03761 0.18624 0.44416 0.0
N826 N 0.08882 0.22059 0.46168 0.0
N827 N 0.97515 0.19584 0.46049 0.0
C828 C 0.99411 0.22853 0.48145 0.0
C829 C 0.05604 0.24172 0.48216 0.0
C830 C 0.5085 0.29538 0.77262 0.0
C831 C 0.49785 0.32607 0.74879 0.0
C832 C 0.52323 0.23479 0.77279 0.0
C833 C 0.52726 0.20167 0.74915 0.0
H834 H 0.50544 0.31831 0.79141 0.0
H835 H 0.53204 0.21397 0.7917 0.0
S836 S 0.50112 0.2601 0.68129 0.0
N837 N 0.49108 0.31779 0.70081 0.0
N838 N 0.51794 0.20463 0.70114 0.0
C839 C 0.51585 0.23166 0.72518 0.0
C840 C 0.50153 0.29348 0.72499 0.0
C841 C 0.55306 0.74974 0.02221 0.0
C842 C 0.57905 0.77767 0.00021 0.0
C843 C 0.49205 0.73704 0.02287 0.0
C844 C 0.45411 0.75224 0.00168 0.0
H845 H 0.58017 0.73703 0.03897 0.0
H846 H 0.47481 0.71392 0.03997 0.0
S847 S 0.49842 0.83392 0.94111 0.0
N848 N 0.56065 0.82537 0.95777 0.0
N849 N 0.44677 0.80176 0.95911 0.0
C850 C 0.47922 0.78234 0.98005 0.0
C851 C 0.5413 0.79491 0.97929 0.0
C852 C 0.04079 0.23986 0.71609 0.0
C853 C 0.02383 0.20088 0.73659 0.0
C854 C 0.0276 0.30083 0.71714 0.0
C855 C 0.9977 0.32564 0.73891 0.0
H856 H 0.06592 0.22355 0.69936 0.0
H857 H 0.04174 0.32887 0.70096 0.0
S858 S 0.93639 0.24212 0.79599 0.0
N859 N 0.97042 0.19135 0.77809 0.0
N860 N 0.94622 0.30523 0.78018 0.0
C861 C 0.97873 0.2869 0.75907 0.0
C862 C 0.99162 0.22487 0.75789 0.0
C863 C 0.98766 0.75156 0.4653 0.0
C864 C 0.9516 0.7617 0.48769 0.0
C865 C 0.04862 0.76462 0.46552 0.0
C866 C 0.07646 0.78765 0.48823 0.0
H867 H 0.96907 0.73193 0.44759 0.0
H868 H 0.07429 0.75583 0.44785 0.0
S869 S 1.00121 0.82967 0.55095 0.0
N870 N 0.94806 0.80147 0.53243 0.0
N871 N 0.06186 0.82536 0.53291 0.0
C872 C 0.04061 0.79986 0.51044 0.0
C873 C 0.97856 0.78715 0.51014 0.0
C874 C 0.51496 0.73162 0.26244 0.0
C875 C 0.52417 0.6998 0.23876 0.0
C876 C 0.50305 0.79272 0.26237 0.0
C877 C 0.49946 0.82527 0.2386 0.0
H878 H 0.51759 0.70936 0.28139 0.0
H879 H 0.4955 0.81431 0.28122 0.0
S880 S 0.52064 0.76395 0.17095 0.0
N881 N 0.52939 0.7064 0.19069 0.0
N882 N 0.50676 0.82068 0.19059 0.0
C883 C 0.50871 0.79418 0.21473 0.0
C884 C 0.52099 0.73183 0.21479 0.0
C885 C 0.48152 0.27078 0.96762 0.0
C886 C 0.45484 0.24648 0.99033 0.0
C887 C 0.5422 0.28491 0.96712 0.0
C888 C 0.57927 0.2746 0.98918 0.0
H889 H 0.45518 0.27951 0.95013 0.0
H890 H 0.55979 0.30526 0.9494 0.0
S891 S 0.53265 0.20535 0.05256 0.0
N892 N 0.4714 0.20873 0.03484 0.0
N893 N 0.58478 0.23447 0.03382 0.0
C894 C 0.5534 0.24843 0.01171 0.0
C895 C 0.49155 0.23469 0.01231 0.0
loop_
_geom_bond_atom_site_label_1
_geom_bond_atom_site_label_2
_geom_bond_distance
_geom_bond_site_symmetry_2
_ccdc_geom_bond_type
O0 Zn1 1.953 . S
O0 C16 1.225 . S
Zn1 O0 1.953 . S
Zn1 O2 1.949 . S
Zn1 O8 1.919 . S
Zn1 O13 1.924 . S
O2 Zn1 1.949 . S
O2 Zn3 1.923 . S
O2 Zn4 1.950 . S
O2 Zn5 1.945 . S
Zn3 O2 1.923 . S
Zn3 O6 1.933 . S
Zn3 O9 1.941 . S
Zn3 O10 1.965 . S
Zn4 O2 1.950 . S
Zn4 O11 1.938 . S
Zn4 O12 1.906 . S
Zn4 O22 1.953 . S
Zn5 O2 1.945 . S
Zn5 O7 1.932 . S
Zn5 O14 1.977 . S
Zn5 O15 1.910 . S
O6 Zn3 1.933 . S
O6 C17 1.226 . S
O7 Zn5 1.932 . S
O7 C17 1.307 . S
O8 Zn1 1.919 . S
O8 C19 1.253 . S
O9 Zn3 1.941 . S
O9 C19 1.283 . S
O10 Zn3 1.965 . S
O10 C18 1.303 . S
O11 Zn4 1.938 . S
O11 C18 1.247 . S
O12 Zn4 1.906 . S
O12 C20 1.304 . S
O13 Zn1 1.924 . S
O13 C21 1.311 . S
O14 Zn5 1.977 . S
O14 C20 1.272 . S
O15 Zn5 1.910 . S
O15 C21 1.231 . S
C16 O0 1.225 . S
C16 O22 1.298 . S
C17 O6 1.226 . S
C17 O7 1.307 . S
C18 O10 1.303 . S
C18 O11 1.247 . S
C19 O8 1.253 . S
C19 O9 1.283 . S
C20 O12 1.304 . S
C20 O14 1.272 . S
C21 O13 1.311 . S
C21 O15 1.231 . S
O22 Zn4 1.953 . S
O22 C16 1.298 . S
O23 Zn24 1.953 . S
O23 C39 1.225 . S
Zn24 O23 1.953 . S
Zn24 O25 1.949 . S
Zn24 O31 1.919 . S
Zn24 O36 1.924 . S
O25 Zn24 1.949 . S
O25 Zn26 1.923 . S
O25 Zn27 1.950 . S
O25 Zn28 1.945 . S
Zn26 O25 1.923 . S
Zn26 O29 1.933 . S
Zn26 O32 1.941 . S
Zn26 O33 1.965 . S
Zn27 O25 1.950 . S
Zn27 O34 1.938 . S
Zn27 O35 1.906 . S
Zn27 O45 1.953 . S
Zn28 O25 1.945 . S
Zn28 O30 1.932 . S
Zn28 O37 1.977 . S
Zn28 O38 1.910 . S
O29 Zn26 1.933 . S
O29 C40 1.226 . S
O30 Zn28 1.932 . S
O30 C40 1.307 . S
O31 Zn24 1.919 . S
O31 C42 1.253 . S
O32 Zn26 1.941 . S
O32 C42 1.283 . S
O33 Zn26 1.965 . S
O33 C41 1.303 . S
O34 Zn27 1.938 . S
O34 C41 1.247 . S
O35 Zn27 1.906 . S
O35 C43 1.304 . S
O36 Zn24 1.924 . S
O36 C44 1.311 . S
O37 Zn28 1.977 . S
O37 C43 1.272 . S
O38 Zn28 1.910 . S
O38 C44 1.231 . S
C39 O23 1.225 . S
C39 O45 1.298 . S
C40 O29 1.226 . S
C40 O30 1.307 . S
C41 O33 1.303 . S
C41 O34 1.247 . S
C42 O31 1.253 . S
C42 O32 1.283 . S
C43 O35 1.304 . S
C43 O37 1.272 . S
C44 O36 1.311 . S
C44 O38 1.231 . S
O45 Zn27 1.953 . S
O45 C39 1.298 . S
O46 Zn47 1.953 . S
O46 C62 1.225 . S
Zn47 O46 1.953 . S
Zn47 O48 1.949 . S
Zn47 O54 1.919 . S
Zn47 O59 1.924 . S
O48 Zn47 1.949 . S
O48 Zn49 1.923 . S
O48 Zn50 1.950 . S
O48 Zn51 1.945 . S
Zn49 O48 1.923 . S
Zn49 O52 1.933 . S
Zn49 O55 1.941 . S
Zn49 O56 1.965 . S
Zn50 O48 1.950 . S
Zn50 O57 1.938 . S
Zn50 O58 1.906 . S
Zn50 O68 1.953 . S
Zn51 O48 1.945 . S
Zn51 O53 1.932 . S
Zn51 O60 1.977 . S
Zn51 O61 1.910 . S
O52 Zn49 1.933 . S
O52 C63 1.226 . S
O53 Zn51 1.932 . S
O53 C63 1.307 . S
O54 Zn47 1.919 . S
O54 C65 1.253 . S
O55 Zn49 1.941 . S
O55 C65 1.283 . S
O56 Zn49 1.965 . S
O56 C64 1.303 . S
O57 Zn50 1.938 . S
O57 C64 1.247 . S
O58 Zn50 1.906 . S
O58 C66 1.304 . S
O59 Zn47 1.924 . S
O59 C67 1.311 . S
O60 Zn51 1.977 . S
O60 C66 1.272 . S
O61 Zn51 1.910 . S
O61 C67 1.231 . S
C62 O46 1.225 . S
C62 O68 1.298 . S
C63 O52 1.226 . S
C63 O53 1.307 . S
C64 O56 1.303 . S
C64 O57 1.247 . S
C65 O54 1.253 . S
C65 O55 1.283 . S
C66 O58 1.304 . S
C66 O60 1.272 . S
C67 O59 1.311 . S
C67 O61 1.231 . S
O68 Zn50 1.953 . S
O68 C62 1.298 . S
O69 Zn70 1.953 . S
O69 C85 1.225 . S
Zn70 O69 1.953 . S
Zn70 O71 1.936 1_554 S
Zn70 O77 1.919 . S
Zn70 O82 1.924 . S
O71 Zn70 1.936 1_556 S
O71 Zn72 1.917 1_556 S
O71 Zn73 1.962 . S
O71 Zn74 1.952 . S
Zn72 O71 1.917 1_554 S
Zn72 O75 1.933 . S
Zn72 O78 1.941 . S
Zn72 O79 1.965 . S
Zn73 O71 1.962 . S
Zn73 O80 1.938 . S
Zn73 O81 1.906 . S
Zn73 O91 1.953 . S
Zn74 O71 1.952 . S
Zn74 O76 1.932 . S
Zn74 O83 1.977 . S
Zn74 O84 1.910 . S
O75 Zn72 1.933 . S
O75 C86 1.226 1_554 S
O76 Zn74 1.932 . S
O76 C86 1.307 . S
O77 Zn70 1.919 . S
O77 C88 1.253 . S
O78 Zn72 1.941 . S
O78 C88 1.283 . S
O79 Zn72 1.965 . S
O79 C87 1.303 1_554 S
O80 Zn73 1.938 . S
O80 C87 1.247 . S
O81 Zn73 1.906 . S
O81 C89 1.304 . S
O82 Zn70 1.924 . S
O82 C90 1.311 . S
O83 Zn74 1.977 . S
O83 C89 1.272 . S
O84 Zn74 1.910 . S
O84 C90 1.231 1_556 S
C85 O69 1.225 . S
C85 O91 1.298 1_554 S
C86 O75 1.226 1_556 S
C86 O76 1.307 . S
C87 O79 1.303 1_556 S
C87 O80 1.247 . S
C88 O77 1.253 . S
C88 O78 1.283 . S
C89 O81 1.304 . S
C89 O83 1.272 . S
C90 O82 1.311 . S
C90 O84 1.231 1_554 S
O91 Zn73 1.953 . S
O91 C85 1.298 1_556 S
O92 Zn93 1.953 . S
O92 C108 1.225 . S
Zn93 O92 1.953 . S
Zn93 O94 1.949 . S
Zn93 O100 1.919 . S
Zn93 O105 1.924 . S
O94 Zn93 1.949 . S
O94 Zn95 1.923 . S
O94 Zn96 1.950 . S
O94 Zn97 1.945 . S
Zn95 O94 1.923 . S
Zn95 O98 1.933 . S
Zn95 O101 1.941 . S
Zn95 O102 1.965 . S
Zn96 O94 1.950 . S
Zn96 O103 1.938 . S
Zn96 O104 1.906 . S
Zn96 O114 1.953 . S
Zn97 O94 1.945 . S
Zn97 O99 1.932 . S
Zn97 O106 1.977 . S
Zn97 O107 1.910 . S
O98 Zn95 1.933 . S
O98 C109 1.226 . S
O99 Zn97 1.932 . S
O99 C109 1.307 . S
O100 Zn93 1.919 . S
O100 C111 1.253 . S
O101 Zn95 1.941 . S
O101 C111 1.283 . S
O102 Zn95 1.965 . S
O102 C110 1.303 . S
O103 Zn96 1.938 . S
O103 C110 1.247 . S
O104 Zn96 1.906 . S
O104 C112 1.304 . S
O105 Zn93 1.924 . S
O105 C113 1.311 . S
O106 Zn97 1.977 . S
O106 C112 1.272 . S
O107 Zn97 1.910 . S
O107 C113 1.231 . S
C108 O92 1.225 . S
C108 O114 1.298 . S
C109 O98 1.226 . S
C109 O99 1.307 . S
C110 O102 1.303 . S
C110 O103 1.247 . S
C111 O100 1.253 . S
C111 O101 1.283 . S
C112 O104 1.304 . S
C112 O106 1.272 . S
C113 O105 1.311 . S
C113 O107 1.231 . S
O114 Zn96 1.953 . S
O114 C108 1.298 . S
O115 Zn116 1.953 . S
O115 C131 1.225 . S
Zn116 O115 1.953 . S
Zn116 O117 1.949 . S
Zn116 O123 1.919 . S
Zn116 O128 1.924 . S
O117 Zn116 1.949 . S
O117 Zn118 1.923 . S
O117 Zn119 1.950 . S
O117 Zn120 1.945 . S
Zn118 O117 1.923 . S
Zn118 O121 1.933 . S
Zn118 O124 1.941 . S
Zn118 O125 1.965 . S
Zn119 O117 1.950 . S
Zn119 O126 1.938 . S
Zn119 O127 1.906 . S
Zn119 O137 1.953 . S
Zn120 O117 1.945 . S
Zn120 O122 1.932 . S
Zn120 O129 1.977 . S
Zn120 O130 1.910 . S
O121 Zn118 1.933 . S
O121 C132 1.226 . S
O122 Zn120 1.932 . S
O122 C132 1.307 . S
O123 Zn116 1.919 . S
O123 C134 1.253 . S
O124 Zn118 1.941 . S
O124 C134 1.283 . S
O125 Zn118 1.965 . S
O125 C133 1.303 . S
O126 Zn119 1.938 . S
O126 C133 1.247 . S
O127 Zn119 1.906 . S
O127 C135 1.304 . S
O128 Zn116 1.924 . S
O128 C136 1.311 . S
O129 Zn120 1.977 . S
O129 C135 1.272 . S
O130 Zn120 1.910 . S
O130 C136 1.231 . S
C131 O115 1.225 . S
C131 O137 1.298 . S
C132 O121 1.226 . S
C132 O122 1.307 . S
C133 O125 1.303 . S
C133 O126 1.247 . S
C134 O123 1.253 . S
C134 O124 1.283 . S
C135 O127 1.304 . S
C135 O129 1.272 . S
C136 O128 1.311 . S
C136 O130 1.231 . S
O137 Zn119 1.953 . S
O137 C131 1.298 . S
O138 Zn139 1.953 . S
O138 C154 1.225 . S
Zn139 O138 1.953 . S
Zn139 O140 1.949 . S
Zn139 O146 1.919 . S
Zn139 O151 1.924 . S
O140 Zn139 1.949 . S
O140 Zn141 1.923 . S
O140 Zn142 1.950 . S
O140 Zn143 1.945 . S
Zn141 O140 1.923 . S
Zn141 O144 1.933 . S
Zn141 O147 1.941 . S
Zn141 O148 1.965 . S
Zn142 O140 1.950 . S
Zn142 O149 1.938 . S
Zn142 O150 1.906 . S
Zn142 O160 1.953 . S
Zn143 O140 1.945 . S
Zn143 O145 1.932 . S
Zn143 O152 1.977 . S
Zn143 O153 1.910 . S
O144 Zn141 1.933 . S
O144 C155 1.226 . S
O145 Zn143 1.932 . S
O145 C155 1.307 . S
O146 Zn139 1.919 . S
O146 C157 1.253 . S
O147 Zn141 1.941 . S
O147 C157 1.283 . S
O148 Zn141 1.965 . S
O148 C156 1.303 . S
O149 Zn142 1.938 . S
O149 C156 1.247 . S
O150 Zn142 1.906 . S
O150 C158 1.304 . S
O151 Zn139 1.924 . S
O151 C159 1.311 . S
O152 Zn143 1.977 . S
O152 C158 1.272 . S
O153 Zn143 1.910 . S
O153 C159 1.231 . S
C154 O138 1.225 . S
C154 O160 1.298 . S
C155 O144 1.226 . S
C155 O145 1.307 . S
C156 O148 1.303 . S
C156 O149 1.247 . S
C157 O146 1.253 . S
C157 O147 1.283 . S
C158 O150 1.304 . S
C158 O152 1.272 . S
C159 O151 1.311 . S
C159 O153 1.231 . S
O160 Zn142 1.953 . S
O160 C154 1.298 . S
O161 Zn162 1.953 . S
O161 C177 1.225 . S
Zn162 O161 1.953 . S
Zn162 O163 1.936 1_556 S
Zn162 O169 1.919 . S
Zn162 O174 1.924 . S
O163 Zn162 1.936 1_554 S
O163 Zn164 1.917 1_554 S
O163 Zn165 1.962 . S
O163 Zn166 1.952 . S
Zn164 O163 1.917 1_556 S
Zn164 O167 1.933 . S
Zn164 O170 1.941 . S
Zn164 O171 1.965 . S
Zn165 O163 1.962 . S
Zn165 O172 1.938 . S
Zn165 O173 1.906 . S
Zn165 O183 1.953 . S
Zn166 O163 1.952 . S
Zn166 O168 1.932 . S
Zn166 O175 1.977 . S
Zn166 O176 1.910 . S
O167 Zn164 1.933 . S
O167 C178 1.226 1_556 S
O168 Zn166 1.932 . S
O168 C178 1.307 . S
O169 Zn162 1.919 . S
O169 C180 1.253 . S
O170 Zn164 1.941 . S
O170 C180 1.283 . S
O171 Zn164 1.965 . S
O171 C179 1.303 1_556 S
O172 Zn165 1.938 . S
O172 C179 1.247 . S
O173 Zn165 1.906 . S
O173 C181 1.304 . S
O174 Zn162 1.924 . S
O174 C182 1.311 . S
O175 Zn166 1.977 . S
O175 C181 1.272 . S
O176 Zn166 1.910 . S
O176 C182 1.231 1_554 S
C177 O161 1.225 . S
C177 O183 1.298 1_556 S
C178 O167 1.226 1_554 S
C178 O168 1.307 . S
C179 O171 1.303 1_554 S
C179 O172 1.247 . S
C180 O169 1.253 . S
C180 O170 1.283 . S
C181 O173 1.304 . S
C181 O175 1.272 . S
C182 O174 1.311 . S
C182 O176 1.231 1_556 S
O183 Zn165 1.953 . S
O183 C177 1.298 1_554 S
O184 Zn185 1.953 . S
O184 C200 1.225 . S
Zn185 O184 1.953 . S
Zn185 O186 1.949 . S
Zn185 O192 1.919 . S
Zn185 O197 1.924 . S
O186 Zn185 1.949 . S
O186 Zn187 1.923 1_545 S
O186 Zn188 1.950 . S
O186 Zn189 1.945 . S
Zn187 O186 1.923 1_565 S
Zn187 O190 1.933 . S
Zn187 O193 1.941 . S
Zn187 O194 1.965 . S
Zn188 O186 1.950 . S
Zn188 O195 1.938 1_545 S
Zn188 O196 1.906 . S
Zn188 O206 1.953 . S
Zn189 O186 1.945 . S
Zn189 O191 1.932 1_545 S
Zn189 O198 1.977 . S
Zn189 O199 1.910 . S
O190 Zn187 1.933 . S
O190 C201 1.226 . S
O191 Zn189 1.932 1_565 S
O191 C201 1.307 . S
O192 Zn185 1.919 . S
O192 C203 1.265 . S
O193 Zn187 1.941 . S
O193 C203 1.273 1_565 S
O194 Zn187 1.965 . S
O194 C202 1.303 . S
O195 Zn188 1.938 1_565 S
O195 C202 1.247 . S
O196 Zn188 1.906 . S
O196 C204 1.304 . S
O197 Zn185 1.924 . S
O197 C205 1.311 . S
O198 Zn189 1.977 . S
O198 C204 1.272 . S
O199 Zn189 1.910 . S
O199 C205 1.231 . S
C200 O184 1.225 . S
C200 O206 1.298 . S
C201 O190 1.226 . S
C201 O191 1.307 . S
C202 O194 1.303 . S
C202 O195 1.247 . S
C203 O192 1.265 . S
C203 O193 1.273 1_545 S
C204 O196 1.304 . S
C204 O198 1.272 . S
C205 O197 1.311 . S
C205 O199 1.231 . S
O206 Zn188 1.953 . S
O206 C200 1.298 . S
O207 Zn208 1.953 . S
O207 C223 1.225 . S
Zn208 O207 1.953 . S
Zn208 O209 1.936 1_554 S
Zn208 O215 1.919 . S
Zn208 O220 1.924 . S
O209 Zn208 1.936 1_556 S
O209 Zn210 1.917 1_556 S
O209 Zn211 1.962 . S
O209 Zn212 1.952 . S
Zn210 O209 1.917 1_554 S
Zn210 O213 1.933 . S
Zn210 O216 1.941 . S
Zn210 O217 1.965 . S
Zn211 O209 1.962 . S
Zn211 O218 1.938 . S
Zn211 O219 1.906 . S
Zn211 O229 1.953 . S
Zn212 O209 1.952 . S
Zn212 O214 1.932 1_565 S
Zn212 O221 1.977 . S
Zn212 O222 1.910 1_565 S
O213 Zn210 1.933 . S
O213 C224 1.226 1_564 S
O214 Zn212 1.932 1_545 S
O214 C224 1.307 . S
O215 Zn208 1.919 . S
O215 C226 1.253 . S
O216 Zn210 1.941 . S
O216 C226 1.283 . S
O217 Zn210 1.965 . S
O217 C225 1.303 1_554 S
O218 Zn211 1.938 . S
O218 C225 1.247 . S
O219 Zn211 1.906 . S
O219 C227 1.304 . S
O220 Zn208 1.924 . S
O220 C228 1.311 . S
O221 Zn212 1.977 . S
O221 C227 1.272 . S
O222 Zn212 1.910 1_545 S
O222 C228 1.231 1_546 S
C223 O207 1.225 . S
C223 O229 1.298 1_554 S
C224 O213 1.226 1_546 S
C224 O214 1.307 . S
C225 O217 1.303 1_556 S
C225 O218 1.247 . S
C226 O215 1.253 . S
C226 O216 1.283 . S
C227 O219 1.304 . S
C227 O221 1.272 . S
C228 O220 1.311 . S
C228 O222 1.231 1_564 S
O229 Zn211 1.953 . S
O229 C223 1.298 1_556 S
O230 Zn231 1.953 . S
O230 C246 1.225 . S
Zn231 O230 1.953 . S
Zn231 O232 1.949 . S
Zn231 O238 1.919 . S
Zn231 O243 1.924 . S
O232 Zn231 1.949 . S
O232 Zn233 1.923 1_565 S
O232 Zn234 1.950 . S
O232 Zn235 1.945 . S
Zn233 O232 1.923 1_545 S
Zn233 O236 1.933 . S
Zn233 O239 1.941 . S
Zn233 O240 1.965 . S
Zn234 O232 1.950 . S
Zn234 O241 1.938 1_565 S
Zn234 O242 1.906 . S
Zn234 O252 1.953 . S
Zn235 O232 1.945 . S
Zn235 O237 1.932 1_565 S
Zn235 O244 1.977 . S
Zn235 O245 1.910 . S
O236 Zn233 1.933 . S
O236 C247 1.226 . S
O237 Zn235 1.932 1_545 S
O237 C247 1.307 . S
O238 Zn231 1.919 . S
O238 C249 1.262 . S
O239 Zn233 1.941 . S
O239 C249 1.276 1_545 S
O240 Zn233 1.965 . S
O240 C248 1.303 . S
O241 Zn234 1.938 1_545 S
O241 C248 1.247 . S
O242 Zn234 1.906 . S
O242 C250 1.304 . S
O243 Zn231 1.924 . S
O243 C251 1.311 . S
O244 Zn235 1.977 . S
O244 C250 1.272 . S
O245 Zn235 1.910 . S
O245 C251 1.231 . S
C246 O230 1.225 . S
C246 O252 1.298 . S
C247 O236 1.226 . S
C247 O237 1.307 . S
C248 O240 1.303 . S
C248 O241 1.247 . S
C249 O238 1.262 . S
C249 O239 1.276 1_565 S
C250 O242 1.304 . S
C250 O244 1.272 . S
C251 O243 1.311 . S
C251 O245 1.231 . S
O252 Zn234 1.953 . S
O252 C246 1.298 . S
O253 Zn254 1.953 . S
O253 C269 1.225 . S
Zn254 O253 1.953 . S
Zn254 O255 1.949 . S
Zn254 O261 1.919 . S
Zn254 O266 1.924 . S
O255 Zn254 1.949 . S
O255 Zn256 1.923 . S
O255 Zn257 1.950 . S
O255 Zn258 1.945 . S
Zn256 O255 1.923 . S
Zn256 O259 1.933 . S
Zn256 O262 1.941 . S
Zn256 O263 1.965 . S
Zn257 O255 1.950 . S
Zn257 O264 1.938 . S
Zn257 O265 1.906 . S
Zn257 O275 1.953 . S
Zn258 O255 1.945 . S
Zn258 O260 1.932 1_545 S
Zn258 O267 1.977 . S
Zn258 O268 1.910 1_545 S
O259 Zn256 1.933 . S
O259 C270 1.226 1_545 S
O260 Zn258 1.932 1_565 S
O260 C270 1.307 . S
O261 Zn254 1.919 . S
O261 C272 1.253 . S
O262 Zn256 1.941 . S
O262 C272 1.283 . S
O263 Zn256 1.965 . S
O263 C271 1.303 . S
O264 Zn257 1.938 . S
O264 C271 1.247 . S
O265 Zn257 1.906 . S
O265 C273 1.304 . S
O266 Zn254 1.924 . S
O266 C274 1.311 . S
O267 Zn258 1.977 . S
O267 C273 1.272 . S
O268 Zn258 1.910 1_565 S
O268 C274 1.231 1_565 S
C269 O253 1.225 . S
C269 O275 1.298 . S
C270 O259 1.226 1_565 S
C270 O260 1.307 . S
C271 O263 1.303 . S
C271 O264 1.247 . S
C272 O261 1.253 . S
C272 O262 1.283 . S
C273 O265 1.304 . S
C273 O267 1.272 . S
C274 O266 1.311 . S
C274 O268 1.231 1_545 S
O275 Zn257 1.953 . S
O275 C269 1.298 . S
O276 Zn277 1.953 . S
O276 C292 1.225 . S
Zn277 O276 1.953 . S
Zn277 O278 1.949 . S
Zn277 O284 1.919 . S
Zn277 O289 1.924 . S
O278 Zn277 1.949 . S
O278 Zn279 1.923 1_565 S
O278 Zn280 1.950 . S
O278 Zn281 1.945 . S
Zn279 O278 1.923 1_545 S
Zn279 O282 1.933 . S
Zn279 O285 1.941 . S
Zn279 O286 1.965 . S
Zn280 O278 1.950 . S
Zn280 O287 1.938 1_565 S
Zn280 O288 1.906 . S
Zn280 O298 1.953 . S
Zn281 O278 1.945 . S
Zn281 O283 1.932 1_565 S
Zn281 O290 1.977 . S
Zn281 O291 1.910 . S
O282 Zn279 1.933 . S
O282 C293 1.226 . S
O283 Zn281 1.932 1_545 S
O283 C293 1.307 . S
O284 Zn277 1.919 . S
O284 C295 1.265 . S
O285 Zn279 1.941 . S
O285 C295 1.273 1_545 S
O286 Zn279 1.965 . S
O286 C294 1.303 . S
O287 Zn280 1.938 1_545 S
O287 C294 1.247 . S
O288 Zn280 1.906 . S
O288 C296 1.304 . S
O289 Zn277 1.924 . S
O289 C297 1.311 . S
O290 Zn281 1.977 . S
O290 C296 1.272 . S
O291 Zn281 1.910 . S
O291 C297 1.231 . S
C292 O276 1.225 . S
C292 O298 1.298 . S
C293 O282 1.226 . S
C293 O283 1.307 . S
C294 O286 1.303 . S
C294 O287 1.247 . S
C295 O284 1.265 . S
C295 O285 1.273 1_565 S
C296 O288 1.304 . S
C296 O290 1.272 . S
C297 O289 1.311 . S
C297 O291 1.231 . S
O298 Zn280 1.953 . S
O298 C292 1.298 . S
O299 Zn300 1.953 . S
O299 C315 1.225 . S
Zn300 O299 1.953 . S
Zn300 O301 1.936 1_556 S
Zn300 O307 1.919 . S
Zn300 O312 1.924 . S
O301 Zn300 1.936 1_554 S
O301 Zn302 1.917 1_554 S
O301 Zn303 1.962 . S
O301 Zn304 1.952 . S
Zn302 O301 1.917 1_556 S
Zn302 O305 1.933 . S
Zn302 O308 1.941 . S
Zn302 O309 1.965 . S
Zn303 O301 1.962 . S
Zn303 O310 1.938 . S
Zn303 O311 1.906 . S
Zn303 O321 1.953 . S
Zn304 O301 1.952 . S
Zn304 O306 1.932 1_545 S
Zn304 O313 1.977 . S
Zn304 O314 1.910 1_545 S
O305 Zn302 1.933 . S
O305 C316 1.226 1_546 S
O306 Zn304 1.932 1_565 S
O306 C316 1.307 . S
O307 Zn300 1.919 . S
O307 C318 1.253 . S
O308 Zn302 1.941 . S
O308 C318 1.283 . S
O309 Zn302 1.965 . S
O309 C317 1.303 1_556 S
O310 Zn303 1.938 . S
O310 C317 1.247 . S
O311 Zn303 1.906 . S
O311 C319 1.304 . S
O312 Zn300 1.924 . S
O312 C320 1.311 . S
O313 Zn304 1.977 . S
O313 C319 1.272 . S
O314 Zn304 1.910 1_565 S
O314 C320 1.231 1_564 S
C315 O299 1.225 . S
C315 O321 1.298 1_556 S
C316 O305 1.226 1_564 S
C316 O306 1.307 . S
C317 O309 1.303 1_554 S
C317 O310 1.247 . S
C318 O307 1.253 . S
C318 O308 1.283 . S
C319 O311 1.304 . S
C319 O313 1.272 . S
C320 O312 1.311 . S
C320 O314 1.231 1_546 S
O321 Zn303 1.953 . S
O321 C315 1.298 1_554 S
O322 Zn323 1.953 . S
O322 C338 1.225 . S
Zn323 O322 1.953 . S
Zn323 O324 1.949 . S
Zn323 O330 1.919 . S
Zn323 O335 1.924 . S
O324 Zn323 1.949 . S
O324 Zn325 1.923 1_545 S
O324 Zn326 1.950 . S
O324 Zn327 1.945 . S
Zn325 O324 1.923 1_565 S
Zn325 O328 1.933 . S
Zn325 O331 1.941 . S
Zn325 O332 1.965 . S
Zn326 O324 1.950 . S
Zn326 O333 1.938 1_545 S
Zn326 O334 1.906 . S
Zn326 O344 1.953 . S
Zn327 O324 1.945 . S
Zn327 O329 1.932 1_545 S
Zn327 O336 1.977 . S
Zn327 O337 1.910 . S
O328 Zn325 1.933 . S
O328 C339 1.226 . S
O329 Zn327 1.932 1_565 S
O329 C339 1.307 . S
O330 Zn323 1.919 . S
O330 C341 1.262 . S
O331 Zn325 1.941 . S
O331 C341 1.276 1_565 S
O332 Zn325 1.965 . S
O332 C340 1.303 . S
O333 Zn326 1.938 1_565 S
O333 C340 1.247 . S
O334 Zn326 1.906 . S
O334 C342 1.304 . S
O335 Zn323 1.924 . S
O335 C343 1.311 . S
O336 Zn327 1.977 . S
O336 C342 1.272 . S
O337 Zn327 1.910 . S
O337 C343 1.231 . S
C338 O322 1.225 . S
C338 O344 1.298 . S
C339 O328 1.226 . S
C339 O329 1.307 . S
C340 O332 1.303 . S
C340 O333 1.247 . S
C341 O330 1.262 . S
C341 O331 1.276 1_545 S
C342 O334 1.304 . S
C342 O336 1.272 . S
C343 O335 1.311 . S
C343 O337 1.231 . S
O344 Zn326 1.953 . S
O344 C338 1.298 . S
O345 Zn346 1.953 . S
O345 C361 1.225 . S
Zn346 O345 1.953 . S
Zn346 O347 1.949 . S
Zn346 O353 1.919 . S
Zn346 O358 1.924 . S
O347 Zn346 1.949 . S
O347 Zn348 1.923 . S
O347 Zn349 1.950 . S
O347 Zn350 1.945 . S
Zn348 O347 1.923 . S
Zn348 O351 1.933 . S
Zn348 O354 1.941 . S
Zn348 O355 1.965 . S
Zn349 O347 1.950 . S
Zn349 O356 1.938 . S
Zn349 O357 1.906 . S
Zn349 O367 1.953 . S
Zn350 O347 1.945 . S
Zn350 O352 1.932 1_565 S
Zn350 O359 1.977 . S
Zn350 O360 1.910 1_565 S
O351 Zn348 1.933 . S
O351 C362 1.226 1_565 S
O352 Zn350 1.932 1_545 S
O352 C362 1.307 . S
O353 Zn346 1.919 . S
O353 C364 1.253 . S
O354 Zn348 1.941 . S
O354 C364 1.283 . S
O355 Zn348 1.965 . S
O355 C363 1.303 . S
O356 Zn349 1.938 . S
O356 C363 1.247 . S
O357 Zn349 1.906 . S
O357 C365 1.304 . S
O358 Zn346 1.924 . S
O358 C366 1.311 . S
O359 Zn350 1.977 . S
O359 C365 1.272 . S
O360 Zn350 1.910 1_545 S
O360 C366 1.231 1_545 S
C361 O345 1.225 . S
C361 O367 1.298 . S
C362 O351 1.226 1_545 S
C362 O352 1.307 . S
C363 O355 1.303 . S
C363 O356 1.247 . S
C364 O353 1.253 . S
C364 O354 1.283 . S
C365 O357 1.304 . S
C365 O359 1.272 . S
C366 O358 1.311 . S
C366 O360 1.231 1_565 S
O367 Zn349 1.953 . S
O367 C361 1.298 . S
C368 C369 1.369 . S
C368 C370 1.419 . S
C368 H372 0.930 . S
C369 C368 1.369 . S
C369 C378 1.429 . S
C370 C368 1.419 . S
C370 C371 1.363 . S
C370 H373 0.929 . S
C371 C370 1.363 . S
C371 C377 1.428 . S
H372 C368 0.930 . S
H373 C370 0.929 . S
S374 N375 1.613 . S
S374 N376 1.610 . S
N375 S374 1.613 . S
N375 C378 1.350 . S
N376 S374 1.610 . S
N376 C377 1.351 . S
C377 C371 1.428 . S
C377 N376 1.351 . S
C377 C378 1.434 . S
C378 C369 1.429 . S
C378 N375 1.350 . S
C378 C377 1.434 . S
C379 C380 1.369 . S
C379 C381 1.419 . S
C379 H383 0.930 . S
C380 C379 1.369 . S
C380 C389 1.429 . S
C381 C379 1.419 . S
C381 C382 1.363 . S
C381 H384 0.929 . S
C382 C381 1.363 . S
C382 C388 1.428 . S
H383 C379 0.930 . S
H384 C381 0.929 . S
S385 N386 1.613 . S
S385 N387 1.610 . S
N386 S385 1.613 . S
N386 C389 1.350 . S
N387 S385 1.610 . S
N387 C388 1.351 . S
C388 C382 1.428 . S
C388 N387 1.351 . S
C388 C389 1.434 . S
C389 C380 1.429 . S
C389 N386 1.350 . S
C389 C388 1.434 . S
C390 C391 1.369 . S
C390 C392 1.419 . S
C390 H394 0.930 . S
C391 C390 1.369 . S
C391 C400 1.429 . S
C392 C390 1.419 . S
C392 C393 1.363 . S
C392 H395 0.929 . S
C393 C392 1.363 . S
C393 C399 1.428 . S
H394 C390 0.930 . S
H395 C392 0.929 . S
S396 N397 1.613 . S
S396 N398 1.610 . S
N397 S396 1.613 . S
N397 C400 1.350 . S
N398 S396 1.610 . S
N398 C399 1.351 . S
C399 C393 1.428 . S
C399 N398 1.351 . S
C399 C400 1.434 . S
C400 C391 1.429 . S
C400 N397 1.350 . S
C400 C399 1.434 . S
C401 C402 1.369 . S
C401 C403 1.419 . S
C401 H405 0.930 . S
C402 C401 1.369 . S
C402 C411 1.429 1_554 S
C403 C401 1.419 . S
C403 C404 1.344 1_554 S
C403 H406 0.929 . S
C404 C403 1.344 1_556 S
C404 C410 1.446 . S
H405 C401 0.930 . S
H406 C403 0.929 . S
S407 N408 1.613 . S
S407 N409 1.610 . S
N408 S407 1.613 . S
N408 C411 1.350 . S
N409 S407 1.610 . S
N409 C410 1.351 . S
C410 C404 1.446 . S
C410 N409 1.351 . S
C410 C411 1.434 . S
C411 C402 1.429 1_556 S
C411 N408 1.350 . S
C411 C410 1.434 . S
C412 C413 1.369 . S
C412 C414 1.419 . S
C412 H416 0.930 . S
C413 C412 1.369 . S
C413 C422 1.429 . S
C414 C412 1.419 . S
C414 C415 1.363 . S
C414 H417 0.929 . S
C415 C414 1.363 . S
C415 C421 1.428 . S
H416 C412 0.930 . S
H417 C414 0.929 . S
S418 N419 1.613 . S
S418 N420 1.610 . S
N419 S418 1.613 . S
N419 C422 1.350 . S
N420 S418 1.610 . S
N420 C421 1.351 . S
C421 C415 1.428 . S
C421 N420 1.351 . S
C421 C422 1.434 . S
C422 C413 1.429 . S
C422 N419 1.350 . S
C422 C421 1.434 . S
C423 C424 1.369 . S
C423 C425 1.419 . S
C423 H427 0.930 . S
C424 C423 1.369 . S
C424 C433 1.429 . S
C425 C423 1.419 . S
C425 C426 1.363 . S
C425 H428 0.929 . S
C426 C425 1.363 . S
C426 C432 1.428 . S
H427 C423 0.930 . S
H428 C425 0.929 . S
S429 N430 1.613 . S
S429 N431 1.610 . S
N430 S429 1.613 . S
N430 C433 1.350 . S
N431 S429 1.610 . S
N431 C432 1.351 . S
C432 C426 1.428 . S
C432 N431 1.351 . S
C432 C433 1.434 . S
C433 C424 1.429 . S
C433 N430 1.350 . S
C433 C432 1.434 . S
C434 C435 1.369 . S
C434 C436 1.419 . S
C434 H438 0.930 . S
C435 C434 1.369 . S
C435 C444 1.429 . S
C436 C434 1.419 . S
C436 C437 1.363 . S
C436 H439 0.929 . S
C437 C436 1.363 . S
C437 C443 1.428 . S
H438 C434 0.930 . S
H439 C436 0.929 . S
S440 N441 1.613 . S
S440 N442 1.610 . S
N441 S440 1.613 . S
N441 C444 1.350 . S
N442 S440 1.610 . S
N442 C443 1.351 . S
C443 C437 1.428 . S
C443 N442 1.351 . S
C443 C444 1.434 . S
C444 C435 1.429 . S
C444 N441 1.350 . S
C444 C443 1.434 . S
C445 C446 1.376 . S
C445 C447 1.419 . S
C445 H449 0.930 . S
C446 C445 1.376 . S
C446 C455 1.421 1_554 S
C447 C445 1.419 . S
C447 C448 1.363 1_554 S
C447 H450 0.929 . S
C448 C447 1.363 1_556 S
C448 C454 1.428 . S
H449 C445 0.930 . S
H450 C447 0.929 . S
S451 N452 1.613 . S
S451 N453 1.610 . S
N452 S451 1.613 . S
N452 C455 1.350 . S
N453 S451 1.610 . S
N453 C454 1.351 . S
C454 C448 1.428 . S
C454 N453 1.351 . S
C454 C455 1.434 . S
C455 C446 1.421 1_556 S
C455 N452 1.350 . S
C455 C454 1.434 . S
C456 C457 1.369 . S
C456 C458 1.419 . S
C456 H460 0.930 . S
C457 C456 1.369 . S
C457 C466 1.429 . S
C458 C456 1.419 . S
C458 C459 1.363 . S
C458 H461 0.929 . S
C459 C458 1.363 . S
C459 C465 1.428 . S
H460 C456 0.930 . S
H461 C458 0.929 . S
S462 N463 1.613 . S
S462 N464 1.610 . S
N463 S462 1.613 . S
N463 C466 1.350 . S
N464 S462 1.610 . S
N464 C465 1.351 . S
C465 C459 1.428 . S
C465 N464 1.351 . S
C465 C466 1.434 . S
C466 C457 1.429 . S
C466 N463 1.350 . S
C466 C465 1.434 . S
C467 C468 1.335 1_554 S
C467 C469 1.419 . S
C467 H471 0.930 . S
C468 C467 1.335 1_556 S
C468 C477 1.461 . S
C469 C467 1.419 . S
C469 C470 1.363 . S
C469 H472 0.929 . S
C470 C469 1.363 . S
C470 C476 1.428 1_554 S
H471 C467 0.930 . S
H472 C469 0.929 . S
S473 N474 1.613 . S
S473 N475 1.610 . S
N474 S473 1.613 . S
N474 C477 1.350 . S
N475 S473 1.610 . S
N475 C476 1.351 . S
C476 C470 1.428 1_556 S
C476 N475 1.351 . S
C476 C477 1.434 . S
C477 C468 1.461 . S
C477 N474 1.350 . S
C477 C476 1.434 . S
C478 C479 1.369 . S
C478 C480 1.419 . S
C478 H482 0.940 . S
C479 C478 1.369 . S
C479 C488 1.429 . S
C480 C478 1.419 . S
C480 C481 1.363 . S
C480 H483 0.929 . S
C481 C480 1.363 . S
C481 C487 1.428 . S
H482 C478 0.940 . S
H483 C480 0.929 . S
S484 N485 1.613 . S
S484 N486 1.610 . S
N485 S484 1.613 . S
N485 C488 1.350 . S
N486 S484 1.610 . S
N486 C487 1.351 . S
C487 C481 1.428 . S
C487 N486 1.351 . S
C487 C488 1.434 . S
C488 C479 1.429 . S
C488 N485 1.350 . S
C488 C487 1.434 . S
C489 C490 1.369 . S
C489 C491 1.419 . S
C489 H493 0.930 . S
C490 C489 1.369 . S
C490 C499 1.429 . S
C491 C489 1.419 . S
C491 C492 1.363 . S
C491 H494 0.929 . S
C492 C491 1.363 . S
C492 C498 1.428 . S
H493 C489 0.930 . S
H494 C491 0.929 . S
S495 N496 1.613 . S
S495 N497 1.610 . S
N496 S495 1.613 . S
N496 C499 1.350 . S
N497 S495 1.610 . S
N497 C498 1.351 . S
C498 C492 1.428 . S
C498 N497 1.351 . S
C498 C499 1.434 . S
C499 C490 1.429 . S
C499 N496 1.350 . S
C499 C498 1.434 . S
C500 C501 1.369 . S
C500 C502 1.419 . S
C500 H504 0.930 . S
C501 C500 1.369 . S
C501 C510 1.429 . S
C502 C500 1.419 . S
C502 C503 1.363 . S
C502 H505 0.929 . S
C503 C502 1.363 . S
C503 C509 1.428 . S
H504 C500 0.930 . S
H505 C502 0.929 . S
S506 N507 1.613 . S
S506 N508 1.610 . S
N507 S506 1.613 . S
N507 C510 1.350 1_565 S
N508 S506 1.610 . S
N508 C509 1.351 1_565 S
C509 C503 1.428 . S
C509 N508 1.351 1_545 S
C509 C510 1.434 . S
C510 C501 1.429 . S
C510 N507 1.350 1_545 S
C510 C509 1.434 . S
C511 C512 1.357 1_556 S
C511 C513 1.419 . S
C511 H515 0.930 . S
C512 C511 1.357 1_554 S
C512 C521 1.440 . S
C513 C511 1.419 . S
C513 C514 1.363 . S
C513 H516 0.929 . S
C514 C513 1.363 . S
C514 C520 1.428 1_556 S
H515 C511 0.930 . S
H516 C513 0.929 . S
S517 N518 1.613 . S
S517 N519 1.610 . S
N518 S517 1.613 . S
N518 C521 1.350 . S
N519 S517 1.610 . S
N519 C520 1.351 . S
C520 C514 1.428 1_554 S
C520 N519 1.351 . S
C520 C521 1.434 . S
C521 C512 1.440 . S
C521 N518 1.350 . S
C521 C520 1.434 . S
C522 C523 1.369 . S
C522 C524 1.419 . S
C522 H526 0.930 . S
C523 C522 1.369 . S
C523 C532 1.429 . S
C524 C522 1.419 . S
C524 C525 1.363 . S
C524 H527 0.929 . S
C525 C524 1.363 . S
C525 C531 1.428 . S
H526 C522 0.930 . S
H527 C524 0.929 . S
S528 N529 1.613 . S
S528 N530 1.610 . S
N529 S528 1.613 . S
N529 C532 1.350 1_545 S
N530 S528 1.610 . S
N530 C531 1.351 1_545 S
C531 C525 1.428 . S
C531 N530 1.351 1_565 S
C531 C532 1.434 . S
C532 C523 1.429 . S
C532 N529 1.350 1_565 S
C532 C531 1.434 . S
C533 C534 1.369 . S
C533 C535 1.419 . S
C533 H537 0.930 . S
C534 C533 1.369 . S
C534 C543 1.429 . S
C535 C533 1.419 . S
C535 C536 1.363 . S
C535 H538 0.929 . S
C536 C535 1.363 . S
C536 C542 1.428 . S
H537 C533 0.930 . S
H538 C535 0.929 . S
S539 N540 1.613 . S
S539 N541 1.610 . S
N540 S539 1.613 . S
N540 C543 1.350 . S
N541 S539 1.610 . S
N541 C542 1.351 . S
C542 C536 1.428 . S
C542 N541 1.351 . S
C542 C543 1.434 . S
C543 C534 1.429 . S
C543 N540 1.350 . S
C543 C542 1.434 . S
C544 C545 1.369 . S
C544 C546 1.419 . S
C544 H548 0.930 . S
C545 C544 1.369 . S
C545 C554 1.429 . S
C546 C544 1.419 . S
C546 C547 1.363 . S
C546 H549 0.929 . S
C547 C546 1.363 . S
C547 C553 1.428 . S
H548 C544 0.930 . S
H549 C546 0.929 . S
S550 N551 1.613 . S
S550 N552 1.610 . S
N551 S550 1.613 . S
N551 C554 1.350 . S
N552 S550 1.610 . S
N552 C553 1.351 . S
C553 C547 1.428 . S
C553 N552 1.351 . S
C553 C554 1.434 . S
C554 C545 1.429 . S
C554 N551 1.350 . S
C554 C553 1.434 . S
C555 C556 1.369 . S
C555 C557 1.419 1_455 S
C555 H559 0.930 . S
C556 C555 1.369 . S
C556 C565 1.429 . S
C557 C555 1.419 1_655 S
C557 C558 1.363 . S
C557 H560 0.929 . S
C558 C557 1.363 . S
C558 C564 1.428 . S
H559 C555 0.930 . S
H560 C557 0.929 . S
S561 N562 1.613 1_655 S
S561 N563 1.610 . S
N562 S561 1.613 1_455 S
N562 C565 1.350 . S
N563 S561 1.610 . S
N563 C564 1.351 . S
C564 C558 1.428 . S
C564 N563 1.351 . S
C564 C565 1.434 1_655 S
C565 C556 1.429 . S
C565 N562 1.350 . S
C565 C564 1.434 1_455 S
C566 C567 1.369 . S
C566 C568 1.419 . S
C566 H570 0.930 . S
C567 C566 1.369 . S
C567 C576 1.429 . S
C568 C566 1.419 . S
C568 C569 1.363 . S
C568 H571 0.929 . S
C569 C568 1.363 . S
C569 C575 1.428 . S
H570 C566 0.930 . S
H571 C568 0.929 . S
S572 N573 1.613 . S
S572 N574 1.610 . S
N573 S572 1.613 . S
N573 C576 1.350 . S
N574 S572 1.610 . S
N574 C575 1.351 . S
C575 C569 1.428 . S
C575 N574 1.351 . S
C575 C576 1.434 . S
C576 C567 1.429 . S
C576 N573 1.350 . S
C576 C575 1.434 . S
C577 C578 1.369 . S
C577 C579 1.419 . S
C577 H581 0.930 . S
C578 C577 1.369 . S
C578 C587 1.429 1_556 S
C579 C577 1.419 . S
C579 C580 1.363 1_556 S
C579 H582 0.929 . S
C580 C579 1.363 1_554 S
C580 C586 1.428 . S
H581 C577 0.930 . S
H582 C579 0.929 . S
S583 N584 1.613 . S
S583 N585 1.610 . S
N584 S583 1.613 . S
N584 C587 1.350 . S
N585 S583 1.610 . S
N585 C586 1.351 . S
C586 C580 1.428 . S
C586 N585 1.351 . S
C586 C587 1.434 . S
C587 C578 1.429 1_554 S
C587 N584 1.350 . S
C587 C586 1.434 . S
C588 C589 1.369 . S
C588 C590 1.419 . S
C588 H592 0.930 . S
C589 C588 1.369 . S
C589 C598 1.429 . S
C590 C588 1.419 . S
C590 C591 1.363 . S
C590 H593 0.929 . S
C591 C590 1.363 . S
C591 C597 1.428 . S
H592 C588 0.930 . S
H593 C590 0.929 . S
S594 N595 1.613 . S
S594 N596 1.610 . S
N595 S594 1.613 . S
N595 C598 1.350 . S
N596 S594 1.610 . S
N596 C597 1.351 . S
C597 C591 1.428 . S
C597 N596 1.351 . S
C597 C598 1.434 . S
C598 C589 1.429 . S
C598 N595 1.350 . S
C598 C597 1.434 . S
C599 C600 1.369 . S
C599 C601 1.419 . S
C599 H603 0.930 . S
C600 C599 1.369 . S
C600 C609 1.429 . S
C601 C599 1.419 . S
C601 C602 1.363 . S
C601 H604 0.929 . S
C602 C601 1.363 . S
C602 C608 1.428 . S
H603 C599 0.930 . S
H604 C601 0.929 . S
S605 N606 1.613 . S
S605 N607 1.610 . S
N606 S605 1.613 . S
N606 C609 1.350 . S
N607 S605 1.610 . S
N607 C608 1.351 . S
C608 C602 1.428 . S
C608 N607 1.351 . S
C608 C609 1.434 . S
C609 C600 1.429 . S
C609 N606 1.350 . S
C609 C608 1.434 . S
C610 C611 1.369 . S
C610 C612 1.419 1_554 S
C610 H614 0.930 . S
C611 C610 1.369 . S
C611 C620 1.429 1_545 S
C612 C610 1.419 1_556 S
C612 C613 1.363 1_545 S
C612 H615 0.929 . S
C613 C612 1.363 1_565 S
C613 C619 1.428 . S
H614 C610 0.930 . S
H615 C612 0.929 . S
S616 N617 1.613 1_556 S
S616 N618 1.610 . S
N617 S616 1.613 1_554 S
N617 C620 1.350 . S
N618 S616 1.610 . S
N618 C619 1.351 . S
C619 C613 1.428 . S
C619 N618 1.351 . S
C619 C620 1.434 1_556 S
C620 C611 1.429 1_565 S
C620 N617 1.350 . S
C620 C619 1.434 1_554 S
C621 C622 1.369 1_565 S
C621 C623 1.419 1_455 S
C621 H625 0.930 . S
C622 C621 1.369 1_545 S
C622 C631 1.429 . S
C623 C621 1.419 1_655 S
C623 C624 1.363 . S
C623 H626 0.929 . S
C624 C623 1.363 . S
C624 C630 1.428 1_565 S
H625 C621 0.930 . S
H626 C623 0.929 . S
S627 N628 1.613 1_655 S
S627 N629 1.610 . S
N628 S627 1.613 1_455 S
N628 C631 1.350 . S
N629 S627 1.610 . S
N629 C630 1.351 . S
C630 C624 1.428 1_545 S
C630 N629 1.351 . S
C630 C631 1.434 1_655 S
C631 C622 1.429 . S
C631 N628 1.350 . S
C631 C630 1.434 1_455 S
C632 C633 1.369 . S
C632 C634 1.419 . S
C632 H636 0.930 . S
C633 C632 1.369 . S
C633 C642 1.429 . S
C634 C632 1.419 . S
C634 C635 1.363 . S
C634 H637 0.929 . S
C635 C634 1.363 . S
C635 C641 1.428 . S
H636 C632 0.930 . S
H637 C634 0.929 . S
S638 N639 1.613 . S
S638 N640 1.610 . S
N639 S638 1.613 . S
N639 C642 1.350 . S
N640 S638 1.610 . S
N640 C641 1.351 . S
C641 C635 1.428 . S
C641 N640 1.351 . S
C641 C642 1.434 . S
C642 C633 1.429 . S
C642 N639 1.350 . S
C642 C641 1.434 . S
C643 C644 1.369 . S
C643 C645 1.419 . S
C643 H647 0.930 . S
C644 C643 1.369 . S
C644 C653 1.429 . S
C645 C643 1.419 . S
C645 C646 1.363 . S
C645 H648 0.929 . S
C646 C645 1.363 . S
C646 C652 1.428 . S
H647 C643 0.930 . S
H648 C645 0.929 . S
S649 N650 1.613 . S
S649 N651 1.610 . S
N650 S649 1.613 . S
N650 C653 1.350 . S
N651 S649 1.610 . S
N651 C652 1.351 . S
C652 C646 1.428 . S
C652 N651 1.351 . S
C652 C653 1.434 . S
C653 C644 1.429 . S
C653 N650 1.350 . S
C653 C652 1.434 . S
C654 C655 1.369 . S
C654 C656 1.419 . S
C654 H658 0.930 . S
C655 C654 1.369 . S
C655 C664 1.429 . S
C656 C654 1.419 . S
C656 C657 1.363 . S
C656 H659 0.929 . S
C657 C656 1.363 . S
C657 C663 1.428 . S
H658 C654 0.930 . S
H659 C656 0.929 . S
S660 N661 1.613 . S
S660 N662 1.610 . S
N661 S660 1.613 . S
N661 C664 1.350 . S
N662 S660 1.610 . S
N662 C663 1.351 . S
C663 C657 1.428 . S
C663 N662 1.351 . S
C663 C664 1.434 . S
C664 C655 1.429 . S
C664 N661 1.350 . S
C664 C663 1.434 . S
C665 C666 1.369 . S
C665 C667 1.419 . S
C665 H669 0.930 . S
C666 C665 1.369 . S
C666 C675 1.429 . S
C667 C665 1.419 . S
C667 C668 1.363 . S
C667 H670 0.929 . S
C668 C667 1.363 . S
C668 C674 1.428 . S
H669 C665 0.930 . S
H670 C667 0.929 . S
S671 N672 1.613 . S
S671 N673 1.610 . S
N672 S671 1.613 . S
N672 C675 1.350 . S
N673 S671 1.610 . S
N673 C674 1.351 . S
C674 C668 1.428 . S
C674 N673 1.351 . S
C674 C675 1.434 . S
C675 C666 1.429 . S
C675 N672 1.350 . S
C675 C674 1.434 . S
C676 C677 1.369 . S
C676 C678 1.419 . S
C676 H680 0.930 . S
C677 C676 1.369 . S
C677 C686 1.429 . S
C678 C676 1.419 . S
C678 C679 1.363 . S
C678 H681 0.929 . S
C679 C678 1.363 . S
C679 C685 1.428 . S
H680 C676 0.930 . S
H681 C678 0.929 . S
S682 N683 1.613 . S
S682 N684 1.610 . S
N683 S682 1.613 . S
N683 C686 1.350 . S
N684 S682 1.610 . S
N684 C685 1.351 . S
C685 C679 1.428 . S
C685 N684 1.351 . S
C685 C686 1.434 . S
C686 C677 1.429 . S
C686 N683 1.350 . S
C686 C685 1.434 . S
C687 C688 1.369 . S
C687 C689 1.419 . S
C687 H691 0.930 . S
C688 C687 1.369 . S
C688 C697 1.429 . S
C689 C687 1.419 . S
C689 C690 1.363 . S
C689 H692 0.929 . S
C690 C689 1.363 . S
C690 C696 1.428 . S
H691 C687 0.930 . S
H692 C689 0.929 . S
S693 N694 1.613 . S
S693 N695 1.610 . S
N694 S693 1.613 . S
N694 C697 1.350 . S
N695 S693 1.610 . S
N695 C696 1.351 . S
C696 C690 1.428 . S
C696 N695 1.351 . S
C696 C697 1.434 . S
C697 C688 1.429 . S
C697 N694 1.350 . S
C697 C696 1.434 . S
C698 C699 1.369 . S
C698 C700 1.419 . S
C698 H702 0.930 . S
C699 C698 1.369 . S
C699 C708 1.429 . S
C700 C698 1.419 . S
C700 C701 1.363 . S
C700 H703 0.929 . S
C701 C700 1.363 . S
C701 C707 1.428 . S
H702 C698 0.930 . S
H703 C700 0.929 . S
S704 N705 1.613 . S
S704 N706 1.610 . S
N705 S704 1.613 . S
N705 C708 1.350 . S
N706 S704 1.610 . S
N706 C707 1.351 . S
C707 C701 1.428 . S
C707 N706 1.351 . S
C707 C708 1.434 . S
C708 C699 1.429 . S
C708 N705 1.350 . S
C708 C707 1.434 . S
C709 C710 1.369 . S
C709 C711 1.419 . S
C709 H713 0.930 . S
C710 C709 1.369 . S
C710 C719 1.429 . S
C711 C709 1.419 . S
C711 C712 1.363 . S
C711 H714 0.929 . S
C712 C711 1.363 . S
C712 C718 1.428 . S
H713 C709 0.930 . S
H714 C711 0.929 . S
S715 N716 1.613 . S
S715 N717 1.610 . S
N716 S715 1.613 . S
N716 C719 1.350 . S
N717 S715 1.610 . S
N717 C718 1.351 . S
C718 C712 1.428 . S
C718 N717 1.351 . S
C718 C719 1.434 . S
C719 C710 1.429 . S
C719 N716 1.350 . S
C719 C718 1.434 . S
C720 C721 1.369 . S
C720 C722 1.419 . S
C720 H724 0.930 . S
C721 C720 1.369 . S
C721 C730 1.429 . S
C722 C720 1.419 . S
C722 C723 1.363 . S
C722 H725 0.929 . S
C723 C722 1.363 . S
C723 C729 1.428 . S
H724 C720 0.930 . S
H725 C722 0.929 . S
S726 N727 1.613 . S
S726 N728 1.610 1_545 S
N727 S726 1.613 . S
N727 C730 1.350 1_545 S
N728 S726 1.610 1_565 S
N728 C729 1.351 . S
C729 C723 1.428 . S
C729 N728 1.351 . S
C729 C730 1.434 . S
C730 C721 1.429 . S
C730 N727 1.350 1_565 S
C730 C729 1.434 . S
C731 C732 1.369 . S
C731 C733 1.419 . S
C731 H735 0.930 . S
C732 C731 1.369 . S
C732 C741 1.429 . S
C733 C731 1.419 . S
C733 C734 1.363 . S
C733 H736 0.929 . S
C734 C733 1.363 . S
C734 C740 1.428 . S
H735 C731 0.930 . S
H736 C733 0.929 . S
S737 N738 1.613 . S
S737 N739 1.610 . S
N738 S737 1.613 . S
N738 C741 1.350 . S
N739 S737 1.610 . S
N739 C740 1.351 . S
C740 C734 1.428 . S
C740 N739 1.351 . S
C740 C741 1.434 . S
C741 C732 1.429 . S
C741 N738 1.350 . S
C741 C740 1.434 . S
C742 C743 1.369 1_565 S
C742 C744 1.419 . S
C742 H746 0.930 . S
C743 C742 1.369 1_545 S
C743 C752 1.429 . S
C744 C742 1.419 . S
C744 C745 1.363 1_565 S
C744 H747 0.929 . S
C745 C744 1.363 1_545 S
C745 C751 1.428 . S
H746 C742 0.930 . S
H747 C744 0.929 . S
S748 N749 1.613 . S
S748 N750 1.610 . S
N749 S748 1.613 . S
N749 C752 1.350 . S
N750 S748 1.610 . S
N750 C751 1.351 . S
C751 C745 1.428 . S
C751 N750 1.351 . S
C751 C752 1.434 . S
C752 C743 1.429 . S
C752 N749 1.350 . S
C752 C751 1.434 . S
C753 C754 1.369 . S
C753 C755 1.419 . S
C753 H757 0.930 . S
C754 C753 1.369 . S
C754 C763 1.429 . S
C755 C753 1.419 . S
C755 C756 1.363 . S
C755 H758 0.929 . S
C756 C755 1.363 . S
C756 C762 1.428 1_545 S
H757 C753 0.930 . S
H758 C755 0.929 . S
S759 N760 1.613 . S
S759 N761 1.610 . S
N760 S759 1.613 . S
N760 C763 1.350 1_565 S
N761 S759 1.610 . S
N761 C762 1.351 . S
C762 C756 1.428 1_565 S
C762 N761 1.351 . S
C762 C763 1.434 1_565 S
C763 C754 1.429 . S
C763 N760 1.350 1_545 S
C763 C762 1.434 1_545 S
C764 C765 1.369 . S
C764 C766 1.419 . S
C764 H768 0.930 . S
C765 C764 1.369 . S
C765 C774 1.429 . S
C766 C764 1.419 . S
C766 C767 1.363 . S
C766 H769 0.929 . S
C767 C766 1.363 . S
C767 C773 1.428 . S
H768 C764 0.930 . S
H769 C766 0.929 . S
S770 N771 1.613 . S
S770 N772 1.610 1_545 S
N771 S770 1.613 . S
N771 C774 1.350 . S
N772 S770 1.610 1_565 S
N772 C773 1.348 1_565 S
C773 C767 1.428 . S
C773 N772 1.348 1_545 S
C773 C774 1.434 . S
C774 C765 1.429 . S
C774 N771 1.350 . S
C774 C773 1.434 . S
C775 C776 1.369 . S
C775 C777 1.419 . S
C775 H779 0.934 . S
C776 C775 1.369 . S
C776 C785 1.429 . S
C777 C775 1.419 . S
C777 C778 1.363 . S
C777 H780 0.929 1_545 S
C778 C777 1.363 . S
C778 C784 1.428 . S
H779 C775 0.934 . S
H780 C777 0.929 1_565 S
S781 N782 1.613 . S
S781 N783 1.610 . S
N782 S781 1.613 . S
N782 C785 1.350 . S
N783 S781 1.610 . S
N783 C784 1.351 . S
C784 C778 1.428 . S
C784 N783 1.351 . S
C784 C785 1.434 . S
C785 C776 1.429 . S
C785 N782 1.350 . S
C785 C784 1.434 . S
C786 C787 1.369 . S
C786 C788 1.419 . S
C786 H790 0.930 . S
C787 C786 1.369 . S
C787 C796 1.429 . S
C788 C786 1.419 . S
C788 C789 1.363 . S
C788 H791 0.929 . S
C789 C788 1.363 . S
C789 C795 1.428 . S
H790 C786 0.930 . S
H791 C788 0.929 . S
S792 N793 1.613 . S
S792 N794 1.610 . S
N793 S792 1.613 . S
N793 C796 1.350 . S
N794 S792 1.610 . S
N794 C795 1.351 . S
C795 C789 1.428 . S
C795 N794 1.351 . S
C795 C796 1.434 . S
C796 C787 1.429 . S
C796 N793 1.350 . S
C796 C795 1.434 . S
C797 C798 1.369 . S
C797 C799 1.419 . S
C797 H801 0.930 . S
C798 C797 1.369 . S
C798 C807 1.429 . S
C799 C797 1.419 . S
C799 C800 1.363 . S
C799 H802 0.929 . S
C800 C799 1.363 . S
C800 C806 1.428 . S
H801 C797 0.930 . S
H802 C799 0.929 . S
S803 N804 1.613 . S
S803 N805 1.610 . S
N804 S803 1.613 . S
N804 C807 1.350 1_545 S
N805 S803 1.610 . S
N805 C806 1.351 1_545 S
C806 C800 1.428 . S
C806 N805 1.351 1_565 S
C806 C807 1.434 . S
C807 C798 1.429 . S
C807 N804 1.350 1_565 S
C807 C806 1.434 . S
C808 C809 1.369 . S
C808 C810 1.419 . S
C808 H812 0.930 . S
C809 C808 1.369 . S
C809 C818 1.429 1_455 S
C810 C808 1.419 . S
C810 C811 1.363 1_455 S
C810 H813 0.929 . S
C811 C810 1.363 1_655 S
C811 C817 1.428 . S
H812 C808 0.930 . S
H813 C810 0.929 . S
S814 N815 1.613 . S
S814 N816 1.610 . S
N815 S814 1.613 . S
N815 C818 1.350 . S
N816 S814 1.610 . S
N816 C817 1.351 . S
C817 C811 1.428 . S
C817 N816 1.351 . S
C817 C818 1.434 . S
C818 C809 1.429 1_655 S
C818 N815 1.350 . S
C818 C817 1.434 . S
C819 C820 1.369 . S
C819 C821 1.419 1_455 S
C819 H823 0.930 . S
C820 C819 1.369 . S
C820 C829 1.429 . S
C821 C819 1.419 1_655 S
C821 C822 1.363 . S
C821 H824 0.929 . S
C822 C821 1.363 . S
C822 C828 1.428 . S
H823 C819 0.930 . S
H824 C821 0.929 . S
S825 N826 1.613 . S
S825 N827 1.610 1_455 S
N826 S825 1.613 . S
N826 C829 1.350 . S
N827 S825 1.610 1_655 S
N827 C828 1.351 . S
C828 C822 1.428 . S
C828 N827 1.351 . S
C828 C829 1.434 1_655 S
C829 C820 1.429 . S
C829 N826 1.350 . S
C829 C828 1.434 1_455 S
C830 C831 1.369 . S
C830 C832 1.419 . S
C830 H834 0.930 . S
C831 C830 1.369 . S
C831 C840 1.429 . S
C832 C830 1.419 . S
C832 C833 1.363 . S
C832 H835 0.929 . S
C833 C832 1.363 . S
C833 C839 1.428 . S
H834 C830 0.930 . S
H835 C832 0.929 . S
S836 N837 1.613 . S
S836 N838 1.610 . S
N837 S836 1.613 . S
N837 C840 1.350 . S
N838 S836 1.610 . S
N838 C839 1.351 . S
C839 C833 1.428 . S
C839 N838 1.351 . S
C839 C840 1.434 . S
C840 C831 1.429 . S
C840 N837 1.350 . S
C840 C839 1.434 . S
C841 C842 1.369 . S
C841 C843 1.419 . S
C841 H845 0.930 . S
C842 C841 1.369 . S
C842 C851 1.429 1_554 S
C843 C841 1.419 . S
C843 C844 1.363 . S
C843 H846 0.929 . S
C844 C843 1.363 . S
C844 C850 1.428 1_554 S
H845 C841 0.930 . S
H846 C843 0.929 . S
S847 N848 1.613 . S
S847 N849 1.610 . S
N848 S847 1.613 . S
N848 C851 1.350 . S
N849 S847 1.610 . S
N849 C850 1.351 . S
C850 C844 1.428 1_556 S
C850 N849 1.351 . S
C850 C851 1.434 . S
C851 C842 1.429 1_556 S
C851 N848 1.350 . S
C851 C850 1.434 . S
C852 C853 1.369 . S
C852 C854 1.419 . S
C852 H856 0.930 . S
C853 C852 1.369 . S
C853 C862 1.429 1_455 S
C854 C852 1.419 . S
C854 C855 1.363 1_455 S
C854 H857 0.929 . S
C855 C854 1.363 1_655 S
C855 C861 1.428 . S
H856 C852 0.930 . S
H857 C854 0.929 . S
S858 N859 1.613 . S
S858 N860 1.610 . S
N859 S858 1.613 . S
N859 C862 1.350 . S
N860 S858 1.610 . S
N860 C861 1.351 . S
C861 C855 1.428 . S
C861 N860 1.351 . S
C861 C862 1.434 . S
C862 C853 1.429 1_655 S
C862 N859 1.350 . S
C862 C861 1.434 . S
C863 C864 1.369 . S
C863 C865 1.419 1_655 S
C863 H867 0.930 . S
C864 C863 1.369 . S
C864 C873 1.429 . S
C865 C863 1.419 1_455 S
C865 C866 1.363 . S
C865 H868 0.929 . S
C866 C865 1.363 . S
C866 C872 1.428 . S
H867 C863 0.930 . S
H868 C865 0.929 . S
S869 N870 1.613 . S
S869 N871 1.610 1_655 S
N870 S869 1.613 . S
N870 C873 1.350 . S
N871 S869 1.610 1_455 S
N871 C872 1.351 . S
C872 C866 1.428 . S
C872 N871 1.351 . S
C872 C873 1.434 1_455 S
C873 C864 1.429 . S
C873 N870 1.350 . S
C873 C872 1.434 1_655 S
C874 C875 1.369 . S
C874 C876 1.419 . S
C874 H878 0.930 . S
C875 C874 1.369 . S
C875 C884 1.429 . S
C876 C874 1.419 . S
C876 C877 1.363 . S
C876 H879 0.929 . S
C877 C876 1.363 . S
C877 C883 1.428 . S
H878 C874 0.930 . S
H879 C876 0.929 . S
S880 N881 1.613 . S
S880 N882 1.610 . S
N881 S880 1.613 . S
N881 C884 1.350 . S
N882 S880 1.610 . S
N882 C883 1.351 . S
C883 C877 1.428 . S
C883 N882 1.351 . S
C883 C884 1.434 . S
C884 C875 1.429 . S
C884 N881 1.350 . S
C884 C883 1.434 . S
C885 C886 1.369 . S
C885 C887 1.419 . S
C885 H889 0.930 . S
C886 C885 1.369 . S
C886 C895 1.429 1_556 S
C887 C885 1.419 . S
C887 C888 1.363 . S
C887 H890 0.929 . S
C888 C887 1.363 . S
C888 C894 1.428 1_556 S
H889 C885 0.930 . S
H890 C887 0.929 . S
S891 N892 1.613 . S
S891 N893 1.610 . S
N892 S891 1.613 . S
N892 C895 1.350 . S
N893 S891 1.610 . S
N893 C894 1.351 . S
C894 C888 1.428 1_554 S
C894 N893 1.351 . S
C894 C895 1.434 . S
C895 C886 1.429 1_554 S
C895 N892 1.350 . S
C895 C894 1.434 . S
C369 C17 1.751 . S
C371 C156 1.821 . S
C380 C363 1.816 . S
C382 C40 1.746 . S
C391 C63 1.740 . S
C393 C110 1.813 1_455 S
C402 C317 1.765 . S
C404 C86 1.709 . S
C413 C64 1.820 . S
C415 C109 1.750 . S
C424 C271 1.814 . S
C426 C132 1.744 . S
C435 C155 1.743 . S
C437 C18 1.814 1_655 S
C446 C178 1.713 . S
C448 C225 1.766 . S
C457 C201 1.746 . S
C459 C340 1.816 1_655 S
C468 C224 1.713 . S
C470 C179 1.767 . S
C479 C294 1.825 . S
C481 C247 1.756 . S
C490 C133 1.815 . S
C492 C270 1.745 . S
C501 C248 1.814 1_455 S
C503 C293 1.743 . S
C512 C316 1.716 . S
C514 C87 1.769 . S
C523 C202 1.820 . S
C525 C339 1.749 . S
C534 C41 1.812 . S
C536 C362 1.742 . S
C545 C21 0.790 . S
C547 C297 0.796 . S
C556 C44 0.788 . S
C558 C136 0.779 . S
C567 C67 0.796 . S
C569 C343 0.791 . S
C578 C182 0.791 . S
C580 C90 0.800 . S
C589 C113 0.788 . S
C591 C205 0.798 . S
C600 C251 0.792 . S
C602 C159 0.795 . S
C611 C228 0.789 1_545 S
C613 C320 0.802 1_565 S
C622 C366 0.785 1_545 S
C624 C274 0.781 1_565 S
C633 C19 1.533 . S
C635 C43 1.475 . S
C644 C66 1.508 . S
C646 C42 1.567 . S
C655 C65 1.675 . S
C657 C89 1.628 . S
C666 C88 1.407 . S
C668 C20 1.349 . S
C677 C135 1.480 . S
C679 C111 1.534 . S
C688 C158 1.504 . S
C690 C134 1.567 . S
C699 C181 1.623 . S
C701 C157 1.679 . S
C710 C112 1.350 . S
C712 C180 1.402 . S
C721 C203 1.670 1_565 S
C723 C227 1.624 . S
C732 C226 1.407 . S
C734 C250 1.347 . S
C743 C273 1.479 . S
C745 C249 1.532 1_545 S
C754 C272 1.568 . S
C756 C204 1.510 . S
C765 C319 1.619 . S
C767 C295 1.675 1_545 S
C776 C318 1.406 . S
C778 C342 1.343 . S
C787 C341 1.532 1_565 S
C789 C365 1.480 . S
C798 C296 1.510 . S
C800 C364 1.568 . S
C809 C16 1.575 . S
C811 C246 1.566 . S
C820 C39 1.570 . S
C822 C269 1.562 . S
C831 C62 1.570 . S
C833 C200 1.578 . S
C842 C223 1.546 . S
C844 C85 1.553 . S
C853 C338 1.575 . S
C855 C108 1.566 . S
C864 C131 1.570 . S
C866 C361 1.562 . S
C875 C154 1.572 . S
C877 C292 1.576 . S
C886 C315 1.548 . S
C888 C177 1.552 . S
