# Generated by pormake.
# Topology uoc, (4)-cn, num edge types: 1
# Building blocks:
#     Node 0, Type 0, BuildingBlock: KUFVIS_clean_sbu_0, # of connection points: 4
#     Node 1, Type 0, BuildingBlock: KUFVIS_clean_sbu_0, # of connection points: 4
#     Node 2, Type 0, BuildingBlock: KUFVIS_clean_sbu_0, # of connection points: 4
#     Node 3, Type 0, BuildingBlock: KUFVIS_clean_sbu_0, # of connection points: 4
#     Node 4, Type 0, BuildingBlock: KUFVIS_clean_sbu_0, # of connection points: 4
#     Node 5, Type 0, BuildingBlock: KUFVIS_clean_sbu_0, # of connection points: 4
#     Node 6, Type 0, BuildingBlock: KUFVIS_clean_sbu_0, # of connection points: 4
#     Node 7, Type 0, BuildingBlock: KUFVIS_clean_sbu_0, # of connection points: 4
#     Edge 8, Type (0, 0), BuildingBlock: XIVTED_clean_linker_0, # of connection points: 2
#     Edge 9, Type (0, 0), BuildingBlock: XIVTED_clean_linker_0, # of connection points: 2
#     Edge 10, Type (0, 0), BuildingBlock: XIVTED_clean_linker_0, # of connection points: 2
#     Edge 11, Type (0, 0), BuildingBlock: XIVTED_clean_linker_0, # of connection points: 2
#     Edge 12, Type (0, 0), BuildingBlock: XIVTED_clean_linker_0, # of connection points: 2
#     Edge 13, Type (0, 0), BuildingBlock: XIVTED_clean_linker_0, # of connection points: 2
#     Edge 14, Type (0, 0), BuildingBlock: XIVTED_clean_linker_0, # of connection points: 2
#     Edge 15, Type (0, 0), BuildingBlock: XIVTED_clean_linker_0, # of connection points: 2
#     Edge 16, Type (0, 0), BuildingBlock: XIVTED_clean_linker_0, # of connection points: 2
#     Edge 17, Type (0, 0), BuildingBlock: XIVTED_clean_linker_0, # of connection points: 2
#     Edge 18, Type (0, 0), BuildingBlock: XIVTED_clean_linker_0, # of connection points: 2
#     Edge 19, Type (0, 0), BuildingBlock: XIVTED_clean_linker_0, # of connection points: 2
#     Edge 20, Type (0, 0), BuildingBlock: XIVTED_clean_linker_0, # of connection points: 2
#     Edge 21, Type (0, 0), BuildingBlock: XIVTED_clean_linker_0, # of connection points: 2
#     Edge 22, Type (0, 0), BuildingBlock: XIVTED_clean_linker_0, # of connection points: 2
#     Edge 23, Type (0, 0), BuildingBlock: XIVTED_clean_linker_0, # of connection points: 2
# Relax obj value: 0.118
# Max RMSD: 0.132
# Mean RMSD: 0.130
data_MOF--net-uoc--node1-KUFVIS_clean_sbu_0--edge1-XIVTED_clean_linker_0
_symmetry_space_group_name_H-M    P1
_symmetry_Int_Tables_number       1
_symmetry_cell_setting            triclinic
loop_
_symmetry_equiv_pos_as_xyz
'x, y, z'
_cell_length_a     27.519629
_cell_length_b     27.455679
_cell_length_c     54.439823
_cell_angle_alpha  90.292805
_cell_angle_beta   90.607418
_cell_angle_gamma 89.807893
loop_
_atom_site_label
_atom_site_type_symbol
_atom_site_fract_x
_atom_site_fract_y
_atom_site_fract_z
_atom_type_partial_charge
Mn0 Mn 0.11287 0.24632 0.11858 0.0
Mn1 Mn 0.21576 0.18209 0.12858 0.0
C2 C 0.14496 0.23953 0.15772 0.0
C3 C 0.07336 0.31904 0.10914 0.0
C4 C 0.11739 0.13521 0.12034 0.0
O5 O 0.14079 0.23995 0.08433 0.0
O6 O 0.21062 0.20075 0.09357 0.0
C7 C 0.28743 0.25977 0.11904 0.0
N8 N 0.26888 0.22544 0.13424 0.0
C9 C 0.33162 0.24006 0.16445 0.0
C10 C 0.3515 0.27553 0.14912 0.0
C11 C 0.32911 0.28564 0.12638 0.0
C12 C 0.28955 0.21612 0.15635 0.0
H13 H 0.27065 0.26718 0.10142 0.0
C14 C 0.18162 0.22152 0.07831 0.0
O15 O 0.05229 0.27726 0.10567 0.0
O16 O 0.11782 0.31836 0.1173 0.0
N17 N 0.22575 0.16199 0.16181 0.0
C18 C 0.20099 0.12792 0.17475 0.0
C19 C 0.2187 0.11334 0.19784 0.0
C20 C 0.262 0.13338 0.20719 0.0
C21 C 0.28655 0.16884 0.19367 0.0
C22 C 0.26703 0.18208 0.17082 0.0
H23 H 0.16832 0.11151 0.16739 0.0
O24 O 0.09943 0.25032 0.15441 0.0
O25 O 0.17048 0.2336 0.13803 0.0
O26 O 0.09317 0.17463 0.11815 0.0
O27 O 0.16336 0.13405 0.12364 0.0
C28 C 0.32989 0.19118 0.2018 0.0
C29 C 0.35203 0.22726 0.18738 0.0
H30 H 0.38392 0.29522 0.15461 0.0
H31 H 0.34422 0.31299 0.11444 0.0
H32 H 0.19946 0.08614 0.20823 0.0
H33 H 0.27604 0.1212 0.22479 0.0
H34 H 0.34635 0.18115 0.21922 0.0
H35 H 0.38489 0.24474 0.19404 0.0
Mn36 Mn 0.75079 0.61183 0.36933 0.0
Mn37 Mn 0.81454 0.71441 0.38097 0.0
C38 C 0.75705 0.64069 0.40866 0.0
C39 C 0.67836 0.57404 0.35812 0.0
C40 C 0.862 0.61577 0.37396 0.0
O41 O 0.75845 0.64081 0.33568 0.0
O42 O 0.80021 0.70889 0.34502 0.0
C43 C 0.73643 0.78463 0.36831 0.0
N44 N 0.76909 0.7666 0.38493 0.0
C45 C 0.74269 0.82349 0.41585 0.0
C46 C 0.70901 0.84289 0.39901 0.0
C47 C 0.70584 0.82332 0.37516 0.0
C48 C 0.77231 0.78504 0.40796 0.0
H49 H 0.73363 0.76951 0.35001 0.0
C50 C 0.7793 0.68018 0.3296 0.0
O51 O 0.71993 0.5523 0.35515 0.0
O52 O 0.6792 0.61803 0.36687 0.0
N53 N 0.83093 0.72522 0.41481 0.0
C54 C 0.8655 0.70254 0.4288 0.0
C55 C 0.87313 0.71765 0.45322 0.0
C56 C 0.84559 0.75625 0.4629 0.0
C57 C 0.81113 0.77986 0.44796 0.0
C58 C 0.80543 0.76348 0.42369 0.0
H59 H 0.88673 0.6728 0.42148 0.0
O60 O 0.74543 0.59565 0.40452 0.0
O61 O 0.76323 0.66826 0.38955 0.0
O62 O 0.82273 0.59211 0.37002 0.0
O63 O 0.86321 0.6617 0.37798 0.0
C64 C 0.78192 0.81871 0.45625 0.0
C65 C 0.74766 0.84045 0.44022 0.0
H66 H 0.68523 0.87262 0.40424 0.0
H67 H 0.67978 0.83795 0.36209 0.0
H68 H 0.89999 0.69943 0.46459 0.0
H69 H 0.85125 0.76749 0.48181 0.0
H70 H 0.78533 0.83199 0.47496 0.0
H71 H 0.72521 0.87011 0.44685 0.0
Mn72 Mn 0.39595 0.22356 0.60434 0.0
Mn73 Mn 0.29288 0.16079 0.59303 0.0
C74 C 0.36553 0.21847 0.56511 0.0
C75 C 0.43429 0.29591 0.61536 0.0
C76 C 0.39089 0.11227 0.60097 0.0
O77 O 0.36731 0.216 0.63807 0.0
O78 O 0.29768 0.1767 0.62879 0.0
C79 C 0.22242 0.23939 0.60412 0.0
N80 N 0.24094 0.2062 0.58804 0.0
C81 C 0.18507 0.23162 0.55627 0.0
C82 C 0.16516 0.26583 0.57255 0.0
C83 C 0.18396 0.26975 0.59657 0.0
C84 C 0.22314 0.20213 0.56488 0.0
H85 H 0.23697 0.24277 0.62254 0.0
C86 C 0.32708 0.19694 0.64415 0.0
O87 O 0.45587 0.25412 0.61828 0.0
O88 O 0.39024 0.29533 0.60671 0.0
N89 N 0.28335 0.14356 0.55921 0.0
C90 C 0.30742 0.10958 0.54559 0.0
C91 C 0.29354 0.10167 0.521 0.0
C92 C 0.25494 0.12855 0.51071 0.0
C93 C 0.23025 0.16278 0.52519 0.0
C94 C 0.24535 0.16871 0.54967 0.0
H95 H 0.33725 0.08895 0.55336 0.0
O96 O 0.4109 0.22904 0.56891 0.0
O97 O 0.33909 0.21189 0.58446 0.0
O98 O 0.41519 0.15146 0.60392 0.0
O99 O 0.34495 0.1116 0.59719 0.0
C100 C 0.19168 0.19174 0.5162 0.0
C101 C 0.16914 0.22616 0.53172 0.0
H102 H 0.13569 0.28952 0.56675 0.0
H103 H 0.16896 0.29624 0.6092 0.0
H104 H 0.31273 0.07514 0.50996 0.0
H105 H 0.24468 0.12273 0.49166 0.0
H106 H 0.17935 0.18812 0.49732 0.0
H107 H 0.13982 0.24851 0.52453 0.0
Mn108 Mn 0.74602 0.89899 0.85987 0.0
Mn109 Mn 0.80947 0.797 0.84637 0.0
C110 C 0.74514 0.868 0.82049 0.0
C111 C 0.67476 0.93696 0.87251 0.0
C112 C 0.85628 0.89599 0.85305 0.0
O113 O 0.75943 0.8699 0.89358 0.0
O114 O 0.79811 0.80107 0.88212 0.0
C115 C 0.73473 0.7246 0.85947 0.0
N116 N 0.76534 0.74385 0.84261 0.0
C117 C 0.73814 0.68706 0.81166 0.0
C118 C 0.70656 0.66639 0.82873 0.0
C119 C 0.70487 0.68526 0.85274 0.0
C120 C 0.76744 0.72585 0.81951 0.0
H121 H 0.73296 0.73927 0.87788 0.0
C122 C 0.77985 0.82919 0.89846 0.0
O123 O 0.71646 0.95881 0.87436 0.0
O124 O 0.67495 0.8925 0.86436 0.0
N125 N 0.82242 0.78826 0.8122 0.0
C126 C 0.85345 0.81356 0.79771 0.0
C127 C 0.8588 0.79983 0.77302 0.0
C128 C 0.8323 0.76025 0.76352 0.0
C129 C 0.80119 0.73432 0.77891 0.0
C130 C 0.79799 0.74912 0.80346 0.0
H131 H 0.87363 0.84425 0.80487 0.0
O132 O 0.73446 0.91341 0.82433 0.0
O133 O 0.75595 0.84227 0.83972 0.0
O134 O 0.81715 0.91963 0.85714 0.0
O135 O 0.8575 0.85004 0.84927 0.0
C136 C 0.77204 0.69539 0.77067 0.0
C137 C 0.74067 0.67163 0.787 0.0
H138 H 0.6831 0.63638 0.82352 0.0
H139 H 0.68038 0.6697 0.86598 0.0
H140 H 0.88287 0.82002 0.76125 0.0
H141 H 0.83568 0.75057 0.74433 0.0
H142 H 0.77241 0.68442 0.75166 0.0
H143 H 0.71801 0.64215 0.78027 0.0
Mn144 Mn 0.61081 0.72281 0.62319 0.0
Mn145 Mn 0.71333 0.65865 0.6342 0.0
C146 C 0.64252 0.71778 0.66245 0.0
C147 C 0.57221 0.79551 0.61269 0.0
C148 C 0.6149 0.6117 0.62613 0.0
O149 O 0.63918 0.71495 0.58915 0.0
O150 O 0.70858 0.67541 0.5989 0.0
C151 C 0.7854 0.7354 0.62365 0.0
N152 N 0.76651 0.70216 0.63936 0.0
C153 C 0.82858 0.71894 0.66964 0.0
C154 C 0.8488 0.7533 0.65378 0.0
C155 C 0.82693 0.76176 0.63075 0.0
C156 C 0.78674 0.69436 0.66172 0.0
H157 H 0.76899 0.74162 0.60583 0.0
C158 C 0.67986 0.69588 0.58339 0.0
O159 O 0.55065 0.75384 0.6097 0.0
O160 O 0.61645 0.79468 0.62112 0.0
N161 N 0.72289 0.64054 0.66776 0.0
C162 C 0.69771 0.60761 0.68122 0.0
C163 C 0.71465 0.59507 0.70477 0.0
C164 C 0.75763 0.61595 0.71405 0.0
C165 C 0.7827 0.65009 0.69993 0.0
C166 C 0.76391 0.66137 0.67667 0.0
H167 H 0.66523 0.59066 0.67396 0.0
O168 O 0.59701 0.72844 0.65892 0.0
O169 O 0.66812 0.71073 0.64288 0.0
O170 O 0.59083 0.65111 0.62338 0.0
O171 O 0.6608 0.61057 0.62977 0.0
C172 C 0.82583 0.67305 0.70792 0.0
C173 C 0.84839 0.70793 0.69293 0.0
H174 H 0.88107 0.7734 0.6591 0.0
H175 H 0.84228 0.78826 0.61842 0.0
H176 H 0.69503 0.56885 0.7156 0.0
H177 H 0.771 0.60544 0.73205 0.0
H178 H 0.84182 0.66443 0.72564 0.0
H179 H 0.88107 0.72592 0.69946 0.0
Mn180 Mn 0.24636 0.1122 0.86688 0.0
Mn181 Mn 0.31031 0.21592 0.8752 0.0
C182 C 0.25217 0.14641 0.90519 0.0
C183 C 0.17406 0.07302 0.85672 0.0
C184 C 0.35756 0.11644 0.87157 0.0
O185 O 0.25465 0.13647 0.83227 0.0
O186 O 0.29606 0.20567 0.83957 0.0
C187 C 0.23242 0.28451 0.86014 0.0
N188 N 0.265 0.26866 0.87735 0.0
C189 C 0.23898 0.3299 0.90618 0.0
C190 C 0.20537 0.34708 0.8887 0.0
C191 C 0.20204 0.32423 0.8656 0.0
C192 C 0.26834 0.29024 0.89967 0.0
H193 H 0.22954 0.26691 0.8424 0.0
C194 C 0.27552 0.17502 0.825 0.0
O195 O 0.21568 0.05095 0.85467 0.0
O196 O 0.17475 0.11808 0.86395 0.0
N197 N 0.32671 0.23123 0.90861 0.0
C198 C 0.36144 0.2106 0.92329 0.0
C199 C 0.36936 0.22919 0.94708 0.0
C200 C 0.34198 0.26915 0.95539 0.0
C201 C 0.30741 0.29062 0.93971 0.0
C202 C 0.30141 0.27078 0.91612 0.0
H203 H 0.3826 0.17988 0.91701 0.0
O204 O 0.24043 0.10097 0.90259 0.0
O205 O 0.25876 0.17121 0.88518 0.0
O206 O 0.31823 0.09245 0.86846 0.0
O207 O 0.35888 0.16279 0.87402 0.0
C208 C 0.27845 0.33073 0.9466 0.0
C209 C 0.24418 0.35029 0.92987 0.0
H210 H 0.18179 0.37763 0.89286 0.0
H211 H 0.17605 0.33715 0.85205 0.0
H212 H 0.39635 0.21262 0.95901 0.0
H213 H 0.34788 0.2831 0.97383 0.0
H214 H 0.28209 0.34668 0.96476 0.0
H215 H 0.22194 0.38096 0.93542 0.0
Mn216 Mn 0.89542 0.74773 0.10872 0.0
Mn217 Mn 0.7927 0.68332 0.09909 0.0
C218 C 0.86347 0.74077 0.06987 0.0
C219 C 0.93398 0.82059 0.11838 0.0
C220 C 0.89164 0.63627 0.10588 0.0
O221 O 0.86858 0.74112 0.14291 0.0
O222 O 0.79969 0.6998 0.13468 0.0
C223 C 0.72229 0.76145 0.11107 0.0
N224 N 0.74002 0.72815 0.09482 0.0
C225 C 0.68167 0.7524 0.06395 0.0
C226 C 0.66258 0.78672 0.08042 0.0
C227 C 0.68302 0.79128 0.10407 0.0
C228 C 0.72067 0.72351 0.072 0.0
H229 H 0.73807 0.76532 0.12922 0.0
C230 C 0.82923 0.72107 0.14959 0.0
O231 O 0.95579 0.779 0.12156 0.0
O232 O 0.88942 0.81956 0.11043 0.0
N233 N 0.78093 0.66532 0.06554 0.0
C234 C 0.80399 0.63091 0.05175 0.0
C235 C 0.78825 0.62217 0.0275 0.0
C236 C 0.7488 0.64859 0.01776 0.0
C237 C 0.72507 0.68316 0.03245 0.0
C238 C 0.74205 0.68994 0.05657 0.0
H239 H 0.83443 0.61058 0.0591 0.0
O240 O 0.90882 0.75202 0.0731 0.0
O241 O 0.83777 0.73478 0.08953 0.0
O242 O 0.91533 0.67585 0.10866 0.0
O243 O 0.8456 0.6348 0.10249 0.0
C244 C 0.68559 0.71153 0.02403 0.0
C245 C 0.66395 0.74617 0.03976 0.0
H246 H 0.63244 0.80995 0.07506 0.0
H247 H 0.66864 0.81785 0.11685 0.0
H248 H 0.80667 0.59532 0.0163 0.0
H249 H 0.7371 0.64211 -0.00103 0.0
H250 H 0.67182 0.70725 0.00544 0.0
H251 H 0.63386 0.76803 0.03301 0.0
Mn252 Mn 0.25037 0.39981 0.3595 0.0
Mn253 Mn 0.3137 0.29947 0.34312 0.0
C254 C 0.24913 0.37309 0.31934 0.0
C255 C 0.1791 0.43627 0.37315 0.0
C256 C 0.36051 0.39769 0.35232 0.0
O257 O 0.26409 0.36715 0.39234 0.0
O258 O 0.30266 0.29965 0.37896 0.0
C259 C 0.23914 0.2256 0.35436 0.0
N260 N 0.26956 0.24674 0.338 0.0
C261 C 0.24182 0.19365 0.30553 0.0
C262 C 0.21044 0.17107 0.32206 0.0
C263 C 0.20913 0.18712 0.34659 0.0
C264 C 0.27134 0.23142 0.31441 0.0
H265 H 0.23764 0.23814 0.37317 0.0
C266 C 0.28458 0.32599 0.39607 0.0
O267 O 0.22077 0.45799 0.37558 0.0
O268 O 0.17937 0.39266 0.36391 0.0
N269 N 0.32634 0.29453 0.30876 0.0
C270 C 0.35716 0.32149 0.29493 0.0
C271 C 0.36211 0.31067 0.26985 0.0
C272 C 0.33537 0.27231 0.2593 0.0
C273 C 0.30447 0.24463 0.27401 0.0
C274 C 0.30172 0.25648 0.29897 0.0
H275 H 0.37748 0.35131 0.3029 0.0
O276 O 0.2385 0.41803 0.32445 0.0
O277 O 0.26011 0.34533 0.33782 0.0
O278 O 0.32145 0.42085 0.35716 0.0
O279 O 0.36169 0.35217 0.34736 0.0
C280 C 0.27503 0.20685 0.26473 0.0
C281 C 0.24389 0.1812 0.28044 0.0
H282 H 0.18683 0.14174 0.31606 0.0
H283 H 0.1848 0.17008 0.35943 0.0
H284 H 0.38599 0.33222 0.25862 0.0
H285 H 0.33836 0.26497 0.23984 0.0
H286 H 0.27496 0.19835 0.24542 0.0
H287 H 0.22101 0.15263 0.27292 0.0
H288 H 0.12939 0.25373 0.03803 0.0
H289 H 0.30248 0.11837 0.94538 0.0
H290 H 0.26788 0.19121 0.05921 0.0
H291 H 0.19388 0.22054 0.92037 0.0
H292 H 0.29062 0.14674 0.98748 0.0
H293 H 0.15237 0.24529 -0.00515 0.0
C294 C 0.16472 0.23872 0.03366 0.0
C295 C 0.19627 0.22217 0.05229 0.0
C296 C 0.26995 0.16373 0.9728 0.0
C297 C 0.22252 0.21236 0.00313 0.0
C298 C 0.27676 0.1475 0.94887 0.0
C299 C 0.25008 0.16829 0.92963 0.0
C300 C 0.23469 0.19959 0.97756 0.0
C301 C 0.21603 0.20482 0.93487 0.0
C302 C 0.17784 0.23408 0.00904 0.0
C303 C 0.24185 0.20355 0.04554 0.0
N304 N 0.20892 0.21917 0.95849 0.0
N305 N 0.25328 0.19859 0.02154 0.0
H306 H 0.72661 0.63886 0.29209 0.0
H307 H 0.87731 0.76862 0.18699 0.0
H308 H 0.8353 0.74869 0.30678 0.0
H309 H 0.75473 0.6743 0.1727 0.0
H310 H 0.86062 0.76435 0.23083 0.0
H311 H 0.73431 0.65406 0.24828 0.0
C312 C 0.75196 0.66638 0.28613 0.0
C313 C 0.78075 0.69218 0.30317 0.0
C314 C 0.83718 0.74488 0.21808 0.0
C315 C 0.78986 0.70958 0.2529 0.0
C316 C 0.84675 0.74716 0.19302 0.0
C317 C 0.81769 0.72135 0.17608 0.0
C318 C 0.79849 0.71632 0.22633 0.0
C319 C 0.77834 0.69456 0.18503 0.0
C320 C 0.75623 0.67511 0.26107 0.0
C321 C 0.81253 0.72777 0.29432 0.0
N322 N 0.77016 0.69243 0.20955 0.0
N323 N 0.81659 0.73508 0.26976 0.0
H324 H 0.39393 0.17653 0.52258 0.0
H325 H 0.25229 0.36775 0.43915 0.0
H326 H 0.29331 0.28112 0.55245 0.0
H327 H 0.32559 0.2402 0.41072 0.0
H328 H 0.26425 0.33622 0.48082 0.0
H329 H 0.3669 0.19849 0.48115 0.0
C330 C 0.36543 0.20351 0.52027 0.0
C331 C 0.34471 0.2262 0.54066 0.0
C332 C 0.27728 0.31508 0.46537 0.0
C333 C 0.31493 0.253 0.49364 0.0
C334 C 0.27065 0.33313 0.44161 0.0
C335 C 0.28859 0.30702 0.42138 0.0
C336 C 0.30231 0.27091 0.46884 0.0
C337 C 0.31166 0.26208 0.42568 0.0
C338 C 0.35002 0.21613 0.49672 0.0
C339 C 0.30897 0.26196 0.53699 0.0
N340 N 0.3182 0.24575 0.44891 0.0
N341 N 0.29533 0.27459 0.51383 0.0
H342 H 0.77644 0.89236 0.77483 0.0
H343 H 0.61303 0.69018 0.70774 0.0
H344 H 0.68225 0.79425 0.81316 0.0
H345 H 0.71996 0.77619 0.67053 0.0
H346 H 0.64013 0.72546 0.74698 0.0
H347 H 0.75555 0.85086 0.73606 0.0
C348 C 0.75141 0.862 0.77495 0.0
C349 C 0.73235 0.84517 0.79701 0.0
C350 C 0.65824 0.73607 0.73028 0.0
C351 C 0.70767 0.79835 0.75323 0.0
C352 C 0.64303 0.71565 0.70802 0.0
C353 C 0.66502 0.72979 0.68617 0.0
C354 C 0.69467 0.77184 0.73043 0.0
C355 C 0.70305 0.76354 0.68718 0.0
C356 C 0.73959 0.83827 0.75296 0.0
C357 C 0.69892 0.80689 0.79644 0.0
N358 N 0.71645 0.78382 0.70897 0.0
N359 N 0.68779 0.78449 0.77487 0.0
H360 H 0.27983 0.40244 0.27434 0.0
H361 H 0.11525 0.20797 0.20227 0.0
H362 H 0.18602 0.30028 0.31018 0.0
H363 H 0.22261 0.29698 0.1672 0.0
H364 H 0.14251 0.23932 0.2423 0.0
H365 H 0.25827 0.36533 0.23454 0.0
C366 C 0.25475 0.37212 0.27369 0.0
C367 C 0.23601 0.35285 0.29531 0.0
C368 C 0.16066 0.25146 0.22589 0.0
C369 C 0.21057 0.31102 0.25037 0.0
C370 C 0.14535 0.23328 0.20316 0.0
C371 C 0.16744 0.24939 0.18169 0.0
C372 C 0.19729 0.28699 0.22692 0.0
C373 C 0.20562 0.28285 0.18352 0.0
C374 C 0.24254 0.35089 0.25112 0.0
C375 C 0.20248 0.31474 0.29378 0.0
N376 N 0.21913 0.30095 0.20579 0.0
N377 N 0.19098 0.2948 0.27166 0.0
H378 H 0.63188 0.73552 0.54354 0.0
H379 H 0.80639 0.60703 0.44805 0.0
H380 H 0.76327 0.65849 0.5641 0.0
H381 H 0.69859 0.71265 0.42603 0.0
H382 H 0.79267 0.62865 0.49099 0.0
H383 H 0.65664 0.73109 0.50053 0.0
C384 C 0.66597 0.71792 0.53908 0.0
C385 C 0.6951 0.69662 0.55746 0.0
C386 C 0.77256 0.64787 0.47682 0.0
C387 C 0.7235 0.69152 0.50843 0.0
C388 C 0.7805 0.63554 0.4524 0.0
C389 C 0.75451 0.65919 0.43377 0.0
C390 C 0.73696 0.68276 0.48261 0.0
C391 C 0.72024 0.69478 0.44008 0.0
C392 C 0.68016 0.71562 0.51455 0.0
C393 C 0.73919 0.67482 0.5506 0.0
N394 N 0.71209 0.70535 0.4641 0.0
N395 N 0.75174 0.67244 0.52665 0.0
H396 H 0.2534 0.14797 0.6669 0.0
H397 H 0.32634 0.24572 0.80094 0.0
H398 H 0.3711 0.24821 0.68139 0.0
H399 H 0.22964 0.12438 0.78797 0.0
H400 H 0.33425 0.25542 0.75664 0.0
H401 H 0.23576 0.14711 0.71081 0.0
C402 C 0.27537 0.17 0.67925 0.0
C403 C 0.31413 0.19781 0.67044 0.0
C404 C 0.31114 0.22682 0.76352 0.0
C405 C 0.29398 0.19708 0.72065 0.0
C406 C 0.30648 0.22132 0.78882 0.0
C407 C 0.27769 0.18382 0.79825 0.0
C408 C 0.28668 0.19478 0.7475 0.0
C409 C 0.25265 0.15349 0.78158 0.0
C410 C 0.26531 0.16941 0.70432 0.0
C411 C 0.34121 0.22577 0.68734 0.0
N412 N 0.25791 0.1595 0.75702 0.0
N413 N 0.3307 0.22457 0.71162 0.0
H414 H 0.89173 0.69508 0.02838 0.0
H415 H 0.74867 0.87622 0.94038 0.0
H416 H 0.79002 0.80109 0.05596 0.0
H417 H 0.81931 0.74437 0.9154 0.0
H418 H 0.761 0.84938 0.98288 0.0
H419 H 0.86366 0.71227 0.98656 0.0
C420 C 0.86279 0.72137 0.0255 0.0
C421 C 0.84204 0.7458 0.04537 0.0
C422 C 0.77332 0.82627 0.968 0.0
C423 C 0.81106 0.76721 -0.00215 0.0
C424 C 0.76649 0.84163 0.94377 0.0
C425 C 0.78368 0.81296 0.92426 0.0
C426 C 0.79783 0.78224 0.97264 0.0
C427 C 0.80604 0.76819 0.92977 0.0
C428 C 0.84677 0.73125 0.00173 0.0
C429 C 0.80571 0.78061 0.04094 0.0
N430 N 0.81285 0.75451 0.9534 0.0
N431 N 0.79148 0.79063 0.01753 0.0
H432 H 0.15432 0.04341 0.12759 0.0
H433 H 0.89639 0.9122 0.11388 0.0
H434 H 0.01962 0.12002 0.11332 0.0
H435 H 0.03012 0.83537 0.1297 0.0
H436 H 0.94069 0.98896 0.11507 0.0
H437 H 0.10944 0.96711 0.12909 0.0
C438 C 0.11534 0.04427 0.12465 0.0
C439 C 0.09079 0.08838 0.12024 0.0
C440 C 0.96036 0.95538 0.11842 0.0
C441 C 0.03911 0.00088 0.12214 0.0
C442 C 0.93505 0.91151 0.11782 0.0
C443 C 0.95966 0.86731 0.12161 0.0
C444 C 0.01074 0.95511 0.12275 0.0
C445 C 0.00973 0.86862 0.12666 0.0
C446 C 0.08971 0.00061 0.12562 0.0
C447 C 0.04018 0.08702 0.11673 0.0
N448 N 0.0337 0.91183 0.12694 0.0
N449 N 0.01607 0.044 0.11774 0.0
H450 H 0.1651 0.53156 0.3868 0.0
H451 H 0.87668 0.51769 0.36708 0.0
H452 H 0.08743 0.39919 0.36956 0.0
H453 H 0.95355 0.65108 0.38355 0.0
H454 H 0.95329 0.47315 0.37 0.0
H455 H 0.08749 0.57516 0.3887 0.0
C456 C 0.13171 0.51153 0.38376 0.0
C457 C 0.13274 0.46173 0.37788 0.0
C458 C 0.9534 0.51217 0.373 0.0
C459 C 0.04395 0.51143 0.37969 0.0
C460 C 0.90961 0.53772 0.37124 0.0
C461 C 0.9085 0.58837 0.37494 0.0
C462 C 0.99657 0.53732 0.37849 0.0
C463 C 0.95251 0.61214 0.38042 0.0
C464 C 0.08743 0.53648 0.38471 0.0
C465 C 0.08838 0.43763 0.37405 0.0
N466 N 0.99471 0.58643 0.38199 0.0
N467 N 0.04586 0.46277 0.37484 0.0
H468 H 0.3963 0.38754 0.61217 0.0
H469 H 0.65162 0.51998 0.63395 0.0
H470 H 0.52956 0.3105 0.62873 0.0
H471 H 0.51756 0.5962 0.6177 0.0
H472 H 0.60725 0.44326 0.6336 0.0
H473 H 0.43961 0.46451 0.61617 0.0
C474 C 0.43465 0.38682 0.61684 0.0
C475 C 0.45944 0.34251 0.62001 0.0
C476 C 0.58754 0.47677 0.63013 0.0
C477 C 0.50941 0.43066 0.62443 0.0
C478 C 0.61287 0.52069 0.63025 0.0
C479 C 0.58839 0.5648 0.62571 0.0
C480 C 0.5373 0.47677 0.62543 0.0
C481 C 0.53808 0.56322 0.62121 0.0
C482 C 0.4594 0.43084 0.61907 0.0
C483 C 0.50907 0.34383 0.6261 0.0
N484 N 0.51427 0.51995 0.62114 0.0
N485 N 0.53252 0.38723 0.62797 0.0
H486 H 0.66101 0.03328 0.88421 0.0
H487 H 0.37201 0.01776 0.86737 0.0
H488 H 0.58301 0.89973 0.8701 0.0
H489 H 0.44932 0.15251 0.87982 0.0
H490 H 0.44872 0.97351 0.87074 0.0
H491 H 0.58342 0.07698 0.88587 0.0
C492 C 0.62756 0.01305 0.88179 0.0
C493 C 0.62847 0.96285 0.87687 0.0
C494 C 0.44891 0.01276 0.87276 0.0
C495 C 0.5397 0.01262 0.87845 0.0
C496 C 0.40505 0.03814 0.87077 0.0
C497 C 0.40405 0.08909 0.87316 0.0
C498 C 0.49225 0.03838 0.87718 0.0
C499 C 0.4482 0.11331 0.8777 0.0
C500 C 0.58329 0.03804 0.88261 0.0
C501 C 0.58405 0.93848 0.87382 0.0
N502 N 0.49046 0.08776 0.87951 0.0
N503 N 0.54153 0.96365 0.8745 0.0
H504 H 0.98932 0.6222 0.11382 0.0
H505 H 0.97788 0.33266 0.09596 0.0
H506 H 0.85682 0.54391 0.09752 0.0
H507 H 0.10857 0.41126 0.11514 0.0
H508 H 0.93355 0.41 0.09419 0.0
H509 H 0.03401 0.54544 0.11271 0.0
C510 C 0.96952 0.58892 0.11005 0.0
C511 C 0.91908 0.58969 0.10584 0.0
C512 C 0.97198 0.41032 0.09866 0.0
C513 C 0.97032 0.50141 0.10442 0.0
C514 C 0.99735 0.3662 0.09958 0.0
C515 C 0.04696 0.36551 0.10578 0.0
C516 C 0.99644 0.45404 0.10399 0.0
C517 C 0.07032 0.41005 0.11034 0.0
C518 C 0.99515 0.54503 0.10937 0.0
C519 C 0.89559 0.54522 0.10099 0.0
N520 N 0.04482 0.45245 0.10945 0.0
N521 N 0.9214 0.50294 0.10042 0.0
H522 H 0.37556 0.49492 0.36167 0.0
H523 H 0.66358 0.47955 0.34333 0.0
H524 H 0.45143 0.36279 0.3416 0.0
H525 H 0.58696 0.61119 0.36318 0.0
H526 H 0.58573 0.43701 0.34021 0.0
H527 H 0.4524 0.53883 0.36049 0.0
C528 C 0.4083 0.47506 0.35704 0.0
C529 C 0.40689 0.42493 0.35187 0.0
C530 C 0.58595 0.47529 0.34509 0.0
C531 C 0.49516 0.47519 0.35039 0.0
C532 C 0.63037 0.49961 0.34679 0.0
C533 C 0.63175 0.54889 0.35365 0.0
C534 C 0.54269 0.50046 0.35034 0.0
C535 C 0.58763 0.57311 0.35793 0.0
C536 C 0.45221 0.50023 0.35631 0.0
C537 C 0.45064 0.40133 0.34586 0.0
N538 N 0.54495 0.54859 0.35635 0.0
N539 N 0.49294 0.42663 0.34535 0.0
H540 H 0.35421 0.02042 0.59331 0.0
H541 H 0.60964 0.88721 0.61639 0.0
H542 H 0.48809 0.09627 0.60969 0.0
H543 H 0.47692 0.81026 0.59927 0.0
H544 H 0.56603 0.96425 0.61229 0.0
H545 H 0.39864 0.94334 0.59417 0.0
C546 C 0.39292 0.02098 0.59712 0.0
C547 C 0.41733 0.06511 0.60154 0.0
C548 C 0.54642 0.93057 0.6093 0.0
C549 C 0.46847 0.9767 0.60244 0.0
C550 C 0.57134 0.88651 0.61159 0.0
C551 C 0.54683 0.84221 0.60825 0.0
C552 C 0.49649 0.93046 0.6037 0.0
C553 C 0.49723 0.84358 0.60202 0.0
C554 C 0.41828 0.97687 0.59754 0.0
C555 C 0.4676 0.06331 0.60624 0.0
N556 N 0.47361 0.88701 0.60008 0.0
N557 N 0.49141 0.01989 0.6066 0.0
H558 H 0.8711 0.99396 0.86017 0.0
H559 H 0.15975 0.97702 0.84459 0.0
H560 H 0.94754 0.86014 0.84379 0.0
H561 H 0.08242 0.11042 0.86038 0.0
H562 H 0.08204 0.93411 0.84207 0.0
H563 H 0.94801 0.03767 0.85865 0.0
C564 C 0.90398 0.97369 0.85626 0.0
C565 C 0.9027 0.92315 0.85224 0.0
C566 C 0.08208 0.97283 0.84593 0.0
C567 C 0.99108 0.97319 0.8504 0.0
C568 C 0.12642 0.99736 0.8473 0.0
C569 C 0.12755 0.0473 0.85281 0.0
C570 C 0.03863 0.99845 0.85016 0.0
C571 C 0.08328 0.07185 0.85617 0.0
C572 C 0.94794 0.99875 0.85535 0.0
C573 C 0.94663 0.89902 0.84715 0.0
N574 N 0.04068 0.04713 0.85492 0.0
N575 N 0.98898 0.92423 0.84644 0.0
loop_
_geom_bond_atom_site_label_1
_geom_bond_atom_site_label_2
_geom_bond_distance
_geom_bond_site_symmetry_2
_ccdc_geom_bond_type
Mn0 O5 2.095 . S
Mn0 O15 2.162 . S
Mn0 O16 2.297 . S
Mn0 O24 2.385 . S
Mn0 O25 2.209 . S
Mn0 O26 2.094 . S
Mn1 O6 2.121 . S
Mn1 N8 2.257 . S
Mn1 N17 2.282 . S
Mn1 O25 2.215 . S
Mn1 O27 2.117 . S
C2 O24 1.234 . S
C2 O25 1.283 . S
C3 O15 1.281 . S
C3 O16 1.236 . S
C4 O26 1.240 . S
C4 O27 1.264 . S
O5 Mn0 2.095 . S
O5 C14 1.250 . S
O6 Mn1 2.121 . S
O6 C14 1.258 . S
C7 N8 1.326 . S
C7 C11 1.460 . S
C7 H13 0.929 . S
N8 Mn1 2.257 . S
N8 C7 1.326 . S
N8 C12 1.362 . S
C9 C10 1.258 . S
C9 C12 1.431 . S
C9 C29 1.449 . S
C10 C9 1.258 . S
C10 C11 1.477 . S
C10 H30 0.931 . S
C11 C7 1.460 . S
C11 C10 1.477 . S
C11 H31 0.930 . S
C12 N8 1.362 . S
C12 C9 1.431 . S
C12 C22 1.476 . S
H13 C7 0.929 . S
C14 O5 1.250 . S
C14 O6 1.258 . S
O15 Mn0 2.162 . S
O15 C3 1.281 . S
O16 Mn0 2.297 . S
O16 C3 1.236 . S
N17 Mn1 2.282 . S
N17 C18 1.328 . S
N17 C22 1.318 . S
C18 N17 1.328 . S
C18 C19 1.457 . S
C18 H23 0.929 . S
C19 C18 1.457 . S
C19 C20 1.291 . S
C19 H32 0.931 . S
C20 C19 1.291 . S
C20 C21 1.373 . S
C20 H33 0.929 . S
C21 C20 1.373 . S
C21 C22 1.396 . S
C21 C28 1.403 . S
C22 C12 1.476 . S
C22 N17 1.318 . S
C22 C21 1.396 . S
H23 C18 0.929 . S
O24 Mn0 2.385 . S
O24 C2 1.234 . S
O25 Mn0 2.209 . S
O25 Mn1 2.215 . S
O25 C2 1.283 . S
O26 Mn0 2.094 . S
O26 C4 1.240 . S
O27 Mn1 2.117 . S
O27 C4 1.264 . S
C28 C21 1.403 . S
C28 C29 1.399 . S
C28 H34 0.929 . S
C29 C9 1.449 . S
C29 C28 1.399 . S
C29 H35 0.930 . S
H30 C10 0.931 . S
H31 C11 0.930 . S
H32 C19 0.931 . S
H33 C20 0.929 . S
H34 C28 0.929 . S
H35 C29 0.930 . S
Mn36 O41 2.095 . S
Mn36 O51 2.162 . S
Mn36 O52 2.297 . S
Mn36 O60 2.385 . S
Mn36 O61 2.209 . S
Mn36 O62 2.094 . S
Mn37 O42 2.121 . S
Mn37 N44 2.257 . S
Mn37 N53 2.282 . S
Mn37 O61 2.215 . S
Mn37 O63 2.117 . S
C38 O60 1.234 . S
C38 O61 1.283 . S
C39 O51 1.281 . S
C39 O52 1.236 . S
C40 O62 1.240 . S
C40 O63 1.264 . S
O41 Mn36 2.095 . S
O41 C50 1.250 . S
O42 Mn37 2.121 . S
O42 C50 1.258 . S
C43 N44 1.326 . S
C43 C47 1.460 . S
C43 H49 0.929 . S
N44 Mn37 2.257 . S
N44 C43 1.326 . S
N44 C48 1.362 . S
C45 C46 1.258 . S
C45 C48 1.431 . S
C45 C65 1.449 . S
C46 C45 1.258 . S
C46 C47 1.477 . S
C46 H66 0.931 . S
C47 C43 1.460 . S
C47 C46 1.477 . S
C47 H67 0.930 . S
C48 N44 1.362 . S
C48 C45 1.431 . S
C48 C58 1.476 . S
H49 C43 0.929 . S
C50 O41 1.250 . S
C50 O42 1.258 . S
O51 Mn36 2.162 . S
O51 C39 1.281 . S
O52 Mn36 2.297 . S
O52 C39 1.236 . S
N53 Mn37 2.282 . S
N53 C54 1.328 . S
N53 C58 1.318 . S
C54 N53 1.328 . S
C54 C55 1.457 . S
C54 H59 0.929 . S
C55 C54 1.457 . S
C55 C56 1.291 . S
C55 H68 0.931 . S
C56 C55 1.291 . S
C56 C57 1.373 . S
C56 H69 0.929 . S
C57 C56 1.373 . S
C57 C58 1.396 . S
C57 C64 1.403 . S
C58 C48 1.476 . S
C58 N53 1.318 . S
C58 C57 1.396 . S
H59 C54 0.929 . S
O60 Mn36 2.385 . S
O60 C38 1.234 . S
O61 Mn36 2.209 . S
O61 Mn37 2.215 . S
O61 C38 1.283 . S
O62 Mn36 2.094 . S
O62 C40 1.240 . S
O63 Mn37 2.117 . S
O63 C40 1.264 . S
C64 C57 1.403 . S
C64 C65 1.399 . S
C64 H70 0.929 . S
C65 C45 1.449 . S
C65 C64 1.399 . S
C65 H71 0.930 . S
H66 C46 0.931 . S
H67 C47 0.930 . S
H68 C55 0.931 . S
H69 C56 0.929 . S
H70 C64 0.929 . S
H71 C65 0.930 . S
Mn72 O77 2.095 . S
Mn72 O87 2.162 . S
Mn72 O88 2.297 . S
Mn72 O96 2.385 . S
Mn72 O97 2.209 . S
Mn72 O98 2.094 . S
Mn73 O78 2.121 . S
Mn73 N80 2.257 . S
Mn73 N89 2.282 . S
Mn73 O97 2.215 . S
Mn73 O99 2.117 . S
C74 O96 1.234 . S
C74 O97 1.283 . S
C75 O87 1.281 . S
C75 O88 1.236 . S
C76 O98 1.240 . S
C76 O99 1.264 . S
O77 Mn72 2.095 . S
O77 C86 1.250 . S
O78 Mn73 2.121 . S
O78 C86 1.258 . S
C79 N80 1.326 . S
C79 C83 1.460 . S
C79 H85 0.929 . S
N80 Mn73 2.257 . S
N80 C79 1.326 . S
N80 C84 1.362 . S
C81 C82 1.258 . S
C81 C84 1.431 . S
C81 C101 1.449 . S
C82 C81 1.258 . S
C82 C83 1.477 . S
C82 H102 0.931 . S
C83 C79 1.460 . S
C83 C82 1.477 . S
C83 H103 0.930 . S
C84 N80 1.362 . S
C84 C81 1.431 . S
C84 C94 1.476 . S
H85 C79 0.929 . S
C86 O77 1.250 . S
C86 O78 1.258 . S
O87 Mn72 2.162 . S
O87 C75 1.281 . S
O88 Mn72 2.297 . S
O88 C75 1.236 . S
N89 Mn73 2.282 . S
N89 C90 1.328 . S
N89 C94 1.318 . S
C90 N89 1.328 . S
C90 C91 1.457 . S
C90 H95 0.929 . S
C91 C90 1.457 . S
C91 C92 1.291 . S
C91 H104 0.931 . S
C92 C91 1.291 . S
C92 C93 1.373 . S
C92 H105 0.929 . S
C93 C92 1.373 . S
C93 C94 1.396 . S
C93 C100 1.403 . S
C94 C84 1.476 . S
C94 N89 1.318 . S
C94 C93 1.396 . S
H95 C90 0.929 . S
O96 Mn72 2.385 . S
O96 C74 1.234 . S
O97 Mn72 2.209 . S
O97 Mn73 2.215 . S
O97 C74 1.283 . S
O98 Mn72 2.094 . S
O98 C76 1.240 . S
O99 Mn73 2.117 . S
O99 C76 1.264 . S
C100 C93 1.403 . S
C100 C101 1.399 . S
C100 H106 0.929 . S
C101 C81 1.449 . S
C101 C100 1.399 . S
C101 H107 0.930 . S
H102 C82 0.931 . S
H103 C83 0.930 . S
H104 C91 0.931 . S
H105 C92 0.929 . S
H106 C100 0.929 . S
H107 C101 0.930 . S
Mn108 O113 2.095 . S
Mn108 O123 2.162 . S
Mn108 O124 2.297 . S
Mn108 O132 2.385 . S
Mn108 O133 2.209 . S
Mn108 O134 2.094 . S
Mn109 O114 2.121 . S
Mn109 N116 2.257 . S
Mn109 N125 2.282 . S
Mn109 O133 2.215 . S
Mn109 O135 2.117 . S
C110 O132 1.234 . S
C110 O133 1.283 . S
C111 O123 1.281 . S
C111 O124 1.236 . S
C112 O134 1.240 . S
C112 O135 1.264 . S
O113 Mn108 2.095 . S
O113 C122 1.250 . S
O114 Mn109 2.121 . S
O114 C122 1.258 . S
C115 N116 1.326 . S
C115 C119 1.460 . S
C115 H121 0.929 . S
N116 Mn109 2.257 . S
N116 C115 1.326 . S
N116 C120 1.362 . S
C117 C118 1.258 . S
C117 C120 1.431 . S
C117 C137 1.449 . S
C118 C117 1.258 . S
C118 C119 1.477 . S
C118 H138 0.931 . S
C119 C115 1.460 . S
C119 C118 1.477 . S
C119 H139 0.930 . S
C120 N116 1.362 . S
C120 C117 1.431 . S
C120 C130 1.476 . S
H121 C115 0.929 . S
C122 O113 1.250 . S
C122 O114 1.258 . S
O123 Mn108 2.162 . S
O123 C111 1.281 . S
O124 Mn108 2.297 . S
O124 C111 1.236 . S
N125 Mn109 2.282 . S
N125 C126 1.328 . S
N125 C130 1.318 . S
C126 N125 1.328 . S
C126 C127 1.457 . S
C126 H131 0.929 . S
C127 C126 1.457 . S
C127 C128 1.291 . S
C127 H140 0.931 . S
C128 C127 1.291 . S
C128 C129 1.373 . S
C128 H141 0.929 . S
C129 C128 1.373 . S
C129 C130 1.396 . S
C129 C136 1.403 . S
C130 C120 1.476 . S
C130 N125 1.318 . S
C130 C129 1.396 . S
H131 C126 0.929 . S
O132 Mn108 2.385 . S
O132 C110 1.234 . S
O133 Mn108 2.209 . S
O133 Mn109 2.215 . S
O133 C110 1.283 . S
O134 Mn108 2.094 . S
O134 C112 1.240 . S
O135 Mn109 2.117 . S
O135 C112 1.264 . S
C136 C129 1.403 . S
C136 C137 1.399 . S
C136 H142 0.929 . S
C137 C117 1.449 . S
C137 C136 1.399 . S
C137 H143 0.930 . S
H138 C118 0.931 . S
H139 C119 0.930 . S
H140 C127 0.931 . S
H141 C128 0.929 . S
H142 C136 0.929 . S
H143 C137 0.930 . S
Mn144 O149 2.095 . S
Mn144 O159 2.162 . S
Mn144 O160 2.297 . S
Mn144 O168 2.385 . S
Mn144 O169 2.209 . S
Mn144 O170 2.094 . S
Mn145 O150 2.121 . S
Mn145 N152 2.257 . S
Mn145 N161 2.282 . S
Mn145 O169 2.215 . S
Mn145 O171 2.117 . S
C146 O168 1.234 . S
C146 O169 1.283 . S
C147 O159 1.281 . S
C147 O160 1.236 . S
C148 O170 1.240 . S
C148 O171 1.264 . S
O149 Mn144 2.095 . S
O149 C158 1.250 . S
O150 Mn145 2.121 . S
O150 C158 1.258 . S
C151 N152 1.326 . S
C151 C155 1.460 . S
C151 H157 0.929 . S
N152 Mn145 2.257 . S
N152 C151 1.326 . S
N152 C156 1.362 . S
C153 C154 1.258 . S
C153 C156 1.431 . S
C153 C173 1.449 . S
C154 C153 1.258 . S
C154 C155 1.477 . S
C154 H174 0.931 . S
C155 C151 1.460 . S
C155 C154 1.477 . S
C155 H175 0.930 . S
C156 N152 1.362 . S
C156 C153 1.431 . S
C156 C166 1.476 . S
H157 C151 0.929 . S
C158 O149 1.250 . S
C158 O150 1.258 . S
O159 Mn144 2.162 . S
O159 C147 1.281 . S
O160 Mn144 2.297 . S
O160 C147 1.236 . S
N161 Mn145 2.282 . S
N161 C162 1.328 . S
N161 C166 1.318 . S
C162 N161 1.328 . S
C162 C163 1.457 . S
C162 H167 0.929 . S
C163 C162 1.457 . S
C163 C164 1.291 . S
C163 H176 0.931 . S
C164 C163 1.291 . S
C164 C165 1.373 . S
C164 H177 0.929 . S
C165 C164 1.373 . S
C165 C166 1.396 . S
C165 C172 1.403 . S
C166 C156 1.476 . S
C166 N161 1.318 . S
C166 C165 1.396 . S
H167 C162 0.929 . S
O168 Mn144 2.385 . S
O168 C146 1.234 . S
O169 Mn144 2.209 . S
O169 Mn145 2.215 . S
O169 C146 1.283 . S
O170 Mn144 2.094 . S
O170 C148 1.240 . S
O171 Mn145 2.117 . S
O171 C148 1.264 . S
C172 C165 1.403 . S
C172 C173 1.399 . S
C172 H178 0.929 . S
C173 C153 1.449 . S
C173 C172 1.399 . S
C173 H179 0.930 . S
H174 C154 0.931 . S
H175 C155 0.930 . S
H176 C163 0.931 . S
H177 C164 0.929 . S
H178 C172 0.929 . S
H179 C173 0.930 . S
Mn180 O185 2.095 . S
Mn180 O195 2.162 . S
Mn180 O196 2.297 . S
Mn180 O204 2.385 . S
Mn180 O205 2.209 . S
Mn180 O206 2.094 . S
Mn181 O186 2.121 . S
Mn181 N188 2.257 . S
Mn181 N197 2.282 . S
Mn181 O205 2.215 . S
Mn181 O207 2.117 . S
C182 O204 1.234 . S
C182 O205 1.283 . S
C183 O195 1.281 . S
C183 O196 1.236 . S
C184 O206 1.240 . S
C184 O207 1.264 . S
O185 Mn180 2.095 . S
O185 C194 1.250 . S
O186 Mn181 2.121 . S
O186 C194 1.258 . S
C187 N188 1.326 . S
C187 C191 1.460 . S
C187 H193 0.929 . S
N188 Mn181 2.257 . S
N188 C187 1.326 . S
N188 C192 1.362 . S
C189 C190 1.258 . S
C189 C192 1.431 . S
C189 C209 1.449 . S
C190 C189 1.258 . S
C190 C191 1.477 . S
C190 H210 0.931 . S
C191 C187 1.460 . S
C191 C190 1.477 . S
C191 H211 0.930 . S
C192 N188 1.362 . S
C192 C189 1.431 . S
C192 C202 1.476 . S
H193 C187 0.929 . S
C194 O185 1.250 . S
C194 O186 1.258 . S
O195 Mn180 2.162 . S
O195 C183 1.281 . S
O196 Mn180 2.297 . S
O196 C183 1.236 . S
N197 Mn181 2.282 . S
N197 C198 1.328 . S
N197 C202 1.318 . S
C198 N197 1.328 . S
C198 C199 1.457 . S
C198 H203 0.929 . S
C199 C198 1.457 . S
C199 C200 1.291 . S
C199 H212 0.931 . S
C200 C199 1.291 . S
C200 C201 1.373 . S
C200 H213 0.929 . S
C201 C200 1.373 . S
C201 C202 1.396 . S
C201 C208 1.403 . S
C202 C192 1.476 . S
C202 N197 1.318 . S
C202 C201 1.396 . S
H203 C198 0.929 . S
O204 Mn180 2.385 . S
O204 C182 1.234 . S
O205 Mn180 2.209 . S
O205 Mn181 2.215 . S
O205 C182 1.283 . S
O206 Mn180 2.094 . S
O206 C184 1.240 . S
O207 Mn181 2.117 . S
O207 C184 1.264 . S
C208 C201 1.403 . S
C208 C209 1.399 . S
C208 H214 0.929 . S
C209 C189 1.449 . S
C209 C208 1.399 . S
C209 H215 0.930 . S
H210 C190 0.931 . S
H211 C191 0.930 . S
H212 C199 0.931 . S
H213 C200 0.929 . S
H214 C208 0.929 . S
H215 C209 0.930 . S
Mn216 O221 2.095 . S
Mn216 O231 2.162 . S
Mn216 O232 2.297 . S
Mn216 O240 2.385 . S
Mn216 O241 2.209 . S
Mn216 O242 2.094 . S
Mn217 O222 2.121 . S
Mn217 N224 2.257 . S
Mn217 N233 2.282 . S
Mn217 O241 2.215 . S
Mn217 O243 2.117 . S
C218 O240 1.234 . S
C218 O241 1.283 . S
C219 O231 1.281 . S
C219 O232 1.236 . S
C220 O242 1.240 . S
C220 O243 1.264 . S
O221 Mn216 2.095 . S
O221 C230 1.250 . S
O222 Mn217 2.121 . S
O222 C230 1.258 . S
C223 N224 1.326 . S
C223 C227 1.460 . S
C223 H229 0.929 . S
N224 Mn217 2.257 . S
N224 C223 1.326 . S
N224 C228 1.362 . S
C225 C226 1.258 . S
C225 C228 1.431 . S
C225 C245 1.449 . S
C226 C225 1.258 . S
C226 C227 1.477 . S
C226 H246 0.931 . S
C227 C223 1.460 . S
C227 C226 1.477 . S
C227 H247 0.930 . S
C228 N224 1.362 . S
C228 C225 1.431 . S
C228 C238 1.476 . S
H229 C223 0.929 . S
C230 O221 1.250 . S
C230 O222 1.258 . S
O231 Mn216 2.162 . S
O231 C219 1.281 . S
O232 Mn216 2.297 . S
O232 C219 1.236 . S
N233 Mn217 2.282 . S
N233 C234 1.328 . S
N233 C238 1.318 . S
C234 N233 1.328 . S
C234 C235 1.457 . S
C234 H239 0.929 . S
C235 C234 1.457 . S
C235 C236 1.291 . S
C235 H248 0.931 . S
C236 C235 1.291 . S
C236 C237 1.373 . S
C236 H249 0.929 . S
C237 C236 1.373 . S
C237 C238 1.396 . S
C237 C244 1.403 . S
C238 C228 1.476 . S
C238 N233 1.318 . S
C238 C237 1.396 . S
H239 C234 0.929 . S
O240 Mn216 2.385 . S
O240 C218 1.234 . S
O241 Mn216 2.209 . S
O241 Mn217 2.215 . S
O241 C218 1.283 . S
O242 Mn216 2.094 . S
O242 C220 1.240 . S
O243 Mn217 2.117 . S
O243 C220 1.264 . S
C244 C237 1.403 . S
C244 C245 1.399 . S
C244 H250 0.929 . S
C245 C225 1.449 . S
C245 C244 1.399 . S
C245 H251 0.930 . S
H246 C226 0.931 . S
H247 C227 0.930 . S
H248 C235 0.931 . S
H249 C236 0.929 . S
H250 C244 0.929 . S
H251 C245 0.930 . S
Mn252 O257 2.095 . S
Mn252 O267 2.162 . S
Mn252 O268 2.297 . S
Mn252 O276 2.385 . S
Mn252 O277 2.209 . S
Mn252 O278 2.094 . S
Mn253 O258 2.121 . S
Mn253 N260 2.257 . S
Mn253 N269 2.282 . S
Mn253 O277 2.215 . S
Mn253 O279 2.117 . S
C254 O276 1.234 . S
C254 O277 1.283 . S
C255 O267 1.281 . S
C255 O268 1.236 . S
C256 O278 1.240 . S
C256 O279 1.264 . S
O257 Mn252 2.095 . S
O257 C266 1.250 . S
O258 Mn253 2.121 . S
O258 C266 1.258 . S
C259 N260 1.326 . S
C259 C263 1.460 . S
C259 H265 0.929 . S
N260 Mn253 2.257 . S
N260 C259 1.326 . S
N260 C264 1.362 . S
C261 C262 1.258 . S
C261 C264 1.431 . S
C261 C281 1.449 . S
C262 C261 1.258 . S
C262 C263 1.477 . S
C262 H282 0.931 . S
C263 C259 1.460 . S
C263 C262 1.477 . S
C263 H283 0.930 . S
C264 N260 1.362 . S
C264 C261 1.431 . S
C264 C274 1.476 . S
H265 C259 0.929 . S
C266 O257 1.250 . S
C266 O258 1.258 . S
O267 Mn252 2.162 . S
O267 C255 1.281 . S
O268 Mn252 2.297 . S
O268 C255 1.236 . S
N269 Mn253 2.282 . S
N269 C270 1.328 . S
N269 C274 1.318 . S
C270 N269 1.328 . S
C270 C271 1.457 . S
C270 H275 0.929 . S
C271 C270 1.457 . S
C271 C272 1.291 . S
C271 H284 0.931 . S
C272 C271 1.291 . S
C272 C273 1.373 . S
C272 H285 0.929 . S
C273 C272 1.373 . S
C273 C274 1.396 . S
C273 C280 1.403 . S
C274 C264 1.476 . S
C274 N269 1.318 . S
C274 C273 1.396 . S
H275 C270 0.929 . S
O276 Mn252 2.385 . S
O276 C254 1.234 . S
O277 Mn252 2.209 . S
O277 Mn253 2.215 . S
O277 C254 1.283 . S
O278 Mn252 2.094 . S
O278 C256 1.240 . S
O279 Mn253 2.117 . S
O279 C256 1.264 . S
C280 C273 1.403 . S
C280 C281 1.399 . S
C280 H286 0.929 . S
C281 C261 1.449 . S
C281 C280 1.399 . S
C281 H287 0.930 . S
H282 C262 0.931 . S
H283 C263 0.930 . S
H284 C271 0.931 . S
H285 C272 0.929 . S
H286 C280 0.929 . S
H287 C281 0.930 . S
H288 C294 0.930 . S
H289 C298 0.930 . S
H290 C303 0.929 . S
H291 C301 0.929 . S
H292 C296 0.929 . S
H293 C302 0.929 . S
C294 H288 0.930 . S
C294 C295 1.367 . S
C294 C302 1.378 . S
C295 C294 1.367 . S
C295 C303 1.433 . S
C296 H292 0.929 . S
C296 C298 1.378 . S
C296 C300 1.350 . S
C297 C300 1.463 1_554 S
C297 C302 1.350 . S
C297 N305 1.427 . S
C298 H289 0.930 . S
C298 C296 1.378 . S
C298 C299 1.367 . S
C299 C298 1.367 . S
C299 C301 1.433 . S
C300 C296 1.350 . S
C300 C297 1.463 1_556 S
C300 N304 1.427 . S
C301 H291 0.929 . S
C301 C299 1.433 . S
C301 N304 1.384 . S
C302 H293 0.929 . S
C302 C294 1.378 . S
C302 C297 1.350 . S
C303 H290 0.929 . S
C303 C295 1.433 . S
C303 N305 1.384 . S
N304 C300 1.427 . S
N304 C301 1.384 . S
N305 C297 1.427 . S
N305 C303 1.384 . S
H306 C312 0.930 . S
H307 C316 0.930 . S
H308 C321 0.929 . S
H309 C319 0.929 . S
H310 C314 0.929 . S
H311 C320 0.929 . S
C312 H306 0.930 . S
C312 C313 1.367 . S
C312 C320 1.378 . S
C313 C312 1.367 . S
C313 C321 1.433 . S
C314 H310 0.929 . S
C314 C316 1.378 . S
C314 C318 1.350 . S
C315 C318 1.463 . S
C315 C320 1.350 . S
C315 N323 1.427 . S
C316 H307 0.930 . S
C316 C314 1.378 . S
C316 C317 1.367 . S
C317 C316 1.367 . S
C317 C319 1.433 . S
C318 C314 1.350 . S
C318 C315 1.463 . S
C318 N322 1.427 . S
C319 H309 0.929 . S
C319 C317 1.433 . S
C319 N322 1.384 . S
C320 H311 0.929 . S
C320 C312 1.378 . S
C320 C315 1.350 . S
C321 H308 0.929 . S
C321 C313 1.433 . S
C321 N323 1.384 . S
N322 C318 1.427 . S
N322 C319 1.384 . S
N323 C315 1.427 . S
N323 C321 1.384 . S
H324 C330 0.930 . S
H325 C334 0.930 . S
H326 C339 0.929 . S
H327 C337 0.929 . S
H328 C332 0.929 . S
H329 C338 0.929 . S
C330 H324 0.930 . S
C330 C331 1.367 . S
C330 C338 1.378 . S
C331 C330 1.367 . S
C331 C339 1.433 . S
C332 H328 0.929 . S
C332 C334 1.378 . S
C332 C336 1.350 . S
C333 C336 1.463 . S
C333 C338 1.350 . S
C333 N341 1.427 . S
C334 H325 0.930 . S
C334 C332 1.378 . S
C334 C335 1.367 . S
C335 C334 1.367 . S
C335 C337 1.433 . S
C336 C332 1.350 . S
C336 C333 1.463 . S
C336 N340 1.427 . S
C337 H327 0.929 . S
C337 C335 1.433 . S
C337 N340 1.384 . S
C338 H329 0.929 . S
C338 C330 1.378 . S
C338 C333 1.350 . S
C339 H326 0.929 . S
C339 C331 1.433 . S
C339 N341 1.384 . S
N340 C336 1.427 . S
N340 C337 1.384 . S
N341 C333 1.427 . S
N341 C339 1.384 . S
H342 C348 0.930 . S
H343 C352 0.930 . S
H344 C357 0.929 . S
H345 C355 0.929 . S
H346 C350 0.929 . S
H347 C356 0.929 . S
C348 H342 0.930 . S
C348 C349 1.367 . S
C348 C356 1.378 . S
C349 C348 1.367 . S
C349 C357 1.433 . S
C350 H346 0.929 . S
C350 C352 1.378 . S
C350 C354 1.350 . S
C351 C354 1.463 . S
C351 C356 1.350 . S
C351 N359 1.427 . S
C352 H343 0.930 . S
C352 C350 1.378 . S
C352 C353 1.367 . S
C353 C352 1.367 . S
C353 C355 1.433 . S
C354 C350 1.350 . S
C354 C351 1.463 . S
C354 N358 1.427 . S
C355 H345 0.929 . S
C355 C353 1.433 . S
C355 N358 1.384 . S
C356 H347 0.929 . S
C356 C348 1.378 . S
C356 C351 1.350 . S
C357 H344 0.929 . S
C357 C349 1.433 . S
C357 N359 1.384 . S
N358 C354 1.427 . S
N358 C355 1.384 . S
N359 C351 1.427 . S
N359 C357 1.384 . S
H360 C366 0.930 . S
H361 C370 0.930 . S
H362 C375 0.929 . S
H363 C373 0.929 . S
H364 C368 0.929 . S
H365 C374 0.929 . S
C366 H360 0.930 . S
C366 C367 1.367 . S
C366 C374 1.378 . S
C367 C366 1.367 . S
C367 C375 1.433 . S
C368 H364 0.929 . S
C368 C370 1.378 . S
C368 C372 1.350 . S
C369 C372 1.463 . S
C369 C374 1.350 . S
C369 N377 1.427 . S
C370 H361 0.930 . S
C370 C368 1.378 . S
C370 C371 1.367 . S
C371 C370 1.367 . S
C371 C373 1.433 . S
C372 C368 1.350 . S
C372 C369 1.463 . S
C372 N376 1.427 . S
C373 H363 0.929 . S
C373 C371 1.433 . S
C373 N376 1.384 . S
C374 H365 0.929 . S
C374 C366 1.378 . S
C374 C369 1.350 . S
C375 H362 0.929 . S
C375 C367 1.433 . S
C375 N377 1.384 . S
N376 C372 1.427 . S
N376 C373 1.384 . S
N377 C369 1.427 . S
N377 C375 1.384 . S
H378 C384 0.930 . S
H379 C388 0.930 . S
H380 C393 0.929 . S
H381 C391 0.929 . S
H382 C386 0.929 . S
H383 C392 0.929 . S
C384 H378 0.930 . S
C384 C385 1.367 . S
C384 C392 1.378 . S
C385 C384 1.367 . S
C385 C393 1.433 . S
C386 H382 0.929 . S
C386 C388 1.378 . S
C386 C390 1.350 . S
C387 C390 1.463 . S
C387 C392 1.350 . S
C387 N395 1.427 . S
C388 H379 0.930 . S
C388 C386 1.378 . S
C388 C389 1.367 . S
C389 C388 1.367 . S
C389 C391 1.433 . S
C390 C386 1.350 . S
C390 C387 1.463 . S
C390 N394 1.427 . S
C391 H381 0.929 . S
C391 C389 1.433 . S
C391 N394 1.384 . S
C392 H383 0.929 . S
C392 C384 1.378 . S
C392 C387 1.350 . S
C393 H380 0.929 . S
C393 C385 1.433 . S
C393 N395 1.384 . S
N394 C390 1.427 . S
N394 C391 1.384 . S
N395 C387 1.427 . S
N395 C393 1.384 . S
H396 C402 0.930 . S
H397 C406 0.930 . S
H398 C411 0.929 . S
H399 C409 0.929 . S
H400 C404 0.929 . S
H401 C410 0.929 . S
C402 H396 0.930 . S
C402 C403 1.367 . S
C402 C410 1.378 . S
C403 C402 1.367 . S
C403 C411 1.433 . S
C404 H400 0.929 . S
C404 C406 1.378 . S
C404 C408 1.350 . S
C405 C408 1.463 . S
C405 C410 1.350 . S
C405 N413 1.427 . S
C406 H397 0.930 . S
C406 C404 1.378 . S
C406 C407 1.367 . S
C407 C406 1.367 . S
C407 C409 1.433 . S
C408 C404 1.350 . S
C408 C405 1.463 . S
C408 N412 1.427 . S
C409 H399 0.929 . S
C409 C407 1.433 . S
C409 N412 1.384 . S
C410 H401 0.929 . S
C410 C402 1.378 . S
C410 C405 1.350 . S
C411 H398 0.929 . S
C411 C403 1.433 . S
C411 N413 1.384 . S
N412 C408 1.427 . S
N412 C409 1.384 . S
N413 C405 1.427 . S
N413 C411 1.384 . S
H414 C420 0.930 . S
H415 C424 0.930 . S
H416 C429 0.929 . S
H417 C427 0.929 . S
H418 C422 0.929 . S
H419 C428 0.929 . S
C420 H414 0.930 . S
C420 C421 1.367 . S
C420 C428 1.378 . S
C421 C420 1.367 . S
C421 C429 1.433 . S
C422 H418 0.929 . S
C422 C424 1.378 . S
C422 C426 1.350 . S
C423 C426 1.463 1_554 S
C423 C428 1.350 . S
C423 N431 1.427 . S
C424 H415 0.930 . S
C424 C422 1.378 . S
C424 C425 1.367 . S
C425 C424 1.367 . S
C425 C427 1.433 . S
C426 C422 1.350 . S
C426 C423 1.463 1_556 S
C426 N430 1.427 . S
C427 H417 0.929 . S
C427 C425 1.433 . S
C427 N430 1.384 . S
C428 H419 0.929 . S
C428 C420 1.378 . S
C428 C423 1.350 . S
C429 H416 0.929 . S
C429 C421 1.433 . S
C429 N431 1.384 . S
N430 C426 1.427 . S
N430 C427 1.384 . S
N431 C423 1.427 . S
N431 C429 1.384 . S
H432 C438 0.930 . S
H433 C442 0.930 . S
H434 C447 0.929 . S
H435 C445 0.929 . S
H436 C440 0.929 . S
H437 C446 0.929 . S
C438 H432 0.930 . S
C438 C439 1.367 . S
C438 C446 1.378 . S
C439 C438 1.367 . S
C439 C447 1.433 . S
C440 H436 0.929 . S
C440 C442 1.378 . S
C440 C444 1.350 . S
C441 C444 1.463 1_445 S
C441 C446 1.350 . S
C441 N449 1.427 . S
C442 H433 0.930 . S
C442 C440 1.378 . S
C442 C443 1.367 . S
C443 C442 1.367 . S
C443 C445 1.433 . S
C444 C440 1.350 . S
C444 C441 1.463 1_665 S
C444 N448 1.427 . S
C445 H435 0.929 . S
C445 C443 1.433 . S
C445 N448 1.384 . S
C446 H437 0.929 . S
C446 C438 1.378 . S
C446 C441 1.350 . S
C447 H434 0.929 . S
C447 C439 1.433 . S
C447 N449 1.384 . S
N448 C444 1.427 . S
N448 C445 1.384 . S
N449 C441 1.427 . S
N449 C447 1.384 . S
H450 C456 0.930 . S
H451 C460 0.930 . S
H452 C465 0.929 . S
H453 C463 0.929 . S
H454 C458 0.929 . S
H455 C464 0.929 . S
C456 H450 0.930 . S
C456 C457 1.367 . S
C456 C464 1.378 . S
C457 C456 1.367 . S
C457 C465 1.433 . S
C458 H454 0.929 . S
C458 C460 1.378 . S
C458 C462 1.350 . S
C459 C462 1.463 1_455 S
C459 C464 1.350 . S
C459 N467 1.427 . S
C460 H451 0.930 . S
C460 C458 1.378 . S
C460 C461 1.367 . S
C461 C460 1.367 . S
C461 C463 1.433 . S
C462 C458 1.350 . S
C462 C459 1.463 1_655 S
C462 N466 1.427 . S
C463 H453 0.929 . S
C463 C461 1.433 . S
C463 N466 1.384 . S
C464 H455 0.929 . S
C464 C456 1.378 . S
C464 C459 1.350 . S
C465 H452 0.929 . S
C465 C457 1.433 . S
C465 N467 1.384 . S
N466 C462 1.427 . S
N466 C463 1.384 . S
N467 C459 1.427 . S
N467 C465 1.384 . S
H468 C474 0.930 . S
H469 C478 0.930 . S
H470 C483 0.929 . S
H471 C481 0.929 . S
H472 C476 0.929 . S
H473 C482 0.929 . S
C474 H468 0.930 . S
C474 C475 1.367 . S
C474 C482 1.378 . S
C475 C474 1.367 . S
C475 C483 1.433 . S
C476 H472 0.929 . S
C476 C478 1.378 . S
C476 C480 1.350 . S
C477 C480 1.463 . S
C477 C482 1.350 . S
C477 N485 1.427 . S
C478 H469 0.930 . S
C478 C476 1.378 . S
C478 C479 1.367 . S
C479 C478 1.367 . S
C479 C481 1.433 . S
C480 C476 1.350 . S
C480 C477 1.463 . S
C480 N484 1.427 . S
C481 H471 0.929 . S
C481 C479 1.433 . S
C481 N484 1.384 . S
C482 H473 0.929 . S
C482 C474 1.378 . S
C482 C477 1.350 . S
C483 H470 0.929 . S
C483 C475 1.433 . S
C483 N485 1.384 . S
N484 C480 1.427 . S
N484 C481 1.384 . S
N485 C477 1.427 . S
N485 C483 1.384 . S
H486 C492 0.930 . S
H487 C496 0.930 . S
H488 C501 0.929 . S
H489 C499 0.929 . S
H490 C494 0.929 . S
H491 C500 0.929 . S
C492 H486 0.930 . S
C492 C493 1.367 . S
C492 C500 1.378 1_565 S
C493 C492 1.367 . S
C493 C501 1.433 . S
C494 H490 0.929 . S
C494 C496 1.378 1_565 S
C494 C498 1.350 1_565 S
C495 C498 1.463 1_565 S
C495 C500 1.350 1_565 S
C495 N503 1.427 . S
C496 H487 0.930 . S
C496 C494 1.378 1_545 S
C496 C497 1.367 . S
C497 C496 1.367 . S
C497 C499 1.433 . S
C498 C494 1.350 1_545 S
C498 C495 1.463 1_545 S
C498 N502 1.427 . S
C499 H489 0.929 . S
C499 C497 1.433 . S
C499 N502 1.384 . S
C500 H491 0.929 . S
C500 C492 1.378 1_545 S
C500 C495 1.350 1_545 S
C501 H488 0.929 . S
C501 C493 1.433 . S
C501 N503 1.384 . S
N502 C498 1.427 . S
N502 C499 1.384 . S
N503 C495 1.427 . S
N503 C501 1.384 . S
H504 C510 0.930 . S
H505 C514 0.930 . S
H506 C519 0.929 . S
H507 C517 0.929 . S
H508 C512 0.929 1_655 S
H509 C518 0.929 1_455 S
C510 H504 0.930 . S
C510 C511 1.367 . S
C510 C518 1.378 . S
C511 C510 1.367 . S
C511 C519 1.433 . S
C512 H508 0.929 1_455 S
C512 C514 1.378 . S
C512 C516 1.350 . S
C513 C516 1.463 1_655 S
C513 C518 1.350 . S
C513 N521 1.427 . S
C514 H505 0.930 . S
C514 C512 1.378 . S
C514 C515 1.367 . S
C515 C514 1.367 . S
C515 C517 1.433 . S
C516 C512 1.350 . S
C516 C513 1.463 1_455 S
C516 N520 1.427 . S
C517 H507 0.929 . S
C517 C515 1.433 . S
C517 N520 1.384 . S
C518 H509 0.929 1_655 S
C518 C510 1.378 . S
C518 C513 1.350 . S
C519 H506 0.929 . S
C519 C511 1.433 . S
C519 N521 1.384 . S
N520 C516 1.427 . S
N520 C517 1.384 . S
N521 C513 1.427 . S
N521 C519 1.384 . S
H522 C528 0.930 . S
H523 C532 0.930 . S
H524 C537 0.929 . S
H525 C535 0.929 . S
H526 C530 0.929 . S
H527 C536 0.929 . S
C528 H522 0.930 . S
C528 C529 1.367 . S
C528 C536 1.378 . S
C529 C528 1.367 . S
C529 C537 1.433 . S
C530 H526 0.929 . S
C530 C532 1.378 . S
C530 C534 1.350 . S
C531 C534 1.463 . S
C531 C536 1.350 . S
C531 N539 1.427 . S
C532 H523 0.930 . S
C532 C530 1.378 . S
C532 C533 1.367 . S
C533 C532 1.367 . S
C533 C535 1.433 . S
C534 C530 1.350 . S
C534 C531 1.463 . S
C534 N538 1.427 . S
C535 H525 0.929 . S
C535 C533 1.433 . S
C535 N538 1.384 . S
C536 H527 0.929 . S
C536 C528 1.378 . S
C536 C531 1.350 . S
C537 H524 0.929 . S
C537 C529 1.433 . S
C537 N539 1.384 . S
N538 C534 1.427 . S
N538 C535 1.384 . S
N539 C531 1.427 . S
N539 C537 1.384 . S
H540 C546 0.930 . S
H541 C550 0.930 . S
H542 C555 0.929 . S
H543 C553 0.929 . S
H544 C548 0.929 . S
H545 C554 0.929 . S
C546 H540 0.930 . S
C546 C547 1.367 . S
C546 C554 1.378 . S
C547 C546 1.367 . S
C547 C555 1.433 . S
C548 H544 0.929 . S
C548 C550 1.378 . S
C548 C552 1.350 . S
C549 C552 1.463 1_545 S
C549 C554 1.350 . S
C549 N557 1.427 . S
C550 H541 0.930 . S
C550 C548 1.378 . S
C550 C551 1.367 . S
C551 C550 1.367 . S
C551 C553 1.433 . S
C552 C548 1.350 . S
C552 C549 1.463 1_565 S
C552 N556 1.427 . S
C553 H543 0.929 . S
C553 C551 1.433 . S
C553 N556 1.384 . S
C554 H545 0.929 . S
C554 C546 1.378 . S
C554 C549 1.350 . S
C555 H542 0.929 . S
C555 C547 1.433 . S
C555 N557 1.384 . S
N556 C552 1.427 . S
N556 C553 1.384 . S
N557 C549 1.427 . S
N557 C555 1.384 . S
H558 C564 0.930 . S
H559 C568 0.930 . S
H560 C573 0.929 . S
H561 C571 0.929 . S
H562 C566 0.929 1_565 S
H563 C572 0.929 1_545 S
C564 H558 0.930 . S
C564 C565 1.367 . S
C564 C572 1.378 . S
C565 C564 1.367 . S
C565 C573 1.433 . S
C566 H562 0.929 1_545 S
C566 C568 1.378 . S
C566 C570 1.350 . S
C567 C570 1.463 1_665 S
C567 C572 1.350 . S
C567 N575 1.427 . S
C568 H559 0.930 . S
C568 C566 1.378 . S
C568 C569 1.367 . S
C569 C568 1.367 . S
C569 C571 1.433 . S
C570 C566 1.350 . S
C570 C567 1.463 1_445 S
C570 N574 1.427 . S
C571 H561 0.929 . S
C571 C569 1.433 . S
C571 N574 1.384 . S
C572 H563 0.929 1_565 S
C572 C564 1.378 . S
C572 C567 1.350 . S
C573 H560 0.929 . S
C573 C565 1.433 . S
C573 N575 1.384 . S
N574 C570 1.427 . S
N574 C571 1.384 . S
N575 C567 1.427 . S
N575 C573 1.384 . S
C295 C14 1.148 . S
C299 C182 1.145 . S
C313 C50 1.108 . S
C317 C230 1.111 . S
C331 C74 1.146 . S
C335 C266 1.148 . S
C349 C110 1.178 . S
C353 C146 1.179 . S
C367 C254 1.178 . S
C371 C2 1.180 . S
C385 C158 1.161 . S
C389 C38 1.133 . S
C403 C86 1.096 . S
C407 C194 1.111 . S
C421 C218 1.142 . S
C425 C122 1.151 . S
C439 C4 1.573 . S
C443 C219 1.568 . S
C457 C255 1.566 . S
C461 C40 1.574 . S
C475 C75 1.568 . S
C479 C148 1.573 . S
C493 C111 1.565 . S
C497 C184 1.575 . S
C511 C220 1.575 . S
C515 C3 1.566 . S
C529 C256 1.574 . S
C533 C39 1.567 . S
C547 C76 1.575 . S
C551 C147 1.568 . S
C565 C112 1.574 . S
C569 C183 1.565 . S
