# Generated by pormake.
# Topology tsi, (8)-cn, num edge types: 1
# Building blocks:
#     Node 0, Type 0, BuildingBlock: AJUNOK_clean_sbu_0, # of connection points: 8
#     Node 1, Type 0, BuildingBlock: AJUNOK_clean_sbu_0, # of connection points: 8
#     Node 2, Type 0, BuildingBlock: AJUNOK_clean_sbu_0, # of connection points: 8
#     Node 3, Type 0, BuildingBlock: AJUNOK_clean_sbu_0, # of connection points: 8
#     Edge 4, Type (0, 0), BuildingBlock: CIFDUS_clean_linker_0, # of connection points: 2
#     Edge 5, Type (0, 0), BuildingBlock: CIFDUS_clean_linker_0, # of connection points: 2
#     Edge 6, Type (0, 0), BuildingBlock: CIFDUS_clean_linker_0, # of connection points: 2
#     Edge 7, Type (0, 0), BuildingBlock: CIFDUS_clean_linker_0, # of connection points: 2
#     Edge 8, Type (0, 0), BuildingBlock: CIFDUS_clean_linker_0, # of connection points: 2
#     Edge 9, Type (0, 0), BuildingBlock: CIFDUS_clean_linker_0, # of connection points: 2
#     Edge 10, Type (0, 0), BuildingBlock: CIFDUS_clean_linker_0, # of connection points: 2
#     Edge 11, Type (0, 0), BuildingBlock: CIFDUS_clean_linker_0, # of connection points: 2
#     Edge 12, Type (0, 0), BuildingBlock: CIFDUS_clean_linker_0, # of connection points: 2
#     Edge 13, Type (0, 0), BuildingBlock: CIFDUS_clean_linker_0, # of connection points: 2
#     Edge 14, Type (0, 0), BuildingBlock: CIFDUS_clean_linker_0, # of connection points: 2
#     Edge 15, Type (0, 0), BuildingBlock: CIFDUS_clean_linker_0, # of connection points: 2
#     Edge 16, Type (0, 0), BuildingBlock: CIFDUS_clean_linker_0, # of connection points: 2
#     Edge 17, Type (0, 0), BuildingBlock: CIFDUS_clean_linker_0, # of connection points: 2
#     Edge 18, Type (0, 0), BuildingBlock: CIFDUS_clean_linker_0, # of connection points: 2
#     Edge 19, Type (0, 0), BuildingBlock: CIFDUS_clean_linker_0, # of connection points: 2
# Relax obj value: 0.181
# Max RMSD: 0.221
# Mean RMSD: 0.221
data_MOF--net-tsi--node1-AJUNOK_clean_sbu_0--edge1-CIFDUS_clean_linker_0
_symmetry_space_group_name_H-M    P1
_symmetry_Int_Tables_number       1
_symmetry_cell_setting            triclinic
loop_
_symmetry_equiv_pos_as_xyz
'x, y, z'
_cell_length_a     14.030106
_cell_length_b     13.996429
_cell_length_c     67.897336
_cell_angle_alpha  89.986971
_cell_angle_beta   90.048898
_cell_angle_gamma 89.605118
loop_
_atom_site_label
_atom_site_type_symbol
_atom_site_fract_x
_atom_site_fract_y
_atom_site_fract_z
_atom_type_partial_charge
Cd0 Cd 0.06096 0.21624 0.4233 0.0
Cd1 Cd 0.0777 0.38958 0.38102 0.0
C2 C 0.18628 0.11557 0.38846 0.0
N3 N 0.09781 0.15331 0.39156 0.0
C4 C 0.05421 0.11651 0.3583 0.0
C5 C 0.14934 0.09246 0.3539 0.0
C6 C 0.21447 0.08708 0.3696 0.0
C7 C 0.03011 0.14759 0.37727 0.0
H8 H 0.23659 0.11085 0.40049 0.0
H9 H 0.95764 0.16847 0.38041 0.0
C10 C 0.85665 0.30802 0.40118 0.0
C11 C 0.97154 0.48381 0.42019 0.0
C12 C 0.95799 0.51632 0.43948 0.0
C13 C 0.03653 0.52671 0.45206 0.0
C14 C 0.12773 0.5078 0.44452 0.0
C15 C 0.13764 0.4732 0.42521 0.0
N16 N 0.05955 0.45615 0.41377 0.0
H17 H 0.91119 0.48153 0.41038 0.0
H18 H 0.20809 0.46103 0.41938 0.0
C19 C 0.96401 0.31726 0.34184 0.0
N20 N 0.05458 0.33049 0.34847 0.0
C21 C 0.11525 0.30376 0.31583 0.0
C22 C 0.02244 0.28782 0.3087 0.0
C23 C 0.94653 0.2946 0.32213 0.0
C24 C 0.12979 0.32472 0.33584 0.0
H25 H 0.90441 0.32626 0.35165 0.0
H26 H 0.20098 0.33861 0.34121 0.0
C27 C 0.27965 0.30077 0.40421 0.0
C28 C 0.04519 0.02283 0.43114 0.0
N29 N 0.07614 0.24632 0.45722 0.0
C30 C 0.16582 0.25064 0.4648 0.0
C31 C 0.18279 0.22588 0.48443 0.0
C32 C 0.10679 0.19685 0.49639 0.0
C33 C 0.0138 0.2022 0.48875 0.0
C34 C 1.00007 0.22629 0.4689 0.0
C35 C 0.10491 0.57504 0.3674 0.0
O36 O 0.89475 0.27623 0.41695 0.0
O37 O 0.90905 0.34003 0.38737 0.0
O38 O 0.24175 0.32443 0.38782 0.0
O39 O 0.22714 0.27683 0.41871 0.0
O40 O 0.97298 0.07213 0.42617 0.0
O41 O 0.12042 0.06755 0.43548 0.0
O42 O 0.17513 0.52128 0.37145 0.0
O43 O 0.02309 0.5375 0.36755 0.0
H44 H 0.22569 0.26382 0.45525 0.0
H45 H 0.93003 0.21974 0.46239 0.0
H46 H 1.0 0.11794 0.34697 0.0
H47 H 0.28722 0.06342 0.36727 0.0
H48 H 0.88672 0.53385 0.4445 0.0
H49 H 0.19046 0.5176 0.45358 0.0
H50 H 0.17605 0.30036 0.30605 0.0
H51 H 0.87342 0.28629 0.31734 0.0
H52 H 0.25544 0.2232 0.48983 0.0
H53 H 0.95342 0.17964 0.49749 0.0
Cd54 Cd 0.06411 0.81692 0.67153 0.0
Cd55 Cd 0.85723 0.83218 0.63034 0.0
C56 C 0.13759 0.97721 0.6408 0.0
N57 N 0.10846 0.88458 0.64091 0.0
C58 C 0.12908 0.87624 0.60596 0.0
C59 C 0.13934 0.97595 0.60522 0.0
C60 C 0.14936 0.02564 0.62302 0.0
C61 C 0.11103 0.83189 0.62411 0.0
H62 H 0.1452 0.01563 0.65452 0.0
H63 H 0.09607 0.75628 0.62474 0.0
C64 C 0.94154 0.61283 0.65239 0.0
C65 C 0.68544 0.77786 0.66329 0.0
C66 C 0.64657 0.75812 0.68202 0.0
C67 C 0.70528 0.76188 0.69883 0.0
C68 C 0.80038 0.78935 0.6963 0.0
C69 C 0.83551 0.80824 0.67753 0.0
N70 N 0.77932 0.80139 0.66136 0.0
H71 H 0.64083 0.7729 0.65035 0.0
H72 H 0.90837 0.82686 0.67582 0.0
C73 C 0.95826 0.70155 0.59537 0.0
N74 N 0.9303 0.79276 0.59957 0.0
C75 C 0.95626 0.83831 0.56586 0.0
C76 C 0.98375 0.74428 0.56109 0.0
C77 C 0.98562 0.67596 0.57625 0.0
C78 C 0.92834 0.86067 0.58518 0.0
H79 H 0.95742 0.64737 0.60664 0.0
H80 H 0.90343 0.93203 0.58862 0.0
C81 C 0.94597 0.03245 0.65732 0.0
C82 C 0.2599 0.80417 0.67304 0.0
N83 N 0.04873 0.82342 0.70585 0.0
C84 C 0.05829 0.91008 0.71466 0.0
C85 C 0.07231 0.9164 0.73497 0.0
C86 C 0.07705 0.83272 0.74636 0.0
C87 C 0.0618 0.74444 0.737 0.0
C88 C 0.04844 0.74135 0.71657 0.0
C89 C 0.68716 0.88185 0.61099 0.0
O90 O 0.99681 0.65144 0.66501 0.0
O91 O 0.89573 0.66478 0.64016 0.0
O92 O 0.91496 0.99492 0.6414 0.0
O93 O 0.98376 0.98013 0.67067 0.0
O94 O 0.21088 0.73553 0.66637 0.0
O95 O 0.21611 0.86869 0.68255 0.0
O96 O 0.7444 0.94499 0.61698 0.0
O97 O 0.71345 0.79554 0.61295 0.0
H98 H 0.06088 0.97406 0.70578 0.0
H99 H 0.04301 0.67325 0.70914 0.0
H100 H 0.12704 0.83432 0.59259 0.0
H101 H 0.16251 0.10181 0.62317 0.0
H102 H 0.57256 0.73746 0.68324 0.0
H103 H 0.84785 0.7955 0.70881 0.0
H104 H 0.95288 0.89324 0.55464 0.0
H105 H 0.00686 0.60281 0.57331 0.0
H106 H 0.08272 0.98594 0.7416 0.0
H107 H 0.06579 0.67809 0.74518 0.0
Cd108 Cd 0.47399 0.6045 0.88207 0.0
Cd109 Cd 0.44784 0.78922 0.92095 0.0
C110 C 0.56687 0.68564 0.84226 0.0
N111 N 0.47884 0.66276 0.84912 0.0
C112 C 0.41372 0.67931 0.81651 0.0
C113 C 0.50458 0.7011 0.80899 0.0
C114 C 0.58112 0.70587 0.82233 0.0
C115 C 0.40263 0.65897 0.83667 0.0
H116 H 0.62706 0.68557 0.85219 0.0
H117 H 0.33372 0.63803 0.84229 0.0
C118 C 0.24624 0.67009 0.90251 0.0
C119 C 0.38433 0.91301 0.95959 0.0
C120 C 0.37282 0.93721 0.97941 0.0
C121 C 0.38592 0.86759 0.99412 0.0
C122 C 0.40843 0.77364 0.98809 0.0
C123 C 0.42106 0.75295 0.96805 0.0
N124 N 0.41021 0.82271 0.95427 0.0
H125 H 0.37471 0.96773 0.94858 0.0
H126 H 0.44131 0.68152 0.96351 0.0
C127 C 0.29424 0.86501 0.88779 0.0
N128 N 0.38608 0.83366 0.88964 0.0
C129 C 0.41368 0.86569 0.8555 0.0
C130 C 0.31623 0.88406 0.8527 0.0
C131 C 0.25654 0.88643 0.86924 0.0
C132 C 0.44678 0.83776 0.87408 0.0
H133 H 0.24896 0.86976 0.90064 0.0
H134 H 0.52116 0.8201 0.87611 0.0
C135 C 0.66502 0.69413 0.90742 0.0
C136 C 0.52661 0.43198 0.8642 0.0
N137 N 0.46732 0.52262 0.91336 0.0
C138 C 0.55085 0.5002 0.92258 0.0
C139 C 0.55118 0.45785 0.94127 0.0
C140 C 0.46474 0.43351 0.95032 0.0
C141 C 0.37991 0.44966 0.93981 0.0
C142 C 0.38293 0.49369 0.92125 0.0
C143 C 0.53565 0.96147 0.91194 0.0
O144 O 0.29759 0.64336 0.88785 0.0
O145 O 0.28627 0.70584 0.91777 0.0
O146 O 0.60916 0.70303 0.92223 0.0
O147 O 0.62889 0.68496 0.89034 0.0
O148 O 0.44019 0.45959 0.86443 0.0
O149 O 0.58707 0.4855 0.87242 0.0
O150 O 0.58561 0.88638 0.91381 0.0
O151 O 0.44778 0.95722 0.91631 0.0
H152 H 0.61784 0.51495 0.91544 0.0
H153 H 0.31755 0.50342 0.91315 0.0
H154 H 0.35264 0.6742 0.80681 0.0
H155 H 0.65217 0.72363 0.81737 0.0
H156 H 0.35698 0.01086 0.98309 0.0
H157 H 0.41733 0.71659 0.99871 0.0
H158 H 0.46278 0.86701 0.84321 0.0
H159 H 0.18159 0.90419 0.86782 0.0
H160 H 0.6186 0.44336 0.9485 0.0
H161 H 0.31169 0.43 0.946 0.0
Cd162 Cd 0.63091 0.19272 0.13324 0.0
Cd163 Cd 0.42137 0.20938 0.17202 0.0
C164 C 0.52871 0.32187 0.09948 0.0
N165 N 0.551 0.22872 0.10318 0.0
C166 C 0.53294 0.19136 0.0688 0.0
C167 C 0.51468 0.28813 0.06454 0.0
C168 C 0.50916 0.35272 0.08033 0.0
C169 C 0.5523 0.1633 0.0883 0.0
H170 H 0.53057 0.37392 0.11115 0.0
H171 H 0.57394 0.09047 0.09136 0.0
C172 C 0.54333 0.9916 0.1591 0.0
C173 C 0.37211 0.0989 0.21222 0.0
C174 C 0.35201 0.08399 0.23215 0.0
C175 C 0.37078 0.15642 0.24593 0.0
C176 C 0.41187 0.24184 0.23914 0.0
C177 C 0.43049 0.25384 0.21903 0.0
N178 N 0.40975 0.18305 0.20605 0.0
H179 H 0.3551 0.04426 0.20154 0.0
H180 H 0.45895 0.32065 0.21369 0.0
C181 C 0.35988 0.05886 0.13703 0.0
N182 N 0.3817 0.15241 0.14008 0.0
C183 C 0.33964 0.18873 0.10666 0.0
C184 C 0.33125 0.09086 0.10248 0.0
C185 C 0.33798 0.02588 0.11816 0.0
C186 C 0.36665 0.21793 0.12559 0.0
H187 H 0.35953 0.00923 0.1492 0.0
H188 H 0.37694 0.29296 0.12866 0.0
C189 C 0.5534 0.41086 0.15693 0.0
C190 C 0.79975 0.18302 0.11087 0.0
N191 N 0.70844 0.20146 0.16467 0.0
C192 C 0.65314 0.2064 0.18104 0.0
C193 C 0.69359 0.20659 0.19982 0.0
C194 C 0.79302 0.20162 0.20207 0.0
C195 C 0.84937 0.19914 0.18493 0.0
C196 C 0.80536 0.19865 0.16629 0.0
C197 C 0.23322 0.25988 0.16701 0.0
O198 O 0.57903 0.02716 0.14341 0.0
O199 O 0.50006 0.04536 0.1715 0.0
O200 O 0.49827 0.3728 0.16957 0.0
O201 O 0.5957 0.35847 0.14431 0.0
O202 O 0.75853 0.10696 0.11621 0.0
O203 O 0.76043 0.26076 0.11594 0.0
O204 O 0.29747 0.32272 0.16564 0.0
O205 O 0.25607 0.18011 0.17466 0.0
H206 H 0.5773 0.2094 0.17959 0.0
H207 H 0.84878 0.1947 0.15316 0.0
H208 H 0.53874 0.13922 0.05707 0.0
H209 H 0.49449 0.42781 0.07779 0.0
H210 H 0.32151 0.01665 0.2367 0.0
H211 H 0.42654 0.30012 0.24915 0.0
H212 H 0.33211 0.24174 0.09514 0.0
H213 H 0.32662 0.95024 0.11585 0.0
H214 H 0.64699 0.21067 0.21251 0.0
H215 H 0.92635 0.19513 0.1859 0.0
H216 H 0.10785 0.68144 0.47178 0.0
H217 H 0.93168 0.43303 0.47922 0.0
H218 H 0.90259 0.47616 0.5136 0.0
H219 H 0.9232 0.58654 0.54135 0.0
H220 H 0.09302 0.83955 0.534 0.0
H221 H 0.12759 0.79383 0.49988 0.0
C222 C 0.06357 0.63681 0.48103 0.0
C223 C 0.02203 0.55403 0.47303 0.0
C224 C 0.04539 0.66337 0.50077 0.0
C225 C 0.96401 0.49717 0.48505 0.0
C226 C 0.94743 0.52182 0.50471 0.0
C227 C 0.96863 0.63125 0.53236 0.0
C228 C 0.00593 0.71616 0.54032 0.0
C229 C 0.9872 0.605 0.5127 0.0
C230 C 0.06299 0.77414 0.52826 0.0
C231 C 0.08307 0.74776 0.50875 0.0
H232 H 0.65335 0.63349 0.78732 0.0
H233 H 0.39335 0.79693 0.78175 0.0
H234 H 0.42779 0.82571 0.74685 0.0
H235 H 0.53855 0.81197 0.71814 0.0
H236 H 0.7977 0.64703 0.72484 0.0
H237 H 0.75729 0.61228 0.75889 0.0
C238 C 0.60434 0.67613 0.77857 0.0
C239 C 0.52171 0.71461 0.78737 0.0
C240 C 0.62481 0.69244 0.75858 0.0
C241 C 0.45774 0.76691 0.77548 0.0
C242 C 0.47764 0.78357 0.75549 0.0
C243 C 0.58535 0.76743 0.72701 0.0
C244 C 0.67191 0.73346 0.71892 0.0
C245 C 0.56177 0.74768 0.74688 0.0
C246 C 0.73165 0.67576 0.73069 0.0
C247 C 0.70851 0.65553 0.75022 0.0
H248 H 0.55832 0.49876 0.98252 0.0
H249 H 0.36732 0.27679 0.96377 0.0
H250 H 0.3663 0.21023 0.99721 0.0
H251 H 0.42006 0.21604 0.03216 0.0
H252 H 0.6084 0.44221 0.05029 0.0
H253 H 0.60986 0.50578 1.01694 0.0
C254 C 0.51695 0.43542 0.98572 0.0
C255 C 0.46349 0.39256 0.97063 0.0
C256 C 0.51579 0.39843 1.005 0.0
C257 C 0.40883 0.31148 0.97513 0.0
C258 C 0.40845 0.27323 0.99425 0.0
C259 C 0.46144 0.27907 0.02876 0.0
C260 C 0.51326 0.32468 0.04385 0.0
C261 C 0.46165 0.31617 1.00937 0.0
C262 C 0.56638 0.40654 0.03914 0.0
C263 C 0.56784 0.44279 1.01999 0.0
H264 H 0.89179 0.16673 0.29268 0.0
H265 H 0.10932 0.36818 0.27639 0.0
H266 H 0.0638 0.35319 0.24178 0.0
H267 H 0.95078 0.29513 0.21638 0.0
H268 H 0.73103 0.09726 0.23337 0.0
H269 H 0.7874 0.10046 0.2673 0.0
C270 C 0.92926 0.2077 0.28159 0.0
C271 C 1.00293 0.26978 0.28733 0.0
C272 C 0.90125 0.2005 0.26174 0.0
C273 C 0.05246 0.31968 0.27256 0.0
C274 C 0.02586 0.31179 0.2527 0.0
C275 C 0.91615 0.25168 0.22745 0.0
C276 C 0.83555 0.19731 0.22228 0.0
C277 C 0.94874 0.25418 0.24715 0.0
C278 C 0.79171 0.14153 0.23692 0.0
C279 C 0.82421 0.14287 0.25636 0.0
H280 H 0.21043 0.07579 0.26153 0.0
H281 H 0.47482 0.20973 0.27814 0.0
H282 H 0.43228 0.1955 0.31285 0.0
H283 H 0.31747 0.15246 0.33834 0.0
H284 H 0.05371 0.01603 0.32208 0.0
H285 H 0.09906 0.02359 0.28741 0.0
C286 C 0.25954 0.10047 0.27274 0.0
C287 C 0.34583 0.14394 0.26714 0.0
C288 C 0.23481 0.09168 0.29276 0.0
C289 C 0.40749 0.17716 0.28193 0.0
C290 C 0.38351 0.16843 0.30183 0.0
C291 C 0.27084 0.12153 0.32735 0.0
C292 C 0.18214 0.08346 0.33301 0.0
C293 C 0.29717 0.12636 0.3074 0.0
C294 C 0.1219 0.0467 0.31829 0.0
C295 C 0.14791 0.05077 0.2984 0.0
H296 H 0.21752 0.93969 0.7627 0.0
H297 H 1.00148 0.73379 0.77742 0.0
H298 H 0.05348 0.73556 0.81184 0.0
H299 H 0.16401 0.79161 0.8375 0.0
H300 H 0.3821 0.9946 0.82252 0.0
H301 H 0.32459 0.99931 0.78848 0.0
C302 C 0.18062 0.89644 0.7735 0.0
C303 C 0.10523 0.83711 0.76749 0.0
C304 C 0.2112 0.8975 0.79321 0.0
C305 C 0.05996 0.77967 0.78161 0.0
C306 C 0.08945 0.78092 0.8013 0.0
C307 C 0.19775 0.83814 0.82683 0.0
C308 C 0.27658 0.89342 0.83252 0.0
C309 C 0.16538 0.83907 0.80723 0.0
C310 C 0.32126 0.95156 0.81847 0.0
C311 C 0.28835 0.95429 0.79904 0.0
H312 H 0.27182 1.00364 1.01184 0.0
H313 H 0.48982 0.79306 1.02488 0.0
H314 H 0.48665 0.83935 0.05937 0.0
H315 H 0.42872 0.94435 0.08569 0.0
H316 H 0.21892 0.16196 0.07264 0.0
H317 H 0.21489 0.11022 0.03819 0.0
C318 C 0.31947 0.96814 1.0221 0.0
C319 C 0.38064 0.89417 1.01549 0.0
C320 C 0.3195 0.99702 0.04197 0.0
C321 C 0.44025 0.84852 0.02935 0.0
C322 C 0.43935 0.87568 0.04915 0.0
C323 C 0.38076 0.9794 0.07539 0.0
C324 C 0.3234 0.05627 0.0818 0.0
C325 C 0.37974 0.95009 0.0556 0.0
C326 C 0.26382 0.10268 0.06811 0.0
C327 C 0.26138 0.07295 0.04842 0.0
H328 H 0.02608 0.23461 0.53219 0.0
H329 H 0.22932 0.04971 0.50335 0.0
H330 H 0.25788 0.96417 0.5342 0.0
H331 H 0.22384 0.94041 0.56954 0.0
H332 H 0.02505 0.12958 0.59862 0.0
H333 H 0.9964 0.21459 0.56777 0.0
C334 C 0.07683 0.17585 0.53275 0.0
C335 C 0.12596 0.14901 0.51557 0.0
C336 C 0.09394 0.12765 0.55064 0.0
C337 C 0.19166 0.0727 0.51646 0.0
C338 C 0.20771 0.0234 0.53408 0.0
C339 C 0.17473 1.00055 0.5691 0.0
C340 C 0.12758 0.02923 0.5864 0.0
C341 C 0.15922 0.05008 0.55129 0.0
C342 C 0.0638 0.10721 0.58559 0.0
C343 C 0.04676 0.15553 0.56792 0.0
H344 H 0.96175 0.95599 0.39888 0.0
H345 H 0.16008 0.88103 0.44513 0.0
H346 H 0.21662 0.74459 0.42569 0.0
H347 H 0.20956 0.6505 0.39573 0.0
H348 H 0.00507 0.72058 0.35038 0.0
H349 H 0.95814 0.86463 0.36851 0.0
C350 C 0.0154 0.90821 0.40499 0.0
C351 C 0.05562 0.92647 0.42353 0.0
C352 C 0.05085 0.8345 0.39336 0.0
C353 C 0.12694 0.86611 0.43105 0.0
C354 C 0.16078 0.79018 0.41976 0.0
C355 C 0.1573 0.69929 0.38943 0.0
C356 C 0.11063 0.67613 0.37181 0.0
C357 C 0.12459 0.77539 0.40076 0.0
C358 C 0.04235 0.73861 0.36385 0.0
C359 C 0.01371 0.81881 0.37447 0.0
H360 H 0.32021 0.73731 0.63819 0.0
H361 H 0.38956 0.93588 0.68469 0.0
H362 H 0.50844 0.01065 0.66353 0.0
H363 H 0.59838 0.01075 0.63317 0.0
H364 H 0.54779 0.79439 0.58936 0.0
H365 H 0.40413 0.7446 0.60683 0.0
C366 C 0.36272 0.79556 0.64391 0.0
C367 C 0.34803 0.82993 0.6631 0.0
C368 C 0.42855 0.83921 0.6316 0.0
C369 C 0.40171 0.90704 0.67009 0.0
C370 C 0.46757 0.95122 0.65787 0.0
C371 C 0.55371 0.95512 0.62702 0.0
C372 C 0.5854 0.90245 0.61071 0.0
C373 C 0.48124 0.91781 0.63862 0.0
C374 C 0.52529 0.83406 0.60226 0.0
C375 C 0.44563 0.80325 0.61264 0.0
H376 H 0.6846 0.33607 0.87563 0.0
H377 H 0.42191 0.30404 0.84325 0.0
H378 H 0.4114 0.13823 0.85386 0.0
H379 H 0.44555 0.03103 0.88103 0.0
H380 H 0.70221 0.06136 0.91527 0.0
H381 H 0.74424 0.20441 0.89614 0.0
C382 C 0.62734 0.29147 0.87019 0.0
C383 C 0.55058 0.33258 0.85984 0.0
C384 C 0.61771 0.19941 0.87774 0.0
C385 C 0.47952 0.27395 0.85195 0.0
C386 C 0.47259 0.17997 0.85831 0.0
C387 C 0.51213 0.06724 0.88391 0.0
C388 C 0.56925 0.03956 0.89983 0.0
C389 C 0.53583 0.14638 0.87274 0.0
C390 C 0.65618 0.08483 0.90338 0.0
C391 C 0.68038 0.16534 0.89235 0.0
H392 H 0.15881 0.11096 0.14813 0.0
H393 H 0.14094 0.41809 0.15314 0.0
H394 H 0.0249 0.42283 0.12613 0.0
H395 H 0.91289 0.3363 0.10543 0.0
H396 H 0.91853 0.02882 0.10435 0.0
H397 H 0.06702 0.02789 0.12305 0.0
C398 C 0.12865 0.17899 0.14353 0.0
C399 C 0.15397 0.26381 0.15317 0.0
C400 C 0.06499 0.1811 0.12787 0.0
C401 C 0.11852 0.35177 0.1464 0.0
C402 C 0.05437 0.35458 0.13073 0.0
C403 C 0.94865 0.26913 0.10873 0.0
C404 C 0.90097 0.18263 0.10557 0.0
C405 C 0.0253 0.2693 0.12178 0.0
C406 C 0.95143 0.09647 0.10792 0.0
C407 C 0.03442 0.09578 0.11918 0.0
H408 H 0.87298 0.17226 0.63261 0.0
H409 H 0.02789 0.1364 0.68707 0.0
H410 H 0.04044 0.3093 0.6905 0.0
H411 H 0.00992 0.47332 0.67793 0.0
H412 H 0.85168 0.50859 0.62385 0.0
H413 H 0.83844 0.33584 0.62057 0.0
C414 C 0.9091 0.202 0.6453 0.0
C415 C 0.94912 0.13973 0.65955 0.0
C416 C 0.91591 0.30273 0.64731 0.0
C417 C 0.99578 0.18114 0.67583 0.0
C418 C 1.00331 0.28074 0.67782 0.0
C419 C 0.97227 0.44344 0.66544 0.0
C420 C 0.93207 0.50556 0.65118 0.0
C421 C 0.96401 0.34263 0.66364 0.0
C422 C 0.8834 0.46401 0.63517 0.0
C423 C 0.87578 0.36449 0.63322 0.0
H424 H 0.80367 0.65282 0.87975 0.0
H425 H 0.77102 0.73063 0.94083 0.0
H426 H 0.94456 0.72957 0.94491 0.0
H427 H 0.10826 0.70809 0.93108 0.0
H428 H 0.13846 0.62727 0.87005 0.0
H429 H 0.96566 0.62801 0.86621 0.0
C430 C 0.83409 0.66959 0.89401 0.0
C431 C 0.77252 0.69208 0.90994 0.0
C432 C 0.9349 0.66817 0.89633 0.0
C433 C 0.8151 0.71299 0.92825 0.0
C434 C 0.91504 0.71245 0.9306 0.0
C435 C 0.07728 0.69008 0.91694 0.0
C436 C 0.13834 0.66707 0.90093 0.0
C437 C 0.97611 0.69027 0.91475 0.0
C438 C 0.09505 0.64446 0.88277 0.0
C439 C 0.99541 0.6452 0.8805 0.0
H440 H 0.47771 0.55241 0.18114 0.0
H441 H 0.65549 0.51286 0.12989 0.0
H442 H 0.66947 0.68526 0.12617 0.0
H443 H 0.6284 0.84969 0.13668 0.0
H444 H 0.45293 0.89033 0.1882 0.0
H445 H 0.44171 0.71765 0.19245 0.0
C446 C 0.52012 0.58126 0.16923 0.0
C447 C 0.56537 0.51796 0.15586 0.0
C448 C 0.52833 0.68198 0.1671 0.0
C449 C 0.61976 0.55829 0.14052 0.0
C450 C 0.62777 0.65764 0.13831 0.0
C451 C 0.58806 0.82108 0.14892 0.0
C452 C 0.54161 0.88461 0.16204 0.0
C453 C 0.58193 0.72053 0.1514 0.0
C454 C 0.48983 0.84461 0.17779 0.0
C455 C 0.4831 0.74514 0.18025 0.0
H456 H 0.71764 0.25653 0.42785 0.0
H457 H 0.75393 0.37013 0.36925 0.0
H458 H 0.58167 0.3773 0.36489 0.0
H459 H 0.41857 0.35184 0.37753 0.0
H460 H 0.38217 0.24002 0.43626 0.0
H461 H 0.55448 0.23214 0.44058 0.0
C462 C 0.68808 0.28292 0.41411 0.0
C463 C 0.75007 0.31248 0.39893 0.0
C464 C 0.58782 0.28744 0.41165 0.0
C465 C 0.7092 0.34656 0.38127 0.0
C466 C 0.61006 0.35082 0.37871 0.0
C467 C 0.44813 0.32575 0.39129 0.0
C468 C 0.38615 0.29678 0.40652 0.0
C469 C 0.54837 0.32149 0.39378 0.0
C470 C 0.42696 0.26323 0.42423 0.0
C471 C 0.52612 0.25851 0.42674 0.0
loop_
_geom_bond_atom_site_label_1
_geom_bond_atom_site_label_2
_geom_bond_distance
_geom_bond_site_symmetry_2
_ccdc_geom_bond_type
Cd0 N3 2.334 . S
Cd0 N29 2.304 . S
Cd0 O36 2.268 1_455 S
Cd0 O39 2.273 . S
Cd0 O40 2.417 1_445 S
Cd0 O41 2.330 1_545 S
Cd1 N16 2.304 . S
Cd1 N20 2.334 . S
Cd1 O37 2.273 . S
Cd1 O38 2.268 1_655 S
Cd1 O42 2.417 1_655 S
Cd1 O43 2.330 . S
C2 N3 1.332 . S
C2 C6 1.381 . S
C2 H8 0.931 . S
N3 Cd0 2.334 . S
N3 C2 1.332 . S
N3 C7 1.328 1_455 S
C4 C5 1.396 1_655 S
C4 C7 1.378 . S
C4 H46 0.931 . S
C5 C4 1.396 1_455 S
C5 C6 1.382 . S
C6 C2 1.381 . S
C6 C5 1.382 . S
C6 H47 0.930 . S
C7 N3 1.328 1_655 S
C7 C4 1.378 . S
C7 H9 0.930 . S
H8 C2 0.931 . S
H9 C7 0.930 . S
C10 O36 1.238 . S
C10 O37 1.253 . S
C11 C12 1.379 . S
C11 N16 1.337 . S
C11 H17 0.929 . S
C12 C11 1.379 . S
C12 C13 1.380 . S
C12 H48 0.929 . S
C13 C12 1.380 . S
C13 C14 1.399 1_655 S
C14 C13 1.399 1_455 S
C14 C15 1.376 . S
C14 H49 0.931 . S
C15 C14 1.376 . S
C15 N16 1.338 1_455 S
C15 H18 0.930 . S
N16 Cd1 2.304 . S
N16 C11 1.337 . S
N16 C15 1.338 1_655 S
H17 C11 0.929 . S
H18 C15 0.930 . S
C19 N20 1.332 . S
C19 C23 1.381 . S
C19 H25 0.931 . S
N20 Cd1 2.334 . S
N20 C19 1.332 . S
N20 C24 1.328 1_655 S
C21 C22 1.396 1_455 S
C21 C24 1.378 . S
C21 H50 0.931 . S
C22 C21 1.396 1_655 S
C22 C23 1.382 . S
C23 C19 1.381 . S
C23 C22 1.382 . S
C23 H51 0.930 . S
C24 N20 1.328 1_455 S
C24 C21 1.378 . S
C24 H26 0.930 . S
H25 C19 0.931 . S
H26 C24 0.930 . S
C27 O38 1.238 . S
C27 O39 1.253 . S
C28 O40 1.239 1_455 S
C28 O41 1.230 . S
N29 Cd0 2.304 . S
N29 C30 1.337 . S
N29 C34 1.338 1_455 S
C30 N29 1.337 . S
C30 C31 1.379 . S
C30 H44 0.929 . S
C31 C30 1.379 . S
C31 C32 1.380 . S
C31 H52 0.929 . S
C32 C31 1.380 . S
C32 C33 1.399 1_455 S
C33 C32 1.399 1_655 S
C33 C34 1.376 . S
C33 H53 0.931 . S
C34 N29 1.338 1_655 S
C34 C33 1.376 . S
C34 H45 0.930 . S
C35 O42 1.239 1_655 S
C35 O43 1.230 . S
O36 Cd0 2.268 1_655 S
O36 C10 1.238 . S
O37 Cd1 2.273 . S
O37 C10 1.253 . S
O38 Cd1 2.268 1_455 S
O38 C27 1.238 . S
O39 Cd0 2.273 . S
O39 C27 1.253 . S
O40 Cd0 2.417 1_665 S
O40 C28 1.239 1_655 S
O41 Cd0 2.330 1_565 S
O41 C28 1.230 . S
O42 Cd1 2.417 1_455 S
O42 C35 1.239 1_455 S
O43 Cd1 2.330 . S
O43 C35 1.230 . S
H44 C30 0.929 . S
H45 C34 0.930 . S
H46 C4 0.931 . S
H47 C6 0.930 . S
H48 C12 0.929 . S
H49 C14 0.931 . S
H50 C21 0.931 . S
H51 C23 0.930 . S
H52 C31 0.929 . S
H53 C33 0.931 . S
Cd54 N57 2.334 . S
Cd54 N83 2.304 . S
Cd54 O90 2.268 . S
Cd54 O93 2.273 . S
Cd54 O94 2.417 . S
Cd54 O95 2.330 . S
Cd55 N70 2.304 . S
Cd55 N74 2.334 . S
Cd55 O91 2.273 . S
Cd55 O92 2.268 . S
Cd55 O96 2.417 . S
Cd55 O97 2.330 . S
C56 N57 1.332 . S
C56 C60 1.381 . S
C56 H62 0.931 . S
N57 Cd54 2.334 . S
N57 C56 1.332 . S
N57 C61 1.328 . S
C58 C59 1.396 . S
C58 C61 1.378 . S
C58 H100 0.931 . S
C59 C58 1.396 . S
C59 C60 1.382 . S
C60 C56 1.381 . S
C60 C59 1.382 . S
C60 H101 0.930 . S
C61 N57 1.328 . S
C61 C58 1.378 . S
C61 H63 0.930 . S
H62 C56 0.931 . S
H63 C61 0.930 . S
C64 O90 1.238 1_655 S
C64 O91 1.253 . S
C65 C66 1.379 . S
C65 N70 1.337 . S
C65 H71 0.929 . S
C66 C65 1.379 . S
C66 C67 1.380 . S
C66 H102 0.929 . S
C67 C66 1.380 . S
C67 C68 1.399 . S
C68 C67 1.399 . S
C68 C69 1.376 . S
C68 H103 0.931 . S
C69 C68 1.376 . S
C69 N70 1.338 . S
C69 H72 0.930 . S
N70 Cd55 2.304 . S
N70 C65 1.337 . S
N70 C69 1.338 . S
H71 C65 0.929 . S
H72 C69 0.930 . S
C73 N74 1.332 . S
C73 C77 1.381 . S
C73 H79 0.931 . S
N74 Cd55 2.334 . S
N74 C73 1.332 . S
N74 C78 1.328 . S
C75 C76 1.396 . S
C75 C78 1.378 . S
C75 H104 0.931 . S
C76 C75 1.396 . S
C76 C77 1.382 . S
C77 C73 1.381 . S
C77 C76 1.382 . S
C77 H105 0.930 . S
C78 N74 1.328 . S
C78 C75 1.378 . S
C78 H80 0.930 . S
H79 C73 0.931 . S
H80 C78 0.930 . S
C81 O92 1.238 1_455 S
C81 O93 1.253 . S
C82 O94 1.239 . S
C82 O95 1.230 . S
N83 Cd54 2.304 . S
N83 C84 1.337 . S
N83 C88 1.338 . S
C84 N83 1.337 . S
C84 C85 1.379 . S
C84 H98 0.929 . S
C85 C84 1.379 . S
C85 C86 1.380 . S
C85 H106 0.929 . S
C86 C85 1.380 . S
C86 C87 1.399 . S
C87 C86 1.399 . S
C87 C88 1.376 . S
C87 H107 0.931 . S
C88 N83 1.338 . S
C88 C87 1.376 . S
C88 H99 0.930 . S
C89 O96 1.239 . S
C89 O97 1.230 . S
O90 Cd54 2.268 . S
O90 C64 1.238 1_455 S
O91 Cd55 2.273 . S
O91 C64 1.253 . S
O92 Cd55 2.268 . S
O92 C81 1.238 1_655 S
O93 Cd54 2.273 . S
O93 C81 1.253 . S
O94 Cd54 2.417 . S
O94 C82 1.239 . S
O95 Cd54 2.330 . S
O95 C82 1.230 . S
O96 Cd55 2.417 . S
O96 C89 1.239 . S
O97 Cd55 2.330 . S
O97 C89 1.230 . S
H98 C84 0.929 . S
H99 C88 0.930 . S
H100 C58 0.931 . S
H101 C60 0.930 . S
H102 C66 0.929 . S
H103 C68 0.931 . S
H104 C75 0.931 . S
H105 C77 0.930 . S
H106 C85 0.929 . S
H107 C87 0.931 . S
Cd108 N111 2.334 . S
Cd108 N137 2.304 . S
Cd108 O144 2.268 . S
Cd108 O147 2.273 . S
Cd108 O148 2.417 . S
Cd108 O149 2.330 . S
Cd109 N124 2.304 . S
Cd109 N128 2.334 . S
Cd109 O145 2.273 . S
Cd109 O146 2.268 . S
Cd109 O150 2.417 1_565 S
Cd109 O151 2.330 1_565 S
C110 N111 1.332 . S
C110 C114 1.381 . S
C110 H116 0.931 . S
N111 Cd108 2.334 . S
N111 C110 1.332 . S
N111 C115 1.328 . S
C112 C113 1.396 . S
C112 C115 1.378 . S
C112 H154 0.931 . S
C113 C112 1.396 . S
C113 C114 1.382 . S
C114 C110 1.381 . S
C114 C113 1.382 . S
C114 H155 0.930 . S
C115 N111 1.328 . S
C115 C112 1.378 . S
C115 H117 0.930 . S
H116 C110 0.931 . S
H117 C115 0.930 . S
C118 O144 1.238 . S
C118 O145 1.253 . S
C119 C120 1.379 . S
C119 N124 1.337 . S
C119 H125 0.929 . S
C120 C119 1.379 . S
C120 C121 1.380 . S
C120 H156 0.929 . S
C121 C120 1.380 . S
C121 C122 1.399 . S
C122 C121 1.399 . S
C122 C123 1.376 . S
C122 H157 0.931 . S
C123 C122 1.376 . S
C123 N124 1.338 . S
C123 H126 0.930 . S
N124 Cd109 2.304 . S
N124 C119 1.337 . S
N124 C123 1.338 . S
H125 C119 0.929 . S
H126 C123 0.930 . S
C127 N128 1.332 . S
C127 C131 1.381 . S
C127 H133 0.931 . S
N128 Cd109 2.334 . S
N128 C127 1.332 . S
N128 C132 1.328 . S
C129 C130 1.396 . S
C129 C132 1.378 . S
C129 H158 0.931 . S
C130 C129 1.396 . S
C130 C131 1.382 . S
C131 C127 1.381 . S
C131 C130 1.382 . S
C131 H159 0.930 . S
C132 N128 1.328 . S
C132 C129 1.378 . S
C132 H134 0.930 . S
H133 C127 0.931 . S
H134 C132 0.930 . S
C135 O146 1.238 . S
C135 O147 1.253 . S
C136 O148 1.239 . S
C136 O149 1.230 . S
N137 Cd108 2.304 . S
N137 C138 1.337 . S
N137 C142 1.338 . S
C138 N137 1.337 . S
C138 C139 1.379 . S
C138 H152 0.929 . S
C139 C138 1.379 . S
C139 C140 1.380 . S
C139 H160 0.929 . S
C140 C139 1.380 . S
C140 C141 1.399 . S
C141 C140 1.399 . S
C141 C142 1.376 . S
C141 H161 0.931 . S
C142 N137 1.338 . S
C142 C141 1.376 . S
C142 H153 0.930 . S
C143 O150 1.239 . S
C143 O151 1.230 . S
O144 Cd108 2.268 . S
O144 C118 1.238 . S
O145 Cd109 2.273 . S
O145 C118 1.253 . S
O146 Cd109 2.268 . S
O146 C135 1.238 . S
O147 Cd108 2.273 . S
O147 C135 1.253 . S
O148 Cd108 2.417 . S
O148 C136 1.239 . S
O149 Cd108 2.330 . S
O149 C136 1.230 . S
O150 Cd109 2.417 1_545 S
O150 C143 1.239 . S
O151 Cd109 2.330 1_545 S
O151 C143 1.230 . S
H152 C138 0.929 . S
H153 C142 0.930 . S
H154 C112 0.931 . S
H155 C114 0.930 . S
H156 C120 0.929 . S
H157 C122 0.931 . S
H158 C129 0.931 . S
H159 C131 0.930 . S
H160 C139 0.929 . S
H161 C141 0.931 . S
Cd162 N165 2.334 . S
Cd162 N191 2.304 . S
Cd162 O198 2.268 . S
Cd162 O201 2.273 . S
Cd162 O202 2.417 . S
Cd162 O203 2.330 . S
Cd163 N178 2.304 . S
Cd163 N182 2.334 . S
Cd163 O199 2.273 . S
Cd163 O200 2.268 . S
Cd163 O204 2.417 . S
Cd163 O205 2.330 . S
C164 N165 1.332 . S
C164 C168 1.381 . S
C164 H170 0.931 . S
N165 Cd162 2.334 . S
N165 C164 1.332 . S
N165 C169 1.328 . S
C166 C167 1.396 . S
C166 C169 1.378 . S
C166 H208 0.931 . S
C167 C166 1.396 . S
C167 C168 1.382 . S
C168 C164 1.381 . S
C168 C167 1.382 . S
C168 H209 0.930 . S
C169 N165 1.328 . S
C169 C166 1.378 . S
C169 H171 0.930 . S
H170 C164 0.931 . S
H171 C169 0.930 . S
C172 O198 1.238 . S
C172 O199 1.253 . S
C173 C174 1.379 . S
C173 N178 1.337 . S
C173 H179 0.929 . S
C174 C173 1.379 . S
C174 C175 1.380 . S
C174 H210 0.929 . S
C175 C174 1.380 . S
C175 C176 1.399 . S
C176 C175 1.399 . S
C176 C177 1.376 . S
C176 H211 0.931 . S
C177 C176 1.376 . S
C177 N178 1.338 . S
C177 H180 0.930 . S
N178 Cd163 2.304 . S
N178 C173 1.337 . S
N178 C177 1.338 . S
H179 C173 0.929 . S
H180 C177 0.930 . S
C181 N182 1.332 . S
C181 C185 1.381 . S
C181 H187 0.931 . S
N182 Cd163 2.334 . S
N182 C181 1.332 . S
N182 C186 1.328 . S
C183 C184 1.396 . S
C183 C186 1.378 . S
C183 H212 0.931 . S
C184 C183 1.396 . S
C184 C185 1.382 . S
C185 C181 1.381 . S
C185 C184 1.382 . S
C185 H213 0.930 . S
C186 N182 1.328 . S
C186 C183 1.378 . S
C186 H188 0.930 . S
H187 C181 0.931 . S
H188 C186 0.930 . S
C189 O200 1.238 . S
C189 O201 1.253 . S
C190 O202 1.239 . S
C190 O203 1.230 . S
N191 Cd162 2.304 . S
N191 C192 1.337 . S
N191 C196 1.338 . S
C192 N191 1.337 . S
C192 C193 1.379 . S
C192 H206 0.929 . S
C193 C192 1.379 . S
C193 C194 1.380 . S
C193 H214 0.929 . S
C194 C193 1.380 . S
C194 C195 1.399 . S
C195 C194 1.399 . S
C195 C196 1.376 . S
C195 H215 0.931 . S
C196 N191 1.338 . S
C196 C195 1.376 . S
C196 H207 0.930 . S
C197 O204 1.239 . S
C197 O205 1.230 . S
O198 Cd162 2.268 . S
O198 C172 1.238 . S
O199 Cd163 2.273 . S
O199 C172 1.253 . S
O200 Cd163 2.268 . S
O200 C189 1.238 . S
O201 Cd162 2.273 . S
O201 C189 1.253 . S
O202 Cd162 2.417 . S
O202 C190 1.239 . S
O203 Cd162 2.330 . S
O203 C190 1.230 . S
O204 Cd163 2.417 . S
O204 C197 1.239 . S
O205 Cd163 2.330 . S
O205 C197 1.230 . S
H206 C192 0.929 . S
H207 C196 0.930 . S
H208 C166 0.931 . S
H209 C168 0.930 . S
H210 C174 0.929 . S
H211 C176 0.931 . S
H212 C183 0.931 . S
H213 C185 0.930 . S
H214 C193 0.929 . S
H215 C195 0.931 . S
H216 C222 0.930 . S
H217 C225 0.930 . S
H218 C226 0.930 . S
H219 C227 0.930 . S
H220 C230 0.930 . S
H221 C231 0.930 . S
C222 H216 0.930 . S
C222 C223 1.355 1_455 S
C222 C224 1.415 1_455 S
C223 C222 1.355 1_655 S
C223 C225 1.419 . S
C224 C222 1.415 1_655 S
C224 C229 1.425 . S
C224 C231 1.409 1_655 S
C225 H217 0.930 . S
C225 C223 1.419 . S
C225 C226 1.362 . S
C226 H218 0.930 . S
C226 C225 1.362 . S
C226 C229 1.409 . S
C227 H219 0.930 . S
C227 C228 1.355 . S
C227 C229 1.415 . S
C228 C227 1.355 . S
C228 C230 1.419 1_655 S
C229 C224 1.425 . S
C229 C226 1.409 . S
C229 C227 1.415 . S
C230 H220 0.930 . S
C230 C228 1.419 1_455 S
C230 C231 1.362 . S
C231 H221 0.930 . S
C231 C224 1.409 1_455 S
C231 C230 1.362 . S
H232 C238 0.930 . S
H233 C241 0.930 . S
H234 C242 0.930 . S
H235 C243 0.930 . S
H236 C246 0.930 . S
H237 C247 0.930 . S
C238 H232 0.930 . S
C238 C239 1.355 . S
C238 C240 1.415 . S
C239 C238 1.355 . S
C239 C241 1.419 . S
C240 C238 1.415 . S
C240 C245 1.425 . S
C240 C247 1.409 . S
C241 H233 0.930 . S
C241 C239 1.419 . S
C241 C242 1.362 . S
C242 H234 0.930 . S
C242 C241 1.362 . S
C242 C245 1.409 . S
C243 H235 0.930 . S
C243 C244 1.355 . S
C243 C245 1.415 . S
C244 C243 1.355 . S
C244 C246 1.419 . S
C245 C240 1.425 . S
C245 C242 1.409 . S
C245 C243 1.415 . S
C246 H236 0.930 . S
C246 C244 1.419 . S
C246 C247 1.362 . S
C247 H237 0.930 . S
C247 C240 1.409 . S
C247 C246 1.362 . S
H248 C254 0.930 . S
H249 C257 0.930 . S
H250 C258 0.930 . S
H251 C259 0.930 . S
H252 C262 0.930 . S
H253 C263 0.930 . S
C254 H248 0.930 . S
C254 C255 1.355 . S
C254 C256 1.415 . S
C255 C254 1.355 . S
C255 C257 1.419 . S
C256 C254 1.415 . S
C256 C261 1.425 1_556 S
C256 C263 1.409 1_556 S
C257 H249 0.930 . S
C257 C255 1.419 . S
C257 C258 1.362 . S
C258 H250 0.930 . S
C258 C257 1.362 . S
C258 C261 1.409 1_556 S
C259 H251 0.930 . S
C259 C260 1.355 . S
C259 C261 1.415 . S
C260 C259 1.355 . S
C260 C262 1.419 . S
C261 C256 1.425 1_554 S
C261 C258 1.409 1_554 S
C261 C259 1.415 . S
C262 H252 0.930 . S
C262 C260 1.419 . S
C262 C263 1.362 . S
C263 H253 0.930 . S
C263 C256 1.409 1_554 S
C263 C262 1.362 . S
H264 C270 0.930 . S
H265 C273 0.930 1_455 S
H266 C274 0.930 . S
H267 C275 0.930 . S
H268 C278 0.930 . S
H269 C279 0.930 . S
C270 H264 0.930 . S
C270 C271 1.355 . S
C270 C272 1.415 . S
C271 C270 1.355 . S
C271 C273 1.419 . S
C272 C270 1.415 . S
C272 C277 1.425 . S
C272 C279 1.409 . S
C273 H265 0.930 1_655 S
C273 C271 1.419 . S
C273 C274 1.362 . S
C274 H266 0.930 . S
C274 C273 1.362 . S
C274 C277 1.409 . S
C275 H267 0.930 . S
C275 C276 1.355 . S
C275 C277 1.415 . S
C276 C275 1.355 . S
C276 C278 1.419 . S
C277 C272 1.425 . S
C277 C274 1.409 . S
C277 C275 1.415 . S
C278 H268 0.930 . S
C278 C276 1.419 . S
C278 C279 1.362 . S
C279 H269 0.930 . S
C279 C272 1.409 . S
C279 C278 1.362 . S
H280 C286 0.930 . S
H281 C289 0.930 . S
H282 C290 0.930 . S
H283 C291 0.930 . S
H284 C294 0.930 1_565 S
H285 C295 0.930 1_565 S
C286 H280 0.930 . S
C286 C287 1.355 . S
C286 C288 1.415 . S
C287 C286 1.355 . S
C287 C289 1.419 . S
C288 C286 1.415 . S
C288 C293 1.425 . S
C288 C295 1.409 . S
C289 H281 0.930 . S
C289 C287 1.419 . S
C289 C290 1.362 . S
C290 H282 0.930 . S
C290 C289 1.362 . S
C290 C293 1.409 . S
C291 H283 0.930 . S
C291 C292 1.355 . S
C291 C293 1.415 . S
C292 C291 1.355 . S
C292 C294 1.419 . S
C293 C288 1.425 . S
C293 C290 1.409 . S
C293 C291 1.415 . S
C294 H284 0.930 1_545 S
C294 C292 1.419 . S
C294 C295 1.362 . S
C295 H285 0.930 1_545 S
C295 C288 1.409 . S
C295 C294 1.362 . S
H296 C302 0.930 . S
H297 C305 0.930 . S
H298 C306 0.930 . S
H299 C307 0.930 . S
H300 C310 0.930 . S
H301 C311 0.930 . S
C302 H296 0.930 . S
C302 C303 1.355 . S
C302 C304 1.415 . S
C303 C302 1.355 . S
C303 C305 1.419 . S
C304 C302 1.415 . S
C304 C309 1.425 . S
C304 C311 1.409 . S
C305 H297 0.930 . S
C305 C303 1.419 . S
C305 C306 1.362 . S
C306 H298 0.930 . S
C306 C305 1.362 . S
C306 C309 1.409 . S
C307 H299 0.930 . S
C307 C308 1.355 . S
C307 C309 1.415 . S
C308 C307 1.355 . S
C308 C310 1.419 . S
C309 C304 1.425 . S
C309 C306 1.409 . S
C309 C307 1.415 . S
C310 H300 0.930 . S
C310 C308 1.419 . S
C310 C311 1.362 . S
C311 H301 0.930 . S
C311 C304 1.409 . S
C311 C310 1.362 . S
H312 C318 0.930 . S
H313 C321 0.930 1_565 S
H314 C322 0.930 . S
H315 C323 0.930 . S
H316 C326 0.930 . S
H317 C327 0.930 1_565 S
C318 H312 0.930 . S
C318 C319 1.355 . S
C318 C320 1.415 1_565 S
C319 C318 1.355 . S
C319 C321 1.419 1_565 S
C320 C318 1.415 1_545 S
C320 C325 1.425 1_556 S
C320 C327 1.409 1_556 S
C321 H313 0.930 1_545 S
C321 C319 1.419 1_545 S
C321 C322 1.362 . S
C322 H314 0.930 . S
C322 C321 1.362 . S
C322 C325 1.409 1_556 S
C323 H315 0.930 . S
C323 C324 1.355 . S
C323 C325 1.415 . S
C324 C323 1.355 . S
C324 C326 1.419 . S
C325 C320 1.425 1_554 S
C325 C322 1.409 1_554 S
C325 C323 1.415 . S
C326 H316 0.930 . S
C326 C324 1.419 . S
C326 C327 1.362 . S
C327 H317 0.930 1_545 S
C327 C320 1.409 1_554 S
C327 C326 1.362 . S
H328 C334 0.930 . S
H329 C337 0.930 . S
H330 C338 0.930 . S
H331 C339 0.930 . S
H332 C342 0.930 . S
H333 C343 0.930 . S
C334 H328 0.930 . S
C334 C335 1.355 . S
C334 C336 1.415 1_545 S
C335 C334 1.355 . S
C335 C337 1.419 1_545 S
C336 C334 1.415 1_565 S
C336 C341 1.425 . S
C336 C343 1.409 1_565 S
C337 H329 0.930 . S
C337 C335 1.419 1_565 S
C337 C338 1.362 . S
C338 H330 0.930 . S
C338 C337 1.362 . S
C338 C341 1.409 . S
C339 H331 0.930 . S
C339 C340 1.355 . S
C339 C341 1.415 . S
C340 C339 1.355 . S
C340 C342 1.419 . S
C341 C336 1.425 . S
C341 C338 1.409 . S
C341 C339 1.415 . S
C342 H332 0.930 . S
C342 C340 1.419 . S
C342 C343 1.362 1_565 S
C343 H333 0.930 . S
C343 C336 1.409 1_545 S
C343 C342 1.362 1_545 S
H344 C350 0.930 . S
H345 C353 0.930 . S
H346 C354 0.930 . S
H347 C355 0.930 . S
H348 C358 0.930 . S
H349 C359 0.930 . S
C350 H344 0.930 . S
C350 C351 1.355 1_655 S
C350 C352 1.415 . S
C351 C350 1.355 1_455 S
C351 C353 1.419 . S
C352 C350 1.415 . S
C352 C357 1.425 1_655 S
C352 C359 1.409 . S
C353 H345 0.930 . S
C353 C351 1.419 . S
C353 C354 1.362 . S
C354 H346 0.930 . S
C354 C353 1.362 . S
C354 C357 1.409 . S
C355 H347 0.930 . S
C355 C356 1.355 1_455 S
C355 C357 1.415 . S
C356 C355 1.355 1_655 S
C356 C358 1.419 . S
C357 C352 1.425 1_455 S
C357 C354 1.409 . S
C357 C355 1.415 . S
C358 H348 0.930 . S
C358 C356 1.419 . S
C358 C359 1.362 . S
C359 H349 0.930 . S
C359 C352 1.409 . S
C359 C358 1.362 . S
H360 C366 0.930 . S
H361 C369 0.930 . S
H362 C370 0.930 . S
H363 C371 0.930 . S
H364 C374 0.930 . S
H365 C375 0.930 . S
C366 H360 0.930 . S
C366 C367 1.355 . S
C366 C368 1.415 . S
C367 C366 1.355 . S
C367 C369 1.419 . S
C368 C366 1.415 . S
C368 C373 1.425 . S
C368 C375 1.409 . S
C369 H361 0.930 . S
C369 C367 1.419 . S
C369 C370 1.362 . S
C370 H362 0.930 . S
C370 C369 1.362 . S
C370 C373 1.409 . S
C371 H363 0.930 . S
C371 C372 1.355 . S
C371 C373 1.415 . S
C372 C371 1.355 . S
C372 C374 1.419 . S
C373 C368 1.425 . S
C373 C370 1.409 . S
C373 C371 1.415 . S
C374 H364 0.930 . S
C374 C372 1.419 . S
C374 C375 1.362 . S
C375 H365 0.930 . S
C375 C368 1.409 . S
C375 C374 1.362 . S
H376 C382 0.930 . S
H377 C385 0.930 . S
H378 C386 0.930 . S
H379 C387 0.930 . S
H380 C390 0.930 . S
H381 C391 0.930 . S
C382 H376 0.930 . S
C382 C383 1.355 . S
C382 C384 1.415 . S
C383 C382 1.355 . S
C383 C385 1.419 . S
C384 C382 1.415 . S
C384 C389 1.425 . S
C384 C391 1.409 . S
C385 H377 0.930 . S
C385 C383 1.419 . S
C385 C386 1.362 . S
C386 H378 0.930 . S
C386 C385 1.362 . S
C386 C389 1.409 . S
C387 H379 0.930 . S
C387 C388 1.355 . S
C387 C389 1.415 . S
C388 C387 1.355 . S
C388 C390 1.419 . S
C389 C384 1.425 . S
C389 C386 1.409 . S
C389 C387 1.415 . S
C390 H380 0.930 . S
C390 C388 1.419 . S
C390 C391 1.362 . S
C391 H381 0.930 . S
C391 C384 1.409 . S
C391 C390 1.362 . S
H392 C398 0.930 . S
H393 C401 0.930 . S
H394 C402 0.930 . S
H395 C403 0.930 . S
H396 C406 0.930 . S
H397 C407 0.930 . S
C398 H392 0.930 . S
C398 C399 1.355 . S
C398 C400 1.415 . S
C399 C398 1.355 . S
C399 C401 1.419 . S
C400 C398 1.415 . S
C400 C405 1.425 1_455 S
C400 C407 1.409 1_455 S
C401 H393 0.930 . S
C401 C399 1.419 . S
C401 C402 1.362 . S
C402 H394 0.930 . S
C402 C401 1.362 . S
C402 C405 1.409 1_455 S
C403 H395 0.930 . S
C403 C404 1.355 . S
C403 C405 1.415 . S
C404 C403 1.355 . S
C404 C406 1.419 . S
C405 C400 1.425 1_655 S
C405 C402 1.409 1_655 S
C405 C403 1.415 . S
C406 H396 0.930 . S
C406 C404 1.419 . S
C406 C407 1.362 . S
C407 H397 0.930 . S
C407 C400 1.409 1_655 S
C407 C406 1.362 . S
H408 C414 0.930 . S
H409 C417 0.930 . S
H410 C418 0.930 . S
H411 C419 0.930 . S
H412 C422 0.930 . S
H413 C423 0.930 . S
C414 H408 0.930 . S
C414 C415 1.355 . S
C414 C416 1.415 . S
C415 C414 1.355 . S
C415 C417 1.419 1_655 S
C416 C414 1.415 . S
C416 C421 1.425 1_655 S
C416 C423 1.409 . S
C417 H409 0.930 . S
C417 C415 1.419 1_455 S
C417 C418 1.362 . S
C418 H410 0.930 . S
C418 C417 1.362 . S
C418 C421 1.409 . S
C419 H411 0.930 . S
C419 C420 1.355 . S
C419 C421 1.415 . S
C420 C419 1.355 . S
C420 C422 1.419 1_455 S
C421 C416 1.425 1_455 S
C421 C418 1.409 . S
C421 C419 1.415 . S
C422 H412 0.930 . S
C422 C420 1.419 1_655 S
C422 C423 1.362 . S
C423 H413 0.930 . S
C423 C416 1.409 . S
C423 C422 1.362 . S
H424 C430 0.930 . S
H425 C433 0.930 . S
H426 C434 0.930 . S
H427 C435 0.930 . S
H428 C438 0.930 . S
H429 C439 0.930 . S
C430 H424 0.930 . S
C430 C431 1.355 . S
C430 C432 1.415 . S
C431 C430 1.355 . S
C431 C433 1.419 . S
C432 C430 1.415 . S
C432 C437 1.425 1_655 S
C432 C439 1.409 1_655 S
C433 H425 0.930 . S
C433 C431 1.419 . S
C433 C434 1.362 . S
C434 H426 0.930 . S
C434 C433 1.362 . S
C434 C437 1.409 1_655 S
C435 H427 0.930 . S
C435 C436 1.355 . S
C435 C437 1.415 . S
C436 C435 1.355 . S
C436 C438 1.419 . S
C437 C432 1.425 1_455 S
C437 C434 1.409 1_455 S
C437 C435 1.415 . S
C438 H428 0.930 . S
C438 C436 1.419 . S
C438 C439 1.362 . S
C439 H429 0.930 . S
C439 C432 1.409 1_455 S
C439 C438 1.362 . S
H440 C446 0.930 . S
H441 C449 0.930 . S
H442 C450 0.930 . S
H443 C451 0.930 . S
H444 C454 0.930 . S
H445 C455 0.930 . S
C446 H440 0.930 . S
C446 C447 1.355 . S
C446 C448 1.415 . S
C447 C446 1.355 . S
C447 C449 1.419 . S
C448 C446 1.415 . S
C448 C453 1.425 . S
C448 C455 1.409 . S
C449 H441 0.930 . S
C449 C447 1.419 . S
C449 C450 1.362 . S
C450 H442 0.930 . S
C450 C449 1.362 . S
C450 C453 1.409 . S
C451 H443 0.930 . S
C451 C452 1.355 . S
C451 C453 1.415 . S
C452 C451 1.355 . S
C452 C454 1.419 . S
C453 C448 1.425 . S
C453 C450 1.409 . S
C453 C451 1.415 . S
C454 H444 0.930 . S
C454 C452 1.419 . S
C454 C455 1.362 . S
C455 H445 0.930 . S
C455 C448 1.409 . S
C455 C454 1.362 . S
H456 C462 0.930 . S
H457 C465 0.930 . S
H458 C466 0.930 . S
H459 C467 0.930 . S
H460 C470 0.930 . S
H461 C471 0.930 . S
C462 H456 0.930 . S
C462 C463 1.355 . S
C462 C464 1.415 . S
C463 C462 1.355 . S
C463 C465 1.419 . S
C464 C462 1.415 . S
C464 C469 1.425 . S
C464 C471 1.409 . S
C465 H457 0.930 . S
C465 C463 1.419 . S
C465 C466 1.362 . S
C466 H458 0.930 . S
C466 C465 1.362 . S
C466 C469 1.409 . S
C467 H459 0.930 . S
C467 C468 1.355 . S
C467 C469 1.415 . S
C468 C467 1.355 . S
C468 C470 1.419 . S
C469 C464 1.425 . S
C469 C466 1.409 . S
C469 C467 1.415 . S
C470 H460 0.930 . S
C470 C468 1.419 . S
C470 C471 1.362 . S
C471 H461 0.930 . S
C471 C464 1.409 . S
C471 C470 1.362 . S
C223 C13 2.112 . S
C228 C76 2.116 . S
C239 C113 2.128 . S
C244 C67 2.125 . S
C255 C140 2.085 . S
C260 C167 2.091 . S
C271 C22 2.127 . S
C276 C194 2.123 . S
C287 C175 2.103 . S
C292 C5 2.108 . S
C303 C86 2.123 . S
C308 C130 2.128 . S
C319 C121 2.088 . S
C324 C184 2.094 . S
C335 C32 2.074 . S
C340 C59 2.079 . S
C351 C28 0.183 . S
C356 C35 0.195 . S
C367 C82 0.194 . S
C372 C89 0.183 . S
C383 C136 0.194 . S
C388 C143 0.201 . S
C399 C197 0.187 . S
C404 C190 0.201 . S
C415 C81 1.986 1_645 S
C420 C64 1.986 1_455 S
C431 C135 2.025 . S
C436 C118 2.025 . S
C447 C189 1.985 . S
C452 C172 1.985 1_565 S
C463 C10 1.987 . S
C468 C27 1.987 . S
