# Generated by pormake.
# Topology ske, (6)-cn, num edge types: 1
# Building blocks:
#     Node 0, Type 0, BuildingBlock: PAMTUU_clean_sbu_0, # of connection points: 6
#     Node 1, Type 0, BuildingBlock: PAMTUU_clean_sbu_0, # of connection points: 6
#     Node 2, Type 0, BuildingBlock: PAMTUU_clean_sbu_0, # of connection points: 6
#     Node 3, Type 0, BuildingBlock: PAMTUU_clean_sbu_0, # of connection points: 6
#     Node 4, Type 0, BuildingBlock: PAMTUU_clean_sbu_0, # of connection points: 6
#     Node 5, Type 0, BuildingBlock: PAMTUU_clean_sbu_0, # of connection points: 6
#     Node 6, Type 0, BuildingBlock: PAMTUU_clean_sbu_0, # of connection points: 6
#     Node 7, Type 0, BuildingBlock: PAMTUU_clean_sbu_0, # of connection points: 6
#     Edge 8, Type (0, 0), BuildingBlock: OJICUG_clean_linker_0, # of connection points: 2
#     Edge 9, Type (0, 0), BuildingBlock: OJICUG_clean_linker_0, # of connection points: 2
#     Edge 10, Type (0, 0), BuildingBlock: OJICUG_clean_linker_0, # of connection points: 2
#     Edge 11, Type (0, 0), BuildingBlock: OJICUG_clean_linker_0, # of connection points: 2
#     Edge 12, Type (0, 0), BuildingBlock: OJICUG_clean_linker_0, # of connection points: 2
#     Edge 13, Type (0, 0), BuildingBlock: OJICUG_clean_linker_0, # of connection points: 2
#     Edge 14, Type (0, 0), BuildingBlock: OJICUG_clean_linker_0, # of connection points: 2
#     Edge 15, Type (0, 0), BuildingBlock: OJICUG_clean_linker_0, # of connection points: 2
#     Edge 16, Type (0, 0), BuildingBlock: OJICUG_clean_linker_0, # of connection points: 2
#     Edge 17, Type (0, 0), BuildingBlock: OJICUG_clean_linker_0, # of connection points: 2
#     Edge 18, Type (0, 0), BuildingBlock: OJICUG_clean_linker_0, # of connection points: 2
#     Edge 19, Type (0, 0), BuildingBlock: OJICUG_clean_linker_0, # of connection points: 2
#     Edge 20, Type (0, 0), BuildingBlock: OJICUG_clean_linker_0, # of connection points: 2
#     Edge 21, Type (0, 0), BuildingBlock: OJICUG_clean_linker_0, # of connection points: 2
#     Edge 22, Type (0, 0), BuildingBlock: OJICUG_clean_linker_0, # of connection points: 2
#     Edge 23, Type (0, 0), BuildingBlock: OJICUG_clean_linker_0, # of connection points: 2
#     Edge 24, Type (0, 0), BuildingBlock: OJICUG_clean_linker_0, # of connection points: 2
#     Edge 25, Type (0, 0), BuildingBlock: OJICUG_clean_linker_0, # of connection points: 2
#     Edge 26, Type (0, 0), BuildingBlock: OJICUG_clean_linker_0, # of connection points: 2
#     Edge 27, Type (0, 0), BuildingBlock: OJICUG_clean_linker_0, # of connection points: 2
#     Edge 28, Type (0, 0), BuildingBlock: OJICUG_clean_linker_0, # of connection points: 2
#     Edge 29, Type (0, 0), BuildingBlock: OJICUG_clean_linker_0, # of connection points: 2
#     Edge 30, Type (0, 0), BuildingBlock: OJICUG_clean_linker_0, # of connection points: 2
#     Edge 31, Type (0, 0), BuildingBlock: OJICUG_clean_linker_0, # of connection points: 2
# Relax obj value: 0.137
# Max RMSD: 0.176
# Mean RMSD: 0.169
data_MOF--net-ske--node1-PAMTUU_clean_sbu_0--edge1-OJICUG_clean_linker_0
_symmetry_space_group_name_H-M    P1
_symmetry_Int_Tables_number       1
_symmetry_cell_setting            triclinic
loop_
_symmetry_equiv_pos_as_xyz
'x, y, z'
_cell_length_a     88.044558
_cell_length_b     21.998384
_cell_length_c     11.196476
_cell_angle_alpha  89.99282
_cell_angle_beta   90.014078
_cell_angle_gamma 98.449635
loop_
_atom_site_label
_atom_site_type_symbol
_atom_site_fract_x
_atom_site_fract_y
_atom_site_fract_z
_atom_type_partial_charge
Tb0 Tb 0.16795 0.27242 0.52173 0.0
Tb1 Tb 0.12957 0.25156 0.52374 0.0
C2 C 0.14898 0.37988 0.52611 0.0
C3 C 0.21095 0.27998 0.58097 0.0
C4 C 0.23963 0.26042 0.67581 0.0
C5 C 0.23677 0.32006 0.64812 0.0
C6 C 0.22261 0.32963 0.60102 0.0
C7 C 0.21356 0.22044 0.61192 0.0
C8 C 0.22776 0.21079 0.65884 0.0
C9 C 0.19698 0.29128 0.5166 0.0
O10 O 0.16181 0.27932 0.70906 0.0
O11 O 0.13587 0.24038 0.70898 0.0
O12 O 0.13694 0.16453 0.47723 0.0
O13 O 0.16016 0.17824 0.57459 0.0
O14 O 0.10986 0.2877 0.47102 0.0
O15 O 0.10797 0.20141 0.57169 0.0
O16 O 0.13616 0.26885 0.33827 0.0
O17 O 0.16123 0.24996 0.3388 0.0
O18 O 0.15978 0.35684 0.46875 0.0
O19 O 0.13815 0.34396 0.58249 0.0
C20 C 0.14886 0.25925 0.7649 0.0
O21 O 0.18858 0.24443 0.46629 0.0
O22 O 0.18865 0.329 0.56519 0.0
C23 C 0.14852 0.1423 0.52657 0.0
C24 C 0.0839 0.2386 0.51596 0.0
C25 C 0.0517 0.23671 0.51394 0.0
C26 C 0.0585 0.1984 0.59207 0.0
C27 C 0.07444 0.19913 0.59266 0.0
C28 C 0.07711 0.27647 0.43729 0.0
C29 C 0.0612 0.27538 0.43597 0.0
C30 C 0.10081 0.24247 0.52063 0.0
C31 C 0.14867 0.25877 0.28229 0.0
H32 H 0.24568 0.35925 0.65869 0.0
H33 H 0.22093 0.37586 0.57663 0.0
H34 H 0.20477 0.18121 0.59739 0.0
H35 H 0.2295 0.16437 0.68088 0.0
H36 H 0.05148 0.16764 0.65239 0.0
H37 H 0.07938 0.16954 0.65441 0.0
H38 H 0.0841 0.30745 0.37718 0.0
H39 H 0.05636 0.30588 0.37555 0.0
Tb40 Tb 0.86962 0.20487 0.52212 0.0
Tb41 Tb 0.908 0.22576 0.52421 0.0
C42 C 0.88861 0.09744 0.52641 0.0
C43 C 0.8266 0.19714 0.58129 0.0
C44 C 0.79792 0.2166 0.67608 0.0
C45 C 0.80075 0.15702 0.64752 0.0
C46 C 0.81491 0.1475 0.60046 0.0
C47 C 0.82403 0.25659 0.61311 0.0
C48 C 0.80982 0.26619 0.66 0.0
C49 C 0.84058 0.18595 0.51697 0.0
O50 O 0.87577 0.19794 0.70943 0.0
O51 O 0.9017 0.237 0.70941 0.0
O52 O 0.90062 0.31273 0.4774 0.0
O53 O 0.8774 0.29909 0.57471 0.0
O54 O 0.92771 0.18967 0.47151 0.0
O55 O 0.9296 0.27593 0.57222 0.0
O56 O 0.90141 0.20849 0.33872 0.0
O57 O 0.87632 0.22724 0.33914 0.0
O58 O 0.8778 0.12047 0.46911 0.0
O59 O 0.89943 0.13335 0.58291 0.0
C60 C 0.88871 0.21807 0.76531 0.0
O61 O 0.84897 0.23285 0.46679 0.0
O62 O 0.84893 0.14822 0.5655 0.0
C63 C 0.88904 0.335 0.5266 0.0
C64 C 0.95367 0.23881 0.51642 0.0
C65 C 0.98587 0.24078 0.5142 0.0
C66 C 0.97908 0.27893 0.59263 0.0
C67 C 0.96313 0.27817 0.59331 0.0
C68 C 0.96046 0.20108 0.43747 0.0
C69 C 0.97637 0.20222 0.43605 0.0
C70 C 0.93676 0.2349 0.52113 0.0
C71 C 0.88889 0.2185 0.2827 0.0
H72 H 0.79182 0.11787 0.65738 0.0
H73 H 0.81657 0.10135 0.57541 0.0
H74 H 0.83284 0.2958 0.59927 0.0
H75 H 0.8081 0.31255 0.68272 0.0
H76 H 0.9861 0.3096 0.65309 0.0
H77 H 0.9582 0.30764 0.65527 0.0
H78 H 0.95346 0.1702 0.37721 0.0
H79 H 0.98121 0.17183 0.3754 0.0
Tb80 Tb 0.12961 0.75152 0.53003 0.0
Tb81 Tb 0.168 0.77251 0.53217 0.0
C82 C 0.14859 0.64234 0.52741 0.0
C83 C 0.08395 0.73829 0.5377 0.0
C84 C 0.05174 0.73626 0.5396 0.0
C85 C 0.05855 0.6981 0.46128 0.0
C86 C 0.0745 0.69891 0.46074 0.0
C87 C 0.07714 0.77601 0.61653 0.0
C88 C 0.06122 0.77484 0.61781 0.0
C89 C 0.10086 0.74231 0.533 0.0
O90 O 0.13621 0.76886 0.71551 0.0
O91 O 0.16128 0.75003 0.71509 0.0
O92 O 0.1598 0.85688 0.58507 0.0
O93 O 0.13817 0.84394 0.47122 0.0
O94 O 0.18864 0.7446 0.58754 0.0
O95 O 0.18868 0.82926 0.48897 0.0
O96 O 0.16186 0.77937 0.34481 0.0
O97 O 0.13592 0.74036 0.34482 0.0
O98 O 0.13701 0.66456 0.5767 0.0
O99 O 0.16023 0.67829 0.47944 0.0
C100 C 0.14872 0.75881 0.77154 0.0
O101 O 0.10989 0.78754 0.5827 0.0
O102 O 0.10803 0.70128 0.48198 0.0
C103 C 0.14899 0.87988 0.52764 0.0
C104 C 0.21102 0.7805 0.47339 0.0
C105 C 0.23967 0.76084 0.37834 0.0
C106 C 0.23703 0.82023 0.41027 0.0
C107 C 0.22288 0.82984 0.45745 0.0
C108 C 0.21341 0.7213 0.43827 0.0
C109 C 0.22761 0.71159 0.39125 0.0
C110 C 0.19703 0.79159 0.53758 0.0
C111 C 0.14891 0.75927 0.28893 0.0
H112 H 0.05154 0.66742 0.40077 0.0
H113 H 0.07945 0.66945 0.39884 0.0
H114 H 0.08412 0.80693 0.67682 0.0
H115 H 0.05637 0.80522 0.67837 0.0
H116 H 0.24608 0.85909 0.40291 0.0
H117 H 0.22136 0.87578 0.48504 0.0
H118 H 0.20445 0.68234 0.44957 0.0
H119 H 0.22918 0.66542 0.36589 0.0
Tb120 Tb 0.90805 0.72572 0.52884 0.0
Tb121 Tb 0.86968 0.70499 0.5308 0.0
C122 C 0.88912 0.83505 0.52619 0.0
C123 C 0.95371 0.7385 0.53675 0.0
C124 C 0.98591 0.74031 0.53905 0.0
C125 C 0.97913 0.77864 0.46082 0.0
C126 C 0.96319 0.77795 0.46009 0.0
C127 C 0.96049 0.70061 0.61549 0.0
C128 C 0.9764 0.70166 0.61695 0.0
C129 C 0.93681 0.7347 0.532 0.0
O130 O 0.90146 0.70848 0.71432 0.0
O131 O 0.87639 0.72734 0.71379 0.0
O132 O 0.87781 0.62052 0.58386 0.0
O133 O 0.89945 0.63331 0.4702 0.0
O134 O 0.84906 0.73305 0.58638 0.0
O135 O 0.84896 0.64859 0.48706 0.0
O136 O 0.87582 0.69801 0.34352 0.0
O137 O 0.90176 0.73697 0.3436 0.0
O138 O 0.9007 0.81277 0.57549 0.0
O139 O 0.87749 0.79915 0.47803 0.0
C140 C 0.88895 0.71855 0.77029 0.0
O141 O 0.92775 0.6895 0.58158 0.0
O142 O 0.92966 0.7758 0.48093 0.0
C143 C 0.88861 0.59744 0.52664 0.0
C144 C 0.82669 0.69789 0.47113 0.0
C145 C 0.79795 0.71714 0.37682 0.0
C146 C 0.80116 0.65734 0.3984 0.0
C147 C 0.81534 0.64791 0.44526 0.0
C148 C 0.82375 0.7577 0.44605 0.0
C149 C 0.80952 0.7672 0.39923 0.0
C150 C 0.84064 0.68637 0.53565 0.0
C151 C 0.88877 0.71808 0.28767 0.0
H152 H 0.98617 0.80938 0.40056 0.0
H153 H 0.95827 0.80755 0.3983 0.0
H154 H 0.95348 0.66965 0.67556 0.0
H155 H 0.98123 0.67115 0.67743 0.0
H156 H 0.79263 0.61768 0.38021 0.0
H157 H 0.8173 0.60139 0.46438 0.0
H158 H 0.83225 0.79724 0.46569 0.0
H159 H 0.80742 0.8139 0.38457 0.0
Tb160 Tb 0.66596 0.77278 0.05504 0.0
Tb161 Tb 0.62768 0.75426 0.05916 0.0
C162 C 0.64763 0.88196 0.04866 0.0
C163 C 0.70882 0.77642 0.11758 0.0
C164 C 0.73741 0.75685 0.21412 0.0
C165 C 0.73422 0.81673 0.19329 0.0
C166 C 0.72011 0.82632 0.14534 0.0
C167 C 0.71173 0.71651 0.14214 0.0
C168 C 0.72588 0.70686 0.19017 0.0
C169 C 0.695 0.78823 0.05142 0.0
O170 O 0.65978 0.78477 0.241 0.0
O171 O 0.63461 0.73744 0.24059 0.0
O172 O 0.63442 0.66719 1.0041 0.0
O173 O 0.65765 0.67778 0.10102 0.0
O174 O 0.60789 0.79475 0.03124 0.0
O175 O 0.60633 0.70342 0.10783 0.0
O176 O 0.6334 0.76781 0.87088 0.0
O177 O 0.6591 0.75551 0.87052 0.0
O178 O 0.65848 0.85739 0.99536 0.0
O179 O 0.637 0.84761 0.11018 0.0
C180 C 0.64717 0.76087 0.29721 0.0
O181 O 0.68634 0.74153 1.00274 0.0
O182 O 0.68693 0.82768 0.09716 0.0
C183 C 0.64606 0.64336 0.04879 0.0
C184 C 0.58303 0.73301 0.02776 0.0
C185 C 0.55111 0.72664 0.98851 0.0
C186 C 0.55675 0.68694 0.07035 0.0
C187 C 0.57253 0.69016 0.08979 0.0
C188 C 0.57747 0.76957 0.93932 0.0
C189 C 0.56164 0.76615 0.91945 0.0
C190 C 0.59886 0.74766 0.07483 0.0
C191 C 0.64624 0.76141 0.81475 0.0
H192 H 0.74271 0.85631 0.21266 0.0
H193 H 0.71818 0.87292 0.12666 0.0
H194 H 0.70328 0.67703 0.12106 0.0
H195 H 0.72799 0.66012 0.20434 0.0
H196 H 0.54892 0.65534 0.12364 0.0
H197 H 0.57645 0.66187 0.15928 0.0
H198 H 0.58525 0.80351 0.89069 0.0
H199 H 0.55764 0.79742 0.85598 0.0
Tb200 Tb 0.3714 0.70385 0.05536 0.0
Tb201 Tb 0.40968 0.72234 0.05966 0.0
C202 C 0.38974 0.59468 0.04927 0.0
C203 C 0.32855 0.69998 0.11741 0.0
C204 C 0.30016 0.72067 0.21604 0.0
C205 C 0.30265 0.66107 0.18426 0.0
C206 C 0.31666 0.65095 0.13536 0.0
C207 C 0.32633 0.75941 0.15237 0.0
C208 C 0.31226 0.76962 0.2012 0.0
C209 C 0.34236 0.68826 0.05137 0.0
O210 O 0.37758 0.69196 0.2414 0.0
O211 O 0.40275 0.7392 0.24105 0.0
O212 O 0.40295 0.80942 1.00455 0.0
O213 O 0.37971 0.79887 0.10121 0.0
O214 O 0.42946 0.68178 0.03189 0.0
O215 O 0.43104 0.77315 0.10826 0.0
O216 O 0.40395 0.70875 0.87138 0.0
O217 O 0.37827 0.72117 0.8709 0.0
O218 O 0.37889 0.61924 0.99582 0.0
O219 O 0.40035 0.62905 0.1109 0.0
C220 C 0.39018 0.71583 0.29764 0.0
O221 O 0.35101 0.73509 1.00313 0.0
O222 O 0.35043 0.64884 0.09723 0.0
C223 C 0.39131 0.83328 0.04913 0.0
C224 C 0.45432 0.74347 0.02821 0.0
C225 C 0.48624 0.74976 0.98876 0.0
C226 C 0.48061 0.78948 0.07062 0.0
C227 C 0.46484 0.78631 0.09016 0.0
C228 C 0.45986 0.70688 0.93976 0.0
C229 C 0.47568 0.71026 0.9198 0.0
C230 C 0.4385 0.72887 0.07537 0.0
C231 C 0.39112 0.71522 0.81518 0.0
H232 H 0.29356 0.62241 0.19296 0.0
H233 H 0.31804 0.60484 0.10794 0.0
H234 H 0.3353 0.79816 0.13954 0.0
H235 H 0.31081 0.81596 0.22633 0.0
H236 H 0.48846 0.82108 0.12384 0.0
H237 H 0.46094 0.81462 0.15965 0.0
H238 H 0.45207 0.67296 0.8912 0.0
H239 H 0.47967 0.67897 0.85631 0.0
Tb240 Tb 0.62775 0.25437 0.99339 0.0
Tb241 Tb 0.66603 0.27281 0.99766 0.0
C242 C 0.64611 0.14341 1.00397 0.0
C243 C 0.58311 0.23328 1.02481 0.0
C244 C 0.55119 0.227 0.06426 0.0
C245 C 0.55682 0.18728 0.98238 0.0
C246 C 0.57259 0.19046 0.96284 0.0
C247 C 0.57757 0.26986 0.11327 0.0
C248 C 0.56175 0.26649 0.13324 0.0
C249 C 0.59893 0.24787 0.97767 0.0
O250 O 0.63348 0.26794 0.18167 0.0
O251 O 0.65917 0.25557 0.18215 0.0
O252 O 0.65856 0.35746 0.05715 0.0
O253 O 0.63709 0.34765 0.94217 0.0
O254 O 0.68642 0.24152 0.04999 0.0
O255 O 0.68701 0.3277 0.95561 0.0
O256 O 0.65985 0.28474 0.81164 0.0
O257 O 0.63468 0.23749 0.812 0.0
O258 O 0.63448 0.16728 0.04855 0.0
O259 O 0.65771 0.1778 0.95184 0.0
C260 C 0.64631 0.2615 0.23786 0.0
O261 O 0.60797 0.29495 1.02119 0.0
O262 O 0.60639 0.20359 0.94475 0.0
C263 C 0.64771 0.38202 1.00377 0.0
C264 C 0.70888 0.27641 0.93541 0.0
C265 C 0.73731 0.25587 0.83724 0.0
C266 C 0.73463 0.31567 0.86559 0.0
C267 C 0.7206 0.32572 0.91428 0.0
C268 C 0.71129 0.21672 0.90382 0.0
C269 C 0.72538 0.20659 0.8552 0.0
C270 C 0.69508 0.28826 1.0015 0.0
C271 C 0.64725 0.26087 0.75541 0.0
H272 H 0.54897 0.1557 0.92916 0.0
H273 H 0.57649 0.16215 0.89334 0.0
H274 H 0.58537 0.30378 0.16185 0.0
H275 H 0.55776 0.29777 0.19674 0.0
H276 H 0.74359 0.35461 0.85441 0.0
H277 H 0.71908 0.37206 0.93912 0.0
H278 H 0.70247 0.17774 0.91917 0.0
H279 H 0.72697 0.16007 0.83275 0.0
Tb280 Tb 0.40974 0.22241 0.99406 0.0
Tb281 Tb 0.37146 0.20392 0.99818 0.0
C282 C 0.39137 0.33333 1.00441 0.0
C283 C 0.45439 0.24366 1.02542 0.0
C284 C 0.48632 0.25006 0.0646 0.0
C285 C 0.48067 0.28976 0.98278 0.0
C286 C 0.46489 0.28652 0.96337 0.0
C287 C 0.45996 0.2071 0.11383 0.0
C288 C 0.47579 0.21053 0.13366 0.0
C289 C 0.43856 0.229 0.97839 0.0
O290 O 0.40402 0.20887 0.18233 0.0
O291 O 0.37833 0.22117 0.18269 0.0
O292 O 0.37894 0.11929 0.05782 0.0
O293 O 0.40042 0.12908 0.94302 0.0
O294 O 0.35108 0.23517 0.05054 0.0
O295 O 0.35049 0.14905 0.95597 0.0
O296 O 0.37764 0.19193 0.81221 0.0
O297 O 0.40281 0.23923 0.81262 0.0
O298 O 0.403 0.30949 0.04911 0.0
O299 O 0.37978 0.29891 0.95219 0.0
C300 C 0.39118 0.21527 0.23847 0.0
O301 O 0.42953 0.18192 1.02203 0.0
O302 O 0.43109 0.27323 0.94534 0.0
C303 C 0.38979 0.09472 1.00452 0.0
C304 C 0.32863 0.20043 0.93561 0.0
C305 C 0.30023 0.22107 0.83718 0.0
C306 C 0.30293 0.16121 0.86471 0.0
C307 C 0.31695 0.15111 0.91355 0.0
C308 C 0.3262 0.2602 0.90479 0.0
C309 C 0.31212 0.27038 0.85605 0.0
C310 C 0.34242 0.18849 1.00186 0.0
C311 C 0.39025 0.21582 0.756 0.0
H312 H 0.48849 0.32137 0.92949 0.0
H313 H 0.46097 0.31481 0.8939 0.0
H314 H 0.45218 0.17315 0.16246 0.0
H315 H 0.47979 0.17926 0.19712 0.0
H316 H 0.294 0.12224 0.85281 0.0
H317 H 0.3185 0.1047 0.93778 0.0
H318 H 0.335 0.2992 0.92086 0.0
H319 H 0.31051 0.31696 0.83423 0.0
C320 C 0.26343 0.2907 0.79965 0.0
C321 C 0.2551 0.25006 0.71803 0.0
H322 H 0.28405 0.3132 0.90183 0.0
C323 C 0.26185 0.20035 0.67446 0.0
H324 H 0.25851 0.32904 0.8361 0.0
C325 C 0.27653 0.19142 0.71177 0.0
C326 C 0.28484 0.23193 0.7937 0.0
H327 H 0.2559 0.16884 0.60978 0.0
H328 H 0.28144 0.15304 0.67537 0.0
C329 C 0.27811 0.28174 0.837 0.0
C330 C 0.75938 0.19494 0.83638 0.0
C331 C 0.7527 0.24504 0.79382 0.0
H332 H 0.77894 0.14742 0.83497 0.0
C333 C 0.76106 0.28586 0.71269 0.0
H334 H 0.7534 0.16323 0.90059 0.0
C335 C 0.77574 0.27694 0.67545 0.0
C336 C 0.78244 0.22693 0.71827 0.0
H337 H 0.75619 0.32447 0.67684 0.0
H338 H 0.78174 0.3087 0.61138 0.0
C339 C 0.77406 0.186 0.79909 0.0
C340 C 0.27835 0.78293 0.22013 0.0
C341 C 0.28481 0.7317 0.25982 0.0
H342 H 0.259 0.83158 0.22397 0.0
C343 C 0.27624 0.69001 0.33835 0.0
H344 H 0.28449 0.81537 0.15794 0.0
C345 C 0.26159 0.69917 0.37582 0.0
C346 C 0.25512 0.75029 0.33584 0.0
H347 H 0.28093 0.6505 0.37199 0.0
H348 H 0.25544 0.66668 0.43786 0.0
C349 C 0.2637 0.7921 0.25765 0.0
C350 C 0.75453 0.7012 0.34168 0.0
C351 C 0.7529 0.74673 0.25649 0.0
H352 H 0.76991 0.6569 0.44776 0.0
C353 C 0.76623 0.7823 0.21076 0.0
H354 H 0.74452 0.67352 0.37992 0.0
C355 C 0.78081 0.77268 0.24939 0.0
C356 C 0.78244 0.72719 0.33465 0.0
H357 H 0.76543 0.81701 0.14339 0.0
H358 H 0.79081 0.80033 0.21099 0.0
C359 C 0.76911 0.69161 0.38038 0.0
C360 C 0.16075 0.98675 0.58273 0.0
C361 C 0.14888 0.94698 0.5274 0.0
H362 H 0.16997 0.07947 0.62586 0.0
C363 C 0.13685 0.97192 0.47212 0.0
H364 H 0.17019 0.96903 0.62608 0.0
C365 C 0.13669 0.0353 0.47219 0.0
C366 C 0.14859 0.07512 0.52728 0.0
H367 H 0.12751 0.94253 0.42885 0.0
H368 H 0.12726 0.05299 0.42872 0.0
C369 C 0.16062 0.05014 0.58255 0.0
C370 C 0.87695 0.42724 0.58208 0.0
C371 C 0.88898 0.40218 0.52703 0.0
H372 H 0.86739 0.50843 0.6252 0.0
C373 C 0.90088 0.44192 0.47186 0.0
H374 H 0.8676 0.39796 0.62542 0.0
C375 C 0.90074 0.50531 0.47153 0.0
C376 C 0.88871 0.53033 0.52661 0.0
H377 H 0.91031 0.42418 0.42854 0.0
H378 H 0.91009 0.53464 0.42822 0.0
C379 C 0.87683 0.49064 0.58199 0.0
C380 C 0.90094 0.942 0.58105 0.0
C381 C 0.88905 0.90223 0.52577 0.0
H382 H 0.91011 0.03474 0.62486 0.0
C383 C 0.87702 0.92724 0.47065 0.0
H384 H 0.91037 0.92429 0.62441 0.0
C385 C 0.87687 -0.00938 0.47082 0.0
C386 C 0.88873 0.03035 0.52634 0.0
H387 H 0.86767 0.89794 0.42722 0.0
H388 H 0.86742 0.00837 0.42757 0.0
C389 C 0.90077 0.00538 0.58146 0.0
C390 C 0.13674 0.53536 0.5817 0.0
C391 C 0.14864 0.57516 0.52669 0.0
H392 H 0.12752 0.44261 0.62489 0.0
C393 C 0.16067 0.55013 0.47145 0.0
H394 H 0.12731 0.55308 0.62514 0.0
C395 C 0.16078 0.48673 0.4712 0.0
C396 C 0.1489 0.44699 0.52643 0.0
H397 H 0.17003 0.57945 0.42821 0.0
H398 H 0.17021 0.46897 0.42786 0.0
C399 C 0.13688 0.47197 0.58169 0.0
C400 C 0.65848 0.54975 0.08804 0.0
C401 C 0.64633 0.57632 0.03841 0.0
H402 H 0.66848 0.46793 0.11589 0.0
C403 C 0.63466 0.53838 0.97677 0.0
H404 H 0.66769 0.57754 0.13596 0.0
C405 C 0.63515 0.4754 0.9648 0.0
C406 C 0.64731 0.4489 1.01445 0.0
H407 H 0.62515 0.55728 0.93715 0.0
H408 H 0.62596 0.4475 0.91692 0.0
C409 C 0.65895 0.4868 0.07635 0.0
C410 C 0.37893 0.92697 0.08837 0.0
C411 C 0.39107 0.90033 0.03883 0.0
H412 H 0.36897 0.00887 0.11628 0.0
C413 C 0.40277 0.93825 0.97738 0.0
H414 H 0.3697 0.8992 0.13614 0.0
C415 C 0.4023 0.00126 0.96554 0.0
C416 C 0.39015 0.02781 1.01511 0.0
H417 H 0.41227 0.9193 0.93784 0.0
H418 H 0.41151 0.02913 0.91781 0.0
C419 C 0.37849 -0.01005 0.07681 0.0
C420 C 0.37895 0.42695 0.96508 0.0
C421 C 0.3911 0.40037 1.01475 0.0
H422 H 0.36897 0.50878 0.93715 0.0
C423 C 0.40278 0.43831 0.0764 0.0
H424 H 0.36974 0.39916 0.91715 0.0
C425 C 0.40228 0.50129 0.08832 0.0
C426 C 0.39013 0.5278 0.03863 0.0
H427 H 0.41228 0.4194 0.11605 0.0
H428 H 0.41148 0.52919 0.13621 0.0
C429 C 0.37849 0.4899 0.97672 0.0
C430 C 0.65849 0.04971 0.96475 0.0
C431 C 0.64635 0.07635 1.01429 0.0
H432 H 0.66845 0.9678 0.93688 0.0
C433 C 0.63465 0.03845 0.07576 0.0
H434 H 0.66772 0.07746 0.91697 0.0
C435 C 0.63511 0.97544 0.08763 0.0
C436 C 0.64726 0.94887 0.03806 0.0
H437 H 0.62515 0.05741 0.11531 0.0
H438 H 0.6259 0.94757 0.13537 0.0
C439 C 0.65893 0.98673 0.97634 0.0
C440 C 0.16261 0.26279 0.08638 0.0
C441 C 0.14871 0.25807 0.14994 0.0
H442 H 0.17359 0.26734 0.91535 0.0
C443 C 0.13486 0.2532 0.08572 0.0
H444 H 0.17349 0.26678 0.13303 0.0
C445 C 0.13492 0.25297 0.96084 0.0
C446 C 0.14883 0.25841 0.89726 0.0
H447 H 0.12395 0.24925 0.13182 0.0
H448 H 0.12404 0.24924 0.91424 0.0
C449 C 0.16268 0.26336 0.96148 0.0
C450 C 0.9027 0.22418 0.08619 0.0
C451 C 0.88886 0.21921 0.15034 0.0
H452 H 0.91353 0.22824 0.91476 0.0
C453 C 0.87496 0.21442 0.08672 0.0
H454 H 0.91362 0.22819 0.13234 0.0
C455 C 0.87489 0.21386 0.96182 0.0
C456 C 0.88874 0.21891 0.89767 0.0
H457 H 0.86407 0.21035 0.13331 0.0
H458 H 0.86398 0.20982 0.91564 0.0
C459 C 0.90265 0.22444 0.96131 0.0
C460 C 0.13497 0.75296 0.09295 0.0
C461 C 0.14888 0.75843 0.15657 0.0
H462 H 0.124 0.74924 0.92193 0.0
C463 C 0.16273 0.76341 0.0924 0.0
H464 H 0.12409 0.7492 0.13951 0.0
C465 C 0.16266 0.76285 0.9675 0.0
C466 C 0.14876 0.75811 0.9039 0.0
H467 H 0.17364 0.76741 0.13857 0.0
H468 H 0.17354 0.76688 0.92089 0.0
C469 C 0.13491 0.7532 0.96807 0.0
C470 C 0.87502 0.71452 0.96621 0.0
C471 C 0.88892 0.71925 0.90264 0.0
H472 H 0.86404 0.70997 0.13726 0.0
C473 C 0.90276 0.72414 0.96685 0.0
H474 H 0.86413 0.71052 0.91958 0.0
C475 C 0.90271 0.72438 0.09172 0.0
C476 C 0.8888 0.71892 0.15531 0.0
H477 H 0.91368 0.72809 0.92073 0.0
H478 H 0.91359 0.72811 0.13831 0.0
C479 C 0.87495 0.71396 0.09111 0.0
C480 C 0.66071 0.77092 0.49508 0.0
C481 C 0.64696 0.76069 0.42962 0.0
H482 H 0.67126 0.77871 0.66752 0.0
C483 C 0.63293 0.75065 0.49197 0.0
H484 H 0.6717 0.77865 0.44995 0.0
C485 C 0.63265 0.75129 0.61689 0.0
C486 C 0.6464 0.76113 0.68234 0.0
H487 H 0.62211 0.74288 0.44431 0.0
H488 H 0.62166 0.74356 0.66207 0.0
C489 C 0.66043 0.77072 0.61995 0.0
C490 C 0.40471 0.7253 0.61737 0.0
C491 C 0.39095 0.71552 0.68277 0.0
H492 H 0.41525 0.73367 0.44481 0.0
C493 C 0.37692 0.70603 0.62033 0.0
H494 H 0.4157 0.73296 0.66258 0.0
C495 C 0.37665 0.70585 0.49546 0.0
C496 C 0.3904 0.71601 0.43004 0.0
H497 H 0.3661 0.6981 0.66786 0.0
H498 H 0.36565 0.6982 0.4503 0.0
C499 C 0.40443 0.72596 0.49244 0.0
C500 C 0.66051 0.27072 0.43272 0.0
C501 C 0.64648 0.2612 0.37027 0.0
H502 H 0.67178 0.27855 0.60276 0.0
C503 C 0.63273 0.2514 0.43567 0.0
H504 H 0.67133 0.27867 0.38519 0.0
C505 C 0.633 0.25072 0.5606 0.0
C506 C 0.64703 0.26069 0.623 0.0
H507 H 0.62173 0.24372 0.39045 0.0
H508 H 0.62218 0.24299 0.60822 0.0
C509 C 0.66078 0.27088 0.55759 0.0
C510 C 0.37699 0.20598 0.43327 0.0
C511 C 0.39102 0.21555 0.37088 0.0
H512 H 0.36572 0.19807 0.60326 0.0
C513 C 0.40477 0.22538 0.43632 0.0
H514 H 0.36616 0.19801 0.3857 0.0
C515 C 0.40449 0.22602 0.56125 0.0
C516 C 0.39046 0.216 0.6236 0.0
H517 H 0.41576 0.2331 0.39115 0.0
H518 H 0.41531 0.23378 0.60891 0.0
C519 C 0.37671 0.20579 0.55814 0.0
C520 C 0.02671 0.23771 0.62246 0.0
C521 C 0.03481 0.23713 0.51432 0.0
H522 H 1.00495 0.23962 0.70728 0.0
C523 C 0.0267 0.23817 0.40631 0.0
H524 H 0.03265 0.23755 0.70717 0.0
C525 C 1.01087 0.23956 0.40637 0.0
C526 C 1.00277 0.24039 0.51445 0.0
H527 H 0.03257 0.23734 0.32148 0.0
H528 H 1.00498 0.24056 0.32159 0.0
C529 C 1.01088 0.23962 0.62253 0.0
C530 C 1.01093 0.73928 0.43083 0.0
C531 C 1.0028 0.73988 0.53887 0.0
H532 H 0.0327 0.73737 0.34628 0.0
C533 C 1.01089 0.73885 0.64698 0.0
H534 H 1.005 0.73943 0.34605 0.0
C535 C 0.02672 0.73746 0.64712 0.0
C536 C 0.03484 0.73662 0.53914 0.0
H537 H 1.005 0.7397 0.73174 0.0
H538 H 0.0326 0.73648 0.73197 0.0
C539 C 0.02675 0.73738 0.43096 0.0
C540 C 0.52649 0.73519 0.87741 0.0
C541 C 0.53443 0.73153 0.98568 0.0
H542 H 0.50495 0.74353 0.79299 0.0
C543 C 0.52644 0.73483 0.09357 0.0
H544 H 0.53236 0.73282 0.79289 0.0
C545 C 0.51093 0.74154 0.09363 0.0
C546 C 0.50292 0.74484 0.9858 0.0
H547 H 0.53225 0.73313 0.17853 0.0
H548 H 0.50513 0.74325 0.17863 0.0
C549 C 0.51083 0.74117 0.87747 0.0
C550 C 0.51099 0.24191 0.9595 0.0
C551 C 0.503 0.24519 0.06741 0.0
H552 H 0.5323 0.23352 0.87441 0.0
C553 C 0.51094 0.24153 0.17567 0.0
H554 H 0.50518 0.24361 0.87455 0.0
C555 C 0.5266 0.23557 0.17559 0.0
C556 C 0.53451 0.23192 0.06724 0.0
H557 H 0.50507 0.24388 0.26019 0.0
H558 H 0.53248 0.2332 0.26005 0.0
C559 C 0.5265 0.23522 0.95942 0.0
loop_
_geom_bond_atom_site_label_1
_geom_bond_atom_site_label_2
_geom_bond_distance
_geom_bond_site_symmetry_2
_ccdc_geom_bond_type
Tb0 C9 2.764 . S
Tb0 O10 2.325 . S
Tb0 O13 2.303 . S
Tb0 O17 2.322 . S
Tb0 O18 2.349 . S
Tb0 O21 2.415 . S
Tb0 O22 2.399 . S
Tb1 O11 2.322 . S
Tb1 O12 2.349 . S
Tb1 O14 2.415 . S
Tb1 O15 2.399 . S
Tb1 O16 2.325 . S
Tb1 O19 2.303 . S
Tb1 C30 2.764 . S
C2 O18 1.261 . S
C2 O19 1.257 . S
C3 C6 1.358 . S
C3 C7 1.332 . S
C3 C9 1.504 . S
C4 C5 1.373 . S
C4 C8 1.308 . S
C5 C4 1.373 . S
C5 C6 1.429 . S
C5 H32 0.932 . S
C6 C3 1.358 . S
C6 C5 1.429 . S
C6 H33 0.930 . S
C7 C3 1.332 . S
C7 C8 1.394 . S
C7 H34 0.932 . S
C8 C4 1.308 . S
C8 C7 1.394 . S
C8 H35 0.929 . S
C9 Tb0 2.764 . S
C9 C3 1.504 . S
C9 O21 1.239 . S
C9 O22 1.263 . S
O10 Tb0 2.325 . S
O10 C20 1.236 . S
O11 Tb1 2.322 . S
O11 C20 1.257 . S
O12 Tb1 2.349 . S
O12 C23 1.261 . S
O13 Tb0 2.303 . S
O13 C23 1.257 . S
O14 Tb1 2.415 . S
O14 C30 1.239 . S
O15 Tb1 2.399 . S
O15 C30 1.263 . S
O16 Tb1 2.325 . S
O16 C31 1.236 . S
O17 Tb0 2.322 . S
O17 C31 1.257 . S
O18 Tb0 2.349 . S
O18 C2 1.261 . S
O19 Tb1 2.303 . S
O19 C2 1.257 . S
C20 O10 1.236 . S
C20 O11 1.257 . S
O21 Tb0 2.415 . S
O21 C9 1.239 . S
O22 Tb0 2.399 . S
O22 C9 1.263 . S
C23 O12 1.261 . S
C23 O13 1.257 . S
C24 C27 1.358 . S
C24 C28 1.332 . S
C24 C30 1.504 . S
C25 C26 1.373 . S
C25 C29 1.308 . S
C26 C25 1.373 . S
C26 C27 1.429 . S
C26 H36 0.932 . S
C27 C24 1.358 . S
C27 C26 1.429 . S
C27 H37 0.930 . S
C28 C24 1.332 . S
C28 C29 1.394 . S
C28 H38 0.932 . S
C29 C25 1.308 . S
C29 C28 1.394 . S
C29 H39 0.929 . S
C30 Tb1 2.764 . S
C30 O14 1.239 . S
C30 O15 1.263 . S
C30 C24 1.504 . S
C31 O16 1.236 . S
C31 O17 1.257 . S
H32 C5 0.932 . S
H33 C6 0.930 . S
H34 C7 0.932 . S
H35 C8 0.929 . S
H36 C26 0.932 . S
H37 C27 0.930 . S
H38 C28 0.932 . S
H39 C29 0.929 . S
Tb40 C49 2.764 . S
Tb40 O50 2.325 . S
Tb40 O53 2.303 . S
Tb40 O57 2.322 . S
Tb40 O58 2.349 . S
Tb40 O61 2.415 . S
Tb40 O62 2.399 . S
Tb41 O51 2.322 . S
Tb41 O52 2.349 . S
Tb41 O54 2.415 . S
Tb41 O55 2.399 . S
Tb41 O56 2.325 . S
Tb41 O59 2.303 . S
Tb41 C70 2.764 . S
C42 O58 1.261 . S
C42 O59 1.257 . S
C43 C46 1.358 . S
C43 C47 1.332 . S
C43 C49 1.504 . S
C44 C45 1.373 . S
C44 C48 1.308 . S
C45 C44 1.373 . S
C45 C46 1.429 . S
C45 H72 0.932 . S
C46 C43 1.358 . S
C46 C45 1.429 . S
C46 H73 0.930 . S
C47 C43 1.332 . S
C47 C48 1.394 . S
C47 H74 0.932 . S
C48 C44 1.308 . S
C48 C47 1.394 . S
C48 H75 0.929 . S
C49 Tb40 2.764 . S
C49 C43 1.504 . S
C49 O61 1.239 . S
C49 O62 1.263 . S
O50 Tb40 2.325 . S
O50 C60 1.236 . S
O51 Tb41 2.322 . S
O51 C60 1.257 . S
O52 Tb41 2.349 . S
O52 C63 1.261 . S
O53 Tb40 2.303 . S
O53 C63 1.257 . S
O54 Tb41 2.415 . S
O54 C70 1.239 . S
O55 Tb41 2.399 . S
O55 C70 1.263 . S
O56 Tb41 2.325 . S
O56 C71 1.236 . S
O57 Tb40 2.322 . S
O57 C71 1.257 . S
O58 Tb40 2.349 . S
O58 C42 1.261 . S
O59 Tb41 2.303 . S
O59 C42 1.257 . S
C60 O50 1.236 . S
C60 O51 1.257 . S
O61 Tb40 2.415 . S
O61 C49 1.239 . S
O62 Tb40 2.399 . S
O62 C49 1.263 . S
C63 O52 1.261 . S
C63 O53 1.257 . S
C64 C67 1.358 . S
C64 C68 1.332 . S
C64 C70 1.504 . S
C65 C66 1.373 . S
C65 C69 1.308 . S
C66 C65 1.373 . S
C66 C67 1.429 . S
C66 H76 0.932 . S
C67 C64 1.358 . S
C67 C66 1.429 . S
C67 H77 0.930 . S
C68 C64 1.332 . S
C68 C69 1.394 . S
C68 H78 0.932 . S
C69 C65 1.308 . S
C69 C68 1.394 . S
C69 H79 0.929 . S
C70 Tb41 2.764 . S
C70 O54 1.239 . S
C70 O55 1.263 . S
C70 C64 1.504 . S
C71 O56 1.236 . S
C71 O57 1.257 . S
H72 C45 0.932 . S
H73 C46 0.930 . S
H74 C47 0.932 . S
H75 C48 0.929 . S
H76 C66 0.932 . S
H77 C67 0.930 . S
H78 C68 0.932 . S
H79 C69 0.929 . S
Tb80 C89 2.764 . S
Tb80 O90 2.325 . S
Tb80 O93 2.303 . S
Tb80 O97 2.322 . S
Tb80 O98 2.349 . S
Tb80 O101 2.415 . S
Tb80 O102 2.399 . S
Tb81 O91 2.322 . S
Tb81 O92 2.349 . S
Tb81 O94 2.415 . S
Tb81 O95 2.399 . S
Tb81 O96 2.325 . S
Tb81 O99 2.303 . S
Tb81 C110 2.764 . S
C82 O98 1.261 . S
C82 O99 1.257 . S
C83 C86 1.358 . S
C83 C87 1.332 . S
C83 C89 1.504 . S
C84 C85 1.373 . S
C84 C88 1.308 . S
C85 C84 1.373 . S
C85 C86 1.429 . S
C85 H112 0.932 . S
C86 C83 1.358 . S
C86 C85 1.429 . S
C86 H113 0.930 . S
C87 C83 1.332 . S
C87 C88 1.394 . S
C87 H114 0.932 . S
C88 C84 1.308 . S
C88 C87 1.394 . S
C88 H115 0.929 . S
C89 Tb80 2.764 . S
C89 C83 1.504 . S
C89 O101 1.239 . S
C89 O102 1.263 . S
O90 Tb80 2.325 . S
O90 C100 1.236 . S
O91 Tb81 2.322 . S
O91 C100 1.257 . S
O92 Tb81 2.349 . S
O92 C103 1.261 . S
O93 Tb80 2.303 . S
O93 C103 1.257 . S
O94 Tb81 2.415 . S
O94 C110 1.239 . S
O95 Tb81 2.399 . S
O95 C110 1.263 . S
O96 Tb81 2.325 . S
O96 C111 1.236 . S
O97 Tb80 2.322 . S
O97 C111 1.257 . S
O98 Tb80 2.349 . S
O98 C82 1.261 . S
O99 Tb81 2.303 . S
O99 C82 1.257 . S
C100 O90 1.236 . S
C100 O91 1.257 . S
O101 Tb80 2.415 . S
O101 C89 1.239 . S
O102 Tb80 2.399 . S
O102 C89 1.263 . S
C103 O92 1.261 . S
C103 O93 1.257 . S
C104 C107 1.358 . S
C104 C108 1.332 . S
C104 C110 1.504 . S
C105 C106 1.373 . S
C105 C109 1.308 . S
C106 C105 1.373 . S
C106 C107 1.429 . S
C106 H116 0.932 . S
C107 C104 1.358 . S
C107 C106 1.429 . S
C107 H117 0.930 . S
C108 C104 1.332 . S
C108 C109 1.394 . S
C108 H118 0.932 . S
C109 C105 1.308 . S
C109 C108 1.394 . S
C109 H119 0.929 . S
C110 Tb81 2.764 . S
C110 O94 1.239 . S
C110 O95 1.263 . S
C110 C104 1.504 . S
C111 O96 1.236 . S
C111 O97 1.257 . S
H112 C85 0.932 . S
H113 C86 0.930 . S
H114 C87 0.932 . S
H115 C88 0.929 . S
H116 C106 0.932 . S
H117 C107 0.930 . S
H118 C108 0.932 . S
H119 C109 0.929 . S
Tb120 C129 2.764 . S
Tb120 O130 2.325 . S
Tb120 O133 2.303 . S
Tb120 O137 2.322 . S
Tb120 O138 2.349 . S
Tb120 O141 2.415 . S
Tb120 O142 2.399 . S
Tb121 O131 2.322 . S
Tb121 O132 2.349 . S
Tb121 O134 2.415 . S
Tb121 O135 2.399 . S
Tb121 O136 2.325 . S
Tb121 O139 2.303 . S
Tb121 C150 2.764 . S
C122 O138 1.261 . S
C122 O139 1.257 . S
C123 C126 1.358 . S
C123 C127 1.332 . S
C123 C129 1.504 . S
C124 C125 1.373 . S
C124 C128 1.308 . S
C125 C124 1.373 . S
C125 C126 1.429 . S
C125 H152 0.932 . S
C126 C123 1.358 . S
C126 C125 1.429 . S
C126 H153 0.930 . S
C127 C123 1.332 . S
C127 C128 1.394 . S
C127 H154 0.932 . S
C128 C124 1.308 . S
C128 C127 1.394 . S
C128 H155 0.929 . S
C129 Tb120 2.764 . S
C129 C123 1.504 . S
C129 O141 1.239 . S
C129 O142 1.263 . S
O130 Tb120 2.325 . S
O130 C140 1.236 . S
O131 Tb121 2.322 . S
O131 C140 1.257 . S
O132 Tb121 2.349 . S
O132 C143 1.261 . S
O133 Tb120 2.303 . S
O133 C143 1.257 . S
O134 Tb121 2.415 . S
O134 C150 1.239 . S
O135 Tb121 2.399 . S
O135 C150 1.263 . S
O136 Tb121 2.325 . S
O136 C151 1.236 . S
O137 Tb120 2.322 . S
O137 C151 1.257 . S
O138 Tb120 2.349 . S
O138 C122 1.261 . S
O139 Tb121 2.303 . S
O139 C122 1.257 . S
C140 O130 1.236 . S
C140 O131 1.257 . S
O141 Tb120 2.415 . S
O141 C129 1.239 . S
O142 Tb120 2.399 . S
O142 C129 1.263 . S
C143 O132 1.261 . S
C143 O133 1.257 . S
C144 C147 1.358 . S
C144 C148 1.332 . S
C144 C150 1.504 . S
C145 C146 1.373 . S
C145 C149 1.308 . S
C146 C145 1.373 . S
C146 C147 1.429 . S
C146 H156 0.932 . S
C147 C144 1.358 . S
C147 C146 1.429 . S
C147 H157 0.930 . S
C148 C144 1.332 . S
C148 C149 1.394 . S
C148 H158 0.932 . S
C149 C145 1.308 . S
C149 C148 1.394 . S
C149 H159 0.929 . S
C150 Tb121 2.764 . S
C150 O134 1.239 . S
C150 O135 1.263 . S
C150 C144 1.504 . S
C151 O136 1.236 . S
C151 O137 1.257 . S
H152 C125 0.932 . S
H153 C126 0.930 . S
H154 C127 0.932 . S
H155 C128 0.929 . S
H156 C146 0.932 . S
H157 C147 0.930 . S
H158 C148 0.932 . S
H159 C149 0.929 . S
Tb160 C169 2.764 1_556 S
Tb160 O170 2.325 1_556 S
Tb160 O173 2.303 . S
Tb160 O177 2.322 . S
Tb160 O178 2.349 . S
Tb160 O181 2.415 1_556 S
Tb160 O182 2.399 1_556 S
Tb161 O171 2.322 . S
Tb161 O172 2.349 . S
Tb161 O174 2.415 1_554 S
Tb161 O175 2.399 1_554 S
Tb161 O176 2.325 1_554 S
Tb161 O179 2.303 . S
Tb161 C190 2.764 1_554 S
C162 O178 1.261 . S
C162 O179 1.257 1_556 S
C163 C166 1.358 . S
C163 C167 1.332 . S
C163 C169 1.504 . S
C164 C165 1.373 . S
C164 C168 1.308 . S
C165 C164 1.373 . S
C165 C166 1.429 . S
C165 H192 0.932 . S
C166 C163 1.358 . S
C166 C165 1.429 . S
C166 H193 0.930 . S
C167 C163 1.332 . S
C167 C168 1.394 . S
C167 H194 0.932 . S
C168 C164 1.308 . S
C168 C167 1.394 . S
C168 H195 0.929 . S
C169 Tb160 2.764 1_554 S
C169 C163 1.504 . S
C169 O181 1.239 . S
C169 O182 1.263 . S
O170 Tb160 2.325 1_554 S
O170 C180 1.236 . S
O171 Tb161 2.322 . S
O171 C180 1.257 . S
O172 Tb161 2.349 . S
O172 C183 1.261 . S
O173 Tb160 2.303 . S
O173 C183 1.257 1_556 S
O174 Tb161 2.415 1_556 S
O174 C190 1.239 . S
O175 Tb161 2.399 1_556 S
O175 C190 1.263 . S
O176 Tb161 2.325 1_556 S
O176 C191 1.236 . S
O177 Tb160 2.322 . S
O177 C191 1.257 . S
O178 Tb160 2.349 . S
O178 C162 1.261 . S
O179 Tb161 2.303 . S
O179 C162 1.257 1_554 S
C180 O170 1.236 . S
C180 O171 1.257 . S
O181 Tb160 2.415 1_554 S
O181 C169 1.239 . S
O182 Tb160 2.399 1_554 S
O182 C169 1.263 . S
C183 O172 1.261 . S
C183 O173 1.257 1_554 S
C184 C187 1.358 . S
C184 C188 1.332 . S
C184 C190 1.504 . S
C185 C186 1.373 . S
C185 C189 1.308 . S
C186 C185 1.373 . S
C186 C187 1.429 . S
C186 H196 0.932 . S
C187 C184 1.358 . S
C187 C186 1.429 . S
C187 H197 0.930 . S
C188 C184 1.332 . S
C188 C189 1.394 . S
C188 H198 0.932 . S
C189 C185 1.308 . S
C189 C188 1.394 . S
C189 H199 0.929 . S
C190 Tb161 2.764 1_556 S
C190 O174 1.239 . S
C190 O175 1.263 . S
C190 C184 1.504 . S
C191 O176 1.236 . S
C191 O177 1.257 . S
H192 C165 0.932 . S
H193 C166 0.930 . S
H194 C167 0.932 . S
H195 C168 0.929 . S
H196 C186 0.932 . S
H197 C187 0.930 . S
H198 C188 0.932 . S
H199 C189 0.929 . S
Tb200 C209 2.764 1_556 S
Tb200 O210 2.325 1_556 S
Tb200 O213 2.303 . S
Tb200 O217 2.322 . S
Tb200 O218 2.349 . S
Tb200 O221 2.415 1_556 S
Tb200 O222 2.399 1_556 S
Tb201 O211 2.322 . S
Tb201 O212 2.349 . S
Tb201 O214 2.415 1_554 S
Tb201 O215 2.399 1_554 S
Tb201 O216 2.325 1_554 S
Tb201 O219 2.303 . S
Tb201 C230 2.764 1_554 S
C202 O218 1.261 . S
C202 O219 1.257 1_556 S
C203 C206 1.358 . S
C203 C207 1.332 . S
C203 C209 1.504 . S
C204 C205 1.373 . S
C204 C208 1.308 . S
C205 C204 1.373 . S
C205 C206 1.429 . S
C205 H232 0.932 . S
C206 C203 1.358 . S
C206 C205 1.429 . S
C206 H233 0.930 . S
C207 C203 1.332 . S
C207 C208 1.394 . S
C207 H234 0.932 . S
C208 C204 1.308 . S
C208 C207 1.394 . S
C208 H235 0.929 . S
C209 Tb200 2.764 1_554 S
C209 C203 1.504 . S
C209 O221 1.239 . S
C209 O222 1.263 . S
O210 Tb200 2.325 1_554 S
O210 C220 1.236 . S
O211 Tb201 2.322 . S
O211 C220 1.257 . S
O212 Tb201 2.349 . S
O212 C223 1.261 . S
O213 Tb200 2.303 . S
O213 C223 1.257 1_556 S
O214 Tb201 2.415 1_556 S
O214 C230 1.239 . S
O215 Tb201 2.399 1_556 S
O215 C230 1.263 . S
O216 Tb201 2.325 1_556 S
O216 C231 1.236 . S
O217 Tb200 2.322 . S
O217 C231 1.257 . S
O218 Tb200 2.349 . S
O218 C202 1.261 . S
O219 Tb201 2.303 . S
O219 C202 1.257 1_554 S
C220 O210 1.236 . S
C220 O211 1.257 . S
O221 Tb200 2.415 1_554 S
O221 C209 1.239 . S
O222 Tb200 2.399 1_554 S
O222 C209 1.263 . S
C223 O212 1.261 . S
C223 O213 1.257 1_554 S
C224 C227 1.358 . S
C224 C228 1.332 . S
C224 C230 1.504 . S
C225 C226 1.373 . S
C225 C229 1.308 . S
C226 C225 1.373 . S
C226 C227 1.429 . S
C226 H236 0.932 . S
C227 C224 1.358 . S
C227 C226 1.429 . S
C227 H237 0.930 . S
C228 C224 1.332 . S
C228 C229 1.394 . S
C228 H238 0.932 . S
C229 C225 1.308 . S
C229 C228 1.394 . S
C229 H239 0.929 . S
C230 Tb201 2.764 1_556 S
C230 O214 1.239 . S
C230 O215 1.263 . S
C230 C224 1.504 . S
C231 O216 1.236 . S
C231 O217 1.257 . S
H232 C205 0.932 . S
H233 C206 0.930 . S
H234 C207 0.932 . S
H235 C208 0.929 . S
H236 C226 0.932 . S
H237 C227 0.930 . S
H238 C228 0.932 . S
H239 C229 0.929 . S
Tb240 C249 2.764 1_556 S
Tb240 O250 2.325 1_556 S
Tb240 O253 2.303 . S
Tb240 O257 2.322 . S
Tb240 O258 2.349 . S
Tb240 O261 2.415 1_556 S
Tb240 O262 2.399 1_556 S
Tb241 O251 2.322 . S
Tb241 O252 2.349 . S
Tb241 O254 2.415 1_554 S
Tb241 O255 2.399 1_554 S
Tb241 O256 2.325 1_554 S
Tb241 O259 2.303 . S
Tb241 C270 2.764 1_554 S
C242 O258 1.261 . S
C242 O259 1.257 1_556 S
C243 C246 1.358 . S
C243 C247 1.332 . S
C243 C249 1.504 . S
C244 C245 1.373 . S
C244 C248 1.308 . S
C245 C244 1.373 . S
C245 C246 1.429 . S
C245 H272 0.932 . S
C246 C243 1.358 . S
C246 C245 1.429 . S
C246 H273 0.930 . S
C247 C243 1.332 . S
C247 C248 1.394 . S
C247 H274 0.932 . S
C248 C244 1.308 . S
C248 C247 1.394 . S
C248 H275 0.929 . S
C249 Tb240 2.764 1_554 S
C249 C243 1.504 . S
C249 O261 1.239 . S
C249 O262 1.263 . S
O250 Tb240 2.325 1_554 S
O250 C260 1.236 . S
O251 Tb241 2.322 . S
O251 C260 1.257 . S
O252 Tb241 2.349 . S
O252 C263 1.261 . S
O253 Tb240 2.303 . S
O253 C263 1.257 1_556 S
O254 Tb241 2.415 1_556 S
O254 C270 1.239 . S
O255 Tb241 2.399 1_556 S
O255 C270 1.263 . S
O256 Tb241 2.325 1_556 S
O256 C271 1.236 . S
O257 Tb240 2.322 . S
O257 C271 1.257 . S
O258 Tb240 2.349 . S
O258 C242 1.261 . S
O259 Tb241 2.303 . S
O259 C242 1.257 1_554 S
C260 O250 1.236 . S
C260 O251 1.257 . S
O261 Tb240 2.415 1_554 S
O261 C249 1.239 . S
O262 Tb240 2.399 1_554 S
O262 C249 1.263 . S
C263 O252 1.261 . S
C263 O253 1.257 1_554 S
C264 C267 1.358 . S
C264 C268 1.332 . S
C264 C270 1.504 . S
C265 C266 1.373 . S
C265 C269 1.308 . S
C266 C265 1.373 . S
C266 C267 1.429 . S
C266 H276 0.932 . S
C267 C264 1.358 . S
C267 C266 1.429 . S
C267 H277 0.930 . S
C268 C264 1.332 . S
C268 C269 1.394 . S
C268 H278 0.932 . S
C269 C265 1.308 . S
C269 C268 1.394 . S
C269 H279 0.929 . S
C270 Tb241 2.764 1_556 S
C270 O254 1.239 . S
C270 O255 1.263 . S
C270 C264 1.504 . S
C271 O256 1.236 . S
C271 O257 1.257 . S
H272 C245 0.932 . S
H273 C246 0.930 . S
H274 C247 0.932 . S
H275 C248 0.929 . S
H276 C266 0.932 . S
H277 C267 0.930 . S
H278 C268 0.932 . S
H279 C269 0.929 . S
Tb280 C289 2.764 1_556 S
Tb280 O290 2.325 1_556 S
Tb280 O293 2.303 . S
Tb280 O297 2.322 . S
Tb280 O298 2.349 . S
Tb280 O301 2.415 1_556 S
Tb280 O302 2.399 1_556 S
Tb281 O291 2.322 . S
Tb281 O292 2.349 . S
Tb281 O294 2.415 1_554 S
Tb281 O295 2.399 1_554 S
Tb281 O296 2.325 1_554 S
Tb281 O299 2.303 . S
Tb281 C310 2.764 1_554 S
C282 O298 1.261 . S
C282 O299 1.257 1_556 S
C283 C286 1.358 . S
C283 C287 1.332 . S
C283 C289 1.504 . S
C284 C285 1.373 . S
C284 C288 1.308 . S
C285 C284 1.373 . S
C285 C286 1.429 . S
C285 H312 0.932 . S
C286 C283 1.358 . S
C286 C285 1.429 . S
C286 H313 0.930 . S
C287 C283 1.332 . S
C287 C288 1.394 . S
C287 H314 0.932 . S
C288 C284 1.308 . S
C288 C287 1.394 . S
C288 H315 0.929 . S
C289 Tb280 2.764 1_554 S
C289 C283 1.504 . S
C289 O301 1.239 . S
C289 O302 1.263 . S
O290 Tb280 2.325 1_554 S
O290 C300 1.236 . S
O291 Tb281 2.322 . S
O291 C300 1.257 . S
O292 Tb281 2.349 . S
O292 C303 1.261 . S
O293 Tb280 2.303 . S
O293 C303 1.257 1_556 S
O294 Tb281 2.415 1_556 S
O294 C310 1.239 . S
O295 Tb281 2.399 1_556 S
O295 C310 1.263 . S
O296 Tb281 2.325 1_556 S
O296 C311 1.236 . S
O297 Tb280 2.322 . S
O297 C311 1.257 . S
O298 Tb280 2.349 . S
O298 C282 1.261 . S
O299 Tb281 2.303 . S
O299 C282 1.257 1_554 S
C300 O290 1.236 . S
C300 O291 1.257 . S
O301 Tb280 2.415 1_554 S
O301 C289 1.239 . S
O302 Tb280 2.399 1_554 S
O302 C289 1.263 . S
C303 O292 1.261 . S
C303 O293 1.257 1_554 S
C304 C307 1.358 . S
C304 C308 1.332 . S
C304 C310 1.504 . S
C305 C306 1.373 . S
C305 C309 1.308 . S
C306 C305 1.373 . S
C306 C307 1.429 . S
C306 H316 0.932 . S
C307 C304 1.358 . S
C307 C306 1.429 . S
C307 H317 0.930 . S
C308 C304 1.332 . S
C308 C309 1.394 . S
C308 H318 0.932 . S
C309 C305 1.308 . S
C309 C308 1.394 . S
C309 H319 0.929 . S
C310 Tb281 2.764 1_556 S
C310 O294 1.239 . S
C310 O295 1.263 . S
C310 C304 1.504 . S
C311 O296 1.236 . S
C311 O297 1.257 . S
H312 C285 0.932 . S
H313 C286 0.930 . S
H314 C287 0.932 . S
H315 C288 0.929 . S
H316 C306 0.932 . S
H317 C307 0.930 . S
H318 C308 0.932 . S
H319 C309 0.929 . S
C320 C321 1.387 . S
C320 H324 0.950 . S
C320 C329 1.390 . S
C321 C320 1.387 . S
C321 C323 1.387 . S
H322 C329 0.950 . S
C323 C321 1.387 . S
C323 C325 1.390 . S
C323 H327 0.950 . S
H324 C320 0.950 . S
C325 C323 1.390 . S
C325 C326 1.387 . S
C325 H328 0.950 . S
C326 C325 1.387 . S
C326 C329 1.387 . S
H327 C323 0.950 . S
H328 C325 0.950 . S
C329 C320 1.390 . S
C329 H322 0.950 . S
C329 C326 1.387 . S
C330 C331 1.387 . S
C330 H334 0.950 . S
C330 C339 1.390 . S
C331 C330 1.387 . S
C331 C333 1.387 . S
H332 C339 0.950 . S
C333 C331 1.387 . S
C333 C335 1.390 . S
C333 H337 0.950 . S
H334 C330 0.950 . S
C335 C333 1.390 . S
C335 C336 1.387 . S
C335 H338 0.950 . S
C336 C335 1.387 . S
C336 C339 1.387 . S
H337 C333 0.950 . S
H338 C335 0.950 . S
C339 C330 1.390 . S
C339 H332 0.950 . S
C339 C336 1.387 . S
C340 C341 1.387 . S
C340 H344 0.950 . S
C340 C349 1.390 . S
C341 C340 1.387 . S
C341 C343 1.387 . S
H342 C349 0.950 . S
C343 C341 1.387 . S
C343 C345 1.390 . S
C343 H347 0.950 . S
H344 C340 0.950 . S
C345 C343 1.390 . S
C345 C346 1.387 . S
C345 H348 0.950 . S
C346 C345 1.387 . S
C346 C349 1.387 . S
H347 C343 0.950 . S
H348 C345 0.950 . S
C349 C340 1.390 . S
C349 H342 0.950 . S
C349 C346 1.387 . S
C350 C351 1.387 . S
C350 H354 0.950 . S
C350 C359 1.390 . S
C351 C350 1.387 . S
C351 C353 1.387 . S
H352 C359 0.950 . S
C353 C351 1.387 . S
C353 C355 1.390 . S
C353 H357 0.950 . S
H354 C350 0.950 . S
C355 C353 1.390 . S
C355 C356 1.387 . S
C355 H358 0.950 . S
C356 C355 1.387 . S
C356 C359 1.387 . S
H357 C353 0.950 . S
H358 C355 0.950 . S
C359 C350 1.390 . S
C359 H352 0.950 . S
C359 C356 1.387 . S
C360 C361 1.387 . S
C360 H364 0.950 . S
C360 C369 1.390 1_565 S
C361 C360 1.387 . S
C361 C363 1.387 . S
H362 C369 0.950 . S
C363 C361 1.387 . S
C363 C365 1.390 1_565 S
C363 H367 0.950 . S
H364 C360 0.950 . S
C365 C363 1.390 1_545 S
C365 C366 1.387 . S
C365 H368 0.950 . S
C366 C365 1.387 . S
C366 C369 1.387 . S
H367 C363 0.950 . S
H368 C365 0.950 . S
C369 C360 1.390 1_545 S
C369 H362 0.950 . S
C369 C366 1.387 . S
C370 C371 1.387 . S
C370 H374 0.950 . S
C370 C379 1.390 . S
C371 C370 1.387 . S
C371 C373 1.387 . S
H372 C379 0.950 . S
C373 C371 1.387 . S
C373 C375 1.390 . S
C373 H377 0.950 . S
H374 C370 0.950 . S
C375 C373 1.390 . S
C375 C376 1.387 . S
C375 H378 0.950 . S
C376 C375 1.387 . S
C376 C379 1.387 . S
H377 C373 0.950 . S
H378 C375 0.950 . S
C379 C370 1.390 . S
C379 H372 0.950 . S
C379 C376 1.387 . S
C380 C381 1.387 . S
C380 H384 0.950 . S
C380 C389 1.390 1_565 S
C381 C380 1.387 . S
C381 C383 1.387 . S
H382 C389 0.950 . S
C383 C381 1.387 . S
C383 C385 1.390 1_565 S
C383 H387 0.950 . S
H384 C380 0.950 . S
C385 C383 1.390 1_545 S
C385 C386 1.387 . S
C385 H388 0.950 . S
C386 C385 1.387 . S
C386 C389 1.387 . S
H387 C383 0.950 . S
H388 C385 0.950 . S
C389 C380 1.390 1_545 S
C389 H382 0.950 . S
C389 C386 1.387 . S
C390 C391 1.387 . S
C390 H394 0.950 . S
C390 C399 1.390 . S
C391 C390 1.387 . S
C391 C393 1.387 . S
H392 C399 0.950 . S
C393 C391 1.387 . S
C393 C395 1.390 . S
C393 H397 0.950 . S
H394 C390 0.950 . S
C395 C393 1.390 . S
C395 C396 1.387 . S
C395 H398 0.950 . S
C396 C395 1.387 . S
C396 C399 1.387 . S
H397 C393 0.950 . S
H398 C395 0.950 . S
C399 C390 1.390 . S
C399 H392 0.950 . S
C399 C396 1.387 . S
C400 C401 1.387 . S
C400 H404 0.950 . S
C400 C409 1.390 . S
C401 C400 1.387 . S
C401 C403 1.387 1_554 S
H402 C409 0.950 . S
C403 C401 1.387 1_556 S
C403 C405 1.390 . S
C403 H407 0.950 . S
H404 C400 0.950 . S
C405 C403 1.390 . S
C405 C406 1.387 1_556 S
C405 H408 0.950 . S
C406 C405 1.387 1_554 S
C406 C409 1.387 . S
H407 C403 0.950 . S
H408 C405 0.950 . S
C409 C400 1.390 . S
C409 H402 0.950 . S
C409 C406 1.387 . S
C410 C411 1.387 . S
C410 H414 0.950 . S
C410 C419 1.390 1_565 S
C411 C410 1.387 . S
C411 C413 1.387 1_554 S
H412 C419 0.950 . S
C413 C411 1.387 1_556 S
C413 C415 1.390 1_565 S
C413 H417 0.950 . S
H414 C410 0.950 . S
C415 C413 1.390 1_545 S
C415 C416 1.387 1_556 S
C415 H418 0.950 . S
C416 C415 1.387 1_554 S
C416 C419 1.387 . S
H417 C413 0.950 . S
H418 C415 0.950 . S
C419 C410 1.390 1_545 S
C419 H412 0.950 . S
C419 C416 1.387 . S
C420 C421 1.387 . S
C420 H424 0.950 . S
C420 C429 1.390 . S
C421 C420 1.387 . S
C421 C423 1.387 1_556 S
H422 C429 0.950 . S
C423 C421 1.387 1_554 S
C423 C425 1.390 . S
C423 H427 0.950 . S
H424 C420 0.950 . S
C425 C423 1.390 . S
C425 C426 1.387 1_554 S
C425 H428 0.950 . S
C426 C425 1.387 1_556 S
C426 C429 1.387 . S
H427 C423 0.950 . S
H428 C425 0.950 . S
C429 C420 1.390 . S
C429 H422 0.950 . S
C429 C426 1.387 . S
C430 C431 1.387 . S
C430 H434 0.950 . S
C430 C439 1.390 1_545 S
C431 C430 1.387 . S
C431 C433 1.387 1_556 S
H432 C439 0.950 . S
C433 C431 1.387 1_554 S
C433 C435 1.390 1_545 S
C433 H437 0.950 . S
H434 C430 0.950 . S
C435 C433 1.390 1_565 S
C435 C436 1.387 1_554 S
C435 H438 0.950 . S
C436 C435 1.387 1_556 S
C436 C439 1.387 . S
H437 C433 0.950 . S
H438 C435 0.950 . S
C439 C430 1.390 1_565 S
C439 H432 0.950 . S
C439 C436 1.387 . S
C440 C441 1.387 . S
C440 H444 0.950 . S
C440 C449 1.390 1_554 S
C441 C440 1.387 . S
C441 C443 1.387 1_554 S
H442 C449 0.950 . S
C443 C441 1.387 1_556 S
C443 C445 1.390 . S
C443 H447 0.950 1_556 S
H444 C440 0.950 . S
C445 C443 1.390 . S
C445 C446 1.387 . S
C445 H448 0.950 . S
C446 C445 1.387 . S
C446 C449 1.387 . S
H447 C443 0.950 1_554 S
H448 C445 0.950 . S
C449 C440 1.390 1_556 S
C449 H442 0.950 . S
C449 C446 1.387 . S
C450 C451 1.387 1_556 S
C450 H454 0.950 1_556 S
C450 C459 1.390 . S
C451 C450 1.387 1_554 S
C451 C453 1.387 1_554 S
H452 C459 0.950 . S
C453 C451 1.387 1_556 S
C453 C455 1.390 . S
C453 H457 0.950 1_556 S
H454 C450 0.950 1_554 S
C455 C453 1.390 . S
C455 C456 1.387 . S
C455 H458 0.950 . S
C456 C455 1.387 . S
C456 C459 1.387 . S
H457 C453 0.950 1_554 S
H458 C455 0.950 . S
C459 C450 1.390 . S
C459 H452 0.950 . S
C459 C456 1.387 . S
C460 C461 1.387 . S
C460 H464 0.950 . S
C460 C469 1.390 . S
C461 C460 1.387 . S
C461 C463 1.387 . S
H462 C469 0.950 1_556 S
C463 C461 1.387 . S
C463 C465 1.390 1_554 S
C463 H467 0.950 . S
H464 C460 0.950 . S
C465 C463 1.390 1_556 S
C465 C466 1.387 . S
C465 H468 0.950 . S
C466 C465 1.387 . S
C466 C469 1.387 1_556 S
H467 C463 0.950 . S
H468 C465 0.950 . S
C469 C460 1.390 . S
C469 H462 0.950 1_554 S
C469 C466 1.387 1_554 S
C470 C471 1.387 . S
C470 H474 0.950 . S
C470 C479 1.390 1_556 S
C471 C470 1.387 . S
C471 C473 1.387 1_556 S
H472 C479 0.950 . S
C473 C471 1.387 1_554 S
C473 C475 1.390 . S
C473 H477 0.950 1_554 S
H474 C470 0.950 . S
C475 C473 1.390 . S
C475 C476 1.387 . S
C475 H478 0.950 . S
C476 C475 1.387 . S
C476 C479 1.387 . S
H477 C473 0.950 1_556 S
H478 C475 0.950 . S
C479 C470 1.390 1_554 S
C479 H472 0.950 . S
C479 C476 1.387 . S
C480 C481 1.387 . S
C480 H484 0.950 . S
C480 C489 1.390 . S
C481 C480 1.387 . S
C481 C483 1.387 . S
H482 C489 0.950 . S
C483 C481 1.387 . S
C483 C485 1.390 . S
C483 H487 0.950 . S
H484 C480 0.950 . S
C485 C483 1.390 . S
C485 C486 1.387 . S
C485 H488 0.950 . S
C486 C485 1.387 . S
C486 C489 1.387 . S
H487 C483 0.950 . S
H488 C485 0.950 . S
C489 C480 1.390 . S
C489 H482 0.950 . S
C489 C486 1.387 . S
C490 C491 1.387 . S
C490 H494 0.950 . S
C490 C499 1.390 . S
C491 C490 1.387 . S
C491 C493 1.387 . S
H492 C499 0.950 . S
C493 C491 1.387 . S
C493 C495 1.390 . S
C493 H497 0.950 . S
H494 C490 0.950 . S
C495 C493 1.390 . S
C495 C496 1.387 . S
C495 H498 0.950 . S
C496 C495 1.387 . S
C496 C499 1.387 . S
H497 C493 0.950 . S
H498 C495 0.950 . S
C499 C490 1.390 . S
C499 H492 0.950 . S
C499 C496 1.387 . S
C500 C501 1.387 . S
C500 H504 0.950 . S
C500 C509 1.390 . S
C501 C500 1.387 . S
C501 C503 1.387 . S
H502 C509 0.950 . S
C503 C501 1.387 . S
C503 C505 1.390 . S
C503 H507 0.950 . S
H504 C500 0.950 . S
C505 C503 1.390 . S
C505 C506 1.387 . S
C505 H508 0.950 . S
C506 C505 1.387 . S
C506 C509 1.387 . S
H507 C503 0.950 . S
H508 C505 0.950 . S
C509 C500 1.390 . S
C509 H502 0.950 . S
C509 C506 1.387 . S
C510 C511 1.387 . S
C510 H514 0.950 . S
C510 C519 1.390 . S
C511 C510 1.387 . S
C511 C513 1.387 . S
H512 C519 0.950 . S
C513 C511 1.387 . S
C513 C515 1.390 . S
C513 H517 0.950 . S
H514 C510 0.950 . S
C515 C513 1.390 . S
C515 C516 1.387 . S
C515 H518 0.950 . S
C516 C515 1.387 . S
C516 C519 1.387 . S
H517 C513 0.950 . S
H518 C515 0.950 . S
C519 C510 1.390 . S
C519 H512 0.950 . S
C519 C516 1.387 . S
C520 C521 1.387 . S
C520 H524 0.950 . S
C520 C529 1.390 1_455 S
C521 C520 1.387 . S
C521 C523 1.387 . S
H522 C529 0.950 . S
C523 C521 1.387 . S
C523 C525 1.390 1_455 S
C523 H527 0.950 . S
H524 C520 0.950 . S
C525 C523 1.390 1_655 S
C525 C526 1.387 . S
C525 H528 0.950 . S
C526 C525 1.387 . S
C526 C529 1.387 . S
H527 C523 0.950 . S
H528 C525 0.950 . S
C529 C520 1.390 1_655 S
C529 H522 0.950 . S
C529 C526 1.387 . S
C530 C531 1.387 . S
C530 H534 0.950 . S
C530 C539 1.390 1_655 S
C531 C530 1.387 . S
C531 C533 1.387 . S
H532 C539 0.950 . S
C533 C531 1.387 . S
C533 C535 1.390 1_655 S
C533 H537 0.950 . S
H534 C530 0.950 . S
C535 C533 1.390 1_455 S
C535 C536 1.387 . S
C535 H538 0.950 . S
C536 C535 1.387 . S
C536 C539 1.387 . S
H537 C533 0.950 . S
H538 C535 0.950 . S
C539 C530 1.390 1_455 S
C539 H532 0.950 . S
C539 C536 1.387 . S
C540 C541 1.387 . S
C540 H544 0.950 . S
C540 C549 1.390 . S
C541 C540 1.387 . S
C541 C543 1.387 . S
H542 C549 0.950 . S
C543 C541 1.387 . S
C543 C545 1.390 . S
C543 H547 0.950 . S
H544 C540 0.950 . S
C545 C543 1.390 . S
C545 C546 1.387 . S
C545 H548 0.950 . S
C546 C545 1.387 . S
C546 C549 1.387 . S
H547 C543 0.950 . S
H548 C545 0.950 . S
C549 C540 1.390 . S
C549 H542 0.950 . S
C549 C546 1.387 . S
C550 C551 1.387 . S
C550 H554 0.950 . S
C550 C559 1.390 . S
C551 C550 1.387 . S
C551 C553 1.387 . S
H552 C559 0.950 . S
C553 C551 1.387 . S
C553 C555 1.390 . S
C553 H557 0.950 . S
H554 C550 0.950 . S
C555 C553 1.390 . S
C555 C556 1.387 . S
C555 H558 0.950 . S
C556 C555 1.387 . S
C556 C559 1.387 . S
H557 C553 0.950 . S
H558 C555 0.950 . S
C559 C550 1.390 . S
C559 H552 0.950 . S
C559 C556 1.387 . S
C321 C4 1.612 . S
C326 C305 1.612 . S
C331 C265 1.612 . S
C336 C44 1.612 . S
C341 C204 1.613 . S
C346 C105 1.613 . S
C351 C164 1.613 . S
C356 C145 1.613 . S
C361 C103 1.562 . S
C366 C23 1.582 . S
C371 C63 1.583 . S
C376 C143 1.562 . S
C381 C122 1.583 . S
C386 C42 1.562 . S
C391 C82 1.583 . S
C396 C2 1.563 . S
C401 C183 1.464 . S
C406 C263 1.464 . S
C411 C223 1.464 . S
C416 C303 1.464 . S
C421 C282 1.460 . S
C426 C202 1.460 . S
C431 C242 1.460 . S
C436 C162 1.460 . S
C441 C31 1.925 . S
C446 C20 1.925 . S
C451 C71 1.925 . S
C456 C60 1.925 . S
C461 C111 1.925 . S
C466 C100 1.925 . S
C471 C140 1.927 . S
C476 C151 1.927 . S
C481 C180 1.927 . S
C486 C191 1.927 . S
C491 C231 1.926 . S
C496 C220 1.926 . S
C501 C260 1.925 . S
C506 C271 1.925 . S
C511 C300 1.925 . S
C516 C311 1.925 . S
C521 C25 2.054 . S
C526 C65 2.054 . S
C531 C124 2.053 . S
C536 C84 2.053 . S
C541 C185 2.054 . S
C546 C225 2.054 . S
C551 C284 2.054 . S
C556 C244 2.054 . S
