# Generated by pormake.
# Topology neb, (4)-cn, num edge types: 1
# Building blocks:
#     Node 0, Type 0, BuildingBlock: QUQFOY_clean_sbu_1, # of connection points: 4
#     Node 1, Type 0, BuildingBlock: QUQFOY_clean_sbu_1, # of connection points: 4
#     Node 2, Type 0, BuildingBlock: QUQFOY_clean_sbu_1, # of connection points: 4
#     Node 3, Type 0, BuildingBlock: QUQFOY_clean_sbu_1, # of connection points: 4
#     Node 4, Type 0, BuildingBlock: QUQFOY_clean_sbu_1, # of connection points: 4
#     Node 5, Type 0, BuildingBlock: QUQFOY_clean_sbu_1, # of connection points: 4
#     Node 6, Type 0, BuildingBlock: QUQFOY_clean_sbu_1, # of connection points: 4
#     Node 7, Type 0, BuildingBlock: QUQFOY_clean_sbu_1, # of connection points: 4
#     Node 8, Type 0, BuildingBlock: QUQFOY_clean_sbu_1, # of connection points: 4
#     Node 9, Type 0, BuildingBlock: QUQFOY_clean_sbu_1, # of connection points: 4
#     Node 10, Type 0, BuildingBlock: QUQFOY_clean_sbu_1, # of connection points: 4
#     Node 11, Type 0, BuildingBlock: QUQFOY_clean_sbu_1, # of connection points: 4
#     Node 12, Type 0, BuildingBlock: QUQFOY_clean_sbu_1, # of connection points: 4
#     Node 13, Type 0, BuildingBlock: QUQFOY_clean_sbu_1, # of connection points: 4
#     Node 14, Type 0, BuildingBlock: QUQFOY_clean_sbu_1, # of connection points: 4
#     Node 15, Type 0, BuildingBlock: QUQFOY_clean_sbu_1, # of connection points: 4
#     Edge 16, Type (0, 0), BuildingBlock: MIFKUJ_clean_linker_0, # of connection points: 2
#     Edge 17, Type (0, 0), BuildingBlock: MIFKUJ_clean_linker_0, # of connection points: 2
#     Edge 18, Type (0, 0), BuildingBlock: MIFKUJ_clean_linker_0, # of connection points: 2
#     Edge 19, Type (0, 0), BuildingBlock: MIFKUJ_clean_linker_0, # of connection points: 2
#     Edge 20, Type (0, 0), BuildingBlock: MIFKUJ_clean_linker_0, # of connection points: 2
#     Edge 21, Type (0, 0), BuildingBlock: MIFKUJ_clean_linker_0, # of connection points: 2
#     Edge 22, Type (0, 0), BuildingBlock: MIFKUJ_clean_linker_0, # of connection points: 2
#     Edge 23, Type (0, 0), BuildingBlock: MIFKUJ_clean_linker_0, # of connection points: 2
#     Edge 24, Type (0, 0), BuildingBlock: MIFKUJ_clean_linker_0, # of connection points: 2
#     Edge 25, Type (0, 0), BuildingBlock: MIFKUJ_clean_linker_0, # of connection points: 2
#     Edge 26, Type (0, 0), BuildingBlock: MIFKUJ_clean_linker_0, # of connection points: 2
#     Edge 27, Type (0, 0), BuildingBlock: MIFKUJ_clean_linker_0, # of connection points: 2
#     Edge 28, Type (0, 0), BuildingBlock: MIFKUJ_clean_linker_0, # of connection points: 2
#     Edge 29, Type (0, 0), BuildingBlock: MIFKUJ_clean_linker_0, # of connection points: 2
#     Edge 30, Type (0, 0), BuildingBlock: MIFKUJ_clean_linker_0, # of connection points: 2
#     Edge 31, Type (0, 0), BuildingBlock: MIFKUJ_clean_linker_0, # of connection points: 2
#     Edge 32, Type (0, 0), BuildingBlock: MIFKUJ_clean_linker_0, # of connection points: 2
#     Edge 33, Type (0, 0), BuildingBlock: MIFKUJ_clean_linker_0, # of connection points: 2
#     Edge 34, Type (0, 0), BuildingBlock: MIFKUJ_clean_linker_0, # of connection points: 2
#     Edge 35, Type (0, 0), BuildingBlock: MIFKUJ_clean_linker_0, # of connection points: 2
#     Edge 36, Type (0, 0), BuildingBlock: MIFKUJ_clean_linker_0, # of connection points: 2
#     Edge 37, Type (0, 0), BuildingBlock: MIFKUJ_clean_linker_0, # of connection points: 2
#     Edge 38, Type (0, 0), BuildingBlock: MIFKUJ_clean_linker_0, # of connection points: 2
#     Edge 39, Type (0, 0), BuildingBlock: MIFKUJ_clean_linker_0, # of connection points: 2
#     Edge 40, Type (0, 0), BuildingBlock: MIFKUJ_clean_linker_0, # of connection points: 2
#     Edge 41, Type (0, 0), BuildingBlock: MIFKUJ_clean_linker_0, # of connection points: 2
#     Edge 42, Type (0, 0), BuildingBlock: MIFKUJ_clean_linker_0, # of connection points: 2
#     Edge 43, Type (0, 0), BuildingBlock: MIFKUJ_clean_linker_0, # of connection points: 2
#     Edge 44, Type (0, 0), BuildingBlock: MIFKUJ_clean_linker_0, # of connection points: 2
#     Edge 45, Type (0, 0), BuildingBlock: MIFKUJ_clean_linker_0, # of connection points: 2
#     Edge 46, Type (0, 0), BuildingBlock: MIFKUJ_clean_linker_0, # of connection points: 2
#     Edge 47, Type (0, 0), BuildingBlock: MIFKUJ_clean_linker_0, # of connection points: 2
# Relax obj value: 0.018
# Max RMSD: 0.097
# Mean RMSD: 0.097
data_MOF--net-neb--node1-QUQFOY_clean_sbu_1--edge1-MIFKUJ_clean_linker_0
_symmetry_space_group_name_H-M    P1
_symmetry_Int_Tables_number       1
_symmetry_cell_setting            triclinic
loop_
_symmetry_equiv_pos_as_xyz
'x, y, z'
_cell_length_a     63.884786
_cell_length_b     28.218241
_cell_length_c     101.63832
_cell_angle_alpha  90.031607
_cell_angle_beta   89.916462
_cell_angle_gamma 89.968837
loop_
_atom_site_label
_atom_site_type_symbol
_atom_site_fract_x
_atom_site_fract_y
_atom_site_fract_z
_atom_type_partial_charge
O0 O 0.1191 0.06172 0.43317 0.0
Cd1 Cd 0.10869 0.1173 0.44459 0.0
Cd2 Cd 0.15215 0.13481 0.44463 0.0
O3 O 0.15332 0.07002 0.43514 0.0
O4 O 0.07876 0.10065 0.44792 0.0
O5 O 0.10211 0.10621 0.46383 0.0
C6 C 0.08316 0.09688 0.46023 0.0
C7 C 0.17764 0.15425 0.46034 0.0
C8 C 0.13759 0.04756 0.4307 0.0
C9 C 0.12327 0.20543 0.43112 0.0
O10 O 0.14175 0.19117 0.43352 0.0
O11 O 0.10753 0.18261 0.43543 0.0
O12 O 0.18206 0.15135 0.448 0.0
O13 O 0.1587 0.14457 0.46391 0.0
O14 O 0.14092 0.05782 0.82586 0.0
Cd15 Cd 0.15201 0.11298 0.81458 0.0
Cd16 Cd 0.10851 0.1337 0.8149 0.0
O17 O 0.1068 0.07012 0.82496 0.0
O18 O 0.18179 0.09437 0.81151 0.0
O19 O 0.15901 0.10223 0.79537 0.0
C20 C 0.17772 0.09151 0.79914 0.0
C21 C 0.08276 0.15342 0.79937 0.0
C22 C 0.12235 0.04586 0.82891 0.0
C23 C 0.13866 0.20267 0.82798 0.0
O24 O 0.11996 0.19029 0.82546 0.0
O25 O 0.15401 0.17794 0.82391 0.0
O26 O 0.07875 0.15225 0.81179 0.0
O27 O 0.10141 0.14177 0.79564 0.0
O28 O 0.89278 0.9397 0.57552 0.0
Cd29 Cd 0.90279 0.88356 0.56415 0.0
Cd30 Cd 0.85932 0.86787 0.56419 0.0
O31 O 0.85854 0.93345 0.57324 0.0
O32 O 0.9328 0.89921 0.56075 0.0
O33 O 0.90934 0.89421 0.54489 0.0
C34 C 0.92835 0.90304 0.54845 0.0
C35 C 0.83379 0.84782 0.54855 0.0
C36 C 0.87442 0.95508 0.57778 0.0
C37 C 0.88763 0.79698 0.57804 0.0
O38 O 0.86928 0.81227 0.57573 0.0
O39 O 0.90353 0.81836 0.5734 0.0
O40 O 0.82931 0.85215 0.56085 0.0
O41 O 0.85282 0.85641 0.54497 0.0
O42 O 0.86858 0.93484 0.18327 0.0
Cd43 Cd 0.85803 0.88041 0.19504 0.0
Cd44 Cd 0.90148 0.86215 0.19516 0.0
O45 O 0.90278 0.92592 0.18518 0.0
O46 O 0.82822 0.89795 0.19842 0.0
O47 O 0.85171 0.89258 0.21426 0.0
C48 C 0.83276 0.9021 0.21071 0.0
C49 C 0.92752 0.84312 0.21057 0.0
C50 C 0.8871 0.9483 0.18062 0.0
C51 C 0.87223 0.79105 0.18208 0.0
O52 O 0.89074 0.80506 0.18448 0.0
O53 O 0.85655 0.81457 0.18619 0.0
O54 O 0.93141 0.84483 0.19815 0.0
O55 O 0.90882 0.85393 0.21439 0.0
O56 O 0.12002 0.5592 0.93363 0.0
Cd57 Cd 0.10988 0.61436 0.94534 0.0
Cd58 Cd 0.15326 0.63037 0.9454 0.0
O59 O 0.15426 0.56561 0.93594 0.0
O60 O 0.07992 0.59816 0.94869 0.0
O61 O 0.10341 0.60257 0.96455 0.0
C62 C 0.0844 0.59382 0.96098 0.0
C63 C 0.1789 0.65016 0.96098 0.0
C64 C 0.13842 0.54423 0.93125 0.0
C65 C 0.1248 0.70185 0.93188 0.0
O66 O 0.14316 0.68651 0.93412 0.0
O67 O 0.10892 0.68014 0.93642 0.0
O68 O 0.18321 0.64681 0.94864 0.0
O69 O 0.16 0.64054 0.96464 0.0
O70 O 0.14228 0.56021 0.32514 0.0
Cd71 Cd 0.15327 0.61583 0.31398 0.0
Cd72 Cd 0.10978 0.63508 0.31376 0.0
O73 O 0.10814 0.57076 0.32344 0.0
O74 O 0.18316 0.59821 0.31091 0.0
O75 O 0.16033 0.60563 0.29477 0.0
C76 C 0.17911 0.59542 0.29853 0.0
C77 C 0.08393 0.65529 0.29833 0.0
C78 C 0.12367 0.54725 0.32774 0.0
C79 C 0.1391 0.70419 0.32757 0.0
O80 O 0.12058 0.69113 0.32482 0.0
O81 O 0.15476 0.6805 0.3235 0.0
O82 O 0.07993 0.65304 0.31073 0.0
O83 O 0.10264 0.64449 0.29453 0.0
O84 O 0.89303 0.43495 0.07633 0.0
Cd85 Cd 0.90362 0.3803 0.06464 0.0
Cd86 Cd 0.86017 0.36167 0.06457 0.0
O87 O 0.85885 0.42551 0.07453 0.0
O88 O 0.93348 0.39759 0.06136 0.0
O89 O 0.91014 0.39227 0.04544 0.0
C90 C 0.92907 0.40166 0.04906 0.0
C91 C 0.83431 0.34284 0.04903 0.0
C92 C 0.87449 0.4482 0.07902 0.0
C93 C 0.88947 0.29087 0.07766 0.0
O94 O 0.87091 0.30459 0.07524 0.0
O95 O 0.90509 0.31461 0.07356 0.0
O96 O 0.83022 0.34489 0.06142 0.0
O97 O 0.85311 0.35309 0.0453 0.0
O98 O 0.87073 0.44167 0.68417 0.0
Cd99 Cd 0.85974 0.38549 0.6951 0.0
Cd100 Cd 0.90314 0.36587 0.69502 0.0
O101 O 0.90487 0.43023 0.68535 0.0
O102 O 0.82992 0.40347 0.69827 0.0
O103 O 0.85271 0.39455 0.71437 0.0
C104 C 0.83398 0.40542 0.71066 0.0
C105 C 0.92867 0.34541 0.71062 0.0
C106 C 0.8893 0.45431 0.68135 0.0
C107 C 0.8736 0.29746 0.68116 0.0
O108 O 0.89218 0.31003 0.68395 0.0
O109 O 0.85805 0.32139 0.68529 0.0
O110 O 0.9329 0.34759 0.69825 0.0
O111 O 0.90991 0.35642 0.71429 0.0
O112 O 0.61947 0.06172 0.93386 0.0
Cd113 Cd 0.60941 0.11694 0.94554 0.0
Cd114 Cd 0.65282 0.13264 0.9457 0.0
O115 O 0.65369 0.06766 0.93632 0.0
O116 O 0.57942 0.10081 0.94878 0.0
O117 O 0.60273 0.10545 0.96473 0.0
C118 C 0.58376 0.09658 0.96109 0.0
C119 C 0.67849 0.1521 0.96131 0.0
C120 C 0.63784 0.0465 0.93156 0.0
C121 C 0.62455 0.20407 0.932 0.0
O122 O 0.64289 0.18877 0.93434 0.0
O123 O 0.60862 0.18245 0.9365 0.0
O124 O 0.68284 0.1484 0.94898 0.0
O125 O 0.65951 0.14316 0.96494 0.0
O126 O 0.6428 0.06124 0.32686 0.0
Cd127 Cd 0.65316 0.11621 0.3152 0.0
Cd128 Cd 0.60988 0.13293 0.31483 0.0
O129 O 0.60863 0.06824 0.32433 0.0
O130 O 0.68306 0.09949 0.3118 0.0
O131 O 0.65953 0.10459 0.29597 0.0
C132 C 0.67853 0.09543 0.2995 0.0
C133 C 0.58444 0.15267 0.29911 0.0
C134 C 0.62433 0.0466 0.32912 0.0
C135 C 0.63831 0.20415 0.3285 0.0
O136 O 0.61993 0.18925 0.32608 0.0
O137 O 0.6542 0.18191 0.32416 0.0
O138 O 0.57999 0.14956 0.31144 0.0
O139 O 0.60338 0.14287 0.29555 0.0
O140 O 0.3916 0.94103 0.07545 0.0
Cd141 Cd 0.40201 0.88468 0.06429 0.0
Cd142 Cd 0.35848 0.86803 0.06439 0.0
O143 O 0.35736 0.93354 0.07343 0.0
O144 O 0.43199 0.90111 0.06112 0.0
O145 O 0.40895 0.89477 0.04506 0.0
C146 C 0.42783 0.90431 0.04876 0.0
C147 C 0.33299 0.847 0.04884 0.0
C148 C 0.37317 0.95586 0.0778 0.0
C149 C 0.38717 0.79805 0.0783 0.0
O150 O 0.36877 0.81285 0.07594 0.0
O151 O 0.403 0.81975 0.07369 0.0
O152 O 0.32859 0.85098 0.06115 0.0
O153 O 0.35189 0.8566 0.04518 0.0
O154 O 0.37006 0.93999 0.68454 0.0
Cd155 Cd 0.35997 0.88323 0.69563 0.0
Cd156 Cd 0.40339 0.867 0.69525 0.0
O157 O 0.40433 0.93293 0.68645 0.0
O158 O 0.32995 0.89928 0.69884 0.0
O159 O 0.35298 0.89265 0.71489 0.0
C160 C 0.33409 0.90214 0.7112 0.0
C161 C 0.42873 0.84604 0.71089 0.0
C162 C 0.38841 0.95515 0.68217 0.0
C163 C 0.37481 0.79744 0.68115 0.0
O164 O 0.39323 0.81227 0.68344 0.0
O165 O 0.35903 0.8187 0.68601 0.0
O166 O 0.4333 0.85044 0.69861 0.0
O167 O 0.40971 0.85498 0.71445 0.0
O168 O 0.61938 0.56069 0.43445 0.0
Cd169 Cd 0.6086 0.61598 0.44582 0.0
Cd170 Cd 0.65209 0.63606 0.44555 0.0
O171 O 0.65352 0.57216 0.43559 0.0
O172 O 0.57875 0.59834 0.44903 0.0
O173 O 0.60182 0.60522 0.46505 0.0
C174 C 0.58298 0.59521 0.46138 0.0
C175 C 0.67798 0.65529 0.46103 0.0
C176 C 0.63794 0.54831 0.43151 0.0
C177 C 0.62225 0.7054 0.43241 0.0
O178 O 0.64093 0.69283 0.43492 0.0
O179 O 0.60685 0.68089 0.43647 0.0
O180 O 0.68201 0.65331 0.44863 0.0
O181 O 0.65922 0.64483 0.4648 0.0
O182 O 0.64129 0.55626 0.82523 0.0
Cd183 Cd 0.65244 0.61317 0.8147 0.0
Cd184 Cd 0.60895 0.63395 0.81492 0.0
O185 O 0.60722 0.56915 0.82437 0.0
O186 O 0.68227 0.59519 0.81154 0.0
O187 O 0.65961 0.6053 0.79542 0.0
C188 C 0.6783 0.59404 0.79913 0.0
C189 C 0.58339 0.65465 0.79938 0.0
C190 C 0.62267 0.54408 0.82808 0.0
C191 C 0.63877 0.70133 0.82885 0.0
O192 O 0.62011 0.68965 0.82599 0.0
O193 O 0.65417 0.67668 0.8248 0.0
O194 O 0.57916 0.65209 0.81174 0.0
O195 O 0.60218 0.64401 0.79569 0.0
O196 O 0.38951 0.44263 0.57551 0.0
Cd197 Cd 0.40087 0.38604 0.56485 0.0
Cd198 Cd 0.35745 0.36486 0.56491 0.0
O199 O 0.35547 0.42955 0.57438 0.0
O200 O 0.43072 0.40399 0.56176 0.0
O201 O 0.40806 0.39475 0.5456 0.0
C202 C 0.42676 0.40566 0.54936 0.0
C203 C 0.33204 0.34391 0.5493 0.0
C204 C 0.37082 0.4546 0.57826 0.0
C205 C 0.38728 0.29774 0.57891 0.0
O206 O 0.36862 0.30953 0.57608 0.0
O207 O 0.40267 0.32222 0.5748 0.0
O208 O 0.32772 0.34647 0.56165 0.0
O209 O 0.35083 0.35462 0.54566 0.0
O210 O 0.37218 0.44149 0.18426 0.0
Cd211 Cd 0.36144 0.38524 0.19528 0.0
Cd212 Cd 0.40487 0.36603 0.19492 0.0
O213 O 0.40636 0.43057 0.18535 0.0
O214 O 0.33153 0.40259 0.19841 0.0
O215 O 0.35437 0.39478 0.21453 0.0
C216 C 0.33559 0.40504 0.2108 0.0
C217 C 0.43045 0.34557 0.21047 0.0
C218 C 0.3907 0.45442 0.1814 0.0
C219 C 0.37535 0.29748 0.18118 0.0
O220 O 0.39396 0.31041 0.18376 0.0
O221 O 0.35983 0.32096 0.18554 0.0
O222 O 0.43469 0.34819 0.19811 0.0
O223 O 0.41165 0.35611 0.21416 0.0
H224 H 0.29101 0.32393 0.55425 0.0
H225 H 0.26503 0.29178 0.53913 0.0
H226 H 0.31069 0.29261 0.50782 0.0
H227 H 0.3368 0.32569 0.52291 0.0
H228 H 0.27332 0.32319 0.49919 0.0
H229 H 0.29796 0.18974 0.52396 0.0
H230 H 0.30639 0.14453 0.54402 0.0
H231 H 0.24198 0.15043 0.55605 0.0
H232 H 0.23321 0.19627 0.53613 0.0
H233 H 0.2188 0.17314 0.45548 0.0
H234 H 0.2448 0.20494 0.47065 0.0
H235 H 0.19898 0.20508 0.50186 0.0
H236 H 0.17283 0.17243 0.48672 0.0
H237 H 0.23642 0.17395 0.51054 0.0
H238 H 0.21181 0.30742 0.48576 0.0
H239 H 0.20339 0.3526 0.46569 0.0
H240 H 0.2678 0.34657 0.45367 0.0
H241 H 0.27655 0.30077 0.47359 0.0
C242 C 0.29555 0.31753 0.54413 0.0
C243 C 0.31604 0.32717 0.53981 0.0
C244 C 0.28068 0.29887 0.53551 0.0
C245 C 0.28599 0.28893 0.52239 0.0
C246 C 0.30626 0.29977 0.51792 0.0
C247 C 0.32117 0.31865 0.52656 0.0
C248 C 0.27039 0.267 0.51339 0.0
C249 C 0.26548 0.2902 0.50159 0.0
C250 C 0.25975 0.22452 0.51665 0.0
C251 C 0.26497 0.19683 0.52861 0.0
C252 C 0.28562 0.18172 0.53093 0.0
C253 C 0.29046 0.15592 0.54226 0.0
C254 C 0.27474 0.14472 0.55132 0.0
C255 C 0.25414 0.15919 0.54903 0.0
C256 C 0.24923 0.18504 0.53772 0.0
C257 C 0.21423 0.17964 0.46559 0.0
C258 C 0.19368 0.17045 0.46987 0.0
C259 C 0.22912 0.1981 0.47424 0.0
C260 C 0.22377 0.20824 0.48734 0.0
C261 C 0.20344 0.19776 0.49177 0.0
C262 C 0.18851 0.17912 0.48311 0.0
C263 C 0.23937 0.23014 0.49634 0.0
C264 C 0.24427 0.20693 0.50814 0.0
C265 C 0.25001 0.27261 0.49308 0.0
C266 C 0.24479 0.30027 0.48111 0.0
C267 C 0.22415 0.31541 0.47879 0.0
C268 C 0.21932 0.34118 0.46745 0.0
C269 C 0.23504 0.35234 0.4584 0.0
C270 C 0.25563 0.33785 0.46068 0.0
C271 C 0.26054 0.31202 0.472 0.0
H272 H 0.23127 0.37231 0.44962 0.0
H273 H 0.27852 0.12474 0.56009 0.0
H274 H 0.92333 0.92526 0.52234 0.0
H275 H 0.94964 0.9579 0.50732 0.0
H276 H 0.99602 0.9504 0.53806 0.0
H277 H 0.9698 0.91871 0.55315 0.0
H278 H 0.99785 0.03372 0.52624 0.0
H279 H 0.99555 0.87143 0.51199 0.0
H280 H 0.97874 0.79805 0.50413 0.0
H281 H 0.95687 0.8707 0.46967 0.0
H282 H 0.97333 0.94471 0.47741 0.0
H283 H 0.08817 0.07449 0.48632 0.0
H284 H 0.06188 0.04157 0.50131 0.0
H285 H 0.01557 0.04866 0.47052 0.0
H286 H 0.04178 0.08061 0.45546 0.0
H287 H 0.01369 0.96553 0.48236 0.0
H288 H 0.01594 0.1278 0.4966 0.0
H289 H 0.03271 0.20125 0.50444 0.0
H290 H 0.05461 0.12876 0.53891 0.0
H291 H 0.0382 0.05468 0.53119 0.0
C292 C 0.93918 0.93015 0.52586 0.0
C293 C 0.94445 0.91933 0.53894 0.0
C294 C 0.95423 0.94874 0.51725 0.0
C295 C 0.97489 0.95638 0.52152 0.0
C296 C 0.9802 0.94498 0.53453 0.0
C297 C 0.96518 0.92664 0.54314 0.0
C298 C 0.99088 0.97744 0.5126 0.0
C299 C 1.00151 0.01841 0.51672 0.0
C300 C 0.99534 0.95822 0.50004 0.0
C301 C 0.9855 0.91372 0.49534 0.0
C302 C 0.98702 0.87185 0.50278 0.0
C303 C 0.97758 0.83013 0.49834 0.0
C304 C 0.9667 0.82975 0.48643 0.0
C305 C 0.96528 0.87106 0.47891 0.0
C306 C 0.97468 0.9129 0.48331 0.0
C307 C 0.07234 0.06943 0.48279 0.0
C308 C 0.06708 0.08024 0.4697 0.0
C309 C 0.0573 0.05068 0.49138 0.0
C310 C 0.03667 0.04288 0.48708 0.0
C311 C 0.03137 0.05421 0.47406 0.0
C312 C 0.04639 0.07269 0.46548 0.0
C313 C 0.02068 0.02181 0.496 0.0
C314 C 0.01004 0.98084 0.49189 0.0
C315 C 0.0162 0.04104 0.50856 0.0
C316 C 0.02602 0.08558 0.51325 0.0
C317 C 0.02447 0.12743 0.5058 0.0
C318 C 0.03388 0.16919 0.51024 0.0
C319 C 0.04476 0.16964 0.52215 0.0
C320 C 0.0462 0.12835 0.52968 0.0
C321 C 0.03683 0.08647 0.52528 0.0
H322 H 0.05204 0.20201 0.52557 0.0
H323 H 0.9594 0.79741 0.48301 0.0
H324 H 0.29335 0.92368 0.7059 0.0
H325 H 0.26702 0.95537 0.72092 0.0
H326 H 0.31144 0.94978 0.7528 0.0
H327 H 0.33796 0.91742 0.73779 0.0
H328 H 0.27295 0.91922 0.76048 0.0
H329 H 0.30074 0.05403 0.73772 0.0
H330 H 0.31096 0.10135 0.71836 0.0
H331 H 0.24726 0.10187 0.70494 0.0
H332 H 0.2367 0.05396 0.72413 0.0
H333 H 0.21823 0.06821 0.80457 0.0
H334 H 0.24447 0.03579 0.78962 0.0
H335 H 0.20028 0.04267 0.75763 0.0
H336 H 0.17388 0.07585 0.77257 0.0
H337 H 0.23867 0.07246 0.75 0.0
H338 H 0.21084 0.93774 0.77277 0.0
H339 H 0.2006 0.89036 0.79211 0.0
H340 H 0.26431 0.88956 0.80552 0.0
H341 H 0.27488 0.93753 0.78634 0.0
C342 C 0.29754 0.92888 0.71612 0.0
C343 C 0.31782 0.91821 0.72063 0.0
C344 C 0.28247 0.94726 0.72469 0.0
C345 C 0.28735 0.95572 0.73794 0.0
C346 C 0.30737 0.94374 0.74259 0.0
C347 C 0.3225 0.92528 0.73401 0.0
C348 C 0.27157 0.9775 0.74686 0.0
C349 C 0.26567 0.95304 0.75829 0.0
C350 C 0.26168 0.02112 0.74384 0.0
C351 C 0.26797 0.05001 0.7323 0.0
C352 C 0.28894 0.0639 0.73058 0.0
C353 C 0.29479 0.09089 0.71965 0.0
C354 C 0.27978 0.1045 0.71041 0.0
C355 C 0.25888 0.09124 0.7121 0.0
C356 C 0.25295 0.06421 0.72301 0.0
C357 C 0.21407 0.06308 0.79434 0.0
C358 C 0.19389 0.07445 0.78978 0.0
C359 C 0.22909 0.04427 0.78582 0.0
C360 C 0.22426 0.03601 0.77255 0.0
C361 C 0.20433 0.04852 0.76785 0.0
C362 C 0.18925 0.06745 0.7764 0.0
C363 C 0.24004 0.01417 0.76363 0.0
C364 C 0.24594 0.03863 0.7522 0.0
C365 C 0.24992 0.97054 0.76665 0.0
C366 C 0.24361 0.94163 0.77818 0.0
C367 C 0.22264 0.92779 0.7799 0.0
C368 C 0.21678 0.90077 0.79082 0.0
C369 C 0.23178 0.88707 0.80006 0.0
C370 C 0.2527 0.90026 0.79837 0.0
C371 C 0.25863 0.92733 0.78747 0.0
H372 H 0.22722 0.86613 0.80851 0.0
H373 H 0.28434 0.12541 0.70195 0.0
H374 H 0.04279 0.18121 0.80483 0.0
H375 H 0.01681 0.21311 0.78969 0.0
H376 H 0.05994 0.19513 0.75738 0.0
H377 H 0.0863 0.16378 0.77259 0.0
H378 H 0.04175 0.28081 0.75656 0.0
H379 H 0.01772 0.12088 0.76145 0.0
H380 H 0.00682 0.04943 0.77361 0.0
H381 H 0.95613 0.1269 0.79122 0.0
H382 H 0.9669 0.19902 0.77929 0.0
H383 H 0.96866 0.31763 0.70524 0.0
H384 H 0.99454 0.28553 0.72041 0.0
H385 H 0.95117 0.30284 0.75263 0.0
H386 H 0.9249 0.33435 0.73738 0.0
H387 H 0.96946 0.21756 0.75353 0.0
H388 H 0.99343 0.37745 0.74867 0.0
H389 H 1.00432 0.44901 0.73655 0.0
H390 H 0.05509 0.37181 0.71895 0.0
H391 H 0.04434 0.29958 0.73083 0.0
C392 C 0.04675 0.18363 0.79449 0.0
C393 C 0.06664 0.16978 0.78992 0.0
C394 C 0.03181 0.20177 0.78583 0.0
C395 C 0.0363 0.2061 0.77236 0.0
C396 C 0.0561 0.19206 0.76773 0.0
C397 C 0.07112 0.17394 0.77642 0.0
C398 C 0.02052 0.22662 0.76323 0.0
C399 C 0.02604 0.26651 0.75574 0.0
C400 C 0.99982 0.20886 0.76243 0.0
C401 C 0.99324 0.16547 0.76957 0.0
C402 C 1.00435 0.12278 0.76799 0.0
C403 C 0.99817 0.08214 0.77483 0.0
C404 C 0.98082 0.08365 0.78321 0.0
C405 C 0.96958 0.12579 0.78474 0.0
C406 C 0.9757 0.16655 0.77793 0.0
C407 C 0.96462 0.31501 0.71557 0.0
C408 C 0.9447 0.32874 0.7201 0.0
C409 C 0.97951 0.29675 0.72425 0.0
C410 C 0.97493 0.29223 0.7377 0.0
C411 C 0.95508 0.30609 0.74229 0.0
C412 C 0.94011 0.32428 0.73358 0.0
C413 C 0.9907 0.27174 0.74686 0.0
C414 C 0.98517 0.23186 0.75435 0.0
C415 C 0.01139 0.28953 0.74766 0.0
C416 C 0.01796 0.33299 0.74055 0.0
C417 C 0.00683 0.37564 0.74214 0.0
C418 C 0.01299 0.41634 0.73533 0.0
C419 C 0.03035 0.41493 0.72696 0.0
C420 C 0.04163 0.37284 0.72542 0.0
C421 C 0.03552 0.33202 0.73221 0.0
H422 H 0.0351 0.44648 0.72169 0.0
H423 H 0.97607 0.05216 0.7885 0.0
H424 H 0.83887 0.82421 0.52253 0.0
H425 H 0.81251 0.79141 0.5076 0.0
H426 H 0.76601 0.80127 0.53831 0.0
H427 H 0.79227 0.83311 0.5533 0.0
H428 H 0.76386 0.71751 0.52674 0.0
H429 H 0.76707 0.8792 0.51196 0.0
H430 H 0.78436 0.95166 0.50385 0.0
H431 H 0.80595 0.87664 0.46965 0.0
H432 H 0.78901 0.80353 0.47765 0.0
H433 H 0.67335 0.67736 0.48718 0.0
H434 H 0.69989 0.70975 0.50204 0.0
H435 H 0.74589 0.70173 0.47099 0.0
H436 H 0.71939 0.6705 0.45605 0.0
H437 H 0.74844 0.78434 0.48269 0.0
H438 H 0.74525 0.62274 0.49738 0.0
H439 H 0.72809 0.55008 0.50546 0.0
H440 H 0.70666 0.62453 0.53979 0.0
H441 H 0.72347 0.69783 0.53183 0.0
C442 C 0.82299 0.81979 0.52606 0.0
C443 C 0.81769 0.83134 0.5391 0.0
C444 C 0.80791 0.80111 0.51751 0.0
C445 C 0.7872 0.7941 0.5218 0.0
C446 C 0.78186 0.80619 0.53477 0.0
C447 C 0.79691 0.82462 0.54332 0.0
C448 C 0.77116 0.77303 0.51294 0.0
C449 C 0.7603 0.73251 0.51718 0.0
C450 C 0.76683 0.79182 0.50032 0.0
C451 C 0.77695 0.83578 0.49547 0.0
C452 C 0.77564 0.87806 0.50276 0.0
C453 C 0.78535 0.91927 0.49817 0.0
C454 C 0.79629 0.91872 0.48626 0.0
C455 C 0.79749 0.87699 0.47889 0.0
C456 C 0.78782 0.83568 0.48343 0.0
C457 C 0.68917 0.68207 0.48357 0.0
C458 C 0.69425 0.67129 0.47044 0.0
C459 C 0.70436 0.70051 0.49208 0.0
C460 C 0.72498 0.70792 0.48767 0.0
C461 C 0.7301 0.6965 0.47462 0.0
C462 C 0.71493 0.67843 0.4661 0.0
C463 C 0.74113 0.72881 0.4965 0.0
C464 C 0.75201 0.7693 0.49225 0.0
C465 C 0.7455 0.70996 0.50911 0.0
C466 C 0.73545 0.66588 0.51394 0.0
C467 C 0.73675 0.6237 0.50661 0.0
C468 C 0.72711 0.58239 0.51117 0.0
C469 C 0.71625 0.58272 0.52312 0.0
C470 C 0.71506 0.62434 0.53054 0.0
C471 C 0.72465 0.66577 0.52601 0.0
H472 H 0.70879 0.5507 0.52664 0.0
H473 H 0.8038 0.95066 0.48272 0.0
H474 H 0.67354 0.07529 0.27325 0.0
H475 H 0.69977 0.04282 0.2581 0.0
H476 H 0.74571 0.04438 0.28915 0.0
H477 H 0.71976 0.07723 0.30426 0.0
H478 H 0.76244 0.07526 0.26654 0.0
H479 H 0.72117 0.942 0.28042 0.0
H480 H 0.68869 0.89653 0.28395 0.0
H481 H 0.67623 0.89905 0.24245 0.0
H482 H 0.70851 0.94511 0.23869 0.0
H483 H 0.83779 0.92257 0.23694 0.0
H484 H 0.81161 0.95538 0.25207 0.0
H485 H 0.76568 0.95395 0.22101 0.0
H486 H 0.79158 0.9208 0.20592 0.0
H487 H 0.74895 0.92303 0.24363 0.0
H488 H 0.79024 0.05624 0.22975 0.0
H489 H 0.82273 0.10169 0.22622 0.0
H490 H 0.83516 0.09924 0.26772 0.0
H491 H 0.80287 0.05319 0.27148 0.0
C492 C 0.68927 0.06905 0.27682 0.0
C493 C 0.69453 0.0787 0.28998 0.0
C494 C 0.70422 0.05024 0.26817 0.0
C495 C 0.72465 0.04057 0.27254 0.0
C496 C 0.73005 0.05144 0.28556 0.0
C497 C 0.71515 0.07014 0.2942 0.0
C498 C 0.74039 0.01851 0.26363 0.0
C499 C 0.75958 0.04169 0.26165 0.0
C500 C 0.73655 0.97513 0.25706 0.0
C501 C 0.71714 0.94744 0.25929 0.0
C502 C 0.71141 0.9332 0.27206 0.0
C503 C 0.69306 0.90725 0.2741 0.0
C504 C 0.68038 0.89502 0.26344 0.0
C505 C 0.68605 0.90862 0.2507 0.0
C506 C 0.70438 0.93461 0.24861 0.0
C507 C 0.82207 0.92893 0.23337 0.0
C508 C 0.81681 0.91921 0.22021 0.0
C509 C 0.80715 0.94794 0.242 0.0
C510 C 0.78673 0.9577 0.23763 0.0
C511 C 0.78132 0.94682 0.22461 0.0
C512 C 0.7962 0.92793 0.21598 0.0
C513 C 0.77099 0.97979 0.24653 0.0
C514 C 0.75181 0.9566 0.24851 0.0
C515 C 0.77484 0.02316 0.25311 0.0
C516 C 0.79426 0.05084 0.25088 0.0
C517 C 0.79999 0.06505 0.23811 0.0
C518 C 0.81835 0.09098 0.23607 0.0
C519 C 0.83103 0.10322 0.24673 0.0
C520 C 0.82534 0.08966 0.25947 0.0
C521 C 0.80701 0.06367 0.26156 0.0
H522 H 0.84523 0.12332 0.24513 0.0
H523 H 0.66618 0.87492 0.26504 0.0
H524 H 0.9674 0.81543 0.20482 0.0
H525 H 0.99367 0.78362 0.2198 0.0
H526 H 0.95107 0.80123 0.25239 0.0
H527 H 0.92457 0.83353 0.23741 0.0
H528 H 0.99089 0.82934 0.25861 0.0
H529 H 0.95837 0.69332 0.23923 0.0
H530 H 0.94569 0.64276 0.22113 0.0
H531 H 0.00833 0.6301 0.20615 0.0
H532 H 0.02135 0.68118 0.22407 0.0
H533 H 0.04408 0.68329 0.30405 0.0
H534 H 0.01787 0.71528 0.28906 0.0
H535 H 0.06057 0.69785 0.25651 0.0
H536 H 0.087 0.66536 0.2715 0.0
H537 H 0.02072 0.66965 0.25026 0.0
H538 H 0.05321 0.80571 0.26967 0.0
H539 H 0.06584 0.85628 0.28778 0.0
H540 H 1.00317 0.8688 0.30272 0.0
H541 H 0.9902 0.81771 0.28479 0.0
C542 C 0.96359 0.81285 0.21519 0.0
C543 C 0.94382 0.82687 0.21991 0.0
C544 C 0.97863 0.7944 0.22373 0.0
C545 C 0.97424 0.78935 0.23718 0.0
C546 C 0.95476 0.80462 0.24203 0.0
C547 C 0.93963 0.82304 0.23346 0.0
C548 C 0.98998 0.76774 0.24612 0.0
C549 C 0.99719 0.79415 0.2569 0.0
C550 C 0.99858 0.72226 0.2437 0.0
C551 C 0.99081 0.69148 0.23292 0.0
C552 C 0.96942 0.68009 0.23202 0.0
C553 C 0.96217 0.65128 0.2218 0.0
C554 C 0.97619 0.63334 0.21248 0.0
C555 C 0.99749 0.64408 0.21337 0.0
C556 C 1.00481 0.67293 0.22356 0.0
C557 C 0.04792 0.68597 0.29369 0.0
C558 C 0.0677 0.67192 0.28898 0.0
C559 C 0.03292 0.70452 0.28514 0.0
C560 C 0.03735 0.70963 0.27169 0.0
C561 C 0.05685 0.6944 0.26687 0.0
C562 C 0.07194 0.67588 0.27544 0.0
C563 C 0.02163 0.73125 0.26274 0.0
C564 C 0.01442 0.70484 0.25197 0.0
C565 C 0.01302 0.77672 0.26517 0.0
C566 C 0.02077 0.80748 0.27596 0.0
C567 C 0.04214 0.81891 0.27688 0.0
C568 C 0.04936 0.84773 0.2871 0.0
C569 C 0.03532 0.86564 0.29641 0.0
C570 C 0.01403 0.85485 0.29551 0.0
C571 C 0.00673 0.82599 0.28531 0.0
H572 H 0.04094 0.88796 0.30432 0.0
H573 H 0.97054 0.61102 0.20458 0.0
H574 H 0.2926 0.82232 0.05421 0.0
H575 H 0.26676 0.78875 0.03923 0.0
H576 H 0.31105 0.79781 0.00727 0.0
H577 H 0.3371 0.83192 0.02224 0.0
H578 H 0.27188 0.8262 0.99981 0.0
H579 H 0.3021 0.69301 0.02201 0.0
H580 H 0.31335 0.64596 0.04118 0.0
H581 H 0.24986 0.63955 0.05499 0.0
H582 H 0.23827 0.68718 0.03599 0.0
H583 H 0.21935 0.67428 0.95563 0.0
H584 H 0.24527 0.70743 0.97063 0.0
H585 H 0.201 0.69837 1.0026 0.0
H586 H 0.17488 0.66467 0.98761 0.0
H587 H 0.24018 0.66993 0.01005 0.0
H588 H 0.20996 0.80318 0.98787 0.0
H589 H 0.1987 0.85027 0.96872 0.0
H590 H 0.26217 0.85662 0.95487 0.0
H591 H 0.27377 0.80896 0.97386 0.0
C592 C 0.29687 0.81748 0.04398 0.0
C593 C 0.31698 0.82964 0.03944 0.0
C594 C 0.28208 0.79803 0.03544 0.0
C595 C 0.28706 0.79006 0.02217 0.0
C596 C 0.3069 0.80346 0.01749 0.0
C597 C 0.32177 0.82291 0.02606 0.0
C598 C 0.27158 0.76733 0.01327 0.0
C599 C 0.26517 0.79173 1.00195 0.0
C600 C 0.26244 0.72284 0.01623 0.0
C601 C 0.26935 0.69407 0.02765 0.0
C602 C 0.29056 0.68191 0.02919 0.0
C603 C 0.29699 0.65507 0.04002 0.0
C604 C 0.28234 0.63988 0.04932 0.0
C605 C 0.2612 0.6514 0.04779 0.0
C606 C 0.25469 0.67828 0.03699 0.0
C607 C 0.21511 0.679 0.96587 0.0
C608 C 0.19498 0.667 0.9704 0.0
C609 C 0.22995 0.69821 0.97442 0.0
C610 C 0.22498 0.7061 0.98769 0.0
C611 C 0.20514 0.69278 0.99238 0.0
C612 C 0.19022 0.67356 0.9838 0.0
C613 C 0.24048 0.7288 0.99659 0.0
C614 C 0.24689 0.7044 0.00792 0.0
C615 C 0.24962 0.7733 0.99364 0.0
C616 C 0.2427 0.80209 0.98222 0.0
C617 C 0.22149 0.81428 0.98069 0.0
C618 C 0.21505 0.84114 0.96987 0.0
C619 C 0.2297 0.85632 0.96057 0.0
C620 C 0.25083 0.84478 0.96208 0.0
C621 C 0.25735 0.81787 0.97287 0.0
H622 H 0.22468 0.87712 0.9522 0.0
H623 H 0.28735 0.6191 0.05769 0.0
H624 H 0.08938 0.57161 0.9871 0.0
H625 H 0.06298 0.53921 1.00213 0.0
H626 H 0.01685 0.54527 0.97123 0.0
H627 H 0.04298 0.57797 0.95624 0.0
H628 H 1.00062 0.57542 0.99416 0.0
H629 H 0.04035 0.44129 0.97915 0.0
H630 H 0.07229 0.39436 0.97511 0.0
H631 H 0.08527 0.39236 0.01655 0.0
H632 H 0.05353 0.43988 0.02081 0.0
H633 H 0.92413 0.42385 0.02294 0.0
H634 H 0.95051 0.45647 0.00793 0.0
H635 H 0.99655 0.45097 0.03889 0.0
H636 H 0.97042 0.41811 0.05386 0.0
H637 H 0.01282 0.42055 0.01593 0.0
H638 H 0.97304 0.55465 0.03094 0.0
H639 H 0.94108 0.60153 0.03495 0.0
H640 H 0.92816 0.60346 0.99351 0.0
H641 H 0.95992 0.556 0.98926 0.0
C642 C 0.07357 0.56639 0.98354 0.0
C643 C 0.06832 0.57722 0.97045 0.0
C644 C 0.05853 0.54762 0.99212 0.0
C645 C 0.03798 0.53924 0.98775 0.0
C646 C 0.03259 0.55132 0.97481 0.0
C647 C 0.04759 0.56994 0.96624 0.0
C648 C 0.02212 0.51726 0.99657 0.0
C649 C 1.00319 0.54129 0.9988 0.0
C650 C 0.0256 0.47312 1.00282 0.0
C651 C 0.04469 0.44458 1.00028 0.0
C652 C 0.05011 0.4312 0.98739 0.0
C653 C 0.06816 0.40442 0.98506 0.0
C654 C 0.08084 0.39051 0.99557 0.0
C655 C 0.07546 0.40324 0.00842 0.0
C656 C 0.05743 0.43007 0.0108 0.0
C657 C 0.93991 0.42927 0.02652 0.0
C658 C 0.94514 0.41853 0.03961 0.0
C659 C 0.95495 0.44815 0.01795 0.0
C660 C 0.97546 0.45672 0.02234 0.0
C661 C 0.98083 0.44477 0.03529 0.0
C662 C 0.96583 0.42606 0.04385 0.0
C663 C 0.99133 0.47871 0.01353 0.0
C664 C 0.01025 0.45468 0.0113 0.0
C665 C 0.98784 0.52284 0.00728 0.0
C666 C 0.96874 0.55134 0.0098 0.0
C667 C 0.96329 0.56472 0.02269 0.0
C668 C 0.94523 0.59146 0.025 0.0
C669 C 0.93256 0.60534 0.01449 0.0
C670 C 0.93796 0.59261 1.00164 0.0
C671 C 0.956 0.56582 0.99928 0.0
H672 H 0.91859 0.62606 0.0163 0.0
H673 H 0.0948 0.36976 0.99375 0.0
H674 H 0.33981 0.42381 0.23718 0.0
H675 H 0.31322 0.45593 0.25212 0.0
H676 H 0.26806 0.45508 0.2206 0.0
H677 H 0.29456 0.42389 0.20561 0.0
H678 H 0.26656 0.53687 0.23332 0.0
H679 H 0.26668 0.37258 0.2457 0.0
H680 H 0.28243 0.29722 0.25296 0.0
H681 H 0.30351 0.36357 0.28859 0.0
H682 H 0.28812 0.43953 0.28146 0.0
H683 H 0.17492 0.57635 0.27217 0.0
H684 H 0.20151 0.54409 0.25726 0.0
H685 H 0.24662 0.54503 0.2888 0.0
H686 H 0.22011 0.57636 0.30377 0.0
H687 H 0.24817 0.46323 0.27609 0.0
H688 H 0.24804 0.6275 0.26371 0.0
H689 H 0.2323 0.70287 0.25645 0.0
H690 H 0.21125 0.63658 0.22081 0.0
H691 H 0.22664 0.56061 0.22794 0.0
C692 C 0.32417 0.43009 0.23347 0.0
C693 C 0.31931 0.42123 0.2202 0.0
C694 C 0.30896 0.44837 0.24203 0.0
C695 C 0.28856 0.45769 0.23752 0.0
C696 C 0.28367 0.44833 0.22431 0.0
C697 C 0.29885 0.43028 0.21576 0.0
C698 C 0.27241 0.47831 0.24641 0.0
C699 C 0.26235 0.5204 0.24259 0.0
C700 C 0.26722 0.45752 0.25866 0.0
C701 C 0.27643 0.41185 0.26298 0.0
C702 C 0.27482 0.37119 0.25504 0.0
C703 C 0.28365 0.32835 0.25914 0.0
C704 C 0.29402 0.32564 0.27121 0.0
C705 C 0.29551 0.36574 0.27923 0.0
C706 C 0.28671 0.40868 0.27517 0.0
C707 C 0.19054 0.57005 0.27589 0.0
C708 C 0.19538 0.57899 0.28916 0.0
C709 C 0.20576 0.55169 0.26735 0.0
C710 C 0.22615 0.54238 0.27188 0.0
C711 C 0.23102 0.55178 0.28508 0.0
C712 C 0.21583 0.56991 0.29362 0.0
C713 C 0.24231 0.52177 0.263 0.0
C714 C 0.25239 0.4797 0.26681 0.0
C715 C 0.24751 0.54257 0.25075 0.0
C716 C 0.23831 0.58825 0.24642 0.0
C717 C 0.23992 0.6289 0.25437 0.0
C718 C 0.23109 0.67175 0.25027 0.0
C719 C 0.22073 0.67448 0.2382 0.0
C720 C 0.21925 0.63439 0.23017 0.0
C721 C 0.22804 0.59144 0.23423 0.0
H722 H 0.21391 0.70769 0.23504 0.0
H723 H 0.30085 0.29244 0.27437 0.0
H724 H 0.67384 0.17225 0.98759 0.0
H725 H 0.70028 0.20454 1.00257 0.0
H726 H 0.7459 0.20207 0.97125 0.0
H727 H 0.71974 0.16942 0.95632 0.0
H728 H 0.76285 0.17144 0.99378 0.0
H729 H 0.72157 0.3048 0.98001 0.0
H730 H 0.68911 0.35052 0.97662 0.0
H731 H 0.67712 0.34882 0.0182 0.0
H732 H 0.70938 0.30251 0.02182 0.0
H733 H 0.83873 0.32384 0.02266 0.0
H734 H 0.81222 0.29173 0.0077 0.0
H735 H 0.76688 0.29273 0.03919 0.0
H736 H 0.79313 0.32508 0.05412 0.0
H737 H 0.74979 0.32414 0.01659 0.0
H738 H 0.79111 0.19079 0.03035 0.0
H739 H 0.8236 0.1452 0.03372 0.0
H740 H 0.83555 0.14704 0.99214 0.0
H741 H 0.80326 0.19323 0.98854 0.0
C742 C 0.68954 0.17822 0.98393 0.0
C743 C 0.69464 0.16841 0.97074 0.0
C744 C 0.70462 0.19693 0.99248 0.0
C745 C 0.72502 0.20633 0.98799 0.0
C746 C 0.73027 0.19523 0.97494 0.0
C747 C 0.71525 0.17663 0.9664 0.0
C748 C 0.74089 0.2284 0.99677 0.0
C749 C 0.76008 0.20511 0.99865 0.0
C750 C 0.73717 0.27193 1.00331 0.0
C751 C 0.71777 0.29975 1.00116 0.0
C752 C 0.71192 0.31383 0.98842 0.0
C753 C 0.69358 0.33992 0.98646 0.0
C754 C 0.68103 0.35245 0.99718 0.0
C755 C 0.68684 0.33902 0.0099 0.0
C756 C 0.70515 0.31288 0.01191 0.0
C757 C 0.82307 0.31761 0.02636 0.0
C758 C 0.81808 0.32686 0.0396 0.0
C759 C 0.80796 0.29901 0.01782 0.0
C760 C 0.78761 0.28924 0.02237 0.0
C761 C 0.78246 0.29986 0.03546 0.0
C762 C 0.79753 0.31828 0.044 0.0
C763 C 0.77174 0.26719 0.0136 0.0
C764 C 0.75255 0.29048 0.01173 0.0
C765 C 0.77547 0.22368 0.00705 0.0
C766 C 0.79489 0.19591 0.00919 0.0
C767 C 0.80076 0.18182 0.02194 0.0
C768 C 0.81912 0.1558 0.02389 0.0
C769 C 0.83167 0.14335 0.01315 0.0
C770 C 0.82584 0.15678 1.00044 0.0
C771 C 0.8075 0.18286 0.99844 0.0
H772 H 0.84587 0.12318 0.01468 0.0
H773 H 0.66684 0.37266 0.99565 0.0
H774 H 0.71866 0.56923 0.80447 0.0
H775 H 0.74488 0.53805 0.78932 0.0
H776 H 0.7012 0.55108 0.7572 0.0
H777 H 0.67463 0.58182 0.77241 0.0
H778 H 0.72049 0.46617 0.75682 0.0
H779 H 0.74229 0.62804 0.76044 0.0
H780 H 0.75231 0.70144 0.77199 0.0
H781 H 0.80433 0.62953 0.78976 0.0
H782 H 0.79444 0.55548 0.77845 0.0
H783 H 0.79365 0.43038 0.70529 0.0
H784 H 0.76746 0.4619 0.7204 0.0
H785 H 0.81115 0.44937 0.75253 0.0
H786 H 0.83771 0.41833 0.73735 0.0
H787 H 0.79184 0.5341 0.75289 0.0
H788 H 0.77003 0.37223 0.74931 0.0
H789 H 0.76001 0.29878 0.73777 0.0
H790 H 0.70801 0.37064 0.71996 0.0
H791 H 0.7179 0.44473 0.73125 0.0
C792 C 0.71462 0.56588 0.79417 0.0
C793 C 0.69453 0.57816 0.78965 0.0
C794 C 0.7297 0.54815 0.7855 0.0
C795 C 0.72511 0.54262 0.77208 0.0
C796 C 0.70511 0.55511 0.7675 0.0
C797 C 0.68997 0.57288 0.7762 0.0
C798 C 0.74104 0.52243 0.76297 0.0
C799 C 0.73598 0.48147 0.7558 0.0
C800 C 0.76147 0.54156 0.76191 0.0
C801 C 0.7675 0.58609 0.76869 0.0
C802 C 0.75577 0.62777 0.76689 0.0
C803 C 0.76144 0.66952 0.77338 0.0
C804 C 0.77891 0.67012 0.78163 0.0
C805 C 0.79078 0.629 0.78338 0.0
C806 C 0.78516 0.58715 0.77692 0.0
C807 C 0.7977 0.43393 0.71559 0.0
C808 C 0.81779 0.42168 0.72011 0.0
C809 C 0.78264 0.45185 0.72424 0.0
C810 C 0.78723 0.45759 0.73764 0.0
C811 C 0.80724 0.44518 0.74223 0.0
C812 C 0.82237 0.42724 0.73356 0.0
C813 C 0.77129 0.47784 0.74674 0.0
C814 C 0.77635 0.51881 0.7539 0.0
C815 C 0.75086 0.45871 0.7478 0.0
C816 C 0.74482 0.41415 0.74103 0.0
C817 C 0.75655 0.37247 0.74285 0.0
C818 C 0.75088 0.3307 0.73637 0.0
C819 C 0.73342 0.33008 0.72812 0.0
C820 C 0.72155 0.37119 0.72635 0.0
C821 C 0.72717 0.41307 0.7328 0.0
H822 H 0.72905 0.29771 0.72311 0.0
H823 H 0.78328 0.70247 0.78665 0.0
H824 H 0.58808 0.07817 0.98749 0.0
H825 H 0.56162 0.04574 1.00247 0.0
H826 H 0.51667 0.04376 0.97084 0.0
H827 H 0.54282 0.0767 0.95592 0.0
H828 H 0.49887 0.07502 0.99293 0.0
H829 H 0.54203 0.9426 0.98057 0.0
H830 H 0.5751 0.8985 0.97788 0.0
H831 H 0.58574 0.90527 0.01954 0.0
H832 H 0.55285 0.94999 0.02246 0.0
H833 H 0.42367 0.92205 0.02232 0.0
H834 H 0.45019 0.95434 0.00737 0.0
H835 H 0.49497 0.95696 0.03908 0.0
H836 H 0.46875 0.92424 0.05399 0.0
H837 H 0.51287 0.92538 0.01697 0.0
H838 H 0.46973 0.05776 0.02934 0.0
H839 H 0.43666 0.10186 0.03205 0.0
H840 H 0.426 0.09517 0.99039 0.0
H841 H 0.45888 0.05046 0.98745 0.0
C842 C 0.57251 0.07116 0.98376 0.0
C843 C 0.5676 0.07988 0.9705 0.0
C844 C 0.55743 0.05236 0.99231 0.0
C845 C 0.53721 0.04168 0.98774 0.0
C846 C 0.53215 0.0516 0.9746 0.0
C847 C 0.54717 0.07037 0.96607 0.0
C848 C 0.52134 0.01961 0.99654 0.0
C849 C 0.50185 0.042 0.99806 0.0
C850 C 0.52532 0.97697 1.00344 0.0
C851 C 0.54509 0.95007 1.00171 0.0
C852 C 0.55151 0.93502 0.98914 0.0
C853 C 0.5702 0.90985 0.98758 0.0
C854 C 0.58254 0.89921 0.99853 0.0
C855 C 0.57618 0.91361 0.01107 0.0
C856 C 0.55751 0.93883 0.01268 0.0
C857 C 0.43921 0.92915 0.02608 0.0
C858 C 0.44405 0.92071 0.03936 0.0
C859 C 0.45433 0.94787 0.01754 0.0
C860 C 0.47452 0.9587 0.02214 0.0
C861 C 0.47952 0.94901 0.0353 0.0
C862 C 0.46446 0.93035 0.04383 0.0
C863 C 0.4904 0.98078 0.01336 0.0
C864 C 0.50989 0.9584 0.01184 0.0
C865 C 0.48642 0.02342 0.00646 0.0
C866 C 0.46665 0.05033 0.0082 0.0
C867 C 0.46024 0.06536 0.02077 0.0
C868 C 0.44155 0.09053 0.02234 0.0
C869 C 0.4292 0.10119 0.0114 0.0
C870 C 0.43556 0.08682 0.99886 0.0
C871 C 0.45423 0.06159 0.99723 0.0
H872 H 0.41474 0.1207 0.01264 0.0
H873 H 0.59701 0.87971 0.9973 0.0
H874 H 0.47105 0.32222 0.20522 0.0
H875 H 0.49702 0.28968 0.22028 0.0
H876 H 0.45239 0.29724 0.2521 0.0
H877 H 0.42625 0.3305 0.23705 0.0
H878 H 0.4909 0.3264 0.25987 0.0
H879 H 0.46263 0.19232 0.23699 0.0
H880 H 0.45241 0.14524 0.21759 0.0
H881 H 0.51628 0.14282 0.20439 0.0
H882 H 0.52685 0.19048 0.22363 0.0
H883 H 0.54375 0.17561 0.30418 0.0
H884 H 0.51796 0.20834 0.28903 0.0
H885 H 0.56297 0.20137 0.25742 0.0
H886 H 0.58896 0.168 0.27256 0.0
H887 H 0.5244 0.17206 0.2495 0.0
H888 H 0.55271 0.30586 0.27242 0.0
H889 H 0.56296 0.3528 0.29184 0.0
H890 H 0.49906 0.3557 0.30497 0.0
H891 H 0.48846 0.30818 0.28572 0.0
C892 C 0.46673 0.31726 0.21543 0.0
C893 C 0.44651 0.32878 0.21991 0.0
C894 C 0.4816 0.29838 0.22402 0.0
C895 C 0.47657 0.29024 0.23728 0.0
C896 C 0.4566 0.30301 0.24189 0.0
C897 C 0.44167 0.32198 0.23328 0.0
C898 C 0.49212 0.26803 0.24624 0.0
C899 C 0.498 0.29234 0.2577 0.0
C900 C 0.50179 0.2241 0.24325 0.0
C901 C 0.49549 0.19537 0.23168 0.0
C902 C 0.47447 0.18208 0.22989 0.0
C903 C 0.46862 0.15523 0.21894 0.0
C904 C 0.48367 0.14115 0.20975 0.0
C905 C 0.50463 0.1538 0.21151 0.0
C906 C 0.51056 0.1807 0.22244 0.0
C907 C 0.54819 0.18072 0.29399 0.0
C908 C 0.56848 0.16936 0.28959 0.0
C909 C 0.53342 0.19971 0.28535 0.0
C910 C 0.53862 0.20808 0.27213 0.0
C911 C 0.55865 0.19543 0.2676 0.0
C912 C 0.57348 0.17638 0.27626 0.0
C913 C 0.52316 0.23041 0.26313 0.0
C914 C 0.5173 0.20613 0.25167 0.0
C915 C 0.51351 0.27436 0.26612 0.0
C916 C 0.51983 0.30306 0.27769 0.0
C917 C 0.54086 0.31618 0.2795 0.0
C918 C 0.54673 0.34295 0.29047 0.0
C919 C 0.53168 0.35712 0.29965 0.0
C920 C 0.51071 0.34465 0.29786 0.0
C921 C 0.50476 0.31783 0.28692 0.0
H922 H 0.53625 0.37785 0.30814 0.0
H923 H 0.47911 0.12035 0.20127 0.0
H924 H 0.46983 0.82653 0.70596 0.0
H925 H 0.4958 0.79412 0.72105 0.0
H926 H 0.45004 0.79388 0.75229 0.0
H927 H 0.4239 0.82703 0.73723 0.0
H928 H 0.4877 0.82513 0.76088 0.0
H929 H 0.4626 0.69177 0.73624 0.0
H930 H 0.45392 0.64658 0.71621 0.0
H931 H 0.51823 0.65167 0.70397 0.0
H932 H 0.52726 0.69748 0.72385 0.0
H933 H 0.54243 0.67498 0.80446 0.0
H934 H 0.51636 0.70722 0.78941 0.0
H935 H 0.56174 0.70563 0.75795 0.0
H936 H 0.58794 0.67249 0.77296 0.0
H937 H 0.52421 0.67532 0.74947 0.0
H938 H 0.54938 0.80871 0.77402 0.0
H939 H 0.55815 0.85417 0.79399 0.0
H940 H 0.49388 0.84938 0.80633 0.0
H941 H 0.48476 0.8033 0.78651 0.0
C942 C 0.46526 0.81985 0.71605 0.0
C943 C 0.44473 0.82918 0.72037 0.0
C944 C 0.48013 0.80106 0.72466 0.0
C945 C 0.47479 0.79078 0.73775 0.0
C946 C 0.45448 0.80132 0.74221 0.0
C947 C 0.43956 0.82023 0.73359 0.0
C948 C 0.4904 0.76875 0.74671 0.0
C949 C 0.49547 0.79202 0.75848 0.0
C950 C 0.50093 0.72612 0.74342 0.0
C951 C 0.49556 0.69845 0.73148 0.0
C952 C 0.47486 0.68358 0.72923 0.0
C953 C 0.46988 0.65779 0.71791 0.0
C954 C 0.4855 0.64637 0.70881 0.0
C955 C 0.50615 0.6606 0.71102 0.0
C956 C 0.5112 0.68644 0.72232 0.0
C957 C 0.54689 0.68122 0.79432 0.0
C958 C 0.56733 0.67136 0.78993 0.0
C959 C 0.53196 0.69993 0.78574 0.0
C960 C 0.53717 0.70969 0.7726 0.0
C961 C 0.55739 0.69861 0.76807 0.0
C962 C 0.57235 0.67969 0.77666 0.0
C963 C 0.52152 0.7317 0.76365 0.0
C964 C 0.51645 0.70842 0.75188 0.0
C965 C 0.511 0.77435 0.76693 0.0
C966 C 0.51643 0.80216 0.77884 0.0
C967 C 0.53714 0.81703 0.78104 0.0
C968 C 0.54217 0.84296 0.79233 0.0
C969 C 0.52659 0.85455 0.80144 0.0
C970 C 0.50593 0.84032 0.79927 0.0
C971 C 0.50083 0.81433 0.78801 0.0
H972 H 0.53052 0.87464 0.81017 0.0
H973 H 0.48162 0.62639 0.70005 0.0
H974 H 0.42239 0.42539 0.52305 0.0
H975 H 0.44897 0.45733 0.50811 0.0
H976 H 0.49446 0.454 0.53943 0.0
H977 H 0.46793 0.42316 0.55445 0.0
H978 H 0.49656 0.53571 0.52705 0.0
H979 H 0.49488 0.37227 0.51381 0.0
H980 H 0.47839 0.29809 0.50627 0.0
H981 H 0.4572 0.36765 0.47116 0.0
H982 H 0.47334 0.44244 0.47857 0.0
H983 H 0.58763 0.57446 0.48761 0.0
H984 H 0.56117 0.54216 0.50259 0.0
H985 H 0.5154 0.54639 0.47144 0.0
H986 H 0.54177 0.5777 0.4564 0.0
H987 H 0.51353 0.46409 0.48376 0.0
H988 H 0.51518 0.62757 0.49704 0.0
H989 H 0.53171 0.7017 0.50459 0.0
H990 H 0.55301 0.63194 0.53964 0.0
H991 H 0.53684 0.55719 0.53221 0.0
C992 C 0.4381 0.43107 0.52672 0.0
C993 C 0.44303 0.42166 0.53994 0.0
C994 C 0.45331 0.44925 0.51816 0.0
C995 C 0.47381 0.45781 0.52261 0.0
C996 C 0.47877 0.44786 0.53576 0.0
C997 C 0.46358 0.43 0.54433 0.0
C998 C 0.48998 0.47826 0.5137 0.0
C999 C 0.50046 0.51965 0.51766 0.0
C1000 C 0.49478 0.45805 0.50131 0.0
C1001 C 0.48515 0.41306 0.49681 0.0
C1002 C 0.48657 0.37183 0.50453 0.0
C1003 C 0.47731 0.32966 0.50027 0.0
C1004 C 0.4667 0.32819 0.48826 0.0
C1005 C 0.46539 0.36886 0.48047 0.0
C1006 C 0.47461 0.41113 0.48469 0.0
C1007 C 0.57189 0.56886 0.48399 0.0
C1008 C 0.56682 0.57871 0.47081 0.0
C1009 C 0.55675 0.55048 0.49257 0.0
C1010 C 0.53621 0.54209 0.48818 0.0
C1011 C 0.53112 0.5524 0.47507 0.0
C1012 C 0.54623 0.57052 0.46649 0.0
C1013 C 0.5201 0.52153 0.4971 0.0
C1014 C 0.50963 0.48013 0.49315 0.0
C1015 C 0.51532 0.54172 0.5095 0.0
C1016 C 0.52498 0.58667 0.51401 0.0
C1017 C 0.52352 0.62795 0.50631 0.0
C1018 C 0.5328 0.67009 0.51057 0.0
C1019 C 0.54345 0.6715 0.52257 0.0
C1020 C 0.54479 0.63079 0.53034 0.0
C1021 C 0.53555 0.58853 0.52612 0.0
H1022 H 0.55062 0.70416 0.52585 0.0
H1023 H 0.45954 0.29551 0.48498 0.0
H1024 H 0.109 0.76122 0.33816 0.0
H1025 H 0.11292 0.81832 0.35596 0.0
H1026 H 0.1796 0.79458 0.35622 0.0
H1027 H 0.17586 0.73692 0.33832 0.0
H1028 H 0.12833 0.79526 0.38058 0.0
H1029 H 0.20184 0.90232 0.36768 0.0
H1030 H 0.22167 0.92872 0.34817 0.0
H1031 H 0.16536 0.92707 0.32516 0.0
H1032 H 0.14517 0.9013 0.34457 0.0
H1033 H 0.17456 0.00773 0.42225 0.0
H1034 H 0.17899 0.94558 0.4056 0.0
H1035 H 0.11193 0.93576 0.4015 0.0
H1036 H 0.10736 0.99635 0.41824 0.0
H1037 H 0.16861 0.94548 0.38039 0.0
H1038 H 0.09631 0.82825 0.39336 0.0
H1039 H 0.07724 0.80118 0.41309 0.0
H1040 H 0.1324 0.82109 0.43652 0.0
H1041 H 0.1519 0.84764 0.41692 0.0
C1042 C 0.12458 0.76852 0.34183 0.0
C1043 C 0.14211 0.74414 0.33686 0.0
C1044 C 0.12676 0.80108 0.35205 0.0
C1045 C 0.1465 0.81039 0.35746 0.0
C1046 C 0.16422 0.78796 0.35214 0.0
C1047 C 0.16204 0.75508 0.34191 0.0
C1048 C 0.14811 0.84141 0.36918 0.0
C1049 C 0.13701 0.82831 0.38053 0.0
C1050 C 0.16017 0.88339 0.36927 0.0
C1051 C 0.17207 0.89927 0.35754 0.0
C1052 C 0.1937 0.90768 0.35846 0.0
C1053 C 0.205 0.92254 0.34742 0.0
C1054 C 0.1948 0.92937 0.33541 0.0
C1055 C 0.17326 0.92154 0.33444 0.0
C1056 C 0.16189 0.90672 0.34546 0.0
C1057 C 0.16076 0.99172 0.41795 0.0
C1058 C 0.1406 0.00696 0.42163 0.0
C1059 C 0.16333 0.95639 0.4084 0.0
C1060 C 0.1458 0.93561 0.40239 0.0
C1061 C 0.1257 0.95044 0.40618 0.0
C1062 C 0.12312 0.98536 0.41575 0.0
C1063 C 0.14824 0.90012 0.3917 0.0
C1064 C 0.16016 0.91215 0.38056 0.0
C1065 C 0.13707 0.8568 0.39183 0.0
C1066 C 0.12553 0.84026 0.40367 0.0
C1067 C 0.10441 0.8266 0.40271 0.0
C1068 C 0.09352 0.8114 0.41387 0.0
C1069 C 0.10359 0.80952 0.42605 0.0
C1070 C 0.1246 0.82271 0.42709 0.0
C1071 C 0.13557 0.8379 0.41596 0.0
H1072 H 0.09512 0.79778 0.43469 0.0
H1073 H 0.20357 0.94086 0.32688 0.0
H1074 H 0.08632 0.24295 0.42196 0.0
H1075 H 0.08207 0.30421 0.40511 0.0
H1076 H 0.14915 0.32006 0.40282 0.0
H1077 H 0.15351 0.2601 0.41978 0.0
H1078 H 0.13116 0.40351 0.40137 0.0
H1079 H 0.12098 0.25059 0.38074 0.0
H1080 H 0.10397 0.17289 0.37774 0.0
H1081 H 0.04504 0.2417 0.37082 0.0
H1082 H 0.06167 0.31984 0.37395 0.0
H1083 H 0.15345 0.49113 0.33901 0.0
H1084 H 0.14886 0.43498 0.35697 0.0
H1085 H 0.08213 0.45748 0.356 0.0
H1086 H 0.08652 0.51423 0.33793 0.0
H1087 H 0.09469 0.36038 0.35997 0.0
H1088 H 0.10714 0.51466 0.37812 0.0
H1089 H 0.12565 0.59091 0.3803 0.0
H1090 H 0.18188 0.51769 0.39133 0.0
H1091 H 0.16379 0.44093 0.38903 0.0
C1092 C 0.10015 0.26 0.41801 0.0
C1093 C 0.12027 0.24631 0.42216 0.0
C1094 C 0.09769 0.29479 0.40831 0.0
C1095 C 0.11531 0.31614 0.40253 0.0
C1096 C 0.13532 0.30402 0.4071 0.0
C1097 C 0.13778 0.26956 0.4168 0.0
C1098 C 0.11325 0.34981 0.39138 0.0
C1099 C 0.12324 0.39395 0.39232 0.0
C1100 C 0.10249 0.33788 0.37964 0.0
C1101 C 0.0925 0.29098 0.37774 0.0
C1102 C 0.10436 0.24911 0.37868 0.0
C1103 C 0.0948 0.20501 0.37694 0.0
C1104 C 0.07342 0.20235 0.37414 0.0
C1105 C 0.06158 0.24381 0.37303 0.0
C1106 C 0.07107 0.28801 0.37478 0.0
C1107 C 0.13773 0.48378 0.34244 0.0
C1108 C 0.12037 0.50767 0.3371 0.0
C1109 C 0.13516 0.45172 0.35274 0.0
C1110 C 0.11521 0.44281 0.35794 0.0
C1111 C 0.09767 0.46419 0.35215 0.0
C1112 C 0.10023 0.49656 0.34183 0.0
C1113 C 0.11308 0.41327 0.36991 0.0
C1114 C 0.1023 0.37012 0.36912 0.0
C1115 C 0.12326 0.42586 0.38175 0.0
C1116 C 0.13413 0.47202 0.38331 0.0
C1117 C 0.12349 0.5148 0.38093 0.0
C1118 C 0.1339 0.55812 0.38219 0.0
C1119 C 0.15494 0.55914 0.38593 0.0
C1120 C 0.16559 0.51684 0.38844 0.0
C1121 C 0.15525 0.47342 0.38716 0.0
H1122 H 0.16297 0.59272 0.3869 0.0
H1123 H 0.06605 0.16818 0.37279 0.0
H1124 H 0.10946 0.26373 0.83778 0.0
H1125 H 0.11429 0.32435 0.85449 0.0
H1126 H 0.18063 0.29571 0.85512 0.0
H1127 H 0.17585 0.23378 0.83847 0.0
H1128 H 0.1653 0.29876 0.87952 0.0
H1129 H 0.16194 0.39984 0.84231 0.0
H1130 H 0.14835 0.43159 0.82141 0.0
H1131 H 0.09051 0.46863 0.84037 0.0
H1132 H 0.10362 0.43649 0.86136 0.0
H1133 H 0.17521 0.50352 0.9228 0.0
H1134 H 0.17955 0.44629 0.90483 0.0
H1135 H 0.11257 0.43992 0.90001 0.0
H1136 H 0.10802 0.49649 0.91789 0.0
H1137 H 0.13426 0.4596 0.87671 0.0
H1138 H 0.13707 0.34944 0.91324 0.0
H1139 H 0.15121 0.31784 0.93403 0.0
H1140 H 0.21148 0.29982 0.91594 0.0
H1141 H 0.19775 0.33195 0.89508 0.0
C1142 C 0.12516 0.27063 0.8413 0.0
C1143 C 0.14226 0.24376 0.83678 0.0
C1144 C 0.12791 0.30557 0.85084 0.0
C1145 C 0.14786 0.31493 0.85599 0.0
C1146 C 0.1651 0.28911 0.85127 0.0
C1147 C 0.16235 0.25394 0.8417 0.0
C1148 C 0.15021 0.34966 0.86687 0.0
C1149 C 0.15894 0.33433 0.87881 0.0
C1150 C 0.14172 0.39589 0.86601 0.0
C1151 C 0.13375 0.41547 0.8534 0.0
C1152 C 0.14627 0.41446 0.84201 0.0
C1153 C 0.13866 0.43258 0.83015 0.0
C1154 C 0.11857 0.45205 0.82956 0.0
C1155 C 0.10607 0.45354 0.84084 0.0
C1156 C 0.1136 0.43544 0.85273 0.0
C1157 C 0.16139 0.48934 0.91806 0.0
C1158 C 0.14127 0.50485 0.92175 0.0
C1159 C 0.16392 0.4567 0.90779 0.0
C1160 C 0.14638 0.43922 0.90105 0.0
C1161 C 0.1263 0.4533 0.90503 0.0
C1162 C 0.12375 0.48551 0.91531 0.0
C1163 C 0.14873 0.4081 0.8894 0.0
C1164 C 0.14092 0.42429 0.87732 0.0
C1165 C 0.15821 0.36292 0.89012 0.0
C1166 C 0.16646 0.34367 0.90266 0.0
C1167 C 0.15339 0.33919 0.91373 0.0
C1168 C 0.16132 0.32108 0.92552 0.0
C1169 C 0.18225 0.30699 0.92632 0.0
C1170 C 0.19528 0.31085 0.91532 0.0
C1171 C 0.18743 0.32899 0.90351 0.0
H1172 H 0.18836 0.29296 0.93545 0.0
H1173 H 0.1127 0.46606 0.82036 0.0
H1174 H 0.15508 0.74722 0.91783 0.0
H1175 H 0.15065 0.80826 0.90126 0.0
H1176 H 0.08416 0.81097 0.90877 0.0
H1177 H 0.08839 0.74807 0.9252 0.0
H1178 H 0.09105 0.81024 0.88326 0.0
H1179 H 0.11687 0.90348 0.91869 0.0
H1180 H 0.14022 0.9247 0.93706 0.0
H1181 H 0.19234 0.93296 0.91045 0.0
H1182 H 0.16938 0.91116 0.89193 0.0
H1183 H 0.08604 0.01874 0.84137 0.0
H1184 H 0.08265 0.96177 0.85944 0.0
H1185 H 0.14826 0.92772 0.85602 0.0
H1186 H 0.15184 0.98436 0.83809 0.0
H1187 H 0.13713 0.95144 0.88112 0.0
H1188 H 0.11108 0.85016 0.84622 0.0
H1189 H 0.08727 0.82913 0.82806 0.0
H1190 H 0.03459 0.83866 0.85421 0.0
H1191 H 0.05808 0.86036 0.87251 0.0
C1192 C 0.1395 0.76108 0.91613 0.0
C1193 C 0.12208 0.74276 0.9229 0.0
C1194 C 0.13701 0.79627 0.90665 0.0
C1195 C 0.11711 0.81485 0.90389 0.0
C1196 C 0.09968 0.79729 0.91077 0.0
C1197 C 0.10213 0.76152 0.9202 0.0
C1198 C 0.11468 0.8509 0.89335 0.0
C1199 C 0.10081 0.84167 0.88293 0.0
C1200 C 0.12754 0.89171 0.89282 0.0
C1201 C 0.14139 0.90543 0.90392 0.0
C1202 C 0.13333 0.90958 0.91676 0.0
C1203 C 0.1465 0.92174 0.9272 0.0
C1204 C 0.16775 0.93011 0.92493 0.0
C1205 C 0.17587 0.92648 0.9122 0.0
C1206 C 0.16278 0.9143 0.90172 0.0
C1207 C 0.09966 0.99847 0.8443 0.0
C1208 C 0.11925 0.00641 0.83834 0.0
C1209 C 0.09769 0.96597 0.85464 0.0
C1210 C 0.11525 0.94077 0.85912 0.0
C1211 C 0.13455 0.9471 0.85279 0.0
C1212 C 0.13654 0.97942 0.84249 0.0
C1213 C 0.11405 0.90987 0.87089 0.0
C1214 C 0.12718 0.92034 0.88156 0.0
C1215 C 0.10039 0.87055 0.87168 0.0
C1216 C 0.0863 0.85742 0.86069 0.0
C1217 C 0.0944 0.84818 0.84807 0.0
C1218 C 0.08097 0.83605 0.83776 0.0
C1219 C 0.05943 0.83271 0.83997 0.0
C1220 C 0.05128 0.84135 0.85251 0.0
C1221 C 0.06464 0.85353 0.86285 0.0
H1222 H 0.04905 0.82331 0.83197 0.0
H1223 H 0.17793 0.93945 0.93303 0.0
H1224 H 0.83687 0.26738 0.66982 0.0
H1225 H 0.83308 0.21038 0.65177 0.0
H1226 H 0.89938 0.18199 0.65305 0.0
H1227 H 0.90335 0.23853 0.67098 0.0
H1228 H 0.88561 0.20602 0.6283 0.0
H1229 H 0.86497 0.10109 0.66381 0.0
H1230 H 0.8433 0.07696 0.68275 0.0
H1231 H 0.78827 0.08092 0.65856 0.0
H1232 H 0.8096 0.1057 0.63951 0.0
H1233 H 0.9049 0.00381 0.59076 0.0
H1234 H 0.90057 0.06467 0.60744 0.0
H1235 H 0.8336 0.06056 0.60212 0.0
H1236 H 0.83776 0.99809 0.58555 0.0
H1237 H 0.84268 0.05965 0.62744 0.0
H1238 H 0.86304 0.15641 0.59142 0.0
H1239 H 0.88402 0.18138 0.57227 0.0
H1240 H 0.93824 0.19579 0.59686 0.0
H1241 H 0.91766 0.17027 0.61614 0.0
C1242 C 0.85057 0.24833 0.66643 0.0
C1243 C 0.87044 0.25783 0.67179 0.0
C1244 C 0.84838 0.21582 0.6561 0.0
C1245 C 0.86599 0.19226 0.65102 0.0
C1246 C 0.88562 0.20011 0.65676 0.0
C1247 C 0.88783 0.23236 0.66706 0.0
C1248 C 0.86444 0.16157 0.63923 0.0
C1249 C 0.87635 0.1738 0.62813 0.0
C1250 C 0.85164 0.12074 0.63883 0.0
C1251 C 0.83884 0.1058 0.65028 0.0
C1252 C 0.84822 0.09724 0.66256 0.0
C1253 C 0.83601 0.08335 0.67331 0.0
C1254 C 0.81441 0.07756 0.67187 0.0
C1255 C 0.80499 0.08551 0.65967 0.0
C1256 C 0.81714 0.09944 0.64889 0.0
C1257 C 0.88922 0.01614 0.59296 0.0
C1258 C 0.87167 0.99601 0.58677 0.0
C1259 C 0.88678 0.05122 0.6025 0.0
C1260 C 0.86677 0.06771 0.60594 0.0
C1261 C 0.8492 0.04845 0.5996 0.0
C1262 C 0.85162 0.01294 0.59009 0.0
C1263 C 0.86443 0.10325 0.61663 0.0
C1264 C 0.85172 0.09218 0.6275 0.0
C1265 C 0.87637 0.1455 0.61679 0.0
C1266 C 0.88881 0.16115 0.60522 0.0
C1267 C 0.87947 0.16461 0.59274 0.0
C1268 C 0.89129 0.17891 0.58186 0.0
C1269 C 0.91245 0.1901 0.58334 0.0
C1270 C 0.92184 0.18711 0.59572 0.0
C1271 C 0.91009 0.17281 0.60664 0.0
H1272 H 0.92158 0.20114 0.57491 0.0
H1273 H 0.80498 0.0668 0.6802 0.0
H1274 H 0.92584 0.48365 0.66956 0.0
H1275 H 0.92938 0.54102 0.6516 0.0
H1276 H 0.86333 0.57157 0.65398 0.0
H1277 H 0.85961 0.51461 0.67182 0.0
H1278 H 0.87592 0.54772 0.62902 0.0
H1279 H 0.89887 0.65123 0.66426 0.0
H1280 H 0.92149 0.67418 0.68284 0.0
H1281 H 0.9755 0.66815 0.6577 0.0
H1282 H 0.95322 0.64455 0.639 0.0
H1283 H 0.85719 0.75028 0.59164 0.0
H1284 H 0.86153 0.68981 0.6084 0.0
H1285 H 0.92833 0.6907 0.6021 0.0
H1286 H 0.92418 0.75284 0.58545 0.0
H1287 H 0.92014 0.69204 0.62754 0.0
H1288 H 0.89753 0.59623 0.59183 0.0
H1289 H 0.87558 0.57244 0.57302 0.0
H1290 H 0.82216 0.56096 0.59851 0.0
H1291 H 0.84372 0.58531 0.61744 0.0
C1292 C 0.91215 0.50327 0.66644 0.0
C1293 C 0.89241 0.49422 0.67207 0.0
C1294 C 0.91421 0.53599 0.65616 0.0
C1295 C 0.89658 0.56026 0.6514 0.0
C1296 C 0.8771 0.55291 0.65743 0.0
C1297 C 0.87503 0.52041 0.66767 0.0
C1298 C 0.89791 0.59108 0.63962 0.0
C1299 C 0.88546 0.57951 0.62873 0.0
C1300 C 0.91105 0.63132 0.63904 0.0
C1301 C 0.92442 0.64558 0.65028 0.0
C1302 C 0.9156 0.65438 0.66272 0.0
C1303 C 0.92835 0.6676 0.67327 0.0
C1304 C 0.94993 0.67247 0.67147 0.0
C1305 C 0.95879 0.66427 0.65909 0.0
C1306 C 0.94611 0.65101 0.64852 0.0
C1307 C 0.87283 0.73734 0.59365 0.0
C1308 C 0.89034 0.75643 0.58715 0.0
C1309 C 0.87527 0.70249 0.60324 0.0
C1310 C 0.89523 0.68514 0.6064 0.0
C1311 C 0.91277 0.70346 0.59979 0.0
C1312 C 0.91035 0.73879 0.59023 0.0
C1313 C 0.89759 0.64954 0.61707 0.0
C1314 C 0.9108 0.65996 0.62773 0.0
C1315 C 0.88527 0.60787 0.61741 0.0
C1316 C 0.87224 0.59287 0.60605 0.0
C1317 C 0.88108 0.58892 0.59341 0.0
C1318 C 0.8687 0.57529 0.58273 0.0
C1319 C 0.84748 0.56526 0.58456 0.0
C1320 C 0.8386 0.56873 0.5971 0.0
C1321 C 0.8509 0.58237 0.60782 0.0
H1322 H 0.83793 0.55474 0.57628 0.0
H1323 H 0.95977 0.68271 0.67964 0.0
H1324 H 0.83737 0.48421 0.08848 0.0
H1325 H 0.83286 0.54097 0.10654 0.0
H1326 H 0.89985 0.55604 0.10949 0.0
H1327 H 0.90455 0.49986 0.09153 0.0
H1328 H 0.88073 0.53467 0.13333 0.0
H1329 H 0.87164 0.64313 0.09683 0.0
H1330 H 0.85494 0.67194 0.07649 0.0
H1331 H 0.79579 0.68112 0.09646 0.0
H1332 H 0.81211 0.65173 0.11688 0.0
H1333 H 0.90241 0.73429 0.17149 0.0
H1334 H 0.89819 0.67298 0.15493 0.0
H1335 H 0.83119 0.69183 0.15606 0.0
H1336 H 0.83532 0.75462 0.17254 0.0
H1337 H 0.84466 0.6902 0.13135 0.0
H1338 H 0.85414 0.59067 0.16852 0.0
H1339 H 0.87046 0.56195 0.18899 0.0
H1340 H 0.92771 0.53405 0.1682 0.0
H1341 H 0.91184 0.56322 0.14763 0.0
C1342 C 0.85113 0.50019 0.09283 0.0
C1343 C 0.87133 0.48722 0.08859 0.0
C1344 C 0.84851 0.53257 0.10315 0.0
C1345 C 0.86603 0.55239 0.10939 0.0
C1346 C 0.88613 0.54083 0.10487 0.0
C1347 C 0.88877 0.50883 0.09454 0.0
C1348 C 0.86372 0.58343 0.12106 0.0
C1349 C 0.87296 0.56883 0.1329 0.0
C1350 C 0.85284 0.62703 0.1206 0.0
C1351 C 0.84304 0.64466 0.10833 0.0
C1352 C 0.85503 0.65084 0.09685 0.0
C1353 C 0.84565 0.66738 0.08531 0.0
C1354 C 0.8243 0.67819 0.08517 0.0
C1355 C 0.81231 0.67263 0.09657 0.0
C1356 C 0.82162 0.65606 0.10813 0.0
C1357 C 0.88671 0.7251 0.16839 0.0
C1358 C 0.8692 0.74951 0.17336 0.0
C1359 C 0.88432 0.68974 0.15893 0.0
C1360 C 0.86435 0.67738 0.15433 0.0
C1361 C 0.84675 0.70074 0.15949 0.0
C1362 C 0.84913 0.73642 0.16896 0.0
C1363 C 0.86226 0.64211 0.14356 0.0
C1364 C 0.85214 0.65573 0.13189 0.0
C1365 C 0.87222 0.59734 0.1442 0.0
C1366 C 0.88182 0.57941 0.15653 0.0
C1367 C 0.87025 0.57869 0.16832 0.0
C1368 C 0.87942 0.56229 0.17994 0.0
C1369 C 0.90011 0.54625 0.1799 0.0
C1370 C 0.91167 0.54648 0.16822 0.0
C1371 C 0.90259 0.56287 0.15657 0.0
H1372 H 0.90718 0.53359 0.18891 0.0
H1373 H 0.81706 0.69101 0.07623 0.0
H1374 H 0.92416 0.98642 0.17177 0.0
H1375 H 0.92877 0.04329 0.15375 0.0
H1376 H 0.86178 0.0538 0.14953 0.0
H1377 H 0.85698 0.99761 0.16745 0.0
H1378 H 0.88263 0.03338 0.12601 0.0
H1379 H 0.88762 0.14258 0.16268 0.0
H1380 H 0.90258 0.17284 0.1834 0.0
H1381 H 0.96267 0.18721 0.16484 0.0
H1382 H 0.94811 0.15639 0.14404 0.0
H1383 H 0.85961 0.23184 0.0876 0.0
H1384 H 0.86394 0.17056 0.10417 0.0
H1385 H 0.93064 0.19428 0.10431 0.0
H1386 H 0.9264 0.25683 0.08781 0.0
H1387 H 0.91575 0.192 0.12882 0.0
H1388 H 0.91024 0.0919 0.09146 0.0
H1389 H 0.89572 0.06163 0.07063 0.0
H1390 H 0.83786 0.02831 0.09007 0.0
H1391 H 0.85191 0.05901 0.11099 0.0
C1392 C 0.91041 0.00141 0.16714 0.0
C1393 C 0.8902 0.98722 0.17103 0.0
C1394 C 0.91308 0.03384 0.15685 0.0
C1395 C 0.8956 0.05241 0.15027 0.0
C1396 C 0.87547 0.03956 0.15442 0.0
C1397 C 0.87277 0.00756 0.16473 0.0
C1398 C 0.89805 0.0836 0.13866 0.0
C1399 C 0.88975 0.06821 0.12662 0.0
C1400 C 0.9081 0.12814 0.13937 0.0
C1401 C 0.91685 0.1466 0.15186 0.0
C1402 C 0.90408 0.15174 0.16306 0.0
C1403 C 0.91247 0.1691 0.1748 0.0
C1404 C 0.93358 0.18178 0.17545 0.0
C1405 C 0.94633 0.17727 0.16433 0.0
C1406 C 0.93801 0.15988 0.15256 0.0
C1407 C 0.87527 0.22371 0.09098 0.0
C1408 C 0.89266 0.24939 0.08637 0.0
C1409 C 0.87773 0.1884 0.10044 0.0
C1410 C 0.89764 0.17748 0.10541 0.0
C1411 C 0.91514 0.20209 0.10059 0.0
C1412 C 0.91269 0.23763 0.09111 0.0
C1413 C 0.89974 0.1424 0.11621 0.0
C1414 C 0.90893 0.15689 0.12811 0.0
C1415 C 0.89063 0.09679 0.11535 0.0
C1416 C 0.88211 0.07805 0.10279 0.0
C1417 C 0.89437 0.07842 0.09128 0.0
C1418 C 0.88622 0.06113 0.07946 0.0
C1419 C 0.86587 0.04313 0.07902 0.0
C1420 C 0.85363 0.04227 0.09042 0.0
C1421 C 0.86169 0.05955 0.10227 0.0
H1422 H 0.85959 0.02977 0.06986 0.0
H1423 H 0.94005 0.19524 0.18455 0.0
H1424 H 0.67499 0.72579 0.84168 0.0
H1425 H 0.67915 0.78619 0.8588 0.0
H1426 H 0.61454 0.82709 0.85402 0.0
H1427 H 0.61028 0.76737 0.8369 0.0
H1428 H 0.63896 0.90348 0.85708 0.0
H1429 H 0.62894 0.75322 0.87854 0.0
H1430 H 0.63636 0.67 0.88425 0.0
H1431 H 0.69739 0.70939 0.89811 0.0
H1432 H 0.6904 0.79288 0.89234 0.0
H1433 H 0.60771 0.00286 0.91697 0.0
H1434 H 0.61258 0.94573 0.89926 0.0
H1435 H 0.67899 0.94342 0.90666 0.0
H1436 H 0.67436 0.00145 0.92444 0.0
H1437 H 0.65902 0.85091 0.90193 0.0
H1438 H 0.66577 0.00504 0.88252 0.0
H1439 H 0.65531 0.08772 0.87823 0.0
H1440 H 0.59757 0.03973 0.86128 0.0
H1441 H 0.60753 0.95673 0.86564 0.0
C1442 C 0.66176 0.74815 0.84413 0.0
C1443 C 0.64226 0.74155 0.83797 0.0
C1444 C 0.66414 0.78242 0.85397 0.0
C1445 C 0.64708 0.81068 0.8578 0.0
C1446 C 0.6279 0.80562 0.85124 0.0
C1447 C 0.62549 0.77133 0.84147 0.0
C1448 C 0.64875 0.84434 0.86897 0.0
C1449 C 0.64331 0.89193 0.86688 0.0
C1450 C 0.6548 0.82947 0.88173 0.0
C1451 C 0.65926 0.77916 0.88484 0.0
C1452 C 0.64405 0.74404 0.88265 0.0
C1453 C 0.64815 0.69684 0.88593 0.0
C1454 C 0.66736 0.6844 0.8915 0.0
C1455 C 0.68253 0.71909 0.89376 0.0
C1456 C 0.67851 0.76634 0.89049 0.0
C1457 C 0.62336 0.9899 0.91499 0.0
C1458 C 0.64068 0.00705 0.92209 0.0
C1459 C 0.6261 0.95736 0.90482 0.0
C1460 C 0.64616 0.94098 0.90156 0.0
C1461 C 0.6634 0.95595 0.90902 0.0
C1462 C 0.66071 0.98905 0.91916 0.0
C1463 C 0.64893 0.9096 0.89003 0.0
C1464 C 0.65512 0.86255 0.89206 0.0
C1465 C 0.64334 0.92478 0.87724 0.0
C1466 C 0.63735 0.97465 0.8745 0.0
C1467 C 0.65077 0.01212 0.87797 0.0
C1468 C 0.64494 0.05904 0.87551 0.0
C1469 C 0.62578 0.06897 0.8695 0.0
C1470 C 0.61241 0.03198 0.86593 0.0
C1471 C 0.61815 0.98498 0.86838 0.0
H1472 H 0.62132 0.10531 0.86758 0.0
H1473 H 0.67044 0.64794 0.89415 0.0
H1474 H 0.58795 0.24591 0.92376 0.0
H1475 H 0.58394 0.30595 0.90655 0.0
H1476 H 0.65104 0.31163 0.90187 0.0
H1477 H 0.6552 0.25311 0.91921 0.0
H1478 H 0.63606 0.39649 0.90006 0.0
H1479 H 0.61875 0.24498 0.88132 0.0
H1480 H 0.59944 0.16961 0.87954 0.0
H1481 H 0.54191 0.24595 0.87423 0.0
H1482 H 0.56085 0.32185 0.8762 0.0
H1483 H 0.65189 0.48064 0.83658 0.0
H1484 H 0.64819 0.42296 0.85427 0.0
H1485 H 0.58272 0.45768 0.85792 0.0
H1486 H 0.5862 0.51578 0.84012 0.0
H1487 H 0.59289 0.35748 0.86096 0.0
H1488 H 0.61383 0.51089 0.87772 0.0
H1489 H 0.63614 0.58217 0.87752 0.0
H1490 H 0.69035 0.49643 0.88507 0.0
H1491 H 0.66841 0.42452 0.88508 0.0
C1492 C 0.60185 0.2605 0.9192 0.0
C1493 C 0.62189 0.24442 0.92282 0.0
C1494 C 0.59953 0.29456 0.90929 0.0
C1495 C 0.61717 0.31268 0.90274 0.0
C1496 C 0.63718 0.29815 0.90675 0.0
C1497 C 0.63952 0.26453 0.91668 0.0
C1498 C 0.61506 0.34554 0.8914 0.0
C1499 C 0.62665 0.38778 0.89152 0.0
C1500 C 0.60258 0.33462 0.88028 0.0
C1501 C 0.59117 0.28907 0.87908 0.0
C1502 C 0.60196 0.24569 0.87989 0.0
C1503 C 0.59109 0.20288 0.87882 0.0
C1504 C 0.56946 0.20299 0.8768 0.0
C1505 C 0.55866 0.24592 0.87582 0.0
C1506 C 0.56945 0.28885 0.87691 0.0
C1507 C 0.63658 0.47556 0.84095 0.0
C1508 C 0.6194 0.50337 0.83705 0.0
C1509 C 0.63452 0.44256 0.85108 0.0
C1510 C 0.61529 0.43678 0.85753 0.0
C1511 C 0.59772 0.46189 0.85308 0.0
C1512 C 0.59976 0.49506 0.84291 0.0
C1513 C 0.61417 0.4076 0.86961 0.0
C1514 C 0.60199 0.36632 0.86962 0.0
C1515 C 0.62643 0.41883 0.88077 0.0
C1516 C 0.63949 0.46229 0.88131 0.0
C1517 C 0.63052 0.50723 0.8793 0.0
C1518 C 0.6431 0.54775 0.87922 0.0
C1519 C 0.66466 0.54381 0.88125 0.0
C1520 C 0.67365 0.49941 0.88349 0.0
C1521 C 0.66115 0.45877 0.88354 0.0
H1522 H 0.67441 0.57512 0.88107 0.0
H1523 H 0.56107 0.1698 0.87597 0.0
H1524 H 0.60767 0.25425 0.34099 0.0
H1525 H 0.61176 0.3154 0.3576 0.0
H1526 H 0.67888 0.30894 0.35312 0.0
H1527 H 0.67494 0.24616 0.33662 0.0
H1528 H 0.66881 0.30891 0.37834 0.0
H1529 H 0.65035 0.40538 0.34183 0.0
H1530 H 0.63012 0.43016 0.32237 0.0
H1531 H 0.5752 0.44709 0.34632 0.0
H1532 H 0.59502 0.42178 0.3659 0.0
H1533 H 0.67476 0.51703 0.42043 0.0
H1534 H 0.67867 0.45987 0.40242 0.0
H1535 H 0.61213 0.43431 0.40299 0.0
H1536 H 0.60803 0.49099 0.42088 0.0
H1537 H 0.62692 0.45695 0.37833 0.0
H1538 H 0.64534 0.35222 0.41428 0.0
H1539 H 0.66602 0.32754 0.43357 0.0
H1540 H 0.72206 0.32848 0.4102 0.0
H1541 H 0.70174 0.35378 0.3908 0.0
C1542 C 0.62334 0.26612 0.34336 0.0
C1543 C 0.64099 0.24524 0.33743 0.0
C1544 C 0.62565 0.30136 0.35286 0.0
C1545 C 0.64562 0.31729 0.35651 0.0
C1546 C 0.66331 0.29728 0.35044 0.0
C1547 C 0.66102 0.26159 0.34096 0.0
C1548 C 0.6478 0.35304 0.36715 0.0
C1549 C 0.66001 0.34179 0.37821 0.0
C1550 C 0.63614 0.39573 0.36708 0.0
C1551 C 0.62417 0.4114 0.35533 0.0
C1552 C 0.63393 0.41411 0.34294 0.0
C1553 C 0.62254 0.42829 0.33189 0.0
C1554 C 0.60138 0.44012 0.33311 0.0
C1555 C 0.59159 0.43792 0.34539 0.0
C1556 C 0.60291 0.42373 0.35648 0.0
C1557 C 0.66101 0.49862 0.41688 0.0
C1558 C 0.64106 0.50888 0.42206 0.0
C1559 C 0.66328 0.46601 0.40658 0.0
C1560 C 0.64566 0.44314 0.40132 0.0
C1561 C 0.6259 0.45188 0.40684 0.0
C1562 C 0.62362 0.48421 0.41712 0.0
C1563 C 0.64738 0.41204 0.38962 0.0
C1564 C 0.63595 0.42438 0.37835 0.0
C1565 C 0.65987 0.37067 0.38948 0.0
C1566 C 0.67207 0.35546 0.40114 0.0
C1567 C 0.6621 0.3476 0.41329 0.0
C1568 C 0.67375 0.3334 0.42423 0.0
C1569 C 0.69535 0.3266 0.42312 0.0
C1570 C 0.70534 0.33385 0.41105 0.0
C1571 C 0.69376 0.34809 0.40008 0.0
H1572 H 0.70434 0.3156 0.43161 0.0
H1573 H 0.59259 0.45106 0.32454 0.0
H1574 H 0.58563 0.73253 0.42047 0.0
H1575 H 0.58134 0.79301 0.40341 0.0
H1576 H 0.64661 0.82989 0.40691 0.0
H1577 H 0.651 0.77017 0.424 0.0
H1578 H 0.62288 0.9077 0.40386 0.0
H1579 H 0.63007 0.7545 0.38317 0.0
H1580 H 0.62058 0.67127 0.37881 0.0
H1581 H 0.55972 0.71507 0.36568 0.0
H1582 H 0.56876 0.79859 0.37014 0.0
H1583 H 0.65419 0.00092 0.34346 0.0
H1584 H 0.64892 0.94452 0.36129 0.0
H1585 H 0.58237 0.94658 0.35437 0.0
H1586 H 0.58742 0.00384 0.33647 0.0
H1587 H 0.60106 0.85281 0.35953 0.0
H1588 H 0.59666 0.00875 0.37806 0.0
H1589 H 0.60817 0.09107 0.38172 0.0
H1590 H 0.66572 0.04092 0.39847 0.0
H1591 H 0.6547 0.95824 0.39471 0.0
C1592 C 0.59898 0.7541 0.41778 0.0
C1593 C 0.6187 0.74624 0.42353 0.0
C1594 C 0.59652 0.78843 0.40796 0.0
C1595 C 0.61373 0.81542 0.40375 0.0
C1596 C 0.63313 0.80937 0.40998 0.0
C1597 C 0.63562 0.77507 0.41973 0.0
C1598 C 0.61204 0.84832 0.39243 0.0
C1599 C 0.61814 0.89565 0.39417 0.0
C1600 C 0.60546 0.83283 0.37983 0.0
C1601 C 0.59999 0.78269 0.37715 0.0
C1602 C 0.6146 0.74634 0.37947 0.0
C1603 C 0.60931 0.69913 0.37696 0.0
C1604 C 0.58953 0.68787 0.37202 0.0
C1605 C 0.57501 0.72383 0.36954 0.0
C1606 C 0.58021 0.77111 0.37205 0.0
C1607 C 0.63842 0.98904 0.34556 0.0
C1608 C 0.6212 0.00728 0.33859 0.0
C1609 C 0.63545 0.95688 0.35579 0.0
C1610 C 0.61525 0.94201 0.35923 0.0
C1611 C 0.59808 0.95792 0.35187 0.0
C1612 C 0.60101 0.9906 0.34166 0.0
C1613 C 0.61227 0.91173 0.37097 0.0
C1614 C 0.60537 0.865 0.36929 0.0
C1615 C 0.61829 0.9276 0.38361 0.0
C1616 C 0.62491 0.97728 0.38601 0.0
C1617 C 0.61184 0.01526 0.38243 0.0
C1618 C 0.61826 0.062 0.38454 0.0
C1619 C 0.63768 0.07122 0.3903 0.0
C1620 C 0.65069 0.03372 0.394 0.0
C1621 C 0.64435 0.9869 0.39189 0.0
H1622 H 0.64263 0.10743 0.39192 0.0
H1623 H 0.58547 0.6513 0.37007 0.0
H1624 H 0.33816 0.26391 0.17125 0.0
H1625 H 0.33367 0.20702 0.15323 0.0
H1626 H 0.40048 0.18611 0.15159 0.0
H1627 H 0.40516 0.2424 0.16951 0.0
H1628 H 0.38303 0.2095 0.12743 0.0
H1629 H 0.37003 0.1015 0.16362 0.0
H1630 H 0.35161 0.07407 0.18355 0.0
H1631 H 0.29363 0.07019 0.16226 0.0
H1632 H 0.31168 0.09823 0.14224 0.0
H1633 H 0.40363 0.00933 0.08927 0.0
H1634 H 0.39948 0.07023 0.10597 0.0
H1635 H 0.33233 0.05696 0.10349 0.0
H1636 H 0.33636 0.9946 0.08687 0.0
H1637 H 0.34441 0.0571 0.12846 0.0
H1638 H 0.35745 0.1563 0.09167 0.0
H1639 H 0.37524 0.18418 0.07157 0.0
H1640 H 0.43175 0.20715 0.09348 0.0
H1641 H 0.4144 0.17877 0.11368 0.0
C1642 C 0.35186 0.24655 0.16721 0.0
C1643 C 0.37204 0.25801 0.17178 0.0
C1644 C 0.34926 0.21412 0.15691 0.0
C1645 C 0.36677 0.1927 0.15103 0.0
C1646 C 0.38679 0.20258 0.15593 0.0
C1647 C 0.38941 0.23466 0.16623 0.0
C1648 C 0.36459 0.162 0.13928 0.0
C1649 C 0.37471 0.17599 0.12766 0.0
C1650 C 0.35298 0.11938 0.13946 0.0
C1651 C 0.34215 0.10253 0.15148 0.0
C1652 C 0.35332 0.09524 0.16323 0.0
C1653 C 0.34296 0.07948 0.17453 0.0
C1654 C 0.32145 0.07055 0.17418 0.0
C1655 C 0.31028 0.07722 0.16252 0.0
C1656 C 0.32057 0.09302 0.15119 0.0
C1657 C 0.38793 0.01965 0.0921 0.0
C1658 C 0.37032 0.99697 0.08671 0.0
C1659 C 0.38558 0.05476 0.10165 0.0
C1660 C 0.36558 0.0686 0.1059 0.0
C1661 C 0.34791 0.04689 0.10033 0.0
C1662 C 0.35025 0.01145 0.09079 0.0
C1663 C 0.36345 0.10383 0.11668 0.0
C1664 C 0.35247 0.0909 0.12812 0.0
C1665 C 0.37413 0.14775 0.11631 0.0
C1666 C 0.38464 0.16512 0.10419 0.0
C1667 C 0.37371 0.167 0.09219 0.0
C1668 C 0.38371 0.18294 0.08078 0.0
C1669 C 0.40462 0.19736 0.08125 0.0
C1670 C 0.41555 0.19597 0.09313 0.0
C1671 C 0.40563 0.18003 0.10457 0.0
H1672 H 0.41233 0.20967 0.0724 0.0
H1673 H 0.31346 0.05834 0.18294 0.0
H1674 H 0.4269 0.48288 0.16908 0.0
H1675 H 0.43004 0.54031 0.15111 0.0
H1676 H 0.36429 0.57287 0.1546 0.0
H1677 H 0.36096 0.5157 0.17242 0.0
H1678 H 0.3754 0.54968 0.12951 0.0
H1679 H 0.40134 0.65126 0.16437 0.0
H1680 H 0.42517 0.6726 0.1825 0.0
H1681 H 0.47776 0.66388 0.15625 0.0
H1682 H 0.45425 0.64187 0.13799 0.0
H1683 H 0.35702 0.75314 0.09256 0.0
H1684 H 0.36157 0.69266 0.10928 0.0
H1685 H 0.42805 0.69024 0.10173 0.0
H1686 H 0.4237 0.75257 0.08514 0.0
H1687 H 0.42116 0.69139 0.12727 0.0
H1688 H 0.39553 0.59746 0.09193 0.0
H1689 H 0.37223 0.57579 0.07357 0.0
H1690 H 0.32012 0.56733 0.10018 0.0
H1691 H 0.34303 0.58959 0.11868 0.0
C1692 C 0.4132 0.50296 0.1662 0.0
C1693 C 0.39364 0.4944 0.17213 0.0
C1694 C 0.41503 0.53572 0.15591 0.0
C1695 C 0.39736 0.5606 0.15147 0.0
C1696 C 0.37808 0.55374 0.1578 0.0
C1697 C 0.37624 0.52112 0.16804 0.0
C1698 C 0.3984 0.59158 0.13971 0.0
C1699 C 0.38528 0.58091 0.12906 0.0
C1700 C 0.41197 0.63105 0.13889 0.0
C1701 C 0.42607 0.64438 0.14986 0.0
C1702 C 0.418 0.65348 0.16249 0.0
C1703 C 0.43145 0.66579 0.17278 0.0
C1704 C 0.45297 0.66945 0.17053 0.0
C1705 C 0.46109 0.66095 0.15798 0.0
C1706 C 0.44771 0.64859 0.14766 0.0
C1707 C 0.37262 0.73948 0.09429 0.0
C1708 C 0.38999 0.75768 0.08745 0.0
C1709 C 0.37519 0.70462 0.10386 0.0
C1710 C 0.39511 0.68626 0.10664 0.0
C1711 C 0.41251 0.70376 0.09971 0.0
C1712 C 0.40998 0.7392 0.0902 0.0
C1713 C 0.39761 0.65038 0.11722 0.0
C1714 C 0.41147 0.65986 0.12762 0.0
C1715 C 0.38483 0.60944 0.11778 0.0
C1716 C 0.37101 0.59546 0.10669 0.0
C1717 C 0.37908 0.59123 0.09386 0.0
C1718 C 0.36594 0.57881 0.08342 0.0
C1719 C 0.3447 0.57026 0.0857 0.0
C1720 C 0.33657 0.57396 0.09843 0.0
C1721 C 0.34964 0.5864 0.1089 0.0
H1722 H 0.33455 0.5607 0.07761 0.0
H1723 H 0.46335 0.67898 0.17851 0.0
H1724 H 0.33823 0.75212 0.67442 0.0
H1725 H 0.33326 0.69429 0.65665 0.0
H1726 H 0.39942 0.69783 0.6483 0.0
H1727 H 0.40462 0.75481 0.66601 0.0
H1728 H 0.37351 0.71393 0.62615 0.0
H1729 H 0.3808 0.60497 0.66262 0.0
H1730 H 0.37147 0.57128 0.68422 0.0
H1731 H 0.30951 0.54079 0.67027 0.0
H1732 H 0.31839 0.57497 0.64862 0.0
H1733 H 0.39942 0.52021 0.58626 0.0
H1734 H 0.39505 0.58091 0.60306 0.0
H1735 H 0.33006 0.54254 0.60742 0.0
H1736 H 0.33437 0.4809 0.59063 0.0
H1737 H 0.34929 0.54784 0.63097 0.0
H1738 H 0.34296 0.64787 0.59371 0.0
H1739 H 0.35195 0.68142 0.57204 0.0
H1740 H 0.41086 0.72998 0.58718 0.0
H1741 H 0.40238 0.69611 0.60891 0.0
C1742 C 0.35176 0.74004 0.66893 0.0
C1743 C 0.37182 0.75826 0.67162 0.0
C1744 C 0.34888 0.70707 0.65878 0.0
C1745 C 0.36597 0.69215 0.65114 0.0
C1746 C 0.38603 0.70918 0.65405 0.0
C1747 C 0.38896 0.7416 0.66424 0.0
C1748 C 0.36306 0.66032 0.6397 0.0
C1749 C 0.36832 0.67751 0.62718 0.0
C1750 C 0.35554 0.61349 0.64105 0.0
C1751 C 0.35017 0.59312 0.65406 0.0
C1752 C 0.36511 0.59156 0.6642 0.0
C1753 C 0.35992 0.57226 0.67644 0.0
C1754 C 0.33988 0.55407 0.67863 0.0
C1755 C 0.32501 0.55501 0.66857 0.0
C1756 C 0.33011 0.57432 0.65631 0.0
C1757 C 0.38409 0.52502 0.59063 0.0
C1758 C 0.36725 0.49558 0.5871 0.0
C1759 C 0.3816 0.55995 0.60021 0.0
C1760 C 0.36219 0.56649 0.60645 0.0
C1761 C 0.34516 0.5381 0.60272 0.0
C1762 C 0.34763 0.50311 0.59307 0.0
C1763 C 0.3603 0.60102 0.6174 0.0
C1764 C 0.35412 0.58448 0.62985 0.0
C1765 C 0.36687 0.64864 0.61599 0.0
C1766 C 0.37207 0.66915 0.60293 0.0
C1767 C 0.35791 0.66538 0.5924 0.0
C1768 C 0.3629 0.68451 0.5801 0.0
C1769 C 0.38198 0.70774 0.57823 0.0
C1770 C 0.39609 0.71196 0.58865 0.0
C1771 C 0.39118 0.69286 0.60097 0.0
H1772 H 0.38581 0.72254 0.5687 0.0
H1773 H 0.3359 0.5391 0.68811 0.0
H1774 H 0.358 0.23785 0.58917 0.0
H1775 H 0.36249 0.18174 0.60715 0.0
H1776 H 0.42859 0.21217 0.6082 0.0
H1777 H 0.4243 0.26875 0.5901 0.0
H1778 H 0.41849 0.11431 0.61183 0.0
H1779 H 0.39974 0.26617 0.62958 0.0
H1780 H 0.3787 0.33926 0.63111 0.0
H1781 H 0.32402 0.25713 0.64025 0.0
H1782 H 0.34467 0.18347 0.63857 0.0
H1783 H 0.42503 0.99707 0.67393 0.0
H1784 H 0.42895 0.05885 0.65718 0.0
H1785 H 0.3618 0.06625 0.65312 0.0
H1786 H 0.35774 0.00599 0.67001 0.0
H1787 H 0.37734 0.15135 0.65201 0.0
H1788 H 0.39391 0.00048 0.63175 0.0
H1789 H 0.41351 0.92564 0.62931 0.0
H1790 H 0.47069 0.00355 0.6243 0.0
H1791 H 0.45144 0.07887 0.62687 0.0
C1792 C 0.37358 0.23225 0.59306 0.0
C1793 C 0.39076 0.25829 0.58828 0.0
C1794 C 0.37609 0.20021 0.60337 0.0
C1795 C 0.39579 0.19356 0.60915 0.0
C1796 C 0.41324 0.21711 0.60391 0.0
C1797 C 0.41074 0.24939 0.59356 0.0
C1798 C 0.39769 0.16412 0.62115 0.0
C1799 C 0.40983 0.12274 0.62072 0.0
C1800 C 0.38615 0.17497 0.63266 0.0
C1801 C 0.37374 0.21928 0.63386 0.0
C1802 C 0.38321 0.26367 0.63183 0.0
C1803 C 0.37135 0.30521 0.63274 0.0
C1804 C 0.35003 0.30283 0.63576 0.0
C1805 C 0.34054 0.25891 0.63791 0.0
C1806 C 0.35232 0.21726 0.637 0.0
C1807 C 0.4111 0.01238 0.6696 0.0
C1808 C 0.39107 0.99629 0.67326 0.0
C1809 C 0.41337 0.04746 0.65996 0.0
C1810 C 0.39568 0.06659 0.65371 0.0
C1811 C 0.3757 0.05199 0.65777 0.0
C1812 C 0.37341 0.01736 0.66744 0.0
C1813 C 0.39767 0.10058 0.64262 0.0
C1814 C 0.38628 0.14308 0.64322 0.0
C1815 C 0.40973 0.09045 0.63124 0.0
C1816 C 0.42129 0.04524 0.62966 0.0
C1817 C 0.41069 0.00162 0.63023 0.0
C1818 C 0.42173 0.95913 0.6288 0.0
C1819 C 0.44335 0.95984 0.6267 0.0
C1820 C 0.45396 0.00306 0.62596 0.0
C1821 C 0.44299 0.04565 0.6274 0.0
H1822 H 0.45187 0.92691 0.62559 0.0
H1823 H 0.34088 0.33503 0.63645 0.0
loop_
_geom_bond_atom_site_label_1
_geom_bond_atom_site_label_2
_geom_bond_distance
_geom_bond_site_symmetry_2
_ccdc_geom_bond_type
O0 Cd1 2.223 . S
O0 C8 1.315 . S
Cd1 O0 2.223 . S
Cd1 O4 2.297 . S
Cd1 O5 2.439 . S
Cd1 O11 2.240 . S
Cd2 O3 2.240 . S
Cd2 O10 2.223 . S
Cd2 O12 2.297 . S
Cd2 O13 2.439 . S
O3 Cd2 2.240 . S
O3 C8 1.279 . S
O4 Cd1 2.297 . S
O4 C6 1.247 . S
O5 Cd1 2.439 . S
O5 C6 1.208 . S
C6 O4 1.247 . S
C6 O5 1.208 . S
C7 O12 1.247 . S
C7 O13 1.208 . S
C8 O0 1.315 . S
C8 O3 1.279 . S
C9 O10 1.315 . S
C9 O11 1.279 . S
O10 Cd2 2.223 . S
O10 C9 1.315 . S
O11 Cd1 2.240 . S
O11 C9 1.279 . S
O12 Cd2 2.297 . S
O12 C7 1.247 . S
O13 Cd2 2.439 . S
O13 C7 1.208 . S
O14 Cd15 2.223 . S
O14 C22 1.315 . S
Cd15 O14 2.223 . S
Cd15 O18 2.297 . S
Cd15 O19 2.439 . S
Cd15 O25 2.240 . S
Cd16 O17 2.240 . S
Cd16 O24 2.223 . S
Cd16 O26 2.297 . S
Cd16 O27 2.439 . S
O17 Cd16 2.240 . S
O17 C22 1.279 . S
O18 Cd15 2.297 . S
O18 C20 1.247 . S
O19 Cd15 2.439 . S
O19 C20 1.208 . S
C20 O18 1.247 . S
C20 O19 1.208 . S
C21 O26 1.247 . S
C21 O27 1.208 . S
C22 O14 1.315 . S
C22 O17 1.279 . S
C23 O24 1.315 . S
C23 O25 1.279 . S
O24 Cd16 2.223 . S
O24 C23 1.315 . S
O25 Cd15 2.240 . S
O25 C23 1.279 . S
O26 Cd16 2.297 . S
O26 C21 1.247 . S
O27 Cd16 2.439 . S
O27 C21 1.208 . S
O28 Cd29 2.223 . S
O28 C36 1.315 . S
Cd29 O28 2.223 . S
Cd29 O32 2.297 . S
Cd29 O33 2.439 . S
Cd29 O39 2.240 . S
Cd30 O31 2.240 . S
Cd30 O38 2.223 . S
Cd30 O40 2.297 . S
Cd30 O41 2.439 . S
O31 Cd30 2.240 . S
O31 C36 1.279 . S
O32 Cd29 2.297 . S
O32 C34 1.247 . S
O33 Cd29 2.439 . S
O33 C34 1.208 . S
C34 O32 1.247 . S
C34 O33 1.208 . S
C35 O40 1.247 . S
C35 O41 1.208 . S
C36 O28 1.315 . S
C36 O31 1.279 . S
C37 O38 1.315 . S
C37 O39 1.279 . S
O38 Cd30 2.223 . S
O38 C37 1.315 . S
O39 Cd29 2.240 . S
O39 C37 1.279 . S
O40 Cd30 2.297 . S
O40 C35 1.247 . S
O41 Cd30 2.439 . S
O41 C35 1.208 . S
O42 Cd43 2.223 . S
O42 C50 1.315 . S
Cd43 O42 2.223 . S
Cd43 O46 2.297 . S
Cd43 O47 2.439 . S
Cd43 O53 2.240 . S
Cd44 O45 2.240 . S
Cd44 O52 2.223 . S
Cd44 O54 2.297 . S
Cd44 O55 2.439 . S
O45 Cd44 2.240 . S
O45 C50 1.279 . S
O46 Cd43 2.297 . S
O46 C48 1.247 . S
O47 Cd43 2.439 . S
O47 C48 1.208 . S
C48 O46 1.247 . S
C48 O47 1.208 . S
C49 O54 1.247 . S
C49 O55 1.208 . S
C50 O42 1.315 . S
C50 O45 1.279 . S
C51 O52 1.315 . S
C51 O53 1.279 . S
O52 Cd44 2.223 . S
O52 C51 1.315 . S
O53 Cd43 2.240 . S
O53 C51 1.279 . S
O54 Cd44 2.297 . S
O54 C49 1.247 . S
O55 Cd44 2.439 . S
O55 C49 1.208 . S
O56 Cd57 2.223 . S
O56 C64 1.315 . S
Cd57 O56 2.223 . S
Cd57 O60 2.297 . S
Cd57 O61 2.439 . S
Cd57 O67 2.240 . S
Cd58 O59 2.240 . S
Cd58 O66 2.223 . S
Cd58 O68 2.297 . S
Cd58 O69 2.439 . S
O59 Cd58 2.240 . S
O59 C64 1.279 . S
O60 Cd57 2.297 . S
O60 C62 1.247 . S
O61 Cd57 2.439 . S
O61 C62 1.208 . S
C62 O60 1.247 . S
C62 O61 1.208 . S
C63 O68 1.247 . S
C63 O69 1.208 . S
C64 O56 1.315 . S
C64 O59 1.279 . S
C65 O66 1.315 . S
C65 O67 1.279 . S
O66 Cd58 2.223 . S
O66 C65 1.315 . S
O67 Cd57 2.240 . S
O67 C65 1.279 . S
O68 Cd58 2.297 . S
O68 C63 1.247 . S
O69 Cd58 2.439 . S
O69 C63 1.208 . S
O70 Cd71 2.223 . S
O70 C78 1.315 . S
Cd71 O70 2.223 . S
Cd71 O74 2.297 . S
Cd71 O75 2.439 . S
Cd71 O81 2.240 . S
Cd72 O73 2.240 . S
Cd72 O80 2.223 . S
Cd72 O82 2.297 . S
Cd72 O83 2.439 . S
O73 Cd72 2.240 . S
O73 C78 1.279 . S
O74 Cd71 2.297 . S
O74 C76 1.247 . S
O75 Cd71 2.439 . S
O75 C76 1.208 . S
C76 O74 1.247 . S
C76 O75 1.208 . S
C77 O82 1.247 . S
C77 O83 1.208 . S
C78 O70 1.315 . S
C78 O73 1.279 . S
C79 O80 1.315 . S
C79 O81 1.279 . S
O80 Cd72 2.223 . S
O80 C79 1.315 . S
O81 Cd71 2.240 . S
O81 C79 1.279 . S
O82 Cd72 2.297 . S
O82 C77 1.247 . S
O83 Cd72 2.439 . S
O83 C77 1.208 . S
O84 Cd85 2.223 . S
O84 C92 1.315 . S
Cd85 O84 2.223 . S
Cd85 O88 2.297 . S
Cd85 O89 2.439 . S
Cd85 O95 2.240 . S
Cd86 O87 2.240 . S
Cd86 O94 2.223 . S
Cd86 O96 2.297 . S
Cd86 O97 2.439 . S
O87 Cd86 2.240 . S
O87 C92 1.279 . S
O88 Cd85 2.297 . S
O88 C90 1.247 . S
O89 Cd85 2.439 . S
O89 C90 1.208 . S
C90 O88 1.247 . S
C90 O89 1.208 . S
C91 O96 1.247 . S
C91 O97 1.208 . S
C92 O84 1.315 . S
C92 O87 1.279 . S
C93 O94 1.315 . S
C93 O95 1.279 . S
O94 Cd86 2.223 . S
O94 C93 1.315 . S
O95 Cd85 2.240 . S
O95 C93 1.279 . S
O96 Cd86 2.297 . S
O96 C91 1.247 . S
O97 Cd86 2.439 . S
O97 C91 1.208 . S
O98 Cd99 2.223 . S
O98 C106 1.315 . S
Cd99 O98 2.223 . S
Cd99 O102 2.297 . S
Cd99 O103 2.439 . S
Cd99 O109 2.240 . S
Cd100 O101 2.240 . S
Cd100 O108 2.223 . S
Cd100 O110 2.297 . S
Cd100 O111 2.439 . S
O101 Cd100 2.240 . S
O101 C106 1.279 . S
O102 Cd99 2.297 . S
O102 C104 1.247 . S
O103 Cd99 2.439 . S
O103 C104 1.208 . S
C104 O102 1.247 . S
C104 O103 1.208 . S
C105 O110 1.247 . S
C105 O111 1.208 . S
C106 O98 1.315 . S
C106 O101 1.279 . S
C107 O108 1.315 . S
C107 O109 1.279 . S
O108 Cd100 2.223 . S
O108 C107 1.315 . S
O109 Cd99 2.240 . S
O109 C107 1.279 . S
O110 Cd100 2.297 . S
O110 C105 1.247 . S
O111 Cd100 2.439 . S
O111 C105 1.208 . S
O112 Cd113 2.223 . S
O112 C120 1.315 . S
Cd113 O112 2.223 . S
Cd113 O116 2.297 . S
Cd113 O117 2.439 . S
Cd113 O123 2.240 . S
Cd114 O115 2.240 . S
Cd114 O122 2.223 . S
Cd114 O124 2.297 . S
Cd114 O125 2.439 . S
O115 Cd114 2.240 . S
O115 C120 1.279 . S
O116 Cd113 2.297 . S
O116 C118 1.247 . S
O117 Cd113 2.439 . S
O117 C118 1.208 . S
C118 O116 1.247 . S
C118 O117 1.208 . S
C119 O124 1.247 . S
C119 O125 1.208 . S
C120 O112 1.315 . S
C120 O115 1.279 . S
C121 O122 1.315 . S
C121 O123 1.279 . S
O122 Cd114 2.223 . S
O122 C121 1.315 . S
O123 Cd113 2.240 . S
O123 C121 1.279 . S
O124 Cd114 2.297 . S
O124 C119 1.247 . S
O125 Cd114 2.439 . S
O125 C119 1.208 . S
O126 Cd127 2.223 . S
O126 C134 1.315 . S
Cd127 O126 2.223 . S
Cd127 O130 2.297 . S
Cd127 O131 2.439 . S
Cd127 O137 2.240 . S
Cd128 O129 2.240 . S
Cd128 O136 2.223 . S
Cd128 O138 2.297 . S
Cd128 O139 2.439 . S
O129 Cd128 2.240 . S
O129 C134 1.279 . S
O130 Cd127 2.297 . S
O130 C132 1.247 . S
O131 Cd127 2.439 . S
O131 C132 1.208 . S
C132 O130 1.247 . S
C132 O131 1.208 . S
C133 O138 1.247 . S
C133 O139 1.208 . S
C134 O126 1.315 . S
C134 O129 1.279 . S
C135 O136 1.315 . S
C135 O137 1.279 . S
O136 Cd128 2.223 . S
O136 C135 1.315 . S
O137 Cd127 2.240 . S
O137 C135 1.279 . S
O138 Cd128 2.297 . S
O138 C133 1.247 . S
O139 Cd128 2.439 . S
O139 C133 1.208 . S
O140 Cd141 2.223 . S
O140 C148 1.315 . S
Cd141 O140 2.223 . S
Cd141 O144 2.297 . S
Cd141 O145 2.439 . S
Cd141 O151 2.240 . S
Cd142 O143 2.240 . S
Cd142 O150 2.223 . S
Cd142 O152 2.297 . S
Cd142 O153 2.439 . S
O143 Cd142 2.240 . S
O143 C148 1.279 . S
O144 Cd141 2.297 . S
O144 C146 1.247 . S
O145 Cd141 2.439 . S
O145 C146 1.208 . S
C146 O144 1.247 . S
C146 O145 1.208 . S
C147 O152 1.247 . S
C147 O153 1.208 . S
C148 O140 1.315 . S
C148 O143 1.279 . S
C149 O150 1.315 . S
C149 O151 1.279 . S
O150 Cd142 2.223 . S
O150 C149 1.315 . S
O151 Cd141 2.240 . S
O151 C149 1.279 . S
O152 Cd142 2.297 . S
O152 C147 1.247 . S
O153 Cd142 2.439 . S
O153 C147 1.208 . S
O154 Cd155 2.223 . S
O154 C162 1.315 . S
Cd155 O154 2.223 . S
Cd155 O158 2.297 . S
Cd155 O159 2.439 . S
Cd155 O165 2.240 . S
Cd156 O157 2.240 . S
Cd156 O164 2.223 . S
Cd156 O166 2.297 . S
Cd156 O167 2.439 . S
O157 Cd156 2.240 . S
O157 C162 1.279 . S
O158 Cd155 2.297 . S
O158 C160 1.247 . S
O159 Cd155 2.439 . S
O159 C160 1.208 . S
C160 O158 1.247 . S
C160 O159 1.208 . S
C161 O166 1.247 . S
C161 O167 1.208 . S
C162 O154 1.315 . S
C162 O157 1.279 . S
C163 O164 1.315 . S
C163 O165 1.279 . S
O164 Cd156 2.223 . S
O164 C163 1.315 . S
O165 Cd155 2.240 . S
O165 C163 1.279 . S
O166 Cd156 2.297 . S
O166 C161 1.247 . S
O167 Cd156 2.439 . S
O167 C161 1.208 . S
O168 Cd169 2.223 . S
O168 C176 1.315 . S
Cd169 O168 2.223 . S
Cd169 O172 2.297 . S
Cd169 O173 2.439 . S
Cd169 O179 2.240 . S
Cd170 O171 2.240 . S
Cd170 O178 2.223 . S
Cd170 O180 2.297 . S
Cd170 O181 2.439 . S
O171 Cd170 2.240 . S
O171 C176 1.279 . S
O172 Cd169 2.297 . S
O172 C174 1.247 . S
O173 Cd169 2.439 . S
O173 C174 1.208 . S
C174 O172 1.247 . S
C174 O173 1.208 . S
C175 O180 1.247 . S
C175 O181 1.208 . S
C176 O168 1.315 . S
C176 O171 1.279 . S
C177 O178 1.315 . S
C177 O179 1.279 . S
O178 Cd170 2.223 . S
O178 C177 1.315 . S
O179 Cd169 2.240 . S
O179 C177 1.279 . S
O180 Cd170 2.297 . S
O180 C175 1.247 . S
O181 Cd170 2.439 . S
O181 C175 1.208 . S
O182 Cd183 2.223 . S
O182 C190 1.315 . S
Cd183 O182 2.223 . S
Cd183 O186 2.297 . S
Cd183 O187 2.439 . S
Cd183 O193 2.240 . S
Cd184 O185 2.240 . S
Cd184 O192 2.223 . S
Cd184 O194 2.297 . S
Cd184 O195 2.439 . S
O185 Cd184 2.240 . S
O185 C190 1.279 . S
O186 Cd183 2.297 . S
O186 C188 1.247 . S
O187 Cd183 2.439 . S
O187 C188 1.208 . S
C188 O186 1.247 . S
C188 O187 1.208 . S
C189 O194 1.247 . S
C189 O195 1.208 . S
C190 O182 1.315 . S
C190 O185 1.279 . S
C191 O192 1.315 . S
C191 O193 1.279 . S
O192 Cd184 2.223 . S
O192 C191 1.315 . S
O193 Cd183 2.240 . S
O193 C191 1.279 . S
O194 Cd184 2.297 . S
O194 C189 1.247 . S
O195 Cd184 2.439 . S
O195 C189 1.208 . S
O196 Cd197 2.223 . S
O196 C204 1.315 . S
Cd197 O196 2.223 . S
Cd197 O200 2.297 . S
Cd197 O201 2.439 . S
Cd197 O207 2.240 . S
Cd198 O199 2.240 . S
Cd198 O206 2.223 . S
Cd198 O208 2.297 . S
Cd198 O209 2.439 . S
O199 Cd198 2.240 . S
O199 C204 1.279 . S
O200 Cd197 2.297 . S
O200 C202 1.247 . S
O201 Cd197 2.439 . S
O201 C202 1.208 . S
C202 O200 1.247 . S
C202 O201 1.208 . S
C203 O208 1.247 . S
C203 O209 1.208 . S
C204 O196 1.315 . S
C204 O199 1.279 . S
C205 O206 1.315 . S
C205 O207 1.279 . S
O206 Cd198 2.223 . S
O206 C205 1.315 . S
O207 Cd197 2.240 . S
O207 C205 1.279 . S
O208 Cd198 2.297 . S
O208 C203 1.247 . S
O209 Cd198 2.439 . S
O209 C203 1.208 . S
O210 Cd211 2.223 . S
O210 C218 1.315 . S
Cd211 O210 2.223 . S
Cd211 O214 2.297 . S
Cd211 O215 2.439 . S
Cd211 O221 2.240 . S
Cd212 O213 2.240 . S
Cd212 O220 2.223 . S
Cd212 O222 2.297 . S
Cd212 O223 2.439 . S
O213 Cd212 2.240 . S
O213 C218 1.279 . S
O214 Cd211 2.297 . S
O214 C216 1.247 . S
O215 Cd211 2.439 . S
O215 C216 1.208 . S
C216 O214 1.247 . S
C216 O215 1.208 . S
C217 O222 1.247 . S
C217 O223 1.208 . S
C218 O210 1.315 . S
C218 O213 1.279 . S
C219 O220 1.315 . S
C219 O221 1.279 . S
O220 Cd212 2.223 . S
O220 C219 1.315 . S
O221 Cd211 2.240 . S
O221 C219 1.279 . S
O222 Cd212 2.297 . S
O222 C217 1.247 . S
O223 Cd212 2.439 . S
O223 C217 1.208 . S
H224 C242 0.951 . S
H225 C244 0.951 . S
H226 C246 0.950 . S
H227 C247 0.950 . S
H228 C249 0.950 . S
H229 C252 0.950 . S
H230 C253 0.950 . S
H231 C255 0.950 . S
H232 C256 0.950 . S
H233 C257 0.951 . S
H234 C259 0.951 . S
H235 C261 0.950 . S
H236 C262 0.950 . S
H237 C264 0.950 . S
H238 C267 0.950 . S
H239 C268 0.950 . S
H240 C270 0.950 . S
H241 C271 0.950 . S
C242 H224 0.951 . S
C242 C243 1.366 . S
C242 C244 1.388 . S
C243 C242 1.366 . S
C243 C247 1.385 . S
C244 H225 0.951 . S
C244 C242 1.388 . S
C244 C245 1.366 . S
C245 C244 1.366 . S
C245 C246 1.414 . S
C245 C248 1.499 . S
C246 H226 0.950 . S
C246 C245 1.414 . S
C246 C247 1.374 . S
C247 H227 0.950 . S
C247 C243 1.385 . S
C247 C246 1.374 . S
C248 C245 1.499 . S
C248 C249 1.373 . S
C248 C250 1.389 . S
C249 H228 0.950 . S
C249 C248 1.373 . S
C249 C265 1.377 . S
C250 C248 1.389 . S
C250 C251 1.524 . S
C250 C264 1.377 . S
C251 C250 1.524 . S
C251 C252 1.397 . S
C251 C256 1.363 . S
C252 H229 0.950 . S
C252 C251 1.397 . S
C252 C253 1.334 . S
C253 H230 0.950 . S
C253 C252 1.334 . S
C253 C254 1.287 . S
C254 C253 1.287 . S
C254 C255 1.524 . S
C254 H273 0.913 . S
C255 H231 0.950 . S
C255 C254 1.524 . S
C255 C256 1.415 . S
C256 H232 0.950 . S
C256 C251 1.363 . S
C256 C255 1.415 . S
C257 H233 0.951 . S
C257 C258 1.366 . S
C257 C259 1.388 . S
C258 C257 1.366 . S
C258 C262 1.385 . S
C259 H234 0.951 . S
C259 C257 1.388 . S
C259 C260 1.366 . S
C260 C259 1.366 . S
C260 C261 1.414 . S
C260 C263 1.499 . S
C261 H235 0.950 . S
C261 C260 1.414 . S
C261 C262 1.374 . S
C262 H236 0.950 . S
C262 C258 1.385 . S
C262 C261 1.374 . S
C263 C260 1.499 . S
C263 C264 1.373 . S
C263 C265 1.389 . S
C264 H237 0.950 . S
C264 C250 1.377 . S
C264 C263 1.373 . S
C265 C249 1.377 . S
C265 C263 1.389 . S
C265 C266 1.524 . S
C266 C265 1.524 . S
C266 C267 1.397 . S
C266 C271 1.363 . S
C267 H238 0.950 . S
C267 C266 1.397 . S
C267 C268 1.334 . S
C268 H239 0.950 . S
C268 C267 1.334 . S
C268 C269 1.287 . S
C269 C268 1.287 . S
C269 C270 1.524 . S
C269 H272 0.999 . S
C270 H240 0.950 . S
C270 C269 1.524 . S
C270 C271 1.415 . S
C271 H241 0.950 . S
C271 C266 1.363 . S
C271 C270 1.415 . S
H272 C269 0.999 . S
H273 C254 0.913 . S
H274 C292 0.951 . S
H275 C294 0.951 1_545 S
H276 C296 0.950 . S
H277 C297 0.950 . S
H278 C299 0.954 . S
H279 C302 0.950 . S
H280 C303 0.950 . S
H281 C305 0.950 . S
H282 C306 0.950 1_545 S
H283 C307 0.951 . S
H284 C309 0.951 1_565 S
H285 C311 0.950 . S
H286 C312 0.950 . S
H287 C314 0.954 . S
H288 C317 0.950 . S
H289 C318 0.950 . S
H290 C320 0.950 . S
H291 C321 0.950 1_565 S
C292 H274 0.951 . S
C292 C293 1.366 . S
C292 C294 1.388 . S
C293 C292 1.366 . S
C293 C297 1.385 . S
C294 H275 0.951 1_565 S
C294 C292 1.388 . S
C294 C295 1.366 . S
C295 C294 1.366 . S
C295 C296 1.414 . S
C295 C298 1.499 . S
C296 H276 0.950 . S
C296 C295 1.414 . S
C296 C297 1.374 . S
C297 H277 0.950 . S
C297 C293 1.385 . S
C297 C296 1.374 . S
C298 C295 1.499 . S
C298 C299 1.333 1_665 S
C298 C300 1.389 . S
C299 H278 0.954 . S
C299 C298 1.333 1_445 S
C299 C315 1.415 . S
C300 C298 1.389 . S
C300 C301 1.524 . S
C300 C314 1.415 . S
C301 C300 1.524 . S
C301 C302 1.397 . S
C301 C306 1.363 . S
C302 H279 0.950 . S
C302 C301 1.397 . S
C302 C303 1.334 . S
C303 H280 0.950 . S
C303 C302 1.334 . S
C303 C304 1.287 . S
C304 C303 1.287 . S
C304 C305 1.524 . S
C304 H323 0.913 . S
C305 H281 0.950 . S
C305 C304 1.524 . S
C305 C306 1.415 . S
C306 H282 0.950 1_565 S
C306 C301 1.363 . S
C306 C305 1.415 . S
C307 H283 0.951 . S
C307 C308 1.366 . S
C307 C309 1.388 . S
C308 C307 1.366 . S
C308 C312 1.385 . S
C309 H284 0.951 1_545 S
C309 C307 1.388 . S
C309 C310 1.366 . S
C310 C309 1.366 . S
C310 C311 1.414 . S
C310 C313 1.499 . S
C311 H285 0.950 . S
C311 C310 1.414 . S
C311 C312 1.374 . S
C312 H286 0.950 . S
C312 C308 1.385 . S
C312 C311 1.374 . S
C313 C310 1.499 . S
C313 C314 1.333 1_445 S
C313 C315 1.389 . S
C314 H287 0.954 . S
C314 C300 1.415 . S
C314 C313 1.333 1_665 S
C315 C299 1.415 . S
C315 C313 1.389 . S
C315 C316 1.524 . S
C316 C315 1.524 . S
C316 C317 1.397 . S
C316 C321 1.363 . S
C317 H288 0.950 . S
C317 C316 1.397 . S
C317 C318 1.334 . S
C318 H289 0.950 . S
C318 C317 1.334 . S
C318 C319 1.287 . S
C319 C318 1.287 . S
C319 C320 1.524 . S
C319 H322 0.999 . S
C320 H290 0.950 . S
C320 C319 1.524 . S
C320 C321 1.415 . S
C321 H291 0.950 1_545 S
C321 C316 1.363 . S
C321 C320 1.415 . S
H322 C319 0.999 . S
H323 C304 0.913 . S
H324 C342 0.951 . S
H325 C344 0.951 . S
H326 C346 0.950 . S
H327 C347 0.950 . S
H328 C349 0.950 . S
H329 C352 0.950 . S
H330 C353 0.950 . S
H331 C355 0.950 . S
H332 C356 0.950 . S
H333 C357 0.951 . S
H334 C359 0.951 . S
H335 C361 0.950 . S
H336 C362 0.950 . S
H337 C364 0.950 . S
H338 C367 0.950 . S
H339 C368 0.950 . S
H340 C370 0.950 . S
H341 C371 0.950 . S
C342 H324 0.951 . S
C342 C343 1.366 . S
C342 C344 1.388 . S
C343 C342 1.366 . S
C343 C347 1.385 . S
C344 H325 0.951 . S
C344 C342 1.388 . S
C344 C345 1.366 . S
C345 C344 1.366 . S
C345 C346 1.414 . S
C345 C348 1.499 . S
C346 H326 0.950 . S
C346 C345 1.414 . S
C346 C347 1.374 . S
C347 H327 0.950 . S
C347 C343 1.385 . S
C347 C346 1.374 . S
C348 C345 1.499 . S
C348 C349 1.373 . S
C348 C350 1.389 1_565 S
C349 H328 0.950 . S
C349 C348 1.373 . S
C349 C365 1.377 . S
C350 C348 1.389 1_545 S
C350 C351 1.524 . S
C350 C364 1.377 . S
C351 C350 1.524 . S
C351 C352 1.397 . S
C351 C356 1.363 . S
C352 H329 0.950 . S
C352 C351 1.397 . S
C352 C353 1.334 . S
C353 H330 0.950 . S
C353 C352 1.334 . S
C353 C354 1.287 . S
C354 C353 1.287 . S
C354 C355 1.524 . S
C354 H373 0.913 . S
C355 H331 0.950 . S
C355 C354 1.524 . S
C355 C356 1.415 . S
C356 H332 0.950 . S
C356 C351 1.363 . S
C356 C355 1.415 . S
C357 H333 0.951 . S
C357 C358 1.366 . S
C357 C359 1.388 . S
C358 C357 1.366 . S
C358 C362 1.385 . S
C359 H334 0.951 . S
C359 C357 1.388 . S
C359 C360 1.366 . S
C360 C359 1.366 . S
C360 C361 1.414 . S
C360 C363 1.499 . S
C361 H335 0.950 . S
C361 C360 1.414 . S
C361 C362 1.374 . S
C362 H336 0.950 . S
C362 C358 1.385 . S
C362 C361 1.374 . S
C363 C360 1.499 . S
C363 C364 1.373 . S
C363 C365 1.389 1_545 S
C364 H337 0.950 . S
C364 C350 1.377 . S
C364 C363 1.373 . S
C365 C349 1.377 . S
C365 C363 1.389 1_565 S
C365 C366 1.524 . S
C366 C365 1.524 . S
C366 C367 1.397 . S
C366 C371 1.363 . S
C367 H338 0.950 . S
C367 C366 1.397 . S
C367 C368 1.334 . S
C368 H339 0.950 . S
C368 C367 1.334 . S
C368 C369 1.287 . S
C369 C368 1.287 . S
C369 C370 1.524 . S
C369 H372 0.999 . S
C370 H340 0.950 . S
C370 C369 1.524 . S
C370 C371 1.415 . S
C371 H341 0.950 . S
C371 C366 1.363 . S
C371 C370 1.415 . S
H372 C369 0.999 . S
H373 C354 0.913 . S
H374 C392 0.951 . S
H375 C394 0.951 . S
H376 C396 0.950 . S
H377 C397 0.950 . S
H378 C399 0.950 . S
H379 C402 0.950 1_455 S
H380 C403 0.931 1_455 S
H381 C405 0.950 . S
H382 C406 0.950 . S
H383 C407 0.951 . S
H384 C409 0.951 . S
H385 C411 0.950 . S
H386 C412 0.950 . S
H387 C414 0.950 . S
H388 C417 0.950 1_655 S
H389 C418 0.931 1_655 S
H390 C420 0.950 . S
H391 C421 0.950 . S
C392 H374 0.951 . S
C392 C393 1.366 . S
C392 C394 1.388 . S
C393 C392 1.366 . S
C393 C397 1.385 . S
C394 H375 0.951 . S
C394 C392 1.388 . S
C394 C395 1.366 . S
C395 C394 1.366 . S
C395 C396 1.414 . S
C395 C398 1.499 . S
C396 H376 0.950 . S
C396 C395 1.414 . S
C396 C397 1.374 . S
C397 H377 0.950 . S
C397 C393 1.385 . S
C397 C396 1.374 . S
C398 C395 1.499 . S
C398 C399 1.373 . S
C398 C400 1.389 1_455 S
C399 H378 0.950 . S
C399 C398 1.373 . S
C399 C415 1.377 . S
C400 C398 1.389 1_655 S
C400 C401 1.524 . S
C400 C414 1.377 . S
C401 C400 1.524 . S
C401 C402 1.397 . S
C401 C406 1.363 . S
C402 H379 0.950 1_655 S
C402 C401 1.397 . S
C402 C403 1.334 . S
C403 H380 0.931 1_655 S
C403 C402 1.334 . S
C403 C404 1.287 . S
C404 C403 1.287 . S
C404 C405 1.524 . S
C404 H423 0.913 . S
C405 H381 0.950 . S
C405 C404 1.524 . S
C405 C406 1.415 . S
C406 H382 0.950 . S
C406 C401 1.363 . S
C406 C405 1.415 . S
C407 H383 0.951 . S
C407 C408 1.366 . S
C407 C409 1.388 . S
C408 C407 1.366 . S
C408 C412 1.385 . S
C409 H384 0.951 . S
C409 C407 1.388 . S
C409 C410 1.366 . S
C410 C409 1.366 . S
C410 C411 1.414 . S
C410 C413 1.499 . S
C411 H385 0.950 . S
C411 C410 1.414 . S
C411 C412 1.374 . S
C412 H386 0.950 . S
C412 C408 1.385 . S
C412 C411 1.374 . S
C413 C410 1.499 . S
C413 C414 1.373 . S
C413 C415 1.389 1_655 S
C414 H387 0.950 . S
C414 C400 1.377 . S
C414 C413 1.373 . S
C415 C399 1.377 . S
C415 C413 1.389 1_455 S
C415 C416 1.524 . S
C416 C415 1.524 . S
C416 C417 1.397 . S
C416 C421 1.363 . S
C417 H388 0.950 1_455 S
C417 C416 1.397 . S
C417 C418 1.334 . S
C418 H389 0.931 1_455 S
C418 C417 1.334 . S
C418 C419 1.287 . S
C419 C418 1.287 . S
C419 C420 1.524 . S
C419 H422 0.999 . S
C420 H390 0.950 . S
C420 C419 1.524 . S
C420 C421 1.415 . S
C421 H391 0.950 . S
C421 C416 1.363 . S
C421 C420 1.415 . S
H422 C419 0.999 . S
H423 C404 0.913 . S
H424 C442 0.951 . S
H425 C444 0.951 . S
H426 C446 0.950 . S
H427 C447 0.950 . S
H428 C449 0.950 . S
H429 C452 0.950 . S
H430 C453 0.950 . S
H431 C455 0.950 . S
H432 C456 0.950 . S
H433 C457 0.951 . S
H434 C459 0.951 . S
H435 C461 0.950 . S
H436 C462 0.950 . S
H437 C464 0.950 . S
H438 C467 0.950 . S
H439 C468 0.950 . S
H440 C470 0.950 . S
H441 C471 0.950 . S
C442 H424 0.951 . S
C442 C443 1.366 . S
C442 C444 1.388 . S
C443 C442 1.366 . S
C443 C447 1.385 . S
C444 H425 0.951 . S
C444 C442 1.388 . S
C444 C445 1.366 . S
C445 C444 1.366 . S
C445 C446 1.414 . S
C445 C448 1.499 . S
C446 H426 0.950 . S
C446 C445 1.414 . S
C446 C447 1.374 . S
C447 H427 0.950 . S
C447 C443 1.385 . S
C447 C446 1.374 . S
C448 C445 1.499 . S
C448 C449 1.373 . S
C448 C450 1.389 . S
C449 H428 0.950 . S
C449 C448 1.373 . S
C449 C465 1.377 . S
C450 C448 1.389 . S
C450 C451 1.524 . S
C450 C464 1.377 . S
C451 C450 1.524 . S
C451 C452 1.397 . S
C451 C456 1.363 . S
C452 H429 0.950 . S
C452 C451 1.397 . S
C452 C453 1.334 . S
C453 H430 0.950 . S
C453 C452 1.334 . S
C453 C454 1.287 . S
C454 C453 1.287 . S
C454 C455 1.524 . S
C454 H473 0.913 . S
C455 H431 0.950 . S
C455 C454 1.524 . S
C455 C456 1.415 . S
C456 H432 0.950 . S
C456 C451 1.363 . S
C456 C455 1.415 . S
C457 H433 0.951 . S
C457 C458 1.366 . S
C457 C459 1.388 . S
C458 C457 1.366 . S
C458 C462 1.385 . S
C459 H434 0.951 . S
C459 C457 1.388 . S
C459 C460 1.366 . S
C460 C459 1.366 . S
C460 C461 1.414 . S
C460 C463 1.499 . S
C461 H435 0.950 . S
C461 C460 1.414 . S
C461 C462 1.374 . S
C462 H436 0.950 . S
C462 C458 1.385 . S
C462 C461 1.374 . S
C463 C460 1.499 . S
C463 C464 1.373 . S
C463 C465 1.389 . S
C464 H437 0.950 . S
C464 C450 1.377 . S
C464 C463 1.373 . S
C465 C449 1.377 . S
C465 C463 1.389 . S
C465 C466 1.524 . S
C466 C465 1.524 . S
C466 C467 1.397 . S
C466 C471 1.363 . S
C467 H438 0.950 . S
C467 C466 1.397 . S
C467 C468 1.334 . S
C468 H439 0.950 . S
C468 C467 1.334 . S
C468 C469 1.287 . S
C469 C468 1.287 . S
C469 C470 1.524 . S
C469 H472 0.999 . S
C470 H440 0.950 . S
C470 C469 1.524 . S
C470 C471 1.415 . S
C471 H441 0.950 . S
C471 C466 1.363 . S
C471 C470 1.415 . S
H472 C469 0.999 . S
H473 C454 0.913 . S
H474 C492 0.951 . S
H475 C494 0.951 1_565 S
H476 C496 0.950 . S
H477 C497 0.950 . S
H478 C499 0.950 . S
H479 C502 0.950 . S
H480 C503 0.950 . S
H481 C505 0.950 . S
H482 C506 0.950 . S
H483 C507 0.951 . S
H484 C509 0.951 1_545 S
H485 C511 0.950 . S
H486 C512 0.950 . S
H487 C514 0.950 . S
H488 C517 0.950 . S
H489 C518 0.950 . S
H490 C520 0.950 . S
H491 C521 0.950 . S
C492 H474 0.951 . S
C492 C493 1.366 . S
C492 C494 1.388 . S
C493 C492 1.366 . S
C493 C497 1.385 . S
C494 H475 0.951 1_545 S
C494 C492 1.388 . S
C494 C495 1.366 . S
C495 C494 1.366 . S
C495 C496 1.414 . S
C495 C498 1.499 . S
C496 H476 0.950 . S
C496 C495 1.414 . S
C496 C497 1.374 . S
C497 H477 0.950 . S
C497 C493 1.385 . S
C497 C496 1.374 . S
C498 C495 1.499 . S
C498 C499 1.373 . S
C498 C500 1.389 1_545 S
C499 H478 0.950 . S
C499 C498 1.373 . S
C499 C515 1.377 . S
C500 C498 1.389 1_565 S
C500 C501 1.524 . S
C500 C514 1.377 . S
C501 C500 1.524 . S
C501 C502 1.397 . S
C501 C506 1.363 . S
C502 H479 0.950 . S
C502 C501 1.397 . S
C502 C503 1.334 . S
C503 H480 0.950 . S
C503 C502 1.334 . S
C503 C504 1.287 . S
C504 C503 1.287 . S
C504 C505 1.524 . S
C504 H523 0.913 . S
C505 H481 0.950 . S
C505 C504 1.524 . S
C505 C506 1.415 . S
C506 H482 0.950 . S
C506 C501 1.363 . S
C506 C505 1.415 . S
C507 H483 0.951 . S
C507 C508 1.366 . S
C507 C509 1.388 . S
C508 C507 1.366 . S
C508 C512 1.385 . S
C509 H484 0.951 1_565 S
C509 C507 1.388 . S
C509 C510 1.366 . S
C510 C509 1.366 . S
C510 C511 1.414 . S
C510 C513 1.499 . S
C511 H485 0.950 . S
C511 C510 1.414 . S
C511 C512 1.374 . S
C512 H486 0.950 . S
C512 C508 1.385 . S
C512 C511 1.374 . S
C513 C510 1.499 . S
C513 C514 1.373 . S
C513 C515 1.389 1_565 S
C514 H487 0.950 . S
C514 C500 1.377 . S
C514 C513 1.373 . S
C515 C499 1.377 . S
C515 C513 1.389 1_545 S
C515 C516 1.524 . S
C516 C515 1.524 . S
C516 C517 1.397 . S
C516 C521 1.363 . S
C517 H488 0.950 . S
C517 C516 1.397 . S
C517 C518 1.334 . S
C518 H489 0.950 . S
C518 C517 1.334 . S
C518 C519 1.287 . S
C519 C518 1.287 . S
C519 C520 1.524 . S
C519 H522 0.999 . S
C520 H490 0.950 . S
C520 C519 1.524 . S
C520 C521 1.415 . S
C521 H491 0.950 . S
C521 C516 1.363 . S
C521 C520 1.415 . S
H522 C519 0.999 . S
H523 C504 0.913 . S
H524 C542 0.951 . S
H525 C544 0.951 . S
H526 C546 0.950 . S
H527 C547 0.950 . S
H528 C549 0.950 . S
H529 C552 0.950 . S
H530 C553 0.950 . S
H531 C555 0.950 . S
H532 C556 0.950 . S
H533 C557 0.951 . S
H534 C559 0.951 . S
H535 C561 0.950 . S
H536 C562 0.950 . S
H537 C564 0.950 . S
H538 C567 0.950 . S
H539 C568 0.950 . S
H540 C570 0.950 . S
H541 C571 0.950 . S
C542 H524 0.951 . S
C542 C543 1.366 . S
C542 C544 1.388 . S
C543 C542 1.366 . S
C543 C547 1.385 . S
C544 H525 0.951 . S
C544 C542 1.388 . S
C544 C545 1.366 . S
C545 C544 1.366 . S
C545 C546 1.414 . S
C545 C548 1.499 . S
C546 H526 0.950 . S
C546 C545 1.414 . S
C546 C547 1.374 . S
C547 H527 0.950 . S
C547 C543 1.385 . S
C547 C546 1.374 . S
C548 C545 1.499 . S
C548 C549 1.373 . S
C548 C550 1.389 . S
C549 H528 0.950 . S
C549 C548 1.373 . S
C549 C565 1.377 1_655 S
C550 C548 1.389 . S
C550 C551 1.524 . S
C550 C564 1.377 1_655 S
C551 C550 1.524 . S
C551 C552 1.397 . S
C551 C556 1.363 . S
C552 H529 0.950 . S
C552 C551 1.397 . S
C552 C553 1.334 . S
C553 H530 0.950 . S
C553 C552 1.334 . S
C553 C554 1.287 . S
C554 C553 1.287 . S
C554 C555 1.524 . S
C554 H573 0.913 . S
C555 H531 0.950 . S
C555 C554 1.524 . S
C555 C556 1.415 . S
C556 H532 0.950 . S
C556 C551 1.363 . S
C556 C555 1.415 . S
C557 H533 0.951 . S
C557 C558 1.366 . S
C557 C559 1.388 . S
C558 C557 1.366 . S
C558 C562 1.385 . S
C559 H534 0.951 . S
C559 C557 1.388 . S
C559 C560 1.366 . S
C560 C559 1.366 . S
C560 C561 1.414 . S
C560 C563 1.499 . S
C561 H535 0.950 . S
C561 C560 1.414 . S
C561 C562 1.374 . S
C562 H536 0.950 . S
C562 C558 1.385 . S
C562 C561 1.374 . S
C563 C560 1.499 . S
C563 C564 1.373 . S
C563 C565 1.389 . S
C564 H537 0.950 . S
C564 C550 1.377 1_455 S
C564 C563 1.373 . S
C565 C549 1.377 1_455 S
C565 C563 1.389 . S
C565 C566 1.524 . S
C566 C565 1.524 . S
C566 C567 1.397 . S
C566 C571 1.363 . S
C567 H538 0.950 . S
C567 C566 1.397 . S
C567 C568 1.334 . S
C568 H539 0.950 . S
C568 C567 1.334 . S
C568 C569 1.287 . S
C569 C568 1.287 . S
C569 C570 1.524 . S
C569 H572 0.999 . S
C570 H540 0.950 . S
C570 C569 1.524 . S
C570 C571 1.415 . S
C571 H541 0.950 . S
C571 C566 1.363 . S
C571 C570 1.415 . S
H572 C569 0.999 . S
H573 C554 0.913 . S
H574 C592 0.951 . S
H575 C594 0.951 . S
H576 C596 0.950 . S
H577 C597 0.950 . S
H578 C599 0.950 . S
H579 C602 0.912 1_556 S
H580 C603 0.950 . S
H581 C605 0.950 . S
H582 C606 0.950 . S
H583 C607 0.951 . S
H584 C609 0.951 . S
H585 C611 0.950 . S
H586 C612 0.950 . S
H587 C614 0.950 . S
H588 C617 0.912 1_554 S
H589 C618 0.950 . S
H590 C620 0.950 . S
H591 C621 0.950 . S
C592 H574 0.951 . S
C592 C593 1.366 . S
C592 C594 1.388 . S
C593 C592 1.366 . S
C593 C597 1.385 . S
C594 H575 0.951 . S
C594 C592 1.388 . S
C594 C595 1.366 . S
C595 C594 1.366 . S
C595 C596 1.414 . S
C595 C598 1.499 . S
C596 H576 0.950 . S
C596 C595 1.414 . S
C596 C597 1.374 . S
C597 H577 0.950 . S
C597 C593 1.385 . S
C597 C596 1.374 . S
C598 C595 1.499 . S
C598 C599 1.373 . S
C598 C600 1.389 . S
C599 H578 0.950 . S
C599 C598 1.373 . S
C599 C615 1.377 1_554 S
C600 C598 1.389 . S
C600 C601 1.524 . S
C600 C614 1.377 1_554 S
C601 C600 1.524 . S
C601 C602 1.397 . S
C601 C606 1.363 . S
C602 H579 0.912 1_554 S
C602 C601 1.397 . S
C602 C603 1.334 . S
C603 H580 0.950 . S
C603 C602 1.334 . S
C603 C604 1.287 . S
C604 C603 1.287 . S
C604 C605 1.524 . S
C604 H623 0.913 . S
C605 H581 0.950 . S
C605 C604 1.524 . S
C605 C606 1.415 . S
C606 H582 0.950 . S
C606 C601 1.363 . S
C606 C605 1.415 . S
C607 H583 0.951 . S
C607 C608 1.366 . S
C607 C609 1.388 . S
C608 C607 1.366 . S
C608 C612 1.385 . S
C609 H584 0.951 . S
C609 C607 1.388 . S
C609 C610 1.366 . S
C610 C609 1.366 . S
C610 C611 1.414 . S
C610 C613 1.499 . S
C611 H585 0.950 . S
C611 C610 1.414 . S
C611 C612 1.374 . S
C612 H586 0.950 . S
C612 C608 1.385 . S
C612 C611 1.374 . S
C613 C610 1.499 . S
C613 C614 1.373 . S
C613 C615 1.389 . S
C614 H587 0.950 . S
C614 C600 1.377 1_556 S
C614 C613 1.373 . S
C615 C599 1.377 1_556 S
C615 C613 1.389 . S
C615 C616 1.524 . S
C616 C615 1.524 . S
C616 C617 1.397 . S
C616 C621 1.363 . S
C617 H588 0.912 1_556 S
C617 C616 1.397 . S
C617 C618 1.334 . S
C618 H589 0.950 . S
C618 C617 1.334 . S
C618 C619 1.287 . S
C619 C618 1.287 . S
C619 C620 1.524 . S
C619 H622 0.999 . S
C620 H590 0.950 . S
C620 C619 1.524 . S
C620 C621 1.415 . S
C621 H591 0.950 . S
C621 C616 1.363 . S
C621 C620 1.415 . S
H622 C619 0.999 . S
H623 C604 0.913 . S
H624 C642 0.951 . S
H625 C644 0.951 . S
H626 C646 0.950 . S
H627 C647 0.950 . S
H628 C649 0.950 . S
H629 C652 0.950 . S
H630 C653 0.950 . S
H631 C655 0.950 . S
H632 C656 0.950 . S
H633 C657 0.951 . S
H634 C659 0.951 . S
H635 C661 0.950 . S
H636 C662 0.950 . S
H637 C664 0.950 . S
H638 C667 0.950 . S
H639 C668 0.950 . S
H640 C670 0.950 . S
H641 C671 0.950 . S
C642 H624 0.951 . S
C642 C643 1.366 . S
C642 C644 1.388 . S
C643 C642 1.366 . S
C643 C647 1.385 . S
C644 H625 0.951 . S
C644 C642 1.388 . S
C644 C645 1.366 . S
C645 C644 1.366 . S
C645 C646 1.414 . S
C645 C648 1.499 . S
C646 H626 0.950 . S
C646 C645 1.414 . S
C646 C647 1.374 . S
C647 H627 0.950 . S
C647 C643 1.385 . S
C647 C646 1.374 . S
C648 C645 1.499 . S
C648 C649 1.362 1_556 S
C648 C650 1.389 . S
C649 H628 0.950 . S
C649 C648 1.362 1_554 S
C649 C665 1.387 1_455 S
C650 C648 1.389 . S
C650 C651 1.524 . S
C650 C664 1.387 1_455 S
C651 C650 1.524 . S
C651 C652 1.397 . S
C651 C656 1.363 . S
C652 H629 0.950 . S
C652 C651 1.397 . S
C652 C653 1.334 . S
C653 H630 0.950 . S
C653 C652 1.334 . S
C653 C654 1.287 . S
C654 C653 1.287 . S
C654 C655 1.524 . S
C654 H673 0.913 . S
C655 H631 0.950 . S
C655 C654 1.524 . S
C655 C656 1.415 . S
C656 H632 0.950 . S
C656 C651 1.363 . S
C656 C655 1.415 . S
C657 H633 0.951 . S
C657 C658 1.366 . S
C657 C659 1.388 . S
C658 C657 1.366 . S
C658 C662 1.385 . S
C659 H634 0.951 . S
C659 C657 1.388 . S
C659 C660 1.366 . S
C660 C659 1.366 . S
C660 C661 1.414 . S
C660 C663 1.499 . S
C661 H635 0.950 . S
C661 C660 1.414 . S
C661 C662 1.374 . S
C662 H636 0.950 . S
C662 C658 1.385 . S
C662 C661 1.374 . S
C663 C660 1.499 . S
C663 C664 1.362 1_554 S
C663 C665 1.389 . S
C664 H637 0.950 . S
C664 C650 1.387 1_655 S
C664 C663 1.362 1_556 S
C665 C649 1.387 1_655 S
C665 C663 1.389 . S
C665 C666 1.524 . S
C666 C665 1.524 . S
C666 C667 1.397 . S
C666 C671 1.363 . S
C667 H638 0.950 . S
C667 C666 1.397 . S
C667 C668 1.334 . S
C668 H639 0.950 . S
C668 C667 1.334 . S
C668 C669 1.287 . S
C669 C668 1.287 . S
C669 C670 1.524 . S
C669 H672 0.999 . S
C670 H640 0.950 . S
C670 C669 1.524 . S
C670 C671 1.415 . S
C671 H641 0.950 . S
C671 C666 1.363 . S
C671 C670 1.415 . S
H672 C669 0.999 . S
H673 C654 0.913 . S
H674 C692 0.951 . S
H675 C694 0.951 . S
H676 C696 0.950 . S
H677 C697 0.950 . S
H678 C699 0.950 . S
H679 C702 0.950 . S
H680 C703 0.950 . S
H681 C705 0.950 . S
H682 C706 0.950 . S
H683 C707 0.951 . S
H684 C709 0.951 . S
H685 C711 0.950 . S
H686 C712 0.950 . S
H687 C714 0.950 . S
H688 C717 0.950 . S
H689 C718 0.950 . S
H690 C720 0.950 . S
H691 C721 0.950 . S
C692 H674 0.951 . S
C692 C693 1.366 . S
C692 C694 1.388 . S
C693 C692 1.366 . S
C693 C697 1.385 . S
C694 H675 0.951 . S
C694 C692 1.388 . S
C694 C695 1.366 . S
C695 C694 1.366 . S
C695 C696 1.414 . S
C695 C698 1.499 . S
C696 H676 0.950 . S
C696 C695 1.414 . S
C696 C697 1.374 . S
C697 H677 0.950 . S
C697 C693 1.385 . S
C697 C696 1.374 . S
C698 C695 1.499 . S
C698 C699 1.373 . S
C698 C700 1.389 . S
C699 H678 0.950 . S
C699 C698 1.373 . S
C699 C715 1.377 . S
C700 C698 1.389 . S
C700 C701 1.524 . S
C700 C714 1.377 . S
C701 C700 1.524 . S
C701 C702 1.397 . S
C701 C706 1.363 . S
C702 H679 0.950 . S
C702 C701 1.397 . S
C702 C703 1.334 . S
C703 H680 0.950 . S
C703 C702 1.334 . S
C703 C704 1.287 . S
C704 C703 1.287 . S
C704 C705 1.524 . S
C704 H723 0.913 . S
C705 H681 0.950 . S
C705 C704 1.524 . S
C705 C706 1.415 . S
C706 H682 0.950 . S
C706 C701 1.363 . S
C706 C705 1.415 . S
C707 H683 0.951 . S
C707 C708 1.366 . S
C707 C709 1.388 . S
C708 C707 1.366 . S
C708 C712 1.385 . S
C709 H684 0.951 . S
C709 C707 1.388 . S
C709 C710 1.366 . S
C710 C709 1.366 . S
C710 C711 1.414 . S
C710 C713 1.499 . S
C711 H685 0.950 . S
C711 C710 1.414 . S
C711 C712 1.374 . S
C712 H686 0.950 . S
C712 C708 1.385 . S
C712 C711 1.374 . S
C713 C710 1.499 . S
C713 C714 1.373 . S
C713 C715 1.389 . S
C714 H687 0.950 . S
C714 C700 1.377 . S
C714 C713 1.373 . S
C715 C699 1.377 . S
C715 C713 1.389 . S
C715 C716 1.524 . S
C716 C715 1.524 . S
C716 C717 1.397 . S
C716 C721 1.363 . S
C717 H688 0.950 . S
C717 C716 1.397 . S
C717 C718 1.334 . S
C718 H689 0.950 . S
C718 C717 1.334 . S
C718 C719 1.287 . S
C719 C718 1.287 . S
C719 C720 1.524 . S
C719 H722 0.999 . S
C720 H690 0.950 . S
C720 C719 1.524 . S
C720 C721 1.415 . S
C721 H691 0.950 . S
C721 C716 1.363 . S
C721 C720 1.415 . S
H722 C719 0.999 . S
H723 C704 0.913 . S
H724 C742 0.951 . S
H725 C744 0.951 . S
H726 C746 0.950 . S
H727 C747 0.950 . S
H728 C749 0.950 . S
H729 C752 0.950 . S
H730 C753 0.950 . S
H731 C755 0.950 . S
H732 C756 0.950 1_554 S
H733 C757 0.951 . S
H734 C759 0.951 . S
H735 C761 0.950 . S
H736 C762 0.950 . S
H737 C764 0.950 . S
H738 C767 0.950 . S
H739 C768 0.950 . S
H740 C770 0.950 . S
H741 C771 0.950 1_556 S
C742 H724 0.951 . S
C742 C743 1.366 . S
C742 C744 1.388 . S
C743 C742 1.366 . S
C743 C747 1.385 . S
C744 H725 0.951 . S
C744 C742 1.388 . S
C744 C745 1.366 . S
C745 C744 1.366 . S
C745 C746 1.414 . S
C745 C748 1.499 . S
C746 H726 0.950 . S
C746 C745 1.414 . S
C746 C747 1.374 . S
C747 H727 0.950 . S
C747 C743 1.385 . S
C747 C746 1.374 . S
C748 C745 1.499 . S
C748 C749 1.373 . S
C748 C750 1.389 . S
C749 H728 0.950 . S
C749 C748 1.373 . S
C749 C765 1.377 1_556 S
C750 C748 1.389 . S
C750 C751 1.524 . S
C750 C764 1.377 1_556 S
C751 C750 1.524 . S
C751 C752 1.397 . S
C751 C756 1.363 . S
C752 H729 0.950 . S
C752 C751 1.397 . S
C752 C753 1.334 . S
C753 H730 0.950 . S
C753 C752 1.334 . S
C753 C754 1.287 . S
C754 C753 1.287 . S
C754 C755 1.524 . S
C754 H773 0.913 . S
C755 H731 0.950 . S
C755 C754 1.524 . S
C755 C756 1.415 . S
C756 H732 0.950 1_556 S
C756 C751 1.363 . S
C756 C755 1.415 . S
C757 H733 0.951 . S
C757 C758 1.366 . S
C757 C759 1.388 . S
C758 C757 1.366 . S
C758 C762 1.385 . S
C759 H734 0.951 . S
C759 C757 1.388 . S
C759 C760 1.366 . S
C760 C759 1.366 . S
C760 C761 1.414 . S
C760 C763 1.499 . S
C761 H735 0.950 . S
C761 C760 1.414 . S
C761 C762 1.374 . S
C762 H736 0.950 . S
C762 C758 1.385 . S
C762 C761 1.374 . S
C763 C760 1.499 . S
C763 C764 1.373 . S
C763 C765 1.389 . S
C764 H737 0.950 . S
C764 C750 1.377 1_554 S
C764 C763 1.373 . S
C765 C749 1.377 1_554 S
C765 C763 1.389 . S
C765 C766 1.524 . S
C766 C765 1.524 . S
C766 C767 1.397 . S
C766 C771 1.363 . S
C767 H738 0.950 . S
C767 C766 1.397 . S
C767 C768 1.334 . S
C768 H739 0.950 . S
C768 C767 1.334 . S
C768 C769 1.287 . S
C769 C768 1.287 . S
C769 C770 1.524 . S
C769 H772 0.999 . S
C770 H740 0.950 . S
C770 C769 1.524 . S
C770 C771 1.415 . S
C771 H741 0.950 1_554 S
C771 C766 1.363 . S
C771 C770 1.415 . S
H772 C769 0.999 . S
H773 C754 0.913 . S
H774 C792 0.951 . S
H775 C794 0.951 . S
H776 C796 0.950 . S
H777 C797 0.950 . S
H778 C799 0.950 . S
H779 C802 0.950 . S
H780 C803 0.950 . S
H781 C805 0.950 . S
H782 C806 0.950 . S
H783 C807 0.951 . S
H784 C809 0.951 . S
H785 C811 0.950 . S
H786 C812 0.950 . S
H787 C814 0.950 . S
H788 C817 0.950 . S
H789 C818 0.950 . S
H790 C820 0.950 . S
H791 C821 0.950 . S
C792 H774 0.951 . S
C792 C793 1.366 . S
C792 C794 1.388 . S
C793 C792 1.366 . S
C793 C797 1.385 . S
C794 H775 0.951 . S
C794 C792 1.388 . S
C794 C795 1.366 . S
C795 C794 1.366 . S
C795 C796 1.414 . S
C795 C798 1.499 . S
C796 H776 0.950 . S
C796 C795 1.414 . S
C796 C797 1.374 . S
C797 H777 0.950 . S
C797 C793 1.385 . S
C797 C796 1.374 . S
C798 C795 1.499 . S
C798 C799 1.373 . S
C798 C800 1.389 . S
C799 H778 0.950 . S
C799 C798 1.373 . S
C799 C815 1.377 . S
C800 C798 1.389 . S
C800 C801 1.524 . S
C800 C814 1.377 . S
C801 C800 1.524 . S
C801 C802 1.397 . S
C801 C806 1.363 . S
C802 H779 0.950 . S
C802 C801 1.397 . S
C802 C803 1.334 . S
C803 H780 0.950 . S
C803 C802 1.334 . S
C803 C804 1.287 . S
C804 C803 1.287 . S
C804 C805 1.524 . S
C804 H823 0.913 . S
C805 H781 0.950 . S
C805 C804 1.524 . S
C805 C806 1.415 . S
C806 H782 0.950 . S
C806 C801 1.363 . S
C806 C805 1.415 . S
C807 H783 0.951 . S
C807 C808 1.366 . S
C807 C809 1.388 . S
C808 C807 1.366 . S
C808 C812 1.385 . S
C809 H784 0.951 . S
C809 C807 1.388 . S
C809 C810 1.366 . S
C810 C809 1.366 . S
C810 C811 1.414 . S
C810 C813 1.499 . S
C811 H785 0.950 . S
C811 C810 1.414 . S
C811 C812 1.374 . S
C812 H786 0.950 . S
C812 C808 1.385 . S
C812 C811 1.374 . S
C813 C810 1.499 . S
C813 C814 1.373 . S
C813 C815 1.389 . S
C814 H787 0.950 . S
C814 C800 1.377 . S
C814 C813 1.373 . S
C815 C799 1.377 . S
C815 C813 1.389 . S
C815 C816 1.524 . S
C816 C815 1.524 . S
C816 C817 1.397 . S
C816 C821 1.363 . S
C817 H788 0.950 . S
C817 C816 1.397 . S
C817 C818 1.334 . S
C818 H789 0.950 . S
C818 C817 1.334 . S
C818 C819 1.287 . S
C819 C818 1.287 . S
C819 C820 1.524 . S
C819 H822 0.999 . S
C820 H790 0.950 . S
C820 C819 1.524 . S
C820 C821 1.415 . S
C821 H791 0.950 . S
C821 C816 1.363 . S
C821 C820 1.415 . S
H822 C819 0.999 . S
H823 C804 0.913 . S
H824 C842 0.951 . S
H825 C844 0.951 . S
H826 C846 0.950 . S
H827 C847 0.950 . S
H828 C849 0.950 . S
H829 C852 0.950 . S
H830 C853 0.950 . S
H831 C855 0.950 . S
H832 C856 0.950 . S
H833 C857 0.951 . S
H834 C859 0.951 . S
H835 C861 0.950 . S
H836 C862 0.950 . S
H837 C864 0.950 . S
H838 C867 0.950 . S
H839 C868 0.950 . S
H840 C870 0.950 . S
H841 C871 0.950 . S
C842 H824 0.951 . S
C842 C843 1.366 . S
C842 C844 1.388 . S
C843 C842 1.366 . S
C843 C847 1.385 . S
C844 H825 0.951 . S
C844 C842 1.388 . S
C844 C845 1.366 . S
C845 C844 1.366 . S
C845 C846 1.414 . S
C845 C848 1.499 . S
C846 H826 0.950 . S
C846 C845 1.414 . S
C846 C847 1.374 . S
C847 H827 0.950 . S
C847 C843 1.385 . S
C847 C846 1.374 . S
C848 C845 1.499 . S
C848 C849 1.373 . S
C848 C850 1.386 1_545 S
C849 H828 0.950 . S
C849 C848 1.373 . S
C849 C865 1.380 1_556 S
C850 C848 1.386 1_565 S
C850 C851 1.524 . S
C850 C864 1.380 1_556 S
C851 C850 1.524 . S
C851 C852 1.402 . S
C851 C856 1.358 1_556 S
C852 H829 0.950 . S
C852 C851 1.402 . S
C852 C853 1.334 . S
C853 H830 0.950 . S
C853 C852 1.334 . S
C853 C854 1.287 . S
C854 C853 1.287 . S
C854 C855 1.524 1_556 S
C854 H873 0.913 . S
C855 H831 0.950 . S
C855 C854 1.524 1_554 S
C855 C856 1.415 . S
C856 H832 0.950 . S
C856 C851 1.358 1_554 S
C856 C855 1.415 . S
C857 H833 0.951 . S
C857 C858 1.366 . S
C857 C859 1.388 . S
C858 C857 1.366 . S
C858 C862 1.385 . S
C859 H834 0.951 . S
C859 C857 1.388 . S
C859 C860 1.366 . S
C860 C859 1.366 . S
C860 C861 1.414 . S
C860 C863 1.499 . S
C861 H835 0.950 . S
C861 C860 1.414 . S
C861 C862 1.374 . S
C862 H836 0.950 . S
C862 C858 1.385 . S
C862 C861 1.374 . S
C863 C860 1.499 . S
C863 C864 1.373 . S
C863 C865 1.386 1_565 S
C864 H837 0.950 . S
C864 C850 1.380 1_554 S
C864 C863 1.373 . S
C865 C849 1.380 1_554 S
C865 C863 1.386 1_545 S
C865 C866 1.524 . S
C866 C865 1.524 . S
C866 C867 1.402 . S
C866 C871 1.358 1_554 S
C867 H838 0.950 . S
C867 C866 1.402 . S
C867 C868 1.334 . S
C868 H839 0.950 . S
C868 C867 1.334 . S
C868 C869 1.287 . S
C869 C868 1.287 . S
C869 C870 1.524 1_554 S
C869 H872 0.999 . S
C870 H840 0.950 . S
C870 C869 1.524 1_556 S
C870 C871 1.415 . S
C871 H841 0.950 . S
C871 C866 1.358 1_556 S
C871 C870 1.415 . S
H872 C869 0.999 . S
H873 C854 0.913 . S
H874 C892 0.951 . S
H875 C894 0.951 . S
H876 C896 0.950 . S
H877 C897 0.950 . S
H878 C899 0.950 . S
H879 C902 0.950 . S
H880 C903 0.950 . S
H881 C905 0.950 . S
H882 C906 0.950 . S
H883 C907 0.951 . S
H884 C909 0.951 . S
H885 C911 0.950 . S
H886 C912 0.950 . S
H887 C914 0.950 . S
H888 C917 0.950 . S
H889 C918 0.950 . S
H890 C920 0.950 . S
H891 C921 0.950 . S
C892 H874 0.951 . S
C892 C893 1.366 . S
C892 C894 1.388 . S
C893 C892 1.366 . S
C893 C897 1.385 . S
C894 H875 0.951 . S
C894 C892 1.388 . S
C894 C895 1.366 . S
C895 C894 1.366 . S
C895 C896 1.414 . S
C895 C898 1.499 . S
C896 H876 0.950 . S
C896 C895 1.414 . S
C896 C897 1.374 . S
C897 H877 0.950 . S
C897 C893 1.385 . S
C897 C896 1.374 . S
C898 C895 1.499 . S
C898 C899 1.373 . S
C898 C900 1.389 . S
C899 H878 0.950 . S
C899 C898 1.373 . S
C899 C915 1.377 . S
C900 C898 1.389 . S
C900 C901 1.524 . S
C900 C914 1.377 . S
C901 C900 1.524 . S
C901 C902 1.397 . S
C901 C906 1.363 . S
C902 H879 0.950 . S
C902 C901 1.397 . S
C902 C903 1.334 . S
C903 H880 0.950 . S
C903 C902 1.334 . S
C903 C904 1.287 . S
C904 C903 1.287 . S
C904 C905 1.524 . S
C904 H923 0.913 . S
C905 H881 0.950 . S
C905 C904 1.524 . S
C905 C906 1.415 . S
C906 H882 0.950 . S
C906 C901 1.363 . S
C906 C905 1.415 . S
C907 H883 0.951 . S
C907 C908 1.366 . S
C907 C909 1.388 . S
C908 C907 1.366 . S
C908 C912 1.385 . S
C909 H884 0.951 . S
C909 C907 1.388 . S
C909 C910 1.366 . S
C910 C909 1.366 . S
C910 C911 1.414 . S
C910 C913 1.499 . S
C911 H885 0.950 . S
C911 C910 1.414 . S
C911 C912 1.374 . S
C912 H886 0.950 . S
C912 C908 1.385 . S
C912 C911 1.374 . S
C913 C910 1.499 . S
C913 C914 1.373 . S
C913 C915 1.389 . S
C914 H887 0.950 . S
C914 C900 1.377 . S
C914 C913 1.373 . S
C915 C899 1.377 . S
C915 C913 1.389 . S
C915 C916 1.524 . S
C916 C915 1.524 . S
C916 C917 1.397 . S
C916 C921 1.363 . S
C917 H888 0.950 . S
C917 C916 1.397 . S
C917 C918 1.334 . S
C918 H889 0.950 . S
C918 C917 1.334 . S
C918 C919 1.287 . S
C919 C918 1.287 . S
C919 C920 1.524 . S
C919 H922 0.999 . S
C920 H890 0.950 . S
C920 C919 1.524 . S
C920 C921 1.415 . S
C921 H891 0.950 . S
C921 C916 1.363 . S
C921 C920 1.415 . S
H922 C919 0.999 . S
H923 C904 0.913 . S
H924 C942 0.951 . S
H925 C944 0.951 . S
H926 C946 0.950 . S
H927 C947 0.950 . S
H928 C949 0.950 . S
H929 C952 0.950 . S
H930 C953 0.950 . S
H931 C955 0.950 . S
H932 C956 0.950 . S
H933 C957 0.951 . S
H934 C959 0.951 . S
H935 C961 0.950 . S
H936 C962 0.950 . S
H937 C964 0.950 . S
H938 C967 0.950 . S
H939 C968 0.950 . S
H940 C970 0.950 . S
H941 C971 0.950 . S
C942 H924 0.951 . S
C942 C943 1.366 . S
C942 C944 1.388 . S
C943 C942 1.366 . S
C943 C947 1.385 . S
C944 H925 0.951 . S
C944 C942 1.388 . S
C944 C945 1.366 . S
C945 C944 1.366 . S
C945 C946 1.414 . S
C945 C948 1.499 . S
C946 H926 0.950 . S
C946 C945 1.414 . S
C946 C947 1.374 . S
C947 H927 0.950 . S
C947 C943 1.385 . S
C947 C946 1.374 . S
C948 C945 1.499 . S
C948 C949 1.373 . S
C948 C950 1.389 . S
C949 H928 0.950 . S
C949 C948 1.373 . S
C949 C965 1.377 . S
C950 C948 1.389 . S
C950 C951 1.524 . S
C950 C964 1.377 . S
C951 C950 1.524 . S
C951 C952 1.397 . S
C951 C956 1.363 . S
C952 H929 0.950 . S
C952 C951 1.397 . S
C952 C953 1.334 . S
C953 H930 0.950 . S
C953 C952 1.334 . S
C953 C954 1.287 . S
C954 C953 1.287 . S
C954 C955 1.524 . S
C954 H973 0.913 . S
C955 H931 0.950 . S
C955 C954 1.524 . S
C955 C956 1.415 . S
C956 H932 0.950 . S
C956 C951 1.363 . S
C956 C955 1.415 . S
C957 H933 0.951 . S
C957 C958 1.366 . S
C957 C959 1.388 . S
C958 C957 1.366 . S
C958 C962 1.385 . S
C959 H934 0.951 . S
C959 C957 1.388 . S
C959 C960 1.366 . S
C960 C959 1.366 . S
C960 C961 1.414 . S
C960 C963 1.499 . S
C961 H935 0.950 . S
C961 C960 1.414 . S
C961 C962 1.374 . S
C962 H936 0.950 . S
C962 C958 1.385 . S
C962 C961 1.374 . S
C963 C960 1.499 . S
C963 C964 1.373 . S
C963 C965 1.389 . S
C964 H937 0.950 . S
C964 C950 1.377 . S
C964 C963 1.373 . S
C965 C949 1.377 . S
C965 C963 1.389 . S
C965 C966 1.524 . S
C966 C965 1.524 . S
C966 C967 1.397 . S
C966 C971 1.363 . S
C967 H938 0.950 . S
C967 C966 1.397 . S
C967 C968 1.334 . S
C968 H939 0.950 . S
C968 C967 1.334 . S
C968 C969 1.287 . S
C969 C968 1.287 . S
C969 C970 1.524 . S
C969 H972 0.999 . S
C970 H940 0.950 . S
C970 C969 1.524 . S
C970 C971 1.415 . S
C971 H941 0.950 . S
C971 C966 1.363 . S
C971 C970 1.415 . S
H972 C969 0.999 . S
H973 C954 0.913 . S
H974 C992 0.951 . S
H975 C994 0.951 . S
H976 C996 0.950 . S
H977 C997 0.950 . S
H978 C999 0.950 . S
H979 C1002 0.950 . S
H980 C1003 0.950 . S
H981 C1005 0.950 . S
H982 C1006 0.950 . S
H983 C1007 0.951 . S
H984 C1009 0.951 . S
H985 C1011 0.950 . S
H986 C1012 0.950 . S
H987 C1014 0.950 . S
H988 C1017 0.950 . S
H989 C1018 0.950 . S
H990 C1020 0.950 . S
H991 C1021 0.950 . S
C992 H974 0.951 . S
C992 C993 1.366 . S
C992 C994 1.388 . S
C993 C992 1.366 . S
C993 C997 1.385 . S
C994 H975 0.951 . S
C994 C992 1.388 . S
C994 C995 1.366 . S
C995 C994 1.366 . S
C995 C996 1.414 . S
C995 C998 1.499 . S
C996 H976 0.950 . S
C996 C995 1.414 . S
C996 C997 1.374 . S
C997 H977 0.950 . S
C997 C993 1.385 . S
C997 C996 1.374 . S
C998 C995 1.499 . S
C998 C999 1.373 . S
C998 C1000 1.389 . S
C999 H978 0.950 . S
C999 C998 1.373 . S
C999 C1015 1.377 . S
C1000 C998 1.389 . S
C1000 C1001 1.524 . S
C1000 C1014 1.377 . S
C1001 C1000 1.524 . S
C1001 C1002 1.397 . S
C1001 C1006 1.363 . S
C1002 H979 0.950 . S
C1002 C1001 1.397 . S
C1002 C1003 1.334 . S
C1003 H980 0.950 . S
C1003 C1002 1.334 . S
C1003 C1004 1.287 . S
C1004 C1003 1.287 . S
C1004 C1005 1.524 . S
C1004 H1023 0.913 . S
C1005 H981 0.950 . S
C1005 C1004 1.524 . S
C1005 C1006 1.415 . S
C1006 H982 0.950 . S
C1006 C1001 1.363 . S
C1006 C1005 1.415 . S
C1007 H983 0.951 . S
C1007 C1008 1.366 . S
C1007 C1009 1.388 . S
C1008 C1007 1.366 . S
C1008 C1012 1.385 . S
C1009 H984 0.951 . S
C1009 C1007 1.388 . S
C1009 C1010 1.366 . S
C1010 C1009 1.366 . S
C1010 C1011 1.414 . S
C1010 C1013 1.499 . S
C1011 H985 0.950 . S
C1011 C1010 1.414 . S
C1011 C1012 1.374 . S
C1012 H986 0.950 . S
C1012 C1008 1.385 . S
C1012 C1011 1.374 . S
C1013 C1010 1.499 . S
C1013 C1014 1.373 . S
C1013 C1015 1.389 . S
C1014 H987 0.950 . S
C1014 C1000 1.377 . S
C1014 C1013 1.373 . S
C1015 C999 1.377 . S
C1015 C1013 1.389 . S
C1015 C1016 1.524 . S
C1016 C1015 1.524 . S
C1016 C1017 1.397 . S
C1016 C1021 1.363 . S
C1017 H988 0.950 . S
C1017 C1016 1.397 . S
C1017 C1018 1.334 . S
C1018 H989 0.950 . S
C1018 C1017 1.334 . S
C1018 C1019 1.287 . S
C1019 C1018 1.287 . S
C1019 C1020 1.524 . S
C1019 H1022 0.999 . S
C1020 H990 0.950 . S
C1020 C1019 1.524 . S
C1020 C1021 1.415 . S
C1021 H991 0.950 . S
C1021 C1016 1.363 . S
C1021 C1020 1.415 . S
H1022 C1019 0.999 . S
H1023 C1004 0.913 . S
H1024 C1042 0.951 . S
H1025 C1044 0.951 . S
H1026 C1046 0.950 . S
H1027 C1047 0.950 . S
H1028 C1049 0.950 . S
H1029 C1052 0.950 . S
H1030 C1053 0.950 . S
H1031 C1055 0.950 . S
H1032 C1056 0.950 . S
H1033 C1057 0.951 . S
H1034 C1059 0.951 . S
H1035 C1061 0.950 1_545 S
H1036 C1062 0.950 . S
H1037 C1064 0.950 . S
H1038 C1067 0.950 . S
H1039 C1068 0.950 . S
H1040 C1070 0.950 . S
H1041 C1071 0.950 . S
C1042 H1024 0.951 . S
C1042 C1043 1.366 . S
C1042 C1044 1.388 . S
C1043 C1042 1.366 . S
C1043 C1047 1.385 . S
C1044 H1025 0.951 . S
C1044 C1042 1.388 . S
C1044 C1045 1.366 . S
C1045 C1044 1.366 . S
C1045 C1046 1.414 . S
C1045 C1048 1.499 . S
C1046 H1026 0.950 . S
C1046 C1045 1.414 . S
C1046 C1047 1.374 . S
C1047 H1027 0.950 . S
C1047 C1043 1.385 . S
C1047 C1046 1.374 . S
C1048 C1045 1.499 . S
C1048 C1049 1.373 . S
C1048 C1050 1.389 . S
C1049 H1028 0.950 . S
C1049 C1048 1.373 . S
C1049 C1065 1.377 . S
C1050 C1048 1.389 . S
C1050 C1051 1.524 . S
C1050 C1064 1.377 . S
C1051 C1050 1.524 . S
C1051 C1052 1.397 . S
C1051 C1056 1.363 . S
C1052 H1029 0.950 . S
C1052 C1051 1.397 . S
C1052 C1053 1.334 . S
C1053 H1030 0.950 . S
C1053 C1052 1.334 . S
C1053 C1054 1.287 . S
C1054 C1053 1.287 . S
C1054 C1055 1.524 . S
C1054 H1073 0.913 . S
C1055 H1031 0.950 . S
C1055 C1054 1.524 . S
C1055 C1056 1.415 . S
C1056 H1032 0.950 . S
C1056 C1051 1.363 . S
C1056 C1055 1.415 . S
C1057 H1033 0.951 . S
C1057 C1058 1.366 1_565 S
C1057 C1059 1.388 . S
C1058 C1057 1.366 1_545 S
C1058 C1062 1.385 . S
C1059 H1034 0.951 . S
C1059 C1057 1.388 . S
C1059 C1060 1.366 . S
C1060 C1059 1.366 . S
C1060 C1061 1.414 . S
C1060 C1063 1.499 . S
C1061 H1035 0.950 1_565 S
C1061 C1060 1.414 . S
C1061 C1062 1.374 1_565 S
C1062 H1036 0.950 . S
C1062 C1058 1.385 . S
C1062 C1061 1.374 1_545 S
C1063 C1060 1.499 . S
C1063 C1064 1.373 . S
C1063 C1065 1.389 . S
C1064 H1037 0.950 . S
C1064 C1050 1.377 . S
C1064 C1063 1.373 . S
C1065 C1049 1.377 . S
C1065 C1063 1.389 . S
C1065 C1066 1.524 . S
C1066 C1065 1.524 . S
C1066 C1067 1.397 . S
C1066 C1071 1.363 . S
C1067 H1038 0.950 . S
C1067 C1066 1.397 . S
C1067 C1068 1.334 . S
C1068 H1039 0.950 . S
C1068 C1067 1.334 . S
C1068 C1069 1.287 . S
C1069 C1068 1.287 . S
C1069 C1070 1.524 . S
C1069 H1072 0.999 . S
C1070 H1040 0.950 . S
C1070 C1069 1.524 . S
C1070 C1071 1.415 . S
C1071 H1041 0.950 . S
C1071 C1066 1.363 . S
C1071 C1070 1.415 . S
H1072 C1069 0.999 . S
H1073 C1054 0.913 . S
H1074 C1092 0.951 . S
H1075 C1094 0.951 . S
H1076 C1096 0.950 . S
H1077 C1097 0.950 . S
H1078 C1099 0.950 . S
H1079 C1102 0.950 . S
H1080 C1103 0.950 . S
H1081 C1105 0.950 . S
H1082 C1106 0.950 . S
H1083 C1107 0.951 . S
H1084 C1109 0.951 . S
H1085 C1111 0.950 . S
H1086 C1112 0.950 . S
H1087 C1114 0.950 . S
H1088 C1117 0.950 . S
H1089 C1118 0.950 . S
H1090 C1120 0.950 . S
H1091 C1121 0.950 . S
C1092 H1074 0.951 . S
C1092 C1093 1.366 . S
C1092 C1094 1.388 . S
C1093 C1092 1.366 . S
C1093 C1097 1.385 . S
C1094 H1075 0.951 . S
C1094 C1092 1.388 . S
C1094 C1095 1.366 . S
C1095 C1094 1.366 . S
C1095 C1096 1.414 . S
C1095 C1098 1.499 . S
C1096 H1076 0.950 . S
C1096 C1095 1.414 . S
C1096 C1097 1.374 . S
C1097 H1077 0.950 . S
C1097 C1093 1.385 . S
C1097 C1096 1.374 . S
C1098 C1095 1.499 . S
C1098 C1099 1.373 . S
C1098 C1100 1.389 . S
C1099 H1078 0.950 . S
C1099 C1098 1.373 . S
C1099 C1115 1.377 . S
C1100 C1098 1.389 . S
C1100 C1101 1.524 . S
C1100 C1114 1.377 . S
C1101 C1100 1.524 . S
C1101 C1102 1.397 . S
C1101 C1106 1.363 . S
C1102 H1079 0.950 . S
C1102 C1101 1.397 . S
C1102 C1103 1.334 . S
C1103 H1080 0.950 . S
C1103 C1102 1.334 . S
C1103 C1104 1.287 . S
C1104 C1103 1.287 . S
C1104 C1105 1.524 . S
C1104 H1123 0.913 . S
C1105 H1081 0.950 . S
C1105 C1104 1.524 . S
C1105 C1106 1.415 . S
C1106 H1082 0.950 . S
C1106 C1101 1.363 . S
C1106 C1105 1.415 . S
C1107 H1083 0.951 . S
C1107 C1108 1.366 . S
C1107 C1109 1.388 . S
C1108 C1107 1.366 . S
C1108 C1112 1.385 . S
C1109 H1084 0.951 . S
C1109 C1107 1.388 . S
C1109 C1110 1.366 . S
C1110 C1109 1.366 . S
C1110 C1111 1.414 . S
C1110 C1113 1.499 . S
C1111 H1085 0.950 . S
C1111 C1110 1.414 . S
C1111 C1112 1.374 . S
C1112 H1086 0.950 . S
C1112 C1108 1.385 . S
C1112 C1111 1.374 . S
C1113 C1110 1.499 . S
C1113 C1114 1.373 . S
C1113 C1115 1.389 . S
C1114 H1087 0.950 . S
C1114 C1100 1.377 . S
C1114 C1113 1.373 . S
C1115 C1099 1.377 . S
C1115 C1113 1.389 . S
C1115 C1116 1.524 . S
C1116 C1115 1.524 . S
C1116 C1117 1.397 . S
C1116 C1121 1.363 . S
C1117 H1088 0.950 . S
C1117 C1116 1.397 . S
C1117 C1118 1.334 . S
C1118 H1089 0.950 . S
C1118 C1117 1.334 . S
C1118 C1119 1.287 . S
C1119 C1118 1.287 . S
C1119 C1120 1.524 . S
C1119 H1122 0.999 . S
C1120 H1090 0.950 . S
C1120 C1119 1.524 . S
C1120 C1121 1.415 . S
C1121 H1091 0.950 . S
C1121 C1116 1.363 . S
C1121 C1120 1.415 . S
H1122 C1119 0.999 . S
H1123 C1104 0.913 . S
H1124 C1142 0.951 . S
H1125 C1144 0.951 . S
H1126 C1146 0.950 . S
H1127 C1147 0.950 . S
H1128 C1149 0.950 . S
H1129 C1152 0.950 . S
H1130 C1153 0.950 . S
H1131 C1155 0.950 . S
H1132 C1156 0.950 . S
H1133 C1157 0.951 . S
H1134 C1159 0.951 . S
H1135 C1161 0.950 . S
H1136 C1162 0.950 . S
H1137 C1164 0.950 . S
H1138 C1167 0.950 . S
H1139 C1168 0.950 . S
H1140 C1170 0.950 . S
H1141 C1171 0.950 . S
C1142 H1124 0.951 . S
C1142 C1143 1.366 . S
C1142 C1144 1.388 . S
C1143 C1142 1.366 . S
C1143 C1147 1.385 . S
C1144 H1125 0.951 . S
C1144 C1142 1.388 . S
C1144 C1145 1.366 . S
C1145 C1144 1.366 . S
C1145 C1146 1.414 . S
C1145 C1148 1.499 . S
C1146 H1126 0.950 . S
C1146 C1145 1.414 . S
C1146 C1147 1.374 . S
C1147 H1127 0.950 . S
C1147 C1143 1.385 . S
C1147 C1146 1.374 . S
C1148 C1145 1.499 . S
C1148 C1149 1.373 . S
C1148 C1150 1.389 . S
C1149 H1128 0.950 . S
C1149 C1148 1.373 . S
C1149 C1165 1.377 . S
C1150 C1148 1.389 . S
C1150 C1151 1.524 . S
C1150 C1164 1.377 . S
C1151 C1150 1.524 . S
C1151 C1152 1.397 . S
C1151 C1156 1.363 . S
C1152 H1129 0.950 . S
C1152 C1151 1.397 . S
C1152 C1153 1.334 . S
C1153 H1130 0.950 . S
C1153 C1152 1.334 . S
C1153 C1154 1.287 . S
C1154 C1153 1.287 . S
C1154 C1155 1.524 . S
C1154 H1173 0.913 . S
C1155 H1131 0.950 . S
C1155 C1154 1.524 . S
C1155 C1156 1.415 . S
C1156 H1132 0.950 . S
C1156 C1151 1.363 . S
C1156 C1155 1.415 . S
C1157 H1133 0.951 . S
C1157 C1158 1.366 . S
C1157 C1159 1.388 . S
C1158 C1157 1.366 . S
C1158 C1162 1.385 . S
C1159 H1134 0.951 . S
C1159 C1157 1.388 . S
C1159 C1160 1.366 . S
C1160 C1159 1.366 . S
C1160 C1161 1.414 . S
C1160 C1163 1.499 . S
C1161 H1135 0.950 . S
C1161 C1160 1.414 . S
C1161 C1162 1.374 . S
C1162 H1136 0.950 . S
C1162 C1158 1.385 . S
C1162 C1161 1.374 . S
C1163 C1160 1.499 . S
C1163 C1164 1.373 . S
C1163 C1165 1.389 . S
C1164 H1137 0.950 . S
C1164 C1150 1.377 . S
C1164 C1163 1.373 . S
C1165 C1149 1.377 . S
C1165 C1163 1.389 . S
C1165 C1166 1.524 . S
C1166 C1165 1.524 . S
C1166 C1167 1.397 . S
C1166 C1171 1.363 . S
C1167 H1138 0.950 . S
C1167 C1166 1.397 . S
C1167 C1168 1.334 . S
C1168 H1139 0.950 . S
C1168 C1167 1.334 . S
C1168 C1169 1.287 . S
C1169 C1168 1.287 . S
C1169 C1170 1.524 . S
C1169 H1172 0.999 . S
C1170 H1140 0.950 . S
C1170 C1169 1.524 . S
C1170 C1171 1.415 . S
C1171 H1141 0.950 . S
C1171 C1166 1.363 . S
C1171 C1170 1.415 . S
H1172 C1169 0.999 . S
H1173 C1154 0.913 . S
H1174 C1192 0.951 . S
H1175 C1194 0.951 . S
H1176 C1196 0.950 . S
H1177 C1197 0.950 . S
H1178 C1199 0.950 . S
H1179 C1202 0.950 . S
H1180 C1203 0.950 . S
H1181 C1205 0.950 . S
H1182 C1206 0.950 . S
H1183 C1207 0.951 . S
H1184 C1209 0.951 1_545 S
H1185 C1211 0.950 . S
H1186 C1212 0.950 . S
H1187 C1214 0.950 . S
H1188 C1217 0.950 . S
H1189 C1218 0.950 . S
H1190 C1220 0.950 . S
H1191 C1221 0.950 . S
C1192 H1174 0.951 . S
C1192 C1193 1.366 . S
C1192 C1194 1.388 . S
C1193 C1192 1.366 . S
C1193 C1197 1.385 . S
C1194 H1175 0.951 . S
C1194 C1192 1.388 . S
C1194 C1195 1.366 . S
C1195 C1194 1.366 . S
C1195 C1196 1.414 . S
C1195 C1198 1.499 . S
C1196 H1176 0.950 . S
C1196 C1195 1.414 . S
C1196 C1197 1.374 . S
C1197 H1177 0.950 . S
C1197 C1193 1.385 . S
C1197 C1196 1.374 . S
C1198 C1195 1.499 . S
C1198 C1199 1.373 . S
C1198 C1200 1.389 . S
C1199 H1178 0.950 . S
C1199 C1198 1.373 . S
C1199 C1215 1.377 . S
C1200 C1198 1.389 . S
C1200 C1201 1.524 . S
C1200 C1214 1.377 . S
C1201 C1200 1.524 . S
C1201 C1202 1.397 . S
C1201 C1206 1.363 . S
C1202 H1179 0.950 . S
C1202 C1201 1.397 . S
C1202 C1203 1.334 . S
C1203 H1180 0.950 . S
C1203 C1202 1.334 . S
C1203 C1204 1.287 . S
C1204 C1203 1.287 . S
C1204 C1205 1.524 . S
C1204 H1223 0.913 . S
C1205 H1181 0.950 . S
C1205 C1204 1.524 . S
C1205 C1206 1.415 . S
C1206 H1182 0.950 . S
C1206 C1201 1.363 . S
C1206 C1205 1.415 . S
C1207 H1183 0.951 . S
C1207 C1208 1.366 . S
C1207 C1209 1.388 1_545 S
C1208 C1207 1.366 . S
C1208 C1212 1.385 1_545 S
C1209 H1184 0.951 1_565 S
C1209 C1207 1.388 1_565 S
C1209 C1210 1.366 . S
C1210 C1209 1.366 . S
C1210 C1211 1.414 . S
C1210 C1213 1.499 . S
C1211 H1185 0.950 . S
C1211 C1210 1.414 . S
C1211 C1212 1.374 . S
C1212 H1186 0.950 . S
C1212 C1208 1.385 1_565 S
C1212 C1211 1.374 . S
C1213 C1210 1.499 . S
C1213 C1214 1.373 . S
C1213 C1215 1.389 . S
C1214 H1187 0.950 . S
C1214 C1200 1.377 . S
C1214 C1213 1.373 . S
C1215 C1199 1.377 . S
C1215 C1213 1.389 . S
C1215 C1216 1.524 . S
C1216 C1215 1.524 . S
C1216 C1217 1.397 . S
C1216 C1221 1.363 . S
C1217 H1188 0.950 . S
C1217 C1216 1.397 . S
C1217 C1218 1.334 . S
C1218 H1189 0.950 . S
C1218 C1217 1.334 . S
C1218 C1219 1.287 . S
C1219 C1218 1.287 . S
C1219 C1220 1.524 . S
C1219 H1222 0.999 . S
C1220 H1190 0.950 . S
C1220 C1219 1.524 . S
C1220 C1221 1.415 . S
C1221 H1191 0.950 . S
C1221 C1216 1.363 . S
C1221 C1220 1.415 . S
H1222 C1219 0.999 . S
H1223 C1204 0.913 . S
H1224 C1242 0.951 . S
H1225 C1244 0.951 . S
H1226 C1246 0.950 . S
H1227 C1247 0.950 . S
H1228 C1249 0.950 . S
H1229 C1252 0.950 . S
H1230 C1253 0.950 . S
H1231 C1255 0.950 . S
H1232 C1256 0.950 . S
H1233 C1257 0.951 . S
H1234 C1259 0.951 . S
H1235 C1261 0.950 . S
H1236 C1262 0.950 . S
H1237 C1264 0.950 . S
H1238 C1267 0.950 . S
H1239 C1268 0.950 . S
H1240 C1270 0.950 . S
H1241 C1271 0.950 . S
C1242 H1224 0.951 . S
C1242 C1243 1.366 . S
C1242 C1244 1.388 . S
C1243 C1242 1.366 . S
C1243 C1247 1.385 . S
C1244 H1225 0.951 . S
C1244 C1242 1.388 . S
C1244 C1245 1.366 . S
C1245 C1244 1.366 . S
C1245 C1246 1.414 . S
C1245 C1248 1.499 . S
C1246 H1226 0.950 . S
C1246 C1245 1.414 . S
C1246 C1247 1.374 . S
C1247 H1227 0.950 . S
C1247 C1243 1.385 . S
C1247 C1246 1.374 . S
C1248 C1245 1.499 . S
C1248 C1249 1.373 . S
C1248 C1250 1.389 . S
C1249 H1228 0.950 . S
C1249 C1248 1.373 . S
C1249 C1265 1.377 . S
C1250 C1248 1.389 . S
C1250 C1251 1.524 . S
C1250 C1264 1.377 . S
C1251 C1250 1.524 . S
C1251 C1252 1.397 . S
C1251 C1256 1.363 . S
C1252 H1229 0.950 . S
C1252 C1251 1.397 . S
C1252 C1253 1.334 . S
C1253 H1230 0.950 . S
C1253 C1252 1.334 . S
C1253 C1254 1.287 . S
C1254 C1253 1.287 . S
C1254 C1255 1.524 . S
C1254 H1273 0.913 . S
C1255 H1231 0.950 . S
C1255 C1254 1.524 . S
C1255 C1256 1.415 . S
C1256 H1232 0.950 . S
C1256 C1251 1.363 . S
C1256 C1255 1.415 . S
C1257 H1233 0.951 . S
C1257 C1258 1.366 . S
C1257 C1259 1.388 1_565 S
C1258 C1257 1.366 . S
C1258 C1262 1.385 1_565 S
C1259 H1234 0.951 . S
C1259 C1257 1.388 1_545 S
C1259 C1260 1.366 . S
C1260 C1259 1.366 . S
C1260 C1261 1.414 . S
C1260 C1263 1.499 . S
C1261 H1235 0.950 . S
C1261 C1260 1.414 . S
C1261 C1262 1.374 . S
C1262 H1236 0.950 . S
C1262 C1258 1.385 1_545 S
C1262 C1261 1.374 . S
C1263 C1260 1.499 . S
C1263 C1264 1.373 . S
C1263 C1265 1.389 . S
C1264 H1237 0.950 . S
C1264 C1250 1.377 . S
C1264 C1263 1.373 . S
C1265 C1249 1.377 . S
C1265 C1263 1.389 . S
C1265 C1266 1.524 . S
C1266 C1265 1.524 . S
C1266 C1267 1.397 . S
C1266 C1271 1.363 . S
C1267 H1238 0.950 . S
C1267 C1266 1.397 . S
C1267 C1268 1.334 . S
C1268 H1239 0.950 . S
C1268 C1267 1.334 . S
C1268 C1269 1.287 . S
C1269 C1268 1.287 . S
C1269 C1270 1.524 . S
C1269 H1272 0.999 . S
C1270 H1240 0.950 . S
C1270 C1269 1.524 . S
C1270 C1271 1.415 . S
C1271 H1241 0.950 . S
C1271 C1266 1.363 . S
C1271 C1270 1.415 . S
H1272 C1269 0.999 . S
H1273 C1254 0.913 . S
H1274 C1292 0.951 . S
H1275 C1294 0.951 . S
H1276 C1296 0.950 . S
H1277 C1297 0.950 . S
H1278 C1299 0.950 . S
H1279 C1302 0.950 . S
H1280 C1303 0.950 . S
H1281 C1305 0.950 . S
H1282 C1306 0.950 . S
H1283 C1307 0.951 . S
H1284 C1309 0.951 . S
H1285 C1311 0.950 . S
H1286 C1312 0.950 . S
H1287 C1314 0.950 . S
H1288 C1317 0.950 . S
H1289 C1318 0.950 . S
H1290 C1320 0.950 . S
H1291 C1321 0.950 . S
C1292 H1274 0.951 . S
C1292 C1293 1.366 . S
C1292 C1294 1.388 . S
C1293 C1292 1.366 . S
C1293 C1297 1.385 . S
C1294 H1275 0.951 . S
C1294 C1292 1.388 . S
C1294 C1295 1.366 . S
C1295 C1294 1.366 . S
C1295 C1296 1.414 . S
C1295 C1298 1.499 . S
C1296 H1276 0.950 . S
C1296 C1295 1.414 . S
C1296 C1297 1.374 . S
C1297 H1277 0.950 . S
C1297 C1293 1.385 . S
C1297 C1296 1.374 . S
C1298 C1295 1.499 . S
C1298 C1299 1.373 . S
C1298 C1300 1.389 . S
C1299 H1278 0.950 . S
C1299 C1298 1.373 . S
C1299 C1315 1.377 . S
C1300 C1298 1.389 . S
C1300 C1301 1.524 . S
C1300 C1314 1.377 . S
C1301 C1300 1.524 . S
C1301 C1302 1.397 . S
C1301 C1306 1.363 . S
C1302 H1279 0.950 . S
C1302 C1301 1.397 . S
C1302 C1303 1.334 . S
C1303 H1280 0.950 . S
C1303 C1302 1.334 . S
C1303 C1304 1.287 . S
C1304 C1303 1.287 . S
C1304 C1305 1.524 . S
C1304 H1323 0.913 . S
C1305 H1281 0.950 . S
C1305 C1304 1.524 . S
C1305 C1306 1.415 . S
C1306 H1282 0.950 . S
C1306 C1301 1.363 . S
C1306 C1305 1.415 . S
C1307 H1283 0.951 . S
C1307 C1308 1.366 . S
C1307 C1309 1.388 . S
C1308 C1307 1.366 . S
C1308 C1312 1.385 . S
C1309 H1284 0.951 . S
C1309 C1307 1.388 . S
C1309 C1310 1.366 . S
C1310 C1309 1.366 . S
C1310 C1311 1.414 . S
C1310 C1313 1.499 . S
C1311 H1285 0.950 . S
C1311 C1310 1.414 . S
C1311 C1312 1.374 . S
C1312 H1286 0.950 . S
C1312 C1308 1.385 . S
C1312 C1311 1.374 . S
C1313 C1310 1.499 . S
C1313 C1314 1.373 . S
C1313 C1315 1.389 . S
C1314 H1287 0.950 . S
C1314 C1300 1.377 . S
C1314 C1313 1.373 . S
C1315 C1299 1.377 . S
C1315 C1313 1.389 . S
C1315 C1316 1.524 . S
C1316 C1315 1.524 . S
C1316 C1317 1.397 . S
C1316 C1321 1.363 . S
C1317 H1288 0.950 . S
C1317 C1316 1.397 . S
C1317 C1318 1.334 . S
C1318 H1289 0.950 . S
C1318 C1317 1.334 . S
C1318 C1319 1.287 . S
C1319 C1318 1.287 . S
C1319 C1320 1.524 . S
C1319 H1322 0.999 . S
C1320 H1290 0.950 . S
C1320 C1319 1.524 . S
C1320 C1321 1.415 . S
C1321 H1291 0.950 . S
C1321 C1316 1.363 . S
C1321 C1320 1.415 . S
H1322 C1319 0.999 . S
H1323 C1304 0.913 . S
H1324 C1342 0.951 . S
H1325 C1344 0.951 . S
H1326 C1346 0.950 . S
H1327 C1347 0.950 . S
H1328 C1349 0.950 . S
H1329 C1352 0.950 . S
H1330 C1353 0.950 . S
H1331 C1355 0.950 . S
H1332 C1356 0.950 . S
H1333 C1357 0.951 . S
H1334 C1359 0.951 . S
H1335 C1361 0.950 . S
H1336 C1362 0.950 . S
H1337 C1364 0.950 . S
H1338 C1367 0.950 . S
H1339 C1368 0.950 . S
H1340 C1370 0.950 . S
H1341 C1371 0.950 . S
C1342 H1324 0.951 . S
C1342 C1343 1.366 . S
C1342 C1344 1.388 . S
C1343 C1342 1.366 . S
C1343 C1347 1.385 . S
C1344 H1325 0.951 . S
C1344 C1342 1.388 . S
C1344 C1345 1.366 . S
C1345 C1344 1.366 . S
C1345 C1346 1.414 . S
C1345 C1348 1.499 . S
C1346 H1326 0.950 . S
C1346 C1345 1.414 . S
C1346 C1347 1.374 . S
C1347 H1327 0.950 . S
C1347 C1343 1.385 . S
C1347 C1346 1.374 . S
C1348 C1345 1.499 . S
C1348 C1349 1.373 . S
C1348 C1350 1.389 . S
C1349 H1328 0.950 . S
C1349 C1348 1.373 . S
C1349 C1365 1.377 . S
C1350 C1348 1.389 . S
C1350 C1351 1.524 . S
C1350 C1364 1.377 . S
C1351 C1350 1.524 . S
C1351 C1352 1.397 . S
C1351 C1356 1.363 . S
C1352 H1329 0.950 . S
C1352 C1351 1.397 . S
C1352 C1353 1.334 . S
C1353 H1330 0.950 . S
C1353 C1352 1.334 . S
C1353 C1354 1.287 . S
C1354 C1353 1.287 . S
C1354 C1355 1.524 . S
C1354 H1373 0.913 . S
C1355 H1331 0.950 . S
C1355 C1354 1.524 . S
C1355 C1356 1.415 . S
C1356 H1332 0.950 . S
C1356 C1351 1.363 . S
C1356 C1355 1.415 . S
C1357 H1333 0.951 . S
C1357 C1358 1.366 . S
C1357 C1359 1.388 . S
C1358 C1357 1.366 . S
C1358 C1362 1.385 . S
C1359 H1334 0.951 . S
C1359 C1357 1.388 . S
C1359 C1360 1.366 . S
C1360 C1359 1.366 . S
C1360 C1361 1.414 . S
C1360 C1363 1.499 . S
C1361 H1335 0.950 . S
C1361 C1360 1.414 . S
C1361 C1362 1.374 . S
C1362 H1336 0.950 . S
C1362 C1358 1.385 . S
C1362 C1361 1.374 . S
C1363 C1360 1.499 . S
C1363 C1364 1.373 . S
C1363 C1365 1.389 . S
C1364 H1337 0.950 . S
C1364 C1350 1.377 . S
C1364 C1363 1.373 . S
C1365 C1349 1.377 . S
C1365 C1363 1.389 . S
C1365 C1366 1.524 . S
C1366 C1365 1.524 . S
C1366 C1367 1.397 . S
C1366 C1371 1.363 . S
C1367 H1338 0.950 . S
C1367 C1366 1.397 . S
C1367 C1368 1.334 . S
C1368 H1339 0.950 . S
C1368 C1367 1.334 . S
C1368 C1369 1.287 . S
C1369 C1368 1.287 . S
C1369 C1370 1.524 . S
C1369 H1372 0.999 . S
C1370 H1340 0.950 . S
C1370 C1369 1.524 . S
C1370 C1371 1.415 . S
C1371 H1341 0.950 . S
C1371 C1366 1.363 . S
C1371 C1370 1.415 . S
H1372 C1369 0.999 . S
H1373 C1354 0.913 . S
H1374 C1392 0.951 . S
H1375 C1394 0.951 . S
H1376 C1396 0.950 . S
H1377 C1397 0.950 . S
H1378 C1399 0.950 . S
H1379 C1402 0.950 . S
H1380 C1403 0.950 . S
H1381 C1405 0.950 . S
H1382 C1406 0.950 . S
H1383 C1407 0.951 . S
H1384 C1409 0.951 . S
H1385 C1411 0.950 . S
H1386 C1412 0.950 . S
H1387 C1414 0.950 . S
H1388 C1417 0.950 . S
H1389 C1418 0.950 . S
H1390 C1420 0.950 . S
H1391 C1421 0.950 . S
C1392 H1374 0.951 . S
C1392 C1393 1.366 1_545 S
C1392 C1394 1.388 . S
C1393 C1392 1.366 1_565 S
C1393 C1397 1.385 . S
C1394 H1375 0.951 . S
C1394 C1392 1.388 . S
C1394 C1395 1.366 . S
C1395 C1394 1.366 . S
C1395 C1396 1.414 . S
C1395 C1398 1.499 . S
C1396 H1376 0.950 . S
C1396 C1395 1.414 . S
C1396 C1397 1.374 1_545 S
C1397 H1377 0.950 . S
C1397 C1393 1.385 . S
C1397 C1396 1.374 1_565 S
C1398 C1395 1.499 . S
C1398 C1399 1.373 . S
C1398 C1400 1.389 . S
C1399 H1378 0.950 . S
C1399 C1398 1.373 . S
C1399 C1415 1.377 . S
C1400 C1398 1.389 . S
C1400 C1401 1.524 . S
C1400 C1414 1.377 . S
C1401 C1400 1.524 . S
C1401 C1402 1.397 . S
C1401 C1406 1.363 . S
C1402 H1379 0.950 . S
C1402 C1401 1.397 . S
C1402 C1403 1.334 . S
C1403 H1380 0.950 . S
C1403 C1402 1.334 . S
C1403 C1404 1.287 . S
C1404 C1403 1.287 . S
C1404 C1405 1.524 . S
C1404 H1423 0.913 . S
C1405 H1381 0.950 . S
C1405 C1404 1.524 . S
C1405 C1406 1.415 . S
C1406 H1382 0.950 . S
C1406 C1401 1.363 . S
C1406 C1405 1.415 . S
C1407 H1383 0.951 . S
C1407 C1408 1.366 . S
C1407 C1409 1.388 . S
C1408 C1407 1.366 . S
C1408 C1412 1.385 . S
C1409 H1384 0.951 . S
C1409 C1407 1.388 . S
C1409 C1410 1.366 . S
C1410 C1409 1.366 . S
C1410 C1411 1.414 . S
C1410 C1413 1.499 . S
C1411 H1385 0.950 . S
C1411 C1410 1.414 . S
C1411 C1412 1.374 . S
C1412 H1386 0.950 . S
C1412 C1408 1.385 . S
C1412 C1411 1.374 . S
C1413 C1410 1.499 . S
C1413 C1414 1.373 . S
C1413 C1415 1.389 . S
C1414 H1387 0.950 . S
C1414 C1400 1.377 . S
C1414 C1413 1.373 . S
C1415 C1399 1.377 . S
C1415 C1413 1.389 . S
C1415 C1416 1.524 . S
C1416 C1415 1.524 . S
C1416 C1417 1.397 . S
C1416 C1421 1.363 . S
C1417 H1388 0.950 . S
C1417 C1416 1.397 . S
C1417 C1418 1.334 . S
C1418 H1389 0.950 . S
C1418 C1417 1.334 . S
C1418 C1419 1.287 . S
C1419 C1418 1.287 . S
C1419 C1420 1.524 . S
C1419 H1422 0.999 . S
C1420 H1390 0.950 . S
C1420 C1419 1.524 . S
C1420 C1421 1.415 . S
C1421 H1391 0.950 . S
C1421 C1416 1.363 . S
C1421 C1420 1.415 . S
H1422 C1419 0.999 . S
H1423 C1404 0.913 . S
H1424 C1442 0.951 . S
H1425 C1444 0.951 . S
H1426 C1446 0.950 . S
H1427 C1447 0.950 . S
H1428 C1449 0.950 . S
H1429 C1452 0.950 . S
H1430 C1453 0.950 . S
H1431 C1455 0.950 . S
H1432 C1456 0.950 . S
H1433 C1457 0.951 . S
H1434 C1459 0.951 1_545 S
H1435 C1461 0.950 . S
H1436 C1462 0.950 . S
H1437 C1464 0.950 . S
H1438 C1467 0.950 . S
H1439 C1468 0.950 . S
H1440 C1470 0.950 . S
H1441 C1471 0.950 . S
C1442 H1424 0.951 . S
C1442 C1443 1.366 . S
C1442 C1444 1.388 . S
C1443 C1442 1.366 . S
C1443 C1447 1.385 . S
C1444 H1425 0.951 . S
C1444 C1442 1.388 . S
C1444 C1445 1.366 . S
C1445 C1444 1.366 . S
C1445 C1446 1.414 . S
C1445 C1448 1.499 . S
C1446 H1426 0.950 . S
C1446 C1445 1.414 . S
C1446 C1447 1.374 . S
C1447 H1427 0.950 . S
C1447 C1443 1.385 . S
C1447 C1446 1.374 . S
C1448 C1445 1.499 . S
C1448 C1449 1.373 . S
C1448 C1450 1.389 . S
C1449 H1428 0.950 . S
C1449 C1448 1.373 . S
C1449 C1465 1.377 . S
C1450 C1448 1.389 . S
C1450 C1451 1.524 . S
C1450 C1464 1.377 . S
C1451 C1450 1.524 . S
C1451 C1452 1.397 . S
C1451 C1456 1.363 . S
C1452 H1429 0.950 . S
C1452 C1451 1.397 . S
C1452 C1453 1.334 . S
C1453 H1430 0.950 . S
C1453 C1452 1.334 . S
C1453 C1454 1.287 . S
C1454 C1453 1.287 . S
C1454 C1455 1.524 . S
C1454 H1473 0.913 . S
C1455 H1431 0.950 . S
C1455 C1454 1.524 . S
C1455 C1456 1.415 . S
C1456 H1432 0.950 . S
C1456 C1451 1.363 . S
C1456 C1455 1.415 . S
C1457 H1433 0.951 . S
C1457 C1458 1.366 . S
C1457 C1459 1.388 1_545 S
C1458 C1457 1.366 . S
C1458 C1462 1.385 1_545 S
C1459 H1434 0.951 1_565 S
C1459 C1457 1.388 1_565 S
C1459 C1460 1.366 . S
C1460 C1459 1.366 . S
C1460 C1461 1.414 . S
C1460 C1463 1.499 . S
C1461 H1435 0.950 . S
C1461 C1460 1.414 . S
C1461 C1462 1.374 . S
C1462 H1436 0.950 . S
C1462 C1458 1.385 1_565 S
C1462 C1461 1.374 . S
C1463 C1460 1.499 . S
C1463 C1464 1.373 . S
C1463 C1465 1.389 . S
C1464 H1437 0.950 . S
C1464 C1450 1.377 . S
C1464 C1463 1.373 . S
C1465 C1449 1.377 . S
C1465 C1463 1.389 . S
C1465 C1466 1.524 . S
C1466 C1465 1.524 . S
C1466 C1467 1.397 . S
C1466 C1471 1.363 . S
C1467 H1438 0.950 . S
C1467 C1466 1.397 . S
C1467 C1468 1.334 1_565 S
C1468 H1439 0.950 . S
C1468 C1467 1.334 1_545 S
C1468 C1469 1.287 . S
C1469 C1468 1.287 . S
C1469 C1470 1.524 . S
C1469 H1472 0.999 . S
C1470 H1440 0.950 . S
C1470 C1469 1.524 . S
C1470 C1471 1.415 1_545 S
C1471 H1441 0.950 . S
C1471 C1466 1.363 . S
C1471 C1470 1.415 1_565 S
H1472 C1469 0.999 . S
H1473 C1454 0.913 . S
H1474 C1492 0.951 . S
H1475 C1494 0.951 . S
H1476 C1496 0.950 . S
H1477 C1497 0.950 . S
H1478 C1499 0.950 . S
H1479 C1502 0.950 . S
H1480 C1503 0.950 . S
H1481 C1505 0.950 . S
H1482 C1506 0.950 . S
H1483 C1507 0.951 . S
H1484 C1509 0.951 . S
H1485 C1511 0.950 . S
H1486 C1512 0.950 . S
H1487 C1514 0.950 . S
H1488 C1517 0.950 . S
H1489 C1518 0.950 . S
H1490 C1520 0.950 . S
H1491 C1521 0.950 . S
C1492 H1474 0.951 . S
C1492 C1493 1.366 . S
C1492 C1494 1.388 . S
C1493 C1492 1.366 . S
C1493 C1497 1.385 . S
C1494 H1475 0.951 . S
C1494 C1492 1.388 . S
C1494 C1495 1.366 . S
C1495 C1494 1.366 . S
C1495 C1496 1.414 . S
C1495 C1498 1.499 . S
C1496 H1476 0.950 . S
C1496 C1495 1.414 . S
C1496 C1497 1.374 . S
C1497 H1477 0.950 . S
C1497 C1493 1.385 . S
C1497 C1496 1.374 . S
C1498 C1495 1.499 . S
C1498 C1499 1.373 . S
C1498 C1500 1.389 . S
C1499 H1478 0.950 . S
C1499 C1498 1.373 . S
C1499 C1515 1.377 . S
C1500 C1498 1.389 . S
C1500 C1501 1.524 . S
C1500 C1514 1.377 . S
C1501 C1500 1.524 . S
C1501 C1502 1.397 . S
C1501 C1506 1.363 . S
C1502 H1479 0.950 . S
C1502 C1501 1.397 . S
C1502 C1503 1.334 . S
C1503 H1480 0.950 . S
C1503 C1502 1.334 . S
C1503 C1504 1.287 . S
C1504 C1503 1.287 . S
C1504 C1505 1.524 . S
C1504 H1523 0.913 . S
C1505 H1481 0.950 . S
C1505 C1504 1.524 . S
C1505 C1506 1.415 . S
C1506 H1482 0.950 . S
C1506 C1501 1.363 . S
C1506 C1505 1.415 . S
C1507 H1483 0.951 . S
C1507 C1508 1.366 . S
C1507 C1509 1.388 . S
C1508 C1507 1.366 . S
C1508 C1512 1.385 . S
C1509 H1484 0.951 . S
C1509 C1507 1.388 . S
C1509 C1510 1.366 . S
C1510 C1509 1.366 . S
C1510 C1511 1.414 . S
C1510 C1513 1.499 . S
C1511 H1485 0.950 . S
C1511 C1510 1.414 . S
C1511 C1512 1.374 . S
C1512 H1486 0.950 . S
C1512 C1508 1.385 . S
C1512 C1511 1.374 . S
C1513 C1510 1.499 . S
C1513 C1514 1.373 . S
C1513 C1515 1.389 . S
C1514 H1487 0.950 . S
C1514 C1500 1.377 . S
C1514 C1513 1.373 . S
C1515 C1499 1.377 . S
C1515 C1513 1.389 . S
C1515 C1516 1.524 . S
C1516 C1515 1.524 . S
C1516 C1517 1.397 . S
C1516 C1521 1.363 . S
C1517 H1488 0.950 . S
C1517 C1516 1.397 . S
C1517 C1518 1.334 . S
C1518 H1489 0.950 . S
C1518 C1517 1.334 . S
C1518 C1519 1.287 . S
C1519 C1518 1.287 . S
C1519 C1520 1.524 . S
C1519 H1522 0.999 . S
C1520 H1490 0.950 . S
C1520 C1519 1.524 . S
C1520 C1521 1.415 . S
C1521 H1491 0.950 . S
C1521 C1516 1.363 . S
C1521 C1520 1.415 . S
H1522 C1519 0.999 . S
H1523 C1504 0.913 . S
H1524 C1542 0.951 . S
H1525 C1544 0.951 . S
H1526 C1546 0.950 . S
H1527 C1547 0.950 . S
H1528 C1549 0.950 . S
H1529 C1552 0.950 . S
H1530 C1553 0.950 . S
H1531 C1555 0.950 . S
H1532 C1556 0.950 . S
H1533 C1557 0.951 . S
H1534 C1559 0.951 . S
H1535 C1561 0.950 . S
H1536 C1562 0.950 . S
H1537 C1564 0.950 . S
H1538 C1567 0.950 . S
H1539 C1568 0.950 . S
H1540 C1570 0.950 . S
H1541 C1571 0.950 . S
C1542 H1524 0.951 . S
C1542 C1543 1.366 . S
C1542 C1544 1.388 . S
C1543 C1542 1.366 . S
C1543 C1547 1.385 . S
C1544 H1525 0.951 . S
C1544 C1542 1.388 . S
C1544 C1545 1.366 . S
C1545 C1544 1.366 . S
C1545 C1546 1.414 . S
C1545 C1548 1.499 . S
C1546 H1526 0.950 . S
C1546 C1545 1.414 . S
C1546 C1547 1.374 . S
C1547 H1527 0.950 . S
C1547 C1543 1.385 . S
C1547 C1546 1.374 . S
C1548 C1545 1.499 . S
C1548 C1549 1.373 . S
C1548 C1550 1.389 . S
C1549 H1528 0.950 . S
C1549 C1548 1.373 . S
C1549 C1565 1.377 . S
C1550 C1548 1.389 . S
C1550 C1551 1.524 . S
C1550 C1564 1.377 . S
C1551 C1550 1.524 . S
C1551 C1552 1.397 . S
C1551 C1556 1.363 . S
C1552 H1529 0.950 . S
C1552 C1551 1.397 . S
C1552 C1553 1.334 . S
C1553 H1530 0.950 . S
C1553 C1552 1.334 . S
C1553 C1554 1.287 . S
C1554 C1553 1.287 . S
C1554 C1555 1.524 . S
C1554 H1573 0.913 . S
C1555 H1531 0.950 . S
C1555 C1554 1.524 . S
C1555 C1556 1.415 . S
C1556 H1532 0.950 . S
C1556 C1551 1.363 . S
C1556 C1555 1.415 . S
C1557 H1533 0.951 . S
C1557 C1558 1.366 . S
C1557 C1559 1.388 . S
C1558 C1557 1.366 . S
C1558 C1562 1.385 . S
C1559 H1534 0.951 . S
C1559 C1557 1.388 . S
C1559 C1560 1.366 . S
C1560 C1559 1.366 . S
C1560 C1561 1.414 . S
C1560 C1563 1.499 . S
C1561 H1535 0.950 . S
C1561 C1560 1.414 . S
C1561 C1562 1.374 . S
C1562 H1536 0.950 . S
C1562 C1558 1.385 . S
C1562 C1561 1.374 . S
C1563 C1560 1.499 . S
C1563 C1564 1.373 . S
C1563 C1565 1.389 . S
C1564 H1537 0.950 . S
C1564 C1550 1.377 . S
C1564 C1563 1.373 . S
C1565 C1549 1.377 . S
C1565 C1563 1.389 . S
C1565 C1566 1.524 . S
C1566 C1565 1.524 . S
C1566 C1567 1.397 . S
C1566 C1571 1.363 . S
C1567 H1538 0.950 . S
C1567 C1566 1.397 . S
C1567 C1568 1.334 . S
C1568 H1539 0.950 . S
C1568 C1567 1.334 . S
C1568 C1569 1.287 . S
C1569 C1568 1.287 . S
C1569 C1570 1.524 . S
C1569 H1572 0.999 . S
C1570 H1540 0.950 . S
C1570 C1569 1.524 . S
C1570 C1571 1.415 . S
C1571 H1541 0.950 . S
C1571 C1566 1.363 . S
C1571 C1570 1.415 . S
H1572 C1569 0.999 . S
H1573 C1554 0.913 . S
H1574 C1592 0.951 . S
H1575 C1594 0.951 . S
H1576 C1596 0.950 . S
H1577 C1597 0.950 . S
H1578 C1599 0.950 . S
H1579 C1602 0.950 . S
H1580 C1603 0.950 . S
H1581 C1605 0.950 . S
H1582 C1606 0.950 . S
H1583 C1607 0.951 . S
H1584 C1609 0.951 1_545 S
H1585 C1611 0.950 . S
H1586 C1612 0.950 . S
H1587 C1614 0.950 . S
H1588 C1617 0.950 . S
H1589 C1618 0.950 . S
H1590 C1620 0.950 . S
H1591 C1621 0.950 . S
C1592 H1574 0.951 . S
C1592 C1593 1.366 . S
C1592 C1594 1.388 . S
C1593 C1592 1.366 . S
C1593 C1597 1.385 . S
C1594 H1575 0.951 . S
C1594 C1592 1.388 . S
C1594 C1595 1.366 . S
C1595 C1594 1.366 . S
C1595 C1596 1.414 . S
C1595 C1598 1.499 . S
C1596 H1576 0.950 . S
C1596 C1595 1.414 . S
C1596 C1597 1.374 . S
C1597 H1577 0.950 . S
C1597 C1593 1.385 . S
C1597 C1596 1.374 . S
C1598 C1595 1.499 . S
C1598 C1599 1.373 . S
C1598 C1600 1.389 . S
C1599 H1578 0.950 . S
C1599 C1598 1.373 . S
C1599 C1615 1.377 . S
C1600 C1598 1.389 . S
C1600 C1601 1.524 . S
C1600 C1614 1.377 . S
C1601 C1600 1.524 . S
C1601 C1602 1.397 . S
C1601 C1606 1.363 . S
C1602 H1579 0.950 . S
C1602 C1601 1.397 . S
C1602 C1603 1.334 . S
C1603 H1580 0.950 . S
C1603 C1602 1.334 . S
C1603 C1604 1.287 . S
C1604 C1603 1.287 . S
C1604 C1605 1.524 . S
C1604 H1623 0.913 . S
C1605 H1581 0.950 . S
C1605 C1604 1.524 . S
C1605 C1606 1.415 . S
C1606 H1582 0.950 . S
C1606 C1601 1.363 . S
C1606 C1605 1.415 . S
C1607 H1583 0.951 . S
C1607 C1608 1.366 . S
C1607 C1609 1.388 1_545 S
C1608 C1607 1.366 . S
C1608 C1612 1.385 1_545 S
C1609 H1584 0.951 1_565 S
C1609 C1607 1.388 1_565 S
C1609 C1610 1.366 . S
C1610 C1609 1.366 . S
C1610 C1611 1.414 . S
C1610 C1613 1.499 . S
C1611 H1585 0.950 . S
C1611 C1610 1.414 . S
C1611 C1612 1.374 . S
C1612 H1586 0.950 . S
C1612 C1608 1.385 1_565 S
C1612 C1611 1.374 . S
C1613 C1610 1.499 . S
C1613 C1614 1.373 . S
C1613 C1615 1.389 . S
C1614 H1587 0.950 . S
C1614 C1600 1.377 . S
C1614 C1613 1.373 . S
C1615 C1599 1.377 . S
C1615 C1613 1.389 . S
C1615 C1616 1.524 . S
C1616 C1615 1.524 . S
C1616 C1617 1.397 . S
C1616 C1621 1.363 . S
C1617 H1588 0.950 . S
C1617 C1616 1.397 . S
C1617 C1618 1.334 1_565 S
C1618 H1589 0.950 . S
C1618 C1617 1.334 1_545 S
C1618 C1619 1.287 . S
C1619 C1618 1.287 . S
C1619 C1620 1.524 . S
C1619 H1622 0.999 . S
C1620 H1590 0.950 . S
C1620 C1619 1.524 . S
C1620 C1621 1.415 1_545 S
C1621 H1591 0.950 . S
C1621 C1616 1.363 . S
C1621 C1620 1.415 1_565 S
H1622 C1619 0.999 . S
H1623 C1604 0.913 . S
H1624 C1642 0.951 . S
H1625 C1644 0.951 . S
H1626 C1646 0.950 . S
H1627 C1647 0.950 . S
H1628 C1649 0.950 . S
H1629 C1652 0.950 . S
H1630 C1653 0.950 . S
H1631 C1655 0.950 . S
H1632 C1656 0.950 . S
H1633 C1657 0.951 . S
H1634 C1659 0.951 . S
H1635 C1661 0.950 . S
H1636 C1662 0.950 . S
H1637 C1664 0.950 . S
H1638 C1667 0.950 . S
H1639 C1668 0.950 . S
H1640 C1670 0.950 . S
H1641 C1671 0.950 . S
C1642 H1624 0.951 . S
C1642 C1643 1.366 . S
C1642 C1644 1.388 . S
C1643 C1642 1.366 . S
C1643 C1647 1.385 . S
C1644 H1625 0.951 . S
C1644 C1642 1.388 . S
C1644 C1645 1.366 . S
C1645 C1644 1.366 . S
C1645 C1646 1.414 . S
C1645 C1648 1.499 . S
C1646 H1626 0.950 . S
C1646 C1645 1.414 . S
C1646 C1647 1.374 . S
C1647 H1627 0.950 . S
C1647 C1643 1.385 . S
C1647 C1646 1.374 . S
C1648 C1645 1.499 . S
C1648 C1649 1.373 . S
C1648 C1650 1.389 . S
C1649 H1628 0.950 . S
C1649 C1648 1.373 . S
C1649 C1665 1.377 . S
C1650 C1648 1.389 . S
C1650 C1651 1.524 . S
C1650 C1664 1.377 . S
C1651 C1650 1.524 . S
C1651 C1652 1.397 . S
C1651 C1656 1.363 . S
C1652 H1629 0.950 . S
C1652 C1651 1.397 . S
C1652 C1653 1.334 . S
C1653 H1630 0.950 . S
C1653 C1652 1.334 . S
C1653 C1654 1.287 . S
C1654 C1653 1.287 . S
C1654 C1655 1.524 . S
C1654 H1673 0.913 . S
C1655 H1631 0.950 . S
C1655 C1654 1.524 . S
C1655 C1656 1.415 . S
C1656 H1632 0.950 . S
C1656 C1651 1.363 . S
C1656 C1655 1.415 . S
C1657 H1633 0.951 . S
C1657 C1658 1.366 . S
C1657 C1659 1.388 1_565 S
C1658 C1657 1.366 . S
C1658 C1662 1.385 . S
C1659 H1634 0.951 . S
C1659 C1657 1.388 1_545 S
C1659 C1660 1.366 . S
C1660 C1659 1.366 . S
C1660 C1661 1.414 . S
C1660 C1663 1.499 . S
C1661 H1635 0.950 . S
C1661 C1660 1.414 . S
C1661 C1662 1.374 1_545 S
C1662 H1636 0.950 . S
C1662 C1658 1.385 . S
C1662 C1661 1.374 1_565 S
C1663 C1660 1.499 . S
C1663 C1664 1.373 . S
C1663 C1665 1.389 . S
C1664 H1637 0.950 . S
C1664 C1650 1.377 . S
C1664 C1663 1.373 . S
C1665 C1649 1.377 . S
C1665 C1663 1.389 . S
C1665 C1666 1.524 . S
C1666 C1665 1.524 . S
C1666 C1667 1.397 . S
C1666 C1671 1.363 . S
C1667 H1638 0.950 . S
C1667 C1666 1.397 . S
C1667 C1668 1.334 . S
C1668 H1639 0.950 . S
C1668 C1667 1.334 . S
C1668 C1669 1.287 . S
C1669 C1668 1.287 . S
C1669 C1670 1.524 . S
C1669 H1672 0.999 . S
C1670 H1640 0.950 . S
C1670 C1669 1.524 . S
C1670 C1671 1.415 . S
C1671 H1641 0.950 . S
C1671 C1666 1.363 . S
C1671 C1670 1.415 . S
H1672 C1669 0.999 . S
H1673 C1654 0.913 . S
H1674 C1692 0.951 . S
H1675 C1694 0.951 . S
H1676 C1696 0.950 . S
H1677 C1697 0.950 . S
H1678 C1699 0.950 . S
H1679 C1702 0.950 . S
H1680 C1703 0.950 . S
H1681 C1705 0.950 . S
H1682 C1706 0.950 . S
H1683 C1707 0.951 . S
H1684 C1709 0.951 . S
H1685 C1711 0.950 . S
H1686 C1712 0.950 . S
H1687 C1714 0.950 . S
H1688 C1717 0.950 . S
H1689 C1718 0.950 . S
H1690 C1720 0.950 . S
H1691 C1721 0.950 . S
C1692 H1674 0.951 . S
C1692 C1693 1.366 . S
C1692 C1694 1.388 . S
C1693 C1692 1.366 . S
C1693 C1697 1.385 . S
C1694 H1675 0.951 . S
C1694 C1692 1.388 . S
C1694 C1695 1.366 . S
C1695 C1694 1.366 . S
C1695 C1696 1.414 . S
C1695 C1698 1.499 . S
C1696 H1676 0.950 . S
C1696 C1695 1.414 . S
C1696 C1697 1.374 . S
C1697 H1677 0.950 . S
C1697 C1693 1.385 . S
C1697 C1696 1.374 . S
C1698 C1695 1.499 . S
C1698 C1699 1.373 . S
C1698 C1700 1.389 . S
C1699 H1678 0.950 . S
C1699 C1698 1.373 . S
C1699 C1715 1.377 . S
C1700 C1698 1.389 . S
C1700 C1701 1.524 . S
C1700 C1714 1.377 . S
C1701 C1700 1.524 . S
C1701 C1702 1.397 . S
C1701 C1706 1.363 . S
C1702 H1679 0.950 . S
C1702 C1701 1.397 . S
C1702 C1703 1.334 . S
C1703 H1680 0.950 . S
C1703 C1702 1.334 . S
C1703 C1704 1.287 . S
C1704 C1703 1.287 . S
C1704 C1705 1.524 . S
C1704 H1723 0.913 . S
C1705 H1681 0.950 . S
C1705 C1704 1.524 . S
C1705 C1706 1.415 . S
C1706 H1682 0.950 . S
C1706 C1701 1.363 . S
C1706 C1705 1.415 . S
C1707 H1683 0.951 . S
C1707 C1708 1.366 . S
C1707 C1709 1.388 . S
C1708 C1707 1.366 . S
C1708 C1712 1.385 . S
C1709 H1684 0.951 . S
C1709 C1707 1.388 . S
C1709 C1710 1.366 . S
C1710 C1709 1.366 . S
C1710 C1711 1.414 . S
C1710 C1713 1.499 . S
C1711 H1685 0.950 . S
C1711 C1710 1.414 . S
C1711 C1712 1.374 . S
C1712 H1686 0.950 . S
C1712 C1708 1.385 . S
C1712 C1711 1.374 . S
C1713 C1710 1.499 . S
C1713 C1714 1.373 . S
C1713 C1715 1.389 . S
C1714 H1687 0.950 . S
C1714 C1700 1.377 . S
C1714 C1713 1.373 . S
C1715 C1699 1.377 . S
C1715 C1713 1.389 . S
C1715 C1716 1.524 . S
C1716 C1715 1.524 . S
C1716 C1717 1.397 . S
C1716 C1721 1.363 . S
C1717 H1688 0.950 . S
C1717 C1716 1.397 . S
C1717 C1718 1.334 . S
C1718 H1689 0.950 . S
C1718 C1717 1.334 . S
C1718 C1719 1.287 . S
C1719 C1718 1.287 . S
C1719 C1720 1.524 . S
C1719 H1722 0.999 . S
C1720 H1690 0.950 . S
C1720 C1719 1.524 . S
C1720 C1721 1.415 . S
C1721 H1691 0.950 . S
C1721 C1716 1.363 . S
C1721 C1720 1.415 . S
H1722 C1719 0.999 . S
H1723 C1704 0.913 . S
H1724 C1742 0.951 . S
H1725 C1744 0.951 . S
H1726 C1746 0.950 . S
H1727 C1747 0.950 . S
H1728 C1749 0.950 . S
H1729 C1752 0.950 . S
H1730 C1753 0.950 . S
H1731 C1755 0.950 . S
H1732 C1756 0.950 . S
H1733 C1757 0.951 . S
H1734 C1759 0.951 . S
H1735 C1761 0.950 . S
H1736 C1762 0.950 . S
H1737 C1764 0.950 . S
H1738 C1767 0.950 . S
H1739 C1768 0.950 . S
H1740 C1770 0.950 . S
H1741 C1771 0.950 . S
C1742 H1724 0.951 . S
C1742 C1743 1.366 . S
C1742 C1744 1.388 . S
C1743 C1742 1.366 . S
C1743 C1747 1.385 . S
C1744 H1725 0.951 . S
C1744 C1742 1.388 . S
C1744 C1745 1.366 . S
C1745 C1744 1.366 . S
C1745 C1746 1.414 . S
C1745 C1748 1.499 . S
C1746 H1726 0.950 . S
C1746 C1745 1.414 . S
C1746 C1747 1.374 . S
C1747 H1727 0.950 . S
C1747 C1743 1.385 . S
C1747 C1746 1.374 . S
C1748 C1745 1.499 . S
C1748 C1749 1.373 . S
C1748 C1750 1.389 . S
C1749 H1728 0.950 . S
C1749 C1748 1.373 . S
C1749 C1765 1.377 . S
C1750 C1748 1.389 . S
C1750 C1751 1.524 . S
C1750 C1764 1.377 . S
C1751 C1750 1.524 . S
C1751 C1752 1.397 . S
C1751 C1756 1.363 . S
C1752 H1729 0.950 . S
C1752 C1751 1.397 . S
C1752 C1753 1.334 . S
C1753 H1730 0.950 . S
C1753 C1752 1.334 . S
C1753 C1754 1.287 . S
C1754 C1753 1.287 . S
C1754 C1755 1.524 . S
C1754 H1773 0.913 . S
C1755 H1731 0.950 . S
C1755 C1754 1.524 . S
C1755 C1756 1.415 . S
C1756 H1732 0.950 . S
C1756 C1751 1.363 . S
C1756 C1755 1.415 . S
C1757 H1733 0.951 . S
C1757 C1758 1.366 . S
C1757 C1759 1.388 . S
C1758 C1757 1.366 . S
C1758 C1762 1.385 . S
C1759 H1734 0.951 . S
C1759 C1757 1.388 . S
C1759 C1760 1.366 . S
C1760 C1759 1.366 . S
C1760 C1761 1.414 . S
C1760 C1763 1.499 . S
C1761 H1735 0.950 . S
C1761 C1760 1.414 . S
C1761 C1762 1.374 . S
C1762 H1736 0.950 . S
C1762 C1758 1.385 . S
C1762 C1761 1.374 . S
C1763 C1760 1.499 . S
C1763 C1764 1.373 . S
C1763 C1765 1.389 . S
C1764 H1737 0.950 . S
C1764 C1750 1.377 . S
C1764 C1763 1.373 . S
C1765 C1749 1.377 . S
C1765 C1763 1.389 . S
C1765 C1766 1.524 . S
C1766 C1765 1.524 . S
C1766 C1767 1.397 . S
C1766 C1771 1.363 . S
C1767 H1738 0.950 . S
C1767 C1766 1.397 . S
C1767 C1768 1.334 . S
C1768 H1739 0.950 . S
C1768 C1767 1.334 . S
C1768 C1769 1.287 . S
C1769 C1768 1.287 . S
C1769 C1770 1.524 . S
C1769 H1772 0.999 . S
C1770 H1740 0.950 . S
C1770 C1769 1.524 . S
C1770 C1771 1.415 . S
C1771 H1741 0.950 . S
C1771 C1766 1.363 . S
C1771 C1770 1.415 . S
H1772 C1769 0.999 . S
H1773 C1754 0.913 . S
H1774 C1792 0.951 . S
H1775 C1794 0.951 . S
H1776 C1796 0.950 . S
H1777 C1797 0.950 . S
H1778 C1799 0.950 . S
H1779 C1802 0.950 . S
H1780 C1803 0.950 . S
H1781 C1805 0.950 . S
H1782 C1806 0.950 . S
H1783 C1807 0.951 . S
H1784 C1809 0.951 . S
H1785 C1811 0.954 . S
H1786 C1812 0.950 . S
H1787 C1814 0.950 . S
H1788 C1817 0.950 . S
H1789 C1818 0.950 . S
H1790 C1820 0.950 . S
H1791 C1821 0.950 . S
C1792 H1774 0.951 . S
C1792 C1793 1.366 . S
C1792 C1794 1.388 . S
C1793 C1792 1.366 . S
C1793 C1797 1.385 . S
C1794 H1775 0.951 . S
C1794 C1792 1.388 . S
C1794 C1795 1.366 . S
C1795 C1794 1.366 . S
C1795 C1796 1.414 . S
C1795 C1798 1.499 . S
C1796 H1776 0.950 . S
C1796 C1795 1.414 . S
C1796 C1797 1.374 . S
C1797 H1777 0.950 . S
C1797 C1793 1.385 . S
C1797 C1796 1.374 . S
C1798 C1795 1.499 . S
C1798 C1799 1.373 . S
C1798 C1800 1.389 . S
C1799 H1778 0.950 . S
C1799 C1798 1.373 . S
C1799 C1815 1.377 . S
C1800 C1798 1.389 . S
C1800 C1801 1.524 . S
C1800 C1814 1.377 . S
C1801 C1800 1.524 . S
C1801 C1802 1.397 . S
C1801 C1806 1.363 . S
C1802 H1779 0.950 . S
C1802 C1801 1.397 . S
C1802 C1803 1.334 . S
C1803 H1780 0.950 . S
C1803 C1802 1.334 . S
C1803 C1804 1.287 . S
C1804 C1803 1.287 . S
C1804 C1805 1.524 . S
C1804 H1823 0.913 . S
C1805 H1781 0.950 . S
C1805 C1804 1.524 . S
C1805 C1806 1.415 . S
C1806 H1782 0.950 . S
C1806 C1801 1.363 . S
C1806 C1805 1.415 . S
C1807 H1783 0.951 . S
C1807 C1808 1.366 1_545 S
C1807 C1809 1.388 . S
C1808 C1807 1.366 1_565 S
C1808 C1812 1.385 . S
C1809 H1784 0.951 . S
C1809 C1807 1.388 . S
C1809 C1810 1.366 . S
C1810 C1809 1.366 . S
C1810 C1811 1.414 . S
C1810 C1813 1.499 . S
C1811 H1785 0.954 . S
C1811 C1810 1.414 . S
C1811 C1812 1.374 1_545 S
C1812 H1786 0.950 . S
C1812 C1808 1.385 . S
C1812 C1811 1.374 1_565 S
C1813 C1810 1.499 . S
C1813 C1814 1.373 . S
C1813 C1815 1.389 . S
C1814 H1787 0.950 . S
C1814 C1800 1.377 . S
C1814 C1813 1.373 . S
C1815 C1799 1.377 . S
C1815 C1813 1.389 . S
C1815 C1816 1.524 . S
C1816 C1815 1.524 . S
C1816 C1817 1.397 . S
C1816 C1821 1.363 . S
C1817 H1788 0.950 . S
C1817 C1816 1.397 . S
C1817 C1818 1.334 . S
C1818 H1789 0.950 . S
C1818 C1817 1.334 . S
C1818 C1819 1.287 . S
C1819 C1818 1.287 . S
C1819 C1820 1.524 . S
C1819 H1822 0.999 . S
C1820 H1790 0.950 . S
C1820 C1819 1.524 . S
C1820 C1821 1.415 . S
C1821 H1791 0.950 . S
C1821 C1816 1.363 . S
C1821 C1820 1.415 . S
H1822 C1819 0.999 . S
H1823 C1804 0.913 . S
C243 C203 1.491 . S
C258 C7 1.491 . S
C293 C34 1.491 . S
C308 C6 1.491 . S
C343 C160 1.491 . S
C358 C20 1.491 . S
C393 C21 1.492 . S
C408 C105 1.492 . S
C443 C35 1.491 . S
C458 C175 1.491 . S
C493 C132 1.491 . S
C508 C48 1.491 . S
C543 C49 1.491 . S
C558 C77 1.491 . S
C593 C147 1.491 . S
C608 C63 1.491 . S
C643 C62 1.491 . S
C658 C90 1.491 . S
C693 C216 1.491 . S
C708 C76 1.491 . S
C743 C119 1.491 . S
C758 C91 1.491 . S
C793 C188 1.492 . S
C808 C104 1.492 . S
C843 C118 1.491 . S
C858 C146 1.491 . S
C893 C217 1.491 . S
C908 C133 1.491 . S
C943 C161 1.491 . S
C958 C189 1.491 . S
C993 C202 1.491 . S
C1008 C174 1.491 . S
C1043 C79 1.724 . S
C1058 C8 1.725 . S
C1093 C9 1.724 . S
C1108 C78 1.724 . S
C1143 C23 1.724 . S
C1158 C64 1.724 . S
C1193 C65 1.725 . S
C1208 C22 1.724 . S
C1243 C107 1.724 . S
C1258 C36 1.724 . S
C1293 C106 1.724 . S
C1308 C37 1.725 . S
C1343 C92 1.724 . S
C1358 C51 1.724 . S
C1393 C50 1.724 . S
C1408 C93 1.724 . S
C1443 C191 1.724 . S
C1458 C120 1.724 . S
C1493 C121 1.724 . S
C1508 C190 1.725 . S
C1543 C135 1.724 . S
C1558 C176 1.724 . S
C1593 C177 1.725 . S
C1608 C134 1.724 . S
C1643 C219 1.724 . S
C1658 C148 1.724 . S
C1693 C218 1.724 . S
C1708 C149 1.725 . S
C1743 C163 1.725 . S
C1758 C204 1.724 . S
C1793 C205 1.725 . S
C1808 C162 1.724 . S
