# Generated by pormake.
# Topology irl, (4)-cn, num edge types: 1
# Building blocks:
#     Node 0, Type 0, BuildingBlock: ESEHIV_clean_sbu_0, # of connection points: 4
#     Node 1, Type 0, BuildingBlock: ESEHIV_clean_sbu_0, # of connection points: 4
#     Node 2, Type 0, BuildingBlock: ESEHIV_clean_sbu_0, # of connection points: 4
#     Node 3, Type 0, BuildingBlock: ESEHIV_clean_sbu_0, # of connection points: 4
#     Node 4, Type 0, BuildingBlock: ESEHIV_clean_sbu_0, # of connection points: 4
#     Node 5, Type 0, BuildingBlock: ESEHIV_clean_sbu_0, # of connection points: 4
#     Node 6, Type 0, BuildingBlock: ESEHIV_clean_sbu_0, # of connection points: 4
#     Node 7, Type 0, BuildingBlock: ESEHIV_clean_sbu_0, # of connection points: 4
#     Edge 8, Type (0, 0), BuildingBlock: AJUNOK_clean_linker_0, # of connection points: 2
#     Edge 9, Type (0, 0), BuildingBlock: AJUNOK_clean_linker_0, # of connection points: 2
#     Edge 10, Type (0, 0), BuildingBlock: AJUNOK_clean_linker_0, # of connection points: 2
#     Edge 11, Type (0, 0), BuildingBlock: AJUNOK_clean_linker_0, # of connection points: 2
#     Edge 12, Type (0, 0), BuildingBlock: AJUNOK_clean_linker_0, # of connection points: 2
#     Edge 13, Type (0, 0), BuildingBlock: AJUNOK_clean_linker_0, # of connection points: 2
#     Edge 14, Type (0, 0), BuildingBlock: AJUNOK_clean_linker_0, # of connection points: 2
#     Edge 15, Type (0, 0), BuildingBlock: AJUNOK_clean_linker_0, # of connection points: 2
#     Edge 16, Type (0, 0), BuildingBlock: AJUNOK_clean_linker_0, # of connection points: 2
#     Edge 17, Type (0, 0), BuildingBlock: AJUNOK_clean_linker_0, # of connection points: 2
#     Edge 18, Type (0, 0), BuildingBlock: AJUNOK_clean_linker_0, # of connection points: 2
#     Edge 19, Type (0, 0), BuildingBlock: AJUNOK_clean_linker_0, # of connection points: 2
#     Edge 20, Type (0, 0), BuildingBlock: AJUNOK_clean_linker_0, # of connection points: 2
#     Edge 21, Type (0, 0), BuildingBlock: AJUNOK_clean_linker_0, # of connection points: 2
#     Edge 22, Type (0, 0), BuildingBlock: AJUNOK_clean_linker_0, # of connection points: 2
#     Edge 23, Type (0, 0), BuildingBlock: AJUNOK_clean_linker_0, # of connection points: 2
# Relax obj value: 0.079
# Max RMSD: 0.129
# Mean RMSD: 0.128
data_MOF--net-irl--node1-ESEHIV_clean_sbu_0--edge1-AJUNOK_clean_linker_0
_symmetry_space_group_name_H-M    P1
_symmetry_Int_Tables_number       1
_symmetry_cell_setting            triclinic
loop_
_symmetry_equiv_pos_as_xyz
'x, y, z'
_cell_length_a     8.0981722
_cell_length_b     51.315543
_cell_length_c     21.239811
_cell_angle_alpha  89.864917
_cell_angle_beta   89.989857
_cell_angle_gamma 89.945774
loop_
_atom_site_label
_atom_site_type_symbol
_atom_site_fract_x
_atom_site_fract_y
_atom_site_fract_z
_atom_type_partial_charge
Cu0 Cu 0.78951 0.15981 0.04467 0.0
N1 N 0.63896 0.1322 0.04433 0.0
N2 N 0.58042 0.08954 0.04504 0.0
C3 C 0.69586 0.10796 0.05482 0.0
C4 C 0.44322 0.1029 0.02801 0.0
C5 C 0.47977 0.12933 0.02764 0.0
O6 O 0.9028 0.15683 0.12316 0.0
C7 C 0.83651 0.15654 0.92143 0.0
O8 O 0.67562 0.15867 0.92707 0.0
H9 H 0.82292 0.10396 0.06738 0.0
H10 H 0.39917 0.14504 1.01302 0.0
N11 N 0.72426 0.19471 0.04117 0.0
N12 N 0.78135 0.23745 0.03941 0.0
C13 C 0.84272 0.21306 0.03918 0.0
C14 C 0.58036 0.20783 0.04241 0.0
C15 C 0.61543 0.23435 0.04131 0.0
C16 C 0.80411 0.15807 0.16968 0.0
O17 O 0.64522 0.16062 0.15873 0.0
H18 H 0.97323 0.20845 0.0391 0.0
H19 H 0.45958 0.19888 0.04441 0.0
O20 O 0.92374 0.1555 0.97113 0.0
H21 H 0.32777 0.09427 1.01324 0.0
H22 H 0.52576 0.25 0.0413 0.0
Cu23 Cu 0.97067 0.91174 0.02736 0.0
N24 N 0.82161 0.94007 0.02575 0.0
N25 N 0.69839 0.97911 0.03316 0.0
C26 C 0.83441 0.96479 0.04729 0.0
C27 C 0.5986 0.96304 1.00071 0.0
C28 C 0.67502 0.93925 0.99577 0.0
O29 O 0.09265 0.91009 0.1075 0.0
C30 C 0.20444 0.90062 0.92219 0.0
O31 O 0.23992 0.8779 0.9474 0.0
H32 H 0.94172 0.97228 0.07161 0.0
H33 H 0.62853 0.92259 0.97023 0.0
N34 N 0.83627 0.88164 0.02654 0.0
N35 N 0.7295 0.84148 1.01778 0.0
C36 C 0.86082 0.85707 1.00525 0.0
C37 C 0.68668 0.88107 0.05432 0.0
C38 C 0.62013 0.85664 0.04829 0.0
C39 C 0.19604 0.92576 0.13237 0.0
O40 O 0.24215 0.94656 0.10087 0.0
H41 H 0.97218 0.85067 0.9818 0.0
H42 H 0.63079 0.89729 0.07881 0.0
O43 O 0.10378 0.91583 0.95027 0.0
H44 H 0.48213 0.9685 0.97935 0.0
H45 H 0.50267 0.85019 0.06705 0.0
Cu46 Cu 0.24477 0.91806 0.52962 0.0
N47 N 0.12821 0.94976 0.53079 0.0
N48 N 0.10163 0.99328 0.53401 0.0
C49 C 0.2059 0.97281 0.53802 0.0
C50 C 0.95159 0.98259 0.52335 0.0
C51 C 0.96834 0.95574 0.52138 0.0
O52 O 0.35391 0.91838 0.44636 0.0
C53 C 0.25988 0.91906 0.6567 0.0
O54 O 0.1026 0.92218 0.64369 0.0
H55 H 0.33757 0.97447 0.54583 0.0
H56 H 0.87171 0.94174 0.51223 0.0
N57 N 0.12784 0.88642 0.53104 0.0
N58 N 0.10994 0.84273 0.53161 0.0
C59 C 0.21024 0.86367 0.53549 0.0
C60 C 0.96773 0.87983 0.52532 0.0
C61 C 0.95637 0.85285 0.52593 0.0
C62 C 0.24648 0.91647 0.40223 0.0
O63 O 0.0901 0.91456 0.41779 0.0
H64 H 0.34239 0.86276 0.5424 0.0
H65 H 0.86701 0.8935 0.52005 0.0
O66 O 0.36238 0.91698 0.61093 0.0
H67 H 0.83848 0.99335 0.51541 0.0
H68 H 0.84402 0.84162 0.52149 0.0
Cu69 Cu 0.10061 0.1751 0.54431 0.0
N70 N 0.23954 0.14585 0.54114 0.0
N71 N 0.27413 0.10245 0.54267 0.0
C72 C 0.1676 0.12237 0.53487 0.0
C73 C 0.42211 0.11393 0.55259 0.0
C74 C 0.40017 0.14083 0.55222 0.0
O75 O 0.9657 0.17114 0.47126 0.0
C76 C 0.08757 0.17288 0.66957 0.0
O77 O 0.24406 0.17783 0.65854 0.0
H78 H 0.03685 0.12011 0.526 0.0
H79 H 0.49272 0.15546 0.56204 0.0
N80 N 0.1781 0.20951 0.54067 0.0
N81 N 0.14825 0.25298 0.53599 0.0
C82 C 0.07149 0.22974 0.54066 0.0
C83 C 0.32903 0.22019 0.53534 0.0
C84 C 0.31095 0.24706 0.53247 0.0
C85 C 0.05424 0.17239 0.42191 0.0
O86 O 0.21277 0.17723 0.42806 0.0
H87 H 0.93902 0.22736 0.54435 0.0
H88 H 0.44325 0.2093 0.5328 0.0
O89 O 0.98893 0.17147 0.62309 0.0
H90 H 0.53625 0.10367 0.56223 0.0
H91 H 0.40987 0.26104 0.52675 0.0
Cu92 Cu 0.72995 0.65593 1.01514 0.0
N93 N 0.59233 0.62642 1.008 0.0
N94 N 0.51524 0.58439 1.00831 0.0
C95 C 0.63587 0.60166 1.02233 0.0
C96 C 0.39001 0.59894 0.98522 0.0
C97 C 0.43822 0.62476 0.98463 0.0
O98 O 0.82296 0.65584 0.10094 0.0
C99 C 0.87367 0.64191 0.89607 0.0
O100 O 0.80326 0.61916 0.90459 0.0
H101 H 0.75478 0.59644 0.04191 0.0
H102 H 0.36732 0.64104 0.96683 0.0
N103 N 0.61853 0.68794 1.00898 0.0
N104 N 0.59745 0.73156 1.00517 0.0
C105 C 0.69868 0.71069 1.00023 0.0
C106 C 0.45974 0.69448 1.01883 0.0
C107 C 0.44639 0.72131 1.01632 0.0
C108 C 0.71224 0.65841 0.14349 0.0
O109 O 0.55688 0.65914 0.12587 0.0
H110 H 0.82979 0.71169 0.99101 0.0
H111 H 0.36192 0.68089 0.02984 0.0
O112 O 0.87951 0.65785 0.94216 0.0
H113 H 0.27374 0.59133 0.9681 0.0
H114 H 0.33498 0.73242 0.02477 0.0
Cu115 Cu 0.22306 0.40732 0.03004 0.0
N116 N 0.39774 0.43156 0.02746 0.0
N117 N 0.50624 0.47189 0.02411 0.0
C118 C 0.36835 0.4572 1.01907 0.0
C119 C 0.62834 0.45453 0.03605 0.0
C120 C 0.56122 0.42969 0.03788 0.0
O121 O 0.11129 0.41353 0.11063 0.0
C122 C 0.21603 0.40303 0.90497 0.0
O123 O 0.36307 0.39509 0.92284 0.0
H124 H 0.24606 0.46492 1.01029 0.0
H125 H 0.62597 0.41176 0.04843 0.0
N126 N 0.2671 0.37143 0.03529 0.0
N127 N 0.19112 0.32945 0.0404 0.0
C128 C 0.14053 0.35448 0.03903 0.0
C129 C 0.40453 0.35666 0.034 0.0
C130 C 0.35763 0.33068 0.03663 0.0
C131 C 0.21309 0.40968 0.15588 0.0
O132 O 0.36647 0.40362 0.14238 0.0
H133 H 0.01259 0.36058 0.03849 0.0
H134 H 0.52898 0.36413 0.03022 0.0
O135 O 0.11593 0.41106 0.94743 0.0
H136 H 0.75582 0.45934 0.04571 0.0
H137 H 0.43949 0.314 0.03547 0.0
Cu138 Cu 0.46135 0.40817 0.53306 0.0
N139 N 0.53057 0.4417 0.55488 0.0
N140 N 0.53795 0.48516 0.56315 0.0
C141 C 0.47809 0.46455 0.53068 0.0
C142 C 0.6334 0.4747 0.60885 0.0
C143 C 0.62777 0.44796 0.60385 0.0
O144 O 0.33882 0.41162 0.4539 0.0
C145 C 0.22929 0.41129 0.63362 0.0
O146 O 0.18794 0.43347 0.60694 0.0
H147 H 0.39627 0.46588 0.49058 0.0
H148 H 0.68587 0.43398 0.63499 0.0
N149 N 0.65216 0.3872 0.52367 0.0
N150 N 0.83659 0.35436 0.52625 0.0
C151 C 0.67464 0.36112 0.52998 0.0
C152 C 0.80449 0.39697 0.51475 0.0
C153 C 0.91745 0.37696 0.5164 0.0
C154 C 0.28745 0.39316 0.41904 0.0
O155 O 0.31041 0.36897 0.43748 0.0
H156 H 0.57552 0.34751 0.5389 0.0
H157 H 0.8321 0.41745 0.50886 0.0
O158 O 0.33175 0.3964 0.60532 0.0
H159 H 0.69783 0.48557 0.64489 0.0
H160 H 0.0494 0.37898 0.51111 0.0
Cu161 Cu 0.58058 0.66925 0.53331 0.0
N162 N 0.4603 0.63818 0.53246 0.0
N163 N 0.41072 0.59524 0.537 0.0
C164 C 0.52575 0.61408 0.52929 0.0
C165 C 0.26705 0.6082 0.54572 0.0
C166 C 0.29794 0.63461 0.54259 0.0
O167 O 0.66029 0.67531 0.44726 0.0
C168 C 0.78589 0.67972 0.64144 0.0
O169 O 0.73365 0.70388 0.6362 0.0
H170 H 0.65643 0.61051 0.5232 0.0
H171 H 0.2093 0.65009 0.5499 0.0
N172 N 0.43953 0.69666 0.55775 0.0
N173 N 0.30889 0.73527 0.5626 0.0
C174 C 0.41507 0.72 0.52966 0.0
C175 C 0.34476 0.69706 0.60975 0.0
C176 C 0.26408 0.72068 0.61278 0.0
C177 C 0.76302 0.66111 0.41718 0.0
O178 O 0.84003 0.64228 0.4472 0.0
H179 H 0.4734 0.72545 0.48577 0.0
H180 H 0.33704 0.68136 0.64369 0.0
O181 O 0.74916 0.6635 0.59825 0.0
H182 H 0.14923 0.59947 0.5571 0.0
H183 H 0.18213 0.72689 0.65013 0.0
C184 C 0.79605 1.02462 0.02766 0.0
C185 C 0.67116 1.00665 0.04214 0.0
C186 C 0.76544 0.05155 0.02898 0.0
C187 C 0.60872 0.06165 0.04524 0.0
H188 H 0.91632 1.01777 1.01278 0.0
H189 H 0.8646 0.06451 1.01536 0.0
S190 S 0.24538 1.0225 0.09395 0.0
N191 N 0.38853 1.00062 0.07732 0.0
N192 N 0.33134 0.05119 0.08096 0.0
C193 C 0.48433 0.0438 0.0618 0.0
C194 C 0.51552 1.01635 0.06006 0.0
C195 C 0.29779 1.02976 0.51483 0.0
C196 C 0.14477 1.02067 0.53798 0.0
C197 C 0.34109 0.05633 0.51763 0.0
C198 C 0.23311 0.07493 0.54363 0.0
H199 H 0.38353 1.0163 0.49315 0.0
H200 H 0.45814 0.06247 0.49795 0.0
S201 S 0.82778 0.0608 0.61856 0.0
N202 N 0.89213 1.03222 0.59281 0.0
N203 N 0.97307 0.08181 0.59868 0.0
C204 C 0.08235 0.06593 0.56896 0.0
C205 C 0.03826 0.03894 0.56591 0.0
C206 C 0.37748 0.54269 0.03402 0.0
C207 C 0.51902 0.55626 1.01416 0.0
C208 C 0.37561 0.51535 0.03802 0.0
C209 C 0.51464 0.5002 1.02151 0.0
H210 H 0.26725 0.55336 0.04705 0.0
H211 H 0.2638 0.50608 0.05461 0.0
S212 S 0.91362 0.52636 0.96232 0.0
N213 N 0.8006 0.55257 0.97579 0.0
N214 N 0.79662 0.50126 0.98184 0.0
C215 C 0.65718 0.5136 1.00117 0.0
C216 C 0.65941 0.54155 0.99779 0.0
C217 C 0.62472 0.53124 0.56894 0.0
C218 C 0.50381 0.51259 0.55389 0.0
C219 C 0.59373 0.55801 0.56287 0.0
C220 C 0.44022 0.56743 0.54132 0.0
H221 H 0.7449 0.5251 0.58565 0.0
H222 H 0.69048 0.57139 0.57644 0.0
S223 S 0.08087 0.52674 0.49519 0.0
N224 N 0.22261 0.5055 0.51742 0.0
N225 N 0.16691 0.55569 0.50314 0.0
C226 C 0.31844 0.54898 0.52534 0.0
C227 C 0.34968 0.52164 0.53211 0.0
C228 C 0.03121 0.16673 0.2451 0.0
C229 C 0.86629 0.15967 0.23455 0.0
C230 C 0.08977 0.17078 0.30599 0.0
C231 C 0.98602 0.16774 0.3587 0.0
H232 H 0.11499 0.16985 0.20602 0.0
H233 H 0.21737 0.17666 0.31144 0.0
S234 S 0.54713 0.1471 0.35655 0.0
N235 N 0.60164 0.14823 0.28168 0.0
N236 N 0.7128 0.15573 0.39664 0.0
C237 C 0.82183 0.15993 0.34901 0.0
C238 C 0.76176 0.15589 0.28678 0.0
C239 C 0.21289 0.89644 0.29714 0.0
C240 C 0.28535 0.91613 0.33387 0.0
C241 C 0.19496 0.89906 0.23171 0.0
C242 C 0.24657 0.92174 0.19974 0.0
H243 H 0.15968 0.87947 0.31984 0.0
H244 H 0.13156 0.88368 0.20663 0.0
S245 S 0.46001 0.97806 0.27364 0.0
N246 N 0.42157 0.95818 0.3332 0.0
N247 N 0.3891 0.96333 0.21004 0.0
C248 C 0.33047 0.94085 0.23539 0.0
C249 C 0.34934 0.93802 0.30243 0.0
C250 C 0.33744 0.89208 0.75052 0.0
C251 C 0.30466 0.91673 0.72421 0.0
C252 C 0.31679 0.8874 0.81562 0.0
C253 C 0.26055 0.90714 0.85669 0.0
H254 H 0.36561 0.87579 0.71997 0.0
H255 H 0.33376 0.8677 0.83291 0.0
S256 S 0.18221 0.97608 0.81179 0.0
N257 N 0.23117 0.96169 0.74487 0.0
N258 N 0.19458 0.95324 0.8665 0.0
C259 C 0.24122 0.93238 0.83137 0.0
C260 C 0.26232 0.93706 0.76539 0.0
C261 C 0.80953 0.15451 0.80534 0.0
C262 C 0.91047 0.15851 0.85834 0.0
C263 C 0.8682 0.15908 0.74456 0.0
C264 C 0.03018 0.16788 0.73439 0.0
H265 H 0.68279 0.14813 0.81076 0.0
H266 H 0.78512 0.15587 0.70536 0.0
S267 S 0.34505 0.18114 0.85757 0.0
N268 N 0.18069 0.17142 0.89707 0.0
N269 N 0.29233 0.18007 0.78257 0.0
C270 C 0.134 0.17147 0.78698 0.0
C271 C 0.07394 0.16672 0.84904 0.0
C272 C 0.63925 0.67652 0.2485 0.0
C273 C 0.74915 0.66164 0.21176 0.0
C274 C 0.65125 0.67737 0.31428 0.0
C275 C 0.77237 0.66302 0.3469 0.0
H276 H 0.53933 0.68718 0.22627 0.0
H277 H 0.55944 0.68852 0.33977 0.0
S278 S 0.1011 0.62284 0.27254 0.0
N279 N 0.99181 0.63386 0.21239 0.0
N280 N 0.01389 0.63499 0.33644 0.0
C281 C 0.88874 0.64903 0.31057 0.0
C282 C 0.8775 0.64848 0.24302 0.0
C283 C 0.25087 0.42382 0.32745 0.0
C284 C 0.22401 0.39902 0.35438 0.0
C285 C 0.22454 0.42841 0.26292 0.0
C286 C 0.16643 0.40864 0.22301 0.0
H287 H 0.30461 0.43933 0.35521 0.0
H288 H 0.26317 0.44692 0.24315 0.0
S289 S 0.05175 0.34161 0.27091 0.0
N290 N 0.11623 0.35536 0.33672 0.0
N291 N 0.06712 0.36423 0.21576 0.0
C292 C 0.1247 0.38457 0.25019 0.0
C293 C 0.1531 0.37971 0.31577 0.0
C294 C 0.26584 0.38431 0.79921 0.0
C295 C 0.17982 0.40255 0.83633 0.0
C296 C 0.27109 0.38629 0.73358 0.0
C297 C 0.18981 0.40656 0.70148 0.0
H298 H 0.33805 0.36903 0.82132 0.0
H299 H 0.34889 0.37271 0.70842 0.0
S300 S 0.92527 0.45718 0.77598 0.0
N301 N 0.996 0.43992 0.83601 0.0
N302 N 0.00291 0.44361 0.71197 0.0
C303 C 0.09142 0.42375 0.73763 0.0
C304 C 0.08668 0.42171 0.80513 0.0
C305 C 0.88426 0.6784 0.8168 0.0
C306 C 0.89698 0.65156 0.83017 0.0
C307 C 0.86138 0.68751 0.75486 0.0
C308 C 0.85067 0.67021 0.70346 0.0
H309 H 0.87996 0.69245 0.85476 0.0
H310 H 0.8419 0.7082 0.74793 0.0
S311 S 0.91236 0.5985 0.71158 0.0
N312 N 0.92315 0.60815 0.78559 0.0
N313 N 0.88161 0.62518 0.66958 0.0
C314 C 0.87996 0.64357 0.71554 0.0
C315 C 0.90252 0.63429 0.77868 0.0
C316 C 0.13125 0.28421 1.00672 0.0
C317 C 0.08705 0.30649 0.04132 0.0
C318 C 0.02912 0.26208 1.00536 0.0
C319 C 0.87847 0.26117 0.03873 0.0
H320 H 0.24453 0.28402 0.97965 0.0
H321 H 0.06821 0.24553 0.97757 0.0
S322 S 0.71394 0.31337 0.14177 0.0
N323 N 0.88678 0.32562 0.11303 0.0
N324 N 0.69594 0.28406 0.11057 0.0
C325 C 0.83377 0.28319 0.07419 0.0
C326 C 0.93777 0.30577 0.07555 0.0
C327 C 0.52222 0.77755 0.98388 0.0
C328 C 0.6405 0.75902 1.00309 0.0
C329 C 0.55524 0.80438 0.98609 0.0
C330 C 0.70869 0.81392 1.00681 0.0
H331 H 0.40182 0.77132 0.96778 0.0
H332 H 0.45862 0.8179 0.97264 0.0
S333 S 0.06118 0.77425 0.06326 0.0
N334 N 0.91849 0.75262 0.04468 0.0
N335 N 0.98027 0.80301 0.04681 0.0
C336 C 0.8301 0.79579 0.02437 0.0
C337 C 0.79616 0.76838 1.02301 0.0
C338 C 0.05187 0.79689 0.56222 0.0
C339 C 0.15764 0.81545 0.53467 0.0
C340 C 0.10075 0.77074 0.5698 0.0
C341 C 0.25742 0.7619 0.54998 0.0
H342 H 0.93187 0.80273 0.57969 0.0
H343 H 0.0151 0.75735 0.59186 0.0
S344 S 0.57679 0.80219 0.47062 0.0
N345 N 0.42217 0.82252 0.48289 0.0
N346 N 0.51628 0.77395 0.49981 0.0
C347 C 0.36263 0.7801 0.52072 0.0
C348 C 0.31241 0.80668 0.51254 0.0
C349 C 0.83762 0.30677 0.50383 0.0
C350 C 0.91119 0.32871 0.53188 0.0
C351 C 0.91545 0.28215 0.50524 0.0
C352 C 0.07007 0.27846 0.53476 0.0
H353 H 0.72108 0.3088 0.47932 0.0
H354 H 0.85543 0.26597 0.48202 0.0
S355 S 0.30242 0.32864 0.62303 0.0
N356 N 0.13975 0.34438 0.59549 0.0
N357 N 0.28496 0.29842 0.59772 0.0
C358 C 0.14188 0.30006 0.56463 0.0
C359 C 0.06279 0.32504 0.56335 0.0
loop_
_geom_bond_atom_site_label_1
_geom_bond_atom_site_label_2
_geom_bond_distance
_geom_bond_site_symmetry_2
_ccdc_geom_bond_type
Cu0 N1 1.999 . S
Cu0 O6 1.974 . S
Cu0 N11 1.985 . S
Cu0 O20 1.959 1_554 S
N1 Cu0 1.999 . S
N1 C3 1.263 . S
N1 C5 1.389 1_554 S
N2 C3 1.358 . S
N2 C4 1.400 1_554 S
C3 N1 1.263 . S
C3 N2 1.358 . S
C3 H9 0.930 1_455 S
C4 N2 1.400 1_556 S
C4 C5 1.351 . S
C4 H21 0.930 . S
C5 N1 1.389 1_556 S
C5 C4 1.351 . S
C5 H10 0.930 . S
O6 Cu0 1.974 . S
O6 C16 1.282 1_455 S
C7 O8 1.261 1_455 S
C7 O20 1.251 . S
O8 C7 1.261 1_655 S
H9 C3 0.930 1_655 S
H10 C5 0.930 . S
N11 Cu0 1.985 . S
N11 C13 1.335 1_554 S
N11 C14 1.390 . S
N12 C13 1.345 . S
N12 C15 1.336 1_556 S
C13 N11 1.335 1_556 S
C13 N12 1.345 . S
C13 H18 0.930 . S
C14 N11 1.390 . S
C14 C15 1.346 . S
C14 H19 0.930 . S
C15 N12 1.336 1_554 S
C15 C14 1.346 . S
C15 H22 0.929 . S
C16 O6 1.282 1_655 S
C16 O17 1.216 . S
O17 C16 1.216 . S
H18 C13 0.930 . S
H19 C14 0.930 . S
O20 Cu0 1.959 1_556 S
O20 C7 1.251 . S
H21 C4 0.930 . S
H22 C15 0.929 . S
Cu23 N24 1.999 . S
Cu23 O29 1.974 . S
Cu23 N34 1.985 . S
Cu23 O43 1.959 1_554 S
N24 Cu23 1.999 . S
N24 C26 1.263 . S
N24 C28 1.389 1_554 S
N25 C26 1.358 . S
N25 C27 1.400 1_554 S
C26 N24 1.263 . S
C26 N25 1.358 . S
C26 H32 0.930 1_655 S
C27 N25 1.400 1_556 S
C27 C28 1.351 . S
C27 H44 0.930 . S
C28 N24 1.389 1_556 S
C28 C27 1.351 . S
C28 H33 0.930 . S
O29 Cu23 1.974 . S
O29 C39 1.282 1_655 S
C30 O31 1.261 1_655 S
C30 O43 1.251 . S
O31 C30 1.261 1_455 S
H32 C26 0.930 1_455 S
H33 C28 0.930 . S
N34 Cu23 1.985 . S
N34 C36 1.335 1_554 S
N34 C37 1.390 . S
N35 C36 1.345 . S
N35 C38 1.336 1_556 S
C36 N34 1.335 1_556 S
C36 N35 1.345 . S
C36 H41 0.930 . S
C37 N34 1.390 . S
C37 C38 1.346 . S
C37 H42 0.930 . S
C38 N35 1.336 1_554 S
C38 C37 1.346 . S
C38 H45 0.929 . S
C39 O29 1.282 1_455 S
C39 O40 1.216 . S
O40 C39 1.216 . S
H41 C36 0.930 . S
H42 C37 0.930 . S
O43 Cu23 1.959 1_556 S
O43 C30 1.251 . S
H44 C27 0.930 . S
H45 C38 0.929 . S
Cu46 N47 1.999 . S
Cu46 O52 1.974 . S
Cu46 N57 1.985 . S
Cu46 O66 1.959 . S
N47 Cu46 1.999 . S
N47 C49 1.263 . S
N47 C51 1.389 . S
N48 C49 1.358 . S
N48 C50 1.400 . S
C49 N47 1.263 . S
C49 N48 1.358 . S
C49 H55 0.930 1_455 S
C50 N48 1.400 . S
C50 C51 1.351 . S
C50 H67 0.930 . S
C51 N47 1.389 . S
C51 C50 1.351 . S
C51 H56 0.930 . S
O52 Cu46 1.974 . S
O52 C62 1.282 1_455 S
C53 O54 1.261 1_455 S
C53 O66 1.251 . S
O54 C53 1.261 1_655 S
H55 C49 0.930 1_655 S
H56 C51 0.930 . S
N57 Cu46 1.985 . S
N57 C59 1.335 . S
N57 C60 1.390 . S
N58 C59 1.345 . S
N58 C61 1.336 . S
C59 N57 1.335 . S
C59 N58 1.345 . S
C59 H64 0.930 . S
C60 N57 1.390 . S
C60 C61 1.346 . S
C60 H65 0.930 . S
C61 N58 1.336 . S
C61 C60 1.346 . S
C61 H68 0.929 . S
C62 O52 1.282 1_655 S
C62 O63 1.216 . S
O63 C62 1.216 . S
H64 C59 0.930 . S
H65 C60 0.930 . S
O66 Cu46 1.959 . S
O66 C53 1.251 . S
H67 C50 0.930 . S
H68 C61 0.929 . S
Cu69 N70 1.999 . S
Cu69 O75 1.974 . S
Cu69 N80 1.985 . S
Cu69 O89 1.959 . S
N70 Cu69 1.999 . S
N70 C72 1.263 . S
N70 C74 1.389 . S
N71 C72 1.358 . S
N71 C73 1.400 . S
C72 N70 1.263 . S
C72 N71 1.358 . S
C72 H78 0.930 1_655 S
C73 N71 1.400 . S
C73 C74 1.351 . S
C73 H90 0.930 . S
C74 N70 1.389 . S
C74 C73 1.351 . S
C74 H79 0.930 . S
O75 Cu69 1.974 . S
O75 C85 1.282 1_655 S
C76 O77 1.261 1_655 S
C76 O89 1.251 . S
O77 C76 1.261 1_455 S
H78 C72 0.930 1_455 S
H79 C74 0.930 . S
N80 Cu69 1.985 . S
N80 C82 1.335 . S
N80 C83 1.390 . S
N81 C82 1.345 . S
N81 C84 1.336 . S
C82 N80 1.335 . S
C82 N81 1.345 . S
C82 H87 0.930 . S
C83 N80 1.390 . S
C83 C84 1.346 . S
C83 H88 0.930 . S
C84 N81 1.336 . S
C84 C83 1.346 . S
C84 H91 0.929 . S
C85 O75 1.282 1_455 S
C85 O86 1.216 . S
O86 C85 1.216 . S
H87 C82 0.930 . S
H88 C83 0.930 . S
O89 Cu69 1.959 . S
O89 C76 1.251 . S
H90 C73 0.930 . S
H91 C84 0.929 . S
Cu92 N93 1.999 . S
Cu92 O98 1.974 . S
Cu92 N103 1.985 . S
Cu92 O112 1.959 1_554 S
N93 Cu92 1.999 . S
N93 C95 1.263 . S
N93 C97 1.389 1_554 S
N94 C95 1.358 . S
N94 C96 1.400 1_554 S
C95 N93 1.263 . S
C95 N94 1.358 . S
C95 H101 0.930 . S
C96 N94 1.400 1_556 S
C96 C97 1.351 . S
C96 H113 0.930 . S
C97 N93 1.389 1_556 S
C97 C96 1.351 . S
C97 H102 0.930 . S
O98 Cu92 1.974 . S
O98 C108 1.282 . S
C99 O100 1.261 . S
C99 O112 1.251 . S
O100 C99 1.261 . S
H101 C95 0.930 . S
H102 C97 0.930 . S
N103 Cu92 1.985 . S
N103 C105 1.335 1_554 S
N103 C106 1.390 . S
N104 C105 1.345 . S
N104 C107 1.336 1_556 S
C105 N103 1.335 1_556 S
C105 N104 1.345 . S
C105 H110 0.930 . S
C106 N103 1.390 . S
C106 C107 1.346 . S
C106 H111 0.930 . S
C107 N104 1.336 1_554 S
C107 C106 1.346 . S
C107 H114 0.929 . S
C108 O98 1.282 . S
C108 O109 1.216 . S
O109 C108 1.216 . S
H110 C105 0.930 . S
H111 C106 0.930 . S
O112 Cu92 1.959 1_556 S
O112 C99 1.251 . S
H113 C96 0.930 . S
H114 C107 0.929 . S
Cu115 N116 1.999 . S
Cu115 O121 1.974 . S
Cu115 N126 1.985 . S
Cu115 O135 1.959 1_554 S
N116 Cu115 1.999 . S
N116 C118 1.263 . S
N116 C120 1.389 1_554 S
N117 C118 1.358 . S
N117 C119 1.400 1_554 S
C118 N116 1.263 . S
C118 N117 1.358 . S
C118 H124 0.930 . S
C119 N117 1.400 1_556 S
C119 C120 1.351 . S
C119 H136 0.930 . S
C120 N116 1.389 1_556 S
C120 C119 1.351 . S
C120 H125 0.930 . S
O121 Cu115 1.974 . S
O121 C131 1.282 . S
C122 O123 1.261 . S
C122 O135 1.251 . S
O123 C122 1.261 . S
H124 C118 0.930 . S
H125 C120 0.930 . S
N126 Cu115 1.985 . S
N126 C128 1.335 1_554 S
N126 C129 1.390 . S
N127 C128 1.345 . S
N127 C130 1.336 1_556 S
C128 N126 1.335 1_556 S
C128 N127 1.345 . S
C128 H133 0.930 . S
C129 N126 1.390 . S
C129 C130 1.346 . S
C129 H134 0.930 . S
C130 N127 1.336 1_554 S
C130 C129 1.346 . S
C130 H137 0.929 . S
C131 O121 1.282 . S
C131 O132 1.216 . S
O132 C131 1.216 . S
H133 C128 0.930 . S
H134 C129 0.930 . S
O135 Cu115 1.959 1_556 S
O135 C122 1.251 . S
H136 C119 0.930 . S
H137 C130 0.929 . S
Cu138 N139 1.999 . S
Cu138 O144 1.974 . S
Cu138 N149 1.985 . S
Cu138 O158 1.959 . S
N139 Cu138 1.999 . S
N139 C141 1.263 . S
N139 C143 1.389 . S
N140 C141 1.358 . S
N140 C142 1.400 . S
C141 N139 1.263 . S
C141 N140 1.358 . S
C141 H147 0.930 . S
C142 N140 1.400 . S
C142 C143 1.351 . S
C142 H159 0.930 . S
C143 N139 1.389 . S
C143 C142 1.351 . S
C143 H148 0.930 . S
O144 Cu138 1.974 . S
O144 C154 1.282 . S
C145 O146 1.261 . S
C145 O158 1.251 . S
O146 C145 1.261 . S
H147 C141 0.930 . S
H148 C143 0.930 . S
N149 Cu138 1.985 . S
N149 C151 1.335 . S
N149 C152 1.390 . S
N150 C151 1.345 . S
N150 C153 1.336 . S
C151 N149 1.335 . S
C151 N150 1.345 . S
C151 H156 0.930 . S
C152 N149 1.390 . S
C152 C153 1.346 . S
C152 H157 0.930 . S
C153 N150 1.336 . S
C153 C152 1.346 . S
C153 H160 0.929 . S
C154 O144 1.282 . S
C154 O155 1.216 . S
O155 C154 1.216 . S
H156 C151 0.930 . S
H157 C152 0.930 . S
O158 Cu138 1.959 . S
O158 C145 1.251 . S
H159 C142 0.930 . S
H160 C153 0.929 . S
Cu161 N162 1.999 . S
Cu161 O167 1.974 . S
Cu161 N172 1.985 . S
Cu161 O181 1.959 . S
N162 Cu161 1.999 . S
N162 C164 1.263 . S
N162 C166 1.389 . S
N163 C164 1.358 . S
N163 C165 1.400 . S
C164 N162 1.263 . S
C164 N163 1.358 . S
C164 H170 0.930 . S
C165 N163 1.400 . S
C165 C166 1.351 . S
C165 H182 0.930 . S
C166 N162 1.389 . S
C166 C165 1.351 . S
C166 H171 0.930 . S
O167 Cu161 1.974 . S
O167 C177 1.282 . S
C168 O169 1.261 . S
C168 O181 1.251 . S
O169 C168 1.261 . S
H170 C164 0.930 . S
H171 C166 0.930 . S
N172 Cu161 1.985 . S
N172 C174 1.335 . S
N172 C175 1.390 . S
N173 C174 1.345 . S
N173 C176 1.336 . S
C174 N172 1.335 . S
C174 N173 1.345 . S
C174 H179 0.930 . S
C175 N172 1.390 . S
C175 C176 1.346 . S
C175 H180 0.930 . S
C176 N173 1.336 . S
C176 C175 1.346 . S
C176 H183 0.929 . S
C177 O167 1.282 . S
C177 O178 1.216 . S
O178 C177 1.216 . S
H179 C174 0.930 . S
H180 C175 0.930 . S
O181 Cu161 1.959 . S
O181 C168 1.251 . S
H182 C165 0.930 . S
H183 C176 0.929 . S
C184 C185 1.369 1_455 S
C184 C186 1.419 1_565 S
C184 H188 0.930 . S
C185 C184 1.369 1_655 S
C185 C194 1.429 . S
C186 C184 1.419 1_545 S
C186 C187 1.363 . S
C186 H189 0.929 1_554 S
C187 C186 1.363 . S
C187 C193 1.428 1_455 S
H188 C184 0.930 . S
H189 C186 0.929 1_556 S
S190 N191 1.613 1_545 S
S190 N192 1.610 . S
N191 S190 1.613 1_565 S
N191 C194 1.350 . S
N192 S190 1.610 . S
N192 C193 1.351 . S
C193 C187 1.428 1_655 S
C193 N192 1.351 . S
C193 C194 1.434 1_545 S
C194 C185 1.429 . S
C194 N191 1.350 . S
C194 C193 1.434 1_565 S
C195 C196 1.369 . S
C195 C197 1.419 1_565 S
C195 H199 0.930 . S
C196 C195 1.369 . S
C196 C205 1.429 1_455 S
C197 C195 1.419 1_545 S
C197 C198 1.363 1_455 S
C197 H200 0.929 . S
C198 C197 1.363 1_655 S
C198 C204 1.428 . S
H199 C195 0.930 . S
H200 C197 0.929 . S
S201 N202 1.613 . S
S201 N203 1.610 1_565 S
N202 S201 1.613 . S
N202 C205 1.350 . S
N203 S201 1.610 1_545 S
N203 C204 1.351 . S
C204 C198 1.428 . S
C204 N203 1.351 . S
C204 C205 1.434 1_545 S
C205 C196 1.429 1_655 S
C205 N202 1.350 . S
C205 C204 1.434 1_565 S
C206 C207 1.369 . S
C206 C208 1.419 . S
C206 H210 0.930 . S
C207 C206 1.369 . S
C207 C216 1.429 . S
C208 C206 1.419 . S
C208 C209 1.363 . S
C208 H211 0.929 . S
C209 C208 1.363 . S
C209 C215 1.428 . S
H210 C206 0.930 . S
H211 C208 0.929 . S
S212 N213 1.613 . S
S212 N214 1.610 . S
N213 S212 1.613 . S
N213 C216 1.350 1_556 S
N214 S212 1.610 . S
N214 C215 1.351 1_556 S
C215 C209 1.428 . S
C215 N214 1.351 1_554 S
C215 C216 1.434 . S
C216 C207 1.429 . S
C216 N213 1.350 1_554 S
C216 C215 1.434 . S
C217 C218 1.369 . S
C217 C219 1.419 . S
C217 H221 0.930 . S
C218 C217 1.369 . S
C218 C227 1.429 . S
C219 C217 1.419 . S
C219 C220 1.363 . S
C219 H222 0.929 . S
C220 C219 1.363 . S
C220 C226 1.428 . S
H221 C217 0.930 . S
H222 C219 0.929 . S
S223 N224 1.613 . S
S223 N225 1.610 . S
N224 S223 1.613 . S
N224 C227 1.350 . S
N225 S223 1.610 . S
N225 C226 1.351 . S
C226 C220 1.428 . S
C226 N225 1.351 . S
C226 C227 1.434 . S
C227 C218 1.429 . S
C227 N224 1.350 . S
C227 C226 1.434 . S
C228 C229 1.369 . S
C228 C230 1.419 . S
C228 H232 0.930 . S
C229 C228 1.369 . S
C229 C238 1.429 1_455 S
C230 C228 1.419 . S
C230 C231 1.363 1_455 S
C230 H233 0.929 . S
C231 C230 1.363 1_655 S
C231 C237 1.428 . S
H232 C228 0.930 . S
H233 C230 0.929 . S
S234 N235 1.613 . S
S234 N236 1.610 . S
N235 S234 1.613 . S
N235 C238 1.350 . S
N236 S234 1.610 . S
N236 C237 1.351 . S
C237 C231 1.428 . S
C237 N236 1.351 . S
C237 C238 1.434 . S
C238 C229 1.429 1_655 S
C238 N235 1.350 . S
C238 C237 1.434 . S
C239 C240 1.369 1_655 S
C239 C241 1.419 . S
C239 H243 0.930 . S
C240 C239 1.369 1_455 S
C240 C249 1.429 . S
C241 C239 1.419 . S
C241 C242 1.363 . S
C241 H244 0.929 . S
C242 C241 1.363 . S
C242 C248 1.428 1_655 S
H243 C239 0.930 . S
H244 C241 0.929 . S
S245 N246 1.613 . S
S245 N247 1.610 . S
N246 S245 1.613 . S
N246 C249 1.350 . S
N247 S245 1.610 . S
N247 C248 1.351 . S
C248 C242 1.428 1_455 S
C248 N247 1.351 . S
C248 C249 1.434 . S
C249 C240 1.429 . S
C249 N246 1.350 . S
C249 C248 1.434 . S
C250 C251 1.369 . S
C250 C252 1.419 . S
C250 H254 0.930 . S
C251 C250 1.369 . S
C251 C260 1.429 1_455 S
C252 C250 1.419 . S
C252 C253 1.363 1_455 S
C252 H255 0.929 . S
C253 C252 1.363 1_655 S
C253 C259 1.428 . S
H254 C250 0.930 . S
H255 C252 0.929 . S
S256 N257 1.613 . S
S256 N258 1.610 . S
N257 S256 1.613 . S
N257 C260 1.350 . S
N258 S256 1.610 . S
N258 C259 1.351 . S
C259 C253 1.428 . S
C259 N258 1.351 . S
C259 C260 1.434 . S
C260 C251 1.429 1_655 S
C260 N257 1.350 . S
C260 C259 1.434 . S
C261 C262 1.369 1_655 S
C261 C263 1.419 . S
C261 H265 0.930 . S
C262 C261 1.369 1_455 S
C262 C271 1.429 . S
C263 C261 1.419 . S
C263 C264 1.363 . S
C263 H266 0.929 . S
C264 C263 1.363 . S
C264 C270 1.428 1_655 S
H265 C261 0.930 . S
H266 C263 0.929 . S
S267 N268 1.613 . S
S267 N269 1.610 . S
N268 S267 1.613 . S
N268 C271 1.350 . S
N269 S267 1.610 . S
N269 C270 1.351 . S
C270 C264 1.428 1_455 S
C270 N269 1.351 . S
C270 C271 1.434 . S
C271 C262 1.429 . S
C271 N268 1.350 . S
C271 C270 1.434 . S
C272 C273 1.369 . S
C272 C274 1.419 . S
C272 H276 0.930 . S
C273 C272 1.369 . S
C273 C282 1.429 . S
C274 C272 1.419 . S
C274 C275 1.363 . S
C274 H277 0.929 . S
C275 C274 1.363 . S
C275 C281 1.428 . S
H276 C272 0.930 . S
H277 C274 0.929 . S
S278 N279 1.613 . S
S278 N280 1.610 . S
N279 S278 1.613 . S
N279 C282 1.350 . S
N280 S278 1.610 . S
N280 C281 1.351 . S
C281 C275 1.428 . S
C281 N280 1.351 . S
C281 C282 1.434 . S
C282 C273 1.429 . S
C282 N279 1.350 . S
C282 C281 1.434 . S
C283 C284 1.369 . S
C283 C285 1.419 . S
C283 H287 0.930 . S
C284 C283 1.369 . S
C284 C293 1.429 . S
C285 C283 1.419 . S
C285 C286 1.363 . S
C285 H288 0.929 . S
C286 C285 1.363 . S
C286 C292 1.428 . S
H287 C283 0.930 . S
H288 C285 0.929 . S
S289 N290 1.613 . S
S289 N291 1.610 . S
N290 S289 1.613 . S
N290 C293 1.350 . S
N291 S289 1.610 . S
N291 C292 1.351 . S
C292 C286 1.428 . S
C292 N291 1.351 . S
C292 C293 1.434 . S
C293 C284 1.429 . S
C293 N290 1.350 . S
C293 C292 1.434 . S
C294 C295 1.369 . S
C294 C296 1.419 . S
C294 H298 0.930 . S
C295 C294 1.369 . S
C295 C304 1.429 . S
C296 C294 1.419 . S
C296 C297 1.363 . S
C296 H299 0.929 . S
C297 C296 1.363 . S
C297 C303 1.428 . S
H298 C294 0.930 . S
H299 C296 0.929 . S
S300 N301 1.613 . S
S300 N302 1.610 . S
N301 S300 1.613 . S
N301 C304 1.350 . S
N302 S300 1.610 . S
N302 C303 1.351 . S
C303 C297 1.428 . S
C303 N302 1.351 . S
C303 C304 1.434 . S
C304 C295 1.429 . S
C304 N301 1.350 . S
C304 C303 1.434 . S
C305 C306 1.369 . S
C305 C307 1.419 . S
C305 H309 0.930 . S
C306 C305 1.369 . S
C306 C315 1.429 . S
C307 C305 1.419 . S
C307 C308 1.363 . S
C307 H310 0.929 . S
C308 C307 1.363 . S
C308 C314 1.428 . S
H309 C305 0.930 . S
H310 C307 0.929 . S
S311 N312 1.613 . S
S311 N313 1.610 . S
N312 S311 1.613 . S
N312 C315 1.350 . S
N313 S311 1.610 . S
N313 C314 1.351 . S
C314 C308 1.428 . S
C314 N313 1.351 . S
C314 C315 1.434 . S
C315 C306 1.429 . S
C315 N312 1.350 . S
C315 C314 1.434 . S
C316 C317 1.369 . S
C316 C318 1.419 . S
C316 H320 0.930 . S
C317 C316 1.369 . S
C317 C326 1.429 1_556 S
C318 C316 1.419 . S
C318 C319 1.363 . S
C318 H321 0.929 . S
C319 C318 1.363 . S
C319 C325 1.428 1_556 S
H320 C316 0.930 . S
H321 C318 0.929 . S
S322 N323 1.613 . S
S322 N324 1.610 . S
N323 S322 1.613 . S
N323 C326 1.350 . S
N324 S322 1.610 . S
N324 C325 1.351 . S
C325 C319 1.428 1_554 S
C325 N324 1.351 . S
C325 C326 1.434 . S
C326 C317 1.429 1_554 S
C326 N323 1.350 . S
C326 C325 1.434 . S
C327 C328 1.369 . S
C327 C329 1.419 . S
C327 H331 0.930 . S
C328 C327 1.369 . S
C328 C337 1.429 1_556 S
C329 C327 1.419 . S
C329 C330 1.363 . S
C329 H332 0.929 . S
C330 C329 1.363 . S
C330 C336 1.428 1_556 S
H331 C327 0.930 . S
H332 C329 0.929 . S
S333 N334 1.613 . S
S333 N335 1.610 . S
N334 S333 1.613 . S
N334 C337 1.350 . S
N335 S333 1.610 . S
N335 C336 1.351 . S
C336 C330 1.428 1_554 S
C336 N335 1.351 . S
C336 C337 1.434 . S
C337 C328 1.429 1_554 S
C337 N334 1.350 . S
C337 C336 1.434 . S
C338 C339 1.369 . S
C338 C340 1.419 . S
C338 H342 0.930 . S
C339 C338 1.369 . S
C339 C348 1.429 . S
C340 C338 1.419 . S
C340 C341 1.363 . S
C340 H343 0.929 . S
C341 C340 1.363 . S
C341 C347 1.428 . S
H342 C338 0.930 . S
H343 C340 0.929 . S
S344 N345 1.613 . S
S344 N346 1.610 . S
N345 S344 1.613 . S
N345 C348 1.350 . S
N346 S344 1.610 . S
N346 C347 1.351 . S
C347 C341 1.428 . S
C347 N346 1.351 . S
C347 C348 1.434 . S
C348 C339 1.429 . S
C348 N345 1.350 . S
C348 C347 1.434 . S
C349 C350 1.369 . S
C349 C351 1.419 . S
C349 H353 0.930 . S
C350 C349 1.369 . S
C350 C359 1.429 . S
C351 C349 1.419 . S
C351 C352 1.363 . S
C351 H354 0.929 . S
C352 C351 1.363 . S
C352 C358 1.428 . S
H353 C349 0.930 . S
H354 C351 0.929 . S
S355 N356 1.613 . S
S355 N357 1.610 . S
N356 S355 1.613 . S
N356 C359 1.350 . S
N357 S355 1.610 . S
N357 C358 1.351 . S
C358 C352 1.428 . S
C358 N357 1.351 . S
C358 C359 1.434 . S
C359 C350 1.429 . S
C359 N356 1.350 . S
C359 C358 1.434 . S
C185 N25 1.463 . S
C187 N2 1.469 . S
C196 N48 1.471 . S
C198 N71 1.465 . S
C207 N94 1.461 . S
C209 N117 1.466 . S
C218 N140 1.471 . S
C220 N163 1.468 . S
C229 C16 1.507 1_455 S
C231 C85 1.508 1_655 S
C240 C62 1.508 1_455 S
C242 C39 1.505 1_655 S
C251 C53 1.511 . S
C253 C30 1.512 . S
C262 C7 1.514 . S
C264 C76 1.512 . S
C273 C108 1.508 . S
C275 C177 1.507 . S
C284 C154 1.503 . S
C286 C131 1.506 . S
C295 C122 1.511 . S
C297 C145 1.510 . S
C306 C99 1.509 . S
C308 C168 1.509 . S
C317 N127 1.483 . S
C319 N12 1.484 . S
C328 N104 1.483 . S
C330 N35 1.484 . S
C339 N58 1.485 . S
C341 N173 1.485 . S
C350 N150 1.492 . S
C352 N81 1.490 . S
