# Generated by pormake.
# Topology ukh, (4)-cn, num edge types: 1
# Building blocks:
#     Node 0, Type 0, BuildingBlock: ICAMEG_clean_sbu_1, # of connection points: 4
#     Node 1, Type 0, BuildingBlock: ICAMEG_clean_sbu_1, # of connection points: 4
#     Node 2, Type 0, BuildingBlock: ICAMEG_clean_sbu_1, # of connection points: 4
#     Node 3, Type 0, BuildingBlock: ICAMEG_clean_sbu_1, # of connection points: 4
#     Node 4, Type 0, BuildingBlock: ICAMEG_clean_sbu_1, # of connection points: 4
#     Node 5, Type 0, BuildingBlock: ICAMEG_clean_sbu_1, # of connection points: 4
#     Node 6, Type 0, BuildingBlock: ICAMEG_clean_sbu_1, # of connection points: 4
#     Node 7, Type 0, BuildingBlock: ICAMEG_clean_sbu_1, # of connection points: 4
#     Node 8, Type 0, BuildingBlock: ICAMEG_clean_sbu_1, # of connection points: 4
#     Node 9, Type 0, BuildingBlock: ICAMEG_clean_sbu_1, # of connection points: 4
#     Node 10, Type 0, BuildingBlock: ICAMEG_clean_sbu_1, # of connection points: 4
#     Node 11, Type 0, BuildingBlock: ICAMEG_clean_sbu_1, # of connection points: 4
#     Edge 12, Type (0, 0), BuildingBlock: MIFKUJ_clean_linker_0, # of connection points: 2
#     Edge 13, Type (0, 0), BuildingBlock: MIFKUJ_clean_linker_0, # of connection points: 2
#     Edge 14, Type (0, 0), BuildingBlock: MIFKUJ_clean_linker_0, # of connection points: 2
#     Edge 15, Type (0, 0), BuildingBlock: MIFKUJ_clean_linker_0, # of connection points: 2
#     Edge 16, Type (0, 0), BuildingBlock: MIFKUJ_clean_linker_0, # of connection points: 2
#     Edge 17, Type (0, 0), BuildingBlock: MIFKUJ_clean_linker_0, # of connection points: 2
#     Edge 18, Type (0, 0), BuildingBlock: MIFKUJ_clean_linker_0, # of connection points: 2
#     Edge 19, Type (0, 0), BuildingBlock: MIFKUJ_clean_linker_0, # of connection points: 2
#     Edge 20, Type (0, 0), BuildingBlock: MIFKUJ_clean_linker_0, # of connection points: 2
#     Edge 21, Type (0, 0), BuildingBlock: MIFKUJ_clean_linker_0, # of connection points: 2
#     Edge 22, Type (0, 0), BuildingBlock: MIFKUJ_clean_linker_0, # of connection points: 2
#     Edge 23, Type (0, 0), BuildingBlock: MIFKUJ_clean_linker_0, # of connection points: 2
#     Edge 24, Type (0, 0), BuildingBlock: MIFKUJ_clean_linker_0, # of connection points: 2
#     Edge 25, Type (0, 0), BuildingBlock: MIFKUJ_clean_linker_0, # of connection points: 2
#     Edge 26, Type (0, 0), BuildingBlock: MIFKUJ_clean_linker_0, # of connection points: 2
#     Edge 27, Type (0, 0), BuildingBlock: MIFKUJ_clean_linker_0, # of connection points: 2
#     Edge 28, Type (0, 0), BuildingBlock: MIFKUJ_clean_linker_0, # of connection points: 2
#     Edge 29, Type (0, 0), BuildingBlock: MIFKUJ_clean_linker_0, # of connection points: 2
#     Edge 30, Type (0, 0), BuildingBlock: MIFKUJ_clean_linker_0, # of connection points: 2
#     Edge 31, Type (0, 0), BuildingBlock: MIFKUJ_clean_linker_0, # of connection points: 2
#     Edge 32, Type (0, 0), BuildingBlock: MIFKUJ_clean_linker_0, # of connection points: 2
#     Edge 33, Type (0, 0), BuildingBlock: MIFKUJ_clean_linker_0, # of connection points: 2
#     Edge 34, Type (0, 0), BuildingBlock: MIFKUJ_clean_linker_0, # of connection points: 2
#     Edge 35, Type (0, 0), BuildingBlock: MIFKUJ_clean_linker_0, # of connection points: 2
# Relax obj value: 0.030
# Max RMSD: 0.042
# Mean RMSD: 0.042
data_MOF--net-ukh--node1-ICAMEG_clean_sbu_1--edge1-MIFKUJ_clean_linker_0
_symmetry_space_group_name_H-M    P1
_symmetry_Int_Tables_number       1
_symmetry_cell_setting            triclinic
loop_
_symmetry_equiv_pos_as_xyz
'x, y, z'
_cell_length_a     43.65199
_cell_length_b     43.666317
_cell_length_c     88.920258
_cell_angle_alpha  89.98722
_cell_angle_beta   89.946409
_cell_angle_gamma 120.01527
loop_
_atom_site_label
_atom_site_type_symbol
_atom_site_fract_x
_atom_site_fract_y
_atom_site_fract_z
_atom_type_partial_charge
Co0 Co 0.3326 0.24819 0.04253 0.0
Co1 Co 0.27322 0.20939 0.07162 0.0
O2 O 0.32112 0.24125 0.06404 0.0
C3 C 0.36108 0.32208 0.05309 0.0
O4 O 0.32968 0.3124 0.05869 0.0
C5 C 0.32221 0.19864 0.09225 0.0
O6 O 0.34834 0.21359 0.0826 0.0
O7 O 0.27036 0.16961 0.05948 0.0
O8 O 0.29889 0.19695 0.03825 0.0
H9 H 0.14507 0.11673 0.06636 0.0
H10 H 0.39266 0.2742 0.06397 0.0
O11 O 0.36674 0.29964 0.04634 0.0
H12 H 0.40048 0.18487 0.03285 0.0
H13 H 0.41468 0.29994 0.9982 0.0
H14 H 0.29089 0.2239 0.01435 0.0
H15 H 0.35327 0.19913 0.02846 0.0
H16 H 0.39956 0.28943 0.02515 0.0
O17 O 0.29198 0.19479 0.08919 0.0
H18 H 0.20547 0.15782 0.05731 0.0
H19 H 0.23934 0.19227 0.10203 0.0
H20 H 0.30486 0.23343 0.98728 0.0
H21 H 0.44077 0.26127 0.06853 0.0
H22 H 0.36715 0.27171 0.97905 0.0
H23 H 0.44477 0.21616 0.05297 0.0
O24 O 0.29416 0.25906 0.03871 0.0
H25 H 0.33318 0.31515 0.10572 0.0
H26 H 0.22494 0.23831 0.07696 0.0
H27 H 0.22905 0.28866 0.09116 0.0
H28 H 0.28346 0.32746 0.10573 0.0
H29 H 0.3281 0.26478 0.09121 0.0
H30 H 0.17939 0.15131 0.11157 0.0
H31 H 0.13172 0.11327 0.09367 0.0
O32 O 0.2519 0.22268 0.05475 0.0
C33 C 0.27875 0.16901 0.04576 0.0
C34 C 0.16559 0.13324 0.07426 0.0
C35 C 0.18487 0.15261 0.09964 0.0
N36 N 0.22586 0.17761 0.0791 0.0
C37 C 0.19982 0.15663 0.0692 0.0
C38 C 0.21879 0.17569 0.09417 0.0
C39 C 0.15813 0.13129 0.08959 0.0
C40 C 0.39443 0.25481 0.05704 0.0
N41 N 0.37005 0.23734 0.04601 0.0
C42 C 0.42164 0.24747 0.05973 0.0
C43 C 0.42384 0.22212 0.05101 0.0
C44 C 0.39896 0.20452 0.03974 0.0
C45 C 0.37213 0.21255 0.03737 0.0
C46 C 0.38745 0.28312 1.00164 0.0
C47 C 0.31809 0.24037 0.01086 0.0
C48 C 0.37872 0.27712 0.01689 0.0
N49 N 0.34441 0.25581 0.02132 0.0
C50 C 0.32582 0.24576 0.99551 0.0
C51 C 0.36077 0.26727 0.99091 0.0
C52 C 0.2625 0.244 0.04364 0.0
C53 C 0.30927 0.29834 0.09947 0.0
C54 C 0.24873 0.25508 0.08321 0.0
C55 C 0.25088 0.28354 0.09128 0.0
C56 C 0.28139 0.30527 0.09945 0.0
N57 N 0.27611 0.24832 0.08333 0.0
C58 C 0.30616 0.26962 0.09129 0.0
Co59 Co 0.09133 0.33788 0.37268 0.0
Co60 Co 0.07419 0.28235 0.40272 0.0
O61 O 0.08931 0.32906 0.39429 0.0
C62 C 0.04894 0.36823 0.38457 0.0
O63 O 0.03032 0.33846 0.39195 0.0
C64 C 0.13173 0.29856 0.42453 0.0
O65 O 0.1382 0.27632 0.41717 0.0
O66 O 0.11061 0.27882 0.39042 0.0
O67 O 0.10835 0.30363 0.36863 0.0
H68 H 0.04227 0.15474 0.40078 0.0
H69 H 0.12821 0.39822 0.39368 0.0
O70 O 0.07452 0.37252 0.3762 0.0
H71 H 0.22118 0.40485 0.36 0.0
H72 H 0.11693 0.41446 0.32676 0.0
H73 H 0.07028 0.29273 0.34544 0.0
H74 H 0.15906 0.35785 0.3568 0.0
H75 H 0.11532 0.40265 0.35396 0.0
O76 O 0.1087 0.30581 0.41957 0.0
H77 H 0.05985 0.21351 0.39023 0.0
H78 H 0.05775 0.25214 0.43383 0.0
H79 H 0.07165 0.30337 0.31814 0.0
H80 H 0.18999 0.44592 0.39718 0.0
H81 H 0.09512 0.36461 0.30864 0.0
H82 H 0.23697 0.4494 0.38027 0.0
O83 O 0.04151 0.29919 0.37026 0.0
H84 H 0.02983 0.34404 0.43656 0.0
H85 H 0.99683 0.23474 0.40829 0.0
H86 H 0.95112 0.23989 0.4225 0.0
H87 H 0.96753 0.29482 0.43681 0.0
H88 H 0.07462 0.338 0.42202 0.0
H89 H 0.04028 0.19385 0.44486 0.0
H90 H 0.03245 0.14464 0.4283 0.0
O91 O 0.03876 0.25827 0.38631 0.0
C92 C 0.11769 0.28508 0.37643 0.0
C93 C 0.0456 0.17597 0.40812 0.0
C94 C 0.0445 0.19792 0.43286 0.0
N95 N 0.05979 0.23623 0.41139 0.0
C96 C 0.05553 0.2093 0.4022 0.0
C97 C 0.0544 0.23087 0.42654 0.0
C98 C 0.0401 0.17032 0.42356 0.0
C99 C 0.14849 0.39972 0.38622 0.0
N100 N 0.14002 0.37541 0.37501 0.0
C101 C 0.18343 0.42672 0.38828 0.0
C102 C 0.20978 0.42863 0.3788 0.0
C103 C 0.20095 0.40364 0.36743 0.0
C104 C 0.16573 0.37703 0.3657 0.0
C105 C 0.10672 0.38767 0.33076 0.0
C106 C 0.08074 0.31948 0.34139 0.0
C107 C 0.10568 0.38082 0.34615 0.0
N108 N 0.093 0.34707 0.35127 0.0
C109 C 0.08135 0.32532 0.32592 0.0
C110 C 0.09448 0.35969 0.3206 0.0
C111 C 0.02618 0.26781 0.37551 0.0
C112 C 0.02238 0.31993 0.43042 0.0
C113 C 0.00418 0.25881 0.41441 0.0
C114 C 0.97819 0.26152 0.42248 0.0
C115 C 0.98741 0.29233 0.43052 0.0
N116 N 0.03845 0.28598 0.41436 0.0
C117 C 0.04767 0.31627 0.42222 0.0
Co118 Co 0.75926 0.09336 0.70908 0.0
Co119 Co 0.80033 0.06923 0.73538 0.0
O120 O 0.76646 0.08454 0.73004 0.0
C121 C 0.68631 0.04655 0.72033 0.0
O122 O 0.69761 0.02643 0.72622 0.0
C123 C 0.81153 0.12384 0.75852 0.0
O124 O 0.80533 0.14194 0.7484 0.0
O125 O 0.83902 0.11172 0.72533 0.0
O126 O 0.81094 0.11282 0.70438 0.0
H127 H 0.8985 0.04355 0.72507 0.0
H128 H 0.73365 0.12176 0.73323 0.0
O129 O 0.70762 0.07446 0.71314 0.0
H130 H 0.82001 0.22597 0.70437 0.0
H131 H 0.70726 0.13193 0.66771 0.0
H132 H 0.78408 0.08236 0.67961 0.0
H133 H 0.80668 0.16607 0.69709 0.0
H134 H 0.71751 0.12174 0.69405 0.0
O135 O 0.81096 0.09534 0.75494 0.0
H136 H 0.8565 0.06381 0.71883 0.0
H137 H 0.81678 0.04304 0.76354 0.0
H138 H 0.77482 0.09243 0.65313 0.0
H139 H 0.74579 0.18116 0.74077 0.0
H140 H 0.73615 0.11738 0.64703 0.0
H141 H 0.78937 0.2338 0.72633 0.0
O142 O 0.7487 0.04499 0.70329 0.0
H143 H 0.69433 0.00539 0.7691 0.0
H144 H 0.77416 0.99147 0.73405 0.0
H145 H 0.72418 0.93857 0.74551 0.0
H146 H 0.68406 0.94537 0.76324 0.0
H147 H 0.74402 0.05752 0.75713 0.0
H148 H 0.85864 0.02291 0.77031 0.0
H149 H 0.89967 0.02279 0.75096 0.0
O150 O 0.79111 0.04206 0.71624 0.0
C151 C 0.83927 0.12195 0.71185 0.0
C152 C 0.88068 0.04338 0.73359 0.0
C153 C 0.85834 0.03183 0.75898 0.0
N154 N 0.83401 0.05437 0.74078 0.0
C155 C 0.85679 0.05477 0.73012 0.0
C156 C 0.83478 0.04338 0.7551 0.0
C157 C 0.88135 0.03176 0.74812 0.0
C158 C 0.75238 0.1445 0.7268 0.0
N159 N 0.7694 0.14043 0.71473 0.0
C160 C 0.75927 0.17809 0.73116 0.0
C161 C 0.78376 0.20761 0.72307 0.0
C162 C 0.801 0.20325 0.71076 0.0
C163 C 0.79346 0.16926 0.70673 0.0
C164 C 0.72421 0.12111 0.67022 0.0
C165 C 0.76739 0.09342 0.67705 0.0
C166 C 0.73006 0.1152 0.68511 0.0
N167 N 0.75158 0.10171 0.68836 0.0
C168 C 0.76216 0.09898 0.66203 0.0
C169 C 0.74044 0.11294 0.65862 0.0
C170 C 0.76763 0.031 0.706 0.0
C171 C 0.71178 1.00211 0.76145 0.0
C172 C 0.75668 0.99468 0.74169 0.0
C173 C 0.72853 0.96462 0.74819 0.0
C174 C 0.70599 0.96844 0.75814 0.0
N175 N 0.76214 0.02764 0.74497 0.0
C176 C 0.74012 0.03156 0.75471 0.0
Co177 Co 0.66646 0.76156 0.04142 0.0
Co178 Co 0.7383 0.79311 0.06524 0.0
O179 O 0.68757 0.76466 0.06115 0.0
C180 C 0.64041 0.68645 0.049 0.0
O181 O 0.67346 0.69548 0.05167 0.0
C182 C 0.70407 0.81404 0.08882 0.0
O183 O 0.68309 0.81468 0.07842 0.0
O184 O 0.74062 0.83572 0.05587 0.0
O185 O 0.69964 0.81315 0.03759 0.0
H186 H 0.86522 0.87909 0.05251 0.0
H187 H 0.62005 0.73469 0.06825 0.0
O188 O 0.63274 0.70977 0.04485 0.0
H189 H 0.60075 0.82831 0.04736 0.0
H190 H 0.56515 0.71982 0.00496 0.0
H191 H 0.69461 0.79043 0.01114 0.0
H192 H 0.64181 0.81286 0.03501 0.0
H193 H 0.59249 0.72453 0.02976 0.0
O194 O 0.728 0.80672 0.08536 0.0
H195 H 0.80131 0.84263 0.04741 0.0
H196 H 0.78305 0.80413 0.0923 0.0
H197 H 0.66837 0.78681 0.9862 0.0
H198 H 0.57843 0.74901 0.08087 0.0
H199 H 0.60317 0.75126 0.98299 0.0
H200 H 0.56868 0.79624 0.07046 0.0
O201 O 0.70051 0.74999 0.0316 0.0
H202 H 0.68668 0.68533 0.09835 0.0
H203 H 0.78089 0.75726 0.06194 0.0
H204 H 0.77724 0.70328 0.07245 0.0
H205 H 0.72993 0.66696 0.09083 0.0
H206 H 0.69103 0.73929 0.08742 0.0
H207 H 0.84679 0.84014 0.09787 0.0
H208 H 0.88835 0.87794 0.07789 0.0
O209 O 0.74993 0.77991 0.04548 0.0
C210 C 0.72577 0.83914 0.04412 0.0
C211 C 0.84738 0.86273 0.06131 0.0
C212 C 0.83703 0.84087 0.08677 0.0
N213 N 0.78849 0.82122 0.06953 0.0
C214 C 0.81117 0.84197 0.05848 0.0
C215 C 0.80096 0.82059 0.08356 0.0
C216 C 0.86034 0.86208 0.07555 0.0
C217 C 0.61566 0.75502 0.06356 0.0
N218 N 0.63332 0.7729 0.0509 0.0
C219 C 0.59218 0.76312 0.07079 0.0
C220 C 0.58677 0.78966 0.06496 0.0
C221 C 0.6048 0.8077 0.05201 0.0
C222 C 0.62812 0.79893 0.0451 0.0
C223 C 0.59358 0.73543 0.00622 0.0
C224 C 0.66621 0.7751 0.00986 0.0
C225 C 0.60921 0.73811 0.02023 0.0
N226 N 0.64508 0.75794 0.02191 0.0
C227 C 0.65151 0.77305 0.99569 0.0
C228 C 0.61493 0.75309 0.9939 0.0
C229 C 0.73325 0.7616 0.03406 0.0
C230 C 0.70751 0.70103 0.0904 0.0
C231 C 0.76021 0.7416 0.06992 0.0
C232 C 0.75832 0.71109 0.07585 0.0
C233 C 0.73176 0.69071 0.08616 0.0
N234 N 0.73634 0.75158 0.07414 0.0
C235 C 0.71021 0.73171 0.08423 0.0
Co236 Co 0.91514 0.67319 0.37499 0.0
Co237 Co 0.93363 0.73543 0.40212 0.0
O238 O 0.91913 0.68663 0.39628 0.0
C239 C 0.9574 0.64325 0.38781 0.0
O240 O 0.97683 0.67344 0.39477 0.0
C241 C 0.87585 0.68948 0.42404 0.0
O242 O 0.86149 0.66358 0.41426 0.0
O243 O 0.8936 0.73279 0.3904 0.0
O244 O 0.89855 0.70723 0.36939 0.0
H245 H 0.95893 0.85939 0.39252 0.0
H246 H 0.87923 0.61595 0.39748 0.0
O247 O 0.93136 0.63865 0.37974 0.0
H248 H 0.78436 0.6059 0.36417 0.0
H249 H 0.88499 0.58809 0.33186 0.0
H250 H 0.93574 0.71322 0.34632 0.0
H251 H 0.84637 0.65193 0.35975 0.0
H252 H 0.88828 0.60488 0.35855 0.0
O253 O 0.90327 0.71863 0.42062 0.0
H254 H 0.94261 0.79843 0.38558 0.0
H255 H 0.95342 0.77556 0.43107 0.0
H256 H 0.93282 0.69761 0.31951 0.0
H257 H 0.81759 0.56914 0.40217 0.0
H258 H 0.90725 0.63462 0.31213 0.0
H259 H 0.76964 0.56401 0.38549 0.0
O260 O 0.96506 0.71047 0.37159 0.0
H261 H 0.98972 0.68953 0.43825 0.0
H262 H 0.01101 0.78753 0.40427 0.0
H263 H 0.06102 0.78987 0.41812 0.0
H264 H 0.05053 0.74067 0.4353 0.0
H265 H 0.94053 0.68804 0.42404 0.0
H266 H 0.96962 0.83622 0.43849 0.0
H267 H 0.97253 0.87863 0.41914 0.0
O268 O 0.96544 0.75504 0.38414 0.0
C269 C 0.88726 0.72511 0.37648 0.0
C270 C 0.95782 0.84117 0.40104 0.0
C271 C 0.96379 0.82816 0.42685 0.0
N272 N 0.94728 0.78348 0.40788 0.0
C273 C 0.94868 0.80663 0.39718 0.0
C274 C 0.95454 0.79382 0.42258 0.0
C275 C 0.96543 0.85195 0.41598 0.0
C276 C 0.85854 0.61367 0.39009 0.0
N277 N 0.8664 0.63669 0.37839 0.0
C278 C 0.82367 0.58721 0.39284 0.0
C279 C 0.79677 0.58438 0.38349 0.0
C280 C 0.80501 0.60791 0.37154 0.0
C281 C 0.84017 0.63405 0.36914 0.0
C282 C 0.89609 0.61561 0.33493 0.0
C283 C 0.92439 0.68574 0.3432 0.0
C284 C 0.89807 0.62528 0.35003 0.0
N285 N 0.91191 0.65997 0.35398 0.0
C286 C 0.92289 0.67707 0.328 0.0
C287 C 0.90858 0.64173 0.32387 0.0
C288 C 0.97911 0.74315 0.37479 0.0
C289 C 0.99461 0.7112 0.43085 0.0
C290 C 0.00621 0.76594 0.41168 0.0
C291 C 0.03464 0.76747 0.41952 0.0
C292 C 0.02873 0.73987 0.42917 0.0
N293 N 0.97279 0.73775 0.41341 0.0
C294 C 0.96681 0.71059 0.42283 0.0
Co295 Co 0.24707 0.90569 0.7107 0.0
Co296 Co 0.20539 0.93065 0.7365 0.0
O297 O 0.23965 0.91569 0.73145 0.0
C298 C 0.32003 0.95417 0.72163 0.0
O299 O 0.30845 0.97408 0.72748 0.0
C300 C 0.19063 0.87437 0.75922 0.0
O301 O 0.19213 0.85433 0.74857 0.0
O302 O 0.16689 0.88812 0.72639 0.0
O303 O 0.19542 0.88498 0.70597 0.0
H304 H 0.10544 0.95336 0.72582 0.0
H305 H 0.27289 0.88015 0.73582 0.0
O306 O 0.29885 0.92582 0.71471 0.0
H307 H 0.18913 0.77297 0.70794 0.0
H308 H 0.30038 0.86589 0.67031 0.0
H309 H 0.22161 0.91392 0.68091 0.0
H310 H 0.20155 0.83189 0.69949 0.0
H311 H 0.28982 0.87748 0.69641 0.0
O312 O 0.19484 0.90466 0.75607 0.0
H313 H 0.14951 0.93576 0.71963 0.0
H314 H 0.18763 0.95617 0.76454 0.0
H315 H 0.23119 0.90244 0.65466 0.0
H316 H 0.26159 0.82178 0.74457 0.0
H317 H 0.27084 0.87825 0.64923 0.0
H318 H 0.21934 0.76766 0.73062 0.0
O319 O 0.25644 0.95327 0.70414 0.0
H320 H 0.31038 0.99552 0.77059 0.0
H321 H 0.23043 0.00801 0.73517 0.0
H322 H 0.27913 0.06123 0.74694 0.0
H323 H 0.31947 0.05517 0.76482 0.0
H324 H 0.2616 0.94302 0.75842 0.0
H325 H 0.14374 0.97373 0.77126 0.0
H326 H 0.10233 0.97251 0.75182 0.0
O327 O 0.21509 0.95775 0.71732 0.0
C328 C 0.16698 0.87686 0.71315 0.0
C329 C 0.12338 0.95408 0.7344 0.0
C330 C 0.14485 0.96545 0.7599 0.0
N331 N 0.17122 0.94503 0.7417 0.0
C332 C 0.14846 0.9442 0.73095 0.0
C333 C 0.16957 0.95537 0.75604 0.0
C334 C 0.12163 0.96479 0.74898 0.0
C335 C 0.25471 0.85674 0.72962 0.0
N336 N 0.23795 0.85943 0.71714 0.0
C337 C 0.24831 0.82375 0.73466 0.0
C338 C 0.22457 0.7934 0.72684 0.0
C339 C 0.20758 0.79635 0.71412 0.0
C340 C 0.21461 0.82978 0.70942 0.0
C341 C 0.283 0.87637 0.67254 0.0
C342 C 0.23874 0.9032 0.67864 0.0
C343 C 0.27698 0.88307 0.68729 0.0
N344 N 0.25493 0.89614 0.69018 0.0
C345 C 0.24413 0.89684 0.66375 0.0
C346 C 0.26641 0.8833 0.66071 0.0
C347 C 0.23793 0.9678 0.7068 0.0
C348 C 0.29291 0.99849 0.76285 0.0
C349 C 0.24796 0.00514 0.74288 0.0
C350 C 0.27543 0.03538 0.74955 0.0
C351 C 0.29804 0.03196 0.75959 0.0
N352 N 0.24309 0.9724 0.74614 0.0
C353 C 0.26514 0.96884 0.75598 0.0
Co354 Co 0.76384 0.67055 0.63059 0.0
Co355 Co 0.80229 0.73839 0.6051 0.0
O356 O 0.77002 0.68868 0.61006 0.0
C357 C 0.68934 0.64472 0.62146 0.0
O358 O 0.69857 0.67749 0.61803 0.0
C359 C 0.81758 0.69823 0.58192 0.0
O360 O 0.81511 0.67574 0.5923 0.0
O361 O 0.84235 0.73652 0.6149 0.0
O362 O 0.81536 0.70301 0.63516 0.0
H363 H 0.89817 0.86305 0.6157 0.0
H364 H 0.73864 0.61963 0.60524 0.0
O365 O 0.71227 0.63742 0.62648 0.0
H366 H 0.82729 0.60087 0.63158 0.0
H367 H 0.71414 0.57506 0.67008 0.0
H368 H 0.78924 0.70295 0.66061 0.0
H369 H 0.8125 0.64518 0.64077 0.0
H370 H 0.72333 0.59865 0.64424 0.0
O371 O 0.81372 0.72441 0.58534 0.0
H372 H 0.85688 0.80052 0.62186 0.0
H373 H 0.81699 0.78166 0.57722 0.0
H374 H 0.78102 0.68045 0.68661 0.0
H375 H 0.75224 0.57465 0.5958 0.0
H376 H 0.74323 0.61607 0.69147 0.0
H377 H 0.79698 0.56515 0.60896 0.0
O378 O 0.75291 0.70726 0.63788 0.0
H379 H 0.69512 0.6924 0.57199 0.0
H380 H 0.77325 0.78756 0.6068 0.0
H381 H 0.72214 0.78847 0.59542 0.0
H382 H 0.68275 0.74075 0.57792 0.0
H383 H 0.74628 0.69228 0.58364 0.0
H384 H 0.85806 0.84394 0.57055 0.0
H385 H 0.89893 0.88515 0.58988 0.0
O386 O 0.79184 0.75441 0.6245 0.0
C387 C 0.84324 0.72476 0.62796 0.0
C388 C 0.88042 0.84539 0.60719 0.0
C389 C 0.85794 0.83465 0.58184 0.0
N390 N 0.83438 0.7875 0.59995 0.0
C391 C 0.85691 0.80996 0.61062 0.0
C392 C 0.8348 0.79938 0.58568 0.0
C393 C 0.88085 0.85776 0.5927 0.0
C394 C 0.75785 0.61538 0.61113 0.0
N395 N 0.77472 0.635 0.62355 0.0
C396 C 0.76556 0.58998 0.60569 0.0
C397 C 0.79071 0.58471 0.61306 0.0
C398 C 0.80776 0.60478 0.62574 0.0
C399 C 0.79938 0.62995 0.63086 0.0
C400 C 0.73071 0.60316 0.6681 0.0
C401 C 0.77292 0.67488 0.66263 0.0
C402 C 0.73595 0.61668 0.6535 0.0
N403 N 0.757 0.65212 0.65091 0.0
C404 C 0.76829 0.6623 0.67738 0.0
C405 C 0.74705 0.62618 0.6801 0.0
C406 C 0.76994 0.74042 0.6353 0.0
C407 C 0.71219 0.71344 0.57958 0.0
C408 C 0.75619 0.76664 0.59919 0.0
C409 C 0.72734 0.76734 0.59278 0.0
C410 C 0.70523 0.74054 0.58293 0.0
N411 N 0.76292 0.74002 0.5958 0.0
C412 C 0.7413 0.71361 0.58616 0.0
Co413 Co 0.09289 0.75775 0.96839 0.0
Co414 Co 0.07667 0.80008 0.93972 0.0
O415 O 0.08926 0.76524 0.94683 0.0
C416 C 0.04841 0.68483 0.95657 0.0
O417 O 0.02985 0.69617 0.9493 0.0
C418 C 0.12979 0.80212 0.91705 0.0
O419 O 0.13699 0.78188 0.92547 0.0
O420 O 0.11691 0.83784 0.95122 0.0
O421 O 0.11155 0.80929 0.97287 0.0
H422 H 0.05416 0.90145 0.94633 0.0
H423 H 0.12661 0.73146 0.94699 0.0
O424 O 0.07456 0.70609 0.96466 0.0
H425 H 0.22363 0.81785 0.979 0.0
H426 H 0.12033 0.70469 0.01306 0.0
H427 H 0.07465 0.78202 0.99637 0.0
H428 H 0.16243 0.80486 0.98312 0.0
H429 H 0.11698 0.71556 0.98605 0.0
O430 O 0.10793 0.81152 0.92149 0.0
H431 H 0.06874 0.85642 0.95469 0.0
H432 H 0.05963 0.81926 0.90984 0.0
H433 H 0.07782 0.7721 0.02349 0.0
H434 H 0.18739 0.74333 0.9426 0.0
H435 H 0.10079 0.73319 0.03199 0.0
H436 H 0.23644 0.78692 0.95864 0.0
O437 O 0.04367 0.74779 0.97162 0.0
H438 H 0.01714 0.69359 0.90585 0.0
H439 H 1.00047 0.77835 0.9364 0.0
H440 H 0.94967 0.73091 0.92288 0.0
H441 H 0.95779 0.68812 0.90744 0.0
H442 H 0.06712 0.74113 0.91967 0.0
H443 H 0.04524 0.8641 0.90099 0.0
H444 H 0.04227 0.9055 0.9193 0.0
O445 O 0.04442 0.79036 0.95733 0.0
C446 C 0.1233 0.83777 0.96522 0.0
C447 C 0.05527 0.8835 0.93825 0.0
C448 C 0.05031 0.86256 0.9128 0.0
N449 N 0.06481 0.83505 0.93279 0.0
C450 C 0.06344 0.85788 0.94292 0.0
C451 C 0.05857 0.83729 0.91788 0.0
C452 C 0.04863 0.88577 0.92308 0.0
C453 C 0.14777 0.75031 0.95407 0.0
N454 N 0.14097 0.76756 0.96523 0.0
C455 C 0.18216 0.75699 0.95151 0.0
C456 C 0.20967 0.78148 0.9605 0.0
C457 C 0.20251 0.79888 0.97191 0.0
C458 C 0.1678 0.79155 0.97413 0.0
C459 C 0.11034 0.72176 0.0095 0.0
C460 C 0.08487 0.76522 0.99998 0.0
C461 C 0.10831 0.72796 0.99422 0.0
N462 N 0.09589 0.74963 0.98965 0.0
C463 C 0.08652 0.75963 0.01536 0.0
C464 C 0.09938 0.73776 0.02011 0.0
C465 C 0.03044 0.76664 0.96748 0.0
C466 C 0.01331 0.71222 0.91246 0.0
C467 C 0.00433 0.75989 0.9297 0.0
C468 C 0.97541 0.73307 0.92207 0.0
C469 C 0.98 0.7091 0.91339 0.0
N470 N 0.03704 0.76299 0.92866 0.0
C471 C 0.04165 0.73945 0.92023 0.0
Co472 Co 0.33926 0.09488 0.29763 0.0
Co473 Co 0.27316 0.07091 0.27196 0.0
O474 O 0.32235 0.08589 0.27686 0.0
C475 C 0.36507 0.04708 0.2871 0.0
O476 O 0.33236 0.02404 0.28337 0.0
C477 C 0.31494 0.12687 0.24915 0.0
O478 O 0.33707 0.14655 0.2597 0.0
O479 O 0.27775 0.11358 0.28212 0.0
O480 O 0.30681 0.11373 0.30294 0.0
H481 H 0.15059 0.04837 0.28288 0.0
H482 H 0.39151 0.12403 0.27278 0.0
O483 O 0.37236 0.07673 0.29282 0.0
H484 H 0.41016 0.22751 0.30235 0.0
H485 H 0.43209 0.13357 0.33801 0.0
H486 H 0.30491 0.08304 0.3275 0.0
H487 H 0.36474 0.16728 0.30993 0.0
H488 H 0.41025 0.12378 0.31189 0.0
O489 O 0.28846 0.09686 0.25237 0.0
H490 H 0.21239 0.06622 0.28896 0.0
H491 H 0.2297 0.04545 0.24401 0.0
H492 H 0.32563 0.09261 0.35379 0.0
H493 H 0.43752 0.18378 0.26491 0.0
H494 H 0.38965 0.11805 0.35918 0.0
H495 H 0.447 0.23604 0.27971 0.0
O496 O 0.30176 0.04641 0.30355 0.0
H497 H 0.31351 0.00562 0.23823 0.0
H498 H 0.22024 0.99366 0.27311 0.0
H499 H 0.21564 0.94032 0.26143 0.0
H500 H 0.26246 0.94611 0.24382 0.0
H501 H 0.31724 0.05826 0.25027 0.0
H502 H 0.16823 0.02794 0.23741 0.0
H503 H 0.12816 0.02922 0.25694 0.0
O504 O 0.25578 0.04369 0.29117 0.0
C505 C 0.28754 0.1231 0.29567 0.0
C506 C 0.1678 0.04774 0.27428 0.0
C507 C 0.17769 0.03627 0.24875 0.0
N508 N 0.22461 0.0567 0.26688 0.0
C509 C 0.20279 0.05769 0.27766 0.0
C510 C 0.21252 0.04632 0.25255 0.0
C511 C 0.15523 0.03698 0.25972 0.0
C512 C 0.39571 0.14662 0.27936 0.0
N513 N 0.37553 0.14216 0.29182 0.0
C514 C 0.4217 0.1804 0.27482 0.0
C515 C 0.42696 0.20971 0.28311 0.0
C516 C 0.40628 0.20494 0.29581 0.0
C517 C 0.38051 0.17078 0.30001 0.0
C518 C 0.40414 0.12255 0.33581 0.0
C519 C 0.33284 0.09435 0.32975 0.0
C520 C 0.39162 0.1169 0.32104 0.0
N521 N 0.35638 0.10316 0.31818 0.0
C522 C 0.3444 0.09961 0.34466 0.0
C523 C 0.38032 0.11385 0.34768 0.0
C524 C 0.26867 0.0323 0.30111 0.0
C525 C 0.29288 0.00277 0.24584 0.0
C526 C 0.24078 0.99642 0.26549 0.0
C527 C 0.23799 0.96611 0.25889 0.0
C528 C 0.26426 0.96938 0.249 0.0
N529 N 0.2689 0.02909 0.26231 0.0
C530 C 0.29478 0.03249 0.25265 0.0
Co531 Co 0.25199 0.33486 0.63594 0.0
Co532 Co 0.21143 0.27584 0.60764 0.0
O533 O 0.24554 0.32321 0.61462 0.0
C534 C 0.32617 0.36255 0.62571 0.0
O535 O 0.31667 0.33073 0.62071 0.0
C536 C 0.17633 0.29353 0.58322 0.0
O537 O 0.14624 0.27563 0.59049 0.0
O538 O 0.17293 0.27907 0.61828 0.0
O539 O 0.20028 0.30183 0.6402 0.0
H540 H 0.10747 0.15285 0.61283 0.0
H541 H 0.2763 0.39228 0.61333 0.0
O542 O 0.30359 0.36861 0.63211 0.0
H543 H 0.19138 0.40544 0.64542 0.0
H544 H 0.30374 0.41701 0.68017 0.0
H545 H 0.22682 0.29338 0.66417 0.0
H546 H 0.20532 0.3582 0.65039 0.0
H547 H 0.29372 0.40176 0.65322 0.0
O548 O 0.2049 0.29777 0.58899 0.0
H549 H 0.1519 0.21225 0.62168 0.0
H550 H 0.19694 0.23911 0.57794 0.0
H551 H 0.23589 0.30748 0.69123 0.0
H552 H 0.26339 0.44016 0.60804 0.0
H553 H 0.27459 0.3697 0.69938 0.0
H554 H 0.22061 0.44693 0.62414 0.0
O555 O 0.2619 0.29566 0.63967 0.0
H556 H 0.32098 0.32213 0.5758 0.0
H557 H 0.23411 0.22166 0.60631 0.0
H558 H 0.28362 0.21869 0.59445 0.0
H559 H 0.32745 0.26914 0.57903 0.0
H560 H 0.27129 0.32418 0.588 0.0
H561 H 0.1529 0.18004 0.5686 0.0
H562 H 0.10778 0.13641 0.58611 0.0
O563 O 0.21825 0.2531 0.62595 0.0
C564 C 0.1722 0.28543 0.63226 0.0
C565 C 0.12702 0.17162 0.60509 0.0
C566 C 0.1525 0.18687 0.58027 0.0
N567 N 0.17703 0.22912 0.60035 0.0
C568 C 0.15227 0.20529 0.61004 0.0
C569 C 0.17735 0.2203 0.58562 0.0
C570 C 0.1272 0.16241 0.5901 0.0
C571 C 0.25783 0.39522 0.62044 0.0
N572 N 0.24175 0.3726 0.6322 0.0
C573 C 0.25055 0.42231 0.61737 0.0
C574 C 0.22652 0.42607 0.6264 0.0
C575 C 0.21011 0.4028 0.63833 0.0
C576 C 0.21805 0.37604 0.64107 0.0
C577 C 0.28677 0.38982 0.67676 0.0
C578 C 0.24353 0.32053 0.66763 0.0
C579 C 0.28105 0.38101 0.66152 0.0
N580 N 0.25947 0.34675 0.65714 0.0
C581 C 0.24865 0.32835 0.68297 0.0
C582 C 0.27039 0.36326 0.68753 0.0
C583 C 0.24221 0.26333 0.636 0.0
C584 C 0.30197 0.29992 0.58244 0.0
C585 C 0.2531 0.24377 0.59965 0.0
C586 C 0.28105 0.2419 0.59293 0.0
C587 C 0.30562 0.27021 0.58428 0.0
N588 N 0.24963 0.27297 0.59777 0.0
C589 C 0.27368 0.30086 0.58933 0.0
Co590 Co 0.90733 0.24266 0.96362 0.0
Co591 Co 0.93999 0.21134 0.93556 0.0
O592 O 0.91852 0.23902 0.94252 0.0
C593 C 0.9548 0.31719 0.95429 0.0
O594 O 0.97455 0.30663 0.94746 0.0
C595 C 0.87647 0.18851 0.9157 0.0
O596 O 0.85979 0.19482 0.92645 0.0
O597 O 0.9059 0.16931 0.9477 0.0
O598 O 0.88749 0.19078 0.96645 0.0
H599 H 0.991 0.13153 0.94238 0.0
H600 H 0.88274 0.27265 0.93973 0.0
O601 O 0.92696 0.29497 0.96129 0.0
H602 H 0.77431 0.18232 0.96502 0.0
H603 H 0.8633 0.28698 0.00603 0.0
H604 H 0.91311 0.21131 0.99231 0.0
H605 H 0.833 0.19415 0.97352 0.0
H606 H 0.87751 0.28207 0.97959 0.0
O607 O 0.90732 0.19314 0.91786 0.0
H608 H 0.96438 0.16693 0.95071 0.0
H609 H 0.96097 0.19681 0.90554 0.0
H610 H 0.89892 0.21514 0.01884 0.0
H611 H 0.82462 0.26207 0.931 0.0
H612 H 0.87386 0.25322 0.02585 0.0
H613 H 0.76987 0.2165 0.94363 0.0
O614 O 0.95466 0.25172 0.97056 0.0
H615 H 0.97466 0.3139 0.90051 0.0
H616 H 0.01809 0.24866 0.93065 0.0
H617 H 0.06066 0.30146 0.9164 0.0
H618 H 0.03898 0.33445 0.90117 0.0
H619 H 0.93313 0.26124 0.91509 0.0
H620 H 0.98724 0.16147 0.89673 0.0
H621 H 1.00258 0.12863 0.91521 0.0
O622 O 0.97392 0.22907 0.95263 0.0
C623 C 0.88825 0.16536 0.95973 0.0
C624 C 0.98452 0.1458 0.93422 0.0
C625 C 0.98236 0.16256 0.9086 0.0
N626 N 0.9613 0.18407 0.92864 0.0
C627 C 0.96953 0.16596 0.93887 0.0
C628 C 0.96738 0.18244 0.91365 0.0
C629 C 0.99098 0.14415 0.91898 0.0
C630 C 0.85905 0.25302 0.94538 0.0
N631 N 0.86126 0.23399 0.95711 0.0
C632 C 0.82621 0.24704 0.94034 0.0
C633 C 0.7955 0.22142 0.94742 0.0
C634 C 0.79797 0.2022 0.95941 0.0
C635 C 0.83126 0.20887 0.96412 0.0
C636 C 0.87419 0.27028 0.00311 0.0
C637 C 0.90203 0.2278 0.99525 0.0
C638 C 0.88239 0.26749 0.98817 0.0
N639 N 0.89597 0.2463 0.9844 0.0
C640 C 0.89413 0.22992 0.0103 0.0
C641 C 0.8801 0.25132 0.01423 0.0
C642 C 0.97736 0.24439 0.96521 0.0
C643 C 0.98444 0.29974 0.90709 0.0
C644 C 0.00851 0.26304 0.92415 0.0
C645 C 0.03271 0.29282 0.91604 0.0
C646 C 0.02052 0.31129 0.90749 0.0
N647 N 0.97317 0.25193 0.92375 0.0
C648 C 0.96102 0.26981 0.91533 0.0
Co649 Co 0.67185 0.91537 0.29471 0.0
Co650 Co 0.73535 0.94015 0.26708 0.0
O651 O 0.68641 0.92284 0.27352 0.0
C652 C 0.64464 0.96227 0.2846 0.0
O653 O 0.67673 0.98482 0.2799 0.0
C654 C 0.69129 0.8804 0.2457 0.0
O655 O 0.6658 0.86506 0.25564 0.0
O656 O 0.73715 0.90206 0.27877 0.0
O657 O 0.70496 0.89729 0.29929 0.0
H658 H 0.86296 0.97628 0.27513 0.0
H659 H 0.61578 0.88478 0.2714 0.0
O660 O 0.63818 0.93316 0.29064 0.0
H661 H 0.60262 0.78296 0.30069 0.0
H662 H 0.58318 0.87782 0.33689 0.0
H663 H 0.70927 0.92869 0.3239 0.0
H664 H 0.6489 0.8436 0.30717 0.0
H665 H 0.60237 0.88682 0.31037 0.0
O666 O 0.71941 0.90918 0.2488 0.0
H667 H 0.80124 0.95505 0.2828 0.0
H668 H 0.7734 0.96138 0.23761 0.0
H669 H 0.69121 0.91991 0.35056 0.0
H670 H 0.5687 0.82461 0.26472 0.0
H671 H 0.62775 0.89429 0.3572 0.0
H672 H 0.56201 0.77316 0.27936 0.0
O673 O 0.7097 0.96412 0.30015 0.0
H674 H 0.67905 0.98842 0.23228 0.0
H675 H 0.78296 0.01827 0.26392 0.0
H676 H 0.77963 0.0657 0.25032 0.0
H677 H 0.72739 0.05089 0.23433 0.0
H678 H 0.68334 0.94187 0.2462 0.0
H679 H 0.83475 0.98238 0.22944 0.0
H680 H 0.88006 0.9901 0.24827 0.0
O681 O 0.75384 0.97235 0.28476 0.0
C682 C 0.72671 0.8911 0.29216 0.0
C683 C 0.84348 0.97311 0.26682 0.0
C684 C 0.82764 0.9765 0.24118 0.0
N685 N 0.78377 0.95719 0.26069 0.0
C686 C 0.80851 0.96118 0.27111 0.0
C687 C 0.79291 0.96451 0.24587 0.0
C688 C 0.85305 0.98083 0.25175 0.0
C689 C 0.61278 0.86257 0.27794 0.0
N690 N 0.63509 0.86773 0.28966 0.0
C691 C 0.58619 0.82854 0.27405 0.0
C692 C 0.58249 0.79968 0.28226 0.0
C693 C 0.6053 0.80516 0.29421 0.0
C694 C 0.63159 0.83956 0.29778 0.0
C695 C 0.6109 0.88894 0.33414 0.0
C696 C 0.68158 0.91734 0.32669 0.0
C697 C 0.62193 0.89415 0.31914 0.0
N698 N 0.65688 0.908 0.31559 0.0
C699 C 0.67153 0.91252 0.34181 0.0
C700 C 0.63592 0.89817 0.34553 0.0
C701 C 0.74195 0.98136 0.29596 0.0
C702 C 0.702 0.9952 0.23918 0.0
C703 C 0.76011 0.01161 0.25704 0.0
C704 C 0.7584 0.03858 0.24933 0.0
C705 C 0.7291 0.03025 0.24035 0.0
N706 N 0.73346 0.97728 0.25582 0.0
C707 C 0.70465 0.96892 0.24704 0.0
H708 H 0.56894 0.66036 0.04998 0.0
H709 H 0.52201 0.59842 0.05178 0.0
H710 H 0.60032 0.56583 0.05275 0.0
H711 H 0.64752 0.62778 0.05116 0.0
H712 H 0.54363 0.52763 0.03195 0.0
H713 H 0.56159 0.56314 0.08399 0.0
H714 H 0.5665 0.60129 0.10537 0.0
H715 H 0.46006 0.57875 0.09781 0.0
H716 H 0.4547 0.54087 0.07623 0.0
H717 H 0.43187 0.34783 0.04937 0.0
H718 H 0.47933 0.40943 0.04989 0.0
H719 H 0.40313 0.44261 0.05894 0.0
H720 H 0.35562 0.38072 0.05909 0.0
H721 H 0.45917 0.48132 0.07467 0.0
H722 H 0.4397 0.44768 0.0229 0.0
H723 H 0.433 0.41082 1.00076 0.0
H724 H 0.53941 0.43162 0.0064 0.0
H725 H 0.54658 0.46819 0.02872 0.0
C726 C 0.57622 0.64004 0.05063 0.0
C727 C 0.61199 0.64901 0.05043 0.0
C728 C 0.54935 0.60467 0.05169 0.0
C729 C 0.5577 0.57756 0.05244 0.0
C730 C 0.59334 0.58637 0.05218 0.0
C731 C 0.62026 0.62179 0.05133 0.0
C732 C 0.52917 0.53996 0.05329 0.0
C733 C 0.52544 0.51731 0.04138 0.0
C734 C 0.50479 0.5269 0.06536 0.0
C735 C 0.50787 0.54945 0.0784 0.0
C736 C 0.53933 0.56656 0.08681 0.0
C737 C 0.54218 0.58809 0.09898 0.0
C738 C 0.51364 0.59252 0.10292 0.0
C739 C 0.48216 0.57533 0.09473 0.0
C740 C 0.47919 0.55381 0.08254 0.0
C741 C 0.4252 0.36823 0.05154 0.0
C742 C 0.38992 0.35941 0.05407 0.0
C743 C 0.45238 0.40352 0.05175 0.0
C744 C 0.44484 0.4309 0.0541 0.0
C745 C 0.4097 0.42206 0.05703 0.0
C746 C 0.38252 0.38666 0.05708 0.0
C747 C 0.47352 0.46866 0.05332 0.0
C748 C 0.47729 0.49147 0.06522 0.0
C749 C 0.49763 0.48205 0.04109 0.0
C750 C 0.49356 0.46041 0.02757 0.0
C751 C 0.4616 0.44422 0.01947 0.0
C752 C 0.45772 0.42339 0.00689 0.0
C753 C 0.48573 0.4188 0.0022 0.0
C754 C 0.51772 0.43515 0.01006 0.0
C755 C 0.52172 0.45595 0.02267 0.0
H756 H 0.48266 0.40265 0.99246 0.0
H757 H 0.51589 0.6092 0.11235 0.0
H758 H 0.00482 0.37387 0.40488 0.0
H759 H 0.99015 0.42097 0.40671 0.0
H760 H 0.05788 0.4739 0.36874 0.0
H761 H 0.0735 0.42755 0.36716 0.0
H762 H 0.06661 0.52096 0.38843 0.0
H763 H 0.9657 0.42353 0.36566 0.0
H764 H 0.91657 0.3621 0.36336 0.0
H765 H 0.87124 0.37317 0.40444 0.0
H766 H 0.92038 0.43456 0.40709 0.0
H767 H 0.93279 0.58488 0.36996 0.0
H768 H 0.94913 0.53911 0.37045 0.0
H769 H 0.01776 0.59024 0.40831 0.0
H770 H 1.00244 0.63708 0.40751 0.0
H771 H 0.94105 0.49117 0.38898 0.0
H772 H 0.08701 0.57543 0.4079 0.0
H773 H 0.13615 0.63709 0.40631 0.0
H774 H 0.09136 0.65288 0.3661 0.0
H775 H 0.04224 0.59122 0.36735 0.0
C776 C 0.0166 0.39556 0.39693 0.0
C777 C 0.04016 0.39683 0.38582 0.0
C778 C 0.00811 0.42245 0.39796 0.0
C779 C 0.0225 0.45084 0.38773 0.0
C780 C 0.04643 0.45237 0.37678 0.0
C781 C 0.05525 0.42573 0.37585 0.0
C782 C 0.01234 0.47872 0.38827 0.0
C783 C 0.03914 0.51441 0.38861 0.0
C784 C 0.97652 0.47037 0.38821 0.0
C785 C 0.94691 0.4335 0.38665 0.0
C786 C 0.94539 0.41277 0.37426 0.0
C787 C 0.91752 0.37798 0.37288 0.0
C788 C 0.89086 0.36371 0.38377 0.0
C789 C 0.89195 0.38424 0.39603 0.0
C790 C 0.91979 0.41904 0.39747 0.0
C791 C 0.95135 0.58645 0.37842 0.0
C792 C 0.96647 0.61479 0.38865 0.0
C793 C 0.96061 0.56012 0.37871 0.0
C794 C 0.98499 0.56127 0.38931 0.0
C795 C 0.99945 0.58907 0.39982 0.0
C796 C 0.99056 0.61577 0.39939 0.0
C797 C 0.99531 0.53347 0.38915 0.0
C798 C 0.96853 0.49776 0.38893 0.0
C799 C 0.03114 0.54184 0.38878 0.0
C800 C 0.06076 0.57885 0.38783 0.0
C801 C 0.08772 0.59205 0.3987 0.0
C802 C 0.11556 0.62699 0.39786 0.0
C803 C 0.11681 0.64892 0.38614 0.0
C804 C 0.09029 0.63591 0.3752 0.0
C805 C 0.06243 0.60098 0.37598 0.0
H806 H 0.13836 0.67597 0.38552 0.0
H807 H 0.8693 0.33677 0.38268 0.0
H808 H 0.35623 0.93163 0.70421 0.0
H809 H 0.41828 0.94802 0.70603 0.0
H810 H 0.43141 0.01538 0.74388 0.0
H811 H 0.36939 1.0002 0.74164 0.0
H812 H 0.48641 0.04735 0.7274 0.0
H813 H 0.42459 0.93127 0.7477 0.0
H814 H 0.37975 0.86787 0.74865 0.0
H815 H 0.4249 0.84902 0.70927 0.0
H816 H 0.46971 0.91242 0.70795 0.0
H817 H 0.63689 0.9997 0.74013 0.0
H818 H 0.57517 0.98507 0.74284 0.0
H819 H 0.58884 0.05581 0.70626 0.0
H820 H 0.65066 0.07155 0.70393 0.0
H821 H 0.52046 0.95467 0.72618 0.0
H822 H 0.53731 0.09142 0.70961 0.0
H823 H 0.5821 0.15464 0.7119 0.0
H824 H 0.62699 0.13184 0.75028 0.0
H825 H 0.58217 0.06859 0.74835 0.0
C826 C 0.37228 0.9499 0.71294 0.0
C827 C 0.35783 0.96446 0.72284 0.0
C828 C 0.40779 0.95912 0.71404 0.0
C829 C 0.42953 0.98236 0.72532 0.0
C830 C 0.41525 0.9973 0.73511 0.0
C831 C 0.37978 0.98857 0.73385 0.0
C832 C 0.46719 0.99131 0.72667 0.0
C833 C 0.4938 0.02704 0.72719 0.0
C834 C 0.47705 0.96491 0.72684 0.0
C835 C 0.45037 0.92666 0.72767 0.0
C836 C 0.42484 0.91364 0.73919 0.0
C837 C 0.39943 0.8777 0.7398 0.0
C838 C 0.39944 0.85445 0.72902 0.0
C839 C 0.42492 0.86707 0.71762 0.0
C840 C 0.45036 0.903 0.71694 0.0
C841 C 0.62673 0.01222 0.73271 0.0
C842 C 0.64874 0.03697 0.72189 0.0
C843 C 0.59141 0.0038 0.73426 0.0
C844 C 0.57732 0.01974 0.72493 0.0
C845 C 0.59917 0.04384 0.71389 0.0
C846 C 0.63455 0.05268 0.7125 0.0
C847 C 0.53968 0.01072 0.72649 0.0
C848 C 0.51307 0.97497 0.72651 0.0
C849 C 0.52983 0.03708 0.72734 0.0
C850 C 0.55652 0.0752 0.72875 0.0
C851 C 0.55661 0.09992 0.71859 0.0
C852 C 0.58203 0.13576 0.71981 0.0
C853 C 0.60743 0.14723 0.7312 0.0
C854 C 0.60737 0.12291 0.74143 0.0
C855 C 0.58198 0.08706 0.74027 0.0
H856 H 0.62712 0.17497 0.73212 0.0
H857 H 0.37973 0.82664 0.7295 0.0
H858 H 0.63038 0.65122 0.61828 0.0
H859 H 0.56843 0.60362 0.61774 0.0
H860 H 0.60172 0.52607 0.62099 0.0
H861 H 0.66361 0.57339 0.62173 0.0
H862 H 0.54706 0.50955 0.59926 0.0
H863 H 0.5743 0.54456 0.65131 0.0
H864 H 0.59563 0.58749 0.67217 0.0
H865 H 0.51573 0.61449 0.66232 0.0
H866 H 0.49426 0.57206 0.64124 0.0
H867 H 0.38507 0.35755 0.6197 0.0
H868 H 0.44637 0.40571 0.61791 0.0
H869 H 0.41226 0.48166 0.62568 0.0
H870 H 0.35121 0.43352 0.62815 0.0
H871 H 0.4678 0.50041 0.64117 0.0
H872 H 0.43881 0.46611 0.58978 0.0
H873 H 0.41715 0.42516 0.56821 0.0
H874 H 0.49898 0.39948 0.57543 0.0
H875 H 0.52083 0.43992 0.59718 0.0
C876 C 0.62454 0.62404 0.61877 0.0
C877 C 0.65193 0.61611 0.62013 0.0
C878 C 0.58913 0.59688 0.61849 0.0
C879 C 0.5805 0.56133 0.61941 0.0
C880 C 0.60781 0.55332 0.62027 0.0
C881 C 0.64316 0.58042 0.62076 0.0
C882 C 0.54298 0.53249 0.62003 0.0
C883 C 0.52973 0.50727 0.60847 0.0
C884 C 0.52022 0.53012 0.63186 0.0
C885 C 0.53293 0.55542 0.6446 0.0
C886 C 0.56148 0.55987 0.65351 0.0
C887 C 0.57355 0.58407 0.66539 0.0
C888 C 0.55711 0.60378 0.66854 0.0
C889 C 0.52848 0.59925 0.65985 0.0
C890 C 0.51633 0.57511 0.64794 0.0
C891 C 0.39064 0.38452 0.62097 0.0
C892 C 0.36325 0.39168 0.62406 0.0
C893 C 0.42573 0.41212 0.61985 0.0
C894 C 0.4341 0.44755 0.62142 0.0
C895 C 0.40666 0.45466 0.62444 0.0
C896 C 0.37169 0.42707 0.62581 0.0
C897 C 0.47146 0.47715 0.62033 0.0
C898 C 0.48484 0.50259 0.63185 0.0
C899 C 0.49417 0.47997 0.60833 0.0
C900 C 0.48125 0.4558 0.5952 0.0
C901 C 0.45204 0.45155 0.58683 0.0
C902 C 0.43975 0.42845 0.57456 0.0
C903 C 0.45663 0.40967 0.57048 0.0
C904 C 0.4859 0.41402 0.57862 0.0
C905 C 0.49827 0.43704 0.59091 0.0
H906 H 0.44707 0.3918 0.56098 0.0
H907 H 0.5665 0.6225 0.67774 0.0
H908 H 1.00214 0.36946 0.93559 0.0
H909 H 0.01764 0.43163 0.93503 0.0
H910 H 0.94591 0.41266 0.97191 0.0
H911 H 0.92938 0.35038 0.97213 0.0
H912 H 0.93923 0.45315 0.95316 0.0
H913 H 0.03879 0.45446 0.97629 0.0
H914 H 0.08786 0.44204 0.97849 0.0
H915 H 0.1357 0.50286 0.93858 0.0
H916 H 0.08664 0.51526 0.93604 0.0
H917 H 0.0717 0.64995 0.97454 0.0
H918 H 0.05543 0.58782 0.97351 0.0
H919 H 0.98869 0.57243 0.93516 0.0
H920 H 0.00392 0.63448 0.93649 0.0
H921 H 0.06463 0.54913 0.95463 0.0
H922 H 0.91959 0.48866 0.93436 0.0
H923 H 0.8702 0.50077 0.93607 0.0
H924 H 0.91288 0.55799 0.97718 0.0
H925 H 0.96224 0.54582 0.97582 0.0
C926 C 0.98971 0.37857 0.94358 0.0
C927 C 0.96464 0.35499 0.95394 0.0
C928 C 0.99868 0.41419 0.94329 0.0
C929 C 0.98334 0.42713 0.95356 0.0
C930 C 0.95811 0.40346 0.96383 0.0
C931 C 0.94876 0.36781 0.96398 0.0
C932 C 0.99351 0.46524 0.95371 0.0
C933 C 0.96668 0.4741 0.95344 0.0
C934 C 0.02927 0.49277 0.95437 0.0
C935 C 0.05887 0.48547 0.95589 0.0
C936 C 0.05965 0.46497 0.96793 0.0
C937 C 0.08748 0.45797 0.96924 0.0
C938 C 0.11483 0.47157 0.95866 0.0
C939 C 0.11446 0.49229 0.94676 0.0
C940 C 0.08667 0.49934 0.94538 0.0
C941 C 0.0535 0.63337 0.96588 0.0
C942 C 0.03892 0.64716 0.95565 0.0
C943 C 0.0443 0.59779 0.96527 0.0
C944 C 0.02051 0.57514 0.95436 0.0
C945 C 0.00652 0.58907 0.9439 0.0
C946 C 0.01534 0.62462 0.94463 0.0
C947 C 0.01035 0.53704 0.95407 0.0
C948 C 0.03719 0.52818 0.95427 0.0
C949 C 0.97456 0.50948 0.95388 0.0
C950 C 0.9448 0.51666 0.95488 0.0
C951 C 0.91836 0.50373 0.94378 0.0
C952 C 0.89039 0.51062 0.94469 0.0
C953 C 0.88848 0.53025 0.95669 0.0
C954 C 0.91447 0.54291 0.96785 0.0
C955 C 0.94246 0.53606 0.96701 0.0
H956 H 0.86682 0.53558 0.95737 0.0
H957 H 0.13635 0.46612 0.9597 0.0
H958 H 0.35833 0.98182 0.28296 0.0
H959 H 0.40583 0.96744 0.28138 0.0
H960 H 0.48371 0.07806 0.28526 0.0
H961 H 0.43647 0.09264 0.28711 0.0
H962 H 0.49834 0.03995 0.26221 0.0
H963 H 0.46813 0.0323 0.31487 0.0
H964 H 0.42714 0.01111 0.33645 0.0
H965 H 0.39798 0.90388 0.32607 0.0
H966 H 0.43842 0.92442 0.30425 0.0
H967 H 0.65052 0.02679 0.27914 0.0
H968 H 0.60303 0.04105 0.2785 0.0
H969 H 0.52609 0.93124 0.28626 0.0
H970 H 0.57355 0.91714 0.28752 0.0
H971 H 0.51 0.96875 0.30293 0.0
H972 H 0.53928 0.97403 0.25081 0.0
H973 H 0.57822 0.99301 0.22854 0.0
H974 H 0.60647 0.10094 0.23664 0.0
H975 H 0.56807 0.08265 0.2591 0.0
C976 C 0.38556 0.00311 0.28338 0.0
C977 C 0.39362 0.03835 0.28523 0.0
C978 C 0.41265 0.99484 0.2825 0.0
C979 C 0.44827 0.02169 0.28326 0.0
C980 C 0.45641 0.05697 0.28464 0.0
C981 C 0.42936 0.06521 0.28576 0.0
C982 C 0.47703 0.01288 0.28316 0.0
C983 C 0.5012 0.0247 0.27117 0.0
C984 C 0.48013 0.99224 0.29466 0.0
C985 C 0.456 0.97987 0.30783 0.0
C986 C 0.45274 0.00418 0.3171 0.0
C987 C 0.42965 0.99229 0.32939 0.0
C988 C 0.40989 0.95616 0.3326 0.0
C989 C 0.41326 0.93186 0.32355 0.0
C990 C 0.43627 0.94361 0.31123 0.0
C991 C 0.62346 0.00566 0.28062 0.0
C992 C 0.61585 0.97084 0.28337 0.0
C993 C 0.59624 0.01381 0.28018 0.0
C994 C 0.56074 0.98717 0.28213 0.0
C995 C 0.55316 0.95233 0.28474 0.0
C996 C 0.58037 0.94427 0.28541 0.0
C997 C 0.53158 0.99565 0.2819 0.0
C998 C 0.50725 0.98386 0.29388 0.0
C999 C 0.52809 0.01593 0.27026 0.0
C1000 C 0.55105 0.027 0.25672 0.0
C1001 C 0.55399 1.00184 0.2479 0.0
C1002 C 0.57594 0.01247 0.23524 0.0
C1003 C 0.59488 0.04817 0.2312 0.0
C1004 C 0.59182 0.0733 0.2398 0.0
C1005 C 0.56994 0.06282 0.25249 0.0
H1006 H 0.61186 0.05635 0.2214 0.0
H1007 H 0.39203 0.94701 0.34213 0.0
H1008 H 0.37511 0.1806 0.23601 0.0
H1009 H 0.38521 0.19533 0.20913 0.0
H1010 H 0.27839 0.1132 0.19948 0.0
H1011 H 0.26844 0.09803 0.22601 0.0
H1012 H 0.32191 0.10898 0.18049 0.0
H1013 H 0.30456 0.20288 0.19963 0.0
H1014 H 0.3175 0.25379 0.21583 0.0
H1015 H 0.42283 0.31126 0.19783 0.0
H1016 H 0.41063 0.26046 0.18165 0.0
H1017 H 0.27287 0.1526 0.11189 0.0
H1018 H 0.28126 0.14259 0.13819 0.0
H1019 H 0.39316 0.21598 0.13416 0.0
H1020 H 0.38502 0.22587 0.10759 0.0
H1021 H 0.35906 0.22787 0.15958 0.0
H1022 H 0.37109 0.13473 0.13755 0.0
H1023 H 0.35483 0.08365 0.12095 0.0
H1024 H 0.25594 0.02426 0.14426 0.0
H1025 H 0.27137 0.07518 0.16086 0.0
C1026 C 0.35375 0.16592 0.22815 0.0
C1027 C 0.32102 0.13808 0.23317 0.0
C1028 C 0.35953 0.17436 0.21279 0.0
C1029 C 0.33254 0.15536 0.20225 0.0
C1030 C 0.29974 0.12804 0.20734 0.0
C1031 C 0.29406 0.11948 0.22257 0.0
C1032 C 0.338 0.16311 0.18585 0.0
C1033 C 0.32991 0.13498 0.17595 0.0
C1034 C 0.34948 0.19723 0.17986 0.0
C1035 C 0.35684 0.22773 0.18958 0.0
C1036 C 0.33058 0.22626 0.19922 0.0
C1037 C 0.33776 0.25511 0.20838 0.0
C1038 C 0.37101 0.28569 0.2079 0.0
C1039 C 0.39712 0.28752 0.19822 0.0
C1040 C 0.39009 0.25872 0.18905 0.0
C1041 C 0.29937 0.16629 0.11652 0.0
C1042 C 0.32831 0.18995 0.10765 0.0
C1043 C 0.30412 0.16052 0.13155 0.0
C1044 C 0.33783 0.1785 0.13811 0.0
C1045 C 0.36694 0.20183 0.12928 0.0
C1046 C 0.36228 0.20724 0.1141 0.0
C1047 C 0.34188 0.1735 0.15434 0.0
C1048 C 0.35175 0.20207 0.16418 0.0
C1049 C 0.33164 0.13971 0.1603 0.0
C1050 C 0.32232 0.10889 0.1504 0.0
C1051 C 0.34576 0.11088 0.13907 0.0
C1052 C 0.33671 0.08193 0.12967 0.0
C1053 C 0.30435 0.05075 0.13153 0.0
C1054 C 0.281 0.04843 0.14283 0.0
C1055 C 0.28991 0.07732 0.15225 0.0
H1056 H 0.29738 0.02836 0.12424 0.0
H1057 H 0.37651 0.30801 0.21499 0.0
H1058 H 0.1839 0.29225 0.43884 0.0
H1059 H 0.19775 0.29976 0.46571 0.0
H1060 H 0.12076 0.33287 0.47261 0.0
H1061 H 0.10789 0.32686 0.44579 0.0
H1062 H 0.17262 0.36789 0.49096 0.0
H1063 H 0.101 0.24588 0.47815 0.0
H1064 H 0.08445 0.1908 0.46433 0.0
H1065 H 0.17788 0.19232 0.48046 0.0
H1066 H 0.19529 0.24774 0.49421 0.0
H1067 H 0.12546 0.30011 0.5678 0.0
H1068 H 0.1236 0.3093 0.54061 0.0
H1069 H 0.22452 0.31518 0.53522 0.0
H1070 H 0.22716 0.30702 0.56225 0.0
H1071 H 0.16203 0.26196 0.51651 0.0
H1072 H 0.22986 0.38559 0.53064 0.0
H1073 H 0.24022 0.43814 0.54506 0.0
H1074 H 0.14474 0.42926 0.5272 0.0
H1075 H 0.13353 0.37628 0.51285 0.0
C1076 C 0.17046 0.30182 0.44604 0.0
C1077 C 0.14456 0.3086 0.44017 0.0
C1078 C 0.17822 0.30589 0.46142 0.0
C1079 C 0.15963 0.316 0.47128 0.0
C1080 C 0.13536 0.32488 0.46529 0.0
C1081 C 0.128 0.32137 0.4499 0.0
C1082 C 0.16357 0.315 0.48788 0.0
C1083 C 0.17006 0.34461 0.49652 0.0
C1084 C 0.16015 0.28463 0.49524 0.0
C1085 C 0.14965 0.25116 0.48708 0.0
C1086 C 0.11815 0.2346 0.47867 0.0
C1087 C 0.1086 0.20332 0.47085 0.0
C1088 C 0.13015 0.18813 0.47148 0.0
C1089 C 0.16125 0.20415 0.47996 0.0
C1090 C 0.17097 0.2355 0.48777 0.0
C1091 C 0.1475 0.30396 0.56084 0.0
C1092 C 0.17645 0.30291 0.56719 0.0
C1093 C 0.1464 0.3092 0.54535 0.0
C1094 C 0.17392 0.31285 0.53597 0.0
C1095 C 0.20309 0.31246 0.5423 0.0
C1096 C 0.20457 0.30797 0.55778 0.0
C1097 C 0.17138 0.31486 0.51944 0.0
C1098 C 0.16486 0.28528 0.51087 0.0
C1099 C 0.17387 0.34485 0.51223 0.0
C1100 C 0.18065 0.37674 0.52081 0.0
C1101 C 0.21088 0.39462 0.52991 0.0
C1102 C 0.21695 0.42454 0.53804 0.0
C1103 C 0.1931 0.43697 0.53709 0.0
C1104 C 0.16317 0.41956 0.52795 0.0
C1105 C 0.15696 0.38961 0.51981 0.0
H1106 H 0.19785 0.46015 0.54339 0.0
H1107 H 0.12271 0.16391 0.46542 0.0
H1108 H 0.79121 0.16609 0.77335 0.0
H1109 H 0.79475 0.17776 0.80049 0.0
H1110 H 0.84765 0.11755 0.80678 0.0
H1111 H 0.84312 0.10494 0.77997 0.0
H1112 H 0.79835 0.09795 0.82664 0.0
H1113 H 0.89063 0.21147 0.80831 0.0
H1114 H 0.91492 0.26602 0.79315 0.0
H1115 H 0.84315 0.29297 0.81437 0.0
H1116 H 0.81814 0.23832 0.82953 0.0
H1117 H 0.89321 0.15543 0.89411 0.0
H1118 H 0.87366 0.14468 0.86801 0.0
H1119 H 0.80725 0.19007 0.87608 0.0
H1120 H 0.82664 0.20078 0.90251 0.0
H1121 H 0.85213 0.21699 0.84987 0.0
H1122 H 0.76696 0.10597 0.87101 0.0
H1123 H 0.74649 0.05243 0.88655 0.0
H1124 H 0.80879 0.0215 0.86005 0.0
H1125 H 0.83007 0.07512 0.84449 0.0
C1126 C 0.80394 0.15574 0.78054 0.0
C1127 C 0.81679 0.13452 0.77454 0.0
C1128 C 0.80597 0.16243 0.79605 0.0
C1129 C 0.82151 0.14856 0.80575 0.0
C1130 C 0.83523 0.12828 0.79962 0.0
C1131 C 0.83276 0.12121 0.78424 0.0
C1132 C 0.82281 0.15392 0.82234 0.0
C1133 C 0.8103 0.12405 0.83167 0.0
C1134 C 0.83722 0.18782 0.82902 0.0
C1135 C 0.85222 0.22061 0.81991 0.0
C1136 C 0.87984 0.22889 0.80965 0.0
C1137 C 0.89377 0.25985 0.80108 0.0
C1138 C 0.8805 0.28288 0.80276 0.0
C1139 C 0.85334 0.27506 0.81306 0.0
C1140 C 0.83929 0.24411 0.82165 0.0
C1141 C 0.87413 0.16281 0.89042 0.0
C1142 C 0.8614 0.17889 0.90038 0.0
C1143 C 0.86295 0.15658 0.87549 0.0
C1144 C 0.83893 0.16647 0.87012 0.0
C1145 C 0.82576 0.1822 0.88004 0.0
C1146 C 0.83664 0.18804 0.89512 0.0
C1147 C 0.8289 0.16114 0.85399 0.0
C1148 C 0.83962 0.19092 0.84478 0.0
C1149 C 0.81324 0.1272 0.84738 0.0
C1150 C 0.80025 0.0947 0.85663 0.0
C1151 C 0.77649 0.08788 0.86856 0.0
C1152 C 0.76471 0.05749 0.87736 0.0
C1153 C 0.77637 0.0336 0.8743 0.0
C1154 C 0.79978 0.04002 0.86241 0.0
C1155 C 0.81166 0.07039 0.85358 0.0
H1156 H 0.76723 0.01009 0.88113 0.0
H1157 H 0.89132 0.30684 0.79612 0.0
H1158 H 0.64439 0.80678 0.10241 0.0
H1159 H 0.63528 0.81198 0.12928 0.0
H1160 H 0.74347 0.84 0.1381 0.0
H1161 H 0.7521 0.83329 0.11147 0.0
H1162 H 0.70467 0.79589 0.15808 0.0
H1163 H 0.71173 0.90161 0.1378 0.0
H1164 H 0.69489 0.93605 0.12121 0.0
H1165 H 0.58962 0.88221 0.13941 0.0
H1166 H 0.60573 0.84713 0.15598 0.0
H1167 H 0.74371 0.89095 0.2263 0.0
H1168 H 0.73818 0.87277 0.20004 0.0
H1169 H 0.62454 0.82101 0.20351 0.0
H1170 H 0.62986 0.83876 0.23009 0.0
H1171 H 0.65681 0.86969 0.17795 0.0
H1172 H 0.65554 0.76966 0.20084 0.0
H1173 H 0.67689 0.73991 0.21793 0.0
H1174 H 0.77693 0.78869 0.19501 0.0
H1175 H 0.75637 0.81916 0.17792 0.0
C1176 C 0.66627 0.81433 0.11009 0.0
C1177 C 0.69898 0.81972 0.10483 0.0
C1178 C 0.66108 0.81738 0.12546 0.0
C1179 C 0.68877 0.82672 0.13579 0.0
C1180 C 0.72158 0.83257 0.13044 0.0
C1181 C 0.72656 0.8289 0.11517 0.0
C1182 C 0.68382 0.82986 0.1522 0.0
C1183 C 0.69442 0.81227 0.16237 0.0
C1184 C 0.66953 0.85039 0.15793 0.0
C1185 C 0.65981 0.87146 0.14799 0.0
C1186 C 0.68492 0.89693 0.13817 0.0
C1187 C 0.67552 0.9166 0.12879 0.0
C1188 C 0.64117 0.91124 0.12922 0.0
C1189 C 0.61619 0.88627 0.13906 0.0
C1190 C 0.62544 0.86651 0.14846 0.0
C1191 C 0.71748 0.87536 0.22156 0.0
C1192 C 0.68718 0.86622 0.23027 0.0
C1193 C 0.71439 0.86496 0.20655 0.0
C1194 C 0.68098 0.84552 0.19985 0.0
C1195 C 0.65056 0.83598 0.20851 0.0
C1196 C 0.65362 0.84591 0.22368 0.0
C1197 C 0.67848 0.83648 0.18365 0.0
C1198 C 0.66651 0.85293 0.17357 0.0
C1199 C 0.69212 0.81545 0.17798 0.0
C1200 C 0.70446 0.79688 0.18815 0.0
C1201 C 0.68218 0.77425 0.19951 0.0
C1202 C 0.69413 0.75722 0.20919 0.0
C1203 C 0.72826 0.76245 0.20758 0.0
C1204 C 0.75049 0.78466 0.19625 0.0
C1205 C 0.73868 0.80178 0.18655 0.0
H1206 H 0.73747 0.74925 0.21509 0.0
H1207 H 0.63395 0.92649 0.12195 0.0
H1208 H 0.80519 0.63682 0.56802 0.0
H1209 H 0.80899 0.62758 0.54101 0.0
H1210 H 0.84594 0.7381 0.53281 0.0
H1211 H 0.84107 0.74711 0.55952 0.0
H1212 H 0.79781 0.70118 0.51339 0.0
H1213 H 0.90112 0.69976 0.532 0.0
H1214 H 0.93316 0.67847 0.54775 0.0
H1215 H 0.87239 0.5747 0.52864 0.0
H1216 H 0.83969 0.5953 0.51291 0.0
H1217 H 0.88751 0.74087 0.44424 0.0
H1218 H 0.87075 0.73396 0.4707 0.0
H1219 H 0.81842 0.62055 0.46614 0.0
H1220 H 0.83505 0.62726 0.43939 0.0
H1221 H 0.86532 0.64837 0.49143 0.0
H1222 H 0.76809 0.65472 0.47015 0.0
H1223 H 0.73967 0.67926 0.454 0.0
H1224 H 0.79294 0.77757 0.47806 0.0
H1225 H 0.82209 0.7538 0.49421 0.0
C1226 C 0.81445 0.65916 0.56044 0.0
C1227 C 0.82276 0.69267 0.5659 0.0
C1228 C 0.81665 0.65387 0.545 0.0
C1229 C 0.82787 0.68217 0.53481 0.0
C1230 C 0.83693 0.71575 0.54037 0.0
C1231 C 0.83427 0.72091 0.55569 0.0
C1232 C 0.82949 0.6772 0.5183 0.0
C1233 C 0.81279 0.68981 0.50863 0.0
C1234 C 0.84802 0.66133 0.51199 0.0
C1235 C 0.86767 0.64895 0.52142 0.0
C1236 C 0.8944 0.67233 0.53125 0.0
C1237 C 0.91272 0.66041 0.54015 0.0
C1238 C 0.90473 0.62523 0.53924 0.0
C1239 C 0.87849 0.60193 0.52937 0.0
C1240 C 0.86007 0.61371 0.52045 0.0
C1241 C 0.87214 0.71439 0.44879 0.0
C1242 C 0.86255 0.68458 0.4397 0.0
C1243 C 0.86253 0.7105 0.46393 0.0
C1244 C 0.84324 0.67675 0.47038 0.0
C1245 C 0.83328 0.64683 0.46135 0.0
C1246 C 0.84256 0.65069 0.44607 0.0
C1247 C 0.83463 0.6734 0.48667 0.0
C1248 C 0.8499 0.65918 0.49626 0.0
C1249 C 0.81518 0.68821 0.49294 0.0
C1250 C 0.79743 0.70251 0.48334 0.0
C1251 C 0.77393 0.68165 0.47193 0.0
C1252 C 0.75766 0.69541 0.46279 0.0
C1253 C 0.76453 0.72996 0.46499 0.0
C1254 C 0.78763 0.7508 0.47636 0.0
C1255 C 0.80399 0.73718 0.48553 0.0
H1256 H 0.75192 0.74058 0.45789 0.0
H1257 H 0.91894 0.61605 0.54614 0.0
H1258 H 0.15328 0.76673 0.89922 0.0
H1259 H 0.16518 0.77446 0.87214 0.0
H1260 H 0.14644 0.8626 0.87223 0.0
H1261 H 0.1334 0.85422 0.89906 0.0
H1262 H 0.11089 0.82023 0.85064 0.0
H1263 H 0.23138 0.871 0.86807 0.0
H1264 H 0.28067 0.87139 0.88178 0.0
H1265 H 0.26789 0.78304 0.85567 0.0
H1266 H 0.21822 0.78186 0.84193 0.0
H1267 H 0.1815 0.90816 0.78303 0.0
H1268 H 0.17252 0.89052 0.80929 0.0
H1269 H 0.17769 0.79704 0.79831 0.0
H1270 H 0.18702 0.81474 0.77167 0.0
H1271 H 0.21698 0.83294 0.8244 0.0
H1272 H 0.09958 0.7871 0.80533 0.0
H1273 H 0.05203 0.78953 0.79139 0.0
H1274 H 0.06054 0.87144 0.82077 0.0
H1275 H 0.1085 0.86988 0.83476 0.0
C1276 C 0.15233 0.78814 0.8935 0.0
C1277 C 0.14233 0.80982 0.90128 0.0
C1278 C 0.15916 0.79255 0.878 0.0
C1279 C 0.15677 0.81917 0.87008 0.0
C1280 C 0.14821 0.84169 0.87802 0.0
C1281 C 0.14092 0.83699 0.8934 0.0
C1282 C 0.16109 0.82261 0.85343 0.0
C1283 C 0.1343 0.82334 0.84497 0.0
C1284 C 0.19096 0.82535 0.84586 0.0
C1285 C 0.22083 0.82609 0.8541 0.0
C1286 C 0.2389 0.85148 0.86534 0.0
C1287 C 0.26694 0.85188 0.87309 0.0
C1288 C 0.27733 0.82719 0.86963 0.0
C1289 C 0.25977 0.80211 0.85836 0.0
C1290 C 0.23169 0.80158 0.85058 0.0
C1291 C 0.18071 0.88377 0.78609 0.0
C1292 C 0.18476 0.86273 0.77517 0.0
C1293 C 0.1755 0.87371 0.80116 0.0
C1294 C 0.17404 0.84229 0.80575 0.0
C1295 C 0.17862 0.82136 0.79498 0.0
C1296 C 0.18375 0.8314 0.77977 0.0
C1297 C 0.16735 0.8317 0.82182 0.0
C1298 C 0.19349 0.82945 0.83012 0.0
C1299 C 0.13699 0.82781 0.82931 0.0
C1300 C 0.10779 0.82849 0.82105 0.0
C1301 C 0.09146 0.80578 0.80877 0.0
C1302 C 0.06441 0.80698 0.80086 0.0
C1303 C 0.05331 0.83066 0.80518 0.0
C1304 C 0.06917 0.85311 0.81744 0.0
C1305 C 0.09625 0.85204 0.82538 0.0
H1306 H 0.03238 0.83157 0.79904 0.0
H1307 H 0.29905 0.82754 0.87565 0.0
H1308 H 0.13386 0.84844 0.99556 0.0
H1309 H 0.1619 0.90451 0.0091 0.0
H1310 H 0.18529 0.96122 0.96711 0.0
H1311 H 0.15682 0.90505 0.95335 0.0
H1312 H 0.24252 0.99015 0.9885 0.0
H1313 H 0.11856 0.95255 0.98566 0.0
H1314 H 0.05496 0.90984 0.98871 0.0
H1315 H 0.06954 0.90535 0.03624 0.0
H1316 H 0.13341 0.94758 0.03343 0.0
H1317 H 0.28236 0.15763 0.01572 0.0
H1318 H 0.25728 0.1015 0.00248 0.0
H1319 H 0.21661 0.04548 0.0443 0.0
H1320 H 0.24075 0.10191 0.05769 0.0
H1321 H 0.16863 0.01523 0.0232 0.0
H1322 H 0.29166 0.05279 0.02668 0.0
H1323 H 0.35569 0.09427 0.0241 0.0
H1324 H 0.344 0.09745 0.97628 0.0
H1325 H 0.27976 0.05644 0.97859 0.0
C1326 C 0.14513 0.87275 0.98912 0.0
C1327 C 0.14287 0.87209 0.97331 0.0
C1328 C 0.16112 0.90483 0.99693 0.0
C1329 C 0.17543 0.93702 0.98913 0.0
C1330 C 0.17438 0.93664 0.97334 0.0
C1331 C 0.15802 0.90449 0.9655 0.0
C1332 C 0.1903 0.97092 0.99753 0.0
C1333 C 0.22634 0.9959 0.99595 0.0
C1334 C 0.16934 0.97791 0.00756 0.0
C1335 C 0.13084 0.95297 0.00931 0.0
C1336 C 0.10827 0.94225 0.99675 0.0
C1337 C 0.07216 0.91815 0.99843 0.0
C1338 C 0.05823 0.90482 0.01265 0.0
C1339 C 0.08038 0.91566 0.02523 0.0
C1340 C 0.11654 0.93969 0.0236 0.0
C1341 C 0.2682 0.13346 0.02219 0.0
C1342 C 0.26386 0.13444 0.03785 0.0
C1343 C 0.25396 0.10125 0.01456 0.0
C1344 C 0.23556 0.06909 0.02239 0.0
C1345 C 0.23081 0.06989 0.038 0.0
C1346 C 0.24477 0.10222 0.04565 0.0
C1347 C 0.22104 0.03477 0.0142 0.0
C1348 C 0.18499 0.00961 0.01581 0.0
C1349 C 0.2421 0.02749 0.00429 0.0
C1350 C 0.28082 0.05176 0.00283 0.0
C1351 C 0.3027 0.0625 0.01562 0.0
C1352 C 0.33903 0.08592 0.01421 0.0
C1353 C 0.35389 0.09854 1.00004 0.0
C1354 C 0.33245 0.08768 0.98725 0.0
C1355 C 0.29607 0.06432 0.9886 0.0
H1356 H 0.38202 0.11669 0.99897 0.0
H1357 H 0.03027 0.88616 0.01394 0.0
H1358 H 0.14839 0.24882 0.38861 0.0
H1359 H 0.17863 0.22243 0.37521 0.0
H1360 H 0.15943 0.25847 0.33301 0.0
H1361 H 0.12954 0.28507 0.3462 0.0
H1362 H 0.14312 0.18807 0.33219 0.0
H1363 H 0.23942 0.30147 0.34811 0.0
H1364 H 0.27465 0.34734 0.36686 0.0
H1365 H 0.2966 0.2744 0.39024 0.0
H1366 H 0.26104 0.22791 0.37174 0.0
H1367 H 0.25201 0.15495 0.28411 0.0
H1368 H 0.22528 0.18404 0.29797 0.0
H1369 H 0.26254 0.164 0.3397 0.0
H1370 H 0.29054 0.13629 0.32591 0.0
H1371 H 0.26915 0.22561 0.3414 0.0
H1372 H 0.17404 0.11221 0.32705 0.0
H1373 H 0.13703 0.06344 0.30974 0.0
H1374 H 0.11051 0.13173 0.28522 0.0
H1375 H 0.14766 0.18105 0.30232 0.0
C1376 C 0.1507 0.25128 0.37649 0.0
C1377 C 0.1366 0.26929 0.36854 0.0
C1378 C 0.16804 0.23619 0.36885 0.0
C1379 C 0.17144 0.23861 0.35311 0.0
C1380 C 0.15712 0.25625 0.34515 0.0
C1381 C 0.14013 0.27159 0.35276 0.0
C1382 C 0.18981 0.22279 0.34483 0.0
C1383 C 0.1708 0.19654 0.33406 0.0
C1384 C 0.2256 0.23308 0.3476 0.0
C1385 C 0.24729 0.26112 0.35863 0.0
C1386 C 0.25154 0.29514 0.35731 0.0
C1387 C 0.27161 0.32126 0.36788 0.0
C1388 C 0.28778 0.31377 0.37976 0.0
C1389 C 0.28402 0.28016 0.38105 0.0
C1390 C 0.26394 0.25392 0.37052 0.0
C1391 C 0.2548 0.15701 0.29623 0.0
C1392 C 0.27334 0.14307 0.30386 0.0
C1393 C 0.23924 0.17344 0.30417 0.0
C1394 C 0.24114 0.17561 0.31997 0.0
C1395 C 0.26052 0.16263 0.32755 0.0
C1396 C 0.27652 0.14668 0.31961 0.0
C1397 C 0.22255 0.19087 0.32862 0.0
C1398 C 0.24147 0.21701 0.33948 0.0
C1399 C 0.18644 0.18003 0.32613 0.0
C1400 C 0.1639 0.1504 0.31588 0.0
C1401 C 0.16049 0.11689 0.31791 0.0
C1402 C 0.13946 0.08914 0.30815 0.0
C1403 C 0.12152 0.09451 0.29636 0.0
C1404 C 0.12446 0.12762 0.29435 0.0
C1405 C 0.14546 0.15547 0.30408 0.0
H1406 H 0.10528 0.073 0.2888 0.0
H1407 H 0.3033 0.33403 0.38793 0.0
H1408 H 0.85054 0.14161 0.68221 0.0
H1409 H 0.90676 0.17181 0.66875 0.0
H1410 H 0.96267 0.18038 0.70988 0.0
H1411 H 0.90637 0.14977 0.72353 0.0
H1412 H 0.99424 0.24326 0.6918 0.0
H1413 H 0.95012 0.11819 0.68691 0.0
H1414 H 0.90469 0.05697 0.68074 0.0
H1415 H 0.90294 0.08749 0.63498 0.0
H1416 H 0.94789 0.14909 0.64095 0.0
H1417 H 0.15992 0.28256 0.66251 0.0
H1418 H 0.10341 0.25692 0.67552 0.0
H1419 H 0.04884 0.23051 0.63293 0.0
H1420 H 0.10563 0.25502 0.61975 0.0
H1421 H 0.0153 0.1776 0.65136 0.0
H1422 H 0.0595 0.30181 0.65546 0.0
H1423 H 0.10339 0.36382 0.66124 0.0
H1424 H 0.10358 0.33661 0.70763 0.0
H1425 H 0.0601 0.27429 0.70208 0.0
C1426 C 0.87472 0.15009 0.68848 0.0
C1427 C 0.87377 0.14301 0.70399 0.0
C1428 C 0.90688 0.16733 0.68072 0.0
C1429 C 0.93887 0.17807 0.68827 0.0
C1430 C 0.93826 0.17228 0.70383 0.0
C1431 C 0.90602 0.1547 0.71161 0.0
C1432 C 0.97277 0.19406 0.67978 0.0
C1433 C 0.99909 0.22883 0.68308 0.0
C1434 C 0.97861 0.17552 0.66811 0.0
C1435 C 0.95213 0.13834 0.66442 0.0
C1436 C 0.93986 0.11191 0.67556 0.0
C1437 C 0.91421 0.07713 0.67209 0.0
C1438 C 0.90088 0.06836 0.65748 0.0
C1439 C 0.91326 0.09434 0.64629 0.0
C1440 C 0.93884 0.12919 0.64971 0.0
C1441 C 0.136 0.27152 0.65584 0.0
C1442 C 0.13748 0.27114 0.64002 0.0
C1443 C 0.10356 0.25695 0.66334 0.0
C1444 C 0.07169 0.24231 0.65526 0.0
C1445 C 0.07301 0.24175 0.63946 0.0
C1446 C 0.10554 0.25594 0.63191 0.0
C1447 C 0.03713 0.22701 0.66336 0.0
C1448 C 0.01058 0.19226 0.66002 0.0
C1449 C 0.03095 0.24574 0.6749 0.0
C1450 C 0.05673 0.28331 0.67833 0.0
C1451 C 0.06905 0.309 0.66688 0.0
C1452 C 0.09385 0.34421 0.67011 0.0
C1453 C 0.10632 0.35413 0.68479 0.0
C1454 C 0.09392 0.32888 0.69627 0.0
C1455 C 0.06917 0.29361 0.69309 0.0
H1456 H 0.12554 0.3814 0.68727 0.0
H1457 H 0.881 0.04143 0.65482 0.0
H1458 H 0.69591 0.86062 0.0225 0.0
H1459 H 0.72355 0.91618 0.00859 0.0
H1460 H 0.81897 0.95285 0.0346 0.0
H1461 H 0.7909 0.89781 0.04906 0.0
H1462 H 0.80952 0.00594 0.02963 0.0
H1463 H 0.80934 0.91696 0.9986 0.0
H1464 H 0.78251 0.85881 0.98611 0.0
H1465 H 0.71543 0.88475 0.96033 0.0
H1466 H 0.74145 0.94284 0.97287 0.0
H1467 H 0.89723 0.108 0.95511 0.0
H1468 H 0.8703 0.0525 0.96938 0.0
H1469 H 0.80832 0.08664 0.99462 0.0
H1470 H 0.8359 0.14233 0.98091 0.0
H1471 H 0.8069 0.99813 0.9739 0.0
H1472 H 0.79953 0.06101 0.03045 0.0
H1473 H 0.8312 0.11893 0.04314 0.0
H1474 H 0.92511 0.14524 0.0179 0.0
H1475 H 0.89423 0.08725 0.00526 0.0
C1476 C 0.72261 0.88064 0.02544 0.0
C1477 C 0.7412 0.87451 0.03687 0.0
C1478 C 0.73852 0.91239 0.01737 0.0
C1479 C 0.77373 0.93848 0.02024 0.0
C1480 C 0.79187 0.93311 0.03208 0.0
C1481 C 0.77574 0.90154 0.04035 0.0
C1482 C 0.79188 0.97073 0.0106 0.0
C1483 C 0.8089 0.00417 0.01745 0.0
C1484 C 0.79211 0.96862 0.99468 0.0
C1485 C 0.77718 0.93416 0.98676 0.0
C1486 C 0.78878 0.91022 0.99031 0.0
C1487 C 0.7737 0.87725 0.98323 0.0
C1488 C 0.74723 0.86807 0.97245 0.0
C1489 C 0.73592 0.8919 0.96869 0.0
C1490 C 0.75084 0.92486 0.97577 0.0
C1491 C 0.87762 0.10354 0.96361 0.0
C1492 C 0.86903 0.12988 0.96693 0.0
C1493 C 0.86222 0.07176 0.97176 0.0
C1494 C 0.8378 0.0656 0.98333 0.0
C1495 C 0.82776 0.09105 0.98605 0.0
C1496 C 0.84346 0.12291 0.97809 0.0
C1497 C 0.82363 0.0333 0.99294 0.0
C1498 C 0.80751 0.99987 0.98608 0.0
C1499 C 0.82522 0.03541 0.00887 0.0
C1500 C 0.84442 0.06987 0.01682 0.0
C1501 C 0.82701 0.07904 0.0277 0.0
C1502 C 0.84482 0.11191 0.03486 0.0
C1503 C 0.88011 0.13578 0.0313 0.0
C1504 C 0.89775 0.12676 0.02062 0.0
C1505 C 0.88011 0.09389 0.01346 0.0
H1506 H 0.8938 0.16125 0.03683 0.0
H1507 H 0.73552 0.8425 0.96701 0.0
H1508 H 0.77043 0.86765 0.28116 0.0
H1509 H 0.79661 0.83796 0.29513 0.0
H1510 H 0.74387 0.84177 0.3355 0.0
H1511 H 0.71739 0.87096 0.32173 0.0
H1512 H 0.81588 0.86462 0.33982 0.0
H1513 H 0.71246 0.76618 0.31746 0.0
H1514 H 0.67378 0.73268 0.29625 0.0
H1515 H 0.75887 0.72474 0.276 0.0
H1516 H 0.79822 0.75865 0.29699 0.0
H1517 H 0.84849 0.75426 0.38723 0.0
H1518 H 0.81954 0.78014 0.37267 0.0
H1519 H 0.85573 0.75629 0.3315 0.0
H1520 H 0.88327 0.72904 0.34591 0.0
H1521 H 0.7928 0.7443 0.32707 0.0
H1522 H 0.89685 0.84185 0.34774 0.0
H1523 H 0.93871 0.87683 0.36782 0.0
H1524 H 0.85795 0.88951 0.38964 0.0
H1525 H 0.81545 0.85423 0.36975 0.0
C1526 C 0.76419 0.86197 0.29298 0.0
C1527 C 0.74166 0.87169 0.30026 0.0
C1528 C 0.77919 0.84499 0.30095 0.0
C1529 C 0.77215 0.83761 0.31636 0.0
C1530 C 0.74975 0.84728 0.32364 0.0
C1531 C 0.73449 0.86387 0.31568 0.0
C1532 C 0.78823 0.82003 0.32501 0.0
C1533 C 0.81055 0.83815 0.33715 0.0
C1534 C 0.78212 0.78595 0.32125 0.0
C1535 C 0.75837 0.76525 0.30872 0.0
C1536 C 0.723 0.75752 0.30842 0.0
C1537 C 0.70094 0.73842 0.29645 0.0
C1538 C 0.71389 0.72666 0.28477 0.0
C1539 C 0.74889 0.7339 0.28505 0.0
C1540 C 0.77107 0.75303 0.29698 0.0
C1541 C 0.8501 0.75434 0.37508 0.0
C1542 C 0.86836 0.73967 0.36778 0.0
C1543 C 0.83371 0.76937 0.36674 0.0
C1544 C 0.83597 0.77089 0.35094 0.0
C1545 C 0.85356 0.75557 0.34365 0.0
C1546 C 0.86942 0.74002 0.35194 0.0
C1547 C 0.82047 0.78879 0.342 0.0
C1548 C 0.79827 0.77079 0.32978 0.0
C1549 C 0.82725 0.82331 0.3455 0.0
C1550 C 0.85288 0.84513 0.35733 0.0
C1551 C 0.88797 0.85195 0.35686 0.0
C1552 C 0.91181 0.87183 0.36821 0.0
C1553 C 0.90097 0.88527 0.38004 0.0
C1554 C 0.8663 0.87902 0.38049 0.0
C1555 C 0.84233 0.85913 0.36917 0.0
H1556 H 0.91945 0.90058 0.38883 0.0
H1557 H 0.69677 0.71189 0.27551 0.0
H1558 H 0.15505 0.84049 0.68671 0.0
H1559 H 0.10085 0.8125 0.67182 0.0
H1560 H 0.04761 0.83923 0.70577 0.0
H1561 H 0.10162 0.86687 0.72094 0.0
H1562 H 0.0315 0.75774 0.67749 0.0
H1563 H 0.9992 0.87007 0.68591 0.0
H1564 H 0.03101 0.93382 0.69186 0.0
H1565 H 0.12608 0.94464 0.6725 0.0
H1566 H 0.09465 0.88124 0.66607 0.0
H1567 H 0.85636 0.70311 0.65488 0.0
H1568 H 0.91221 0.72762 0.6684 0.0
H1569 H 0.96485 0.80231 0.6325 0.0
H1570 H 0.90875 0.77808 0.61884 0.0
H1571 H 0.98468 0.83426 0.65981 0.0
H1572 H 0.97625 0.73197 0.63632 0.0
H1573 H 0.94744 0.66899 0.62926 0.0
H1574 H 0.93957 0.63983 0.67582 0.0
H1575 H 0.96786 0.70263 0.68317 0.0
C1576 C 0.13172 0.83998 0.69118 0.0
C1577 C 0.13286 0.85614 0.70504 0.0
C1578 C 0.10071 0.82389 0.68263 0.0
C1579 C 0.07033 0.82408 0.68761 0.0
C1580 C 0.07089 0.83904 0.70167 0.0
C1581 C 0.10179 0.85475 0.71034 0.0
C1582 C 0.03867 0.81022 0.67776 0.0
C1583 C 0.02117 0.7744 0.67366 0.0
C1584 C 0.02583 0.83224 0.67242 0.0
C1585 C 0.0446 0.87077 0.67567 0.0
C1586 C 0.02681 0.88611 0.68281 0.0
C1587 C 0.04479 0.9222 0.68626 0.0
C1588 C 0.08056 0.94326 0.68257 0.0
C1589 C 0.09838 0.92832 0.67534 0.0
C1590 C 0.08048 0.8923 0.6718 0.0
C1591 C 0.87977 0.72457 0.64974 0.0
C1592 C 0.87792 0.73841 0.63567 0.0
C1593 C 0.91178 0.73856 0.65751 0.0
C1594 C 0.94285 0.76666 0.65144 0.0
C1595 C 0.94123 0.78062 0.63741 0.0
C1596 C 0.90914 0.76654 0.62957 0.0
C1597 C 0.97683 0.78144 0.65984 0.0
C1598 C 0.99489 0.81751 0.66365 0.0
C1599 C 0.99059 0.75979 0.66468 0.0
C1600 C 0.97392 0.722 0.6603 0.0
C1601 C 0.96816 0.71211 0.64506 0.0
C1602 C 0.95195 0.67645 0.641 0.0
C1603 C 0.94161 0.65042 0.65209 0.0
C1604 C 0.94756 0.66002 0.66725 0.0
C1605 C 0.96372 0.69565 0.67137 0.0
H1606 H 0.92905 0.62282 0.64893 0.0
H1607 H 0.09446 0.97115 0.6853 0.0
H1608 H 0.98307 0.23939 0.99563 0.0
H1609 H 0.03485 0.24652 0.00942 0.0
H1610 H 0.09573 0.27752 0.96829 0.0
H1611 H 0.04383 0.26905 0.95451 0.0
H1612 H 0.1055 0.23126 0.98119 0.0
H1613 H 0.10925 0.33682 0.99826 0.0
H1614 H 0.08611 0.37297 0.00935 0.0
H1615 H 0.0651 0.31552 0.05084 0.0
H1616 H 0.08768 0.27867 0.03994 0.0
H1617 H 0.26957 0.27869 0.01693 0.0
H1618 H 0.22439 0.28649 0.00398 0.0
H1619 H 0.15106 0.23265 0.04018 0.0
H1620 H 0.19544 0.22414 0.05305 0.0
H1621 H 0.1509 0.29455 0.02956 0.0
H1622 H 0.14444 0.18703 0.01097 0.0
H1623 H 0.16994 0.1532 0.99964 0.0
H1624 H 0.19882 0.21864 0.96019 0.0
H1625 H 0.17397 0.25324 0.97141 0.0
C1626 C 0.00771 0.24827 0.98963 0.0
C1627 C 0.00942 0.25338 0.974 0.0
C1628 C 0.03735 0.25245 0.9975 0.0
C1629 C 0.06939 0.26272 0.98992 0.0
C1630 C 0.07133 0.2693 0.9744 0.0
C1631 C 0.04164 0.26446 0.96652 0.0
C1632 C 0.10017 0.2643 0.99783 0.0
C1633 C 0.11575 0.24572 0.99162 0.0
C1634 C 0.11333 0.28257 0.0116 0.0
C1635 C 0.09988 0.30477 0.01823 0.0
C1636 C 0.09946 0.33172 0.00972 0.0
C1637 C 0.08649 0.35237 0.01597 0.0
C1638 C 0.07407 0.34649 0.03078 0.0
C1639 C 0.0747 0.32001 0.03937 0.0
C1640 C 0.08762 0.29926 0.03316 0.0
C1641 C 0.24395 0.26879 0.02221 0.0
C1642 C 0.23623 0.25078 0.03605 0.0
C1643 C 0.2182 0.2733 0.0148 0.0
C1644 C 0.18444 0.26014 0.02116 0.0
C1645 C 0.17703 0.2432 0.03516 0.0
C1646 C 0.20251 0.23828 0.04246 0.0
C1647 C 0.15593 0.26174 0.01283 0.0
C1648 C 0.14074 0.28062 0.01902 0.0
C1649 C 0.14333 0.24414 0.99895 0.0
C1650 C 0.1577 0.22295 0.99209 0.0
C1651 C 0.15646 0.19437 0.99993 0.0
C1652 C 0.17077 0.17503 0.99352 0.0
C1653 C 0.18609 0.18383 0.97922 0.0
C1654 C 0.18701 0.2119 0.97128 0.0
C1655 C 0.1728 0.23137 0.97765 0.0
H1656 H 0.19717 0.16884 0.97428 0.0
H1657 H 0.06403 0.3625 0.03561 0.0
H1658 H 0.73254 0.00635 0.32308 0.0
H1659 H 0.7773 0.05698 0.33747 0.0
H1660 H 0.85378 0.07871 0.30234 0.0
H1661 H 0.8102 0.02815 0.28828 0.0
H1662 H 0.8818 0.07988 0.32803 0.0
H1663 H 0.81417 0.12989 0.30786 0.0
H1664 H 0.76007 0.13298 0.30327 0.0
H1665 H 0.74685 0.13974 0.35079 0.0
H1666 H 0.80063 0.1362 0.35567 0.0
H1667 H 0.99148 0.27473 0.35108 0.0
H1668 H 0.93885 0.22789 0.33857 0.0
H1669 H 0.93255 0.15264 0.37161 0.0
H1670 H 0.98502 0.19878 0.38406 0.0
H1671 H 0.86882 0.17953 0.34719 0.0
H1672 H 0.91699 0.0786 0.35295 0.0
H1673 H 0.97318 0.07847 0.35573 0.0
H1674 H 0.02864 0.17851 0.33299 0.0
H1675 H 0.97273 0.17895 0.32986 0.0
C1676 C 0.75883 0.02211 0.31839 0.0
C1677 C 0.76764 0.0131 0.30449 0.0
C1678 C 0.78435 0.0511 0.3266 0.0
C1679 C 0.81891 0.07174 0.32096 0.0
C1680 C 0.82739 0.06312 0.30698 0.0
C1681 C 0.80221 0.03417 0.29889 0.0
C1682 C 0.84703 0.10151 0.32969 0.0
C1683 C 0.8788 0.10155 0.33225 0.0
C1684 C 0.84341 0.13008 0.33506 0.0
C1685 C 0.81121 0.13241 0.33214 0.0
C1686 C 0.79957 0.13177 0.31734 0.0
C1687 C 0.76899 0.13364 0.31468 0.0
C1688 C 0.74998 0.13645 0.32673 0.0
C1689 C 0.76157 0.1375 0.34146 0.0
C1690 C 0.79211 0.13559 0.34418 0.0
C1691 C 0.97869 0.2483 0.35578 0.0
C1692 C 0.99278 0.24051 0.3685 0.0
C1693 C 0.9485 0.22163 0.34866 0.0
C1694 C 0.93204 0.1868 0.3541 0.0
C1695 C 0.94507 0.17932 0.36716 0.0
C1696 C 0.97517 0.20581 0.37425 0.0
C1697 C 0.90324 0.1576 0.34547 0.0
C1698 C 0.87151 0.15766 0.34301 0.0
C1699 C 0.90707 0.12941 0.33985 0.0
C1700 C 0.94072 0.12895 0.34133 0.0
C1701 C 0.94115 0.10047 0.34848 0.0
C1702 C 0.97296 0.10036 0.35012 0.0
C1703 C 0.00448 0.12852 0.34459 0.0
C1704 C 0.00423 0.15677 0.33732 0.0
C1705 C 0.9725 0.15697 0.33562 0.0
H1706 H 0.02907 0.12841 0.3459 0.0
H1707 H 0.72631 0.1379 0.32465 0.0
H1708 H 0.7083 0.73057 0.6479 0.0
H1709 H 0.69999 0.77499 0.66158 0.0
H1710 H 0.81195 0.84894 0.65839 0.0
H1711 H 0.82019 0.80534 0.6445 0.0
H1712 H 0.78008 0.84539 0.68769 0.0
H1713 H 0.76844 0.86328 0.6344 0.0
H1714 H 0.74309 0.84379 0.60912 0.0
H1715 H 0.63886 0.8078 0.62674 0.0
H1716 H 0.66384 0.82749 0.65217 0.0
H1717 H 0.81884 0.01807 0.69653 0.0
H1718 H 0.81146 0.96376 0.68544 0.0
H1719 H 0.69814 0.91933 0.68533 0.0
H1720 H 0.70565 0.97471 0.69599 0.0
H1721 H 0.7202 0.90009 0.66044 0.0
H1722 H 0.73859 0.89842 0.71354 0.0
H1723 H 0.76934 0.92409 0.73747 0.0
H1724 H 0.86438 0.93147 0.71989 0.0
H1725 H 0.83439 0.90614 0.6958 0.0
C1726 C 0.7311 0.75613 0.65037 0.0
C1727 C 0.76485 0.76466 0.64515 0.0
C1728 C 0.72634 0.78144 0.6581 0.0
C1729 C 0.7554 0.81517 0.66096 0.0
C1730 C 0.78925 0.82302 0.65633 0.0
C1731 C 0.79388 0.79816 0.64836 0.0
C1732 C 0.75077 0.84339 0.66791 0.0
C1733 C 0.76683 0.85728 0.68181 0.0
C1734 C 0.73307 0.85847 0.66031 0.0
C1735 C 0.71789 0.84641 0.64516 0.0
C1736 C 0.74009 0.85096 0.63289 0.0
C1737 C 0.72581 0.83996 0.61853 0.0
C1738 C 0.68932 0.82427 0.61633 0.0
C1739 C 0.6671 0.81983 0.62847 0.0
C1740 C 0.68131 0.83102 0.64285 0.0
C1741 C 0.79237 0.99691 0.69393 0.0
C1742 C 0.76276 1.00034 0.6972 0.0
C1743 C 0.78815 0.9658 0.6877 0.0
C1744 C 0.75418 0.93704 0.68502 0.0
C1745 C 0.72457 0.94107 0.68748 0.0
C1746 C 0.72885 0.97266 0.69349 0.0
C1747 C 0.75008 0.90267 0.68015 0.0
C1748 C 0.73247 0.88762 0.66662 0.0
C1749 C 0.76655 0.88661 0.6881 0.0
C1750 C 0.78423 0.90045 0.70282 0.0
C1751 C 0.76605 0.90554 0.71476 0.0
C1752 C 0.78336 0.92009 0.72835 0.0
C1753 C 0.81879 0.92953 0.73017 0.0
C1754 C 0.83693 0.92416 0.71845 0.0
C1755 C 0.81976 0.9096 0.70484 0.0
H1756 H 0.83217 0.94095 0.74067 0.0
H1757 H 0.67829 0.81569 0.6052 0.0
H1758 H 0.74031 0.7038 0.03555 0.0
H1759 H 0.78511 0.69524 0.02256 0.0
H1760 H 0.81839 0.79158 0.99755 0.0
H1761 H 0.77342 0.79996 0.01053 0.0
H1762 H 0.82087 0.73879 0.98044 0.0
H1763 H 0.85936 0.79557 0.02906 0.0
H1764 H 0.85339 0.79922 0.05648 0.0
H1765 H 0.85498 0.70252 0.06254 0.0
H1766 H 0.86056 0.69803 0.0351 0.0
H1767 H 0.99908 0.80663 0.96359 0.0
H1768 H 0.94347 0.79686 0.97402 0.0
H1769 H 0.93034 0.70492 0.99777 0.0
H1770 H 0.98676 0.71475 0.98746 0.0
H1771 H 0.91316 0.746 0.01525 0.0
H1772 H 0.883 0.69382 0.96655 0.0
H1773 H 0.88988 0.69134 0.93914 0.0
H1774 H 0.87265 0.77913 0.93307 0.0
H1775 H 0.86616 0.78248 0.96048 0.0
C1776 C 0.75639 0.72233 0.02687 0.0
C1777 C 0.75336 0.75219 0.02378 0.0
C1778 C 0.78207 0.71762 0.01956 0.0
C1779 C 0.80526 0.74297 0.00921 0.0
C1780 C 0.80066 0.77166 0.00545 0.0
C1781 C 0.77501 0.77641 0.0128 0.0
C1782 C 0.83662 0.74182 0.00357 0.0
C1783 C 0.84111 0.74045 0.98802 0.0
C1784 C 0.86262 0.74322 0.01352 0.0
C1785 C 0.86004 0.74628 0.03003 0.0
C1786 C 0.85827 0.77499 0.03623 0.0
C1787 C 0.855 0.77725 0.05177 0.0
C1788 C 0.85376 0.75112 0.06124 0.0
C1789 C 0.85593 0.72273 0.05519 0.0
C1790 C 0.85918 0.72033 0.03964 0.0
C1791 C 0.98455 0.78428 0.97104 0.0
C1792 C 0.99733 0.76125 0.97456 0.0
C1793 C 0.95259 0.77868 0.97695 0.0
C1794 C 0.9324 0.74976 0.98642 0.0
C1795 C 0.94543 0.72725 0.99038 0.0
C1796 C 0.97763 0.7329 0.98447 0.0
C1797 C 0.89774 0.74347 0.99208 0.0
C1798 C 0.89266 0.7436 0.00765 0.0
C1799 C 0.8712 0.74091 0.98214 0.0
C1800 C 0.87428 0.73852 0.9656 0.0
C1801 C 0.88084 0.71271 0.95938 0.0
C1802 C 0.88466 0.71114 0.94384 0.0
C1803 C 0.88177 0.7351 0.93437 0.0
C1804 C 0.87489 0.76059 0.94042 0.0
C1805 C 0.87107 0.76229 0.95596 0.0
H1806 H 0.88482 0.73389 0.92234 0.0
H1807 H 0.85111 0.75288 0.07327 0.0
H1808 H 0.0043 0.81365 0.37128 0.0
H1809 H 0.05839 0.85676 0.35854 0.0
H1810 H 0.08339 0.77515 0.3485 0.0
H1811 H 0.02848 0.73121 0.361 0.0
H1812 H 0.14093 0.85526 0.36316 0.0
H1813 H 0.06547 0.78753 0.32108 0.0
H1814 H 0.00761 0.75746 0.30829 0.0
H1815 H 0.00598 0.85494 0.30704 0.0
H1816 H 0.06353 0.88541 0.32011 0.0
H1817 H 0.27885 0.98098 0.31405 0.0
H1818 H 0.23387 0.92639 0.32629 0.0
H1819 H 0.15681 0.95988 0.32049 0.0
H1820 H 0.20095 0.01331 0.30787 0.0
H1821 H 0.12861 0.89508 0.31241 0.0
H1822 H 0.19773 0.96237 0.35519 0.0
H1823 H 0.25225 0.99539 0.37014 0.0
H1824 H 0.26387 0.90345 0.37201 0.0
H1825 H 0.20964 0.87002 0.35688 0.0
C1826 C 0.02125 0.80474 0.3664 0.0
C1827 C 0.01202 0.76896 0.36707 0.0
C1828 C 0.05218 0.82946 0.35918 0.0
C1829 C 0.07475 0.81904 0.35267 0.0
C1830 C 0.06619 0.78356 0.35353 0.0
C1831 C 0.03478 0.75855 0.36056 0.0
C1832 C 0.10623 0.84547 0.34437 0.0
C1833 C 0.13871 0.86352 0.3519 0.0
C1834 C 0.10273 0.85665 0.32991 0.0
C1835 C 0.06863 0.83864 0.32168 0.0
C1836 C 0.05263 0.80247 0.31819 0.0
C1837 C 0.01992 0.78537 0.31087 0.0
C1838 C 1.0031 0.80427 0.30688 0.0
C1839 C 0.01903 0.84033 0.31015 0.0
C1840 C 0.0517 0.85753 0.3175 0.0
C1841 C 0.25238 0.97675 0.31558 0.0
C1842 C 0.24335 1.0013 0.30999 0.0
C1843 C 0.2267 0.94558 0.32255 0.0
C1844 C 0.19186 0.93895 0.32432 0.0
C1845 C 0.18332 0.96411 0.31912 0.0
C1846 C 0.20866 0.99477 0.31197 0.0
C1847 C 0.1637 0.90571 0.33125 0.0
C1848 C 0.13153 0.88643 0.32348 0.0
C1849 C 0.16745 0.89384 0.3456 0.0
C1850 C 0.19991 0.91384 0.35475 0.0
C1851 C 0.21207 0.94929 0.35869 0.0
C1852 C 0.24289 0.96806 0.36721 0.0
C1853 C 0.26158 0.95156 0.37198 0.0
C1854 C 0.24941 0.91621 0.36828 0.0
C1855 C 0.21864 0.89734 0.35973 0.0
H1856 H 0.28543 0.96613 0.37857 0.0
H1857 H 0.97776 0.79098 0.30123 0.0
H1858 H 0.18981 0.98887 0.70225 0.0
H1859 H 0.19755 0.04036 0.68844 0.0
H1860 H 0.3038 0.06685 0.67651 0.0
H1861 H 0.29618 0.01468 0.69041 0.0
H1862 H 0.2947 0.12468 0.68894 0.0
H1863 H 0.24783 0.03621 0.64982 0.0
H1864 H 0.20544 0.97713 0.63992 0.0
H1865 H 0.11969 0.99663 0.64799 0.0
H1866 H 0.16152 0.05569 0.65809 0.0
H1867 H 0.30348 0.2643 0.64318 0.0
H1868 H 0.30919 0.21517 0.65338 0.0
H1869 H 0.19538 0.15192 0.65681 0.0
H1870 H 0.18982 0.20001 0.64573 0.0
H1871 H 0.21651 0.11294 0.64624 0.0
H1872 H 0.25569 0.19354 0.68812 0.0
H1873 H 0.29253 0.25027 0.70115 0.0
H1874 H 0.38567 0.24406 0.69148 0.0
H1875 H 0.3494 0.18748 0.67822 0.0
C1876 C 0.21483 0.00547 0.69666 0.0
C1877 C 0.24245 0.99774 0.69744 0.0
C1878 C 0.21915 0.03486 0.68874 0.0
C1879 C 0.25119 0.05729 0.68145 0.0
C1880 C 0.27887 0.04973 0.68208 0.0
C1881 C 0.27441 0.01989 0.68991 0.0
C1882 C 0.25527 0.0888 0.67343 0.0
C1883 C 0.27828 0.12238 0.67937 0.0
C1884 C 0.2329 0.08542 0.6613 0.0
C1885 C 0.20784 0.05037 0.65474 0.0
C1886 C 0.21993 0.02788 0.64951 0.0
C1887 C 0.196 0.9944 0.64385 0.0
C1888 C 0.1599 0.98316 0.6433 0.0
C1889 C 0.14767 0.00543 0.64836 0.0
C1890 C 0.17149 0.03894 0.65403 0.0
C1891 C 0.27984 0.23997 0.64631 0.0
C1892 C 0.24625 0.23582 0.64378 0.0
C1893 C 0.28305 0.21191 0.65215 0.0
C1894 C 0.25272 0.17975 0.65602 0.0
C1895 C 0.21922 0.17622 0.65383 0.0
C1896 C 0.21602 0.20378 0.6476 0.0
C1897 C 0.25532 0.14924 0.66199 0.0
C1898 C 0.23352 0.11567 0.65563 0.0
C1899 C 0.27808 0.15258 0.67403 0.0
C1900 C 0.2999 0.18652 0.68203 0.0
C1901 C 0.28406 0.20441 0.68868 0.0
C1902 C 0.30483 0.23651 0.69612 0.0
C1903 C 0.34143 0.25081 0.6971 0.0
C1904 C 0.35733 0.23298 0.69069 0.0
C1905 C 0.33668 0.2009 0.68321 0.0
H1906 H 0.35747 0.27567 0.70286 0.0
H1907 H 0.14139 0.95717 0.63898 0.0
loop_
_geom_bond_atom_site_label_1
_geom_bond_atom_site_label_2
_geom_bond_distance
_geom_bond_site_symmetry_2
_ccdc_geom_bond_type
Co0 O2 2.143 . S
Co0 O8 2.074 . S
Co0 O11 2.093 . S
Co0 O24 2.097 . S
Co0 N41 2.151 . S
Co0 N49 2.214 . S
Co1 O2 2.160 . S
Co1 O7 2.058 . S
Co1 O17 2.057 . S
Co1 O32 2.037 . S
Co1 N36 2.145 . S
Co1 N57 2.257 . S
O2 Co0 2.143 . S
O2 Co1 2.160 . S
C3 O4 1.278 . S
C3 O11 1.224 . S
O4 C3 1.278 . S
C5 O6 1.245 . S
C5 O17 1.232 . S
O6 C5 1.245 . S
O7 Co1 2.058 . S
O7 C33 1.269 . S
O8 Co0 2.074 . S
O8 C33 1.257 . S
H9 C34 0.930 . S
H10 C40 0.930 . S
O11 Co0 2.093 . S
O11 C3 1.224 . S
H12 C44 0.929 . S
H13 C46 0.930 . S
H14 C47 0.930 . S
H15 C45 0.929 . S
H16 C48 0.928 . S
O17 Co1 2.057 . S
O17 C5 1.232 . S
H18 C37 0.929 . S
H19 C38 0.929 . S
H20 C50 0.931 . S
H21 C42 0.929 . S
H22 C51 0.930 . S
H23 C43 0.931 . S
O24 Co0 2.097 . S
O24 C52 1.214 . S
H25 C53 0.929 . S
H26 C54 0.929 . S
H27 C55 0.930 . S
H28 C56 0.929 . S
H29 C58 0.930 . S
H30 C35 0.930 . S
H31 C39 0.930 . S
O32 Co1 2.037 . S
O32 C52 1.234 . S
C33 O7 1.269 . S
C33 O8 1.257 . S
C34 H9 0.930 . S
C34 C37 1.388 . S
C34 C39 1.418 . S
C35 H30 0.930 . S
C35 C38 1.404 . S
C35 C39 1.353 . S
N36 Co1 2.145 . S
N36 C37 1.397 . S
N36 C38 1.334 . S
C37 H18 0.929 . S
C37 C34 1.388 . S
C37 N36 1.397 . S
C38 H19 0.929 . S
C38 C35 1.404 . S
C38 N36 1.334 . S
C39 H31 0.930 . S
C39 C34 1.418 . S
C39 C35 1.353 . S
C40 H10 0.930 . S
C40 N41 1.330 . S
C40 C42 1.446 . S
N41 Co0 2.151 . S
N41 C40 1.330 . S
N41 C45 1.418 . S
C42 H21 0.929 . S
C42 C40 1.446 . S
C42 C43 1.332 . S
C43 H23 0.931 . S
C43 C42 1.332 . S
C43 C44 1.267 . S
C44 H12 0.929 . S
C44 C43 1.267 . S
C44 C45 1.251 . S
C45 H15 0.929 . S
C45 N41 1.418 . S
C45 C44 1.251 . S
C46 H13 0.930 . S
C46 C48 1.406 1_556 S
C46 C51 1.261 . S
C47 H14 0.930 . S
C47 N49 1.325 . S
C47 C50 1.357 1_554 S
C48 H16 0.928 . S
C48 C46 1.406 1_554 S
C48 N49 1.261 . S
N49 Co0 2.214 . S
N49 C47 1.325 . S
N49 C48 1.261 . S
C50 H20 0.931 . S
C50 C47 1.357 1_556 S
C50 C51 1.312 . S
C51 H22 0.930 . S
C51 C46 1.261 . S
C51 C50 1.312 . S
C52 O24 1.214 . S
C52 O32 1.234 . S
C53 H25 0.929 . S
C53 C56 1.391 . S
C53 C58 1.391 . S
C54 H26 0.929 . S
C54 C55 1.390 . S
C54 N57 1.391 . S
C55 H27 0.930 . S
C55 C54 1.390 . S
C55 C56 1.392 . S
C56 H28 0.929 . S
C56 C53 1.391 . S
C56 C55 1.392 . S
N57 Co1 2.257 . S
N57 C54 1.391 . S
N57 C58 1.388 . S
C58 H29 0.930 . S
C58 C53 1.391 . S
C58 N57 1.388 . S
Co59 O61 2.143 . S
Co59 O67 2.074 . S
Co59 O70 2.093 . S
Co59 O83 2.097 . S
Co59 N100 2.151 . S
Co59 N108 2.214 . S
Co60 O61 2.160 . S
Co60 O66 2.058 . S
Co60 O76 2.057 . S
Co60 O91 2.037 . S
Co60 N95 2.145 . S
Co60 N116 2.257 . S
O61 Co59 2.143 . S
O61 Co60 2.160 . S
C62 O63 1.278 . S
C62 O70 1.224 . S
O63 C62 1.278 . S
C64 O65 1.245 . S
C64 O76 1.232 . S
O65 C64 1.245 . S
O66 Co60 2.058 . S
O66 C92 1.269 . S
O67 Co59 2.074 . S
O67 C92 1.257 . S
H68 C93 0.930 . S
H69 C99 0.930 . S
O70 Co59 2.093 . S
O70 C62 1.224 . S
H71 C103 0.929 . S
H72 C105 0.930 . S
H73 C106 0.930 . S
H74 C104 0.929 . S
H75 C107 0.928 . S
O76 Co60 2.057 . S
O76 C64 1.232 . S
H77 C96 0.929 . S
H78 C97 0.929 . S
H79 C109 0.931 . S
H80 C101 0.929 . S
H81 C110 0.930 . S
H82 C102 0.931 . S
O83 Co59 2.097 . S
O83 C111 1.214 . S
H84 C112 0.929 1_455 S
H85 C113 0.929 . S
H86 C114 0.930 . S
H87 C115 0.929 . S
H88 C117 0.930 . S
H89 C94 0.930 . S
H90 C98 0.930 . S
O91 Co60 2.037 . S
O91 C111 1.234 . S
C92 O66 1.269 . S
C92 O67 1.257 . S
C93 H68 0.930 . S
C93 C96 1.388 . S
C93 C98 1.418 . S
C94 H89 0.930 . S
C94 C97 1.404 . S
C94 C98 1.353 . S
N95 Co60 2.145 . S
N95 C96 1.397 . S
N95 C97 1.334 . S
C96 H77 0.929 . S
C96 C93 1.388 . S
C96 N95 1.397 . S
C97 H78 0.929 . S
C97 C94 1.404 . S
C97 N95 1.334 . S
C98 H90 0.930 . S
C98 C93 1.418 . S
C98 C94 1.353 . S
C99 H69 0.930 . S
C99 N100 1.330 . S
C99 C101 1.446 . S
N100 Co59 2.151 . S
N100 C99 1.330 . S
N100 C104 1.418 . S
C101 H80 0.929 . S
C101 C99 1.446 . S
C101 C102 1.332 . S
C102 H82 0.931 . S
C102 C101 1.332 . S
C102 C103 1.267 . S
C103 H71 0.929 . S
C103 C102 1.267 . S
C103 C104 1.251 . S
C104 H74 0.929 . S
C104 N100 1.418 . S
C104 C103 1.251 . S
C105 H72 0.930 . S
C105 C107 1.406 . S
C105 C110 1.261 . S
C106 H73 0.930 . S
C106 N108 1.325 . S
C106 C109 1.357 . S
C107 H75 0.928 . S
C107 C105 1.406 . S
C107 N108 1.261 . S
N108 Co59 2.214 . S
N108 C106 1.325 . S
N108 C107 1.261 . S
C109 H79 0.931 . S
C109 C106 1.357 . S
C109 C110 1.312 . S
C110 H81 0.930 . S
C110 C105 1.261 . S
C110 C109 1.312 . S
C111 O83 1.214 . S
C111 O91 1.234 . S
C112 H84 0.929 1_655 S
C112 C115 1.391 . S
C112 C117 1.391 1_655 S
C113 H85 0.929 . S
C113 C114 1.390 . S
C113 N116 1.391 1_655 S
C114 H86 0.930 . S
C114 C113 1.390 . S
C114 C115 1.392 . S
C115 H87 0.929 . S
C115 C112 1.391 . S
C115 C114 1.392 . S
N116 Co60 2.257 . S
N116 C113 1.391 1_455 S
N116 C117 1.388 . S
C117 H88 0.930 . S
C117 C112 1.391 1_455 S
C117 N116 1.388 . S
Co118 O120 2.143 . S
Co118 O126 2.074 . S
Co118 O129 2.093 . S
Co118 O142 2.097 . S
Co118 N159 2.151 . S
Co118 N167 2.214 . S
Co119 O120 2.160 . S
Co119 O125 2.058 . S
Co119 O135 2.057 . S
Co119 O150 2.037 . S
Co119 N154 2.145 . S
Co119 N175 2.257 . S
O120 Co118 2.143 . S
O120 Co119 2.160 . S
C121 O122 1.278 . S
C121 O129 1.224 . S
O122 C121 1.278 . S
C123 O124 1.245 . S
C123 O135 1.232 . S
O124 C123 1.245 . S
O125 Co119 2.058 . S
O125 C151 1.269 . S
O126 Co118 2.074 . S
O126 C151 1.257 . S
H127 C152 0.930 . S
H128 C158 0.930 . S
O129 Co118 2.093 . S
O129 C121 1.224 . S
H130 C162 0.929 . S
H131 C164 0.930 . S
H132 C165 0.930 . S
H133 C163 0.929 . S
H134 C166 0.928 . S
O135 Co119 2.057 . S
O135 C123 1.232 . S
H136 C155 0.929 . S
H137 C156 0.929 . S
H138 C168 0.931 . S
H139 C160 0.929 . S
H140 C169 0.930 . S
H141 C161 0.931 . S
O142 Co118 2.097 . S
O142 C170 1.214 . S
H143 C171 0.929 1_545 S
H144 C172 0.929 . S
H145 C173 0.930 . S
H146 C174 0.929 . S
H147 C176 0.930 . S
H148 C153 0.930 . S
H149 C157 0.930 . S
O150 Co119 2.037 . S
O150 C170 1.234 . S
C151 O125 1.269 . S
C151 O126 1.257 . S
C152 H127 0.930 . S
C152 C155 1.388 . S
C152 C157 1.418 . S
C153 H148 0.930 . S
C153 C156 1.404 . S
C153 C157 1.353 . S
N154 Co119 2.145 . S
N154 C155 1.397 . S
N154 C156 1.334 . S
C155 H136 0.929 . S
C155 C152 1.388 . S
C155 N154 1.397 . S
C156 H137 0.929 . S
C156 C153 1.404 . S
C156 N154 1.334 . S
C157 H149 0.930 . S
C157 C152 1.418 . S
C157 C153 1.353 . S
C158 H128 0.930 . S
C158 N159 1.330 . S
C158 C160 1.446 . S
N159 Co118 2.151 . S
N159 C158 1.330 . S
N159 C163 1.418 . S
C160 H139 0.929 . S
C160 C158 1.446 . S
C160 C161 1.332 . S
C161 H141 0.931 . S
C161 C160 1.332 . S
C161 C162 1.267 . S
C162 H130 0.929 . S
C162 C161 1.267 . S
C162 C163 1.251 . S
C163 H133 0.929 . S
C163 N159 1.418 . S
C163 C162 1.251 . S
C164 H131 0.930 . S
C164 C166 1.406 . S
C164 C169 1.261 . S
C165 H132 0.930 . S
C165 N167 1.325 . S
C165 C168 1.357 . S
C166 H134 0.928 . S
C166 C164 1.406 . S
C166 N167 1.261 . S
N167 Co118 2.214 . S
N167 C165 1.325 . S
N167 C166 1.261 . S
C168 H138 0.931 . S
C168 C165 1.357 . S
C168 C169 1.312 . S
C169 H140 0.930 . S
C169 C164 1.261 . S
C169 C168 1.312 . S
C170 O142 1.214 . S
C170 O150 1.234 . S
C171 H143 0.929 1_565 S
C171 C174 1.391 . S
C171 C176 1.391 1_565 S
C172 H144 0.929 . S
C172 C173 1.390 . S
C172 N175 1.391 1_565 S
C173 H145 0.930 . S
C173 C172 1.390 . S
C173 C174 1.392 . S
C174 H146 0.929 . S
C174 C171 1.391 . S
C174 C173 1.392 . S
N175 Co119 2.257 . S
N175 C172 1.391 1_545 S
N175 C176 1.388 . S
C176 H147 0.930 . S
C176 C171 1.391 1_545 S
C176 N175 1.388 . S
Co177 O179 2.143 . S
Co177 O185 2.074 . S
Co177 O188 2.093 . S
Co177 O201 2.097 . S
Co177 N218 2.151 . S
Co177 N226 2.214 . S
Co178 O179 2.160 . S
Co178 O184 2.058 . S
Co178 O194 2.057 . S
Co178 O209 2.037 . S
Co178 N213 2.145 . S
Co178 N234 2.257 . S
O179 Co177 2.143 . S
O179 Co178 2.160 . S
C180 O181 1.278 . S
C180 O188 1.224 . S
O181 C180 1.278 . S
C182 O183 1.245 . S
C182 O194 1.232 . S
O183 C182 1.245 . S
O184 Co178 2.058 . S
O184 C210 1.269 . S
O185 Co177 2.074 . S
O185 C210 1.257 . S
H186 C211 0.930 . S
H187 C217 0.930 . S
O188 Co177 2.093 . S
O188 C180 1.224 . S
H189 C221 0.929 . S
H190 C223 0.930 . S
H191 C224 0.930 . S
H192 C222 0.929 . S
H193 C225 0.928 . S
O194 Co178 2.057 . S
O194 C182 1.232 . S
H195 C214 0.929 . S
H196 C215 0.929 . S
H197 C227 0.931 . S
H198 C219 0.929 . S
H199 C228 0.930 . S
H200 C220 0.931 . S
O201 Co177 2.097 . S
O201 C229 1.214 . S
H202 C230 0.929 . S
H203 C231 0.929 . S
H204 C232 0.930 . S
H205 C233 0.929 . S
H206 C235 0.930 . S
H207 C212 0.930 . S
H208 C216 0.930 . S
O209 Co178 2.037 . S
O209 C229 1.234 . S
C210 O184 1.269 . S
C210 O185 1.257 . S
C211 H186 0.930 . S
C211 C214 1.388 . S
C211 C216 1.418 . S
C212 H207 0.930 . S
C212 C215 1.404 . S
C212 C216 1.353 . S
N213 Co178 2.145 . S
N213 C214 1.397 . S
N213 C215 1.334 . S
C214 H195 0.929 . S
C214 C211 1.388 . S
C214 N213 1.397 . S
C215 H196 0.929 . S
C215 C212 1.404 . S
C215 N213 1.334 . S
C216 H208 0.930 . S
C216 C211 1.418 . S
C216 C212 1.353 . S
C217 H187 0.930 . S
C217 N218 1.330 . S
C217 C219 1.446 . S
N218 Co177 2.151 . S
N218 C217 1.330 . S
N218 C222 1.418 . S
C219 H198 0.929 . S
C219 C217 1.446 . S
C219 C220 1.332 . S
C220 H200 0.931 . S
C220 C219 1.332 . S
C220 C221 1.267 . S
C221 H189 0.929 . S
C221 C220 1.267 . S
C221 C222 1.251 . S
C222 H192 0.929 . S
C222 N218 1.418 . S
C222 C221 1.251 . S
C223 H190 0.930 . S
C223 C225 1.406 1_556 S
C223 C228 1.261 . S
C224 H191 0.930 . S
C224 N226 1.325 . S
C224 C227 1.357 1_554 S
C225 H193 0.928 . S
C225 C223 1.406 1_554 S
C225 N226 1.261 . S
N226 Co177 2.214 . S
N226 C224 1.325 . S
N226 C225 1.261 . S
C227 H197 0.931 . S
C227 C224 1.357 1_556 S
C227 C228 1.312 . S
C228 H199 0.930 . S
C228 C223 1.261 . S
C228 C227 1.312 . S
C229 O201 1.214 . S
C229 O209 1.234 . S
C230 H202 0.929 . S
C230 C233 1.391 . S
C230 C235 1.391 . S
C231 H203 0.929 . S
C231 C232 1.390 . S
C231 N234 1.391 . S
C232 H204 0.930 . S
C232 C231 1.390 . S
C232 C233 1.392 . S
C233 H205 0.929 . S
C233 C230 1.391 . S
C233 C232 1.392 . S
N234 Co178 2.257 . S
N234 C231 1.391 . S
N234 C235 1.388 . S
C235 H206 0.930 . S
C235 C230 1.391 . S
C235 N234 1.388 . S
Co236 O238 2.143 . S
Co236 O244 2.074 . S
Co236 O247 2.093 . S
Co236 O260 2.097 . S
Co236 N277 2.151 . S
Co236 N285 2.214 . S
Co237 O238 2.160 . S
Co237 O243 2.058 . S
Co237 O253 2.057 . S
Co237 O268 2.037 . S
Co237 N272 2.145 . S
Co237 N293 2.257 . S
O238 Co236 2.143 . S
O238 Co237 2.160 . S
C239 O240 1.278 . S
C239 O247 1.224 . S
O240 C239 1.278 . S
C241 O242 1.245 . S
C241 O253 1.232 . S
O242 C241 1.245 . S
O243 Co237 2.058 . S
O243 C269 1.269 . S
O244 Co236 2.074 . S
O244 C269 1.257 . S
H245 C270 0.930 . S
H246 C276 0.930 . S
O247 Co236 2.093 . S
O247 C239 1.224 . S
H248 C280 0.929 . S
H249 C282 0.930 . S
H250 C283 0.930 . S
H251 C281 0.929 . S
H252 C284 0.928 . S
O253 Co237 2.057 . S
O253 C241 1.232 . S
H254 C273 0.929 . S
H255 C274 0.929 . S
H256 C286 0.931 . S
H257 C278 0.929 . S
H258 C287 0.930 . S
H259 C279 0.931 . S
O260 Co236 2.097 . S
O260 C288 1.214 . S
H261 C289 0.929 1_655 S
H262 C290 0.929 . S
H263 C291 0.930 . S
H264 C292 0.929 . S
H265 C294 0.930 . S
H266 C271 0.930 . S
H267 C275 0.930 . S
O268 Co237 2.037 . S
O268 C288 1.234 . S
C269 O243 1.269 . S
C269 O244 1.257 . S
C270 H245 0.930 . S
C270 C273 1.388 . S
C270 C275 1.418 . S
C271 H266 0.930 . S
C271 C274 1.404 . S
C271 C275 1.353 . S
N272 Co237 2.145 . S
N272 C273 1.397 . S
N272 C274 1.334 . S
C273 H254 0.929 . S
C273 C270 1.388 . S
C273 N272 1.397 . S
C274 H255 0.929 . S
C274 C271 1.404 . S
C274 N272 1.334 . S
C275 H267 0.930 . S
C275 C270 1.418 . S
C275 C271 1.353 . S
C276 H246 0.930 . S
C276 N277 1.330 . S
C276 C278 1.446 . S
N277 Co236 2.151 . S
N277 C276 1.330 . S
N277 C281 1.418 . S
C278 H257 0.929 . S
C278 C276 1.446 . S
C278 C279 1.332 . S
C279 H259 0.931 . S
C279 C278 1.332 . S
C279 C280 1.267 . S
C280 H248 0.929 . S
C280 C279 1.267 . S
C280 C281 1.251 . S
C281 H251 0.929 . S
C281 N277 1.418 . S
C281 C280 1.251 . S
C282 H249 0.930 . S
C282 C284 1.406 . S
C282 C287 1.261 . S
C283 H250 0.930 . S
C283 N285 1.325 . S
C283 C286 1.357 . S
C284 H252 0.928 . S
C284 C282 1.406 . S
C284 N285 1.261 . S
N285 Co236 2.214 . S
N285 C283 1.325 . S
N285 C284 1.261 . S
C286 H256 0.931 . S
C286 C283 1.357 . S
C286 C287 1.312 . S
C287 H258 0.930 . S
C287 C282 1.261 . S
C287 C286 1.312 . S
C288 O260 1.214 . S
C288 O268 1.234 . S
C289 H261 0.929 1_455 S
C289 C292 1.391 . S
C289 C294 1.391 1_455 S
C290 H262 0.929 . S
C290 C291 1.390 . S
C290 N293 1.391 1_455 S
C291 H263 0.930 . S
C291 C290 1.390 . S
C291 C292 1.392 . S
C292 H264 0.929 . S
C292 C289 1.391 . S
C292 C291 1.392 . S
N293 Co237 2.257 . S
N293 C290 1.391 1_655 S
N293 C294 1.388 . S
C294 H265 0.930 . S
C294 C289 1.391 1_655 S
C294 N293 1.388 . S
Co295 O297 2.143 . S
Co295 O303 2.074 . S
Co295 O306 2.093 . S
Co295 O319 2.097 . S
Co295 N336 2.151 . S
Co295 N344 2.214 . S
Co296 O297 2.160 . S
Co296 O302 2.058 . S
Co296 O312 2.057 . S
Co296 O327 2.037 . S
Co296 N331 2.145 . S
Co296 N352 2.257 . S
O297 Co295 2.143 . S
O297 Co296 2.160 . S
C298 O299 1.278 . S
C298 O306 1.224 . S
O299 C298 1.278 . S
C300 O301 1.245 . S
C300 O312 1.232 . S
O301 C300 1.245 . S
O302 Co296 2.058 . S
O302 C328 1.269 . S
O303 Co295 2.074 . S
O303 C328 1.257 . S
H304 C329 0.930 . S
H305 C335 0.930 . S
O306 Co295 2.093 . S
O306 C298 1.224 . S
H307 C339 0.929 . S
H308 C341 0.930 . S
H309 C342 0.930 . S
H310 C340 0.929 . S
H311 C343 0.928 . S
O312 Co296 2.057 . S
O312 C300 1.232 . S
H313 C332 0.929 . S
H314 C333 0.929 . S
H315 C345 0.931 . S
H316 C337 0.929 . S
H317 C346 0.930 . S
H318 C338 0.931 . S
O319 Co295 2.097 . S
O319 C347 1.214 . S
H320 C348 0.929 1_565 S
H321 C349 0.929 . S
H322 C350 0.930 . S
H323 C351 0.929 . S
H324 C353 0.930 . S
H325 C330 0.930 . S
H326 C334 0.930 . S
O327 Co296 2.037 . S
O327 C347 1.234 . S
C328 O302 1.269 . S
C328 O303 1.257 . S
C329 H304 0.930 . S
C329 C332 1.388 . S
C329 C334 1.418 . S
C330 H325 0.930 . S
C330 C333 1.404 . S
C330 C334 1.353 . S
N331 Co296 2.145 . S
N331 C332 1.397 . S
N331 C333 1.334 . S
C332 H313 0.929 . S
C332 C329 1.388 . S
C332 N331 1.397 . S
C333 H314 0.929 . S
C333 C330 1.404 . S
C333 N331 1.334 . S
C334 H326 0.930 . S
C334 C329 1.418 . S
C334 C330 1.353 . S
C335 H305 0.930 . S
C335 N336 1.330 . S
C335 C337 1.446 . S
N336 Co295 2.151 . S
N336 C335 1.330 . S
N336 C340 1.418 . S
C337 H316 0.929 . S
C337 C335 1.446 . S
C337 C338 1.332 . S
C338 H318 0.931 . S
C338 C337 1.332 . S
C338 C339 1.267 . S
C339 H307 0.929 . S
C339 C338 1.267 . S
C339 C340 1.251 . S
C340 H310 0.929 . S
C340 N336 1.418 . S
C340 C339 1.251 . S
C341 H308 0.930 . S
C341 C343 1.406 . S
C341 C346 1.261 . S
C342 H309 0.930 . S
C342 N344 1.325 . S
C342 C345 1.357 . S
C343 H311 0.928 . S
C343 C341 1.406 . S
C343 N344 1.261 . S
N344 Co295 2.214 . S
N344 C342 1.325 . S
N344 C343 1.261 . S
C345 H315 0.931 . S
C345 C342 1.357 . S
C345 C346 1.312 . S
C346 H317 0.930 . S
C346 C341 1.261 . S
C346 C345 1.312 . S
C347 O319 1.214 . S
C347 O327 1.234 . S
C348 H320 0.929 1_545 S
C348 C351 1.391 . S
C348 C353 1.391 1_545 S
C349 H321 0.929 . S
C349 C350 1.390 . S
C349 N352 1.391 1_545 S
C350 H322 0.930 . S
C350 C349 1.390 . S
C350 C351 1.392 . S
C351 H323 0.929 . S
C351 C348 1.391 . S
C351 C350 1.392 . S
N352 Co296 2.257 . S
N352 C349 1.391 1_565 S
N352 C353 1.388 . S
C353 H324 0.930 . S
C353 C348 1.391 1_565 S
C353 N352 1.388 . S
Co354 O356 2.143 . S
Co354 O362 2.074 . S
Co354 O365 2.093 . S
Co354 O378 2.097 . S
Co354 N395 2.151 . S
Co354 N403 2.214 . S
Co355 O356 2.160 . S
Co355 O361 2.058 . S
Co355 O371 2.057 . S
Co355 O386 2.037 . S
Co355 N390 2.145 . S
Co355 N411 2.257 . S
O356 Co354 2.143 . S
O356 Co355 2.160 . S
C357 O358 1.278 . S
C357 O365 1.224 . S
O358 C357 1.278 . S
C359 O360 1.245 . S
C359 O371 1.232 . S
O360 C359 1.245 . S
O361 Co355 2.058 . S
O361 C387 1.269 . S
O362 Co354 2.074 . S
O362 C387 1.257 . S
H363 C388 0.930 . S
H364 C394 0.930 . S
O365 Co354 2.093 . S
O365 C357 1.224 . S
H366 C398 0.929 . S
H367 C400 0.930 . S
H368 C401 0.930 . S
H369 C399 0.929 . S
H370 C402 0.928 . S
O371 Co355 2.057 . S
O371 C359 1.232 . S
H372 C391 0.929 . S
H373 C392 0.929 . S
H374 C404 0.931 . S
H375 C396 0.929 . S
H376 C405 0.930 . S
H377 C397 0.931 . S
O378 Co354 2.097 . S
O378 C406 1.214 . S
H379 C407 0.929 . S
H380 C408 0.929 . S
H381 C409 0.930 . S
H382 C410 0.929 . S
H383 C412 0.930 . S
H384 C389 0.930 . S
H385 C393 0.930 . S
O386 Co355 2.037 . S
O386 C406 1.234 . S
C387 O361 1.269 . S
C387 O362 1.257 . S
C388 H363 0.930 . S
C388 C391 1.388 . S
C388 C393 1.418 . S
C389 H384 0.930 . S
C389 C392 1.404 . S
C389 C393 1.353 . S
N390 Co355 2.145 . S
N390 C391 1.397 . S
N390 C392 1.334 . S
C391 H372 0.929 . S
C391 C388 1.388 . S
C391 N390 1.397 . S
C392 H373 0.929 . S
C392 C389 1.404 . S
C392 N390 1.334 . S
C393 H385 0.930 . S
C393 C388 1.418 . S
C393 C389 1.353 . S
C394 H364 0.930 . S
C394 N395 1.330 . S
C394 C396 1.446 . S
N395 Co354 2.151 . S
N395 C394 1.330 . S
N395 C399 1.418 . S
C396 H375 0.929 . S
C396 C394 1.446 . S
C396 C397 1.332 . S
C397 H377 0.931 . S
C397 C396 1.332 . S
C397 C398 1.267 . S
C398 H366 0.929 . S
C398 C397 1.267 . S
C398 C399 1.251 . S
C399 H369 0.929 . S
C399 N395 1.418 . S
C399 C398 1.251 . S
C400 H367 0.930 . S
C400 C402 1.406 . S
C400 C405 1.261 . S
C401 H368 0.930 . S
C401 N403 1.325 . S
C401 C404 1.357 . S
C402 H370 0.928 . S
C402 C400 1.406 . S
C402 N403 1.261 . S
N403 Co354 2.214 . S
N403 C401 1.325 . S
N403 C402 1.261 . S
C404 H374 0.931 . S
C404 C401 1.357 . S
C404 C405 1.312 . S
C405 H376 0.930 . S
C405 C400 1.261 . S
C405 C404 1.312 . S
C406 O378 1.214 . S
C406 O386 1.234 . S
C407 H379 0.929 . S
C407 C410 1.391 . S
C407 C412 1.391 . S
C408 H380 0.929 . S
C408 C409 1.390 . S
C408 N411 1.391 . S
C409 H381 0.930 . S
C409 C408 1.390 . S
C409 C410 1.392 . S
C410 H382 0.929 . S
C410 C407 1.391 . S
C410 C409 1.392 . S
N411 Co355 2.257 . S
N411 C408 1.391 . S
N411 C412 1.388 . S
C412 H383 0.930 . S
C412 C407 1.391 . S
C412 N411 1.388 . S
Co413 O415 2.143 . S
Co413 O421 2.074 . S
Co413 O424 2.093 . S
Co413 O437 2.097 . S
Co413 N454 2.151 . S
Co413 N462 2.214 . S
Co414 O415 2.160 . S
Co414 O420 2.058 . S
Co414 O430 2.057 . S
Co414 O445 2.037 . S
Co414 N449 2.145 . S
Co414 N470 2.257 . S
O415 Co413 2.143 . S
O415 Co414 2.160 . S
C416 O417 1.278 . S
C416 O424 1.224 . S
O417 C416 1.278 . S
C418 O419 1.245 . S
C418 O430 1.232 . S
O419 C418 1.245 . S
O420 Co414 2.058 . S
O420 C446 1.269 . S
O421 Co413 2.074 . S
O421 C446 1.257 . S
H422 C447 0.930 . S
H423 C453 0.930 . S
O424 Co413 2.093 . S
O424 C416 1.224 . S
H425 C457 0.929 . S
H426 C459 0.930 . S
H427 C460 0.930 1_556 S
H428 C458 0.929 . S
H429 C461 0.947 . S
O430 Co414 2.057 . S
O430 C418 1.232 . S
H431 C450 0.929 . S
H432 C451 0.929 . S
H433 C463 0.931 . S
H434 C455 0.929 . S
H435 C464 0.930 . S
H436 C456 0.931 . S
O437 Co413 2.097 . S
O437 C465 1.214 . S
H438 C466 0.929 1_455 S
H439 C467 0.929 . S
H440 C468 0.930 . S
H441 C469 0.929 . S
H442 C471 0.930 . S
H443 C448 0.930 . S
H444 C452 0.930 . S
O445 Co414 2.037 . S
O445 C465 1.234 . S
C446 O420 1.269 . S
C446 O421 1.257 . S
C447 H422 0.930 . S
C447 C450 1.388 . S
C447 C452 1.418 . S
C448 H443 0.930 . S
C448 C451 1.404 . S
C448 C452 1.353 . S
N449 Co414 2.145 . S
N449 C450 1.397 . S
N449 C451 1.334 . S
C450 H431 0.929 . S
C450 C447 1.388 . S
C450 N449 1.397 . S
C451 H432 0.929 . S
C451 C448 1.404 . S
C451 N449 1.334 . S
C452 H444 0.930 . S
C452 C447 1.418 . S
C452 C448 1.353 . S
C453 H423 0.930 . S
C453 N454 1.330 . S
C453 C455 1.446 . S
N454 Co413 2.151 . S
N454 C453 1.330 . S
N454 C458 1.418 . S
C455 H434 0.929 . S
C455 C453 1.446 . S
C455 C456 1.332 . S
C456 H436 0.931 . S
C456 C455 1.332 . S
C456 C457 1.267 . S
C457 H425 0.929 . S
C457 C456 1.267 . S
C457 C458 1.251 . S
C458 H428 0.929 . S
C458 N454 1.418 . S
C458 C457 1.251 . S
C459 H426 0.930 . S
C459 C461 1.370 1_554 S
C459 C464 1.261 . S
C460 H427 0.930 1_554 S
C460 N462 1.325 1_554 S
C460 C463 1.357 . S
C461 H429 0.947 . S
C461 C459 1.370 1_556 S
C461 N462 1.279 . S
N462 Co413 2.214 . S
N462 C460 1.325 1_556 S
N462 C461 1.279 . S
C463 H433 0.931 . S
C463 C460 1.357 . S
C463 C464 1.312 . S
C464 H435 0.930 . S
C464 C459 1.261 . S
C464 C463 1.312 . S
C465 O437 1.214 . S
C465 O445 1.234 . S
C466 H438 0.929 1_655 S
C466 C469 1.391 . S
C466 C471 1.391 1_655 S
C467 H439 0.929 . S
C467 C468 1.390 . S
C467 N470 1.391 1_655 S
C468 H440 0.930 . S
C468 C467 1.390 . S
C468 C469 1.392 . S
C469 H441 0.929 . S
C469 C466 1.391 . S
C469 C468 1.392 . S
N470 Co414 2.257 . S
N470 C467 1.391 1_455 S
N470 C471 1.388 . S
C471 H442 0.930 . S
C471 C466 1.391 1_455 S
C471 N470 1.388 . S
Co472 O474 2.143 . S
Co472 O480 2.074 . S
Co472 O483 2.093 . S
Co472 O496 2.097 . S
Co472 N513 2.151 . S
Co472 N521 2.214 . S
Co473 O474 2.160 . S
Co473 O479 2.058 . S
Co473 O489 2.057 . S
Co473 O504 2.037 . S
Co473 N508 2.145 . S
Co473 N529 2.257 . S
O474 Co472 2.143 . S
O474 Co473 2.160 . S
C475 O476 1.278 . S
C475 O483 1.224 . S
O476 C475 1.278 . S
C477 O478 1.245 . S
C477 O489 1.232 . S
O478 C477 1.245 . S
O479 Co473 2.058 . S
O479 C505 1.269 . S
O480 Co472 2.074 . S
O480 C505 1.257 . S
H481 C506 0.930 . S
H482 C512 0.930 . S
O483 Co472 2.093 . S
O483 C475 1.224 . S
H484 C516 0.929 . S
H485 C518 0.930 . S
H486 C519 0.930 . S
H487 C517 0.929 . S
H488 C520 0.928 . S
O489 Co473 2.057 . S
O489 C477 1.232 . S
H490 C509 0.929 . S
H491 C510 0.929 . S
H492 C522 0.931 . S
H493 C514 0.929 . S
H494 C523 0.930 . S
H495 C515 0.931 . S
O496 Co472 2.097 . S
O496 C524 1.214 . S
H497 C525 0.929 1_545 S
H498 C526 0.929 . S
H499 C527 0.930 . S
H500 C528 0.929 . S
H501 C530 0.930 . S
H502 C507 0.930 . S
H503 C511 0.930 . S
O504 Co473 2.037 . S
O504 C524 1.234 . S
C505 O479 1.269 . S
C505 O480 1.257 . S
C506 H481 0.930 . S
C506 C509 1.388 . S
C506 C511 1.418 . S
C507 H502 0.930 . S
C507 C510 1.404 . S
C507 C511 1.353 . S
N508 Co473 2.145 . S
N508 C509 1.397 . S
N508 C510 1.334 . S
C509 H490 0.929 . S
C509 C506 1.388 . S
C509 N508 1.397 . S
C510 H491 0.929 . S
C510 C507 1.404 . S
C510 N508 1.334 . S
C511 H503 0.930 . S
C511 C506 1.418 . S
C511 C507 1.353 . S
C512 H482 0.930 . S
C512 N513 1.330 . S
C512 C514 1.446 . S
N513 Co472 2.151 . S
N513 C512 1.330 . S
N513 C517 1.418 . S
C514 H493 0.929 . S
C514 C512 1.446 . S
C514 C515 1.332 . S
C515 H495 0.931 . S
C515 C514 1.332 . S
C515 C516 1.267 . S
C516 H484 0.929 . S
C516 C515 1.267 . S
C516 C517 1.251 . S
C517 H487 0.929 . S
C517 N513 1.418 . S
C517 C516 1.251 . S
C518 H485 0.930 . S
C518 C520 1.406 . S
C518 C523 1.261 . S
C519 H486 0.930 . S
C519 N521 1.325 . S
C519 C522 1.357 . S
C520 H488 0.928 . S
C520 C518 1.406 . S
C520 N521 1.261 . S
N521 Co472 2.214 . S
N521 C519 1.325 . S
N521 C520 1.261 . S
C522 H492 0.931 . S
C522 C519 1.357 . S
C522 C523 1.312 . S
C523 H494 0.930 . S
C523 C518 1.261 . S
C523 C522 1.312 . S
C524 O496 1.214 . S
C524 O504 1.234 . S
C525 H497 0.929 1_565 S
C525 C528 1.391 . S
C525 C530 1.391 1_565 S
C526 H498 0.929 . S
C526 C527 1.390 . S
C526 N529 1.391 1_565 S
C527 H499 0.930 . S
C527 C526 1.390 . S
C527 C528 1.392 . S
C528 H500 0.929 . S
C528 C525 1.391 . S
C528 C527 1.392 . S
N529 Co473 2.257 . S
N529 C526 1.391 1_545 S
N529 C530 1.388 . S
C530 H501 0.930 . S
C530 C525 1.391 1_545 S
C530 N529 1.388 . S
Co531 O533 2.143 . S
Co531 O539 2.074 . S
Co531 O542 2.093 . S
Co531 O555 2.097 . S
Co531 N572 2.151 . S
Co531 N580 2.214 . S
Co532 O533 2.160 . S
Co532 O538 2.058 . S
Co532 O548 2.057 . S
Co532 O563 2.037 . S
Co532 N567 2.145 . S
Co532 N588 2.257 . S
O533 Co531 2.143 . S
O533 Co532 2.160 . S
C534 O535 1.278 . S
C534 O542 1.224 . S
O535 C534 1.278 . S
C536 O537 1.245 . S
C536 O548 1.232 . S
O537 C536 1.245 . S
O538 Co532 2.058 . S
O538 C564 1.269 . S
O539 Co531 2.074 . S
O539 C564 1.257 . S
H540 C565 0.930 . S
H541 C571 0.930 . S
O542 Co531 2.093 . S
O542 C534 1.224 . S
H543 C575 0.929 . S
H544 C577 0.930 . S
H545 C578 0.930 . S
H546 C576 0.929 . S
H547 C579 0.928 . S
O548 Co532 2.057 . S
O548 C536 1.232 . S
H549 C568 0.929 . S
H550 C569 0.929 . S
H551 C581 0.931 . S
H552 C573 0.929 . S
H553 C582 0.930 . S
H554 C574 0.931 . S
O555 Co531 2.097 . S
O555 C583 1.214 . S
H556 C584 0.929 . S
H557 C585 0.929 . S
H558 C586 0.930 . S
H559 C587 0.929 . S
H560 C589 0.930 . S
H561 C566 0.930 . S
H562 C570 0.930 . S
O563 Co532 2.037 . S
O563 C583 1.234 . S
C564 O538 1.269 . S
C564 O539 1.257 . S
C565 H540 0.930 . S
C565 C568 1.388 . S
C565 C570 1.418 . S
C566 H561 0.930 . S
C566 C569 1.404 . S
C566 C570 1.353 . S
N567 Co532 2.145 . S
N567 C568 1.397 . S
N567 C569 1.334 . S
C568 H549 0.929 . S
C568 C565 1.388 . S
C568 N567 1.397 . S
C569 H550 0.929 . S
C569 C566 1.404 . S
C569 N567 1.334 . S
C570 H562 0.930 . S
C570 C565 1.418 . S
C570 C566 1.353 . S
C571 H541 0.930 . S
C571 N572 1.330 . S
C571 C573 1.446 . S
N572 Co531 2.151 . S
N572 C571 1.330 . S
N572 C576 1.418 . S
C573 H552 0.929 . S
C573 C571 1.446 . S
C573 C574 1.332 . S
C574 H554 0.931 . S
C574 C573 1.332 . S
C574 C575 1.267 . S
C575 H543 0.929 . S
C575 C574 1.267 . S
C575 C576 1.251 . S
C576 H546 0.929 . S
C576 N572 1.418 . S
C576 C575 1.251 . S
C577 H544 0.930 . S
C577 C579 1.406 . S
C577 C582 1.261 . S
C578 H545 0.930 . S
C578 N580 1.325 . S
C578 C581 1.357 . S
C579 H547 0.928 . S
C579 C577 1.406 . S
C579 N580 1.261 . S
N580 Co531 2.214 . S
N580 C578 1.325 . S
N580 C579 1.261 . S
C581 H551 0.931 . S
C581 C578 1.357 . S
C581 C582 1.312 . S
C582 H553 0.930 . S
C582 C577 1.261 . S
C582 C581 1.312 . S
C583 O555 1.214 . S
C583 O563 1.234 . S
C584 H556 0.929 . S
C584 C587 1.391 . S
C584 C589 1.391 . S
C585 H557 0.929 . S
C585 C586 1.390 . S
C585 N588 1.391 . S
C586 H558 0.930 . S
C586 C585 1.390 . S
C586 C587 1.392 . S
C587 H559 0.929 . S
C587 C584 1.391 . S
C587 C586 1.392 . S
N588 Co532 2.257 . S
N588 C585 1.391 . S
N588 C589 1.388 . S
C589 H560 0.930 . S
C589 C584 1.391 . S
C589 N588 1.388 . S
Co590 O592 2.143 . S
Co590 O598 2.074 . S
Co590 O601 2.093 . S
Co590 O614 2.097 . S
Co590 N631 2.151 . S
Co590 N639 2.214 . S
Co591 O592 2.160 . S
Co591 O597 2.058 . S
Co591 O607 2.057 . S
Co591 O622 2.037 . S
Co591 N626 2.145 . S
Co591 N647 2.257 . S
O592 Co590 2.143 . S
O592 Co591 2.160 . S
C593 O594 1.278 . S
C593 O601 1.224 . S
O594 C593 1.278 . S
C595 O596 1.245 . S
C595 O607 1.232 . S
O596 C595 1.245 . S
O597 Co591 2.058 . S
O597 C623 1.269 . S
O598 Co590 2.074 . S
O598 C623 1.257 . S
H599 C624 0.930 . S
H600 C630 0.930 . S
O601 Co590 2.093 . S
O601 C593 1.224 . S
H602 C634 0.929 . S
H603 C636 0.930 . S
H604 C637 0.930 1_556 S
H605 C635 0.929 . S
H606 C638 0.947 . S
O607 Co591 2.057 . S
O607 C595 1.232 . S
H608 C627 0.929 . S
H609 C628 0.929 . S
H610 C640 0.931 . S
H611 C632 0.929 . S
H612 C641 0.930 . S
H613 C633 0.931 . S
O614 Co590 2.097 . S
O614 C642 1.214 . S
H615 C643 0.929 1_655 S
H616 C644 0.929 . S
H617 C645 0.930 . S
H618 C646 0.929 . S
H619 C648 0.930 . S
H620 C625 0.930 . S
H621 C629 0.930 . S
O622 Co591 2.037 . S
O622 C642 1.234 . S
C623 O597 1.269 . S
C623 O598 1.257 . S
C624 H599 0.930 . S
C624 C627 1.388 . S
C624 C629 1.418 . S
C625 H620 0.930 . S
C625 C628 1.404 . S
C625 C629 1.353 . S
N626 Co591 2.145 . S
N626 C627 1.397 . S
N626 C628 1.334 . S
C627 H608 0.929 . S
C627 C624 1.388 . S
C627 N626 1.397 . S
C628 H609 0.929 . S
C628 C625 1.404 . S
C628 N626 1.334 . S
C629 H621 0.930 . S
C629 C624 1.418 . S
C629 C625 1.353 . S
C630 H600 0.930 . S
C630 N631 1.330 . S
C630 C632 1.446 . S
N631 Co590 2.151 . S
N631 C630 1.330 . S
N631 C635 1.418 . S
C632 H611 0.929 . S
C632 C630 1.446 . S
C632 C633 1.332 . S
C633 H613 0.931 . S
C633 C632 1.332 . S
C633 C634 1.267 . S
C634 H602 0.929 . S
C634 C633 1.267 . S
C634 C635 1.251 . S
C635 H605 0.929 . S
C635 N631 1.418 . S
C635 C634 1.251 . S
C636 H603 0.930 . S
C636 C638 1.370 1_554 S
C636 C641 1.261 . S
C637 H604 0.930 1_554 S
C637 N639 1.325 1_554 S
C637 C640 1.357 . S
C638 H606 0.947 . S
C638 C636 1.370 1_556 S
C638 N639 1.279 . S
N639 Co590 2.214 . S
N639 C637 1.325 1_556 S
N639 C638 1.279 . S
C640 H610 0.931 . S
C640 C637 1.357 . S
C640 C641 1.312 . S
C641 H612 0.930 . S
C641 C636 1.261 . S
C641 C640 1.312 . S
C642 O614 1.214 . S
C642 O622 1.234 . S
C643 H615 0.929 1_455 S
C643 C646 1.391 . S
C643 C648 1.391 1_455 S
C644 H616 0.929 . S
C644 C645 1.390 . S
C644 N647 1.391 1_455 S
C645 H617 0.930 . S
C645 C644 1.390 . S
C645 C646 1.392 . S
C646 H618 0.929 . S
C646 C643 1.391 . S
C646 C645 1.392 . S
N647 Co591 2.257 . S
N647 C644 1.391 1_655 S
N647 C648 1.388 . S
C648 H619 0.930 . S
C648 C643 1.391 1_655 S
C648 N647 1.388 . S
Co649 O651 2.143 . S
Co649 O657 2.074 . S
Co649 O660 2.093 . S
Co649 O673 2.097 . S
Co649 N690 2.151 . S
Co649 N698 2.214 . S
Co650 O651 2.160 . S
Co650 O656 2.058 . S
Co650 O666 2.057 . S
Co650 O681 2.037 . S
Co650 N685 2.145 . S
Co650 N706 2.257 . S
O651 Co649 2.143 . S
O651 Co650 2.160 . S
C652 O653 1.278 . S
C652 O660 1.224 . S
O653 C652 1.278 . S
C654 O655 1.245 . S
C654 O666 1.232 . S
O655 C654 1.245 . S
O656 Co650 2.058 . S
O656 C682 1.269 . S
O657 Co649 2.074 . S
O657 C682 1.257 . S
H658 C683 0.930 . S
H659 C689 0.930 . S
O660 Co649 2.093 . S
O660 C652 1.224 . S
H661 C693 0.929 . S
H662 C695 0.930 . S
H663 C696 0.930 . S
H664 C694 0.929 . S
H665 C697 0.928 . S
O666 Co650 2.057 . S
O666 C654 1.232 . S
H667 C686 0.929 . S
H668 C687 0.929 . S
H669 C699 0.931 . S
H670 C691 0.929 . S
H671 C700 0.930 . S
H672 C692 0.931 . S
O673 Co649 2.097 . S
O673 C701 1.214 . S
H674 C702 0.929 1_565 S
H675 C703 0.929 . S
H676 C704 0.930 . S
H677 C705 0.929 . S
H678 C707 0.930 . S
H679 C684 0.930 . S
H680 C688 0.930 . S
O681 Co650 2.037 . S
O681 C701 1.234 . S
C682 O656 1.269 . S
C682 O657 1.257 . S
C683 H658 0.930 . S
C683 C686 1.388 . S
C683 C688 1.418 . S
C684 H679 0.930 . S
C684 C687 1.404 . S
C684 C688 1.353 . S
N685 Co650 2.145 . S
N685 C686 1.397 . S
N685 C687 1.334 . S
C686 H667 0.929 . S
C686 C683 1.388 . S
C686 N685 1.397 . S
C687 H668 0.929 . S
C687 C684 1.404 . S
C687 N685 1.334 . S
C688 H680 0.930 . S
C688 C683 1.418 . S
C688 C684 1.353 . S
C689 H659 0.930 . S
C689 N690 1.330 . S
C689 C691 1.446 . S
N690 Co649 2.151 . S
N690 C689 1.330 . S
N690 C694 1.418 . S
C691 H670 0.929 . S
C691 C689 1.446 . S
C691 C692 1.332 . S
C692 H672 0.931 . S
C692 C691 1.332 . S
C692 C693 1.267 . S
C693 H661 0.929 . S
C693 C692 1.267 . S
C693 C694 1.251 . S
C694 H664 0.929 . S
C694 N690 1.418 . S
C694 C693 1.251 . S
C695 H662 0.930 . S
C695 C697 1.406 . S
C695 C700 1.261 . S
C696 H663 0.930 . S
C696 N698 1.325 . S
C696 C699 1.357 . S
C697 H665 0.928 . S
C697 C695 1.406 . S
C697 N698 1.261 . S
N698 Co649 2.214 . S
N698 C696 1.325 . S
N698 C697 1.261 . S
C699 H669 0.931 . S
C699 C696 1.357 . S
C699 C700 1.312 . S
C700 H671 0.930 . S
C700 C695 1.261 . S
C700 C699 1.312 . S
C701 O673 1.214 . S
C701 O681 1.234 . S
C702 H674 0.929 1_545 S
C702 C705 1.391 . S
C702 C707 1.391 1_545 S
C703 H675 0.929 . S
C703 C704 1.390 . S
C703 N706 1.391 1_545 S
C704 H676 0.930 . S
C704 C703 1.390 . S
C704 C705 1.392 . S
C705 H677 0.929 . S
C705 C702 1.391 . S
C705 C704 1.392 . S
N706 Co650 2.257 . S
N706 C703 1.391 1_565 S
N706 C707 1.388 . S
C707 H678 0.930 . S
C707 C702 1.391 1_565 S
C707 N706 1.388 . S
H708 C726 0.951 . S
H709 C728 0.951 . S
H710 C730 0.950 . S
H711 C731 0.950 . S
H712 C733 0.950 . S
H713 C736 0.950 . S
H714 C737 0.950 . S
H715 C739 0.950 . S
H716 C740 0.950 . S
H717 C741 0.951 . S
H718 C743 0.951 . S
H719 C745 0.950 . S
H720 C746 0.950 . S
H721 C748 0.950 . S
H722 C751 0.950 . S
H723 C752 0.950 1_556 S
H724 C754 0.938 1_556 S
H725 C755 0.950 . S
C726 H708 0.951 . S
C726 C727 1.366 . S
C726 C728 1.388 . S
C727 C726 1.366 . S
C727 C731 1.385 . S
C728 H709 0.951 . S
C728 C726 1.388 . S
C728 C729 1.366 . S
C729 C728 1.366 . S
C729 C730 1.414 . S
C729 C732 1.499 . S
C730 H710 0.950 . S
C730 C729 1.414 . S
C730 C731 1.374 . S
C731 H711 0.950 . S
C731 C727 1.385 . S
C731 C730 1.374 . S
C732 C729 1.499 . S
C732 C733 1.373 . S
C732 C734 1.389 . S
C733 H712 0.950 . S
C733 C732 1.373 . S
C733 C749 1.377 . S
C734 C732 1.389 . S
C734 C735 1.524 . S
C734 C748 1.377 . S
C735 C734 1.524 . S
C735 C736 1.397 . S
C735 C740 1.363 . S
C736 H713 0.950 . S
C736 C735 1.397 . S
C736 C737 1.334 . S
C737 H714 0.950 . S
C737 C736 1.334 . S
C737 C738 1.287 . S
C738 C737 1.287 . S
C738 C739 1.524 . S
C738 H757 0.913 . S
C739 H715 0.950 . S
C739 C738 1.524 . S
C739 C740 1.415 . S
C740 H716 0.950 . S
C740 C735 1.363 . S
C740 C739 1.415 . S
C741 H717 0.951 . S
C741 C742 1.366 . S
C741 C743 1.388 . S
C742 C741 1.366 . S
C742 C746 1.385 . S
C743 H718 0.951 . S
C743 C741 1.388 . S
C743 C744 1.366 . S
C744 C743 1.366 . S
C744 C745 1.414 . S
C744 C747 1.499 . S
C745 H719 0.950 . S
C745 C744 1.414 . S
C745 C746 1.374 . S
C746 H720 0.950 . S
C746 C742 1.385 . S
C746 C745 1.374 . S
C747 C744 1.499 . S
C747 C748 1.373 . S
C747 C749 1.389 . S
C748 H721 0.950 . S
C748 C734 1.377 . S
C748 C747 1.373 . S
C749 C733 1.377 . S
C749 C747 1.389 . S
C749 C750 1.524 . S
C750 C749 1.524 . S
C750 C751 1.397 . S
C750 C755 1.363 . S
C751 H722 0.950 . S
C751 C750 1.397 . S
C751 C752 1.334 . S
C752 H723 0.950 1_554 S
C752 C751 1.334 . S
C752 C753 1.287 1_554 S
C753 C752 1.287 1_556 S
C753 C754 1.524 1_556 S
C753 H756 0.999 . S
C754 H724 0.938 1_554 S
C754 C753 1.524 1_554 S
C754 C755 1.415 . S
C755 H725 0.950 . S
C755 C750 1.363 . S
C755 C754 1.415 . S
H756 C753 0.999 . S
H757 C738 0.913 . S
H758 C776 0.951 . S
H759 C778 0.951 1_655 S
H760 C780 0.950 . S
H761 C781 0.950 . S
H762 C783 0.950 . S
H763 C786 0.950 . S
H764 C787 0.950 . S
H765 C789 0.950 . S
H766 C790 0.950 . S
H767 C791 0.951 . S
H768 C793 0.951 1_455 S
H769 C795 0.950 . S
H770 C796 0.950 . S
H771 C798 0.950 . S
H772 C801 0.950 . S
H773 C802 0.950 . S
H774 C804 0.950 . S
H775 C805 0.950 . S
C776 H758 0.951 . S
C776 C777 1.366 . S
C776 C778 1.388 . S
C777 C776 1.366 . S
C777 C781 1.385 . S
C778 H759 0.951 1_455 S
C778 C776 1.388 . S
C778 C779 1.366 . S
C779 C778 1.366 . S
C779 C780 1.414 . S
C779 C782 1.499 . S
C780 H760 0.950 . S
C780 C779 1.414 . S
C780 C781 1.374 . S
C781 H761 0.950 . S
C781 C777 1.385 . S
C781 C780 1.374 . S
C782 C779 1.499 . S
C782 C783 1.373 . S
C782 C784 1.389 1_455 S
C783 H762 0.950 . S
C783 C782 1.373 . S
C783 C799 1.377 . S
C784 C782 1.389 1_655 S
C784 C785 1.524 . S
C784 C798 1.377 . S
C785 C784 1.524 . S
C785 C786 1.397 . S
C785 C790 1.363 . S
C786 H763 0.950 . S
C786 C785 1.397 . S
C786 C787 1.334 . S
C787 H764 0.950 . S
C787 C786 1.334 . S
C787 C788 1.287 . S
C788 C787 1.287 . S
C788 C789 1.524 . S
C788 H807 0.913 . S
C789 H765 0.950 . S
C789 C788 1.524 . S
C789 C790 1.415 . S
C790 H766 0.950 . S
C790 C785 1.363 . S
C790 C789 1.415 . S
C791 H767 0.951 . S
C791 C792 1.366 . S
C791 C793 1.388 . S
C792 C791 1.366 . S
C792 C796 1.385 . S
C793 H768 0.951 1_655 S
C793 C791 1.388 . S
C793 C794 1.366 . S
C794 C793 1.366 . S
C794 C795 1.414 . S
C794 C797 1.499 . S
C795 H769 0.950 . S
C795 C794 1.414 . S
C795 C796 1.374 . S
C796 H770 0.950 . S
C796 C792 1.385 . S
C796 C795 1.374 . S
C797 C794 1.499 . S
C797 C798 1.373 . S
C797 C799 1.389 1_655 S
C798 H771 0.950 . S
C798 C784 1.377 . S
C798 C797 1.373 . S
C799 C783 1.377 . S
C799 C797 1.389 1_455 S
C799 C800 1.524 . S
C800 C799 1.524 . S
C800 C801 1.397 . S
C800 C805 1.363 . S
C801 H772 0.950 . S
C801 C800 1.397 . S
C801 C802 1.334 . S
C802 H773 0.950 . S
C802 C801 1.334 . S
C802 C803 1.287 . S
C803 C802 1.287 . S
C803 C804 1.524 . S
C803 H806 0.999 . S
C804 H774 0.950 . S
C804 C803 1.524 . S
C804 C805 1.415 . S
C805 H775 0.950 . S
C805 C800 1.363 . S
C805 C804 1.415 . S
H806 C803 0.999 . S
H807 C788 0.913 . S
H808 C826 0.951 . S
H809 C828 0.951 . S
H810 C830 0.950 . S
H811 C831 0.950 . S
H812 C833 0.950 . S
H813 C836 0.950 . S
H814 C837 0.950 . S
H815 C839 0.950 . S
H816 C840 0.950 . S
H817 C841 0.951 . S
H818 C843 0.951 . S
H819 C845 0.950 . S
H820 C846 0.950 . S
H821 C848 0.950 . S
H822 C851 0.950 . S
H823 C852 0.950 . S
H824 C854 0.950 . S
H825 C855 0.950 . S
C826 H808 0.951 . S
C826 C827 1.366 . S
C826 C828 1.388 . S
C827 C826 1.366 . S
C827 C831 1.385 . S
C828 H809 0.951 . S
C828 C826 1.388 . S
C828 C829 1.366 . S
C829 C828 1.366 . S
C829 C830 1.414 . S
C829 C832 1.499 . S
C830 H810 0.950 . S
C830 C829 1.414 . S
C830 C831 1.374 . S
C831 H811 0.950 . S
C831 C827 1.385 . S
C831 C830 1.374 . S
C832 C829 1.499 . S
C832 C833 1.373 1_565 S
C832 C834 1.389 . S
C833 H812 0.950 . S
C833 C832 1.373 1_545 S
C833 C849 1.377 . S
C834 C832 1.389 . S
C834 C835 1.524 . S
C834 C848 1.377 . S
C835 C834 1.524 . S
C835 C836 1.397 . S
C835 C840 1.363 . S
C836 H813 0.950 . S
C836 C835 1.397 . S
C836 C837 1.334 . S
C837 H814 0.950 . S
C837 C836 1.334 . S
C837 C838 1.287 . S
C838 C837 1.287 . S
C838 C839 1.524 . S
C838 H857 0.913 . S
C839 H815 0.950 . S
C839 C838 1.524 . S
C839 C840 1.415 . S
C840 H816 0.950 . S
C840 C835 1.363 . S
C840 C839 1.415 . S
C841 H817 0.951 . S
C841 C842 1.366 . S
C841 C843 1.388 . S
C842 C841 1.366 . S
C842 C846 1.385 . S
C843 H818 0.951 . S
C843 C841 1.388 . S
C843 C844 1.366 . S
C844 C843 1.366 . S
C844 C845 1.414 . S
C844 C847 1.499 . S
C845 H819 0.950 . S
C845 C844 1.414 . S
C845 C846 1.374 . S
C846 H820 0.950 . S
C846 C842 1.385 . S
C846 C845 1.374 . S
C847 C844 1.499 . S
C847 C848 1.373 1_545 S
C847 C849 1.389 . S
C848 H821 0.950 . S
C848 C834 1.377 . S
C848 C847 1.373 1_565 S
C849 C833 1.377 . S
C849 C847 1.389 . S
C849 C850 1.524 . S
C850 C849 1.524 . S
C850 C851 1.397 . S
C850 C855 1.363 . S
C851 H822 0.950 . S
C851 C850 1.397 . S
C851 C852 1.334 . S
C852 H823 0.950 . S
C852 C851 1.334 . S
C852 C853 1.287 . S
C853 C852 1.287 . S
C853 C854 1.524 . S
C853 H856 0.999 . S
C854 H824 0.950 . S
C854 C853 1.524 . S
C854 C855 1.415 . S
C855 H825 0.950 . S
C855 C850 1.363 . S
C855 C854 1.415 . S
H856 C853 0.999 . S
H857 C838 0.913 . S
H858 C876 0.951 . S
H859 C878 0.951 . S
H860 C880 0.950 . S
H861 C881 0.950 . S
H862 C883 0.950 . S
H863 C886 0.950 . S
H864 C887 0.950 . S
H865 C889 0.950 . S
H866 C890 0.950 . S
H867 C891 0.951 . S
H868 C893 0.951 . S
H869 C895 0.950 . S
H870 C896 0.950 . S
H871 C898 0.950 . S
H872 C901 0.950 . S
H873 C902 0.950 . S
H874 C904 0.950 . S
H875 C905 0.950 . S
C876 H858 0.951 . S
C876 C877 1.366 . S
C876 C878 1.388 . S
C877 C876 1.366 . S
C877 C881 1.385 . S
C878 H859 0.951 . S
C878 C876 1.388 . S
C878 C879 1.366 . S
C879 C878 1.366 . S
C879 C880 1.414 . S
C879 C882 1.499 . S
C880 H860 0.950 . S
C880 C879 1.414 . S
C880 C881 1.374 . S
C881 H861 0.950 . S
C881 C877 1.385 . S
C881 C880 1.374 . S
C882 C879 1.499 . S
C882 C883 1.373 . S
C882 C884 1.389 . S
C883 H862 0.950 . S
C883 C882 1.373 . S
C883 C899 1.377 . S
C884 C882 1.389 . S
C884 C885 1.524 . S
C884 C898 1.377 . S
C885 C884 1.524 . S
C885 C886 1.397 . S
C885 C890 1.363 . S
C886 H863 0.950 . S
C886 C885 1.397 . S
C886 C887 1.334 . S
C887 H864 0.950 . S
C887 C886 1.334 . S
C887 C888 1.287 . S
C888 C887 1.287 . S
C888 C889 1.524 . S
C888 H907 0.913 . S
C889 H865 0.950 . S
C889 C888 1.524 . S
C889 C890 1.415 . S
C890 H866 0.950 . S
C890 C885 1.363 . S
C890 C889 1.415 . S
C891 H867 0.951 . S
C891 C892 1.366 . S
C891 C893 1.388 . S
C892 C891 1.366 . S
C892 C896 1.385 . S
C893 H868 0.951 . S
C893 C891 1.388 . S
C893 C894 1.366 . S
C894 C893 1.366 . S
C894 C895 1.414 . S
C894 C897 1.499 . S
C895 H869 0.950 . S
C895 C894 1.414 . S
C895 C896 1.374 . S
C896 H870 0.950 . S
C896 C892 1.385 . S
C896 C895 1.374 . S
C897 C894 1.499 . S
C897 C898 1.373 . S
C897 C899 1.389 . S
C898 H871 0.950 . S
C898 C884 1.377 . S
C898 C897 1.373 . S
C899 C883 1.377 . S
C899 C897 1.389 . S
C899 C900 1.524 . S
C900 C899 1.524 . S
C900 C901 1.397 . S
C900 C905 1.363 . S
C901 H872 0.950 . S
C901 C900 1.397 . S
C901 C902 1.334 . S
C902 H873 0.950 . S
C902 C901 1.334 . S
C902 C903 1.287 . S
C903 C902 1.287 . S
C903 C904 1.524 . S
C903 H906 0.999 . S
C904 H874 0.950 . S
C904 C903 1.524 . S
C904 C905 1.415 . S
C905 H875 0.950 . S
C905 C900 1.363 . S
C905 C904 1.415 . S
H906 C903 0.999 . S
H907 C888 0.913 . S
H908 C926 0.951 . S
H909 C928 0.951 . S
H910 C930 0.950 . S
H911 C931 0.950 . S
H912 C933 0.950 . S
H913 C936 0.950 . S
H914 C937 0.950 . S
H915 C939 0.950 . S
H916 C940 0.950 . S
H917 C941 0.951 . S
H918 C943 0.951 . S
H919 C945 0.950 . S
H920 C946 0.950 . S
H921 C948 0.950 . S
H922 C951 0.950 . S
H923 C952 0.950 . S
H924 C954 0.950 . S
H925 C955 0.950 . S
C926 H908 0.951 . S
C926 C927 1.366 . S
C926 C928 1.388 . S
C927 C926 1.366 . S
C927 C931 1.385 . S
C928 H909 0.951 . S
C928 C926 1.388 . S
C928 C929 1.366 . S
C929 C928 1.366 . S
C929 C930 1.414 . S
C929 C932 1.499 . S
C930 H910 0.950 . S
C930 C929 1.414 . S
C930 C931 1.374 . S
C931 H911 0.950 . S
C931 C927 1.385 . S
C931 C930 1.374 . S
C932 C929 1.499 . S
C932 C933 1.373 . S
C932 C934 1.389 1_655 S
C933 H912 0.950 . S
C933 C932 1.373 . S
C933 C949 1.377 . S
C934 C932 1.389 1_455 S
C934 C935 1.524 . S
C934 C948 1.377 . S
C935 C934 1.524 . S
C935 C936 1.397 . S
C935 C940 1.363 . S
C936 H913 0.950 . S
C936 C935 1.397 . S
C936 C937 1.334 . S
C937 H914 0.950 . S
C937 C936 1.334 . S
C937 C938 1.287 . S
C938 C937 1.287 . S
C938 C939 1.524 . S
C938 H957 0.913 . S
C939 H915 0.950 . S
C939 C938 1.524 . S
C939 C940 1.415 . S
C940 H916 0.950 . S
C940 C935 1.363 . S
C940 C939 1.415 . S
C941 H917 0.951 . S
C941 C942 1.366 . S
C941 C943 1.388 . S
C942 C941 1.366 . S
C942 C946 1.385 . S
C943 H918 0.951 . S
C943 C941 1.388 . S
C943 C944 1.366 . S
C944 C943 1.366 . S
C944 C945 1.414 . S
C944 C947 1.499 . S
C945 H919 0.950 . S
C945 C944 1.414 . S
C945 C946 1.374 . S
C946 H920 0.950 . S
C946 C942 1.385 . S
C946 C945 1.374 . S
C947 C944 1.499 . S
C947 C948 1.373 . S
C947 C949 1.389 1_455 S
C948 H921 0.950 . S
C948 C934 1.377 . S
C948 C947 1.373 . S
C949 C933 1.377 . S
C949 C947 1.389 1_655 S
C949 C950 1.524 . S
C950 C949 1.524 . S
C950 C951 1.397 . S
C950 C955 1.363 . S
C951 H922 0.950 . S
C951 C950 1.397 . S
C951 C952 1.334 . S
C952 H923 0.950 . S
C952 C951 1.334 . S
C952 C953 1.287 . S
C953 C952 1.287 . S
C953 C954 1.524 . S
C953 H956 0.999 . S
C954 H924 0.950 . S
C954 C953 1.524 . S
C954 C955 1.415 . S
C955 H925 0.950 . S
C955 C950 1.363 . S
C955 C954 1.415 . S
H956 C953 0.999 . S
H957 C938 0.913 . S
H958 C976 0.951 . S
H959 C978 0.951 1_565 S
H960 C980 0.950 . S
H961 C981 0.950 . S
H962 C983 0.950 . S
H963 C986 0.950 . S
H964 C987 0.950 . S
H965 C989 0.950 . S
H966 C990 0.950 . S
H967 C991 0.951 . S
H968 C993 0.951 1_545 S
H969 C995 0.950 . S
H970 C996 0.950 . S
H971 C998 0.950 . S
H972 C1001 0.950 . S
H973 C1002 0.950 . S
H974 C1004 0.950 . S
H975 C1005 0.950 . S
C976 H958 0.951 . S
C976 C977 1.366 . S
C976 C978 1.388 . S
C977 C976 1.366 . S
C977 C981 1.385 . S
C978 H959 0.951 1_545 S
C978 C976 1.388 . S
C978 C979 1.366 . S
C979 C978 1.366 . S
C979 C980 1.414 . S
C979 C982 1.499 . S
C980 H960 0.950 . S
C980 C979 1.414 . S
C980 C981 1.374 . S
C981 H961 0.950 . S
C981 C977 1.385 . S
C981 C980 1.374 . S
C982 C979 1.499 . S
C982 C983 1.373 . S
C982 C984 1.389 1_545 S
C983 H962 0.950 . S
C983 C982 1.373 . S
C983 C999 1.377 . S
C984 C982 1.389 1_565 S
C984 C985 1.524 . S
C984 C998 1.377 . S
C985 C984 1.524 . S
C985 C986 1.397 1_565 S
C985 C990 1.363 . S
C986 H963 0.950 . S
C986 C985 1.397 1_545 S
C986 C987 1.334 . S
C987 H964 0.950 . S
C987 C986 1.334 . S
C987 C988 1.287 1_545 S
C988 C987 1.287 1_565 S
C988 C989 1.524 . S
C988 H1007 0.919 . S
C989 H965 0.950 . S
C989 C988 1.524 . S
C989 C990 1.415 . S
C990 H966 0.950 . S
C990 C985 1.363 . S
C990 C989 1.415 . S
C991 H967 0.951 . S
C991 C992 1.366 . S
C991 C993 1.388 . S
C992 C991 1.366 . S
C992 C996 1.385 . S
C993 H968 0.951 1_565 S
C993 C991 1.388 . S
C993 C994 1.366 . S
C994 C993 1.366 . S
C994 C995 1.414 . S
C994 C997 1.499 . S
C995 H969 0.950 . S
C995 C994 1.414 . S
C995 C996 1.374 . S
C996 H970 0.950 . S
C996 C992 1.385 . S
C996 C995 1.374 . S
C997 C994 1.499 . S
C997 C998 1.373 . S
C997 C999 1.389 1_565 S
C998 H971 0.950 . S
C998 C984 1.377 . S
C998 C997 1.373 . S
C999 C983 1.377 . S
C999 C997 1.389 1_545 S
C999 C1000 1.524 . S
C1000 C999 1.524 . S
C1000 C1001 1.397 1_545 S
C1000 C1005 1.363 . S
C1001 H972 0.950 . S
C1001 C1000 1.397 1_565 S
C1001 C1002 1.334 . S
C1002 H973 0.950 . S
C1002 C1001 1.334 . S
C1002 C1003 1.287 1_565 S
C1003 C1002 1.287 1_545 S
C1003 C1004 1.524 . S
C1003 H1006 0.999 . S
C1004 H974 0.950 . S
C1004 C1003 1.524 . S
C1004 C1005 1.415 . S
C1005 H975 0.950 . S
C1005 C1000 1.363 . S
C1005 C1004 1.415 . S
H1006 C1003 0.999 . S
H1007 C988 0.919 . S
H1008 C1026 0.951 . S
H1009 C1028 0.951 . S
H1010 C1030 0.950 . S
H1011 C1031 0.950 . S
H1012 C1033 0.950 . S
H1013 C1036 0.950 . S
H1014 C1037 0.950 . S
H1015 C1039 0.950 . S
H1016 C1040 0.950 . S
H1017 C1041 0.951 . S
H1018 C1043 0.951 . S
H1019 C1045 0.950 . S
H1020 C1046 0.950 . S
H1021 C1048 0.950 . S
H1022 C1051 0.950 . S
H1023 C1052 0.950 . S
H1024 C1054 0.950 . S
H1025 C1055 0.950 . S
C1026 H1008 0.951 . S
C1026 C1027 1.366 . S
C1026 C1028 1.388 . S
C1027 C1026 1.366 . S
C1027 C1031 1.385 . S
C1028 H1009 0.951 . S
C1028 C1026 1.388 . S
C1028 C1029 1.366 . S
C1029 C1028 1.366 . S
C1029 C1030 1.414 . S
C1029 C1032 1.499 . S
C1030 H1010 0.950 . S
C1030 C1029 1.414 . S
C1030 C1031 1.374 . S
C1031 H1011 0.950 . S
C1031 C1027 1.385 . S
C1031 C1030 1.374 . S
C1032 C1029 1.499 . S
C1032 C1033 1.373 . S
C1032 C1034 1.389 . S
C1033 H1012 0.950 . S
C1033 C1032 1.373 . S
C1033 C1049 1.377 . S
C1034 C1032 1.389 . S
C1034 C1035 1.524 . S
C1034 C1048 1.377 . S
C1035 C1034 1.524 . S
C1035 C1036 1.397 . S
C1035 C1040 1.363 . S
C1036 H1013 0.950 . S
C1036 C1035 1.397 . S
C1036 C1037 1.334 . S
C1037 H1014 0.950 . S
C1037 C1036 1.334 . S
C1037 C1038 1.287 . S
C1038 C1037 1.287 . S
C1038 C1039 1.524 . S
C1038 H1057 0.913 . S
C1039 H1015 0.950 . S
C1039 C1038 1.524 . S
C1039 C1040 1.415 . S
C1040 H1016 0.950 . S
C1040 C1035 1.363 . S
C1040 C1039 1.415 . S
C1041 H1017 0.951 . S
C1041 C1042 1.366 . S
C1041 C1043 1.388 . S
C1042 C1041 1.366 . S
C1042 C1046 1.385 . S
C1043 H1018 0.951 . S
C1043 C1041 1.388 . S
C1043 C1044 1.366 . S
C1044 C1043 1.366 . S
C1044 C1045 1.414 . S
C1044 C1047 1.499 . S
C1045 H1019 0.950 . S
C1045 C1044 1.414 . S
C1045 C1046 1.374 . S
C1046 H1020 0.950 . S
C1046 C1042 1.385 . S
C1046 C1045 1.374 . S
C1047 C1044 1.499 . S
C1047 C1048 1.373 . S
C1047 C1049 1.389 . S
C1048 H1021 0.950 . S
C1048 C1034 1.377 . S
C1048 C1047 1.373 . S
C1049 C1033 1.377 . S
C1049 C1047 1.389 . S
C1049 C1050 1.524 . S
C1050 C1049 1.524 . S
C1050 C1051 1.397 . S
C1050 C1055 1.363 . S
C1051 H1022 0.950 . S
C1051 C1050 1.397 . S
C1051 C1052 1.334 . S
C1052 H1023 0.950 . S
C1052 C1051 1.334 . S
C1052 C1053 1.287 . S
C1053 C1052 1.287 . S
C1053 C1054 1.524 . S
C1053 H1056 0.999 . S
C1054 H1024 0.950 . S
C1054 C1053 1.524 . S
C1054 C1055 1.415 . S
C1055 H1025 0.950 . S
C1055 C1050 1.363 . S
C1055 C1054 1.415 . S
H1056 C1053 0.999 . S
H1057 C1038 0.913 . S
H1058 C1076 0.951 . S
H1059 C1078 0.951 . S
H1060 C1080 0.950 . S
H1061 C1081 0.950 . S
H1062 C1083 0.950 . S
H1063 C1086 0.950 . S
H1064 C1087 0.950 . S
H1065 C1089 0.950 . S
H1066 C1090 0.950 . S
H1067 C1091 0.951 . S
H1068 C1093 0.951 . S
H1069 C1095 0.950 . S
H1070 C1096 0.950 . S
H1071 C1098 0.950 . S
H1072 C1101 0.950 . S
H1073 C1102 0.950 . S
H1074 C1104 0.950 . S
H1075 C1105 0.950 . S
C1076 H1058 0.951 . S
C1076 C1077 1.366 . S
C1076 C1078 1.388 . S
C1077 C1076 1.366 . S
C1077 C1081 1.385 . S
C1078 H1059 0.951 . S
C1078 C1076 1.388 . S
C1078 C1079 1.366 . S
C1079 C1078 1.366 . S
C1079 C1080 1.414 . S
C1079 C1082 1.499 . S
C1080 H1060 0.950 . S
C1080 C1079 1.414 . S
C1080 C1081 1.374 . S
C1081 H1061 0.950 . S
C1081 C1077 1.385 . S
C1081 C1080 1.374 . S
C1082 C1079 1.499 . S
C1082 C1083 1.373 . S
C1082 C1084 1.389 . S
C1083 H1062 0.950 . S
C1083 C1082 1.373 . S
C1083 C1099 1.377 . S
C1084 C1082 1.389 . S
C1084 C1085 1.524 . S
C1084 C1098 1.377 . S
C1085 C1084 1.524 . S
C1085 C1086 1.397 . S
C1085 C1090 1.363 . S
C1086 H1063 0.950 . S
C1086 C1085 1.397 . S
C1086 C1087 1.334 . S
C1087 H1064 0.950 . S
C1087 C1086 1.334 . S
C1087 C1088 1.287 . S
C1088 C1087 1.287 . S
C1088 C1089 1.524 . S
C1088 H1107 0.913 . S
C1089 H1065 0.950 . S
C1089 C1088 1.524 . S
C1089 C1090 1.415 . S
C1090 H1066 0.950 . S
C1090 C1085 1.363 . S
C1090 C1089 1.415 . S
C1091 H1067 0.951 . S
C1091 C1092 1.366 . S
C1091 C1093 1.388 . S
C1092 C1091 1.366 . S
C1092 C1096 1.385 . S
C1093 H1068 0.951 . S
C1093 C1091 1.388 . S
C1093 C1094 1.366 . S
C1094 C1093 1.366 . S
C1094 C1095 1.414 . S
C1094 C1097 1.499 . S
C1095 H1069 0.950 . S
C1095 C1094 1.414 . S
C1095 C1096 1.374 . S
C1096 H1070 0.950 . S
C1096 C1092 1.385 . S
C1096 C1095 1.374 . S
C1097 C1094 1.499 . S
C1097 C1098 1.373 . S
C1097 C1099 1.389 . S
C1098 H1071 0.950 . S
C1098 C1084 1.377 . S
C1098 C1097 1.373 . S
C1099 C1083 1.377 . S
C1099 C1097 1.389 . S
C1099 C1100 1.524 . S
C1100 C1099 1.524 . S
C1100 C1101 1.397 . S
C1100 C1105 1.363 . S
C1101 H1072 0.950 . S
C1101 C1100 1.397 . S
C1101 C1102 1.334 . S
C1102 H1073 0.950 . S
C1102 C1101 1.334 . S
C1102 C1103 1.287 . S
C1103 C1102 1.287 . S
C1103 C1104 1.524 . S
C1103 H1106 0.999 . S
C1104 H1074 0.950 . S
C1104 C1103 1.524 . S
C1104 C1105 1.415 . S
C1105 H1075 0.950 . S
C1105 C1100 1.363 . S
C1105 C1104 1.415 . S
H1106 C1103 0.999 . S
H1107 C1088 0.913 . S
H1108 C1126 0.951 . S
H1109 C1128 0.951 . S
H1110 C1130 0.950 . S
H1111 C1131 0.950 . S
H1112 C1133 0.950 . S
H1113 C1136 0.950 . S
H1114 C1137 0.950 . S
H1115 C1139 0.950 . S
H1116 C1140 0.950 . S
H1117 C1141 0.951 . S
H1118 C1143 0.951 . S
H1119 C1145 0.950 . S
H1120 C1146 0.950 . S
H1121 C1148 0.950 . S
H1122 C1151 0.950 . S
H1123 C1152 0.950 . S
H1124 C1154 0.950 . S
H1125 C1155 0.950 . S
C1126 H1108 0.951 . S
C1126 C1127 1.366 . S
C1126 C1128 1.388 . S
C1127 C1126 1.366 . S
C1127 C1131 1.385 . S
C1128 H1109 0.951 . S
C1128 C1126 1.388 . S
C1128 C1129 1.366 . S
C1129 C1128 1.366 . S
C1129 C1130 1.414 . S
C1129 C1132 1.499 . S
C1130 H1110 0.950 . S
C1130 C1129 1.414 . S
C1130 C1131 1.374 . S
C1131 H1111 0.950 . S
C1131 C1127 1.385 . S
C1131 C1130 1.374 . S
C1132 C1129 1.499 . S
C1132 C1133 1.373 . S
C1132 C1134 1.389 . S
C1133 H1112 0.950 . S
C1133 C1132 1.373 . S
C1133 C1149 1.377 . S
C1134 C1132 1.389 . S
C1134 C1135 1.524 . S
C1134 C1148 1.377 . S
C1135 C1134 1.524 . S
C1135 C1136 1.397 . S
C1135 C1140 1.363 . S
C1136 H1113 0.950 . S
C1136 C1135 1.397 . S
C1136 C1137 1.334 . S
C1137 H1114 0.950 . S
C1137 C1136 1.334 . S
C1137 C1138 1.287 . S
C1138 C1137 1.287 . S
C1138 C1139 1.524 . S
C1138 H1157 0.913 . S
C1139 H1115 0.950 . S
C1139 C1138 1.524 . S
C1139 C1140 1.415 . S
C1140 H1116 0.950 . S
C1140 C1135 1.363 . S
C1140 C1139 1.415 . S
C1141 H1117 0.951 . S
C1141 C1142 1.366 . S
C1141 C1143 1.388 . S
C1142 C1141 1.366 . S
C1142 C1146 1.385 . S
C1143 H1118 0.951 . S
C1143 C1141 1.388 . S
C1143 C1144 1.366 . S
C1144 C1143 1.366 . S
C1144 C1145 1.414 . S
C1144 C1147 1.499 . S
C1145 H1119 0.950 . S
C1145 C1144 1.414 . S
C1145 C1146 1.374 . S
C1146 H1120 0.950 . S
C1146 C1142 1.385 . S
C1146 C1145 1.374 . S
C1147 C1144 1.499 . S
C1147 C1148 1.373 . S
C1147 C1149 1.389 . S
C1148 H1121 0.950 . S
C1148 C1134 1.377 . S
C1148 C1147 1.373 . S
C1149 C1133 1.377 . S
C1149 C1147 1.389 . S
C1149 C1150 1.524 . S
C1150 C1149 1.524 . S
C1150 C1151 1.397 . S
C1150 C1155 1.363 . S
C1151 H1122 0.950 . S
C1151 C1150 1.397 . S
C1151 C1152 1.334 . S
C1152 H1123 0.950 . S
C1152 C1151 1.334 . S
C1152 C1153 1.287 . S
C1153 C1152 1.287 . S
C1153 C1154 1.524 . S
C1153 H1156 0.999 . S
C1154 H1124 0.950 . S
C1154 C1153 1.524 . S
C1154 C1155 1.415 . S
C1155 H1125 0.950 . S
C1155 C1150 1.363 . S
C1155 C1154 1.415 . S
H1156 C1153 0.999 . S
H1157 C1138 0.913 . S
H1158 C1176 0.951 . S
H1159 C1178 0.951 . S
H1160 C1180 0.950 . S
H1161 C1181 0.950 . S
H1162 C1183 0.950 . S
H1163 C1186 0.950 . S
H1164 C1187 0.950 . S
H1165 C1189 0.950 . S
H1166 C1190 0.950 . S
H1167 C1191 0.951 . S
H1168 C1193 0.951 . S
H1169 C1195 0.950 . S
H1170 C1196 0.950 . S
H1171 C1198 0.950 . S
H1172 C1201 0.950 . S
H1173 C1202 0.950 . S
H1174 C1204 0.950 . S
H1175 C1205 0.950 . S
C1176 H1158 0.951 . S
C1176 C1177 1.366 . S
C1176 C1178 1.388 . S
C1177 C1176 1.366 . S
C1177 C1181 1.385 . S
C1178 H1159 0.951 . S
C1178 C1176 1.388 . S
C1178 C1179 1.366 . S
C1179 C1178 1.366 . S
C1179 C1180 1.414 . S
C1179 C1182 1.499 . S
C1180 H1160 0.950 . S
C1180 C1179 1.414 . S
C1180 C1181 1.374 . S
C1181 H1161 0.950 . S
C1181 C1177 1.385 . S
C1181 C1180 1.374 . S
C1182 C1179 1.499 . S
C1182 C1183 1.373 . S
C1182 C1184 1.389 . S
C1183 H1162 0.950 . S
C1183 C1182 1.373 . S
C1183 C1199 1.377 . S
C1184 C1182 1.389 . S
C1184 C1185 1.524 . S
C1184 C1198 1.377 . S
C1185 C1184 1.524 . S
C1185 C1186 1.397 . S
C1185 C1190 1.363 . S
C1186 H1163 0.950 . S
C1186 C1185 1.397 . S
C1186 C1187 1.334 . S
C1187 H1164 0.950 . S
C1187 C1186 1.334 . S
C1187 C1188 1.287 . S
C1188 C1187 1.287 . S
C1188 C1189 1.524 . S
C1188 H1207 0.913 . S
C1189 H1165 0.950 . S
C1189 C1188 1.524 . S
C1189 C1190 1.415 . S
C1190 H1166 0.950 . S
C1190 C1185 1.363 . S
C1190 C1189 1.415 . S
C1191 H1167 0.951 . S
C1191 C1192 1.366 . S
C1191 C1193 1.388 . S
C1192 C1191 1.366 . S
C1192 C1196 1.385 . S
C1193 H1168 0.951 . S
C1193 C1191 1.388 . S
C1193 C1194 1.366 . S
C1194 C1193 1.366 . S
C1194 C1195 1.414 . S
C1194 C1197 1.499 . S
C1195 H1169 0.950 . S
C1195 C1194 1.414 . S
C1195 C1196 1.374 . S
C1196 H1170 0.950 . S
C1196 C1192 1.385 . S
C1196 C1195 1.374 . S
C1197 C1194 1.499 . S
C1197 C1198 1.373 . S
C1197 C1199 1.389 . S
C1198 H1171 0.950 . S
C1198 C1184 1.377 . S
C1198 C1197 1.373 . S
C1199 C1183 1.377 . S
C1199 C1197 1.389 . S
C1199 C1200 1.524 . S
C1200 C1199 1.524 . S
C1200 C1201 1.397 . S
C1200 C1205 1.363 . S
C1201 H1172 0.950 . S
C1201 C1200 1.397 . S
C1201 C1202 1.334 . S
C1202 H1173 0.950 . S
C1202 C1201 1.334 . S
C1202 C1203 1.287 . S
C1203 C1202 1.287 . S
C1203 C1204 1.524 . S
C1203 H1206 0.999 . S
C1204 H1174 0.950 . S
C1204 C1203 1.524 . S
C1204 C1205 1.415 . S
C1205 H1175 0.950 . S
C1205 C1200 1.363 . S
C1205 C1204 1.415 . S
H1206 C1203 0.999 . S
H1207 C1188 0.913 . S
H1208 C1226 0.951 . S
H1209 C1228 0.951 . S
H1210 C1230 0.950 . S
H1211 C1231 0.950 . S
H1212 C1233 0.950 . S
H1213 C1236 0.950 . S
H1214 C1237 0.950 . S
H1215 C1239 0.950 . S
H1216 C1240 0.950 . S
H1217 C1241 0.951 . S
H1218 C1243 0.951 . S
H1219 C1245 0.950 . S
H1220 C1246 0.950 . S
H1221 C1248 0.950 . S
H1222 C1251 0.950 . S
H1223 C1252 0.950 . S
H1224 C1254 0.950 . S
H1225 C1255 0.950 . S
C1226 H1208 0.951 . S
C1226 C1227 1.366 . S
C1226 C1228 1.388 . S
C1227 C1226 1.366 . S
C1227 C1231 1.385 . S
C1228 H1209 0.951 . S
C1228 C1226 1.388 . S
C1228 C1229 1.366 . S
C1229 C1228 1.366 . S
C1229 C1230 1.414 . S
C1229 C1232 1.499 . S
C1230 H1210 0.950 . S
C1230 C1229 1.414 . S
C1230 C1231 1.374 . S
C1231 H1211 0.950 . S
C1231 C1227 1.385 . S
C1231 C1230 1.374 . S
C1232 C1229 1.499 . S
C1232 C1233 1.373 . S
C1232 C1234 1.389 . S
C1233 H1212 0.950 . S
C1233 C1232 1.373 . S
C1233 C1249 1.377 . S
C1234 C1232 1.389 . S
C1234 C1235 1.524 . S
C1234 C1248 1.377 . S
C1235 C1234 1.524 . S
C1235 C1236 1.397 . S
C1235 C1240 1.363 . S
C1236 H1213 0.950 . S
C1236 C1235 1.397 . S
C1236 C1237 1.334 . S
C1237 H1214 0.950 . S
C1237 C1236 1.334 . S
C1237 C1238 1.287 . S
C1238 C1237 1.287 . S
C1238 C1239 1.524 . S
C1238 H1257 0.913 . S
C1239 H1215 0.950 . S
C1239 C1238 1.524 . S
C1239 C1240 1.415 . S
C1240 H1216 0.950 . S
C1240 C1235 1.363 . S
C1240 C1239 1.415 . S
C1241 H1217 0.951 . S
C1241 C1242 1.366 . S
C1241 C1243 1.388 . S
C1242 C1241 1.366 . S
C1242 C1246 1.385 . S
C1243 H1218 0.951 . S
C1243 C1241 1.388 . S
C1243 C1244 1.366 . S
C1244 C1243 1.366 . S
C1244 C1245 1.414 . S
C1244 C1247 1.499 . S
C1245 H1219 0.950 . S
C1245 C1244 1.414 . S
C1245 C1246 1.374 . S
C1246 H1220 0.950 . S
C1246 C1242 1.385 . S
C1246 C1245 1.374 . S
C1247 C1244 1.499 . S
C1247 C1248 1.373 . S
C1247 C1249 1.389 . S
C1248 H1221 0.950 . S
C1248 C1234 1.377 . S
C1248 C1247 1.373 . S
C1249 C1233 1.377 . S
C1249 C1247 1.389 . S
C1249 C1250 1.524 . S
C1250 C1249 1.524 . S
C1250 C1251 1.397 . S
C1250 C1255 1.363 . S
C1251 H1222 0.950 . S
C1251 C1250 1.397 . S
C1251 C1252 1.334 . S
C1252 H1223 0.950 . S
C1252 C1251 1.334 . S
C1252 C1253 1.287 . S
C1253 C1252 1.287 . S
C1253 C1254 1.524 . S
C1253 H1256 0.999 . S
C1254 H1224 0.950 . S
C1254 C1253 1.524 . S
C1254 C1255 1.415 . S
C1255 H1225 0.950 . S
C1255 C1250 1.363 . S
C1255 C1254 1.415 . S
H1256 C1253 0.999 . S
H1257 C1238 0.913 . S
H1258 C1276 0.951 . S
H1259 C1278 0.951 . S
H1260 C1280 0.950 . S
H1261 C1281 0.950 . S
H1262 C1283 0.950 . S
H1263 C1286 0.950 . S
H1264 C1287 0.950 . S
H1265 C1289 0.950 . S
H1266 C1290 0.950 . S
H1267 C1291 0.951 . S
H1268 C1293 0.951 . S
H1269 C1295 0.950 . S
H1270 C1296 0.950 . S
H1271 C1298 0.950 . S
H1272 C1301 0.950 . S
H1273 C1302 0.950 . S
H1274 C1304 0.950 . S
H1275 C1305 0.950 . S
C1276 H1258 0.951 . S
C1276 C1277 1.366 . S
C1276 C1278 1.388 . S
C1277 C1276 1.366 . S
C1277 C1281 1.385 . S
C1278 H1259 0.951 . S
C1278 C1276 1.388 . S
C1278 C1279 1.366 . S
C1279 C1278 1.366 . S
C1279 C1280 1.414 . S
C1279 C1282 1.499 . S
C1280 H1260 0.950 . S
C1280 C1279 1.414 . S
C1280 C1281 1.374 . S
C1281 H1261 0.950 . S
C1281 C1277 1.385 . S
C1281 C1280 1.374 . S
C1282 C1279 1.499 . S
C1282 C1283 1.373 . S
C1282 C1284 1.389 . S
C1283 H1262 0.950 . S
C1283 C1282 1.373 . S
C1283 C1299 1.377 . S
C1284 C1282 1.389 . S
C1284 C1285 1.524 . S
C1284 C1298 1.377 . S
C1285 C1284 1.524 . S
C1285 C1286 1.397 . S
C1285 C1290 1.363 . S
C1286 H1263 0.950 . S
C1286 C1285 1.397 . S
C1286 C1287 1.334 . S
C1287 H1264 0.950 . S
C1287 C1286 1.334 . S
C1287 C1288 1.287 . S
C1288 C1287 1.287 . S
C1288 C1289 1.524 . S
C1288 H1307 0.913 . S
C1289 H1265 0.950 . S
C1289 C1288 1.524 . S
C1289 C1290 1.415 . S
C1290 H1266 0.950 . S
C1290 C1285 1.363 . S
C1290 C1289 1.415 . S
C1291 H1267 0.951 . S
C1291 C1292 1.366 . S
C1291 C1293 1.388 . S
C1292 C1291 1.366 . S
C1292 C1296 1.385 . S
C1293 H1268 0.951 . S
C1293 C1291 1.388 . S
C1293 C1294 1.366 . S
C1294 C1293 1.366 . S
C1294 C1295 1.414 . S
C1294 C1297 1.499 . S
C1295 H1269 0.950 . S
C1295 C1294 1.414 . S
C1295 C1296 1.374 . S
C1296 H1270 0.950 . S
C1296 C1292 1.385 . S
C1296 C1295 1.374 . S
C1297 C1294 1.499 . S
C1297 C1298 1.373 . S
C1297 C1299 1.389 . S
C1298 H1271 0.950 . S
C1298 C1284 1.377 . S
C1298 C1297 1.373 . S
C1299 C1283 1.377 . S
C1299 C1297 1.389 . S
C1299 C1300 1.524 . S
C1300 C1299 1.524 . S
C1300 C1301 1.397 . S
C1300 C1305 1.363 . S
C1301 H1272 0.950 . S
C1301 C1300 1.397 . S
C1301 C1302 1.334 . S
C1302 H1273 0.950 . S
C1302 C1301 1.334 . S
C1302 C1303 1.287 . S
C1303 C1302 1.287 . S
C1303 C1304 1.524 . S
C1303 H1306 0.999 . S
C1304 H1274 0.950 . S
C1304 C1303 1.524 . S
C1304 C1305 1.415 . S
C1305 H1275 0.950 . S
C1305 C1300 1.363 . S
C1305 C1304 1.415 . S
H1306 C1303 0.999 . S
H1307 C1288 0.913 . S
H1308 C1326 0.951 . S
H1309 C1328 0.951 1_554 S
H1310 C1330 0.950 . S
H1311 C1331 0.950 . S
H1312 C1333 0.950 . S
H1313 C1336 0.950 . S
H1314 C1337 0.950 . S
H1315 C1339 0.950 . S
H1316 C1340 0.950 . S
H1317 C1341 0.951 . S
H1318 C1343 0.951 1_556 S
H1319 C1345 0.950 . S
H1320 C1346 0.950 . S
H1321 C1348 0.950 . S
H1322 C1351 0.950 . S
H1323 C1352 0.950 . S
H1324 C1354 0.950 . S
H1325 C1355 0.950 . S
C1326 H1308 0.951 . S
C1326 C1327 1.366 . S
C1326 C1328 1.388 . S
C1327 C1326 1.366 . S
C1327 C1331 1.385 . S
C1328 H1309 0.951 1_556 S
C1328 C1326 1.388 . S
C1328 C1329 1.366 . S
C1329 C1328 1.366 . S
C1329 C1330 1.414 . S
C1329 C1332 1.499 . S
C1330 H1310 0.950 . S
C1330 C1329 1.414 . S
C1330 C1331 1.374 . S
C1331 H1311 0.950 . S
C1331 C1327 1.385 . S
C1331 C1330 1.374 . S
C1332 C1329 1.499 . S
C1332 C1333 1.373 . S
C1332 C1334 1.389 1_556 S
C1333 H1312 0.950 . S
C1333 C1332 1.373 . S
C1333 C1349 1.386 1_565 S
C1334 C1332 1.389 1_554 S
C1334 C1335 1.524 . S
C1334 C1348 1.377 1_565 S
C1335 C1334 1.524 . S
C1335 C1336 1.397 1_554 S
C1335 C1340 1.363 . S
C1336 H1313 0.950 . S
C1336 C1335 1.397 1_556 S
C1336 C1337 1.334 . S
C1337 H1314 0.950 . S
C1337 C1336 1.334 . S
C1337 C1338 1.287 1_556 S
C1338 C1337 1.287 1_554 S
C1338 C1339 1.524 . S
C1338 H1357 0.913 . S
C1339 H1315 0.950 . S
C1339 C1338 1.524 . S
C1339 C1340 1.415 . S
C1340 H1316 0.950 . S
C1340 C1335 1.363 . S
C1340 C1339 1.415 . S
C1341 H1317 0.951 . S
C1341 C1342 1.366 . S
C1341 C1343 1.388 . S
C1342 C1341 1.366 . S
C1342 C1346 1.385 . S
C1343 H1318 0.951 1_554 S
C1343 C1341 1.388 . S
C1343 C1344 1.366 . S
C1344 C1343 1.366 . S
C1344 C1345 1.414 . S
C1344 C1347 1.499 . S
C1345 H1319 0.950 . S
C1345 C1344 1.414 . S
C1345 C1346 1.374 . S
C1346 H1320 0.950 . S
C1346 C1342 1.385 . S
C1346 C1345 1.374 . S
C1347 C1344 1.499 . S
C1347 C1348 1.373 . S
C1347 C1349 1.378 1_554 S
C1348 H1321 0.950 . S
C1348 C1334 1.377 1_545 S
C1348 C1347 1.373 . S
C1349 C1333 1.386 1_545 S
C1349 C1347 1.378 1_556 S
C1349 C1350 1.526 . S
C1350 C1349 1.526 . S
C1350 C1351 1.397 1_556 S
C1350 C1355 1.363 . S
C1351 H1322 0.950 . S
C1351 C1350 1.397 1_554 S
C1351 C1352 1.334 . S
C1352 H1323 0.950 . S
C1352 C1351 1.334 . S
C1352 C1353 1.287 1_554 S
C1353 C1352 1.287 1_556 S
C1353 C1354 1.524 . S
C1353 H1356 0.999 . S
C1354 H1324 0.950 . S
C1354 C1353 1.524 . S
C1354 C1355 1.415 . S
C1355 H1325 0.950 . S
C1355 C1350 1.363 . S
C1355 C1354 1.415 . S
H1356 C1353 0.999 . S
H1357 C1338 0.913 . S
H1358 C1376 0.951 . S
H1359 C1378 0.951 . S
H1360 C1380 0.950 . S
H1361 C1381 0.950 . S
H1362 C1383 0.950 . S
H1363 C1386 0.950 . S
H1364 C1387 0.950 . S
H1365 C1389 0.950 . S
H1366 C1390 0.950 . S
H1367 C1391 0.951 . S
H1368 C1393 0.951 . S
H1369 C1395 0.950 . S
H1370 C1396 0.950 . S
H1371 C1398 0.950 . S
H1372 C1401 0.950 . S
H1373 C1402 0.950 . S
H1374 C1404 0.950 . S
H1375 C1405 0.950 . S
C1376 H1358 0.951 . S
C1376 C1377 1.366 . S
C1376 C1378 1.388 . S
C1377 C1376 1.366 . S
C1377 C1381 1.385 . S
C1378 H1359 0.951 . S
C1378 C1376 1.388 . S
C1378 C1379 1.366 . S
C1379 C1378 1.366 . S
C1379 C1380 1.414 . S
C1379 C1382 1.499 . S
C1380 H1360 0.950 . S
C1380 C1379 1.414 . S
C1380 C1381 1.374 . S
C1381 H1361 0.950 . S
C1381 C1377 1.385 . S
C1381 C1380 1.374 . S
C1382 C1379 1.499 . S
C1382 C1383 1.373 . S
C1382 C1384 1.389 . S
C1383 H1362 0.950 . S
C1383 C1382 1.373 . S
C1383 C1399 1.377 . S
C1384 C1382 1.389 . S
C1384 C1385 1.524 . S
C1384 C1398 1.377 . S
C1385 C1384 1.524 . S
C1385 C1386 1.397 . S
C1385 C1390 1.363 . S
C1386 H1363 0.950 . S
C1386 C1385 1.397 . S
C1386 C1387 1.334 . S
C1387 H1364 0.950 . S
C1387 C1386 1.334 . S
C1387 C1388 1.287 . S
C1388 C1387 1.287 . S
C1388 C1389 1.524 . S
C1388 H1407 0.913 . S
C1389 H1365 0.950 . S
C1389 C1388 1.524 . S
C1389 C1390 1.415 . S
C1390 H1366 0.950 . S
C1390 C1385 1.363 . S
C1390 C1389 1.415 . S
C1391 H1367 0.951 . S
C1391 C1392 1.366 . S
C1391 C1393 1.388 . S
C1392 C1391 1.366 . S
C1392 C1396 1.385 . S
C1393 H1368 0.951 . S
C1393 C1391 1.388 . S
C1393 C1394 1.366 . S
C1394 C1393 1.366 . S
C1394 C1395 1.414 . S
C1394 C1397 1.499 . S
C1395 H1369 0.950 . S
C1395 C1394 1.414 . S
C1395 C1396 1.374 . S
C1396 H1370 0.950 . S
C1396 C1392 1.385 . S
C1396 C1395 1.374 . S
C1397 C1394 1.499 . S
C1397 C1398 1.373 . S
C1397 C1399 1.389 . S
C1398 H1371 0.950 . S
C1398 C1384 1.377 . S
C1398 C1397 1.373 . S
C1399 C1383 1.377 . S
C1399 C1397 1.389 . S
C1399 C1400 1.524 . S
C1400 C1399 1.524 . S
C1400 C1401 1.397 . S
C1400 C1405 1.363 . S
C1401 H1372 0.950 . S
C1401 C1400 1.397 . S
C1401 C1402 1.334 . S
C1402 H1373 0.950 . S
C1402 C1401 1.334 . S
C1402 C1403 1.287 . S
C1403 C1402 1.287 . S
C1403 C1404 1.524 . S
C1403 H1406 0.999 . S
C1404 H1374 0.950 . S
C1404 C1403 1.524 . S
C1404 C1405 1.415 . S
C1405 H1375 0.950 . S
C1405 C1400 1.363 . S
C1405 C1404 1.415 . S
H1406 C1403 0.999 . S
H1407 C1388 0.913 . S
H1408 C1426 0.951 . S
H1409 C1428 0.951 . S
H1410 C1430 0.950 . S
H1411 C1431 0.950 . S
H1412 C1433 0.950 . S
H1413 C1436 0.950 . S
H1414 C1437 0.950 . S
H1415 C1439 0.950 . S
H1416 C1440 0.950 . S
H1417 C1441 0.951 . S
H1418 C1443 0.951 . S
H1419 C1445 0.950 . S
H1420 C1446 0.950 . S
H1421 C1448 0.950 . S
H1422 C1451 0.950 . S
H1423 C1452 0.950 . S
H1424 C1454 0.950 . S
H1425 C1455 0.950 . S
C1426 H1408 0.951 . S
C1426 C1427 1.366 . S
C1426 C1428 1.388 . S
C1427 C1426 1.366 . S
C1427 C1431 1.385 . S
C1428 H1409 0.951 . S
C1428 C1426 1.388 . S
C1428 C1429 1.366 . S
C1429 C1428 1.366 . S
C1429 C1430 1.414 . S
C1429 C1432 1.499 . S
C1430 H1410 0.950 . S
C1430 C1429 1.414 . S
C1430 C1431 1.374 . S
C1431 H1411 0.950 . S
C1431 C1427 1.385 . S
C1431 C1430 1.374 . S
C1432 C1429 1.499 . S
C1432 C1433 1.373 . S
C1432 C1434 1.389 . S
C1433 H1412 0.950 . S
C1433 C1432 1.373 . S
C1433 C1449 1.377 1_655 S
C1434 C1432 1.389 . S
C1434 C1435 1.524 . S
C1434 C1448 1.377 1_655 S
C1435 C1434 1.524 . S
C1435 C1436 1.397 . S
C1435 C1440 1.363 . S
C1436 H1413 0.950 . S
C1436 C1435 1.397 . S
C1436 C1437 1.334 . S
C1437 H1414 0.950 . S
C1437 C1436 1.334 . S
C1437 C1438 1.287 . S
C1438 C1437 1.287 . S
C1438 C1439 1.524 . S
C1438 H1457 0.913 . S
C1439 H1415 0.950 . S
C1439 C1438 1.524 . S
C1439 C1440 1.415 . S
C1440 H1416 0.950 . S
C1440 C1435 1.363 . S
C1440 C1439 1.415 . S
C1441 H1417 0.951 . S
C1441 C1442 1.366 . S
C1441 C1443 1.388 . S
C1442 C1441 1.366 . S
C1442 C1446 1.385 . S
C1443 H1418 0.951 . S
C1443 C1441 1.388 . S
C1443 C1444 1.366 . S
C1444 C1443 1.366 . S
C1444 C1445 1.414 . S
C1444 C1447 1.499 . S
C1445 H1419 0.950 . S
C1445 C1444 1.414 . S
C1445 C1446 1.374 . S
C1446 H1420 0.950 . S
C1446 C1442 1.385 . S
C1446 C1445 1.374 . S
C1447 C1444 1.499 . S
C1447 C1448 1.373 . S
C1447 C1449 1.389 . S
C1448 H1421 0.950 . S
C1448 C1434 1.377 1_455 S
C1448 C1447 1.373 . S
C1449 C1433 1.377 1_455 S
C1449 C1447 1.389 . S
C1449 C1450 1.524 . S
C1450 C1449 1.524 . S
C1450 C1451 1.397 . S
C1450 C1455 1.363 . S
C1451 H1422 0.950 . S
C1451 C1450 1.397 . S
C1451 C1452 1.334 . S
C1452 H1423 0.950 . S
C1452 C1451 1.334 . S
C1452 C1453 1.287 . S
C1453 C1452 1.287 . S
C1453 C1454 1.524 . S
C1453 H1456 0.999 . S
C1454 H1424 0.950 . S
C1454 C1453 1.524 . S
C1454 C1455 1.415 . S
C1455 H1425 0.950 . S
C1455 C1450 1.363 . S
C1455 C1454 1.415 . S
H1456 C1453 0.999 . S
H1457 C1438 0.913 . S
H1458 C1476 0.951 . S
H1459 C1478 0.951 . S
H1460 C1480 0.950 . S
H1461 C1481 0.950 . S
H1462 C1483 0.950 . S
H1463 C1486 0.950 . S
H1464 C1487 0.950 . S
H1465 C1489 0.950 . S
H1466 C1490 0.950 . S
H1467 C1491 0.951 . S
H1468 C1493 0.951 . S
H1469 C1495 0.950 . S
H1470 C1496 0.950 . S
H1471 C1498 0.950 . S
H1472 C1501 0.950 . S
H1473 C1502 0.950 . S
H1474 C1504 0.950 . S
H1475 C1505 0.950 . S
C1476 H1458 0.951 . S
C1476 C1477 1.366 . S
C1476 C1478 1.388 . S
C1477 C1476 1.366 . S
C1477 C1481 1.385 . S
C1478 H1459 0.951 . S
C1478 C1476 1.388 . S
C1478 C1479 1.366 . S
C1479 C1478 1.366 . S
C1479 C1480 1.414 . S
C1479 C1482 1.499 . S
C1480 H1460 0.950 . S
C1480 C1479 1.414 . S
C1480 C1481 1.374 . S
C1481 H1461 0.950 . S
C1481 C1477 1.385 . S
C1481 C1480 1.374 . S
C1482 C1479 1.499 . S
C1482 C1483 1.373 . S
C1482 C1484 1.389 1_554 S
C1483 H1462 0.950 . S
C1483 C1482 1.373 . S
C1483 C1499 1.377 1_565 S
C1484 C1482 1.389 1_556 S
C1484 C1485 1.524 . S
C1484 C1498 1.377 1_565 S
C1485 C1484 1.524 . S
C1485 C1486 1.397 . S
C1485 C1490 1.363 . S
C1486 H1463 0.950 . S
C1486 C1485 1.397 . S
C1486 C1487 1.334 . S
C1487 H1464 0.950 . S
C1487 C1486 1.334 . S
C1487 C1488 1.287 . S
C1488 C1487 1.287 . S
C1488 C1489 1.524 . S
C1488 H1507 0.913 . S
C1489 H1465 0.950 . S
C1489 C1488 1.524 . S
C1489 C1490 1.415 . S
C1490 H1466 0.950 . S
C1490 C1485 1.363 . S
C1490 C1489 1.415 . S
C1491 H1467 0.951 . S
C1491 C1492 1.366 . S
C1491 C1493 1.388 . S
C1492 C1491 1.366 . S
C1492 C1496 1.385 . S
C1493 H1468 0.951 . S
C1493 C1491 1.388 . S
C1493 C1494 1.366 . S
C1494 C1493 1.366 . S
C1494 C1495 1.414 . S
C1494 C1497 1.499 . S
C1495 H1469 0.950 . S
C1495 C1494 1.414 . S
C1495 C1496 1.374 . S
C1496 H1470 0.950 . S
C1496 C1492 1.385 . S
C1496 C1495 1.374 . S
C1497 C1494 1.499 . S
C1497 C1498 1.373 . S
C1497 C1499 1.389 1_556 S
C1498 H1471 0.950 . S
C1498 C1484 1.377 1_545 S
C1498 C1497 1.373 . S
C1499 C1483 1.377 1_545 S
C1499 C1497 1.389 1_554 S
C1499 C1500 1.524 . S
C1500 C1499 1.524 . S
C1500 C1501 1.397 . S
C1500 C1505 1.363 . S
C1501 H1472 0.950 . S
C1501 C1500 1.397 . S
C1501 C1502 1.334 . S
C1502 H1473 0.950 . S
C1502 C1501 1.334 . S
C1502 C1503 1.287 . S
C1503 C1502 1.287 . S
C1503 C1504 1.524 . S
C1503 H1506 0.999 . S
C1504 H1474 0.950 . S
C1504 C1503 1.524 . S
C1504 C1505 1.415 . S
C1505 H1475 0.950 . S
C1505 C1500 1.363 . S
C1505 C1504 1.415 . S
H1506 C1503 0.999 . S
H1507 C1488 0.913 . S
H1508 C1526 0.951 . S
H1509 C1528 0.951 . S
H1510 C1530 0.950 . S
H1511 C1531 0.950 . S
H1512 C1533 0.950 . S
H1513 C1536 0.950 . S
H1514 C1537 0.950 . S
H1515 C1539 0.950 . S
H1516 C1540 0.950 . S
H1517 C1541 0.951 . S
H1518 C1543 0.951 . S
H1519 C1545 0.950 . S
H1520 C1546 0.950 . S
H1521 C1548 0.950 . S
H1522 C1551 0.950 . S
H1523 C1552 0.950 . S
H1524 C1554 0.950 . S
H1525 C1555 0.950 . S
C1526 H1508 0.951 . S
C1526 C1527 1.366 . S
C1526 C1528 1.388 . S
C1527 C1526 1.366 . S
C1527 C1531 1.385 . S
C1528 H1509 0.951 . S
C1528 C1526 1.388 . S
C1528 C1529 1.366 . S
C1529 C1528 1.366 . S
C1529 C1530 1.414 . S
C1529 C1532 1.499 . S
C1530 H1510 0.950 . S
C1530 C1529 1.414 . S
C1530 C1531 1.374 . S
C1531 H1511 0.950 . S
C1531 C1527 1.385 . S
C1531 C1530 1.374 . S
C1532 C1529 1.499 . S
C1532 C1533 1.373 . S
C1532 C1534 1.389 . S
C1533 H1512 0.950 . S
C1533 C1532 1.373 . S
C1533 C1549 1.377 . S
C1534 C1532 1.389 . S
C1534 C1535 1.524 . S
C1534 C1548 1.377 . S
C1535 C1534 1.524 . S
C1535 C1536 1.397 . S
C1535 C1540 1.363 . S
C1536 H1513 0.950 . S
C1536 C1535 1.397 . S
C1536 C1537 1.334 . S
C1537 H1514 0.950 . S
C1537 C1536 1.334 . S
C1537 C1538 1.287 . S
C1538 C1537 1.287 . S
C1538 C1539 1.524 . S
C1538 H1557 0.913 . S
C1539 H1515 0.950 . S
C1539 C1538 1.524 . S
C1539 C1540 1.415 . S
C1540 H1516 0.950 . S
C1540 C1535 1.363 . S
C1540 C1539 1.415 . S
C1541 H1517 0.951 . S
C1541 C1542 1.366 . S
C1541 C1543 1.388 . S
C1542 C1541 1.366 . S
C1542 C1546 1.385 . S
C1543 H1518 0.951 . S
C1543 C1541 1.388 . S
C1543 C1544 1.366 . S
C1544 C1543 1.366 . S
C1544 C1545 1.414 . S
C1544 C1547 1.499 . S
C1545 H1519 0.950 . S
C1545 C1544 1.414 . S
C1545 C1546 1.374 . S
C1546 H1520 0.950 . S
C1546 C1542 1.385 . S
C1546 C1545 1.374 . S
C1547 C1544 1.499 . S
C1547 C1548 1.373 . S
C1547 C1549 1.389 . S
C1548 H1521 0.950 . S
C1548 C1534 1.377 . S
C1548 C1547 1.373 . S
C1549 C1533 1.377 . S
C1549 C1547 1.389 . S
C1549 C1550 1.524 . S
C1550 C1549 1.524 . S
C1550 C1551 1.397 . S
C1550 C1555 1.363 . S
C1551 H1522 0.950 . S
C1551 C1550 1.397 . S
C1551 C1552 1.334 . S
C1552 H1523 0.950 . S
C1552 C1551 1.334 . S
C1552 C1553 1.287 . S
C1553 C1552 1.287 . S
C1553 C1554 1.524 . S
C1553 H1556 0.999 . S
C1554 H1524 0.950 . S
C1554 C1553 1.524 . S
C1554 C1555 1.415 . S
C1555 H1525 0.950 . S
C1555 C1550 1.363 . S
C1555 C1554 1.415 . S
H1556 C1553 0.999 . S
H1557 C1538 0.913 . S
H1558 C1576 0.951 . S
H1559 C1578 0.951 . S
H1560 C1580 0.950 . S
H1561 C1581 0.950 . S
H1562 C1583 0.950 . S
H1563 C1586 0.950 . S
H1564 C1587 0.950 . S
H1565 C1589 0.950 . S
H1566 C1590 0.950 . S
H1567 C1591 0.951 . S
H1568 C1593 0.951 . S
H1569 C1595 0.950 . S
H1570 C1596 0.950 . S
H1571 C1598 0.950 . S
H1572 C1601 0.950 . S
H1573 C1602 0.950 . S
H1574 C1604 0.950 . S
H1575 C1605 0.950 . S
C1576 H1558 0.951 . S
C1576 C1577 1.366 . S
C1576 C1578 1.388 . S
C1577 C1576 1.366 . S
C1577 C1581 1.385 . S
C1578 H1559 0.951 . S
C1578 C1576 1.388 . S
C1578 C1579 1.366 . S
C1579 C1578 1.366 . S
C1579 C1580 1.414 . S
C1579 C1582 1.499 . S
C1580 H1560 0.950 . S
C1580 C1579 1.414 . S
C1580 C1581 1.374 . S
C1581 H1561 0.950 . S
C1581 C1577 1.385 . S
C1581 C1580 1.374 . S
C1582 C1579 1.499 . S
C1582 C1583 1.373 . S
C1582 C1584 1.389 . S
C1583 H1562 0.950 . S
C1583 C1582 1.373 . S
C1583 C1599 1.377 1_455 S
C1584 C1582 1.389 . S
C1584 C1585 1.524 . S
C1584 C1598 1.377 1_455 S
C1585 C1584 1.524 . S
C1585 C1586 1.397 . S
C1585 C1590 1.363 1_455 S
C1586 H1563 0.950 . S
C1586 C1585 1.397 . S
C1586 C1587 1.334 . S
C1587 H1564 0.950 . S
C1587 C1586 1.334 . S
C1587 C1588 1.287 . S
C1588 C1587 1.287 . S
C1588 C1589 1.524 1_455 S
C1588 H1607 0.913 . S
C1589 H1565 0.950 . S
C1589 C1588 1.524 1_655 S
C1589 C1590 1.415 . S
C1590 H1566 0.950 . S
C1590 C1585 1.363 1_655 S
C1590 C1589 1.415 . S
C1591 H1567 0.951 . S
C1591 C1592 1.366 . S
C1591 C1593 1.388 . S
C1592 C1591 1.366 . S
C1592 C1596 1.385 . S
C1593 H1568 0.951 . S
C1593 C1591 1.388 . S
C1593 C1594 1.366 . S
C1594 C1593 1.366 . S
C1594 C1595 1.414 . S
C1594 C1597 1.499 . S
C1595 H1569 0.950 . S
C1595 C1594 1.414 . S
C1595 C1596 1.374 . S
C1596 H1570 0.950 . S
C1596 C1592 1.385 . S
C1596 C1595 1.374 . S
C1597 C1594 1.499 . S
C1597 C1598 1.373 . S
C1597 C1599 1.389 . S
C1598 H1571 0.950 . S
C1598 C1584 1.377 1_655 S
C1598 C1597 1.373 . S
C1599 C1583 1.377 1_655 S
C1599 C1597 1.389 . S
C1599 C1600 1.524 . S
C1600 C1599 1.524 . S
C1600 C1601 1.397 . S
C1600 C1605 1.363 1_655 S
C1601 H1572 0.950 . S
C1601 C1600 1.397 . S
C1601 C1602 1.334 . S
C1602 H1573 0.950 . S
C1602 C1601 1.334 . S
C1602 C1603 1.287 . S
C1603 C1602 1.287 . S
C1603 C1604 1.524 1_655 S
C1603 H1606 0.999 . S
C1604 H1574 0.950 . S
C1604 C1603 1.524 1_455 S
C1604 C1605 1.415 . S
C1605 H1575 0.950 . S
C1605 C1600 1.363 1_455 S
C1605 C1604 1.415 . S
H1606 C1603 0.999 . S
H1607 C1588 0.913 . S
H1608 C1626 0.931 1_655 S
H1609 C1628 0.951 1_554 S
H1610 C1630 0.950 . S
H1611 C1631 0.950 . S
H1612 C1633 0.950 . S
H1613 C1636 0.995 . S
H1614 C1637 0.950 . S
H1615 C1639 0.950 . S
H1616 C1640 0.950 . S
H1617 C1641 0.951 . S
H1618 C1643 0.951 1_556 S
H1619 C1645 0.950 . S
H1620 C1646 0.950 . S
H1621 C1648 0.950 . S
H1622 C1651 0.950 1_554 S
H1623 C1652 0.950 . S
H1624 C1654 0.950 . S
H1625 C1655 0.950 . S
C1626 H1608 0.931 1_455 S
C1626 C1627 1.363 . S
C1626 C1628 1.411 . S
C1627 C1626 1.363 . S
C1627 C1631 1.385 . S
C1628 H1609 0.951 1_556 S
C1628 C1626 1.411 . S
C1628 C1629 1.366 . S
C1629 C1628 1.366 . S
C1629 C1630 1.414 . S
C1629 C1632 1.499 . S
C1630 H1610 0.950 . S
C1630 C1629 1.414 . S
C1630 C1631 1.374 . S
C1631 H1611 0.950 . S
C1631 C1627 1.385 . S
C1631 C1630 1.374 . S
C1632 C1629 1.499 . S
C1632 C1633 1.373 . S
C1632 C1634 1.389 1_556 S
C1633 H1612 0.950 . S
C1633 C1632 1.373 . S
C1633 C1649 1.377 . S
C1634 C1632 1.389 1_554 S
C1634 C1635 1.524 . S
C1634 C1648 1.377 . S
C1635 C1634 1.524 . S
C1635 C1636 1.397 . S
C1635 C1640 1.363 . S
C1636 H1613 0.995 . S
C1636 C1635 1.397 . S
C1636 C1637 1.334 . S
C1637 H1614 0.950 . S
C1637 C1636 1.334 . S
C1637 C1638 1.287 . S
C1638 C1637 1.287 . S
C1638 C1639 1.524 . S
C1638 H1657 0.913 . S
C1639 H1615 0.950 . S
C1639 C1638 1.524 . S
C1639 C1640 1.415 . S
C1640 H1616 0.950 . S
C1640 C1635 1.363 . S
C1640 C1639 1.415 . S
C1641 H1617 0.951 . S
C1641 C1642 1.366 . S
C1641 C1643 1.388 . S
C1642 C1641 1.366 . S
C1642 C1646 1.385 . S
C1643 H1618 0.951 1_554 S
C1643 C1641 1.388 . S
C1643 C1644 1.366 . S
C1644 C1643 1.366 . S
C1644 C1645 1.414 . S
C1644 C1647 1.499 . S
C1645 H1619 0.950 . S
C1645 C1644 1.414 . S
C1645 C1646 1.374 . S
C1646 H1620 0.950 . S
C1646 C1642 1.385 . S
C1646 C1645 1.374 . S
C1647 C1644 1.499 . S
C1647 C1648 1.373 . S
C1647 C1649 1.389 1_554 S
C1648 H1621 0.950 . S
C1648 C1634 1.377 . S
C1648 C1647 1.373 . S
C1649 C1633 1.377 . S
C1649 C1647 1.389 1_556 S
C1649 C1650 1.524 . S
C1650 C1649 1.524 . S
C1650 C1651 1.397 . S
C1650 C1655 1.363 . S
C1651 H1622 0.950 1_556 S
C1651 C1650 1.397 . S
C1651 C1652 1.334 . S
C1652 H1623 0.950 . S
C1652 C1651 1.334 . S
C1652 C1653 1.287 . S
C1653 C1652 1.287 . S
C1653 C1654 1.524 . S
C1653 H1656 0.999 . S
C1654 H1624 0.950 . S
C1654 C1653 1.524 . S
C1654 C1655 1.415 . S
C1655 H1625 0.950 . S
C1655 C1650 1.363 . S
C1655 C1654 1.415 . S
H1656 C1653 0.999 . S
H1657 C1638 0.913 . S
H1658 C1676 0.951 . S
H1659 C1678 0.951 . S
H1660 C1680 0.950 . S
H1661 C1681 0.950 . S
H1662 C1683 0.950 . S
H1663 C1686 0.950 . S
H1664 C1687 0.950 . S
H1665 C1689 0.950 . S
H1666 C1690 0.950 . S
H1667 C1691 0.951 . S
H1668 C1693 0.951 . S
H1669 C1695 0.950 . S
H1670 C1696 0.950 . S
H1671 C1698 0.950 . S
H1672 C1701 0.950 . S
H1673 C1702 0.950 . S
H1674 C1704 0.950 . S
H1675 C1705 0.950 . S
C1676 H1658 0.951 . S
C1676 C1677 1.366 . S
C1676 C1678 1.388 . S
C1677 C1676 1.366 . S
C1677 C1681 1.385 . S
C1678 H1659 0.951 . S
C1678 C1676 1.388 . S
C1678 C1679 1.366 . S
C1679 C1678 1.366 . S
C1679 C1680 1.414 . S
C1679 C1682 1.499 . S
C1680 H1660 0.950 . S
C1680 C1679 1.414 . S
C1680 C1681 1.374 . S
C1681 H1661 0.950 . S
C1681 C1677 1.385 . S
C1681 C1680 1.374 . S
C1682 C1679 1.499 . S
C1682 C1683 1.373 . S
C1682 C1684 1.389 . S
C1683 H1662 0.950 . S
C1683 C1682 1.373 . S
C1683 C1699 1.377 . S
C1684 C1682 1.389 . S
C1684 C1685 1.524 . S
C1684 C1698 1.377 . S
C1685 C1684 1.524 . S
C1685 C1686 1.397 . S
C1685 C1690 1.363 . S
C1686 H1663 0.950 . S
C1686 C1685 1.397 . S
C1686 C1687 1.334 . S
C1687 H1664 0.950 . S
C1687 C1686 1.334 . S
C1687 C1688 1.287 . S
C1688 C1687 1.287 . S
C1688 C1689 1.524 . S
C1688 H1707 0.913 . S
C1689 H1665 0.950 . S
C1689 C1688 1.524 . S
C1689 C1690 1.415 . S
C1690 H1666 0.950 . S
C1690 C1685 1.363 . S
C1690 C1689 1.415 . S
C1691 H1667 0.951 . S
C1691 C1692 1.366 1_455 S
C1691 C1693 1.388 1_455 S
C1692 C1691 1.366 1_655 S
C1692 C1696 1.385 . S
C1693 H1668 0.951 . S
C1693 C1691 1.388 1_655 S
C1693 C1694 1.366 . S
C1694 C1693 1.366 . S
C1694 C1695 1.414 . S
C1694 C1697 1.499 . S
C1695 H1669 0.950 . S
C1695 C1694 1.414 . S
C1695 C1696 1.374 . S
C1696 H1670 0.950 . S
C1696 C1692 1.385 . S
C1696 C1695 1.374 . S
C1697 C1694 1.499 . S
C1697 C1698 1.373 . S
C1697 C1699 1.389 . S
C1698 H1671 0.950 . S
C1698 C1684 1.377 . S
C1698 C1697 1.373 . S
C1699 C1683 1.377 . S
C1699 C1697 1.389 . S
C1699 C1700 1.524 . S
C1700 C1699 1.524 . S
C1700 C1701 1.397 . S
C1700 C1705 1.363 . S
C1701 H1672 0.950 . S
C1701 C1700 1.397 . S
C1701 C1702 1.334 . S
C1702 H1673 0.950 . S
C1702 C1701 1.334 . S
C1702 C1703 1.287 . S
C1703 C1702 1.287 . S
C1703 C1704 1.524 . S
C1703 H1706 0.999 1_655 S
C1704 H1674 0.950 . S
C1704 C1703 1.524 . S
C1704 C1705 1.415 . S
C1705 H1675 0.950 . S
C1705 C1700 1.363 . S
C1705 C1704 1.415 . S
H1706 C1703 0.999 1_455 S
H1707 C1688 0.913 . S
H1708 C1726 0.951 . S
H1709 C1728 0.951 . S
H1710 C1730 0.950 . S
H1711 C1731 0.950 . S
H1712 C1733 0.950 . S
H1713 C1736 0.950 . S
H1714 C1737 0.950 . S
H1715 C1739 0.950 . S
H1716 C1740 0.950 . S
H1717 C1741 0.951 1_545 S
H1718 C1743 0.951 . S
H1719 C1745 0.950 . S
H1720 C1746 0.950 . S
H1721 C1748 0.950 . S
H1722 C1751 0.950 . S
H1723 C1752 0.950 . S
H1724 C1754 0.950 . S
H1725 C1755 0.950 . S
C1726 H1708 0.951 . S
C1726 C1727 1.366 . S
C1726 C1728 1.388 . S
C1727 C1726 1.366 . S
C1727 C1731 1.385 . S
C1728 H1709 0.951 . S
C1728 C1726 1.388 . S
C1728 C1729 1.366 . S
C1729 C1728 1.366 . S
C1729 C1730 1.414 . S
C1729 C1732 1.499 . S
C1730 H1710 0.950 . S
C1730 C1729 1.414 . S
C1730 C1731 1.374 . S
C1731 H1711 0.950 . S
C1731 C1727 1.385 . S
C1731 C1730 1.374 . S
C1732 C1729 1.499 . S
C1732 C1733 1.373 . S
C1732 C1734 1.389 . S
C1733 H1712 0.950 . S
C1733 C1732 1.373 . S
C1733 C1749 1.377 . S
C1734 C1732 1.389 . S
C1734 C1735 1.524 . S
C1734 C1748 1.377 . S
C1735 C1734 1.524 . S
C1735 C1736 1.397 . S
C1735 C1740 1.363 . S
C1736 H1713 0.950 . S
C1736 C1735 1.397 . S
C1736 C1737 1.334 . S
C1737 H1714 0.950 . S
C1737 C1736 1.334 . S
C1737 C1738 1.287 . S
C1738 C1737 1.287 . S
C1738 C1739 1.524 . S
C1738 H1757 0.913 . S
C1739 H1715 0.950 . S
C1739 C1738 1.524 . S
C1739 C1740 1.415 . S
C1740 H1716 0.950 . S
C1740 C1735 1.363 . S
C1740 C1739 1.415 . S
C1741 H1717 0.951 1_565 S
C1741 C1742 1.366 . S
C1741 C1743 1.388 . S
C1742 C1741 1.366 . S
C1742 C1746 1.385 . S
C1743 H1718 0.951 . S
C1743 C1741 1.388 . S
C1743 C1744 1.366 . S
C1744 C1743 1.366 . S
C1744 C1745 1.414 . S
C1744 C1747 1.499 . S
C1745 H1719 0.950 . S
C1745 C1744 1.414 . S
C1745 C1746 1.374 . S
C1746 H1720 0.950 . S
C1746 C1742 1.385 . S
C1746 C1745 1.374 . S
C1747 C1744 1.499 . S
C1747 C1748 1.373 . S
C1747 C1749 1.389 . S
C1748 H1721 0.950 . S
C1748 C1734 1.377 . S
C1748 C1747 1.373 . S
C1749 C1733 1.377 . S
C1749 C1747 1.389 . S
C1749 C1750 1.524 . S
C1750 C1749 1.524 . S
C1750 C1751 1.397 . S
C1750 C1755 1.363 . S
C1751 H1722 0.950 . S
C1751 C1750 1.397 . S
C1751 C1752 1.334 . S
C1752 H1723 0.950 . S
C1752 C1751 1.334 . S
C1752 C1753 1.287 . S
C1753 C1752 1.287 . S
C1753 C1754 1.524 . S
C1753 H1756 0.999 . S
C1754 H1724 0.950 . S
C1754 C1753 1.524 . S
C1754 C1755 1.415 . S
C1755 H1725 0.950 . S
C1755 C1750 1.363 . S
C1755 C1754 1.415 . S
H1756 C1753 0.999 . S
H1757 C1738 0.913 . S
H1758 C1776 0.951 . S
H1759 C1778 0.951 . S
H1760 C1780 0.950 . S
H1761 C1781 0.950 . S
H1762 C1783 0.950 . S
H1763 C1786 0.950 . S
H1764 C1787 0.950 . S
H1765 C1789 0.950 . S
H1766 C1790 0.950 . S
H1767 C1791 0.951 1_455 S
H1768 C1793 0.951 . S
H1769 C1795 0.950 . S
H1770 C1796 0.950 . S
H1771 C1798 0.950 . S
H1772 C1801 0.950 . S
H1773 C1802 0.950 . S
H1774 C1804 0.950 . S
H1775 C1805 0.950 . S
C1776 H1758 0.951 . S
C1776 C1777 1.366 . S
C1776 C1778 1.388 . S
C1777 C1776 1.366 . S
C1777 C1781 1.385 . S
C1778 H1759 0.951 . S
C1778 C1776 1.388 . S
C1778 C1779 1.366 . S
C1779 C1778 1.366 . S
C1779 C1780 1.414 . S
C1779 C1782 1.499 . S
C1780 H1760 0.950 . S
C1780 C1779 1.414 . S
C1780 C1781 1.374 . S
C1781 H1761 0.950 . S
C1781 C1777 1.385 . S
C1781 C1780 1.374 . S
C1782 C1779 1.499 . S
C1782 C1783 1.373 1_554 S
C1782 C1784 1.389 . S
C1783 H1762 0.950 . S
C1783 C1782 1.373 1_556 S
C1783 C1799 1.377 . S
C1784 C1782 1.389 . S
C1784 C1785 1.524 . S
C1784 C1798 1.377 . S
C1785 C1784 1.524 . S
C1785 C1786 1.397 . S
C1785 C1790 1.363 . S
C1786 H1763 0.950 . S
C1786 C1785 1.397 . S
C1786 C1787 1.334 . S
C1787 H1764 0.950 . S
C1787 C1786 1.334 . S
C1787 C1788 1.287 . S
C1788 C1787 1.287 . S
C1788 C1789 1.524 . S
C1788 H1807 0.913 . S
C1789 H1765 0.950 . S
C1789 C1788 1.524 . S
C1789 C1790 1.415 . S
C1790 H1766 0.950 . S
C1790 C1785 1.363 . S
C1790 C1789 1.415 . S
C1791 H1767 0.951 1_655 S
C1791 C1792 1.366 . S
C1791 C1793 1.388 . S
C1792 C1791 1.366 . S
C1792 C1796 1.385 . S
C1793 H1768 0.951 . S
C1793 C1791 1.388 . S
C1793 C1794 1.366 . S
C1794 C1793 1.366 . S
C1794 C1795 1.414 . S
C1794 C1797 1.499 . S
C1795 H1769 0.950 . S
C1795 C1794 1.414 . S
C1795 C1796 1.374 . S
C1796 H1770 0.950 . S
C1796 C1792 1.385 . S
C1796 C1795 1.374 . S
C1797 C1794 1.499 . S
C1797 C1798 1.373 1_556 S
C1797 C1799 1.389 . S
C1798 H1771 0.950 . S
C1798 C1784 1.377 . S
C1798 C1797 1.373 1_554 S
C1799 C1783 1.377 . S
C1799 C1797 1.389 . S
C1799 C1800 1.524 . S
C1800 C1799 1.524 . S
C1800 C1801 1.397 . S
C1800 C1805 1.363 . S
C1801 H1772 0.950 . S
C1801 C1800 1.397 . S
C1801 C1802 1.334 . S
C1802 H1773 0.950 . S
C1802 C1801 1.334 . S
C1802 C1803 1.287 . S
C1803 C1802 1.287 . S
C1803 C1804 1.524 . S
C1803 H1806 0.999 . S
C1804 H1774 0.950 . S
C1804 C1803 1.524 . S
C1804 C1805 1.415 . S
C1805 H1775 0.950 . S
C1805 C1800 1.363 . S
C1805 C1804 1.415 . S
H1806 C1803 0.999 . S
H1807 C1788 0.913 . S
H1808 C1826 0.959 . S
H1809 C1828 0.951 . S
H1810 C1830 0.950 . S
H1811 C1831 0.950 . S
H1812 C1833 0.950 . S
H1813 C1836 0.950 . S
H1814 C1837 0.950 . S
H1815 C1839 0.950 . S
H1816 C1840 0.950 . S
H1817 C1841 0.951 . S
H1818 C1843 0.951 . S
H1819 C1845 0.950 . S
H1820 C1846 0.950 1_545 S
H1821 C1848 0.950 . S
H1822 C1851 0.950 . S
H1823 C1852 0.950 . S
H1824 C1854 0.950 . S
H1825 C1855 0.950 . S
C1826 H1808 0.959 . S
C1826 C1827 1.362 1_655 S
C1826 C1828 1.384 1_655 S
C1827 C1826 1.362 1_455 S
C1827 C1831 1.385 . S
C1828 H1809 0.951 . S
C1828 C1826 1.384 1_455 S
C1828 C1829 1.366 . S
C1829 C1828 1.366 . S
C1829 C1830 1.414 . S
C1829 C1832 1.499 . S
C1830 H1810 0.950 . S
C1830 C1829 1.414 . S
C1830 C1831 1.374 . S
C1831 H1811 0.950 . S
C1831 C1827 1.385 . S
C1831 C1830 1.374 . S
C1832 C1829 1.499 . S
C1832 C1833 1.373 . S
C1832 C1834 1.389 . S
C1833 H1812 0.950 . S
C1833 C1832 1.373 . S
C1833 C1849 1.377 . S
C1834 C1832 1.389 . S
C1834 C1835 1.524 . S
C1834 C1848 1.377 . S
C1835 C1834 1.524 . S
C1835 C1836 1.397 . S
C1835 C1840 1.363 . S
C1836 H1813 0.950 . S
C1836 C1835 1.397 . S
C1836 C1837 1.334 . S
C1837 H1814 0.950 . S
C1837 C1836 1.334 . S
C1837 C1838 1.287 . S
C1838 C1837 1.287 . S
C1838 C1839 1.524 . S
C1838 H1857 0.913 1_455 S
C1839 H1815 0.950 . S
C1839 C1838 1.524 . S
C1839 C1840 1.415 . S
C1840 H1816 0.950 . S
C1840 C1835 1.363 . S
C1840 C1839 1.415 . S
C1841 H1817 0.951 . S
C1841 C1842 1.366 . S
C1841 C1843 1.388 . S
C1842 C1841 1.366 . S
C1842 C1846 1.385 . S
C1843 H1818 0.951 . S
C1843 C1841 1.388 . S
C1843 C1844 1.366 . S
C1844 C1843 1.366 . S
C1844 C1845 1.414 . S
C1844 C1847 1.499 . S
C1845 H1819 0.950 . S
C1845 C1844 1.414 . S
C1845 C1846 1.374 . S
C1846 H1820 0.950 1_565 S
C1846 C1842 1.385 . S
C1846 C1845 1.374 . S
C1847 C1844 1.499 . S
C1847 C1848 1.373 . S
C1847 C1849 1.389 . S
C1848 H1821 0.950 . S
C1848 C1834 1.377 . S
C1848 C1847 1.373 . S
C1849 C1833 1.377 . S
C1849 C1847 1.389 . S
C1849 C1850 1.524 . S
C1850 C1849 1.524 . S
C1850 C1851 1.397 . S
C1850 C1855 1.363 . S
C1851 H1822 0.950 . S
C1851 C1850 1.397 . S
C1851 C1852 1.334 . S
C1852 H1823 0.950 . S
C1852 C1851 1.334 . S
C1852 C1853 1.287 . S
C1853 C1852 1.287 . S
C1853 C1854 1.524 . S
C1853 H1856 0.999 . S
C1854 H1824 0.950 . S
C1854 C1853 1.524 . S
C1854 C1855 1.415 . S
C1855 H1825 0.950 . S
C1855 C1850 1.363 . S
C1855 C1854 1.415 . S
H1856 C1853 0.999 . S
H1857 C1838 0.913 1_655 S
H1858 C1876 0.951 1_565 S
H1859 C1878 0.951 . S
H1860 C1880 0.950 . S
H1861 C1881 0.950 . S
H1862 C1883 0.950 . S
H1863 C1886 0.950 . S
H1864 C1887 0.950 . S
H1865 C1889 0.950 . S
H1866 C1890 0.950 . S
H1867 C1891 0.951 . S
H1868 C1893 0.951 . S
H1869 C1895 0.950 . S
H1870 C1896 0.950 . S
H1871 C1898 0.950 . S
H1872 C1901 0.950 . S
H1873 C1902 0.950 . S
H1874 C1904 0.950 . S
H1875 C1905 0.950 . S
C1876 H1858 0.951 1_545 S
C1876 C1877 1.366 . S
C1876 C1878 1.388 . S
C1877 C1876 1.366 . S
C1877 C1881 1.385 . S
C1878 H1859 0.951 . S
C1878 C1876 1.388 . S
C1878 C1879 1.366 . S
C1879 C1878 1.366 . S
C1879 C1880 1.414 . S
C1879 C1882 1.499 . S
C1880 H1860 0.950 . S
C1880 C1879 1.414 . S
C1880 C1881 1.374 . S
C1881 H1861 0.950 . S
C1881 C1877 1.385 . S
C1881 C1880 1.374 . S
C1882 C1879 1.499 . S
C1882 C1883 1.373 . S
C1882 C1884 1.389 . S
C1883 H1862 0.950 . S
C1883 C1882 1.373 . S
C1883 C1899 1.377 . S
C1884 C1882 1.389 . S
C1884 C1885 1.524 . S
C1884 C1898 1.377 . S
C1885 C1884 1.524 . S
C1885 C1886 1.397 . S
C1885 C1890 1.363 . S
C1886 H1863 0.950 . S
C1886 C1885 1.397 . S
C1886 C1887 1.334 1_545 S
C1887 H1864 0.950 . S
C1887 C1886 1.334 1_565 S
C1887 C1888 1.287 . S
C1888 C1887 1.287 . S
C1888 C1889 1.524 1_565 S
C1888 H1907 0.913 . S
C1889 H1865 0.950 . S
C1889 C1888 1.524 1_545 S
C1889 C1890 1.415 . S
C1890 H1866 0.950 . S
C1890 C1885 1.363 . S
C1890 C1889 1.415 . S
C1891 H1867 0.951 . S
C1891 C1892 1.366 . S
C1891 C1893 1.388 . S
C1892 C1891 1.366 . S
C1892 C1896 1.385 . S
C1893 H1868 0.951 . S
C1893 C1891 1.388 . S
C1893 C1894 1.366 . S
C1894 C1893 1.366 . S
C1894 C1895 1.414 . S
C1894 C1897 1.499 . S
C1895 H1869 0.950 . S
C1895 C1894 1.414 . S
C1895 C1896 1.374 . S
C1896 H1870 0.950 . S
C1896 C1892 1.385 . S
C1896 C1895 1.374 . S
C1897 C1894 1.499 . S
C1897 C1898 1.373 . S
C1897 C1899 1.389 . S
C1898 H1871 0.950 . S
C1898 C1884 1.377 . S
C1898 C1897 1.373 . S
C1899 C1883 1.377 . S
C1899 C1897 1.389 . S
C1899 C1900 1.524 . S
C1900 C1899 1.524 . S
C1900 C1901 1.397 . S
C1900 C1905 1.363 . S
C1901 H1872 0.950 . S
C1901 C1900 1.397 . S
C1901 C1902 1.334 . S
C1902 H1873 0.950 . S
C1902 C1901 1.334 . S
C1902 C1903 1.287 . S
C1903 C1902 1.287 . S
C1903 C1904 1.524 . S
C1903 H1906 0.999 . S
C1904 H1874 0.950 . S
C1904 C1903 1.524 . S
C1904 C1905 1.415 . S
C1905 H1875 0.950 . S
C1905 C1900 1.363 . S
C1905 C1904 1.415 . S
H1906 C1903 0.999 . S
H1907 C1888 0.913 . S
C727 C180 1.300 . S
C742 C3 1.300 . S
C777 C62 1.300 . S
C792 C239 1.300 . S
C827 C298 1.300 . S
C842 C121 1.300 . S
C877 C357 1.301 . S
C892 C534 1.300 . S
C927 C593 1.300 . S
C942 C416 1.300 . S
C977 C475 1.300 . S
C992 C652 1.300 . S
C1027 C477 1.675 . S
C1042 C5 1.675 . S
C1077 C64 1.675 . S
C1092 C536 1.675 . S
C1127 C123 1.675 . S
C1142 C595 1.675 . S
C1177 C182 1.675 . S
C1192 C654 1.675 . S
C1227 C359 1.675 . S
C1242 C241 1.675 . S
C1277 C418 1.675 . S
C1292 C300 1.675 . S
C1327 C446 1.597 . S
C1342 C33 1.597 . S
C1377 C92 1.597 . S
C1392 C505 1.597 . S
C1427 C151 1.597 . S
C1442 C564 1.597 . S
C1477 C210 1.597 . S
C1492 C623 1.597 . S
C1527 C682 1.597 . S
C1542 C269 1.597 . S
C1577 C328 1.597 . S
C1592 C387 1.597 . S
C1627 C642 1.479 1_455 S
C1642 C52 1.479 . S
C1677 C701 1.479 1_545 S
C1692 C111 1.479 1_655 S
C1727 C406 1.479 . S
C1742 C170 1.479 1_565 S
C1777 C229 1.479 . S
C1792 C465 1.479 1_655 S
C1827 C288 1.479 1_455 S
C1842 C524 1.479 1_565 S
C1877 C347 1.479 1_545 S
C1892 C583 1.479 . S
