# Generated by pormake.
# Topology uns, (4)-cn, num edge types: 1
# Building blocks:
#     Node 0, Type 0, BuildingBlock: QUQFOY_clean_sbu_1, # of connection points: 4
#     Node 1, Type 0, BuildingBlock: QUQFOY_clean_sbu_1, # of connection points: 4
#     Node 2, Type 0, BuildingBlock: QUQFOY_clean_sbu_1, # of connection points: 4
#     Node 3, Type 0, BuildingBlock: QUQFOY_clean_sbu_1, # of connection points: 4
#     Node 4, Type 0, BuildingBlock: QUQFOY_clean_sbu_1, # of connection points: 4
#     Node 5, Type 0, BuildingBlock: QUQFOY_clean_sbu_1, # of connection points: 4
#     Node 6, Type 0, BuildingBlock: QUQFOY_clean_sbu_1, # of connection points: 4
#     Node 7, Type 0, BuildingBlock: QUQFOY_clean_sbu_1, # of connection points: 4
#     Node 8, Type 0, BuildingBlock: QUQFOY_clean_sbu_1, # of connection points: 4
#     Node 9, Type 0, BuildingBlock: QUQFOY_clean_sbu_1, # of connection points: 4
#     Node 10, Type 0, BuildingBlock: QUQFOY_clean_sbu_1, # of connection points: 4
#     Node 11, Type 0, BuildingBlock: QUQFOY_clean_sbu_1, # of connection points: 4
#     Node 12, Type 0, BuildingBlock: QUQFOY_clean_sbu_1, # of connection points: 4
#     Node 13, Type 0, BuildingBlock: QUQFOY_clean_sbu_1, # of connection points: 4
#     Node 14, Type 0, BuildingBlock: QUQFOY_clean_sbu_1, # of connection points: 4
#     Node 15, Type 0, BuildingBlock: QUQFOY_clean_sbu_1, # of connection points: 4
#     Node 16, Type 0, BuildingBlock: QUQFOY_clean_sbu_1, # of connection points: 4
#     Node 17, Type 0, BuildingBlock: QUQFOY_clean_sbu_1, # of connection points: 4
#     Node 18, Type 0, BuildingBlock: QUQFOY_clean_sbu_1, # of connection points: 4
#     Node 19, Type 0, BuildingBlock: QUQFOY_clean_sbu_1, # of connection points: 4
#     Node 20, Type 0, BuildingBlock: QUQFOY_clean_sbu_1, # of connection points: 4
#     Node 21, Type 0, BuildingBlock: QUQFOY_clean_sbu_1, # of connection points: 4
#     Node 22, Type 0, BuildingBlock: QUQFOY_clean_sbu_1, # of connection points: 4
#     Node 23, Type 0, BuildingBlock: QUQFOY_clean_sbu_1, # of connection points: 4
#     Node 24, Type 0, BuildingBlock: QUQFOY_clean_sbu_1, # of connection points: 4
#     Node 25, Type 0, BuildingBlock: QUQFOY_clean_sbu_1, # of connection points: 4
#     Node 26, Type 0, BuildingBlock: QUQFOY_clean_sbu_1, # of connection points: 4
#     Node 27, Type 0, BuildingBlock: QUQFOY_clean_sbu_1, # of connection points: 4
#     Node 28, Type 0, BuildingBlock: QUQFOY_clean_sbu_1, # of connection points: 4
#     Node 29, Type 0, BuildingBlock: QUQFOY_clean_sbu_1, # of connection points: 4
#     Node 30, Type 0, BuildingBlock: QUQFOY_clean_sbu_1, # of connection points: 4
#     Node 31, Type 0, BuildingBlock: QUQFOY_clean_sbu_1, # of connection points: 4
#     Node 32, Type 0, BuildingBlock: QUQFOY_clean_sbu_1, # of connection points: 4
#     Node 33, Type 0, BuildingBlock: QUQFOY_clean_sbu_1, # of connection points: 4
#     Node 34, Type 0, BuildingBlock: QUQFOY_clean_sbu_1, # of connection points: 4
#     Node 35, Type 0, BuildingBlock: QUQFOY_clean_sbu_1, # of connection points: 4
#     Edge 36, Type (0, 0), BuildingBlock: OJICUG_clean_linker_0, # of connection points: 2
#     Edge 37, Type (0, 0), BuildingBlock: OJICUG_clean_linker_0, # of connection points: 2
#     Edge 38, Type (0, 0), BuildingBlock: OJICUG_clean_linker_0, # of connection points: 2
#     Edge 39, Type (0, 0), BuildingBlock: OJICUG_clean_linker_0, # of connection points: 2
#     Edge 40, Type (0, 0), BuildingBlock: OJICUG_clean_linker_0, # of connection points: 2
#     Edge 41, Type (0, 0), BuildingBlock: OJICUG_clean_linker_0, # of connection points: 2
#     Edge 42, Type (0, 0), BuildingBlock: OJICUG_clean_linker_0, # of connection points: 2
#     Edge 43, Type (0, 0), BuildingBlock: OJICUG_clean_linker_0, # of connection points: 2
#     Edge 44, Type (0, 0), BuildingBlock: OJICUG_clean_linker_0, # of connection points: 2
#     Edge 45, Type (0, 0), BuildingBlock: OJICUG_clean_linker_0, # of connection points: 2
#     Edge 46, Type (0, 0), BuildingBlock: OJICUG_clean_linker_0, # of connection points: 2
#     Edge 47, Type (0, 0), BuildingBlock: OJICUG_clean_linker_0, # of connection points: 2
#     Edge 48, Type (0, 0), BuildingBlock: OJICUG_clean_linker_0, # of connection points: 2
#     Edge 49, Type (0, 0), BuildingBlock: OJICUG_clean_linker_0, # of connection points: 2
#     Edge 50, Type (0, 0), BuildingBlock: OJICUG_clean_linker_0, # of connection points: 2
#     Edge 51, Type (0, 0), BuildingBlock: OJICUG_clean_linker_0, # of connection points: 2
#     Edge 52, Type (0, 0), BuildingBlock: OJICUG_clean_linker_0, # of connection points: 2
#     Edge 53, Type (0, 0), BuildingBlock: OJICUG_clean_linker_0, # of connection points: 2
#     Edge 54, Type (0, 0), BuildingBlock: OJICUG_clean_linker_0, # of connection points: 2
#     Edge 55, Type (0, 0), BuildingBlock: OJICUG_clean_linker_0, # of connection points: 2
#     Edge 56, Type (0, 0), BuildingBlock: OJICUG_clean_linker_0, # of connection points: 2
#     Edge 57, Type (0, 0), BuildingBlock: OJICUG_clean_linker_0, # of connection points: 2
#     Edge 58, Type (0, 0), BuildingBlock: OJICUG_clean_linker_0, # of connection points: 2
#     Edge 59, Type (0, 0), BuildingBlock: OJICUG_clean_linker_0, # of connection points: 2
#     Edge 60, Type (0, 0), BuildingBlock: OJICUG_clean_linker_0, # of connection points: 2
#     Edge 61, Type (0, 0), BuildingBlock: OJICUG_clean_linker_0, # of connection points: 2
#     Edge 62, Type (0, 0), BuildingBlock: OJICUG_clean_linker_0, # of connection points: 2
#     Edge 63, Type (0, 0), BuildingBlock: OJICUG_clean_linker_0, # of connection points: 2
#     Edge 64, Type (0, 0), BuildingBlock: OJICUG_clean_linker_0, # of connection points: 2
#     Edge 65, Type (0, 0), BuildingBlock: OJICUG_clean_linker_0, # of connection points: 2
#     Edge 66, Type (0, 0), BuildingBlock: OJICUG_clean_linker_0, # of connection points: 2
#     Edge 67, Type (0, 0), BuildingBlock: OJICUG_clean_linker_0, # of connection points: 2
#     Edge 68, Type (0, 0), BuildingBlock: OJICUG_clean_linker_0, # of connection points: 2
#     Edge 69, Type (0, 0), BuildingBlock: OJICUG_clean_linker_0, # of connection points: 2
#     Edge 70, Type (0, 0), BuildingBlock: OJICUG_clean_linker_0, # of connection points: 2
#     Edge 71, Type (0, 0), BuildingBlock: OJICUG_clean_linker_0, # of connection points: 2
#     Edge 72, Type (0, 0), BuildingBlock: OJICUG_clean_linker_0, # of connection points: 2
#     Edge 73, Type (0, 0), BuildingBlock: OJICUG_clean_linker_0, # of connection points: 2
#     Edge 74, Type (0, 0), BuildingBlock: OJICUG_clean_linker_0, # of connection points: 2
#     Edge 75, Type (0, 0), BuildingBlock: OJICUG_clean_linker_0, # of connection points: 2
#     Edge 76, Type (0, 0), BuildingBlock: OJICUG_clean_linker_0, # of connection points: 2
#     Edge 77, Type (0, 0), BuildingBlock: OJICUG_clean_linker_0, # of connection points: 2
#     Edge 78, Type (0, 0), BuildingBlock: OJICUG_clean_linker_0, # of connection points: 2
#     Edge 79, Type (0, 0), BuildingBlock: OJICUG_clean_linker_0, # of connection points: 2
#     Edge 80, Type (0, 0), BuildingBlock: OJICUG_clean_linker_0, # of connection points: 2
#     Edge 81, Type (0, 0), BuildingBlock: OJICUG_clean_linker_0, # of connection points: 2
#     Edge 82, Type (0, 0), BuildingBlock: OJICUG_clean_linker_0, # of connection points: 2
#     Edge 83, Type (0, 0), BuildingBlock: OJICUG_clean_linker_0, # of connection points: 2
#     Edge 84, Type (0, 0), BuildingBlock: OJICUG_clean_linker_0, # of connection points: 2
#     Edge 85, Type (0, 0), BuildingBlock: OJICUG_clean_linker_0, # of connection points: 2
#     Edge 86, Type (0, 0), BuildingBlock: OJICUG_clean_linker_0, # of connection points: 2
#     Edge 87, Type (0, 0), BuildingBlock: OJICUG_clean_linker_0, # of connection points: 2
#     Edge 88, Type (0, 0), BuildingBlock: OJICUG_clean_linker_0, # of connection points: 2
#     Edge 89, Type (0, 0), BuildingBlock: OJICUG_clean_linker_0, # of connection points: 2
#     Edge 90, Type (0, 0), BuildingBlock: OJICUG_clean_linker_0, # of connection points: 2
#     Edge 91, Type (0, 0), BuildingBlock: OJICUG_clean_linker_0, # of connection points: 2
#     Edge 92, Type (0, 0), BuildingBlock: OJICUG_clean_linker_0, # of connection points: 2
#     Edge 93, Type (0, 0), BuildingBlock: OJICUG_clean_linker_0, # of connection points: 2
#     Edge 94, Type (0, 0), BuildingBlock: OJICUG_clean_linker_0, # of connection points: 2
#     Edge 95, Type (0, 0), BuildingBlock: OJICUG_clean_linker_0, # of connection points: 2
#     Edge 96, Type (0, 0), BuildingBlock: OJICUG_clean_linker_0, # of connection points: 2
#     Edge 97, Type (0, 0), BuildingBlock: OJICUG_clean_linker_0, # of connection points: 2
#     Edge 98, Type (0, 0), BuildingBlock: OJICUG_clean_linker_0, # of connection points: 2
#     Edge 99, Type (0, 0), BuildingBlock: OJICUG_clean_linker_0, # of connection points: 2
#     Edge 100, Type (0, 0), BuildingBlock: OJICUG_clean_linker_0, # of connection points: 2
#     Edge 101, Type (0, 0), BuildingBlock: OJICUG_clean_linker_0, # of connection points: 2
#     Edge 102, Type (0, 0), BuildingBlock: OJICUG_clean_linker_0, # of connection points: 2
#     Edge 103, Type (0, 0), BuildingBlock: OJICUG_clean_linker_0, # of connection points: 2
#     Edge 104, Type (0, 0), BuildingBlock: OJICUG_clean_linker_0, # of connection points: 2
#     Edge 105, Type (0, 0), BuildingBlock: OJICUG_clean_linker_0, # of connection points: 2
#     Edge 106, Type (0, 0), BuildingBlock: OJICUG_clean_linker_0, # of connection points: 2
#     Edge 107, Type (0, 0), BuildingBlock: OJICUG_clean_linker_0, # of connection points: 2
# Relax obj value: 0.035
# Max RMSD: 0.162
# Mean RMSD: 0.162
data_MOF--net-uns--node1-QUQFOY_clean_sbu_1--edge1-OJICUG_clean_linker_0
_symmetry_space_group_name_H-M    P1
_symmetry_Int_Tables_number       1
_symmetry_cell_setting            triclinic
loop_
_symmetry_equiv_pos_as_xyz
'x, y, z'
_cell_length_a     38.129414
_cell_length_b     38.137367
_cell_length_c     48.989409
_cell_angle_alpha  90.001595
_cell_angle_beta   89.997517
_cell_angle_gamma 119.98294
loop_
_atom_site_label
_atom_site_type_symbol
_atom_site_fract_x
_atom_site_fract_y
_atom_site_fract_z
_atom_type_partial_charge
O0 O 0.29447 0.23462 0.05434 0.0
Cd1 Cd 0.33105 0.21018 0.06361 0.0
Cd2 Cd 0.30858 0.2182 0.11321 0.0
O3 O 0.2632 0.22379 0.09401 0.0
O4 O 0.32907 0.17689 1.03142 0.0
O5 O 0.30256 0.1506 0.0717 0.0
C6 C 0.30851 0.14519 0.04643 0.0
C7 C 0.31104 0.18843 0.15361 0.0
C8 C 0.26713 0.23492 0.06912 0.0
C9 C 0.39456 0.27184 0.09804 0.0
O10 O 0.36411 0.26763 0.11116 0.0
O11 O 0.38998 0.24929 0.07764 0.0
O12 O 0.302 0.21684 0.15349 0.0
O13 O 0.3113 0.17209 0.13051 0.0
O14 O 0.79432 0.06777 0.05718 0.0
Cd15 Cd 0.8185 0.12861 0.06677 0.0
Cd16 Cd 0.81128 0.09783 0.11619 0.0
O17 O 0.80569 0.04709 0.09657 0.0
O18 O 0.85127 0.16017 1.03448 0.0
O19 O 0.87822 0.15998 0.07449 0.0
C20 C 0.88322 0.17137 0.04924 0.0
C21 C 0.84153 0.12989 0.15655 0.0
C22 C 0.79433 0.04008 0.07171 0.0
C23 C 0.75688 0.12968 0.10176 0.0
O24 O 0.76165 0.10368 0.11473 0.0
O25 O 0.77905 0.14779 0.08123 0.0
O26 O 0.81326 0.09239 0.15642 0.0
O27 O 0.85751 0.14665 0.13341 0.0
O28 O 0.9621 0.73319 0.0553 0.0
Cd29 Cd 0.90116 0.69701 0.06497 0.0
Cd30 Cd 0.93251 0.71957 0.11429 0.0
O31 O 0.98313 0.76488 0.09478 0.0
O32 O 0.86955 0.69885 1.03288 0.0
O33 O 0.8705 0.726 0.07303 0.0
C34 C 0.85882 0.7198 0.04783 0.0
C35 C 0.90054 0.71709 0.15481 0.0
C36 C 0.98998 0.76066 0.06986 0.0
C37 C 0.89965 0.6336 0.09942 0.0
O38 O 0.92651 0.66408 0.11216 0.0
O39 O 0.88115 0.63817 0.07932 0.0
O40 O 0.93802 0.72623 0.15456 0.0
O41 O 0.88376 0.71677 0.13177 0.0
O42 O 0.24139 0.29094 0.51602 0.0
Cd43 Cd 0.21662 0.32703 0.50606 0.0
Cd44 Cd 0.22482 0.30361 0.45711 0.0
O45 O 0.22973 0.25824 0.47689 0.0
O46 O 0.18327 0.32573 0.53806 0.0
O47 O 0.15696 0.29781 0.49809 0.0
C48 C 0.15155 0.30445 0.52321 0.0
C49 C 0.19447 0.30607 0.417 0.0
C50 C 0.24125 0.26296 0.50172 0.0
C51 C 0.27833 0.38959 0.47106 0.0
O52 O 0.27477 0.35878 0.45881 0.0
O53 O 0.25522 0.38554 0.49102 0.0
O54 O 0.22243 0.29637 0.41686 0.0
O55 O 0.17884 0.307 0.44025 0.0
O56 O 0.7392 0.95646 0.51474 0.0
Cd57 Cd 0.70271 0.89559 0.50505 0.0
Cd58 Cd 0.72635 0.9265 0.45591 0.0
O59 O 0.7717 0.97697 0.4755 0.0
O60 O 0.70371 0.86376 0.53727 0.0
O61 O 0.73139 0.86453 0.49735 0.0
C62 C 0.7247 0.85281 0.52253 0.0
C63 C 0.72406 0.89357 0.41595 0.0
C64 C 0.76714 0.98406 0.50029 0.0
C65 C 0.64028 0.89468 0.46981 0.0
O66 O 0.67115 0.9213 0.45725 0.0
O67 O 0.64425 0.87612 0.49012 0.0
O68 O 0.73384 0.93123 0.41571 0.0
O69 O 0.72306 0.8771 0.43925 0.0
O70 O 0.07247 0.78911 0.51746 0.0
Cd71 Cd 0.13352 0.81334 0.50851 0.0
Cd72 Cd 0.10342 0.80515 0.45847 0.0
O73 O 0.05216 0.79922 0.47751 0.0
O74 O 0.16443 0.84661 0.54084 0.0
O75 O 0.16498 0.87295 0.50043 0.0
C76 C 0.17591 0.87834 0.52579 0.0
C77 C 0.13478 0.83415 0.41765 0.0
C78 C 0.04486 0.78845 0.50247 0.0
C79 C 0.13572 0.75146 0.47446 0.0
O80 O 0.11015 0.7561 0.46084 0.0
O81 O 0.15311 0.77376 0.49509 0.0
O82 O 0.0975 0.80542 0.41818 0.0
O83 O 0.15165 0.85119 0.44053 0.0
O84 O 0.73965 0.78988 1.01665 0.0
Cd85 Cd 0.70303 0.81428 1.00745 0.0
Cd86 Cd 0.72552 0.80626 0.95762 0.0
O87 O 0.77067 0.80031 0.97691 0.0
O88 O 0.70496 0.84731 0.0398 0.0
O89 O 0.73139 0.87397 0.99959 0.0
C90 C 0.72546 0.87915 1.02491 0.0
C91 C 0.72347 0.8356 0.91687 0.0
C92 C 0.76684 0.78935 1.00184 0.0
C93 C 0.63939 0.75266 0.97301 0.0
O94 O 0.66976 0.75713 0.95968 0.0
O95 O 0.64406 0.77498 0.99357 0.0
O96 O 0.73215 0.80695 0.91735 0.0
O97 O 0.72336 0.8524 0.9398 0.0
O98 O 0.23984 0.95634 1.01501 0.0
Cd99 Cd 0.21568 0.89545 1.00557 0.0
Cd100 Cd 0.22291 0.92594 0.95616 0.0
O101 O 0.22822 0.97665 0.97556 0.0
O102 O 0.18276 0.86389 0.03784 0.0
O103 O 0.15599 0.86415 0.99777 0.0
C104 C 0.15088 0.85271 1.02301 0.0
C105 C 0.19264 0.89339 0.91599 0.0
C106 C 0.23967 0.98387 1.00039 0.0
C107 C 0.27734 0.8943 0.97065 0.0
O108 O 0.27271 0.92039 0.95769 0.0
O109 O 0.25505 0.87616 0.99113 0.0
O110 O 0.22072 0.93096 0.91593 0.0
O111 O 0.1768 0.87682 0.9392 0.0
O112 O 0.07168 0.2911 1.01618 0.0
Cd113 Cd 0.13256 0.32701 1.00616 0.0
Cd114 Cd 0.10079 0.30365 0.95732 0.0
O115 O 0.05059 0.25828 0.97709 0.0
O116 O 0.16467 0.32567 0.03811 0.0
O117 O 0.16276 0.29756 0.99817 0.0
C118 C 0.17495 0.30426 1.02325 0.0
C119 C 0.13383 0.30622 0.91732 0.0
C120 C 0.04382 0.2631 1.00191 0.0
C121 C 0.13347 0.38958 0.97112 0.0
O122 O 0.10592 0.35878 0.95904 0.0
O123 O 0.15269 0.3855 0.99095 0.0
O124 O 0.09615 0.29643 0.91707 0.0
O125 O 0.15028 0.30715 0.94061 0.0
O126 O 0.7932 0.73272 0.55503 0.0
Cd127 Cd 0.81786 0.69647 0.56482 0.0
Cd128 Cd 0.80916 0.71924 0.61402 0.0
O129 O 0.80411 0.76464 0.59443 0.0
O130 O 0.85146 0.69817 0.53286 0.0
O131 O 0.87743 0.72547 0.57303 0.0
C132 C 0.88305 0.71917 0.54788 0.0
C133 C 0.83882 0.71673 0.65443 0.0
C134 C 0.79299 0.76034 0.56953 0.0
C135 C 0.75595 0.63331 0.5994 0.0
O136 O 0.75952 0.66388 0.61198 0.0
O137 O 0.77904 0.63772 0.57936 0.0
O138 O 0.81062 0.72608 0.65427 0.0
O139 O 0.85506 0.71621 0.63135 0.0
O140 O 0.29517 0.06734 0.55735 0.0
Cd141 Cd 0.33185 0.12826 0.5667 0.0
Cd142 Cd 0.30869 0.0978 0.61635 0.0
O143 O 0.2636 0.04681 0.59691 0.0
O144 O 0.33039 0.15954 0.53431 0.0
O145 O 0.30362 0.15978 0.57439 0.0
C146 C 0.30982 0.17095 0.54909 0.0
C147 C 0.31055 0.12968 0.65681 0.0
C148 C 0.26772 0.03967 0.57204 0.0
C149 C 0.39492 0.12976 0.6015 0.0
O150 O 0.36433 0.10402 0.61473 0.0
O151 O 0.39061 0.14752 0.58086 0.0
O152 O 0.30159 0.09226 0.65659 0.0
O153 O 0.31103 0.14643 0.63374 0.0
O154 O 0.96248 0.23474 0.55467 0.0
Cd155 Cd 0.90145 0.2101 0.56406 0.0
Cd156 Cd 0.93227 0.21845 0.61348 0.0
O157 O 0.98309 0.22381 0.59423 0.0
O158 O 0.87015 0.17689 0.53183 0.0
O159 O 0.87054 0.15045 0.57202 0.0
C160 C 0.85914 0.14513 0.54676 0.0
C161 C 0.89991 0.18874 0.65386 0.0
C162 C 0.99019 0.23501 0.56935 0.0
C163 C 0.89975 0.27185 0.59847 0.0
O164 O 0.92639 0.268 0.61133 0.0
O165 O 0.88141 0.24897 0.57827 0.0
O166 O 0.9374 0.21705 0.65377 0.0
O167 O 0.88333 0.17246 0.63075 0.0
O168 O 0.96313 0.56792 0.39079 0.0
Cd169 Cd 0.99949 0.54346 0.40074 0.0
Cd170 Cd 0.97534 0.5506 0.44973 0.0
O171 O 0.93017 0.55576 0.42986 0.0
O172 O 0.99859 0.5104 0.36868 0.0
O173 O 0.97058 0.48379 0.40857 0.0
C174 C 0.97738 0.47857 0.38345 0.0
C175 C 0.97728 0.51976 0.48971 0.0
C176 C 0.93501 0.56752 0.40508 0.0
C177 C 0.06154 0.6049 0.43621 0.0
O178 O 0.03054 0.6006 0.44861 0.0
O179 O 0.05781 0.58243 0.41592 0.0
O180 O 0.96746 0.54762 0.48991 0.0
O181 O 0.97853 0.50443 0.46641 0.0
O182 O 0.46013 0.39944 0.38743 0.0
Cd183 Cd 0.48496 0.46042 0.39698 0.0
Cd184 Cd 0.47617 0.42928 0.44641 0.0
O185 O 0.47068 0.37849 0.42699 0.0
O186 O 0.51864 0.49192 0.36495 0.0
O187 O 0.54454 0.49094 0.40522 0.0
C188 C 0.5502 0.5026 0.38001 0.0
C189 C 0.50567 0.46122 0.48697 0.0
C190 C 0.45964 0.37158 0.40207 0.0
C191 C 0.42315 0.46225 0.43131 0.0
O192 O 0.42681 0.43549 0.44416 0.0
O193 O 0.44616 0.48059 0.41116 0.0
O194 O 0.4772 0.42381 0.4867 0.0
O195 O 0.52219 0.47794 0.46393 0.0
O196 O 0.62829 0.06713 0.38873 0.0
Cd197 Cd 0.56724 0.03016 0.39755 0.0
Cd198 Cd 0.59686 0.05241 0.44761 0.0
O199 O 0.64822 0.09771 0.42866 0.0
O200 O 0.53639 0.03231 0.36512 0.0
O201 O 0.53547 0.05806 0.40547 0.0
C202 C 0.52467 0.05244 0.38009 0.0
C203 C 0.56509 0.05015 0.48821 0.0
C204 C 0.65574 0.09417 0.40376 0.0
C205 C 0.56513 0.9664 0.43185 0.0
O206 O 0.59033 0.99669 0.44555 0.0
O207 O 0.54793 0.97112 0.41104 0.0
O208 O 0.60242 0.05884 0.48789 0.0
O209 O 0.54838 0.05016 0.46522 0.0
O210 O 0.90547 0.62232 0.84888 0.0
Cd211 Cd 0.88133 0.65914 0.83966 0.0
Cd212 Cd 0.88845 0.63608 0.79 0.0
O213 O 0.8942 0.59082 0.80928 0.0
O214 O 0.84844 0.65756 0.872 0.0
O215 O 0.82165 0.63101 0.83183 0.0
C216 C 0.81655 0.6371 0.85713 0.0
C217 C 0.85846 0.63818 0.7496 0.0
C218 C 0.90554 0.59485 0.83413 0.0
C219 C 0.94289 0.72218 0.80489 0.0
O220 O 0.93799 0.69158 0.79165 0.0
O221 O 0.92084 0.7179 0.82554 0.0
O222 O 0.8868 0.62905 0.74975 0.0
O223 O 0.84225 0.63869 0.77271 0.0
O224 O 0.40537 0.29009 0.85189 0.0
Cd225 Cd 0.36893 0.22902 0.84283 0.0
Cd226 Cd 0.39069 0.25928 0.79293 0.0
O227 O 0.43591 0.31056 0.81199 0.0
O228 O 0.37164 0.19797 0.87495 0.0
O229 O 0.39753 0.1981 0.83444 0.0
C230 C 0.39206 0.18688 0.85974 0.0
C231 C 0.38834 0.22766 0.75223 0.0
C232 C 0.4323 0.31779 0.83694 0.0
C233 C 0.3047 0.2265 0.80884 0.0
O234 O 0.33486 0.25242 0.79536 0.0
O235 O 0.3097 0.20898 0.82934 0.0
O236 O 0.3968 0.26492 0.75262 0.0
O237 O 0.38859 0.21098 0.77518 0.0
O238 O 0.73953 0.12132 0.84803 0.0
Cd239 Cd 0.80034 0.14593 0.83802 0.0
Cd240 Cd 0.76874 0.13816 0.78905 0.0
O241 O 0.71847 0.13311 0.80895 0.0
O242 O 0.83243 0.17902 0.87009 0.0
O243 O 0.83098 0.20562 0.8302 0.0
C244 C 0.84298 0.21085 0.85533 0.0
C245 C 0.80127 0.16857 0.7489 0.0
C246 C 0.7117 0.12153 0.83377 0.0
C247 C 0.80104 0.0843 0.80278 0.0
O248 O 0.77405 0.08823 0.79046 0.0
O249 O 0.81994 0.1071 0.8229 0.0
O250 O 0.76363 0.14064 0.74884 0.0
O251 O 0.81796 0.1842 0.77212 0.0
O252 O 0.40476 0.12124 0.34783 0.0
Cd253 Cd 0.36825 0.1456 0.33816 0.0
Cd254 Cd 0.39169 0.13805 0.28887 0.0
O255 O 0.43695 0.13271 0.3085 0.0
O256 O 0.36956 0.17868 0.37032 0.0
O257 O 0.39688 0.20527 0.33027 0.0
C258 C 0.39046 0.2105 0.35548 0.0
C259 C 0.38955 0.1683 0.24863 0.0
C260 C 0.43253 0.12129 0.33334 0.0
C261 C 0.30556 0.0839 0.30319 0.0
O262 O 0.33632 0.0883 0.2904 0.0
O263 O 0.30965 0.10636 0.32356 0.0
O264 O 0.39901 0.14018 0.24864 0.0
O265 O 0.38875 0.18417 0.27181 0.0
O266 O 0.90791 0.28965 0.35162 0.0
Cd267 Cd 0.88322 0.2287 0.3421 0.0
Cd268 Cd 0.89178 0.25967 0.2926 0.0
O269 O 0.89746 0.31054 0.31201 0.0
O270 O 0.84935 0.1971 0.37405 0.0
O271 O 0.82371 0.19813 0.33368 0.0
C272 C 0.81789 0.18642 0.35887 0.0
C273 C 0.86215 0.22787 0.25203 0.0
C274 C 0.90844 0.31749 0.33694 0.0
C275 C 0.94495 0.22677 0.30775 0.0
O276 O 0.94103 0.25325 0.29474 0.0
O277 O 0.92217 0.20866 0.32804 0.0
O278 O 0.89071 0.26524 0.25231 0.0
O279 O 0.84563 0.21114 0.27506 0.0
O280 O 0.73956 0.62181 0.34946 0.0
Cd281 Cd 0.80058 0.65863 0.34044 0.0
Cd282 Cd 0.77057 0.63615 0.29059 0.0
O283 O 0.7194 0.59082 0.30969 0.0
O284 O 0.83154 0.6567 0.37286 0.0
O285 O 0.83221 0.63055 0.33262 0.0
C286 C 0.84312 0.63638 0.35797 0.0
C287 C 0.80251 0.6385 0.25005 0.0
C288 C 0.71203 0.59458 0.33457 0.0
C289 C 0.80242 0.72217 0.30604 0.0
O290 O 0.77682 0.69176 0.29261 0.0
O291 O 0.82001 0.71759 0.32669 0.0
O292 O 0.76511 0.62961 0.25031 0.0
O293 O 0.81922 0.63866 0.27308 0.0
O294 O 0.46237 0.06767 0.88999 0.0
Cd295 Cd 0.4865 0.03077 0.89893 0.0
Cd296 Cd 0.47917 0.05328 0.94884 0.0
O297 O 0.47325 0.0986 0.92979 0.0
O298 O 0.51921 0.0326 0.86642 0.0
O299 O 0.54623 0.05871 0.90662 0.0
C300 C 0.55118 0.05287 0.88124 0.0
C301 C 0.50886 0.05098 0.98933 0.0
C302 C 0.46208 0.09488 0.90492 0.0
C303 C 0.42483 0.96725 0.93339 0.0
O304 O 0.42983 0.99765 0.94693 0.0
O305 O 0.44684 0.97183 0.91265 0.0
O306 O 0.48037 0.05989 0.98911 0.0
O307 O 0.52536 0.05081 0.96628 0.0
O308 O 0.96216 0.39976 0.88728 0.0
Cd309 Cd 0.99835 0.46074 0.89679 0.0
Cd310 Cd 0.97604 0.42963 0.94627 0.0
O311 O 0.9308 0.3788 0.92687 0.0
O312 O 0.99616 0.49217 0.86473 0.0
O313 O 0.96937 0.49136 0.90501 0.0
C314 C 0.97533 0.50293 0.87978 0.0
C315 C 0.97836 0.46141 0.98688 0.0
C316 C 0.93486 0.3719 0.90194 0.0
C317 C 0.06204 0.46264 0.93108 0.0
O318 O 0.03166 0.43596 0.944 0.0
O319 O 0.05734 0.4809 0.9109 0.0
O320 O 0.96953 0.42404 0.98656 0.0
O321 O 0.97853 0.47818 0.96387 0.0
O322 O 0.62805 0.56896 0.88964 0.0
Cd323 Cd 0.56722 0.5446 0.89947 0.0
Cd324 Cd 0.59837 0.55215 0.9486 0.0
O325 O 0.64878 0.55721 0.92888 0.0
O326 O 0.5351 0.51115 0.86752 0.0
O327 O 0.53651 0.48503 0.90762 0.0
C328 C 0.5245 0.4795 0.88249 0.0
C329 C 0.56565 0.52167 0.98869 0.0
C330 C 0.65574 0.56872 0.90405 0.0
C331 C 0.56647 0.60633 0.93456 0.0
O332 O 0.59308 0.60208 0.94713 0.0
O333 O 0.54782 0.58372 0.9143 0.0
O334 O 0.60328 0.54962 0.98883 0.0
O335 O 0.54908 0.50609 0.96543 0.0
O336 O 0.62852 0.90007 0.72134 0.0
Cd337 Cd 0.66538 0.87591 0.73038 0.0
Cd338 Cd 0.64325 0.884 0.78035 0.0
O339 O 0.59788 0.88978 0.76121 0.0
O340 O 0.66312 0.84258 0.69811 0.0
O341 O 0.63723 0.81632 0.73851 0.0
C342 C 0.64283 0.81088 0.71317 0.0
C343 C 0.64562 0.85492 0.82114 0.0
C344 C 0.60144 0.9006 0.73627 0.0
C345 C 0.72924 0.93786 0.7645 0.0
O346 O 0.69896 0.93317 0.77805 0.0
O347 O 0.72447 0.91555 0.7439 0.0
O348 O 0.63695 0.88357 0.82064 0.0
O349 O 0.64559 0.838 0.79824 0.0
O350 O 0.12683 0.73185 0.72224 0.0
Cd351 Cd 0.15118 0.79277 0.73179 0.0
Cd352 Cd 0.14315 0.76186 0.78108 0.0
O353 O 0.13818 0.71133 0.7617 0.0
O354 O 0.18436 0.82445 0.69964 0.0
O355 O 0.21083 0.82377 0.73975 0.0
C356 C 0.21614 0.8354 0.71455 0.0
C357 C 0.17309 0.79448 0.82128 0.0
C358 C 0.12688 0.70423 0.73684 0.0
C359 C 0.08932 0.79394 0.7665 0.0
O360 O 0.0933 0.76727 0.77922 0.0
O361 O 0.11213 0.81244 0.7463 0.0
O362 O 0.14505 0.75689 0.82133 0.0
O363 O 0.18906 0.81105 0.7981 0.0
O364 O 0.29543 0.39879 0.72387 0.0
Cd365 Cd 0.2346 0.36288 0.73401 0.0
Cd366 Cd 0.26647 0.38682 0.78275 0.0
O367 O 0.31663 0.43201 0.76281 0.0
O368 O 0.20251 0.36361 0.70186 0.0
O369 O 0.20411 0.3922 0.74155 0.0
C370 C 0.19204 0.3851 0.71645 0.0
C371 C 0.23342 0.38463 0.82265 0.0
C372 C 0.32332 0.42696 0.73802 0.0
C373 C 0.23383 0.30073 0.76945 0.0
O374 O 0.26135 0.33167 0.78141 0.0
O375 O 0.21462 0.3046 0.74951 0.0
O376 O 0.27112 0.39451 0.82295 0.0
O377 O 0.21695 0.38344 0.79931 0.0
O378 O 0.57321 0.95496 0.18379 0.0
Cd379 Cd 0.54859 0.99135 0.17434 0.0
Cd380 Cd 0.55737 0.96912 0.12488 0.0
O381 O 0.56262 0.92364 0.14417 0.0
O382 O 0.51509 0.98933 0.20644 0.0
O383 O 0.48899 0.96258 0.16619 0.0
C384 C 0.48345 0.9686 0.19141 0.0
C385 C 0.52801 0.97187 0.08437 0.0
C386 C 0.57361 0.9276 0.16909 0.0
C387 C 0.61055 0.05497 0.14005 0.0
O388 O 0.60685 0.02458 0.12715 0.0
O389 O 0.58754 0.05029 0.1602 0.0
O390 O 0.55635 0.96272 0.0846 0.0
O391 O 0.51147 0.97204 0.1074 0.0
O392 O 0.07095 0.6213 0.18193 0.0
Cd393 Cd 0.03437 0.5604 0.17248 0.0
Cd394 Cd 0.05758 0.59108 0.12292 0.0
O395 O 0.1027 0.64194 0.14244 0.0
O396 O 0.03587 0.52905 0.20482 0.0
O397 O 0.0628 0.52909 0.16475 0.0
C398 C 0.05659 0.51783 0.19003 0.0
C399 C 0.05574 0.55921 0.08244 0.0
C400 C 0.09849 0.649 0.16732 0.0
C401 C 0.97135 0.559 0.13768 0.0
O402 O 1.00198 0.58494 0.12458 0.0
O403 O 0.97562 0.54105 0.15822 0.0
O404 O 0.06474 0.59664 0.08267 0.0
O405 O 0.05518 0.54242 0.10552 0.0
O406 O 0.40442 0.45399 0.1825 0.0
Cd407 Cd 0.46529 0.47859 0.1726 0.0
Cd408 Cd 0.4338 0.47064 0.12361 0.0
O409 O 0.38345 0.46563 0.14332 0.0
O410 O 0.49717 0.51147 0.20477 0.0
O411 O 0.49608 0.53831 0.1649 0.0
C412 C 0.50793 0.54337 0.19005 0.0
C413 C 0.46656 0.50106 0.08353 0.0
C414 C 0.37662 0.45414 0.16815 0.0
C415 C 0.46624 0.41703 0.13749 0.0
O416 O 0.43912 0.42073 0.12518 0.0
O417 O 0.48512 0.43994 0.15756 0.0
O418 O 0.42892 0.47312 0.08339 0.0
O419 O 0.48311 0.51668 0.10679 0.0
O420 O 0.07189 0.4533 0.6834 0.0
Cd421 Cd 0.03579 0.47809 0.6734 0.0
Cd422 Cd 0.05888 0.46929 0.62459 0.0
O423 O 0.10451 0.46483 0.64425 0.0
O424 O 0.037 0.51134 0.70541 0.0
O425 O 0.06502 0.53774 0.66548 0.0
C426 C 0.05828 0.54308 0.69059 0.0
C427 C 0.05597 0.49932 0.58449 0.0
C428 C 0.09986 0.45343 0.6691 0.0
C429 C 0.97309 0.41618 0.6386 0.0
O430 O 1.00384 0.41923 0.62657 0.0
O431 O 0.97725 0.43971 0.6583 0.0
O432 O 0.06583 0.47149 0.58433 0.0
O433 O 0.05512 0.51503 0.60773 0.0
O434 O 0.57283 0.62175 0.6818 0.0
Cd435 Cd 0.5484 0.56076 0.67256 0.0
Cd436 Cd 0.55593 0.59119 0.62286 0.0
O437 O 0.5619 0.64227 0.6422 0.0
O438 O 0.51571 0.52972 0.70503 0.0
O439 O 0.48861 0.52935 0.66496 0.0
C440 C 0.4837 0.51832 0.69029 0.0
C441 C 0.526 0.5593 0.58237 0.0
C442 C 0.57315 0.64943 0.66708 0.0
C443 C 0.60989 0.55894 0.63786 0.0
O444 O 0.60525 0.58482 0.62464 0.0
O445 O 0.58769 0.54119 0.65846 0.0
O446 O 0.55452 0.59668 0.58259 0.0
O447 O 0.50964 0.54259 0.60544 0.0
O448 O 0.40507 0.95534 0.68301 0.0
Cd449 Cd 0.46601 0.99194 0.67356 0.0
Cd450 Cd 0.43524 0.96932 0.624 0.0
O451 O 0.38444 0.92401 0.64338 0.0
O452 O 0.49759 0.99008 0.70566 0.0
O453 O 0.49709 0.96343 0.66538 0.0
C454 C 0.50864 0.96946 0.69061 0.0
C455 C 0.46713 0.97162 0.58347 0.0
C456 C 0.37737 0.92797 0.66829 0.0
C457 C 0.46757 0.05534 0.63907 0.0
O458 O 0.44136 0.02487 0.62598 0.0
O459 O 0.48559 0.0508 0.65947 0.0
O460 O 0.42968 0.96257 0.58374 0.0
O461 O 0.48391 0.97193 0.6065 0.0
O462 O 0.12611 0.39872 0.22303 0.0
Cd463 Cd 0.15115 0.36283 0.23294 0.0
Cd464 Cd 0.14293 0.38625 0.28193 0.0
O465 O 0.13761 0.43138 0.26217 0.0
O466 O 0.18407 0.364 0.20072 0.0
O467 O 0.21092 0.39211 0.24055 0.0
C468 C 0.21599 0.38534 0.21539 0.0
C469 C 0.17341 0.38411 0.32205 0.0
C470 C 0.12606 0.42659 0.23734 0.0
C471 C 0.08976 0.30016 0.26806 0.0
O472 O 0.0932 0.33091 0.28032 0.0
O473 O 0.11279 0.30431 0.24804 0.0
O474 O 0.1453 0.39359 0.32216 0.0
O475 O 0.18911 0.38325 0.29881 0.0
O476 O 0.62846 0.7317 0.22266 0.0
Cd477 Cd 0.66479 0.79256 0.23253 0.0
Cd478 Cd 0.6416 0.76108 0.28148 0.0
O479 O 0.59597 0.71091 0.26188 0.0
O480 O 0.66359 0.82456 0.20049 0.0
O481 O 0.63582 0.82324 0.24047 0.0
C482 C 0.64245 0.8352 0.21533 0.0
C483 C 0.64448 0.79413 0.3215 0.0
C484 C 0.6005 0.704 0.23705 0.0
C485 C 0.72744 0.79325 0.26741 0.0
O486 O 0.69665 0.76601 0.27968 0.0
O487 O 0.72333 0.81232 0.24749 0.0
O488 O 0.63455 0.75643 0.32172 0.0
O489 O 0.64534 0.81061 0.29823 0.0
O490 O 0.29422 0.89901 0.22221 0.0
Cd491 Cd 0.23323 0.87494 0.23129 0.0
Cd492 Cd 0.2634 0.88262 0.28125 0.0
O493 O 0.31455 0.88852 0.26204 0.0
O494 O 0.20214 0.84189 0.19895 0.0
O495 O 0.20164 0.81529 0.23924 0.0
C496 C 0.19062 0.81007 0.2139 0.0
C497 C 0.23198 0.85329 0.32198 0.0
C498 C 0.32182 0.89945 0.23711 0.0
C499 C 0.23135 0.93669 0.26568 0.0
O500 O 0.25683 0.9318 0.27922 0.0
O501 O 0.21392 0.91461 0.24498 0.0
O502 O 0.2693 0.88191 0.32151 0.0
O503 O 0.21508 0.8365 0.29905 0.0
C504 C 0.34601 0.15616 0.17741 0.0
C505 C 0.32839 0.18086 0.17854 0.0
H506 H 0.38028 0.13388 0.19824 0.0
C507 C 0.33301 0.20309 0.20253 0.0
H508 H 0.34372 0.13918 0.15912 0.0
C509 C 0.35466 0.20066 0.22482 0.0
C510 C 0.37228 0.17595 0.2237 0.0
H511 H 0.3204 0.22295 0.20399 0.0
H512 H 0.35695 0.21763 0.24312 0.0
C513 C 0.36768 0.15374 0.1997 0.0
C514 C 0.87426 0.19692 0.18064 0.0
C515 C 0.84929 0.15463 0.18159 0.0
H516 H 0.89689 0.2533 0.20173 0.0
C517 C 0.82698 0.13691 0.20554 0.0
H518 H 0.89132 0.21168 0.16239 0.0
C519 C 0.82955 0.16087 0.22794 0.0
C520 C 0.8545 0.20316 0.22699 0.0
H521 H 0.80693 0.10449 0.20687 0.0
H522 H 0.81247 0.1461 0.24619 0.0
C523 C 0.87684 0.22087 0.20306 0.0
C524 C 0.80953 0.66065 0.20119 0.0
C525 C 0.82727 0.65581 0.22505 0.0
H526 H 0.81871 0.6848 0.16068 0.0
C527 C 0.86958 0.6732 0.22599 0.0
H528 H 0.77709 0.64822 0.19987 0.0
C529 C 0.89353 0.69488 0.20366 0.0
C530 C 0.8758 0.69973 0.1798 0.0
H531 H 0.88435 0.67072 0.24418 0.0
H532 H 0.92597 0.7073 0.20497 0.0
C533 C 0.83349 0.68232 0.17886 0.0
C534 C 0.16214 0.34115 0.39339 0.0
C535 C 0.18666 0.32332 0.39212 0.0
H536 H 0.13977 0.37542 0.37268 0.0
C537 C 0.20848 0.32761 0.36797 0.0
H538 H 0.14548 0.3391 0.4118 0.0
C539 C 0.20583 0.34913 0.34568 0.0
C540 C 0.18129 0.36694 0.34695 0.0
H541 H 0.2282 0.31485 0.36639 0.0
H542 H 0.22249 0.35118 0.32728 0.0
C543 C 0.15949 0.36267 0.3711 0.0
C544 C 0.68039 0.86166 0.34483 0.0
C545 C 0.66214 0.81931 0.34627 0.0
H546 H 0.71538 0.91838 0.36529 0.0
C547 C 0.66642 0.80181 0.37043 0.0
H548 H 0.67835 0.87624 0.3264 0.0
C549 C 0.68835 0.82605 0.39259 0.0
C550 C 0.70657 0.8684 0.39116 0.0
H551 H 0.65335 0.76932 0.37213 0.0
H552 H 0.69037 0.81147 0.41102 0.0
C553 C 0.70232 0.8859 0.36699 0.0
C554 C 0.20156 0.86661 0.39324 0.0
C555 C 0.15928 0.84142 0.39254 0.0
H556 H 0.25776 0.88909 0.37194 0.0
C557 C 0.14141 0.81849 0.36883 0.0
H558 H 0.21645 0.88414 0.41131 0.0
C559 C 0.1652 0.82073 0.3464 0.0
C560 C 0.20747 0.84594 0.3471 0.0
H561 H 0.10899 0.79825 0.36771 0.0
H562 H 0.15031 0.80321 0.32833 0.0
C563 C 0.22534 0.86884 0.37081 0.0
C564 C 0.67991 0.82242 0.84556 0.0
C565 C 0.66282 0.84761 0.84626 0.0
H566 H 0.71358 0.79989 0.86688 0.0
C567 C 0.6678 0.87049 0.86998 0.0
H568 H 0.67732 0.80493 0.82748 0.0
C569 C 0.68929 0.8682 0.89244 0.0
C570 C 0.70637 0.84299 0.89174 0.0
H571 H 0.65562 0.89072 0.87111 0.0
H572 H 0.69187 0.88568 0.91052 0.0
C573 C 0.7014 0.82013 0.86801 0.0
C574 C 0.20713 0.88597 0.86708 0.0
C575 C 0.18508 0.86838 0.89113 0.0
H576 H 0.22173 0.87649 0.82653 0.0
C577 C 0.1607 0.82604 0.89239 0.0
H578 H 0.22674 0.91844 0.86551 0.0
C579 C 0.15845 0.80191 0.87018 0.0
C580 C 0.18053 0.8195 0.84613 0.0
H581 H 0.14386 0.81139 0.91073 0.0
H582 H 0.13885 0.76943 0.87174 0.0
C583 C 0.20489 0.86184 0.84487 0.0
C584 C 0.20138 0.34161 0.89393 0.0
C585 C 0.15902 0.32356 0.8925 0.0
H586 H 0.25813 0.37615 0.87341 0.0
C587 C 0.14159 0.32773 0.86828 0.0
H588 H 0.21592 0.33965 0.9124 0.0
C589 C 0.16587 0.34935 0.84605 0.0
C590 C 0.20822 0.36738 0.84747 0.0
H591 H 0.10911 0.3148 0.86658 0.0
H592 H 0.15133 0.35129 0.82757 0.0
C593 C 0.22566 0.36323 0.87171 0.0
C594 C 0.82388 0.69473 0.70333 0.0
C595 C 0.84623 0.69934 0.6794 0.0
H596 H 0.80913 0.67077 0.74391 0.0
C597 C 0.87092 0.68169 0.67836 0.0
H598 H 0.80402 0.70734 0.70472 0.0
C599 C 0.87322 0.66002 0.70068 0.0
C600 C 0.8509 0.65543 0.72462 0.0
H601 H 0.88799 0.68399 0.66011 0.0
H602 H 0.89308 0.64741 0.69929 0.0
C603 C 0.82619 0.67306 0.72565 0.0
C604 C 0.36617 0.22064 0.70336 0.0
C605 C 0.37116 0.20296 0.72719 0.0
H606 H 0.34212 0.2114 0.6628 0.0
C607 C 0.35407 0.16069 0.72807 0.0
H608 H 0.37835 0.25304 0.70209 0.0
C609 C 0.33257 0.13673 0.7057 0.0
C610 C 0.32762 0.1544 0.68185 0.0
H611 H 0.35666 0.14596 0.74624 0.0
H612 H 0.3204 0.10433 0.70698 0.0
C613 C 0.3447 0.19667 0.68097 0.0
C614 C 0.83265 0.15661 0.67763 0.0
C615 C 0.87499 0.18118 0.67878 0.0
H616 H 0.77611 0.13441 0.69844 0.0
C617 C 0.89261 0.20329 0.70281 0.0
H618 H 0.81796 0.13973 0.65931 0.0
C619 C 0.86854 0.20084 0.72512 0.0
C620 C 0.8262 0.17625 0.72396 0.0
H621 H 0.92508 0.22304 0.7043 0.0
H622 H 0.88322 0.2177 0.74344 0.0
C623 C 0.80857 0.15418 0.69992 0.0
C624 C 1.0126 0.48764 0.51325 0.0
C625 C 0.9945 0.51191 0.51458 0.0
H626 H 0.0473 0.46568 0.53386 0.0
C627 C 0.99861 0.53359 0.53876 0.0
H628 H 1.01067 0.47108 0.49481 0.0
C629 C 0.02031 0.53113 0.561 0.0
C630 C 0.03846 0.50691 0.55965 0.0
H631 H 0.98563 0.5531 0.54039 0.0
H632 H 0.02226 0.54771 0.57943 0.0
C633 C 0.03429 0.48517 0.5355 0.0
C634 C 0.53827 0.52824 0.51105 0.0
C635 C 0.51321 0.48596 0.51198 0.0
H636 H 0.56092 0.58464 0.53212 0.0
C637 C 0.49071 0.46829 0.53587 0.0
H638 H 0.55548 0.54298 0.49285 0.0
C639 C 0.49323 0.49227 0.55826 0.0
C640 C 0.51831 0.53455 0.55733 0.0
H641 H 0.47058 0.43587 0.53718 0.0
H642 H 0.47605 0.47754 0.57647 0.0
C643 C 0.54079 0.55222 0.53343 0.0
C644 C 0.5581 0.02794 0.53705 0.0
C645 C 0.54036 0.03286 0.51322 0.0
H646 H 0.54893 1.00373 0.57755 0.0
C647 C 0.49806 0.01554 0.5123 0.0
H648 H 0.59053 0.04031 0.53835 0.0
C649 C 0.47412 0.99386 0.53464 0.0
C650 C 0.49185 0.98894 0.55847 0.0
H651 H 0.48329 0.01808 0.49414 0.0
H652 H 0.44168 0.9815 0.53334 0.0
C653 C 0.53415 1.00627 0.55938 0.0
C654 C 0.54114 0.01613 1.01329 0.0
C655 C 0.51629 0.03359 1.01429 0.0
H656 H 0.56331 0.98183 1.03421 0.0
C657 C 0.49371 0.0287 0.03816 0.0
H658 H 0.5584 0.01864 0.9951 0.0
C659 C 0.49591 1.00689 0.06043 0.0
C660 C 0.52074 0.9894 0.05943 0.0
H661 H 0.47374 0.04118 0.03952 0.0
H662 H 0.47864 1.00436 0.07862 0.0
C663 C 0.54334 0.99432 1.03557 0.0
C664 C 1.00019 0.46834 1.03582 0.0
C665 C 0.99546 0.48609 1.01193 0.0
H666 H 0.02394 0.47746 0.07646 0.0
C667 C 1.01269 0.52837 1.01105 0.0
H668 H 0.9879 0.43592 0.03709 0.0
C669 C 0.03407 0.55228 1.03348 0.0
C670 C 0.03877 0.53453 0.05738 0.0
H671 H 1.01029 0.54316 0.99285 0.0
H672 H 0.04635 0.5847 1.0322 0.0
C673 C 0.02156 0.49225 0.05825 0.0
C674 C 0.55814 0.53568 0.03771 0.0
C675 C 0.54059 0.5139 1.01356 0.0
H676 H 0.5486 0.54979 0.07838 0.0
C677 C 0.49824 0.48954 1.01226 0.0
H678 H 0.59062 0.55527 0.03931 0.0
C679 C 0.47407 0.48703 1.03452 0.0
C680 C 0.49162 0.50881 0.05867 0.0
H681 H 0.48361 0.47291 0.99385 0.0
H682 H 0.44159 0.46744 1.03291 0.0
C683 C 0.53398 0.53317 0.05997 0.0
C684 C 0.25877 0.03084 0.04055 0.0
C685 C 0.25547 0.02501 1.01209 0.0
H686 H 0.27783 0.07316 0.0737 0.0
C687 C 0.26973 0.0591 0.99505 0.0
H688 H 0.24813 1.00524 0.05427 0.0
C689 C 0.28751 0.09811 1.00621 0.0
C690 C 0.29083 0.1039 1.03467 0.0
H691 H 0.26797 0.05573 0.97305 0.0
H692 H 0.29838 0.12374 0.9925 0.0
C693 C 0.2759 0.06978 0.05171 0.0
C694 C 0.96848 0.21805 0.99721 0.0
C695 C 1.00286 0.23811 1.01397 0.0
H696 H 0.90378 0.18204 0.99517 0.0
C697 C 0.99751 0.23605 0.04247 0.0
H698 H 0.97147 0.21929 0.97519 0.0
C699 C 0.95874 0.21441 0.05394 0.0
C700 C 0.92433 0.19495 0.03717 0.0
H701 H 0.02335 0.25119 0.05598 0.0
H702 H 0.95572 0.21327 0.07596 0.0
C703 C 0.92965 0.19701 1.00867 0.0
C704 C 0.81671 0.75321 0.05312 0.0
C705 C 0.83533 0.73765 0.03608 0.0
H706 H 0.78054 0.78165 0.0557 0.0
C707 C 0.83241 0.7405 1.00761 0.0
H708 H 0.81852 0.75166 0.07511 0.0
C709 C 0.81131 0.75845 0.99645 0.0
C710 C 0.79205 0.77334 1.0135 0.0
H711 H 0.84672 0.72914 0.99389 0.0
H712 H 0.80935 0.75984 0.97445 0.0
C713 C 0.79503 0.77051 0.04197 0.0
C714 C 0.06554 0.26595 0.57466 0.0
C715 C 0.03136 0.25102 0.55764 0.0
H716 H 0.13026 0.29528 0.57716 0.0
C717 C 0.03711 0.25383 0.52917 0.0
H718 H 0.06223 0.26459 0.59666 0.0
C719 C 0.07606 0.2711 0.51798 0.0
C720 C 0.11026 0.28669 0.535 0.0
H721 H 1.01144 0.24266 0.51546 0.0
H722 H 0.07938 0.27262 0.49599 0.0
C723 C 0.10456 0.28389 0.56347 0.0
C724 C 0.76253 0.80525 0.57442 0.0
C725 C 0.77718 0.78555 0.55759 0.0
H726 H 0.73373 0.84115 0.57658 0.0
C727 C 0.77437 0.78817 0.52908 0.0
H728 H 0.76391 0.80356 0.59644 0.0
C729 C 0.75739 0.80999 0.5177 0.0
C730 C 0.74211 0.82909 0.53453 0.0
H731 H 0.78533 0.77332 0.51552 0.0
H732 H 0.75588 0.81156 0.49568 0.0
C733 C 0.74489 0.82647 0.56303 0.0
C734 C 0.24014 0.99273 0.53183 0.0
C735 C 0.24254 0.99851 0.5603 0.0
H736 H 0.21717 0.95048 0.49862 0.0
C737 C 0.22275 0.96436 0.57729 0.0
H738 H 0.25504 0.01836 0.51813 0.0
C739 C 0.20169 0.92536 0.56608 0.0
C740 C 0.19936 0.91963 0.53761 0.0
H741 H 0.22426 0.96768 0.59929 0.0
H742 H 0.18696 0.89969 0.57976 0.0
C743 C 0.21852 0.9538 0.52062 0.0
C744 C 0.74636 0.92585 0.06536 0.0
C745 C 0.74314 0.92034 0.03687 0.0
H746 H 0.76582 0.96791 0.09871 0.0
C747 C 0.75817 0.95464 1.01999 0.0
H748 H 0.73541 0.90008 0.07895 0.0
C749 C 0.77531 0.99348 1.03134 0.0
C750 C 0.77851 0.99903 0.05983 0.0
H751 H 0.75633 0.95149 0.99799 0.0
H752 H 0.78604 0.01921 1.01773 0.0
C753 C 0.76415 0.96476 0.0767 0.0
C754 C 0.07537 0.81 1.01811 0.0
C755 C 0.10971 0.82908 1.03498 0.0
H756 H 1.01077 0.77347 1.01587 0.0
C757 C 0.10424 0.82657 0.06347 0.0
H758 H 0.0785 0.81149 0.9961 0.0
C759 C 0.06534 0.80545 0.07483 0.0
C760 C 0.03103 0.78577 0.05796 0.0
H761 H 0.13004 0.84124 0.07705 0.0
H762 H 0.06223 0.80384 0.09684 0.0
C763 C 0.03654 0.7883 1.02947 0.0
C764 C 0.20161 0.28381 0.06344 0.0
C765 C 0.1985 0.28649 1.03498 0.0
H766 H 0.22487 0.26463 0.09656 0.0
C767 C 0.21697 0.2708 1.01791 0.0
H768 H 0.18741 0.29527 0.07717 0.0
C769 C 0.23871 0.25356 1.02903 0.0
C770 C 0.24187 0.25088 0.05749 0.0
H771 H 0.21501 0.27222 0.99592 0.0
H772 H 0.2531 0.24232 1.01528 0.0
C773 C 0.22275 0.26589 0.07457 0.0
C774 C 0.95851 0.75262 0.55342 0.0
C775 C 0.92446 0.73694 0.53626 0.0
H776 H 0.02309 0.78111 0.55623 0.0
C777 C 0.93042 0.73962 0.50781 0.0
H778 H 0.955 0.75121 0.5754 0.0
C779 C 0.96954 0.7575 0.49679 0.0
C780 C 1.00356 0.77252 0.51396 0.0
H781 H 0.90484 0.72815 0.49401 0.0
H782 H 0.97304 0.75875 0.47481 0.0
C783 C 0.99755 0.76987 0.54241 0.0
C784 C 0.2604 0.23582 0.54229 0.0
C785 C 0.2571 0.23786 0.51378 0.0
H786 H 0.27935 0.213 0.57578 0.0
C787 C 0.27132 0.21769 0.49703 0.0
H788 H 0.24978 0.25104 0.55579 0.0
C789 C 0.28903 0.19657 0.5085 0.0
C790 C 0.29231 0.19455 0.53701 0.0
H791 H 0.26956 0.21892 0.47501 0.0
H792 H 0.29985 0.18153 0.49501 0.0
C793 C 0.27745 0.21411 0.55377 0.0
C794 C 0.81229 0.0593 0.49518 0.0
C795 C 0.79234 0.02513 0.51212 0.0
H796 H 0.84826 0.12396 0.4928 0.0
C797 C 0.79463 0.0308 0.5406 0.0
H798 H 0.81087 0.05605 0.47318 0.0
C799 C 0.81634 0.06969 0.55186 0.0
C800 C 0.83565 0.1039 0.53491 0.0
H801 H 0.77958 1.00513 0.55425 0.0
H802 H 0.81763 0.07296 0.57386 0.0
C803 C 0.83341 0.09826 0.50643 0.0
C804 C 0.95726 0.43181 0.34308 0.0
C805 C 0.95985 0.43737 0.37156 0.0
H806 H 0.93822 0.38968 0.30979 0.0
C807 C 0.94421 0.40308 0.38849 0.0
H808 H 0.96869 0.45758 0.32945 0.0
C809 C 0.92705 0.3642 0.37722 0.0
C810 C 0.92443 0.35861 0.34873 0.0
H811 H 0.94556 0.40628 0.4105 0.0
H812 H 0.91582 0.33847 0.39087 0.0
C813 C 0.93944 0.39287 0.33179 0.0
C814 C 0.62566 0.54459 0.38555 0.0
C815 C 0.59162 0.52603 0.36839 0.0
H816 H 0.69023 0.58073 0.38835 0.0
C817 C 0.59761 0.52897 0.33994 0.0
H818 H 0.62213 0.54277 0.40753 0.0
C819 C 0.63673 0.55007 0.32892 0.0
C820 C 0.67074 0.56929 0.34608 0.0
H821 H 0.57204 0.5147 0.32614 0.0
H822 H 0.64026 0.55208 0.30694 0.0
C823 C 0.66471 0.56627 0.37453 0.0
C824 C 0.48155 0.08479 0.38504 0.0
C825 C 0.5011 0.07007 0.36815 0.0
H826 H 0.44462 0.11243 0.38733 0.0
C827 C 0.49905 0.07358 0.33967 0.0
H828 H 0.48267 0.08272 0.40705 0.0
C829 C 0.4779 0.09136 0.32835 0.0
C830 C 0.45773 0.10544 0.34523 0.0
H831 H 0.51409 0.06287 0.32608 0.0
H832 H 0.47664 0.09328 0.30634 0.0
C833 C 0.45983 0.10193 0.37372 0.0
C834 C 0.70226 0.58781 0.86362 0.0
C835 C 0.69675 0.58448 0.89211 0.0
H836 H 0.74422 0.60676 0.83024 0.0
C837 C 0.73103 0.59862 0.90896 0.0
H838 H 0.67652 0.57726 0.85004 0.0
C839 C 0.76992 0.61629 0.8976 0.0
C840 C 0.77539 0.61962 0.86911 0.0
H841 H 0.72791 0.59683 0.93097 0.0
H842 H 0.7957 0.62706 0.91116 0.0
C843 C 0.74108 0.60483 0.85225 0.0
C844 C 0.4253 0.14469 0.85408 0.0
C845 C 0.4101 0.16345 0.87129 0.0
H846 H 0.45358 0.1084 0.85116 0.0
C847 C 0.41348 0.16072 0.89973 0.0
H848 H 0.42335 0.14636 0.8321 0.0
C849 C 0.43154 0.1396 0.91069 0.0
C850 C 0.44605 0.12018 0.89346 0.0
H851 H 0.4024 0.17514 0.91357 0.0
H852 H 0.4333 0.13775 0.93266 0.0
C853 C 0.44274 0.12302 0.86503 0.0
C854 C 0.89056 0.2965 0.90703 0.0
C855 C 0.90977 0.33079 0.89011 0.0
H856 H 0.8552 0.23178 0.90934 0.0
C857 C 0.90682 0.32523 0.86162 0.0
H858 H 0.89251 0.29966 0.92904 0.0
C859 C 0.88516 0.28637 0.85032 0.0
C860 C 0.86656 0.25205 0.86724 0.0
H861 H 0.92129 0.35098 0.84799 0.0
H862 H 0.88334 0.2832 0.82832 0.0
C863 C 0.8695 0.25757 0.89572 0.0
C864 C 0.41094 0.25726 0.39586 0.0
C865 C 0.40808 0.25171 0.36738 0.0
H866 H 0.43023 0.29939 0.42917 0.0
C867 C 0.42351 0.286 0.35046 0.0
H868 H 0.39968 0.2315 0.40948 0.0
C869 C 0.44073 0.32487 0.36175 0.0
C870 C 0.44361 0.33047 0.39024 0.0
H871 H 0.42195 0.28281 0.32845 0.0
H872 H 0.45179 0.3506 0.34811 0.0
C873 C 0.42881 0.2962 0.40716 0.0
C874 C 0.731 0.13862 0.40968 0.0
C875 C 0.69711 0.11953 0.3924 0.0
H876 H 0.79567 0.17395 0.41267 0.0
C877 C 0.70335 0.12274 0.36397 0.0
H878 H 0.72732 0.13647 0.43165 0.0
C879 C 0.74248 0.14447 0.35308 0.0
C880 C 0.77639 0.16291 0.37036 0.0
H881 H 0.67793 0.10838 0.35006 0.0
H882 H 0.74616 0.14644 0.33111 0.0
C883 C 0.7702 0.15978 0.39878 0.0
C884 C 0.88954 0.59734 0.40988 0.0
C885 C 0.90989 0.58338 0.39307 0.0
H886 H 0.85327 0.62575 0.41201 0.0
C887 C 0.90805 0.58701 0.36458 0.0
H888 H 0.89061 0.59532 0.43189 0.0
C889 C 0.88637 0.60414 0.35317 0.0
C890 C 0.86665 0.61875 0.36999 0.0
H891 H 0.92342 0.5766 0.35104 0.0
H892 H 0.88543 0.60631 0.33116 0.0
C893 C 0.86845 0.61513 0.39847 0.0
C894 C 0.59756 0.07394 0.84063 0.0
C895 C 0.59227 0.07041 0.86913 0.0
H896 H 0.63935 0.09361 0.80712 0.0
C897 C 0.62669 0.08507 0.88587 0.0
H898 H 0.5717 0.06328 0.82716 0.0
C899 C 0.66544 0.10215 0.87437 0.0
C900 C 0.67077 0.10568 0.84586 0.0
H901 H 0.6237 0.08299 0.90788 0.0
H902 H 0.69127 0.11261 0.88786 0.0
C903 C 0.63638 0.09167 0.82914 0.0
C904 C 0.94207 0.54514 0.88524 0.0
C905 C 0.95736 0.52636 0.86812 0.0
H906 H 0.9138 0.58146 0.88795 0.0
C907 C 0.95414 0.52906 0.83967 0.0
H908 H 0.94391 0.5435 0.90722 0.0
C909 C 0.93613 0.55014 0.82859 0.0
C910 C 0.92153 0.56959 0.84571 0.0
H911 H 0.96529 0.51461 0.8259 0.0
H912 H 0.93447 0.55196 0.80661 0.0
C913 C 0.92471 0.56681 0.87417 0.0
C914 C 0.48247 0.40406 0.88796 0.0
C915 C 0.50084 0.43814 0.87083 0.0
H916 H 0.44649 0.33948 0.89072 0.0
C917 C 0.4976 0.43223 0.84238 0.0
H918 H 0.48453 0.40753 0.90995 0.0
C919 C 0.47645 0.39314 0.83132 0.0
C920 C 0.45749 0.35908 0.84847 0.0
H921 H 0.51171 0.45783 0.8286 0.0
H922 H 0.47425 0.38967 0.80934 0.0
C923 C 0.46076 0.36504 0.87692 0.0
C924 C 0.59257 0.69647 0.70724 0.0
C925 C 0.58922 0.69064 0.67877 0.0
H926 H 0.61187 0.73878 0.74041 0.0
C927 C 0.60365 0.72476 0.66175 0.0
H928 H 0.5818 0.67086 0.72096 0.0
C929 C 0.62163 0.76379 0.67292 0.0
C930 C 0.625 0.76957 0.70139 0.0
H931 H 0.60186 0.7214 0.63975 0.0
H932 H 0.63261 0.78943 0.65922 0.0
C933 C 0.60992 0.73542 0.71841 0.0
C934 C 0.2916 0.878 0.71972 0.0
C935 C 0.25739 0.85909 0.70273 0.0
H936 H 0.35618 0.91454 0.7222 0.0
C937 C 0.26307 0.86188 0.67425 0.0
H938 H 0.28831 0.8763 0.74172 0.0
C939 C 0.30206 0.88313 0.66304 0.0
C940 C 0.33623 0.90266 0.68003 0.0
H941 H 0.23737 0.84735 0.66058 0.0
H942 H 0.30534 0.88498 0.64104 0.0
C943 C 0.33052 0.89983 0.70851 0.0
C944 C 0.14935 0.41796 0.72114 0.0
C945 C 0.16842 0.40257 0.70437 0.0
H946 H 0.1127 0.44595 0.72316 0.0
C947 C 0.16587 0.40526 0.67587 0.0
H948 H 0.15087 0.4165 0.74316 0.0
C949 C 0.14472 0.42293 0.66439 0.0
C950 C 0.12502 0.43766 0.68115 0.0
H951 H 0.18054 0.39402 0.66237 0.0
H952 H 0.14308 0.42424 0.64237 0.0
C953 C 0.12757 0.43493 0.70966 0.0
C954 C 0.39712 0.93006 0.24265 0.0
C955 C 0.36306 0.91532 0.22553 0.0
H956 H 0.46181 0.95915 0.24532 0.0
C957 C 0.36899 0.9182 0.19708 0.0
H958 H 0.39368 0.92862 0.26464 0.0
C959 C 0.408 0.93541 0.186 0.0
C960 C 0.44209 0.95082 0.2031 0.0
H961 H 0.34343 0.90718 0.18329 0.0
H962 H 0.41144 0.93701 0.16401 0.0
C963 C 0.4362 0.9479 0.23156 0.0
C964 C 0.09551 0.47144 0.24206 0.0
C965 C 0.10995 0.45148 0.2253 0.0
H966 H 0.06659 0.50725 0.24411 0.0
C967 C 0.10662 0.45352 0.19679 0.0
H968 H 0.09727 0.47021 0.26408 0.0
C969 C 0.08935 0.47504 0.18533 0.0
C970 C 0.07428 0.49439 0.2021 0.0
H971 H 0.11741 0.43846 0.18328 0.0
H972 H 0.08745 0.47616 0.16331 0.0
C973 C 0.07757 0.49235 0.2306 0.0
C974 C 0.55538 0.62873 0.24193 0.0
C975 C 0.57522 0.66305 0.22509 0.0
H976 H 0.51936 0.56406 0.24409 0.0
C977 C 0.5727 0.65762 0.19659 0.0
H978 H 0.55699 0.6318 0.26394 0.0
C979 C 0.55084 0.61883 0.1852 0.0
C980 C 0.53163 0.58449 0.20204 0.0
H981 H 0.58767 0.68341 0.18303 0.0
H982 H 0.54936 0.61575 0.16319 0.0
C983 C 0.53413 0.58988 0.23053 0.0
C984 C 0.10829 0.65744 0.69661 0.0
C985 C 0.11111 0.66313 0.72509 0.0
H986 H 0.0897 0.61524 0.6634 0.0
C987 C 0.09642 0.62896 0.74208 0.0
H988 H 0.11928 0.68311 0.68293 0.0
C989 C 0.07868 0.58999 0.73087 0.0
C990 C 0.07588 0.58433 0.70239 0.0
H991 H 0.09779 0.63223 0.76408 0.0
H992 H 0.06747 0.56428 0.74454 0.0
C993 C 0.09124 0.61853 0.6854 0.0
C994 C 0.39868 0.4722 0.74252 0.0
C995 C 0.36422 0.4519 0.72585 0.0
H996 H 0.46337 0.50831 0.74441 0.0
C997 C 0.36945 0.45365 0.69734 0.0
H998 H 0.39578 0.47119 0.76454 0.0
C999 C 0.40816 0.47521 0.68578 0.0
C1000 C 0.44265 0.49489 0.70246 0.0
H1001 H 0.34355 0.43832 0.68389 0.0
H1002 H 0.41108 0.4761 0.66376 0.0
C1003 C 0.43746 0.49315 0.73097 0.0
C1004 C 0.57292 0.91929 0.69625 0.0
C1005 C 0.57602 0.91644 0.72471 0.0
H1006 H 0.54917 0.93799 0.6632 0.0
C1007 C 0.55668 0.93116 0.74183 0.0
H1008 H 0.58747 0.90828 0.68246 0.0
C1009 C 0.53537 0.94894 0.73075 0.0
C1010 C 0.53234 0.95181 0.70229 0.0
H1011 H 0.55873 0.92976 0.76382 0.0
H1012 H 0.521 0.96017 0.74452 0.0
C1013 C 0.55106 0.93643 0.68518 0.0
C1014 C 0.26241 0.40585 0.17483 0.0
C1015 C 0.25711 0.40298 0.20334 0.0
H1016 H 0.30425 0.42507 0.14136 0.0
C1017 C 0.29153 0.41832 0.22012 0.0
H1018 H 0.23653 0.39466 0.16132 0.0
C1019 C 0.33031 0.43541 0.20867 0.0
C1020 C 0.33565 0.4383 0.18017 0.0
H1021 H 0.28851 0.41673 0.24214 0.0
H1022 H 0.35616 0.44639 0.2222 0.0
C1023 C 0.30125 0.42363 0.16338 0.0
C1024 C 0.60436 0.88301 0.16383 0.0
C1025 C 0.5895 0.90236 0.18082 0.0
H1026 H 0.63347 0.84741 0.16137 0.0
C1027 C 0.59223 0.89939 0.2093 0.0
H1028 H 0.60305 0.88497 0.14183 0.0
C1029 C 0.60936 0.87759 0.22051 0.0
C1030 C 0.62486 0.85887 0.20352 0.0
H1031 H 0.58112 0.91396 0.22299 0.0
H1032 H 0.61082 0.87577 0.24251 0.0
C1033 C 0.62215 0.86181 0.17505 0.0
C1034 C 0.16471 0.76326 0.17351 0.0
C1035 C 0.16704 0.76885 0.202 0.0
H1036 H 0.14208 0.7211 0.14021 0.0
C1037 C 0.14778 0.7346 0.21891 0.0
H1038 H 0.17952 0.78899 0.15989 0.0
C1039 C 0.12608 0.69574 0.20762 0.0
C1040 C 0.12369 0.6901 0.17914 0.0
H1041 H 0.14913 0.73782 0.24092 0.0
H1042 H 0.1111 0.67005 0.22127 0.0
C1043 C 0.14357 0.72432 0.16222 0.0
C1044 C 0.45355 0.339 0.089 0.0
C1045 C 0.43392 0.30572 0.10648 0.0
H1046 H 0.4821 0.40342 0.08621 0.0
C1047 C 0.4414 0.31153 0.13476 0.0
H1048 H 0.44824 0.33532 0.06719 0.0
C1049 C 0.46039 0.35057 0.14577 0.0
C1050 C 0.47218 0.38368 0.12839 0.0
H1051 H 0.42663 0.28603 0.14861 0.0
H1052 H 0.45959 0.35412 0.16766 0.0
C1053 C 0.47282 0.37804 0.1 0.0
C1054 C 0.65044 0.10176 0.10333 0.0
C1055 C 0.64423 0.09447 0.13162 0.0
H1056 H 0.69373 0.12088 0.07083 0.0
C1057 C 0.67707 0.11494 0.14934 0.0
H1058 H 0.62527 0.08634 0.08929 0.0
C1059 C 0.71632 0.13511 0.13867 0.0
C1060 C 0.72263 0.1345 0.11036 0.0
H1061 H 0.67307 0.10979 0.17116 0.0
H1062 H 0.74154 0.1452 0.15271 0.0
C1063 C 0.68969 0.1217 0.09267 0.0
C1064 C 0.90594 0.57344 0.09026 0.0
C1065 C 0.8938 0.59413 0.10798 0.0
H1066 H 0.93998 0.54301 0.08686 0.0
C1067 C 0.89296 0.58706 0.13628 0.0
H1068 H 0.9069 0.57842 0.06843 0.0
C1069 C 0.91229 0.56712 0.14693 0.0
C1070 C 0.9322 0.55409 0.1292 0.0
H1071 H 0.8834 0.60265 0.15032 0.0
H1072 H 0.91734 0.56811 0.16875 0.0
C1073 C 0.92501 0.55325 0.10091 0.0
C1074 C 0.31718 0.43516 0.43357 0.0
C1075 C 0.31167 0.42888 0.46197 0.0
H1076 H 0.35966 0.45302 0.40063 0.0
C1077 C 0.34495 0.45002 0.47926 0.0
H1078 H 0.29168 0.41919 0.41985 0.0
C1079 C 0.38393 0.46985 0.46814 0.0
C1080 C 0.38954 0.46815 0.43983 0.0
H1081 H 0.3415 0.44563 0.50115 0.0
H1082 H 0.40949 0.48038 0.48192 0.0
C1083 C 0.35616 0.45471 0.42246 0.0
C1084 C 0.5591 0.91917 0.46803 0.0
C1085 C 0.56054 0.9272 0.43983 0.0
H1086 H 0.58393 0.90061 0.50046 0.0
C1087 C 0.57453 0.9083 0.42196 0.0
H1088 H 0.54809 0.93335 0.48217 0.0
C1089 C 0.59477 0.88922 0.43251 0.0
C1090 C 0.6011 0.88923 0.46087 0.0
H1091 H 0.57597 0.91401 0.40021 0.0
H1092 H 0.61099 0.88044 0.41846 0.0
C1093 C 0.57956 0.90031 0.47859 0.0
C1094 C 0.14242 0.71063 0.43833 0.0
C1095 C 0.14069 0.71707 0.46652 0.0
H1096 H 0.11802 0.66739 0.40579 0.0
C1097 C 0.12667 0.68411 0.48432 0.0
H1098 H 0.15343 0.73586 0.42423 0.0
C1099 C 0.10667 0.64485 0.47368 0.0
C1100 C 0.10061 0.63864 0.44531 0.0
H1101 H 0.12499 0.68826 0.50607 0.0
H1102 H 0.09041 0.61977 0.48767 0.0
C1103 C 0.1222 0.67137 0.42768 0.0
C1104 C 0.56083 0.64634 0.97177 0.0
C1105 C 0.56117 0.64018 0.94342 0.0
H1106 H 0.58579 0.68956 1.00427 0.0
C1107 C 0.5731 0.67305 0.92579 0.0
H1108 H 0.55142 0.62115 0.98574 0.0
C1109 C 0.59241 0.71228 0.9365 0.0
C1110 C 0.60004 0.71854 0.96475 0.0
H1111 H 0.57368 0.6691 0.90392 0.0
H1112 H 0.60719 0.73752 0.92245 0.0
C1113 C 0.58038 0.68556 0.98247 0.0
C1114 C 0.344 0.90103 0.98002 0.0
C1115 C 0.3115 0.88929 0.96208 0.0
H1116 H 0.40841 0.93492 0.98396 0.0
C1117 C 0.31822 0.88911 0.9338 0.0
H1118 H 0.3396 0.90146 1.00185 0.0
C1119 C 0.35767 0.9086 0.92346 0.0
C1120 C 0.39029 0.92808 0.94148 0.0
H1121 H 0.29332 0.87981 0.91958 0.0
H1122 H 0.36213 0.91409 0.90169 0.0
C1123 C 0.38344 0.92031 0.96968 0.0
C1124 C 0.14048 0.43501 0.93346 0.0
C1125 C 0.13972 0.42893 0.96189 0.0
H1126 H 0.116 0.45288 0.90044 0.0
C1127 C 0.12787 0.4504 0.97908 0.0
H1128 H 0.14979 0.41878 0.91982 0.0
C1129 C 0.10895 0.47041 0.96788 0.0
C1130 C 0.10155 0.46851 0.93957 0.0
H1131 H 0.12696 0.44617 1.001 0.0
H1132 H 0.0941 0.48121 0.98161 0.0
C1133 C 0.12126 0.45472 0.92227 0.0
C1134 C 0.71631 0.58708 0.63643 0.0
C1135 C 0.72241 0.59388 0.6081 0.0
H1136 H 0.67311 0.56836 0.66897 0.0
C1137 C 0.68954 0.57295 0.59046 0.0
H1138 H 0.7415 0.60286 0.65041 0.0
C1139 C 0.65032 0.55277 0.60119 0.0
C1140 C 0.64408 0.55389 0.62947 0.0
H1141 H 0.69345 0.57771 0.56861 0.0
H1142 H 0.62505 0.54233 0.58717 0.0
C1143 C 0.6771 0.56715 0.64715 0.0
C1144 C 0.45407 0.12183 0.59199 0.0
C1145 C 0.43406 0.13453 0.60989 0.0
H1146 H 0.48329 0.08668 0.58824 0.0
C1147 C 0.44131 0.13513 0.63815 0.0
H1148 H 0.44897 0.12107 0.57018 0.0
C1149 C 0.46063 0.11505 0.64859 0.0
C1150 C 0.4729 0.09469 0.63069 0.0
H1151 H 0.42629 0.14515 0.65233 0.0
H1152 H 0.45976 0.10992 0.6704 0.0
C1153 C 0.47362 0.10199 0.60243 0.0
C1154 C 0.91223 0.34987 0.64659 0.0
C1155 C 0.93368 0.38319 0.6294 0.0
H1156 H 0.88139 0.28532 0.64908 0.0
C1157 C 0.92751 0.37791 0.60098 0.0
H1158 H 0.91654 0.35316 0.6685 0.0
C1159 C 0.90774 0.33901 0.58976 0.0
C1160 C 0.89398 0.3055 0.60705 0.0
H1161 H 0.94372 0.40346 0.58734 0.0
H1162 H 0.9095 0.33561 0.56793 0.0
C1163 C 0.89216 0.31097 0.63536 0.0
C1164 C 1.01019 0.78099 0.81419 0.0
C1165 C 0.97722 0.76129 0.79647 0.0
H1166 H 0.07457 0.80965 0.81754 0.0
C1167 C 0.98355 0.76861 0.76819 0.0
H1168 H 1.0061 0.77582 0.836 0.0
C1169 C 0.02279 0.78763 0.75751 0.0
C1170 C 0.05561 0.79957 0.7752 0.0
H1171 H 0.9583 0.7538 0.75415 0.0
H1172 H 0.02675 0.78679 0.73567 0.0
C1173 C 0.04943 0.80025 0.80352 0.0
C1174 C 0.22751 0.25578 0.80729 0.0
C1175 C 0.22763 0.26148 0.77885 0.0
H1176 H 0.25217 0.23768 0.84005 0.0
C1177 C 0.2385 0.23933 0.76154 0.0
H1178 H 0.2189 0.2725 0.82101 0.0
C1179 C 0.25711 0.2189 0.77257 0.0
C1180 C 0.26521 0.22109 0.80079 0.0
H1181 H 0.23889 0.24323 0.73962 0.0
H1182 H 0.27124 0.2075 0.75869 0.0
C1183 C 0.24639 0.23562 0.81829 0.0
C1184 C 0.78746 1.00526 0.75471 0.0
C1185 C 0.76853 0.97229 0.7725 0.0
H1186 H 0.81539 0.06958 0.75137 0.0
C1187 C 0.7766 0.97873 0.8007 0.0
H1188 H 0.78171 1.0011 0.73296 0.0
C1189 C 0.79551 0.01798 0.81136 0.0
C1190 C 0.80663 0.0507 0.79373 0.0
H1191 H 0.76238 0.95349 0.8148 0.0
H1192 H 0.79521 0.02195 0.83325 0.0
C1193 C 0.80662 0.04452 0.76536 0.0
C1194 C 0.2398 1.00385 0.25582 0.0
C1195 C 0.22657 0.97116 0.27378 0.0
H1196 H 0.27533 0.06819 0.25206 0.0
C1197 C 0.2255 0.97789 0.30199 0.0
H1198 H 0.24095 0.99947 0.23405 0.0
C1199 C 0.24556 0.01728 0.31241 0.0
C1200 C 0.2664 0.04985 0.29453 0.0
H1201 H 0.21507 0.95286 0.31621 0.0
H1202 H 0.25027 0.02157 0.33425 0.0
C1203 C 0.25965 0.04325 0.26623 0.0
C1204 C 0.98439 0.21931 0.27101 0.0
C1205 C 0.97871 0.22107 0.2993 0.0
H1206 H 0.0268 0.24369 0.238 0.0
C1207 C 1.0121 0.2348 0.3167 0.0
H1208 H 0.95881 0.20854 0.25722 0.0
C1209 C 0.05109 0.25458 0.30561 0.0
C1210 C 0.05658 0.2608 0.2772 0.0
H1211 H 1.00853 0.2365 0.33852 0.0
H1212 H 0.07654 0.27074 0.31933 0.0
C1213 C 0.02338 0.23938 0.25991 0.0
C1214 C 0.80875 0.76913 0.26962 0.0
C1215 C 0.80725 0.76138 0.29786 0.0
H1216 H 0.78393 0.78731 0.23696 0.0
C1217 C 0.79328 0.78051 0.31554 0.0
H1218 H 0.81973 0.75476 0.25561 0.0
C1219 C 0.77309 0.79951 0.30478 0.0
C1220 C 0.76677 0.79917 0.27641 0.0
H1221 H 0.79178 0.77499 0.33732 0.0
H1222 H 0.75682 0.80841 0.3187 0.0
C1223 C 0.78832 0.78789 0.25885 0.0
loop_
_geom_bond_atom_site_label_1
_geom_bond_atom_site_label_2
_geom_bond_distance
_geom_bond_site_symmetry_2
_ccdc_geom_bond_type
O0 Cd1 2.223 . S
O0 C8 1.315 . S
Cd1 O0 2.223 . S
Cd1 O4 2.268 1_554 S
Cd1 O5 2.439 . S
Cd1 O11 2.240 . S
Cd2 O3 2.240 . S
Cd2 O10 2.223 . S
Cd2 O12 2.297 . S
Cd2 O13 2.439 . S
O3 Cd2 2.240 . S
O3 C8 1.279 . S
O4 Cd1 2.268 1_556 S
O4 C6 1.216 1_556 S
O5 Cd1 2.439 . S
O5 C6 1.208 . S
C6 O4 1.216 1_554 S
C6 O5 1.208 . S
C7 O12 1.247 . S
C7 O13 1.208 . S
C8 O0 1.315 . S
C8 O3 1.279 . S
C9 O10 1.315 . S
C9 O11 1.279 . S
O10 Cd2 2.223 . S
O10 C9 1.315 . S
O11 Cd1 2.240 . S
O11 C9 1.279 . S
O12 Cd2 2.297 . S
O12 C7 1.247 . S
O13 Cd2 2.439 . S
O13 C7 1.208 . S
O14 Cd15 2.223 . S
O14 C22 1.315 . S
Cd15 O14 2.223 . S
Cd15 O18 2.268 1_554 S
Cd15 O19 2.439 . S
Cd15 O25 2.240 . S
Cd16 O17 2.240 . S
Cd16 O24 2.223 . S
Cd16 O26 2.297 . S
Cd16 O27 2.439 . S
O17 Cd16 2.240 . S
O17 C22 1.279 . S
O18 Cd15 2.268 1_556 S
O18 C20 1.216 1_556 S
O19 Cd15 2.439 . S
O19 C20 1.208 . S
C20 O18 1.216 1_554 S
C20 O19 1.208 . S
C21 O26 1.247 . S
C21 O27 1.208 . S
C22 O14 1.315 . S
C22 O17 1.279 . S
C23 O24 1.315 . S
C23 O25 1.279 . S
O24 Cd16 2.223 . S
O24 C23 1.315 . S
O25 Cd15 2.240 . S
O25 C23 1.279 . S
O26 Cd16 2.297 . S
O26 C21 1.247 . S
O27 Cd16 2.439 . S
O27 C21 1.208 . S
O28 Cd29 2.223 . S
O28 C36 1.315 . S
Cd29 O28 2.223 . S
Cd29 O32 2.268 1_554 S
Cd29 O33 2.439 . S
Cd29 O39 2.240 . S
Cd30 O31 2.240 . S
Cd30 O38 2.223 . S
Cd30 O40 2.297 . S
Cd30 O41 2.439 . S
O31 Cd30 2.240 . S
O31 C36 1.279 . S
O32 Cd29 2.268 1_556 S
O32 C34 1.216 1_556 S
O33 Cd29 2.439 . S
O33 C34 1.208 . S
C34 O32 1.216 1_554 S
C34 O33 1.208 . S
C35 O40 1.247 . S
C35 O41 1.208 . S
C36 O28 1.315 . S
C36 O31 1.279 . S
C37 O38 1.315 . S
C37 O39 1.279 . S
O38 Cd30 2.223 . S
O38 C37 1.315 . S
O39 Cd29 2.240 . S
O39 C37 1.279 . S
O40 Cd30 2.297 . S
O40 C35 1.247 . S
O41 Cd30 2.439 . S
O41 C35 1.208 . S
O42 Cd43 2.223 . S
O42 C50 1.315 . S
Cd43 O42 2.223 . S
Cd43 O46 2.297 . S
Cd43 O47 2.439 . S
Cd43 O53 2.240 . S
Cd44 O45 2.240 . S
Cd44 O52 2.223 . S
Cd44 O54 2.297 . S
Cd44 O55 2.439 . S
O45 Cd44 2.240 . S
O45 C50 1.279 . S
O46 Cd43 2.297 . S
O46 C48 1.247 . S
O47 Cd43 2.439 . S
O47 C48 1.208 . S
C48 O46 1.247 . S
C48 O47 1.208 . S
C49 O54 1.247 . S
C49 O55 1.208 . S
C50 O42 1.315 . S
C50 O45 1.279 . S
C51 O52 1.315 . S
C51 O53 1.279 . S
O52 Cd44 2.223 . S
O52 C51 1.315 . S
O53 Cd43 2.240 . S
O53 C51 1.279 . S
O54 Cd44 2.297 . S
O54 C49 1.247 . S
O55 Cd44 2.439 . S
O55 C49 1.208 . S
O56 Cd57 2.223 . S
O56 C64 1.315 . S
Cd57 O56 2.223 . S
Cd57 O60 2.297 . S
Cd57 O61 2.439 . S
Cd57 O67 2.240 . S
Cd58 O59 2.240 . S
Cd58 O66 2.223 . S
Cd58 O68 2.297 . S
Cd58 O69 2.439 . S
O59 Cd58 2.240 . S
O59 C64 1.279 . S
O60 Cd57 2.297 . S
O60 C62 1.247 . S
O61 Cd57 2.439 . S
O61 C62 1.208 . S
C62 O60 1.247 . S
C62 O61 1.208 . S
C63 O68 1.247 . S
C63 O69 1.208 . S
C64 O56 1.315 . S
C64 O59 1.279 . S
C65 O66 1.315 . S
C65 O67 1.279 . S
O66 Cd58 2.223 . S
O66 C65 1.315 . S
O67 Cd57 2.240 . S
O67 C65 1.279 . S
O68 Cd58 2.297 . S
O68 C63 1.247 . S
O69 Cd58 2.439 . S
O69 C63 1.208 . S
O70 Cd71 2.223 . S
O70 C78 1.315 . S
Cd71 O70 2.223 . S
Cd71 O74 2.297 . S
Cd71 O75 2.439 . S
Cd71 O81 2.240 . S
Cd72 O73 2.240 . S
Cd72 O80 2.223 . S
Cd72 O82 2.297 . S
Cd72 O83 2.439 . S
O73 Cd72 2.240 . S
O73 C78 1.279 . S
O74 Cd71 2.297 . S
O74 C76 1.247 . S
O75 Cd71 2.439 . S
O75 C76 1.208 . S
C76 O74 1.247 . S
C76 O75 1.208 . S
C77 O82 1.247 . S
C77 O83 1.208 . S
C78 O70 1.315 . S
C78 O73 1.279 . S
C79 O80 1.315 . S
C79 O81 1.279 . S
O80 Cd72 2.223 . S
O80 C79 1.315 . S
O81 Cd71 2.240 . S
O81 C79 1.279 . S
O82 Cd72 2.297 . S
O82 C77 1.247 . S
O83 Cd72 2.439 . S
O83 C77 1.208 . S
O84 Cd85 2.223 . S
O84 C92 1.315 . S
Cd85 O84 2.223 . S
Cd85 O88 2.268 1_556 S
Cd85 O89 2.439 . S
Cd85 O95 2.240 . S
Cd86 O87 2.240 . S
Cd86 O94 2.223 . S
Cd86 O96 2.297 . S
Cd86 O97 2.439 . S
O87 Cd86 2.240 . S
O87 C92 1.279 . S
O88 Cd85 2.268 1_554 S
O88 C90 1.216 1_554 S
O89 Cd85 2.439 . S
O89 C90 1.208 . S
C90 O88 1.216 1_556 S
C90 O89 1.208 . S
C91 O96 1.247 . S
C91 O97 1.208 . S
C92 O84 1.315 . S
C92 O87 1.279 . S
C93 O94 1.315 . S
C93 O95 1.279 . S
O94 Cd86 2.223 . S
O94 C93 1.315 . S
O95 Cd85 2.240 . S
O95 C93 1.279 . S
O96 Cd86 2.297 . S
O96 C91 1.247 . S
O97 Cd86 2.439 . S
O97 C91 1.208 . S
O98 Cd99 2.223 . S
O98 C106 1.315 . S
Cd99 O98 2.223 . S
Cd99 O102 2.268 1_556 S
Cd99 O103 2.439 . S
Cd99 O109 2.240 . S
Cd100 O101 2.240 . S
Cd100 O108 2.223 . S
Cd100 O110 2.297 . S
Cd100 O111 2.439 . S
O101 Cd100 2.240 . S
O101 C106 1.279 . S
O102 Cd99 2.268 1_554 S
O102 C104 1.216 1_554 S
O103 Cd99 2.439 . S
O103 C104 1.208 . S
C104 O102 1.216 1_556 S
C104 O103 1.208 . S
C105 O110 1.247 . S
C105 O111 1.208 . S
C106 O98 1.315 . S
C106 O101 1.279 . S
C107 O108 1.315 . S
C107 O109 1.279 . S
O108 Cd100 2.223 . S
O108 C107 1.315 . S
O109 Cd99 2.240 . S
O109 C107 1.279 . S
O110 Cd100 2.297 . S
O110 C105 1.247 . S
O111 Cd100 2.439 . S
O111 C105 1.208 . S
O112 Cd113 2.223 . S
O112 C120 1.315 . S
Cd113 O112 2.223 . S
Cd113 O116 2.268 1_556 S
Cd113 O117 2.439 . S
Cd113 O123 2.240 . S
Cd114 O115 2.240 . S
Cd114 O122 2.223 . S
Cd114 O124 2.297 . S
Cd114 O125 2.439 . S
O115 Cd114 2.240 . S
O115 C120 1.279 . S
O116 Cd113 2.268 1_554 S
O116 C118 1.216 1_554 S
O117 Cd113 2.439 . S
O117 C118 1.208 . S
C118 O116 1.216 1_556 S
C118 O117 1.208 . S
C119 O124 1.247 . S
C119 O125 1.208 . S
C120 O112 1.315 . S
C120 O115 1.279 . S
C121 O122 1.315 . S
C121 O123 1.279 . S
O122 Cd114 2.223 . S
O122 C121 1.315 . S
O123 Cd113 2.240 . S
O123 C121 1.279 . S
O124 Cd114 2.297 . S
O124 C119 1.247 . S
O125 Cd114 2.439 . S
O125 C119 1.208 . S
O126 Cd127 2.223 . S
O126 C134 1.315 . S
Cd127 O126 2.223 . S
Cd127 O130 2.297 . S
Cd127 O131 2.439 . S
Cd127 O137 2.240 . S
Cd128 O129 2.240 . S
Cd128 O136 2.223 . S
Cd128 O138 2.297 . S
Cd128 O139 2.439 . S
O129 Cd128 2.240 . S
O129 C134 1.279 . S
O130 Cd127 2.297 . S
O130 C132 1.247 . S
O131 Cd127 2.439 . S
O131 C132 1.208 . S
C132 O130 1.247 . S
C132 O131 1.208 . S
C133 O138 1.247 . S
C133 O139 1.208 . S
C134 O126 1.315 . S
C134 O129 1.279 . S
C135 O136 1.315 . S
C135 O137 1.279 . S
O136 Cd128 2.223 . S
O136 C135 1.315 . S
O137 Cd127 2.240 . S
O137 C135 1.279 . S
O138 Cd128 2.297 . S
O138 C133 1.247 . S
O139 Cd128 2.439 . S
O139 C133 1.208 . S
O140 Cd141 2.223 . S
O140 C148 1.315 . S
Cd141 O140 2.223 . S
Cd141 O144 2.297 . S
Cd141 O145 2.439 . S
Cd141 O151 2.240 . S
Cd142 O143 2.240 . S
Cd142 O150 2.223 . S
Cd142 O152 2.297 . S
Cd142 O153 2.439 . S
O143 Cd142 2.240 . S
O143 C148 1.279 . S
O144 Cd141 2.297 . S
O144 C146 1.247 . S
O145 Cd141 2.439 . S
O145 C146 1.208 . S
C146 O144 1.247 . S
C146 O145 1.208 . S
C147 O152 1.247 . S
C147 O153 1.208 . S
C148 O140 1.315 . S
C148 O143 1.279 . S
C149 O150 1.315 . S
C149 O151 1.279 . S
O150 Cd142 2.223 . S
O150 C149 1.315 . S
O151 Cd141 2.240 . S
O151 C149 1.279 . S
O152 Cd142 2.297 . S
O152 C147 1.247 . S
O153 Cd142 2.439 . S
O153 C147 1.208 . S
O154 Cd155 2.223 . S
O154 C162 1.315 . S
Cd155 O154 2.223 . S
Cd155 O158 2.297 . S
Cd155 O159 2.439 . S
Cd155 O165 2.240 . S
Cd156 O157 2.240 . S
Cd156 O164 2.223 . S
Cd156 O166 2.297 . S
Cd156 O167 2.439 . S
O157 Cd156 2.240 . S
O157 C162 1.279 . S
O158 Cd155 2.297 . S
O158 C160 1.247 . S
O159 Cd155 2.439 . S
O159 C160 1.208 . S
C160 O158 1.247 . S
C160 O159 1.208 . S
C161 O166 1.247 . S
C161 O167 1.208 . S
C162 O154 1.315 . S
C162 O157 1.279 . S
C163 O164 1.315 . S
C163 O165 1.279 . S
O164 Cd156 2.223 . S
O164 C163 1.315 . S
O165 Cd155 2.240 . S
O165 C163 1.279 . S
O166 Cd156 2.297 . S
O166 C161 1.247 . S
O167 Cd156 2.439 . S
O167 C161 1.208 . S
O168 Cd169 2.223 . S
O168 C176 1.315 . S
Cd169 O168 2.223 . S
Cd169 O172 2.297 . S
Cd169 O173 2.439 . S
Cd169 O179 2.240 . S
Cd170 O171 2.240 . S
Cd170 O178 2.223 . S
Cd170 O180 2.297 . S
Cd170 O181 2.439 . S
O171 Cd170 2.240 . S
O171 C176 1.279 . S
O172 Cd169 2.297 . S
O172 C174 1.247 . S
O173 Cd169 2.439 . S
O173 C174 1.208 . S
C174 O172 1.247 . S
C174 O173 1.208 . S
C175 O180 1.247 . S
C175 O181 1.208 . S
C176 O168 1.315 . S
C176 O171 1.279 . S
C177 O178 1.315 . S
C177 O179 1.279 . S
O178 Cd170 2.223 . S
O178 C177 1.315 . S
O179 Cd169 2.240 . S
O179 C177 1.279 . S
O180 Cd170 2.297 . S
O180 C175 1.247 . S
O181 Cd170 2.439 . S
O181 C175 1.208 . S
O182 Cd183 2.223 . S
O182 C190 1.315 . S
Cd183 O182 2.223 . S
Cd183 O186 2.297 . S
Cd183 O187 2.439 . S
Cd183 O193 2.240 . S
Cd184 O185 2.240 . S
Cd184 O192 2.223 . S
Cd184 O194 2.297 . S
Cd184 O195 2.439 . S
O185 Cd184 2.240 . S
O185 C190 1.279 . S
O186 Cd183 2.297 . S
O186 C188 1.247 . S
O187 Cd183 2.439 . S
O187 C188 1.208 . S
C188 O186 1.247 . S
C188 O187 1.208 . S
C189 O194 1.247 . S
C189 O195 1.208 . S
C190 O182 1.315 . S
C190 O185 1.279 . S
C191 O192 1.315 . S
C191 O193 1.279 . S
O192 Cd184 2.223 . S
O192 C191 1.315 . S
O193 Cd183 2.240 . S
O193 C191 1.279 . S
O194 Cd184 2.297 . S
O194 C189 1.247 . S
O195 Cd184 2.439 . S
O195 C189 1.208 . S
O196 Cd197 2.223 . S
O196 C204 1.315 . S
Cd197 O196 2.223 . S
Cd197 O200 2.297 . S
Cd197 O201 2.439 . S
Cd197 O207 2.240 . S
Cd198 O199 2.240 . S
Cd198 O206 2.223 . S
Cd198 O208 2.297 . S
Cd198 O209 2.439 . S
O199 Cd198 2.240 . S
O199 C204 1.279 . S
O200 Cd197 2.297 . S
O200 C202 1.247 . S
O201 Cd197 2.439 . S
O201 C202 1.208 . S
C202 O200 1.247 . S
C202 O201 1.208 . S
C203 O208 1.247 . S
C203 O209 1.208 . S
C204 O196 1.315 . S
C204 O199 1.279 . S
C205 O206 1.315 . S
C205 O207 1.279 . S
O206 Cd198 2.223 . S
O206 C205 1.315 . S
O207 Cd197 2.240 . S
O207 C205 1.279 . S
O208 Cd198 2.297 . S
O208 C203 1.247 . S
O209 Cd198 2.439 . S
O209 C203 1.208 . S
O210 Cd211 2.223 . S
O210 C218 1.315 . S
Cd211 O210 2.223 . S
Cd211 O214 2.297 . S
Cd211 O215 2.439 . S
Cd211 O221 2.240 . S
Cd212 O213 2.240 . S
Cd212 O220 2.223 . S
Cd212 O222 2.297 . S
Cd212 O223 2.439 . S
O213 Cd212 2.240 . S
O213 C218 1.279 . S
O214 Cd211 2.297 . S
O214 C216 1.247 . S
O215 Cd211 2.439 . S
O215 C216 1.208 . S
C216 O214 1.247 . S
C216 O215 1.208 . S
C217 O222 1.247 . S
C217 O223 1.208 . S
C218 O210 1.315 . S
C218 O213 1.279 . S
C219 O220 1.315 . S
C219 O221 1.279 . S
O220 Cd212 2.223 . S
O220 C219 1.315 . S
O221 Cd211 2.240 . S
O221 C219 1.279 . S
O222 Cd212 2.297 . S
O222 C217 1.247 . S
O223 Cd212 2.439 . S
O223 C217 1.208 . S
O224 Cd225 2.223 . S
O224 C232 1.315 . S
Cd225 O224 2.223 . S
Cd225 O228 2.297 . S
Cd225 O229 2.439 . S
Cd225 O235 2.240 . S
Cd226 O227 2.240 . S
Cd226 O234 2.223 . S
Cd226 O236 2.297 . S
Cd226 O237 2.439 . S
O227 Cd226 2.240 . S
O227 C232 1.279 . S
O228 Cd225 2.297 . S
O228 C230 1.247 . S
O229 Cd225 2.439 . S
O229 C230 1.208 . S
C230 O228 1.247 . S
C230 O229 1.208 . S
C231 O236 1.247 . S
C231 O237 1.208 . S
C232 O224 1.315 . S
C232 O227 1.279 . S
C233 O234 1.315 . S
C233 O235 1.279 . S
O234 Cd226 2.223 . S
O234 C233 1.315 . S
O235 Cd225 2.240 . S
O235 C233 1.279 . S
O236 Cd226 2.297 . S
O236 C231 1.247 . S
O237 Cd226 2.439 . S
O237 C231 1.208 . S
O238 Cd239 2.223 . S
O238 C246 1.315 . S
Cd239 O238 2.223 . S
Cd239 O242 2.297 . S
Cd239 O243 2.439 . S
Cd239 O249 2.240 . S
Cd240 O241 2.240 . S
Cd240 O248 2.223 . S
Cd240 O250 2.297 . S
Cd240 O251 2.439 . S
O241 Cd240 2.240 . S
O241 C246 1.279 . S
O242 Cd239 2.297 . S
O242 C244 1.247 . S
O243 Cd239 2.439 . S
O243 C244 1.208 . S
C244 O242 1.247 . S
C244 O243 1.208 . S
C245 O250 1.247 . S
C245 O251 1.208 . S
C246 O238 1.315 . S
C246 O241 1.279 . S
C247 O248 1.315 . S
C247 O249 1.279 . S
O248 Cd240 2.223 . S
O248 C247 1.315 . S
O249 Cd239 2.240 . S
O249 C247 1.279 . S
O250 Cd240 2.297 . S
O250 C245 1.247 . S
O251 Cd240 2.439 . S
O251 C245 1.208 . S
O252 Cd253 2.223 . S
O252 C260 1.315 . S
Cd253 O252 2.223 . S
Cd253 O256 2.297 . S
Cd253 O257 2.439 . S
Cd253 O263 2.240 . S
Cd254 O255 2.240 . S
Cd254 O262 2.223 . S
Cd254 O264 2.297 . S
Cd254 O265 2.439 . S
O255 Cd254 2.240 . S
O255 C260 1.279 . S
O256 Cd253 2.297 . S
O256 C258 1.247 . S
O257 Cd253 2.439 . S
O257 C258 1.208 . S
C258 O256 1.247 . S
C258 O257 1.208 . S
C259 O264 1.247 . S
C259 O265 1.208 . S
C260 O252 1.315 . S
C260 O255 1.279 . S
C261 O262 1.315 . S
C261 O263 1.279 . S
O262 Cd254 2.223 . S
O262 C261 1.315 . S
O263 Cd253 2.240 . S
O263 C261 1.279 . S
O264 Cd254 2.297 . S
O264 C259 1.247 . S
O265 Cd254 2.439 . S
O265 C259 1.208 . S
O266 Cd267 2.223 . S
O266 C274 1.315 . S
Cd267 O266 2.223 . S
Cd267 O270 2.297 . S
Cd267 O271 2.439 . S
Cd267 O277 2.240 . S
Cd268 O269 2.240 . S
Cd268 O276 2.223 . S
Cd268 O278 2.297 . S
Cd268 O279 2.439 . S
O269 Cd268 2.240 . S
O269 C274 1.279 . S
O270 Cd267 2.297 . S
O270 C272 1.247 . S
O271 Cd267 2.439 . S
O271 C272 1.208 . S
C272 O270 1.247 . S
C272 O271 1.208 . S
C273 O278 1.247 . S
C273 O279 1.208 . S
C274 O266 1.315 . S
C274 O269 1.279 . S
C275 O276 1.315 . S
C275 O277 1.279 . S
O276 Cd268 2.223 . S
O276 C275 1.315 . S
O277 Cd267 2.240 . S
O277 C275 1.279 . S
O278 Cd268 2.297 . S
O278 C273 1.247 . S
O279 Cd268 2.439 . S
O279 C273 1.208 . S
O280 Cd281 2.223 . S
O280 C288 1.315 . S
Cd281 O280 2.223 . S
Cd281 O284 2.297 . S
Cd281 O285 2.439 . S
Cd281 O291 2.240 . S
Cd282 O283 2.240 . S
Cd282 O290 2.223 . S
Cd282 O292 2.297 . S
Cd282 O293 2.439 . S
O283 Cd282 2.240 . S
O283 C288 1.279 . S
O284 Cd281 2.297 . S
O284 C286 1.247 . S
O285 Cd281 2.439 . S
O285 C286 1.208 . S
C286 O284 1.247 . S
C286 O285 1.208 . S
C287 O292 1.247 . S
C287 O293 1.208 . S
C288 O280 1.315 . S
C288 O283 1.279 . S
C289 O290 1.315 . S
C289 O291 1.279 . S
O290 Cd282 2.223 . S
O290 C289 1.315 . S
O291 Cd281 2.240 . S
O291 C289 1.279 . S
O292 Cd282 2.297 . S
O292 C287 1.247 . S
O293 Cd282 2.439 . S
O293 C287 1.208 . S
O294 Cd295 2.223 . S
O294 C302 1.315 . S
Cd295 O294 2.223 . S
Cd295 O298 2.297 . S
Cd295 O299 2.439 . S
Cd295 O305 2.240 . S
Cd296 O297 2.240 . S
Cd296 O304 2.223 . S
Cd296 O306 2.297 . S
Cd296 O307 2.439 . S
O297 Cd296 2.240 . S
O297 C302 1.279 . S
O298 Cd295 2.297 . S
O298 C300 1.247 . S
O299 Cd295 2.439 . S
O299 C300 1.208 . S
C300 O298 1.247 . S
C300 O299 1.208 . S
C301 O306 1.247 . S
C301 O307 1.208 . S
C302 O294 1.315 . S
C302 O297 1.279 . S
C303 O304 1.315 . S
C303 O305 1.279 . S
O304 Cd296 2.223 . S
O304 C303 1.315 . S
O305 Cd295 2.240 . S
O305 C303 1.279 . S
O306 Cd296 2.297 . S
O306 C301 1.247 . S
O307 Cd296 2.439 . S
O307 C301 1.208 . S
O308 Cd309 2.223 . S
O308 C316 1.315 . S
Cd309 O308 2.223 . S
Cd309 O312 2.297 . S
Cd309 O313 2.439 . S
Cd309 O319 2.240 . S
Cd310 O311 2.240 . S
Cd310 O318 2.223 . S
Cd310 O320 2.297 . S
Cd310 O321 2.439 . S
O311 Cd310 2.240 . S
O311 C316 1.279 . S
O312 Cd309 2.297 . S
O312 C314 1.247 . S
O313 Cd309 2.439 . S
O313 C314 1.208 . S
C314 O312 1.247 . S
C314 O313 1.208 . S
C315 O320 1.247 . S
C315 O321 1.208 . S
C316 O308 1.315 . S
C316 O311 1.279 . S
C317 O318 1.315 . S
C317 O319 1.279 . S
O318 Cd310 2.223 . S
O318 C317 1.315 . S
O319 Cd309 2.240 . S
O319 C317 1.279 . S
O320 Cd310 2.297 . S
O320 C315 1.247 . S
O321 Cd310 2.439 . S
O321 C315 1.208 . S
O322 Cd323 2.223 . S
O322 C330 1.315 . S
Cd323 O322 2.223 . S
Cd323 O326 2.297 . S
Cd323 O327 2.439 . S
Cd323 O333 2.240 . S
Cd324 O325 2.240 . S
Cd324 O332 2.223 . S
Cd324 O334 2.297 . S
Cd324 O335 2.439 . S
O325 Cd324 2.240 . S
O325 C330 1.279 . S
O326 Cd323 2.297 . S
O326 C328 1.247 . S
O327 Cd323 2.439 . S
O327 C328 1.208 . S
C328 O326 1.247 . S
C328 O327 1.208 . S
C329 O334 1.247 . S
C329 O335 1.208 . S
C330 O322 1.315 . S
C330 O325 1.279 . S
C331 O332 1.315 . S
C331 O333 1.279 . S
O332 Cd324 2.223 . S
O332 C331 1.315 . S
O333 Cd323 2.240 . S
O333 C331 1.279 . S
O334 Cd324 2.297 . S
O334 C329 1.247 . S
O335 Cd324 2.439 . S
O335 C329 1.208 . S
O336 Cd337 2.223 . S
O336 C344 1.315 . S
Cd337 O336 2.223 . S
Cd337 O340 2.297 . S
Cd337 O341 2.439 . S
Cd337 O347 2.240 . S
Cd338 O339 2.240 . S
Cd338 O346 2.223 . S
Cd338 O348 2.297 . S
Cd338 O349 2.439 . S
O339 Cd338 2.240 . S
O339 C344 1.279 . S
O340 Cd337 2.297 . S
O340 C342 1.247 . S
O341 Cd337 2.439 . S
O341 C342 1.208 . S
C342 O340 1.247 . S
C342 O341 1.208 . S
C343 O348 1.247 . S
C343 O349 1.208 . S
C344 O336 1.315 . S
C344 O339 1.279 . S
C345 O346 1.315 . S
C345 O347 1.279 . S
O346 Cd338 2.223 . S
O346 C345 1.315 . S
O347 Cd337 2.240 . S
O347 C345 1.279 . S
O348 Cd338 2.297 . S
O348 C343 1.247 . S
O349 Cd338 2.439 . S
O349 C343 1.208 . S
O350 Cd351 2.223 . S
O350 C358 1.315 . S
Cd351 O350 2.223 . S
Cd351 O354 2.297 . S
Cd351 O355 2.439 . S
Cd351 O361 2.240 . S
Cd352 O353 2.240 . S
Cd352 O360 2.223 . S
Cd352 O362 2.297 . S
Cd352 O363 2.439 . S
O353 Cd352 2.240 . S
O353 C358 1.279 . S
O354 Cd351 2.297 . S
O354 C356 1.247 . S
O355 Cd351 2.439 . S
O355 C356 1.208 . S
C356 O354 1.247 . S
C356 O355 1.208 . S
C357 O362 1.247 . S
C357 O363 1.208 . S
C358 O350 1.315 . S
C358 O353 1.279 . S
C359 O360 1.315 . S
C359 O361 1.279 . S
O360 Cd352 2.223 . S
O360 C359 1.315 . S
O361 Cd351 2.240 . S
O361 C359 1.279 . S
O362 Cd352 2.297 . S
O362 C357 1.247 . S
O363 Cd352 2.439 . S
O363 C357 1.208 . S
O364 Cd365 2.223 . S
O364 C372 1.315 . S
Cd365 O364 2.223 . S
Cd365 O368 2.297 . S
Cd365 O369 2.439 . S
Cd365 O375 2.240 . S
Cd366 O367 2.240 . S
Cd366 O374 2.223 . S
Cd366 O376 2.297 . S
Cd366 O377 2.439 . S
O367 Cd366 2.240 . S
O367 C372 1.279 . S
O368 Cd365 2.297 . S
O368 C370 1.247 . S
O369 Cd365 2.439 . S
O369 C370 1.208 . S
C370 O368 1.247 . S
C370 O369 1.208 . S
C371 O376 1.247 . S
C371 O377 1.208 . S
C372 O364 1.315 . S
C372 O367 1.279 . S
C373 O374 1.315 . S
C373 O375 1.279 . S
O374 Cd366 2.223 . S
O374 C373 1.315 . S
O375 Cd365 2.240 . S
O375 C373 1.279 . S
O376 Cd366 2.297 . S
O376 C371 1.247 . S
O377 Cd366 2.439 . S
O377 C371 1.208 . S
O378 Cd379 2.223 . S
O378 C386 1.315 . S
Cd379 O378 2.223 . S
Cd379 O382 2.297 . S
Cd379 O383 2.439 . S
Cd379 O389 2.240 . S
Cd380 O381 2.240 . S
Cd380 O388 2.223 . S
Cd380 O390 2.297 . S
Cd380 O391 2.439 . S
O381 Cd380 2.240 . S
O381 C386 1.279 . S
O382 Cd379 2.297 . S
O382 C384 1.247 . S
O383 Cd379 2.439 . S
O383 C384 1.208 . S
C384 O382 1.247 . S
C384 O383 1.208 . S
C385 O390 1.247 . S
C385 O391 1.208 . S
C386 O378 1.315 . S
C386 O381 1.279 . S
C387 O388 1.315 . S
C387 O389 1.279 . S
O388 Cd380 2.223 . S
O388 C387 1.315 . S
O389 Cd379 2.240 . S
O389 C387 1.279 . S
O390 Cd380 2.297 . S
O390 C385 1.247 . S
O391 Cd380 2.439 . S
O391 C385 1.208 . S
O392 Cd393 2.223 . S
O392 C400 1.315 . S
Cd393 O392 2.223 . S
Cd393 O396 2.297 . S
Cd393 O397 2.439 . S
Cd393 O403 2.240 . S
Cd394 O395 2.240 . S
Cd394 O402 2.223 . S
Cd394 O404 2.297 . S
Cd394 O405 2.439 . S
O395 Cd394 2.240 . S
O395 C400 1.279 . S
O396 Cd393 2.297 . S
O396 C398 1.247 . S
O397 Cd393 2.439 . S
O397 C398 1.208 . S
C398 O396 1.247 . S
C398 O397 1.208 . S
C399 O404 1.247 . S
C399 O405 1.208 . S
C400 O392 1.315 . S
C400 O395 1.279 . S
C401 O402 1.315 . S
C401 O403 1.279 . S
O402 Cd394 2.223 . S
O402 C401 1.315 . S
O403 Cd393 2.240 . S
O403 C401 1.279 . S
O404 Cd394 2.297 . S
O404 C399 1.247 . S
O405 Cd394 2.439 . S
O405 C399 1.208 . S
O406 Cd407 2.223 . S
O406 C414 1.315 . S
Cd407 O406 2.223 . S
Cd407 O410 2.297 . S
Cd407 O411 2.439 . S
Cd407 O417 2.240 . S
Cd408 O409 2.240 . S
Cd408 O416 2.223 . S
Cd408 O418 2.297 . S
Cd408 O419 2.439 . S
O409 Cd408 2.240 . S
O409 C414 1.279 . S
O410 Cd407 2.297 . S
O410 C412 1.247 . S
O411 Cd407 2.439 . S
O411 C412 1.208 . S
C412 O410 1.247 . S
C412 O411 1.208 . S
C413 O418 1.247 . S
C413 O419 1.208 . S
C414 O406 1.315 . S
C414 O409 1.279 . S
C415 O416 1.315 . S
C415 O417 1.279 . S
O416 Cd408 2.223 . S
O416 C415 1.315 . S
O417 Cd407 2.240 . S
O417 C415 1.279 . S
O418 Cd408 2.297 . S
O418 C413 1.247 . S
O419 Cd408 2.439 . S
O419 C413 1.208 . S
O420 Cd421 2.223 . S
O420 C428 1.315 . S
Cd421 O420 2.223 . S
Cd421 O424 2.297 . S
Cd421 O425 2.439 . S
Cd421 O431 2.240 . S
Cd422 O423 2.240 . S
Cd422 O430 2.223 . S
Cd422 O432 2.297 . S
Cd422 O433 2.439 . S
O423 Cd422 2.240 . S
O423 C428 1.279 . S
O424 Cd421 2.297 . S
O424 C426 1.247 . S
O425 Cd421 2.439 . S
O425 C426 1.208 . S
C426 O424 1.247 . S
C426 O425 1.208 . S
C427 O432 1.247 . S
C427 O433 1.208 . S
C428 O420 1.315 . S
C428 O423 1.279 . S
C429 O430 1.315 . S
C429 O431 1.279 . S
O430 Cd422 2.223 . S
O430 C429 1.315 . S
O431 Cd421 2.240 . S
O431 C429 1.279 . S
O432 Cd422 2.297 . S
O432 C427 1.247 . S
O433 Cd422 2.439 . S
O433 C427 1.208 . S
O434 Cd435 2.223 . S
O434 C442 1.315 . S
Cd435 O434 2.223 . S
Cd435 O438 2.297 . S
Cd435 O439 2.439 . S
Cd435 O445 2.240 . S
Cd436 O437 2.240 . S
Cd436 O444 2.223 . S
Cd436 O446 2.297 . S
Cd436 O447 2.439 . S
O437 Cd436 2.240 . S
O437 C442 1.279 . S
O438 Cd435 2.297 . S
O438 C440 1.247 . S
O439 Cd435 2.439 . S
O439 C440 1.208 . S
C440 O438 1.247 . S
C440 O439 1.208 . S
C441 O446 1.247 . S
C441 O447 1.208 . S
C442 O434 1.315 . S
C442 O437 1.279 . S
C443 O444 1.315 . S
C443 O445 1.279 . S
O444 Cd436 2.223 . S
O444 C443 1.315 . S
O445 Cd435 2.240 . S
O445 C443 1.279 . S
O446 Cd436 2.297 . S
O446 C441 1.247 . S
O447 Cd436 2.439 . S
O447 C441 1.208 . S
O448 Cd449 2.223 . S
O448 C456 1.315 . S
Cd449 O448 2.223 . S
Cd449 O452 2.297 . S
Cd449 O453 2.439 . S
Cd449 O459 2.240 . S
Cd450 O451 2.240 . S
Cd450 O458 2.223 . S
Cd450 O460 2.297 . S
Cd450 O461 2.439 . S
O451 Cd450 2.240 . S
O451 C456 1.279 . S
O452 Cd449 2.297 . S
O452 C454 1.247 . S
O453 Cd449 2.439 . S
O453 C454 1.208 . S
C454 O452 1.247 . S
C454 O453 1.208 . S
C455 O460 1.247 . S
C455 O461 1.208 . S
C456 O448 1.315 . S
C456 O451 1.279 . S
C457 O458 1.315 . S
C457 O459 1.279 . S
O458 Cd450 2.223 . S
O458 C457 1.315 . S
O459 Cd449 2.240 . S
O459 C457 1.279 . S
O460 Cd450 2.297 . S
O460 C455 1.247 . S
O461 Cd450 2.439 . S
O461 C455 1.208 . S
O462 Cd463 2.223 . S
O462 C470 1.315 . S
Cd463 O462 2.223 . S
Cd463 O466 2.297 . S
Cd463 O467 2.439 . S
Cd463 O473 2.240 . S
Cd464 O465 2.240 . S
Cd464 O472 2.223 . S
Cd464 O474 2.297 . S
Cd464 O475 2.439 . S
O465 Cd464 2.240 . S
O465 C470 1.279 . S
O466 Cd463 2.297 . S
O466 C468 1.247 . S
O467 Cd463 2.439 . S
O467 C468 1.208 . S
C468 O466 1.247 . S
C468 O467 1.208 . S
C469 O474 1.247 . S
C469 O475 1.208 . S
C470 O462 1.315 . S
C470 O465 1.279 . S
C471 O472 1.315 . S
C471 O473 1.279 . S
O472 Cd464 2.223 . S
O472 C471 1.315 . S
O473 Cd463 2.240 . S
O473 C471 1.279 . S
O474 Cd464 2.297 . S
O474 C469 1.247 . S
O475 Cd464 2.439 . S
O475 C469 1.208 . S
O476 Cd477 2.223 . S
O476 C484 1.315 . S
Cd477 O476 2.223 . S
Cd477 O480 2.297 . S
Cd477 O481 2.439 . S
Cd477 O487 2.240 . S
Cd478 O479 2.240 . S
Cd478 O486 2.223 . S
Cd478 O488 2.297 . S
Cd478 O489 2.439 . S
O479 Cd478 2.240 . S
O479 C484 1.279 . S
O480 Cd477 2.297 . S
O480 C482 1.247 . S
O481 Cd477 2.439 . S
O481 C482 1.208 . S
C482 O480 1.247 . S
C482 O481 1.208 . S
C483 O488 1.247 . S
C483 O489 1.208 . S
C484 O476 1.315 . S
C484 O479 1.279 . S
C485 O486 1.315 . S
C485 O487 1.279 . S
O486 Cd478 2.223 . S
O486 C485 1.315 . S
O487 Cd477 2.240 . S
O487 C485 1.279 . S
O488 Cd478 2.297 . S
O488 C483 1.247 . S
O489 Cd478 2.439 . S
O489 C483 1.208 . S
O490 Cd491 2.223 . S
O490 C498 1.315 . S
Cd491 O490 2.223 . S
Cd491 O494 2.297 . S
Cd491 O495 2.439 . S
Cd491 O501 2.240 . S
Cd492 O493 2.240 . S
Cd492 O500 2.223 . S
Cd492 O502 2.297 . S
Cd492 O503 2.439 . S
O493 Cd492 2.240 . S
O493 C498 1.279 . S
O494 Cd491 2.297 . S
O494 C496 1.247 . S
O495 Cd491 2.439 . S
O495 C496 1.208 . S
C496 O494 1.247 . S
C496 O495 1.208 . S
C497 O502 1.247 . S
C497 O503 1.208 . S
C498 O490 1.315 . S
C498 O493 1.279 . S
C499 O500 1.315 . S
C499 O501 1.279 . S
O500 Cd492 2.223 . S
O500 C499 1.315 . S
O501 Cd491 2.240 . S
O501 C499 1.279 . S
O502 Cd492 2.297 . S
O502 C497 1.247 . S
O503 Cd492 2.439 . S
O503 C497 1.208 . S
C504 C505 1.387 . S
C504 H508 0.950 . S
C504 C513 1.390 . S
C505 C504 1.387 . S
C505 C507 1.387 . S
H506 C513 0.950 . S
C507 C505 1.387 . S
C507 C509 1.390 . S
C507 H511 0.950 . S
H508 C504 0.950 . S
C509 C507 1.390 . S
C509 C510 1.387 . S
C509 H512 0.950 . S
C510 C509 1.387 . S
C510 C513 1.387 . S
H511 C507 0.950 . S
H512 C509 0.950 . S
C513 C504 1.390 . S
C513 H506 0.950 . S
C513 C510 1.387 . S
C514 C515 1.387 . S
C514 H518 0.950 . S
C514 C523 1.390 . S
C515 C514 1.387 . S
C515 C517 1.387 . S
H516 C523 0.950 . S
C517 C515 1.387 . S
C517 C519 1.390 . S
C517 H521 0.950 . S
H518 C514 0.950 . S
C519 C517 1.390 . S
C519 C520 1.387 . S
C519 H522 0.950 . S
C520 C519 1.387 . S
C520 C523 1.387 . S
H521 C517 0.950 . S
H522 C519 0.950 . S
C523 C514 1.390 . S
C523 H516 0.950 . S
C523 C520 1.387 . S
C524 C525 1.387 . S
C524 H528 0.950 . S
C524 C533 1.390 . S
C525 C524 1.387 . S
C525 C527 1.387 . S
H526 C533 0.950 . S
C527 C525 1.387 . S
C527 C529 1.390 . S
C527 H531 0.950 . S
H528 C524 0.950 . S
C529 C527 1.390 . S
C529 C530 1.387 . S
C529 H532 0.950 . S
C530 C529 1.387 . S
C530 C533 1.387 . S
H531 C527 0.950 . S
H532 C529 0.950 . S
C533 C524 1.390 . S
C533 H526 0.950 . S
C533 C530 1.387 . S
C534 C535 1.387 . S
C534 H538 0.950 . S
C534 C543 1.390 . S
C535 C534 1.387 . S
C535 C537 1.387 . S
H536 C543 0.950 . S
C537 C535 1.387 . S
C537 C539 1.390 . S
C537 H541 0.950 . S
H538 C534 0.950 . S
C539 C537 1.390 . S
C539 C540 1.387 . S
C539 H542 0.950 . S
C540 C539 1.387 . S
C540 C543 1.387 . S
H541 C537 0.950 . S
H542 C539 0.950 . S
C543 C534 1.390 . S
C543 H536 0.950 . S
C543 C540 1.387 . S
C544 C545 1.387 . S
C544 H548 0.950 . S
C544 C553 1.390 . S
C545 C544 1.387 . S
C545 C547 1.387 . S
H546 C553 0.950 . S
C547 C545 1.387 . S
C547 C549 1.390 . S
C547 H551 0.950 . S
H548 C544 0.950 . S
C549 C547 1.390 . S
C549 C550 1.387 . S
C549 H552 0.950 . S
C550 C549 1.387 . S
C550 C553 1.387 . S
H551 C547 0.950 . S
H552 C549 0.950 . S
C553 C544 1.390 . S
C553 H546 0.950 . S
C553 C550 1.387 . S
C554 C555 1.387 . S
C554 H558 0.950 . S
C554 C563 1.390 . S
C555 C554 1.387 . S
C555 C557 1.387 . S
H556 C563 0.950 . S
C557 C555 1.387 . S
C557 C559 1.390 . S
C557 H561 0.950 . S
H558 C554 0.950 . S
C559 C557 1.390 . S
C559 C560 1.387 . S
C559 H562 0.950 . S
C560 C559 1.387 . S
C560 C563 1.387 . S
H561 C557 0.950 . S
H562 C559 0.950 . S
C563 C554 1.390 . S
C563 H556 0.950 . S
C563 C560 1.387 . S
C564 C565 1.387 . S
C564 H568 0.950 . S
C564 C573 1.390 . S
C565 C564 1.387 . S
C565 C567 1.387 . S
H566 C573 0.950 . S
C567 C565 1.387 . S
C567 C569 1.390 . S
C567 H571 0.950 . S
H568 C564 0.950 . S
C569 C567 1.390 . S
C569 C570 1.387 . S
C569 H572 0.950 . S
C570 C569 1.387 . S
C570 C573 1.387 . S
H571 C567 0.950 . S
H572 C569 0.950 . S
C573 C564 1.390 . S
C573 H566 0.950 . S
C573 C570 1.387 . S
C574 C575 1.387 . S
C574 H578 0.950 . S
C574 C583 1.390 . S
C575 C574 1.387 . S
C575 C577 1.387 . S
H576 C583 0.950 . S
C577 C575 1.387 . S
C577 C579 1.390 . S
C577 H581 0.950 . S
H578 C574 0.950 . S
C579 C577 1.390 . S
C579 C580 1.387 . S
C579 H582 0.950 . S
C580 C579 1.387 . S
C580 C583 1.387 . S
H581 C577 0.950 . S
H582 C579 0.950 . S
C583 C574 1.390 . S
C583 H576 0.950 . S
C583 C580 1.387 . S
C584 C585 1.387 . S
C584 H588 0.950 . S
C584 C593 1.390 . S
C585 C584 1.387 . S
C585 C587 1.387 . S
H586 C593 0.950 . S
C587 C585 1.387 . S
C587 C589 1.390 . S
C587 H591 0.950 . S
H588 C584 0.950 . S
C589 C587 1.390 . S
C589 C590 1.387 . S
C589 H592 0.950 . S
C590 C589 1.387 . S
C590 C593 1.387 . S
H591 C587 0.950 . S
H592 C589 0.950 . S
C593 C584 1.390 . S
C593 H586 0.950 . S
C593 C590 1.387 . S
C594 C595 1.387 . S
C594 H598 0.950 . S
C594 C603 1.390 . S
C595 C594 1.387 . S
C595 C597 1.387 . S
H596 C603 0.950 . S
C597 C595 1.387 . S
C597 C599 1.390 . S
C597 H601 0.950 . S
H598 C594 0.950 . S
C599 C597 1.390 . S
C599 C600 1.387 . S
C599 H602 0.950 . S
C600 C599 1.387 . S
C600 C603 1.387 . S
H601 C597 0.950 . S
H602 C599 0.950 . S
C603 C594 1.390 . S
C603 H596 0.950 . S
C603 C600 1.387 . S
C604 C605 1.387 . S
C604 H608 0.950 . S
C604 C613 1.390 . S
C605 C604 1.387 . S
C605 C607 1.387 . S
H606 C613 0.950 . S
C607 C605 1.387 . S
C607 C609 1.390 . S
C607 H611 0.950 . S
H608 C604 0.950 . S
C609 C607 1.390 . S
C609 C610 1.387 . S
C609 H612 0.950 . S
C610 C609 1.387 . S
C610 C613 1.387 . S
H611 C607 0.950 . S
H612 C609 0.950 . S
C613 C604 1.390 . S
C613 H606 0.950 . S
C613 C610 1.387 . S
C614 C615 1.387 . S
C614 H618 0.950 . S
C614 C623 1.390 . S
C615 C614 1.387 . S
C615 C617 1.387 . S
H616 C623 0.950 . S
C617 C615 1.387 . S
C617 C619 1.390 . S
C617 H621 0.950 . S
H618 C614 0.950 . S
C619 C617 1.390 . S
C619 C620 1.387 . S
C619 H622 0.950 . S
C620 C619 1.387 . S
C620 C623 1.387 . S
H621 C617 0.950 . S
H622 C619 0.950 . S
C623 C614 1.390 . S
C623 H616 0.950 . S
C623 C620 1.387 . S
C624 C625 1.387 . S
C624 H628 0.950 . S
C624 C633 1.390 . S
C625 C624 1.387 . S
C625 C627 1.387 1_655 S
H626 C633 0.950 . S
C627 C625 1.387 1_455 S
C627 C629 1.390 . S
C627 H631 0.950 . S
H628 C624 0.950 . S
C629 C627 1.390 . S
C629 C630 1.387 . S
C629 H632 0.950 . S
C630 C629 1.387 . S
C630 C633 1.387 1_455 S
H631 C627 0.950 . S
H632 C629 0.950 . S
C633 C624 1.390 . S
C633 H626 0.950 . S
C633 C630 1.387 1_655 S
C634 C635 1.387 . S
C634 H638 0.950 . S
C634 C643 1.390 . S
C635 C634 1.387 . S
C635 C637 1.387 . S
H636 C643 0.950 . S
C637 C635 1.387 . S
C637 C639 1.390 . S
C637 H641 0.950 . S
H638 C634 0.950 . S
C639 C637 1.390 . S
C639 C640 1.387 . S
C639 H642 0.950 . S
C640 C639 1.387 . S
C640 C643 1.387 . S
H641 C637 0.950 . S
H642 C639 0.950 . S
C643 C634 1.390 . S
C643 H636 0.950 . S
C643 C640 1.387 . S
C644 C645 1.387 . S
C644 H648 0.950 . S
C644 C653 1.390 . S
C645 C644 1.387 . S
C645 C647 1.387 1_545 S
H646 C653 0.950 . S
C647 C645 1.387 1_565 S
C647 C649 1.390 . S
C647 H651 0.950 . S
H648 C644 0.950 . S
C649 C647 1.390 . S
C649 C650 1.387 . S
C649 H652 0.950 . S
C650 C649 1.387 . S
C650 C653 1.387 1_565 S
H651 C647 0.950 . S
H652 C649 0.950 . S
C653 C644 1.390 . S
C653 H646 0.950 . S
C653 C650 1.387 1_545 S
C654 C655 1.387 . S
C654 H658 0.950 . S
C654 C663 1.390 1_556 S
C655 C654 1.387 . S
C655 C657 1.387 1_545 S
H656 C663 0.950 . S
C657 C655 1.387 1_565 S
C657 C659 1.390 1_556 S
C657 H661 0.950 . S
H658 C654 0.950 . S
C659 C657 1.390 1_554 S
C659 C660 1.387 . S
C659 H662 0.950 . S
C660 C659 1.387 . S
C660 C663 1.387 1_565 S
H661 C657 0.950 . S
H662 C659 0.950 . S
C663 C654 1.390 1_554 S
C663 H656 0.950 . S
C663 C660 1.387 1_545 S
C664 C665 1.379 1_554 S
C664 H668 0.950 . S
C664 C673 1.398 . S
C665 C664 1.379 1_556 S
C665 C667 1.387 1_655 S
H666 C673 0.950 . S
C667 C665 1.387 1_455 S
C667 C669 1.398 . S
C667 H671 0.950 . S
H668 C664 0.950 . S
C669 C667 1.398 . S
C669 C670 1.379 1_556 S
C669 H672 0.950 . S
C670 C669 1.379 1_554 S
C670 C673 1.387 1_455 S
H671 C667 0.950 . S
H672 C669 0.950 . S
C673 C664 1.398 . S
C673 H666 0.950 . S
C673 C670 1.387 1_655 S
C674 C675 1.387 . S
C674 H678 0.950 . S
C674 C683 1.390 1_556 S
C675 C674 1.387 . S
C675 C677 1.387 . S
H676 C683 0.950 . S
C677 C675 1.387 . S
C677 C679 1.390 1_556 S
C677 H681 0.950 . S
H678 C674 0.950 . S
C679 C677 1.390 1_554 S
C679 C680 1.387 . S
C679 H682 0.950 . S
C680 C679 1.387 . S
C680 C683 1.387 . S
H681 C677 0.950 . S
H682 C679 0.950 . S
C683 C674 1.390 1_554 S
C683 H676 0.950 . S
C683 C680 1.387 . S
C684 C685 1.387 . S
C684 H688 0.950 . S
C684 C693 1.390 . S
C685 C684 1.387 . S
C685 C687 1.387 . S
H686 C693 0.950 1_554 S
C687 C685 1.387 . S
C687 C689 1.390 . S
C687 H691 0.950 . S
H688 C684 0.950 . S
C689 C687 1.390 . S
C689 C690 1.387 1_556 S
C689 H692 0.950 1_556 S
C690 C689 1.387 1_554 S
C690 C693 1.387 1_554 S
H691 C687 0.950 . S
H692 C689 0.950 1_554 S
C693 C684 1.390 . S
C693 H686 0.950 1_556 S
C693 C690 1.387 1_556 S
C694 C695 1.387 . S
C694 H698 0.950 . S
C694 C703 1.390 . S
C695 C694 1.387 . S
C695 C697 1.387 . S
H696 C703 0.950 . S
C697 C695 1.387 . S
C697 C699 1.390 1_556 S
C697 H701 0.950 . S
H698 C694 0.950 . S
C699 C697 1.390 1_554 S
C699 C700 1.387 . S
C699 H702 0.950 . S
C700 C699 1.387 . S
C700 C703 1.387 1_554 S
H701 C697 0.950 . S
H702 C699 0.950 . S
C703 C694 1.390 . S
C703 H696 0.950 . S
C703 C700 1.387 1_556 S
C704 C705 1.387 . S
C704 H708 0.950 . S
C704 C713 1.390 1_554 S
C705 C704 1.387 . S
C705 C707 1.387 1_554 S
H706 C713 0.950 . S
C707 C705 1.387 1_556 S
C707 C709 1.390 . S
C707 H711 0.950 . S
H708 C704 0.950 . S
C709 C707 1.390 . S
C709 C710 1.387 . S
C709 H712 0.950 . S
C710 C709 1.387 . S
C710 C713 1.387 . S
H711 C707 0.950 . S
H712 C709 0.950 . S
C713 C704 1.390 1_556 S
C713 H706 0.950 . S
C713 C710 1.387 . S
C714 C715 1.387 . S
C714 H718 0.950 . S
C714 C723 1.390 . S
C715 C714 1.387 . S
C715 C717 1.387 . S
H716 C723 0.950 . S
C717 C715 1.387 . S
C717 C719 1.390 . S
C717 H721 0.950 1_455 S
H718 C714 0.950 . S
C719 C717 1.390 . S
C719 C720 1.387 . S
C719 H722 0.950 . S
C720 C719 1.387 . S
C720 C723 1.387 . S
H721 C717 0.950 1_655 S
H722 C719 0.950 . S
C723 C714 1.390 . S
C723 H716 0.950 . S
C723 C720 1.387 . S
C724 C725 1.387 . S
C724 H728 0.950 . S
C724 C733 1.390 . S
C725 C724 1.387 . S
C725 C727 1.387 . S
H726 C733 0.950 . S
C727 C725 1.387 . S
C727 C729 1.390 . S
C727 H731 0.950 . S
H728 C724 0.950 . S
C729 C727 1.390 . S
C729 C730 1.387 . S
C729 H732 0.950 . S
C730 C729 1.387 . S
C730 C733 1.387 . S
H731 C727 0.950 . S
H732 C729 0.950 . S
C733 C724 1.390 . S
C733 H726 0.950 . S
C733 C730 1.387 . S
C734 C735 1.387 . S
C734 H738 0.950 . S
C734 C743 1.390 . S
C735 C734 1.387 . S
C735 C737 1.387 . S
H736 C743 0.950 . S
C737 C735 1.387 . S
C737 C739 1.390 . S
C737 H741 0.950 . S
H738 C734 0.950 . S
C739 C737 1.390 . S
C739 C740 1.387 . S
C739 H742 0.950 . S
C740 C739 1.387 . S
C740 C743 1.387 . S
H741 C737 0.950 . S
H742 C739 0.950 . S
C743 C734 1.390 . S
C743 H736 0.950 . S
C743 C740 1.387 . S
C744 C745 1.387 1_554 S
C744 H748 0.950 1_554 S
C744 C753 1.390 . S
C745 C744 1.387 1_556 S
C745 C747 1.387 1_556 S
H746 C753 0.950 . S
C747 C745 1.387 1_554 S
C747 C749 1.390 . S
C747 H751 0.950 1_554 S
H748 C744 0.950 1_556 S
C749 C747 1.390 . S
C749 C750 1.387 . S
C749 H752 0.950 . S
C750 C749 1.387 . S
C750 C753 1.387 . S
H751 C747 0.950 1_556 S
H752 C749 0.950 . S
C753 C744 1.390 . S
C753 H746 0.950 . S
C753 C750 1.387 . S
C754 C755 1.387 . S
C754 H758 0.950 . S
C754 C763 1.374 1_556 S
C755 C754 1.387 . S
C755 C757 1.387 1_556 S
H756 C763 0.938 1_656 S
C757 C755 1.387 1_554 S
C757 C759 1.390 . S
C757 H761 0.950 . S
H758 C754 0.950 . S
C759 C757 1.390 . S
C759 C760 1.387 . S
C759 H762 0.950 . S
C760 C759 1.387 . S
C760 C763 1.416 . S
H761 C757 0.950 . S
H762 C759 0.950 . S
C763 C754 1.374 1_554 S
C763 H756 0.938 1_454 S
C763 C760 1.416 . S
C764 C765 1.387 1_554 S
C764 H768 0.950 . S
C764 C773 1.390 . S
C765 C764 1.387 1_556 S
C765 C767 1.387 . S
H766 C773 0.950 . S
C767 C765 1.387 . S
C767 C769 1.390 1_556 S
C767 H771 0.950 . S
H768 C764 0.950 . S
C769 C767 1.390 1_554 S
C769 C770 1.387 . S
C769 H772 0.950 . S
C770 C769 1.387 . S
C770 C773 1.387 . S
H771 C767 0.950 . S
H772 C769 0.950 . S
C773 C764 1.390 . S
C773 H766 0.950 . S
C773 C770 1.387 . S
C774 C775 1.387 . S
C774 H778 0.950 . S
C774 C783 1.390 . S
C775 C774 1.387 . S
C775 C777 1.387 . S
H776 C783 0.950 1_455 S
C777 C775 1.387 . S
C777 C779 1.390 . S
C777 H781 0.950 . S
H778 C774 0.950 . S
C779 C777 1.390 . S
C779 C780 1.387 . S
C779 H782 0.950 . S
C780 C779 1.387 . S
C780 C783 1.387 . S
H781 C777 0.950 . S
H782 C779 0.950 . S
C783 C774 1.390 . S
C783 H776 0.950 1_655 S
C783 C780 1.387 . S
C784 C785 1.387 . S
C784 H788 0.950 . S
C784 C793 1.390 . S
C785 C784 1.387 . S
C785 C787 1.387 . S
H786 C793 0.950 . S
C787 C785 1.387 . S
C787 C789 1.390 . S
C787 H791 0.950 . S
H788 C784 0.950 . S
C789 C787 1.390 . S
C789 C790 1.387 . S
C789 H792 0.950 . S
C790 C789 1.387 . S
C790 C793 1.387 . S
H791 C787 0.950 . S
H792 C789 0.950 . S
C793 C784 1.390 . S
C793 H786 0.950 . S
C793 C790 1.387 . S
C794 C795 1.387 . S
C794 H798 0.950 . S
C794 C803 1.390 . S
C795 C794 1.387 . S
C795 C797 1.387 . S
H796 C803 0.950 . S
C797 C795 1.387 . S
C797 C799 1.390 . S
C797 H801 0.950 . S
H798 C794 0.950 . S
C799 C797 1.390 . S
C799 C800 1.387 . S
C799 H802 0.950 . S
C800 C799 1.387 . S
C800 C803 1.387 . S
H801 C797 0.950 . S
H802 C799 0.950 . S
C803 C794 1.390 . S
C803 H796 0.950 . S
C803 C800 1.387 . S
C804 C805 1.387 . S
C804 H808 0.950 . S
C804 C813 1.390 . S
C805 C804 1.387 . S
C805 C807 1.387 . S
H806 C813 0.950 . S
C807 C805 1.387 . S
C807 C809 1.390 . S
C807 H811 0.950 . S
H808 C804 0.950 . S
C809 C807 1.390 . S
C809 C810 1.387 . S
C809 H812 0.950 . S
C810 C809 1.387 . S
C810 C813 1.387 . S
H811 C807 0.950 . S
H812 C809 0.950 . S
C813 C804 1.390 . S
C813 H806 0.950 . S
C813 C810 1.387 . S
C814 C815 1.387 . S
C814 H818 0.950 . S
C814 C823 1.390 . S
C815 C814 1.387 . S
C815 C817 1.387 . S
H816 C823 0.950 . S
C817 C815 1.387 . S
C817 C819 1.390 . S
C817 H821 0.950 . S
H818 C814 0.950 . S
C819 C817 1.390 . S
C819 C820 1.387 . S
C819 H822 0.950 . S
C820 C819 1.387 . S
C820 C823 1.387 . S
H821 C817 0.950 . S
H822 C819 0.950 . S
C823 C814 1.390 . S
C823 H816 0.950 . S
C823 C820 1.387 . S
C824 C825 1.387 . S
C824 H828 0.950 . S
C824 C833 1.390 . S
C825 C824 1.387 . S
C825 C827 1.387 . S
H826 C833 0.950 . S
C827 C825 1.387 . S
C827 C829 1.390 . S
C827 H831 0.950 . S
H828 C824 0.950 . S
C829 C827 1.390 . S
C829 C830 1.387 . S
C829 H832 0.950 . S
C830 C829 1.387 . S
C830 C833 1.387 . S
H831 C827 0.950 . S
H832 C829 0.950 . S
C833 C824 1.390 . S
C833 H826 0.950 . S
C833 C830 1.387 . S
C834 C835 1.387 . S
C834 H838 0.950 . S
C834 C843 1.390 . S
C835 C834 1.387 . S
C835 C837 1.387 . S
H836 C843 0.950 . S
C837 C835 1.387 . S
C837 C839 1.390 . S
C837 H841 0.950 . S
H838 C834 0.950 . S
C839 C837 1.390 . S
C839 C840 1.387 . S
C839 H842 0.950 . S
C840 C839 1.387 . S
C840 C843 1.387 . S
H841 C837 0.950 . S
H842 C839 0.950 . S
C843 C834 1.390 . S
C843 H836 0.950 . S
C843 C840 1.387 . S
C844 C845 1.387 . S
C844 H848 0.950 . S
C844 C853 1.390 . S
C845 C844 1.387 . S
C845 C847 1.387 . S
H846 C853 0.950 . S
C847 C845 1.387 . S
C847 C849 1.390 . S
C847 H851 0.950 . S
H848 C844 0.950 . S
C849 C847 1.390 . S
C849 C850 1.387 . S
C849 H852 0.950 . S
C850 C849 1.387 . S
C850 C853 1.387 . S
H851 C847 0.950 . S
H852 C849 0.950 . S
C853 C844 1.390 . S
C853 H846 0.950 . S
C853 C850 1.387 . S
C854 C855 1.387 . S
C854 H858 0.950 . S
C854 C863 1.390 . S
C855 C854 1.387 . S
C855 C857 1.387 . S
H856 C863 0.950 . S
C857 C855 1.387 . S
C857 C859 1.390 . S
C857 H861 0.950 . S
H858 C854 0.950 . S
C859 C857 1.390 . S
C859 C860 1.387 . S
C859 H862 0.950 . S
C860 C859 1.387 . S
C860 C863 1.387 . S
H861 C857 0.950 . S
H862 C859 0.950 . S
C863 C854 1.390 . S
C863 H856 0.950 . S
C863 C860 1.387 . S
C864 C865 1.387 . S
C864 H868 0.950 . S
C864 C873 1.390 . S
C865 C864 1.387 . S
C865 C867 1.387 . S
H866 C873 0.950 . S
C867 C865 1.387 . S
C867 C869 1.390 . S
C867 H871 0.950 . S
H868 C864 0.950 . S
C869 C867 1.390 . S
C869 C870 1.387 . S
C869 H872 0.950 . S
C870 C869 1.387 . S
C870 C873 1.387 . S
H871 C867 0.950 . S
H872 C869 0.950 . S
C873 C864 1.390 . S
C873 H866 0.950 . S
C873 C870 1.387 . S
C874 C875 1.387 . S
C874 H878 0.950 . S
C874 C883 1.390 . S
C875 C874 1.387 . S
C875 C877 1.387 . S
H876 C883 0.950 . S
C877 C875 1.387 . S
C877 C879 1.390 . S
C877 H881 0.950 . S
H878 C874 0.950 . S
C879 C877 1.390 . S
C879 C880 1.387 . S
C879 H882 0.950 . S
C880 C879 1.387 . S
C880 C883 1.387 . S
H881 C877 0.950 . S
H882 C879 0.950 . S
C883 C874 1.390 . S
C883 H876 0.950 . S
C883 C880 1.387 . S
C884 C885 1.387 . S
C884 H888 0.950 . S
C884 C893 1.390 . S
C885 C884 1.387 . S
C885 C887 1.387 . S
H886 C893 0.950 . S
C887 C885 1.387 . S
C887 C889 1.390 . S
C887 H891 0.950 . S
H888 C884 0.950 . S
C889 C887 1.390 . S
C889 C890 1.387 . S
C889 H892 0.950 . S
C890 C889 1.387 . S
C890 C893 1.387 . S
H891 C887 0.950 . S
H892 C889 0.950 . S
C893 C884 1.390 . S
C893 H886 0.950 . S
C893 C890 1.387 . S
C894 C895 1.387 . S
C894 H898 0.950 . S
C894 C903 1.390 . S
C895 C894 1.387 . S
C895 C897 1.387 . S
H896 C903 0.950 . S
C897 C895 1.387 . S
C897 C899 1.390 . S
C897 H901 0.950 . S
H898 C894 0.950 . S
C899 C897 1.390 . S
C899 C900 1.387 . S
C899 H902 0.950 . S
C900 C899 1.387 . S
C900 C903 1.387 . S
H901 C897 0.950 . S
H902 C899 0.950 . S
C903 C894 1.390 . S
C903 H896 0.950 . S
C903 C900 1.387 . S
C904 C905 1.387 . S
C904 H908 0.950 . S
C904 C913 1.390 . S
C905 C904 1.387 . S
C905 C907 1.387 . S
H906 C913 0.950 . S
C907 C905 1.387 . S
C907 C909 1.390 . S
C907 H911 0.950 . S
H908 C904 0.950 . S
C909 C907 1.390 . S
C909 C910 1.387 . S
C909 H912 0.950 . S
C910 C909 1.387 . S
C910 C913 1.387 . S
H911 C907 0.950 . S
H912 C909 0.950 . S
C913 C904 1.390 . S
C913 H906 0.950 . S
C913 C910 1.387 . S
C914 C915 1.387 . S
C914 H918 0.950 . S
C914 C923 1.390 . S
C915 C914 1.387 . S
C915 C917 1.387 . S
H916 C923 0.950 . S
C917 C915 1.387 . S
C917 C919 1.390 . S
C917 H921 0.950 . S
H918 C914 0.950 . S
C919 C917 1.390 . S
C919 C920 1.387 . S
C919 H922 0.950 . S
C920 C919 1.387 . S
C920 C923 1.387 . S
H921 C917 0.950 . S
H922 C919 0.950 . S
C923 C914 1.390 . S
C923 H916 0.950 . S
C923 C920 1.387 . S
C924 C925 1.387 . S
C924 H928 0.950 . S
C924 C933 1.390 . S
C925 C924 1.387 . S
C925 C927 1.387 . S
H926 C933 0.950 . S
C927 C925 1.387 . S
C927 C929 1.390 . S
C927 H931 0.950 . S
H928 C924 0.950 . S
C929 C927 1.390 . S
C929 C930 1.387 . S
C929 H932 0.950 . S
C930 C929 1.387 . S
C930 C933 1.387 . S
H931 C927 0.950 . S
H932 C929 0.950 . S
C933 C924 1.390 . S
C933 H926 0.950 . S
C933 C930 1.387 . S
C934 C935 1.387 . S
C934 H938 0.950 . S
C934 C943 1.390 . S
C935 C934 1.387 . S
C935 C937 1.387 . S
H936 C943 0.950 . S
C937 C935 1.387 . S
C937 C939 1.390 . S
C937 H941 0.950 . S
H938 C934 0.950 . S
C939 C937 1.390 . S
C939 C940 1.387 . S
C939 H942 0.950 . S
C940 C939 1.387 . S
C940 C943 1.387 . S
H941 C937 0.950 . S
H942 C939 0.950 . S
C943 C934 1.390 . S
C943 H936 0.950 . S
C943 C940 1.387 . S
C944 C945 1.387 . S
C944 H948 0.950 . S
C944 C953 1.390 . S
C945 C944 1.387 . S
C945 C947 1.387 . S
H946 C953 0.950 . S
C947 C945 1.387 . S
C947 C949 1.390 . S
C947 H951 0.950 . S
H948 C944 0.950 . S
C949 C947 1.390 . S
C949 C950 1.387 . S
C949 H952 0.950 . S
C950 C949 1.387 . S
C950 C953 1.387 . S
H951 C947 0.950 . S
H952 C949 0.950 . S
C953 C944 1.390 . S
C953 H946 0.950 . S
C953 C950 1.387 . S
C954 C955 1.387 . S
C954 H958 0.950 . S
C954 C963 1.390 . S
C955 C954 1.387 . S
C955 C957 1.387 . S
H956 C963 0.950 . S
C957 C955 1.387 . S
C957 C959 1.390 . S
C957 H961 0.950 . S
H958 C954 0.950 . S
C959 C957 1.390 . S
C959 C960 1.387 . S
C959 H962 0.950 . S
C960 C959 1.387 . S
C960 C963 1.387 . S
H961 C957 0.950 . S
H962 C959 0.950 . S
C963 C954 1.390 . S
C963 H956 0.950 . S
C963 C960 1.387 . S
C964 C965 1.387 . S
C964 H968 0.950 . S
C964 C973 1.390 . S
C965 C964 1.387 . S
C965 C967 1.387 . S
H966 C973 0.950 . S
C967 C965 1.387 . S
C967 C969 1.390 . S
C967 H971 0.950 . S
H968 C964 0.950 . S
C969 C967 1.390 . S
C969 C970 1.387 . S
C969 H972 0.950 . S
C970 C969 1.387 . S
C970 C973 1.387 . S
H971 C967 0.950 . S
H972 C969 0.950 . S
C973 C964 1.390 . S
C973 H966 0.950 . S
C973 C970 1.387 . S
C974 C975 1.387 . S
C974 H978 0.950 . S
C974 C983 1.390 . S
C975 C974 1.387 . S
C975 C977 1.387 . S
H976 C983 0.950 . S
C977 C975 1.387 . S
C977 C979 1.390 . S
C977 H981 0.950 . S
H978 C974 0.950 . S
C979 C977 1.390 . S
C979 C980 1.387 . S
C979 H982 0.950 . S
C980 C979 1.387 . S
C980 C983 1.387 . S
H981 C977 0.950 . S
H982 C979 0.950 . S
C983 C974 1.390 . S
C983 H976 0.950 . S
C983 C980 1.387 . S
C984 C985 1.387 . S
C984 H988 0.950 . S
C984 C993 1.390 . S
C985 C984 1.387 . S
C985 C987 1.387 . S
H986 C993 0.950 . S
C987 C985 1.387 . S
C987 C989 1.390 . S
C987 H991 0.950 . S
H988 C984 0.950 . S
C989 C987 1.390 . S
C989 C990 1.387 . S
C989 H992 0.950 . S
C990 C989 1.387 . S
C990 C993 1.387 . S
H991 C987 0.950 . S
H992 C989 0.950 . S
C993 C984 1.390 . S
C993 H986 0.950 . S
C993 C990 1.387 . S
C994 C995 1.387 . S
C994 H998 0.950 . S
C994 C1003 1.390 . S
C995 C994 1.387 . S
C995 C997 1.387 . S
H996 C1003 0.950 . S
C997 C995 1.387 . S
C997 C999 1.390 . S
C997 H1001 0.950 . S
H998 C994 0.950 . S
C999 C997 1.390 . S
C999 C1000 1.387 . S
C999 H1002 0.950 . S
C1000 C999 1.387 . S
C1000 C1003 1.387 . S
H1001 C997 0.950 . S
H1002 C999 0.950 . S
C1003 C994 1.390 . S
C1003 H996 0.950 . S
C1003 C1000 1.387 . S
C1004 C1005 1.387 . S
C1004 H1008 0.950 . S
C1004 C1013 1.390 . S
C1005 C1004 1.387 . S
C1005 C1007 1.387 . S
H1006 C1013 0.950 . S
C1007 C1005 1.387 . S
C1007 C1009 1.390 . S
C1007 H1011 0.950 . S
H1008 C1004 0.950 . S
C1009 C1007 1.390 . S
C1009 C1010 1.387 . S
C1009 H1012 0.950 . S
C1010 C1009 1.387 . S
C1010 C1013 1.387 . S
H1011 C1007 0.950 . S
H1012 C1009 0.950 . S
C1013 C1004 1.390 . S
C1013 H1006 0.950 . S
C1013 C1010 1.387 . S
C1014 C1015 1.387 . S
C1014 H1018 0.950 . S
C1014 C1023 1.390 . S
C1015 C1014 1.387 . S
C1015 C1017 1.387 . S
H1016 C1023 0.950 . S
C1017 C1015 1.387 . S
C1017 C1019 1.390 . S
C1017 H1021 0.950 . S
H1018 C1014 0.950 . S
C1019 C1017 1.390 . S
C1019 C1020 1.387 . S
C1019 H1022 0.950 . S
C1020 C1019 1.387 . S
C1020 C1023 1.387 . S
H1021 C1017 0.950 . S
H1022 C1019 0.950 . S
C1023 C1014 1.390 . S
C1023 H1016 0.950 . S
C1023 C1020 1.387 . S
C1024 C1025 1.387 . S
C1024 H1028 0.950 . S
C1024 C1033 1.390 . S
C1025 C1024 1.387 . S
C1025 C1027 1.387 . S
H1026 C1033 0.950 . S
C1027 C1025 1.387 . S
C1027 C1029 1.390 . S
C1027 H1031 0.950 . S
H1028 C1024 0.950 . S
C1029 C1027 1.390 . S
C1029 C1030 1.387 . S
C1029 H1032 0.950 . S
C1030 C1029 1.387 . S
C1030 C1033 1.387 . S
H1031 C1027 0.950 . S
H1032 C1029 0.950 . S
C1033 C1024 1.390 . S
C1033 H1026 0.950 . S
C1033 C1030 1.387 . S
C1034 C1035 1.387 . S
C1034 H1038 0.950 . S
C1034 C1043 1.390 . S
C1035 C1034 1.387 . S
C1035 C1037 1.387 . S
H1036 C1043 0.950 . S
C1037 C1035 1.387 . S
C1037 C1039 1.390 . S
C1037 H1041 0.950 . S
H1038 C1034 0.950 . S
C1039 C1037 1.390 . S
C1039 C1040 1.387 . S
C1039 H1042 0.950 . S
C1040 C1039 1.387 . S
C1040 C1043 1.387 . S
H1041 C1037 0.950 . S
H1042 C1039 0.950 . S
C1043 C1034 1.390 . S
C1043 H1036 0.950 . S
C1043 C1040 1.387 . S
C1044 C1045 1.387 . S
C1044 H1048 0.950 . S
C1044 C1053 1.390 . S
C1045 C1044 1.387 . S
C1045 C1047 1.387 . S
H1046 C1053 0.950 . S
C1047 C1045 1.387 . S
C1047 C1049 1.390 . S
C1047 H1051 0.950 . S
H1048 C1044 0.950 . S
C1049 C1047 1.390 . S
C1049 C1050 1.387 . S
C1049 H1052 0.950 . S
C1050 C1049 1.387 . S
C1050 C1053 1.387 . S
H1051 C1047 0.950 . S
H1052 C1049 0.950 . S
C1053 C1044 1.390 . S
C1053 H1046 0.950 . S
C1053 C1050 1.387 . S
C1054 C1055 1.387 1_565 S
C1054 H1058 0.950 . S
C1054 C1063 1.390 1_565 S
C1055 C1054 1.387 1_545 S
C1055 C1057 1.387 . S
H1056 C1063 0.950 . S
C1057 C1055 1.387 . S
C1057 C1059 1.390 . S
C1057 H1061 0.950 . S
H1058 C1054 0.950 . S
C1059 C1057 1.390 . S
C1059 C1060 1.387 . S
C1059 H1062 0.950 . S
C1060 C1059 1.387 . S
C1060 C1063 1.387 . S
H1061 C1057 0.950 . S
H1062 C1059 0.950 . S
C1063 C1054 1.390 1_545 S
C1063 H1056 0.950 . S
C1063 C1060 1.387 . S
C1064 C1065 1.387 . S
C1064 H1068 0.950 . S
C1064 C1073 1.390 . S
C1065 C1064 1.387 . S
C1065 C1067 1.387 . S
H1066 C1073 0.950 . S
C1067 C1065 1.387 . S
C1067 C1069 1.390 1_655 S
C1067 H1071 0.950 . S
H1068 C1064 0.950 . S
C1069 C1067 1.390 1_455 S
C1069 C1070 1.387 1_455 S
C1069 H1072 0.950 . S
C1070 C1069 1.387 1_655 S
C1070 C1073 1.387 . S
H1071 C1067 0.950 . S
H1072 C1069 0.950 . S
C1073 C1064 1.390 . S
C1073 H1066 0.950 . S
C1073 C1070 1.387 . S
C1074 C1075 1.387 . S
C1074 H1078 0.950 . S
C1074 C1083 1.390 . S
C1075 C1074 1.387 . S
C1075 C1077 1.387 . S
H1076 C1083 0.950 . S
C1077 C1075 1.387 . S
C1077 C1079 1.390 . S
C1077 H1081 0.950 . S
H1078 C1074 0.950 . S
C1079 C1077 1.390 . S
C1079 C1080 1.387 . S
C1079 H1082 0.950 . S
C1080 C1079 1.387 . S
C1080 C1083 1.387 . S
H1081 C1077 0.950 . S
H1082 C1079 0.950 . S
C1083 C1074 1.390 . S
C1083 H1076 0.950 . S
C1083 C1080 1.387 . S
C1084 C1085 1.387 . S
C1084 H1088 0.950 . S
C1084 C1093 1.390 . S
C1085 C1084 1.387 . S
C1085 C1087 1.387 1_565 S
H1086 C1093 0.950 . S
C1087 C1085 1.387 1_545 S
C1087 C1089 1.390 1_545 S
C1087 H1091 0.950 . S
H1088 C1084 0.950 . S
C1089 C1087 1.390 1_565 S
C1089 C1090 1.387 . S
C1089 H1092 0.950 1_565 S
C1090 C1089 1.387 . S
C1090 C1093 1.387 . S
H1091 C1087 0.950 . S
H1092 C1089 0.950 1_545 S
C1093 C1084 1.390 . S
C1093 H1086 0.950 . S
C1093 C1090 1.387 . S
C1094 C1095 1.387 . S
C1094 H1098 0.950 . S
C1094 C1103 1.390 . S
C1095 C1094 1.387 . S
C1095 C1097 1.387 . S
H1096 C1103 0.950 . S
C1097 C1095 1.387 . S
C1097 C1099 1.390 1_455 S
C1097 H1101 0.950 1_455 S
H1098 C1094 0.950 . S
C1099 C1097 1.390 1_655 S
C1099 C1100 1.387 1_655 S
C1099 H1102 0.950 . S
C1100 C1099 1.387 1_455 S
C1100 C1103 1.387 . S
H1101 C1097 0.950 1_655 S
H1102 C1099 0.950 . S
C1103 C1094 1.390 . S
C1103 H1096 0.950 . S
C1103 C1100 1.387 . S
C1104 C1105 1.387 . S
C1104 H1108 0.950 . S
C1104 C1113 1.390 . S
C1105 C1104 1.387 . S
C1105 C1107 1.387 . S
H1106 C1113 0.950 . S
C1107 C1105 1.387 . S
C1107 C1109 1.390 . S
C1107 H1111 0.950 . S
H1108 C1104 0.950 . S
C1109 C1107 1.390 . S
C1109 C1110 1.387 . S
C1109 H1112 0.950 . S
C1110 C1109 1.387 . S
C1110 C1113 1.387 . S
H1111 C1107 0.950 . S
H1112 C1109 0.950 . S
C1113 C1104 1.390 . S
C1113 H1106 0.950 . S
C1113 C1110 1.387 . S
C1114 C1115 1.387 . S
C1114 H1118 0.950 . S
C1114 C1123 1.390 . S
C1115 C1114 1.387 . S
C1115 C1117 1.387 . S
H1116 C1123 0.950 . S
C1117 C1115 1.387 . S
C1117 C1119 1.390 . S
C1117 H1121 0.950 . S
H1118 C1114 0.950 . S
C1119 C1117 1.390 . S
C1119 C1120 1.387 . S
C1119 H1122 0.950 . S
C1120 C1119 1.387 . S
C1120 C1123 1.387 . S
H1121 C1117 0.950 . S
H1122 C1119 0.950 . S
C1123 C1114 1.390 . S
C1123 H1116 0.950 . S
C1123 C1120 1.387 . S
C1124 C1125 1.387 . S
C1124 H1128 0.950 . S
C1124 C1133 1.390 . S
C1125 C1124 1.387 . S
C1125 C1127 1.387 . S
H1126 C1133 0.950 1_655 S
C1127 C1125 1.387 . S
C1127 C1129 1.390 . S
C1127 H1131 0.950 . S
H1128 C1124 0.950 . S
C1129 C1127 1.390 . S
C1129 C1130 1.387 . S
C1129 H1132 0.950 . S
C1130 C1129 1.387 . S
C1130 C1133 1.387 . S
H1131 C1127 0.950 . S
H1132 C1129 0.950 . S
C1133 C1124 1.390 . S
C1133 H1126 0.950 1_455 S
C1133 C1130 1.387 . S
C1134 C1135 1.387 . S
C1134 H1138 0.950 . S
C1134 C1143 1.390 . S
C1135 C1134 1.387 . S
C1135 C1137 1.387 . S
H1136 C1143 0.950 . S
C1137 C1135 1.387 . S
C1137 C1139 1.390 . S
C1137 H1141 0.950 . S
H1138 C1134 0.950 . S
C1139 C1137 1.390 . S
C1139 C1140 1.387 . S
C1139 H1142 0.950 . S
C1140 C1139 1.387 . S
C1140 C1143 1.387 . S
H1141 C1137 0.950 . S
H1142 C1139 0.950 . S
C1143 C1134 1.390 . S
C1143 H1136 0.950 . S
C1143 C1140 1.387 . S
C1144 C1145 1.387 . S
C1144 H1148 0.950 1_545 S
C1144 C1153 1.390 1_545 S
C1145 C1144 1.387 . S
C1145 C1147 1.387 . S
H1146 C1153 0.950 . S
C1147 C1145 1.387 . S
C1147 C1149 1.390 . S
C1147 H1151 0.950 . S
H1148 C1144 0.950 1_565 S
C1149 C1147 1.390 . S
C1149 C1150 1.387 . S
C1149 H1152 0.950 . S
C1150 C1149 1.387 . S
C1150 C1153 1.387 1_545 S
H1151 C1147 0.950 . S
H1152 C1149 0.950 . S
C1153 C1144 1.390 1_565 S
C1153 H1146 0.950 . S
C1153 C1150 1.387 1_565 S
C1154 C1155 1.387 . S
C1154 H1158 0.950 . S
C1154 C1163 1.390 . S
C1155 C1154 1.387 . S
C1155 C1157 1.387 1_655 S
H1156 C1163 0.950 . S
C1157 C1155 1.387 1_455 S
C1157 C1159 1.390 1_455 S
C1157 H1161 0.950 . S
H1158 C1154 0.950 . S
C1159 C1157 1.390 1_655 S
C1159 C1160 1.387 . S
C1159 H1162 0.950 1_655 S
C1160 C1159 1.387 . S
C1160 C1163 1.387 . S
H1161 C1157 0.950 . S
H1162 C1159 0.950 1_455 S
C1163 C1154 1.390 . S
C1163 H1156 0.950 . S
C1163 C1160 1.387 . S
C1164 C1165 1.387 . S
C1164 H1168 0.950 . S
C1164 C1173 1.390 1_655 S
C1165 C1164 1.387 . S
C1165 C1167 1.387 . S
H1166 C1173 0.950 . S
C1167 C1165 1.387 . S
C1167 C1169 1.390 1_655 S
C1167 H1171 0.950 . S
H1168 C1164 0.950 . S
C1169 C1167 1.390 1_455 S
C1169 C1170 1.387 . S
C1169 H1172 0.950 . S
C1170 C1169 1.387 . S
C1170 C1173 1.387 . S
H1171 C1167 0.950 . S
H1172 C1169 0.950 . S
C1173 C1164 1.390 1_455 S
C1173 H1166 0.950 . S
C1173 C1170 1.387 . S
C1174 C1175 1.387 . S
C1174 H1178 0.950 . S
C1174 C1183 1.390 . S
C1175 C1174 1.387 . S
C1175 C1177 1.387 . S
H1176 C1183 0.950 . S
C1177 C1175 1.387 . S
C1177 C1179 1.390 . S
C1177 H1181 0.950 . S
H1178 C1174 0.950 . S
C1179 C1177 1.390 . S
C1179 C1180 1.387 . S
C1179 H1182 0.950 . S
C1180 C1179 1.387 . S
C1180 C1183 1.387 . S
H1181 C1177 0.950 . S
H1182 C1179 0.950 . S
C1183 C1174 1.390 . S
C1183 H1176 0.950 . S
C1183 C1180 1.387 . S
C1184 C1185 1.387 . S
C1184 H1188 0.950 . S
C1184 C1193 1.390 1_565 S
C1185 C1184 1.387 . S
C1185 C1187 1.387 . S
H1186 C1193 0.950 . S
C1187 C1185 1.387 . S
C1187 C1189 1.390 1_565 S
C1187 H1191 0.950 . S
H1188 C1184 0.950 . S
C1189 C1187 1.390 1_545 S
C1189 C1190 1.387 . S
C1189 H1192 0.950 . S
C1190 C1189 1.387 . S
C1190 C1193 1.387 . S
H1191 C1187 0.950 . S
H1192 C1189 0.950 . S
C1193 C1184 1.390 1_545 S
C1193 H1186 0.950 . S
C1193 C1190 1.387 . S
C1194 C1195 1.387 . S
C1194 H1198 0.950 . S
C1194 C1203 1.390 1_565 S
C1195 C1194 1.387 . S
C1195 C1197 1.387 . S
H1196 C1203 0.950 . S
C1197 C1195 1.387 . S
C1197 C1199 1.390 1_565 S
C1197 H1201 0.950 . S
H1198 C1194 0.950 . S
C1199 C1197 1.390 1_545 S
C1199 C1200 1.387 . S
C1199 H1202 0.950 . S
C1200 C1199 1.387 . S
C1200 C1203 1.387 . S
H1201 C1197 0.950 . S
H1202 C1199 0.950 . S
C1203 C1194 1.390 1_545 S
C1203 H1196 0.950 . S
C1203 C1200 1.387 . S
C1204 C1205 1.387 . S
C1204 H1208 0.950 . S
C1204 C1213 1.390 1_655 S
C1205 C1204 1.387 . S
C1205 C1207 1.387 . S
H1206 C1213 0.950 . S
C1207 C1205 1.387 . S
C1207 C1209 1.390 1_655 S
C1207 H1211 0.950 . S
H1208 C1204 0.950 . S
C1209 C1207 1.390 1_455 S
C1209 C1210 1.387 . S
C1209 H1212 0.950 . S
C1210 C1209 1.387 . S
C1210 C1213 1.387 . S
H1211 C1207 0.950 . S
H1212 C1209 0.950 . S
C1213 C1204 1.390 1_455 S
C1213 H1206 0.950 . S
C1213 C1210 1.387 . S
C1214 C1215 1.387 . S
C1214 H1218 0.950 . S
C1214 C1223 1.390 . S
C1215 C1214 1.387 . S
C1215 C1217 1.387 . S
H1216 C1223 0.950 . S
C1217 C1215 1.387 . S
C1217 C1219 1.390 . S
C1217 H1221 0.950 . S
H1218 C1214 0.950 . S
C1219 C1217 1.390 . S
C1219 C1220 1.387 . S
C1219 H1222 0.950 . S
C1220 C1219 1.387 . S
C1220 C1223 1.387 . S
H1221 C1217 0.950 . S
H1222 C1219 0.950 . S
C1223 C1214 1.390 . S
C1223 H1216 0.950 . S
C1223 C1220 1.387 . S
C505 C7 1.421 . S
C510 C259 1.421 . S
C515 C21 1.422 . S
C520 C273 1.422 . S
C525 C287 1.422 . S
C530 C35 1.422 . S
C535 C49 1.422 . S
C540 C469 1.422 . S
C545 C483 1.420 . S
C550 C63 1.420 . S
C555 C77 1.421 . S
C560 C497 1.421 . S
C565 C343 1.421 . S
C570 C91 1.421 . S
C575 C105 1.422 . S
C580 C357 1.422 . S
C585 C119 1.420 . S
C590 C371 1.420 . S
C595 C133 1.422 . S
C600 C217 1.422 . S
C605 C231 1.422 . S
C610 C147 1.422 . S
C615 C161 1.421 . S
C620 C245 1.421 . S
C625 C175 1.421 . S
C630 C427 1.421 . S
C635 C189 1.422 . S
C640 C441 1.422 . S
C645 C203 1.420 . S
C650 C455 1.420 . S
C655 C301 1.421 . S
C660 C385 1.421 . S
C665 C315 1.422 . S
C670 C399 1.422 . S
C675 C329 1.421 . S
C680 C413 1.421 . S
C685 C106 1.452 1_545 S
C690 C6 1.491 . S
C695 C120 1.451 1_655 S
C700 C20 1.491 . S
C705 C34 1.491 . S
C710 C92 1.452 . S
C715 C162 1.449 1_455 S
C720 C48 1.490 . S
C725 C134 1.450 . S
C730 C62 1.490 . S
C735 C148 1.452 1_565 S
C740 C76 1.491 . S
C745 C90 1.491 . S
C750 C22 1.452 1_565 S
C755 C104 1.490 . S
C760 C36 1.450 1_455 S
C765 C118 1.491 . S
C770 C8 1.452 . S
C775 C132 1.490 . S
C780 C78 1.449 1_655 S
C785 C50 1.449 . S
C790 C146 1.490 . S
C795 C64 1.452 1_545 S
C800 C160 1.491 . S
C805 C174 1.490 . S
C810 C274 1.449 . S
C815 C188 1.491 . S
C820 C288 1.452 . S
C825 C202 1.491 . S
C830 C260 1.452 . S
C835 C330 1.452 . S
C840 C216 1.491 . S
C845 C230 1.491 . S
C850 C302 1.451 . S
C855 C316 1.449 . S
C860 C244 1.490 . S
C865 C258 1.491 . S
C870 C190 1.452 . S
C875 C204 1.451 . S
C880 C272 1.491 . S
C885 C176 1.452 . S
C890 C286 1.492 . S
C895 C300 1.491 . S
C900 C246 1.451 . S
C905 C314 1.491 . S
C910 C218 1.450 . S
C915 C328 1.490 . S
C920 C232 1.449 . S
C925 C442 1.452 . S
C930 C342 1.491 . S
C935 C356 1.491 . S
C940 C456 1.450 . S
C945 C370 1.492 . S
C950 C428 1.452 . S
C955 C498 1.449 . S
C960 C384 1.490 . S
C965 C470 1.450 . S
C970 C398 1.490 . S
C975 C484 1.449 . S
C980 C412 1.490 . S
C985 C358 1.449 . S
C990 C426 1.490 . S
C995 C372 1.450 . S
C1000 C440 1.490 . S
C1005 C344 1.449 . S
C1010 C454 1.490 . S
C1015 C468 1.491 . S
C1020 C414 1.452 . S
C1025 C386 1.450 . S
C1030 C482 1.490 . S
C1035 C496 1.491 . S
C1040 C400 1.452 . S
C1045 C9 1.232 . S
C1050 C415 1.232 . S
C1055 C387 1.230 1_545 S
C1060 C23 1.231 . S
C1065 C37 1.228 . S
C1070 C401 1.227 1_655 S
C1075 C51 1.229 . S
C1080 C191 1.231 . S
C1085 C205 1.227 1_565 S
C1090 C65 1.227 . S
C1095 C79 1.227 . S
C1100 C177 1.227 1_455 S
C1105 C331 1.232 . S
C1110 C93 1.232 . S
C1115 C107 1.229 . S
C1120 C303 1.231 1_565 S
C1125 C121 1.229 . S
C1130 C317 1.227 1_455 S
C1135 C135 1.228 . S
C1140 C443 1.227 . S
C1145 C149 1.227 . S
C1150 C457 1.228 1_545 S
C1155 C429 1.232 1_655 S
C1160 C163 1.232 . S
C1165 C219 1.229 . S
C1170 C359 1.227 . S
C1175 C373 1.230 . S
C1180 C233 1.232 . S
C1185 C345 1.232 . S
C1190 C247 1.232 . S
C1195 C499 1.232 . S
C1200 C261 1.232 . S
C1205 C275 1.231 . S
C1210 C471 1.230 . S
C1215 C289 1.231 . S
C1220 C485 1.230 . S
