# Generated by pormake.
# Topology unw, (4)-cn, num edge types: 1
# Building blocks:
#     Node 0, Type 0, BuildingBlock: CEKHIL_clean_sbu_0, # of connection points: 4
#     Node 1, Type 0, BuildingBlock: CEKHIL_clean_sbu_0, # of connection points: 4
#     Node 2, Type 0, BuildingBlock: CEKHIL_clean_sbu_0, # of connection points: 4
#     Node 3, Type 0, BuildingBlock: CEKHIL_clean_sbu_0, # of connection points: 4
#     Node 4, Type 0, BuildingBlock: CEKHIL_clean_sbu_0, # of connection points: 4
#     Node 5, Type 0, BuildingBlock: CEKHIL_clean_sbu_0, # of connection points: 4
#     Node 6, Type 0, BuildingBlock: CEKHIL_clean_sbu_0, # of connection points: 4
#     Node 7, Type 0, BuildingBlock: CEKHIL_clean_sbu_0, # of connection points: 4
#     Node 8, Type 0, BuildingBlock: CEKHIL_clean_sbu_0, # of connection points: 4
#     Node 9, Type 0, BuildingBlock: CEKHIL_clean_sbu_0, # of connection points: 4
#     Node 10, Type 0, BuildingBlock: CEKHIL_clean_sbu_0, # of connection points: 4
#     Node 11, Type 0, BuildingBlock: CEKHIL_clean_sbu_0, # of connection points: 4
#     Node 12, Type 0, BuildingBlock: CEKHIL_clean_sbu_0, # of connection points: 4
#     Node 13, Type 0, BuildingBlock: CEKHIL_clean_sbu_0, # of connection points: 4
#     Node 14, Type 0, BuildingBlock: CEKHIL_clean_sbu_0, # of connection points: 4
#     Node 15, Type 0, BuildingBlock: CEKHIL_clean_sbu_0, # of connection points: 4
#     Node 16, Type 0, BuildingBlock: CEKHIL_clean_sbu_0, # of connection points: 4
#     Node 17, Type 0, BuildingBlock: CEKHIL_clean_sbu_0, # of connection points: 4
#     Node 18, Type 0, BuildingBlock: CEKHIL_clean_sbu_0, # of connection points: 4
#     Node 19, Type 0, BuildingBlock: CEKHIL_clean_sbu_0, # of connection points: 4
#     Node 20, Type 0, BuildingBlock: CEKHIL_clean_sbu_0, # of connection points: 4
#     Node 21, Type 0, BuildingBlock: CEKHIL_clean_sbu_0, # of connection points: 4
#     Node 22, Type 0, BuildingBlock: CEKHIL_clean_sbu_0, # of connection points: 4
#     Node 23, Type 0, BuildingBlock: CEKHIL_clean_sbu_0, # of connection points: 4
#     Edge 24, Type (0, 0), BuildingBlock: ZUJKAS_clean_linker_0, # of connection points: 2
#     Edge 25, Type (0, 0), BuildingBlock: ZUJKAS_clean_linker_0, # of connection points: 2
#     Edge 26, Type (0, 0), BuildingBlock: ZUJKAS_clean_linker_0, # of connection points: 2
#     Edge 27, Type (0, 0), BuildingBlock: ZUJKAS_clean_linker_0, # of connection points: 2
#     Edge 28, Type (0, 0), BuildingBlock: ZUJKAS_clean_linker_0, # of connection points: 2
#     Edge 29, Type (0, 0), BuildingBlock: ZUJKAS_clean_linker_0, # of connection points: 2
#     Edge 30, Type (0, 0), BuildingBlock: ZUJKAS_clean_linker_0, # of connection points: 2
#     Edge 31, Type (0, 0), BuildingBlock: ZUJKAS_clean_linker_0, # of connection points: 2
#     Edge 32, Type (0, 0), BuildingBlock: ZUJKAS_clean_linker_0, # of connection points: 2
#     Edge 33, Type (0, 0), BuildingBlock: ZUJKAS_clean_linker_0, # of connection points: 2
#     Edge 34, Type (0, 0), BuildingBlock: ZUJKAS_clean_linker_0, # of connection points: 2
#     Edge 35, Type (0, 0), BuildingBlock: ZUJKAS_clean_linker_0, # of connection points: 2
#     Edge 36, Type (0, 0), BuildingBlock: ZUJKAS_clean_linker_0, # of connection points: 2
#     Edge 37, Type (0, 0), BuildingBlock: ZUJKAS_clean_linker_0, # of connection points: 2
#     Edge 38, Type (0, 0), BuildingBlock: ZUJKAS_clean_linker_0, # of connection points: 2
#     Edge 39, Type (0, 0), BuildingBlock: ZUJKAS_clean_linker_0, # of connection points: 2
#     Edge 40, Type (0, 0), BuildingBlock: ZUJKAS_clean_linker_0, # of connection points: 2
#     Edge 41, Type (0, 0), BuildingBlock: ZUJKAS_clean_linker_0, # of connection points: 2
#     Edge 42, Type (0, 0), BuildingBlock: ZUJKAS_clean_linker_0, # of connection points: 2
#     Edge 43, Type (0, 0), BuildingBlock: ZUJKAS_clean_linker_0, # of connection points: 2
#     Edge 44, Type (0, 0), BuildingBlock: ZUJKAS_clean_linker_0, # of connection points: 2
#     Edge 45, Type (0, 0), BuildingBlock: ZUJKAS_clean_linker_0, # of connection points: 2
#     Edge 46, Type (0, 0), BuildingBlock: ZUJKAS_clean_linker_0, # of connection points: 2
#     Edge 47, Type (0, 0), BuildingBlock: ZUJKAS_clean_linker_0, # of connection points: 2
#     Edge 48, Type (0, 0), BuildingBlock: ZUJKAS_clean_linker_0, # of connection points: 2
#     Edge 49, Type (0, 0), BuildingBlock: ZUJKAS_clean_linker_0, # of connection points: 2
#     Edge 50, Type (0, 0), BuildingBlock: ZUJKAS_clean_linker_0, # of connection points: 2
#     Edge 51, Type (0, 0), BuildingBlock: ZUJKAS_clean_linker_0, # of connection points: 2
#     Edge 52, Type (0, 0), BuildingBlock: ZUJKAS_clean_linker_0, # of connection points: 2
#     Edge 53, Type (0, 0), BuildingBlock: ZUJKAS_clean_linker_0, # of connection points: 2
#     Edge 54, Type (0, 0), BuildingBlock: ZUJKAS_clean_linker_0, # of connection points: 2
#     Edge 55, Type (0, 0), BuildingBlock: ZUJKAS_clean_linker_0, # of connection points: 2
#     Edge 56, Type (0, 0), BuildingBlock: ZUJKAS_clean_linker_0, # of connection points: 2
#     Edge 57, Type (0, 0), BuildingBlock: ZUJKAS_clean_linker_0, # of connection points: 2
#     Edge 58, Type (0, 0), BuildingBlock: ZUJKAS_clean_linker_0, # of connection points: 2
#     Edge 59, Type (0, 0), BuildingBlock: ZUJKAS_clean_linker_0, # of connection points: 2
#     Edge 60, Type (0, 0), BuildingBlock: ZUJKAS_clean_linker_0, # of connection points: 2
#     Edge 61, Type (0, 0), BuildingBlock: ZUJKAS_clean_linker_0, # of connection points: 2
#     Edge 62, Type (0, 0), BuildingBlock: ZUJKAS_clean_linker_0, # of connection points: 2
#     Edge 63, Type (0, 0), BuildingBlock: ZUJKAS_clean_linker_0, # of connection points: 2
#     Edge 64, Type (0, 0), BuildingBlock: ZUJKAS_clean_linker_0, # of connection points: 2
#     Edge 65, Type (0, 0), BuildingBlock: ZUJKAS_clean_linker_0, # of connection points: 2
#     Edge 66, Type (0, 0), BuildingBlock: ZUJKAS_clean_linker_0, # of connection points: 2
#     Edge 67, Type (0, 0), BuildingBlock: ZUJKAS_clean_linker_0, # of connection points: 2
#     Edge 68, Type (0, 0), BuildingBlock: ZUJKAS_clean_linker_0, # of connection points: 2
#     Edge 69, Type (0, 0), BuildingBlock: ZUJKAS_clean_linker_0, # of connection points: 2
#     Edge 70, Type (0, 0), BuildingBlock: ZUJKAS_clean_linker_0, # of connection points: 2
#     Edge 71, Type (0, 0), BuildingBlock: ZUJKAS_clean_linker_0, # of connection points: 2
# Relax obj value: 0.379
# Max RMSD: 0.300
# Mean RMSD: 0.288
data_MOF--net-unw--node1-CEKHIL_clean_sbu_0--edge1-ZUJKAS_clean_linker_0
_symmetry_space_group_name_H-M    P1
_symmetry_Int_Tables_number       1
_symmetry_cell_setting            triclinic
loop_
_symmetry_equiv_pos_as_xyz
'x, y, z'
_cell_length_a     57.361306
_cell_length_b     58.310952
_cell_length_c     57.854175
_cell_angle_alpha  90.030397
_cell_angle_beta   90.145716
_cell_angle_gamma 90.473769
loop_
_atom_site_label
_atom_site_type_symbol
_atom_site_fract_x
_atom_site_fract_y
_atom_site_fract_z
_atom_type_partial_charge
Co0 Co 0.12662 0.39016 0.29115 0.0
O1 O 0.11389 0.41494 0.27366 0.0
O2 O 0.14102 0.41879 0.30077 0.0
C3 C 0.09306 0.37165 0.29909 0.0
O4 O 0.14309 0.36798 0.31297 0.0
Co5 Co 0.12187 0.34091 0.27097 0.0
O6 O 0.13054 0.3326 0.30308 0.0
C7 C 0.1577 0.37188 0.25226 0.0
C8 C 0.12832 0.42823 0.28473 0.0
C9 C 0.14112 0.34627 0.31684 0.0
O10 O 0.15216 0.3867 0.26766 0.0
O11 O 0.14676 0.35282 0.24963 0.0
O12 O 0.09941 0.38933 0.31138 0.0
O13 O 0.10537 0.36801 0.28081 0.0
Co14 Co 0.63884 0.10022 0.20113 0.0
O15 O 0.62762 0.07608 0.22062 0.0
O16 O 0.65129 0.0712 0.19082 0.0
C17 C 0.60489 0.11872 0.19646 0.0
O18 O 0.65328 0.12151 0.17704 0.0
Co19 Co 0.63733 0.15028 0.21969 0.0
O20 O 0.64189 0.15723 0.18639 0.0
C21 C 0.6744 0.1196 0.23584 0.0
C22 C 0.64021 0.06231 0.20834 0.0
C23 C 0.65078 0.14293 0.17234 0.0
O24 O 0.66698 0.10423 0.22165 0.0
O25 O 0.66411 0.13878 0.23884 0.0
O26 O 0.60944 0.10075 0.18396 0.0
O27 O 0.61943 0.12281 0.21305 0.0
Co28 Co 0.87428 0.61032 0.29591 0.0
O29 O 0.88854 0.58808 0.27631 0.0
O30 O 0.8627 0.58001 0.30364 0.0
C31 C 0.90661 0.63073 0.3044 0.0
O32 O 0.85667 0.62921 0.31977 0.0
Co33 Co 0.8744 0.66142 0.2805 0.0
O34 O 0.86719 0.66603 0.31372 0.0
C35 C 0.84075 0.62924 0.25939 0.0
C36 C 0.87581 0.57285 0.2868 0.0
C37 C 0.85786 0.65038 0.32605 0.0
O38 O 0.84782 0.61351 0.27321 0.0
O39 O 0.85006 0.64927 0.25854 0.0
O40 O 0.90203 0.61186 0.31554 0.0
O41 O 0.89327 0.63482 0.2869 0.0
Co42 Co 0.36017 0.89424 0.19602 0.0
O43 O 0.39054 0.88655 0.18443 0.0
O44 O 0.36878 0.86407 0.20665 0.0
C45 C 0.36751 0.93011 0.20819 0.0
O46 O 0.32842 0.89667 0.21172 0.0
Co47 Co 0.33123 0.93163 0.17144 0.0
O48 O 0.31208 0.92963 0.19988 0.0
C49 C 0.33331 0.88604 0.15063 0.0
C50 C 0.38784 0.86694 0.1948 0.0
C51 C 0.31263 0.91222 0.21316 0.0
O52 O 0.34552 0.8798 0.16808 0.0
O53 O 0.32612 0.90657 0.14785 0.0
O54 O 0.37369 0.91259 0.22061 0.0
O55 O 0.36048 0.92532 0.18738 0.0
Co56 Co 0.14085 0.60386 0.70528 0.0
O57 O 0.12993 0.58028 0.72572 0.0
O58 O 0.15285 0.57447 0.69554 0.0
C59 C 0.1068 0.62227 0.70076 0.0
O60 O 0.15487 0.62419 0.68011 0.0
Co61 Co 0.13986 0.65473 0.72144 0.0
O62 O 0.14328 0.66022 0.68776 0.0
C63 C 0.17726 0.62463 0.7382 0.0
C64 C 0.14199 0.56607 0.71341 0.0
C65 C 0.15203 0.64529 0.67431 0.0
O66 O 0.16935 0.60843 0.72522 0.0
O67 O 0.16732 0.64413 0.74012 0.0
O68 O 0.1111 0.60394 0.68872 0.0
O69 O 0.12176 0.62697 0.71683 0.0
Co70 Co 0.37661 0.1108 0.79438 0.0
O71 O 0.38942 0.08692 0.77571 0.0
O72 O 0.36317 0.08161 0.80331 0.0
C73 C 0.41 0.12968 0.8023 0.0
O74 O 0.3602 0.13168 0.81743 0.0
Co75 Co 0.37982 0.16109 0.77673 0.0
O76 O 0.37179 0.16777 0.80936 0.0
C77 C 0.34413 0.1302 0.75717 0.0
C78 C 0.37569 0.07296 0.78675 0.0
C79 C 0.36176 0.15318 0.82248 0.0
O80 O 0.35041 0.11461 0.7715 0.0
O81 O 0.35451 0.14966 0.75552 0.0
O82 O 0.40433 0.11146 0.81406 0.0
O83 O 0.39708 0.13379 0.78449 0.0
Co84 Co 0.85935 0.39361 0.69467 0.0
O85 O 0.88985 0.38613 0.68333 0.0
O86 O 0.86779 0.36322 0.70481 0.0
C87 C 0.86665 0.4292 0.70768 0.0
O88 O 0.8274 0.3958 0.70998 0.0
Co89 Co 0.83086 0.43156 0.67051 0.0
O90 O 0.8115 0.42919 0.69878 0.0
C91 C 0.83307 0.38636 0.64879 0.0
C92 C 0.88701 0.36633 0.69329 0.0
C93 C 0.81176 0.41147 0.71164 0.0
O94 O 0.84506 0.37974 0.66624 0.0
O95 O 0.82598 0.40698 0.64636 0.0
O96 O 0.87259 0.41141 0.71981 0.0
O97 O 0.85987 0.42487 0.6867 0.0
Co98 Co 0.62549 0.8939 0.79341 0.0
O99 O 0.61392 0.91853 0.77488 0.0
O100 O 0.63964 0.92252 0.80329 0.0
C101 C 0.59142 0.87572 0.80003 0.0
O102 O 0.64081 0.87203 0.81629 0.0
Co103 Co 0.62126 0.84416 0.77433 0.0
O104 O 0.62789 0.83655 0.80714 0.0
C105 C 0.65866 0.8743 0.75703 0.0
C106 C 0.62792 0.93184 0.78647 0.0
C107 C 0.63819 0.85052 0.82078 0.0
O108 O 0.6522 0.88976 0.77139 0.0
O109 O 0.64773 0.85523 0.75441 0.0
O110 O 0.59729 0.89359 0.81228 0.0
O111 O 0.6046 0.8717 0.78244 0.0
Co112 Co 0.3028 0.13137 0.39513 0.0
O113 O 0.31547 0.10186 0.38741 0.0
O114 O 0.2942 0.12324 0.36391 0.0
C115 C 0.28819 0.12343 0.43018 0.0
O116 O 0.28626 0.16218 0.39719 0.0
Co117 Co 0.32434 0.15987 0.43513 0.0
O118 O 0.29677 0.17956 0.43038 0.0
C119 C 0.34801 0.15967 0.39051 0.0
C120 C 0.30619 0.10468 0.36709 0.0
C121 C 0.28426 0.17842 0.41218 0.0
O122 O 0.33162 0.14668 0.38282 0.0
O123 O 0.34901 0.16688 0.41137 0.0
O124 O 0.27706 0.11723 0.41156 0.0
O125 O 0.30936 0.13081 0.42701 0.0
Co126 Co 0.8914 0.19459 0.36908 0.0
O127 O 0.88126 0.18304 0.39863 0.0
O128 O 0.8597 0.20358 0.37458 0.0
C129 C 0.92634 0.20883 0.37934 0.0
O130 O 0.89575 0.2102 0.33789 0.0
Co131 Co 0.93306 0.17309 0.34342 0.0
O132 O 0.93049 0.20037 0.32311 0.0
C133 C 0.88795 0.14937 0.34196 0.0
C134 C 0.86133 0.19252 0.394 0.0
C135 C 0.91209 0.21243 0.32281 0.0
O136 O 0.87958 0.16602 0.35369 0.0
O137 O 0.90948 0.14816 0.33637 0.0
O138 O 0.90737 0.22002 0.38378 0.0
O139 O 0.92335 0.18793 0.37205 0.0
Co140 Co 0.69678 0.86414 0.3972 0.0
O141 O 0.68387 0.89316 0.38804 0.0
O142 O 0.70799 0.87229 0.36696 0.0
C143 C 0.70783 0.87266 0.43341 0.0
O144 O 0.71409 0.83399 0.40081 0.0
Co145 Co 0.67314 0.8347 0.43507 0.0
O146 O 0.70204 0.8163 0.43324 0.0
C147 C 0.65269 0.835 0.38874 0.0
C148 C 0.69515 0.89046 0.36876 0.0
C149 C 0.71577 0.81799 0.41605 0.0
O150 O 0.66973 0.84787 0.38241 0.0
O151 O 0.64995 0.82817 0.40958 0.0
O152 O 0.72037 0.87919 0.41589 0.0
O153 O 0.68733 0.86447 0.42831 0.0
Co154 Co 0.10717 0.81093 0.36859 0.0
O155 O 0.11671 0.82493 0.39736 0.0
O156 O 0.13887 0.80288 0.37539 0.0
C157 C 0.07228 0.79706 0.37944 0.0
O158 O 0.10368 0.79275 0.33869 0.0
Co159 Co 0.06533 0.82875 0.34021 0.0
O160 O 0.06876 0.79978 0.32263 0.0
C161 C 0.1101 0.85317 0.33722 0.0
C162 C 0.1368 0.81532 0.39389 0.0
C163 C 0.08765 0.78852 0.32362 0.0
O164 O 0.11874 0.83839 0.35114 0.0
O165 O 0.08876 0.85292 0.33073 0.0
O166 O 0.09136 0.78651 0.38502 0.0
O167 O 0.07506 0.81726 0.37038 0.0
Co168 Co 0.30137 0.86807 0.60835 0.0
O169 O 0.28479 0.88008 0.58231 0.0
O170 O 0.31305 0.85441 0.58028 0.0
C171 C 0.30727 0.90138 0.62716 0.0
O172 O 0.32272 0.85248 0.63166 0.0
Co173 Co 0.27985 0.87178 0.65748 0.0
O174 O 0.31252 0.86546 0.66685 0.0
C175 C 0.26216 0.83646 0.62537 0.0
C176 C 0.29721 0.86641 0.56973 0.0
C177 C 0.32661 0.85523 0.65342 0.0
O178 O 0.27802 0.84221 0.61079 0.0
O179 O 0.25906 0.84701 0.64453 0.0
O180 O 0.32094 0.89565 0.61023 0.0
O181 O 0.28921 0.88835 0.63002 0.0
Co182 Co 0.10745 0.20593 0.63303 0.0
O183 O 0.08429 0.22726 0.62298 0.0
O184 O 0.07731 0.19717 0.64535 0.0
C185 C 0.12575 0.2013 0.59893 0.0
O186 O 0.12719 0.18009 0.64635 0.0
Co187 Co 0.15979 0.22014 0.6315 0.0
O188 O 0.16383 0.18646 0.63393 0.0
C189 C 0.13053 0.23659 0.66973 0.0
C190 C 0.06949 0.21549 0.63518 0.0
C191 C 0.1483 0.17356 0.64294 0.0
O192 O 0.11324 0.22499 0.66156 0.0
O193 O 0.15043 0.23779 0.6598 0.0
O194 O 0.1066 0.18999 0.60326 0.0
O195 O 0.13126 0.21686 0.6139 0.0
Co196 Co 0.70282 0.13584 0.60832 0.0
O197 O 0.71859 0.12474 0.58147 0.0
O198 O 0.68912 0.14913 0.58092 0.0
C199 C 0.69901 0.10241 0.62729 0.0
O200 O 0.68204 0.1503 0.63273 0.0
Co201 Co 0.72779 0.13314 0.65591 0.0
O202 O 0.69588 0.13935 0.66742 0.0
C203 C 0.74113 0.16977 0.6236 0.0
C204 C 0.70497 0.13795 0.56956 0.0
C205 C 0.68017 0.14844 0.65484 0.0
O206 O 0.72491 0.16283 0.60988 0.0
O207 O 0.74617 0.15943 0.64247 0.0
O208 O 0.68453 0.10759 0.61079 0.0
O209 O 0.71688 0.11591 0.62932 0.0
Co210 Co 0.88599 0.78176 0.63356 0.0
O211 O 0.90856 0.76054 0.62229 0.0
O212 O 0.91665 0.79024 0.64495 0.0
C213 C 0.86634 0.787 0.60028 0.0
O214 O 0.8668 0.80756 0.64771 0.0
Co215 Co 0.83385 0.76683 0.63386 0.0
O216 O 0.82964 0.8004 0.63716 0.0
C217 C 0.86489 0.74988 0.67038 0.0
C218 C 0.92392 0.77208 0.6341 0.0
C219 C 0.84538 0.81368 0.64535 0.0
O220 O 0.88142 0.76233 0.66203 0.0
O221 O 0.8447 0.74825 0.661 0.0
O222 O 0.88574 0.7981 0.60407 0.0
O223 O 0.86143 0.77113 0.61511 0.0
Co224 Co 0.38827 0.28584 0.13403 0.0
O225 O 0.40938 0.2635 0.12217 0.0
O226 O 0.41958 0.29265 0.14474 0.0
C227 C 0.36829 0.29211 0.10111 0.0
O228 O 0.37092 0.31254 0.1488 0.0
Co229 Co 0.33525 0.2742 0.13516 0.0
O230 O 0.33316 0.30794 0.13885 0.0
C231 C 0.36587 0.2555 0.17132 0.0
C232 C 0.42561 0.27421 0.13361 0.0
C233 C 0.34994 0.32 0.14689 0.0
O234 O 0.38317 0.26657 0.16253 0.0
O235 O 0.34542 0.25536 0.16238 0.0
O236 O 0.38826 0.3023 0.10457 0.0
O237 O 0.36279 0.27659 0.11609 0.0
Co238 Co 0.39616 0.69151 0.86818 0.0
O239 O 0.38647 0.67836 0.89725 0.0
O240 O 0.36423 0.69925 0.87415 0.0
C241 C 0.43068 0.70644 0.87897 0.0
O242 O 0.3998 0.70878 0.83777 0.0
Co243 Co 0.43851 0.67299 0.84122 0.0
O244 O 0.43483 0.70113 0.82241 0.0
C245 C 0.39424 0.64788 0.83851 0.0
C246 C 0.36627 0.6875 0.8931 0.0
C247 C 0.41598 0.71249 0.8228 0.0
O248 O 0.38525 0.66325 0.8515 0.0
O249 O 0.41565 0.64803 0.83238 0.0
O250 O 0.41134 0.71675 0.884 0.0
O251 O 0.42838 0.68583 0.87069 0.0
Co252 Co 0.19562 0.36088 0.89492 0.0
O253 O 0.18301 0.38995 0.88557 0.0
O254 O 0.20521 0.36781 0.86377 0.0
C255 C 0.20899 0.37045 0.93009 0.0
O256 O 0.21237 0.33037 0.89872 0.0
Co257 Co 0.17349 0.3336 0.93528 0.0
O258 O 0.20159 0.31429 0.9324 0.0
C259 C 0.15086 0.33201 0.89 0.0
C260 C 0.1931 0.38644 0.86579 0.0
C261 C 0.2144 0.31485 0.91445 0.0
O262 O 0.16731 0.34485 0.88226 0.0
O263 O 0.14946 0.32555 0.91107 0.0
O264 O 0.22068 0.37593 0.91165 0.0
O265 O 0.18804 0.36265 0.92647 0.0
Co266 Co 0.60794 0.31069 0.86838 0.0
O267 O 0.61864 0.32442 0.89683 0.0
O268 O 0.63994 0.30265 0.87375 0.0
C269 C 0.57359 0.29646 0.88032 0.0
O270 O 0.60312 0.29299 0.83833 0.0
Co271 Co 0.56489 0.32943 0.84239 0.0
O272 O 0.56829 0.30168 0.82294 0.0
C273 C 0.60947 0.35375 0.83798 0.0
C274 C 0.63863 0.31502 0.89238 0.0
C275 C 0.58687 0.2899 0.8232 0.0
O276 O 0.6187 0.33844 0.8509 0.0
O277 O 0.58783 0.35389 0.83261 0.0
O278 O 0.59292 0.28596 0.88506 0.0
O279 O 0.57594 0.31688 0.87165 0.0
Co280 Co 0.80052 0.63122 0.89433 0.0
O281 O 0.81374 0.60172 0.88742 0.0
O282 O 0.79238 0.62227 0.86324 0.0
C283 C 0.78571 0.62379 0.92944 0.0
O284 O 0.78344 0.66176 0.89535 0.0
Co285 Co 0.82052 0.66129 0.93392 0.0
O286 O 0.79169 0.6792 0.92912 0.0
C287 C 0.84518 0.66026 0.88974 0.0
C288 C 0.80459 0.60395 0.86695 0.0
C289 C 0.78003 0.67767 0.91041 0.0
O290 O 0.82927 0.64668 0.88205 0.0
O291 O 0.84549 0.66812 0.91039 0.0
O292 O 0.77483 0.61706 0.91087 0.0
O293 O 0.80674 0.63155 0.92628 0.0
Co294 Co 0.60581 0.70478 0.13446 0.0
O295 O 0.58245 0.72558 0.12376 0.0
O296 O 0.57562 0.69573 0.1465 0.0
C297 C 0.62475 0.69987 0.10077 0.0
O298 O 0.62591 0.67953 0.14835 0.0
Co299 Co 0.65767 0.72081 0.13361 0.0
O300 O 0.66287 0.68742 0.13765 0.0
C301 C 0.62714 0.73722 0.17073 0.0
C302 C 0.56766 0.7138 0.13596 0.0
C303 C 0.64747 0.67397 0.14605 0.0
O304 O 0.61079 0.72423 0.16283 0.0
O305 O 0.64693 0.73951 0.16074 0.0
O306 O 0.60567 0.68839 0.10495 0.0
O307 O 0.62968 0.71585 0.1155 0.0
Co308 Co 0.20302 0.63396 0.10732 0.0
O309 O 0.22002 0.62275 0.08126 0.0
O310 O 0.19095 0.64752 0.07928 0.0
C311 C 0.19796 0.60036 0.12575 0.0
O312 O 0.18122 0.64864 0.13072 0.0
Co313 Co 0.22506 0.63062 0.15627 0.0
O314 O 0.19225 0.63584 0.16577 0.0
C315 C 0.2405 0.66749 0.12504 0.0
C316 C 0.20717 0.6361 0.06871 0.0
C317 C 0.17769 0.64572 0.15249 0.0
O318 O 0.22527 0.66065 0.11021 0.0
O319 O 0.2442 0.65708 0.14418 0.0
O320 O 0.18431 0.60588 0.10867 0.0
O321 O 0.21575 0.61375 0.12888 0.0
Co322 Co 0.80385 0.36946 0.10564 0.0
O323 O 0.78587 0.38169 0.08068 0.0
O324 O 0.81388 0.35602 0.07678 0.0
C325 C 0.81103 0.40273 0.12411 0.0
O326 O 0.82635 0.35358 0.12767 0.0
Co327 Co 0.78545 0.37341 0.15602 0.0
O328 O 0.8186 0.36696 0.16332 0.0
C329 C 0.76603 0.33772 0.12517 0.0
C330 C 0.79759 0.36825 0.06722 0.0
C331 C 0.83163 0.35636 0.14914 0.0
O332 O 0.78055 0.34371 0.10936 0.0
O333 O 0.76436 0.34816 0.14458 0.0
O334 O 0.82369 0.39688 0.10646 0.0
O335 O 0.7931 0.38981 0.128 0.0
H336 H 0.22289 0.58643 0.16335 0.0
H337 H 0.2106 0.55945 0.19344 0.0
H338 H 0.14517 0.54882 0.15799 0.0
H339 H 0.15745 0.57549 0.12767 0.0
H340 H 0.17203 0.56161 0.22277 0.0
H341 H 0.16859 0.48368 0.16775 0.0
H342 H 0.18287 0.50983 0.15866 0.0
H343 H 0.15168 0.50699 0.15665 0.0
C344 C 0.20598 0.57815 0.16184 0.0
C345 C 0.19121 0.58291 0.14304 0.0
C346 C 0.19895 0.56285 0.1791 0.0
C347 C 0.17709 0.55197 0.17782 0.0
C348 C 0.1623 0.55671 0.15908 0.0
H349 H 0.10001 0.45369 0.25747 0.0
H350 H 0.11143 0.48691 0.23437 0.0
C351 C 0.16933 0.57196 0.14178 0.0
C352 C 0.16965 0.5358 0.19617 0.0
H353 H 0.1521 0.48051 0.20522 0.0
C354 C 0.16779 0.54383 0.21901 0.0
C355 C 0.16427 0.51261 0.19119 0.0
C356 C 0.16715 0.50266 0.16729 0.0
C357 C 0.16008 0.52935 0.2369 0.0
C358 C 0.15425 0.50635 0.23176 0.0
C359 C 0.1564 0.49828 0.20902 0.0
C360 C 0.14581 0.49003 0.2495 0.0
C361 C 0.15771 0.53877 0.26104 0.0
C362 C 0.16106 0.48144 0.26637 0.0
C363 C 0.15453 0.46241 0.27972 0.0
C364 C 0.13278 0.45168 0.27613 0.0
C365 C 0.11692 0.46154 0.26055 0.0
C366 C 0.12342 0.4805 0.24731 0.0
H367 H 0.1592 0.55778 0.26144 0.0
H368 H 0.14068 0.53358 0.26858 0.0
H369 H 0.17165 0.53158 0.27215 0.0
H370 H 0.17853 0.48842 0.2681 0.0
H371 H 0.16718 0.45507 0.29145 0.0
H372 H 0.57511 0.11669 0.15951 0.0
H373 H 0.54739 0.14601 0.14708 0.0
H374 H 0.56697 0.18817 0.20533 0.0
H375 H 0.59466 0.15904 0.21788 0.0
H376 H 0.50951 0.16407 0.17323 0.0
H377 H 0.57379 0.23167 0.14892 0.0
H378 H 0.58163 0.20191 0.15224 0.0
H379 H 0.57754 0.21963 0.17727 0.0
C380 C 0.57345 0.13217 0.16971 0.0
C381 C 0.58709 0.13559 0.18964 0.0
C382 C 0.5577 0.14892 0.16254 0.0
C383 C 0.5555 0.1694 0.17506 0.0
C384 C 0.56879 0.17269 0.19517 0.0
H385 H 0.45854 0.28282 0.167 0.0
H386 H 0.49237 0.25886 0.17605 0.0
C387 C 0.58446 0.15593 0.2024 0.0
C388 C 0.53857 0.18694 0.16763 0.0
H389 H 0.53387 0.2423 0.14886 0.0
C390 C 0.51482 0.18113 0.1678 0.0
C391 C 0.54564 0.20921 0.1607 0.0
C392 C 0.57104 0.21602 0.15955 0.0
C393 C 0.49785 0.1971 0.16146 0.0
C394 C 0.50487 0.21931 0.15436 0.0
C395 C 0.52862 0.22522 0.15429 0.0
C396 C 0.48751 0.23631 0.14669 0.0
C397 C 0.47246 0.19018 0.16271 0.0
C398 C 0.47442 0.23216 0.12663 0.0
C399 C 0.45517 0.24569 0.12149 0.0
C400 C 0.44879 0.26372 0.13625 0.0
C401 C 0.46309 0.26907 0.15531 0.0
C402 C 0.48235 0.25538 0.16052 0.0
H403 H 0.46979 0.17449 0.17329 0.0
H404 H 0.46186 0.20422 0.17015 0.0
H405 H 0.46587 0.18662 0.14501 0.0
H406 H 0.47838 0.21769 0.1156 0.0
H407 H 0.4446 0.24129 0.10656 0.0
H408 H 0.78765 0.41726 0.16216 0.0
H409 H 0.80163 0.44333 0.19231 0.0
H410 H 0.8665 0.45221 0.15572 0.0
H411 H 0.85252 0.42624 0.12528 0.0
H412 H 0.84155 0.43906 0.22062 0.0
H413 H 0.84434 0.51809 0.16698 0.0
H414 H 0.82896 0.49246 0.15801 0.0
H415 H 0.86012 0.49427 0.15531 0.0
C416 C 0.80482 0.42492 0.1604 0.0
C417 C 0.81895 0.41984 0.14127 0.0
C418 C 0.81281 0.4397 0.17771 0.0
C419 C 0.83501 0.44977 0.17616 0.0
C420 C 0.84916 0.44484 0.15705 0.0
H421 H 0.90639 0.55172 0.25834 0.0
H422 H 0.89849 0.51827 0.2341 0.0
C423 C 0.84116 0.43004 0.13968 0.0
C424 C 0.84326 0.46545 0.1946 0.0
H425 H 0.85943 0.52091 0.20486 0.0
C426 C 0.8455 0.45697 0.21723 0.0
C427 C 0.84828 0.48878 0.19008 0.0
C428 C 0.84513 0.49907 0.16634 0.0
C429 C 0.85288 0.47123 0.23546 0.0
C430 C 0.8579 0.49453 0.23087 0.0
C431 C 0.85574 0.50295 0.20824 0.0
C432 C 0.86479 0.51096 0.24919 0.0
C433 C 0.85549 0.46129 0.25937 0.0
C434 C 0.84886 0.51729 0.26641 0.0
C435 C 0.8534 0.5364 0.28042 0.0
C436 C 0.87378 0.54951 0.27714 0.0
C437 C 0.89047 0.542 0.26116 0.0
C438 C 0.88599 0.52291 0.24729 0.0
H439 H 0.85633 0.44227 0.25899 0.0
H440 H 0.87144 0.46812 0.26795 0.0
H441 H 0.84025 0.46624 0.26998 0.0
H442 H 0.83224 0.50848 0.26792 0.0
H443 H 0.84015 0.54191 0.29248 0.0
H444 H 0.53536 0.69925 0.16785 0.0
H445 H 0.49922 0.71882 0.17858 0.0
H446 H 0.51128 0.76878 0.12488 0.0
H447 H 0.5468 0.7492 0.11382 0.0
H448 H 0.4974 0.76226 0.19488 0.0
H449 H 0.44286 0.75663 0.11635 0.0
H450 H 0.4679 0.73856 0.12073 0.0
H451 H 0.47143 0.7672 0.10949 0.0
C452 C 0.5299 0.71401 0.15791 0.0
C453 C 0.54392 0.72267 0.13997 0.0
C454 C 0.50932 0.72523 0.16413 0.0
C455 C 0.50236 0.74513 0.15236 0.0
C456 C 0.51591 0.75317 0.13386 0.0
H457 H 0.42659 0.8673 0.16766 0.0
H458 H 0.45261 0.83537 0.15939 0.0
C459 C 0.53636 0.74201 0.12765 0.0
C460 C 0.48256 0.75909 0.16075 0.0
H461 H 0.43513 0.78879 0.14185 0.0
C462 C 0.48345 0.76763 0.18347 0.0
C463 C 0.46433 0.76609 0.14588 0.0
C464 C 0.46144 0.75642 0.12184 0.0
C465 C 0.46747 0.78408 0.19118 0.0
C466 C 0.45022 0.79209 0.1758 0.0
C467 C 0.44858 0.78274 0.15351 0.0
C468 C 0.43482 0.8114 0.18188 0.0
C469 C 0.46983 0.79372 0.21527 0.0
C470 C 0.41631 0.80847 0.19744 0.0
C471 C 0.40133 0.82671 0.2022 0.0
C472 C 0.4047 0.84815 0.19149 0.0
C473 C 0.42356 0.85106 0.17627 0.0
C474 C 0.4384 0.83282 0.17145 0.0
H475 H 0.48538 0.78702 0.22447 0.0
H476 H 0.47109 0.81273 0.21457 0.0
H477 H 0.45407 0.78921 0.22544 0.0
H478 H 0.41323 0.79198 0.20554 0.0
H479 H 0.38689 0.82391 0.21391 0.0
H480 H 0.21244 0.3839 0.82263 0.0
H481 H 0.20507 0.4092 0.78955 0.0
H482 H 0.1584 0.44936 0.83117 0.0
H483 H 0.16566 0.42435 0.86426 0.0
H484 H 0.14188 0.43228 0.78345 0.0
H485 H 0.22671 0.47975 0.78511 0.0
H486 H 0.22649 0.44892 0.78751 0.0
H487 H 0.21527 0.46595 0.81068 0.0
C488 C 0.20074 0.39822 0.82477 0.0
C489 C 0.18971 0.40221 0.84609 0.0
C490 C 0.19655 0.4126 0.80587 0.0
C491 C 0.18124 0.43109 0.80802 0.0
C492 C 0.17027 0.43513 0.82924 0.0
H493 H 0.11826 0.54418 0.74751 0.0
H494 H 0.12769 0.50775 0.76549 0.0
C495 C 0.17452 0.42088 0.84814 0.0
C496 C 0.17636 0.44636 0.78825 0.0
H497 H 0.19789 0.49307 0.75975 0.0
C498 C 0.15422 0.44537 0.77796 0.0
C499 C 0.19264 0.46313 0.78096 0.0
C500 C 0.21665 0.46472 0.79157 0.0
C501 C 0.14753 0.46145 0.76122 0.0
C502 C 0.16321 0.4793 0.75514 0.0
C503 C 0.18586 0.47941 0.76444 0.0
C504 C 0.15559 0.49962 0.74178 0.0
C505 C 0.12356 0.45942 0.75061 0.0
C506 C 0.16814 0.50731 0.72241 0.0
C507 C 0.16286 0.52839 0.71212 0.0
C508 C 0.14513 0.54218 0.72126 0.0
C509 C 0.13199 0.53395 0.74001 0.0
C510 C 0.13724 0.51297 0.75022 0.0
H511 H 0.11764 0.44124 0.74999 0.0
H512 H 0.11096 0.46897 0.76142 0.0
H513 H 0.12314 0.46657 0.73283 0.0
H514 H 0.1825 0.49735 0.71575 0.0
H515 H 0.17338 0.53436 0.69778 0.0
H516 H 0.53359 0.30663 0.85627 0.0
H517 H 0.50241 0.27949 0.84624 0.0
H518 H 0.53264 0.22916 0.89172 0.0
H519 H 0.56424 0.25581 0.90108 0.0
H520 H 0.52832 0.21361 0.84799 0.0
H521 H 0.44478 0.25184 0.87608 0.0
H522 H 0.46245 0.27071 0.85882 0.0
H523 H 0.4727 0.26178 0.88678 0.0
C524 C 0.53326 0.28999 0.86456 0.0
C525 C 0.55162 0.28314 0.87906 0.0
C526 C 0.51533 0.27453 0.85892 0.0
C527 C 0.51524 0.25226 0.86819 0.0
C528 C 0.53245 0.24621 0.88427 0.0
H529 H 0.43709 0.12682 0.84111 0.0
H530 H 0.46269 0.15667 0.8573 0.0
C531 C 0.55048 0.26148 0.88963 0.0
C532 C 0.49937 0.23429 0.85892 0.0
H533 H 0.44218 0.21983 0.85035 0.0
C534 C 0.50948 0.21489 0.84873 0.0
C535 C 0.47482 0.2361 0.85969 0.0
C536 C 0.463 0.25612 0.87112 0.0
C537 C 0.49573 0.19733 0.83916 0.0
C538 C 0.47124 0.19918 0.83986 0.0
C539 C 0.46103 0.21855 0.84991 0.0
C540 C 0.45602 0.18112 0.83003 0.0
C541 C 0.5074 0.17706 0.82799 0.0
C542 C 0.44405 0.18505 0.80929 0.0
C543 C 0.42968 0.168 0.79988 0.0
C544 C 0.42682 0.14684 0.81123 0.0
C545 C 0.43902 0.1429 0.83193 0.0
C546 C 0.45355 0.15993 0.84124 0.0
H547 H 0.52646 0.17982 0.82586 0.0
H548 H 0.50465 0.16162 0.83889 0.0
H549 H 0.49954 0.17352 0.81077 0.0
H550 H 0.44587 0.20131 0.8004 0.0
H551 H 0.42051 0.17156 0.78391 0.0
H552 H 0.83246 0.56629 0.86893 0.0
H553 H 0.84292 0.54063 0.83725 0.0
H554 H 0.79865 0.57848 0.79087 0.0
H555 H 0.78801 0.60431 0.82253 0.0
H556 H 0.79431 0.52899 0.7882 0.0
H557 H 0.8861 0.55908 0.78259 0.0
H558 H 0.87702 0.55138 0.81127 0.0
H559 H 0.8637 0.57531 0.79697 0.0
C560 C 0.82482 0.56911 0.85204 0.0
C561 C 0.80946 0.58738 0.84823 0.0
C562 C 0.83095 0.55452 0.83392 0.0
C563 C 0.82187 0.55794 0.81166 0.0
C564 C 0.80598 0.57571 0.8079 0.0
H565 H 0.84365 0.46712 0.69118 0.0
H566 H 0.8328 0.50133 0.71341 0.0
C567 C 0.7999 0.5904 0.82602 0.0
C568 C 0.82898 0.54274 0.79244 0.0
H569 H 0.87685 0.52386 0.76335 0.0
C570 C 0.81226 0.52809 0.78243 0.0
C571 C 0.85239 0.54175 0.78493 0.0
C572 C 0.87083 0.55786 0.79432 0.0
C573 C 0.81862 0.51151 0.76603 0.0
C574 C 0.84224 0.50989 0.75924 0.0
C575 C 0.85876 0.5252 0.76855 0.0
C576 C 0.85054 0.49076 0.74465 0.0
C577 C 0.80035 0.49495 0.75709 0.0
C578 C 0.86484 0.47405 0.75457 0.0
C579 C 0.87101 0.45463 0.74201 0.0
C580 C 0.8631 0.45156 0.71919 0.0
C581 C 0.84989 0.46895 0.70877 0.0
C582 C 0.84356 0.48841 0.72147 0.0
H583 H 0.7835 0.49664 0.76634 0.0
H584 H 0.79725 0.4982 0.73845 0.0
H585 H 0.80649 0.47703 0.75892 0.0
H586 H 0.87051 0.47562 0.77239 0.0
H587 H 0.88134 0.44163 0.7505 0.0
H588 H 0.58013 0.83456 0.78033 0.0
H589 H 0.55512 0.80433 0.79632 0.0
H590 H 0.53954 0.84731 0.85481 0.0
H591 H 0.56481 0.87762 0.83913 0.0
H592 H 0.56033 0.78475 0.8461 0.0
H593 H 0.47507 0.82418 0.82374 0.0
H594 H 0.50153 0.8309 0.80819 0.0
H595 H 0.49707 0.8424 0.83657 0.0
C596 C 0.57128 0.83767 0.79653 0.0
C597 C 0.57445 0.85848 0.80849 0.0
C598 C 0.55711 0.82034 0.80566 0.0
C599 C 0.54563 0.82364 0.82672 0.0
C600 C 0.5483 0.84453 0.83849 0.0
H601 H 0.43998 0.74746 0.89908 0.0
H602 H 0.4709 0.77445 0.88884 0.0
C603 C 0.56264 0.86183 0.82947 0.0
C604 C 0.53081 0.8052 0.8364 0.0
H605 H 0.47408 0.79004 0.84531 0.0
C606 C 0.54145 0.78581 0.84599 0.0
C607 C 0.50629 0.80677 0.83613 0.0
C608 C 0.49416 0.82708 0.82551 0.0
C609 C 0.52809 0.768 0.85579 0.0
C610 C 0.50349 0.76955 0.8555 0.0
C611 C 0.49294 0.78894 0.84569 0.0
C612 C 0.48802 0.75142 0.86509 0.0
C613 C 0.5404 0.74802 0.86679 0.0
C614 C 0.48801 0.72906 0.85602 0.0
C615 C 0.47049 0.71336 0.86221 0.0
C616 C 0.45242 0.72008 0.87704 0.0
C617 C 0.45351 0.74187 0.88737 0.0
C618 C 0.47114 0.75736 0.88149 0.0
H619 H 0.55869 0.75247 0.87146 0.0
H620 H 0.53116 0.74212 0.88258 0.0
H621 H 0.54083 0.73355 0.85434 0.0
H622 H 0.50067 0.72416 0.84312 0.0
H623 H 0.47023 0.69662 0.85412 0.0
H624 H 0.12169 0.1649 0.56918 0.0
H625 H 0.15138 0.15047 0.54263 0.0
H626 H 0.19787 0.20543 0.56298 0.0
H627 H 0.16813 0.22027 0.58902 0.0
H628 H 0.1978 0.19879 0.51654 0.0
H629 H 0.20942 0.11573 0.56157 0.0
H630 H 0.17982 0.12089 0.55303 0.0
H631 H 0.19355 0.1392 0.57418 0.0
C632 C 0.13816 0.17402 0.56783 0.0
C633 C 0.14262 0.19364 0.58129 0.0
C634 C 0.15521 0.16561 0.55286 0.0
C635 C 0.17706 0.17656 0.55125 0.0
C636 C 0.18122 0.19658 0.5641 0.0
H637 H 0.30156 0.14845 0.46835 0.0
H638 H 0.27625 0.16079 0.5001 0.0
C639 C 0.16418 0.20505 0.57896 0.0
C640 C 0.19552 0.16737 0.53598 0.0
H641 H 0.22763 0.11955 0.52467 0.0
C642 C 0.20449 0.18155 0.51846 0.0
C643 C 0.20436 0.14491 0.53865 0.0
C644 C 0.19648 0.12937 0.55801 0.0
C645 C 0.22149 0.17363 0.50306 0.0
C646 C 0.22983 0.151 0.50537 0.0
C647 C 0.22118 0.13691 0.52306 0.0
C648 C 0.24624 0.14127 0.48839 0.0
C649 C 0.22993 0.18921 0.48394 0.0
C650 C 0.23795 0.12555 0.47195 0.0
C651 C 0.25223 0.11865 0.45379 0.0
C652 C 0.27513 0.12723 0.45183 0.0
C653 C 0.28396 0.14168 0.46929 0.0
C654 C 0.26953 0.14879 0.48738 0.0
H655 H 0.21961 0.20521 0.48278 0.0
H656 H 0.24844 0.19397 0.48712 0.0
H657 H 0.22903 0.18021 0.46703 0.0
H658 H 0.22005 0.11949 0.47253 0.0
H659 H 0.24497 0.10735 0.44071 0.0
H660 H 0.73056 0.11199 0.54028 0.0
H661 H 0.74891 0.12488 0.50454 0.0
H662 H 0.71102 0.18834 0.50816 0.0
H663 H 0.6926 0.17557 0.54421 0.0
H664 H 0.73454 0.1433 0.46022 0.0
H665 H 0.78108 0.2061 0.517 0.0
H666 H 0.7643 0.18251 0.52862 0.0
H667 H 0.74975 0.20695 0.51669 0.0
C668 C 0.72558 0.12841 0.53312 0.0
C669 C 0.71042 0.14292 0.54517 0.0
C670 C 0.73605 0.13573 0.51266 0.0
C671 C 0.73163 0.15772 0.504 0.0
C672 C 0.71482 0.17141 0.51478 0.0
H673 H 0.81647 0.20611 0.38628 0.0
H674 H 0.78263 0.20006 0.41143 0.0
C675 C 0.70421 0.16402 0.53526 0.0
C676 C 0.74713 0.16711 0.48588 0.0
H677 H 0.79447 0.20233 0.47902 0.0
C678 C 0.74735 0.15655 0.46408 0.0
C679 C 0.76401 0.18417 0.49122 0.0
C680 C 0.76502 0.19557 0.51466 0.0
C681 C 0.76455 0.16206 0.44772 0.0
C682 C 0.78184 0.17857 0.45338 0.0
C683 C 0.78109 0.18974 0.47481 0.0
C684 C 0.80212 0.18286 0.43825 0.0
C685 C 0.76493 0.14938 0.42499 0.0
C686 C 0.82427 0.17554 0.44527 0.0
C687 C 0.84359 0.17893 0.43101 0.0
C688 C 0.8411 0.1899 0.40954 0.0
C689 C 0.81893 0.19762 0.40274 0.0
C690 C 0.79958 0.19409 0.41699 0.0
H691 H 0.75188 0.1352 0.42437 0.0
H692 H 0.76109 0.1615 0.41073 0.0
H693 H 0.78251 0.14219 0.42186 0.0
H694 H 0.82654 0.16688 0.46168 0.0
H695 H 0.86041 0.17281 0.43673 0.0
H696 H 0.69213 0.84671 0.46994 0.0
H697 H 0.71554 0.83368 0.50287 0.0
H698 H 0.77248 0.87709 0.48082 0.0
H699 H 0.74947 0.88988 0.44785 0.0
H700 H 0.75941 0.81111 0.49384 0.0
H701 H 0.77051 0.88617 0.55194 0.0
H702 H 0.7467 0.88362 0.53154 0.0
H703 H 0.77519 0.89223 0.52185 0.0
C704 C 0.70941 0.85389 0.47243 0.0
C705 C 0.71912 0.86901 0.45609 0.0
C706 C 0.72275 0.84643 0.49123 0.0
C707 C 0.7457 0.85447 0.49426 0.0
C708 C 0.75472 0.87089 0.47896 0.0
H709 H 0.87037 0.82298 0.57025 0.0
H710 H 0.84015 0.83832 0.54474 0.0
C711 C 0.74155 0.87811 0.46006 0.0
C712 C 0.76138 0.84366 0.51133 0.0
H713 H 0.7974 0.85549 0.55689 0.0
C714 C 0.76747 0.82066 0.50788 0.0
C715 C 0.77205 0.85631 0.52936 0.0
C716 C 0.76567 0.88091 0.53408 0.0
C717 C 0.78464 0.81017 0.52147 0.0
C718 C 0.79558 0.82291 0.53935 0.0
C719 C 0.78907 0.84578 0.54312 0.0
C720 C 0.81408 0.81296 0.55412 0.0
C721 C 0.79158 0.78588 0.51589 0.0
C722 C 0.80949 0.79356 0.56775 0.0
C723 C 0.82679 0.78461 0.58209 0.0
C724 C 0.84891 0.79511 0.58335 0.0
C725 C 0.85354 0.81444 0.56956 0.0
C726 C 0.83626 0.8233 0.55509 0.0
H727 H 0.78627 0.78086 0.4981 0.0
H728 H 0.81071 0.78365 0.51761 0.0
H729 H 0.78285 0.77397 0.52813 0.0
H730 H 0.79237 0.78558 0.56763 0.0
H731 H 0.82262 0.76979 0.59262 0.0
H732 H 0.18185 0.80197 0.38777 0.0
H733 H 0.21498 0.80854 0.41379 0.0
H734 H 0.16998 0.84335 0.46171 0.0
H735 H 0.13674 0.83699 0.43577 0.0
H736 H 0.23125 0.85403 0.43199 0.0
H737 H 0.20442 0.79135 0.49943 0.0
H738 H 0.19368 0.79 0.47006 0.0
H739 H 0.18207 0.81065 0.48987 0.0
C740 C 0.17897 0.81095 0.40389 0.0
C741 C 0.15667 0.81888 0.4098 0.0
C742 C 0.19793 0.81472 0.41867 0.0
C743 C 0.19482 0.82624 0.43967 0.0
C744 C 0.17261 0.83421 0.44563 0.0
H745 H 0.27324 0.8947 0.54119 0.0
H746 H 0.25319 0.88383 0.50552 0.0
C747 C 0.15368 0.8306 0.43079 0.0
C748 C 0.21479 0.8302 0.45537 0.0
H749 H 0.23485 0.81748 0.50932 0.0
C750 C 0.23226 0.84586 0.44879 0.0
C751 C 0.21614 0.81925 0.47709 0.0
C752 C 0.19821 0.80171 0.48456 0.0
C753 C 0.25051 0.85171 0.46396 0.0
C754 C 0.25117 0.84164 0.48616 0.0
C755 C 0.23432 0.82515 0.49225 0.0
C756 C 0.26748 0.84963 0.50434 0.0
C757 C 0.26868 0.86892 0.45636 0.0
C758 C 0.2827 0.8342 0.51512 0.0
C759 C 0.29436 0.84046 0.53547 0.0
C760 C 0.29053 0.86205 0.5455 0.0
C761 C 0.27653 0.87796 0.5338 0.0
C762 C 0.26513 0.8718 0.51336 0.0
H763 H 0.26963 0.87009 0.43721 0.0
H764 H 0.26407 0.8861 0.46314 0.0
H765 H 0.28616 0.8644 0.46321 0.0
H766 H 0.28457 0.81694 0.50848 0.0
H767 H 0.30487 0.82779 0.54425 0.0
H768 H 0.60289 0.95634 0.75529 0.0
H769 H 0.61626 0.98979 0.73363 0.0
H770 H 0.67819 0.99354 0.77591 0.0
H771 H 0.66506 0.95967 0.79755 0.0
H772 H 0.63085 0.0351 0.74354 0.0
H773 H 0.70306 0.98101 0.71043 0.0
H774 H 0.67879 0.96913 0.7263 0.0
H775 H 0.70163 0.98432 0.74127 0.0
C776 C 0.6191 0.96458 0.76038 0.0
C777 C 0.63309 0.95519 0.77791 0.0
C778 C 0.62671 0.98372 0.74797 0.0
C779 C 0.64845 0.99377 0.75282 0.0
C780 C 0.66154 0.98571 0.77164 0.0
H781 H 0.72537 0.08965 0.66438 0.0
H782 H 0.71377 0.06457 0.69636 0.0
C783 C 0.65392 0.9665 0.78412 0.0
C784 C 0.65817 0.01099 0.73659 0.0
H785 H 0.69983 0.01809 0.69505 0.0
C786 C 0.64607 0.03152 0.7331 0.0
C787 C 0.67795 0.00615 0.72287 0.0
C788 C 0.69107 0.98391 0.72518 0.0
C789 C 0.65308 0.04726 0.71606 0.0
C790 C 0.67244 0.0421 0.70195 0.0
C791 C 0.68496 0.02192 0.7059 0.0
C792 C 0.67952 0.05701 0.68244 0.0
C793 C 0.63967 0.06924 0.71325 0.0
C794 C 0.66433 0.06053 0.66374 0.0
C795 C 0.67095 0.07472 0.6454 0.0
C796 C 0.6929 0.0856 0.64544 0.0
C797 C 0.70833 0.08153 0.66388 0.0
C798 C 0.70171 0.06728 0.68219 0.0
H799 H 0.62961 0.07346 0.72906 0.0
H800 H 0.65155 0.08383 0.70921 0.0
H801 H 0.62713 0.06729 0.69873 0.0
H802 H 0.64732 0.05232 0.66337 0.0
H803 H 0.65869 0.07751 0.63143 0.0
H804 H 0.94532 0.74 0.60783 0.0
H805 H 0.97961 0.71772 0.61825 0.0
H806 H 0.98965 0.75949 0.67901 0.0
H807 H 0.95523 0.78211 0.66861 0.0
H808 H 0.03299 0.74395 0.65226 0.0
H809 H 0.97028 0.675 0.677 0.0
H810 H 0.96635 0.68697 0.64864 0.0
H811 H 0.96173 0.70455 0.67367 0.0
C812 C 0.95514 0.74485 0.62311 0.0
C813 C 0.94747 0.76263 0.63755 0.0
C814 C 0.97469 0.73207 0.62904 0.0
C815 C 0.98683 0.73676 0.64956 0.0
C816 C 0.98038 0.75562 0.66312 0.0
H817 H 0.09635 0.66282 0.72165 0.0
H818 H 0.06789 0.69127 0.70918 0.0
C819 C 0.9608 0.76855 0.65713 0.0
C820 C 0.0045 0.72041 0.65793 0.0
H821 H 0.01026 0.6656 0.67769 0.0
C822 C 0.0281 0.72686 0.65796 0.0
C823 C 0.99794 0.69817 0.66534 0.0
C824 C 0.9727 0.69071 0.66639 0.0
C825 C 0.04545 0.71133 0.66471 0.0
C826 C 0.03886 0.689 0.67191 0.0
C827 C 0.01523 0.68269 0.67207 0.0
C828 C 0.05618 0.67183 0.67941 0.0
C829 C 0.0707 0.71869 0.66353 0.0
C830 C 0.0585 0.65118 0.6672 0.0
C831 C 0.07466 0.6348 0.67435 0.0
C832 C 0.08863 0.63878 0.69396 0.0
C833 C 0.0859 0.65929 0.70642 0.0
C834 C 0.06979 0.67566 0.69922 0.0
H835 H 0.07312 0.73419 0.6526 0.0
H836 H 0.07702 0.7228 0.6812 0.0
H837 H 0.08165 0.70469 0.65655 0.0
H838 H 0.04798 0.64784 0.65196 0.0
H839 H 0.07639 0.61918 0.66438 0.0
H840 H 0.33924 0.04383 0.79599 0.0
H841 H 0.32841 0.00955 0.77377 0.0
H842 H 0.392 0.01567 0.73454 0.0
H843 H 0.40301 0.04958 0.75674 0.0
H844 H 0.32134 0.0138 0.72683 0.0
H845 H 0.387 0.9467 0.74352 0.0
H846 H 0.3828 0.97075 0.76273 0.0
H847 H 0.3999 0.97404 0.73689 0.0
C848 C 0.3513 0.03735 0.78322 0.0
C849 C 0.37189 0.04945 0.77798 0.0
C850 C 0.34505 0.01783 0.77048 0.0
C851 C 0.35945 0.01001 0.75257 0.0
C852 C 0.38082 0.02112 0.74853 0.0
H853 H 0.34777 0.92652 0.62974 0.0
H854 H 0.35979 0.95273 0.66084 0.0
C855 C 0.38702 0.04062 0.76117 0.0
C856 C 0.35071 0.99277 0.73579 0.0
H857 H 0.36475 0.94289 0.70843 0.0
C858 C 0.33061 0.99809 0.72306 0.0
C859 C 0.36303 0.9725 0.7307 0.0
C860 C 0.38426 0.96553 0.74433 0.0
C861 C 0.3229 0.98408 0.70484 0.0
C862 C 0.33541 0.96398 0.6995 0.0
C863 C 0.35528 0.9584 0.71249 0.0
C864 C 0.32803 0.94847 0.68054 0.0
C865 C 0.30192 0.99138 0.69094 0.0
C866 C 0.30623 0.93746 0.68137 0.0
C867 C 0.29927 0.92273 0.66361 0.0
C868 C 0.31409 0.91851 0.64478 0.0
C869 C 0.33592 0.92958 0.64393 0.0
C870 C 0.34285 0.94442 0.66173 0.0
H871 H 0.29814 0.0099 0.69327 0.0
H872 H 0.30451 0.98798 0.67224 0.0
H873 H 0.28642 0.98147 0.69674 0.0
H874 H 0.29471 0.94004 0.69593 0.0
H875 H 0.28241 0.91434 0.66486 0.0
H876 H 0.04947 0.2526 0.61517 0.0
H877 H 0.01385 0.27177 0.62685 0.0
H878 H 0.00018 0.2184 0.67672 0.0
H879 H 0.03638 0.19924 0.66544 0.0
H880 H 0.96758 0.25958 0.62828 0.0
H881 H 0.0023 0.27585 0.71685 0.0
H882 H 0.0204 0.26533 0.69378 0.0
H883 H 0.00032 0.24633 0.70811 0.0
C884 C 0.03878 0.24471 0.62843 0.0
C885 C 0.04589 0.22452 0.63956 0.0
C886 C 0.01838 0.25571 0.63507 0.0
C887 C 0.00461 0.24679 0.65299 0.0
C888 C 0.01084 0.22585 0.6632 0.0
H889 H 0.88648 0.32326 0.71237 0.0
H890 H 0.91314 0.29159 0.7039 0.0
C891 C 0.0314 0.21481 0.65659 0.0
C892 C 0.98461 0.26036 0.6615 0.0
H893 H 0.9665 0.29267 0.70731 0.0
C894 C 0.96717 0.26653 0.64566 0.0
C895 C 0.98413 0.26949 0.6842 0.0
C896 C 0.00284 0.26411 0.70173 0.0
C897 C 0.94977 0.28222 0.65164 0.0
C898 C 0.9499 0.29203 0.67397 0.0
C899 C 0.96655 0.28504 0.6902 0.0
C900 C 0.93423 0.31115 0.67994 0.0
C901 C 0.93175 0.28874 0.63384 0.0
C902 C 0.93771 0.33267 0.66967 0.0
C903 C 0.92274 0.35077 0.6746 0.0
C904 C 0.90395 0.34766 0.68986 0.0
C905 C 0.90081 0.32618 0.70055 0.0
C906 C 0.91596 0.30808 0.69572 0.0
H907 H 0.93072 0.27603 0.61955 0.0
H908 H 0.91427 0.29028 0.64189 0.0
H909 H 0.93647 0.30565 0.62633 0.0
H910 H 0.95192 0.3354 0.65765 0.0
H911 H 0.92565 0.36706 0.66606 0.0
H912 H 0.66401 0.92536 0.36501 0.0
H913 H 0.65659 0.94941 0.33119 0.0
H914 H 0.71134 0.91527 0.29404 0.0
H915 H 0.71881 0.8909 0.32777 0.0
H916 H 0.70948 0.96824 0.29424 0.0
H917 H 0.62809 0.92312 0.2674 0.0
H918 H 0.63083 0.92959 0.29772 0.0
H919 H 0.6504 0.90957 0.28465 0.0
C920 C 0.6746 0.92305 0.34973 0.0
C921 C 0.69199 0.90623 0.34904 0.0
C922 C 0.67024 0.9367 0.3304 0.0
C923 C 0.68325 0.93385 0.31012 0.0
C924 C 0.70105 0.91755 0.30953 0.0
H925 H 0.67425 0.03238 0.19465 0.0
H926 H 0.68566 0.99708 0.21471 0.0
C927 C 0.7053 0.90372 0.32881 0.0
C928 C 0.6782 0.94819 0.28971 0.0
H929 H 0.63551 0.95956 0.25032 0.0
C930 C 0.69355 0.96618 0.28428 0.0
C931 C 0.65743 0.94527 0.27686 0.0
C932 C 0.64075 0.92575 0.28175 0.0
C933 C 0.68791 0.98237 0.26723 0.0
C934 C 0.6666 0.98003 0.25496 0.0
C935 C 0.65187 0.96126 0.25963 0.0
C936 C 0.65779 0.99856 0.23983 0.0
C937 C 0.70406 0.00263 0.26363 0.0
C938 C 0.63751 0.01013 0.24632 0.0
C939 C 0.63082 0.02997 0.23477 0.0
C940 C 0.6443 0.03869 0.21648 0.0
C941 C 0.66357 0.02609 0.20873 0.0
C942 C 0.67024 0.00609 0.22033 0.0
H943 H 0.7176 0.00393 0.27735 0.0
H944 H 0.71304 0.00082 0.24677 0.0
H945 H 0.69411 0.01888 0.26331 0.0
H946 H 0.62754 0.00454 0.26121 0.0
H947 H 0.61577 0.03918 0.24103 0.0
H948 H 0.91564 0.67314 0.28659 0.0
H949 H 0.9411 0.70301 0.30268 0.0
H950 H 0.95984 0.65807 0.35875 0.0
H951 H 0.93424 0.62805 0.34287 0.0
H952 H 0.93936 0.72239 0.35078 0.0
H953 H 0.02265 0.68007 0.32728 0.0
H954 H 0.9953 0.67302 0.31335 0.0
H955 H 0.00131 0.66258 0.3419 0.0
C956 C 0.92523 0.66955 0.3023 0.0
C957 C 0.92302 0.64821 0.31344 0.0
C958 C 0.93966 0.68668 0.3115 0.0
C959 C 0.9523 0.68267 0.33183 0.0
C960 C 0.95026 0.66138 0.34296 0.0
H961 H 0.06193 0.7571 0.4011 0.0
H962 H 0.02978 0.7309 0.39229 0.0
C963 C 0.93571 0.64426 0.33384 0.0
C964 C 0.96793 0.70068 0.34118 0.0
H965 H 0.02531 0.71406 0.34907 0.0
C966 C 0.95817 0.72065 0.35049 0.0
C967 C 0.99238 0.69826 0.34063 0.0
C968 C 0.00367 0.67743 0.33012 0.0
C969 C 0.97234 0.7382 0.3597 0.0
C970 C 0.99684 0.73578 0.35913 0.0
C971 C 0.00651 0.71581 0.34967 0.0
C972 C 0.01312 0.75365 0.36789 0.0
C973 C 0.96098 0.75891 0.37032 0.0
C974 C 0.01384 0.7756 0.3579 0.0
C975 C 0.03209 0.79082 0.36321 0.0
C976 C 0.05014 0.78403 0.37813 0.0
C977 C 0.04842 0.76272 0.38933 0.0
C978 C 0.03007 0.7477 0.38428 0.0
H979 H 0.94263 0.75525 0.3753 0.0
H980 H 0.97072 0.76487 0.38584 0.0
H981 H 0.96089 0.77306 0.35751 0.0
H982 H 0.00114 0.78046 0.34496 0.0
H983 H 0.03287 0.80719 0.35443 0.0
H984 H 0.38239 0.94345 0.25067 0.0
H985 H 0.37144 0.97776 0.27197 0.0
H986 H 0.33323 0.00212 0.21271 0.0
H987 H 0.34418 0.96757 0.19109 0.0
H988 H 0.37739 0.02579 0.26213 0.0
H989 H 0.28419 0.99811 0.26583 0.0
H990 H 0.30724 0.97853 0.25851 0.0
H991 H 0.29781 0.99947 0.23787 0.0
C992 C 0.37192 0.95622 0.24199 0.0
C993 C 0.3639 0.95266 0.21928 0.0
C994 C 0.36569 0.97583 0.25421 0.0
C995 C 0.35121 0.99225 0.24405 0.0
C996 C 0.34413 0.98942 0.22096 0.0
H997 H 0.28964 0.10628 0.32264 0.0
H998 H 0.29986 0.08087 0.29044 0.0
C999 C 0.35051 0.96977 0.2086 0.0
C1000 C 0.34284 0.01157 0.25835 0.0
H1001 H 0.29498 0.03061 0.28747 0.0
C1002 C 0.35932 0.02708 0.26741 0.0
C1003 C 0.31924 0.01314 0.26523 0.0
C1004 C 0.30101 0.99641 0.25653 0.0
C1005 C 0.35296 0.04369 0.28373 0.0
C1006 C 0.3296 0.04457 0.29139 0.0
C1007 C 0.31288 0.0298 0.28156 0.0
C1008 C 0.32267 0.05952 0.31085 0.0
C1009 C 0.37137 0.05989 0.293 0.0
C1010 C 0.33166 0.05552 0.33303 0.0
C1011 C 0.32577 0.06984 0.35143 0.0
C1012 C 0.31073 0.08844 0.34799 0.0
C1013 C 0.30126 0.09208 0.32584 0.0
C1014 C 0.3071 0.07764 0.30743 0.0
H1015 H 0.38663 0.06108 0.28126 0.0
H1016 H 0.36418 0.07733 0.29556 0.0
H1017 H 0.37757 0.05353 0.31 0.0
H1018 H 0.34341 0.04138 0.33608 0.0
H1019 H 0.33334 0.06654 0.36826 0.0
H1020 H 0.08157 0.33031 0.2798 0.0
H1021 H 0.05577 0.30068 0.29574 0.0
H1022 H 0.04053 0.34436 0.3538 0.0
H1023 H 0.06657 0.37405 0.33817 0.0
H1024 H 0.05936 0.2816 0.34674 0.0
H1025 H 0.97608 0.32268 0.32036 0.0
H1026 H 0.00318 0.32806 0.30539 0.0
H1027 H 0.9983 0.34063 0.33322 0.0
C1028 C 0.07267 0.33368 0.29591 0.0
C1029 C 0.07609 0.35452 0.30774 0.0
C1030 C 0.05805 0.31669 0.30502 0.0
C1031 C 0.0464 0.32039 0.32592 0.0
C1032 C 0.04945 0.34127 0.33762 0.0
H1033 H 0.93703 0.25011 0.39813 0.0
H1034 H 0.96911 0.27555 0.38737 0.0
C1035 C 0.06423 0.35821 0.32863 0.0
C1036 C 0.03079 0.30252 0.33541 0.0
H1037 H 0.97338 0.28921 0.34288 0.0
C1038 C 0.04055 0.28314 0.34593 0.0
C1039 C 0.00636 0.30473 0.33421 0.0
C1040 C 0.99519 0.32505 0.3226 0.0
C1041 C 0.02634 0.26603 0.35583 0.0
C1042 C 0.00183 0.26828 0.3547 0.0
C1043 C 0.99218 0.28759 0.34388 0.0
C1044 C 0.98554 0.25108 0.36464 0.0
C1045 C 0.03765 0.24605 0.36786 0.0
C1046 C 0.98474 0.22845 0.35629 0.0
C1047 C 0.96652 0.21366 0.36275 0.0
C1048 C 0.9486 0.22156 0.37715 0.0
C1049 C 0.95044 0.24363 0.38677 0.0
C1050 C 0.96874 0.25822 0.3806 0.0
H1051 H 0.05605 0.24991 0.37259 0.0
H1052 H 0.02795 0.24125 0.38374 0.0
H1053 H 0.03756 0.23102 0.35608 0.0
H1054 H 0.99736 0.22265 0.34373 0.0
H1055 H 0.96566 0.19669 0.35521 0.0
H1056 H 0.74203 0.6085 0.9396 0.0
H1057 H 0.71745 0.62031 0.97182 0.0
H1058 H 0.77442 0.66008 9e-05 0.0
H1059 H 0.79937 0.64811 0.96793 0.0
H1060 H 0.72565 0.61869 0.02394 0.0
H1061 H 0.71823 0.70573 0.98491 0.0
H1062 H 0.72672 0.68104 0.96817 0.0
H1063 H 0.74691 0.6938 0.98818 0.0
C1064 C 0.74952 0.61941 0.95288 0.0
C1065 C 0.77257 0.62763 0.95105 0.0
C1066 C 0.73543 0.62613 0.97127 0.0
C1067 C 0.74406 0.64129 0.98808 0.0
C1068 C 0.76743 0.64852 0.9871 0.0
H1069 H 0.66761 0.71842 0.09177 0.0
H1070 H 0.69728 0.70387 0.06543 0.0
C1071 C 0.78166 0.64161 0.96877 0.0
C1072 C 0.72798 0.65069 0.00557 0.0
H1073 H 0.69685 0.69855 0.01877 0.0
C1074 C 0.71943 0.63619 0.02297 0.0
C1075 C 0.71994 0.67349 0.00413 0.0
C1076 C 0.72823 0.68951 0.98532 0.0
C1077 C 0.70299 0.64394 0.03909 0.0
C1078 C 0.69444 0.66659 0.03728 0.0
C1079 C 0.70333 0.68118 0.02007 0.0
C1080 C 0.67619 0.67549 0.05298 0.0
C1081 C 0.69517 0.62789 0.05805 0.0
C1082 C 0.65424 0.66471 0.05432 0.0
C1083 C 0.63725 0.67295 0.06944 0.0
C1084 C 0.64184 0.69227 0.08331 0.0
C1085 C 0.66355 0.70346 0.08137 0.0
C1086 C 0.68055 0.69515 0.06635 0.0
H1087 H 0.70804 0.61407 0.06108 0.0
H1088 H 0.69244 0.63727 0.07453 0.0
H1089 H 0.67841 0.61966 0.05296 0.0
H1090 H 0.65026 0.64988 0.04371 0.0
H1091 H 0.62066 0.66401 0.07047 0.0
H1092 H 0.19841 0.67454 0.04326 0.0
H1093 H 0.218 0.68575 0.00731 0.0
H1094 H 0.25104 0.61965 0.00434 0.0
H1095 H 0.23167 0.60844 0.04013 0.0
H1096 H 0.26719 0.68704 0.00727 0.0
H1097 H 0.23381 0.63197 0.93631 0.0
H1098 H 0.21753 0.63706 0.96251 0.0
H1099 H 0.24051 0.61626 0.96215 0.0
C1100 C 0.20914 0.66212 0.03444 0.0
C1101 C 0.21361 0.64065 0.04448 0.0
C1102 C 0.2204 0.66857 0.01399 0.0
C1103 C 0.23586 0.65348 0.00312 0.0
C1104 C 0.23889 0.63142 0.01221 0.0
H1105 H 0.36627 0.66777 0.93592 0.0
H1106 H 0.33285 0.66177 0.96154 0.0
C1107 C 0.22789 0.62507 0.03274 0.0
C1108 C 0.2517 0.66173 0.98471 0.0
H1109 H 0.27211 0.64847 0.931 0.0
C1110 C 0.26798 0.67894 0.99041 0.0
C1111 C 0.25268 0.65114 0.96275 0.0
C1112 C 0.23505 0.63322 0.95544 0.0
C1113 C 0.28599 0.68498 0.9752 0.0
C1114 C 0.28779 0.67341 0.95383 0.0
C1115 C 0.27079 0.65711 0.94755 0.0
C1116 C 0.30788 0.67726 0.93833 0.0
C1117 C 0.30332 0.70329 0.98229 0.0
C1118 C 0.30477 0.68773 0.91676 0.0
C1119 C 0.32384 0.6913 0.90216 0.0
C1120 C 0.34626 0.68418 0.90881 0.0
C1121 C 0.34924 0.67351 0.93037 0.0
C1122 C 0.3302 0.67012 0.94502 0.0
H1123 H 0.29658 0.71407 0.9966 0.0
H1124 H 0.3196 0.69502 0.9883 0.0
H1125 H 0.30775 0.71453 0.96742 0.0
H1126 H 0.28763 0.69324 0.91131 0.0
H1127 H 0.32096 0.69944 0.88559 0.0
H1128 H 0.25204 0.38671 0.94132 0.0
H1129 H 0.27605 0.37539 0.97422 0.0
H1130 H 0.21859 0.33605 0.0018 0.0
H1131 H 0.19422 0.34749 0.96892 0.0
H1132 H 0.26903 0.37696 0.02554 0.0
H1133 H 0.27313 0.28954 0.98681 0.0
H1134 H 0.26409 0.31425 0.97039 0.0
H1135 H 0.2447 0.30161 0.99113 0.0
C1136 C 0.2443 0.37605 0.95463 0.0
C1137 C 0.22136 0.36763 0.95233 0.0
C1138 C 0.25806 0.36963 0.97341 0.0
C1139 C 0.24917 0.35461 0.99015 0.0
C1140 C 0.22578 0.34748 0.98885 0.0
H1141 H 0.32437 0.27572 0.09323 0.0
H1142 H 0.29482 0.29147 0.06741 0.0
C1143 C 0.21188 0.35407 0.97011 0.0
C1144 C 0.26515 0.34485 0.00755 0.0
H1145 H 0.29491 0.2961 0.02067 0.0
C1146 C 0.2746 0.35925 0.02465 0.0
C1147 C 0.27241 0.32178 0.00615 0.0
C1148 C 0.26325 0.30583 0.98759 0.0
C1149 C 0.29113 0.35112 0.04054 0.0
C1150 C 0.2988 0.32817 0.03882 0.0
C1151 C 0.28906 0.3137 0.02189 0.0
C1152 C 0.31694 0.31874 0.05436 0.0
C1153 C 0.30001 0.3671 0.05917 0.0
C1154 C 0.33938 0.32854 0.05522 0.0
C1155 C 0.35632 0.31961 0.07005 0.0
C1156 C 0.35116 0.30058 0.08408 0.0
C1157 C 0.32889 0.29042 0.08268 0.0
C1158 C 0.31195 0.29942 0.06796 0.0
H1159 H 0.28782 0.3815 0.06219 0.0
H1160 H 0.30266 0.35784 0.07573 0.0
H1161 H 0.31701 0.37453 0.05374 0.0
H1162 H 0.34379 0.3431 0.04442 0.0
H1163 H 0.37335 0.32775 0.0707 0.0
H1164 H 0.81163 0.33513 0.03666 0.0
H1165 H 0.79322 0.32565 0.9995 0.0
H1166 H 0.74768 0.38372 0.00683 0.0
H1167 H 0.76624 0.39355 0.04331 0.0
H1168 H 0.74859 0.31318 0.99631 0.0
H1169 H 0.76177 0.38788 0.93943 0.0
H1170 H 0.77909 0.38354 0.96515 0.0
H1171 H 0.75101 0.39713 0.96689 0.0
C1172 C 0.79823 0.34629 0.02992 0.0
C1173 C 0.7903 0.36501 0.04294 0.0
C1174 C 0.78769 0.34082 0.00874 0.0
C1175 C 0.76923 0.35411 0.00022 0.0
C1176 C 0.76226 0.37354 0.01265 0.0
H1177 H 0.64223 0.34363 0.92957 0.0
H1178 H 0.67686 0.35141 0.95318 0.0
C1179 C 0.77278 0.37901 0.03369 0.0
C1180 C 0.75484 0.3461 0.98044 0.0
H1181 H 0.72596 0.36563 0.93276 0.0
C1182 C 0.74415 0.32439 0.98203 0.0
C1183 C 0.74903 0.3607 0.96179 0.0
C1184 C 0.76107 0.3835 0.95811 0.0
C1185 C 0.7266 0.31762 0.96648 0.0
C1186 C 0.71963 0.33296 0.94896 0.0
C1187 C 0.73123 0.35406 0.94645 0.0
C1188 C 0.69903 0.32815 0.93438 0.0
C1189 C 0.71462 0.29471 0.9696 0.0
C1190 C 0.70018 0.31247 0.91607 0.0
C1191 C 0.68044 0.30799 0.90252 0.0
C1192 C 0.65927 0.31909 0.90718 0.0
C1193 C 0.65823 0.33473 0.92562 0.0
C1194 C 0.678 0.33927 0.93905 0.0
H1195 H 0.72138 0.28519 0.9848 0.0
H1196 H 0.69557 0.29719 0.97175 0.0
H1197 H 0.71718 0.28407 0.95392 0.0
H1198 H 0.71634 0.30378 0.91224 0.0
H1199 H 0.6818 0.29591 0.88837 0.0
H1200 H 0.1806 0.36172 0.33913 0.0
H1201 H 0.20564 0.33891 0.36465 0.0
H1202 H 0.1548 0.28399 0.3636 0.0
H1203 H 0.12967 0.30668 0.33872 0.0
H1204 H 0.17817 0.28746 0.40581 0.0
H1205 H 0.23896 0.28684 0.33079 0.0
H1206 H 0.23249 0.31439 0.34302 0.0
H1207 H 0.20992 0.29822 0.32868 0.0
C1208 C 0.17447 0.3451 0.34499 0.0
C1209 C 0.15346 0.33574 0.33654 0.0
C1210 C 0.18885 0.33203 0.35941 0.0
C1211 C 0.18231 0.30954 0.36548 0.0
C1212 C 0.16027 0.30122 0.35897 0.0
H1213 H 0.25588 0.18444 0.3745 0.0
H1214 H 0.23131 0.21743 0.36596 0.0
C1215 C 0.14599 0.31417 0.34463 0.0
C1216 C 0.19922 0.2933 0.3756 0.0
H1217 H 0.24719 0.2621 0.3614 0.0
C1218 C 0.1935 0.28213 0.39635 0.0
C1219 C 0.21897 0.28617 0.36295 0.0
C1220 C 0.22547 0.29684 0.34004 0.0
C1221 C 0.20657 0.26347 0.40439 0.0
C1222 C 0.22598 0.25606 0.39143 0.0
C1223 C 0.23221 0.26781 0.3712 0.0
C1224 C 0.23947 0.23544 0.39773 0.0
C1225 C 0.19884 0.25115 0.42603 0.0
C1226 C 0.25198 0.23454 0.41853 0.0
C1227 C 0.26592 0.21565 0.42354 0.0
C1228 C 0.26784 0.1974 0.40769 0.0
C1229 C 0.25486 0.19816 0.38707 0.0
C1230 C 0.24085 0.21703 0.38214 0.0
H1231 H 0.18078 0.25575 0.43101 0.0
H1232 H 0.19972 0.23228 0.42371 0.0
H1233 H 0.21062 0.25597 0.4405 0.0
H1234 H 0.25147 0.24871 0.43062 0.0
H1235 H 0.27563 0.21567 0.43962 0.0
H1236 H 0.89021 0.12514 0.30131 0.0
H1237 H 0.8568 0.10783 0.28098 0.0
H1238 H 0.81345 0.12009 0.34044 0.0
H1239 H 0.84659 0.13683 0.36087 0.0
H1240 H 0.80007 0.08063 0.31566 0.0
H1241 H 0.81133 0.15742 0.25923 0.0
H1242 H 0.83512 0.13759 0.2602 0.0
H1243 H 0.8278 0.15384 0.28552 0.0
C1244 C 0.87379 0.12326 0.31034 0.0
C1245 C 0.87085 0.13275 0.33248 0.0
C1246 C 0.85468 0.11355 0.29865 0.0
C1247 C 0.83253 0.11328 0.309 0.0
C1248 C 0.83032 0.12028 0.33206 0.0
H1249 H 0.69762 0.14835 0.26564 0.0
H1250 H 0.73627 0.14311 0.28241 0.0
C1251 C 0.84929 0.12994 0.34369 0.0
C1252 C 0.81102 0.10959 0.29521 0.0
H1253 H 0.77674 0.1365 0.25544 0.0
C1254 C 0.79509 0.09251 0.30214 0.0
C1255 C 0.80447 0.12541 0.27785 0.0
C1256 C 0.82043 0.14472 0.27028 0.0
C1257 C 0.77244 0.09142 0.29282 0.0
C1258 C 0.76573 0.10774 0.27606 0.0
C1259 C 0.782 0.12409 0.26837 0.0
C1260 C 0.74147 0.10951 0.2675 0.0
C1261 C 0.75547 0.07368 0.30181 0.0
C1262 C 0.73146 0.09218 0.25383 0.0
C1263 C 0.70927 0.09508 0.24423 0.0
C1264 C 0.69677 0.11546 0.24802 0.0
C1265 C 0.70667 0.13247 0.26231 0.0
C1266 C 0.7288 0.12952 0.27189 0.0
H1267 H 0.76221 0.06479 0.31741 0.0
H1268 H 0.73855 0.08172 0.3061 0.0
H1269 H 0.75218 0.06062 0.2882 0.0
H1270 H 0.74107 0.07673 0.24999 0.0
H1271 H 0.70222 0.08159 0.23331 0.0
H1272 H 0.8114 0.64817 0.33316 0.0
H1273 H 0.7897 0.67349 0.3589 0.0
H1274 H 0.85419 0.69576 0.39067 0.0
H1275 H 0.87597 0.67154 0.36378 0.0
H1276 H 0.78265 0.68489 0.40321 0.0
H1277 H 0.83405 0.75347 0.35948 0.0
H1278 H 0.83583 0.72383 0.35106 0.0
H1279 H 0.85122 0.73404 0.37626 0.0
C1280 C 0.82081 0.65782 0.34626 0.0
C1281 C 0.84523 0.65814 0.34654 0.0
C1282 C 0.80844 0.67236 0.36091 0.0
C1283 C 0.82041 0.68712 0.37615 0.0
C1284 C 0.84468 0.68508 0.37851 0.0
H1285 H 0.73475 0.78991 0.44886 0.0
H1286 H 0.76197 0.75834 0.44269 0.0
C1287 C 0.85708 0.67105 0.3634 0.0
C1288 C 0.80792 0.70675 0.38656 0.0
H1289 H 0.8051 0.7652 0.38503 0.0
C1290 C 0.78765 0.70248 0.39948 0.0
C1291 C 0.8143 0.7297 0.38131 0.0
C1292 C 0.83489 0.73561 0.36611 0.0
C1293 C 0.77316 0.72047 0.40659 0.0
C1294 C 0.77954 0.74336 0.40121 0.0
C1295 C 0.80031 0.74764 0.38919 0.0
C1296 C 0.76392 0.76302 0.40561 0.0
C1297 C 0.75055 0.71466 0.41862 0.0
C1298 C 0.75683 0.77679 0.38701 0.0
C1299 C 0.74178 0.79511 0.39054 0.0
C1300 C 0.73329 0.79988 0.41274 0.0
C1301 C 0.7408 0.78642 0.43149 0.0
C1302 C 0.75619 0.76828 0.42798 0.0
H1303 H 0.74576 0.69627 0.41661 0.0
H1304 H 0.7524 0.71829 0.43736 0.0
H1305 H 0.73605 0.72521 0.41178 0.0
H1306 H 0.76263 0.7731 0.3696 0.0
H1307 H 0.73625 0.80509 0.37575 0.0
H1308 H 0.28779 0.94598 0.23388 0.0
H1309 H 0.25366 0.94168 0.25876 0.0
H1310 H 0.25877 0.86805 0.25337 0.0
H1311 H 0.29362 0.87231 0.22945 0.0
H1312 H 0.213 0.92472 0.24906 0.0
H1313 H 0.24918 0.8738 0.3209 0.0
H1314 H 0.26755 0.88713 0.29943 0.0
H1315 H 0.25396 0.85967 0.29385 0.0
C1316 C 0.28186 0.92888 0.23839 0.0
C1317 C 0.29342 0.90946 0.22988 0.0
C1318 C 0.26231 0.92644 0.25253 0.0
C1319 C 0.25375 0.90455 0.25823 0.0
C1320 C 0.2654 0.88512 0.24984 0.0
H1321 H 0.11406 0.86367 0.29166 0.0
H1322 H 0.14831 0.88059 0.27306 0.0
C1323 C 0.28527 0.88755 0.23607 0.0
C1324 C 0.23186 0.90205 0.27171 0.0
H1325 H 0.20748 0.87294 0.31674 0.0
C1326 C 0.21187 0.91366 0.26409 0.0
C1327 C 0.2304 0.88803 0.29161 0.0
C1328 C 0.25151 0.87668 0.30206 0.0
C1329 C 0.19032 0.91095 0.27528 0.0
C1330 C 0.1885 0.89556 0.29411 0.0
C1331 C 0.2087 0.88461 0.3022 0.0
C1332 C 0.16587 0.8895 0.30511 0.0
C1333 C 0.16987 0.92476 0.26685 0.0
C1334 C 0.16404 0.88907 0.32932 0.0
C1335 C 0.14477 0.87882 0.33991 0.0
C1336 C 0.12671 0.86928 0.32649 0.0
C1337 C 0.12755 0.87136 0.30235 0.0
C1338 C 0.14715 0.88109 0.29172 0.0
H1339 H 0.17576 0.94124 0.2591 0.0
H1340 H 0.16051 0.91496 0.25319 0.0
H1341 H 0.15748 0.92853 0.28104 0.0
H1342 H 0.17817 0.89548 0.34005 0.0
H1343 H 0.14455 0.87724 0.35857 0.0
H1344 H 0.12977 0.6618 0.6365 0.0
H1345 H 0.14657 0.68917 0.60899 0.0
H1346 H 0.21429 0.67936 0.64017 0.0
H1347 H 0.19776 0.65083 0.66607 0.0
H1348 H 0.15905 0.72651 0.62366 0.0
H1349 H 0.23673 0.69614 0.57914 0.0
H1350 H 0.21621 0.67617 0.5918 0.0
H1351 H 0.24024 0.68767 0.60862 0.0
C1352 C 0.14849 0.6645 0.63632 0.0
C1353 C 0.16261 0.65417 0.65309 0.0
C1354 C 0.15809 0.68029 0.62077 0.0
C1355 C 0.18178 0.68658 0.6224 0.0
C1356 C 0.19618 0.67455 0.63787 0.0
H1357 H 0.23336 0.81331 0.65487 0.0
H1358 H 0.21179 0.778 0.64754 0.0
C1359 C 0.18669 0.65824 0.65288 0.0
C1360 C 0.19011 0.70881 0.61262 0.0
H1361 H 0.24016 0.73598 0.59573 0.0
C1362 C 0.17653 0.72837 0.61676 0.0
C1363 C 0.21263 0.71171 0.603 0.0
C1364 C 0.22706 0.69168 0.59516 0.0
C1365 C 0.18575 0.7505 0.61409 0.0
C1366 C 0.20945 0.75322 0.60801 0.0
C1367 C 0.2222 0.7339 0.60123 0.0
C1368 C 0.22189 0.77535 0.61159 0.0
C1369 C 0.17021 0.77072 0.61883 0.0
C1370 C 0.23538 0.78533 0.59401 0.0
C1371 C 0.24812 0.80548 0.59828 0.0
C1372 C 0.24761 0.81595 0.62024 0.0
C1373 C 0.23393 0.80594 0.63769 0.0
C1374 C 0.22143 0.78578 0.63346 0.0
H1375 H 0.15189 0.76677 0.61383 0.0
H1376 H 0.17036 0.77449 0.63763 0.0
H1377 H 0.17608 0.78626 0.60933 0.0
H1378 H 0.23617 0.77746 0.57707 0.0
H1379 H 0.25852 0.81272 0.58444 0.0
H1380 H 0.31769 0.1618 0.7347 0.0
H1381 H 0.28144 0.15539 0.71366 0.0
H1382 H 0.28652 0.08259 0.72579 0.0
H1383 H 0.32261 0.08898 0.74773 0.0
H1384 H 0.27315 0.13142 0.67531 0.0
H1385 H 0.22083 0.0946 0.74739 0.0
H1386 H 0.2489 0.10801 0.75207 0.0
H1387 H 0.24705 0.07969 0.73994 0.0
C1388 C 0.31122 0.14439 0.73285 0.0
C1389 C 0.32304 0.12593 0.74294 0.0
C1390 C 0.29043 0.14074 0.72084 0.0
C1391 C 0.28106 0.11853 0.7184 0.0
C1392 C 0.2931 0.09992 0.72791 0.0
H1393 H 0.16618 0.13578 0.62214 0.0
H1394 H 0.19547 0.111 0.63999 0.0
C1395 C 0.31383 0.1036 0.74027 0.0
C1396 C 0.2588 0.11545 0.70559 0.0
H1397 H 0.20113 0.10218 0.71268 0.0
C1398 C 0.25742 0.12472 0.6833 0.0
C1399 C 0.23838 0.10654 0.71609 0.0
C1400 C 0.23868 0.09677 0.74024 0.0
C1401 C 0.236 0.12727 0.67197 0.0
C1402 C 0.21532 0.11918 0.68279 0.0
C1403 C 0.21695 0.1082 0.70435 0.0
C1404 C 0.19196 0.12593 0.67408 0.0
C1405 C 0.23574 0.14053 0.64951 0.0
C1406 C 0.17802 0.14004 0.68798 0.0
C1407 C 0.16046 0.15324 0.67803 0.0
C1408 C 0.15697 0.15274 0.65406 0.0
C1409 C 0.1686 0.13634 0.64072 0.0
C1410 C 0.18559 0.12249 0.65085 0.0
H1411 H 0.25268 0.1492 0.646 0.0
H1412 H 0.23215 0.12861 0.63496 0.0
H1413 H 0.222 0.15383 0.64974 0.0
H1414 H 0.18234 0.14281 0.70602 0.0
H1415 H 0.15182 0.16596 0.68858 0.0
H1416 H 0.77007 0.19506 0.6516 0.0
H1417 H 0.78485 0.23385 0.64474 0.0
H1418 H 0.75371 0.23366 0.57687 0.0
H1419 H 0.73874 0.19476 0.58346 0.0
H1420 H 0.80275 0.25393 0.58208 0.0
H1421 H 0.73593 0.28856 0.64159 0.0
H1422 H 0.75198 0.26465 0.65283 0.0
H1423 H 0.73328 0.26066 0.62818 0.0
C1424 C 0.76664 0.20304 0.63505 0.0
C1425 C 0.75297 0.19184 0.61821 0.0
C1426 C 0.77504 0.22525 0.6312 0.0
C1427 C 0.77006 0.23665 0.61045 0.0
C1428 C 0.75759 0.22514 0.59305 0.0
H1429 H 0.79279 0.38424 0.62313 0.0
H1430 H 0.7761 0.34959 0.60529 0.0
C1431 C 0.74904 0.20293 0.59691 0.0
C1432 C 0.77672 0.26105 0.60778 0.0
H1433 H 0.76778 0.31334 0.63235 0.0
C1434 C 0.79491 0.26706 0.59274 0.0
C1435 C 0.76601 0.2782 0.62124 0.0
C1436 C 0.74556 0.27282 0.63674 0.0
C1437 C 0.80382 0.28959 0.59214 0.0
C1438 C 0.79443 0.30631 0.60716 0.0
C1439 C 0.77508 0.30058 0.62086 0.0
C1440 C 0.80633 0.32855 0.6118 0.0
C1441 C 0.82358 0.2951 0.57588 0.0
C1442 C 0.82916 0.32847 0.62053 0.0
C1443 C 0.83866 0.34813 0.63067 0.0
C1444 C 0.82547 0.36828 0.63243 0.0
C1445 C 0.8034 0.36901 0.6219 0.0
C1446 C 0.79382 0.3492 0.61179 0.0
H1447 H 0.82251 0.28433 0.56006 0.0
H1448 H 0.82361 0.31345 0.57075 0.0
H1449 H 0.84039 0.29129 0.58456 0.0
H1450 H 0.83902 0.31272 0.62124 0.0
H1451 H 0.85576 0.34707 0.63858 0.0
H1452 H 0.81044 0.83984 0.62893 0.0
H1453 H 0.78799 0.86703 0.65112 0.0
H1454 H 0.83905 0.86453 0.70601 0.0
H1455 H 0.86138 0.83641 0.68384 0.0
H1456 H 0.79982 0.85031 0.72123 0.0
H1457 H 0.77959 0.92957 0.67522 0.0
H1458 H 0.77567 0.90677 0.65486 0.0
H1459 H 0.8042 0.91218 0.66713 0.0
C1460 C 0.81739 0.84578 0.64534 0.0
C1461 C 0.83732 0.83567 0.65493 0.0
C1462 C 0.80466 0.86166 0.65796 0.0
C1463 C 0.81171 0.86793 0.68036 0.0
C1464 C 0.83324 0.85997 0.68877 0.0
H1465 H 0.6872 0.91239 0.75793 0.0
H1466 H 0.72665 0.91591 0.74216 0.0
C1467 C 0.84604 0.84394 0.67607 0.0
C1468 C 0.79393 0.87728 0.69636 0.0
H1469 H 0.74541 0.91083 0.69536 0.0
C1470 C 0.78845 0.86416 0.716 0.0
C1471 C 0.77912 0.89557 0.69004 0.0
C1472 C 0.78521 0.91192 0.67077 0.0
C1473 C 0.76728 0.86694 0.72759 0.0
C1474 C 0.75103 0.88294 0.71908 0.0
C1475 C 0.75762 0.89801 0.70134 0.0
C1476 C 0.72646 0.88216 0.7267 0.0
C1477 C 0.76187 0.85171 0.748 0.0
C1478 C 0.71303 0.86239 0.72236 0.0
C1479 C 0.69055 0.86027 0.73126 0.0
C1480 C 0.681 0.87795 0.74466 0.0
C1481 C 0.69406 0.89833 0.74785 0.0
C1482 C 0.71661 0.90043 0.73887 0.0
H1483 H 0.77809 0.84592 0.75669 0.0
H1484 H 0.75084 0.86069 0.76083 0.0
H1485 H 0.75227 0.83624 0.74189 0.0
H1486 H 0.72025 0.84827 0.71259 0.0
H1487 H 0.68102 0.84442 0.7283 0.0
H1488 H 0.35625 0.20442 0.38101 0.0
H1489 H 0.36915 0.21919 0.34355 0.0
H1490 H 0.38831 0.15082 0.32277 0.0
H1491 H 0.37391 0.13587 0.35967 0.0
H1492 H 0.40478 0.22084 0.31371 0.0
H1493 H 0.33539 0.16295 0.27954 0.0
H1494 H 0.34026 0.16689 0.31002 0.0
H1495 H 0.35872 0.14815 0.29358 0.0
C1496 C 0.3641 0.19273 0.36879 0.0
C1497 C 0.364 0.16905 0.37305 0.0
C1498 C 0.37136 0.20114 0.34732 0.0
C1499 C 0.37889 0.18597 0.33004 0.0
C1500 C 0.3818 0.16271 0.33556 0.0
H1501 H 0.40712 0.24129 0.19044 0.0
H1502 H 0.4129 0.22314 0.22816 0.0
C1503 C 0.37391 0.15422 0.35674 0.0
C1504 C 0.3802 0.1939 0.30567 0.0
H1505 H 0.35517 0.18581 0.25264 0.0
C1506 C 0.39409 0.2131 0.30027 0.0
C1507 C 0.36584 0.18404 0.28825 0.0
C1508 C 0.34904 0.16453 0.29312 0.0
C1509 C 0.39364 0.22302 0.27811 0.0
C1510 C 0.37943 0.21299 0.2607 0.0
C1511 C 0.36613 0.1934 0.26595 0.0
C1512 C 0.37637 0.22349 0.2375 0.0
C1513 C 0.40748 0.24474 0.27395 0.0
C1514 C 0.35384 0.22887 0.22974 0.0
C1515 C 0.35042 0.23866 0.208 0.0
C1516 C 0.3695 0.24353 0.19359 0.0
C1517 C 0.39207 0.2379 0.20122 0.0
C1518 C 0.39544 0.22773 0.22288 0.0
H1519 H 0.41255 0.25328 0.29041 0.0
H1520 H 0.4237 0.2405 0.26452 0.0
H1521 H 0.39741 0.25707 0.26335 0.0
H1522 H 0.33884 0.22574 0.24066 0.0
H1523 H 0.33285 0.24293 0.20276 0.0
H1524 H 0.87129 0.22901 0.30573 0.0
H1525 H 0.86605 0.25499 0.27312 0.0
H1526 H 0.94067 0.25992 0.2647 0.0
H1527 H 0.946 0.23314 0.29684 0.0
H1528 H 0.87937 0.29791 0.26813 0.0
H1529 H 0.921 0.24579 0.19952 0.0
H1530 H 0.91438 0.23438 0.22774 0.0
H1531 H 0.93963 0.25239 0.22363 0.0
C1532 C 0.88659 0.2356 0.29693 0.0
C1533 C 0.90904 0.22895 0.30373 0.0
C1534 C 0.88359 0.25041 0.27826 0.0
C1535 C 0.90295 0.2591 0.26619 0.0
C1536 C 0.92545 0.25293 0.2733 0.0
H1537 H 0.86593 0.37352 0.17664 0.0
H1538 H 0.89063 0.35112 0.2027 0.0
C1539 C 0.92847 0.23777 0.29177 0.0
C1540 C 0.89924 0.27518 0.24669 0.0
H1541 H 0.90725 0.28232 0.18862 0.0
C1542 C 0.88558 0.29458 0.25076 0.0
C1543 C 0.90732 0.27071 0.22403 0.0
C1544 C 0.92122 0.2496 0.21834 0.0
C1545 C 0.87886 0.30912 0.23274 0.0
C1546 C 0.88698 0.30477 0.21004 0.0
C1547 C 0.90135 0.2858 0.20606 0.0
C1548 C 0.87838 0.3182 0.19004 0.0
C1549 C 0.86195 0.32812 0.23812 0.0
C1550 C 0.86536 0.30713 0.17264 0.0
C1551 C 0.85202 0.31993 0.15714 0.0
C1552 C 0.85131 0.34387 0.15916 0.0
C1553 C 0.8662 0.35501 0.17492 0.0
C1554 C 0.88007 0.34224 0.18993 0.0
H1555 H 0.85321 0.32554 0.25505 0.0
H1556 H 0.87152 0.34472 0.2389 0.0
H1557 H 0.84826 0.32933 0.22458 0.0
H1558 H 0.86396 0.28859 0.17224 0.0
H1559 H 0.84052 0.31102 0.14519 0.0
H1560 H 0.58802 0.73569 0.19787 0.0
H1561 H 0.58335 0.75118 0.2368 0.0
H1562 H 0.6527 0.7801 0.23383 0.0
H1563 H 0.65776 0.76443 0.19504 0.0
H1564 H 0.64386 0.75323 0.2732 0.0
H1565 H 0.57421 0.81765 0.25912 0.0
H1566 H 0.56835 0.7891 0.24872 0.0
H1567 H 0.59109 0.80595 0.23566 0.0
C1568 C 0.60222 0.74559 0.20533 0.0
C1569 C 0.62334 0.74873 0.19328 0.0
C1570 C 0.59943 0.75452 0.22758 0.0
C1571 C 0.61761 0.76689 0.23812 0.0
C1572 C 0.63844 0.77059 0.22595 0.0
H1573 H 0.64338 0.85528 0.34761 0.0
H1574 H 0.62835 0.83657 0.31298 0.0
C1575 C 0.64128 0.76166 0.20374 0.0
C1576 C 0.6157 0.77486 0.26235 0.0
H1577 H 0.58839 0.81352 0.29716 0.0
C1578 C 0.63157 0.76622 0.27856 0.0
C1579 C 0.59954 0.79172 0.26919 0.0
C1580 C 0.58239 0.80183 0.2523 0.0
C1581 C 0.63248 0.77472 0.30121 0.0
C1582 C 0.61674 0.79204 0.30797 0.0
C1583 C 0.6002 0.80003 0.292 0.0
C1584 C 0.61995 0.80456 0.33005 0.0
C1585 C 0.65127 0.76606 0.31726 0.0
C1586 C 0.61884 0.79325 0.35148 0.0
C1587 C 0.62756 0.80394 0.37145 0.0
C1588 C 0.63745 0.82604 0.37011 0.0
C1589 C 0.63618 0.8381 0.34911 0.0
C1590 C 0.6275 0.82746 0.32928 0.0
H1591 H 0.66424 0.75533 0.30811 0.0
H1592 H 0.66063 0.78062 0.32562 0.0
H1593 H 0.64319 0.75547 0.33105 0.0
H1594 H 0.61266 0.77568 0.35248 0.0
H1595 H 0.62824 0.79427 0.38741 0.0
H1596 H 0.16549 0.69033 0.149 0.0
H1597 H 0.14127 0.71126 0.17651 0.0
H1598 H 0.12088 0.64734 0.20851 0.0
H1599 H 0.14646 0.62658 0.182 0.0
H1600 H 0.09833 0.71438 0.19274 0.0
H1601 H 0.15523 0.67689 0.26055 0.0
H1602 H 0.16053 0.67265 0.23022 0.0
H1603 H 0.13849 0.65597 0.24484 0.0
C1604 C 0.15527 0.68076 0.16149 0.0
C1605 C 0.15794 0.65698 0.1637 0.0
C1606 C 0.14148 0.69269 0.17724 0.0
C1607 C 0.12992 0.68091 0.19511 0.0
C1608 C 0.13034 0.65684 0.19542 0.0
H1609 H 0.05533 0.76435 0.29845 0.0
H1610 H 0.06271 0.73643 0.26773 0.0
C1611 C 0.1447 0.64497 0.18015 0.0
C1612 C 0.12017 0.69399 0.21481 0.0
H1613 H 0.12666 0.70248 0.27287 0.0
C1614 C 0.10436 0.71171 0.21031 0.0
C1615 C 0.1284 0.6907 0.2377 0.0
C1616 C 0.14675 0.67319 0.24365 0.0
C1617 C 0.0971 0.72666 0.22789 0.0
C1618 C 0.10528 0.72324 0.25075 0.0
C1619 C 0.12036 0.705 0.25536 0.0
C1620 C 0.10031 0.7395 0.26981 0.0
C1621 C 0.08177 0.74661 0.22155 0.0
C1622 C 0.11895 0.74974 0.28189 0.0
C1623 C 0.1148 0.76518 0.29979 0.0
C1624 C 0.09189 0.77093 0.3058 0.0
C1625 C 0.07319 0.76042 0.29398 0.0
C1626 C 0.07737 0.74462 0.2763 0.0
H1627 H 0.08194 0.75004 0.20266 0.0
H1628 H 0.06353 0.74264 0.22659 0.0
H1629 H 0.08738 0.76246 0.23073 0.0
H1630 H 0.13681 0.74601 0.27724 0.0
H1631 H 0.12956 0.77307 0.3085 0.0
H1632 H 0.44894 0.73359 0.79592 0.0
H1633 H 0.44261 0.7621 0.76553 0.0
H1634 H 0.36853 0.75877 0.778 0.0
H1635 H 0.37474 0.7309 0.80877 0.0
H1636 H 0.41916 0.75938 0.72573 0.0
H1637 H 0.37977 0.82663 0.77966 0.0
H1638 H 0.39443 0.80226 0.79202 0.0
H1639 H 0.36428 0.80008 0.7833 0.0
C1640 C 0.43131 0.73907 0.79228 0.0
C1641 C 0.41232 0.7301 0.80483 0.0
C1642 C 0.42774 0.75535 0.77492 0.0
C1643 C 0.40515 0.76288 0.76979 0.0
C1644 C 0.38619 0.75373 0.78212 0.0
H1645 H 0.33876 0.81059 0.64972 0.0
H1646 H 0.36434 0.78986 0.67607 0.0
C1647 C 0.38975 0.7377 0.79964 0.0
C1648 C 0.40108 0.77969 0.75104 0.0
H1649 H 0.37042 0.82793 0.73894 0.0
C1650 C 0.40887 0.77464 0.72863 0.0
C1651 C 0.38835 0.79997 0.75491 0.0
C1652 C 0.38149 0.80768 0.77884 0.0
C1653 C 0.40282 0.7885 0.70972 0.0
C1654 C 0.38796 0.80745 0.71328 0.0
C1655 C 0.38156 0.81328 0.73597 0.0
C1656 C 0.37692 0.82025 0.69398 0.0
C1657 C 0.41232 0.78254 0.68621 0.0
C1658 C 0.37557 0.84429 0.69492 0.0
C1659 C 0.36027 0.85601 0.68041 0.0
C1660 C 0.34661 0.84395 0.66428 0.0
C1661 C 0.34947 0.82023 0.66182 0.0
C1662 C 0.36424 0.8084 0.67681 0.0
H1663 H 0.42993 0.77488 0.68772 0.0
H1664 H 0.40076 0.76954 0.67796 0.0
H1665 H 0.41346 0.79781 0.67479 0.0
H1666 H 0.38518 0.85386 0.70792 0.0
H1667 H 0.35822 0.87435 0.68258 0.0
H1668 H 0.14382 0.28698 0.88086 0.0
H1669 H 0.13118 0.27151 0.84349 0.0
H1670 H 0.11042 0.33919 0.82198 0.0
H1671 H 0.12448 0.35486 0.85879 0.0
H1672 H 0.09523 0.26892 0.8136 0.0
H1673 H 0.16367 0.32737 0.77906 0.0
H1674 H 0.15896 0.32361 0.80957 0.0
H1675 H 0.14027 0.34209 0.79301 0.0
C1676 C 0.13567 0.29835 0.86849 0.0
C1677 C 0.13517 0.32206 0.87252 0.0
C1678 C 0.12857 0.28954 0.84708 0.0
C1679 C 0.12064 0.30435 0.82964 0.0
C1680 C 0.11721 0.32759 0.83491 0.0
H1681 H 0.08985 0.2497 0.69045 0.0
H1682 H 0.08518 0.26703 0.72869 0.0
C1683 C 0.12491 0.33648 0.85603 0.0
C1684 C 0.11935 0.29615 0.80536 0.0
H1685 H 0.14353 0.30458 0.75214 0.0
C1686 C 0.10566 0.27676 0.80009 0.0
C1687 C 0.13342 0.30612 0.78786 0.0
C1688 C 0.15009 0.32578 0.79265 0.0
C1689 C 0.10587 0.26689 0.7779 0.0
C1690 C 0.11963 0.27715 0.76034 0.0
C1691 C 0.13289 0.29681 0.76554 0.0
C1692 C 0.12204 0.26701 0.7369 0.0
C1693 C 0.09222 0.24502 0.77384 0.0
C1694 C 0.14436 0.26212 0.72834 0.0
C1695 C 0.14712 0.25285 0.70629 0.0
C1696 C 0.12759 0.24799 0.69238 0.0
C1697 C 0.10524 0.2531 0.70084 0.0
C1698 C 0.10251 0.26278 0.7228 0.0
H1699 H 0.0879 0.23621 0.79032 0.0
H1700 H 0.07558 0.24914 0.765 0.0
H1701 H 0.10207 0.23297 0.76274 0.0
H1702 H 0.15971 0.26527 0.73886 0.0
H1703 H 0.16455 0.24895 0.70039 0.0
H1704 H 0.66379 0.13843 0.69775 0.0
H1705 H 0.6373 0.16128 0.72085 0.0
H1706 H 0.62517 0.20578 0.66258 0.0
H1707 H 0.65214 0.18305 0.63928 0.0
H1708 H 0.64165 0.22865 0.6998 0.0
H1709 H 0.56843 0.1734 0.72761 0.0
H1710 H 0.59571 0.15927 0.73208 0.0
H1711 H 0.58657 0.16638 0.70315 0.0
C1712 C 0.65507 0.15275 0.68964 0.0
C1713 C 0.66033 0.15917 0.66681 0.0
C1714 C 0.63966 0.16564 0.70281 0.0
C1715 C 0.6291 0.18514 0.69341 0.0
C1716 C 0.63304 0.19069 0.67011 0.0
H1717 H 0.55568 0.27631 0.78981 0.0
H1718 H 0.56307 0.2515 0.75655 0.0
C1719 C 0.64842 0.17768 0.65682 0.0
C1720 C 0.61759 0.2016 0.70907 0.0
H1721 H 0.57928 0.20443 0.75403 0.0
C1722 C 0.62761 0.22354 0.71127 0.0
C1723 C 0.59917 0.19503 0.72394 0.0
C1724 C 0.5867 0.1723 0.7214 0.0
C1725 C 0.62087 0.23842 0.72899 0.0
C1726 C 0.60393 0.23102 0.74509 0.0
C1727 C 0.59264 0.20982 0.74191 0.0
C1728 C 0.59882 0.24463 0.76598 0.0
C1729 C 0.63245 0.26169 0.73076 0.0
C1730 C 0.61631 0.24834 0.78259 0.0
C1731 C 0.6122 0.26245 0.80162 0.0
C1732 C 0.59049 0.2731 0.80437 0.0
C1733 C 0.57269 0.26855 0.78813 0.0
C1734 C 0.57681 0.25435 0.76913 0.0
H1735 H 0.64001 0.26716 0.71395 0.0
H1736 H 0.61989 0.27487 0.73658 0.0
H1737 H 0.64683 0.2609 0.7436 0.0
H1738 H 0.6333 0.24062 0.7806 0.0
H1739 H 0.62626 0.26545 0.81381 0.0
H1740 H 0.9069 0.74077 0.69103 0.0
H1741 H 0.91359 0.72267 0.72862 0.0
H1742 H 0.83933 0.71513 0.73797 0.0
H1743 H 0.83252 0.73242 0.70026 0.0
H1744 H 0.90163 0.73558 0.77096 0.0
H1745 H 0.86027 0.65177 0.7531 0.0
H1746 H 0.8668 0.67203 0.73042 0.0
H1747 H 0.84025 0.67436 0.74688 0.0
C1748 C 0.89199 0.73499 0.70098 0.0
C1749 C 0.86915 0.73784 0.69253 0.0
C1750 C 0.89587 0.72469 0.72248 0.0
C1751 C 0.877 0.71712 0.73595 0.0
C1752 C 0.85421 0.72015 0.7276 0.0
H1753 H 0.8529 0.70466 0.87849 0.0
H1754 H 0.86793 0.71816 0.84148 0.0
C1755 C 0.85033 0.73016 0.70604 0.0
C1756 C 0.88082 0.7069 0.75915 0.0
H1757 H 0.86258 0.66279 0.7933 0.0
C1758 C 0.89348 0.71943 0.77579 0.0
C1759 C 0.87085 0.68553 0.76534 0.0
C1760 C 0.85904 0.67005 0.74788 0.0
C1761 C 0.89505 0.71189 0.79882 0.0
C1762 C 0.883 0.69167 0.80551 0.0
C1763 C 0.87166 0.67845 0.78845 0.0
C1764 C 0.87981 0.6848 0.8301 0.0
C1765 C 0.90946 0.72579 0.81566 0.0
C1766 C 0.88192 0.66165 0.83651 0.0
C1767 C 0.87262 0.65385 0.85739 0.0
C1768 C 0.86169 0.66917 0.87252 0.0
C1769 C 0.86176 0.69265 0.86732 0.0
C1770 C 0.87044 0.70037 0.8461 0.0
H1771 H 0.92456 0.73397 0.80682 0.0
H1772 H 0.89864 0.73975 0.82287 0.0
H1773 H 0.91607 0.71512 0.83011 0.0
H1774 H 0.88911 0.64927 0.82457 0.0
H1775 H 0.87247 0.6356 0.86097 0.0
H1776 H 0.18267 0.4121 0.24887 0.0
H1777 H 0.21914 0.41865 0.22791 0.0
H1778 H 0.21717 0.3487 0.20361 0.0
H1779 H 0.18064 0.34214 0.22394 0.0
H1780 H 0.26061 0.39881 0.23373 0.0
H1781 H 0.23114 0.38232 0.14477 0.0
H1782 H 0.21089 0.38717 0.16807 0.0
H1783 H 0.22217 0.35886 0.16272 0.0
C1784 C 0.18982 0.39819 0.23876 0.0
C1785 C 0.17863 0.37658 0.238 0.0
C1786 C 0.21068 0.402 0.22682 0.0
C1787 C 0.22067 0.38431 0.21384 0.0
C1788 C 0.20944 0.36283 0.21294 0.0
H1789 H 0.34558 0.32776 0.19235 0.0
H1790 H 0.31779 0.35428 0.20885 0.0
C1791 C 0.18857 0.35905 0.2247 0.0
C1792 C 0.2436 0.38743 0.20242 0.0
H1793 H 0.27165 0.37247 0.15309 0.0
C1794 C 0.26306 0.39364 0.2159 0.0
C1795 C 0.24682 0.38171 0.17893 0.0
C1796 C 0.22655 0.37743 0.16277 0.0
C1797 C 0.28581 0.39176 0.20716 0.0
C1798 C 0.28911 0.38268 0.1847 0.0
C1799 C 0.26947 0.37901 0.17049 0.0
C1800 C 0.31169 0.37291 0.17695 0.0
C1801 C 0.30598 0.39887 0.22239 0.0
C1802 C 0.31862 0.37497 0.15371 0.0
C1803 C 0.33399 0.35914 0.1441 0.0
C1804 C 0.34329 0.34161 0.15781 0.0
C1805 C 0.33899 0.34151 0.18162 0.0
C1806 C 0.32307 0.35684 0.19109 0.0
H1807 H 0.30156 0.41458 0.23228 0.0
H1808 H 0.30943 0.38513 0.23519 0.0
H1809 H 0.32206 0.40224 0.21227 0.0
H1810 H 0.31025 0.38725 0.14242 0.0
H1811 H 0.33683 0.35924 0.12559 0.0
H1812 H 0.3649 0.61897 0.86096 0.0
H1813 H 0.32927 0.60202 0.84482 0.0
H1814 H 0.34901 0.62638 0.7771 0.0
H1815 H 0.38529 0.64179 0.79305 0.0
H1816 H 0.29791 0.62797 0.83051 0.0
H1817 H 0.31601 0.57027 0.75763 0.0
H1818 H 0.33841 0.57849 0.77805 0.0
H1819 H 0.33191 0.59647 0.7535 0.0
C1820 C 0.36215 0.61948 0.84243 0.0
C1821 C 0.37783 0.63138 0.82815 0.0
C1822 C 0.34171 0.61 0.83322 0.0
C1823 C 0.33628 0.61288 0.80969 0.0
C1824 C 0.3529 0.62328 0.79514 0.0
H1825 H 0.20623 0.65695 0.75718 0.0
H1826 H 0.24389 0.651 0.7757 0.0
C1827 C 0.37369 0.63217 0.80427 0.0
C1828 C 0.3119 0.60933 0.80147 0.0
H1829 H 0.27943 0.59166 0.75511 0.0
C1830 C 0.29391 0.61949 0.81427 0.0
C1831 C 0.30632 0.59809 0.78044 0.0
C1832 C 0.32422 0.58501 0.76681 0.0
C1833 C 0.27092 0.61987 0.80607 0.0
C1834 C 0.26583 0.61066 0.78401 0.0
C1835 C 0.28342 0.59921 0.77181 0.0
C1836 C 0.24279 0.61397 0.77281 0.0
C1837 C 0.25241 0.63042 0.82113 0.0
C1838 C 0.22993 0.5952 0.7643 0.0
C1839 C 0.20848 0.59859 0.7533 0.0
C1840 C 0.19947 0.62084 0.75069 0.0
C1841 C 0.21243 0.63957 0.75924 0.0
C1842 C 0.23396 0.63618 0.76994 0.0
H1843 H 0.25694 0.62882 0.83974 0.0
H1844 H 0.25112 0.64898 0.81714 0.0
H1845 H 0.2351 0.62226 0.8182 0.0
H1846 H 0.23647 0.57792 0.76618 0.0
H1847 H 0.19896 0.58378 0.74685 0.0
H1848 H 0.24098 0.30605 0.87625 0.0
H1849 H 0.26554 0.27274 0.86936 0.0
H1850 H 0.25002 0.24721 0.93759 0.0
H1851 H 0.22569 0.28065 0.94488 0.0
H1852 H 0.29682 0.24249 0.92559 0.0
H1853 H 0.23866 0.20848 0.85705 0.0
H1854 H 0.24727 0.23765 0.8517 0.0
H1855 H 0.22987 0.23088 0.87668 0.0
C1856 C 0.2429 0.29348 0.88989 0.0
C1857 C 0.23107 0.29589 0.91098 0.0
C1858 C 0.25681 0.27436 0.88585 0.0
C1859 C 0.25907 0.25725 0.90276 0.0
C1860 C 0.24823 0.26009 0.92423 0.0
H1861 H 0.32341 0.13518 0.84442 0.0
H1862 H 0.29796 0.1556 0.87137 0.0
C1863 C 0.23431 0.27922 0.9283 0.0
C1864 C 0.27257 0.23633 0.89771 0.0
H1865 H 0.27774 0.19393 0.85758 0.0
C1866 C 0.29249 0.2316 0.91096 0.0
C1867 C 0.26645 0.22167 0.87916 0.0
C1868 C 0.24424 0.22475 0.86549 0.0
C1869 C 0.30749 0.21368 0.90489 0.0
C1870 C 0.3026 0.20052 0.88487 0.0
C1871 C 0.28167 0.20411 0.87282 0.0
C1872 C 0.32026 0.18565 0.87391 0.0
C1873 C 0.32873 0.20942 0.91963 0.0
C1874 C 0.3416 0.19537 0.86711 0.0
C1875 C 0.35607 0.1838 0.85181 0.0
C1876 C 0.3494 0.16233 0.84281 0.0
C1877 C 0.329 0.1517 0.85109 0.0
C1878 C 0.31443 0.16337 0.86644 0.0
H1879 H 0.32522 0.21361 0.93803 0.0
H1880 H 0.33449 0.19133 0.91846 0.0
H1881 H 0.34319 0.22075 0.91376 0.0
H1882 H 0.34631 0.21269 0.87218 0.0
H1883 H 0.3718 0.19235 0.84589 0.0
H1884 H 0.61226 0.36368 0.79226 0.0
H1885 H 0.64663 0.37937 0.77264 0.0
H1886 H 0.67782 0.39551 0.8387 0.0
H1887 H 0.6441 0.3785 0.8583 0.0
H1888 H 0.67238 0.41701 0.76924 0.0
H1889 H 0.72357 0.35034 0.81451 0.0
H1890 H 0.69228 0.35165 0.81632 0.0
H1891 H 0.71022 0.37016 0.83401 0.0
C1892 C 0.62614 0.37127 0.80253 0.0
C1893 C 0.62572 0.3698 0.82672 0.0
C1894 C 0.64585 0.3801 0.79133 0.0
C1895 C 0.66517 0.38784 0.80423 0.0
C1896 C 0.6635 0.38885 0.82842 0.0
H1897 H 0.78789 0.44484 0.73403 0.0
H1898 H 0.75321 0.44028 0.75811 0.0
C1899 C 0.64411 0.37946 0.8396 0.0
C1900 C 0.6877 0.39258 0.79251 0.0
H1901 H 0.74469 0.37613 0.79102 0.0
C1902 C 0.68822 0.40813 0.77402 0.0
C1903 C 0.70825 0.38053 0.7984 0.0
C1904 C 0.70856 0.36207 0.81672 0.0
C1905 C 0.70865 0.41192 0.76119 0.0
C1906 C 0.7294 0.40048 0.76764 0.0
C1907 C 0.72888 0.38507 0.78624 0.0
C1908 C 0.75155 0.40331 0.75467 0.0
C1909 C 0.70745 0.42739 0.74032 0.0
C1910 C 0.7631 0.38396 0.74598 0.0
C1911 C 0.7834 0.38649 0.73288 0.0
C1912 C 0.79228 0.40843 0.72796 0.0
C1913 C 0.78121 0.42773 0.73735 0.0
C1914 C 0.76125 0.42516 0.75089 0.0
H1915 H 0.68929 0.42908 0.73384 0.0
H1916 H 0.71377 0.44478 0.74515 0.0
H1917 H 0.71845 0.42087 0.72603 0.0
H1918 H 0.75607 0.3669 0.74883 0.0
H1919 H 0.79155 0.37135 0.72578 0.0
H1920 H 0.76456 0.69178 0.86818 0.0
H1921 H 0.73888 0.72395 0.85983 0.0
H1922 H 0.73055 0.7362 0.93291 0.0
H1923 H 0.75712 0.70468 0.94134 0.0
H1924 H 0.69519 0.73126 0.86948 0.0
H1925 H 0.7483 0.79926 0.9119 0.0
H1926 H 0.75903 0.77064 0.90736 0.0
H1927 H 0.73976 0.77656 0.93108 0.0
C1928 C 0.75721 0.70129 0.88246 0.0
C1929 C 0.76296 0.69582 0.90539 0.0
C1930 C 0.74258 0.71971 0.87769 0.0
C1931 C 0.73318 0.73285 0.89573 0.0
C1932 C 0.73818 0.72684 0.91869 0.0
H1933 H 0.61992 0.82262 0.85362 0.0
H1934 H 0.64201 0.79618 0.87804 0.0
C1935 C 0.75317 0.70867 0.92348 0.0
C1936 C 0.71783 0.75249 0.89026 0.0
H1937 H 0.71158 0.81036 0.89703 0.0
C1938 C 0.69874 0.74854 0.87557 0.0
C1939 C 0.72262 0.77509 0.89806 0.0
C1940 C 0.74366 0.78075 0.91279 0.0
C1941 C 0.68466 0.76654 0.86792 0.0
C1942 C 0.68912 0.7891 0.87607 0.0
C1943 C 0.70795 0.79303 0.89115 0.0
C1944 C 0.6758 0.80896 0.86719 0.0
C1945 C 0.66597 0.76125 0.85021 0.0
C1946 C 0.68743 0.82647 0.85502 0.0
C1947 C 0.67479 0.84217 0.84184 0.0
C1948 C 0.65044 0.84028 0.84046 0.0
C1949 C 0.63873 0.8243 0.85446 0.0
C1950 C 0.65134 0.80904 0.86814 0.0
H1951 H 0.66889 0.74452 0.84152 0.0
H1952 H 0.64877 0.76031 0.8589 0.0
H1953 H 0.66525 0.77477 0.83672 0.0
H1954 H 0.7063 0.82687 0.85421 0.0
H1955 H 0.68415 0.85424 0.83098 0.0
H1956 H 0.66573 0.63686 0.12468 0.0
H1957 H 0.69381 0.6107 0.14226 0.0
H1958 H 0.68048 0.64128 0.20892 0.0
H1959 H 0.65126 0.66584 0.19158 0.0
H1960 H 0.73075 0.62737 0.15565 0.0
H1961 H 0.69904 0.5814 0.2318 0.0
H1962 H 0.679 0.59314 0.21089 0.0
H1963 H 0.68939 0.6103 0.23492 0.0
C1964 C 0.66778 0.63679 0.14331 0.0
C1965 C 0.65629 0.65307 0.1569 0.0
C1966 C 0.68398 0.62202 0.15336 0.0
C1967 C 0.68954 0.62395 0.177 0.0
C1968 C 0.67628 0.63879 0.19085 0.0
H1969 H 0.8167 0.65919 0.23216 0.0
H1970 H 0.78117 0.65186 0.21027 0.0
C1971 C 0.65955 0.65301 0.1809 0.0
C1972 C 0.71224 0.61529 0.18587 0.0
H1973 H 0.73901 0.59884 0.2359 0.0
C1974 C 0.73237 0.62037 0.17293 0.0
C1975 C 0.71484 0.60566 0.2082 0.0
C1976 C 0.6943 0.5971 0.22203 0.0
C1977 C 0.75469 0.6184 0.18253 0.0
C1978 C 0.757 0.61201 0.20596 0.0
C1979 C 0.7372 0.60451 0.21813 0.0
C1980 C 0.77918 0.61571 0.2187 0.0
C1981 C 0.77552 0.62414 0.16768 0.0
C1982 C 0.78964 0.59795 0.23123 0.0
C1983 C 0.80998 0.60217 0.24405 0.0
C1984 C 0.82012 0.62427 0.24465 0.0
C1985 C 0.8096 0.64193 0.23193 0.0
C1986 C 0.78929 0.63772 0.21927 0.0
H1987 H 0.77203 0.61986 0.14927 0.0
H1988 H 0.77912 0.64285 0.16867 0.0
H1989 H 0.7913 0.61481 0.17343 0.0
H1990 H 0.78203 0.58089 0.23119 0.0
H1991 H 0.81757 0.58815 0.25369 0.0
H1992 H 0.29256 0.88317 0.1257 0.0
H1993 H 0.27549 0.84782 0.10962 0.0
H1994 H 0.33892 0.81167 0.12512 0.0
H1995 H 0.35611 0.84673 0.14073 0.0
H1996 H 0.31592 0.79512 0.08502 0.0
H1997 H 0.25713 0.80251 0.16122 0.0
H1998 H 0.25629 0.82548 0.14055 0.0
H1999 H 0.28216 0.82101 0.15746 0.0
C2000 C 0.30315 0.8679 0.12482 0.0
C2001 C 0.32548 0.86756 0.13486 0.0
C2002 C 0.29332 0.84769 0.1158 0.0
C2003 C 0.30576 0.82703 0.11674 0.0
C2004 C 0.32896 0.82737 0.12437 0.0
H2005 H 0.27035 0.69103 0.15374 0.0
H2006 H 0.28608 0.72968 0.14821 0.0
C2007 C 0.33873 0.84743 0.13338 0.0
C2008 C 0.29398 0.80454 0.11357 0.0
H2009 H 0.2563 0.76797 0.14085 0.0
C2010 C 0.30256 0.78925 0.09691 0.0
C2011 C 0.27685 0.79686 0.12942 0.0
C2012 C 0.2676 0.81218 0.1483 0.0
C2013 C 0.29496 0.76627 0.09616 0.0
C2014 C 0.27833 0.75853 0.11244 0.0
C2015 C 0.26913 0.77402 0.12848 0.0
C2016 C 0.27106 0.73417 0.11419 0.0
C2017 C 0.30552 0.75016 0.07876 0.0
C2018 C 0.25777 0.72376 0.09668 0.0
C2019 C 0.24876 0.70162 0.09975 0.0
C2020 C 0.25276 0.68954 0.12049 0.0
C2021 C 0.26689 0.69975 0.13758 0.0
C2022 C 0.27586 0.72188 0.13448 0.0
H2023 H 0.3209 0.75787 0.06999 0.0
H2024 H 0.31088 0.73396 0.08726 0.0
H2025 H 0.29229 0.74578 0.0654 0.0
H2026 H 0.25363 0.73307 0.08102 0.0
H2027 H 0.23797 0.69432 0.08618 0.0
H2028 H 0.74299 0.31241 0.15755 0.0
H2029 H 0.72149 0.27673 0.15196 0.0
H2030 H 0.73412 0.28019 0.07854 0.0
H2031 H 0.75654 0.31575 0.08412 0.0
H2032 H 0.68286 0.26791 0.1278 0.0
H2033 H 0.75573 0.21599 0.0928 0.0
H2034 H 0.76042 0.24391 0.1055 0.0
H2035 H 0.7483 0.2414 0.07694 0.0
C2036 C 0.74116 0.30571 0.14017 0.0
C2037 C 0.75155 0.31693 0.12131 0.0
C2038 C 0.72886 0.28525 0.13699 0.0
C2039 C 0.72643 0.27559 0.11487 0.0
C2040 C 0.73622 0.28702 0.09583 0.0
H2041 H 0.62984 0.16122 0.13451 0.0
H2042 H 0.64752 0.19067 0.1097 0.0
C2043 C 0.74887 0.30743 0.09905 0.0
C2044 C 0.71349 0.25359 0.11235 0.0
H2045 H 0.72078 0.19661 0.10101 0.0
C2046 C 0.69096 0.25233 0.12162 0.0
C2047 C 0.72414 0.23336 0.10412 0.0
C2048 C 0.74853 0.23355 0.09441 0.0
C2049 C 0.67956 0.23125 0.12488 0.0
C2050 C 0.69057 0.21079 0.11753 0.0
C2051 C 0.71233 0.21226 0.10649 0.0
C2052 C 0.68185 0.18793 0.12507 0.0
C2053 C 0.65684 0.23115 0.13808 0.0
C2054 C 0.69594 0.17464 0.13968 0.0
C2055 C 0.68611 0.15709 0.15295 0.0
C2056 C 0.66206 0.15288 0.15198 0.0
C2057 C 0.6485 0.16418 0.13537 0.0
C2058 C 0.65852 0.18123 0.1215 0.0
H2059 H 0.65323 0.248 0.14625 0.0
H2060 H 0.64224 0.22723 0.12607 0.0
H2061 H 0.65701 0.21795 0.1519 0.0
H2062 H 0.71404 0.17928 0.14261 0.0
H2063 H 0.69678 0.14873 0.16588 0.0
loop_
_geom_bond_atom_site_label_1
_geom_bond_atom_site_label_2
_geom_bond_distance
_geom_bond_site_symmetry_2
_ccdc_geom_bond_type
Co0 O1 2.216 . S
Co0 O2 2.091 . S
Co0 O4 2.004 . S
Co0 O10 2.021 . S
Co0 O12 2.137 . S
Co0 O13 2.244 . S
O1 Co0 2.216 . S
O1 C8 1.247 . S
O2 Co0 2.091 . S
O2 C8 1.261 . S
C3 O12 1.247 . S
C3 O13 1.272 . S
O4 Co0 2.004 . S
O4 C9 1.259 . S
Co5 O6 2.061 . S
Co5 O11 2.052 . S
Co5 O13 2.135 . S
O6 Co5 2.061 . S
O6 C9 1.235 . S
C7 O10 1.238 . S
C7 O11 1.241 . S
C8 O1 1.247 . S
C8 O2 1.261 . S
C9 O4 1.259 . S
C9 O6 1.235 . S
O10 Co0 2.021 . S
O10 C7 1.238 . S
O11 Co5 2.052 . S
O11 C7 1.241 . S
O12 Co0 2.137 . S
O12 C3 1.247 . S
O13 Co0 2.244 . S
O13 C3 1.272 . S
O13 Co5 2.135 . S
Co14 O15 2.216 . S
Co14 O16 2.091 . S
Co14 O18 2.004 . S
Co14 O24 2.021 . S
Co14 O26 2.137 . S
Co14 O27 2.244 . S
O15 Co14 2.216 . S
O15 C22 1.247 . S
O16 Co14 2.091 . S
O16 C22 1.261 . S
C17 O26 1.247 . S
C17 O27 1.272 . S
O18 Co14 2.004 . S
O18 C23 1.259 . S
Co19 O20 2.061 . S
Co19 O25 2.052 . S
Co19 O27 2.135 . S
O20 Co19 2.061 . S
O20 C23 1.235 . S
C21 O24 1.238 . S
C21 O25 1.241 . S
C22 O15 1.247 . S
C22 O16 1.261 . S
C23 O18 1.259 . S
C23 O20 1.235 . S
O24 Co14 2.021 . S
O24 C21 1.238 . S
O25 Co19 2.052 . S
O25 C21 1.241 . S
O26 Co14 2.137 . S
O26 C17 1.247 . S
O27 Co14 2.244 . S
O27 C17 1.272 . S
O27 Co19 2.135 . S
Co28 O29 2.216 . S
Co28 O30 2.091 . S
Co28 O32 2.004 . S
Co28 O38 2.021 . S
Co28 O40 2.137 . S
Co28 O41 2.244 . S
O29 Co28 2.216 . S
O29 C36 1.247 . S
O30 Co28 2.091 . S
O30 C36 1.261 . S
C31 O40 1.247 . S
C31 O41 1.272 . S
O32 Co28 2.004 . S
O32 C37 1.259 . S
Co33 O34 2.061 . S
Co33 O39 2.052 . S
Co33 O41 2.135 . S
O34 Co33 2.061 . S
O34 C37 1.235 . S
C35 O38 1.238 . S
C35 O39 1.241 . S
C36 O29 1.247 . S
C36 O30 1.261 . S
C37 O32 1.259 . S
C37 O34 1.235 . S
O38 Co28 2.021 . S
O38 C35 1.238 . S
O39 Co33 2.052 . S
O39 C35 1.241 . S
O40 Co28 2.137 . S
O40 C31 1.247 . S
O41 Co28 2.244 . S
O41 C31 1.272 . S
O41 Co33 2.135 . S
Co42 O43 2.216 . S
Co42 O44 2.091 . S
Co42 O46 2.004 . S
Co42 O52 2.021 . S
Co42 O54 2.137 . S
Co42 O55 2.244 . S
O43 Co42 2.216 . S
O43 C50 1.247 . S
O44 Co42 2.091 . S
O44 C50 1.261 . S
C45 O54 1.247 . S
C45 O55 1.272 . S
O46 Co42 2.004 . S
O46 C51 1.259 . S
Co47 O48 2.061 . S
Co47 O53 2.052 . S
Co47 O55 2.135 . S
O48 Co47 2.061 . S
O48 C51 1.235 . S
C49 O52 1.238 . S
C49 O53 1.241 . S
C50 O43 1.247 . S
C50 O44 1.261 . S
C51 O46 1.259 . S
C51 O48 1.235 . S
O52 Co42 2.021 . S
O52 C49 1.238 . S
O53 Co47 2.052 . S
O53 C49 1.241 . S
O54 Co42 2.137 . S
O54 C45 1.247 . S
O55 Co42 2.244 . S
O55 C45 1.272 . S
O55 Co47 2.135 . S
Co56 O57 2.216 . S
Co56 O58 2.091 . S
Co56 O60 2.004 . S
Co56 O66 2.021 . S
Co56 O68 2.137 . S
Co56 O69 2.244 . S
O57 Co56 2.216 . S
O57 C64 1.247 . S
O58 Co56 2.091 . S
O58 C64 1.261 . S
C59 O68 1.247 . S
C59 O69 1.272 . S
O60 Co56 2.004 . S
O60 C65 1.259 . S
Co61 O62 2.061 . S
Co61 O67 2.052 . S
Co61 O69 2.135 . S
O62 Co61 2.061 . S
O62 C65 1.235 . S
C63 O66 1.238 . S
C63 O67 1.241 . S
C64 O57 1.247 . S
C64 O58 1.261 . S
C65 O60 1.259 . S
C65 O62 1.235 . S
O66 Co56 2.021 . S
O66 C63 1.238 . S
O67 Co61 2.052 . S
O67 C63 1.241 . S
O68 Co56 2.137 . S
O68 C59 1.247 . S
O69 Co56 2.244 . S
O69 C59 1.272 . S
O69 Co61 2.135 . S
Co70 O71 2.216 . S
Co70 O72 2.091 . S
Co70 O74 2.004 . S
Co70 O80 2.021 . S
Co70 O82 2.137 . S
Co70 O83 2.244 . S
O71 Co70 2.216 . S
O71 C78 1.247 . S
O72 Co70 2.091 . S
O72 C78 1.261 . S
C73 O82 1.247 . S
C73 O83 1.272 . S
O74 Co70 2.004 . S
O74 C79 1.259 . S
Co75 O76 2.061 . S
Co75 O81 2.052 . S
Co75 O83 2.135 . S
O76 Co75 2.061 . S
O76 C79 1.235 . S
C77 O80 1.238 . S
C77 O81 1.241 . S
C78 O71 1.247 . S
C78 O72 1.261 . S
C79 O74 1.259 . S
C79 O76 1.235 . S
O80 Co70 2.021 . S
O80 C77 1.238 . S
O81 Co75 2.052 . S
O81 C77 1.241 . S
O82 Co70 2.137 . S
O82 C73 1.247 . S
O83 Co70 2.244 . S
O83 C73 1.272 . S
O83 Co75 2.135 . S
Co84 O85 2.216 . S
Co84 O86 2.091 . S
Co84 O88 2.004 . S
Co84 O94 2.021 . S
Co84 O96 2.137 . S
Co84 O97 2.244 . S
O85 Co84 2.216 . S
O85 C92 1.247 . S
O86 Co84 2.091 . S
O86 C92 1.261 . S
C87 O96 1.247 . S
C87 O97 1.272 . S
O88 Co84 2.004 . S
O88 C93 1.259 . S
Co89 O90 2.061 . S
Co89 O95 2.052 . S
Co89 O97 2.135 . S
O90 Co89 2.061 . S
O90 C93 1.235 . S
C91 O94 1.238 . S
C91 O95 1.241 . S
C92 O85 1.247 . S
C92 O86 1.261 . S
C93 O88 1.259 . S
C93 O90 1.235 . S
O94 Co84 2.021 . S
O94 C91 1.238 . S
O95 Co89 2.052 . S
O95 C91 1.241 . S
O96 Co84 2.137 . S
O96 C87 1.247 . S
O97 Co84 2.244 . S
O97 C87 1.272 . S
O97 Co89 2.135 . S
Co98 O99 2.216 . S
Co98 O100 2.091 . S
Co98 O102 2.004 . S
Co98 O108 2.021 . S
Co98 O110 2.137 . S
Co98 O111 2.244 . S
O99 Co98 2.216 . S
O99 C106 1.247 . S
O100 Co98 2.091 . S
O100 C106 1.261 . S
C101 O110 1.247 . S
C101 O111 1.272 . S
O102 Co98 2.004 . S
O102 C107 1.259 . S
Co103 O104 2.061 . S
Co103 O109 2.052 . S
Co103 O111 2.135 . S
O104 Co103 2.061 . S
O104 C107 1.235 . S
C105 O108 1.238 . S
C105 O109 1.241 . S
C106 O99 1.247 . S
C106 O100 1.261 . S
C107 O102 1.259 . S
C107 O104 1.235 . S
O108 Co98 2.021 . S
O108 C105 1.238 . S
O109 Co103 2.052 . S
O109 C105 1.241 . S
O110 Co98 2.137 . S
O110 C101 1.247 . S
O111 Co98 2.244 . S
O111 C101 1.272 . S
O111 Co103 2.135 . S
Co112 O113 2.216 . S
Co112 O114 2.091 . S
Co112 O116 2.004 . S
Co112 O122 2.021 . S
Co112 O124 2.137 . S
Co112 O125 2.244 . S
O113 Co112 2.216 . S
O113 C120 1.247 . S
O114 Co112 2.091 . S
O114 C120 1.261 . S
C115 O124 1.247 . S
C115 O125 1.272 . S
O116 Co112 2.004 . S
O116 C121 1.259 . S
Co117 O118 2.061 . S
Co117 O123 2.052 . S
Co117 O125 2.135 . S
O118 Co117 2.061 . S
O118 C121 1.235 . S
C119 O122 1.238 . S
C119 O123 1.241 . S
C120 O113 1.247 . S
C120 O114 1.261 . S
C121 O116 1.259 . S
C121 O118 1.235 . S
O122 Co112 2.021 . S
O122 C119 1.238 . S
O123 Co117 2.052 . S
O123 C119 1.241 . S
O124 Co112 2.137 . S
O124 C115 1.247 . S
O125 Co112 2.244 . S
O125 C115 1.272 . S
O125 Co117 2.135 . S
Co126 O127 2.216 . S
Co126 O128 2.091 . S
Co126 O130 2.004 . S
Co126 O136 2.021 . S
Co126 O138 2.137 . S
Co126 O139 2.244 . S
O127 Co126 2.216 . S
O127 C134 1.247 . S
O128 Co126 2.091 . S
O128 C134 1.261 . S
C129 O138 1.247 . S
C129 O139 1.272 . S
O130 Co126 2.004 . S
O130 C135 1.259 . S
Co131 O132 2.061 . S
Co131 O137 2.052 . S
Co131 O139 2.135 . S
O132 Co131 2.061 . S
O132 C135 1.235 . S
C133 O136 1.238 . S
C133 O137 1.241 . S
C134 O127 1.247 . S
C134 O128 1.261 . S
C135 O130 1.259 . S
C135 O132 1.235 . S
O136 Co126 2.021 . S
O136 C133 1.238 . S
O137 Co131 2.052 . S
O137 C133 1.241 . S
O138 Co126 2.137 . S
O138 C129 1.247 . S
O139 Co126 2.244 . S
O139 C129 1.272 . S
O139 Co131 2.135 . S
Co140 O141 2.216 . S
Co140 O142 2.091 . S
Co140 O144 2.004 . S
Co140 O150 2.021 . S
Co140 O152 2.137 . S
Co140 O153 2.244 . S
O141 Co140 2.216 . S
O141 C148 1.247 . S
O142 Co140 2.091 . S
O142 C148 1.261 . S
C143 O152 1.247 . S
C143 O153 1.272 . S
O144 Co140 2.004 . S
O144 C149 1.259 . S
Co145 O146 2.061 . S
Co145 O151 2.052 . S
Co145 O153 2.135 . S
O146 Co145 2.061 . S
O146 C149 1.235 . S
C147 O150 1.238 . S
C147 O151 1.241 . S
C148 O141 1.247 . S
C148 O142 1.261 . S
C149 O144 1.259 . S
C149 O146 1.235 . S
O150 Co140 2.021 . S
O150 C147 1.238 . S
O151 Co145 2.052 . S
O151 C147 1.241 . S
O152 Co140 2.137 . S
O152 C143 1.247 . S
O153 Co140 2.244 . S
O153 C143 1.272 . S
O153 Co145 2.135 . S
Co154 O155 2.216 . S
Co154 O156 2.091 . S
Co154 O158 2.004 . S
Co154 O164 2.021 . S
Co154 O166 2.137 . S
Co154 O167 2.244 . S
O155 Co154 2.216 . S
O155 C162 1.247 . S
O156 Co154 2.091 . S
O156 C162 1.261 . S
C157 O166 1.247 . S
C157 O167 1.272 . S
O158 Co154 2.004 . S
O158 C163 1.259 . S
Co159 O160 2.061 . S
Co159 O165 2.052 . S
Co159 O167 2.135 . S
O160 Co159 2.061 . S
O160 C163 1.235 . S
C161 O164 1.238 . S
C161 O165 1.241 . S
C162 O155 1.247 . S
C162 O156 1.261 . S
C163 O158 1.259 . S
C163 O160 1.235 . S
O164 Co154 2.021 . S
O164 C161 1.238 . S
O165 Co159 2.052 . S
O165 C161 1.241 . S
O166 Co154 2.137 . S
O166 C157 1.247 . S
O167 Co154 2.244 . S
O167 C157 1.272 . S
O167 Co159 2.135 . S
Co168 O169 2.216 . S
Co168 O170 2.091 . S
Co168 O172 2.004 . S
Co168 O178 2.021 . S
Co168 O180 2.137 . S
Co168 O181 2.244 . S
O169 Co168 2.216 . S
O169 C176 1.247 . S
O170 Co168 2.091 . S
O170 C176 1.261 . S
C171 O180 1.247 . S
C171 O181 1.272 . S
O172 Co168 2.004 . S
O172 C177 1.259 . S
Co173 O174 2.061 . S
Co173 O179 2.052 . S
Co173 O181 2.135 . S
O174 Co173 2.061 . S
O174 C177 1.235 . S
C175 O178 1.238 . S
C175 O179 1.241 . S
C176 O169 1.247 . S
C176 O170 1.261 . S
C177 O172 1.259 . S
C177 O174 1.235 . S
O178 Co168 2.021 . S
O178 C175 1.238 . S
O179 Co173 2.052 . S
O179 C175 1.241 . S
O180 Co168 2.137 . S
O180 C171 1.247 . S
O181 Co168 2.244 . S
O181 C171 1.272 . S
O181 Co173 2.135 . S
Co182 O183 2.216 . S
Co182 O184 2.091 . S
Co182 O186 2.004 . S
Co182 O192 2.021 . S
Co182 O194 2.137 . S
Co182 O195 2.244 . S
O183 Co182 2.216 . S
O183 C190 1.247 . S
O184 Co182 2.091 . S
O184 C190 1.261 . S
C185 O194 1.247 . S
C185 O195 1.272 . S
O186 Co182 2.004 . S
O186 C191 1.259 . S
Co187 O188 2.061 . S
Co187 O193 2.052 . S
Co187 O195 2.135 . S
O188 Co187 2.061 . S
O188 C191 1.235 . S
C189 O192 1.238 . S
C189 O193 1.241 . S
C190 O183 1.247 . S
C190 O184 1.261 . S
C191 O186 1.259 . S
C191 O188 1.235 . S
O192 Co182 2.021 . S
O192 C189 1.238 . S
O193 Co187 2.052 . S
O193 C189 1.241 . S
O194 Co182 2.137 . S
O194 C185 1.247 . S
O195 Co182 2.244 . S
O195 C185 1.272 . S
O195 Co187 2.135 . S
Co196 O197 2.216 . S
Co196 O198 2.091 . S
Co196 O200 2.004 . S
Co196 O206 2.021 . S
Co196 O208 2.137 . S
Co196 O209 2.244 . S
O197 Co196 2.216 . S
O197 C204 1.247 . S
O198 Co196 2.091 . S
O198 C204 1.261 . S
C199 O208 1.247 . S
C199 O209 1.272 . S
O200 Co196 2.004 . S
O200 C205 1.259 . S
Co201 O202 2.061 . S
Co201 O207 2.052 . S
Co201 O209 2.135 . S
O202 Co201 2.061 . S
O202 C205 1.235 . S
C203 O206 1.238 . S
C203 O207 1.241 . S
C204 O197 1.247 . S
C204 O198 1.261 . S
C205 O200 1.259 . S
C205 O202 1.235 . S
O206 Co196 2.021 . S
O206 C203 1.238 . S
O207 Co201 2.052 . S
O207 C203 1.241 . S
O208 Co196 2.137 . S
O208 C199 1.247 . S
O209 Co196 2.244 . S
O209 C199 1.272 . S
O209 Co201 2.135 . S
Co210 O211 2.216 . S
Co210 O212 2.091 . S
Co210 O214 2.004 . S
Co210 O220 2.021 . S
Co210 O222 2.137 . S
Co210 O223 2.244 . S
O211 Co210 2.216 . S
O211 C218 1.247 . S
O212 Co210 2.091 . S
O212 C218 1.261 . S
C213 O222 1.247 . S
C213 O223 1.272 . S
O214 Co210 2.004 . S
O214 C219 1.259 . S
Co215 O216 2.061 . S
Co215 O221 2.052 . S
Co215 O223 2.135 . S
O216 Co215 2.061 . S
O216 C219 1.235 . S
C217 O220 1.238 . S
C217 O221 1.241 . S
C218 O211 1.247 . S
C218 O212 1.261 . S
C219 O214 1.259 . S
C219 O216 1.235 . S
O220 Co210 2.021 . S
O220 C217 1.238 . S
O221 Co215 2.052 . S
O221 C217 1.241 . S
O222 Co210 2.137 . S
O222 C213 1.247 . S
O223 Co210 2.244 . S
O223 C213 1.272 . S
O223 Co215 2.135 . S
Co224 O225 2.216 . S
Co224 O226 2.091 . S
Co224 O228 2.004 . S
Co224 O234 2.021 . S
Co224 O236 2.137 . S
Co224 O237 2.244 . S
O225 Co224 2.216 . S
O225 C232 1.247 . S
O226 Co224 2.091 . S
O226 C232 1.261 . S
C227 O236 1.247 . S
C227 O237 1.272 . S
O228 Co224 2.004 . S
O228 C233 1.259 . S
Co229 O230 2.061 . S
Co229 O235 2.052 . S
Co229 O237 2.135 . S
O230 Co229 2.061 . S
O230 C233 1.235 . S
C231 O234 1.238 . S
C231 O235 1.241 . S
C232 O225 1.247 . S
C232 O226 1.261 . S
C233 O228 1.259 . S
C233 O230 1.235 . S
O234 Co224 2.021 . S
O234 C231 1.238 . S
O235 Co229 2.052 . S
O235 C231 1.241 . S
O236 Co224 2.137 . S
O236 C227 1.247 . S
O237 Co224 2.244 . S
O237 C227 1.272 . S
O237 Co229 2.135 . S
Co238 O239 2.216 . S
Co238 O240 2.091 . S
Co238 O242 2.004 . S
Co238 O248 2.021 . S
Co238 O250 2.137 . S
Co238 O251 2.244 . S
O239 Co238 2.216 . S
O239 C246 1.247 . S
O240 Co238 2.091 . S
O240 C246 1.261 . S
C241 O250 1.247 . S
C241 O251 1.272 . S
O242 Co238 2.004 . S
O242 C247 1.259 . S
Co243 O244 2.061 . S
Co243 O249 2.052 . S
Co243 O251 2.135 . S
O244 Co243 2.061 . S
O244 C247 1.235 . S
C245 O248 1.238 . S
C245 O249 1.241 . S
C246 O239 1.247 . S
C246 O240 1.261 . S
C247 O242 1.259 . S
C247 O244 1.235 . S
O248 Co238 2.021 . S
O248 C245 1.238 . S
O249 Co243 2.052 . S
O249 C245 1.241 . S
O250 Co238 2.137 . S
O250 C241 1.247 . S
O251 Co238 2.244 . S
O251 C241 1.272 . S
O251 Co243 2.135 . S
Co252 O253 2.216 . S
Co252 O254 2.091 . S
Co252 O256 2.004 . S
Co252 O262 2.021 . S
Co252 O264 2.137 . S
Co252 O265 2.244 . S
O253 Co252 2.216 . S
O253 C260 1.247 . S
O254 Co252 2.091 . S
O254 C260 1.261 . S
C255 O264 1.247 . S
C255 O265 1.272 . S
O256 Co252 2.004 . S
O256 C261 1.259 . S
Co257 O258 2.061 . S
Co257 O263 2.052 . S
Co257 O265 2.135 . S
O258 Co257 2.061 . S
O258 C261 1.235 . S
C259 O262 1.238 . S
C259 O263 1.241 . S
C260 O253 1.247 . S
C260 O254 1.261 . S
C261 O256 1.259 . S
C261 O258 1.235 . S
O262 Co252 2.021 . S
O262 C259 1.238 . S
O263 Co257 2.052 . S
O263 C259 1.241 . S
O264 Co252 2.137 . S
O264 C255 1.247 . S
O265 Co252 2.244 . S
O265 C255 1.272 . S
O265 Co257 2.135 . S
Co266 O267 2.216 . S
Co266 O268 2.091 . S
Co266 O270 2.004 . S
Co266 O276 2.021 . S
Co266 O278 2.137 . S
Co266 O279 2.244 . S
O267 Co266 2.216 . S
O267 C274 1.247 . S
O268 Co266 2.091 . S
O268 C274 1.261 . S
C269 O278 1.247 . S
C269 O279 1.272 . S
O270 Co266 2.004 . S
O270 C275 1.259 . S
Co271 O272 2.061 . S
Co271 O277 2.052 . S
Co271 O279 2.135 . S
O272 Co271 2.061 . S
O272 C275 1.235 . S
C273 O276 1.238 . S
C273 O277 1.241 . S
C274 O267 1.247 . S
C274 O268 1.261 . S
C275 O270 1.259 . S
C275 O272 1.235 . S
O276 Co266 2.021 . S
O276 C273 1.238 . S
O277 Co271 2.052 . S
O277 C273 1.241 . S
O278 Co266 2.137 . S
O278 C269 1.247 . S
O279 Co266 2.244 . S
O279 C269 1.272 . S
O279 Co271 2.135 . S
Co280 O281 2.216 . S
Co280 O282 2.091 . S
Co280 O284 2.004 . S
Co280 O290 2.021 . S
Co280 O292 2.137 . S
Co280 O293 2.244 . S
O281 Co280 2.216 . S
O281 C288 1.247 . S
O282 Co280 2.091 . S
O282 C288 1.261 . S
C283 O292 1.247 . S
C283 O293 1.272 . S
O284 Co280 2.004 . S
O284 C289 1.259 . S
Co285 O286 2.061 . S
Co285 O291 2.052 . S
Co285 O293 2.135 . S
O286 Co285 2.061 . S
O286 C289 1.235 . S
C287 O290 1.238 . S
C287 O291 1.241 . S
C288 O281 1.247 . S
C288 O282 1.261 . S
C289 O284 1.259 . S
C289 O286 1.235 . S
O290 Co280 2.021 . S
O290 C287 1.238 . S
O291 Co285 2.052 . S
O291 C287 1.241 . S
O292 Co280 2.137 . S
O292 C283 1.247 . S
O293 Co280 2.244 . S
O293 C283 1.272 . S
O293 Co285 2.135 . S
Co294 O295 2.216 . S
Co294 O296 2.091 . S
Co294 O298 2.004 . S
Co294 O304 2.021 . S
Co294 O306 2.137 . S
Co294 O307 2.244 . S
O295 Co294 2.216 . S
O295 C302 1.247 . S
O296 Co294 2.091 . S
O296 C302 1.261 . S
C297 O306 1.247 . S
C297 O307 1.272 . S
O298 Co294 2.004 . S
O298 C303 1.259 . S
Co299 O300 2.061 . S
Co299 O305 2.052 . S
Co299 O307 2.135 . S
O300 Co299 2.061 . S
O300 C303 1.235 . S
C301 O304 1.238 . S
C301 O305 1.241 . S
C302 O295 1.247 . S
C302 O296 1.261 . S
C303 O298 1.259 . S
C303 O300 1.235 . S
O304 Co294 2.021 . S
O304 C301 1.238 . S
O305 Co299 2.052 . S
O305 C301 1.241 . S
O306 Co294 2.137 . S
O306 C297 1.247 . S
O307 Co294 2.244 . S
O307 C297 1.272 . S
O307 Co299 2.135 . S
Co308 O309 2.216 . S
Co308 O310 2.091 . S
Co308 O312 2.004 . S
Co308 O318 2.021 . S
Co308 O320 2.137 . S
Co308 O321 2.244 . S
O309 Co308 2.216 . S
O309 C316 1.247 . S
O310 Co308 2.091 . S
O310 C316 1.261 . S
C311 O320 1.247 . S
C311 O321 1.272 . S
O312 Co308 2.004 . S
O312 C317 1.259 . S
Co313 O314 2.061 . S
Co313 O319 2.052 . S
Co313 O321 2.135 . S
O314 Co313 2.061 . S
O314 C317 1.235 . S
C315 O318 1.238 . S
C315 O319 1.241 . S
C316 O309 1.247 . S
C316 O310 1.261 . S
C317 O312 1.259 . S
C317 O314 1.235 . S
O318 Co308 2.021 . S
O318 C315 1.238 . S
O319 Co313 2.052 . S
O319 C315 1.241 . S
O320 Co308 2.137 . S
O320 C311 1.247 . S
O321 Co308 2.244 . S
O321 C311 1.272 . S
O321 Co313 2.135 . S
Co322 O323 2.216 . S
Co322 O324 2.091 . S
Co322 O326 2.004 . S
Co322 O332 2.021 . S
Co322 O334 2.137 . S
Co322 O335 2.244 . S
O323 Co322 2.216 . S
O323 C330 1.247 . S
O324 Co322 2.091 . S
O324 C330 1.261 . S
C325 O334 1.247 . S
C325 O335 1.272 . S
O326 Co322 2.004 . S
O326 C331 1.259 . S
Co327 O328 2.061 . S
Co327 O333 2.052 . S
Co327 O335 2.135 . S
O328 Co327 2.061 . S
O328 C331 1.235 . S
C329 O332 1.238 . S
C329 O333 1.241 . S
C330 O323 1.247 . S
C330 O324 1.261 . S
C331 O326 1.259 . S
C331 O328 1.235 . S
O332 Co322 2.021 . S
O332 C329 1.238 . S
O333 Co327 2.052 . S
O333 C329 1.241 . S
O334 Co322 2.137 . S
O334 C325 1.247 . S
O335 Co322 2.244 . S
O335 C325 1.272 . S
O335 Co327 2.135 . S
H336 C344 0.929 . S
H337 C346 0.930 . S
H338 C348 0.930 . S
H339 C351 0.929 . S
H340 C354 0.930 . S
H341 C356 0.960 . S
H342 C356 0.960 . S
H343 C356 0.960 . S
C344 H336 0.929 . S
C344 C345 1.377 . S
C344 C346 1.384 . S
C345 C344 1.377 . S
C345 C351 1.390 . S
C346 H337 0.930 . S
C346 C344 1.384 . S
C346 C347 1.372 . S
C347 C346 1.372 . S
C347 C348 1.400 . S
C347 C352 1.490 . S
C348 H338 0.930 . S
C348 C347 1.400 . S
C348 C351 1.386 . S
H349 C365 0.930 . S
H350 C366 0.931 . S
C351 H339 0.929 . S
C351 C345 1.390 . S
C351 C348 1.386 . S
C352 C347 1.490 . S
C352 C354 1.395 . S
C352 C355 1.403 . S
H353 C359 0.930 . S
C354 H340 0.930 . S
C354 C352 1.395 . S
C354 C357 1.403 . S
C355 C352 1.403 . S
C355 C356 1.524 . S
C355 C359 1.400 . S
C356 H341 0.960 . S
C356 H342 0.960 . S
C356 H343 0.960 . S
C356 C355 1.524 . S
C357 C354 1.403 . S
C357 C358 1.392 . S
C357 C361 1.495 . S
C358 C357 1.392 . S
C358 C359 1.385 . S
C358 C360 1.478 . S
C359 H353 0.930 . S
C359 C355 1.400 . S
C359 C358 1.385 . S
C360 C358 1.478 . S
C360 C362 1.381 . S
C360 C366 1.383 . S
C361 C357 1.495 . S
C361 H367 0.959 . S
C361 H368 0.961 . S
C361 H369 0.960 . S
C362 C360 1.381 . S
C362 C363 1.394 . S
C362 H370 0.930 . S
C363 C362 1.394 . S
C363 C364 1.383 . S
C363 H371 0.929 . S
C364 C363 1.383 . S
C364 C365 1.377 . S
C365 H349 0.930 . S
C365 C364 1.377 . S
C365 C366 1.379 . S
C366 H350 0.931 . S
C366 C360 1.383 . S
C366 C365 1.379 . S
H367 C361 0.959 . S
H368 C361 0.961 . S
H369 C361 0.960 . S
H370 C362 0.930 . S
H371 C363 0.929 . S
H372 C380 0.929 . S
H373 C382 0.930 . S
H374 C384 0.930 . S
H375 C387 0.929 . S
H376 C390 0.930 . S
H377 C392 0.960 . S
H378 C392 0.960 . S
H379 C392 0.960 . S
C380 H372 0.929 . S
C380 C381 1.377 . S
C380 C382 1.384 . S
C381 C380 1.377 . S
C381 C387 1.390 . S
C382 H373 0.930 . S
C382 C380 1.384 . S
C382 C383 1.372 . S
C383 C382 1.372 . S
C383 C384 1.400 . S
C383 C388 1.490 . S
C384 H374 0.930 . S
C384 C383 1.400 . S
C384 C387 1.386 . S
H385 C401 0.930 . S
H386 C402 0.931 . S
C387 H375 0.929 . S
C387 C381 1.390 . S
C387 C384 1.386 . S
C388 C383 1.490 . S
C388 C390 1.395 . S
C388 C391 1.403 . S
H389 C395 0.930 . S
C390 H376 0.930 . S
C390 C388 1.395 . S
C390 C393 1.403 . S
C391 C388 1.403 . S
C391 C392 1.524 . S
C391 C395 1.400 . S
C392 H377 0.960 . S
C392 H378 0.960 . S
C392 H379 0.960 . S
C392 C391 1.524 . S
C393 C390 1.403 . S
C393 C394 1.392 . S
C393 C397 1.495 . S
C394 C393 1.392 . S
C394 C395 1.385 . S
C394 C396 1.478 . S
C395 H389 0.930 . S
C395 C391 1.400 . S
C395 C394 1.385 . S
C396 C394 1.478 . S
C396 C398 1.381 . S
C396 C402 1.383 . S
C397 C393 1.495 . S
C397 H403 0.959 . S
C397 H404 0.961 . S
C397 H405 0.960 . S
C398 C396 1.381 . S
C398 C399 1.394 . S
C398 H406 0.930 . S
C399 C398 1.394 . S
C399 C400 1.383 . S
C399 H407 0.929 . S
C400 C399 1.383 . S
C400 C401 1.377 . S
C401 H385 0.930 . S
C401 C400 1.377 . S
C401 C402 1.379 . S
C402 H386 0.931 . S
C402 C396 1.383 . S
C402 C401 1.379 . S
H403 C397 0.959 . S
H404 C397 0.961 . S
H405 C397 0.960 . S
H406 C398 0.930 . S
H407 C399 0.929 . S
H408 C416 0.929 . S
H409 C418 0.930 . S
H410 C420 0.930 . S
H411 C423 0.929 . S
H412 C426 0.930 . S
H413 C428 0.960 . S
H414 C428 0.960 . S
H415 C428 0.960 . S
C416 H408 0.929 . S
C416 C417 1.377 . S
C416 C418 1.384 . S
C417 C416 1.377 . S
C417 C423 1.390 . S
C418 H409 0.930 . S
C418 C416 1.384 . S
C418 C419 1.372 . S
C419 C418 1.372 . S
C419 C420 1.400 . S
C419 C424 1.490 . S
C420 H410 0.930 . S
C420 C419 1.400 . S
C420 C423 1.386 . S
H421 C437 0.930 . S
H422 C438 0.931 . S
C423 H411 0.929 . S
C423 C417 1.390 . S
C423 C420 1.386 . S
C424 C419 1.490 . S
C424 C426 1.395 . S
C424 C427 1.403 . S
H425 C431 0.930 . S
C426 H412 0.930 . S
C426 C424 1.395 . S
C426 C429 1.403 . S
C427 C424 1.403 . S
C427 C428 1.524 . S
C427 C431 1.400 . S
C428 H413 0.960 . S
C428 H414 0.960 . S
C428 H415 0.960 . S
C428 C427 1.524 . S
C429 C426 1.403 . S
C429 C430 1.392 . S
C429 C433 1.495 . S
C430 C429 1.392 . S
C430 C431 1.385 . S
C430 C432 1.478 . S
C431 H425 0.930 . S
C431 C427 1.400 . S
C431 C430 1.385 . S
C432 C430 1.478 . S
C432 C434 1.381 . S
C432 C438 1.383 . S
C433 C429 1.495 . S
C433 H439 0.959 . S
C433 H440 0.961 . S
C433 H441 0.960 . S
C434 C432 1.381 . S
C434 C435 1.394 . S
C434 H442 0.930 . S
C435 C434 1.394 . S
C435 C436 1.383 . S
C435 H443 0.929 . S
C436 C435 1.383 . S
C436 C437 1.377 . S
C437 H421 0.930 . S
C437 C436 1.377 . S
C437 C438 1.379 . S
C438 H422 0.931 . S
C438 C432 1.383 . S
C438 C437 1.379 . S
H439 C433 0.959 . S
H440 C433 0.961 . S
H441 C433 0.960 . S
H442 C434 0.930 . S
H443 C435 0.929 . S
H444 C452 0.929 . S
H445 C454 0.930 . S
H446 C456 0.930 . S
H447 C459 0.929 . S
H448 C462 0.930 . S
H449 C464 0.960 . S
H450 C464 0.960 . S
H451 C464 0.960 . S
C452 H444 0.929 . S
C452 C453 1.377 . S
C452 C454 1.384 . S
C453 C452 1.377 . S
C453 C459 1.390 . S
C454 H445 0.930 . S
C454 C452 1.384 . S
C454 C455 1.372 . S
C455 C454 1.372 . S
C455 C456 1.400 . S
C455 C460 1.490 . S
C456 H446 0.930 . S
C456 C455 1.400 . S
C456 C459 1.386 . S
H457 C473 0.930 . S
H458 C474 0.931 . S
C459 H447 0.929 . S
C459 C453 1.390 . S
C459 C456 1.386 . S
C460 C455 1.490 . S
C460 C462 1.395 . S
C460 C463 1.403 . S
H461 C467 0.930 . S
C462 H448 0.930 . S
C462 C460 1.395 . S
C462 C465 1.403 . S
C463 C460 1.403 . S
C463 C464 1.524 . S
C463 C467 1.400 . S
C464 H449 0.960 . S
C464 H450 0.960 . S
C464 H451 0.960 . S
C464 C463 1.524 . S
C465 C462 1.403 . S
C465 C466 1.392 . S
C465 C469 1.495 . S
C466 C465 1.392 . S
C466 C467 1.385 . S
C466 C468 1.478 . S
C467 H461 0.930 . S
C467 C463 1.400 . S
C467 C466 1.385 . S
C468 C466 1.478 . S
C468 C470 1.381 . S
C468 C474 1.383 . S
C469 C465 1.495 . S
C469 H475 0.959 . S
C469 H476 0.961 . S
C469 H477 0.960 . S
C470 C468 1.381 . S
C470 C471 1.394 . S
C470 H478 0.930 . S
C471 C470 1.394 . S
C471 C472 1.383 . S
C471 H479 0.929 . S
C472 C471 1.383 . S
C472 C473 1.377 . S
C473 H457 0.930 . S
C473 C472 1.377 . S
C473 C474 1.379 . S
C474 H458 0.931 . S
C474 C468 1.383 . S
C474 C473 1.379 . S
H475 C469 0.959 . S
H476 C469 0.961 . S
H477 C469 0.960 . S
H478 C470 0.930 . S
H479 C471 0.929 . S
H480 C488 0.929 . S
H481 C490 0.930 . S
H482 C492 0.930 . S
H483 C495 0.929 . S
H484 C498 0.930 . S
H485 C500 0.960 . S
H486 C500 0.960 . S
H487 C500 0.960 . S
C488 H480 0.929 . S
C488 C489 1.377 . S
C488 C490 1.384 . S
C489 C488 1.377 . S
C489 C495 1.390 . S
C490 H481 0.930 . S
C490 C488 1.384 . S
C490 C491 1.372 . S
C491 C490 1.372 . S
C491 C492 1.400 . S
C491 C496 1.490 . S
C492 H482 0.930 . S
C492 C491 1.400 . S
C492 C495 1.386 . S
H493 C509 0.930 . S
H494 C510 0.931 . S
C495 H483 0.929 . S
C495 C489 1.390 . S
C495 C492 1.386 . S
C496 C491 1.490 . S
C496 C498 1.395 . S
C496 C499 1.403 . S
H497 C503 0.930 . S
C498 H484 0.930 . S
C498 C496 1.395 . S
C498 C501 1.403 . S
C499 C496 1.403 . S
C499 C500 1.524 . S
C499 C503 1.400 . S
C500 H485 0.960 . S
C500 H486 0.960 . S
C500 H487 0.960 . S
C500 C499 1.524 . S
C501 C498 1.403 . S
C501 C502 1.392 . S
C501 C505 1.495 . S
C502 C501 1.392 . S
C502 C503 1.385 . S
C502 C504 1.478 . S
C503 H497 0.930 . S
C503 C499 1.400 . S
C503 C502 1.385 . S
C504 C502 1.478 . S
C504 C506 1.381 . S
C504 C510 1.383 . S
C505 C501 1.495 . S
C505 H511 0.959 . S
C505 H512 0.961 . S
C505 H513 0.960 . S
C506 C504 1.381 . S
C506 C507 1.394 . S
C506 H514 0.930 . S
C507 C506 1.394 . S
C507 C508 1.383 . S
C507 H515 0.929 . S
C508 C507 1.383 . S
C508 C509 1.377 . S
C509 H493 0.930 . S
C509 C508 1.377 . S
C509 C510 1.379 . S
C510 H494 0.931 . S
C510 C504 1.383 . S
C510 C509 1.379 . S
H511 C505 0.959 . S
H512 C505 0.961 . S
H513 C505 0.960 . S
H514 C506 0.930 . S
H515 C507 0.929 . S
H516 C524 0.929 . S
H517 C526 0.930 . S
H518 C528 0.930 . S
H519 C531 0.929 . S
H520 C534 0.930 . S
H521 C536 0.960 . S
H522 C536 0.960 . S
H523 C536 0.960 . S
C524 H516 0.929 . S
C524 C525 1.377 . S
C524 C526 1.384 . S
C525 C524 1.377 . S
C525 C531 1.390 . S
C526 H517 0.930 . S
C526 C524 1.384 . S
C526 C527 1.372 . S
C527 C526 1.372 . S
C527 C528 1.400 . S
C527 C532 1.490 . S
C528 H518 0.930 . S
C528 C527 1.400 . S
C528 C531 1.386 . S
H529 C545 0.930 . S
H530 C546 0.931 . S
C531 H519 0.929 . S
C531 C525 1.390 . S
C531 C528 1.386 . S
C532 C527 1.490 . S
C532 C534 1.395 . S
C532 C535 1.403 . S
H533 C539 0.930 . S
C534 H520 0.930 . S
C534 C532 1.395 . S
C534 C537 1.403 . S
C535 C532 1.403 . S
C535 C536 1.524 . S
C535 C539 1.400 . S
C536 H521 0.960 . S
C536 H522 0.960 . S
C536 H523 0.960 . S
C536 C535 1.524 . S
C537 C534 1.403 . S
C537 C538 1.392 . S
C537 C541 1.495 . S
C538 C537 1.392 . S
C538 C539 1.385 . S
C538 C540 1.478 . S
C539 H533 0.930 . S
C539 C535 1.400 . S
C539 C538 1.385 . S
C540 C538 1.478 . S
C540 C542 1.381 . S
C540 C546 1.383 . S
C541 C537 1.495 . S
C541 H547 0.959 . S
C541 H548 0.961 . S
C541 H549 0.960 . S
C542 C540 1.381 . S
C542 C543 1.394 . S
C542 H550 0.930 . S
C543 C542 1.394 . S
C543 C544 1.383 . S
C543 H551 0.929 . S
C544 C543 1.383 . S
C544 C545 1.377 . S
C545 H529 0.930 . S
C545 C544 1.377 . S
C545 C546 1.379 . S
C546 H530 0.931 . S
C546 C540 1.383 . S
C546 C545 1.379 . S
H547 C541 0.959 . S
H548 C541 0.961 . S
H549 C541 0.960 . S
H550 C542 0.930 . S
H551 C543 0.929 . S
H552 C560 0.929 . S
H553 C562 0.930 . S
H554 C564 0.930 . S
H555 C567 0.929 . S
H556 C570 0.930 . S
H557 C572 0.960 . S
H558 C572 0.960 . S
H559 C572 0.960 . S
C560 H552 0.929 . S
C560 C561 1.377 . S
C560 C562 1.384 . S
C561 C560 1.377 . S
C561 C567 1.390 . S
C562 H553 0.930 . S
C562 C560 1.384 . S
C562 C563 1.372 . S
C563 C562 1.372 . S
C563 C564 1.400 . S
C563 C568 1.490 . S
C564 H554 0.930 . S
C564 C563 1.400 . S
C564 C567 1.386 . S
H565 C581 0.930 . S
H566 C582 0.931 . S
C567 H555 0.929 . S
C567 C561 1.390 . S
C567 C564 1.386 . S
C568 C563 1.490 . S
C568 C570 1.395 . S
C568 C571 1.403 . S
H569 C575 0.930 . S
C570 H556 0.930 . S
C570 C568 1.395 . S
C570 C573 1.403 . S
C571 C568 1.403 . S
C571 C572 1.524 . S
C571 C575 1.400 . S
C572 H557 0.960 . S
C572 H558 0.960 . S
C572 H559 0.960 . S
C572 C571 1.524 . S
C573 C570 1.403 . S
C573 C574 1.392 . S
C573 C577 1.495 . S
C574 C573 1.392 . S
C574 C575 1.385 . S
C574 C576 1.478 . S
C575 H569 0.930 . S
C575 C571 1.400 . S
C575 C574 1.385 . S
C576 C574 1.478 . S
C576 C578 1.381 . S
C576 C582 1.383 . S
C577 C573 1.495 . S
C577 H583 0.959 . S
C577 H584 0.961 . S
C577 H585 0.960 . S
C578 C576 1.381 . S
C578 C579 1.394 . S
C578 H586 0.930 . S
C579 C578 1.394 . S
C579 C580 1.383 . S
C579 H587 0.929 . S
C580 C579 1.383 . S
C580 C581 1.377 . S
C581 H565 0.930 . S
C581 C580 1.377 . S
C581 C582 1.379 . S
C582 H566 0.931 . S
C582 C576 1.383 . S
C582 C581 1.379 . S
H583 C577 0.959 . S
H584 C577 0.961 . S
H585 C577 0.960 . S
H586 C578 0.930 . S
H587 C579 0.929 . S
H588 C596 0.929 . S
H589 C598 0.930 . S
H590 C600 0.930 . S
H591 C603 0.929 . S
H592 C606 0.930 . S
H593 C608 0.960 . S
H594 C608 0.960 . S
H595 C608 0.960 . S
C596 H588 0.929 . S
C596 C597 1.377 . S
C596 C598 1.384 . S
C597 C596 1.377 . S
C597 C603 1.390 . S
C598 H589 0.930 . S
C598 C596 1.384 . S
C598 C599 1.372 . S
C599 C598 1.372 . S
C599 C600 1.400 . S
C599 C604 1.490 . S
C600 H590 0.930 . S
C600 C599 1.400 . S
C600 C603 1.386 . S
H601 C617 0.930 . S
H602 C618 0.931 . S
C603 H591 0.929 . S
C603 C597 1.390 . S
C603 C600 1.386 . S
C604 C599 1.490 . S
C604 C606 1.395 . S
C604 C607 1.403 . S
H605 C611 0.930 . S
C606 H592 0.930 . S
C606 C604 1.395 . S
C606 C609 1.403 . S
C607 C604 1.403 . S
C607 C608 1.524 . S
C607 C611 1.400 . S
C608 H593 0.960 . S
C608 H594 0.960 . S
C608 H595 0.960 . S
C608 C607 1.524 . S
C609 C606 1.403 . S
C609 C610 1.392 . S
C609 C613 1.495 . S
C610 C609 1.392 . S
C610 C611 1.385 . S
C610 C612 1.478 . S
C611 H605 0.930 . S
C611 C607 1.400 . S
C611 C610 1.385 . S
C612 C610 1.478 . S
C612 C614 1.381 . S
C612 C618 1.383 . S
C613 C609 1.495 . S
C613 H619 0.959 . S
C613 H620 0.961 . S
C613 H621 0.960 . S
C614 C612 1.381 . S
C614 C615 1.394 . S
C614 H622 0.930 . S
C615 C614 1.394 . S
C615 C616 1.383 . S
C615 H623 0.929 . S
C616 C615 1.383 . S
C616 C617 1.377 . S
C617 H601 0.930 . S
C617 C616 1.377 . S
C617 C618 1.379 . S
C618 H602 0.931 . S
C618 C612 1.383 . S
C618 C617 1.379 . S
H619 C613 0.959 . S
H620 C613 0.961 . S
H621 C613 0.960 . S
H622 C614 0.930 . S
H623 C615 0.929 . S
H624 C632 0.929 . S
H625 C634 0.930 . S
H626 C636 0.930 . S
H627 C639 0.929 . S
H628 C642 0.930 . S
H629 C644 0.960 . S
H630 C644 0.960 . S
H631 C644 0.960 . S
C632 H624 0.929 . S
C632 C633 1.377 . S
C632 C634 1.384 . S
C633 C632 1.377 . S
C633 C639 1.390 . S
C634 H625 0.930 . S
C634 C632 1.384 . S
C634 C635 1.372 . S
C635 C634 1.372 . S
C635 C636 1.400 . S
C635 C640 1.490 . S
C636 H626 0.930 . S
C636 C635 1.400 . S
C636 C639 1.386 . S
H637 C653 0.930 . S
H638 C654 0.931 . S
C639 H627 0.929 . S
C639 C633 1.390 . S
C639 C636 1.386 . S
C640 C635 1.490 . S
C640 C642 1.395 . S
C640 C643 1.403 . S
H641 C647 0.930 . S
C642 H628 0.930 . S
C642 C640 1.395 . S
C642 C645 1.403 . S
C643 C640 1.403 . S
C643 C644 1.524 . S
C643 C647 1.400 . S
C644 H629 0.960 . S
C644 H630 0.960 . S
C644 H631 0.960 . S
C644 C643 1.524 . S
C645 C642 1.403 . S
C645 C646 1.392 . S
C645 C649 1.495 . S
C646 C645 1.392 . S
C646 C647 1.385 . S
C646 C648 1.478 . S
C647 H641 0.930 . S
C647 C643 1.400 . S
C647 C646 1.385 . S
C648 C646 1.478 . S
C648 C650 1.381 . S
C648 C654 1.383 . S
C649 C645 1.495 . S
C649 H655 0.959 . S
C649 H656 0.961 . S
C649 H657 0.960 . S
C650 C648 1.381 . S
C650 C651 1.394 . S
C650 H658 0.930 . S
C651 C650 1.394 . S
C651 C652 1.383 . S
C651 H659 0.929 . S
C652 C651 1.383 . S
C652 C653 1.377 . S
C653 H637 0.930 . S
C653 C652 1.377 . S
C653 C654 1.379 . S
C654 H638 0.931 . S
C654 C648 1.383 . S
C654 C653 1.379 . S
H655 C649 0.959 . S
H656 C649 0.961 . S
H657 C649 0.960 . S
H658 C650 0.930 . S
H659 C651 0.929 . S
H660 C668 0.929 . S
H661 C670 0.930 . S
H662 C672 0.930 . S
H663 C675 0.929 . S
H664 C678 0.930 . S
H665 C680 0.960 . S
H666 C680 0.960 . S
H667 C680 0.960 . S
C668 H660 0.929 . S
C668 C669 1.377 . S
C668 C670 1.384 . S
C669 C668 1.377 . S
C669 C675 1.390 . S
C670 H661 0.930 . S
C670 C668 1.384 . S
C670 C671 1.372 . S
C671 C670 1.372 . S
C671 C672 1.400 . S
C671 C676 1.490 . S
C672 H662 0.930 . S
C672 C671 1.400 . S
C672 C675 1.386 . S
H673 C689 0.930 . S
H674 C690 0.931 . S
C675 H663 0.929 . S
C675 C669 1.390 . S
C675 C672 1.386 . S
C676 C671 1.490 . S
C676 C678 1.395 . S
C676 C679 1.403 . S
H677 C683 0.930 . S
C678 H664 0.930 . S
C678 C676 1.395 . S
C678 C681 1.403 . S
C679 C676 1.403 . S
C679 C680 1.524 . S
C679 C683 1.400 . S
C680 H665 0.960 . S
C680 H666 0.960 . S
C680 H667 0.960 . S
C680 C679 1.524 . S
C681 C678 1.403 . S
C681 C682 1.392 . S
C681 C685 1.495 . S
C682 C681 1.392 . S
C682 C683 1.385 . S
C682 C684 1.478 . S
C683 H677 0.930 . S
C683 C679 1.400 . S
C683 C682 1.385 . S
C684 C682 1.478 . S
C684 C686 1.381 . S
C684 C690 1.383 . S
C685 C681 1.495 . S
C685 H691 0.959 . S
C685 H692 0.961 . S
C685 H693 0.960 . S
C686 C684 1.381 . S
C686 C687 1.394 . S
C686 H694 0.930 . S
C687 C686 1.394 . S
C687 C688 1.383 . S
C687 H695 0.929 . S
C688 C687 1.383 . S
C688 C689 1.377 . S
C689 H673 0.930 . S
C689 C688 1.377 . S
C689 C690 1.379 . S
C690 H674 0.931 . S
C690 C684 1.383 . S
C690 C689 1.379 . S
H691 C685 0.959 . S
H692 C685 0.961 . S
H693 C685 0.960 . S
H694 C686 0.930 . S
H695 C687 0.929 . S
H696 C704 0.929 . S
H697 C706 0.930 . S
H698 C708 0.930 . S
H699 C711 0.929 . S
H700 C714 0.930 . S
H701 C716 0.960 . S
H702 C716 0.960 . S
H703 C716 0.960 . S
C704 H696 0.929 . S
C704 C705 1.377 . S
C704 C706 1.384 . S
C705 C704 1.377 . S
C705 C711 1.390 . S
C706 H697 0.930 . S
C706 C704 1.384 . S
C706 C707 1.372 . S
C707 C706 1.372 . S
C707 C708 1.400 . S
C707 C712 1.490 . S
C708 H698 0.930 . S
C708 C707 1.400 . S
C708 C711 1.386 . S
H709 C725 0.930 . S
H710 C726 0.931 . S
C711 H699 0.929 . S
C711 C705 1.390 . S
C711 C708 1.386 . S
C712 C707 1.490 . S
C712 C714 1.395 . S
C712 C715 1.403 . S
H713 C719 0.930 . S
C714 H700 0.930 . S
C714 C712 1.395 . S
C714 C717 1.403 . S
C715 C712 1.403 . S
C715 C716 1.524 . S
C715 C719 1.400 . S
C716 H701 0.960 . S
C716 H702 0.960 . S
C716 H703 0.960 . S
C716 C715 1.524 . S
C717 C714 1.403 . S
C717 C718 1.392 . S
C717 C721 1.495 . S
C718 C717 1.392 . S
C718 C719 1.385 . S
C718 C720 1.478 . S
C719 H713 0.930 . S
C719 C715 1.400 . S
C719 C718 1.385 . S
C720 C718 1.478 . S
C720 C722 1.381 . S
C720 C726 1.383 . S
C721 C717 1.495 . S
C721 H727 0.959 . S
C721 H728 0.961 . S
C721 H729 0.960 . S
C722 C720 1.381 . S
C722 C723 1.394 . S
C722 H730 0.930 . S
C723 C722 1.394 . S
C723 C724 1.383 . S
C723 H731 0.929 . S
C724 C723 1.383 . S
C724 C725 1.377 . S
C725 H709 0.930 . S
C725 C724 1.377 . S
C725 C726 1.379 . S
C726 H710 0.931 . S
C726 C720 1.383 . S
C726 C725 1.379 . S
H727 C721 0.959 . S
H728 C721 0.961 . S
H729 C721 0.960 . S
H730 C722 0.930 . S
H731 C723 0.929 . S
H732 C740 0.929 . S
H733 C742 0.930 . S
H734 C744 0.930 . S
H735 C747 0.929 . S
H736 C750 0.930 . S
H737 C752 0.960 . S
H738 C752 0.960 . S
H739 C752 0.960 . S
C740 H732 0.929 . S
C740 C741 1.377 . S
C740 C742 1.384 . S
C741 C740 1.377 . S
C741 C747 1.390 . S
C742 H733 0.930 . S
C742 C740 1.384 . S
C742 C743 1.372 . S
C743 C742 1.372 . S
C743 C744 1.400 . S
C743 C748 1.490 . S
C744 H734 0.930 . S
C744 C743 1.400 . S
C744 C747 1.386 . S
H745 C761 0.930 . S
H746 C762 0.931 . S
C747 H735 0.929 . S
C747 C741 1.390 . S
C747 C744 1.386 . S
C748 C743 1.490 . S
C748 C750 1.395 . S
C748 C751 1.403 . S
H749 C755 0.930 . S
C750 H736 0.930 . S
C750 C748 1.395 . S
C750 C753 1.403 . S
C751 C748 1.403 . S
C751 C752 1.524 . S
C751 C755 1.400 . S
C752 H737 0.960 . S
C752 H738 0.960 . S
C752 H739 0.960 . S
C752 C751 1.524 . S
C753 C750 1.403 . S
C753 C754 1.392 . S
C753 C757 1.495 . S
C754 C753 1.392 . S
C754 C755 1.385 . S
C754 C756 1.478 . S
C755 H749 0.930 . S
C755 C751 1.400 . S
C755 C754 1.385 . S
C756 C754 1.478 . S
C756 C758 1.381 . S
C756 C762 1.383 . S
C757 C753 1.495 . S
C757 H763 0.959 . S
C757 H764 0.961 . S
C757 H765 0.960 . S
C758 C756 1.381 . S
C758 C759 1.394 . S
C758 H766 0.930 . S
C759 C758 1.394 . S
C759 C760 1.383 . S
C759 H767 0.929 . S
C760 C759 1.383 . S
C760 C761 1.377 . S
C761 H745 0.930 . S
C761 C760 1.377 . S
C761 C762 1.379 . S
C762 H746 0.931 . S
C762 C756 1.383 . S
C762 C761 1.379 . S
H763 C757 0.959 . S
H764 C757 0.961 . S
H765 C757 0.960 . S
H766 C758 0.930 . S
H767 C759 0.929 . S
H768 C776 0.929 . S
H769 C778 0.930 . S
H770 C780 0.930 . S
H771 C783 0.929 . S
H772 C786 0.930 . S
H773 C788 0.960 . S
H774 C788 0.960 . S
H775 C788 0.960 . S
C776 H768 0.929 . S
C776 C777 1.377 . S
C776 C778 1.384 . S
C777 C776 1.377 . S
C777 C783 1.390 . S
C778 H769 0.930 . S
C778 C776 1.384 . S
C778 C779 1.372 . S
C779 C778 1.372 . S
C779 C780 1.400 . S
C779 C784 1.490 1_565 S
C780 H770 0.930 . S
C780 C779 1.400 . S
C780 C783 1.386 . S
H781 C797 0.930 . S
H782 C798 0.931 . S
C783 H771 0.929 . S
C783 C777 1.390 . S
C783 C780 1.386 . S
C784 C779 1.490 1_545 S
C784 C786 1.395 . S
C784 C787 1.403 . S
H785 C791 0.930 . S
C786 H772 0.930 . S
C786 C784 1.395 . S
C786 C789 1.403 . S
C787 C784 1.403 . S
C787 C788 1.524 1_545 S
C787 C791 1.400 . S
C788 H773 0.960 . S
C788 H774 0.960 . S
C788 H775 0.960 . S
C788 C787 1.524 1_565 S
C789 C786 1.403 . S
C789 C790 1.392 . S
C789 C793 1.495 . S
C790 C789 1.392 . S
C790 C791 1.385 . S
C790 C792 1.478 . S
C791 H785 0.930 . S
C791 C787 1.400 . S
C791 C790 1.385 . S
C792 C790 1.478 . S
C792 C794 1.381 . S
C792 C798 1.383 . S
C793 C789 1.495 . S
C793 H799 0.959 . S
C793 H800 0.961 . S
C793 H801 0.960 . S
C794 C792 1.381 . S
C794 C795 1.394 . S
C794 H802 0.930 . S
C795 C794 1.394 . S
C795 C796 1.383 . S
C795 H803 0.929 . S
C796 C795 1.383 . S
C796 C797 1.377 . S
C797 H781 0.930 . S
C797 C796 1.377 . S
C797 C798 1.379 . S
C798 H782 0.931 . S
C798 C792 1.383 . S
C798 C797 1.379 . S
H799 C793 0.959 . S
H800 C793 0.961 . S
H801 C793 0.960 . S
H802 C794 0.930 . S
H803 C795 0.929 . S
H804 C812 0.929 . S
H805 C814 0.920 1_455 S
H806 C816 0.930 . S
H807 C819 0.929 . S
H808 C822 0.930 . S
H809 C824 0.960 . S
H810 C824 0.960 . S
H811 C824 0.960 . S
C812 H804 0.929 . S
C812 C813 1.377 . S
C812 C814 1.393 . S
C813 C812 1.377 . S
C813 C819 1.390 . S
C814 H805 0.920 1_655 S
C814 C812 1.393 . S
C814 C815 1.373 . S
C815 C814 1.373 . S
C815 C816 1.400 . S
C815 C820 1.490 1_655 S
C816 H806 0.930 . S
C816 C815 1.400 . S
C816 C819 1.386 . S
H817 C833 0.930 . S
H818 C834 0.931 . S
C819 H807 0.929 . S
C819 C813 1.390 . S
C819 C816 1.386 . S
C820 C815 1.490 1_455 S
C820 C822 1.395 . S
C820 C823 1.403 . S
H821 C827 0.930 . S
C822 H808 0.930 . S
C822 C820 1.395 . S
C822 C825 1.403 . S
C823 C820 1.403 . S
C823 C824 1.524 1_455 S
C823 C827 1.400 . S
C824 H809 0.960 . S
C824 H810 0.960 . S
C824 H811 0.960 . S
C824 C823 1.524 1_655 S
C825 C822 1.403 . S
C825 C826 1.392 . S
C825 C829 1.495 . S
C826 C825 1.392 . S
C826 C827 1.385 . S
C826 C828 1.478 . S
C827 H821 0.930 . S
C827 C823 1.400 . S
C827 C826 1.385 . S
C828 C826 1.478 . S
C828 C830 1.381 . S
C828 C834 1.383 . S
C829 C825 1.495 . S
C829 H835 0.959 . S
C829 H836 0.961 . S
C829 H837 0.960 . S
C830 C828 1.381 . S
C830 C831 1.394 . S
C830 H838 0.930 . S
C831 C830 1.394 . S
C831 C832 1.383 . S
C831 H839 0.929 . S
C832 C831 1.383 . S
C832 C833 1.377 . S
C833 H817 0.930 . S
C833 C832 1.377 . S
C833 C834 1.379 . S
C834 H818 0.931 . S
C834 C828 1.383 . S
C834 C833 1.379 . S
H835 C829 0.959 . S
H836 C829 0.961 . S
H837 C829 0.960 . S
H838 C830 0.930 . S
H839 C831 0.929 . S
H840 C848 0.929 . S
H841 C850 0.930 . S
H842 C852 0.930 . S
H843 C855 0.929 . S
H844 C858 0.930 . S
H845 C860 0.960 . S
H846 C860 0.960 . S
H847 C860 0.960 . S
C848 H840 0.929 . S
C848 C849 1.377 . S
C848 C850 1.384 1_545 S
C849 C848 1.377 . S
C849 C855 1.390 . S
C850 H841 0.930 . S
C850 C848 1.384 1_565 S
C850 C851 1.372 1_565 S
C851 C850 1.372 1_545 S
C851 C852 1.400 . S
C851 C856 1.490 1_545 S
C852 H842 0.930 . S
C852 C851 1.400 . S
C852 C855 1.386 . S
H853 C869 0.930 . S
H854 C870 0.931 . S
C855 H843 0.929 . S
C855 C849 1.390 . S
C855 C852 1.386 . S
C856 C851 1.490 1_565 S
C856 C858 1.395 . S
C856 C859 1.403 . S
H857 C863 0.930 . S
C858 H844 0.930 . S
C858 C856 1.395 . S
C858 C861 1.403 . S
C859 C856 1.403 . S
C859 C860 1.524 . S
C859 C863 1.400 . S
C860 H845 0.960 . S
C860 H846 0.960 . S
C860 H847 0.960 . S
C860 C859 1.524 . S
C861 C858 1.403 . S
C861 C862 1.392 . S
C861 C865 1.495 . S
C862 C861 1.392 . S
C862 C863 1.385 . S
C862 C864 1.478 . S
C863 H857 0.930 . S
C863 C859 1.400 . S
C863 C862 1.385 . S
C864 C862 1.478 . S
C864 C866 1.381 . S
C864 C870 1.383 . S
C865 C861 1.495 . S
C865 H871 0.959 . S
C865 H872 0.961 . S
C865 H873 0.960 . S
C866 C864 1.381 . S
C866 C867 1.394 . S
C866 H874 0.930 . S
C867 C866 1.394 . S
C867 C868 1.383 . S
C867 H875 0.929 . S
C868 C867 1.383 . S
C868 C869 1.377 . S
C869 H853 0.930 . S
C869 C868 1.377 . S
C869 C870 1.379 . S
C870 H854 0.931 . S
C870 C864 1.383 . S
C870 C869 1.379 . S
H871 C865 0.959 . S
H872 C865 0.961 . S
H873 C865 0.960 . S
H874 C866 0.930 . S
H875 C867 0.929 . S
H876 C884 0.929 . S
H877 C886 0.930 . S
H878 C888 0.928 . S
H879 C891 0.929 . S
H880 C894 0.942 . S
H881 C896 0.960 . S
H882 C896 0.960 . S
H883 C896 0.960 . S
C884 H876 0.929 . S
C884 C885 1.377 . S
C884 C886 1.384 . S
C885 C884 1.377 . S
C885 C891 1.390 . S
C886 H877 0.930 . S
C886 C884 1.384 . S
C886 C887 1.372 . S
C887 C886 1.372 . S
C887 C888 1.400 1_455 S
C887 C892 1.490 1_455 S
C888 H878 0.928 . S
C888 C887 1.400 1_655 S
C888 C891 1.387 1_655 S
H889 C905 0.930 . S
H890 C906 0.931 . S
C891 H879 0.929 . S
C891 C885 1.390 . S
C891 C888 1.387 1_455 S
C892 C887 1.490 1_655 S
C892 C894 1.395 . S
C892 C895 1.403 . S
H893 C899 0.930 . S
C894 H880 0.942 . S
C894 C892 1.395 . S
C894 C897 1.403 . S
C895 C892 1.403 . S
C895 C896 1.524 . S
C895 C899 1.400 . S
C896 H881 0.960 . S
C896 H882 0.960 . S
C896 H883 0.960 . S
C896 C895 1.524 . S
C897 C894 1.403 . S
C897 C898 1.392 . S
C897 C901 1.495 . S
C898 C897 1.392 . S
C898 C899 1.385 . S
C898 C900 1.478 . S
C899 H893 0.930 . S
C899 C895 1.400 . S
C899 C898 1.385 . S
C900 C898 1.478 . S
C900 C902 1.381 . S
C900 C906 1.383 . S
C901 C897 1.495 . S
C901 H907 0.959 . S
C901 H908 0.961 . S
C901 H909 0.960 . S
C902 C900 1.381 . S
C902 C903 1.394 . S
C902 H910 0.930 . S
C903 C902 1.394 . S
C903 C904 1.383 . S
C903 H911 0.929 . S
C904 C903 1.383 . S
C904 C905 1.377 . S
C905 H889 0.930 . S
C905 C904 1.377 . S
C905 C906 1.379 . S
C906 H890 0.931 . S
C906 C900 1.383 . S
C906 C905 1.379 . S
H907 C901 0.959 . S
H908 C901 0.961 . S
H909 C901 0.960 . S
H910 C902 0.930 . S
H911 C903 0.929 . S
H912 C920 0.929 . S
H913 C922 0.930 . S
H914 C924 0.930 . S
H915 C927 0.929 . S
H916 C930 0.930 . S
H917 C932 0.960 . S
H918 C932 0.960 . S
H919 C932 0.960 . S
C920 H912 0.929 . S
C920 C921 1.377 . S
C920 C922 1.384 . S
C921 C920 1.377 . S
C921 C927 1.390 . S
C922 H913 0.930 . S
C922 C920 1.384 . S
C922 C923 1.372 . S
C923 C922 1.372 . S
C923 C924 1.400 . S
C923 C928 1.490 . S
C924 H914 0.930 . S
C924 C923 1.400 . S
C924 C927 1.386 . S
H925 C941 0.930 . S
H926 C942 0.931 1_565 S
C927 H915 0.929 . S
C927 C921 1.390 . S
C927 C924 1.386 . S
C928 C923 1.490 . S
C928 C930 1.395 . S
C928 C931 1.403 . S
H929 C935 0.930 . S
C930 H916 0.930 . S
C930 C928 1.395 . S
C930 C933 1.403 . S
C931 C928 1.403 . S
C931 C932 1.524 . S
C931 C935 1.400 . S
C932 H917 0.960 . S
C932 H918 0.960 . S
C932 H919 0.960 . S
C932 C931 1.524 . S
C933 C930 1.403 . S
C933 C934 1.392 . S
C933 C937 1.495 1_565 S
C934 C933 1.392 . S
C934 C935 1.385 . S
C934 C936 1.478 1_565 S
C935 H929 0.930 . S
C935 C931 1.400 . S
C935 C934 1.385 . S
C936 C934 1.478 1_545 S
C936 C938 1.381 . S
C936 C942 1.383 . S
C937 C933 1.495 1_545 S
C937 H943 0.959 . S
C937 H944 0.961 . S
C937 H945 0.960 . S
C938 C936 1.381 . S
C938 C939 1.394 . S
C938 H946 0.930 . S
C939 C938 1.394 . S
C939 C940 1.383 . S
C939 H947 0.929 . S
C940 C939 1.383 . S
C940 C941 1.377 . S
C941 H925 0.930 . S
C941 C940 1.377 . S
C941 C942 1.379 . S
C942 H926 0.931 1_545 S
C942 C936 1.383 . S
C942 C941 1.379 . S
H943 C937 0.959 . S
H944 C937 0.961 . S
H945 C937 0.960 . S
H946 C938 0.930 . S
H947 C939 0.929 . S
H948 C956 0.929 . S
H949 C958 0.930 . S
H950 C960 0.930 . S
H951 C963 0.929 . S
H952 C966 0.930 . S
H953 C968 0.960 1_455 S
H954 C968 0.960 . S
H955 C968 0.960 . S
C956 H948 0.929 . S
C956 C957 1.377 . S
C956 C958 1.384 . S
C957 C956 1.377 . S
C957 C963 1.390 . S
C958 H949 0.930 . S
C958 C956 1.384 . S
C958 C959 1.372 . S
C959 C958 1.372 . S
C959 C960 1.400 . S
C959 C964 1.490 . S
C960 H950 0.930 . S
C960 C959 1.400 . S
C960 C963 1.386 . S
H961 C977 0.930 . S
H962 C978 0.931 . S
C963 H951 0.929 . S
C963 C957 1.390 . S
C963 C960 1.386 . S
C964 C959 1.490 . S
C964 C966 1.395 . S
C964 C967 1.403 . S
H965 C971 0.930 1_455 S
C966 H952 0.930 . S
C966 C964 1.395 . S
C966 C969 1.403 . S
C967 C964 1.403 . S
C967 C968 1.524 . S
C967 C971 1.400 . S
C968 H953 0.960 1_655 S
C968 H954 0.960 . S
C968 H955 0.960 . S
C968 C967 1.524 . S
C969 C966 1.403 . S
C969 C970 1.392 . S
C969 C973 1.495 . S
C970 C969 1.392 . S
C970 C971 1.385 . S
C970 C972 1.478 1_655 S
C971 H965 0.930 1_655 S
C971 C967 1.400 . S
C971 C970 1.385 . S
C972 C970 1.478 1_455 S
C972 C974 1.381 . S
C972 C978 1.383 . S
C973 C969 1.495 . S
C973 H979 0.959 . S
C973 H980 0.961 . S
C973 H981 0.960 . S
C974 C972 1.381 . S
C974 C975 1.394 . S
C974 H982 0.930 1_455 S
C975 C974 1.394 . S
C975 C976 1.383 . S
C975 H983 0.929 . S
C976 C975 1.383 . S
C976 C977 1.377 . S
C977 H961 0.930 . S
C977 C976 1.377 . S
C977 C978 1.379 . S
C978 H962 0.931 . S
C978 C972 1.383 . S
C978 C977 1.379 . S
H979 C973 0.959 . S
H980 C973 0.961 . S
H981 C973 0.960 . S
H982 C974 0.930 1_655 S
H983 C975 0.929 . S
H984 C992 0.929 . S
H985 C994 0.930 . S
H986 C996 0.930 1_545 S
H987 C999 0.929 . S
H988 C1002 0.930 . S
H989 C1004 0.960 . S
H990 C1004 0.960 1_565 S
H991 C1004 0.960 . S
C992 H984 0.929 . S
C992 C993 1.377 . S
C992 C994 1.384 . S
C993 C992 1.377 . S
C993 C999 1.390 . S
C994 H985 0.930 . S
C994 C992 1.384 . S
C994 C995 1.372 . S
C995 C994 1.372 . S
C995 C996 1.400 . S
C995 C1000 1.490 1_565 S
C996 H986 0.930 1_565 S
C996 C995 1.400 . S
C996 C999 1.386 . S
H997 C1013 0.930 . S
H998 C1014 0.931 . S
C999 H987 0.929 . S
C999 C993 1.390 . S
C999 C996 1.386 . S
C1000 C995 1.490 1_545 S
C1000 C1002 1.395 . S
C1000 C1003 1.403 . S
H1001 C1007 0.930 . S
C1002 H988 0.930 . S
C1002 C1000 1.395 . S
C1002 C1005 1.403 . S
C1003 C1000 1.403 . S
C1003 C1004 1.524 . S
C1003 C1007 1.400 . S
C1004 H989 0.960 . S
C1004 H990 0.960 1_545 S
C1004 H991 0.960 . S
C1004 C1003 1.524 . S
C1005 C1002 1.403 . S
C1005 C1006 1.392 . S
C1005 C1009 1.495 . S
C1006 C1005 1.392 . S
C1006 C1007 1.385 . S
C1006 C1008 1.478 . S
C1007 H1001 0.930 . S
C1007 C1003 1.400 . S
C1007 C1006 1.385 . S
C1008 C1006 1.478 . S
C1008 C1010 1.381 . S
C1008 C1014 1.383 . S
C1009 C1005 1.495 . S
C1009 H1015 0.959 . S
C1009 H1016 0.961 . S
C1009 H1017 0.960 . S
C1010 C1008 1.381 . S
C1010 C1011 1.394 . S
C1010 H1018 0.930 . S
C1011 C1010 1.394 . S
C1011 C1012 1.383 . S
C1011 H1019 0.929 . S
C1012 C1011 1.383 . S
C1012 C1013 1.377 . S
C1013 H997 0.930 . S
C1013 C1012 1.377 . S
C1013 C1014 1.379 . S
C1014 H998 0.931 . S
C1014 C1008 1.383 . S
C1014 C1013 1.379 . S
H1015 C1009 0.959 . S
H1016 C1009 0.961 . S
H1017 C1009 0.960 . S
H1018 C1010 0.930 . S
H1019 C1011 0.929 . S
H1020 C1028 0.929 . S
H1021 C1030 0.930 . S
H1022 C1032 0.930 . S
H1023 C1035 0.929 . S
H1024 C1038 0.930 . S
H1025 C1040 0.960 1_655 S
H1026 C1040 0.960 . S
H1027 C1040 0.960 . S
C1028 H1020 0.929 . S
C1028 C1029 1.377 . S
C1028 C1030 1.384 . S
C1029 C1028 1.377 . S
C1029 C1035 1.390 . S
C1030 H1021 0.930 . S
C1030 C1028 1.384 . S
C1030 C1031 1.372 . S
C1031 C1030 1.372 . S
C1031 C1032 1.400 . S
C1031 C1036 1.490 . S
C1032 H1022 0.930 . S
C1032 C1031 1.400 . S
C1032 C1035 1.386 . S
H1033 C1049 0.930 . S
H1034 C1050 0.931 . S
C1035 H1023 0.929 . S
C1035 C1029 1.390 . S
C1035 C1032 1.386 . S
C1036 C1031 1.490 . S
C1036 C1038 1.395 . S
C1036 C1039 1.403 . S
H1037 C1043 0.930 1_655 S
C1038 H1024 0.930 . S
C1038 C1036 1.395 . S
C1038 C1041 1.403 . S
C1039 C1036 1.403 . S
C1039 C1040 1.524 . S
C1039 C1043 1.400 . S
C1040 H1025 0.960 1_455 S
C1040 H1026 0.960 . S
C1040 H1027 0.960 . S
C1040 C1039 1.524 . S
C1041 C1038 1.403 . S
C1041 C1042 1.392 . S
C1041 C1045 1.495 . S
C1042 C1041 1.392 . S
C1042 C1043 1.385 . S
C1042 C1044 1.478 1_455 S
C1043 H1037 0.930 1_455 S
C1043 C1039 1.400 . S
C1043 C1042 1.385 . S
C1044 C1042 1.478 1_655 S
C1044 C1046 1.381 . S
C1044 C1050 1.383 . S
C1045 C1041 1.495 . S
C1045 H1051 0.959 . S
C1045 H1052 0.961 . S
C1045 H1053 0.960 . S
C1046 C1044 1.381 . S
C1046 C1047 1.394 . S
C1046 H1054 0.930 1_655 S
C1047 C1046 1.394 . S
C1047 C1048 1.383 . S
C1047 H1055 0.929 . S
C1048 C1047 1.383 . S
C1048 C1049 1.377 . S
C1049 H1033 0.930 . S
C1049 C1048 1.377 . S
C1049 C1050 1.379 . S
C1050 H1034 0.931 . S
C1050 C1044 1.383 . S
C1050 C1049 1.379 . S
H1051 C1045 0.959 . S
H1052 C1045 0.961 . S
H1053 C1045 0.960 . S
H1054 C1046 0.930 1_455 S
H1055 C1047 0.929 . S
H1056 C1064 0.929 . S
H1057 C1066 0.930 . S
H1058 C1068 0.930 1_554 S
H1059 C1071 0.929 . S
H1060 C1074 0.930 . S
H1061 C1076 0.960 . S
H1062 C1076 0.966 . S
H1063 C1076 0.960 . S
C1064 H1056 0.929 . S
C1064 C1065 1.377 . S
C1064 C1066 1.384 . S
C1065 C1064 1.377 . S
C1065 C1071 1.390 . S
C1066 H1057 0.930 . S
C1066 C1064 1.384 . S
C1066 C1067 1.372 . S
C1067 C1066 1.372 . S
C1067 C1068 1.400 . S
C1067 C1072 1.490 1_556 S
C1068 H1058 0.930 1_556 S
C1068 C1067 1.400 . S
C1068 C1071 1.386 . S
H1069 C1085 0.930 . S
H1070 C1086 0.931 . S
C1071 H1059 0.929 . S
C1071 C1065 1.390 . S
C1071 C1068 1.386 . S
C1072 C1067 1.490 1_554 S
C1072 C1074 1.395 . S
C1072 C1075 1.403 . S
H1073 C1079 0.930 . S
C1074 H1060 0.930 . S
C1074 C1072 1.395 . S
C1074 C1077 1.403 . S
C1075 C1072 1.403 . S
C1075 C1076 1.524 . S
C1075 C1079 1.400 . S
C1076 H1061 0.960 . S
C1076 H1062 0.966 . S
C1076 H1063 0.960 . S
C1076 C1075 1.524 . S
C1077 C1074 1.403 . S
C1077 C1078 1.392 . S
C1077 C1081 1.495 . S
C1078 C1077 1.392 . S
C1078 C1079 1.385 . S
C1078 C1080 1.478 . S
C1079 H1073 0.930 . S
C1079 C1075 1.400 . S
C1079 C1078 1.385 . S
C1080 C1078 1.478 . S
C1080 C1082 1.381 . S
C1080 C1086 1.383 . S
C1081 C1077 1.495 . S
C1081 H1087 0.959 . S
C1081 H1088 0.961 . S
C1081 H1089 0.960 . S
C1082 C1080 1.381 . S
C1082 C1083 1.394 . S
C1082 H1090 0.930 . S
C1083 C1082 1.394 . S
C1083 C1084 1.383 . S
C1083 H1091 0.929 . S
C1084 C1083 1.383 . S
C1084 C1085 1.377 . S
C1085 H1069 0.930 . S
C1085 C1084 1.377 . S
C1085 C1086 1.379 . S
C1086 H1070 0.931 . S
C1086 C1080 1.383 . S
C1086 C1085 1.379 . S
H1087 C1081 0.959 . S
H1088 C1081 0.961 . S
H1089 C1081 0.960 . S
H1090 C1082 0.930 . S
H1091 C1083 0.929 . S
H1092 C1100 0.929 . S
H1093 C1102 0.930 . S
H1094 C1104 0.930 1_556 S
H1095 C1107 0.929 . S
H1096 C1110 0.941 . S
H1097 C1112 0.960 . S
H1098 C1112 0.960 . S
H1099 C1112 0.960 . S
C1100 H1092 0.929 . S
C1100 C1101 1.377 . S
C1100 C1102 1.384 . S
C1101 C1100 1.377 . S
C1101 C1107 1.390 . S
C1102 H1093 0.930 . S
C1102 C1100 1.384 . S
C1102 C1103 1.372 . S
C1103 C1102 1.372 . S
C1103 C1104 1.400 . S
C1103 C1108 1.490 1_554 S
C1104 H1094 0.930 1_554 S
C1104 C1103 1.400 . S
C1104 C1107 1.386 . S
H1105 C1121 0.930 . S
H1106 C1122 0.931 . S
C1107 H1095 0.929 . S
C1107 C1101 1.390 . S
C1107 C1104 1.386 . S
C1108 C1103 1.490 1_556 S
C1108 C1110 1.390 1_556 S
C1108 C1111 1.403 . S
H1109 C1115 0.930 . S
C1110 H1096 0.941 . S
C1110 C1108 1.390 1_554 S
C1110 C1113 1.397 1_554 S
C1111 C1108 1.403 . S
C1111 C1112 1.524 . S
C1111 C1115 1.400 . S
C1112 H1097 0.960 . S
C1112 H1098 0.960 . S
C1112 H1099 0.960 . S
C1112 C1111 1.524 . S
C1113 C1110 1.397 1_556 S
C1113 C1114 1.392 . S
C1113 C1117 1.495 . S
C1114 C1113 1.392 . S
C1114 C1115 1.385 . S
C1114 C1116 1.478 . S
C1115 H1109 0.930 . S
C1115 C1111 1.400 . S
C1115 C1114 1.385 . S
C1116 C1114 1.478 . S
C1116 C1118 1.381 . S
C1116 C1122 1.383 . S
C1117 C1113 1.495 . S
C1117 H1123 0.959 1_556 S
C1117 H1124 0.961 . S
C1117 H1125 0.960 . S
C1118 C1116 1.381 . S
C1118 C1119 1.394 . S
C1118 H1126 0.930 . S
C1119 C1118 1.394 . S
C1119 C1120 1.383 . S
C1119 H1127 0.929 . S
C1120 C1119 1.383 . S
C1120 C1121 1.377 . S
C1121 H1105 0.930 . S
C1121 C1120 1.377 . S
C1121 C1122 1.379 . S
C1122 H1106 0.931 . S
C1122 C1116 1.383 . S
C1122 C1121 1.379 . S
H1123 C1117 0.959 1_554 S
H1124 C1117 0.961 . S
H1125 C1117 0.960 . S
H1126 C1118 0.930 . S
H1127 C1119 0.929 . S
H1128 C1136 0.929 . S
H1129 C1138 0.930 . S
H1130 C1140 0.930 1_554 S
H1131 C1143 0.929 . S
H1132 C1146 0.930 1_556 S
H1133 C1148 0.960 . S
H1134 C1148 0.960 . S
H1135 C1148 0.960 . S
C1136 H1128 0.929 . S
C1136 C1137 1.377 . S
C1136 C1138 1.384 . S
C1137 C1136 1.377 . S
C1137 C1143 1.390 . S
C1138 H1129 0.930 . S
C1138 C1136 1.384 . S
C1138 C1139 1.372 . S
C1139 C1138 1.372 . S
C1139 C1140 1.400 . S
C1139 C1144 1.490 1_556 S
C1140 H1130 0.930 1_556 S
C1140 C1139 1.400 . S
C1140 C1143 1.386 . S
H1141 C1157 0.930 . S
H1142 C1158 0.931 . S
C1143 H1131 0.929 . S
C1143 C1137 1.390 . S
C1143 C1140 1.386 . S
C1144 C1139 1.490 1_554 S
C1144 C1146 1.395 . S
C1144 C1147 1.403 . S
H1145 C1151 0.930 . S
C1146 H1132 0.930 1_554 S
C1146 C1144 1.395 . S
C1146 C1149 1.403 . S
C1147 C1144 1.403 . S
C1147 C1148 1.524 . S
C1147 C1151 1.400 . S
C1148 H1133 0.960 . S
C1148 H1134 0.960 . S
C1148 H1135 0.960 . S
C1148 C1147 1.524 . S
C1149 C1146 1.403 . S
C1149 C1150 1.392 . S
C1149 C1153 1.495 . S
C1150 C1149 1.392 . S
C1150 C1151 1.385 . S
C1150 C1152 1.478 . S
C1151 H1145 0.930 . S
C1151 C1147 1.400 . S
C1151 C1150 1.385 . S
C1152 C1150 1.478 . S
C1152 C1154 1.381 . S
C1152 C1158 1.383 . S
C1153 C1149 1.495 . S
C1153 H1159 0.959 . S
C1153 H1160 0.961 . S
C1153 H1161 0.960 . S
C1154 C1152 1.381 . S
C1154 C1155 1.394 . S
C1154 H1162 0.930 . S
C1155 C1154 1.394 . S
C1155 C1156 1.383 . S
C1155 H1163 0.929 . S
C1156 C1155 1.383 . S
C1156 C1157 1.377 . S
C1157 H1141 0.930 . S
C1157 C1156 1.377 . S
C1157 C1158 1.379 . S
C1158 H1142 0.931 . S
C1158 C1152 1.383 . S
C1158 C1157 1.379 . S
H1159 C1153 0.959 . S
H1160 C1153 0.961 . S
H1161 C1153 0.960 . S
H1162 C1154 0.930 . S
H1163 C1155 0.929 . S
H1164 C1172 0.929 . S
H1165 C1174 0.930 . S
H1166 C1176 0.930 . S
H1167 C1179 0.929 . S
H1168 C1182 0.930 . S
H1169 C1184 0.960 . S
H1170 C1184 0.960 . S
H1171 C1184 0.960 . S
C1172 H1164 0.929 . S
C1172 C1173 1.377 . S
C1172 C1174 1.384 1_554 S
C1173 C1172 1.377 . S
C1173 C1179 1.390 . S
C1174 H1165 0.930 . S
C1174 C1172 1.384 1_556 S
C1174 C1175 1.372 1_556 S
C1175 C1174 1.372 1_554 S
C1175 C1176 1.400 . S
C1175 C1180 1.490 1_554 S
C1176 H1166 0.930 . S
C1176 C1175 1.400 . S
C1176 C1179 1.386 . S
H1177 C1193 0.930 . S
H1178 C1194 0.931 . S
C1179 H1167 0.929 . S
C1179 C1173 1.390 . S
C1179 C1176 1.386 . S
C1180 C1175 1.490 1_556 S
C1180 C1182 1.395 . S
C1180 C1183 1.403 . S
H1181 C1187 0.930 . S
C1182 H1168 0.930 . S
C1182 C1180 1.395 . S
C1182 C1185 1.403 . S
C1183 C1180 1.403 . S
C1183 C1184 1.524 1_556 S
C1183 C1187 1.400 . S
C1184 H1169 0.960 . S
C1184 H1170 0.960 . S
C1184 H1171 0.960 . S
C1184 C1183 1.524 1_554 S
C1185 C1182 1.403 . S
C1185 C1186 1.392 . S
C1185 C1189 1.495 . S
C1186 C1185 1.392 . S
C1186 C1187 1.385 . S
C1186 C1188 1.478 . S
C1187 H1181 0.930 . S
C1187 C1183 1.400 . S
C1187 C1186 1.385 . S
C1188 C1186 1.478 . S
C1188 C1190 1.381 . S
C1188 C1194 1.383 . S
C1189 C1185 1.495 . S
C1189 H1195 0.959 . S
C1189 H1196 0.961 . S
C1189 H1197 0.960 . S
C1190 C1188 1.381 . S
C1190 C1191 1.394 . S
C1190 H1198 0.930 . S
C1191 C1190 1.394 . S
C1191 C1192 1.383 . S
C1191 H1199 0.929 . S
C1192 C1191 1.383 . S
C1192 C1193 1.377 . S
C1193 H1177 0.930 . S
C1193 C1192 1.377 . S
C1193 C1194 1.379 . S
C1194 H1178 0.931 . S
C1194 C1188 1.383 . S
C1194 C1193 1.379 . S
H1195 C1189 0.959 . S
H1196 C1189 0.961 . S
H1197 C1189 0.960 . S
H1198 C1190 0.930 . S
H1199 C1191 0.929 . S
H1200 C1208 0.929 . S
H1201 C1210 0.930 . S
H1202 C1212 0.930 . S
H1203 C1215 0.929 . S
H1204 C1218 0.930 . S
H1205 C1220 0.960 . S
H1206 C1220 0.960 . S
H1207 C1220 0.960 . S
C1208 H1200 0.929 . S
C1208 C1209 1.377 . S
C1208 C1210 1.384 . S
C1209 C1208 1.377 . S
C1209 C1215 1.390 . S
C1210 H1201 0.930 . S
C1210 C1208 1.384 . S
C1210 C1211 1.372 . S
C1211 C1210 1.372 . S
C1211 C1212 1.400 . S
C1211 C1216 1.490 . S
C1212 H1202 0.930 . S
C1212 C1211 1.400 . S
C1212 C1215 1.386 . S
H1213 C1229 0.930 . S
H1214 C1230 0.931 . S
C1215 H1203 0.929 . S
C1215 C1209 1.390 . S
C1215 C1212 1.386 . S
C1216 C1211 1.490 . S
C1216 C1218 1.395 . S
C1216 C1219 1.403 . S
H1217 C1223 0.930 . S
C1218 H1204 0.930 . S
C1218 C1216 1.395 . S
C1218 C1221 1.403 . S
C1219 C1216 1.403 . S
C1219 C1220 1.524 . S
C1219 C1223 1.400 . S
C1220 H1205 0.960 . S
C1220 H1206 0.960 . S
C1220 H1207 0.960 . S
C1220 C1219 1.524 . S
C1221 C1218 1.403 . S
C1221 C1222 1.392 . S
C1221 C1225 1.495 . S
C1222 C1221 1.392 . S
C1222 C1223 1.385 . S
C1222 C1224 1.478 . S
C1223 H1217 0.930 . S
C1223 C1219 1.400 . S
C1223 C1222 1.385 . S
C1224 C1222 1.478 . S
C1224 C1226 1.381 . S
C1224 C1230 1.383 . S
C1225 C1221 1.495 . S
C1225 H1231 0.959 . S
C1225 H1232 0.961 . S
C1225 H1233 0.960 . S
C1226 C1224 1.381 . S
C1226 C1227 1.394 . S
C1226 H1234 0.930 . S
C1227 C1226 1.394 . S
C1227 C1228 1.383 . S
C1227 H1235 0.929 . S
C1228 C1227 1.383 . S
C1228 C1229 1.377 . S
C1229 H1213 0.930 . S
C1229 C1228 1.377 . S
C1229 C1230 1.379 . S
C1230 H1214 0.931 . S
C1230 C1224 1.383 . S
C1230 C1229 1.379 . S
H1231 C1225 0.959 . S
H1232 C1225 0.961 . S
H1233 C1225 0.960 . S
H1234 C1226 0.930 . S
H1235 C1227 0.929 . S
H1236 C1244 0.929 . S
H1237 C1246 0.930 . S
H1238 C1248 0.930 . S
H1239 C1251 0.929 . S
H1240 C1254 0.930 . S
H1241 C1256 0.960 . S
H1242 C1256 0.960 . S
H1243 C1256 0.960 . S
C1244 H1236 0.929 . S
C1244 C1245 1.377 . S
C1244 C1246 1.384 . S
C1245 C1244 1.377 . S
C1245 C1251 1.390 . S
C1246 H1237 0.930 . S
C1246 C1244 1.384 . S
C1246 C1247 1.372 . S
C1247 C1246 1.372 . S
C1247 C1248 1.400 . S
C1247 C1252 1.490 . S
C1248 H1238 0.930 . S
C1248 C1247 1.400 . S
C1248 C1251 1.386 . S
H1249 C1265 0.930 . S
H1250 C1266 0.931 . S
C1251 H1239 0.929 . S
C1251 C1245 1.390 . S
C1251 C1248 1.386 . S
C1252 C1247 1.490 . S
C1252 C1254 1.395 . S
C1252 C1255 1.403 . S
H1253 C1259 0.930 . S
C1254 H1240 0.930 . S
C1254 C1252 1.395 . S
C1254 C1257 1.403 . S
C1255 C1252 1.403 . S
C1255 C1256 1.524 . S
C1255 C1259 1.400 . S
C1256 H1241 0.960 . S
C1256 H1242 0.960 . S
C1256 H1243 0.960 . S
C1256 C1255 1.524 . S
C1257 C1254 1.403 . S
C1257 C1258 1.392 . S
C1257 C1261 1.495 . S
C1258 C1257 1.392 . S
C1258 C1259 1.385 . S
C1258 C1260 1.478 . S
C1259 H1253 0.930 . S
C1259 C1255 1.400 . S
C1259 C1258 1.385 . S
C1260 C1258 1.478 . S
C1260 C1262 1.381 . S
C1260 C1266 1.383 . S
C1261 C1257 1.495 . S
C1261 H1267 0.959 . S
C1261 H1268 0.961 . S
C1261 H1269 0.960 . S
C1262 C1260 1.381 . S
C1262 C1263 1.394 . S
C1262 H1270 0.930 . S
C1263 C1262 1.394 . S
C1263 C1264 1.383 . S
C1263 H1271 0.929 . S
C1264 C1263 1.383 . S
C1264 C1265 1.377 . S
C1265 H1249 0.930 . S
C1265 C1264 1.377 . S
C1265 C1266 1.379 . S
C1266 H1250 0.931 . S
C1266 C1260 1.383 . S
C1266 C1265 1.379 . S
H1267 C1261 0.959 . S
H1268 C1261 0.961 . S
H1269 C1261 0.960 . S
H1270 C1262 0.930 . S
H1271 C1263 0.929 . S
H1272 C1280 0.929 . S
H1273 C1282 0.930 . S
H1274 C1284 0.930 . S
H1275 C1287 0.929 . S
H1276 C1290 0.930 . S
H1277 C1292 0.960 . S
H1278 C1292 0.960 . S
H1279 C1292 0.960 . S
C1280 H1272 0.929 . S
C1280 C1281 1.377 . S
C1280 C1282 1.384 . S
C1281 C1280 1.377 . S
C1281 C1287 1.390 . S
C1282 H1273 0.930 . S
C1282 C1280 1.384 . S
C1282 C1283 1.372 . S
C1283 C1282 1.372 . S
C1283 C1284 1.400 . S
C1283 C1288 1.490 . S
C1284 H1274 0.930 . S
C1284 C1283 1.400 . S
C1284 C1287 1.386 . S
H1285 C1301 0.930 . S
H1286 C1302 0.931 . S
C1287 H1275 0.929 . S
C1287 C1281 1.390 . S
C1287 C1284 1.386 . S
C1288 C1283 1.490 . S
C1288 C1290 1.395 . S
C1288 C1291 1.403 . S
H1289 C1295 0.930 . S
C1290 H1276 0.930 . S
C1290 C1288 1.395 . S
C1290 C1293 1.403 . S
C1291 C1288 1.403 . S
C1291 C1292 1.524 . S
C1291 C1295 1.400 . S
C1292 H1277 0.960 . S
C1292 H1278 0.960 . S
C1292 H1279 0.960 . S
C1292 C1291 1.524 . S
C1293 C1290 1.403 . S
C1293 C1294 1.392 . S
C1293 C1297 1.495 . S
C1294 C1293 1.392 . S
C1294 C1295 1.385 . S
C1294 C1296 1.478 . S
C1295 H1289 0.930 . S
C1295 C1291 1.400 . S
C1295 C1294 1.385 . S
C1296 C1294 1.478 . S
C1296 C1298 1.381 . S
C1296 C1302 1.383 . S
C1297 C1293 1.495 . S
C1297 H1303 0.959 . S
C1297 H1304 0.961 . S
C1297 H1305 0.960 . S
C1298 C1296 1.381 . S
C1298 C1299 1.394 . S
C1298 H1306 0.930 . S
C1299 C1298 1.394 . S
C1299 C1300 1.383 . S
C1299 H1307 0.929 . S
C1300 C1299 1.383 . S
C1300 C1301 1.377 . S
C1301 H1285 0.930 . S
C1301 C1300 1.377 . S
C1301 C1302 1.379 . S
C1302 H1286 0.931 . S
C1302 C1296 1.383 . S
C1302 C1301 1.379 . S
H1303 C1297 0.959 . S
H1304 C1297 0.961 . S
H1305 C1297 0.960 . S
H1306 C1298 0.930 . S
H1307 C1299 0.929 . S
H1308 C1316 0.929 . S
H1309 C1318 0.930 . S
H1310 C1320 0.930 . S
H1311 C1323 0.929 . S
H1312 C1326 0.930 . S
H1313 C1328 0.960 . S
H1314 C1328 0.960 . S
H1315 C1328 0.960 . S
C1316 H1308 0.929 . S
C1316 C1317 1.377 . S
C1316 C1318 1.384 . S
C1317 C1316 1.377 . S
C1317 C1323 1.390 . S
C1318 H1309 0.930 . S
C1318 C1316 1.384 . S
C1318 C1319 1.372 . S
C1319 C1318 1.372 . S
C1319 C1320 1.400 . S
C1319 C1324 1.490 . S
C1320 H1310 0.930 . S
C1320 C1319 1.400 . S
C1320 C1323 1.386 . S
H1321 C1337 0.930 . S
H1322 C1338 0.931 . S
C1323 H1311 0.929 . S
C1323 C1317 1.390 . S
C1323 C1320 1.386 . S
C1324 C1319 1.490 . S
C1324 C1326 1.395 . S
C1324 C1327 1.403 . S
H1325 C1331 0.930 . S
C1326 H1312 0.930 . S
C1326 C1324 1.395 . S
C1326 C1329 1.403 . S
C1327 C1324 1.403 . S
C1327 C1328 1.524 . S
C1327 C1331 1.400 . S
C1328 H1313 0.960 . S
C1328 H1314 0.960 . S
C1328 H1315 0.960 . S
C1328 C1327 1.524 . S
C1329 C1326 1.403 . S
C1329 C1330 1.392 . S
C1329 C1333 1.495 . S
C1330 C1329 1.392 . S
C1330 C1331 1.385 . S
C1330 C1332 1.478 . S
C1331 H1325 0.930 . S
C1331 C1327 1.400 . S
C1331 C1330 1.385 . S
C1332 C1330 1.478 . S
C1332 C1334 1.381 . S
C1332 C1338 1.383 . S
C1333 C1329 1.495 . S
C1333 H1339 0.959 . S
C1333 H1340 0.961 . S
C1333 H1341 0.960 . S
C1334 C1332 1.381 . S
C1334 C1335 1.394 . S
C1334 H1342 0.930 . S
C1335 C1334 1.394 . S
C1335 C1336 1.383 . S
C1335 H1343 0.929 . S
C1336 C1335 1.383 . S
C1336 C1337 1.377 . S
C1337 H1321 0.930 . S
C1337 C1336 1.377 . S
C1337 C1338 1.379 . S
C1338 H1322 0.931 . S
C1338 C1332 1.383 . S
C1338 C1337 1.379 . S
H1339 C1333 0.959 . S
H1340 C1333 0.961 . S
H1341 C1333 0.960 . S
H1342 C1334 0.930 . S
H1343 C1335 0.929 . S
H1344 C1352 0.929 . S
H1345 C1354 0.930 . S
H1346 C1356 0.930 . S
H1347 C1359 0.929 . S
H1348 C1362 0.930 . S
H1349 C1364 0.960 . S
H1350 C1364 0.960 . S
H1351 C1364 0.960 . S
C1352 H1344 0.929 . S
C1352 C1353 1.377 . S
C1352 C1354 1.384 . S
C1353 C1352 1.377 . S
C1353 C1359 1.390 . S
C1354 H1345 0.930 . S
C1354 C1352 1.384 . S
C1354 C1355 1.372 . S
C1355 C1354 1.372 . S
C1355 C1356 1.400 . S
C1355 C1360 1.490 . S
C1356 H1346 0.930 . S
C1356 C1355 1.400 . S
C1356 C1359 1.386 . S
H1357 C1373 0.930 . S
H1358 C1374 0.931 . S
C1359 H1347 0.929 . S
C1359 C1353 1.390 . S
C1359 C1356 1.386 . S
C1360 C1355 1.490 . S
C1360 C1362 1.395 . S
C1360 C1363 1.403 . S
H1361 C1367 0.930 . S
C1362 H1348 0.930 . S
C1362 C1360 1.395 . S
C1362 C1365 1.403 . S
C1363 C1360 1.403 . S
C1363 C1364 1.524 . S
C1363 C1367 1.400 . S
C1364 H1349 0.960 . S
C1364 H1350 0.960 . S
C1364 H1351 0.960 . S
C1364 C1363 1.524 . S
C1365 C1362 1.403 . S
C1365 C1366 1.392 . S
C1365 C1369 1.495 . S
C1366 C1365 1.392 . S
C1366 C1367 1.385 . S
C1366 C1368 1.478 . S
C1367 H1361 0.930 . S
C1367 C1363 1.400 . S
C1367 C1366 1.385 . S
C1368 C1366 1.478 . S
C1368 C1370 1.381 . S
C1368 C1374 1.383 . S
C1369 C1365 1.495 . S
C1369 H1375 0.959 . S
C1369 H1376 0.961 . S
C1369 H1377 0.960 . S
C1370 C1368 1.381 . S
C1370 C1371 1.394 . S
C1370 H1378 0.930 . S
C1371 C1370 1.394 . S
C1371 C1372 1.383 . S
C1371 H1379 0.929 . S
C1372 C1371 1.383 . S
C1372 C1373 1.377 . S
C1373 H1357 0.930 . S
C1373 C1372 1.377 . S
C1373 C1374 1.379 . S
C1374 H1358 0.931 . S
C1374 C1368 1.383 . S
C1374 C1373 1.379 . S
H1375 C1369 0.959 . S
H1376 C1369 0.961 . S
H1377 C1369 0.960 . S
H1378 C1370 0.930 . S
H1379 C1371 0.929 . S
H1380 C1388 0.929 . S
H1381 C1390 0.930 . S
H1382 C1392 0.930 . S
H1383 C1395 0.929 . S
H1384 C1398 0.930 . S
H1385 C1400 0.960 . S
H1386 C1400 0.960 . S
H1387 C1400 0.960 . S
C1388 H1380 0.929 . S
C1388 C1389 1.377 . S
C1388 C1390 1.384 . S
C1389 C1388 1.377 . S
C1389 C1395 1.390 . S
C1390 H1381 0.930 . S
C1390 C1388 1.384 . S
C1390 C1391 1.372 . S
C1391 C1390 1.372 . S
C1391 C1392 1.400 . S
C1391 C1396 1.490 . S
C1392 H1382 0.930 . S
C1392 C1391 1.400 . S
C1392 C1395 1.386 . S
H1393 C1409 0.930 . S
H1394 C1410 0.931 . S
C1395 H1383 0.929 . S
C1395 C1389 1.390 . S
C1395 C1392 1.386 . S
C1396 C1391 1.490 . S
C1396 C1398 1.395 . S
C1396 C1399 1.403 . S
H1397 C1403 0.930 . S
C1398 H1384 0.930 . S
C1398 C1396 1.395 . S
C1398 C1401 1.403 . S
C1399 C1396 1.403 . S
C1399 C1400 1.524 . S
C1399 C1403 1.400 . S
C1400 H1385 0.960 . S
C1400 H1386 0.960 . S
C1400 H1387 0.960 . S
C1400 C1399 1.524 . S
C1401 C1398 1.403 . S
C1401 C1402 1.392 . S
C1401 C1405 1.495 . S
C1402 C1401 1.392 . S
C1402 C1403 1.385 . S
C1402 C1404 1.478 . S
C1403 H1397 0.930 . S
C1403 C1399 1.400 . S
C1403 C1402 1.385 . S
C1404 C1402 1.478 . S
C1404 C1406 1.381 . S
C1404 C1410 1.383 . S
C1405 C1401 1.495 . S
C1405 H1411 0.959 . S
C1405 H1412 0.961 . S
C1405 H1413 0.960 . S
C1406 C1404 1.381 . S
C1406 C1407 1.394 . S
C1406 H1414 0.930 . S
C1407 C1406 1.394 . S
C1407 C1408 1.383 . S
C1407 H1415 0.929 . S
C1408 C1407 1.383 . S
C1408 C1409 1.377 . S
C1409 H1393 0.930 . S
C1409 C1408 1.377 . S
C1409 C1410 1.379 . S
C1410 H1394 0.931 . S
C1410 C1404 1.383 . S
C1410 C1409 1.379 . S
H1411 C1405 0.959 . S
H1412 C1405 0.961 . S
H1413 C1405 0.960 . S
H1414 C1406 0.930 . S
H1415 C1407 0.929 . S
H1416 C1424 0.929 . S
H1417 C1426 0.930 . S
H1418 C1428 0.930 . S
H1419 C1431 0.929 . S
H1420 C1434 0.930 . S
H1421 C1436 0.960 . S
H1422 C1436 0.960 . S
H1423 C1436 0.960 . S
C1424 H1416 0.929 . S
C1424 C1425 1.377 . S
C1424 C1426 1.384 . S
C1425 C1424 1.377 . S
C1425 C1431 1.390 . S
C1426 H1417 0.930 . S
C1426 C1424 1.384 . S
C1426 C1427 1.372 . S
C1427 C1426 1.372 . S
C1427 C1428 1.400 . S
C1427 C1432 1.490 . S
C1428 H1418 0.930 . S
C1428 C1427 1.400 . S
C1428 C1431 1.386 . S
H1429 C1445 0.930 . S
H1430 C1446 0.931 . S
C1431 H1419 0.929 . S
C1431 C1425 1.390 . S
C1431 C1428 1.386 . S
C1432 C1427 1.490 . S
C1432 C1434 1.395 . S
C1432 C1435 1.403 . S
H1433 C1439 0.930 . S
C1434 H1420 0.930 . S
C1434 C1432 1.395 . S
C1434 C1437 1.403 . S
C1435 C1432 1.403 . S
C1435 C1436 1.524 . S
C1435 C1439 1.400 . S
C1436 H1421 0.960 . S
C1436 H1422 0.960 . S
C1436 H1423 0.960 . S
C1436 C1435 1.524 . S
C1437 C1434 1.403 . S
C1437 C1438 1.392 . S
C1437 C1441 1.495 . S
C1438 C1437 1.392 . S
C1438 C1439 1.385 . S
C1438 C1440 1.478 . S
C1439 H1433 0.930 . S
C1439 C1435 1.400 . S
C1439 C1438 1.385 . S
C1440 C1438 1.478 . S
C1440 C1442 1.381 . S
C1440 C1446 1.383 . S
C1441 C1437 1.495 . S
C1441 H1447 0.959 . S
C1441 H1448 0.961 . S
C1441 H1449 0.960 . S
C1442 C1440 1.381 . S
C1442 C1443 1.394 . S
C1442 H1450 0.930 . S
C1443 C1442 1.394 . S
C1443 C1444 1.383 . S
C1443 H1451 0.929 . S
C1444 C1443 1.383 . S
C1444 C1445 1.377 . S
C1445 H1429 0.930 . S
C1445 C1444 1.377 . S
C1445 C1446 1.379 . S
C1446 H1430 0.931 . S
C1446 C1440 1.383 . S
C1446 C1445 1.379 . S
H1447 C1441 0.959 . S
H1448 C1441 0.961 . S
H1449 C1441 0.960 . S
H1450 C1442 0.930 . S
H1451 C1443 0.929 . S
H1452 C1460 0.929 . S
H1453 C1462 0.930 . S
H1454 C1464 0.930 . S
H1455 C1467 0.929 . S
H1456 C1470 0.930 . S
H1457 C1472 0.960 . S
H1458 C1472 0.960 . S
H1459 C1472 0.960 . S
C1460 H1452 0.929 . S
C1460 C1461 1.377 . S
C1460 C1462 1.384 . S
C1461 C1460 1.377 . S
C1461 C1467 1.390 . S
C1462 H1453 0.930 . S
C1462 C1460 1.384 . S
C1462 C1463 1.372 . S
C1463 C1462 1.372 . S
C1463 C1464 1.400 . S
C1463 C1468 1.490 . S
C1464 H1454 0.930 . S
C1464 C1463 1.400 . S
C1464 C1467 1.386 . S
H1465 C1481 0.930 . S
H1466 C1482 0.931 . S
C1467 H1455 0.929 . S
C1467 C1461 1.390 . S
C1467 C1464 1.386 . S
C1468 C1463 1.490 . S
C1468 C1470 1.395 . S
C1468 C1471 1.403 . S
H1469 C1475 0.930 . S
C1470 H1456 0.930 . S
C1470 C1468 1.395 . S
C1470 C1473 1.403 . S
C1471 C1468 1.403 . S
C1471 C1472 1.524 . S
C1471 C1475 1.400 . S
C1472 H1457 0.960 . S
C1472 H1458 0.960 . S
C1472 H1459 0.960 . S
C1472 C1471 1.524 . S
C1473 C1470 1.403 . S
C1473 C1474 1.392 . S
C1473 C1477 1.495 . S
C1474 C1473 1.392 . S
C1474 C1475 1.385 . S
C1474 C1476 1.478 . S
C1475 H1469 0.930 . S
C1475 C1471 1.400 . S
C1475 C1474 1.385 . S
C1476 C1474 1.478 . S
C1476 C1478 1.381 . S
C1476 C1482 1.383 . S
C1477 C1473 1.495 . S
C1477 H1483 0.959 . S
C1477 H1484 0.961 . S
C1477 H1485 0.960 . S
C1478 C1476 1.381 . S
C1478 C1479 1.394 . S
C1478 H1486 0.930 . S
C1479 C1478 1.394 . S
C1479 C1480 1.383 . S
C1479 H1487 0.929 . S
C1480 C1479 1.383 . S
C1480 C1481 1.377 . S
C1481 H1465 0.930 . S
C1481 C1480 1.377 . S
C1481 C1482 1.379 . S
C1482 H1466 0.931 . S
C1482 C1476 1.383 . S
C1482 C1481 1.379 . S
H1483 C1477 0.959 . S
H1484 C1477 0.961 . S
H1485 C1477 0.960 . S
H1486 C1478 0.930 . S
H1487 C1479 0.929 . S
H1488 C1496 0.929 . S
H1489 C1498 0.930 . S
H1490 C1500 0.930 . S
H1491 C1503 0.929 . S
H1492 C1506 0.930 . S
H1493 C1508 0.960 . S
H1494 C1508 0.960 . S
H1495 C1508 0.960 . S
C1496 H1488 0.929 . S
C1496 C1497 1.377 . S
C1496 C1498 1.384 . S
C1497 C1496 1.377 . S
C1497 C1503 1.390 . S
C1498 H1489 0.930 . S
C1498 C1496 1.384 . S
C1498 C1499 1.372 . S
C1499 C1498 1.372 . S
C1499 C1500 1.400 . S
C1499 C1504 1.490 . S
C1500 H1490 0.930 . S
C1500 C1499 1.400 . S
C1500 C1503 1.386 . S
H1501 C1517 0.930 . S
H1502 C1518 0.931 . S
C1503 H1491 0.929 . S
C1503 C1497 1.390 . S
C1503 C1500 1.386 . S
C1504 C1499 1.490 . S
C1504 C1506 1.395 . S
C1504 C1507 1.403 . S
H1505 C1511 0.930 . S
C1506 H1492 0.930 . S
C1506 C1504 1.395 . S
C1506 C1509 1.403 . S
C1507 C1504 1.403 . S
C1507 C1508 1.524 . S
C1507 C1511 1.400 . S
C1508 H1493 0.960 . S
C1508 H1494 0.960 . S
C1508 H1495 0.960 . S
C1508 C1507 1.524 . S
C1509 C1506 1.403 . S
C1509 C1510 1.392 . S
C1509 C1513 1.495 . S
C1510 C1509 1.392 . S
C1510 C1511 1.385 . S
C1510 C1512 1.478 . S
C1511 H1505 0.930 . S
C1511 C1507 1.400 . S
C1511 C1510 1.385 . S
C1512 C1510 1.478 . S
C1512 C1514 1.381 . S
C1512 C1518 1.383 . S
C1513 C1509 1.495 . S
C1513 H1519 0.959 . S
C1513 H1520 0.961 . S
C1513 H1521 0.960 . S
C1514 C1512 1.381 . S
C1514 C1515 1.394 . S
C1514 H1522 0.930 . S
C1515 C1514 1.394 . S
C1515 C1516 1.383 . S
C1515 H1523 0.929 . S
C1516 C1515 1.383 . S
C1516 C1517 1.377 . S
C1517 H1501 0.930 . S
C1517 C1516 1.377 . S
C1517 C1518 1.379 . S
C1518 H1502 0.931 . S
C1518 C1512 1.383 . S
C1518 C1517 1.379 . S
H1519 C1513 0.959 . S
H1520 C1513 0.961 . S
H1521 C1513 0.960 . S
H1522 C1514 0.930 . S
H1523 C1515 0.929 . S
H1524 C1532 0.929 . S
H1525 C1534 0.930 . S
H1526 C1536 0.930 . S
H1527 C1539 0.929 . S
H1528 C1542 0.930 . S
H1529 C1544 0.960 . S
H1530 C1544 0.960 . S
H1531 C1544 0.960 . S
C1532 H1524 0.929 . S
C1532 C1533 1.377 . S
C1532 C1534 1.384 . S
C1533 C1532 1.377 . S
C1533 C1539 1.390 . S
C1534 H1525 0.930 . S
C1534 C1532 1.384 . S
C1534 C1535 1.372 . S
C1535 C1534 1.372 . S
C1535 C1536 1.400 . S
C1535 C1540 1.490 . S
C1536 H1526 0.930 . S
C1536 C1535 1.400 . S
C1536 C1539 1.386 . S
H1537 C1553 0.930 . S
H1538 C1554 0.931 . S
C1539 H1527 0.929 . S
C1539 C1533 1.390 . S
C1539 C1536 1.386 . S
C1540 C1535 1.490 . S
C1540 C1542 1.395 . S
C1540 C1543 1.403 . S
H1541 C1547 0.930 . S
C1542 H1528 0.930 . S
C1542 C1540 1.395 . S
C1542 C1545 1.403 . S
C1543 C1540 1.403 . S
C1543 C1544 1.524 . S
C1543 C1547 1.400 . S
C1544 H1529 0.960 . S
C1544 H1530 0.960 . S
C1544 H1531 0.960 . S
C1544 C1543 1.524 . S
C1545 C1542 1.403 . S
C1545 C1546 1.392 . S
C1545 C1549 1.495 . S
C1546 C1545 1.392 . S
C1546 C1547 1.385 . S
C1546 C1548 1.478 . S
C1547 H1541 0.930 . S
C1547 C1543 1.400 . S
C1547 C1546 1.385 . S
C1548 C1546 1.478 . S
C1548 C1550 1.381 . S
C1548 C1554 1.383 . S
C1549 C1545 1.495 . S
C1549 H1555 0.959 . S
C1549 H1556 0.961 . S
C1549 H1557 0.960 . S
C1550 C1548 1.381 . S
C1550 C1551 1.394 . S
C1550 H1558 0.930 . S
C1551 C1550 1.394 . S
C1551 C1552 1.383 . S
C1551 H1559 0.929 . S
C1552 C1551 1.383 . S
C1552 C1553 1.377 . S
C1553 H1537 0.930 . S
C1553 C1552 1.377 . S
C1553 C1554 1.379 . S
C1554 H1538 0.931 . S
C1554 C1548 1.383 . S
C1554 C1553 1.379 . S
H1555 C1549 0.959 . S
H1556 C1549 0.961 . S
H1557 C1549 0.960 . S
H1558 C1550 0.930 . S
H1559 C1551 0.929 . S
H1560 C1568 0.929 . S
H1561 C1570 0.930 . S
H1562 C1572 0.930 . S
H1563 C1575 0.929 . S
H1564 C1578 0.930 . S
H1565 C1580 0.960 . S
H1566 C1580 0.960 . S
H1567 C1580 0.960 . S
C1568 H1560 0.929 . S
C1568 C1569 1.377 . S
C1568 C1570 1.384 . S
C1569 C1568 1.377 . S
C1569 C1575 1.390 . S
C1570 H1561 0.930 . S
C1570 C1568 1.384 . S
C1570 C1571 1.372 . S
C1571 C1570 1.372 . S
C1571 C1572 1.400 . S
C1571 C1576 1.490 . S
C1572 H1562 0.930 . S
C1572 C1571 1.400 . S
C1572 C1575 1.386 . S
H1573 C1589 0.930 . S
H1574 C1590 0.931 . S
C1575 H1563 0.929 . S
C1575 C1569 1.390 . S
C1575 C1572 1.386 . S
C1576 C1571 1.490 . S
C1576 C1578 1.395 . S
C1576 C1579 1.403 . S
H1577 C1583 0.930 . S
C1578 H1564 0.930 . S
C1578 C1576 1.395 . S
C1578 C1581 1.403 . S
C1579 C1576 1.403 . S
C1579 C1580 1.524 . S
C1579 C1583 1.400 . S
C1580 H1565 0.960 . S
C1580 H1566 0.960 . S
C1580 H1567 0.960 . S
C1580 C1579 1.524 . S
C1581 C1578 1.403 . S
C1581 C1582 1.392 . S
C1581 C1585 1.495 . S
C1582 C1581 1.392 . S
C1582 C1583 1.385 . S
C1582 C1584 1.478 . S
C1583 H1577 0.930 . S
C1583 C1579 1.400 . S
C1583 C1582 1.385 . S
C1584 C1582 1.478 . S
C1584 C1586 1.381 . S
C1584 C1590 1.383 . S
C1585 C1581 1.495 . S
C1585 H1591 0.959 . S
C1585 H1592 0.961 . S
C1585 H1593 0.960 . S
C1586 C1584 1.381 . S
C1586 C1587 1.394 . S
C1586 H1594 0.930 . S
C1587 C1586 1.394 . S
C1587 C1588 1.383 . S
C1587 H1595 0.929 . S
C1588 C1587 1.383 . S
C1588 C1589 1.377 . S
C1589 H1573 0.930 . S
C1589 C1588 1.377 . S
C1589 C1590 1.379 . S
C1590 H1574 0.931 . S
C1590 C1584 1.383 . S
C1590 C1589 1.379 . S
H1591 C1585 0.959 . S
H1592 C1585 0.961 . S
H1593 C1585 0.960 . S
H1594 C1586 0.930 . S
H1595 C1587 0.929 . S
H1596 C1604 0.929 . S
H1597 C1606 0.930 . S
H1598 C1608 0.930 . S
H1599 C1611 0.929 . S
H1600 C1614 0.930 . S
H1601 C1616 0.960 . S
H1602 C1616 0.960 . S
H1603 C1616 0.960 . S
C1604 H1596 0.929 . S
C1604 C1605 1.377 . S
C1604 C1606 1.384 . S
C1605 C1604 1.377 . S
C1605 C1611 1.390 . S
C1606 H1597 0.930 . S
C1606 C1604 1.384 . S
C1606 C1607 1.372 . S
C1607 C1606 1.372 . S
C1607 C1608 1.400 . S
C1607 C1612 1.490 . S
C1608 H1598 0.930 . S
C1608 C1607 1.400 . S
C1608 C1611 1.386 . S
H1609 C1625 0.930 . S
H1610 C1626 0.931 . S
C1611 H1599 0.929 . S
C1611 C1605 1.390 . S
C1611 C1608 1.386 . S
C1612 C1607 1.490 . S
C1612 C1614 1.395 . S
C1612 C1615 1.403 . S
H1613 C1619 0.930 . S
C1614 H1600 0.930 . S
C1614 C1612 1.395 . S
C1614 C1617 1.403 . S
C1615 C1612 1.403 . S
C1615 C1616 1.524 . S
C1615 C1619 1.400 . S
C1616 H1601 0.960 . S
C1616 H1602 0.960 . S
C1616 H1603 0.960 . S
C1616 C1615 1.524 . S
C1617 C1614 1.403 . S
C1617 C1618 1.392 . S
C1617 C1621 1.495 . S
C1618 C1617 1.392 . S
C1618 C1619 1.385 . S
C1618 C1620 1.478 . S
C1619 H1613 0.930 . S
C1619 C1615 1.400 . S
C1619 C1618 1.385 . S
C1620 C1618 1.478 . S
C1620 C1622 1.381 . S
C1620 C1626 1.383 . S
C1621 C1617 1.495 . S
C1621 H1627 0.959 . S
C1621 H1628 0.961 . S
C1621 H1629 0.960 . S
C1622 C1620 1.381 . S
C1622 C1623 1.394 . S
C1622 H1630 0.930 . S
C1623 C1622 1.394 . S
C1623 C1624 1.383 . S
C1623 H1631 0.929 . S
C1624 C1623 1.383 . S
C1624 C1625 1.377 . S
C1625 H1609 0.930 . S
C1625 C1624 1.377 . S
C1625 C1626 1.379 . S
C1626 H1610 0.931 . S
C1626 C1620 1.383 . S
C1626 C1625 1.379 . S
H1627 C1621 0.959 . S
H1628 C1621 0.961 . S
H1629 C1621 0.960 . S
H1630 C1622 0.930 . S
H1631 C1623 0.929 . S
H1632 C1640 0.929 . S
H1633 C1642 0.930 . S
H1634 C1644 0.930 . S
H1635 C1647 0.929 . S
H1636 C1650 0.930 . S
H1637 C1652 0.960 . S
H1638 C1652 0.960 . S
H1639 C1652 0.960 . S
C1640 H1632 0.929 . S
C1640 C1641 1.377 . S
C1640 C1642 1.384 . S
C1641 C1640 1.377 . S
C1641 C1647 1.390 . S
C1642 H1633 0.930 . S
C1642 C1640 1.384 . S
C1642 C1643 1.372 . S
C1643 C1642 1.372 . S
C1643 C1644 1.400 . S
C1643 C1648 1.490 . S
C1644 H1634 0.930 . S
C1644 C1643 1.400 . S
C1644 C1647 1.386 . S
H1645 C1661 0.930 . S
H1646 C1662 0.931 . S
C1647 H1635 0.929 . S
C1647 C1641 1.390 . S
C1647 C1644 1.386 . S
C1648 C1643 1.490 . S
C1648 C1650 1.395 . S
C1648 C1651 1.403 . S
H1649 C1655 0.930 . S
C1650 H1636 0.930 . S
C1650 C1648 1.395 . S
C1650 C1653 1.403 . S
C1651 C1648 1.403 . S
C1651 C1652 1.524 . S
C1651 C1655 1.400 . S
C1652 H1637 0.960 . S
C1652 H1638 0.960 . S
C1652 H1639 0.960 . S
C1652 C1651 1.524 . S
C1653 C1650 1.403 . S
C1653 C1654 1.392 . S
C1653 C1657 1.495 . S
C1654 C1653 1.392 . S
C1654 C1655 1.385 . S
C1654 C1656 1.478 . S
C1655 H1649 0.930 . S
C1655 C1651 1.400 . S
C1655 C1654 1.385 . S
C1656 C1654 1.478 . S
C1656 C1658 1.381 . S
C1656 C1662 1.383 . S
C1657 C1653 1.495 . S
C1657 H1663 0.959 . S
C1657 H1664 0.961 . S
C1657 H1665 0.960 . S
C1658 C1656 1.381 . S
C1658 C1659 1.394 . S
C1658 H1666 0.930 . S
C1659 C1658 1.394 . S
C1659 C1660 1.383 . S
C1659 H1667 0.929 . S
C1660 C1659 1.383 . S
C1660 C1661 1.377 . S
C1661 H1645 0.930 . S
C1661 C1660 1.377 . S
C1661 C1662 1.379 . S
C1662 H1646 0.931 . S
C1662 C1656 1.383 . S
C1662 C1661 1.379 . S
H1663 C1657 0.959 . S
H1664 C1657 0.961 . S
H1665 C1657 0.960 . S
H1666 C1658 0.930 . S
H1667 C1659 0.929 . S
H1668 C1676 0.929 . S
H1669 C1678 0.930 . S
H1670 C1680 0.930 . S
H1671 C1683 0.929 . S
H1672 C1686 0.930 . S
H1673 C1688 0.960 . S
H1674 C1688 0.960 . S
H1675 C1688 0.960 . S
C1676 H1668 0.929 . S
C1676 C1677 1.377 . S
C1676 C1678 1.384 . S
C1677 C1676 1.377 . S
C1677 C1683 1.390 . S
C1678 H1669 0.930 . S
C1678 C1676 1.384 . S
C1678 C1679 1.372 . S
C1679 C1678 1.372 . S
C1679 C1680 1.400 . S
C1679 C1684 1.490 . S
C1680 H1670 0.930 . S
C1680 C1679 1.400 . S
C1680 C1683 1.386 . S
H1681 C1697 0.930 . S
H1682 C1698 0.931 . S
C1683 H1671 0.929 . S
C1683 C1677 1.390 . S
C1683 C1680 1.386 . S
C1684 C1679 1.490 . S
C1684 C1686 1.395 . S
C1684 C1687 1.403 . S
H1685 C1691 0.930 . S
C1686 H1672 0.930 . S
C1686 C1684 1.395 . S
C1686 C1689 1.403 . S
C1687 C1684 1.403 . S
C1687 C1688 1.524 . S
C1687 C1691 1.400 . S
C1688 H1673 0.960 . S
C1688 H1674 0.960 . S
C1688 H1675 0.960 . S
C1688 C1687 1.524 . S
C1689 C1686 1.403 . S
C1689 C1690 1.392 . S
C1689 C1693 1.495 . S
C1690 C1689 1.392 . S
C1690 C1691 1.385 . S
C1690 C1692 1.478 . S
C1691 H1685 0.930 . S
C1691 C1687 1.400 . S
C1691 C1690 1.385 . S
C1692 C1690 1.478 . S
C1692 C1694 1.381 . S
C1692 C1698 1.383 . S
C1693 C1689 1.495 . S
C1693 H1699 0.959 . S
C1693 H1700 0.961 . S
C1693 H1701 0.960 . S
C1694 C1692 1.381 . S
C1694 C1695 1.394 . S
C1694 H1702 0.930 . S
C1695 C1694 1.394 . S
C1695 C1696 1.383 . S
C1695 H1703 0.929 . S
C1696 C1695 1.383 . S
C1696 C1697 1.377 . S
C1697 H1681 0.930 . S
C1697 C1696 1.377 . S
C1697 C1698 1.379 . S
C1698 H1682 0.931 . S
C1698 C1692 1.383 . S
C1698 C1697 1.379 . S
H1699 C1693 0.959 . S
H1700 C1693 0.961 . S
H1701 C1693 0.960 . S
H1702 C1694 0.930 . S
H1703 C1695 0.929 . S
H1704 C1712 0.929 . S
H1705 C1714 0.930 . S
H1706 C1716 0.930 . S
H1707 C1719 0.929 . S
H1708 C1722 0.930 . S
H1709 C1724 0.960 . S
H1710 C1724 0.960 . S
H1711 C1724 0.960 . S
C1712 H1704 0.929 . S
C1712 C1713 1.377 . S
C1712 C1714 1.384 . S
C1713 C1712 1.377 . S
C1713 C1719 1.390 . S
C1714 H1705 0.930 . S
C1714 C1712 1.384 . S
C1714 C1715 1.372 . S
C1715 C1714 1.372 . S
C1715 C1716 1.400 . S
C1715 C1720 1.490 . S
C1716 H1706 0.930 . S
C1716 C1715 1.400 . S
C1716 C1719 1.386 . S
H1717 C1733 0.930 . S
H1718 C1734 0.931 . S
C1719 H1707 0.929 . S
C1719 C1713 1.390 . S
C1719 C1716 1.386 . S
C1720 C1715 1.490 . S
C1720 C1722 1.395 . S
C1720 C1723 1.403 . S
H1721 C1727 0.930 . S
C1722 H1708 0.930 . S
C1722 C1720 1.395 . S
C1722 C1725 1.403 . S
C1723 C1720 1.403 . S
C1723 C1724 1.524 . S
C1723 C1727 1.400 . S
C1724 H1709 0.960 . S
C1724 H1710 0.960 . S
C1724 H1711 0.960 . S
C1724 C1723 1.524 . S
C1725 C1722 1.403 . S
C1725 C1726 1.392 . S
C1725 C1729 1.495 . S
C1726 C1725 1.392 . S
C1726 C1727 1.385 . S
C1726 C1728 1.478 . S
C1727 H1721 0.930 . S
C1727 C1723 1.400 . S
C1727 C1726 1.385 . S
C1728 C1726 1.478 . S
C1728 C1730 1.381 . S
C1728 C1734 1.383 . S
C1729 C1725 1.495 . S
C1729 H1735 0.959 . S
C1729 H1736 0.961 . S
C1729 H1737 0.960 . S
C1730 C1728 1.381 . S
C1730 C1731 1.394 . S
C1730 H1738 0.930 . S
C1731 C1730 1.394 . S
C1731 C1732 1.383 . S
C1731 H1739 0.929 . S
C1732 C1731 1.383 . S
C1732 C1733 1.377 . S
C1733 H1717 0.930 . S
C1733 C1732 1.377 . S
C1733 C1734 1.379 . S
C1734 H1718 0.931 . S
C1734 C1728 1.383 . S
C1734 C1733 1.379 . S
H1735 C1729 0.959 . S
H1736 C1729 0.961 . S
H1737 C1729 0.960 . S
H1738 C1730 0.930 . S
H1739 C1731 0.929 . S
H1740 C1748 0.929 . S
H1741 C1750 0.930 . S
H1742 C1752 0.930 . S
H1743 C1755 0.929 . S
H1744 C1758 0.930 . S
H1745 C1760 0.960 . S
H1746 C1760 0.960 . S
H1747 C1760 0.960 . S
C1748 H1740 0.929 . S
C1748 C1749 1.377 . S
C1748 C1750 1.384 . S
C1749 C1748 1.377 . S
C1749 C1755 1.390 . S
C1750 H1741 0.930 . S
C1750 C1748 1.384 . S
C1750 C1751 1.372 . S
C1751 C1750 1.372 . S
C1751 C1752 1.400 . S
C1751 C1756 1.490 . S
C1752 H1742 0.930 . S
C1752 C1751 1.400 . S
C1752 C1755 1.386 . S
H1753 C1769 0.930 . S
H1754 C1770 0.931 . S
C1755 H1743 0.929 . S
C1755 C1749 1.390 . S
C1755 C1752 1.386 . S
C1756 C1751 1.490 . S
C1756 C1758 1.395 . S
C1756 C1759 1.403 . S
H1757 C1763 0.930 . S
C1758 H1744 0.930 . S
C1758 C1756 1.395 . S
C1758 C1761 1.403 . S
C1759 C1756 1.403 . S
C1759 C1760 1.524 . S
C1759 C1763 1.400 . S
C1760 H1745 0.960 . S
C1760 H1746 0.960 . S
C1760 H1747 0.960 . S
C1760 C1759 1.524 . S
C1761 C1758 1.403 . S
C1761 C1762 1.392 . S
C1761 C1765 1.495 . S
C1762 C1761 1.392 . S
C1762 C1763 1.385 . S
C1762 C1764 1.478 . S
C1763 H1757 0.930 . S
C1763 C1759 1.400 . S
C1763 C1762 1.385 . S
C1764 C1762 1.478 . S
C1764 C1766 1.381 . S
C1764 C1770 1.383 . S
C1765 C1761 1.495 . S
C1765 H1771 0.959 . S
C1765 H1772 0.961 . S
C1765 H1773 0.960 . S
C1766 C1764 1.381 . S
C1766 C1767 1.394 . S
C1766 H1774 0.930 . S
C1767 C1766 1.394 . S
C1767 C1768 1.383 . S
C1767 H1775 0.929 . S
C1768 C1767 1.383 . S
C1768 C1769 1.377 . S
C1769 H1753 0.930 . S
C1769 C1768 1.377 . S
C1769 C1770 1.379 . S
C1770 H1754 0.931 . S
C1770 C1764 1.383 . S
C1770 C1769 1.379 . S
H1771 C1765 0.959 . S
H1772 C1765 0.961 . S
H1773 C1765 0.960 . S
H1774 C1766 0.930 . S
H1775 C1767 0.929 . S
H1776 C1784 0.929 . S
H1777 C1786 0.930 . S
H1778 C1788 0.930 . S
H1779 C1791 0.929 . S
H1780 C1794 0.930 . S
H1781 C1796 0.960 . S
H1782 C1796 0.960 . S
H1783 C1796 0.960 . S
C1784 H1776 0.929 . S
C1784 C1785 1.377 . S
C1784 C1786 1.384 . S
C1785 C1784 1.377 . S
C1785 C1791 1.390 . S
C1786 H1777 0.930 . S
C1786 C1784 1.384 . S
C1786 C1787 1.372 . S
C1787 C1786 1.372 . S
C1787 C1788 1.400 . S
C1787 C1792 1.490 . S
C1788 H1778 0.930 . S
C1788 C1787 1.400 . S
C1788 C1791 1.386 . S
H1789 C1805 0.930 . S
H1790 C1806 0.931 . S
C1791 H1779 0.929 . S
C1791 C1785 1.390 . S
C1791 C1788 1.386 . S
C1792 C1787 1.490 . S
C1792 C1794 1.395 . S
C1792 C1795 1.403 . S
H1793 C1799 0.930 . S
C1794 H1780 0.930 . S
C1794 C1792 1.395 . S
C1794 C1797 1.403 . S
C1795 C1792 1.403 . S
C1795 C1796 1.524 . S
C1795 C1799 1.400 . S
C1796 H1781 0.960 . S
C1796 H1782 0.960 . S
C1796 H1783 0.960 . S
C1796 C1795 1.524 . S
C1797 C1794 1.403 . S
C1797 C1798 1.392 . S
C1797 C1801 1.495 . S
C1798 C1797 1.392 . S
C1798 C1799 1.385 . S
C1798 C1800 1.478 . S
C1799 H1793 0.930 . S
C1799 C1795 1.400 . S
C1799 C1798 1.385 . S
C1800 C1798 1.478 . S
C1800 C1802 1.381 . S
C1800 C1806 1.383 . S
C1801 C1797 1.495 . S
C1801 H1807 0.959 . S
C1801 H1808 0.961 . S
C1801 H1809 0.960 . S
C1802 C1800 1.381 . S
C1802 C1803 1.394 . S
C1802 H1810 0.930 . S
C1803 C1802 1.394 . S
C1803 C1804 1.383 . S
C1803 H1811 0.929 . S
C1804 C1803 1.383 . S
C1804 C1805 1.377 . S
C1805 H1789 0.930 . S
C1805 C1804 1.377 . S
C1805 C1806 1.379 . S
C1806 H1790 0.931 . S
C1806 C1800 1.383 . S
C1806 C1805 1.379 . S
H1807 C1801 0.959 . S
H1808 C1801 0.961 . S
H1809 C1801 0.960 . S
H1810 C1802 0.930 . S
H1811 C1803 0.929 . S
H1812 C1820 0.929 . S
H1813 C1822 0.930 . S
H1814 C1824 0.930 . S
H1815 C1827 0.929 . S
H1816 C1830 0.930 . S
H1817 C1832 0.960 . S
H1818 C1832 0.960 . S
H1819 C1832 0.960 . S
C1820 H1812 0.929 . S
C1820 C1821 1.377 . S
C1820 C1822 1.384 . S
C1821 C1820 1.377 . S
C1821 C1827 1.390 . S
C1822 H1813 0.930 . S
C1822 C1820 1.384 . S
C1822 C1823 1.372 . S
C1823 C1822 1.372 . S
C1823 C1824 1.400 . S
C1823 C1828 1.490 . S
C1824 H1814 0.930 . S
C1824 C1823 1.400 . S
C1824 C1827 1.386 . S
H1825 C1841 0.930 . S
H1826 C1842 0.931 . S
C1827 H1815 0.929 . S
C1827 C1821 1.390 . S
C1827 C1824 1.386 . S
C1828 C1823 1.490 . S
C1828 C1830 1.395 . S
C1828 C1831 1.403 . S
H1829 C1835 0.930 . S
C1830 H1816 0.930 . S
C1830 C1828 1.395 . S
C1830 C1833 1.403 . S
C1831 C1828 1.403 . S
C1831 C1832 1.524 . S
C1831 C1835 1.400 . S
C1832 H1817 0.960 . S
C1832 H1818 0.960 . S
C1832 H1819 0.960 . S
C1832 C1831 1.524 . S
C1833 C1830 1.403 . S
C1833 C1834 1.392 . S
C1833 C1837 1.495 . S
C1834 C1833 1.392 . S
C1834 C1835 1.385 . S
C1834 C1836 1.478 . S
C1835 H1829 0.930 . S
C1835 C1831 1.400 . S
C1835 C1834 1.385 . S
C1836 C1834 1.478 . S
C1836 C1838 1.381 . S
C1836 C1842 1.383 . S
C1837 C1833 1.495 . S
C1837 H1843 0.959 . S
C1837 H1844 0.961 . S
C1837 H1845 0.960 . S
C1838 C1836 1.381 . S
C1838 C1839 1.394 . S
C1838 H1846 0.930 . S
C1839 C1838 1.394 . S
C1839 C1840 1.383 . S
C1839 H1847 0.929 . S
C1840 C1839 1.383 . S
C1840 C1841 1.377 . S
C1841 H1825 0.930 . S
C1841 C1840 1.377 . S
C1841 C1842 1.379 . S
C1842 H1826 0.931 . S
C1842 C1836 1.383 . S
C1842 C1841 1.379 . S
H1843 C1837 0.959 . S
H1844 C1837 0.961 . S
H1845 C1837 0.960 . S
H1846 C1838 0.930 . S
H1847 C1839 0.929 . S
H1848 C1856 0.929 . S
H1849 C1858 0.930 . S
H1850 C1860 0.930 . S
H1851 C1863 0.929 . S
H1852 C1866 0.930 . S
H1853 C1868 0.960 . S
H1854 C1868 0.960 . S
H1855 C1868 0.960 . S
C1856 H1848 0.929 . S
C1856 C1857 1.377 . S
C1856 C1858 1.384 . S
C1857 C1856 1.377 . S
C1857 C1863 1.390 . S
C1858 H1849 0.930 . S
C1858 C1856 1.384 . S
C1858 C1859 1.372 . S
C1859 C1858 1.372 . S
C1859 C1860 1.400 . S
C1859 C1864 1.490 . S
C1860 H1850 0.930 . S
C1860 C1859 1.400 . S
C1860 C1863 1.386 . S
H1861 C1877 0.930 . S
H1862 C1878 0.931 . S
C1863 H1851 0.929 . S
C1863 C1857 1.390 . S
C1863 C1860 1.386 . S
C1864 C1859 1.490 . S
C1864 C1866 1.395 . S
C1864 C1867 1.403 . S
H1865 C1871 0.930 . S
C1866 H1852 0.930 . S
C1866 C1864 1.395 . S
C1866 C1869 1.403 . S
C1867 C1864 1.403 . S
C1867 C1868 1.524 . S
C1867 C1871 1.400 . S
C1868 H1853 0.960 . S
C1868 H1854 0.960 . S
C1868 H1855 0.960 . S
C1868 C1867 1.524 . S
C1869 C1866 1.403 . S
C1869 C1870 1.392 . S
C1869 C1873 1.495 . S
C1870 C1869 1.392 . S
C1870 C1871 1.385 . S
C1870 C1872 1.478 . S
C1871 H1865 0.930 . S
C1871 C1867 1.400 . S
C1871 C1870 1.385 . S
C1872 C1870 1.478 . S
C1872 C1874 1.381 . S
C1872 C1878 1.383 . S
C1873 C1869 1.495 . S
C1873 H1879 0.959 . S
C1873 H1880 0.961 . S
C1873 H1881 0.960 . S
C1874 C1872 1.381 . S
C1874 C1875 1.394 . S
C1874 H1882 0.930 . S
C1875 C1874 1.394 . S
C1875 C1876 1.383 . S
C1875 H1883 0.929 . S
C1876 C1875 1.383 . S
C1876 C1877 1.377 . S
C1877 H1861 0.930 . S
C1877 C1876 1.377 . S
C1877 C1878 1.379 . S
C1878 H1862 0.931 . S
C1878 C1872 1.383 . S
C1878 C1877 1.379 . S
H1879 C1873 0.959 . S
H1880 C1873 0.961 . S
H1881 C1873 0.960 . S
H1882 C1874 0.930 . S
H1883 C1875 0.929 . S
H1884 C1892 0.929 . S
H1885 C1894 0.930 . S
H1886 C1896 0.930 . S
H1887 C1899 0.929 . S
H1888 C1902 0.930 . S
H1889 C1904 0.960 . S
H1890 C1904 0.960 . S
H1891 C1904 0.960 . S
C1892 H1884 0.929 . S
C1892 C1893 1.377 . S
C1892 C1894 1.384 . S
C1893 C1892 1.377 . S
C1893 C1899 1.390 . S
C1894 H1885 0.930 . S
C1894 C1892 1.384 . S
C1894 C1895 1.372 . S
C1895 C1894 1.372 . S
C1895 C1896 1.400 . S
C1895 C1900 1.490 . S
C1896 H1886 0.930 . S
C1896 C1895 1.400 . S
C1896 C1899 1.386 . S
H1897 C1913 0.930 . S
H1898 C1914 0.931 . S
C1899 H1887 0.929 . S
C1899 C1893 1.390 . S
C1899 C1896 1.386 . S
C1900 C1895 1.490 . S
C1900 C1902 1.395 . S
C1900 C1903 1.403 . S
H1901 C1907 0.930 . S
C1902 H1888 0.930 . S
C1902 C1900 1.395 . S
C1902 C1905 1.403 . S
C1903 C1900 1.403 . S
C1903 C1904 1.524 . S
C1903 C1907 1.400 . S
C1904 H1889 0.960 . S
C1904 H1890 0.960 . S
C1904 H1891 0.960 . S
C1904 C1903 1.524 . S
C1905 C1902 1.403 . S
C1905 C1906 1.392 . S
C1905 C1909 1.495 . S
C1906 C1905 1.392 . S
C1906 C1907 1.385 . S
C1906 C1908 1.478 . S
C1907 H1901 0.930 . S
C1907 C1903 1.400 . S
C1907 C1906 1.385 . S
C1908 C1906 1.478 . S
C1908 C1910 1.381 . S
C1908 C1914 1.383 . S
C1909 C1905 1.495 . S
C1909 H1915 0.959 . S
C1909 H1916 0.961 . S
C1909 H1917 0.960 . S
C1910 C1908 1.381 . S
C1910 C1911 1.394 . S
C1910 H1918 0.930 . S
C1911 C1910 1.394 . S
C1911 C1912 1.383 . S
C1911 H1919 0.929 . S
C1912 C1911 1.383 . S
C1912 C1913 1.377 . S
C1913 H1897 0.930 . S
C1913 C1912 1.377 . S
C1913 C1914 1.379 . S
C1914 H1898 0.931 . S
C1914 C1908 1.383 . S
C1914 C1913 1.379 . S
H1915 C1909 0.959 . S
H1916 C1909 0.961 . S
H1917 C1909 0.960 . S
H1918 C1910 0.930 . S
H1919 C1911 0.929 . S
H1920 C1928 0.929 . S
H1921 C1930 0.930 . S
H1922 C1932 0.930 . S
H1923 C1935 0.929 . S
H1924 C1938 0.930 . S
H1925 C1940 0.960 . S
H1926 C1940 0.960 . S
H1927 C1940 0.960 . S
C1928 H1920 0.929 . S
C1928 C1929 1.377 . S
C1928 C1930 1.384 . S
C1929 C1928 1.377 . S
C1929 C1935 1.390 . S
C1930 H1921 0.930 . S
C1930 C1928 1.384 . S
C1930 C1931 1.372 . S
C1931 C1930 1.372 . S
C1931 C1932 1.400 . S
C1931 C1936 1.490 . S
C1932 H1922 0.930 . S
C1932 C1931 1.400 . S
C1932 C1935 1.386 . S
H1933 C1949 0.930 . S
H1934 C1950 0.931 . S
C1935 H1923 0.929 . S
C1935 C1929 1.390 . S
C1935 C1932 1.386 . S
C1936 C1931 1.490 . S
C1936 C1938 1.395 . S
C1936 C1939 1.403 . S
H1937 C1943 0.930 . S
C1938 H1924 0.930 . S
C1938 C1936 1.395 . S
C1938 C1941 1.403 . S
C1939 C1936 1.403 . S
C1939 C1940 1.524 . S
C1939 C1943 1.400 . S
C1940 H1925 0.960 . S
C1940 H1926 0.960 . S
C1940 H1927 0.960 . S
C1940 C1939 1.524 . S
C1941 C1938 1.403 . S
C1941 C1942 1.392 . S
C1941 C1945 1.495 . S
C1942 C1941 1.392 . S
C1942 C1943 1.385 . S
C1942 C1944 1.478 . S
C1943 H1937 0.930 . S
C1943 C1939 1.400 . S
C1943 C1942 1.385 . S
C1944 C1942 1.478 . S
C1944 C1946 1.381 . S
C1944 C1950 1.383 . S
C1945 C1941 1.495 . S
C1945 H1951 0.959 . S
C1945 H1952 0.961 . S
C1945 H1953 0.960 . S
C1946 C1944 1.381 . S
C1946 C1947 1.394 . S
C1946 H1954 0.930 . S
C1947 C1946 1.394 . S
C1947 C1948 1.383 . S
C1947 H1955 0.929 . S
C1948 C1947 1.383 . S
C1948 C1949 1.377 . S
C1949 H1933 0.930 . S
C1949 C1948 1.377 . S
C1949 C1950 1.379 . S
C1950 H1934 0.931 . S
C1950 C1944 1.383 . S
C1950 C1949 1.379 . S
H1951 C1945 0.959 . S
H1952 C1945 0.961 . S
H1953 C1945 0.960 . S
H1954 C1946 0.930 . S
H1955 C1947 0.929 . S
H1956 C1964 0.929 . S
H1957 C1966 0.930 . S
H1958 C1968 0.930 . S
H1959 C1971 0.929 . S
H1960 C1974 0.930 . S
H1961 C1976 0.960 . S
H1962 C1976 0.960 . S
H1963 C1976 0.960 . S
C1964 H1956 0.929 . S
C1964 C1965 1.377 . S
C1964 C1966 1.384 . S
C1965 C1964 1.377 . S
C1965 C1971 1.390 . S
C1966 H1957 0.930 . S
C1966 C1964 1.384 . S
C1966 C1967 1.372 . S
C1967 C1966 1.372 . S
C1967 C1968 1.400 . S
C1967 C1972 1.490 . S
C1968 H1958 0.930 . S
C1968 C1967 1.400 . S
C1968 C1971 1.386 . S
H1969 C1985 0.930 . S
H1970 C1986 0.931 . S
C1971 H1959 0.929 . S
C1971 C1965 1.390 . S
C1971 C1968 1.386 . S
C1972 C1967 1.490 . S
C1972 C1974 1.395 . S
C1972 C1975 1.403 . S
H1973 C1979 0.930 . S
C1974 H1960 0.930 . S
C1974 C1972 1.395 . S
C1974 C1977 1.403 . S
C1975 C1972 1.403 . S
C1975 C1976 1.524 . S
C1975 C1979 1.400 . S
C1976 H1961 0.960 . S
C1976 H1962 0.960 . S
C1976 H1963 0.960 . S
C1976 C1975 1.524 . S
C1977 C1974 1.403 . S
C1977 C1978 1.392 . S
C1977 C1981 1.495 . S
C1978 C1977 1.392 . S
C1978 C1979 1.385 . S
C1978 C1980 1.478 . S
C1979 H1973 0.930 . S
C1979 C1975 1.400 . S
C1979 C1978 1.385 . S
C1980 C1978 1.478 . S
C1980 C1982 1.381 . S
C1980 C1986 1.383 . S
C1981 C1977 1.495 . S
C1981 H1987 0.959 . S
C1981 H1988 0.961 . S
C1981 H1989 0.960 . S
C1982 C1980 1.381 . S
C1982 C1983 1.394 . S
C1982 H1990 0.930 . S
C1983 C1982 1.394 . S
C1983 C1984 1.383 . S
C1983 H1991 0.929 . S
C1984 C1983 1.383 . S
C1984 C1985 1.377 . S
C1985 H1969 0.930 . S
C1985 C1984 1.377 . S
C1985 C1986 1.379 . S
C1986 H1970 0.931 . S
C1986 C1980 1.383 . S
C1986 C1985 1.379 . S
H1987 C1981 0.959 . S
H1988 C1981 0.961 . S
H1989 C1981 0.960 . S
H1990 C1982 0.930 . S
H1991 C1983 0.929 . S
H1992 C2000 0.929 . S
H1993 C2002 0.930 . S
H1994 C2004 0.930 . S
H1995 C2007 0.929 . S
H1996 C2010 0.930 . S
H1997 C2012 0.960 . S
H1998 C2012 0.960 . S
H1999 C2012 0.960 . S
C2000 H1992 0.929 . S
C2000 C2001 1.377 . S
C2000 C2002 1.384 . S
C2001 C2000 1.377 . S
C2001 C2007 1.390 . S
C2002 H1993 0.930 . S
C2002 C2000 1.384 . S
C2002 C2003 1.372 . S
C2003 C2002 1.372 . S
C2003 C2004 1.400 . S
C2003 C2008 1.490 . S
C2004 H1994 0.930 . S
C2004 C2003 1.400 . S
C2004 C2007 1.386 . S
H2005 C2021 0.930 . S
H2006 C2022 0.931 . S
C2007 H1995 0.929 . S
C2007 C2001 1.390 . S
C2007 C2004 1.386 . S
C2008 C2003 1.490 . S
C2008 C2010 1.395 . S
C2008 C2011 1.403 . S
H2009 C2015 0.930 . S
C2010 H1996 0.930 . S
C2010 C2008 1.395 . S
C2010 C2013 1.403 . S
C2011 C2008 1.403 . S
C2011 C2012 1.524 . S
C2011 C2015 1.400 . S
C2012 H1997 0.960 . S
C2012 H1998 0.960 . S
C2012 H1999 0.960 . S
C2012 C2011 1.524 . S
C2013 C2010 1.403 . S
C2013 C2014 1.392 . S
C2013 C2017 1.495 . S
C2014 C2013 1.392 . S
C2014 C2015 1.385 . S
C2014 C2016 1.478 . S
C2015 H2009 0.930 . S
C2015 C2011 1.400 . S
C2015 C2014 1.385 . S
C2016 C2014 1.478 . S
C2016 C2018 1.381 . S
C2016 C2022 1.383 . S
C2017 C2013 1.495 . S
C2017 H2023 0.959 . S
C2017 H2024 0.961 . S
C2017 H2025 0.960 . S
C2018 C2016 1.381 . S
C2018 C2019 1.394 . S
C2018 H2026 0.930 . S
C2019 C2018 1.394 . S
C2019 C2020 1.383 . S
C2019 H2027 0.929 . S
C2020 C2019 1.383 . S
C2020 C2021 1.377 . S
C2021 H2005 0.930 . S
C2021 C2020 1.377 . S
C2021 C2022 1.379 . S
C2022 H2006 0.931 . S
C2022 C2016 1.383 . S
C2022 C2021 1.379 . S
H2023 C2017 0.959 . S
H2024 C2017 0.961 . S
H2025 C2017 0.960 . S
H2026 C2018 0.930 . S
H2027 C2019 0.929 . S
H2028 C2036 0.929 . S
H2029 C2038 0.930 . S
H2030 C2040 0.930 . S
H2031 C2043 0.929 . S
H2032 C2046 0.930 . S
H2033 C2048 0.960 . S
H2034 C2048 0.960 . S
H2035 C2048 0.960 . S
C2036 H2028 0.929 . S
C2036 C2037 1.377 . S
C2036 C2038 1.384 . S
C2037 C2036 1.377 . S
C2037 C2043 1.390 . S
C2038 H2029 0.930 . S
C2038 C2036 1.384 . S
C2038 C2039 1.372 . S
C2039 C2038 1.372 . S
C2039 C2040 1.400 . S
C2039 C2044 1.490 . S
C2040 H2030 0.930 . S
C2040 C2039 1.400 . S
C2040 C2043 1.386 . S
H2041 C2057 0.930 . S
H2042 C2058 0.931 . S
C2043 H2031 0.929 . S
C2043 C2037 1.390 . S
C2043 C2040 1.386 . S
C2044 C2039 1.490 . S
C2044 C2046 1.395 . S
C2044 C2047 1.403 . S
H2045 C2051 0.930 . S
C2046 H2032 0.930 . S
C2046 C2044 1.395 . S
C2046 C2049 1.403 . S
C2047 C2044 1.403 . S
C2047 C2048 1.524 . S
C2047 C2051 1.400 . S
C2048 H2033 0.960 . S
C2048 H2034 0.960 . S
C2048 H2035 0.960 . S
C2048 C2047 1.524 . S
C2049 C2046 1.403 . S
C2049 C2050 1.392 . S
C2049 C2053 1.495 . S
C2050 C2049 1.392 . S
C2050 C2051 1.385 . S
C2050 C2052 1.478 . S
C2051 H2045 0.930 . S
C2051 C2047 1.400 . S
C2051 C2050 1.385 . S
C2052 C2050 1.478 . S
C2052 C2054 1.381 . S
C2052 C2058 1.383 . S
C2053 C2049 1.495 . S
C2053 H2059 0.959 . S
C2053 H2060 0.961 . S
C2053 H2061 0.960 . S
C2054 C2052 1.381 . S
C2054 C2055 1.394 . S
C2054 H2062 0.930 . S
C2055 C2054 1.394 . S
C2055 C2056 1.383 . S
C2055 H2063 0.929 . S
C2056 C2055 1.383 . S
C2056 C2057 1.377 . S
C2057 H2041 0.930 . S
C2057 C2056 1.377 . S
C2057 C2058 1.379 . S
C2058 H2042 0.931 . S
C2058 C2052 1.383 . S
C2058 C2057 1.379 . S
H2059 C2053 0.959 . S
H2060 C2053 0.961 . S
H2061 C2053 0.960 . S
H2062 C2054 0.930 . S
H2063 C2055 0.929 . S
C345 C311 2.030 . S
C364 C8 1.987 . S
C381 C17 1.997 . S
C400 C232 1.922 . S
C417 C325 1.961 . S
C436 C36 1.918 . S
C453 C302 1.941 . S
C472 C50 1.968 . S
C489 C260 1.971 . S
C508 C64 1.933 . S
C525 C269 1.858 . S
C544 C73 1.989 . S
C561 C288 2.010 . S
C580 C87 1.909 . S
C597 C101 1.971 . S
C616 C241 1.879 . S
C633 C185 2.025 . S
C652 C115 1.901 . S
C669 C204 1.909 . S
C688 C134 1.945 . S
C705 C143 1.927 . S
C724 C213 2.036 . S
C741 C162 1.961 . S
C760 C176 1.926 . S
C777 C106 1.966 . S
C796 C199 2.011 . S
C813 C218 1.947 . S
C832 C59 1.985 . S
C849 C78 1.903 . S
C868 C171 1.962 . S
C885 C190 1.934 . S
C904 C92 1.988 . S
C921 C148 1.976 . S
C940 C22 1.909 . S
C957 C31 1.980 . S
C976 C157 1.880 . S
C993 C45 1.897 . S
C1012 C120 2.004 . S
C1029 C3 1.969 . S
C1048 C129 1.877 . S
C1065 C283 1.910 . S
C1084 C297 2.017 . S
C1101 C316 1.911 . S
C1120 C246 1.978 . S
C1137 C255 1.917 . S
C1156 C227 2.031 . S
C1173 C330 1.909 . S
C1192 C274 1.941 . S
C1209 C9 0.671 . S
C1228 C121 0.532 . S
C1245 C133 0.588 . S
C1264 C21 0.541 . S
C1281 C37 0.644 . S
C1300 C149 0.454 . S
C1317 C51 0.513 . S
C1336 C161 0.662 . S
C1353 C65 0.674 . S
C1372 C175 0.488 . S
C1389 C77 0.528 . S
C1408 C191 0.583 . S
C1425 C203 0.477 . S
C1444 C91 0.622 . S
C1461 C219 0.663 . S
C1480 C105 0.516 . S
C1497 C119 0.618 . S
C1516 C231 0.535 . S
C1533 C135 0.493 . S
C1552 C331 0.573 . S
C1569 C301 0.581 . S
C1588 C147 0.590 . S
C1605 C317 0.644 . S
C1624 C163 0.448 . S
C1641 C247 0.511 . S
C1660 C177 0.759 . S
C1677 C259 0.624 . S
C1696 C189 0.548 . S
C1713 C205 0.668 . S
C1732 C275 0.532 . S
C1749 C217 0.567 . S
C1768 C287 0.675 . S
C1785 C7 0.574 . S
C1804 C233 0.754 . S
C1821 C245 0.615 . S
C1840 C63 0.500 . S
C1857 C261 0.520 . S
C1876 C79 0.747 . S
C1893 C273 0.588 . S
C1912 C93 0.442 . S
C1929 C289 0.569 . S
C1948 C107 0.633 . S
C1965 C303 0.677 . S
C1984 C35 0.586 . S
C2001 C49 0.603 . S
C2020 C315 0.535 . S
C2037 C329 0.486 . S
C2056 C23 0.640 . S
