# Generated by pormake.
# Topology dft, (4)-cn, num edge types: 1
# Building blocks:
#     Node 0, Type 0, BuildingBlock: TATPOV_clean_sbu_0, # of connection points: 4
#     Node 1, Type 0, BuildingBlock: TATPOV_clean_sbu_0, # of connection points: 4
#     Node 2, Type 0, BuildingBlock: TATPOV_clean_sbu_0, # of connection points: 4
#     Node 3, Type 0, BuildingBlock: TATPOV_clean_sbu_0, # of connection points: 4
#     Node 4, Type 0, BuildingBlock: TATPOV_clean_sbu_0, # of connection points: 4
#     Node 5, Type 0, BuildingBlock: TATPOV_clean_sbu_0, # of connection points: 4
#     Node 6, Type 0, BuildingBlock: TATPOV_clean_sbu_0, # of connection points: 4
#     Node 7, Type 0, BuildingBlock: TATPOV_clean_sbu_0, # of connection points: 4
#     Edge 8, Type (0, 0), BuildingBlock: FUNLAD_clean_linker_0, # of connection points: 2
#     Edge 9, Type (0, 0), BuildingBlock: FUNLAD_clean_linker_0, # of connection points: 2
#     Edge 10, Type (0, 0), BuildingBlock: FUNLAD_clean_linker_0, # of connection points: 2
#     Edge 11, Type (0, 0), BuildingBlock: FUNLAD_clean_linker_0, # of connection points: 2
#     Edge 12, Type (0, 0), BuildingBlock: FUNLAD_clean_linker_0, # of connection points: 2
#     Edge 13, Type (0, 0), BuildingBlock: FUNLAD_clean_linker_0, # of connection points: 2
#     Edge 14, Type (0, 0), BuildingBlock: FUNLAD_clean_linker_0, # of connection points: 2
#     Edge 15, Type (0, 0), BuildingBlock: FUNLAD_clean_linker_0, # of connection points: 2
#     Edge 16, Type (0, 0), BuildingBlock: FUNLAD_clean_linker_0, # of connection points: 2
#     Edge 17, Type (0, 0), BuildingBlock: FUNLAD_clean_linker_0, # of connection points: 2
#     Edge 18, Type (0, 0), BuildingBlock: FUNLAD_clean_linker_0, # of connection points: 2
#     Edge 19, Type (0, 0), BuildingBlock: FUNLAD_clean_linker_0, # of connection points: 2
#     Edge 20, Type (0, 0), BuildingBlock: FUNLAD_clean_linker_0, # of connection points: 2
#     Edge 21, Type (0, 0), BuildingBlock: FUNLAD_clean_linker_0, # of connection points: 2
#     Edge 22, Type (0, 0), BuildingBlock: FUNLAD_clean_linker_0, # of connection points: 2
#     Edge 23, Type (0, 0), BuildingBlock: FUNLAD_clean_linker_0, # of connection points: 2
# Relax obj value: 0.142
# Max RMSD: 0.143
# Mean RMSD: 0.143
data_MOF--net-dft--node1-TATPOV_clean_sbu_0--edge1-FUNLAD_clean_linker_0
_symmetry_space_group_name_H-M    P1
_symmetry_Int_Tables_number       1
_symmetry_cell_setting            triclinic
loop_
_symmetry_equiv_pos_as_xyz
'x, y, z'
_cell_length_a     39.116049
_cell_length_b     39.084639
_cell_length_c     47.682177
_cell_angle_alpha  89.844216
_cell_angle_beta   90.059989
_cell_angle_gamma 89.961662
loop_
_atom_site_label
_atom_site_type_symbol
_atom_site_fract_x
_atom_site_fract_y
_atom_site_fract_z
_atom_type_partial_charge
Zn0 Zn 0.23653 0.04432 0.14122 0.0
Zn1 Zn 0.29333 0.03557 0.17188 0.0
O2 O 0.2659 0.99311 0.1835 0.0
O3 O 0.21941 0.99964 0.15793 0.0
O4 O 0.3375 0.03276 0.19339 0.0
O5 O 0.26418 0.04513 0.10578 0.0
O6 O 0.31031 0.03442 0.13086 0.0
C7 C 0.23656 0.98262 0.17574 0.0
C8 C 0.24628 0.09858 0.17997 0.0
O9 O 0.27252 0.08085 0.18645 0.0
O10 O 0.22645 0.08862 0.16067 0.0
C11 C 0.35282 0.00491 0.19911 0.0
O12 O 0.33888 0.97575 0.19163 0.0
C13 C 0.29597 0.03937 0.10719 0.0
Zn14 Zn 0.00577 0.22347 0.65309 0.0
Zn15 Zn 0.01211 0.27784 0.68674 0.0
O16 O 0.05548 0.25025 0.69618 0.0
O17 O 0.05224 0.20735 0.66644 0.0
O18 O 0.01567 0.32081 0.7096 0.0
O19 O 0.00095 0.25398 0.61946 0.0
O20 O 0.01001 0.29836 0.64683 0.0
C21 C 0.06803 0.22299 0.68576 0.0
C22 C 0.95163 0.22837 0.69354 0.0
O23 O 0.96758 0.25536 0.70086 0.0
O24 O 0.9631 0.20996 0.67387 0.0
C25 C 0.04244 0.33908 0.70768 0.0
O26 O 0.06815 0.32792 0.69253 0.0
C27 C 0.00455 0.2859 0.6226 0.0
Zn28 Zn 0.76434 0.02794 0.12529 0.0
Zn29 Zn 0.71093 0.0254 0.1617 0.0
O30 O 0.73988 0.06541 0.17697 0.0
O31 O 0.78351 0.06703 0.14778 0.0
O32 O 0.66897 0.0239 0.18637 0.0
O33 O 0.73151 0.0386 0.09382 0.0
O34 O 0.68851 0.03323 0.12328 0.0
C35 C 0.76807 0.0787 0.16905 0.0
C36 C 0.75861 0.96329 0.15429 0.0
O37 O 0.73349 0.9783 0.166 0.0
O38 O 0.77598 0.97877 0.13577 0.0
C39 C 0.66008 0.99877 0.20172 0.0
O40 O 0.68042 0.97217 0.20398 0.0
C41 C 0.6997 0.03873 0.09864 0.0
Zn42 Zn 0.00178 0.75853 0.63271 0.0
Zn43 Zn 0.99519 0.69902 0.66029 0.0
O44 O 0.95633 0.72794 0.6774 0.0
O45 O 0.96459 0.77795 0.65709 0.0
O46 O 0.99105 0.65318 0.67947 0.0
O47 O 0.98858 0.73533 0.59676 0.0
O48 O 0.98783 0.68575 0.61891 0.0
C49 C 0.94824 0.75933 0.67423 0.0
C50 C 0.06226 0.74069 0.66296 0.0
O51 O 0.04345 0.71585 0.67087 0.0
O52 O 0.05098 0.76212 0.64526 0.0
C53 C 0.00798 0.64394 0.70098 0.0
O54 O 0.02919 0.6656 0.71279 0.0
C55 C 0.98483 0.7032 0.59647 0.0
Zn56 Zn 0.23859 0.95975 0.84366 0.0
Zn57 Zn 0.29727 0.96856 0.8153 0.0
O58 O 0.27144 0.01251 0.80474 0.0
O59 O 0.22454 0.00701 0.82989 0.0
O60 O 0.3434 0.97156 0.79664 0.0
O61 O 0.26409 0.95427 0.88 0.0
O62 O 0.31142 0.96615 0.85702 0.0
C63 C 0.24272 0.02418 0.81294 0.0
C64 C 0.24885 0.90845 0.80183 0.0
O65 O 0.27634 0.9252 0.79763 0.0
O66 O 0.22806 0.91805 0.82056 0.0
C67 C 0.35513 0.99626 0.78216 0.0
O68 O 0.33584 0.02318 0.7774 0.0
C69 C 0.29599 0.95955 0.87993 0.0
Zn70 Zn 0.00657 0.24626 0.36295 0.0
Zn71 Zn 0.00578 0.30184 0.32929 0.0
O72 O 0.96508 0.27318 0.31484 0.0
O73 O 0.9664 0.22722 0.34166 0.0
O74 O 0.00543 0.34401 0.30497 0.0
O75 O 0.99714 0.27674 0.39594 0.0
O76 O 0.99933 0.32237 0.36867 0.0
C77 C 0.95282 0.24417 0.32189 0.0
C78 C 0.06882 0.25477 0.3316 0.0
O79 O 0.05283 0.28048 0.3216 0.0
O80 O 0.0549 0.2362 0.35017 0.0
C81 C 0.97775 0.36069 0.30207 0.0
O82 O 0.94987 0.34913 0.31417 0.0
C83 C 0.99568 0.30885 0.39278 0.0
Zn84 Zn 0.76508 0.99597 0.86477 0.0
Zn85 Zn 0.71615 0.99775 0.82546 0.0
O86 O 0.74469 0.95578 0.81318 0.0
O87 O 0.78618 0.95637 0.84444 0.0
O88 O 0.67654 1.0003 0.7985 0.0
O89 O 0.73025 0.9869 0.8948 0.0
O90 O 0.69014 0.99357 0.86283 0.0
C91 C 0.77247 0.94334 0.82291 0.0
C92 C 0.76527 0.05842 0.83288 0.0
O93 O 0.74147 0.0432 0.8196 0.0
O94 O 0.77895 0.04425 0.85403 0.0
C95 C 0.65833 0.02723 0.79957 0.0
O96 O 0.66776 0.05209 0.81639 0.0
C97 C 0.69897 0.98834 0.88817 0.0
Zn98 Zn 0.97678 0.78132 0.32417 0.0
Zn99 Zn 0.99623 0.72673 0.29495 0.0
O100 O 0.03729 0.75885 0.28844 0.0
O101 O 0.02159 0.80337 0.31356 0.0
O102 O 0.00903 0.68187 0.27665 0.0
O103 O 0.9717 0.75472 0.35958 0.0
O104 O 0.98963 0.70993 0.33592 0.0
C105 C 0.04308 0.78893 0.29762 0.0
C106 C 0.93178 0.76785 0.27853 0.0
O107 O 0.95299 0.74375 0.27383 0.0
O108 O 0.93594 0.78735 0.29939 0.0
C109 C 0.98826 0.66439 0.26197 0.0
O110 O 0.95808 0.67723 0.25597 0.0
C111 C 0.97948 0.72335 0.35878 0.0
C112 C 0.34044 0.01098 0.0776 0.0
C113 C 0.31551 0.03652 0.08092 0.0
C114 C 0.35392 0.00413 0.05099 0.0
C115 C 0.34309 0.02328 0.02757 0.0
C116 C 0.32056 0.05076 0.03152 0.0
C117 C 0.30647 0.057 0.05786 0.0
C118 C 0.3511 0.01293 -0.00155 0.0
C119 C 0.34911 0.97998 0.99048 0.0
C120 C 0.3411 0.97063 0.96111 0.0
C121 C 0.35481 0.98852 0.93808 0.0
C122 C 0.34174 0.98321 0.91109 0.0
C123 C 0.31442 0.96044 0.90691 0.0
H124 H 0.30513 0.93151 0.9738 0.0
C125 C 0.3024 0.94101 0.92965 0.0
C126 C 0.31597 0.94573 0.95642 0.0
H127 H 0.28161 0.92301 0.92692 0.0
H128 H 0.34783 0.99491 0.09514 0.0
H129 H 0.37171 0.98311 0.04855 0.0
H130 H 0.31195 0.06594 0.01381 0.0
H131 H 0.28751 0.07705 0.05999 0.0
H132 H 0.35083 0.03291 0.98255 0.0
H133 H 0.34566 0.96028 0.00637 0.0
H134 H 0.37466 0.00747 0.94107 0.0
H135 H 0.35154 0.99842 0.89386 0.0
C136 C 0.97805 0.29979 0.5768 0.0
C137 C 0.00148 0.30833 0.59789 0.0
C138 C 0.97687 0.31847 0.55194 0.0
C139 C 0.99951 0.3459 0.54741 0.0
C140 C 0.02246 0.35501 0.5688 0.0
C141 C 0.02301 0.33673 0.59415 0.0
C142 C 0.00294 0.36079 0.51892 0.0
C143 C 0.97576 0.36341 0.5017 0.0
C144 C 0.97856 0.35755 0.47109 0.0
C145 C 0.95253 0.33845 0.45828 0.0
C146 C 0.95746 0.3243 0.43182 0.0
C147 C 0.98804 0.32994 0.41733 0.0
H148 H 0.02841 0.3808 0.46464 0.0
C149 C 0.01279 0.35184 0.42871 0.0
C150 C 0.00818 0.3655 0.45559 0.0
H151 H 0.03657 0.35644 0.41771 0.0
H152 H 0.96114 0.27804 0.57924 0.0
H153 H 0.95959 0.30995 0.53563 0.0
H154 H 0.04055 0.37562 0.56558 0.0
H155 H 0.04142 0.34362 0.61015 0.0
H156 H 0.02873 0.36331 0.5108 0.0
H157 H 0.95034 0.36131 0.5108 0.0
H158 H 0.92943 0.33204 0.46967 0.0
H159 H 0.93807 0.30748 0.42326 0.0
C160 C 0.67856 0.96434 0.93334 0.0
C161 C 0.67319 0.98639 0.91051 0.0
C162 C 0.65859 0.96726 0.95739 0.0
C163 C 0.63373 0.99301 0.95936 0.0
C164 C 0.62628 0.01313 0.93561 0.0
C165 C 0.64574 0.00956 0.91116 0.0
C166 C 0.62145 0.00218 0.9877 0.0
C167 C 0.62432 0.03469 -0.00334 0.0
C168 C 0.63746 0.04171 0.02518 0.0
C169 C 0.66587 0.06339 0.0276 0.0
C170 C 0.6852 0.06371 0.05216 0.0
C171 C 0.67581 0.04315 0.07503 0.0
H172 H 0.60433 0.00655 0.04755 0.0
C173 C 0.64536 0.02417 0.07373 0.0
C174 C 0.62643 0.02316 0.04881 0.0
H175 H 0.63754 0.00824 0.09121 0.0
H176 H 0.6994 0.94605 0.93313 0.0
H177 H 0.66476 0.95142 0.9754 0.0
H178 H 0.60694 0.03293 0.93655 0.0
H179 H 0.64112 0.02674 0.89369 0.0
H180 H 0.62101 0.98162 0.00311 0.0
H181 H 0.62769 0.05495 0.98123 0.0
H182 H 0.67483 0.07795 0.00969 0.0
H183 H 0.70835 0.0789 0.05283 0.0
C184 C 0.95338 0.71274 0.40536 0.0
C185 C 0.97693 0.70294 0.38474 0.0
C186 C 0.95311 0.69664 0.43141 0.0
C187 C 0.9766 0.67038 0.43759 0.0
C188 C 0.99949 0.65977 0.41665 0.0
C189 C 0.99933 0.6756 0.39021 0.0
C190 C 0.9809 0.65812 0.46689 0.0
C191 C 0.95477 0.6583 0.48524 0.0
C192 C 0.96017 0.66396 0.51559 0.0
C193 C 0.9383 0.6871 0.52908 0.0
C194 C 0.94588 0.69885 0.55591 0.0
C195 C 0.97483 0.68676 0.57012 0.0
H196 H 0.0053 0.63216 0.5206 0.0
C197 C 0.99536 0.66155 0.55771 0.0
C198 C 0.98829 0.65043 0.53038 0.0
H199 H 0.01781 0.65195 0.56848 0.0
H200 H 0.93577 0.73369 0.40167 0.0
H201 H 0.93583 0.70645 0.44718 0.0
H202 H 0.01818 0.64001 0.42103 0.0
H203 H 0.01786 0.6677 0.37465 0.0
H204 H 0.0069 0.65418 0.47425 0.0
H205 H 0.92891 0.66187 0.47737 0.0
H206 H 0.91648 0.69788 0.51815 0.0
H207 H 0.92967 0.7182 0.56527 0.0
C208 C 0.40605 0.97537 0.21584 0.0
C209 C 0.38766 0.00576 0.21126 0.0
C210 C 0.44034 0.97645 0.22417 0.0
C211 C 0.45704 0.00808 0.2279 0.0
C212 C 0.43791 0.0383 0.225 0.0
C213 C 0.40368 0.03721 0.21675 0.0
C214 C 0.49457 0.01126 0.23264 0.0
C215 C 0.51719 0.98578 0.2283 0.0
C216 C 0.55468 0.99142 0.22614 0.0
C217 C 0.57683 0.9635 0.22988 0.0
C218 C 0.61161 0.96642 0.22358 0.0
C219 C 0.62486 0.99727 0.21298 0.0
H220 H 0.55216 0.04477 0.21302 0.0
C221 C 0.60305 0.0257 0.2105 0.0
C222 C 0.56835 0.02283 0.21694 0.0
H223 H 0.61244 0.04983 0.20238 0.0
H224 H 0.39428 0.95069 0.21224 0.0
H225 H 0.45351 0.9524 0.22706 0.0
H226 H 0.44984 0.06304 0.22798 0.0
H227 H 0.39017 0.06114 0.21373 0.0
H228 H 0.50415 0.03662 0.23756 0.0
H229 H 0.50834 0.96 0.22426 0.0
H230 H 0.56697 0.93897 0.23675 0.0
H231 H 0.6277 0.94401 0.22573 0.0
C232 C 0.0129 0.38862 0.73056 0.0
C233 C 0.04254 0.37452 0.71856 0.0
C234 C 0.01128 0.4235 0.73683 0.0
C235 C 0.03929 0.44499 0.73115 0.0
C236 C 0.06971 0.4304 0.72116 0.0
C237 C 0.0713 0.39556 0.71478 0.0
C238 C 0.03708 0.48283 0.73356 0.0
C239 C 0.00777 0.50013 0.72896 0.0
C240 C 0.00653 0.53776 0.72468 0.0
C241 C 0.98118 0.55125 0.70698 0.0
C242 C 0.98107 0.58593 0.69994 0.0
C243 C 0.00607 0.60804 0.7108 0.0
H244 H 0.04985 0.55084 0.75113 0.0
C245 C 0.0303 0.59498 0.72983 0.0
C246 C 0.03058 0.56014 0.7367 0.0
H247 H 0.0497 0.61143 0.73878 0.0
H248 H 0.99044 0.37302 0.73413 0.0
H249 H 0.98783 0.43363 0.74553 0.0
H250 H 0.09182 0.44629 0.71695 0.0
H251 H 0.09466 0.38545 0.70587 0.0
H252 H 0.06098 0.49679 0.73531 0.0
H253 H 0.9845 0.486 0.72451 0.0
H254 H 0.96213 0.53466 0.69766 0.0
H255 H 0.9618 0.59524 0.68547 0.0
C256 C 0.61161 1.00027 0.77105 0.0
C257 C 0.6246 0.02873 0.78551 0.0
C258 C 0.57777 1.00005 0.76151 0.0
C259 C 0.55618 0.02827 0.76646 0.0
C260 C 0.57004 0.0576 0.77901 0.0
C261 C 0.6038 0.05782 0.78852 0.0
C262 C 0.51876 0.02748 0.76085 0.0
C263 C 0.5004 0.99828 0.76061 0.0
C264 C 0.46243 0.99738 0.76247 0.0
C265 C 0.44704 0.96799 0.77375 0.0
C266 C 0.41201 0.96723 0.7792 0.0
C267 C 0.3914 0.99584 0.7733 0.0
H268 H 0.45208 0.04798 0.74525 0.0
C269 C 0.40635 0.02454 0.7604 0.0
C270 C 0.4415 0.0253 0.75495 0.0
H271 H 0.39109 0.0468 0.7552 0.0
H272 H 0.62717 0.97765 0.76798 0.0
H273 H 0.56853 0.97746 0.75087 0.0
H274 H 0.55421 0.07989 0.78275 0.0
H275 H 0.61312 0.08037 0.79924 0.0
H276 H 0.50557 0.05191 0.76083 0.0
H277 H 0.51353 0.97396 0.76286 0.0
H278 H 0.46237 0.94594 0.77946 0.0
H279 H 0.4013 0.94451 0.78884 0.0
C280 C 0.00784 0.40821 0.27658 0.0
C281 C 0.97754 0.39424 0.28757 0.0
C282 C 0.00814 0.44131 0.26533 0.0
C283 C 0.97811 0.46122 0.26501 0.0
C284 C 0.94755 0.44648 0.27464 0.0
C285 C 0.94725 0.41345 0.28586 0.0
C286 C 0.97754 0.49773 0.25607 0.0
C287 C 0.0053 0.51822 0.25628 0.0
C288 C 0.00302 0.55609 0.25342 0.0
C289 C 0.02808 0.57631 0.2664 0.0
C290 C 0.02436 0.61183 0.26781 0.0
C291 C 0.99549 0.6279 0.25612 0.0
H292 H 0.95651 0.55795 0.2284 0.0
C293 C 0.97179 0.60796 0.2412 0.0
C294 C 0.97558 0.57244 0.23972 0.0
H295 H 0.94959 0.61961 0.23149 0.0
H296 H 0.03153 0.39388 0.27721 0.0
H297 H 0.03199 0.45116 0.25721 0.0
H298 H 0.92394 0.46101 0.27438 0.0
H299 H 0.92338 0.40337 0.29388 0.0
H300 H 0.95253 0.50891 0.25237 0.0
H301 H 0.02995 0.50774 0.26226 0.0
H302 H 0.04977 0.56448 0.27675 0.0
H303 H 0.0433 0.62645 0.27923 0.0
C304 C 0.11724 0.26324 0.29776 0.0
C305 C 0.10245 0.24473 0.31996 0.0
C306 C 0.14648 0.25094 0.28425 0.0
C307 C 0.16131 0.21965 0.29254 0.0
C308 C 0.14804 0.20263 0.31607 0.0
C309 C 0.11889 0.21492 0.32959 0.0
C310 C 0.18848 0.20231 0.276 0.0
C311 C 0.19226 0.20702 0.24816 0.0
C312 C 0.21089 0.1825 0.22996 0.0
C313 C 0.19944 0.17838 0.20229 0.0
C314 C 0.21217 0.15204 0.18564 0.0
C315 C 0.23707 0.12946 0.19615 0.0
H316 H 0.24787 0.16462 0.26078 0.0
C317 C 0.25058 0.13518 0.22306 0.0
C318 C 0.23758 0.16146 0.23988 0.0
H319 H 0.27006 0.11841 0.23161 0.0
H320 H 0.10558 0.28666 0.29015 0.0
H321 H 0.15676 0.2656 0.26694 0.0
H322 H 0.15916 0.17871 0.32318 0.0
H323 H 0.1085 0.20024 0.34687 0.0
H324 H 0.20185 0.18133 0.28619 0.0
H325 H 0.1768 0.22615 0.23753 0.0
H326 H 0.17923 0.19446 0.19397 0.0
H327 H 0.20158 0.14866 0.16483 0.0
C328 C 0.91092 0.23158 0.73427 0.0
C329 C 0.9201 0.21759 0.70821 0.0
C330 C 0.88267 0.21878 0.74899 0.0
C331 C 0.86308 0.19185 0.73776 0.0
C332 C 0.87123 0.17936 0.71105 0.0
C333 C 0.89949 0.19186 0.69653 0.0
C334 C 0.83523 0.17458 0.75352 0.0
C335 C 0.83436 0.17254 0.78172 0.0
C336 C 0.81262 0.14726 0.79676 0.0
C337 C 0.82446 0.13384 0.82231 0.0
C338 C 0.80803 0.10603 0.83484 0.0
C339 C 0.77922 0.09114 0.82213 0.0
H340 H 0.77136 0.14481 0.76621 0.0
C341 C 0.76572 0.10632 0.79775 0.0
C342 C 0.78214 0.13422 0.78525 0.0
H343 H 0.74316 0.09592 0.78773 0.0
H344 H 0.9261 0.25169 0.74367 0.0
H345 H 0.87655 0.22979 0.76916 0.0
H346 H 0.85643 0.15886 0.70176 0.0
H347 H 0.90553 0.18084 0.67631 0.0
H348 H 0.81785 0.15894 0.74127 0.0
H349 H 0.8536 0.18583 0.79397 0.0
H350 H 0.84759 0.14368 0.83186 0.0
H351 H 0.81888 0.09528 0.85383 0.0
C352 C 0.8764 0.79609 0.26751 0.0
C353 C 0.90377 0.77554 0.25869 0.0
C354 C 0.85308 0.80918 0.24816 0.0
C355 C 0.85649 0.80195 0.21939 0.0
C356 C 0.88268 0.77967 0.21078 0.0
C357 C 0.90599 0.76631 0.23029 0.0
C358 C 0.83675 0.82138 0.19791 0.0
C359 C 0.80718 0.83761 0.20376 0.0
C360 C 0.79279 0.86631 0.18686 0.0
C361 C 0.76093 0.8798 0.19473 0.0
C362 C 0.7491 0.91055 0.1833 0.0
C363 C 0.7689 0.92859 0.16365 0.0
H364 H 0.83662 0.87452 0.15942 0.0
C365 C 0.79982 0.91414 0.15446 0.0
C366 C 0.81175 0.88345 0.16599 0.0
H367 H 0.81566 0.9273 0.13926 0.0
H368 H 0.87392 0.80353 0.28929 0.0
H369 H 0.83398 0.82683 0.25583 0.0
H370 H 0.88608 0.77386 0.18876 0.0
H371 H 0.92691 0.75058 0.22289 0.0
H372 H 0.84856 0.82442 0.1775 0.0
H373 H 0.79404 0.83162 0.22322 0.0
H374 H 0.74574 0.8673 0.21075 0.0
H375 H 0.72497 0.92071 0.19061 0.0
C376 C 0.11596 0.77481 0.66818 0.0
C377 C 0.09561 0.74705 0.67673 0.0
C378 C 0.14404 0.78505 0.68418 0.0
C379 C 0.1526 0.76759 0.7091 0.0
C380 C 0.13367 0.7384 0.71653 0.0
C381 C 0.10555 0.72813 0.70049 0.0
C382 C 0.17713 0.78194 0.72985 0.0
C383 C 0.19937 0.80734 0.72407 0.0
C384 C 0.21543 0.82887 0.74613 0.0
C385 C 0.24408 0.84891 0.73932 0.0
C386 C 0.25627 0.87364 0.75802 0.0
C387 C 0.23964 0.87916 0.78373 0.0
H388 H 0.17724 0.81925 0.7784 0.0
C389 C 0.21193 0.85811 0.79104 0.0
C390 C 0.19992 0.83333 0.7725 0.0
H391 H 0.19858 0.86162 0.81072 0.0
H392 H 0.10915 0.78986 0.6499 0.0
H393 H 0.15736 0.80797 0.67773 0.0
H394 H 0.13956 0.72448 0.73562 0.0
H395 H 0.09055 0.70652 0.70762 0.0
H396 H 0.17479 0.77285 0.7513 0.0
H397 H 0.2045 0.81434 0.70245 0.0
H398 H 0.25632 0.84627 0.71907 0.0
H399 H 0.27766 0.88949 0.75174 0.0
C400 C 0.7768 0.89948 0.78435 0.0
C401 C 0.79074 0.91549 0.80815 0.0
C402 C 0.79627 0.87594 0.76898 0.0
C403 C 0.83005 0.8684 0.7771 0.0
C404 C 0.84337 0.88345 0.80136 0.0
C405 C 0.8239 0.90642 0.81686 0.0
C406 C 0.85359 0.84851 0.75918 0.0
C407 C 0.84403 0.82252 0.74252 0.0
C408 C 0.86937 0.80593 0.72394 0.0
C409 C 0.87121 0.77016 0.722 0.0
C410 C 0.89686 0.75468 0.70587 0.0
C411 C 0.92045 0.77487 0.69094 0.0
H412 H 0.89114 0.85369 0.70918 0.0
C413 C 0.91758 0.81068 0.69216 0.0
C414 C 0.89245 0.82601 0.70852 0.0
H415 H 0.93517 0.82705 0.68083 0.0
H416 H 0.75133 0.90591 0.77711 0.0
H417 H 0.78553 0.86512 0.75004 0.0
H418 H 0.86937 0.87813 0.80796 0.0
H419 H 0.83552 0.9181 0.83511 0.0
H420 H 0.8805 0.85545 0.76008 0.0
H421 H 0.81807 0.8127 0.74322 0.0
H422 H 0.85347 0.75423 0.73359 0.0
H423 H 0.89825 0.72702 0.70512 0.0
C424 C 0.24065 0.92949 0.20561 0.0
C425 C 0.22123 0.95171 0.1886 0.0
C426 C 0.22503 0.90178 0.21925 0.0
C427 C 0.18972 0.89643 0.21658 0.0
C428 C 0.17064 0.91781 0.19876 0.0
C429 C 0.18623 0.94502 0.18485 0.0
C430 C 0.17234 0.86953 0.23321 0.0
C431 C 0.14334 0.87691 0.24705 0.0
C432 C 0.12248 0.85177 0.26279 0.0
C433 C 0.11991 0.81725 0.25477 0.0
C434 C 0.09522 0.79598 0.26709 0.0
C435 C 0.07291 0.8089 0.28764 0.0
H436 H 0.10294 0.89051 0.29085 0.0
C437 C 0.07718 0.84283 0.29675 0.0
C438 C 0.10144 0.86401 0.2843 0.0
H439 H 0.06068 0.85366 0.31265 0.0
H440 H 0.26774 0.9338 0.20872 0.0
H441 H 0.24024 0.88539 0.23273 0.0
H442 H 0.14346 0.91376 0.19589 0.0
H443 H 0.17051 0.96142 0.17178 0.0
H444 H 0.18402 0.8444 0.23499 0.0
H445 H 0.13428 0.90325 0.24704 0.0
H446 H 0.13546 0.80718 0.23793 0.0
H447 H 0.09261 0.76997 0.25961 0.0
C448 C 0.11294 0.21868 0.72332 0.0
C449 C 0.09979 0.20788 0.69736 0.0
C450 C 0.14017 0.20111 0.73587 0.0
C451 C 0.15479 0.17247 0.72261 0.0
C452 C 0.1432 0.16331 0.69582 0.0
C453 C 0.11586 0.18062 0.68341 0.0
C454 C 0.18042 0.15012 0.73661 0.0
C455 C 0.18074 0.1449 0.76455 0.0
C456 C 0.19967 0.11624 0.778 0.0
C457 C 0.18606 0.10166 0.80247 0.0
C458 C 0.20061 0.07231 0.81417 0.0
C459 C 0.22951 0.0571 0.8019 0.0
H460 H 0.24144 0.11326 0.74807 0.0
C461 C 0.24442 0.0728 0.77833 0.0
C462 C 0.22961 0.10208 0.76644 0.0
H463 H 0.2669 0.06192 0.76856 0.0
H464 H 0.10137 0.23984 0.73446 0.0
H465 H 0.14922 0.2096 0.75615 0.0
H466 H 0.15425 0.14162 0.68498 0.0
H467 H 0.10668 0.17194 0.6632 0.0
H468 H 0.1959 0.1339 0.7232 0.0
H469 H 0.16289 0.15891 0.77765 0.0
H470 H 0.16323 0.11221 0.81197 0.0
H471 H 0.18873 0.06115 0.83255 0.0
C472 C 0.90992 0.24511 0.28255 0.0
C473 C 0.923 0.22961 0.30695 0.0
C474 C 0.88299 0.22989 0.26778 0.0
C475 C 0.86866 0.19884 0.27716 0.0
C476 C 0.88076 0.1843 0.30219 0.0
C477 C 0.9077 0.19934 0.31682 0.0
C478 C 0.84212 0.18 0.2611 0.0
C479 C 0.83919 0.18197 0.23301 0.0
C480 C 0.81815 0.15771 0.21639 0.0
C481 C 0.82872 0.14988 0.18908 0.0
C482 C 0.81192 0.12478 0.17358 0.0
C483 C 0.78377 0.10717 0.1849 0.0
H484 H 0.77944 0.14742 0.24801 0.0
C485 C 0.77197 0.11623 0.2117 0.0
C486 C 0.789 0.14127 0.22735 0.0
H487 H 0.75012 0.1034 0.22089 0.0
H488 H 0.92085 0.26867 0.27459 0.0
H489 H 0.87363 0.24247 0.24905 0.0
H490 H 0.87003 0.16058 0.31004 0.0
H491 H 0.91682 0.1869 0.33573 0.0
H492 H 0.82754 0.16081 0.27245 0.0
H493 H 0.856 0.19893 0.22137 0.0
H494 H 0.85085 0.16236 0.18001 0.0
H495 H 0.82145 0.11878 0.15284 0.0
loop_
_geom_bond_atom_site_label_1
_geom_bond_atom_site_label_2
_geom_bond_distance
_geom_bond_site_symmetry_2
_ccdc_geom_bond_type
Zn0 O3 2.031 . S
Zn0 O5 2.049 1_565 S
Zn0 O10 2.067 1_565 S
Zn1 O2 1.962 . S
Zn1 O4 1.989 . S
Zn1 O6 1.996 . S
Zn1 O9 1.943 1_565 S
O2 Zn1 1.962 . S
O2 C7 1.254 . S
O3 Zn0 2.031 . S
O3 C7 1.269 . S
O4 Zn1 1.989 . S
O4 C11 1.262 . S
O5 Zn0 2.049 1_545 S
O5 C13 1.260 . S
O6 Zn1 1.996 . S
O6 C13 1.257 1_565 S
C7 O2 1.254 . S
C7 O3 1.269 . S
C8 O9 1.249 . S
C8 O10 1.270 . S
O9 Zn1 1.943 1_545 S
O9 C8 1.249 . S
O10 Zn0 2.067 1_545 S
O10 C8 1.270 . S
C11 O4 1.262 . S
C11 O12 1.236 . S
O12 C11 1.236 . S
C13 O5 1.260 . S
C13 O6 1.257 1_545 S
Zn14 O17 2.031 . S
Zn14 O19 2.049 1_455 S
Zn14 O24 2.067 1_455 S
Zn15 O16 1.962 . S
Zn15 O18 1.986 . S
Zn15 O20 1.996 . S
Zn15 O23 1.943 1_455 S
O16 Zn15 1.962 . S
O16 C21 1.254 . S
O17 Zn14 2.031 . S
O17 C21 1.269 . S
O18 Zn15 1.986 . S
O18 C25 1.262 . S
O19 Zn14 2.049 1_655 S
O19 C27 1.260 1_655 S
O20 Zn15 1.996 . S
O20 C27 1.257 . S
C21 O16 1.254 . S
C21 O17 1.269 . S
C22 O23 1.249 . S
C22 O24 1.270 . S
O23 Zn15 1.943 1_655 S
O23 C22 1.249 . S
O24 Zn14 2.067 1_655 S
O24 C22 1.270 . S
C25 O18 1.262 . S
C25 O26 1.232 . S
O26 C25 1.232 . S
C27 O19 1.260 1_455 S
C27 O20 1.257 . S
Zn28 O31 2.031 . S
Zn28 O33 2.049 1_545 S
Zn28 O38 2.067 1_545 S
Zn29 O30 1.962 . S
Zn29 O32 1.986 . S
Zn29 O34 1.996 . S
Zn29 O37 1.943 1_545 S
O30 Zn29 1.962 . S
O30 C35 1.254 . S
O31 Zn28 2.031 . S
O31 C35 1.269 . S
O32 Zn29 1.986 . S
O32 C39 1.262 . S
O33 Zn28 2.049 1_565 S
O33 C41 1.260 1_565 S
O34 Zn29 1.996 . S
O34 C41 1.257 . S
C35 O30 1.254 . S
C35 O31 1.269 . S
C36 O37 1.249 . S
C36 O38 1.270 . S
O37 Zn29 1.943 1_565 S
O37 C36 1.249 . S
O38 Zn28 2.067 1_565 S
O38 C36 1.270 . S
C39 O32 1.262 . S
C39 O40 1.232 . S
O40 C39 1.232 . S
C41 O33 1.260 1_545 S
C41 O34 1.257 . S
Zn42 O45 2.031 . S
Zn42 O47 2.049 1_655 S
Zn42 O52 2.067 1_655 S
Zn43 O44 1.962 . S
Zn43 O46 1.989 . S
Zn43 O48 1.996 . S
Zn43 O51 1.943 1_655 S
O44 Zn43 1.962 . S
O44 C49 1.254 . S
O45 Zn42 2.031 . S
O45 C49 1.269 . S
O46 Zn43 1.989 . S
O46 C53 1.262 . S
O47 Zn42 2.049 1_455 S
O47 C55 1.260 . S
O48 Zn43 1.996 . S
O48 C55 1.257 1_655 S
C49 O44 1.254 . S
C49 O45 1.269 . S
C50 O51 1.249 . S
C50 O52 1.270 . S
O51 Zn43 1.943 1_455 S
O51 C50 1.249 . S
O52 Zn42 2.067 1_455 S
O52 C50 1.270 . S
C53 O46 1.262 . S
C53 O54 1.236 . S
O54 C53 1.236 . S
C55 O47 1.260 . S
C55 O48 1.257 1_455 S
Zn56 O59 2.031 . S
Zn56 O61 2.049 1_545 S
Zn56 O66 2.067 1_545 S
Zn57 O58 1.962 . S
Zn57 O60 1.986 . S
Zn57 O62 1.996 . S
Zn57 O65 1.943 1_545 S
O58 Zn57 1.962 . S
O58 C63 1.254 . S
O59 Zn56 2.031 . S
O59 C63 1.269 . S
O60 Zn57 1.986 . S
O60 C67 1.262 . S
O61 Zn56 2.049 1_565 S
O61 C69 1.260 1_565 S
O62 Zn57 1.996 . S
O62 C69 1.257 . S
C63 O58 1.254 . S
C63 O59 1.269 . S
C64 O65 1.249 . S
C64 O66 1.270 . S
O65 Zn57 1.943 1_565 S
O65 C64 1.249 . S
O66 Zn56 2.067 1_565 S
O66 C64 1.270 . S
C67 O60 1.262 . S
C67 O68 1.232 . S
O68 C67 1.232 . S
C69 O61 1.260 1_545 S
C69 O62 1.257 . S
Zn70 O73 2.031 . S
Zn70 O75 2.049 1_655 S
Zn70 O80 2.067 1_655 S
Zn71 O72 1.962 . S
Zn71 O74 1.989 . S
Zn71 O76 1.996 . S
Zn71 O79 1.943 1_655 S
O72 Zn71 1.962 . S
O72 C77 1.254 . S
O73 Zn70 2.031 . S
O73 C77 1.269 . S
O74 Zn71 1.989 . S
O74 C81 1.262 . S
O75 Zn70 2.049 1_455 S
O75 C83 1.260 . S
O76 Zn71 1.996 . S
O76 C83 1.257 1_655 S
C77 O72 1.254 . S
C77 O73 1.269 . S
C78 O79 1.249 . S
C78 O80 1.270 . S
O79 Zn71 1.943 1_455 S
O79 C78 1.249 . S
O80 Zn70 2.067 1_455 S
O80 C78 1.270 . S
C81 O74 1.262 . S
C81 O82 1.236 . S
O82 C81 1.236 . S
C83 O75 1.260 . S
C83 O76 1.257 1_455 S
Zn84 O87 2.031 . S
Zn84 O89 2.049 1_565 S
Zn84 O94 2.067 1_565 S
Zn85 O86 1.962 . S
Zn85 O88 1.989 . S
Zn85 O90 1.996 . S
Zn85 O93 1.943 1_565 S
O86 Zn85 1.962 . S
O86 C91 1.254 . S
O87 Zn84 2.031 . S
O87 C91 1.269 . S
O88 Zn85 1.989 . S
O88 C95 1.262 . S
O89 Zn84 2.049 1_545 S
O89 C97 1.260 . S
O90 Zn85 1.996 . S
O90 C97 1.257 1_565 S
C91 O86 1.254 . S
C91 O87 1.269 . S
C92 O93 1.249 . S
C92 O94 1.270 . S
O93 Zn85 1.943 1_545 S
O93 C92 1.249 . S
O94 Zn84 2.067 1_545 S
O94 C92 1.270 . S
C95 O88 1.262 . S
C95 O96 1.236 . S
O96 C95 1.236 . S
C97 O89 1.260 . S
C97 O90 1.257 1_545 S
Zn98 O101 2.031 . S
Zn98 O103 2.049 1_455 S
Zn98 O108 2.067 1_455 S
Zn99 O100 1.962 . S
Zn99 O102 1.986 . S
Zn99 O104 1.996 . S
Zn99 O107 1.943 1_455 S
O100 Zn99 1.962 . S
O100 C105 1.254 . S
O101 Zn98 2.031 . S
O101 C105 1.269 . S
O102 Zn99 1.986 . S
O102 C109 1.262 . S
O103 Zn98 2.049 1_655 S
O103 C111 1.260 1_655 S
O104 Zn99 1.996 . S
O104 C111 1.257 . S
C105 O100 1.254 . S
C105 O101 1.269 . S
C106 O107 1.249 . S
C106 O108 1.270 . S
O107 Zn99 1.943 1_655 S
O107 C106 1.249 . S
O108 Zn98 2.067 1_655 S
O108 C106 1.270 . S
C109 O102 1.262 . S
C109 O110 1.232 . S
O110 C109 1.232 . S
C111 O103 1.260 1_455 S
C111 O104 1.257 . S
C112 C113 1.386 1_565 S
C112 C114 1.383 . S
C112 H128 0.951 . S
C113 C112 1.386 1_545 S
C113 C117 1.383 . S
C114 C112 1.383 . S
C114 C115 1.402 1_565 S
C114 H129 0.951 . S
C115 C114 1.402 1_545 S
C115 C116 1.375 . S
C115 C118 1.481 . S
C116 C115 1.375 . S
C116 C117 1.367 . S
C116 H130 0.951 . S
C117 C113 1.383 . S
C117 C116 1.367 . S
C117 H131 0.950 . S
C118 C115 1.481 . S
C118 C119 1.297 1_544 S
C118 H132 0.950 . S
C119 C118 1.297 1_566 S
C119 C120 1.479 . S
C119 H133 0.950 . S
C120 C119 1.479 . S
C120 C121 1.375 . S
C120 C126 1.404 1_565 S
C121 C120 1.375 . S
C121 C122 1.369 . S
C121 H134 0.950 . S
C122 C121 1.369 . S
C122 C123 1.392 . S
C122 H135 0.951 . S
C123 C122 1.392 . S
C123 C125 1.384 1_565 S
H124 C126 0.949 . S
C125 C123 1.384 1_545 S
C125 C126 1.385 . S
C125 H127 0.950 . S
C126 C120 1.404 1_545 S
C126 H124 0.949 . S
C126 C125 1.385 . S
H127 C125 0.950 . S
H128 C112 0.951 . S
H129 C114 0.951 . S
H130 C116 0.951 . S
H131 C117 0.950 . S
H132 C118 0.950 . S
H133 C119 0.950 . S
H134 C121 0.950 . S
H135 C122 0.951 . S
C136 C137 1.386 . S
C136 C138 1.383 . S
C136 H152 0.951 . S
C137 C136 1.386 . S
C137 C141 1.383 1_655 S
C138 C136 1.383 . S
C138 C139 1.402 . S
C138 H153 0.951 . S
C139 C138 1.402 . S
C139 C140 1.375 1_655 S
C139 C142 1.481 1_655 S
C140 C139 1.375 1_455 S
C140 C141 1.367 . S
C140 H154 0.951 . S
C141 C137 1.383 1_455 S
C141 C140 1.367 . S
C141 H155 0.950 . S
C142 C139 1.481 1_455 S
C142 C143 1.297 1_455 S
C142 H156 0.950 . S
C143 C142 1.297 1_655 S
C143 C144 1.479 . S
C143 H157 0.950 . S
C144 C143 1.479 . S
C144 C145 1.375 . S
C144 C150 1.404 1_655 S
C145 C144 1.375 . S
C145 C146 1.369 . S
C145 H158 0.950 . S
C146 C145 1.369 . S
C146 C147 1.392 1_655 S
C146 H159 0.951 . S
C147 C146 1.392 1_455 S
C147 C149 1.384 . S
H148 C150 0.949 . S
C149 C147 1.384 . S
C149 C150 1.385 . S
C149 H151 0.950 . S
C150 C144 1.404 1_455 S
C150 H148 0.949 . S
C150 C149 1.385 . S
H151 C149 0.950 . S
H152 C136 0.951 . S
H153 C138 0.951 . S
H154 C140 0.951 . S
H155 C141 0.950 . S
H156 C142 0.950 . S
H157 C143 0.950 . S
H158 C145 0.950 . S
H159 C146 0.951 . S
C160 C161 1.386 . S
C160 C162 1.383 . S
C160 H176 0.951 . S
C161 C160 1.386 . S
C161 C165 1.383 . S
C162 C160 1.383 . S
C162 C163 1.402 . S
C162 H177 0.951 . S
C163 C162 1.402 . S
C163 C164 1.375 . S
C163 C166 1.481 . S
C164 C163 1.375 . S
C164 C165 1.367 . S
C164 H178 0.951 1_545 S
C165 C161 1.383 . S
C165 C164 1.367 . S
C165 H179 0.950 1_545 S
C166 C163 1.481 . S
C166 C167 1.297 1_556 S
C166 H180 0.950 . S
C167 C166 1.297 1_554 S
C167 C168 1.479 . S
C167 H181 0.950 . S
C168 C167 1.479 . S
C168 C169 1.375 . S
C168 C174 1.404 . S
C169 C168 1.375 . S
C169 C170 1.369 . S
C169 H182 0.950 . S
C170 C169 1.369 . S
C170 C171 1.392 . S
C170 H183 0.951 . S
C171 C170 1.392 . S
C171 C173 1.384 . S
H172 C174 0.949 . S
C173 C171 1.384 . S
C173 C174 1.385 . S
C173 H175 0.950 1_545 S
C174 C168 1.404 . S
C174 H172 0.949 . S
C174 C173 1.385 . S
H175 C173 0.950 1_565 S
H176 C160 0.951 . S
H177 C162 0.951 . S
H178 C164 0.951 1_565 S
H179 C165 0.950 1_565 S
H180 C166 0.950 . S
H181 C167 0.950 . S
H182 C169 0.950 . S
H183 C170 0.951 . S
C184 C185 1.386 . S
C184 C186 1.383 . S
C184 H200 0.951 . S
C185 C184 1.386 . S
C185 C189 1.383 1_655 S
C186 C184 1.383 . S
C186 C187 1.402 . S
C186 H201 0.951 . S
C187 C186 1.402 . S
C187 C188 1.370 1_655 S
C187 C190 1.481 . S
C188 C187 1.370 1_455 S
C188 C189 1.368 . S
C188 H202 0.956 . S
C189 C185 1.383 1_455 S
C189 C188 1.368 . S
C189 H203 0.950 . S
C190 C187 1.481 . S
C190 C191 1.297 . S
C190 H204 0.950 1_655 S
C191 C190 1.297 . S
C191 C192 1.479 . S
C191 H205 0.950 . S
C192 C191 1.479 . S
C192 C193 1.375 . S
C192 C198 1.404 . S
C193 C192 1.375 . S
C193 C194 1.369 . S
C193 H206 0.950 . S
C194 C193 1.369 . S
C194 C195 1.392 1_655 S
C194 H207 0.951 . S
C195 C194 1.392 1_455 S
C195 C197 1.385 . S
H196 C198 0.949 . S
C197 C195 1.385 . S
C197 C198 1.382 1_455 S
C197 H199 0.953 . S
C198 C192 1.404 . S
C198 H196 0.949 . S
C198 C197 1.382 1_655 S
H199 C197 0.953 . S
H200 C184 0.951 . S
H201 C186 0.951 . S
H202 C188 0.956 . S
H203 C189 0.950 . S
H204 C190 0.950 1_455 S
H205 C191 0.950 . S
H206 C193 0.950 . S
H207 C194 0.951 . S
C208 C209 1.384 1_565 S
C208 C210 1.383 . S
C208 H224 0.951 . S
C209 C208 1.384 1_545 S
C209 C213 1.384 . S
C210 C208 1.383 . S
C210 C211 1.402 . S
C210 H225 0.951 . S
C211 C210 1.402 . S
C211 C212 1.375 1_565 S
C211 C214 1.481 . S
C212 C211 1.375 1_545 S
C212 C213 1.367 . S
C212 H226 0.951 . S
C213 C209 1.384 . S
C213 C212 1.367 . S
C213 H227 0.950 . S
C214 C211 1.481 . S
C214 C215 1.297 . S
C214 H228 0.950 1_565 S
C215 C214 1.297 . S
C215 C216 1.479 . S
C215 H229 0.950 . S
C216 C215 1.479 . S
C216 C217 1.375 . S
C216 C222 1.404 . S
C217 C216 1.375 . S
C217 C218 1.369 . S
C217 H230 0.950 . S
C218 C217 1.369 . S
C218 C219 1.397 . S
C218 H231 0.951 . S
C219 C218 1.397 . S
C219 C221 1.384 1_565 S
H220 C222 0.949 . S
C221 C219 1.384 1_545 S
C221 C222 1.385 1_545 S
C221 H223 0.950 . S
C222 C216 1.404 . S
C222 H220 0.949 . S
C222 C221 1.385 1_565 S
H223 C221 0.950 . S
H224 C208 0.951 . S
H225 C210 0.951 . S
H226 C212 0.951 . S
H227 C213 0.950 . S
H228 C214 0.950 1_545 S
H229 C215 0.950 . S
H230 C217 0.950 . S
H231 C218 0.951 . S
C232 C233 1.386 1_655 S
C232 C234 1.383 . S
C232 H248 0.951 . S
C233 C232 1.386 1_455 S
C233 C237 1.383 . S
C234 C232 1.383 . S
C234 C235 1.402 1_655 S
C234 H249 0.951 . S
C235 C234 1.402 1_455 S
C235 C236 1.375 . S
C235 C238 1.481 . S
C236 C235 1.375 . S
C236 C237 1.367 . S
C236 H250 0.951 . S
C237 C233 1.383 . S
C237 C236 1.367 . S
C237 H251 0.950 . S
C238 C235 1.481 . S
C238 C239 1.297 1_455 S
C238 H252 0.950 . S
C239 C238 1.297 1_655 S
C239 C240 1.479 . S
C239 H253 0.950 . S
C240 C239 1.479 . S
C240 C241 1.375 . S
C240 C246 1.404 1_655 S
C241 C240 1.375 . S
C241 C242 1.369 . S
C241 H254 0.950 . S
C242 C241 1.369 . S
C242 C243 1.392 . S
C242 H255 0.951 . S
C243 C242 1.392 . S
C243 C245 1.384 1_655 S
H244 C246 0.949 . S
C245 C243 1.384 1_455 S
C245 C246 1.385 . S
C245 H247 0.950 . S
C246 C240 1.404 1_455 S
C246 H244 0.949 . S
C246 C245 1.385 . S
H247 C245 0.950 . S
H248 C232 0.951 . S
H249 C234 0.951 . S
H250 C236 0.951 . S
H251 C237 0.950 . S
H252 C238 0.950 . S
H253 C239 0.950 . S
H254 C241 0.950 . S
H255 C242 0.951 . S
C256 C257 1.386 1_565 S
C256 C258 1.383 . S
C256 H272 0.951 . S
C257 C256 1.386 1_545 S
C257 C261 1.383 . S
C258 C256 1.383 . S
C258 C259 1.402 1_565 S
C258 H273 0.951 . S
C259 C258 1.402 1_545 S
C259 C260 1.375 . S
C259 C262 1.481 . S
C260 C259 1.375 . S
C260 C261 1.367 . S
C260 H274 0.951 . S
C261 C257 1.383 . S
C261 C260 1.367 . S
C261 H275 0.950 . S
C262 C259 1.481 . S
C262 C263 1.297 . S
C262 H276 0.950 . S
C263 C262 1.297 . S
C263 C264 1.479 . S
C263 H277 0.950 . S
C264 C263 1.479 . S
C264 C265 1.375 1_545 S
C264 C270 1.404 . S
C265 C264 1.375 1_565 S
C265 C266 1.369 . S
C265 H278 0.950 . S
C266 C265 1.369 . S
C266 C267 1.392 1_565 S
C266 H279 0.951 . S
C267 C266 1.392 1_545 S
C267 C269 1.384 . S
H268 C270 0.949 . S
C269 C267 1.384 . S
C269 C270 1.385 . S
C269 H271 0.950 . S
C270 C264 1.404 . S
C270 H268 0.949 . S
C270 C269 1.385 . S
H271 C269 0.950 . S
H272 C256 0.951 . S
H273 C258 0.951 . S
H274 C260 0.951 . S
H275 C261 0.950 . S
H276 C262 0.950 . S
H277 C263 0.950 . S
H278 C265 0.950 . S
H279 C266 0.951 . S
C280 C281 1.386 . S
C280 C282 1.383 . S
C280 H296 0.951 . S
C281 C280 1.386 . S
C281 C285 1.383 . S
C282 C280 1.383 . S
C282 C283 1.402 . S
C282 H297 0.951 . S
C283 C282 1.402 . S
C283 C284 1.375 . S
C283 C286 1.481 . S
C284 C283 1.375 . S
C284 C285 1.367 . S
C284 H298 0.951 . S
C285 C281 1.383 . S
C285 C284 1.367 . S
C285 H299 0.949 1_455 S
C286 C283 1.481 . S
C286 C287 1.297 . S
C286 H300 0.950 . S
C287 C286 1.297 . S
C287 C288 1.479 . S
C287 H301 0.950 . S
C288 C287 1.479 . S
C288 C289 1.375 . S
C288 C294 1.404 . S
C289 C288 1.375 . S
C289 C290 1.369 . S
C289 H302 0.950 . S
C290 C289 1.369 . S
C290 C291 1.392 . S
C290 H303 0.951 . S
C291 C290 1.392 . S
C291 C293 1.384 . S
H292 C294 0.949 . S
C293 C291 1.384 . S
C293 C294 1.385 . S
C293 H295 0.950 . S
C294 C288 1.404 . S
C294 H292 0.949 . S
C294 C293 1.385 . S
H295 C293 0.950 . S
H296 C280 0.951 . S
H297 C282 0.951 . S
H298 C284 0.951 . S
H299 C285 0.949 1_655 S
H300 C286 0.950 . S
H301 C287 0.950 . S
H302 C289 0.950 . S
H303 C290 0.951 . S
C304 C305 1.386 . S
C304 C306 1.383 . S
C304 H320 0.951 . S
C305 C304 1.386 . S
C305 C309 1.383 . S
C306 C304 1.383 . S
C306 C307 1.402 . S
C306 H321 0.951 . S
C307 C306 1.402 . S
C307 C308 1.375 . S
C307 C310 1.481 . S
C308 C307 1.375 . S
C308 C309 1.367 . S
C308 H322 0.951 . S
C309 C305 1.383 . S
C309 C308 1.367 . S
C309 H323 0.950 . S
C310 C307 1.481 . S
C310 C311 1.297 . S
C310 H324 0.950 . S
C311 C310 1.297 . S
C311 C312 1.479 . S
C311 H325 0.950 . S
C312 C311 1.479 . S
C312 C313 1.375 . S
C312 C318 1.404 . S
C313 C312 1.375 . S
C313 C314 1.369 . S
C313 H326 0.950 . S
C314 C313 1.369 . S
C314 C315 1.392 . S
C314 H327 0.951 . S
C315 C314 1.392 . S
C315 C317 1.384 . S
H316 C318 0.949 . S
C317 C315 1.384 . S
C317 C318 1.385 . S
C317 H319 0.950 . S
C318 C312 1.404 . S
C318 H316 0.949 . S
C318 C317 1.385 . S
H319 C317 0.950 . S
H320 C304 0.951 . S
H321 C306 0.951 . S
H322 C308 0.951 . S
H323 C309 0.950 . S
H324 C310 0.950 . S
H325 C311 0.950 . S
H326 C313 0.950 . S
H327 C314 0.951 . S
C328 C329 1.386 . S
C328 C330 1.383 . S
C328 H344 0.951 . S
C329 C328 1.386 . S
C329 C333 1.383 . S
C330 C328 1.383 . S
C330 C331 1.402 . S
C330 H345 0.951 . S
C331 C330 1.402 . S
C331 C332 1.375 . S
C331 C334 1.481 . S
C332 C331 1.375 . S
C332 C333 1.367 . S
C332 H346 0.951 . S
C333 C329 1.383 . S
C333 C332 1.367 . S
C333 H347 0.950 . S
C334 C331 1.481 . S
C334 C335 1.297 . S
C334 H348 0.950 . S
C335 C334 1.297 . S
C335 C336 1.479 . S
C335 H349 0.950 . S
C336 C335 1.479 . S
C336 C337 1.375 . S
C336 C342 1.404 . S
C337 C336 1.375 . S
C337 C338 1.369 . S
C337 H350 0.950 . S
C338 C337 1.369 . S
C338 C339 1.392 . S
C338 H351 0.951 . S
C339 C338 1.392 . S
C339 C341 1.384 . S
H340 C342 0.949 . S
C341 C339 1.384 . S
C341 C342 1.385 . S
C341 H343 0.950 . S
C342 C336 1.404 . S
C342 H340 0.949 . S
C342 C341 1.385 . S
H343 C341 0.950 . S
H344 C328 0.951 . S
H345 C330 0.951 . S
H346 C332 0.951 . S
H347 C333 0.950 . S
H348 C334 0.950 . S
H349 C335 0.950 . S
H350 C337 0.950 . S
H351 C338 0.951 . S
C352 C353 1.386 . S
C352 C354 1.383 . S
C352 H368 0.951 . S
C353 C352 1.386 . S
C353 C357 1.383 . S
C354 C352 1.383 . S
C354 C355 1.402 . S
C354 H369 0.951 . S
C355 C354 1.402 . S
C355 C356 1.375 . S
C355 C358 1.481 . S
C356 C355 1.375 . S
C356 C357 1.367 . S
C356 H370 0.951 . S
C357 C353 1.383 . S
C357 C356 1.367 . S
C357 H371 0.950 . S
C358 C355 1.481 . S
C358 C359 1.297 . S
C358 H372 0.950 . S
C359 C358 1.297 . S
C359 C360 1.479 . S
C359 H373 0.950 . S
C360 C359 1.479 . S
C360 C361 1.375 . S
C360 C366 1.404 . S
C361 C360 1.375 . S
C361 C362 1.369 . S
C361 H374 0.950 . S
C362 C361 1.369 . S
C362 C363 1.392 . S
C362 H375 0.951 . S
C363 C362 1.392 . S
C363 C365 1.384 . S
H364 C366 0.949 . S
C365 C363 1.384 . S
C365 C366 1.385 . S
C365 H367 0.950 . S
C366 C360 1.404 . S
C366 H364 0.949 . S
C366 C365 1.385 . S
H367 C365 0.950 . S
H368 C352 0.951 . S
H369 C354 0.951 . S
H370 C356 0.951 . S
H371 C357 0.950 . S
H372 C358 0.950 . S
H373 C359 0.950 . S
H374 C361 0.950 . S
H375 C362 0.951 . S
C376 C377 1.386 . S
C376 C378 1.383 . S
C376 H392 0.951 . S
C377 C376 1.386 . S
C377 C381 1.383 . S
C378 C376 1.383 . S
C378 C379 1.402 . S
C378 H393 0.951 . S
C379 C378 1.402 . S
C379 C380 1.375 . S
C379 C382 1.481 . S
C380 C379 1.375 . S
C380 C381 1.367 . S
C380 H394 0.951 . S
C381 C377 1.383 . S
C381 C380 1.367 . S
C381 H395 0.950 . S
C382 C379 1.481 . S
C382 C383 1.297 . S
C382 H396 0.950 . S
C383 C382 1.297 . S
C383 C384 1.479 . S
C383 H397 0.950 . S
C384 C383 1.479 . S
C384 C385 1.375 . S
C384 C390 1.404 . S
C385 C384 1.375 . S
C385 C386 1.369 . S
C385 H398 0.950 . S
C386 C385 1.369 . S
C386 C387 1.392 . S
C386 H399 0.951 . S
C387 C386 1.392 . S
C387 C389 1.384 . S
H388 C390 0.949 . S
C389 C387 1.384 . S
C389 C390 1.385 . S
C389 H391 0.950 . S
C390 C384 1.404 . S
C390 H388 0.949 . S
C390 C389 1.385 . S
H391 C389 0.950 . S
H392 C376 0.951 . S
H393 C378 0.951 . S
H394 C380 0.951 . S
H395 C381 0.950 . S
H396 C382 0.950 . S
H397 C383 0.950 . S
H398 C385 0.950 . S
H399 C386 0.951 . S
C400 C401 1.386 . S
C400 C402 1.383 . S
C400 H416 0.951 . S
C401 C400 1.386 . S
C401 C405 1.383 . S
C402 C400 1.383 . S
C402 C403 1.402 . S
C402 H417 0.951 . S
C403 C402 1.402 . S
C403 C404 1.375 . S
C403 C406 1.481 . S
C404 C403 1.375 . S
C404 C405 1.367 . S
C404 H418 0.951 . S
C405 C401 1.383 . S
C405 C404 1.367 . S
C405 H419 0.950 . S
C406 C403 1.481 . S
C406 C407 1.297 . S
C406 H420 0.950 . S
C407 C406 1.297 . S
C407 C408 1.479 . S
C407 H421 0.950 . S
C408 C407 1.479 . S
C408 C409 1.375 . S
C408 C414 1.404 . S
C409 C408 1.375 . S
C409 C410 1.369 . S
C409 H422 0.950 . S
C410 C409 1.369 . S
C410 C411 1.392 . S
C410 H423 0.951 . S
C411 C410 1.392 . S
C411 C413 1.384 . S
H412 C414 0.949 . S
C413 C411 1.384 . S
C413 C414 1.385 . S
C413 H415 0.950 . S
C414 C408 1.404 . S
C414 H412 0.949 . S
C414 C413 1.385 . S
H415 C413 0.950 . S
H416 C400 0.951 . S
H417 C402 0.951 . S
H418 C404 0.951 . S
H419 C405 0.950 . S
H420 C406 0.950 . S
H421 C407 0.950 . S
H422 C409 0.950 . S
H423 C410 0.951 . S
C424 C425 1.386 . S
C424 C426 1.383 . S
C424 H440 0.951 . S
C425 C424 1.386 . S
C425 C429 1.383 . S
C426 C424 1.383 . S
C426 C427 1.402 . S
C426 H441 0.951 . S
C427 C426 1.402 . S
C427 C428 1.375 . S
C427 C430 1.481 . S
C428 C427 1.375 . S
C428 C429 1.367 . S
C428 H442 0.951 . S
C429 C425 1.383 . S
C429 C428 1.367 . S
C429 H443 0.950 . S
C430 C427 1.481 . S
C430 C431 1.297 . S
C430 H444 0.950 . S
C431 C430 1.297 . S
C431 C432 1.479 . S
C431 H445 0.950 . S
C432 C431 1.479 . S
C432 C433 1.375 . S
C432 C438 1.404 . S
C433 C432 1.375 . S
C433 C434 1.369 . S
C433 H446 0.950 . S
C434 C433 1.369 . S
C434 C435 1.392 . S
C434 H447 0.951 . S
C435 C434 1.392 . S
C435 C437 1.384 . S
H436 C438 0.949 . S
C437 C435 1.384 . S
C437 C438 1.385 . S
C437 H439 0.950 . S
C438 C432 1.404 . S
C438 H436 0.949 . S
C438 C437 1.385 . S
H439 C437 0.950 . S
H440 C424 0.951 . S
H441 C426 0.951 . S
H442 C428 0.951 . S
H443 C429 0.950 . S
H444 C430 0.950 . S
H445 C431 0.950 . S
H446 C433 0.950 . S
H447 C434 0.951 . S
C448 C449 1.386 . S
C448 C450 1.383 . S
C448 H464 0.951 . S
C449 C448 1.386 . S
C449 C453 1.383 . S
C450 C448 1.383 . S
C450 C451 1.402 . S
C450 H465 0.951 . S
C451 C450 1.402 . S
C451 C452 1.375 . S
C451 C454 1.481 . S
C452 C451 1.375 . S
C452 C453 1.367 . S
C452 H466 0.951 . S
C453 C449 1.383 . S
C453 C452 1.367 . S
C453 H467 0.950 . S
C454 C451 1.481 . S
C454 C455 1.297 . S
C454 H468 0.950 . S
C455 C454 1.297 . S
C455 C456 1.479 . S
C455 H469 0.950 . S
C456 C455 1.479 . S
C456 C457 1.375 . S
C456 C462 1.404 . S
C457 C456 1.375 . S
C457 C458 1.369 . S
C457 H470 0.950 . S
C458 C457 1.369 . S
C458 C459 1.392 . S
C458 H471 0.951 . S
C459 C458 1.392 . S
C459 C461 1.384 . S
H460 C462 0.949 . S
C461 C459 1.384 . S
C461 C462 1.385 . S
C461 H463 0.950 . S
C462 C456 1.404 . S
C462 H460 0.949 . S
C462 C461 1.385 . S
H463 C461 0.950 . S
H464 C448 0.951 . S
H465 C450 0.951 . S
H466 C452 0.951 . S
H467 C453 0.950 . S
H468 C454 0.950 . S
H469 C455 0.950 . S
H470 C457 0.950 . S
H471 C458 0.951 . S
C472 C473 1.386 . S
C472 C474 1.383 . S
C472 H488 0.951 . S
C473 C472 1.386 . S
C473 C477 1.383 . S
C474 C472 1.383 . S
C474 C475 1.402 . S
C474 H489 0.951 . S
C475 C474 1.402 . S
C475 C476 1.375 . S
C475 C478 1.481 . S
C476 C475 1.375 . S
C476 C477 1.367 . S
C476 H490 0.951 . S
C477 C473 1.383 . S
C477 C476 1.367 . S
C477 H491 0.950 . S
C478 C475 1.481 . S
C478 C479 1.297 . S
C478 H492 0.950 . S
C479 C478 1.297 . S
C479 C480 1.479 . S
C479 H493 0.950 . S
C480 C479 1.479 . S
C480 C481 1.375 . S
C480 C486 1.404 . S
C481 C480 1.375 . S
C481 C482 1.369 . S
C481 H494 0.950 . S
C482 C481 1.369 . S
C482 C483 1.392 . S
C482 H495 0.951 . S
C483 C482 1.392 . S
C483 C485 1.384 . S
H484 C486 0.949 . S
C485 C483 1.384 . S
C485 C486 1.385 . S
C485 H487 0.950 . S
C486 C480 1.404 . S
C486 H484 0.949 . S
C486 C485 1.385 . S
H487 C485 0.950 . S
H488 C472 0.951 . S
H489 C474 0.951 . S
H490 C476 0.951 . S
H491 C477 0.950 . S
H492 C478 0.950 . S
H493 C479 0.950 . S
H494 C481 0.950 . S
H495 C482 0.951 . S
C113 C13 1.433 . S
C123 C69 1.431 1_565 S
C137 C27 1.498 1_655 S
C147 C83 1.465 . S
C161 C97 1.499 . S
C171 C41 1.445 . S
C185 C111 1.498 1_655 S
C195 C55 1.441 . S
C209 C11 1.048 1_545 S
C219 C39 1.065 1_565 S
C233 C25 1.072 . S
C243 C53 1.056 . S
C257 C95 1.068 1_545 S
C267 C67 1.035 . S
C281 C81 1.071 1_455 S
C291 C109 1.042 . S
C305 C78 1.347 . S
C315 C8 1.288 . S
C329 C22 1.335 . S
C339 C92 1.311 . S
C353 C106 1.328 . S
C363 C36 1.306 . S
C377 C50 1.320 . S
C387 C64 1.319 . S
C401 C91 1.002 . S
C411 C49 0.962 . S
C425 C7 0.992 . S
C435 C105 0.985 . S
C449 C21 0.993 . S
C459 C63 0.993 . S
C473 C77 0.991 . S
C483 C35 0.981 . S
