# Generated by pormake.
# Topology reo, (8)-cn, num edge types: 1
# Building blocks:
#     Node 0, Type 0, BuildingBlock: LIZSOE_clean_sbu_0, # of connection points: 8
#     Node 1, Type 0, BuildingBlock: LIZSOE_clean_sbu_0, # of connection points: 8
#     Node 2, Type 0, BuildingBlock: LIZSOE_clean_sbu_0, # of connection points: 8
#     Edge 3, Type (0, 0), BuildingBlock: FUNLAD_clean_linker_1, # of connection points: 2
#     Edge 4, Type (0, 0), BuildingBlock: FUNLAD_clean_linker_1, # of connection points: 2
#     Edge 5, Type (0, 0), BuildingBlock: FUNLAD_clean_linker_1, # of connection points: 2
#     Edge 6, Type (0, 0), BuildingBlock: FUNLAD_clean_linker_1, # of connection points: 2
#     Edge 7, Type (0, 0), BuildingBlock: FUNLAD_clean_linker_1, # of connection points: 2
#     Edge 8, Type (0, 0), BuildingBlock: FUNLAD_clean_linker_1, # of connection points: 2
#     Edge 9, Type (0, 0), BuildingBlock: FUNLAD_clean_linker_1, # of connection points: 2
#     Edge 10, Type (0, 0), BuildingBlock: FUNLAD_clean_linker_1, # of connection points: 2
#     Edge 11, Type (0, 0), BuildingBlock: FUNLAD_clean_linker_1, # of connection points: 2
#     Edge 12, Type (0, 0), BuildingBlock: FUNLAD_clean_linker_1, # of connection points: 2
#     Edge 13, Type (0, 0), BuildingBlock: FUNLAD_clean_linker_1, # of connection points: 2
#     Edge 14, Type (0, 0), BuildingBlock: FUNLAD_clean_linker_1, # of connection points: 2
# Relax obj value: 0.290
# Max RMSD: 0.275
# Mean RMSD: 0.237
data_MOF--net-reo--node1-LIZSOE_clean_sbu_0--edge1-FUNLAD_clean_linker_1
_symmetry_space_group_name_H-M    P1
_symmetry_Int_Tables_number       1
_symmetry_cell_setting            triclinic
loop_
_symmetry_equiv_pos_as_xyz
'x, y, z'
_cell_length_a     28.415888
_cell_length_b     24.490318
_cell_length_c     20.843345
_cell_angle_alpha  91.194405
_cell_angle_beta   102.60185
_cell_angle_gamma 113.66089
loop_
_atom_site_label
_atom_site_type_symbol
_atom_site_fract_x
_atom_site_fract_y
_atom_site_fract_z
_atom_type_partial_charge
Co0 Co 0.11263 0.02948 0.46849 0.0
N1 N 0.17145 0.07052 0.43481 0.0
C2 C 0.19434 0.1278 0.42218 0.0
N3 N 0.24161 0.08224 0.39347 0.0
C4 C 0.20146 0.04429 0.41756 0.0
C5 C 0.23714 0.13503 0.39648 0.0
Co6 Co 0.93852 1.00325 0.65095 0.0
N7 N 0.87445 0.96679 0.67881 0.0
N8 N 0.80002 0.94927 0.71359 0.0
C9 C 0.81893 0.90911 0.73561 0.0
C10 C 0.8645 0.92034 0.71534 0.0
C11 C 0.83374 0.9833 0.67819 0.0
Co12 Co 0.02486 1.01331 0.55947 0.0
C13 C 0.98381 0.08943 0.63788 0.0
H14 H 0.88982 0.89715 0.72909 0.0
O15 O 0.05466 0.98112 0.49333 0.0
O16 O 0.95185 0.97507 0.49737 0.0
O17 O 0.03452 0.08854 0.51563 0.0
O18 O 0.0978 0.05169 0.62116 0.0
O19 O 0.15256 0.06826 0.5537 0.0
O20 O 0.89989 0.9811 0.56133 0.0
O21 O 0.99889 0.04575 0.62927 0.0
O22 O 0.94806 0.93067 0.65269 0.0
O23 O 0.08787 0.09189 0.4502 0.0
O24 O 0.07121 0.98883 0.3923 0.0
O25 O 1.01299 0.93704 0.60414 0.0
O26 O 0.93707 0.07406 0.64851 0.0
C27 C 0.0582 0.11203 0.47098 0.0
C28 C 0.82588 0.03201 0.64097 0.0
H29 H 0.84127 0.03598 0.5961 0.0
H30 H 0.78323 0.02291 0.6259 0.0
H31 H 0.8475 0.07548 0.67342 0.0
C32 C 0.90683 0.97002 0.50504 0.0
C33 C 0.14426 0.0722 0.61075 0.0
H34 H 0.18098 0.16217 0.4309 0.0
H35 H 0.16379 0.96257 0.45868 0.0
H36 H 0.22986 0.97796 0.44975 0.0
H37 H 0.17528 0.95303 0.37771 0.0
C38 C 0.19184 0.98062 0.42683 0.0
C39 C 0.0415 0.95865 0.4302 0.0
C40 C 0.97933 0.90973 0.63794 0.0
H41 H 0.26214 0.17583 0.3801 0.0
H42 H 0.80198 0.87528 0.76659 0.0
Co43 Co 0.53074 0.16292 0.08709 0.0
N44 N 0.54458 0.24137 0.07335 0.0
C45 C 0.56532 0.27365 1.02678 0.0
N46 N 0.53707 0.32882 0.07964 0.0
C47 C 0.52777 0.27613 0.10462 0.0
C48 C 0.56059 0.32754 1.03042 0.0
Co49 Co 0.52845 0.89838 1.02695 0.0
N50 N 0.51682 0.82015 0.03518 0.0
N51 N 0.53542 0.73988 1.02883 0.0
C52 C 0.48892 0.72317 0.04585 0.0
C53 C 0.47776 0.7728 0.05049 0.0
C54 C 0.55118 0.79908 1.02215 0.0
Co55 Co 0.52789 0.02896 0.06023 0.0
C56 C 0.52583 0.94567 0.94985 0.0
H57 H 0.44299 0.77377 0.06269 0.0
O58 O 0.51677 0.09157 0.10866 0.0
O59 O 0.56605 1.01203 0.14574 0.0
O60 O 0.5968 0.0842 0.04963 0.0
O61 O 0.48899 0.04499 0.97448 0.0
O62 O 0.4915 0.13625 0.99858 0.0
O63 O 0.55972 0.91954 0.1186 0.0
O64 O 0.54036 0.96874 1.01142 0.0
O65 O 0.46034 0.8838 0.04006 0.0
O66 O 0.59534 0.17336 0.06411 0.0
O67 O 0.56457 0.1789 0.17367 0.0
O68 O 0.45862 0.97075 0.07072 0.0
O69 O 0.50321 0.88717 0.93764 0.0
C70 C 0.61773 0.14033 0.05118 0.0
C71 C 0.59849 0.83757 0.99779 0.0
H72 H 0.5948 0.87859 0.98081 0.0
H73 H 0.63466 0.85235 0.03904 0.0
H74 H 0.60321 0.81235 0.95662 0.0
C75 C 0.57567 0.96618 0.16014 0.0
C76 C 0.47575 0.0883 0.95918 0.0
H77 H 0.58044 0.25787 0.99046 0.0
H78 H 0.48716 0.20735 0.16112 0.0
H79 H 0.45893 0.26095 0.14095 0.0
H80 H 0.51959 0.2829 0.20373 0.0
C81 C 0.49645 0.2551 0.15548 0.0
C82 C 0.53839 0.12069 0.16817 0.0
C83 C 0.4369 0.91386 0.05812 0.0
H84 H 0.57185 0.36207 0.99809 0.0
H85 H 0.46431 0.67795 0.05331 0.0
Co86 Co 0.12621 0.48271 0.07193 0.0
N87 N 0.19372 0.49187 0.11688 0.0
C88 C 0.20113 0.45785 0.16476 0.0
N89 N 0.27653 0.49697 0.1345 0.0
C90 C 0.24097 0.51637 0.10045 0.0
C91 C 0.25154 0.46104 0.17587 0.0
Co92 Co 0.90557 0.52323 1.01484 0.0
N93 N 0.84422 0.52349 0.96106 0.0
N94 N 0.77528 0.54697 0.92301 0.0
C95 C 0.75742 0.48675 0.91635 0.0
C96 C 0.79958 0.47257 0.9399 0.0
C97 C 0.82829 0.56836 0.94861 0.0
Co98 Co 1.01659 0.50215 0.04874 0.0
C99 C 0.95898 0.57548 0.10025 0.0
H100 H 0.79687 0.4278 0.9465 0.0
O101 O 0.06599 0.47135 1.02323 0.0
O102 O 0.01786 0.54978 0.96924 0.0
O103 O 0.07352 0.57617 0.102 0.0
O104 O 1.01765 0.45589 0.12903 0.0
O105 O 0.10265 0.46842 0.15156 0.0
O106 O 0.94791 0.57293 0.96077 0.0
O107 O 0.96346 0.52857 0.07372 0.0
O108 O 0.8951 0.45515 0.96001 0.0
O109 O 0.14602 0.56648 0.08999 0.0
O110 O 0.13976 0.49061 0.99072 0.0
O111 O 0.96099 0.42801 0.99447 0.0
O112 O 0.91887 0.58603 0.07067 0.0
C113 C 0.12295 0.59796 0.10608 0.0
C114 C 0.86364 0.63392 0.96892 0.0
H115 H 0.90594 0.64339 0.97509 0.0
H116 H 0.85291 0.66097 0.93115 0.0
H117 H 0.8579 0.64833 1.01639 0.0
C118 C 0.99016 0.57843 0.9441 0.0
C119 C 0.05796 0.45065 0.16628 0.0
H120 H 0.1703 0.42759 0.1858 0.0
H121 H 0.24431 0.52913 0.99998 0.0
H122 H 0.29361 0.58983 0.06002 0.0
H123 H 0.22574 0.58103 0.03983 0.0
C124 C 0.25156 0.55661 0.04708 0.0
C125 C 0.08843 0.47186 0.97447 0.0
C126 C 0.91667 0.41933 0.95639 0.0
H127 H 0.26617 0.43373 0.20718 0.0
H128 H 0.71621 0.45517 0.90051 0.0
H129 H 0.08824 0.43564 0.26788 0.0
C130 C 0.05411 0.41741 0.22554 0.0
H131 H 0.98991 0.33875 0.17572 0.0
H132 H 0.06635 0.14546 0.28446 0.0
H133 H 0.06447 0.13568 0.16828 0.0
H134 H 0.04995 0.20908 0.09659 0.0
H135 H 0.03618 0.29204 0.14031 0.0
C136 C 0.02066 0.35891 0.22121 0.0
C137 C 0.03285 0.31683 0.26769 0.0
C138 C 0.04239 0.26894 0.24212 0.0
C139 C 0.05325 0.22791 0.28442 0.0
C140 C 0.0601 0.17936 0.25585 0.0
C141 C 0.05874 0.17284 0.18889 0.0
C142 C 0.05037 0.21401 0.14848 0.0
C143 C 0.0422 0.2614 0.17438 0.0
H144 H 1.01093 0.16542 0.44427 0.0
C145 C 0.04597 0.16034 0.43793 0.0
H146 H 0.10861 0.18861 0.39111 0.0
H147 H 1.01084 0.39791 0.33277 0.0
H148 H 0.01957 0.41296 0.45101 0.0
H149 H 0.04919 0.35031 0.52618 0.0
H150 H 0.06831 0.27086 0.4838 0.0
C151 C 0.0741 0.19471 0.39756 0.0
C152 C 0.05715 0.23562 0.35361 0.0
C153 C 0.04875 0.28438 0.37952 0.0
C154 C 0.03497 0.32351 0.33636 0.0
C155 C 0.02356 0.36885 0.36342 0.0
C156 C 0.02817 0.37778 0.43113 0.0
C157 C 0.04454 0.34225 0.47345 0.0
C158 C 0.05493 0.29627 0.44829 0.0
H159 H 0.86646 0.94352 0.39783 0.0
C160 C 0.86176 0.95515 0.44592 0.0
H161 H 0.81214 0.9715 0.49841 0.0
H162 H 0.71046 0.01943 0.19834 0.0
H163 H 0.79773 0.09682 0.20319 0.0
H164 H 0.87379 0.11134 0.29623 0.0
H165 H 0.8633 0.04768 0.38396 0.0
C166 C 0.81719 0.961 0.45026 0.0
C167 C 0.7721 0.9523 0.39241 0.0
C168 C 0.7786 0.99181 0.3428 0.0
C169 C 0.73409 0.98545 0.29076 0.0
C170 C 0.74231 0.02343 0.24013 0.0
C171 C 0.79231 0.06801 0.24216 0.0
C172 C 0.83515 0.07604 0.29441 0.0
C173 C 0.8286 0.03872 0.34433 0.0
H174 H 0.62759 1.01032 0.2596 0.0
C175 C 0.61357 0.97086 0.22378 0.0
H176 H 0.62314 0.89251 0.19785 0.0
H177 H 0.74519 0.86929 0.47925 0.0
H178 H 0.65698 0.79503 0.47686 0.0
H179 H 0.57968 0.78689 0.38922 0.0
H180 H 0.59013 0.85313 0.30335 0.0
C181 C 0.63658 0.93196 0.23348 0.0
C182 C 0.6827 0.94154 0.29003 0.0
C183 C 0.67613 0.9028 0.34006 0.0
C184 C 0.72073 0.90804 0.39108 0.0
C185 C 0.71273 0.8681 0.43993 0.0
C186 C 0.6623 0.82502 0.43901 0.0
C187 C 0.61879 0.82037 0.38961 0.0
C188 C 0.62537 0.85859 0.34054 0.0
H189 H 0.97246 0.86729 0.4046 0.0
C190 C 1.01433 0.89191 0.40714 0.0
H191 H 0.08322 0.8933 0.38448 0.0
H192 H 0.95625 0.59953 0.30414 0.0
H193 H 0.93879 0.59261 0.41351 0.0
H194 H 0.95988 0.6838 0.48706 0.0
H195 H 0.99722 0.7826 0.45158 0.0
C196 C 0.04145 0.86603 0.37974 0.0
C197 C 0.02027 0.80828 0.33272 0.0
C198 C 0.99861 0.75048 0.3537 0.0
C199 C 0.98718 0.69736 0.31108 0.0
C200 C 0.96516 0.64082 0.33396 0.0
C201 C 0.95533 0.6363 0.39672 0.0
C202 C 0.96719 0.68769 0.43819 0.0
C203 C 0.98863 0.74418 0.41724 0.0
H204 H 0.03565 0.62815 0.17769 0.0
C205 C 0.9935 0.61688 0.16295 0.0
H206 H 0.92851 0.6303 0.1818 0.0
H207 H 0.06044 0.90981 0.2735 0.0
H208 H 0.08063 0.91653 0.16633 0.0
H209 H 0.06345 0.82559 0.09512 0.0
H210 H 0.02623 0.72731 0.13079 0.0
C211 C 0.97135 0.64564 0.19608 0.0
C212 C 0.99823 0.70097 0.24735 0.0
C213 C 0.02131 0.75893 0.22717 0.0
C214 C 0.03178 0.81192 0.26908 0.0
C215 C 0.053 0.86836 0.24526 0.0
C216 C 0.06437 0.87292 0.18338 0.0
C217 C 0.05459 0.82171 0.14323 0.0
C218 C 0.03308 0.76539 0.1644 0.0
H219 H 0.52935 0.12671 0.26982 0.0
C220 C 0.51175 0.09864 0.22233 0.0
H221 H 0.44124 0.03598 0.15949 0.0
H222 H 0.3671 0.05998 0.43999 0.0
H223 H 0.42494 1.01364 0.49043 0.0
H224 H 0.48189 0.99213 0.42913 0.0
H225 H 0.48151 0.01705 0.31682 0.0
C226 C 0.45973 0.06136 0.2082 0.0
C227 C 0.4233 0.07065 0.24533 0.0
C228 C 0.42304 0.05488 0.31037 0.0
C229 C 0.38915 0.06617 0.34527 0.0
C230 C 0.39101 0.05131 0.41074 0.0
C231 C 0.42421 0.02491 0.44038 0.0
C232 C 0.45641 1.01295 0.40592 0.0
C233 C 0.45597 0.02763 0.34164 0.0
H234 H 0.26924 0.01997 0.35396 0.0
C235 C 0.27803 0.06705 0.36562 0.0
H236 H 0.33114 0.15617 0.36223 0.0
H237 H 0.41236 0.10592 0.12054 0.0
H238 H 0.35579 0.1534 0.07125 0.0
H239 H 0.2966 0.17168 0.13097 0.0
H240 H 0.29474 0.14374 0.2415 0.0
C241 C 0.32175 0.10886 0.35192 0.0
C242 C 0.35515 0.09291 0.31492 0.0
C243 C 0.355 0.10802 0.24954 0.0
C244 C 0.38865 0.09656 0.21464 0.0
C245 C 0.38762 0.11292 0.14961 0.0
C246 C 0.35516 0.14026 0.1204 0.0
C247 C 0.32206 0.15083 0.15416 0.0
C248 C 0.32159 0.13474 0.21777 0.0
H249 H 0.93875 0.82481 0.67645 0.0
C250 C 0.97621 0.85284 0.66546 0.0
H251 H 0.05688 0.86939 0.68281 0.0
H252 H 0.05685 0.74 0.94466 0.0
H253 H 0.11942 0.84264 0.98564 0.0
H254 H 0.13533 0.92142 0.91107 0.0
H255 H 0.08806 0.8986 0.79531 0.0
C256 C 0.01805 0.83927 0.68832 0.0
C257 C 1.01382 0.78915 0.73135 0.0
C258 C 0.04309 0.8026 0.79885 0.0
C259 C 0.03447 0.75668 0.84209 0.0
C260 C 0.06222 0.77263 0.90966 0.0
C261 C 0.09821 0.83147 0.9339 0.0
C262 C 0.10721 0.87583 0.89187 0.0
C263 C 0.07988 0.86198 0.82532 0.0
H264 H 0.04648 0.62965 0.88458 0.0
C265 C 1.00848 0.62116 0.89501 0.0
H266 H 0.94132 0.64109 0.87393 0.0
H267 H 0.95839 0.74438 0.60334 0.0
H268 H 0.89695 0.64111 0.56227 0.0
H269 H 0.88125 0.56256 0.63716 0.0
H270 H 0.92696 0.58657 0.75383 0.0
C271 C 0.98005 0.65093 0.86516 0.0
C272 C 0.99735 0.69666 0.81798 0.0
C273 C 0.97045 0.68262 0.74978 0.0
C274 C 0.97895 0.72843 0.70653 0.0
C275 C 0.95222 0.712 0.63864 0.0
C276 C 0.91722 0.65278 0.61429 0.0
C277 C 0.90837 0.60851 0.65648 0.0
C278 C 0.93465 0.62294 0.72338 0.0
H279 H 0.41943 0.03702 0.86471 0.0
C280 C 0.43372 0.07824 0.89787 0.0
H281 H 0.41924 0.15277 0.92416 0.0
H282 H 0.25886 0.06377 0.62156 0.0
H283 H 0.33766 0.08817 0.58105 0.0
H284 H 0.42532 0.11794 0.65862 0.0
H285 H 0.43439 0.12211 0.77733 0.0
C286 C 0.40706 0.11349 0.88875 0.0
C287 C 0.35438 0.09463 0.84056 0.0
C288 C 0.35003 0.09482 0.77152 0.0
C289 C 0.2997 0.08043 0.72693 0.0
C290 C 0.29619 0.07723 0.65797 0.0
C291 C 0.34115 0.09063 0.63393 0.0
C292 C 0.39047 0.10718 0.67759 0.0
C293 C 0.39511 0.10929 0.74562 0.0
H294 H 0.22275 0.13765 0.66838 0.0
C295 C 0.19129 0.09351 0.66707 0.0
H296 H 0.17043 1.009 0.7022 0.0
H297 H 0.34742 0.0834 0.96905 0.0
H298 H 0.26831 0.05827 1.0096 0.0
H299 H 0.18246 0.03957 0.93331 0.0
H300 H 0.17461 0.04409 0.81557 0.0
C301 C 0.20118 0.05411 0.70572 0.0
C302 C 0.25412 0.06863 0.75178 0.0
C303 C 0.25834 0.06693 0.82066 0.0
C304 C 0.3083 0.07945 0.86494 0.0
C305 C 0.31083 0.07577 0.93331 0.0
C306 C 0.26572 0.06122 0.95731 0.0
C307 C 0.2173 0.05043 0.9143 0.0
C308 C 0.21337 0.05312 0.84677 0.0
H309 H 1.0161 0.40438 0.90244 0.0
C310 C 0.05885 0.42866 0.91187 0.0
H311 H 0.12857 0.43382 0.88666 0.0
H312 H 0.05834 0.16357 0.78757 0.0
H313 H 0.10424 0.16817 0.90079 0.0
H314 H 0.13226 0.25736 0.98101 0.0
H315 H 0.11353 0.3423 0.94847 0.0
C316 C 0.08559 0.41099 0.87473 0.0
C317 C 0.06259 0.35425 0.82632 0.0
C318 C 0.07469 0.30476 0.84468 0.0
C319 C 0.05928 0.25327 0.79751 0.0
C320 C 0.0699 0.20418 0.81974 0.0
C321 C 0.0962 0.20609 0.88507 0.0
C322 C 0.11199 0.2563 0.93026 0.0
C323 C 0.10124 0.30496 0.91073 0.0
H324 H 0.06409 0.16703 0.67133 0.0
C325 C 0.0217 0.15405 0.66219 0.0
H326 H 0.9601 0.17845 0.67268 0.0
H327 H 0.03481 0.44047 0.7726 0.0
H328 H 0.99088 0.43795 0.65799 0.0
H329 H 0.96649 0.35111 0.57585 0.0
H330 H 0.98601 0.26617 0.60741 0.0
C331 C 1.00276 0.19225 0.685 0.0
C332 C 0.03255 0.25118 0.73051 0.0
C333 C 0.02197 0.30169 0.712 0.0
C334 C 0.03653 0.35254 0.75955 0.0
C335 C 0.02481 0.40121 0.73864 0.0
C336 C 0.99957 0.40028 0.67307 0.0
C337 C 0.98573 0.3513 0.62683 0.0
C338 C 0.99679 0.30262 0.64571 0.0
H339 H 0.57128 0.02894 0.90949 0.0
C340 C 0.55587 0.98025 0.90302 0.0
H341 H 0.56007 0.90418 0.85995 0.0
H342 H 0.67402 0.97048 0.64 0.0
H343 H 0.58309 0.92389 0.57351 0.0
H344 H 0.50822 0.90483 0.62458 0.0
H345 H 0.52382 0.93256 0.74254 0.0
C346 C 0.57509 0.95287 0.86507 0.0
C347 C 0.61947 0.98332 0.83235 0.0
C348 C 0.61023 0.96773 0.76338 0.0
C349 C 0.65345 0.97816 0.73397 0.0
C350 C 0.6426 0.96212 0.66499 0.0
C351 C 0.59065 0.93579 0.62623 0.0
C352 C 0.54848 0.92508 0.65499 0.0
C353 C 0.55792 0.94082 0.7227 0.0
H354 H 0.72168 0.9103 0.7333 0.0
C355 C 0.75354 0.95223 0.72838 0.0
H356 H 0.78471 0.0466 0.74786 0.0
H357 H 0.65363 0.02657 0.9651 0.0
H358 H 0.7441 0.08137 1.02794 0.0
H359 H 0.81843 0.10278 0.9756 0.0
H360 H 0.80255 0.06793 0.86004 0.0
C361 C 0.75122 1.00422 0.74631 0.0
C362 C 0.70629 1.00408 0.77352 0.0
C363 C 0.71591 0.02638 0.84075 0.0
C364 C 0.67262 0.01528 0.87058 0.0
C365 C 0.68413 0.0347 0.93895 0.0
C366 C 0.73619 0.06622 0.97597 0.0
C367 C 0.77808 0.07814 0.94655 0.0
C368 C 0.76835 0.05793 0.88005 0.0
H369 H 0.33039 0.51514 0.06907 0.0
C370 C 0.32306 0.49873 0.11558 0.0
H371 H 0.34674 0.45485 0.19433 0.0
H372 H 0.41057 0.30059 1.01539 0.0
H373 H 0.32121 0.22929 1.01322 0.0
H374 H 0.26131 0.26088 0.058 0.0
H375 H 0.29033 0.36398 0.10494 0.0
C376 C 0.35324 0.47285 0.14841 0.0
C377 C 0.38817 0.45607 0.11653 0.0
C378 C 0.37031 0.39568 0.08889 0.0
C379 C 0.4048 0.37744 0.06332 0.0
C380 C 0.3861 0.31678 0.03607 0.0
C381 C 0.33486 0.2754 0.03434 0.0
C382 C 0.30113 0.29319 0.0595 0.0
C383 C 0.31837 0.35254 0.08644 0.0
H384 H 0.51293 0.37546 0.14687 0.0
C385 C 0.51806 0.37195 0.09695 0.0
H386 H 0.49612 0.39068 0.99926 0.0
H387 H 0.43299 0.57584 0.1618 0.0
H388 H 0.52208 0.64747 0.16219 0.0
H389 H 0.58192 0.61523 0.11873 0.0
H390 H 0.55351 0.51151 0.0735 0.0
C391 C 0.4955 0.39723 0.05069 0.0
C392 C 0.45731 0.4194 0.06647 0.0
C393 C 0.47427 0.48028 0.0911 0.0
C394 C 0.43955 0.49875 0.11618 0.0
C395 C 0.45773 0.55958 0.14187 0.0
C396 C 0.5087 0.60103 0.14247 0.0
C397 C 0.54251 0.58291 0.1179 0.0
C398 C 0.52577 0.52331 0.09236 0.0
H399 H 0.1309 0.69006 0.1292 0.0
C400 C 0.15255 0.66326 0.12279 0.0
H401 H 0.22527 0.6645 0.11286 0.0
H402 H 0.28467 0.89713 0.97422 0.0
H403 H 0.21417 0.83363 0.87942 0.0
H404 H 0.14974 0.73329 0.89256 0.0
H405 H 0.15431 0.69641 1.00005 0.0
C406 C 0.20318 0.69046 0.12016 0.0
C407 C 0.22857 0.75545 0.11603 0.0
C408 C 0.22353 0.77637 0.05308 0.0
C409 C 0.26093 0.83337 0.04503 0.0
C410 C 0.25703 0.85343 0.98183 0.0
C411 C 0.21696 0.81761 0.92751 0.0
C412 C 0.18065 0.76112 0.93495 0.0
C413 C 0.18369 0.74046 0.99691 0.0
H414 H 0.36726 0.83169 0.05864 0.0
C415 C 0.38334 0.8805 0.0667 0.0
H416 H 0.369 0.95526 0.09536 0.0
H417 H 0.23917 0.7342 0.24529 0.0
H418 H 0.30563 0.80189 0.34039 0.0
H419 H 0.37101 0.90086 0.32543 0.0
H420 H 0.37048 0.93288 0.21502 0.0
C421 C 0.35455 0.90689 0.086 0.0
C422 C 0.3034 0.86771 0.09921 0.0
C423 C 0.3029 0.85137 0.16368 0.0
C424 C 0.26539 0.79453 0.17218 0.0
C425 C 0.26718 0.77716 0.23657 0.0
C426 C 0.30492 0.81556 0.29126 0.0
C427 C 0.34178 0.87137 0.28284 0.0
C428 C 0.34121 0.88917 0.21966 0.0
H429 H 0.69646 0.14378 0.05652 0.0
C430 C 0.67062 0.16621 0.03968 0.0
H431 H 0.65938 0.23166 0.98161 0.0
H432 H 0.92052 0.33283 0.06978 0.0
H433 H 0.91204 0.36083 0.17749 0.0
H434 H 0.82414 0.32949 0.20071 0.0
H435 H 0.74414 0.27073 0.11613 0.0
C436 C 0.68595 0.21157 1.00374 0.0
C437 C 0.73851 0.23101 0.98932 0.0
C438 C 0.78474 0.26499 0.03968 0.0
C439 C 0.83521 0.28376 1.0259 0.0
C440 C 0.88096 0.31813 0.07694 0.0
C441 C 0.87675 0.33418 0.13926 0.0
C442 C 0.82725 0.31655 0.15236 0.0
C443 C 0.78164 0.28249 0.10337 0.0
H444 H 0.84508 0.35694 0.88796 0.0
C445 C 0.88337 0.36071 0.91689 0.0
H446 H 0.92446 0.31389 0.96765 0.0
H447 H 0.65783 0.15798 0.88556 0.0
H448 H 0.66682 0.12823 0.77838 0.0
H449 H 0.75481 0.16347 0.75396 0.0
H450 H 0.83462 0.2287 0.8372 0.0
C451 C 0.88633 0.31121 0.94 0.0
C452 C 0.83884 0.27086 0.96089 0.0
C453 C 0.79307 0.23268 0.91249 0.0
C454 C 0.7426 0.21265 0.92663 0.0
C455 C 0.69722 0.1749 0.87715 0.0
C456 C 0.70184 0.15759 0.81549 0.0
C457 C 0.75141 0.17744 0.80172 0.0
C458 C 0.7967 0.21482 0.84951 0.0
H459 H 0.76059 0.62788 0.91512 0.0
C460 C 0.74371 0.58063 0.92202 0.0
H461 H 0.68285 0.5127 0.95452 0.0
H462 H 0.66878 0.7158 0.13428 0.0
H463 H 0.72771 0.68727 0.21474 0.0
H464 H 0.76287 0.61717 0.18066 0.0
H465 H 0.73969 0.57572 0.06572 0.0
C466 C 0.69835 0.55822 0.9417 0.0
C467 C 0.67545 0.59865 0.96149 0.0
C468 C 0.68882 0.62177 1.02903 0.0
C469 C 0.66832 0.66185 0.04866 0.0
C470 C 0.68326 0.68529 0.11636 0.0
C471 C 0.71697 0.66913 0.16322 0.0
C472 C 0.73671 0.62963 0.14405 0.0
C473 C 0.723 0.60612 0.07786 0.0
H474 H 0.53136 0.65334 0.99331 0.0
C475 C 0.55793 0.69962 1.01314 0.0
H476 H 0.63779 0.76125 0.04817 0.0
H477 H 0.64302 0.56232 0.82839 0.0
H478 H 0.58827 0.59516 0.7462 0.0
H479 H 0.55519 0.66772 0.77922 0.0
H480 H 0.57591 0.70716 0.89421 0.0
C481 C 0.61045 0.71743 1.02222 0.0
C482 C 0.63327 0.67724 1.00086 0.0
C483 C 0.62146 0.6557 0.93281 0.0
C484 C 0.64206 0.61562 0.91333 0.0
C485 C 0.62901 0.59367 0.84552 0.0
C486 C 0.59765 0.61211 0.7979 0.0
C487 C 0.57888 0.65281 0.81652 0.0
C488 C 0.59067 0.67465 0.883 0.0
loop_
_geom_bond_atom_site_label_1
_geom_bond_atom_site_label_2
_geom_bond_distance
_geom_bond_site_symmetry_2
_ccdc_geom_bond_type
Co0 N1 2.034 . S
Co0 O15 2.262 1_545 S
Co0 O19 1.958 . S
Co0 O23 1.950 . S
Co0 O24 2.057 1_545 S
N1 Co0 2.034 . S
N1 C2 1.366 . S
N1 C4 1.332 . S
C2 N1 1.366 . S
C2 C5 1.377 . S
C2 H34 0.931 . S
N3 C4 1.346 . S
N3 C5 1.337 . S
C4 N1 1.332 . S
C4 N3 1.346 . S
C4 C38 1.361 . S
C5 C2 1.377 . S
C5 N3 1.337 . S
C5 H41 0.930 . S
Co6 N7 2.034 . S
Co6 O20 1.950 . S
Co6 O21 2.262 1_565 S
Co6 O22 1.958 . S
Co6 O26 2.057 1_565 S
N7 Co6 2.034 . S
N7 C10 1.366 . S
N7 C11 1.332 . S
N8 C9 1.337 . S
N8 C11 1.346 . S
C9 N8 1.337 . S
C9 C10 1.377 . S
C9 H42 0.930 . S
C10 N7 1.366 . S
C10 C9 1.377 . S
C10 H14 0.931 . S
C11 N7 1.332 . S
C11 N8 1.346 . S
C11 C28 1.361 1_565 S
Co12 O15 2.097 1_545 S
Co12 O16 2.065 1_445 S
Co12 O17 2.065 . S
Co12 O18 2.042 . S
Co12 O21 2.097 1_455 S
Co12 O25 2.042 1_445 S
C13 O21 1.253 . S
C13 O26 1.263 . S
H14 C10 0.931 . S
O15 Co0 2.262 1_565 S
O15 Co12 2.097 1_565 S
O15 C39 1.253 . S
O16 Co12 2.065 1_665 S
O16 C32 1.221 . S
O17 Co12 2.065 . S
O17 C27 1.221 . S
O18 Co12 2.042 . S
O18 C33 1.237 . S
O19 Co0 1.958 . S
O19 C33 1.278 . S
O20 Co6 1.950 . S
O20 C32 1.277 . S
O21 Co6 2.262 1_545 S
O21 Co12 2.097 1_655 S
O21 C13 1.253 . S
O22 Co6 1.958 . S
O22 C40 1.278 . S
O23 Co0 1.950 . S
O23 C27 1.277 . S
O24 Co0 2.057 1_565 S
O24 C39 1.263 . S
O25 Co12 2.042 1_665 S
O25 C40 1.237 . S
O26 Co6 2.057 1_545 S
O26 C13 1.263 . S
C27 O17 1.221 . S
C27 O23 1.277 . S
C28 C11 1.361 1_545 S
C28 H29 0.960 . S
C28 H30 0.961 . S
C28 H31 0.961 . S
H29 C28 0.960 . S
H30 C28 0.961 . S
H31 C28 0.961 . S
C32 O16 1.221 . S
C32 O20 1.277 . S
C33 O18 1.237 . S
C33 O19 1.278 . S
H34 C2 0.931 . S
H35 C38 0.961 . S
H36 C38 0.961 . S
H37 C38 0.960 . S
C38 C4 1.361 . S
C38 H35 0.961 . S
C38 H36 0.961 . S
C38 H37 0.960 . S
C39 O15 1.253 . S
C39 O24 1.263 . S
C40 O22 1.278 . S
C40 O25 1.237 . S
H41 C5 0.930 . S
H42 C9 0.930 . S
Co43 N44 2.034 1_554 S
Co43 O58 2.262 . S
Co43 O62 1.958 1_554 S
Co43 O66 1.950 . S
Co43 O67 2.057 . S
N44 Co43 2.034 1_556 S
N44 C45 1.366 . S
N44 C47 1.332 1_556 S
C45 N44 1.366 . S
C45 C48 1.377 . S
C45 H77 0.931 . S
N46 C47 1.346 . S
N46 C48 1.337 1_554 S
C47 N44 1.332 1_554 S
C47 N46 1.346 . S
C47 C81 1.361 . S
C48 C45 1.377 . S
C48 N46 1.337 1_556 S
C48 H84 0.930 . S
Co49 N50 2.034 . S
Co49 O63 1.950 . S
Co49 O64 2.262 1_554 S
Co49 O65 1.958 1_554 S
Co49 O69 2.057 1_554 S
N50 Co49 2.034 . S
N50 C53 1.366 . S
N50 C54 1.332 . S
N51 C52 1.337 . S
N51 C54 1.346 . S
C52 N51 1.337 . S
C52 C53 1.377 . S
C52 H85 0.930 . S
C53 N50 1.366 . S
C53 C52 1.377 . S
C53 H57 0.931 . S
C54 N50 1.332 . S
C54 N51 1.346 . S
C54 C71 1.361 . S
Co55 O58 2.097 . S
Co55 O59 2.065 . S
Co55 O60 2.065 . S
Co55 O61 2.042 1_554 S
Co55 O64 2.097 1_544 S
Co55 O68 2.042 1_545 S
C56 O64 1.253 . S
C56 O69 1.263 . S
H57 C53 0.931 . S
O58 Co43 2.262 . S
O58 Co55 2.097 . S
O58 C82 1.253 . S
O59 Co55 2.065 . S
O59 C75 1.221 1_545 S
O60 Co55 2.065 . S
O60 C70 1.221 . S
O61 Co55 2.042 1_556 S
O61 C76 1.237 . S
O62 Co43 1.958 1_556 S
O62 C76 1.278 . S
O63 Co49 1.950 . S
O63 C75 1.277 . S
O64 Co49 2.262 1_556 S
O64 Co55 2.097 1_566 S
O64 C56 1.253 . S
O65 Co49 1.958 1_556 S
O65 C83 1.278 1_556 S
O66 Co43 1.950 . S
O66 C70 1.277 . S
O67 Co43 2.057 . S
O67 C82 1.263 . S
O68 Co55 2.042 1_565 S
O68 C83 1.237 . S
O69 Co49 2.057 1_556 S
O69 C56 1.263 . S
C70 O60 1.221 . S
C70 O66 1.277 . S
C71 C54 1.361 . S
C71 H72 0.960 . S
C71 H73 0.961 . S
C71 H74 0.961 . S
H72 C71 0.960 . S
H73 C71 0.961 . S
H74 C71 0.961 . S
C75 O59 1.221 1_565 S
C75 O63 1.277 . S
C76 O61 1.237 . S
C76 O62 1.278 . S
H77 C45 0.931 . S
H78 C81 0.961 . S
H79 C81 0.961 . S
H80 C81 0.960 . S
C81 C47 1.361 . S
C81 H78 0.961 . S
C81 H79 0.961 . S
C81 H80 0.960 . S
C82 O58 1.253 . S
C82 O67 1.263 . S
C83 O65 1.278 1_554 S
C83 O68 1.237 . S
H84 C48 0.930 . S
H85 C52 0.930 . S
Co86 N87 2.034 . S
Co86 O101 2.262 1_554 S
Co86 O105 1.958 . S
Co86 O109 1.950 . S
Co86 O110 2.057 1_554 S
N87 Co86 2.034 . S
N87 C88 1.366 . S
N87 C90 1.332 . S
C88 N87 1.366 . S
C88 C91 1.377 . S
C88 H120 0.931 . S
N89 C90 1.346 . S
N89 C91 1.337 . S
C90 N87 1.332 . S
C90 N89 1.346 . S
C90 C124 1.361 1_554 S
C91 C88 1.377 . S
C91 N89 1.337 . S
C91 H127 0.930 . S
Co92 N93 2.034 1_554 S
Co92 O106 1.950 1_554 S
Co92 O107 2.262 . S
Co92 O108 1.958 . S
Co92 O112 2.057 . S
N93 Co92 2.034 1_556 S
N93 C96 1.366 . S
N93 C97 1.332 . S
N94 C95 1.337 . S
N94 C97 1.346 . S
C95 N94 1.337 . S
C95 C96 1.377 . S
C95 H128 0.930 . S
C96 N93 1.366 . S
C96 C95 1.377 . S
C96 H100 0.931 . S
C97 N93 1.332 . S
C97 N94 1.346 . S
C97 C114 1.361 . S
Co98 O101 2.097 1_554 S
Co98 O102 2.065 1_454 S
Co98 O103 2.065 . S
Co98 O104 2.042 . S
Co98 O107 2.097 1_455 S
Co98 O111 2.042 1_454 S
C99 O107 1.253 . S
C99 O112 1.263 . S
H100 C96 0.931 . S
O101 Co86 2.262 1_556 S
O101 Co98 2.097 1_556 S
O101 C125 1.253 . S
O102 Co98 2.065 1_656 S
O102 C118 1.221 . S
O103 Co98 2.065 . S
O103 C113 1.221 . S
O104 Co98 2.042 . S
O104 C119 1.237 . S
O105 Co86 1.958 . S
O105 C119 1.278 . S
O106 Co92 1.950 1_556 S
O106 C118 1.277 . S
O107 Co92 2.262 . S
O107 Co98 2.097 1_655 S
O107 C99 1.253 . S
O108 Co92 1.958 . S
O108 C126 1.274 1_554 S
O109 Co86 1.950 . S
O109 C113 1.277 . S
O110 Co86 2.057 1_556 S
O110 C125 1.263 . S
O111 Co98 2.042 1_656 S
O111 C126 1.241 . S
O112 Co92 2.057 . S
O112 C99 1.263 . S
C113 O103 1.221 . S
C113 O109 1.277 . S
C114 C97 1.361 . S
C114 H115 0.960 . S
C114 H116 0.961 . S
C114 H117 0.961 1_556 S
H115 C114 0.960 . S
H116 C114 0.961 . S
H117 C114 0.961 1_554 S
C118 O102 1.221 . S
C118 O106 1.277 . S
C119 O104 1.237 . S
C119 O105 1.278 . S
H120 C88 0.931 . S
H121 C124 0.961 . S
H122 C124 0.961 . S
H123 C124 0.960 . S
C124 C90 1.361 1_556 S
C124 H121 0.961 . S
C124 H122 0.961 . S
C124 H123 0.960 . S
C125 O101 1.253 . S
C125 O110 1.263 . S
C126 O108 1.274 1_556 S
C126 O111 1.241 . S
H127 C91 0.930 . S
H128 C95 0.930 . S
H129 C130 0.951 . S
C130 H129 0.951 . S
C130 C136 1.265 . S
H131 C136 0.950 1_655 S
H132 C140 0.949 . S
H133 C141 0.950 . S
H134 C142 0.951 . S
H135 C143 0.951 . S
C136 C130 1.265 . S
C136 H131 0.950 1_455 S
C136 C137 1.478 . S
C137 C136 1.478 . S
C137 C138 1.397 . S
C137 C154 1.394 . S
C138 C137 1.397 . S
C138 C139 1.438 . S
C138 C143 1.429 . S
C139 C138 1.438 . S
C139 C140 1.428 . S
C139 C152 1.394 . S
C140 H132 0.949 . S
C140 C139 1.428 . S
C140 C141 1.345 . S
C141 H133 0.950 . S
C141 C140 1.345 . S
C141 C142 1.424 . S
C142 H134 0.951 . S
C142 C141 1.424 . S
C142 C143 1.347 . S
C143 H135 0.951 . S
C143 C138 1.429 . S
C143 C142 1.347 . S
H144 C145 0.951 . S
C145 H144 0.951 . S
C145 C151 1.265 . S
H146 C151 0.950 . S
H147 C155 0.949 . S
H148 C156 0.950 . S
H149 C157 0.951 . S
H150 C158 0.951 . S
C151 C145 1.265 . S
C151 H146 0.950 . S
C151 C152 1.478 . S
C152 C139 1.394 . S
C152 C151 1.478 . S
C152 C153 1.397 . S
C153 C152 1.397 . S
C153 C154 1.438 . S
C153 C158 1.429 . S
C154 C137 1.394 . S
C154 C153 1.438 . S
C154 C155 1.428 . S
C155 H147 0.949 . S
C155 C154 1.428 . S
C155 C156 1.345 . S
C156 H148 0.950 . S
C156 C155 1.345 . S
C156 C157 1.424 . S
C157 H149 0.951 . S
C157 C156 1.424 . S
C157 C158 1.347 . S
C158 H150 0.951 . S
C158 C153 1.429 . S
C158 C157 1.347 . S
H159 C160 0.951 . S
C160 H159 0.951 . S
C160 C166 1.265 . S
H161 C166 0.950 . S
H162 C170 0.949 . S
H163 C171 0.950 . S
H164 C172 0.951 . S
H165 C173 0.951 . S
C166 C160 1.265 . S
C166 H161 0.950 . S
C166 C167 1.478 . S
C167 C166 1.478 . S
C167 C168 1.397 . S
C167 C184 1.394 1_565 S
C168 C167 1.397 . S
C168 C169 1.438 . S
C168 C173 1.429 . S
C169 C168 1.438 . S
C169 C170 1.428 . S
C169 C182 1.394 . S
C170 H162 0.949 . S
C170 C169 1.428 . S
C170 C171 1.345 . S
C171 H163 0.950 . S
C171 C170 1.345 . S
C171 C172 1.424 . S
C172 H164 0.951 . S
C172 C171 1.424 . S
C172 C173 1.347 . S
C173 H165 0.951 . S
C173 C168 1.429 . S
C173 C172 1.347 . S
H174 C175 0.951 . S
C175 H174 0.951 . S
C175 C181 1.261 1_545 S
H176 C181 0.945 . S
H177 C185 0.949 . S
H178 C186 0.950 . S
H179 C187 0.951 . S
H180 C188 0.951 . S
C181 C175 1.261 1_565 S
C181 H176 0.945 . S
C181 C182 1.490 . S
C182 C169 1.394 . S
C182 C181 1.490 . S
C182 C183 1.397 1_565 S
C183 C182 1.397 1_545 S
C183 C184 1.438 . S
C183 C188 1.429 . S
C184 C167 1.394 1_545 S
C184 C183 1.438 . S
C184 C185 1.428 . S
C185 H177 0.949 . S
C185 C184 1.428 . S
C185 C186 1.345 . S
C186 H178 0.950 . S
C186 C185 1.345 . S
C186 C187 1.424 . S
C187 H179 0.951 . S
C187 C186 1.424 . S
C187 C188 1.347 . S
C188 H180 0.951 . S
C188 C183 1.429 . S
C188 C187 1.347 . S
H189 C190 0.960 . S
C190 H189 0.960 . S
C190 C196 1.270 1_455 S
H191 C196 0.950 . S
H192 C200 0.949 . S
H193 C201 0.950 . S
H194 C202 0.951 . S
H195 C203 0.951 . S
C196 C190 1.270 1_655 S
C196 H191 0.950 . S
C196 C197 1.478 . S
C197 C196 1.478 . S
C197 C198 1.397 . S
C197 C214 1.394 1_655 S
C198 C197 1.397 . S
C198 C199 1.438 . S
C198 C203 1.429 . S
C199 C198 1.438 . S
C199 C200 1.428 . S
C199 C212 1.394 1_655 S
C200 H192 0.949 . S
C200 C199 1.428 . S
C200 C201 1.345 . S
C201 H193 0.950 . S
C201 C200 1.345 . S
C201 C202 1.424 . S
C202 H194 0.951 . S
C202 C201 1.424 . S
C202 C203 1.347 . S
C203 H195 0.951 . S
C203 C198 1.429 . S
C203 C202 1.347 . S
H204 C205 0.951 1_655 S
C205 H204 0.951 1_455 S
C205 C211 1.265 . S
H206 C211 0.950 . S
H207 C215 0.949 . S
H208 C216 0.950 . S
H209 C217 0.951 . S
H210 C218 0.951 . S
C211 C205 1.265 . S
C211 H206 0.950 . S
C211 C212 1.478 . S
C212 C199 1.394 1_455 S
C212 C211 1.478 . S
C212 C213 1.397 . S
C213 C212 1.397 . S
C213 C214 1.438 . S
C213 C218 1.429 . S
C214 C197 1.394 1_455 S
C214 C213 1.438 . S
C214 C215 1.428 . S
C215 H207 0.949 . S
C215 C214 1.428 . S
C215 C216 1.345 . S
C216 H208 0.950 . S
C216 C215 1.345 . S
C216 C217 1.424 . S
C217 H209 0.951 . S
C217 C216 1.424 . S
C217 C218 1.347 . S
C218 H210 0.951 . S
C218 C213 1.429 . S
C218 C217 1.347 . S
H219 C220 0.951 . S
C220 H219 0.951 . S
C220 C226 1.265 . S
H221 C226 0.950 1_565 S
H222 C230 0.949 1_545 S
H223 C231 0.950 . S
H224 C232 0.951 . S
H225 C233 0.951 . S
C226 C220 1.265 . S
C226 H221 0.950 1_545 S
C226 C227 1.478 . S
C227 C226 1.478 . S
C227 C228 1.397 . S
C227 C244 1.394 . S
C228 C227 1.397 . S
C228 C229 1.438 . S
C228 C233 1.429 1_545 S
C229 C228 1.438 . S
C229 C230 1.428 1_545 S
C229 C242 1.394 . S
C230 H222 0.949 1_565 S
C230 C229 1.428 1_565 S
C230 C231 1.345 . S
C231 H223 0.950 . S
C231 C230 1.345 . S
C231 C232 1.424 . S
C232 H224 0.951 . S
C232 C231 1.424 . S
C232 C233 1.347 . S
C233 H225 0.951 . S
C233 C228 1.429 1_565 S
C233 C232 1.347 . S
H234 C235 0.951 . S
C235 H234 0.951 . S
C235 C241 1.265 . S
H236 C241 0.950 . S
H237 C245 0.949 . S
H238 C246 0.950 . S
H239 C247 0.951 . S
H240 C248 0.951 . S
C241 C235 1.265 . S
C241 H236 0.950 . S
C241 C242 1.478 . S
C242 C229 1.394 . S
C242 C241 1.478 . S
C242 C243 1.397 . S
C243 C242 1.397 . S
C243 C244 1.438 . S
C243 C248 1.429 . S
C244 C227 1.394 . S
C244 C243 1.438 . S
C244 C245 1.428 . S
C245 H237 0.949 . S
C245 C244 1.428 . S
C245 C246 1.345 . S
C246 H238 0.950 . S
C246 C245 1.345 . S
C246 C247 1.424 . S
C247 H239 0.951 . S
C247 C246 1.424 . S
C247 C248 1.347 . S
C248 H240 0.951 . S
C248 C243 1.429 . S
C248 C247 1.347 . S
H249 C250 0.951 . S
C250 H249 0.951 . S
C250 C256 1.265 . S
H251 C256 0.950 1_455 S
H252 C260 0.949 . S
H253 C261 0.950 . S
H254 C262 0.951 . S
H255 C263 0.951 . S
C256 C250 1.265 . S
C256 H251 0.950 1_655 S
C256 C257 1.478 . S
C257 C256 1.478 . S
C257 C258 1.397 1_655 S
C257 C274 1.394 . S
C258 C257 1.397 1_455 S
C258 C259 1.438 . S
C258 C263 1.429 . S
C259 C258 1.438 . S
C259 C260 1.428 . S
C259 C272 1.394 1_455 S
C260 H252 0.949 . S
C260 C259 1.428 . S
C260 C261 1.345 . S
C261 H253 0.950 . S
C261 C260 1.345 . S
C261 C262 1.424 . S
C262 H254 0.951 . S
C262 C261 1.424 . S
C262 C263 1.347 . S
C263 H255 0.951 . S
C263 C258 1.429 . S
C263 C262 1.347 . S
H264 C265 0.951 1_455 S
C265 H264 0.951 1_655 S
C265 C271 1.265 . S
H266 C271 0.950 . S
H267 C275 0.949 . S
H268 C276 0.950 . S
H269 C277 0.951 . S
H270 C278 0.951 . S
C271 C265 1.265 . S
C271 H266 0.950 . S
C271 C272 1.478 . S
C272 C259 1.394 1_655 S
C272 C271 1.478 . S
C272 C273 1.397 . S
C273 C272 1.397 . S
C273 C274 1.438 . S
C273 C278 1.429 . S
C274 C257 1.394 . S
C274 C273 1.438 . S
C274 C275 1.428 . S
C275 H267 0.949 . S
C275 C274 1.428 . S
C275 C276 1.345 . S
C276 H268 0.950 . S
C276 C275 1.345 . S
C276 C277 1.424 . S
C277 H269 0.951 . S
C277 C276 1.424 . S
C277 C278 1.347 . S
C278 H270 0.951 . S
C278 C273 1.429 . S
C278 C277 1.347 . S
H279 C280 0.951 1_565 S
C280 H279 0.951 1_545 S
C280 C286 1.265 . S
H281 C286 0.950 . S
H282 C290 0.949 . S
H283 C291 0.950 . S
H284 C292 0.951 . S
H285 C293 0.951 . S
C286 C280 1.265 . S
C286 H281 0.950 . S
C286 C287 1.478 . S
C287 C286 1.478 . S
C287 C288 1.397 . S
C287 C304 1.394 . S
C288 C287 1.397 . S
C288 C289 1.438 . S
C288 C293 1.429 . S
C289 C288 1.438 . S
C289 C290 1.428 . S
C289 C302 1.394 . S
C290 H282 0.949 . S
C290 C289 1.428 . S
C290 C291 1.345 . S
C291 H283 0.950 . S
C291 C290 1.345 . S
C291 C292 1.424 . S
C292 H284 0.951 . S
C292 C291 1.424 . S
C292 C293 1.347 . S
C293 H285 0.951 . S
C293 C288 1.429 . S
C293 C292 1.347 . S
H294 C295 0.951 . S
C295 H294 0.951 . S
C295 C301 1.265 . S
H296 C301 0.950 1_565 S
H297 C305 0.949 . S
H298 C306 0.950 . S
H299 C307 0.951 . S
H300 C308 0.951 . S
C301 C295 1.265 . S
C301 H296 0.950 1_545 S
C301 C302 1.478 . S
C302 C289 1.394 . S
C302 C301 1.478 . S
C302 C303 1.397 . S
C303 C302 1.397 . S
C303 C304 1.438 . S
C303 C308 1.429 . S
C304 C287 1.394 . S
C304 C303 1.438 . S
C304 C305 1.428 . S
C305 H297 0.949 . S
C305 C304 1.428 . S
C305 C306 1.345 . S
C306 H298 0.950 . S
C306 C305 1.345 . S
C306 C307 1.424 . S
C307 H299 0.951 . S
C307 C306 1.424 . S
C307 C308 1.347 . S
C308 H300 0.951 . S
C308 C303 1.429 . S
C308 C307 1.347 . S
H309 C310 0.947 1_655 S
C310 H309 0.947 1_455 S
C310 C316 1.272 . S
H311 C316 0.950 . S
H312 C320 0.949 . S
H313 C321 0.950 . S
H314 C322 0.951 . S
H315 C323 0.951 . S
C316 C310 1.272 . S
C316 H311 0.950 . S
C316 C317 1.478 . S
C317 C316 1.478 . S
C317 C318 1.397 . S
C317 C334 1.394 1_455 S
C318 C317 1.397 . S
C318 C319 1.438 . S
C318 C323 1.429 . S
C319 C318 1.438 . S
C319 C320 1.428 . S
C319 C332 1.394 . S
C320 H312 0.949 . S
C320 C319 1.428 . S
C320 C321 1.345 . S
C321 H313 0.950 . S
C321 C320 1.345 . S
C321 C322 1.424 . S
C322 H314 0.951 . S
C322 C321 1.424 . S
C322 C323 1.347 . S
C323 H315 0.951 . S
C323 C318 1.429 . S
C323 C322 1.347 . S
H324 C325 0.951 . S
C325 H324 0.951 . S
C325 C331 1.265 1_455 S
H326 C331 0.950 . S
H327 C335 0.949 . S
H328 C336 0.950 . S
H329 C337 0.951 . S
H330 C338 0.951 . S
C331 C325 1.265 1_655 S
C331 H326 0.950 . S
C331 C332 1.478 1_655 S
C332 C319 1.394 . S
C332 C331 1.478 1_455 S
C332 C333 1.397 1_455 S
C333 C332 1.397 1_655 S
C333 C334 1.438 . S
C333 C338 1.429 . S
C334 C317 1.394 1_655 S
C334 C333 1.438 . S
C334 C335 1.428 . S
C335 H327 0.949 . S
C335 C334 1.428 . S
C335 C336 1.345 . S
C336 H328 0.950 . S
C336 C335 1.345 . S
C336 C337 1.424 . S
C337 H329 0.951 . S
C337 C336 1.424 . S
C337 C338 1.347 . S
C338 H330 0.951 . S
C338 C333 1.429 . S
C338 C337 1.347 . S
H339 C340 0.951 1_545 S
C340 H339 0.951 1_565 S
C340 C346 1.265 . S
H341 C346 0.950 . S
H342 C350 0.949 . S
H343 C351 0.950 . S
H344 C352 0.951 . S
H345 C353 0.951 . S
C346 C340 1.265 . S
C346 H341 0.950 . S
C346 C347 1.478 . S
C347 C346 1.478 . S
C347 C348 1.393 1_565 S
C347 C364 1.394 . S
C348 C347 1.393 1_545 S
C348 C349 1.435 . S
C348 C353 1.436 . S
C349 C348 1.435 . S
C349 C350 1.428 . S
C349 C362 1.394 1_545 S
C350 H342 0.949 . S
C350 C349 1.428 . S
C350 C351 1.345 . S
C351 H343 0.950 . S
C351 C350 1.345 . S
C351 C352 1.424 . S
C352 H344 0.951 . S
C352 C351 1.424 . S
C352 C353 1.347 . S
C353 H345 0.951 . S
C353 C348 1.436 . S
C353 C352 1.347 . S
H354 C355 0.951 . S
C355 H354 0.951 . S
C355 C361 1.265 . S
H356 C361 0.950 1_545 S
H357 C365 0.949 . S
H358 C366 0.950 . S
H359 C367 0.951 . S
H360 C368 0.951 . S
C361 C355 1.265 . S
C361 H356 0.950 1_565 S
C361 C362 1.478 . S
C362 C349 1.394 1_565 S
C362 C361 1.478 . S
C362 C363 1.397 . S
C363 C362 1.397 . S
C363 C364 1.438 . S
C363 C368 1.429 . S
C364 C347 1.394 . S
C364 C363 1.438 . S
C364 C365 1.428 . S
C365 H357 0.949 . S
C365 C364 1.428 . S
C365 C366 1.345 . S
C366 H358 0.950 . S
C366 C365 1.345 . S
C366 C367 1.424 . S
C367 H359 0.951 . S
C367 C366 1.424 . S
C367 C368 1.347 . S
C368 H360 0.951 . S
C368 C363 1.429 . S
C368 C367 1.347 . S
H369 C370 0.951 . S
C370 H369 0.951 . S
C370 C376 1.265 . S
H371 C376 0.950 . S
H372 C380 0.949 . S
H373 C381 0.950 . S
H374 C382 0.951 . S
H375 C383 0.951 . S
C376 C370 1.265 . S
C376 H371 0.950 . S
C376 C377 1.478 . S
C377 C376 1.478 . S
C377 C378 1.397 1_554 S
C377 C394 1.394 . S
C378 C377 1.397 1_556 S
C378 C379 1.438 . S
C378 C383 1.429 . S
C379 C378 1.438 . S
C379 C380 1.428 . S
C379 C392 1.394 1_556 S
C380 H372 0.949 . S
C380 C379 1.428 . S
C380 C381 1.345 . S
C381 H373 0.950 . S
C381 C380 1.345 . S
C381 C382 1.424 . S
C382 H374 0.951 . S
C382 C381 1.424 . S
C382 C383 1.347 . S
C383 H375 0.951 . S
C383 C378 1.429 . S
C383 C382 1.347 . S
H384 C385 0.951 . S
C385 H384 0.951 . S
C385 C391 1.265 . S
H386 C391 0.950 1_556 S
H387 C395 0.949 . S
H388 C396 0.950 . S
H389 C397 0.951 . S
H390 C398 0.951 . S
C391 C385 1.265 . S
C391 H386 0.950 1_554 S
C391 C392 1.478 . S
C392 C379 1.394 1_554 S
C392 C391 1.478 . S
C392 C393 1.397 . S
C393 C392 1.397 . S
C393 C394 1.438 . S
C393 C398 1.429 . S
C394 C377 1.394 . S
C394 C393 1.438 . S
C394 C395 1.428 . S
C395 H387 0.949 . S
C395 C394 1.428 . S
C395 C396 1.345 . S
C396 H388 0.950 . S
C396 C395 1.345 . S
C396 C397 1.424 . S
C397 H389 0.951 . S
C397 C396 1.424 . S
C397 C398 1.347 . S
C398 H390 0.951 . S
C398 C393 1.429 . S
C398 C397 1.347 . S
H399 C400 0.951 . S
C400 H399 0.951 . S
C400 C406 1.265 . S
H401 C406 0.950 . S
H402 C410 0.949 . S
H403 C411 0.950 . S
H404 C412 0.951 . S
H405 C413 0.951 . S
C406 C400 1.265 . S
C406 H401 0.950 . S
C406 C407 1.478 . S
C407 C406 1.478 . S
C407 C408 1.397 1_554 S
C407 C424 1.394 . S
C408 C407 1.397 1_556 S
C408 C409 1.438 . S
C408 C413 1.429 . S
C409 C408 1.438 . S
C409 C410 1.428 . S
C409 C422 1.394 1_556 S
C410 H402 0.949 . S
C410 C409 1.428 . S
C410 C411 1.345 . S
C411 H403 0.950 . S
C411 C410 1.345 . S
C411 C412 1.424 . S
C412 H404 0.951 . S
C412 C411 1.424 . S
C412 C413 1.347 . S
C413 H405 0.951 . S
C413 C408 1.429 . S
C413 C412 1.347 . S
H414 C415 0.951 . S
C415 H414 0.951 . S
C415 C421 1.263 . S
H416 C421 0.949 1_556 S
H417 C425 0.949 . S
H418 C426 0.950 . S
H419 C427 0.951 . S
H420 C428 0.951 . S
C421 C415 1.263 . S
C421 H416 0.949 1_554 S
C421 C422 1.481 . S
C422 C409 1.394 1_554 S
C422 C421 1.481 . S
C422 C423 1.397 . S
C423 C422 1.397 . S
C423 C424 1.438 . S
C423 C428 1.429 . S
C424 C407 1.394 . S
C424 C423 1.438 . S
C424 C425 1.428 . S
C425 H417 0.949 . S
C425 C424 1.428 . S
C425 C426 1.345 . S
C426 H418 0.950 . S
C426 C425 1.345 . S
C426 C427 1.424 . S
C427 H419 0.951 . S
C427 C426 1.424 . S
C427 C428 1.347 . S
C428 H420 0.951 . S
C428 C423 1.429 . S
C428 C427 1.347 . S
H429 C430 0.951 . S
C430 H429 0.951 . S
C430 C436 1.265 . S
H431 C436 0.950 . S
H432 C440 0.949 . S
H433 C441 0.950 . S
H434 C442 0.951 . S
H435 C443 0.951 . S
C436 C430 1.265 . S
C436 H431 0.950 . S
C436 C437 1.478 . S
C437 C436 1.478 . S
C437 C438 1.397 . S
C437 C454 1.394 1_554 S
C438 C437 1.397 . S
C438 C439 1.438 . S
C438 C443 1.429 . S
C439 C438 1.438 . S
C439 C440 1.428 . S
C439 C452 1.394 1_554 S
C440 H432 0.949 . S
C440 C439 1.428 . S
C440 C441 1.345 . S
C441 H433 0.950 . S
C441 C440 1.345 . S
C441 C442 1.424 . S
C442 H434 0.951 . S
C442 C441 1.424 . S
C442 C443 1.347 . S
C443 H435 0.951 . S
C443 C438 1.429 . S
C443 C442 1.347 . S
H444 C445 0.951 1_554 S
C445 H444 0.951 1_556 S
C445 C451 1.265 . S
H446 C451 0.950 . S
H447 C455 0.949 . S
H448 C456 0.950 . S
H449 C457 0.951 . S
H450 C458 0.951 . S
C451 C445 1.265 . S
C451 H446 0.950 . S
C451 C452 1.478 . S
C452 C439 1.394 1_556 S
C452 C451 1.478 . S
C452 C453 1.397 . S
C453 C452 1.397 . S
C453 C454 1.438 . S
C453 C458 1.429 . S
C454 C437 1.394 1_556 S
C454 C453 1.438 . S
C454 C455 1.428 . S
C455 H447 0.949 . S
C455 C454 1.428 . S
C455 C456 1.345 . S
C456 H448 0.950 . S
C456 C455 1.345 . S
C456 C457 1.424 . S
C457 H449 0.951 . S
C457 C456 1.424 . S
C457 C458 1.347 . S
C458 H450 0.951 . S
C458 C453 1.429 . S
C458 C457 1.347 . S
H459 C460 0.951 1_554 S
C460 H459 0.951 1_556 S
C460 C466 1.265 . S
H461 C466 0.950 . S
H462 C470 0.949 . S
H463 C471 0.950 . S
H464 C472 0.951 . S
H465 C473 0.951 . S
C466 C460 1.265 . S
C466 H461 0.950 . S
C466 C467 1.478 . S
C467 C466 1.478 . S
C467 C468 1.397 1_556 S
C467 C484 1.394 . S
C468 C467 1.397 1_554 S
C468 C469 1.438 . S
C468 C473 1.429 . S
C469 C468 1.438 . S
C469 C470 1.428 . S
C469 C482 1.394 . S
C470 H462 0.949 . S
C470 C469 1.428 . S
C470 C471 1.345 . S
C471 H463 0.950 . S
C471 C470 1.345 . S
C471 C472 1.424 . S
C472 H464 0.951 . S
C472 C471 1.424 . S
C472 C473 1.347 . S
C473 H465 0.951 . S
C473 C468 1.429 . S
C473 C472 1.347 . S
H474 C475 0.951 1_556 S
C475 H474 0.951 1_554 S
C475 C481 1.265 . S
H476 C481 0.950 . S
H477 C485 0.949 . S
H478 C486 0.950 . S
H479 C487 0.951 . S
H480 C488 0.951 . S
C481 C475 1.265 . S
C481 H476 0.950 . S
C481 C482 1.478 . S
C482 C469 1.394 . S
C482 C481 1.478 . S
C482 C483 1.397 1_554 S
C483 C482 1.397 1_556 S
C483 C484 1.438 . S
C483 C488 1.429 . S
C484 C467 1.394 . S
C484 C483 1.438 . S
C484 C485 1.428 . S
C485 H477 0.949 . S
C485 C484 1.428 . S
C485 C486 1.345 . S
C486 H478 0.950 . S
C486 C485 1.345 . S
C486 C487 1.424 . S
C487 H479 0.951 . S
C487 C486 1.424 . S
C487 C488 1.347 . S
C488 H480 0.951 . S
C488 C483 1.429 . S
C488 C487 1.347 . S
C130 C119 1.738 . S
C145 C27 1.833 . S
C160 C32 1.373 . S
C175 C75 1.314 1_545 S
C190 C39 1.729 . S
C205 C99 1.756 1_455 S
C220 C82 1.073 . S
C235 N3 1.304 . S
C250 C40 1.799 . S
C265 C118 1.798 . S
C280 C76 1.143 . S
C295 C33 1.172 . S
C310 C125 1.828 . S
C325 C13 1.916 1_455 S
C340 C56 1.071 . S
C355 N8 1.216 . S
C370 N89 0.744 . S
C385 N46 0.696 . S
C400 C113 0.674 . S
C415 C83 0.567 . S
C430 C70 0.602 . S
C445 C126 0.515 . S
C460 N94 0.687 . S
C475 N51 0.601 . S
