# Generated by pormake.
# Topology smd, (6)-cn, num edge types: 1
# Building blocks:
#     Node 0, Type 0, BuildingBlock: FUNLAD_clean_sbu_0, # of connection points: 6
#     Node 1, Type 0, BuildingBlock: FUNLAD_clean_sbu_0, # of connection points: 6
#     Node 2, Type 0, BuildingBlock: FUNLAD_clean_sbu_0, # of connection points: 6
#     Node 3, Type 0, BuildingBlock: FUNLAD_clean_sbu_0, # of connection points: 6
#     Node 4, Type 0, BuildingBlock: FUNLAD_clean_sbu_0, # of connection points: 6
#     Node 5, Type 0, BuildingBlock: FUNLAD_clean_sbu_0, # of connection points: 6
#     Node 6, Type 0, BuildingBlock: FUNLAD_clean_sbu_0, # of connection points: 6
#     Node 7, Type 0, BuildingBlock: FUNLAD_clean_sbu_0, # of connection points: 6
#     Node 8, Type 0, BuildingBlock: FUNLAD_clean_sbu_0, # of connection points: 6
#     Node 9, Type 0, BuildingBlock: FUNLAD_clean_sbu_0, # of connection points: 6
#     Node 10, Type 0, BuildingBlock: FUNLAD_clean_sbu_0, # of connection points: 6
#     Node 11, Type 0, BuildingBlock: FUNLAD_clean_sbu_0, # of connection points: 6
#     Node 12, Type 0, BuildingBlock: FUNLAD_clean_sbu_0, # of connection points: 6
#     Node 13, Type 0, BuildingBlock: FUNLAD_clean_sbu_0, # of connection points: 6
#     Node 14, Type 0, BuildingBlock: FUNLAD_clean_sbu_0, # of connection points: 6
#     Node 15, Type 0, BuildingBlock: FUNLAD_clean_sbu_0, # of connection points: 6
#     Node 16, Type 0, BuildingBlock: FUNLAD_clean_sbu_0, # of connection points: 6
#     Node 17, Type 0, BuildingBlock: FUNLAD_clean_sbu_0, # of connection points: 6
#     Edge 18, Type (0, 0), BuildingBlock: CIFDUS_clean_linker_0, # of connection points: 2
#     Edge 19, Type (0, 0), BuildingBlock: CIFDUS_clean_linker_0, # of connection points: 2
#     Edge 20, Type (0, 0), BuildingBlock: CIFDUS_clean_linker_0, # of connection points: 2
#     Edge 21, Type (0, 0), BuildingBlock: CIFDUS_clean_linker_0, # of connection points: 2
#     Edge 22, Type (0, 0), BuildingBlock: CIFDUS_clean_linker_0, # of connection points: 2
#     Edge 23, Type (0, 0), BuildingBlock: CIFDUS_clean_linker_0, # of connection points: 2
#     Edge 24, Type (0, 0), BuildingBlock: CIFDUS_clean_linker_0, # of connection points: 2
#     Edge 25, Type (0, 0), BuildingBlock: CIFDUS_clean_linker_0, # of connection points: 2
#     Edge 26, Type (0, 0), BuildingBlock: CIFDUS_clean_linker_0, # of connection points: 2
#     Edge 27, Type (0, 0), BuildingBlock: CIFDUS_clean_linker_0, # of connection points: 2
#     Edge 28, Type (0, 0), BuildingBlock: CIFDUS_clean_linker_0, # of connection points: 2
#     Edge 29, Type (0, 0), BuildingBlock: CIFDUS_clean_linker_0, # of connection points: 2
#     Edge 30, Type (0, 0), BuildingBlock: CIFDUS_clean_linker_0, # of connection points: 2
#     Edge 31, Type (0, 0), BuildingBlock: CIFDUS_clean_linker_0, # of connection points: 2
#     Edge 32, Type (0, 0), BuildingBlock: CIFDUS_clean_linker_0, # of connection points: 2
#     Edge 33, Type (0, 0), BuildingBlock: CIFDUS_clean_linker_0, # of connection points: 2
#     Edge 34, Type (0, 0), BuildingBlock: CIFDUS_clean_linker_0, # of connection points: 2
#     Edge 35, Type (0, 0), BuildingBlock: CIFDUS_clean_linker_0, # of connection points: 2
#     Edge 36, Type (0, 0), BuildingBlock: CIFDUS_clean_linker_0, # of connection points: 2
#     Edge 37, Type (0, 0), BuildingBlock: CIFDUS_clean_linker_0, # of connection points: 2
#     Edge 38, Type (0, 0), BuildingBlock: CIFDUS_clean_linker_0, # of connection points: 2
#     Edge 39, Type (0, 0), BuildingBlock: CIFDUS_clean_linker_0, # of connection points: 2
#     Edge 40, Type (0, 0), BuildingBlock: CIFDUS_clean_linker_0, # of connection points: 2
#     Edge 41, Type (0, 0), BuildingBlock: CIFDUS_clean_linker_0, # of connection points: 2
#     Edge 42, Type (0, 0), BuildingBlock: CIFDUS_clean_linker_0, # of connection points: 2
#     Edge 43, Type (0, 0), BuildingBlock: CIFDUS_clean_linker_0, # of connection points: 2
#     Edge 44, Type (0, 0), BuildingBlock: CIFDUS_clean_linker_0, # of connection points: 2
#     Edge 45, Type (0, 0), BuildingBlock: CIFDUS_clean_linker_0, # of connection points: 2
#     Edge 46, Type (0, 0), BuildingBlock: CIFDUS_clean_linker_0, # of connection points: 2
#     Edge 47, Type (0, 0), BuildingBlock: CIFDUS_clean_linker_0, # of connection points: 2
#     Edge 48, Type (0, 0), BuildingBlock: CIFDUS_clean_linker_0, # of connection points: 2
#     Edge 49, Type (0, 0), BuildingBlock: CIFDUS_clean_linker_0, # of connection points: 2
#     Edge 50, Type (0, 0), BuildingBlock: CIFDUS_clean_linker_0, # of connection points: 2
#     Edge 51, Type (0, 0), BuildingBlock: CIFDUS_clean_linker_0, # of connection points: 2
#     Edge 52, Type (0, 0), BuildingBlock: CIFDUS_clean_linker_0, # of connection points: 2
#     Edge 53, Type (0, 0), BuildingBlock: CIFDUS_clean_linker_0, # of connection points: 2
#     Edge 54, Type (0, 0), BuildingBlock: CIFDUS_clean_linker_0, # of connection points: 2
#     Edge 55, Type (0, 0), BuildingBlock: CIFDUS_clean_linker_0, # of connection points: 2
#     Edge 56, Type (0, 0), BuildingBlock: CIFDUS_clean_linker_0, # of connection points: 2
#     Edge 57, Type (0, 0), BuildingBlock: CIFDUS_clean_linker_0, # of connection points: 2
#     Edge 58, Type (0, 0), BuildingBlock: CIFDUS_clean_linker_0, # of connection points: 2
#     Edge 59, Type (0, 0), BuildingBlock: CIFDUS_clean_linker_0, # of connection points: 2
#     Edge 60, Type (0, 0), BuildingBlock: CIFDUS_clean_linker_0, # of connection points: 2
#     Edge 61, Type (0, 0), BuildingBlock: CIFDUS_clean_linker_0, # of connection points: 2
#     Edge 62, Type (0, 0), BuildingBlock: CIFDUS_clean_linker_0, # of connection points: 2
#     Edge 63, Type (0, 0), BuildingBlock: CIFDUS_clean_linker_0, # of connection points: 2
#     Edge 64, Type (0, 0), BuildingBlock: CIFDUS_clean_linker_0, # of connection points: 2
#     Edge 65, Type (0, 0), BuildingBlock: CIFDUS_clean_linker_0, # of connection points: 2
#     Edge 66, Type (0, 0), BuildingBlock: CIFDUS_clean_linker_0, # of connection points: 2
#     Edge 67, Type (0, 0), BuildingBlock: CIFDUS_clean_linker_0, # of connection points: 2
#     Edge 68, Type (0, 0), BuildingBlock: CIFDUS_clean_linker_0, # of connection points: 2
#     Edge 69, Type (0, 0), BuildingBlock: CIFDUS_clean_linker_0, # of connection points: 2
#     Edge 70, Type (0, 0), BuildingBlock: CIFDUS_clean_linker_0, # of connection points: 2
#     Edge 71, Type (0, 0), BuildingBlock: CIFDUS_clean_linker_0, # of connection points: 2
# Relax obj value: 0.295
# Max RMSD: 0.208
# Mean RMSD: 0.208
data_MOF--net-smd--node1-FUNLAD_clean_sbu_0--edge1-CIFDUS_clean_linker_0
_symmetry_space_group_name_H-M    P1
_symmetry_Int_Tables_number       1
_symmetry_cell_setting            triclinic
loop_
_symmetry_equiv_pos_as_xyz
'x, y, z'
_cell_length_a     76.169011
_cell_length_b     76.191705
_cell_length_c     13.259885
_cell_angle_alpha  89.998275
_cell_angle_beta   89.999198
_cell_angle_gamma 120.03854
loop_
_atom_site_label
_atom_site_type_symbol
_atom_site_fract_x
_atom_site_fract_y
_atom_site_fract_z
_atom_type_partial_charge
C0 C 0.03711 0.25027 0.28629 0.0
N1 N 0.07787 0.24141 0.46637 0.0
C2 C 0.0765 0.2264 0.40513 0.0
C3 C 0.0932 0.22346 0.39361 0.0
C4 C 0.11139 0.23627 0.44472 0.0
C5 C 0.11204 0.25114 0.50931 0.0
C6 C 0.09514 0.25345 0.51903 0.0
Zn7 Zn 0.05559 0.24904 0.48205 0.0
C8 C 0.07298 0.29348 0.45208 0.0
N9 N 0.01161 0.26827 0.52004 0.0
C10 C 0.99255 0.25983 0.48054 0.0
C11 C 0.01908 0.28504 0.5797 0.0
C12 C 1.00773 0.29434 0.59935 0.0
C13 C 0.98834 0.28637 0.55797 0.0
C14 C 0.98051 0.26873 0.49892 0.0
Zn15 Zn 0.03183 0.25805 0.49585 0.0
O16 O 0.05028 0.24691 0.32697 0.0
C17 C 0.01372 0.21345 0.51536 0.0
O18 O 0.02617 0.25476 0.3408 0.0
H19 H 0.03417 0.2916 0.61098 0.0
H20 H 0.06265 0.21702 0.3637 0.0
H21 H 0.98684 0.24649 0.43344 0.0
O22 O 0.03206 0.2179 0.50033 0.0
O23 O 1.00943 0.2276 0.51923 0.0
H24 H 0.09605 0.26528 0.56748 0.0
O25 O 0.03783 0.26098 0.65091 0.0
O26 O 0.06036 0.25128 0.63809 0.0
O27 O 0.05455 0.28824 0.46692 0.0
O28 O 0.07843 0.28028 0.45994 0.0
C29 C 0.05025 0.25675 0.69223 0.0
H30 H 0.09214 0.2118 0.34307 0.0
H31 H 0.12564 0.2611 0.55142 0.0
H32 H 0.01425 0.30798 0.64487 0.0
H33 H 0.96562 0.26233 0.46503 0.0
C34 C 0.83949 0.83142 0.29702 0.0
N35 N 0.84637 0.87569 0.50715 0.0
C36 C 0.86248 0.88975 0.4527 0.0
C37 C 0.86606 0.90965 0.44398 0.0
C38 C 0.85275 0.91486 0.49058 0.0
C39 C 0.83685 0.90029 0.5496 0.0
C40 C 0.83397 0.88079 0.55727 0.0
Zn41 Zn 0.83755 0.84537 0.50578 0.0
C42 C 0.79386 0.82029 0.45294 0.0
N43 N 0.81669 0.78129 0.50031 0.0
C44 C 0.8264 0.77133 0.4685 0.0
C45 C 0.79833 0.77104 0.54709 0.0
C46 C 0.7888 0.75021 0.56116 0.0
C47 C 0.7982 0.73948 0.5285 0.0
C48 C 0.81737 0.75021 0.48246 0.0
Zn49 Zn 0.82795 0.81237 0.49406 0.0
O50 O 0.84221 0.84646 0.35018 0.0
C51 C 0.872 0.83734 0.53671 0.0
O52 O 0.83387 0.81432 0.33846 0.0
H53 H 0.79097 0.77904 0.5752 0.0
H54 H 0.87208 0.88536 0.4129 0.0
H55 H 0.84112 0.77972 0.43302 0.0
O56 O 0.86795 0.85166 0.53069 0.0
O57 O 0.85778 0.81903 0.52655 0.0
H58 H 0.82127 0.86946 0.60018 0.0
O59 O 0.82214 0.81112 0.64918 0.0
O60 O 0.83292 0.84362 0.66254 0.0
O61 O 0.79881 0.80672 0.45669 0.0
O62 O 0.80682 0.83839 0.47672 0.0
C63 C 0.82605 0.82633 0.70335 0.0
H64 H 0.87846 0.92051 0.39756 0.0
H65 H 0.82637 0.90382 0.58738 0.0
H66 H 0.77414 0.74251 0.59806 0.0
H67 H 0.82506 0.74236 0.45634 0.0
C68 C 0.25761 0.05029 0.30166 0.0
N69 N 0.21419 0.01204 0.51279 0.0
C70 C 0.19978 0.01079 0.44743 0.0
C71 C 0.18143 0.99244 0.436 0.0
C72 C 0.17815 0.97537 0.49171 0.0
C73 C 0.19268 0.97757 0.56311 0.0
C74 C 0.21061 0.99602 0.57222 0.0
Zn75 Zn 0.24399 0.03515 0.51006 0.0
C76 C 0.27088 0.01763 0.46362 0.0
N77 N 0.30745 0.07942 0.50407 0.0
C78 C 0.31691 0.09867 0.46653 0.0
C79 C 0.31796 0.07248 0.5578 0.0
C80 C 0.3385 0.08471 0.57551 0.0
C81 C 0.34888 0.10446 0.53684 0.0
C82 C 0.33785 0.1116 0.48232 0.0
Zn83 Zn 0.27685 0.05863 0.49882 0.0
O84 O 0.2426 0.03796 0.35486 0.0
C85 C 0.25116 0.07713 0.53833 0.0
O86 O 0.27468 0.06192 0.343 0.0
H87 H 0.31037 0.0574 0.58941 0.0
H88 H 0.20298 0.02357 0.3998 0.0
H89 H 0.30826 0.10405 0.42536 0.0
O90 O 0.23645 0.05888 0.53212 0.0
O91 O 0.26929 0.08079 0.5282 0.0
H92 H 0.22227 0.99701 0.62222 0.0
O93 O 0.27839 0.05495 0.65388 0.0
O94 O 0.24599 0.0331 0.66733 0.0
O95 O 0.28395 0.03629 0.46679 0.0
O96 O 0.25251 0.01212 0.4839 0.0
C97 C 0.26322 0.04369 0.70813 0.0
H98 H 0.17056 0.99126 0.37985 0.0
H99 H 0.19062 0.9648 0.60807 0.0
H100 H 0.34617 0.07871 0.62053 0.0
H101 H 0.34533 0.12682 0.45172 0.0
C102 C 0.04167 0.82619 0.25603 0.0
N103 N 0.08055 0.81372 0.421 0.0
C104 C 0.07414 0.79926 0.34795 0.0
C105 C 0.08644 0.79184 0.3144 0.0
C106 C 0.10543 0.79837 0.35918 0.0
C107 C 0.11181 0.81329 0.43522 0.0
C108 C 0.09911 0.82091 0.46468 0.0
Zn109 Zn 0.05962 0.82288 0.45244 0.0
C110 C 0.07686 0.86785 0.44406 0.0
N111 N 0.01242 0.83781 0.48817 0.0
C112 C 0.99553 0.82598 0.43237 0.0
C113 C 0.01237 0.85061 0.5599 0.0
C114 C 0.99454 0.85121 0.57982 0.0
C115 C 0.97675 0.8383 0.52621 0.0
C116 C 0.97756 0.82598 0.45023 0.0
Zn117 Zn 0.03564 0.83169 0.46618 0.0
O118 O 0.05409 0.82201 0.29749 0.0
C119 C 0.01879 0.78686 0.48506 0.0
O120 O 0.03103 0.83095 0.31028 0.0
H121 H 0.02586 0.85974 0.60427 0.0
H122 H 0.05931 0.79332 0.31457 0.0
H123 H 0.99563 0.8157 0.37655 0.0
O124 O 0.03724 0.79201 0.47149 0.0
O125 O 0.01367 0.80032 0.48085 0.0
H126 H 0.104 0.83239 0.52275 0.0
O127 O 0.04081 0.83244 0.62089 0.0
O128 O 0.06475 0.82433 0.60758 0.0
O129 O 0.05832 0.86299 0.45526 0.0
O130 O 0.08154 0.85396 0.43874 0.0
C131 C 0.05368 0.82868 0.66189 0.0
H132 H 0.08089 0.78099 0.25319 0.0
H133 H 0.12626 0.8188 0.47267 0.0
H134 H 0.99439 0.86088 0.63928 0.0
H135 H 0.96418 0.81594 0.40684 0.0
C136 C 0.26853 0.26127 0.28254 0.0
N137 N 0.28122 0.30685 0.48772 0.0
C138 C 0.30015 0.31688 0.44681 0.0
C139 C 0.30981 0.33765 0.42971 0.0
C140 C 0.29988 0.34842 0.45264 0.0
C141 C 0.28027 0.33789 0.49383 0.0
C142 C 0.27119 0.31693 0.51162 0.0
Zn143 Zn 0.26829 0.27565 0.49206 0.0
C144 C 0.22385 0.25437 0.44674 0.0
N145 N 0.24361 0.21125 0.47578 0.0
C146 C 0.25485 0.20493 0.42387 0.0
C147 C 0.22707 0.19792 0.53028 0.0
C148 C 0.22188 0.1775 0.53748 0.0
C149 C 0.234 0.17101 0.48893 0.0
C150 C 0.25035 0.18485 0.42981 0.0
Zn151 Zn 0.25489 0.24204 0.47967 0.0
O152 O 0.27446 0.2769 0.33704 0.0
C153 C 0.29925 0.26379 0.53287 0.0
O154 O 0.25962 0.24385 0.32315 0.0
H155 H 0.21842 0.20329 0.57155 0.0
H156 H 0.30768 0.30871 0.42398 0.0
H157 H 0.26795 0.2157 0.38124 0.0
O158 O 0.29639 0.27878 0.53076 0.0
O159 O 0.28485 0.24631 0.50874 0.0
H160 H 0.256 0.30869 0.5422 0.0
O161 O 0.25024 0.24095 0.6355 0.0
O162 O 0.26205 0.27387 0.64724 0.0
O163 O 0.22535 0.23848 0.45394 0.0
O164 O 0.23962 0.27169 0.45764 0.0
C165 C 0.25469 0.25651 0.68874 0.0
H166 H 0.3248 0.34517 0.39623 0.0
H167 H 0.27215 0.34576 0.51224 0.0
H168 H 0.20925 0.1672 0.58441 0.0
H169 H 0.26001 0.18032 0.39147 0.0
C170 C 0.82289 0.04376 0.28672 0.0
N171 N 0.77793 0.00797 0.48669 0.0
C172 C 0.76773 0.0166 0.44472 0.0
C173 C 0.74714 1.0052 0.42452 0.0
C174 C 0.73662 0.98442 0.44513 0.0
C175 C 0.74728 0.97552 0.487 0.0
C176 C 0.76813 0.98773 0.50803 0.0
Zn177 Zn 0.80898 0.02766 0.49424 0.0
C178 C 0.83314 0.00773 0.44803 0.0
N179 N 0.87253 0.07237 0.48362 0.0
C180 C 0.87651 0.08891 0.42741 0.0
C181 C 0.88703 0.07257 0.54479 0.0
C182 C 0.90602 0.09032 0.55468 0.0
C183 C 0.90983 0.10788 0.50191 0.0
C184 C 0.89506 0.10677 0.43522 0.0
Zn185 Zn 0.84227 0.05018 0.48645 0.0
O186 O 0.80744 0.03271 0.33999 0.0
C187 C 0.81732 0.06889 0.54702 0.0
O188 O 0.84013 0.05348 0.32868 0.0
H189 H 0.88352 0.05941 0.59012 0.0
H190 H 0.77564 0.03235 0.42283 0.0
H191 H 0.8648 0.08878 0.38095 0.0
O192 O 0.80354 0.05065 0.5355 0.0
O193 O 0.83545 0.07404 0.52371 0.0
H194 H 0.77651 0.98096 0.53881 0.0
O195 O 0.8436 0.04598 0.64115 0.0
O196 O 0.81104 0.02312 0.65045 0.0
O197 O 0.84828 0.02568 0.45666 0.0
O198 O 0.81523 1.00474 0.45811 0.0
C199 C 0.8282 0.03392 0.69316 0.0
H200 H 0.73959 0.01254 0.39007 0.0
H201 H 0.73961 0.95943 0.50316 0.0
H202 H 0.91706 0.09067 0.60733 0.0
H203 H 0.89747 0.11997 0.39296 0.0
C204 C 0.70428 0.58101 0.57941 0.0
N205 N 0.74027 0.57317 0.79504 0.0
C206 C 0.73788 0.5561 0.74912 0.0
C207 C 0.75377 0.55178 0.74896 0.0
C208 C 0.77226 0.56535 0.7952 0.0
C209 C 0.77404 0.58246 0.84426 0.0
C210 C 0.75779 0.58602 0.84388 0.0
Zn211 Zn 0.71865 0.58189 0.78836 0.0
C212 C 0.73812 0.62695 0.74004 0.0
N213 N 0.6758 0.60287 0.77894 0.0
C214 C 0.6775 0.61786 0.71688 0.0
C215 C 0.66238 0.59617 0.85712 0.0
C216 C 0.65137 0.60574 0.88079 0.0
C217 C 0.65411 0.62241 0.8235 0.0
C218 C 0.66666 0.62781 0.73762 0.0
Zn219 Zn 0.69678 0.59335 0.77629 0.0
O220 O 0.71572 0.57707 0.633 0.0
C221 C 0.67632 0.5486 0.8186 0.0
O222 O 0.69364 0.58765 0.62059 0.0
H223 H 0.66132 0.58437 0.90638 0.0
H224 H 0.72384 0.54609 0.71048 0.0
H225 H 0.68822 0.62299 0.65515 0.0
O226 O 0.69414 0.55106 0.81397 0.0
O227 O 0.67388 0.56374 0.80548 0.0
H228 H 0.7594 0.59941 0.8807 0.0
O229 O 0.70065 0.59912 0.93132 0.0
O230 O 0.72102 0.58672 0.94476 0.0
O231 O 0.71979 0.62273 0.74491 0.0
O232 O 0.7425 0.61319 0.7593 0.0
C233 C 0.71127 0.59432 -0.01441 0.0
H234 H 0.75194 0.53848 0.70992 0.0
H235 H 0.78807 0.5932 0.88111 0.0
H236 H 0.64206 0.60111 0.94808 0.0
H237 H 0.66895 0.64034 0.69006 0.0
C238 C 0.50883 0.16107 0.55002 0.0
N239 N 0.50955 0.20174 0.76517 0.0
C240 C 0.52344 0.21757 0.70864 0.0
C241 C 0.52311 0.23583 0.70522 0.0
C242 C 0.50824 0.23758 0.75976 0.0
C243 C 0.49484 0.22136 0.82104 0.0
C244 C 0.49572 0.20356 0.82242 0.0
Zn245 Zn 0.50563 0.17303 0.75831 0.0
C246 C 0.46218 0.14255 0.71328 0.0
N247 N 0.4935 0.11157 0.74894 0.0
C248 C 0.50008 0.10536 0.82964 0.0
C249 C 0.47843 0.09786 0.68844 0.0
C250 C 0.46762 0.0774 0.71582 0.0
C251 C 0.4724 0.07101 0.80611 0.0
C252 C 0.48967 0.08504 0.85981 0.0
Zn253 Zn 0.4999 0.14127 0.74758 0.0
O254 O 0.51032 0.17558 0.6035 0.0
C255 C 0.54347 0.17088 0.78446 0.0
O256 O 0.50487 0.14438 0.59125 0.0
H257 H 0.47342 0.10303 0.62454 0.0
H258 H 0.53422 0.21578 0.66308 0.0
H259 H 0.512 0.11645 0.87727 0.0
O260 O 0.53749 0.18382 0.78204 0.0
O261 O 0.53066 0.15216 0.77259 0.0
H262 H 0.48469 0.19084 0.86625 0.0
O263 O 0.49476 0.13866 0.90239 0.0
O264 O 0.50108 0.16994 0.91524 0.0
O265 O 0.46954 0.13096 0.72109 0.0
O266 O 0.47357 0.16141 0.72966 0.0
C267 C 0.49665 0.15319 0.95635 0.0
H268 H 0.53368 0.24802 0.65689 0.0
H269 H 0.48333 0.22219 0.86536 0.0
H270 H 0.45469 0.06698 0.67083 0.0
H271 H 0.49393 0.08084 0.9298 0.0
C272 C 0.9298 0.38527 0.60286 0.0
N273 N 0.88559 0.35067 0.82036 0.0
C274 C 0.8712 0.35211 0.76574 0.0
C275 C 0.85107 0.33598 0.76469 0.0
C276 C 0.84597 0.31826 0.8194 0.0
C277 C 0.86093 0.31765 0.87829 0.0
C278 C 0.88064 0.33402 0.87777 0.0
Zn279 Zn 0.91616 0.3714 0.81201 0.0
C280 C 0.93954 0.35004 0.76415 0.0
N281 N 0.98063 0.41184 0.80077 0.0
C282 C 0.98982 0.43183 0.77467 0.0
C283 C 0.99151 0.40392 0.84237 0.0
C284 C 0.01224 0.41596 0.85832 0.0
C285 C 0.02203 0.43656 0.83376 0.0
C286 C 1.0107 0.44463 0.7914 0.0
Zn287 Zn 0.94962 0.3925 0.79934 0.0
O288 O 0.91439 0.37383 0.65631 0.0
C289 C 0.92708 0.41459 0.83916 0.0
O290 O 0.9471 0.39592 0.64412 0.0
H291 H 0.98405 0.38832 0.8669 0.0
H292 H 0.87546 0.36542 0.72011 0.0
H293 H 0.98092 0.43799 0.74344 0.0
O294 O 0.91141 0.39695 0.83321 0.0
O295 O 0.94458 0.41653 0.83005 0.0
H296 H 0.89221 0.33304 0.92042 0.0
O297 O 0.95164 0.38866 0.9543 0.0
O298 O 0.91867 0.36969 0.96856 0.0
O299 O 0.95397 0.36822 0.76479 0.0
O300 O 0.92178 0.34631 0.78721 0.0
C301 C 0.93609 0.37876 0.00902 0.0
H302 H 0.8399 0.33693 0.71806 0.0
H303 H 0.85753 0.30431 0.92212 0.0
H304 H 0.02052 0.40931 0.89225 0.0
H305 H 0.01788 0.46054 0.77174 0.0
C306 C 0.71663 0.15954 0.66258 0.0
N307 N 0.75343 0.15117 0.86005 0.0
C308 C 0.74616 0.13235 0.8197 0.0
C309 C 0.75928 0.1256 0.79039 0.0
C310 C 0.78026 0.13839 0.80003 0.0
C311 C 0.78758 0.15767 0.84277 0.0
C312 C 0.77376 0.16374 0.87346 0.0
Zn313 Zn 0.73253 0.1608 0.87173 0.0
C314 C 0.75221 0.20549 0.82641 0.0
N315 N 0.68814 0.17971 0.864 0.0
C316 C 0.68439 0.18895 0.78564 0.0
C317 C 0.67516 0.17218 0.94362 0.0
C318 C 0.6571 0.17255 0.94373 0.0
C319 C 0.65205 0.18051 0.86063 0.0
C320 C 0.66628 0.18957 0.78255 0.0
Zn321 Zn 0.71039 0.17187 0.85995 0.0
O322 O 0.72741 0.15494 0.71693 0.0
C323 C 0.69122 0.12694 0.90905 0.0
O324 O 0.70691 0.1672 0.7032 0.0
H325 H 0.67806 0.16456 0.00451 0.0
H326 H 0.73019 0.12281 0.80452 0.0
H327 H 0.69479 0.19471 0.72264 0.0
O328 O 0.70965 0.13149 0.90782 0.0
O329 O 0.68677 0.14053 0.88733 0.0
H330 H 0.77938 0.17879 0.90383 0.0
O331 O 0.71481 0.17664 0.01577 0.0
O332 O 0.73728 0.16662 0.02733 0.0
O333 O 0.73432 0.20279 0.83379 0.0
O334 O 0.75497 0.19049 0.83809 0.0
C335 C 0.72659 0.17315 0.06891 0.0
H336 H 0.75306 0.11077 0.75591 0.0
H337 H 0.80372 0.16796 0.85103 0.0
H338 H 0.64656 0.16552 0.00563 0.0
H339 H 0.66282 0.19573 0.71682 0.0
C340 C 0.93061 0.59706 0.62643 0.0
N341 N 0.93616 0.64017 0.83042 0.0
C342 C 0.92924 0.64627 0.75076 0.0
C343 C 0.93958 0.66646 0.71925 0.0
C344 C 0.95721 0.68054 0.77034 0.0
C345 C 0.96263 0.67428 0.85909 0.0
C346 C 0.95185 0.6539 0.88794 0.0
Zn347 Zn 0.92804 0.61004 0.83475 0.0
C348 C 0.88417 0.58315 0.79336 0.0
N349 N 0.91369 0.54794 0.82081 0.0
C350 C 0.92709 0.54423 0.77074 0.0
C351 C 0.8976 0.53284 0.87101 0.0
C352 C 0.8949 0.51322 0.87435 0.0
C353 C 0.90902 0.50927 0.82653 0.0
C354 C 0.92505 0.525 0.77272 0.0
Zn355 Zn 0.9202 0.57762 0.82478 0.0
O356 O 0.93324 0.61192 0.68 0.0
C357 C 0.96451 0.60643 0.86951 0.0
O358 O 0.92521 0.58009 0.66785 0.0
H359 H 0.88716 0.53612 0.91069 0.0
H360 H 0.9169 0.63516 0.70514 0.0
H361 H 0.93973 0.55637 0.73103 0.0
O362 O 0.95778 0.61853 0.86113 0.0
O363 O 0.95236 0.58754 0.85575 0.0
H364 H 0.95714 0.6488 0.95101 0.0
O365 O 0.91513 0.57563 -0.02056 0.0
O366 O 0.92298 0.60761 -0.00862 0.0
O367 O 0.88847 0.56896 0.79726 0.0
O368 O 0.89803 0.60134 0.80812 0.0
C369 C 0.9177 0.59058 0.03277 0.0
H370 H 0.93484 0.67051 0.65033 0.0
H371 H 0.97587 0.68474 0.90213 0.0
H372 H 0.88237 0.50151 0.91691 0.0
H373 H 0.9361 0.52254 0.73348 0.0
C374 C 0.49119 0.3739 0.623 0.0
N375 N 0.44741 0.33591 0.82471 0.0
C376 C 0.43617 0.34283 0.77732 0.0
C377 C 0.41558 0.33015 0.76041 0.0
C378 C 0.40622 0.30991 0.79091 0.0
C379 C 0.41789 0.3028 0.83909 0.0
C380 C 0.4387 0.31622 0.85561 0.0
Zn381 Zn 0.47805 0.35712 0.83079 0.0
C382 C 0.50457 0.34023 0.78499 0.0
N383 N 0.54049 0.40445 0.81855 0.0
C384 C 0.54463 0.42203 0.77213 0.0
C385 C 0.55548 0.40243 0.86344 0.0
C386 C 0.57548 0.41874 0.8647 0.0
C387 C 0.57992 0.43727 0.82051 0.0
C388 C 0.56424 0.43866 0.7725 0.0
Zn389 Zn 0.51052 0.38194 0.82214 0.0
O390 O 0.47634 0.36138 0.67593 0.0
C391 C 0.48313 0.39769 0.88044 0.0
O392 O 0.50811 0.38542 0.66515 0.0
H393 H 0.55186 0.38833 0.90005 0.0
H394 H 0.44322 0.35825 0.75013 0.0
H395 H 0.53258 0.42332 0.73621 0.0
O396 O 0.47065 0.37903 0.86766 0.0
O397 O 0.50177 0.40445 0.86032 0.0
H398 H 0.44788 0.31086 0.89158 0.0
O399 O 0.51239 0.37785 0.97669 0.0
O400 O 0.48044 0.35347 -0.01265 0.0
O401 O 0.51834 0.35886 0.79041 0.0
O402 O 0.48612 0.3353 0.7981 0.0
C403 C 0.49743 0.36519 0.02941 0.0
H404 H 0.40701 0.33607 0.72264 0.0
H405 H 0.41101 0.28718 0.86368 0.0
H406 H 0.58718 0.41712 0.90271 0.0
H407 H 0.56708 0.4526 0.73637 0.0
C408 C 0.36976 0.92156 0.92763 0.0
N409 N 0.40975 0.91219 0.11076 0.0
C410 C 0.40973 0.89843 0.04486 0.0
C411 C 0.42742 0.89725 0.03053 0.0
C412 C 0.44514 0.91055 0.08367 0.0
C413 C 0.44439 0.92386 0.15377 0.0
C414 C 0.42657 0.92444 0.16619 0.0
Zn415 Zn 0.3871 0.91952 0.12331 0.0
C416 C 0.40639 0.96513 0.09196 0.0
N417 N 0.34498 0.94091 0.1575 0.0
C418 C 0.34563 0.95561 0.09679 0.0
C419 C 0.33269 0.9343 0.24008 0.0
C420 C 0.32165 0.94362 0.26868 0.0
C421 C 0.3233 0.95991 0.21181 0.0
C422 C 0.33482 0.96531 0.12252 0.0
Zn423 Zn 0.36572 0.93148 0.1376 0.0
O424 O 0.38203 0.91689 0.968 0.0
C425 C 0.34555 0.88601 0.16297 0.0
O426 O 0.36002 0.92748 -0.01764 0.0
H427 H 0.3324 0.92262 0.28756 0.0
H428 H 0.39633 0.88902 0.00043 0.0
H429 H 0.35543 0.96062 0.03138 0.0
O430 O 0.36308 0.88834 0.14512 0.0
O431 O 0.34329 0.90145 0.16382 0.0
H432 H 0.42662 0.93554 0.21696 0.0
O433 O 0.3718 0.93534 0.2925 0.0
O434 O 0.39158 0.92226 0.27972 0.0
O435 O 0.38848 0.96152 0.10858 0.0
O436 O 0.41018 0.95072 0.09859 0.0
C437 C 0.38299 0.92949 0.33373 0.0
H438 H 0.42755 0.88685 0.97531 0.0
H439 H 0.45774 0.93429 0.19626 0.0
H440 H 0.31307 0.93904 0.3383 0.0
H441 H 0.33624 0.9776 0.07557 0.0
C442 C 0.17311 0.49326 0.94146 0.0
N443 N 0.18338 0.5389 0.15124 0.0
C444 C 0.19714 0.55197 0.08311 0.0
C445 C 0.19949 0.57129 0.0687 0.0
C446 C 0.18758 0.57701 0.12517 0.0
C447 C 0.17465 0.56383 0.19942 0.0
C448 C 0.17273 0.54479 0.21113 0.0
Zn449 Zn 0.17304 0.50816 0.15028 0.0
C450 C 0.12882 0.48586 0.09805 0.0
N451 N 0.14704 0.44338 0.14652 0.0
C452 C 0.15629 0.43249 0.12383 0.0
C453 C 0.12835 0.43424 0.19029 0.0
C454 C 0.11815 0.41366 0.21159 0.0
C455 C 0.12719 0.40201 0.18977 0.0
C456 C 0.14658 0.4116 0.1456 0.0
Zn457 Zn 0.1603 0.47462 0.13832 0.0
O458 O 0.17706 0.5087 -0.00558 0.0
C459 C 0.20476 0.49641 0.17997 0.0
O460 O 0.16628 0.47597 -0.01693 0.0
H461 H 0.12145 0.44301 0.21287 0.0
H462 H 0.20525 0.54695 0.03514 0.0
H463 H 0.17135 0.44003 0.09144 0.0
O464 O 0.20295 0.51216 0.17273 0.0
O465 O 0.18908 0.47891 0.17166 0.0
H466 H 0.16149 0.53417 0.26296 0.0
O467 O 0.15437 0.47376 0.29316 0.0
O468 O 0.16899 0.50675 0.30737 0.0
O469 O 0.13227 0.47126 0.09964 0.0
O470 O 0.1428 0.50344 0.12355 0.0
C471 C 0.16018 0.48933 0.3478 0.0
H472 H 0.2094 0.58105 0.00967 0.0
H473 H 0.16506 0.56771 0.2433 0.0
H474 H 0.10345 0.407 0.24796 0.0
H475 H 0.15409 0.40308 0.12828 0.0
C476 C 0.59506 0.71706 0.94664 0.0
N477 N 0.55065 0.68017 0.1579 0.0
C478 C 0.53642 0.68273 0.10819 0.0
C479 C 0.51625 0.6668 0.10301 0.0
C480 C 0.51093 0.64812 0.14823 0.0
C481 C 0.52575 0.64624 0.20207 0.0
C482 C 0.54553 0.66251 0.20633 0.0
Zn483 Zn 0.5811 0.70127 0.15441 0.0
C484 C 0.60574 0.68179 0.0988 0.0
N485 N 0.64531 0.74316 0.15012 0.0
C486 C 0.65467 0.76323 0.12545 0.0
C487 C 0.65596 0.73505 0.19236 0.0
C488 C 0.67663 0.74689 0.20976 0.0
C489 C 0.68666 0.76753 0.18605 0.0
C490 C 0.67554 0.77586 0.1437 0.0
Zn491 Zn 0.61437 0.72349 0.14468 0.0
O492 O 0.57967 0.70527 -0.0006 0.0
C493 C 0.59072 0.74389 0.19174 0.0
O494 O 0.6123 0.72769 -0.01134 0.0
H495 H 0.64836 0.7194 0.21612 0.0
H496 H 0.54084 0.69687 0.06979 0.0
H497 H 0.64594 0.76954 0.09397 0.0
O498 O 0.57553 0.72598 0.18422 0.0
O499 O 0.60852 0.74676 0.17925 0.0
H500 H 0.55698 0.66075 0.24566 0.0
O501 O 0.61587 0.71878 0.29935 0.0
O502 O 0.58315 0.69791 0.3114 0.0
O503 O 0.6196 0.7001 0.10692 0.0
O504 O 0.58758 0.67704 0.11989 0.0
C505 C 0.60044 0.70776 0.35295 0.0
H506 H 0.5052 0.66873 0.06051 0.0
H507 H 0.52216 0.63211 0.23861 0.0
H508 H 0.68466 0.74003 0.24417 0.0
H509 H 0.68288 0.79182 0.12497 0.0
C510 C 0.38093 0.4905 0.95842 0.0
N511 N 0.4171 0.48216 0.15979 0.0
C512 C 0.4096 0.46357 0.11651 0.0
C513 C 0.42232 0.45612 0.09098 0.0
C514 C 0.44322 0.46784 0.1086 0.0
C515 C 0.45079 0.48699 0.15378 0.0
C516 C 0.43734 0.49388 0.17944 0.0
Zn517 Zn 0.39645 0.49223 0.16724 0.0
C518 C 0.41607 0.53652 0.12221 0.0
N519 N 0.35177 0.51086 0.15329 0.0
C520 C 0.33485 0.49836 0.09929 0.0
C521 C 0.35273 0.52635 0.20902 0.0
C522 C 0.33591 0.52921 0.21454 0.0
C523 C 0.31796 0.51583 0.16317 0.0
C524 C 0.31779 0.50058 0.10316 0.0
Zn525 Zn 0.37385 0.50276 0.1565 0.0
O526 O 0.3917 0.48588 0.01262 0.0
C527 C 0.35515 0.45841 0.2099 0.0
O528 O 0.37118 0.49808 -0.00062 0.0
H529 H 0.36626 0.53604 0.25203 0.0
H530 H 0.39377 0.45474 0.09652 0.0
H531 H 0.33426 0.48608 0.05579 0.0
O532 O 0.37363 0.46326 0.20587 0.0
O533 O 0.35014 0.47151 0.18634 0.0
H534 H 0.44316 0.50883 0.21153 0.0
O535 O 0.37727 0.5075 0.31196 0.0
O536 O 0.4007 0.49863 0.32277 0.0
O537 O 0.39813 0.53366 0.13085 0.0
O538 O 0.41903 0.52161 0.13231 0.0
C539 C 0.38948 0.50453 0.3647 0.0
H540 H 0.41585 0.44152 0.05384 0.0
H541 H 0.46687 0.49653 0.16819 0.0
H542 H 0.33662 0.54113 0.26182 0.0
H543 H 0.30437 0.49012 0.06119 0.0
C544 C 0.59395 0.91857 0.92675 0.0
N545 N 0.60644 0.969 0.10088 0.0
C546 C 0.62344 0.97786 0.04262 0.0
C547 C 0.63393 0.99868 0.02675 0.0
C548 C 0.62701 0.0108 0.07072 0.0
C549 C 0.609 1.00141 0.12737 0.0
C550 C 0.59889 0.98027 0.1421 0.0
Zn551 Zn 0.59508 0.93829 0.12348 0.0
C552 C 0.55059 0.91263 0.09892 0.0
N553 N 0.57682 0.87524 0.15235 0.0
C554 C 0.58862 0.86943 0.10177 0.0
C555 C 0.56135 0.86196 0.21274 0.0
C556 C 0.55774 0.84212 0.22608 0.0
C557 C 0.57038 0.83622 0.1777 0.0
C558 C 0.58568 0.85002 0.11355 0.0
Zn559 Zn 0.58551 0.90537 0.13655 0.0
O560 O 0.59842 0.93528 0.96831 0.0
C561 C 0.62977 0.93134 0.17043 0.0
O562 O 0.5881 0.90289 -0.01933 0.0
H563 H 0.55217 0.86689 0.25247 0.0
H564 H 0.62933 0.96884 0.01018 0.0
H565 H 0.6008 0.88008 0.05394 0.0
O566 O 0.62495 0.94483 0.15587 0.0
O567 O 0.61635 0.91281 0.16094 0.0
H568 H 0.58538 0.97298 0.18827 0.0
O569 O 0.58307 0.90849 0.2918 0.0
O570 O 0.59134 0.94056 0.27832 0.0
O571 O 0.5548 0.89863 0.11542 0.0
O572 O 0.56487 0.93105 0.09642 0.0
C573 C 0.58658 0.92505 0.3327 0.0
H574 H 0.64771 1.00536 -0.01782 0.0
H575 H 0.60329 0.01036 0.16285 0.0
H576 H 0.54579 0.83182 0.27628 0.0
H577 H 0.59559 0.84593 0.07414 0.0
C578 C 0.16966 0.71029 0.91675 0.0
N579 N 0.11991 0.66876 0.08325 0.0
C580 C 0.11101 0.67452 0.01162 0.0
C581 C 0.09081 0.66215 -0.01426 0.0
C582 C 0.07898 0.64367 0.03575 0.0
C583 C 0.08845 0.63757 0.10773 0.0
C584 C 0.10914 0.65048 0.13054 0.0
Zn585 Zn 0.14978 0.69078 0.11174 0.0
C586 C 0.17901 0.6765 0.09997 0.0
N587 N 0.21073 0.74085 0.14606 0.0
C588 C 0.21509 0.75876 0.10245 0.0
C589 C 0.22532 0.73889 0.19579 0.0
C590 C 0.24514 0.75544 0.20347 0.0
C591 C 0.24978 0.77416 0.16089 0.0
C592 C 0.23446 0.77563 0.10963 0.0
Zn593 Zn 0.18137 0.71726 0.12803 0.0
O594 O 0.15395 0.69604 0.95732 0.0
C595 C 0.15067 0.73032 0.14716 0.0
O596 O 0.18426 0.72259 0.97182 0.0
H597 H 0.22161 0.72451 0.22949 0.0
H598 H 0.11942 0.68912 0.9753 0.0
H599 H 0.2035 0.76 0.06134 0.0
O600 O 0.13974 0.71157 0.12833 0.0
O601 O 0.16984 0.73804 0.14991 0.0
H602 H 0.1164 0.64611 0.18747 0.0
O603 O 0.17806 0.7116 0.28194 0.0
O604 O 0.14672 0.68606 0.26793 0.0
O605 O 0.19158 0.69542 0.11074 0.0
O606 O 0.16008 0.67025 0.09778 0.0
C607 C 0.16185 0.69784 0.32254 0.0
H608 H 0.08436 0.66735 0.92828 0.0
H609 H 0.07985 0.62343 0.14821 0.0
H610 H 0.25658 0.75375 0.24374 0.0
H611 H 0.2375 0.78972 0.07452 0.0
H612 H 0.14043 0.38042 0.3005 0.0
H613 H 0.08851 0.37476 0.14058 0.0
H614 H 0.06729 0.34093 0.20994 0.0
H615 H 0.06278 0.31405 0.32444 0.0
H616 H 0.11421 0.31771 0.47954 0.0
H617 H 0.13638 0.35129 0.40443 0.0
C618 C 0.12459 0.37154 0.27925 0.0
C619 C 0.11598 0.38014 0.21627 0.0
C620 C 0.11233 0.35199 0.32022 0.0
C621 C 0.0954 0.36853 0.18965 0.0
C622 C 0.08324 0.34924 0.22965 0.0
C623 C 0.07883 0.32226 0.34246 0.0
C624 C 0.0868 0.31374 0.40943 0.0
C625 C 0.09141 0.34107 0.297 0.0
C626 C 0.10772 0.32418 0.42936 0.0
C627 C 0.12037 0.34329 0.38609 0.0
H628 H 0.77644 0.79545 0.29691 0.0
H629 H 0.76776 0.83416 0.50303 0.0
H630 H 0.73414 0.82308 0.42907 0.0
H631 H 0.706 0.79963 0.31503 0.0
H632 H 0.71608 0.76171 0.10942 0.0
H633 H 0.75063 0.77557 0.17214 0.0
C634 C 0.76718 0.80149 0.32566 0.0
C635 C 0.77422 0.81516 0.4068 0.0
C636 C 0.74825 0.79531 0.28204 0.0
C637 C 0.76245 0.82339 0.44137 0.0
C638 C 0.74329 0.81707 0.39902 0.0
C639 C 0.71604 0.79492 0.28233 0.0
C640 C 0.70861 0.7797 0.20785 0.0
C641 C 0.73586 0.80272 0.32039 0.0
C642 C 0.72156 0.77344 0.16663 0.0
C643 C 0.74122 0.78122 0.20301 0.0
H644 H 0.30659 0.02747 0.37748 0.0
H645 H 0.24932 0.97568 0.46211 0.0
H646 H 0.26029 0.95296 0.3904 0.0
H647 H 0.28641 0.94815 0.30143 0.0
H648 H 0.34288 1.00095 0.21546 0.0
H649 H 0.33172 0.02295 0.28857 0.0
C650 C 0.29644 0.0112 0.38124 0.0
C651 C 0.27721 1.00329 0.42612 0.0
C652 C 0.30264 0.99842 0.33827 0.0
C653 C 0.26426 0.98217 0.42863 0.0
C654 C 0.27052 0.9692 0.38731 0.0
C655 C 0.29621 0.96447 0.29868 0.0
C656 C 0.31539 0.97286 0.25188 0.0
C657 C 0.28969 0.97719 0.34147 0.0
C658 C 0.3279 0.99405 0.24876 0.0
C659 C 0.32162 1.00667 0.29154 0.0
H660 H 0.37607 0.09216 0.51648 0.0
H661 H 0.37139 0.14431 0.60005 0.0
H662 H 0.40672 0.16155 0.65985 0.0
H663 H 0.43806 0.16017 0.70197 0.0
H664 H 0.4395 0.1055 0.63074 0.0
H665 H 0.40619 0.09072 0.55607 0.0
C666 C 0.38275 0.10734 0.54772 0.0
C667 C 0.37106 0.11681 0.55528 0.0
C668 C 0.40242 0.11654 0.58645 0.0
C669 C 0.38011 0.13669 0.59322 0.0
C670 C 0.40021 0.14642 0.62861 0.0
C671 C 0.43099 0.14502 0.67046 0.0
C672 C 0.44131 0.13396 0.67323 0.0
C673 C 0.41135 0.13623 0.62825 0.0
C674 C 0.43196 0.11436 0.63129 0.0
C675 C 0.41289 0.10586 0.58759 0.0
H676 H 0.96658 0.35446 0.62328 0.0
H677 H 0.92141 0.30983 0.82102 0.0
H678 H 0.93102 0.28488 0.76645 0.0
H679 H 0.95473 0.27704 0.67208 0.0
H680 H 0.99925 0.32244 0.47453 0.0
H681 H 0.98724 0.34577 0.5179 0.0
C682 C 0.95877 0.33924 0.65435 0.0
C683 C 0.94362 0.33407 0.72755 0.0
C684 C 0.96422 0.32512 0.62197 0.0
C685 C 0.93326 0.31417 0.76518 0.0
C686 C 0.93878 0.29996 0.73401 0.0
C687 C 0.96136 0.29186 0.63693 0.0
C688 C 0.97778 0.29809 0.56997 0.0
C689 C 0.95452 0.30538 0.66363 0.0
C690 C 0.98652 0.31738 0.52572 0.0
C691 C 0.97977 0.33074 0.55106 0.0
H692 H 0.80909 0.7159 0.63892 0.0
H693 H 0.76185 0.71326 0.4492 0.0
H694 H 0.73948 0.67789 0.49547 0.0
H695 H 0.73207 0.64896 0.60172 0.0
H696 H 0.77862 0.65007 0.79077 0.0
H697 H 0.8026 0.68474 0.73321 0.0
C698 C 0.79409 0.70734 0.60597 0.0
C699 C 0.78706 0.71713 0.54086 0.0
C700 C 0.78109 0.68693 0.63434 0.0
C701 C 0.76753 0.706 0.49938 0.0
C702 C 0.7547 0.68584 0.52633 0.0
C703 C 0.7475 0.65676 0.63029 0.0
C704 C 0.75348 0.6472 0.702 0.0
C705 C 0.76109 0.67638 0.59599 0.0
C706 C 0.77364 0.65725 0.73623 0.0
C707 C 0.78731 0.67704 0.7033 0.0
H708 H 0.02759 0.76001 0.57137 0.0
H709 H 0.97732 0.76805 0.4877 0.0
H710 H 0.95373 0.73604 0.57061 0.0
H711 H 0.94761 0.7064 0.67285 0.0
H712 H 0.9984 0.69935 0.75916 0.0
H713 H 0.02155 0.73062 0.67183 0.0
C714 C 0.01143 0.75461 0.56967 0.0
C715 C 1.00421 0.76628 0.52232 0.0
C716 C 0.99807 0.73659 0.62017 0.0
C717 C 0.98326 0.75925 0.52284 0.0
C718 C 0.96978 0.74103 0.57088 0.0
C719 C 0.96374 0.71171 0.67249 0.0
C720 C 0.9712 0.70057 0.72363 0.0
C721 C 0.97705 0.7297 0.62102 0.0
C722 C 0.9922 0.70778 0.72274 0.0
C723 C 1.00547 0.72556 0.67158 0.0
H724 H 0.3155 0.28179 0.70805 0.0
H725 H 0.32542 0.25216 0.45606 0.0
H726 H 0.35918 0.26145 0.52247 0.0
H727 H 0.38732 0.28181 0.64292 0.0
H728 H 0.37636 0.31088 0.89423 0.0
H729 H 0.34133 0.29762 0.83931 0.0
C730 C 0.325 0.27717 0.66842 0.0
C731 C 0.31831 0.26666 0.5767 0.0
C732 C 0.34411 0.28238 0.70749 0.0
C733 C 0.33043 0.26038 0.5266 0.0
C734 C 0.3497 0.26573 0.5645 0.0
C735 C 0.37697 0.28456 0.6872 0.0
C736 C 0.38421 0.29709 0.77298 0.0
C737 C 0.3569 0.27719 0.65371 0.0
C738 C 0.37092 0.30103 0.82889 0.0
C739 C 0.35101 0.29365 0.79685 0.0
H740 H 0.77937 0.10384 0.84807 0.0
H741 H 0.81089 0.15681 0.66083 0.0
H742 H 0.82729 0.14087 0.56862 0.0
H743 H 0.82897 0.10958 0.52801 0.0
H744 H 0.79515 0.05657 0.71444 0.0
H745 H 0.78345 0.07467 0.8197 0.0
C746 C 0.79016 0.11203 0.78832 0.0
C747 C 0.79385 0.13132 0.76066 0.0
C748 C 0.79885 0.10255 0.73412 0.0
C749 C 0.80793 0.14192 0.68369 0.0
C750 C 0.8171 0.13271 0.63029 0.0
C751 C 0.81922 0.1022 0.59227 0.0
C752 C 0.81251 0.08165 0.61193 0.0
C753 C 0.81211 0.11268 0.65249 0.0
C754 C 0.80006 0.07223 0.69611 0.0
C755 C 0.79343 0.08258 0.75691 0.0
H756 H 0.648 0.95865 0.31637 0.0
H757 H 0.65543 0.91651 0.13011 0.0
H758 H 0.68879 0.92762 0.20733 0.0
H759 H 0.71689 0.95146 0.32058 0.0
H760 H 0.70762 0.99211 0.51015 0.0
H761 H 0.67368 0.97909 0.44097 0.0
C762 C 0.65698 0.95195 0.29242 0.0
C763 C 0.64966 0.93725 0.21591 0.0
C764 C 0.67567 0.95798 0.33883 0.0
C765 C 0.66101 0.92813 0.18785 0.0
C766 C 0.68 0.93443 0.23224 0.0
C767 C 0.70717 0.957 0.34842 0.0
C768 C 0.71473 0.97279 0.41996 0.0
C769 C 0.68761 0.94956 0.30714 0.0
C770 C 0.7021 0.98001 0.45495 0.0
C771 C 0.68278 0.9727 0.41489 0.0
H772 H 0.09153 0.75959 0.29723 0.0
H773 H 0.14736 0.81571 0.349 0.0
H774 H 0.16667 0.80005 0.28698 0.0
H775 H 0.1674 0.77007 0.2141 0.0
H776 H 0.11028 0.71604 0.14803 0.0
H777 H 0.09195 0.73174 0.21444 0.0
C778 C 0.1079 0.76879 0.29282 0.0
C779 C 0.1178 0.78903 0.32652 0.0
C780 C 0.11878 0.76008 0.25287 0.0
C781 C 0.13917 0.80007 0.32436 0.0
C782 C 0.15025 0.79117 0.28775 0.0
C783 C 0.15096 0.76188 0.21304 0.0
C784 C 0.14036 0.74178 0.1763 0.0
C785 C 0.14019 0.77116 0.25085 0.0
C786 C 0.119 0.73144 0.17585 0.0
C787 C 0.10839 0.74037 0.21439 0.0
H788 H 0.36308 0.43875 0.35315 0.0
H789 H 0.31443 0.43363 0.16644 0.0
H790 H 0.29184 0.39937 0.23369 0.0
H791 H 0.28722 0.36976 0.33609 0.0
H792 H 0.3367 0.37638 0.52161 0.0
H793 H 0.35764 0.41135 0.46561 0.0
C794 C 0.34751 0.43016 0.32704 0.0
C795 C 0.34052 0.43845 0.25332 0.0
C796 C 0.33478 0.41079 0.36639 0.0
C797 C 0.32017 0.42742 0.22244 0.0
C798 C 0.30731 0.40787 0.26087 0.0
C799 C 0.30242 0.37909 0.36571 0.0
C800 C 0.31051 0.37053 0.43239 0.0
C801 C 0.31458 0.39924 0.33171 0.0
C802 C 0.33025 0.38264 0.46985 0.0
C803 C 0.34225 0.40259 0.43754 0.0
H804 H 0.04104 0.46679 0.97245 0.0
H805 H 0.05175 0.433 0.74396 0.0
H806 H 0.08666 0.44695 0.80186 0.0
H807 H 0.11244 0.46508 0.92973 0.0
H808 H 0.10282 0.49905 0.16111 0.0
H809 H 0.06916 0.48888 0.09003 0.0
C810 C 0.05129 0.46305 0.93384 0.0
C811 C 0.044 0.44898 0.85396 0.0
C812 C 0.07128 0.47081 0.96936 0.0
C813 C 0.05718 0.44389 0.80514 0.0
C814 C 0.07704 0.45173 0.83874 0.0
C815 C 0.10301 0.4704 0.96412 0.0
C816 C 0.10976 0.48239 0.05148 0.0
C817 C 0.08397 0.46457 0.92286 0.0
C818 C 0.09776 0.48964 0.09418 0.0
C819 C 0.07855 0.48379 0.05364 0.0
H820 H 0.61742 0.61141 0.91421 0.0
H821 H 0.67393 0.66361 0.82255 0.0
H822 H 0.66379 0.68599 0.9001 0.0
H823 H 0.64002 0.69103 -0.00078 0.0
H824 H 0.58306 0.63987 0.09268 0.0
H825 H 0.59247 0.61676 0.0109 0.0
C826 C 0.62747 0.62769 0.91093 0.0
C827 C 0.64641 0.63573 0.86166 0.0
C828 C 0.62164 0.64065 0.95738 0.0
C829 C 0.65912 0.6569 0.8576 0.0
C830 C 0.65345 0.66977 0.90321 0.0
C831 C 0.62961 0.6748 0.00271 0.0
C832 C 0.61097 0.66717 0.05353 0.0
C833 C 0.63493 0.66181 0.9543 0.0
C834 C 0.59759 0.64613 0.05498 0.0
C835 C 0.60295 0.63295 0.0079 0.0
H836 H 0.48043 0.04406 0.90507 0.0
H837 H 0.43139 0.05355 0.81395 0.0
H838 H 0.40709 0.02254 0.89937 0.0
H839 H 0.39952 0.9928 0.0004 0.0
H840 H 0.44775 0.98185 0.08756 0.0
H841 H 0.47261 0.01351 0.00544 0.0
C842 C 0.46442 0.03928 0.90374 0.0
C843 C 0.45779 0.05107 0.85194 0.0
C844 C 0.45039 0.02131 0.95364 0.0
C845 C 0.43694 0.0446 0.85094 0.0
C846 C 0.42301 0.02696 0.9009 0.0
C847 C 0.4155 0.99745 0.00275 0.0
C848 C 0.4218 0.98512 0.05132 0.0
C849 C 0.42955 0.01526 0.95283 0.0
C850 C 0.44253 0.99117 0.05148 0.0
C851 C 0.45673 0.00921 0.00404 0.0
H852 H 0.69736 0.10045 0.0155 0.0
H853 H 0.64995 0.10691 0.87393 0.0
H854 H 0.62506 0.07176 0.91939 0.0
H855 H 0.61746 0.03826 -0.00966 0.0
H856 H 0.66576 0.03317 0.13116 0.0
H857 H 0.68956 0.06878 0.09637 0.0
C858 C 0.68157 0.09423 -0.00555 0.0
C859 C 0.67558 0.10617 0.93988 0.0
C860 C 0.66749 0.07423 0.02127 0.0
C861 C 0.65498 0.09797 0.91528 0.0
C862 C 0.64077 0.07788 0.94129 0.0
C863 C 0.63311 0.04514 0.01489 0.0
C864 C 0.63993 0.03314 0.06277 0.0
C865 C 0.6469 0.06574 -0.00678 0.0
C866 C 0.66025 0.04212 0.09375 0.0
C867 C 0.67387 0.06245 0.07357 0.0
H868 H 0.05429 0.65915 0.02114 0.0
H869 H 0.05359 0.60233 0.00591 0.0
H870 H 0.01771 0.58511 0.95387 0.0
H871 H 0.98683 0.58702 0.90364 0.0
H872 H 0.99075 0.64569 0.91101 0.0
H873 H 0.02505 0.66124 0.9719 0.0
C874 C 0.0464 0.64299 0.0057 0.0
C875 C 0.05673 0.63214 0.01563 0.0
C876 C 0.02629 0.6335 0.97283 0.0
C877 C 0.046 0.61108 -0.00128 0.0
C878 C 0.02555 0.60128 0.96805 0.0
C879 C 0.99527 0.60319 0.91812 0.0
C880 C 0.98599 0.61503 0.902 0.0
C881 C 0.01557 0.61244 0.95303 0.0
C882 C 0.99723 0.63601 0.92188 0.0
C883 C 0.01698 0.64506 0.95736 0.0
H884 H 0.43704 0.43043 0.14202 0.0
H885 H 0.47889 0.48699 -0.00025 0.0
H886 H 0.4964 0.47087 0.91975 0.0
H887 H 0.49733 0.43922 0.87685 0.0
H888 H 0.45276 0.38286 0.01419 0.0
H889 H 0.43876 0.40023 0.10745 0.0
C890 C 0.4501 0.4393 0.09405 0.0
C891 C 0.45649 0.45976 0.07588 0.0
C892 C 0.45942 0.4298 0.04556 0.0
C893 C 0.4737 0.47118 0.01523 0.0
C894 C 0.48356 0.46189 0.96856 0.0
C895 C 0.48461 0.43086 0.92737 0.0
C896 C 0.47587 0.40967 0.93646 0.0
C897 C 0.47616 0.44099 -0.01926 0.0
C898 C 0.4595 0.39906 0.00329 0.0
C899 C 0.45151 0.40899 0.05767 0.0
H900 H 0.14878 0.26719 0.40347 0.0
H901 H 0.11589 0.20266 0.4535 0.0
H902 H 0.14786 0.20207 0.45159 0.0
H903 H 0.1856 0.22074 0.45046 0.0
H904 H 0.21756 0.28559 0.40391 0.0
H905 H 0.18559 0.28518 0.39019 0.0
C906 C 0.1486 0.25296 0.41344 0.0
C907 C 0.13008 0.23505 0.42996 0.0
C908 C 0.16693 0.25284 0.4138 0.0
C909 C 0.12999 0.21665 0.44065 0.0
C910 C 0.14827 0.21636 0.44027 0.0
C911 C 0.18553 0.23472 0.43625 0.0
C912 C 0.20403 0.25319 0.42941 0.0
C913 C 0.16691 0.23446 0.42917 0.0
C914 C 0.20364 0.27117 0.41065 0.0
C915 C 0.18532 0.27099 0.40263 0.0
H916 H 0.86688 1.00411 0.48241 0.0
H917 H 0.80476 0.97087 0.3797 0.0
H918 H 0.80599 0.93965 0.37752 0.0
H919 H 0.82334 0.92104 0.41902 0.0
H920 H 0.88526 0.95305 0.52179 0.0
H921 H 0.88562 0.98544 0.50881 0.0
C922 C 0.85378 0.99009 0.45786 0.0
C923 C 0.83568 0.98984 0.43246 0.0
C924 C 0.85447 0.9719 0.45778 0.0
C925 C 0.81881 0.97152 0.40087 0.0
C926 C 0.81946 0.95359 0.39963 0.0
C927 C 0.83696 0.93515 0.43791 0.0
C928 C 0.85414 0.93473 0.47266 0.0
C929 C 0.83697 0.9535 0.43049 0.0
C930 C 0.87183 0.95307 0.49518 0.0
C931 C 0.87198 0.97154 0.48809 0.0
H932 H 0.11723 0.8825 0.42377 0.0
H933 H 0.07323 0.90185 0.46293 0.0
H934 H 0.10061 0.93718 0.47448 0.0
H935 H 0.13745 0.96249 0.48379 0.0
H936 H 0.18069 0.94209 0.44898 0.0
H937 H 0.15326 0.90736 0.42506 0.0
C938 C 0.11354 0.89441 0.43409 0.0
C939 C 0.09317 0.88945 0.44294 0.0
C940 C 0.1293 0.91458 0.44201 0.0
C941 C 0.08877 0.90519 0.45602 0.0
C942 C 0.10444 0.92541 0.46286 0.0
C943 C 0.14076 0.95042 0.4699 0.0
C944 C 0.16103 0.95477 0.46932 0.0
C945 C 0.1248 0.93028 0.45744 0.0
C946 C 0.16519 0.93903 0.45132 0.0
C947 C 0.14952 0.91918 0.4374 0.0
H948 H 0.26027 0.16312 0.58297 0.0
H949 H 0.20219 0.13377 0.43511 0.0
H950 H 0.20098 0.10092 0.44666 0.0
H951 H 0.21857 0.08143 0.48395 0.0
H952 H 0.2771 0.11223 0.62977 0.0
H953 H 0.2759 0.14347 0.63534 0.0
C954 C 0.24723 0.14943 0.55462 0.0
C955 C 0.23143 0.15072 0.50763 0.0
C956 C 0.24679 0.13088 0.56085 0.0
C957 C 0.2145 0.133 0.47163 0.0
C958 C 0.21389 0.1143 0.47786 0.0
C959 C 0.23081 0.09489 0.5187 0.0
C960 C 0.24801 0.09456 0.5553 0.0
C961 C 0.23021 0.11313 0.52023 0.0
C962 C 0.26381 0.11213 0.59985 0.0
C963 C 0.26318 0.13005 0.60308 0.0
H964 H 0.95017 0.11926 0.48868 0.0
H965 H 0.90967 0.14158 0.56166 0.0
H966 H 0.93833 0.17588 0.57914 0.0
H967 H 0.97438 0.19991 0.56181 0.0
H968 H 0.01564 0.1787 0.4847 0.0
H969 H 0.98734 0.14369 0.48162 0.0
C970 C 0.94776 0.13164 0.50976 0.0
C971 C 0.92786 0.12797 0.52294 0.0
C972 C 0.9644 0.15154 0.51821 0.0
C973 C 0.92485 0.14411 0.55 0.0
C974 C 0.94122 0.16372 0.56003 0.0
C975 C 0.97729 0.18766 0.54501 0.0
C976 C 0.99712 0.19201 0.52274 0.0
C977 C 0.96099 0.16769 0.54225 0.0
C978 C 1.00053 0.17584 0.50196 0.0
C979 C 0.98433 0.15579 0.4999 0.0
H980 H 0.966 0.86761 0.52721 0.0
H981 H 0.94285 0.80392 0.58009 0.0
H982 H 0.90849 0.79827 0.59608 0.0
H983 H 0.88469 0.81067 0.57889 0.0
H984 H 0.90705 0.87416 0.5223 0.0
H985 H 0.94195 0.8807 0.52475 0.0
C986 C 0.95343 0.85263 0.54425 0.0
C987 C 0.95684 0.83616 0.55182 0.0
C988 C 0.93355 0.8494 0.55147 0.0
C989 C 0.94048 0.81676 0.57326 0.0
C990 C 0.92085 0.81352 0.58214 0.0
C991 C 0.89718 0.826 0.56798 0.0
C992 C 0.89321 0.84184 0.54933 0.0
C993 C 0.91714 0.8296 0.56862 0.0
C994 C 0.90964 0.86164 0.53649 0.0
C995 C 0.92962 0.86539 0.5376 0.0
H996 H 0.84662 0.55058 0.84307 0.0
H997 H 0.87587 0.60818 0.68844 0.0
H998 H 0.84354 0.6068 0.66813 0.0
H999 H 0.80769 0.59134 0.70908 0.0
H1000 H 0.77723 0.53404 0.86387 0.0
H1001 H 0.80901 0.533 0.86877 0.0
C1002 C 0.84576 0.56255 0.80325 0.0
C1003 C 0.86368 0.57958 0.7685 0.0
C1004 C 0.82692 0.56185 0.79291 0.0
C1005 C 0.86236 0.59505 0.71722 0.0
C1006 C 0.84387 0.59431 0.70551 0.0
C1007 C 0.808 0.57851 0.74277 0.0
C1008 C 0.79034 0.56292 0.78692 0.0
C1009 C 0.82619 0.57814 0.74561 0.0
C1010 C 0.79074 0.54624 0.82947 0.0
C1011 C 0.80892 0.54571 0.83262 0.0
H1012 H 0.47849 0.30096 0.74146 0.0
H1013 H 0.54202 0.343 0.79232 0.0
H1014 H 0.54924 0.31507 0.78194 0.0
H1015 H 0.53681 0.27805 0.77088 0.0
H1016 H 0.473 0.23684 0.72231 0.0
H1017 H 0.46661 0.2651 0.71928 0.0
C1018 C 0.49397 0.30412 0.74969 0.0
C1019 C 0.50965 0.32402 0.76861 0.0
C1020 C 0.49794 0.28806 0.74472 0.0
C1021 C 0.52964 0.3278 0.77785 0.0
C1022 C 0.53376 0.31182 0.77231 0.0
C1023 C 0.5216 0.27537 0.75841 0.0
C1024 C 0.50535 0.25536 0.74847 0.0
C1025 C 0.51795 0.2918 0.75755 0.0
C1026 C 0.48568 0.25207 0.7322 0.0
C1027 C 0.48202 0.26822 0.7301 0.0
H1028 H 0.75642 0.24356 0.84626 0.0
H1029 H 0.78873 0.21269 0.76037 0.0
H1030 H 0.81991 0.24486 0.74361 0.0
H1031 H 0.83886 0.2814 0.76554 0.0
H1032 H 0.8081 0.31351 0.85204 0.0
H1033 H 0.77553 0.28142 0.85493 0.0
C1034 C 0.77024 0.24395 0.82265 0.0
C1035 C 0.77021 0.22565 0.80605 0.0
C1036 C 0.78846 0.26273 0.81375 0.0
C1037 C 0.78828 0.22645 0.77519 0.0
C1038 C 0.8062 0.24487 0.76535 0.0
C1039 C 0.82498 0.28137 0.78442 0.0
C1040 C 0.82583 0.29965 0.80986 0.0
C1041 C 0.80657 0.26302 0.78662 0.0
C1042 C 0.80775 0.29954 0.83239 0.0
C1043 C 0.78919 0.2812 0.83452 0.0
H1044 H 0.93963 0.50254 0.87302 0.0
H1045 H 0.87587 0.47113 0.80207 0.0
H1046 H 0.87519 0.43856 0.80611 0.0
H1047 H 0.89359 0.41929 0.81934 0.0
H1048 H 0.9576 0.45195 0.88917 0.0
H1049 H 0.95725 0.48359 0.89586 0.0
C1050 C 0.92557 0.48857 0.85821 0.0
C1051 C 0.90791 0.48927 0.8358 0.0
C1052 C 0.92535 0.47006 0.86021 0.0
C1053 C 0.8897 0.47099 0.81935 0.0
C1054 C 0.88934 0.45239 0.82126 0.0
C1055 C 0.90737 0.43331 0.83713 0.0
C1056 C 0.92562 0.43317 0.85275 0.0
C1057 C 0.90718 0.45175 0.8402 0.0
C1058 C 0.94335 0.45152 0.87576 0.0
C1059 C 0.94322 0.46971 0.87967 0.0
H1060 H 0.58874 0.47439 0.88245 0.0
H1061 H 0.61695 0.44106 0.77554 0.0
H1062 H 0.65011 0.47242 0.77282 0.0
H1063 H 0.67052 0.51014 0.78836 0.0
H1064 H 0.64082 0.54234 0.89428 0.0
H1065 H 0.60899 0.51073 0.91007 0.0
C1066 C 0.60217 0.47399 0.85877 0.0
C1067 C 0.6004 0.45556 0.8278 0.0
C1068 C 0.62096 0.49195 0.85685 0.0
C1069 C 0.61797 0.45513 0.79949 0.0
C1070 C 0.63689 0.47306 0.79753 0.0
C1071 C 0.65713 0.51013 0.81619 0.0
C1072 C 0.65805 0.52865 0.83875 0.0
C1073 C 0.63853 0.4917 0.8243 0.0
C1074 C 0.64054 0.52838 0.87485 0.0
C1075 C 0.62226 0.51029 0.8841 0.0
H1076 H 0.63871 0.20718 0.81556 0.0
H1077 H 0.61803 0.1443 0.88085 0.0
H1078 H 0.58294 0.13615 0.86594 0.0
H1079 H 0.55813 0.14642 0.83338 0.0
H1080 H 0.57733 0.209 0.76964 0.0
H1081 H 0.61296 0.2178 0.78595 0.0
C1082 C 0.62645 0.19175 0.82631 0.0
C1083 C 0.63094 0.17639 0.85005 0.0
C1084 C 0.60609 0.18712 0.81835 0.0
C1085 C 0.61496 0.15643 0.86401 0.0
C1086 C 0.59489 0.15172 0.85517 0.0
C1087 C 0.57006 0.16204 0.82297 0.0
C1088 C 0.56507 0.177 0.79969 0.0
C1089 C 0.59029 0.1669 0.83246 0.0
C1090 C 0.58076 0.19718 0.78776 0.0
C1091 C 0.60113 0.20219 0.79666 0.0
H1092 H 0.53727 0.93786 0.03678 0.0
H1093 H 0.51581 0.87635 0.13374 0.0
H1094 H 0.48077 0.86939 0.12749 0.0
H1095 H 0.45635 0.88181 0.108 0.0
H1096 H 0.4786 0.94358 0.01448 0.0
H1097 H 0.51308 0.94932 0.00452 0.0
C1098 C 0.52495 0.92286 0.05591 0.0
C1099 C 0.52923 0.90774 0.08672 0.0
C1100 C 0.5049 0.919 0.05267 0.0
C1101 C 0.51299 0.88833 0.11011 0.0
C1102 C 0.49293 0.88433 0.10672 0.0
C1103 C 0.46874 0.89634 0.08347 0.0
C1104 C 0.46503 0.91228 0.06214 0.0
C1105 C 0.4887 0.89967 0.07984 0.0
C1106 C 0.48118 0.93113 0.0314 0.0
C1107 C 0.50089 0.93445 0.02612 0.0
H1108 H 0.15784 0.6383 0.02873 0.0
H1109 H 0.21547 0.68074 0.161 0.0
H1110 H 0.22438 0.65399 0.17245 0.0
H1111 H 0.21409 0.61738 0.15935 0.0
H1112 H 0.15599 0.57565 0.02952 0.0
H1113 H 0.14898 0.60323 0.00185 0.0
C1114 C 0.17245 0.64179 0.05927 0.0
C1115 C 0.18587 0.66141 0.09507 0.0
C1116 C 0.17734 0.62638 0.06632 0.0
C1117 C 0.20486 0.66574 0.13303 0.0
C1118 C 0.20991 0.65041 0.14003 0.0
C1119 C 0.20013 0.61455 0.12333 0.0
C1120 C 0.18552 0.59462 0.09643 0.0
C1121 C 0.19606 0.63053 0.10899 0.0
C1122 C 0.16738 0.59093 0.05058 0.0
C1123 C 0.16336 0.60665 0.03513 0.0
H1124 H 0.50296 0.61232 0.07183 0.0
H1125 H 0.47355 0.64341 0.19308 0.0
H1126 H 0.44062 0.61176 0.1873 0.0
H1127 H 0.42089 0.57425 0.16187 0.0
H1128 H 0.45171 0.54426 0.04133 0.0
H1129 H 0.48323 0.57638 0.03184 0.0
C1130 C 0.48928 0.61217 0.09622 0.0
C1131 C 0.49062 0.62998 0.13405 0.0
C1132 C 0.47065 0.59405 0.09312 0.0
C1133 C 0.47282 0.62978 0.16389 0.0
C1134 C 0.45405 0.61168 0.16096 0.0
C1135 C 0.43444 0.57487 0.13193 0.0
C1136 C 0.43396 0.5568 0.1036 0.0
C1137 C 0.45283 0.59357 0.1277 0.0
C1138 C 0.45166 0.55785 0.065 0.0
C1139 C 0.46976 0.57623 0.05948 0.0
H1140 H 0.55657 0.74731 0.17096 0.0
H1141 H 0.61971 0.78069 0.25754 0.0
H1142 H 0.61812 0.81162 0.27136 0.0
H1143 H 0.60012 0.83004 0.24305 0.0
H1144 H 0.5374 0.79807 0.15291 0.0
H1145 H 0.53732 0.76575 0.15806 0.0
C1146 C 0.56985 0.7613 0.19429 0.0
C1147 C 0.5883 0.7617 0.21174 0.0
C1148 C 0.56895 0.77933 0.20102 0.0
C1149 C 0.60538 0.77996 0.24215 0.0
C1150 C 0.60452 0.79771 0.25028 0.0
C1151 C 0.58636 0.81593 0.22578 0.0
C1152 C 0.56887 0.81635 0.19663 0.0
C1153 C 0.58659 0.79768 0.22732 0.0
C1154 C 0.55104 0.79803 0.17563 0.0
C1155 C 0.55106 0.77962 0.17789 0.0
H1156 H 0.33989 0.8477 0.12642 0.0
H1157 H 0.31 0.87899 0.24276 0.0
H1158 H 0.27848 0.84717 0.25887 0.0
H1159 H 0.2584 0.81087 0.22871 0.0
H1160 H 0.28685 0.77838 0.11345 0.0
H1161 H 0.31981 0.80998 0.10966 0.0
C1162 C 0.32653 0.84747 0.15638 0.0
C1163 C 0.32736 0.86585 0.18173 0.0
C1164 C 0.30809 0.82888 0.16537 0.0
C1165 C 0.30986 0.86522 0.22096 0.0
C1166 C 0.29173 0.84697 0.23053 0.0
C1167 C 0.27186 0.8107 0.20348 0.0
C1168 C 0.27021 0.79244 0.1704 0.0
C1169 C 0.29055 0.82881 0.20096 0.0
C1170 C 0.28779 0.79231 0.13939 0.0
C1171 C 0.30659 0.81039 0.13666 0.0
H1172 H 0.28074 0.48461 0.2056 0.0
H1173 H 0.31268 0.54894 0.14944 0.0
H1174 H 0.28053 0.54913 0.15613 0.0
H1175 H 0.24283 0.53023 0.16657 0.0
H1176 H 0.21186 0.46568 0.22181 0.0
H1177 H 0.24406 0.46641 0.22672 0.0
C1178 C 0.28067 0.49869 0.19479 0.0
C1179 C 0.29899 0.51667 0.17554 0.0
C1180 C 0.26225 0.49863 0.19822 0.0
C1181 C 0.29874 0.53488 0.16416 0.0
C1182 C 0.28036 0.53497 0.16754 0.0
C1183 C 0.24318 0.5164 0.1808 0.0
C1184 C 0.22484 0.49791 0.19284 0.0
C1185 C 0.26193 0.51683 0.18293 0.0
C1186 C 0.22562 0.48012 0.21134 0.0
C1187 C 0.24407 0.48047 0.21418 0.0
H1188 H 0.06192 0.24678 0.15262 0.0
H1189 H 1.01021 0.25557 0.17261 0.0
H1190 H 1.01047 0.25937 -0.01034 0.0
H1191 H 0.02552 0.26044 0.82562 0.0
H1192 H 0.07717 0.25155 0.80587 0.0
H1193 H 0.07698 0.24789 -0.01113 0.0
C1194 C 0.05058 0.24936 0.11706 0.0
C1195 C 0.03602 0.25083 0.17585 0.0
C1196 C 0.05098 0.25178 0.01258 0.0
C1197 C 0.02153 0.25432 0.12876 0.0
C1198 C 0.02173 0.25659 0.0244 0.0
C1199 C 0.03686 0.25788 0.86133 0.0
C1200 C 0.05137 0.25631 0.80263 0.0
C1201 C 0.03648 0.25549 0.96587 0.0
C1202 C 0.06586 0.25284 0.84973 0.0
C1203 C 0.06571 0.25066 0.9541 0.0
H1204 H 0.82032 0.80162 0.15917 0.0
H1205 H 0.86025 0.86619 0.18916 0.0
H1206 H 0.85842 0.87052 0.00783 0.0
H1207 H 0.84515 0.85603 0.84163 0.0
H1208 H 0.80521 0.79146 0.8112 0.0
H1209 H 0.80701 0.78711 -0.0074 0.0
C1210 C 0.82888 0.81658 0.12563 0.0
C1211 C 0.84053 0.83353 0.18684 0.0
C1212 C 0.82742 0.81901 0.02189 0.0
C1213 C 0.85125 0.8529 0.14307 0.0
C1214 C 0.85011 0.85541 0.03969 0.0
C1215 C 0.83661 0.84105 0.87495 0.0
C1216 C 0.82499 0.82412 0.81358 0.0
C1217 C 0.83805 0.83861 -0.02135 0.0
C1218 C 0.81423 0.80475 0.85731 0.0
C1219 C 0.81535 0.80222 0.96076 0.0
H1220 H 0.28758 0.06243 0.16386 0.0
H1221 H 0.22266 0.03507 0.19425 0.0
H1222 H 0.21854 0.0294 0.01263 0.0
H1223 H 0.23334 0.03177 0.84622 0.0
H1224 H 0.29825 0.05905 0.81555 0.0
H1225 H 0.30239 0.06483 -0.00285 0.0
C1226 C 0.27258 0.05551 0.13041 0.0
C1227 C 0.25548 0.04929 0.1917 0.0
C1228 C 0.27028 0.05193 0.02654 0.0
C1229 C 0.23607 0.04004 0.14805 0.0
C1230 C 0.23368 0.03667 0.04451 0.0
C1231 C 0.24835 0.03874 0.87951 0.0
C1232 C 0.26543 0.0449 0.81813 0.0
C1233 C 0.25066 0.04234 -0.01669 0.0
C1234 C 0.28485 0.05414 0.86174 0.0
C1235 C 0.28726 0.05756 0.96529 0.0
H1236 H 0.03015 0.83454 0.79385 0.0
H1237 H 0.07915 0.82149 0.77733 0.0
H1238 H 0.0792 0.81898 0.96097 0.0
H1239 H 0.06519 0.82028 0.1243 0.0
H1240 H 0.01622 0.83336 0.14065 0.0
H1241 H 0.01616 0.83583 0.957 0.0
C1242 C 0.04093 0.83124 0.83023 0.0
C1243 C 0.05466 0.82824 0.77232 0.0
C1244 C 0.04076 0.82966 0.93506 0.0
C1245 C 0.06847 0.82391 0.8205 0.0
C1246 C 0.06846 0.82241 0.92524 0.0
C1247 C 0.05442 0.82358 0.08782 0.0
C1248 C 0.04071 0.82662 0.14565 0.0
C1249 C 0.0546 0.82516 -0.01704 0.0
C1250 C 0.0269 0.83095 0.09747 0.0
C1251 C 0.0269 0.83242 -0.00726 0.0
H1252 H 0.24735 0.23198 0.14503 0.0
H1253 H 0.29164 0.29559 0.1733 0.0
H1254 H 0.29021 0.30005 -0.00833 0.0
H1255 H 0.276 0.28594 0.82564 0.0
H1256 H 0.23173 0.22232 0.798 0.0
H1257 H 0.23321 0.2179 -0.02049 0.0
C1258 C 0.2569 0.24676 0.11128 0.0
C1259 C 0.26965 0.2634 0.17215 0.0
C1260 C 0.2557 0.2493 0.00749 0.0
C1261 C 0.28174 0.28253 0.12769 0.0
C1262 C 0.28084 0.28512 0.02409 0.0
C1263 C 0.26644 0.27119 0.85968 0.0
C1264 C 0.25365 0.25453 0.79906 0.0
C1265 C 0.26768 0.26866 0.96354 0.0
C1266 C 0.24162 0.2354 0.84356 0.0
C1267 C 0.24256 0.23282 0.94706 0.0
H1268 H 0.85244 0.05229 0.14981 0.0
H1269 H 0.78862 0.03201 0.17656 0.0
H1270 H 0.78426 0.02568 -0.00483 0.0
H1271 H 0.79852 0.0254 0.8295 0.0
H1272 H 0.86233 0.04559 0.80341 0.0
H1273 H 0.86667 0.052 -0.01538 0.0
C1274 C 0.83765 0.0468 0.11565 0.0
C1275 C 0.82092 0.04277 0.17612 0.0
C1276 C 0.83516 0.04272 0.01197 0.0
C1277 C 0.80176 0.03532 0.13124 0.0
C1278 C 0.79922 0.03155 0.02778 0.0
C1279 C 0.81328 0.03083 0.86392 0.0
C1280 C 0.83002 0.0348 0.80371 0.0
C1281 C 0.81576 0.03492 0.96767 0.0
C1282 C 0.84918 0.04229 0.84865 0.0
C1283 C 0.85171 0.04611 0.95199 0.0
H1284 H 0.7224 0.57549 0.12265 0.0
H1285 H 0.69685 0.61466 0.09494 0.0
H1286 H 0.69122 0.61294 0.27677 0.0
H1287 H 0.69317 0.59994 0.44268 0.0
H1288 H 0.71863 0.56068 0.46994 0.0
H1289 H 0.7243 0.56247 0.28821 0.0
C1290 C 0.71585 0.58386 0.15656 0.0
C1291 C 0.71016 0.59527 0.09586 0.0
C1292 C 0.71228 0.58248 0.26047 0.0
C1293 C 0.70143 0.60583 0.14046 0.0
C1294 C 0.69809 0.60475 0.24417 0.0
C1295 C 0.69968 0.59154 0.4086 0.0
C1296 C 0.70535 0.5801 0.46916 0.0
C1297 C 0.70324 0.59293 0.30463 0.0
C1298 C 0.71408 0.56954 0.42449 0.0
C1299 C 0.71744 0.57065 0.32085 0.0
H1300 H 0.49452 0.13078 0.41305 0.0
H1301 H 0.52407 0.19591 0.44123 0.0
H1302 H 0.52169 0.19912 0.25943 0.0
H1303 H 0.51087 0.18341 0.09349 0.0
H1304 H 0.48146 0.1183 0.06495 0.0
H1305 H 0.48378 0.11507 0.24685 0.0
C1306 C 0.50069 0.14568 0.37916 0.0
C1307 C 0.50953 0.16307 0.43993 0.0
C1308 C 0.49896 0.1474 0.27516 0.0
C1309 C 0.51722 0.18229 0.39556 0.0
C1310 C 0.51576 0.18414 0.29188 0.0
C1311 C 0.50474 0.16851 0.12727 0.0
C1312 C 0.49593 0.15114 0.06641 0.0
C1313 C 0.50647 0.16678 0.23123 0.0
C1314 C 0.48827 0.13191 0.11071 0.0
C1315 C 0.48969 0.13005 0.21443 0.0
H1316 H 0.90619 0.36799 0.14601 0.0
H1317 H 0.97085 0.39271 0.11842 0.0
H1318 H 0.97476 0.39813 0.30039 0.0
H1319 H 0.95983 0.39618 0.46636 0.0
H1320 H 0.89516 0.37139 0.49346 0.0
H1321 H 0.89129 0.36603 0.31151 0.0
C1322 C 0.92111 0.37435 0.17992 0.0
C1323 C 0.93818 0.37988 0.11923 0.0
C1324 C 0.92329 0.37774 0.28389 0.0
C1325 C 0.95746 0.38829 0.1639 0.0
C1326 C 0.95973 0.3915 0.26769 0.0
C1327 C 0.94494 0.38988 0.4322 0.0
C1328 C 0.92784 0.3843 0.4927 0.0
C1329 C 0.94277 0.38648 0.32814 0.0
C1330 C 0.90857 0.37585 0.44799 0.0
C1331 C 0.90632 0.37267 0.34425 0.0
H1332 H 0.73556 0.15278 0.20763 0.0
H1333 H 0.7144 0.19551 0.1761 0.0
H1334 H 0.70798 0.19391 0.35708 0.0
H1335 H 0.70788 0.17999 0.52352 0.0
H1336 H 0.72897 0.1372 0.55546 0.0
H1337 H 0.73548 0.13885 0.37448 0.0
C1338 C 0.72989 0.16199 0.24079 0.0
C1339 C 0.72562 0.17436 0.17916 0.0
C1340 C 0.72579 0.16065 0.34438 0.0
C1341 C 0.71789 0.18594 0.22247 0.0
C1342 C 0.71408 0.18493 0.32567 0.0
C1343 C 0.7136 0.1708 0.49057 0.0
C1344 C 0.71781 0.15841 0.55232 0.0
C1345 C 0.71772 0.17214 0.38707 0.0
C1346 C 0.72553 0.1468 0.50908 0.0
C1347 C 0.7294 0.14784 0.40585 0.0
H1348 H 0.93469 0.62074 0.17035 0.0
H1349 H 0.8993 0.55562 0.1411 0.0
H1350 H 0.90141 0.55181 0.32261 0.0
H1351 H 0.91368 0.56694 0.4888 0.0
H1352 H 0.94892 0.63206 0.51831 0.0
H1353 H 0.94686 0.63588 0.33673 0.0
C1354 C 0.92719 0.60574 0.20398 0.0
C1355 C 0.91679 0.58851 0.14293 0.0
C1356 C 0.92878 0.60364 0.30785 0.0
C1357 C 0.90738 0.56913 0.18698 0.0
C1358 C 0.90868 0.56692 0.2905 0.0
C1359 C 0.92114 0.58194 0.45521 0.0
C1360 C 0.93153 0.59916 0.51631 0.0
C1361 C 0.91954 0.58405 0.35139 0.0
C1362 C 0.94089 0.61855 0.47234 0.0
C1363 C 0.93962 0.62077 0.3688 0.0
H1364 H 0.46733 0.3539 0.16651 0.0
H1365 H 0.53215 0.38011 0.13894 0.0
H1366 H 0.53614 0.38669 0.32006 0.0
H1367 H 0.52126 0.38538 0.48573 0.0
H1368 H 0.45644 0.35901 0.51364 0.0
H1369 H 0.45244 0.35256 0.33234 0.0
C1370 C 0.48227 0.36072 0.20053 0.0
C1371 C 0.49938 0.36633 0.13991 0.0
C1372 C 0.48451 0.36486 0.30421 0.0
C1373 C 0.51872 0.37554 0.18445 0.0
C1374 C 0.52104 0.37946 0.28775 0.0
C1375 C 0.50631 0.37853 0.45178 0.0
C1376 C 0.4892 0.37283 0.51251 0.0
C1377 C 0.50407 0.37441 0.3481 0.0
C1378 C 0.46986 0.36363 0.46803 0.0
C1379 C 0.46754 0.35979 0.36464 0.0
H1380 H 0.35885 0.93382 0.46849 0.0
H1381 H 0.40936 0.92321 0.44556 0.0
H1382 H 0.40893 0.91875 0.62803 0.0
H1383 H 0.39395 0.91741 0.79243 0.0
H1384 H 0.34342 0.92799 0.81577 0.0
H1385 H 0.34389 0.93255 0.63332 0.0
C1386 C 0.36992 0.93077 0.50352 0.0
C1387 C 0.38416 0.92893 0.44405 0.0
C1388 C 0.36937 0.92789 0.60781 0.0
C1389 C 0.39827 0.92474 0.49011 0.0
C1390 C 0.39797 0.92208 0.59416 0.0
C1391 C 0.38289 0.92051 0.75762 0.0
C1392 C 0.36861 0.92227 0.81724 0.0
C1393 C 0.38345 0.92343 0.65342 0.0
C1394 C 0.35451 0.92648 0.77122 0.0
C1395 C 0.35484 0.92921 0.66715 0.0
H1396 H 0.15195 0.464 0.80375 0.0
H1397 H 0.19633 0.52752 0.83377 0.0
H1398 H 0.19517 0.53222 0.65237 0.0
H1399 H 0.18126 0.51841 0.48623 0.0
H1400 H 0.13683 0.4549 0.4555 0.0
H1401 H 0.13796 0.45015 0.63699 0.0
C1402 C 0.1616 0.47877 0.77017 0.0
C1403 C 0.17433 0.49534 0.83135 0.0
C1404 C 0.16054 0.48146 0.66637 0.0
C1405 C 0.18648 0.51452 0.78764 0.0
C1406 C 0.18573 0.51726 0.68424 0.0
C1407 C 0.17163 0.5036 0.51945 0.0
C1408 C 0.15894 0.48707 0.45799 0.0
C1409 C 0.17265 0.50089 0.62316 0.0
C1410 C 0.14671 0.46788 0.50166 0.0
C1411 C 0.14743 0.46512 0.60516 0.0
H1412 H 0.62481 0.72639 0.80972 0.0
H1413 H 0.56067 0.70453 0.83695 0.0
H1414 H 0.55639 0.69823 0.65566 0.0
H1415 H 0.57077 0.69849 0.49017 0.0
H1416 H 0.63492 0.72036 0.46259 0.0
H1417 H 0.63922 0.72666 0.64394 0.0
C1418 C 0.60997 0.72058 0.77561 0.0
C1419 C 0.59312 0.7161 0.83616 0.0
C1420 C 0.60754 0.71657 0.67186 0.0
C1421 C 0.57389 0.7082 0.7915 0.0
C1422 C 0.5714 0.70446 0.68811 0.0
C1423 C 0.58563 0.70433 0.52412 0.0
C1424 C 0.60246 0.70882 0.46345 0.0
C1425 C 0.58807 0.70834 0.62783 0.0
C1426 C 0.6217 0.7167 0.50807 0.0
C1427 C 0.6242 0.72045 0.61151 0.0
H1428 H 0.3709 0.51017 0.82076 0.0
H1429 H 0.39444 0.46931 0.84942 0.0
H1430 H 0.40061 0.47124 0.66798 0.0
H1431 H 0.3997 0.48489 0.50181 0.0
H1432 H 0.37611 0.52571 0.47369 0.0
H1433 H 0.37001 0.5238 0.6551 0.0
C1434 C 0.37711 0.50147 0.78709 0.0
C1435 C 0.38209 0.48954 0.84803 0.0
C1436 C 0.38101 0.50297 0.68337 0.0
C1437 C 0.3904 0.47856 0.80373 0.0
C1438 C 0.39407 0.47975 0.70023 0.0
C1439 C 0.39355 0.49363 0.53577 0.0
C1440 C 0.38852 0.50555 0.47502 0.0
C1441 C 0.38966 0.49211 0.63958 0.0
C1442 C 0.38019 0.51649 0.51938 0.0
C1443 C 0.37656 0.51531 0.62282 0.0
H1444 H 0.59763 0.94702 0.79341 0.0
H1445 H 0.58867 0.88647 0.81274 0.0
H1446 H 0.58465 0.8829 0.62989 0.0
H1447 H 0.58319 0.89675 0.4663 0.0
H1448 H 0.59203 0.95726 0.44674 0.0
H1449 H 0.59622 0.96091 0.62952 0.0
C1450 C 0.59499 0.9331 0.75762 0.0
C1451 C 0.5935 0.91705 0.81624 0.0
C1452 C 0.59237 0.93104 0.65313 0.0
C1453 C 0.58992 0.89906 0.76899 0.0
C1454 C 0.58752 0.89696 0.66469 0.0
C1455 C 0.58585 0.91069 0.50193 0.0
C1456 C 0.58721 0.92669 0.44325 0.0
C1457 C 0.58852 0.91279 0.60635 0.0
C1458 C 0.59083 0.9447 0.49047 0.0
C1459 C 0.59334 0.94684 0.59474 0.0
H1460 H 0.18977 0.72357 0.45497 0.0
H1461 H 0.13053 0.66983 0.43746 0.0
H1462 H 0.12762 0.66951 0.621 0.0
H1463 H 0.14176 0.68461 0.78433 0.0
H1464 H 0.20097 0.73837 0.80197 0.0
H1465 H 0.20389 0.7387 0.61836 0.0
C1466 C 0.17625 0.71169 0.49112 0.0
C1467 C 0.1604 0.6967 0.43296 0.0
C1468 C 0.1746 0.71173 0.59589 0.0
C1469 C 0.14295 0.6815 0.48083 0.0
C1470 C 0.14125 0.68135 0.5855 0.0
C1471 C 0.1553 0.69648 0.74819 0.0
C1472 C 0.17114 0.71146 0.80637 0.0
C1473 C 0.15694 0.69646 0.64343 0.0
C1474 C 0.18857 0.7267 0.75854 0.0
C1475 C 0.19027 0.72685 0.65385 0.0
loop_
_geom_bond_atom_site_label_1
_geom_bond_atom_site_label_2
_geom_bond_distance
_geom_bond_site_symmetry_2
_ccdc_geom_bond_type
C0 O16 1.251 . S
C0 O18 1.254 . S
N1 C2 1.333 . S
N1 C6 1.307 . S
N1 Zn7 2.020 . S
C2 N1 1.333 . S
C2 C3 1.379 . S
C2 H20 0.952 . S
C3 C2 1.379 . S
C3 C4 1.390 . S
C3 H30 0.949 . S
C4 C3 1.390 . S
C4 C5 1.357 . S
C5 C4 1.357 . S
C5 C6 1.370 . S
C5 H31 0.950 . S
C6 N1 1.307 . S
C6 C5 1.370 . S
C6 H24 0.948 . S
Zn7 N1 2.020 . S
Zn7 O16 2.039 . S
Zn7 O22 2.034 . S
Zn7 O26 2.025 . S
Zn7 O28 2.024 . S
C8 O27 1.246 . S
C8 O28 1.249 . S
N9 C10 1.351 . S
N9 C11 1.336 . S
N9 Zn15 1.964 1_655 S
C10 N9 1.351 . S
C10 C14 1.370 . S
C10 H21 0.948 . S
C11 N9 1.336 . S
C11 C12 1.426 . S
C11 H19 0.918 1_655 S
C12 C11 1.426 . S
C12 C13 1.390 . S
C12 H32 0.949 . S
C13 C12 1.390 . S
C13 C14 1.357 . S
C14 C10 1.370 . S
C14 C13 1.357 . S
C14 H33 0.950 . S
Zn15 N9 1.964 1_455 S
Zn15 O18 2.025 . S
Zn15 O23 2.024 . S
Zn15 O25 2.039 . S
Zn15 O27 2.034 . S
O16 C0 1.251 . S
O16 Zn7 2.039 . S
C17 O22 1.246 . S
C17 O23 1.249 . S
O18 C0 1.254 . S
O18 Zn15 2.025 . S
H19 C11 0.918 1_455 S
H20 C2 0.952 . S
H21 C10 0.948 . S
O22 Zn7 2.034 . S
O22 C17 1.246 . S
O23 Zn15 2.024 . S
O23 C17 1.249 . S
H24 C6 0.948 . S
O25 Zn15 2.039 . S
O25 C29 1.251 . S
O26 Zn7 2.025 . S
O26 C29 1.254 . S
O27 C8 1.246 . S
O27 Zn15 2.034 . S
O28 Zn7 2.024 . S
O28 C8 1.249 . S
C29 O25 1.251 . S
C29 O26 1.254 . S
H30 C3 0.949 . S
H31 C5 0.950 . S
H32 C12 0.949 . S
H33 C14 0.950 . S
C34 O50 1.251 . S
C34 O52 1.254 . S
N35 C36 1.333 . S
N35 C40 1.307 . S
N35 Zn41 2.020 . S
C36 N35 1.333 . S
C36 C37 1.379 . S
C36 H54 0.952 . S
C37 C36 1.379 . S
C37 C38 1.390 . S
C37 H64 0.949 . S
C38 C37 1.390 . S
C38 C39 1.357 . S
C39 C38 1.357 . S
C39 C40 1.370 . S
C39 H65 0.950 . S
C40 N35 1.307 . S
C40 C39 1.370 . S
C40 H58 0.948 . S
Zn41 N35 2.020 . S
Zn41 O50 2.039 . S
Zn41 O56 2.034 . S
Zn41 O60 2.025 . S
Zn41 O62 2.024 . S
C42 O61 1.246 . S
C42 O62 1.249 . S
N43 C44 1.307 . S
N43 C45 1.333 . S
N43 Zn49 2.020 . S
C44 N43 1.307 . S
C44 C48 1.370 . S
C44 H55 0.948 . S
C45 N43 1.333 . S
C45 C46 1.379 . S
C45 H53 0.952 . S
C46 C45 1.379 . S
C46 C47 1.390 . S
C46 H66 0.949 . S
C47 C46 1.390 . S
C47 C48 1.357 . S
C48 C44 1.370 . S
C48 C47 1.357 . S
C48 H67 0.950 . S
Zn49 N43 2.020 . S
Zn49 O52 2.025 . S
Zn49 O57 2.024 . S
Zn49 O59 2.039 . S
Zn49 O61 2.034 . S
O50 C34 1.251 . S
O50 Zn41 2.039 . S
C51 O56 1.246 . S
C51 O57 1.249 . S
O52 C34 1.254 . S
O52 Zn49 2.025 . S
H53 C45 0.952 . S
H54 C36 0.952 . S
H55 C44 0.948 . S
O56 Zn41 2.034 . S
O56 C51 1.246 . S
O57 Zn49 2.024 . S
O57 C51 1.249 . S
H58 C40 0.948 . S
O59 Zn49 2.039 . S
O59 C63 1.251 . S
O60 Zn41 2.025 . S
O60 C63 1.254 . S
O61 C42 1.246 . S
O61 Zn49 2.034 . S
O62 Zn41 2.024 . S
O62 C42 1.249 . S
C63 O59 1.251 . S
C63 O60 1.254 . S
H64 C37 0.949 . S
H65 C39 0.950 . S
H66 C46 0.949 . S
H67 C48 0.950 . S
C68 O84 1.251 . S
C68 O86 1.254 . S
N69 C70 1.330 . S
N69 C74 1.350 . S
N69 Zn75 2.006 1_565 S
C70 N69 1.330 . S
C70 C71 1.392 . S
C70 H88 0.924 1_565 S
C71 C70 1.392 . S
C71 C72 1.390 . S
C71 H98 0.949 . S
C72 C71 1.390 . S
C72 C73 1.357 . S
C73 C72 1.357 . S
C73 C74 1.370 . S
C73 H99 0.950 . S
C74 N69 1.350 . S
C74 C73 1.370 . S
C74 H92 0.948 . S
Zn75 N69 2.006 1_545 S
Zn75 O84 2.039 . S
Zn75 O90 2.034 . S
Zn75 O94 2.025 . S
Zn75 O96 2.024 . S
C76 O95 1.246 . S
C76 O96 1.249 . S
N77 C78 1.307 . S
N77 C79 1.333 . S
N77 Zn83 2.020 . S
C78 N77 1.307 . S
C78 C82 1.370 . S
C78 H89 0.948 . S
C79 N77 1.333 . S
C79 C80 1.379 . S
C79 H87 0.952 . S
C80 C79 1.379 . S
C80 C81 1.390 . S
C80 H100 0.949 . S
C81 C80 1.390 . S
C81 C82 1.357 . S
C82 C78 1.370 . S
C82 C81 1.357 . S
C82 H101 0.950 . S
Zn83 N77 2.020 . S
Zn83 O86 2.025 . S
Zn83 O91 2.024 . S
Zn83 O93 2.039 . S
Zn83 O95 2.034 . S
O84 C68 1.251 . S
O84 Zn75 2.039 . S
C85 O90 1.246 . S
C85 O91 1.249 . S
O86 C68 1.254 . S
O86 Zn83 2.025 . S
H87 C79 0.952 . S
H88 C70 0.924 1_545 S
H89 C78 0.948 . S
O90 Zn75 2.034 . S
O90 C85 1.246 . S
O91 Zn83 2.024 . S
O91 C85 1.249 . S
H92 C74 0.948 . S
O93 Zn83 2.039 . S
O93 C97 1.251 . S
O94 Zn75 2.025 . S
O94 C97 1.254 . S
O95 C76 1.246 . S
O95 Zn83 2.034 . S
O96 Zn75 2.024 . S
O96 C76 1.249 . S
C97 O93 1.251 . S
C97 O94 1.254 . S
H98 C71 0.949 . S
H99 C73 0.950 . S
H100 C80 0.949 . S
H101 C82 0.950 . S
C102 O118 1.251 . S
C102 O120 1.254 . S
N103 C104 1.333 . S
N103 C108 1.307 . S
N103 Zn109 2.020 . S
C104 N103 1.333 . S
C104 C105 1.379 . S
C104 H122 0.952 . S
C105 C104 1.379 . S
C105 C106 1.390 . S
C105 H132 0.949 . S
C106 C105 1.390 . S
C106 C107 1.357 . S
C107 C106 1.357 . S
C107 C108 1.370 . S
C107 H133 0.950 . S
C108 N103 1.307 . S
C108 C107 1.370 . S
C108 H126 0.948 . S
Zn109 N103 2.020 . S
Zn109 O118 2.039 . S
Zn109 O124 2.034 . S
Zn109 O128 2.025 . S
Zn109 O130 2.024 . S
C110 O129 1.246 . S
C110 O130 1.249 . S
N111 C112 1.328 . S
N111 C113 1.336 . S
N111 Zn117 1.993 1_655 S
C112 N111 1.328 . S
C112 C116 1.370 . S
C112 H123 0.948 . S
C113 N111 1.336 . S
C113 C114 1.397 . S
C113 H121 0.939 1_655 S
C114 C113 1.397 . S
C114 C115 1.390 . S
C114 H134 0.949 . S
C115 C114 1.390 . S
C115 C116 1.357 . S
C116 C112 1.370 . S
C116 C115 1.357 . S
C116 H135 0.950 . S
Zn117 N111 1.993 1_455 S
Zn117 O120 2.025 . S
Zn117 O125 2.024 . S
Zn117 O127 2.039 . S
Zn117 O129 2.034 . S
O118 C102 1.251 . S
O118 Zn109 2.039 . S
C119 O124 1.246 . S
C119 O125 1.249 . S
O120 C102 1.254 . S
O120 Zn117 2.025 . S
H121 C113 0.939 1_455 S
H122 C104 0.952 . S
H123 C112 0.948 . S
O124 Zn109 2.034 . S
O124 C119 1.246 . S
O125 Zn117 2.024 . S
O125 C119 1.249 . S
H126 C108 0.948 . S
O127 Zn117 2.039 . S
O127 C131 1.251 . S
O128 Zn109 2.025 . S
O128 C131 1.254 . S
O129 C110 1.246 . S
O129 Zn117 2.034 . S
O130 Zn109 2.024 . S
O130 C110 1.249 . S
C131 O127 1.251 . S
C131 O128 1.254 . S
H132 C105 0.949 . S
H133 C107 0.950 . S
H134 C114 0.949 . S
H135 C116 0.950 . S
C136 O152 1.251 . S
C136 O154 1.254 . S
N137 C138 1.333 . S
N137 C142 1.307 . S
N137 Zn143 2.020 . S
C138 N137 1.333 . S
C138 C139 1.379 . S
C138 H156 0.952 . S
C139 C138 1.379 . S
C139 C140 1.390 . S
C139 H166 0.949 . S
C140 C139 1.390 . S
C140 C141 1.357 . S
C141 C140 1.357 . S
C141 C142 1.370 . S
C141 H167 0.950 . S
C142 N137 1.307 . S
C142 C141 1.370 . S
C142 H160 0.948 . S
Zn143 N137 2.020 . S
Zn143 O152 2.039 . S
Zn143 O158 2.034 . S
Zn143 O162 2.025 . S
Zn143 O164 2.024 . S
C144 O163 1.246 . S
C144 O164 1.249 . S
N145 C146 1.307 . S
N145 C147 1.333 . S
N145 Zn151 2.020 . S
C146 N145 1.307 . S
C146 C150 1.370 . S
C146 H157 0.948 . S
C147 N145 1.333 . S
C147 C148 1.379 . S
C147 H155 0.952 . S
C148 C147 1.379 . S
C148 C149 1.390 . S
C148 H168 0.949 . S
C149 C148 1.390 . S
C149 C150 1.357 . S
C150 C146 1.370 . S
C150 C149 1.357 . S
C150 H169 0.950 . S
Zn151 N145 2.020 . S
Zn151 O154 2.025 . S
Zn151 O159 2.024 . S
Zn151 O161 2.039 . S
Zn151 O163 2.034 . S
O152 C136 1.251 . S
O152 Zn143 2.039 . S
C153 O158 1.246 . S
C153 O159 1.249 . S
O154 C136 1.254 . S
O154 Zn151 2.025 . S
H155 C147 0.952 . S
H156 C138 0.952 . S
H157 C146 0.948 . S
O158 Zn143 2.034 . S
O158 C153 1.246 . S
O159 Zn151 2.024 . S
O159 C153 1.249 . S
H160 C142 0.948 . S
O161 Zn151 2.039 . S
O161 C165 1.251 . S
O162 Zn143 2.025 . S
O162 C165 1.254 . S
O163 C144 1.246 . S
O163 Zn151 2.034 . S
O164 Zn143 2.024 . S
O164 C144 1.249 . S
C165 O161 1.251 . S
C165 O162 1.254 . S
H166 C139 0.949 . S
H167 C141 0.950 . S
H168 C148 0.949 . S
H169 C150 0.950 . S
C170 O186 1.251 . S
C170 O188 1.254 . S
N171 C172 1.333 . S
N171 C176 1.307 . S
N171 Zn177 2.020 1_565 S
C172 N171 1.333 . S
C172 C173 1.379 . S
C172 H190 0.952 1_565 S
C173 C172 1.379 . S
C173 C174 1.390 . S
C173 H200 0.949 . S
C174 C173 1.390 . S
C174 C175 1.357 . S
C175 C174 1.357 . S
C175 C176 1.370 . S
C175 H201 0.950 . S
C176 N171 1.307 . S
C176 C175 1.370 . S
C176 H194 0.948 . S
Zn177 N171 2.020 1_545 S
Zn177 O186 2.039 . S
Zn177 O192 2.034 . S
Zn177 O196 2.025 . S
Zn177 O198 2.024 . S
C178 O197 1.246 . S
C178 O198 1.249 . S
N179 C180 1.307 . S
N179 C181 1.333 . S
N179 Zn185 2.020 . S
C180 N179 1.307 . S
C180 C184 1.370 . S
C180 H191 0.948 . S
C181 N179 1.333 . S
C181 C182 1.379 . S
C181 H189 0.952 . S
C182 C181 1.379 . S
C182 C183 1.390 . S
C182 H202 0.949 . S
C183 C182 1.390 . S
C183 C184 1.357 . S
C184 C180 1.370 . S
C184 C183 1.357 . S
C184 H203 0.950 . S
Zn185 N179 2.020 . S
Zn185 O188 2.025 . S
Zn185 O193 2.024 . S
Zn185 O195 2.039 . S
Zn185 O197 2.034 . S
O186 C170 1.251 . S
O186 Zn177 2.039 . S
C187 O192 1.246 . S
C187 O193 1.249 . S
O188 C170 1.254 . S
O188 Zn185 2.025 . S
H189 C181 0.952 . S
H190 C172 0.952 1_545 S
H191 C180 0.948 . S
O192 Zn177 2.034 . S
O192 C187 1.246 . S
O193 Zn185 2.024 . S
O193 C187 1.249 . S
H194 C176 0.948 . S
O195 Zn185 2.039 . S
O195 C199 1.251 . S
O196 Zn177 2.025 . S
O196 C199 1.254 . S
O197 C178 1.246 . S
O197 Zn185 2.034 . S
O198 Zn177 2.024 . S
O198 C178 1.249 . S
C199 O195 1.251 . S
C199 O196 1.254 . S
H200 C173 0.949 . S
H201 C175 0.950 . S
H202 C182 0.949 . S
H203 C184 0.950 . S
C204 O220 1.251 . S
C204 O222 1.254 . S
N205 C206 1.333 . S
N205 C210 1.307 . S
N205 Zn211 2.020 . S
C206 N205 1.333 . S
C206 C207 1.379 . S
C206 H224 0.952 . S
C207 C206 1.379 . S
C207 C208 1.390 . S
C207 H234 0.949 . S
C208 C207 1.390 . S
C208 C209 1.357 . S
C209 C208 1.357 . S
C209 C210 1.370 . S
C209 H235 0.950 . S
C210 N205 1.307 . S
C210 C209 1.370 . S
C210 H228 0.948 . S
Zn211 N205 2.020 . S
Zn211 O220 2.039 . S
Zn211 O226 2.034 . S
Zn211 O230 2.025 . S
Zn211 O232 2.024 . S
C212 O231 1.246 . S
C212 O232 1.249 . S
N213 C214 1.307 . S
N213 C215 1.333 . S
N213 Zn219 2.020 . S
C214 N213 1.307 . S
C214 C218 1.370 . S
C214 H225 0.948 . S
C215 N213 1.333 . S
C215 C216 1.379 . S
C215 H223 0.952 . S
C216 C215 1.379 . S
C216 C217 1.390 . S
C216 H236 0.949 . S
C217 C216 1.390 . S
C217 C218 1.357 . S
C218 C214 1.370 . S
C218 C217 1.357 . S
C218 H237 0.950 . S
Zn219 N213 2.020 . S
Zn219 O222 2.025 . S
Zn219 O227 2.024 . S
Zn219 O229 2.039 . S
Zn219 O231 2.034 . S
O220 C204 1.251 . S
O220 Zn211 2.039 . S
C221 O226 1.246 . S
C221 O227 1.249 . S
O222 C204 1.254 . S
O222 Zn219 2.025 . S
H223 C215 0.952 . S
H224 C206 0.952 . S
H225 C214 0.948 . S
O226 Zn211 2.034 . S
O226 C221 1.246 . S
O227 Zn219 2.024 . S
O227 C221 1.249 . S
H228 C210 0.948 . S
O229 Zn219 2.039 . S
O229 C233 1.251 1_556 S
O230 Zn211 2.025 . S
O230 C233 1.254 1_556 S
O231 C212 1.246 . S
O231 Zn219 2.034 . S
O232 Zn211 2.024 . S
O232 C212 1.249 . S
C233 O229 1.251 1_554 S
C233 O230 1.254 1_554 S
H234 C207 0.949 . S
H235 C209 0.950 . S
H236 C216 0.949 . S
H237 C218 0.950 . S
C238 O254 1.251 . S
C238 O256 1.254 . S
N239 C240 1.333 . S
N239 C244 1.307 . S
N239 Zn245 2.020 . S
C240 N239 1.333 . S
C240 C241 1.379 . S
C240 H258 0.952 . S
C241 C240 1.379 . S
C241 C242 1.390 . S
C241 H268 0.949 . S
C242 C241 1.390 . S
C242 C243 1.357 . S
C243 C242 1.357 . S
C243 C244 1.370 . S
C243 H269 0.950 . S
C244 N239 1.307 . S
C244 C243 1.370 . S
C244 H262 0.948 . S
Zn245 N239 2.020 . S
Zn245 O254 2.039 . S
Zn245 O260 2.034 . S
Zn245 O264 2.025 . S
Zn245 O266 2.024 . S
C246 O265 1.246 . S
C246 O266 1.249 . S
N247 C248 1.307 . S
N247 C249 1.333 . S
N247 Zn253 2.020 . S
C248 N247 1.307 . S
C248 C252 1.370 . S
C248 H259 0.948 . S
C249 N247 1.333 . S
C249 C250 1.379 . S
C249 H257 0.952 . S
C250 C249 1.379 . S
C250 C251 1.390 . S
C250 H270 0.949 . S
C251 C250 1.390 . S
C251 C252 1.357 . S
C252 C248 1.370 . S
C252 C251 1.357 . S
C252 H271 0.950 . S
Zn253 N247 2.020 . S
Zn253 O256 2.025 . S
Zn253 O261 2.024 . S
Zn253 O263 2.039 . S
Zn253 O265 2.034 . S
O254 C238 1.251 . S
O254 Zn245 2.039 . S
C255 O260 1.246 . S
C255 O261 1.249 . S
O256 C238 1.254 . S
O256 Zn253 2.025 . S
H257 C249 0.952 . S
H258 C240 0.952 . S
H259 C248 0.948 . S
O260 Zn245 2.034 . S
O260 C255 1.246 . S
O261 Zn253 2.024 . S
O261 C255 1.249 . S
H262 C244 0.948 . S
O263 Zn253 2.039 . S
O263 C267 1.251 1_556 S
O264 Zn245 2.025 . S
O264 C267 1.254 1_556 S
O265 C246 1.246 . S
O265 Zn253 2.034 . S
O266 Zn245 2.024 . S
O266 C246 1.249 . S
C267 O263 1.251 1_554 S
C267 O264 1.254 1_554 S
H268 C241 0.949 . S
H269 C243 0.950 . S
H270 C250 0.949 . S
H271 C252 0.950 . S
C272 O288 1.251 . S
C272 O290 1.254 . S
N273 C274 1.333 . S
N273 C278 1.307 . S
N273 Zn279 2.020 . S
C274 N273 1.333 . S
C274 C275 1.379 . S
C274 H292 0.952 . S
C275 C274 1.379 . S
C275 C276 1.390 . S
C275 H302 0.949 . S
C276 C275 1.390 . S
C276 C277 1.357 . S
C277 C276 1.357 . S
C277 C278 1.370 . S
C277 H303 0.950 . S
C278 N273 1.307 . S
C278 C277 1.370 . S
C278 H296 0.948 . S
Zn279 N273 2.020 . S
Zn279 O288 2.039 . S
Zn279 O294 2.034 . S
Zn279 O298 2.025 . S
Zn279 O300 2.024 . S
C280 O299 1.246 . S
C280 O300 1.249 . S
N281 C282 1.307 . S
N281 C283 1.333 . S
N281 Zn287 2.020 . S
C282 N281 1.307 . S
C282 C286 1.370 . S
C282 H293 0.948 . S
C283 N281 1.333 . S
C283 C284 1.379 . S
C283 H291 0.952 . S
C284 C283 1.379 . S
C284 C285 1.390 1_655 S
C284 H304 0.949 1_655 S
C285 C284 1.390 1_455 S
C285 C286 1.357 1_455 S
C286 C282 1.370 . S
C286 C285 1.357 1_655 S
C286 H305 0.950 1_655 S
Zn287 N281 2.020 . S
Zn287 O290 2.025 . S
Zn287 O295 2.024 . S
Zn287 O297 2.039 . S
Zn287 O299 2.034 . S
O288 C272 1.251 . S
O288 Zn279 2.039 . S
C289 O294 1.246 . S
C289 O295 1.249 . S
O290 C272 1.254 . S
O290 Zn287 2.025 . S
H291 C283 0.952 . S
H292 C274 0.952 . S
H293 C282 0.948 . S
O294 Zn279 2.034 . S
O294 C289 1.246 . S
O295 Zn287 2.024 . S
O295 C289 1.249 . S
H296 C278 0.948 . S
O297 Zn287 2.039 . S
O297 C301 1.251 1_556 S
O298 Zn279 2.025 . S
O298 C301 1.254 1_556 S
O299 C280 1.246 . S
O299 Zn287 2.034 . S
O300 Zn279 2.024 . S
O300 C280 1.249 . S
C301 O297 1.251 1_554 S
C301 O298 1.254 1_554 S
H302 C275 0.949 . S
H303 C277 0.950 . S
H304 C284 0.949 1_455 S
H305 C286 0.950 1_455 S
C306 O322 1.251 . S
C306 O324 1.254 . S
N307 C308 1.333 . S
N307 C312 1.307 . S
N307 Zn313 2.020 . S
C308 N307 1.333 . S
C308 C309 1.379 . S
C308 H326 0.952 . S
C309 C308 1.379 . S
C309 C310 1.390 . S
C309 H336 0.949 . S
C310 C309 1.390 . S
C310 C311 1.357 . S
C311 C310 1.357 . S
C311 C312 1.370 . S
C311 H337 0.950 . S
C312 N307 1.307 . S
C312 C311 1.370 . S
C312 H330 0.948 . S
Zn313 N307 2.020 . S
Zn313 O322 2.039 . S
Zn313 O328 2.034 . S
Zn313 O332 2.025 1_556 S
Zn313 O334 2.024 . S
C314 O333 1.246 . S
C314 O334 1.249 . S
N315 C316 1.307 . S
N315 C317 1.333 . S
N315 Zn321 2.020 . S
C316 N315 1.307 . S
C316 C320 1.370 . S
C316 H327 0.948 . S
C317 N315 1.333 . S
C317 C318 1.379 . S
C317 H325 0.952 1_556 S
C318 C317 1.379 . S
C318 C319 1.390 . S
C318 H338 0.949 1_556 S
C319 C318 1.390 . S
C319 C320 1.357 . S
C320 C316 1.370 . S
C320 C319 1.357 . S
C320 H339 0.950 . S
Zn321 N315 2.020 . S
Zn321 O324 2.025 . S
Zn321 O329 2.024 . S
Zn321 O331 2.039 1_556 S
Zn321 O333 2.034 . S
O322 C306 1.251 . S
O322 Zn313 2.039 . S
C323 O328 1.246 . S
C323 O329 1.249 . S
O324 C306 1.254 . S
O324 Zn321 2.025 . S
H325 C317 0.952 1_554 S
H326 C308 0.952 . S
H327 C316 0.948 . S
O328 Zn313 2.034 . S
O328 C323 1.246 . S
O329 Zn321 2.024 . S
O329 C323 1.249 . S
H330 C312 0.948 . S
O331 Zn321 2.039 1_554 S
O331 C335 1.251 . S
O332 Zn313 2.025 1_554 S
O332 C335 1.254 . S
O333 C314 1.246 . S
O333 Zn321 2.034 . S
O334 Zn313 2.024 . S
O334 C314 1.249 . S
C335 O331 1.251 . S
C335 O332 1.254 . S
H336 C309 0.949 . S
H337 C311 0.950 . S
H338 C318 0.949 1_554 S
H339 C320 0.950 . S
C340 O356 1.251 . S
C340 O358 1.254 . S
N341 C342 1.333 . S
N341 C346 1.307 . S
N341 Zn347 2.020 . S
C342 N341 1.333 . S
C342 C343 1.379 . S
C342 H360 0.952 . S
C343 C342 1.379 . S
C343 C344 1.390 . S
C343 H370 0.949 . S
C344 C343 1.390 . S
C344 C345 1.357 . S
C345 C344 1.357 . S
C345 C346 1.370 . S
C345 H371 0.950 . S
C346 N341 1.307 . S
C346 C345 1.370 . S
C346 H364 0.948 . S
Zn347 N341 2.020 . S
Zn347 O356 2.039 . S
Zn347 O362 2.034 . S
Zn347 O366 2.025 1_556 S
Zn347 O368 2.024 . S
C348 O367 1.246 . S
C348 O368 1.249 . S
N349 C350 1.307 . S
N349 C351 1.333 . S
N349 Zn355 2.020 . S
C350 N349 1.307 . S
C350 C354 1.370 . S
C350 H361 0.948 . S
C351 N349 1.333 . S
C351 C352 1.379 . S
C351 H359 0.952 1_556 S
C352 C351 1.379 . S
C352 C353 1.390 . S
C352 H372 0.949 1_556 S
C353 C352 1.390 . S
C353 C354 1.357 . S
C354 C350 1.370 . S
C354 C353 1.357 . S
C354 H373 0.950 . S
Zn355 N349 2.020 . S
Zn355 O358 2.025 . S
Zn355 O363 2.024 . S
Zn355 O365 2.039 1_556 S
Zn355 O367 2.034 . S
O356 C340 1.251 . S
O356 Zn347 2.039 . S
C357 O362 1.246 . S
C357 O363 1.249 . S
O358 C340 1.254 . S
O358 Zn355 2.025 . S
H359 C351 0.952 1_554 S
H360 C342 0.952 . S
H361 C350 0.948 . S
O362 Zn347 2.034 . S
O362 C357 1.246 . S
O363 Zn355 2.024 . S
O363 C357 1.249 . S
H364 C346 0.948 . S
O365 Zn355 2.039 1_554 S
O365 C369 1.251 . S
O366 Zn347 2.025 1_554 S
O366 C369 1.254 . S
O367 C348 1.246 . S
O367 Zn355 2.034 . S
O368 Zn347 2.024 . S
O368 C348 1.249 . S
C369 O365 1.251 . S
C369 O366 1.254 . S
H370 C343 0.949 . S
H371 C345 0.950 . S
H372 C352 0.949 1_554 S
H373 C354 0.950 . S
C374 O390 1.251 . S
C374 O392 1.254 . S
N375 C376 1.333 . S
N375 C380 1.307 . S
N375 Zn381 2.020 . S
C376 N375 1.333 . S
C376 C377 1.379 . S
C376 H394 0.952 . S
C377 C376 1.379 . S
C377 C378 1.390 . S
C377 H404 0.949 . S
C378 C377 1.390 . S
C378 C379 1.357 . S
C379 C378 1.357 . S
C379 C380 1.370 . S
C379 H405 0.950 . S
C380 N375 1.307 . S
C380 C379 1.370 . S
C380 H398 0.948 . S
Zn381 N375 2.020 . S
Zn381 O390 2.039 . S
Zn381 O396 2.034 . S
Zn381 O400 2.025 1_556 S
Zn381 O402 2.024 . S
C382 O401 1.246 . S
C382 O402 1.249 . S
N383 C384 1.307 . S
N383 C385 1.333 . S
N383 Zn389 2.020 . S
C384 N383 1.307 . S
C384 C388 1.370 . S
C384 H395 0.948 . S
C385 N383 1.333 . S
C385 C386 1.379 . S
C385 H393 0.952 1_556 S
C386 C385 1.379 . S
C386 C387 1.390 . S
C386 H406 0.949 1_556 S
C387 C386 1.390 . S
C387 C388 1.357 . S
C388 C384 1.370 . S
C388 C387 1.357 . S
C388 H407 0.950 . S
Zn389 N383 2.020 . S
Zn389 O392 2.025 . S
Zn389 O397 2.024 . S
Zn389 O399 2.039 1_556 S
Zn389 O401 2.034 . S
O390 C374 1.251 . S
O390 Zn381 2.039 . S
C391 O396 1.246 . S
C391 O397 1.249 . S
O392 C374 1.254 . S
O392 Zn389 2.025 . S
H393 C385 0.952 1_554 S
H394 C376 0.952 . S
H395 C384 0.948 . S
O396 Zn381 2.034 . S
O396 C391 1.246 . S
O397 Zn389 2.024 . S
O397 C391 1.249 . S
H398 C380 0.948 . S
O399 Zn389 2.039 1_554 S
O399 C403 1.251 . S
O400 Zn381 2.025 1_554 S
O400 C403 1.254 . S
O401 C382 1.246 . S
O401 Zn389 2.034 . S
O402 Zn381 2.024 . S
O402 C382 1.249 . S
C403 O399 1.251 . S
C403 O400 1.254 . S
H404 C377 0.949 . S
H405 C379 0.950 . S
H406 C386 0.949 1_554 S
H407 C388 0.950 . S
C408 O424 1.251 . S
C408 O426 1.254 . S
N409 C410 1.333 . S
N409 C414 1.307 . S
N409 Zn415 2.020 . S
C410 N409 1.333 . S
C410 C411 1.379 . S
C410 H428 0.952 1_554 S
C411 C410 1.379 . S
C411 C412 1.390 . S
C411 H438 0.949 1_554 S
C412 C411 1.390 . S
C412 C413 1.357 . S
C413 C412 1.357 . S
C413 C414 1.370 . S
C413 H439 0.950 . S
C414 N409 1.307 . S
C414 C413 1.370 . S
C414 H432 0.948 . S
Zn415 N409 2.020 . S
Zn415 O424 2.039 1_554 S
Zn415 O430 2.034 . S
Zn415 O434 2.025 . S
Zn415 O436 2.024 . S
C416 O435 1.246 . S
C416 O436 1.249 . S
N417 C418 1.307 . S
N417 C419 1.333 . S
N417 Zn423 2.020 . S
C418 N417 1.307 . S
C418 C422 1.370 . S
C418 H429 0.948 . S
C419 N417 1.333 . S
C419 C420 1.379 . S
C419 H427 0.952 . S
C420 C419 1.379 . S
C420 C421 1.390 . S
C420 H440 0.949 . S
C421 C420 1.390 . S
C421 C422 1.357 . S
C422 C418 1.370 . S
C422 C421 1.357 . S
C422 H441 0.950 . S
Zn423 N417 2.020 . S
Zn423 O426 2.025 1_554 S
Zn423 O431 2.024 . S
Zn423 O433 2.039 . S
Zn423 O435 2.034 . S
O424 C408 1.251 . S
O424 Zn415 2.039 1_556 S
C425 O430 1.246 . S
C425 O431 1.249 . S
O426 C408 1.254 . S
O426 Zn423 2.025 1_556 S
H427 C419 0.952 . S
H428 C410 0.952 1_556 S
H429 C418 0.948 . S
O430 Zn415 2.034 . S
O430 C425 1.246 . S
O431 Zn423 2.024 . S
O431 C425 1.249 . S
H432 C414 0.948 . S
O433 Zn423 2.039 . S
O433 C437 1.251 . S
O434 Zn415 2.025 . S
O434 C437 1.254 . S
O435 C416 1.246 . S
O435 Zn423 2.034 . S
O436 Zn415 2.024 . S
O436 C416 1.249 . S
C437 O433 1.251 . S
C437 O434 1.254 . S
H438 C411 0.949 1_556 S
H439 C413 0.950 . S
H440 C420 0.949 . S
H441 C422 0.950 . S
C442 O458 1.251 . S
C442 O460 1.254 . S
N443 C444 1.333 . S
N443 C448 1.307 . S
N443 Zn449 2.020 . S
C444 N443 1.333 . S
C444 C445 1.379 . S
C444 H462 0.952 1_554 S
C445 C444 1.379 . S
C445 C446 1.390 . S
C445 H472 0.949 1_554 S
C446 C445 1.390 . S
C446 C447 1.357 . S
C447 C446 1.357 . S
C447 C448 1.370 . S
C447 H473 0.950 . S
C448 N443 1.307 . S
C448 C447 1.370 . S
C448 H466 0.948 . S
Zn449 N443 2.020 . S
Zn449 O458 2.039 1_554 S
Zn449 O464 2.034 . S
Zn449 O468 2.025 . S
Zn449 O470 2.024 . S
C450 O469 1.246 . S
C450 O470 1.249 . S
N451 C452 1.307 . S
N451 C453 1.333 . S
N451 Zn457 2.020 . S
C452 N451 1.307 . S
C452 C456 1.370 . S
C452 H463 0.948 . S
C453 N451 1.333 . S
C453 C454 1.379 . S
C453 H461 0.952 . S
C454 C453 1.379 . S
C454 C455 1.390 . S
C454 H474 0.949 . S
C455 C454 1.390 . S
C455 C456 1.357 . S
C456 C452 1.370 . S
C456 C455 1.357 . S
C456 H475 0.950 . S
Zn457 N451 2.020 . S
Zn457 O460 2.025 1_554 S
Zn457 O465 2.024 . S
Zn457 O467 2.039 . S
Zn457 O469 2.034 . S
O458 C442 1.251 . S
O458 Zn449 2.039 1_556 S
C459 O464 1.246 . S
C459 O465 1.249 . S
O460 C442 1.254 . S
O460 Zn457 2.025 1_556 S
H461 C453 0.952 . S
H462 C444 0.952 1_556 S
H463 C452 0.948 . S
O464 Zn449 2.034 . S
O464 C459 1.246 . S
O465 Zn457 2.024 . S
O465 C459 1.249 . S
H466 C448 0.948 . S
O467 Zn457 2.039 . S
O467 C471 1.251 . S
O468 Zn449 2.025 . S
O468 C471 1.254 . S
O469 C450 1.246 . S
O469 Zn457 2.034 . S
O470 Zn449 2.024 . S
O470 C450 1.249 . S
C471 O467 1.251 . S
C471 O468 1.254 . S
H472 C445 0.949 1_556 S
H473 C447 0.950 . S
H474 C454 0.949 . S
H475 C456 0.950 . S
C476 O492 1.251 . S
C476 O494 1.254 . S
N477 C478 1.333 . S
N477 C482 1.307 . S
N477 Zn483 2.020 . S
C478 N477 1.333 . S
C478 C479 1.379 . S
C478 H496 0.952 1_554 S
C479 C478 1.379 . S
C479 C480 1.390 . S
C479 H506 0.949 1_554 S
C480 C479 1.390 . S
C480 C481 1.357 . S
C481 C480 1.357 . S
C481 C482 1.370 . S
C481 H507 0.950 . S
C482 N477 1.307 . S
C482 C481 1.370 . S
C482 H500 0.948 . S
Zn483 N477 2.020 . S
Zn483 O492 2.039 1_554 S
Zn483 O498 2.034 . S
Zn483 O502 2.025 . S
Zn483 O504 2.024 . S
C484 O503 1.246 . S
C484 O504 1.249 . S
N485 C486 1.307 . S
N485 C487 1.333 . S
N485 Zn491 2.020 . S
C486 N485 1.307 . S
C486 C490 1.370 . S
C486 H497 0.948 . S
C487 N485 1.333 . S
C487 C488 1.379 . S
C487 H495 0.952 . S
C488 C487 1.379 . S
C488 C489 1.390 . S
C488 H508 0.949 . S
C489 C488 1.390 . S
C489 C490 1.357 . S
C490 C486 1.370 . S
C490 C489 1.357 . S
C490 H509 0.950 . S
Zn491 N485 2.020 . S
Zn491 O494 2.025 1_554 S
Zn491 O499 2.024 . S
Zn491 O501 2.039 . S
Zn491 O503 2.034 . S
O492 C476 1.251 . S
O492 Zn483 2.039 1_556 S
C493 O498 1.246 . S
C493 O499 1.249 . S
O494 C476 1.254 . S
O494 Zn491 2.025 1_556 S
H495 C487 0.952 . S
H496 C478 0.952 1_556 S
H497 C486 0.948 . S
O498 Zn483 2.034 . S
O498 C493 1.246 . S
O499 Zn491 2.024 . S
O499 C493 1.249 . S
H500 C482 0.948 . S
O501 Zn491 2.039 . S
O501 C505 1.251 . S
O502 Zn483 2.025 . S
O502 C505 1.254 . S
O503 C484 1.246 . S
O503 Zn491 2.034 . S
O504 Zn483 2.024 . S
O504 C484 1.249 . S
C505 O501 1.251 . S
C505 O502 1.254 . S
H506 C479 0.949 1_556 S
H507 C481 0.950 . S
H508 C488 0.949 . S
H509 C490 0.950 . S
C510 O526 1.251 1_556 S
C510 O528 1.254 1_556 S
N511 C512 1.333 . S
N511 C516 1.307 . S
N511 Zn517 2.020 . S
C512 N511 1.333 . S
C512 C513 1.379 . S
C512 H530 0.952 . S
C513 C512 1.379 . S
C513 C514 1.390 . S
C513 H540 0.949 . S
C514 C513 1.390 . S
C514 C515 1.357 . S
C515 C514 1.357 . S
C515 C516 1.370 . S
C515 H541 0.950 . S
C516 N511 1.307 . S
C516 C515 1.370 . S
C516 H534 0.948 . S
Zn517 N511 2.020 . S
Zn517 O526 2.039 . S
Zn517 O532 2.034 . S
Zn517 O536 2.025 . S
Zn517 O538 2.024 . S
C518 O537 1.246 . S
C518 O538 1.249 . S
N519 C520 1.307 . S
N519 C521 1.333 . S
N519 Zn525 2.020 . S
C520 N519 1.307 . S
C520 C524 1.370 . S
C520 H531 0.948 . S
C521 N519 1.333 . S
C521 C522 1.379 . S
C521 H529 0.952 . S
C522 C521 1.379 . S
C522 C523 1.390 . S
C522 H542 0.949 . S
C523 C522 1.390 . S
C523 C524 1.357 . S
C524 C520 1.370 . S
C524 C523 1.357 . S
C524 H543 0.950 . S
Zn525 N519 2.020 . S
Zn525 O528 2.025 . S
Zn525 O533 2.024 . S
Zn525 O535 2.039 . S
Zn525 O537 2.034 . S
O526 C510 1.251 1_554 S
O526 Zn517 2.039 . S
C527 O532 1.246 . S
C527 O533 1.249 . S
O528 C510 1.254 1_554 S
O528 Zn525 2.025 . S
H529 C521 0.952 . S
H530 C512 0.952 . S
H531 C520 0.948 . S
O532 Zn517 2.034 . S
O532 C527 1.246 . S
O533 Zn525 2.024 . S
O533 C527 1.249 . S
H534 C516 0.948 . S
O535 Zn525 2.039 . S
O535 C539 1.251 . S
O536 Zn517 2.025 . S
O536 C539 1.254 . S
O537 C518 1.246 . S
O537 Zn525 2.034 . S
O538 Zn517 2.024 . S
O538 C518 1.249 . S
C539 O535 1.251 . S
C539 O536 1.254 . S
H540 C513 0.949 . S
H541 C515 0.950 . S
H542 C522 0.949 . S
H543 C524 0.950 . S
C544 O560 1.251 1_556 S
C544 O562 1.254 1_556 S
N545 C546 1.333 . S
N545 C550 1.307 . S
N545 Zn551 2.020 . S
C546 N545 1.333 . S
C546 C547 1.379 . S
C546 H564 0.952 . S
C547 C546 1.379 . S
C547 C548 1.390 1_565 S
C547 H574 0.949 1_565 S
C548 C547 1.390 1_545 S
C548 C549 1.357 1_545 S
C549 C548 1.357 1_565 S
C549 C550 1.370 . S
C549 H575 0.929 1_565 S
C550 N545 1.307 . S
C550 C549 1.370 . S
C550 H568 0.948 . S
Zn551 N545 2.020 . S
Zn551 O560 2.039 . S
Zn551 O566 2.034 . S
Zn551 O570 2.025 . S
Zn551 O572 2.024 . S
C552 O571 1.246 . S
C552 O572 1.249 . S
N553 C554 1.307 . S
N553 C555 1.333 . S
N553 Zn559 2.020 . S
C554 N553 1.307 . S
C554 C558 1.370 . S
C554 H565 0.948 . S
C555 N553 1.333 . S
C555 C556 1.379 . S
C555 H563 0.952 . S
C556 C555 1.379 . S
C556 C557 1.390 . S
C556 H576 0.949 . S
C557 C556 1.390 . S
C557 C558 1.357 . S
C558 C554 1.370 . S
C558 C557 1.357 . S
C558 H577 0.950 . S
Zn559 N553 2.020 . S
Zn559 O562 2.025 . S
Zn559 O567 2.024 . S
Zn559 O569 2.039 . S
Zn559 O571 2.034 . S
O560 C544 1.251 1_554 S
O560 Zn551 2.039 . S
C561 O566 1.246 . S
C561 O567 1.249 . S
O562 C544 1.254 1_554 S
O562 Zn559 2.025 . S
H563 C555 0.952 . S
H564 C546 0.952 . S
H565 C554 0.948 . S
O566 Zn551 2.034 . S
O566 C561 1.246 . S
O567 Zn559 2.024 . S
O567 C561 1.249 . S
H568 C550 0.948 . S
O569 Zn559 2.039 . S
O569 C573 1.251 . S
O570 Zn551 2.025 . S
O570 C573 1.254 . S
O571 C552 1.246 . S
O571 Zn559 2.034 . S
O572 Zn551 2.024 . S
O572 C552 1.249 . S
C573 O569 1.251 . S
C573 O570 1.254 . S
H574 C547 0.949 1_545 S
H575 C549 0.929 1_545 S
H576 C556 0.949 . S
H577 C558 0.950 . S
C578 O594 1.251 1_556 S
C578 O596 1.254 1_556 S
N579 C580 1.333 . S
N579 C584 1.307 . S
N579 Zn585 2.020 . S
C580 N579 1.333 . S
C580 C581 1.379 . S
C580 H598 0.952 . S
C581 C580 1.379 . S
C581 C582 1.390 . S
C581 H608 0.949 . S
C582 C581 1.390 . S
C582 C583 1.357 . S
C583 C582 1.357 . S
C583 C584 1.370 . S
C583 H609 0.950 . S
C584 N579 1.307 . S
C584 C583 1.370 . S
C584 H602 0.948 . S
Zn585 N579 2.020 . S
Zn585 O594 2.039 . S
Zn585 O600 2.034 . S
Zn585 O604 2.025 . S
Zn585 O606 2.024 . S
C586 O605 1.246 . S
C586 O606 1.249 . S
N587 C588 1.307 . S
N587 C589 1.333 . S
N587 Zn593 2.020 . S
C588 N587 1.307 . S
C588 C592 1.370 . S
C588 H599 0.948 . S
C589 N587 1.333 . S
C589 C590 1.379 . S
C589 H597 0.952 . S
C590 C589 1.379 . S
C590 C591 1.390 . S
C590 H610 0.949 . S
C591 C590 1.390 . S
C591 C592 1.357 . S
C592 C588 1.370 . S
C592 C591 1.357 . S
C592 H611 0.950 . S
Zn593 N587 2.020 . S
Zn593 O596 2.025 . S
Zn593 O601 2.024 . S
Zn593 O603 2.039 . S
Zn593 O605 2.034 . S
O594 C578 1.251 1_554 S
O594 Zn585 2.039 . S
C595 O600 1.246 . S
C595 O601 1.249 . S
O596 C578 1.254 1_554 S
O596 Zn593 2.025 . S
H597 C589 0.952 . S
H598 C580 0.952 . S
H599 C588 0.948 . S
O600 Zn585 2.034 . S
O600 C595 1.246 . S
O601 Zn593 2.024 . S
O601 C595 1.249 . S
H602 C584 0.948 . S
O603 Zn593 2.039 . S
O603 C607 1.251 . S
O604 Zn585 2.025 . S
O604 C607 1.254 . S
O605 C586 1.246 . S
O605 Zn593 2.034 . S
O606 Zn585 2.024 . S
O606 C586 1.249 . S
C607 O603 1.251 . S
C607 O604 1.254 . S
H608 C581 0.949 . S
H609 C583 0.950 . S
H610 C590 0.949 . S
H611 C592 0.950 . S
H612 C618 0.930 . S
H613 C621 0.930 . S
H614 C622 0.930 . S
H615 C623 0.930 . S
H616 C626 0.930 . S
H617 C627 0.930 . S
C618 H612 0.930 . S
C618 C619 1.355 . S
C618 C620 1.415 . S
C619 C618 1.355 . S
C619 C621 1.419 . S
C620 C618 1.415 . S
C620 C625 1.425 . S
C620 C627 1.409 . S
C621 H613 0.930 . S
C621 C619 1.419 . S
C621 C622 1.362 . S
C622 H614 0.930 . S
C622 C621 1.362 . S
C622 C625 1.409 . S
C623 H615 0.930 . S
C623 C624 1.355 . S
C623 C625 1.415 . S
C624 C623 1.355 . S
C624 C626 1.419 . S
C625 C620 1.425 . S
C625 C622 1.409 . S
C625 C623 1.415 . S
C626 H616 0.930 . S
C626 C624 1.419 . S
C626 C627 1.362 . S
C627 H617 0.930 . S
C627 C620 1.409 . S
C627 C626 1.362 . S
H628 C634 0.930 . S
H629 C637 0.930 . S
H630 C638 0.930 . S
H631 C639 0.930 . S
H632 C642 0.930 . S
H633 C643 0.930 . S
C634 H628 0.930 . S
C634 C635 1.355 . S
C634 C636 1.415 . S
C635 C634 1.355 . S
C635 C637 1.419 . S
C636 C634 1.415 . S
C636 C641 1.425 . S
C636 C643 1.409 . S
C637 H629 0.930 . S
C637 C635 1.419 . S
C637 C638 1.362 . S
C638 H630 0.930 . S
C638 C637 1.362 . S
C638 C641 1.409 . S
C639 H631 0.930 . S
C639 C640 1.355 . S
C639 C641 1.415 . S
C640 C639 1.355 . S
C640 C642 1.419 . S
C641 C636 1.425 . S
C641 C638 1.409 . S
C641 C639 1.415 . S
C642 H632 0.930 . S
C642 C640 1.419 . S
C642 C643 1.362 . S
C643 H633 0.930 . S
C643 C636 1.409 . S
C643 C642 1.362 . S
H644 C650 0.930 1_545 S
H645 C653 0.930 . S
H646 C654 0.930 . S
H647 C655 0.930 . S
H648 C658 0.930 . S
H649 C659 0.930 . S
C650 H644 0.930 1_565 S
C650 C651 1.355 . S
C650 C652 1.415 . S
C651 C650 1.355 . S
C651 C653 1.419 . S
C652 C650 1.415 . S
C652 C657 1.425 . S
C652 C659 1.409 . S
C653 H645 0.930 . S
C653 C651 1.419 . S
C653 C654 1.362 . S
C654 H646 0.930 . S
C654 C653 1.362 . S
C654 C657 1.409 . S
C655 H647 0.930 . S
C655 C656 1.355 . S
C655 C657 1.415 . S
C656 C655 1.355 . S
C656 C658 1.419 . S
C657 C652 1.425 . S
C657 C654 1.409 . S
C657 C655 1.415 . S
C658 H648 0.930 . S
C658 C656 1.419 . S
C658 C659 1.362 . S
C659 H649 0.930 . S
C659 C652 1.409 . S
C659 C658 1.362 . S
H660 C666 0.930 . S
H661 C669 0.930 . S
H662 C670 0.930 . S
H663 C671 0.930 . S
H664 C674 0.930 . S
H665 C675 0.930 . S
C666 H660 0.930 . S
C666 C667 1.355 . S
C666 C668 1.415 . S
C667 C666 1.355 . S
C667 C669 1.419 . S
C668 C666 1.415 . S
C668 C673 1.425 . S
C668 C675 1.409 . S
C669 H661 0.930 . S
C669 C667 1.419 . S
C669 C670 1.362 . S
C670 H662 0.930 . S
C670 C669 1.362 . S
C670 C673 1.409 . S
C671 H663 0.930 . S
C671 C672 1.355 . S
C671 C673 1.415 . S
C672 C671 1.355 . S
C672 C674 1.419 . S
C673 C668 1.425 . S
C673 C670 1.409 . S
C673 C671 1.415 . S
C674 H664 0.930 . S
C674 C672 1.419 . S
C674 C675 1.362 . S
C675 H665 0.930 . S
C675 C668 1.409 . S
C675 C674 1.362 . S
H676 C682 0.930 . S
H677 C685 0.930 . S
H678 C686 0.930 . S
H679 C687 0.930 . S
H680 C690 0.930 . S
H681 C691 0.930 . S
C682 H676 0.930 . S
C682 C683 1.355 . S
C682 C684 1.415 . S
C683 C682 1.355 . S
C683 C685 1.419 . S
C684 C682 1.415 . S
C684 C689 1.425 . S
C684 C691 1.409 . S
C685 H677 0.930 . S
C685 C683 1.419 . S
C685 C686 1.362 . S
C686 H678 0.930 . S
C686 C685 1.362 . S
C686 C689 1.409 . S
C687 H679 0.930 . S
C687 C688 1.355 . S
C687 C689 1.415 . S
C688 C687 1.355 . S
C688 C690 1.419 . S
C689 C684 1.425 . S
C689 C686 1.409 . S
C689 C687 1.415 . S
C690 H680 0.930 . S
C690 C688 1.419 . S
C690 C691 1.362 . S
C691 H681 0.930 . S
C691 C684 1.409 . S
C691 C690 1.362 . S
H692 C698 0.930 . S
H693 C701 0.930 . S
H694 C702 0.930 . S
H695 C703 0.930 . S
H696 C706 0.930 . S
H697 C707 0.930 . S
C698 H692 0.930 . S
C698 C699 1.355 . S
C698 C700 1.415 . S
C699 C698 1.355 . S
C699 C701 1.419 . S
C700 C698 1.415 . S
C700 C705 1.425 . S
C700 C707 1.409 . S
C701 H693 0.930 . S
C701 C699 1.419 . S
C701 C702 1.362 . S
C702 H694 0.930 . S
C702 C701 1.362 . S
C702 C705 1.409 . S
C703 H695 0.930 . S
C703 C704 1.355 . S
C703 C705 1.415 . S
C704 C703 1.355 . S
C704 C706 1.419 . S
C705 C700 1.425 . S
C705 C702 1.409 . S
C705 C703 1.415 . S
C706 H696 0.930 . S
C706 C704 1.419 . S
C706 C707 1.362 . S
C707 H697 0.930 . S
C707 C700 1.409 . S
C707 C706 1.362 . S
H708 C714 0.930 . S
H709 C717 0.930 . S
H710 C718 0.930 . S
H711 C719 0.930 . S
H712 C722 0.930 . S
H713 C723 0.930 . S
C714 H708 0.930 . S
C714 C715 1.355 . S
C714 C716 1.415 . S
C715 C714 1.355 . S
C715 C717 1.419 . S
C716 C714 1.415 . S
C716 C721 1.425 . S
C716 C723 1.409 . S
C717 H709 0.930 . S
C717 C715 1.419 . S
C717 C718 1.362 . S
C718 H710 0.930 . S
C718 C717 1.362 . S
C718 C721 1.409 . S
C719 H711 0.930 . S
C719 C720 1.355 . S
C719 C721 1.415 . S
C720 C719 1.355 . S
C720 C722 1.419 . S
C721 C716 1.425 . S
C721 C718 1.409 . S
C721 C719 1.415 . S
C722 H712 0.930 . S
C722 C720 1.419 . S
C722 C723 1.362 . S
C723 H713 0.930 . S
C723 C716 1.409 . S
C723 C722 1.362 . S
H724 C730 0.930 . S
H725 C733 0.930 . S
H726 C734 0.930 . S
H727 C735 0.930 . S
H728 C738 0.930 . S
H729 C739 0.930 . S
C730 H724 0.930 . S
C730 C731 1.355 . S
C730 C732 1.415 . S
C731 C730 1.355 . S
C731 C733 1.419 . S
C732 C730 1.415 . S
C732 C737 1.425 . S
C732 C739 1.409 . S
C733 H725 0.930 . S
C733 C731 1.419 . S
C733 C734 1.362 . S
C734 H726 0.930 . S
C734 C733 1.362 . S
C734 C737 1.409 . S
C735 H727 0.930 . S
C735 C736 1.355 . S
C735 C737 1.415 . S
C736 C735 1.355 . S
C736 C738 1.419 . S
C737 C732 1.425 . S
C737 C734 1.409 . S
C737 C735 1.415 . S
C738 H728 0.930 . S
C738 C736 1.419 . S
C738 C739 1.362 . S
C739 H729 0.930 . S
C739 C732 1.409 . S
C739 C738 1.362 . S
H740 C746 0.930 . S
H741 C749 0.930 . S
H742 C750 0.930 . S
H743 C751 0.930 . S
H744 C754 0.930 . S
H745 C755 0.930 . S
C746 H740 0.930 . S
C746 C747 1.355 . S
C746 C748 1.415 . S
C747 C746 1.355 . S
C747 C749 1.419 . S
C748 C746 1.415 . S
C748 C753 1.425 . S
C748 C755 1.409 . S
C749 H741 0.930 . S
C749 C747 1.419 . S
C749 C750 1.362 . S
C750 H742 0.930 . S
C750 C749 1.362 . S
C750 C753 1.409 . S
C751 H743 0.930 . S
C751 C752 1.355 . S
C751 C753 1.415 . S
C752 C751 1.355 . S
C752 C754 1.419 . S
C753 C748 1.425 . S
C753 C750 1.409 . S
C753 C751 1.415 . S
C754 H744 0.930 . S
C754 C752 1.419 . S
C754 C755 1.362 . S
C755 H745 0.930 . S
C755 C748 1.409 . S
C755 C754 1.362 . S
H756 C762 0.930 . S
H757 C765 0.930 . S
H758 C766 0.930 . S
H759 C767 0.930 . S
H760 C770 0.930 . S
H761 C771 0.930 . S
C762 H756 0.930 . S
C762 C763 1.355 . S
C762 C764 1.415 . S
C763 C762 1.355 . S
C763 C765 1.419 . S
C764 C762 1.415 . S
C764 C769 1.425 . S
C764 C771 1.409 . S
C765 H757 0.930 . S
C765 C763 1.419 . S
C765 C766 1.362 . S
C766 H758 0.930 . S
C766 C765 1.362 . S
C766 C769 1.409 . S
C767 H759 0.930 . S
C767 C768 1.355 . S
C767 C769 1.415 . S
C768 C767 1.355 . S
C768 C770 1.419 . S
C769 C764 1.425 . S
C769 C766 1.409 . S
C769 C767 1.415 . S
C770 H760 0.930 . S
C770 C768 1.419 . S
C770 C771 1.362 . S
C771 H761 0.930 . S
C771 C764 1.409 . S
C771 C770 1.362 . S
H772 C778 0.930 . S
H773 C781 0.930 . S
H774 C782 0.930 . S
H775 C783 0.930 . S
H776 C786 0.930 . S
H777 C787 0.930 . S
C778 H772 0.930 . S
C778 C779 1.355 . S
C778 C780 1.415 . S
C779 C778 1.355 . S
C779 C781 1.419 . S
C780 C778 1.415 . S
C780 C785 1.425 . S
C780 C787 1.409 . S
C781 H773 0.930 . S
C781 C779 1.419 . S
C781 C782 1.362 . S
C782 H774 0.930 . S
C782 C781 1.362 . S
C782 C785 1.409 . S
C783 H775 0.930 . S
C783 C784 1.355 . S
C783 C785 1.415 . S
C784 C783 1.355 . S
C784 C786 1.419 . S
C785 C780 1.425 . S
C785 C782 1.409 . S
C785 C783 1.415 . S
C786 H776 0.930 . S
C786 C784 1.419 . S
C786 C787 1.362 . S
C787 H777 0.930 . S
C787 C780 1.409 . S
C787 C786 1.362 . S
H788 C794 0.930 . S
H789 C797 0.930 . S
H790 C798 0.930 . S
H791 C799 0.930 . S
H792 C802 0.930 . S
H793 C803 0.930 . S
C794 H788 0.930 . S
C794 C795 1.355 . S
C794 C796 1.415 . S
C795 C794 1.355 . S
C795 C797 1.419 . S
C796 C794 1.415 . S
C796 C801 1.425 . S
C796 C803 1.409 . S
C797 H789 0.930 . S
C797 C795 1.419 . S
C797 C798 1.362 . S
C798 H790 0.930 . S
C798 C797 1.362 . S
C798 C801 1.409 . S
C799 H791 0.930 . S
C799 C800 1.355 . S
C799 C801 1.415 . S
C800 C799 1.355 . S
C800 C802 1.419 . S
C801 C796 1.425 . S
C801 C798 1.409 . S
C801 C799 1.415 . S
C802 H792 0.930 . S
C802 C800 1.419 . S
C802 C803 1.362 . S
C803 H793 0.930 . S
C803 C796 1.409 . S
C803 C802 1.362 . S
H804 C810 0.930 1_554 S
H805 C813 0.930 . S
H806 C814 0.930 . S
H807 C815 0.930 1_556 S
H808 C818 0.930 . S
H809 C819 0.930 . S
C810 H804 0.930 1_556 S
C810 C811 1.355 . S
C810 C812 1.415 1_556 S
C811 C810 1.355 . S
C811 C813 1.419 . S
C812 C810 1.415 1_554 S
C812 C817 1.425 1_554 S
C812 C819 1.409 . S
C813 H805 0.930 . S
C813 C811 1.419 . S
C813 C814 1.362 . S
C814 H806 0.930 . S
C814 C813 1.362 . S
C814 C817 1.409 . S
C815 H807 0.930 1_554 S
C815 C816 1.355 . S
C815 C817 1.415 1_554 S
C816 C815 1.355 . S
C816 C818 1.419 . S
C817 C812 1.425 1_556 S
C817 C814 1.409 . S
C817 C815 1.415 1_556 S
C818 H808 0.930 . S
C818 C816 1.419 . S
C818 C819 1.362 . S
C819 H809 0.930 . S
C819 C812 1.409 . S
C819 C818 1.362 . S
H820 C826 0.930 . S
H821 C829 0.930 . S
H822 C830 0.930 . S
H823 C831 0.930 . S
H824 C834 0.930 . S
H825 C835 0.930 . S
C826 H820 0.930 . S
C826 C827 1.355 . S
C826 C828 1.415 . S
C827 C826 1.355 . S
C827 C829 1.419 . S
C828 C826 1.415 . S
C828 C833 1.425 1_556 S
C828 C835 1.409 . S
C829 H821 0.930 . S
C829 C827 1.419 . S
C829 C830 1.362 1_556 S
C830 H822 0.930 . S
C830 C829 1.362 1_554 S
C830 C833 1.409 . S
C831 H823 0.930 . S
C831 C832 1.355 . S
C831 C833 1.415 . S
C832 C831 1.355 . S
C832 C834 1.419 . S
C833 C828 1.425 1_554 S
C833 C830 1.409 . S
C833 C831 1.415 . S
C834 H824 0.930 . S
C834 C832 1.419 . S
C834 C835 1.362 1_554 S
C835 H825 0.930 . S
C835 C828 1.409 . S
C835 C834 1.362 1_556 S
H836 C842 0.930 . S
H837 C845 0.930 . S
H838 C846 0.930 . S
H839 C847 0.930 . S
H840 C850 0.930 . S
H841 C851 0.930 . S
C842 H836 0.930 . S
C842 C843 1.355 . S
C842 C844 1.415 . S
C843 C842 1.355 . S
C843 C845 1.419 1_556 S
C844 C842 1.415 . S
C844 C849 1.425 1_556 S
C844 C851 1.409 1_545 S
C845 H837 0.930 . S
C845 C843 1.419 1_554 S
C845 C846 1.362 . S
C846 H838 0.930 . S
C846 C845 1.362 . S
C846 C849 1.409 . S
C847 H839 0.930 . S
C847 C848 1.355 . S
C847 C849 1.415 1_565 S
C848 C847 1.355 . S
C848 C850 1.419 1_554 S
C849 C844 1.425 1_554 S
C849 C846 1.409 . S
C849 C847 1.415 1_545 S
C850 H840 0.930 . S
C850 C848 1.419 1_556 S
C850 C851 1.362 . S
C851 H841 0.930 . S
C851 C844 1.409 1_565 S
C851 C850 1.362 . S
H852 C858 0.930 . S
H853 C861 0.930 . S
H854 C862 0.930 . S
H855 C863 0.930 . S
H856 C866 0.930 . S
H857 C867 0.930 . S
C858 H852 0.930 . S
C858 C859 1.355 . S
C858 C860 1.415 1_556 S
C859 C858 1.355 . S
C859 C861 1.419 . S
C860 C858 1.415 1_554 S
C860 C865 1.425 1_554 S
C860 C867 1.409 . S
C861 H853 0.930 . S
C861 C859 1.419 . S
C861 C862 1.362 . S
C862 H854 0.930 . S
C862 C861 1.362 . S
C862 C865 1.409 . S
C863 H855 0.930 . S
C863 C864 1.355 . S
C863 C865 1.415 1_554 S
C864 C863 1.355 . S
C864 C866 1.419 . S
C865 C860 1.425 1_556 S
C865 C862 1.409 . S
C865 C863 1.415 1_556 S
C866 H856 0.930 . S
C866 C864 1.419 . S
C866 C867 1.362 . S
C867 H857 0.930 . S
C867 C860 1.409 . S
C867 C866 1.362 . S
H868 C874 0.930 . S
H869 C877 0.930 . S
H870 C878 0.930 . S
H871 C879 0.930 . S
H872 C882 0.930 . S
H873 C883 0.930 . S
C874 H868 0.930 . S
C874 C875 1.355 . S
C874 C876 1.415 . S
C875 C874 1.355 . S
C875 C877 1.419 1_554 S
C876 C874 1.415 . S
C876 C881 1.425 1_554 S
C876 C883 1.409 1_455 S
C877 H869 0.930 . S
C877 C875 1.419 1_556 S
C877 C878 1.362 . S
C878 H870 0.930 . S
C878 C877 1.362 . S
C878 C881 1.409 . S
C879 H871 0.930 . S
C879 C880 1.355 . S
C879 C881 1.415 1_655 S
C880 C879 1.355 . S
C880 C882 1.419 1_556 S
C881 C876 1.425 1_556 S
C881 C878 1.409 . S
C881 C879 1.415 1_455 S
C882 H872 0.930 . S
C882 C880 1.419 1_554 S
C882 C883 1.362 . S
C883 H873 0.930 . S
C883 C876 1.409 1_655 S
C883 C882 1.362 . S
H884 C890 0.930 . S
H885 C893 0.930 . S
H886 C894 0.930 . S
H887 C895 0.930 . S
H888 C898 0.930 . S
H889 C899 0.930 . S
C890 H884 0.930 . S
C890 C891 1.355 . S
C890 C892 1.415 . S
C891 C890 1.355 . S
C891 C893 1.419 . S
C892 C890 1.415 . S
C892 C897 1.425 1_554 S
C892 C899 1.409 1_554 S
C893 H885 0.930 . S
C893 C891 1.419 . S
C893 C894 1.362 . S
C894 H886 0.930 . S
C894 C893 1.362 . S
C894 C897 1.409 1_554 S
C895 H887 0.930 . S
C895 C896 1.355 . S
C895 C897 1.415 . S
C896 C895 1.355 . S
C896 C898 1.419 . S
C897 C892 1.425 1_556 S
C897 C894 1.409 1_556 S
C897 C895 1.415 . S
C898 H888 0.930 . S
C898 C896 1.419 . S
C898 C899 1.362 . S
C899 H889 0.930 . S
C899 C892 1.409 1_556 S
C899 C898 1.362 . S
H900 C906 0.930 . S
H901 C909 0.930 . S
H902 C910 0.930 . S
H903 C911 0.930 . S
H904 C914 0.930 . S
H905 C915 0.930 . S
C906 H900 0.930 . S
C906 C907 1.355 . S
C906 C908 1.415 . S
C907 C906 1.355 . S
C907 C909 1.419 . S
C908 C906 1.415 . S
C908 C913 1.425 . S
C908 C915 1.409 . S
C909 H901 0.930 . S
C909 C907 1.419 . S
C909 C910 1.362 . S
C910 H902 0.930 . S
C910 C909 1.362 . S
C910 C913 1.409 . S
C911 H903 0.930 . S
C911 C912 1.355 . S
C911 C913 1.415 . S
C912 C911 1.355 . S
C912 C914 1.419 . S
C913 C908 1.425 . S
C913 C910 1.409 . S
C913 C911 1.415 . S
C914 H904 0.930 . S
C914 C912 1.419 . S
C914 C915 1.362 . S
C915 H905 0.930 . S
C915 C908 1.409 . S
C915 C914 1.362 . S
H916 C922 0.930 1_545 S
H917 C925 0.930 . S
H918 C926 0.930 . S
H919 C927 0.930 . S
H920 C930 0.930 . S
H921 C931 0.930 . S
C922 H916 0.930 1_565 S
C922 C923 1.355 . S
C922 C924 1.415 . S
C923 C922 1.355 . S
C923 C925 1.419 . S
C924 C922 1.415 . S
C924 C929 1.425 . S
C924 C931 1.409 . S
C925 H917 0.930 . S
C925 C923 1.419 . S
C925 C926 1.362 . S
C926 H918 0.930 . S
C926 C925 1.362 . S
C926 C929 1.409 . S
C927 H919 0.930 . S
C927 C928 1.355 . S
C927 C929 1.415 . S
C928 C927 1.355 . S
C928 C930 1.419 . S
C929 C924 1.425 . S
C929 C926 1.409 . S
C929 C927 1.415 . S
C930 H920 0.930 . S
C930 C928 1.419 . S
C930 C931 1.362 . S
C931 H921 0.930 . S
C931 C924 1.409 . S
C931 C930 1.362 . S
H932 C938 0.930 . S
H933 C941 0.930 . S
H934 C942 0.930 . S
H935 C943 0.930 . S
H936 C946 0.930 . S
H937 C947 0.930 . S
C938 H932 0.930 . S
C938 C939 1.355 . S
C938 C940 1.415 . S
C939 C938 1.355 . S
C939 C941 1.419 . S
C940 C938 1.415 . S
C940 C945 1.425 . S
C940 C947 1.409 . S
C941 H933 0.930 . S
C941 C939 1.419 . S
C941 C942 1.362 . S
C942 H934 0.930 . S
C942 C941 1.362 . S
C942 C945 1.409 . S
C943 H935 0.930 . S
C943 C944 1.355 . S
C943 C945 1.415 . S
C944 C943 1.355 . S
C944 C946 1.419 . S
C945 C940 1.425 . S
C945 C942 1.409 . S
C945 C943 1.415 . S
C946 H936 0.930 . S
C946 C944 1.419 . S
C946 C947 1.362 . S
C947 H937 0.930 . S
C947 C940 1.409 . S
C947 C946 1.362 . S
H948 C954 0.930 . S
H949 C957 0.930 . S
H950 C958 0.930 . S
H951 C959 0.930 . S
H952 C962 0.930 . S
H953 C963 0.930 . S
C954 H948 0.930 . S
C954 C955 1.355 . S
C954 C956 1.415 . S
C955 C954 1.355 . S
C955 C957 1.419 . S
C956 C954 1.415 . S
C956 C961 1.425 . S
C956 C963 1.409 . S
C957 H949 0.930 . S
C957 C955 1.419 . S
C957 C958 1.362 . S
C958 H950 0.930 . S
C958 C957 1.362 . S
C958 C961 1.409 . S
C959 H951 0.930 . S
C959 C960 1.355 . S
C959 C961 1.415 . S
C960 C959 1.355 . S
C960 C962 1.419 . S
C961 C956 1.425 . S
C961 C958 1.409 . S
C961 C959 1.415 . S
C962 H952 0.930 . S
C962 C960 1.419 . S
C962 C963 1.362 . S
C963 H953 0.930 . S
C963 C956 1.409 . S
C963 C962 1.362 . S
H964 C970 0.930 . S
H965 C973 0.930 . S
H966 C974 0.930 . S
H967 C975 0.930 . S
H968 C978 0.930 . S
H969 C979 0.930 . S
C970 H964 0.930 . S
C970 C971 1.355 . S
C970 C972 1.415 . S
C971 C970 1.355 . S
C971 C973 1.419 . S
C972 C970 1.415 . S
C972 C977 1.425 . S
C972 C979 1.409 . S
C973 H965 0.930 . S
C973 C971 1.419 . S
C973 C974 1.362 . S
C974 H966 0.930 . S
C974 C973 1.362 . S
C974 C977 1.409 . S
C975 H967 0.930 . S
C975 C976 1.355 . S
C975 C977 1.415 . S
C976 C975 1.355 . S
C976 C978 1.419 . S
C977 C972 1.425 . S
C977 C974 1.409 . S
C977 C975 1.415 . S
C978 H968 0.930 . S
C978 C976 1.419 . S
C978 C979 1.362 . S
C979 H969 0.930 . S
C979 C972 1.409 . S
C979 C978 1.362 . S
H980 C986 0.930 . S
H981 C989 0.930 . S
H982 C990 0.930 . S
H983 C991 0.930 . S
H984 C994 0.930 . S
H985 C995 0.930 . S
C986 H980 0.930 . S
C986 C987 1.355 . S
C986 C988 1.415 . S
C987 C986 1.355 . S
C987 C989 1.419 . S
C988 C986 1.415 . S
C988 C993 1.425 . S
C988 C995 1.409 . S
C989 H981 0.930 . S
C989 C987 1.419 . S
C989 C990 1.362 . S
C990 H982 0.930 . S
C990 C989 1.362 . S
C990 C993 1.409 . S
C991 H983 0.930 . S
C991 C992 1.355 . S
C991 C993 1.415 . S
C992 C991 1.355 . S
C992 C994 1.419 . S
C993 C988 1.425 . S
C993 C990 1.409 . S
C993 C991 1.415 . S
C994 H984 0.930 . S
C994 C992 1.419 . S
C994 C995 1.362 . S
C995 H985 0.930 . S
C995 C988 1.409 . S
C995 C994 1.362 . S
H996 C1002 0.930 . S
H997 C1005 0.930 . S
H998 C1006 0.930 . S
H999 C1007 0.930 . S
H1000 C1010 0.930 . S
H1001 C1011 0.930 . S
C1002 H996 0.930 . S
C1002 C1003 1.355 . S
C1002 C1004 1.415 . S
C1003 C1002 1.355 . S
C1003 C1005 1.419 . S
C1004 C1002 1.415 . S
C1004 C1009 1.425 . S
C1004 C1011 1.409 . S
C1005 H997 0.930 . S
C1005 C1003 1.419 . S
C1005 C1006 1.362 . S
C1006 H998 0.930 . S
C1006 C1005 1.362 . S
C1006 C1009 1.409 . S
C1007 H999 0.930 . S
C1007 C1008 1.355 . S
C1007 C1009 1.415 . S
C1008 C1007 1.355 . S
C1008 C1010 1.419 . S
C1009 C1004 1.425 . S
C1009 C1006 1.409 . S
C1009 C1007 1.415 . S
C1010 H1000 0.930 . S
C1010 C1008 1.419 . S
C1010 C1011 1.362 . S
C1011 H1001 0.930 . S
C1011 C1004 1.409 . S
C1011 C1010 1.362 . S
H1012 C1018 0.930 . S
H1013 C1021 0.930 . S
H1014 C1022 0.930 . S
H1015 C1023 0.930 . S
H1016 C1026 0.930 . S
H1017 C1027 0.930 . S
C1018 H1012 0.930 . S
C1018 C1019 1.355 . S
C1018 C1020 1.415 . S
C1019 C1018 1.355 . S
C1019 C1021 1.419 . S
C1020 C1018 1.415 . S
C1020 C1025 1.425 . S
C1020 C1027 1.409 . S
C1021 H1013 0.930 . S
C1021 C1019 1.419 . S
C1021 C1022 1.362 . S
C1022 H1014 0.930 . S
C1022 C1021 1.362 . S
C1022 C1025 1.409 . S
C1023 H1015 0.930 . S
C1023 C1024 1.355 . S
C1023 C1025 1.415 . S
C1024 C1023 1.355 . S
C1024 C1026 1.419 . S
C1025 C1020 1.425 . S
C1025 C1022 1.409 . S
C1025 C1023 1.415 . S
C1026 H1016 0.930 . S
C1026 C1024 1.419 . S
C1026 C1027 1.362 . S
C1027 H1017 0.930 . S
C1027 C1020 1.409 . S
C1027 C1026 1.362 . S
H1028 C1034 0.930 . S
H1029 C1037 0.930 . S
H1030 C1038 0.930 . S
H1031 C1039 0.930 . S
H1032 C1042 0.930 . S
H1033 C1043 0.930 . S
C1034 H1028 0.930 . S
C1034 C1035 1.355 . S
C1034 C1036 1.415 . S
C1035 C1034 1.355 . S
C1035 C1037 1.419 . S
C1036 C1034 1.415 . S
C1036 C1041 1.425 . S
C1036 C1043 1.409 . S
C1037 H1029 0.930 . S
C1037 C1035 1.419 . S
C1037 C1038 1.362 . S
C1038 H1030 0.930 . S
C1038 C1037 1.362 . S
C1038 C1041 1.409 . S
C1039 H1031 0.930 . S
C1039 C1040 1.355 . S
C1039 C1041 1.415 . S
C1040 C1039 1.355 . S
C1040 C1042 1.419 . S
C1041 C1036 1.425 . S
C1041 C1038 1.409 . S
C1041 C1039 1.415 . S
C1042 H1032 0.930 . S
C1042 C1040 1.419 . S
C1042 C1043 1.362 . S
C1043 H1033 0.930 . S
C1043 C1036 1.409 . S
C1043 C1042 1.362 . S
H1044 C1050 0.930 . S
H1045 C1053 0.930 1_554 S
H1046 C1054 0.930 1_554 S
H1047 C1055 0.930 . S
H1048 C1058 0.930 . S
H1049 C1059 0.930 . S
C1050 H1044 0.930 . S
C1050 C1051 1.355 . S
C1050 C1052 1.415 . S
C1051 C1050 1.355 . S
C1051 C1053 1.419 . S
C1052 C1050 1.415 . S
C1052 C1057 1.425 . S
C1052 C1059 1.409 . S
C1053 H1045 0.930 1_556 S
C1053 C1051 1.419 . S
C1053 C1054 1.362 . S
C1054 H1046 0.930 1_556 S
C1054 C1053 1.362 . S
C1054 C1057 1.409 . S
C1055 H1047 0.930 . S
C1055 C1056 1.355 . S
C1055 C1057 1.415 . S
C1056 C1055 1.355 . S
C1056 C1058 1.419 . S
C1057 C1052 1.425 . S
C1057 C1054 1.409 . S
C1057 C1055 1.415 . S
C1058 H1048 0.930 . S
C1058 C1056 1.419 . S
C1058 C1059 1.362 . S
C1059 H1049 0.930 . S
C1059 C1052 1.409 . S
C1059 C1058 1.362 . S
H1060 C1066 0.930 . S
H1061 C1069 0.930 . S
H1062 C1070 0.930 . S
H1063 C1071 0.930 . S
H1064 C1074 0.930 . S
H1065 C1075 0.930 . S
C1066 H1060 0.930 . S
C1066 C1067 1.355 . S
C1066 C1068 1.415 . S
C1067 C1066 1.355 . S
C1067 C1069 1.419 . S
C1068 C1066 1.415 . S
C1068 C1073 1.425 . S
C1068 C1075 1.409 . S
C1069 H1061 0.930 . S
C1069 C1067 1.419 . S
C1069 C1070 1.362 . S
C1070 H1062 0.930 . S
C1070 C1069 1.362 . S
C1070 C1073 1.409 . S
C1071 H1063 0.930 . S
C1071 C1072 1.355 . S
C1071 C1073 1.415 . S
C1072 C1071 1.355 . S
C1072 C1074 1.419 . S
C1073 C1068 1.425 . S
C1073 C1070 1.409 . S
C1073 C1071 1.415 . S
C1074 H1064 0.930 . S
C1074 C1072 1.419 . S
C1074 C1075 1.362 . S
C1075 H1065 0.930 . S
C1075 C1068 1.409 . S
C1075 C1074 1.362 . S
H1076 C1082 0.930 . S
H1077 C1085 0.930 . S
H1078 C1086 0.930 . S
H1079 C1087 0.930 . S
H1080 C1090 0.930 . S
H1081 C1091 0.930 . S
C1082 H1076 0.930 . S
C1082 C1083 1.355 . S
C1082 C1084 1.415 . S
C1083 C1082 1.355 . S
C1083 C1085 1.419 . S
C1084 C1082 1.415 . S
C1084 C1089 1.425 . S
C1084 C1091 1.409 . S
C1085 H1077 0.930 . S
C1085 C1083 1.419 . S
C1085 C1086 1.362 . S
C1086 H1078 0.930 . S
C1086 C1085 1.362 . S
C1086 C1089 1.409 . S
C1087 H1079 0.930 . S
C1087 C1088 1.355 . S
C1087 C1089 1.415 . S
C1088 C1087 1.355 . S
C1088 C1090 1.419 . S
C1089 C1084 1.425 . S
C1089 C1086 1.409 . S
C1089 C1087 1.415 . S
C1090 H1080 0.930 . S
C1090 C1088 1.419 . S
C1090 C1091 1.362 . S
C1091 H1081 0.930 . S
C1091 C1084 1.409 . S
C1091 C1090 1.362 . S
H1092 C1098 0.930 . S
H1093 C1101 0.930 . S
H1094 C1102 0.930 . S
H1095 C1103 0.930 . S
H1096 C1106 0.930 1_556 S
H1097 C1107 0.930 1_556 S
C1098 H1092 0.930 . S
C1098 C1099 1.355 . S
C1098 C1100 1.415 . S
C1099 C1098 1.355 . S
C1099 C1101 1.419 . S
C1100 C1098 1.415 . S
C1100 C1105 1.425 . S
C1100 C1107 1.409 . S
C1101 H1093 0.930 . S
C1101 C1099 1.419 . S
C1101 C1102 1.362 . S
C1102 H1094 0.930 . S
C1102 C1101 1.362 . S
C1102 C1105 1.409 . S
C1103 H1095 0.930 . S
C1103 C1104 1.355 . S
C1103 C1105 1.415 . S
C1104 C1103 1.355 . S
C1104 C1106 1.419 . S
C1105 C1100 1.425 . S
C1105 C1102 1.409 . S
C1105 C1103 1.415 . S
C1106 H1096 0.930 1_554 S
C1106 C1104 1.419 . S
C1106 C1107 1.362 . S
C1107 H1097 0.930 1_554 S
C1107 C1100 1.409 . S
C1107 C1106 1.362 . S
H1108 C1114 0.938 . S
H1109 C1117 0.930 . S
H1110 C1118 0.930 . S
H1111 C1119 0.930 . S
H1112 C1122 0.930 . S
H1113 C1123 0.930 . S
C1114 H1108 0.938 . S
C1114 C1115 1.355 . S
C1114 C1116 1.415 . S
C1115 C1114 1.355 . S
C1115 C1117 1.419 . S
C1116 C1114 1.415 . S
C1116 C1121 1.425 . S
C1116 C1123 1.409 1_554 S
C1117 H1109 0.930 . S
C1117 C1115 1.419 . S
C1117 C1118 1.362 . S
C1118 H1110 0.930 . S
C1118 C1117 1.362 . S
C1118 C1121 1.409 . S
C1119 H1111 0.930 . S
C1119 C1120 1.355 . S
C1119 C1121 1.415 . S
C1120 C1119 1.355 . S
C1120 C1122 1.419 1_554 S
C1121 C1116 1.425 . S
C1121 C1118 1.409 . S
C1121 C1119 1.415 . S
C1122 H1112 0.930 . S
C1122 C1120 1.419 1_556 S
C1122 C1123 1.362 . S
C1123 H1113 0.930 . S
C1123 C1116 1.409 1_556 S
C1123 C1122 1.362 . S
H1124 C1130 0.930 . S
H1125 C1133 0.930 . S
H1126 C1134 0.930 . S
H1127 C1135 0.930 . S
H1128 C1138 0.930 . S
H1129 C1139 0.930 . S
C1130 H1124 0.930 . S
C1130 C1131 1.355 . S
C1130 C1132 1.415 . S
C1131 C1130 1.355 . S
C1131 C1133 1.419 . S
C1132 C1130 1.415 . S
C1132 C1137 1.425 . S
C1132 C1139 1.409 . S
C1133 H1125 0.930 . S
C1133 C1131 1.419 . S
C1133 C1134 1.362 . S
C1134 H1126 0.930 . S
C1134 C1133 1.362 . S
C1134 C1137 1.409 . S
C1135 H1127 0.930 . S
C1135 C1136 1.355 . S
C1135 C1137 1.415 . S
C1136 C1135 1.355 . S
C1136 C1138 1.419 . S
C1137 C1132 1.425 . S
C1137 C1134 1.409 . S
C1137 C1135 1.415 . S
C1138 H1128 0.930 . S
C1138 C1136 1.419 . S
C1138 C1139 1.362 . S
C1139 H1129 0.930 . S
C1139 C1132 1.409 . S
C1139 C1138 1.362 . S
H1140 C1146 0.930 . S
H1141 C1149 0.930 . S
H1142 C1150 0.930 . S
H1143 C1151 0.930 . S
H1144 C1154 0.930 . S
H1145 C1155 0.930 . S
C1146 H1140 0.930 . S
C1146 C1147 1.355 . S
C1146 C1148 1.415 . S
C1147 C1146 1.355 . S
C1147 C1149 1.419 . S
C1148 C1146 1.415 . S
C1148 C1153 1.425 . S
C1148 C1155 1.409 . S
C1149 H1141 0.930 . S
C1149 C1147 1.419 . S
C1149 C1150 1.362 . S
C1150 H1142 0.930 . S
C1150 C1149 1.362 . S
C1150 C1153 1.409 . S
C1151 H1143 0.930 . S
C1151 C1152 1.355 . S
C1151 C1153 1.415 . S
C1152 C1151 1.355 . S
C1152 C1154 1.419 . S
C1153 C1148 1.425 . S
C1153 C1150 1.409 . S
C1153 C1151 1.415 . S
C1154 H1144 0.930 . S
C1154 C1152 1.419 . S
C1154 C1155 1.362 . S
C1155 H1145 0.930 . S
C1155 C1148 1.409 . S
C1155 C1154 1.362 . S
H1156 C1162 0.930 . S
H1157 C1165 0.930 . S
H1158 C1166 0.930 . S
H1159 C1167 0.930 . S
H1160 C1170 0.930 . S
H1161 C1171 0.930 . S
C1162 H1156 0.930 . S
C1162 C1163 1.355 . S
C1162 C1164 1.415 . S
C1163 C1162 1.355 . S
C1163 C1165 1.419 . S
C1164 C1162 1.415 . S
C1164 C1169 1.425 . S
C1164 C1171 1.409 . S
C1165 H1157 0.930 . S
C1165 C1163 1.419 . S
C1165 C1166 1.362 . S
C1166 H1158 0.930 . S
C1166 C1165 1.362 . S
C1166 C1169 1.409 . S
C1167 H1159 0.930 . S
C1167 C1168 1.355 . S
C1167 C1169 1.415 . S
C1168 C1167 1.355 . S
C1168 C1170 1.419 . S
C1169 C1164 1.425 . S
C1169 C1166 1.409 . S
C1169 C1167 1.415 . S
C1170 H1160 0.930 . S
C1170 C1168 1.419 . S
C1170 C1171 1.362 . S
C1171 H1161 0.930 . S
C1171 C1164 1.409 . S
C1171 C1170 1.362 . S
H1172 C1178 0.930 . S
H1173 C1181 0.930 . S
H1174 C1182 0.930 . S
H1175 C1183 0.930 . S
H1176 C1186 0.930 . S
H1177 C1187 0.930 . S
C1178 H1172 0.930 . S
C1178 C1179 1.355 . S
C1178 C1180 1.415 . S
C1179 C1178 1.355 . S
C1179 C1181 1.419 . S
C1180 C1178 1.415 . S
C1180 C1185 1.425 . S
C1180 C1187 1.409 . S
C1181 H1173 0.930 . S
C1181 C1179 1.419 . S
C1181 C1182 1.362 . S
C1182 H1174 0.930 . S
C1182 C1181 1.362 . S
C1182 C1185 1.409 . S
C1183 H1175 0.930 . S
C1183 C1184 1.355 . S
C1183 C1185 1.415 . S
C1184 C1183 1.355 . S
C1184 C1186 1.419 . S
C1185 C1180 1.425 . S
C1185 C1182 1.409 . S
C1185 C1183 1.415 . S
C1186 H1176 0.930 . S
C1186 C1184 1.419 . S
C1186 C1187 1.362 . S
C1187 H1177 0.930 . S
C1187 C1180 1.409 . S
C1187 C1186 1.362 . S
H1188 C1194 0.930 . S
H1189 C1197 0.930 . S
H1190 C1198 0.930 1_655 S
H1191 C1199 0.930 . S
H1192 C1202 0.930 . S
H1193 C1203 0.930 . S
C1194 H1188 0.930 . S
C1194 C1195 1.355 . S
C1194 C1196 1.415 . S
C1195 C1194 1.355 . S
C1195 C1197 1.419 . S
C1196 C1194 1.415 . S
C1196 C1201 1.425 1_554 S
C1196 C1203 1.409 1_554 S
C1197 H1189 0.930 . S
C1197 C1195 1.419 . S
C1197 C1198 1.362 . S
C1198 H1190 0.930 1_455 S
C1198 C1197 1.362 . S
C1198 C1201 1.409 1_554 S
C1199 H1191 0.930 . S
C1199 C1200 1.355 . S
C1199 C1201 1.415 . S
C1200 C1199 1.355 . S
C1200 C1202 1.419 . S
C1201 C1196 1.425 1_556 S
C1201 C1198 1.409 1_556 S
C1201 C1199 1.415 . S
C1202 H1192 0.930 . S
C1202 C1200 1.419 . S
C1202 C1203 1.362 . S
C1203 H1193 0.930 . S
C1203 C1196 1.409 1_556 S
C1203 C1202 1.362 . S
H1204 C1210 0.930 . S
H1205 C1213 0.930 . S
H1206 C1214 0.930 . S
H1207 C1215 0.930 . S
H1208 C1218 0.930 . S
H1209 C1219 0.930 . S
C1210 H1204 0.930 . S
C1210 C1211 1.355 . S
C1210 C1212 1.422 . S
C1211 C1210 1.355 . S
C1211 C1213 1.419 . S
C1212 C1210 1.422 . S
C1212 C1217 1.423 1_554 S
C1212 C1219 1.404 1_554 S
C1213 H1205 0.930 . S
C1213 C1211 1.419 . S
C1213 C1214 1.362 . S
C1214 H1206 0.930 . S
C1214 C1213 1.362 . S
C1214 C1217 1.409 1_554 S
C1215 H1207 0.930 . S
C1215 C1216 1.355 . S
C1215 C1217 1.415 . S
C1216 C1215 1.355 . S
C1216 C1218 1.419 . S
C1217 C1212 1.423 1_556 S
C1217 C1214 1.409 1_556 S
C1217 C1215 1.415 . S
C1218 H1208 0.930 . S
C1218 C1216 1.419 . S
C1218 C1219 1.362 . S
C1219 H1209 0.930 . S
C1219 C1212 1.404 1_556 S
C1219 C1218 1.362 . S
H1220 C1226 0.930 . S
H1221 C1229 0.930 . S
H1222 C1230 0.943 . S
H1223 C1231 0.930 . S
H1224 C1234 0.930 . S
H1225 C1235 0.930 . S
C1226 H1220 0.930 . S
C1226 C1227 1.355 . S
C1226 C1228 1.416 . S
C1227 C1226 1.355 . S
C1227 C1229 1.419 . S
C1228 C1226 1.416 . S
C1228 C1233 1.425 1_554 S
C1228 C1235 1.408 1_554 S
C1229 H1221 0.930 . S
C1229 C1227 1.419 . S
C1229 C1230 1.362 . S
C1230 H1222 0.943 . S
C1230 C1229 1.362 . S
C1230 C1233 1.409 1_554 S
C1231 H1223 0.930 . S
C1231 C1232 1.355 . S
C1231 C1233 1.415 . S
C1232 C1231 1.355 . S
C1232 C1234 1.419 . S
C1233 C1228 1.425 1_556 S
C1233 C1230 1.409 1_556 S
C1233 C1231 1.415 . S
C1234 H1224 0.930 . S
C1234 C1232 1.419 . S
C1234 C1235 1.362 . S
C1235 H1225 0.930 . S
C1235 C1228 1.408 1_556 S
C1235 C1234 1.362 . S
H1236 C1242 0.930 . S
H1237 C1245 0.930 . S
H1238 C1246 0.930 . S
H1239 C1247 0.930 . S
H1240 C1250 0.930 . S
H1241 C1251 0.930 1_655 S
C1242 H1236 0.930 . S
C1242 C1243 1.355 . S
C1242 C1244 1.415 . S
C1243 C1242 1.355 . S
C1243 C1245 1.419 . S
C1244 C1242 1.415 . S
C1244 C1249 1.425 1_556 S
C1244 C1251 1.409 1_556 S
C1245 H1237 0.930 . S
C1245 C1243 1.419 . S
C1245 C1246 1.362 . S
C1246 H1238 0.930 . S
C1246 C1245 1.362 . S
C1246 C1249 1.409 1_556 S
C1247 H1239 0.930 . S
C1247 C1248 1.355 . S
C1247 C1249 1.415 . S
C1248 C1247 1.355 . S
C1248 C1250 1.419 . S
C1249 C1244 1.425 1_554 S
C1249 C1246 1.409 1_554 S
C1249 C1247 1.415 . S
C1250 H1240 0.930 . S
C1250 C1248 1.419 . S
C1250 C1251 1.362 . S
C1251 H1241 0.930 1_455 S
C1251 C1244 1.409 1_554 S
C1251 C1250 1.362 . S
H1252 C1258 0.930 . S
H1253 C1261 0.930 . S
H1254 C1262 0.930 . S
H1255 C1263 0.930 . S
H1256 C1266 0.930 . S
H1257 C1267 0.930 . S
C1258 H1252 0.930 . S
C1258 C1259 1.355 . S
C1258 C1260 1.415 . S
C1259 C1258 1.355 . S
C1259 C1261 1.419 . S
C1260 C1258 1.415 . S
C1260 C1265 1.425 1_554 S
C1260 C1267 1.409 1_554 S
C1261 H1253 0.930 . S
C1261 C1259 1.419 . S
C1261 C1262 1.362 . S
C1262 H1254 0.930 . S
C1262 C1261 1.362 . S
C1262 C1265 1.409 1_554 S
C1263 H1255 0.930 . S
C1263 C1264 1.355 . S
C1263 C1265 1.415 . S
C1264 C1263 1.355 . S
C1264 C1266 1.419 . S
C1265 C1260 1.425 1_556 S
C1265 C1262 1.409 1_556 S
C1265 C1263 1.415 . S
C1266 H1256 0.930 . S
C1266 C1264 1.419 . S
C1266 C1267 1.362 . S
C1267 H1257 0.930 . S
C1267 C1260 1.409 1_556 S
C1267 C1266 1.362 . S
H1268 C1274 0.930 . S
H1269 C1277 0.930 . S
H1270 C1278 0.930 . S
H1271 C1279 0.930 . S
H1272 C1282 0.930 . S
H1273 C1283 0.930 . S
C1274 H1268 0.930 . S
C1274 C1275 1.355 . S
C1274 C1276 1.415 . S
C1275 C1274 1.355 . S
C1275 C1277 1.419 . S
C1276 C1274 1.415 . S
C1276 C1281 1.425 1_554 S
C1276 C1283 1.409 1_554 S
C1277 H1269 0.930 . S
C1277 C1275 1.419 . S
C1277 C1278 1.362 . S
C1278 H1270 0.930 . S
C1278 C1277 1.362 . S
C1278 C1281 1.409 1_554 S
C1279 H1271 0.930 . S
C1279 C1280 1.355 . S
C1279 C1281 1.415 . S
C1280 C1279 1.355 . S
C1280 C1282 1.419 . S
C1281 C1276 1.425 1_556 S
C1281 C1278 1.409 1_556 S
C1281 C1279 1.415 . S
C1282 H1272 0.930 . S
C1282 C1280 1.419 . S
C1282 C1283 1.362 . S
C1283 H1273 0.930 . S
C1283 C1276 1.409 1_556 S
C1283 C1282 1.362 . S
H1284 C1290 0.930 . S
H1285 C1293 0.930 . S
H1286 C1294 0.930 . S
H1287 C1295 0.930 . S
H1288 C1298 0.930 . S
H1289 C1299 0.930 . S
C1290 H1284 0.930 . S
C1290 C1291 1.355 . S
C1290 C1292 1.415 . S
C1291 C1290 1.355 . S
C1291 C1293 1.419 . S
C1292 C1290 1.415 . S
C1292 C1297 1.425 . S
C1292 C1299 1.409 . S
C1293 H1285 0.930 . S
C1293 C1291 1.419 . S
C1293 C1294 1.362 . S
C1294 H1286 0.930 . S
C1294 C1293 1.362 . S
C1294 C1297 1.409 . S
C1295 H1287 0.930 . S
C1295 C1296 1.355 . S
C1295 C1297 1.415 . S
C1296 C1295 1.355 . S
C1296 C1298 1.419 . S
C1297 C1292 1.425 . S
C1297 C1294 1.409 . S
C1297 C1295 1.415 . S
C1298 H1288 0.930 . S
C1298 C1296 1.419 . S
C1298 C1299 1.362 . S
C1299 H1289 0.930 . S
C1299 C1292 1.409 . S
C1299 C1298 1.362 . S
H1300 C1306 0.930 . S
H1301 C1309 0.930 . S
H1302 C1310 0.930 . S
H1303 C1311 0.930 . S
H1304 C1314 0.930 . S
H1305 C1315 0.930 . S
C1306 H1300 0.930 . S
C1306 C1307 1.355 . S
C1306 C1308 1.415 . S
C1307 C1306 1.355 . S
C1307 C1309 1.419 . S
C1308 C1306 1.415 . S
C1308 C1313 1.425 . S
C1308 C1315 1.409 . S
C1309 H1301 0.930 . S
C1309 C1307 1.419 . S
C1309 C1310 1.362 . S
C1310 H1302 0.930 . S
C1310 C1309 1.362 . S
C1310 C1313 1.409 . S
C1311 H1303 0.930 . S
C1311 C1312 1.355 . S
C1311 C1313 1.415 . S
C1312 C1311 1.355 . S
C1312 C1314 1.419 . S
C1313 C1308 1.425 . S
C1313 C1310 1.409 . S
C1313 C1311 1.415 . S
C1314 H1304 0.930 . S
C1314 C1312 1.419 . S
C1314 C1315 1.362 . S
C1315 H1305 0.930 . S
C1315 C1308 1.409 . S
C1315 C1314 1.362 . S
H1316 C1322 0.930 . S
H1317 C1325 0.930 . S
H1318 C1326 0.930 . S
H1319 C1327 0.930 . S
H1320 C1330 0.930 . S
H1321 C1331 0.930 . S
C1322 H1316 0.930 . S
C1322 C1323 1.355 . S
C1322 C1324 1.415 . S
C1323 C1322 1.355 . S
C1323 C1325 1.419 . S
C1324 C1322 1.415 . S
C1324 C1329 1.425 . S
C1324 C1331 1.409 . S
C1325 H1317 0.930 . S
C1325 C1323 1.419 . S
C1325 C1326 1.362 . S
C1326 H1318 0.930 . S
C1326 C1325 1.362 . S
C1326 C1329 1.409 . S
C1327 H1319 0.930 . S
C1327 C1328 1.355 . S
C1327 C1329 1.415 . S
C1328 C1327 1.355 . S
C1328 C1330 1.419 . S
C1329 C1324 1.425 . S
C1329 C1326 1.409 . S
C1329 C1327 1.415 . S
C1330 H1320 0.930 . S
C1330 C1328 1.419 . S
C1330 C1331 1.362 . S
C1331 H1321 0.930 . S
C1331 C1324 1.409 . S
C1331 C1330 1.362 . S
H1332 C1338 0.930 . S
H1333 C1341 0.930 . S
H1334 C1342 0.930 . S
H1335 C1343 0.930 . S
H1336 C1346 0.930 . S
H1337 C1347 0.930 . S
C1338 H1332 0.930 . S
C1338 C1339 1.355 . S
C1338 C1340 1.415 . S
C1339 C1338 1.355 . S
C1339 C1341 1.419 . S
C1340 C1338 1.415 . S
C1340 C1345 1.425 . S
C1340 C1347 1.409 . S
C1341 H1333 0.930 . S
C1341 C1339 1.419 . S
C1341 C1342 1.362 . S
C1342 H1334 0.930 . S
C1342 C1341 1.362 . S
C1342 C1345 1.409 . S
C1343 H1335 0.930 . S
C1343 C1344 1.355 . S
C1343 C1345 1.415 . S
C1344 C1343 1.355 . S
C1344 C1346 1.419 . S
C1345 C1340 1.425 . S
C1345 C1342 1.409 . S
C1345 C1343 1.415 . S
C1346 H1336 0.930 . S
C1346 C1344 1.419 . S
C1346 C1347 1.362 . S
C1347 H1337 0.930 . S
C1347 C1340 1.409 . S
C1347 C1346 1.362 . S
H1348 C1354 0.930 . S
H1349 C1357 0.930 . S
H1350 C1358 0.930 . S
H1351 C1359 0.930 . S
H1352 C1362 0.930 . S
H1353 C1363 0.930 . S
C1354 H1348 0.930 . S
C1354 C1355 1.355 . S
C1354 C1356 1.415 . S
C1355 C1354 1.355 . S
C1355 C1357 1.419 . S
C1356 C1354 1.415 . S
C1356 C1361 1.425 . S
C1356 C1363 1.409 . S
C1357 H1349 0.930 . S
C1357 C1355 1.419 . S
C1357 C1358 1.362 . S
C1358 H1350 0.930 . S
C1358 C1357 1.362 . S
C1358 C1361 1.409 . S
C1359 H1351 0.930 . S
C1359 C1360 1.355 . S
C1359 C1361 1.415 . S
C1360 C1359 1.355 . S
C1360 C1362 1.419 . S
C1361 C1356 1.425 . S
C1361 C1358 1.409 . S
C1361 C1359 1.415 . S
C1362 H1352 0.930 . S
C1362 C1360 1.419 . S
C1362 C1363 1.362 . S
C1363 H1353 0.930 . S
C1363 C1356 1.409 . S
C1363 C1362 1.362 . S
H1364 C1370 0.930 . S
H1365 C1373 0.930 . S
H1366 C1374 0.930 . S
H1367 C1375 0.930 . S
H1368 C1378 0.930 . S
H1369 C1379 0.930 . S
C1370 H1364 0.930 . S
C1370 C1371 1.355 . S
C1370 C1372 1.415 . S
C1371 C1370 1.355 . S
C1371 C1373 1.419 . S
C1372 C1370 1.415 . S
C1372 C1377 1.425 . S
C1372 C1379 1.409 . S
C1373 H1365 0.930 . S
C1373 C1371 1.419 . S
C1373 C1374 1.362 . S
C1374 H1366 0.930 . S
C1374 C1373 1.362 . S
C1374 C1377 1.409 . S
C1375 H1367 0.930 . S
C1375 C1376 1.355 . S
C1375 C1377 1.415 . S
C1376 C1375 1.355 . S
C1376 C1378 1.419 . S
C1377 C1372 1.425 . S
C1377 C1374 1.409 . S
C1377 C1375 1.415 . S
C1378 H1368 0.930 . S
C1378 C1376 1.419 . S
C1378 C1379 1.362 . S
C1379 H1369 0.930 . S
C1379 C1372 1.409 . S
C1379 C1378 1.362 . S
H1380 C1386 0.930 . S
H1381 C1389 0.930 . S
H1382 C1390 0.930 . S
H1383 C1391 0.930 . S
H1384 C1394 0.930 . S
H1385 C1395 0.930 . S
C1386 H1380 0.930 . S
C1386 C1387 1.355 . S
C1386 C1388 1.415 . S
C1387 C1386 1.355 . S
C1387 C1389 1.419 . S
C1388 C1386 1.415 . S
C1388 C1393 1.425 . S
C1388 C1395 1.409 . S
C1389 H1381 0.930 . S
C1389 C1387 1.419 . S
C1389 C1390 1.362 . S
C1390 H1382 0.930 . S
C1390 C1389 1.362 . S
C1390 C1393 1.409 . S
C1391 H1383 0.930 . S
C1391 C1392 1.355 . S
C1391 C1393 1.415 . S
C1392 C1391 1.355 . S
C1392 C1394 1.419 . S
C1393 C1388 1.425 . S
C1393 C1390 1.409 . S
C1393 C1391 1.415 . S
C1394 H1384 0.930 . S
C1394 C1392 1.419 . S
C1394 C1395 1.362 . S
C1395 H1385 0.930 . S
C1395 C1388 1.409 . S
C1395 C1394 1.362 . S
H1396 C1402 0.930 . S
H1397 C1405 0.930 . S
H1398 C1406 0.930 . S
H1399 C1407 0.930 . S
H1400 C1410 0.930 . S
H1401 C1411 0.930 . S
C1402 H1396 0.930 . S
C1402 C1403 1.355 . S
C1402 C1404 1.415 . S
C1403 C1402 1.355 . S
C1403 C1405 1.419 . S
C1404 C1402 1.415 . S
C1404 C1409 1.425 . S
C1404 C1411 1.409 . S
C1405 H1397 0.930 . S
C1405 C1403 1.419 . S
C1405 C1406 1.362 . S
C1406 H1398 0.930 . S
C1406 C1405 1.362 . S
C1406 C1409 1.409 . S
C1407 H1399 0.930 . S
C1407 C1408 1.355 . S
C1407 C1409 1.415 . S
C1408 C1407 1.355 . S
C1408 C1410 1.419 . S
C1409 C1404 1.425 . S
C1409 C1406 1.409 . S
C1409 C1407 1.415 . S
C1410 H1400 0.930 . S
C1410 C1408 1.419 . S
C1410 C1411 1.362 . S
C1411 H1401 0.930 . S
C1411 C1404 1.409 . S
C1411 C1410 1.362 . S
H1412 C1418 0.930 . S
H1413 C1421 0.930 . S
H1414 C1422 0.930 . S
H1415 C1423 0.930 . S
H1416 C1426 0.930 . S
H1417 C1427 0.930 . S
C1418 H1412 0.930 . S
C1418 C1419 1.355 . S
C1418 C1420 1.415 . S
C1419 C1418 1.355 . S
C1419 C1421 1.419 . S
C1420 C1418 1.415 . S
C1420 C1425 1.425 . S
C1420 C1427 1.409 . S
C1421 H1413 0.930 . S
C1421 C1419 1.419 . S
C1421 C1422 1.362 . S
C1422 H1414 0.930 . S
C1422 C1421 1.362 . S
C1422 C1425 1.409 . S
C1423 H1415 0.930 . S
C1423 C1424 1.355 . S
C1423 C1425 1.415 . S
C1424 C1423 1.355 . S
C1424 C1426 1.419 . S
C1425 C1420 1.425 . S
C1425 C1422 1.409 . S
C1425 C1423 1.415 . S
C1426 H1416 0.930 . S
C1426 C1424 1.419 . S
C1426 C1427 1.362 . S
C1427 H1417 0.930 . S
C1427 C1420 1.409 . S
C1427 C1426 1.362 . S
H1428 C1434 0.930 . S
H1429 C1437 0.930 . S
H1430 C1438 0.930 . S
H1431 C1439 0.930 . S
H1432 C1442 0.930 . S
H1433 C1443 0.930 . S
C1434 H1428 0.930 . S
C1434 C1435 1.355 . S
C1434 C1436 1.415 . S
C1435 C1434 1.355 . S
C1435 C1437 1.419 . S
C1436 C1434 1.415 . S
C1436 C1441 1.425 . S
C1436 C1443 1.409 . S
C1437 H1429 0.930 . S
C1437 C1435 1.419 . S
C1437 C1438 1.362 . S
C1438 H1430 0.930 . S
C1438 C1437 1.362 . S
C1438 C1441 1.409 . S
C1439 H1431 0.930 . S
C1439 C1440 1.355 . S
C1439 C1441 1.415 . S
C1440 C1439 1.355 . S
C1440 C1442 1.419 . S
C1441 C1436 1.425 . S
C1441 C1438 1.409 . S
C1441 C1439 1.415 . S
C1442 H1432 0.930 . S
C1442 C1440 1.419 . S
C1442 C1443 1.362 . S
C1443 H1433 0.930 . S
C1443 C1436 1.409 . S
C1443 C1442 1.362 . S
H1444 C1450 0.930 . S
H1445 C1453 0.930 . S
H1446 C1454 0.930 . S
H1447 C1455 0.930 . S
H1448 C1458 0.930 . S
H1449 C1459 0.930 . S
C1450 H1444 0.930 . S
C1450 C1451 1.355 . S
C1450 C1452 1.415 . S
C1451 C1450 1.355 . S
C1451 C1453 1.419 . S
C1452 C1450 1.415 . S
C1452 C1457 1.425 . S
C1452 C1459 1.409 . S
C1453 H1445 0.930 . S
C1453 C1451 1.419 . S
C1453 C1454 1.362 . S
C1454 H1446 0.930 . S
C1454 C1453 1.362 . S
C1454 C1457 1.409 . S
C1455 H1447 0.930 . S
C1455 C1456 1.355 . S
C1455 C1457 1.415 . S
C1456 C1455 1.355 . S
C1456 C1458 1.419 . S
C1457 C1452 1.425 . S
C1457 C1454 1.409 . S
C1457 C1455 1.415 . S
C1458 H1448 0.930 . S
C1458 C1456 1.419 . S
C1458 C1459 1.362 . S
C1459 H1449 0.930 . S
C1459 C1452 1.409 . S
C1459 C1458 1.362 . S
H1460 C1466 0.930 . S
H1461 C1469 0.930 . S
H1462 C1470 0.930 . S
H1463 C1471 0.930 . S
H1464 C1474 0.930 . S
H1465 C1475 0.930 . S
C1466 H1460 0.930 . S
C1466 C1467 1.355 . S
C1466 C1468 1.415 . S
C1467 C1466 1.355 . S
C1467 C1469 1.419 . S
C1468 C1466 1.415 . S
C1468 C1473 1.425 . S
C1468 C1475 1.409 . S
C1469 H1461 0.930 . S
C1469 C1467 1.419 . S
C1469 C1470 1.362 . S
C1470 H1462 0.930 . S
C1470 C1469 1.362 . S
C1470 C1473 1.409 . S
C1471 H1463 0.930 . S
C1471 C1472 1.355 . S
C1471 C1473 1.415 . S
C1472 C1471 1.355 . S
C1472 C1474 1.419 . S
C1473 C1468 1.425 . S
C1473 C1470 1.409 . S
C1473 C1471 1.415 . S
C1474 H1464 0.930 . S
C1474 C1472 1.419 . S
C1474 C1475 1.362 . S
C1475 H1465 0.930 . S
C1475 C1468 1.409 . S
C1475 C1474 1.362 . S
C619 C455 1.693 . S
C624 C8 1.749 . S
C635 C42 1.755 . S
C640 C489 1.708 . S
C651 C76 1.737 1_565 S
C656 C421 1.684 . S
C667 C81 1.693 . S
C672 C246 1.730 . S
C683 C280 1.739 . S
C688 C13 1.684 . S
C699 C47 1.710 . S
C704 C212 1.755 . S
C715 C119 1.740 1_655 S
C720 C344 1.684 . S
C731 C153 1.754 . S
C736 C378 1.703 . S
C747 C310 1.735 . S
C752 C187 1.750 . S
C763 C561 1.755 . S
C768 C174 1.709 . S
C779 C106 1.724 . S
C784 C595 1.734 . S
C795 C527 1.747 . S
C800 C140 1.690 . S
C811 C285 1.718 . S
C816 C450 1.756 . S
C827 C217 1.686 . S
C832 C484 1.743 . S
C843 C251 1.690 . S
C848 C416 1.731 . S
C859 C323 1.754 . S
C864 C548 1.703 . S
C875 C582 1.714 . S
C880 C357 1.730 . S
C891 C514 1.735 . S
C896 C391 1.744 . S
C907 C4 1.558 . S
C912 C144 1.564 . S
C923 C178 1.566 1_565 S
C928 C38 1.555 . S
C939 C110 1.585 . S
C944 C72 1.506 . S
C955 C149 1.558 . S
C960 C85 1.565 . S
C971 C183 1.555 . S
C976 C17 1.565 1_655 S
C987 C115 1.563 . S
C992 C51 1.562 . S
C1003 C348 1.564 . S
C1008 C208 1.559 . S
C1019 C382 1.568 . S
C1024 C242 1.548 . S
C1035 C314 1.569 . S
C1040 C276 1.548 . S
C1051 C353 1.563 . S
C1056 C289 1.562 . S
C1067 C387 1.560 . S
C1072 C221 1.564 . S
C1083 C319 1.499 . S
C1088 C255 1.589 . S
C1099 C552 1.570 . S
C1104 C412 1.542 . S
C1115 C586 1.563 . S
C1120 C446 1.560 . S
C1131 C480 1.553 . S
C1136 C518 1.567 . S
C1147 C493 1.585 . S
C1152 C557 1.508 . S
C1163 C425 1.565 . S
C1168 C591 1.557 . S
C1179 C523 1.506 . S
C1184 C459 1.586 . S
C1195 C0 1.275 . S
C1200 C29 1.275 . S
C1211 C34 1.265 . S
C1216 C63 1.265 . S
C1227 C68 1.265 . S
C1232 C97 1.265 . S
C1243 C131 1.275 . S
C1248 C102 1.275 . S
C1259 C136 1.265 . S
C1264 C165 1.265 . S
C1275 C170 1.273 . S
C1280 C199 1.273 . S
C1291 C233 1.268 . S
C1296 C204 1.268 . S
C1307 C238 1.273 . S
C1312 C267 1.273 . S
C1323 C301 1.271 . S
C1328 C272 1.271 . S
C1339 C335 1.272 . S
C1344 C306 1.272 . S
C1355 C369 1.272 . S
C1360 C340 1.272 . S
C1371 C403 1.265 . S
C1376 C374 1.265 . S
C1387 C437 1.273 . S
C1392 C408 1.273 . S
C1403 C442 1.274 . S
C1408 C471 1.274 . S
C1419 C476 1.265 . S
C1424 C505 1.265 . S
C1435 C510 1.273 . S
C1440 C539 1.273 . S
C1451 C544 1.275 . S
C1456 C573 1.275 . S
C1467 C607 1.269 . S
C1472 C578 1.269 . S
