# Generated by pormake.
# Topology qtz-e, (6)-cn, num edge types: 1
# Building blocks:
#     Node 0, Type 0, BuildingBlock: KUMJIN_clean_sbu_1, # of connection points: 6
#     Node 1, Type 0, BuildingBlock: KUMJIN_clean_sbu_1, # of connection points: 6
#     Node 2, Type 0, BuildingBlock: KUMJIN_clean_sbu_1, # of connection points: 6
#     Node 3, Type 0, BuildingBlock: KUMJIN_clean_sbu_1, # of connection points: 6
#     Node 4, Type 0, BuildingBlock: KUMJIN_clean_sbu_1, # of connection points: 6
#     Node 5, Type 0, BuildingBlock: KUMJIN_clean_sbu_1, # of connection points: 6
#     Edge 6, Type (0, 0), BuildingBlock: UVAHIK_clean_linker_0, # of connection points: 2
#     Edge 7, Type (0, 0), BuildingBlock: UVAHIK_clean_linker_0, # of connection points: 2
#     Edge 8, Type (0, 0), BuildingBlock: UVAHIK_clean_linker_0, # of connection points: 2
#     Edge 9, Type (0, 0), BuildingBlock: UVAHIK_clean_linker_0, # of connection points: 2
#     Edge 10, Type (0, 0), BuildingBlock: UVAHIK_clean_linker_0, # of connection points: 2
#     Edge 11, Type (0, 0), BuildingBlock: UVAHIK_clean_linker_0, # of connection points: 2
#     Edge 12, Type (0, 0), BuildingBlock: UVAHIK_clean_linker_0, # of connection points: 2
#     Edge 13, Type (0, 0), BuildingBlock: UVAHIK_clean_linker_0, # of connection points: 2
#     Edge 14, Type (0, 0), BuildingBlock: UVAHIK_clean_linker_0, # of connection points: 2
#     Edge 15, Type (0, 0), BuildingBlock: UVAHIK_clean_linker_0, # of connection points: 2
#     Edge 16, Type (0, 0), BuildingBlock: UVAHIK_clean_linker_0, # of connection points: 2
#     Edge 17, Type (0, 0), BuildingBlock: UVAHIK_clean_linker_0, # of connection points: 2
#     Edge 18, Type (0, 0), BuildingBlock: UVAHIK_clean_linker_0, # of connection points: 2
#     Edge 19, Type (0, 0), BuildingBlock: UVAHIK_clean_linker_0, # of connection points: 2
#     Edge 20, Type (0, 0), BuildingBlock: UVAHIK_clean_linker_0, # of connection points: 2
#     Edge 21, Type (0, 0), BuildingBlock: UVAHIK_clean_linker_0, # of connection points: 2
#     Edge 22, Type (0, 0), BuildingBlock: UVAHIK_clean_linker_0, # of connection points: 2
#     Edge 23, Type (0, 0), BuildingBlock: UVAHIK_clean_linker_0, # of connection points: 2
# Relax obj value: 0.152
# Max RMSD: 0.209
# Mean RMSD: 0.209
data_MOF--net-qtz-e--node1-KUMJIN_clean_sbu_1--edge1-UVAHIK_clean_linker_0
_symmetry_space_group_name_H-M    P1
_symmetry_Int_Tables_number       1
_symmetry_cell_setting            triclinic
loop_
_symmetry_equiv_pos_as_xyz
'x, y, z'
_cell_length_a     35.620825
_cell_length_b     35.58207
_cell_length_c     58.345271
_cell_angle_alpha  89.978299
_cell_angle_beta   90.015182
_cell_angle_gamma 120.03216
loop_
_atom_site_label
_atom_site_type_symbol
_atom_site_fract_x
_atom_site_fract_y
_atom_site_fract_z
_atom_type_partial_charge
Eu0 Eu 0.17623 0.34678 0.99784 0.0
C1 C 0.30528 0.54366 0.00852 0.0
N2 N 0.30813 0.51097 0.01878 0.0
C3 C 0.38321 0.54422 0.00853 0.0
C4 C 0.34085 0.57681 0.99659 0.0
C5 C 0.34686 0.51196 0.02004 0.0
C6 C 0.37994 0.57629 0.99631 0.0
C7 C 0.26404 0.57982 0.00188 0.0
C8 C 0.26741 0.54502 0.01115 0.0
C9 C 0.29831 0.61153 0.9887 0.0
C10 C 0.33669 0.61006 0.98608 0.0
Eu11 Eu 0.24489 0.45605 0.0367 0.0
N12 N 0.23544 0.51442 0.02446 0.0
C13 C 0.22721 0.58275 0.00705 0.0
C14 C 0.20177 0.51968 0.0314 0.0
C15 C 0.19639 0.55306 0.02229 0.0
H16 H 0.34929 0.48741 0.02966 0.0
H17 H 0.16884 0.55622 0.0273 0.0
H18 H 0.08179 0.34702 0.98887 0.0
H19 H 0.19944 0.22139 0.03753 0.0
H20 H 0.17916 0.49831 0.04411 0.0
H21 H 0.22331 0.60894 0.00025 0.0
H22 H 0.2197 0.28729 0.01431 0.0
H23 H 0.41361 0.54427 0.00904 0.0
H24 H 0.29608 0.63821 0.98119 0.0
H25 H 0.36343 0.63554 0.97654 0.0
H26 H 0.00771 0.31063 0.00445 0.0
H27 H 0.40808 0.60123 0.98737 0.0
H28 H 0.12672 0.18148 0.05539 0.0
N29 N 0.10242 0.31112 0.00936 0.0
C30 C 0.08945 0.27595 0.02319 0.0
C31 C 0.03058 0.30099 0.01016 0.0
C32 C 0.04684 0.25317 0.03195 0.0
C33 C 0.07302 0.32224 0.00174 0.0
C34 C 0.01763 0.26681 0.02567 0.0
N35 N 0.15929 0.28431 0.01942 0.0
C36 C 0.18789 0.26971 0.02203 0.0
C37 C 0.10558 0.22428 0.04149 0.0
C38 C 0.11839 0.26159 0.02797 0.0
C39 C 0.13534 0.21004 0.04511 0.0
C40 C 0.17649 0.23255 0.03511 0.0
H41 H 0.98463 0.25022 0.03205 0.0
H42 H 0.00201 0.19945 0.05331 0.0
H43 H 0.05343 0.17413 0.06162 0.0
O44 O 0.20297 0.32587 0.97018 0.0
O45 O 0.18711 0.34377 0.03612 0.0
O46 O 0.1823 0.40073 0.05079 0.0
O47 O 0.13517 0.30687 0.96975 0.0
O48 O 0.24838 0.37113 0.00101 0.0
O49 O 0.26404 0.40397 0.03653 0.0
O50 O 0.25722 0.49971 0.06572 0.0
O51 O 0.26765 0.45472 0.00043 0.0
O52 O 0.2036 0.41317 0.98141 0.0
O53 O 0.2834 0.45662 0.06584 0.0
O54 O 0.17244 0.42929 0.03179 0.0
O55 O 0.15694 0.39893 0.99556 0.0
C56 C 0.17364 0.36035 0.05197 0.0
C57 C 0.1549 0.25856 0.95327 0.0
C58 C 0.16169 0.21114 0.92544 0.0
C59 C 0.13675 0.17546 0.93984 0.0
C60 C 0.12972 0.22256 0.96735 0.0
C61 C 0.12083 0.18123 0.96064 0.0
C62 C 0.1707 0.25269 0.93238 0.0
C63 C 0.27465 0.38882 0.01862 0.0
C64 C 0.16573 0.3026 0.96009 0.0
C65 C 0.03444 0.21699 0.0462 0.0
C66 C 0.06368 0.20249 0.05089 0.0
C67 C 0.24492 0.44267 0.98141 0.0
C68 C 0.26022 0.47001 0.10139 0.0
C69 C 0.24408 0.48869 0.13902 0.0
C70 C 0.22941 0.4458 0.14631 0.0
C71 C 0.24471 0.42719 0.10893 0.0
C72 C 0.25966 0.50046 0.11646 0.0
C73 C 0.22957 0.41533 0.13131 0.0
C74 C 0.15035 0.41952 0.01248 0.0
C75 C 0.27623 0.48328 0.07778 0.0
H76 H 0.12904 0.14304 0.93488 0.0
H77 H 0.11692 0.22632 0.98344 0.0
H78 H 0.10143 0.15357 0.97156 0.0
H79 H 0.19054 0.28068 0.92168 0.0
H80 H 0.21797 0.43575 0.16365 0.0
H81 H 0.24417 0.40282 0.09759 0.0
H82 H 0.27051 0.53309 0.11035 0.0
H83 H 0.21789 0.38237 0.13704 0.0
Eu84 Eu 0.82368 0.173 0.32035 0.0
C85 C 0.82313 0.34468 0.3584 0.0
N86 N 0.84001 0.32215 0.36869 0.0
C87 C 0.89966 0.38834 0.3829 0.0
C88 C 0.84468 0.39036 0.35949 0.0
C89 C 0.87727 0.34305 0.38118 0.0
C90 C 0.88358 0.41214 0.37179 0.0
C91 C 0.76304 0.34393 0.33832 0.0
C92 C 0.78255 0.3218 0.34823 0.0
C93 C 0.78537 0.38952 0.33838 0.0
C94 C 0.82602 0.41268 0.34901 0.0
Eu95 Eu 0.79918 0.24581 0.36575 0.0
N96 N 0.76177 0.27767 0.34845 0.0
C97 C 0.72141 0.31953 0.32897 0.0
C98 C 0.72033 0.2537 0.34047 0.0
C99 C 0.69981 0.27423 0.33026 0.0
H100 H 0.8896 0.32459 0.38987 0.0
H101 H 0.66732 0.25513 0.32346 0.0
H102 H 0.74139 0.07142 0.32356 0.0
H103 H 0.99317 0.24144 0.34796 0.0
H104 H 0.70346 0.21874 0.34158 0.0
H105 H 0.70537 0.33532 0.32112 0.0
H106 H 0.93334 0.24081 0.32698 0.0
H107 H 0.92939 0.40486 0.3927 0.0
H108 H 0.77107 0.40716 0.33069 0.0
H109 H 0.84235 0.44782 0.34944 0.0
H110 H 0.72612 0.00087 0.34003 0.0
H111 H 0.90097 0.44721 0.37319 0.0
H112 H 0.98127 0.17617 0.36907 0.0
N113 N 0.80654 0.10492 0.33529 0.0
C114 C 0.83895 0.10277 0.34642 0.0
C115 C 0.75792 0.02927 0.34196 0.0
C116 C 0.83153 0.06346 0.35629 0.0
C117 C 0.76658 0.06904 0.33266 0.0
C118 C 0.79045 0.0265 0.35392 0.0
N119 N 0.88559 0.17797 0.33872 0.0
C120 C 0.92647 0.21309 0.33736 0.0
C121 C 0.91332 0.13877 0.35997 0.0
C122 C 0.87927 0.14036 0.34847 0.0
C123 C 0.95429 0.17611 0.36045 0.0
C124 C 0.96106 0.21313 0.3487 0.0
H125 H 0.78352 0.99571 0.36127 0.0
H126 H 0.85988 0.03244 0.37614 0.0
H127 H 0.93154 0.09818 0.37918 0.0
O128 O 0.86516 0.18501 0.29054 0.0
O129 O 0.79949 0.14961 0.35659 0.0
O130 O 0.83663 0.21289 0.37611 0.0
O131 O 0.80266 0.12656 0.292 0.0
O132 O 0.86857 0.24576 0.32125 0.0
O133 O 0.86714 0.25868 0.35935 0.0
O134 O 0.7454 0.21389 0.39015 0.0
O135 O 0.80078 0.26335 0.32818 0.0
O136 O 0.78977 0.20619 0.3042 0.0
O137 O 0.80565 0.26946 0.40083 0.0
O138 O 0.74294 0.17871 0.35658 0.0
O139 O 0.75297 0.1542 0.32108 0.0
C140 C 0.81771 0.17058 0.37554 0.0
C141 C 0.85879 0.12417 0.27113 0.0
C142 C 0.90369 0.11869 0.24111 0.0
C143 C 0.89861 0.08084 0.25166 0.0
C144 C 0.85415 0.08647 0.28146 0.0
C145 C 0.87404 0.06497 0.27171 0.0
C146 C 0.8837 0.14017 0.25116 0.0
C147 C 0.88434 0.27174 0.33897 0.0
C148 C 0.83885 0.14822 0.28077 0.0
C149 C 0.86505 0.06229 0.36831 0.0
C150 C 0.90581 0.0998 0.37013 0.0
C151 C 0.79136 0.24346 0.30819 0.0
C152 C 0.7413 0.26322 0.41569 0.0
C153 C 0.68778 0.2619 0.44226 0.0
C154 C 0.69526 0.30174 0.43323 0.0
C155 C 0.74868 0.30335 0.40732 0.0
C156 C 0.71087 0.24259 0.4333 0.0
C157 C 0.72556 0.32226 0.41588 0.0
C158 C 0.72841 0.15381 0.33815 0.0
C159 C 0.76526 0.24304 0.40604 0.0
H160 H 0.91317 0.06321 0.2443 0.0
H161 H 0.83531 0.07369 0.29698 0.0
H162 H 0.87031 0.03582 0.27968 0.0
H163 H 0.88798 0.16995 0.24366 0.0
H164 H 0.67857 0.31771 0.44004 0.0
H165 H 0.77268 0.3205 0.39439 0.0
H166 H 0.70522 0.21176 0.43997 0.0
H167 H 0.73162 0.35323 0.40925 0.0
Eu168 Eu 0.65372 0.82691 0.6568 0.0
C169 C 0.47668 0.81605 0.69549 0.0
N170 N 0.51718 0.83714 0.70465 0.0
C171 C 0.50663 0.89559 0.71665 0.0
C172 C 0.44988 0.83471 0.69602 0.0
C173 C 0.5321 0.87588 0.71559 0.0
C174 C 0.4655 0.87512 0.70664 0.0
C175 C 0.41901 0.75152 0.67734 0.0
C176 C 0.4612 0.77474 0.68653 0.0
C177 C 0.3927 0.77057 0.67718 0.0
C178 C 0.40807 0.81202 0.68654 0.0
Eu179 Eu 0.55685 0.80046 0.70317 0.0
N180 N 0.48767 0.75744 0.68661 0.0
C181 C 0.40452 0.7098 0.66865 0.0
C182 C 0.47322 0.7162 0.67899 0.0
C183 C 0.43165 0.69197 0.66963 0.0
H184 H 0.56366 0.89139 0.72367 0.0
H185 H 0.42049 0.6595 0.66327 0.0
H186 H 0.67537 0.74621 0.65912 0.0
H187 H 0.75383 0.9977 0.68273 0.0
H188 H 0.49381 0.7021 0.67996 0.0
H189 H 0.37233 0.69093 0.6614 0.0
H190 H 0.69326 0.93629 0.6634 0.0
H191 H 0.51871 0.92651 0.7252 0.0
H192 H 0.36024 0.75331 0.67009 0.0
H193 H 0.38714 0.826 0.68664 0.0
H194 H 0.73327 0.73318 0.67374 0.0
H195 H 0.4458 0.89041 0.70755 0.0
H196 H 0.81072 0.98838 0.70161 0.0
N197 N 0.70715 0.81192 0.67001 0.0
C198 C 0.74239 0.84524 0.68025 0.0
C199 C 0.73618 0.76478 0.67568 0.0
C200 C 0.77589 0.83917 0.68898 0.0
C201 C 0.70358 0.77217 0.66744 0.0
C202 C 0.77244 0.79837 0.68655 0.0
N203 N 0.71132 0.89008 0.67397 0.0
C204 C 0.71574 0.93047 0.67289 0.0
C205 C 0.7807 0.92018 0.69301 0.0
C206 C 0.74428 0.88515 0.68252 0.0
C207 C 0.78324 0.96067 0.69376 0.0
C208 C 0.75103 0.96599 0.68327 0.0
H209 H 0.79752 0.79246 0.69304 0.0
H210 H 0.83748 0.86963 0.70684 0.0
H211 H 0.84194 0.94061 0.71016 0.0
O212 O 0.67556 0.86652 0.62581 0.0
O213 O 0.65811 0.80689 0.69325 0.0
O214 O 0.62777 0.841 0.71172 0.0
O215 O 0.68054 0.80872 0.62785 0.0
O216 O 0.62443 0.87059 0.65811 0.0
O217 O 0.61013 0.86927 0.69628 0.0
O218 O 0.53361 0.74863 0.72897 0.0
O219 O 0.54031 0.80245 0.66565 0.0
O220 O 0.58488 0.7864 0.64368 0.0
O221 O 0.5447 0.81207 0.73834 0.0
O222 O 0.57247 0.74674 0.69579 0.0
O223 O 0.60375 0.7552 0.65946 0.0
C224 C 0.65224 0.82336 0.71203 0.0
C225 C 0.73383 0.86819 0.60614 0.0
C226 C 0.78152 0.91881 0.57687 0.0
C227 C 0.81723 0.91996 0.58785 0.0
C228 C 0.76988 0.86969 0.61681 0.0
C229 C 0.81132 0.89541 0.60763 0.0
C230 C 0.73982 0.89261 0.58615 0.0
C231 C 0.61392 0.8861 0.67582 0.0
C232 C 0.69004 0.84343 0.61608 0.0
C233 C 0.8115 0.87372 0.69994 0.0
C234 C 0.81392 0.9141 0.70193 0.0
C235 C 0.55126 0.79203 0.64608 0.0
C236 C 0.4851 0.75171 0.75572 0.0
C237 C 0.43115 0.69775 0.78169 0.0
C238 C 0.40318 0.71385 0.77659 0.0
C239 C 0.45667 0.76749 0.75128 0.0
C240 C 0.4722 0.71682 0.77104 0.0
C241 C 0.41592 0.74842 0.76149 0.0
C242 C 0.58204 0.73143 0.6774 0.0
C243 C 0.5281 0.77171 0.74455 0.0
H244 H 0.84967 0.93951 0.58103 0.0
H245 H 0.76613 0.85132 0.63225 0.0
H246 H 0.83901 0.89647 0.61594 0.0
H247 H 0.71204 0.89202 0.57816 0.0
H248 H 0.3718 0.70054 0.7848 0.0
H249 H 0.46595 0.79496 0.74019 0.0
H250 H 0.49405 0.70465 0.77464 0.0
H251 H 0.39439 0.76095 0.75794 0.0
Eu252 Eu 0.82965 0.65325 0.99486 0.0
C253 C 0.69575 0.4585 0.00571 0.0
N254 N 0.69384 0.4915 0.01622 0.0
C255 C 0.61887 0.45999 0.00603 0.0
C256 C 0.65978 0.42615 0.99365 0.0
C257 C 0.65556 0.4914 0.01769 0.0
C258 C 0.62126 0.42774 0.99352 0.0
C259 C 0.73529 0.42069 0.99876 0.0
C260 C 0.733 0.45593 0.00825 0.0
C261 C 0.70069 0.38986 0.9854 0.0
C262 C 0.66296 0.39257 0.98287 0.0
Eu263 Eu 0.75782 0.54516 0.03422 0.0
N264 N 0.76533 0.48571 0.02172 0.0
C265 C 0.77135 0.41639 0.00388 0.0
C266 C 0.79817 0.47905 0.02862 0.0
C267 C 0.80244 0.44516 0.01931 0.0
H268 H 0.6538 0.51604 0.02755 0.0
H269 H 0.82935 0.4409 0.02429 0.0
H270 H 0.92124 0.6484 0.9848 0.0
H271 H 0.81488 0.78601 0.03116 0.0
H272 H 0.82106 0.49972 0.04143 0.0
H273 H 0.77439 0.38981 0.99691 0.0
H274 H 0.79018 0.71638 0.01071 0.0
H275 H 0.58888 0.46073 0.00665 0.0
H276 H 0.70212 0.3629 0.9777 0.0
H277 H 0.63592 0.36773 0.97322 0.0
H278 H 0.99691 0.68493 0.99803 0.0
H279 H 0.59285 0.40346 0.98448 0.0
H280 H 0.88968 0.82674 0.04645 0.0
N281 N 0.90417 0.68771 0.00476 0.0
C282 C 0.91942 0.72461 0.01744 0.0
C283 C 0.97529 0.69602 0.00393 0.0
C284 C 0.96311 0.74776 0.02458 0.0
C285 C 0.93195 0.67466 0.99691 0.0
C286 C 0.9908 0.73233 0.01814 0.0
N287 N 0.85006 0.71787 0.01504 0.0
C288 C 0.82277 0.73409 0.01749 0.0
C289 C 0.9073 0.78023 0.03411 0.0
C290 C 0.89189 0.74066 0.02228 0.0
C291 C 0.87902 0.79638 0.0375 0.0
C292 C 0.83672 0.77343 0.02893 0.0
H293 H 0.02455 0.74915 0.0233 0.0
H294 H 0.01149 0.80422 0.04304 0.0
H295 H 0.96264 0.83271 0.0513 0.0
O296 O 0.80292 0.67435 0.96725 0.0
O297 O 0.82358 0.66002 0.03349 0.0
O298 O 0.82167 0.59908 0.0478 0.0
O299 O 0.86976 0.69008 0.96577 0.0
O300 O 0.75844 0.63244 0.99887 0.0
O301 O 0.74458 0.60132 0.0346 0.0
O302 O 0.74479 0.50176 0.06345 0.0
O303 O 0.73481 0.54776 0.9982 0.0
O304 O 0.79939 0.58592 0.97932 0.0
O305 O 0.71929 0.54539 0.06316 0.0
O306 O 0.82983 0.56923 0.02939 0.0
O307 O 0.8461 0.599 0.99303 0.0
C308 C 0.83144 0.6397 0.05001 0.0
C309 C 0.85223 0.74005 0.94926 0.0
C310 C 0.84522 0.78791 0.9218 0.0
C311 C 0.87337 0.82382 0.93531 0.0
C312 C 0.88068 0.77629 0.9624 0.0
C313 C 0.89102 0.81794 0.95546 0.0
C314 C 0.83471 0.74602 0.929 0.0
C315 C 0.73319 0.61622 0.01693 0.0
C316 C 0.83972 0.69572 0.9565 0.0
C317 C 0.97812 0.78623 0.03726 0.0
C318 C 0.95034 0.80252 0.04193 0.0
C319 C 0.75753 0.55848 0.9792 0.0
C320 C 0.74223 0.53229 0.09889 0.0
C321 C 0.75848 0.51405 0.13664 0.0
C322 C 0.77355 0.55714 0.14368 0.0
C323 C 0.75806 0.57527 0.10622 0.0
C324 C 0.74271 0.50199 0.11412 0.0
C325 C 0.77351 0.58747 0.12851 0.0
C326 C 0.85215 0.57844 0.01016 0.0
C327 C 0.72609 0.51871 0.07532 0.0
H328 H 0.88226 0.85647 0.93011 0.0
H329 H 0.89496 0.7725 0.97794 0.0
H330 H 0.91293 0.84577 0.96568 0.0
H331 H 0.81243 0.71793 0.91899 0.0
H332 H 0.78514 0.56748 0.16098 0.0
H333 H 0.75867 0.59952 0.09475 0.0
H334 H 0.73162 0.46923 0.10817 0.0
H335 H 0.78553 0.62059 0.13406 0.0
Eu336 Eu 0.17602 0.83047 0.32118 0.0
C337 C 0.16812 0.6543 0.35904 0.0
N338 N 0.15339 0.67855 0.36949 0.0
C339 C 0.09236 0.61418 0.38438 0.0
C340 C 0.14479 0.60863 0.36046 0.0
C341 C 0.11651 0.6594 0.38237 0.0
C342 C 0.10627 0.58865 0.37315 0.0
C343 C 0.2257 0.65138 0.33832 0.0
C344 C 0.20826 0.67536 0.34833 0.0
C345 C 0.20162 0.60582 0.33874 0.0
C346 C 0.16135 0.5845 0.34987 0.0
Eu347 Eu 0.19702 0.7546 0.36601 0.0
N348 N 0.23093 0.71949 0.34838 0.0
C349 C 0.26718 0.67397 0.32862 0.0
C350 C 0.27232 0.74166 0.34012 0.0
C351 C 0.29075 0.71928 0.32974 0.0
H352 H 0.10583 0.6792 0.39111 0.0
H353 H 0.32317 0.73696 0.32269 0.0
H354 H 0.25984 0.93113 0.32539 0.0
H355 H 0.00624 0.76549 0.34734 0.0
H356 H 0.29068 0.77664 0.3411 0.0
H357 H 0.28166 0.65673 0.32067 0.0
H358 H 0.0657 0.76533 0.32638 0.0
H359 H 0.06292 0.59906 0.39447 0.0
H360 H 0.21431 0.58679 0.33099 0.0
H361 H 0.14366 0.54935 0.35059 0.0
H362 H 0.2767 0.00137 0.34291 0.0
H363 H 0.08749 0.55364 0.37475 0.0
H364 H 0.01961 0.82996 0.36973 0.0
N365 N 0.19453 0.89843 0.33689 0.0
C366 C 0.16255 0.90097 0.34824 0.0
C367 C 0.24453 0.9734 0.34454 0.0
C368 C 0.17086 0.94013 0.35868 0.0
C369 C 0.23497 0.9338 0.33464 0.0
C370 C 0.21242 0.97653 0.35671 0.0
N371 N 0.11447 0.82657 0.33942 0.0
C372 C 0.07309 0.79253 0.33732 0.0
C373 C 0.08795 0.8661 0.36133 0.0
C374 C 0.12168 0.86398 0.34979 0.0
C375 C 0.04638 0.82959 0.36113 0.0
C376 C 0.03876 0.79302 0.34865 0.0
H377 H 0.22004 0.00717 0.36451 0.0
H378 H 0.14356 0.97141 0.37912 0.0
H379 H 0.0709 0.90682 0.38123 0.0
O380 O 0.13685 0.81758 0.2904 0.0
O381 O 0.20085 0.85229 0.35751 0.0
O382 O 0.16161 0.78925 0.37698 0.0
O383 O 0.19569 0.87917 0.29388 0.0
O384 O 0.12919 0.75813 0.32195 0.0
O385 O 0.12995 0.74445 0.35995 0.0
O386 O 0.25153 0.78593 0.39 0.0
O387 O 0.19438 0.73754 0.3283 0.0
O388 O 0.20964 0.79695 0.30507 0.0
O389 O 0.19125 0.73075 0.401 0.0
O390 O 0.25534 0.82027 0.35657 0.0
O391 O 0.24638 0.84797 0.32179 0.0
C392 C 0.18153 0.83161 0.37634 0.0
C393 C 0.13688 0.87709 0.2734 0.0
C394 C 0.08545 0.87682 0.24569 0.0
C395 C 0.08326 0.9091 0.25848 0.0
C396 C 0.13474 0.90965 0.28592 0.0
C397 C 0.10814 0.92566 0.27838 0.0
C398 C 0.1126 0.86124 0.25322 0.0
C399 C 0.11248 0.7321 0.33957 0.0
C400 C 0.16081 0.85612 0.28184 0.0
C401 C 0.13769 0.94171 0.37083 0.0
C402 C 0.09636 0.90484 0.37213 0.0
C403 C 0.20567 0.75849 0.3086 0.0
C404 C 0.25558 0.73618 0.41526 0.0
C405 C 0.30836 0.73606 0.44187 0.0
C406 C 0.30087 0.69654 0.43238 0.0
C407 C 0.24823 0.69639 0.4064 0.0
C408 C 0.28565 0.75593 0.43311 0.0
C409 C 0.27096 0.67692 0.41476 0.0
C410 C 0.27049 0.84629 0.33855 0.0
C411 C 0.23184 0.75683 0.40595 0.0
H412 H 0.06249 0.92157 0.25303 0.0
H413 H 0.153 0.92221 0.30161 0.0
H414 H 0.10637 0.95058 0.28815 0.0
H415 H 0.1136 0.83545 0.24381 0.0
H416 H 0.31726 0.68012 0.43902 0.0
H417 H 0.22452 0.67995 0.39324 0.0
H418 H 0.29129 0.78653 0.44014 0.0
H419 H 0.26491 0.64619 0.40777 0.0
Eu420 Eu 0.34327 0.17474 0.65628 0.0
C421 C 0.51978 0.18436 0.69545 0.0
N422 N 0.47897 0.16279 0.7042 0.0
C423 C 0.48927 0.10392 0.71568 0.0
C424 C 0.54664 0.16577 0.69595 0.0
C425 C 0.46374 0.12357 0.71468 0.0
C426 C 0.53076 0.12493 0.70611 0.0
C427 C 0.57775 0.24946 0.67789 0.0
C428 C 0.53535 0.22591 0.6868 0.0
C429 C 0.60419 0.23057 0.67776 0.0
C430 C 0.58872 0.18888 0.68681 0.0
Eu431 Eu 0.4393 0.19948 0.70301 0.0
N432 N 0.50874 0.24306 0.68682 0.0
C433 C 0.59228 0.29134 0.6694 0.0
C434 C 0.52321 0.2844 0.67935 0.0
C435 C 0.56497 0.30896 0.67028 0.0
H436 H 0.43197 0.1077 0.7225 0.0
H437 H 0.57615 0.34154 0.66407 0.0
H438 H 0.32334 0.25659 0.65877 0.0
H439 H 0.24057 0.00381 0.68142 0.0
H440 H 0.50256 0.29841 0.68027 0.0
H441 H 0.62462 0.31047 0.66237 0.0
H442 H 0.30231 0.06507 0.66272 0.0
H443 H 0.47698 0.07264 0.72389 0.0
H444 H 0.63681 0.24811 0.6709 0.0
H445 H 0.60971 0.17498 0.6869 0.0
H446 H 0.26568 0.27039 0.67289 0.0
H447 H 0.55051 0.10967 0.70697 0.0
H448 H 0.18354 0.01373 0.69964 0.0
N449 N 0.29029 0.19059 0.66922 0.0
C450 C 0.2544 0.15734 0.67905 0.0
C451 C 0.26216 0.23852 0.67474 0.0
C452 C 0.22099 0.16384 0.68747 0.0
C453 C 0.29464 0.23069 0.66677 0.0
C454 C 0.22522 0.205 0.68517 0.0
N455 N 0.28467 0.11172 0.673 0.0
C456 C 0.27974 0.07113 0.67194 0.0
C457 C 0.21471 0.08214 0.69135 0.0
C458 C 0.25177 0.11707 0.68124 0.0
C459 C 0.21152 0.04137 0.69207 0.0
C460 C 0.2438 0.0357 0.68196 0.0
H461 H 0.20022 0.21124 0.69143 0.0
H462 H 0.15874 0.13375 0.70465 0.0
H463 H 0.15301 0.06218 0.70785 0.0
O464 O 0.32098 0.13559 0.62516 0.0
O465 O 0.33806 0.19407 0.69278 0.0
O466 O 0.36808 0.15926 0.71072 0.0
O467 O 0.3183 0.19466 0.62721 0.0
O468 O 0.37153 0.13014 0.65752 0.0
O469 O 0.38574 0.13091 0.69571 0.0
O470 O 0.4632 0.25034 0.72937 0.0
O471 O 0.45622 0.19728 0.66562 0.0
O472 O 0.41261 0.21463 0.64366 0.0
O473 O 0.44936 0.1857 0.73815 0.0
O474 O 0.42426 0.25375 0.69589 0.0
O475 O 0.39408 0.24602 0.65932 0.0
C476 C 0.34424 0.17754 0.71145 0.0
C477 C 0.26435 0.13657 0.60506 0.0
C478 C 0.21649 0.08739 0.57538 0.0
C479 C 0.18126 0.088 0.58588 0.0
C480 C 0.22879 0.13682 0.61525 0.0
C481 C 0.1875 0.11268 0.60564 0.0
C482 C 0.25803 0.11198 0.58512 0.0
C483 C 0.38181 0.11427 0.67518 0.0
C484 C 0.30793 0.15985 0.61536 0.0
C485 C 0.18468 0.12934 0.69801 0.0
C486 C 0.18153 0.08863 0.69992 0.0
C487 C 0.44563 0.20801 0.64603 0.0
C488 C 0.50967 0.24403 0.75632 0.0
C489 C 0.5646 0.29693 0.7823 0.0
C490 C 0.59067 0.27832 0.77796 0.0
C491 C 0.5362 0.22576 0.75263 0.0
C492 C 0.524 0.27962 0.77129 0.0
C493 C 0.57649 0.24304 0.76322 0.0
C494 C 0.41527 0.26945 0.67744 0.0
C495 C 0.46714 0.22594 0.74477 0.0
H496 H 0.14896 0.06972 0.5787 0.0
H497 H 0.23279 0.15538 0.63066 0.0
H498 H 0.16019 0.11298 0.61357 0.0
H499 H 0.28542 0.11122 0.57751 0.0
H500 H 0.62162 0.29026 0.78646 0.0
H501 H 0.52581 0.19774 0.74181 0.0
H502 H 0.50364 0.29374 0.77432 0.0
H503 H 0.59656 0.22861 0.76024 0.0
C504 C 0.19421 0.69077 0.28959 0.0
C505 C 0.21294 0.73618 0.28917 0.0
C506 C 0.19951 0.66888 0.27126 0.0
C507 C 0.26934 0.67402 0.22651 0.0
H508 H 0.16494 0.58367 0.19758 0.0
C509 C 0.27484 0.56473 0.15439 0.0
C510 C 0.2422 0.52072 0.1547 0.0
C511 C 0.27245 0.59477 0.16888 0.0
C512 C 0.19444 0.60841 0.2056 0.0
H513 H 0.25313 0.79437 0.26937 0.0
H514 H 0.26338 0.75561 0.23723 0.0
H515 H 0.15956 0.62993 0.22663 0.0
H516 H 0.18123 0.47412 0.1705 0.0
H517 H 0.17824 0.52567 0.19646 0.0
H518 H 0.3042 0.65109 0.20656 0.0
C519 C 0.24404 0.73733 0.25182 0.0
C520 C 0.1913 0.63513 0.22205 0.0
C521 C 0.23801 0.75935 0.2701 0.0
C522 C 0.20731 0.50754 0.16997 0.0
C523 C 0.20519 0.53741 0.18462 0.0
C524 C 0.2725 0.64676 0.21028 0.0
C525 C 0.22427 0.69188 0.25221 0.0
C526 C 0.22861 0.66764 0.23287 0.0
C527 C 0.23756 0.58149 0.18419 0.0
C528 C 0.23495 0.61302 0.19995 0.0
H529 H 0.17463 0.67178 0.30392 0.0
H530 H 0.1843 0.63383 0.272 0.0
H531 H 0.29848 0.69875 0.23484 0.0
H532 H 0.30251 0.57602 0.14308 0.0
H533 H 0.29779 0.62847 0.16792 0.0
C534 C 0.50527 0.202 0.62669 0.0
C535 C 0.47185 0.2121 0.62551 0.0
C536 C 0.52767 0.20242 0.60699 0.0
C537 C 0.51631 0.19257 0.54444 0.0
H538 H 0.64176 0.24829 0.54446 0.0
C539 C 0.61826 0.24251 0.46216 0.0
C540 C 0.65764 0.24242 0.46184 0.0
C541 C 0.59317 0.2312 0.48201 0.0
C542 C 0.60666 0.23176 0.54426 0.0
H543 H 0.43627 0.2312 0.60258 0.0
H544 H 0.47554 0.23203 0.56823 0.0
H545 H 0.60389 0.24595 0.57967 0.0
H546 H 0.7003 0.22776 0.48156 0.0
H547 H 0.65585 0.20696 0.51622 0.0
H548 H 0.51902 0.17868 0.50901 0.0
C549 C 0.48406 0.22342 0.58445 0.0
C550 C 0.58502 0.23066 0.56442 0.0
C551 C 0.46182 0.22327 0.60418 0.0
C552 C 0.67003 0.22802 0.4813 0.0
C553 C 0.64485 0.21663 0.50121 0.0
C554 C 0.53792 0.19345 0.52432 0.0
C555 C 0.51692 0.21261 0.58563 0.0
C556 C 0.5397 0.21172 0.5646 0.0
C557 C 0.60682 0.21937 0.50198 0.0
C558 C 0.5834 0.21373 0.52389 0.0
H559 H 0.51331 0.19229 0.64265 0.0
H560 H 0.55257 0.19354 0.60839 0.0
H561 H 0.48126 0.17699 0.54422 0.0
H562 H 0.60764 0.25293 0.44728 0.0
H563 H 0.56423 0.23395 0.48202 0.0
C564 C 0.31221 0.48538 0.95817 0.0
C565 C 0.26673 0.46283 0.95956 0.0
C566 C 0.33319 0.50617 0.93794 0.0
C567 C 0.31777 0.50921 0.87568 0.0
H568 H 0.41 0.62902 0.88073 0.0
C569 C 0.3746 0.62841 0.79979 0.0
C570 C 0.41774 0.66273 0.79903 0.0
C571 C 0.35986 0.59935 0.81814 0.0
C572 C 0.38501 0.59532 0.87895 0.0
H573 H 0.20745 0.44278 0.94046 0.0
H574 H 0.24416 0.47886 0.90492 0.0
H575 H 0.37664 0.58727 0.91529 0.0
H576 H 0.48 0.69166 0.81623 0.0
H577 H 0.45463 0.64005 0.84798 0.0
H578 H 0.32588 0.51731 0.83933 0.0
C579 C 0.26357 0.48058 0.9196 0.0
C580 C 0.36574 0.57145 0.89881 0.0
C581 C 0.24256 0.46007 0.93996 0.0
C582 C 0.44659 0.66556 0.81628 0.0
C583 C 0.43187 0.6363 0.83463 0.0
C584 C 0.33729 0.53299 0.85579 0.0
C585 C 0.30911 0.50431 0.91848 0.0
C586 C 0.33144 0.5284 0.89737 0.0
C587 C 0.388 0.60366 0.83614 0.0
C588 C 0.37064 0.57661 0.85717 0.0
H589 H 0.33172 0.48685 0.9727 0.0
H590 H 0.36831 0.52358 0.93748 0.0
H591 H 0.29183 0.47586 0.87408 0.0
H592 H 0.35173 0.62489 0.78655 0.0
H593 H 0.32584 0.57487 0.81872 0.0
C594 C 0.80091 0.31104 0.28982 0.0
C595 C 0.78396 0.26589 0.28885 0.0
C596 C 0.79612 0.33317 0.27141 0.0
C597 C 0.72982 0.32877 0.22524 0.0
H598 H 0.83558 0.41935 0.19748 0.0
C599 C 0.72718 0.43809 0.15229 0.0
C600 C 0.75995 0.48205 0.15256 0.0
C601 C 0.72908 0.40811 0.16706 0.0
C602 C 0.80569 0.39458 0.20518 0.0
H603 H 0.74733 0.20835 0.26797 0.0
H604 H 0.7379 0.24746 0.23572 0.0
H605 H 0.83956 0.37301 0.22701 0.0
H606 H 0.82068 0.52858 0.16862 0.0
H607 H 0.82268 0.47722 0.19511 0.0
H608 H 0.6959 0.35174 0.20453 0.0
C609 C 0.75547 0.26538 0.25081 0.0
C610 C 0.80806 0.3678 0.22189 0.0
C611 C 0.76101 0.24317 0.26917 0.0
C612 C 0.79448 0.49522 0.16809 0.0
C613 C 0.79605 0.46543 0.18305 0.0
C614 C 0.72743 0.35612 0.20877 0.0
C615 C 0.77361 0.31062 0.25174 0.0
C616 C 0.77023 0.33515 0.23225 0.0
C617 C 0.76353 0.4214 0.18268 0.0
C618 C 0.76545 0.38992 0.19882 0.0
H619 H 0.81898 0.32973 0.30457 0.0
H620 H 0.81012 0.36806 0.27252 0.0
H621 H 0.70029 0.30392 0.23322 0.0
H622 H 0.69975 0.42676 0.1408 0.0
H623 H 0.70365 0.37445 0.16608 0.0
C624 C 0.53457 0.77538 0.60436 0.0
C625 C 0.52479 0.78725 0.62555 0.0
C626 C 0.51206 0.77452 0.58459 0.0
C627 C 0.41089 0.7666 0.56438 0.0
H628 H 0.47656 0.81763 0.50876 0.0
C629 C 0.32579 0.76896 0.48114 0.0
C630 C 0.33819 0.75469 0.46164 0.0
C631 C 0.35084 0.78002 0.50109 0.0
C632 C 0.45775 0.80309 0.52412 0.0
H633 H 0.48351 0.80759 0.6424 0.0
H634 H 0.44374 0.80506 0.60808 0.0
H635 H 0.51453 0.81995 0.54401 0.0
H636 H 0.38802 0.74392 0.4471 0.0
H637 H 0.43117 0.76226 0.48191 0.0
H638 H 0.35403 0.74862 0.54444 0.0
C639 C 0.46865 0.79617 0.60683 0.0
C640 C 0.47948 0.80434 0.54427 0.0
C641 C 0.49133 0.79732 0.62656 0.0
C642 C 0.37738 0.75423 0.462 0.0
C643 C 0.40234 0.76519 0.4819 0.0
C644 C 0.38912 0.76512 0.5442 0.0
C645 C 0.47917 0.7853 0.58561 0.0
C646 C 0.45622 0.78559 0.56451 0.0
C647 C 0.38875 0.77706 0.50187 0.0
C648 C 0.41226 0.78282 0.52376 0.0
H649 H 0.56011 0.76742 0.6029 0.0
H650 H 0.5204 0.7654 0.56849 0.0
H651 H 0.39213 0.75163 0.57971 0.0
H652 H 0.29566 0.7695 0.48138 0.0
H653 H 0.33989 0.78972 0.5161 0.0
C654 C 0.75919 0.53882 0.93811 0.0
C655 C 0.73541 0.53821 0.95744 0.0
C656 C 0.73782 0.51787 0.91791 0.0
C657 C 0.63379 0.42894 0.89771 0.0
H658 H 0.67615 0.47895 0.83764 0.0
C659 C 0.55107 0.33248 0.81602 0.0
C660 C 0.57946 0.33283 0.79919 0.0
C661 C 0.56677 0.36257 0.83397 0.0
C662 C 0.66402 0.46442 0.85428 0.0
H663 H 0.67086 0.51762 0.97025 0.0
H664 H 0.63357 0.48017 0.93531 0.0
H665 H 0.71104 0.52161 0.87193 0.0
H666 H 0.64589 0.3671 0.78702 0.0
H667 H 0.67344 0.41858 0.81852 0.0
H668 H 0.58788 0.37127 0.88027 0.0
C669 C 0.66863 0.49622 0.93585 0.0
C670 C 0.68402 0.48889 0.8739 0.0
C671 C 0.69 0.51745 0.95593 0.0
C672 C 0.62331 0.36551 0.79994 0.0
C673 C 0.63902 0.39541 0.8179 0.0
C674 C 0.61401 0.40438 0.87812 0.0
C675 C 0.69228 0.49585 0.91669 0.0
C676 C 0.66946 0.47118 0.89581 0.0
C677 C 0.6112 0.3936 0.83549 0.0
C678 C 0.62926 0.42156 0.85615 0.0
H679 H 0.79424 0.55466 0.93872 0.0
H680 H 0.75689 0.51783 0.90346 0.0
H681 H 0.62216 0.41424 0.91437 0.0
H682 H 0.51712 0.30767 0.81595 0.0
H683 H 0.54429 0.36075 0.84702 0.0
C684 C 0.34042 0.41001 0.99489 0.0
C685 C 0.32032 0.40034 0.01648 0.0
C686 C 0.38557 0.43121 0.99323 0.0
C687 C 0.4861 0.4643 0.02676 0.0
H688 H 0.53604 0.56297 0.98537 0.0
C689 C 0.66278 0.59635 0.03536 0.0
C690 C 0.68738 0.60447 0.01529 0.0
C691 C 0.61763 0.57412 0.03427 0.0
C692 C 0.52247 0.53539 0.9969 0.0
H693 H 0.33097 0.40164 0.0531 0.0
H694 H 0.40955 0.4385 0.05028 0.0
H695 H 0.45776 0.51297 0.98519 0.0
H696 H 0.68452 0.59966 0.97819 0.0
H697 H 0.6054 0.5609 0.97631 0.0
H698 H 0.55066 0.48733 0.03883 0.0
C699 C 0.39079 0.4299 0.0346 0.0
C700 C 0.47776 0.50655 0.99668 0.0
C701 C 0.34574 0.40882 0.03625 0.0
C702 C 0.66629 0.59388 0.99394 0.0
C703 C 0.62104 0.57154 0.99285 0.0
C704 C 0.53061 0.4933 0.02711 0.0
C705 C 0.41127 0.44272 0.01312 0.0
C706 C 0.45905 0.47092 0.0118 0.0
C707 C 0.5964 0.55982 0.01309 0.0
C708 C 0.54914 0.52938 0.01239 0.0
H709 H 0.32154 0.40394 0.97936 0.0
H710 H 0.40039 0.43996 0.97642 0.0
H711 H 0.47283 0.43679 0.03832 0.0
H712 H 0.67833 0.60457 0.05201 0.0
H713 H 0.59927 0.56622 0.05008 0.0
C714 C 0.0902 0.66643 0.3158 0.0
C715 C 0.08271 0.68573 0.33491 0.0
C716 C 0.06748 0.62149 0.31312 0.0
C717 C 0.97038 0.52046 0.32805 0.0
H718 H 0.04506 0.46996 0.32749 0.0
C719 C 0.94727 0.3444 0.34951 0.0
C720 C 0.91328 0.31835 0.33452 0.0
C721 C 0.97042 0.38954 0.34661 0.0
C722 C 0.02393 0.48369 0.32753 0.0
H723 H 0.04161 0.67428 0.36442 0.0
H724 H -0.00013 0.59507 0.35912 0.0
H725 H 0.07708 0.54899 0.32663 0.0
H726 H 0.88034 0.31801 0.30329 0.0
H727 H 0.91849 0.39685 0.29915 0.0
H728 H 0.91718 0.45512 0.32762 0.0
C729 C 0.02473 0.61479 0.34677 0.0
C730 C 0.04214 0.52874 0.32706 0.0
C731 C 0.04857 0.65987 0.34986 0.0
C732 C 0.9051 0.33762 0.31563 0.0
C733 C 0.92707 0.38261 0.31317 0.0
C734 C 0.95214 0.47539 0.32762 0.0
C735 C 0.03539 0.59519 0.32894 0.0
C736 C 0.01556 0.5475 0.3278 0.0
C737 C 0.95915 0.40901 0.32897 0.0
C738 C 0.97877 0.45666 0.32785 0.0
H739 H 0.11507 0.68592 0.30348 0.0
H740 H 0.07563 0.60719 0.29896 0.0
H741 H 0.94927 0.53421 0.32842 0.0
H742 H 0.95472 0.33004 0.36392 0.0
H743 H 0.99529 0.40935 0.35893 0.0
C744 C 0.42814 0.09433 0.65255 0.0
C745 C 0.39906 0.08511 0.67074 0.0
C746 C 0.45062 0.07183 0.65032 0.0
C747 C 0.45197 0.97314 0.66517 0.0
H748 H 0.57729 0.0468 0.66535 0.0
C749 C 0.60517 0.94955 0.68604 0.0
C750 C 0.59596 0.91468 0.67144 0.0
C751 C 0.58315 0.97264 0.68337 0.0
C752 C 0.54238 0.02595 0.66523 0.0
H753 H 0.36671 0.04224 0.69934 0.0
H754 H 0.40492 0.00119 0.6949 0.0
H755 H 0.5312 0.07972 0.66456 0.0
H756 H 0.56005 0.87911 0.64143 0.0
H757 H 0.52007 0.91786 0.63743 0.0
H758 H 0.46315 0.91936 0.66497 0.0
C759 C 0.41124 0.0268 0.6828 0.0
C760 C 0.51606 0.04467 0.66474 0.0
C761 C 0.38953 0.0502 0.68539 0.0
C762 C 0.56674 0.90508 0.65327 0.0
C763 C 0.54395 0.92724 0.65097 0.0
C764 C 0.47829 0.9544 0.66497 0.0
C765 C 0.44316 0.03861 0.66578 0.0
C766 C 0.47065 0.01843 0.66504 0.0
C767 C 0.55122 0.96053 0.66631 0.0
C768 C 0.52369 0.98066 0.66534 0.0
H769 H 0.43508 0.12032 0.64067 0.0
H770 H 0.47449 0.08098 0.63681 0.0
H771 H 0.41705 0.95229 0.66525 0.0
H772 H 0.62808 0.9578 0.69998 0.0
H773 H 0.58932 0.9983 0.69538 0.0
C774 C 0.5629 0.6629 0.65606 0.0
C775 C 0.56681 0.68436 0.6769 0.0
C776 C 0.54621 0.61798 0.6556 0.0
C777 C 0.48148 0.51874 0.6909 0.0
H778 H 0.52571 0.467 0.64802 0.0
C779 C 0.44291 0.3409 0.69734 0.0
C780 C 0.43065 0.31657 0.67695 0.0
C781 C 0.45849 0.38557 0.69686 0.0
C782 C 0.51283 0.48103 0.65995 0.0
H783 H 0.55761 0.67568 0.71368 0.0
H784 H 0.53004 0.59794 0.71299 0.0
H785 H 0.55621 0.54558 0.64826 0.0
H786 H 0.42533 0.32016 0.64006 0.0
H787 H 0.4531 0.39841 0.63927 0.0
H788 H 0.43893 0.45411 0.70294 0.0
C789 C 0.53846 0.61536 0.69687 0.0
C790 C 0.53017 0.52605 0.66007 0.0
C791 C 0.5546 0.6601 0.69729 0.0
C792 C 0.4343 0.33792 0.65608 0.0
C793 C 0.45046 0.38274 0.65558 0.0
C794 C 0.46456 0.47384 0.69096 0.0
C795 C 0.53352 0.59355 0.676 0.0
C796 C 0.51482 0.54554 0.6756 0.0
C797 C 0.46269 0.40698 0.67597 0.0
C798 C 0.4801 0.45454 0.67553 0.0
H799 H 0.5717 0.68061 0.64002 0.0
H800 H 0.54239 0.60232 0.63917 0.0
H801 H 0.46807 0.53234 0.70275 0.0
H802 H 0.44046 0.32547 0.71371 0.0
H803 H 0.46799 0.40353 0.71282 0.0
C804 C 0.10646 0.44138 0.98819 0.0
C805 C 0.11709 0.43232 0.0099 0.0
C806 C 0.07806 0.45765 0.98618 0.0
C807 C 0.04084 0.52026 0.0188 0.0
H808 H 0.94301 0.47386 0.97708 0.0
C809 C 0.90529 0.56116 0.02795 0.0
C810 C 0.88572 0.56592 0.00814 0.0
C811 C 0.93531 0.54707 0.0264 0.0
C812 C 0.97064 0.4877 0.98854 0.0
H813 H 0.10422 0.43015 0.04633 0.0
H814 H 0.05525 0.45909 0.04285 0.0
H815 H 0.99113 0.44329 0.97739 0.0
H816 H 0.88299 0.56094 0.9711 0.0
H817 H 0.93649 0.53712 0.96829 0.0
H818 H 0.02089 0.56474 0.02995 0.0
C819 C 0.06938 0.45438 0.02745 0.0
C820 C 0.99803 0.47006 0.98875 0.0
C821 C 0.0973 0.43777 0.02942 0.0
C822 C 0.89762 0.55746 0.98665 0.0
C823 C 0.92791 0.54348 0.98507 0.0
C824 C 0.0138 0.53809 0.01846 0.0
C825 C 0.06012 0.46525 0.00587 0.0
C826 C 0.03282 0.48564 0.00423 0.0
C827 C 0.94688 0.53785 0.00497 0.0
C828 C 0.97784 0.52146 0.00367 0.0
H829 H 0.12121 0.43731 0.97286 0.0
H830 H 0.07134 0.46574 0.96935 0.0
H831 H 0.06801 0.53343 0.03058 0.0
H832 H 0.89698 0.56783 0.04474 0.0
H833 H 0.94875 0.5425 0.0421 0.0
C834 C 0.3381 0.89537 0.31657 0.0
C835 C 0.31779 0.87655 0.33748 0.0
C836 C 0.38285 0.924 0.31566 0.0
C837 C 0.48427 0.9605 0.34941 0.0
H838 H 0.52993 0.05983 0.30861 0.0
C839 C 0.65688 0.10795 0.35738 0.0
C840 C 0.68158 0.12168 0.33715 0.0
C841 C 0.61283 0.07694 0.35659 0.0
C842 C 0.51759 0.03201 0.31993 0.0
H843 H 0.3284 0.87348 0.37387 0.0
H844 H 0.40585 0.92436 0.37246 0.0
H845 H 0.45223 0.00792 0.30894 0.0
H846 H 0.67932 0.11421 0.30019 0.0
H847 H 0.60185 0.06051 0.29882 0.0
H848 H 0.54967 0.98572 0.36092 0.0
C849 C 0.38768 0.91612 0.3566 0.0
C850 C 0.47311 0.00211 0.32008 0.0
C851 C 0.34311 0.88708 0.35745 0.0
C852 C 0.66117 0.10412 0.31608 0.0
C853 C 0.61687 0.0736 0.31526 0.0
C854 C 0.5286 0.99073 0.34948 0.0
C855 C 0.40823 0.93491 0.33569 0.0
C856 C 0.45579 0.96606 0.33492 0.0
C857 C 0.5924 0.05954 0.33553 0.0
C858 C 0.54562 0.02684 0.33484 0.0
H859 H 0.31953 0.8876 0.30084 0.0
H860 H 0.39755 0.93719 0.29919 0.0
H861 H 0.47241 0.93268 0.36068 0.0
H862 H 0.67168 0.12071 0.3739 0.0
H863 H 0.59457 0.06688 0.37244 0.0
C864 C 0.30212 0.20279 0.73481 0.0
C865 C 0.32429 0.17951 0.73328 0.0
C866 C 0.2834 0.20474 0.75548 0.0
C867 C 0.28926 0.19124 0.81797 0.0
H868 H 0.17715 0.18442 0.81828 0.0
C869 C 0.19718 0.17875 0.90171 0.0
C870 C 0.17845 0.20528 0.90324 0.0
C871 C 0.21402 0.17427 0.88092 0.0
C872 C 0.20864 0.18671 0.81844 0.0
H873 H 0.34417 0.13992 0.75224 0.0
H874 H 0.31119 0.14298 0.78824 0.0
H875 H 0.20834 0.17907 0.78205 0.0
H876 H 0.16179 0.24712 0.88407 0.0
H877 H 0.19151 0.23959 0.84782 0.0
H878 H 0.28947 0.19879 0.85438 0.0
C879 C 0.30868 0.16018 0.77354 0.0
C880 C 0.22655 0.18372 0.79769 0.0
C881 C 0.32739 0.15824 0.75286 0.0
C882 C 0.17642 0.22679 0.88348 0.0
C883 C 0.19303 0.22213 0.86267 0.0
C884 C 0.27128 0.19407 0.83872 0.0
C885 C 0.28653 0.18353 0.77511 0.0
C886 C 0.26715 0.18609 0.7972 0.0
C887 C 0.21222 0.19601 0.86118 0.0
C888 C 0.23084 0.192 0.83918 0.0
H889 H 0.29958 0.21996 0.72011 0.0
H890 H 0.26714 0.22355 0.75617 0.0
H891 H 0.32091 0.1939 0.81818 0.0
H892 H 0.1995 0.16204 0.91669 0.0
H893 H 0.22826 0.1536 0.88025 0.0
C894 C 0.91706 0.15537 0.20278 0.0
C895 C 0.93001 0.13635 0.21987 0.0
C896 C 0.9431 0.17493 0.18363 0.0
C897 C 0.05679 0.22261 0.16375 0.0
H898 H 0.00602 0.22483 0.10529 0.0
C899 C 0.15647 0.3028 0.08117 0.0
C900 C 0.14692 0.33272 0.07092 0.0
C901 C 0.13023 0.27567 0.09875 0.0
C902 C 0.02054 0.22445 0.12154 0.0
H903 H 0.98014 0.12185 0.22973 0.0
H904 H 0.02474 0.15436 0.1958 0.0
H905 H 0.95914 0.18073 0.13655 0.0
H906 H 0.10276 0.35788 0.0706 0.0
H907 H 0.05623 0.30976 0.1011 0.0
H908 H 0.11831 0.26603 0.14839 0.0
C909 C 0.9949 0.15518 0.19753 0.0
C910 C 0.99376 0.19939 0.13951 0.0
C911 C 0.96899 0.13596 0.21686 0.0
C912 C 0.11084 0.33521 0.07843 0.0
C913 C 0.08411 0.3075 0.09566 0.0
C914 C 0.0836 0.24716 0.14564 0.0
C915 C 0.9826 0.1755 0.18081 0.0
C916 C 0.01143 0.19882 0.16102 0.0
C917 C 0.09363 0.27757 0.106 0.0
C918 C 0.06562 0.24892 0.12455 0.0
H919 H 0.88686 0.15558 0.20426 0.0
H920 H 0.93267 0.19065 0.17135 0.0
H921 H 0.07162 0.22356 0.1801 0.0
H922 H 0.18424 0.30046 0.0756 0.0
H923 H 0.13809 0.25272 0.10642 0.0
C924 C 0.82158 0.98864 0.55474 0.0
C925 C 0.78771 0.94527 0.55597 0.0
C926 C 0.82689 0.01374 0.53524 0.0
C927 C 0.79995 0.00518 0.47369 0.0
H928 H 0.82102 0.12254 0.48077 0.0
C929 C 0.78642 0.10121 0.3977 0.0
C930 C 0.81607 0.14595 0.39633 0.0
C931 C 0.78503 0.07749 0.41708 0.0
C932 C 0.81581 0.09008 0.47845 0.0
H933 H 0.73332 0.8941 0.53751 0.0
H934 H 0.74249 0.93792 0.50351 0.0
H935 H 0.8151 0.07975 0.51467 0.0
H936 H 0.86753 0.20098 0.41424 0.0
H937 H 0.86541 0.15952 0.4481 0.0
H938 H 0.80085 0.01542 0.43752 0.0
C939 C 0.76502 0.95248 0.51761 0.0
C940 C 0.81233 0.06552 0.49791 0.0
C941 C 0.75951 0.9275 0.53717 0.0
C942 C 0.84416 0.16657 0.41485 0.0
C943 C 0.84284 0.1428 0.43427 0.0
C944 C 0.80368 0.0298 0.45424 0.0
C945 C 0.79868 0.99594 0.51644 0.0
C946 C 0.80397 0.02264 0.49576 0.0
C947 C 0.81325 0.09791 0.43563 0.0
C948 C 0.81123 0.07243 0.45636 0.0
H949 H 0.84362 0.0034 0.56902 0.0
H950 H 0.85331 0.04702 0.53481 0.0
H951 H 0.79421 0.9725 0.47145 0.0
H952 H 0.76385 0.08448 0.38388 0.0
H953 H 0.76125 0.04321 0.41764 0.0
C954 C 0.67239 0.84455 0.75304 0.0
C955 C 0.67329 0.82185 0.73355 0.0
C956 C 0.69229 0.843 0.77339 0.0
C957 C 0.7737 0.8168 0.79608 0.0
H958 H 0.71574 0.80601 0.85401 0.0
C959 C 0.8257 0.77103 0.88033 0.0
C960 C 0.82693 0.79396 0.90019 0.0
C961 C 0.80815 0.77632 0.86001 0.0
C962 C 0.73255 0.80952 0.83799 0.0
H963 H 0.69517 0.77916 0.72023 0.0
H964 H 0.72955 0.7762 0.75566 0.0
H965 H 0.68279 0.81165 0.81848 0.0
H966 H 0.81056 0.84026 0.91435 0.0
H967 H 0.78002 0.84967 0.87874 0.0
H968 H 0.82313 0.81398 0.81561 0.0
C969 C 0.71423 0.79591 0.75516 0.0
C970 C 0.71372 0.81281 0.81763 0.0
C971 C 0.69439 0.7975 0.73484 0.0
C972 C 0.81034 0.82241 0.89927 0.0
C973 C 0.79251 0.82749 0.87896 0.0
C974 C 0.79242 0.8133 0.81642 0.0
C975 C 0.71339 0.8186 0.7747 0.0
C976 C 0.73398 0.81628 0.79642 0.0
C977 C 0.79124 0.80449 0.85911 0.0
C978 C 0.77195 0.80943 0.83758 0.0
H979 H 0.6565 0.86373 0.75258 0.0
H980 H 0.69151 0.8613 0.78803 0.0
H981 H 0.79056 0.82021 0.78009 0.0
H982 H 0.83861 0.74918 0.88046 0.0
H983 H 0.80725 0.75784 0.84506 0.0
C984 C 0.07684 0.85288 0.20482 0.0
C985 C 0.05831 0.85771 0.22502 0.0
C986 C 0.05084 0.83112 0.18597 0.0
C987 C 0.98821 0.75931 0.15516 0.0
H988 H 0.88533 0.76446 0.13903 0.0
C989 C 0.87024 0.64551 0.08674 0.0
C990 C 0.85282 0.66312 0.07134 0.0
C991 C 0.89248 0.66853 0.10628 0.0
C992 C 0.91416 0.76291 0.14316 0.0
H993 H 0.99827 0.84442 0.2413 0.0
H994 H 0.95247 0.80534 0.20858 0.0
H995 H 0.93121 0.80895 0.1704 0.0
H996 H 0.8419 0.71696 0.06546 0.0
H997 H 0.88317 0.75858 0.09862 0.0
H998 H 0.97238 0.71477 0.12744 0.0
C999 C 0.98721 0.81914 0.20704 0.0
C1000 C 0.94021 0.78806 0.16137 0.0
C1001 C 0.01338 0.84145 0.22582 0.0
C1002 C 0.8565 0.70337 0.07646 0.0
C1003 C 0.87942 0.72681 0.09579 0.0
C1004 C 0.96248 0.73457 0.13687 0.0
C1005 C 0.00555 0.81306 0.187 0.0
C1006 C 0.97766 0.78665 0.16757 0.0
C1007 C 0.89827 0.70996 0.1108 0.0
C1008 C 0.92506 0.73595 0.13062 0.0
H1009 H 0.11149 0.86558 0.20369 0.0
H1010 H 0.0663 0.82814 0.17065 0.0
H1011 H 0.01628 0.75664 0.15966 0.0
H1012 H 0.86728 0.61414 0.08356 0.0
H1013 H 0.90539 0.65388 0.11778 0.0
C1014 C 0.1747 0.01816 0.55297 0.0
C1015 C 0.20997 0.06076 0.55453 0.0
C1016 C 0.16924 0.99276 0.53359 0.0
C1017 C 0.20014 7e-05 0.47262 0.0
H1018 H 0.17221 0.88063 0.48066 0.0
C1019 C 0.21448 0.90073 0.3987 0.0
C1020 C 0.18296 0.85661 0.39688 0.0
C1021 C 0.21549 0.92496 0.41774 0.0
C1022 C 0.17937 0.9137 0.47807 0.0
H1023 H 0.26665 0.11033 0.53674 0.0
H1024 H 0.25727 0.06595 0.50299 0.0
H1025 H 0.17782 0.92425 0.51412 0.0
H1026 H 0.12783 0.80315 0.41366 0.0
H1027 H 0.12942 0.84551 0.447 0.0
H1028 H 0.20166 0.98963 0.4366 0.0
C1029 C 0.23374 0.05224 0.51672 0.0
C1030 C 0.18265 0.93873 0.49727 0.0
C1031 C 0.23936 0.07752 0.53615 0.0
C1032 C 0.15267 0.83705 0.41466 0.0
C1033 C 0.15365 0.86133 0.43376 0.0
C1034 C 0.19667 0.97501 0.45343 0.0
C1035 C 0.19873 0.00948 0.51525 0.0
C1036 C 0.19348 0.98233 0.49478 0.0
C1037 C 0.18506 0.90564 0.43552 0.0
C1038 C 0.18668 0.93163 0.45591 0.0
H1039 H 0.1517 0.00417 0.56691 0.0
H1040 H 0.14175 0.96007 0.5329 0.0
H1041 H 0.20782 0.03333 0.4701 0.0
H1042 H 0.2387 0.91655 0.38546 0.0
H1043 H 0.24066 0.95874 0.41868 0.0
loop_
_geom_bond_atom_site_label_1
_geom_bond_atom_site_label_2
_geom_bond_distance
_geom_bond_site_symmetry_2
_ccdc_geom_bond_type
Eu0 N29 2.600 . S
Eu0 N35 2.562 1_556 S
Eu0 O44 2.462 . S
Eu0 O45 2.373 1_556 S
Eu0 O47 2.432 . S
Eu0 O48 2.291 1_556 S
Eu0 O52 2.335 . S
Eu0 O55 2.372 . S
Eu0 C64 2.787 . S
C1 N2 1.365 . S
C1 C4 1.405 . S
C1 C8 1.448 . S
N2 C1 1.365 . S
N2 C5 1.319 . S
N2 Eu11 2.600 . S
C3 C5 1.397 . S
C3 C6 1.367 . S
C3 H23 0.931 . S
C4 C1 1.405 . S
C4 C6 1.403 . S
C4 C10 1.439 . S
C5 N2 1.319 . S
C5 C3 1.397 . S
C5 H16 0.930 . S
C6 C3 1.367 . S
C6 C4 1.403 . S
C6 H27 0.929 . S
C7 C8 1.430 . S
C7 C9 1.392 . S
C7 C13 1.404 1_554 S
C8 C1 1.448 . S
C8 C7 1.430 . S
C8 N12 1.351 . S
C9 C7 1.392 . S
C9 C10 1.385 . S
C9 H24 0.916 1_554 S
C10 C4 1.439 . S
C10 C9 1.385 . S
C10 H25 0.931 . S
Eu11 N2 2.600 . S
Eu11 N12 2.562 . S
Eu11 O46 2.335 . S
Eu11 O49 2.372 . S
Eu11 O50 2.462 . S
Eu11 O51 2.373 1_554 S
Eu11 O53 2.432 . S
Eu11 O54 2.291 . S
Eu11 C75 2.787 . S
N12 C8 1.351 . S
N12 Eu11 2.562 . S
N12 C14 1.325 . S
C13 C7 1.404 1_556 S
C13 C15 1.363 1_556 S
C13 H21 0.930 . S
C14 N12 1.325 . S
C14 C15 1.424 . S
C14 H20 0.929 . S
C15 C13 1.363 1_554 S
C15 C14 1.424 . S
C15 H17 0.925 1_554 S
H16 C5 0.930 . S
H17 C15 0.925 1_556 S
H18 C33 0.930 . S
H19 C40 0.930 . S
H20 C14 0.929 . S
H21 C13 0.930 . S
H22 C36 0.929 . S
H23 C3 0.931 . S
H24 C9 0.916 1_556 S
H25 C10 0.931 . S
H26 C31 0.931 . S
H27 C6 0.929 . S
H28 C39 0.930 . S
N29 Eu0 2.600 . S
N29 C30 1.365 1_556 S
N29 C33 1.319 . S
C30 N29 1.365 1_554 S
C30 C32 1.405 . S
C30 C38 1.448 . S
C31 H26 0.931 . S
C31 C33 1.397 . S
C31 C34 1.367 1_556 S
C32 C30 1.405 . S
C32 C34 1.403 . S
C32 C65 1.439 . S
C33 H18 0.930 . S
C33 N29 1.319 . S
C33 C31 1.397 . S
C34 C31 1.367 1_554 S
C34 C32 1.403 . S
C34 H41 0.929 1_455 S
N35 Eu0 2.562 1_554 S
N35 C36 1.325 . S
N35 C38 1.351 . S
C36 H22 0.929 . S
C36 N35 1.325 . S
C36 C40 1.416 . S
C37 C38 1.430 . S
C37 C39 1.404 . S
C37 C66 1.387 . S
C38 C30 1.448 . S
C38 N35 1.351 . S
C38 C37 1.430 . S
C39 H28 0.930 . S
C39 C37 1.404 . S
C39 C40 1.366 . S
C40 H19 0.930 . S
C40 C36 1.416 . S
C40 C39 1.366 . S
H41 C34 0.929 1_655 S
H42 C65 0.931 . S
H43 C66 0.931 . S
O44 Eu0 2.462 . S
O44 C64 1.252 . S
O45 Eu0 2.373 1_554 S
O45 C56 1.249 . S
O46 Eu11 2.335 . S
O46 C56 1.264 . S
O47 Eu0 2.432 . S
O47 C64 1.268 . S
O48 Eu0 2.291 1_554 S
O48 C63 1.255 . S
O49 Eu11 2.372 . S
O49 C63 1.257 . S
O50 Eu11 2.462 . S
O50 C75 1.252 . S
O51 Eu11 2.373 1_556 S
O51 C67 1.249 . S
O52 Eu0 2.335 . S
O52 C67 1.264 . S
O53 Eu11 2.432 . S
O53 C75 1.268 . S
O54 Eu11 2.291 . S
O54 C74 1.255 . S
O55 Eu0 2.372 . S
O55 C74 1.257 1_556 S
C56 O45 1.249 . S
C56 O46 1.264 . S
C57 C60 1.382 . S
C57 C62 1.390 . S
C57 C64 1.506 . S
C58 C59 1.398 . S
C58 C62 1.392 . S
C59 C58 1.398 . S
C59 C61 1.372 . S
C59 H76 0.931 . S
C60 C57 1.382 . S
C60 C61 1.390 . S
C60 H77 0.931 . S
C61 C59 1.372 . S
C61 C60 1.390 . S
C61 H78 0.929 . S
C62 C57 1.390 . S
C62 C58 1.392 . S
C62 H79 0.930 . S
C63 O48 1.255 . S
C63 O49 1.257 . S
C64 Eu0 2.787 . S
C64 O44 1.252 . S
C64 O47 1.268 . S
C64 C57 1.506 . S
C65 C32 1.439 . S
C65 H42 0.931 . S
C65 C66 1.374 . S
C66 C37 1.387 . S
C66 H43 0.931 . S
C66 C65 1.374 . S
C67 O51 1.249 . S
C67 O52 1.264 . S
C68 C71 1.382 . S
C68 C72 1.390 . S
C68 C75 1.506 . S
C69 C70 1.398 . S
C69 C72 1.392 . S
C70 C69 1.398 . S
C70 C73 1.372 . S
C70 H80 0.931 . S
C71 C68 1.382 . S
C71 C73 1.390 . S
C71 H81 0.931 . S
C72 C68 1.390 . S
C72 C69 1.392 . S
C72 H82 0.930 . S
C73 C70 1.372 . S
C73 C71 1.390 . S
C73 H83 0.929 . S
C74 O54 1.255 . S
C74 O55 1.257 1_554 S
C75 Eu11 2.787 . S
C75 O50 1.252 . S
C75 O53 1.268 . S
C75 C68 1.506 . S
H76 C59 0.931 . S
H77 C60 0.931 . S
H78 C61 0.929 . S
H79 C62 0.930 . S
H80 C70 0.931 . S
H81 C71 0.931 . S
H82 C72 0.930 . S
H83 C73 0.929 . S
Eu84 N113 2.600 . S
Eu84 N119 2.562 . S
Eu84 O128 2.462 . S
Eu84 O129 2.373 . S
Eu84 O131 2.432 . S
Eu84 O132 2.291 . S
Eu84 O136 2.335 . S
Eu84 O139 2.372 . S
Eu84 C148 2.787 . S
C85 N86 1.365 . S
C85 C88 1.405 . S
C85 C92 1.448 . S
N86 C85 1.365 . S
N86 C89 1.319 . S
N86 Eu95 2.600 . S
C87 C89 1.397 . S
C87 C90 1.367 . S
C87 H107 0.931 . S
C88 C85 1.405 . S
C88 C90 1.403 . S
C88 C94 1.439 . S
C89 N86 1.319 . S
C89 C87 1.397 . S
C89 H100 0.930 . S
C90 C87 1.367 . S
C90 C88 1.403 . S
C90 H111 0.929 . S
C91 C92 1.430 . S
C91 C93 1.387 . S
C91 C97 1.404 . S
C92 C85 1.448 . S
C92 C91 1.430 . S
C92 N96 1.351 . S
C93 C91 1.387 . S
C93 C94 1.374 . S
C93 H108 0.931 . S
C94 C88 1.439 . S
C94 C93 1.374 . S
C94 H109 0.931 . S
Eu95 N86 2.600 . S
Eu95 N96 2.562 . S
Eu95 O130 2.335 . S
Eu95 O133 2.372 . S
Eu95 O134 2.462 . S
Eu95 O135 2.373 . S
Eu95 O137 2.432 . S
Eu95 O138 2.291 . S
Eu95 C159 2.787 . S
N96 C92 1.351 . S
N96 Eu95 2.562 . S
N96 C98 1.325 . S
C97 C91 1.404 . S
C97 C99 1.366 . S
C97 H105 0.930 . S
C98 N96 1.325 . S
C98 C99 1.416 . S
C98 H104 0.929 . S
C99 C97 1.366 . S
C99 C98 1.416 . S
C99 H101 0.930 . S
H100 C89 0.930 . S
H101 C99 0.930 . S
H102 C117 0.930 . S
H103 C124 0.930 . S
H104 C98 0.929 . S
H105 C97 0.930 . S
H106 C120 0.929 . S
H107 C87 0.931 . S
H108 C93 0.931 . S
H109 C94 0.931 . S
H110 C115 0.931 . S
H111 C90 0.929 . S
H112 C123 0.930 . S
N113 Eu84 2.600 . S
N113 C114 1.365 . S
N113 C117 1.319 . S
C114 N113 1.365 . S
C114 C116 1.405 . S
C114 C122 1.448 . S
C115 H110 0.931 . S
C115 C117 1.397 . S
C115 C118 1.367 . S
C116 C114 1.405 . S
C116 C118 1.403 . S
C116 C149 1.439 . S
C117 H102 0.930 . S
C117 N113 1.319 . S
C117 C115 1.397 . S
C118 C115 1.367 . S
C118 C116 1.403 . S
C118 H125 0.929 1_545 S
N119 Eu84 2.562 . S
N119 C120 1.325 . S
N119 C122 1.351 . S
C120 H106 0.929 . S
C120 N119 1.325 . S
C120 C124 1.416 . S
C121 C122 1.430 . S
C121 C123 1.404 . S
C121 C150 1.387 . S
C122 C114 1.448 . S
C122 N119 1.351 . S
C122 C121 1.430 . S
C123 H112 0.930 . S
C123 C121 1.404 . S
C123 C124 1.366 . S
C124 H103 0.930 . S
C124 C120 1.416 . S
C124 C123 1.366 . S
H125 C118 0.929 1_565 S
H126 C149 0.931 . S
H127 C150 0.931 . S
O128 Eu84 2.462 . S
O128 C148 1.252 . S
O129 Eu84 2.373 . S
O129 C140 1.249 . S
O130 Eu95 2.335 . S
O130 C140 1.264 . S
O131 Eu84 2.432 . S
O131 C148 1.268 . S
O132 Eu84 2.291 . S
O132 C147 1.255 . S
O133 Eu95 2.372 . S
O133 C147 1.257 . S
O134 Eu95 2.462 . S
O134 C159 1.252 . S
O135 Eu95 2.373 . S
O135 C151 1.249 . S
O136 Eu84 2.335 . S
O136 C151 1.264 . S
O137 Eu95 2.432 . S
O137 C159 1.268 . S
O138 Eu95 2.291 . S
O138 C158 1.255 . S
O139 Eu84 2.372 . S
O139 C158 1.257 . S
C140 O129 1.249 . S
C140 O130 1.264 . S
C141 C144 1.382 . S
C141 C146 1.390 . S
C141 C148 1.506 . S
C142 C143 1.398 . S
C142 C146 1.392 . S
C143 C142 1.398 . S
C143 C145 1.372 . S
C143 H160 0.931 . S
C144 C141 1.382 . S
C144 C145 1.390 . S
C144 H161 0.931 . S
C145 C143 1.372 . S
C145 C144 1.390 . S
C145 H162 0.929 . S
C146 C141 1.390 . S
C146 C142 1.392 . S
C146 H163 0.930 . S
C147 O132 1.255 . S
C147 O133 1.257 . S
C148 Eu84 2.787 . S
C148 O128 1.252 . S
C148 O131 1.268 . S
C148 C141 1.506 . S
C149 C116 1.439 . S
C149 H126 0.931 . S
C149 C150 1.374 . S
C150 C121 1.387 . S
C150 H127 0.931 . S
C150 C149 1.374 . S
C151 O135 1.249 . S
C151 O136 1.264 . S
C152 C155 1.382 . S
C152 C156 1.390 . S
C152 C159 1.506 . S
C153 C154 1.398 . S
C153 C156 1.392 . S
C154 C153 1.398 . S
C154 C157 1.372 . S
C154 H164 0.931 . S
C155 C152 1.382 . S
C155 C157 1.390 . S
C155 H165 0.931 . S
C156 C152 1.390 . S
C156 C153 1.392 . S
C156 H166 0.930 . S
C157 C154 1.372 . S
C157 C155 1.390 . S
C157 H167 0.929 . S
C158 O138 1.255 . S
C158 O139 1.257 . S
C159 Eu95 2.787 . S
C159 O134 1.252 . S
C159 O137 1.268 . S
C159 C152 1.506 . S
H160 C143 0.931 . S
H161 C144 0.931 . S
H162 C145 0.929 . S
H163 C146 0.930 . S
H164 C154 0.931 . S
H165 C155 0.931 . S
H166 C156 0.930 . S
H167 C157 0.929 . S
Eu168 N197 2.600 . S
Eu168 N203 2.562 . S
Eu168 O212 2.462 . S
Eu168 O213 2.373 . S
Eu168 O215 2.432 . S
Eu168 O216 2.291 . S
Eu168 O220 2.335 . S
Eu168 O223 2.372 . S
Eu168 C232 2.787 . S
C169 N170 1.365 . S
C169 C172 1.405 . S
C169 C176 1.448 . S
N170 C169 1.365 . S
N170 C173 1.319 . S
N170 Eu179 2.600 . S
C171 C173 1.397 . S
C171 C174 1.367 . S
C171 H191 0.931 . S
C172 C169 1.405 . S
C172 C174 1.403 . S
C172 C178 1.439 . S
C173 N170 1.319 . S
C173 C171 1.397 . S
C173 H184 0.930 . S
C174 C171 1.367 . S
C174 C172 1.403 . S
C174 H195 0.929 . S
C175 C176 1.430 . S
C175 C177 1.387 . S
C175 C181 1.404 . S
C176 C169 1.448 . S
C176 C175 1.430 . S
C176 N180 1.351 . S
C177 C175 1.387 . S
C177 C178 1.374 . S
C177 H192 0.931 . S
C178 C172 1.439 . S
C178 C177 1.374 . S
C178 H193 0.931 . S
Eu179 N170 2.600 . S
Eu179 N180 2.562 . S
Eu179 O214 2.335 . S
Eu179 O217 2.372 . S
Eu179 O218 2.462 . S
Eu179 O219 2.373 . S
Eu179 O221 2.432 . S
Eu179 O222 2.291 . S
Eu179 C243 2.787 . S
N180 C176 1.351 . S
N180 Eu179 2.562 . S
N180 C182 1.325 . S
C181 C175 1.404 . S
C181 C183 1.366 . S
C181 H189 0.930 . S
C182 N180 1.325 . S
C182 C183 1.416 . S
C182 H188 0.929 . S
C183 C181 1.366 . S
C183 C182 1.416 . S
C183 H185 0.930 . S
H184 C173 0.930 . S
H185 C183 0.930 . S
H186 C201 0.930 . S
H187 C208 0.930 . S
H188 C182 0.929 . S
H189 C181 0.930 . S
H190 C204 0.929 . S
H191 C171 0.931 . S
H192 C177 0.931 . S
H193 C178 0.931 . S
H194 C199 0.931 . S
H195 C174 0.929 . S
H196 C207 0.930 . S
N197 Eu168 2.600 . S
N197 C198 1.365 . S
N197 C201 1.319 . S
C198 N197 1.365 . S
C198 C200 1.405 . S
C198 C206 1.448 . S
C199 H194 0.931 . S
C199 C201 1.397 . S
C199 C202 1.367 . S
C200 C198 1.405 . S
C200 C202 1.403 . S
C200 C233 1.439 . S
C201 H186 0.930 . S
C201 N197 1.319 . S
C201 C199 1.397 . S
C202 C199 1.367 . S
C202 C200 1.403 . S
C202 H209 0.929 . S
N203 Eu168 2.562 . S
N203 C204 1.325 . S
N203 C206 1.351 . S
C204 H190 0.929 . S
C204 N203 1.325 . S
C204 C208 1.416 . S
C205 C206 1.430 . S
C205 C207 1.404 . S
C205 C234 1.387 . S
C206 C198 1.448 . S
C206 N203 1.351 . S
C206 C205 1.430 . S
C207 H196 0.930 . S
C207 C205 1.404 . S
C207 C208 1.366 . S
C208 H187 0.930 . S
C208 C204 1.416 . S
C208 C207 1.366 . S
H209 C202 0.929 . S
H210 C233 0.931 . S
H211 C234 0.931 . S
O212 Eu168 2.462 . S
O212 C232 1.252 . S
O213 Eu168 2.373 . S
O213 C224 1.249 . S
O214 Eu179 2.335 . S
O214 C224 1.264 . S
O215 Eu168 2.432 . S
O215 C232 1.268 . S
O216 Eu168 2.291 . S
O216 C231 1.255 . S
O217 Eu179 2.372 . S
O217 C231 1.257 . S
O218 Eu179 2.462 . S
O218 C243 1.252 . S
O219 Eu179 2.373 . S
O219 C235 1.249 . S
O220 Eu168 2.335 . S
O220 C235 1.264 . S
O221 Eu179 2.432 . S
O221 C243 1.268 . S
O222 Eu179 2.291 . S
O222 C242 1.255 . S
O223 Eu168 2.372 . S
O223 C242 1.257 . S
C224 O213 1.249 . S
C224 O214 1.264 . S
C225 C228 1.382 . S
C225 C230 1.390 . S
C225 C232 1.506 . S
C226 C227 1.398 . S
C226 C230 1.392 . S
C227 C226 1.398 . S
C227 C229 1.372 . S
C227 H244 0.931 . S
C228 C225 1.382 . S
C228 C229 1.390 . S
C228 H245 0.931 . S
C229 C227 1.372 . S
C229 C228 1.390 . S
C229 H246 0.929 . S
C230 C225 1.390 . S
C230 C226 1.392 . S
C230 H247 0.930 . S
C231 O216 1.255 . S
C231 O217 1.257 . S
C232 Eu168 2.787 . S
C232 O212 1.252 . S
C232 O215 1.268 . S
C232 C225 1.506 . S
C233 C200 1.439 . S
C233 H210 0.931 . S
C233 C234 1.374 . S
C234 C205 1.387 . S
C234 H211 0.931 . S
C234 C233 1.374 . S
C235 O219 1.249 . S
C235 O220 1.264 . S
C236 C239 1.382 . S
C236 C240 1.390 . S
C236 C243 1.506 . S
C237 C238 1.398 . S
C237 C240 1.392 . S
C238 C237 1.398 . S
C238 C241 1.372 . S
C238 H248 0.931 . S
C239 C236 1.382 . S
C239 C241 1.390 . S
C239 H249 0.931 . S
C240 C236 1.390 . S
C240 C237 1.392 . S
C240 H250 0.930 . S
C241 C238 1.372 . S
C241 C239 1.390 . S
C241 H251 0.929 . S
C242 O222 1.255 . S
C242 O223 1.257 . S
C243 Eu179 2.787 . S
C243 O218 1.252 . S
C243 O221 1.268 . S
C243 C236 1.506 . S
H244 C227 0.931 . S
H245 C228 0.931 . S
H246 C229 0.929 . S
H247 C230 0.930 . S
H248 C238 0.931 . S
H249 C239 0.931 . S
H250 C240 0.930 . S
H251 C241 0.929 . S
Eu252 N281 2.600 . S
Eu252 N287 2.562 1_556 S
Eu252 O296 2.462 . S
Eu252 O297 2.373 1_556 S
Eu252 O299 2.432 . S
Eu252 O300 2.291 1_556 S
Eu252 O304 2.335 . S
Eu252 O307 2.372 . S
Eu252 C316 2.787 . S
C253 N254 1.365 . S
C253 C256 1.405 . S
C253 C260 1.448 . S
N254 C253 1.365 . S
N254 C257 1.319 . S
N254 Eu263 2.600 . S
C255 C257 1.397 . S
C255 C258 1.367 . S
C255 H275 0.931 . S
C256 C253 1.405 . S
C256 C258 1.403 . S
C256 C262 1.439 . S
C257 N254 1.319 . S
C257 C255 1.397 . S
C257 H268 0.930 . S
C258 C255 1.367 . S
C258 C256 1.403 . S
C258 H279 0.929 . S
C259 C260 1.430 . S
C259 C261 1.392 . S
C259 C265 1.404 1_554 S
C260 C253 1.448 . S
C260 C259 1.430 . S
C260 N264 1.351 . S
C261 C259 1.392 . S
C261 C262 1.385 . S
C261 H276 0.916 1_554 S
C262 C256 1.439 . S
C262 C261 1.385 . S
C262 H277 0.931 . S
Eu263 N254 2.600 . S
Eu263 N264 2.562 . S
Eu263 O298 2.335 . S
Eu263 O301 2.372 . S
Eu263 O302 2.462 . S
Eu263 O303 2.373 1_554 S
Eu263 O305 2.432 . S
Eu263 O306 2.291 . S
Eu263 C327 2.787 . S
N264 C260 1.351 . S
N264 Eu263 2.562 . S
N264 C266 1.325 . S
C265 C259 1.404 1_556 S
C265 C267 1.363 1_556 S
C265 H273 0.930 . S
C266 N264 1.325 . S
C266 C267 1.424 . S
C266 H272 0.929 . S
C267 C265 1.363 1_554 S
C267 C266 1.424 . S
C267 H269 0.925 1_554 S
H268 C257 0.930 . S
H269 C267 0.925 1_556 S
H270 C285 0.930 . S
H271 C292 0.930 . S
H272 C266 0.929 . S
H273 C265 0.930 . S
H274 C288 0.929 . S
H275 C255 0.931 . S
H276 C261 0.916 1_556 S
H277 C262 0.931 . S
H278 C283 0.931 . S
H279 C258 0.929 . S
H280 C291 0.930 . S
N281 Eu252 2.600 . S
N281 C282 1.365 1_556 S
N281 C285 1.319 . S
C282 N281 1.365 1_554 S
C282 C284 1.405 . S
C282 C290 1.448 . S
C283 H278 0.931 . S
C283 C285 1.397 . S
C283 C286 1.367 1_556 S
C284 C282 1.405 . S
C284 C286 1.403 . S
C284 C317 1.439 . S
C285 H270 0.930 . S
C285 N281 1.319 . S
C285 C283 1.397 . S
C286 C283 1.367 1_554 S
C286 C284 1.403 . S
C286 H293 0.929 1_655 S
N287 Eu252 2.562 1_554 S
N287 C288 1.325 . S
N287 C290 1.351 . S
C288 H274 0.929 . S
C288 N287 1.325 . S
C288 C292 1.416 . S
C289 C290 1.430 . S
C289 C291 1.404 . S
C289 C318 1.387 . S
C290 C282 1.448 . S
C290 N287 1.351 . S
C290 C289 1.430 . S
C291 H280 0.930 . S
C291 C289 1.404 . S
C291 C292 1.366 . S
C292 H271 0.930 . S
C292 C288 1.416 . S
C292 C291 1.366 . S
H293 C286 0.929 1_455 S
H294 C317 0.931 . S
H295 C318 0.931 . S
O296 Eu252 2.462 . S
O296 C316 1.252 . S
O297 Eu252 2.373 1_554 S
O297 C308 1.249 . S
O298 Eu263 2.335 . S
O298 C308 1.264 . S
O299 Eu252 2.432 . S
O299 C316 1.268 . S
O300 Eu252 2.291 1_554 S
O300 C315 1.255 . S
O301 Eu263 2.372 . S
O301 C315 1.257 . S
O302 Eu263 2.462 . S
O302 C327 1.252 . S
O303 Eu263 2.373 1_556 S
O303 C319 1.249 . S
O304 Eu252 2.335 . S
O304 C319 1.264 . S
O305 Eu263 2.432 . S
O305 C327 1.268 . S
O306 Eu263 2.291 . S
O306 C326 1.255 . S
O307 Eu252 2.372 . S
O307 C326 1.257 1_556 S
C308 O297 1.249 . S
C308 O298 1.264 . S
C309 C312 1.382 . S
C309 C314 1.390 . S
C309 C316 1.506 . S
C310 C311 1.398 . S
C310 C314 1.392 . S
C311 C310 1.398 . S
C311 C313 1.372 . S
C311 H328 0.931 . S
C312 C309 1.382 . S
C312 C313 1.390 . S
C312 H329 0.931 . S
C313 C311 1.372 . S
C313 C312 1.390 . S
C313 H330 0.929 . S
C314 C309 1.390 . S
C314 C310 1.392 . S
C314 H331 0.930 . S
C315 O300 1.255 . S
C315 O301 1.257 . S
C316 Eu252 2.787 . S
C316 O296 1.252 . S
C316 O299 1.268 . S
C316 C309 1.506 . S
C317 C284 1.439 . S
C317 H294 0.931 . S
C317 C318 1.374 . S
C318 C289 1.387 . S
C318 H295 0.931 . S
C318 C317 1.374 . S
C319 O303 1.249 . S
C319 O304 1.264 . S
C320 C323 1.382 . S
C320 C324 1.390 . S
C320 C327 1.506 . S
C321 C322 1.398 . S
C321 C324 1.392 . S
C322 C321 1.398 . S
C322 C325 1.372 . S
C322 H332 0.931 . S
C323 C320 1.382 . S
C323 C325 1.390 . S
C323 H333 0.931 . S
C324 C320 1.390 . S
C324 C321 1.392 . S
C324 H334 0.930 . S
C325 C322 1.372 . S
C325 C323 1.390 . S
C325 H335 0.929 . S
C326 O306 1.255 . S
C326 O307 1.257 1_554 S
C327 Eu263 2.787 . S
C327 O302 1.252 . S
C327 O305 1.268 . S
C327 C320 1.506 . S
H328 C311 0.931 . S
H329 C312 0.931 . S
H330 C313 0.929 . S
H331 C314 0.930 . S
H332 C322 0.931 . S
H333 C323 0.931 . S
H334 C324 0.930 . S
H335 C325 0.929 . S
Eu336 N365 2.600 . S
Eu336 N371 2.562 . S
Eu336 O380 2.462 . S
Eu336 O381 2.373 . S
Eu336 O383 2.432 . S
Eu336 O384 2.291 . S
Eu336 O388 2.335 . S
Eu336 O391 2.372 . S
Eu336 C400 2.787 . S
C337 N338 1.365 . S
C337 C340 1.405 . S
C337 C344 1.448 . S
N338 C337 1.365 . S
N338 C341 1.319 . S
N338 Eu347 2.600 . S
C339 C341 1.397 . S
C339 C342 1.367 . S
C339 H359 0.931 . S
C340 C337 1.405 . S
C340 C342 1.403 . S
C340 C346 1.439 . S
C341 N338 1.319 . S
C341 C339 1.397 . S
C341 H352 0.930 . S
C342 C339 1.367 . S
C342 C340 1.403 . S
C342 H363 0.929 . S
C343 C344 1.430 . S
C343 C345 1.387 . S
C343 C349 1.404 . S
C344 C337 1.448 . S
C344 C343 1.430 . S
C344 N348 1.351 . S
C345 C343 1.387 . S
C345 C346 1.374 . S
C345 H360 0.931 . S
C346 C340 1.439 . S
C346 C345 1.374 . S
C346 H361 0.931 . S
Eu347 N338 2.600 . S
Eu347 N348 2.562 . S
Eu347 O382 2.335 . S
Eu347 O385 2.372 . S
Eu347 O386 2.462 . S
Eu347 O387 2.373 . S
Eu347 O389 2.432 . S
Eu347 O390 2.291 . S
Eu347 C411 2.787 . S
N348 C344 1.351 . S
N348 Eu347 2.562 . S
N348 C350 1.325 . S
C349 C343 1.404 . S
C349 C351 1.366 . S
C349 H357 0.930 . S
C350 N348 1.325 . S
C350 C351 1.416 . S
C350 H356 0.929 . S
C351 C349 1.366 . S
C351 C350 1.416 . S
C351 H353 0.930 . S
H352 C341 0.930 . S
H353 C351 0.930 . S
H354 C369 0.930 . S
H355 C376 0.930 . S
H356 C350 0.929 . S
H357 C349 0.930 . S
H358 C372 0.929 . S
H359 C339 0.931 . S
H360 C345 0.931 . S
H361 C346 0.931 . S
H362 C367 0.931 . S
H363 C342 0.929 . S
H364 C375 0.930 . S
N365 Eu336 2.600 . S
N365 C366 1.365 . S
N365 C369 1.319 . S
C366 N365 1.365 . S
C366 C368 1.405 . S
C366 C374 1.448 . S
C367 H362 0.931 . S
C367 C369 1.397 . S
C367 C370 1.367 . S
C368 C366 1.405 . S
C368 C370 1.403 . S
C368 C401 1.439 . S
C369 H354 0.930 . S
C369 N365 1.319 . S
C369 C367 1.397 . S
C370 C367 1.367 . S
C370 C368 1.403 . S
C370 H377 0.929 1_565 S
N371 Eu336 2.562 . S
N371 C372 1.325 . S
N371 C374 1.351 . S
C372 H358 0.929 . S
C372 N371 1.325 . S
C372 C376 1.416 . S
C373 C374 1.430 . S
C373 C375 1.404 . S
C373 C402 1.387 . S
C374 C366 1.448 . S
C374 N371 1.351 . S
C374 C373 1.430 . S
C375 H364 0.930 . S
C375 C373 1.404 . S
C375 C376 1.366 . S
C376 H355 0.930 . S
C376 C372 1.416 . S
C376 C375 1.366 . S
H377 C370 0.929 1_545 S
H378 C401 0.931 . S
H379 C402 0.931 . S
O380 Eu336 2.462 . S
O380 C400 1.252 . S
O381 Eu336 2.373 . S
O381 C392 1.249 . S
O382 Eu347 2.335 . S
O382 C392 1.264 . S
O383 Eu336 2.432 . S
O383 C400 1.268 . S
O384 Eu336 2.291 . S
O384 C399 1.255 . S
O385 Eu347 2.372 . S
O385 C399 1.257 . S
O386 Eu347 2.462 . S
O386 C411 1.252 . S
O387 Eu347 2.373 . S
O387 C403 1.249 . S
O388 Eu336 2.335 . S
O388 C403 1.264 . S
O389 Eu347 2.432 . S
O389 C411 1.268 . S
O390 Eu347 2.291 . S
O390 C410 1.255 . S
O391 Eu336 2.372 . S
O391 C410 1.257 . S
C392 O381 1.249 . S
C392 O382 1.264 . S
C393 C396 1.382 . S
C393 C398 1.390 . S
C393 C400 1.506 . S
C394 C395 1.398 . S
C394 C398 1.392 . S
C395 C394 1.398 . S
C395 C397 1.372 . S
C395 H412 0.931 . S
C396 C393 1.382 . S
C396 C397 1.390 . S
C396 H413 0.931 . S
C397 C395 1.372 . S
C397 C396 1.390 . S
C397 H414 0.929 . S
C398 C393 1.390 . S
C398 C394 1.392 . S
C398 H415 0.930 . S
C399 O384 1.255 . S
C399 O385 1.257 . S
C400 Eu336 2.787 . S
C400 O380 1.252 . S
C400 O383 1.268 . S
C400 C393 1.506 . S
C401 C368 1.439 . S
C401 H378 0.931 . S
C401 C402 1.374 . S
C402 C373 1.387 . S
C402 H379 0.931 . S
C402 C401 1.374 . S
C403 O387 1.249 . S
C403 O388 1.264 . S
C404 C407 1.382 . S
C404 C408 1.390 . S
C404 C411 1.506 . S
C405 C406 1.398 . S
C405 C408 1.392 . S
C406 C405 1.398 . S
C406 C409 1.372 . S
C406 H416 0.931 . S
C407 C404 1.382 . S
C407 C409 1.390 . S
C407 H417 0.931 . S
C408 C404 1.390 . S
C408 C405 1.392 . S
C408 H418 0.930 . S
C409 C406 1.372 . S
C409 C407 1.390 . S
C409 H419 0.929 . S
C410 O390 1.255 . S
C410 O391 1.257 . S
C411 Eu347 2.787 . S
C411 O386 1.252 . S
C411 O389 1.268 . S
C411 C404 1.506 . S
H412 C395 0.931 . S
H413 C396 0.931 . S
H414 C397 0.929 . S
H415 C398 0.930 . S
H416 C406 0.931 . S
H417 C407 0.931 . S
H418 C408 0.930 . S
H419 C409 0.929 . S
Eu420 N449 2.600 . S
Eu420 N455 2.562 . S
Eu420 O464 2.462 . S
Eu420 O465 2.373 . S
Eu420 O467 2.432 . S
Eu420 O468 2.291 . S
Eu420 O472 2.335 . S
Eu420 O475 2.372 . S
Eu420 C484 2.787 . S
C421 N422 1.365 . S
C421 C424 1.405 . S
C421 C428 1.448 . S
N422 C421 1.365 . S
N422 C425 1.319 . S
N422 Eu431 2.600 . S
C423 C425 1.397 . S
C423 C426 1.367 . S
C423 H443 0.931 . S
C424 C421 1.405 . S
C424 C426 1.403 . S
C424 C430 1.439 . S
C425 N422 1.319 . S
C425 C423 1.397 . S
C425 H436 0.930 . S
C426 C423 1.367 . S
C426 C424 1.403 . S
C426 H447 0.929 . S
C427 C428 1.430 . S
C427 C429 1.387 . S
C427 C433 1.404 . S
C428 C421 1.448 . S
C428 C427 1.430 . S
C428 N432 1.351 . S
C429 C427 1.387 . S
C429 C430 1.374 . S
C429 H444 0.931 . S
C430 C424 1.439 . S
C430 C429 1.374 . S
C430 H445 0.931 . S
Eu431 N422 2.600 . S
Eu431 N432 2.562 . S
Eu431 O466 2.335 . S
Eu431 O469 2.372 . S
Eu431 O470 2.462 . S
Eu431 O471 2.373 . S
Eu431 O473 2.432 . S
Eu431 O474 2.291 . S
Eu431 C495 2.787 . S
N432 C428 1.351 . S
N432 Eu431 2.562 . S
N432 C434 1.325 . S
C433 C427 1.404 . S
C433 C435 1.366 . S
C433 H441 0.930 . S
C434 N432 1.325 . S
C434 C435 1.416 . S
C434 H440 0.929 . S
C435 C433 1.366 . S
C435 C434 1.416 . S
C435 H437 0.930 . S
H436 C425 0.930 . S
H437 C435 0.930 . S
H438 C453 0.930 . S
H439 C460 0.930 . S
H440 C434 0.929 . S
H441 C433 0.930 . S
H442 C456 0.929 . S
H443 C423 0.931 . S
H444 C429 0.931 . S
H445 C430 0.931 . S
H446 C451 0.931 . S
H447 C426 0.929 . S
H448 C459 0.930 . S
N449 Eu420 2.600 . S
N449 C450 1.365 . S
N449 C453 1.319 . S
C450 N449 1.365 . S
C450 C452 1.405 . S
C450 C458 1.448 . S
C451 H446 0.931 . S
C451 C453 1.397 . S
C451 C454 1.367 . S
C452 C450 1.405 . S
C452 C454 1.403 . S
C452 C485 1.439 . S
C453 H438 0.930 . S
C453 N449 1.319 . S
C453 C451 1.397 . S
C454 C451 1.367 . S
C454 C452 1.403 . S
C454 H461 0.929 . S
N455 Eu420 2.562 . S
N455 C456 1.325 . S
N455 C458 1.351 . S
C456 H442 0.929 . S
C456 N455 1.325 . S
C456 C460 1.416 . S
C457 C458 1.430 . S
C457 C459 1.404 . S
C457 C486 1.387 . S
C458 C450 1.448 . S
C458 N455 1.351 . S
C458 C457 1.430 . S
C459 H448 0.930 . S
C459 C457 1.404 . S
C459 C460 1.366 . S
C460 H439 0.930 . S
C460 C456 1.416 . S
C460 C459 1.366 . S
H461 C454 0.929 . S
H462 C485 0.931 . S
H463 C486 0.931 . S
O464 Eu420 2.462 . S
O464 C484 1.252 . S
O465 Eu420 2.373 . S
O465 C476 1.249 . S
O466 Eu431 2.335 . S
O466 C476 1.264 . S
O467 Eu420 2.432 . S
O467 C484 1.268 . S
O468 Eu420 2.291 . S
O468 C483 1.255 . S
O469 Eu431 2.372 . S
O469 C483 1.257 . S
O470 Eu431 2.462 . S
O470 C495 1.252 . S
O471 Eu431 2.373 . S
O471 C487 1.249 . S
O472 Eu420 2.335 . S
O472 C487 1.264 . S
O473 Eu431 2.432 . S
O473 C495 1.268 . S
O474 Eu431 2.291 . S
O474 C494 1.255 . S
O475 Eu420 2.372 . S
O475 C494 1.257 . S
C476 O465 1.249 . S
C476 O466 1.264 . S
C477 C480 1.382 . S
C477 C482 1.390 . S
C477 C484 1.506 . S
C478 C479 1.398 . S
C478 C482 1.392 . S
C479 C478 1.398 . S
C479 C481 1.372 . S
C479 H496 0.931 . S
C480 C477 1.382 . S
C480 C481 1.390 . S
C480 H497 0.931 . S
C481 C479 1.372 . S
C481 C480 1.390 . S
C481 H498 0.929 . S
C482 C477 1.390 . S
C482 C478 1.392 . S
C482 H499 0.930 . S
C483 O468 1.255 . S
C483 O469 1.257 . S
C484 Eu420 2.787 . S
C484 O464 1.252 . S
C484 O467 1.268 . S
C484 C477 1.506 . S
C485 C452 1.439 . S
C485 H462 0.931 . S
C485 C486 1.374 . S
C486 C457 1.387 . S
C486 H463 0.931 . S
C486 C485 1.374 . S
C487 O471 1.249 . S
C487 O472 1.264 . S
C488 C491 1.382 . S
C488 C492 1.390 . S
C488 C495 1.506 . S
C489 C490 1.398 . S
C489 C492 1.392 . S
C490 C489 1.398 . S
C490 C493 1.372 . S
C490 H500 0.931 . S
C491 C488 1.382 . S
C491 C493 1.390 . S
C491 H501 0.931 . S
C492 C488 1.390 . S
C492 C489 1.392 . S
C492 H502 0.930 . S
C493 C490 1.372 . S
C493 C491 1.390 . S
C493 H503 0.929 . S
C494 O474 1.255 . S
C494 O475 1.257 . S
C495 Eu431 2.787 . S
C495 O470 1.252 . S
C495 O473 1.268 . S
C495 C488 1.506 . S
H496 C479 0.931 . S
H497 C480 0.931 . S
H498 C481 0.929 . S
H499 C482 0.930 . S
H500 C490 0.931 . S
H501 C491 0.931 . S
H502 C492 0.930 . S
H503 C493 0.929 . S
C504 C505 1.349 . S
C504 C506 1.327 . S
C504 H529 0.950 . S
C505 C504 1.349 . S
C505 C521 1.349 . S
C506 C504 1.327 . S
C506 C525 1.429 . S
C506 H530 0.950 . S
C507 C524 1.574 . S
C507 C526 1.368 . S
C507 H531 0.949 . S
H508 C512 0.949 . S
C509 C510 1.349 . S
C509 C511 1.327 . S
C509 H532 0.950 . S
C510 C509 1.349 . S
C510 C522 1.349 . S
C511 C509 1.327 . S
C511 C527 1.429 . S
C511 H533 0.950 . S
C512 H508 0.949 . S
C512 C520 1.574 . S
C512 C528 1.368 . S
H513 C521 0.950 . S
H514 C519 0.950 . S
H515 C520 0.949 . S
H516 C522 0.950 . S
H517 C523 0.950 . S
H518 C524 0.949 . S
C519 H514 0.950 . S
C519 C521 1.327 . S
C519 C525 1.429 . S
C520 C512 1.574 . S
C520 H515 0.949 . S
C520 C526 1.368 . S
C521 C505 1.349 . S
C521 H513 0.950 . S
C521 C519 1.327 . S
C522 C510 1.349 . S
C522 H516 0.950 . S
C522 C523 1.327 . S
C523 H517 0.950 . S
C523 C522 1.327 . S
C523 C527 1.429 . S
C524 C507 1.574 . S
C524 H518 0.949 . S
C524 C528 1.368 . S
C525 C506 1.429 . S
C525 C519 1.429 . S
C525 C526 1.523 . S
C526 C507 1.368 . S
C526 C520 1.368 . S
C526 C525 1.523 . S
C527 C511 1.429 . S
C527 C523 1.429 . S
C527 C528 1.523 . S
C528 C512 1.368 . S
C528 C524 1.368 . S
C528 C527 1.523 . S
H529 C504 0.950 . S
H530 C506 0.950 . S
H531 C507 0.949 . S
H532 C509 0.950 . S
H533 C511 0.950 . S
C534 C535 1.349 . S
C534 C536 1.327 . S
C534 H559 0.950 . S
C535 C534 1.349 . S
C535 C551 1.349 . S
C536 C534 1.327 . S
C536 C555 1.429 . S
C536 H560 0.950 . S
C537 C554 1.574 . S
C537 C556 1.368 . S
C537 H561 0.949 . S
H538 C542 0.949 . S
C539 C540 1.349 . S
C539 C541 1.327 . S
C539 H562 0.950 . S
C540 C539 1.349 . S
C540 C552 1.349 . S
C541 C539 1.327 . S
C541 C557 1.429 . S
C541 H563 0.950 . S
C542 H538 0.949 . S
C542 C550 1.574 . S
C542 C558 1.368 . S
H543 C551 0.950 . S
H544 C549 0.950 . S
H545 C550 0.949 . S
H546 C552 0.950 . S
H547 C553 0.950 . S
H548 C554 0.949 . S
C549 H544 0.950 . S
C549 C551 1.327 . S
C549 C555 1.429 . S
C550 C542 1.574 . S
C550 H545 0.949 . S
C550 C556 1.368 . S
C551 C535 1.349 . S
C551 H543 0.950 . S
C551 C549 1.327 . S
C552 C540 1.349 . S
C552 H546 0.950 . S
C552 C553 1.327 . S
C553 H547 0.950 . S
C553 C552 1.327 . S
C553 C557 1.429 . S
C554 C537 1.574 . S
C554 H548 0.949 . S
C554 C558 1.368 . S
C555 C536 1.429 . S
C555 C549 1.429 . S
C555 C556 1.523 . S
C556 C537 1.368 . S
C556 C550 1.368 . S
C556 C555 1.523 . S
C557 C541 1.429 . S
C557 C553 1.429 . S
C557 C558 1.523 . S
C558 C542 1.368 . S
C558 C554 1.368 . S
C558 C557 1.523 . S
H559 C534 0.950 . S
H560 C536 0.950 . S
H561 C537 0.949 . S
H562 C539 0.950 . S
H563 C541 0.950 . S
C564 C565 1.349 . S
C564 C566 1.327 . S
C564 H589 0.950 . S
C565 C564 1.349 . S
C565 C581 1.349 . S
C566 C564 1.327 . S
C566 C585 1.429 . S
C566 H590 0.950 . S
C567 C584 1.574 . S
C567 C586 1.368 . S
C567 H591 0.949 . S
H568 C572 0.949 . S
C569 C570 1.349 . S
C569 C571 1.327 . S
C569 H592 0.950 . S
C570 C569 1.349 . S
C570 C582 1.349 . S
C571 C569 1.327 . S
C571 C587 1.429 . S
C571 H593 0.950 . S
C572 H568 0.949 . S
C572 C580 1.574 . S
C572 C588 1.368 . S
H573 C581 0.950 . S
H574 C579 0.950 . S
H575 C580 0.949 . S
H576 C582 0.950 . S
H577 C583 0.950 . S
H578 C584 0.949 . S
C579 H574 0.950 . S
C579 C581 1.327 . S
C579 C585 1.429 . S
C580 C572 1.574 . S
C580 H575 0.949 . S
C580 C586 1.368 . S
C581 C565 1.349 . S
C581 H573 0.950 . S
C581 C579 1.327 . S
C582 C570 1.349 . S
C582 H576 0.950 . S
C582 C583 1.327 . S
C583 H577 0.950 . S
C583 C582 1.327 . S
C583 C587 1.429 . S
C584 C567 1.574 . S
C584 H578 0.949 . S
C584 C588 1.368 . S
C585 C566 1.429 . S
C585 C579 1.429 . S
C585 C586 1.523 . S
C586 C567 1.368 . S
C586 C580 1.368 . S
C586 C585 1.523 . S
C587 C571 1.429 . S
C587 C583 1.429 . S
C587 C588 1.523 . S
C588 C572 1.368 . S
C588 C584 1.368 . S
C588 C587 1.523 . S
H589 C564 0.950 . S
H590 C566 0.950 . S
H591 C567 0.949 . S
H592 C569 0.950 . S
H593 C571 0.950 . S
C594 C595 1.349 . S
C594 C596 1.327 . S
C594 H619 0.950 . S
C595 C594 1.349 . S
C595 C611 1.349 . S
C596 C594 1.327 . S
C596 C615 1.429 . S
C596 H620 0.950 . S
C597 C614 1.574 . S
C597 C616 1.368 . S
C597 H621 0.949 . S
H598 C602 0.949 . S
C599 C600 1.349 . S
C599 C601 1.327 . S
C599 H622 0.950 . S
C600 C599 1.349 . S
C600 C612 1.349 . S
C601 C599 1.327 . S
C601 C617 1.429 . S
C601 H623 0.950 . S
C602 H598 0.949 . S
C602 C610 1.574 . S
C602 C618 1.368 . S
H603 C611 0.950 . S
H604 C609 0.950 . S
H605 C610 0.949 . S
H606 C612 0.950 . S
H607 C613 0.950 . S
H608 C614 0.949 . S
C609 H604 0.950 . S
C609 C611 1.327 . S
C609 C615 1.429 . S
C610 C602 1.574 . S
C610 H605 0.949 . S
C610 C616 1.368 . S
C611 C595 1.349 . S
C611 H603 0.950 . S
C611 C609 1.327 . S
C612 C600 1.349 . S
C612 H606 0.950 . S
C612 C613 1.327 . S
C613 H607 0.950 . S
C613 C612 1.327 . S
C613 C617 1.429 . S
C614 C597 1.574 . S
C614 H608 0.949 . S
C614 C618 1.368 . S
C615 C596 1.429 . S
C615 C609 1.429 . S
C615 C616 1.523 . S
C616 C597 1.368 . S
C616 C610 1.368 . S
C616 C615 1.523 . S
C617 C601 1.429 . S
C617 C613 1.429 . S
C617 C618 1.523 . S
C618 C602 1.368 . S
C618 C614 1.368 . S
C618 C617 1.523 . S
H619 C594 0.950 . S
H620 C596 0.950 . S
H621 C597 0.949 . S
H622 C599 0.950 . S
H623 C601 0.950 . S
C624 C625 1.349 . S
C624 C626 1.327 . S
C624 H649 0.950 . S
C625 C624 1.349 . S
C625 C641 1.349 . S
C626 C624 1.327 . S
C626 C645 1.429 . S
C626 H650 0.950 . S
C627 C644 1.574 . S
C627 C646 1.368 . S
C627 H651 0.949 . S
H628 C632 0.949 . S
C629 C630 1.349 . S
C629 C631 1.327 . S
C629 H652 0.950 . S
C630 C629 1.349 . S
C630 C642 1.349 . S
C631 C629 1.327 . S
C631 C647 1.429 . S
C631 H653 0.950 . S
C632 H628 0.949 . S
C632 C640 1.574 . S
C632 C648 1.368 . S
H633 C641 0.950 . S
H634 C639 0.950 . S
H635 C640 0.949 . S
H636 C642 0.950 . S
H637 C643 0.950 . S
H638 C644 0.949 . S
C639 H634 0.950 . S
C639 C641 1.327 . S
C639 C645 1.429 . S
C640 C632 1.574 . S
C640 H635 0.949 . S
C640 C646 1.368 . S
C641 C625 1.349 . S
C641 H633 0.950 . S
C641 C639 1.327 . S
C642 C630 1.349 . S
C642 H636 0.950 . S
C642 C643 1.327 . S
C643 H637 0.950 . S
C643 C642 1.327 . S
C643 C647 1.429 . S
C644 C627 1.574 . S
C644 H638 0.949 . S
C644 C648 1.368 . S
C645 C626 1.429 . S
C645 C639 1.429 . S
C645 C646 1.523 . S
C646 C627 1.368 . S
C646 C640 1.368 . S
C646 C645 1.523 . S
C647 C631 1.429 . S
C647 C643 1.429 . S
C647 C648 1.523 . S
C648 C632 1.368 . S
C648 C644 1.368 . S
C648 C647 1.523 . S
H649 C624 0.950 . S
H650 C626 0.950 . S
H651 C627 0.949 . S
H652 C629 0.950 . S
H653 C631 0.950 . S
C654 C655 1.349 . S
C654 C656 1.327 . S
C654 H679 0.950 . S
C655 C654 1.349 . S
C655 C671 1.349 . S
C656 C654 1.327 . S
C656 C675 1.429 . S
C656 H680 0.950 . S
C657 C674 1.574 . S
C657 C676 1.368 . S
C657 H681 0.949 . S
H658 C662 0.949 . S
C659 C660 1.349 . S
C659 C661 1.327 . S
C659 H682 0.950 . S
C660 C659 1.349 . S
C660 C672 1.349 . S
C661 C659 1.327 . S
C661 C677 1.429 . S
C661 H683 0.950 . S
C662 H658 0.949 . S
C662 C670 1.574 . S
C662 C678 1.368 . S
H663 C671 0.950 . S
H664 C669 0.950 . S
H665 C670 0.949 . S
H666 C672 0.950 . S
H667 C673 0.950 . S
H668 C674 0.949 . S
C669 H664 0.950 . S
C669 C671 1.327 . S
C669 C675 1.429 . S
C670 C662 1.574 . S
C670 H665 0.949 . S
C670 C676 1.368 . S
C671 C655 1.349 . S
C671 H663 0.950 . S
C671 C669 1.327 . S
C672 C660 1.349 . S
C672 H666 0.950 . S
C672 C673 1.327 . S
C673 H667 0.950 . S
C673 C672 1.327 . S
C673 C677 1.429 . S
C674 C657 1.574 . S
C674 H668 0.949 . S
C674 C678 1.368 . S
C675 C656 1.429 . S
C675 C669 1.429 . S
C675 C676 1.523 . S
C676 C657 1.368 . S
C676 C670 1.368 . S
C676 C675 1.523 . S
C677 C661 1.429 . S
C677 C673 1.429 . S
C677 C678 1.523 . S
C678 C662 1.368 . S
C678 C674 1.368 . S
C678 C677 1.523 . S
H679 C654 0.950 . S
H680 C656 0.950 . S
H681 C657 0.949 . S
H682 C659 0.950 . S
H683 C661 0.950 . S
C684 C685 1.349 . S
C684 C686 1.327 . S
C684 H709 0.950 1_554 S
C685 C684 1.349 . S
C685 C701 1.349 . S
C686 C684 1.327 . S
C686 C705 1.429 . S
C686 H710 0.950 1_554 S
C687 C704 1.574 . S
C687 C706 1.368 . S
C687 H711 0.949 . S
H688 C692 0.949 1_556 S
C689 C690 1.349 . S
C689 C691 1.327 . S
C689 H712 0.950 . S
C690 C689 1.349 . S
C690 C702 1.349 . S
C691 C689 1.327 . S
C691 C707 1.429 . S
C691 H713 0.950 . S
C692 H688 0.949 1_554 S
C692 C700 1.574 . S
C692 C708 1.368 . S
H693 C701 0.950 . S
H694 C699 0.950 . S
H695 C700 0.949 1_556 S
H696 C702 0.950 1_556 S
H697 C703 0.950 1_556 S
H698 C704 0.949 . S
C699 H694 0.950 . S
C699 C701 1.327 . S
C699 C705 1.429 . S
C700 C692 1.574 . S
C700 H695 0.949 1_554 S
C700 C706 1.368 . S
C701 C685 1.349 . S
C701 H693 0.950 . S
C701 C699 1.327 . S
C702 C690 1.349 . S
C702 H696 0.950 1_554 S
C702 C703 1.327 . S
C703 H697 0.950 1_554 S
C703 C702 1.327 . S
C703 C707 1.429 . S
C704 C687 1.574 . S
C704 H698 0.949 . S
C704 C708 1.368 . S
C705 C686 1.429 . S
C705 C699 1.429 . S
C705 C706 1.523 . S
C706 C687 1.368 . S
C706 C700 1.368 . S
C706 C705 1.523 . S
C707 C691 1.429 . S
C707 C703 1.429 . S
C707 C708 1.523 . S
C708 C692 1.368 . S
C708 C704 1.368 . S
C708 C707 1.523 . S
H709 C684 0.950 1_556 S
H710 C686 0.950 1_556 S
H711 C687 0.949 . S
H712 C689 0.950 . S
H713 C691 0.950 . S
C714 C715 1.349 . S
C714 C716 1.327 . S
C714 H739 0.950 . S
C715 C714 1.349 . S
C715 C731 1.349 . S
C716 C714 1.327 . S
C716 C735 1.429 . S
C716 H740 0.950 . S
C717 C734 1.574 . S
C717 C736 1.368 1_655 S
C717 H741 0.949 . S
H718 C722 0.949 . S
C719 C720 1.349 . S
C719 C721 1.327 . S
C719 H742 0.950 . S
C720 C719 1.349 . S
C720 C732 1.349 . S
C721 C719 1.327 . S
C721 C737 1.429 . S
C721 H743 0.950 . S
C722 H718 0.949 . S
C722 C730 1.574 . S
C722 C738 1.368 1_455 S
H723 C731 0.950 . S
H724 C729 0.950 . S
H725 C730 0.949 . S
H726 C732 0.950 . S
H727 C733 0.950 . S
H728 C734 0.949 . S
C729 H724 0.950 . S
C729 C731 1.327 . S
C729 C735 1.429 . S
C730 C722 1.574 . S
C730 H725 0.949 . S
C730 C736 1.368 . S
C731 C715 1.349 . S
C731 H723 0.950 . S
C731 C729 1.327 . S
C732 C720 1.349 . S
C732 H726 0.950 . S
C732 C733 1.327 . S
C733 H727 0.950 . S
C733 C732 1.327 . S
C733 C737 1.429 . S
C734 C717 1.574 . S
C734 H728 0.949 . S
C734 C738 1.368 . S
C735 C716 1.429 . S
C735 C729 1.429 . S
C735 C736 1.523 . S
C736 C717 1.368 1_455 S
C736 C730 1.368 . S
C736 C735 1.523 . S
C737 C721 1.429 . S
C737 C733 1.429 . S
C737 C738 1.523 . S
C738 C722 1.368 1_655 S
C738 C734 1.368 . S
C738 C737 1.523 . S
H739 C714 0.950 . S
H740 C716 0.950 . S
H741 C717 0.949 . S
H742 C719 0.950 . S
H743 C721 0.950 . S
C744 C745 1.349 . S
C744 C746 1.327 . S
C744 H769 0.950 . S
C745 C744 1.349 . S
C745 C761 1.349 . S
C746 C744 1.327 . S
C746 C765 1.429 . S
C746 H770 0.950 . S
C747 C764 1.574 . S
C747 C766 1.368 1_565 S
C747 H771 0.949 . S
H748 C752 0.949 . S
C749 C750 1.349 . S
C749 C751 1.327 . S
C749 H772 0.950 . S
C750 C749 1.349 . S
C750 C762 1.349 . S
C751 C749 1.327 . S
C751 C767 1.429 . S
C751 H773 0.950 . S
C752 H748 0.949 . S
C752 C760 1.574 . S
C752 C768 1.368 1_545 S
H753 C761 0.950 . S
H754 C759 0.950 . S
H755 C760 0.949 . S
H756 C762 0.950 . S
H757 C763 0.950 . S
H758 C764 0.949 . S
C759 H754 0.950 . S
C759 C761 1.327 . S
C759 C765 1.429 . S
C760 C752 1.574 . S
C760 H755 0.949 . S
C760 C766 1.368 . S
C761 C745 1.349 . S
C761 H753 0.950 . S
C761 C759 1.327 . S
C762 C750 1.349 . S
C762 H756 0.950 . S
C762 C763 1.327 . S
C763 H757 0.950 . S
C763 C762 1.327 . S
C763 C767 1.429 . S
C764 C747 1.574 . S
C764 H758 0.949 . S
C764 C768 1.368 . S
C765 C746 1.429 . S
C765 C759 1.429 . S
C765 C766 1.523 . S
C766 C747 1.368 1_545 S
C766 C760 1.368 . S
C766 C765 1.523 . S
C767 C751 1.429 . S
C767 C763 1.429 . S
C767 C768 1.523 . S
C768 C752 1.368 1_565 S
C768 C764 1.368 . S
C768 C767 1.523 . S
H769 C744 0.950 . S
H770 C746 0.950 . S
H771 C747 0.949 . S
H772 C749 0.950 . S
H773 C751 0.950 . S
C774 C775 1.349 . S
C774 C776 1.327 . S
C774 H799 0.950 . S
C775 C774 1.349 . S
C775 C791 1.349 . S
C776 C774 1.327 . S
C776 C795 1.429 . S
C776 H800 0.950 . S
C777 C794 1.574 . S
C777 C796 1.368 . S
C777 H801 0.949 . S
H778 C782 0.949 . S
C779 C780 1.349 . S
C779 C781 1.327 . S
C779 H802 0.950 . S
C780 C779 1.349 . S
C780 C792 1.349 . S
C781 C779 1.327 . S
C781 C797 1.429 . S
C781 H803 0.950 . S
C782 H778 0.949 . S
C782 C790 1.574 . S
C782 C798 1.368 . S
H783 C791 0.950 . S
H784 C789 0.950 . S
H785 C790 0.949 . S
H786 C792 0.950 . S
H787 C793 0.950 . S
H788 C794 0.949 . S
C789 H784 0.950 . S
C789 C791 1.327 . S
C789 C795 1.429 . S
C790 C782 1.574 . S
C790 H785 0.949 . S
C790 C796 1.368 . S
C791 C775 1.349 . S
C791 H783 0.950 . S
C791 C789 1.327 . S
C792 C780 1.349 . S
C792 H786 0.950 . S
C792 C793 1.327 . S
C793 H787 0.950 . S
C793 C792 1.327 . S
C793 C797 1.429 . S
C794 C777 1.574 . S
C794 H788 0.949 . S
C794 C798 1.368 . S
C795 C776 1.429 . S
C795 C789 1.429 . S
C795 C796 1.523 . S
C796 C777 1.368 . S
C796 C790 1.368 . S
C796 C795 1.523 . S
C797 C781 1.429 . S
C797 C793 1.429 . S
C797 C798 1.523 . S
C798 C782 1.368 . S
C798 C794 1.368 . S
C798 C797 1.523 . S
H799 C774 0.950 . S
H800 C776 0.950 . S
H801 C777 0.949 . S
H802 C779 0.950 . S
H803 C781 0.950 . S
C804 C805 1.349 1_556 S
C804 C806 1.327 . S
C804 H829 0.950 . S
C805 C804 1.349 1_554 S
C805 C821 1.349 . S
C806 C804 1.327 . S
C806 C825 1.429 1_556 S
C806 H830 0.950 . S
C807 C824 1.574 . S
C807 C826 1.368 . S
C807 H831 0.949 . S
H808 C812 0.949 . S
C809 C810 1.349 . S
C809 C811 1.327 . S
C809 H832 0.950 . S
C810 C809 1.349 . S
C810 C822 1.349 1_554 S
C811 C809 1.327 . S
C811 C827 1.429 . S
C811 H833 0.950 . S
C812 H808 0.949 . S
C812 C820 1.574 . S
C812 C828 1.368 1_556 S
H813 C821 0.950 . S
H814 C819 0.950 . S
H815 C820 0.949 . S
H816 C822 0.950 . S
H817 C823 0.950 . S
H818 C824 0.949 . S
C819 H814 0.950 . S
C819 C821 1.327 . S
C819 C825 1.429 . S
C820 C812 1.574 . S
C820 H815 0.949 . S
C820 C826 1.368 1_656 S
C821 C805 1.349 . S
C821 H813 0.950 . S
C821 C819 1.327 . S
C822 C810 1.349 1_556 S
C822 H816 0.950 . S
C822 C823 1.327 . S
C823 H817 0.950 . S
C823 C822 1.327 . S
C823 C827 1.429 1_556 S
C824 C807 1.574 . S
C824 H818 0.949 . S
C824 C828 1.368 1_455 S
C825 C806 1.429 1_554 S
C825 C819 1.429 . S
C825 C826 1.523 . S
C826 C807 1.368 . S
C826 C820 1.368 1_454 S
C826 C825 1.523 . S
C827 C811 1.429 . S
C827 C823 1.429 1_554 S
C827 C828 1.523 . S
C828 C812 1.368 1_554 S
C828 C824 1.368 1_655 S
C828 C827 1.523 . S
H829 C804 0.950 . S
H830 C806 0.950 . S
H831 C807 0.949 . S
H832 C809 0.950 . S
H833 C811 0.950 . S
C834 C835 1.349 . S
C834 C836 1.327 . S
C834 H859 0.950 . S
C835 C834 1.349 . S
C835 C851 1.349 . S
C836 C834 1.327 . S
C836 C855 1.429 . S
C836 H860 0.950 . S
C837 C854 1.574 . S
C837 C856 1.368 . S
C837 H861 0.949 . S
H838 C842 0.949 . S
C839 C840 1.349 . S
C839 C841 1.327 . S
C839 H862 0.950 . S
C840 C839 1.349 . S
C840 C852 1.349 . S
C841 C839 1.327 . S
C841 C857 1.429 . S
C841 H863 0.950 . S
C842 H838 0.949 . S
C842 C850 1.574 . S
C842 C858 1.368 . S
H843 C851 0.950 . S
H844 C849 0.950 . S
H845 C850 0.949 . S
H846 C852 0.950 . S
H847 C853 0.950 . S
H848 C854 0.949 . S
C849 H844 0.950 . S
C849 C851 1.327 . S
C849 C855 1.429 . S
C850 C842 1.574 . S
C850 H845 0.949 . S
C850 C856 1.368 1_545 S
C851 C835 1.349 . S
C851 H843 0.950 . S
C851 C849 1.327 . S
C852 C840 1.349 . S
C852 H846 0.950 . S
C852 C853 1.327 . S
C853 H847 0.950 . S
C853 C852 1.327 . S
C853 C857 1.429 . S
C854 C837 1.574 . S
C854 H848 0.949 . S
C854 C858 1.368 1_565 S
C855 C836 1.429 . S
C855 C849 1.429 . S
C855 C856 1.523 . S
C856 C837 1.368 . S
C856 C850 1.368 1_565 S
C856 C855 1.523 . S
C857 C841 1.429 . S
C857 C853 1.429 . S
C857 C858 1.523 . S
C858 C842 1.368 . S
C858 C854 1.368 1_545 S
C858 C857 1.523 . S
H859 C834 0.950 . S
H860 C836 0.950 . S
H861 C837 0.949 . S
H862 C839 0.950 . S
H863 C841 0.950 . S
C864 C865 1.349 . S
C864 C866 1.327 . S
C864 H889 0.950 . S
C865 C864 1.349 . S
C865 C881 1.349 . S
C866 C864 1.327 . S
C866 C885 1.429 . S
C866 H890 0.950 . S
C867 C884 1.574 . S
C867 C886 1.368 . S
C867 H891 0.949 . S
H868 C872 0.949 . S
C869 C870 1.349 . S
C869 C871 1.327 . S
C869 H892 0.950 . S
C870 C869 1.349 . S
C870 C882 1.349 . S
C871 C869 1.327 . S
C871 C887 1.429 . S
C871 H893 0.950 . S
C872 H868 0.949 . S
C872 C880 1.574 . S
C872 C888 1.368 . S
H873 C881 0.950 . S
H874 C879 0.950 . S
H875 C880 0.949 . S
H876 C882 0.950 . S
H877 C883 0.950 . S
H878 C884 0.949 . S
C879 H874 0.950 . S
C879 C881 1.327 . S
C879 C885 1.429 . S
C880 C872 1.574 . S
C880 H875 0.949 . S
C880 C886 1.368 . S
C881 C865 1.349 . S
C881 H873 0.950 . S
C881 C879 1.327 . S
C882 C870 1.349 . S
C882 H876 0.950 . S
C882 C883 1.327 . S
C883 H877 0.950 . S
C883 C882 1.327 . S
C883 C887 1.429 . S
C884 C867 1.574 . S
C884 H878 0.949 . S
C884 C888 1.368 . S
C885 C866 1.429 . S
C885 C879 1.429 . S
C885 C886 1.523 . S
C886 C867 1.368 . S
C886 C880 1.368 . S
C886 C885 1.523 . S
C887 C871 1.429 . S
C887 C883 1.429 . S
C887 C888 1.523 . S
C888 C872 1.368 . S
C888 C884 1.368 . S
C888 C887 1.523 . S
H889 C864 0.950 . S
H890 C866 0.950 . S
H891 C867 0.949 . S
H892 C869 0.950 . S
H893 C871 0.950 . S
C894 C895 1.349 . S
C894 C896 1.327 . S
C894 H919 0.950 . S
C895 C894 1.349 . S
C895 C911 1.349 1_655 S
C896 C894 1.327 . S
C896 C915 1.429 1_655 S
C896 H920 0.950 . S
C897 C914 1.574 . S
C897 C916 1.368 . S
C897 H921 0.949 . S
H898 C902 0.949 . S
C899 C900 1.349 . S
C899 C901 1.327 . S
C899 H922 0.950 . S
C900 C899 1.349 . S
C900 C912 1.349 . S
C901 C899 1.327 . S
C901 C917 1.429 . S
C901 H923 0.950 . S
C902 H898 0.949 . S
C902 C910 1.574 . S
C902 C918 1.368 . S
H903 C911 0.950 . S
H904 C909 0.950 . S
H905 C910 0.949 1_655 S
H906 C912 0.950 . S
H907 C913 0.950 . S
H908 C914 0.949 . S
C909 H904 0.950 . S
C909 C911 1.327 . S
C909 C915 1.429 . S
C910 C902 1.574 . S
C910 H905 0.949 1_455 S
C910 C916 1.368 . S
C911 C895 1.349 1_455 S
C911 H903 0.950 . S
C911 C909 1.327 . S
C912 C900 1.349 . S
C912 H906 0.950 . S
C912 C913 1.327 . S
C913 H907 0.950 . S
C913 C912 1.327 . S
C913 C917 1.429 . S
C914 C897 1.574 . S
C914 H908 0.949 . S
C914 C918 1.368 . S
C915 C896 1.429 1_455 S
C915 C909 1.429 . S
C915 C916 1.523 . S
C916 C897 1.368 . S
C916 C910 1.368 . S
C916 C915 1.523 . S
C917 C901 1.429 . S
C917 C913 1.429 . S
C917 C918 1.523 . S
C918 C902 1.368 . S
C918 C914 1.368 . S
C918 C917 1.523 . S
H919 C894 0.950 . S
H920 C896 0.950 . S
H921 C897 0.949 . S
H922 C899 0.950 . S
H923 C901 0.950 . S
C924 C925 1.349 1_545 S
C924 C926 1.327 . S
C924 H949 0.950 . S
C925 C924 1.349 1_565 S
C925 C941 1.349 . S
C926 C924 1.327 . S
C926 C945 1.429 . S
C926 H950 0.950 . S
C927 C944 1.574 . S
C927 C946 1.368 . S
C927 H951 0.949 . S
H928 C932 0.949 . S
C929 C930 1.349 . S
C929 C931 1.327 . S
C929 H952 0.950 . S
C930 C929 1.349 . S
C930 C942 1.349 . S
C931 C929 1.327 . S
C931 C947 1.429 . S
C931 H953 0.950 . S
C932 H928 0.949 . S
C932 C940 1.574 . S
C932 C948 1.368 . S
H933 C941 0.950 . S
H934 C939 0.950 . S
H935 C940 0.949 . S
H936 C942 0.950 . S
H937 C943 0.950 . S
H938 C944 0.949 . S
C939 H934 0.950 . S
C939 C941 1.327 . S
C939 C945 1.429 1_565 S
C940 C932 1.574 . S
C940 H935 0.949 . S
C940 C946 1.368 . S
C941 C925 1.349 . S
C941 H933 0.950 . S
C941 C939 1.327 . S
C942 C930 1.349 . S
C942 H936 0.950 . S
C942 C943 1.327 . S
C943 H937 0.950 . S
C943 C942 1.327 . S
C943 C947 1.429 . S
C944 C927 1.574 . S
C944 H938 0.949 . S
C944 C948 1.368 . S
C945 C926 1.429 . S
C945 C939 1.429 1_545 S
C945 C946 1.523 . S
C946 C927 1.368 . S
C946 C940 1.368 . S
C946 C945 1.523 . S
C947 C931 1.429 . S
C947 C943 1.429 . S
C947 C948 1.523 . S
C948 C932 1.368 . S
C948 C944 1.368 . S
C948 C947 1.523 . S
H949 C924 0.950 . S
H950 C926 0.950 . S
H951 C927 0.949 . S
H952 C929 0.950 . S
H953 C931 0.950 . S
C954 C955 1.349 . S
C954 C956 1.327 . S
C954 H979 0.950 . S
C955 C954 1.349 . S
C955 C971 1.349 . S
C956 C954 1.327 . S
C956 C975 1.429 . S
C956 H980 0.950 . S
C957 C974 1.574 . S
C957 C976 1.368 . S
C957 H981 0.949 . S
H958 C962 0.949 . S
C959 C960 1.349 . S
C959 C961 1.327 . S
C959 H982 0.950 . S
C960 C959 1.349 . S
C960 C972 1.349 . S
C961 C959 1.327 . S
C961 C977 1.429 . S
C961 H983 0.950 . S
C962 H958 0.949 . S
C962 C970 1.574 . S
C962 C978 1.368 . S
H963 C971 0.950 . S
H964 C969 0.950 . S
H965 C970 0.949 . S
H966 C972 0.950 . S
H967 C973 0.950 . S
H968 C974 0.949 . S
C969 H964 0.950 . S
C969 C971 1.327 . S
C969 C975 1.429 . S
C970 C962 1.574 . S
C970 H965 0.949 . S
C970 C976 1.368 . S
C971 C955 1.349 . S
C971 H963 0.950 . S
C971 C969 1.327 . S
C972 C960 1.349 . S
C972 H966 0.950 . S
C972 C973 1.327 . S
C973 H967 0.950 . S
C973 C972 1.327 . S
C973 C977 1.429 . S
C974 C957 1.574 . S
C974 H968 0.949 . S
C974 C978 1.368 . S
C975 C956 1.429 . S
C975 C969 1.429 . S
C975 C976 1.523 . S
C976 C957 1.368 . S
C976 C970 1.368 . S
C976 C975 1.523 . S
C977 C961 1.429 . S
C977 C973 1.429 . S
C977 C978 1.523 . S
C978 C962 1.368 . S
C978 C974 1.368 . S
C978 C977 1.523 . S
H979 C954 0.950 . S
H980 C956 0.950 . S
H981 C957 0.949 . S
H982 C959 0.950 . S
H983 C961 0.950 . S
C984 C985 1.349 . S
C984 C986 1.327 . S
C984 H1009 0.950 . S
C985 C984 1.349 . S
C985 C1001 1.349 1_455 S
C986 C984 1.327 . S
C986 C1005 1.429 1_455 S
C986 H1010 0.950 . S
C987 C1004 1.574 . S
C987 C1006 1.368 . S
C987 H1011 0.949 . S
H988 C992 0.949 . S
C989 C990 1.349 . S
C989 C991 1.327 . S
C989 H1012 0.950 . S
C990 C989 1.349 . S
C990 C1002 1.349 . S
C991 C989 1.327 . S
C991 C1007 1.429 . S
C991 H1013 0.950 . S
C992 H988 0.949 . S
C992 C1000 1.574 . S
C992 C1008 1.368 . S
H993 C1001 0.950 . S
H994 C999 0.950 . S
H995 C1000 0.949 1_455 S
H996 C1002 0.950 . S
H997 C1003 0.950 . S
H998 C1004 0.949 . S
C999 H994 0.950 . S
C999 C1001 1.327 . S
C999 C1005 1.429 . S
C1000 C992 1.574 . S
C1000 H995 0.949 1_655 S
C1000 C1006 1.368 . S
C1001 C985 1.349 1_655 S
C1001 H993 0.950 . S
C1001 C999 1.327 . S
C1002 C990 1.349 . S
C1002 H996 0.950 . S
C1002 C1003 1.327 . S
C1003 H997 0.950 . S
C1003 C1002 1.327 . S
C1003 C1007 1.429 . S
C1004 C987 1.574 . S
C1004 H998 0.949 . S
C1004 C1008 1.368 . S
C1005 C986 1.429 1_655 S
C1005 C999 1.429 . S
C1005 C1006 1.523 . S
C1006 C987 1.368 . S
C1006 C1000 1.368 . S
C1006 C1005 1.523 . S
C1007 C991 1.429 . S
C1007 C1003 1.429 . S
C1007 C1008 1.523 . S
C1008 C992 1.368 . S
C1008 C1004 1.368 . S
C1008 C1007 1.523 . S
H1009 C984 0.950 . S
H1010 C986 0.950 . S
H1011 C987 0.949 . S
H1012 C989 0.950 . S
H1013 C991 0.950 . S
C1014 C1015 1.349 1_565 S
C1014 C1016 1.327 . S
C1014 H1039 0.950 . S
C1015 C1014 1.349 1_545 S
C1015 C1031 1.349 . S
C1016 C1014 1.327 . S
C1016 C1035 1.429 . S
C1016 H1040 0.950 . S
C1017 C1034 1.574 . S
C1017 C1036 1.368 . S
C1017 H1041 0.949 1_565 S
H1018 C1022 0.949 . S
C1019 C1020 1.349 . S
C1019 C1021 1.327 . S
C1019 H1042 0.950 . S
C1020 C1019 1.349 . S
C1020 C1032 1.349 . S
C1021 C1019 1.327 . S
C1021 C1037 1.429 . S
C1021 H1043 0.950 . S
C1022 H1018 0.949 . S
C1022 C1030 1.574 . S
C1022 C1038 1.368 . S
H1023 C1031 0.950 . S
H1024 C1029 0.950 . S
H1025 C1030 0.949 . S
H1026 C1032 0.950 . S
H1027 C1033 0.950 . S
H1028 C1034 0.949 . S
C1029 H1024 0.950 . S
C1029 C1031 1.327 . S
C1029 C1035 1.429 1_545 S
C1030 C1022 1.574 . S
C1030 H1025 0.949 . S
C1030 C1036 1.368 . S
C1031 C1015 1.349 . S
C1031 H1023 0.950 . S
C1031 C1029 1.327 . S
C1032 C1020 1.349 . S
C1032 H1026 0.950 . S
C1032 C1033 1.327 . S
C1033 H1027 0.950 . S
C1033 C1032 1.327 . S
C1033 C1037 1.429 . S
C1034 C1017 1.574 . S
C1034 H1028 0.949 . S
C1034 C1038 1.368 . S
C1035 C1016 1.429 . S
C1035 C1029 1.429 1_565 S
C1035 C1036 1.523 . S
C1036 C1017 1.368 . S
C1036 C1030 1.368 . S
C1036 C1035 1.523 . S
C1037 C1021 1.429 . S
C1037 C1033 1.429 . S
C1037 C1038 1.523 . S
C1038 C1022 1.368 . S
C1038 C1034 1.368 . S
C1038 C1037 1.523 . S
H1039 C1014 0.950 . S
H1040 C1016 0.950 . S
H1041 C1017 0.949 1_545 S
H1042 C1019 0.950 . S
H1043 C1021 0.950 . S
C505 C403 1.066 . S
C510 C69 0.936 . S
C535 C487 1.066 . S
C540 C153 0.935 . S
C565 C67 1.066 . S
C570 C237 0.936 . S
C595 C151 1.066 . S
C600 C321 0.936 . S
C625 C235 1.066 . S
C630 C405 0.936 . S
C655 C319 1.066 . S
C660 C489 0.936 . S
C685 C63 1.172 . S
C690 C315 1.172 . S
C715 C399 1.171 . S
C720 C147 1.171 . S
C745 C483 1.171 . S
C750 C231 1.171 . S
C775 C242 1.496 . S
C780 C494 1.496 . S
C805 C74 1.496 . S
C810 C326 1.496 . S
C835 C410 1.496 . S
C840 C158 1.496 . S
C865 C476 0.989 . S
C870 C58 0.941 . S
C895 C142 0.941 . S
C900 C56 0.989 . S
C925 C226 0.941 . S
C930 C140 0.989 . S
C955 C224 0.989 . S
C960 C310 0.941 . S
C985 C394 0.941 . S
C990 C308 0.989 . S
C1015 C478 0.942 . S
C1020 C392 0.989 . S
