# Generated by pormake.
# Topology tfs, (6)-cn, num edge types: 1
# Building blocks:
#     Node 0, Type 0, BuildingBlock: BETGAK_clean_sbu_0, # of connection points: 6
#     Node 1, Type 0, BuildingBlock: BETGAK_clean_sbu_0, # of connection points: 6
#     Node 2, Type 0, BuildingBlock: BETGAK_clean_sbu_0, # of connection points: 6
#     Node 3, Type 0, BuildingBlock: BETGAK_clean_sbu_0, # of connection points: 6
#     Node 4, Type 0, BuildingBlock: BETGAK_clean_sbu_0, # of connection points: 6
#     Node 5, Type 0, BuildingBlock: BETGAK_clean_sbu_0, # of connection points: 6
#     Edge 6, Type (0, 0), BuildingBlock: KIFKEQ_clean_linker_1, # of connection points: 2
#     Edge 7, Type (0, 0), BuildingBlock: KIFKEQ_clean_linker_1, # of connection points: 2
#     Edge 8, Type (0, 0), BuildingBlock: KIFKEQ_clean_linker_1, # of connection points: 2
#     Edge 9, Type (0, 0), BuildingBlock: KIFKEQ_clean_linker_1, # of connection points: 2
#     Edge 10, Type (0, 0), BuildingBlock: KIFKEQ_clean_linker_1, # of connection points: 2
#     Edge 11, Type (0, 0), BuildingBlock: KIFKEQ_clean_linker_1, # of connection points: 2
#     Edge 12, Type (0, 0), BuildingBlock: KIFKEQ_clean_linker_1, # of connection points: 2
#     Edge 13, Type (0, 0), BuildingBlock: KIFKEQ_clean_linker_1, # of connection points: 2
#     Edge 14, Type (0, 0), BuildingBlock: KIFKEQ_clean_linker_1, # of connection points: 2
#     Edge 15, Type (0, 0), BuildingBlock: KIFKEQ_clean_linker_1, # of connection points: 2
#     Edge 16, Type (0, 0), BuildingBlock: KIFKEQ_clean_linker_1, # of connection points: 2
#     Edge 17, Type (0, 0), BuildingBlock: KIFKEQ_clean_linker_1, # of connection points: 2
#     Edge 18, Type (0, 0), BuildingBlock: KIFKEQ_clean_linker_1, # of connection points: 2
#     Edge 19, Type (0, 0), BuildingBlock: KIFKEQ_clean_linker_1, # of connection points: 2
#     Edge 20, Type (0, 0), BuildingBlock: KIFKEQ_clean_linker_1, # of connection points: 2
#     Edge 21, Type (0, 0), BuildingBlock: KIFKEQ_clean_linker_1, # of connection points: 2
#     Edge 22, Type (0, 0), BuildingBlock: KIFKEQ_clean_linker_1, # of connection points: 2
#     Edge 23, Type (0, 0), BuildingBlock: KIFKEQ_clean_linker_1, # of connection points: 2
# Relax obj value: 0.553
# Max RMSD: 0.458
# Mean RMSD: 0.358
data_MOF--net-tfs--node1-BETGAK_clean_sbu_0--edge1-KIFKEQ_clean_linker_1
_symmetry_space_group_name_H-M    P1
_symmetry_Int_Tables_number       1
_symmetry_cell_setting            triclinic
loop_
_symmetry_equiv_pos_as_xyz
'x, y, z'
_cell_length_a     54.210076
_cell_length_b     50.786389
_cell_length_c     13.187896
_cell_angle_alpha  98.590937
_cell_angle_beta   92.288325
_cell_angle_gamma 127.0992
loop_
_atom_site_label
_atom_site_type_symbol
_atom_site_fract_x
_atom_site_fract_y
_atom_site_fract_z
_atom_type_partial_charge
La0 La 0.3512 0.47574 0.6034 0.0
La1 La 0.33268 0.52124 0.57443 0.0
C2 C 0.37422 0.44879 0.66531 0.0
C3 C 0.37671 0.42172 0.62533 0.0
C4 C 0.38003 0.41531 0.52138 0.0
C5 C 0.38757 0.39375 0.48879 0.0
C6 C 0.39174 0.37791 0.55911 0.0
C7 C 0.38669 0.38294 0.6617 0.0
C8 C 0.37942 0.40477 0.69452 0.0
C9 C 0.33608 0.47364 0.41085 0.0
C10 C 0.27985 0.44242 0.54752 0.0
C11 C 0.31314 0.55354 0.53681 0.0
C12 C 0.31455 0.58098 0.60155 0.0
C13 C 0.28694 0.57741 0.60832 0.0
C14 C 0.28772 0.60262 0.67221 0.0
C15 C 0.3162 0.63202 0.72992 0.0
C16 C 0.34383 0.63555 0.72301 0.0
C17 C 0.34301 0.61023 0.66002 0.0
C18 C 0.34279 0.51788 0.76858 0.0
C19 C 0.40261 0.5546 0.61319 0.0
O20 O 0.3892 0.47496 0.62215 0.0
O21 O 0.34677 0.43999 0.68205 0.0
O22 O 0.3344 0.44938 0.43942 0.0
O23 O 0.34982 0.49876 0.48507 0.0
O24 O 0.30014 0.44029 0.59832 0.0
O25 O 0.28917 0.47005 0.51445 0.0
O26 O 0.29562 0.5242 0.56269 0.0
O27 O 0.33976 0.56108 0.51473 0.0
O28 O 0.34895 0.54437 0.74113 0.0
O29 O 0.33138 0.49547 0.68822 0.0
O30 O 0.38126 0.55384 0.55855 0.0
O31 O 0.39461 0.529 0.65677 0.0
H32 H 0.37797 0.42794 0.46617 0.0
H33 H 0.39081 0.39004 0.40884 0.0
H34 H 0.38986 0.37129 0.71794 0.0
H35 H 0.37714 0.40946 0.77519 0.0
H36 H 0.26473 0.55503 0.56442 0.0
H37 H 0.2661 0.59935 0.67514 0.0
H38 H 0.36607 0.65776 0.76734 0.0
H39 H 0.36465 0.61353 0.65769 0.0
La40 La 0.89644 0.20478 0.39475 0.0
La41 La 0.83255 0.17683 0.2719 0.0
C42 C 0.94397 0.22349 0.51708 0.0
C43 C 0.9785 0.2445 0.51921 0.0
C44 C 0.99185 0.23246 0.45792 0.0
C45 C 1.02445 0.25229 0.46234 0.0
C46 C 0.04457 0.28469 0.528 0.0
C47 C 1.03119 0.29657 0.58981 0.0
C48 C 0.99862 0.27668 0.58578 0.0
C49 C 0.88896 0.18551 0.19159 0.0
C50 C 0.83688 0.12911 0.37544 0.0
C51 C 0.78613 0.1585 0.14424 0.0
C52 C 0.7647 0.16739 0.1425 0.0
C53 C 0.77184 0.19579 0.21203 0.0
C54 C 0.75023 0.20248 0.21505 0.0
C55 C 0.7209 0.18077 0.14915 0.0
C56 C 0.71416 0.15265 0.07855 0.0
C57 C 0.73582 0.14606 0.07536 0.0
C58 C 0.84063 0.19973 0.47343 0.0
C59 C 0.89344 0.25303 0.28216 0.0
O60 O 0.93173 0.23928 0.52396 0.0
O61 O 0.92625 0.19463 0.44897 0.0
O62 O 0.91563 0.20874 0.25099 0.0
O63 O 0.86829 0.17182 0.24813 0.0
O64 O 0.86129 0.15682 0.43998 0.0
O65 O 0.82593 0.131 0.28744 0.0
O66 O 0.78413 0.14253 0.21638 0.0
O67 O 0.81535 0.18214 0.13661 0.0
O68 O 0.81366 0.17717 0.41556 0.0
O69 O 0.8611 0.21075 0.41576 0.0
O70 O 0.86466 0.22662 0.23617 0.0
O71 O 0.90949 0.25167 0.35706 0.0
H72 H 0.97717 0.20771 0.40619 0.0
H73 H 1.03385 0.24243 0.41289 0.0
H74 H 0.04594 0.32117 0.64241 0.0
H75 H 0.98916 0.2865 0.63513 0.0
H76 H 0.79388 0.2124 0.26541 0.0
H77 H 0.75614 0.22412 0.27126 0.0
H78 H 0.69205 0.13562 0.02571 0.0
H79 H 0.72978 0.12395 0.02143 0.0
La80 La 0.67473 0.82115 0.53387 0.0
La81 La 0.65013 0.85366 0.65812 0.0
C82 C 0.69327 0.79867 0.39957 0.0
C83 C 0.71907 0.7966 0.39801 0.0
C84 C 0.73705 0.8029 0.49103 0.0
C85 C 0.75906 0.79694 0.48932 0.0
C86 C 0.76351 0.78474 0.39451 0.0
C87 C 0.74638 0.77993 0.30124 0.0
C88 C 0.72427 0.78575 0.30311 0.0
C89 C 0.69219 0.83717 0.73833 0.0
C90 C 0.71004 0.90089 0.56432 0.0
C91 C 0.63185 0.87536 0.79493 0.0
C92 C 0.6219 0.86962 0.89622 0.0
C93 C 0.62456 0.89551 0.96335 0.0
C94 C 0.61107 0.88955 0.05302 0.0
C95 C 0.59444 0.85735 0.07726 0.0
C96 C 0.59497 0.83258 0.01542 0.0
C97 C 0.6085 0.83863 0.92498 0.0
C98 C 0.63559 0.84054 0.45318 0.0
C99 C 0.61332 0.77513 0.61864 0.0
O100 O 0.6726 0.78054 0.45687 0.0
O101 O 0.70089 0.8289 0.41227 0.0
O102 O 0.68895 0.8125 0.67732 0.0
O103 O 0.68852 0.85277 0.68287 0.0
O104 O 0.70437 0.87328 0.50765 0.0
O105 O 0.69396 0.89936 0.63891 0.0
O106 O 0.61309 0.85101 0.71336 0.0
O107 O 0.66127 0.8891 0.79225 0.0
O108 O 0.64022 0.86584 0.51614 0.0
O109 O 0.637 0.82296 0.50662 0.0
O110 O 0.62352 0.80247 0.68975 0.0
O111 O 0.6265 0.7781 0.53441 0.0
H112 H 0.73336 0.81143 0.56504 0.0
H113 H 0.77216 0.80122 0.56226 0.0
H114 H 0.74902 0.7702 0.22709 0.0
H115 H 0.71049 0.78069 0.23069 0.0
H116 H 0.63542 0.91982 0.94314 0.0
H117 H 0.61123 0.90941 0.09731 0.0
H118 H 0.58312 0.80781 0.03298 0.0
H119 H 0.60717 0.81868 0.87529 0.0
La120 La 0.87764 0.56022 0.08524 0.0
La121 La 0.90653 0.52975 0.9736 0.0
C122 C 0.85602 0.5796 0.21584 0.0
C123 C 0.85923 0.61036 0.25276 0.0
C124 C 0.87296 0.63619 0.19711 0.0
C125 C 0.8715 0.66286 0.22369 0.0
C126 C 0.85638 0.66409 0.30643 0.0
C127 C 0.84424 0.63908 0.36542 0.0
C128 C 0.84561 0.61238 0.33853 0.0
C129 C 0.89669 0.58002 0.91158 0.0
C130 C 0.95059 0.59587 0.14695 0.0
C131 C 0.92495 0.50201 0.86293 0.0
C132 C 0.93911 0.48653 0.89357 0.0
C133 C 0.95929 0.50015 -0.01102 0.0
C134 C 0.96636 0.48118 0.03018 0.0
C135 C 0.95302 0.44804 0.97756 0.0
C136 C 0.93456 0.43548 0.87866 0.0
C137 C 0.92775 0.45459 0.83713 0.0
C138 C 0.8896 0.51372 0.15379 0.0
C139 C 0.83637 0.49777 0.90675 0.0
O140 O 0.8427 0.56446 0.11891 0.0
O141 O 0.8805 0.581 0.23997 0.0
O142 O 0.87531 0.5802 0.9513 0.0
O143 O 0.90861 0.57306 0.9751 0.0
O144 O 0.92547 0.59261 0.17075 0.0
O145 O 0.94944 0.57623 0.06518 0.0
O146 O 0.94161 0.5349 0.89373 0.0
O147 O 0.89594 0.48617 0.87839 0.0
O148 O 0.91221 0.51572 0.11674 0.0
O149 O 0.8759 0.51741 0.08543 0.0
O150 O 0.86227 0.50648 0.87144 0.0
O151 O 0.83729 0.51064 0.00281 0.0
H152 H 0.88365 0.635 0.13069 0.0
H153 H 0.88138 0.68199 0.17765 0.0
H154 H 0.83216 0.6391 0.42886 0.0
H155 H 0.83484 0.59253 0.382 0.0
H156 H 0.96814 0.52465 0.03469 0.0
H157 H 0.9811 0.49191 0.10553 0.0
H158 H 0.92349 0.40996 0.83619 0.0
H159 H 0.9118 0.44343 0.76415 0.0
La160 La 0.27146 0.83999 0.96071 0.0
La161 La 0.34157 0.89393 -0.01174 0.0
C162 C 0.2135 0.80563 0.96418 0.0
C163 C 0.18635 0.79062 0.88397 0.0
C164 C 0.1902 0.80218 0.79121 0.0
C165 C 0.16541 0.78387 0.70757 0.0
C166 C 0.13664 0.75353 0.71523 0.0
C167 C 0.1326 0.7428 0.80965 0.0
C168 C 0.15729 0.76124 0.89338 0.0
C169 C 0.29607 0.83754 0.79381 0.0
C170 C 0.30143 0.91228 0.90034 0.0
C171 C 0.39917 0.92384 -0.00362 0.0
C172 C 0.418 0.91483 0.03916 0.0
C173 C 0.41228 0.90246 0.13109 0.0
C174 C 0.42741 0.89004 0.16494 0.0
C175 C 0.4481 0.88925 0.10658 0.0
C176 C 0.45438 0.90241 0.01609 0.0
C177 C 0.43946 0.91512 -0.01725 0.0
C178 C 0.31364 0.89702 0.14162 0.0
C179 C 0.31246 0.82083 0.02914 0.0
O180 O 0.22808 0.79267 0.94828 0.0
O181 O 0.233 0.8387 -0.00749 0.0
O182 O 0.27183 0.81164 0.82057 0.0
O183 O 0.30437 0.86308 0.85946 0.0
O184 O 0.27635 0.88395 0.92105 0.0
O185 O 0.32939 0.91951 0.90826 0.0
O186 O 0.38747 0.93328 0.06404 0.0
O187 O 0.37852 0.90248 0.91308 0.0
O188 O 0.33854 0.92344 0.11939 0.0
O189 O 0.30793 0.87094 0.08769 0.0
O190 O 0.33583 0.84808 0.00054 0.0
O191 O 0.28621 0.8163 0.04181 0.0
H192 H 0.21273 0.82451 0.78195 0.0
H193 H 0.16921 0.79255 0.63543 0.0
H194 H 0.11055 0.7197 0.8179 0.0
H195 H 0.15409 0.75177 0.96398 0.0
H196 H 0.39535 0.90135 0.17519 0.0
H197 H 0.422 0.87982 0.23438 0.0
H198 H 0.47058 0.90249 0.97039 0.0
H199 H 0.44398 0.92427 0.91136 0.0
La200 La 0.50257 0.20875 0.3271 0.0
La201 La 0.5464 0.27542 0.25883 0.0
C202 C 0.47112 0.16331 0.42795 0.0
C203 C 0.44038 0.14131 0.46168 0.0
C204 C 0.41358 0.11396 0.39107 0.0
C205 C 0.38659 0.08932 0.4272 0.0
C206 C 0.3859 0.0915 0.53451 0.0
C207 C 0.41203 0.1201 0.60449 0.0
C208 C 0.43898 0.14467 0.56842 0.0
C209 C 0.49179 0.20687 0.12847 0.0
C210 C 0.48785 0.26229 0.34471 0.0
C211 C 0.57916 0.31889 0.15419 0.0
C212 C 0.59618 0.32054 0.06752 0.0
C213 C 0.62362 0.3236 0.0834 0.0
C214 C 0.64087 0.328 0.0031 0.0
C215 C 0.63103 0.3292 0.90447 0.0
C216 C 0.60241 0.32386 0.8869 0.0
C217 C 0.58535 0.31991 0.9679 0.0
C218 C 0.55551 0.27728 0.458 0.0
C219 C 0.56156 0.22345 0.24239 0.0
O220 O 0.47258 0.15724 0.32919 0.0
O221 O 0.48912 0.19572 0.47007 0.0
O222 O 0.48696 0.18169 0.16223 0.0
O223 O 0.50033 0.23004 0.20452 0.0
O224 O 0.48163 0.23464 0.37057 0.0
O225 O 0.51066 0.28064 0.29202 0.0
O226 O 0.59016 0.31944 0.2456 0.0
O227 O 0.54862 0.29685 0.13226 0.0
O228 O 0.55909 0.30172 0.4225 0.0
O229 O 0.54846 0.25437 0.38288 0.0
O230 O 0.56252 0.24603 0.19949 0.0
O231 O 0.54284 0.20946 0.3112 0.0
H232 H 0.4139 0.11063 0.30821 0.0
H233 H 0.36673 0.06782 0.37126 0.0
H234 H 0.41255 0.12244 0.68767 0.0
H235 H 0.4594 0.16531 0.62457 0.0
H236 H 0.6325 0.32386 0.1589 0.0
H237 H 0.66299 0.33259 0.02098 0.0
H238 H 0.59378 0.32407 0.81177 0.0
H239 H 0.56411 0.31735 0.95334 0.0
H240 H 0.47388 0.29377 0.23435 0.0
H241 H 0.45878 0.25637 0.51659 0.0
H242 H 0.44807 0.31833 0.2837 0.0
H243 H 0.43399 0.28261 0.56958 0.0
H244 H 0.37157 0.31651 0.59897 0.0
H245 H 0.39149 0.28511 0.5455 0.0
H246 H 0.45966 0.36508 0.39908 0.0
H247 H 0.43916 0.39547 0.44939 0.0
C248 C 0.46501 0.29083 0.30739 0.0
C249 C 0.46867 0.2734 0.37203 0.0
C250 C 0.45041 0.30525 0.33635 0.0
C251 C 0.43952 0.30336 0.43213 0.0
C252 C 0.44197 0.28461 0.49514 0.0
C253 C 0.45622 0.26958 0.465 0.0
C254 C 0.39076 0.32722 0.55505 0.0
C255 C 0.40346 0.35829 0.52716 0.0
C256 C 0.4023 0.30929 0.52471 0.0
C257 C 0.42702 0.32217 0.46654 0.0
C258 C 0.44 0.35363 0.44082 0.0
C259 C 0.42828 0.37124 0.47001 0.0
H260 H 0.2477 0.38851 0.64443 0.0
H261 H 0.23377 0.43472 0.42245 0.0
H262 H 0.19078 0.34887 0.6389 0.0
H263 H 0.17748 0.39539 0.4168 0.0
H264 H 0.08524 0.35265 0.53447 0.0
H265 H 0.14165 0.38801 0.53676 0.0
H266 H 0.13932 0.30118 0.52708 0.0
H267 H 0.08269 0.26574 0.52726 0.0
C268 C 0.23256 0.38986 0.59316 0.0
C269 C 0.24543 0.41504 0.53458 0.0
C270 C 0.19993 0.36718 0.5901 0.0
C271 C 0.17954 0.36929 0.5287 0.0
C272 C 0.19245 0.3935 0.46684 0.0
C273 C 0.22484 0.41598 0.46966 0.0
C274 C 0.09671 0.34107 0.53386 0.0
C275 C 0.07929 0.30627 0.5306 0.0
C276 C 0.12908 0.36131 0.534 0.0
C277 C 0.14508 0.34744 0.53124 0.0
C278 C 0.1278 0.31274 0.5296 0.0
C279 C 0.09528 0.29237 0.52872 0.0
H280 H 0.7912 0.06655 0.25278 0.0
H281 H 0.84767 0.11571 0.55877 0.0
H282 H 0.76423 1.01165 0.2991 0.0
H283 H 0.82089 0.0607 0.60455 0.0
H284 H 0.73506 0.96282 0.68416 0.0
H285 H 0.76821 1.01757 0.63783 0.0
H286 H 0.77104 0.97034 0.34241 0.0
H287 H 0.73746 0.9151 0.38874 0.0
C288 C 0.79805 0.06566 0.32964 0.0
C289 C 0.82153 0.0956 0.40214 0.0
C290 C 0.78275 0.03412 0.35594 0.0
C291 C 0.79038 0.03173 0.45555 0.0
C292 C 0.81424 0.06165 0.52746 0.0
C293 C 0.82968 0.09318 0.50097 0.0
C294 C 0.74299 0.96403 0.60974 0.0
C295 C 0.73342 0.93446 0.53998 0.0
C296 C 0.7622 0.99555 0.58337 0.0
C297 C 0.77223 0.9984 0.48624 0.0
C298 C 0.76346 0.96897 0.41747 0.0
C299 C 0.74443 0.93737 0.44438 0.0
H300 H 0.8369 0.68355 0.16126 0.0
H301 H 0.86142 0.70056 0.49282 0.0
H302 H 0.82012 0.7185 0.19018 0.0
H303 H 0.84494 0.7361 0.52213 0.0
H304 H 0.80556 0.79658 0.26363 0.0
H305 H 0.83439 0.77377 0.24913 0.0
H306 H 0.79524 0.72563 0.50539 0.0
H307 H 0.76694 0.7488 0.52059 0.0
C308 C 0.83951 0.69553 0.24036 0.0
C309 C 0.85038 0.68919 0.32479 0.0
C310 C 0.82989 0.71564 0.25702 0.0
C311 C 0.83101 0.73 0.35855 0.0
C312 C 0.84326 0.72494 0.44297 0.0
C313 C 0.85277 0.70466 0.42627 0.0
C314 C 0.80342 0.7814 0.3174 0.0
C315 C 0.7839 0.77437 0.39294 0.0
C316 C 0.81987 0.76828 0.30906 0.0
C317 C 0.817 0.74768 0.37566 0.0
C318 C 0.79843 0.74182 0.45384 0.0
C319 C 0.78213 0.75506 0.46249 0.0
H320 H 0.10316 0.68577 0.64202 0.0
H321 H 0.11366 0.77301 0.58136 0.0
H322 H 0.06059 0.64975 0.49406 0.0
H323 H 0.07108 0.7369 0.43241 0.0
H324 H 0.96548 0.65044 0.28719 0.0
H325 H 1.01273 0.69028 0.4163 0.0
H326 H 0.0508 0.64006 0.29721 0.0
H327 H 1.0033 0.59991 0.16724 0.0
C328 C 0.09632 0.69721 0.59689 0.0
C329 C 0.11145 0.7321 0.62361 0.0
C330 C 0.07225 0.67667 0.51157 0.0
C331 C 0.06262 0.69057 0.45177 0.0
C332 C 0.078 0.72555 0.47759 0.0
C333 C 0.10237 0.74619 0.56236 0.0
C334 C 0.98406 0.64809 0.28755 0.0
C335 C 0.98067 0.622 0.21714 0.0
C336 C 1.01119 0.67106 0.36116 0.0
C337 C 1.03537 0.66821 0.36676 0.0
C338 C 1.03238 0.64266 0.29479 0.0
C339 C 1.00533 0.61987 0.22008 0.0
H340 H 0.26736 0.89759 0.7147 0.0
H341 H 0.33125 0.97822 0.97886 0.0
H342 H 0.27668 0.93921 0.61556 0.0
H343 H 0.34065 1.01973 0.8817 0.0
H344 H 0.35682 1.02439 0.45958 0.0
H345 H 0.3241 0.97828 0.54608 0.0
H346 H 0.32443 0.04595 0.78826 0.0
H347 H 0.35737 0.09242 0.70116 0.0
C348 C 0.28219 0.92413 0.7529 0.0
C349 C 0.29837 0.93492 0.85436 0.0
C350 C 0.28784 0.94797 0.69603 0.0
C351 C 0.30956 0.98286 0.74041 0.0
C352 C 0.32346 0.99316 0.8453 0.0
C353 C 0.31813 0.96943 0.90125 0.0
C354 C 0.34903 0.02929 0.52922 0.0
C355 C 0.36019 0.06229 0.57436 0.0
C356 C 0.33014 1.0027 0.57894 0.0
C357 C 0.32201 1.00849 0.67505 0.0
C358 C 0.33078 0.04081 0.71528 0.0
C359 C 0.3497 0.06744 0.66553 0.0
H360 H 0.26352 0.75346 -0.00419 0.0
H361 H 0.36466 0.82428 0.05047 0.0
H362 H 0.26571 0.70715 0.94081 0.0
H363 H 0.36705 0.77785 0.00021 0.0
H364 H 0.35779 0.69984 0.74047 0.0
H365 H 0.35802 0.74452 0.83818 0.0
H366 H 0.27759 0.67081 0.96691 0.0
H367 H 0.27694 0.6259 0.86585 0.0
C368 C 0.28626 0.759 0.00012 0.0
C369 C 0.31391 0.79257 0.02637 0.0
C370 C 0.28756 0.73236 0.96838 0.0
C371 C 0.31657 0.7387 0.96355 0.0
C372 C 0.34426 0.77204 -0.00034 0.0
C373 C 0.34293 0.79869 0.02985 0.0
C374 C 0.3404 0.69325 0.79066 0.0
C375 C 0.31725 0.65934 0.795 0.0
C376 C 0.34062 0.71893 0.84748 0.0
C377 C 0.31786 0.71146 0.91117 0.0
C378 C 0.29521 0.67754 0.91768 0.0
C379 C 0.29481 0.65178 0.85983 0.0
H380 H 0.56509 0.17743 0.31154 0.0
H381 H 0.6087 0.25272 0.12459 0.0
H382 H 0.60311 0.16727 0.28505 0.0
H383 H 0.64662 0.24217 0.09694 0.0
H384 H 0.73031 0.24123 0.17545 0.0
H385 H 0.6915 0.2509 0.19298 0.0
H386 H 0.61853 0.14346 0.15392 0.0
H387 H 0.65736 0.13392 0.13958 0.0
C388 C 0.58262 0.19166 0.26398 0.0
C389 C 0.58373 0.21593 0.22034 0.0
C390 C 0.6044 0.18568 0.24832 0.0
C391 C 0.62805 0.20387 0.18882 0.0
C392 C 0.629 0.22794 0.1442 0.0
C393 C 0.60706 0.23382 0.15946 0.0
C394 C 0.70601 0.21967 0.1711 0.0
C395 C 0.69708 0.18678 0.1562 0.0
C396 C 0.68366 0.22519 0.18001 0.0
C397 C 0.65178 0.19798 0.17501 0.0
C398 C 0.64286 0.16509 0.15928 0.0
C399 C 0.66514 0.15957 0.14986 0.0
H400 H 0.58299 0.71555 0.47644 0.0
H401 H 0.5803 0.75747 0.78226 0.0
H402 H 0.53468 0.66071 0.48295 0.0
H403 H 0.53152 0.70204 0.78829 0.0
H404 H 0.45274 0.58483 0.77206 0.0
H405 H 0.50633 0.63755 0.78264 0.0
H406 H 0.48001 0.64386 0.47923 0.0
H407 H 0.42728 0.59231 0.46924 0.0
C408 C 0.57231 0.71307 0.54565 0.0
C409 C 0.58538 0.74117 0.62821 0.0
C410 C 0.54456 0.68155 0.54927 0.0
C411 C 0.52917 0.67709 0.63579 0.0
C412 C 0.54295 0.70467 0.72081 0.0
C413 C 0.57073 0.73646 0.7169 0.0
C414 C 0.45867 0.59742 0.70753 0.0
C415 C 0.43581 0.58446 0.61995 0.0
C416 C 0.48918 0.62763 0.71384 0.0
C417 C 0.49738 0.64476 0.63152 0.0
C418 C 0.47459 0.63116 0.54344 0.0
C419 C 0.44427 0.60163 0.53804 0.0
H420 H 0.95166 0.44467 0.18318 0.0
H421 H 0.9577 0.39872 0.89135 0.0
H422 H 0.94443 0.40052 0.26183 0.0
H423 H 0.94933 0.3539 0.96999 0.0
H424 H 0.87488 0.25872 0.09817 0.0
H425 H 0.89757 0.30913 0.02973 0.0
H426 H 0.96746 0.3694 0.3067 0.0
H427 H 0.94501 0.31813 0.37558 0.0
C428 C 0.95242 0.42582 0.1364 0.0
C429 C 0.95484 0.42509 0.03016 0.0
C430 C 0.94819 0.40045 0.18176 0.0
C431 C 0.94598 0.37366 0.12167 0.0
C432 C 0.95059 0.37413 0.01767 0.0
C433 C 0.95518 0.39969 0.97257 0.0
C434 C 0.89522 0.28258 0.14478 0.0
C435 C 0.90808 0.28439 0.24274 0.0
C436 C 0.9084 0.31145 0.10481 0.0
C437 C 0.93443 0.34309 0.16245 0.0
C438 C 0.94744 0.34519 0.26061 0.0
C439 C 0.9346 0.31595 0.29995 0.0
H440 H 0.47698 0.89926 0.29973 0.0
H441 H 0.45086 0.84382 -0.01737 0.0
H442 H 0.50611 0.8787 0.34287 0.0
H443 H 0.48034 0.82427 0.02345 0.0
H444 H 0.53535 0.79715 0.05631 0.0
H445 H 0.49132 0.79363 0.10754 0.0
H446 H 0.55502 0.89399 0.30245 0.0
H447 H 0.59915 0.89618 0.25915 0.0
C448 C 0.47704 0.8822 0.23985 0.0
C449 C 0.46238 0.87375 0.13723 0.0
C450 C 0.49371 0.87045 0.26445 0.0
C451 C 0.49581 0.84991 0.18687 0.0
C452 C 0.47904 0.83957 0.08616 0.0
C453 C 0.46257 0.85134 0.0618 0.0
C454 C 0.54021 0.8177 0.1152 0.0
C455 C 0.57089 0.84807 0.14791 0.0
C456 C 0.51475 0.81581 0.14355 0.0
C457 C 0.51967 0.8445 0.20267 0.0
C458 C 0.55022 0.87176 0.25363 0.0
C459 C 0.5757 0.8732 0.22779 0.0
H460 H 0.8161 0.43952 0.77029 0.0
H461 H 0.78694 0.49795 0.90027 0.0
H462 H 0.76111 0.39103 0.70152 0.0
H463 H 0.73279 0.45044 0.83356 0.0
H464 H 0.67288 0.31672 0.86176 0.0
H465 H 0.7219 0.35544 0.80198 0.0
H466 H 0.68797 0.40753 0.70632 0.0
H467 H 0.64007 0.3707 0.77391 0.0
C468 C 0.79801 0.4423 0.78081 0.0
C469 C 0.80542 0.47201 0.84212 0.0
C470 C 0.76658 0.4146 0.74187 0.0
C471 C 0.74239 0.41657 0.76293 0.0
C472 C 0.75055 0.4478 0.81455 0.0
C473 C 0.78166 0.47507 0.85419 0.0
C474 C 0.67556 0.33599 0.82598 0.0
C475 C 0.65329 0.34182 0.82866 0.0
C476 C 0.70359 0.35793 0.78984 0.0
C477 C 0.70945 0.38564 0.75392 0.0
C478 C 0.6846 0.38719 0.73743 0.0
C479 C 0.65687 0.36574 0.77565 0.0
H480 H 0.31476 0.42791 0.22902 0.0
H481 H 0.31604 0.50972 0.38397 0.0
H482 H 0.29732 0.43212 0.06326 0.0
H483 H 0.2971 0.51294 0.22122 0.0
H484 H 0.3635 0.55724 0.9625 0.0
H485 H 0.34178 0.53861 0.11848 0.0
H486 H 0.26713 0.43909 0.93356 0.0
H487 H 0.289 0.45741 0.77921 0.0
C488 C 0.31005 0.4458 0.22802 0.0
C489 C 0.31816 0.46976 0.31739 0.0
C490 C 0.29947 0.44781 0.13391 0.0
C491 C 0.29694 0.47369 0.13042 0.0
C492 C 0.29959 0.49334 0.22252 0.0
C493 C 0.31095 0.49191 0.31535 0.0
C494 C 0.34229 0.53164 0.95579 0.0
C495 C 0.32882 0.50836 0.86096 0.0
C496 C 0.32939 0.5211 0.04395 0.0
C497 C 0.30284 0.48728 0.03693 0.0
C498 C 0.28764 0.46511 0.94023 0.0
C499 C 0.30066 0.47553 0.85272 0.0
H500 H 0.84025 0.13612 0.03948 0.0
H501 H 0.92308 0.24053 0.10889 0.0
H502 H 0.82822 0.14172 0.86782 0.0
H503 H 0.90932 0.24784 0.94541 0.0
H504 H 0.8955 0.24502 0.60515 0.0
H505 H 0.90819 0.24048 0.7763 0.0
H506 H 0.80938 0.16086 0.77255 0.0
H507 H 0.7982 0.16216 0.59411 0.0
C508 C 0.85569 0.16027 0.01764 0.0
C509 C 0.88261 0.18775 0.086 0.0
C510 C 0.84857 0.16384 0.92028 0.0
C511 C 0.86758 0.19542 0.89175 0.0
C512 C 0.89448 0.22285 0.9618 0.0
C513 C 0.90232 0.21878 0.05653 0.0
C514 C 0.8769 0.22591 0.64037 0.0
C515 C 0.84647 0.20263 0.58508 0.0
C516 C 0.88384 0.22381 0.74003 0.0
C517 C 0.85992 0.19956 0.78876 0.0
C518 C 0.82874 0.17871 0.73646 0.0
C519 C 0.82215 0.17987 0.63482 0.0
H520 H 0.61263 0.78627 0.29792 0.0
H521 H 0.67335 0.89522 0.36968 0.0
H522 H 0.62749 0.78623 0.12663 0.0
H523 H 0.69184 0.89597 0.20582 0.0
H524 H 0.7046 0.89076 0.87184 0.0
H525 H 0.68778 0.89125 0.03805 0.0
H526 H 0.66231 0.79183 0.03017 0.0
H527 H 0.67456 0.78984 0.85501 0.0
C528 C 0.62932 0.81024 0.27647 0.0
C529 C 0.64181 0.84071 0.34604 0.0
C530 C 0.6385 0.81037 0.17904 0.0
C531 C 0.66159 0.84109 0.151 0.0
C532 C 0.67361 0.87161 0.22148 0.0
C533 C 0.6632 0.87135 0.31661 0.0
C534 C 0.69465 0.86876 0.9052 0.0
C535 C 0.68945 0.83973 0.84914 0.0
C536 C 0.68565 0.86924 0.00239 0.0
C537 C 0.67285 0.84127 0.04906 0.0
C538 C 0.67056 0.81334 -0.00393 0.0
C539 C 0.67831 0.81238 0.89634 0.0
H540 H 0.93822 0.57598 0.82085 0.0
H541 H 0.86114 0.57836 0.75468 0.0
H542 H 0.93617 0.55963 0.63697 0.0
H543 H 0.8609 0.56538 0.56859 0.0
H544 H 0.84155 0.49928 0.25446 0.0
H545 H 0.845 0.5193 0.43869 0.0
H546 H 0.9457 0.57484 0.48098 0.0
H547 H 0.94149 0.55221 0.30056 0.0
C548 C 0.92113 0.57344 0.76628 0.0
C549 C 0.89927 0.57733 0.80119 0.0
C550 C 0.92022 0.56463 0.66055 0.0
C551 C 0.89808 0.56075 0.58731 0.0
C552 C 0.87764 0.56715 0.62273 0.0
C553 C 0.87805 0.5751 0.72908 0.0
C554 C 0.86419 0.51523 0.30449 0.0
C555 C 0.89112 0.5238 0.26483 0.0
C556 C 0.86635 0.52722 0.40934 0.0
C557 C 0.89567 0.54875 0.47516 0.0
C558 C 0.92263 0.55763 0.43383 0.0
C559 C 0.92027 0.54473 0.33025 0.0
H560 H 0.34161 0.94587 0.32056 0.0
H561 H 0.25788 0.84567 0.17771 0.0
H562 H 0.33153 0.93244 0.49169 0.0
H563 H 0.24839 0.83175 0.34505 0.0
H564 H 0.24367 0.80959 0.65928 0.0
H565 H 0.24117 0.83305 0.51617 0.0
H566 H 0.3424 0.89716 0.54627 0.0
H567 H 0.34479 0.87548 0.69608 0.0
C568 C 0.3203 0.92163 0.3262 0.0
C569 C 0.30109 0.89619 0.23722 0.0
C570 C 0.31472 0.91377 0.4236 0.0
C571 C 0.29019 0.88049 0.43081 0.0
C572 C 0.26781 0.85745 0.34244 0.0
C573 C 0.27323 0.86541 0.24591 0.0
C574 C 0.26532 0.82784 0.63286 0.0
C575 C 0.2945 0.84032 0.68654 0.0
C576 C 0.2639 0.8418 0.55231 0.0
C577 C 0.29158 0.86758 0.52168 0.0
C578 C 0.32067 0.87826 0.5708 0.0
C579 C 0.32211 0.86499 0.65361 0.0
H580 H 0.50025 0.17395 0.96643 0.0
H581 H 0.48806 0.25037 0.04956 0.0
H582 H 0.51344 0.19011 0.79988 0.0
H583 H 0.50418 0.26903 0.89005 0.0
H584 H 0.5198 0.28754 0.56809 0.0
H585 H 0.49801 0.26491 0.71875 0.0
H586 H 0.5545 0.23099 0.73326 0.0
H587 H 0.57319 0.2504 0.57519 0.0
C588 C 0.50024 0.19408 0.94846 0.0
C589 C 0.49403 0.2116 0.02123 0.0
C590 C 0.50842 0.2039 0.85404 0.0
C591 C 0.5111 0.23183 0.832 0.0
C592 C 0.5025 0.24748 0.90269 0.0
C593 C 0.49355 0.23705 -0.00477 0.0
C594 C 0.52765 0.27551 0.60465 0.0
C595 C 0.54809 0.27066 0.56104 0.0
C596 C 0.51524 0.26249 0.69137 0.0
C597 C 0.52407 0.24557 0.73876 0.0
C598 C 0.54609 0.24262 0.69751 0.0
C599 C 0.55746 0.25444 0.60835 0.0
loop_
_geom_bond_atom_site_label_1
_geom_bond_atom_site_label_2
_geom_bond_distance
_geom_bond_site_symmetry_2
_ccdc_geom_bond_type
La0 C2 2.928 . S
La0 O20 2.521 . S
La0 O21 2.628 . S
La0 O22 2.554 . S
La0 O23 2.757 . S
La0 O24 2.470 . S
La0 O29 2.482 1_556 S
La0 O31 2.503 . S
La1 C11 2.928 . S
La1 O23 2.482 . S
La1 O25 2.503 . S
La1 O26 2.521 1_556 S
La1 O27 2.628 . S
La1 O28 2.554 1_556 S
La1 O29 2.757 1_556 S
La1 O30 2.470 1_556 S
C2 La0 2.928 . S
C2 C3 1.503 . S
C2 O20 1.261 . S
C2 O21 1.243 . S
C3 C2 1.503 . S
C3 C4 1.394 . S
C3 C8 1.373 . S
C4 C3 1.394 . S
C4 C5 1.380 . S
C4 H32 0.930 . S
C5 C4 1.380 . S
C5 C6 1.376 . S
C5 H33 0.930 . S
C6 C5 1.376 . S
C6 C7 1.370 . S
C7 C6 1.370 . S
C7 C8 1.396 . S
C7 H34 0.929 . S
C8 C3 1.373 . S
C8 C7 1.396 . S
C8 H35 0.929 . S
C9 O22 1.240 . S
C9 O23 1.289 . S
C10 O24 1.258 . S
C10 O25 1.256 . S
C11 La1 2.928 . S
C11 C12 1.503 1_556 S
C11 O26 1.261 1_556 S
C11 O27 1.243 . S
C12 C11 1.503 1_554 S
C12 C13 1.394 . S
C12 C17 1.373 1_554 S
C13 C12 1.394 . S
C13 C14 1.380 . S
C13 H36 0.930 . S
C14 C13 1.380 . S
C14 C15 1.376 . S
C14 H37 0.930 . S
C15 C14 1.376 . S
C15 C16 1.370 1_554 S
C16 C15 1.370 1_556 S
C16 C17 1.396 . S
C16 H38 0.929 . S
C17 C12 1.373 1_556 S
C17 C16 1.396 . S
C17 H39 0.929 . S
C18 O28 1.240 . S
C18 O29 1.289 . S
C19 O30 1.258 . S
C19 O31 1.256 1_554 S
O20 La0 2.521 . S
O20 C2 1.261 . S
O21 La0 2.628 . S
O21 C2 1.243 . S
O22 La0 2.554 . S
O22 C9 1.240 . S
O23 La0 2.757 . S
O23 La1 2.482 . S
O23 C9 1.289 . S
O24 La0 2.470 . S
O24 C10 1.258 . S
O25 La1 2.503 . S
O25 C10 1.256 . S
O26 La1 2.521 1_554 S
O26 C11 1.261 1_554 S
O27 La1 2.628 . S
O27 C11 1.243 . S
O28 La1 2.554 1_554 S
O28 C18 1.240 . S
O29 La0 2.482 1_554 S
O29 La1 2.757 1_554 S
O29 C18 1.289 . S
O30 La1 2.470 1_554 S
O30 C19 1.258 . S
O31 La0 2.503 . S
O31 C19 1.256 1_556 S
H32 C4 0.930 . S
H33 C5 0.930 . S
H34 C7 0.929 . S
H35 C8 0.929 . S
H36 C13 0.930 . S
H37 C14 0.930 . S
H38 C16 0.929 . S
H39 C17 0.929 . S
La40 C42 2.928 . S
La40 O60 2.521 . S
La40 O61 2.628 . S
La40 O62 2.554 1_554 S
La40 O63 2.757 1_554 S
La40 O64 2.470 . S
La40 O69 2.482 . S
La40 O71 2.503 . S
La41 C51 2.928 1_554 S
La41 O63 2.482 1_554 S
La41 O65 2.503 . S
La41 O66 2.521 . S
La41 O67 2.628 1_554 S
La41 O68 2.554 . S
La41 O69 2.757 . S
La41 O70 2.470 . S
C42 La40 2.928 . S
C42 C43 1.503 . S
C42 O60 1.261 . S
C42 O61 1.243 . S
C43 C42 1.503 . S
C43 C44 1.394 . S
C43 C48 1.373 . S
C44 C43 1.394 . S
C44 C45 1.380 . S
C44 H72 0.930 . S
C45 C44 1.380 . S
C45 C46 1.376 . S
C45 H73 0.930 . S
C46 C45 1.376 . S
C46 C47 1.370 . S
C47 C46 1.370 . S
C47 C48 1.396 . S
C47 H74 0.929 . S
C48 C43 1.373 . S
C48 C47 1.396 . S
C48 H75 0.929 . S
C49 O62 1.240 . S
C49 O63 1.289 . S
C50 O64 1.258 . S
C50 O65 1.256 . S
C51 La41 2.928 1_556 S
C51 C52 1.503 . S
C51 O66 1.261 1_556 S
C51 O67 1.243 . S
C52 C51 1.503 . S
C52 C53 1.394 1_556 S
C52 C57 1.373 . S
C53 C52 1.394 1_554 S
C53 C54 1.380 1_554 S
C53 H76 0.930 . S
C54 C53 1.380 1_556 S
C54 C55 1.376 . S
C54 H77 0.930 1_556 S
C55 C54 1.376 . S
C55 C56 1.370 . S
C56 C55 1.370 . S
C56 C57 1.396 . S
C56 H78 0.929 . S
C57 C52 1.373 . S
C57 C56 1.396 . S
C57 H79 0.929 . S
C58 O68 1.240 . S
C58 O69 1.289 . S
C59 O70 1.258 . S
C59 O71 1.256 . S
O60 La40 2.521 . S
O60 C42 1.261 . S
O61 La40 2.628 . S
O61 C42 1.243 . S
O62 La40 2.554 1_556 S
O62 C49 1.240 . S
O63 La40 2.757 1_556 S
O63 La41 2.482 1_556 S
O63 C49 1.289 . S
O64 La40 2.470 . S
O64 C50 1.258 . S
O65 La41 2.503 . S
O65 C50 1.256 . S
O66 La41 2.521 . S
O66 C51 1.261 1_554 S
O67 La41 2.628 1_556 S
O67 C51 1.243 . S
O68 La41 2.554 . S
O68 C58 1.240 . S
O69 La40 2.482 . S
O69 La41 2.757 . S
O69 C58 1.289 . S
O70 La41 2.470 . S
O70 C59 1.258 . S
O71 La40 2.503 . S
O71 C59 1.256 . S
H72 C44 0.930 . S
H73 C45 0.930 . S
H74 C47 0.929 . S
H75 C48 0.929 . S
H76 C53 0.930 . S
H77 C54 0.930 1_554 S
H78 C56 0.929 . S
H79 C57 0.929 . S
La80 C82 2.928 . S
La80 O100 2.521 1_556 S
La80 O101 2.628 . S
La80 O102 2.554 1_556 S
La80 O103 2.757 1_556 S
La80 O104 2.470 1_556 S
La80 O109 2.482 . S
La80 O111 2.502 1_556 S
La81 C91 2.928 . S
La81 O103 2.482 . S
La81 O105 2.502 1_554 S
La81 O106 2.521 1_554 S
La81 O107 2.628 . S
La81 O108 2.554 1_554 S
La81 O109 2.757 1_554 S
La81 O110 2.470 1_554 S
C82 La80 2.928 . S
C82 C83 1.503 . S
C82 O100 1.261 1_556 S
C82 O101 1.243 . S
C83 C82 1.503 . S
C83 C84 1.394 . S
C83 C88 1.373 . S
C84 C83 1.394 . S
C84 C85 1.380 . S
C84 H112 0.930 1_556 S
C85 C84 1.380 . S
C85 C86 1.376 . S
C85 H113 0.930 . S
C86 C85 1.376 . S
C86 C87 1.370 . S
C87 C86 1.370 . S
C87 C88 1.396 . S
C87 H114 0.929 . S
C88 C83 1.373 . S
C88 C87 1.396 . S
C88 H115 0.929 . S
C89 O102 1.240 . S
C89 O103 1.289 . S
C90 O104 1.258 1_556 S
C90 O105 1.256 . S
C91 La81 2.928 . S
C91 C92 1.503 . S
C91 O106 1.261 1_554 S
C91 O107 1.243 . S
C92 C91 1.503 . S
C92 C93 1.394 . S
C92 C97 1.373 . S
C93 C92 1.394 . S
C93 C94 1.380 . S
C93 H116 0.930 1_554 S
C94 C93 1.380 . S
C94 C95 1.376 . S
C94 H117 0.930 . S
C95 C94 1.376 . S
C95 C96 1.370 . S
C96 C95 1.370 . S
C96 C97 1.396 . S
C96 H118 0.929 . S
C97 C92 1.373 . S
C97 C96 1.396 . S
C97 H119 0.929 . S
C98 O108 1.240 . S
C98 O109 1.289 . S
C99 O110 1.258 1_554 S
C99 O111 1.256 . S
O100 La80 2.521 1_554 S
O100 C82 1.261 1_554 S
O101 La80 2.628 . S
O101 C82 1.243 . S
O102 La80 2.554 1_554 S
O102 C89 1.240 . S
O103 La80 2.757 1_554 S
O103 La81 2.482 . S
O103 C89 1.289 . S
O104 La80 2.470 1_554 S
O104 C90 1.258 1_554 S
O105 La81 2.502 1_556 S
O105 C90 1.256 . S
O106 La81 2.521 1_556 S
O106 C91 1.261 1_556 S
O107 La81 2.628 . S
O107 C91 1.243 . S
O108 La81 2.554 1_556 S
O108 C98 1.240 . S
O109 La80 2.482 . S
O109 La81 2.757 1_556 S
O109 C98 1.289 . S
O110 La81 2.470 1_556 S
O110 C99 1.258 1_556 S
O111 La80 2.502 1_554 S
O111 C99 1.256 . S
H112 C84 0.930 1_554 S
H113 C85 0.930 . S
H114 C87 0.929 . S
H115 C88 0.929 . S
H116 C93 0.930 1_556 S
H117 C94 0.930 . S
H118 C96 0.929 . S
H119 C97 0.929 . S
La120 C122 2.928 . S
La120 O140 2.521 1_554 S
La120 O141 2.628 . S
La120 O142 2.554 1_554 S
La120 O143 2.757 1_554 S
La120 O144 2.470 . S
La120 O149 2.482 . S
La120 O151 2.503 1_554 S
La121 C131 2.928 . S
La121 O143 2.482 . S
La121 O145 2.503 1_556 S
La121 O146 2.521 1_556 S
La121 O147 2.628 . S
La121 O148 2.554 1_556 S
La121 O149 2.757 1_556 S
La121 O150 2.470 . S
C122 La120 2.928 . S
C122 C123 1.503 . S
C122 O140 1.261 1_554 S
C122 O141 1.243 . S
C123 C122 1.503 . S
C123 C124 1.394 . S
C123 C128 1.373 . S
C124 C123 1.394 . S
C124 C125 1.380 . S
C124 H152 0.930 1_554 S
C125 C124 1.380 . S
C125 C126 1.376 . S
C125 H153 0.930 . S
C126 C125 1.376 . S
C126 C127 1.370 . S
C127 C126 1.370 . S
C127 C128 1.396 . S
C127 H154 0.929 . S
C128 C123 1.373 . S
C128 C127 1.396 . S
C128 H155 0.929 . S
C129 O142 1.240 . S
C129 O143 1.289 . S
C130 O144 1.258 . S
C130 O145 1.256 . S
C131 La121 2.928 . S
C131 C132 1.503 . S
C131 O146 1.261 1_556 S
C131 O147 1.243 . S
C132 C131 1.503 . S
C132 C133 1.394 . S
C132 C137 1.373 . S
C133 C132 1.394 . S
C133 C134 1.380 . S
C133 H156 0.930 1_556 S
C134 C133 1.380 . S
C134 C135 1.376 . S
C134 H157 0.930 . S
C135 C134 1.376 . S
C135 C136 1.370 . S
C136 C135 1.370 . S
C136 C137 1.396 . S
C136 H158 0.929 . S
C137 C132 1.373 . S
C137 C136 1.396 . S
C137 H159 0.929 . S
C138 O148 1.240 . S
C138 O149 1.289 . S
C139 O150 1.258 . S
C139 O151 1.256 . S
O140 La120 2.521 1_556 S
O140 C122 1.261 1_556 S
O141 La120 2.628 . S
O141 C122 1.243 . S
O142 La120 2.554 1_556 S
O142 C129 1.240 . S
O143 La120 2.757 1_556 S
O143 La121 2.482 . S
O143 C129 1.289 . S
O144 La120 2.470 . S
O144 C130 1.258 . S
O145 La121 2.503 1_554 S
O145 C130 1.256 . S
O146 La121 2.521 1_554 S
O146 C131 1.261 1_554 S
O147 La121 2.628 . S
O147 C131 1.243 . S
O148 La121 2.554 1_554 S
O148 C138 1.240 . S
O149 La120 2.482 . S
O149 La121 2.757 1_554 S
O149 C138 1.289 . S
O150 La121 2.470 . S
O150 C139 1.258 . S
O151 La120 2.503 1_556 S
O151 C139 1.256 . S
H152 C124 0.930 1_556 S
H153 C125 0.930 . S
H154 C127 0.929 . S
H155 C128 0.929 . S
H156 C133 0.930 1_554 S
H157 C134 0.930 . S
H158 C136 0.929 . S
H159 C137 0.929 . S
La160 C162 2.928 . S
La160 O180 2.521 . S
La160 O181 2.628 1_556 S
La160 O182 2.554 . S
La160 O183 2.757 . S
La160 O184 2.470 . S
La160 O189 2.482 1_556 S
La160 O191 2.503 . S
La161 C171 2.928 . S
La161 O183 2.482 1_554 S
La161 O185 2.503 . S
La161 O186 2.521 . S
La161 O187 2.628 1_554 S
La161 O188 2.554 . S
La161 O189 2.757 . S
La161 O190 2.470 . S
C162 La160 2.928 . S
C162 C163 1.503 . S
C162 O180 1.261 . S
C162 O181 1.243 1_556 S
C163 C162 1.503 . S
C163 C164 1.394 . S
C163 C168 1.373 . S
C164 C163 1.394 . S
C164 C165 1.380 . S
C164 H192 0.930 . S
C165 C164 1.380 . S
C165 C166 1.376 . S
C165 H193 0.930 . S
C166 C165 1.376 . S
C166 C167 1.370 . S
C167 C166 1.370 . S
C167 C168 1.396 . S
C167 H194 0.929 1_556 S
C168 C163 1.373 . S
C168 C167 1.396 . S
C168 H195 0.929 1_556 S
C169 O182 1.240 . S
C169 O183 1.289 . S
C170 O184 1.258 . S
C170 O185 1.256 1_556 S
C171 La161 2.928 . S
C171 C172 1.503 . S
C171 O186 1.261 . S
C171 O187 1.243 1_554 S
C172 C171 1.503 . S
C172 C173 1.394 . S
C172 C177 1.373 . S
C173 C172 1.394 . S
C173 C174 1.380 . S
C173 H196 0.930 . S
C174 C173 1.380 . S
C174 C175 1.376 . S
C174 H197 0.930 . S
C175 C174 1.376 . S
C175 C176 1.370 . S
C176 C175 1.370 . S
C176 C177 1.396 . S
C176 H198 0.929 1_554 S
C177 C172 1.373 . S
C177 C176 1.396 . S
C177 H199 0.929 1_554 S
C178 O188 1.240 . S
C178 O189 1.289 . S
C179 O190 1.258 . S
C179 O191 1.256 1_554 S
O180 La160 2.521 . S
O180 C162 1.261 . S
O181 La160 2.628 1_554 S
O181 C162 1.243 1_554 S
O182 La160 2.554 . S
O182 C169 1.240 . S
O183 La160 2.757 . S
O183 La161 2.482 1_556 S
O183 C169 1.289 . S
O184 La160 2.470 . S
O184 C170 1.258 . S
O185 La161 2.503 . S
O185 C170 1.256 1_554 S
O186 La161 2.521 . S
O186 C171 1.261 . S
O187 La161 2.628 1_556 S
O187 C171 1.243 1_556 S
O188 La161 2.554 . S
O188 C178 1.240 . S
O189 La160 2.482 1_554 S
O189 La161 2.757 . S
O189 C178 1.289 . S
O190 La161 2.470 . S
O190 C179 1.258 . S
O191 La160 2.503 . S
O191 C179 1.256 1_556 S
H192 C164 0.930 . S
H193 C165 0.930 . S
H194 C167 0.929 1_554 S
H195 C168 0.929 1_554 S
H196 C173 0.930 . S
H197 C174 0.930 . S
H198 C176 0.929 1_556 S
H199 C177 0.929 1_556 S
La200 C202 2.928 1_556 S
La200 O220 2.521 . S
La200 O221 2.628 1_556 S
La200 O222 2.554 . S
La200 O223 2.757 . S
La200 O224 2.470 . S
La200 O229 2.482 1_556 S
La200 O231 2.503 . S
La201 C211 2.928 1_554 S
La201 O223 2.482 1_554 S
La201 O225 2.503 . S
La201 O226 2.521 . S
La201 O227 2.628 1_554 S
La201 O228 2.554 . S
La201 O229 2.757 . S
La201 O230 2.470 . S
C202 La200 2.928 1_554 S
C202 C203 1.503 . S
C202 O220 1.261 1_554 S
C202 O221 1.243 . S
C203 C202 1.503 . S
C203 C204 1.394 1_544 S
C203 C208 1.373 . S
C204 C203 1.394 1_566 S
C204 C205 1.380 . S
C204 H232 0.930 . S
C205 C204 1.380 . S
C205 C206 1.376 1_556 S
C205 H233 0.930 . S
C206 C205 1.376 1_554 S
C206 C207 1.384 . S
C207 C206 1.384 . S
C207 C208 1.392 1_565 S
C207 H234 0.921 1_565 S
C208 C203 1.373 . S
C208 C207 1.392 1_545 S
C208 H235 0.929 . S
C209 O222 1.240 . S
C209 O223 1.289 . S
C210 O224 1.258 1_554 S
C210 O225 1.256 . S
C211 La201 2.928 1_556 S
C211 C212 1.503 . S
C211 O226 1.261 1_556 S
C211 O227 1.243 . S
C212 C211 1.503 . S
C212 C213 1.394 1_556 S
C212 C217 1.373 . S
C213 C212 1.394 1_554 S
C213 C214 1.380 . S
C213 H236 0.930 . S
C214 C213 1.380 . S
C214 C215 1.376 1_554 S
C214 H237 0.930 . S
C215 C214 1.376 1_556 S
C215 C216 1.370 . S
C216 C215 1.370 . S
C216 C217 1.396 . S
C216 H238 0.929 . S
C217 C212 1.373 . S
C217 C216 1.396 . S
C217 H239 0.929 . S
C218 O228 1.240 . S
C218 O229 1.289 . S
C219 O230 1.258 1_556 S
C219 O231 1.256 . S
O220 La200 2.521 . S
O220 C202 1.261 1_556 S
O221 La200 2.628 1_554 S
O221 C202 1.243 . S
O222 La200 2.554 . S
O222 C209 1.240 . S
O223 La200 2.757 . S
O223 La201 2.482 1_556 S
O223 C209 1.289 . S
O224 La200 2.470 . S
O224 C210 1.258 1_556 S
O225 La201 2.503 . S
O225 C210 1.256 . S
O226 La201 2.521 . S
O226 C211 1.261 1_554 S
O227 La201 2.628 1_556 S
O227 C211 1.243 . S
O228 La201 2.554 . S
O228 C218 1.240 . S
O229 La200 2.482 1_554 S
O229 La201 2.757 . S
O229 C218 1.289 . S
O230 La201 2.470 . S
O230 C219 1.258 1_554 S
O231 La200 2.503 . S
O231 C219 1.256 . S
H232 C204 0.930 . S
H233 C205 0.930 . S
H234 C207 0.921 1_545 S
H235 C208 0.929 . S
H236 C213 0.930 . S
H237 C214 0.930 . S
H238 C216 0.929 . S
H239 C217 0.929 . S
H240 C248 0.950 . S
H241 C253 0.950 . S
H242 C250 0.950 . S
H243 C252 0.950 . S
H244 C254 0.950 . S
H245 C256 0.950 . S
H246 C258 0.950 . S
H247 C259 0.950 . S
C248 H240 0.950 . S
C248 C249 1.386 . S
C248 C250 1.391 . S
C249 C248 1.386 . S
C249 C253 1.393 . S
C250 H242 0.950 . S
C250 C248 1.391 . S
C250 C251 1.400 . S
C251 C250 1.400 . S
C251 C252 1.398 . S
C251 C257 1.491 . S
C252 H243 0.950 . S
C252 C251 1.398 . S
C252 C253 1.391 . S
C253 H241 0.950 . S
C253 C249 1.393 . S
C253 C252 1.391 . S
C254 H244 0.950 . S
C254 C255 1.386 . S
C254 C256 1.391 . S
C255 C254 1.386 . S
C255 C259 1.393 . S
C256 H245 0.950 . S
C256 C254 1.391 . S
C256 C257 1.400 . S
C257 C251 1.491 . S
C257 C256 1.400 . S
C257 C258 1.398 . S
C258 H246 0.950 . S
C258 C257 1.398 . S
C258 C259 1.391 . S
C259 H247 0.950 . S
C259 C255 1.393 . S
C259 C258 1.391 . S
H260 C268 0.950 . S
H261 C273 0.950 . S
H262 C270 0.950 . S
H263 C272 0.950 . S
H264 C274 0.950 . S
H265 C276 0.950 . S
H266 C278 0.950 . S
H267 C279 0.950 . S
C268 H260 0.950 . S
C268 C269 1.386 . S
C268 C270 1.391 . S
C269 C268 1.386 . S
C269 C273 1.393 . S
C270 H262 0.950 . S
C270 C268 1.391 . S
C270 C271 1.400 . S
C271 C270 1.400 . S
C271 C272 1.398 . S
C271 C277 1.491 . S
C272 H263 0.950 . S
C272 C271 1.398 . S
C272 C273 1.391 . S
C273 H261 0.950 . S
C273 C269 1.393 . S
C273 C272 1.391 . S
C274 H264 0.950 . S
C274 C275 1.386 . S
C274 C276 1.391 . S
C275 C274 1.386 . S
C275 C279 1.393 . S
C276 H265 0.950 . S
C276 C274 1.391 . S
C276 C277 1.400 . S
C277 C271 1.491 . S
C277 C276 1.400 . S
C277 C278 1.398 . S
C278 H266 0.950 . S
C278 C277 1.398 . S
C278 C279 1.391 . S
C279 H267 0.950 . S
C279 C275 1.393 . S
C279 C278 1.391 . S
H280 C288 0.962 . S
H281 C293 0.950 . S
H282 C290 0.950 . S
H283 C292 0.950 . S
H284 C294 0.950 . S
H285 C296 0.950 . S
H286 C298 0.950 . S
H287 C299 0.950 . S
C288 H280 0.962 . S
C288 C289 1.363 1_565 S
C288 C290 1.401 . S
C289 C288 1.363 1_545 S
C289 C293 1.393 . S
C290 H282 0.950 . S
C290 C288 1.401 . S
C290 C291 1.400 1_565 S
C291 C290 1.400 1_545 S
C291 C292 1.398 . S
C291 C297 1.477 1_545 S
C292 H283 0.950 . S
C292 C291 1.398 . S
C292 C293 1.391 . S
C293 H281 0.950 . S
C293 C289 1.393 . S
C293 C292 1.391 . S
C294 H284 0.950 . S
C294 C295 1.386 1_545 S
C294 C296 1.391 . S
C295 C294 1.386 1_565 S
C295 C299 1.393 . S
C296 H285 0.950 . S
C296 C294 1.391 . S
C296 C297 1.384 1_545 S
C297 C291 1.477 1_565 S
C297 C296 1.384 1_565 S
C297 C298 1.430 . S
C298 H286 0.950 . S
C298 C297 1.430 . S
C298 C299 1.391 . S
C299 H287 0.950 . S
C299 C295 1.393 . S
C299 C298 1.391 . S
H300 C308 0.950 . S
H301 C313 0.950 . S
H302 C310 0.950 . S
H303 C312 0.950 . S
H304 C314 0.950 . S
H305 C316 0.950 . S
H306 C318 0.950 . S
H307 C319 0.950 . S
C308 H300 0.950 . S
C308 C309 1.386 . S
C308 C310 1.391 . S
C309 C308 1.386 . S
C309 C313 1.393 . S
C310 H302 0.950 . S
C310 C308 1.391 . S
C310 C311 1.400 . S
C311 C310 1.400 . S
C311 C312 1.398 . S
C311 C317 1.491 . S
C312 H303 0.950 . S
C312 C311 1.398 . S
C312 C313 1.391 . S
C313 H301 0.950 . S
C313 C309 1.393 . S
C313 C312 1.391 . S
C314 H304 0.950 . S
C314 C315 1.386 . S
C314 C316 1.391 . S
C315 C314 1.386 . S
C315 C319 1.393 . S
C316 H305 0.950 . S
C316 C314 1.391 . S
C316 C317 1.400 . S
C317 C311 1.491 . S
C317 C316 1.400 . S
C317 C318 1.398 . S
C318 H306 0.950 . S
C318 C317 1.398 . S
C318 C319 1.391 . S
C319 H307 0.950 . S
C319 C315 1.393 . S
C319 C318 1.391 . S
H320 C328 0.950 . S
H321 C333 0.950 . S
H322 C330 0.950 . S
H323 C332 0.935 1_655 S
H324 C334 0.950 . S
H325 C336 0.950 . S
H326 C338 0.950 . S
H327 C339 0.950 . S
C328 H320 0.950 . S
C328 C329 1.386 . S
C328 C330 1.391 . S
C329 C328 1.386 . S
C329 C333 1.393 . S
C330 H322 0.950 . S
C330 C328 1.391 . S
C330 C331 1.400 1_455 S
C331 C330 1.400 1_655 S
C331 C332 1.410 1_655 S
C331 C337 1.491 . S
C332 H323 0.935 1_455 S
C332 C331 1.410 1_455 S
C332 C333 1.393 . S
C333 H321 0.950 . S
C333 C329 1.393 . S
C333 C332 1.393 . S
C334 H324 0.950 . S
C334 C335 1.386 . S
C334 C336 1.391 . S
C335 C334 1.386 . S
C335 C339 1.393 . S
C336 H325 0.950 . S
C336 C334 1.391 . S
C336 C337 1.400 . S
C337 C331 1.491 . S
C337 C336 1.400 . S
C337 C338 1.398 . S
C338 H326 0.950 . S
C338 C337 1.398 . S
C338 C339 1.391 . S
C339 H327 0.950 . S
C339 C335 1.393 . S
C339 C338 1.391 . S
H340 C348 0.950 . S
H341 C353 0.950 . S
H342 C350 0.950 . S
H343 C352 0.950 . S
H344 C354 0.950 . S
H345 C356 0.950 . S
H346 C358 0.950 . S
H347 C359 0.950 . S
C348 H340 0.950 . S
C348 C349 1.386 . S
C348 C350 1.391 . S
C349 C348 1.386 . S
C349 C353 1.393 . S
C350 H342 0.950 . S
C350 C348 1.391 . S
C350 C351 1.400 . S
C351 C350 1.400 . S
C351 C352 1.398 . S
C351 C357 1.491 . S
C352 H343 0.950 . S
C352 C351 1.398 . S
C352 C353 1.391 . S
C353 H341 0.950 . S
C353 C349 1.393 . S
C353 C352 1.391 . S
C354 H344 0.950 . S
C354 C355 1.386 . S
C354 C356 1.391 . S
C355 C354 1.386 . S
C355 C359 1.393 . S
C356 H345 0.950 . S
C356 C354 1.391 . S
C356 C357 1.400 . S
C357 C351 1.491 . S
C357 C356 1.400 . S
C357 C358 1.398 . S
C358 H346 0.950 . S
C358 C357 1.398 . S
C358 C359 1.391 . S
C359 H347 0.950 . S
C359 C355 1.393 . S
C359 C358 1.391 . S
H360 C368 0.950 . S
H361 C373 0.950 . S
H362 C370 0.950 . S
H363 C372 0.950 . S
H364 C374 0.950 . S
H365 C376 0.950 . S
H366 C378 0.950 . S
H367 C379 0.950 . S
C368 H360 0.950 . S
C368 C369 1.386 . S
C368 C370 1.391 . S
C369 C368 1.386 . S
C369 C373 1.393 1_554 S
C370 H362 0.950 . S
C370 C368 1.391 . S
C370 C371 1.400 . S
C371 C370 1.400 . S
C371 C372 1.398 1_554 S
C371 C377 1.491 . S
C372 H363 0.950 . S
C372 C371 1.398 1_556 S
C372 C373 1.391 . S
C373 H361 0.950 . S
C373 C369 1.393 1_556 S
C373 C372 1.391 . S
C374 H364 0.950 . S
C374 C375 1.386 1_556 S
C374 C376 1.391 . S
C375 C374 1.386 1_554 S
C375 C379 1.393 . S
C376 H365 0.950 . S
C376 C374 1.391 . S
C376 C377 1.400 1_556 S
C377 C371 1.491 . S
C377 C376 1.400 1_554 S
C377 C378 1.398 . S
C378 H366 0.950 . S
C378 C377 1.398 . S
C378 C379 1.391 . S
C379 H367 0.950 . S
C379 C375 1.393 . S
C379 C378 1.391 . S
H380 C388 0.950 . S
H381 C393 0.950 1_554 S
H382 C390 0.950 . S
H383 C392 0.950 1_554 S
H384 C394 0.950 . S
H385 C396 0.950 1_554 S
H386 C398 0.950 . S
H387 C399 0.950 . S
C388 H380 0.950 . S
C388 C389 1.386 . S
C388 C390 1.391 . S
C389 C388 1.386 . S
C389 C393 1.393 . S
C390 H382 0.950 . S
C390 C388 1.391 . S
C390 C391 1.400 . S
C391 C390 1.400 . S
C391 C392 1.398 . S
C391 C397 1.491 . S
C392 H383 0.950 1_556 S
C392 C391 1.398 . S
C392 C393 1.391 . S
C393 H381 0.950 1_556 S
C393 C389 1.393 . S
C393 C392 1.391 . S
C394 H384 0.950 . S
C394 C395 1.386 . S
C394 C396 1.391 . S
C395 C394 1.386 . S
C395 C399 1.393 . S
C396 H385 0.950 1_556 S
C396 C394 1.391 . S
C396 C397 1.400 . S
C397 C391 1.491 . S
C397 C396 1.400 . S
C397 C398 1.398 . S
C398 H386 0.950 . S
C398 C397 1.398 . S
C398 C399 1.391 . S
C399 H387 0.950 . S
C399 C395 1.393 . S
C399 C398 1.391 . S
H400 C408 0.950 . S
H401 C413 0.950 . S
H402 C410 0.950 . S
H403 C412 0.950 . S
H404 C414 0.950 . S
H405 C416 0.950 . S
H406 C418 0.950 . S
H407 C419 0.950 . S
C408 H400 0.950 . S
C408 C409 1.386 1_556 S
C408 C410 1.391 . S
C409 C408 1.386 1_554 S
C409 C413 1.393 . S
C410 H402 0.950 . S
C410 C408 1.391 . S
C410 C411 1.400 1_556 S
C411 C410 1.400 1_554 S
C411 C412 1.398 . S
C411 C417 1.491 . S
C412 H403 0.950 . S
C412 C411 1.398 . S
C412 C413 1.391 . S
C413 H401 0.950 . S
C413 C409 1.393 . S
C413 C412 1.391 . S
C414 H404 0.950 . S
C414 C415 1.386 . S
C414 C416 1.391 . S
C415 C414 1.386 . S
C415 C419 1.393 1_554 S
C416 H405 0.950 . S
C416 C414 1.391 . S
C416 C417 1.400 . S
C417 C411 1.491 . S
C417 C416 1.400 . S
C417 C418 1.398 1_554 S
C418 H406 0.950 . S
C418 C417 1.398 1_556 S
C418 C419 1.391 . S
C419 H407 0.950 . S
C419 C415 1.393 1_556 S
C419 C418 1.391 . S
H420 C428 0.950 . S
H421 C433 0.950 . S
H422 C430 0.950 1_554 S
H423 C432 0.950 . S
H424 C434 0.950 . S
H425 C436 0.950 . S
H426 C438 0.950 . S
H427 C439 0.950 . S
C428 H420 0.950 . S
C428 C429 1.386 . S
C428 C430 1.391 . S
C429 C428 1.386 . S
C429 C433 1.393 . S
C430 H422 0.950 1_556 S
C430 C428 1.391 . S
C430 C431 1.400 . S
C431 C430 1.400 . S
C431 C432 1.398 . S
C431 C437 1.491 . S
C432 H423 0.950 . S
C432 C431 1.398 . S
C432 C433 1.391 . S
C433 H421 0.950 . S
C433 C429 1.393 . S
C433 C432 1.391 . S
C434 H424 0.950 . S
C434 C435 1.386 . S
C434 C436 1.391 . S
C435 C434 1.386 . S
C435 C439 1.393 1_556 S
C436 H425 0.950 . S
C436 C434 1.391 . S
C436 C437 1.400 . S
C437 C431 1.491 . S
C437 C436 1.400 . S
C437 C438 1.398 1_556 S
C438 H426 0.950 . S
C438 C437 1.398 1_554 S
C438 C439 1.391 . S
C439 H427 0.950 . S
C439 C435 1.393 1_554 S
C439 C438 1.391 . S
H440 C448 0.950 . S
H441 C453 0.950 . S
H442 C450 0.950 . S
H443 C452 0.950 . S
H444 C454 0.950 . S
H445 C456 0.950 . S
H446 C458 0.950 . S
H447 C459 0.950 . S
C448 H440 0.950 . S
C448 C449 1.386 . S
C448 C450 1.391 . S
C449 C448 1.386 . S
C449 C453 1.393 . S
C450 H442 0.950 . S
C450 C448 1.391 . S
C450 C451 1.400 . S
C451 C450 1.400 . S
C451 C452 1.398 . S
C451 C457 1.491 . S
C452 H443 0.950 . S
C452 C451 1.398 . S
C452 C453 1.391 . S
C453 H441 0.950 . S
C453 C449 1.393 . S
C453 C452 1.391 . S
C454 H444 0.950 . S
C454 C455 1.386 . S
C454 C456 1.391 . S
C455 C454 1.386 . S
C455 C459 1.393 . S
C456 H445 0.950 . S
C456 C454 1.391 . S
C456 C457 1.400 . S
C457 C451 1.491 . S
C457 C456 1.400 . S
C457 C458 1.398 . S
C458 H446 0.950 . S
C458 C457 1.398 . S
C458 C459 1.391 . S
C459 H447 0.950 . S
C459 C455 1.393 . S
C459 C458 1.391 . S
H460 C468 0.950 . S
H461 C473 0.950 . S
H462 C470 0.950 . S
H463 C472 0.950 . S
H464 C474 0.954 . S
H465 C476 0.950 . S
H466 C478 0.950 . S
H467 C479 0.950 . S
C468 H460 0.950 . S
C468 C469 1.386 . S
C468 C470 1.391 . S
C469 C468 1.386 . S
C469 C473 1.393 1_556 S
C470 H462 0.950 . S
C470 C468 1.391 . S
C470 C471 1.400 . S
C471 C470 1.400 . S
C471 C472 1.398 1_556 S
C471 C477 1.491 . S
C472 H463 0.950 . S
C472 C471 1.398 1_554 S
C472 C473 1.391 . S
C473 H461 0.950 . S
C473 C469 1.393 1_554 S
C473 C472 1.391 . S
C474 H464 0.954 . S
C474 C475 1.382 1_554 S
C474 C476 1.390 . S
C475 C474 1.382 1_556 S
C475 C479 1.393 . S
C476 H465 0.950 . S
C476 C474 1.390 . S
C476 C477 1.400 1_554 S
C477 C471 1.491 . S
C477 C476 1.400 1_556 S
C477 C478 1.398 . S
C478 H466 0.950 . S
C478 C477 1.398 . S
C478 C479 1.391 . S
C479 H467 0.950 . S
C479 C475 1.393 . S
C479 C478 1.391 . S
H480 C488 0.950 . S
H481 C493 0.950 . S
H482 C490 0.950 . S
H483 C492 0.950 . S
H484 C494 0.950 . S
H485 C496 0.950 . S
H486 C498 0.950 . S
H487 C499 0.950 . S
C488 H480 0.950 . S
C488 C489 1.386 . S
C488 C490 1.391 . S
C489 C488 1.386 . S
C489 C493 1.393 . S
C490 H482 0.950 . S
C490 C488 1.391 . S
C490 C491 1.400 . S
C491 C490 1.400 . S
C491 C492 1.398 . S
C491 C497 1.491 . S
C492 H483 0.950 . S
C492 C491 1.398 . S
C492 C493 1.391 . S
C493 H481 0.950 . S
C493 C489 1.393 . S
C493 C492 1.391 . S
C494 H484 0.950 . S
C494 C495 1.386 . S
C494 C496 1.391 . S
C495 C494 1.386 . S
C495 C499 1.393 . S
C496 H485 0.950 . S
C496 C494 1.391 . S
C496 C497 1.400 . S
C497 C491 1.491 . S
C497 C496 1.400 . S
C497 C498 1.398 . S
C498 H486 0.950 . S
C498 C497 1.398 . S
C498 C499 1.391 . S
C499 H487 0.950 . S
C499 C495 1.393 . S
C499 C498 1.391 . S
H500 C508 0.950 . S
H501 C513 0.950 . S
H502 C510 0.950 . S
H503 C512 0.950 . S
H504 C514 0.950 . S
H505 C516 0.950 . S
H506 C518 0.950 . S
H507 C519 0.950 . S
C508 H500 0.950 . S
C508 C509 1.386 . S
C508 C510 1.391 . S
C509 C508 1.386 . S
C509 C513 1.393 . S
C510 H502 0.950 . S
C510 C508 1.391 . S
C510 C511 1.400 . S
C511 C510 1.400 . S
C511 C512 1.398 . S
C511 C517 1.491 . S
C512 H503 0.950 . S
C512 C511 1.398 . S
C512 C513 1.391 . S
C513 H501 0.950 . S
C513 C509 1.393 . S
C513 C512 1.391 . S
C514 H504 0.950 . S
C514 C515 1.386 . S
C514 C516 1.391 . S
C515 C514 1.386 . S
C515 C519 1.393 . S
C516 H505 0.950 . S
C516 C514 1.391 . S
C516 C517 1.400 . S
C517 C511 1.491 . S
C517 C516 1.400 . S
C517 C518 1.398 . S
C518 H506 0.950 . S
C518 C517 1.398 . S
C518 C519 1.391 . S
C519 H507 0.950 . S
C519 C515 1.393 . S
C519 C518 1.391 . S
H520 C528 0.950 . S
H521 C533 0.950 . S
H522 C530 0.950 . S
H523 C532 0.950 . S
H524 C534 0.950 . S
H525 C536 0.950 . S
H526 C538 0.950 . S
H527 C539 0.950 . S
C528 H520 0.950 . S
C528 C529 1.386 . S
C528 C530 1.391 . S
C529 C528 1.386 . S
C529 C533 1.393 . S
C530 H522 0.950 . S
C530 C528 1.391 . S
C530 C531 1.400 . S
C531 C530 1.400 . S
C531 C532 1.398 . S
C531 C537 1.491 . S
C532 H523 0.950 . S
C532 C531 1.398 . S
C532 C533 1.391 . S
C533 H521 0.950 . S
C533 C529 1.393 . S
C533 C532 1.391 . S
C534 H524 0.950 . S
C534 C535 1.386 . S
C534 C536 1.391 . S
C535 C534 1.386 . S
C535 C539 1.393 . S
C536 H525 0.950 . S
C536 C534 1.391 . S
C536 C537 1.400 . S
C537 C531 1.491 . S
C537 C536 1.400 . S
C537 C538 1.398 . S
C538 H526 0.950 . S
C538 C537 1.398 . S
C538 C539 1.391 . S
C539 H527 0.950 . S
C539 C535 1.393 . S
C539 C538 1.391 . S
H540 C548 0.950 . S
H541 C553 0.950 . S
H542 C550 0.950 . S
H543 C552 0.950 . S
H544 C554 0.950 . S
H545 C556 0.950 . S
H546 C558 0.950 . S
H547 C559 0.950 . S
C548 H540 0.950 . S
C548 C549 1.386 . S
C548 C550 1.391 . S
C549 C548 1.386 . S
C549 C553 1.393 . S
C550 H542 0.950 . S
C550 C548 1.391 . S
C550 C551 1.400 . S
C551 C550 1.400 . S
C551 C552 1.398 . S
C551 C557 1.491 . S
C552 H543 0.950 . S
C552 C551 1.398 . S
C552 C553 1.391 . S
C553 H541 0.950 . S
C553 C549 1.393 . S
C553 C552 1.391 . S
C554 H544 0.950 . S
C554 C555 1.386 . S
C554 C556 1.391 . S
C555 C554 1.386 . S
C555 C559 1.393 . S
C556 H545 0.950 . S
C556 C554 1.391 . S
C556 C557 1.400 . S
C557 C551 1.491 . S
C557 C556 1.400 . S
C557 C558 1.398 . S
C558 H546 0.950 . S
C558 C557 1.398 . S
C558 C559 1.391 . S
C559 H547 0.950 . S
C559 C555 1.393 . S
C559 C558 1.391 . S
H560 C568 0.950 . S
H561 C573 0.950 . S
H562 C570 0.950 . S
H563 C572 0.950 . S
H564 C574 0.950 . S
H565 C576 0.950 . S
H566 C578 0.950 . S
H567 C579 0.950 . S
C568 H560 0.950 . S
C568 C569 1.386 . S
C568 C570 1.391 . S
C569 C568 1.386 . S
C569 C573 1.393 . S
C570 H562 0.950 . S
C570 C568 1.391 . S
C570 C571 1.400 . S
C571 C570 1.400 . S
C571 C572 1.398 . S
C571 C577 1.491 . S
C572 H563 0.950 . S
C572 C571 1.398 . S
C572 C573 1.391 . S
C573 H561 0.950 . S
C573 C569 1.393 . S
C573 C572 1.391 . S
C574 H564 0.950 . S
C574 C575 1.386 . S
C574 C576 1.391 . S
C575 C574 1.386 . S
C575 C579 1.393 . S
C576 H565 0.950 . S
C576 C574 1.391 . S
C576 C577 1.400 . S
C577 C571 1.491 . S
C577 C576 1.400 . S
C577 C578 1.398 . S
C578 H566 0.950 . S
C578 C577 1.398 . S
C578 C579 1.391 . S
C579 H567 0.950 . S
C579 C575 1.393 . S
C579 C578 1.391 . S
H580 C588 0.950 . S
H581 C593 0.950 . S
H582 C590 0.950 . S
H583 C592 0.950 . S
H584 C594 0.950 . S
H585 C596 0.950 . S
H586 C598 0.950 . S
H587 C599 0.950 . S
C588 H580 0.950 . S
C588 C589 1.386 . S
C588 C590 1.391 . S
C589 C588 1.386 . S
C589 C593 1.393 . S
C590 H582 0.950 . S
C590 C588 1.391 . S
C590 C591 1.400 . S
C591 C590 1.400 . S
C591 C592 1.398 . S
C591 C597 1.491 . S
C592 H583 0.950 . S
C592 C591 1.398 . S
C592 C593 1.391 . S
C593 H581 0.950 . S
C593 C589 1.393 . S
C593 C592 1.391 . S
C594 H584 0.950 . S
C594 C595 1.386 . S
C594 C596 1.391 . S
C595 C594 1.386 . S
C595 C599 1.393 . S
C596 H585 0.950 . S
C596 C594 1.391 . S
C596 C597 1.400 . S
C597 C591 1.491 . S
C597 C596 1.400 . S
C597 C598 1.398 . S
C598 H586 0.950 . S
C598 C597 1.398 . S
C598 C599 1.391 . S
C599 H587 0.950 . S
C599 C595 1.393 . S
C599 C598 1.391 . S
C249 C210 3.730 . S
C255 C6 3.645 . S
C269 C10 3.562 . S
C275 C46 3.375 1_455 S
C289 C50 3.164 . S
C295 C90 3.129 . S
C309 C126 2.388 . S
C315 C86 2.259 . S
C329 C166 2.882 . S
C335 C130 3.290 . S
C349 C170 2.601 . S
C355 C206 2.590 . S
C369 C179 2.461 . S
C375 C15 2.412 . S
C389 C219 3.203 . S
C395 C55 3.199 . S
C409 C99 3.710 . S
C415 C19 3.754 . S
C429 C135 2.004 . S
C435 C59 2.092 1_556 S
C449 C175 0.825 . S
C455 C95 0.807 . S
C469 C139 1.196 . S
C475 C215 1.232 . S
C489 C9 0.545 . S
C495 C18 0.545 . S
C509 C49 0.485 . S
C515 C58 0.485 . S
C529 C98 0.545 . S
C535 C89 0.545 . S
C549 C129 0.336 . S
C555 C138 0.336 . S
C569 C178 0.606 . S
C575 C169 0.606 . S
C589 C209 0.368 . S
C595 C218 0.368 . S
