# Generated by pormake.
# Topology umm, (4)-cn, num edge types: 1
# Building blocks:
#     Node 0, Type 0, BuildingBlock: NAWXER_clean_sbu_0, # of connection points: 4
#     Node 1, Type 0, BuildingBlock: NAWXER_clean_sbu_0, # of connection points: 4
#     Node 2, Type 0, BuildingBlock: NAWXER_clean_sbu_0, # of connection points: 4
#     Node 3, Type 0, BuildingBlock: NAWXER_clean_sbu_0, # of connection points: 4
#     Node 4, Type 0, BuildingBlock: NAWXER_clean_sbu_0, # of connection points: 4
#     Node 5, Type 0, BuildingBlock: NAWXER_clean_sbu_0, # of connection points: 4
#     Node 6, Type 0, BuildingBlock: NAWXER_clean_sbu_0, # of connection points: 4
#     Node 7, Type 0, BuildingBlock: NAWXER_clean_sbu_0, # of connection points: 4
#     Node 8, Type 0, BuildingBlock: NAWXER_clean_sbu_0, # of connection points: 4
#     Node 9, Type 0, BuildingBlock: NAWXER_clean_sbu_0, # of connection points: 4
#     Node 10, Type 0, BuildingBlock: NAWXER_clean_sbu_0, # of connection points: 4
#     Node 11, Type 0, BuildingBlock: NAWXER_clean_sbu_0, # of connection points: 4
#     Edge 12, Type (0, 0), BuildingBlock: ZUJKAS_clean_linker_0, # of connection points: 2
#     Edge 13, Type (0, 0), BuildingBlock: ZUJKAS_clean_linker_0, # of connection points: 2
#     Edge 14, Type (0, 0), BuildingBlock: ZUJKAS_clean_linker_0, # of connection points: 2
#     Edge 15, Type (0, 0), BuildingBlock: ZUJKAS_clean_linker_0, # of connection points: 2
#     Edge 16, Type (0, 0), BuildingBlock: ZUJKAS_clean_linker_0, # of connection points: 2
#     Edge 17, Type (0, 0), BuildingBlock: ZUJKAS_clean_linker_0, # of connection points: 2
#     Edge 18, Type (0, 0), BuildingBlock: ZUJKAS_clean_linker_0, # of connection points: 2
#     Edge 19, Type (0, 0), BuildingBlock: ZUJKAS_clean_linker_0, # of connection points: 2
#     Edge 20, Type (0, 0), BuildingBlock: ZUJKAS_clean_linker_0, # of connection points: 2
#     Edge 21, Type (0, 0), BuildingBlock: ZUJKAS_clean_linker_0, # of connection points: 2
#     Edge 22, Type (0, 0), BuildingBlock: ZUJKAS_clean_linker_0, # of connection points: 2
#     Edge 23, Type (0, 0), BuildingBlock: ZUJKAS_clean_linker_0, # of connection points: 2
#     Edge 24, Type (0, 0), BuildingBlock: ZUJKAS_clean_linker_0, # of connection points: 2
#     Edge 25, Type (0, 0), BuildingBlock: ZUJKAS_clean_linker_0, # of connection points: 2
#     Edge 26, Type (0, 0), BuildingBlock: ZUJKAS_clean_linker_0, # of connection points: 2
#     Edge 27, Type (0, 0), BuildingBlock: ZUJKAS_clean_linker_0, # of connection points: 2
#     Edge 28, Type (0, 0), BuildingBlock: ZUJKAS_clean_linker_0, # of connection points: 2
#     Edge 29, Type (0, 0), BuildingBlock: ZUJKAS_clean_linker_0, # of connection points: 2
#     Edge 30, Type (0, 0), BuildingBlock: ZUJKAS_clean_linker_0, # of connection points: 2
#     Edge 31, Type (0, 0), BuildingBlock: ZUJKAS_clean_linker_0, # of connection points: 2
#     Edge 32, Type (0, 0), BuildingBlock: ZUJKAS_clean_linker_0, # of connection points: 2
#     Edge 33, Type (0, 0), BuildingBlock: ZUJKAS_clean_linker_0, # of connection points: 2
#     Edge 34, Type (0, 0), BuildingBlock: ZUJKAS_clean_linker_0, # of connection points: 2
#     Edge 35, Type (0, 0), BuildingBlock: ZUJKAS_clean_linker_0, # of connection points: 2
# Relax obj value: 0.044
# Max RMSD: 0.161
# Mean RMSD: 0.161
data_MOF--net-umm--node1-NAWXER_clean_sbu_0--edge1-ZUJKAS_clean_linker_0
_symmetry_space_group_name_H-M    P1
_symmetry_Int_Tables_number       1
_symmetry_cell_setting            triclinic
loop_
_symmetry_equiv_pos_as_xyz
'x, y, z'
_cell_length_a     73.610519
_cell_length_b     73.64006
_cell_length_c     38.076296
_cell_angle_alpha  89.9794
_cell_angle_beta   90.001823
_cell_angle_gamma 119.9896
loop_
_atom_site_label
_atom_site_type_symbol
_atom_site_fract_x
_atom_site_fract_y
_atom_site_fract_z
_atom_type_partial_charge
C0 C 0.35964 0.53564 0.07446 0.0
C1 C 0.42056 0.52761 0.09507 0.0
O2 O 0.37661 0.55341 0.0767 0.0
Zn3 Zn 0.40931 0.56455 0.08675 0.0
O4 O 0.36026 0.51895 0.07986 0.0
Zn5 Zn 0.3901 0.53181 0.0873 0.0
O6 O 0.39539 0.54644 0.13823 0.0
O7 O 0.41524 0.58041 0.12944 0.0
O8 O 0.40137 0.51348 0.09305 0.0
O9 O 0.42558 0.54699 0.09324 0.0
O10 O 0.42163 0.58001 0.04442 0.0
O11 O 0.40271 0.54575 0.03648 0.0
C12 C 0.40539 0.56519 0.15044 0.0
C13 C 0.41434 0.56427 0.02403 0.0
C14 C 0.85126 0.41347 0.35578 0.0
C15 C 0.84153 0.4054 0.48236 0.0
O16 O 0.85825 0.402 0.36857 0.0
Zn17 Zn 0.85964 0.38974 0.41976 0.0
O18 O 0.84272 0.42079 0.37592 0.0
Zn19 Zn 0.84595 0.40879 0.41857 0.0
O20 O 0.87981 0.42525 0.42496 0.0
O21 O 0.88926 0.40114 0.42552 0.0
O22 O 0.836 0.41497 0.46103 0.0
O23 O 0.85035 0.39539 0.4705 0.0
O24 O 0.8428 0.35986 0.41292 0.0
O25 O 0.82451 0.376 0.40905 0.0
C26 C 0.89423 0.42031 0.42707 0.0
C27 C 0.82544 0.35909 0.40728 0.0
C28 C 0.43747 0.84094 0.81456 0.0
C29 C 0.4402 0.85211 0.68811 0.0
O30 O 0.45632 0.84946 0.80289 0.0
Zn31 Zn 0.47163 0.8588 0.75271 0.0
O32 O 0.42253 0.83599 0.7931 0.0
Zn33 Zn 0.43894 0.84625 0.75074 0.0
O34 O 0.44937 0.82431 0.73902 0.0
O35 O 0.48371 0.84095 0.74642 0.0
O36 O 0.42427 0.84451 0.7082 0.0
O37 O 0.45843 0.85801 0.70112 0.0
O38 O 0.49049 0.8884 0.75903 0.0
O39 O 0.45716 0.87979 0.75817 0.0
C40 C 0.46683 0.82439 0.73833 0.0
C41 C 0.47661 0.89383 0.76067 0.0
C42 C 0.59074 0.43744 0.02217 0.0
C43 C 0.59868 0.43625 0.14873 0.0
O44 O 0.60201 0.45597 0.03479 0.0
Zn45 Zn 0.61396 0.46986 0.08587 0.0
O46 O 0.58345 0.42166 0.04251 0.0
Zn47 Zn 0.59521 0.43707 0.08502 0.0
O48 O 0.57838 0.45408 0.09109 0.0
O49 O 0.60213 0.48774 0.09128 0.0
O50 O 0.58915 0.42107 0.12756 0.0
O51 O 0.60853 0.45505 0.13671 0.0
O52 O 0.6439 0.48322 0.07918 0.0
O53 O 0.62811 0.44879 0.07585 0.0
C54 C 0.58304 0.47335 0.09296 0.0
C55 C 0.64491 0.46672 0.07395 0.0
C56 C 0.16375 0.59829 0.48274 0.0
C57 C 0.15374 0.58945 0.35626 0.0
O58 O 0.15492 0.60823 0.47058 0.0
Zn59 Zn 0.14546 0.61352 0.41972 0.0
O60 O 0.16919 0.58852 0.46169 0.0
Zn61 Zn 0.15919 0.59446 0.41902 0.0
O62 O 0.1806 0.62721 0.40916 0.0
O63 O 0.1623 0.64337 0.41235 0.0
O64 O 0.16235 0.58226 0.37654 0.0
O65 O 0.14677 0.60098 0.36884 0.0
O66 O 0.11581 0.60207 0.42562 0.0
O67 O 0.12537 0.57804 0.42566 0.0
C68 C 0.17968 0.64411 0.407 0.0
C69 C 0.11091 0.58293 0.42761 0.0
C70 C 0.56853 0.16291 0.81576 0.0
C71 C 0.56612 0.15403 0.68885 0.0
O72 O 0.54965 0.15415 0.80415 0.0
Zn73 Zn 0.5344 0.14505 0.75368 0.0
O74 O 0.58354 0.16848 0.79421 0.0
Zn75 Zn 0.56718 0.15874 0.75193 0.0
O76 O 0.55565 0.18021 0.74356 0.0
O77 O 0.52122 0.16183 0.74805 0.0
O78 O 0.58207 0.16195 0.70886 0.0
O79 O 0.54779 0.14722 0.70209 0.0
O80 O 0.51636 0.11531 0.75892 0.0
O81 O 0.54996 0.12498 0.75797 0.0
C82 C 0.53776 0.17925 0.74243 0.0
C83 C 0.53066 0.11046 0.76012 0.0
C84 C 0.43901 0.58803 0.64916 0.0
C85 C 0.43632 0.59602 0.52277 0.0
O86 O 0.45733 0.60003 0.63617 0.0
Zn87 Zn 0.47051 0.61238 0.58455 0.0
O88 O 0.42304 0.58002 0.62918 0.0
Zn89 Zn 0.43783 0.59247 0.58658 0.0
O90 O 0.45594 0.5769 0.57944 0.0
O91 O 0.48928 0.6016 0.57829 0.0
O92 O 0.42138 0.58619 0.5443 0.0
O93 O 0.45518 0.6063 0.53435 0.0
O94 O 0.48275 0.64235 0.59056 0.0
O95 O 0.4484 0.6249 0.59755 0.0
C96 C 0.4754 0.5823 0.57687 0.0
C97 C 0.4659 0.64221 0.59821 0.0
C98 C 0.84134 0.43697 0.85467 0.0
C99 C 0.85103 0.43842 0.98127 0.0
O100 O 0.85018 0.45576 0.86667 0.0
Zn101 Zn 0.85954 0.47063 0.91746 0.0
O102 O 0.83583 0.42181 0.87587 0.0
Zn103 Zn 0.84575 0.43786 0.91843 0.0
O104 O 0.82435 0.44931 0.92767 0.0
O105 O 0.84277 0.48375 0.92432 0.0
O106 O 0.84244 0.42258 0.96108 0.0
O107 O 0.85807 0.45689 0.96852 0.0
O108 O 0.88919 0.48876 0.91169 0.0
O109 O 0.87959 0.45517 0.91196 0.0
C110 C 0.82533 0.46717 0.92955 0.0
C111 C 0.89407 0.4745 0.90994 0.0
C112 C 0.42089 0.89312 0.24254 0.0
C113 C 0.35987 0.824 0.26144 0.0
O114 O 0.4259 0.87876 0.24445 0.0
Zn115 Zn 0.40978 0.84504 0.25082 0.0
O116 O 0.40169 0.88807 0.24428 0.0
Zn117 Zn 0.39035 0.85837 0.24965 0.0
O118 O 0.40211 0.85652 0.30092 0.0
O119 O 0.42198 0.8422 0.29362 0.0
O120 O 0.36047 0.8413 0.25594 0.0
O121 O 0.37692 0.82328 0.2599 0.0
O122 O 0.41619 0.83532 0.20827 0.0
O123 O 0.39622 0.84927 0.19896 0.0
C124 C 0.41394 0.85 0.31386 0.0
C125 C 0.40642 0.84067 0.18702 0.0
C126 C 0.53691 0.3585 0.59594 0.0
C127 C 0.53042 0.42044 0.57673 0.0
O128 O 0.55485 0.37528 0.59397 0.0
Zn129 Zn 0.56663 0.40813 0.58466 0.0
O130 O 0.52041 0.35951 0.59067 0.0
Zn131 Zn 0.5338 0.38945 0.58384 0.0
O132 O 0.54857 0.39489 0.53296 0.0
O133 O 0.58258 0.41411 0.54211 0.0
O134 O 0.51598 0.40138 0.57847 0.0
O135 O 0.54968 0.42502 0.57855 0.0
O136 O 0.58207 0.41991 0.62714 0.0
O137 O 0.54775 0.40145 0.63487 0.0
C138 C 0.56738 0.40468 0.52093 0.0
C139 C 0.56629 0.4127 0.64747 0.0
C140 C 0.16344 0.5667 0.85512 0.0
C141 C 0.15382 0.56468 0.98176 0.0
O142 O 0.15465 0.54785 0.86687 0.0
Zn143 Zn 0.14543 0.53278 0.91753 0.0
O144 O 0.16896 0.58174 0.87655 0.0
Zn145 Zn 0.15909 0.5655 0.91893 0.0
O146 O 0.18059 0.55415 0.92803 0.0
O147 O 0.16229 0.51973 0.92403 0.0
O148 O 0.16235 0.5806 0.96172 0.0
O149 O 0.14685 0.54627 0.96884 0.0
O150 O 0.11584 0.51455 0.91182 0.0
O151 O 0.12521 0.54808 0.91261 0.0
C152 C 0.17967 0.5363 0.9296 0.0
C153 C 0.11082 0.52872 0.91042 0.0
C154 C 0.59142 0.15301 0.31474 0.0
C155 C 0.59959 0.16221 0.18803 0.0
O156 O 0.60306 0.14618 0.30215 0.0
Zn157 Zn 0.61492 0.14406 0.2511 0.0
O158 O 0.58368 0.161 0.29423 0.0
Zn159 Zn 0.59587 0.15782 0.25176 0.0
O160 O 0.57934 0.1241 0.24561 0.0
O161 O 0.60316 0.11428 0.24587 0.0
O162 O 0.58983 0.16769 0.20905 0.0
O163 O 0.60953 0.15339 0.20022 0.0
O164 O 0.64481 0.16079 0.25779 0.0
O165 O 0.62876 0.17921 0.26115 0.0
C166 C 0.58405 0.10952 0.24394 0.0
C167 C 0.64565 0.17822 0.26305 0.0
H168 H 0.42477 0.60283 0.18501 0.0
H169 H 0.42861 0.60869 0.2485 0.0
H170 H 0.39215 0.54204 0.26628 0.0
H171 H 0.3883 0.53595 0.20287 0.0
H172 H 0.39755 0.59615 0.30318 0.0
H173 H 0.44848 0.5608 0.31784 0.0
H174 H 0.44319 0.5685 0.27577 0.0
H175 H 0.42387 0.54455 0.29614 0.0
C176 C 0.41745 0.5894 0.2024 0.0
C177 C 0.40636 0.5689 0.18883 0.0
C178 C 0.41964 0.5928 0.23866 0.0
C179 C 0.41092 0.57579 0.262 0.0
C180 C 0.39927 0.55536 0.24864 0.0
H181 H 0.39831 0.57602 0.48914 0.0
H182 H 0.39189 0.57209 0.42579 0.0
C183 C 0.39702 0.55193 0.21239 0.0
C184 C 0.41451 0.5794 0.30028 0.0
H185 H 0.4381 0.57047 0.37009 0.0
C186 C 0.4064 0.59055 0.31787 0.0
C187 C 0.42631 0.5723 0.3192 0.0
C188 C 0.43615 0.56102 0.30133 0.0
C189 C 0.40954 0.59453 0.35411 0.0
C190 C 0.42094 0.58701 0.37315 0.0
C191 C 0.42926 0.5761 0.35543 0.0
C192 C 0.42464 0.59043 0.41145 0.0
C193 C 0.40095 0.60703 0.37164 0.0
C194 C 0.4452 0.60193 0.42437 0.0
C195 C 0.44894 0.60418 0.46052 0.0
C196 C 0.43218 0.59481 0.4845 0.0
C197 C 0.41157 0.5835 0.47143 0.0
C198 C 0.40785 0.58132 0.43522 0.0
H199 H 0.39689 0.61572 0.35224 0.0
H200 H 0.38649 0.59621 0.3863 0.0
H201 H 0.41244 0.6184 0.39067 0.0
H202 H 0.45838 0.60901 0.40643 0.0
H203 H 0.46501 0.61295 0.46964 0.0
H204 H 0.82297 0.42474 0.51623 0.0
H205 H 0.82106 0.42915 0.57958 0.0
H206 H 0.8521 0.39359 0.59869 0.0
H207 H 0.85422 0.38918 0.53542 0.0
H208 H 0.80294 0.39865 0.63483 0.0
H209 H 0.8891 0.45026 0.64932 0.0
H210 H 0.87611 0.44452 0.60722 0.0
H211 H 0.88105 0.42556 0.62821 0.0
C212 C 0.82929 0.41774 0.53388 0.0
C213 C 0.83889 0.40673 0.52071 0.0
C214 C 0.82816 0.42026 0.57007 0.0
C215 C 0.83671 0.41196 0.59374 0.0
C216 C 0.8457 0.40041 0.58079 0.0
H217 H 0.82321 0.39921 0.82041 0.0
H218 H 0.82092 0.39313 0.75701 0.0
C219 C 0.84681 0.39782 0.54462 0.0
C220 C 0.83665 0.41581 0.63194 0.0
H221 H 0.86908 0.43977 0.70168 0.0
C222 C 0.81737 0.40765 0.6495 0.0
C223 C 0.85552 0.4278 0.65083 0.0
C224 C 0.87664 0.43773 0.63298 0.0
C225 C 0.81648 0.41088 0.68569 0.0
C226 C 0.83537 0.4224 0.70475 0.0
C227 C 0.85462 0.43083 0.68704 0.0
C228 C 0.8356 0.42596 0.74312 0.0
C229 C 0.79534 0.4022 0.70314 0.0
C230 C 0.84479 0.44646 0.75636 0.0
C231 C 0.84619 0.45 0.79259 0.0
C232 C 0.83857 0.43311 0.8163 0.0
C233 C 0.82915 0.41257 0.80291 0.0
C234 C 0.82773 0.40905 0.76666 0.0
H235 H 0.78268 0.39839 0.68369 0.0
H236 H 0.7916 0.38758 0.71734 0.0
H237 H 0.79543 0.41352 0.72251 0.0
H238 H 0.85105 0.45973 0.73862 0.0
H239 H 0.85358 0.46602 0.80196 0.0
H240 H 0.46622 0.8521 0.86746 0.0
H241 H 0.45976 0.84936 0.93072 0.0
H242 H 0.3933 0.82087 0.9119 0.0
H243 H 0.39956 0.82341 0.84848 0.0
H244 H 0.44026 0.86814 0.96759 0.0
H245 H 0.39752 0.78166 0.985 0.0
H246 H 0.41302 0.79435 0.94645 0.0
H247 H 0.3873 0.79114 0.95125 0.0
C248 C 0.45019 0.84502 0.8767 0.0
C249 C 0.4334 0.83795 0.85286 0.0
C250 C 0.44654 0.8435 0.91289 0.0
C251 C 0.42605 0.83474 0.92599 0.0
C252 C 0.40921 0.82737 0.90234 0.0
H253 H 0.38992 0.85322 0.13425 0.0
H254 H 0.39406 0.85104 0.07093 0.0
C255 C 0.41284 0.82892 0.86609 0.0
C256 C 0.42247 0.83446 0.96435 0.0
H257 H 0.39862 0.802 0.03423 0.0
C258 C 0.43119 0.85369 0.98218 0.0
C259 C 0.41077 0.81557 0.98333 0.0
C260 C 0.40174 0.79447 0.96568 0.0
C261 C 0.42832 0.85455 0.01845 0.0
C262 C 0.41621 0.83569 0.03729 0.0
C263 C 0.40772 0.81643 0.0196 0.0
C264 C 0.41253 0.83575 0.07554 0.0
C265 C 0.43852 0.87563 0.03643 0.0
C266 C 0.42103 0.8273 0.09904 0.0
C267 C 0.41869 0.82849 0.13528 0.0
C268 C 0.40766 0.83803 0.14865 0.0
C269 C 0.39858 0.84585 0.1249 0.0
C270 C 0.40099 0.8447 0.08869 0.0
H271 H 0.45098 0.88808 0.01995 0.0
H272 H 0.42647 0.88013 0.04177 0.0
H273 H 0.44549 0.87497 0.06193 0.0
H274 H 0.42992 0.82025 0.08935 0.0
H275 H 0.42582 0.82225 0.1528 0.0
H276 H 0.61542 0.4653 0.20141 0.0
H277 H 0.61169 0.45897 0.26475 0.0
H278 H 0.57539 0.39236 0.24633 0.0
H279 H 0.57917 0.39848 0.18295 0.0
H280 H 0.57373 0.43889 0.30168 0.0
H281 H 0.61895 0.3977 0.31949 0.0
H282 H 0.62125 0.41281 0.28067 0.0
H283 H 0.5992 0.38684 0.28589 0.0
C284 C 0.60685 0.44928 0.21078 0.0
C285 C 0.59762 0.43239 0.18707 0.0
C286 C 0.60471 0.4457 0.247 0.0
C287 C 0.59346 0.4252 0.26021 0.0
C288 C 0.58446 0.40829 0.23668 0.0
H289 H 0.5383 0.38847 0.46814 0.0
H290 H 0.54468 0.3928 0.40483 0.0
C291 C 0.58656 0.41184 0.20045 0.0
C292 C 0.59015 0.4216 0.29856 0.0
H293 H 0.5989 0.39783 0.36837 0.0
C294 C 0.57928 0.42997 0.3163 0.0
C295 C 0.59756 0.41009 0.31756 0.0
C296 C 0.61006 0.40148 0.30007 0.0
C297 C 0.57537 0.42691 0.35249 0.0
C298 C 0.58228 0.41492 0.37133 0.0
C299 C 0.59343 0.40681 0.35373 0.0
C300 C 0.57846 0.41109 0.40953 0.0
C301 C 0.56415 0.43679 0.3704 0.0
C302 C 0.59537 0.41936 0.43305 0.0
C303 C 0.59181 0.41687 0.46926 0.0
C304 C 0.57123 0.40594 0.48257 0.0
C305 C 0.55434 0.39706 0.45881 0.0
C306 C 0.55793 0.3996 0.42262 0.0
H307 H 0.56423 0.44935 0.35409 0.0
H308 H 0.54758 0.42461 0.37514 0.0
H309 H 0.57147 0.44356 0.39617 0.0
H310 H 0.61134 0.4282 0.42342 0.0
H311 H 0.60518 0.42384 0.48679 0.0
H312 H 0.15169 0.61542 0.53517 0.0
H313 H 0.15423 0.61186 0.59857 0.0
H314 H 0.1841 0.57507 0.58079 0.0
H315 H 0.18181 0.57868 0.51734 0.0
H316 H 0.13604 0.574 0.63581 0.0
H317 H 0.22243 0.61857 0.6539 0.0
H318 H 0.20976 0.62095 0.61495 0.0
H319 H 0.21345 0.59877 0.62041 0.0
C320 C 0.15903 0.60678 0.54469 0.0
C321 C 0.16657 0.59735 0.52113 0.0
C322 C 0.16044 0.60474 0.58095 0.0
C323 C 0.16955 0.59339 0.59438 0.0
C324 C 0.17736 0.58421 0.57099 0.0
H325 H 0.15065 0.53791 0.80192 0.0
H326 H 0.1528 0.54458 0.7387 0.0
C327 C 0.17593 0.58621 0.53471 0.0
C328 C 0.16975 0.59014 0.63278 0.0
H329 H 0.20209 0.59865 0.70278 0.0
C330 C 0.15048 0.57945 0.65048 0.0
C331 C 0.18862 0.59741 0.65188 0.0
C332 C 0.20977 0.60974 0.63445 0.0
C333 C 0.14954 0.57554 0.6867 0.0
C334 C 0.16838 0.58229 0.70563 0.0
C335 C 0.18768 0.5933 0.68809 0.0
C336 C 0.16827 0.57831 0.7438 0.0
C337 C 0.1284 0.56446 0.70453 0.0
C338 C 0.17685 0.59512 0.76755 0.0
C339 C 0.17569 0.59138 0.80373 0.0
C340 C 0.16605 0.57075 0.81679 0.0
C341 C 0.1581 0.55398 0.7928 0.0
C342 C 0.15922 0.55774 0.75665 0.0
H343 H 0.116 0.56464 0.68816 0.0
H344 H 0.1239 0.54787 0.70933 0.0
H345 H 0.12898 0.57181 0.73028 0.0
H346 H 0.18399 0.61111 0.75812 0.0
H347 H 0.18204 0.60466 0.82144 0.0
H348 H 0.6167 0.15009 0.13567 0.0
H349 H 0.61334 0.15281 0.07226 0.0
H350 H 0.57674 0.1829 0.08992 0.0
H351 H 0.58014 0.18042 0.15339 0.0
H352 H 0.57553 0.13488 0.03477 0.0
H353 H 0.62066 0.22128 0.01723 0.0
H354 H 0.62284 0.20844 0.05612 0.0
H355 H 0.60078 0.21233 0.05062 0.0
C356 C 0.60814 0.15751 0.12612 0.0
C357 C 0.59871 0.16506 0.14965 0.0
C358 C 0.60621 0.15902 0.08986 0.0
C359 C 0.59499 0.16825 0.0764 0.0
C360 C 0.58579 0.17606 0.09975 0.0
H361 H 0.5398 0.15026 0.86904 0.0
H362 H 0.5465 0.15224 0.93222 0.0
C363 C 0.58767 0.17452 0.13604 0.0
C364 C 0.59187 0.16858 0.03799 0.0
H365 H 0.60075 0.20115 0.96819 0.0
C366 C 0.58111 0.14937 0.02018 0.0
C367 C 0.59931 0.1875 0.01901 0.0
C368 C 0.61171 0.20859 0.03658 0.0
C369 C 0.57729 0.14855 0.98395 0.0
C370 C 0.58419 0.16745 0.96515 0.0
C371 C 0.59529 0.18669 0.98279 0.0
C372 C 0.58023 0.16746 0.927 0.0
C373 C 0.56611 0.12747 0.96599 0.0
C374 C 0.59703 0.17596 0.90321 0.0
C375 C 0.59328 0.1749 0.86705 0.0
C376 C 0.57264 0.16543 0.85407 0.0
C377 C 0.55588 0.15756 0.8781 0.0
C378 C 0.55966 0.15859 0.91423 0.0
H379 H 0.56619 0.11499 0.98227 0.0
H380 H 0.54954 0.12308 0.96121 0.0
H381 H 0.57345 0.12806 0.94023 0.0
H382 H 0.61303 0.18296 0.91261 0.0
H383 H 0.60655 0.18118 0.8493 0.0
H384 H 0.3215 0.50072 0.06129 0.0
H385 H 0.29039 0.49954 0.03564 0.0
H386 H 0.32221 0.5671 0.03509 0.0
H387 H 0.35338 0.56849 0.06031 0.0
H388 H 0.26541 0.51651 0.05893 0.0
H389 H 0.30452 0.55143 0.93214 0.0
H390 H 0.31542 0.54128 0.96384 0.0
H391 H 0.3182 0.56675 0.96994 0.0
C392 C 0.32183 0.51534 0.05598 0.0
C393 C 0.34 0.5347 0.06261 0.0
C394 C 0.30405 0.51462 0.04128 0.0
C395 C 0.30418 0.53323 0.03279 0.0
C396 C 0.32196 0.55255 0.0407 0.0
H397 H 0.21891 0.5688 0.94421 0.0
H398 H 0.24867 0.56685 0.96818 0.0
C399 C 0.33972 0.5533 0.05536 0.0
C400 C 0.28582 0.53252 0.01534 0.0
H401 H 0.27098 0.54796 0.94132 0.0
C402 C 0.26655 0.52322 0.0331 0.0
C403 C 0.28738 0.54125 0.9816 0.0
C404 C 0.30743 0.55058 0.96056 0.0
C405 C 0.24892 0.52303 0.0185 0.0
C406 C 0.25057 0.53205 0.98498 0.0
C407 C 0.26978 0.54108 0.96702 0.0
C408 C 0.23275 0.53296 0.96865 0.0
C409 C 0.22888 0.51379 0.03954 0.0
C410 C 0.21411 0.51453 0.96006 0.0
C411 C 0.19703 0.51558 0.94627 0.0
C412 C 0.19834 0.53509 0.94072 0.0
C413 C 0.21733 0.55351 0.94821 0.0
C414 C 0.23437 0.55244 0.96195 0.0
H415 H 0.23155 0.51184 0.06766 0.0
H416 H 0.22161 0.52383 0.03775 0.0
H417 H 0.21758 0.49812 0.02881 0.0
H418 H 0.2127 0.49934 0.96437 0.0
H419 H 0.18268 0.50109 0.94068 0.0
H420 H 0.82251 0.32098 0.39519 0.0
H421 H 0.7928 0.28964 0.36975 0.0
H422 H 0.75668 0.32108 0.36749 0.0
H423 H 0.78626 0.35248 0.3925 0.0
H424 H 0.75074 0.26456 0.39265 0.0
H425 H 0.75531 0.30296 0.26493 0.0
H426 H 0.77621 0.31409 0.29689 0.0
H427 H 0.7534 0.31678 0.30231 0.0
C428 C 0.80819 0.32118 0.38956 0.0
C429 C 0.80684 0.33932 0.39563 0.0
C430 C 0.79124 0.30326 0.37498 0.0
C431 C 0.77272 0.30321 0.36606 0.0
C432 C 0.77102 0.32096 0.37344 0.0
H433 H 0.65243 0.21755 0.27679 0.0
H434 H 0.68407 0.24736 0.30074 0.0
C435 C 0.78791 0.33886 0.38799 0.0
C436 C 0.75523 0.28473 0.34864 0.0
H437 H 0.72527 0.26943 0.27427 0.0
C438 C 0.74525 0.26554 0.36666 0.0
C439 C 0.74818 0.28608 0.31467 0.0
C440 C 0.75893 0.30602 0.29338 0.0
C441 C 0.72792 0.24782 0.35209 0.0
C442 C 0.72066 0.24927 0.31835 0.0
C443 C 0.73086 0.26838 0.30013 0.0
C444 C 0.70198 0.23138 0.3021 0.0
C445 C 0.71709 0.22788 0.37339 0.0
C446 C 0.70176 0.21267 0.29402 0.0
C447 C 0.68367 0.19555 0.28024 0.0
C448 C 0.66551 0.19689 0.2742 0.0
C449 C 0.66609 0.21593 0.28119 0.0
C450 C 0.68416 0.233 0.29491 0.0
H451 H 0.72163 0.2307 0.40155 0.0
H452 H 0.69978 0.22058 0.37143 0.0
H453 H 0.72153 0.21655 0.36303 0.0
H454 H 0.7155 0.21123 0.2987 0.0
H455 H 0.68379 0.18115 0.27505 0.0
H456 H 0.48986 0.80699 0.76203 0.0
H457 H 0.49018 0.77624 0.73799 0.0
H458 H 0.4467 0.77115 0.65713 0.0
H459 H 0.44505 0.80059 0.68296 0.0
H460 H 0.43528 0.7352 0.67705 0.0
H461 H 0.52085 0.77172 0.6579 0.0
H462 H 0.51482 0.77244 0.70324 0.0
H463 H 0.50882 0.78674 0.67119 0.0
C464 C 0.48036 0.79916 0.73921 0.0
C465 C 0.46736 0.806 0.72439 0.0
C466 C 0.48074 0.78177 0.72515 0.0
C467 C 0.46888 0.77155 0.69507 0.0
C468 C 0.45601 0.77862 0.68029 0.0
H469 H 0.49039 0.6825 0.57479 0.0
H470 H 0.49057 0.71399 0.59649 0.0
C471 C 0.45505 0.79546 0.69506 0.0
C472 C 0.46905 0.75302 0.67959 0.0
H473 H 0.50102 0.73434 0.65324 0.0
C474 C 0.44972 0.73519 0.67152 0.0
C475 C 0.48782 0.75293 0.67158 0.0
C476 C 0.50922 0.77208 0.67606 0.0
C477 C 0.44858 0.71738 0.65597 0.0
C478 C 0.46727 0.71672 0.65031 0.0
C479 C 0.48664 0.73461 0.658 0.0
C480 C 0.46707 0.69764 0.6367 0.0
C481 C 0.4273 0.69982 0.64482 0.0
C482 C 0.45407 0.67798 0.6522 0.0
C483 C 0.45341 0.65999 0.63896 0.0
C484 C 0.46643 0.66137 0.61094 0.0
C485 C 0.48011 0.68106 0.59628 0.0
C486 C 0.48025 0.69903 0.60878 0.0
H487 H 0.41649 0.70582 0.63868 0.0
H488 H 0.42837 0.69149 0.62133 0.0
H489 H 0.4202 0.68845 0.66671 0.0
H490 H 0.44446 0.6765 0.67473 0.0
H491 H 0.44308 0.64502 0.65127 0.0
H492 H 0.65193 0.43436 0.05997 0.0
H493 H 0.68359 0.4364 0.03564 0.0
H494 H 0.71441 0.50391 0.03672 0.0
H495 H 0.68284 0.50207 0.06148 0.0
H496 H 0.70201 0.45518 0.97135 0.0
H497 H 0.758 0.49191 0.08194 0.0
H498 H 0.72997 0.4799 0.0875 0.0
H499 H 0.74466 0.50555 0.06831 0.0
C500 C 0.66552 0.44968 0.05556 0.0
C501 C 0.66483 0.46807 0.06273 0.0
C502 C 0.68359 0.4508 0.04154 0.0
C503 C 0.70139 0.47029 0.03459 0.0
C504 C 0.70096 0.4887 0.04242 0.0
H505 H 0.82241 0.50234 0.94164 0.0
H506 H 0.79215 0.50394 0.96461 0.0
C507 C 0.68287 0.48761 0.05648 0.0
C508 C 0.71989 0.47122 0.01731 0.0
H509 H 0.77181 0.48741 0.02865 0.0
C510 C 0.71728 0.46221 0.98387 0.0
C511 C 0.73981 0.48054 0.03361 0.0
C512 C 0.74334 0.48989 0.06994 0.0
C513 C 0.73405 0.46225 0.96627 0.0
C514 C 0.75388 0.47123 0.98281 0.0
C515 C 0.75659 0.48056 0.01601 0.0
C516 C 0.77177 0.4703 0.96683 0.0
C517 C 0.73044 0.45286 0.92996 0.0
C518 C 0.77032 0.45086 0.96037 0.0
C519 C 0.78752 0.44988 0.94719 0.0
C520 C 0.80661 0.46835 0.94041 0.0
C521 C 0.80792 0.48783 0.94641 0.0
C522 C 0.79068 0.48878 0.95965 0.0
H523 H 0.71658 0.45226 0.91716 0.0
H524 H 0.74437 0.46193 0.91293 0.0
H525 H 0.72748 0.43657 0.93193 0.0
H526 H 0.75602 0.4364 0.96637 0.0
H527 H 0.78597 0.43462 0.94311 0.0
H528 H 0.21894 0.65068 0.39321 0.0
H529 H 0.24877 0.68209 0.36868 0.0
H530 H 0.21252 0.71341 0.36869 0.0
H531 H 0.18261 0.6821 0.39367 0.0
H532 H 0.24907 0.70041 0.30434 0.0
H533 H 0.26789 0.75687 0.41394 0.0
H534 H 0.25157 0.72889 0.4197 0.0
H535 H 0.24099 0.74378 0.39989 0.0
C536 C 0.21736 0.66433 0.3885 0.0
C537 C 0.19836 0.66386 0.39548 0.0
C538 C 0.23443 0.68226 0.37437 0.0
C539 C 0.23292 0.70013 0.3671 0.0
C540 C 0.21415 0.69991 0.37466 0.0
H541 H 0.32148 0.8206 0.27272 0.0
H542 H 0.28979 0.79028 0.29591 0.0
C543 C 0.19704 0.68197 0.38885 0.0
C544 C 0.25064 0.71852 0.34983 0.0
H545 H 0.28622 0.77052 0.36054 0.0
C546 C 0.25722 0.71574 0.31664 0.0
C547 C 0.26115 0.73852 0.36583 0.0
C548 C 0.25521 0.74225 0.40193 0.0
C549 C 0.274 0.73243 0.29897 0.0
C550 C 0.2847 0.75236 0.31517 0.0
C551 C 0.27795 0.75523 0.34814 0.0
C552 C 0.30344 0.77025 0.299 0.0
C553 C 0.27996 0.72864 0.26292 0.0
C554 C 0.32159 0.76902 0.29294 0.0
C555 C 0.33969 0.78626 0.27964 0.0
C556 C 0.34006 0.80517 0.27233 0.0
C557 C 0.32172 0.80626 0.2779 0.0
C558 C 0.30362 0.78898 0.29127 0.0
H559 H 0.26684 0.71461 0.25028 0.0
H560 H 0.2847 0.74241 0.24555 0.0
H561 H 0.29343 0.72591 0.2653 0.0
H562 H 0.32194 0.75486 0.29935 0.0
H563 H 0.35355 0.7849 0.27589 0.0
H564 H 0.57016 0.21855 0.72796 0.0
H565 H 0.56808 0.24831 0.70455 0.0
H566 H 0.50055 0.21217 0.70845 0.0
H567 H 0.50244 0.18211 0.73157 0.0
H568 H 0.51633 0.2319 0.64376 0.0
H569 H 0.55274 0.28818 0.75351 0.0
H570 H 0.56829 0.27716 0.73853 0.0
H571 H 0.54315 0.26045 0.75839 0.0
C572 C 0.55484 0.21697 0.72434 0.0
C573 C 0.53646 0.19793 0.73174 0.0
C574 C 0.55369 0.23406 0.71107 0.0
C575 C 0.53417 0.23254 0.70513 0.0
C576 C 0.51578 0.21369 0.713 0.0
H577 H 0.50158 0.32073 0.60953 0.0
H578 H 0.49985 0.28933 0.63485 0.0
C579 C 0.5169 0.19656 0.72633 0.0
C580 C 0.53304 0.25027 0.68891 0.0
H581 H 0.54925 0.30222 0.69915 0.0
C582 C 0.52332 0.24723 0.65599 0.0
C583 C 0.54221 0.27025 0.70492 0.0
C584 C 0.55201 0.27421 0.74094 0.0
C585 C 0.52315 0.26384 0.63811 0.0
C586 C 0.53268 0.28391 0.65385 0.0
C587 C 0.54205 0.28684 0.68704 0.0
C588 C 0.53349 0.30227 0.63619 0.0
C589 C 0.51339 0.25996 0.60206 0.0
C590 C 0.55295 0.31995 0.62859 0.0
C591 C 0.554 0.33791 0.61425 0.0
C592 C 0.53558 0.33862 0.6074 0.0
C593 C 0.51606 0.32068 0.61426 0.0
C594 C 0.51503 0.30269 0.62865 0.0
H595 H 0.5112 0.24517 0.59037 0.0
H596 H 0.49777 0.2587 0.60406 0.0
H597 H 0.5232 0.27314 0.58404 0.0
H598 H 0.56738 0.31996 0.63425 0.0
H599 H 0.56931 0.35143 0.60936 0.0
H600 H 0.41559 0.48822 0.09831 0.0
H601 H 0.44306 0.47881 0.10144 0.0
H602 H 0.49032 0.54431 0.10155 0.0
H603 H 0.46301 0.5539 0.09884 0.0
H604 H 0.47514 0.48912 0.05274 0.0
H605 H 0.50778 0.52101 0.18445 0.0
H606 H 0.48261 0.51682 0.16999 0.0
H607 H 0.50635 0.53951 0.1555 0.0
C608 C 0.43181 0.50065 0.09933 0.0
C609 C 0.43709 0.52183 0.09842 0.0
C610 C 0.44749 0.49523 0.10108 0.0
C611 C 0.46871 0.51086 0.1022 0.0
C612 C 0.47403 0.532 0.10145 0.0
H613 H 0.58715 0.51241 0.09588 0.0
H614 H 0.55912 0.52107 0.09846 0.0
C615 C 0.45838 0.53744 0.09969 0.0
C616 C 0.4853 0.50504 0.1024 0.0
H617 H 0.52723 0.51013 0.14904 0.0
C618 C 0.48644 0.49357 0.0739 0.0
C619 C 0.50007 0.51096 0.12998 0.0
C620 C 0.4991 0.52259 0.16189 0.0
C621 C 0.50223 0.48821 0.07187 0.0
C622 C 0.51703 0.49417 0.09941 0.0
C623 C 0.51586 0.50559 0.12797 0.0
C624 C 0.53393 0.48881 0.09889 0.0
C625 C 0.50325 0.47669 0.03983 0.0
C626 C 0.52905 0.46779 0.09894 0.0
C627 C 0.54501 0.46278 0.09741 0.0
C628 C 0.56618 0.4787 0.09602 0.0
C629 C 0.57102 0.49976 0.09681 0.0
C630 C 0.55503 0.50475 0.09832 0.0
H631 H 0.49421 0.47794 0.01751 0.0
H632 H 0.51973 0.48284 0.03132 0.0
H633 H 0.49645 0.45983 0.04629 0.0
H634 H 0.51288 0.45525 0.10007 0.0
H635 H 0.54072 0.4464 0.09708 0.0
H636 H 0.91032 0.46279 0.4294 0.0
H637 H 0.94725 0.49017 0.43175 0.0
H638 H 0.96554 0.44296 0.43454 0.0
H639 H 0.92869 0.41544 0.43178 0.0
H640 H 0.97832 0.49775 0.48228 0.0
H641 H 0.99895 0.48013 0.35126 0.0
H642 H 0.97215 0.47004 0.3652 0.0
H643 H 0.98681 0.45806 0.3805 0.0
C644 C 0.92218 0.4582 0.43056 0.0
C645 C 0.91654 0.4369 0.43015 0.0
C646 C 0.94327 0.47388 0.43194 0.0
C647 C 0.95912 0.46859 0.43275 0.0
C648 C 0.95355 0.44737 0.43322 0.0
H649 H 0.09513 0.54057 0.43164 0.0
H650 H 0.05833 0.51302 0.43498 0.0
C651 C 0.93247 0.43167 0.43182 0.0
C652 C 0.98148 0.48529 0.43299 0.0
H653 H 0.027 0.50508 0.38607 0.0
C654 C 0.98897 0.49942 0.46123 0.0
C655 C 0.99531 0.4874 0.40545 0.0
C656 C 0.98792 0.47324 0.3737 0.0
C657 C 0.01006 0.51542 0.46296 0.0
C658 C 0.02388 0.51752 0.43542 0.0
C659 C 0.01637 0.50338 0.40721 0.0
C660 C 0.04618 0.53438 0.4351 0.0
C661 C 0.01745 0.52968 0.49457 0.0
C662 C 0.05155 0.55554 0.43393 0.0
C663 C 0.07259 0.57135 0.43205 0.0
C664 C 0.08865 0.56628 0.43107 0.0
C665 C 0.08319 0.54505 0.43241 0.0
C666 C 0.06215 0.52927 0.43429 0.0
H667 H 0.00657 0.52272 0.51717 0.0
H668 H 0.03335 0.53317 0.50281 0.0
H669 H 0.01825 0.54472 0.48774 0.0
H670 H 0.03945 0.55982 0.4338 0.0
H671 H 0.07623 0.58752 0.43087 0.0
H672 H 0.55744 0.09482 0.76213 0.0
H673 H 0.54836 0.05804 0.76423 0.0
H674 H 0.48266 0.03898 0.76713 0.0
H675 H 0.49153 0.07571 0.76461 0.0
H676 H 0.52527 0.02681 0.81457 0.0
H677 H 0.4869 0.00601 0.68369 0.0
H678 H 0.50332 0.03282 0.69773 0.0
H679 H 0.47671 0.01786 0.713 0.0
C680 C 0.54104 0.08283 0.76324 0.0
C681 C 0.5252 0.08822 0.76294 0.0
C682 C 0.5359 0.06182 0.76449 0.0
C683 C 0.51484 0.0458 0.76528 0.0
C684 C 0.499 0.05111 0.76583 0.0
H685 H 0.45066 0.91028 0.76516 0.0
H686 H 0.46049 0.9472 0.76821 0.0
C687 C 0.50411 0.07212 0.76458 0.0
C688 C 0.50948 0.02353 0.7654 0.0
H689 H 0.48391 0.978 0.71859 0.0
C690 C 0.5163 0.01613 0.79355 0.0
C691 C 0.49782 0.00968 0.73787 0.0
C692 C 0.4909 0.01698 0.70617 0.0
C693 C 0.51136 0.99509 0.79529 0.0
C694 C 0.49959 0.98122 0.76786 0.0
C695 C 0.49287 0.98866 0.73964 0.0
C696 C 0.49391 0.95885 0.76787 0.0
C697 C 0.51837 0.98776 0.82683 0.0
C698 C 0.50947 0.95315 0.76663 0.0
C699 C 0.50391 0.93201 0.76493 0.0
C700 C 0.48268 0.91621 0.76421 0.0
C701 C 0.46716 0.92202 0.76571 0.0
C702 C 0.47273 0.94312 0.76742 0.0
H703 H 0.52258 0.99879 0.84927 0.0
H704 H 0.5059 0.97198 0.83543 0.0
H705 H 0.53243 0.98671 0.81973 0.0
H706 H 0.52591 0.96506 0.76626 0.0
H707 H 0.51625 0.92809 0.76362 0.0
H708 H 0.51506 0.5879 0.57268 0.0
H709 H 0.52497 0.56079 0.5689 0.0
H710 H 0.45968 0.5129 0.57001 0.0
H711 H 0.4496 0.53981 0.57338 0.0
H712 H 0.51542 0.52871 0.61737 0.0
H713 H 0.48273 0.49598 0.48611 0.0
H714 H 0.48674 0.52103 0.50087 0.0
H715 H 0.46425 0.49714 0.51549 0.0
C716 C 0.5028 0.57161 0.57179 0.0
C717 C 0.48153 0.56604 0.57323 0.0
C718 C 0.50849 0.55614 0.56967 0.0
C719 C 0.49306 0.53485 0.56867 0.0
C720 C 0.47184 0.52925 0.56999 0.0
H721 H 0.49143 0.41656 0.57435 0.0
H722 H 0.48296 0.44472 0.57189 0.0
C723 C 0.46612 0.54467 0.57214 0.0
C724 C 0.49913 0.51845 0.56803 0.0
H725 H 0.49374 0.47648 0.52121 0.0
C726 C 0.51085 0.51739 0.59622 0.0
C727 C 0.49304 0.50367 0.54046 0.0
C728 C 0.48116 0.50456 0.50884 0.0
C729 C 0.51623 0.50162 0.59801 0.0
C730 C 0.51004 0.48676 0.57054 0.0
C731 C 0.49844 0.48789 0.54224 0.0
C732 C 0.5153 0.46977 0.57094 0.0
C733 C 0.52799 0.50066 0.62978 0.0
C734 C 0.53628 0.47452 0.57055 0.0
C735 C 0.54118 0.45849 0.57201 0.0
C736 C 0.52517 0.43736 0.57367 0.0
C737 C 0.50414 0.43265 0.5732 0.0
C738 C 0.49926 0.44871 0.57177 0.0
H739 H 0.52696 0.50979 0.65215 0.0
H740 H 0.52184 0.4842 0.6384 0.0
H741 H 0.54479 0.50737 0.62295 0.0
H742 H 0.54888 0.49066 0.56921 0.0
H743 H 0.55754 0.46268 0.57209 0.0
H744 H 0.09464 0.55505 0.90824 0.0
H745 H 0.05768 0.54544 0.90596 0.0
H746 H 0.03956 0.47999 0.90308 0.0
H747 H 0.07643 0.4894 0.90575 0.0
H748 H 0.02662 0.52186 0.85532 0.0
H749 H 0.00612 0.4837 0.98646 0.0
H750 H 0.0329 0.50047 0.97251 0.0
H751 H 0.01835 0.47385 0.95724 0.0
C752 C 0.08281 0.5386 0.90707 0.0
C753 C 0.0885 0.52298 0.90743 0.0
C754 C 0.0617 0.53315 0.90574 0.0
C755 C 0.04589 0.51201 0.90491 0.0
C756 C 0.05151 0.4964 0.9044 0.0
H757 H 0.90984 0.44789 0.90625 0.0
H758 H 0.94665 0.45712 0.90295 0.0
C759 C 0.07261 0.50182 0.90575 0.0
C760 C 0.02352 0.5063 0.90468 0.0
H761 H 0.97804 0.48056 0.95167 0.0
C762 C 0.01598 0.51288 0.8764 0.0
C763 C 0.00972 0.4946 0.93225 0.0
C764 C 0.01716 0.48787 0.96402 0.0
C765 C 0.99488 0.50776 0.87467 0.0
C766 C 0.98109 0.49606 0.90226 0.0
C767 C 0.98864 0.48947 0.93051 0.0
C768 C 0.95879 0.49062 0.90262 0.0
C769 C 0.98745 0.51456 0.84303 0.0
C770 C 0.95342 0.5064 0.90367 0.0
C771 C 0.93238 0.50119 0.90552 0.0
C772 C 0.91633 0.48007 0.90659 0.0
C773 C 0.92179 0.4643 0.9054 0.0
C774 C 0.94282 0.46954 0.90354 0.0
H775 H 0.9983 0.51843 0.8204 0.0
H776 H 0.97154 0.50214 0.83487 0.0
H777 H 0.98665 0.52881 0.84976 0.0
H778 H 0.96551 0.52277 0.90372 0.0
H779 H 0.92874 0.51373 0.90659 0.0
H780 H 0.41609 0.92768 0.23938 0.0
H781 H 0.44371 0.96451 0.23619 0.0
H782 H 0.49073 0.94592 0.23615 0.0
H783 H 0.4633 0.9091 0.23891 0.0
H784 H 0.47588 0.98626 0.2847 0.0
H785 H 0.50835 0.98649 0.15305 0.0
H786 H 0.48314 0.96564 0.16764 0.0
H787 H 0.50684 0.96656 0.18209 0.0
C788 C 0.4323 0.9314 0.23836 0.0
C789 C 0.43747 0.91542 0.23929 0.0
C790 C 0.44805 0.95246 0.23658 0.0
C791 C 0.46925 0.95793 0.23543 0.0
C792 C 0.47446 0.94203 0.23625 0.0
H793 H 0.58814 0.07452 0.24148 0.0
H794 H 0.56004 0.03784 0.23908 0.0
C795 C 0.45874 0.92098 0.23805 0.0
C796 C 0.48594 0.98029 0.23511 0.0
H797 H 0.52804 0.01681 0.18836 0.0
C798 C 0.4872 0.993 0.26353 0.0
C799 C 0.50073 0.98898 0.20751 0.0
C800 C 0.49965 0.97629 0.17567 0.0
C801 C 0.50312 0.01408 0.26546 0.0
C802 C 0.51794 0.02276 0.23792 0.0
C803 C 0.51666 0.01008 0.20944 0.0
C804 C 0.5349 0.045 0.23827 0.0
C805 C 0.50424 0.02673 0.29741 0.0
C806 C 0.53007 0.06117 0.23791 0.0
C807 C 0.54606 0.08212 0.23931 0.0
C808 C 0.56722 0.08732 0.24089 0.0
C809 C 0.57202 0.07107 0.24039 0.0
C810 C 0.55599 0.0501 0.239 0.0
H811 H 0.49516 0.01653 0.31978 0.0
H812 H 0.52074 0.03698 0.30588 0.0
H813 H 0.49754 0.03688 0.29085 0.0
H814 H 0.51391 0.05758 0.23665 0.0
H815 H 0.54179 0.09422 0.23942 0.0
H816 H 0.40451 0.57839 0.68876 0.0
H817 H 0.40124 0.57501 0.75264 0.0
H818 H 0.46417 0.58511 0.75952 0.0
H819 H 0.46789 0.58969 0.6958 0.0
H820 H 0.40168 0.54896 0.79696 0.0
H821 H 0.46871 0.62713 0.82907 0.0
H822 H 0.4591 0.61972 0.78486 0.0
H823 H 0.47681 0.61205 0.80336 0.0
C824 C 0.41764 0.57989 0.70394 0.0
C825 C 0.43652 0.58447 0.68742 0.0
C826 C 0.41577 0.57798 0.74045 0.0
C827 C 0.43263 0.5803 0.76108 0.0
C828 C 0.45121 0.58401 0.74439 0.0
H829 H 0.41474 0.53633 0.97769 0.0
H830 H 0.41997 0.54039 0.91415 0.0
C831 C 0.45325 0.58642 0.70794 0.0
C832 C 0.43057 0.57849 0.79993 0.0
H833 H 0.45423 0.60292 0.87659 0.0
C834 C 0.41312 0.56084 0.81435 0.0
C835 C 0.44526 0.59417 0.82272 0.0
C836 C 0.46338 0.61443 0.8092 0.0
C837 C 0.41002 0.55832 0.85078 0.0
C838 C 0.42532 0.57341 0.87358 0.0
C839 C 0.44266 0.59118 0.85918 0.0
C840 C 0.4234 0.57136 0.91242 0.0
C841 C 0.39002 0.53981 0.86423 0.0
C842 C 0.42479 0.58787 0.93294 0.0
C843 C 0.42249 0.58583 0.96941 0.0
C844 C 0.41845 0.56713 0.98594 0.0
C845 C 0.41754 0.55081 0.96553 0.0
C846 C 0.42033 0.55304 0.92918 0.0
H847 H 0.37736 0.53403 0.84421 0.0
H848 H 0.39295 0.52676 0.87037 0.0
H849 H 0.38436 0.54385 0.88838 0.0
H850 H 0.42729 0.60222 0.92068 0.0
H851 H 0.42323 0.59865 0.98452 0.0
H852 H 0.87924 0.41286 0.30966 0.0
H853 H 0.88115 0.41875 0.24624 0.0
H854 H 0.82758 0.4277 0.25213 0.0
H855 H 0.82634 0.42294 0.3158 0.0
H856 H 0.85533 0.39766 0.19687 0.0
H857 H 0.86515 0.47713 0.19441 0.0
H858 H 0.86706 0.46514 0.23446 0.0
H859 H 0.84178 0.45912 0.2175 0.0
C860 C 0.86803 0.41634 0.29744 0.0
C861 C 0.85275 0.41762 0.31765 0.0
C862 C 0.86911 0.41967 0.26119 0.0
C863 C 0.85475 0.42406 0.24436 0.0
C864 C 0.83928 0.42505 0.26454 0.0
H865 H 0.82612 0.40403 0.02127 0.0
H866 H 0.82744 0.40047 0.08492 0.0
C867 C 0.83849 0.42218 0.30092 0.0
C868 C 0.85542 0.42663 0.20557 0.0
H869 H 0.85536 0.45827 0.14012 0.0
C870 C 0.85555 0.41104 0.18449 0.0
C871 C 0.85605 0.44422 0.18929 0.0
C872 C 0.85774 0.46244 0.21012 0.0
C873 C 0.85598 0.41238 0.1477 0.0
C874 C 0.85536 0.42935 0.13142 0.0
C875 C 0.85556 0.44511 0.1525 0.0
C876 C 0.85466 0.43125 0.09263 0.0
C877 C 0.85759 0.39581 0.12685 0.0
C878 C 0.86903 0.44998 0.07577 0.0
C879 C 0.8679 0.45225 0.03955 0.0
C880 C 0.85256 0.43572 0.01937 0.0
C881 C 0.8383 0.41691 0.03612 0.0
C882 C 0.83915 0.41481 0.07249 0.0
H883 H 0.86499 0.3885 0.14253 0.0
H884 H 0.84161 0.38321 0.11954 0.0
H885 H 0.86688 0.4024 0.10248 0.0
H886 H 0.8811 0.46291 0.09069 0.0
H887 H 0.8791 0.46692 0.02731 0.0
H888 H 0.47117 0.86966 0.63862 0.0
H889 H 0.4671 0.87033 0.57499 0.0
H890 H 0.39987 0.83808 0.58695 0.0
H891 H 0.40373 0.83724 0.65069 0.0
H892 H 0.41528 0.82055 0.53556 0.0
H893 H 0.44827 0.90633 0.51837 0.0
H894 H 0.46432 0.89888 0.54314 0.0
H895 H 0.43937 0.89343 0.56034 0.0
C896 C 0.4555 0.86284 0.62779 0.0
C897 C 0.43776 0.85344 0.64976 0.0
C898 C 0.45323 0.86332 0.59143 0.0
C899 C 0.4332 0.85443 0.57638 0.0
C900 C 0.41546 0.84509 0.59816 0.0
H901 H 0.39871 0.86546 0.36385 0.0
H902 H 0.40373 0.86632 0.42735 0.0
C903 C 0.41771 0.84468 0.63455 0.0
C904 C 0.43074 0.85423 0.5378 0.0
H905 H 0.44113 0.88606 0.46651 0.0
C906 C 0.42089 0.83485 0.52041 0.0
C907 C 0.43795 0.87292 0.51828 0.0
C908 C 0.44792 0.8941 0.5359 0.0
C909 C 0.41823 0.83366 0.48382 0.0
C910 C 0.42585 0.85238 0.46419 0.0
C911 C 0.43549 0.87176 0.48165 0.0
C912 C 0.42332 0.85215 0.42559 0.0
C913 C 0.40694 0.81237 0.46657 0.0
C914 C 0.43296 0.84418 0.40353 0.0
C915 C 0.43011 0.84363 0.36714 0.0
C916 C 0.41765 0.85116 0.35222 0.0
C917 C 0.40836 0.85949 0.37444 0.0
C918 C 0.41122 0.86002 0.41075 0.0
H919 H 0.3979 0.79968 0.48588 0.0
H920 H 0.39604 0.81187 0.44593 0.0
H921 H 0.41861 0.80914 0.45391 0.0
H922 H 0.44267 0.83837 0.41446 0.0
H923 H 0.43757 0.83722 0.35077 0.0
H924 H 0.60076 0.42144 0.68661 0.0
H925 H 0.60443 0.4251 0.75047 0.0
H926 H 0.54238 0.41723 0.758 0.0
H927 H 0.53824 0.41244 0.6944 0.0
H928 H 0.60494 0.4519 0.79484 0.0
H929 H 0.53676 0.37457 0.82745 0.0
H930 H 0.54642 0.38173 0.7832 0.0
H931 H 0.52914 0.38998 0.80157 0.0
C932 C 0.58792 0.42049 0.70194 0.0
C933 C 0.56914 0.41645 0.68565 0.0
C934 C 0.59001 0.42256 0.73842 0.0
C935 C 0.57347 0.42091 0.75921 0.0
C936 C 0.55506 0.41779 0.74273 0.0
H937 H 0.59132 0.46557 0.97506 0.0
H938 H 0.58663 0.46142 0.91145 0.0
C939 C 0.55278 0.41525 0.70635 0.0
C940 C 0.57566 0.42276 0.79801 0.0
H941 H 0.55159 0.39888 0.87478 0.0
C942 C 0.59334 0.44022 0.81231 0.0
C943 C 0.56075 0.40732 0.82088 0.0
C944 C 0.54234 0.38725 0.80748 0.0
C945 C 0.5964 0.44284 0.84874 0.0
C946 C 0.58087 0.42803 0.8716 0.0
C947 C 0.56334 0.41041 0.85731 0.0
C948 C 0.58269 0.43024 0.91041 0.0
C949 C 0.61654 0.46116 0.86215 0.0
C950 C 0.58088 0.41367 0.93128 0.0
C951 C 0.5829 0.41578 0.96776 0.0
C952 C 0.58705 0.4346 0.98397 0.0
C953 C 0.58842 0.451 0.96318 0.0
C954 C 0.58594 0.44871 0.92679 0.0
H955 H 0.62924 0.46664 0.84223 0.0
H956 H 0.61392 0.47444 0.86796 0.0
H957 H 0.62198 0.45704 0.88649 0.0
H958 H 0.57824 0.39921 0.9193 0.0
H959 H 0.58182 0.4029 0.98316 0.0
H960 H 0.12585 0.53596 0.02772 0.0
H961 H 0.12384 0.53978 0.09115 0.0
H962 H 0.17731 0.60234 0.08564 0.0
H963 H 0.17864 0.59898 0.02196 0.0
H964 H 0.1496 0.54446 0.14063 0.0
H965 H 0.13953 0.61396 0.14326 0.0
H966 H 0.13773 0.60016 0.10317 0.0
H967 H 0.16295 0.61942 0.12026 0.0
C968 C 0.13702 0.55062 0.04003 0.0
C969 C 0.1523 0.56724 0.01991 0.0
C970 C 0.13588 0.55278 0.07628 0.0
C971 C 0.15018 0.57149 0.09322 0.0
C972 C 0.16565 0.58801 0.07315 0.0
H973 H 0.17862 0.57988 0.31635 0.0
H974 H 0.17729 0.57497 0.2527 0.0
C975 C 0.1665 0.58602 0.03676 0.0
C976 C 0.14944 0.57331 0.13201 0.0
H977 H 0.1493 0.60484 0.19755 0.0
C978 C 0.14932 0.55757 0.15305 0.0
C979 C 0.14872 0.59022 0.14834 0.0
C980 C 0.147 0.60675 0.12755 0.0
C981 C 0.14883 0.55841 0.18984 0.0
C982 C 0.14937 0.57595 0.20617 0.0
C983 C 0.14915 0.59151 0.18513 0.0
C984 C 0.15003 0.57849 0.24496 0.0
C985 C 0.14725 0.54022 0.21064 0.0
C986 C 0.13564 0.58282 0.2618 0.0
C987 C 0.13677 0.58623 0.29802 0.0
C988 C 0.15215 0.5851 0.3182 0.0
C989 C 0.16641 0.58054 0.30148 0.0
C990 C 0.16556 0.57759 0.26512 0.0
H991 H 0.13989 0.52555 0.1949 0.0
H992 H 0.16323 0.54361 0.21797 0.0
H993 H 0.13793 0.53746 0.235 0.0
H994 H 0.12355 0.58366 0.24687 0.0
H995 H 0.12556 0.5897 0.31024 0.0
H996 H 0.60253 0.16855 0.65121 0.0
H997 H 0.60625 0.16783 0.58741 0.0
H998 H 0.53905 0.13692 0.57576 0.0
H999 H 0.53512 0.13738 0.63941 0.0
H1000 H 0.55825 0.11882 0.53592 0.0
H1001 H 0.59708 0.20504 0.5167 0.0
H1002 H 0.60941 0.19668 0.54854 0.0
H1003 H 0.58348 0.19232 0.55669 0.0
C1004 C 0.58854 0.16157 0.6351 0.0
C1005 C 0.56854 0.15311 0.65041 0.0
C1006 C 0.5907 0.16129 0.59865 0.0
C1007 C 0.57293 0.1526 0.57692 0.0
C1008 C 0.55295 0.14379 0.59212 0.0
H1009 H 0.56919 0.16763 0.35106 0.0
H1010 H 0.56385 0.16676 0.41465 0.0
C1011 C 0.55076 0.14409 0.62851 0.0
C1012 C 0.57509 0.15255 0.53828 0.0
H1013 H 0.59513 0.18471 0.46702 0.0
C1014 C 0.56628 0.13321 0.52081 0.0
C1015 C 0.58532 0.17136 0.51868 0.0
C1016 C 0.59422 0.19255 0.53598 0.0
C1017 C 0.56773 0.13218 0.48419 0.0
C1018 C 0.5785 0.15099 0.46471 0.0
C1019 C 0.587 0.17033 0.48212 0.0
C1020 C 0.58125 0.15096 0.42621 0.0
C1021 C 0.55751 0.11098 0.46661 0.0
C1022 C 0.59291 0.14247 0.41177 0.0
C1023 C 0.59599 0.14294 0.37553 0.0
C1024 C 0.58754 0.15199 0.35303 0.0
C1025 C 0.57585 0.16048 0.36762 0.0
C1026 C 0.57281 0.16003 0.40393 0.0
H1027 H 0.54554 0.09856 0.48378 0.0
H1028 H 0.54994 0.11126 0.44155 0.0
H1029 H 0.56966 0.10672 0.46059 0.0
H1030 H 0.59988 0.13574 0.4286 0.0
H1031 H 0.60517 0.13635 0.36521 0.0
loop_
_geom_bond_atom_site_label_1
_geom_bond_atom_site_label_2
_geom_bond_distance
_geom_bond_site_symmetry_2
_ccdc_geom_bond_type
C0 O2 1.247 . S
C0 O4 1.258 . S
C1 O8 1.247 . S
C1 O9 1.258 . S
O2 C0 1.247 . S
O2 Zn3 2.028 . S
Zn3 O2 2.028 . S
Zn3 O7 2.035 . S
Zn3 O9 2.035 . S
Zn3 O10 2.028 . S
O4 C0 1.258 . S
O4 Zn5 2.035 . S
Zn5 O4 2.035 . S
Zn5 O6 2.028 . S
Zn5 O8 2.028 . S
Zn5 O11 2.035 . S
O6 Zn5 2.028 . S
O6 C12 1.247 . S
O7 Zn3 2.035 . S
O7 C12 1.258 . S
O8 C1 1.247 . S
O8 Zn5 2.028 . S
O9 C1 1.258 . S
O9 Zn3 2.035 . S
O10 Zn3 2.028 . S
O10 C13 1.247 . S
O11 Zn5 2.035 . S
O11 C13 1.258 . S
C12 O6 1.247 . S
C12 O7 1.258 . S
C13 O10 1.247 . S
C13 O11 1.258 . S
C14 O16 1.247 . S
C14 O18 1.258 . S
C15 O22 1.247 . S
C15 O23 1.258 . S
O16 C14 1.247 . S
O16 Zn17 2.028 . S
Zn17 O16 2.028 . S
Zn17 O21 2.035 . S
Zn17 O23 2.035 . S
Zn17 O24 2.028 . S
O18 C14 1.258 . S
O18 Zn19 2.035 . S
Zn19 O18 2.035 . S
Zn19 O20 2.028 . S
Zn19 O22 2.028 . S
Zn19 O25 2.035 . S
O20 Zn19 2.028 . S
O20 C26 1.247 . S
O21 Zn17 2.035 . S
O21 C26 1.258 . S
O22 C15 1.247 . S
O22 Zn19 2.028 . S
O23 C15 1.258 . S
O23 Zn17 2.035 . S
O24 Zn17 2.028 . S
O24 C27 1.247 . S
O25 Zn19 2.035 . S
O25 C27 1.258 . S
C26 O20 1.247 . S
C26 O21 1.258 . S
C27 O24 1.247 . S
C27 O25 1.258 . S
C28 O30 1.247 . S
C28 O32 1.258 . S
C29 O36 1.247 . S
C29 O37 1.258 . S
O30 C28 1.247 . S
O30 Zn31 2.028 . S
Zn31 O30 2.028 . S
Zn31 O35 2.035 . S
Zn31 O37 2.035 . S
Zn31 O38 2.028 . S
O32 C28 1.258 . S
O32 Zn33 2.035 . S
Zn33 O32 2.035 . S
Zn33 O34 2.028 . S
Zn33 O36 2.028 . S
Zn33 O39 2.035 . S
O34 Zn33 2.028 . S
O34 C40 1.247 . S
O35 Zn31 2.035 . S
O35 C40 1.258 . S
O36 C29 1.247 . S
O36 Zn33 2.028 . S
O37 C29 1.258 . S
O37 Zn31 2.035 . S
O38 Zn31 2.028 . S
O38 C41 1.247 . S
O39 Zn33 2.035 . S
O39 C41 1.258 . S
C40 O34 1.247 . S
C40 O35 1.258 . S
C41 O38 1.247 . S
C41 O39 1.258 . S
C42 O44 1.247 . S
C42 O46 1.258 . S
C43 O50 1.247 . S
C43 O51 1.258 . S
O44 C42 1.247 . S
O44 Zn45 2.028 . S
Zn45 O44 2.028 . S
Zn45 O49 2.035 . S
Zn45 O51 2.035 . S
Zn45 O52 2.028 . S
O46 C42 1.258 . S
O46 Zn47 2.035 . S
Zn47 O46 2.035 . S
Zn47 O48 2.028 . S
Zn47 O50 2.028 . S
Zn47 O53 2.035 . S
O48 Zn47 2.028 . S
O48 C54 1.247 . S
O49 Zn45 2.035 . S
O49 C54 1.258 . S
O50 C43 1.247 . S
O50 Zn47 2.028 . S
O51 C43 1.258 . S
O51 Zn45 2.035 . S
O52 Zn45 2.028 . S
O52 C55 1.247 . S
O53 Zn47 2.035 . S
O53 C55 1.258 . S
C54 O48 1.247 . S
C54 O49 1.258 . S
C55 O52 1.247 . S
C55 O53 1.258 . S
C56 O58 1.247 . S
C56 O60 1.258 . S
C57 O64 1.247 . S
C57 O65 1.258 . S
O58 C56 1.247 . S
O58 Zn59 2.028 . S
Zn59 O58 2.028 . S
Zn59 O63 2.035 . S
Zn59 O65 2.035 . S
Zn59 O66 2.028 . S
O60 C56 1.258 . S
O60 Zn61 2.035 . S
Zn61 O60 2.035 . S
Zn61 O62 2.028 . S
Zn61 O64 2.028 . S
Zn61 O67 2.035 . S
O62 Zn61 2.028 . S
O62 C68 1.247 . S
O63 Zn59 2.035 . S
O63 C68 1.258 . S
O64 C57 1.247 . S
O64 Zn61 2.028 . S
O65 C57 1.258 . S
O65 Zn59 2.035 . S
O66 Zn59 2.028 . S
O66 C69 1.247 . S
O67 Zn61 2.035 . S
O67 C69 1.258 . S
C68 O62 1.247 . S
C68 O63 1.258 . S
C69 O66 1.247 . S
C69 O67 1.258 . S
C70 O72 1.247 . S
C70 O74 1.258 . S
C71 O78 1.247 . S
C71 O79 1.258 . S
O72 C70 1.247 . S
O72 Zn73 2.028 . S
Zn73 O72 2.028 . S
Zn73 O77 2.035 . S
Zn73 O79 2.035 . S
Zn73 O80 2.028 . S
O74 C70 1.258 . S
O74 Zn75 2.035 . S
Zn75 O74 2.035 . S
Zn75 O76 2.028 . S
Zn75 O78 2.028 . S
Zn75 O81 2.035 . S
O76 Zn75 2.028 . S
O76 C82 1.247 . S
O77 Zn73 2.035 . S
O77 C82 1.258 . S
O78 C71 1.247 . S
O78 Zn75 2.028 . S
O79 C71 1.258 . S
O79 Zn73 2.035 . S
O80 Zn73 2.028 . S
O80 C83 1.247 . S
O81 Zn75 2.035 . S
O81 C83 1.258 . S
C82 O76 1.247 . S
C82 O77 1.258 . S
C83 O80 1.247 . S
C83 O81 1.258 . S
C84 O86 1.247 . S
C84 O88 1.258 . S
C85 O92 1.247 . S
C85 O93 1.258 . S
O86 C84 1.247 . S
O86 Zn87 2.028 . S
Zn87 O86 2.028 . S
Zn87 O91 2.035 . S
Zn87 O93 2.035 . S
Zn87 O94 2.028 . S
O88 C84 1.258 . S
O88 Zn89 2.035 . S
Zn89 O88 2.035 . S
Zn89 O90 2.028 . S
Zn89 O92 2.028 . S
Zn89 O95 2.035 . S
O90 Zn89 2.028 . S
O90 C96 1.247 . S
O91 Zn87 2.035 . S
O91 C96 1.258 . S
O92 C85 1.247 . S
O92 Zn89 2.028 . S
O93 C85 1.258 . S
O93 Zn87 2.035 . S
O94 Zn87 2.028 . S
O94 C97 1.247 . S
O95 Zn89 2.035 . S
O95 C97 1.258 . S
C96 O90 1.247 . S
C96 O91 1.258 . S
C97 O94 1.247 . S
C97 O95 1.258 . S
C98 O100 1.247 . S
C98 O102 1.258 . S
C99 O106 1.247 . S
C99 O107 1.258 . S
O100 C98 1.247 . S
O100 Zn101 2.028 . S
Zn101 O100 2.028 . S
Zn101 O105 2.035 . S
Zn101 O107 2.035 . S
Zn101 O108 2.028 . S
O102 C98 1.258 . S
O102 Zn103 2.035 . S
Zn103 O102 2.035 . S
Zn103 O104 2.028 . S
Zn103 O106 2.028 . S
Zn103 O109 2.035 . S
O104 Zn103 2.028 . S
O104 C110 1.247 . S
O105 Zn101 2.035 . S
O105 C110 1.258 . S
O106 C99 1.247 . S
O106 Zn103 2.028 . S
O107 C99 1.258 . S
O107 Zn101 2.035 . S
O108 Zn101 2.028 . S
O108 C111 1.247 . S
O109 Zn103 2.035 . S
O109 C111 1.258 . S
C110 O104 1.247 . S
C110 O105 1.258 . S
C111 O108 1.247 . S
C111 O109 1.258 . S
C112 O114 1.247 . S
C112 O116 1.258 . S
C113 O120 1.247 . S
C113 O121 1.258 . S
O114 C112 1.247 . S
O114 Zn115 2.028 . S
Zn115 O114 2.028 . S
Zn115 O119 2.035 . S
Zn115 O121 2.035 . S
Zn115 O122 2.028 . S
O116 C112 1.258 . S
O116 Zn117 2.035 . S
Zn117 O116 2.035 . S
Zn117 O118 2.028 . S
Zn117 O120 2.028 . S
Zn117 O123 2.035 . S
O118 Zn117 2.028 . S
O118 C124 1.247 . S
O119 Zn115 2.035 . S
O119 C124 1.258 . S
O120 C113 1.247 . S
O120 Zn117 2.028 . S
O121 C113 1.258 . S
O121 Zn115 2.035 . S
O122 Zn115 2.028 . S
O122 C125 1.247 . S
O123 Zn117 2.035 . S
O123 C125 1.258 . S
C124 O118 1.247 . S
C124 O119 1.258 . S
C125 O122 1.247 . S
C125 O123 1.258 . S
C126 O128 1.247 . S
C126 O130 1.258 . S
C127 O134 1.247 . S
C127 O135 1.258 . S
O128 C126 1.247 . S
O128 Zn129 2.028 . S
Zn129 O128 2.028 . S
Zn129 O133 2.035 . S
Zn129 O135 2.035 . S
Zn129 O136 2.028 . S
O130 C126 1.258 . S
O130 Zn131 2.035 . S
Zn131 O130 2.035 . S
Zn131 O132 2.028 . S
Zn131 O134 2.028 . S
Zn131 O137 2.035 . S
O132 Zn131 2.028 . S
O132 C138 1.247 . S
O133 Zn129 2.035 . S
O133 C138 1.258 . S
O134 C127 1.247 . S
O134 Zn131 2.028 . S
O135 C127 1.258 . S
O135 Zn129 2.035 . S
O136 Zn129 2.028 . S
O136 C139 1.247 . S
O137 Zn131 2.035 . S
O137 C139 1.258 . S
C138 O132 1.247 . S
C138 O133 1.258 . S
C139 O136 1.247 . S
C139 O137 1.258 . S
C140 O142 1.247 . S
C140 O144 1.258 . S
C141 O148 1.247 . S
C141 O149 1.258 . S
O142 C140 1.247 . S
O142 Zn143 2.028 . S
Zn143 O142 2.028 . S
Zn143 O147 2.035 . S
Zn143 O149 2.035 . S
Zn143 O150 2.028 . S
O144 C140 1.258 . S
O144 Zn145 2.035 . S
Zn145 O144 2.035 . S
Zn145 O146 2.028 . S
Zn145 O148 2.028 . S
Zn145 O151 2.035 . S
O146 Zn145 2.028 . S
O146 C152 1.247 . S
O147 Zn143 2.035 . S
O147 C152 1.258 . S
O148 C141 1.247 . S
O148 Zn145 2.028 . S
O149 C141 1.258 . S
O149 Zn143 2.035 . S
O150 Zn143 2.028 . S
O150 C153 1.247 . S
O151 Zn145 2.035 . S
O151 C153 1.258 . S
C152 O146 1.247 . S
C152 O147 1.258 . S
C153 O150 1.247 . S
C153 O151 1.258 . S
C154 O156 1.247 . S
C154 O158 1.258 . S
C155 O162 1.247 . S
C155 O163 1.258 . S
O156 C154 1.247 . S
O156 Zn157 2.028 . S
Zn157 O156 2.028 . S
Zn157 O161 2.035 . S
Zn157 O163 2.035 . S
Zn157 O164 2.028 . S
O158 C154 1.258 . S
O158 Zn159 2.035 . S
Zn159 O158 2.035 . S
Zn159 O160 2.028 . S
Zn159 O162 2.028 . S
Zn159 O165 2.035 . S
O160 Zn159 2.028 . S
O160 C166 1.247 . S
O161 Zn157 2.035 . S
O161 C166 1.258 . S
O162 C155 1.247 . S
O162 Zn159 2.028 . S
O163 C155 1.258 . S
O163 Zn157 2.035 . S
O164 Zn157 2.028 . S
O164 C167 1.247 . S
O165 Zn159 2.035 . S
O165 C167 1.258 . S
C166 O160 1.247 . S
C166 O161 1.258 . S
C167 O164 1.247 . S
C167 O165 1.258 . S
H168 C176 0.929 . S
H169 C178 0.930 . S
H170 C180 0.930 . S
H171 C183 0.929 . S
H172 C186 0.930 . S
H173 C188 0.960 . S
H174 C188 0.960 . S
H175 C188 0.960 . S
C176 H168 0.929 . S
C176 C177 1.377 . S
C176 C178 1.384 . S
C177 C176 1.377 . S
C177 C183 1.390 . S
C178 H169 0.930 . S
C178 C176 1.384 . S
C178 C179 1.372 . S
C179 C178 1.372 . S
C179 C180 1.400 . S
C179 C184 1.490 . S
C180 H170 0.930 . S
C180 C179 1.400 . S
C180 C183 1.386 . S
H181 C197 0.930 . S
H182 C198 0.931 . S
C183 H171 0.929 . S
C183 C177 1.390 . S
C183 C180 1.386 . S
C184 C179 1.490 . S
C184 C186 1.395 . S
C184 C187 1.403 . S
H185 C191 0.930 . S
C186 H172 0.930 . S
C186 C184 1.395 . S
C186 C189 1.403 . S
C187 C184 1.403 . S
C187 C188 1.524 . S
C187 C191 1.400 . S
C188 H173 0.960 . S
C188 H174 0.960 . S
C188 H175 0.960 . S
C188 C187 1.524 . S
C189 C186 1.403 . S
C189 C190 1.392 . S
C189 C193 1.495 . S
C190 C189 1.392 . S
C190 C191 1.385 . S
C190 C192 1.478 . S
C191 H185 0.930 . S
C191 C187 1.400 . S
C191 C190 1.385 . S
C192 C190 1.478 . S
C192 C194 1.381 . S
C192 C198 1.383 . S
C193 C189 1.495 . S
C193 H199 0.959 . S
C193 H200 0.961 . S
C193 H201 0.960 . S
C194 C192 1.381 . S
C194 C195 1.394 . S
C194 H202 0.930 . S
C195 C194 1.394 . S
C195 C196 1.383 . S
C195 H203 0.929 . S
C196 C195 1.383 . S
C196 C197 1.377 . S
C197 H181 0.930 . S
C197 C196 1.377 . S
C197 C198 1.379 . S
C198 H182 0.931 . S
C198 C192 1.383 . S
C198 C197 1.379 . S
H199 C193 0.959 . S
H200 C193 0.961 . S
H201 C193 0.960 . S
H202 C194 0.930 . S
H203 C195 0.929 . S
H204 C212 0.929 . S
H205 C214 0.930 . S
H206 C216 0.930 . S
H207 C219 0.929 . S
H208 C222 0.930 . S
H209 C224 0.960 . S
H210 C224 0.960 . S
H211 C224 0.960 . S
C212 H204 0.929 . S
C212 C213 1.377 . S
C212 C214 1.384 . S
C213 C212 1.377 . S
C213 C219 1.390 . S
C214 H205 0.930 . S
C214 C212 1.384 . S
C214 C215 1.372 . S
C215 C214 1.372 . S
C215 C216 1.400 . S
C215 C220 1.490 . S
C216 H206 0.930 . S
C216 C215 1.400 . S
C216 C219 1.386 . S
H217 C233 0.930 . S
H218 C234 0.931 . S
C219 H207 0.929 . S
C219 C213 1.390 . S
C219 C216 1.386 . S
C220 C215 1.490 . S
C220 C222 1.395 . S
C220 C223 1.403 . S
H221 C227 0.930 . S
C222 H208 0.930 . S
C222 C220 1.395 . S
C222 C225 1.403 . S
C223 C220 1.403 . S
C223 C224 1.524 . S
C223 C227 1.400 . S
C224 H209 0.960 . S
C224 H210 0.960 . S
C224 H211 0.960 . S
C224 C223 1.524 . S
C225 C222 1.403 . S
C225 C226 1.392 . S
C225 C229 1.495 . S
C226 C225 1.392 . S
C226 C227 1.385 . S
C226 C228 1.478 . S
C227 H221 0.930 . S
C227 C223 1.400 . S
C227 C226 1.385 . S
C228 C226 1.478 . S
C228 C230 1.381 . S
C228 C234 1.383 . S
C229 C225 1.495 . S
C229 H235 0.959 . S
C229 H236 0.961 . S
C229 H237 0.960 . S
C230 C228 1.381 . S
C230 C231 1.394 . S
C230 H238 0.930 . S
C231 C230 1.394 . S
C231 C232 1.383 . S
C231 H239 0.929 . S
C232 C231 1.383 . S
C232 C233 1.377 . S
C233 H217 0.930 . S
C233 C232 1.377 . S
C233 C234 1.379 . S
C234 H218 0.931 . S
C234 C228 1.383 . S
C234 C233 1.379 . S
H235 C229 0.959 . S
H236 C229 0.961 . S
H237 C229 0.960 . S
H238 C230 0.930 . S
H239 C231 0.929 . S
H240 C248 0.929 . S
H241 C250 0.930 . S
H242 C252 0.930 . S
H243 C255 0.929 . S
H244 C258 0.930 . S
H245 C260 0.960 . S
H246 C260 0.960 . S
H247 C260 0.960 . S
C248 H240 0.929 . S
C248 C249 1.377 . S
C248 C250 1.384 . S
C249 C248 1.377 . S
C249 C255 1.390 . S
C250 H241 0.930 . S
C250 C248 1.384 . S
C250 C251 1.372 . S
C251 C250 1.372 . S
C251 C252 1.400 . S
C251 C256 1.490 . S
C252 H242 0.930 . S
C252 C251 1.400 . S
C252 C255 1.386 . S
H253 C269 0.930 . S
H254 C270 0.931 . S
C255 H243 0.929 . S
C255 C249 1.390 . S
C255 C252 1.386 . S
C256 C251 1.490 . S
C256 C258 1.395 . S
C256 C259 1.403 . S
H257 C263 0.930 . S
C258 H244 0.930 . S
C258 C256 1.395 . S
C258 C261 1.403 1_556 S
C259 C256 1.403 . S
C259 C260 1.524 . S
C259 C263 1.400 1_556 S
C260 H245 0.960 . S
C260 H246 0.960 . S
C260 H247 0.960 . S
C260 C259 1.524 . S
C261 C258 1.403 1_554 S
C261 C262 1.392 . S
C261 C265 1.495 . S
C262 C261 1.392 . S
C262 C263 1.385 . S
C262 C264 1.478 . S
C263 H257 0.930 . S
C263 C259 1.400 1_554 S
C263 C262 1.385 . S
C264 C262 1.478 . S
C264 C266 1.381 . S
C264 C270 1.383 . S
C265 C261 1.495 . S
C265 H271 0.959 . S
C265 H272 0.961 . S
C265 H273 0.960 . S
C266 C264 1.381 . S
C266 C267 1.394 . S
C266 H274 0.930 . S
C267 C266 1.394 . S
C267 C268 1.383 . S
C267 H275 0.929 . S
C268 C267 1.383 . S
C268 C269 1.377 . S
C269 H253 0.930 . S
C269 C268 1.377 . S
C269 C270 1.379 . S
C270 H254 0.931 . S
C270 C264 1.383 . S
C270 C269 1.379 . S
H271 C265 0.959 . S
H272 C265 0.961 . S
H273 C265 0.960 . S
H274 C266 0.930 . S
H275 C267 0.929 . S
H276 C284 0.929 . S
H277 C286 0.930 . S
H278 C288 0.930 . S
H279 C291 0.929 . S
H280 C294 0.930 . S
H281 C296 0.960 . S
H282 C296 0.960 . S
H283 C296 0.960 . S
C284 H276 0.929 . S
C284 C285 1.377 . S
C284 C286 1.384 . S
C285 C284 1.377 . S
C285 C291 1.390 . S
C286 H277 0.930 . S
C286 C284 1.384 . S
C286 C287 1.372 . S
C287 C286 1.372 . S
C287 C288 1.400 . S
C287 C292 1.490 . S
C288 H278 0.930 . S
C288 C287 1.400 . S
C288 C291 1.386 . S
H289 C305 0.930 . S
H290 C306 0.931 . S
C291 H279 0.929 . S
C291 C285 1.390 . S
C291 C288 1.386 . S
C292 C287 1.490 . S
C292 C294 1.395 . S
C292 C295 1.403 . S
H293 C299 0.930 . S
C294 H280 0.930 . S
C294 C292 1.395 . S
C294 C297 1.403 . S
C295 C292 1.403 . S
C295 C296 1.524 . S
C295 C299 1.400 . S
C296 H281 0.960 . S
C296 H282 0.960 . S
C296 H283 0.960 . S
C296 C295 1.524 . S
C297 C294 1.403 . S
C297 C298 1.392 . S
C297 C301 1.495 . S
C298 C297 1.392 . S
C298 C299 1.385 . S
C298 C300 1.478 . S
C299 H293 0.930 . S
C299 C295 1.400 . S
C299 C298 1.385 . S
C300 C298 1.478 . S
C300 C302 1.381 . S
C300 C306 1.383 . S
C301 C297 1.495 . S
C301 H307 0.959 . S
C301 H308 0.961 . S
C301 H309 0.960 . S
C302 C300 1.381 . S
C302 C303 1.394 . S
C302 H310 0.930 . S
C303 C302 1.394 . S
C303 C304 1.383 . S
C303 H311 0.929 . S
C304 C303 1.383 . S
C304 C305 1.377 . S
C305 H289 0.930 . S
C305 C304 1.377 . S
C305 C306 1.379 . S
C306 H290 0.931 . S
C306 C300 1.383 . S
C306 C305 1.379 . S
H307 C301 0.959 . S
H308 C301 0.961 . S
H309 C301 0.960 . S
H310 C302 0.930 . S
H311 C303 0.929 . S
H312 C320 0.929 . S
H313 C322 0.930 . S
H314 C324 0.930 . S
H315 C327 0.929 . S
H316 C330 0.930 . S
H317 C332 0.960 . S
H318 C332 0.960 . S
H319 C332 0.960 . S
C320 H312 0.929 . S
C320 C321 1.377 . S
C320 C322 1.384 . S
C321 C320 1.377 . S
C321 C327 1.390 . S
C322 H313 0.930 . S
C322 C320 1.384 . S
C322 C323 1.372 . S
C323 C322 1.372 . S
C323 C324 1.400 . S
C323 C328 1.490 . S
C324 H314 0.930 . S
C324 C323 1.400 . S
C324 C327 1.386 . S
H325 C341 0.930 . S
H326 C342 0.931 . S
C327 H315 0.929 . S
C327 C321 1.390 . S
C327 C324 1.386 . S
C328 C323 1.490 . S
C328 C330 1.395 . S
C328 C331 1.403 . S
H329 C335 0.930 . S
C330 H316 0.930 . S
C330 C328 1.395 . S
C330 C333 1.403 . S
C331 C328 1.403 . S
C331 C332 1.524 . S
C331 C335 1.400 . S
C332 H317 0.960 . S
C332 H318 0.960 . S
C332 H319 0.960 . S
C332 C331 1.524 . S
C333 C330 1.403 . S
C333 C334 1.392 . S
C333 C337 1.495 . S
C334 C333 1.392 . S
C334 C335 1.385 . S
C334 C336 1.478 . S
C335 H329 0.930 . S
C335 C331 1.400 . S
C335 C334 1.385 . S
C336 C334 1.478 . S
C336 C338 1.381 . S
C336 C342 1.383 . S
C337 C333 1.495 . S
C337 H343 0.959 . S
C337 H344 0.961 . S
C337 H345 0.960 . S
C338 C336 1.381 . S
C338 C339 1.394 . S
C338 H346 0.930 . S
C339 C338 1.394 . S
C339 C340 1.383 . S
C339 H347 0.929 . S
C340 C339 1.383 . S
C340 C341 1.377 . S
C341 H325 0.930 . S
C341 C340 1.377 . S
C341 C342 1.379 . S
C342 H326 0.931 . S
C342 C336 1.383 . S
C342 C341 1.379 . S
H343 C337 0.959 . S
H344 C337 0.961 . S
H345 C337 0.960 . S
H346 C338 0.930 . S
H347 C339 0.929 . S
H348 C356 0.929 . S
H349 C358 0.930 . S
H350 C360 0.930 . S
H351 C363 0.929 . S
H352 C366 0.930 . S
H353 C368 0.960 . S
H354 C368 0.960 . S
H355 C368 0.960 . S
C356 H348 0.929 . S
C356 C357 1.377 . S
C356 C358 1.384 . S
C357 C356 1.377 . S
C357 C363 1.390 . S
C358 H349 0.930 . S
C358 C356 1.384 . S
C358 C359 1.372 . S
C359 C358 1.372 . S
C359 C360 1.400 . S
C359 C364 1.490 . S
C360 H350 0.930 . S
C360 C359 1.400 . S
C360 C363 1.386 . S
H361 C377 0.930 . S
H362 C378 0.931 . S
C363 H351 0.929 . S
C363 C357 1.390 . S
C363 C360 1.386 . S
C364 C359 1.490 . S
C364 C366 1.395 . S
C364 C367 1.403 . S
H365 C371 0.930 . S
C366 H352 0.930 . S
C366 C364 1.395 . S
C366 C369 1.403 1_554 S
C367 C364 1.403 . S
C367 C368 1.524 . S
C367 C371 1.400 1_554 S
C368 H353 0.960 . S
C368 H354 0.960 . S
C368 H355 0.960 . S
C368 C367 1.524 . S
C369 C366 1.403 1_556 S
C369 C370 1.392 . S
C369 C373 1.495 . S
C370 C369 1.392 . S
C370 C371 1.385 . S
C370 C372 1.478 . S
C371 H365 0.930 . S
C371 C367 1.400 1_556 S
C371 C370 1.385 . S
C372 C370 1.478 . S
C372 C374 1.381 . S
C372 C378 1.383 . S
C373 C369 1.495 . S
C373 H379 0.959 . S
C373 H380 0.961 . S
C373 H381 0.960 . S
C374 C372 1.381 . S
C374 C375 1.394 . S
C374 H382 0.930 . S
C375 C374 1.394 . S
C375 C376 1.383 . S
C375 H383 0.929 . S
C376 C375 1.383 . S
C376 C377 1.377 . S
C377 H361 0.930 . S
C377 C376 1.377 . S
C377 C378 1.379 . S
C378 H362 0.931 . S
C378 C372 1.383 . S
C378 C377 1.379 . S
H379 C373 0.959 . S
H380 C373 0.961 . S
H381 C373 0.960 . S
H382 C374 0.930 . S
H383 C375 0.929 . S
H384 C392 0.929 . S
H385 C394 0.930 . S
H386 C396 0.930 1_556 S
H387 C399 0.929 . S
H388 C402 0.930 . S
H389 C404 0.960 . S
H390 C404 0.960 . S
H391 C404 0.960 . S
C392 H384 0.929 . S
C392 C393 1.377 . S
C392 C394 1.384 . S
C393 C392 1.377 . S
C393 C399 1.390 . S
C394 H385 0.930 . S
C394 C392 1.384 . S
C394 C395 1.372 . S
C395 C394 1.372 . S
C395 C396 1.400 . S
C395 C400 1.490 . S
C396 H386 0.930 1_554 S
C396 C395 1.400 . S
C396 C399 1.386 . S
H397 C413 0.930 . S
H398 C414 0.931 . S
C399 H387 0.929 . S
C399 C393 1.390 . S
C399 C396 1.386 . S
C400 C395 1.490 . S
C400 C402 1.395 . S
C400 C403 1.403 1_554 S
H401 C407 0.930 . S
C402 H388 0.930 . S
C402 C400 1.395 . S
C402 C405 1.403 . S
C403 C400 1.403 1_556 S
C403 C404 1.524 . S
C403 C407 1.400 . S
C404 H389 0.960 . S
C404 H390 0.960 . S
C404 H391 0.960 . S
C404 C403 1.524 . S
C405 C402 1.403 . S
C405 C406 1.392 1_554 S
C405 C409 1.495 . S
C406 C405 1.392 1_556 S
C406 C407 1.385 . S
C406 C408 1.478 . S
C407 H401 0.930 . S
C407 C403 1.400 . S
C407 C406 1.385 . S
C408 C406 1.478 . S
C408 C410 1.381 . S
C408 C414 1.383 . S
C409 C405 1.495 . S
C409 H415 0.959 . S
C409 H416 0.961 . S
C409 H417 0.960 . S
C410 C408 1.381 . S
C410 C411 1.394 . S
C410 H418 0.930 1_556 S
C411 C410 1.394 . S
C411 C412 1.383 . S
C411 H419 0.929 . S
C412 C411 1.383 . S
C412 C413 1.377 . S
C413 H397 0.930 . S
C413 C412 1.377 . S
C413 C414 1.379 . S
C414 H398 0.931 . S
C414 C408 1.383 . S
C414 C413 1.379 . S
H415 C409 0.959 . S
H416 C409 0.961 . S
H417 C409 0.960 . S
H418 C410 0.930 1_554 S
H419 C411 0.929 . S
H420 C428 0.929 . S
H421 C430 0.930 . S
H422 C432 0.930 . S
H423 C435 0.929 . S
H424 C438 0.930 . S
H425 C440 0.960 . S
H426 C440 0.960 . S
H427 C440 0.960 . S
C428 H420 0.929 . S
C428 C429 1.377 . S
C428 C430 1.384 . S
C429 C428 1.377 . S
C429 C435 1.390 . S
C430 H421 0.930 . S
C430 C428 1.384 . S
C430 C431 1.372 . S
C431 C430 1.372 . S
C431 C432 1.400 . S
C431 C436 1.490 . S
C432 H422 0.930 . S
C432 C431 1.400 . S
C432 C435 1.386 . S
H433 C449 0.930 . S
H434 C450 0.931 . S
C435 H423 0.929 . S
C435 C429 1.390 . S
C435 C432 1.386 . S
C436 C431 1.490 . S
C436 C438 1.395 . S
C436 C439 1.403 . S
H437 C443 0.930 . S
C438 H424 0.930 . S
C438 C436 1.395 . S
C438 C441 1.403 . S
C439 C436 1.403 . S
C439 C440 1.524 . S
C439 C443 1.400 . S
C440 H425 0.960 . S
C440 H426 0.960 . S
C440 H427 0.960 . S
C440 C439 1.524 . S
C441 C438 1.403 . S
C441 C442 1.392 . S
C441 C445 1.495 . S
C442 C441 1.392 . S
C442 C443 1.385 . S
C442 C444 1.478 . S
C443 H437 0.930 . S
C443 C439 1.400 . S
C443 C442 1.385 . S
C444 C442 1.478 . S
C444 C446 1.381 . S
C444 C450 1.383 . S
C445 C441 1.495 . S
C445 H451 0.959 . S
C445 H452 0.961 . S
C445 H453 0.960 . S
C446 C444 1.381 . S
C446 C447 1.394 . S
C446 H454 0.930 . S
C447 C446 1.394 . S
C447 C448 1.383 . S
C447 H455 0.929 . S
C448 C447 1.383 . S
C448 C449 1.377 . S
C449 H433 0.930 . S
C449 C448 1.377 . S
C449 C450 1.379 . S
C450 H434 0.931 . S
C450 C444 1.383 . S
C450 C449 1.379 . S
H451 C445 0.959 . S
H452 C445 0.961 . S
H453 C445 0.960 . S
H454 C446 0.930 . S
H455 C447 0.929 . S
H456 C464 0.929 . S
H457 C466 0.930 . S
H458 C468 0.930 . S
H459 C471 0.929 . S
H460 C474 0.930 . S
H461 C476 0.960 . S
H462 C476 0.960 . S
H463 C476 0.960 . S
C464 H456 0.929 . S
C464 C465 1.377 . S
C464 C466 1.384 . S
C465 C464 1.377 . S
C465 C471 1.390 . S
C466 H457 0.930 . S
C466 C464 1.384 . S
C466 C467 1.372 . S
C467 C466 1.372 . S
C467 C468 1.400 . S
C467 C472 1.490 . S
C468 H458 0.930 . S
C468 C467 1.400 . S
C468 C471 1.386 . S
H469 C485 0.930 . S
H470 C486 0.931 . S
C471 H459 0.929 . S
C471 C465 1.390 . S
C471 C468 1.386 . S
C472 C467 1.490 . S
C472 C474 1.395 . S
C472 C475 1.403 . S
H473 C479 0.930 . S
C474 H460 0.930 . S
C474 C472 1.395 . S
C474 C477 1.403 . S
C475 C472 1.403 . S
C475 C476 1.524 . S
C475 C479 1.400 . S
C476 H461 0.960 . S
C476 H462 0.960 . S
C476 H463 0.960 . S
C476 C475 1.524 . S
C477 C474 1.403 . S
C477 C478 1.392 . S
C477 C481 1.495 . S
C478 C477 1.392 . S
C478 C479 1.385 . S
C478 C480 1.478 . S
C479 H473 0.930 . S
C479 C475 1.400 . S
C479 C478 1.385 . S
C480 C478 1.478 . S
C480 C482 1.381 . S
C480 C486 1.383 . S
C481 C477 1.495 . S
C481 H487 0.959 . S
C481 H488 0.961 . S
C481 H489 0.960 . S
C482 C480 1.381 . S
C482 C483 1.394 . S
C482 H490 0.930 . S
C483 C482 1.394 . S
C483 C484 1.383 . S
C483 H491 0.929 . S
C484 C483 1.383 . S
C484 C485 1.377 . S
C485 H469 0.930 . S
C485 C484 1.377 . S
C485 C486 1.379 . S
C486 H470 0.931 . S
C486 C480 1.383 . S
C486 C485 1.379 . S
H487 C481 0.959 . S
H488 C481 0.961 . S
H489 C481 0.960 . S
H490 C482 0.930 . S
H491 C483 0.929 . S
H492 C500 0.929 . S
H493 C502 0.930 . S
H494 C504 0.930 . S
H495 C507 0.929 . S
H496 C510 0.930 . S
H497 C512 0.960 . S
H498 C512 0.960 . S
H499 C512 0.960 . S
C500 H492 0.929 . S
C500 C501 1.377 . S
C500 C502 1.384 . S
C501 C500 1.377 . S
C501 C507 1.390 . S
C502 H493 0.930 . S
C502 C500 1.384 . S
C502 C503 1.372 . S
C503 C502 1.372 . S
C503 C504 1.400 . S
C503 C508 1.490 . S
C504 H494 0.930 . S
C504 C503 1.400 . S
C504 C507 1.386 . S
H505 C521 0.930 . S
H506 C522 0.931 . S
C507 H495 0.929 . S
C507 C501 1.390 . S
C507 C504 1.386 . S
C508 C503 1.490 . S
C508 C510 1.395 1_554 S
C508 C511 1.403 . S
H509 C515 0.930 . S
C510 H496 0.930 . S
C510 C508 1.395 1_556 S
C510 C513 1.403 . S
C511 C508 1.403 . S
C511 C512 1.524 . S
C511 C515 1.400 . S
C512 H497 0.960 . S
C512 H498 0.960 . S
C512 H499 0.960 . S
C512 C511 1.524 . S
C513 C510 1.403 . S
C513 C514 1.392 . S
C513 C517 1.495 . S
C514 C513 1.392 . S
C514 C515 1.385 1_556 S
C514 C516 1.478 . S
C515 H509 0.930 . S
C515 C511 1.400 . S
C515 C514 1.385 1_554 S
C516 C514 1.478 . S
C516 C518 1.381 . S
C516 C522 1.383 . S
C517 C513 1.495 . S
C517 H523 0.959 . S
C517 H524 0.961 . S
C517 H525 0.960 . S
C518 C516 1.381 . S
C518 C519 1.394 . S
C518 H526 0.930 . S
C519 C518 1.394 . S
C519 C520 1.383 . S
C519 H527 0.929 . S
C520 C519 1.383 . S
C520 C521 1.377 . S
C521 H505 0.930 . S
C521 C520 1.377 . S
C521 C522 1.379 . S
C522 H506 0.931 . S
C522 C516 1.383 . S
C522 C521 1.379 . S
H523 C517 0.959 . S
H524 C517 0.961 . S
H525 C517 0.960 . S
H526 C518 0.930 . S
H527 C519 0.929 . S
H528 C536 0.929 . S
H529 C538 0.930 . S
H530 C540 0.930 . S
H531 C543 0.929 . S
H532 C546 0.930 . S
H533 C548 0.960 . S
H534 C548 0.960 . S
H535 C548 0.960 . S
C536 H528 0.929 . S
C536 C537 1.377 . S
C536 C538 1.384 . S
C537 C536 1.377 . S
C537 C543 1.390 . S
C538 H529 0.930 . S
C538 C536 1.384 . S
C538 C539 1.372 . S
C539 C538 1.372 . S
C539 C540 1.400 . S
C539 C544 1.490 . S
C540 H530 0.930 . S
C540 C539 1.400 . S
C540 C543 1.386 . S
H541 C557 0.930 . S
H542 C558 0.931 . S
C543 H531 0.929 . S
C543 C537 1.390 . S
C543 C540 1.386 . S
C544 C539 1.490 . S
C544 C546 1.395 . S
C544 C547 1.403 . S
H545 C551 0.930 . S
C546 H532 0.930 . S
C546 C544 1.395 . S
C546 C549 1.403 . S
C547 C544 1.403 . S
C547 C548 1.524 . S
C547 C551 1.400 . S
C548 H533 0.960 . S
C548 H534 0.960 . S
C548 H535 0.960 . S
C548 C547 1.524 . S
C549 C546 1.403 . S
C549 C550 1.392 . S
C549 C553 1.495 . S
C550 C549 1.392 . S
C550 C551 1.385 . S
C550 C552 1.478 . S
C551 H545 0.930 . S
C551 C547 1.400 . S
C551 C550 1.385 . S
C552 C550 1.478 . S
C552 C554 1.381 . S
C552 C558 1.383 . S
C553 C549 1.495 . S
C553 H559 0.959 . S
C553 H560 0.961 . S
C553 H561 0.960 . S
C554 C552 1.381 . S
C554 C555 1.394 . S
C554 H562 0.930 . S
C555 C554 1.394 . S
C555 C556 1.383 . S
C555 H563 0.929 . S
C556 C555 1.383 . S
C556 C557 1.377 . S
C557 H541 0.930 . S
C557 C556 1.377 . S
C557 C558 1.379 . S
C558 H542 0.931 . S
C558 C552 1.383 . S
C558 C557 1.379 . S
H559 C553 0.959 . S
H560 C553 0.961 . S
H561 C553 0.960 . S
H562 C554 0.930 . S
H563 C555 0.929 . S
H564 C572 0.929 . S
H565 C574 0.930 . S
H566 C576 0.930 . S
H567 C579 0.929 . S
H568 C582 0.930 . S
H569 C584 0.960 . S
H570 C584 0.960 . S
H571 C584 0.960 . S
C572 H564 0.929 . S
C572 C573 1.377 . S
C572 C574 1.384 . S
C573 C572 1.377 . S
C573 C579 1.390 . S
C574 H565 0.930 . S
C574 C572 1.384 . S
C574 C575 1.372 . S
C575 C574 1.372 . S
C575 C576 1.400 . S
C575 C580 1.490 . S
C576 H566 0.930 . S
C576 C575 1.400 . S
C576 C579 1.386 . S
H577 C593 0.930 . S
H578 C594 0.931 . S
C579 H567 0.929 . S
C579 C573 1.390 . S
C579 C576 1.386 . S
C580 C575 1.490 . S
C580 C582 1.395 . S
C580 C583 1.403 . S
H581 C587 0.930 . S
C582 H568 0.930 . S
C582 C580 1.395 . S
C582 C585 1.403 . S
C583 C580 1.403 . S
C583 C584 1.524 . S
C583 C587 1.400 . S
C584 H569 0.960 . S
C584 H570 0.960 . S
C584 H571 0.960 . S
C584 C583 1.524 . S
C585 C582 1.403 . S
C585 C586 1.392 . S
C585 C589 1.495 . S
C586 C585 1.392 . S
C586 C587 1.385 . S
C586 C588 1.478 . S
C587 H581 0.930 . S
C587 C583 1.400 . S
C587 C586 1.385 . S
C588 C586 1.478 . S
C588 C590 1.381 . S
C588 C594 1.383 . S
C589 C585 1.495 . S
C589 H595 0.959 . S
C589 H596 0.961 . S
C589 H597 0.960 . S
C590 C588 1.381 . S
C590 C591 1.394 . S
C590 H598 0.930 . S
C591 C590 1.394 . S
C591 C592 1.383 . S
C591 H599 0.929 . S
C592 C591 1.383 . S
C592 C593 1.377 . S
C593 H577 0.930 . S
C593 C592 1.377 . S
C593 C594 1.379 . S
C594 H578 0.931 . S
C594 C588 1.383 . S
C594 C593 1.379 . S
H595 C589 0.959 . S
H596 C589 0.961 . S
H597 C589 0.960 . S
H598 C590 0.930 . S
H599 C591 0.929 . S
H600 C608 0.929 . S
H601 C610 0.930 . S
H602 C612 0.930 . S
H603 C615 0.929 . S
H604 C618 0.930 . S
H605 C620 0.960 . S
H606 C620 0.960 . S
H607 C620 0.960 . S
C608 H600 0.929 . S
C608 C609 1.377 . S
C608 C610 1.384 . S
C609 C608 1.377 . S
C609 C615 1.390 . S
C610 H601 0.930 . S
C610 C608 1.384 . S
C610 C611 1.372 . S
C611 C610 1.372 . S
C611 C612 1.400 . S
C611 C616 1.490 . S
C612 H602 0.930 . S
C612 C611 1.400 . S
C612 C615 1.386 . S
H613 C629 0.930 . S
H614 C630 0.931 . S
C615 H603 0.929 . S
C615 C609 1.390 . S
C615 C612 1.386 . S
C616 C611 1.490 . S
C616 C618 1.395 . S
C616 C619 1.403 . S
H617 C623 0.930 . S
C618 H604 0.930 . S
C618 C616 1.395 . S
C618 C621 1.403 . S
C619 C616 1.403 . S
C619 C620 1.524 . S
C619 C623 1.400 . S
C620 H605 0.960 . S
C620 H606 0.960 . S
C620 H607 0.960 . S
C620 C619 1.524 . S
C621 C618 1.403 . S
C621 C622 1.392 . S
C621 C625 1.495 . S
C622 C621 1.392 . S
C622 C623 1.385 . S
C622 C624 1.478 . S
C623 H617 0.930 . S
C623 C619 1.400 . S
C623 C622 1.385 . S
C624 C622 1.478 . S
C624 C626 1.381 . S
C624 C630 1.383 . S
C625 C621 1.495 . S
C625 H631 0.959 . S
C625 H632 0.961 . S
C625 H633 0.960 . S
C626 C624 1.381 . S
C626 C627 1.394 . S
C626 H634 0.930 . S
C627 C626 1.394 . S
C627 C628 1.383 . S
C627 H635 0.929 . S
C628 C627 1.383 . S
C628 C629 1.377 . S
C629 H613 0.930 . S
C629 C628 1.377 . S
C629 C630 1.379 . S
C630 H614 0.931 . S
C630 C624 1.383 . S
C630 C629 1.379 . S
H631 C625 0.959 . S
H632 C625 0.961 . S
H633 C625 0.960 . S
H634 C626 0.930 . S
H635 C627 0.929 . S
H636 C644 0.929 . S
H637 C646 0.930 . S
H638 C648 0.930 . S
H639 C651 0.929 . S
H640 C654 0.930 . S
H641 C656 0.960 . S
H642 C656 0.960 . S
H643 C656 0.960 . S
C644 H636 0.929 . S
C644 C645 1.377 . S
C644 C646 1.384 . S
C645 C644 1.377 . S
C645 C651 1.390 . S
C646 H637 0.930 . S
C646 C644 1.384 . S
C646 C647 1.372 . S
C647 C646 1.372 . S
C647 C648 1.400 . S
C647 C652 1.490 . S
C648 H638 0.930 . S
C648 C647 1.400 . S
C648 C651 1.386 . S
H649 C665 0.930 . S
H650 C666 0.931 . S
C651 H639 0.929 . S
C651 C645 1.390 . S
C651 C648 1.386 . S
C652 C647 1.490 . S
C652 C654 1.395 . S
C652 C655 1.403 . S
H653 C659 0.930 . S
C654 H640 0.930 . S
C654 C652 1.395 . S
C654 C657 1.403 1_655 S
C655 C652 1.403 . S
C655 C656 1.524 . S
C655 C659 1.400 1_655 S
C656 H641 0.960 . S
C656 H642 0.960 . S
C656 H643 0.960 . S
C656 C655 1.524 . S
C657 C654 1.403 1_455 S
C657 C658 1.392 . S
C657 C661 1.495 . S
C658 C657 1.392 . S
C658 C659 1.385 . S
C658 C660 1.478 . S
C659 H653 0.930 . S
C659 C655 1.400 1_455 S
C659 C658 1.385 . S
C660 C658 1.478 . S
C660 C662 1.381 . S
C660 C666 1.383 . S
C661 C657 1.495 . S
C661 H667 0.959 . S
C661 H668 0.961 . S
C661 H669 0.960 . S
C662 C660 1.381 . S
C662 C663 1.394 . S
C662 H670 0.930 . S
C663 C662 1.394 . S
C663 C664 1.383 . S
C663 H671 0.929 . S
C664 C663 1.383 . S
C664 C665 1.377 . S
C665 H649 0.930 . S
C665 C664 1.377 . S
C665 C666 1.379 . S
C666 H650 0.931 . S
C666 C660 1.383 . S
C666 C665 1.379 . S
H667 C661 0.959 . S
H668 C661 0.961 . S
H669 C661 0.960 . S
H670 C662 0.930 . S
H671 C663 0.929 . S
H672 C680 0.929 . S
H673 C682 0.930 . S
H674 C684 0.930 . S
H675 C687 0.929 . S
H676 C690 0.930 . S
H677 C692 0.960 . S
H678 C692 0.960 . S
H679 C692 0.960 . S
C680 H672 0.929 . S
C680 C681 1.377 . S
C680 C682 1.384 . S
C681 C680 1.377 . S
C681 C687 1.390 . S
C682 H673 0.930 . S
C682 C680 1.384 . S
C682 C683 1.372 . S
C683 C682 1.372 . S
C683 C684 1.400 . S
C683 C688 1.490 . S
C684 H674 0.930 . S
C684 C683 1.400 . S
C684 C687 1.386 . S
H685 C701 0.930 . S
H686 C702 0.931 . S
C687 H675 0.929 . S
C687 C681 1.390 . S
C687 C684 1.386 . S
C688 C683 1.490 . S
C688 C690 1.395 . S
C688 C691 1.403 . S
H689 C695 0.930 . S
C690 H676 0.930 . S
C690 C688 1.395 . S
C690 C693 1.403 1_545 S
C691 C688 1.403 . S
C691 C692 1.524 . S
C691 C695 1.400 1_545 S
C692 H677 0.960 . S
C692 H678 0.960 . S
C692 H679 0.960 . S
C692 C691 1.524 . S
C693 C690 1.403 1_565 S
C693 C694 1.392 . S
C693 C697 1.495 . S
C694 C693 1.392 . S
C694 C695 1.385 . S
C694 C696 1.478 . S
C695 H689 0.930 . S
C695 C691 1.400 1_565 S
C695 C694 1.385 . S
C696 C694 1.478 . S
C696 C698 1.381 . S
C696 C702 1.383 . S
C697 C693 1.495 . S
C697 H703 0.959 . S
C697 H704 0.961 . S
C697 H705 0.960 . S
C698 C696 1.381 . S
C698 C699 1.394 . S
C698 H706 0.930 . S
C699 C698 1.394 . S
C699 C700 1.383 . S
C699 H707 0.929 . S
C700 C699 1.383 . S
C700 C701 1.377 . S
C701 H685 0.930 . S
C701 C700 1.377 . S
C701 C702 1.379 . S
C702 H686 0.931 . S
C702 C696 1.383 . S
C702 C701 1.379 . S
H703 C697 0.959 . S
H704 C697 0.961 . S
H705 C697 0.960 . S
H706 C698 0.930 . S
H707 C699 0.929 . S
H708 C716 0.929 . S
H709 C718 0.930 . S
H710 C720 0.930 . S
H711 C723 0.929 . S
H712 C726 0.930 . S
H713 C728 0.960 . S
H714 C728 0.960 . S
H715 C728 0.960 . S
C716 H708 0.929 . S
C716 C717 1.377 . S
C716 C718 1.384 . S
C717 C716 1.377 . S
C717 C723 1.390 . S
C718 H709 0.930 . S
C718 C716 1.384 . S
C718 C719 1.372 . S
C719 C718 1.372 . S
C719 C720 1.400 . S
C719 C724 1.490 . S
C720 H710 0.930 . S
C720 C719 1.400 . S
C720 C723 1.386 . S
H721 C737 0.930 . S
H722 C738 0.931 . S
C723 H711 0.929 . S
C723 C717 1.390 . S
C723 C720 1.386 . S
C724 C719 1.490 . S
C724 C726 1.395 . S
C724 C727 1.403 . S
H725 C731 0.930 . S
C726 H712 0.930 . S
C726 C724 1.395 . S
C726 C729 1.403 . S
C727 C724 1.403 . S
C727 C728 1.524 . S
C727 C731 1.400 . S
C728 H713 0.960 . S
C728 H714 0.960 . S
C728 H715 0.960 . S
C728 C727 1.524 . S
C729 C726 1.403 . S
C729 C730 1.392 . S
C729 C733 1.495 . S
C730 C729 1.392 . S
C730 C731 1.385 . S
C730 C732 1.478 . S
C731 H725 0.930 . S
C731 C727 1.400 . S
C731 C730 1.385 . S
C732 C730 1.478 . S
C732 C734 1.381 . S
C732 C738 1.383 . S
C733 C729 1.495 . S
C733 H739 0.959 . S
C733 H740 0.961 . S
C733 H741 0.960 . S
C734 C732 1.381 . S
C734 C735 1.394 . S
C734 H742 0.930 . S
C735 C734 1.394 . S
C735 C736 1.383 . S
C735 H743 0.929 . S
C736 C735 1.383 . S
C736 C737 1.377 . S
C737 H721 0.930 . S
C737 C736 1.377 . S
C737 C738 1.379 . S
C738 H722 0.931 . S
C738 C732 1.383 . S
C738 C737 1.379 . S
H739 C733 0.959 . S
H740 C733 0.961 . S
H741 C733 0.960 . S
H742 C734 0.930 . S
H743 C735 0.929 . S
H744 C752 0.929 . S
H745 C754 0.930 . S
H746 C756 0.930 . S
H747 C759 0.929 . S
H748 C762 0.930 . S
H749 C764 0.960 . S
H750 C764 0.960 . S
H751 C764 0.960 . S
C752 H744 0.929 . S
C752 C753 1.377 . S
C752 C754 1.384 . S
C753 C752 1.377 . S
C753 C759 1.390 . S
C754 H745 0.930 . S
C754 C752 1.384 . S
C754 C755 1.372 . S
C755 C754 1.372 . S
C755 C756 1.400 . S
C755 C760 1.490 . S
C756 H746 0.930 . S
C756 C755 1.400 . S
C756 C759 1.386 . S
H757 C773 0.930 . S
H758 C774 0.931 . S
C759 H747 0.929 . S
C759 C753 1.390 . S
C759 C756 1.386 . S
C760 C755 1.490 . S
C760 C762 1.395 . S
C760 C763 1.403 . S
H761 C767 0.930 . S
C762 H748 0.930 . S
C762 C760 1.395 . S
C762 C765 1.403 1_455 S
C763 C760 1.403 . S
C763 C764 1.524 . S
C763 C767 1.400 1_455 S
C764 H749 0.960 . S
C764 H750 0.960 . S
C764 H751 0.960 . S
C764 C763 1.524 . S
C765 C762 1.403 1_655 S
C765 C766 1.392 . S
C765 C769 1.495 . S
C766 C765 1.392 . S
C766 C767 1.385 . S
C766 C768 1.478 . S
C767 H761 0.930 . S
C767 C763 1.400 1_655 S
C767 C766 1.385 . S
C768 C766 1.478 . S
C768 C770 1.381 . S
C768 C774 1.383 . S
C769 C765 1.495 . S
C769 H775 0.959 . S
C769 H776 0.961 . S
C769 H777 0.960 . S
C770 C768 1.381 . S
C770 C771 1.394 . S
C770 H778 0.930 . S
C771 C770 1.394 . S
C771 C772 1.383 . S
C771 H779 0.929 . S
C772 C771 1.383 . S
C772 C773 1.377 . S
C773 H757 0.930 . S
C773 C772 1.377 . S
C773 C774 1.379 . S
C774 H758 0.931 . S
C774 C768 1.383 . S
C774 C773 1.379 . S
H775 C769 0.959 . S
H776 C769 0.961 . S
H777 C769 0.960 . S
H778 C770 0.930 . S
H779 C771 0.929 . S
H780 C788 0.929 . S
H781 C790 0.930 . S
H782 C792 0.930 . S
H783 C795 0.929 . S
H784 C798 0.930 . S
H785 C800 0.960 . S
H786 C800 0.960 . S
H787 C800 0.960 . S
C788 H780 0.929 . S
C788 C789 1.377 . S
C788 C790 1.384 . S
C789 C788 1.377 . S
C789 C795 1.390 . S
C790 H781 0.930 . S
C790 C788 1.384 . S
C790 C791 1.372 . S
C791 C790 1.372 . S
C791 C792 1.400 . S
C791 C796 1.490 . S
C792 H782 0.930 . S
C792 C791 1.400 . S
C792 C795 1.386 . S
H793 C809 0.930 . S
H794 C810 0.931 . S
C795 H783 0.929 . S
C795 C789 1.390 . S
C795 C792 1.386 . S
C796 C791 1.490 . S
C796 C798 1.395 . S
C796 C799 1.403 . S
H797 C803 0.930 . S
C798 H784 0.930 . S
C798 C796 1.395 . S
C798 C801 1.403 1_565 S
C799 C796 1.403 . S
C799 C800 1.524 . S
C799 C803 1.400 1_565 S
C800 H785 0.960 . S
C800 H786 0.960 . S
C800 H787 0.960 . S
C800 C799 1.524 . S
C801 C798 1.403 1_545 S
C801 C802 1.392 . S
C801 C805 1.495 . S
C802 C801 1.392 . S
C802 C803 1.385 . S
C802 C804 1.478 . S
C803 H797 0.930 . S
C803 C799 1.400 1_545 S
C803 C802 1.385 . S
C804 C802 1.478 . S
C804 C806 1.381 . S
C804 C810 1.383 . S
C805 C801 1.495 . S
C805 H811 0.959 . S
C805 H812 0.961 . S
C805 H813 0.960 . S
C806 C804 1.381 . S
C806 C807 1.394 . S
C806 H814 0.930 . S
C807 C806 1.394 . S
C807 C808 1.383 . S
C807 H815 0.929 . S
C808 C807 1.383 . S
C808 C809 1.377 . S
C809 H793 0.930 . S
C809 C808 1.377 . S
C809 C810 1.379 . S
C810 H794 0.931 . S
C810 C804 1.383 . S
C810 C809 1.379 . S
H811 C805 0.959 . S
H812 C805 0.961 . S
H813 C805 0.960 . S
H814 C806 0.930 . S
H815 C807 0.929 . S
H816 C824 0.929 . S
H817 C826 0.930 . S
H818 C828 0.930 . S
H819 C831 0.929 . S
H820 C834 0.930 . S
H821 C836 0.960 . S
H822 C836 0.960 . S
H823 C836 0.960 . S
C824 H816 0.929 . S
C824 C825 1.377 . S
C824 C826 1.384 . S
C825 C824 1.377 . S
C825 C831 1.390 . S
C826 H817 0.930 . S
C826 C824 1.384 . S
C826 C827 1.372 . S
C827 C826 1.372 . S
C827 C828 1.400 . S
C827 C832 1.490 . S
C828 H818 0.930 . S
C828 C827 1.400 . S
C828 C831 1.386 . S
H829 C845 0.930 . S
H830 C846 0.931 . S
C831 H819 0.929 . S
C831 C825 1.390 . S
C831 C828 1.386 . S
C832 C827 1.490 . S
C832 C834 1.395 . S
C832 C835 1.403 . S
H833 C839 0.930 . S
C834 H820 0.930 . S
C834 C832 1.395 . S
C834 C837 1.403 . S
C835 C832 1.403 . S
C835 C836 1.524 . S
C835 C839 1.400 . S
C836 H821 0.960 . S
C836 H822 0.960 . S
C836 H823 0.960 . S
C836 C835 1.524 . S
C837 C834 1.403 . S
C837 C838 1.392 . S
C837 C841 1.495 . S
C838 C837 1.392 . S
C838 C839 1.385 . S
C838 C840 1.478 . S
C839 H833 0.930 . S
C839 C835 1.400 . S
C839 C838 1.385 . S
C840 C838 1.478 . S
C840 C842 1.381 . S
C840 C846 1.383 . S
C841 C837 1.495 . S
C841 H847 0.959 . S
C841 H848 0.961 . S
C841 H849 0.960 . S
C842 C840 1.381 . S
C842 C843 1.394 . S
C842 H850 0.930 . S
C843 C842 1.394 . S
C843 C844 1.383 . S
C843 H851 0.929 . S
C844 C843 1.383 . S
C844 C845 1.377 . S
C845 H829 0.930 . S
C845 C844 1.377 . S
C845 C846 1.379 . S
C846 H830 0.931 . S
C846 C840 1.383 . S
C846 C845 1.379 . S
H847 C841 0.959 . S
H848 C841 0.961 . S
H849 C841 0.960 . S
H850 C842 0.930 . S
H851 C843 0.929 . S
H852 C860 0.929 . S
H853 C862 0.930 . S
H854 C864 0.930 . S
H855 C867 0.929 . S
H856 C870 0.930 . S
H857 C872 0.960 . S
H858 C872 0.960 . S
H859 C872 0.960 . S
C860 H852 0.929 . S
C860 C861 1.377 . S
C860 C862 1.384 . S
C861 C860 1.377 . S
C861 C867 1.390 . S
C862 H853 0.930 . S
C862 C860 1.384 . S
C862 C863 1.372 . S
C863 C862 1.372 . S
C863 C864 1.400 . S
C863 C868 1.490 . S
C864 H854 0.930 . S
C864 C863 1.400 . S
C864 C867 1.386 . S
H865 C881 0.930 . S
H866 C882 0.931 . S
C867 H855 0.929 . S
C867 C861 1.390 . S
C867 C864 1.386 . S
C868 C863 1.490 . S
C868 C870 1.395 . S
C868 C871 1.403 . S
H869 C875 0.930 . S
C870 H856 0.930 . S
C870 C868 1.395 . S
C870 C873 1.403 . S
C871 C868 1.403 . S
C871 C872 1.524 . S
C871 C875 1.400 . S
C872 H857 0.960 . S
C872 H858 0.960 . S
C872 H859 0.960 . S
C872 C871 1.524 . S
C873 C870 1.403 . S
C873 C874 1.392 . S
C873 C877 1.495 . S
C874 C873 1.392 . S
C874 C875 1.385 . S
C874 C876 1.478 . S
C875 H869 0.930 . S
C875 C871 1.400 . S
C875 C874 1.385 . S
C876 C874 1.478 . S
C876 C878 1.381 . S
C876 C882 1.383 . S
C877 C873 1.495 . S
C877 H883 0.959 . S
C877 H884 0.961 . S
C877 H885 0.960 . S
C878 C876 1.381 . S
C878 C879 1.394 . S
C878 H886 0.930 . S
C879 C878 1.394 . S
C879 C880 1.383 . S
C879 H887 0.929 . S
C880 C879 1.383 . S
C880 C881 1.377 . S
C881 H865 0.930 . S
C881 C880 1.377 . S
C881 C882 1.379 . S
C882 H866 0.931 . S
C882 C876 1.383 . S
C882 C881 1.379 . S
H883 C877 0.959 . S
H884 C877 0.961 . S
H885 C877 0.960 . S
H886 C878 0.930 . S
H887 C879 0.929 . S
H888 C896 0.929 . S
H889 C898 0.930 . S
H890 C900 0.930 . S
H891 C903 0.929 . S
H892 C906 0.930 . S
H893 C908 0.960 . S
H894 C908 0.960 . S
H895 C908 0.960 . S
C896 H888 0.929 . S
C896 C897 1.377 . S
C896 C898 1.384 . S
C897 C896 1.377 . S
C897 C903 1.390 . S
C898 H889 0.930 . S
C898 C896 1.384 . S
C898 C899 1.372 . S
C899 C898 1.372 . S
C899 C900 1.400 . S
C899 C904 1.490 . S
C900 H890 0.930 . S
C900 C899 1.400 . S
C900 C903 1.386 . S
H901 C917 0.930 . S
H902 C918 0.931 . S
C903 H891 0.929 . S
C903 C897 1.390 . S
C903 C900 1.386 . S
C904 C899 1.490 . S
C904 C906 1.395 . S
C904 C907 1.403 . S
H905 C911 0.930 . S
C906 H892 0.930 . S
C906 C904 1.395 . S
C906 C909 1.403 . S
C907 C904 1.403 . S
C907 C908 1.524 . S
C907 C911 1.400 . S
C908 H893 0.960 . S
C908 H894 0.960 . S
C908 H895 0.960 . S
C908 C907 1.524 . S
C909 C906 1.403 . S
C909 C910 1.392 . S
C909 C913 1.495 . S
C910 C909 1.392 . S
C910 C911 1.385 . S
C910 C912 1.478 . S
C911 H905 0.930 . S
C911 C907 1.400 . S
C911 C910 1.385 . S
C912 C910 1.478 . S
C912 C914 1.381 . S
C912 C918 1.383 . S
C913 C909 1.495 . S
C913 H919 0.959 . S
C913 H920 0.961 . S
C913 H921 0.960 . S
C914 C912 1.381 . S
C914 C915 1.394 . S
C914 H922 0.930 . S
C915 C914 1.394 . S
C915 C916 1.383 . S
C915 H923 0.929 . S
C916 C915 1.383 . S
C916 C917 1.377 . S
C917 H901 0.930 . S
C917 C916 1.377 . S
C917 C918 1.379 . S
C918 H902 0.931 . S
C918 C912 1.383 . S
C918 C917 1.379 . S
H919 C913 0.959 . S
H920 C913 0.961 . S
H921 C913 0.960 . S
H922 C914 0.930 . S
H923 C915 0.929 . S
H924 C932 0.929 . S
H925 C934 0.930 . S
H926 C936 0.930 . S
H927 C939 0.929 . S
H928 C942 0.930 . S
H929 C944 0.960 . S
H930 C944 0.960 . S
H931 C944 0.960 . S
C932 H924 0.929 . S
C932 C933 1.377 . S
C932 C934 1.384 . S
C933 C932 1.377 . S
C933 C939 1.390 . S
C934 H925 0.930 . S
C934 C932 1.384 . S
C934 C935 1.372 . S
C935 C934 1.372 . S
C935 C936 1.400 . S
C935 C940 1.490 . S
C936 H926 0.930 . S
C936 C935 1.400 . S
C936 C939 1.386 . S
H937 C953 0.930 . S
H938 C954 0.931 . S
C939 H927 0.929 . S
C939 C933 1.390 . S
C939 C936 1.386 . S
C940 C935 1.490 . S
C940 C942 1.395 . S
C940 C943 1.403 . S
H941 C947 0.930 . S
C942 H928 0.930 . S
C942 C940 1.395 . S
C942 C945 1.403 . S
C943 C940 1.403 . S
C943 C944 1.524 . S
C943 C947 1.400 . S
C944 H929 0.960 . S
C944 H930 0.960 . S
C944 H931 0.960 . S
C944 C943 1.524 . S
C945 C942 1.403 . S
C945 C946 1.392 . S
C945 C949 1.495 . S
C946 C945 1.392 . S
C946 C947 1.385 . S
C946 C948 1.478 . S
C947 H941 0.930 . S
C947 C943 1.400 . S
C947 C946 1.385 . S
C948 C946 1.478 . S
C948 C950 1.381 . S
C948 C954 1.383 . S
C949 C945 1.495 . S
C949 H955 0.959 . S
C949 H956 0.961 . S
C949 H957 0.960 . S
C950 C948 1.381 . S
C950 C951 1.394 . S
C950 H958 0.930 . S
C951 C950 1.394 . S
C951 C952 1.383 . S
C951 H959 0.929 . S
C952 C951 1.383 . S
C952 C953 1.377 . S
C953 H937 0.930 . S
C953 C952 1.377 . S
C953 C954 1.379 . S
C954 H938 0.931 . S
C954 C948 1.383 . S
C954 C953 1.379 . S
H955 C949 0.959 . S
H956 C949 0.961 . S
H957 C949 0.960 . S
H958 C950 0.930 . S
H959 C951 0.929 . S
H960 C968 0.929 . S
H961 C970 0.930 . S
H962 C972 0.930 . S
H963 C975 0.929 . S
H964 C978 0.930 . S
H965 C980 0.960 . S
H966 C980 0.960 . S
H967 C980 0.960 . S
C968 H960 0.929 . S
C968 C969 1.377 . S
C968 C970 1.384 . S
C969 C968 1.377 . S
C969 C975 1.390 . S
C970 H961 0.930 . S
C970 C968 1.384 . S
C970 C971 1.372 . S
C971 C970 1.372 . S
C971 C972 1.400 . S
C971 C976 1.490 . S
C972 H962 0.930 . S
C972 C971 1.400 . S
C972 C975 1.386 . S
H973 C989 0.930 . S
H974 C990 0.931 . S
C975 H963 0.929 . S
C975 C969 1.390 . S
C975 C972 1.386 . S
C976 C971 1.490 . S
C976 C978 1.395 . S
C976 C979 1.403 . S
H977 C983 0.930 . S
C978 H964 0.930 . S
C978 C976 1.395 . S
C978 C981 1.403 . S
C979 C976 1.403 . S
C979 C980 1.524 . S
C979 C983 1.400 . S
C980 H965 0.960 . S
C980 H966 0.960 . S
C980 H967 0.960 . S
C980 C979 1.524 . S
C981 C978 1.403 . S
C981 C982 1.392 . S
C981 C985 1.495 . S
C982 C981 1.392 . S
C982 C983 1.385 . S
C982 C984 1.478 . S
C983 H977 0.930 . S
C983 C979 1.400 . S
C983 C982 1.385 . S
C984 C982 1.478 . S
C984 C986 1.381 . S
C984 C990 1.383 . S
C985 C981 1.495 . S
C985 H991 0.959 . S
C985 H992 0.961 . S
C985 H993 0.960 . S
C986 C984 1.381 . S
C986 C987 1.394 . S
C986 H994 0.930 . S
C987 C986 1.394 . S
C987 C988 1.383 . S
C987 H995 0.929 . S
C988 C987 1.383 . S
C988 C989 1.377 . S
C989 H973 0.930 . S
C989 C988 1.377 . S
C989 C990 1.379 . S
C990 H974 0.931 . S
C990 C984 1.383 . S
C990 C989 1.379 . S
H991 C985 0.959 . S
H992 C985 0.961 . S
H993 C985 0.960 . S
H994 C986 0.930 . S
H995 C987 0.929 . S
H996 C1004 0.929 . S
H997 C1006 0.930 . S
H998 C1008 0.930 . S
H999 C1011 0.929 . S
H1000 C1014 0.930 . S
H1001 C1016 0.960 . S
H1002 C1016 0.960 . S
H1003 C1016 0.960 . S
C1004 H996 0.929 . S
C1004 C1005 1.377 . S
C1004 C1006 1.384 . S
C1005 C1004 1.377 . S
C1005 C1011 1.390 . S
C1006 H997 0.930 . S
C1006 C1004 1.384 . S
C1006 C1007 1.372 . S
C1007 C1006 1.372 . S
C1007 C1008 1.400 . S
C1007 C1012 1.490 . S
C1008 H998 0.930 . S
C1008 C1007 1.400 . S
C1008 C1011 1.386 . S
H1009 C1025 0.930 . S
H1010 C1026 0.931 . S
C1011 H999 0.929 . S
C1011 C1005 1.390 . S
C1011 C1008 1.386 . S
C1012 C1007 1.490 . S
C1012 C1014 1.395 . S
C1012 C1015 1.403 . S
H1013 C1019 0.930 . S
C1014 H1000 0.930 . S
C1014 C1012 1.395 . S
C1014 C1017 1.403 . S
C1015 C1012 1.403 . S
C1015 C1016 1.524 . S
C1015 C1019 1.400 . S
C1016 H1001 0.960 . S
C1016 H1002 0.960 . S
C1016 H1003 0.960 . S
C1016 C1015 1.524 . S
C1017 C1014 1.403 . S
C1017 C1018 1.392 . S
C1017 C1021 1.495 . S
C1018 C1017 1.392 . S
C1018 C1019 1.385 . S
C1018 C1020 1.478 . S
C1019 H1013 0.930 . S
C1019 C1015 1.400 . S
C1019 C1018 1.385 . S
C1020 C1018 1.478 . S
C1020 C1022 1.381 . S
C1020 C1026 1.383 . S
C1021 C1017 1.495 . S
C1021 H1027 0.959 . S
C1021 H1028 0.961 . S
C1021 H1029 0.960 . S
C1022 C1020 1.381 . S
C1022 C1023 1.394 . S
C1022 H1030 0.930 . S
C1023 C1022 1.394 . S
C1023 C1024 1.383 . S
C1023 H1031 0.929 . S
C1024 C1023 1.383 . S
C1024 C1025 1.377 . S
C1025 H1009 0.930 . S
C1025 C1024 1.377 . S
C1025 C1026 1.379 . S
C1026 H1010 0.931 . S
C1026 C1020 1.383 . S
C1026 C1025 1.379 . S
H1027 C1021 0.959 . S
H1028 C1021 0.961 . S
H1029 C1021 0.960 . S
H1030 C1022 0.930 . S
H1031 C1023 0.929 . S
C177 C12 1.732 . S
C196 C85 1.726 . S
C213 C15 1.731 . S
C232 C98 1.724 . S
C249 C28 1.732 . S
C268 C125 1.732 . S
C285 C43 1.733 . S
C304 C138 1.734 . S
C321 C56 1.732 . S
C340 C140 1.730 . S
C357 C155 1.732 . S
C376 C70 1.732 . S
C393 C0 1.839 . S
C412 C152 1.836 . S
C429 C27 1.840 . S
C448 C167 1.826 . S
C465 C40 1.840 . S
C484 C97 1.843 . S
C501 C55 1.841 . S
C520 C110 1.841 . S
C537 C68 1.841 . S
C556 C113 1.846 . S
C573 C82 1.842 . S
C592 C126 1.830 . S
C609 C1 1.818 . S
C628 C54 1.820 . S
C645 C26 1.816 . S
C664 C69 1.805 . S
C681 C83 1.813 . S
C700 C41 1.800 . S
C717 C96 1.821 . S
C736 C127 1.826 . S
C753 C153 1.813 . S
C772 C111 1.798 . S
C789 C112 1.816 . S
C808 C166 1.802 . S
C825 C84 0.975 . S
C844 C13 0.981 1_556 S
C861 C14 0.970 . S
C880 C99 0.959 1_554 S
C897 C29 0.972 . S
C916 C124 0.970 . S
C933 C139 0.975 . S
C952 C42 0.982 1_556 S
C969 C141 0.970 1_554 S
C988 C57 0.959 . S
C1005 C71 0.972 . S
C1024 C154 0.966 . S
