# Generated by pormake.
# Topology wjg, (4)-cn, num edge types: 1
# Building blocks:
#     Node 0, Type 0, BuildingBlock: KUFVIS_clean_sbu_0, # of connection points: 4
#     Node 1, Type 0, BuildingBlock: KUFVIS_clean_sbu_0, # of connection points: 4
#     Node 2, Type 0, BuildingBlock: KUFVIS_clean_sbu_0, # of connection points: 4
#     Node 3, Type 0, BuildingBlock: KUFVIS_clean_sbu_0, # of connection points: 4
#     Node 4, Type 0, BuildingBlock: KUFVIS_clean_sbu_0, # of connection points: 4
#     Node 5, Type 0, BuildingBlock: KUFVIS_clean_sbu_0, # of connection points: 4
#     Node 6, Type 0, BuildingBlock: KUFVIS_clean_sbu_0, # of connection points: 4
#     Node 7, Type 0, BuildingBlock: KUFVIS_clean_sbu_0, # of connection points: 4
#     Node 8, Type 0, BuildingBlock: KUFVIS_clean_sbu_0, # of connection points: 4
#     Node 9, Type 0, BuildingBlock: KUFVIS_clean_sbu_0, # of connection points: 4
#     Node 10, Type 0, BuildingBlock: KUFVIS_clean_sbu_0, # of connection points: 4
#     Node 11, Type 0, BuildingBlock: KUFVIS_clean_sbu_0, # of connection points: 4
#     Edge 12, Type (0, 0), BuildingBlock: XIVTED_clean_linker_0, # of connection points: 2
#     Edge 13, Type (0, 0), BuildingBlock: XIVTED_clean_linker_0, # of connection points: 2
#     Edge 14, Type (0, 0), BuildingBlock: XIVTED_clean_linker_0, # of connection points: 2
#     Edge 15, Type (0, 0), BuildingBlock: XIVTED_clean_linker_0, # of connection points: 2
#     Edge 16, Type (0, 0), BuildingBlock: XIVTED_clean_linker_0, # of connection points: 2
#     Edge 17, Type (0, 0), BuildingBlock: XIVTED_clean_linker_0, # of connection points: 2
#     Edge 18, Type (0, 0), BuildingBlock: XIVTED_clean_linker_0, # of connection points: 2
#     Edge 19, Type (0, 0), BuildingBlock: XIVTED_clean_linker_0, # of connection points: 2
#     Edge 20, Type (0, 0), BuildingBlock: XIVTED_clean_linker_0, # of connection points: 2
#     Edge 21, Type (0, 0), BuildingBlock: XIVTED_clean_linker_0, # of connection points: 2
#     Edge 22, Type (0, 0), BuildingBlock: XIVTED_clean_linker_0, # of connection points: 2
#     Edge 23, Type (0, 0), BuildingBlock: XIVTED_clean_linker_0, # of connection points: 2
#     Edge 24, Type (0, 0), BuildingBlock: XIVTED_clean_linker_0, # of connection points: 2
#     Edge 25, Type (0, 0), BuildingBlock: XIVTED_clean_linker_0, # of connection points: 2
#     Edge 26, Type (0, 0), BuildingBlock: XIVTED_clean_linker_0, # of connection points: 2
#     Edge 27, Type (0, 0), BuildingBlock: XIVTED_clean_linker_0, # of connection points: 2
#     Edge 28, Type (0, 0), BuildingBlock: XIVTED_clean_linker_0, # of connection points: 2
#     Edge 29, Type (0, 0), BuildingBlock: XIVTED_clean_linker_0, # of connection points: 2
#     Edge 30, Type (0, 0), BuildingBlock: XIVTED_clean_linker_0, # of connection points: 2
#     Edge 31, Type (0, 0), BuildingBlock: XIVTED_clean_linker_0, # of connection points: 2
#     Edge 32, Type (0, 0), BuildingBlock: XIVTED_clean_linker_0, # of connection points: 2
#     Edge 33, Type (0, 0), BuildingBlock: XIVTED_clean_linker_0, # of connection points: 2
#     Edge 34, Type (0, 0), BuildingBlock: XIVTED_clean_linker_0, # of connection points: 2
#     Edge 35, Type (0, 0), BuildingBlock: XIVTED_clean_linker_0, # of connection points: 2
# Relax obj value: 0.318
# Max RMSD: 0.127
# Mean RMSD: 0.118
data_MOF--net-wjg--node1-KUFVIS_clean_sbu_0--edge1-XIVTED_clean_linker_0
_symmetry_space_group_name_H-M    P1
_symmetry_Int_Tables_number       1
_symmetry_cell_setting            triclinic
loop_
_symmetry_equiv_pos_as_xyz
'x, y, z'
_cell_length_a     31.204539
_cell_length_b     31.075143
_cell_length_c     40.31984
_cell_angle_alpha  89.8507
_cell_angle_beta   90.078747
_cell_angle_gamma 120.07307
loop_
_atom_site_label
_atom_site_type_symbol
_atom_site_fract_x
_atom_site_fract_y
_atom_site_fract_z
_atom_type_partial_charge
Mn0 Mn 0.14053 0.42903 0.32937 0.0
Mn1 Mn 0.25339 0.48125 0.36593 0.0
C2 C 0.18191 0.38418 0.33402 0.0
C3 C 0.09146 0.41398 0.28154 0.0
C4 C 0.15847 0.43792 0.40471 0.0
O5 O 0.16191 0.50325 0.32945 0.0
O6 O 0.23641 0.53226 0.35364 0.0
C7 C 0.3136 0.53676 0.3078 0.0
N8 N 0.30351 0.50355 0.33286 0.0
C9 C 0.37487 0.49687 0.31994 0.0
C10 C 0.38626 0.53097 0.29391 0.0
C11 C 0.35538 0.55092 0.28777 0.0
C12 C 0.33276 0.48398 0.33889 0.0
H13 H 0.29012 0.55247 0.30328 0.0
C14 C 0.20252 0.53855 0.3409 0.0
O15 O 0.07346 0.41049 0.31111 0.0
O16 O 0.13799 0.42745 0.27984 0.0
N17 N 0.27586 0.4373 0.37993 0.0
C18 C 0.2586 0.40333 0.40507 0.0
C19 C 0.28489 0.37936 0.41407 0.0
C20 C 0.32925 0.39155 0.39772 0.0
C21 C 0.34655 0.42726 0.37233 0.0
C22 C 0.31857 0.44949 0.36419 0.0
H23 H 0.22503 0.39455 0.4181 0.0
O24 O 0.13437 0.36173 0.32964 0.0
O25 O 0.20446 0.43256 0.33499 0.0
O26 O 0.12806 0.42451 0.38035 0.0
O27 O 0.20518 0.45925 0.40155 0.0
C28 C 0.3902 0.44128 0.35454 0.0
C29 C 0.40387 0.47546 0.328 0.0
H30 H 0.4187 0.54221 0.2786 0.0
H31 H 0.36394 0.57739 0.26783 0.0
H32 H 0.27123 0.35191 0.43374 0.0
H33 H 0.34955 0.37308 0.40471 0.0
H34 H 0.41298 0.42551 0.36116 0.0
H35 H 0.43658 0.48516 0.31365 0.0
Mn36 Mn 0.74845 0.11096 0.66595 0.0
Mn37 Mn 0.80773 0.23358 0.70005 0.0
C38 C 0.83625 0.16482 0.65931 0.0
C39 C 0.70727 0.0706 0.61708 0.0
C40 C 0.76922 0.13239 0.72757 0.0
O41 O 0.69572 0.13164 0.67768 0.0
O42 O 0.74501 0.21657 0.67666 0.0
C43 C 0.78758 0.31546 0.70984 0.0
N44 N 0.81706 0.29545 0.71543 0.0
C45 C 0.86705 0.35987 0.75413 0.0
C46 C 0.83693 0.38073 0.74904 0.0
C47 C 0.79736 0.35891 0.72657 0.0
C48 C 0.85591 0.31684 0.73646 0.0
H49 H 0.75625 0.29782 0.69326 0.0
C50 C 0.70233 0.17628 0.6768 0.0
O51 O 0.69936 0.04655 0.64487 0.0
O52 O 0.7379 0.11807 0.61795 0.0
N53 N 0.86636 0.24904 0.72545 0.0
C54 C 0.88735 0.22047 0.73198 0.0
C55 C 0.92711 0.23733 0.75422 0.0
C56 C 0.94389 0.28252 0.77083 0.0
C57 C 0.92089 0.31057 0.76486 0.0
C58 C 0.88219 0.29258 0.74164 0.0
H59 H 0.87293 0.18411 0.72126 0.0
O60 O 0.81537 0.11759 0.65256 0.0
O61 O 0.80671 0.17709 0.674 0.0
O62 O 0.75045 0.08923 0.71593 0.0
O63 O 0.78224 0.16416 0.70455 0.0
C64 C 0.93347 0.35457 0.78226 0.0
C65 C 0.90641 0.3791 0.77701 0.0
H66 H 0.84316 0.41268 0.76301 0.0
H67 H 0.77385 0.37488 0.72276 0.0
H68 H 0.94385 0.21479 0.75928 0.0
H69 H 0.9738 0.29482 0.78861 0.0
H70 H 0.96313 0.3692 0.80035 0.0
H71 H 0.91573 0.41237 0.79103 0.0
Mn72 Mn 0.56742 0.73868 0.97896 0.0
Mn73 Mn 0.50986 0.79741 0.00869 0.0
C74 C 0.60919 0.82525 0.97795 0.0
C75 C 0.5786 0.69634 0.93476 0.0
C76 C 0.55663 0.75285 0.05208 0.0
O77 O 0.49468 0.68331 0.98502 0.0
O78 O 0.45993 0.73077 0.99325 0.0
C79 C 0.46503 0.80825 0.94697 0.0
N80 N 0.49389 0.82887 0.97425 0.0
C81 C 0.50574 0.90933 0.96098 0.0
C82 C 0.47635 0.88924 0.93257 0.0
C83 C 0.45594 0.83845 0.92552 0.0
C84 C 0.51404 0.87767 0.98111 0.0
H85 H 0.44908 0.7691 0.94171 0.0
C86 C 0.45703 0.68891 0.98823 0.0
O87 O 0.58664 0.6889 0.9653 0.0
O88 O 0.56309 0.72756 0.93 0.0
N89 N 0.55287 0.86279 0.0253 0.0
C90 C 0.58237 0.87709 0.05275 0.0
C91 C 0.60574 0.92681 0.06312 0.0
C92 C 0.59751 0.96111 0.0457 0.0
C93 C 0.5663 0.9453 0.01793 0.0
C94 C 0.54442 0.89543 0.00855 0.0
H95 H 0.58793 0.85092 0.06682 0.0
O96 O 0.63277 0.80124 0.97348 0.0
O97 O 0.56123 0.79776 0.98053 0.0
O98 O 0.57905 0.74297 0.02949 0.0
O99 O 0.52545 0.76702 0.04604 0.0
C100 C 0.5562 0.97717 0.99911 0.0
C101 C 0.52654 0.95937 0.97038 0.0
H102 H 0.46899 0.91243 0.91614 0.0
H103 H 0.43304 0.82259 0.90376 0.0
H104 H 0.62956 0.93851 0.08471 0.0
H105 H 0.61543 -0.00052 0.05378 0.0
H106 H 0.57135 0.01531 1.00679 0.0
H107 H 0.51884 0.98391 0.95584 0.0
Mn108 Mn 0.84827 0.56452 0.33023 0.0
Mn109 Mn 0.73643 0.51153 0.36806 0.0
C110 C 0.80714 0.60949 0.3366 0.0
C111 C 0.89549 0.58036 0.28138 0.0
C112 C 0.83226 0.55272 0.40569 0.0
O113 O 0.8267 0.49014 0.32948 0.0
O114 O 0.75239 0.46064 0.354 0.0
C115 C 0.67487 0.45907 0.30984 0.0
N116 N 0.6857 0.49111 0.33564 0.0
C117 C 0.6144 0.49883 0.32483 0.0
C118 C 0.60225 0.46602 0.29802 0.0
C119 C 0.63275 0.44614 0.29043 0.0
C120 C 0.65696 0.51076 0.34297 0.0
H121 H 0.69805 0.44338 0.30425 0.0
C122 C 0.786 0.45455 0.34069 0.0
O123 O 0.91476 0.58353 0.3105 0.0
O124 O 0.84892 0.56686 0.28075 0.0
N125 N 0.71505 0.55545 0.38381 0.0
C126 C 0.73319 0.5883 0.40947 0.0
C127 C 0.70733 0.61198 0.41996 0.0
C128 C 0.66255 0.60068 0.40451 0.0
C129 C 0.6445 0.56634 0.3784 0.0
C130 C 0.67205 0.54426 0.36883 0.0
H131 H 0.76704 0.59626 0.42187 0.0
O132 O 0.85451 0.63192 0.33152 0.0
O133 O 0.78467 0.56111 0.33724 0.0
O134 O 0.86219 0.56786 0.38101 0.0
O135 O 0.78548 0.53145 0.40305 0.0
C136 C 0.6003 0.55314 0.36141 0.0
C137 C 0.58567 0.51975 0.33449 0.0
H138 H 0.56953 0.45572 0.2832 0.0
H139 H 0.6236 0.42066 0.26988 0.0
H140 H 0.72155 0.6384 0.44015 0.0
H141 H 0.64243 0.61866 0.41286 0.0
H142 H 0.57767 0.56878 0.3688 0.0
H143 H 0.55228 0.51014 0.32114 0.0
Mn144 Mn 0.26546 0.86228 0.66474 0.0
Mn145 Mn 0.24809 0.7583 0.70374 0.0
C146 C 0.18599 0.79369 0.66802 0.0
C147 C 0.2906 0.90966 0.61585 0.0
C148 C 0.25394 0.84644 0.74 0.0
O149 O 0.33654 0.87633 0.67192 0.0
O150 O 0.31744 0.80149 0.69183 0.0
C151 C 0.27201 0.71532 0.64612 0.0
N152 N 0.24009 0.71105 0.67064 0.0
C153 C 0.18357 0.62604 0.65619 0.0
C154 C 0.2157 0.62941 0.63075 0.0
C155 C 0.26006 0.67437 0.6256 0.0
C156 C 0.19679 0.6685 0.67523 0.0
H157 H 0.30639 0.74963 0.64233 0.0
C158 C 0.34856 0.84494 0.68182 0.0
O159 O 0.29237 0.93005 0.64433 0.0
O160 O 0.27433 0.86228 0.61599 0.0
N161 N 0.183 0.71057 0.71793 0.0
C162 C 0.16035 0.71129 0.74667 0.0
C163 C 0.11907 0.66761 0.75808 0.0
C164 C 0.10243 0.6233 0.74046 0.0
C165 C 0.12573 0.62328 0.71075 0.0
C166 C 0.16724 0.66781 0.70087 0.0
H167 H 0.17455 0.74457 0.7614 0.0
O168 O 0.19317 0.83673 0.65869 0.0
O169 O 0.22581 0.79071 0.67208 0.0
O170 O 0.25765 0.8733 0.71468 0.0
O171 O 0.25451 0.80558 0.7383 0.0
C172 C 0.11127 0.58031 0.69159 0.0
C173 C 0.13963 0.58187 0.66398 0.0
H174 H 0.20694 0.59758 0.61529 0.0
H175 H 0.28523 0.67727 0.60614 0.0
H176 H 0.10122 0.66762 0.78104 0.0
H177 H 0.07326 0.58919 0.75098 0.0
H178 H 0.07874 0.54561 0.69804 0.0
H179 H 0.12815 0.54853 0.64953 0.0
Mn180 Mn 0.41935 0.26593 0.98383 0.0
Mn181 Mn 0.47503 0.20524 0.01404 0.0
C182 C 0.37709 0.17943 0.98164 0.0
C183 C 0.41141 0.31079 0.93966 0.0
C184 C 0.42652 0.24823 0.05703 0.0
O185 O 0.49174 0.32073 0.99146 0.0
O186 O 0.52576 0.27277 1.00046 0.0
C187 C 0.52238 0.19796 0.95256 0.0
N188 N 0.49273 0.17583 0.97931 0.0
C189 C 0.48146 0.09618 0.96445 0.0
C190 C 0.51155 0.11782 0.93651 0.0
C191 C 0.53212 0.16898 0.93054 0.0
C192 C 0.47242 0.12668 0.98512 0.0
H193 H 0.53834 0.23736 0.9481 0.0
C194 C 0.52906 0.31487 0.9956 0.0
O195 O 0.40155 0.31686 0.97001 0.0
O196 O 0.42632 0.2791 0.93506 0.0
N197 N 0.43152 0.13892 0.02905 0.0
C198 C 0.40116 0.12312 0.05606 0.0
C199 C 0.37771 0.0729 0.06547 0.0
C200 C 0.38682 0.03967 0.04759 0.0
C201 C 0.41901 0.05703 0.02034 0.0
C202 C 0.44096 0.10735 0.01194 0.0
H203 H 0.39511 0.14853 0.07054 0.0
O204 O 0.35407 0.20395 0.97681 0.0
O205 O 0.42496 0.20646 0.98518 0.0
O206 O 0.40557 0.25973 0.03418 0.0
O207 O 0.45724 0.23335 0.05147 0.0
C208 C 0.42996 0.02628 1.00107 0.0
C209 C 0.46053 0.04567 0.97284 0.0
H210 H 0.51932 0.09557 0.91959 0.0
H211 H 0.55559 0.18603 0.90916 0.0
H212 H 0.35318 0.06001 0.08669 0.0
H213 H 0.36882 0.00092 0.05492 0.0
H214 H 0.41469 0.98774 0.00794 0.0
H215 H 0.46861 0.02187 0.95789 0.0
Mn216 Mn 0.59652 0.85604 0.34711 0.0
Mn217 Mn 0.54249 0.75281 0.29939 0.0
C218 C 0.63431 0.80805 0.34098 0.0
C219 C 0.60527 0.895 0.39832 0.0
C220 C 0.60152 0.85638 0.27141 0.0
O221 O 0.52551 0.84311 0.3419 0.0
O222 O 0.49413 0.77309 0.31166 0.0
C223 C 0.47446 0.6824 0.34969 0.0
N224 N 0.51037 0.69488 0.32638 0.0
C225 C 0.50599 0.61594 0.33163 0.0
C226 C 0.4693 0.60218 0.356 0.0
C227 C 0.45343 0.63557 0.36505 0.0
C228 C 0.52608 0.66324 0.31763 0.0
H229 H 0.46201 0.70796 0.35643 0.0
C230 C 0.48993 0.80689 0.32661 0.0
O231 O 0.61709 0.91992 0.3707 0.0
O232 O 0.58757 0.8474 0.39612 0.0
N233 N 0.58381 0.72779 0.28466 0.0
C234 C 0.62245 0.74838 0.26294 0.0
C235 C 0.64346 0.72027 0.25189 0.0
C236 C 0.62367 0.6709 0.26263 0.0
C237 C 0.58345 0.65046 0.28462 0.0
C238 C 0.56448 0.68039 0.2951 0.0
H239 H 0.63715 0.78594 0.25418 0.0
O240 O 0.65942 0.85399 0.35057 0.0
O241 O 0.58714 0.79065 0.33607 0.0
O242 O 0.61365 0.8808 0.29854 0.0
O243 O 0.57465 0.80939 0.26961 0.0
C244 C 0.56179 0.6017 0.29685 0.0
C245 C 0.52363 0.58476 0.32076 0.0
H246 H 0.45314 0.56616 0.36798 0.0
H247 H 0.42495 0.62515 0.38368 0.0
H248 H 0.67448 0.73643 0.2349 0.0
H249 H 0.63983 0.64918 0.25403 0.0
H250 H 0.57493 0.57753 0.28813 0.0
H251 H 0.50852 0.54805 0.33121 0.0
Mn252 Mn 0.73907 0.5506 0.70784 0.0
Mn253 Mn 0.79807 0.48698 0.70005 0.0
C254 C 0.82536 0.59406 0.71009 0.0
C255 C 0.69534 0.57027 0.74657 0.0
C256 C 0.75537 0.51559 0.64211 0.0
O257 O 0.68463 0.47678 0.70767 0.0
O258 O 0.73298 0.44529 0.72109 0.0
C259 C 0.8128 0.4812 0.77201 0.0
N260 N 0.83134 0.49093 0.74058 0.0
C261 C 0.9133 0.51647 0.76029 0.0
C262 C 0.89505 0.50559 0.79284 0.0
C263 C 0.84466 0.48857 0.79878 0.0
C264 C 0.88008 0.50994 0.73481 0.0
H265 H 0.77408 0.46814 0.77656 0.0
C266 C 0.6905 0.44066 0.71655 0.0
O267 O 0.68807 0.57167 0.71486 0.0
O268 O 0.72719 0.55738 0.7552 0.0
N269 N 0.86247 0.52137 0.68041 0.0
C270 C 0.87495 0.53256 0.64783 0.0
C271 C 0.92407 0.55071 0.63772 0.0
C272 C 0.95966 0.55574 0.661 0.0
C273 C 0.94561 0.54243 0.69412 0.0
C274 C 0.89625 0.52466 0.70277 0.0
H275 H 0.84781 0.52734 0.6295 0.0
O276 O 0.80151 0.61817 0.70836 0.0
O277 O 0.79779 0.54643 0.71295 0.0
O278 O 0.74604 0.54613 0.65749 0.0
O279 O 0.76582 0.48523 0.65693 0.0
C280 C 0.97878 0.54596 0.71883 0.0
C281 C 0.96313 0.534 0.75206 0.0
H282 H 0.91942 0.5105 0.81344 0.0
H283 H 0.83034 0.48066 0.82384 0.0
H284 H 0.93431 0.56024 0.61198 0.0
H285 H 0.99759 0.56969 0.6532 0.0
H286 H 0.01632 0.55826 0.71211 0.0
H287 H 0.98954 0.5383 0.77106 0.0
Mn288 Mn 0.12229 0.72362 0.01375 0.0
Mn289 Mn 0.22235 0.76867 0.96308 0.0
C290 C 0.17251 0.80954 1.00654 0.0
C291 C 0.08286 0.69219 0.06518 0.0
C292 C 0.11732 0.72503 0.93817 0.0
O293 O 0.13292 0.66364 1.00749 0.0
O294 O 0.20421 0.70187 0.97857 0.0
C295 C 0.29962 0.77655 0.00933 0.0
N296 N 0.28337 0.79766 0.98663 0.0
C297 C 0.36426 0.86961 0.98171 0.0
C298 C 0.38205 0.84908 1.00527 0.0
C299 C 0.34946 0.80243 0.01932 0.0
C300 C 0.31418 0.8428 0.97342 0.0
H301 H 0.27488 0.73998 0.0193 0.0
C302 C 0.16999 0.66417 0.99355 0.0
O303 O 0.05863 0.68133 0.03746 0.0
O304 O 0.13059 0.72116 0.06319 0.0
N305 N 0.24508 0.8334 0.9452 0.0
C306 C 0.2216 0.84922 0.92419 0.0
C307 C 0.24849 0.89572 0.90863 0.0
C308 C 0.29961 0.92487 0.91417 0.0
C309 C 0.32292 0.90763 0.93584 0.0
C310 C 0.29396 0.86153 0.9512 0.0
H311 H 0.18277 0.82658 0.91947 0.0
O312 O 0.12768 0.79033 0.01791 0.0
O313 O 0.18803 0.77831 1.00103 0.0
O314 O 0.09548 0.71812 0.966 0.0
O315 O 0.16336 0.74073 0.93535 0.0
C316 C 0.37381 0.93411 0.94256 0.0
C317 C 0.39428 0.91532 0.96574 0.0
H318 H 0.42061 0.86866 0.01265 0.0
H319 H 0.36293 0.7861 0.03731 0.0
H320 H 0.23003 0.90861 0.892 0.0
H321 H 0.32056 0.96045 0.90176 0.0
H322 H 0.39723 0.96904 0.93008 0.0
H323 H 0.43296 0.93678 0.97169 0.0
Mn324 Mn 0.38983 0.13565 0.3479 0.0
Mn325 Mn 0.44383 0.23852 0.29954 0.0
C326 C 0.35176 0.18329 0.34087 0.0
C327 C 0.38039 0.0965 0.3993 0.0
C328 C 0.38587 0.13464 0.27215 0.0
O329 O 0.46117 0.149 0.34309 0.0
O330 O 0.49257 0.21935 0.31297 0.0
C331 C 0.50995 0.30996 0.3499 0.0
N332 N 0.4748 0.29686 0.32594 0.0
C333 C 0.47961 0.37616 0.32852 0.0
C334 C 0.51521 0.39045 0.35373 0.0
C335 C 0.53048 0.35719 0.36446 0.0
C336 C 0.4594 0.32825 0.31577 0.0
H337 H 0.52207 0.28452 0.35778 0.0
C338 C 0.4969 0.18565 0.32809 0.0
O339 O 0.3693 0.07186 0.37167 0.0
O340 O 0.39803 0.14412 0.39705 0.0
N341 N 0.40215 0.26252 0.28357 0.0
C342 C 0.36389 0.24115 0.2616 0.0
C343 C 0.34331 0.26895 0.24901 0.0
C344 C 0.36323 0.31882 0.25844 0.0
C345 C 0.40296 0.34003 0.28081 0.0
C346 C 0.42138 0.3103 0.29292 0.0
H347 H 0.34922 0.20326 0.25379 0.0
O348 O 0.32677 0.13745 0.35082 0.0
O349 O 0.39898 0.20086 0.33621 0.0
O350 O 0.37284 0.11051 0.29944 0.0
O351 O 0.41295 0.18158 0.27017 0.0
C352 C 0.42509 0.3895 0.29158 0.0
C353 C 0.46316 0.40737 0.31557 0.0
H354 H 0.5308 0.42664 0.36522 0.0
H355 H 0.55819 0.36806 0.38372 0.0
H356 H 0.31265 0.25219 0.23176 0.0
H357 H 0.34764 0.3404 0.24847 0.0
H358 H 0.4125 0.41369 0.28177 0.0
H359 H 0.47882 0.44481 0.32453 0.0
Mn360 Mn 0.26879 0.46357 0.70793 0.0
Mn361 Mn 0.19411 0.51133 0.69379 0.0
C362 C 0.18456 0.41042 0.70853 0.0
C363 C 0.31624 0.45162 0.74831 0.0
C364 C 0.24217 0.48368 0.63884 0.0
O365 O 0.31619 0.53835 0.70705 0.0
O366 O 0.26138 0.5651 0.70661 0.0
C367 C 0.19023 0.54345 0.76218 0.0
N368 N 0.16642 0.51619 0.73487 0.0
C369 C 0.08679 0.49177 0.75869 0.0
C370 C 0.11044 0.51957 0.78709 0.0
C371 C 0.16239 0.54532 0.7889 0.0
C372 C 0.11646 0.49052 0.73313 0.0
H373 H 0.23018 0.56393 0.76343 0.0
C374 C 0.30553 0.57276 0.70847 0.0
O375 O 0.32539 0.4511 0.71686 0.0
O376 O 0.28114 0.46043 0.75581 0.0
N377 N 0.12731 0.46574 0.68084 0.0
C378 C 0.11026 0.4442 0.65063 0.0
C379 C 0.05911 0.41821 0.64437 0.0
C380 C 0.02602 0.41592 0.66881 0.0
C381 C 0.04442 0.43967 0.6993 0.0
C382 C 0.09577 0.46457 0.70429 0.0
H383 H 0.13547 0.44699 0.63134 0.0
O384 O 0.21486 0.39345 0.70896 0.0
O385 O 0.20444 0.45856 0.71188 0.0
O386 O 0.26211 0.46389 0.65662 0.0
O387 O 0.22012 0.50557 0.65075 0.0
C388 C 0.01388 0.44054 0.72465 0.0
C389 C 0.03503 0.46635 0.7544 0.0
H390 H 0.0891 0.52177 0.80751 0.0
H391 H 0.18093 0.56704 0.81067 0.0
H392 H 0.04526 0.40044 0.62062 0.0
H393 H 0.98661 0.39617 0.6638 0.0
H394 H 0.97414 0.42203 0.72128 0.0
H395 H 0.01125 0.46716 0.77362 0.0
Mn396 Mn 0.86296 0.27992 0.01442 0.0
Mn397 Mn 0.7632 0.23854 0.96397 0.0
C398 C 0.81266 0.19458 1.00521 0.0
C399 C 0.90075 0.30769 0.06665 0.0
C400 C 0.86821 0.28399 0.93885 0.0
O401 O 0.8528 0.34042 0.00996 0.0
O402 O 0.78075 0.30393 0.9818 0.0
C403 C 0.68559 0.22637 0.01129 0.0
N404 N 0.70223 0.20721 0.98756 0.0
C405 C 0.62222 0.13427 0.98226 0.0
C406 C 0.60401 0.15278 1.00685 0.0
C407 C 0.63597 0.19896 0.02159 0.0
C408 C 0.67205 0.16256 0.97363 0.0
H409 H 0.70985 0.26254 0.02189 0.0
C410 C 0.81548 0.34075 0.99709 0.0
O411 O 0.92613 0.32048 0.03934 0.0
O412 O 0.85316 0.27898 0.06369 0.0
N413 N 0.74131 0.17527 0.94408 0.0
C414 C 0.76516 0.16142 0.92202 0.0
C415 C 0.739 0.11541 0.90589 0.0
C416 C 0.68819 0.08475 0.91191 0.0
C417 C 0.66443 0.10012 0.93449 0.0
C418 C 0.6927 0.14578 0.95041 0.0
H419 H 0.8037 0.18525 0.9168 0.0
O420 O 0.85731 0.21288 0.01672 0.0
O421 O 0.79749 0.22634 1.00078 0.0
O422 O 0.8899 0.2881 0.96649 0.0
O423 O 0.82233 0.26929 0.93635 0.0
C424 C 0.61373 0.07217 0.94162 0.0
C425 C 0.59282 0.08914 0.96564 0.0
H426 H 0.56563 0.13196 0.01454 0.0
H427 H 0.62218 0.21371 0.0404 0.0
H428 H 0.75778 0.10404 0.88847 0.0
H429 H 0.6678 0.04954 0.8991 0.0
H430 H 0.5908 0.03756 0.92875 0.0
H431 H 0.55426 0.06679 0.9717 0.0
H432 H 0.21921 0.60326 0.39058 0.0
H433 H 0.42877 0.79384 0.27522 0.0
H434 H 0.22106 0.59282 0.28426 0.0
H435 H 0.43476 0.79508 0.38189 0.0
H436 H 0.33871 0.74238 0.27775 0.0
H437 H 0.27991 0.69189 0.38693 0.0
C438 C 0.23043 0.62035 0.3663 0.0
C439 C 0.21541 0.59081 0.33767 0.0
C440 C 0.35935 0.75533 0.3007 0.0
C441 C 0.28673 0.69156 0.33334 0.0
C442 C 0.41077 0.78523 0.29924 0.0
C443 C 0.43909 0.79828 0.3284 0.0
C444 C 0.33629 0.73739 0.33154 0.0
C445 C 0.41417 0.7858 0.35886 0.0
C446 C 0.26567 0.67086 0.36423 0.0
C447 C 0.23162 0.61443 0.30688 0.0
N448 N 0.36421 0.75477 0.35966 0.0
N449 N 0.26758 0.66319 0.30556 0.0
H450 H 0.64709 0.16373 0.73143 0.0
H451 H 0.63141 0.3929 0.66409 0.0
H452 H 0.66699 0.21327 0.62994 0.0
H453 H 0.66121 0.37062 0.76504 0.0
H454 H 0.60092 0.30482 0.65293 0.0
H455 H 0.60951 0.21478 0.74362 0.0
C456 C 0.64078 0.18303 0.71127 0.0
C457 C 0.66001 0.18441 0.67965 0.0
C458 C 0.61193 0.31864 0.67794 0.0
C459 C 0.61882 0.24406 0.69355 0.0
C460 C 0.62859 0.36879 0.68447 0.0
C461 C 0.64931 0.38899 0.71543 0.0
C462 C 0.61607 0.2889 0.70265 0.0
C463 C 0.64573 0.35635 0.74078 0.0
C464 C 0.61996 0.21271 0.71832 0.0
C465 C 0.65234 0.21117 0.6546 0.0
N466 N 0.63077 0.30815 0.73363 0.0
N467 N 0.63331 0.24084 0.66222 0.0
H468 H 0.40435 0.63791 0.04191 0.0
H469 H 0.17226 0.60608 0.94458 0.0
H470 H 0.394 0.64839 0.93609 0.0
H471 H 0.19674 0.63414 0.04928 0.0
H472 H 0.23493 0.58098 0.94356 0.0
H473 H 0.31408 0.59809 0.04594 0.0
C474 C 0.38274 0.62919 0.01932 0.0
C475 C 0.40644 0.64598 0.98858 0.0
C476 C 0.22517 0.59051 0.96709 0.0
C477 C 0.30348 0.60238 0.99307 0.0
C478 C 0.18862 0.60392 0.96781 0.0
C479 C 0.17968 0.62267 0.99701 0.0
C480 C 0.25316 0.59633 0.99576 0.0
C481 C 0.20254 0.61991 0.02625 0.0
C482 C 0.33125 0.60709 0.02166 0.0
C483 C 0.37698 0.63535 0.96017 0.0
N484 N 0.23948 0.60871 0.02473 0.0
N485 N 0.32709 0.61514 0.96314 0.0
H486 H 0.55141 0.19479 0.38345 0.0
H487 H 0.76877 0.40195 0.28348 0.0
H488 H 0.55904 0.20187 0.27683 0.0
H489 H 0.76744 0.3881 0.38974 0.0
H490 H 0.70735 0.31343 0.27959 0.0
H491 H 0.64172 0.24683 0.38581 0.0
C492 C 0.57235 0.20513 0.36053 0.0
C493 C 0.5479 0.19459 0.32993 0.0
C494 C 0.72185 0.3291 0.30377 0.0
C495 C 0.6508 0.25591 0.33226 0.0
C496 C 0.75765 0.3796 0.30587 0.0
C497 C 0.7728 0.40225 0.33696 0.0
C498 C 0.70058 0.30169 0.33303 0.0
C499 C 0.75639 0.37184 0.36529 0.0
C500 C 0.62396 0.2355 0.36181 0.0
C501 C 0.57669 0.20965 0.30094 0.0
N502 N 0.72009 0.32349 0.36275 0.0
N503 N 0.62644 0.24063 0.3028 0.0
H504 H 0.41329 0.8718 0.73339 0.0
H505 H 0.37804 0.62062 0.66252 0.0
H506 H 0.40011 0.83577 0.62995 0.0
H507 H 0.32186 0.64339 0.75431 0.0
H508 H 0.42943 0.71135 0.65579 0.0
H509 H 0.43152 0.80557 0.74492 0.0
C510 C 0.41779 0.85236 0.71261 0.0
C511 C 0.39986 0.8552 0.6812 0.0
C512 C 0.4074 0.69635 0.67804 0.0
C513 C 0.4216 0.78064 0.69382 0.0
C514 C 0.37821 0.64476 0.68192 0.0
C515 C 0.34577 0.62492 0.70896 0.0
C516 C 0.4045 0.7279 0.70168 0.0
C517 C 0.34641 0.65747 0.73312 0.0
C518 C 0.42699 0.81357 0.7194 0.0
C519 C 0.40978 0.83168 0.65511 0.0
N520 N 0.37495 0.70741 0.72877 0.0
N521 N 0.41669 0.79269 0.66206 0.0
H522 H 0.81369 0.40217 0.95022 0.0
H523 H 0.58138 0.36137 0.05038 0.0
H524 H 0.78967 0.36779 0.05432 0.0
H525 H 0.5923 0.35998 0.94406 0.0
H526 H 0.67169 0.40224 0.05434 0.0
H527 H 0.75119 0.42748 0.95122 0.0
C528 C 0.79748 0.40297 0.9738 0.0
C529 C 0.80636 0.38231 1.00216 0.0
C530 C 0.65462 0.39498 0.03005 0.0
C531 C 0.73312 0.40886 1.00318 0.0
C532 C 0.6031 0.37222 0.02777 0.0
C533 C 0.57961 0.35772 0.99683 0.0
C534 C 0.68263 0.40248 1.00116 0.0
C535 C 0.60917 0.37116 0.96833 0.0
C536 C 0.76103 0.41653 0.97423 0.0
C537 C 0.7838 0.38344 0.03191 0.0
N538 N 0.65914 0.39185 0.97119 0.0
N539 N 0.74691 0.39475 0.03145 0.0
H540 H 0.26546 0.40373 0.29985 0.0
H541 H 0.26048 0.15455 0.31573 0.0
H542 H 0.15411 0.29633 0.36537 0.0
H543 H 0.38507 0.27826 0.36293 0.0
H544 H 0.21824 0.2035 0.31331 0.0
H545 H 0.30889 0.3558 0.3017 0.0
C546 C 0.25062 0.37045 0.31494 0.0
C547 C 0.20778 0.35527 0.33395 0.0
C548 C 0.25515 0.21994 0.32372 0.0
C549 C 0.25482 0.29889 0.33414 0.0
C550 C 0.27919 0.19226 0.32512 0.0
C551 C 0.32716 0.21331 0.33827 0.0
C552 C 0.27943 0.26897 0.33536 0.0
C553 C 0.3492 0.26174 0.35105 0.0
C554 C 0.275 0.343 0.31565 0.0
C555 C 0.18798 0.31004 0.35125 0.0
N556 N 0.32549 0.28842 0.34882 0.0
N557 N 0.2117 0.28331 0.35097 0.0
H558 H 0.91294 0.14546 0.65695 0.0
H559 H 0.09869 0.3865 0.74154 0.0
H560 H 0.88042 0.26501 0.65495 0.0
H561 H 0.15575 0.35309 0.65407 0.0
H562 H 0.01406 0.32693 0.72272 0.0
H563 H 0.00103 0.20714 0.66604 0.0
C564 C 0.92452 0.18464 0.65758 0.0
C565 C 0.88958 0.20034 0.65597 0.0
C566 C 0.04533 0.33261 0.70796 0.0
C567 C 0.98847 0.26967 0.66736 0.0
C568 C 0.0932 0.3669 0.71834 0.0
C569 C 0.13348 0.37621 0.69835 0.0
C570 C 0.03844 0.3059 0.67853 0.0
C571 C 0.12508 0.34787 0.66946 0.0
C572 C 0.97439 0.21952 0.66305 0.0
C573 C 0.9063 0.25151 0.65678 0.0
N574 N 0.07828 0.3137 0.66033 0.0
N575 N 0.95449 0.28441 0.66345 0.0
H576 H 0.84096 0.1334 0.9771 0.0
H577 H 0.59663 0.89384 0.94263 0.0
H578 H 0.71555 0.13228 0.02256 0.0
H579 H 0.68838 0.88081 0.01727 0.0
H580 H 0.64484 0.98527 0.94868 0.0
H581 H 0.79035 0.04285 0.969 0.0
C582 C 0.8026 0.11416 0.98495 0.0
C583 C 0.78172 0.14046 0.99938 0.0
C584 C 0.65407 0.96213 0.96371 0.0
C585 C 0.72414 0.03779 0.98995 0.0
C586 C 0.62646 0.91027 0.96054 0.0
C587 C 0.63722 0.88002 0.98066 0.0
C588 C 0.69375 0.98342 0.98611 0.0
C589 C 0.67814 0.90299 1.00203 0.0
C590 C 0.77393 0.06281 0.98025 0.0
C591 C 0.73223 0.11362 0.00994 0.0
N592 N 0.70499 0.95342 1.00426 0.0
N593 N 0.70474 0.06365 1.00466 0.0
H594 H 0.59942 0.71367 0.36463 0.0
H595 H 0.83572 0.6964 0.3691 0.0
H596 H 0.72638 0.83524 0.31764 0.0
H597 H 0.7228 0.59117 0.30363 0.0
H598 H 0.7936 0.74558 0.36945 0.0
H599 H 0.64038 0.66365 0.36133 0.0
C600 C 0.6355 0.7294 0.3531 0.0
C601 C 0.65847 0.7775 0.33968 0.0
C602 C 0.77793 0.71137 0.35536 0.0
C603 C 0.70693 0.72239 0.33856 0.0
C604 C 0.80173 0.68337 0.35517 0.0
C605 C 0.78132 0.63852 0.33753 0.0
C606 C 0.73344 0.69421 0.33792 0.0
C607 C 0.73816 0.62413 0.31894 0.0
C608 C 0.65902 0.70118 0.35169 0.0
C609 C 0.70685 0.79766 0.32731 0.0
N610 N 0.71499 0.6514 0.32008 0.0
N611 N 0.72967 0.77006 0.32714 0.0
H612 H 0.13818 0.79821 0.72178 0.0
H613 H 0.89365 0.61234 0.75825 0.0
H614 H 0.11953 0.70703 0.63689 0.0
H615 H 0.879 0.63481 0.65432 0.0
H616 H 0.98439 0.65541 0.75138 0.0
H617 H 0.05083 0.74438 0.73591 0.0
C618 C 0.11577 0.76601 0.70667 0.0
C619 C 0.13615 0.75598 0.67891 0.0
C620 C 0.96112 0.65071 0.73016 0.0
C621 C 0.03588 0.69589 0.69362 0.0
C622 C 0.90972 0.62632 0.73405 0.0
C623 C 0.87942 0.61978 0.70667 0.0
C624 C 0.98183 0.66808 0.69863 0.0
C625 C 0.90154 0.63897 0.67586 0.0
C626 C 0.06607 0.73542 0.71465 0.0
C627 C 0.10526 0.71501 0.65906 0.0
N628 N 0.95157 0.6618 0.67251 0.0
N629 N 0.05615 0.68679 0.66646 0.0
H630 H 0.39 0.11093 0.9468 0.0
H631 H 0.14307 0.8719 0.98161 0.0
H632 H 0.29627 0.12381 0.01966 0.0
H633 H 0.2702 0.87125 0.02281 0.0
H634 H 0.19357 0.96263 0.97425 0.0
H635 H 0.34125 0.0195 0.95268 0.0
C636 C 0.35957 0.09445 0.96426 0.0
C637 C 0.34848 0.12464 0.98402 0.0
C638 C 0.21036 0.94227 0.98443 0.0
C639 C 0.29121 0.02123 0.98913 0.0
C640 C 0.18175 0.89081 0.98873 0.0
C641 C 0.20313 0.86396 1.00167 0.0
C642 C 0.26063 0.96684 0.99294 0.0
C643 C 0.25307 0.89037 0.0113 0.0
C644 C 0.33164 0.04259 0.96732 0.0
C645 C 0.3068 0.10165 1.00476 0.0
N646 N 0.28052 0.94044 1.0063 0.0
N647 N 0.27959 0.05121 1.00682 0.0
H648 H 0.858 0.28649 0.12861 0.0
H649 H 0.99156 0.38059 0.2765 0.0
H650 H -0.00025 0.36681 0.07984 0.0
H651 H 0.12028 0.41749 0.21701 0.0
H652 H 0.94107 0.35596 0.22625 0.0
H653 H 0.89962 0.31224 0.18218 0.0
C654 C 0.8979 0.31001 0.12917 0.0
C655 C 0.9253 0.32451 0.09956 0.0
C656 C 0.98015 0.36879 0.224 0.0
C657 C 0.97379 0.35528 0.16123 0.0
C658 C 0.0092 0.38341 0.25285 0.0
C659 C 0.06028 0.40092 0.25112 0.0
C660 C 0.00227 0.37141 0.19304 0.0
C661 C 0.08106 0.40405 0.21968 0.0
C662 C 0.92184 0.32515 0.15994 0.0
C663 C 0.97699 0.35471 0.10193 0.0
N664 N 0.05207 0.38944 0.19205 0.0
N665 N -0.00059 0.36882 0.1321 0.0
H666 H 0.71555 0.1125 0.556 0.0
H667 H 0.58361 0.85211 0.46003 0.0
H668 H 0.64952 0.9703 0.60565 0.0
H669 H 0.64634 0.99462 0.41106 0.0
H670 H 0.6027 0.89427 0.51369 0.0
H671 H 0.68562 0.06974 0.50304 0.0
C672 C 0.69439 0.07224 0.55582 0.0
C673 C 0.68527 0.04495 0.58534 0.0
C674 C 0.61203 0.91633 0.49123 0.0
C675 C 0.65111 0.9956 0.52457 0.0
C676 C 0.60113 0.89227 0.46054 0.0
C677 C 0.61363 0.91988 0.43095 0.0
C678 C 0.63581 0.96849 0.49242 0.0
C679 C 0.63617 0.97182 0.4332 0.0
C680 C 0.67734 0.04782 0.52551 0.0
C681 C 0.65752 0.99285 0.58352 0.0
N682 N 0.64677 0.99441 0.46336 0.0
N683 N 0.64173 0.96988 0.55364 0.0
H684 H 0.61149 0.62966 0.93724 0.0
H685 H 0.64157 0.61879 0.73994 0.0
H686 H 0.56976 0.70833 0.86797 0.0
H687 H 0.69247 0.55234 0.81262 0.0
H688 H 0.60744 0.64568 0.78526 0.0
H689 H 0.6337 0.59461 0.89075 0.0
C690 C 0.60671 0.63937 0.91223 0.0
C691 C 0.58897 0.67223 0.90657 0.0
C692 C 0.62583 0.62492 0.79115 0.0
C693 C 0.6147 0.63229 0.85289 0.0
C694 C 0.64513 0.60944 0.7653 0.0
C695 C 0.67024 0.58359 0.77248 0.0
C696 C 0.6315 0.61414 0.82429 0.0
C697 C 0.67385 0.57256 0.80583 0.0
C698 C 0.61948 0.61936 0.8856 0.0
C699 C 0.58346 0.68327 0.87351 0.0
N700 N 0.65495 0.58797 0.83034 0.0
N701 N 0.59651 0.66358 0.84793 0.0
H702 H 0.98342 0.63321 0.07507 0.0
H703 H 0.99681 0.62336 0.27379 0.0
H704 H 0.12159 0.70722 0.12867 0.0
H705 H 0.86156 0.56795 0.21767 0.0
H706 H 0.04392 0.6489 0.22156 0.0
H707 H 0.93924 0.60369 0.12744 0.0
C708 C 0.00461 0.64321 0.09788 0.0
C709 C 0.05644 0.67299 0.09733 0.0
C710 C 0.00392 0.63098 0.22074 0.0
C711 C 0.00559 0.63902 0.15795 0.0
C712 C 0.97698 0.61622 0.25054 0.0
C713 C 0.92506 0.59351 0.25021 0.0
C714 C 0.97876 0.62271 0.19035 0.0
C715 C 0.90146 0.58541 0.21928 0.0
C716 C 0.97923 0.62631 0.1279 0.0
C717 C 0.08165 0.68448 0.12785 0.0
N718 N 0.92838 0.59996 0.19078 0.0
N719 N 0.05601 0.66756 0.15691 0.0
H720 H 0.39345 0.13697 0.46158 0.0
H721 H 0.28949 0.87439 0.55386 0.0
H722 H 0.34598 0.99781 0.41132 0.0
H723 H 0.32732 0.01008 0.60587 0.0
H724 H 0.314 0.92053 0.50187 0.0
H725 H 0.37381 0.0929 0.51486 0.0
C726 C 0.37917 0.09721 0.46173 0.0
C727 C 0.37126 0.07104 0.43188 0.0
C728 C 0.31704 0.94039 0.52459 0.0
C729 C 0.34856 0.02037 0.4928 0.0
C730 C 0.30301 0.914 0.55439 0.0
C731 C 0.30618 0.93833 0.58436 0.0
C732 C 0.33452 0.99174 0.5245 0.0
C733 C 0.32414 0.98978 0.58336 0.0
C734 C 0.36785 0.07207 0.49218 0.0
C735 C 0.35261 0.01955 0.43364 0.0
N736 N 0.33759 0.01479 0.5539 0.0
N737 N 0.34185 0.99599 0.4635 0.0
H738 H 0.38068 0.37929 0.94157 0.0
H739 H 0.37091 0.4041 0.74364 0.0
H740 H 0.42642 0.30331 0.87329 0.0
H741 H 0.3169 0.4699 0.81417 0.0
H742 H 0.40048 0.37428 0.79011 0.0
H743 H 0.36544 0.41969 0.89466 0.0
C744 C 0.38776 0.37126 0.91671 0.0
C745 C 0.40456 0.33758 0.91142 0.0
C746 C 0.38259 0.3957 0.79532 0.0
C747 C 0.38701 0.38375 0.85729 0.0
C748 C 0.36601 0.41297 0.7688 0.0
C749 C 0.3411 0.43924 0.77501 0.0
C750 C 0.37433 0.40502 0.82819 0.0
C751 C 0.3355 0.44942 0.80815 0.0
C752 C 0.37904 0.39436 0.88985 0.0
C753 C 0.41325 0.32884 0.87855 0.0
N754 N 0.35165 0.43212 0.83336 0.0
N755 N 0.40413 0.35154 0.85275 0.0
H756 H 0.14673 0.50152 0.4437 0.0
H757 H 0.21891 0.39872 0.60421 0.0
H758 H 0.14131 0.36041 0.44442 0.0
H759 H 0.24629 0.5483 0.59212 0.0
H760 H 0.18318 0.37902 0.54806 0.0
H761 H 0.16764 0.51112 0.50262 0.0
C762 C 0.14723 0.47125 0.45677 0.0
C763 C 0.14188 0.42996 0.43931 0.0
C764 C 0.19761 0.4163 0.55761 0.0
C765 C 0.16917 0.44202 0.50618 0.0
C766 C 0.21897 0.42782 0.58933 0.0
C767 C 0.23604 0.47536 0.60268 0.0
C768 C 0.19308 0.45253 0.5394 0.0
C769 C 0.23378 0.51125 0.58271 0.0
C770 C 0.16063 0.47733 0.49021 0.0
C771 C 0.14465 0.39257 0.45718 0.0
N772 N 0.21232 0.49901 0.55232 0.0
N773 N 0.15921 0.39991 0.48952 0.0
H774 H 0.87699 0.33916 0.88455 0.0
H775 H 0.81241 0.1009 0.77415 0.0
H776 H 0.90586 0.22533 0.91976 0.0
H777 H 0.75797 0.2023 0.75865 0.0
H778 H 0.85658 0.14832 0.82412 0.0
H779 H 0.85298 0.29792 0.83104 0.0
C780 C 0.88128 0.30707 0.88035 0.0
C781 C 0.89149 0.28452 0.907 0.0
C782 C 0.83434 0.15961 0.80997 0.0
C783 C 0.86233 0.23589 0.84616 0.0
C784 C 0.80829 0.13195 0.78198 0.0
C785 C 0.78147 0.14777 0.76246 0.0
C786 C 0.83356 0.20327 0.81801 0.0
C787 C 0.77822 0.1889 0.77311 0.0
C788 C 0.86602 0.28255 0.85004 0.0
C789 C 0.89716 0.24336 0.89998 0.0
N790 N 0.8044 0.21549 0.79983 0.0
N791 N 0.88046 0.21893 0.87055 0.0
H792 H 0.55266 0.88152 0.22755 0.0
H793 H 0.65215 0.79842 0.07503 0.0
H794 H 0.68795 0.87864 0.24097 0.0
H795 H 0.50014 0.72937 0.10718 0.0
H796 H 0.67792 0.84498 0.12765 0.0
H797 H 0.54872 0.85448 0.17033 0.0
C798 C 0.58335 0.8784 0.21781 0.0
C799 C 0.6197 0.88054 0.23922 0.0
C800 C 0.63911 0.81875 0.12328 0.0
C801 C 0.61449 0.84777 0.17453 0.0
C802 C 0.62447 0.79118 0.09376 0.0
C803 C 0.57384 0.76013 0.08675 0.0
C804 C 0.60267 0.81538 0.14522 0.0
C805 C 0.53946 0.75308 0.11155 0.0
C806 C 0.58024 0.86139 0.18548 0.0
C807 C 0.65865 0.87623 0.22525 0.0
N808 N 0.55436 0.78146 0.13925 0.0
N809 N 0.65411 0.8579 0.19399 0.0
H810 H 0.85774 0.63263 0.44479 0.0
H811 H 0.75094 0.44603 0.59875 0.0
H812 H 0.83682 0.48485 0.44502 0.0
H813 H 0.78188 0.59769 0.60308 0.0
H814 H 0.78443 0.46104 0.54261 0.0
H815 H 0.83903 0.62472 0.50423 0.0
C816 C 0.85206 0.59963 0.45782 0.0
C817 C 0.84955 0.55961 0.44013 0.0
C818 C 0.78362 0.49102 0.55568 0.0
C819 C 0.82513 0.54896 0.50757 0.0
C820 C 0.76376 0.48223 0.5876 0.0
C821 C 0.76327 0.52056 0.60569 0.0
C822 C 0.80317 0.53852 0.54146 0.0
C823 C 0.78085 0.56683 0.58997 0.0
C824 C 0.84008 0.59457 0.49158 0.0
C825 C 0.84008 0.51691 0.45791 0.0
N826 N 0.80034 0.5746 0.55885 0.0
N827 N 0.82724 0.51229 0.49047 0.0
H828 H 0.10375 0.66834 0.88408 0.0
H829 H 0.18314 0.87275 0.75179 0.0
H830 H 0.08269 0.78681 0.91949 0.0
H831 H 0.28073 0.83294 0.80145 0.0
H832 H 0.12378 0.83538 0.79801 0.0
H833 H 0.13638 0.71358 0.83233 0.0
C834 C 0.10243 0.70216 0.88007 0.0
C835 C 0.09336 0.72532 0.90675 0.0
C836 C 0.15896 0.83642 0.79907 0.0
C837 C 0.13046 0.77709 0.84776 0.0
C838 C 0.19321 0.85833 0.77305 0.0
C839 C 0.23606 0.85411 0.77221 0.0
C840 C 0.16864 0.81118 0.82419 0.0
C841 C 0.24765 0.83598 0.8007 0.0
C842 C 0.12222 0.72855 0.85075 0.0
C843 C 0.09119 0.76862 0.8998 0.0
N844 N 0.21338 0.8136 0.82495 0.0
N845 N 0.11239 0.79489 0.87147 0.0
H846 H 0.29624 0.10746 0.24472 0.0
H847 H 0.4822 0.27852 0.11246 0.0
H848 H 0.43504 0.11453 0.2253 0.0
H849 H 0.33082 0.19537 0.07906 0.0
H850 H 0.45848 0.23003 0.16362 0.0
H851 H 0.2982 0.13967 0.18875 0.0
C852 C 0.32544 0.11242 0.2279 0.0
C853 C 0.36676 0.11058 0.24006 0.0
C854 C 0.43021 0.22307 0.14537 0.0
C855 C 0.36999 0.14864 0.17712 0.0
C856 C 0.44345 0.25168 0.11665 0.0
C857 C 0.40853 0.24063 0.09145 0.0
C858 C 0.38157 0.18362 0.14918 0.0
C859 C 0.35877 0.20515 0.09805 0.0
C860 C 0.32713 0.13213 0.19629 0.0
C861 C 0.40318 0.11689 0.21717 0.0
N862 N 0.3467 0.17694 0.1262 0.0
N863 N 0.40538 0.13816 0.18733 0.0
loop_
_geom_bond_atom_site_label_1
_geom_bond_atom_site_label_2
_geom_bond_distance
_geom_bond_site_symmetry_2
_ccdc_geom_bond_type
Mn0 O5 2.095 . S
Mn0 O15 2.162 . S
Mn0 O16 2.297 . S
Mn0 O24 2.385 . S
Mn0 O25 2.209 . S
Mn0 O26 2.094 . S
Mn1 O6 2.121 . S
Mn1 N8 2.257 . S
Mn1 N17 2.282 . S
Mn1 O25 2.215 . S
Mn1 O27 2.117 . S
C2 O24 1.234 . S
C2 O25 1.283 . S
C3 O15 1.281 . S
C3 O16 1.236 . S
C4 O26 1.240 . S
C4 O27 1.264 . S
O5 Mn0 2.095 . S
O5 C14 1.250 . S
O6 Mn1 2.121 . S
O6 C14 1.258 . S
C7 N8 1.326 . S
C7 C11 1.460 . S
C7 H13 0.929 . S
N8 Mn1 2.257 . S
N8 C7 1.326 . S
N8 C12 1.362 . S
C9 C10 1.258 . S
C9 C12 1.431 . S
C9 C29 1.449 . S
C10 C9 1.258 . S
C10 C11 1.477 . S
C10 H30 0.931 . S
C11 C7 1.460 . S
C11 C10 1.477 . S
C11 H31 0.930 . S
C12 N8 1.362 . S
C12 C9 1.431 . S
C12 C22 1.476 . S
H13 C7 0.929 . S
C14 O5 1.250 . S
C14 O6 1.258 . S
O15 Mn0 2.162 . S
O15 C3 1.281 . S
O16 Mn0 2.297 . S
O16 C3 1.236 . S
N17 Mn1 2.282 . S
N17 C18 1.328 . S
N17 C22 1.318 . S
C18 N17 1.328 . S
C18 C19 1.457 . S
C18 H23 0.929 . S
C19 C18 1.457 . S
C19 C20 1.291 . S
C19 H32 0.931 . S
C20 C19 1.291 . S
C20 C21 1.373 . S
C20 H33 0.929 . S
C21 C20 1.373 . S
C21 C22 1.396 . S
C21 C28 1.403 . S
C22 C12 1.476 . S
C22 N17 1.318 . S
C22 C21 1.396 . S
H23 C18 0.929 . S
O24 Mn0 2.385 . S
O24 C2 1.234 . S
O25 Mn0 2.209 . S
O25 Mn1 2.215 . S
O25 C2 1.283 . S
O26 Mn0 2.094 . S
O26 C4 1.240 . S
O27 Mn1 2.117 . S
O27 C4 1.264 . S
C28 C21 1.403 . S
C28 C29 1.399 . S
C28 H34 0.929 . S
C29 C9 1.449 . S
C29 C28 1.399 . S
C29 H35 0.930 . S
H30 C10 0.931 . S
H31 C11 0.930 . S
H32 C19 0.931 . S
H33 C20 0.929 . S
H34 C28 0.929 . S
H35 C29 0.930 . S
Mn36 O41 2.095 . S
Mn36 O51 2.162 . S
Mn36 O52 2.297 . S
Mn36 O60 2.385 . S
Mn36 O61 2.209 . S
Mn36 O62 2.094 . S
Mn37 O42 2.121 . S
Mn37 N44 2.257 . S
Mn37 N53 2.282 . S
Mn37 O61 2.215 . S
Mn37 O63 2.117 . S
C38 O60 1.234 . S
C38 O61 1.283 . S
C39 O51 1.281 . S
C39 O52 1.236 . S
C40 O62 1.240 . S
C40 O63 1.264 . S
O41 Mn36 2.095 . S
O41 C50 1.250 . S
O42 Mn37 2.121 . S
O42 C50 1.258 . S
C43 N44 1.326 . S
C43 C47 1.460 . S
C43 H49 0.929 . S
N44 Mn37 2.257 . S
N44 C43 1.326 . S
N44 C48 1.362 . S
C45 C46 1.258 . S
C45 C48 1.431 . S
C45 C65 1.449 1_655 S
C46 C45 1.258 . S
C46 C47 1.477 . S
C46 H66 0.931 1_655 S
C47 C43 1.460 . S
C47 C46 1.477 . S
C47 H67 0.930 . S
C48 N44 1.362 . S
C48 C45 1.431 . S
C48 C58 1.476 . S
H49 C43 0.929 . S
C50 O41 1.250 . S
C50 O42 1.258 . S
O51 Mn36 2.162 . S
O51 C39 1.281 . S
O52 Mn36 2.297 . S
O52 C39 1.236 . S
N53 Mn37 2.282 . S
N53 C54 1.328 . S
N53 C58 1.318 . S
C54 N53 1.328 . S
C54 C55 1.457 . S
C54 H59 0.929 . S
C55 C54 1.457 . S
C55 C56 1.291 . S
C55 H68 0.931 . S
C56 C55 1.291 . S
C56 C57 1.373 . S
C56 H69 0.929 1_655 S
C57 C56 1.373 . S
C57 C58 1.396 . S
C57 C64 1.403 1_655 S
C58 C48 1.476 . S
C58 N53 1.318 . S
C58 C57 1.396 . S
H59 C54 0.929 . S
O60 Mn36 2.385 . S
O60 C38 1.234 . S
O61 Mn36 2.209 . S
O61 Mn37 2.215 . S
O61 C38 1.283 . S
O62 Mn36 2.094 . S
O62 C40 1.240 . S
O63 Mn37 2.117 . S
O63 C40 1.264 . S
C64 C57 1.403 1_455 S
C64 C65 1.399 . S
C64 H70 0.929 . S
C65 C45 1.449 1_455 S
C65 C64 1.399 . S
C65 H71 0.930 . S
H66 C46 0.931 1_455 S
H67 C47 0.930 . S
H68 C55 0.931 . S
H69 C56 0.929 1_455 S
H70 C64 0.929 . S
H71 C65 0.930 . S
Mn72 O77 2.093 1_556 S
Mn72 O87 2.179 . S
Mn72 O88 2.332 . S
Mn72 O96 2.387 . S
Mn72 O97 2.211 . S
Mn72 O98 2.060 1_556 S
Mn73 O78 2.121 . S
Mn73 N80 2.257 . S
Mn73 N89 2.282 . S
Mn73 O97 2.215 1_554 S
Mn73 O99 2.117 . S
C74 O96 1.234 . S
C74 O97 1.283 . S
C75 O87 1.281 . S
C75 O88 1.236 . S
C76 O98 1.240 . S
C76 O99 1.264 . S
O77 Mn72 2.093 1_554 S
O77 C86 1.249 1_554 S
O78 Mn73 2.121 . S
O78 C86 1.257 1_554 S
C79 N80 1.326 1_556 S
C79 C83 1.460 . S
C79 H85 0.929 . S
N80 Mn73 2.257 . S
N80 C79 1.326 1_554 S
N80 C84 1.362 . S
C81 C82 1.258 . S
C81 C84 1.431 . S
C81 C101 1.449 1_565 S
C82 C81 1.258 . S
C82 C83 1.477 1_554 S
C82 H102 0.931 1_564 S
C83 C79 1.460 . S
C83 C82 1.477 1_556 S
C83 H103 0.930 . S
C84 N80 1.362 . S
C84 C81 1.431 . S
C84 C94 1.476 . S
H85 C79 0.929 . S
C86 O77 1.249 1_556 S
C86 O78 1.257 1_556 S
O87 Mn72 2.179 . S
O87 C75 1.281 . S
O88 Mn72 2.332 . S
O88 C75 1.236 . S
N89 Mn73 2.282 . S
N89 C90 1.328 . S
N89 C94 1.318 . S
C90 N89 1.328 . S
C90 C91 1.457 . S
C90 H95 0.929 . S
C91 C90 1.457 . S
C91 C92 1.291 . S
C91 H104 0.931 . S
C92 C91 1.291 . S
C92 C93 1.373 . S
C92 H105 0.929 1_565 S
C93 C92 1.373 . S
C93 C94 1.396 . S
C93 C100 1.403 1_565 S
C94 C84 1.476 . S
C94 N89 1.318 . S
C94 C93 1.396 . S
H95 C90 0.929 . S
O96 Mn72 2.387 . S
O96 C74 1.234 . S
O97 Mn72 2.211 . S
O97 Mn73 2.215 1_556 S
O97 C74 1.283 . S
O98 Mn72 2.060 1_554 S
O98 C76 1.240 . S
O99 Mn73 2.117 . S
O99 C76 1.264 . S
C100 C93 1.403 1_545 S
C100 C101 1.399 . S
C100 H106 0.929 . S
C101 C81 1.449 1_545 S
C101 C100 1.399 . S
C101 H107 0.930 . S
H102 C82 0.931 1_546 S
H103 C83 0.930 . S
H104 C91 0.931 . S
H105 C92 0.929 1_545 S
H106 C100 0.929 . S
H107 C101 0.930 . S
Mn108 O113 2.095 . S
Mn108 O123 2.162 . S
Mn108 O124 2.297 . S
Mn108 O132 2.385 . S
Mn108 O133 2.209 . S
Mn108 O134 2.094 . S
Mn109 O114 2.121 . S
Mn109 N116 2.257 . S
Mn109 N125 2.282 . S
Mn109 O133 2.215 . S
Mn109 O135 2.117 . S
C110 O132 1.234 . S
C110 O133 1.283 . S
C111 O123 1.281 . S
C111 O124 1.236 . S
C112 O134 1.240 . S
C112 O135 1.264 . S
O113 Mn108 2.095 . S
O113 C122 1.250 . S
O114 Mn109 2.121 . S
O114 C122 1.258 . S
C115 N116 1.326 . S
C115 C119 1.460 . S
C115 H121 0.929 . S
N116 Mn109 2.257 . S
N116 C115 1.326 . S
N116 C120 1.362 . S
C117 C118 1.258 . S
C117 C120 1.431 . S
C117 C137 1.449 . S
C118 C117 1.258 . S
C118 C119 1.477 . S
C118 H138 0.931 . S
C119 C115 1.460 . S
C119 C118 1.477 . S
C119 H139 0.930 . S
C120 N116 1.362 . S
C120 C117 1.431 . S
C120 C130 1.476 . S
H121 C115 0.929 . S
C122 O113 1.250 . S
C122 O114 1.258 . S
O123 Mn108 2.162 . S
O123 C111 1.281 . S
O124 Mn108 2.297 . S
O124 C111 1.236 . S
N125 Mn109 2.282 . S
N125 C126 1.328 . S
N125 C130 1.318 . S
C126 N125 1.328 . S
C126 C127 1.457 . S
C126 H131 0.929 . S
C127 C126 1.457 . S
C127 C128 1.291 . S
C127 H140 0.931 . S
C128 C127 1.291 . S
C128 C129 1.373 . S
C128 H141 0.929 . S
C129 C128 1.373 . S
C129 C130 1.396 . S
C129 C136 1.403 . S
C130 C120 1.476 . S
C130 N125 1.318 . S
C130 C129 1.396 . S
H131 C126 0.929 . S
O132 Mn108 2.385 . S
O132 C110 1.234 . S
O133 Mn108 2.209 . S
O133 Mn109 2.215 . S
O133 C110 1.283 . S
O134 Mn108 2.094 . S
O134 C112 1.240 . S
O135 Mn109 2.117 . S
O135 C112 1.264 . S
C136 C129 1.403 . S
C136 C137 1.399 . S
C136 H142 0.929 . S
C137 C117 1.449 . S
C137 C136 1.399 . S
C137 H143 0.930 . S
H138 C118 0.931 . S
H139 C119 0.930 . S
H140 C127 0.931 . S
H141 C128 0.929 . S
H142 C136 0.929 . S
H143 C137 0.930 . S
Mn144 O149 2.095 . S
Mn144 O159 2.162 . S
Mn144 O160 2.297 . S
Mn144 O168 2.385 . S
Mn144 O169 2.209 . S
Mn144 O170 2.094 . S
Mn145 O150 2.121 . S
Mn145 N152 2.257 . S
Mn145 N161 2.282 . S
Mn145 O169 2.215 . S
Mn145 O171 2.117 . S
C146 O168 1.234 . S
C146 O169 1.283 . S
C147 O159 1.281 . S
C147 O160 1.236 . S
C148 O170 1.240 . S
C148 O171 1.264 . S
O149 Mn144 2.095 . S
O149 C158 1.250 . S
O150 Mn145 2.121 . S
O150 C158 1.258 . S
C151 N152 1.326 . S
C151 C155 1.460 . S
C151 H157 0.929 . S
N152 Mn145 2.257 . S
N152 C151 1.326 . S
N152 C156 1.362 . S
C153 C154 1.258 . S
C153 C156 1.431 . S
C153 C173 1.449 1_455 S
C154 C153 1.258 . S
C154 C155 1.477 . S
C154 H174 0.931 1_455 S
C155 C151 1.460 . S
C155 C154 1.477 . S
C155 H175 0.930 . S
C156 N152 1.362 . S
C156 C153 1.431 . S
C156 C166 1.476 . S
H157 C151 0.929 . S
C158 O149 1.250 . S
C158 O150 1.258 . S
O159 Mn144 2.162 . S
O159 C147 1.281 . S
O160 Mn144 2.297 . S
O160 C147 1.236 . S
N161 Mn145 2.282 . S
N161 C162 1.328 . S
N161 C166 1.318 . S
C162 N161 1.328 . S
C162 C163 1.457 . S
C162 H167 0.929 . S
C163 C162 1.457 . S
C163 C164 1.291 . S
C163 H176 0.931 . S
C164 C163 1.291 . S
C164 C165 1.373 . S
C164 H177 0.929 1_455 S
C165 C164 1.373 . S
C165 C166 1.396 . S
C165 C172 1.403 1_455 S
C166 C156 1.476 . S
C166 N161 1.318 . S
C166 C165 1.396 . S
H167 C162 0.929 . S
O168 Mn144 2.385 . S
O168 C146 1.234 . S
O169 Mn144 2.209 . S
O169 Mn145 2.215 . S
O169 C146 1.283 . S
O170 Mn144 2.094 . S
O170 C148 1.240 . S
O171 Mn145 2.117 . S
O171 C148 1.264 . S
C172 C165 1.403 1_655 S
C172 C173 1.399 . S
C172 H178 0.929 . S
C173 C153 1.449 1_655 S
C173 C172 1.399 . S
C173 H179 0.930 . S
H174 C154 0.931 1_655 S
H175 C155 0.930 . S
H176 C163 0.931 . S
H177 C164 0.929 1_655 S
H178 C172 0.929 . S
H179 C173 0.930 . S
Mn180 O185 2.093 1_556 S
Mn180 O195 2.179 . S
Mn180 O196 2.332 . S
Mn180 O204 2.387 . S
Mn180 O205 2.211 . S
Mn180 O206 2.060 1_556 S
Mn181 O186 2.121 . S
Mn181 N188 2.257 . S
Mn181 N197 2.282 . S
Mn181 O205 2.215 1_554 S
Mn181 O207 2.117 . S
C182 O204 1.234 . S
C182 O205 1.283 . S
C183 O195 1.281 . S
C183 O196 1.236 . S
C184 O206 1.240 . S
C184 O207 1.264 . S
O185 Mn180 2.093 1_554 S
O185 C194 1.249 1_554 S
O186 Mn181 2.121 . S
O186 C194 1.257 1_554 S
C187 N188 1.326 1_556 S
C187 C191 1.460 . S
C187 H193 0.929 . S
N188 Mn181 2.257 . S
N188 C187 1.326 1_554 S
N188 C192 1.362 . S
C189 C190 1.258 . S
C189 C192 1.431 . S
C189 C209 1.449 1_545 S
C190 C189 1.258 . S
C190 C191 1.477 1_554 S
C190 H210 0.931 1_544 S
C191 C187 1.460 . S
C191 C190 1.477 1_556 S
C191 H211 0.930 . S
C192 N188 1.362 . S
C192 C189 1.431 . S
C192 C202 1.476 . S
H193 C187 0.929 . S
C194 O185 1.249 1_556 S
C194 O186 1.257 1_556 S
O195 Mn180 2.179 . S
O195 C183 1.281 . S
O196 Mn180 2.332 . S
O196 C183 1.236 . S
N197 Mn181 2.282 . S
N197 C198 1.328 . S
N197 C202 1.318 . S
C198 N197 1.328 . S
C198 C199 1.457 . S
C198 H203 0.929 . S
C199 C198 1.457 . S
C199 C200 1.291 . S
C199 H212 0.931 . S
C200 C199 1.291 . S
C200 C201 1.373 . S
C200 H213 0.929 1_545 S
C201 C200 1.373 . S
C201 C202 1.396 . S
C201 C208 1.403 1_545 S
C202 C192 1.476 . S
C202 N197 1.318 . S
C202 C201 1.396 . S
H203 C198 0.929 . S
O204 Mn180 2.387 . S
O204 C182 1.234 . S
O205 Mn180 2.211 . S
O205 Mn181 2.215 1_556 S
O205 C182 1.283 . S
O206 Mn180 2.060 1_554 S
O206 C184 1.240 . S
O207 Mn181 2.117 . S
O207 C184 1.264 . S
C208 C201 1.403 1_565 S
C208 C209 1.399 . S
C208 H214 0.929 . S
C209 C189 1.449 1_565 S
C209 C208 1.399 . S
C209 H215 0.930 . S
H210 C190 0.931 1_566 S
H211 C191 0.930 . S
H212 C199 0.931 . S
H213 C200 0.929 1_565 S
H214 C208 0.929 . S
H215 C209 0.930 . S
Mn216 O221 2.095 . S
Mn216 O231 2.162 . S
Mn216 O232 2.297 . S
Mn216 O240 2.385 . S
Mn216 O241 2.209 . S
Mn216 O242 2.094 . S
Mn217 O222 2.121 . S
Mn217 N224 2.257 . S
Mn217 N233 2.282 . S
Mn217 O241 2.215 . S
Mn217 O243 2.117 . S
C218 O240 1.234 . S
C218 O241 1.283 . S
C219 O231 1.281 . S
C219 O232 1.236 . S
C220 O242 1.240 . S
C220 O243 1.264 . S
O221 Mn216 2.095 . S
O221 C230 1.250 . S
O222 Mn217 2.121 . S
O222 C230 1.258 . S
C223 N224 1.326 . S
C223 C227 1.460 . S
C223 H229 0.929 . S
N224 Mn217 2.257 . S
N224 C223 1.326 . S
N224 C228 1.362 . S
C225 C226 1.258 . S
C225 C228 1.431 . S
C225 C245 1.449 . S
C226 C225 1.258 . S
C226 C227 1.477 . S
C226 H246 0.931 . S
C227 C223 1.460 . S
C227 C226 1.477 . S
C227 H247 0.930 . S
C228 N224 1.362 . S
C228 C225 1.431 . S
C228 C238 1.476 . S
H229 C223 0.929 . S
C230 O221 1.250 . S
C230 O222 1.258 . S
O231 Mn216 2.162 . S
O231 C219 1.281 . S
O232 Mn216 2.297 . S
O232 C219 1.236 . S
N233 Mn217 2.282 . S
N233 C234 1.328 . S
N233 C238 1.318 . S
C234 N233 1.328 . S
C234 C235 1.457 . S
C234 H239 0.929 . S
C235 C234 1.457 . S
C235 C236 1.291 . S
C235 H248 0.931 . S
C236 C235 1.291 . S
C236 C237 1.373 . S
C236 H249 0.929 . S
C237 C236 1.373 . S
C237 C238 1.396 . S
C237 C244 1.403 . S
C238 C228 1.476 . S
C238 N233 1.318 . S
C238 C237 1.396 . S
H239 C234 0.929 . S
O240 Mn216 2.385 . S
O240 C218 1.234 . S
O241 Mn216 2.209 . S
O241 Mn217 2.215 . S
O241 C218 1.283 . S
O242 Mn216 2.094 . S
O242 C220 1.240 . S
O243 Mn217 2.117 . S
O243 C220 1.264 . S
C244 C237 1.403 . S
C244 C245 1.399 . S
C244 H250 0.929 . S
C245 C225 1.449 . S
C245 C244 1.399 . S
C245 H251 0.930 . S
H246 C226 0.931 . S
H247 C227 0.930 . S
H248 C235 0.931 . S
H249 C236 0.929 . S
H250 C244 0.929 . S
H251 C245 0.930 . S
Mn252 O257 2.095 . S
Mn252 O267 2.162 . S
Mn252 O268 2.297 . S
Mn252 O276 2.385 . S
Mn252 O277 2.209 . S
Mn252 O278 2.094 . S
Mn253 O258 2.121 . S
Mn253 N260 2.257 . S
Mn253 N269 2.282 . S
Mn253 O277 2.215 . S
Mn253 O279 2.117 . S
C254 O276 1.234 . S
C254 O277 1.283 . S
C255 O267 1.281 . S
C255 O268 1.236 . S
C256 O278 1.240 . S
C256 O279 1.264 . S
O257 Mn252 2.095 . S
O257 C266 1.250 . S
O258 Mn253 2.121 . S
O258 C266 1.258 . S
C259 N260 1.326 . S
C259 C263 1.460 . S
C259 H265 0.929 . S
N260 Mn253 2.257 . S
N260 C259 1.326 . S
N260 C264 1.362 . S
C261 C262 1.258 . S
C261 C264 1.431 . S
C261 C281 1.449 1_655 S
C262 C261 1.258 . S
C262 C263 1.477 . S
C262 H282 0.931 1_655 S
C263 C259 1.460 . S
C263 C262 1.477 . S
C263 H283 0.930 . S
C264 N260 1.362 . S
C264 C261 1.431 . S
C264 C274 1.476 . S
H265 C259 0.929 . S
C266 O257 1.250 . S
C266 O258 1.258 . S
O267 Mn252 2.162 . S
O267 C255 1.281 . S
O268 Mn252 2.297 . S
O268 C255 1.236 . S
N269 Mn253 2.282 . S
N269 C270 1.328 . S
N269 C274 1.318 . S
C270 N269 1.328 . S
C270 C271 1.457 . S
C270 H275 0.929 . S
C271 C270 1.457 . S
C271 C272 1.291 . S
C271 H284 0.931 . S
C272 C271 1.291 . S
C272 C273 1.373 . S
C272 H285 0.929 1_655 S
C273 C272 1.373 . S
C273 C274 1.396 . S
C273 C280 1.403 1_655 S
C274 C264 1.476 . S
C274 N269 1.318 . S
C274 C273 1.396 . S
H275 C270 0.929 . S
O276 Mn252 2.385 . S
O276 C254 1.234 . S
O277 Mn252 2.209 . S
O277 Mn253 2.215 . S
O277 C254 1.283 . S
O278 Mn252 2.094 . S
O278 C256 1.240 . S
O279 Mn253 2.117 . S
O279 C256 1.264 . S
C280 C273 1.403 1_455 S
C280 C281 1.399 . S
C280 H286 0.929 . S
C281 C261 1.449 1_455 S
C281 C280 1.399 . S
C281 H287 0.930 . S
H282 C262 0.931 1_455 S
H283 C263 0.930 . S
H284 C271 0.931 . S
H285 C272 0.929 1_455 S
H286 C280 0.929 . S
H287 C281 0.930 . S
Mn288 O293 2.093 1_554 S
Mn288 O303 2.179 . S
Mn288 O304 2.332 . S
Mn288 O312 2.387 . S
Mn288 O313 2.211 . S
Mn288 O314 2.060 1_554 S
Mn289 O294 2.121 . S
Mn289 N296 2.257 . S
Mn289 N305 2.282 . S
Mn289 O313 2.215 1_556 S
Mn289 O315 2.117 . S
C290 O312 1.234 . S
C290 O313 1.283 . S
C291 O303 1.281 . S
C291 O304 1.236 . S
C292 O314 1.240 . S
C292 O315 1.264 . S
O293 Mn288 2.093 1_556 S
O293 C302 1.249 1_556 S
O294 Mn289 2.121 . S
O294 C302 1.257 1_556 S
C295 N296 1.326 1_554 S
C295 C299 1.460 . S
C295 H301 0.929 . S
N296 Mn289 2.257 . S
N296 C295 1.326 1_556 S
N296 C300 1.362 . S
C297 C298 1.258 . S
C297 C300 1.431 . S
C297 C317 1.449 1_565 S
C298 C297 1.258 . S
C298 C299 1.477 1_556 S
C298 H318 0.931 1_566 S
C299 C295 1.460 . S
C299 C298 1.477 1_554 S
C299 H319 0.930 . S
C300 N296 1.362 . S
C300 C297 1.431 . S
C300 C310 1.476 . S
H301 C295 0.929 . S
C302 O293 1.249 1_554 S
C302 O294 1.257 1_554 S
O303 Mn288 2.179 . S
O303 C291 1.281 . S
O304 Mn288 2.332 . S
O304 C291 1.236 . S
N305 Mn289 2.282 . S
N305 C306 1.328 . S
N305 C310 1.318 . S
C306 N305 1.328 . S
C306 C307 1.457 . S
C306 H311 0.929 . S
C307 C306 1.457 . S
C307 C308 1.291 . S
C307 H320 0.931 . S
C308 C307 1.291 . S
C308 C309 1.373 . S
C308 H321 0.929 1_565 S
C309 C308 1.373 . S
C309 C310 1.396 . S
C309 C316 1.403 1_565 S
C310 C300 1.476 . S
C310 N305 1.318 . S
C310 C309 1.396 . S
H311 C306 0.929 . S
O312 Mn288 2.387 . S
O312 C290 1.234 . S
O313 Mn288 2.211 . S
O313 Mn289 2.215 1_554 S
O313 C290 1.283 . S
O314 Mn288 2.060 1_556 S
O314 C292 1.240 . S
O315 Mn289 2.117 . S
O315 C292 1.264 . S
C316 C309 1.403 1_545 S
C316 C317 1.399 . S
C316 H322 0.929 . S
C317 C297 1.449 1_545 S
C317 C316 1.399 . S
C317 H323 0.930 . S
H318 C298 0.931 1_544 S
H319 C299 0.930 . S
H320 C307 0.931 . S
H321 C308 0.929 1_545 S
H322 C316 0.929 . S
H323 C317 0.930 . S
Mn324 O329 2.095 . S
Mn324 O339 2.162 . S
Mn324 O340 2.297 . S
Mn324 O348 2.385 . S
Mn324 O349 2.209 . S
Mn324 O350 2.094 . S
Mn325 O330 2.121 . S
Mn325 N332 2.257 . S
Mn325 N341 2.282 . S
Mn325 O349 2.215 . S
Mn325 O351 2.117 . S
C326 O348 1.234 . S
C326 O349 1.283 . S
C327 O339 1.281 . S
C327 O340 1.236 . S
C328 O350 1.240 . S
C328 O351 1.264 . S
O329 Mn324 2.095 . S
O329 C338 1.250 . S
O330 Mn325 2.121 . S
O330 C338 1.258 . S
C331 N332 1.326 . S
C331 C335 1.460 . S
C331 H337 0.929 . S
N332 Mn325 2.257 . S
N332 C331 1.326 . S
N332 C336 1.362 . S
C333 C334 1.258 . S
C333 C336 1.431 . S
C333 C353 1.449 . S
C334 C333 1.258 . S
C334 C335 1.477 . S
C334 H354 0.931 . S
C335 C331 1.460 . S
C335 C334 1.477 . S
C335 H355 0.930 . S
C336 N332 1.362 . S
C336 C333 1.431 . S
C336 C346 1.476 . S
H337 C331 0.929 . S
C338 O329 1.250 . S
C338 O330 1.258 . S
O339 Mn324 2.162 . S
O339 C327 1.281 . S
O340 Mn324 2.297 . S
O340 C327 1.236 . S
N341 Mn325 2.282 . S
N341 C342 1.328 . S
N341 C346 1.318 . S
C342 N341 1.328 . S
C342 C343 1.457 . S
C342 H347 0.929 . S
C343 C342 1.457 . S
C343 C344 1.291 . S
C343 H356 0.931 . S
C344 C343 1.291 . S
C344 C345 1.373 . S
C344 H357 0.929 . S
C345 C344 1.373 . S
C345 C346 1.396 . S
C345 C352 1.403 . S
C346 C336 1.476 . S
C346 N341 1.318 . S
C346 C345 1.396 . S
H347 C342 0.929 . S
O348 Mn324 2.385 . S
O348 C326 1.234 . S
O349 Mn324 2.209 . S
O349 Mn325 2.215 . S
O349 C326 1.283 . S
O350 Mn324 2.094 . S
O350 C328 1.240 . S
O351 Mn325 2.117 . S
O351 C328 1.264 . S
C352 C345 1.403 . S
C352 C353 1.399 . S
C352 H358 0.929 . S
C353 C333 1.449 . S
C353 C352 1.399 . S
C353 H359 0.930 . S
H354 C334 0.931 . S
H355 C335 0.930 . S
H356 C343 0.931 . S
H357 C344 0.929 . S
H358 C352 0.929 . S
H359 C353 0.930 . S
Mn360 O365 2.095 . S
Mn360 O375 2.162 . S
Mn360 O376 2.297 . S
Mn360 O384 2.385 . S
Mn360 O385 2.209 . S
Mn360 O386 2.094 . S
Mn361 O366 2.121 . S
Mn361 N368 2.257 . S
Mn361 N377 2.282 . S
Mn361 O385 2.215 . S
Mn361 O387 2.117 . S
C362 O384 1.234 . S
C362 O385 1.283 . S
C363 O375 1.281 . S
C363 O376 1.236 . S
C364 O386 1.240 . S
C364 O387 1.264 . S
O365 Mn360 2.095 . S
O365 C374 1.250 . S
O366 Mn361 2.121 . S
O366 C374 1.258 . S
C367 N368 1.326 . S
C367 C371 1.460 . S
C367 H373 0.929 . S
N368 Mn361 2.257 . S
N368 C367 1.326 . S
N368 C372 1.362 . S
C369 C370 1.258 . S
C369 C372 1.431 . S
C369 C389 1.449 1_455 S
C370 C369 1.258 . S
C370 C371 1.477 . S
C370 H390 0.931 1_455 S
C371 C367 1.460 . S
C371 C370 1.477 . S
C371 H391 0.930 . S
C372 N368 1.362 . S
C372 C369 1.431 . S
C372 C382 1.476 . S
H373 C367 0.929 . S
C374 O365 1.250 . S
C374 O366 1.258 . S
O375 Mn360 2.162 . S
O375 C363 1.281 . S
O376 Mn360 2.297 . S
O376 C363 1.236 . S
N377 Mn361 2.282 . S
N377 C378 1.328 . S
N377 C382 1.318 . S
C378 N377 1.328 . S
C378 C379 1.457 . S
C378 H383 0.929 . S
C379 C378 1.457 . S
C379 C380 1.291 . S
C379 H392 0.931 . S
C380 C379 1.291 . S
C380 C381 1.373 . S
C380 H393 0.929 1_455 S
C381 C380 1.373 . S
C381 C382 1.396 . S
C381 C388 1.403 1_455 S
C382 C372 1.476 . S
C382 N377 1.318 . S
C382 C381 1.396 . S
H383 C378 0.929 . S
O384 Mn360 2.385 . S
O384 C362 1.234 . S
O385 Mn360 2.209 . S
O385 Mn361 2.215 . S
O385 C362 1.283 . S
O386 Mn360 2.094 . S
O386 C364 1.240 . S
O387 Mn361 2.117 . S
O387 C364 1.264 . S
C388 C381 1.403 1_655 S
C388 C389 1.399 . S
C388 H394 0.929 . S
C389 C369 1.449 1_655 S
C389 C388 1.399 . S
C389 H395 0.930 . S
H390 C370 0.931 1_655 S
H391 C371 0.930 . S
H392 C379 0.931 . S
H393 C380 0.929 1_655 S
H394 C388 0.929 . S
H395 C389 0.930 . S
Mn396 O401 2.093 1_554 S
Mn396 O411 2.179 . S
Mn396 O412 2.332 . S
Mn396 O420 2.387 . S
Mn396 O421 2.211 . S
Mn396 O422 2.060 1_554 S
Mn397 O402 2.121 . S
Mn397 N404 2.257 . S
Mn397 N413 2.282 . S
Mn397 O421 2.215 1_556 S
Mn397 O423 2.117 . S
C398 O420 1.234 . S
C398 O421 1.283 . S
C399 O411 1.281 . S
C399 O412 1.236 . S
C400 O422 1.240 . S
C400 O423 1.264 . S
O401 Mn396 2.093 1_556 S
O401 C410 1.249 1_556 S
O402 Mn397 2.121 . S
O402 C410 1.257 1_556 S
C403 N404 1.326 1_554 S
C403 C407 1.460 . S
C403 H409 0.929 . S
N404 Mn397 2.257 . S
N404 C403 1.326 1_556 S
N404 C408 1.362 . S
C405 C406 1.258 . S
C405 C408 1.431 . S
C405 C425 1.449 1_545 S
C406 C405 1.258 . S
C406 C407 1.477 1_556 S
C406 H426 0.931 1_546 S
C407 C403 1.460 . S
C407 C406 1.477 1_554 S
C407 H427 0.930 . S
C408 N404 1.362 . S
C408 C405 1.431 . S
C408 C418 1.476 . S
H409 C403 0.929 . S
C410 O401 1.249 1_554 S
C410 O402 1.257 1_554 S
O411 Mn396 2.179 . S
O411 C399 1.281 . S
O412 Mn396 2.332 . S
O412 C399 1.236 . S
N413 Mn397 2.282 . S
N413 C414 1.328 . S
N413 C418 1.318 . S
C414 N413 1.328 . S
C414 C415 1.457 . S
C414 H419 0.929 . S
C415 C414 1.457 . S
C415 C416 1.291 . S
C415 H428 0.931 . S
C416 C415 1.291 . S
C416 C417 1.373 . S
C416 H429 0.929 1_545 S
C417 C416 1.373 . S
C417 C418 1.396 . S
C417 C424 1.403 1_545 S
C418 C408 1.476 . S
C418 N413 1.318 . S
C418 C417 1.396 . S
H419 C414 0.929 . S
O420 Mn396 2.387 . S
O420 C398 1.234 . S
O421 Mn396 2.211 . S
O421 Mn397 2.215 1_554 S
O421 C398 1.283 . S
O422 Mn396 2.060 1_556 S
O422 C400 1.240 . S
O423 Mn397 2.117 . S
O423 C400 1.264 . S
C424 C417 1.403 1_565 S
C424 C425 1.399 . S
C424 H430 0.929 . S
C425 C405 1.449 1_565 S
C425 C424 1.399 . S
C425 H431 0.930 . S
H426 C406 0.931 1_564 S
H427 C407 0.930 . S
H428 C415 0.931 . S
H429 C416 0.929 1_565 S
H430 C424 0.929 . S
H431 C425 0.930 . S
H432 C438 0.930 . S
H433 C442 0.930 . S
H434 C447 0.929 . S
H435 C445 0.929 . S
H436 C440 0.929 . S
H437 C446 0.929 . S
C438 H432 0.930 . S
C438 C439 1.367 . S
C438 C446 1.378 . S
C439 C438 1.367 . S
C439 C447 1.433 . S
C440 H436 0.929 . S
C440 C442 1.378 . S
C440 C444 1.350 . S
C441 C444 1.463 . S
C441 C446 1.350 . S
C441 N449 1.427 . S
C442 H433 0.930 . S
C442 C440 1.378 . S
C442 C443 1.367 . S
C443 C442 1.367 . S
C443 C445 1.433 . S
C444 C440 1.350 . S
C444 C441 1.463 . S
C444 N448 1.427 . S
C445 H435 0.929 . S
C445 C443 1.433 . S
C445 N448 1.384 . S
C446 H437 0.929 . S
C446 C438 1.378 . S
C446 C441 1.350 . S
C447 H434 0.929 . S
C447 C439 1.433 . S
C447 N449 1.384 . S
N448 C444 1.427 . S
N448 C445 1.384 . S
N449 C441 1.427 . S
N449 C447 1.384 . S
H450 C456 0.930 . S
H451 C460 0.930 . S
H452 C465 0.929 . S
H453 C463 0.929 . S
H454 C458 0.929 . S
H455 C464 0.929 . S
C456 H450 0.930 . S
C456 C457 1.367 . S
C456 C464 1.378 . S
C457 C456 1.367 . S
C457 C465 1.433 . S
C458 H454 0.929 . S
C458 C460 1.378 . S
C458 C462 1.350 . S
C459 C462 1.463 . S
C459 C464 1.350 . S
C459 N467 1.427 . S
C460 H451 0.930 . S
C460 C458 1.378 . S
C460 C461 1.367 . S
C461 C460 1.367 . S
C461 C463 1.433 . S
C462 C458 1.350 . S
C462 C459 1.463 . S
C462 N466 1.427 . S
C463 H453 0.929 . S
C463 C461 1.433 . S
C463 N466 1.384 . S
C464 H455 0.929 . S
C464 C456 1.378 . S
C464 C459 1.350 . S
C465 H452 0.929 . S
C465 C457 1.433 . S
C465 N467 1.384 . S
N466 C462 1.427 . S
N466 C463 1.384 . S
N467 C459 1.427 . S
N467 C465 1.384 . S
H468 C474 0.930 . S
H469 C478 0.930 . S
H470 C483 0.929 . S
H471 C481 0.929 . S
H472 C476 0.929 . S
H473 C482 0.929 . S
C474 H468 0.930 . S
C474 C475 1.367 1_554 S
C474 C482 1.378 . S
C475 C474 1.367 1_556 S
C475 C483 1.433 . S
C476 H472 0.929 . S
C476 C478 1.378 . S
C476 C480 1.335 1_556 S
C477 C480 1.461 1_556 S
C477 C482 1.330 1_556 S
C477 N485 1.451 . S
C478 H469 0.930 . S
C478 C476 1.378 . S
C478 C479 1.367 1_556 S
C479 C478 1.367 1_554 S
C479 C481 1.433 . S
C480 C476 1.335 1_554 S
C480 C477 1.461 1_554 S
C480 N484 1.445 . S
C481 H471 0.929 . S
C481 C479 1.433 . S
C481 N484 1.384 . S
C482 H473 0.929 . S
C482 C474 1.378 . S
C482 C477 1.330 1_554 S
C483 H470 0.929 . S
C483 C475 1.433 . S
C483 N485 1.384 . S
N484 C480 1.445 . S
N484 C481 1.384 . S
N485 C477 1.451 . S
N485 C483 1.384 . S
H486 C492 0.930 . S
H487 C496 0.930 . S
H488 C501 0.929 . S
H489 C499 0.929 . S
H490 C494 0.929 . S
H491 C500 0.929 . S
C492 H486 0.930 . S
C492 C493 1.367 . S
C492 C500 1.378 . S
C493 C492 1.367 . S
C493 C501 1.433 . S
C494 H490 0.929 . S
C494 C496 1.378 . S
C494 C498 1.350 . S
C495 C498 1.463 . S
C495 C500 1.350 . S
C495 N503 1.427 . S
C496 H487 0.930 . S
C496 C494 1.378 . S
C496 C497 1.367 . S
C497 C496 1.367 . S
C497 C499 1.433 . S
C498 C494 1.350 . S
C498 C495 1.463 . S
C498 N502 1.427 . S
C499 H489 0.929 . S
C499 C497 1.433 . S
C499 N502 1.384 . S
C500 H491 0.929 . S
C500 C492 1.378 . S
C500 C495 1.350 . S
C501 H488 0.929 . S
C501 C493 1.433 . S
C501 N503 1.384 . S
N502 C498 1.427 . S
N502 C499 1.384 . S
N503 C495 1.427 . S
N503 C501 1.384 . S
H504 C510 0.930 . S
H505 C514 0.930 . S
H506 C519 0.929 . S
H507 C517 0.929 . S
H508 C512 0.929 . S
H509 C518 0.929 . S
C510 H504 0.930 . S
C510 C511 1.367 . S
C510 C518 1.378 . S
C511 C510 1.367 . S
C511 C519 1.433 . S
C512 H508 0.929 . S
C512 C514 1.378 . S
C512 C516 1.350 . S
C513 C516 1.463 . S
C513 C518 1.350 . S
C513 N521 1.427 . S
C514 H505 0.930 . S
C514 C512 1.378 . S
C514 C515 1.367 . S
C515 C514 1.367 . S
C515 C517 1.433 . S
C516 C512 1.350 . S
C516 C513 1.463 . S
C516 N520 1.427 . S
C517 H507 0.929 . S
C517 C515 1.433 . S
C517 N520 1.384 . S
C518 H509 0.929 . S
C518 C510 1.378 . S
C518 C513 1.350 . S
C519 H506 0.929 . S
C519 C511 1.433 . S
C519 N521 1.384 . S
N520 C516 1.427 . S
N520 C517 1.384 . S
N521 C513 1.427 . S
N521 C519 1.384 . S
H522 C528 0.930 . S
H523 C532 0.930 . S
H524 C537 0.929 . S
H525 C535 0.929 . S
H526 C530 0.929 . S
H527 C536 0.929 . S
C528 H522 0.930 . S
C528 C529 1.367 1_556 S
C528 C536 1.378 . S
C529 C528 1.367 1_554 S
C529 C537 1.433 . S
C530 H526 0.929 . S
C530 C532 1.378 . S
C530 C534 1.336 1_554 S
C531 C534 1.461 1_554 S
C531 C536 1.350 1_554 S
C531 N539 1.427 . S
C532 H523 0.930 . S
C532 C530 1.378 . S
C532 C533 1.367 1_554 S
C533 C532 1.367 1_556 S
C533 C535 1.433 . S
C534 C530 1.336 1_556 S
C534 C531 1.461 1_556 S
C534 N538 1.445 . S
C535 H525 0.929 . S
C535 C533 1.433 . S
C535 N538 1.384 . S
C536 H527 0.929 . S
C536 C528 1.378 . S
C536 C531 1.350 1_556 S
C537 H524 0.929 . S
C537 C529 1.433 . S
C537 N539 1.384 . S
N538 C534 1.445 . S
N538 C535 1.384 . S
N539 C531 1.427 . S
N539 C537 1.384 . S
H540 C546 0.930 . S
H541 C550 0.930 . S
H542 C555 0.929 . S
H543 C553 0.929 . S
H544 C548 0.929 . S
H545 C554 0.929 . S
C546 H540 0.930 . S
C546 C547 1.367 . S
C546 C554 1.378 . S
C547 C546 1.367 . S
C547 C555 1.433 . S
C548 H544 0.929 . S
C548 C550 1.378 . S
C548 C552 1.350 . S
C549 C552 1.463 . S
C549 C554 1.350 . S
C549 N557 1.427 . S
C550 H541 0.930 . S
C550 C548 1.378 . S
C550 C551 1.367 . S
C551 C550 1.367 . S
C551 C553 1.433 . S
C552 C548 1.350 . S
C552 C549 1.463 . S
C552 N556 1.427 . S
C553 H543 0.929 . S
C553 C551 1.433 . S
C553 N556 1.384 . S
C554 H545 0.929 . S
C554 C546 1.378 . S
C554 C549 1.350 . S
C555 H542 0.929 . S
C555 C547 1.433 . S
C555 N557 1.384 . S
N556 C552 1.427 . S
N556 C553 1.384 . S
N557 C549 1.427 . S
N557 C555 1.384 . S
H558 C564 0.930 . S
H559 C568 0.930 . S
H560 C573 0.929 . S
H561 C571 0.929 . S
H562 C566 0.929 . S
H563 C572 0.929 . S
C564 H558 0.930 . S
C564 C565 1.367 . S
C564 C572 1.378 . S
C565 C564 1.367 . S
C565 C573 1.433 . S
C566 H562 0.929 . S
C566 C568 1.378 . S
C566 C570 1.350 . S
C567 C570 1.463 1_655 S
C567 C572 1.350 . S
C567 N575 1.427 . S
C568 H559 0.930 . S
C568 C566 1.378 . S
C568 C569 1.367 . S
C569 C568 1.367 . S
C569 C571 1.433 . S
C570 C566 1.350 . S
C570 C567 1.463 1_455 S
C570 N574 1.427 . S
C571 H561 0.929 . S
C571 C569 1.433 . S
C571 N574 1.384 . S
C572 H563 0.929 . S
C572 C564 1.378 . S
C572 C567 1.350 . S
C573 H560 0.929 . S
C573 C565 1.433 . S
C573 N575 1.384 . S
N574 C570 1.427 . S
N574 C571 1.384 . S
N575 C567 1.427 . S
N575 C573 1.384 . S
H576 C582 0.930 . S
H577 C586 0.930 . S
H578 C591 0.929 . S
H579 C589 0.929 . S
H580 C584 0.929 . S
H581 C590 0.929 . S
C582 H576 0.930 . S
C582 C583 1.367 1_556 S
C582 C590 1.378 . S
C583 C582 1.367 1_554 S
C583 C591 1.433 . S
C584 H580 0.929 . S
C584 C586 1.378 . S
C584 C588 1.350 1_554 S
C585 C588 1.463 1_544 S
C585 C590 1.350 1_554 S
C585 N593 1.427 . S
C586 H577 0.930 . S
C586 C584 1.378 . S
C586 C587 1.367 1_554 S
C587 C586 1.367 1_556 S
C587 C589 1.433 . S
C588 C584 1.350 1_556 S
C588 C585 1.463 1_566 S
C588 N592 1.427 . S
C589 H579 0.929 . S
C589 C587 1.433 . S
C589 N592 1.384 . S
C590 H581 0.929 . S
C590 C582 1.378 . S
C590 C585 1.350 1_556 S
C591 H578 0.929 . S
C591 C583 1.433 . S
C591 N593 1.384 . S
N592 C588 1.427 . S
N592 C589 1.384 . S
N593 C585 1.427 . S
N593 C591 1.384 . S
H594 C600 0.930 . S
H595 C604 0.930 . S
H596 C609 0.929 . S
H597 C607 0.929 . S
H598 C602 0.929 . S
H599 C608 0.929 . S
C600 H594 0.930 . S
C600 C601 1.367 . S
C600 C608 1.378 . S
C601 C600 1.367 . S
C601 C609 1.433 . S
C602 H598 0.929 . S
C602 C604 1.378 . S
C602 C606 1.350 . S
C603 C606 1.463 . S
C603 C608 1.350 . S
C603 N611 1.427 . S
C604 H595 0.930 . S
C604 C602 1.378 . S
C604 C605 1.367 . S
C605 C604 1.367 . S
C605 C607 1.433 . S
C606 C602 1.350 . S
C606 C603 1.463 . S
C606 N610 1.427 . S
C607 H597 0.929 . S
C607 C605 1.433 . S
C607 N610 1.384 . S
C608 H599 0.929 . S
C608 C600 1.378 . S
C608 C603 1.350 . S
C609 H596 0.929 . S
C609 C601 1.433 . S
C609 N611 1.384 . S
N610 C606 1.427 . S
N610 C607 1.384 . S
N611 C603 1.427 . S
N611 C609 1.384 . S
H612 C618 0.930 . S
H613 C622 0.930 . S
H614 C627 0.929 . S
H615 C625 0.929 . S
H616 C620 0.929 . S
H617 C626 0.929 . S
C618 H612 0.930 . S
C618 C619 1.367 . S
C618 C626 1.378 . S
C619 C618 1.367 . S
C619 C627 1.433 . S
C620 H616 0.929 . S
C620 C622 1.378 . S
C620 C624 1.350 . S
C621 C624 1.463 1_455 S
C621 C626 1.350 . S
C621 N629 1.427 . S
C622 H613 0.930 . S
C622 C620 1.378 . S
C622 C623 1.367 . S
C623 C622 1.367 . S
C623 C625 1.433 . S
C624 C620 1.350 . S
C624 C621 1.463 1_655 S
C624 N628 1.427 . S
C625 H615 0.929 . S
C625 C623 1.433 . S
C625 N628 1.384 . S
C626 H617 0.929 . S
C626 C618 1.378 . S
C626 C621 1.350 . S
C627 H614 0.929 . S
C627 C619 1.433 . S
C627 N629 1.384 . S
N628 C624 1.427 . S
N628 C625 1.384 . S
N629 C621 1.427 . S
N629 C627 1.384 . S
H630 C636 0.930 . S
H631 C640 0.930 . S
H632 C645 0.929 . S
H633 C643 0.929 . S
H634 C638 0.929 . S
H635 C644 0.929 . S
C636 H630 0.930 . S
C636 C637 1.367 . S
C636 C644 1.378 . S
C637 C636 1.367 . S
C637 C645 1.433 . S
C638 H634 0.929 . S
C638 C640 1.378 . S
C638 C642 1.350 . S
C639 C642 1.463 1_546 S
C639 C644 1.350 . S
C639 N647 1.428 . S
C640 H631 0.930 . S
C640 C638 1.378 . S
C640 C641 1.367 . S
C641 C640 1.367 . S
C641 C643 1.433 . S
C642 C638 1.350 . S
C642 C639 1.463 1_564 S
C642 N646 1.428 . S
C643 H633 0.929 . S
C643 C641 1.433 . S
C643 N646 1.385 . S
C644 H635 0.929 . S
C644 C636 1.378 . S
C644 C639 1.350 . S
C645 H632 0.929 . S
C645 C637 1.433 . S
C645 N647 1.386 . S
N646 C642 1.428 . S
N646 C643 1.385 . S
N647 C639 1.428 . S
N647 C645 1.386 . S
H648 C654 0.930 . S
H649 C658 0.930 . S
H650 C663 0.929 . S
H651 C661 0.929 . S
H652 C656 0.929 . S
H653 C662 0.929 . S
C654 H648 0.930 . S
C654 C655 1.367 . S
C654 C662 1.378 . S
C655 C654 1.367 . S
C655 C663 1.433 . S
C656 H652 0.929 . S
C656 C658 1.378 . S
C656 C660 1.350 . S
C657 C660 1.463 1_655 S
C657 C662 1.350 . S
C657 N665 1.427 . S
C658 H649 0.930 . S
C658 C656 1.378 . S
C658 C659 1.367 . S
C659 C658 1.367 . S
C659 C661 1.433 . S
C660 C656 1.350 . S
C660 C657 1.463 1_455 S
C660 N664 1.427 . S
C661 H651 0.929 . S
C661 C659 1.433 . S
C661 N664 1.384 . S
C662 H653 0.929 . S
C662 C654 1.378 . S
C662 C657 1.350 . S
C663 H650 0.929 . S
C663 C655 1.433 . S
C663 N665 1.384 . S
N664 C660 1.427 . S
N664 C661 1.384 . S
N665 C657 1.427 . S
N665 C663 1.384 . S
H666 C672 0.930 . S
H667 C676 0.930 . S
H668 C681 0.929 . S
H669 C679 0.929 . S
H670 C674 0.929 . S
H671 C680 0.929 . S
C672 H666 0.930 . S
C672 C673 1.367 . S
C672 C680 1.378 . S
C673 C672 1.367 . S
C673 C681 1.433 1_545 S
C674 H670 0.929 . S
C674 C676 1.378 . S
C674 C678 1.350 . S
C675 C678 1.463 1_545 S
C675 C680 1.350 . S
C675 N683 1.427 1_545 S
C676 H667 0.930 . S
C676 C674 1.378 . S
C676 C677 1.367 . S
C677 C676 1.367 . S
C677 C679 1.433 1_565 S
C678 C674 1.350 . S
C678 C675 1.463 1_565 S
C678 N682 1.427 1_565 S
C679 H669 0.929 . S
C679 C677 1.433 1_545 S
C679 N682 1.384 . S
C680 H671 0.929 . S
C680 C672 1.378 . S
C680 C675 1.350 . S
C681 H668 0.929 . S
C681 C673 1.433 1_565 S
C681 N683 1.384 . S
N682 C678 1.427 1_545 S
N682 C679 1.384 . S
N683 C675 1.427 1_565 S
N683 C681 1.384 . S
H684 C690 0.930 . S
H685 C694 0.930 . S
H686 C699 0.929 . S
H687 C697 0.929 . S
H688 C692 0.929 . S
H689 C698 0.929 . S
C690 H684 0.930 . S
C690 C691 1.367 . S
C690 C698 1.378 . S
C691 C690 1.367 . S
C691 C699 1.433 . S
C692 H688 0.929 . S
C692 C694 1.378 . S
C692 C696 1.350 . S
C693 C696 1.463 . S
C693 C698 1.350 . S
C693 N701 1.427 . S
C694 H685 0.930 . S
C694 C692 1.378 . S
C694 C695 1.367 . S
C695 C694 1.367 . S
C695 C697 1.433 . S
C696 C692 1.350 . S
C696 C693 1.463 . S
C696 N700 1.427 . S
C697 H687 0.929 . S
C697 C695 1.433 . S
C697 N700 1.384 . S
C698 H689 0.929 . S
C698 C690 1.378 . S
C698 C693 1.350 . S
C699 H686 0.929 . S
C699 C691 1.433 . S
C699 N701 1.384 . S
N700 C696 1.427 . S
N700 C697 1.384 . S
N701 C693 1.427 . S
N701 C699 1.384 . S
H702 C708 0.930 . S
H703 C712 0.945 . S
H704 C717 0.929 . S
H705 C715 0.929 . S
H706 C710 0.929 . S
H707 C716 0.949 . S
C708 H702 0.930 . S
C708 C709 1.367 . S
C708 C716 1.371 1_455 S
C709 C708 1.367 . S
C709 C717 1.433 . S
C710 H706 0.929 . S
C710 C712 1.378 1_455 S
C710 C714 1.350 1_455 S
C711 C714 1.463 1_455 S
C711 C716 1.336 1_455 S
C711 N719 1.427 . S
C712 H703 0.945 . S
C712 C710 1.378 1_655 S
C712 C713 1.367 . S
C713 C712 1.367 . S
C713 C715 1.433 . S
C714 C710 1.350 1_655 S
C714 C711 1.463 1_655 S
C714 N718 1.427 . S
C715 H705 0.929 . S
C715 C713 1.433 . S
C715 N718 1.384 . S
C716 H707 0.949 . S
C716 C708 1.371 1_655 S
C716 C711 1.336 1_655 S
C717 H704 0.929 . S
C717 C709 1.433 . S
C717 N719 1.384 . S
N718 C714 1.427 . S
N718 C715 1.384 . S
N719 C711 1.427 . S
N719 C717 1.384 . S
H720 C726 0.930 . S
H721 C730 0.930 . S
H722 C735 0.929 1_565 S
H723 C733 0.929 1_545 S
H724 C728 0.929 . S
H725 C734 0.929 . S
C726 H720 0.930 . S
C726 C727 1.367 . S
C726 C734 1.378 . S
C727 C726 1.367 . S
C727 C735 1.433 . S
C728 H724 0.929 . S
C728 C730 1.378 . S
C728 C732 1.350 . S
C729 C732 1.463 1_545 S
C729 C734 1.350 . S
C729 N737 1.427 1_545 S
C730 H721 0.930 . S
C730 C728 1.378 . S
C730 C731 1.367 . S
C731 C730 1.367 . S
C731 C733 1.433 . S
C732 C728 1.350 . S
C732 C729 1.463 1_565 S
C732 N736 1.427 1_565 S
C733 H723 0.929 1_565 S
C733 C731 1.433 . S
C733 N736 1.384 1_565 S
C734 H725 0.929 . S
C734 C726 1.378 . S
C734 C729 1.350 . S
C735 H722 0.929 1_545 S
C735 C727 1.433 . S
C735 N737 1.384 1_545 S
N736 C732 1.427 1_545 S
N736 C733 1.384 1_545 S
N737 C729 1.427 1_565 S
N737 C735 1.384 1_565 S
H738 C744 0.930 . S
H739 C748 0.930 . S
H740 C753 0.929 . S
H741 C751 0.929 . S
H742 C746 0.929 . S
H743 C752 0.929 . S
C744 H738 0.930 . S
C744 C745 1.367 . S
C744 C752 1.378 . S
C745 C744 1.367 . S
C745 C753 1.433 . S
C746 H742 0.929 . S
C746 C748 1.378 . S
C746 C750 1.350 . S
C747 C750 1.463 . S
C747 C752 1.350 . S
C747 N755 1.427 . S
C748 H739 0.930 . S
C748 C746 1.378 . S
C748 C749 1.367 . S
C749 C748 1.367 . S
C749 C751 1.433 . S
C750 C746 1.350 . S
C750 C747 1.463 . S
C750 N754 1.427 . S
C751 H741 0.929 . S
C751 C749 1.433 . S
C751 N754 1.384 . S
C752 H743 0.929 . S
C752 C744 1.378 . S
C752 C747 1.350 . S
C753 H740 0.929 . S
C753 C745 1.433 . S
C753 N755 1.384 . S
N754 C750 1.427 . S
N754 C751 1.384 . S
N755 C747 1.427 . S
N755 C753 1.384 . S
H756 C762 0.930 . S
H757 C766 0.930 . S
H758 C771 0.929 . S
H759 C769 0.929 . S
H760 C764 0.929 . S
H761 C770 0.929 . S
C762 H756 0.930 . S
C762 C763 1.367 . S
C762 C770 1.378 . S
C763 C762 1.367 . S
C763 C771 1.433 . S
C764 H760 0.929 . S
C764 C766 1.378 . S
C764 C768 1.350 . S
C765 C768 1.463 . S
C765 C770 1.350 . S
C765 N773 1.427 . S
C766 H757 0.930 . S
C766 C764 1.378 . S
C766 C767 1.367 . S
C767 C766 1.367 . S
C767 C769 1.433 . S
C768 C764 1.350 . S
C768 C765 1.463 . S
C768 N772 1.427 . S
C769 H759 0.929 . S
C769 C767 1.433 . S
C769 N772 1.384 . S
C770 H761 0.929 . S
C770 C762 1.378 . S
C770 C765 1.350 . S
C771 H758 0.929 . S
C771 C763 1.433 . S
C771 N773 1.384 . S
N772 C768 1.427 . S
N772 C769 1.384 . S
N773 C765 1.427 . S
N773 C771 1.384 . S
H774 C780 0.930 . S
H775 C784 0.930 . S
H776 C789 0.929 . S
H777 C787 0.929 . S
H778 C782 0.929 . S
H779 C788 0.929 . S
C780 H774 0.930 . S
C780 C781 1.367 . S
C780 C788 1.378 . S
C781 C780 1.367 . S
C781 C789 1.433 . S
C782 H778 0.929 . S
C782 C784 1.378 . S
C782 C786 1.350 . S
C783 C786 1.463 . S
C783 C788 1.350 . S
C783 N791 1.427 . S
C784 H775 0.930 . S
C784 C782 1.378 . S
C784 C785 1.367 . S
C785 C784 1.367 . S
C785 C787 1.433 . S
C786 C782 1.350 . S
C786 C783 1.463 . S
C786 N790 1.427 . S
C787 H777 0.929 . S
C787 C785 1.433 . S
C787 N790 1.384 . S
C788 H779 0.929 . S
C788 C780 1.378 . S
C788 C783 1.350 . S
C789 H776 0.929 . S
C789 C781 1.433 . S
C789 N791 1.384 . S
N790 C786 1.427 . S
N790 C787 1.384 . S
N791 C783 1.427 . S
N791 C789 1.384 . S
H792 C798 0.930 . S
H793 C802 0.930 . S
H794 C807 0.929 . S
H795 C805 0.929 . S
H796 C800 0.929 . S
H797 C806 0.929 . S
C798 H792 0.930 . S
C798 C799 1.367 . S
C798 C806 1.378 . S
C799 C798 1.367 . S
C799 C807 1.433 . S
C800 H796 0.929 . S
C800 C802 1.378 . S
C800 C804 1.350 . S
C801 C804 1.463 . S
C801 C806 1.350 . S
C801 N809 1.427 . S
C802 H793 0.930 . S
C802 C800 1.378 . S
C802 C803 1.367 . S
C803 C802 1.367 . S
C803 C805 1.433 . S
C804 C800 1.350 . S
C804 C801 1.463 . S
C804 N808 1.427 . S
C805 H795 0.929 . S
C805 C803 1.433 . S
C805 N808 1.384 . S
C806 H797 0.929 . S
C806 C798 1.378 . S
C806 C801 1.350 . S
C807 H794 0.929 . S
C807 C799 1.433 . S
C807 N809 1.384 . S
N808 C804 1.427 . S
N808 C805 1.384 . S
N809 C801 1.427 . S
N809 C807 1.384 . S
H810 C816 0.930 . S
H811 C820 0.930 . S
H812 C825 0.929 . S
H813 C823 0.929 . S
H814 C818 0.929 . S
H815 C824 0.929 . S
C816 H810 0.930 . S
C816 C817 1.367 . S
C816 C824 1.378 . S
C817 C816 1.367 . S
C817 C825 1.433 . S
C818 H814 0.929 . S
C818 C820 1.378 . S
C818 C822 1.350 . S
C819 C822 1.463 . S
C819 C824 1.350 . S
C819 N827 1.427 . S
C820 H811 0.930 . S
C820 C818 1.378 . S
C820 C821 1.367 . S
C821 C820 1.367 . S
C821 C823 1.433 . S
C822 C818 1.350 . S
C822 C819 1.463 . S
C822 N826 1.427 . S
C823 H813 0.929 . S
C823 C821 1.433 . S
C823 N826 1.384 . S
C824 H815 0.929 . S
C824 C816 1.378 . S
C824 C819 1.350 . S
C825 H812 0.929 . S
C825 C817 1.433 . S
C825 N827 1.384 . S
N826 C822 1.427 . S
N826 C823 1.384 . S
N827 C819 1.427 . S
N827 C825 1.384 . S
H828 C834 0.930 . S
H829 C838 0.930 . S
H830 C843 0.929 . S
H831 C841 0.929 . S
H832 C836 0.929 . S
H833 C842 0.929 . S
C834 H828 0.930 . S
C834 C835 1.367 . S
C834 C842 1.378 . S
C835 C834 1.367 . S
C835 C843 1.433 . S
C836 H832 0.929 . S
C836 C838 1.378 . S
C836 C840 1.350 . S
C837 C840 1.463 . S
C837 C842 1.350 . S
C837 N845 1.427 . S
C838 H829 0.930 . S
C838 C836 1.378 . S
C838 C839 1.367 . S
C839 C838 1.367 . S
C839 C841 1.433 . S
C840 C836 1.350 . S
C840 C837 1.463 . S
C840 N844 1.427 . S
C841 H831 0.929 . S
C841 C839 1.433 . S
C841 N844 1.384 . S
C842 H833 0.929 . S
C842 C834 1.378 . S
C842 C837 1.350 . S
C843 H830 0.929 . S
C843 C835 1.433 . S
C843 N845 1.384 . S
N844 C840 1.427 . S
N844 C841 1.384 . S
N845 C837 1.427 . S
N845 C843 1.384 . S
H846 C852 0.930 . S
H847 C856 0.930 . S
H848 C861 0.929 . S
H849 C859 0.929 . S
H850 C854 0.929 . S
H851 C860 0.929 . S
C852 H846 0.930 . S
C852 C853 1.367 . S
C852 C860 1.378 . S
C853 C852 1.367 . S
C853 C861 1.433 . S
C854 H850 0.929 . S
C854 C856 1.378 . S
C854 C858 1.350 . S
C855 C858 1.463 . S
C855 C860 1.350 . S
C855 N863 1.427 . S
C856 H847 0.930 . S
C856 C854 1.378 . S
C856 C857 1.367 . S
C857 C856 1.367 . S
C857 C859 1.433 . S
C858 C854 1.350 . S
C858 C855 1.463 . S
C858 N862 1.427 . S
C859 H849 0.929 . S
C859 C857 1.433 . S
C859 N862 1.384 . S
C860 H851 0.929 . S
C860 C852 1.378 . S
C860 C855 1.350 . S
C861 H848 0.929 . S
C861 C853 1.433 . S
C861 N863 1.384 . S
N862 C858 1.427 . S
N862 C859 1.384 . S
N863 C855 1.427 . S
N863 C861 1.384 . S
C439 C14 1.398 . S
C443 C230 1.402 . S
C457 C50 1.400 . S
C461 C266 1.400 . S
C475 C86 1.333 . S
C479 C302 1.320 . S
C493 C338 1.421 . S
C497 C122 1.406 . S
C511 C158 1.400 . S
C515 C374 1.405 . S
C529 C410 1.322 . S
C533 C194 1.334 . S
C547 C2 0.987 . S
C551 C326 0.990 . S
C565 C38 0.991 . S
C569 C362 0.988 . S
C583 C398 0.942 . S
C587 C74 0.939 . S
C601 C218 0.989 . S
C605 C110 0.991 . S
C619 C146 0.986 . S
C623 C254 0.984 . S
C637 C182 0.945 . S
C641 C290 0.947 . S
C655 C399 1.766 . S
C659 C3 1.760 . S
C673 C39 1.912 . S
C677 C219 1.913 . S
C691 C75 1.770 . S
C695 C255 1.761 . S
C709 C291 1.768 . S
C713 C111 1.762 . S
C727 C327 1.913 . S
C731 C147 1.914 . S
C745 C183 1.770 . S
C749 C363 1.762 . S
C763 C4 0.886 . S
C767 C364 0.887 . S
C781 C400 1.014 . S
C785 C40 1.021 . S
C799 C220 0.991 . S
C803 C76 0.994 . S
C817 C112 0.881 . S
C821 C256 0.880 . S
C835 C292 1.010 . S
C839 C148 1.018 . S
C853 C328 1.001 . S
C857 C184 1.001 . S
