# Generated by pormake.
# Topology fnu, (5)-cn, num edge types: 1
# Building blocks:
#     Node 0, Type 0, BuildingBlock: XOMCOT_clean_sbu_1, # of connection points: 5
#     Node 1, Type 0, BuildingBlock: XOMCOT_clean_sbu_1, # of connection points: 5
#     Node 2, Type 0, BuildingBlock: XOMCOT_clean_sbu_1, # of connection points: 5
#     Node 3, Type 0, BuildingBlock: XOMCOT_clean_sbu_1, # of connection points: 5
#     Node 4, Type 0, BuildingBlock: XOMCOT_clean_sbu_1, # of connection points: 5
#     Node 5, Type 0, BuildingBlock: XOMCOT_clean_sbu_1, # of connection points: 5
#     Edge 6, Type (0, 0), BuildingBlock: OJICUG_clean_linker_0, # of connection points: 2
#     Edge 7, Type (0, 0), BuildingBlock: OJICUG_clean_linker_0, # of connection points: 2
#     Edge 8, Type (0, 0), BuildingBlock: OJICUG_clean_linker_0, # of connection points: 2
#     Edge 9, Type (0, 0), BuildingBlock: OJICUG_clean_linker_0, # of connection points: 2
#     Edge 10, Type (0, 0), BuildingBlock: OJICUG_clean_linker_0, # of connection points: 2
#     Edge 11, Type (0, 0), BuildingBlock: OJICUG_clean_linker_0, # of connection points: 2
#     Edge 12, Type (0, 0), BuildingBlock: OJICUG_clean_linker_0, # of connection points: 2
#     Edge 13, Type (0, 0), BuildingBlock: OJICUG_clean_linker_0, # of connection points: 2
#     Edge 14, Type (0, 0), BuildingBlock: OJICUG_clean_linker_0, # of connection points: 2
#     Edge 15, Type (0, 0), BuildingBlock: OJICUG_clean_linker_0, # of connection points: 2
#     Edge 16, Type (0, 0), BuildingBlock: OJICUG_clean_linker_0, # of connection points: 2
#     Edge 17, Type (0, 0), BuildingBlock: OJICUG_clean_linker_0, # of connection points: 2
#     Edge 18, Type (0, 0), BuildingBlock: OJICUG_clean_linker_0, # of connection points: 2
#     Edge 19, Type (0, 0), BuildingBlock: OJICUG_clean_linker_0, # of connection points: 2
#     Edge 20, Type (0, 0), BuildingBlock: OJICUG_clean_linker_0, # of connection points: 2
# Relax obj value: 0.209
# Max RMSD: 0.145
# Mean RMSD: 0.145
data_MOF--net-fnu--node1-XOMCOT_clean_sbu_1--edge1-OJICUG_clean_linker_0
_symmetry_space_group_name_H-M    P1
_symmetry_Int_Tables_number       1
_symmetry_cell_setting            triclinic
loop_
_symmetry_equiv_pos_as_xyz
'x, y, z'
_cell_length_a     19.701337
_cell_length_b     19.408659
_cell_length_c     25.689988
_cell_angle_alpha  89.311394
_cell_angle_beta   93.273994
_cell_angle_gamma 119.28657
loop_
_atom_site_label
_atom_site_type_symbol
_atom_site_fract_x
_atom_site_fract_y
_atom_site_fract_z
_atom_type_partial_charge
C0 C 0.23101 0.09478 0.35141 0.0
C1 C 0.22336 0.09799 0.40376 0.0
N2 N 0.15237 0.08896 0.41091 0.0
N3 N 0.16562 0.08456 0.32477 0.0
C4 C 0.11836 0.08123 0.36228 0.0
H5 H 0.28115 0.09799 0.33424 0.0
Co6 Co 0.15156 0.0682 0.25211 0.0
C7 C 0.11411 0.20179 0.26017 0.0
O8 O 0.16251 0.23793 0.30049 0.0
N9 N 0.14029 1.05265 0.17992 0.0
C10 C 0.15669 0.08297 0.09649 0.0
C11 C 0.16861 0.11276 0.14607 0.0
C12 C 0.11018 0.98649 0.14974 0.0
N13 N 0.12008 1.00373 0.09881 0.0
O14 O 0.25512 0.15362 0.24311 0.0
H15 H 0.19577 0.17472 0.1568 0.0
H16 H 0.07995 0.92705 0.16443 0.0
O17 O 0.10728 0.13771 0.24216 0.0
C18 C 0.29582 0.12222 0.23065 0.0
O19 O 0.26721 1.04606 0.23825 0.0
N20 N 1.05311 0.98 0.25877 0.0
C21 C 0.93366 0.82792 0.23362 0.0
C22 C 0.92666 0.89406 0.21839 0.0
C23 C 0.98715 0.9701 0.23166 0.0
C24 C 1.05685 0.91664 0.27897 0.0
C25 C 0.99728 0.83981 0.2672 0.0
H26 H 0.98483 1.02004 0.21447 0.0
H27 H 0.1102 0.92531 0.29923 0.0
H28 H 1.05952 0.07074 0.35415 0.0
H29 H 0.26707 0.10637 0.43427 0.0
H30 H 0.16901 0.11665 0.061 0.0
H31 H 0.87828 0.88729 0.19255 0.0
H32 H 1.00543 0.7906 0.27943 0.0
C33 C 1.02343 0.15691 0.67956 0.0
C34 C 1.03464 0.16388 0.6271 0.0
N35 N 1.05692 0.1117 0.61305 0.0
N36 N 1.03951 0.10132 0.69938 0.0
C37 C 1.05917 0.07438 0.65754 0.0
H38 H 1.00353 0.18983 0.70187 0.0
Co39 Co 1.0204 0.06625 0.76879 0.0
C40 C 0.13516 0.23633 0.78137 0.0
O41 O 0.17431 0.22831 0.74436 0.0
N42 N 0.99728 1.03095 0.83637 0.0
C43 C 0.95583 1.0198 0.916 0.0
C44 C 0.96605 0.05893 0.86995 0.0
C45 C 1.0052 0.97451 0.86284 0.0
N46 N 0.98123 0.96717 0.91175 0.0
O47 O 0.92331 0.06614 0.76261 0.0
H48 H 0.9541 0.10694 0.86209 0.0
H49 H 1.03178 0.94216 0.84781 0.0
O50 O 1.07259 0.17628 0.79509 0.0
C51 C 0.86702 0.99798 0.75031 0.0
O52 O 0.88335 0.94856 0.72672 0.0
N53 N 0.11336 0.05874 0.77742 0.0
C54 C 0.21394 1.00264 0.8137 0.0
C55 C 0.22284 0.07374 0.83307 0.0
C56 C 0.17099 0.09992 0.81534 0.0
C57 C 0.10637 0.99094 0.75666 0.0
C58 C 0.15607 0.96189 0.77419 0.0
H59 H 0.17246 0.14796 0.83681 0.0
H60 H 1.05634 0.95404 0.73093 0.0
H61 H 1.07219 1.02651 0.65891 0.0
H62 H 1.02716 0.20458 0.60144 0.0
H63 H 0.93803 1.03427 0.9515 0.0
H64 H 0.26476 0.10488 0.86519 0.0
H65 H 0.14573 0.90516 0.75973 0.0
C66 C 0.85074 0.54914 0.67779 0.0
C67 C 0.85143 0.54935 0.73125 0.0
N68 N 0.81396 0.47401 0.74683 0.0
N69 N 0.81306 0.47393 0.65911 0.0
C70 C 0.79081 0.42941 0.70253 0.0
H71 H 0.87683 0.60113 0.65401 0.0
Co72 Co 0.81001 0.44778 0.58783 0.0
C73 C 0.7112 0.52571 0.58837 0.0
O74 O 0.68804 0.49859 0.63489 0.0
N75 N 0.81119 0.42451 0.51817 0.0
C76 C 0.83807 0.44515 0.43501 0.0
C77 C 0.83259 0.47844 0.4801 0.0
C78 C 0.80329 0.35853 0.49516 0.0
N79 N 0.81991 0.36993 0.44459 0.0
O80 O 0.90959 0.53944 0.58042 0.0
H81 H 0.84484 0.53878 0.48509 0.0
H82 H 0.7858 0.30324 0.51471 0.0
O83 O 0.75805 0.50893 0.56647 0.0
C84 C 0.96197 0.51943 0.57842 0.0
O85 O 0.94663 0.45013 0.5969 0.0
N86 N 0.71501 0.35277 0.59215 0.0
C87 C 0.60942 0.19636 0.56321 0.0
C88 C 0.59374 0.25726 0.5488 0.0
C89 C 0.64789 0.33557 0.56318 0.0
C90 C 0.72723 0.29318 0.61028 0.0
C91 C 0.67502 0.21455 0.59649 0.0
H92 H 0.63961 0.38175 0.54552 0.0
H93 H 0.78263 0.3073 0.62998 0.0
H94 H 0.76009 0.36567 0.70234 0.0
H95 H 0.87688 0.60103 0.75673 0.0
H96 H 0.85066 0.47283 0.39731 0.0
H97 H 0.54457 0.24554 0.52207 0.0
H98 H 0.6897 0.1692 0.60767 0.0
C99 C 0.68559 0.42848 0.02348 0.0
C100 C 0.69593 0.4405 0.97126 0.0
N101 N 0.74027 0.40996 0.9571 0.0
N102 N 0.72328 0.3903 0.04284 0.0
C103 C 0.75664 0.38004 1.00088 0.0
H104 H 0.65252 0.44706 0.04605 0.0
Co105 Co 0.71343 0.35589 0.11284 0.0
C106 C 0.79982 0.53127 0.12132 0.0
O107 O 0.8354 0.53516 0.07877 0.0
N108 N 0.69898 0.32065 0.1815 0.0
C109 C 0.65505 0.30182 0.26088 0.0
C110 C 0.6561 0.33575 0.21389 0.0
C111 C 0.72424 0.27789 0.21032 0.0
N112 N 0.69867 0.26606 0.25903 0.0
O113 O 0.60911 0.33862 0.10974 0.0
H114 H 0.63001 0.37251 0.20483 0.0
H115 H 0.76426 0.25958 0.19735 0.0
O116 O 0.75171 0.46408 0.13913 0.0
C117 C 0.55814 0.26691 0.10091 0.0
O118 O 0.58111 0.21966 0.08181 0.0
N119 N 0.81419 0.36573 0.11788 0.0
C120 C 0.92939 0.32807 0.1541 0.0
C121 C 0.93214 0.39861 0.16986 0.0
C122 C 0.87347 0.4157 0.15211 0.0
C123 C 0.81421 0.30063 0.09858 0.0
C124 C 0.87088 0.28065 0.11611 0.0
H125 H 0.87232 0.46469 0.17043 0.0
H126 H 0.76496 0.25899 0.07395 0.0
H127 H 0.79096 0.35039 1.00181 0.0
H128 H 0.67314 0.46993 0.94553 0.0
H129 H 0.63117 0.31035 0.29563 0.0
H130 H 0.97653 0.43836 0.1982 0.0
H131 H 0.86435 0.22484 0.10303 0.0
C132 C 0.56256 0.85309 1.01344 0.0
C133 C 0.55688 0.85038 0.06642 0.0
N134 N 0.48234 0.80119 0.07646 0.0
N135 N 0.49178 0.806 0.98927 0.0
C136 C 0.44397 0.77499 0.0293 0.0
H137 H 0.61639 0.88664 0.99444 0.0
Co138 Co 0.47522 0.78368 0.91613 0.0
C139 C 0.36751 0.85129 0.92592 0.0
O140 O 0.33443 0.80713 0.96587 0.0
N141 N 0.46255 0.76265 0.845 0.0
C142 C 0.47128 0.78348 0.76019 0.0
C143 C 0.4773 0.81718 0.80789 0.0
C144 C 0.44708 0.69601 0.81896 0.0
N145 N 0.45265 0.70759 0.76731 0.0
O146 O 0.57327 0.8751 0.90301 0.0
H147 H 0.49252 0.87797 0.8152 0.0
H148 H 0.43166 0.64015 0.83724 0.0
O149 O 0.42291 0.84713 0.90535 0.0
C150 C 0.62118 0.85195 0.89184 0.0
O151 O 0.60376 0.77916 0.90341 0.0
N152 N 0.3816 0.68908 0.92498 0.0
C153 C 0.27845 0.53137 0.89886 0.0
C154 C 0.26103 0.59047 0.88289 0.0
C155 C 0.31402 0.66948 0.89584 0.0
C156 C 0.3948 0.63135 0.9456 0.0
C157 C 0.34397 0.5519 0.93285 0.0
H158 H 0.30565 0.71429 0.87602 0.0
H159 H 0.44994 0.64741 0.96643 0.0
H160 H 0.38277 0.73171 0.02438 0.0
H161 H 0.60404 0.88258 0.09541 0.0
H162 H 0.47652 0.81138 0.72274 0.0
H163 H 0.212 0.57684 0.85553 0.0
H164 H 0.35966 0.50776 0.94533 0.0
C165 C 0.33778 0.80977 0.34921 0.0
C166 C 0.34694 0.81882 0.29667 0.0
N167 N 0.38012 0.77663 0.28176 0.0
N168 N 0.36498 0.76196 0.3681 0.0
C169 C 0.39087 0.74291 0.32566 0.0
H170 H 0.31196 0.83619 0.37227 0.0
Co171 Co 0.35102 0.7277 0.43799 0.0
C172 C 0.45878 0.89936 0.44733 0.0
O173 O 0.49607 0.89163 0.40896 0.0
N174 N 0.33242 0.69299 0.50617 0.0
C175 C 0.28957 0.67796 0.58561 0.0
C176 C 0.29719 0.71655 0.53961 0.0
C177 C 0.34583 0.64004 0.5329 0.0
N178 N 0.321 0.63042 0.58173 0.0
O179 O 0.25031 0.72016 0.43395 0.0
H180 H 0.28029 0.76108 0.53161 0.0
H181 H 0.37734 0.61251 0.51824 0.0
O182 O 0.3988 0.83842 0.4633 0.0
C183 C 0.19632 0.64919 0.42642 0.0
O184 O 0.21441 0.59984 0.40458 0.0
N185 N 0.44791 0.72744 0.44473 0.0
C186 C 0.55672 0.68068 0.48039 0.0
C187 C 0.55989 0.74929 0.50017 0.0
C188 C 0.50435 0.77067 0.48277 0.0
C189 C 0.4467 0.66302 0.42288 0.0
C190 C 0.50098 0.63915 0.43965 0.0
H191 H 0.50224 0.81656 0.50457 0.0
H192 H 0.39827 0.62463 0.39648 0.0
H193 H 0.41509 0.70363 0.32609 0.0
H194 H 0.33107 0.85436 0.27138 0.0
H195 H 0.26986 0.69024 0.62107 0.0
H196 H 0.60149 0.78325 0.53176 0.0
H197 H 0.49465 0.58461 0.42403 0.0
C198 C 0.379 0.11534 0.16418 0.0
C199 C 0.36078 0.16208 0.1957 0.0
H200 H 0.4527 0.1115 0.10815 0.0
C201 C 0.40242 0.24459 0.19112 0.0
H202 H 0.34673 1.05144 0.16548 0.0
C203 C 0.4642 0.27953 0.15775 0.0
C204 C 0.4844 0.23232 0.12803 0.0
H205 H 0.38863 0.28194 0.21421 0.0
H206 H 0.49773 0.34337 0.15661 0.0
C207 C 0.43938 0.14988 0.13056 0.0
C208 C 1.04393 0.21787 0.18033 0.0
C209 C 1.06977 0.23693 0.23304 0.0
H210 H 0.98406 0.23428 0.11354 0.0
C211 C 1.05247 0.28918 0.25904 0.0
H212 H 1.05704 0.17854 0.15885 0.0
C213 C 1.00826 0.31965 0.23338 0.0
C214 C 0.98161 0.30019 0.18053 0.0
H215 H 1.07119 0.30479 0.2997 0.0
H216 H 0.99328 0.35665 0.25575 0.0
C217 C 1.00144 0.24972 0.15432 0.0
C218 C 0.82509 0.60646 0.20571 0.0
C219 C 0.82229 0.60491 0.15089 0.0
H220 H 0.86301 0.67895 0.27543 0.0
C221 C 0.84748 0.67599 0.12416 0.0
H222 H 0.80623 0.55239 0.22726 0.0
C223 C 0.878 0.74763 0.15153 0.0
C224 C 0.8857 0.75026 0.20631 0.0
H225 H 0.84563 0.67647 0.08193 0.0
H226 H 0.89997 0.80148 0.12962 0.0
C227 C 0.85754 0.67872 0.23323 0.0
C228 C 0.12518 0.33009 0.84373 0.0
C229 C 0.17003 0.3115 0.81185 0.0
H230 H 0.12423 0.41548 0.89615 0.0
C231 C 0.2501 0.36507 0.80993 0.0
H232 H 1.06331 0.28996 0.84593 0.0
C233 C 0.28476 0.43511 0.8394 0.0
C234 C 0.24014 0.45405 0.87093 0.0
H235 H 0.28649 0.35261 0.78601 0.0
H236 H 0.34655 0.47544 0.8368 0.0
C237 C 0.15984 0.40149 0.87252 0.0
C238 C 0.72498 0.97579 0.85194 0.0
C239 C 0.67896 0.89322 0.85244 0.0
H240 H 0.82102 0.07496 0.81826 0.0
C241 C 0.68756 0.84778 0.81392 0.0
H242 H 0.71832 1.01213 0.88066 0.0
C243 C 0.74425 0.88325 0.77773 0.0
C244 C 0.79515 0.96516 0.77965 0.0
H245 H 0.651 0.78411 0.81216 0.0
H246 H 0.75073 0.84552 0.75003 0.0
C247 C 0.78318 1.01157 0.81598 0.0
C248 C 0.21323 0.90226 0.87522 0.0
C249 C 0.25447 0.96441 0.84137 0.0
H250 H 0.21697 0.81945 0.92937 0.0
C251 C 0.33405 0.99107 0.83624 0.0
H252 H 0.15182 0.88085 0.87981 0.0
C253 C 0.37136 0.95481 0.86389 0.0
C254 C 0.33014 0.89292 0.89826 0.0
H255 H 0.36701 1.03931 0.81054 0.0
H256 H 0.43245 0.97539 0.85861 0.0
C257 C 0.25077 0.86755 0.90381 0.0
C258 C 1.05601 0.63567 0.52711 0.0
C259 C 1.0207 0.55495 0.53877 0.0
H260 H 0.13978 0.72961 0.48184 0.0
C261 C 1.03734 0.50524 0.50915 0.0
H262 H 1.04289 0.67493 0.54865 0.0
C263 C 0.08992 0.53552 0.47003 0.0
C264 C 0.12898 0.61685 0.46008 0.0
H265 H 1.00917 0.44227 0.51589 0.0
H266 H 0.1022 0.49514 0.44909 0.0
C267 C 0.11053 0.66661 0.48848 0.0
C268 C 0.64823 0.61052 0.58798 0.0
C269 C 0.67774 0.57033 0.56 0.0
H270 H 0.58955 0.67809 0.58523 0.0
C271 C 0.67173 0.57064 0.50514 0.0
H272 H 0.65238 0.61191 0.63023 0.0
C273 C 0.63405 0.60774 0.47897 0.0
C274 C 0.60311 0.64681 0.5071 0.0
H275 H 0.69389 0.54005 0.48246 0.0
H276 H 0.62866 0.60537 0.43676 0.0
C277 C 0.6123 0.64889 0.56196 0.0
C278 C 0.57563 1.02622 0.47588 0.0
C279 C 0.49497 0.97509 0.47728 0.0
H280 H 0.67435 0.13471 0.5029 0.0
C281 C 0.4512 0.99673 0.508 0.0
H282 H 0.61125 1.01128 0.45297 0.0
C283 C 0.48763 0.06894 0.53606 0.0
C284 C 0.56859 0.11903 0.53506 0.0
H285 H 0.38893 0.95844 0.50976 0.0
H286 H 0.45294 0.08525 0.55888 0.0
C287 C 0.612 0.09673 0.50481 0.0
C288 C 1.04612 0.12161 0.5166 0.0
C289 C 0.07543 0.09969 0.5614 0.0
H290 H 1.0473 0.13507 0.43345 0.0
C291 C 0.12554 0.06861 0.5549 0.0
H292 H 1.00618 0.14438 0.51987 0.0
C293 C 0.14819 0.06252 0.50538 0.0
C294 C 0.12159 0.08749 0.46087 0.0
H295 H 0.14948 1.05127 0.5882 0.0
H296 H 0.18766 1.03915 0.50212 0.0
C297 C 1.06883 0.11543 0.46688 0.0
C298 C 0.8389 0.47346 0.89275 0.0
C299 C 0.76532 0.41315 0.90537 0.0
H300 H 0.91227 0.54014 0.83177 0.0
C301 C 0.71079 0.36768 0.86508 0.0
H302 H 0.88093 0.51019 0.92334 0.0
C303 C 0.72845 0.38435 0.81277 0.0
C304 C 0.80029 0.44819 0.79999 0.0
H305 H 0.65306 0.32211 0.87424 0.0
H306 H 0.68417 0.35077 0.78242 0.0
C307 C 0.85618 0.49108 0.84052 0.0
C308 C 0.47131 0.77301 0.22115 0.0
C309 C 0.401 0.77174 0.22961 0.0
H310 H 0.55245 0.78351 0.16523 0.0
C311 C 0.35425 0.77237 0.18626 0.0
H312 H 0.50848 0.77285 0.25381 0.0
C313 C 0.37889 0.77764 0.13562 0.0
C314 C 0.45143 0.7838 0.12741 0.0
H315 H 0.29933 0.7706 0.19169 0.0
H316 H 0.34315 0.78096 0.10313 0.0
C317 C 0.4966 0.77969 0.17057 0.0
C318 C 0.9978 0.92318 0.04936 0.0
C319 C 0.07871 0.95388 0.05469 0.0
H320 H 0.90103 0.90141 0.99669 0.0
C321 C 0.11977 0.96112 1.01031 0.0
H322 H 0.96565 0.91887 0.08315 0.0
C323 C 0.08333 0.95252 0.96084 0.0
C324 C 1.00568 0.93687 0.95576 0.0
H325 H 0.18239 0.98514 0.01392 0.0
H326 H 0.11908 0.97029 0.92754 0.0
C327 C 0.96122 0.91442 0.9999 0.0
C328 C 0.81683 0.30086 0.313 0.0
C329 C 0.73569 0.25375 0.30503 0.0
H330 H 0.90927 0.37706 0.36734 0.0
C331 C 0.69095 0.22075 0.34845 0.0
H332 H 0.85285 0.32616 0.28019 0.0
C333 C 0.7234 0.24988 0.39841 0.0
C334 C 0.80055 0.31152 0.40466 0.0
H335 H 0.6284 0.18322 0.34303 0.0
H336 H 0.68505 0.23413 0.43026 0.0
C337 C 0.84915 0.33042 0.36287 0.0
C338 C 0.30719 0.57873 0.66992 0.0
C339 C 0.35241 0.60829 0.62637 0.0
H340 H 0.30696 0.58713 0.75291 0.0
C341 C 0.4337 0.64269 0.63337 0.0
H342 H 0.24427 0.55119 0.66519 0.0
C343 C 0.46943 0.66407 0.68334 0.0
C344 C 0.42374 0.64975 0.72622 0.0
H345 H 0.46954 0.66597 0.60039 0.0
H346 H 0.53192 0.70277 0.68765 0.0
C347 C 0.34303 0.59913 0.72005 0.0
loop_
_geom_bond_atom_site_label_1
_geom_bond_atom_site_label_2
_geom_bond_distance
_geom_bond_site_symmetry_2
_ccdc_geom_bond_type
C0 C1 1.351 . S
C0 N3 1.368 . S
C0 H5 0.931 . S
C1 C0 1.351 . S
C1 N2 1.373 . S
C1 H29 0.930 . S
N2 C1 1.373 . S
N2 C4 1.340 . S
N3 C0 1.368 . S
N3 C4 1.321 . S
N3 Co6 2.135 . S
C4 N2 1.340 . S
C4 N3 1.321 . S
C4 H28 0.930 1_455 S
H5 C0 0.931 . S
Co6 N3 2.135 . S
Co6 N9 2.121 . S
Co6 O14 2.055 . S
Co6 O17 2.039 . S
Co6 N20 2.140 1_445 S
C7 O8 1.227 . S
C7 O17 1.265 1_655 S
O8 C7 1.227 . S
N9 Co6 2.121 . S
N9 C11 1.375 1_455 S
N9 C12 1.313 . S
C10 C11 1.338 . S
C10 N13 1.377 1_655 S
C10 H30 0.930 . S
C11 N9 1.375 1_655 S
C11 C10 1.338 . S
C11 H15 0.931 . S
C12 N9 1.313 . S
C12 N13 1.344 . S
C12 H16 0.930 . S
N13 C10 1.377 1_455 S
N13 C12 1.344 . S
O14 Co6 2.055 . S
O14 C18 1.253 . S
H15 C11 0.931 . S
H16 C12 0.930 . S
O17 Co6 2.039 . S
O17 C7 1.265 1_455 S
C18 O14 1.253 . S
C18 O19 1.227 . S
O19 C18 1.227 . S
N20 Co6 2.140 1_665 S
N20 C23 1.346 . S
N20 C24 1.345 . S
C21 C22 1.387 . S
C21 C25 1.391 . S
C22 C21 1.387 . S
C22 C23 1.369 . S
C22 H31 0.929 . S
C23 N20 1.346 . S
C23 C22 1.369 . S
C23 H26 0.928 . S
C24 N20 1.345 . S
C24 C25 1.371 . S
C24 H27 0.931 1_655 S
C25 C21 1.391 . S
C25 C24 1.371 . S
C25 H32 0.930 . S
H26 C23 0.928 . S
H27 C24 0.931 1_455 S
H28 C4 0.930 1_655 S
H29 C1 0.930 . S
H30 C10 0.930 . S
H31 C22 0.929 . S
H32 C25 0.930 . S
C33 C34 1.351 . S
C33 N36 1.368 . S
C33 H38 0.931 . S
C34 C33 1.351 . S
C34 N35 1.373 1_565 S
C34 H62 0.930 . S
N35 C34 1.373 1_545 S
N35 C37 1.340 . S
N36 C33 1.368 . S
N36 C37 1.321 1_565 S
N36 Co39 2.135 1_565 S
C37 N35 1.340 . S
C37 N36 1.321 1_545 S
C37 H61 0.930 1_655 S
H38 C33 0.931 . S
Co39 N36 2.135 1_545 S
Co39 N42 2.121 1_655 S
Co39 O47 2.055 1_545 S
Co39 O50 2.039 1_655 S
Co39 N53 2.140 1_645 S
C40 O41 1.227 . S
C40 O50 1.265 . S
O41 C40 1.227 . S
N42 Co39 2.121 1_455 S
N42 C44 1.375 . S
N42 C45 1.313 1_455 S
C43 C44 1.338 . S
C43 N46 1.377 1_455 S
C43 H63 0.930 . S
C44 N42 1.375 . S
C44 C43 1.338 . S
C44 H48 0.931 . S
C45 N42 1.313 1_655 S
C45 N46 1.344 . S
C45 H49 0.930 1_545 S
N46 C43 1.377 1_655 S
N46 C45 1.344 . S
O47 Co39 2.055 1_565 S
O47 C51 1.253 . S
H48 C44 0.931 . S
H49 C45 0.930 1_565 S
O50 Co39 2.039 1_455 S
O50 C40 1.265 . S
C51 O47 1.253 . S
C51 O52 1.227 . S
O52 C51 1.227 . S
N53 Co39 2.140 1_465 S
N53 C56 1.346 . S
N53 C57 1.345 . S
C54 C55 1.387 . S
C54 C58 1.391 . S
C55 C54 1.387 . S
C55 C56 1.369 . S
C55 H64 0.929 . S
C56 N53 1.346 . S
C56 C55 1.369 . S
C56 H59 0.928 1_565 S
C57 N53 1.345 . S
C57 C58 1.371 . S
C57 H60 0.931 . S
C58 C54 1.391 . S
C58 C57 1.371 . S
C58 H65 0.930 . S
H59 C56 0.928 1_545 S
H60 C57 0.931 . S
H61 C37 0.930 1_455 S
H62 C34 0.930 . S
H63 C43 0.930 . S
H64 C55 0.929 . S
H65 C58 0.930 . S
C66 C67 1.351 . S
C66 N69 1.368 . S
C66 H71 0.931 . S
C67 C66 1.351 . S
C67 N68 1.373 . S
C67 H95 0.930 . S
N68 C67 1.373 . S
N68 C70 1.340 . S
N69 C66 1.368 . S
N69 C70 1.321 . S
N69 Co72 2.135 . S
C70 N68 1.340 . S
C70 N69 1.321 . S
C70 H94 0.930 . S
H71 C66 0.931 . S
Co72 N69 2.135 . S
Co72 N75 2.121 . S
Co72 O80 2.055 . S
Co72 O83 2.039 . S
Co72 N86 2.140 . S
C73 O74 1.227 . S
C73 O83 1.265 . S
O74 C73 1.227 . S
N75 Co72 2.121 . S
N75 C77 1.375 . S
N75 C78 1.313 . S
C76 C77 1.338 . S
C76 N79 1.377 . S
C76 H96 0.930 . S
C77 N75 1.375 . S
C77 C76 1.338 . S
C77 H81 0.931 . S
C78 N75 1.313 . S
C78 N79 1.344 . S
C78 H82 0.930 . S
N79 C76 1.377 . S
N79 C78 1.344 . S
O80 Co72 2.055 . S
O80 C84 1.253 . S
H81 C77 0.931 . S
H82 C78 0.930 . S
O83 Co72 2.039 . S
O83 C73 1.265 . S
C84 O80 1.253 . S
C84 O85 1.227 . S
O85 C84 1.227 . S
N86 Co72 2.140 . S
N86 C89 1.346 . S
N86 C90 1.345 . S
C87 C88 1.387 . S
C87 C91 1.391 . S
C88 C87 1.387 . S
C88 C89 1.369 . S
C88 H97 0.929 . S
C89 N86 1.346 . S
C89 C88 1.369 . S
C89 H92 0.928 . S
C90 N86 1.345 . S
C90 C91 1.371 . S
C90 H93 0.931 . S
C91 C87 1.391 . S
C91 C90 1.371 . S
C91 H98 0.930 . S
H92 C89 0.928 . S
H93 C90 0.931 . S
H94 C70 0.930 . S
H95 C67 0.930 . S
H96 C76 0.930 . S
H97 C88 0.929 . S
H98 C91 0.930 . S
C99 C100 1.351 1_554 S
C99 N102 1.368 . S
C99 H104 0.931 . S
C100 C99 1.351 1_556 S
C100 N101 1.373 . S
C100 H128 0.930 . S
N101 C100 1.373 . S
N101 C103 1.340 1_556 S
N102 C99 1.368 . S
N102 C103 1.321 . S
N102 Co105 2.135 . S
C103 N101 1.340 1_554 S
C103 N102 1.321 . S
C103 H127 0.930 . S
H104 C99 0.931 . S
Co105 N102 2.135 . S
Co105 N108 2.121 . S
Co105 O113 2.055 . S
Co105 O116 2.039 . S
Co105 N119 2.140 . S
C106 O107 1.227 . S
C106 O116 1.265 . S
O107 C106 1.227 . S
N108 Co105 2.121 . S
N108 C110 1.375 . S
N108 C111 1.313 . S
C109 C110 1.338 . S
C109 N112 1.377 . S
C109 H129 0.930 . S
C110 N108 1.375 . S
C110 C109 1.338 . S
C110 H114 0.931 . S
C111 N108 1.313 . S
C111 N112 1.344 . S
C111 H115 0.930 . S
N112 C109 1.377 . S
N112 C111 1.344 . S
O113 Co105 2.055 . S
O113 C117 1.253 . S
H114 C110 0.931 . S
H115 C111 0.930 . S
O116 Co105 2.039 . S
O116 C106 1.265 . S
C117 O113 1.253 . S
C117 O118 1.227 . S
O118 C117 1.227 . S
N119 Co105 2.140 . S
N119 C122 1.346 . S
N119 C123 1.345 . S
C120 C121 1.387 . S
C120 C124 1.391 . S
C121 C120 1.387 . S
C121 C122 1.369 . S
C121 H130 0.929 . S
C122 N119 1.346 . S
C122 C121 1.369 . S
C122 H125 0.928 . S
C123 N119 1.345 . S
C123 C124 1.371 . S
C123 H126 0.931 . S
C124 C120 1.391 . S
C124 C123 1.371 . S
C124 H131 0.930 . S
H125 C122 0.928 . S
H126 C123 0.931 . S
H127 C103 0.930 . S
H128 C100 0.930 . S
H129 C109 0.930 . S
H130 C121 0.929 . S
H131 C124 0.930 . S
C132 C133 1.351 1_556 S
C132 N135 1.368 . S
C132 H137 0.931 . S
C133 C132 1.351 1_554 S
C133 N134 1.373 . S
C133 H161 0.930 . S
N134 C133 1.373 . S
N134 C136 1.340 1_554 S
N135 C132 1.368 . S
N135 C136 1.321 . S
N135 Co138 2.135 . S
C136 N134 1.340 1_556 S
C136 N135 1.321 . S
C136 H160 0.930 . S
H137 C132 0.931 . S
Co138 N135 2.135 . S
Co138 N141 2.121 . S
Co138 O146 2.055 . S
Co138 O149 2.039 . S
Co138 N152 2.140 . S
C139 O140 1.227 . S
C139 O149 1.265 . S
O140 C139 1.227 . S
N141 Co138 2.121 . S
N141 C143 1.375 . S
N141 C144 1.313 . S
C142 C143 1.338 . S
C142 N145 1.377 . S
C142 H162 0.930 . S
C143 N141 1.375 . S
C143 C142 1.338 . S
C143 H147 0.931 . S
C144 N141 1.313 . S
C144 N145 1.344 . S
C144 H148 0.930 . S
N145 C142 1.377 . S
N145 C144 1.344 . S
O146 Co138 2.055 . S
O146 C150 1.253 . S
H147 C143 0.931 . S
H148 C144 0.930 . S
O149 Co138 2.039 . S
O149 C139 1.265 . S
C150 O146 1.253 . S
C150 O151 1.227 . S
O151 C150 1.227 . S
N152 Co138 2.140 . S
N152 C155 1.346 . S
N152 C156 1.345 . S
C153 C154 1.387 . S
C153 C157 1.391 . S
C154 C153 1.387 . S
C154 C155 1.369 . S
C154 H163 0.929 . S
C155 N152 1.346 . S
C155 C154 1.369 . S
C155 H158 0.928 . S
C156 N152 1.345 . S
C156 C157 1.371 . S
C156 H159 0.931 . S
C157 C153 1.391 . S
C157 C156 1.371 . S
C157 H164 0.930 . S
H158 C155 0.928 . S
H159 C156 0.931 . S
H160 C136 0.930 . S
H161 C133 0.930 . S
H162 C142 0.930 . S
H163 C154 0.929 . S
H164 C157 0.930 . S
C165 C166 1.351 . S
C165 N168 1.368 . S
C165 H170 0.931 . S
C166 C165 1.351 . S
C166 N167 1.373 . S
C166 H194 0.930 . S
N167 C166 1.373 . S
N167 C169 1.340 . S
N168 C165 1.368 . S
N168 C169 1.321 . S
N168 Co171 2.135 . S
C169 N167 1.340 . S
C169 N168 1.321 . S
C169 H193 0.930 . S
H170 C165 0.931 . S
Co171 N168 2.135 . S
Co171 N174 2.121 . S
Co171 O179 2.055 . S
Co171 O182 2.039 . S
Co171 N185 2.140 . S
C172 O173 1.227 . S
C172 O182 1.265 . S
O173 C172 1.227 . S
N174 Co171 2.121 . S
N174 C176 1.375 . S
N174 C177 1.313 . S
C175 C176 1.338 . S
C175 N178 1.377 . S
C175 H195 0.930 . S
C176 N174 1.375 . S
C176 C175 1.338 . S
C176 H180 0.931 . S
C177 N174 1.313 . S
C177 N178 1.344 . S
C177 H181 0.930 . S
N178 C175 1.377 . S
N178 C177 1.344 . S
O179 Co171 2.055 . S
O179 C183 1.253 . S
H180 C176 0.931 . S
H181 C177 0.930 . S
O182 Co171 2.039 . S
O182 C172 1.265 . S
C183 O179 1.253 . S
C183 O184 1.227 . S
O184 C183 1.227 . S
N185 Co171 2.140 . S
N185 C188 1.346 . S
N185 C189 1.345 . S
C186 C187 1.387 . S
C186 C190 1.391 . S
C187 C186 1.387 . S
C187 C188 1.369 . S
C187 H196 0.929 . S
C188 N185 1.346 . S
C188 C187 1.369 . S
C188 H191 0.928 . S
C189 N185 1.345 . S
C189 C190 1.371 . S
C189 H192 0.931 . S
C190 C186 1.391 . S
C190 C189 1.371 . S
C190 H197 0.930 . S
H191 C188 0.928 . S
H192 C189 0.931 . S
H193 C169 0.930 . S
H194 C166 0.930 . S
H195 C175 0.930 . S
H196 C187 0.929 . S
H197 C190 0.930 . S
C198 C199 1.387 . S
C198 H202 0.950 . S
C198 C207 1.390 . S
C199 C198 1.387 . S
C199 C201 1.387 . S
H200 C207 0.950 . S
C201 C199 1.387 . S
C201 C203 1.390 . S
C201 H205 0.950 . S
H202 C198 0.950 . S
C203 C201 1.390 . S
C203 C204 1.387 . S
C203 H206 0.950 . S
C204 C203 1.387 . S
C204 C207 1.387 . S
H205 C201 0.950 . S
H206 C203 0.950 . S
C207 C198 1.390 . S
C207 H200 0.950 . S
C207 C204 1.387 . S
C208 C209 1.387 . S
C208 H212 0.950 . S
C208 C217 1.390 . S
C209 C208 1.387 . S
C209 C211 1.387 . S
H210 C217 0.950 . S
C211 C209 1.387 . S
C211 C213 1.390 . S
C211 H215 0.950 . S
H212 C208 0.950 . S
C213 C211 1.390 . S
C213 C214 1.387 . S
C213 H216 0.950 . S
C214 C213 1.387 . S
C214 C217 1.387 . S
H215 C211 0.950 . S
H216 C213 0.950 . S
C217 C208 1.390 . S
C217 H210 0.950 . S
C217 C214 1.387 . S
C218 C219 1.387 . S
C218 H222 0.950 . S
C218 C227 1.390 . S
C219 C218 1.387 . S
C219 C221 1.387 . S
H220 C227 0.950 . S
C221 C219 1.387 . S
C221 C223 1.390 . S
C221 H225 0.950 . S
H222 C218 0.950 . S
C223 C221 1.390 . S
C223 C224 1.387 . S
C223 H226 0.950 . S
C224 C223 1.387 . S
C224 C227 1.387 . S
H225 C221 0.950 . S
H226 C223 0.950 . S
C227 C218 1.390 . S
C227 H220 0.950 . S
C227 C224 1.387 . S
C228 C229 1.387 . S
C228 H232 0.950 . S
C228 C237 1.390 . S
C229 C228 1.387 . S
C229 C231 1.387 . S
H230 C237 0.950 . S
C231 C229 1.387 . S
C231 C233 1.390 . S
C231 H235 0.950 . S
H232 C228 0.950 . S
C233 C231 1.390 . S
C233 C234 1.387 . S
C233 H236 0.950 . S
C234 C233 1.387 . S
C234 C237 1.387 . S
H235 C231 0.950 . S
H236 C233 0.950 . S
C237 C228 1.390 . S
C237 H230 0.950 . S
C237 C234 1.387 . S
C238 C239 1.387 . S
C238 H242 0.950 . S
C238 C247 1.390 . S
C239 C238 1.387 . S
C239 C241 1.387 . S
H240 C247 0.950 . S
C241 C239 1.387 . S
C241 C243 1.390 . S
C241 H245 0.950 . S
H242 C238 0.950 . S
C243 C241 1.390 . S
C243 C244 1.387 . S
C243 H246 0.950 . S
C244 C243 1.387 . S
C244 C247 1.387 . S
H245 C241 0.950 . S
H246 C243 0.950 . S
C247 C238 1.390 . S
C247 H240 0.950 . S
C247 C244 1.387 . S
C248 C249 1.387 . S
C248 H252 0.950 . S
C248 C257 1.390 . S
C249 C248 1.387 . S
C249 C251 1.387 . S
H250 C257 0.950 . S
C251 C249 1.387 . S
C251 C253 1.390 . S
C251 H255 0.950 . S
H252 C248 0.950 . S
C253 C251 1.390 . S
C253 C254 1.387 . S
C253 H256 0.950 . S
C254 C253 1.387 . S
C254 C257 1.387 . S
H255 C251 0.950 . S
H256 C253 0.950 . S
C257 C248 1.390 . S
C257 H250 0.950 . S
C257 C254 1.387 . S
C258 C259 1.387 1_455 S
C258 H262 0.946 1_455 S
C258 C267 1.390 . S
C259 C258 1.387 1_655 S
C259 C261 1.387 . S
H260 C267 0.950 . S
C261 C259 1.387 . S
C261 C263 1.390 1_655 S
C261 H265 0.950 . S
H262 C258 0.946 1_655 S
C263 C261 1.390 1_455 S
C263 C264 1.387 . S
C263 H266 0.950 . S
C264 C263 1.387 . S
C264 C267 1.387 . S
H265 C261 0.950 . S
H266 C263 0.950 . S
C267 C258 1.390 . S
C267 H260 0.950 . S
C267 C264 1.387 . S
C268 C269 1.387 . S
C268 H272 0.950 . S
C268 C277 1.390 . S
C269 C268 1.387 . S
C269 C271 1.387 . S
H270 C277 0.950 . S
C271 C269 1.387 . S
C271 C273 1.390 . S
C271 H275 0.950 . S
H272 C268 0.950 . S
C273 C271 1.390 . S
C273 C274 1.387 . S
C273 H276 0.950 . S
C274 C273 1.387 . S
C274 C277 1.387 . S
H275 C271 0.950 . S
H276 C273 0.950 . S
C277 C268 1.390 . S
C277 H270 0.950 . S
C277 C274 1.387 . S
C278 C279 1.387 . S
C278 H282 0.950 . S
C278 C287 1.390 1_565 S
C279 C278 1.387 . S
C279 C281 1.387 . S
H280 C287 0.950 . S
C281 C279 1.387 . S
C281 C283 1.390 . S
C281 H285 0.950 . S
H282 C278 0.950 . S
C283 C281 1.390 . S
C283 C284 1.387 1_565 S
C283 H286 0.950 . S
C284 C283 1.387 1_545 S
C284 C287 1.387 . S
H285 C281 0.950 . S
H286 C283 0.950 . S
C287 C278 1.390 1_545 S
C287 H280 0.950 . S
C287 C284 1.387 . S
C288 C289 1.387 . S
C288 H292 0.950 1_455 S
C288 C297 1.390 . S
C289 C288 1.387 . S
C289 C291 1.387 1_545 S
H290 C297 0.950 . S
C291 C289 1.387 1_565 S
C291 C293 1.390 . S
C291 H295 0.950 . S
H292 C288 0.950 1_655 S
C293 C291 1.390 . S
C293 C294 1.387 1_565 S
C293 H296 0.950 . S
C294 C293 1.387 1_545 S
C294 C297 1.387 . S
H295 C291 0.950 . S
H296 C293 0.950 . S
C297 C288 1.390 . S
C297 H290 0.950 . S
C297 C294 1.387 . S
C298 C299 1.387 . S
C298 H302 0.950 . S
C298 C307 1.390 . S
C299 C298 1.387 . S
C299 C301 1.387 . S
H300 C307 0.950 . S
C301 C299 1.387 . S
C301 C303 1.390 . S
C301 H305 0.950 . S
H302 C298 0.950 . S
C303 C301 1.390 . S
C303 C304 1.387 . S
C303 H306 0.950 . S
C304 C303 1.387 . S
C304 C307 1.387 . S
H305 C301 0.950 . S
H306 C303 0.950 . S
C307 C298 1.390 . S
C307 H300 0.950 . S
C307 C304 1.387 . S
C308 C309 1.387 . S
C308 H312 0.950 . S
C308 C317 1.390 . S
C309 C308 1.387 . S
C309 C311 1.387 . S
H310 C317 0.950 . S
C311 C309 1.387 . S
C311 C313 1.390 . S
C311 H315 0.950 . S
H312 C308 0.950 . S
C313 C311 1.390 . S
C313 C314 1.387 . S
C313 H316 0.950 . S
C314 C313 1.387 . S
C314 C317 1.387 . S
H315 C311 0.950 . S
H316 C313 0.950 . S
C317 C308 1.390 . S
C317 H310 0.950 . S
C317 C314 1.387 . S
C318 C319 1.387 . S
C318 H322 0.950 . S
C318 C327 1.390 1_554 S
C319 C318 1.387 . S
C319 C321 1.387 1_545 S
H320 C327 0.950 . S
C321 C319 1.387 1_565 S
C321 C323 1.390 1_454 S
C321 H325 0.950 . S
H322 C318 0.950 . S
C323 C321 1.390 1_656 S
C323 C324 1.387 . S
C323 H326 0.950 . S
C324 C323 1.387 . S
C324 C327 1.387 1_665 S
H325 C321 0.950 . S
H326 C323 0.950 . S
C327 C318 1.390 1_556 S
C327 H320 0.950 . S
C327 C324 1.387 1_445 S
C328 C329 1.387 . S
C328 H332 0.950 . S
C328 C337 1.390 . S
C329 C328 1.387 . S
C329 C331 1.387 . S
H330 C337 0.950 . S
C331 C329 1.387 . S
C331 C333 1.390 . S
C331 H335 0.950 . S
H332 C328 0.950 . S
C333 C331 1.390 . S
C333 C334 1.387 . S
C333 H336 0.950 . S
C334 C333 1.387 . S
C334 C337 1.387 . S
H335 C331 0.950 . S
H336 C333 0.950 . S
C337 C328 1.390 . S
C337 H330 0.950 . S
C337 C334 1.387 . S
C338 C339 1.387 . S
C338 H342 0.950 . S
C338 C347 1.390 . S
C339 C338 1.387 . S
C339 C341 1.387 . S
H340 C347 0.950 . S
C341 C339 1.387 . S
C341 C343 1.390 . S
C341 H345 0.950 . S
H342 C338 0.950 . S
C343 C341 1.390 . S
C343 C344 1.387 . S
C343 H346 0.950 . S
C344 C343 1.387 . S
C344 C347 1.387 . S
H345 C341 0.950 . S
H346 C343 0.950 . S
C347 C338 1.390 . S
C347 H340 0.950 . S
C347 C344 1.387 . S
C199 C18 1.941 . S
C204 C117 1.941 . S
C209 C7 1.646 . S
C214 C120 1.624 . S
C219 C106 1.646 . S
C224 C21 1.624 . S
C229 C40 1.647 . S
C234 C153 1.626 . S
C239 C150 1.939 . S
C244 C51 1.939 . S
C249 C54 1.623 . S
C254 C139 1.645 . S
C259 C84 1.939 . S
C264 C183 1.939 . S
C269 C73 1.645 . S
C274 C186 1.623 . S
C279 C172 1.645 . S
C284 C87 1.623 . S
C289 N35 2.088 1_455 S
C294 N2 2.089 . S
C299 N101 2.089 . S
C304 N68 2.088 . S
C309 N167 2.090 . S
C314 N134 2.089 . S
C319 N13 0.698 . S
C324 N46 0.698 1_565 S
C329 N112 0.706 . S
C334 N79 0.708 . S
C339 N178 0.698 . S
C344 N145 0.698 . S
