# Generated by pormake.
# Topology wft, (7)-cn, num edge types: 1
# Building blocks:
#     Node 0, Type 0, BuildingBlock: HICVOG_clean_sbu_0, # of connection points: 7
#     Node 1, Type 0, BuildingBlock: HICVOG_clean_sbu_0, # of connection points: 7
#     Node 2, Type 0, BuildingBlock: HICVOG_clean_sbu_0, # of connection points: 7
#     Node 3, Type 0, BuildingBlock: HICVOG_clean_sbu_0, # of connection points: 7
#     Node 4, Type 0, BuildingBlock: HICVOG_clean_sbu_0, # of connection points: 7
#     Node 5, Type 0, BuildingBlock: HICVOG_clean_sbu_0, # of connection points: 7
#     Node 6, Type 0, BuildingBlock: HICVOG_clean_sbu_0, # of connection points: 7
#     Node 7, Type 0, BuildingBlock: HICVOG_clean_sbu_0, # of connection points: 7
#     Edge 8, Type (0, 0), BuildingBlock: ZUJKAS_clean_linker_0, # of connection points: 2
#     Edge 9, Type (0, 0), BuildingBlock: ZUJKAS_clean_linker_0, # of connection points: 2
#     Edge 10, Type (0, 0), BuildingBlock: ZUJKAS_clean_linker_0, # of connection points: 2
#     Edge 11, Type (0, 0), BuildingBlock: ZUJKAS_clean_linker_0, # of connection points: 2
#     Edge 12, Type (0, 0), BuildingBlock: ZUJKAS_clean_linker_0, # of connection points: 2
#     Edge 13, Type (0, 0), BuildingBlock: ZUJKAS_clean_linker_0, # of connection points: 2
#     Edge 14, Type (0, 0), BuildingBlock: ZUJKAS_clean_linker_0, # of connection points: 2
#     Edge 15, Type (0, 0), BuildingBlock: ZUJKAS_clean_linker_0, # of connection points: 2
#     Edge 16, Type (0, 0), BuildingBlock: ZUJKAS_clean_linker_0, # of connection points: 2
#     Edge 17, Type (0, 0), BuildingBlock: ZUJKAS_clean_linker_0, # of connection points: 2
#     Edge 18, Type (0, 0), BuildingBlock: ZUJKAS_clean_linker_0, # of connection points: 2
#     Edge 19, Type (0, 0), BuildingBlock: ZUJKAS_clean_linker_0, # of connection points: 2
#     Edge 20, Type (0, 0), BuildingBlock: ZUJKAS_clean_linker_0, # of connection points: 2
#     Edge 21, Type (0, 0), BuildingBlock: ZUJKAS_clean_linker_0, # of connection points: 2
#     Edge 22, Type (0, 0), BuildingBlock: ZUJKAS_clean_linker_0, # of connection points: 2
#     Edge 23, Type (0, 0), BuildingBlock: ZUJKAS_clean_linker_0, # of connection points: 2
#     Edge 24, Type (0, 0), BuildingBlock: ZUJKAS_clean_linker_0, # of connection points: 2
#     Edge 25, Type (0, 0), BuildingBlock: ZUJKAS_clean_linker_0, # of connection points: 2
#     Edge 26, Type (0, 0), BuildingBlock: ZUJKAS_clean_linker_0, # of connection points: 2
#     Edge 27, Type (0, 0), BuildingBlock: ZUJKAS_clean_linker_0, # of connection points: 2
#     Edge 28, Type (0, 0), BuildingBlock: ZUJKAS_clean_linker_0, # of connection points: 2
#     Edge 29, Type (0, 0), BuildingBlock: ZUJKAS_clean_linker_0, # of connection points: 2
#     Edge 30, Type (0, 0), BuildingBlock: ZUJKAS_clean_linker_0, # of connection points: 2
#     Edge 31, Type (0, 0), BuildingBlock: ZUJKAS_clean_linker_0, # of connection points: 2
#     Edge 32, Type (0, 0), BuildingBlock: ZUJKAS_clean_linker_0, # of connection points: 2
#     Edge 33, Type (0, 0), BuildingBlock: ZUJKAS_clean_linker_0, # of connection points: 2
#     Edge 34, Type (0, 0), BuildingBlock: ZUJKAS_clean_linker_0, # of connection points: 2
#     Edge 35, Type (0, 0), BuildingBlock: ZUJKAS_clean_linker_0, # of connection points: 2
# Relax obj value: 0.189
# Max RMSD: 0.215
# Mean RMSD: 0.215
data_MOF--net-wft--node1-HICVOG_clean_sbu_0--edge1-ZUJKAS_clean_linker_0
_symmetry_space_group_name_H-M    P1
_symmetry_Int_Tables_number       1
_symmetry_cell_setting            triclinic
loop_
_symmetry_equiv_pos_as_xyz
'x, y, z'
_cell_length_a     40.800164
_cell_length_b     40.9322
_cell_length_c     38.300007
_cell_angle_alpha  90.137052
_cell_angle_beta   90.131039
_cell_angle_gamma 90.047196
loop_
_atom_site_label
_atom_site_type_symbol
_atom_site_fract_x
_atom_site_fract_y
_atom_site_fract_z
_atom_type_partial_charge
Zn0 Zn 0.33752 0.29299 0.347 0.0
C1 C 0.34131 0.26481 0.24497 0.0
N2 N 0.3089 0.27034 0.24621 0.0
C3 C 0.30388 0.27811 0.27982 0.0
N4 N 0.33225 0.27777 0.29847 0.0
N5 N 0.3559 0.26907 0.27635 0.0
C6 C 0.45651 0.27597 0.25419 0.0
O7 O 0.44937 0.30128 0.2739 0.0
O8 O 0.31442 0.2642 0.38274 0.0
Zn9 Zn 0.39861 0.25019 0.28885 0.0
N10 N 0.32097 0.33748 0.35072 0.0
C11 C 0.29996 0.38555 0.32399 0.0
C12 C 0.31072 0.35339 0.32155 0.0
C13 C 0.32216 0.35307 0.3822 0.0
N14 N 0.30109 0.40105 0.35529 0.0
C15 C 0.31227 0.386 0.38466 0.0
O16 O 0.41948 0.26903 0.33201 0.0
C17 C 0.41304 0.28615 0.3588 0.0
O18 O 0.3841 0.29599 0.36503 0.0
H19 H 0.31139 0.34157 0.2964 0.0
H20 H 0.33092 0.33989 0.40481 0.0
C21 C 0.4143 0.18219 0.29175 0.0
C22 C 0.4078 0.14882 0.29724 0.0
C23 C 0.35363 0.16244 0.31473 0.0
C24 C 0.36015 0.19534 0.30891 0.0
N25 N 0.39031 0.20456 0.29761 0.0
N26 N 0.37748 0.14006 0.30878 0.0
H27 H 0.43814 0.19062 0.28342 0.0
C28 C 0.33028 0.24026 0.39564 0.0
O29 O 0.35902 0.23291 0.38241 0.0
O30 O 0.43601 0.25243 0.25259 0.0
H31 H 0.34132 0.21337 0.31346 0.0
H32 H 0.29141 0.39837 0.30105 0.0
H33 H 0.32979 0.1547 0.32387 0.0
Zn34 Zn 0.25943 0.62989 0.71927 0.0
C35 C 0.27223 0.72801 0.73054 0.0
N36 N 0.26171 0.72211 0.76312 0.0
C37 C 0.25845 0.68948 0.76364 0.0
N38 N 0.26688 0.6756 0.73293 0.0
N39 N 0.27579 0.69995 0.7119 0.0
C40 C 0.23852 0.71625 0.62232 0.0
O41 O 0.21986 0.7098 0.64934 0.0
O42 O 0.2567 0.59469 0.7578 0.0
Zn43 Zn 0.29666 0.6959 0.66556 0.0
N44 N 0.21914 0.62816 0.69286 0.0
C45 C 0.1927 0.63608 0.63824 0.0
C46 C 0.2205 0.63817 0.65915 0.0
C47 C 0.19119 0.61534 0.70652 0.0
N48 N 0.16485 0.62322 0.6517 0.0
C49 C 0.16306 0.61249 0.6853 0.0
O50 O 0.30821 0.65005 0.6497 0.0
C51 C 0.30814 0.62042 0.65954 0.0
O52 O 0.29358 0.61168 0.68718 0.0
H53 H 0.24309 0.64764 0.64862 0.0
H54 H 0.19161 0.60643 0.73304 0.0
C55 C 0.3572 0.71757 0.63652 0.0
C56 C 0.38978 0.72899 0.63732 0.0
C57 C 0.38397 0.74041 0.69785 0.0
C58 C 0.35224 0.72794 0.69713 0.0
N59 N 0.33917 0.71737 0.66643 0.0
N60 N 0.40202 0.74034 0.66817 0.0
H61 H 0.34671 0.70724 0.613 0.0
C62 C 0.25474 0.5664 0.74368 0.0
O63 O 0.25292 0.56433 0.70951 0.0
O64 O 0.26953 0.714 0.62526 0.0
H65 H 0.33871 0.7257 0.72114 0.0
H66 H 0.19333 0.64415 0.61138 0.0
H67 H 0.39459 0.7491 0.72206 0.0
Zn68 Zn 0.63438 0.78277 0.29612 0.0
C69 C 0.73182 0.76351 0.28384 0.0
N70 N 0.72557 0.77229 0.25074 0.0
C71 C 0.69305 0.7773 0.25076 0.0
N72 N 0.67952 0.7716 0.28231 0.0
N73 N 0.70401 0.76263 0.30334 0.0
C74 C 0.72589 0.8014 0.39274 0.0
O75 O 0.72133 0.82042 0.3656 0.0
O76 O 0.59894 0.78628 0.25779 0.0
Zn77 Zn 0.69979 0.74393 0.35061 0.0
N78 N 0.63617 0.82433 0.31958 0.0
C79 C 0.65051 0.85336 0.37115 0.0
C80 C 0.64961 0.82448 0.35199 0.0
C81 C 0.62259 0.85173 0.30569 0.0
N82 N 0.63706 0.88074 0.3574 0.0
C83 C 0.62283 0.881 0.32517 0.0
O84 O 0.65333 0.73575 0.36703 0.0
C85 C 0.6232 0.73826 0.35895 0.0
O86 O 0.61415 0.75315 0.33157 0.0
H87 H 0.65926 0.80216 0.3629 0.0
H88 H 0.61077 0.85006 0.28049 0.0
C89 C 0.71951 0.68393 0.38207 0.0
C90 C 0.73031 0.65123 0.38286 0.0
C91 C 0.74032 0.65387 0.32182 0.0
C92 C 0.72835 0.68569 0.32103 0.0
N93 N 0.71891 0.70043 0.35122 0.0
N94 N 0.74084 0.63741 0.35251 0.0
H95 H 0.71118 0.69619 0.40546 0.0
C96 C 0.58009 0.76189 0.25232 0.0
O97 O 0.58835 0.73349 0.2656 0.0
O98 O 0.7203 0.77087 0.39002 0.0
H99 H 0.72596 0.69814 0.29639 0.0
H100 H 0.66131 0.85393 0.39696 0.0
H101 H 0.74832 0.642 0.29806 0.0
Zn102 Zn 0.78044 0.40523 0.72248 0.0
C103 C 0.76555 0.30694 0.73144 0.0
N104 N 0.77465 0.31247 0.76464 0.0
C105 C 0.77835 0.34507 0.76575 0.0
N106 N 0.77158 0.3593 0.73478 0.0
N107 N 0.76332 0.33518 0.71297 0.0
C108 C 0.80092 0.31438 0.62366 0.0
O109 O 0.82019 0.32094 0.65027 0.0
O110 O 0.78306 0.43989 0.76166 0.0
Zn111 Zn 0.7438 0.33969 0.666 0.0
N112 N 0.82195 0.4065 0.6989 0.0
C113 C 0.85133 0.3945 0.64696 0.0
C114 C 0.82297 0.39228 0.66691 0.0
C115 C 0.84786 0.4238 0.71161 0.0
N116 N 0.8771 0.41199 0.65936 0.0
C117 C 0.87628 0.42699 0.69115 0.0
O118 O 0.73572 0.38614 0.64949 0.0
C119 C 0.73671 0.41599 0.65877 0.0
O120 O 0.74985 0.42473 0.68737 0.0
H121 H 0.80155 0.37999 0.65679 0.0
H122 H 0.84558 0.43622 0.73644 0.0
C123 C 0.68242 0.31901 0.63624 0.0
C124 C 0.64947 0.30861 0.63713 0.0
C125 C 0.65411 0.30123 0.69847 0.0
C126 C 0.68628 0.31246 0.69755 0.0
N127 N 0.70006 0.32066 0.66649 0.0
N128 N 0.63647 0.29985 0.66847 0.0
H129 H 0.69358 0.32722 0.61221 0.0
C130 C 0.75874 0.45893 0.76663 0.0
O131 O 0.73041 0.45118 0.75248 0.0
O132 O 0.77011 0.31861 0.62658 0.0
H133 H 0.69975 0.31543 0.72161 0.0
H134 H 0.85257 0.38317 0.62146 0.0
H135 H 0.64291 0.29447 0.723 0.0
Zn136 Zn 0.89846 0.28494 0.2259 0.0
C137 C 0.80383 0.25764 0.2371 0.0
N138 N 0.80944 0.26606 0.27048 0.0
C139 C 0.84189 0.27162 0.27105 0.0
N140 N 0.85587 0.26676 0.23955 0.0
N141 N 0.83181 0.25766 0.218 0.0
C142 C 0.82966 0.29298 0.11996 0.0
O143 O 0.85875 0.29976 0.13279 0.0
O144 O 0.93645 0.28389 0.26187 0.0
Zn145 Zn 0.836 0.24116 0.16989 0.0
N146 N 0.89017 0.33014 0.21492 0.0
C147 C 0.85399 0.3712 0.1939 0.0
C148 C 0.86024 0.33872 0.20229 0.0
C149 C 0.91403 0.35284 0.2201 0.0
N150 N 0.87781 0.39388 0.19892 0.0
C151 C 0.90774 0.38574 0.21208 0.0
O152 O 0.88229 0.23653 0.15165 0.0
C153 C 0.91142 0.24626 0.15735 0.0
O154 O 0.91835 0.26423 0.18339 0.0
H155 H 0.84142 0.32048 0.1985 0.0
H156 H 0.93769 0.34509 0.22982 0.0
C157 C 0.81544 0.18138 0.13664 0.0
C158 C 0.80428 0.14877 0.13559 0.0
C159 C 0.79819 0.14989 0.19726 0.0
C160 C 0.81021 0.18169 0.19821 0.0
N161 N 0.81795 0.19714 0.16793 0.0
N162 N 0.79563 0.13422 0.16616 0.0
H163 H 0.82228 0.19418 0.11308 0.0
C164 C 0.95667 0.26009 0.26132 0.0
O165 O 0.94915 0.23412 0.24271 0.0
O166 O 0.8133 0.26967 0.13344 0.0
H167 H 0.81377 0.19365 0.22305 0.0
H168 H 0.8304 0.37836 0.18351 0.0
H169 H 0.79156 0.13748 0.22113 0.0
Zn170 Zn 0.28013 0.13013 0.79291 0.0
C171 C 0.25913 0.22651 0.7847 0.0
N172 N 0.26941 0.22236 0.75174 0.0
C173 C 0.27402 0.18989 0.7497 0.0
N174 N 0.26691 0.17459 0.77998 0.0
N175 N 0.25732 0.19781 0.80218 0.0
C176 C 0.29202 0.22398 0.89079 0.0
O177 O 0.31131 0.22031 0.86369 0.0
O178 O 0.28283 0.0936 0.75532 0.0
Zn179 Zn 0.23773 0.19245 0.84891 0.0
N180 N 0.32242 0.13431 0.81514 0.0
C181 C 0.35212 0.15164 0.86525 0.0
C182 C 0.32281 0.14915 0.84682 0.0
C183 C 0.35006 0.12113 0.80123 0.0
N184 N 0.37956 0.13782 0.85187 0.0
C185 C 0.37955 0.12218 0.8204 0.0
O186 O 0.23212 0.14605 0.86617 0.0
C187 C 0.2363 0.1166 0.85662 0.0
O188 O 0.25165 0.10958 0.8289 0.0
H189 H 0.30029 0.15845 0.85777 0.0
H190 H 0.34832 0.10847 0.77654 0.0
C191 C 0.17545 0.21196 0.87703 0.0
C192 C 0.14177 0.21949 0.87515 0.0
C193 C 0.14542 0.21973 0.81322 0.0
C194 C 0.17838 0.21126 0.81527 0.0
N195 N 0.19294 0.20816 0.84702 0.0
N196 N 0.12792 0.22334 0.84303 0.0
H197 H 0.18739 0.20751 0.9018 0.0
C198 C 0.29188 0.06687 0.76975 0.0
O199 O 0.29855 0.06729 0.80333 0.0
O200 O 0.26197 0.21587 0.88835 0.0
H201 H 0.19205 0.20651 0.79169 0.0
H202 H 0.35289 0.16359 0.89047 0.0
H203 H 0.13357 0.22254 0.78811 0.0
Zn204 Zn 0.20255 0.79133 0.16807 0.0
C205 C 0.19286 0.77081 0.27135 0.0
N206 N 0.22496 0.77811 0.27203 0.0
C207 C 0.23238 0.78147 0.2381 0.0
N208 N 0.20559 0.77753 0.21745 0.0
N209 N 0.18078 0.76981 0.23852 0.0
C210 C 0.07343 0.741 0.24265 0.0
O211 O 0.07551 0.73101 0.21011 0.0
O212 O 0.22429 0.76066 0.13262 0.0
Zn213 Zn 0.13958 0.74919 0.2238 0.0
N214 N 0.22156 0.83481 0.16377 0.0
C215 C 0.24184 0.88392 0.18933 0.0
C216 C 0.22965 0.85235 0.19276 0.0
C217 C 0.22342 0.84848 0.13144 0.0
N218 N 0.24368 0.89752 0.15718 0.0
C219 C 0.2343 0.88098 0.12793 0.0
O220 O 0.12062 0.77011 0.18077 0.0
C221 C 0.12754 0.78806 0.15486 0.0
O222 O 0.1567 0.79748 0.14922 0.0
H223 H 0.226 0.84246 0.21847 0.0
H224 H 0.21589 0.83427 0.10895 0.0
C225 C 0.13105 0.67867 0.22189 0.0
C226 C 0.13991 0.64667 0.21241 0.0
C227 C 0.1891 0.66711 0.18775 0.0
C228 C 0.18003 0.69875 0.19698 0.0
N229 N 0.15094 0.70408 0.21324 0.0
N230 N 0.16876 0.6419 0.19535 0.0
H231 H 0.10831 0.68337 0.23527 0.0
C232 C 0.20658 0.7394 0.11708 0.0
O233 O 0.17611 0.73549 0.12719 0.0
O234 O 0.09975 0.75058 0.25786 0.0
H235 H 0.19602 0.71895 0.19093 0.0
H236 H 0.24884 0.89792 0.21215 0.0
H237 H 0.21199 0.66263 0.17438 0.0
Zn238 Zn 0.75127 0.89919 0.79103 0.0
C239 C 0.77752 0.80465 0.78016 0.0
N240 N 0.76884 0.81013 0.74686 0.0
C241 C 0.76402 0.84257 0.74616 0.0
N242 N 0.76961 0.85671 0.77751 0.0
N243 N 0.77842 0.83272 0.79912 0.0
C244 C 0.74469 0.82862 0.89703 0.0
O245 O 0.73663 0.85694 0.88345 0.0
O246 O 0.75656 0.93909 0.75749 0.0
Zn247 Zn 0.79625 0.8364 0.8471 0.0
N248 N 0.70496 0.89077 0.79826 0.0
C249 C 0.66361 0.85345 0.81644 0.0
C250 C 0.69655 0.86137 0.81207 0.0
C251 C 0.68155 0.91247 0.78822 0.0
N252 N 0.6403 0.87536 0.80702 0.0
C253 C 0.6483 0.9049 0.79317 0.0
O254 O 0.80072 0.88204 0.86696 0.0
C255 C 0.78958 0.91051 0.86138 0.0
O256 O 0.77142 0.91652 0.83527 0.0
H257 H 0.71527 0.84399 0.81925 0.0
H258 H 0.68862 0.93507 0.77589 0.0
C259 C 0.85843 0.81888 0.87759 0.0
C260 C 0.89172 0.80963 0.87693 0.0
C261 C 0.8875 0.80078 0.81576 0.0
C262 C 0.85497 0.81086 0.81643 0.0
N263 N 0.84081 0.81926 0.84729 0.0
N264 N 0.90508 0.80066 0.84581 0.0
H265 H 0.84694 0.82712 0.90147 0.0
C266 C 0.74915 0.96577 0.77318 0.0
O267 O 0.73762 0.96394 0.8051 0.0
O268 O 0.7688 0.81306 0.88397 0.0
H269 H 0.84156 0.81278 0.79226 0.0
H270 H 0.6566 0.83011 0.82731 0.0
H271 H 0.89897 0.79391 0.79139 0.0
H272 H 0.38944 0.29578 0.20834 0.0
H273 H 0.39771 0.29006 0.14498 0.0
H274 H 0.33345 0.20635 0.14397 0.0
H275 H 0.32549 0.21193 0.20683 0.0
H276 H 0.38396 0.20226 0.09374 0.0
H277 H 0.31686 0.32069 0.0891 0.0
H278 H 0.35516 0.32031 0.11237 0.0
H279 H 0.32093 0.29749 0.12883 0.0
C280 C 0.37855 0.2752 0.19477 0.0
C281 C 0.35699 0.25416 0.21231 0.0
C282 C 0.38285 0.27222 0.15853 0.0
C283 C 0.36554 0.24824 0.1396 0.0
C284 C 0.34695 0.22511 0.15791 0.0
H285 H 0.25886 0.2354 0.95157 0.0
H286 H 0.28181 0.24388 0.00984 0.0
C287 C 0.34256 0.22817 0.1939 0.0
C288 C 0.36231 0.24968 0.10091 0.0
H289 H 0.324 0.29288 0.03632 0.0
C290 C 0.37149 0.22236 0.08097 0.0
C291 C 0.34546 0.27571 0.08443 0.0
C292 C 0.33376 0.30517 0.10466 0.0
C293 C 0.36329 0.21985 0.04533 0.0
C294 C 0.34568 0.24551 0.02915 0.0
C295 C 0.33762 0.27335 0.04875 0.0
C296 C 0.3324 0.24249 0.99307 0.0
C297 C 0.37185 0.18899 0.02578 0.0
C298 C 0.35318 0.23972 0.96404 0.0
C299 C 0.34008 0.23495 0.93052 0.0
C300 C 0.30594 0.23284 0.92544 0.0
C301 C 0.28524 0.2368 0.95447 0.0
C302 C 0.29833 0.24166 0.98785 0.0
H303 H 0.38055 0.16936 0.0435 0.0
H304 H 0.35028 0.17981 0.01096 0.0
H305 H 0.39161 0.1943 1.00676 0.0
H306 H 0.37952 0.24084 0.96735 0.0
H307 H 0.35675 0.23202 0.90878 0.0
H308 H 0.26168 0.75227 0.07811 0.0
H309 H 0.27381 0.73185 0.01926 0.0
H310 H 0.1883 0.67007 0.02305 0.0
H311 H 0.17623 0.68992 0.0818 0.0
H312 H 0.24349 0.64068 0.98832 0.0
H313 H 0.21411 0.7651 0.9394 0.0
H314 H 0.24607 0.76329 0.97168 0.0
H315 H 0.20487 0.75239 0.98335 0.0
C316 C 0.24588 0.7338 0.06674 0.0
C317 C 0.21773 0.72309 0.08451 0.0
C318 C 0.25275 0.72226 0.03303 0.0
C319 C 0.23162 0.69985 0.01652 0.0
C320 C 0.20487 0.68743 0.03518 0.0
H321 H 0.19965 0.69084 0.79532 0.0
H322 H 0.19151 0.68592 0.85831 0.0
C323 C 0.19795 0.69895 0.06878 0.0
C324 C 0.23524 0.69185 0.97879 0.0
H325 H 0.23026 0.72608 0.89778 0.0
C326 C 0.24073 0.65932 0.96846 0.0
C327 C 0.23101 0.71608 0.9529 0.0
C328 C 0.22341 0.75114 0.9622 0.0
C329 C 0.24242 0.65051 0.93287 0.0
C330 C 0.23861 0.67489 0.90707 0.0
C331 C 0.23308 0.70733 0.91753 0.0
C332 C 0.24042 0.66802 0.8689 0.0
C333 C 0.24759 0.61518 0.92315 0.0
C334 C 0.26987 0.65752 0.85354 0.0
C335 C 0.27424 0.65967 0.81727 0.0
C336 C 0.24933 0.67259 0.79605 0.0
C337 C 0.21892 0.68007 0.81104 0.0
C338 C 0.21443 0.67765 0.84711 0.0
H339 H 0.24189 0.59857 0.94523 0.0
H340 H 0.23215 0.60827 0.90038 0.0
H341 H 0.27362 0.61148 0.91584 0.0
H342 H 0.29048 0.65054 0.86973 0.0
H343 H 0.29823 0.65472 0.80643 0.0
H344 H 0.69197 0.85598 0.92968 0.0
H345 H 0.67238 0.84538 0.9888 0.0
H346 H 0.74268 0.76747 0.99948 0.0
H347 H 0.76282 0.77818 0.94032 0.0
H348 H 0.6476 0.7899 0.0255 0.0
H349 H 0.76745 0.83287 0.07737 0.0
H350 H 0.75536 0.83879 0.0325 0.0
H351 H 0.76998 0.79963 0.0468 0.0
C352 C 0.70302 0.83624 0.94434 0.0
C353 C 0.72932 0.81822 0.93037 0.0
C354 C 0.69167 0.83016 0.97816 0.0
C355 C 0.70642 0.80603 0.99881 0.0
C356 C 0.73128 0.78658 0.98419 0.0
H357 H 0.66164 0.73658 0.20624 0.0
H358 H 0.65804 0.74544 0.14316 0.0
C359 C 0.74266 0.79262 0.95029 0.0
C360 C 0.69767 0.80322 0.0364 0.0
H361 H 0.72939 0.81296 0.11831 0.0
C362 C 0.66544 0.79492 0.04586 0.0
C363 C 0.72076 0.81044 0.06294 0.0
C364 C 0.75525 0.82123 0.05455 0.0
C365 C 0.65592 0.79304 0.08118 0.0
C366 C 0.6793 0.79946 0.10768 0.0
C367 C 0.71137 0.80813 0.09807 0.0
C368 C 0.67197 0.79645 0.14566 0.0
C369 C 0.62087 0.78468 0.0898 0.0
C370 C 0.67944 0.82246 0.16837 0.0
C371 C 0.68151 0.81733 0.20441 0.0
C372 C 0.67586 0.7862 0.21839 0.0
C373 C 0.66509 0.76105 0.19616 0.0
C374 C 0.66326 0.76609 0.16001 0.0
H375 H 0.6042 0.78988 0.06752 0.0
H376 H 0.61913 0.75822 0.09575 0.0
H377 H 0.6123 0.79853 0.11301 0.0
H378 H 0.68632 0.84608 0.15798 0.0
H379 H 0.69071 0.83684 0.22092 0.0
H380 H 0.73771 0.37729 0.80974 0.0
H381 H 0.74596 0.38071 0.87305 0.0
H382 H 0.84614 0.34948 0.86013 0.0
H383 H 0.8375 0.34527 0.79707 0.0
H384 H 0.81055 0.30756 0.89928 0.0
H385 H 0.79222 0.43351 0.94919 0.0
H386 H 0.76046 0.41947 0.92026 0.0
H387 H 0.80137 0.42488 0.90396 0.0
C388 C 0.76199 0.37308 0.82031 0.0
C389 C 0.78716 0.36157 0.79859 0.0
C390 C 0.76667 0.37482 0.85658 0.0
C391 C 0.79668 0.36528 0.8715 0.0
C392 C 0.82279 0.357 0.8493 0.0
H393 H 0.85856 0.34426 0.08648 0.0
H394 H 0.84736 0.36396 0.02749 0.0
C395 C 0.818 0.355 0.8132 0.0
C396 C 0.79917 0.35805 0.90954 0.0
H397 H 0.79175 0.39067 0.99148 0.0
C398 C 0.80659 0.32584 0.91939 0.0
C399 C 0.79389 0.38179 0.93585 0.0
C400 C 0.78682 0.41694 0.92689 0.0
C401 C 0.80891 0.31669 0.95459 0.0
C402 C 0.80299 0.34021 0.98095 0.0
C403 C 0.7958 0.37254 0.97125 0.0
C404 C 0.80616 0.33173 0.01858 0.0
C405 C 0.81843 0.28198 0.96323 0.0
C406 C 0.78591 0.30789 0.03379 0.0
C407 C 0.7923 0.29644 0.06761 0.0
C408 C 0.81905 0.30867 0.08684 0.0
C409 C 0.83792 0.33406 0.07233 0.0
C410 C 0.8315 0.34548 0.0386 0.0
H411 H 0.82912 0.2691 0.94037 0.0
H412 H 0.83648 0.28141 0.98496 0.0
H413 H 0.79632 0.26829 0.97158 0.0
H414 H 0.7659 0.29727 0.01899 0.0
H415 H 0.77718 0.27701 0.078 0.0
H416 H 0.82661 0.32445 0.30936 0.0
H417 H 0.83769 0.33151 0.37145 0.0
H418 H 0.9025 0.24831 0.36919 0.0
H419 H 0.89114 0.24121 0.30652 0.0
H420 H 0.85228 0.24049 0.41485 0.0
H421 H 0.90802 0.36127 0.43867 0.0
H422 H 0.87368 0.36467 0.40964 0.0
H423 H 0.90917 0.3416 0.39639 0.0
C424 C 0.84454 0.30873 0.32174 0.0
C425 C 0.85839 0.28259 0.30319 0.0
C426 C 0.85089 0.31276 0.35731 0.0
C427 C 0.8711 0.29058 0.37512 0.0
C428 C 0.88703 0.26589 0.35597 0.0
H429 H 0.86561 0.31459 0.60426 0.0
H430 H 0.88813 0.3051 0.54582 0.0
C431 C 0.88085 0.26203 0.32012 0.0
C432 C 0.87039 0.28997 0.41397 0.0
H433 H 0.87332 0.34015 0.48533 0.0
C434 C 0.85769 0.26203 0.43037 0.0
C435 C 0.87763 0.31789 0.43445 0.0
C436 C 0.89321 0.34791 0.41887 0.0
C437 C 0.84983 0.2621 0.46607 0.0
C438 C 0.85434 0.291 0.48582 0.0
C439 C 0.86933 0.31813 0.47008 0.0
C440 C 0.84126 0.29444 0.52186 0.0
C441 C 0.83589 0.23147 0.48207 0.0
C442 C 0.80743 0.29157 0.52786 0.0
C443 C 0.79448 0.29701 0.56114 0.0
C444 C 0.81508 0.30554 0.58922 0.0
C445 C 0.84906 0.30782 0.58331 0.0
C446 C 0.86199 0.30253 0.54989 0.0
H447 H 0.84363 0.20935 0.4674 0.0
H448 H 0.84362 0.22888 0.50974 0.0
H449 H 0.80873 0.23264 0.48119 0.0
H450 H 0.79086 0.28601 0.50652 0.0
H451 H 0.76821 0.29521 0.56466 0.0
H452 H 0.33219 0.19776 0.71772 0.0
H453 H 0.34067 0.19406 0.65461 0.0
H454 H 0.24597 0.14855 0.64281 0.0
H455 H 0.23783 0.15156 0.70631 0.0
H456 H 0.29625 0.12804 0.59118 0.0
H457 H 0.28134 0.2623 0.60403 0.0
H458 H 0.31381 0.24565 0.63024 0.0
H459 H 0.27204 0.23445 0.63908 0.0
C460 C 0.31404 0.18528 0.70186 0.0
C461 C 0.28455 0.1746 0.71679 0.0
C462 C 0.31869 0.18356 0.66576 0.0
C463 C 0.29363 0.17174 0.64395 0.0
C464 C 0.26559 0.15783 0.65916 0.0
H465 H 0.27432 0.25182 0.43361 0.0
H466 H 0.2612 0.23102 0.49186 0.0
C467 C 0.26109 0.15924 0.69546 0.0
C468 C 0.29457 0.17877 0.60588 0.0
H469 H 0.29663 0.24238 0.54837 0.0
C470 C 0.29619 0.15299 0.58172 0.0
C471 C 0.29359 0.21133 0.5935 0.0
C472 C 0.28978 0.24006 0.61798 0.0
C473 C 0.29814 0.15902 0.54554 0.0
C474 C 0.29895 0.19171 0.53333 0.0
C475 C 0.29617 0.21734 0.55756 0.0
C476 C 0.30422 0.20031 0.49593 0.0
C477 C 0.29903 0.13032 0.52081 0.0
C478 C 0.33245 0.18962 0.47841 0.0
C479 C 0.33986 0.20129 0.44504 0.0
C480 C 0.31947 0.22433 0.42853 0.0
C481 C 0.29056 0.23411 0.44551 0.0
C482 C 0.28306 0.22225 0.47887 0.0
H483 H 0.2872 0.10847 0.53246 0.0
H484 H 0.2866 0.13607 0.49575 0.0
H485 H 0.32493 0.12398 0.51521 0.0
H486 H 0.34965 0.17341 0.49117 0.0
H487 H 0.3624 0.19327 0.43286 0.0
H488 H 0.18694 0.81246 0.32463 0.0
H489 H 0.17768 0.79779 0.38533 0.0
H490 H 0.15131 0.69998 0.35363 0.0
H491 H 0.16151 0.71473 0.29224 0.0
H492 H 0.13257 0.77222 0.42929 0.0
H493 H 0.2352 0.68477 0.40776 0.0
H494 H 0.22266 0.71349 0.3748 0.0
H495 H 0.1985 0.67758 0.38296 0.0
C496 C 0.17782 0.7882 0.33048 0.0
C497 C 0.17491 0.76471 0.30394 0.0
C498 C 0.17263 0.77977 0.36525 0.0
C499 C 0.16468 0.74753 0.37424 0.0
C500 C 0.15817 0.72483 0.34737 0.0
H501 H 0.1744 0.70829 0.60206 0.0
H502 H 0.15178 0.71315 0.54298 0.0
C503 C 0.16347 0.73335 0.31229 0.0
C504 C 0.16842 0.7375 0.41141 0.0
H505 H 0.21995 0.69514 0.46525 0.0
C506 C 0.15123 0.75489 0.43724 0.0
C507 C 0.19318 0.71524 0.42177 0.0
C508 C 0.21368 0.69681 0.3955 0.0
C509 C 0.15921 0.75189 0.47287 0.0
C510 C 0.18464 0.73039 0.48303 0.0
C511 C 0.20055 0.7117 0.4574 0.0
C512 C 0.19733 0.72885 0.51948 0.0
C513 C 0.14173 0.77323 0.49905 0.0
C514 C 0.2305 0.73583 0.52603 0.0
C515 C 0.24357 0.73272 0.55961 0.0
C516 C 0.22373 0.72265 0.58755 0.0
C517 C 0.19029 0.71642 0.58119 0.0
C518 C 0.17727 0.71927 0.54742 0.0
H519 H 0.12791 0.79329 0.48626 0.0
H520 H 0.12403 0.75815 0.51395 0.0
H521 H 0.15939 0.78409 0.5179 0.0
H522 H 0.24647 0.74334 0.50495 0.0
H523 H 0.26939 0.73773 0.56353 0.0
H524 H 0.79454 0.89202 0.71136 0.0
H525 H 0.78808 0.90327 0.64864 0.0
H526 H 0.705 0.83808 0.64496 0.0
H527 H 0.71147 0.82703 0.70708 0.0
H528 H 0.79664 0.85281 0.60294 0.0
H529 H 0.67576 0.90821 0.57758 0.0
H530 H 0.69506 0.90958 0.62008 0.0
H531 H 0.67215 0.87407 0.60656 0.0
C532 C 0.77387 0.88159 0.69744 0.0
C533 C 0.75324 0.85898 0.71396 0.0
C534 C 0.77039 0.88772 0.66156 0.0
C535 C 0.74594 0.87165 0.642 0.0
C536 C 0.7236 0.85135 0.65942 0.0
H537 H 0.74265 0.76881 0.45234 0.0
H538 H 0.7509 0.79152 0.5107 0.0
C539 C 0.72729 0.84502 0.695 0.0
C540 C 0.74704 0.87091 0.60315 0.0
H541 H 0.69769 0.87387 0.53101 0.0
C542 C 0.77526 0.85823 0.58711 0.0
C543 C 0.71931 0.87811 0.58229 0.0
C544 C 0.689 0.89358 0.59751 0.0
C545 C 0.77564 0.85037 0.55138 0.0
C546 C 0.74695 0.85494 0.53119 0.0
C547 C 0.71955 0.86988 0.54659 0.0
C548 C 0.74398 0.84182 0.49507 0.0
C549 C 0.80648 0.8363 0.53578 0.0
C550 C 0.73712 0.8625 0.46679 0.0
C551 C 0.73246 0.84954 0.43321 0.0
C552 C 0.73409 0.8156 0.42741 0.0
C553 C 0.74135 0.79505 0.45578 0.0
C554 C 0.74622 0.80802 0.48919 0.0
H555 H 0.82852 0.84363 0.55101 0.0
H556 H 0.80494 0.80924 0.53616 0.0
H557 H 0.80965 0.84425 0.50829 0.0
H558 H 0.73506 0.88863 0.47078 0.0
H559 H 0.72668 0.86606 0.41202 0.0
H560 H 0.46168 0.14935 0.25296 0.0
H561 H 0.50232 0.10615 0.2453 0.0
H562 H 0.45108 0.04631 0.31988 0.0
H563 H 0.41063 0.08928 0.32823 0.0
H564 H 0.54316 0.0783 0.29624 0.0
H565 H 0.4628 0.98482 0.23618 0.0
H566 H 0.45167 0.0275 0.23843 0.0
H567 H 0.44567 1.00131 0.27557 0.0
C568 C 0.45912 0.12723 0.26811 0.0
C569 C 0.4329 0.12305 0.29161 0.0
C570 C 0.48227 0.10241 0.26335 0.0
C571 C 0.47937 0.07287 0.28157 0.0
C572 C 0.45332 0.06863 0.30493 0.0
H573 H 0.60218 0.93162 0.3655 0.0
H574 H 0.57199 0.97995 0.34803 0.0
C575 C 0.43028 0.09335 0.30978 0.0
C576 C 0.50433 0.0469 0.27793 0.0
H577 H 0.51201 0.9649 0.26415 0.0
C578 C 0.53657 0.05363 0.28853 0.0
C579 C 0.49585 1.0149 0.2672 0.0
C580 C 0.46218 1.00674 0.25334 0.0
C581 C 0.5599 0.02861 0.29125 0.0
C582 C 0.55052 0.99609 0.28361 0.0
C583 C 0.51904 0.98981 0.27041 0.0
C584 C 0.57149 0.96797 0.293 0.0
C585 C 0.5941 0.03705 0.30331 0.0
C586 C 0.58099 0.9449 0.26785 0.0
C587 C 0.59842 0.91694 0.27775 0.0
C588 C 0.60614 0.91132 0.31315 0.0
C589 C 0.59695 0.93497 0.33801 0.0
C590 C 0.57975 0.96283 0.32807 0.0
H591 H 0.60046 0.06271 0.29675 0.0
H592 H 0.59552 0.03448 0.33211 0.0
H593 H 0.61256 0.02053 0.2914 0.0
H594 H 0.57472 0.94843 0.24062 0.0
H595 H 0.60567 0.89993 0.25756 0.0
H596 H 0.89995 0.44054 0.75755 0.0
H597 H 0.94595 0.47669 0.77284 0.0
H598 H 0.9615 0.49696 0.66373 0.0
H599 H 0.91586 0.46141 0.64821 0.0
H600 H 1.01461 0.4711 0.74509 0.0
H601 H 0.95425 0.58852 0.71343 0.0
H602 H 0.93154 0.55188 0.72387 0.0
H603 H 0.94801 0.55753 0.68078 0.0
C604 C 0.91292 0.45301 0.73686 0.0
C605 C 0.90403 0.44832 0.70162 0.0
C606 C 0.93925 0.47348 0.74566 0.0
C607 C 0.95666 0.48981 0.71941 0.0
C608 C 0.94799 0.48493 0.68438 0.0
H609 H 0.11521 0.58642 0.6445 0.0
H610 H 0.06499 0.55936 0.66221 0.0
C611 C 0.92205 0.46438 0.67556 0.0
C612 C 0.9848 0.51125 0.72764 0.0
H613 H 1.01336 0.58777 0.71021 0.0
C614 C 1.01427 0.49688 0.73862 0.0
C615 C 0.98408 0.54484 0.71929 0.0
C616 C 0.95268 0.56173 0.709 0.0
C617 C 0.04374 0.51468 0.73832 0.0
C618 C 0.04339 0.5475 0.72695 0.0
C619 C 1.01348 0.56252 0.71878 0.0
C620 C 0.07394 0.56472 0.71756 0.0
C621 C 0.07541 0.4977 0.74737 0.0
C622 C 0.09549 0.57696 0.74297 0.0
C623 C 0.12444 0.59282 0.73295 0.0
C624 C 0.1323 0.59645 0.69729 0.0
C625 C 0.11018 0.58431 0.67215 0.0
C626 C 0.08139 0.56871 0.68218 0.0
H627 H 0.07153 0.47184 0.75512 0.0
H628 H 0.09222 0.49833 0.72462 0.0
H629 H 0.08766 0.51076 0.76923 0.0
H630 H 0.08985 0.57438 0.77045 0.0
H631 H 0.14023 0.60245 0.75322 0.0
H632 H 0.95535 0.39019 0.26309 0.0
H633 H 0.99541 0.43407 0.27114 0.0
H634 H 0.95665 0.48353 0.18071 0.0
H635 H 0.91632 0.44009 0.17273 0.0
H636 H 0.04362 0.4553 0.22901 0.0
H637 H 0.95593 0.55584 0.25227 0.0
H638 H 0.94375 0.51344 0.2528 0.0
H639 H 0.94734 0.53502 0.21204 0.0
C640 C 0.95549 0.41027 0.24474 0.0
C641 C 0.93274 0.41159 0.21711 0.0
C642 C 0.97826 0.43544 0.24956 0.0
C643 C 0.97858 0.46237 0.22694 0.0
C644 C 0.95623 0.46346 0.19908 0.0
H645 H 0.13217 0.5931 0.17142 0.0
H646 H 0.09449 0.5475 0.17959 0.0
C647 C 0.93333 0.4385 0.19442 0.0
C648 C 1.003 0.48883 0.23151 0.0
H649 H 1.01055 0.57174 0.23584 0.0
C650 C 0.03642 0.48074 0.23099 0.0
C651 C 0.9936 0.52195 0.2349 0.0
C652 C 0.95819 0.53205 0.23844 0.0
C653 C 0.06068 0.50504 0.23193 0.0
C654 C 0.05118 0.53828 0.2325 0.0
C655 C 1.01782 0.54627 0.23487 0.0
C656 C 0.07523 0.56517 0.22876 0.0
C657 C 0.09619 0.49479 0.23219 0.0
C658 C 0.07641 0.5907 0.25327 0.0
C659 C 0.09765 0.61711 0.2484 0.0
C660 C 0.118 0.61847 0.21882 0.0
C661 C 0.11703 0.59263 0.19462 0.0
C662 C 0.09564 0.56643 0.19935 0.0
H663 H 0.09923 0.47011 0.24375 0.0
H664 H 0.10532 0.49371 0.20494 0.0
H665 H 0.11159 0.51235 0.2471 0.0
H666 H 0.06079 0.59024 0.2761 0.0
H667 H 0.09821 0.63628 0.26791 0.0
H668 H 0.39794 0.10081 0.75397 0.0
H669 H 0.44317 0.06413 0.73977 0.0
H670 H 0.4752 0.06651 0.84703 0.0
H671 H 0.42961 0.10199 0.86203 0.0
H672 H 0.5131 0.06905 0.74933 0.0
H673 H 0.45799 0.96872 0.82642 0.0
H674 H 0.4352 1.00453 0.81357 0.0
H675 H 0.46223 1.00605 0.85072 0.0
C676 C 0.41426 0.09339 0.77476 0.0
C677 C 0.40926 0.1037 0.80952 0.0
C678 C 0.44039 0.07267 0.7664 0.0
C679 C 0.46195 0.06206 0.79254 0.0
C680 C 0.45833 0.07392 0.82664 0.0
H681 H 0.64941 0.97166 0.79997 0.0
H682 H 0.60364 1.00923 0.79255 0.0
C683 C 0.43229 0.09444 0.83507 0.0
C684 C 0.4875 0.03749 0.78497 0.0
H685 H 0.51423 0.96251 0.81083 0.0
C686 C 0.51325 0.04555 0.76236 0.0
C687 C 0.48716 1.0066 0.80139 0.0
C688 C 0.45899 0.99576 0.8241 0.0
C689 C 0.53967 0.02408 0.7572 0.0
C690 C 0.54047 0.99416 0.77569 0.0
C691 C 0.51382 0.98554 0.79688 0.0
C692 C 0.5693 0.97214 0.77534 0.0
C693 C 0.56643 0.03371 0.73214 0.0
C694 C 0.56523 0.93866 0.7685 0.0
C695 C 0.59128 0.917 0.77325 0.0
C696 C 0.62197 0.92844 0.78465 0.0
C697 C 0.62632 0.96212 0.79037 0.0
C698 C 0.60015 0.98371 0.786 0.0
H699 H 0.55701 0.0505 0.7117 0.0
H700 H 0.58602 0.04678 0.74668 0.0
H701 H 0.57738 1.012 0.71924 0.0
H702 H 0.54159 0.92915 0.76047 0.0
H703 H 0.58723 0.89119 0.76862 0.0
H704 H 0.48749 0.22077 0.22879 0.0
H705 H 0.54622 0.21425 0.2163 0.0
H706 H 0.56158 0.31675 0.23636 0.0
H707 H 0.50334 0.32343 0.24904 0.0
H708 H 0.5936 0.24658 0.16927 0.0
H709 H 0.61943 0.26932 0.3096 0.0
H710 H 0.57885 0.26006 0.29355 0.0
H711 H 0.59544 0.30049 0.28875 0.0
C712 C 0.50323 0.24208 0.2298 0.0
C713 C 0.49056 0.27261 0.24022 0.0
C714 C 0.53688 0.23829 0.22271 0.0
C715 C 0.55855 0.2649 0.22593 0.0
C716 C 0.54556 0.29572 0.2342 0.0
H717 H 0.7692 0.28614 0.18345 0.0
H718 H 0.70925 0.28514 0.17617 0.0
C719 C 0.5121 0.29951 0.24135 0.0
C720 C 0.5949 0.26026 0.22354 0.0
H721 H 0.66513 0.26638 0.27203 0.0
C722 C 0.60928 0.25079 0.19173 0.0
C723 C 0.61545 0.26538 0.25291 0.0
C724 C 0.6016 0.27409 0.28824 0.0
C725 C 0.6436 0.24692 0.18845 0.0
C726 C 0.66418 0.25287 0.21766 0.0
C727 C 0.6496 0.26191 0.24949 0.0
C728 C 0.70078 0.24927 0.21668 0.0
C729 C 0.6575 0.23595 0.15393 0.0
C730 C 0.71636 0.22897 0.24114 0.0
C731 C 0.75043 0.22963 0.24527 0.0
C732 C 0.77004 0.25029 0.22481 0.0
C733 C 0.75488 0.26912 0.19872 0.0
C734 C 0.7205 0.2687 0.19476 0.0
H735 H 0.63847 0.22451 0.13708 0.0
H736 H 0.66749 0.25746 0.13994 0.0
H737 H 0.67778 0.21823 0.15782 0.0
H738 H 0.70194 0.21375 0.2584 0.0
H739 H 0.76138 0.21523 0.26594 0.0
H740 H 0.20418 0.26239 0.77346 0.0
H741 H 0.19862 0.32153 0.78013 0.0
H742 H 0.29475 0.32606 0.82678 0.0
H743 H 0.2998 0.2667 0.82103 0.0
H744 H 0.25105 0.374 0.85457 0.0
H745 H 0.25199 0.37332 0.70957 0.0
H746 H 0.21892 0.35054 0.72849 0.0
H747 H 0.26052 0.33726 0.73491 0.0
C748 C 0.22325 0.27568 0.78711 0.0
C749 C 0.25172 0.25953 0.79845 0.0
C750 C 0.22036 0.30967 0.79028 0.0
C751 C 0.24642 0.32845 0.8036 0.0
C752 C 0.27414 0.3122 0.81675 0.0
H753 H 0.29967 0.51963 0.73346 0.0
H754 H 0.29782 0.46314 0.75357 0.0
C755 C 0.27685 0.2781 0.81392 0.0
C756 C 0.24674 0.36476 0.79939 0.0
H757 H 0.24654 0.42438 0.73704 0.0
C758 C 0.24991 0.38508 0.82891 0.0
C759 C 0.24582 0.3793 0.76585 0.0
C760 C 0.24444 0.35905 0.73285 0.0
C761 C 0.2521 0.41941 0.82571 0.0
C762 C 0.25083 0.43383 0.79216 0.0
C763 C 0.2474 0.41345 0.76281 0.0
C764 C 0.25497 0.46968 0.78602 0.0
C765 C 0.25677 0.4399 0.8581 0.0
C766 C 0.23227 0.49282 0.79861 0.0
C767 C 0.23372 0.5256 0.78749 0.0
C768 C 0.25768 0.5355 0.76342 0.0
C769 C 0.28121 0.51273 0.75238 0.0
C770 C 0.28002 0.48035 0.76369 0.0
H771 H 0.26426 0.42489 0.88089 0.0
H772 H 0.27555 0.4591 0.85372 0.0
H773 H 0.23333 0.45219 0.86459 0.0
H774 H 0.21233 0.48519 0.81532 0.0
H775 H 0.2148 0.54249 0.79569 0.0
H776 H 0.54739 0.81933 0.23735 0.0
H777 H 0.4886 0.82579 0.22503 0.0
H778 H 0.47688 0.7212 0.22418 0.0
H779 H 0.53526 0.71447 0.23643 0.0
H780 H 0.44218 0.79727 0.17023 0.0
H781 H 0.41824 0.75689 0.30631 0.0
H782 H 0.45805 0.7708 0.29217 0.0
H783 H 0.4441 0.73053 0.28082 0.0
C784 C 0.53248 0.79767 0.23372 0.0
C785 C 0.54618 0.76635 0.23821 0.0
C786 C 0.49881 0.80142 0.22671 0.0
C787 C 0.47817 0.77398 0.2241 0.0
C788 C 0.49218 0.74275 0.22641 0.0
H789 H 0.26651 0.75381 0.18333 0.0
H790 H 0.32637 0.75449 0.17527 0.0
C791 C 0.5257 0.73897 0.23338 0.0
C792 C 0.44174 0.77773 0.22234 0.0
H793 H 0.37222 0.76499 0.27013 0.0
C794 C 0.42684 0.79025 0.19204 0.0
C795 C 0.42166 0.76881 0.25088 0.0
C796 C 0.43619 0.75623 0.28455 0.0
C797 C 0.39242 0.79371 0.18949 0.0
C798 C 0.37237 0.78434 0.21793 0.0
C799 C 0.38743 0.77206 0.24822 0.0
C800 C 0.33585 0.78807 0.21791 0.0
C801 C 0.37775 0.80793 0.15674 0.0
C802 C 0.32099 0.80721 0.24388 0.0
C803 C 0.28699 0.80688 0.24833 0.0
C804 C 0.26675 0.78754 0.22685 0.0
C805 C 0.28128 0.76977 0.19951 0.0
C806 C 0.31559 0.76998 0.19511 0.0
H807 H 0.39655 0.82005 0.14028 0.0
H808 H 0.3663 0.78805 0.14118 0.0
H809 H 0.35835 0.82593 0.16325 0.0
H810 H 0.3359 0.82137 0.26182 0.0
H811 H 0.27658 0.82069 0.26978 0.0
H812 H 0.81753 0.76069 0.7498 0.0
H813 H 0.81788 0.7015 0.75839 0.0
H814 H 0.75082 0.71204 0.84439 0.0
H815 H 0.75022 0.77167 0.83555 0.0
H816 H 0.80899 0.65854 0.84794 0.0
H817 H 0.72543 0.655 0.73302 0.0
H818 H 0.76181 0.67958 0.72892 0.0
H819 H 0.73066 0.69121 0.75951 0.0
C820 C 0.80378 0.75053 0.77139 0.0
C821 C 0.7844 0.77095 0.7925 0.0
C822 C 0.8039 0.71665 0.77617 0.0
C823 C 0.78432 0.70221 0.80194 0.0
C824 C 0.7664 0.72263 0.82455 0.0
H825 H 0.71134 0.50287 0.78468 0.0
H826 H 0.71795 0.56082 0.79811 0.0
C827 C 0.76638 0.75678 0.81981 0.0
C828 C 0.77962 0.666 0.80195 0.0
H829 H 0.74476 0.60449 0.75401 0.0
C830 C 0.79478 0.64666 0.82759 0.0
C831 C 0.76095 0.65047 0.7755 0.0
C832 C 0.74353 0.67 0.74772 0.0
C833 C 0.7922 0.6122 0.82702 0.0
C834 C 0.77423 0.59662 0.79992 0.0
C835 C 0.75862 0.61618 0.77476 0.0
C836 C 0.77094 0.56022 0.79681 0.0
C837 C 0.80841 0.5928 0.85565 0.0
C838 C 0.79853 0.53998 0.79235 0.0
C839 C 0.7948 0.50649 0.78479 0.0
C840 C 0.76338 0.49255 0.7812 0.0
C841 C 0.73593 0.51262 0.7872 0.0
C842 C 0.73966 0.54592 0.79483 0.0
H843 H 0.81329 0.6081 0.8791 0.0
H844 H 0.79302 0.57165 0.8634 0.0
H845 H 0.83223 0.58331 0.84608 0.0
H846 H 0.82295 0.55033 0.79302 0.0
H847 H 0.81651 0.49197 0.77996 0.0
H848 H 1.00219 0.21191 0.26996 0.0
H849 H 0.06025 0.21765 0.28411 0.0
H850 H 0.04746 0.32146 0.29746 0.0
H851 H 0.98891 0.31577 0.28378 0.0
H852 H 0.10366 0.2509 0.246 0.0
H853 H 0.10563 0.30069 0.38067 0.0
H854 H 0.06938 0.28261 0.36152 0.0
H855 H 0.08077 0.32386 0.35095 0.0
C856 C 1.01146 0.23594 0.27663 0.0
C857 C 0.99065 0.26336 0.27572 0.0
C858 C 0.04484 0.2392 0.28467 0.0
C859 C 0.05855 0.26996 0.29213 0.0
C860 C 0.03761 0.29731 0.29255 0.0
H861 H 0.26054 0.32049 0.25234 0.0
H862 H 0.20107 0.3204 0.25992 0.0
C863 C 1.00402 0.29404 0.28462 0.0
C864 C 0.09505 0.27342 0.29599 0.0
H865 H 0.15645 0.30153 0.34966 0.0
C866 C 0.11506 0.26181 0.26883 0.0
C867 C 0.1103 0.28746 0.32581 0.0
C868 C 0.09048 0.29911 0.35658 0.0
C869 C 0.14944 0.2643 0.27029 0.0
C870 C 0.16466 0.2792 0.29955 0.0
C871 C 0.14486 0.2903 0.32712 0.0
C872 C 0.20103 0.28406 0.30076 0.0
C873 C 0.16935 0.25084 0.24037 0.0
C874 C 0.2212 0.26496 0.32254 0.0
C875 C 0.25557 0.2653 0.3185 0.0
C876 C 0.2702 0.28485 0.29271 0.0
C877 C 0.25003 0.30552 0.27276 0.0
C878 C 0.21596 0.30532 0.2769 0.0
H879 H 0.15479 0.2339 0.22374 0.0
H880 H 0.17786 0.27135 0.22378 0.0
H881 H 0.19131 0.23769 0.25016 0.0
H882 H 0.21029 0.2482 0.34102 0.0
H883 H 0.27029 0.24831 0.33341 0.0
H884 H 0.3292 1.01533 0.7884 0.0
H885 H 0.32835 0.96013 0.76525 0.0
H886 H 0.2593 0.98953 0.68596 0.0
H887 H 0.25968 0.04567 0.70978 0.0
H888 H 0.23972 0.93381 0.72012 0.0
H889 H 0.36854 0.91786 0.68096 0.0
H890 H 0.36632 0.93303 0.7248 0.0
H891 H 0.35111 0.95765 0.68931 0.0
C892 C 0.31417 1.01039 0.76563 0.0
C893 C 0.29448 0.03505 0.75097 0.0
C894 C 0.31395 0.97867 0.75218 0.0
C895 C 0.29421 0.97049 0.72342 0.0
C896 C 0.27502 0.99523 0.70797 0.0
H897 H 0.2531 0.7619 0.67155 0.0
H898 H 0.2591 0.82086 0.66113 0.0
C899 C 0.27538 0.02735 0.72144 0.0
C900 C 0.29189 0.93549 0.71221 0.0
H901 H 0.33949 0.86808 0.6971 0.0
C902 C 0.26139 0.91958 0.71409 0.0
C903 C 0.32011 0.9167 0.70426 0.0
C904 C 0.35328 0.93231 0.69935 0.0
C905 C 0.25879 0.88533 0.71091 0.0
C906 C 0.28739 0.8664 0.70544 0.0
C907 C 0.31756 0.88247 0.70148 0.0
C908 C 0.28702 0.83 0.70828 0.0
C909 C 0.22577 0.86937 0.71573 0.0
C910 C 0.30172 0.81523 0.73737 0.0
C911 C 0.29841 0.78166 0.74311 0.0
C912 C 0.28091 0.76177 0.71956 0.0
C913 C 0.26759 0.77622 0.68948 0.0
C914 C 0.27057 0.81008 0.68387 0.0
H915 H 0.20659 0.88717 0.72359 0.0
H916 H 0.21805 0.8577 0.69086 0.0
H917 H 0.22731 0.84995 0.73587 0.0
H918 H 0.31453 0.82996 0.7566 0.0
H919 H 0.30869 0.77133 0.76674 0.0
H920 H 0.7731 0.72338 0.2496 0.0
H921 H 0.83204 0.71713 0.25821 0.0
H922 H 0.82738 0.7792 0.34913 0.0
H923 H 0.76809 0.78565 0.34011 0.0
H924 H 0.87499 0.79872 0.30052 0.0
H925 H 0.88863 0.66699 0.32768 0.0
H926 H 0.86352 0.67431 0.29 0.0
H927 H 0.84997 0.68805 0.33225 0.0
C928 C 0.78443 0.73487 0.27212 0.0
C929 C 0.76563 0.75437 0.29477 0.0
C930 C 0.81822 0.73124 0.27706 0.0
C931 C 0.83434 0.7473 0.30462 0.0
C932 C 0.81554 0.76618 0.32792 0.0
H933 H 0.05285 0.77113 0.30419 0.0
H934 H 0.99637 0.77338 0.32713 0.0
C935 C 0.78146 0.76949 0.32313 0.0
C936 C 0.871 0.74663 0.30652 0.0
H937 H 0.93615 0.69416 0.30388 0.0
C938 C 0.88848 0.77595 0.3021 0.0
C939 C 0.88872 0.71698 0.30863 0.0
C940 C 0.87176 0.68484 0.31526 0.0
C941 C 0.92277 0.77615 0.29716 0.0
C942 C 0.94024 0.74623 0.29719 0.0
C943 C 0.92293 0.71714 0.30372 0.0
C944 C 0.97526 0.74393 0.2857 0.0
C945 C 0.93968 0.80814 0.28963 0.0
C946 C 0.98255 0.72588 0.25556 0.0
C947 C 1.0145 0.72446 0.24268 0.0
C948 C 0.04044 0.74095 0.25954 0.0
C949 C 0.03352 0.75821 0.2905 0.0
C950 C 1.00117 0.75972 0.30345 0.0
H951 H 0.92197 0.82832 0.28523 0.0
H952 H 0.95551 0.81486 0.31213 0.0
H953 H 0.95556 0.80584 0.26624 0.0
H954 H 0.96324 0.71339 0.24135 0.0
H955 H 1.01869 0.71067 0.21894 0.0
H956 H 0.72211 0.26526 0.76036 0.0
H957 H 0.71914 0.206 0.75236 0.0
H958 H 0.79052 0.21209 0.66986 0.0
H959 H 0.7939 0.27137 0.6785 0.0
H960 H 0.70666 0.16144 0.69597 0.0
H961 H 0.8352 0.15469 0.74446 0.0
H962 H 0.81107 0.19147 0.74781 0.0
H963 H 0.82822 0.17957 0.70656 0.0
C964 C 0.73631 0.2541 0.73965 0.0
C965 C 0.75759 0.27327 0.71934 0.0
C966 C 0.7347 0.22015 0.73519 0.0
C967 C 0.75484 0.20433 0.71075 0.0
C968 C 0.77481 0.22359 0.68903 0.0
H969 H 0.751 0.98494 0.70332 0.0
H970 H 0.75375 0.04161 0.68107 0.0
C971 C 0.77627 0.25771 0.69343 0.0
C972 C 0.75713 0.1678 0.71092 0.0
H973 H 0.80761 0.10514 0.7357 0.0
C974 C 0.72893 0.14906 0.70394 0.0
C975 C 0.78608 0.15154 0.72177 0.0
C976 C 0.81687 0.1702 0.73086 0.0
C977 C 0.72868 0.11483 0.70847 0.0
C978 C 0.75733 0.09879 0.72031 0.0
C979 C 0.78579 0.11736 0.72617 0.0
C980 C 0.7568 0.06403 0.73225 0.0
C981 C 0.69729 0.09615 0.70251 0.0
C982 C 0.75817 0.05774 0.76814 0.0
C983 C 0.75644 0.02581 0.78072 0.0
C984 C 0.75362 0.99896 0.75782 0.0
C985 C 0.75325 1.00501 0.72164 0.0
C986 C 0.75461 0.03738 0.70895 0.0
H987 H 0.67668 0.11235 0.69483 0.0
H988 H 0.70103 0.07773 0.68158 0.0
H989 H 0.6904 0.08281 0.72662 0.0
H990 H 0.75997 0.07774 0.78665 0.0
H991 H 0.75707 0.02224 0.80874 0.0
H992 H 0.27424 0.43744 0.40369 0.0
H993 H 0.28022 0.47303 0.45443 0.0
H994 H 0.3611 0.41464 0.49113 0.0
H995 H 0.35592 0.3792 0.43984 0.0
H996 H 0.2769 0.45875 0.52546 0.0
H997 H 0.39916 0.50798 0.4888 0.0
H998 H 0.37363 0.48561 0.45849 0.0
H999 H 0.39608 0.46425 0.4917 0.0
C1000 C 0.29329 0.432 0.42255 0.0
C1001 C 0.31447 0.40529 0.41759 0.0
C1002 C 0.29662 0.45238 0.45161 0.0
C1003 C 0.32136 0.44676 0.47634 0.0
C1004 C 0.34211 0.41969 0.4721 0.0
H1005 H 0.31659 0.55538 0.67358 0.0
H1006 H 0.32457 0.51136 0.63128 0.0
C1007 C 0.33877 0.39915 0.44295 0.0
C1008 C 0.32517 0.46963 0.50624 0.0
H1009 H 0.37582 0.52792 0.54095 0.0
C1010 C 0.29864 0.47365 0.52909 0.0
C1011 C 0.35343 0.48933 0.5106 0.0
C1012 C 0.38217 0.4869 0.48601 0.0
C1013 C 0.29933 0.49717 0.55582 0.0
C1014 C 0.3276 0.51686 0.56026 0.0
C1015 C 0.35434 0.51258 0.53771 0.0
C1016 C 0.3287 0.54344 0.58671 0.0
C1017 C 0.26919 0.50163 0.57815 0.0
C1018 C 0.33049 0.57617 0.57601 0.0
C1019 C 0.32627 0.60151 0.6002 0.0
C1020 C 0.32008 0.5945 0.63554 0.0
C1021 C 0.32087 0.5617 0.64653 0.0
C1022 C 0.32527 0.53644 0.62235 0.0
H1023 H 0.24727 0.48973 0.56644 0.0
H1024 H 0.27353 0.49051 0.60414 0.0
H1025 H 0.26376 0.52797 0.58207 0.0
H1026 H 0.33337 0.58212 0.54864 0.0
H1027 H 0.32589 0.62645 0.59081 0.0
H1028 H 0.63224 0.7158 0.42566 0.0
H1029 H 0.59035 0.70856 0.47054 0.0
H1030 H 0.5149 0.73101 0.3954 0.0
H1031 H 0.55648 0.73827 0.35027 0.0
H1032 H 0.54742 0.76196 0.48837 0.0
H1033 H 0.47807 0.65072 0.44919 0.0
H1034 H 0.51926 0.65883 0.43424 0.0
H1035 H 0.48522 0.6803 0.41539 0.0
C1036 C 0.60671 0.71845 0.41839 0.0
C1037 C 0.59781 0.72787 0.38435 0.0
C1038 C 0.5828 0.71436 0.44414 0.0
C1039 C 0.54953 0.71914 0.43627 0.0
C1040 C 0.54039 0.72678 0.40193 0.0
H1041 H 0.37425 0.73283 0.56687 0.0
H1042 H 0.41224 0.73024 0.51746 0.0
C1043 C 0.56427 0.73105 0.37619 0.0
C1044 C 0.52492 0.71978 0.4647 0.0
H1045 H 0.45623 0.68204 0.4958 0.0
C1046 C 0.52757 0.74438 0.49011 0.0
C1047 C 0.49876 0.69718 0.46652 0.0
C1048 C 0.49511 0.67007 0.44007 0.0
C1049 C 0.50475 0.7471 0.5173 0.0
C1050 C 0.47898 0.72402 0.5197 0.0
C1051 C 0.47603 0.69964 0.49399 0.0
C1052 C 0.45563 0.72432 0.54941 0.0
C1053 C 0.50813 0.77509 0.5428 0.0
C1054 C 0.4673 0.72123 0.5837 0.0
C1055 C 0.44578 0.72279 0.61191 0.0
C1056 C 0.41191 0.72694 0.60655 0.0
C1057 C 0.40009 0.72924 0.57206 0.0
C1058 C 0.42179 0.72788 0.54375 0.0
H1059 H 0.52237 0.79562 0.53146 0.0
H1060 H 0.48378 0.78442 0.55099 0.0
H1061 H 0.5214 0.76651 0.56637 0.0
H1062 H 0.4932 0.71766 0.58869 0.0
H1063 H 0.45574 0.72045 0.63803 0.0
H1064 H 0.71875 0.40873 0.59005 0.0
H1065 H 0.71273 0.45199 0.54653 0.0
H1066 H 0.72641 0.52489 0.62667 0.0
H1067 H 0.73291 0.48195 0.67031 0.0
H1068 H 0.67162 0.50731 0.53883 0.0
H1069 H 0.80205 0.5422 0.55843 0.0
H1070 H 0.78501 0.50488 0.57559 0.0
H1071 H 0.77743 0.54313 0.59724 0.0
C1072 C 0.7199 0.43395 0.5986 0.0
C1073 C 0.7268 0.44179 0.63366 0.0
C1074 C 0.71649 0.45866 0.57363 0.0
C1075 C 0.71988 0.49162 0.58324 0.0
C1076 C 0.72444 0.49959 0.61856 0.0
H1077 H 0.68864 0.65609 0.4398 0.0
H1078 H 0.68557 0.6194 0.48992 0.0
C1079 C 0.72797 0.47495 0.64352 0.0
C1080 C 0.72084 0.5174 0.55604 0.0
H1081 H 0.77138 0.5741 0.51895 0.0
C1082 C 0.69334 0.52206 0.53455 0.0
C1083 C 0.7494 0.53628 0.55023 0.0
C1084 C 0.78029 0.53129 0.57133 0.0
C1085 C 0.69363 0.54511 0.50736 0.0
C1086 C 0.72207 0.56427 0.50186 0.0
C1087 C 0.74951 0.55963 0.52344 0.0
C1088 C 0.72471 0.58775 0.47247 0.0
C1089 C 0.66392 0.54802 0.48406 0.0
C1090 C 0.7485 0.58284 0.44661 0.0
C1091 C 0.75071 0.60403 0.41817 0.0
C1092 C 0.72935 0.63085 0.41502 0.0
C1093 C 0.70597 0.63616 0.44148 0.0
C1094 C 0.70379 0.61486 0.46998 0.0
H1095 H 0.64716 0.52679 0.48686 0.0
H1096 H 0.65012 0.57042 0.49117 0.0
H1097 H 0.67126 0.55007 0.45625 0.0
H1098 H 0.76502 0.56217 0.44807 0.0
H1099 H 0.76904 0.59918 0.39842 0.0
H1100 H 0.47881 0.27372 0.35231 0.0
H1101 H 0.52137 0.27978 0.39706 0.0
H1102 H 0.45 0.31903 0.46852 0.0
H1103 H 0.40722 0.31312 0.42409 0.0
H1104 H 0.54156 0.33833 0.43873 0.0
H1105 H 0.49069 0.23634 0.5175 0.0
H1106 H 0.48058 0.24204 0.47198 0.0
H1107 H 0.4619 0.26735 0.50469 0.0
C1108 C 0.47215 0.28389 0.37745 0.0
C1109 C 0.43947 0.29266 0.38466 0.0
C1110 C 0.49655 0.28739 0.40294 0.0
C1111 C 0.48872 0.29946 0.43618 0.0
C1112 C 0.45644 0.30931 0.44311 0.0
H1113 H 0.58376 0.31864 0.63551 0.0
H1114 H 0.54694 0.31733 0.58539 0.0
C1115 C 0.43205 0.30601 0.41761 0.0
C1116 C 0.51393 0.30049 0.46414 0.0
H1117 H 0.53402 0.26665 0.54267 0.0
C1118 C 0.5401 0.32261 0.46143 0.0
C1119 C 0.51194 0.27982 0.49357 0.0
C1120 C 0.48495 0.25482 0.49718 0.0
C1121 C 0.56379 0.32538 0.48806 0.0
C1122 C 0.5616 0.30492 0.51774 0.0
C1123 C 0.53569 0.28239 0.52 0.0
C1124 C 0.58493 0.3072 0.54758 0.0
C1125 C 0.59026 0.35093 0.48471 0.0
C1126 C 0.61871 0.30191 0.54315 0.0
C1127 C 0.64004 0.30282 0.57193 0.0
C1128 C 0.62787 0.30868 0.60575 0.0
C1129 C 0.59402 0.3139 0.60994 0.0
C1130 C 0.57288 0.31323 0.58125 0.0
H1131 H 0.58372 0.36987 0.46516 0.0
H1132 H 0.59501 0.36311 0.51016 0.0
H1133 H 0.61329 0.33905 0.47606 0.0
H1134 H 0.62851 0.29637 0.51757 0.0
H1135 H 0.66582 0.29802 0.56775 0.0
H1136 H 0.78511 0.97626 0.8503 0.0
H1137 H 0.79144 0.02019 0.89296 0.0
H1138 H 0.81549 0.94953 0.97234 0.0
H1139 H 0.80945 0.90533 0.92959 0.0
H1140 H 0.75543 0.02908 0.95125 0.0
H1141 H 0.88654 0.01758 0.98701 0.0
H1142 H 0.86919 0.99781 0.94903 0.0
H1143 H 0.8643 0.97999 0.99161 0.0
C1144 C 0.79189 0.97001 0.87678 0.0
C1145 C 0.7965 0.93723 0.88659 0.0
C1146 C 0.79565 0.99521 0.90112 0.0
C1147 C 0.80422 0.98825 0.93581 0.0
C1148 C 0.80955 0.95559 0.94557 0.0
H1149 H 0.76311 0.09827 0.12122 0.0
H1150 H 0.76336 0.06201 0.07065 0.0
C1151 C 0.80595 0.93032 0.92112 0.0
C1152 C 0.80526 1.01493 0.96218 0.0
H1153 H 0.85338 0.05036 0.02484 0.0
C1154 C 0.77697 0.03391 0.96711 0.0
C1155 C 0.83349 0.0216 0.98253 0.0
C1156 C 0.86522 1.0034 0.97709 0.0
C1157 C 0.77577 0.05859 0.99259 0.0
C1158 C 0.80341 0.06409 0.01417 0.0
C1159 C 0.8321 0.04593 0.00847 0.0
C1160 C 0.80245 0.08739 0.04393 0.0
C1161 C 0.74488 0.07856 0.99613 0.0
C1162 C 0.82465 0.11357 0.046 0.0
C1163 C 0.82469 0.1344 0.0751 0.0
C1164 C 0.80264 0.12924 0.10281 0.0
C1165 C 0.78032 0.1031 0.10036 0.0
C1166 C 0.78027 0.08242 0.07132 0.0
H1167 H 0.73027 0.0783 0.97161 0.0
H1168 H 0.72947 0.06802 0.01713 0.0
H1169 H 0.75056 0.1043 1.00311 0.0
H1170 H 0.8422 0.11763 0.02528 0.0
H1171 H 0.8428 0.15371 0.07632 0.0
H1172 H 0.90449 0.21781 0.09287 0.0
H1173 H 0.9465 0.21118 0.04795 0.0
H1174 H 0.01896 0.25216 0.11749 0.0
H1175 H 0.97725 0.25881 0.16269 0.0
H1176 H 0.98374 0.26489 0.02041 0.0
H1177 H 0.0638 0.16896 0.07769 0.0
H1178 H 0.02209 0.1754 0.09188 0.0
H1179 H 0.05394 0.2028 0.10579 0.0
C1180 C 0.92945 0.22494 0.09889 0.0
C1181 C 0.93743 0.23892 0.13143 0.0
C1182 C 0.95341 0.22119 0.07313 0.0
C1183 C 0.98587 0.23095 0.07948 0.0
C1184 C 0.99416 0.24403 0.11222 0.0
H1185 H 0.15799 0.2377 0.94293 0.0
H1186 H 0.12115 0.24114 0.99326 0.0
C1187 C 0.9702 0.24796 0.13796 0.0
C1188 C 1.0104 0.22971 0.05097 0.0
H1189 H 0.08209 0.19382 0.0255 0.0
C1190 C 1.00521 0.2493 0.02147 0.0
C1191 C 0.03859 0.2097 0.05267 0.0
C1192 C 0.04499 0.1878 0.08355 0.0
C1193 C 0.02743 0.24943 0.99356 0.0
C1194 C 0.05523 0.22877 0.99478 0.0
C1195 C 0.06075 0.20958 0.02457 0.0
C1196 C 0.07797 0.22582 0.96469 0.0
C1197 C 0.02112 0.27208 0.96324 0.0
C1198 C 0.06608 0.21545 0.93212 0.0
C1199 C 0.08696 0.21345 0.9034 0.0
C1200 C 0.12043 0.22131 0.90658 0.0
C1201 C 0.13251 0.23104 0.93949 0.0
C1202 C 0.11144 0.23318 0.9683 0.0
H1203 H 1.00519 0.29288 0.97093 0.0
H1204 H 0.04439 0.28195 0.95258 0.0
H1205 H 1.00839 0.25839 0.94216 0.0
H1206 H 0.04053 0.20885 0.92889 0.0
H1207 H 0.07683 0.20544 0.87865 0.0
H1208 H 0.19193 0.87322 0.0721 0.0
H1209 H 0.18841 0.90738 0.01988 0.0
H1210 H 0.27069 0.96434 0.05617 0.0
H1211 H 0.27493 0.93 0.10793 0.0
H1212 H 0.17699 0.97475 0.01955 0.0
H1213 H 0.2945 0.94576 0.9545 0.0
H1214 H 0.27723 0.92028 0.98823 0.0
H1215 H 0.29965 0.95667 0.99959 0.0
C1216 C 0.20994 0.89234 0.06851 0.0
C1217 C 0.23405 0.89858 0.09407 0.0
C1218 C 0.20764 0.91207 0.03879 0.0
C1219 C 0.22952 0.93814 0.03395 0.0
C1220 C 0.25395 0.94397 0.05902 0.0
H1221 H 0.21735 0.12025 0.9252 0.0
H1222 H 0.21108 0.07486 0.96601 0.0
C1223 C 0.25621 0.92441 0.08872 0.0
C1224 C 0.22573 0.96076 1.00403 0.0
H1225 H 0.26805 0.99534 0.9369 0.0
C1226 C 0.19669 0.97896 1.00112 0.0
C1227 C 0.25128 0.96595 0.97981 0.0
C1228 C 0.28229 0.94589 0.98041 0.0
C1229 C 0.19311 1.00325 0.97553 0.0
C1230 C 0.21948 1.00978 0.95265 0.0
C1231 C 0.24793 0.99057 0.95465 0.0
C1232 C 0.21882 0.03709 0.92721 0.0
C1233 C 0.16121 0.02173 0.97333 0.0
C1234 C 0.2251 0.03102 0.8918 0.0
C1235 C 0.22901 0.05691 0.86849 0.0
C1236 C 0.22682 0.08948 0.88013 0.0
C1237 C 0.21897 0.0955 0.91531 0.0
C1238 C 0.21524 0.06952 0.93868 0.0
H1239 H 0.14065 1.00738 0.98454 0.0
H1240 H 0.16339 0.04474 0.98852 0.0
H1241 H 0.15509 0.02804 0.9459 0.0
H1242 H 0.22799 1.00621 0.88238 0.0
H1243 H 0.23489 0.05134 0.84156 0.0
H1244 H 0.87564 0.79974 0.94645 0.0
H1245 H 0.91312 0.79944 0.99652 0.0
H1246 H 0.99402 0.82169 0.92831 0.0
H1247 H 0.95704 0.82177 0.87833 0.0
H1248 H 1.00724 0.77057 0.97089 0.0
H1249 H 0.9578 0.87417 0.04848 0.0
H1250 H 0.92827 0.84324 0.03741 0.0
H1251 H 0.94659 0.86728 1.00343 0.0
C1252 C 0.90128 0.80516 0.94217 0.0
C1253 C 0.91326 0.81094 0.90829 0.0
C1254 C 0.9227 0.80501 0.97088 0.0
C1255 C 0.95636 0.81096 0.96625 0.0
C1256 C 0.96818 0.81708 0.93255 0.0
H1257 H 0.13457 0.81484 0.08976 0.0
H1258 H 0.09217 0.82187 0.04512 0.0
C1259 C 0.94695 0.81703 0.90396 0.0
C1260 C 0.97986 0.809 0.99588 0.0
H1261 H 1.00023 0.84296 0.07466 0.0
C1262 C 1.00572 0.78648 0.99352 0.0
C1263 C 0.97781 0.82969 0.02547 0.0
C1264 C 0.95131 0.85518 0.02887 0.0
C1265 C 0.02953 0.78404 0.01985 0.0
C1266 C 0.02769 0.80493 0.04923 0.0
C1267 C 1.0016 0.82712 0.05198 0.0
C1268 C 0.0527 0.80372 0.07733 0.0
C1269 C 0.05633 0.75886 0.01625 0.0
C1270 C 0.04431 0.79225 0.11059 0.0
C1271 C 0.06846 0.78818 0.13619 0.0
C1272 C 0.10145 0.79572 0.12906 0.0
C1273 C 0.10947 0.80867 0.09615 0.0
C1274 C 0.0853 0.81258 0.07053 0.0
H1275 H 0.05034 0.74018 0.99612 0.0
H1276 H 0.07941 0.77119 0.00845 0.0
H1277 H 0.06079 0.74633 0.04151 0.0
H1278 H 0.01924 0.78544 0.11638 0.0
H1279 H 0.06132 0.77849 0.16132 0.0
loop_
_geom_bond_atom_site_label_1
_geom_bond_atom_site_label_2
_geom_bond_distance
_geom_bond_site_symmetry_2
_ccdc_geom_bond_type
Zn0 N4 2.020 . S
Zn0 O8 2.019 . S
Zn0 N10 2.119 . S
Zn0 O18 1.975 . S
C1 N2 1.334 . S
C1 N5 1.336 . S
N2 C1 1.334 . S
N2 C3 1.334 . S
C3 N2 1.334 . S
C3 N4 1.336 . S
N4 Zn0 2.020 . S
N4 C3 1.336 . S
N4 N5 1.354 . S
N5 C1 1.336 . S
N5 N4 1.354 . S
N5 Zn9 2.020 . S
C6 O7 1.244 . S
C6 O30 1.257 . S
O7 C6 1.244 . S
O8 Zn0 2.019 . S
O8 C28 1.257 . S
Zn9 N5 2.020 . S
Zn9 O16 1.975 . S
Zn9 N25 2.119 . S
Zn9 O30 2.019 . S
N10 Zn0 2.119 . S
N10 C12 1.334 . S
N10 C13 1.328 . S
C11 C12 1.391 . S
C11 N14 1.329 . S
C11 H32 0.930 . S
C12 N10 1.334 . S
C12 C11 1.391 . S
C12 H19 0.930 . S
C13 N10 1.328 . S
C13 C15 1.392 . S
C13 H20 0.930 . S
N14 C11 1.329 . S
N14 C15 1.331 . S
C15 C13 1.392 . S
C15 N14 1.331 . S
O16 Zn9 1.975 . S
O16 C17 1.252 . S
C17 O16 1.252 . S
C17 O18 1.252 . S
O18 Zn0 1.975 . S
O18 C17 1.252 . S
H19 C12 0.930 . S
H20 C13 0.930 . S
C21 C22 1.392 . S
C21 N25 1.328 . S
C21 H27 0.930 . S
C22 C21 1.392 . S
C22 N26 1.331 . S
C23 C24 1.391 . S
C23 N26 1.329 . S
C23 H33 0.930 . S
C24 C23 1.391 . S
C24 N25 1.334 . S
C24 H31 0.930 . S
N25 Zn9 2.119 . S
N25 C21 1.328 . S
N25 C24 1.334 . S
N26 C22 1.331 . S
N26 C23 1.329 . S
H27 C21 0.930 . S
C28 O8 1.257 . S
C28 O29 1.244 . S
O29 C28 1.244 . S
O30 C6 1.257 . S
O30 Zn9 2.019 . S
H31 C24 0.930 . S
H32 C11 0.930 . S
H33 C23 0.930 . S
Zn34 N38 2.020 . S
Zn34 O42 2.019 . S
Zn34 N44 2.119 . S
Zn34 O52 1.975 . S
C35 N36 1.334 . S
C35 N39 1.336 . S
N36 C35 1.334 . S
N36 C37 1.334 . S
C37 N36 1.334 . S
C37 N38 1.336 . S
N38 Zn34 2.020 . S
N38 C37 1.336 . S
N38 N39 1.354 . S
N39 C35 1.336 . S
N39 N38 1.354 . S
N39 Zn43 2.020 . S
C40 O41 1.244 . S
C40 O64 1.257 . S
O41 C40 1.244 . S
O42 Zn34 2.019 . S
O42 C62 1.257 . S
Zn43 N39 2.020 . S
Zn43 O50 1.975 . S
Zn43 N59 2.119 . S
Zn43 O64 2.019 . S
N44 Zn34 2.119 . S
N44 C46 1.334 . S
N44 C47 1.328 . S
C45 C46 1.391 . S
C45 N48 1.329 . S
C45 H66 0.930 . S
C46 N44 1.334 . S
C46 C45 1.391 . S
C46 H53 0.930 . S
C47 N44 1.328 . S
C47 C49 1.392 . S
C47 H54 0.930 . S
N48 C45 1.329 . S
N48 C49 1.331 . S
C49 C47 1.392 . S
C49 N48 1.331 . S
O50 Zn43 1.975 . S
O50 C51 1.252 . S
C51 O50 1.252 . S
C51 O52 1.252 . S
O52 Zn34 1.975 . S
O52 C51 1.252 . S
H53 C46 0.930 . S
H54 C47 0.930 . S
C55 C56 1.392 . S
C55 N59 1.328 . S
C55 H61 0.930 . S
C56 C55 1.392 . S
C56 N60 1.331 . S
C57 C58 1.391 . S
C57 N60 1.329 . S
C57 H67 0.930 . S
C58 C57 1.391 . S
C58 N59 1.334 . S
C58 H65 0.930 . S
N59 Zn43 2.119 . S
N59 C55 1.328 . S
N59 C58 1.334 . S
N60 C56 1.331 . S
N60 C57 1.329 . S
H61 C55 0.930 . S
C62 O42 1.257 . S
C62 O63 1.244 . S
O63 C62 1.244 . S
O64 C40 1.257 . S
O64 Zn43 2.019 . S
H65 C58 0.930 . S
H66 C45 0.930 . S
H67 C57 0.930 . S
Zn68 N72 2.020 . S
Zn68 O76 2.019 . S
Zn68 N78 2.119 . S
Zn68 O86 1.975 . S
C69 N70 1.334 . S
C69 N73 1.336 . S
N70 C69 1.334 . S
N70 C71 1.334 . S
C71 N70 1.334 . S
C71 N72 1.336 . S
N72 Zn68 2.020 . S
N72 C71 1.336 . S
N72 N73 1.354 . S
N73 C69 1.336 . S
N73 N72 1.354 . S
N73 Zn77 2.020 . S
C74 O75 1.244 . S
C74 O98 1.257 . S
O75 C74 1.244 . S
O76 Zn68 2.019 . S
O76 C96 1.257 . S
Zn77 N73 2.020 . S
Zn77 O84 1.975 . S
Zn77 N93 2.119 . S
Zn77 O98 2.019 . S
N78 Zn68 2.119 . S
N78 C80 1.334 . S
N78 C81 1.328 . S
C79 C80 1.391 . S
C79 N82 1.329 . S
C79 H100 0.930 . S
C80 N78 1.334 . S
C80 C79 1.391 . S
C80 H87 0.930 . S
C81 N78 1.328 . S
C81 C83 1.392 . S
C81 H88 0.930 . S
N82 C79 1.329 . S
N82 C83 1.331 . S
C83 C81 1.392 . S
C83 N82 1.331 . S
O84 Zn77 1.975 . S
O84 C85 1.252 . S
C85 O84 1.252 . S
C85 O86 1.252 . S
O86 Zn68 1.975 . S
O86 C85 1.252 . S
H87 C80 0.930 . S
H88 C81 0.930 . S
C89 C90 1.392 . S
C89 N93 1.328 . S
C89 H95 0.930 . S
C90 C89 1.392 . S
C90 N94 1.331 . S
C91 C92 1.391 . S
C91 N94 1.329 . S
C91 H101 0.930 . S
C92 C91 1.391 . S
C92 N93 1.334 . S
C92 H99 0.930 . S
N93 Zn77 2.119 . S
N93 C89 1.328 . S
N93 C92 1.334 . S
N94 C90 1.331 . S
N94 C91 1.329 . S
H95 C89 0.930 . S
C96 O76 1.257 . S
C96 O97 1.244 . S
O97 C96 1.244 . S
O98 C74 1.257 . S
O98 Zn77 2.019 . S
H99 C92 0.930 . S
H100 C79 0.930 . S
H101 C91 0.930 . S
Zn102 N106 2.020 . S
Zn102 O110 2.019 . S
Zn102 N112 2.119 . S
Zn102 O120 1.975 . S
C103 N104 1.334 . S
C103 N107 1.336 . S
N104 C103 1.334 . S
N104 C105 1.334 . S
C105 N104 1.334 . S
C105 N106 1.336 . S
N106 Zn102 2.020 . S
N106 C105 1.336 . S
N106 N107 1.354 . S
N107 C103 1.336 . S
N107 N106 1.354 . S
N107 Zn111 2.020 . S
C108 O109 1.244 . S
C108 O132 1.257 . S
O109 C108 1.244 . S
O110 Zn102 2.019 . S
O110 C130 1.257 . S
Zn111 N107 2.020 . S
Zn111 O118 1.975 . S
Zn111 N127 2.119 . S
Zn111 O132 2.019 . S
N112 Zn102 2.119 . S
N112 C114 1.334 . S
N112 C115 1.328 . S
C113 C114 1.391 . S
C113 N116 1.329 . S
C113 H134 0.930 . S
C114 N112 1.334 . S
C114 C113 1.391 . S
C114 H121 0.930 . S
C115 N112 1.328 . S
C115 C117 1.392 . S
C115 H122 0.930 . S
N116 C113 1.329 . S
N116 C117 1.331 . S
C117 C115 1.392 . S
C117 N116 1.331 . S
O118 Zn111 1.975 . S
O118 C119 1.252 . S
C119 O118 1.252 . S
C119 O120 1.252 . S
O120 Zn102 1.975 . S
O120 C119 1.252 . S
H121 C114 0.930 . S
H122 C115 0.930 . S
C123 C124 1.392 . S
C123 N127 1.328 . S
C123 H129 0.930 . S
C124 C123 1.392 . S
C124 N128 1.331 . S
C125 C126 1.391 . S
C125 N128 1.329 . S
C125 H135 0.930 . S
C126 C125 1.391 . S
C126 N127 1.334 . S
C126 H133 0.930 . S
N127 Zn111 2.119 . S
N127 C123 1.328 . S
N127 C126 1.334 . S
N128 C124 1.331 . S
N128 C125 1.329 . S
H129 C123 0.930 . S
C130 O110 1.257 . S
C130 O131 1.244 . S
O131 C130 1.244 . S
O132 C108 1.257 . S
O132 Zn111 2.019 . S
H133 C126 0.930 . S
H134 C113 0.930 . S
H135 C125 0.930 . S
Zn136 N140 2.020 . S
Zn136 O144 2.019 . S
Zn136 N146 2.119 . S
Zn136 O154 1.975 . S
C137 N138 1.334 . S
C137 N141 1.336 . S
N138 C137 1.334 . S
N138 C139 1.334 . S
C139 N138 1.334 . S
C139 N140 1.336 . S
N140 Zn136 2.020 . S
N140 C139 1.336 . S
N140 N141 1.354 . S
N141 C137 1.336 . S
N141 N140 1.354 . S
N141 Zn145 2.020 . S
C142 O143 1.244 . S
C142 O166 1.257 . S
O143 C142 1.244 . S
O144 Zn136 2.019 . S
O144 C164 1.257 . S
Zn145 N141 2.020 . S
Zn145 O152 1.975 . S
Zn145 N161 2.119 . S
Zn145 O166 2.019 . S
N146 Zn136 2.119 . S
N146 C148 1.334 . S
N146 C149 1.328 . S
C147 C148 1.391 . S
C147 N150 1.329 . S
C147 H168 0.930 . S
C148 N146 1.334 . S
C148 C147 1.391 . S
C148 H155 0.930 . S
C149 N146 1.328 . S
C149 C151 1.392 . S
C149 H156 0.930 . S
N150 C147 1.329 . S
N150 C151 1.331 . S
C151 C149 1.392 . S
C151 N150 1.331 . S
O152 Zn145 1.975 . S
O152 C153 1.252 . S
C153 O152 1.252 . S
C153 O154 1.252 . S
O154 Zn136 1.975 . S
O154 C153 1.252 . S
H155 C148 0.930 . S
H156 C149 0.930 . S
C157 C158 1.392 . S
C157 N161 1.328 . S
C157 H163 0.930 . S
C158 C157 1.392 . S
C158 N162 1.331 . S
C159 C160 1.391 . S
C159 N162 1.329 . S
C159 H169 0.930 . S
C160 C159 1.391 . S
C160 N161 1.334 . S
C160 H167 0.930 . S
N161 Zn145 2.119 . S
N161 C157 1.328 . S
N161 C160 1.334 . S
N162 C158 1.331 . S
N162 C159 1.329 . S
H163 C157 0.930 . S
C164 O144 1.257 . S
C164 O165 1.244 . S
O165 C164 1.244 . S
O166 C142 1.257 . S
O166 Zn145 2.019 . S
H167 C160 0.930 . S
H168 C147 0.930 . S
H169 C159 0.930 . S
Zn170 N174 2.020 . S
Zn170 O178 2.019 . S
Zn170 N180 2.119 . S
Zn170 O188 1.975 . S
C171 N172 1.334 . S
C171 N175 1.336 . S
N172 C171 1.334 . S
N172 C173 1.334 . S
C173 N172 1.334 . S
C173 N174 1.336 . S
N174 Zn170 2.020 . S
N174 C173 1.336 . S
N174 N175 1.354 . S
N175 C171 1.336 . S
N175 N174 1.354 . S
N175 Zn179 2.020 . S
C176 O177 1.244 . S
C176 O200 1.257 . S
O177 C176 1.244 . S
O178 Zn170 2.019 . S
O178 C198 1.257 . S
Zn179 N175 2.020 . S
Zn179 O186 1.975 . S
Zn179 N195 2.119 . S
Zn179 O200 2.019 . S
N180 Zn170 2.119 . S
N180 C182 1.334 . S
N180 C183 1.328 . S
C181 C182 1.391 . S
C181 N184 1.329 . S
C181 H202 0.930 . S
C182 N180 1.334 . S
C182 C181 1.391 . S
C182 H189 0.930 . S
C183 N180 1.328 . S
C183 C185 1.392 . S
C183 H190 0.930 . S
N184 C181 1.329 . S
N184 C185 1.331 . S
C185 C183 1.392 . S
C185 N184 1.331 . S
O186 Zn179 1.975 . S
O186 C187 1.252 . S
C187 O186 1.252 . S
C187 O188 1.252 . S
O188 Zn170 1.975 . S
O188 C187 1.252 . S
H189 C182 0.930 . S
H190 C183 0.930 . S
C191 C192 1.392 . S
C191 N195 1.328 . S
C191 H197 0.930 . S
C192 C191 1.392 . S
C192 N196 1.331 . S
C193 C194 1.391 . S
C193 N196 1.329 . S
C193 H203 0.930 . S
C194 C193 1.391 . S
C194 N195 1.334 . S
C194 H201 0.930 . S
N195 Zn179 2.119 . S
N195 C191 1.328 . S
N195 C194 1.334 . S
N196 C192 1.331 . S
N196 C193 1.329 . S
H197 C191 0.930 . S
C198 O178 1.257 . S
C198 O199 1.244 . S
O199 C198 1.244 . S
O200 C176 1.257 . S
O200 Zn179 2.019 . S
H201 C194 0.930 . S
H202 C181 0.930 . S
H203 C193 0.930 . S
Zn204 N208 2.020 . S
Zn204 O212 2.019 . S
Zn204 N214 2.119 . S
Zn204 O222 1.975 . S
C205 N206 1.334 . S
C205 N209 1.336 . S
N206 C205 1.334 . S
N206 C207 1.334 . S
C207 N206 1.334 . S
C207 N208 1.336 . S
N208 Zn204 2.020 . S
N208 C207 1.336 . S
N208 N209 1.354 . S
N209 C205 1.336 . S
N209 N208 1.354 . S
N209 Zn213 2.020 . S
C210 O211 1.244 . S
C210 O234 1.257 . S
O211 C210 1.244 . S
O212 Zn204 2.019 . S
O212 C232 1.257 . S
Zn213 N209 2.020 . S
Zn213 O220 1.975 . S
Zn213 N229 2.119 . S
Zn213 O234 2.019 . S
N214 Zn204 2.119 . S
N214 C216 1.334 . S
N214 C217 1.328 . S
C215 C216 1.391 . S
C215 N218 1.329 . S
C215 H236 0.930 . S
C216 N214 1.334 . S
C216 C215 1.391 . S
C216 H223 0.930 . S
C217 N214 1.328 . S
C217 C219 1.392 . S
C217 H224 0.930 . S
N218 C215 1.329 . S
N218 C219 1.331 . S
C219 C217 1.392 . S
C219 N218 1.331 . S
O220 Zn213 1.975 . S
O220 C221 1.252 . S
C221 O220 1.252 . S
C221 O222 1.252 . S
O222 Zn204 1.975 . S
O222 C221 1.252 . S
H223 C216 0.930 . S
H224 C217 0.930 . S
C225 C226 1.392 . S
C225 N229 1.328 . S
C225 H231 0.930 . S
C226 C225 1.392 . S
C226 N230 1.331 . S
C227 C228 1.391 . S
C227 N230 1.329 . S
C227 H237 0.930 . S
C228 C227 1.391 . S
C228 N229 1.334 . S
C228 H235 0.930 . S
N229 Zn213 2.119 . S
N229 C225 1.328 . S
N229 C228 1.334 . S
N230 C226 1.331 . S
N230 C227 1.329 . S
H231 C225 0.930 . S
C232 O212 1.257 . S
C232 O233 1.244 . S
O233 C232 1.244 . S
O234 C210 1.257 . S
O234 Zn213 2.019 . S
H235 C228 0.930 . S
H236 C215 0.930 . S
H237 C227 0.930 . S
Zn238 N242 2.020 . S
Zn238 O246 2.019 . S
Zn238 N248 2.119 . S
Zn238 O256 1.975 . S
C239 N240 1.334 . S
C239 N243 1.336 . S
N240 C239 1.334 . S
N240 C241 1.334 . S
C241 N240 1.334 . S
C241 N242 1.336 . S
N242 Zn238 2.020 . S
N242 C241 1.336 . S
N242 N243 1.354 . S
N243 C239 1.336 . S
N243 N242 1.354 . S
N243 Zn247 2.020 . S
C244 O245 1.244 . S
C244 O268 1.257 . S
O245 C244 1.244 . S
O246 Zn238 2.019 . S
O246 C266 1.257 . S
Zn247 N243 2.020 . S
Zn247 O254 1.975 . S
Zn247 N263 2.119 . S
Zn247 O268 2.019 . S
N248 Zn238 2.119 . S
N248 C250 1.334 . S
N248 C251 1.328 . S
C249 C250 1.391 . S
C249 N252 1.329 . S
C249 H270 0.930 . S
C250 N248 1.334 . S
C250 C249 1.391 . S
C250 H257 0.930 . S
C251 N248 1.328 . S
C251 C253 1.392 . S
C251 H258 0.930 . S
N252 C249 1.329 . S
N252 C253 1.331 . S
C253 C251 1.392 . S
C253 N252 1.331 . S
O254 Zn247 1.975 . S
O254 C255 1.252 . S
C255 O254 1.252 . S
C255 O256 1.252 . S
O256 Zn238 1.975 . S
O256 C255 1.252 . S
H257 C250 0.930 . S
H258 C251 0.930 . S
C259 C260 1.392 . S
C259 N263 1.328 . S
C259 H265 0.930 . S
C260 C259 1.392 . S
C260 N264 1.331 . S
C261 C262 1.391 . S
C261 N264 1.329 . S
C261 H271 0.930 . S
C262 C261 1.391 . S
C262 N263 1.334 . S
C262 H269 0.930 . S
N263 Zn247 2.119 . S
N263 C259 1.328 . S
N263 C262 1.334 . S
N264 C260 1.331 . S
N264 C261 1.329 . S
H265 C259 0.930 . S
C266 O246 1.257 . S
C266 O267 1.244 . S
O267 C266 1.244 . S
O268 C244 1.257 . S
O268 Zn247 2.019 . S
H269 C262 0.930 . S
H270 C249 0.930 . S
H271 C261 0.930 . S
H272 C280 0.929 . S
H273 C282 0.930 . S
H274 C284 0.930 . S
H275 C287 0.929 . S
H276 C290 0.930 . S
H277 C292 0.960 . S
H278 C292 0.960 . S
H279 C292 0.960 . S
C280 H272 0.929 . S
C280 C281 1.377 . S
C280 C282 1.384 . S
C281 C280 1.377 . S
C281 C287 1.390 . S
C282 H273 0.930 . S
C282 C280 1.384 . S
C282 C283 1.372 . S
C283 C282 1.372 . S
C283 C284 1.400 . S
C283 C288 1.490 . S
C284 H274 0.930 . S
C284 C283 1.400 . S
C284 C287 1.386 . S
H285 C301 0.930 . S
H286 C302 0.931 . S
C287 H275 0.929 . S
C287 C281 1.390 . S
C287 C284 1.386 . S
C288 C283 1.490 . S
C288 C290 1.395 . S
C288 C291 1.403 . S
H289 C295 0.930 . S
C290 H276 0.930 . S
C290 C288 1.395 . S
C290 C293 1.403 . S
C291 C288 1.403 . S
C291 C292 1.524 . S
C291 C295 1.400 . S
C292 H277 0.960 . S
C292 H278 0.960 . S
C292 H279 0.960 . S
C292 C291 1.524 . S
C293 C290 1.403 . S
C293 C294 1.392 . S
C293 C297 1.495 . S
C294 C293 1.392 . S
C294 C295 1.385 . S
C294 C296 1.478 . S
C295 H289 0.930 . S
C295 C291 1.400 . S
C295 C294 1.385 . S
C296 C294 1.478 . S
C296 C298 1.381 . S
C296 C302 1.383 . S
C297 C293 1.495 . S
C297 H303 0.959 . S
C297 H304 0.961 . S
C297 H305 0.960 . S
C298 C296 1.381 . S
C298 C299 1.394 1_554 S
C298 H306 0.930 . S
C299 C298 1.394 1_556 S
C299 C300 1.383 . S
C299 H307 0.929 . S
C300 C299 1.383 . S
C300 C301 1.377 . S
C301 H285 0.930 . S
C301 C300 1.377 . S
C301 C302 1.379 1_556 S
C302 H286 0.931 . S
C302 C296 1.383 . S
C302 C301 1.379 1_554 S
H303 C297 0.959 . S
H304 C297 0.961 . S
H305 C297 0.960 . S
H306 C298 0.930 . S
H307 C299 0.929 . S
H308 C316 0.929 . S
H309 C318 0.930 . S
H310 C320 0.930 . S
H311 C323 0.929 . S
H312 C326 0.930 . S
H313 C328 0.960 . S
H314 C328 0.960 . S
H315 C328 0.960 . S
C316 H308 0.929 . S
C316 C317 1.377 . S
C316 C318 1.384 1_554 S
C317 C316 1.377 . S
C317 C323 1.390 . S
C318 H309 0.930 . S
C318 C316 1.384 1_556 S
C318 C319 1.372 . S
C319 C318 1.372 . S
C319 C320 1.400 . S
C319 C324 1.490 . S
C320 H310 0.930 . S
C320 C319 1.400 . S
C320 C323 1.386 1_556 S
H321 C337 0.930 . S
H322 C338 0.931 . S
C323 H311 0.929 . S
C323 C317 1.390 . S
C323 C320 1.386 1_554 S
C324 C319 1.490 . S
C324 C326 1.395 . S
C324 C327 1.403 . S
H325 C331 0.930 . S
C326 H312 0.930 . S
C326 C324 1.395 . S
C326 C329 1.403 . S
C327 C324 1.403 . S
C327 C328 1.524 . S
C327 C331 1.400 . S
C328 H313 0.960 . S
C328 H314 0.960 . S
C328 H315 0.960 . S
C328 C327 1.524 . S
C329 C326 1.403 . S
C329 C330 1.392 . S
C329 C333 1.495 . S
C330 C329 1.392 . S
C330 C331 1.385 . S
C330 C332 1.478 . S
C331 H325 0.930 . S
C331 C327 1.400 . S
C331 C330 1.385 . S
C332 C330 1.478 . S
C332 C334 1.381 . S
C332 C338 1.383 . S
C333 C329 1.495 . S
C333 H339 0.959 . S
C333 H340 0.961 . S
C333 H341 0.960 . S
C334 C332 1.381 . S
C334 C335 1.394 . S
C334 H342 0.930 . S
C335 C334 1.394 . S
C335 C336 1.383 . S
C335 H343 0.929 . S
C336 C335 1.383 . S
C336 C337 1.377 . S
C337 H321 0.930 . S
C337 C336 1.377 . S
C337 C338 1.379 . S
C338 H322 0.931 . S
C338 C332 1.383 . S
C338 C337 1.379 . S
H339 C333 0.959 . S
H340 C333 0.961 . S
H341 C333 0.960 . S
H342 C334 0.930 . S
H343 C335 0.929 . S
H344 C352 0.929 . S
H345 C354 0.930 . S
H346 C356 0.930 . S
H347 C359 0.929 . S
H348 C362 0.930 . S
H349 C364 0.960 . S
H350 C364 0.960 . S
H351 C364 0.960 . S
C352 H344 0.929 . S
C352 C353 1.377 . S
C352 C354 1.384 1_556 S
C353 C352 1.377 . S
C353 C359 1.390 . S
C354 H345 0.930 . S
C354 C352 1.384 1_554 S
C354 C355 1.372 . S
C355 C354 1.372 . S
C355 C356 1.400 . S
C355 C360 1.490 . S
C356 H346 0.930 . S
C356 C355 1.400 . S
C356 C359 1.386 1_554 S
H357 C373 0.930 . S
H358 C374 0.931 . S
C359 H347 0.929 . S
C359 C353 1.390 . S
C359 C356 1.386 1_556 S
C360 C355 1.490 . S
C360 C362 1.395 . S
C360 C363 1.403 . S
H361 C367 0.930 . S
C362 H348 0.930 . S
C362 C360 1.395 . S
C362 C365 1.403 . S
C363 C360 1.403 . S
C363 C364 1.524 . S
C363 C367 1.400 . S
C364 H349 0.960 . S
C364 H350 0.960 . S
C364 H351 0.960 . S
C364 C363 1.524 . S
C365 C362 1.403 . S
C365 C366 1.392 . S
C365 C369 1.495 . S
C366 C365 1.392 . S
C366 C367 1.385 . S
C366 C368 1.478 . S
C367 H361 0.930 . S
C367 C363 1.400 . S
C367 C366 1.385 . S
C368 C366 1.478 . S
C368 C370 1.381 . S
C368 C374 1.383 . S
C369 C365 1.495 . S
C369 H375 0.959 . S
C369 H376 0.961 . S
C369 H377 0.960 . S
C370 C368 1.381 . S
C370 C371 1.394 . S
C370 H378 0.930 . S
C371 C370 1.394 . S
C371 C372 1.383 . S
C371 H379 0.929 . S
C372 C371 1.383 . S
C372 C373 1.377 . S
C373 H357 0.930 . S
C373 C372 1.377 . S
C373 C374 1.379 . S
C374 H358 0.931 . S
C374 C368 1.383 . S
C374 C373 1.379 . S
H375 C369 0.959 . S
H376 C369 0.961 . S
H377 C369 0.960 . S
H378 C370 0.930 . S
H379 C371 0.929 . S
H380 C388 0.929 . S
H381 C390 0.930 . S
H382 C392 0.930 . S
H383 C395 0.929 . S
H384 C398 0.930 . S
H385 C400 0.960 . S
H386 C400 0.960 . S
H387 C400 0.960 . S
C388 H380 0.929 . S
C388 C389 1.377 . S
C388 C390 1.384 . S
C389 C388 1.377 . S
C389 C395 1.390 . S
C390 H381 0.930 . S
C390 C388 1.384 . S
C390 C391 1.372 . S
C391 C390 1.372 . S
C391 C392 1.400 . S
C391 C396 1.490 . S
C392 H382 0.930 . S
C392 C391 1.400 . S
C392 C395 1.386 . S
H393 C409 0.930 . S
H394 C410 0.931 . S
C395 H383 0.929 . S
C395 C389 1.390 . S
C395 C392 1.386 . S
C396 C391 1.490 . S
C396 C398 1.395 . S
C396 C399 1.403 . S
H397 C403 0.930 . S
C398 H384 0.930 . S
C398 C396 1.395 . S
C398 C401 1.403 . S
C399 C396 1.403 . S
C399 C400 1.524 . S
C399 C403 1.400 . S
C400 H385 0.960 . S
C400 H386 0.960 . S
C400 H387 0.960 . S
C400 C399 1.524 . S
C401 C398 1.403 . S
C401 C402 1.392 . S
C401 C405 1.495 . S
C402 C401 1.392 . S
C402 C403 1.385 . S
C402 C404 1.478 . S
C403 H397 0.930 . S
C403 C399 1.400 . S
C403 C402 1.385 . S
C404 C402 1.478 . S
C404 C406 1.381 . S
C404 C410 1.383 . S
C405 C401 1.495 . S
C405 H411 0.959 . S
C405 H412 0.961 . S
C405 H413 0.960 . S
C406 C404 1.381 . S
C406 C407 1.394 1_556 S
C406 H414 0.930 . S
C407 C406 1.394 1_554 S
C407 C408 1.383 . S
C407 H415 0.929 . S
C408 C407 1.383 . S
C408 C409 1.377 . S
C409 H393 0.930 . S
C409 C408 1.377 . S
C409 C410 1.379 1_554 S
C410 H394 0.931 . S
C410 C404 1.383 . S
C410 C409 1.379 1_556 S
H411 C405 0.959 . S
H412 C405 0.961 . S
H413 C405 0.960 . S
H414 C406 0.930 . S
H415 C407 0.929 . S
H416 C424 0.929 . S
H417 C426 0.930 . S
H418 C428 0.930 . S
H419 C431 0.929 . S
H420 C434 0.930 . S
H421 C436 0.960 . S
H422 C436 0.960 . S
H423 C436 0.960 . S
C424 H416 0.929 . S
C424 C425 1.377 . S
C424 C426 1.384 . S
C425 C424 1.377 . S
C425 C431 1.390 . S
C426 H417 0.930 . S
C426 C424 1.384 . S
C426 C427 1.372 . S
C427 C426 1.372 . S
C427 C428 1.400 . S
C427 C432 1.490 . S
C428 H418 0.930 . S
C428 C427 1.400 . S
C428 C431 1.386 . S
H429 C445 0.930 . S
H430 C446 0.931 . S
C431 H419 0.929 . S
C431 C425 1.390 . S
C431 C428 1.386 . S
C432 C427 1.490 . S
C432 C434 1.395 . S
C432 C435 1.403 . S
H433 C439 0.930 . S
C434 H420 0.930 . S
C434 C432 1.395 . S
C434 C437 1.403 . S
C435 C432 1.403 . S
C435 C436 1.524 . S
C435 C439 1.400 . S
C436 H421 0.960 . S
C436 H422 0.960 . S
C436 H423 0.960 . S
C436 C435 1.524 . S
C437 C434 1.403 . S
C437 C438 1.392 . S
C437 C441 1.495 . S
C438 C437 1.392 . S
C438 C439 1.385 . S
C438 C440 1.478 . S
C439 H433 0.930 . S
C439 C435 1.400 . S
C439 C438 1.385 . S
C440 C438 1.478 . S
C440 C442 1.381 . S
C440 C446 1.383 . S
C441 C437 1.495 . S
C441 H447 0.959 . S
C441 H448 0.961 . S
C441 H449 0.960 . S
C442 C440 1.381 . S
C442 C443 1.394 . S
C442 H450 0.930 . S
C443 C442 1.394 . S
C443 C444 1.383 . S
C443 H451 0.929 . S
C444 C443 1.383 . S
C444 C445 1.377 . S
C445 H429 0.930 . S
C445 C444 1.377 . S
C445 C446 1.379 . S
C446 H430 0.931 . S
C446 C440 1.383 . S
C446 C445 1.379 . S
H447 C441 0.959 . S
H448 C441 0.961 . S
H449 C441 0.960 . S
H450 C442 0.930 . S
H451 C443 0.929 . S
H452 C460 0.929 . S
H453 C462 0.930 . S
H454 C464 0.930 . S
H455 C467 0.929 . S
H456 C470 0.930 . S
H457 C472 0.960 . S
H458 C472 0.960 . S
H459 C472 0.960 . S
C460 H452 0.929 . S
C460 C461 1.377 . S
C460 C462 1.384 . S
C461 C460 1.377 . S
C461 C467 1.390 . S
C462 H453 0.930 . S
C462 C460 1.384 . S
C462 C463 1.372 . S
C463 C462 1.372 . S
C463 C464 1.400 . S
C463 C468 1.490 . S
C464 H454 0.930 . S
C464 C463 1.400 . S
C464 C467 1.386 . S
H465 C481 0.930 . S
H466 C482 0.931 . S
C467 H455 0.929 . S
C467 C461 1.390 . S
C467 C464 1.386 . S
C468 C463 1.490 . S
C468 C470 1.395 . S
C468 C471 1.403 . S
H469 C475 0.930 . S
C470 H456 0.930 . S
C470 C468 1.395 . S
C470 C473 1.403 . S
C471 C468 1.403 . S
C471 C472 1.524 . S
C471 C475 1.400 . S
C472 H457 0.960 . S
C472 H458 0.960 . S
C472 H459 0.960 . S
C472 C471 1.524 . S
C473 C470 1.403 . S
C473 C474 1.392 . S
C473 C477 1.495 . S
C474 C473 1.392 . S
C474 C475 1.385 . S
C474 C476 1.478 . S
C475 H469 0.930 . S
C475 C471 1.400 . S
C475 C474 1.385 . S
C476 C474 1.478 . S
C476 C478 1.381 . S
C476 C482 1.383 . S
C477 C473 1.495 . S
C477 H483 0.959 . S
C477 H484 0.961 . S
C477 H485 0.960 . S
C478 C476 1.381 . S
C478 C479 1.394 . S
C478 H486 0.930 . S
C479 C478 1.394 . S
C479 C480 1.383 . S
C479 H487 0.929 . S
C480 C479 1.383 . S
C480 C481 1.377 . S
C481 H465 0.930 . S
C481 C480 1.377 . S
C481 C482 1.379 . S
C482 H466 0.931 . S
C482 C476 1.383 . S
C482 C481 1.379 . S
H483 C477 0.959 . S
H484 C477 0.961 . S
H485 C477 0.960 . S
H486 C478 0.930 . S
H487 C479 0.929 . S
H488 C496 0.929 . S
H489 C498 0.930 . S
H490 C500 0.930 . S
H491 C503 0.929 . S
H492 C506 0.930 . S
H493 C508 0.960 . S
H494 C508 0.960 . S
H495 C508 0.960 . S
C496 H488 0.929 . S
C496 C497 1.377 . S
C496 C498 1.384 . S
C497 C496 1.377 . S
C497 C503 1.390 . S
C498 H489 0.930 . S
C498 C496 1.384 . S
C498 C499 1.372 . S
C499 C498 1.372 . S
C499 C500 1.400 . S
C499 C504 1.490 . S
C500 H490 0.930 . S
C500 C499 1.400 . S
C500 C503 1.386 . S
H501 C517 0.930 . S
H502 C518 0.931 . S
C503 H491 0.929 . S
C503 C497 1.390 . S
C503 C500 1.386 . S
C504 C499 1.490 . S
C504 C506 1.395 . S
C504 C507 1.403 . S
H505 C511 0.930 . S
C506 H492 0.930 . S
C506 C504 1.395 . S
C506 C509 1.403 . S
C507 C504 1.403 . S
C507 C508 1.524 . S
C507 C511 1.400 . S
C508 H493 0.960 . S
C508 H494 0.960 . S
C508 H495 0.960 . S
C508 C507 1.524 . S
C509 C506 1.403 . S
C509 C510 1.392 . S
C509 C513 1.495 . S
C510 C509 1.392 . S
C510 C511 1.385 . S
C510 C512 1.478 . S
C511 H505 0.930 . S
C511 C507 1.400 . S
C511 C510 1.385 . S
C512 C510 1.478 . S
C512 C514 1.381 . S
C512 C518 1.383 . S
C513 C509 1.495 . S
C513 H519 0.959 . S
C513 H520 0.961 . S
C513 H521 0.960 . S
C514 C512 1.381 . S
C514 C515 1.394 . S
C514 H522 0.930 . S
C515 C514 1.394 . S
C515 C516 1.383 . S
C515 H523 0.929 . S
C516 C515 1.383 . S
C516 C517 1.377 . S
C517 H501 0.930 . S
C517 C516 1.377 . S
C517 C518 1.379 . S
C518 H502 0.931 . S
C518 C512 1.383 . S
C518 C517 1.379 . S
H519 C513 0.959 . S
H520 C513 0.961 . S
H521 C513 0.960 . S
H522 C514 0.930 . S
H523 C515 0.929 . S
H524 C532 0.929 . S
H525 C534 0.930 . S
H526 C536 0.930 . S
H527 C539 0.929 . S
H528 C542 0.930 . S
H529 C544 0.960 . S
H530 C544 0.960 . S
H531 C544 0.960 . S
C532 H524 0.929 . S
C532 C533 1.377 . S
C532 C534 1.384 . S
C533 C532 1.377 . S
C533 C539 1.390 . S
C534 H525 0.930 . S
C534 C532 1.384 . S
C534 C535 1.372 . S
C535 C534 1.372 . S
C535 C536 1.400 . S
C535 C540 1.490 . S
C536 H526 0.930 . S
C536 C535 1.400 . S
C536 C539 1.386 . S
H537 C553 0.930 . S
H538 C554 0.931 . S
C539 H527 0.929 . S
C539 C533 1.390 . S
C539 C536 1.386 . S
C540 C535 1.490 . S
C540 C542 1.395 . S
C540 C543 1.403 . S
H541 C547 0.930 . S
C542 H528 0.930 . S
C542 C540 1.395 . S
C542 C545 1.403 . S
C543 C540 1.403 . S
C543 C544 1.524 . S
C543 C547 1.400 . S
C544 H529 0.960 . S
C544 H530 0.960 . S
C544 H531 0.960 . S
C544 C543 1.524 . S
C545 C542 1.403 . S
C545 C546 1.392 . S
C545 C549 1.495 . S
C546 C545 1.392 . S
C546 C547 1.385 . S
C546 C548 1.478 . S
C547 H541 0.930 . S
C547 C543 1.400 . S
C547 C546 1.385 . S
C548 C546 1.478 . S
C548 C550 1.381 . S
C548 C554 1.383 . S
C549 C545 1.495 . S
C549 H555 0.959 . S
C549 H556 0.961 . S
C549 H557 0.960 . S
C550 C548 1.381 . S
C550 C551 1.394 . S
C550 H558 0.930 . S
C551 C550 1.394 . S
C551 C552 1.383 . S
C551 H559 0.929 . S
C552 C551 1.383 . S
C552 C553 1.377 . S
C553 H537 0.930 . S
C553 C552 1.377 . S
C553 C554 1.379 . S
C554 H538 0.931 . S
C554 C548 1.383 . S
C554 C553 1.379 . S
H555 C549 0.959 . S
H556 C549 0.961 . S
H557 C549 0.960 . S
H558 C550 0.930 . S
H559 C551 0.929 . S
H560 C568 0.929 . S
H561 C570 0.930 . S
H562 C572 0.930 . S
H563 C575 0.929 . S
H564 C578 0.930 . S
H565 C580 0.960 1_565 S
H566 C580 0.960 . S
H567 C580 0.960 . S
C568 H560 0.929 . S
C568 C569 1.377 . S
C568 C570 1.384 . S
C569 C568 1.377 . S
C569 C575 1.390 . S
C570 H561 0.930 . S
C570 C568 1.384 . S
C570 C571 1.372 . S
C571 C570 1.372 . S
C571 C572 1.400 . S
C571 C576 1.490 . S
C572 H562 0.930 . S
C572 C571 1.400 . S
C572 C575 1.386 . S
H573 C589 0.930 . S
H574 C590 0.931 . S
C575 H563 0.929 . S
C575 C569 1.390 . S
C575 C572 1.386 . S
C576 C571 1.490 . S
C576 C578 1.395 . S
C576 C579 1.403 . S
H577 C583 0.930 . S
C578 H564 0.930 . S
C578 C576 1.395 . S
C578 C581 1.403 1_545 S
C579 C576 1.403 . S
C579 C580 1.524 . S
C579 C583 1.400 1_545 S
C580 H565 0.960 1_545 S
C580 H566 0.960 . S
C580 H567 0.960 . S
C580 C579 1.524 . S
C581 C578 1.403 1_565 S
C581 C582 1.392 . S
C581 C585 1.495 . S
C582 C581 1.392 . S
C582 C583 1.385 . S
C582 C584 1.478 . S
C583 H577 0.930 . S
C583 C579 1.400 1_565 S
C583 C582 1.385 . S
C584 C582 1.478 . S
C584 C586 1.381 . S
C584 C590 1.383 . S
C585 C581 1.495 . S
C585 H591 0.959 1_565 S
C585 H592 0.961 . S
C585 H593 0.960 . S
C586 C584 1.381 . S
C586 C587 1.394 . S
C586 H594 0.930 . S
C587 C586 1.394 . S
C587 C588 1.383 . S
C587 H595 0.929 . S
C588 C587 1.383 . S
C588 C589 1.377 . S
C589 H573 0.930 . S
C589 C588 1.377 . S
C589 C590 1.379 . S
C590 H574 0.931 . S
C590 C584 1.383 . S
C590 C589 1.379 . S
H591 C585 0.959 1_545 S
H592 C585 0.961 . S
H593 C585 0.960 . S
H594 C586 0.930 . S
H595 C587 0.929 . S
H596 C604 0.929 . S
H597 C606 0.930 . S
H598 C608 0.930 . S
H599 C611 0.929 . S
H600 C614 0.930 . S
H601 C616 0.960 . S
H602 C616 0.960 . S
H603 C616 0.960 . S
C604 H596 0.929 . S
C604 C605 1.377 . S
C604 C606 1.384 . S
C605 C604 1.377 . S
C605 C611 1.390 . S
C606 H597 0.930 . S
C606 C604 1.384 . S
C606 C607 1.372 . S
C607 C606 1.372 . S
C607 C608 1.400 . S
C607 C612 1.490 . S
C608 H598 0.930 . S
C608 C607 1.400 . S
C608 C611 1.386 . S
H609 C625 0.930 . S
H610 C626 0.931 . S
C611 H599 0.929 . S
C611 C605 1.390 . S
C611 C608 1.386 . S
C612 C607 1.490 . S
C612 C614 1.395 . S
C612 C615 1.403 . S
H613 C619 0.930 . S
C614 H600 0.930 . S
C614 C612 1.395 . S
C614 C617 1.403 1_655 S
C615 C612 1.403 . S
C615 C616 1.524 . S
C615 C619 1.400 1_655 S
C616 H601 0.960 . S
C616 H602 0.960 . S
C616 H603 0.960 . S
C616 C615 1.524 . S
C617 C614 1.403 1_455 S
C617 C618 1.392 . S
C617 C621 1.495 . S
C618 C617 1.392 . S
C618 C619 1.385 . S
C618 C620 1.478 . S
C619 H613 0.930 . S
C619 C615 1.400 1_455 S
C619 C618 1.385 . S
C620 C618 1.478 . S
C620 C622 1.381 . S
C620 C626 1.383 . S
C621 C617 1.495 . S
C621 H627 0.959 . S
C621 H628 0.961 . S
C621 H629 0.960 . S
C622 C620 1.381 . S
C622 C623 1.394 . S
C622 H630 0.930 . S
C623 C622 1.394 . S
C623 C624 1.383 . S
C623 H631 0.929 . S
C624 C623 1.383 . S
C624 C625 1.377 . S
C625 H609 0.930 . S
C625 C624 1.377 . S
C625 C626 1.379 . S
C626 H610 0.931 . S
C626 C620 1.383 . S
C626 C625 1.379 . S
H627 C621 0.959 . S
H628 C621 0.961 . S
H629 C621 0.960 . S
H630 C622 0.930 . S
H631 C623 0.929 . S
H632 C640 0.929 . S
H633 C642 0.930 . S
H634 C644 0.930 . S
H635 C647 0.929 . S
H636 C650 0.930 . S
H637 C652 0.960 . S
H638 C652 0.960 . S
H639 C652 0.960 . S
C640 H632 0.929 . S
C640 C641 1.377 . S
C640 C642 1.384 . S
C641 C640 1.377 . S
C641 C647 1.390 . S
C642 H633 0.930 . S
C642 C640 1.384 . S
C642 C643 1.372 . S
C643 C642 1.372 . S
C643 C644 1.400 . S
C643 C648 1.490 . S
C644 H634 0.930 . S
C644 C643 1.400 . S
C644 C647 1.386 . S
H645 C661 0.930 . S
H646 C662 0.931 . S
C647 H635 0.929 . S
C647 C641 1.390 . S
C647 C644 1.386 . S
C648 C643 1.490 . S
C648 C650 1.395 1_655 S
C648 C651 1.403 . S
H649 C655 0.930 . S
C650 H636 0.930 . S
C650 C648 1.395 1_455 S
C650 C653 1.403 . S
C651 C648 1.403 . S
C651 C652 1.524 . S
C651 C655 1.400 . S
C652 H637 0.960 . S
C652 H638 0.960 . S
C652 H639 0.960 . S
C652 C651 1.524 . S
C653 C650 1.403 . S
C653 C654 1.392 . S
C653 C657 1.495 . S
C654 C653 1.392 . S
C654 C655 1.385 1_455 S
C654 C656 1.478 . S
C655 H649 0.930 . S
C655 C651 1.400 . S
C655 C654 1.385 1_655 S
C656 C654 1.478 . S
C656 C658 1.381 . S
C656 C662 1.383 . S
C657 C653 1.495 . S
C657 H663 0.959 . S
C657 H664 0.961 . S
C657 H665 0.960 . S
C658 C656 1.381 . S
C658 C659 1.394 . S
C658 H666 0.930 . S
C659 C658 1.394 . S
C659 C660 1.383 . S
C659 H667 0.929 . S
C660 C659 1.383 . S
C660 C661 1.377 . S
C661 H645 0.930 . S
C661 C660 1.377 . S
C661 C662 1.379 . S
C662 H646 0.931 . S
C662 C656 1.383 . S
C662 C661 1.379 . S
H663 C657 0.959 . S
H664 C657 0.961 . S
H665 C657 0.960 . S
H666 C658 0.930 . S
H667 C659 0.929 . S
H668 C676 0.929 . S
H669 C678 0.930 1_565 S
H670 C680 0.930 . S
H671 C683 0.929 . S
H672 C686 0.930 . S
H673 C688 0.960 . S
H674 C688 0.960 . S
H675 C688 0.960 1_545 S
C676 H668 0.929 . S
C676 C677 1.377 . S
C676 C678 1.384 . S
C677 C676 1.377 . S
C677 C683 1.390 . S
C678 H669 0.930 1_545 S
C678 C676 1.384 . S
C678 C679 1.372 . S
C679 C678 1.372 . S
C679 C680 1.400 . S
C679 C684 1.490 . S
C680 H670 0.930 . S
C680 C679 1.400 . S
C680 C683 1.386 . S
H681 C697 0.930 . S
H682 C698 0.931 1_545 S
C683 H671 0.929 . S
C683 C677 1.390 . S
C683 C680 1.386 . S
C684 C679 1.490 . S
C684 C686 1.395 . S
C684 C687 1.403 1_545 S
H685 C691 0.930 . S
C686 H672 0.930 . S
C686 C684 1.395 . S
C686 C689 1.403 . S
C687 C684 1.403 1_565 S
C687 C688 1.524 . S
C687 C691 1.400 . S
C688 H673 0.960 . S
C688 H674 0.960 . S
C688 H675 0.960 1_565 S
C688 C687 1.524 . S
C689 C686 1.403 . S
C689 C690 1.392 1_545 S
C689 C693 1.495 . S
C690 C689 1.392 1_565 S
C690 C691 1.385 . S
C690 C692 1.478 . S
C691 H685 0.930 . S
C691 C687 1.400 . S
C691 C690 1.385 . S
C692 C690 1.478 . S
C692 C694 1.381 . S
C692 C698 1.383 . S
C693 C689 1.495 . S
C693 H699 0.959 . S
C693 H700 0.961 . S
C693 H701 0.960 1_545 S
C694 C692 1.381 . S
C694 C695 1.394 . S
C694 H702 0.930 . S
C695 C694 1.394 . S
C695 C696 1.383 . S
C695 H703 0.929 . S
C696 C695 1.383 . S
C696 C697 1.377 . S
C697 H681 0.930 . S
C697 C696 1.377 . S
C697 C698 1.379 . S
C698 H682 0.931 1_565 S
C698 C692 1.383 . S
C698 C697 1.379 . S
H699 C693 0.959 . S
H700 C693 0.961 . S
H701 C693 0.960 1_565 S
H702 C694 0.930 . S
H703 C695 0.929 . S
H704 C712 0.929 . S
H705 C714 0.930 . S
H706 C716 0.930 . S
H707 C719 0.929 . S
H708 C722 0.930 . S
H709 C724 0.960 . S
H710 C724 0.960 . S
H711 C724 0.960 . S
C712 H704 0.929 . S
C712 C713 1.377 . S
C712 C714 1.384 . S
C713 C712 1.377 . S
C713 C719 1.390 . S
C714 H705 0.930 . S
C714 C712 1.384 . S
C714 C715 1.372 . S
C715 C714 1.372 . S
C715 C716 1.400 . S
C715 C720 1.490 . S
C716 H706 0.930 . S
C716 C715 1.400 . S
C716 C719 1.386 . S
H717 C733 0.930 . S
H718 C734 0.931 . S
C719 H707 0.929 . S
C719 C713 1.390 . S
C719 C716 1.386 . S
C720 C715 1.490 . S
C720 C722 1.395 . S
C720 C723 1.403 . S
H721 C727 0.930 . S
C722 H708 0.930 . S
C722 C720 1.395 . S
C722 C725 1.403 . S
C723 C720 1.403 . S
C723 C724 1.524 . S
C723 C727 1.400 . S
C724 H709 0.960 . S
C724 H710 0.960 . S
C724 H711 0.960 . S
C724 C723 1.524 . S
C725 C722 1.403 . S
C725 C726 1.392 . S
C725 C729 1.495 . S
C726 C725 1.392 . S
C726 C727 1.385 . S
C726 C728 1.478 . S
C727 H721 0.930 . S
C727 C723 1.400 . S
C727 C726 1.385 . S
C728 C726 1.478 . S
C728 C730 1.381 . S
C728 C734 1.383 . S
C729 C725 1.495 . S
C729 H735 0.959 . S
C729 H736 0.961 . S
C729 H737 0.960 . S
C730 C728 1.381 . S
C730 C731 1.394 . S
C730 H738 0.930 . S
C731 C730 1.394 . S
C731 C732 1.383 . S
C731 H739 0.929 . S
C732 C731 1.383 . S
C732 C733 1.377 . S
C733 H717 0.930 . S
C733 C732 1.377 . S
C733 C734 1.379 . S
C734 H718 0.931 . S
C734 C728 1.383 . S
C734 C733 1.379 . S
H735 C729 0.959 . S
H736 C729 0.961 . S
H737 C729 0.960 . S
H738 C730 0.930 . S
H739 C731 0.929 . S
H740 C748 0.929 . S
H741 C750 0.930 . S
H742 C752 0.930 . S
H743 C755 0.929 . S
H744 C758 0.930 . S
H745 C760 0.960 . S
H746 C760 0.960 . S
H747 C760 0.960 . S
C748 H740 0.929 . S
C748 C749 1.377 . S
C748 C750 1.384 . S
C749 C748 1.377 . S
C749 C755 1.390 . S
C750 H741 0.930 . S
C750 C748 1.384 . S
C750 C751 1.372 . S
C751 C750 1.372 . S
C751 C752 1.400 . S
C751 C756 1.490 . S
C752 H742 0.930 . S
C752 C751 1.400 . S
C752 C755 1.386 . S
H753 C769 0.930 . S
H754 C770 0.931 . S
C755 H743 0.929 . S
C755 C749 1.390 . S
C755 C752 1.386 . S
C756 C751 1.490 . S
C756 C758 1.395 . S
C756 C759 1.403 . S
H757 C763 0.930 . S
C758 H744 0.930 . S
C758 C756 1.395 . S
C758 C761 1.403 . S
C759 C756 1.403 . S
C759 C760 1.524 . S
C759 C763 1.400 . S
C760 H745 0.960 . S
C760 H746 0.960 . S
C760 H747 0.960 . S
C760 C759 1.524 . S
C761 C758 1.403 . S
C761 C762 1.392 . S
C761 C765 1.495 . S
C762 C761 1.392 . S
C762 C763 1.385 . S
C762 C764 1.478 . S
C763 H757 0.930 . S
C763 C759 1.400 . S
C763 C762 1.385 . S
C764 C762 1.478 . S
C764 C766 1.381 . S
C764 C770 1.383 . S
C765 C761 1.495 . S
C765 H771 0.959 . S
C765 H772 0.961 . S
C765 H773 0.960 . S
C766 C764 1.381 . S
C766 C767 1.394 . S
C766 H774 0.930 . S
C767 C766 1.394 . S
C767 C768 1.383 . S
C767 H775 0.929 . S
C768 C767 1.383 . S
C768 C769 1.377 . S
C769 H753 0.930 . S
C769 C768 1.377 . S
C769 C770 1.379 . S
C770 H754 0.931 . S
C770 C764 1.383 . S
C770 C769 1.379 . S
H771 C765 0.959 . S
H772 C765 0.961 . S
H773 C765 0.960 . S
H774 C766 0.930 . S
H775 C767 0.929 . S
H776 C784 0.929 . S
H777 C786 0.930 . S
H778 C788 0.930 . S
H779 C791 0.929 . S
H780 C794 0.930 . S
H781 C796 0.960 . S
H782 C796 0.960 . S
H783 C796 0.960 . S
C784 H776 0.929 . S
C784 C785 1.377 . S
C784 C786 1.384 . S
C785 C784 1.377 . S
C785 C791 1.390 . S
C786 H777 0.930 . S
C786 C784 1.384 . S
C786 C787 1.372 . S
C787 C786 1.372 . S
C787 C788 1.400 . S
C787 C792 1.490 . S
C788 H778 0.930 . S
C788 C787 1.400 . S
C788 C791 1.386 . S
H789 C805 0.930 . S
H790 C806 0.931 . S
C791 H779 0.929 . S
C791 C785 1.390 . S
C791 C788 1.386 . S
C792 C787 1.490 . S
C792 C794 1.395 . S
C792 C795 1.403 . S
H793 C799 0.930 . S
C794 H780 0.930 . S
C794 C792 1.395 . S
C794 C797 1.403 . S
C795 C792 1.403 . S
C795 C796 1.524 . S
C795 C799 1.400 . S
C796 H781 0.960 . S
C796 H782 0.960 . S
C796 H783 0.960 . S
C796 C795 1.524 . S
C797 C794 1.403 . S
C797 C798 1.392 . S
C797 C801 1.495 . S
C798 C797 1.392 . S
C798 C799 1.385 . S
C798 C800 1.478 . S
C799 H793 0.930 . S
C799 C795 1.400 . S
C799 C798 1.385 . S
C800 C798 1.478 . S
C800 C802 1.381 . S
C800 C806 1.383 . S
C801 C797 1.495 . S
C801 H807 0.959 . S
C801 H808 0.961 . S
C801 H809 0.960 . S
C802 C800 1.381 . S
C802 C803 1.394 . S
C802 H810 0.930 . S
C803 C802 1.394 . S
C803 C804 1.383 . S
C803 H811 0.929 . S
C804 C803 1.383 . S
C804 C805 1.377 . S
C805 H789 0.930 . S
C805 C804 1.377 . S
C805 C806 1.379 . S
C806 H790 0.931 . S
C806 C800 1.383 . S
C806 C805 1.379 . S
H807 C801 0.959 . S
H808 C801 0.961 . S
H809 C801 0.960 . S
H810 C802 0.930 . S
H811 C803 0.929 . S
H812 C820 0.929 . S
H813 C822 0.930 . S
H814 C824 0.930 . S
H815 C827 0.929 . S
H816 C830 0.930 . S
H817 C832 0.960 . S
H818 C832 0.960 . S
H819 C832 0.960 . S
C820 H812 0.929 . S
C820 C821 1.377 . S
C820 C822 1.384 . S
C821 C820 1.377 . S
C821 C827 1.390 . S
C822 H813 0.930 . S
C822 C820 1.384 . S
C822 C823 1.372 . S
C823 C822 1.372 . S
C823 C824 1.400 . S
C823 C828 1.490 . S
C824 H814 0.930 . S
C824 C823 1.400 . S
C824 C827 1.386 . S
H825 C841 0.930 . S
H826 C842 0.931 . S
C827 H815 0.929 . S
C827 C821 1.390 . S
C827 C824 1.386 . S
C828 C823 1.490 . S
C828 C830 1.395 . S
C828 C831 1.403 . S
H829 C835 0.930 . S
C830 H816 0.930 . S
C830 C828 1.395 . S
C830 C833 1.403 . S
C831 C828 1.403 . S
C831 C832 1.524 . S
C831 C835 1.400 . S
C832 H817 0.960 . S
C832 H818 0.960 . S
C832 H819 0.960 . S
C832 C831 1.524 . S
C833 C830 1.403 . S
C833 C834 1.392 . S
C833 C837 1.495 . S
C834 C833 1.392 . S
C834 C835 1.385 . S
C834 C836 1.478 . S
C835 H829 0.930 . S
C835 C831 1.400 . S
C835 C834 1.385 . S
C836 C834 1.478 . S
C836 C838 1.381 . S
C836 C842 1.383 . S
C837 C833 1.495 . S
C837 H843 0.959 . S
C837 H844 0.961 . S
C837 H845 0.960 . S
C838 C836 1.381 . S
C838 C839 1.394 . S
C838 H846 0.930 . S
C839 C838 1.394 . S
C839 C840 1.383 . S
C839 H847 0.929 . S
C840 C839 1.383 . S
C840 C841 1.377 . S
C841 H825 0.930 . S
C841 C840 1.377 . S
C841 C842 1.379 . S
C842 H826 0.931 . S
C842 C836 1.383 . S
C842 C841 1.379 . S
H843 C837 0.959 . S
H844 C837 0.961 . S
H845 C837 0.960 . S
H846 C838 0.930 . S
H847 C839 0.929 . S
H848 C856 0.929 . S
H849 C858 0.930 . S
H850 C860 0.930 . S
H851 C863 0.929 . S
H852 C866 0.930 . S
H853 C868 0.960 . S
H854 C868 0.960 . S
H855 C868 0.960 . S
C856 H848 0.929 . S
C856 C857 1.377 . S
C856 C858 1.384 . S
C857 C856 1.377 . S
C857 C863 1.390 . S
C858 H849 0.930 . S
C858 C856 1.384 . S
C858 C859 1.372 . S
C859 C858 1.372 . S
C859 C860 1.400 . S
C859 C864 1.490 . S
C860 H850 0.930 . S
C860 C859 1.400 . S
C860 C863 1.386 . S
H861 C877 0.930 . S
H862 C878 0.931 . S
C863 H851 0.929 . S
C863 C857 1.390 . S
C863 C860 1.386 . S
C864 C859 1.490 . S
C864 C866 1.395 . S
C864 C867 1.403 . S
H865 C871 0.930 . S
C866 H852 0.930 . S
C866 C864 1.395 . S
C866 C869 1.403 . S
C867 C864 1.403 . S
C867 C868 1.524 . S
C867 C871 1.400 . S
C868 H853 0.960 . S
C868 H854 0.960 . S
C868 H855 0.960 . S
C868 C867 1.524 . S
C869 C866 1.403 . S
C869 C870 1.392 . S
C869 C873 1.495 . S
C870 C869 1.392 . S
C870 C871 1.385 . S
C870 C872 1.478 . S
C871 H865 0.930 . S
C871 C867 1.400 . S
C871 C870 1.385 . S
C872 C870 1.478 . S
C872 C874 1.381 . S
C872 C878 1.383 . S
C873 C869 1.495 . S
C873 H879 0.959 . S
C873 H880 0.961 . S
C873 H881 0.960 . S
C874 C872 1.381 . S
C874 C875 1.394 . S
C874 H882 0.930 . S
C875 C874 1.394 . S
C875 C876 1.383 . S
C875 H883 0.929 . S
C876 C875 1.383 . S
C876 C877 1.377 . S
C877 H861 0.930 . S
C877 C876 1.377 . S
C877 C878 1.379 . S
C878 H862 0.931 . S
C878 C872 1.383 . S
C878 C877 1.379 . S
H879 C873 0.959 . S
H880 C873 0.961 . S
H881 C873 0.960 . S
H882 C874 0.930 . S
H883 C875 0.929 . S
H884 C892 0.929 . S
H885 C894 0.930 . S
H886 C896 0.930 . S
H887 C899 0.929 1_545 S
H888 C902 0.930 . S
H889 C904 0.960 . S
H890 C904 0.960 . S
H891 C904 0.960 . S
C892 H884 0.929 . S
C892 C893 1.377 . S
C892 C894 1.384 . S
C893 C892 1.377 . S
C893 C899 1.390 . S
C894 H885 0.930 . S
C894 C892 1.384 . S
C894 C895 1.372 . S
C895 C894 1.372 . S
C895 C896 1.400 . S
C895 C900 1.490 . S
C896 H886 0.930 . S
C896 C895 1.400 . S
C896 C899 1.386 . S
H897 C913 0.930 . S
H898 C914 0.931 . S
C899 H887 0.929 1_565 S
C899 C893 1.390 . S
C899 C896 1.386 . S
C900 C895 1.490 . S
C900 C902 1.395 . S
C900 C903 1.403 . S
H901 C907 0.930 . S
C902 H888 0.930 . S
C902 C900 1.395 . S
C902 C905 1.403 . S
C903 C900 1.403 . S
C903 C904 1.524 . S
C903 C907 1.400 . S
C904 H889 0.960 . S
C904 H890 0.960 . S
C904 H891 0.960 . S
C904 C903 1.524 . S
C905 C902 1.403 . S
C905 C906 1.392 . S
C905 C909 1.495 . S
C906 C905 1.392 . S
C906 C907 1.385 . S
C906 C908 1.478 . S
C907 H901 0.930 . S
C907 C903 1.400 . S
C907 C906 1.385 . S
C908 C906 1.478 . S
C908 C910 1.381 . S
C908 C914 1.383 . S
C909 C905 1.495 . S
C909 H915 0.959 . S
C909 H916 0.961 . S
C909 H917 0.960 . S
C910 C908 1.381 . S
C910 C911 1.394 . S
C910 H918 0.930 . S
C911 C910 1.394 . S
C911 C912 1.383 . S
C911 H919 0.929 . S
C912 C911 1.383 . S
C912 C913 1.377 . S
C913 H897 0.930 . S
C913 C912 1.377 . S
C913 C914 1.379 . S
C914 H898 0.931 . S
C914 C908 1.383 . S
C914 C913 1.379 . S
H915 C909 0.959 . S
H916 C909 0.961 . S
H917 C909 0.960 . S
H918 C910 0.930 . S
H919 C911 0.929 . S
H920 C928 0.929 . S
H921 C930 0.930 . S
H922 C932 0.930 . S
H923 C935 0.929 . S
H924 C938 0.930 . S
H925 C940 0.960 . S
H926 C940 0.960 . S
H927 C940 0.960 . S
C928 H920 0.929 . S
C928 C929 1.377 . S
C928 C930 1.384 . S
C929 C928 1.377 . S
C929 C935 1.390 . S
C930 H921 0.930 . S
C930 C928 1.384 . S
C930 C931 1.372 . S
C931 C930 1.372 . S
C931 C932 1.400 . S
C931 C936 1.490 . S
C932 H922 0.930 . S
C932 C931 1.400 . S
C932 C935 1.386 . S
H933 C949 0.930 1_455 S
H934 C950 0.931 . S
C935 H923 0.929 . S
C935 C929 1.390 . S
C935 C932 1.386 . S
C936 C931 1.490 . S
C936 C938 1.395 . S
C936 C939 1.403 . S
H937 C943 0.930 . S
C938 H924 0.930 . S
C938 C936 1.395 . S
C938 C941 1.403 . S
C939 C936 1.403 . S
C939 C940 1.524 . S
C939 C943 1.400 . S
C940 H925 0.960 . S
C940 H926 0.960 . S
C940 H927 0.960 . S
C940 C939 1.524 . S
C941 C938 1.403 . S
C941 C942 1.392 . S
C941 C945 1.495 . S
C942 C941 1.392 . S
C942 C943 1.385 . S
C942 C944 1.478 . S
C943 H937 0.930 . S
C943 C939 1.400 . S
C943 C942 1.385 . S
C944 C942 1.478 . S
C944 C946 1.381 . S
C944 C950 1.383 . S
C945 C941 1.495 . S
C945 H951 0.959 . S
C945 H952 0.961 . S
C945 H953 0.960 . S
C946 C944 1.381 . S
C946 C947 1.394 . S
C946 H954 0.930 . S
C947 C946 1.394 . S
C947 C948 1.383 . S
C947 H955 0.929 . S
C948 C947 1.383 . S
C948 C949 1.377 . S
C949 H933 0.930 1_655 S
C949 C948 1.377 . S
C949 C950 1.379 . S
C950 H934 0.931 . S
C950 C944 1.383 . S
C950 C949 1.379 . S
H951 C945 0.959 . S
H952 C945 0.961 . S
H953 C945 0.960 . S
H954 C946 0.930 . S
H955 C947 0.929 . S
H956 C964 0.929 . S
H957 C966 0.930 . S
H958 C968 0.930 . S
H959 C971 0.929 . S
H960 C974 0.930 . S
H961 C976 0.960 . S
H962 C976 0.960 . S
H963 C976 0.960 . S
C964 H956 0.929 . S
C964 C965 1.377 . S
C964 C966 1.384 . S
C965 C964 1.377 . S
C965 C971 1.390 . S
C966 H957 0.930 . S
C966 C964 1.384 . S
C966 C967 1.372 . S
C967 C966 1.372 . S
C967 C968 1.400 . S
C967 C972 1.490 . S
C968 H958 0.930 . S
C968 C967 1.400 . S
C968 C971 1.386 . S
H969 C985 0.930 1_565 S
H970 C986 0.931 . S
C971 H959 0.929 . S
C971 C965 1.390 . S
C971 C968 1.386 . S
C972 C967 1.490 . S
C972 C974 1.395 . S
C972 C975 1.403 . S
H973 C979 0.930 . S
C974 H960 0.930 . S
C974 C972 1.395 . S
C974 C977 1.403 . S
C975 C972 1.403 . S
C975 C976 1.524 . S
C975 C979 1.400 . S
C976 H961 0.960 . S
C976 H962 0.960 . S
C976 H963 0.960 . S
C976 C975 1.524 . S
C977 C974 1.403 . S
C977 C978 1.392 . S
C977 C981 1.495 . S
C978 C977 1.392 . S
C978 C979 1.385 . S
C978 C980 1.478 . S
C979 H973 0.930 . S
C979 C975 1.400 . S
C979 C978 1.385 . S
C980 C978 1.478 . S
C980 C982 1.381 . S
C980 C986 1.383 . S
C981 C977 1.495 . S
C981 H987 0.959 . S
C981 H988 0.961 . S
C981 H989 0.960 . S
C982 C980 1.381 . S
C982 C983 1.394 . S
C982 H990 0.930 . S
C983 C982 1.394 . S
C983 C984 1.383 . S
C983 H991 0.929 . S
C984 C983 1.383 . S
C984 C985 1.377 . S
C985 H969 0.930 1_545 S
C985 C984 1.377 . S
C985 C986 1.379 . S
C986 H970 0.931 . S
C986 C980 1.383 . S
C986 C985 1.379 . S
H987 C981 0.959 . S
H988 C981 0.961 . S
H989 C981 0.960 . S
H990 C982 0.930 . S
H991 C983 0.929 . S
H992 C1000 0.929 . S
H993 C1002 0.930 . S
H994 C1004 0.930 . S
H995 C1007 0.929 . S
H996 C1010 0.930 . S
H997 C1012 0.960 . S
H998 C1012 0.960 . S
H999 C1012 0.960 . S
C1000 H992 0.929 . S
C1000 C1001 1.377 . S
C1000 C1002 1.384 . S
C1001 C1000 1.377 . S
C1001 C1007 1.390 . S
C1002 H993 0.930 . S
C1002 C1000 1.384 . S
C1002 C1003 1.372 . S
C1003 C1002 1.372 . S
C1003 C1004 1.400 . S
C1003 C1008 1.490 . S
C1004 H994 0.930 . S
C1004 C1003 1.400 . S
C1004 C1007 1.386 . S
H1005 C1021 0.930 . S
H1006 C1022 0.931 . S
C1007 H995 0.929 . S
C1007 C1001 1.390 . S
C1007 C1004 1.386 . S
C1008 C1003 1.490 . S
C1008 C1010 1.395 . S
C1008 C1011 1.403 . S
H1009 C1015 0.930 . S
C1010 H996 0.930 . S
C1010 C1008 1.395 . S
C1010 C1013 1.403 . S
C1011 C1008 1.403 . S
C1011 C1012 1.524 . S
C1011 C1015 1.400 . S
C1012 H997 0.960 . S
C1012 H998 0.960 . S
C1012 H999 0.960 . S
C1012 C1011 1.524 . S
C1013 C1010 1.403 . S
C1013 C1014 1.392 . S
C1013 C1017 1.495 . S
C1014 C1013 1.392 . S
C1014 C1015 1.385 . S
C1014 C1016 1.478 . S
C1015 H1009 0.930 . S
C1015 C1011 1.400 . S
C1015 C1014 1.385 . S
C1016 C1014 1.478 . S
C1016 C1018 1.381 . S
C1016 C1022 1.383 . S
C1017 C1013 1.495 . S
C1017 H1023 0.959 . S
C1017 H1024 0.961 . S
C1017 H1025 0.960 . S
C1018 C1016 1.381 . S
C1018 C1019 1.394 . S
C1018 H1026 0.930 . S
C1019 C1018 1.394 . S
C1019 C1020 1.383 . S
C1019 H1027 0.929 . S
C1020 C1019 1.383 . S
C1020 C1021 1.377 . S
C1021 H1005 0.930 . S
C1021 C1020 1.377 . S
C1021 C1022 1.379 . S
C1022 H1006 0.931 . S
C1022 C1016 1.383 . S
C1022 C1021 1.379 . S
H1023 C1017 0.959 . S
H1024 C1017 0.961 . S
H1025 C1017 0.960 . S
H1026 C1018 0.930 . S
H1027 C1019 0.929 . S
H1028 C1036 0.929 . S
H1029 C1038 0.930 . S
H1030 C1040 0.930 . S
H1031 C1043 0.929 . S
H1032 C1046 0.930 . S
H1033 C1048 0.960 . S
H1034 C1048 0.960 . S
H1035 C1048 0.960 . S
C1036 H1028 0.929 . S
C1036 C1037 1.377 . S
C1036 C1038 1.384 . S
C1037 C1036 1.377 . S
C1037 C1043 1.390 . S
C1038 H1029 0.930 . S
C1038 C1036 1.384 . S
C1038 C1039 1.372 . S
C1039 C1038 1.372 . S
C1039 C1040 1.400 . S
C1039 C1044 1.490 . S
C1040 H1030 0.930 . S
C1040 C1039 1.400 . S
C1040 C1043 1.386 . S
H1041 C1057 0.930 . S
H1042 C1058 0.931 . S
C1043 H1031 0.929 . S
C1043 C1037 1.390 . S
C1043 C1040 1.386 . S
C1044 C1039 1.490 . S
C1044 C1046 1.395 . S
C1044 C1047 1.403 . S
H1045 C1051 0.930 . S
C1046 H1032 0.930 . S
C1046 C1044 1.395 . S
C1046 C1049 1.403 . S
C1047 C1044 1.403 . S
C1047 C1048 1.524 . S
C1047 C1051 1.400 . S
C1048 H1033 0.960 . S
C1048 H1034 0.960 . S
C1048 H1035 0.960 . S
C1048 C1047 1.524 . S
C1049 C1046 1.403 . S
C1049 C1050 1.392 . S
C1049 C1053 1.495 . S
C1050 C1049 1.392 . S
C1050 C1051 1.385 . S
C1050 C1052 1.478 . S
C1051 H1045 0.930 . S
C1051 C1047 1.400 . S
C1051 C1050 1.385 . S
C1052 C1050 1.478 . S
C1052 C1054 1.381 . S
C1052 C1058 1.383 . S
C1053 C1049 1.495 . S
C1053 H1059 0.959 . S
C1053 H1060 0.961 . S
C1053 H1061 0.960 . S
C1054 C1052 1.381 . S
C1054 C1055 1.394 . S
C1054 H1062 0.930 . S
C1055 C1054 1.394 . S
C1055 C1056 1.383 . S
C1055 H1063 0.929 . S
C1056 C1055 1.383 . S
C1056 C1057 1.377 . S
C1057 H1041 0.930 . S
C1057 C1056 1.377 . S
C1057 C1058 1.379 . S
C1058 H1042 0.931 . S
C1058 C1052 1.383 . S
C1058 C1057 1.379 . S
H1059 C1053 0.959 . S
H1060 C1053 0.961 . S
H1061 C1053 0.960 . S
H1062 C1054 0.930 . S
H1063 C1055 0.929 . S
H1064 C1072 0.929 . S
H1065 C1074 0.930 . S
H1066 C1076 0.930 . S
H1067 C1079 0.929 . S
H1068 C1082 0.930 . S
H1069 C1084 0.960 . S
H1070 C1084 0.960 . S
H1071 C1084 0.960 . S
C1072 H1064 0.929 . S
C1072 C1073 1.377 . S
C1072 C1074 1.384 . S
C1073 C1072 1.377 . S
C1073 C1079 1.390 . S
C1074 H1065 0.930 . S
C1074 C1072 1.384 . S
C1074 C1075 1.372 . S
C1075 C1074 1.372 . S
C1075 C1076 1.400 . S
C1075 C1080 1.490 . S
C1076 H1066 0.930 . S
C1076 C1075 1.400 . S
C1076 C1079 1.386 . S
H1077 C1093 0.930 . S
H1078 C1094 0.931 . S
C1079 H1067 0.929 . S
C1079 C1073 1.390 . S
C1079 C1076 1.386 . S
C1080 C1075 1.490 . S
C1080 C1082 1.395 . S
C1080 C1083 1.403 . S
H1081 C1087 0.930 . S
C1082 H1068 0.930 . S
C1082 C1080 1.395 . S
C1082 C1085 1.403 . S
C1083 C1080 1.403 . S
C1083 C1084 1.524 . S
C1083 C1087 1.400 . S
C1084 H1069 0.960 . S
C1084 H1070 0.960 . S
C1084 H1071 0.960 . S
C1084 C1083 1.524 . S
C1085 C1082 1.403 . S
C1085 C1086 1.392 . S
C1085 C1089 1.495 . S
C1086 C1085 1.392 . S
C1086 C1087 1.385 . S
C1086 C1088 1.478 . S
C1087 H1081 0.930 . S
C1087 C1083 1.400 . S
C1087 C1086 1.385 . S
C1088 C1086 1.478 . S
C1088 C1090 1.381 . S
C1088 C1094 1.383 . S
C1089 C1085 1.495 . S
C1089 H1095 0.959 . S
C1089 H1096 0.961 . S
C1089 H1097 0.960 . S
C1090 C1088 1.381 . S
C1090 C1091 1.394 . S
C1090 H1098 0.930 . S
C1091 C1090 1.394 . S
C1091 C1092 1.383 . S
C1091 H1099 0.929 . S
C1092 C1091 1.383 . S
C1092 C1093 1.377 . S
C1093 H1077 0.930 . S
C1093 C1092 1.377 . S
C1093 C1094 1.379 . S
C1094 H1078 0.931 . S
C1094 C1088 1.383 . S
C1094 C1093 1.379 . S
H1095 C1089 0.959 . S
H1096 C1089 0.961 . S
H1097 C1089 0.960 . S
H1098 C1090 0.930 . S
H1099 C1091 0.929 . S
H1100 C1108 0.929 . S
H1101 C1110 0.930 . S
H1102 C1112 0.930 . S
H1103 C1115 0.929 . S
H1104 C1118 0.930 . S
H1105 C1120 0.960 . S
H1106 C1120 0.960 . S
H1107 C1120 0.960 . S
C1108 H1100 0.929 . S
C1108 C1109 1.377 . S
C1108 C1110 1.384 . S
C1109 C1108 1.377 . S
C1109 C1115 1.390 . S
C1110 H1101 0.930 . S
C1110 C1108 1.384 . S
C1110 C1111 1.372 . S
C1111 C1110 1.372 . S
C1111 C1112 1.400 . S
C1111 C1116 1.490 . S
C1112 H1102 0.930 . S
C1112 C1111 1.400 . S
C1112 C1115 1.386 . S
H1113 C1129 0.930 . S
H1114 C1130 0.931 . S
C1115 H1103 0.929 . S
C1115 C1109 1.390 . S
C1115 C1112 1.386 . S
C1116 C1111 1.490 . S
C1116 C1118 1.395 . S
C1116 C1119 1.403 . S
H1117 C1123 0.930 . S
C1118 H1104 0.930 . S
C1118 C1116 1.395 . S
C1118 C1121 1.403 . S
C1119 C1116 1.403 . S
C1119 C1120 1.524 . S
C1119 C1123 1.400 . S
C1120 H1105 0.960 . S
C1120 H1106 0.960 . S
C1120 H1107 0.960 . S
C1120 C1119 1.524 . S
C1121 C1118 1.403 . S
C1121 C1122 1.392 . S
C1121 C1125 1.495 . S
C1122 C1121 1.392 . S
C1122 C1123 1.385 . S
C1122 C1124 1.478 . S
C1123 H1117 0.930 . S
C1123 C1119 1.400 . S
C1123 C1122 1.385 . S
C1124 C1122 1.478 . S
C1124 C1126 1.381 . S
C1124 C1130 1.383 . S
C1125 C1121 1.495 . S
C1125 H1131 0.959 . S
C1125 H1132 0.961 . S
C1125 H1133 0.960 . S
C1126 C1124 1.381 . S
C1126 C1127 1.394 . S
C1126 H1134 0.930 . S
C1127 C1126 1.394 . S
C1127 C1128 1.383 . S
C1127 H1135 0.929 . S
C1128 C1127 1.383 . S
C1128 C1129 1.377 . S
C1129 H1113 0.930 . S
C1129 C1128 1.377 . S
C1129 C1130 1.379 . S
C1130 H1114 0.931 . S
C1130 C1124 1.383 . S
C1130 C1129 1.379 . S
H1131 C1125 0.959 . S
H1132 C1125 0.961 . S
H1133 C1125 0.960 . S
H1134 C1126 0.930 . S
H1135 C1127 0.929 . S
H1136 C1144 0.929 . S
H1137 C1146 0.930 . S
H1138 C1148 0.930 . S
H1139 C1151 0.929 . S
H1140 C1154 0.930 . S
H1141 C1156 0.960 . S
H1142 C1156 0.960 1_556 S
H1143 C1156 0.960 . S
C1144 H1136 0.929 . S
C1144 C1145 1.377 . S
C1144 C1146 1.384 . S
C1145 C1144 1.377 . S
C1145 C1151 1.390 . S
C1146 H1137 0.930 . S
C1146 C1144 1.384 . S
C1146 C1147 1.372 . S
C1147 C1146 1.372 . S
C1147 C1148 1.400 . S
C1147 C1152 1.490 1_565 S
C1148 H1138 0.930 . S
C1148 C1147 1.400 . S
C1148 C1151 1.386 . S
H1149 C1165 0.930 . S
H1150 C1166 0.931 . S
C1151 H1139 0.929 . S
C1151 C1145 1.390 . S
C1151 C1148 1.386 . S
C1152 C1147 1.490 1_545 S
C1152 C1154 1.395 . S
C1152 C1155 1.390 1_546 S
H1153 C1159 0.930 . S
C1154 H1140 0.930 . S
C1154 C1152 1.395 . S
C1154 C1157 1.403 . S
C1155 C1152 1.390 1_564 S
C1155 C1156 1.526 . S
C1155 C1159 1.410 1_565 S
C1156 H1141 0.960 . S
C1156 H1142 0.960 1_554 S
C1156 H1143 0.960 . S
C1156 C1155 1.526 . S
C1157 C1154 1.403 . S
C1157 C1158 1.392 1_556 S
C1157 C1161 1.495 . S
C1158 C1157 1.392 1_554 S
C1158 C1159 1.385 . S
C1158 C1160 1.478 . S
C1159 H1153 0.930 . S
C1159 C1155 1.410 1_545 S
C1159 C1158 1.385 . S
C1160 C1158 1.478 . S
C1160 C1162 1.381 . S
C1160 C1166 1.383 . S
C1161 C1157 1.495 . S
C1161 H1167 0.959 . S
C1161 H1168 0.961 1_556 S
C1161 H1169 0.960 . S
C1162 C1160 1.381 . S
C1162 C1163 1.394 . S
C1162 H1170 0.930 . S
C1163 C1162 1.394 . S
C1163 C1164 1.383 . S
C1163 H1171 0.929 . S
C1164 C1163 1.383 . S
C1164 C1165 1.377 . S
C1165 H1149 0.930 . S
C1165 C1164 1.377 . S
C1165 C1166 1.379 . S
C1166 H1150 0.931 . S
C1166 C1160 1.383 . S
C1166 C1165 1.379 . S
H1167 C1161 0.959 . S
H1168 C1161 0.961 1_554 S
H1169 C1161 0.960 . S
H1170 C1162 0.930 . S
H1171 C1163 0.929 . S
H1172 C1180 0.929 . S
H1173 C1182 0.930 . S
H1174 C1184 0.930 . S
H1175 C1187 0.929 . S
H1176 C1190 0.930 . S
H1177 C1192 0.960 . S
H1178 C1192 0.960 . S
H1179 C1192 0.960 . S
C1180 H1172 0.929 . S
C1180 C1181 1.377 . S
C1180 C1182 1.384 . S
C1181 C1180 1.377 . S
C1181 C1187 1.390 . S
C1182 H1173 0.930 . S
C1182 C1180 1.384 . S
C1182 C1183 1.372 . S
C1183 C1182 1.372 . S
C1183 C1184 1.400 . S
C1183 C1188 1.516 . S
C1184 H1174 0.930 . S
C1184 C1183 1.400 . S
C1184 C1187 1.386 . S
H1185 C1201 0.930 . S
H1186 C1202 0.931 . S
C1187 H1175 0.929 . S
C1187 C1181 1.390 . S
C1187 C1184 1.386 . S
C1188 C1183 1.516 . S
C1188 C1190 1.404 1_554 S
C1188 C1191 1.369 1_655 S
H1189 C1195 0.930 . S
C1190 H1176 0.930 . S
C1190 C1188 1.404 1_556 S
C1190 C1193 1.403 1_655 S
C1191 C1188 1.369 1_455 S
C1191 C1192 1.524 . S
C1191 C1195 1.400 . S
C1192 H1177 0.960 . S
C1192 H1178 0.960 . S
C1192 H1179 0.960 . S
C1192 C1191 1.524 . S
C1193 C1190 1.403 1_455 S
C1193 C1194 1.392 . S
C1193 C1197 1.495 . S
C1194 C1193 1.392 . S
C1194 C1195 1.385 1_556 S
C1194 C1196 1.478 . S
C1195 H1189 0.930 . S
C1195 C1191 1.400 . S
C1195 C1194 1.385 1_554 S
C1196 C1194 1.478 . S
C1196 C1198 1.381 . S
C1196 C1202 1.383 . S
C1197 C1193 1.495 . S
C1197 H1203 0.959 1_455 S
C1197 H1204 0.961 . S
C1197 H1205 0.960 . S
C1198 C1196 1.381 . S
C1198 C1199 1.394 . S
C1198 H1206 0.930 . S
C1199 C1198 1.394 . S
C1199 C1200 1.383 . S
C1199 H1207 0.929 . S
C1200 C1199 1.383 . S
C1200 C1201 1.377 . S
C1201 H1185 0.930 . S
C1201 C1200 1.377 . S
C1201 C1202 1.379 . S
C1202 H1186 0.931 . S
C1202 C1196 1.383 . S
C1202 C1201 1.379 . S
H1203 C1197 0.959 1_655 S
H1204 C1197 0.961 . S
H1205 C1197 0.960 . S
H1206 C1198 0.930 . S
H1207 C1199 0.929 . S
H1208 C1216 0.929 . S
H1209 C1218 0.930 . S
H1210 C1220 0.930 . S
H1211 C1223 0.929 . S
H1212 C1226 0.930 . S
H1213 C1228 0.960 . S
H1214 C1228 0.960 . S
H1215 C1228 0.960 . S
C1216 H1208 0.929 . S
C1216 C1217 1.377 . S
C1216 C1218 1.384 . S
C1217 C1216 1.377 . S
C1217 C1223 1.390 . S
C1218 H1209 0.930 . S
C1218 C1216 1.384 . S
C1218 C1219 1.372 . S
C1219 C1218 1.372 . S
C1219 C1220 1.400 . S
C1219 C1224 1.490 . S
C1220 H1210 0.930 . S
C1220 C1219 1.400 . S
C1220 C1223 1.386 . S
H1221 C1237 0.930 . S
H1222 C1238 0.931 . S
C1223 H1211 0.929 . S
C1223 C1217 1.390 . S
C1223 C1220 1.386 . S
C1224 C1219 1.490 . S
C1224 C1226 1.395 . S
C1224 C1227 1.403 . S
H1225 C1231 0.930 . S
C1226 H1212 0.930 . S
C1226 C1224 1.395 . S
C1226 C1229 1.403 1_554 S
C1227 C1224 1.403 . S
C1227 C1228 1.524 . S
C1227 C1231 1.400 1_554 S
C1228 H1213 0.960 . S
C1228 H1214 0.960 . S
C1228 H1215 0.960 . S
C1228 C1227 1.524 . S
C1229 C1226 1.403 1_556 S
C1229 C1230 1.386 1_565 S
C1229 C1233 1.495 1_565 S
C1230 C1229 1.386 1_545 S
C1230 C1231 1.367 1_545 S
C1230 C1232 1.503 . S
C1231 H1225 0.930 . S
C1231 C1227 1.400 1_556 S
C1231 C1230 1.367 1_565 S
C1232 C1230 1.503 . S
C1232 C1234 1.381 . S
C1232 C1238 1.383 . S
C1233 C1229 1.495 1_545 S
C1233 H1239 0.959 . S
C1233 H1240 0.961 . S
C1233 H1241 0.960 . S
C1234 C1232 1.381 . S
C1234 C1235 1.394 . S
C1234 H1242 0.930 . S
C1235 C1234 1.394 . S
C1235 C1236 1.383 . S
C1235 H1243 0.929 . S
C1236 C1235 1.383 . S
C1236 C1237 1.377 . S
C1237 H1221 0.930 . S
C1237 C1236 1.377 . S
C1237 C1238 1.379 . S
C1238 H1222 0.931 . S
C1238 C1232 1.383 . S
C1238 C1237 1.379 . S
H1239 C1233 0.959 . S
H1240 C1233 0.961 . S
H1241 C1233 0.960 . S
H1242 C1234 0.930 . S
H1243 C1235 0.929 . S
H1244 C1252 0.929 . S
H1245 C1254 0.930 . S
H1246 C1256 0.930 . S
H1247 C1259 0.929 . S
H1248 C1262 0.930 . S
H1249 C1264 0.960 . S
H1250 C1264 0.960 . S
H1251 C1264 0.962 1_556 S
C1252 H1244 0.929 . S
C1252 C1253 1.377 . S
C1252 C1254 1.384 . S
C1253 C1252 1.377 . S
C1253 C1259 1.390 . S
C1254 H1245 0.930 . S
C1254 C1252 1.384 . S
C1254 C1255 1.372 . S
C1255 C1254 1.372 . S
C1255 C1256 1.400 . S
C1255 C1260 1.490 . S
C1256 H1246 0.930 . S
C1256 C1255 1.400 . S
C1256 C1259 1.386 . S
H1257 C1273 0.930 . S
H1258 C1274 0.931 . S
C1259 H1247 0.929 . S
C1259 C1253 1.390 . S
C1259 C1256 1.386 . S
C1260 C1255 1.490 . S
C1260 C1262 1.395 . S
C1260 C1263 1.403 1_556 S
H1261 C1267 0.930 . S
C1262 H1248 0.930 . S
C1262 C1260 1.395 . S
C1262 C1265 1.403 . S
C1263 C1260 1.403 1_554 S
C1263 C1264 1.524 . S
C1263 C1267 1.400 . S
C1264 H1249 0.960 . S
C1264 H1250 0.960 . S
C1264 H1251 0.962 1_554 S
C1264 C1263 1.524 . S
C1265 C1262 1.403 . S
C1265 C1266 1.386 1_656 S
C1265 C1269 1.495 1_655 S
C1266 C1265 1.386 1_454 S
C1266 C1267 1.366 1_455 S
C1266 C1268 1.503 . S
C1267 H1261 0.930 . S
C1267 C1263 1.400 . S
C1267 C1266 1.366 1_655 S
C1268 C1266 1.503 . S
C1268 C1270 1.381 . S
C1268 C1274 1.383 . S
C1269 C1265 1.495 1_455 S
C1269 H1275 0.959 . S
C1269 H1276 0.961 . S
C1269 H1277 0.960 1_556 S
C1270 C1268 1.381 . S
C1270 C1271 1.394 . S
C1270 H1278 0.930 . S
C1271 C1270 1.394 . S
C1271 C1272 1.383 . S
C1271 H1279 0.929 . S
C1272 C1271 1.383 . S
C1272 C1273 1.377 . S
C1273 H1257 0.930 . S
C1273 C1272 1.377 . S
C1273 C1274 1.379 . S
C1274 H1258 0.931 . S
C1274 C1268 1.383 . S
C1274 C1273 1.379 . S
H1275 C1269 0.959 . S
H1276 C1269 0.961 . S
H1277 C1269 0.960 1_554 S
H1278 C1270 0.930 . S
H1279 C1271 0.929 . S
C281 C1 1.473 . S
C300 C176 1.548 . S
C317 C232 1.565 . S
C336 C37 1.498 . S
C353 C244 1.557 . S
C372 C71 1.503 . S
C389 C105 1.478 . S
C408 C142 1.561 . S
C425 C139 1.479 . S
C444 C108 1.576 . S
C461 C173 1.472 . S
C480 C28 1.541 . S
C497 C205 1.470 . S
C516 C40 1.573 . S
C533 C241 1.485 . S
C552 C74 1.580 . S
C569 C22 0.989 . S
C588 C83 0.946 . S
C605 C117 0.992 . S
C624 C49 1.031 . S
C641 C151 0.981 . S
C660 C226 0.986 . S
C677 C185 0.989 . S
C696 C253 1.030 . S
C713 C6 2.320 . S
C732 C137 2.262 . S
C749 C171 2.244 . S
C768 C62 2.334 . S
C785 C96 2.319 . S
C804 C207 2.263 . S
C821 C239 2.241 . S
C840 C130 2.328 . S
C857 C164 2.326 1_455 S
C876 C3 2.215 . S
C893 C198 2.319 1_565 S
C912 C35 2.226 . S
C929 C69 2.243 . S
C948 C210 2.317 1_655 S
C965 C103 2.239 . S
C984 C266 2.305 1_545 S
C1001 C15 0.717 . S
C1020 C51 0.721 . S
C1037 C85 0.711 . S
C1056 C56 0.733 . S
C1073 C119 0.715 . S
C1092 C90 0.704 . S
C1109 C17 0.715 . S
C1128 C124 0.698 . S
C1145 C255 0.711 . S
C1164 C158 0.747 . S
C1181 C153 0.711 . S
C1200 C192 0.724 . S
C1217 C219 0.719 . S
C1236 C187 0.704 . S
C1253 C260 0.718 . S
C1272 C221 0.723 . S
