# Generated by pormake.
# Topology snz, (6)-cn, num edge types: 1
# Building blocks:
#     Node 0, Type 0, BuildingBlock: CUKXOW_clean_sbu_0, # of connection points: 6
#     Node 1, Type 0, BuildingBlock: CUKXOW_clean_sbu_0, # of connection points: 6
#     Node 2, Type 0, BuildingBlock: CUKXOW_clean_sbu_0, # of connection points: 6
#     Node 3, Type 0, BuildingBlock: CUKXOW_clean_sbu_0, # of connection points: 6
#     Node 4, Type 0, BuildingBlock: CUKXOW_clean_sbu_0, # of connection points: 6
#     Node 5, Type 0, BuildingBlock: CUKXOW_clean_sbu_0, # of connection points: 6
#     Node 6, Type 0, BuildingBlock: CUKXOW_clean_sbu_0, # of connection points: 6
#     Node 7, Type 0, BuildingBlock: CUKXOW_clean_sbu_0, # of connection points: 6
#     Node 8, Type 0, BuildingBlock: CUKXOW_clean_sbu_0, # of connection points: 6
#     Edge 9, Type (0, 0), BuildingBlock: MIFKUJ_clean_linker_0, # of connection points: 2
#     Edge 10, Type (0, 0), BuildingBlock: MIFKUJ_clean_linker_0, # of connection points: 2
#     Edge 11, Type (0, 0), BuildingBlock: MIFKUJ_clean_linker_0, # of connection points: 2
#     Edge 12, Type (0, 0), BuildingBlock: MIFKUJ_clean_linker_0, # of connection points: 2
#     Edge 13, Type (0, 0), BuildingBlock: MIFKUJ_clean_linker_0, # of connection points: 2
#     Edge 14, Type (0, 0), BuildingBlock: MIFKUJ_clean_linker_0, # of connection points: 2
#     Edge 15, Type (0, 0), BuildingBlock: MIFKUJ_clean_linker_0, # of connection points: 2
#     Edge 16, Type (0, 0), BuildingBlock: MIFKUJ_clean_linker_0, # of connection points: 2
#     Edge 17, Type (0, 0), BuildingBlock: MIFKUJ_clean_linker_0, # of connection points: 2
#     Edge 18, Type (0, 0), BuildingBlock: MIFKUJ_clean_linker_0, # of connection points: 2
#     Edge 19, Type (0, 0), BuildingBlock: MIFKUJ_clean_linker_0, # of connection points: 2
#     Edge 20, Type (0, 0), BuildingBlock: MIFKUJ_clean_linker_0, # of connection points: 2
#     Edge 21, Type (0, 0), BuildingBlock: MIFKUJ_clean_linker_0, # of connection points: 2
#     Edge 22, Type (0, 0), BuildingBlock: MIFKUJ_clean_linker_0, # of connection points: 2
#     Edge 23, Type (0, 0), BuildingBlock: MIFKUJ_clean_linker_0, # of connection points: 2
#     Edge 24, Type (0, 0), BuildingBlock: MIFKUJ_clean_linker_0, # of connection points: 2
#     Edge 25, Type (0, 0), BuildingBlock: MIFKUJ_clean_linker_0, # of connection points: 2
#     Edge 26, Type (0, 0), BuildingBlock: MIFKUJ_clean_linker_0, # of connection points: 2
#     Edge 27, Type (0, 0), BuildingBlock: MIFKUJ_clean_linker_0, # of connection points: 2
#     Edge 28, Type (0, 0), BuildingBlock: MIFKUJ_clean_linker_0, # of connection points: 2
#     Edge 29, Type (0, 0), BuildingBlock: MIFKUJ_clean_linker_0, # of connection points: 2
#     Edge 30, Type (0, 0), BuildingBlock: MIFKUJ_clean_linker_0, # of connection points: 2
#     Edge 31, Type (0, 0), BuildingBlock: MIFKUJ_clean_linker_0, # of connection points: 2
#     Edge 32, Type (0, 0), BuildingBlock: MIFKUJ_clean_linker_0, # of connection points: 2
#     Edge 33, Type (0, 0), BuildingBlock: MIFKUJ_clean_linker_0, # of connection points: 2
#     Edge 34, Type (0, 0), BuildingBlock: MIFKUJ_clean_linker_0, # of connection points: 2
#     Edge 35, Type (0, 0), BuildingBlock: MIFKUJ_clean_linker_0, # of connection points: 2
# Relax obj value: 0.101
# Max RMSD: 0.188
# Mean RMSD: 0.132
data_MOF--net-snz--node1-CUKXOW_clean_sbu_0--edge1-MIFKUJ_clean_linker_0
_symmetry_space_group_name_H-M    P1
_symmetry_Int_Tables_number       1
_symmetry_cell_setting            triclinic
loop_
_symmetry_equiv_pos_as_xyz
'x, y, z'
_cell_length_a     64.428751
_cell_length_b     71.390831
_cell_length_c     18.790011
_cell_angle_alpha  93.689348
_cell_angle_beta   93.415536
_cell_angle_gamma 120.30407
loop_
_atom_site_label
_atom_site_type_symbol
_atom_site_fract_x
_atom_site_fract_y
_atom_site_fract_z
_atom_type_partial_charge
Tb0 Tb 0.03818 0.45601 0.96863 0.0
C1 C 0.07482 0.48171 0.85603 0.0
Tb2 Tb 0.07558 0.50607 0.00346 0.0
O3 O 1.0088 0.46323 0.95566 0.0
O4 O 0.04343 0.48578 0.93484 0.0
O5 O 0.05833 0.46255 0.87521 0.0
C6 C 0.09206 0.54859 0.02057 0.0
O7 O 0.08233 0.50071 0.89455 0.0
C8 C 0.0928 0.48256 0.05696 0.0
C9 C 0.04342 0.4791 0.11986 0.0
O10 O 0.10393 0.53966 0.99654 0.0
O11 O 0.0709 0.53355 0.03473 0.0
O12 O 0.10477 0.50379 0.06312 0.0
O13 O 0.07265 0.4765 0.02316 0.0
O14 O 0.05328 0.49795 0.09194 0.0
O15 O 0.03933 0.46074 0.0839 0.0
C16 C 0.01553 0.41289 0.93768 0.0
O17 O 1.00537 0.42379 0.95756 0.0
O18 O 0.03841 0.42623 0.93517 0.0
C19 C 0.02279 0.48298 0.94055 0.0
Tb20 Tb 0.5856 0.51199 0.97517 0.0
C21 C 0.59501 0.49471 0.11448 0.0
Tb22 Tb 0.57648 0.46513 0.96612 0.0
O23 O 0.54984 0.50564 0.00089 0.0
O24 O 0.55688 0.48064 0.98779 0.0
O25 O 0.60061 0.5123 0.08173 0.0
C26 C 0.56577 0.42443 0.97952 0.0
O27 O 0.58345 0.47464 0.08082 0.0
C28 C 0.61649 0.49446 0.91575 0.0
C29 C 0.55965 0.4798 0.83325 0.0
O30 O 0.58707 0.44169 0.99373 0.0
O31 O 0.55036 0.4301 0.95824 0.0
O32 O 0.6037 0.47404 0.89063 0.0
O33 O 0.60736 0.49736 0.97015 0.0
O34 O 0.55597 0.46285 0.86722 0.0
O35 O 0.57277 0.50031 0.86287 0.0
C36 C 0.6083 0.55452 0.96423 0.0
O37 O 0.60984 0.54024 0.92202 0.0
O38 O 0.59402 0.54484 0.0125 0.0
C39 C 0.54066 0.48477 0.00278 0.0
Tb40 Tb 0.5962 0.99487 0.09285 0.0
C41 C 0.58868 0.96247 0.96272 0.0
Tb42 Tb 0.61368 0.96299 0.10996 0.0
O43 O 0.6206 0.01012 0.01172 0.0
O44 O 0.63037 0.99655 0.09234 0.0
O45 O 0.57812 0.97129 -0.00124 0.0
C46 C 0.6414 0.94518 0.12836 0.0
O47 O 0.60558 0.95956 0.99456 0.0
C48 C 0.56679 0.94677 0.11979 0.0
C49 C 0.62094 0.99589 0.24397 0.0
O50 O 0.6446 0.95963 0.08501 0.0
O51 O 0.62236 0.94052 0.16073 0.0
O52 O 0.57599 0.93539 0.09532 0.0
O53 O 0.58396 0.96572 0.14184 0.0
O54 O 0.6264 0.98158 0.21566 0.0
O55 O 0.60824 0.00266 0.20691 0.0
C56 C 0.5743 0.01807 0.08726 0.0
O57 O 0.59698 0.02585 0.10874 0.0
O58 O 0.56382 0.99708 0.07115 0.0
C59 C 0.63638 0.0052 0.03464 0.0
Tb60 Tb 0.79003 0.81178 0.30323 0.0
C61 C 0.82711 0.83994 0.19534 0.0
Tb62 Tb 0.82727 0.85835 0.34865 0.0
O63 O 0.7609 0.81887 0.29669 0.0
O64 O 0.79538 0.84234 0.27543 0.0
O65 O 0.81192 0.82026 0.21326 0.0
C66 C 0.8514 0.90087 0.39346 0.0
O67 O 0.83346 0.85799 0.23728 0.0
C68 C 0.84167 0.8302 0.36644 0.0
C69 C 0.79095 0.83048 0.45661 0.0
O70 O 0.85927 0.88763 0.40268 0.0
O71 O 0.8299 0.8902 0.35927 0.0
O72 O 0.85568 0.8499 0.35078 0.0
O73 O 0.82139 0.82775 0.37657 0.0
O74 O 0.80404 0.85014 0.43541 0.0
O75 O 0.7869 0.81268 0.41714 0.0
C76 C 0.76671 0.76947 0.25567 0.0
O77 O 0.75684 0.78009 0.28072 0.0
O78 O 0.78984 0.7826 0.25813 0.0
C79 C 0.77456 0.83894 0.28455 0.0
Tb80 Tb 0.29043 0.857 0.37135 0.0
C81 C 0.30013 0.83287 0.49364 0.0
Tb82 Tb 0.27693 0.80723 0.34173 0.0
O83 O 0.25376 0.84946 0.39488 0.0
O84 O 0.26076 0.82533 0.37006 0.0
O85 O 0.30708 0.85164 0.46626 0.0
C86 C 0.25109 0.764 0.32285 0.0
O87 O 0.28668 0.81342 0.45624 0.0
C88 C 0.32274 0.83485 0.32027 0.0
C89 C 0.26743 0.83162 0.21943 0.0
O90 O 0.25209 0.77597 0.37951 0.0
O91 O 0.26491 0.77637 0.27771 0.0
O92 O 0.3125 0.81369 0.3132 0.0
O93 O 0.30702 0.83898 0.34102 0.0
O94 O 0.26062 0.81288 0.24685 0.0
O95 O 0.28144 0.85115 0.25622 0.0
C96 C 0.30959 0.89961 0.40353 0.0
O97 O 0.31201 0.89067 0.34427 0.0
O98 O 0.29715 0.88467 0.44411 0.0
C99 C 0.2441 0.82845 0.38704 0.0
Tb100 Tb 0.25366 0.35991 0.24915 0.0
C101 C 0.25285 0.32892 0.1195 0.0
Tb102 Tb 0.27316 0.32805 0.27311 0.0
O103 O 0.287 0.3866 0.21136 0.0
O104 O 0.28508 0.35871 0.23888 0.0
O105 O 0.24221 0.339 0.148 0.0
C106 C 0.29671 0.30767 0.31025 0.0
O107 O 0.26814 0.32511 0.15729 0.0
C108 C 0.2262 0.31175 0.28077 0.0
C109 C 0.27974 0.36267 0.39834 0.0
O110 O 0.29893 0.31726 0.25232 0.0
O111 O 0.28139 0.30968 0.34693 0.0
O112 O 0.23592 0.30063 0.25864 0.0
O113 O 0.24309 0.331 0.301 0.0
O114 O 0.28947 0.35213 0.36716 0.0
O115 O 0.26291 0.36531 0.36417 0.0
C116 C 0.22329 0.37504 0.23456 0.0
O117 O 0.24541 0.38611 0.26514 0.0
O118 O 0.21827 0.35542 0.21256 0.0
C119 C 0.2991 0.37656 0.21638 0.0
Tb120 Tb 0.43314 0.17493 0.63131 0.0
C121 C 0.48767 0.21391 0.68063 0.0
Tb122 Tb 0.47243 0.165 0.67359 0.0
O123 O 0.41698 0.16429 0.73146 0.0
O124 O 0.45401 0.17816 0.72787 0.0
O125 O 0.46594 0.2075 0.64724 0.0
C126 C 0.49563 0.14899 0.74739 0.0
O127 O 0.49381 0.19989 0.70238 0.0
C128 C 0.46858 0.1715 0.5383 0.0
C129 C 0.41829 0.12609 0.62577 0.0
O130 O 0.4971 0.15219 0.68009 0.0
O131 O 0.48158 0.15521 0.77287 0.0
O132 O 0.48883 0.17603 0.57393 0.0
O133 O 0.45165 0.16196 0.577 0.0
O134 O 0.43961 0.13281 0.66193 0.0
O135 O 0.41249 0.13991 0.59987 0.0
C136 C 0.40804 0.19042 0.56446 0.0
O137 O 0.42535 0.18865 0.53926 0.0
O138 O 0.40467 0.18323 0.62692 0.0
C139 C 0.43721 0.16895 0.76714 0.0
Tb140 Tb 0.90769 0.14319 0.68805 0.0
C141 C 0.93713 0.11896 0.66297 0.0
Tb142 Tb 0.96153 0.16959 0.66524 0.0
O143 O 0.89712 0.14713 0.57945 0.0
O144 O 0.92897 0.14693 0.60097 0.0
O145 O 0.9184 0.11861 0.69031 0.0
C146 C 1.00359 0.19477 0.61029 0.0
O147 O 0.95452 0.13666 0.63876 0.0
C148 C 0.95242 0.16289 0.79988 0.0
C149 C 0.93204 0.1939 0.69101 0.0
O150 O 1.0011 0.18476 0.66729 0.0
O151 O 0.98238 0.19064 0.58447 0.0
O152 O 0.9723 0.16634 0.77498 0.0
O153 O 0.94026 0.16592 0.75187 0.0
O154 O 0.95099 0.19432 0.66481 0.0
O155 O 0.91427 0.17605 0.71345 0.0
C156 C 0.86515 0.11765 0.73994 0.0
O157 O 0.86787 0.12582 0.67911 0.0
O158 O 0.88643 0.12389 0.77162 0.0
C159 C 0.91676 0.15025 0.55384 0.0
Tb160 Tb 0.95844 0.67121 0.63897 0.0
C161 C 0.94255 0.62497 0.68883 0.0
Tb162 Tb 0.90449 0.64035 0.66306 0.0
O163 O 0.97092 0.67568 0.75328 0.0
O164 O 0.93564 0.66743 0.72224 0.0
O165 O 0.95796 0.64099 0.6534 0.0
C166 C 0.86088 0.6172 0.71289 0.0
O167 O 0.92165 0.62285 0.70473 0.0
C168 C 0.91341 0.64254 0.52681 0.0
C169 C 0.92024 0.68639 0.61211 0.0
O170 O 0.86975 0.60967 0.66621 0.0
O171 O 0.87678 0.63762 0.7321 0.0
O172 O 0.89238 0.63641 0.54845 0.0
O173 O 0.92738 0.64415 0.5802 0.0
O174 O 0.90487 0.67051 0.64801 0.0
O175 O 0.94106 0.68837 0.59605 0.0
C176 C 1.00173 0.6945 0.58754 0.0
O177 O 0.99176 0.70242 0.62849 0.0
O178 O 0.98713 0.67355 0.57502 0.0
C179 C 0.94988 0.66924 0.7753 0.0
H180 H 0.06144 0.44703 0.75576 0.0
H181 H 0.06374 0.44875 0.62739 0.0
H182 H 0.10721 0.519 0.66291 0.0
H183 H 0.10499 0.51755 0.79148 0.0
H184 H 0.06279 0.50392 0.59056 0.0
H185 H 0.12866 0.49222 0.57431 0.0
H186 H 0.15335 0.47509 0.59088 0.0
H187 H 0.0966 0.41543 0.47442 0.0
H188 H 0.07137 0.43205 0.45812 0.0
H189 H 0.06035 0.515 0.21703 0.0
H190 H 0.06823 0.51633 0.34578 0.0
H191 H 0.03106 0.44595 0.32799 0.0
H192 H 0.02362 0.44442 0.19832 0.0
H193 H 0.07624 0.46393 0.39037 0.0
H194 H 1.00904 0.47468 0.41698 0.0
H195 H 0.98458 0.492 0.39921 0.0
H196 H 0.04403 0.55337 0.49705 0.0
H197 H 0.06897 0.53649 0.51457 0.0
C198 C 0.07218 0.46283 0.73665 0.0
C199 C 0.08224 0.48221 0.78333 0.0
C200 C 0.07367 0.46375 0.66324 0.0
C201 C 0.08534 0.48403 0.63607 0.0
C202 C 0.09799 0.50323 0.6833 0.0
C203 C 0.09655 0.50234 0.75668 0.0
C204 C 0.07941 0.48525 0.5605 0.0
C205 C 0.06622 0.49561 0.54646 0.0
C206 C 0.08317 0.47369 0.50394 0.0
C207 C 0.09801 0.46337 0.51551 0.0
C208 C 0.12129 0.47536 0.553 0.0
C209 C 0.13543 0.46576 0.56215 0.0
C210 C 0.12654 0.44418 0.53381 0.0
C211 C 0.10347 0.43214 0.49638 0.0
C212 C 0.08924 0.44166 0.48713 0.0
C213 C 0.05319 0.49974 0.24052 0.0
C214 C 0.0418 0.47959 0.19746 0.0
C215 C 0.0577 0.50056 0.31428 0.0
C216 C 0.05043 0.48124 0.34595 0.0
C217 C 0.03702 0.46102 0.30401 0.0
C218 C 0.0327 0.46018 0.23011 0.0
C219 C 0.05927 0.48224 0.42084 0.0
C220 C 0.07298 0.47234 0.43455 0.0
C221 C 0.05592 0.49414 0.47731 0.0
C222 C 0.04096 0.50435 0.46645 0.0
C223 C 0.01698 0.49191 0.43413 0.0
C224 C 1.00301 0.50164 0.42424 0.0
C225 C 1.01276 0.52378 0.44683 0.0
C226 C 0.0365 0.53623 0.47951 0.0
C227 C 0.05055 0.52658 0.4895 0.0
H228 H 1.00191 0.53127 0.43908 0.0
H229 H 0.13755 0.43681 0.5407 0.0
H230 H 0.55338 0.50701 0.75177 0.0
H231 H 0.55514 0.5071 0.62268 0.0
H232 H 0.55196 0.44513 0.61078 0.0
H233 H 0.55025 0.44491 0.74018 0.0
H234 H 0.59472 0.47915 0.5745 0.0
H235 H 0.50983 0.44836 0.50951 0.0
H236 H 0.46961 0.44426 0.51499 0.0
H237 H 0.49762 0.51006 0.46473 0.0
H238 H 0.53804 0.51457 0.45915 0.0
H239 H 0.59746 0.46614 0.19835 0.0
H240 H 0.59281 0.46518 0.32606 0.0
H241 H 0.59581 0.52707 0.33537 0.0
H242 H 0.60052 0.52819 0.20734 0.0
H243 H 0.55332 0.49368 0.37338 0.0
H244 H 0.63762 0.52424 0.4347 0.0
H245 H 0.67822 0.52908 0.43123 0.0
H246 H 0.65189 0.46441 0.49077 0.0
H247 H 0.61104 0.45907 0.4939 0.0
C248 C 0.55212 0.493 0.72126 0.0
C249 C 0.55229 0.47622 0.75591 0.0
C250 C 0.55298 0.49301 0.64748 0.0
C251 C 0.55399 0.47625 0.60782 0.0
C252 C 0.55128 0.45822 0.641 0.0
C253 C 0.55024 0.45811 0.71482 0.0
C254 C 0.56286 0.47987 0.53685 0.0
C255 C 0.58541 0.48179 0.52971 0.0
C256 C 0.55121 0.4844 0.4804 0.0
C257 C 0.52701 0.48186 0.4845 0.0
C258 C 0.50746 0.46201 0.5002 0.0
C259 C 0.48461 0.45959 0.50307 0.0
C260 C 0.48107 0.4769 0.49033 0.0
C261 C 0.50039 0.49667 0.47471 0.0
C262 C 0.52326 0.49915 0.47144 0.0
C263 C 0.59788 0.47986 0.22806 0.0
C264 C 0.59891 0.49704 0.19298 0.0
C265 C 0.59536 0.47935 0.30101 0.0
C266 C 0.5938 0.49598 0.33952 0.0
C267 C 0.59696 0.5141 0.30605 0.0
C268 C 0.59972 0.51473 0.23312 0.0
C269 C 0.58496 0.49256 0.41053 0.0
C270 C 0.56251 0.49082 0.41788 0.0
C271 C 0.59673 0.48824 0.46725 0.0
C272 C 0.62117 0.49117 0.46381 0.0
C273 C 0.6404 0.51094 0.44625 0.0
C274 C 0.66349 0.51381 0.44459 0.0
C275 C 0.66761 0.49704 0.46057 0.0
C276 C 0.64866 0.47738 0.47833 0.0
C277 C 0.62554 0.47443 0.48016 0.0
H278 H 0.6855 0.4993 0.45934 0.0
H279 H 0.46336 0.47499 0.49248 0.0
H280 H 0.56528 0.97757 0.87998 0.0
H281 H 0.57251 0.98686 0.75845 0.0
H282 H 0.61447 0.95525 0.74451 0.0
H283 H 0.60814 0.94661 0.86785 0.0
H284 H 0.63943 0.99595 0.71185 0.0
H285 H 0.55808 0.93451 0.63611 0.0
H286 H 0.51399 0.91271 0.64157 0.0
H287 H 0.508 0.96889 0.60949 0.0
H288 H 0.55206 0.99099 0.60377 0.0
H289 H 0.64577 0.98498 0.33936 0.0
H290 H 0.64417 0.98592 0.46843 0.0
H291 H 0.606 0.02104 0.45604 0.0
H292 H 0.60722 0.01995 0.32646 0.0
H293 H 0.57997 0.98358 0.50776 0.0
H294 H 0.65972 0.04289 0.5594 0.0
H295 H 0.70379 0.06605 0.55825 0.0
H296 H 0.71396 0.01624 0.64099 0.0
H297 H 0.66992 0.99258 0.64141 0.0
C298 C 0.57542 0.97195 0.85055 0.0
C299 C 0.5864 0.96157 0.88395 0.0
C300 C 0.57954 0.9773 0.7808 0.0
C301 C 0.59413 0.97184 0.74259 0.0
C302 C 0.60333 0.95978 0.77351 0.0
C303 C 0.5995 0.95467 0.84371 0.0
C304 C 0.60165 0.98046 0.6734 0.0
C305 C 0.62649 0.99292 0.66651 0.0
C306 C 0.58473 0.9776 0.61624 0.0
C307 C 0.55831 0.96439 0.61998 0.0
C308 C 0.54734 0.94221 0.63059 0.0
C309 C 0.52237 0.9298 0.63355 0.0
C310 C 0.50822 0.93942 0.62602 0.0
C311 C 0.519 0.96147 0.61547 0.0
C312 C 0.54394 0.97393 0.61213 0.0
C313 C 0.63767 0.9935 0.36417 0.0
C314 C 0.62605 0.00188 0.32237 0.0
C315 C 0.63695 0.99418 0.43826 0.0
C316 C 0.62477 0.00339 0.47168 0.0
C317 C 0.61537 0.01376 0.43107 0.0
C318 C 0.61608 0.0131 0.35694 0.0
C319 C 0.61786 0.99836 0.54467 0.0
C320 C 0.59305 0.98668 0.55277 0.0
C321 C 0.63489 0.00204 0.6029 0.0
C322 C 0.66139 0.01583 0.59976 0.0
C323 C 0.67129 0.03671 0.57635 0.0
C324 C 0.6963 0.04998 0.57608 0.0
C325 C 0.71167 0.04261 0.5994 0.0
C326 C 0.70204 0.02192 0.62285 0.0
C327 C 0.67704 0.00858 0.62312 0.0
H328 H 0.73103 0.05295 0.59947 0.0
H329 H 0.48889 0.92978 0.62824 0.0
H330 H 0.79479 0.86283 0.55165 0.0
H331 H 0.79979 0.86412 0.68185 0.0
H332 H 0.78102 0.7967 0.66178 0.0
H333 H 0.77612 0.79521 0.53156 0.0
H334 H 0.77563 0.8408 0.79611 0.0
H335 H 0.82921 0.79685 0.75448 0.0
H336 H 0.84987 0.78925 0.66006 0.0
H337 H 0.86303 0.84724 0.56763 0.0
H338 H 0.84298 0.85544 0.66231 0.0
H339 H 0.82293 0.80764 0.09956 0.0
H340 H 0.81983 0.80742 0.96949 0.0
H341 H 0.84131 0.87552 0.99326 0.0
H342 H 0.84448 0.87598 0.12337 0.0
H343 H 0.84613 0.8319 0.85687 0.0
H344 H 0.79359 0.87644 0.89954 0.0
H345 H 0.7726 0.88401 0.99298 0.0
H346 H 0.75741 0.82508 0.08246 0.0
H347 H 0.77776 0.81691 0.98864 0.0
C348 C 0.79095 0.84806 0.57497 0.0
C349 C 0.7859 0.82915 0.53172 0.0
C350 C 0.79369 0.84882 0.64926 0.0
C351 C 0.79144 0.83069 0.68046 0.0
C352 C 0.78321 0.81092 0.63788 0.0
C353 C 0.7804 0.81012 0.5636 0.0
C354 C 0.80156 0.83353 0.75494 0.0
C355 C 0.79115 0.83905 0.80953 0.0
C356 C 0.82178 0.83115 0.77158 0.0
C357 C 0.83433 0.8266 0.71509 0.0
C358 C 0.83661 0.80802 0.71419 0.0
C359 C 0.84823 0.80362 0.66066 0.0
C360 C 0.85774 0.81775 0.6079 0.0
C361 C 0.85564 0.8363 0.60851 0.0
C362 C 0.84414 0.84083 0.66209 0.0
C363 C 0.82783 0.82277 0.07714 0.0
C364 C 0.83316 0.84164 0.12119 0.0
C365 C 0.8262 0.82263 0.00295 0.0
C366 C 0.82974 0.8413 0.97266 0.0
C367 C 0.83823 0.86092 0.0164 0.0
C368 C 0.84002 0.86112 0.09062 0.0
C369 C 0.82016 0.8391 0.89801 0.0
C370 C 0.83066 0.8337 0.84339 0.0
C371 C 0.80005 0.84164 0.88129 0.0
C372 C 0.7875 0.84624 0.9376 0.0
C373 C 0.7857 0.86508 0.93905 0.0
C374 C 0.77389 0.86946 0.992 0.0
C375 C 0.76372 0.85505 0.04364 0.0
C376 C 0.76533 0.83624 0.04249 0.0
C377 C 0.77702 0.83174 0.98944 0.0
H378 H 0.75445 0.85839 0.08424 0.0
H379 H 0.86684 0.81438 0.56678 0.0
H380 H 0.29097 0.79892 0.57161 0.0
H381 H 0.28543 0.79823 0.69901 0.0
H382 H 0.3121 0.86738 0.7201 0.0
H383 H 0.31786 0.8684 0.59323 0.0
H384 H 0.31275 0.8223 0.83674 0.0
H385 H 0.26542 0.87127 0.78454 0.0
H386 H 0.24484 0.878 0.68285 0.0
H387 H 0.22473 0.81558 0.57327 0.0
H388 H 0.24491 0.80844 0.67453 0.0
H389 H 0.27684 0.86535 0.13987 0.0
H390 H 0.27827 0.86421 0.0102 0.0
H391 H 0.24656 0.79434 0.99385 0.0
H392 H 0.24462 0.79512 0.12278 0.0
H393 H 0.2472 0.8383 0.87355 0.0
H394 H 0.2939 0.78852 0.91783 0.0
H395 H 0.31286 0.77948 0.01742 0.0
H396 H 0.33156 0.83968 0.14052 0.0
H397 H 0.31353 0.84935 0.04123 0.0
C398 C 0.29646 0.81414 0.60378 0.0
C399 C 0.30425 0.83361 0.57196 0.0
C400 C 0.29334 0.8137 0.67655 0.0
C401 C 0.29785 0.83266 0.71784 0.0
C402 C 0.30826 0.85256 0.68831 0.0
C403 C 0.31157 0.85308 0.61579 0.0
C404 C 0.28828 0.8311 0.78762 0.0
C405 C 0.29827 0.82556 0.84481 0.0
C406 C 0.26938 0.83536 0.79738 0.0
C407 C 0.2569 0.83945 0.73674 0.0
C408 C 0.25654 0.85899 0.73879 0.0
C409 C 0.24496 0.86288 0.68122 0.0
C410 C 0.23356 0.84728 0.62152 0.0
C411 C 0.23365 0.82771 0.61932 0.0
C412 C 0.24519 0.82376 0.67674 0.0
C413 C 0.26934 0.84964 0.10846 0.0
C414 C 0.26145 0.83043 0.1418 0.0
C415 C 0.27001 0.84902 0.03436 0.0
C416 C 0.26308 0.82927 0.99351 0.0
C417 C 0.25224 0.80975 0.02519 0.0
C418 C 0.25131 0.8103 0.09902 0.0
C419 C 0.27176 0.82965 0.92286 0.0
C420 C 0.26162 0.83498 0.86549 0.0
C421 C 0.29029 0.82485 0.91276 0.0
C422 C 0.30187 0.81946 0.97244 0.0
C423 C 0.30214 0.79985 0.9661 0.0
C424 C 0.31279 0.79463 0.02251 0.0
C425 C 0.32329 0.80891 0.08555 0.0
C426 C 0.32325 0.82849 0.09213 0.0
C427 C 0.31278 0.83384 0.03575 0.0
H428 H 0.33152 0.80483 0.12911 0.0
H429 H 0.22459 0.85034 0.57715 0.0
H430 H 0.25526 0.3747 0.48604 0.0
H431 H 0.25272 0.37014 0.6128 0.0
H432 H 0.31016 0.35563 0.61628 0.0
H433 H 0.31257 0.35972 0.48864 0.0
H434 H 0.26918 0.32287 0.65729 0.0
H435 H 0.31768 0.40044 0.71603 0.0
H436 H 0.32976 0.4389 0.70766 0.0
H437 H 0.26135 0.42632 0.77126 0.0
H438 H 0.24871 0.38771 0.7791 0.0
H439 H 0.28032 0.31919 0.03676 0.0
H440 H 0.28363 0.32324 0.90944 0.0
H441 H 0.224 0.33479 0.897 0.0
H442 H 0.22048 0.33079 0.02432 0.0
H443 H 0.26639 0.36901 0.86095 0.0
H444 H 0.2174 0.29178 0.79935 0.0
H445 H 0.20445 0.25308 0.80644 0.0
H446 H 0.27313 0.26493 0.74768 0.0
H447 H 0.28661 0.30379 0.74112 0.0
C448 C 0.26797 0.37129 0.51408 0.0
C449 C 0.28377 0.3671 0.47699 0.0
C450 C 0.26649 0.36872 0.58672 0.0
C451 C 0.2811 0.36234 0.62342 0.0
C452 C 0.29861 0.36037 0.58836 0.0
C453 C 0.30002 0.36281 0.51557 0.0
C454 C 0.27572 0.3548 0.69472 0.0
C455 C 0.26906 0.33309 0.7024 0.0
C456 C 0.27462 0.3679 0.75216 0.0
C457 C 0.28219 0.39114 0.74763 0.0
C458 C 0.30514 0.40583 0.72769 0.0
C459 C 0.3121 0.42767 0.72316 0.0
C460 C 0.29632 0.43504 0.73878 0.0
C461 C 0.27355 0.42059 0.75914 0.0
C462 C 0.26649 0.39873 0.76375 0.0
C463 C 0.26734 0.32182 0.00653 0.0
C464 C 0.25045 0.32511 0.04081 0.0
C465 C 0.26927 0.32412 0.93374 0.0
C466 C 0.25421 0.32954 0.8945 0.0
C467 C 0.23586 0.33077 0.92695 0.0
C468 C 0.2339 0.32847 -0.00039 0.0
C469 C 0.25998 0.33715 0.82352 0.0
C470 C 0.26666 0.35885 0.8159 0.0
C471 C 0.26105 0.32404 0.76615 0.0
C472 C 0.25309 0.30073 0.77047 0.0
C473 C 0.22982 0.28618 0.78863 0.0
C474 C 0.22237 0.2642 0.79237 0.0
C475 C 0.23798 0.25657 0.77772 0.0
C476 C 0.26107 0.27088 0.75911 0.0
C477 C 0.26861 0.29287 0.75528 0.0
H478 H 0.23218 0.23955 0.78062 0.0
H479 H 0.30174 0.45195 0.73523 0.0
H480 H 0.50336 0.1927 0.44911 0.0
H481 H 0.49791 0.19307 0.31894 0.0
H482 H 0.42075 0.15243 0.31961 0.0
H483 H 0.42612 0.15218 0.44988 0.0
H484 H 0.43774 0.13762 0.21119 0.0
H485 H 0.44407 0.20454 0.29912 0.0
H486 H 0.46191 0.24046 0.36989 0.0
H487 H 0.52538 0.26454 0.25851 0.0
H488 H 0.50806 0.2286 0.18777 0.0
H489 H 0.40261 0.14948 0.85796 0.0
H490 H 0.40821 0.15075 0.98873 0.0
H491 H 0.48538 0.19071 0.98637 0.0
H492 H 0.47984 0.18965 0.85548 0.0
H493 H 0.46843 0.20603 0.09542 0.0
H494 H 0.46086 0.13791 0.00703 0.0
H495 H 0.44067 0.10256 0.93179 0.0
H496 H 0.37747 0.08089 0.04338 0.0
H497 H 0.39712 0.11635 0.11835 0.0
C498 C 0.48523 0.18395 0.42154 0.0
C499 C 0.46518 0.17244 0.45984 0.0
C500 C 0.48212 0.1842 0.3471 0.0
C501 C 0.45889 0.17282 0.30914 0.0
C502 C 0.43884 0.1613 0.34743 0.0
C503 C 0.44193 0.16126 0.42201 0.0
C504 C 0.45559 0.17266 0.22951 0.0
C505 C 0.44422 0.15258 0.18608 0.0
C506 C 0.46435 0.19216 0.19615 0.0
C507 C 0.4749 0.21377 0.23879 0.0
C508 C 0.46195 0.21741 0.29023 0.0
C509 C 0.47194 0.2378 0.33024 0.0
C510 C 0.49481 0.25475 0.31889 0.0
C511 C 0.50769 0.25137 0.26736 0.0
C512 C 0.49779 0.23099 0.22727 0.0
C513 C 0.42078 0.15849 0.88529 0.0
C514 C 0.44078 0.16928 0.84625 0.0
C515 C 0.42397 0.1592 0.9601 0.0
C516 C 0.44725 0.17072 -0.00231 0.0
C517 C 0.46725 0.18173 0.95879 0.0
C518 C 0.46407 0.18095 0.88387 0.0
C519 C 0.45066 0.17101 0.07731 0.0
C520 C 0.46205 0.19109 0.12067 0.0
C521 C 0.4418 0.15152 0.11068 0.0
C522 C 0.43037 0.12986 0.06784 0.0
C523 C 0.44262 0.12564 0.01536 0.0
C524 C 0.43127 0.10558 0.97273 0.0
C525 C 0.40776 0.08951 0.98267 0.0
C526 C 0.39566 0.09339 0.03569 0.0
C527 C 0.4069 0.11346 0.07827 0.0
H528 H 0.39886 0.07407 0.94928 0.0
H529 H 0.50251 0.27053 0.34988 0.0
H530 H 0.95619 0.15529 0.48858 0.0
H531 H 0.96224 0.15824 0.36085 0.0
H532 H 0.89184 0.15071 0.31658 0.0
H533 H 0.88611 0.14857 0.44406 0.0
H534 H 0.90047 0.1241 0.22004 0.0
H535 H 0.93772 0.19776 0.322 0.0
H536 H 0.96544 0.23095 0.40303 0.0
H537 H 0.02637 0.23214 0.31789 0.0
H538 H 0.99896 0.19842 0.23811 0.0
H539 H 0.91326 0.15912 0.86343 0.0
H540 H 0.90652 0.15632 0.99068 0.0
H541 H 0.97577 0.16182 0.0384 0.0
H542 H 0.98215 0.16374 0.91117 0.0
H543 H 0.96714 0.18971 0.13294 0.0
H544 H 0.92814 0.11486 0.03129 0.0
H545 H 0.89926 0.08177 0.95143 0.0
H546 H 0.83991 0.0839 0.03583 0.0
H547 H 0.86841 0.11751 0.11395 0.0
C548 C 0.94215 0.15453 0.45174 0.0
C549 C 0.92079 0.15196 0.47671 0.0
C550 C 0.94557 0.15613 0.37867 0.0
C551 C 0.92751 0.15476 0.3289 0.0
C552 C 0.90603 0.1518 0.35372 0.0
C553 C 0.90282 0.15065 0.42677 0.0
C554 C 0.93089 0.15638 0.251 0.0
C555 C 0.91489 0.13855 0.20093 0.0
C556 C 0.94984 0.17517 0.22597 0.0
C557 C 0.96631 0.19523 0.27511 0.0
C558 C 0.95703 0.20479 0.32154 0.0
C559 C 0.97269 0.22375 0.36718 0.0
C560 C 0.99767 0.23355 0.36604 0.0
C561 C 1.00704 0.2244 0.31927 0.0
C562 C 0.99146 0.20533 0.27403 0.0
C563 C 0.92687 0.15939 0.90085 0.0
C564 C 0.94808 0.16131 0.87687 0.0
C565 C 0.92306 0.15791 0.97369 0.0
C566 C 0.94059 0.15876 0.02432 0.0
C567 C 0.96196 0.1611 0.00055 0.0
C568 C 0.96555 0.16214 0.92767 0.0
C569 C 0.93685 0.15735 0.10207 0.0
C570 C 0.95274 0.17526 0.15211 0.0
C571 C 0.91761 0.13873 0.127 0.0
C572 C 0.90047 0.11895 0.07781 0.0
C573 C 0.90895 0.10855 0.03182 0.0
C574 C 0.89262 0.08965 0.98688 0.0
C575 C 0.86775 0.08078 0.98824 0.0
C576 C 0.85917 0.09085 0.03434 0.0
C577 C 0.8754 0.10987 0.07878 0.0
H578 H 0.85514 0.06609 0.95366 0.0
H579 H 1.00978 0.24828 0.4012 0.0
H580 H 0.95691 0.66654 0.47049 0.0
H581 H 0.96352 0.671 0.34363 0.0
H582 H 0.88721 0.62773 0.2826 0.0
H583 H 0.88063 0.62346 0.40896 0.0
H584 H 0.9155 0.61926 0.1925 0.0
H585 H 0.9089 0.67993 0.28527 0.0
H586 H 0.91918 0.71181 0.37065 0.0
H587 H 0.99206 0.7443 0.31509 0.0
H588 H 0.98235 0.71238 0.23027 0.0
H589 H 0.90697 0.64428 0.83348 0.0
H590 H 0.90103 0.6401 0.96068 0.0
H591 H 0.97708 0.68536 0.01896 0.0
H592 H 0.98295 0.68953 0.89216 0.0
H593 H 0.94947 0.69293 0.11092 0.0
H594 H 0.95631 0.63245 0.01832 0.0
H595 H 0.9463 0.60047 0.93376 0.0
H596 H 0.87336 0.56772 0.98908 0.0
H597 H 0.88288 0.59966 0.07344 0.0
C598 C 0.94167 0.65771 0.43005 0.0
C599 C 0.91832 0.64449 0.45009 0.0
C600 C 0.94539 0.66039 0.35737 0.0
C601 C 0.92585 0.6497 0.30299 0.0
C602 C 0.90263 0.63608 0.32304 0.0
C603 C 0.89889 0.63372 0.39555 0.0
C604 C 0.92932 0.65328 0.22561 0.0
C605 C 0.9227 0.63534 0.17468 0.0
C606 C 0.93906 0.67429 0.20189 0.0
C607 C 0.94496 0.69366 0.25198 0.0
C608 C 0.92718 0.69379 0.2917 0.0
C609 C 0.93291 0.71187 0.34001 0.0
C610 C 0.95631 0.73002 0.3486 0.0
C611 C 0.97399 0.73017 0.30861 0.0
C612 C 0.96838 0.7121 0.26036 0.0
C613 C 0.92226 0.65368 0.87335 0.0
C614 C 0.94531 0.66746 0.85236 0.0
C615 C 0.91895 0.65111 0.94629 0.0
C616 C 0.93863 0.66238 5e-05 0.0
C617 C 0.96156 0.67653 0.97906 0.0
C618 C 0.96489 0.67885 0.90628 0.0
C619 C 0.93559 0.65888 0.0777 0.0
C620 C 0.9423 0.67684 0.12871 0.0
C621 C 0.92598 0.6379 0.10155 0.0
C622 C 0.92024 0.61853 0.05167 0.0
C623 C 0.93809 0.61849 0.0121 0.0
C624 C 0.93252 0.60036 0.96425 0.0
C625 C 0.90919 0.5821 0.95587 0.0
C626 C 0.89142 0.5819 0.99556 0.0
C627 C 0.8969 0.6 0.04347 0.0
H628 H 0.9049 0.56809 0.91875 0.0
H629 H 0.96072 0.744 0.38605 0.0
H630 H 0.23295 0.41648 0.27135 0.0
H631 H 0.20652 0.43126 0.24803 0.0
H632 H 0.14998 0.36793 0.14978 0.0
H633 H 0.17664 0.35323 0.17184 0.0
H634 H 0.15292 0.39739 0.06972 0.0
H635 H 0.14725 0.38984 0.31745 0.0
H636 H 0.16021 0.39341 0.44615 0.0
H637 H 0.19558 0.46319 0.45479 0.0
H638 H 0.18323 0.46008 0.3258 0.0
H639 H 0.07053 0.43772 0.04382 0.0
H640 H 0.08833 0.41588 0.07978 0.0
H641 H 0.15451 0.47493 0.16287 0.0
H642 H 0.13691 0.49662 0.12666 0.0
H643 H 0.14123 0.4432 0.25409 0.0
H644 H 0.14952 0.44897 -0.00095 0.0
H645 H 0.13299 0.44398 0.8729 0.0
H646 H 0.08864 0.37499 0.88297 0.0
H647 H 0.10473 0.37963 0.0095 0.0
C648 C 0.21482 0.40569 0.24523 0.0
C649 C 0.20685 0.3837 0.22349 0.0
C650 C 0.19964 0.41411 0.23224 0.0
C651 C 0.17605 0.40069 0.19785 0.0
C652 C 0.16804 0.37865 0.17647 0.0
C653 C 0.18327 0.37024 0.18927 0.0
C654 C 0.16023 0.40993 0.18156 0.0
C655 C 0.15005 0.40707 0.11051 0.0
C656 C 0.15645 0.42271 0.23434 0.0
C657 C 0.1645 0.42472 0.31162 0.0
C658 C 0.15804 0.40596 0.34653 0.0
C659 C 0.16524 0.40791 0.41962 0.0
C660 C 0.17876 0.42852 0.45858 0.0
C661 C 0.18514 0.44724 0.42451 0.0
C662 C 0.17805 0.44539 0.3514 0.0
C663 C 0.08885 0.44596 0.06954 0.0
C664 C 0.10244 0.46885 0.0815 0.0
C665 C 0.09901 0.43351 0.09021 0.0
C666 C 0.12288 0.44378 0.12349 0.0
C667 C 0.1361 0.46662 0.13733 0.0
C668 C 0.12603 0.479 0.11635 0.0
C669 C 0.13461 0.43108 0.14237 0.0
C670 C 0.14398 0.4333 0.21379 0.0
C671 C 0.13738 0.41751 0.09028 0.0
C672 C 0.12815 0.41467 0.01383 0.0
C673 C 0.13616 0.43276 0.97442 0.0
C674 C 0.12688 0.42999 0.90287 0.0
C675 C 0.10973 0.40918 0.86999 0.0
C676 C 0.1019 0.39109 0.90853 0.0
C677 C 0.11112 0.39378 0.98012 0.0
H678 H 0.10254 0.40708 0.81463 0.0
H679 H 0.18425 0.42998 0.5152 0.0
H680 H 0.64791 0.57704 0.89348 0.0
H681 H 0.67733 0.61632 0.9148 0.0
H682 H 0.632 0.62433 0.05889 0.0
H683 H 0.60271 0.58519 0.03823 0.0
H684 H 0.6574 0.66032 0.97453 0.0
H685 H 0.67125 0.61425 0.13268 0.0
H686 H 0.67583 0.58227 0.14474 0.0
H687 H 0.73638 0.60931 0.02065 0.0
H688 H 0.73197 0.64136 0.00744 0.0
H689 H 0.71923 0.74026 0.25807 0.0
H690 H 0.6952 0.70506 0.18542 0.0
H691 H 0.75928 0.71358 0.09641 0.0
H692 H 0.78359 0.74885 0.17041 0.0
H693 H 0.72965 0.67158 0.12523 0.0
H694 H 0.72173 0.72339 -0.00168 0.0
H695 H 0.71511 0.75407 0.98249 0.0
H696 H 0.6429 0.71631 0.04066 0.0
H697 H 0.6492 0.68551 0.058 0.0
C698 C 0.64395 0.58734 0.928 0.0
C699 C 0.62331 0.57823 0.96502 0.0
C700 C 0.6607 0.60969 0.94 0.0
C701 C 0.65681 0.62306 0.98873 0.0
C702 C 0.6352 0.61423 0.02088 0.0
C703 C 0.6186 0.5919 0.00947 0.0
C704 C 0.67657 0.64523 0.01577 0.0
C705 C 0.67331 0.66292 0.00707 0.0
C706 C 0.69749 0.6485 0.05676 0.0
C707 C 0.70124 0.63008 0.06885 0.0
C708 C 0.68559 0.61337 0.10824 0.0
C709 C 0.68811 0.59523 0.11515 0.0
C710 C 0.70636 0.59373 0.08339 0.0
C711 C 0.72227 0.61048 0.04527 0.0
C712 C 0.7198 0.62866 0.03815 0.0
C713 C 0.72823 0.73449 0.22371 0.0
C714 C 0.75315 0.74719 0.2193 0.0
C715 C 0.71449 0.71449 0.18191 0.0
C716 C 0.7254 0.70705 0.13424 0.0
C717 C 0.75053 0.71921 0.13235 0.0
C718 C 0.76436 0.73924 0.17468 0.0
C719 C 0.71018 0.68674 0.08586 0.0
C720 C 0.71424 0.66931 0.09082 0.0
C721 C 0.69004 0.68378 0.04104 0.0
C722 C 0.686 0.70216 0.02974 0.0
C723 C 0.70448 0.72166 0.00812 0.0
C724 C 0.70078 0.73908 -0.00114 0.0
C725 C 0.67861 0.73714 0.01062 0.0
C726 C 0.66007 0.71777 0.03153 0.0
C727 C 0.66368 0.70032 0.04097 0.0
H728 H 0.67578 0.75065 0.00346 0.0
H729 H 0.70809 0.57956 0.08826 0.0
H730 H 0.54682 0.96777 0.18989 0.0
H731 H 0.50524 0.95219 0.22103 0.0
H732 H 0.4873 0.88934 0.1181 0.0
H733 H 0.52878 0.90495 0.08617 0.0
H734 H 0.4511 0.89652 0.08702 0.0
H735 H 0.49701 0.90027 0.30344 0.0
H736 H 0.53175 0.91946 0.39664 0.0
H737 H 0.50932 0.9651 0.45639 0.0
H738 H 0.47446 0.9462 0.36321 0.0
H739 H 0.35139 0.82286 0.25758 0.0
H740 H 0.39132 0.84546 0.2194 0.0
H741 H 0.39129 0.90341 0.29904 0.0
H742 H 0.3503 0.88048 0.33597 0.0
H743 H 0.43596 0.90247 0.34106 0.0
H744 H 0.38874 0.89708 0.12355 0.0
H745 H 0.35748 0.87998 0.01988 0.0
H746 H 0.38296 0.83653 0.96151 0.0
H747 H 0.41469 0.85368 0.06412 0.0
C748 C 0.53397 0.95065 0.17357 0.0
C749 C 0.5412 0.93759 0.13577 0.0
C750 C 0.51017 0.9417 0.19177 0.0
C751 C 0.49297 0.91942 0.17295 0.0
C752 C 0.50007 0.90652 0.13354 0.0
C753 C 0.52387 0.91547 0.11541 0.0
C754 C 0.46777 0.90943 0.19512 0.0
C755 C 0.44789 0.89773 0.14269 0.0
C756 C 0.46323 0.91127 0.2675 0.0
C757 C 0.4833 0.92197 0.32603 0.0
C758 C 0.49949 0.91439 0.33652 0.0
C759 C 0.51918 0.9252 0.38927 0.0
C760 C 0.52277 0.94352 0.43208 0.0
C761 C 0.5065 0.9509 0.42305 0.0
C762 C 0.48673 0.94012 0.37041 0.0
C763 C 0.3597 0.84042 0.26689 0.0
C764 C 0.34747 0.8498 0.29968 0.0
C765 C 0.38262 0.85337 0.24463 0.0
C766 C 0.39442 0.87621 0.25559 0.0
C767 C 0.38256 0.88582 0.28958 0.0
C768 C 0.35914 0.87272 0.31072 0.0
C769 C 0.41934 0.88949 0.23285 0.0
C770 C 0.43919 0.90159 0.28529 0.0
C771 C 0.4239 0.88787 0.16048 0.0
C772 C 0.40396 0.87657 0.10163 0.0
C773 C 0.38753 0.88376 0.08893 0.0
C774 C 0.36989 0.87419 0.03 0.0
C775 C 0.36829 0.85723 0.984 0.0
C776 C 0.38428 0.84973 -0.00299 0.0
C777 C 0.40218 0.85945 0.05528 0.0
H778 H 0.35461 0.84984 0.93842 0.0
H779 H 0.53821 0.95199 0.47207 0.0
H780 H 0.53169 0.00454 0.00695 0.0
H781 H 0.51815 0.02756 0.95478 0.0
H782 H 0.57962 0.0848 0.07094 0.0
H783 H 0.59374 0.06182 0.12083 0.0
H784 H 0.50449 0.05412 0.99445 0.0
H785 H 0.60066 0.12706 0.971 0.0
H786 H 0.64179 0.13382 0.95953 0.0
H787 H 0.61214 0.06772 0.866 0.0
H788 H 0.57086 0.06066 0.87602 0.0
H789 H 0.49218 0.14113 0.88697 0.0
H790 H 0.50535 0.11943 0.95024 0.0
H791 H 0.53343 0.10833 0.75924 0.0
H792 H 0.52069 0.13048 0.69616 0.0
H793 H 0.56348 0.11534 0.87003 0.0
H794 H 0.47909 0.0688 0.80838 0.0
H795 H 0.43543 0.05569 0.79942 0.0
H796 H 0.43804 0.06112 0.02906 0.0
H797 H 0.4818 0.0745 0.03949 0.0
C798 C 0.54208 0.02201 0.02225 0.0
C799 C 0.56384 0.03146 0.06742 0.0
C800 C 0.53435 0.03516 0.99238 0.0
C801 C 0.54813 0.05798 0.00761 0.0
C802 C 0.569 0.06729 0.05688 0.0
C803 C 0.57694 0.05415 0.0859 0.0
C804 C 0.5413 0.07198 0.96913 0.0
C805 C 0.51745 0.0676 0.9677 0.0
C806 C 0.55794 0.08913 0.93198 0.0
C807 C 0.5827 0.09328 0.92508 0.0
C808 C 0.60294 0.114 0.94781 0.0
C809 C 0.62627 0.11788 0.94157 0.0
C810 C 0.62958 0.10119 0.9123 0.0
C811 C 0.60956 0.08061 0.88892 0.0
C812 C 0.58619 0.07666 0.89493 0.0
C813 C 0.50141 0.13425 0.85874 0.0
C814 C 0.50545 0.13745 0.78671 0.0
C815 C 0.50876 0.12172 0.89478 0.0
C816 C 0.52006 0.11195 0.85924 0.0
C817 C 0.52472 0.11568 0.78778 0.0
C818 C 0.51746 0.12831 0.75177 0.0
C819 C 0.52676 0.09768 0.89634 0.0
C820 C 0.55059 0.10201 0.89745 0.0
C821 C 0.50982 0.0799 0.93056 0.0
C822 C 0.48376 0.07282 0.92471 0.0
C823 C 0.47042 0.06745 0.85699 0.0
C824 C 0.44565 0.05989 0.85164 0.0
C825 C 0.43399 0.05749 0.91364 0.0
C826 C 0.44711 0.06289 0.98113 0.0
C827 C 0.47189 0.07048 0.98679 0.0
H828 H 0.4148 0.05141 0.90943 0.0
H829 H 0.64766 0.10422 0.90758 0.0
H830 H 0.96679 0.23386 0.65987 0.0
H831 H 0.97274 0.26912 0.70505 0.0
H832 H 0.90574 0.23724 0.80059 0.0
H833 H 0.89963 0.20153 0.75656 0.0
H834 H 0.92388 0.28215 0.71978 0.0
H835 H 0.9398 0.24816 0.91577 0.0
H836 H 0.95594 0.22632 0.96523 0.0
H837 H 0.027 0.27319 0.91625 0.0
H838 H 1.01114 0.29508 0.86514 0.0
H839 H 0.96758 0.38356 0.93873 0.0
H840 H 0.94651 0.34419 0.90174 0.0
H841 H 0.01411 0.34983 0.85493 0.0
H842 H 0.03523 0.38902 0.89288 0.0
H843 H 0.98843 0.31498 0.9244 0.0
H844 H 0.97375 0.34725 0.72257 0.0
H845 H 0.95917 0.3688 0.66244 0.0
H846 H 0.88733 0.32572 0.71525 0.0
H847 H 0.90158 0.30407 0.77654 0.0
C848 C 0.95301 0.23421 0.68926 0.0
C849 C 0.93296 0.21486 0.70586 0.0
C850 C 0.95643 0.2544 0.71471 0.0
C851 C 0.93977 0.2556 0.75644 0.0
C852 C 0.91872 0.23647 0.7683 0.0
C853 C 0.91535 0.21614 0.74334 0.0
C854 C 0.9464 0.27678 0.79481 0.0
C855 C 0.93748 0.28923 0.76579 0.0
C856 C 0.9645 0.28593 0.85364 0.0
C857 C 0.97424 0.27314 0.8861 0.0
C858 C 0.95882 0.25371 0.91503 0.0
C859 C 0.96792 0.24134 0.94343 0.0
C860 C 0.99247 0.24835 0.94376 0.0
C861 C 1.00798 0.26778 0.91591 0.0
C862 C 0.99895 0.28018 0.88727 0.0
C863 C 0.97789 0.37631 0.92087 0.0
C864 C 1.00295 0.3892 0.91822 0.0
C865 C 0.96586 0.35389 0.89962 0.0
C866 C 0.97874 0.34418 0.87502 0.0
C867 C 1.00386 0.35703 0.87384 0.0
C868 C 0.01588 0.37939 0.89523 0.0
C869 C 0.9662 0.3207 0.84894 0.0
C870 C 0.97422 0.30781 0.87999 0.0
C871 C 0.94735 0.31124 0.7918 0.0
C872 C 0.93879 0.32422 0.7549 0.0
C873 C 0.95489 0.34249 0.72188 0.0
C874 C 0.94668 0.3547 0.68749 0.0
C875 C 0.92236 0.34868 0.68524 0.0
C876 C 0.90618 0.3304 0.71719 0.0
C877 C 0.91431 0.31815 0.75173 0.0
H878 H 0.91603 0.35815 0.65857 0.0
H879 H 0.99949 0.23874 0.96571 0.0
H880 H 0.82381 0.57583 0.66412 0.0
H881 H 0.78263 0.55676 0.69985 0.0
H882 H 0.80069 0.61222 0.85083 0.0
H883 H 0.84186 0.63128 0.81527 0.0
H884 H 0.7747 0.57464 0.90992 0.0
H885 H 0.76721 0.60203 0.68909 0.0
H886 H 0.77079 0.60726 0.56102 0.0
H887 H 0.72557 0.53813 0.50368 0.0
H888 H 0.72206 0.53243 0.6315 0.0
H889 H 0.65116 0.536 0.97816 0.0
H890 H 0.69265 0.55877 0.94644 0.0
H891 H 0.6793 0.50887 0.77766 0.0
H892 H 0.63809 0.4866 0.80778 0.0
H893 H 0.70336 0.54593 0.72944 0.0
H894 H 0.7109 0.51772 0.94746 0.0
H895 H 0.70747 0.51147 0.07477 0.0
H896 H 0.75311 0.58029 0.13742 0.0
H897 H 0.75638 0.58701 0.01039 0.0
C898 C 0.81902 0.58392 0.70512 0.0
C899 C 0.83614 0.60511 0.73668 0.0
C900 C 0.79539 0.57304 0.7253 0.0
C901 C 0.78825 0.58307 0.77762 0.0
C902 C 0.80556 0.60406 0.8103 0.0
C903 C 0.82914 0.61498 0.7898 0.0
C904 C 0.76284 0.57174 0.79822 0.0
C905 C 0.75909 0.56865 0.87058 0.0
C906 C 0.74231 0.5634 0.74694 0.0
C907 C 0.74462 0.56679 0.67003 0.0
C908 C 0.75825 0.58791 0.64925 0.0
C909 C 0.76022 0.59097 0.57666 0.0
C910 C 0.74848 0.57303 0.52427 0.0
C911 C 0.7347 0.552 0.54434 0.0
C912 C 0.73272 0.54885 0.61685 0.0
C913 C 0.65708 0.53002 0.93398 0.0
C914 C 0.64128 0.5094 0.89573 0.0
C915 C 0.6809 0.54298 0.91612 0.0
C916 C 0.68949 0.53553 0.86004 0.0
C917 C 0.67339 0.51516 0.82108 0.0
C918 C 0.64972 0.50234 0.83859 0.0
C919 C 0.71508 0.54854 0.84126 0.0
C920 C 0.7189 0.55199 0.76908 0.0
C921 C 0.73564 0.55697 0.89269 0.0
C922 C 0.73344 0.55292 0.96918 0.0
C923 C 0.71991 0.53157 0.98827 0.0
C924 C 0.71805 0.52793 0.06045 0.0
C925 C 0.72995 0.54548 0.11415 0.0
C926 C 0.74383 0.5667 0.09578 0.0
C927 C 0.74561 0.57044 0.02368 0.0
H928 H 0.72851 0.54262 0.17 0.0
H929 H 0.75 0.57543 0.4681 0.0
H930 H 0.98429 0.62488 0.67016 0.0
H931 H 0.99701 0.60064 0.71522 0.0
H932 H 0.93009 0.56554 0.8097 0.0
H933 H 0.91737 0.59021 0.76623 0.0
H934 H 0.96693 0.57241 0.90098 0.0
H935 H 0.94104 0.54446 0.65275 0.0
H936 H 0.93948 0.5459 0.52187 0.0
H937 H 0.01536 0.56854 0.5309 0.0
H938 H 0.01744 0.56743 0.66193 0.0
H939 H 0.97924 0.47964 0.95594 0.0
H940 H 0.96547 0.50411 0.91707 0.0
H941 H 0.03451 0.54497 0.84009 0.0
H942 H 0.04841 0.52067 0.87936 0.0
H943 H 0.99567 0.53436 0.74022 0.0
H944 H 0.02188 0.56245 0.98692 0.0
H945 H 0.02391 0.56075 0.11754 0.0
H946 H 0.94804 0.53797 0.11142 0.0
H947 H 0.94545 0.53919 0.98042 0.0
C948 C 0.97211 0.61195 0.70011 0.0
C949 C 0.94965 0.60944 0.71387 0.0
C950 C 0.97942 0.598 0.72568 0.0
C951 C 0.96437 0.58098 0.7649 0.0
C952 C 0.94198 0.57847 0.77922 0.0
C953 C 0.93468 0.59253 0.75395 0.0
C954 C 0.97229 0.56614 0.79187 0.0
C955 C 0.97282 0.5638 0.86557 0.0
C956 C 0.98062 0.55532 0.74615 0.0
C957 C 0.97943 0.55606 0.66731 0.0
C958 C 0.95743 0.5499 0.62691 0.0
C959 C 0.95645 0.55061 0.55266 0.0
C960 C 0.97731 0.55733 0.5181 0.0
C961 C 0.99921 0.56332 0.55772 0.0
C962 C 1.00029 0.56263 0.63197 0.0
C963 C 0.99151 0.49394 0.9312 0.0
C964 C 0.01486 0.49826 0.92055 0.0
C965 C 0.98366 0.50793 0.90921 0.0
C966 C 0.99898 0.5264 0.87579 0.0
C967 C 0.02239 0.5308 0.86566 0.0
C968 C 0.03032 0.51695 0.8883 0.0
C969 C 0.99032 0.54069 0.84907 0.0
C970 C 0.98967 0.54291 0.77547 0.0
C971 C 0.98193 0.55139 0.89485 0.0
C972 C 0.98341 0.55064 0.97365 0.0
C973 C 1.00556 0.55685 0.01326 0.0
C974 C 1.00683 0.55602 0.08742 0.0
C975 C 0.9861 0.54919 0.12274 0.0
C976 C 0.96407 0.54322 0.08397 0.0
C977 C 0.9627 0.54398 0.00975 0.0
H978 H 0.98711 0.54857 0.18017 0.0
H979 H 0.97651 0.55785 0.46061 0.0
H980 H 0.5984 0.41139 0.00183 0.0
H981 H 0.59186 0.37489 0.96938 0.0
H982 H 0.51608 0.3506 0.91122 0.0
H983 H 0.52251 0.38704 0.94359 0.0
H984 H 0.52452 0.3203 0.97478 0.0
H985 H 0.55338 0.36903 0.78724 0.0
H986 H 0.5825 0.40276 0.73853 0.0
H987 H 0.63852 0.38773 0.77909 0.0
H988 H 0.60976 0.35404 0.82903 0.0
H989 H 0.47802 0.24665 0.66769 0.0
H990 H 0.49977 0.28292 0.73373 0.0
H991 H 0.55498 0.27071 0.81826 0.0
H992 H 0.5331 0.23397 0.75329 0.0
H993 H 0.56457 0.31843 0.7587 0.0
H994 H 0.53356 0.267 0.93738 0.0
H995 H 0.50257 0.23257 0.97804 0.0
H996 H 0.44998 0.25227 0.94933 0.0
H997 H 0.48066 0.28674 0.90766 0.0
C998 C 0.58025 0.39812 0.98386 0.0
C999 C 0.56097 0.40197 0.97424 0.0
C1000 C 0.57656 0.37734 0.96534 0.0
C1001 C 0.55357 0.36021 0.9371 0.0
C1002 C 0.53395 0.36366 0.93296 0.0
C1003 C 0.53765 0.38445 0.95118 0.0
C1004 C 0.55034 0.33953 0.90341 0.0
C1005 C 0.53353 0.3199 0.9282 0.0
C1006 C 0.56232 0.33905 0.84307 0.0
C1007 C 0.57953 0.35921 0.81272 0.0
C1008 C 0.57196 0.37303 0.78631 0.0
C1009 C 0.58838 0.39211 0.7584 0.0
C1010 C 0.61237 0.39743 0.75595 0.0
C1011 C 0.61995 0.38363 0.78121 0.0
C1012 C 0.6036 0.36454 0.80932 0.0
C1013 C 0.49505 0.25174 0.69887 0.0
C1014 C 0.50362 0.23727 0.70616 0.0
C1015 C 0.50742 0.27247 0.73657 0.0
C1016 C 0.52867 0.27917 0.78127 0.0
C1017 C 0.53847 0.26561 0.7841 0.0
C1018 C 0.52594 0.24469 0.74694 0.0
C1019 C 0.53878 0.29939 0.83004 0.0
C1020 C 0.55649 0.3189 0.80733 0.0
C1021 C 0.52774 0.29978 0.89238 0.0
C1022 C 0.50933 0.27933 0.91881 0.0
C1023 C 0.51534 0.2639 0.93922 0.0
C1024 C 0.49784 0.24439 0.96254 0.0
C1025 C 0.47428 0.24018 0.966 0.0
C1026 C 0.46822 0.25553 0.94652 0.0
C1027 C 0.48567 0.27508 0.92317 0.0
H1028 H 0.46075 0.22504 0.9839 0.0
H1029 H 0.62505 0.41221 0.7343 0.0
H1030 H 0.8197 0.10309 0.67562 0.0
H1031 H 0.78105 0.08114 0.72407 0.0
H1032 H 0.81874 0.07893 0.91772 0.0
H1033 H 0.85757 0.10083 0.86903 0.0
H1034 H 0.7779 0.03945 0.87729 0.0
H1035 H 0.79768 0.11446 0.91267 0.0
H1036 H 0.80895 0.15055 0.87473 0.0
H1037 H 0.74461 0.12126 0.72649 0.0
H1038 H 0.73311 0.08495 0.76293 0.0
H1039 H 0.67895 0.00934 0.09487 0.0
H1040 H 0.71793 0.02566 0.04379 0.0
H1041 H 0.6844 0.03338 0.85096 0.0
H1042 H 0.64592 0.01764 0.90213 0.0
H1043 H 0.72394 0.06994 0.8938 0.0
H1044 H 0.7031 0.99543 0.85617 0.0
H1045 H 0.69068 0.95876 0.89075 0.0
H1046 H 0.75517 0.98561 0.0371 0.0
H1047 H 0.76787 0.02255 0.00411 0.0
C1048 C 0.81976 0.09788 0.72847 0.0
C1049 C 0.84169 0.1038 0.76871 0.0
C1050 C 0.79763 0.08534 0.75625 0.0
C1051 C 0.7969 0.07857 0.82523 0.0
C1052 C 0.81879 0.08398 0.86464 0.0
C1053 C 0.84096 0.09654 0.83684 0.0
C1054 C 0.77344 0.06665 0.85717 0.0
C1055 C 0.76623 0.04623 0.88172 0.0
C1056 C 0.75784 0.07517 0.86179 0.0
C1057 C 0.76463 0.09699 0.84016 0.0
C1058 C 0.78601 0.11571 0.87169 0.0
C1059 C 0.79243 0.13621 0.85049 0.0
C1060 C 0.77753 0.1382 0.79815 0.0
C1061 C 0.75614 0.1197 0.767 0.0
C1062 C 0.74965 0.09916 0.78796 0.0
C1063 C 0.67993 0.0143 0.0413 0.0
C1064 C 0.65947 0.01244 0.00285 0.0
C1065 C 0.7022 0.02359 0.01196 0.0
C1066 C 0.70428 0.03091 0.94334 0.0
C1067 C 0.68349 0.02816 0.90415 0.0
C1068 C 0.66143 0.01908 0.9335 0.0
C1069 C 0.72816 0.04257 0.91339 0.0
C1070 C 0.73552 0.06305 0.88941 0.0
C1071 C 0.74369 0.03397 0.90876 0.0
C1072 C 0.73631 0.01179 0.92821 0.0
C1073 C 0.71456 0.99355 0.89611 0.0
C1074 C 0.70749 0.97272 0.91532 0.0
C1075 C 0.72211 0.96989 0.96615 0.0
C1076 C 0.74387 0.98786 -0.00225 0.0
C1077 C 0.75103 0.00875 0.97876 0.0
H1078 H 0.71655 0.95377 0.98102 0.0
H1079 H 0.78253 0.15408 0.7818 0.0
H1080 H 0.68581 0.95916 0.08202 0.0
H1081 H 0.71327 0.94552 0.10857 0.0
H1082 H 0.66071 0.89754 0.22987 0.0
H1083 H 0.63371 0.91169 0.20581 0.0
H1084 H 0.70376 0.91553 0.30035 0.0
H1085 H 0.67113 0.88625 0.0536 0.0
H1086 H 0.66289 0.88823 0.92531 0.0
H1087 H 0.7391 0.92632 0.90806 0.0
H1088 H 0.74779 0.92495 0.03667 0.0
H1089 H 0.73077 0.83256 0.30928 0.0
H1090 H 0.71358 0.85518 0.28235 0.0
H1091 H 0.77935 0.90088 0.19829 0.0
H1092 H 0.79681 0.87799 0.2253 0.0
H1093 H 0.73647 0.88982 0.1096 0.0
H1094 H 0.76926 0.91606 0.35238 0.0
H1095 H 0.77774 0.91322 0.47962 0.0
H1096 H 0.70185 0.88074 0.50352 0.0
H1097 H 0.69286 0.88305 0.37603 0.0
C1098 C 0.68011 0.94563 0.11406 0.0
C1099 C 0.65758 0.9364 0.14163 0.0
C1100 C 0.69577 0.93778 0.12891 0.0
C1101 C 0.68899 0.92026 0.17039 0.0
C1102 C 0.66643 0.91106 0.19777 0.0
C1103 C 0.65093 0.91908 0.18375 0.0
C1104 C 0.70534 0.91158 0.18652 0.0
C1105 C 0.71073 0.90978 0.25845 0.0
C1106 C 0.71536 0.90485 0.13227 0.0
C1107 C 0.7101 0.90574 0.05502 0.0
C1108 C 0.68613 0.89524 0.02265 0.0
C1109 C 0.68138 0.89623 0.94983 0.0
C1110 C 0.70046 0.90745 0.9086 0.0
C1111 C 0.72434 0.91765 0.94007 0.0
C1112 C 0.72918 0.91681 0.01295 0.0
C1113 C 0.74167 0.84746 0.28532 0.0
C1114 C 0.76516 0.85355 0.26962 0.0
C1115 C 0.73183 0.86042 0.27012 0.0
C1116 C 0.74522 0.87983 0.23888 0.0
C1117 C 0.76874 0.88601 0.22271 0.0
C1118 C 0.77872 0.87301 0.23844 0.0
C1119 C 0.73411 0.8932 0.22296 0.0
C1120 C 0.72976 0.8959 0.15136 0.0
C1121 C 0.72506 0.90083 0.27739 0.0
C1122 C 0.73037 0.89962 0.35443 0.0
C1123 C 0.75435 0.90818 0.3846 0.0
C1124 C 0.75926 0.90668 0.45682 0.0
C1125 C 0.74034 0.89678 0.49961 0.0
C1126 C 0.71648 0.8884 0.4703 0.0
C1127 C 0.71148 0.88983 0.39807 0.0
H1128 H 0.74417 0.89563 0.5555 0.0
H1129 H 0.69674 0.9082 0.85225 0.0
H1130 H 0.25266 0.73678 0.21993 0.0
H1131 H 0.22001 0.70018 0.17361 0.0
H1132 H 0.17646 0.70267 0.33575 0.0
H1133 H 0.20959 0.73925 0.38389 0.0
H1134 H 0.17002 0.66182 0.30861 0.0
H1135 H 0.16756 0.71458 0.17311 0.0
H1136 H 0.18459 0.74702 0.107 0.0
H1137 H 0.20442 0.71447 0.94873 0.0
H1138 H 0.18792 0.68197 0.01459 0.0
H1139 H 0.07303 0.56837 0.09968 0.0
H1140 H 0.09421 0.60657 0.15234 0.0
H1141 H 0.15581 0.61953 0.03989 0.0
H1142 H 0.13489 0.5814 0.98788 0.0
H1143 H 0.1454 0.65408 0.04777 0.0
H1144 H 0.15484 0.60499 0.20014 0.0
H1145 H 0.13815 0.57278 0.2675 0.0
H1146 H 0.10364 0.59912 0.39448 0.0
H1147 H 0.11988 0.63136 0.32704 0.0
C1148 C 0.23633 0.7293 0.24663 0.0
C1149 C 0.23344 0.74074 0.30489 0.0
C1150 C 0.21766 0.70851 0.21992 0.0
C1151 C 0.19562 0.69907 0.24999 0.0
C1152 C 0.19327 0.70983 0.31144 0.0
C1153 C 0.21218 0.73062 0.33894 0.0
C1154 C 0.17485 0.67854 0.21405 0.0
C1155 C 0.16421 0.66022 0.25203 0.0
C1156 C 0.16726 0.67656 0.14022 0.0
C1157 C 0.17657 0.69584 0.09906 0.0
C1158 C 0.17563 0.71436 0.12435 0.0
C1159 C 0.18521 0.73277 0.08694 0.0
C1160 C 0.19561 0.73282 0.02375 0.0
C1161 C 0.19636 0.71441 -0.00231 0.0
C1162 C 0.18686 0.69597 0.03501 0.0
C1163 C 0.09087 0.57953 0.08501 0.0
C1164 C 0.10257 0.57203 0.04065 0.0
C1165 C 0.10289 0.60127 0.11506 0.0
C1166 C 0.1266 0.61568 0.10044 0.0
C1167 C 0.1375 0.60858 0.05167 0.0
C1168 C 0.12561 0.58683 0.02228 0.0
C1169 C 0.14129 0.63733 0.14179 0.0
C1170 C 0.15075 0.65586 0.10479 0.0
C1171 C 0.14761 0.63955 0.21657 0.0
C1172 C 0.13832 0.62042 0.25805 0.0
C1173 C 0.14357 0.60383 0.24213 0.0
C1174 C 0.1342 0.58559 0.28033 0.0
C1175 C 0.11977 0.58387 0.33508 0.0
C1176 C 0.11478 0.60045 0.35195 0.0
C1177 C 0.12406 0.61871 0.31378 0.0
H1178 H 0.1125 0.56971 0.36453 0.0
H1179 H 0.20307 0.74711 0.99496 0.0
H1180 H 0.5064 0.49504 0.02362 0.0
H1181 H 0.4664 0.47269 0.06159 0.0
H1182 H 0.47778 0.41818 0.06427 0.0
H1183 H 0.51842 0.44082 0.02509 0.0
H1184 H 0.42981 0.40562 0.00795 0.0
H1185 H 0.48249 0.44489 0.22048 0.0
H1186 H 0.51524 0.47738 0.29466 0.0
H1187 H 0.474 0.50929 0.27957 0.0
H1188 H 0.44106 0.47705 0.20447 0.0
H1189 H 0.32415 0.35476 0.20397 0.0
H1190 H 0.36549 0.36918 0.17073 0.0
H1191 H 0.37204 0.43182 0.15301 0.0
H1192 H 0.33092 0.41745 0.18584 0.0
H1193 H 0.4125 0.43598 0.22643 0.0
H1194 H 0.3614 0.3973 0.00528 0.0
H1195 H 0.32873 0.3646 0.93134 0.0
H1196 H 0.36708 0.33069 0.9662 0.0
H1197 H 0.39981 0.3631 0.04134 0.0
C1198 C 0.50047 0.47825 0.03179 0.0
C1199 C 0.51575 0.46979 0.0216 0.0
C1200 C 0.47749 0.46546 0.05377 0.0
C1201 C 0.46901 0.44376 0.06701 0.0
C1202 C 0.48386 0.43488 0.05468 0.0
C1203 C 0.5071 0.44782 0.03239 0.0
C1204 C 0.44502 0.43114 0.09611 0.0
C1205 C 0.42618 0.412 0.05655 0.0
C1206 C 0.43999 0.43943 0.15927 0.0
C1207 C 0.45939 0.45861 0.20632 0.0
C1208 C 0.48044 0.45887 0.23272 0.0
C1209 C 0.49904 0.47725 0.27493 0.0
C1210 C 0.49678 0.49546 0.29139 0.0
C1211 C 0.47576 0.49521 0.2665 0.0
C1212 C 0.45709 0.47686 0.22424 0.0
C1213 C 0.33447 0.37159 0.1933 0.0
C1214 C 0.32425 0.38494 0.19778 0.0
C1215 C 0.35809 0.37983 0.17392 0.0
C1216 C 0.37202 0.40164 0.15896 0.0
C1217 C 0.36183 0.41499 0.16435 0.0
C1218 C 0.33823 0.40672 0.18297 0.0
C1219 C 0.39712 0.41079 0.13742 0.0
C1220 C 0.4162 0.42935 0.17849 0.0
C1221 C 0.40231 0.40183 0.07611 0.0
C1222 C 0.38294 0.38254 0.02954 0.0
C1223 C 0.3628 0.38282 -0.00246 0.0
C1224 C 0.34427 0.36435 0.95539 0.0
C1225 C 0.34579 0.34556 0.94425 0.0
C1226 C 0.3659 0.34525 0.97497 0.0
C1227 C 0.38445 0.36367 0.01731 0.0
H1228 H 0.33142 0.33126 0.91168 0.0
H1229 H 0.5113 0.50975 0.32353 0.0
H1230 H 0.94594 0.72134 0.53612 0.0
H1231 H 0.93328 0.74578 0.49035 0.0
H1232 H 0.86582 0.71072 0.58202 0.0
H1233 H 0.87821 0.68626 0.62786 0.0
H1234 H 0.85887 0.71832 0.44483 0.0
H1235 H 0.91004 0.75988 0.6618 0.0
H1236 H 0.94772 0.77738 0.74398 0.0
H1237 H 0.9866 0.81736 0.58243 0.0
H1238 H 0.94918 0.79987 0.49894 0.0
H1239 H 0.81618 0.79218 0.42607 0.0
H1240 H 0.83015 0.76787 0.46348 0.0
H1241 H 0.8992 0.80931 0.38708 0.0
H1242 H 0.88547 0.83405 0.35162 0.0
H1243 H 0.9063 0.79843 0.5115 0.0
H1244 H 0.85513 0.75822 0.29534 0.0
H1245 H 0.8177 0.7406 0.21203 0.0
H1246 H 0.7792 0.698 0.36832 0.0
H1247 H 0.81633 0.71553 0.45294 0.0
C1248 C 0.92848 0.7189 0.54706 0.0
C1249 C 0.91319 0.70187 0.58622 0.0
C1250 C 0.92127 0.73291 0.52082 0.0
C1251 C 0.89863 0.73017 0.53307 0.0
C1252 C 0.88333 0.71315 0.57178 0.0
C1253 C 0.89055 0.69922 0.5983 0.0
C1254 C 0.89074 0.74494 0.50558 0.0
C1255 C 0.86911 0.73582 0.4599 0.0
C1256 C 0.9044 0.76783 0.52371 0.0
C1257 C 0.92687 0.77841 0.57391 0.0
C1258 C 0.92666 0.77228 0.64363 0.0
C1259 C 0.94796 0.78222 0.69047 0.0
C1260 C 0.96955 0.79843 0.66837 0.0
C1261 C 0.96987 0.80478 0.59943 0.0
C1262 C 0.94862 0.79487 0.55236 0.0
C1263 C 0.83428 0.79601 0.41682 0.0
C1264 C 0.84974 0.81497 0.38577 0.0
C1265 C 0.84222 0.78203 0.43784 0.0
C1266 C 0.86565 0.78651 0.42719 0.0
C1267 C 0.88106 0.80544 0.39586 0.0
C1268 C 0.87318 0.81954 0.37537 0.0
C1269 C 0.87433 0.77184 0.45069 0.0
C1270 C 0.8961 0.78096 0.49579 0.0
C1271 C 0.86085 0.74894 0.43162 0.0
C1272 C 0.83849 0.73832 0.38071 0.0
C1273 C 0.83864 0.7452 0.31215 0.0
C1274 C 0.81748 0.73521 0.26466 0.0
C1275 C 0.79607 0.71822 0.28494 0.0
C1276 C 0.79579 0.71117 0.35271 0.0
C1277 C 0.8169 0.7211 0.40042 0.0
H1278 H 0.77972 0.71046 0.24808 0.0
H1279 H 0.98602 0.80611 0.70472 0.0
H1280 H 0.37305 0.10442 0.55043 0.0
H1281 H 0.34806 0.06508 0.51315 0.0
H1282 H 0.40262 0.0553 0.61915 0.0
H1283 H 0.427 0.09396 0.65847 0.0
H1284 H 0.35584 0.03923 0.42853 0.0
H1285 H 0.38014 0.00797 0.68296 0.0
H1286 H 0.38694 0.01703 0.81424 0.0
H1287 H 0.34591 0.04916 0.79994 0.0
H1288 H 0.33845 0.03993 0.66868 0.0
H1289 H 0.34372 0.93534 0.34495 0.0
H1290 H 0.35655 0.97372 0.3804 0.0
H1291 H 0.30366 0.95337 0.53313 0.0
H1292 H 0.2919 0.91554 0.50076 0.0
H1293 H 0.3422 0.98397 0.59543 0.0
H1294 H 0.2977 0.97415 0.37263 0.0
H1295 H 0.28487 0.96391 0.24292 0.0
H1296 H 0.35574 0.01212 0.19691 0.0
H1297 H 0.36911 0.02244 0.32641 0.0
C1298 C 0.37948 0.0938 0.56669 0.0
C1299 C 0.40197 0.10234 0.60759 0.0
C1300 C 0.36526 0.07137 0.54505 0.0
C1301 C 0.37335 0.05723 0.56405 0.0
C1302 C 0.39571 0.06579 0.6052 0.0
C1303 C 0.40973 0.08801 0.62739 0.0
C1304 C 0.35922 0.03362 0.53883 0.0
C1305 C 0.35261 0.02708 0.46497 0.0
C1306 C 0.35444 0.01773 0.58663 0.0
C1307 C 0.35884 0.02333 0.66578 0.0
C1308 C 0.37245 0.01686 0.7078 0.0
C1309 C 0.37644 0.02205 0.78224 0.0
C1310 C 0.36688 0.03368 0.81539 0.0
C1311 C 0.35334 0.04018 0.77416 0.0
C1312 C 0.34923 0.03498 0.69971 0.0
C1313 C 0.33491 0.93921 0.3859 0.0
C1314 C 0.31707 0.92265 0.42073 0.0
C1315 C 0.34205 0.96105 0.40572 0.0
C1316 C 0.33095 0.96645 0.45921 0.0
C1317 C 0.31263 0.9497 0.49221 0.0
C1318 C 0.30594 0.92807 0.47364 0.0
C1319 C 0.33937 0.98952 0.48469 0.0
C1320 C 0.34502 0.99599 0.5588 0.0
C1321 C 0.34236 0.00513 0.4373 0.0
C1322 C 0.33446 0.99893 0.3593 0.0
C1323 C 0.31061 0.98244 0.33487 0.0
C1324 C 0.30323 0.97665 0.26138 0.0
C1325 C 0.3195 0.98732 0.21171 0.0
C1326 C 0.34317 0.00385 0.23545 0.0
C1327 C 0.35065 0.00969 0.3089 0.0
H1328 H 0.31374 0.98281 0.15483 0.0
H1329 H 0.3699 0.0376 0.87304 0.0
H1330 H 1.01054 0.21686 0.49218 0.0
H1331 H 0.04835 0.23824 0.43849 0.0
H1332 H 0.08645 0.22395 0.60242 0.0
H1333 H 0.04878 0.20303 0.65724 0.0
H1334 H 0.11417 0.26452 0.57694 0.0
H1335 H 0.06779 0.19668 0.43565 0.0
H1336 H 0.03382 0.16567 0.3596 0.0
H1337 H 0.04054 0.20752 0.1974 0.0
H1338 H 0.07378 0.23903 0.27386 0.0
H1339 H 0.1929 0.26841 0.269 0.0
H1340 H 0.15601 0.25005 0.32765 0.0
H1341 H 0.16798 0.31246 0.41601 0.0
H1342 H 0.20567 0.33095 0.35904 0.0
H1343 H 0.11583 0.24749 0.3181 0.0
H1344 H 0.14418 0.30789 0.57663 0.0
H1345 H 0.18133 0.33395 0.65505 0.0
H1346 H 0.21552 0.29847 0.58755 0.0
H1347 H 0.1785 0.27207 0.50929 0.0
C1348 C 0.02701 0.21838 0.51692 0.0
C1349 C 0.02665 0.20817 0.57876 0.0
C1350 C 0.04862 0.23053 0.48598 0.0
C1351 C 0.07034 0.23255 0.51555 0.0
C1352 C 0.07005 0.22273 0.57835 0.0
C1353 C 0.04845 0.21066 0.60952 0.0
C1354 C 0.0931 0.24429 0.47981 0.0
C1355 C 0.11445 0.26085 0.52021 0.0
C1356 C 0.0939 0.23917 0.40613 0.0
C1357 C 0.07308 0.22038 0.36128 0.0
C1358 C 0.06172 0.19941 0.38447 0.0
C1359 C 0.04258 0.18171 0.34118 0.0
C1360 C 0.03494 0.18464 0.27385 0.0
C1361 C 0.04641 0.20528 0.2497 0.0
C1362 C 0.0653 0.2231 0.29322 0.0
C1363 C 0.18764 0.27828 0.30054 0.0
C1364 C 0.2023 0.30115 0.30953 0.0
C1365 C 0.16645 0.26773 0.33417 0.0
C1366 C 0.15917 0.27973 0.37746 0.0
C1367 C 0.17335 0.3027 0.38435 0.0
C1368 C 0.19478 0.3133 0.3511 0.0
C1369 C 0.13674 0.26799 0.41466 0.0
C1370 C 0.11546 0.25137 0.3746 0.0
C1371 C 0.13631 0.27242 0.4891 0.0
C1372 C 0.15862 0.28815 0.53644 0.0
C1373 C 0.1596 0.30562 0.57864 0.0
C1374 C 0.18065 0.32046 0.62302 0.0
C1375 C 0.2008 0.31791 0.62606 0.0
C1376 C 0.19993 0.30048 0.58488 0.0
C1377 C 0.17893 0.2856 0.54041 0.0
H1378 H 0.21707 0.32941 0.66046 0.0
H1379 H 0.02018 0.17091 0.24029 0.0
H1380 H 0.37485 0.19841 0.61949 0.0
H1381 H 0.35581 0.21718 0.56661 0.0
H1382 H 0.39391 0.22416 0.37965 0.0
H1383 H 0.41351 0.20581 0.43347 0.0
H1384 H 0.3962 0.26128 0.42175 0.0
H1385 H 0.33256 0.18685 0.37498 0.0
H1386 H 0.30457 0.14958 0.40366 0.0
H1387 H 0.27386 0.17463 0.55172 0.0
H1388 H 0.3019 0.21209 0.52467 0.0
H1389 H 0.32671 0.29948 0.23408 0.0
H1390 H 0.34555 0.27836 0.26786 0.0
H1391 H 0.31295 0.26799 0.46661 0.0
H1392 H 0.2938 0.28863 0.43246 0.0
H1393 H 0.3076 0.23098 0.40564 0.0
H1394 H 0.37351 0.30561 0.45843 0.0
H1395 H 0.40152 0.34284 0.42938 0.0
H1396 H 0.42772 0.31706 0.26817 0.0
H1397 H 0.39962 0.27963 0.29567 0.0
C1398 C 0.37901 0.2038 0.56687 0.0
C1399 C 0.39554 0.20059 0.53038 0.0
C1400 C 0.36805 0.21444 0.53652 0.0
C1401 C 0.37314 0.22182 0.46861 0.0
C1402 C 0.38963 0.21855 0.43196 0.0
C1403 C 0.40074 0.20801 0.46258 0.0
C1404 C 0.36178 0.23354 0.43726 0.0
C1405 C 0.37678 0.25448 0.41701 0.0
C1406 C 0.33647 0.22485 0.43204 0.0
C1407 C 0.31947 0.20231 0.44815 0.0
C1408 C 0.31995 0.18443 0.41401 0.0
C1409 C 0.30406 0.16326 0.42993 0.0
C1410 C 0.28748 0.15974 0.47958 0.0
C1411 C 0.28672 0.17738 0.51329 0.0
C1412 C 0.30259 0.19858 0.49762 0.0
C1413 C 0.32367 0.29272 0.28502 0.0
C1414 C 0.30885 0.29567 0.33074 0.0
C1415 C 0.33448 0.28073 0.30437 0.0
C1416 C 0.3308 0.2717 0.37005 0.0
C1417 C 0.31601 0.27473 0.41564 0.0
C1418 C 0.30515 0.2866 0.3962 0.0
C1419 C 0.34205 0.25887 0.39156 0.0
C1420 C 0.327 0.23768 0.40979 0.0
C1421 C 0.36728 0.26732 0.39476 0.0
C1422 C 0.38428 0.28982 0.37857 0.0
C1423 C 0.38512 0.30787 0.41643 0.0
C1424 C 0.40103 0.32901 0.40031 0.0
C1425 C 0.41634 0.33231 0.34681 0.0
C1426 C 0.41582 0.31448 0.3095 0.0
C1427 C 0.39992 0.2933 0.32537 0.0
H1428 H 0.42864 0.34869 0.33439 0.0
H1429 H 0.27519 0.14334 0.49184 0.0
H1430 H 0.89748 0.92508 0.45776 0.0
H1431 H 0.9189 0.96374 0.50483 0.0
H1432 H 0.85612 0.96752 0.43579 0.0
H1433 H 0.83488 0.92905 0.38723 0.0
H1434 H 0.89635 0.00288 0.40817 0.0
H1435 H 0.86771 0.96102 0.60947 0.0
H1436 H 0.86376 0.93356 0.68941 0.0
H1437 H 0.9407 0.96875 0.74439 0.0
H1438 H 0.94512 0.99627 0.66397 0.0
H1439 H 0.9075 0.08066 0.71593 0.0
H1440 H 0.90067 0.04472 0.67517 0.0
H1441 H 0.95816 0.07381 0.53916 0.0
H1442 H 0.96498 0.10995 0.57897 0.0
H1443 H 0.92556 0.02314 0.66763 0.0
H1444 H 0.93587 0.04255 0.37568 0.0
H1445 H 0.93591 0.06955 0.29978 0.0
H1446 H 0.88839 0.07785 0.43197 0.0
H1447 H 0.88775 0.05064 0.50781 0.0
C1448 C 0.88836 0.93425 0.45233 0.0
C1449 C 0.86455 0.9242 0.41938 0.0
C1450 C 0.90057 0.95627 0.47926 0.0
C1451 C 0.88899 0.9684 0.47437 0.0
C1452 C 0.86538 0.95844 0.4399 0.0
C1453 C 0.85324 0.93649 0.41254 0.0
C1454 C 0.90099 0.99124 0.50751 0.0
C1455 C 0.90297 0.00734 0.46472 0.0
C1456 C 0.90942 0.997 0.58143 0.0
C1457 C 0.90677 0.98055 0.63013 0.0
C1458 C 0.88379 0.96281 0.63822 0.0
C1459 C 0.88147 0.94725 0.68367 0.0
C1460 C 0.90197 0.94937 0.72179 0.0
C1461 C 0.92484 0.9671 0.71472 0.0
C1462 C 0.92727 0.98269 0.66925 0.0
C1463 C 0.91902 0.0795 0.67835 0.0
C1464 C 0.93642 0.09807 0.64945 0.0
C1465 C 0.91521 0.05895 0.65556 0.0
C1466 C 0.92867 0.05665 0.6034 0.0
C1467 C 0.94744 0.07531 0.57894 0.0
C1468 C 0.9513 0.09593 0.6018 0.0
C1469 C 0.92077 0.03466 0.56836 0.0
C1470 C 0.9195 0.01873 0.61073 0.0
C1471 C 0.91241 0.02892 0.49442 0.0
C1472 C 0.91204 0.04479 0.44786 0.0
C1473 C 0.92535 0.05007 0.38828 0.0
C1474 C 0.92548 0.06541 0.3453 0.0
C1475 C 0.91224 0.07548 0.36122 0.0
C1476 C 0.8987 0.0701 0.41984 0.0
C1477 C 0.89845 0.05472 0.46281 0.0
H1478 H 0.91244 0.0874 0.32805 0.0
H1479 H 0.90014 0.93731 0.75694 0.0
H1480 H 0.03304 0.73877 0.60447 0.0
H1481 H 0.07336 0.75915 0.56375 0.0
H1482 H 0.06616 0.69891 0.47254 0.0
H1483 H 0.02579 0.67848 0.51324 0.0
H1484 H 0.11134 0.72551 0.54235 0.0
H1485 H 0.06051 0.73227 0.36397 0.0
H1486 H 0.02961 0.74015 0.31614 0.0
H1487 H 0.0732 0.80676 0.40968 0.0
H1488 H 0.10429 0.79919 0.45878 0.0
H1489 H 0.21774 0.78323 0.35713 0.0
H1490 H 0.17617 0.75823 0.38358 0.0
H1491 H 0.17173 0.81324 0.47206 0.0
H1492 H 0.21274 0.83793 0.44474 0.0
H1493 H 0.1313 0.78624 0.39379 0.0
H1494 H 0.18064 0.77785 0.58065 0.0
H1495 H 0.21218 0.76985 0.62163 0.0
H1496 H 0.17159 0.70597 0.50495 0.0
H1497 H 0.13985 0.71364 0.46299 0.0
C1498 C 0.04001 0.72987 0.57557 0.0
C1499 C 0.02612 0.707 0.56186 0.0
C1500 C 0.0631 0.74155 0.55213 0.0
C1501 C 0.07293 0.73067 0.51441 0.0
C1502 C 0.05914 0.70777 0.50145 0.0
C1503 C 0.03596 0.6961 0.52447 0.0
C1504 C 0.09742 0.74325 0.48812 0.0
C1505 C 0.11556 0.7386 0.50909 0.0
C1506 C 0.10326 0.76046 0.44489 0.0
C1507 C 0.08462 0.76511 0.41561 0.0
C1508 C 0.06342 0.74855 0.37485 0.0
C1509 C 0.04589 0.75298 0.34741 0.0
C1510 C 0.0494 0.77393 0.36006 0.0
C1511 C 0.07049 0.79052 0.40002 0.0
C1512 C 0.08809 0.78618 0.42758 0.0
C1513 C 0.20798 0.78988 0.38304 0.0
C1514 C 0.21881 0.81254 0.40029 0.0
C1515 C 0.18412 0.7756 0.39805 0.0
C1516 C 0.17067 0.78371 0.43101 0.0
C1517 C 0.18148 0.8064 0.44675 0.0
C1518 C 0.20509 0.82056 0.43134 0.0
C1519 C 0.14542 0.76894 0.44955 0.0
C1520 C 0.12708 0.77313 0.42693 0.0
C1521 C 0.13942 0.75129 0.49092 0.0
C1522 C 0.15796 0.74634 0.51845 0.0
C1523 C 0.17845 0.76209 0.56379 0.0
C1524 C 0.19636 0.75763 0.58715 0.0
C1525 C 0.1939 0.73743 0.56585 0.0
C1526 C 0.17345 0.7216 0.52147 0.0
C1527 C 0.15547 0.72597 0.49803 0.0
H1528 H 0.20783 0.73403 0.58378 0.0
H1529 H 0.03582 0.77735 0.33872 0.0
loop_
_geom_bond_atom_site_label_1
_geom_bond_atom_site_label_2
_geom_bond_distance
_geom_bond_site_symmetry_2
_ccdc_geom_bond_type
Tb0 O3 2.453 1_455 S
Tb0 O4 2.596 . S
Tb0 O5 2.374 1_554 S
Tb0 O13 2.343 . S
Tb0 O15 2.353 . S
Tb0 O17 2.427 1_455 S
Tb0 O18 2.513 1_554 S
C1 O5 1.251 . S
C1 O7 1.263 . S
Tb2 O4 2.343 . S
Tb2 O7 2.353 1_554 S
Tb2 O10 2.427 . S
Tb2 O11 2.513 . S
Tb2 O12 2.453 . S
Tb2 O13 2.596 . S
Tb2 O14 2.374 . S
O3 Tb0 2.453 1_655 S
O3 C19 1.245 1_655 S
O4 Tb0 2.596 . S
O4 Tb2 2.343 . S
O4 C19 1.259 . S
O5 Tb0 2.374 1_556 S
O5 C1 1.251 . S
C6 O10 1.275 . S
C6 O11 1.246 . S
O7 C1 1.263 . S
O7 Tb2 2.353 1_556 S
C8 O12 1.245 . S
C8 O13 1.259 . S
C9 O14 1.250 . S
C9 O15 1.263 . S
O10 Tb2 2.427 . S
O10 C6 1.275 . S
O11 Tb2 2.513 . S
O11 C6 1.246 . S
O12 Tb2 2.453 . S
O12 C8 1.245 . S
O13 Tb0 2.343 . S
O13 Tb2 2.596 . S
O13 C8 1.259 . S
O14 Tb2 2.374 . S
O14 C9 1.250 . S
O15 Tb0 2.353 . S
O15 C9 1.263 . S
C16 O17 1.275 . S
C16 O18 1.246 1_654 S
O17 Tb0 2.427 1_655 S
O17 C16 1.275 . S
O18 Tb0 2.513 1_556 S
O18 C16 1.246 1_456 S
C19 O3 1.245 1_455 S
C19 O4 1.259 . S
Tb20 O23 2.453 . S
Tb20 O24 2.596 . S
Tb20 O25 2.374 . S
Tb20 O33 2.343 . S
Tb20 O35 2.353 1_554 S
Tb20 O37 2.427 . S
Tb20 O38 2.513 . S
C21 O25 1.251 . S
C21 O27 1.263 . S
Tb22 O24 2.343 . S
Tb22 O27 2.353 . S
Tb22 O30 2.427 . S
Tb22 O31 2.513 . S
Tb22 O32 2.453 . S
Tb22 O33 2.596 . S
Tb22 O34 2.374 1_554 S
O23 Tb20 2.453 . S
O23 C39 1.245 . S
O24 Tb20 2.596 . S
O24 Tb22 2.343 . S
O24 C39 1.259 . S
O25 Tb20 2.374 . S
O25 C21 1.251 . S
C26 O30 1.275 . S
C26 O31 1.246 . S
O27 C21 1.263 . S
O27 Tb22 2.353 . S
C28 O32 1.245 . S
C28 O33 1.259 . S
C29 O34 1.250 . S
C29 O35 1.263 . S
O30 Tb22 2.427 . S
O30 C26 1.275 . S
O31 Tb22 2.513 . S
O31 C26 1.246 . S
O32 Tb22 2.453 . S
O32 C28 1.245 . S
O33 Tb20 2.343 . S
O33 Tb22 2.596 . S
O33 C28 1.259 . S
O34 Tb22 2.374 1_556 S
O34 C29 1.250 . S
O35 Tb20 2.353 1_556 S
O35 C29 1.263 . S
C36 O37 1.275 . S
C36 O38 1.246 . S
O37 Tb20 2.427 . S
O37 C36 1.275 . S
O38 Tb20 2.513 . S
O38 C36 1.246 . S
C39 O23 1.245 . S
C39 O24 1.259 . S
Tb40 O43 2.453 . S
Tb40 O44 2.596 . S
Tb40 O45 2.374 . S
Tb40 O53 2.343 . S
Tb40 O55 2.353 . S
Tb40 O57 2.427 . S
Tb40 O58 2.513 . S
C41 O45 1.251 1_556 S
C41 O47 1.263 1_556 S
Tb42 O44 2.300 1_565 S
Tb42 O47 2.336 1_565 S
Tb42 O50 2.465 . S
Tb42 O51 2.539 1_565 S
Tb42 O52 2.442 . S
Tb42 O53 2.541 1_565 S
Tb42 O54 2.348 1_565 S
O43 Tb40 2.453 . S
O43 C59 1.245 . S
O44 Tb40 2.596 . S
O44 Tb42 2.300 1_545 S
O44 C59 1.259 . S
O45 Tb40 2.374 . S
O45 C41 1.251 1_554 S
C46 O50 1.275 . S
C46 O51 1.246 1_565 S
O47 C41 1.263 1_554 S
O47 Tb42 2.336 1_545 S
C48 O52 1.245 1_545 S
C48 O53 1.259 . S
C49 O54 1.250 . S
C49 O55 1.263 . S
O50 Tb42 2.465 . S
O50 C46 1.275 . S
O51 Tb42 2.539 1_545 S
O51 C46 1.246 1_545 S
O52 Tb42 2.442 . S
O52 C48 1.245 1_565 S
O53 Tb40 2.343 . S
O53 Tb42 2.541 1_545 S
O53 C48 1.259 . S
O54 Tb42 2.348 1_545 S
O54 C49 1.250 . S
O55 Tb40 2.353 . S
O55 C49 1.263 . S
C56 O57 1.275 . S
C56 O58 1.246 . S
O57 Tb40 2.427 . S
O57 C56 1.275 . S
O58 Tb40 2.513 . S
O58 C56 1.246 . S
C59 O43 1.245 . S
C59 O44 1.259 . S
Tb60 O63 2.453 . S
Tb60 O64 2.596 . S
Tb60 O65 2.374 . S
Tb60 O73 2.343 . S
Tb60 O75 2.353 . S
Tb60 O77 2.427 . S
Tb60 O78 2.513 . S
C61 O65 1.251 . S
C61 O67 1.263 . S
Tb62 O64 2.343 . S
Tb62 O67 2.353 . S
Tb62 O70 2.427 . S
Tb62 O71 2.513 . S
Tb62 O72 2.453 . S
Tb62 O73 2.596 . S
Tb62 O74 2.374 . S
O63 Tb60 2.453 . S
O63 C79 1.245 . S
O64 Tb60 2.596 . S
O64 Tb62 2.343 . S
O64 C79 1.259 . S
O65 Tb60 2.374 . S
O65 C61 1.251 . S
C66 O70 1.275 . S
C66 O71 1.246 . S
O67 C61 1.263 . S
O67 Tb62 2.353 . S
C68 O72 1.245 . S
C68 O73 1.259 . S
C69 O74 1.250 . S
C69 O75 1.263 . S
O70 Tb62 2.427 . S
O70 C66 1.275 . S
O71 Tb62 2.513 . S
O71 C66 1.246 . S
O72 Tb62 2.453 . S
O72 C68 1.245 . S
O73 Tb60 2.343 . S
O73 Tb62 2.596 . S
O73 C68 1.259 . S
O74 Tb62 2.374 . S
O74 C69 1.250 . S
O75 Tb60 2.353 . S
O75 C69 1.263 . S
C76 O77 1.275 . S
C76 O78 1.246 . S
O77 Tb60 2.427 . S
O77 C76 1.275 . S
O78 Tb60 2.513 . S
O78 C76 1.246 . S
C79 O63 1.245 . S
C79 O64 1.259 . S
Tb80 O83 2.453 . S
Tb80 O84 2.596 . S
Tb80 O85 2.374 . S
Tb80 O93 2.343 . S
Tb80 O95 2.353 . S
Tb80 O97 2.427 . S
Tb80 O98 2.513 . S
C81 O85 1.251 . S
C81 O87 1.263 . S
Tb82 O84 2.343 . S
Tb82 O87 2.353 . S
Tb82 O90 2.427 . S
Tb82 O91 2.513 . S
Tb82 O92 2.453 . S
Tb82 O93 2.596 . S
Tb82 O94 2.374 . S
O83 Tb80 2.453 . S
O83 C99 1.245 . S
O84 Tb80 2.596 . S
O84 Tb82 2.343 . S
O84 C99 1.259 . S
O85 Tb80 2.374 . S
O85 C81 1.251 . S
C86 O90 1.275 . S
C86 O91 1.246 . S
O87 C81 1.263 . S
O87 Tb82 2.353 . S
C88 O92 1.245 . S
C88 O93 1.259 . S
C89 O94 1.250 . S
C89 O95 1.263 . S
O90 Tb82 2.427 . S
O90 C86 1.275 . S
O91 Tb82 2.513 . S
O91 C86 1.246 . S
O92 Tb82 2.453 . S
O92 C88 1.245 . S
O93 Tb80 2.343 . S
O93 Tb82 2.596 . S
O93 C88 1.259 . S
O94 Tb82 2.374 . S
O94 C89 1.250 . S
O95 Tb80 2.353 . S
O95 C89 1.263 . S
C96 O97 1.275 . S
C96 O98 1.246 . S
O97 Tb80 2.427 . S
O97 C96 1.275 . S
O98 Tb80 2.513 . S
O98 C96 1.246 . S
C99 O83 1.245 . S
C99 O84 1.259 . S
Tb100 O103 2.453 . S
Tb100 O104 2.596 . S
Tb100 O105 2.374 . S
Tb100 O113 2.343 . S
Tb100 O115 2.353 . S
Tb100 O117 2.427 . S
Tb100 O118 2.513 . S
C101 O105 1.251 . S
C101 O107 1.263 . S
Tb102 O104 2.343 . S
Tb102 O107 2.353 . S
Tb102 O110 2.427 . S
Tb102 O111 2.513 . S
Tb102 O112 2.453 . S
Tb102 O113 2.596 . S
Tb102 O114 2.374 . S
O103 Tb100 2.453 . S
O103 C119 1.245 . S
O104 Tb100 2.596 . S
O104 Tb102 2.343 . S
O104 C119 1.259 . S
O105 Tb100 2.374 . S
O105 C101 1.251 . S
C106 O110 1.275 . S
C106 O111 1.246 . S
O107 C101 1.263 . S
O107 Tb102 2.353 . S
C108 O112 1.245 . S
C108 O113 1.259 . S
C109 O114 1.250 . S
C109 O115 1.263 . S
O110 Tb102 2.427 . S
O110 C106 1.275 . S
O111 Tb102 2.513 . S
O111 C106 1.246 . S
O112 Tb102 2.453 . S
O112 C108 1.245 . S
O113 Tb100 2.343 . S
O113 Tb102 2.596 . S
O113 C108 1.259 . S
O114 Tb102 2.374 . S
O114 C109 1.250 . S
O115 Tb100 2.353 . S
O115 C109 1.263 . S
C116 O117 1.275 . S
C116 O118 1.246 . S
O117 Tb100 2.427 . S
O117 C116 1.275 . S
O118 Tb100 2.513 . S
O118 C116 1.246 . S
C119 O103 1.245 . S
C119 O104 1.259 . S
Tb120 O123 2.453 . S
Tb120 O124 2.596 . S
Tb120 O125 2.374 . S
Tb120 O133 2.343 . S
Tb120 O135 2.353 . S
Tb120 O137 2.427 . S
Tb120 O138 2.513 . S
C121 O125 1.251 . S
C121 O127 1.263 . S
Tb122 O124 2.343 . S
Tb122 O127 2.353 . S
Tb122 O130 2.427 . S
Tb122 O131 2.513 . S
Tb122 O132 2.453 . S
Tb122 O133 2.596 . S
Tb122 O134 2.374 . S
O123 Tb120 2.453 . S
O123 C139 1.245 . S
O124 Tb120 2.596 . S
O124 Tb122 2.343 . S
O124 C139 1.259 . S
O125 Tb120 2.374 . S
O125 C121 1.251 . S
C126 O130 1.275 . S
C126 O131 1.246 . S
O127 C121 1.263 . S
O127 Tb122 2.353 . S
C128 O132 1.245 . S
C128 O133 1.259 . S
C129 O134 1.250 . S
C129 O135 1.263 . S
O130 Tb122 2.427 . S
O130 C126 1.275 . S
O131 Tb122 2.513 . S
O131 C126 1.246 . S
O132 Tb122 2.453 . S
O132 C128 1.245 . S
O133 Tb120 2.343 . S
O133 Tb122 2.596 . S
O133 C128 1.259 . S
O134 Tb122 2.374 . S
O134 C129 1.250 . S
O135 Tb120 2.353 . S
O135 C129 1.263 . S
C136 O137 1.275 . S
C136 O138 1.246 . S
O137 Tb120 2.427 . S
O137 C136 1.275 . S
O138 Tb120 2.513 . S
O138 C136 1.246 . S
C139 O123 1.245 . S
C139 O124 1.259 . S
Tb140 O143 2.453 . S
Tb140 O144 2.596 . S
Tb140 O145 2.374 . S
Tb140 O153 2.343 . S
Tb140 O155 2.353 . S
Tb140 O157 2.427 . S
Tb140 O158 2.513 . S
C141 O145 1.251 . S
C141 O147 1.263 . S
Tb142 O144 2.343 . S
Tb142 O147 2.353 . S
Tb142 O150 2.427 . S
Tb142 O151 2.513 . S
Tb142 O152 2.453 . S
Tb142 O153 2.596 . S
Tb142 O154 2.374 . S
O143 Tb140 2.453 . S
O143 C159 1.245 . S
O144 Tb140 2.596 . S
O144 Tb142 2.343 . S
O144 C159 1.259 . S
O145 Tb140 2.374 . S
O145 C141 1.251 . S
C146 O150 1.275 . S
C146 O151 1.246 . S
O147 C141 1.263 . S
O147 Tb142 2.353 . S
C148 O152 1.245 . S
C148 O153 1.259 . S
C149 O154 1.250 . S
C149 O155 1.263 . S
O150 Tb142 2.427 . S
O150 C146 1.275 . S
O151 Tb142 2.513 . S
O151 C146 1.246 . S
O152 Tb142 2.453 . S
O152 C148 1.245 . S
O153 Tb140 2.343 . S
O153 Tb142 2.596 . S
O153 C148 1.259 . S
O154 Tb142 2.374 . S
O154 C149 1.250 . S
O155 Tb140 2.353 . S
O155 C149 1.263 . S
C156 O157 1.275 . S
C156 O158 1.246 . S
O157 Tb140 2.427 . S
O157 C156 1.275 . S
O158 Tb140 2.513 . S
O158 C156 1.246 . S
C159 O143 1.245 . S
C159 O144 1.259 . S
Tb160 O163 2.453 . S
Tb160 O164 2.596 . S
Tb160 O165 2.374 . S
Tb160 O173 2.343 . S
Tb160 O175 2.353 . S
Tb160 O177 2.427 . S
Tb160 O178 2.513 . S
C161 O165 1.251 . S
C161 O167 1.263 . S
Tb162 O164 2.343 . S
Tb162 O167 2.353 . S
Tb162 O170 2.427 . S
Tb162 O171 2.513 . S
Tb162 O172 2.453 . S
Tb162 O173 2.596 . S
Tb162 O174 2.374 . S
O163 Tb160 2.453 . S
O163 C179 1.245 . S
O164 Tb160 2.596 . S
O164 Tb162 2.343 . S
O164 C179 1.259 . S
O165 Tb160 2.374 . S
O165 C161 1.251 . S
C166 O170 1.275 . S
C166 O171 1.246 . S
O167 C161 1.263 . S
O167 Tb162 2.353 . S
C168 O172 1.245 . S
C168 O173 1.259 . S
C169 O174 1.250 . S
C169 O175 1.263 . S
O170 Tb162 2.427 . S
O170 C166 1.275 . S
O171 Tb162 2.513 . S
O171 C166 1.246 . S
O172 Tb162 2.453 . S
O172 C168 1.245 . S
O173 Tb160 2.343 . S
O173 Tb162 2.596 . S
O173 C168 1.259 . S
O174 Tb162 2.374 . S
O174 C169 1.250 . S
O175 Tb160 2.353 . S
O175 C169 1.263 . S
C176 O177 1.275 . S
C176 O178 1.246 . S
O177 Tb160 2.427 . S
O177 C176 1.275 . S
O178 Tb160 2.513 . S
O178 C176 1.246 . S
C179 O163 1.245 . S
C179 O164 1.259 . S
H180 C198 0.951 . S
H181 C200 0.981 . S
H182 C202 0.950 . S
H183 C203 0.950 . S
H184 C205 0.950 . S
H185 C208 0.950 . S
H186 C209 0.950 . S
H187 C211 0.950 . S
H188 C212 0.950 . S
H189 C213 0.951 . S
H190 C215 0.951 . S
H191 C217 0.950 1_655 S
H192 C218 0.950 1_655 S
H193 C220 0.950 . S
H194 C223 0.950 . S
H195 C224 0.950 . S
H196 C226 0.950 . S
H197 C227 0.950 . S
C198 H180 0.951 . S
C198 C199 1.366 . S
C198 C200 1.388 . S
C199 C198 1.366 . S
C199 C203 1.385 . S
C200 H181 0.981 . S
C200 C198 1.388 . S
C200 C201 1.366 . S
C201 C200 1.366 . S
C201 C202 1.414 . S
C201 C204 1.499 . S
C202 H182 0.950 . S
C202 C201 1.414 . S
C202 C203 1.374 . S
C203 H183 0.950 . S
C203 C199 1.385 . S
C203 C202 1.374 . S
C204 C201 1.499 . S
C204 C205 1.373 . S
C204 C206 1.389 . S
C205 H184 0.950 . S
C205 C204 1.373 . S
C205 C221 1.377 . S
C206 C204 1.389 . S
C206 C207 1.524 . S
C206 C220 1.377 . S
C207 C206 1.524 . S
C207 C208 1.397 . S
C207 C212 1.363 1_455 S
C208 H185 0.950 . S
C208 C207 1.397 . S
C208 C209 1.334 . S
C209 H186 0.950 . S
C209 C208 1.334 . S
C209 C210 1.287 . S
C210 C209 1.287 . S
C210 C211 1.524 1_455 S
C210 H229 0.908 . S
C211 H187 0.950 . S
C211 C210 1.524 1_655 S
C211 C212 1.415 . S
C212 H188 0.950 . S
C212 C207 1.363 1_655 S
C212 C211 1.415 . S
C213 H189 0.951 . S
C213 C214 1.366 . S
C213 C215 1.388 . S
C214 C213 1.366 . S
C214 C218 1.385 . S
C215 H190 0.951 . S
C215 C213 1.388 . S
C215 C216 1.366 . S
C216 C215 1.366 . S
C216 C217 1.414 . S
C216 C219 1.499 . S
C217 H191 0.950 1_455 S
C217 C216 1.414 . S
C217 C218 1.374 . S
C218 H192 0.950 1_455 S
C218 C214 1.385 . S
C218 C217 1.374 . S
C219 C216 1.499 . S
C219 C220 1.373 . S
C219 C221 1.389 . S
C220 H193 0.950 . S
C220 C206 1.377 . S
C220 C219 1.373 . S
C221 C205 1.377 . S
C221 C219 1.389 . S
C221 C222 1.524 . S
C222 C221 1.524 . S
C222 C223 1.397 . S
C222 C227 1.363 . S
C223 H194 0.950 . S
C223 C222 1.397 . S
C223 C224 1.334 . S
C224 H195 0.950 . S
C224 C223 1.334 . S
C224 C225 1.287 . S
C225 C224 1.287 . S
C225 C226 1.524 . S
C225 H228 0.999 . S
C226 H196 0.950 . S
C226 C225 1.524 . S
C226 C227 1.415 . S
C227 H197 0.950 . S
C227 C222 1.363 . S
C227 C226 1.415 . S
H228 C225 0.999 . S
H229 C210 0.908 . S
H230 C248 0.951 . S
H231 C250 0.951 . S
H232 C252 0.950 . S
H233 C253 0.950 . S
H234 C255 0.950 . S
H235 C258 0.950 . S
H236 C259 0.950 . S
H237 C261 0.950 . S
H238 C262 0.950 . S
H239 C263 0.951 . S
H240 C265 0.951 . S
H241 C267 0.950 . S
H242 C268 0.950 . S
H243 C270 0.950 . S
H244 C273 0.950 . S
H245 C274 0.950 . S
H246 C276 0.950 . S
H247 C277 0.950 . S
C248 H230 0.951 . S
C248 C249 1.366 . S
C248 C250 1.388 . S
C249 C248 1.366 . S
C249 C253 1.385 . S
C250 H231 0.951 . S
C250 C248 1.388 . S
C250 C251 1.366 . S
C251 C250 1.366 . S
C251 C252 1.414 . S
C251 C254 1.499 . S
C252 H232 0.950 . S
C252 C251 1.414 . S
C252 C253 1.374 . S
C253 H233 0.950 . S
C253 C249 1.385 . S
C253 C252 1.374 . S
C254 C251 1.499 . S
C254 C255 1.373 . S
C254 C256 1.389 . S
C255 H234 0.950 . S
C255 C254 1.373 . S
C255 C271 1.377 . S
C256 C254 1.389 . S
C256 C257 1.524 . S
C256 C270 1.377 . S
C257 C256 1.524 . S
C257 C258 1.397 . S
C257 C262 1.363 . S
C258 H235 0.950 . S
C258 C257 1.397 . S
C258 C259 1.334 . S
C259 H236 0.950 . S
C259 C258 1.334 . S
C259 C260 1.287 . S
C260 C259 1.287 . S
C260 C261 1.524 . S
C260 H279 0.913 . S
C261 H237 0.950 . S
C261 C260 1.524 . S
C261 C262 1.415 . S
C262 H238 0.950 . S
C262 C257 1.363 . S
C262 C261 1.415 . S
C263 H239 0.951 . S
C263 C264 1.366 . S
C263 C265 1.388 . S
C264 C263 1.366 . S
C264 C268 1.385 . S
C265 H240 0.951 . S
C265 C263 1.388 . S
C265 C266 1.366 . S
C266 C265 1.366 . S
C266 C267 1.414 . S
C266 C269 1.499 . S
C267 H241 0.950 . S
C267 C266 1.414 . S
C267 C268 1.374 . S
C268 H242 0.950 . S
C268 C264 1.385 . S
C268 C267 1.374 . S
C269 C266 1.499 . S
C269 C270 1.373 . S
C269 C271 1.389 . S
C270 H243 0.950 . S
C270 C256 1.377 . S
C270 C269 1.373 . S
C271 C255 1.377 . S
C271 C269 1.389 . S
C271 C272 1.524 . S
C272 C271 1.524 . S
C272 C273 1.397 . S
C272 C277 1.363 . S
C273 H244 0.950 . S
C273 C272 1.397 . S
C273 C274 1.334 . S
C274 H245 0.950 . S
C274 C273 1.334 . S
C274 C275 1.287 . S
C275 C274 1.287 . S
C275 C276 1.524 . S
C275 H278 0.999 . S
C276 H246 0.950 . S
C276 C275 1.524 . S
C276 C277 1.415 . S
C277 H247 0.950 . S
C277 C272 1.363 . S
C277 C276 1.415 . S
H278 C275 0.999 . S
H279 C260 0.913 . S
H280 C298 0.951 . S
H281 C300 0.951 . S
H282 C302 0.950 1_565 S
H283 C303 0.950 1_565 S
H284 C305 0.974 . S
H285 C308 0.950 . S
H286 C309 0.950 . S
H287 C311 0.950 . S
H288 C312 0.950 . S
H289 C313 0.951 . S
H290 C315 0.946 . S
H291 C317 0.950 . S
H292 C318 0.950 . S
H293 C320 0.950 . S
H294 C323 0.950 . S
H295 C324 0.950 1_545 S
H296 C326 0.950 . S
H297 C327 0.950 . S
C298 H280 0.951 . S
C298 C299 1.366 . S
C298 C300 1.388 . S
C299 C298 1.366 . S
C299 C303 1.385 . S
C300 H281 0.951 . S
C300 C298 1.388 . S
C300 C301 1.366 . S
C301 C300 1.366 . S
C301 C302 1.414 . S
C301 C304 1.499 . S
C302 H282 0.950 1_545 S
C302 C301 1.414 . S
C302 C303 1.374 . S
C303 H283 0.950 1_545 S
C303 C299 1.385 . S
C303 C302 1.374 . S
C304 C301 1.499 . S
C304 C305 1.373 . S
C304 C306 1.389 . S
C305 H284 0.974 . S
C305 C304 1.373 . S
C305 C321 1.377 . S
C306 C304 1.389 . S
C306 C307 1.524 . S
C306 C320 1.377 . S
C307 C306 1.524 . S
C307 C308 1.397 . S
C307 C312 1.363 . S
C308 H285 0.950 . S
C308 C307 1.397 . S
C308 C309 1.334 . S
C309 H286 0.950 . S
C309 C308 1.334 . S
C309 C310 1.287 . S
C310 C309 1.287 . S
C310 C311 1.524 . S
C310 H329 0.913 . S
C311 H287 0.950 . S
C311 C310 1.524 . S
C311 C312 1.415 . S
C312 H288 0.950 . S
C312 C307 1.363 . S
C312 C311 1.415 . S
C313 H289 0.951 . S
C313 C314 1.366 . S
C313 C315 1.388 . S
C314 C313 1.366 . S
C314 C318 1.385 . S
C315 H290 0.946 . S
C315 C313 1.388 . S
C315 C316 1.366 . S
C316 C315 1.366 . S
C316 C317 1.414 . S
C316 C319 1.499 . S
C317 H291 0.950 . S
C317 C316 1.414 . S
C317 C318 1.374 . S
C318 H292 0.950 . S
C318 C314 1.385 . S
C318 C317 1.374 . S
C319 C316 1.499 . S
C319 C320 1.373 . S
C319 C321 1.389 . S
C320 H293 0.950 . S
C320 C306 1.377 . S
C320 C319 1.373 . S
C321 C305 1.377 . S
C321 C319 1.389 . S
C321 C322 1.524 1_545 S
C322 C321 1.524 1_565 S
C322 C323 1.397 1_565 S
C322 C327 1.363 . S
C323 H294 0.950 . S
C323 C322 1.397 1_545 S
C323 C324 1.334 1_545 S
C324 H295 0.950 1_565 S
C324 C323 1.334 1_565 S
C324 C325 1.287 . S
C325 C324 1.287 . S
C325 C326 1.524 . S
C325 H328 0.999 . S
C326 H296 0.950 . S
C326 C325 1.524 . S
C326 C327 1.415 . S
C327 H297 0.950 . S
C327 C322 1.363 . S
C327 C326 1.415 . S
H328 C325 0.999 . S
H329 C310 0.913 . S
H330 C348 0.951 . S
H331 C350 0.951 . S
H332 C352 0.950 . S
H333 C353 0.950 . S
H334 C355 0.950 . S
H335 C358 0.950 . S
H336 C359 0.950 . S
H337 C361 0.950 . S
H338 C362 0.950 . S
H339 C363 0.951 . S
H340 C365 0.951 . S
H341 C367 0.950 . S
H342 C368 0.950 . S
H343 C370 0.950 . S
H344 C373 0.950 . S
H345 C374 0.950 . S
H346 C376 0.950 . S
H347 C377 0.950 . S
C348 H330 0.951 . S
C348 C349 1.366 . S
C348 C350 1.388 . S
C349 C348 1.366 . S
C349 C353 1.385 . S
C350 H331 0.951 . S
C350 C348 1.388 . S
C350 C351 1.366 . S
C351 C350 1.366 . S
C351 C352 1.414 . S
C351 C354 1.499 . S
C352 H332 0.950 . S
C352 C351 1.414 . S
C352 C353 1.374 . S
C353 H333 0.950 . S
C353 C349 1.385 . S
C353 C352 1.374 . S
C354 C351 1.499 . S
C354 C355 1.373 . S
C354 C356 1.389 . S
C355 H334 0.950 . S
C355 C354 1.373 . S
C355 C371 1.377 . S
C356 C354 1.389 . S
C356 C357 1.524 . S
C356 C370 1.377 . S
C357 C356 1.524 . S
C357 C358 1.397 . S
C357 C362 1.363 . S
C358 H335 0.950 . S
C358 C357 1.397 . S
C358 C359 1.334 . S
C359 H336 0.950 . S
C359 C358 1.334 . S
C359 C360 1.287 . S
C360 C359 1.287 . S
C360 C361 1.524 . S
C360 H379 0.913 . S
C361 H337 0.950 . S
C361 C360 1.524 . S
C361 C362 1.415 . S
C362 H338 0.950 . S
C362 C357 1.363 . S
C362 C361 1.415 . S
C363 H339 0.951 . S
C363 C364 1.366 . S
C363 C365 1.388 1_554 S
C364 C363 1.366 . S
C364 C368 1.385 . S
C365 H340 0.951 . S
C365 C363 1.388 1_556 S
C365 C366 1.366 . S
C366 C365 1.366 . S
C366 C367 1.414 . S
C366 C369 1.499 . S
C367 H341 0.950 . S
C367 C366 1.414 . S
C367 C368 1.374 1_556 S
C368 H342 0.950 . S
C368 C364 1.385 . S
C368 C367 1.374 1_554 S
C369 C366 1.499 . S
C369 C370 1.373 . S
C369 C371 1.389 . S
C370 H343 0.950 . S
C370 C356 1.377 . S
C370 C369 1.373 . S
C371 C355 1.377 . S
C371 C369 1.389 . S
C371 C372 1.524 . S
C372 C371 1.524 . S
C372 C373 1.397 . S
C372 C377 1.363 . S
C373 H344 0.950 . S
C373 C372 1.397 . S
C373 C374 1.334 . S
C374 H345 0.950 . S
C374 C373 1.334 . S
C374 C375 1.287 . S
C375 C374 1.287 . S
C375 C376 1.524 . S
C375 H378 0.999 . S
C376 H346 0.950 . S
C376 C375 1.524 . S
C376 C377 1.415 . S
C377 H347 0.950 . S
C377 C372 1.363 . S
C377 C376 1.415 . S
H378 C375 0.999 . S
H379 C360 0.913 . S
H380 C398 0.951 . S
H381 C400 0.951 . S
H382 C402 0.950 . S
H383 C403 0.950 . S
H384 C405 0.950 . S
H385 C408 0.950 . S
H386 C409 0.950 . S
H387 C411 0.950 . S
H388 C412 0.950 . S
H389 C413 0.951 . S
H390 C415 0.951 . S
H391 C417 0.950 . S
H392 C418 0.950 1_554 S
H393 C420 0.950 . S
H394 C423 0.950 . S
H395 C424 0.950 . S
H396 C426 0.950 . S
H397 C427 0.950 . S
C398 H380 0.951 . S
C398 C399 1.366 . S
C398 C400 1.388 . S
C399 C398 1.366 . S
C399 C403 1.385 . S
C400 H381 0.951 . S
C400 C398 1.388 . S
C400 C401 1.366 . S
C401 C400 1.366 . S
C401 C402 1.414 . S
C401 C404 1.499 . S
C402 H382 0.950 . S
C402 C401 1.414 . S
C402 C403 1.374 . S
C403 H383 0.950 . S
C403 C399 1.385 . S
C403 C402 1.374 . S
C404 C401 1.499 . S
C404 C405 1.373 . S
C404 C406 1.389 . S
C405 H384 0.950 . S
C405 C404 1.373 . S
C405 C421 1.377 . S
C406 C404 1.389 . S
C406 C407 1.524 . S
C406 C420 1.377 . S
C407 C406 1.524 . S
C407 C408 1.397 . S
C407 C412 1.363 . S
C408 H385 0.950 . S
C408 C407 1.397 . S
C408 C409 1.334 . S
C409 H386 0.950 . S
C409 C408 1.334 . S
C409 C410 1.287 . S
C410 C409 1.287 . S
C410 C411 1.524 . S
C410 H429 0.913 . S
C411 H387 0.950 . S
C411 C410 1.524 . S
C411 C412 1.415 . S
C412 H388 0.950 . S
C412 C407 1.363 . S
C412 C411 1.415 . S
C413 H389 0.951 . S
C413 C414 1.366 . S
C413 C415 1.388 1_554 S
C414 C413 1.366 . S
C414 C418 1.385 1_554 S
C415 H390 0.951 . S
C415 C413 1.388 1_556 S
C415 C416 1.366 . S
C416 C415 1.366 . S
C416 C417 1.414 . S
C416 C419 1.499 . S
C417 H391 0.950 . S
C417 C416 1.414 . S
C417 C418 1.374 . S
C418 H392 0.950 1_556 S
C418 C414 1.385 1_556 S
C418 C417 1.374 . S
C419 C416 1.499 . S
C419 C420 1.373 . S
C419 C421 1.389 . S
C420 H393 0.950 . S
C420 C406 1.377 . S
C420 C419 1.373 . S
C421 C405 1.377 . S
C421 C419 1.389 . S
C421 C422 1.524 . S
C422 C421 1.524 . S
C422 C423 1.397 . S
C422 C427 1.363 . S
C423 H394 0.950 . S
C423 C422 1.397 . S
C423 C424 1.334 . S
C424 H395 0.950 . S
C424 C423 1.334 . S
C424 C425 1.287 . S
C425 C424 1.287 . S
C425 C426 1.524 . S
C425 H428 0.999 . S
C426 H396 0.950 . S
C426 C425 1.524 . S
C426 C427 1.415 . S
C427 H397 0.950 . S
C427 C422 1.363 . S
C427 C426 1.415 . S
H428 C425 0.999 . S
H429 C410 0.913 . S
H430 C448 0.951 . S
H431 C450 0.951 . S
H432 C452 0.950 . S
H433 C453 0.950 . S
H434 C455 0.950 . S
H435 C458 0.950 . S
H436 C459 0.950 . S
H437 C461 0.950 . S
H438 C462 0.950 . S
H439 C463 0.951 . S
H440 C465 0.951 . S
H441 C467 0.950 . S
H442 C468 0.950 1_554 S
H443 C470 0.950 . S
H444 C473 0.950 . S
H445 C474 0.950 . S
H446 C476 0.950 . S
H447 C477 0.950 . S
C448 H430 0.951 . S
C448 C449 1.366 . S
C448 C450 1.388 . S
C449 C448 1.366 . S
C449 C453 1.385 . S
C450 H431 0.951 . S
C450 C448 1.388 . S
C450 C451 1.366 . S
C451 C450 1.366 . S
C451 C452 1.414 . S
C451 C454 1.499 . S
C452 H432 0.950 . S
C452 C451 1.414 . S
C452 C453 1.374 . S
C453 H433 0.950 . S
C453 C449 1.385 . S
C453 C452 1.374 . S
C454 C451 1.499 . S
C454 C455 1.373 . S
C454 C456 1.389 . S
C455 H434 0.950 . S
C455 C454 1.373 . S
C455 C471 1.377 . S
C456 C454 1.389 . S
C456 C457 1.524 . S
C456 C470 1.377 . S
C457 C456 1.524 . S
C457 C458 1.397 . S
C457 C462 1.363 . S
C458 H435 0.950 . S
C458 C457 1.397 . S
C458 C459 1.334 . S
C459 H436 0.950 . S
C459 C458 1.334 . S
C459 C460 1.287 . S
C460 C459 1.287 . S
C460 C461 1.524 . S
C460 H479 0.913 . S
C461 H437 0.950 . S
C461 C460 1.524 . S
C461 C462 1.415 . S
C462 H438 0.950 . S
C462 C457 1.363 . S
C462 C461 1.415 . S
C463 H439 0.951 . S
C463 C464 1.366 . S
C463 C465 1.388 . S
C464 C463 1.366 . S
C464 C468 1.384 . S
C465 H440 0.951 . S
C465 C463 1.388 . S
C465 C466 1.366 . S
C466 C465 1.366 . S
C466 C467 1.414 . S
C466 C469 1.499 . S
C467 H441 0.950 . S
C467 C466 1.414 . S
C467 C468 1.374 . S
C468 H442 0.950 1_556 S
C468 C464 1.384 . S
C468 C467 1.374 . S
C469 C466 1.499 . S
C469 C470 1.373 . S
C469 C471 1.389 . S
C470 H443 0.950 . S
C470 C456 1.377 . S
C470 C469 1.373 . S
C471 C455 1.377 . S
C471 C469 1.389 . S
C471 C472 1.524 . S
C472 C471 1.524 . S
C472 C473 1.397 . S
C472 C477 1.363 . S
C473 H444 0.950 . S
C473 C472 1.397 . S
C473 C474 1.334 . S
C474 H445 0.950 . S
C474 C473 1.334 . S
C474 C475 1.287 . S
C475 C474 1.287 . S
C475 C476 1.524 . S
C475 H478 0.999 . S
C476 H446 0.950 . S
C476 C475 1.524 . S
C476 C477 1.415 . S
C477 H447 0.950 . S
C477 C472 1.363 . S
C477 C476 1.415 . S
H478 C475 0.999 . S
H479 C460 0.913 . S
H480 C498 0.951 . S
H481 C500 0.951 . S
H482 C502 0.950 . S
H483 C503 0.950 . S
H484 C505 0.950 . S
H485 C508 0.950 . S
H486 C509 0.950 . S
H487 C511 0.950 . S
H488 C512 0.950 . S
H489 C513 0.951 . S
H490 C515 0.951 . S
H491 C517 0.950 1_554 S
H492 C518 0.950 . S
H493 C520 0.950 . S
H494 C523 0.950 . S
H495 C524 0.950 1_556 S
H496 C526 0.950 . S
H497 C527 0.950 . S
C498 H480 0.951 . S
C498 C499 1.366 . S
C498 C500 1.388 . S
C499 C498 1.366 . S
C499 C503 1.385 . S
C500 H481 0.951 . S
C500 C498 1.388 . S
C500 C501 1.366 . S
C501 C500 1.366 . S
C501 C502 1.414 . S
C501 C504 1.499 . S
C502 H482 0.950 . S
C502 C501 1.414 . S
C502 C503 1.374 . S
C503 H483 0.950 . S
C503 C499 1.385 . S
C503 C502 1.374 . S
C504 C501 1.499 . S
C504 C505 1.373 . S
C504 C506 1.389 . S
C505 H484 0.950 . S
C505 C504 1.373 . S
C505 C521 1.377 . S
C506 C504 1.389 . S
C506 C507 1.524 . S
C506 C520 1.377 . S
C507 C506 1.524 . S
C507 C508 1.397 . S
C507 C512 1.363 . S
C508 H485 0.950 . S
C508 C507 1.397 . S
C508 C509 1.334 . S
C509 H486 0.950 . S
C509 C508 1.334 . S
C509 C510 1.287 . S
C510 C509 1.287 . S
C510 C511 1.524 . S
C510 H529 0.913 . S
C511 H487 0.950 . S
C511 C510 1.524 . S
C511 C512 1.415 . S
C512 H488 0.950 . S
C512 C507 1.363 . S
C512 C511 1.415 . S
C513 H489 0.951 . S
C513 C514 1.366 . S
C513 C515 1.388 . S
C514 C513 1.366 . S
C514 C518 1.385 . S
C515 H490 0.951 . S
C515 C513 1.388 . S
C515 C516 1.366 1_556 S
C516 C515 1.366 1_554 S
C516 C517 1.414 1_554 S
C516 C519 1.499 . S
C517 H491 0.950 1_556 S
C517 C516 1.414 1_556 S
C517 C518 1.374 . S
C518 H492 0.950 . S
C518 C514 1.385 . S
C518 C517 1.374 . S
C519 C516 1.499 . S
C519 C520 1.373 . S
C519 C521 1.389 . S
C520 H493 0.950 . S
C520 C506 1.377 . S
C520 C519 1.373 . S
C521 C505 1.377 . S
C521 C519 1.389 . S
C521 C522 1.524 . S
C522 C521 1.524 . S
C522 C523 1.397 . S
C522 C527 1.363 . S
C523 H494 0.950 . S
C523 C522 1.397 . S
C523 C524 1.334 . S
C524 H495 0.950 1_554 S
C524 C523 1.334 . S
C524 C525 1.287 . S
C525 C524 1.287 . S
C525 C526 1.524 . S
C525 H528 0.999 . S
C526 H496 0.950 . S
C526 C525 1.524 . S
C526 C527 1.415 . S
C527 H497 0.950 . S
C527 C522 1.363 . S
C527 C526 1.415 . S
H528 C525 0.999 . S
H529 C510 0.913 . S
H530 C548 0.951 . S
H531 C550 0.951 . S
H532 C552 0.950 . S
H533 C553 0.950 . S
H534 C555 0.950 . S
H535 C558 0.950 . S
H536 C559 0.950 . S
H537 C561 0.950 1_455 S
H538 C562 0.950 . S
H539 C563 0.951 . S
H540 C565 0.951 . S
H541 C567 0.950 1_554 S
H542 C568 0.950 . S
H543 C570 0.950 . S
H544 C573 0.950 . S
H545 C574 0.950 . S
H546 C576 0.950 . S
H547 C577 0.950 . S
C548 H530 0.951 . S
C548 C549 1.366 . S
C548 C550 1.388 . S
C549 C548 1.366 . S
C549 C553 1.385 . S
C550 H531 0.951 . S
C550 C548 1.388 . S
C550 C551 1.366 . S
C551 C550 1.366 . S
C551 C552 1.414 . S
C551 C554 1.499 . S
C552 H532 0.950 . S
C552 C551 1.414 . S
C552 C553 1.374 . S
C553 H533 0.950 . S
C553 C549 1.385 . S
C553 C552 1.374 . S
C554 C551 1.499 . S
C554 C555 1.373 . S
C554 C556 1.389 . S
C555 H534 0.950 . S
C555 C554 1.373 . S
C555 C571 1.377 . S
C556 C554 1.389 . S
C556 C557 1.524 . S
C556 C570 1.377 . S
C557 C556 1.524 . S
C557 C558 1.397 . S
C557 C562 1.363 . S
C558 H535 0.950 . S
C558 C557 1.397 . S
C558 C559 1.334 . S
C559 H536 0.950 . S
C559 C558 1.334 . S
C559 C560 1.287 . S
C560 C559 1.287 . S
C560 C561 1.524 . S
C560 H579 0.913 . S
C561 H537 0.950 1_655 S
C561 C560 1.524 . S
C561 C562 1.415 . S
C562 H538 0.950 . S
C562 C557 1.363 . S
C562 C561 1.415 . S
C563 H539 0.951 . S
C563 C564 1.366 . S
C563 C565 1.388 . S
C564 C563 1.366 . S
C564 C568 1.385 . S
C565 H540 0.951 . S
C565 C563 1.388 . S
C565 C566 1.366 1_556 S
C566 C565 1.366 1_554 S
C566 C567 1.414 1_554 S
C566 C569 1.499 . S
C567 H541 0.950 1_556 S
C567 C566 1.414 1_556 S
C567 C568 1.374 . S
C568 H542 0.950 . S
C568 C564 1.385 . S
C568 C567 1.374 . S
C569 C566 1.499 . S
C569 C570 1.373 . S
C569 C571 1.389 . S
C570 H543 0.950 . S
C570 C556 1.377 . S
C570 C569 1.373 . S
C571 C555 1.377 . S
C571 C569 1.389 . S
C571 C572 1.524 . S
C572 C571 1.524 . S
C572 C573 1.397 . S
C572 C577 1.363 . S
C573 H544 0.950 . S
C573 C572 1.397 . S
C573 C574 1.334 1_554 S
C574 H545 0.950 . S
C574 C573 1.334 1_556 S
C574 C575 1.287 1_556 S
C575 C574 1.287 1_554 S
C575 C576 1.524 . S
C575 H578 0.999 1_554 S
C576 H546 0.950 . S
C576 C575 1.524 . S
C576 C577 1.415 . S
C577 H547 0.950 . S
C577 C572 1.363 . S
C577 C576 1.415 . S
H578 C575 0.999 1_556 S
H579 C560 0.913 . S
H580 C598 0.951 . S
H581 C600 0.951 . S
H582 C602 0.950 . S
H583 C603 0.950 . S
H584 C605 0.950 . S
H585 C608 0.950 . S
H586 C609 0.950 . S
H587 C611 0.950 . S
H588 C612 0.950 . S
H589 C613 0.951 . S
H590 C615 0.951 . S
H591 C617 0.950 1_554 S
H592 C618 0.950 . S
H593 C620 0.950 . S
H594 C623 0.950 . S
H595 C624 0.950 1_556 S
H596 C626 0.950 . S
H597 C627 0.950 . S
C598 H580 0.951 . S
C598 C599 1.366 . S
C598 C600 1.388 . S
C599 C598 1.366 . S
C599 C603 1.385 . S
C600 H581 0.951 . S
C600 C598 1.388 . S
C600 C601 1.366 . S
C601 C600 1.366 . S
C601 C602 1.414 . S
C601 C604 1.499 . S
C602 H582 0.950 . S
C602 C601 1.414 . S
C602 C603 1.374 . S
C603 H583 0.950 . S
C603 C599 1.385 . S
C603 C602 1.374 . S
C604 C601 1.499 . S
C604 C605 1.373 . S
C604 C606 1.389 . S
C605 H584 0.950 . S
C605 C604 1.373 . S
C605 C621 1.377 . S
C606 C604 1.389 . S
C606 C607 1.524 . S
C606 C620 1.377 . S
C607 C606 1.524 . S
C607 C608 1.397 . S
C607 C612 1.363 . S
C608 H585 0.950 . S
C608 C607 1.397 . S
C608 C609 1.334 . S
C609 H586 0.950 . S
C609 C608 1.334 . S
C609 C610 1.287 . S
C610 C609 1.287 . S
C610 C611 1.524 . S
C610 H629 0.913 . S
C611 H587 0.950 . S
C611 C610 1.524 . S
C611 C612 1.415 . S
C612 H588 0.950 . S
C612 C607 1.363 . S
C612 C611 1.415 . S
C613 H589 0.951 . S
C613 C614 1.366 . S
C613 C615 1.388 . S
C614 C613 1.366 . S
C614 C618 1.385 . S
C615 H590 0.951 . S
C615 C613 1.388 . S
C615 C616 1.366 1_556 S
C616 C615 1.366 1_554 S
C616 C617 1.414 1_554 S
C616 C619 1.499 . S
C617 H591 0.950 1_556 S
C617 C616 1.414 1_556 S
C617 C618 1.374 . S
C618 H592 0.950 . S
C618 C614 1.385 . S
C618 C617 1.374 . S
C619 C616 1.499 . S
C619 C620 1.373 . S
C619 C621 1.389 . S
C620 H593 0.950 . S
C620 C606 1.377 . S
C620 C619 1.373 . S
C621 C605 1.377 . S
C621 C619 1.389 . S
C621 C622 1.524 . S
C622 C621 1.524 . S
C622 C623 1.397 . S
C622 C627 1.363 . S
C623 H594 0.950 . S
C623 C622 1.397 . S
C623 C624 1.334 . S
C624 H595 0.950 1_554 S
C624 C623 1.334 . S
C624 C625 1.287 . S
C625 C624 1.287 . S
C625 C626 1.524 . S
C625 H628 0.999 . S
C626 H596 0.950 . S
C626 C625 1.524 . S
C626 C627 1.415 . S
C627 H597 0.950 . S
C627 C622 1.363 . S
C627 C626 1.415 . S
H628 C625 0.999 . S
H629 C610 0.913 . S
H630 C648 0.951 . S
H631 C650 0.951 . S
H632 C652 0.950 . S
H633 C653 0.950 . S
H634 C655 0.950 . S
H635 C658 0.950 . S
H636 C659 0.950 . S
H637 C661 0.950 . S
H638 C662 0.950 . S
H639 C663 0.951 . S
H640 C665 0.951 . S
H641 C667 0.950 . S
H642 C668 0.950 . S
H643 C670 0.950 . S
H644 C673 0.950 1_554 S
H645 C674 0.950 . S
H646 C676 0.950 . S
H647 C677 0.950 . S
C648 H630 0.951 . S
C648 C649 1.366 . S
C648 C650 1.388 . S
C649 C648 1.366 . S
C649 C653 1.385 . S
C650 H631 0.951 . S
C650 C648 1.388 . S
C650 C651 1.366 . S
C651 C650 1.366 . S
C651 C652 1.414 . S
C651 C654 1.499 . S
C652 H632 0.950 . S
C652 C651 1.414 . S
C652 C653 1.374 . S
C653 H633 0.950 . S
C653 C649 1.385 . S
C653 C652 1.374 . S
C654 C651 1.499 . S
C654 C655 1.373 . S
C654 C656 1.389 . S
C655 H634 0.950 . S
C655 C654 1.373 . S
C655 C671 1.377 . S
C656 C654 1.389 . S
C656 C657 1.524 . S
C656 C670 1.377 . S
C657 C656 1.524 . S
C657 C658 1.397 . S
C657 C662 1.363 . S
C658 H635 0.950 . S
C658 C657 1.397 . S
C658 C659 1.334 . S
C659 H636 0.950 . S
C659 C658 1.334 . S
C659 C660 1.287 . S
C660 C659 1.287 . S
C660 C661 1.524 . S
C660 H679 0.913 . S
C661 H637 0.950 . S
C661 C660 1.524 . S
C661 C662 1.415 . S
C662 H638 0.950 . S
C662 C657 1.363 . S
C662 C661 1.415 . S
C663 H639 0.951 . S
C663 C664 1.366 . S
C663 C665 1.388 . S
C664 C663 1.366 . S
C664 C668 1.385 . S
C665 H640 0.951 . S
C665 C663 1.388 . S
C665 C666 1.366 . S
C666 C665 1.366 . S
C666 C667 1.414 . S
C666 C669 1.499 . S
C667 H641 0.950 . S
C667 C666 1.414 . S
C667 C668 1.374 . S
C668 H642 0.950 . S
C668 C664 1.385 . S
C668 C667 1.374 . S
C669 C666 1.499 . S
C669 C670 1.373 . S
C669 C671 1.389 . S
C670 H643 0.950 . S
C670 C656 1.377 . S
C670 C669 1.373 . S
C671 C655 1.377 . S
C671 C669 1.389 . S
C671 C672 1.524 1_554 S
C672 C671 1.524 1_556 S
C672 C673 1.397 . S
C672 C677 1.363 . S
C673 H644 0.950 1_556 S
C673 C672 1.397 . S
C673 C674 1.334 . S
C674 H645 0.950 . S
C674 C673 1.334 . S
C674 C675 1.287 . S
C675 C674 1.287 . S
C675 C676 1.524 . S
C675 H678 0.999 . S
C676 H646 0.950 . S
C676 C675 1.524 . S
C676 C677 1.415 . S
C677 H647 0.950 . S
C677 C672 1.363 . S
C677 C676 1.415 . S
H678 C675 0.999 . S
H679 C660 0.913 . S
H680 C698 0.951 . S
H681 C700 0.951 . S
H682 C702 0.950 . S
H683 C703 0.950 . S
H684 C705 0.950 . S
H685 C708 0.950 . S
H686 C709 0.950 . S
H687 C711 0.950 . S
H688 C712 0.950 . S
H689 C713 0.951 . S
H690 C715 0.951 . S
H691 C717 0.950 . S
H692 C718 0.950 . S
H693 C720 0.950 . S
H694 C723 0.950 . S
H695 C724 0.950 . S
H696 C726 0.950 . S
H697 C727 0.950 . S
C698 H680 0.951 . S
C698 C699 1.366 . S
C698 C700 1.388 . S
C699 C698 1.366 . S
C699 C703 1.385 . S
C700 H681 0.951 . S
C700 C698 1.388 . S
C700 C701 1.366 . S
C701 C700 1.366 . S
C701 C702 1.414 . S
C701 C704 1.499 . S
C702 H682 0.950 . S
C702 C701 1.414 . S
C702 C703 1.374 . S
C703 H683 0.950 . S
C703 C699 1.385 . S
C703 C702 1.374 . S
C704 C701 1.499 . S
C704 C705 1.373 . S
C704 C706 1.389 . S
C705 H684 0.950 . S
C705 C704 1.373 . S
C705 C721 1.377 . S
C706 C704 1.389 . S
C706 C707 1.524 . S
C706 C720 1.377 . S
C707 C706 1.524 . S
C707 C708 1.397 . S
C707 C712 1.363 . S
C708 H685 0.950 . S
C708 C707 1.397 . S
C708 C709 1.334 . S
C709 H686 0.950 . S
C709 C708 1.334 . S
C709 C710 1.287 . S
C710 C709 1.287 . S
C710 C711 1.524 . S
C710 H729 0.913 . S
C711 H687 0.950 . S
C711 C710 1.524 . S
C711 C712 1.415 . S
C712 H688 0.950 . S
C712 C707 1.363 . S
C712 C711 1.415 . S
C713 H689 0.951 . S
C713 C714 1.366 . S
C713 C715 1.388 . S
C714 C713 1.366 . S
C714 C718 1.385 . S
C715 H690 0.951 . S
C715 C713 1.388 . S
C715 C716 1.366 . S
C716 C715 1.366 . S
C716 C717 1.414 . S
C716 C719 1.499 . S
C717 H691 0.950 . S
C717 C716 1.414 . S
C717 C718 1.374 . S
C718 H692 0.950 . S
C718 C714 1.385 . S
C718 C717 1.374 . S
C719 C716 1.499 . S
C719 C720 1.373 . S
C719 C721 1.389 . S
C720 H693 0.950 . S
C720 C706 1.377 . S
C720 C719 1.373 . S
C721 C705 1.377 . S
C721 C719 1.389 . S
C721 C722 1.524 . S
C722 C721 1.524 . S
C722 C723 1.397 . S
C722 C727 1.363 . S
C723 H694 0.950 . S
C723 C722 1.397 . S
C723 C724 1.334 . S
C724 H695 0.950 . S
C724 C723 1.334 . S
C724 C725 1.287 . S
C725 C724 1.287 . S
C725 C726 1.524 . S
C725 H728 0.999 . S
C726 H696 0.950 . S
C726 C725 1.524 . S
C726 C727 1.415 . S
C727 H697 0.950 . S
C727 C722 1.363 . S
C727 C726 1.415 . S
H728 C725 0.999 . S
H729 C710 0.913 . S
H730 C748 0.951 1_545 S
H731 C750 0.951 . S
H732 C752 0.950 . S
H733 C753 0.950 . S
H734 C755 0.950 . S
H735 C758 0.950 . S
H736 C759 0.950 . S
H737 C761 0.950 . S
H738 C762 0.950 1_565 S
H739 C763 0.951 . S
H740 C765 0.951 . S
H741 C767 0.950 . S
H742 C768 0.950 . S
H743 C770 0.950 . S
H744 C773 0.950 . S
H745 C774 0.950 1_556 S
H746 C776 0.950 . S
H747 C777 0.950 . S
C748 H730 0.951 1_565 S
C748 C749 1.366 . S
C748 C750 1.388 . S
C749 C748 1.366 . S
C749 C753 1.385 . S
C750 H731 0.951 . S
C750 C748 1.388 . S
C750 C751 1.366 . S
C751 C750 1.366 . S
C751 C752 1.414 . S
C751 C754 1.499 . S
C752 H732 0.950 . S
C752 C751 1.414 . S
C752 C753 1.374 . S
C753 H733 0.950 . S
C753 C749 1.385 . S
C753 C752 1.374 . S
C754 C751 1.499 . S
C754 C755 1.373 . S
C754 C756 1.389 . S
C755 H734 0.950 . S
C755 C754 1.373 . S
C755 C771 1.377 . S
C756 C754 1.389 . S
C756 C757 1.524 . S
C756 C770 1.377 . S
C757 C756 1.524 . S
C757 C758 1.397 . S
C757 C762 1.363 1_565 S
C758 H735 0.950 . S
C758 C757 1.397 . S
C758 C759 1.334 1_565 S
C759 H736 0.950 . S
C759 C758 1.334 1_545 S
C759 C760 1.287 . S
C760 C759 1.287 . S
C760 C761 1.524 . S
C760 H779 0.913 . S
C761 H737 0.950 . S
C761 C760 1.524 . S
C761 C762 1.415 . S
C762 H738 0.950 1_545 S
C762 C757 1.363 1_545 S
C762 C761 1.415 . S
C763 H739 0.951 . S
C763 C764 1.366 . S
C763 C765 1.388 . S
C764 C763 1.366 . S
C764 C768 1.385 . S
C765 H740 0.951 . S
C765 C763 1.388 . S
C765 C766 1.366 . S
C766 C765 1.366 . S
C766 C767 1.414 . S
C766 C769 1.499 . S
C767 H741 0.950 . S
C767 C766 1.414 . S
C767 C768 1.374 . S
C768 H742 0.950 . S
C768 C764 1.385 . S
C768 C767 1.374 . S
C769 C766 1.499 . S
C769 C770 1.373 . S
C769 C771 1.389 . S
C770 H743 0.950 . S
C770 C756 1.377 . S
C770 C769 1.373 . S
C771 C755 1.377 . S
C771 C769 1.389 . S
C771 C772 1.524 . S
C772 C771 1.524 . S
C772 C773 1.397 . S
C772 C777 1.363 . S
C773 H744 0.950 . S
C773 C772 1.397 . S
C773 C774 1.334 . S
C774 H745 0.950 1_554 S
C774 C773 1.334 . S
C774 C775 1.287 . S
C775 C774 1.287 . S
C775 C776 1.524 . S
C775 H778 0.999 . S
C776 H746 0.950 . S
C776 C775 1.524 . S
C776 C777 1.415 . S
C777 H747 0.950 . S
C777 C772 1.363 . S
C777 C776 1.415 . S
H778 C775 0.999 . S
H779 C760 0.913 . S
H780 C798 0.951 . S
H781 C800 0.951 1_556 S
H782 C802 0.950 . S
H783 C803 0.950 . S
H784 C805 0.950 . S
H785 C808 0.950 1_554 S
H786 C809 0.950 1_554 S
H787 C811 0.950 . S
H788 C812 0.950 . S
H789 C813 0.951 . S
H790 C815 0.951 . S
H791 C817 0.950 . S
H792 C818 0.950 . S
H793 C820 0.950 . S
H794 C823 0.950 . S
H795 C824 0.950 . S
H796 C826 0.950 . S
H797 C827 0.950 . S
C798 H780 0.951 . S
C798 C799 1.366 . S
C798 C800 1.388 . S
C799 C798 1.366 . S
C799 C803 1.385 . S
C800 H781 0.951 1_554 S
C800 C798 1.388 . S
C800 C801 1.366 . S
C801 C800 1.366 . S
C801 C802 1.414 . S
C801 C804 1.499 . S
C802 H782 0.950 . S
C802 C801 1.414 . S
C802 C803 1.374 . S
C803 H783 0.950 . S
C803 C799 1.385 . S
C803 C802 1.374 . S
C804 C801 1.499 . S
C804 C805 1.373 . S
C804 C806 1.389 1_554 S
C805 H784 0.950 . S
C805 C804 1.373 . S
C805 C821 1.377 1_554 S
C806 C804 1.389 1_556 S
C806 C807 1.524 . S
C806 C820 1.377 . S
C807 C806 1.524 . S
C807 C808 1.397 . S
C807 C812 1.363 . S
C808 H785 0.950 1_556 S
C808 C807 1.397 . S
C808 C809 1.334 . S
C809 H786 0.950 1_556 S
C809 C808 1.334 . S
C809 C810 1.287 . S
C810 C809 1.287 . S
C810 C811 1.524 . S
C810 H829 0.913 . S
C811 H787 0.950 . S
C811 C810 1.524 . S
C811 C812 1.415 . S
C812 H788 0.950 . S
C812 C807 1.363 . S
C812 C811 1.415 . S
C813 H789 0.951 . S
C813 C814 1.366 . S
C813 C815 1.388 . S
C814 C813 1.366 . S
C814 C818 1.385 . S
C815 H790 0.951 . S
C815 C813 1.388 . S
C815 C816 1.366 . S
C816 C815 1.366 . S
C816 C817 1.414 . S
C816 C819 1.499 . S
C817 H791 0.950 . S
C817 C816 1.414 . S
C817 C818 1.374 . S
C818 H792 0.950 . S
C818 C814 1.385 . S
C818 C817 1.374 . S
C819 C816 1.499 . S
C819 C820 1.373 . S
C819 C821 1.389 . S
C820 H793 0.950 . S
C820 C806 1.377 . S
C820 C819 1.373 . S
C821 C805 1.377 1_556 S
C821 C819 1.389 . S
C821 C822 1.524 . S
C822 C821 1.524 . S
C822 C823 1.397 . S
C822 C827 1.363 1_556 S
C823 H794 0.950 . S
C823 C822 1.397 . S
C823 C824 1.334 . S
C824 H795 0.950 . S
C824 C823 1.334 . S
C824 C825 1.287 1_556 S
C825 C824 1.287 1_554 S
C825 C826 1.524 . S
C825 H828 0.999 . S
C826 H796 0.950 . S
C826 C825 1.524 . S
C826 C827 1.415 . S
C827 H797 0.950 . S
C827 C822 1.363 1_554 S
C827 C826 1.415 . S
H828 C825 0.999 . S
H829 C810 0.913 . S
H830 C848 0.951 . S
H831 C850 0.951 . S
H832 C852 0.950 . S
H833 C853 0.950 . S
H834 C855 0.950 . S
H835 C858 0.950 . S
H836 C859 0.950 . S
H837 C861 0.950 . S
H838 C862 0.950 . S
H839 C863 0.951 . S
H840 C865 0.951 1_554 S
H841 C867 0.939 1_455 S
H842 C868 0.950 . S
H843 C870 0.950 1_455 S
H844 C873 0.950 . S
H845 C874 0.950 . S
H846 C876 0.950 . S
H847 C877 0.950 . S
C848 H830 0.951 . S
C848 C849 1.366 . S
C848 C850 1.388 . S
C849 C848 1.366 . S
C849 C853 1.385 . S
C850 H831 0.951 . S
C850 C848 1.388 . S
C850 C851 1.366 . S
C851 C850 1.366 . S
C851 C852 1.414 . S
C851 C854 1.499 . S
C852 H832 0.950 . S
C852 C851 1.414 . S
C852 C853 1.374 . S
C853 H833 0.950 . S
C853 C849 1.385 . S
C853 C852 1.374 . S
C854 C851 1.499 . S
C854 C855 1.373 . S
C854 C856 1.389 . S
C855 H834 0.950 . S
C855 C854 1.373 . S
C855 C871 1.377 . S
C856 C854 1.389 . S
C856 C857 1.513 1_655 S
C856 C870 1.377 . S
C857 C856 1.513 1_455 S
C857 C858 1.399 1_455 S
C857 C862 1.371 . S
C858 H835 0.950 . S
C858 C857 1.399 1_655 S
C858 C859 1.334 1_655 S
C859 H836 0.950 . S
C859 C858 1.334 1_455 S
C859 C860 1.287 . S
C860 C859 1.287 . S
C860 C861 1.524 . S
C860 H879 0.913 . S
C861 H837 0.950 . S
C861 C860 1.524 . S
C861 C862 1.415 . S
C862 H838 0.950 . S
C862 C857 1.371 . S
C862 C861 1.415 . S
C863 H839 0.951 . S
C863 C864 1.366 . S
C863 C865 1.388 1_554 S
C864 C863 1.366 . S
C864 C868 1.385 1_654 S
C865 H840 0.951 1_556 S
C865 C863 1.388 1_556 S
C865 C866 1.366 . S
C866 C865 1.366 . S
C866 C867 1.422 . S
C866 C869 1.499 . S
C867 H841 0.939 1_655 S
C867 C866 1.422 . S
C867 C868 1.377 1_655 S
C868 H842 0.950 . S
C868 C864 1.385 1_456 S
C868 C867 1.377 1_455 S
C869 C866 1.499 . S
C869 C870 1.373 . S
C869 C871 1.389 . S
C870 H843 0.950 1_655 S
C870 C856 1.377 . S
C870 C869 1.373 . S
C871 C855 1.377 . S
C871 C869 1.389 . S
C871 C872 1.524 . S
C872 C871 1.524 . S
C872 C873 1.397 . S
C872 C877 1.363 . S
C873 H844 0.950 . S
C873 C872 1.397 . S
C873 C874 1.334 . S
C874 H845 0.950 . S
C874 C873 1.334 . S
C874 C875 1.287 . S
C875 C874 1.287 . S
C875 C876 1.524 . S
C875 H878 0.999 . S
C876 H846 0.950 . S
C876 C875 1.524 . S
C876 C877 1.415 . S
C877 H847 0.950 . S
C877 C872 1.363 . S
C877 C876 1.415 . S
H878 C875 0.999 . S
H879 C860 0.913 . S
H880 C898 0.951 . S
H881 C900 0.951 . S
H882 C902 0.950 . S
H883 C903 0.950 . S
H884 C905 0.950 . S
H885 C908 0.950 . S
H886 C909 0.950 . S
H887 C911 0.950 . S
H888 C912 0.950 . S
H889 C913 0.951 . S
H890 C915 0.951 . S
H891 C917 0.950 . S
H892 C918 0.950 . S
H893 C920 0.950 . S
H894 C923 0.950 . S
H895 C924 0.950 . S
H896 C926 0.950 . S
H897 C927 0.950 . S
C898 H880 0.951 . S
C898 C899 1.366 . S
C898 C900 1.388 . S
C899 C898 1.366 . S
C899 C903 1.385 . S
C900 H881 0.951 . S
C900 C898 1.388 . S
C900 C901 1.366 . S
C901 C900 1.366 . S
C901 C902 1.414 . S
C901 C904 1.499 . S
C902 H882 0.950 . S
C902 C901 1.414 . S
C902 C903 1.374 . S
C903 H883 0.950 . S
C903 C899 1.385 . S
C903 C902 1.374 . S
C904 C901 1.499 . S
C904 C905 1.373 . S
C904 C906 1.389 . S
C905 H884 0.950 . S
C905 C904 1.373 . S
C905 C921 1.377 . S
C906 C904 1.389 . S
C906 C907 1.524 . S
C906 C920 1.377 . S
C907 C906 1.524 . S
C907 C908 1.397 . S
C907 C912 1.363 . S
C908 H885 0.950 . S
C908 C907 1.397 . S
C908 C909 1.334 . S
C909 H886 0.950 . S
C909 C908 1.334 . S
C909 C910 1.287 . S
C910 C909 1.287 . S
C910 C911 1.524 . S
C910 H929 0.913 . S
C911 H887 0.950 . S
C911 C910 1.524 . S
C911 C912 1.415 . S
C912 H888 0.950 . S
C912 C907 1.363 . S
C912 C911 1.415 . S
C913 H889 0.951 . S
C913 C914 1.366 . S
C913 C915 1.388 . S
C914 C913 1.366 . S
C914 C918 1.385 . S
C915 H890 0.951 . S
C915 C913 1.388 . S
C915 C916 1.366 1_554 S
C916 C915 1.366 1_556 S
C916 C917 1.414 . S
C916 C919 1.499 . S
C917 H891 0.950 . S
C917 C916 1.414 . S
C917 C918 1.374 1_556 S
C918 H892 0.950 . S
C918 C914 1.385 . S
C918 C917 1.374 1_554 S
C919 C916 1.499 . S
C919 C920 1.373 . S
C919 C921 1.389 . S
C920 H893 0.950 . S
C920 C906 1.377 . S
C920 C919 1.373 . S
C921 C905 1.377 . S
C921 C919 1.389 . S
C921 C922 1.524 1_556 S
C922 C921 1.524 1_554 S
C922 C923 1.397 . S
C922 C927 1.363 . S
C923 H894 0.950 . S
C923 C922 1.397 . S
C923 C924 1.334 . S
C924 H895 0.950 . S
C924 C923 1.334 . S
C924 C925 1.287 . S
C925 C924 1.287 . S
C925 C926 1.524 . S
C925 H928 0.999 . S
C926 H896 0.950 . S
C926 C925 1.524 . S
C926 C927 1.415 . S
C927 H897 0.950 . S
C927 C922 1.363 . S
C927 C926 1.415 . S
H928 C925 0.999 . S
H929 C910 0.913 . S
H930 C948 0.951 . S
H931 C950 0.951 . S
H932 C952 0.950 . S
H933 C953 0.950 . S
H934 C955 0.950 . S
H935 C958 0.950 . S
H936 C959 0.950 . S
H937 C961 0.950 . S
H938 C962 0.950 . S
H939 C963 0.951 . S
H940 C965 0.951 . S
H941 C967 0.950 . S
H942 C968 0.950 1_554 S
H943 C970 0.950 1_455 S
H944 C973 0.950 . S
H945 C974 0.950 . S
H946 C976 0.950 . S
H947 C977 0.950 1_556 S
C948 H930 0.951 . S
C948 C949 1.366 . S
C948 C950 1.388 . S
C949 C948 1.366 . S
C949 C953 1.385 . S
C950 H931 0.951 . S
C950 C948 1.388 . S
C950 C951 1.366 . S
C951 C950 1.366 . S
C951 C952 1.414 . S
C951 C954 1.499 . S
C952 H932 0.950 . S
C952 C951 1.414 . S
C952 C953 1.374 . S
C953 H933 0.950 . S
C953 C949 1.385 . S
C953 C952 1.374 . S
C954 C951 1.499 . S
C954 C955 1.373 . S
C954 C956 1.389 . S
C955 H934 0.950 . S
C955 C954 1.373 . S
C955 C971 1.377 . S
C956 C954 1.389 . S
C956 C957 1.524 . S
C956 C970 1.377 . S
C957 C956 1.524 . S
C957 C958 1.397 . S
C957 C962 1.363 1_655 S
C958 H935 0.950 . S
C958 C957 1.397 . S
C958 C959 1.334 . S
C959 H936 0.950 . S
C959 C958 1.334 . S
C959 C960 1.287 1_655 S
C960 C959 1.287 1_455 S
C960 C961 1.524 . S
C960 H979 0.913 . S
C961 H937 0.950 . S
C961 C960 1.524 . S
C961 C962 1.415 . S
C962 H938 0.950 . S
C962 C957 1.363 1_455 S
C962 C961 1.415 . S
C963 H939 0.951 . S
C963 C964 1.366 1_656 S
C963 C965 1.388 . S
C964 C963 1.366 1_454 S
C964 C968 1.385 1_554 S
C965 H940 0.951 . S
C965 C963 1.388 . S
C965 C966 1.366 . S
C966 C965 1.366 . S
C966 C967 1.414 1_655 S
C966 C969 1.499 . S
C967 H941 0.950 . S
C967 C966 1.414 1_455 S
C967 C968 1.374 . S
C968 H942 0.950 1_556 S
C968 C964 1.385 1_556 S
C968 C967 1.374 . S
C969 C966 1.499 . S
C969 C970 1.373 . S
C969 C971 1.389 . S
C970 H943 0.950 1_655 S
C970 C956 1.377 . S
C970 C969 1.373 . S
C971 C955 1.377 . S
C971 C969 1.389 . S
C971 C972 1.524 1_556 S
C972 C971 1.524 1_554 S
C972 C973 1.397 . S
C972 C977 1.363 . S
C973 H944 0.950 . S
C973 C972 1.397 . S
C973 C974 1.334 . S
C974 H945 0.950 . S
C974 C973 1.334 . S
C974 C975 1.287 . S
C975 C974 1.287 . S
C975 C976 1.524 . S
C975 H978 0.999 . S
C976 H946 0.950 . S
C976 C975 1.524 . S
C976 C977 1.415 . S
C977 H947 0.950 1_554 S
C977 C972 1.363 . S
C977 C976 1.415 . S
H978 C975 0.999 . S
H979 C960 0.913 . S
H980 C998 0.951 . S
H981 C1000 0.951 . S
H982 C1002 0.950 . S
H983 C1003 0.950 . S
H984 C1005 0.950 . S
H985 C1008 0.950 . S
H986 C1009 0.950 . S
H987 C1011 0.950 . S
H988 C1012 0.950 . S
H989 C1013 0.951 . S
H990 C1015 0.951 . S
H991 C1017 0.950 . S
H992 C1018 0.950 . S
H993 C1020 0.950 . S
H994 C1023 0.950 . S
H995 C1024 0.955 . S
H996 C1026 0.950 . S
H997 C1027 0.950 . S
C998 H980 0.951 . S
C998 C999 1.366 . S
C998 C1000 1.388 . S
C999 C998 1.366 . S
C999 C1003 1.385 . S
C1000 H981 0.951 . S
C1000 C998 1.388 . S
C1000 C1001 1.366 1_554 S
C1001 C1000 1.366 1_556 S
C1001 C1002 1.414 . S
C1001 C1004 1.499 . S
C1002 H982 0.950 . S
C1002 C1001 1.414 . S
C1002 C1003 1.374 1_556 S
C1003 H983 0.950 . S
C1003 C999 1.385 . S
C1003 C1002 1.374 1_554 S
C1004 C1001 1.499 . S
C1004 C1005 1.373 . S
C1004 C1006 1.389 . S
C1005 H984 0.950 . S
C1005 C1004 1.373 . S
C1005 C1021 1.377 . S
C1006 C1004 1.389 . S
C1006 C1007 1.524 . S
C1006 C1020 1.377 . S
C1007 C1006 1.524 . S
C1007 C1008 1.397 . S
C1007 C1012 1.363 . S
C1008 H985 0.950 . S
C1008 C1007 1.397 . S
C1008 C1009 1.334 . S
C1009 H986 0.950 . S
C1009 C1008 1.334 . S
C1009 C1010 1.287 . S
C1010 C1009 1.287 . S
C1010 C1011 1.524 . S
C1010 H1029 0.913 . S
C1011 H987 0.950 . S
C1011 C1010 1.524 . S
C1011 C1012 1.415 . S
C1012 H988 0.950 . S
C1012 C1007 1.363 . S
C1012 C1011 1.415 . S
C1013 H989 0.951 . S
C1013 C1014 1.366 . S
C1013 C1015 1.388 . S
C1014 C1013 1.366 . S
C1014 C1018 1.385 . S
C1015 H990 0.951 . S
C1015 C1013 1.388 . S
C1015 C1016 1.366 . S
C1016 C1015 1.366 . S
C1016 C1017 1.414 . S
C1016 C1019 1.499 . S
C1017 H991 0.950 . S
C1017 C1016 1.414 . S
C1017 C1018 1.374 . S
C1018 H992 0.950 . S
C1018 C1014 1.385 . S
C1018 C1017 1.374 . S
C1019 C1016 1.499 . S
C1019 C1020 1.373 . S
C1019 C1021 1.389 . S
C1020 H993 0.950 . S
C1020 C1006 1.377 . S
C1020 C1019 1.373 . S
C1021 C1005 1.377 . S
C1021 C1019 1.389 . S
C1021 C1022 1.524 . S
C1022 C1021 1.524 . S
C1022 C1023 1.397 . S
C1022 C1027 1.363 . S
C1023 H994 0.950 . S
C1023 C1022 1.397 . S
C1023 C1024 1.328 1_556 S
C1024 H995 0.955 . S
C1024 C1023 1.328 1_554 S
C1024 C1025 1.288 . S
C1025 C1024 1.288 . S
C1025 C1026 1.524 1_554 S
C1025 H1028 0.999 . S
C1026 H996 0.950 . S
C1026 C1025 1.524 1_556 S
C1026 C1027 1.415 . S
C1027 H997 0.950 . S
C1027 C1022 1.363 . S
C1027 C1026 1.415 . S
H1028 C1025 0.999 . S
H1029 C1010 0.913 . S
H1030 C1048 0.951 . S
H1031 C1050 0.951 . S
H1032 C1052 0.950 . S
H1033 C1053 0.950 . S
H1034 C1055 0.950 . S
H1035 C1058 0.950 . S
H1036 C1059 0.950 . S
H1037 C1061 0.950 . S
H1038 C1062 0.950 . S
H1039 C1063 0.951 . S
H1040 C1065 0.951 . S
H1041 C1067 0.950 . S
H1042 C1068 0.950 . S
H1043 C1070 0.950 . S
H1044 C1073 0.950 . S
H1045 C1074 0.950 . S
H1046 C1076 0.950 . S
H1047 C1077 0.950 . S
C1048 H1030 0.951 . S
C1048 C1049 1.366 . S
C1048 C1050 1.388 . S
C1049 C1048 1.366 . S
C1049 C1053 1.385 . S
C1050 H1031 0.951 . S
C1050 C1048 1.388 . S
C1050 C1051 1.366 . S
C1051 C1050 1.366 . S
C1051 C1052 1.414 . S
C1051 C1054 1.499 . S
C1052 H1032 0.950 . S
C1052 C1051 1.414 . S
C1052 C1053 1.374 . S
C1053 H1033 0.950 . S
C1053 C1049 1.385 . S
C1053 C1052 1.374 . S
C1054 C1051 1.499 . S
C1054 C1055 1.373 . S
C1054 C1056 1.389 . S
C1055 H1034 0.950 . S
C1055 C1054 1.373 . S
C1055 C1071 1.377 . S
C1056 C1054 1.389 . S
C1056 C1057 1.524 . S
C1056 C1070 1.377 . S
C1057 C1056 1.524 . S
C1057 C1058 1.397 . S
C1057 C1062 1.363 . S
C1058 H1035 0.950 . S
C1058 C1057 1.397 . S
C1058 C1059 1.334 . S
C1059 H1036 0.950 . S
C1059 C1058 1.334 . S
C1059 C1060 1.287 . S
C1060 C1059 1.287 . S
C1060 C1061 1.524 . S
C1060 H1079 0.913 . S
C1061 H1037 0.950 . S
C1061 C1060 1.524 . S
C1061 C1062 1.415 . S
C1062 H1038 0.950 . S
C1062 C1057 1.363 . S
C1062 C1061 1.415 . S
C1063 H1039 0.951 . S
C1063 C1064 1.366 . S
C1063 C1065 1.388 . S
C1064 C1063 1.366 . S
C1064 C1068 1.385 . S
C1065 H1040 0.951 . S
C1065 C1063 1.388 . S
C1065 C1066 1.366 . S
C1066 C1065 1.366 . S
C1066 C1067 1.414 1_554 S
C1066 C1069 1.499 1_554 S
C1067 H1041 0.950 . S
C1067 C1066 1.414 1_556 S
C1067 C1068 1.374 1_556 S
C1068 H1042 0.950 . S
C1068 C1064 1.385 . S
C1068 C1067 1.374 1_554 S
C1069 C1066 1.499 1_556 S
C1069 C1070 1.373 . S
C1069 C1071 1.389 . S
C1070 H1043 0.950 . S
C1070 C1056 1.377 . S
C1070 C1069 1.373 . S
C1071 C1055 1.377 . S
C1071 C1069 1.389 . S
C1071 C1072 1.524 . S
C1072 C1071 1.524 . S
C1072 C1073 1.397 . S
C1072 C1077 1.363 1_556 S
C1073 H1044 0.950 . S
C1073 C1072 1.397 . S
C1073 C1074 1.334 . S
C1074 H1045 0.950 . S
C1074 C1073 1.334 . S
C1074 C1075 1.287 . S
C1075 C1074 1.287 . S
C1075 C1076 1.524 1_556 S
C1075 H1078 0.999 1_545 S
C1076 H1046 0.950 . S
C1076 C1075 1.524 1_554 S
C1076 C1077 1.415 . S
C1077 H1047 0.950 . S
C1077 C1072 1.363 1_554 S
C1077 C1076 1.415 . S
H1078 C1075 0.999 1_565 S
H1079 C1060 0.913 . S
H1080 C1098 0.951 1_545 S
H1081 C1100 0.951 . S
H1082 C1102 0.950 . S
H1083 C1103 0.950 . S
H1084 C1105 0.950 . S
H1085 C1108 0.950 . S
H1086 C1109 0.950 . S
H1087 C1111 0.950 . S
H1088 C1112 0.950 . S
H1089 C1113 0.951 . S
H1090 C1115 0.951 . S
H1091 C1117 0.950 . S
H1092 C1118 0.950 . S
H1093 C1120 0.950 . S
H1094 C1123 0.950 . S
H1095 C1124 0.950 . S
H1096 C1126 0.950 . S
H1097 C1127 0.950 . S
C1098 H1080 0.951 1_565 S
C1098 C1099 1.366 . S
C1098 C1100 1.388 . S
C1099 C1098 1.366 . S
C1099 C1103 1.385 . S
C1100 H1081 0.951 . S
C1100 C1098 1.388 . S
C1100 C1101 1.366 . S
C1101 C1100 1.366 . S
C1101 C1102 1.414 . S
C1101 C1104 1.499 . S
C1102 H1082 0.950 . S
C1102 C1101 1.414 . S
C1102 C1103 1.374 . S
C1103 H1083 0.950 . S
C1103 C1099 1.385 . S
C1103 C1102 1.374 . S
C1104 C1101 1.499 . S
C1104 C1105 1.373 . S
C1104 C1106 1.389 . S
C1105 H1084 0.950 . S
C1105 C1104 1.373 . S
C1105 C1121 1.377 . S
C1106 C1104 1.389 . S
C1106 C1107 1.524 . S
C1106 C1120 1.377 . S
C1107 C1106 1.524 . S
C1107 C1108 1.397 . S
C1107 C1112 1.363 . S
C1108 H1085 0.950 . S
C1108 C1107 1.397 . S
C1108 C1109 1.334 1_554 S
C1109 H1086 0.950 . S
C1109 C1108 1.334 1_556 S
C1109 C1110 1.287 . S
C1110 C1109 1.287 . S
C1110 C1111 1.524 . S
C1110 H1129 0.913 . S
C1111 H1087 0.950 . S
C1111 C1110 1.524 . S
C1111 C1112 1.415 1_556 S
C1112 H1088 0.950 . S
C1112 C1107 1.363 . S
C1112 C1111 1.415 1_554 S
C1113 H1089 0.951 . S
C1113 C1114 1.366 . S
C1113 C1115 1.388 . S
C1114 C1113 1.366 . S
C1114 C1118 1.385 . S
C1115 H1090 0.951 . S
C1115 C1113 1.388 . S
C1115 C1116 1.366 . S
C1116 C1115 1.366 . S
C1116 C1117 1.414 . S
C1116 C1119 1.499 . S
C1117 H1091 0.950 . S
C1117 C1116 1.414 . S
C1117 C1118 1.374 . S
C1118 H1092 0.950 . S
C1118 C1114 1.385 . S
C1118 C1117 1.374 . S
C1119 C1116 1.499 . S
C1119 C1120 1.373 . S
C1119 C1121 1.389 . S
C1120 H1093 0.950 . S
C1120 C1106 1.377 . S
C1120 C1119 1.373 . S
C1121 C1105 1.377 . S
C1121 C1119 1.389 . S
C1121 C1122 1.524 . S
C1122 C1121 1.524 . S
C1122 C1123 1.397 . S
C1122 C1127 1.363 . S
C1123 H1094 0.950 . S
C1123 C1122 1.397 . S
C1123 C1124 1.334 . S
C1124 H1095 0.950 . S
C1124 C1123 1.334 . S
C1124 C1125 1.287 . S
C1125 C1124 1.287 . S
C1125 C1126 1.524 . S
C1125 H1128 0.999 . S
C1126 H1096 0.950 . S
C1126 C1125 1.524 . S
C1126 C1127 1.415 . S
C1127 H1097 0.950 . S
C1127 C1122 1.363 . S
C1127 C1126 1.415 . S
H1128 C1125 0.999 . S
H1129 C1110 0.913 . S
H1130 C1148 0.951 . S
H1131 C1150 0.951 . S
H1132 C1152 0.950 . S
H1133 C1153 0.950 . S
H1134 C1155 0.950 . S
H1135 C1158 0.950 . S
H1136 C1159 0.950 . S
H1137 C1161 0.950 . S
H1138 C1162 0.950 . S
H1139 C1163 0.951 . S
H1140 C1165 0.951 . S
H1141 C1167 0.950 . S
H1142 C1168 0.950 . S
H1143 C1170 0.950 . S
H1144 C1173 0.950 . S
H1145 C1174 0.950 . S
H1146 C1176 0.950 . S
H1147 C1177 0.950 . S
C1148 H1130 0.951 . S
C1148 C1149 1.366 . S
C1148 C1150 1.388 . S
C1149 C1148 1.366 . S
C1149 C1153 1.385 . S
C1150 H1131 0.951 . S
C1150 C1148 1.388 . S
C1150 C1151 1.366 . S
C1151 C1150 1.366 . S
C1151 C1152 1.414 . S
C1151 C1154 1.499 . S
C1152 H1132 0.950 . S
C1152 C1151 1.414 . S
C1152 C1153 1.374 . S
C1153 H1133 0.950 . S
C1153 C1149 1.385 . S
C1153 C1152 1.374 . S
C1154 C1151 1.499 . S
C1154 C1155 1.373 . S
C1154 C1156 1.389 . S
C1155 H1134 0.950 . S
C1155 C1154 1.373 . S
C1155 C1171 1.377 . S
C1156 C1154 1.389 . S
C1156 C1157 1.524 . S
C1156 C1170 1.377 . S
C1157 C1156 1.524 . S
C1157 C1158 1.397 . S
C1157 C1162 1.363 1_554 S
C1158 H1135 0.950 . S
C1158 C1157 1.397 . S
C1158 C1159 1.334 1_554 S
C1159 H1136 0.950 . S
C1159 C1158 1.334 1_556 S
C1159 C1160 1.287 . S
C1160 C1159 1.287 . S
C1160 C1161 1.524 . S
C1160 H1179 0.913 . S
C1161 H1137 0.950 . S
C1161 C1160 1.524 . S
C1161 C1162 1.415 . S
C1162 H1138 0.950 . S
C1162 C1157 1.363 1_556 S
C1162 C1161 1.415 . S
C1163 H1139 0.951 . S
C1163 C1164 1.366 . S
C1163 C1165 1.388 . S
C1164 C1163 1.366 . S
C1164 C1168 1.385 . S
C1165 H1140 0.951 . S
C1165 C1163 1.388 . S
C1165 C1166 1.366 . S
C1166 C1165 1.366 . S
C1166 C1167 1.414 . S
C1166 C1169 1.499 . S
C1167 H1141 0.950 . S
C1167 C1166 1.414 . S
C1167 C1168 1.374 . S
C1168 H1142 0.950 . S
C1168 C1164 1.385 . S
C1168 C1167 1.374 . S
C1169 C1166 1.499 . S
C1169 C1170 1.373 . S
C1169 C1171 1.389 . S
C1170 H1143 0.950 . S
C1170 C1156 1.377 . S
C1170 C1169 1.373 . S
C1171 C1155 1.377 . S
C1171 C1169 1.389 . S
C1171 C1172 1.524 . S
C1172 C1171 1.524 . S
C1172 C1173 1.397 . S
C1172 C1177 1.363 . S
C1173 H1144 0.950 . S
C1173 C1172 1.397 . S
C1173 C1174 1.334 . S
C1174 H1145 0.950 . S
C1174 C1173 1.334 . S
C1174 C1175 1.287 . S
C1175 C1174 1.287 . S
C1175 C1176 1.524 . S
C1175 H1178 0.999 . S
C1176 H1146 0.950 . S
C1176 C1175 1.524 . S
C1176 C1177 1.415 . S
C1177 H1147 0.950 . S
C1177 C1172 1.363 . S
C1177 C1176 1.415 . S
H1178 C1175 0.999 . S
H1179 C1160 0.913 . S
H1180 C1198 0.951 . S
H1181 C1200 0.951 . S
H1182 C1202 0.950 . S
H1183 C1203 0.950 . S
H1184 C1205 0.950 . S
H1185 C1208 0.950 . S
H1186 C1209 0.950 . S
H1187 C1211 0.950 . S
H1188 C1212 0.946 1_556 S
H1189 C1213 0.951 . S
H1190 C1215 0.951 . S
H1191 C1217 0.950 . S
H1192 C1218 0.950 . S
H1193 C1220 0.950 . S
H1194 C1223 0.950 . S
H1195 C1224 0.950 . S
H1196 C1226 0.950 . S
H1197 C1227 0.950 . S
C1198 H1180 0.951 . S
C1198 C1199 1.366 . S
C1198 C1200 1.388 . S
C1199 C1198 1.366 . S
C1199 C1203 1.385 . S
C1200 H1181 0.951 . S
C1200 C1198 1.388 . S
C1200 C1201 1.366 . S
C1201 C1200 1.366 . S
C1201 C1202 1.414 . S
C1201 C1204 1.499 . S
C1202 H1182 0.950 . S
C1202 C1201 1.414 . S
C1202 C1203 1.374 . S
C1203 H1183 0.950 . S
C1203 C1199 1.385 . S
C1203 C1202 1.374 . S
C1204 C1201 1.499 . S
C1204 C1205 1.373 . S
C1204 C1206 1.389 . S
C1205 H1184 0.950 . S
C1205 C1204 1.373 . S
C1205 C1221 1.377 . S
C1206 C1204 1.389 . S
C1206 C1207 1.524 . S
C1206 C1220 1.377 . S
C1207 C1206 1.524 . S
C1207 C1208 1.397 . S
C1207 C1212 1.376 . S
C1208 H1185 0.950 . S
C1208 C1207 1.397 . S
C1208 C1209 1.334 . S
C1209 H1186 0.950 . S
C1209 C1208 1.334 . S
C1209 C1210 1.287 . S
C1210 C1209 1.287 . S
C1210 C1211 1.524 1_554 S
C1210 H1229 0.913 1_554 S
C1211 H1187 0.950 . S
C1211 C1210 1.524 1_556 S
C1211 C1212 1.406 1_556 S
C1212 H1188 0.946 1_554 S
C1212 C1207 1.376 . S
C1212 C1211 1.406 1_554 S
C1213 H1189 0.951 . S
C1213 C1214 1.366 . S
C1213 C1215 1.388 . S
C1214 C1213 1.366 . S
C1214 C1218 1.385 . S
C1215 H1190 0.951 . S
C1215 C1213 1.388 . S
C1215 C1216 1.366 . S
C1216 C1215 1.366 . S
C1216 C1217 1.414 . S
C1216 C1219 1.499 . S
C1217 H1191 0.950 . S
C1217 C1216 1.414 . S
C1217 C1218 1.374 . S
C1218 H1192 0.950 . S
C1218 C1214 1.385 . S
C1218 C1217 1.374 . S
C1219 C1216 1.499 . S
C1219 C1220 1.373 . S
C1219 C1221 1.389 . S
C1220 H1193 0.950 . S
C1220 C1206 1.377 . S
C1220 C1219 1.373 . S
C1221 C1205 1.377 . S
C1221 C1219 1.389 . S
C1221 C1222 1.524 . S
C1222 C1221 1.524 . S
C1222 C1223 1.397 . S
C1222 C1227 1.363 . S
C1223 H1194 0.950 . S
C1223 C1222 1.397 . S
C1223 C1224 1.334 . S
C1224 H1195 0.950 . S
C1224 C1223 1.334 . S
C1224 C1225 1.287 . S
C1225 C1224 1.287 . S
C1225 C1226 1.524 . S
C1225 H1228 0.999 . S
C1226 H1196 0.950 . S
C1226 C1225 1.524 . S
C1226 C1227 1.415 . S
C1227 H1197 0.950 . S
C1227 C1222 1.363 . S
C1227 C1226 1.415 . S
H1228 C1225 0.999 . S
H1229 C1210 0.913 1_556 S
H1230 C1248 0.951 . S
H1231 C1250 0.951 . S
H1232 C1252 0.950 . S
H1233 C1253 0.950 . S
H1234 C1255 0.950 . S
H1235 C1258 0.950 . S
H1236 C1259 0.950 . S
H1237 C1261 0.950 . S
H1238 C1262 0.950 . S
H1239 C1263 0.951 . S
H1240 C1265 0.951 . S
H1241 C1267 0.950 . S
H1242 C1268 0.950 . S
H1243 C1270 0.950 . S
H1244 C1273 0.950 . S
H1245 C1274 0.950 . S
H1246 C1276 0.950 . S
H1247 C1277 0.950 . S
C1248 H1230 0.951 . S
C1248 C1249 1.366 . S
C1248 C1250 1.388 . S
C1249 C1248 1.366 . S
C1249 C1253 1.385 . S
C1250 H1231 0.951 . S
C1250 C1248 1.388 . S
C1250 C1251 1.366 . S
C1251 C1250 1.366 . S
C1251 C1252 1.414 . S
C1251 C1254 1.499 . S
C1252 H1232 0.950 . S
C1252 C1251 1.414 . S
C1252 C1253 1.374 . S
C1253 H1233 0.950 . S
C1253 C1249 1.385 . S
C1253 C1252 1.374 . S
C1254 C1251 1.499 . S
C1254 C1255 1.373 . S
C1254 C1256 1.389 . S
C1255 H1234 0.950 . S
C1255 C1254 1.373 . S
C1255 C1271 1.377 . S
C1256 C1254 1.389 . S
C1256 C1257 1.524 . S
C1256 C1270 1.377 . S
C1257 C1256 1.524 . S
C1257 C1258 1.397 . S
C1257 C1262 1.363 . S
C1258 H1235 0.950 . S
C1258 C1257 1.397 . S
C1258 C1259 1.334 . S
C1259 H1236 0.950 . S
C1259 C1258 1.334 . S
C1259 C1260 1.287 . S
C1260 C1259 1.287 . S
C1260 C1261 1.524 . S
C1260 H1279 0.913 . S
C1261 H1237 0.950 . S
C1261 C1260 1.524 . S
C1261 C1262 1.415 . S
C1262 H1238 0.950 . S
C1262 C1257 1.363 . S
C1262 C1261 1.415 . S
C1263 H1239 0.951 . S
C1263 C1264 1.366 . S
C1263 C1265 1.388 . S
C1264 C1263 1.366 . S
C1264 C1268 1.385 . S
C1265 H1240 0.951 . S
C1265 C1263 1.388 . S
C1265 C1266 1.366 . S
C1266 C1265 1.366 . S
C1266 C1267 1.414 . S
C1266 C1269 1.499 . S
C1267 H1241 0.950 . S
C1267 C1266 1.414 . S
C1267 C1268 1.374 . S
C1268 H1242 0.950 . S
C1268 C1264 1.385 . S
C1268 C1267 1.374 . S
C1269 C1266 1.499 . S
C1269 C1270 1.373 . S
C1269 C1271 1.389 . S
C1270 H1243 0.950 . S
C1270 C1256 1.377 . S
C1270 C1269 1.373 . S
C1271 C1255 1.377 . S
C1271 C1269 1.389 . S
C1271 C1272 1.524 . S
C1272 C1271 1.524 . S
C1272 C1273 1.397 . S
C1272 C1277 1.363 . S
C1273 H1244 0.950 . S
C1273 C1272 1.397 . S
C1273 C1274 1.334 . S
C1274 H1245 0.950 . S
C1274 C1273 1.334 . S
C1274 C1275 1.287 . S
C1275 C1274 1.287 . S
C1275 C1276 1.524 . S
C1275 H1278 0.999 . S
C1276 H1246 0.950 . S
C1276 C1275 1.524 . S
C1276 C1277 1.415 . S
C1277 H1247 0.950 . S
C1277 C1272 1.363 . S
C1277 C1276 1.415 . S
H1278 C1275 0.999 . S
H1279 C1260 0.913 . S
H1280 C1298 0.951 . S
H1281 C1300 0.951 . S
H1282 C1302 0.950 . S
H1283 C1303 0.950 . S
H1284 C1305 0.950 . S
H1285 C1308 0.950 . S
H1286 C1309 0.950 . S
H1287 C1311 0.950 . S
H1288 C1312 0.950 . S
H1289 C1313 0.951 . S
H1290 C1315 0.951 . S
H1291 C1317 0.950 . S
H1292 C1318 0.950 . S
H1293 C1320 0.950 1_565 S
H1294 C1323 0.950 1_565 S
H1295 C1324 0.950 . S
H1296 C1326 0.950 . S
H1297 C1327 0.950 . S
C1298 H1280 0.951 . S
C1298 C1299 1.366 . S
C1298 C1300 1.388 . S
C1299 C1298 1.366 . S
C1299 C1303 1.385 . S
C1300 H1281 0.951 . S
C1300 C1298 1.388 . S
C1300 C1301 1.366 . S
C1301 C1300 1.366 . S
C1301 C1302 1.414 . S
C1301 C1304 1.499 . S
C1302 H1282 0.950 . S
C1302 C1301 1.414 . S
C1302 C1303 1.374 . S
C1303 H1283 0.950 . S
C1303 C1299 1.385 . S
C1303 C1302 1.374 . S
C1304 C1301 1.499 . S
C1304 C1305 1.373 . S
C1304 C1306 1.389 . S
C1305 H1284 0.950 . S
C1305 C1304 1.373 . S
C1305 C1321 1.377 . S
C1306 C1304 1.389 . S
C1306 C1307 1.524 . S
C1306 C1320 1.377 . S
C1307 C1306 1.524 . S
C1307 C1308 1.397 . S
C1307 C1312 1.363 . S
C1308 H1285 0.950 . S
C1308 C1307 1.397 . S
C1308 C1309 1.334 . S
C1309 H1286 0.950 . S
C1309 C1308 1.334 . S
C1309 C1310 1.287 . S
C1310 C1309 1.287 . S
C1310 C1311 1.524 . S
C1310 H1329 0.913 . S
C1311 H1287 0.950 . S
C1311 C1310 1.524 . S
C1311 C1312 1.415 . S
C1312 H1288 0.950 . S
C1312 C1307 1.363 . S
C1312 C1311 1.415 . S
C1313 H1289 0.951 . S
C1313 C1314 1.366 . S
C1313 C1315 1.388 . S
C1314 C1313 1.366 . S
C1314 C1318 1.385 . S
C1315 H1290 0.951 . S
C1315 C1313 1.388 . S
C1315 C1316 1.366 . S
C1316 C1315 1.366 . S
C1316 C1317 1.414 . S
C1316 C1319 1.499 . S
C1317 H1291 0.950 . S
C1317 C1316 1.414 . S
C1317 C1318 1.374 . S
C1318 H1292 0.950 . S
C1318 C1314 1.385 . S
C1318 C1317 1.374 . S
C1319 C1316 1.499 . S
C1319 C1320 1.373 1_565 S
C1319 C1321 1.389 1_565 S
C1320 H1293 0.950 1_545 S
C1320 C1306 1.377 . S
C1320 C1319 1.373 1_545 S
C1321 C1305 1.377 . S
C1321 C1319 1.389 1_545 S
C1321 C1322 1.524 . S
C1322 C1321 1.524 . S
C1322 C1323 1.397 . S
C1322 C1327 1.363 . S
C1323 H1294 0.950 1_545 S
C1323 C1322 1.397 . S
C1323 C1324 1.334 1_545 S
C1324 H1295 0.950 . S
C1324 C1323 1.334 1_565 S
C1324 C1325 1.287 1_565 S
C1325 C1324 1.287 1_545 S
C1325 C1326 1.524 . S
C1325 H1328 0.999 . S
C1326 H1296 0.950 . S
C1326 C1325 1.524 . S
C1326 C1327 1.415 . S
C1327 H1297 0.950 . S
C1327 C1322 1.363 . S
C1327 C1326 1.415 . S
H1328 C1325 0.999 . S
H1329 C1310 0.913 . S
H1330 C1348 0.951 1_655 S
H1331 C1350 0.951 . S
H1332 C1352 0.950 . S
H1333 C1353 0.950 . S
H1334 C1355 0.950 . S
H1335 C1358 0.950 . S
H1336 C1359 0.950 1_655 S
H1337 C1361 0.950 . S
H1338 C1362 0.950 . S
H1339 C1363 0.951 . S
H1340 C1365 0.951 . S
H1341 C1367 0.950 . S
H1342 C1368 0.950 . S
H1343 C1370 0.950 . S
H1344 C1373 0.950 . S
H1345 C1374 0.950 . S
H1346 C1376 0.950 . S
H1347 C1377 0.950 . S
C1348 H1330 0.951 1_455 S
C1348 C1349 1.366 . S
C1348 C1350 1.388 . S
C1349 C1348 1.366 . S
C1349 C1353 1.385 . S
C1350 H1331 0.951 . S
C1350 C1348 1.388 . S
C1350 C1351 1.366 . S
C1351 C1350 1.366 . S
C1351 C1352 1.414 . S
C1351 C1354 1.499 . S
C1352 H1332 0.950 . S
C1352 C1351 1.414 . S
C1352 C1353 1.374 . S
C1353 H1333 0.950 . S
C1353 C1349 1.385 . S
C1353 C1352 1.374 . S
C1354 C1351 1.499 . S
C1354 C1355 1.373 . S
C1354 C1356 1.389 . S
C1355 H1334 0.950 . S
C1355 C1354 1.373 . S
C1355 C1371 1.377 . S
C1356 C1354 1.389 . S
C1356 C1357 1.524 . S
C1356 C1370 1.377 . S
C1357 C1356 1.524 . S
C1357 C1358 1.397 . S
C1357 C1362 1.363 . S
C1358 H1335 0.950 . S
C1358 C1357 1.397 . S
C1358 C1359 1.334 . S
C1359 H1336 0.950 1_455 S
C1359 C1358 1.334 . S
C1359 C1360 1.270 1_455 S
C1360 C1359 1.270 1_655 S
C1360 C1361 1.518 1_655 S
C1360 H1379 0.943 . S
C1361 H1337 0.950 . S
C1361 C1360 1.518 1_455 S
C1361 C1362 1.415 . S
C1362 H1338 0.950 . S
C1362 C1357 1.363 . S
C1362 C1361 1.415 . S
C1363 H1339 0.951 . S
C1363 C1364 1.366 . S
C1363 C1365 1.388 . S
C1364 C1363 1.366 . S
C1364 C1368 1.385 . S
C1365 H1340 0.951 . S
C1365 C1363 1.388 . S
C1365 C1366 1.366 . S
C1366 C1365 1.366 . S
C1366 C1367 1.414 . S
C1366 C1369 1.499 . S
C1367 H1341 0.950 . S
C1367 C1366 1.414 . S
C1367 C1368 1.374 . S
C1368 H1342 0.950 . S
C1368 C1364 1.385 . S
C1368 C1367 1.374 . S
C1369 C1366 1.499 . S
C1369 C1370 1.373 . S
C1369 C1371 1.389 . S
C1370 H1343 0.950 . S
C1370 C1356 1.377 . S
C1370 C1369 1.373 . S
C1371 C1355 1.377 . S
C1371 C1369 1.389 . S
C1371 C1372 1.524 . S
C1372 C1371 1.524 . S
C1372 C1373 1.397 . S
C1372 C1377 1.363 . S
C1373 H1344 0.950 . S
C1373 C1372 1.397 . S
C1373 C1374 1.334 . S
C1374 H1345 0.950 . S
C1374 C1373 1.334 . S
C1374 C1375 1.287 . S
C1375 C1374 1.287 . S
C1375 C1376 1.524 . S
C1375 H1378 0.999 . S
C1376 H1346 0.950 . S
C1376 C1375 1.524 . S
C1376 C1377 1.415 . S
C1377 H1347 0.950 . S
C1377 C1372 1.363 . S
C1377 C1376 1.415 . S
H1378 C1375 0.999 . S
H1379 C1360 0.943 . S
H1380 C1398 0.951 . S
H1381 C1400 0.951 . S
H1382 C1402 0.950 . S
H1383 C1403 0.950 . S
H1384 C1405 0.950 . S
H1385 C1408 0.950 . S
H1386 C1409 0.950 . S
H1387 C1411 0.950 . S
H1388 C1412 0.950 . S
H1389 C1413 0.951 . S
H1390 C1415 0.951 . S
H1391 C1417 0.950 . S
H1392 C1418 0.950 . S
H1393 C1420 0.950 . S
H1394 C1423 0.950 . S
H1395 C1424 0.950 . S
H1396 C1426 0.950 . S
H1397 C1427 0.950 . S
C1398 H1380 0.951 . S
C1398 C1399 1.366 . S
C1398 C1400 1.388 . S
C1399 C1398 1.366 . S
C1399 C1403 1.385 . S
C1400 H1381 0.951 . S
C1400 C1398 1.388 . S
C1400 C1401 1.366 . S
C1401 C1400 1.366 . S
C1401 C1402 1.414 . S
C1401 C1404 1.499 . S
C1402 H1382 0.950 . S
C1402 C1401 1.414 . S
C1402 C1403 1.374 . S
C1403 H1383 0.950 . S
C1403 C1399 1.385 . S
C1403 C1402 1.374 . S
C1404 C1401 1.499 . S
C1404 C1405 1.373 . S
C1404 C1406 1.389 . S
C1405 H1384 0.950 . S
C1405 C1404 1.373 . S
C1405 C1421 1.377 . S
C1406 C1404 1.389 . S
C1406 C1407 1.524 . S
C1406 C1420 1.377 . S
C1407 C1406 1.524 . S
C1407 C1408 1.397 . S
C1407 C1412 1.363 . S
C1408 H1385 0.950 . S
C1408 C1407 1.397 . S
C1408 C1409 1.334 . S
C1409 H1386 0.950 . S
C1409 C1408 1.334 . S
C1409 C1410 1.287 . S
C1410 C1409 1.287 . S
C1410 C1411 1.524 . S
C1410 H1429 0.913 . S
C1411 H1387 0.950 . S
C1411 C1410 1.524 . S
C1411 C1412 1.415 . S
C1412 H1388 0.950 . S
C1412 C1407 1.363 . S
C1412 C1411 1.415 . S
C1413 H1389 0.951 . S
C1413 C1414 1.366 . S
C1413 C1415 1.388 . S
C1414 C1413 1.366 . S
C1414 C1418 1.385 . S
C1415 H1390 0.951 . S
C1415 C1413 1.388 . S
C1415 C1416 1.366 . S
C1416 C1415 1.366 . S
C1416 C1417 1.414 . S
C1416 C1419 1.499 . S
C1417 H1391 0.950 . S
C1417 C1416 1.414 . S
C1417 C1418 1.374 . S
C1418 H1392 0.950 . S
C1418 C1414 1.385 . S
C1418 C1417 1.374 . S
C1419 C1416 1.499 . S
C1419 C1420 1.373 . S
C1419 C1421 1.389 . S
C1420 H1393 0.950 . S
C1420 C1406 1.377 . S
C1420 C1419 1.373 . S
C1421 C1405 1.377 . S
C1421 C1419 1.389 . S
C1421 C1422 1.524 . S
C1422 C1421 1.524 . S
C1422 C1423 1.397 . S
C1422 C1427 1.363 . S
C1423 H1394 0.950 . S
C1423 C1422 1.397 . S
C1423 C1424 1.334 . S
C1424 H1395 0.950 . S
C1424 C1423 1.334 . S
C1424 C1425 1.287 . S
C1425 C1424 1.287 . S
C1425 C1426 1.524 . S
C1425 H1428 0.999 . S
C1426 H1396 0.950 . S
C1426 C1425 1.524 . S
C1426 C1427 1.415 . S
C1427 H1397 0.950 . S
C1427 C1422 1.363 . S
C1427 C1426 1.415 . S
H1428 C1425 0.999 . S
H1429 C1410 0.913 . S
H1430 C1448 0.951 . S
H1431 C1450 0.951 . S
H1432 C1452 0.950 . S
H1433 C1453 0.950 . S
H1434 C1455 0.950 . S
H1435 C1458 0.950 . S
H1436 C1459 0.950 . S
H1437 C1461 0.950 . S
H1438 C1462 0.950 . S
H1439 C1463 0.951 . S
H1440 C1465 0.951 . S
H1441 C1467 0.950 . S
H1442 C1468 0.950 . S
H1443 C1470 0.950 . S
H1444 C1473 0.950 . S
H1445 C1474 0.950 . S
H1446 C1476 0.950 . S
H1447 C1477 0.950 . S
C1448 H1430 0.951 . S
C1448 C1449 1.366 . S
C1448 C1450 1.388 . S
C1449 C1448 1.366 . S
C1449 C1453 1.385 . S
C1450 H1431 0.951 . S
C1450 C1448 1.388 . S
C1450 C1451 1.366 . S
C1451 C1450 1.366 . S
C1451 C1452 1.414 . S
C1451 C1454 1.499 . S
C1452 H1432 0.950 . S
C1452 C1451 1.414 . S
C1452 C1453 1.374 . S
C1453 H1433 0.950 . S
C1453 C1449 1.385 . S
C1453 C1452 1.374 . S
C1454 C1451 1.499 . S
C1454 C1455 1.373 1_565 S
C1454 C1456 1.389 1_565 S
C1455 H1434 0.950 . S
C1455 C1454 1.373 1_545 S
C1455 C1471 1.377 . S
C1456 C1454 1.389 1_545 S
C1456 C1457 1.524 1_545 S
C1456 C1470 1.377 . S
C1457 C1456 1.524 1_565 S
C1457 C1458 1.397 . S
C1457 C1462 1.363 1_565 S
C1458 H1435 0.950 . S
C1458 C1457 1.397 . S
C1458 C1459 1.334 . S
C1459 H1436 0.950 . S
C1459 C1458 1.334 . S
C1459 C1460 1.287 . S
C1460 C1459 1.287 . S
C1460 C1461 1.524 . S
C1460 H1479 0.913 . S
C1461 H1437 0.950 . S
C1461 C1460 1.524 . S
C1461 C1462 1.415 1_565 S
C1462 H1438 0.950 . S
C1462 C1457 1.363 1_545 S
C1462 C1461 1.415 1_545 S
C1463 H1439 0.951 . S
C1463 C1464 1.366 . S
C1463 C1465 1.388 . S
C1464 C1463 1.366 . S
C1464 C1468 1.385 . S
C1465 H1440 0.951 . S
C1465 C1463 1.388 . S
C1465 C1466 1.366 . S
C1466 C1465 1.366 . S
C1466 C1467 1.414 . S
C1466 C1469 1.499 . S
C1467 H1441 0.950 . S
C1467 C1466 1.414 . S
C1467 C1468 1.374 . S
C1468 H1442 0.950 . S
C1468 C1464 1.385 . S
C1468 C1467 1.374 . S
C1469 C1466 1.499 . S
C1469 C1470 1.373 . S
C1469 C1471 1.389 . S
C1470 H1443 0.950 . S
C1470 C1456 1.377 . S
C1470 C1469 1.373 . S
C1471 C1455 1.377 . S
C1471 C1469 1.389 . S
C1471 C1472 1.524 . S
C1472 C1471 1.524 . S
C1472 C1473 1.397 . S
C1472 C1477 1.363 . S
C1473 H1444 0.950 . S
C1473 C1472 1.397 . S
C1473 C1474 1.334 . S
C1474 H1445 0.950 . S
C1474 C1473 1.334 . S
C1474 C1475 1.287 . S
C1475 C1474 1.287 . S
C1475 C1476 1.524 . S
C1475 H1478 0.999 . S
C1476 H1446 0.950 . S
C1476 C1475 1.524 . S
C1476 C1477 1.415 . S
C1477 H1447 0.950 . S
C1477 C1472 1.363 . S
C1477 C1476 1.415 . S
H1478 C1475 0.999 . S
H1479 C1460 0.913 . S
H1480 C1498 0.951 1_655 S
H1481 C1500 0.951 . S
H1482 C1502 0.950 . S
H1483 C1503 0.950 . S
H1484 C1505 0.950 . S
H1485 C1508 0.950 . S
H1486 C1509 0.950 . S
H1487 C1511 0.950 . S
H1488 C1512 0.950 . S
H1489 C1513 0.951 . S
H1490 C1515 0.951 . S
H1491 C1517 0.950 . S
H1492 C1518 0.950 . S
H1493 C1520 0.950 . S
H1494 C1523 0.950 . S
H1495 C1524 0.950 . S
H1496 C1526 0.950 . S
H1497 C1527 0.950 . S
C1498 H1480 0.951 1_455 S
C1498 C1499 1.366 . S
C1498 C1500 1.388 . S
C1499 C1498 1.366 . S
C1499 C1503 1.385 . S
C1500 H1481 0.951 . S
C1500 C1498 1.388 . S
C1500 C1501 1.366 . S
C1501 C1500 1.366 . S
C1501 C1502 1.414 . S
C1501 C1504 1.499 . S
C1502 H1482 0.950 . S
C1502 C1501 1.414 . S
C1502 C1503 1.374 . S
C1503 H1483 0.950 . S
C1503 C1499 1.385 . S
C1503 C1502 1.374 . S
C1504 C1501 1.499 . S
C1504 C1505 1.373 . S
C1504 C1506 1.389 . S
C1505 H1484 0.950 . S
C1505 C1504 1.373 . S
C1505 C1521 1.377 . S
C1506 C1504 1.389 . S
C1506 C1507 1.524 . S
C1506 C1520 1.377 . S
C1507 C1506 1.524 . S
C1507 C1508 1.397 . S
C1507 C1512 1.363 . S
C1508 H1485 0.950 . S
C1508 C1507 1.397 . S
C1508 C1509 1.334 . S
C1509 H1486 0.950 . S
C1509 C1508 1.334 . S
C1509 C1510 1.287 . S
C1510 C1509 1.287 . S
C1510 C1511 1.524 . S
C1510 H1529 0.913 . S
C1511 H1487 0.950 . S
C1511 C1510 1.524 . S
C1511 C1512 1.415 . S
C1512 H1488 0.950 . S
C1512 C1507 1.363 . S
C1512 C1511 1.415 . S
C1513 H1489 0.951 . S
C1513 C1514 1.366 . S
C1513 C1515 1.388 . S
C1514 C1513 1.366 . S
C1514 C1518 1.385 . S
C1515 H1490 0.951 . S
C1515 C1513 1.388 . S
C1515 C1516 1.366 . S
C1516 C1515 1.366 . S
C1516 C1517 1.414 . S
C1516 C1519 1.499 . S
C1517 H1491 0.950 . S
C1517 C1516 1.414 . S
C1517 C1518 1.374 . S
C1518 H1492 0.950 . S
C1518 C1514 1.385 . S
C1518 C1517 1.374 . S
C1519 C1516 1.499 . S
C1519 C1520 1.373 . S
C1519 C1521 1.389 . S
C1520 H1493 0.950 . S
C1520 C1506 1.377 . S
C1520 C1519 1.373 . S
C1521 C1505 1.377 . S
C1521 C1519 1.389 . S
C1521 C1522 1.524 . S
C1522 C1521 1.524 . S
C1522 C1523 1.397 . S
C1522 C1527 1.363 . S
C1523 H1494 0.950 . S
C1523 C1522 1.397 . S
C1523 C1524 1.334 . S
C1524 H1495 0.950 . S
C1524 C1523 1.334 . S
C1524 C1525 1.287 . S
C1525 C1524 1.287 . S
C1525 C1526 1.524 . S
C1525 H1528 0.999 . S
C1526 H1496 0.950 . S
C1526 C1525 1.524 . S
C1526 C1527 1.415 . S
C1527 H1497 0.950 . S
C1527 C1522 1.363 . S
C1527 C1526 1.415 . S
H1528 C1525 0.999 . S
H1529 C1510 0.913 . S
C199 C1 1.007 . S
C214 C9 1.007 . S
C249 C29 1.013 . S
C264 C21 1.013 . S
C299 C41 1.045 . S
C314 C49 1.045 . S
C349 C69 1.006 . S
C364 C61 1.006 . S
C399 C81 1.013 . S
C414 C89 1.013 . S
C449 C109 1.044 . S
C464 C101 1.045 1_556 S
C499 C128 1.213 . S
C514 C139 1.213 . S
C549 C159 1.211 . S
C564 C148 1.211 . S
C599 C168 1.226 . S
C614 C179 1.226 . S
C649 C116 2.270 . S
C664 C8 2.232 . S
C699 C36 1.717 . S
C714 C76 1.710 . S
C749 C48 2.788 1_565 S
C764 C88 2.770 . S
C799 C56 0.967 . S
C814 C126 0.996 . S
C849 C149 1.173 . S
C864 C16 1.150 . S
C899 C166 1.620 . S
C914 C28 1.600 . S
C949 C161 1.667 . S
C964 C19 1.638 . S
C999 C26 0.900 . S
C1014 C121 0.920 . S
C1049 C156 1.388 . S
C1064 C59 1.342 . S
C1099 C46 2.270 . S
C1114 C79 2.231 . S
C1149 C86 1.717 . S
C1164 C6 1.709 . S
C1199 C39 2.770 . S
C1214 C119 2.788 . S
C1249 C169 1.668 . S
C1264 C68 1.639 . S
C1299 C129 0.920 . S
C1314 C96 0.898 . S
C1349 C146 1.388 1_455 S
C1364 C108 1.344 . S
C1399 C136 0.996 . S
C1414 C106 0.965 . S
C1449 C66 1.150 . S
C1464 C141 1.172 . S
C1499 C176 1.619 1_455 S
C1514 C99 1.601 . S
