# Generated by pormake.
# Topology ukj, (4)-cn, num edge types: 1
# Building blocks:
#     Node 0, Type 0, BuildingBlock: MUDLON_clean_sbu_0, # of connection points: 4
#     Node 1, Type 0, BuildingBlock: MUDLON_clean_sbu_0, # of connection points: 4
#     Node 2, Type 0, BuildingBlock: MUDLON_clean_sbu_0, # of connection points: 4
#     Node 3, Type 0, BuildingBlock: MUDLON_clean_sbu_0, # of connection points: 4
#     Node 4, Type 0, BuildingBlock: MUDLON_clean_sbu_0, # of connection points: 4
#     Node 5, Type 0, BuildingBlock: MUDLON_clean_sbu_0, # of connection points: 4
#     Node 6, Type 0, BuildingBlock: MUDLON_clean_sbu_0, # of connection points: 4
#     Node 7, Type 0, BuildingBlock: MUDLON_clean_sbu_0, # of connection points: 4
#     Node 8, Type 0, BuildingBlock: MUDLON_clean_sbu_0, # of connection points: 4
#     Node 9, Type 0, BuildingBlock: MUDLON_clean_sbu_0, # of connection points: 4
#     Node 10, Type 0, BuildingBlock: MUDLON_clean_sbu_0, # of connection points: 4
#     Node 11, Type 0, BuildingBlock: MUDLON_clean_sbu_0, # of connection points: 4
#     Node 12, Type 0, BuildingBlock: MUDLON_clean_sbu_0, # of connection points: 4
#     Node 13, Type 0, BuildingBlock: MUDLON_clean_sbu_0, # of connection points: 4
#     Node 14, Type 0, BuildingBlock: MUDLON_clean_sbu_0, # of connection points: 4
#     Node 15, Type 0, BuildingBlock: MUDLON_clean_sbu_0, # of connection points: 4
#     Node 16, Type 0, BuildingBlock: MUDLON_clean_sbu_0, # of connection points: 4
#     Node 17, Type 0, BuildingBlock: MUDLON_clean_sbu_0, # of connection points: 4
#     Node 18, Type 0, BuildingBlock: MUDLON_clean_sbu_0, # of connection points: 4
#     Node 19, Type 0, BuildingBlock: MUDLON_clean_sbu_0, # of connection points: 4
#     Node 20, Type 0, BuildingBlock: MUDLON_clean_sbu_0, # of connection points: 4
#     Node 21, Type 0, BuildingBlock: MUDLON_clean_sbu_0, # of connection points: 4
#     Node 22, Type 0, BuildingBlock: MUDLON_clean_sbu_0, # of connection points: 4
#     Node 23, Type 0, BuildingBlock: MUDLON_clean_sbu_0, # of connection points: 4
#     Node 24, Type 0, BuildingBlock: MUDLON_clean_sbu_0, # of connection points: 4
#     Node 25, Type 0, BuildingBlock: MUDLON_clean_sbu_0, # of connection points: 4
#     Node 26, Type 0, BuildingBlock: MUDLON_clean_sbu_0, # of connection points: 4
#     Node 27, Type 0, BuildingBlock: MUDLON_clean_sbu_0, # of connection points: 4
#     Node 28, Type 0, BuildingBlock: MUDLON_clean_sbu_0, # of connection points: 4
#     Node 29, Type 0, BuildingBlock: MUDLON_clean_sbu_0, # of connection points: 4
#     Node 30, Type 0, BuildingBlock: MUDLON_clean_sbu_0, # of connection points: 4
#     Node 31, Type 0, BuildingBlock: MUDLON_clean_sbu_0, # of connection points: 4
#     Edge 32, Type (0, 0), BuildingBlock: XUDNAN_clean_linker_2, # of connection points: 2
#     Edge 33, Type (0, 0), BuildingBlock: XUDNAN_clean_linker_2, # of connection points: 2
#     Edge 34, Type (0, 0), BuildingBlock: XUDNAN_clean_linker_2, # of connection points: 2
#     Edge 35, Type (0, 0), BuildingBlock: XUDNAN_clean_linker_2, # of connection points: 2
#     Edge 36, Type (0, 0), BuildingBlock: XUDNAN_clean_linker_2, # of connection points: 2
#     Edge 37, Type (0, 0), BuildingBlock: XUDNAN_clean_linker_2, # of connection points: 2
#     Edge 38, Type (0, 0), BuildingBlock: XUDNAN_clean_linker_2, # of connection points: 2
#     Edge 39, Type (0, 0), BuildingBlock: XUDNAN_clean_linker_2, # of connection points: 2
#     Edge 40, Type (0, 0), BuildingBlock: XUDNAN_clean_linker_2, # of connection points: 2
#     Edge 41, Type (0, 0), BuildingBlock: XUDNAN_clean_linker_2, # of connection points: 2
#     Edge 42, Type (0, 0), BuildingBlock: XUDNAN_clean_linker_2, # of connection points: 2
#     Edge 43, Type (0, 0), BuildingBlock: XUDNAN_clean_linker_2, # of connection points: 2
#     Edge 44, Type (0, 0), BuildingBlock: XUDNAN_clean_linker_2, # of connection points: 2
#     Edge 45, Type (0, 0), BuildingBlock: XUDNAN_clean_linker_2, # of connection points: 2
#     Edge 46, Type (0, 0), BuildingBlock: XUDNAN_clean_linker_2, # of connection points: 2
#     Edge 47, Type (0, 0), BuildingBlock: XUDNAN_clean_linker_2, # of connection points: 2
#     Edge 48, Type (0, 0), BuildingBlock: XUDNAN_clean_linker_2, # of connection points: 2
#     Edge 49, Type (0, 0), BuildingBlock: XUDNAN_clean_linker_2, # of connection points: 2
#     Edge 50, Type (0, 0), BuildingBlock: XUDNAN_clean_linker_2, # of connection points: 2
#     Edge 51, Type (0, 0), BuildingBlock: XUDNAN_clean_linker_2, # of connection points: 2
#     Edge 52, Type (0, 0), BuildingBlock: XUDNAN_clean_linker_2, # of connection points: 2
#     Edge 53, Type (0, 0), BuildingBlock: XUDNAN_clean_linker_2, # of connection points: 2
#     Edge 54, Type (0, 0), BuildingBlock: XUDNAN_clean_linker_2, # of connection points: 2
#     Edge 55, Type (0, 0), BuildingBlock: XUDNAN_clean_linker_2, # of connection points: 2
#     Edge 56, Type (0, 0), BuildingBlock: XUDNAN_clean_linker_2, # of connection points: 2
#     Edge 57, Type (0, 0), BuildingBlock: XUDNAN_clean_linker_2, # of connection points: 2
#     Edge 58, Type (0, 0), BuildingBlock: XUDNAN_clean_linker_2, # of connection points: 2
#     Edge 59, Type (0, 0), BuildingBlock: XUDNAN_clean_linker_2, # of connection points: 2
#     Edge 60, Type (0, 0), BuildingBlock: XUDNAN_clean_linker_2, # of connection points: 2
#     Edge 61, Type (0, 0), BuildingBlock: XUDNAN_clean_linker_2, # of connection points: 2
#     Edge 62, Type (0, 0), BuildingBlock: XUDNAN_clean_linker_2, # of connection points: 2
#     Edge 63, Type (0, 0), BuildingBlock: XUDNAN_clean_linker_2, # of connection points: 2
#     Edge 64, Type (0, 0), BuildingBlock: XUDNAN_clean_linker_2, # of connection points: 2
#     Edge 65, Type (0, 0), BuildingBlock: XUDNAN_clean_linker_2, # of connection points: 2
#     Edge 66, Type (0, 0), BuildingBlock: XUDNAN_clean_linker_2, # of connection points: 2
#     Edge 67, Type (0, 0), BuildingBlock: XUDNAN_clean_linker_2, # of connection points: 2
#     Edge 68, Type (0, 0), BuildingBlock: XUDNAN_clean_linker_2, # of connection points: 2
#     Edge 69, Type (0, 0), BuildingBlock: XUDNAN_clean_linker_2, # of connection points: 2
#     Edge 70, Type (0, 0), BuildingBlock: XUDNAN_clean_linker_2, # of connection points: 2
#     Edge 71, Type (0, 0), BuildingBlock: XUDNAN_clean_linker_2, # of connection points: 2
#     Edge 72, Type (0, 0), BuildingBlock: XUDNAN_clean_linker_2, # of connection points: 2
#     Edge 73, Type (0, 0), BuildingBlock: XUDNAN_clean_linker_2, # of connection points: 2
#     Edge 74, Type (0, 0), BuildingBlock: XUDNAN_clean_linker_2, # of connection points: 2
#     Edge 75, Type (0, 0), BuildingBlock: XUDNAN_clean_linker_2, # of connection points: 2
#     Edge 76, Type (0, 0), BuildingBlock: XUDNAN_clean_linker_2, # of connection points: 2
#     Edge 77, Type (0, 0), BuildingBlock: XUDNAN_clean_linker_2, # of connection points: 2
#     Edge 78, Type (0, 0), BuildingBlock: XUDNAN_clean_linker_2, # of connection points: 2
#     Edge 79, Type (0, 0), BuildingBlock: XUDNAN_clean_linker_2, # of connection points: 2
#     Edge 80, Type (0, 0), BuildingBlock: XUDNAN_clean_linker_2, # of connection points: 2
#     Edge 81, Type (0, 0), BuildingBlock: XUDNAN_clean_linker_2, # of connection points: 2
#     Edge 82, Type (0, 0), BuildingBlock: XUDNAN_clean_linker_2, # of connection points: 2
#     Edge 83, Type (0, 0), BuildingBlock: XUDNAN_clean_linker_2, # of connection points: 2
#     Edge 84, Type (0, 0), BuildingBlock: XUDNAN_clean_linker_2, # of connection points: 2
#     Edge 85, Type (0, 0), BuildingBlock: XUDNAN_clean_linker_2, # of connection points: 2
#     Edge 86, Type (0, 0), BuildingBlock: XUDNAN_clean_linker_2, # of connection points: 2
#     Edge 87, Type (0, 0), BuildingBlock: XUDNAN_clean_linker_2, # of connection points: 2
#     Edge 88, Type (0, 0), BuildingBlock: XUDNAN_clean_linker_2, # of connection points: 2
#     Edge 89, Type (0, 0), BuildingBlock: XUDNAN_clean_linker_2, # of connection points: 2
#     Edge 90, Type (0, 0), BuildingBlock: XUDNAN_clean_linker_2, # of connection points: 2
#     Edge 91, Type (0, 0), BuildingBlock: XUDNAN_clean_linker_2, # of connection points: 2
#     Edge 92, Type (0, 0), BuildingBlock: XUDNAN_clean_linker_2, # of connection points: 2
#     Edge 93, Type (0, 0), BuildingBlock: XUDNAN_clean_linker_2, # of connection points: 2
#     Edge 94, Type (0, 0), BuildingBlock: XUDNAN_clean_linker_2, # of connection points: 2
#     Edge 95, Type (0, 0), BuildingBlock: XUDNAN_clean_linker_2, # of connection points: 2
# Relax obj value: 0.028
# Max RMSD: 0.217
# Mean RMSD: 0.215
data_MOF--net-ukj--node1-MUDLON_clean_sbu_0--edge1-XUDNAN_clean_linker_2
_symmetry_space_group_name_H-M    P1
_symmetry_Int_Tables_number       1
_symmetry_cell_setting            triclinic
loop_
_symmetry_equiv_pos_as_xyz
'x, y, z'
_cell_length_a     34.738901
_cell_length_b     58.282285
_cell_length_c     60.132417
_cell_angle_alpha  90.004398
_cell_angle_beta   90.042729
_cell_angle_gamma 90.085401
loop_
_atom_site_label
_atom_site_type_symbol
_atom_site_fract_x
_atom_site_fract_y
_atom_site_fract_z
_atom_type_partial_charge
Mg0 Mg 0.17347 0.35234 0.2671 0.0
C1 C 0.17431 0.36408 0.21866 0.0
O2 O 0.20351 0.34993 0.22038 0.0
C3 C 0.16653 0.35962 0.31511 0.0
O4 O 0.19196 0.34306 0.3132 0.0
C5 C 0.1249 0.31102 0.25318 0.0
O6 O 0.12387 0.32207 0.23416 0.0
O7 O 0.14602 0.31868 0.26882 0.0
O8 O 0.15556 0.3692 0.23617 0.0
O9 O 0.23633 0.35321 0.26903 0.0
C10 C 0.25901 0.33886 0.26003 0.0
O11 O 0.24466 0.321 0.24955 0.0
O12 O 0.15292 0.36855 0.29745 0.0
Mg13 Mg 0.11256 0.89914 0.26394 0.0
C14 C 0.11542 0.88426 0.21795 0.0
O15 O 0.09142 0.90165 0.21866 0.0
C16 C 0.12463 0.90391 0.31217 0.0
O17 O 0.11566 0.92469 0.30548 0.0
C18 C 0.17787 0.9319 0.2679 0.0
O19 O 0.19018 0.91406 0.27918 0.0
O20 O 0.14448 0.93118 0.25912 0.0
O21 O 0.13079 0.87763 0.2361 0.0
O22 O 0.04983 0.901 0.26045 0.0
C23 C 0.027 0.89574 0.27622 0.0
O24 O 0.04121 0.89142 0.29602 0.0
O25 O 0.12573 0.88782 0.29783 0.0
Mg26 Mg 0.17261 0.89758 0.02181 0.0
C27 C 0.17145 0.86252 0.06056 0.0
O28 O 0.20291 0.85445 0.05133 0.0
C29 C 0.15836 0.90149 0.97396 0.0
O30 O 0.17073 0.92188 0.98 0.0
C31 C 0.10974 0.93172 0.01829 0.0
O32 O 0.09575 0.91385 1.00771 0.0
O33 O 0.14368 0.93064 0.02631 0.0
O34 O 0.15245 0.87807 0.05054 0.0
O35 O 0.23565 0.89751 0.02218 0.0
C36 C 0.25483 0.89766 0.04021 0.0
O37 O 0.23649 0.90072 0.05908 0.0
O38 O 0.15584 0.88582 0.98865 0.0
Mg39 Mg 0.11681 0.34979 0.01775 0.0
C40 C 0.1119 0.37735 0.06048 0.0
O41 O 0.0789 0.38332 0.05152 0.0
C42 C 0.13316 0.3583 0.97009 0.0
O43 O 0.12453 0.33635 0.97043 0.0
C44 C 0.1699 0.31002 0.02902 0.0
O45 O 0.17198 0.32119 0.04795 0.0
O46 O 0.14684 0.31711 1.01406 0.0
O47 O 0.13484 0.36481 0.04934 0.0
O48 O 0.05399 0.34808 0.01955 0.0
C49 C 0.03251 0.35588 1.00415 0.0
O50 O 0.04825 0.36275 0.98545 0.0
O51 O 0.13285 0.36943 0.98834 0.0
Mg52 Mg 0.86 0.64535 0.76501 0.0
C53 C 0.86405 0.6407 0.81243 0.0
O54 O 0.85105 0.66139 0.80807 0.0
C55 C 0.90572 0.63847 0.72239 0.0
O56 O 0.92495 0.65588 0.73067 0.0
C57 C 0.92633 0.6735 0.77683 0.0
O58 O 0.93555 0.65219 0.78153 0.0
O59 O 0.89291 0.67739 0.76887 0.0
O60 O 0.87087 0.62727 0.79621 0.0
O61 O 0.79714 0.64572 0.76277 0.0
C62 C 0.78489 0.62523 0.76038 0.0
O63 O 0.81041 0.60864 0.75939 0.0
O64 O 0.87895 0.62939 0.73389 0.0
Mg65 Mg 0.92063 0.08961 0.77204 0.0
C66 C 0.8834 0.09787 0.81637 0.0
O67 O 0.86734 0.07827 0.8109 0.0
C68 C 0.93433 0.10707 0.72634 0.0
O69 O 0.96626 0.09574 0.73023 0.0
C70 C 0.84946 0.06495 0.76296 0.0
O71 O 0.84232 0.08671 0.75905 0.0
O72 O 0.88334 0.05939 0.76906 0.0
O73 O 0.90572 0.10764 0.80255 0.0
O74 O 0.98305 0.08525 0.77371 0.0
C75 C 1.00063 0.10397 0.77794 0.0
O76 O 0.98002 0.12242 0.78186 0.0
O77 O 0.90935 0.10872 0.74169 0.0
Mg78 Mg 0.86784 0.09581 0.02532 0.0
C79 C 0.85965 0.10196 0.97752 0.0
O80 O 0.831 0.08841 0.98315 0.0
C81 C 0.91998 0.10959 0.06328 0.0
O82 O 0.94153 0.09326 0.05488 0.0
C83 C 0.91064 0.05109 1.01485 0.0
O84 O 0.9076 0.0584 0.99426 0.0
O85 O 0.89372 0.06205 0.03031 0.0
O86 O 0.88257 0.10882 0.99262 0.0
O87 O 0.8053 0.09921 0.02792 0.0
C88 C 0.79515 0.11994 0.03113 0.0
O89 O 0.82216 0.13562 0.03309 0.0
O90 O 0.88992 0.1158 0.05285 0.0
Mg91 Mg 0.91984 0.64701 0.02014 0.0
C92 C 0.91724 0.64202 0.97238 0.0
O93 O 0.93754 0.66059 0.9765 0.0
C94 C 0.87341 0.63938 0.06195 0.0
O95 O 0.85295 0.65584 0.05288 0.0
C96 C 0.86382 0.68464 1.00878 0.0
O97 O 0.85219 0.66832 0.99529 0.0
O98 O 0.89377 0.6813 0.02061 0.0
O99 O 0.90408 0.63066 0.98878 0.0
O100 O 0.98264 0.64487 0.02107 0.0
C101 C 0.99396 0.62409 0.02173 0.0
O102 O 0.96774 0.60781 0.02196 0.0
O103 O 0.90097 0.63066 0.05089 0.0
Mg104 Mg 0.1599 0.84356 0.773 0.0
C105 C 0.14903 0.84109 0.72459 0.0
O106 O 0.15844 0.82009 0.73035 0.0
C107 C 0.13949 0.85131 0.81936 0.0
O108 O 0.15334 0.83035 0.8188 0.0
C109 C 0.10057 0.80693 0.77164 0.0
O110 O 0.08127 0.82521 0.7654 0.0
O111 O 0.13637 0.80897 0.77585 0.0
O112 O 0.14629 0.85625 0.73975 0.0
O113 O 0.22168 0.84755 0.778 0.0
C114 C 0.24878 0.8411 0.76526 0.0
O115 O 0.24076 0.82879 0.74755 0.0
O116 O 0.13634 0.86229 0.80113 0.0
Mg117 Mg 0.10548 0.41073 0.76977 0.0
C118 C 0.12466 0.40679 0.72235 0.0
O119 O 0.11673 0.4286 0.72526 0.0
C120 C 0.12995 0.41303 0.81639 0.0
O121 O 0.11947 0.43405 0.81142 0.0
C122 C 0.16528 0.44693 0.76676 0.0
O123 O 0.18536 0.42786 0.76773 0.0
O124 O 0.12866 0.44559 0.76724 0.0
O125 O 0.12265 0.39333 0.739 0.0
O126 O 0.043 0.40786 0.7732 0.0
C127 C 0.02119 0.40153 0.75731 0.0
O128 O 0.03598 0.39873 0.7374 0.0
O129 O 0.12819 0.39771 0.80129 0.0
Mg130 Mg 0.17443 0.40063 0.51457 0.0
C131 C 0.17571 0.39714 0.56256 0.0
O132 O 0.19769 0.41469 0.55729 0.0
C133 C 0.12612 0.3915 0.4736 0.0
O134 O 0.10562 0.40803 0.4825 0.0
C135 C 0.11985 0.43903 0.52572 0.0
O136 O 0.10982 0.42368 0.54061 0.0
O137 O 0.14845 0.43488 0.51307 0.0
O138 O 0.16003 0.38578 0.54689 0.0
O139 O 0.23716 0.39822 0.51257 0.0
C140 C 0.24787 0.37733 0.51206 0.0
O141 O 0.22121 0.36132 0.51266 0.0
O142 O 0.15424 0.38326 0.48458 0.0
Mg143 Mg 0.11345 0.84209 0.51333 0.0
C144 C 0.12234 0.84026 0.56196 0.0
O145 O 0.11577 0.81887 0.55615 0.0
C146 C 0.13115 0.85215 0.46713 0.0
O147 O 0.11925 0.83074 0.46731 0.0
C148 C 0.17912 0.80994 0.51788 0.0
O149 O 0.19188 0.82861 0.5277 0.0
O150 O 0.14492 0.80982 0.5102 0.0
O151 O 0.12366 0.85548 0.54679 0.0
O152 O 0.05138 0.84106 0.50766 0.0
C153 C 0.02637 0.84139 0.52311 0.0
O154 O 0.03762 0.83937 0.54387 0.0
O155 O 0.13363 0.86279 0.48559 0.0
Mg156 Mg 0.86506 0.15628 0.26642 0.0
C157 C 0.87824 0.15511 0.31375 0.0
O158 O 0.86838 0.1763 0.30899 0.0
C159 C 0.87108 0.14444 0.21941 0.0
O160 O 0.84156 0.15848 0.22037 0.0
C161 C 0.91634 0.19681 0.25234 0.0
O162 O 0.91872 0.18521 0.23368 0.0
O163 O 0.8938 0.18978 0.26759 0.0
O164 O 0.87974 0.14052 0.29806 0.0
O165 O 0.80222 0.15605 0.26327 0.0
C166 C 0.78112 0.14729 0.27838 0.0
O167 O 0.79718 0.14034 0.29696 0.0
O168 O 0.88774 0.13883 0.23744 0.0
Mg169 Mg 0.91799 0.598 0.26828 0.0
C170 C 0.92857 0.6274 0.3103 0.0
O171 O 0.9624 0.63167 0.30151 0.0
C172 C 0.91351 0.60601 0.22022 0.0
O173 O 0.93554 0.58779 0.22202 0.0
C174 C 0.84541 0.57324 0.26828 0.0
O175 O 0.83675 0.59518 0.26863 0.0
O176 O 0.88086 0.56765 0.26819 0.0
O177 O 0.90433 0.61546 0.2994 0.0
O178 O 0.98021 0.59227 0.26729 0.0
C179 C 1.00141 0.60892 0.26097 0.0
O180 O 0.98486 0.62806 0.25452 0.0
O181 O 0.90164 0.61569 0.2379 0.0
Mg182 Mg 0.87103 0.59918 0.51458 0.0
C183 C 0.87017 0.61362 0.46805 0.0
O184 O 0.84233 0.59842 0.46962 0.0
C185 C 0.87223 0.60663 0.56342 0.0
O186 O 0.8413 0.59392 0.56072 0.0
C187 C 0.915 0.55511 0.52507 0.0
O188 O 0.9108 0.56243 0.54557 0.0
O189 O 0.89831 0.56583 0.50935 0.0
O190 O 0.88889 0.61881 0.48556 0.0
O191 O 0.80821 0.60174 0.51488 0.0
C192 C 0.79739 0.6226 0.51568 0.0
O193 O 0.824 0.63863 0.51655 0.0
O194 O 0.89144 0.61251 0.54632 0.0
Mg195 Mg 0.93256 0.15697 0.521 0.0
C196 C 0.92219 0.15437 0.47439 0.0
O197 O 0.93706 0.17452 0.47922 0.0
C198 C 0.93901 0.14374 0.56774 0.0
O199 O 0.97007 0.15608 0.5642 0.0
C200 C 0.86316 0.18274 0.52233 0.0
O201 O 0.85495 0.16072 0.5229 0.0
O202 O 0.89853 0.18856 0.52149 0.0
O203 O 0.91537 0.14053 0.49024 0.0
O204 O 0.99554 0.15607 0.51946 0.0
C205 C 1.00635 0.13517 0.51957 0.0
O206 O 0.97969 0.11917 0.52047 0.0
O207 O 0.91631 0.1398 0.55159 0.0
Mg208 Mg 0.66488 0.34758 0.76707 0.0
C209 C 0.65151 0.34847 0.7192 0.0
O210 O 0.65729 0.32682 0.72427 0.0
C211 C 0.66109 0.35976 0.81442 0.0
O212 O 0.6841 0.34189 0.81388 0.0
C213 C 0.60727 0.30989 0.78134 0.0
O214 O 0.60394 0.32257 0.79928 0.0
O215 O 0.63199 0.31537 0.76662 0.0
O216 O 0.6527 0.36327 0.73477 0.0
O217 O 0.72754 0.34498 0.77047 0.0
C218 C 0.74995 0.35256 0.75539 0.0
O219 O 0.73518 0.3595 0.73645 0.0
O220 O 0.64704 0.36708 0.79618 0.0
Mg221 Mg 0.60355 0.90102 0.76601 0.0
C222 C 0.59473 0.8839 0.71912 0.0
O223 O 0.56022 0.89211 0.72296 0.0
C224 C 0.61123 0.89744 0.81404 0.0
O225 O 0.59046 0.91589 0.81037 0.0
C226 C 0.66568 0.93602 0.76797 0.0
O227 O 0.6843 0.91697 0.77247 0.0
O228 O 0.62949 0.93502 0.76463 0.0
O229 O 0.61982 0.88444 0.73459 0.0
O230 O 0.54086 0.90101 0.76898 0.0
C231 C 0.52378 0.88177 0.76684 0.0
O232 O 0.54431 0.8634 0.76249 0.0
O233 O 0.62312 0.88602 0.79732 0.0
Mg234 Mg 0.67219 0.90267 0.51548 0.0
C235 C 0.66912 0.89169 0.56372 0.0
O236 O 0.69559 0.90779 0.56273 0.0
C237 C 0.63738 0.9032 0.46979 0.0
O238 O 0.63251 0.9245 0.47623 0.0
C239 C 0.61775 0.94059 0.52884 0.0
O240 O 0.60385 0.92365 0.5408 0.0
O241 O 0.64849 0.93737 0.51773 0.0
O242 O 0.65365 0.88485 0.54567 0.0
O243 O 0.73499 0.90122 0.51332 0.0
C244 C 0.75309 0.88503 0.52297 0.0
O245 O 0.7338 0.87019 0.53506 0.0
O246 O 0.65184 0.88889 0.48348 0.0
Mg247 Mg 0.61337 0.34452 0.51028 0.0
C248 C 0.61581 0.34913 0.55743 0.0
O249 O 0.60004 0.32925 0.55254 0.0
C250 C 0.63894 0.34442 0.46375 0.0
O251 O 0.63639 0.32263 0.46908 0.0
C252 C 0.67968 0.31155 0.51459 0.0
O253 O 0.69827 0.33116 0.5134 0.0
O254 O 0.64303 0.31165 0.51367 0.0
O255 O 0.62581 0.36218 0.54145 0.0
O256 O 0.55096 0.34057 0.50896 0.0
C257 C 0.53004 0.35848 0.50987 0.0
O258 O 0.54685 0.37864 0.5114 0.0
O259 O 0.63146 0.3594 0.47856 0.0
Mg260 Mg 0.35696 0.65294 0.26749 0.0
C261 C 0.35208 0.63631 0.31315 0.0
O262 O 0.32451 0.65159 0.31116 0.0
C263 C 0.38106 0.65755 0.22085 0.0
O264 O 0.3782 0.67882 0.22787 0.0
C265 C 0.42486 0.67975 0.27655 0.0
O266 O 0.43458 0.65797 0.27708 0.0
O267 O 0.3896 0.68469 0.27311 0.0
O268 O 0.37239 0.63171 0.29611 0.0
O269 O 0.29384 0.65167 0.26662 0.0
C270 C 0.283 0.63076 0.26608 0.0
O271 O 0.30966 0.61479 0.26567 0.0
O272 O 0.37477 0.64132 0.23456 0.0
Mg273 Mg 0.42388 0.09513 0.26532 0.0
C274 C 0.4195 0.12746 0.30578 0.0
O275 O 0.44558 0.13933 0.29491 0.0
C276 C 0.42375 0.10364 0.21878 0.0
O277 O 0.4461 0.08589 0.22259 0.0
C278 C 0.37764 0.05124 0.27557 0.0
O279 O 0.38224 0.05752 0.29639 0.0
O280 O 0.39434 0.06254 0.26026 0.0
O281 O 0.40503 0.10967 0.29677 0.0
O282 O 0.48667 0.09492 0.26328 0.0
C283 C 0.51011 0.09765 0.27933 0.0
O284 O 0.49701 0.09794 0.29981 0.0
O285 O 0.40766 0.11337 0.23529 0.0
Mg286 Mg 0.37111 0.10235 0.51166 0.0
C287 C 0.36797 0.11356 0.46475 0.0
O288 O 0.3474 0.09478 0.46717 0.0
C289 C 0.36609 0.12416 0.55726 0.0
O290 O 0.33006 0.12639 0.55104 0.0
C291 C 0.41699 0.05914 0.52291 0.0
O292 O 0.40446 0.06347 0.54309 0.0
O293 O 0.40531 0.07147 0.50681 0.0
O294 O 0.38281 0.12261 0.48201 0.0
O295 O 0.30879 0.09713 0.51285 0.0
C296 C 0.28736 0.11431 0.50854 0.0
O297 O 0.30364 0.13391 0.50321 0.0
O298 O 0.39039 0.11623 0.54347 0.0
Mg299 Mg 0.43181 0.65011 0.51067 0.0
C300 C 0.39033 0.62845 0.47223 0.0
O301 O 0.36244 0.64071 0.48093 0.0
C302 C 0.38703 0.6421 0.55347 0.0
O303 O 0.36058 0.65357 0.54254 0.0
C304 C 0.38859 0.69644 0.51707 0.0
O305 O 0.40864 0.69826 0.53552 0.0
O306 O 0.39463 0.67954 0.50415 0.0
O307 O 0.4222 0.6272 0.48257 0.0
O308 O 0.49339 0.65723 0.51079 0.0
C309 C 0.51514 0.63966 0.51168 0.0
O310 O 0.49913 0.61922 0.51231 0.0
O311 O 0.41812 0.63673 0.54359 0.0
Mg312 Mg 0.66745 0.84541 0.26623 0.0
C313 C 0.66855 0.87405 0.22407 0.0
O314 O 0.7006 0.88148 0.23319 0.0
C315 C 0.65408 0.85231 0.31448 0.0
O316 O 0.66836 0.83146 0.31367 0.0
C317 C 0.60479 0.81029 0.26648 0.0
O318 O 0.58568 0.82918 0.26202 0.0
O319 O 0.64123 0.81144 0.26875 0.0
O320 O 0.64738 0.86018 0.23495 0.0
O321 O 0.73036 0.84558 0.26367 0.0
C322 C 0.75192 0.85506 0.27816 0.0
O323 O 0.73643 0.86322 0.29643 0.0
O324 O 0.6499 0.86338 0.29636 0.0
Mg325 Mg 0.61289 0.40278 0.26071 0.0
C326 C 0.6203 0.39488 0.21298 0.0
O327 O 0.59241 0.40995 0.21494 0.0
C328 C 0.62697 0.3973 0.30938 0.0
O329 O 0.6126 0.41813 0.30854 0.0
C330 C 0.67078 0.43976 0.26254 0.0
O331 O 0.69146 0.42089 0.26237 0.0
O332 O 0.63422 0.43797 0.2619 0.0
O333 O 0.63685 0.38779 0.23058 0.0
O334 O 0.5511 0.39739 0.25627 0.0
C335 C 0.52486 0.39687 0.27101 0.0
O336 O 0.53325 0.4023 0.29165 0.0
O337 O 0.63107 0.38613 0.29133 0.0
Mg338 Mg 0.67715 0.41288 1.01549 0.0
C339 C 0.67727 0.38022 0.05469 0.0
O340 O 0.71064 0.3746 0.04601 0.0
C341 C 0.64788 0.41448 0.96852 0.0
O342 O 0.64387 0.43598 0.97457 0.0
C343 C 0.61621 0.4479 0.0216 0.0
O344 O 0.59667 0.42858 0.02141 0.0
O345 O 0.65269 0.44708 0.01957 0.0
O346 O 0.65552 0.394 0.04412 0.0
O347 O 0.73965 0.4114 0.01875 0.0
C348 C 0.76136 0.40438 1.00313 0.0
O349 O 0.74635 0.40023 0.98348 0.0
O350 O 0.66052 0.40002 0.98263 0.0
Mg351 Mg 0.60924 0.84238 0.01997 0.0
C352 C 0.61339 0.8561 0.06585 0.0
O353 O 0.59091 0.83798 0.06474 0.0
C354 C 0.61453 0.87078 0.97556 0.0
O355 O 0.59436 0.88667 0.98574 0.0
C356 C 0.65671 0.79941 1.01029 0.0
O357 O 0.64813 0.80476 0.98965 0.0
O358 O 0.64176 0.81092 0.02606 0.0
O359 O 0.62759 0.86388 0.04781 0.0
O360 O 0.5468 0.84019 0.025 0.0
C361 C 0.52119 0.84754 1.01162 0.0
O362 O 0.5314 0.8542 0.99162 0.0
O363 O 0.62432 0.8528 0.98611 0.0
Mg364 Mg 0.36343 0.14823 0.76642 0.0
C365 C 0.36114 0.13633 0.81342 0.0
O366 O 0.32954 0.14803 0.80964 0.0
C367 C 0.36642 0.14364 0.71916 0.0
O368 O 0.33869 0.15815 0.72392 0.0
C369 C 0.40412 0.1922 0.78087 0.0
O370 O 0.40792 0.18067 0.7995 0.0
O371 O 0.38345 0.18382 0.76535 0.0
O372 O 0.38383 0.13261 0.7972 0.0
O373 O 0.30192 0.14026 0.76473 0.0
C374 C 0.27229 0.15194 0.76976 0.0
O375 O 0.27634 0.17317 0.77673 0.0
O376 O 0.38519 0.13473 0.73517 0.0
Mg377 Mg 0.41788 0.60175 0.76086 0.0
C378 C 0.41749 0.60466 0.80853 0.0
O379 O 0.43193 0.58457 0.80317 0.0
C380 C 0.41931 0.61271 0.71334 0.0
O381 O 0.44389 0.59574 0.71545 0.0
C382 C 0.34387 0.57835 0.76054 0.0
O383 O 0.33606 0.60041 0.76038 0.0
O384 O 0.37906 0.57224 0.76067 0.0
O385 O 0.40777 0.61817 0.79287 0.0
O386 O 0.47945 0.59447 0.75956 0.0
C387 C 0.50177 0.61175 0.76134 0.0
O388 O 0.48648 0.63218 0.76394 0.0
O389 O 0.40328 0.6206 0.73077 0.0
Mg390 Mg 0.36025 0.60006 0.01735 0.0
C391 C 0.37914 0.6014 0.96993 0.0
O392 O 0.37987 0.57953 0.9752 0.0
C393 C 0.36822 0.6099 0.06464 0.0
O394 O 0.35685 0.5884 0.06375 0.0
C395 C 0.43495 0.5777 0.02165 0.0
O396 O 0.44227 0.59983 0.02143 0.0
O397 O 0.40002 0.5712 0.02025 0.0
O398 O 0.37155 0.61592 0.98511 0.0
O399 O 0.29895 0.59216 0.01864 0.0
C400 C 0.27668 0.60952 0.01844 0.0
O401 O 0.29208 0.6301 0.01741 0.0
O402 O 0.37245 0.62085 0.04648 0.0
Mg403 Mg 0.43322 0.158 1.01454 0.0
C404 C 0.39456 0.13901 0.97371 0.0
O405 O 0.36668 0.15198 0.98141 0.0
C406 C 0.43248 0.13236 0.05836 0.0
O407 O 0.46723 0.12675 0.05174 0.0
C408 C 0.38277 0.19899 0.02499 0.0
O409 O 0.38903 0.19168 0.04533 0.0
O410 O 0.40003 0.18923 1.0089 0.0
O411 O 0.42508 0.13685 0.98517 0.0
O412 O 0.49522 0.16281 0.01844 0.0
C413 C 0.51679 0.14598 1.01322 0.0
O414 O 0.50084 0.12734 1.00506 0.0
O415 O 0.41096 0.14377 0.04537 0.0
H416 H 0.20575 0.35254 0.17856 0.0
H417 H 0.11458 0.39322 0.20812 0.0
H418 H 0.09219 0.40413 0.17047 0.0
H419 H 0.22525 0.39012 0.13095 0.0
H420 H 0.23349 0.36628 0.11246 0.0
H421 H 0.24432 0.36356 0.14166 0.0
H422 H 0.20012 0.32778 0.14404 0.0
H423 H 0.18921 0.33038 0.11491 0.0
H424 H 0.15075 0.32991 0.13501 0.0
H425 H 0.07703 0.40811 0.12938 0.0
H426 H 0.06934 0.40413 0.08873 0.0
H427 H 0.17062 0.36066 0.08646 0.0
C428 C 0.18142 0.36405 0.17721 0.0
C429 C 0.16202 0.37212 0.19635 0.0
C430 C 0.13001 0.3869 0.19373 0.0
C431 C 0.11715 0.39322 0.17241 0.0
C432 C 0.1367 0.38468 0.1539 0.0
C433 C 0.16821 0.37043 0.15614 0.0
C434 C 0.18279 0.36237 0.13373 0.0
C435 C 0.2239 0.37111 0.12945 0.0
C436 C 0.18056 0.33606 0.13182 0.0
C437 C 0.15411 0.37392 0.11847 0.0
C438 C 0.12796 0.38689 0.13037 0.0
C439 C 0.09761 0.39819 0.1199 0.0
C440 C 0.09349 0.39583 0.09678 0.0
C441 C 0.11947 0.38218 0.08433 0.0
C442 C 0.15055 0.37147 0.09539 0.0
H443 H 0.11437 0.88113 0.08623 0.0
H444 H 0.2105 0.83375 0.08899 0.0
H445 H 0.20289 0.83095 0.12978 0.0
H446 H 0.13936 0.91227 0.13258 0.0
H447 H 0.0909 0.91716 0.14215 0.0
H448 H 0.09994 0.91258 0.11306 0.0
H449 H 0.0515 0.87872 0.11269 0.0
H450 H 0.04196 0.88333 0.1418 0.0
H451 H 0.05728 0.8555 0.13222 0.0
H452 H 0.18931 0.83716 0.17116 0.0
H453 H 0.17015 0.85125 0.20847 0.0
H454 H 0.08374 0.89462 0.17775 0.0
C455 C 0.13318 0.86962 0.09526 0.0
C456 C 0.1629 0.85755 0.0843 0.0
C457 C 0.18729 0.84304 0.09692 0.0
C458 C 0.18322 0.84136 0.12015 0.0
C459 C 0.15446 0.85417 0.13051 0.0
C460 C 0.12963 0.86784 0.11837 0.0
C461 C 0.10318 0.88137 0.13342 0.0
C462 C 0.10871 0.90737 0.1301 0.0
C463 C 0.06098 0.8743 0.12982 0.0
C464 C 0.11763 0.87371 0.15595 0.0
C465 C 0.14693 0.85783 0.15406 0.0
C466 C 0.166 0.84935 0.1728 0.0
C467 C 0.15498 0.85745 0.19393 0.0
C468 C 0.1254 0.874 0.1961 0.0
C469 C 0.10633 0.88188 0.17678 0.0
H470 H 0.88718 0.66985 0.84463 0.0
H471 H 0.86152 0.59812 0.83264 0.0
H472 H 0.8724 0.58981 0.87276 0.0
H473 H 0.96368 0.66011 0.8844 0.0
H474 H 0.95113 0.68501 0.90061 0.0
H475 H 0.94171 0.68457 0.87116 0.0
H476 H 0.86981 0.6936 0.87873 0.0
H477 H 0.87893 0.69389 0.90819 0.0
H478 H 0.84254 0.67513 0.89692 0.0
H479 H 0.88181 0.59075 0.9156 0.0
H480 H 0.89532 0.59996 0.95524 0.0
H481 H 0.91804 0.67064 0.93692 0.0
C482 C 0.88393 0.65234 0.85039 0.0
C483 C 0.87318 0.63463 0.83568 0.0
C484 C 0.86981 0.6119 0.84374 0.0
C485 C 0.87577 0.60709 0.86647 0.0
C486 C 0.88574 0.62516 0.88066 0.0
C487 C 0.89041 0.64725 0.87272 0.0
C488 C 0.90183 0.66373 0.89094 0.0
C489 C 0.94197 0.67395 0.88651 0.0
C490 C 0.87146 0.6827 0.89386 0.0
C491 C 0.90234 0.64764 0.91059 0.0
C492 C 0.89272 0.62547 0.90455 0.0
C493 C 0.88983 0.60801 0.92039 0.0
C494 C 0.89736 0.61338 0.94284 0.0
C495 C 0.9081 0.63594 0.94908 0.0
C496 C 0.91048 0.65314 0.93266 0.0
H497 H 0.82102 0.08462 0.94189 0.0
H498 H 0.91255 0.13199 0.95958 0.0
H499 H 0.92392 0.13979 0.9196 0.0
H500 H 0.86825 0.05969 0.89704 0.0
H501 H 0.82549 0.05602 0.8804 0.0
H502 H 0.82195 0.05648 0.91022 0.0
H503 H 0.77253 0.0897 0.90782 0.0
H504 H 0.77604 0.08939 0.87793 0.0
H505 H 0.78501 0.11557 0.89304 0.0
H506 H 0.92795 0.14005 0.87733 0.0
H507 H 0.92711 0.13096 0.83713 0.0
H508 H 0.83345 0.08295 0.84812 0.0
C509 C 0.84307 0.09695 0.93746 0.0
C510 C 0.86577 0.10781 0.95385 0.0
C511 C 0.89473 0.12353 0.94727 0.0
C512 C 0.90125 0.12814 0.92463 0.0
C513 C 0.87851 0.1169 0.90887 0.0
C514 C 0.85005 0.1016 0.91507 0.0
C515 C 0.8316 0.09028 0.89511 0.0
C516 C 0.83719 0.06408 0.89574 0.0
C517 C 0.78876 0.09663 0.89338 0.0
C518 C 0.85468 0.10118 0.87663 0.0
C519 C 0.88122 0.11676 0.88478 0.0
C520 C 0.90701 0.12806 0.87077 0.0
C521 C 0.90625 0.12284 0.84795 0.0
C522 C 0.88018 0.10626 0.8395 0.0
C523 C 0.85358 0.09578 0.85404 0.0
H524 H 0.14319 0.81082 0.69031 0.0
H525 H 0.14189 0.88371 0.7049 0.0
H526 H 0.13532 0.89205 0.6646 0.0
H527 H 0.19837 0.8138 0.64071 0.0
H528 H 0.17177 0.79134 0.62693 0.0
H529 H 0.17567 0.79146 0.65678 0.0
H530 H 0.10126 0.79063 0.6602 0.0
H531 H 0.09713 0.79037 0.63036 0.0
H532 H 0.07312 0.81228 0.64629 0.0
H533 H 0.13082 0.89187 0.62179 0.0
H534 H 0.12558 0.88315 0.5815 0.0
H535 H 0.12916 0.81036 0.59649 0.0
C536 C 0.14144 0.82858 0.68513 0.0
C537 C 0.14316 0.84663 0.70077 0.0
C538 C 0.14054 0.8696 0.69321 0.0
C539 C 0.13693 0.87449 0.67036 0.0
C540 C 0.13574 0.85619 0.65536 0.0
C541 C 0.13765 0.8337 0.66257 0.0
C542 C 0.1356 0.817 0.64338 0.0
C543 C 0.17255 0.80256 0.64187 0.0
C544 C 0.09964 0.80167 0.64517 0.0
C545 C 0.13246 0.83353 0.62413 0.0
C546 C 0.13269 0.85609 0.63122 0.0
C547 C 0.13047 0.87425 0.61612 0.0
C548 C 0.12762 0.86915 0.59328 0.0
C549 C 0.12685 0.84608 0.58582 0.0
C550 C 0.12948 0.82819 0.60157 0.0
H551 H 0.18656 0.42623 0.59721 0.0
H552 H 0.14533 0.35784 0.58156 0.0
H553 H 0.13172 0.35122 0.62163 0.0
H554 H 0.2312 0.41343 0.64993 0.0
H555 H 0.21611 0.44012 0.66227 0.0
H556 H 0.22469 0.43849 0.63278 0.0
H557 H 0.1557 0.45351 0.62509 0.0
H558 H 0.147 0.45531 0.65452 0.0
H559 H 0.11509 0.43876 0.63712 0.0
H560 H 0.12242 0.35288 0.66439 0.0
H561 H 0.1127 0.36392 0.70394 0.0
H562 H 0.15767 0.43171 0.68956 0.0
C563 C 0.17508 0.40971 0.60215 0.0
C564 C 0.16739 0.39244 0.5863 0.0
C565 C 0.15157 0.37128 0.59347 0.0
C566 C 0.14393 0.36736 0.61618 0.0
C567 C 0.15196 0.38486 0.6314 0.0
C568 C 0.16686 0.40569 0.62451 0.0
C569 C 0.17084 0.42237 0.6436 0.0
C570 C 0.21323 0.42898 0.64736 0.0
C571 C 0.14565 0.44374 0.63986 0.0
C572 C 0.15571 0.40781 0.66243 0.0
C573 C 0.1454 0.3861 0.6553 0.0
C574 C 0.13043 0.36985 0.67007 0.0
C575 C 0.1252 0.37619 0.6925 0.0
C576 C 0.13435 0.39866 0.69973 0.0
C577 C 0.15025 0.41442 0.68449 0.0
H578 H 0.89636 0.18429 0.34707 0.0
H579 H 0.87775 0.11211 0.33313 0.0
H580 H 0.88678 0.10326 0.37324 0.0
H581 H 0.97018 0.17655 0.38848 0.0
H582 H 0.95372 0.20051 0.40485 0.0
H583 H 0.94657 0.20043 0.37519 0.0
H584 H 0.87331 0.20648 0.38109 0.0
H585 H 0.88017 0.20639 0.41075 0.0
H586 H 0.84679 0.18655 0.39816 0.0
H587 H 0.89487 0.10332 0.41602 0.0
H588 H 0.90584 0.11193 0.45602 0.0
H589 H 0.92009 0.18397 0.43977 0.0
C590 C 0.89429 0.16657 0.35236 0.0
C591 C 0.88618 0.14888 0.33709 0.0
C592 C 0.88409 0.1259 0.34465 0.0
C593 C 0.88901 0.12076 0.36736 0.0
C594 C 0.89637 0.13879 0.38208 0.0
C595 C 0.89941 0.16119 0.37471 0.0
C596 C 0.90762 0.17762 0.39349 0.0
C597 C 0.94686 0.18947 0.39031 0.0
C598 C 0.87502 0.19529 0.39602 0.0
C599 C 0.90841 0.16109 0.41276 0.0
C600 C 0.90173 0.13875 0.40605 0.0
C601 C 0.90039 0.12075 0.42137 0.0
C602 C 0.90648 0.12578 0.44402 0.0
C603 C 0.91402 0.14858 0.45095 0.0
C604 C 0.91475 0.16632 0.43503 0.0
H605 H 0.86836 0.61305 0.33627 0.0
H606 H 0.97318 0.65361 0.33814 0.0
H607 H 0.96596 0.65817 0.37877 0.0
H608 H 0.81649 0.64391 0.38142 0.0
H609 H 0.79573 0.61767 0.39182 0.0
H610 H 0.80612 0.62062 0.3626 0.0
H611 H 0.84753 0.5837 0.36408 0.0
H612 H 0.83755 0.58072 0.39327 0.0
H613 H 0.88668 0.58191 0.38371 0.0
H614 H 0.95134 0.65434 0.41989 0.0
H615 H 0.93019 0.64264 0.45754 0.0
H616 H 0.83545 0.60449 0.4283 0.0
C617 C 0.88924 0.62345 0.34509 0.0
C618 C 0.92123 0.63308 0.33396 0.0
C619 C 0.94831 0.64616 0.34626 0.0
C620 C 0.94443 0.64888 0.36936 0.0
C621 C 0.91319 0.63853 0.37992 0.0
C622 C 0.8859 0.62623 0.36812 0.0
C623 C 0.85691 0.61511 0.38351 0.0
C624 C 0.81642 0.62492 0.3796 0.0
C625 C 0.85722 0.58881 0.38099 0.0
C626 C 0.87279 0.62247 0.40584 0.0
C627 C 0.90498 0.6362 0.40349 0.0
C628 C 0.92581 0.64388 0.42191 0.0
C629 C 0.91364 0.63713 0.44324 0.0
C630 C 0.88112 0.6227 0.44591 0.0
C631 C 0.86025 0.61567 0.4269 0.0
H632 H 0.61131 0.32027 0.59262 0.0
H633 H 0.63569 0.39118 0.57581 0.0
H634 H 0.6454 0.39986 0.61594 0.0
H635 H 0.55981 0.33046 0.64305 0.0
H636 H 0.57978 0.3057 0.65679 0.0
H637 H 0.57406 0.30574 0.62703 0.0
H638 H 0.64665 0.29664 0.62221 0.0
H639 H 0.65256 0.29645 0.65194 0.0
H640 H 0.68197 0.31506 0.63506 0.0
H641 H 0.65179 0.40003 0.65907 0.0
H642 H 0.65824 0.39118 0.69935 0.0
H643 H 0.63082 0.31994 0.6857 0.0
C644 C 0.61848 0.33772 0.59725 0.0
C645 C 0.62247 0.3551 0.58109 0.0
C646 C 0.63244 0.3776 0.58795 0.0
C647 C 0.63787 0.38266 0.61069 0.0
C648 C 0.63347 0.365 0.62622 0.0
C649 C 0.62426 0.34294 0.61962 0.0
C650 C 0.62227 0.32664 0.63908 0.0
C651 C 0.58156 0.31655 0.64163 0.0
C652 C 0.65267 0.30758 0.63694 0.0
C653 C 0.63176 0.34286 0.65785 0.0
C654 C 0.6379 0.36498 0.65033 0.0
C655 C 0.64707 0.38274 0.66504 0.0
C656 C 0.65053 0.3776 0.68788 0.0
C657 C 0.64517 0.35486 0.69564 0.0
C658 C 0.63533 0.33748 0.68034 0.0
H659 H 0.66086 0.89301 0.69594 0.0
H660 H 0.5491 0.86043 0.69039 0.0
H661 H 0.55994 0.85421 0.65022 0.0
H662 H 0.65242 0.92455 0.64787 0.0
H663 H 0.70219 0.92282 0.6396 0.0
H664 H 0.68951 0.92052 0.66849 0.0
H665 H 0.72441 0.88135 0.67099 0.0
H666 H 0.73751 0.88361 0.64207 0.0
H667 H 0.71173 0.85874 0.65188 0.0
H668 H 0.57949 0.85553 0.61005 0.0
H669 H 0.60505 0.86569 0.57296 0.0
H670 H 0.70257 0.89929 0.60431 0.0
C671 C 0.63945 0.88375 0.68639 0.0
C672 C 0.60453 0.87671 0.69627 0.0
C673 C 0.57629 0.86561 0.68311 0.0
C674 C 0.58223 0.86199 0.66031 0.0
C675 C 0.61644 0.86977 0.65084 0.0
C676 C 0.64462 0.88043 0.66346 0.0
C677 C 0.67649 0.88977 0.64879 0.0
C678 C 0.68035 0.91596 0.65134 0.0
C679 C 0.71481 0.87764 0.65373 0.0
C680 C 0.66126 0.88331 0.62599 0.0
C681 C 0.627 0.87138 0.62754 0.0
C682 C 0.60657 0.86461 0.60864 0.0
C683 C 0.6213 0.87046 0.58763 0.0
C684 C 0.6558 0.88326 0.58569 0.0
C685 C 0.6762 0.8894 0.60519 0.0
H686 H 0.3088 0.64029 0.35062 0.0
H687 H 0.41617 0.61187 0.32632 0.0
H688 H 0.43406 0.6013 0.36489 0.0
H689 H 0.34615 0.66669 0.39656 0.0
H690 H 0.30553 0.66134 0.41446 0.0
H691 H 0.29872 0.66297 0.38489 0.0
H692 H 0.2675 0.62254 0.38498 0.0
H693 H 0.27416 0.62079 0.41467 0.0
H694 H 0.29332 0.59869 0.39688 0.0
H695 H 0.44381 0.59905 0.4068 0.0
H696 H 0.44463 0.60542 0.44746 0.0
H697 H 0.33027 0.635 0.4436 0.0
C698 C 0.33571 0.63133 0.35327 0.0
C699 C 0.36106 0.62685 0.33544 0.0
C700 C 0.39614 0.61531 0.33971 0.0
C701 C 0.4065 0.60923 0.36157 0.0
C702 C 0.38123 0.61456 0.37887 0.0
C703 C 0.34635 0.62516 0.37486 0.0
C704 C 0.32575 0.63101 0.39627 0.0
C705 C 0.31866 0.65704 0.39815 0.0
C706 C 0.28794 0.61744 0.39832 0.0
C707 C 0.35511 0.62292 0.41309 0.0
C708 C 0.38672 0.61316 0.40282 0.0
C709 C 0.41888 0.60625 0.415 0.0
C710 C 0.41908 0.60994 0.43812 0.0
C711 C 0.38742 0.6206 0.4488 0.0
C712 C 0.3547 0.6265 0.43607 0.0
H713 H 0.34066 0.09646 0.42562 0.0
H714 H 0.41334 0.15038 0.45251 0.0
H715 H 0.42975 0.16258 0.41418 0.0
H716 H 0.40189 0.08031 0.38277 0.0
H717 H 0.3641 0.07427 0.36306 0.0
H718 H 0.35488 0.07172 0.39238 0.0
H719 H 0.29779 0.1001 0.38883 0.0
H720 H 0.30683 0.10272 0.35943 0.0
H721 H 0.30569 0.12799 0.3767 0.0
H722 H 0.44244 0.16645 0.37258 0.0
H723 H 0.45101 0.16127 0.33205 0.0
H724 H 0.3698 0.10462 0.33329 0.0
C725 C 0.35954 0.11111 0.42356 0.0
C726 C 0.37564 0.12251 0.4421 0.0
C727 C 0.40052 0.14144 0.43856 0.0
C728 C 0.40994 0.1485 0.41685 0.0
C729 C 0.39404 0.13654 0.39893 0.0
C730 C 0.36922 0.1183 0.40213 0.0
C731 C 0.35793 0.10722 0.38032 0.0
C732 C 0.37047 0.0819 0.3796 0.0
C733 C 0.31448 0.10967 0.37608 0.0
C734 C 0.38102 0.12169 0.36428 0.0
C735 C 0.40136 0.13869 0.37522 0.0
C736 C 0.42626 0.15336 0.36385 0.0
C737 C 0.43092 0.1503 0.34081 0.0
C738 C 0.41099 0.13259 0.32943 0.0
C739 C 0.38522 0.11845 0.34139 0.0
H740 H 0.61274 0.85472 0.19771 0.0
H741 H 0.70743 0.90334 0.19624 0.0
H742 H 0.69989 0.90713 0.15554 0.0
H743 H 0.63836 0.82527 0.1501 0.0
H744 H 0.58992 0.82025 0.14049 0.0
H745 H 0.59916 0.82388 0.1697 0.0
H746 H 0.54986 0.85718 0.17126 0.0
H747 H 0.54024 0.85355 0.14201 0.0
H748 H 0.55498 0.88116 0.15255 0.0
H749 H 0.68614 0.90237 0.11412 0.0
H750 H 0.66707 0.88949 0.07634 0.0
H751 H 0.58209 0.84402 0.10565 0.0
C752 C 0.63127 0.86664 0.18896 0.0
C753 C 0.66053 0.87883 0.20025 0.0
C754 C 0.68464 0.8939 0.18802 0.0
C755 C 0.68056 0.89619 0.16486 0.0
C756 C 0.65212 0.88339 0.15415 0.0
C757 C 0.6277 0.86905 0.16588 0.0
C758 C 0.60146 0.85582 0.1504 0.0
C759 C 0.60762 0.82977 0.15282 0.0
C760 C 0.55913 0.86232 0.15429 0.0
C761 C 0.61559 0.86445 0.12812 0.0
C762 C 0.6445 0.88055 0.13052 0.0
C763 C 0.66316 0.88999 0.11207 0.0
C764 C 0.65218 0.88259 0.09068 0.0
C765 C 0.62308 0.86578 0.08799 0.0
C766 C 0.60435 0.85696 0.10704 0.0
H767 H 0.61964 0.39753 0.0809 0.0
H768 H 0.71754 0.35137 0.0822 0.0
H769 H 0.71063 0.34747 0.12291 0.0
H770 H 0.64385 0.42778 0.12808 0.0
H771 H 0.59536 0.43162 0.13804 0.0
H772 H 0.60411 0.42805 0.10877 0.0
H773 H 0.55717 0.39347 0.10766 0.0
H774 H 0.54784 0.39711 0.13692 0.0
H775 H 0.56422 0.36981 0.12653 0.0
H776 H 0.69754 0.35226 0.16418 0.0
H777 H 0.67771 0.36427 0.202 0.0
H778 H 0.58915 0.40751 0.17314 0.0
C779 C 0.63895 0.38604 0.0896 0.0
C780 C 0.669 0.37465 0.07828 0.0
C781 C 0.69413 0.36018 0.09045 0.0
C782 C 0.69046 0.35786 0.11361 0.0
C783 C 0.6614 0.37003 0.12436 0.0
C784 C 0.63582 0.38364 0.11269 0.0
C785 C 0.60901 0.39633 0.12822 0.0
C786 C 0.61337 0.42249 0.12562 0.0
C787 C 0.56707 0.38871 0.12462 0.0
C788 C 0.62414 0.38823 0.15048 0.0
C789 C 0.65411 0.3729 0.14798 0.0
C790 C 0.67375 0.36401 0.16632 0.0
C791 C 0.66238 0.37098 0.18773 0.0
C792 C 0.63185 0.38679 0.19058 0.0
C793 C 0.61248 0.39531 0.17162 0.0
H794 H 0.31747 0.14312 0.85035 0.0
H795 H 0.42717 0.11536 0.8289 0.0
H796 H 0.44469 0.10817 0.86826 0.0
H797 H 0.35259 0.17364 0.89507 0.0
H798 H 0.31153 0.16873 0.91276 0.0
H799 H 0.30581 0.16844 0.88306 0.0
H800 H 0.27628 0.12762 0.88516 0.0
H801 H 0.28193 0.12777 0.91496 0.0
H802 H 0.30269 0.10496 0.89869 0.0
H803 H 0.45252 0.10804 0.91032 0.0
H804 H 0.45098 0.11602 0.95068 0.0
H805 H 0.33598 0.14414 0.94377 0.0
C806 C 0.34492 0.13509 0.8538 0.0
C807 C 0.37092 0.12971 0.83652 0.0
C808 C 0.4067 0.11949 0.84187 0.0
C809 C 0.41682 0.11531 0.86417 0.0
C810 C 0.39071 0.1213 0.88083 0.0
C811 C 0.35541 0.13089 0.87583 0.0
C812 C 0.33373 0.1377 0.8966 0.0
C813 C 0.32547 0.16366 0.89688 0.0
C814 C 0.29645 0.12367 0.89899 0.0
C815 C 0.36281 0.13113 0.91418 0.0
C816 C 0.39527 0.12137 0.90485 0.0
C817 C 0.42701 0.11536 0.9178 0.0
C818 C 0.42584 0.11995 0.94073 0.0
C819 C 0.39329 0.13066 0.95043 0.0
C820 C 0.36112 0.13573 0.93696 0.0
H821 H 0.43148 0.57707 0.84403 0.0
H822 H 0.3897 0.64494 0.82692 0.0
H823 H 0.37844 0.65293 0.86696 0.0
H824 H 0.36344 0.56557 0.88582 0.0
H825 H 0.39675 0.55005 0.90318 0.0
H826 H 0.40364 0.55071 0.87354 0.0
H827 H 0.47267 0.56672 0.87916 0.0
H828 H 0.46598 0.56612 0.90885 0.0
H829 H 0.47964 0.59247 0.89528 0.0
H830 H 0.37007 0.65244 0.9097 0.0
H831 H 0.36314 0.64296 0.94977 0.0
H832 H 0.40961 0.57518 0.93706 0.0
C833 C 0.42029 0.59375 0.84859 0.0
C834 C 0.41161 0.61042 0.83231 0.0
C835 C 0.39667 0.63192 0.83911 0.0
C836 C 0.39026 0.63661 0.86181 0.0
C837 C 0.39896 0.61961 0.87741 0.0
C838 C 0.41362 0.59861 0.87096 0.0
C839 C 0.41915 0.58273 0.89054 0.0
C840 C 0.39425 0.56099 0.88812 0.0
C841 C 0.4619 0.57666 0.89363 0.0
C842 C 0.40486 0.59788 0.90913 0.0
C843 C 0.39365 0.61919 0.90143 0.0
C844 C 0.37892 0.63581 0.91584 0.0
C845 C 0.37516 0.63031 0.93857 0.0
C846 C 0.38572 0.60832 0.94653 0.0
C847 C 0.40113 0.59213 0.93154 0.0
H848 H 0.95979 0.22086 0.22218 0.0
H849 H 0.93731 0.21427 0.2929 0.0
H850 H 0.98997 0.2416 0.30083 0.0
H851 H 0.06163 0.22445 0.22543 0.0
H852 H 0.06639 0.24566 0.20379 0.0
H853 H 0.02634 0.226 0.20348 0.0
H854 H 0.9785 0.26006 0.20251 0.0
H855 H 0.01841 0.27981 0.20244 0.0
H856 H 0.98168 0.28209 0.22348 0.0
H857 H 0.04807 0.26765 0.30113 0.0
H858 H 0.10116 0.2948 0.29366 0.0
H859 H 0.08379 0.28584 0.22269 0.0
C860 C 0.96565 0.22537 0.23933 0.0
C861 C 0.94443 0.2154 0.25692 0.0
C862 C 0.95296 0.22178 0.27913 0.0
C863 C 0.98304 0.23717 0.28382 0.0
C864 C 1.004 0.24624 0.26611 0.0
C865 C 0.99521 0.24092 0.24429 0.0
C866 C 0.02166 0.25341 0.2283 0.0
C867 C 0.04541 0.23636 0.21444 0.0
C868 C 0.99869 0.26982 0.2133 0.0
C869 C 0.0469 0.26645 0.24453 0.0
C870 C 0.03655 0.26185 0.26626 0.0
C871 C 0.05621 0.27153 0.28418 0.0
C872 C 0.08654 0.2868 0.27976 0.0
C873 C 0.09663 0.29249 0.25759 0.0
C874 C 0.07674 0.28189 0.23981 0.0
H875 H 0.232 0.94729 0.29713 0.0
H876 H 0.18184 0.96152 0.23254 0.0
H877 H 0.22929 0.99282 0.22688 0.0
H878 H 0.24924 0.00698 0.31169 0.0
H879 H 0.29329 0.00072 0.32634 0.0
H880 H 0.25561 0.97951 0.32496 0.0
H881 H 0.30387 0.95036 0.30827 0.0
H882 H 0.34159 0.97156 0.30934 0.0
H883 H 0.32998 0.95773 0.28337 0.0
H884 H 0.28527 0.02071 0.22745 0.0
H885 H 0.33899 0.047 0.23619 0.0
H886 H 0.34929 0.01639 0.30172 0.0
C887 C 0.23091 0.95708 0.28183 0.0
C888 C 0.2035 0.95196 0.26517 0.0
C889 C 0.20257 0.96528 0.24551 0.0
C890 C 0.22954 0.98294 0.24212 0.0
C891 C 0.25667 0.98729 0.25874 0.0
C892 C 0.25699 0.97505 0.27841 0.0
C893 C 0.28814 0.98366 0.294 0.0
C894 C 0.27051 0.99329 0.31552 0.0
C895 C 0.31763 0.96469 0.29903 0.0
C896 C 0.30569 0.00251 0.27995 0.0
C897 C 0.28749 0.00411 0.25954 0.0
C898 C 0.29944 0.01976 0.24345 0.0
C899 C 0.33019 0.03451 0.24853 0.0
C900 C 0.34829 0.03379 0.26967 0.0
C901 C 0.33593 0.01742 0.28547 0.0
H902 H 0.0565 0.94859 0.98945 0.0
H903 H 0.10634 0.96006 0.05463 0.0
H904 H 0.05868 0.99091 0.06158 0.0
H905 H 0.03868 0.00903 0.9775 0.0
H906 H 0.99484 0.0031 0.9625 0.0
H907 H 0.03292 0.98216 0.96301 0.0
H908 H 0.985 0.95188 0.97822 0.0
H909 H 0.94693 0.97282 0.97811 0.0
H910 H 0.95872 0.9578 1.00341 0.0
H911 H 1.00187 0.01834 0.06225 0.0
H912 H 0.94793 0.04472 0.05449 0.0
H913 H 0.93884 0.01728 0.98761 0.0
C914 C 0.05757 0.95777 1.00511 0.0
C915 C 0.0849 0.95198 0.02158 0.0
C916 C 0.08574 0.96441 0.04178 0.0
C917 C 0.05861 0.98178 0.04591 0.0
C918 C 0.03143 0.98674 0.02948 0.0
C919 C 0.03136 0.97545 1.00927 0.0
C920 C 1.00014 0.98455 0.99405 0.0
C921 C 0.0177 0.99536 0.97303 0.0
C922 C 0.97098 0.96563 0.9881 0.0
C923 C 0.98221 0.00256 1.00892 0.0
C924 C 1.00026 0.00332 0.02942 0.0
C925 C 0.98787 0.01807 0.04617 0.0
C926 C 0.95699 0.03289 0.04165 0.0
C927 C 0.93927 0.03314 0.0204 0.0
C928 C 0.9519 0.01756 1.00397 0.0
H929 H 0.34464 0.22549 0.05556 0.0
H930 H 0.35082 0.2109 0.98485 0.0
H931 H 0.29551 0.23665 0.9783 0.0
H932 H 0.24238 0.22742 0.05969 0.0
H933 H 0.24168 0.25076 0.07935 0.0
H934 H 0.28222 0.23155 0.0785 0.0
H935 H 0.32844 0.26596 0.07259 0.0
H936 H 0.2881 0.28529 0.07372 0.0
H937 H 0.31976 0.2856 0.04998 0.0
H938 H 0.23749 0.26283 0.97975 0.0
H939 H 0.18568 0.29037 0.98855 0.0
H940 H 0.21859 0.28841 0.05819 0.0
C941 C 0.33461 0.22784 0.03866 0.0
C942 C 0.35213 0.21615 0.02072 0.0
C943 C 0.33806 0.21974 0.99886 0.0
C944 C 0.30649 0.23423 0.99498 0.0
C945 C 0.28944 0.24514 1.01311 0.0
C946 C 0.30334 0.24234 0.03447 0.0
C947 C 0.28021 0.25624 0.05103 0.0
C948 C 0.26045 0.24055 0.06815 0.0
C949 C 0.30564 0.27435 0.0625 0.0
C950 C 0.25106 0.26727 0.03566 0.0
C951 C 0.25662 0.2605 1.01388 0.0
C952 C 0.233 0.26832 0.99674 0.0
C953 C 0.20348 0.28387 1.00193 0.0
C954 C 0.19803 0.29159 0.02406 0.0
C955 C 0.22196 0.28288 0.04111 0.0
H956 H 0.92308 0.71916 0.76374 0.0
H957 H 0.99734 0.66881 0.79525 0.0
H958 H 0.04935 0.6973 0.79741 0.0
H959 H 0.99583 0.74569 0.73061 0.0
H960 H 0.97773 0.77445 0.73396 0.0
H961 H 0.94524 0.7504 0.73546 0.0
H962 H 0.92241 0.76368 0.77439 0.0
H963 H 0.95466 0.78787 0.77294 0.0
H964 H 0.95743 0.7683 0.79609 0.0
H965 H 0.09469 0.73041 0.79482 0.0
H966 H 0.12916 0.76708 0.78933 0.0
H967 H 0.02603 0.7965 0.76016 0.0
C968 C 0.95014 0.71423 0.77129 0.0
C969 C 0.95602 0.69167 0.77926 0.0
C970 C 0.992 0.68591 0.78893 0.0
C971 C 0.02187 0.70199 0.79026 0.0
C972 C 1.01544 0.7239 0.78195 0.0
C973 C 0.98045 0.73017 0.77282 0.0
C974 C 0.9815 0.7549 0.76498 0.0
C975 C 0.97467 0.75644 0.73975 0.0
C976 C 0.95227 0.76955 0.77787 0.0
C977 C 0.02257 0.76137 0.77098 0.0
C978 C 0.04163 0.7432 0.78071 0.0
C979 C 0.08002 0.74484 0.78733 0.0
C980 C 0.09942 0.76571 0.78408 0.0
C981 C 0.08036 0.78469 0.77437 0.0
C982 C 0.04142 0.78236 0.76771 0.0
H983 H 0.74251 0.94365 0.77596 0.0
H984 H 0.63738 0.97811 0.75576 0.0
H985 H 0.67351 0.01441 0.75177 0.0
H986 H 0.78154 0.99049 0.80806 0.0
H987 H 0.83057 0.98508 0.79982 0.0
H988 H 0.79651 0.96179 0.80102 0.0
H989 H 0.81136 0.95175 0.75994 0.0
H990 H 0.84536 0.97508 0.75858 0.0
H991 H 0.80632 0.97355 0.73887 0.0
H992 H 0.72081 0.04667 0.74957 0.0
H993 H 0.7755 0.07344 0.75051 0.0
H994 H 0.85058 0.01839 0.77255 0.0
C995 C 0.72701 0.95883 0.77072 0.0
C996 C 0.68702 0.95801 0.76614 0.0
C997 C 0.66792 0.97829 0.75938 0.0
C998 C 0.68823 0.99898 0.75703 0.0
C999 C 0.72761 0.99913 0.76155 0.0
C1000 C 0.74681 0.97964 0.76835 0.0
C1001 C 0.78921 0.98454 0.77232 0.0
C1002 C 0.80008 0.98022 0.79676 0.0
C1003 C 0.81455 0.97039 0.75648 0.0
C1004 C 0.79086 0.00987 0.76669 0.0
C1005 C 0.75498 0.01786 0.76044 0.0
C1006 C 0.74901 0.04062 0.75446 0.0
C1007 C 0.78041 0.0557 0.75504 0.0
C1008 C 0.81748 0.04807 0.76163 0.0
C1009 C 0.8227 0.02476 0.76741 0.0
H1010 H 0.68694 0.76728 0.98186 0.0
H1011 H 0.69751 0.79394 0.04899 0.0
H1012 H 0.75384 0.76893 0.05535 0.0
H1013 H 0.71209 0.70861 0.99574 0.0
H1014 H 0.73761 0.70398 0.97004 0.0
H1015 H 0.69827 0.72403 0.97101 0.0
H1016 H 0.74315 0.75584 0.95562 0.0
H1017 H 0.78279 0.73596 0.95494 0.0
H1018 H 0.78723 0.76251 0.97011 0.0
H1019 H 0.81141 0.74219 0.05366 0.0
H1020 H 0.85992 0.71219 0.04574 0.0
H1021 H 0.80972 0.70198 0.9804 0.0
C1022 C 0.7009 0.76774 0.99797 0.0
C1023 C 0.68781 0.78263 1.01491 0.0
C1024 C 0.70684 0.78262 0.03578 0.0
C1025 C 0.73906 0.76858 0.0395 0.0
C1026 C 0.7517 0.75446 0.02228 0.0
C1027 C 0.73278 0.75365 1.00206 0.0
C1028 C 0.75143 0.7365 0.98652 0.0
C1029 C 0.72317 0.71713 0.98048 0.0
C1030 C 0.76707 0.74842 0.96556 0.0
C1031 C 0.78387 0.72784 1.00111 0.0
C1032 C 0.7839 0.73861 0.02157 0.0
C1033 C 0.81152 0.73357 0.03772 0.0
C1034 C 0.83915 0.71664 0.03302 0.0
C1035 C 0.83861 0.70477 1.01247 0.0
C1036 C 0.81086 0.71075 0.99627 0.0
H1037 H 0.34784 0.53092 0.76251 0.0
H1038 H 0.26703 0.58762 0.75922 0.0
H1039 H 0.21291 0.56036 0.76012 0.0
H1040 H 0.29309 0.49194 0.72777 0.0
H1041 H 0.30529 0.4669 0.74387 0.0
H1042 H 0.33805 0.49086 0.74272 0.0
H1043 H 0.3377 0.49335 0.78575 0.0
H1044 H 0.30492 0.46941 0.78702 0.0
H1045 H 0.29249 0.49617 0.8002 0.0
H1046 H 0.16709 0.5271 0.7618 0.0
H1047 H 0.1331 0.48986 0.76403 0.0
H1048 H 0.24318 0.45472 0.76621 0.0
C1049 C 0.31877 0.53759 0.76192 0.0
C1050 C 0.31181 0.56146 0.76078 0.0
C1051 C 0.27326 0.56944 0.76009 0.0
C1052 C 0.24221 0.55409 0.76059 0.0
C1053 C 0.24999 0.53072 0.76178 0.0
C1054 C 0.28728 0.52245 0.76241 0.0
C1055 C 0.28755 0.49648 0.76383 0.0
C1056 C 0.30715 0.48593 0.74332 0.0
C1057 C 0.3068 0.48838 0.78549 0.0
C1058 C 0.24466 0.49152 0.76396 0.0
C1059 C 0.2235 0.51151 0.76274 0.0
C1060 C 0.18334 0.5113 0.76273 0.0
C1061 C 0.16427 0.49008 0.76401 0.0
C1062 C 0.18537 0.46935 0.76529 0.0
C1063 C 0.22612 0.47022 0.76523 0.0
H1064 H 0.94742 0.52435 0.55405 0.0
H1065 H 0.94954 0.54603 0.48502 0.0
H1066 H 1.00414 0.51989 0.47794 0.0
H1067 H 0.04827 0.51957 0.56183 0.0
H1068 H 0.04565 0.49421 0.57892 0.0
H1069 H 1.00613 0.51418 0.57853 0.0
H1070 H 0.95921 0.48158 0.56722 0.0
H1071 H 0.99846 0.46145 0.56796 0.0
H1072 H 0.96978 0.46431 0.54312 0.0
H1073 H 0.06169 0.49306 0.47911 0.0
H1074 H 0.11123 0.46369 0.48715 0.0
H1075 H 0.06932 0.45851 0.5549 0.0
C1076 C 0.95906 0.52342 0.53738 0.0
C1077 C 0.9442 0.53728 0.5201 0.0
C1078 C 0.96024 0.53549 0.4985 0.0
C1079 C 0.99148 0.52081 0.49435 0.0
C1080 C 1.00607 0.50782 0.5119 0.0
C1081 C 0.98988 0.50866 0.53288 0.0
C1082 C 1.01036 0.49261 0.54876 0.0
C1083 C 0.02868 0.50595 0.56815 0.0
C1084 C 0.98281 0.47387 0.55726 0.0
C1085 C 0.04079 0.48273 0.53351 0.0
C1086 C 0.0382 0.49191 0.51238 0.0
C1087 C 0.06379 0.48565 0.49556 0.0
C1088 C 0.09205 0.46911 0.50032 0.0
C1089 C 0.09413 0.45884 0.52164 0.0
C1090 C 0.06841 0.46603 0.53844 0.0
H1091 H 0.36888 0.73594 0.53946 0.0
H1092 H 0.33271 0.69164 0.48524 0.0
H1093 H 0.27455 0.71525 0.48002 0.0
H1094 H 0.27566 0.7459 0.56228 0.0
H1095 H 0.28469 0.77556 0.56901 0.0
H1096 H 0.32394 0.75542 0.56834 0.0
H1097 H 0.35995 0.78095 0.53982 0.0
H1098 H 0.32097 0.80128 0.54057 0.0
H1099 H 0.33606 0.78916 0.51442 0.0
H1100 H 0.21834 0.7427 0.48191 0.0
H1101 H 0.17182 0.77412 0.48849 0.0
H1102 H 0.24587 0.80117 0.54043 0.0
C1103 C 0.34891 0.73129 0.52637 0.0
C1104 C 0.35545 0.71188 0.51279 0.0
C1105 C 0.32851 0.70645 0.49583 0.0
C1106 C 0.29523 0.71971 0.49279 0.0
C1107 C 0.28936 0.73849 0.50669 0.0
C1108 C 0.31569 0.74447 0.52295 0.0
C1109 C 0.30277 0.76566 0.53547 0.0
C1110 C 0.29639 0.7603 0.56024 0.0
C1111 C 0.33165 0.78543 0.53237 0.0
C1112 C 0.26503 0.7706 0.52377 0.0
C1113 C 0.25759 0.75462 0.50735 0.0
C1114 C 0.224 0.7554 0.49463 0.0
C1115 C 0.19765 0.77323 0.49855 0.0
C1116 C 0.20527 0.79013 0.51489 0.0
C1117 C 0.23933 0.7886 0.52771 0.0
H1118 H 0.85089 0.52578 0.2668 0.0
H1119 H 0.76829 0.58162 0.26855 0.0
H1120 H 0.71505 0.5538 0.26735 0.0
H1121 H 0.79748 0.48979 0.22899 0.0
H1122 H 0.81033 0.4634 0.24271 0.0
H1123 H 0.84239 0.48769 0.2439 0.0
H1124 H 0.84171 0.48592 0.28696 0.0
H1125 H 0.80968 0.46162 0.28589 0.0
H1126 H 0.79635 0.4868 0.30148 0.0
H1127 H 0.67023 0.52006 0.26571 0.0
H1128 H 0.63734 0.48244 0.26397 0.0
H1129 H 0.74846 0.4484 0.26336 0.0
C1130 C 0.82162 0.53214 0.26697 0.0
C1131 C 0.81393 0.55595 0.26778 0.0
C1132 C 0.77511 0.56351 0.26794 0.0
C1133 C 0.74453 0.54783 0.26726 0.0
C1134 C 0.75303 0.52453 0.26643 0.0
C1135 C 0.79057 0.51666 0.2663 0.0
C1136 C 0.7916 0.49066 0.26529 0.0
C1137 C 0.81163 0.48241 0.24395 0.0
C1138 C 0.81098 0.48067 0.28615 0.0
C1139 C 0.74885 0.48526 0.26485 0.0
C1140 C 0.7271 0.50504 0.26551 0.0
C1141 C 0.68695 0.50442 0.2652 0.0
C1142 C 0.6685 0.48297 0.2642 0.0
C1143 C 0.6902 0.46244 0.26353 0.0
C1144 C 0.73093 0.46374 0.26387 0.0
H1145 H 0.75827 0.30531 0.51403 0.0
H1146 H 0.65007 0.26832 0.51972 0.0
H1147 H 0.68577 0.23192 0.52294 0.0
H1148 H 0.80712 0.26312 0.48086 0.0
H1149 H 0.85313 0.26725 0.49416 0.0
H1150 H 0.8193 0.29059 0.49275 0.0
H1151 H 0.8223 0.295 0.53557 0.0
H1152 H 0.85613 0.27165 0.53713 0.0
H1153 H 0.81216 0.27055 0.55299 0.0
H1154 H 0.73233 0.19976 0.52523 0.0
H1155 H 0.78693 0.17315 0.52601 0.0
H1156 H 0.8663 0.23035 0.51861 0.0
C1157 C 0.74205 0.28956 0.51602 0.0
C1158 C 0.70126 0.2897 0.51666 0.0
C1159 C 0.68123 0.26869 0.51919 0.0
C1160 C 0.70127 0.24792 0.52105 0.0
C1161 C 0.74137 0.2484 0.52034 0.0
C1162 C 0.76163 0.26862 0.51786 0.0
C1163 C 0.80474 0.26419 0.51729 0.0
C1164 C 0.82208 0.27174 0.49493 0.0
C1165 C 0.82502 0.27606 0.53692 0.0
C1166 C 0.8055 0.23828 0.51979 0.0
C1167 C 0.76853 0.22964 0.52157 0.0
C1168 C 0.7614 0.20631 0.52387 0.0
C1169 C 0.79279 0.19132 0.52428 0.0
C1170 C 0.8311 0.19959 0.52236 0.0
C1171 C 0.83745 0.22348 0.52017 0.0
H1172 H 0.44235 0.21903 0.81128 0.0
H1173 H 0.42564 0.20941 0.74035 0.0
H1174 H 0.47647 0.23803 0.73279 0.0
H1175 H 0.46032 0.28129 0.80816 0.0
H1176 H 0.49544 0.28055 0.83023 0.0
H1177 H 0.45653 0.26008 0.82988 0.0
H1178 H 0.50603 0.22692 0.83157 0.0
H1179 H 0.5451 0.24726 0.83154 0.0
H1180 H 0.54306 0.2251 0.81065 0.0
H1181 H 0.53365 0.26485 0.73303 0.0
H1182 H 0.58608 0.29238 0.7409 0.0
H1183 H 0.56306 0.28636 0.81158 0.0
C1184 C 0.44892 0.22324 0.79415 0.0
C1185 C 0.42998 0.21196 0.77641 0.0
C1186 C 0.43948 0.21794 0.75423 0.0
C1187 C 0.46854 0.23406 0.74976 0.0
C1188 C 0.48744 0.24435 0.76764 0.0
C1189 C 0.47741 0.23958 0.78939 0.0
C1190 C 0.50199 0.25318 0.80557 0.0
C1191 C 0.47708 0.26976 0.81927 0.0
C1192 C 0.52543 0.23715 0.82072 0.0
C1193 C 0.52787 0.26603 0.78953 0.0
C1194 C 0.51927 0.26051 0.76774 0.0
C1195 C 0.54029 0.26952 0.75002 0.0
C1196 C 0.57025 0.28501 0.75467 0.0
C1197 C 0.57862 0.29158 0.77685 0.0
C1198 C 0.55722 0.28177 0.79446 0.0
H1199 H 0.44017 0.02448 0.55089 0.0
H1200 H 0.46552 0.05615 0.48721 0.0
H1201 H 0.52178 0.03073 0.48284 0.0
H1202 H 0.53738 0.01646 0.56896 0.0
H1203 H 0.52863 0.98882 0.58144 0.0
H1204 H 0.49038 0.00959 0.57979 0.0
H1205 H 0.44745 0.98024 0.5589 0.0
H1206 H 0.48537 0.95929 0.56077 0.0
H1207 H 0.46544 0.9667 0.53404 0.0
H1208 H 0.57719 0.00304 0.48619 0.0
H1209 H 0.62236 0.97148 0.49456 0.0
H1210 H 0.55902 0.95646 0.55504 0.0
C1211 C 0.45744 0.02598 0.53597 0.0
C1212 C 0.44848 0.04237 0.51943 0.0
C1213 C 0.47167 0.04368 0.50008 0.0
C1214 C 0.50388 0.02942 0.49751 0.0
C1215 C 0.5123 0.01374 0.5143 0.0
C1216 C 0.48937 0.01164 0.53297 0.0
C1217 C 0.50395 0.99279 0.54815 0.0
C1218 C 0.51579 0.0025 0.57093 0.0
C1219 C 0.47376 0.97362 0.5506 0.0
C1220 C 0.53871 0.98468 0.53513 0.0
C1221 C 0.54335 0.9972 0.51581 0.0
C1222 C 0.57371 0.99302 0.50121 0.0
C1223 C 0.59939 0.97516 0.50619 0.0
C1224 C 0.59421 0.96147 0.52543 0.0
C1225 C 0.56373 0.96659 0.54019 0.0
H1226 H 0.52777 0.80185 0.25958 0.0
H1227 H 0.6339 0.76911 0.2807 0.0
H1228 H 0.5984 0.73295 0.28701 0.0
H1229 H 0.46477 0.77346 0.29863 0.0
H1230 H 0.42557 0.77059 0.27917 0.0
H1231 H 0.45901 0.7941 0.27655 0.0
H1232 H 0.4737 0.78209 0.23596 0.0
H1233 H 0.44014 0.75864 0.2384 0.0
H1234 H 0.4892 0.75317 0.23026 0.0
H1235 H 0.55194 0.70053 0.29093 0.0
H1236 H 0.49829 0.67301 0.29053 0.0
H1237 H 0.42142 0.72627 0.26656 0.0
C1238 C 0.5436 0.78709 0.26556 0.0
C1239 C 0.58372 0.78835 0.26969 0.0
C1240 C 0.60327 0.76858 0.27738 0.0
C1241 C 0.5833 0.74799 0.28109 0.0
C1242 C 0.54379 0.74739 0.27699 0.0
C1243 C 0.52413 0.76635 0.26927 0.0
C1244 C 0.48177 0.7609 0.2657 0.0
C1245 C 0.45628 0.77564 0.28092 0.0
C1246 C 0.47056 0.76387 0.24112 0.0
C1247 C 0.48071 0.73585 0.27256 0.0
C1248 C 0.51684 0.72853 0.27911 0.0
C1249 C 0.52355 0.70607 0.28585 0.0
C1250 C 0.49276 0.69055 0.28555 0.0
C1251 C 0.45552 0.69742 0.27852 0.0
C1252 C 0.4494 0.72052 0.27221 0.0
H1253 H 0.53816 0.45493 0.02114 0.0
H1254 H 0.64734 0.49111 0.02482 0.0
H1255 H 0.61251 0.52805 0.02616 0.0
H1256 H 0.4909 0.4951 0.98559 0.0
H1257 H 0.44466 0.49213 0.99887 0.0
H1258 H 0.47805 0.46852 0.99902 0.0
H1259 H 0.47454 0.46686 0.04203 0.0
H1260 H 0.4411 0.49046 0.04202 0.0
H1261 H 0.4849 0.49231 0.05801 0.0
H1262 H 0.56601 0.56092 0.02643 0.0
H1263 H 0.51139 0.58772 0.02518 0.0
H1264 H 0.432 0.53024 0.0209 0.0
C1265 C 0.55482 0.47059 0.02238 0.0
C1266 C 0.59556 0.47011 0.02295 0.0
C1267 C 0.61617 0.49104 0.02439 0.0
C1268 C 0.59663 0.51209 0.02517 0.0
C1269 C 0.55649 0.51193 0.02447 0.0
C1270 C 0.5358 0.49174 0.02308 0.0
C1271 C 0.49285 0.49634 0.02204 0.0
C1272 C 0.47562 0.4875 1.00007 0.0
C1273 C 0.47213 0.48587 0.04223 0.0
C1274 C 0.49259 0.52232 0.02298 0.0
C1275 C 0.52962 0.53092 0.02445 0.0
C1276 C 0.5369 0.55438 0.02532 0.0
C1277 C 0.50557 0.56947 0.02459 0.0
C1278 C 0.46729 0.56113 0.02295 0.0
C1279 C 0.46084 0.53718 0.02221 0.0
H1280 H 0.17143 0.36358 0.44765 0.0
H1281 H 0.07119 0.40791 0.44506 0.0
H1282 H 0.06928 0.40381 0.40424 0.0
H1283 H 0.21691 0.38538 0.4004 0.0
H1284 H 0.2353 0.35824 0.39078 0.0
H1285 H 0.22668 0.36268 0.41997 0.0
H1286 H 0.18198 0.32706 0.42102 0.0
H1287 H 0.19091 0.32229 0.39187 0.0
H1288 H 0.14222 0.32513 0.40182 0.0
H1289 H 0.08207 0.39781 0.36322 0.0
H1290 H 0.10558 0.38771 0.32561 0.0
H1291 H 0.19686 0.34715 0.35529 0.0
C1292 C 0.14851 0.372 0.43859 0.0
C1293 C 0.12141 0.38602 0.44964 0.0
C1294 C 0.09222 0.39699 0.43704 0.0
C1295 C 0.09094 0.39483 0.4138 0.0
C1296 C 0.11887 0.38151 0.40337 0.0
C1297 C 0.14679 0.37002 0.41539 0.0
C1298 C 0.17436 0.35751 0.40014 0.0
C1299 C 0.21575 0.3665 0.403 0.0
C1300 C 0.17222 0.33145 0.40394 0.0
C1301 C 0.15799 0.36408 0.37768 0.0
C1302 C 0.12599 0.37792 0.37985 0.0
C1303 C 0.10686 0.38677 0.36133 0.0
C1304 C 0.12053 0.38105 0.34004 0.0
C1305 C 0.15296 0.36659 0.33747 0.0
C1306 C 0.17183 0.35812 0.35663 0.0
H1307 H 0.1233 0.86289 0.33501 0.0
H1308 H 0.1432 0.93592 0.34336 0.0
H1309 H 0.15232 0.93024 0.38364 0.0
H1310 H 0.06805 0.85588 0.38354 0.0
H1311 H 0.08667 0.8279 0.39037 0.0
H1312 H 0.08564 0.83728 0.36187 0.0
H1313 H 0.15896 0.82986 0.35857 0.0
H1314 H 0.16019 0.82042 0.38711 0.0
H1315 H 0.19146 0.84328 0.37803 0.0
H1316 H 0.15506 0.91713 0.42344 0.0
H1317 H 0.14954 0.89747 0.45978 0.0
H1318 H 0.12711 0.8332 0.42559 0.0
C1319 C 0.13029 0.87759 0.34527 0.0
C1320 C 0.1327 0.89982 0.33602 0.0
C1321 C 0.14116 0.91871 0.35007 0.0
C1322 C 0.14656 0.91566 0.37298 0.0
C1323 C 0.14337 0.89361 0.38166 0.0
C1324 C 0.13545 0.87489 0.36826 0.0
C1325 C 0.131 0.85327 0.38201 0.0
C1326 C 0.09043 0.84299 0.37929 0.0
C1327 C 0.16227 0.83567 0.37607 0.0
C1328 C 0.13699 0.86286 0.40519 0.0
C1329 C 0.14449 0.88611 0.40464 0.0
C1330 C 0.14954 0.89886 0.42408 0.0
C1331 C 0.14637 0.88756 0.44465 0.0
C1332 C 0.13798 0.8638 0.44558 0.0
C1333 C 0.13377 0.85135 0.42551 0.0
H1334 H 0.14414 0.83161 0.86054 0.0
H1335 H 0.12041 0.89632 0.82754 0.0
H1336 H 0.11682 0.9155 0.86416 0.0
H1337 H 0.08263 0.84153 0.90995 0.0
H1338 H 0.1164 0.82764 0.92829 0.0
H1339 H 0.11255 0.8186 0.8997 0.0
H1340 H 0.18567 0.82551 0.89444 0.0
H1341 H 0.18973 0.8347 0.9229 0.0
H1342 H 0.20568 0.85331 0.9008 0.0
H1343 H 0.12347 0.92831 0.9038 0.0
H1344 H 0.13727 0.93375 0.94368 0.0
H1345 H 0.15551 0.86052 0.95112 0.0
C1346 C 0.13738 0.84974 0.86097 0.0
C1347 C 0.13247 0.86247 0.84113 0.0
C1348 C 0.12406 0.88619 0.84249 0.0
C1349 C 0.12197 0.89722 0.86322 0.0
C1350 C 0.12798 0.88424 0.88241 0.0
C1351 C 0.13512 0.86097 0.88148 0.0
C1352 C 0.14292 0.85119 0.90442 0.0
C1353 C 0.11176 0.83371 0.91097 0.0
C1354 C 0.1834 0.84056 0.9057 0.0
C1355 C 0.14018 0.87274 0.91839 0.0
C1356 C 0.13131 0.89158 0.90536 0.0
C1357 C 0.12982 0.91364 0.9142 0.0
C1358 C 0.1379 0.91655 0.93686 0.0
C1359 C 0.14726 0.89753 0.95051 0.0
C1360 C 0.14781 0.8753 0.94117 0.0
H1361 H 0.12619 0.3713 0.838 0.0
H1362 H 0.15586 0.44297 0.84758 0.0
H1363 H 0.16518 0.43603 0.88763 0.0
H1364 H 0.07109 0.36589 0.88605 0.0
H1365 H 0.08589 0.33707 0.89273 0.0
H1366 H 0.08657 0.3467 0.86431 0.0
H1367 H 0.15877 0.33607 0.86124 0.0
H1368 H 0.15823 0.32621 0.88965 0.0
H1369 H 0.19255 0.34766 0.88106 0.0
H1370 H 0.1646 0.42254 0.92708 0.0
H1371 H 0.15573 0.4029 0.96315 0.0
H1372 H 0.12636 0.34002 0.92828 0.0
C1373 C 0.13571 0.38534 0.84845 0.0
C1374 C 0.14052 0.40764 0.83966 0.0
C1375 C 0.15204 0.42573 0.85396 0.0
C1376 C 0.15751 0.42197 0.87674 0.0
C1377 C 0.15141 0.39998 0.88505 0.0
C1378 C 0.14104 0.38191 0.87136 0.0
C1379 C 0.13353 0.36038 0.88483 0.0
C1380 C 0.09179 0.35203 0.8818 0.0
C1381 C 0.1625 0.34146 0.87884 0.0
C1382 C 0.14036 0.36937 0.90818 0.0
C1383 C 0.15097 0.3922 0.90792 0.0
C1384 C 0.15683 0.40456 0.9275 0.0
C1385 C 0.15161 0.39329 0.94792 0.0
C1386 C 0.14055 0.36991 0.94858 0.0
C1387 C 0.13523 0.35784 0.92838 0.0
H1388 H 0.85798 0.6126 0.69577 0.0
H1389 H 0.96482 0.65132 0.69516 0.0
H1390 H 0.96942 0.64607 0.65455 0.0
H1391 H 0.88416 0.5717 0.65122 0.0
H1392 H 0.83606 0.57148 0.63995 0.0
H1393 H 0.84344 0.57623 0.66926 0.0
H1394 H 0.80508 0.61422 0.66656 0.0
H1395 H 0.79801 0.60977 0.63723 0.0
H1396 H 0.8201 0.6359 0.64699 0.0
H1397 H 0.95958 0.63949 0.61355 0.0
H1398 H 0.93743 0.63035 0.57546 0.0
H1399 H 0.83685 0.59628 0.60288 0.0
C1400 C 0.88285 0.61947 0.68719 0.0
C1401 C 0.91115 0.63228 0.69869 0.0
C1402 C 0.94284 0.64139 0.68674 0.0
C1403 C 0.94571 0.63851 0.66364 0.0
C1404 C 0.91673 0.62643 0.65271 0.0
C1405 C 0.88609 0.61686 0.6641 0.0
C1406 C 0.85775 0.60573 0.64825 0.0
C1407 C 0.85522 0.57974 0.65242 0.0
C1408 C 0.81789 0.61709 0.64986 0.0
C1409 C 0.87688 0.61091 0.62618 0.0
C1410 C 0.91096 0.62276 0.62909 0.0
C1411 C 0.93311 0.63001 0.61107 0.0
C1412 C 0.92022 0.62484 0.58949 0.0
C1413 C 0.88544 0.61259 0.58614 0.0
C1414 C 0.86363 0.60561 0.60482 0.0
H1415 H 0.9865 0.11745 0.69426 0.0
H1416 H 0.86373 0.1138 0.70689 0.0
H1417 H 0.8509 0.12194 0.66711 0.0
H1418 H 0.98183 0.16425 0.65418 0.0
H1419 H 0.02042 0.15267 0.63762 0.0
H1420 H 0.01908 0.14735 0.66711 0.0
H1421 H 0.02207 0.10359 0.65953 0.0
H1422 H 0.02273 0.10875 0.63001 0.0
H1423 H 0.98624 0.09049 0.6419 0.0
H1424 H 0.85232 0.12741 0.62503 0.0
H1425 H 0.86759 0.13515 0.58545 0.0
H1426 H 0.98926 0.13672 0.60162 0.0
C1427 C 0.95689 0.11864 0.68871 0.0
C1428 C 0.92609 0.11498 0.70355 0.0
C1429 C 0.88773 0.11674 0.69575 0.0
C1430 C 0.8802 0.12117 0.6732 0.0
C1431 C 0.91137 0.12408 0.65885 0.0
C1432 C 0.94892 0.12333 0.66644 0.0
C1433 C 0.9774 0.12726 0.64784 0.0
C1434 C 1.00107 0.14919 0.65193 0.0
C1435 C 1.00364 0.10627 0.64464 0.0
C1436 C 0.95009 0.1301 0.6285 0.0
C1437 C 0.91212 0.12798 0.63504 0.0
C1438 C 0.88193 0.12933 0.61978 0.0
C1439 C 0.89085 0.13353 0.59735 0.0
C1440 C 0.92955 0.1366 0.59059 0.0
C1441 C 0.95939 0.1346 0.60637 0.0
H1442 H 0.84196 0.155 0.17858 0.0
H1443 H 0.93579 0.11872 0.21074 0.0
H1444 H 0.96266 0.10898 0.1738 0.0
H1445 H 0.82847 0.11585 0.13433 0.0
H1446 H 0.81737 0.13778 0.1142 0.0
H1447 H 0.80715 0.14252 0.14315 0.0
H1448 H 0.848 0.17979 0.14211 0.0
H1449 H 0.85878 0.17496 0.11318 0.0
H1450 H 0.89736 0.17852 0.13296 0.0
H1451 H 0.97756 0.10205 0.13304 0.0
H1452 H 0.97667 0.09621 0.09234 0.0
H1453 H 0.87348 0.13787 0.08761 0.0
C1454 C 0.86823 0.14505 0.17794 0.0
C1455 C 0.88679 0.13762 0.19755 0.0
C1456 C 0.92104 0.12455 0.19591 0.0
C1457 C 0.93663 0.11907 0.17502 0.0
C1458 C 0.91771 0.1269 0.15602 0.0
C1459 C 0.88416 0.13952 0.15734 0.0
C1460 C 0.86835 0.1451 0.13455 0.0
C1461 C 0.82796 0.13468 0.13138 0.0
C1462 C 0.86813 0.17114 0.13047 0.0
C1463 C 0.89786 0.13328 0.12011 0.0
C1464 C 0.92635 0.12306 0.13273 0.0
C1465 C 0.95558 0.11015 0.123 0.0
C1466 C 0.95491 0.107 0.09985 0.0
C1467 C 0.92508 0.11663 0.08675 0.0
C1468 C 0.89694 0.13047 0.09706 0.0
H1469 H 0.91688 0.61019 0.08766 0.0
H1470 H 0.82131 0.65801 0.09089 0.0
H1471 H 0.8203 0.65428 0.13174 0.0
H1472 H 0.88488 0.57311 0.13372 0.0
H1473 H 0.93337 0.56841 0.14336 0.0
H1474 H 0.92436 0.57352 0.11427 0.0
H1475 H 0.9728 0.60737 0.11504 0.0
H1476 H 0.98153 0.6026 0.14418 0.0
H1477 H 0.9659 0.63039 0.13466 0.0
H1478 H 0.83352 0.64801 0.1726 0.0
H1479 H 0.85628 0.6368 0.21007 0.0
H1480 H 0.94234 0.59275 0.17994 0.0
C1481 C 0.89519 0.61952 0.09689 0.0
C1482 C 0.86915 0.63437 0.086 0.0
C1483 C 0.84151 0.64645 0.09879 0.0
C1484 C 0.84076 0.64451 0.12204 0.0
C1485 C 0.86764 0.6303 0.13229 0.0
C1486 C 0.89397 0.61774 0.12011 0.0
C1487 C 0.92046 0.6042 0.13519 0.0
C1488 C 0.91545 0.57827 0.13141 0.0
C1489 C 0.96266 0.6116 0.13207 0.0
C1490 C 0.9053 0.61138 0.15774 0.0
C1491 C 0.87488 0.62647 0.15575 0.0
C1492 C 0.85706 0.63601 0.17436 0.0
C1493 C 0.87032 0.62966 0.19557 0.0
C1494 C 0.90098 0.61385 0.19794 0.0
C1495 C 0.91867 0.60475 0.17871 0.0
H1496 H 0.67445 0.37658 0.94596 0.0
H1497 H 0.60622 0.43833 0.93787 0.0
H1498 H 0.59917 0.43007 0.89784 0.0
H1499 H 0.72658 0.38242 0.89621 0.0
H1500 H 0.72798 0.35219 0.88992 0.0
H1501 H 0.72447 0.3616 0.91835 0.0
H1502 H 0.66262 0.33728 0.92356 0.0
H1503 H 0.66609 0.32765 0.89516 0.0
H1504 H 0.62264 0.34125 0.90483 0.0
H1505 H 0.60284 0.41641 0.85817 0.0
H1506 H 0.61705 0.39817 0.82194 0.0
H1507 H 0.6839 0.34587 0.85585 0.0
C1508 C 0.65735 0.38808 0.93585 0.0
C1509 C 0.64067 0.40802 0.94507 0.0
C1510 C 0.6192 0.42293 0.93118 0.0
C1511 C 0.61496 0.41837 0.90842 0.0
C1512 C 0.63244 0.39885 0.89973 0.0
C1513 C 0.65311 0.3839 0.91302 0.0
C1514 C 0.6709 0.36487 0.8993 0.0
C1515 C 0.7151 0.36531 0.90105 0.0
C1516 C 0.65457 0.34137 0.90612 0.0
C1517 C 0.65747 0.37167 0.87624 0.0
C1518 C 0.63506 0.3912 0.87684 0.0
C1519 C 0.62015 0.401 0.8575 0.0
C1520 C 0.62842 0.39056 0.837 0.0
C1521 C 0.65158 0.37061 0.83601 0.0
C1522 C 0.66606 0.36109 0.85598 0.0
H1523 H 0.58787 0.90305 0.94591 0.0
H1524 H 0.65857 0.84185 0.95018 0.0
H1525 H 0.66774 0.84264 0.90949 0.0
H1526 H 0.53948 0.88777 0.89639 0.0
H1527 H 0.53806 0.9165 0.88534 0.0
H1528 H 0.5393 0.91206 0.91495 0.0
H1529 H 0.60015 0.93767 0.91793 0.0
H1530 H 0.59898 0.94228 0.88831 0.0
H1531 H 0.64178 0.93102 0.90125 0.0
H1532 H 0.6662 0.84896 0.86767 0.0
H1533 H 0.65481 0.86086 0.82865 0.0
H1534 H 0.58529 0.91773 0.85214 0.0
C1535 C 0.60577 0.89 0.93837 0.0
C1536 C 0.62259 0.87244 0.95133 0.0
C1537 C 0.64541 0.85553 0.94067 0.0
C1538 C 0.65082 0.85582 0.91753 0.0
C1539 C 0.6333 0.87315 0.9052 0.0
C1540 C 0.61139 0.88999 0.91528 0.0
C1541 C 0.59449 0.90622 0.89822 0.0
C1542 C 0.55022 0.90559 0.89876 0.0
C1543 C 0.60978 0.93075 0.90163 0.0
C1544 C 0.60998 0.89577 0.87697 0.0
C1545 C 0.63241 0.87674 0.88128 0.0
C1546 C 0.6489 0.86394 0.86412 0.0
C1547 C 0.64224 0.8708 0.84201 0.0
C1548 C 0.61926 0.89025 0.83727 0.0
C1549 C 0.60318 0.90284 0.85511 0.0
H1550 H 0.65928 0.86411 0.44693 0.0
H1551 H 0.60058 0.92931 0.43886 0.0
H1552 H 0.59552 0.92249 0.39859 0.0
H1553 H 0.71535 0.86775 0.39867 0.0
H1554 H 0.71208 0.83779 0.39145 0.0
H1555 H 0.70795 0.84653 0.42006 0.0
H1556 H 0.64192 0.82602 0.42298 0.0
H1557 H 0.64599 0.81705 0.39439 0.0
H1558 H 0.60437 0.83296 0.4034 0.0
H1559 H 0.60201 0.91054 0.35877 0.0
H1560 H 0.61675 0.893 0.32233 0.0
H1561 H 0.67016 0.83532 0.35598 0.0
C1562 C 0.6446 0.87669 0.43676 0.0
C1563 C 0.63027 0.89723 0.44614 0.0
C1564 C 0.61179 0.91343 0.43214 0.0
C1565 C 0.60873 0.90973 0.40919 0.0
C1566 C 0.62403 0.88965 0.40039 0.0
C1567 C 0.64124 0.87326 0.41372 0.0
C1568 C 0.6568 0.85364 0.39983 0.0
C1569 C 0.70064 0.85131 0.40268 0.0
C1570 C 0.63602 0.83108 0.40549 0.0
C1571 C 0.64644 0.86187 0.37665 0.0
C1572 C 0.62741 0.88263 0.37735 0.0
C1573 C 0.61646 0.89412 0.35801 0.0
C1574 C 0.62507 0.88408 0.33738 0.0
C1575 C 0.64442 0.86275 0.33625 0.0
C1576 C 0.655 0.85154 0.35623 0.0
H1577 H 0.62123 0.3846 0.44167 0.0
H1578 H 0.67428 0.31785 0.43285 0.0
H1579 H 0.68132 0.32537 0.39277 0.0
H1580 H 0.56588 0.38295 0.39322 0.0
H1581 H 0.57102 0.41291 0.38637 0.0
H1582 H 0.57439 0.40375 0.41488 0.0
H1583 H 0.6416 0.42276 0.41826 0.0
H1584 H 0.63831 0.43216 0.38976 0.0
H1585 H 0.67886 0.41526 0.39872 0.0
H1586 H 0.67693 0.3382 0.35329 0.0
H1587 H 0.66293 0.3562 0.317 0.0
H1588 H 0.61265 0.41465 0.35099 0.0
C1589 C 0.63524 0.37186 0.43138 0.0
C1590 C 0.6474 0.35069 0.44041 0.0
C1591 C 0.66477 0.3342 0.42631 0.0
C1592 C 0.66899 0.33832 0.4035 0.0
C1593 C 0.65575 0.35905 0.39497 0.0
C1594 C 0.63947 0.37565 0.40844 0.0
C1595 C 0.62524 0.39577 0.39473 0.0
C1596 C 0.58154 0.39902 0.39747 0.0
C1597 C 0.64733 0.41779 0.40073 0.0
C1598 C 0.63528 0.3876 0.3715 0.0
C1599 C 0.65312 0.36646 0.37204 0.0
C1600 C 0.66342 0.3549 0.35264 0.0
C1601 C 0.65523 0.36522 0.3321 0.0
C1602 C 0.63685 0.38687 0.33111 0.0
C1603 C 0.62707 0.3982 0.35115 0.0
H1604 H 0.36757 0.61782 0.19719 0.0
H1605 H 0.4085 0.68785 0.19025 0.0
H1606 H 0.41283 0.68274 0.14966 0.0
H1607 H 0.42614 0.59303 0.15186 0.0
H1608 H 0.38808 0.57399 0.14312 0.0
H1609 H 0.39182 0.58243 0.17187 0.0
H1610 H 0.32151 0.59719 0.17073 0.0
H1611 H 0.31767 0.589 0.14196 0.0
H1612 H 0.30792 0.61816 0.15015 0.0
H1613 H 0.40784 0.67118 0.10954 0.0
H1614 H 0.39575 0.65332 0.07287 0.0
H1615 H 0.35788 0.59098 0.10586 0.0
C1616 C 0.37827 0.63188 0.18717 0.0
C1617 C 0.38783 0.6532 0.19691 0.0
C1618 C 0.40101 0.67135 0.18317 0.0
C1619 C 0.40363 0.66862 0.16007 0.0
C1620 C 0.39304 0.64762 0.15091 0.0
C1621 C 0.38088 0.62949 0.16401 0.0
C1622 C 0.36922 0.60914 0.14984 0.0
C1623 C 0.39538 0.58843 0.15445 0.0
C1624 C 0.32655 0.60303 0.15338 0.0
C1625 C 0.37609 0.61882 0.12679 0.0
C1626 C 0.39003 0.64099 0.12775 0.0
C1627 C 0.39729 0.65373 0.10856 0.0
C1628 C 0.39022 0.64349 0.08781 0.0
C1629 C 0.37596 0.62076 0.08646 0.0
C1630 C 0.36898 0.60835 0.10628 0.0
H1631 H 0.46635 0.09187 0.18276 0.0
H1632 H 0.36716 0.13224 0.20236 0.0
H1633 H 0.35601 0.14252 0.1628 0.0
H1634 H 0.50018 0.13022 0.14071 0.0
H1635 H 0.51638 0.10742 0.12278 0.0
H1636 H 0.51543 0.10325 0.15243 0.0
H1637 H 0.47268 0.06715 0.1471 0.0
H1638 H 0.47314 0.07136 0.11743 0.0
H1639 H 0.42796 0.06952 0.13205 0.0
H1640 H 0.35591 0.14769 0.12057 0.0
H1641 H 0.36994 0.15021 0.08032 0.0
H1642 H 0.46996 0.10668 0.08958 0.0
C1643 C 0.44218 0.10286 0.17882 0.0
C1644 C 0.41745 0.11118 0.1956 0.0
C1645 C 0.38648 0.12573 0.18972 0.0
C1646 C 0.37984 0.13153 0.16732 0.0
C1647 C 0.4046 0.12272 0.15115 0.0
C1648 C 0.43538 0.10889 0.15674 0.0
C1649 C 0.45862 0.10214 0.13654 0.0
C1650 C 0.50009 0.11132 0.13822 0.0
C1651 C 0.45804 0.07599 0.13308 0.0
C1652 C 0.4362 0.11433 0.11857 0.0
C1653 C 0.40494 0.12596 0.12722 0.0
C1654 C 0.38032 0.13864 0.11366 0.0
C1655 C 0.38842 0.13987 0.0908 0.0
C1656 C 0.42106 0.12862 0.08179 0.0
C1657 C 0.44476 0.11543 0.09591 0.0
H1658 H 0.32191 0.15389 0.68338 0.0
H1659 H 0.43023 0.12198 0.70157 0.0
H1660 H 0.44432 0.11536 0.6616 0.0
H1661 H 0.29877 0.11554 0.63916 0.0
H1662 H 0.27695 0.13755 0.62231 0.0
H1663 H 0.27668 0.1401 0.65214 0.0
H1664 H 0.30966 0.17991 0.64901 0.0
H1665 H 0.31037 0.17739 0.61916 0.0
H1666 H 0.35452 0.1825 0.63415 0.0
H1667 H 0.44588 0.11257 0.61904 0.0
H1668 H 0.43261 0.11098 0.57861 0.0
H1669 H 0.32266 0.14436 0.58957 0.0
C1670 C 0.34873 0.14555 0.67905 0.0
C1671 C 0.37511 0.13855 0.69558 0.0
C1672 C 0.4096 0.12747 0.68915 0.0
C1673 C 0.41789 0.12375 0.66651 0.0
C1674 C 0.39128 0.13113 0.65063 0.0
C1675 C 0.35724 0.14161 0.65672 0.0
C1676 C 0.33261 0.14727 0.63673 0.0
C1677 C 0.29398 0.13434 0.63764 0.0
C1678 C 0.32645 0.17332 0.63465 0.0
C1679 C 0.35798 0.13831 0.6183 0.0
C1680 C 0.39187 0.12923 0.62653 0.0
C1681 C 0.41945 0.11967 0.61247 0.0
C1682 C 0.41174 0.11896 0.58951 0.0
C1683 C 0.37661 0.12758 0.58091 0.0
C1684 C 0.34982 0.13767 0.59557 0.0
H1685 H 0.4561 0.60345 0.67427 0.0
H1686 H 0.35779 0.63977 0.70142 0.0
H1687 H 0.33745 0.65023 0.66326 0.0
H1688 H 0.47622 0.64364 0.63001 0.0
H1689 H 0.49037 0.62152 0.61074 0.0
H1690 H 0.49695 0.61731 0.64016 0.0
H1691 H 0.45734 0.57965 0.63792 0.0
H1692 H 0.45024 0.58389 0.60854 0.0
H1693 H 0.40928 0.58032 0.6266 0.0
H1694 H 0.32689 0.65544 0.62179 0.0
H1695 H 0.32988 0.65796 0.58084 0.0
H1696 H 0.43594 0.61864 0.58128 0.0
C1697 C 0.43037 0.61371 0.67225 0.0
C1698 C 0.40846 0.62076 0.69084 0.0
C1699 C 0.3751 0.63426 0.68744 0.0
C1700 C 0.36323 0.64017 0.66583 0.0
C1701 C 0.38519 0.63257 0.64786 0.0
C1702 C 0.41831 0.61986 0.65089 0.0
C1703 C 0.43717 0.61404 0.62891 0.0
C1704 C 0.47756 0.62478 0.62737 0.0
C1705 C 0.43857 0.58793 0.62529 0.0
C1706 C 0.40941 0.62537 0.61294 0.0
C1707 C 0.37948 0.63584 0.62416 0.0
C1708 C 0.35027 0.64736 0.61287 0.0
C1709 C 0.35214 0.64859 0.58957 0.0
C1710 C 0.38314 0.63849 0.57779 0.0
C1711 C 0.41183 0.62651 0.58973 0.0
H1712 H 0.30165 0.36615 0.28812 0.0
H1713 H 0.31061 0.32332 0.22932 0.0
H1714 H 0.37895 0.3343 0.22539 0.0
H1715 H 0.36257 0.41168 0.26998 0.0
H1716 H 0.3849 0.41625 0.29669 0.0
H1717 H 0.33666 0.40498 0.29513 0.0
H1718 H 0.35701 0.36973 0.31856 0.0
H1719 H 0.40523 0.381 0.32039 0.0
H1720 H 0.39722 0.35252 0.30963 0.0
H1721 H 0.44481 0.35186 0.22637 0.0
H1722 H 0.50655 0.37085 0.23478 0.0
H1723 H 0.45678 0.40044 0.29445 0.0
C1724 C 0.3181 0.35898 0.27451 0.0
C1725 C 0.30078 0.34392 0.25897 0.0
C1726 C 0.3233 0.33477 0.24148 0.0
C1727 C 0.36208 0.34102 0.23903 0.0
C1728 C 0.37812 0.35616 0.25442 0.0
C1729 C 0.3571 0.3647 0.27207 0.0
C1730 C 0.38167 0.38019 0.2866 0.0
C1731 C 0.36547 0.40473 0.28712 0.0
C1732 C 0.38551 0.37026 0.31019 0.0
C1733 C 0.41966 0.37925 0.27421 0.0
C1734 C 0.41676 0.36549 0.25556 0.0
C1735 C 0.44755 0.36249 0.24105 0.0
C1736 C 0.48247 0.37348 0.24592 0.0
C1737 C 0.48662 0.38709 0.26533 0.0
C1738 C 0.4546 0.39006 0.27957 0.0
H1739 H 0.80887 0.86653 0.30782 0.0
H1740 H 0.78818 0.8538 0.23771 0.0
H1741 H 0.85562 0.8643 0.22938 0.0
H1742 H 0.87117 0.91486 0.30149 0.0
H1743 H 0.90275 0.90689 0.32399 0.0
H1744 H 0.85293 0.89831 0.32453 0.0
H1745 H 0.8731 0.85574 0.32871 0.0
H1746 H 0.92296 0.86422 0.32846 0.0
H1747 H 0.90566 0.8433 0.30875 0.0
H1748 H 0.92474 0.87804 0.22855 0.0
H1749 H 0.99215 0.88948 0.23574 0.0
H1750 H 0.96841 0.89154 0.30657 0.0
C1751 C 0.81857 0.86582 0.29073 0.0
C1752 C 0.7932 0.85937 0.27341 0.0
C1753 C 0.80712 0.85855 0.25127 0.0
C1754 C 0.84532 0.86463 0.24636 0.0
C1755 C 0.8694 0.87126 0.26378 0.0
C1756 C 0.85674 0.87153 0.28557 0.0
C1757 C 0.88867 0.87871 0.3013 0.0
C1758 C 0.87825 0.90102 0.31354 0.0
C1759 C 0.89816 0.85933 0.31777 0.0
C1760 C 0.92125 0.88254 0.28497 0.0
C1761 C 0.90944 0.87842 0.26338 0.0
C1762 C 0.93435 0.88118 0.24541 0.0
C1763 C 0.97255 0.88782 0.24965 0.0
C1764 C 0.98563 0.89138 0.27171 0.0
C1765 C 0.95937 0.8889 0.28952 0.0
H1766 H 0.30352 0.89242 1.00429 0.0
H1767 H 0.29933 0.88702 0.07627 0.0
H1768 H 0.3658 0.87225 0.07651 0.0
H1769 H 0.35833 0.84158 0.99434 0.0
H1770 H 0.38654 0.85375 0.97211 0.0
H1771 H 0.33865 0.86423 0.97739 0.0
H1772 H 0.36508 0.90559 0.98165 0.0
H1773 H 0.41297 0.89528 0.97611 0.0
H1774 H 0.40332 0.91114 1.00122 0.0
H1775 H 0.4317 0.85646 0.06895 0.0
H1776 H 0.49506 0.84468 0.0545 0.0
H1777 H 0.45781 0.8614 0.98748 0.0
C1778 C 0.31668 0.88832 0.02012 0.0
C1779 C 0.29606 0.8909 0.04028 0.0
C1780 C 0.31445 0.88532 0.06062 0.0
C1781 C 0.35219 0.87678 0.06093 0.0
C1782 C 0.37141 0.87405 0.04078 0.0
C1783 C 0.35454 0.87995 0.02077 0.0
C1784 C 0.38188 0.87572 1.00152 0.0
C1785 C 0.36535 0.85775 0.98539 0.0
C1786 C 0.39138 0.89828 0.98942 0.0
C1787 C 0.41668 0.86647 1.01385 0.0
C1788 C 0.40984 0.86544 0.03646 0.0
C1789 C 0.43746 0.85729 0.05129 0.0
C1790 C 0.47335 0.85051 0.04287 0.0
C1791 C 0.48157 0.85209 0.01983 0.0
C1792 C 0.45252 0.85995 1.00516 0.0
H1793 H 0.97638 0.36618 0.97359 0.0
H1794 H 0.99537 0.35654 0.04433 0.0
H1795 H 0.92842 0.3685 0.05178 0.0
H1796 H 0.91808 0.4158 0.97737 0.0
H1797 H 0.88597 0.40773 0.95514 0.0
H1798 H 0.93492 0.39762 0.95516 0.0
H1799 H 0.91098 0.35556 0.95287 0.0
H1800 H 0.86194 0.36555 0.95254 0.0
H1801 H 0.87717 0.34511 0.97324 0.0
H1802 H 0.86079 0.38415 0.05169 0.0
H1803 H 0.79504 0.39801 0.04384 0.0
H1804 H 0.81916 0.39592 0.97304 0.0
C1805 C 0.96634 0.36633 0.99063 0.0
C1806 C 0.99117 0.36043 1.00838 0.0
C1807 C 0.97686 0.36083 0.03044 0.0
C1808 C 0.93892 0.36774 0.03485 0.0
C1809 C 0.91549 0.37393 0.01701 0.0
C1810 C 0.92842 0.37291 0.99531 0.0
C1811 C 0.89731 0.38028 0.97914 0.0
C1812 C 0.90983 0.40162 0.96593 0.0
C1813 C 0.88619 0.36044 0.96353 0.0
C1814 C 0.86499 0.38588 0.99515 0.0
C1815 C 0.87618 0.38228 1.01693 0.0
C1816 C 0.85161 0.38684 0.03469 0.0
C1817 C 0.81438 0.39486 0.03006 0.0
C1818 C 0.80188 0.39804 1.00782 0.0
C1819 C 0.82777 0.3936 0.99021 0.0
H1820 H 0.72165 0.65407 0.76459 0.0
H1821 H 0.75379 0.58298 0.75347 0.0
H1822 H 0.68553 0.57202 0.7523 0.0
H1823 H 0.64093 0.64226 0.8002 0.0
H1824 H 0.61138 0.66498 0.78919 0.0
H1825 H 0.66304 0.66764 0.78873 0.0
H1826 H 0.66112 0.67434 0.74615 0.0
H1827 H 0.60944 0.67175 0.74649 0.0
H1828 H 0.63758 0.65359 0.72852 0.0
H1829 H 0.61393 0.56822 0.75294 0.0
H1830 H 0.54323 0.57227 0.75486 0.0
H1831 H 0.55657 0.64557 0.76544 0.0
C1832 C 0.71429 0.63624 0.7618 0.0
C1833 C 0.74327 0.61943 0.75913 0.0
C1834 C 0.73231 0.59624 0.7556 0.0
C1835 C 0.6935 0.58978 0.75489 0.0
C1836 C 0.6657 0.60665 0.75772 0.0
C1837 C 0.67545 0.62942 0.76105 0.0
C1838 C 0.63963 0.64402 0.76377 0.0
C1839 C 0.6387 0.65539 0.78685 0.0
C1840 C 0.63679 0.66198 0.74512 0.0
C1841 C 0.60846 0.62587 0.76154 0.0
C1842 C 0.62416 0.60444 0.75805 0.0
C1843 C 0.60123 0.58493 0.75563 0.0
C1844 C 0.56108 0.58739 0.75676 0.0
C1845 C 0.54424 0.6092 0.76029 0.0
C1846 C 0.56845 0.62864 0.7627 0.0
H1847 H 0.04469 0.14178 0.78698 0.0
H1848 H 0.05281 0.07087 0.76538 0.0
H1849 H 0.12324 0.0755 0.76086 0.0
H1850 H 0.1138 0.16463 0.74939 0.0
H1851 H 0.13315 0.18504 0.76897 0.0
H1852 H 0.08377 0.17592 0.77124 0.0
H1853 H 0.09562 0.16313 0.81194 0.0
H1854 H 0.14499 0.17238 0.80986 0.0
H1855 H 0.13404 0.14332 0.81796 0.0
H1856 H 0.19253 0.08843 0.75759 0.0
H1857 H 0.25557 0.10787 0.75724 0.0
H1858 H 0.20187 0.17044 0.7811 0.0
C1859 C 0.06121 0.12711 0.78144 0.0
C1860 C 0.04316 0.10591 0.77656 0.0
C1861 C 0.06597 0.08723 0.76931 0.0
C1862 C 0.10597 0.08973 0.76664 0.0
C1863 C 0.12269 0.11099 0.77133 0.0
C1864 C 0.10103 0.12931 0.77872 0.0
C1865 C 0.12582 0.1504 0.78244 0.0
C1866 C 0.11339 0.17016 0.76709 0.0
C1867 C 0.12507 0.15773 0.80701 0.0
C1868 C 0.16493 0.14116 0.77591 0.0
C1869 C 0.16248 0.1184 0.76953 0.0
C1870 C 0.19476 0.10621 0.76263 0.0
C1871 C 0.23048 0.11746 0.76246 0.0
C1872 C 0.23383 0.14074 0.76916 0.0
C1873 C 0.2004 0.15268 0.77587 0.0
H1874 H 0.5691 0.11147 1.00632 0.0
H1875 H 0.55962 0.18156 0.03017 0.0
H1876 H 0.62936 0.18186 0.03834 0.0
H1877 H 0.63826 0.09245 0.04694 0.0
H1878 H 0.66412 0.07448 0.02768 0.0
H1879 H 0.6135 0.07972 0.02364 0.0
H1880 H 0.62704 0.09477 0.98386 0.0
H1881 H 0.67766 0.08947 0.98773 0.0
H1882 H 0.66129 0.11768 0.97995 0.0
H1883 H 0.69988 0.17469 0.04357 0.0
H1884 H 0.76686 0.16105 0.0449 0.0
H1885 H 0.73085 0.09526 0.01805 0.0
C1886 C 0.58163 0.12693 1.01322 0.0
C1887 C 0.55882 0.14654 0.01758 0.0
C1888 C 0.57645 0.16636 0.02666 0.0
C1889 C 0.61603 0.16667 0.0314 0.0
C1890 C 0.63756 0.147 0.02702 0.0
C1891 C 0.62104 0.12751 0.0181 0.0
C1892 C 0.65071 0.10871 1.01485 0.0
C1893 C 0.64106 0.08759 0.02913 0.0
C1894 C 0.65439 0.10229 0.99013 0.0
C1895 C 0.68663 0.12073 0.02323 0.0
C1896 C 0.67829 0.14278 0.0302 0.0
C1897 C 0.70672 0.15745 0.03821 0.0
C1898 C 0.74474 0.1495 0.03888 0.0
C1899 C 0.75418 0.12705 0.03162 0.0
C1900 C 0.72454 0.11242 0.02391 0.0
H1901 H 0.22234 0.64366 0.01768 0.0
H1902 H 0.23477 0.56963 0.02131 0.0
H1903 H 0.16397 0.56559 0.02289 0.0
H1904 H 0.14199 0.64819 0.05525 0.0
H1905 H 0.11886 0.67077 0.03974 0.0
H1906 H 0.17046 0.66787 0.03897 0.0
H1907 H 0.16828 0.66542 0.99597 0.0
H1908 H 0.11669 0.66833 0.99659 0.0
H1909 H 0.1383 0.64408 0.98284 0.0
H1910 H 0.09215 0.56959 0.02392 0.0
H1911 H 0.02404 0.58102 0.0241 0.0
H1912 H 0.05774 0.65268 0.01975 0.0
C1913 C 0.21025 0.62657 0.01882 0.0
C1914 C 0.2342 0.60692 0.01938 0.0
C1915 C 0.21709 0.58491 0.02086 0.0
C1916 C 0.1769 0.58246 0.02177 0.0
C1917 C 0.15421 0.60218 0.02119 0.0
C1918 C 0.17022 0.62381 0.01974 0.0
C1919 C 0.13934 0.64221 0.01927 0.0
C1920 C 0.14288 0.6582 0.03951 0.0
C1921 C 0.14074 0.65581 0.99736 0.0
C1922 C 0.10335 0.62754 0.02064 0.0
C1923 C 0.11268 0.6045 0.02177 0.0
C1924 C 0.08453 0.58757 0.02306 0.0
C1925 C 0.04582 0.59429 0.02314 0.0
C1926 C 0.03537 0.61779 0.02194 0.0
C1927 C 0.0647 0.6346 0.02072 0.0
H1928 H 0.47674 0.84972 0.74775 0.0
H1929 H 0.47553 0.90941 0.79084 0.0
H1930 H 0.4052 0.90476 0.79595 0.0
H1931 H 0.38622 0.86239 0.72044 0.0
H1932 H 0.37249 0.83266 0.71807 0.0
H1933 H 0.42266 0.84051 0.71826 0.0
H1934 H 0.43433 0.81305 0.75146 0.0
H1935 H 0.38415 0.80523 0.75149 0.0
H1936 H 0.40618 0.8163 0.77644 0.0
H1937 H 0.3357 0.89242 0.79765 0.0
H1938 H 0.27073 0.87612 0.79275 0.0
H1939 H 0.3165 0.82581 0.74657 0.0
C1940 C 0.46165 0.8618 0.75827 0.0
C1941 C 0.48152 0.87984 0.76906 0.0
C1942 C 0.46077 0.89551 0.78242 0.0
C1943 C 0.42092 0.89293 0.78549 0.0
C1944 C 0.40224 0.87482 0.77478 0.0
C1945 C 0.42181 0.85975 0.76115 0.0
C1946 C 0.39473 0.84227 0.75088 0.0
C1947 C 0.39398 0.84461 0.7254 0.0
C1948 C 0.4055 0.81776 0.758 0.0
C1949 C 0.35687 0.84967 0.76109 0.0
C1950 C 0.36193 0.86833 0.77499 0.0
C1951 C 0.33136 0.87793 0.78668 0.0
C1952 C 0.29455 0.86845 0.78385 0.0
C1953 C 0.28843 0.8497 0.76921 0.0
C1954 C 0.32018 0.84018 0.75779 0.0
H1955 H 0.80703 0.36313 0.7256 0.0
H1956 H 0.78616 0.35234 0.79599 0.0
H1957 H 0.85309 0.36408 0.80422 0.0
H1958 H 0.90624 0.34215 0.72574 0.0
H1959 H 0.92186 0.36298 0.7055 0.0
H1960 H 0.87284 0.35286 0.70527 0.0
H1961 H 0.84876 0.39482 0.70805 0.0
H1962 H 0.89768 0.40505 0.70859 0.0
H1963 H 0.86507 0.41265 0.73068 0.0
H1964 H 0.92105 0.37981 0.80491 0.0
H1965 H 0.98688 0.3941 0.79775 0.0
H1966 H 0.96393 0.39327 0.72678 0.0
C1967 C 0.81664 0.36295 0.74273 0.0
C1968 C 0.79128 0.35681 0.76015 0.0
C1969 C 0.80507 0.35682 0.78234 0.0
C1970 C 0.84299 0.3636 0.78719 0.0
C1971 C 0.86692 0.37007 0.76966 0.0
C1972 C 0.85447 0.36943 0.74784 0.0
C1973 C 0.8859 0.37716 0.73204 0.0
C1974 C 0.89739 0.35762 0.71621 0.0
C1975 C 0.87361 0.3987 0.71908 0.0
C1976 C 0.91786 0.38256 0.74839 0.0
C1977 C 0.90627 0.37851 0.77002 0.0
C1978 C 0.93053 0.38284 0.78803 0.0
C1979 C 0.96782 0.3911 0.78379 0.0
C1980 C 0.98068 0.39477 0.7617 0.0
C1981 C 0.9551 0.39055 0.74384 0.0
H1982 H 0.31281 0.40517 0.5125 0.0
H1983 H 0.27625 0.33394 0.50922 0.0
H1984 H 0.34383 0.32164 0.50791 0.0
H1985 H 0.39435 0.39937 0.4752 0.0
H1986 H 0.4246 0.41877 0.49072 0.0
H1987 H 0.37309 0.42229 0.49113 0.0
H1988 H 0.3736 0.4201 0.53416 0.0
H1989 H 0.42509 0.41657 0.53388 0.0
H1990 H 0.39517 0.39566 0.54765 0.0
H1991 H 0.41513 0.31662 0.50734 0.0
H1992 H 0.48603 0.31948 0.50761 0.0
H1993 H 0.47739 0.39372 0.51131 0.0
C1994 C 0.31905 0.38701 0.51144 0.0
C1995 C 0.28905 0.37056 0.51096 0.0
C1996 C 0.29855 0.34694 0.50962 0.0
C1997 C 0.33694 0.33971 0.50886 0.0
C1998 C 0.36578 0.35628 0.50942 0.0
C1999 C 0.35744 0.37943 0.51067 0.0
C2000 C 0.39415 0.39358 0.51124 0.0
C2001 C 0.39669 0.40944 0.49085 0.0
C2002 C 0.39717 0.40728 0.53303 0.0
C2003 C 0.42422 0.37472 0.51022 0.0
C2004 C 0.40717 0.35335 0.50913 0.0
C2005 C 0.42888 0.33327 0.50815 0.0
C2006 C 0.46916 0.33507 0.50831 0.0
C2007 C 0.4874 0.35679 0.50947 0.0
C2008 C 0.46443 0.37684 0.5104 0.0
H2009 H 0.96286 0.8363 0.54988 0.0
H2010 H 0.99868 0.86128 0.4851 0.0
H2011 H 0.93304 0.87588 0.47829 0.0
H2012 H 0.867 0.8178 0.53231 0.0
H2013 H 0.84494 0.82603 0.55822 0.0
H2014 H 0.89461 0.81722 0.5577 0.0
H2015 H 0.91419 0.85553 0.57647 0.0
H2016 H 0.86465 0.86458 0.57679 0.0
H2017 H 0.90062 0.8823 0.56367 0.0
H2018 H 0.86461 0.89049 0.4798 0.0
H2019 H 0.79616 0.89926 0.48739 0.0
H2020 H 0.80402 0.8627 0.55007 0.0
C2021 C 0.95679 0.84462 0.53416 0.0
C2022 C 0.98596 0.84767 0.51805 0.0
C2023 C 0.97679 0.85861 0.49766 0.0
C2024 C 0.93963 0.8671 0.49369 0.0
C2025 C 0.91177 0.86425 0.51012 0.0
C2026 C 0.91968 0.85288 0.52977 0.0
C2027 C 0.8844 0.85173 0.54453 0.0
C2028 C 0.872 0.82671 0.54841 0.0
C2029 C 0.8914 0.86429 0.56667 0.0
C2030 C 0.85553 0.86444 0.53022 0.0
C2031 C 0.87199 0.87178 0.51055 0.0
C2032 C 0.8513 0.8846 0.49504 0.0
C2033 C 0.81254 0.88964 0.49955 0.0
C2034 C 0.79479 0.88157 0.51925 0.0
C2035 C 0.81676 0.86894 0.53478 0.0
H2036 H 0.56966 0.10321 0.30917 0.0
H2037 H 0.54241 0.10684 0.23876 0.0
H2038 H 0.60795 0.12101 0.23103 0.0
H2039 H 0.62723 0.15375 0.31183 0.0
H2040 H 0.66192 0.14198 0.33098 0.0
H2041 H 0.61306 0.13161 0.33112 0.0
H2042 H 0.63719 0.09002 0.32513 0.0
H2043 H 0.68615 0.10023 0.32525 0.0
H2044 H 0.66845 0.0838 0.30198 0.0
H2045 H 0.6756 0.1367 0.23109 0.0
H2046 H 0.74258 0.14883 0.23855 0.0
H2047 H 0.72651 0.13385 0.30866 0.0
C2048 C 0.57756 0.10676 0.2921 0.0
C2049 C 0.55075 0.10391 0.27459 0.0
C2050 C 0.56237 0.10879 0.25248 0.0
C2051 C 0.59953 0.11697 0.2479 0.0
C2052 C 0.62496 0.12003 0.26558 0.0
C2053 C 0.61469 0.11477 0.28719 0.0
C2054 C 0.64769 0.11932 0.3031 0.0
C2055 C 0.63681 0.13776 0.32027 0.0
C2056 C 0.66064 0.09701 0.31453 0.0
C2057 C 0.67801 0.12807 0.28708 0.0
C2058 C 0.66421 0.12855 0.26553 0.0
C2059 C 0.68679 0.13628 0.24789 0.0
C2060 C 0.72475 0.14326 0.25231 0.0
C2061 C 0.73987 0.14227 0.27417 0.0
C2062 C 0.71588 0.13478 0.29175 0.0
H2063 H 0.05363 0.64392 0.25544 0.0
H2064 H 0.04569 0.571 0.26957 0.0
H2065 H 0.11657 0.56907 0.27247 0.0
H2066 H 0.14023 0.64167 0.22238 0.0
H2067 H 0.1593 0.66821 0.2332 0.0
H2068 H 0.108 0.66383 0.23186 0.0
H2069 H 0.10265 0.67231 0.27402 0.0
H2070 H 0.15394 0.67665 0.27552 0.0
H2071 H 0.13108 0.65589 0.2934 0.0
H2072 H 0.18777 0.57492 0.27365 0.0
H2073 H 0.25507 0.5879 0.27352 0.0
H2074 H 0.21775 0.65753 0.25954 0.0
C2075 C 0.06676 0.6275 0.25902 0.0
C2076 C 0.04402 0.60755 0.26219 0.0
C2077 C 0.06242 0.58648 0.26705 0.0
C2078 C 0.10268 0.58523 0.26873 0.0
C2079 C 0.12414 0.60522 0.26563 0.0
C2080 C 0.1069 0.62597 0.26092 0.0
C2081 C 0.13669 0.64495 0.25865 0.0
C2082 C 0.13601 0.65527 0.23512 0.0
C2083 C 0.13072 0.66355 0.27646 0.0
C2084 C 0.17346 0.6316 0.26277 0.0
C2085 C 0.16541 0.6087 0.26669 0.0
C2086 C 0.1944 0.5928 0.27063 0.0
C2087 C 0.23264 0.6004 0.27049 0.0
C2088 C 0.24186 0.62378 0.26652 0.0
C2089 C 0.2117 0.6396 0.26273 0.0
H2090 H 0.7329 0.59454 0.5149 0.0
H2091 H 0.76848 0.66601 0.51542 0.0
H2092 H 0.7007 0.67805 0.51437 0.0
H2093 H 0.65261 0.60161 0.4775 0.0
H2094 H 0.62222 0.58133 0.4918 0.0
H2095 H 0.67376 0.5781 0.49266 0.0
H2096 H 0.67188 0.57832 0.53574 0.0
H2097 H 0.62033 0.58152 0.535 0.0
H2098 H 0.64939 0.60196 0.55002 0.0
H2099 H 0.62905 0.68267 0.51302 0.0
H2100 H 0.55815 0.67924 0.51194 0.0
H2101 H 0.56854 0.60499 0.51253 0.0
C2102 C 0.72641 0.6127 0.51481 0.0
C2103 C 0.75617 0.62929 0.51524 0.0
C2104 C 0.74635 0.65291 0.51511 0.0
C2105 C 0.70785 0.65998 0.5145 0.0
C2106 C 0.67925 0.64326 0.51406 0.0
C2107 C 0.68795 0.62011 0.51425 0.0
C2108 C 0.65155 0.60573 0.51375 0.0
C2109 C 0.64995 0.59082 0.49267 0.0
C2110 C 0.64809 0.59102 0.53489 0.0
C2111 C 0.62119 0.62443 0.51321 0.0
C2112 C 0.63781 0.64595 0.51338 0.0
C2113 C 0.61566 0.66589 0.5129 0.0
C2114 C 0.5754 0.66378 0.51228 0.0
C2115 C 0.55769 0.64188 0.51216 0.0
C2116 C 0.5811 0.62201 0.51262 0.0
H2117 H 0.07107 0.16229 0.51254 0.0
H2118 H 0.03475 0.09217 0.52531 0.0
H2119 H 0.10204 0.07941 0.52384 0.0
H2120 H 0.14631 0.14799 0.47372 0.0
H2121 H 0.17887 0.16999 0.48328 0.0
H2122 H 0.12766 0.17404 0.48576 0.0
H2123 H 0.13517 0.18106 0.52809 0.0
H2124 H 0.18642 0.17709 0.52572 0.0
H2125 H 0.1591 0.15986 0.54498 0.0
H2126 H 0.17304 0.0738 0.52101 0.0
H2127 H 0.24367 0.07601 0.5168 0.0
H2128 H 0.23485 0.14939 0.50528 0.0
C2129 C 0.07734 0.1443 0.51512 0.0
C2130 C 0.04747 0.12828 0.51904 0.0
C2131 C 0.05696 0.10483 0.52222 0.0
C2132 C 0.09519 0.09735 0.52144 0.0
C2133 C 0.12388 0.11345 0.51741 0.0
C2134 C 0.11557 0.13644 0.51429 0.0
C2135 C 0.15209 0.15004 0.50999 0.0
C2136 C 0.15116 0.16117 0.48681 0.0
C2137 C 0.15857 0.16808 0.52829 0.0
C2138 C 0.18199 0.1311 0.51118 0.0
C2139 C 0.16506 0.11014 0.51554 0.0
C2140 C 0.18669 0.09011 0.51757 0.0
C2141 C 0.2268 0.09153 0.51514 0.0
C2142 C 0.24488 0.11282 0.51066 0.0
C2143 C 0.22197 0.13281 0.50861 0.0
loop_
_geom_bond_atom_site_label_1
_geom_bond_atom_site_label_2
_geom_bond_distance
_geom_bond_site_symmetry_2
_ccdc_geom_bond_type
Mg0 O7 2.141 . S
Mg0 O8 2.048 . S
Mg0 O9 2.048 . S
Mg0 O12 2.141 . S
C1 O2 1.313 . S
C1 O8 1.195 . S
O2 C1 1.313 . S
C3 O4 1.245 . S
C3 O12 1.289 . S
O4 C3 1.245 . S
C5 O6 1.245 . S
C5 O7 1.289 . S
O6 C5 1.245 . S
O7 Mg0 2.141 . S
O7 C5 1.289 . S
O8 Mg0 2.048 . S
O8 C1 1.195 . S
O9 Mg0 2.048 . S
O9 C10 1.195 . S
C10 O9 1.195 . S
C10 O11 1.313 . S
O11 C10 1.313 . S
O12 Mg0 2.141 . S
O12 C3 1.289 . S
Mg13 O20 2.141 . S
Mg13 O21 2.048 . S
Mg13 O22 2.048 . S
Mg13 O25 2.141 . S
C14 O15 1.313 . S
C14 O21 1.195 . S
O15 C14 1.313 . S
C16 O17 1.245 . S
C16 O25 1.289 . S
O17 C16 1.245 . S
C18 O19 1.245 . S
C18 O20 1.289 . S
O19 C18 1.245 . S
O20 Mg13 2.141 . S
O20 C18 1.289 . S
O21 Mg13 2.048 . S
O21 C14 1.195 . S
O22 Mg13 2.048 . S
O22 C23 1.195 . S
C23 O22 1.195 . S
C23 O24 1.313 . S
O24 C23 1.313 . S
O25 Mg13 2.141 . S
O25 C16 1.289 . S
Mg26 O33 2.141 1_554 S
Mg26 O34 2.049 . S
Mg26 O35 2.047 . S
Mg26 O38 2.140 1_554 S
C27 O28 1.313 . S
C27 O34 1.195 . S
O28 C27 1.313 . S
C29 O30 1.245 . S
C29 O38 1.289 . S
O30 C29 1.245 . S
C31 O32 1.245 . S
C31 O33 1.289 . S
O32 C31 1.245 . S
O33 Mg26 2.141 1_556 S
O33 C31 1.289 . S
O34 Mg26 2.049 . S
O34 C27 1.195 . S
O35 Mg26 2.047 . S
O35 C36 1.201 . S
C36 O35 1.201 . S
C36 O37 1.313 . S
O37 C36 1.313 . S
O38 Mg26 2.140 1_556 S
O38 C29 1.289 . S
Mg39 O46 2.141 1_554 S
Mg39 O47 2.049 . S
Mg39 O48 2.047 . S
Mg39 O51 2.140 1_554 S
C40 O41 1.313 . S
C40 O47 1.195 . S
O41 C40 1.313 . S
C42 O43 1.245 . S
C42 O51 1.289 . S
O43 C42 1.245 . S
C44 O45 1.245 . S
C44 O46 1.289 . S
O45 C44 1.245 . S
O46 Mg39 2.141 1_556 S
O46 C44 1.289 . S
O47 Mg39 2.049 . S
O47 C40 1.195 . S
O48 Mg39 2.047 . S
O48 C49 1.201 . S
C49 O48 1.201 . S
C49 O50 1.313 . S
O50 C49 1.313 . S
O51 Mg39 2.140 1_556 S
O51 C42 1.289 . S
Mg52 O59 2.141 . S
Mg52 O60 2.048 . S
Mg52 O61 2.048 . S
Mg52 O64 2.141 . S
C53 O54 1.313 . S
C53 O60 1.195 . S
O54 C53 1.313 . S
C55 O56 1.245 . S
C55 O64 1.289 . S
O56 C55 1.245 . S
C57 O58 1.245 . S
C57 O59 1.289 . S
O58 C57 1.245 . S
O59 Mg52 2.141 . S
O59 C57 1.289 . S
O60 Mg52 2.048 . S
O60 C53 1.195 . S
O61 Mg52 2.048 . S
O61 C62 1.195 . S
C62 O61 1.195 . S
C62 O63 1.313 . S
O63 C62 1.313 . S
O64 Mg52 2.141 . S
O64 C55 1.289 . S
Mg65 O72 2.141 . S
Mg65 O73 2.048 . S
Mg65 O74 2.048 . S
Mg65 O77 2.141 . S
C66 O67 1.313 . S
C66 O73 1.195 . S
O67 C66 1.313 . S
C68 O69 1.245 . S
C68 O77 1.289 . S
O69 C68 1.245 . S
C70 O71 1.245 . S
C70 O72 1.289 . S
O71 C70 1.245 . S
O72 Mg65 2.141 . S
O72 C70 1.289 . S
O73 Mg65 2.048 . S
O73 C66 1.195 . S
O74 Mg65 2.048 . S
O74 C75 1.195 . S
C75 O74 1.195 . S
C75 O76 1.313 . S
O76 C75 1.313 . S
O77 Mg65 2.141 . S
O77 C68 1.289 . S
Mg78 O85 2.141 . S
Mg78 O86 2.048 1_554 S
Mg78 O87 2.048 . S
Mg78 O90 2.141 . S
C79 O80 1.313 . S
C79 O86 1.195 . S
O80 C79 1.313 . S
C81 O82 1.245 . S
C81 O90 1.289 . S
O82 C81 1.245 . S
C83 O84 1.245 1_554 S
C83 O85 1.289 . S
O84 C83 1.245 1_556 S
O85 Mg78 2.141 . S
O85 C83 1.289 . S
O86 Mg78 2.048 1_556 S
O86 C79 1.195 . S
O87 Mg78 2.048 . S
O87 C88 1.190 1_554 S
C88 O87 1.190 1_556 S
C88 O89 1.313 . S
O89 C88 1.313 . S
O90 Mg78 2.141 . S
O90 C81 1.289 . S
Mg91 O98 2.141 . S
Mg91 O99 2.048 1_554 S
Mg91 O100 2.048 . S
Mg91 O103 2.141 . S
C92 O93 1.313 . S
C92 O99 1.195 . S
O93 C92 1.313 . S
C94 O95 1.245 . S
C94 O103 1.289 . S
O95 C94 1.245 . S
C96 O97 1.245 1_554 S
C96 O98 1.289 . S
O97 C96 1.245 1_556 S
O98 Mg91 2.141 . S
O98 C96 1.289 . S
O99 Mg91 2.048 1_556 S
O99 C92 1.195 . S
O100 Mg91 2.048 . S
O100 C101 1.190 1_554 S
C101 O100 1.190 1_556 S
C101 O102 1.313 . S
O102 C101 1.313 . S
O103 Mg91 2.141 . S
O103 C94 1.289 . S
Mg104 O111 2.141 . S
Mg104 O112 2.048 . S
Mg104 O113 2.048 . S
Mg104 O116 2.141 . S
C105 O106 1.313 . S
C105 O112 1.195 . S
O106 C105 1.313 . S
C107 O108 1.245 . S
C107 O116 1.289 . S
O108 C107 1.245 . S
C109 O110 1.245 . S
C109 O111 1.289 . S
O110 C109 1.245 . S
O111 Mg104 2.141 . S
O111 C109 1.289 . S
O112 Mg104 2.048 . S
O112 C105 1.195 . S
O113 Mg104 2.048 . S
O113 C114 1.195 . S
C114 O113 1.195 . S
C114 O115 1.313 . S
O115 C114 1.313 . S
O116 Mg104 2.141 . S
O116 C107 1.289 . S
Mg117 O124 2.141 . S
Mg117 O125 2.048 . S
Mg117 O126 2.048 . S
Mg117 O129 2.141 . S
C118 O119 1.313 . S
C118 O125 1.195 . S
O119 C118 1.313 . S
C120 O121 1.245 . S
C120 O129 1.289 . S
O121 C120 1.245 . S
C122 O123 1.245 . S
C122 O124 1.289 . S
O123 C122 1.245 . S
O124 Mg117 2.141 . S
O124 C122 1.289 . S
O125 Mg117 2.048 . S
O125 C118 1.195 . S
O126 Mg117 2.048 . S
O126 C127 1.195 . S
C127 O126 1.195 . S
C127 O128 1.313 . S
O128 C127 1.313 . S
O129 Mg117 2.141 . S
O129 C120 1.289 . S
Mg130 O137 2.141 . S
Mg130 O138 2.048 . S
Mg130 O139 2.048 . S
Mg130 O142 2.141 . S
C131 O132 1.313 . S
C131 O138 1.195 . S
O132 C131 1.313 . S
C133 O134 1.245 . S
C133 O142 1.289 . S
O134 C133 1.245 . S
C135 O136 1.245 . S
C135 O137 1.289 . S
O136 C135 1.245 . S
O137 Mg130 2.141 . S
O137 C135 1.289 . S
O138 Mg130 2.048 . S
O138 C131 1.195 . S
O139 Mg130 2.048 . S
O139 C140 1.195 . S
C140 O139 1.195 . S
C140 O141 1.313 . S
O141 C140 1.313 . S
O142 Mg130 2.141 . S
O142 C133 1.289 . S
Mg143 O150 2.141 . S
Mg143 O151 2.048 . S
Mg143 O152 2.048 . S
Mg143 O155 2.141 . S
C144 O145 1.313 . S
C144 O151 1.195 . S
O145 C144 1.313 . S
C146 O147 1.245 . S
C146 O155 1.289 . S
O147 C146 1.245 . S
C148 O149 1.245 . S
C148 O150 1.289 . S
O149 C148 1.245 . S
O150 Mg143 2.141 . S
O150 C148 1.289 . S
O151 Mg143 2.048 . S
O151 C144 1.195 . S
O152 Mg143 2.048 . S
O152 C153 1.195 . S
C153 O152 1.195 . S
C153 O154 1.313 . S
O154 C153 1.313 . S
O155 Mg143 2.141 . S
O155 C146 1.289 . S
Mg156 O163 2.141 . S
Mg156 O164 2.048 . S
Mg156 O165 2.048 . S
Mg156 O168 2.141 . S
C157 O158 1.313 . S
C157 O164 1.195 . S
O158 C157 1.313 . S
C159 O160 1.245 . S
C159 O168 1.289 . S
O160 C159 1.245 . S
C161 O162 1.245 . S
C161 O163 1.289 . S
O162 C161 1.245 . S
O163 Mg156 2.141 . S
O163 C161 1.289 . S
O164 Mg156 2.048 . S
O164 C157 1.195 . S
O165 Mg156 2.048 . S
O165 C166 1.195 . S
C166 O165 1.195 . S
C166 O167 1.313 . S
O167 C166 1.313 . S
O168 Mg156 2.141 . S
O168 C159 1.289 . S
Mg169 O176 2.141 . S
Mg169 O177 2.048 . S
Mg169 O178 2.048 . S
Mg169 O181 2.141 . S
C170 O171 1.313 . S
C170 O177 1.195 . S
O171 C170 1.313 . S
C172 O173 1.245 . S
C172 O181 1.289 . S
O173 C172 1.245 . S
C174 O175 1.245 . S
C174 O176 1.289 . S
O175 C174 1.245 . S
O176 Mg169 2.141 . S
O176 C174 1.289 . S
O177 Mg169 2.048 . S
O177 C170 1.195 . S
O178 Mg169 2.048 . S
O178 C179 1.195 . S
C179 O178 1.195 . S
C179 O180 1.313 . S
O180 C179 1.313 . S
O181 Mg169 2.141 . S
O181 C172 1.289 . S
Mg182 O189 2.141 . S
Mg182 O190 2.048 . S
Mg182 O191 2.048 . S
Mg182 O194 2.141 . S
C183 O184 1.313 . S
C183 O190 1.195 . S
O184 C183 1.313 . S
C185 O186 1.245 . S
C185 O194 1.289 . S
O186 C185 1.245 . S
C187 O188 1.245 . S
C187 O189 1.289 . S
O188 C187 1.245 . S
O189 Mg182 2.141 . S
O189 C187 1.289 . S
O190 Mg182 2.048 . S
O190 C183 1.195 . S
O191 Mg182 2.048 . S
O191 C192 1.195 . S
C192 O191 1.195 . S
C192 O193 1.313 . S
O193 C192 1.313 . S
O194 Mg182 2.141 . S
O194 C185 1.289 . S
Mg195 O202 2.141 . S
Mg195 O203 2.048 . S
Mg195 O204 2.048 . S
Mg195 O207 2.141 . S
C196 O197 1.313 . S
C196 O203 1.195 . S
O197 C196 1.313 . S
C198 O199 1.245 . S
C198 O207 1.289 . S
O199 C198 1.245 . S
C200 O201 1.245 . S
C200 O202 1.289 . S
O201 C200 1.245 . S
O202 Mg195 2.141 . S
O202 C200 1.289 . S
O203 Mg195 2.048 . S
O203 C196 1.195 . S
O204 Mg195 2.048 . S
O204 C205 1.195 . S
C205 O204 1.195 . S
C205 O206 1.313 . S
O206 C205 1.313 . S
O207 Mg195 2.141 . S
O207 C198 1.289 . S
Mg208 O215 2.141 . S
Mg208 O216 2.048 . S
Mg208 O217 2.048 . S
Mg208 O220 2.141 . S
C209 O210 1.313 . S
C209 O216 1.195 . S
O210 C209 1.313 . S
C211 O212 1.245 . S
C211 O220 1.289 . S
O212 C211 1.245 . S
C213 O214 1.245 . S
C213 O215 1.289 . S
O214 C213 1.245 . S
O215 Mg208 2.141 . S
O215 C213 1.289 . S
O216 Mg208 2.048 . S
O216 C209 1.195 . S
O217 Mg208 2.048 . S
O217 C218 1.195 . S
C218 O217 1.195 . S
C218 O219 1.313 . S
O219 C218 1.313 . S
O220 Mg208 2.141 . S
O220 C211 1.289 . S
Mg221 O228 2.141 . S
Mg221 O229 2.048 . S
Mg221 O230 2.048 . S
Mg221 O233 2.141 . S
C222 O223 1.313 . S
C222 O229 1.195 . S
O223 C222 1.313 . S
C224 O225 1.245 . S
C224 O233 1.289 . S
O225 C224 1.245 . S
C226 O227 1.245 . S
C226 O228 1.289 . S
O227 C226 1.245 . S
O228 Mg221 2.141 . S
O228 C226 1.289 . S
O229 Mg221 2.048 . S
O229 C222 1.195 . S
O230 Mg221 2.048 . S
O230 C231 1.195 . S
C231 O230 1.195 . S
C231 O232 1.313 . S
O232 C231 1.313 . S
O233 Mg221 2.141 . S
O233 C224 1.289 . S
Mg234 O241 2.141 . S
Mg234 O242 2.048 . S
Mg234 O243 2.048 . S
Mg234 O246 2.141 . S
C235 O236 1.313 . S
C235 O242 1.195 . S
O236 C235 1.313 . S
C237 O238 1.245 . S
C237 O246 1.289 . S
O238 C237 1.245 . S
C239 O240 1.245 . S
C239 O241 1.289 . S
O240 C239 1.245 . S
O241 Mg234 2.141 . S
O241 C239 1.289 . S
O242 Mg234 2.048 . S
O242 C235 1.195 . S
O243 Mg234 2.048 . S
O243 C244 1.195 . S
C244 O243 1.195 . S
C244 O245 1.313 . S
O245 C244 1.313 . S
O246 Mg234 2.141 . S
O246 C237 1.289 . S
Mg247 O254 2.141 . S
Mg247 O255 2.048 . S
Mg247 O256 2.048 . S
Mg247 O259 2.141 . S
C248 O249 1.313 . S
C248 O255 1.195 . S
O249 C248 1.313 . S
C250 O251 1.245 . S
C250 O259 1.289 . S
O251 C250 1.245 . S
C252 O253 1.245 . S
C252 O254 1.289 . S
O253 C252 1.245 . S
O254 Mg247 2.141 . S
O254 C252 1.289 . S
O255 Mg247 2.048 . S
O255 C248 1.195 . S
O256 Mg247 2.048 . S
O256 C257 1.195 . S
C257 O256 1.195 . S
C257 O258 1.313 . S
O258 C257 1.313 . S
O259 Mg247 2.141 . S
O259 C250 1.289 . S
Mg260 O267 2.141 . S
Mg260 O268 2.048 . S
Mg260 O269 2.048 . S
Mg260 O272 2.141 . S
C261 O262 1.313 . S
C261 O268 1.195 . S
O262 C261 1.313 . S
C263 O264 1.245 . S
C263 O272 1.289 . S
O264 C263 1.245 . S
C265 O266 1.245 . S
C265 O267 1.289 . S
O266 C265 1.245 . S
O267 Mg260 2.141 . S
O267 C265 1.289 . S
O268 Mg260 2.048 . S
O268 C261 1.195 . S
O269 Mg260 2.048 . S
O269 C270 1.195 . S
C270 O269 1.195 . S
C270 O271 1.313 . S
O271 C270 1.313 . S
O272 Mg260 2.141 . S
O272 C263 1.289 . S
Mg273 O280 2.141 . S
Mg273 O281 2.048 . S
Mg273 O282 2.048 . S
Mg273 O285 2.141 . S
C274 O275 1.313 . S
C274 O281 1.195 . S
O275 C274 1.313 . S
C276 O277 1.245 . S
C276 O285 1.289 . S
O277 C276 1.245 . S
C278 O279 1.245 . S
C278 O280 1.289 . S
O279 C278 1.245 . S
O280 Mg273 2.141 . S
O280 C278 1.289 . S
O281 Mg273 2.048 . S
O281 C274 1.195 . S
O282 Mg273 2.048 . S
O282 C283 1.195 . S
C283 O282 1.195 . S
C283 O284 1.313 . S
O284 C283 1.313 . S
O285 Mg273 2.141 . S
O285 C276 1.289 . S
Mg286 O293 2.141 . S
Mg286 O294 2.048 . S
Mg286 O295 2.048 . S
Mg286 O298 2.141 . S
C287 O288 1.313 . S
C287 O294 1.195 . S
O288 C287 1.313 . S
C289 O290 1.245 . S
C289 O298 1.289 . S
O290 C289 1.245 . S
C291 O292 1.245 . S
C291 O293 1.289 . S
O292 C291 1.245 . S
O293 Mg286 2.141 . S
O293 C291 1.289 . S
O294 Mg286 2.048 . S
O294 C287 1.195 . S
O295 Mg286 2.048 . S
O295 C296 1.195 . S
C296 O295 1.195 . S
C296 O297 1.313 . S
O297 C296 1.313 . S
O298 Mg286 2.141 . S
O298 C289 1.289 . S
Mg299 O306 2.141 . S
Mg299 O307 2.048 . S
Mg299 O308 2.048 . S
Mg299 O311 2.141 . S
C300 O301 1.313 . S
C300 O307 1.195 . S
O301 C300 1.313 . S
C302 O303 1.245 . S
C302 O311 1.289 . S
O303 C302 1.245 . S
C304 O305 1.245 . S
C304 O306 1.289 . S
O305 C304 1.245 . S
O306 Mg299 2.141 . S
O306 C304 1.289 . S
O307 Mg299 2.048 . S
O307 C300 1.195 . S
O308 Mg299 2.048 . S
O308 C309 1.195 . S
C309 O308 1.195 . S
C309 O310 1.313 . S
O310 C309 1.313 . S
O311 Mg299 2.141 . S
O311 C302 1.289 . S
Mg312 O319 2.141 . S
Mg312 O320 2.048 . S
Mg312 O321 2.048 . S
Mg312 O324 2.141 . S
C313 O314 1.313 . S
C313 O320 1.195 . S
O314 C313 1.313 . S
C315 O316 1.245 . S
C315 O324 1.289 . S
O316 C315 1.245 . S
C317 O318 1.245 . S
C317 O319 1.289 . S
O318 C317 1.245 . S
O319 Mg312 2.141 . S
O319 C317 1.289 . S
O320 Mg312 2.048 . S
O320 C313 1.195 . S
O321 Mg312 2.048 . S
O321 C322 1.195 . S
C322 O321 1.195 . S
C322 O323 1.313 . S
O323 C322 1.313 . S
O324 Mg312 2.141 . S
O324 C315 1.289 . S
Mg325 O332 2.141 . S
Mg325 O333 2.048 . S
Mg325 O334 2.048 . S
Mg325 O337 2.141 . S
C326 O327 1.313 . S
C326 O333 1.195 . S
O327 C326 1.313 . S
C328 O329 1.245 . S
C328 O337 1.289 . S
O329 C328 1.245 . S
C330 O331 1.245 . S
C330 O332 1.289 . S
O331 C330 1.245 . S
O332 Mg325 2.141 . S
O332 C330 1.289 . S
O333 Mg325 2.048 . S
O333 C326 1.195 . S
O334 Mg325 2.048 . S
O334 C335 1.195 . S
C335 O334 1.195 . S
C335 O336 1.313 . S
O336 C335 1.313 . S
O337 Mg325 2.141 . S
O337 C328 1.289 . S
Mg338 O345 2.141 1_554 S
Mg338 O346 2.049 . S
Mg338 O347 2.047 . S
Mg338 O350 2.140 1_554 S
C339 O340 1.313 . S
C339 O346 1.195 . S
O340 C339 1.313 . S
C341 O342 1.245 . S
C341 O350 1.289 . S
O342 C341 1.245 . S
C343 O344 1.245 . S
C343 O345 1.289 . S
O344 C343 1.245 . S
O345 Mg338 2.141 1_556 S
O345 C343 1.289 . S
O346 Mg338 2.049 . S
O346 C339 1.195 . S
O347 Mg338 2.047 . S
O347 C348 1.201 . S
C348 O347 1.201 . S
C348 O349 1.313 . S
O349 C348 1.313 . S
O350 Mg338 2.140 1_556 S
O350 C341 1.289 . S
Mg351 O358 2.141 1_554 S
Mg351 O359 2.049 . S
Mg351 O360 2.047 . S
Mg351 O363 2.140 1_554 S
C352 O353 1.313 . S
C352 O359 1.195 . S
O353 C352 1.313 . S
C354 O355 1.245 . S
C354 O363 1.289 . S
O355 C354 1.245 . S
C356 O357 1.245 . S
C356 O358 1.289 . S
O357 C356 1.245 . S
O358 Mg351 2.141 1_556 S
O358 C356 1.289 . S
O359 Mg351 2.049 . S
O359 C352 1.195 . S
O360 Mg351 2.047 . S
O360 C361 1.201 . S
C361 O360 1.201 . S
C361 O362 1.313 . S
O362 C361 1.313 . S
O363 Mg351 2.140 1_556 S
O363 C354 1.289 . S
Mg364 O371 2.141 . S
Mg364 O372 2.048 . S
Mg364 O373 2.048 . S
Mg364 O376 2.141 . S
C365 O366 1.313 . S
C365 O372 1.195 . S
O366 C365 1.313 . S
C367 O368 1.245 . S
C367 O376 1.289 . S
O368 C367 1.245 . S
C369 O370 1.245 . S
C369 O371 1.289 . S
O370 C369 1.245 . S
O371 Mg364 2.141 . S
O371 C369 1.289 . S
O372 Mg364 2.048 . S
O372 C365 1.195 . S
O373 Mg364 2.048 . S
O373 C374 1.195 . S
C374 O373 1.195 . S
C374 O375 1.313 . S
O375 C374 1.313 . S
O376 Mg364 2.141 . S
O376 C367 1.289 . S
Mg377 O384 2.141 . S
Mg377 O385 2.048 . S
Mg377 O386 2.048 . S
Mg377 O389 2.141 . S
C378 O379 1.313 . S
C378 O385 1.195 . S
O379 C378 1.313 . S
C380 O381 1.245 . S
C380 O389 1.289 . S
O381 C380 1.245 . S
C382 O383 1.245 . S
C382 O384 1.289 . S
O383 C382 1.245 . S
O384 Mg377 2.141 . S
O384 C382 1.289 . S
O385 Mg377 2.048 . S
O385 C378 1.195 . S
O386 Mg377 2.048 . S
O386 C387 1.195 . S
C387 O386 1.195 . S
C387 O388 1.313 . S
O388 C387 1.313 . S
O389 Mg377 2.141 . S
O389 C380 1.289 . S
Mg390 O397 2.141 . S
Mg390 O398 2.048 1_554 S
Mg390 O399 2.048 . S
Mg390 O402 2.141 . S
C391 O392 1.313 . S
C391 O398 1.195 . S
O392 C391 1.313 . S
C393 O394 1.245 . S
C393 O402 1.289 . S
O394 C393 1.245 . S
C395 O396 1.245 1_554 S
C395 O397 1.289 . S
O396 C395 1.245 1_556 S
O397 Mg390 2.141 . S
O397 C395 1.289 . S
O398 Mg390 2.048 1_556 S
O398 C391 1.195 . S
O399 Mg390 2.048 . S
O399 C400 1.190 1_554 S
C400 O399 1.190 1_556 S
C400 O401 1.313 . S
O401 C400 1.313 . S
O402 Mg390 2.141 . S
O402 C393 1.289 . S
Mg403 O410 2.141 . S
Mg403 O411 2.048 1_554 S
Mg403 O412 2.048 . S
Mg403 O415 2.141 . S
C404 O405 1.313 . S
C404 O411 1.195 . S
O405 C404 1.313 . S
C406 O407 1.245 . S
C406 O415 1.289 . S
O407 C406 1.245 . S
C408 O409 1.245 1_554 S
C408 O410 1.289 . S
O409 C408 1.245 1_556 S
O410 Mg403 2.141 . S
O410 C408 1.289 . S
O411 Mg403 2.048 1_556 S
O411 C404 1.195 . S
O412 Mg403 2.048 . S
O412 C413 1.190 1_554 S
C413 O412 1.190 1_556 S
C413 O414 1.313 . S
O414 C413 1.313 . S
O415 Mg403 2.141 . S
O415 C406 1.289 . S
H416 C428 0.930 . S
H417 C430 0.930 . S
H418 C431 0.930 . S
H419 C435 0.959 . S
H420 C435 0.959 . S
H421 C435 0.961 . S
H422 C436 0.960 . S
H423 C436 0.961 . S
H424 C436 0.959 . S
H425 C439 0.929 . S
H426 C440 0.931 . S
H427 C442 0.930 . S
C428 H416 0.930 . S
C428 C429 1.399 . S
C428 C433 1.399 . S
C429 C428 1.399 . S
C429 C430 1.376 . S
C430 H417 0.930 . S
C430 C429 1.376 . S
C430 C431 1.388 . S
C431 H418 0.930 . S
C431 C430 1.388 . S
C431 C432 1.390 . S
C432 C431 1.390 . S
C432 C433 1.394 . S
C432 C438 1.465 . S
C433 C428 1.399 . S
C433 C432 1.394 . S
C433 C434 1.516 . S
C434 C433 1.516 . S
C434 C435 1.502 . S
C434 C436 1.561 . S
C434 C437 1.526 . S
C435 H419 0.959 . S
C435 H420 0.959 . S
C435 H421 0.961 . S
C435 C434 1.502 . S
C436 H422 0.960 . S
C436 H423 0.961 . S
C436 H424 0.959 . S
C436 C434 1.561 . S
C437 C434 1.526 . S
C437 C438 1.396 . S
C437 C442 1.390 . S
C438 C432 1.465 . S
C438 C437 1.396 . S
C438 C439 1.399 . S
C439 H425 0.929 . S
C439 C438 1.399 . S
C439 C440 1.385 . S
C440 H426 0.931 . S
C440 C439 1.385 . S
C440 C441 1.389 . S
C441 C440 1.389 . S
C441 C442 1.387 . S
C442 H427 0.930 . S
C442 C437 1.390 . S
C442 C441 1.387 . S
H443 C455 0.930 . S
H444 C457 0.930 . S
H445 C458 0.930 . S
H446 C462 0.959 . S
H447 C462 0.959 . S
H448 C462 0.961 . S
H449 C463 0.960 . S
H450 C463 0.961 . S
H451 C463 0.959 . S
H452 C466 0.929 . S
H453 C467 0.931 . S
H454 C469 0.930 . S
C455 H443 0.930 . S
C455 C456 1.399 . S
C455 C460 1.399 . S
C456 C455 1.399 . S
C456 C457 1.376 . S
C457 H444 0.930 . S
C457 C456 1.376 . S
C457 C458 1.388 . S
C458 H445 0.930 . S
C458 C457 1.388 . S
C458 C459 1.390 . S
C459 C458 1.390 . S
C459 C460 1.394 . S
C459 C465 1.465 . S
C460 C455 1.399 . S
C460 C459 1.394 . S
C460 C461 1.516 . S
C461 C460 1.516 . S
C461 C462 1.502 . S
C461 C463 1.561 . S
C461 C464 1.526 . S
C462 H446 0.959 . S
C462 H447 0.959 . S
C462 H448 0.961 . S
C462 C461 1.502 . S
C463 H449 0.960 . S
C463 H450 0.961 . S
C463 H451 0.959 . S
C463 C461 1.561 . S
C464 C461 1.526 . S
C464 C465 1.396 . S
C464 C469 1.390 . S
C465 C459 1.465 . S
C465 C464 1.396 . S
C465 C466 1.399 . S
C466 H452 0.929 . S
C466 C465 1.399 . S
C466 C467 1.385 . S
C467 H453 0.931 . S
C467 C466 1.385 . S
C467 C468 1.389 . S
C468 C467 1.389 . S
C468 C469 1.387 . S
C469 H454 0.930 . S
C469 C464 1.390 . S
C469 C468 1.387 . S
H470 C482 0.930 . S
H471 C484 0.930 . S
H472 C485 0.930 . S
H473 C489 0.959 . S
H474 C489 0.959 . S
H475 C489 0.961 . S
H476 C490 0.960 . S
H477 C490 0.961 . S
H478 C490 0.959 . S
H479 C493 0.929 . S
H480 C494 0.931 . S
H481 C496 0.930 . S
C482 H470 0.930 . S
C482 C483 1.399 . S
C482 C487 1.399 . S
C483 C482 1.399 . S
C483 C484 1.376 . S
C484 H471 0.930 . S
C484 C483 1.376 . S
C484 C485 1.388 . S
C485 H472 0.930 . S
C485 C484 1.388 . S
C485 C486 1.390 . S
C486 C485 1.390 . S
C486 C487 1.394 . S
C486 C492 1.465 . S
C487 C482 1.399 . S
C487 C486 1.394 . S
C487 C488 1.516 . S
C488 C487 1.516 . S
C488 C489 1.502 . S
C488 C490 1.561 . S
C488 C491 1.526 . S
C489 H473 0.959 . S
C489 H474 0.959 . S
C489 H475 0.961 . S
C489 C488 1.502 . S
C490 H476 0.960 . S
C490 H477 0.961 . S
C490 H478 0.959 . S
C490 C488 1.561 . S
C491 C488 1.526 . S
C491 C492 1.396 . S
C491 C496 1.390 . S
C492 C486 1.465 . S
C492 C491 1.396 . S
C492 C493 1.399 . S
C493 H479 0.929 . S
C493 C492 1.399 . S
C493 C494 1.385 . S
C494 H480 0.931 . S
C494 C493 1.385 . S
C494 C495 1.389 . S
C495 C494 1.389 . S
C495 C496 1.387 . S
C496 H481 0.930 . S
C496 C491 1.390 . S
C496 C495 1.387 . S
H497 C509 0.930 . S
H498 C511 0.930 . S
H499 C512 0.930 . S
H500 C516 0.959 . S
H501 C516 0.959 . S
H502 C516 0.961 . S
H503 C517 0.960 . S
H504 C517 0.961 . S
H505 C517 0.959 . S
H506 C520 0.929 . S
H507 C521 0.931 . S
H508 C523 0.930 . S
C509 H497 0.930 . S
C509 C510 1.399 . S
C509 C514 1.399 . S
C510 C509 1.399 . S
C510 C511 1.376 . S
C511 H498 0.930 . S
C511 C510 1.376 . S
C511 C512 1.388 . S
C512 H499 0.930 . S
C512 C511 1.388 . S
C512 C513 1.390 . S
C513 C512 1.390 . S
C513 C514 1.394 . S
C513 C519 1.465 . S
C514 C509 1.399 . S
C514 C513 1.394 . S
C514 C515 1.516 . S
C515 C514 1.516 . S
C515 C516 1.502 . S
C515 C517 1.561 . S
C515 C518 1.526 . S
C516 H500 0.959 . S
C516 H501 0.959 . S
C516 H502 0.961 . S
C516 C515 1.502 . S
C517 H503 0.960 . S
C517 H504 0.961 . S
C517 H505 0.959 . S
C517 C515 1.561 . S
C518 C515 1.526 . S
C518 C519 1.396 . S
C518 C523 1.390 . S
C519 C513 1.465 . S
C519 C518 1.396 . S
C519 C520 1.399 . S
C520 H506 0.929 . S
C520 C519 1.399 . S
C520 C521 1.385 . S
C521 H507 0.931 . S
C521 C520 1.385 . S
C521 C522 1.389 . S
C522 C521 1.389 . S
C522 C523 1.387 . S
C523 H508 0.930 . S
C523 C518 1.390 . S
C523 C522 1.387 . S
H524 C536 0.930 . S
H525 C538 0.930 . S
H526 C539 0.930 . S
H527 C543 0.959 . S
H528 C543 0.959 . S
H529 C543 0.961 . S
H530 C544 0.960 . S
H531 C544 0.961 . S
H532 C544 0.959 . S
H533 C547 0.929 . S
H534 C548 0.931 . S
H535 C550 0.930 . S
C536 H524 0.930 . S
C536 C537 1.399 . S
C536 C541 1.399 . S
C537 C536 1.399 . S
C537 C538 1.376 . S
C538 H525 0.930 . S
C538 C537 1.376 . S
C538 C539 1.388 . S
C539 H526 0.930 . S
C539 C538 1.388 . S
C539 C540 1.390 . S
C540 C539 1.390 . S
C540 C541 1.394 . S
C540 C546 1.465 . S
C541 C536 1.399 . S
C541 C540 1.394 . S
C541 C542 1.516 . S
C542 C541 1.516 . S
C542 C543 1.502 . S
C542 C544 1.561 . S
C542 C545 1.526 . S
C543 H527 0.959 . S
C543 H528 0.959 . S
C543 H529 0.961 . S
C543 C542 1.502 . S
C544 H530 0.960 . S
C544 H531 0.961 . S
C544 H532 0.959 . S
C544 C542 1.561 . S
C545 C542 1.526 . S
C545 C546 1.396 . S
C545 C550 1.390 . S
C546 C540 1.465 . S
C546 C545 1.396 . S
C546 C547 1.399 . S
C547 H533 0.929 . S
C547 C546 1.399 . S
C547 C548 1.385 . S
C548 H534 0.931 . S
C548 C547 1.385 . S
C548 C549 1.389 . S
C549 C548 1.389 . S
C549 C550 1.387 . S
C550 H535 0.930 . S
C550 C545 1.390 . S
C550 C549 1.387 . S
H551 C563 0.930 . S
H552 C565 0.930 . S
H553 C566 0.930 . S
H554 C570 0.959 . S
H555 C570 0.959 . S
H556 C570 0.961 . S
H557 C571 0.960 . S
H558 C571 0.961 . S
H559 C571 0.959 . S
H560 C574 0.929 . S
H561 C575 0.931 . S
H562 C577 0.930 . S
C563 H551 0.930 . S
C563 C564 1.399 . S
C563 C568 1.399 . S
C564 C563 1.399 . S
C564 C565 1.376 . S
C565 H552 0.930 . S
C565 C564 1.376 . S
C565 C566 1.388 . S
C566 H553 0.930 . S
C566 C565 1.388 . S
C566 C567 1.390 . S
C567 C566 1.390 . S
C567 C568 1.394 . S
C567 C573 1.465 . S
C568 C563 1.399 . S
C568 C567 1.394 . S
C568 C569 1.516 . S
C569 C568 1.516 . S
C569 C570 1.502 . S
C569 C571 1.561 . S
C569 C572 1.526 . S
C570 H554 0.959 . S
C570 H555 0.959 . S
C570 H556 0.961 . S
C570 C569 1.502 . S
C571 H557 0.960 . S
C571 H558 0.961 . S
C571 H559 0.959 . S
C571 C569 1.561 . S
C572 C569 1.526 . S
C572 C573 1.396 . S
C572 C577 1.390 . S
C573 C567 1.465 . S
C573 C572 1.396 . S
C573 C574 1.399 . S
C574 H560 0.929 . S
C574 C573 1.399 . S
C574 C575 1.385 . S
C575 H561 0.931 . S
C575 C574 1.385 . S
C575 C576 1.389 . S
C576 C575 1.389 . S
C576 C577 1.387 . S
C577 H562 0.930 . S
C577 C572 1.390 . S
C577 C576 1.387 . S
H578 C590 0.930 . S
H579 C592 0.930 . S
H580 C593 0.930 . S
H581 C597 0.959 . S
H582 C597 0.959 . S
H583 C597 0.961 . S
H584 C598 0.960 . S
H585 C598 0.961 . S
H586 C598 0.959 . S
H587 C601 0.929 . S
H588 C602 0.931 . S
H589 C604 0.930 . S
C590 H578 0.930 . S
C590 C591 1.399 . S
C590 C595 1.399 . S
C591 C590 1.399 . S
C591 C592 1.376 . S
C592 H579 0.930 . S
C592 C591 1.376 . S
C592 C593 1.388 . S
C593 H580 0.930 . S
C593 C592 1.388 . S
C593 C594 1.390 . S
C594 C593 1.390 . S
C594 C595 1.394 . S
C594 C600 1.465 . S
C595 C590 1.399 . S
C595 C594 1.394 . S
C595 C596 1.516 . S
C596 C595 1.516 . S
C596 C597 1.502 . S
C596 C598 1.561 . S
C596 C599 1.526 . S
C597 H581 0.959 . S
C597 H582 0.959 . S
C597 H583 0.961 . S
C597 C596 1.502 . S
C598 H584 0.960 . S
C598 H585 0.961 . S
C598 H586 0.959 . S
C598 C596 1.561 . S
C599 C596 1.526 . S
C599 C600 1.396 . S
C599 C604 1.390 . S
C600 C594 1.465 . S
C600 C599 1.396 . S
C600 C601 1.399 . S
C601 H587 0.929 . S
C601 C600 1.399 . S
C601 C602 1.385 . S
C602 H588 0.931 . S
C602 C601 1.385 . S
C602 C603 1.389 . S
C603 C602 1.389 . S
C603 C604 1.387 . S
C604 H589 0.930 . S
C604 C599 1.390 . S
C604 C603 1.387 . S
H605 C617 0.930 . S
H606 C619 0.930 . S
H607 C620 0.930 . S
H608 C624 0.959 . S
H609 C624 0.959 . S
H610 C624 0.961 . S
H611 C625 0.960 . S
H612 C625 0.961 . S
H613 C625 0.959 . S
H614 C628 0.929 . S
H615 C629 0.931 . S
H616 C631 0.930 . S
C617 H605 0.930 . S
C617 C618 1.399 . S
C617 C622 1.399 . S
C618 C617 1.399 . S
C618 C619 1.376 . S
C619 H606 0.930 . S
C619 C618 1.376 . S
C619 C620 1.388 . S
C620 H607 0.930 . S
C620 C619 1.388 . S
C620 C621 1.390 . S
C621 C620 1.390 . S
C621 C622 1.394 . S
C621 C627 1.465 . S
C622 C617 1.399 . S
C622 C621 1.394 . S
C622 C623 1.516 . S
C623 C622 1.516 . S
C623 C624 1.502 . S
C623 C625 1.561 . S
C623 C626 1.526 . S
C624 H608 0.959 . S
C624 H609 0.959 . S
C624 H610 0.961 . S
C624 C623 1.502 . S
C625 H611 0.960 . S
C625 H612 0.961 . S
C625 H613 0.959 . S
C625 C623 1.561 . S
C626 C623 1.526 . S
C626 C627 1.396 . S
C626 C631 1.390 . S
C627 C621 1.465 . S
C627 C626 1.396 . S
C627 C628 1.399 . S
C628 H614 0.929 . S
C628 C627 1.399 . S
C628 C629 1.385 . S
C629 H615 0.931 . S
C629 C628 1.385 . S
C629 C630 1.389 . S
C630 C629 1.389 . S
C630 C631 1.387 . S
C631 H616 0.930 . S
C631 C626 1.390 . S
C631 C630 1.387 . S
H632 C644 0.930 . S
H633 C646 0.930 . S
H634 C647 0.930 . S
H635 C651 0.959 . S
H636 C651 0.959 . S
H637 C651 0.961 . S
H638 C652 0.960 . S
H639 C652 0.961 . S
H640 C652 0.959 . S
H641 C655 0.929 . S
H642 C656 0.931 . S
H643 C658 0.930 . S
C644 H632 0.930 . S
C644 C645 1.399 . S
C644 C649 1.399 . S
C645 C644 1.399 . S
C645 C646 1.376 . S
C646 H633 0.930 . S
C646 C645 1.376 . S
C646 C647 1.388 . S
C647 H634 0.930 . S
C647 C646 1.388 . S
C647 C648 1.390 . S
C648 C647 1.390 . S
C648 C649 1.394 . S
C648 C654 1.465 . S
C649 C644 1.399 . S
C649 C648 1.394 . S
C649 C650 1.516 . S
C650 C649 1.516 . S
C650 C651 1.502 . S
C650 C652 1.561 . S
C650 C653 1.526 . S
C651 H635 0.959 . S
C651 H636 0.959 . S
C651 H637 0.961 . S
C651 C650 1.502 . S
C652 H638 0.960 . S
C652 H639 0.961 . S
C652 H640 0.959 . S
C652 C650 1.561 . S
C653 C650 1.526 . S
C653 C654 1.396 . S
C653 C658 1.390 . S
C654 C648 1.465 . S
C654 C653 1.396 . S
C654 C655 1.399 . S
C655 H641 0.929 . S
C655 C654 1.399 . S
C655 C656 1.385 . S
C656 H642 0.931 . S
C656 C655 1.385 . S
C656 C657 1.389 . S
C657 C656 1.389 . S
C657 C658 1.387 . S
C658 H643 0.930 . S
C658 C653 1.390 . S
C658 C657 1.387 . S
H659 C671 0.930 . S
H660 C673 0.930 . S
H661 C674 0.930 . S
H662 C678 0.959 . S
H663 C678 0.959 . S
H664 C678 0.961 . S
H665 C679 0.960 . S
H666 C679 0.961 . S
H667 C679 0.959 . S
H668 C682 0.929 . S
H669 C683 0.931 . S
H670 C685 0.930 . S
C671 H659 0.930 . S
C671 C672 1.399 . S
C671 C676 1.399 . S
C672 C671 1.399 . S
C672 C673 1.376 . S
C673 H660 0.930 . S
C673 C672 1.376 . S
C673 C674 1.388 . S
C674 H661 0.930 . S
C674 C673 1.388 . S
C674 C675 1.390 . S
C675 C674 1.390 . S
C675 C676 1.394 . S
C675 C681 1.465 . S
C676 C671 1.399 . S
C676 C675 1.394 . S
C676 C677 1.516 . S
C677 C676 1.516 . S
C677 C678 1.502 . S
C677 C679 1.561 . S
C677 C680 1.526 . S
C678 H662 0.959 . S
C678 H663 0.959 . S
C678 H664 0.961 . S
C678 C677 1.502 . S
C679 H665 0.960 . S
C679 H666 0.961 . S
C679 H667 0.959 . S
C679 C677 1.561 . S
C680 C677 1.526 . S
C680 C681 1.396 . S
C680 C685 1.390 . S
C681 C675 1.465 . S
C681 C680 1.396 . S
C681 C682 1.399 . S
C682 H668 0.929 . S
C682 C681 1.399 . S
C682 C683 1.385 . S
C683 H669 0.931 . S
C683 C682 1.385 . S
C683 C684 1.389 . S
C684 C683 1.389 . S
C684 C685 1.387 . S
C685 H670 0.930 . S
C685 C680 1.390 . S
C685 C684 1.387 . S
H686 C698 0.930 . S
H687 C700 0.930 . S
H688 C701 0.930 . S
H689 C705 0.959 . S
H690 C705 0.959 . S
H691 C705 0.961 . S
H692 C706 0.960 . S
H693 C706 0.961 . S
H694 C706 0.959 . S
H695 C709 0.929 . S
H696 C710 0.931 . S
H697 C712 0.930 . S
C698 H686 0.930 . S
C698 C699 1.399 . S
C698 C703 1.399 . S
C699 C698 1.399 . S
C699 C700 1.376 . S
C700 H687 0.930 . S
C700 C699 1.376 . S
C700 C701 1.388 . S
C701 H688 0.930 . S
C701 C700 1.388 . S
C701 C702 1.390 . S
C702 C701 1.390 . S
C702 C703 1.394 . S
C702 C708 1.465 . S
C703 C698 1.399 . S
C703 C702 1.394 . S
C703 C704 1.516 . S
C704 C703 1.516 . S
C704 C705 1.502 . S
C704 C706 1.561 . S
C704 C707 1.526 . S
C705 H689 0.959 . S
C705 H690 0.959 . S
C705 H691 0.961 . S
C705 C704 1.502 . S
C706 H692 0.960 . S
C706 H693 0.961 . S
C706 H694 0.959 . S
C706 C704 1.561 . S
C707 C704 1.526 . S
C707 C708 1.396 . S
C707 C712 1.390 . S
C708 C702 1.465 . S
C708 C707 1.396 . S
C708 C709 1.399 . S
C709 H695 0.929 . S
C709 C708 1.399 . S
C709 C710 1.385 . S
C710 H696 0.931 . S
C710 C709 1.385 . S
C710 C711 1.389 . S
C711 C710 1.389 . S
C711 C712 1.387 . S
C712 H697 0.930 . S
C712 C707 1.390 . S
C712 C711 1.387 . S
H713 C725 0.930 . S
H714 C727 0.930 . S
H715 C728 0.930 . S
H716 C732 0.959 . S
H717 C732 0.959 . S
H718 C732 0.961 . S
H719 C733 0.960 . S
H720 C733 0.961 . S
H721 C733 0.959 . S
H722 C736 0.929 . S
H723 C737 0.931 . S
H724 C739 0.930 . S
C725 H713 0.930 . S
C725 C726 1.399 . S
C725 C730 1.399 . S
C726 C725 1.399 . S
C726 C727 1.376 . S
C727 H714 0.930 . S
C727 C726 1.376 . S
C727 C728 1.388 . S
C728 H715 0.930 . S
C728 C727 1.388 . S
C728 C729 1.390 . S
C729 C728 1.390 . S
C729 C730 1.394 . S
C729 C735 1.465 . S
C730 C725 1.399 . S
C730 C729 1.394 . S
C730 C731 1.516 . S
C731 C730 1.516 . S
C731 C732 1.502 . S
C731 C733 1.561 . S
C731 C734 1.526 . S
C732 H716 0.959 . S
C732 H717 0.959 . S
C732 H718 0.961 . S
C732 C731 1.502 . S
C733 H719 0.960 . S
C733 H720 0.961 . S
C733 H721 0.959 . S
C733 C731 1.561 . S
C734 C731 1.526 . S
C734 C735 1.396 . S
C734 C739 1.390 . S
C735 C729 1.465 . S
C735 C734 1.396 . S
C735 C736 1.399 . S
C736 H722 0.929 . S
C736 C735 1.399 . S
C736 C737 1.385 . S
C737 H723 0.931 . S
C737 C736 1.385 . S
C737 C738 1.389 . S
C738 C737 1.389 . S
C738 C739 1.387 . S
C739 H724 0.930 . S
C739 C734 1.390 . S
C739 C738 1.387 . S
H740 C752 0.930 . S
H741 C754 0.930 . S
H742 C755 0.930 . S
H743 C759 0.959 . S
H744 C759 0.959 . S
H745 C759 0.961 . S
H746 C760 0.960 . S
H747 C760 0.961 . S
H748 C760 0.959 . S
H749 C763 0.929 . S
H750 C764 0.931 . S
H751 C766 0.930 . S
C752 H740 0.930 . S
C752 C753 1.399 . S
C752 C757 1.399 . S
C753 C752 1.399 . S
C753 C754 1.376 . S
C754 H741 0.930 . S
C754 C753 1.376 . S
C754 C755 1.388 . S
C755 H742 0.930 . S
C755 C754 1.388 . S
C755 C756 1.390 . S
C756 C755 1.390 . S
C756 C757 1.394 . S
C756 C762 1.465 . S
C757 C752 1.399 . S
C757 C756 1.394 . S
C757 C758 1.516 . S
C758 C757 1.516 . S
C758 C759 1.502 . S
C758 C760 1.561 . S
C758 C761 1.526 . S
C759 H743 0.959 . S
C759 H744 0.959 . S
C759 H745 0.961 . S
C759 C758 1.502 . S
C760 H746 0.960 . S
C760 H747 0.961 . S
C760 H748 0.959 . S
C760 C758 1.561 . S
C761 C758 1.526 . S
C761 C762 1.396 . S
C761 C766 1.390 . S
C762 C756 1.465 . S
C762 C761 1.396 . S
C762 C763 1.399 . S
C763 H749 0.929 . S
C763 C762 1.399 . S
C763 C764 1.385 . S
C764 H750 0.931 . S
C764 C763 1.385 . S
C764 C765 1.389 . S
C765 C764 1.389 . S
C765 C766 1.387 . S
C766 H751 0.930 . S
C766 C761 1.390 . S
C766 C765 1.387 . S
H767 C779 0.930 . S
H768 C781 0.930 . S
H769 C782 0.930 . S
H770 C786 0.959 . S
H771 C786 0.959 . S
H772 C786 0.961 . S
H773 C787 0.960 . S
H774 C787 0.961 . S
H775 C787 0.959 . S
H776 C790 0.929 . S
H777 C791 0.931 . S
H778 C793 0.930 . S
C779 H767 0.930 . S
C779 C780 1.399 . S
C779 C784 1.399 . S
C780 C779 1.399 . S
C780 C781 1.376 . S
C781 H768 0.930 . S
C781 C780 1.376 . S
C781 C782 1.388 . S
C782 H769 0.930 . S
C782 C781 1.388 . S
C782 C783 1.390 . S
C783 C782 1.390 . S
C783 C784 1.394 . S
C783 C789 1.465 . S
C784 C779 1.399 . S
C784 C783 1.394 . S
C784 C785 1.516 . S
C785 C784 1.516 . S
C785 C786 1.502 . S
C785 C787 1.561 . S
C785 C788 1.526 . S
C786 H770 0.959 . S
C786 H771 0.959 . S
C786 H772 0.961 . S
C786 C785 1.502 . S
C787 H773 0.960 . S
C787 H774 0.961 . S
C787 H775 0.959 . S
C787 C785 1.561 . S
C788 C785 1.526 . S
C788 C789 1.396 . S
C788 C793 1.390 . S
C789 C783 1.465 . S
C789 C788 1.396 . S
C789 C790 1.399 . S
C790 H776 0.929 . S
C790 C789 1.399 . S
C790 C791 1.385 . S
C791 H777 0.931 . S
C791 C790 1.385 . S
C791 C792 1.389 . S
C792 C791 1.389 . S
C792 C793 1.387 . S
C793 H778 0.930 . S
C793 C788 1.390 . S
C793 C792 1.387 . S
H794 C806 0.930 . S
H795 C808 0.930 . S
H796 C809 0.930 . S
H797 C813 0.959 . S
H798 C813 0.959 . S
H799 C813 0.961 . S
H800 C814 0.960 . S
H801 C814 0.961 . S
H802 C814 0.959 . S
H803 C817 0.929 . S
H804 C818 0.931 . S
H805 C820 0.930 . S
C806 H794 0.930 . S
C806 C807 1.399 . S
C806 C811 1.399 . S
C807 C806 1.399 . S
C807 C808 1.376 . S
C808 H795 0.930 . S
C808 C807 1.376 . S
C808 C809 1.388 . S
C809 H796 0.930 . S
C809 C808 1.388 . S
C809 C810 1.390 . S
C810 C809 1.390 . S
C810 C811 1.394 . S
C810 C816 1.465 . S
C811 C806 1.399 . S
C811 C810 1.394 . S
C811 C812 1.516 . S
C812 C811 1.516 . S
C812 C813 1.502 . S
C812 C814 1.561 . S
C812 C815 1.526 . S
C813 H797 0.959 . S
C813 H798 0.959 . S
C813 H799 0.961 . S
C813 C812 1.502 . S
C814 H800 0.960 . S
C814 H801 0.961 . S
C814 H802 0.959 . S
C814 C812 1.561 . S
C815 C812 1.526 . S
C815 C816 1.396 . S
C815 C820 1.390 . S
C816 C810 1.465 . S
C816 C815 1.396 . S
C816 C817 1.399 . S
C817 H803 0.929 . S
C817 C816 1.399 . S
C817 C818 1.385 . S
C818 H804 0.931 . S
C818 C817 1.385 . S
C818 C819 1.389 . S
C819 C818 1.389 . S
C819 C820 1.387 . S
C820 H805 0.930 . S
C820 C815 1.390 . S
C820 C819 1.387 . S
H821 C833 0.930 . S
H822 C835 0.930 . S
H823 C836 0.930 . S
H824 C840 0.959 . S
H825 C840 0.959 . S
H826 C840 0.961 . S
H827 C841 0.960 . S
H828 C841 0.961 . S
H829 C841 0.959 . S
H830 C844 0.929 . S
H831 C845 0.931 . S
H832 C847 0.930 . S
C833 H821 0.930 . S
C833 C834 1.399 . S
C833 C838 1.399 . S
C834 C833 1.399 . S
C834 C835 1.376 . S
C835 H822 0.930 . S
C835 C834 1.376 . S
C835 C836 1.388 . S
C836 H823 0.930 . S
C836 C835 1.388 . S
C836 C837 1.390 . S
C837 C836 1.390 . S
C837 C838 1.394 . S
C837 C843 1.465 . S
C838 C833 1.399 . S
C838 C837 1.394 . S
C838 C839 1.516 . S
C839 C838 1.516 . S
C839 C840 1.502 . S
C839 C841 1.561 . S
C839 C842 1.526 . S
C840 H824 0.959 . S
C840 H825 0.959 . S
C840 H826 0.961 . S
C840 C839 1.502 . S
C841 H827 0.960 . S
C841 H828 0.961 . S
C841 H829 0.959 . S
C841 C839 1.561 . S
C842 C839 1.526 . S
C842 C843 1.396 . S
C842 C847 1.390 . S
C843 C837 1.465 . S
C843 C842 1.396 . S
C843 C844 1.399 . S
C844 H830 0.929 . S
C844 C843 1.399 . S
C844 C845 1.385 . S
C845 H831 0.931 . S
C845 C844 1.385 . S
C845 C846 1.389 . S
C846 C845 1.389 . S
C846 C847 1.387 . S
C847 H832 0.930 . S
C847 C842 1.390 . S
C847 C846 1.387 . S
H848 C860 0.930 . S
H849 C862 0.930 . S
H850 C863 0.930 . S
H851 C867 0.959 . S
H852 C867 0.959 . S
H853 C867 0.961 . S
H854 C868 0.960 . S
H855 C868 0.961 . S
H856 C868 0.959 . S
H857 C871 0.929 1_655 S
H858 C872 0.931 . S
H859 C874 0.930 . S
C860 H848 0.930 . S
C860 C861 1.399 . S
C860 C865 1.399 . S
C861 C860 1.399 . S
C861 C862 1.376 . S
C862 H849 0.930 . S
C862 C861 1.376 . S
C862 C863 1.388 . S
C863 H850 0.930 . S
C863 C862 1.388 . S
C863 C864 1.390 . S
C864 C863 1.390 . S
C864 C865 1.394 . S
C864 C870 1.465 1_655 S
C865 C860 1.399 . S
C865 C864 1.394 . S
C865 C866 1.516 1_655 S
C866 C865 1.516 1_455 S
C866 C867 1.502 . S
C866 C868 1.561 1_455 S
C866 C869 1.526 . S
C867 H851 0.959 . S
C867 H852 0.959 . S
C867 H853 0.961 . S
C867 C866 1.502 . S
C868 H854 0.960 . S
C868 H855 0.961 . S
C868 H856 0.959 . S
C868 C866 1.561 1_655 S
C869 C866 1.526 . S
C869 C870 1.396 . S
C869 C874 1.390 . S
C870 C864 1.465 1_455 S
C870 C869 1.396 . S
C870 C871 1.399 . S
C871 H857 0.929 1_455 S
C871 C870 1.399 . S
C871 C872 1.385 . S
C872 H858 0.931 . S
C872 C871 1.385 . S
C872 C873 1.389 . S
C873 C872 1.389 . S
C873 C874 1.387 . S
C874 H859 0.930 . S
C874 C869 1.390 . S
C874 C873 1.387 . S
H875 C887 0.930 . S
H876 C889 0.930 . S
H877 C890 0.930 . S
H878 C894 0.959 . S
H879 C894 0.959 . S
H880 C894 0.961 . S
H881 C895 0.960 . S
H882 C895 0.961 1_545 S
H883 C895 0.959 . S
H884 C898 0.929 . S
H885 C899 0.931 . S
H886 C901 0.930 . S
C887 H875 0.930 . S
C887 C888 1.399 . S
C887 C892 1.399 . S
C888 C887 1.399 . S
C888 C889 1.376 . S
C889 H876 0.930 . S
C889 C888 1.376 . S
C889 C890 1.388 . S
C890 H877 0.930 . S
C890 C889 1.388 . S
C890 C891 1.390 . S
C891 C890 1.390 . S
C891 C892 1.394 . S
C891 C897 1.465 1_565 S
C892 C887 1.399 . S
C892 C891 1.394 . S
C892 C893 1.516 1_565 S
C893 C892 1.516 1_545 S
C893 C894 1.502 . S
C893 C895 1.561 1_545 S
C893 C896 1.526 . S
C894 H878 0.959 . S
C894 H879 0.959 . S
C894 H880 0.961 . S
C894 C893 1.502 . S
C895 H881 0.960 . S
C895 H882 0.961 1_565 S
C895 H883 0.959 . S
C895 C893 1.561 1_565 S
C896 C893 1.526 . S
C896 C897 1.396 . S
C896 C901 1.390 . S
C897 C891 1.465 1_545 S
C897 C896 1.396 . S
C897 C898 1.399 . S
C898 H884 0.929 . S
C898 C897 1.399 . S
C898 C899 1.385 . S
C899 H885 0.931 . S
C899 C898 1.385 . S
C899 C900 1.389 . S
C900 C899 1.389 . S
C900 C901 1.387 . S
C901 H886 0.930 . S
C901 C896 1.390 . S
C901 C900 1.387 . S
H902 C914 0.930 . S
H903 C916 0.930 . S
H904 C917 0.930 . S
H905 C921 0.959 . S
H906 C921 0.959 . S
H907 C921 0.961 1_565 S
H908 C922 0.960 . S
H909 C922 0.961 . S
H910 C922 0.959 . S
H911 C925 0.929 . S
H912 C926 0.931 . S
H913 C928 0.930 . S
C914 H902 0.930 . S
C914 C915 1.362 1_556 S
C914 C919 1.399 . S
C915 C914 1.362 1_554 S
C915 C916 1.425 . S
C916 H903 0.930 . S
C916 C915 1.425 . S
C916 C917 1.388 . S
C917 H904 0.930 . S
C917 C916 1.388 . S
C917 C918 1.390 . S
C918 C917 1.390 . S
C918 C919 1.394 1_554 S
C918 C924 1.465 1_465 S
C919 C914 1.399 . S
C919 C918 1.394 1_556 S
C919 C920 1.516 1_455 S
C920 C919 1.516 1_655 S
C920 C921 1.502 1_665 S
C920 C922 1.561 . S
C920 C923 1.526 1_565 S
C921 H905 0.959 . S
C921 H906 0.959 . S
C921 H907 0.961 1_545 S
C921 C920 1.502 1_445 S
C922 H908 0.960 . S
C922 H909 0.961 . S
C922 H910 0.959 . S
C922 C920 1.561 . S
C923 C920 1.526 1_545 S
C923 C924 1.396 1_556 S
C923 C928 1.390 . S
C924 C918 1.465 1_645 S
C924 C923 1.396 1_554 S
C924 C925 1.399 . S
C925 H911 0.929 . S
C925 C924 1.399 . S
C925 C926 1.385 . S
C926 H912 0.931 . S
C926 C925 1.385 . S
C926 C927 1.389 . S
C927 C926 1.389 . S
C927 C928 1.387 1_554 S
C928 H913 0.930 . S
C928 C923 1.390 . S
C928 C927 1.387 1_556 S
H929 C941 0.930 . S
H930 C943 0.930 . S
H931 C944 0.930 . S
H932 C948 0.959 . S
H933 C948 0.959 . S
H934 C948 0.961 . S
H935 C949 0.960 . S
H936 C949 0.961 . S
H937 C949 0.959 . S
H938 C952 0.929 . S
H939 C953 0.931 . S
H940 C955 0.930 . S
C941 H929 0.930 . S
C941 C942 1.396 1_554 S
C941 C946 1.399 . S
C942 C941 1.396 1_556 S
C942 C943 1.380 . S
C943 H930 0.930 . S
C943 C942 1.380 . S
C943 C944 1.388 . S
C944 H931 0.930 . S
C944 C943 1.388 . S
C944 C945 1.390 . S
C945 C944 1.390 . S
C945 C946 1.394 1_556 S
C945 C951 1.465 . S
C946 C941 1.399 . S
C946 C945 1.394 1_554 S
C946 C947 1.516 . S
C947 C946 1.516 . S
C947 C948 1.502 . S
C947 C949 1.561 . S
C947 C950 1.526 . S
C948 H932 0.959 . S
C948 H933 0.959 . S
C948 H934 0.961 . S
C948 C947 1.502 . S
C949 H935 0.960 . S
C949 H936 0.961 . S
C949 H937 0.959 . S
C949 C947 1.561 . S
C950 C947 1.526 . S
C950 C951 1.396 1_554 S
C950 C955 1.390 . S
C951 C945 1.465 . S
C951 C950 1.396 1_556 S
C951 C952 1.399 . S
C952 H938 0.929 . S
C952 C951 1.399 . S
C952 C953 1.385 . S
C953 H939 0.931 . S
C953 C952 1.385 . S
C953 C954 1.389 . S
C954 C953 1.389 . S
C954 C955 1.387 1_556 S
C955 H940 0.930 . S
C955 C950 1.390 . S
C955 C954 1.387 1_554 S
H956 C968 0.930 . S
H957 C970 0.930 . S
H958 C971 0.930 1_455 S
H959 C975 0.959 . S
H960 C975 0.959 . S
H961 C975 0.961 . S
H962 C976 0.960 . S
H963 C976 0.961 . S
H964 C976 0.959 . S
H965 C979 0.929 . S
H966 C980 0.931 . S
H967 C982 0.930 . S
C968 H956 0.930 . S
C968 C969 1.399 . S
C968 C973 1.399 . S
C969 C968 1.399 . S
C969 C970 1.376 . S
C970 H957 0.930 . S
C970 C969 1.376 . S
C970 C971 1.388 . S
C971 H958 0.930 1_655 S
C971 C970 1.388 . S
C971 C972 1.390 . S
C972 C971 1.390 . S
C972 C973 1.394 . S
C972 C978 1.465 1_655 S
C973 C968 1.399 . S
C973 C972 1.394 . S
C973 C974 1.516 . S
C974 C973 1.516 . S
C974 C975 1.502 . S
C974 C976 1.561 1_655 S
C974 C977 1.526 1_655 S
C975 H959 0.959 . S
C975 H960 0.959 . S
C975 H961 0.961 . S
C975 C974 1.502 . S
C976 H962 0.960 . S
C976 H963 0.961 . S
C976 H964 0.959 . S
C976 C974 1.561 1_455 S
C977 C974 1.526 1_455 S
C977 C978 1.396 . S
C977 C982 1.390 . S
C978 C972 1.465 1_455 S
C978 C977 1.396 . S
C978 C979 1.399 . S
C979 H965 0.929 . S
C979 C978 1.399 . S
C979 C980 1.385 . S
C980 H966 0.931 . S
C980 C979 1.385 . S
C980 C981 1.389 . S
C981 C980 1.389 . S
C981 C982 1.387 . S
C982 H967 0.930 . S
C982 C977 1.390 . S
C982 C981 1.387 . S
H983 C995 0.930 . S
H984 C997 0.930 . S
H985 C998 0.930 . S
H986 C1002 0.959 . S
H987 C1002 0.959 . S
H988 C1002 0.961 . S
H989 C1003 0.960 1_565 S
H990 C1003 0.961 . S
H991 C1003 0.959 . S
H992 C1006 0.929 . S
H993 C1007 0.931 . S
H994 C1009 0.930 . S
C995 H983 0.930 . S
C995 C996 1.399 . S
C995 C1000 1.399 . S
C996 C995 1.399 . S
C996 C997 1.376 . S
C997 H984 0.930 . S
C997 C996 1.376 . S
C997 C998 1.388 . S
C998 H985 0.930 . S
C998 C997 1.388 . S
C998 C999 1.390 . S
C999 C998 1.390 . S
C999 C1000 1.394 . S
C999 C1005 1.465 1_565 S
C1000 C995 1.399 . S
C1000 C999 1.394 . S
C1000 C1001 1.516 . S
C1001 C1000 1.516 . S
C1001 C1002 1.502 . S
C1001 C1003 1.561 1_565 S
C1001 C1004 1.526 1_565 S
C1002 H986 0.959 . S
C1002 H987 0.959 . S
C1002 H988 0.961 . S
C1002 C1001 1.502 . S
C1003 H989 0.960 1_545 S
C1003 H990 0.961 . S
C1003 H991 0.959 . S
C1003 C1001 1.561 1_545 S
C1004 C1001 1.526 1_545 S
C1004 C1005 1.396 . S
C1004 C1009 1.390 . S
C1005 C999 1.465 1_545 S
C1005 C1004 1.396 . S
C1005 C1006 1.399 . S
C1006 H992 0.929 . S
C1006 C1005 1.399 . S
C1006 C1007 1.385 . S
C1007 H993 0.931 . S
C1007 C1006 1.385 . S
C1007 C1008 1.389 . S
C1008 C1007 1.389 . S
C1008 C1009 1.387 . S
C1009 H994 0.930 . S
C1009 C1004 1.390 . S
C1009 C1008 1.387 . S
H1010 C1022 0.930 . S
H1011 C1024 0.930 . S
H1012 C1025 0.930 . S
H1013 C1029 0.959 . S
H1014 C1029 0.959 . S
H1015 C1029 0.961 . S
H1016 C1030 0.960 . S
H1017 C1030 0.961 . S
H1018 C1030 0.959 . S
H1019 C1033 0.929 . S
H1020 C1034 0.931 . S
H1021 C1036 0.930 . S
C1022 H1010 0.930 . S
C1022 C1023 1.374 1_556 S
C1022 C1027 1.399 . S
C1023 C1022 1.374 1_554 S
C1023 C1024 1.409 . S
C1024 H1011 0.930 . S
C1024 C1023 1.409 . S
C1024 C1025 1.388 . S
C1025 H1012 0.930 . S
C1025 C1024 1.388 . S
C1025 C1026 1.390 . S
C1026 C1025 1.390 . S
C1026 C1027 1.394 1_554 S
C1026 C1032 1.465 . S
C1027 C1022 1.399 . S
C1027 C1026 1.394 1_556 S
C1027 C1028 1.516 . S
C1028 C1027 1.516 . S
C1028 C1029 1.502 . S
C1028 C1030 1.561 . S
C1028 C1031 1.526 . S
C1029 H1013 0.959 . S
C1029 H1014 0.959 . S
C1029 H1015 0.961 . S
C1029 C1028 1.502 . S
C1030 H1016 0.960 . S
C1030 H1017 0.961 . S
C1030 H1018 0.959 . S
C1030 C1028 1.561 . S
C1031 C1028 1.526 . S
C1031 C1032 1.396 1_556 S
C1031 C1036 1.390 . S
C1032 C1026 1.465 . S
C1032 C1031 1.396 1_554 S
C1032 C1033 1.399 . S
C1033 H1019 0.929 . S
C1033 C1032 1.399 . S
C1033 C1034 1.385 . S
C1034 H1020 0.931 . S
C1034 C1033 1.385 . S
C1034 C1035 1.389 . S
C1035 C1034 1.389 . S
C1035 C1036 1.387 1_554 S
C1036 H1021 0.930 . S
C1036 C1031 1.390 . S
C1036 C1035 1.387 1_556 S
H1037 C1049 0.930 . S
H1038 C1051 0.930 . S
H1039 C1052 0.930 . S
H1040 C1056 0.959 . S
H1041 C1056 0.959 . S
H1042 C1056 0.961 . S
H1043 C1057 0.960 . S
H1044 C1057 0.961 . S
H1045 C1057 0.959 . S
H1046 C1060 0.929 . S
H1047 C1061 0.931 . S
H1048 C1063 0.930 . S
C1049 H1037 0.930 . S
C1049 C1050 1.399 . S
C1049 C1054 1.399 . S
C1050 C1049 1.399 . S
C1050 C1051 1.376 . S
C1051 H1038 0.930 . S
C1051 C1050 1.376 . S
C1051 C1052 1.388 . S
C1052 H1039 0.930 . S
C1052 C1051 1.388 . S
C1052 C1053 1.390 . S
C1053 C1052 1.390 . S
C1053 C1054 1.394 . S
C1053 C1059 1.465 . S
C1054 C1049 1.399 . S
C1054 C1053 1.394 . S
C1054 C1055 1.516 . S
C1055 C1054 1.516 . S
C1055 C1056 1.502 . S
C1055 C1057 1.561 . S
C1055 C1058 1.526 . S
C1056 H1040 0.959 . S
C1056 H1041 0.959 . S
C1056 H1042 0.961 . S
C1056 C1055 1.502 . S
C1057 H1043 0.960 . S
C1057 H1044 0.961 . S
C1057 H1045 0.959 . S
C1057 C1055 1.561 . S
C1058 C1055 1.526 . S
C1058 C1059 1.396 . S
C1058 C1063 1.390 . S
C1059 C1053 1.465 . S
C1059 C1058 1.396 . S
C1059 C1060 1.399 . S
C1060 H1046 0.929 . S
C1060 C1059 1.399 . S
C1060 C1061 1.385 . S
C1061 H1047 0.931 . S
C1061 C1060 1.385 . S
C1061 C1062 1.389 . S
C1062 C1061 1.389 . S
C1062 C1063 1.387 . S
C1063 H1048 0.930 . S
C1063 C1058 1.390 . S
C1063 C1062 1.387 . S
H1064 C1076 0.930 . S
H1065 C1078 0.930 . S
H1066 C1079 0.930 . S
H1067 C1083 0.959 . S
H1068 C1083 0.959 . S
H1069 C1083 0.961 . S
H1070 C1084 0.960 . S
H1071 C1084 0.961 . S
H1072 C1084 0.959 . S
H1073 C1087 0.927 1_655 S
H1074 C1088 0.931 . S
H1075 C1090 0.930 . S
C1076 H1064 0.930 . S
C1076 C1077 1.399 . S
C1076 C1081 1.399 . S
C1077 C1076 1.399 . S
C1077 C1078 1.376 . S
C1078 H1065 0.930 . S
C1078 C1077 1.376 . S
C1078 C1079 1.388 . S
C1079 H1066 0.930 . S
C1079 C1078 1.388 . S
C1079 C1080 1.390 . S
C1080 C1079 1.390 . S
C1080 C1081 1.394 . S
C1080 C1086 1.465 1_655 S
C1081 C1076 1.399 . S
C1081 C1080 1.394 . S
C1081 C1082 1.516 1_655 S
C1082 C1081 1.516 1_455 S
C1082 C1083 1.502 . S
C1082 C1084 1.561 1_455 S
C1082 C1085 1.526 . S
C1083 H1067 0.959 . S
C1083 H1068 0.959 . S
C1083 H1069 0.961 . S
C1083 C1082 1.502 . S
C1084 H1070 0.960 . S
C1084 H1071 0.961 . S
C1084 H1072 0.959 . S
C1084 C1082 1.561 1_655 S
C1085 C1082 1.526 . S
C1085 C1086 1.396 . S
C1085 C1090 1.390 . S
C1086 C1080 1.465 1_455 S
C1086 C1085 1.396 . S
C1086 C1087 1.399 . S
C1087 H1073 0.927 1_455 S
C1087 C1086 1.399 . S
C1087 C1088 1.385 . S
C1088 H1074 0.931 . S
C1088 C1087 1.385 . S
C1088 C1089 1.389 . S
C1089 C1088 1.389 . S
C1089 C1090 1.387 . S
C1090 H1075 0.930 . S
C1090 C1085 1.390 . S
C1090 C1089 1.387 . S
H1091 C1103 0.930 . S
H1092 C1105 0.930 . S
H1093 C1106 0.930 . S
H1094 C1110 0.959 . S
H1095 C1110 0.959 . S
H1096 C1110 0.961 . S
H1097 C1111 0.960 . S
H1098 C1111 0.961 . S
H1099 C1111 0.959 . S
H1100 C1114 0.929 . S
H1101 C1115 0.931 . S
H1102 C1117 0.930 . S
C1103 H1091 0.930 . S
C1103 C1104 1.399 . S
C1103 C1108 1.399 . S
C1104 C1103 1.399 . S
C1104 C1105 1.376 . S
C1105 H1092 0.930 . S
C1105 C1104 1.376 . S
C1105 C1106 1.388 . S
C1106 H1093 0.930 . S
C1106 C1105 1.388 . S
C1106 C1107 1.390 . S
C1107 C1106 1.390 . S
C1107 C1108 1.394 . S
C1107 C1113 1.465 . S
C1108 C1103 1.399 . S
C1108 C1107 1.394 . S
C1108 C1109 1.516 . S
C1109 C1108 1.516 . S
C1109 C1110 1.502 . S
C1109 C1111 1.561 . S
C1109 C1112 1.526 . S
C1110 H1094 0.959 . S
C1110 H1095 0.959 . S
C1110 H1096 0.961 . S
C1110 C1109 1.502 . S
C1111 H1097 0.960 . S
C1111 H1098 0.961 . S
C1111 H1099 0.959 . S
C1111 C1109 1.561 . S
C1112 C1109 1.526 . S
C1112 C1113 1.396 . S
C1112 C1117 1.390 . S
C1113 C1107 1.465 . S
C1113 C1112 1.396 . S
C1113 C1114 1.399 . S
C1114 H1100 0.929 . S
C1114 C1113 1.399 . S
C1114 C1115 1.385 . S
C1115 H1101 0.931 . S
C1115 C1114 1.385 . S
C1115 C1116 1.389 . S
C1116 C1115 1.389 . S
C1116 C1117 1.387 . S
C1117 H1102 0.930 . S
C1117 C1112 1.390 . S
C1117 C1116 1.387 . S
H1118 C1130 0.930 . S
H1119 C1132 0.930 . S
H1120 C1133 0.930 . S
H1121 C1137 0.959 . S
H1122 C1137 0.959 . S
H1123 C1137 0.961 . S
H1124 C1138 0.960 . S
H1125 C1138 0.961 . S
H1126 C1138 0.959 . S
H1127 C1141 0.929 . S
H1128 C1142 0.931 . S
H1129 C1144 0.930 . S
C1130 H1118 0.930 . S
C1130 C1131 1.399 . S
C1130 C1135 1.399 . S
C1131 C1130 1.399 . S
C1131 C1132 1.376 . S
C1132 H1119 0.930 . S
C1132 C1131 1.376 . S
C1132 C1133 1.388 . S
C1133 H1120 0.930 . S
C1133 C1132 1.388 . S
C1133 C1134 1.390 . S
C1134 C1133 1.390 . S
C1134 C1135 1.394 . S
C1134 C1140 1.465 . S
C1135 C1130 1.399 . S
C1135 C1134 1.394 . S
C1135 C1136 1.516 . S
C1136 C1135 1.516 . S
C1136 C1137 1.502 . S
C1136 C1138 1.561 . S
C1136 C1139 1.526 . S
C1137 H1121 0.959 . S
C1137 H1122 0.959 . S
C1137 H1123 0.961 . S
C1137 C1136 1.502 . S
C1138 H1124 0.960 . S
C1138 H1125 0.961 . S
C1138 H1126 0.959 . S
C1138 C1136 1.561 . S
C1139 C1136 1.526 . S
C1139 C1140 1.396 . S
C1139 C1144 1.390 . S
C1140 C1134 1.465 . S
C1140 C1139 1.396 . S
C1140 C1141 1.399 . S
C1141 H1127 0.929 . S
C1141 C1140 1.399 . S
C1141 C1142 1.385 . S
C1142 H1128 0.931 . S
C1142 C1141 1.385 . S
C1142 C1143 1.389 . S
C1143 C1142 1.389 . S
C1143 C1144 1.387 . S
C1144 H1129 0.930 . S
C1144 C1139 1.390 . S
C1144 C1143 1.387 . S
H1145 C1157 0.930 . S
H1146 C1159 0.930 . S
H1147 C1160 0.930 . S
H1148 C1164 0.959 . S
H1149 C1164 0.959 . S
H1150 C1164 0.961 . S
H1151 C1165 0.960 . S
H1152 C1165 0.961 . S
H1153 C1165 0.959 . S
H1154 C1168 0.929 . S
H1155 C1169 0.931 . S
H1156 C1171 0.930 . S
C1157 H1145 0.930 . S
C1157 C1158 1.399 . S
C1157 C1162 1.399 . S
C1158 C1157 1.399 . S
C1158 C1159 1.376 . S
C1159 H1146 0.930 . S
C1159 C1158 1.376 . S
C1159 C1160 1.388 . S
C1160 H1147 0.930 . S
C1160 C1159 1.388 . S
C1160 C1161 1.390 . S
C1161 C1160 1.390 . S
C1161 C1162 1.394 . S
C1161 C1167 1.465 . S
C1162 C1157 1.399 . S
C1162 C1161 1.394 . S
C1162 C1163 1.516 . S
C1163 C1162 1.516 . S
C1163 C1164 1.502 . S
C1163 C1165 1.561 . S
C1163 C1166 1.526 . S
C1164 H1148 0.959 . S
C1164 H1149 0.959 . S
C1164 H1150 0.961 . S
C1164 C1163 1.502 . S
C1165 H1151 0.960 . S
C1165 H1152 0.961 . S
C1165 H1153 0.959 . S
C1165 C1163 1.561 . S
C1166 C1163 1.526 . S
C1166 C1167 1.396 . S
C1166 C1171 1.390 . S
C1167 C1161 1.465 . S
C1167 C1166 1.396 . S
C1167 C1168 1.399 . S
C1168 H1154 0.929 . S
C1168 C1167 1.399 . S
C1168 C1169 1.385 . S
C1169 H1155 0.931 . S
C1169 C1168 1.385 . S
C1169 C1170 1.389 . S
C1170 C1169 1.389 . S
C1170 C1171 1.387 . S
C1171 H1156 0.930 . S
C1171 C1166 1.390 . S
C1171 C1170 1.387 . S
H1172 C1184 0.930 . S
H1173 C1186 0.930 . S
H1174 C1187 0.930 . S
H1175 C1191 0.959 . S
H1176 C1191 0.959 . S
H1177 C1191 0.961 . S
H1178 C1192 0.960 . S
H1179 C1192 0.961 . S
H1180 C1192 0.959 . S
H1181 C1195 0.929 . S
H1182 C1196 0.931 . S
H1183 C1198 0.930 . S
C1184 H1172 0.930 . S
C1184 C1185 1.399 . S
C1184 C1189 1.399 . S
C1185 C1184 1.399 . S
C1185 C1186 1.376 . S
C1186 H1173 0.930 . S
C1186 C1185 1.376 . S
C1186 C1187 1.388 . S
C1187 H1174 0.930 . S
C1187 C1186 1.388 . S
C1187 C1188 1.390 . S
C1188 C1187 1.390 . S
C1188 C1189 1.394 . S
C1188 C1194 1.465 . S
C1189 C1184 1.399 . S
C1189 C1188 1.394 . S
C1189 C1190 1.516 . S
C1190 C1189 1.516 . S
C1190 C1191 1.502 . S
C1190 C1192 1.561 . S
C1190 C1193 1.526 . S
C1191 H1175 0.959 . S
C1191 H1176 0.959 . S
C1191 H1177 0.961 . S
C1191 C1190 1.502 . S
C1192 H1178 0.960 . S
C1192 H1179 0.961 . S
C1192 H1180 0.959 . S
C1192 C1190 1.561 . S
C1193 C1190 1.526 . S
C1193 C1194 1.396 . S
C1193 C1198 1.390 . S
C1194 C1188 1.465 . S
C1194 C1193 1.396 . S
C1194 C1195 1.399 . S
C1195 H1181 0.929 . S
C1195 C1194 1.399 . S
C1195 C1196 1.385 . S
C1196 H1182 0.931 . S
C1196 C1195 1.385 . S
C1196 C1197 1.389 . S
C1197 C1196 1.389 . S
C1197 C1198 1.387 . S
C1198 H1183 0.930 . S
C1198 C1193 1.390 . S
C1198 C1197 1.387 . S
H1199 C1211 0.930 . S
H1200 C1213 0.930 . S
H1201 C1214 0.930 . S
H1202 C1218 0.959 . S
H1203 C1218 0.959 . S
H1204 C1218 0.961 . S
H1205 C1219 0.960 1_545 S
H1206 C1219 0.961 . S
H1207 C1219 0.959 . S
H1208 C1222 0.929 . S
H1209 C1223 0.931 . S
H1210 C1225 0.930 . S
C1211 H1199 0.930 . S
C1211 C1212 1.399 . S
C1211 C1216 1.399 . S
C1212 C1211 1.399 . S
C1212 C1213 1.376 . S
C1213 H1200 0.930 . S
C1213 C1212 1.376 . S
C1213 C1214 1.388 . S
C1214 H1201 0.930 . S
C1214 C1213 1.388 . S
C1214 C1215 1.390 . S
C1215 C1214 1.390 . S
C1215 C1216 1.394 . S
C1215 C1221 1.465 1_545 S
C1216 C1211 1.399 . S
C1216 C1215 1.394 . S
C1216 C1217 1.516 . S
C1217 C1216 1.516 . S
C1217 C1218 1.502 . S
C1217 C1219 1.561 1_545 S
C1217 C1220 1.526 1_545 S
C1218 H1202 0.959 . S
C1218 H1203 0.959 . S
C1218 H1204 0.961 . S
C1218 C1217 1.502 . S
C1219 H1205 0.960 1_565 S
C1219 H1206 0.961 . S
C1219 H1207 0.959 . S
C1219 C1217 1.561 1_565 S
C1220 C1217 1.526 1_565 S
C1220 C1221 1.396 . S
C1220 C1225 1.390 . S
C1221 C1215 1.465 1_565 S
C1221 C1220 1.396 . S
C1221 C1222 1.399 . S
C1222 H1208 0.929 . S
C1222 C1221 1.399 . S
C1222 C1223 1.385 . S
C1223 H1209 0.931 . S
C1223 C1222 1.385 . S
C1223 C1224 1.389 . S
C1224 C1223 1.389 . S
C1224 C1225 1.387 . S
C1225 H1210 0.930 . S
C1225 C1220 1.390 . S
C1225 C1224 1.387 . S
H1226 C1238 0.930 . S
H1227 C1240 0.930 . S
H1228 C1241 0.930 . S
H1229 C1245 0.959 . S
H1230 C1245 0.959 . S
H1231 C1245 0.961 . S
H1232 C1246 0.960 . S
H1233 C1246 0.961 . S
H1234 C1246 0.959 . S
H1235 C1249 0.929 . S
H1236 C1250 0.931 . S
H1237 C1252 0.930 . S
C1238 H1226 0.930 . S
C1238 C1239 1.399 . S
C1238 C1243 1.399 . S
C1239 C1238 1.399 . S
C1239 C1240 1.376 . S
C1240 H1227 0.930 . S
C1240 C1239 1.376 . S
C1240 C1241 1.388 . S
C1241 H1228 0.930 . S
C1241 C1240 1.388 . S
C1241 C1242 1.390 . S
C1242 C1241 1.390 . S
C1242 C1243 1.394 . S
C1242 C1248 1.465 . S
C1243 C1238 1.399 . S
C1243 C1242 1.394 . S
C1243 C1244 1.516 . S
C1244 C1243 1.516 . S
C1244 C1245 1.502 . S
C1244 C1246 1.561 . S
C1244 C1247 1.526 . S
C1245 H1229 0.959 . S
C1245 H1230 0.959 . S
C1245 H1231 0.961 . S
C1245 C1244 1.502 . S
C1246 H1232 0.960 . S
C1246 H1233 0.961 . S
C1246 H1234 0.959 . S
C1246 C1244 1.561 . S
C1247 C1244 1.526 . S
C1247 C1248 1.396 . S
C1247 C1252 1.390 . S
C1248 C1242 1.465 . S
C1248 C1247 1.396 . S
C1248 C1249 1.399 . S
C1249 H1235 0.929 . S
C1249 C1248 1.399 . S
C1249 C1250 1.385 . S
C1250 H1236 0.931 . S
C1250 C1249 1.385 . S
C1250 C1251 1.389 . S
C1251 C1250 1.389 . S
C1251 C1252 1.387 . S
C1252 H1237 0.930 . S
C1252 C1247 1.390 . S
C1252 C1251 1.387 . S
H1253 C1265 0.930 . S
H1254 C1267 0.930 . S
H1255 C1268 0.930 . S
H1256 C1272 0.959 . S
H1257 C1272 0.959 . S
H1258 C1272 0.961 . S
H1259 C1273 0.960 . S
H1260 C1273 0.961 . S
H1261 C1273 0.959 . S
H1262 C1276 0.929 . S
H1263 C1277 0.931 . S
H1264 C1279 0.930 . S
C1265 H1253 0.930 . S
C1265 C1266 1.395 1_554 S
C1265 C1270 1.399 . S
C1266 C1265 1.395 1_556 S
C1266 C1267 1.381 . S
C1267 H1254 0.930 . S
C1267 C1266 1.381 . S
C1267 C1268 1.388 . S
C1268 H1255 0.930 . S
C1268 C1267 1.388 . S
C1268 C1269 1.390 1_556 S
C1269 C1268 1.390 1_554 S
C1269 C1270 1.394 . S
C1269 C1275 1.465 . S
C1270 C1265 1.399 . S
C1270 C1269 1.394 . S
C1270 C1271 1.516 . S
C1271 C1270 1.516 . S
C1271 C1272 1.502 1_554 S
C1271 C1273 1.561 . S
C1271 C1274 1.526 . S
C1272 H1256 0.959 . S
C1272 H1257 0.959 . S
C1272 H1258 0.961 . S
C1272 C1271 1.502 1_556 S
C1273 H1259 0.960 . S
C1273 H1260 0.961 . S
C1273 H1261 0.959 . S
C1273 C1271 1.561 . S
C1274 C1271 1.526 . S
C1274 C1275 1.397 . S
C1274 C1279 1.390 . S
C1275 C1269 1.465 . S
C1275 C1274 1.397 . S
C1275 C1276 1.398 1_554 S
C1276 H1262 0.929 . S
C1276 C1275 1.398 1_556 S
C1276 C1277 1.385 . S
C1277 H1263 0.931 . S
C1277 C1276 1.385 . S
C1277 C1278 1.382 1_556 S
C1278 C1277 1.382 1_554 S
C1278 C1279 1.395 . S
C1279 H1264 0.930 . S
C1279 C1274 1.390 . S
C1279 C1278 1.395 . S
H1280 C1292 0.930 . S
H1281 C1294 0.930 . S
H1282 C1295 0.930 . S
H1283 C1299 0.959 . S
H1284 C1299 0.959 . S
H1285 C1299 0.961 . S
H1286 C1300 0.960 . S
H1287 C1300 0.961 . S
H1288 C1300 0.959 . S
H1289 C1303 0.929 . S
H1290 C1304 0.931 . S
H1291 C1306 0.930 . S
C1292 H1280 0.930 . S
C1292 C1293 1.399 . S
C1292 C1297 1.399 . S
C1293 C1292 1.399 . S
C1293 C1294 1.376 . S
C1294 H1281 0.930 . S
C1294 C1293 1.376 . S
C1294 C1295 1.388 . S
C1295 H1282 0.930 . S
C1295 C1294 1.388 . S
C1295 C1296 1.390 . S
C1296 C1295 1.390 . S
C1296 C1297 1.394 . S
C1296 C1302 1.465 . S
C1297 C1292 1.399 . S
C1297 C1296 1.394 . S
C1297 C1298 1.516 . S
C1298 C1297 1.516 . S
C1298 C1299 1.502 . S
C1298 C1300 1.561 . S
C1298 C1301 1.526 . S
C1299 H1283 0.959 . S
C1299 H1284 0.959 . S
C1299 H1285 0.961 . S
C1299 C1298 1.502 . S
C1300 H1286 0.960 . S
C1300 H1287 0.961 . S
C1300 H1288 0.959 . S
C1300 C1298 1.561 . S
C1301 C1298 1.526 . S
C1301 C1302 1.396 . S
C1301 C1306 1.390 . S
C1302 C1296 1.465 . S
C1302 C1301 1.396 . S
C1302 C1303 1.399 . S
C1303 H1289 0.929 . S
C1303 C1302 1.399 . S
C1303 C1304 1.385 . S
C1304 H1290 0.931 . S
C1304 C1303 1.385 . S
C1304 C1305 1.389 . S
C1305 C1304 1.389 . S
C1305 C1306 1.387 . S
C1306 H1291 0.930 . S
C1306 C1301 1.390 . S
C1306 C1305 1.387 . S
H1307 C1319 0.930 . S
H1308 C1321 0.930 . S
H1309 C1322 0.930 . S
H1310 C1326 0.959 . S
H1311 C1326 0.959 . S
H1312 C1326 0.961 . S
H1313 C1327 0.960 . S
H1314 C1327 0.961 . S
H1315 C1327 0.959 . S
H1316 C1330 0.929 . S
H1317 C1331 0.931 . S
H1318 C1333 0.930 . S
C1319 H1307 0.930 . S
C1319 C1320 1.399 . S
C1319 C1324 1.399 . S
C1320 C1319 1.399 . S
C1320 C1321 1.376 . S
C1321 H1308 0.930 . S
C1321 C1320 1.376 . S
C1321 C1322 1.388 . S
C1322 H1309 0.930 . S
C1322 C1321 1.388 . S
C1322 C1323 1.390 . S
C1323 C1322 1.390 . S
C1323 C1324 1.394 . S
C1323 C1329 1.465 . S
C1324 C1319 1.399 . S
C1324 C1323 1.394 . S
C1324 C1325 1.516 . S
C1325 C1324 1.516 . S
C1325 C1326 1.502 . S
C1325 C1327 1.561 . S
C1325 C1328 1.526 . S
C1326 H1310 0.959 . S
C1326 H1311 0.959 . S
C1326 H1312 0.961 . S
C1326 C1325 1.502 . S
C1327 H1313 0.960 . S
C1327 H1314 0.961 . S
C1327 H1315 0.959 . S
C1327 C1325 1.561 . S
C1328 C1325 1.526 . S
C1328 C1329 1.396 . S
C1328 C1333 1.390 . S
C1329 C1323 1.465 . S
C1329 C1328 1.396 . S
C1329 C1330 1.399 . S
C1330 H1316 0.929 . S
C1330 C1329 1.399 . S
C1330 C1331 1.385 . S
C1331 H1317 0.931 . S
C1331 C1330 1.385 . S
C1331 C1332 1.389 . S
C1332 C1331 1.389 . S
C1332 C1333 1.387 . S
C1333 H1318 0.930 . S
C1333 C1328 1.390 . S
C1333 C1332 1.387 . S
H1334 C1346 0.930 . S
H1335 C1348 0.930 . S
H1336 C1349 0.930 . S
H1337 C1353 0.959 . S
H1338 C1353 0.959 . S
H1339 C1353 0.961 . S
H1340 C1354 0.960 . S
H1341 C1354 0.961 . S
H1342 C1354 0.959 . S
H1343 C1357 0.929 . S
H1344 C1358 0.931 . S
H1345 C1360 0.930 . S
C1346 H1334 0.930 . S
C1346 C1347 1.399 . S
C1346 C1351 1.399 . S
C1347 C1346 1.399 . S
C1347 C1348 1.376 . S
C1348 H1335 0.930 . S
C1348 C1347 1.376 . S
C1348 C1349 1.388 . S
C1349 H1336 0.930 . S
C1349 C1348 1.388 . S
C1349 C1350 1.390 . S
C1350 C1349 1.390 . S
C1350 C1351 1.394 . S
C1350 C1356 1.465 . S
C1351 C1346 1.399 . S
C1351 C1350 1.394 . S
C1351 C1352 1.516 . S
C1352 C1351 1.516 . S
C1352 C1353 1.502 . S
C1352 C1354 1.561 . S
C1352 C1355 1.526 . S
C1353 H1337 0.959 . S
C1353 H1338 0.959 . S
C1353 H1339 0.961 . S
C1353 C1352 1.502 . S
C1354 H1340 0.960 . S
C1354 H1341 0.961 . S
C1354 H1342 0.959 . S
C1354 C1352 1.561 . S
C1355 C1352 1.526 . S
C1355 C1356 1.396 . S
C1355 C1360 1.390 . S
C1356 C1350 1.465 . S
C1356 C1355 1.396 . S
C1356 C1357 1.399 . S
C1357 H1343 0.929 . S
C1357 C1356 1.399 . S
C1357 C1358 1.385 . S
C1358 H1344 0.931 . S
C1358 C1357 1.385 . S
C1358 C1359 1.389 . S
C1359 C1358 1.389 . S
C1359 C1360 1.387 . S
C1360 H1345 0.930 . S
C1360 C1355 1.390 . S
C1360 C1359 1.387 . S
H1361 C1373 0.930 . S
H1362 C1375 0.930 . S
H1363 C1376 0.930 . S
H1364 C1380 0.959 . S
H1365 C1380 0.959 . S
H1366 C1380 0.961 . S
H1367 C1381 0.960 . S
H1368 C1381 0.961 . S
H1369 C1381 0.959 . S
H1370 C1384 0.929 . S
H1371 C1385 0.931 . S
H1372 C1387 0.930 . S
C1373 H1361 0.930 . S
C1373 C1374 1.399 . S
C1373 C1378 1.399 . S
C1374 C1373 1.399 . S
C1374 C1375 1.376 . S
C1375 H1362 0.930 . S
C1375 C1374 1.376 . S
C1375 C1376 1.388 . S
C1376 H1363 0.930 . S
C1376 C1375 1.388 . S
C1376 C1377 1.390 . S
C1377 C1376 1.390 . S
C1377 C1378 1.394 . S
C1377 C1383 1.465 . S
C1378 C1373 1.399 . S
C1378 C1377 1.394 . S
C1378 C1379 1.516 . S
C1379 C1378 1.516 . S
C1379 C1380 1.502 . S
C1379 C1381 1.561 . S
C1379 C1382 1.526 . S
C1380 H1364 0.959 . S
C1380 H1365 0.959 . S
C1380 H1366 0.961 . S
C1380 C1379 1.502 . S
C1381 H1367 0.960 . S
C1381 H1368 0.961 . S
C1381 H1369 0.959 . S
C1381 C1379 1.561 . S
C1382 C1379 1.526 . S
C1382 C1383 1.396 . S
C1382 C1387 1.390 . S
C1383 C1377 1.465 . S
C1383 C1382 1.396 . S
C1383 C1384 1.399 . S
C1384 H1370 0.929 . S
C1384 C1383 1.399 . S
C1384 C1385 1.385 . S
C1385 H1371 0.931 . S
C1385 C1384 1.385 . S
C1385 C1386 1.389 . S
C1386 C1385 1.389 . S
C1386 C1387 1.387 . S
C1387 H1372 0.930 . S
C1387 C1382 1.390 . S
C1387 C1386 1.387 . S
H1388 C1400 0.930 . S
H1389 C1402 0.930 . S
H1390 C1403 0.930 . S
H1391 C1407 0.959 . S
H1392 C1407 0.959 . S
H1393 C1407 0.961 . S
H1394 C1408 0.960 . S
H1395 C1408 0.961 . S
H1396 C1408 0.959 . S
H1397 C1411 0.929 . S
H1398 C1412 0.931 . S
H1399 C1414 0.930 . S
C1400 H1388 0.930 . S
C1400 C1401 1.399 . S
C1400 C1405 1.399 . S
C1401 C1400 1.399 . S
C1401 C1402 1.376 . S
C1402 H1389 0.930 . S
C1402 C1401 1.376 . S
C1402 C1403 1.388 . S
C1403 H1390 0.930 . S
C1403 C1402 1.388 . S
C1403 C1404 1.390 . S
C1404 C1403 1.390 . S
C1404 C1405 1.394 . S
C1404 C1410 1.465 . S
C1405 C1400 1.399 . S
C1405 C1404 1.394 . S
C1405 C1406 1.516 . S
C1406 C1405 1.516 . S
C1406 C1407 1.502 . S
C1406 C1408 1.561 . S
C1406 C1409 1.526 . S
C1407 H1391 0.959 . S
C1407 H1392 0.959 . S
C1407 H1393 0.961 . S
C1407 C1406 1.502 . S
C1408 H1394 0.960 . S
C1408 H1395 0.961 . S
C1408 H1396 0.959 . S
C1408 C1406 1.561 . S
C1409 C1406 1.526 . S
C1409 C1410 1.396 . S
C1409 C1414 1.390 . S
C1410 C1404 1.465 . S
C1410 C1409 1.396 . S
C1410 C1411 1.399 . S
C1411 H1397 0.929 . S
C1411 C1410 1.399 . S
C1411 C1412 1.385 . S
C1412 H1398 0.931 . S
C1412 C1411 1.385 . S
C1412 C1413 1.389 . S
C1413 C1412 1.389 . S
C1413 C1414 1.387 . S
C1414 H1399 0.930 . S
C1414 C1409 1.390 . S
C1414 C1413 1.387 . S
H1415 C1427 0.930 . S
H1416 C1429 0.930 . S
H1417 C1430 0.930 . S
H1418 C1434 0.959 . S
H1419 C1434 0.959 . S
H1420 C1434 0.961 . S
H1421 C1435 0.960 . S
H1422 C1435 0.961 . S
H1423 C1435 0.959 . S
H1424 C1438 0.929 . S
H1425 C1439 0.931 . S
H1426 C1441 0.930 . S
C1427 H1415 0.930 . S
C1427 C1428 1.399 . S
C1427 C1432 1.399 . S
C1428 C1427 1.399 . S
C1428 C1429 1.376 . S
C1429 H1416 0.930 . S
C1429 C1428 1.376 . S
C1429 C1430 1.388 . S
C1430 H1417 0.930 . S
C1430 C1429 1.388 . S
C1430 C1431 1.390 . S
C1431 C1430 1.390 . S
C1431 C1432 1.394 . S
C1431 C1437 1.465 . S
C1432 C1427 1.399 . S
C1432 C1431 1.394 . S
C1432 C1433 1.516 . S
C1433 C1432 1.516 . S
C1433 C1434 1.502 . S
C1433 C1435 1.561 . S
C1433 C1436 1.526 . S
C1434 H1418 0.959 . S
C1434 H1419 0.959 . S
C1434 H1420 0.961 . S
C1434 C1433 1.502 . S
C1435 H1421 0.960 . S
C1435 H1422 0.961 . S
C1435 H1423 0.959 . S
C1435 C1433 1.561 . S
C1436 C1433 1.526 . S
C1436 C1437 1.396 . S
C1436 C1441 1.390 . S
C1437 C1431 1.465 . S
C1437 C1436 1.396 . S
C1437 C1438 1.399 . S
C1438 H1424 0.929 . S
C1438 C1437 1.399 . S
C1438 C1439 1.385 . S
C1439 H1425 0.931 . S
C1439 C1438 1.385 . S
C1439 C1440 1.389 . S
C1440 C1439 1.389 . S
C1440 C1441 1.387 . S
C1441 H1426 0.930 . S
C1441 C1436 1.390 . S
C1441 C1440 1.387 . S
H1442 C1454 0.930 . S
H1443 C1456 0.930 . S
H1444 C1457 0.930 . S
H1445 C1461 0.959 . S
H1446 C1461 0.959 . S
H1447 C1461 0.961 . S
H1448 C1462 0.960 . S
H1449 C1462 0.961 . S
H1450 C1462 0.959 . S
H1451 C1465 0.929 . S
H1452 C1466 0.931 . S
H1453 C1468 0.930 . S
C1454 H1442 0.930 . S
C1454 C1455 1.399 . S
C1454 C1459 1.399 . S
C1455 C1454 1.399 . S
C1455 C1456 1.376 . S
C1456 H1443 0.930 . S
C1456 C1455 1.376 . S
C1456 C1457 1.388 . S
C1457 H1444 0.930 . S
C1457 C1456 1.388 . S
C1457 C1458 1.390 . S
C1458 C1457 1.390 . S
C1458 C1459 1.394 . S
C1458 C1464 1.465 . S
C1459 C1454 1.399 . S
C1459 C1458 1.394 . S
C1459 C1460 1.516 . S
C1460 C1459 1.516 . S
C1460 C1461 1.502 . S
C1460 C1462 1.561 . S
C1460 C1463 1.526 . S
C1461 H1445 0.959 . S
C1461 H1446 0.959 . S
C1461 H1447 0.961 . S
C1461 C1460 1.502 . S
C1462 H1448 0.960 . S
C1462 H1449 0.961 . S
C1462 H1450 0.959 . S
C1462 C1460 1.561 . S
C1463 C1460 1.526 . S
C1463 C1464 1.396 . S
C1463 C1468 1.390 . S
C1464 C1458 1.465 . S
C1464 C1463 1.396 . S
C1464 C1465 1.399 . S
C1465 H1451 0.929 . S
C1465 C1464 1.399 . S
C1465 C1466 1.385 . S
C1466 H1452 0.931 . S
C1466 C1465 1.385 . S
C1466 C1467 1.389 . S
C1467 C1466 1.389 . S
C1467 C1468 1.387 . S
C1468 H1453 0.930 . S
C1468 C1463 1.390 . S
C1468 C1467 1.387 . S
H1469 C1481 0.930 . S
H1470 C1483 0.930 . S
H1471 C1484 0.930 . S
H1472 C1488 0.959 . S
H1473 C1488 0.959 . S
H1474 C1488 0.961 . S
H1475 C1489 0.960 . S
H1476 C1489 0.961 . S
H1477 C1489 0.959 . S
H1478 C1492 0.929 . S
H1479 C1493 0.931 . S
H1480 C1495 0.930 . S
C1481 H1469 0.930 . S
C1481 C1482 1.399 . S
C1481 C1486 1.399 . S
C1482 C1481 1.399 . S
C1482 C1483 1.376 . S
C1483 H1470 0.930 . S
C1483 C1482 1.376 . S
C1483 C1484 1.388 . S
C1484 H1471 0.930 . S
C1484 C1483 1.388 . S
C1484 C1485 1.390 . S
C1485 C1484 1.390 . S
C1485 C1486 1.394 . S
C1485 C1491 1.465 . S
C1486 C1481 1.399 . S
C1486 C1485 1.394 . S
C1486 C1487 1.516 . S
C1487 C1486 1.516 . S
C1487 C1488 1.502 . S
C1487 C1489 1.561 . S
C1487 C1490 1.526 . S
C1488 H1472 0.959 . S
C1488 H1473 0.959 . S
C1488 H1474 0.961 . S
C1488 C1487 1.502 . S
C1489 H1475 0.960 . S
C1489 H1476 0.961 . S
C1489 H1477 0.959 . S
C1489 C1487 1.561 . S
C1490 C1487 1.526 . S
C1490 C1491 1.396 . S
C1490 C1495 1.390 . S
C1491 C1485 1.465 . S
C1491 C1490 1.396 . S
C1491 C1492 1.399 . S
C1492 H1478 0.929 . S
C1492 C1491 1.399 . S
C1492 C1493 1.385 . S
C1493 H1479 0.931 . S
C1493 C1492 1.385 . S
C1493 C1494 1.389 . S
C1494 C1493 1.389 . S
C1494 C1495 1.387 . S
C1495 H1480 0.930 . S
C1495 C1490 1.390 . S
C1495 C1494 1.387 . S
H1496 C1508 0.930 . S
H1497 C1510 0.930 . S
H1498 C1511 0.930 . S
H1499 C1515 0.959 . S
H1500 C1515 0.959 . S
H1501 C1515 0.961 . S
H1502 C1516 0.960 . S
H1503 C1516 0.961 . S
H1504 C1516 0.959 . S
H1505 C1519 0.929 . S
H1506 C1520 0.931 . S
H1507 C1522 0.930 . S
C1508 H1496 0.930 . S
C1508 C1509 1.399 . S
C1508 C1513 1.399 . S
C1509 C1508 1.399 . S
C1509 C1510 1.376 . S
C1510 H1497 0.930 . S
C1510 C1509 1.376 . S
C1510 C1511 1.388 . S
C1511 H1498 0.930 . S
C1511 C1510 1.388 . S
C1511 C1512 1.390 . S
C1512 C1511 1.390 . S
C1512 C1513 1.394 . S
C1512 C1518 1.465 . S
C1513 C1508 1.399 . S
C1513 C1512 1.394 . S
C1513 C1514 1.516 . S
C1514 C1513 1.516 . S
C1514 C1515 1.502 . S
C1514 C1516 1.561 . S
C1514 C1517 1.526 . S
C1515 H1499 0.959 . S
C1515 H1500 0.959 . S
C1515 H1501 0.961 . S
C1515 C1514 1.502 . S
C1516 H1502 0.960 . S
C1516 H1503 0.961 . S
C1516 H1504 0.959 . S
C1516 C1514 1.561 . S
C1517 C1514 1.526 . S
C1517 C1518 1.396 . S
C1517 C1522 1.390 . S
C1518 C1512 1.465 . S
C1518 C1517 1.396 . S
C1518 C1519 1.399 . S
C1519 H1505 0.929 . S
C1519 C1518 1.399 . S
C1519 C1520 1.385 . S
C1520 H1506 0.931 . S
C1520 C1519 1.385 . S
C1520 C1521 1.389 . S
C1521 C1520 1.389 . S
C1521 C1522 1.387 . S
C1522 H1507 0.930 . S
C1522 C1517 1.390 . S
C1522 C1521 1.387 . S
H1523 C1535 0.930 . S
H1524 C1537 0.930 . S
H1525 C1538 0.930 . S
H1526 C1542 0.959 . S
H1527 C1542 0.959 . S
H1528 C1542 0.961 . S
H1529 C1543 0.960 . S
H1530 C1543 0.961 . S
H1531 C1543 0.959 . S
H1532 C1546 0.929 . S
H1533 C1547 0.931 . S
H1534 C1549 0.930 . S
C1535 H1523 0.930 . S
C1535 C1536 1.399 . S
C1535 C1540 1.399 . S
C1536 C1535 1.399 . S
C1536 C1537 1.376 . S
C1537 H1524 0.930 . S
C1537 C1536 1.376 . S
C1537 C1538 1.388 . S
C1538 H1525 0.930 . S
C1538 C1537 1.388 . S
C1538 C1539 1.390 . S
C1539 C1538 1.390 . S
C1539 C1540 1.394 . S
C1539 C1545 1.465 . S
C1540 C1535 1.399 . S
C1540 C1539 1.394 . S
C1540 C1541 1.516 . S
C1541 C1540 1.516 . S
C1541 C1542 1.502 . S
C1541 C1543 1.561 . S
C1541 C1544 1.526 . S
C1542 H1526 0.959 . S
C1542 H1527 0.959 . S
C1542 H1528 0.961 . S
C1542 C1541 1.502 . S
C1543 H1529 0.960 . S
C1543 H1530 0.961 . S
C1543 H1531 0.959 . S
C1543 C1541 1.561 . S
C1544 C1541 1.526 . S
C1544 C1545 1.396 . S
C1544 C1549 1.390 . S
C1545 C1539 1.465 . S
C1545 C1544 1.396 . S
C1545 C1546 1.399 . S
C1546 H1532 0.929 . S
C1546 C1545 1.399 . S
C1546 C1547 1.385 . S
C1547 H1533 0.931 . S
C1547 C1546 1.385 . S
C1547 C1548 1.389 . S
C1548 C1547 1.389 . S
C1548 C1549 1.387 . S
C1549 H1534 0.930 . S
C1549 C1544 1.390 . S
C1549 C1548 1.387 . S
H1550 C1562 0.930 . S
H1551 C1564 0.930 . S
H1552 C1565 0.930 . S
H1553 C1569 0.959 . S
H1554 C1569 0.959 . S
H1555 C1569 0.961 . S
H1556 C1570 0.960 . S
H1557 C1570 0.961 . S
H1558 C1570 0.959 . S
H1559 C1573 0.929 . S
H1560 C1574 0.931 . S
H1561 C1576 0.930 . S
C1562 H1550 0.930 . S
C1562 C1563 1.399 . S
C1562 C1567 1.399 . S
C1563 C1562 1.399 . S
C1563 C1564 1.376 . S
C1564 H1551 0.930 . S
C1564 C1563 1.376 . S
C1564 C1565 1.388 . S
C1565 H1552 0.930 . S
C1565 C1564 1.388 . S
C1565 C1566 1.390 . S
C1566 C1565 1.390 . S
C1566 C1567 1.394 . S
C1566 C1572 1.465 . S
C1567 C1562 1.399 . S
C1567 C1566 1.394 . S
C1567 C1568 1.516 . S
C1568 C1567 1.516 . S
C1568 C1569 1.502 . S
C1568 C1570 1.561 . S
C1568 C1571 1.526 . S
C1569 H1553 0.959 . S
C1569 H1554 0.959 . S
C1569 H1555 0.961 . S
C1569 C1568 1.502 . S
C1570 H1556 0.960 . S
C1570 H1557 0.961 . S
C1570 H1558 0.959 . S
C1570 C1568 1.561 . S
C1571 C1568 1.526 . S
C1571 C1572 1.396 . S
C1571 C1576 1.390 . S
C1572 C1566 1.465 . S
C1572 C1571 1.396 . S
C1572 C1573 1.399 . S
C1573 H1559 0.929 . S
C1573 C1572 1.399 . S
C1573 C1574 1.385 . S
C1574 H1560 0.931 . S
C1574 C1573 1.385 . S
C1574 C1575 1.389 . S
C1575 C1574 1.389 . S
C1575 C1576 1.387 . S
C1576 H1561 0.930 . S
C1576 C1571 1.390 . S
C1576 C1575 1.387 . S
H1577 C1589 0.930 . S
H1578 C1591 0.930 . S
H1579 C1592 0.930 . S
H1580 C1596 0.959 . S
H1581 C1596 0.959 . S
H1582 C1596 0.961 . S
H1583 C1597 0.960 . S
H1584 C1597 0.961 . S
H1585 C1597 0.959 . S
H1586 C1600 0.929 . S
H1587 C1601 0.931 . S
H1588 C1603 0.930 . S
C1589 H1577 0.930 . S
C1589 C1590 1.399 . S
C1589 C1594 1.399 . S
C1590 C1589 1.399 . S
C1590 C1591 1.376 . S
C1591 H1578 0.930 . S
C1591 C1590 1.376 . S
C1591 C1592 1.388 . S
C1592 H1579 0.930 . S
C1592 C1591 1.388 . S
C1592 C1593 1.390 . S
C1593 C1592 1.390 . S
C1593 C1594 1.394 . S
C1593 C1599 1.465 . S
C1594 C1589 1.399 . S
C1594 C1593 1.394 . S
C1594 C1595 1.516 . S
C1595 C1594 1.516 . S
C1595 C1596 1.502 . S
C1595 C1597 1.561 . S
C1595 C1598 1.526 . S
C1596 H1580 0.959 . S
C1596 H1581 0.959 . S
C1596 H1582 0.961 . S
C1596 C1595 1.502 . S
C1597 H1583 0.960 . S
C1597 H1584 0.961 . S
C1597 H1585 0.959 . S
C1597 C1595 1.561 . S
C1598 C1595 1.526 . S
C1598 C1599 1.396 . S
C1598 C1603 1.390 . S
C1599 C1593 1.465 . S
C1599 C1598 1.396 . S
C1599 C1600 1.399 . S
C1600 H1586 0.929 . S
C1600 C1599 1.399 . S
C1600 C1601 1.385 . S
C1601 H1587 0.931 . S
C1601 C1600 1.385 . S
C1601 C1602 1.389 . S
C1602 C1601 1.389 . S
C1602 C1603 1.387 . S
C1603 H1588 0.930 . S
C1603 C1598 1.390 . S
C1603 C1602 1.387 . S
H1604 C1616 0.930 . S
H1605 C1618 0.930 . S
H1606 C1619 0.930 . S
H1607 C1623 0.959 . S
H1608 C1623 0.959 . S
H1609 C1623 0.961 . S
H1610 C1624 0.960 . S
H1611 C1624 0.961 . S
H1612 C1624 0.959 . S
H1613 C1627 0.929 . S
H1614 C1628 0.931 . S
H1615 C1630 0.930 . S
C1616 H1604 0.930 . S
C1616 C1617 1.399 . S
C1616 C1621 1.399 . S
C1617 C1616 1.399 . S
C1617 C1618 1.376 . S
C1618 H1605 0.930 . S
C1618 C1617 1.376 . S
C1618 C1619 1.388 . S
C1619 H1606 0.930 . S
C1619 C1618 1.388 . S
C1619 C1620 1.390 . S
C1620 C1619 1.390 . S
C1620 C1621 1.394 . S
C1620 C1626 1.465 . S
C1621 C1616 1.399 . S
C1621 C1620 1.394 . S
C1621 C1622 1.516 . S
C1622 C1621 1.516 . S
C1622 C1623 1.502 . S
C1622 C1624 1.561 . S
C1622 C1625 1.526 . S
C1623 H1607 0.959 . S
C1623 H1608 0.959 . S
C1623 H1609 0.961 . S
C1623 C1622 1.502 . S
C1624 H1610 0.960 . S
C1624 H1611 0.961 . S
C1624 H1612 0.959 . S
C1624 C1622 1.561 . S
C1625 C1622 1.526 . S
C1625 C1626 1.396 . S
C1625 C1630 1.390 . S
C1626 C1620 1.465 . S
C1626 C1625 1.396 . S
C1626 C1627 1.399 . S
C1627 H1613 0.929 . S
C1627 C1626 1.399 . S
C1627 C1628 1.385 . S
C1628 H1614 0.931 . S
C1628 C1627 1.385 . S
C1628 C1629 1.389 . S
C1629 C1628 1.389 . S
C1629 C1630 1.387 . S
C1630 H1615 0.930 . S
C1630 C1625 1.390 . S
C1630 C1629 1.387 . S
H1631 C1643 0.930 . S
H1632 C1645 0.930 . S
H1633 C1646 0.930 . S
H1634 C1650 0.959 . S
H1635 C1650 0.959 . S
H1636 C1650 0.961 . S
H1637 C1651 0.960 . S
H1638 C1651 0.961 . S
H1639 C1651 0.959 . S
H1640 C1654 0.929 . S
H1641 C1655 0.931 . S
H1642 C1657 0.930 . S
C1643 H1631 0.930 . S
C1643 C1644 1.399 . S
C1643 C1648 1.399 . S
C1644 C1643 1.399 . S
C1644 C1645 1.376 . S
C1645 H1632 0.930 . S
C1645 C1644 1.376 . S
C1645 C1646 1.388 . S
C1646 H1633 0.930 . S
C1646 C1645 1.388 . S
C1646 C1647 1.390 . S
C1647 C1646 1.390 . S
C1647 C1648 1.394 . S
C1647 C1653 1.465 . S
C1648 C1643 1.399 . S
C1648 C1647 1.394 . S
C1648 C1649 1.516 . S
C1649 C1648 1.516 . S
C1649 C1650 1.502 . S
C1649 C1651 1.561 . S
C1649 C1652 1.526 . S
C1650 H1634 0.959 . S
C1650 H1635 0.959 . S
C1650 H1636 0.961 . S
C1650 C1649 1.502 . S
C1651 H1637 0.960 . S
C1651 H1638 0.961 . S
C1651 H1639 0.959 . S
C1651 C1649 1.561 . S
C1652 C1649 1.526 . S
C1652 C1653 1.396 . S
C1652 C1657 1.390 . S
C1653 C1647 1.465 . S
C1653 C1652 1.396 . S
C1653 C1654 1.399 . S
C1654 H1640 0.929 . S
C1654 C1653 1.399 . S
C1654 C1655 1.385 . S
C1655 H1641 0.931 . S
C1655 C1654 1.385 . S
C1655 C1656 1.389 . S
C1656 C1655 1.389 . S
C1656 C1657 1.387 . S
C1657 H1642 0.930 . S
C1657 C1652 1.390 . S
C1657 C1656 1.387 . S
H1658 C1670 0.930 . S
H1659 C1672 0.930 . S
H1660 C1673 0.930 . S
H1661 C1677 0.959 . S
H1662 C1677 0.959 . S
H1663 C1677 0.961 . S
H1664 C1678 0.960 . S
H1665 C1678 0.961 . S
H1666 C1678 0.959 . S
H1667 C1681 0.929 . S
H1668 C1682 0.931 . S
H1669 C1684 0.930 . S
C1670 H1658 0.930 . S
C1670 C1671 1.399 . S
C1670 C1675 1.399 . S
C1671 C1670 1.399 . S
C1671 C1672 1.376 . S
C1672 H1659 0.930 . S
C1672 C1671 1.376 . S
C1672 C1673 1.388 . S
C1673 H1660 0.930 . S
C1673 C1672 1.388 . S
C1673 C1674 1.390 . S
C1674 C1673 1.390 . S
C1674 C1675 1.394 . S
C1674 C1680 1.465 . S
C1675 C1670 1.399 . S
C1675 C1674 1.394 . S
C1675 C1676 1.516 . S
C1676 C1675 1.516 . S
C1676 C1677 1.502 . S
C1676 C1678 1.561 . S
C1676 C1679 1.526 . S
C1677 H1661 0.959 . S
C1677 H1662 0.959 . S
C1677 H1663 0.961 . S
C1677 C1676 1.502 . S
C1678 H1664 0.960 . S
C1678 H1665 0.961 . S
C1678 H1666 0.959 . S
C1678 C1676 1.561 . S
C1679 C1676 1.526 . S
C1679 C1680 1.396 . S
C1679 C1684 1.390 . S
C1680 C1674 1.465 . S
C1680 C1679 1.396 . S
C1680 C1681 1.399 . S
C1681 H1667 0.929 . S
C1681 C1680 1.399 . S
C1681 C1682 1.385 . S
C1682 H1668 0.931 . S
C1682 C1681 1.385 . S
C1682 C1683 1.389 . S
C1683 C1682 1.389 . S
C1683 C1684 1.387 . S
C1684 H1669 0.930 . S
C1684 C1679 1.390 . S
C1684 C1683 1.387 . S
H1685 C1697 0.930 . S
H1686 C1699 0.930 . S
H1687 C1700 0.930 . S
H1688 C1704 0.959 . S
H1689 C1704 0.959 . S
H1690 C1704 0.961 . S
H1691 C1705 0.960 . S
H1692 C1705 0.961 . S
H1693 C1705 0.959 . S
H1694 C1708 0.929 . S
H1695 C1709 0.931 . S
H1696 C1711 0.930 . S
C1697 H1685 0.930 . S
C1697 C1698 1.399 . S
C1697 C1702 1.399 . S
C1698 C1697 1.399 . S
C1698 C1699 1.376 . S
C1699 H1686 0.930 . S
C1699 C1698 1.376 . S
C1699 C1700 1.388 . S
C1700 H1687 0.930 . S
C1700 C1699 1.388 . S
C1700 C1701 1.390 . S
C1701 C1700 1.390 . S
C1701 C1702 1.394 . S
C1701 C1707 1.465 . S
C1702 C1697 1.399 . S
C1702 C1701 1.394 . S
C1702 C1703 1.516 . S
C1703 C1702 1.516 . S
C1703 C1704 1.502 . S
C1703 C1705 1.561 . S
C1703 C1706 1.526 . S
C1704 H1688 0.959 . S
C1704 H1689 0.959 . S
C1704 H1690 0.961 . S
C1704 C1703 1.502 . S
C1705 H1691 0.960 . S
C1705 H1692 0.961 . S
C1705 H1693 0.959 . S
C1705 C1703 1.561 . S
C1706 C1703 1.526 . S
C1706 C1707 1.396 . S
C1706 C1711 1.390 . S
C1707 C1701 1.465 . S
C1707 C1706 1.396 . S
C1707 C1708 1.399 . S
C1708 H1694 0.929 . S
C1708 C1707 1.399 . S
C1708 C1709 1.385 . S
C1709 H1695 0.931 . S
C1709 C1708 1.385 . S
C1709 C1710 1.389 . S
C1710 C1709 1.389 . S
C1710 C1711 1.387 . S
C1711 H1696 0.930 . S
C1711 C1706 1.390 . S
C1711 C1710 1.387 . S
H1712 C1724 0.930 . S
H1713 C1726 0.930 . S
H1714 C1727 0.930 . S
H1715 C1731 0.959 . S
H1716 C1731 0.959 . S
H1717 C1731 0.961 . S
H1718 C1732 0.960 . S
H1719 C1732 0.961 . S
H1720 C1732 0.959 . S
H1721 C1735 0.929 . S
H1722 C1736 0.931 . S
H1723 C1738 0.930 . S
C1724 H1712 0.930 . S
C1724 C1725 1.399 . S
C1724 C1729 1.399 . S
C1725 C1724 1.399 . S
C1725 C1726 1.376 . S
C1726 H1713 0.930 . S
C1726 C1725 1.376 . S
C1726 C1727 1.388 . S
C1727 H1714 0.930 . S
C1727 C1726 1.388 . S
C1727 C1728 1.390 . S
C1728 C1727 1.390 . S
C1728 C1729 1.394 . S
C1728 C1734 1.465 . S
C1729 C1724 1.399 . S
C1729 C1728 1.394 . S
C1729 C1730 1.516 . S
C1730 C1729 1.516 . S
C1730 C1731 1.502 . S
C1730 C1732 1.561 . S
C1730 C1733 1.526 . S
C1731 H1715 0.959 . S
C1731 H1716 0.959 . S
C1731 H1717 0.961 . S
C1731 C1730 1.502 . S
C1732 H1718 0.960 . S
C1732 H1719 0.961 . S
C1732 H1720 0.959 . S
C1732 C1730 1.561 . S
C1733 C1730 1.526 . S
C1733 C1734 1.396 . S
C1733 C1738 1.390 . S
C1734 C1728 1.465 . S
C1734 C1733 1.396 . S
C1734 C1735 1.399 . S
C1735 H1721 0.929 . S
C1735 C1734 1.399 . S
C1735 C1736 1.385 . S
C1736 H1722 0.931 . S
C1736 C1735 1.385 . S
C1736 C1737 1.389 . S
C1737 C1736 1.389 . S
C1737 C1738 1.387 . S
C1738 H1723 0.930 . S
C1738 C1733 1.390 . S
C1738 C1737 1.387 . S
H1739 C1751 0.930 . S
H1740 C1753 0.930 . S
H1741 C1754 0.930 . S
H1742 C1758 0.959 . S
H1743 C1758 0.959 . S
H1744 C1758 0.961 . S
H1745 C1759 0.960 . S
H1746 C1759 0.961 . S
H1747 C1759 0.959 . S
H1748 C1762 0.929 . S
H1749 C1763 0.931 . S
H1750 C1765 0.930 . S
C1751 H1739 0.930 . S
C1751 C1752 1.399 . S
C1751 C1756 1.399 . S
C1752 C1751 1.399 . S
C1752 C1753 1.376 . S
C1753 H1740 0.930 . S
C1753 C1752 1.376 . S
C1753 C1754 1.388 . S
C1754 H1741 0.930 . S
C1754 C1753 1.388 . S
C1754 C1755 1.390 . S
C1755 C1754 1.390 . S
C1755 C1756 1.394 . S
C1755 C1761 1.465 . S
C1756 C1751 1.399 . S
C1756 C1755 1.394 . S
C1756 C1757 1.516 . S
C1757 C1756 1.516 . S
C1757 C1758 1.502 . S
C1757 C1759 1.561 . S
C1757 C1760 1.526 . S
C1758 H1742 0.959 . S
C1758 H1743 0.959 . S
C1758 H1744 0.961 . S
C1758 C1757 1.502 . S
C1759 H1745 0.960 . S
C1759 H1746 0.961 . S
C1759 H1747 0.959 . S
C1759 C1757 1.561 . S
C1760 C1757 1.526 . S
C1760 C1761 1.396 . S
C1760 C1765 1.390 . S
C1761 C1755 1.465 . S
C1761 C1760 1.396 . S
C1761 C1762 1.399 . S
C1762 H1748 0.929 . S
C1762 C1761 1.399 . S
C1762 C1763 1.385 . S
C1763 H1749 0.931 . S
C1763 C1762 1.385 . S
C1763 C1764 1.389 . S
C1764 C1763 1.389 . S
C1764 C1765 1.387 . S
C1765 H1750 0.930 . S
C1765 C1760 1.390 . S
C1765 C1764 1.387 . S
H1766 C1778 0.938 . S
H1767 C1780 0.930 . S
H1768 C1781 0.930 . S
H1769 C1785 0.959 . S
H1770 C1785 0.959 . S
H1771 C1785 0.961 . S
H1772 C1786 0.960 . S
H1773 C1786 0.961 . S
H1774 C1786 0.959 . S
H1775 C1789 0.929 . S
H1776 C1790 0.931 . S
H1777 C1792 0.940 . S
C1778 H1766 0.938 . S
C1778 C1779 1.393 1_556 S
C1778 C1783 1.399 . S
C1779 C1778 1.393 1_554 S
C1779 C1780 1.376 . S
C1780 H1767 0.930 . S
C1780 C1779 1.376 . S
C1780 C1781 1.388 . S
C1781 H1768 0.930 . S
C1781 C1780 1.388 . S
C1781 C1782 1.390 . S
C1782 C1781 1.390 . S
C1782 C1783 1.387 1_554 S
C1782 C1788 1.465 . S
C1783 C1778 1.399 . S
C1783 C1782 1.387 1_556 S
C1783 C1784 1.524 . S
C1784 C1783 1.524 . S
C1784 C1785 1.502 1_556 S
C1784 C1786 1.561 . S
C1784 C1787 1.533 . S
C1785 H1769 0.959 . S
C1785 H1770 0.959 . S
C1785 H1771 0.961 . S
C1785 C1784 1.502 1_554 S
C1786 H1772 0.960 . S
C1786 H1773 0.961 . S
C1786 H1774 0.959 . S
C1786 C1784 1.561 . S
C1787 C1784 1.533 . S
C1787 C1788 1.390 1_556 S
C1787 C1792 1.389 . S
C1788 C1782 1.465 . S
C1788 C1787 1.390 1_554 S
C1788 C1789 1.399 . S
C1789 H1775 0.929 . S
C1789 C1788 1.399 . S
C1789 C1790 1.385 . S
C1790 H1776 0.931 . S
C1790 C1789 1.385 . S
C1790 C1791 1.389 . S
C1791 C1790 1.389 . S
C1791 C1792 1.378 1_554 S
C1792 H1777 0.940 . S
C1792 C1787 1.389 . S
C1792 C1791 1.378 1_556 S
H1793 C1805 0.930 . S
H1794 C1807 0.930 . S
H1795 C1808 0.930 . S
H1796 C1812 0.959 . S
H1797 C1812 0.959 . S
H1798 C1812 0.961 . S
H1799 C1813 0.960 . S
H1800 C1813 0.961 . S
H1801 C1813 0.959 . S
H1802 C1816 0.929 . S
H1803 C1817 0.931 . S
H1804 C1819 0.930 . S
C1805 H1793 0.930 . S
C1805 C1806 1.399 1_556 S
C1805 C1810 1.399 . S
C1806 C1805 1.399 1_554 S
C1806 C1807 1.376 . S
C1807 H1794 0.930 . S
C1807 C1806 1.376 . S
C1807 C1808 1.388 . S
C1808 H1795 0.930 . S
C1808 C1807 1.388 . S
C1808 C1809 1.390 . S
C1809 C1808 1.390 . S
C1809 C1810 1.394 1_554 S
C1809 C1815 1.465 . S
C1810 C1805 1.399 . S
C1810 C1809 1.394 1_556 S
C1810 C1811 1.516 . S
C1811 C1810 1.516 . S
C1811 C1812 1.502 . S
C1811 C1813 1.561 . S
C1811 C1814 1.526 . S
C1812 H1796 0.959 . S
C1812 H1797 0.959 . S
C1812 H1798 0.961 . S
C1812 C1811 1.502 . S
C1813 H1799 0.960 . S
C1813 H1800 0.961 . S
C1813 H1801 0.959 . S
C1813 C1811 1.561 . S
C1814 C1811 1.526 . S
C1814 C1815 1.396 1_556 S
C1814 C1819 1.390 . S
C1815 C1809 1.465 . S
C1815 C1814 1.396 1_554 S
C1815 C1816 1.399 . S
C1816 H1802 0.929 . S
C1816 C1815 1.399 . S
C1816 C1817 1.385 . S
C1817 H1803 0.931 . S
C1817 C1816 1.385 . S
C1817 C1818 1.389 . S
C1818 C1817 1.389 . S
C1818 C1819 1.387 1_554 S
C1819 H1804 0.930 . S
C1819 C1814 1.390 . S
C1819 C1818 1.387 1_556 S
H1820 C1832 0.930 . S
H1821 C1834 0.930 . S
H1822 C1835 0.930 . S
H1823 C1839 0.959 . S
H1824 C1839 0.959 . S
H1825 C1839 0.961 . S
H1826 C1840 0.960 . S
H1827 C1840 0.961 . S
H1828 C1840 0.959 . S
H1829 C1843 0.929 . S
H1830 C1844 0.931 . S
H1831 C1846 0.930 . S
C1832 H1820 0.930 . S
C1832 C1833 1.399 . S
C1832 C1837 1.399 . S
C1833 C1832 1.399 . S
C1833 C1834 1.376 . S
C1834 H1821 0.930 . S
C1834 C1833 1.376 . S
C1834 C1835 1.388 . S
C1835 H1822 0.930 . S
C1835 C1834 1.388 . S
C1835 C1836 1.390 . S
C1836 C1835 1.390 . S
C1836 C1837 1.394 . S
C1836 C1842 1.465 . S
C1837 C1832 1.399 . S
C1837 C1836 1.394 . S
C1837 C1838 1.516 . S
C1838 C1837 1.516 . S
C1838 C1839 1.502 . S
C1838 C1840 1.561 . S
C1838 C1841 1.526 . S
C1839 H1823 0.959 . S
C1839 H1824 0.959 . S
C1839 H1825 0.961 . S
C1839 C1838 1.502 . S
C1840 H1826 0.960 . S
C1840 H1827 0.961 . S
C1840 H1828 0.959 . S
C1840 C1838 1.561 . S
C1841 C1838 1.526 . S
C1841 C1842 1.396 . S
C1841 C1846 1.390 . S
C1842 C1836 1.465 . S
C1842 C1841 1.396 . S
C1842 C1843 1.399 . S
C1843 H1829 0.929 . S
C1843 C1842 1.399 . S
C1843 C1844 1.385 . S
C1844 H1830 0.931 . S
C1844 C1843 1.385 . S
C1844 C1845 1.389 . S
C1845 C1844 1.389 . S
C1845 C1846 1.387 . S
C1846 H1831 0.930 . S
C1846 C1841 1.390 . S
C1846 C1845 1.387 . S
H1847 C1859 0.930 . S
H1848 C1861 0.930 . S
H1849 C1862 0.930 . S
H1850 C1866 0.959 . S
H1851 C1866 0.959 . S
H1852 C1866 0.961 . S
H1853 C1867 0.960 . S
H1854 C1867 0.961 . S
H1855 C1867 0.959 . S
H1856 C1870 0.929 . S
H1857 C1871 0.931 . S
H1858 C1873 0.930 . S
C1859 H1847 0.930 . S
C1859 C1860 1.399 . S
C1859 C1864 1.399 . S
C1860 C1859 1.399 . S
C1860 C1861 1.376 . S
C1861 H1848 0.930 . S
C1861 C1860 1.376 . S
C1861 C1862 1.388 . S
C1862 H1849 0.930 . S
C1862 C1861 1.388 . S
C1862 C1863 1.390 . S
C1863 C1862 1.390 . S
C1863 C1864 1.394 . S
C1863 C1869 1.465 . S
C1864 C1859 1.399 . S
C1864 C1863 1.394 . S
C1864 C1865 1.516 . S
C1865 C1864 1.516 . S
C1865 C1866 1.502 . S
C1865 C1867 1.561 . S
C1865 C1868 1.526 . S
C1866 H1850 0.959 . S
C1866 H1851 0.959 . S
C1866 H1852 0.961 . S
C1866 C1865 1.502 . S
C1867 H1853 0.960 . S
C1867 H1854 0.961 . S
C1867 H1855 0.959 . S
C1867 C1865 1.561 . S
C1868 C1865 1.526 . S
C1868 C1869 1.396 . S
C1868 C1873 1.390 . S
C1869 C1863 1.465 . S
C1869 C1868 1.396 . S
C1869 C1870 1.399 . S
C1870 H1856 0.929 . S
C1870 C1869 1.399 . S
C1870 C1871 1.385 . S
C1871 H1857 0.931 . S
C1871 C1870 1.385 . S
C1871 C1872 1.389 . S
C1872 C1871 1.389 . S
C1872 C1873 1.387 . S
C1873 H1858 0.930 . S
C1873 C1868 1.390 . S
C1873 C1872 1.387 . S
H1874 C1886 0.930 . S
H1875 C1888 0.930 . S
H1876 C1889 0.930 . S
H1877 C1893 0.959 . S
H1878 C1893 0.959 . S
H1879 C1893 0.961 . S
H1880 C1894 0.960 . S
H1881 C1894 0.961 . S
H1882 C1894 0.959 . S
H1883 C1897 0.929 . S
H1884 C1898 0.931 . S
H1885 C1900 0.930 . S
C1886 H1874 0.930 . S
C1886 C1887 1.399 . S
C1886 C1891 1.399 . S
C1887 C1886 1.399 . S
C1887 C1888 1.376 . S
C1888 H1875 0.930 . S
C1888 C1887 1.376 . S
C1888 C1889 1.388 . S
C1889 H1876 0.930 . S
C1889 C1888 1.388 . S
C1889 C1890 1.390 . S
C1890 C1889 1.390 . S
C1890 C1891 1.394 . S
C1890 C1896 1.465 . S
C1891 C1886 1.399 . S
C1891 C1890 1.394 . S
C1891 C1892 1.516 . S
C1892 C1891 1.516 . S
C1892 C1893 1.502 1_556 S
C1892 C1894 1.561 . S
C1892 C1895 1.526 . S
C1893 H1877 0.959 . S
C1893 H1878 0.959 . S
C1893 H1879 0.961 . S
C1893 C1892 1.502 1_554 S
C1894 H1880 0.960 . S
C1894 H1881 0.961 . S
C1894 H1882 0.959 . S
C1894 C1892 1.561 . S
C1895 C1892 1.526 . S
C1895 C1896 1.396 . S
C1895 C1900 1.390 . S
C1896 C1890 1.465 . S
C1896 C1895 1.396 . S
C1896 C1897 1.399 . S
C1897 H1883 0.929 . S
C1897 C1896 1.399 . S
C1897 C1898 1.385 . S
C1898 H1884 0.931 . S
C1898 C1897 1.385 . S
C1898 C1899 1.389 . S
C1899 C1898 1.389 . S
C1899 C1900 1.387 . S
C1900 H1885 0.930 . S
C1900 C1895 1.390 . S
C1900 C1899 1.387 . S
H1901 C1913 0.930 . S
H1902 C1915 0.930 . S
H1903 C1916 0.930 . S
H1904 C1920 0.959 . S
H1905 C1920 0.959 . S
H1906 C1920 0.961 . S
H1907 C1921 0.960 . S
H1908 C1921 0.961 . S
H1909 C1921 0.959 . S
H1910 C1924 0.929 . S
H1911 C1925 0.931 . S
H1912 C1927 0.930 . S
C1913 H1901 0.930 . S
C1913 C1914 1.399 . S
C1913 C1918 1.399 . S
C1914 C1913 1.399 . S
C1914 C1915 1.376 1_556 S
C1915 H1902 0.930 . S
C1915 C1914 1.376 1_554 S
C1915 C1916 1.388 . S
C1916 H1903 0.930 . S
C1916 C1915 1.388 . S
C1916 C1917 1.390 . S
C1917 C1916 1.390 . S
C1917 C1918 1.394 1_554 S
C1917 C1923 1.465 . S
C1918 C1913 1.399 . S
C1918 C1917 1.394 1_556 S
C1918 C1919 1.516 . S
C1919 C1918 1.516 . S
C1919 C1920 1.502 . S
C1919 C1921 1.561 . S
C1919 C1922 1.526 . S
C1920 H1904 0.959 . S
C1920 H1905 0.959 . S
C1920 H1906 0.961 . S
C1920 C1919 1.502 . S
C1921 H1907 0.960 . S
C1921 H1908 0.961 . S
C1921 H1909 0.959 . S
C1921 C1919 1.561 . S
C1922 C1919 1.526 . S
C1922 C1923 1.396 1_556 S
C1922 C1927 1.390 . S
C1923 C1917 1.465 . S
C1923 C1922 1.396 1_554 S
C1923 C1924 1.399 . S
C1924 H1910 0.929 . S
C1924 C1923 1.399 . S
C1924 C1925 1.385 . S
C1925 H1911 0.931 . S
C1925 C1924 1.385 . S
C1925 C1926 1.389 1_554 S
C1926 C1925 1.389 1_556 S
C1926 C1927 1.387 . S
C1927 H1912 0.930 . S
C1927 C1922 1.390 . S
C1927 C1926 1.387 . S
H1928 C1940 0.930 . S
H1929 C1942 0.930 . S
H1930 C1943 0.930 . S
H1931 C1947 0.959 . S
H1932 C1947 0.959 . S
H1933 C1947 0.961 . S
H1934 C1948 0.960 . S
H1935 C1948 0.961 . S
H1936 C1948 0.959 . S
H1937 C1951 0.929 . S
H1938 C1952 0.931 . S
H1939 C1954 0.930 . S
C1940 H1928 0.930 . S
C1940 C1941 1.399 . S
C1940 C1945 1.399 . S
C1941 C1940 1.399 . S
C1941 C1942 1.376 . S
C1942 H1929 0.930 . S
C1942 C1941 1.376 . S
C1942 C1943 1.388 . S
C1943 H1930 0.930 . S
C1943 C1942 1.388 . S
C1943 C1944 1.390 . S
C1944 C1943 1.390 . S
C1944 C1945 1.394 . S
C1944 C1950 1.465 . S
C1945 C1940 1.399 . S
C1945 C1944 1.394 . S
C1945 C1946 1.516 . S
C1946 C1945 1.516 . S
C1946 C1947 1.502 . S
C1946 C1948 1.561 . S
C1946 C1949 1.526 . S
C1947 H1931 0.959 . S
C1947 H1932 0.959 . S
C1947 H1933 0.961 . S
C1947 C1946 1.502 . S
C1948 H1934 0.960 . S
C1948 H1935 0.961 . S
C1948 H1936 0.959 . S
C1948 C1946 1.561 . S
C1949 C1946 1.526 . S
C1949 C1950 1.396 . S
C1949 C1954 1.390 . S
C1950 C1944 1.465 . S
C1950 C1949 1.396 . S
C1950 C1951 1.399 . S
C1951 H1937 0.929 . S
C1951 C1950 1.399 . S
C1951 C1952 1.385 . S
C1952 H1938 0.931 . S
C1952 C1951 1.385 . S
C1952 C1953 1.389 . S
C1953 C1952 1.389 . S
C1953 C1954 1.387 . S
C1954 H1939 0.930 . S
C1954 C1949 1.390 . S
C1954 C1953 1.387 . S
H1955 C1967 0.930 . S
H1956 C1969 0.930 . S
H1957 C1970 0.930 . S
H1958 C1974 0.959 . S
H1959 C1974 0.959 . S
H1960 C1974 0.961 . S
H1961 C1975 0.960 . S
H1962 C1975 0.961 . S
H1963 C1975 0.959 . S
H1964 C1978 0.929 . S
H1965 C1979 0.931 . S
H1966 C1981 0.930 . S
C1967 H1955 0.930 . S
C1967 C1968 1.399 . S
C1967 C1972 1.399 . S
C1968 C1967 1.399 . S
C1968 C1969 1.376 . S
C1969 H1956 0.930 . S
C1969 C1968 1.376 . S
C1969 C1970 1.388 . S
C1970 H1957 0.930 . S
C1970 C1969 1.388 . S
C1970 C1971 1.390 . S
C1971 C1970 1.390 . S
C1971 C1972 1.394 . S
C1971 C1977 1.465 . S
C1972 C1967 1.399 . S
C1972 C1971 1.394 . S
C1972 C1973 1.516 . S
C1973 C1972 1.516 . S
C1973 C1974 1.502 . S
C1973 C1975 1.561 . S
C1973 C1976 1.526 . S
C1974 H1958 0.959 . S
C1974 H1959 0.959 . S
C1974 H1960 0.961 . S
C1974 C1973 1.502 . S
C1975 H1961 0.960 . S
C1975 H1962 0.961 . S
C1975 H1963 0.959 . S
C1975 C1973 1.561 . S
C1976 C1973 1.526 . S
C1976 C1977 1.396 . S
C1976 C1981 1.390 . S
C1977 C1971 1.465 . S
C1977 C1976 1.396 . S
C1977 C1978 1.399 . S
C1978 H1964 0.929 . S
C1978 C1977 1.399 . S
C1978 C1979 1.385 . S
C1979 H1965 0.931 . S
C1979 C1978 1.385 . S
C1979 C1980 1.389 . S
C1980 C1979 1.389 . S
C1980 C1981 1.387 . S
C1981 H1966 0.930 . S
C1981 C1976 1.390 . S
C1981 C1980 1.387 . S
H1982 C1994 0.930 . S
H1983 C1996 0.930 . S
H1984 C1997 0.930 . S
H1985 C2001 0.959 . S
H1986 C2001 0.959 . S
H1987 C2001 0.961 . S
H1988 C2002 0.960 . S
H1989 C2002 0.961 . S
H1990 C2002 0.959 . S
H1991 C2005 0.929 . S
H1992 C2006 0.931 . S
H1993 C2008 0.930 . S
C1994 H1982 0.930 . S
C1994 C1995 1.399 . S
C1994 C1999 1.399 . S
C1995 C1994 1.399 . S
C1995 C1996 1.376 . S
C1996 H1983 0.930 . S
C1996 C1995 1.376 . S
C1996 C1997 1.388 . S
C1997 H1984 0.930 . S
C1997 C1996 1.388 . S
C1997 C1998 1.390 . S
C1998 C1997 1.390 . S
C1998 C1999 1.394 . S
C1998 C2004 1.465 . S
C1999 C1994 1.399 . S
C1999 C1998 1.394 . S
C1999 C2000 1.516 . S
C2000 C1999 1.516 . S
C2000 C2001 1.502 . S
C2000 C2002 1.561 . S
C2000 C2003 1.526 . S
C2001 H1985 0.959 . S
C2001 H1986 0.959 . S
C2001 H1987 0.961 . S
C2001 C2000 1.502 . S
C2002 H1988 0.960 . S
C2002 H1989 0.961 . S
C2002 H1990 0.959 . S
C2002 C2000 1.561 . S
C2003 C2000 1.526 . S
C2003 C2004 1.396 . S
C2003 C2008 1.390 . S
C2004 C1998 1.465 . S
C2004 C2003 1.396 . S
C2004 C2005 1.399 . S
C2005 H1991 0.929 . S
C2005 C2004 1.399 . S
C2005 C2006 1.385 . S
C2006 H1992 0.931 . S
C2006 C2005 1.385 . S
C2006 C2007 1.389 . S
C2007 C2006 1.389 . S
C2007 C2008 1.387 . S
C2008 H1993 0.930 . S
C2008 C2003 1.390 . S
C2008 C2007 1.387 . S
H2009 C2021 0.930 . S
H2010 C2023 0.930 . S
H2011 C2024 0.930 . S
H2012 C2028 0.959 . S
H2013 C2028 0.959 . S
H2014 C2028 0.961 . S
H2015 C2029 0.960 . S
H2016 C2029 0.961 . S
H2017 C2029 0.959 . S
H2018 C2032 0.929 . S
H2019 C2033 0.931 . S
H2020 C2035 0.930 . S
C2021 H2009 0.930 . S
C2021 C2022 1.399 . S
C2021 C2026 1.399 . S
C2022 C2021 1.399 . S
C2022 C2023 1.376 . S
C2023 H2010 0.930 . S
C2023 C2022 1.376 . S
C2023 C2024 1.388 . S
C2024 H2011 0.930 . S
C2024 C2023 1.388 . S
C2024 C2025 1.390 . S
C2025 C2024 1.390 . S
C2025 C2026 1.394 . S
C2025 C2031 1.465 . S
C2026 C2021 1.399 . S
C2026 C2025 1.394 . S
C2026 C2027 1.516 . S
C2027 C2026 1.516 . S
C2027 C2028 1.502 . S
C2027 C2029 1.561 . S
C2027 C2030 1.526 . S
C2028 H2012 0.959 . S
C2028 H2013 0.959 . S
C2028 H2014 0.961 . S
C2028 C2027 1.502 . S
C2029 H2015 0.960 . S
C2029 H2016 0.961 . S
C2029 H2017 0.959 . S
C2029 C2027 1.561 . S
C2030 C2027 1.526 . S
C2030 C2031 1.396 . S
C2030 C2035 1.390 . S
C2031 C2025 1.465 . S
C2031 C2030 1.396 . S
C2031 C2032 1.399 . S
C2032 H2018 0.929 . S
C2032 C2031 1.399 . S
C2032 C2033 1.385 . S
C2033 H2019 0.931 . S
C2033 C2032 1.385 . S
C2033 C2034 1.389 . S
C2034 C2033 1.389 . S
C2034 C2035 1.387 . S
C2035 H2020 0.930 . S
C2035 C2030 1.390 . S
C2035 C2034 1.387 . S
H2036 C2048 0.930 . S
H2037 C2050 0.930 . S
H2038 C2051 0.930 . S
H2039 C2055 0.959 . S
H2040 C2055 0.959 . S
H2041 C2055 0.961 . S
H2042 C2056 0.960 . S
H2043 C2056 0.961 . S
H2044 C2056 0.959 . S
H2045 C2059 0.929 . S
H2046 C2060 0.931 . S
H2047 C2062 0.930 . S
C2048 H2036 0.930 . S
C2048 C2049 1.399 . S
C2048 C2053 1.399 . S
C2049 C2048 1.399 . S
C2049 C2050 1.376 . S
C2050 H2037 0.930 . S
C2050 C2049 1.376 . S
C2050 C2051 1.388 . S
C2051 H2038 0.930 . S
C2051 C2050 1.388 . S
C2051 C2052 1.390 . S
C2052 C2051 1.390 . S
C2052 C2053 1.394 . S
C2052 C2058 1.465 . S
C2053 C2048 1.399 . S
C2053 C2052 1.394 . S
C2053 C2054 1.516 . S
C2054 C2053 1.516 . S
C2054 C2055 1.502 . S
C2054 C2056 1.561 . S
C2054 C2057 1.526 . S
C2055 H2039 0.959 . S
C2055 H2040 0.959 . S
C2055 H2041 0.961 . S
C2055 C2054 1.502 . S
C2056 H2042 0.960 . S
C2056 H2043 0.961 . S
C2056 H2044 0.959 . S
C2056 C2054 1.561 . S
C2057 C2054 1.526 . S
C2057 C2058 1.396 . S
C2057 C2062 1.390 . S
C2058 C2052 1.465 . S
C2058 C2057 1.396 . S
C2058 C2059 1.399 . S
C2059 H2045 0.929 . S
C2059 C2058 1.399 . S
C2059 C2060 1.385 . S
C2060 H2046 0.931 . S
C2060 C2059 1.385 . S
C2060 C2061 1.389 . S
C2061 C2060 1.389 . S
C2061 C2062 1.387 . S
C2062 H2047 0.930 . S
C2062 C2057 1.390 . S
C2062 C2061 1.387 . S
H2063 C2075 0.930 . S
H2064 C2077 0.930 . S
H2065 C2078 0.930 . S
H2066 C2082 0.959 . S
H2067 C2082 0.959 . S
H2068 C2082 0.961 . S
H2069 C2083 0.960 . S
H2070 C2083 0.961 . S
H2071 C2083 0.959 . S
H2072 C2086 0.929 . S
H2073 C2087 0.931 . S
H2074 C2089 0.930 . S
C2075 H2063 0.930 . S
C2075 C2076 1.399 . S
C2075 C2080 1.399 . S
C2076 C2075 1.399 . S
C2076 C2077 1.376 . S
C2077 H2064 0.930 . S
C2077 C2076 1.376 . S
C2077 C2078 1.388 . S
C2078 H2065 0.930 . S
C2078 C2077 1.388 . S
C2078 C2079 1.390 . S
C2079 C2078 1.390 . S
C2079 C2080 1.394 . S
C2079 C2085 1.465 . S
C2080 C2075 1.399 . S
C2080 C2079 1.394 . S
C2080 C2081 1.516 . S
C2081 C2080 1.516 . S
C2081 C2082 1.502 . S
C2081 C2083 1.561 . S
C2081 C2084 1.526 . S
C2082 H2066 0.959 . S
C2082 H2067 0.959 . S
C2082 H2068 0.961 . S
C2082 C2081 1.502 . S
C2083 H2069 0.960 . S
C2083 H2070 0.961 . S
C2083 H2071 0.959 . S
C2083 C2081 1.561 . S
C2084 C2081 1.526 . S
C2084 C2085 1.396 . S
C2084 C2089 1.390 . S
C2085 C2079 1.465 . S
C2085 C2084 1.396 . S
C2085 C2086 1.399 . S
C2086 H2072 0.929 . S
C2086 C2085 1.399 . S
C2086 C2087 1.385 . S
C2087 H2073 0.931 . S
C2087 C2086 1.385 . S
C2087 C2088 1.389 . S
C2088 C2087 1.389 . S
C2088 C2089 1.387 . S
C2089 H2074 0.930 . S
C2089 C2084 1.390 . S
C2089 C2088 1.387 . S
H2090 C2102 0.930 . S
H2091 C2104 0.930 . S
H2092 C2105 0.930 . S
H2093 C2109 0.959 . S
H2094 C2109 0.959 . S
H2095 C2109 0.961 . S
H2096 C2110 0.960 . S
H2097 C2110 0.961 . S
H2098 C2110 0.959 . S
H2099 C2113 0.929 . S
H2100 C2114 0.931 . S
H2101 C2116 0.930 . S
C2102 H2090 0.930 . S
C2102 C2103 1.399 . S
C2102 C2107 1.399 . S
C2103 C2102 1.399 . S
C2103 C2104 1.376 . S
C2104 H2091 0.930 . S
C2104 C2103 1.376 . S
C2104 C2105 1.388 . S
C2105 H2092 0.930 . S
C2105 C2104 1.388 . S
C2105 C2106 1.390 . S
C2106 C2105 1.390 . S
C2106 C2107 1.394 . S
C2106 C2112 1.465 . S
C2107 C2102 1.399 . S
C2107 C2106 1.394 . S
C2107 C2108 1.516 . S
C2108 C2107 1.516 . S
C2108 C2109 1.502 . S
C2108 C2110 1.561 . S
C2108 C2111 1.526 . S
C2109 H2093 0.959 . S
C2109 H2094 0.959 . S
C2109 H2095 0.961 . S
C2109 C2108 1.502 . S
C2110 H2096 0.960 . S
C2110 H2097 0.961 . S
C2110 H2098 0.959 . S
C2110 C2108 1.561 . S
C2111 C2108 1.526 . S
C2111 C2112 1.396 . S
C2111 C2116 1.390 . S
C2112 C2106 1.465 . S
C2112 C2111 1.396 . S
C2112 C2113 1.399 . S
C2113 H2099 0.929 . S
C2113 C2112 1.399 . S
C2113 C2114 1.385 . S
C2114 H2100 0.931 . S
C2114 C2113 1.385 . S
C2114 C2115 1.389 . S
C2115 C2114 1.389 . S
C2115 C2116 1.387 . S
C2116 H2101 0.930 . S
C2116 C2111 1.390 . S
C2116 C2115 1.387 . S
H2117 C2129 0.930 . S
H2118 C2131 0.930 . S
H2119 C2132 0.930 . S
H2120 C2136 0.959 . S
H2121 C2136 0.959 . S
H2122 C2136 0.961 . S
H2123 C2137 0.960 . S
H2124 C2137 0.961 . S
H2125 C2137 0.959 . S
H2126 C2140 0.929 . S
H2127 C2141 0.931 . S
H2128 C2143 0.930 . S
C2129 H2117 0.930 . S
C2129 C2130 1.399 . S
C2129 C2134 1.399 . S
C2130 C2129 1.399 . S
C2130 C2131 1.376 . S
C2131 H2118 0.930 . S
C2131 C2130 1.376 . S
C2131 C2132 1.388 . S
C2132 H2119 0.930 . S
C2132 C2131 1.388 . S
C2132 C2133 1.390 . S
C2133 C2132 1.390 . S
C2133 C2134 1.394 . S
C2133 C2139 1.465 . S
C2134 C2129 1.399 . S
C2134 C2133 1.394 . S
C2134 C2135 1.516 . S
C2135 C2134 1.516 . S
C2135 C2136 1.502 . S
C2135 C2137 1.561 . S
C2135 C2138 1.526 . S
C2136 H2120 0.959 . S
C2136 H2121 0.959 . S
C2136 H2122 0.961 . S
C2136 C2135 1.502 . S
C2137 H2123 0.960 . S
C2137 H2124 0.961 . S
C2137 H2125 0.959 . S
C2137 C2135 1.561 . S
C2138 C2135 1.526 . S
C2138 C2139 1.396 . S
C2138 C2143 1.390 . S
C2139 C2133 1.465 . S
C2139 C2138 1.396 . S
C2139 C2140 1.399 . S
C2140 H2126 0.929 . S
C2140 C2139 1.399 . S
C2140 C2141 1.385 . S
C2141 H2127 0.931 . S
C2141 C2140 1.385 . S
C2141 C2142 1.389 . S
C2142 C2141 1.389 . S
C2142 C2143 1.387 . S
C2143 H2128 0.930 . S
C2143 C2138 1.390 . S
C2143 C2142 1.387 . S
C429 C1 1.491 . S
C441 C40 1.508 . S
C456 C27 1.497 . S
C468 C14 1.497 . S
C483 C53 1.493 . S
C495 C92 1.492 . S
C510 C79 1.474 . S
C522 C66 1.505 . S
C537 C105 1.459 . S
C549 C144 1.451 . S
C564 C131 1.453 . S
C576 C118 1.463 . S
C591 C157 1.448 . S
C603 C196 1.410 . S
C618 C170 1.437 . S
C630 C183 1.408 . S
C645 C248 1.454 . S
C657 C209 1.463 . S
C672 C222 1.457 . S
C684 C235 1.452 . S
C699 C261 1.439 . S
C711 C300 1.460 . S
C726 C287 1.440 . S
C738 C274 1.409 . S
C753 C313 1.497 . S
C765 C352 1.497 . S
C780 C339 1.497 . S
C792 C326 1.497 . S
C807 C365 1.475 . S
C819 C404 1.504 . S
C834 C378 1.477 . S
C846 C391 1.504 . S
C861 C161 1.821 . S
C873 C5 1.739 . S
C888 C18 1.751 . S
C900 C278 1.827 . S
C915 C31 1.692 1_554 S
C927 C83 1.786 . S
C942 C408 1.771 1_556 S
C954 C44 1.703 . S
C969 C57 1.847 . S
C981 C109 1.701 . S
C996 C226 1.686 . S
C1008 C70 1.843 . S
C1023 C356 1.702 1_554 S
C1035 C96 1.783 . S
C1050 C382 1.849 . S
C1062 C122 1.695 . S
C1077 C187 1.781 . S
C1089 C135 1.699 . S
C1104 C304 1.777 . S
C1116 C148 1.711 . S
C1131 C174 1.842 . S
C1143 C330 1.689 . S
C1158 C252 1.654 . S
C1170 C200 1.799 . S
C1185 C369 1.846 . S
C1197 C213 1.704 . S
C1212 C291 1.778 . S
C1224 C239 1.706 . S
C1239 C317 1.690 . S
C1251 C265 1.841 . S
C1266 C343 1.635 . S
C1278 C395 1.807 . S
C1293 C133 1.698 . S
C1305 C3 1.700 . S
C1320 C16 1.697 . S
C1332 C146 1.699 . S
C1347 C107 1.662 . S
C1359 C29 1.654 . S
C1374 C120 1.663 . S
C1386 C42 1.659 . S
C1401 C55 1.634 . S
C1413 C185 1.674 . S
C1428 C68 1.643 . S
C1440 C198 1.659 . S
C1455 C159 1.649 . S
C1467 C81 1.605 . S
C1482 C94 1.595 . S
C1494 C172 1.638 . S
C1509 C341 1.664 . S
C1521 C211 1.660 . S
C1536 C354 1.664 . S
C1548 C224 1.660 . S
C1563 C237 1.699 . S
C1575 C315 1.700 . S
C1590 C250 1.696 . S
C1602 C328 1.699 . S
C1617 C263 1.600 . S
C1629 C393 1.630 . S
C1644 C276 1.597 . S
C1656 C406 1.637 . S
C1671 C367 1.634 . S
C1683 C289 1.673 . S
C1698 C380 1.686 . S
C1710 C302 1.641 . S
C1725 C10 1.935 . S
C1737 C335 1.979 . S
C1752 C322 1.933 . S
C1764 C23 1.983 1_655 S
C1779 C36 1.885 . S
C1791 C361 1.957 . S
C1806 C49 1.896 1_655 S
C1818 C348 1.937 . S
C1833 C62 2.071 . S
C1845 C387 2.036 . S
C1860 C75 2.048 1_455 S
C1872 C374 2.054 . S
C1887 C413 1.991 . S
C1899 C88 2.026 . S
C1914 C400 1.993 . S
C1926 C101 2.021 1_455 S
C1941 C231 1.940 . S
C1953 C114 1.983 . S
C1968 C218 1.982 . S
C1980 C127 1.942 1_655 S
C1995 C140 1.895 . S
C2007 C257 1.942 . S
C2022 C153 1.948 1_655 S
C2034 C244 1.908 . S
C2049 C283 2.038 . S
C2061 C166 2.054 . S
C2076 C179 2.035 1_455 S
C2088 C270 2.058 . S
C2103 C192 2.025 . S
C2115 C309 1.997 . S
C2130 C205 2.022 1_455 S
C2142 C296 2.001 . S
