# Generated by pormake.
# Topology sow, (4)-cn, num edge types: 1
# Building blocks:
#     Node 0, Type 0, BuildingBlock: MUDLON_clean_sbu_0, # of connection points: 4
#     Node 1, Type 0, BuildingBlock: MUDLON_clean_sbu_0, # of connection points: 4
#     Node 2, Type 0, BuildingBlock: MUDLON_clean_sbu_0, # of connection points: 4
#     Node 3, Type 0, BuildingBlock: MUDLON_clean_sbu_0, # of connection points: 4
#     Node 4, Type 0, BuildingBlock: MUDLON_clean_sbu_0, # of connection points: 4
#     Node 5, Type 0, BuildingBlock: MUDLON_clean_sbu_0, # of connection points: 4
#     Node 6, Type 0, BuildingBlock: MUDLON_clean_sbu_0, # of connection points: 4
#     Node 7, Type 0, BuildingBlock: MUDLON_clean_sbu_0, # of connection points: 4
#     Edge 8, Type (0, 0), BuildingBlock: TEMPAE_clean_linker_10, # of connection points: 2
#     Edge 9, Type (0, 0), BuildingBlock: TEMPAE_clean_linker_10, # of connection points: 2
#     Edge 10, Type (0, 0), BuildingBlock: TEMPAE_clean_linker_10, # of connection points: 2
#     Edge 11, Type (0, 0), BuildingBlock: TEMPAE_clean_linker_10, # of connection points: 2
#     Edge 12, Type (0, 0), BuildingBlock: TEMPAE_clean_linker_10, # of connection points: 2
#     Edge 13, Type (0, 0), BuildingBlock: TEMPAE_clean_linker_10, # of connection points: 2
#     Edge 14, Type (0, 0), BuildingBlock: TEMPAE_clean_linker_10, # of connection points: 2
#     Edge 15, Type (0, 0), BuildingBlock: TEMPAE_clean_linker_10, # of connection points: 2
#     Edge 16, Type (0, 0), BuildingBlock: TEMPAE_clean_linker_10, # of connection points: 2
#     Edge 17, Type (0, 0), BuildingBlock: TEMPAE_clean_linker_10, # of connection points: 2
#     Edge 18, Type (0, 0), BuildingBlock: TEMPAE_clean_linker_10, # of connection points: 2
#     Edge 19, Type (0, 0), BuildingBlock: TEMPAE_clean_linker_10, # of connection points: 2
#     Edge 20, Type (0, 0), BuildingBlock: TEMPAE_clean_linker_10, # of connection points: 2
#     Edge 21, Type (0, 0), BuildingBlock: TEMPAE_clean_linker_10, # of connection points: 2
#     Edge 22, Type (0, 0), BuildingBlock: TEMPAE_clean_linker_10, # of connection points: 2
#     Edge 23, Type (0, 0), BuildingBlock: TEMPAE_clean_linker_10, # of connection points: 2
# Relax obj value: 0.167
# Max RMSD: 0.252
# Mean RMSD: 0.252
data_MOF--net-sow--node1-MUDLON_clean_sbu_0--edge1-TEMPAE_clean_linker_10
_symmetry_space_group_name_H-M    P1
_symmetry_Int_Tables_number       1
_symmetry_cell_setting            triclinic
loop_
_symmetry_equiv_pos_as_xyz
'x, y, z'
_cell_length_a     41.792559
_cell_length_b     24.410641
_cell_length_c     24.906612
_cell_angle_alpha  90.02609
_cell_angle_beta   90.116709
_cell_angle_gamma 90.002797
loop_
_atom_site_label
_atom_site_type_symbol
_atom_site_fract_x
_atom_site_fract_y
_atom_site_fract_z
_atom_type_partial_charge
Mg0 Mg 0.15607 0.19105 0.10005 0.0
C1 C 0.12826 0.27453 0.17675 0.0
O2 O 0.15414 0.26171 0.20399 0.0
C3 C 0.17711 0.24687 0.99438 0.0
O4 O 0.15033 0.27456 0.99952 0.0
C5 C 0.0955 0.14027 0.06188 0.0
O6 O 0.09046 0.19277 0.05393 0.0
O7 O 0.12253 0.1252 0.08047 0.0
O8 O 0.12521 0.25641 0.12912 0.0
O9 O 0.1882 0.16972 0.16597 0.0
C10 C 0.2165 0.18898 0.16591 0.0
O11 O 0.22606 0.2175 0.1242 0.0
O12 O 0.18451 0.21146 0.0297 0.0
Mg13 Mg 0.37536 0.29737 0.59647 0.0
C14 C 0.41188 0.2076 0.65739 0.0
O15 O 0.3845 0.20013 0.68216 0.0
C16 C 0.34928 0.22828 0.5023 0.0
O17 O 0.36763 0.18979 0.52264 0.0
C18 C 0.41745 0.3749 0.5368 0.0
O19 O 0.41364 0.33555 0.50134 0.0
O20 O 0.40235 0.37198 0.58104 0.0
O21 O 0.41317 0.24076 0.61811 0.0
O22 O 0.3428 0.30599 0.66423 0.0
C23 C 0.31887 0.2739 0.66714 0.0
O24 O 0.31439 0.23791 0.6286 0.0
O25 O 0.34849 0.27507 0.52472 0.0
Mg26 Mg 0.64858 0.29959 0.92793 0.0
C27 C 0.61062 0.20959 0.87067 0.0
O28 O 0.638 0.20002 0.84658 0.0
C29 C 0.69803 0.24386 1.00171 0.0
O30 O 0.70718 0.22036 0.95682 0.0
C31 C 0.60788 0.37908 0.98728 0.0
O32 O 0.61159 0.33974 0.02275 0.0
O33 O 0.62261 0.37551 0.94272 0.0
O34 O 0.60965 0.24438 0.90863 0.0
O35 O 0.67917 0.30403 0.85706 0.0
C36 C 0.7084 0.3186 0.85703 0.0
O37 O 0.72182 0.33403 0.90233 0.0
O38 O 0.67449 0.2769 1.00075 0.0
Mg39 Mg 0.87247 0.19662 0.43301 0.0
C40 C 0.92543 0.22269 0.36579 0.0
O41 O 0.91451 0.17443 0.35119 0.0
C42 C 0.83572 0.26839 0.51515 0.0
O43 O 0.83572 0.30508 0.47656 0.0
C44 C 0.91462 0.11887 0.49282 0.0
O45 O 0.91154 0.15864 0.528 0.0
O46 O 0.89866 0.12119 0.44931 0.0
O47 O 0.91087 0.24831 0.40295 0.0
O48 O 0.83781 0.18837 0.36755 0.0
C49 C 0.83521 0.229 0.33578 0.0
O50 O 0.85242 0.27299 0.34531 0.0
O51 O 0.84945 0.22257 0.50739 0.0
Mg52 Mg 0.87773 0.78501 0.93403 0.0
C53 C 0.83317 0.75575 0.84454 0.0
O54 O 0.84311 0.70735 0.86056 0.0
C55 C 0.91523 0.87122 0.99627 0.0
O56 O 0.90391 0.84328 0.03712 0.0
C57 C 0.8239 0.74915 1.00776 0.0
O58 O 0.80771 0.75373 0.96273 0.0
O59 O 0.85381 0.75882 1.00746 0.0
O60 O 0.84352 0.79807 0.86887 0.0
O61 O 0.91225 0.72534 0.90539 0.0
C62 C 0.94014 0.72633 0.92576 0.0
O63 O 0.9454 0.75756 0.96782 0.0
O64 O 0.90664 0.858 0.94895 0.0
Mg65 Mg 0.64807 0.71436 0.43166 0.0
C66 C 0.69474 0.73644 0.34744 0.0
O67 O 0.68492 0.78485 0.36362 0.0
C68 C 0.58858 0.65893 0.46667 0.0
O69 O 0.58083 0.71106 0.46777 0.0
C70 C 0.70163 0.74733 0.50617 0.0
O71 O 0.71786 0.73014 0.46435 0.0
O72 O 0.67119 0.74766 0.50366 0.0
O73 O 0.68383 0.69418 0.37112 0.0
O74 O 0.61685 0.76814 0.38596 0.0
C75 C 0.60128 0.81172 0.39566 0.0
O76 O 0.60318 0.83469 0.44326 0.0
O77 O 0.61706 0.64584 0.45375 0.0
Mg78 Mg 0.37718 0.71678 0.09779 0.0
C79 C 0.32059 0.73176 0.16619 0.0
O80 O 0.32238 0.77775 0.13894 0.0
C81 C 0.43761 0.66322 0.06316 0.0
O82 O 0.4454 0.71533 0.06451 0.0
C83 C 0.3284 0.72838 1.01227 0.0
O84 O 0.31763 0.68751 0.04141 0.0
O85 O 0.35438 0.75153 0.02648 0.0
O86 O 0.34042 0.69377 0.15541 0.0
O87 O 0.40657 0.77066 0.14658 0.0
C88 C 0.42261 0.81381 0.13719 0.0
O89 O 0.42211 0.8356 0.08897 0.0
O90 O 0.40898 0.64967 0.0746 0.0
Mg91 Mg 0.14972 0.78878 0.59544 0.0
C92 C 0.20721 0.77325 0.66619 0.0
O93 O 0.21011 0.73174 0.63295 0.0
C94 C 0.09226 0.84463 0.5544 0.0
O95 O 0.08619 0.79233 0.54714 0.0
C96 C 0.2 0.7789 0.51084 0.0
O97 O 0.21178 0.81806 0.54123 0.0
O98 O 0.17346 0.75724 0.52396 0.0
O99 O 0.18422 0.8067 0.65916 0.0
O100 O 0.1148 0.73323 0.62977 0.0
C101 C 0.11889 0.70243 0.67033 0.0
O102 O 0.14786 0.69542 0.68968 0.0
O103 O 0.11949 0.85836 0.57323 0.0
C104 C 0.30272 0.3108 0.75737 0.0
C105 C 0.29722 0.2748 0.71437 0.0
C106 C 0.28312 0.30996 0.80322 0.0
C107 C 0.25744 0.27221 0.80616 0.0
C108 C 0.25142 0.23653 0.76246 0.0
C109 C 0.27134 0.23828 0.71718 0.0
C110 C 0.29028 0.3487 0.84896 0.0
C111 C 0.2243 0.19566 0.76397 0.0
C112 C 0.22678 0.22553 0.94224 0.0
C113 C 0.19823 0.2554 0.9472 0.0
C114 C 0.24653 0.23147 0.89709 0.0
C115 C 0.23761 0.26821 0.85572 0.0
C116 C 0.20914 0.29926 0.86086 0.0
C117 C 0.18979 0.29249 0.90652 0.0
C118 C 0.27669 0.1976 0.89321 0.0
C119 C 0.19884 0.33891 0.81765 0.0
H120 H 0.32262 0.33921 0.75558 0.0
H121 H 0.26681 0.21037 0.68418 0.0
H122 H 0.26867 0.37303 0.85894 0.0
H123 H 0.29684 0.32499 0.88534 0.0
H124 H 0.31016 0.37729 0.83944 0.0
H125 H 0.22206 0.17223 0.7259 0.0
H126 H 0.22816 0.16626 0.79733 0.0
H127 H 0.20134 0.21699 0.77177 0.0
H128 H 0.23363 0.19692 0.97348 0.0
H129 H 0.16784 0.31585 0.90999 0.0
H130 H 0.2977 0.22463 0.88705 0.0
H131 H 0.27518 0.16987 0.85798 0.0
H132 H 0.28087 0.17242 0.9297 0.0
H133 H 0.21824 0.36879 0.80956 0.0
H134 H 0.17684 0.36176 0.82875 0.0
H135 H 0.19425 0.31637 0.77972 0.0
C136 C 0.26862 0.20504 0.21294 0.0
C137 C 0.23706 0.18545 0.21447 0.0
C138 C 0.28742 0.20763 0.25964 0.0
C139 C 0.27436 0.19043 0.30926 0.0
C140 C 0.24295 0.16866 0.31077 0.0
C141 C 0.22469 0.16631 0.26334 0.0
C142 C 0.32087 0.23078 0.25619 0.0
C143 C 0.22816 0.14993 0.36288 0.0
C144 C 0.33181 0.16758 0.42615 0.0
C145 C 0.32964 0.21767 0.45361 0.0
C146 C 0.31367 0.15774 0.37947 0.0
C147 C 0.29281 0.19889 0.3599 0.0
C148 C 0.29021 0.24921 0.38786 0.0
C149 C 0.30866 0.25801 0.43422 0.0
C150 C 0.31715 0.10363 0.35071 0.0
C151 C 0.26817 0.29411 0.36846 0.0
H152 H 0.27847 0.21963 0.17535 0.0
H153 H 0.20033 0.15116 0.26496 0.0
H154 H 0.32211 0.26994 0.27874 0.0
H155 H 0.33826 0.20225 0.27496 0.0
H156 H 0.32833 0.23855 0.2141 0.0
H157 H 0.20452 0.13007 0.35668 0.0
H158 H 0.24425 0.12062 0.38364 0.0
H159 H 0.22494 0.18561 0.38995 0.0
H160 H 0.34791 0.13613 0.44081 0.0
H161 H 0.30668 0.29677 0.4552 0.0
H162 H 0.32637 0.11059 0.30953 0.0
H163 H 0.29346 0.08353 0.34667 0.0
H164 H 0.33366 0.07526 0.37195 0.0
H165 H 0.27556 0.30775 0.32785 0.0
H166 H 0.26818 0.3302 0.39565 0.0
H167 H 0.24334 0.2784 0.36512 0.0
C168 C 0.79233 0.18388 0.27991 0.0
C169 C 0.81403 0.22703 0.28783 0.0
C170 C 0.77226 0.18248 0.23441 0.0
C171 C 0.77418 0.22493 0.19574 0.0
C172 C 0.79623 0.26827 0.2034 0.0
C173 C 0.81571 0.2689 0.24932 0.0
C174 C 0.74889 0.13581 0.22786 0.0
C175 C 0.79928 0.31412 0.16299 0.0
C176 C 0.74493 0.20522 0.05219 0.0
C177 C 0.71618 0.23494 0.05235 0.0
C178 C 0.76353 0.19999 0.09902 0.0
C179 C 0.75307 0.2248 0.14733 0.0
C180 C 0.72351 0.25313 0.14821 0.0
C181 C 0.70549 0.258 0.10075 0.0
C182 C 0.79497 0.16966 0.09629 0.0
C183 C 0.71138 0.27988 0.19892 0.0
H184 H 0.79083 0.15141 0.30945 0.0
H185 H 0.8325 0.30229 0.25482 0.0
H186 H 0.72411 0.15203 0.22578 0.0
H187 H 0.75351 0.11396 0.18959 0.0
H188 H 0.75037 0.10592 0.26138 0.0
H189 H 0.81799 0.34431 0.17441 0.0
H190 H 0.80525 0.29712 0.12293 0.0
H191 H 0.77611 0.33595 0.15903 0.0
H192 H 0.7534 0.18716 1.01508 0.0
H193 H 0.68322 0.28075 0.10145 0.0
H194 H 0.79619 0.13811 0.12826 0.0
H195 H 0.81498 0.1987 0.10331 0.0
H196 H 0.79864 0.14944 0.05681 0.0
H197 H 0.71137 0.24999 0.23246 0.0
H198 H 0.68681 0.29653 0.19407 0.0
H199 H 0.72757 0.31392 0.21053 0.0
C200 C 0.71313 0.29783 0.75867 0.0
C201 C 0.72742 0.31562 0.80669 0.0
C202 C 0.73103 0.2925 0.71126 0.0
C203 C 0.76409 0.30525 0.71165 0.0
C204 C 0.77857 0.32413 0.7597 0.0
C205 C 0.76009 0.32907 0.8066 0.0
C206 C 0.71465 0.27224 0.66093 0.0
C207 C 0.81372 0.33822 0.76178 0.0
C208 C 0.81571 0.23728 0.60499 0.0
C209 C 0.81856 0.27891 0.5664 0.0
C210 C 0.7984 0.24557 0.6526 0.0
C211 C 0.78367 0.29688 0.66223 0.0
C212 C 0.78693 0.33943 0.62397 0.0
C213 C 0.80425 0.3299 0.57647 0.0
C214 C 0.79542 0.19903 0.69222 0.0
C215 C 0.77177 0.39481 0.63289 0.0
H216 H 0.68793 0.28739 0.75818 0.0
H217 H 0.77138 0.34289 0.8434 0.0
H218 H 0.71807 0.30205 0.62782 0.0
H219 H 0.72556 0.23297 0.64796 0.0
H220 H 0.68858 0.26573 0.6668 0.0
H221 H 0.82109 0.35445 0.80161 0.0
H222 H 0.82818 0.30121 0.75286 0.0
H223 H 0.81948 0.36919 0.73067 0.0
H224 H 0.82663 0.19771 0.5977 0.0
H225 H 0.80637 0.36239 0.54706 0.0
H226 H 0.76987 0.1877 0.69701 0.0
H227 H 0.80436 0.21204 0.73221 0.0
H228 H 0.80893 0.16209 0.67941 0.0
H229 H 0.74539 0.39039 0.63533 0.0
H230 H 0.77751 0.42421 0.60027 0.0
H231 H 0.78 0.41232 0.67164 0.0
C232 C 0.8236 0.73517 0.10768 0.0
C233 C 0.80694 0.73722 0.05874 0.0
C234 C 0.80726 0.72883 0.15657 0.0
C235 C 0.77345 0.72471 0.15651 0.0
C236 C 0.75666 0.72434 0.10708 0.0
C237 C 0.77359 0.73047 0.05886 0.0
C238 C 0.82604 0.729 0.2084 0.0
C239 C 0.72061 0.7202 0.10521 0.0
C240 C 0.72669 0.68143 0.28078 0.0
C241 C 0.71673 0.73235 0.30091 0.0
C242 C 0.74598 0.67812 0.23459 0.0
C243 C 0.75531 0.72682 0.20791 0.0
C244 C 0.74593 0.77824 0.22887 0.0
C245 C 0.7269 0.78035 0.27505 0.0
C246 C 0.75574 0.62258 0.21363 0.0
C247 C 0.75525 0.83119 0.20164 0.0
H248 H 0.84939 0.73998 0.108 0.0
H249 H 0.76048 0.73162 0.02129 0.0
H250 H 0.82108 0.76738 0.23078 0.0
H251 H 0.81855 0.69437 0.23432 0.0
H252 H 0.85223 0.72615 0.20143 0.0
H253 H 0.71139 0.71582 0.06356 0.0
H254 H 0.71232 0.68469 0.12921 0.0
H255 H 0.70994 0.75755 0.12321 0.0
H256 H 0.71903 0.64417 0.30059 0.0
H257 H 0.71946 0.81993 0.29029 0.0
H258 H 0.78204 0.62097 0.20788 0.0
H259 H 0.74452 0.61539 0.17385 0.0
H260 H 0.74856 0.58892 0.24108 0.0
H261 H 0.78163 0.83355 0.19733 0.0
H262 H 0.74696 0.86783 0.22413 0.0
H263 H 0.74482 0.83256 0.16066 0.0
C264 C 0.75238 0.76297 0.55708 0.0
C265 C 0.71884 0.75996 0.55693 0.0
C266 C 0.76963 0.76807 0.6052 0.0
C267 C 0.75302 0.77011 0.65462 0.0
C268 C 0.7191 0.76985 0.65465 0.0
C269 C 0.70239 0.76486 0.60576 0.0
C270 C 0.80576 0.76857 0.60323 0.0
C271 C 0.70051 0.77214 0.70649 0.0
C272 C 0.79926 0.7127 0.77328 0.0
C273 C 0.81096 0.7603 0.79809 0.0
C274 C 0.77959 0.71554 0.72766 0.0
C275 C 0.77133 0.76729 0.70603 0.0
C276 C 0.7823 0.81562 0.73165 0.0
C277 C 0.802 0.81156 0.77741 0.0
C278 C 0.76839 0.66296 0.70168 0.0
C279 C 0.77398 0.87152 0.70986 0.0
H280 H 0.76533 0.75977 0.51955 0.0
H281 H 0.67648 0.76268 0.60605 0.0
H282 H 0.81532 0.80356 0.62672 0.0
H283 H 0.81521 0.73049 0.6217 0.0
H284 H 0.81497 0.7714 0.56151 0.0
H285 H 0.67444 0.77762 0.6995 0.0
H286 H 0.70419 0.73355 0.72919 0.0
H287 H 0.70928 0.80619 0.7321 0.0
H288 H 0.80585 0.67288 0.78904 0.0
H289 H 0.81084 0.84858 0.79638 0.0
H290 H 0.77866 0.65952 0.66077 0.0
H291 H 0.74197 0.66316 0.69736 0.0
H292 H 0.77548 0.62615 0.72507 0.0
H293 H 0.78515 0.87703 0.66986 0.0
H294 H 0.78229 0.90504 0.73666 0.0
H295 H 0.74773 0.87526 0.70432 0.0
C296 C 0.32457 0.78095 0.92544 0.0
C297 C 0.31104 0.74456 0.96264 0.0
C298 C 0.309 0.7927 0.87656 0.0
C299 C 0.27922 0.76758 0.86477 0.0
C300 C 0.26499 0.73243 0.9031 0.0
C301 C 0.28105 0.72136 0.95137 0.0
C302 C 0.32488 0.83053 0.83681 0.0
C303 C 0.23321 0.70495 0.89238 0.0
C304 C 0.22268 0.81602 0.75448 0.0
C305 C 0.22819 0.77678 0.71432 0.0
C306 C 0.24024 0.81537 0.80278 0.0
C307 C 0.26378 0.77446 0.81113 0.0
C308 C 0.27044 0.73643 0.76969 0.0
C309 C 0.25263 0.73811 0.72189 0.0
C310 C 0.23255 0.85685 0.84581 0.0
C311 C 0.29532 0.69214 0.77683 0.0
H312 H 0.34769 0.79917 0.93385 0.0
H313 H 0.27022 0.69359 0.98001 0.0
H314 H 0.33198 0.80699 0.80062 0.0
H315 H 0.30789 0.86273 0.82353 0.0
H316 H 0.34653 0.85053 0.85381 0.0
H317 H 0.22452 0.68128 0.92753 0.0
H318 H 0.21488 0.73595 0.88163 0.0
H319 H 0.2355 0.6766 0.85775 0.0
H320 H 0.20395 0.84621 0.74897 0.0
H321 H 0.25728 0.70783 0.69103 0.0
H322 H 0.25481 0.87581 0.86148 0.0
H323 H 0.22066 0.83603 0.87997 0.0
H324 H 0.21647 0.88976 0.83087 0.0
H325 H 0.31835 0.71018 0.79026 0.0
H326 H 0.29951 0.66867 0.73927 0.0
H327 H 0.28742 0.66314 0.80845 0.0
C328 C 0.27608 0.76948 0.22168 0.0
C329 C 0.29876 0.72807 0.21297 0.0
C330 C 0.25822 0.77161 0.26925 0.0
C331 C 0.26314 0.73136 0.30932 0.0
C332 C 0.28472 0.68771 0.29962 0.0
C333 C 0.30227 0.68652 0.25146 0.0
C334 C 0.23531 0.81868 0.27774 0.0
C335 C 0.29054 0.64392 0.34126 0.0
C336 C 0.2478 0.78232 0.45087 0.0
C337 C 0.21691 0.76244 0.46103 0.0
C338 C 0.26354 0.77059 0.40253 0.0
C339 C 0.24799 0.73838 0.36303 0.0
C340 C 0.21722 0.71665 0.37366 0.0
C341 C 0.20206 0.72882 0.42264 0.0
C342 C 0.29645 0.79427 0.39304 0.0
C343 C 0.19986 0.68221 0.33254 0.0
H344 H 0.27296 0.8015 0.19199 0.0
H345 H 0.31971 0.65432 0.24506 0.0
H346 H 0.21159 0.8032 0.29065 0.0
H347 H 0.24449 0.84564 0.31018 0.0
H348 H 0.23209 0.84372 0.24089 0.0
H349 H 0.30498 0.60943 0.32519 0.0
H350 H 0.30347 0.66193 0.37599 0.0
H351 H 0.26751 0.62756 0.35645 0.0
H352 H 0.25962 0.8079 0.48047 0.0
H353 H 0.17821 0.7132 0.43019 0.0
H354 H 0.29545 0.82414 0.3595 0.0
H355 H 0.31337 0.76142 0.38123 0.0
H356 H 0.3061 0.8154 0.42912 0.0
H357 H 0.19384 0.70776 0.2971 0.0
H358 H 0.17739 0.6644 0.34869 0.0
H359 H 0.21546 0.64844 0.31835 0.0
C360 C 0.07051 0.30172 0.1781 0.0
C361 C 0.09948 0.29417 0.20571 0.0
C362 C 0.04135 0.30419 0.20591 0.0
C363 C 0.04122 0.2984 0.26248 0.0
C364 C 0.07062 0.29745 0.2908 0.0
C365 C 0.09945 0.29575 0.26205 0.0
C366 C 1.01059 0.30672 0.17417 0.0
C367 C 0.07168 0.29139 0.3511 0.0
C368 C 0.96272 0.29968 0.34077 0.0
C369 C 0.95507 0.24374 0.34089 0.0
C370 C 0.99063 0.31868 0.31509 0.0
C371 C 1.01141 0.28061 0.29002 0.0
C372 C 1.00391 0.22405 0.29102 0.0
C373 C 0.9758 0.2065 0.31601 0.0
C374 C 0.99757 0.37931 0.3139 0.0
C375 C 0.02556 0.18174 0.26559 0.0
H376 H 0.0703 0.30159 0.13457 0.0
H377 H 0.12173 0.29078 0.28388 0.0
H378 H 1.00049 0.26484 0.17039 0.0
H379 H 0.99259 0.33254 0.19487 0.0
H380 H 1.01453 0.32316 0.13313 0.0
H381 H 0.09556 0.30217 0.36768 0.0
H382 H 0.05334 0.31745 0.37059 0.0
H383 H 0.06643 0.24818 0.36183 0.0
H384 H 0.94661 0.32859 0.35974 0.0
H385 H 0.97022 0.16313 0.31644 0.0
H386 H 0.99686 0.39414 0.27181 0.0
H387 H 0.02198 0.38757 0.32951 0.0
H388 H 0.98006 0.40323 0.33786 0.0
H389 H 0.02755 0.18947 0.22183 0.0
H390 H 0.0167 0.13926 0.27147 0.0
H391 H 0.04998 0.18471 0.28293 0.0
C392 C 0.47096 0.21502 0.66946 0.0
C393 C 0.44212 0.18891 0.68266 0.0
C394 C 0.49859 0.2072 0.70047 0.0
C395 C 0.49768 0.17109 0.74493 0.0
C396 C 0.46954 0.1406 0.75534 0.0
C397 C 0.44188 0.15047 0.72454 0.0
C398 C 0.52791 0.24117 0.68823 0.0
C399 C 0.46803 0.10006 0.80097 0.0
C400 C 0.58016 0.15045 0.80576 0.0
C401 C 0.58025 0.19082 0.8459 0.0
C402 C 0.55245 0.13995 0.77527 0.0
C403 C 0.52461 0.17172 0.78417 0.0
C404 C 0.52402 0.20998 0.82692 0.0
C405 C 0.55168 0.21845 0.8577 0.0
C406 C 0.55362 0.09722 0.73153 0.0
C407 C 0.49502 0.24534 0.83747 0.0
H408 H 0.47148 0.24466 0.63708 0.0
H409 H 0.41979 0.1296 0.73458 0.0
H410 H 0.5322 0.27057 0.7215 0.0
H411 H 0.54936 0.21466 0.68515 0.0
H412 H 0.52541 0.26468 0.65027 0.0
H413 H 0.44737 0.07173 0.79669 0.0
H414 H 0.49038 0.07562 0.80326 0.0
H415 H 0.46546 0.12241 0.8395 0.0
H416 H 0.60204 0.12845 0.79681 0.0
H417 H 0.55142 0.24961 0.88872 0.0
H418 H 0.55648 0.11762 0.69205 0.0
H419 H 0.53103 0.07337 0.73021 0.0
H420 H 0.57398 0.06852 0.73721 0.0
H421 H 0.49099 0.27308 0.80281 0.0
H422 H 0.49776 0.27072 0.87424 0.0
H423 H 0.47333 0.2196 0.84184 0.0
C424 C 0.06184 0.71561 0.69582 0.0
C425 C 0.09067 0.68701 0.70288 0.0
C426 C 0.03694 0.711 0.73306 0.0
C427 C 0.04046 0.67545 0.77759 0.0
C428 C 0.06823 0.64251 0.78215 0.0
C429 C 0.09333 0.64939 0.7452 0.0
C430 C 1.00802 0.7477 0.72699 0.0
C431 C 0.07224 0.60233 0.82768 0.0
C432 C 0.99762 0.7289 0.90036 0.0
C433 C 0.96748 0.70429 0.89495 0.0
C434 C 0.02229 0.71738 0.86408 0.0
C435 C 0.01703 0.67894 0.82236 0.0
C436 C 0.98765 0.65013 0.81981 0.0
C437 C 0.96294 0.66389 0.8556 0.0
C438 C 0.05299 0.7499 0.86776 0.0
C439 C 0.98162 0.60718 0.77741 0.0
H440 H 0.05949 0.74475 0.66321 0.0
H441 H 0.1154 0.62669 0.75053 0.0
H442 H 0.98571 0.72325 0.72867 0.0
H443 H 1.00731 0.77743 0.76071 0.0
H444 H 1.00826 0.77098 0.68867 0.0
H445 H 0.09137 0.57196 0.81919 0.0
H446 H 0.07875 0.62474 0.86487 0.0
H447 H 0.04952 0.58018 0.83547 0.0
H448 H 1.00129 0.76024 0.9306 0.0
H449 H 0.93976 0.64432 0.85164 0.0
H450 H 0.05515 0.77688 0.83207 0.0
H451 H 0.07396 0.72212 0.86786 0.0
H452 H 0.05401 0.77585 0.90438 0.0
H453 H 0.97627 0.62742 0.73856 0.0
H454 H 0.961 0.58056 0.78795 0.0
H455 H 1.00311 0.58115 0.77158 0.0
C456 C 0.44664 0.80597 0.22855 0.0
C457 C 0.44574 0.83262 0.17862 0.0
C458 C 0.47174 0.81481 0.26482 0.0
C459 C 0.4964 0.85208 0.25145 0.0
C460 C 0.49411 0.88301 0.20346 0.0
C461 C 0.46889 0.8726 0.16727 0.0
C462 C 0.47319 0.78062 0.31537 0.0
C463 C 0.51937 0.92443 0.18863 0.0
C464 C 0.55501 0.87127 0.36685 0.0
C465 C 0.5776 0.83046 0.35511 0.0
C466 C 0.5296 0.88234 0.33122 0.0
C467 C 0.52655 0.85124 0.28341 0.0
C468 C 0.55054 0.8128 0.26978 0.0
C469 C 0.57583 0.80332 0.30547 0.0
C470 C 0.50505 0.9249 0.34633 0.0
C471 C 0.54826 0.77841 0.21941 0.0
H472 H 0.42859 0.77567 0.23827 0.0
H473 H 0.46821 0.89395 0.12914 0.0
H474 H 0.49336 0.75118 0.3125 0.0
H475 H 0.47763 0.80694 0.35088 0.0
H476 H 0.4508 0.7571 0.32214 0.0
H477 H 0.51074 0.95313 0.15717 0.0
H478 H 0.52697 0.94838 0.22432 0.0
H479 H 0.54075 0.90282 0.17295 0.0
H480 H 0.55636 0.89295 0.40477 0.0
H481 H 0.59343 0.77236 0.29544 0.0
H482 H 0.48343 0.90429 0.36236 0.0
H483 H 0.49762 0.94905 0.31068 0.0
H484 H 0.51427 0.95333 0.37758 0.0
H485 H 0.5274 0.75043 0.22238 0.0
H486 H 0.57007 0.75331 0.21272 0.0
H487 H 0.54446 0.80483 0.18378 0.0
C488 C 0.0385 0.11933 0.03909 0.0
C489 C 0.06942 0.10036 0.05115 0.0
C490 C 1.01316 0.08281 0.02976 0.0
C491 C 0.01879 0.0257 0.03205 0.0
C492 C 0.04998 0.00615 0.04377 0.0
C493 C 0.0749 0.04371 0.05344 0.0
C494 C 0.98025 0.10541 0.01787 0.0
C495 C 0.05698 0.94553 0.04618 0.0
C496 C 0.94782 0.93134 0.05697 0.0
C497 C 0.94062 0.91291 1.00495 0.0
C498 C 0.9731 0.96812 0.06632 0.0
C499 C 0.9919 0.98659 0.02267 0.0
C500 C 0.98465 0.96839 0.97002 0.0
C501 C 0.95902 0.93204 0.96176 0.0
C502 C 0.97977 0.98707 0.12298 0.0
C503 C 1.00422 0.98687 0.92245 0.0
H504 H 0.03392 0.163 0.03748 0.0
H505 H 0.09869 0.02868 0.06263 0.0
H506 H 0.97179 0.09037 0.97827 0.0
H507 H 0.96299 0.09071 0.04843 0.0
H508 H 0.97984 0.15091 0.01753 0.0
H509 H 0.08259 0.93693 0.05476 0.0
H510 H 0.04221 0.92608 0.07784 0.0
H511 H 0.05045 0.92589 1.00749 0.0
H512 H 0.93374 0.91683 0.09059 0.0
H513 H 0.95384 0.91769 0.92148 0.0
H514 H 0.97828 0.0324 0.1252 0.0
H515 H 1.00443 0.97535 0.13488 0.0
H516 H 0.96274 0.96935 0.15242 0.0
H517 H 1.00331 0.03215 0.91893 0.0
H518 H 0.99566 0.96866 0.88415 0.0
H519 H 0.02966 0.97532 0.92838 0.0
C520 C 0.57213 0.56228 0.48838 0.0
C521 C 0.56383 0.61696 0.47818 0.0
C522 C 0.54846 0.5228 0.49931 0.0
C523 C 0.51575 0.53824 0.49913 0.0
C524 C 0.5073 0.59332 0.48858 0.0
C525 C 0.53141 0.63199 0.47866 0.0
C526 C 0.55843 0.46458 0.51104 0.0
C527 C 0.47273 0.61136 0.48713 0.0
C528 C 0.45316 0.42768 0.47515 0.0
C529 C 0.44136 0.4187 0.5271 0.0
C530 C 0.47722 0.4666 0.46549 0.0
C531 C 0.49022 0.49674 0.50895 0.0
C532 C 0.47835 0.48799 0.56151 0.0
C533 C 0.45387 0.44941 0.5699 0.0
C534 C 0.48876 0.47541 0.40872 0.0
C535 C 0.4918 0.5189 0.60898 0.0
H536 H 0.59712 0.55042 0.48828 0.0
H537 H 0.52472 0.67406 0.47045 0.0
H538 H 0.54893 0.45166 0.55063 0.0
H539 H 0.54813 0.4366 0.48044 0.0
H540 H 0.58484 0.45953 0.51127 0.0
H541 H 0.47016 0.6557 0.47809 0.0
H542 H 0.4595 0.58768 0.45619 0.0
H543 H 0.46118 0.60288 0.52631 0.0
H544 H 0.44356 0.40421 0.44186 0.0
H545 H 0.4451 0.44234 0.61023 0.0
H546 H 0.51471 0.46627 0.40607 0.0
H547 H 0.48551 0.51895 0.39715 0.0
H548 H 0.47585 0.44927 0.37928 0.0
H549 H 0.51793 0.51146 0.61219 0.0
H550 H 0.48034 0.50674 0.64738 0.0
H551 H 0.4884 0.56357 0.6032 0.0
C552 C 0.45412 0.56722 0.03883 0.0
C553 C 0.46239 0.62168 0.05026 0.0
C554 C 0.47778 0.52806 0.02682 0.0
C555 C 0.51049 0.54356 0.02704 0.0
C556 C 0.51891 0.59845 0.03862 0.0
C557 C 0.49481 0.63682 0.04971 0.0
C558 C 0.46782 0.47004 1.01411 0.0
C559 C 0.55347 0.61656 0.04006 0.0
C560 C 0.57279 0.43228 0.04957 0.0
C561 C 0.58441 0.4235 0.99746 0.0
C562 C 0.54894 0.47145 0.05974 0.0
C563 C 0.53601 0.50217 0.01666 0.0
C564 C 0.54779 0.49381 0.96397 0.0
C565 C 0.57203 0.45487 0.95505 0.0
C566 C 0.53748 0.47975 0.11664 0.0
C567 C 0.53443 0.52541 0.9169 0.0
H568 H 0.42915 0.55525 0.03896 0.0
H569 H 0.50149 0.67872 0.05878 0.0
H570 H 0.47739 0.4577 0.97438 0.0
H571 H 0.47804 0.44159 0.04434 0.0
H572 H 0.4414 0.465 1.01366 0.0
H573 H 0.55602 0.66085 0.04942 0.0
H574 H 0.56674 0.59271 0.07079 0.0
H575 H 0.56499 0.60835 1.00079 0.0
H576 H 0.58228 0.40833 0.0826 0.0
H577 H 0.58068 0.448 0.91461 0.0
H578 H 0.51154 0.47053 0.11928 0.0
H579 H 0.54073 0.52318 0.12864 0.0
H580 H 0.55043 0.45335 0.14579 0.0
H581 H 0.50833 0.51788 0.91337 0.0
H582 H 0.54602 0.51392 0.87841 0.0
H583 H 0.53773 0.57001 0.92343 0.0
C584 C 0.07363 0.94133 0.53816 0.0
C585 C 0.06669 0.88547 0.54402 0.0
C586 C 0.04909 0.9796 0.52836 0.0
C587 C 0.01684 0.96165 0.52549 0.0
C588 C 1.00977 0.90535 0.53179 0.0
C589 C 0.03475 0.868 0.54048 0.0
C590 C 0.05762 0.0392 0.52102 0.0
C591 C 0.97573 0.88457 0.53008 0.0
C592 C 0.95074 0.06503 0.55302 0.0
C593 C 0.93934 0.07618 0.50117 0.0
C594 C 0.9758 0.02767 0.5615 0.0
C595 C 0.99033 0.00164 0.51694 0.0
C596 C 0.97892 0.01276 0.46444 0.0
C597 C 0.95334 0.04947 0.45722 0.0
C598 C 0.98674 0.01605 0.61819 0.0
C599 C 0.99406 0.98649 0.41583 0.0
H600 H 0.09826 0.95504 0.54067 0.0
H601 H 0.0291 0.82496 0.54546 0.0
H602 H 0.04836 0.05411 0.48188 0.0
H603 H 0.04613 0.06417 0.55282 0.0
H604 H 0.08386 0.04629 0.52253 0.0
H605 H 0.97425 0.83955 0.53613 0.0
H606 H 0.96136 0.90504 0.56169 0.0
H607 H 0.9646 0.89477 0.49088 0.0
H608 H 0.94 0.08557 0.58712 0.0
H609 H 0.94495 0.05852 0.41697 0.0
H610 H 1.01231 0.02728 0.62285 0.0
H611 H 0.98468 0.97159 0.62677 0.0
H612 H 0.97259 0.03896 0.64851 0.0
H613 H 0.01999 0.99617 0.41476 0.0
H614 H 0.98295 0.00051 0.37767 0.0
H615 H 0.9918 0.94129 0.41832 0.0
loop_
_geom_bond_atom_site_label_1
_geom_bond_atom_site_label_2
_geom_bond_distance
_geom_bond_site_symmetry_2
_ccdc_geom_bond_type
Mg0 O7 2.141 . S
Mg0 O8 2.048 . S
Mg0 O9 2.048 . S
Mg0 O12 2.141 . S
C1 O2 1.313 . S
C1 O8 1.195 . S
O2 C1 1.313 . S
C3 O4 1.245 . S
C3 O12 1.289 . S
O4 C3 1.245 . S
C5 O6 1.245 . S
C5 O7 1.289 . S
O6 C5 1.245 . S
O7 Mg0 2.141 . S
O7 C5 1.289 . S
O8 Mg0 2.048 . S
O8 C1 1.195 . S
O9 Mg0 2.048 . S
O9 C10 1.195 . S
C10 O9 1.195 . S
C10 O11 1.313 . S
O11 C10 1.313 . S
O12 Mg0 2.141 . S
O12 C3 1.289 . S
Mg13 O20 2.141 . S
Mg13 O21 2.048 . S
Mg13 O22 2.048 . S
Mg13 O25 2.141 . S
C14 O15 1.313 . S
C14 O21 1.195 . S
O15 C14 1.313 . S
C16 O17 1.245 . S
C16 O25 1.289 . S
O17 C16 1.245 . S
C18 O19 1.245 . S
C18 O20 1.289 . S
O19 C18 1.245 . S
O20 Mg13 2.141 . S
O20 C18 1.289 . S
O21 Mg13 2.048 . S
O21 C14 1.195 . S
O22 Mg13 2.048 . S
O22 C23 1.195 . S
C23 O22 1.195 . S
C23 O24 1.313 . S
O24 C23 1.313 . S
O25 Mg13 2.141 . S
O25 C16 1.289 . S
Mg26 O33 2.141 . S
Mg26 O34 2.048 . S
Mg26 O35 2.048 . S
Mg26 O38 2.141 . S
C27 O28 1.313 . S
C27 O34 1.195 . S
O28 C27 1.313 . S
C29 O30 1.245 . S
C29 O38 1.289 . S
O30 C29 1.245 . S
C31 O32 1.245 . S
C31 O33 1.289 . S
O32 C31 1.245 . S
O33 Mg26 2.141 . S
O33 C31 1.289 . S
O34 Mg26 2.048 . S
O34 C27 1.195 . S
O35 Mg26 2.048 . S
O35 C36 1.195 . S
C36 O35 1.195 . S
C36 O37 1.313 . S
O37 C36 1.313 . S
O38 Mg26 2.141 . S
O38 C29 1.289 . S
Mg39 O46 2.141 . S
Mg39 O47 2.048 . S
Mg39 O48 2.048 . S
Mg39 O51 2.141 . S
C40 O41 1.313 . S
C40 O47 1.195 . S
O41 C40 1.313 . S
C42 O43 1.245 . S
C42 O51 1.289 . S
O43 C42 1.245 . S
C44 O45 1.245 . S
C44 O46 1.289 . S
O45 C44 1.245 . S
O46 Mg39 2.141 . S
O46 C44 1.289 . S
O47 Mg39 2.048 . S
O47 C40 1.195 . S
O48 Mg39 2.048 . S
O48 C49 1.195 . S
C49 O48 1.195 . S
C49 O50 1.313 . S
O50 C49 1.313 . S
O51 Mg39 2.141 . S
O51 C42 1.289 . S
Mg52 O59 2.141 . S
Mg52 O60 2.048 . S
Mg52 O61 2.048 . S
Mg52 O64 2.141 . S
C53 O54 1.313 . S
C53 O60 1.195 . S
O54 C53 1.313 . S
C55 O56 1.245 . S
C55 O64 1.289 . S
O56 C55 1.245 . S
C57 O58 1.245 . S
C57 O59 1.289 . S
O58 C57 1.245 . S
O59 Mg52 2.141 . S
O59 C57 1.289 . S
O60 Mg52 2.048 . S
O60 C53 1.195 . S
O61 Mg52 2.048 . S
O61 C62 1.195 . S
C62 O61 1.195 . S
C62 O63 1.313 . S
O63 C62 1.313 . S
O64 Mg52 2.141 . S
O64 C55 1.289 . S
Mg65 O72 2.141 . S
Mg65 O73 2.048 . S
Mg65 O74 2.048 . S
Mg65 O77 2.141 . S
C66 O67 1.313 . S
C66 O73 1.195 . S
O67 C66 1.313 . S
C68 O69 1.245 . S
C68 O77 1.289 . S
O69 C68 1.245 . S
C70 O71 1.245 . S
C70 O72 1.289 . S
O71 C70 1.245 . S
O72 Mg65 2.141 . S
O72 C70 1.289 . S
O73 Mg65 2.048 . S
O73 C66 1.195 . S
O74 Mg65 2.048 . S
O74 C75 1.195 . S
C75 O74 1.195 . S
C75 O76 1.313 . S
O76 C75 1.313 . S
O77 Mg65 2.141 . S
O77 C68 1.289 . S
Mg78 O85 2.141 . S
Mg78 O86 2.048 . S
Mg78 O87 2.048 . S
Mg78 O90 2.141 . S
C79 O80 1.313 . S
C79 O86 1.195 . S
O80 C79 1.313 . S
C81 O82 1.245 . S
C81 O90 1.289 . S
O82 C81 1.245 . S
C83 O84 1.245 . S
C83 O85 1.289 . S
O84 C83 1.245 . S
O85 Mg78 2.141 . S
O85 C83 1.289 . S
O86 Mg78 2.048 . S
O86 C79 1.195 . S
O87 Mg78 2.048 . S
O87 C88 1.195 . S
C88 O87 1.195 . S
C88 O89 1.313 . S
O89 C88 1.313 . S
O90 Mg78 2.141 . S
O90 C81 1.289 . S
Mg91 O98 2.141 . S
Mg91 O99 2.048 . S
Mg91 O100 2.048 . S
Mg91 O103 2.141 . S
C92 O93 1.313 . S
C92 O99 1.195 . S
O93 C92 1.313 . S
C94 O95 1.245 . S
C94 O103 1.289 . S
O95 C94 1.245 . S
C96 O97 1.245 . S
C96 O98 1.289 . S
O97 C96 1.245 . S
O98 Mg91 2.141 . S
O98 C96 1.289 . S
O99 Mg91 2.048 . S
O99 C92 1.195 . S
O100 Mg91 2.048 . S
O100 C101 1.195 . S
C101 O100 1.195 . S
C101 O102 1.313 . S
O102 C101 1.313 . S
O103 Mg91 2.141 . S
O103 C94 1.289 . S
C104 C105 1.391 . S
C104 C106 1.394 . S
C104 H120 0.931 . S
C105 C104 1.391 . S
C105 C109 1.376 . S
C106 C104 1.394 . S
C106 C107 1.369 . S
C106 C110 1.531 . S
C107 C106 1.369 . S
C107 C108 1.410 . S
C107 C115 1.503 . S
C108 C107 1.410 . S
C108 C109 1.392 . S
C108 C111 1.511 . S
C109 C105 1.376 . S
C109 C108 1.392 . S
C109 H121 0.929 . S
C110 C106 1.531 . S
C110 H122 0.960 . S
C110 H123 0.962 . S
C110 H124 0.960 . S
C111 C108 1.511 . S
C111 H125 0.961 . S
C111 H126 0.961 . S
C111 H127 0.961 . S
C112 C113 1.370 . S
C112 C114 1.363 . S
C112 H128 0.931 . S
C113 C112 1.370 . S
C113 C117 1.408 . S
C114 C112 1.363 . S
C114 C115 1.370 . S
C114 C118 1.524 . S
C115 C107 1.503 . S
C115 C114 1.370 . S
C115 C116 1.403 . S
C116 C115 1.403 . S
C116 C117 1.404 . S
C116 C119 1.539 . S
C117 C113 1.408 . S
C117 C116 1.404 . S
C117 H129 0.930 . S
C118 C114 1.524 . S
C118 H130 0.956 . S
C118 H131 0.961 . S
C118 H132 0.961 . S
C119 C116 1.539 . S
C119 H133 0.958 . S
C119 H134 0.961 . S
C119 H135 0.960 . S
H120 C104 0.931 . S
H121 C109 0.929 . S
H122 C110 0.960 . S
H123 C110 0.962 . S
H124 C110 0.960 . S
H125 C111 0.961 . S
H126 C111 0.961 . S
H127 C111 0.961 . S
H128 C112 0.931 . S
H129 C117 0.930 . S
H130 C118 0.956 . S
H131 C118 0.961 . S
H132 C118 0.961 . S
H133 C119 0.958 . S
H134 C119 0.961 . S
H135 C119 0.960 . S
C136 C137 1.391 . S
C136 C138 1.394 . S
C136 H152 0.931 . S
C137 C136 1.391 . S
C137 C141 1.376 . S
C138 C136 1.394 . S
C138 C139 1.369 . S
C138 C142 1.531 . S
C139 C138 1.369 . S
C139 C140 1.410 . S
C139 C147 1.503 . S
C140 C139 1.410 . S
C140 C141 1.392 . S
C140 C143 1.511 . S
C141 C137 1.376 . S
C141 C140 1.392 . S
C141 H153 0.929 . S
C142 C138 1.531 . S
C142 H154 0.960 . S
C142 H155 0.962 . S
C142 H156 0.960 . S
C143 C140 1.511 . S
C143 H157 0.961 . S
C143 H158 0.961 . S
C143 H159 0.961 . S
C144 C145 1.370 . S
C144 C146 1.363 . S
C144 H160 0.931 . S
C145 C144 1.370 . S
C145 C149 1.408 . S
C146 C144 1.363 . S
C146 C147 1.370 . S
C146 C150 1.524 . S
C147 C139 1.503 . S
C147 C146 1.370 . S
C147 C148 1.403 . S
C148 C147 1.403 . S
C148 C149 1.404 . S
C148 C151 1.539 . S
C149 C145 1.408 . S
C149 C148 1.404 . S
C149 H161 0.930 . S
C150 C146 1.524 . S
C150 H162 0.956 . S
C150 H163 0.961 . S
C150 H164 0.961 . S
C151 C148 1.539 . S
C151 H165 0.958 . S
C151 H166 0.961 . S
C151 H167 0.960 . S
H152 C136 0.931 . S
H153 C141 0.929 . S
H154 C142 0.960 . S
H155 C142 0.962 . S
H156 C142 0.960 . S
H157 C143 0.961 . S
H158 C143 0.961 . S
H159 C143 0.961 . S
H160 C144 0.931 . S
H161 C149 0.930 . S
H162 C150 0.956 . S
H163 C150 0.961 . S
H164 C150 0.961 . S
H165 C151 0.958 . S
H166 C151 0.961 . S
H167 C151 0.960 . S
C168 C169 1.391 . S
C168 C170 1.394 . S
C168 H184 0.931 . S
C169 C168 1.391 . S
C169 C173 1.376 . S
C170 C168 1.394 . S
C170 C171 1.369 . S
C170 C174 1.531 . S
C171 C170 1.369 . S
C171 C172 1.410 . S
C171 C179 1.503 . S
C172 C171 1.410 . S
C172 C173 1.392 . S
C172 C175 1.511 . S
C173 C169 1.376 . S
C173 C172 1.392 . S
C173 H185 0.929 . S
C174 C170 1.531 . S
C174 H186 0.960 . S
C174 H187 0.962 . S
C174 H188 0.960 . S
C175 C172 1.511 . S
C175 H189 0.961 . S
C175 H190 0.961 . S
C175 H191 0.961 . S
C176 C177 1.370 . S
C176 C178 1.363 . S
C176 H192 0.931 . S
C177 C176 1.370 . S
C177 C181 1.408 . S
C178 C176 1.363 . S
C178 C179 1.370 . S
C178 C182 1.524 . S
C179 C171 1.503 . S
C179 C178 1.370 . S
C179 C180 1.403 . S
C180 C179 1.403 . S
C180 C181 1.404 . S
C180 C183 1.539 . S
C181 C177 1.408 . S
C181 C180 1.404 . S
C181 H193 0.930 . S
C182 C178 1.524 . S
C182 H194 0.956 . S
C182 H195 0.961 . S
C182 H196 0.961 . S
C183 C180 1.539 . S
C183 H197 0.958 . S
C183 H198 0.961 . S
C183 H199 0.960 . S
H184 C168 0.931 . S
H185 C173 0.929 . S
H186 C174 0.960 . S
H187 C174 0.962 . S
H188 C174 0.960 . S
H189 C175 0.961 . S
H190 C175 0.961 . S
H191 C175 0.961 . S
H192 C176 0.931 . S
H193 C181 0.930 . S
H194 C182 0.956 . S
H195 C182 0.961 . S
H196 C182 0.961 . S
H197 C183 0.958 . S
H198 C183 0.961 . S
H199 C183 0.960 . S
C200 C201 1.391 . S
C200 C202 1.394 . S
C200 H216 0.931 . S
C201 C200 1.391 . S
C201 C205 1.376 . S
C202 C200 1.394 . S
C202 C203 1.369 . S
C202 C206 1.531 . S
C203 C202 1.369 . S
C203 C204 1.410 . S
C203 C211 1.503 . S
C204 C203 1.410 . S
C204 C205 1.392 . S
C204 C207 1.511 . S
C205 C201 1.376 . S
C205 C204 1.392 . S
C205 H217 0.929 . S
C206 C202 1.531 . S
C206 H218 0.960 . S
C206 H219 0.962 . S
C206 H220 0.960 . S
C207 C204 1.511 . S
C207 H221 0.961 . S
C207 H222 0.961 . S
C207 H223 0.961 . S
C208 C209 1.370 . S
C208 C210 1.363 . S
C208 H224 0.931 . S
C209 C208 1.370 . S
C209 C213 1.408 . S
C210 C208 1.363 . S
C210 C211 1.370 . S
C210 C214 1.524 . S
C211 C203 1.503 . S
C211 C210 1.370 . S
C211 C212 1.403 . S
C212 C211 1.403 . S
C212 C213 1.404 . S
C212 C215 1.539 . S
C213 C209 1.408 . S
C213 C212 1.404 . S
C213 H225 0.930 . S
C214 C210 1.524 . S
C214 H226 0.956 . S
C214 H227 0.961 . S
C214 H228 0.961 . S
C215 C212 1.539 . S
C215 H229 0.958 . S
C215 H230 0.961 . S
C215 H231 0.960 . S
H216 C200 0.931 . S
H217 C205 0.929 . S
H218 C206 0.960 . S
H219 C206 0.962 . S
H220 C206 0.960 . S
H221 C207 0.961 . S
H222 C207 0.961 . S
H223 C207 0.961 . S
H224 C208 0.931 . S
H225 C213 0.930 . S
H226 C214 0.956 . S
H227 C214 0.961 . S
H228 C214 0.961 . S
H229 C215 0.958 . S
H230 C215 0.961 . S
H231 C215 0.960 . S
C232 C233 1.391 . S
C232 C234 1.394 . S
C232 H248 0.931 . S
C233 C232 1.391 . S
C233 C237 1.376 . S
C234 C232 1.394 . S
C234 C235 1.369 . S
C234 C238 1.531 . S
C235 C234 1.369 . S
C235 C236 1.410 . S
C235 C243 1.503 . S
C236 C235 1.410 . S
C236 C237 1.392 . S
C236 C239 1.511 . S
C237 C233 1.376 . S
C237 C236 1.392 . S
C237 H249 0.929 . S
C238 C234 1.531 . S
C238 H250 0.960 . S
C238 H251 0.962 . S
C238 H252 0.960 . S
C239 C236 1.511 . S
C239 H253 0.961 . S
C239 H254 0.961 . S
C239 H255 0.961 . S
C240 C241 1.370 . S
C240 C242 1.363 . S
C240 H256 0.931 . S
C241 C240 1.370 . S
C241 C245 1.408 . S
C242 C240 1.363 . S
C242 C243 1.370 . S
C242 C246 1.524 . S
C243 C235 1.503 . S
C243 C242 1.370 . S
C243 C244 1.403 . S
C244 C243 1.403 . S
C244 C245 1.404 . S
C244 C247 1.539 . S
C245 C241 1.408 . S
C245 C244 1.404 . S
C245 H257 0.930 . S
C246 C242 1.524 . S
C246 H258 0.956 . S
C246 H259 0.961 . S
C246 H260 0.961 . S
C247 C244 1.539 . S
C247 H261 0.958 . S
C247 H262 0.961 . S
C247 H263 0.960 . S
H248 C232 0.931 . S
H249 C237 0.929 . S
H250 C238 0.960 . S
H251 C238 0.962 . S
H252 C238 0.960 . S
H253 C239 0.961 . S
H254 C239 0.961 . S
H255 C239 0.961 . S
H256 C240 0.931 . S
H257 C245 0.930 . S
H258 C246 0.956 . S
H259 C246 0.961 . S
H260 C246 0.961 . S
H261 C247 0.958 . S
H262 C247 0.961 . S
H263 C247 0.960 . S
C264 C265 1.391 . S
C264 C266 1.394 . S
C264 H280 0.931 . S
C265 C264 1.391 . S
C265 C269 1.376 . S
C266 C264 1.394 . S
C266 C267 1.369 . S
C266 C270 1.531 . S
C267 C266 1.369 . S
C267 C268 1.410 . S
C267 C275 1.503 . S
C268 C267 1.410 . S
C268 C269 1.392 . S
C268 C271 1.511 . S
C269 C265 1.376 . S
C269 C268 1.392 . S
C269 H281 0.929 . S
C270 C266 1.531 . S
C270 H282 0.960 . S
C270 H283 0.962 . S
C270 H284 0.960 . S
C271 C268 1.511 . S
C271 H285 0.961 . S
C271 H286 0.961 . S
C271 H287 0.961 . S
C272 C273 1.370 . S
C272 C274 1.363 . S
C272 H288 0.931 . S
C273 C272 1.370 . S
C273 C277 1.408 . S
C274 C272 1.363 . S
C274 C275 1.370 . S
C274 C278 1.524 . S
C275 C267 1.503 . S
C275 C274 1.370 . S
C275 C276 1.403 . S
C276 C275 1.403 . S
C276 C277 1.404 . S
C276 C279 1.539 . S
C277 C273 1.408 . S
C277 C276 1.404 . S
C277 H289 0.930 . S
C278 C274 1.524 . S
C278 H290 0.956 . S
C278 H291 0.961 . S
C278 H292 0.961 . S
C279 C276 1.539 . S
C279 H293 0.958 . S
C279 H294 0.961 . S
C279 H295 0.960 . S
H280 C264 0.931 . S
H281 C269 0.929 . S
H282 C270 0.960 . S
H283 C270 0.962 . S
H284 C270 0.960 . S
H285 C271 0.961 . S
H286 C271 0.961 . S
H287 C271 0.961 . S
H288 C272 0.931 . S
H289 C277 0.930 . S
H290 C278 0.956 . S
H291 C278 0.961 . S
H292 C278 0.961 . S
H293 C279 0.958 . S
H294 C279 0.961 . S
H295 C279 0.960 . S
C296 C297 1.391 . S
C296 C298 1.394 . S
C296 H312 0.931 . S
C297 C296 1.391 . S
C297 C301 1.376 . S
C298 C296 1.394 . S
C298 C299 1.369 . S
C298 C302 1.531 . S
C299 C298 1.369 . S
C299 C300 1.410 . S
C299 C307 1.503 . S
C300 C299 1.410 . S
C300 C301 1.392 . S
C300 C303 1.511 . S
C301 C297 1.376 . S
C301 C300 1.392 . S
C301 H313 0.929 . S
C302 C298 1.531 . S
C302 H314 0.960 . S
C302 H315 0.962 . S
C302 H316 0.960 . S
C303 C300 1.511 . S
C303 H317 0.961 . S
C303 H318 0.961 . S
C303 H319 0.961 . S
C304 C305 1.370 . S
C304 C306 1.363 . S
C304 H320 0.931 . S
C305 C304 1.370 . S
C305 C309 1.408 . S
C306 C304 1.363 . S
C306 C307 1.370 . S
C306 C310 1.524 . S
C307 C299 1.503 . S
C307 C306 1.370 . S
C307 C308 1.403 . S
C308 C307 1.403 . S
C308 C309 1.404 . S
C308 C311 1.539 . S
C309 C305 1.408 . S
C309 C308 1.404 . S
C309 H321 0.930 . S
C310 C306 1.524 . S
C310 H322 0.956 . S
C310 H323 0.961 . S
C310 H324 0.961 . S
C311 C308 1.539 . S
C311 H325 0.958 . S
C311 H326 0.961 . S
C311 H327 0.960 . S
H312 C296 0.931 . S
H313 C301 0.929 . S
H314 C302 0.960 . S
H315 C302 0.962 . S
H316 C302 0.960 . S
H317 C303 0.961 . S
H318 C303 0.961 . S
H319 C303 0.961 . S
H320 C304 0.931 . S
H321 C309 0.930 . S
H322 C310 0.956 . S
H323 C310 0.961 . S
H324 C310 0.961 . S
H325 C311 0.958 . S
H326 C311 0.961 . S
H327 C311 0.960 . S
C328 C329 1.391 . S
C328 C330 1.394 . S
C328 H344 0.931 . S
C329 C328 1.391 . S
C329 C333 1.376 . S
C330 C328 1.394 . S
C330 C331 1.369 . S
C330 C334 1.531 . S
C331 C330 1.369 . S
C331 C332 1.410 . S
C331 C339 1.503 . S
C332 C331 1.410 . S
C332 C333 1.392 . S
C332 C335 1.511 . S
C333 C329 1.376 . S
C333 C332 1.392 . S
C333 H345 0.929 . S
C334 C330 1.531 . S
C334 H346 0.960 . S
C334 H347 0.962 . S
C334 H348 0.960 . S
C335 C332 1.511 . S
C335 H349 0.961 . S
C335 H350 0.961 . S
C335 H351 0.961 . S
C336 C337 1.370 . S
C336 C338 1.363 . S
C336 H352 0.931 . S
C337 C336 1.370 . S
C337 C341 1.408 . S
C338 C336 1.363 . S
C338 C339 1.370 . S
C338 C342 1.524 . S
C339 C331 1.503 . S
C339 C338 1.370 . S
C339 C340 1.403 . S
C340 C339 1.403 . S
C340 C341 1.404 . S
C340 C343 1.539 . S
C341 C337 1.408 . S
C341 C340 1.404 . S
C341 H353 0.930 . S
C342 C338 1.524 . S
C342 H354 0.956 . S
C342 H355 0.961 . S
C342 H356 0.961 . S
C343 C340 1.539 . S
C343 H357 0.958 . S
C343 H358 0.961 . S
C343 H359 0.960 . S
H344 C328 0.931 . S
H345 C333 0.929 . S
H346 C334 0.960 . S
H347 C334 0.962 . S
H348 C334 0.960 . S
H349 C335 0.961 . S
H350 C335 0.961 . S
H351 C335 0.961 . S
H352 C336 0.931 . S
H353 C341 0.930 . S
H354 C342 0.956 . S
H355 C342 0.961 . S
H356 C342 0.961 . S
H357 C343 0.958 . S
H358 C343 0.961 . S
H359 C343 0.960 . S
C360 C361 1.391 . S
C360 C362 1.394 . S
C360 H376 0.931 . S
C361 C360 1.391 . S
C361 C365 1.376 . S
C362 C360 1.394 . S
C362 C363 1.369 . S
C362 C366 1.531 1_455 S
C363 C362 1.369 . S
C363 C364 1.410 . S
C363 C371 1.503 1_455 S
C364 C363 1.410 . S
C364 C365 1.392 . S
C364 C367 1.511 . S
C365 C361 1.376 . S
C365 C364 1.392 . S
C365 H377 0.929 . S
C366 C362 1.531 1_655 S
C366 H378 0.960 . S
C366 H379 0.962 . S
C366 H380 0.960 1_655 S
C367 C364 1.511 . S
C367 H381 0.961 . S
C367 H382 0.961 . S
C367 H383 0.961 . S
C368 C369 1.370 . S
C368 C370 1.363 . S
C368 H384 0.931 . S
C369 C368 1.370 . S
C369 C373 1.408 . S
C370 C368 1.363 . S
C370 C371 1.370 . S
C370 C374 1.524 . S
C371 C363 1.503 1_655 S
C371 C370 1.370 . S
C371 C372 1.403 . S
C372 C371 1.403 . S
C372 C373 1.404 . S
C372 C375 1.539 . S
C373 C369 1.408 . S
C373 C372 1.404 . S
C373 H385 0.930 . S
C374 C370 1.524 . S
C374 H386 0.956 . S
C374 H387 0.961 . S
C374 H388 0.961 . S
C375 C372 1.539 . S
C375 H389 0.958 . S
C375 H390 0.961 . S
C375 H391 0.960 1_655 S
H376 C360 0.931 . S
H377 C365 0.929 . S
H378 C366 0.960 . S
H379 C366 0.962 . S
H380 C366 0.960 1_455 S
H381 C367 0.961 . S
H382 C367 0.961 . S
H383 C367 0.961 . S
H384 C368 0.931 . S
H385 C373 0.930 . S
H386 C374 0.956 . S
H387 C374 0.961 . S
H388 C374 0.961 . S
H389 C375 0.958 . S
H390 C375 0.961 . S
H391 C375 0.960 1_455 S
C392 C393 1.391 . S
C392 C394 1.394 . S
C392 H408 0.931 . S
C393 C392 1.391 . S
C393 C397 1.376 . S
C394 C392 1.394 . S
C394 C395 1.369 . S
C394 C398 1.531 . S
C395 C394 1.369 . S
C395 C396 1.410 . S
C395 C403 1.503 . S
C396 C395 1.410 . S
C396 C397 1.392 . S
C396 C399 1.511 . S
C397 C393 1.376 . S
C397 C396 1.392 . S
C397 H409 0.929 . S
C398 C394 1.531 . S
C398 H410 0.960 . S
C398 H411 0.962 . S
C398 H412 0.960 . S
C399 C396 1.511 . S
C399 H413 0.961 . S
C399 H414 0.961 . S
C399 H415 0.961 . S
C400 C401 1.370 . S
C400 C402 1.363 . S
C400 H416 0.931 . S
C401 C400 1.370 . S
C401 C405 1.408 . S
C402 C400 1.363 . S
C402 C403 1.370 . S
C402 C406 1.524 . S
C403 C395 1.503 . S
C403 C402 1.370 . S
C403 C404 1.403 . S
C404 C403 1.403 . S
C404 C405 1.404 . S
C404 C407 1.539 . S
C405 C401 1.408 . S
C405 C404 1.404 . S
C405 H417 0.930 . S
C406 C402 1.524 . S
C406 H418 0.956 . S
C406 H419 0.961 . S
C406 H420 0.961 . S
C407 C404 1.539 . S
C407 H421 0.958 . S
C407 H422 0.961 . S
C407 H423 0.960 . S
H408 C392 0.931 . S
H409 C397 0.929 . S
H410 C398 0.960 . S
H411 C398 0.962 . S
H412 C398 0.960 . S
H413 C399 0.961 . S
H414 C399 0.961 . S
H415 C399 0.961 . S
H416 C400 0.931 . S
H417 C405 0.930 . S
H418 C406 0.956 . S
H419 C406 0.961 . S
H420 C406 0.961 . S
H421 C407 0.958 . S
H422 C407 0.961 . S
H423 C407 0.960 . S
C424 C425 1.391 . S
C424 C426 1.394 . S
C424 H440 0.931 . S
C425 C424 1.391 . S
C425 C429 1.376 . S
C426 C424 1.394 . S
C426 C427 1.369 . S
C426 C430 1.531 . S
C427 C426 1.369 . S
C427 C428 1.410 . S
C427 C435 1.503 1_455 S
C428 C427 1.410 . S
C428 C429 1.392 . S
C428 C431 1.511 . S
C429 C425 1.376 . S
C429 C428 1.392 . S
C429 H441 0.929 . S
C430 C426 1.531 . S
C430 H442 0.960 1_455 S
C430 H443 0.962 . S
C430 H444 0.960 . S
C431 C428 1.511 . S
C431 H445 0.961 . S
C431 H446 0.961 1_455 S
C431 H447 0.961 1_455 S
C432 C433 1.370 . S
C432 C434 1.363 . S
C432 H448 0.931 . S
C433 C432 1.370 . S
C433 C437 1.408 . S
C434 C432 1.363 . S
C434 C435 1.370 . S
C434 C438 1.524 1_655 S
C435 C427 1.503 1_655 S
C435 C434 1.370 . S
C435 C436 1.403 . S
C436 C435 1.403 . S
C436 C437 1.404 . S
C436 C439 1.539 . S
C437 C433 1.408 . S
C437 C436 1.404 . S
C437 H449 0.930 . S
C438 C434 1.524 1_455 S
C438 H450 0.956 . S
C438 H451 0.961 . S
C438 H452 0.961 . S
C439 C436 1.539 . S
C439 H453 0.958 . S
C439 H454 0.961 . S
C439 H455 0.960 . S
H440 C424 0.931 . S
H441 C429 0.929 . S
H442 C430 0.960 1_655 S
H443 C430 0.962 . S
H444 C430 0.960 . S
H445 C431 0.961 . S
H446 C431 0.961 1_655 S
H447 C431 0.961 1_655 S
H448 C432 0.931 . S
H449 C437 0.930 . S
H450 C438 0.956 . S
H451 C438 0.961 . S
H452 C438 0.961 . S
H453 C439 0.958 . S
H454 C439 0.961 . S
H455 C439 0.960 . S
C456 C457 1.391 . S
C456 C458 1.394 . S
C456 H472 0.931 . S
C457 C456 1.391 . S
C457 C461 1.376 . S
C458 C456 1.394 . S
C458 C459 1.369 . S
C458 C462 1.531 . S
C459 C458 1.369 . S
C459 C460 1.410 . S
C459 C467 1.503 . S
C460 C459 1.410 . S
C460 C461 1.392 . S
C460 C463 1.511 . S
C461 C457 1.376 . S
C461 C460 1.392 . S
C461 H473 0.929 . S
C462 C458 1.531 . S
C462 H474 0.960 . S
C462 H475 0.962 . S
C462 H476 0.960 . S
C463 C460 1.511 . S
C463 H477 0.961 . S
C463 H478 0.961 . S
C463 H479 0.961 . S
C464 C465 1.370 . S
C464 C466 1.363 . S
C464 H480 0.931 . S
C465 C464 1.370 . S
C465 C469 1.408 . S
C466 C464 1.363 . S
C466 C467 1.370 . S
C466 C470 1.524 . S
C467 C459 1.503 . S
C467 C466 1.370 . S
C467 C468 1.403 . S
C468 C467 1.403 . S
C468 C469 1.404 . S
C468 C471 1.539 . S
C469 C465 1.408 . S
C469 C468 1.404 . S
C469 H481 0.930 . S
C470 C466 1.524 . S
C470 H482 0.956 . S
C470 H483 0.961 . S
C470 H484 0.961 . S
C471 C468 1.539 . S
C471 H485 0.958 . S
C471 H486 0.961 . S
C471 H487 0.960 . S
H472 C456 0.931 . S
H473 C461 0.929 . S
H474 C462 0.960 . S
H475 C462 0.962 . S
H476 C462 0.960 . S
H477 C463 0.961 . S
H478 C463 0.961 . S
H479 C463 0.961 . S
H480 C464 0.931 . S
H481 C469 0.930 . S
H482 C470 0.956 . S
H483 C470 0.961 . S
H484 C470 0.961 . S
H485 C471 0.958 . S
H486 C471 0.961 . S
H487 C471 0.960 . S
C488 C489 1.391 1_556 S
C488 C490 1.394 . S
C488 H504 0.931 . S
C489 C488 1.391 1_554 S
C489 C493 1.376 . S
C490 C488 1.394 . S
C490 C491 1.369 . S
C490 C494 1.531 1_455 S
C491 C490 1.369 . S
C491 C492 1.410 1_556 S
C491 C499 1.503 1_445 S
C492 C491 1.410 1_554 S
C492 C493 1.392 . S
C492 C495 1.511 1_545 S
C493 C489 1.376 . S
C493 C492 1.392 . S
C493 H505 0.929 . S
C494 C490 1.531 1_655 S
C494 H506 0.960 . S
C494 H507 0.962 . S
C494 H508 0.960 . S
C495 C492 1.511 1_565 S
C495 H509 0.961 . S
C495 H510 0.961 . S
C495 H511 0.961 . S
C496 C497 1.370 1_554 S
C496 C498 1.363 . S
C496 H512 0.931 . S
C497 C496 1.370 1_556 S
C497 C501 1.408 . S
C498 C496 1.363 . S
C498 C499 1.370 1_554 S
C498 C502 1.524 1_565 S
C499 C491 1.503 1_665 S
C499 C498 1.370 1_556 S
C499 C500 1.405 . S
C500 C499 1.405 . S
C500 C501 1.412 . S
C500 C503 1.528 1_655 S
C501 C497 1.408 . S
C501 C500 1.412 . S
C501 H513 0.930 . S
C502 C498 1.524 1_545 S
C502 H514 0.956 . S
C502 H515 0.961 . S
C502 H516 0.961 . S
C503 C500 1.528 1_455 S
C503 H517 0.958 . S
C503 H518 0.961 . S
C503 H519 0.960 . S
H504 C488 0.931 . S
H505 C493 0.929 . S
H506 C494 0.960 . S
H507 C494 0.962 . S
H508 C494 0.960 . S
H509 C495 0.961 . S
H510 C495 0.961 . S
H511 C495 0.961 . S
H512 C496 0.931 . S
H513 C501 0.930 . S
H514 C502 0.956 . S
H515 C502 0.961 . S
H516 C502 0.961 . S
H517 C503 0.958 . S
H518 C503 0.961 . S
H519 C503 0.960 . S
C520 C521 1.391 . S
C520 C522 1.394 . S
C520 H536 0.931 . S
C521 C520 1.391 . S
C521 C525 1.376 . S
C522 C520 1.394 . S
C522 C523 1.369 . S
C522 C526 1.531 . S
C523 C522 1.369 . S
C523 C524 1.410 . S
C523 C531 1.503 . S
C524 C523 1.410 . S
C524 C525 1.392 . S
C524 C527 1.511 . S
C525 C521 1.376 . S
C525 C524 1.392 . S
C525 H537 0.929 . S
C526 C522 1.531 . S
C526 H538 0.960 . S
C526 H539 0.962 . S
C526 H540 0.960 . S
C527 C524 1.511 . S
C527 H541 0.961 . S
C527 H542 0.961 . S
C527 H543 0.961 . S
C528 C529 1.370 . S
C528 C530 1.363 . S
C528 H544 0.931 . S
C529 C528 1.370 . S
C529 C533 1.408 . S
C530 C528 1.363 . S
C530 C531 1.370 . S
C530 C534 1.524 . S
C531 C523 1.503 . S
C531 C530 1.370 . S
C531 C532 1.403 . S
C532 C531 1.403 . S
C532 C533 1.404 . S
C532 C535 1.539 . S
C533 C529 1.408 . S
C533 C532 1.404 . S
C533 H545 0.930 . S
C534 C530 1.524 . S
C534 H546 0.956 . S
C534 H547 0.961 . S
C534 H548 0.961 . S
C535 C532 1.539 . S
C535 H549 0.958 . S
C535 H550 0.961 . S
C535 H551 0.960 . S
H536 C520 0.931 . S
H537 C525 0.929 . S
H538 C526 0.960 . S
H539 C526 0.962 . S
H540 C526 0.960 . S
H541 C527 0.961 . S
H542 C527 0.961 . S
H543 C527 0.961 . S
H544 C528 0.931 . S
H545 C533 0.930 . S
H546 C534 0.956 . S
H547 C534 0.961 . S
H548 C534 0.961 . S
H549 C535 0.958 . S
H550 C535 0.961 . S
H551 C535 0.960 . S
C552 C553 1.389 1_556 S
C552 C554 1.394 . S
C552 H568 0.931 . S
C553 C552 1.389 1_554 S
C553 C557 1.374 1_554 S
C554 C552 1.394 . S
C554 C555 1.369 . S
C554 C558 1.531 . S
C555 C554 1.369 . S
C555 C556 1.410 . S
C555 C563 1.503 . S
C556 C555 1.410 . S
C556 C557 1.392 . S
C556 C559 1.511 . S
C557 C553 1.374 1_556 S
C557 C556 1.392 . S
C557 H569 0.929 . S
C558 C554 1.531 . S
C558 H570 0.960 . S
C558 H571 0.962 1_556 S
C558 H572 0.960 . S
C559 C556 1.511 . S
C559 H573 0.961 1_556 S
C559 H574 0.961 1_556 S
C559 H575 0.961 . S
C560 C561 1.370 1_554 S
C560 C562 1.363 . S
C560 H576 0.931 . S
C561 C560 1.370 1_556 S
C561 C565 1.408 . S
C562 C560 1.363 . S
C562 C563 1.370 1_554 S
C562 C566 1.524 . S
C563 C555 1.503 . S
C563 C562 1.370 1_556 S
C563 C564 1.403 . S
C564 C563 1.403 . S
C564 C565 1.404 . S
C564 C567 1.539 . S
C565 C561 1.408 . S
C565 C564 1.404 . S
C565 H577 0.930 . S
C566 C562 1.524 . S
C566 H578 0.956 . S
C566 H579 0.961 . S
C566 H580 0.961 . S
C567 C564 1.539 . S
C567 H581 0.958 . S
C567 H582 0.961 . S
C567 H583 0.960 . S
H568 C552 0.931 . S
H569 C557 0.929 . S
H570 C558 0.960 . S
H571 C558 0.962 1_554 S
H572 C558 0.960 . S
H573 C559 0.961 1_554 S
H574 C559 0.961 1_554 S
H575 C559 0.961 . S
H576 C560 0.931 . S
H577 C565 0.930 . S
H578 C566 0.956 . S
H579 C566 0.961 . S
H580 C566 0.961 . S
H581 C567 0.958 . S
H582 C567 0.961 . S
H583 C567 0.960 . S
C584 C585 1.391 . S
C584 C586 1.394 . S
C584 H600 0.931 . S
C585 C584 1.391 . S
C585 C589 1.376 . S
C586 C584 1.394 . S
C586 C587 1.369 . S
C586 C590 1.531 1_565 S
C587 C586 1.369 . S
C587 C588 1.401 1_455 S
C587 C595 1.503 1_465 S
C588 C587 1.401 1_655 S
C588 C589 1.378 1_655 S
C588 C591 1.534 . S
C589 C585 1.376 . S
C589 C588 1.378 1_455 S
C589 H601 0.929 . S
C590 C586 1.531 1_545 S
C590 H602 0.960 . S
C590 H603 0.962 . S
C590 H604 0.960 . S
C591 C588 1.534 . S
C591 H605 0.961 . S
C591 H606 0.961 . S
C591 H607 0.961 . S
C592 C593 1.370 . S
C592 C594 1.363 . S
C592 H608 0.931 . S
C593 C592 1.370 . S
C593 C597 1.408 . S
C594 C592 1.363 . S
C594 C595 1.370 . S
C594 C598 1.524 . S
C595 C587 1.503 1_645 S
C595 C594 1.370 . S
C595 C596 1.403 . S
C596 C595 1.403 . S
C596 C597 1.404 . S
C596 C599 1.539 . S
C597 C593 1.408 . S
C597 C596 1.404 . S
C597 H609 0.930 . S
C598 C594 1.524 . S
C598 H610 0.956 1_655 S
C598 H611 0.961 1_545 S
C598 H612 0.961 . S
C599 C596 1.539 . S
C599 H613 0.958 1_655 S
C599 H614 0.961 . S
C599 H615 0.959 1_645 S
H600 C584 0.931 . S
H601 C589 0.929 . S
H602 C590 0.960 . S
H603 C590 0.962 . S
H604 C590 0.960 . S
H605 C591 0.961 . S
H606 C591 0.961 . S
H607 C591 0.961 . S
H608 C592 0.931 . S
H609 C597 0.930 . S
H610 C598 0.956 1_455 S
H611 C598 0.961 1_565 S
H612 C598 0.961 . S
H613 C599 0.958 1_455 S
H614 C599 0.961 . S
H615 C599 0.959 1_465 S
C105 C23 2.092 . S
C113 C3 2.093 1_556 S
C137 C10 2.102 . S
C145 C16 2.103 . S
C169 C49 2.107 . S
C177 C29 2.099 1_554 S
C201 C36 2.084 . S
C209 C42 2.094 . S
C233 C57 2.107 1_554 S
C241 C66 2.097 . S
C265 C70 2.080 . S
C273 C53 2.097 . S
C297 C83 2.106 1_556 S
C305 C92 2.099 . S
C329 C79 2.106 . S
C337 C96 2.095 . S
C361 C1 0.591 . S
C369 C40 0.528 . S
C393 C14 0.604 . S
C401 C27 0.510 . S
C425 C101 0.485 . S
C433 C62 0.560 . S
C457 C88 0.522 . S
C465 C75 0.561 . S
C489 C5 1.953 . S
C497 C55 1.947 . S
C521 C68 1.964 . S
C529 C18 1.940 . S
C553 C81 1.972 . S
C561 C31 1.940 . S
C585 C94 1.964 . S
C593 C44 1.940 . S
