# Generated by pormake.
# Topology sow, (4)-cn, num edge types: 1
# Building blocks:
#     Node 0, Type 0, BuildingBlock: NAWXER_clean_sbu_0, # of connection points: 4
#     Node 1, Type 0, BuildingBlock: NAWXER_clean_sbu_0, # of connection points: 4
#     Node 2, Type 0, BuildingBlock: NAWXER_clean_sbu_0, # of connection points: 4
#     Node 3, Type 0, BuildingBlock: NAWXER_clean_sbu_0, # of connection points: 4
#     Node 4, Type 0, BuildingBlock: NAWXER_clean_sbu_0, # of connection points: 4
#     Node 5, Type 0, BuildingBlock: NAWXER_clean_sbu_0, # of connection points: 4
#     Node 6, Type 0, BuildingBlock: NAWXER_clean_sbu_0, # of connection points: 4
#     Node 7, Type 0, BuildingBlock: NAWXER_clean_sbu_0, # of connection points: 4
#     Edge 8, Type (0, 0), BuildingBlock: KIFKEQ_clean_linker_1, # of connection points: 2
#     Edge 9, Type (0, 0), BuildingBlock: KIFKEQ_clean_linker_1, # of connection points: 2
#     Edge 10, Type (0, 0), BuildingBlock: KIFKEQ_clean_linker_1, # of connection points: 2
#     Edge 11, Type (0, 0), BuildingBlock: KIFKEQ_clean_linker_1, # of connection points: 2
#     Edge 12, Type (0, 0), BuildingBlock: KIFKEQ_clean_linker_1, # of connection points: 2
#     Edge 13, Type (0, 0), BuildingBlock: KIFKEQ_clean_linker_1, # of connection points: 2
#     Edge 14, Type (0, 0), BuildingBlock: KIFKEQ_clean_linker_1, # of connection points: 2
#     Edge 15, Type (0, 0), BuildingBlock: KIFKEQ_clean_linker_1, # of connection points: 2
#     Edge 16, Type (0, 0), BuildingBlock: KIFKEQ_clean_linker_1, # of connection points: 2
#     Edge 17, Type (0, 0), BuildingBlock: KIFKEQ_clean_linker_1, # of connection points: 2
#     Edge 18, Type (0, 0), BuildingBlock: KIFKEQ_clean_linker_1, # of connection points: 2
#     Edge 19, Type (0, 0), BuildingBlock: KIFKEQ_clean_linker_1, # of connection points: 2
#     Edge 20, Type (0, 0), BuildingBlock: KIFKEQ_clean_linker_1, # of connection points: 2
#     Edge 21, Type (0, 0), BuildingBlock: KIFKEQ_clean_linker_1, # of connection points: 2
#     Edge 22, Type (0, 0), BuildingBlock: KIFKEQ_clean_linker_1, # of connection points: 2
#     Edge 23, Type (0, 0), BuildingBlock: KIFKEQ_clean_linker_1, # of connection points: 2
# Relax obj value: 0.113
# Max RMSD: 0.238
# Mean RMSD: 0.237
data_MOF--net-sow--node1-NAWXER_clean_sbu_0--edge1-KIFKEQ_clean_linker_1
_symmetry_space_group_name_H-M    P1
_symmetry_Int_Tables_number       1
_symmetry_cell_setting            triclinic
loop_
_symmetry_equiv_pos_as_xyz
'x, y, z'
_cell_length_a     44.19956
_cell_length_b     19.702756
_cell_length_c     23.232214
_cell_angle_alpha  90.04237
_cell_angle_beta   90.111779
_cell_angle_gamma 89.989315
loop_
_atom_site_label
_atom_site_type_symbol
_atom_site_fract_x
_atom_site_fract_y
_atom_site_fract_z
_atom_type_partial_charge
C0 C 0.19013 0.1973 0.15236 0.0
C1 C 0.10871 0.10847 0.03395 0.0
O2 O 0.18421 0.13646 0.1386 0.0
Zn3 Zn 0.1518 0.1541 0.08597 0.0
O4 O 0.1751 0.24583 0.12899 0.0
Zn5 Zn 0.13888 0.25351 0.06618 0.0
O6 O 0.10914 0.30401 0.10917 0.0
O7 O 0.11658 0.19864 0.13907 0.0
O8 O 0.10961 0.17362 0.0317 0.0
O9 O 0.13016 0.07646 0.05829 0.0
O10 O 0.17376 0.19373 0.01109 0.0
O11 O 0.15621 0.2973 0.99976 0.0
C12 C 0.10216 0.25512 0.1423 0.0
C13 C 0.17331 0.24962 0.98291 0.0
C14 C 0.31957 0.32044 0.6546 0.0
C15 C 0.40439 0.39181 0.5368 0.0
O16 O 0.32826 0.37989 0.64186 0.0
Zn17 Zn 0.35967 0.35565 0.58868 0.0
O18 O 0.33236 0.26931 0.63051 0.0
Zn19 Zn 0.36839 0.25406 0.56914 0.0
O20 O 0.39574 0.19776 0.61197 0.0
O21 O 0.3926 0.3035 0.6432 0.0
O22 O 0.40085 0.3271 0.53547 0.0
O23 O 0.38432 0.42867 0.56028 0.0
O24 O 0.33617 0.32001 0.513 0.0
O25 O 0.3494 0.21292 0.50362 0.0
C26 C 0.40451 0.24407 0.6463 0.0
C27 C 0.33437 0.26347 0.48577 0.0
C28 C 0.6884 0.30352 0.84907 0.0
C29 C 0.6046 0.38373 0.96566 0.0
O30 O 0.68135 0.36393 0.86239 0.0
Zn31 Zn 0.64904 0.34318 0.9145 0.0
O32 O 0.67428 0.2538 0.87256 0.0
Zn33 Zn 0.63815 0.24272 0.93474 0.0
O34 O 0.60985 0.18861 0.89224 0.0
O35 O 0.61548 0.29324 0.85959 0.0
O36 O 0.607 0.31882 0.96712 0.0
O37 O 0.62543 0.41864 0.94247 0.0
O38 O 0.67196 0.3061 0.9898 0.0
O39 O 0.65595 0.20145 0.00176 0.0
C40 C 0.60235 0.23506 0.85701 0.0
C41 C 0.67233 0.25048 0.0184 0.0
C42 C 0.8187 0.18075 0.34809 0.0
C43 C 0.90076 0.10099 0.46941 0.0
O44 O 0.82623 0.12079 0.36167 0.0
Zn45 Zn 0.85747 0.14214 0.41603 0.0
O46 O 0.83216 0.23093 0.37237 0.0
Zn47 Zn 0.86796 0.24291 0.43522 0.0
O48 O 0.89694 0.296 0.39249 0.0
O49 O 0.89242 0.18926 0.36408 0.0
O50 O 0.8986 0.16608 0.47153 0.0
O51 O 0.88015 0.0669 0.44448 0.0
O52 O 0.8346 0.18002 0.49112 0.0
O53 O 0.84905 0.28642 0.49988 0.0
C54 C 0.90552 0.24725 0.36057 0.0
C55 C 0.83345 0.23689 0.51793 0.0
C56 C 0.90474 0.88907 0.97067 0.0
C57 C 0.82209 0.80996 0.84934 0.0
O58 O 0.90225 0.82413 0.97115 0.0
Zn59 Zn 0.87171 0.74818 0.9358 0.0
O60 O 0.88403 0.92466 0.94749 0.0
Zn61 Zn 0.86071 0.84968 0.91731 0.0
O62 O 0.83774 0.81071 0.99126 0.0
O63 O 0.85336 0.70544 0.00166 0.0
O64 O 0.82875 0.87028 0.86372 0.0
O65 O 0.83622 0.7602 0.87276 0.0
O66 O 0.90082 0.696 0.8926 0.0
O67 O 0.89546 0.80272 0.86437 0.0
C68 C 0.83713 0.75445 0.01888 0.0
C69 C 0.90893 0.7451 0.86063 0.0
C70 C 0.60892 0.60459 0.46683 0.0
C71 C 0.69116 0.68577 0.34807 0.0
O72 O 0.61098 0.66962 0.46995 0.0
Zn73 Zn 0.64181 0.74681 0.43561 0.0
O74 O 0.62954 0.57127 0.44145 0.0
Zn75 Zn 0.65224 0.64709 0.41466 0.0
O76 O 0.67552 0.68349 0.49045 0.0
O77 O 0.66055 0.78929 0.50078 0.0
O78 O 0.68349 0.62574 0.36101 0.0
O79 O 0.67778 0.73587 0.37265 0.0
O80 O 0.61314 0.80138 0.39435 0.0
O81 O 0.61798 0.69672 0.36151 0.0
C82 C 0.67653 0.73994 0.51799 0.0
C83 C 0.60501 0.75507 0.35951 0.0
C84 C 0.40314 0.61068 0.03755 0.0
C85 C 0.32091 0.70016 0.1524 0.0
O86 O 0.40212 0.67574 0.03418 0.0
Zn87 Zn 0.37236 0.75562 0.06637 0.0
O88 O 0.38179 0.57917 0.06236 0.0
Zn89 Zn 0.35982 0.65717 0.08802 0.0
O90 O 0.3376 0.69476 0.01192 0.0
O91 O 0.35532 0.79788 0.9992 0.0
O92 O 0.32727 0.63925 0.13968 0.0
O93 O 0.33577 0.74872 0.12873 0.0
O94 O 0.40146 0.80829 0.10808 0.0
O95 O 0.39418 0.70499 0.14238 0.0
C96 C 0.33816 0.75009 0.98288 0.0
C97 C 0.4082 0.76215 0.1441 0.0
C98 C 0.10757 0.89559 0.53341 0.0
C99 C 0.19212 0.82412 0.65339 0.0
O100 O 0.11108 0.83084 0.53307 0.0
Zn101 Zn 0.143 0.75758 0.56866 0.0
O102 O 0.12775 0.93296 0.55627 0.0
Zn103 Zn 0.15232 0.86019 0.58616 0.0
O104 O 0.17514 0.82221 0.51125 0.0
O105 O 0.16196 0.71483 0.50364 0.0
O106 O 0.18395 0.88374 0.63978 0.0
O107 O 0.17893 0.77319 0.62981 0.0
O108 O 0.11497 0.70384 0.61324 0.0
O109 O 0.11875 0.81131 0.64008 0.0
C110 C 0.17683 0.76515 0.48485 0.0
C111 C 0.10623 0.75278 0.64485 0.0
H112 H 0.29399 0.41572 0.72493 0.0
H113 H 0.29182 0.20157 0.68494 0.0
H114 H 0.25775 0.3977 0.80208 0.0
H115 H 0.25473 0.18381 0.76095 0.0
H116 H 0.21797 0.1651 0.94451 0.0
H117 H 0.2518 0.18212 0.86328 0.0
H118 H 0.20653 0.37089 0.82355 0.0
H119 H 0.17334 0.35488 0.90606 0.0
C120 C 0.28547 0.36488 0.73208 0.0
C121 C 0.29591 0.31005 0.69886 0.0
C122 C 0.26451 0.35458 0.77621 0.0
C123 C 0.25329 0.28923 0.78799 0.0
C124 C 0.26325 0.23463 0.75383 0.0
C125 C 0.28438 0.24488 0.70994 0.0
C126 C 0.21516 0.21014 0.91834 0.0
C127 C 0.19302 0.25876 0.93196 0.0
C128 C 0.23446 0.21972 0.87144 0.0
C129 C 0.23197 0.27794 0.8367 0.0
C130 C 0.20946 0.32601 0.84984 0.0
C131 C 0.19029 0.31665 0.89701 0.0
H132 H 0.23777 0.11755 0.18314 0.0
H133 H 0.19465 0.30861 0.22221 0.0
H134 H 0.27423 0.1367 0.25987 0.0
H135 H 0.22999 0.32636 0.30153 0.0
H136 H 0.31168 0.36398 0.41654 0.0
H137 H 0.279 0.3511 0.33243 0.0
H138 H 0.27785 0.13376 0.35887 0.0
H139 H 0.31172 0.14671 0.44037 0.0
C140 C 0.23604 0.16362 0.20841 0.0
C141 C 0.2133 0.21145 0.19681 0.0
C142 C 0.25681 0.17444 0.25288 0.0
C143 C 0.25496 0.2327 0.28788 0.0
C144 C 0.2325 0.28128 0.27531 0.0
C145 C 0.21208 0.27103 0.22995 0.0
C146 C 0.30451 0.31351 0.40401 0.0
C147 C 0.3144 0.25636 0.43488 0.0
C148 C 0.28559 0.30605 0.35596 0.0
C149 C 0.27571 0.24128 0.33828 0.0
C150 C 0.28548 0.18434 0.36985 0.0
C151 C 0.30479 0.19174 0.41708 0.0
H152 H 0.79233 0.08641 0.27808 0.0
H153 H 0.79286 0.30129 0.31532 0.0
H154 H 0.75639 0.1052 0.20053 0.0
H155 H 0.7559 0.31997 0.23874 0.0
H156 H 0.71729 0.3358 0.0551 0.0
H157 H 0.7515 0.32013 0.13644 0.0
H158 H 0.70554 0.1335 0.18002 0.0
H159 H 0.67215 0.14801 0.09756 0.0
C160 C 0.78448 0.13766 0.2702 0.0
C161 C 0.79552 0.19235 0.30294 0.0
C162 C 0.76366 0.14843 0.22582 0.0
C163 C 0.75309 0.21414 0.21325 0.0
C164 C 0.76384 0.2688 0.24658 0.0
C165 C 0.78489 0.25805 0.29078 0.0
C166 C 0.71444 0.29156 0.08219 0.0
C167 C 0.69211 0.24294 0.06959 0.0
C168 C 0.73395 0.28274 0.12912 0.0
C169 C 0.73144 0.22535 0.16484 0.0
C170 C 0.70859 0.17762 0.15288 0.0
C171 C 0.68929 0.18613 0.10572 0.0
H172 H 0.73466 0.38682 0.81702 0.0
H173 H 0.69445 0.19187 0.78051 0.0
H174 H 0.77149 0.36862 0.74087 0.0
H175 H 0.72995 0.17505 0.70185 0.0
H176 H 0.81155 0.13805 0.58908 0.0
H177 H 0.77889 0.15215 0.67264 0.0
H178 H 0.77643 0.36875 0.64223 0.0
H179 H 0.8105 0.35459 0.56122 0.0
C180 C 0.73365 0.34014 0.79242 0.0
C181 C 0.71168 0.29081 0.80468 0.0
C182 C 0.75461 0.32983 0.74829 0.0
C183 C 0.7537 0.27057 0.71433 0.0
C184 C 0.73186 0.22084 0.72736 0.0
C185 C 0.71131 0.23058 0.77236 0.0
C186 C 0.8041 0.18864 0.60061 0.0
C187 C 0.81364 0.24521 0.56872 0.0
C188 C 0.78517 0.19681 0.64835 0.0
C189 C 0.77481 0.26168 0.66465 0.0
C190 C 0.78437 0.31813 0.63225 0.0
C191 C 0.80377 0.31005 0.58533 0.0
H192 H 0.79256 0.8402 0.05598 0.0
H193 H 0.83697 0.65099 0.09722 0.0
H194 H 0.7586 0.82489 0.13737 0.0
H195 H 0.80381 0.63685 0.17987 0.0
H196 H 0.71749 0.80608 0.31603 0.0
H197 H 0.75447 0.82434 0.23962 0.0
H198 H 0.75295 0.60982 0.20051 0.0
H199 H 0.71707 0.59144 0.27782 0.0
C200 C 0.79529 0.79567 0.08281 0.0
C201 C 0.81735 0.74657 0.06986 0.0
C202 C 0.77593 0.7871 0.1298 0.0
C203 C 0.77831 0.72948 0.16528 0.0
C204 C 0.80087 0.68119 0.15293 0.0
C205 C 0.82003 0.68945 0.10565 0.0
C206 C 0.72526 0.76283 0.29133 0.0
C207 C 0.71436 0.69731 0.30314 0.0
C208 C 0.74631 0.77332 0.24724 0.0
C209 C 0.75677 0.71858 0.21371 0.0
C210 C 0.74593 0.65307 0.22597 0.0
C211 C 0.72514 0.64255 0.27022 0.0
H212 H 0.69969 0.64134 0.58845 0.0
H213 H 0.69912 0.85797 0.56106 0.0
H214 H 0.73272 0.65639 0.67169 0.0
H215 H 0.73351 0.87312 0.64157 0.0
H216 H 0.77561 0.89258 0.81637 0.0
H217 H 0.73887 0.87338 0.73997 0.0
H218 H 0.78148 0.68098 0.70115 0.0
H219 H 0.81688 0.69874 0.78006 0.0
C220 C 0.70686 0.69214 0.6 0.0
C221 C 0.69672 0.74846 0.5684 0.0
C222 C 0.72601 0.70088 0.64755 0.0
C223 C 0.73598 0.76611 0.66389 0.0
C224 C 0.72588 0.82224 0.63163 0.0
C225 C 0.70628 0.81357 0.58497 0.0
C226 C 0.77691 0.84598 0.79171 0.0
C227 C 0.79912 0.79721 0.80418 0.0
C228 C 0.75599 0.83508 0.74743 0.0
C229 C 0.75717 0.77578 0.71352 0.0
C230 C 0.77934 0.72674 0.72662 0.0
C231 C 0.79984 0.73705 0.77175 0.0
H232 H 0.33886 0.85391 0.9049 0.0
H233 H 0.29276 0.66658 0.94517 0.0
H234 H 0.30556 0.87055 0.82253 0.0
H235 H 0.25876 0.6843 0.86387 0.0
H236 H 0.21853 0.9189 0.72346 0.0
H237 H 0.25455 0.89973 0.80115 0.0
H238 H 0.2555 0.68538 0.76142 0.0
H239 H 0.21868 0.70434 0.68492 0.0
C240 C 0.32156 0.81631 0.89626 0.0
C241 C 0.31845 0.75895 0.93172 0.0
C242 C 0.30231 0.82608 0.84916 0.0
C243 C 0.27931 0.779 0.83653 0.0
C244 C 0.27646 0.72118 0.87169 0.0
C245 C 0.29586 0.71117 0.91859 0.0
C246 C 0.22656 0.86773 0.73106 0.0
C247 C 0.21563 0.81315 0.69805 0.0
C248 C 0.24737 0.85672 0.7755 0.0
C249 C 0.25796 0.79092 0.7878 0.0
C250 C 0.24747 0.73655 0.75391 0.0
C251 C 0.2265 0.7475 0.70972 0.0
H252 H 0.31565 0.81186 0.22157 0.0
H253 H 0.27353 0.61964 0.18251 0.0
H254 H 0.28017 0.82896 0.30049 0.0
H255 H 0.23692 0.63808 0.25887 0.0
H256 H 0.19955 0.64814 0.43968 0.0
H257 H 0.23324 0.63537 0.35798 0.0
H258 H 0.23103 0.8525 0.33058 0.0
H259 H 0.1986 0.86522 0.41468 0.0
C260 C 0.29839 0.77392 0.22918 0.0
C261 C 0.2975 0.71421 0.19621 0.0
C262 C 0.27789 0.78377 0.27432 0.0
C263 C 0.25568 0.73462 0.28681 0.0
C264 C 0.25414 0.67625 0.25192 0.0
C265 C 0.27498 0.66586 0.20766 0.0
C266 C 0.20621 0.69311 0.4161 0.0
C267 C 0.19644 0.75766 0.43366 0.0
C268 C 0.22541 0.68584 0.3688 0.0
C269 C 0.23489 0.74284 0.337 0.0
C270 C 0.22472 0.80745 0.35433 0.0
C271 C 0.20594 0.8148 0.40238 0.0
H272 H 0.06403 0.15172 0.16192 0.0
H273 H 0.07673 0.36486 0.19748 0.0
H274 H 0.01606 0.15378 0.21112 0.0
H275 H 0.02911 0.36633 0.25155 0.0
H276 H 0.92807 0.3569 0.30109 0.0
H277 H 0.97602 0.36205 0.24819 0.0
H278 H 0.99558 0.15578 0.30056 0.0
H279 H 0.94729 0.1496 0.34854 0.0
C280 C 0.05686 0.19878 0.18188 0.0
C281 C 0.07433 0.25785 0.17692 0.0
C282 C 0.02927 0.20002 0.21044 0.0
C283 C 0.01872 0.25992 0.23661 0.0
C284 C 0.0363 0.31936 0.23164 0.0
C285 C 0.06372 0.3185 0.20132 0.0
C286 C 0.94262 0.31267 0.3002 0.0
C287 C 0.93374 0.25235 0.32741 0.0
C288 C 0.97022 0.31569 0.27056 0.0
C289 C 0.98967 0.25896 0.26913 0.0
C290 C 0.98091 0.1997 0.29845 0.0
C291 C 0.95316 0.19612 0.3263 0.0
H292 H 0.44042 0.13068 0.65437 0.0
H293 H 0.42971 0.33407 0.72139 0.0
H294 H 0.48951 0.12202 0.70268 0.0
H295 H 0.47841 0.32501 0.76951 0.0
H296 H 0.56396 0.12578 0.85002 0.0
H297 H 0.51493 0.12171 0.80108 0.0
H298 H 0.53111 0.32119 0.73079 0.0
H299 H 0.57977 0.3257 0.77956 0.0
C300 C 0.44821 0.17297 0.68025 0.0
C301 C 0.43126 0.23332 0.68357 0.0
C302 C 0.47634 0.16798 0.70777 0.0
C303 C 0.48801 0.22337 0.73875 0.0
C304 C 0.47028 0.28211 0.74471 0.0
C305 C 0.44222 0.28701 0.71755 0.0
C306 C 0.5573 0.16821 0.82323 0.0
C307 C 0.57565 0.22638 0.8192 0.0
C308 C 0.52921 0.16585 0.79533 0.0
C309 C 0.51898 0.22174 0.76324 0.0
C310 C 0.53813 0.27804 0.75644 0.0
C311 C 0.56614 0.28032 0.784 0.0
H312 H 0.06635 0.85268 0.66546 0.0
H313 H 0.08235 0.64004 0.69848 0.0
H314 H 0.01846 0.84616 0.71443 0.0
H315 H 0.03457 0.63408 0.75204 0.0
H316 H 0.93252 0.63767 0.79926 0.0
H317 H 0.98089 0.63564 0.7473 0.0
H318 H 0.99885 0.84064 0.80512 0.0
H319 H 0.95028 0.84385 0.85223 0.0
C320 C 0.05994 0.80474 0.68477 0.0
C321 C 0.07838 0.74717 0.67925 0.0
C322 C 0.03238 0.80095 0.71316 0.0
C323 C 0.02272 0.73991 0.73851 0.0
C324 C 0.04115 0.68187 0.73284 0.0
C325 C 0.06864 0.68532 0.70281 0.0
C326 C 0.94682 0.6823 0.79976 0.0
C327 C 0.9374 0.74153 0.82813 0.0
C328 C 0.97463 0.68104 0.77068 0.0
C329 C 0.99369 0.73845 0.77098 0.0
C330 C 0.98445 0.79637 0.8017 0.0
C331 C 0.95654 0.79824 0.82899 0.0
H332 H 0.43046 0.67026 0.22094 0.0
H333 H 0.44665 0.87106 0.15261 0.0
H334 H 0.47869 0.67454 0.27134 0.0
H335 H 0.49522 0.87487 0.20307 0.0
H336 H 0.56834 0.86711 0.35111 0.0
H337 H 0.5195 0.87454 0.30178 0.0
H338 H 0.53183 0.67151 0.23577 0.0
H339 H 0.58028 0.66366 0.28499 0.0
C340 C 0.44408 0.71575 0.21728 0.0
C341 C 0.4348 0.77007 0.18229 0.0
C342 C 0.47185 0.71789 0.24576 0.0
C343 C 0.49096 0.77446 0.24013 0.0
C344 C 0.48097 0.83055 0.20801 0.0
C345 C 0.45315 0.82832 0.1792 0.0
C346 C 0.56084 0.82449 0.3253 0.0
C347 C 0.5781 0.76457 0.32239 0.0
C348 C 0.53287 0.82878 0.29716 0.0
C349 C 0.52164 0.77311 0.26594 0.0
C350 C 0.53962 0.71463 0.26068 0.0
C351 C 0.56753 0.71043 0.28847 0.0
H352 H 0.09173 0.98076 0.06521 0.0
H353 H 0.06115 0.15574 0.96957 0.0
H354 H 0.04229 0.92901 0.0547 0.0
H355 H 0.01189 0.10229 0.95608 0.0
H356 H 0.91732 0.02362 0.99094 0.0
H357 H 0.96708 0.07508 0.00468 0.0
H358 H 0.00836 0.87642 0.99388 0.0
H359 H 0.95886 0.82539 0.98361 0.0
C360 C 0.07468 0.00742 0.04045 0.0
C361 C 0.08048 0.07236 0.01806 0.0
C362 C 0.04616 0.97764 0.03438 0.0
C363 C 0.02275 0.01142 0.00484 0.0
C364 C 0.029 0.07528 0.98035 0.0
C365 C 0.05743 0.10559 0.98728 0.0
C366 C 0.93704 0.99103 0.99275 0.0
C367 C 0.93404 0.9204 0.98684 0.0
C368 C 0.96567 0.02053 0.99975 0.0
C369 C 0.99202 0.98017 0.99993 0.0
C370 C 0.98877 0.90936 0.99505 0.0
C371 C 0.96021 0.87991 0.98915 0.0
H372 H 0.56193 0.65511 0.53094 0.0
H373 H 0.59105 0.47662 0.43829 0.0
H374 H 0.5126 0.60285 0.54671 0.0
H375 H 0.54159 0.42612 0.451 0.0
H376 H 0.45816 0.32619 0.52509 0.0
H377 H 0.50793 0.37587 0.51347 0.0
H378 H 0.46745 0.57508 0.4992 0.0
H379 H 0.41757 0.52514 0.5142 0.0
C380 C 0.55788 0.60453 0.51433 0.0
C381 C 0.58052 0.56997 0.48367 0.0
C382 C 0.52942 0.57485 0.5226 0.0
C383 C 0.52277 0.51033 0.4996 0.0
C384 C 0.54579 0.47531 0.47019 0.0
C385 C 0.57431 0.50444 0.46279 0.0
C386 C 0.4598 0.3805 0.51856 0.0
C387 C 0.43385 0.42168 0.52025 0.0
C388 C 0.48847 0.40918 0.51189 0.0
C389 C 0.49199 0.4798 0.50563 0.0
C390 C 0.46583 0.52073 0.50525 0.0
C391 C 0.43714 0.49207 0.51299 0.0
H392 H 0.4502 0.65653 0.97149 0.0
H393 H 0.4199 0.4828 0.06884 0.0
H394 H 0.4988 0.60109 0.95543 0.0
H395 H 0.46873 0.42905 0.05571 0.0
H396 H 0.55011 0.32204 0.98004 0.0
H397 H 0.50112 0.37507 0.99271 0.0
H398 H 0.54411 0.572 0.00188 0.0
H399 H 0.59322 0.51861 0.98588 0.0
C400 C 0.45385 0.6063 0.98913 0.0
C401 C 0.43109 0.57397 0.02112 0.0
C402 C 0.4819 0.57482 0.98066 0.0
C403 C 0.48803 0.51065 0.00476 0.0
C404 C 0.4649 0.47787 0.03565 0.0
C405 C 0.43675 0.50884 0.04328 0.0
C406 C 0.54921 0.37661 0.98559 0.0
C407 C 0.57563 0.41608 0.98222 0.0
C408 C 0.52098 0.4072 0.99292 0.0
C409 C 0.51838 0.47813 0.99813 0.0
C410 C 0.54501 0.51743 0.99672 0.0
C411 C 0.57327 0.48681 0.98836 0.0
H412 H 0.05408 0.82854 0.52431 0.0
H413 H 0.09332 0.02853 0.5102 0.0
H414 H 1.00393 0.87649 0.51439 0.0
H415 H 0.04289 0.07677 0.4968 0.0
H416 H 0.94813 0.15387 0.53143 0.0
H417 H 0.99807 0.10374 0.54553 0.0
H418 H 0.96909 0.92454 0.45299 0.0
H419 H 0.91907 0.97297 0.44197 0.0
C420 C 0.05206 0.88272 0.51733 0.0
C421 C 0.07778 0.92466 0.51756 0.0
C422 C 0.02313 0.91041 0.51165 0.0
C423 C 0.01906 0.9808 0.50492 0.0
C424 C 0.04495 0.02255 0.50317 0.0
C425 C 0.07395 0.99486 0.50996 0.0
C426 C 0.95231 0.10316 0.51525 0.0
C427 C 0.9295 0.06732 0.48596 0.0
C428 C 0.98112 0.07473 0.52251 0.0
C429 C 0.98796 0.01015 0.49988 0.0
C430 C 0.96478 0.97382 0.4719 0.0
C431 C 0.93593 0.00174 0.46551 0.0
loop_
_geom_bond_atom_site_label_1
_geom_bond_atom_site_label_2
_geom_bond_distance
_geom_bond_site_symmetry_2
_ccdc_geom_bond_type
C0 O2 1.247 . S
C0 O4 1.258 . S
C1 O8 1.247 . S
C1 O9 1.258 . S
O2 C0 1.247 . S
O2 Zn3 2.028 . S
Zn3 O2 2.028 . S
Zn3 O7 2.035 . S
Zn3 O9 2.035 . S
Zn3 O10 2.028 . S
O4 C0 1.258 . S
O4 Zn5 2.035 . S
Zn5 O4 2.035 . S
Zn5 O6 2.028 . S
Zn5 O8 2.028 . S
Zn5 O11 2.035 . S
O6 Zn5 2.028 . S
O6 C12 1.247 . S
O7 Zn3 2.035 . S
O7 C12 1.258 . S
O8 C1 1.247 . S
O8 Zn5 2.028 . S
O9 C1 1.258 . S
O9 Zn3 2.035 . S
O10 Zn3 2.028 . S
O10 C13 1.247 . S
O11 Zn5 2.035 . S
O11 C13 1.258 . S
C12 O6 1.247 . S
C12 O7 1.258 . S
C13 O10 1.247 . S
C13 O11 1.258 . S
C14 O16 1.247 . S
C14 O18 1.258 . S
C15 O22 1.247 . S
C15 O23 1.258 . S
O16 C14 1.247 . S
O16 Zn17 2.028 . S
Zn17 O16 2.028 . S
Zn17 O21 2.035 . S
Zn17 O23 2.035 . S
Zn17 O24 2.028 . S
O18 C14 1.258 . S
O18 Zn19 2.035 . S
Zn19 O18 2.035 . S
Zn19 O20 2.028 . S
Zn19 O22 2.028 . S
Zn19 O25 2.035 . S
O20 Zn19 2.028 . S
O20 C26 1.247 . S
O21 Zn17 2.035 . S
O21 C26 1.258 . S
O22 C15 1.247 . S
O22 Zn19 2.028 . S
O23 C15 1.258 . S
O23 Zn17 2.035 . S
O24 Zn17 2.028 . S
O24 C27 1.247 . S
O25 Zn19 2.035 . S
O25 C27 1.258 . S
C26 O20 1.247 . S
C26 O21 1.258 . S
C27 O24 1.247 . S
C27 O25 1.258 . S
C28 O30 1.247 . S
C28 O32 1.258 . S
C29 O36 1.247 . S
C29 O37 1.258 . S
O30 C28 1.247 . S
O30 Zn31 2.028 . S
Zn31 O30 2.028 . S
Zn31 O35 2.035 . S
Zn31 O37 2.035 . S
Zn31 O38 2.028 . S
O32 C28 1.258 . S
O32 Zn33 2.035 . S
Zn33 O32 2.035 . S
Zn33 O34 2.028 . S
Zn33 O36 2.028 . S
Zn33 O39 2.035 . S
O34 Zn33 2.028 . S
O34 C40 1.247 . S
O35 Zn31 2.035 . S
O35 C40 1.258 . S
O36 C29 1.247 . S
O36 Zn33 2.028 . S
O37 C29 1.258 . S
O37 Zn31 2.035 . S
O38 Zn31 2.028 . S
O38 C41 1.247 . S
O39 Zn33 2.035 . S
O39 C41 1.258 . S
C40 O34 1.247 . S
C40 O35 1.258 . S
C41 O38 1.247 . S
C41 O39 1.258 . S
C42 O44 1.247 . S
C42 O46 1.258 . S
C43 O50 1.247 . S
C43 O51 1.258 . S
O44 C42 1.247 . S
O44 Zn45 2.028 . S
Zn45 O44 2.028 . S
Zn45 O49 2.035 . S
Zn45 O51 2.035 . S
Zn45 O52 2.028 . S
O46 C42 1.258 . S
O46 Zn47 2.035 . S
Zn47 O46 2.035 . S
Zn47 O48 2.028 . S
Zn47 O50 2.028 . S
Zn47 O53 2.035 . S
O48 Zn47 2.028 . S
O48 C54 1.247 . S
O49 Zn45 2.035 . S
O49 C54 1.258 . S
O50 C43 1.247 . S
O50 Zn47 2.028 . S
O51 C43 1.258 . S
O51 Zn45 2.035 . S
O52 Zn45 2.028 . S
O52 C55 1.247 . S
O53 Zn47 2.035 . S
O53 C55 1.258 . S
C54 O48 1.247 . S
C54 O49 1.258 . S
C55 O52 1.247 . S
C55 O53 1.258 . S
C56 O58 1.247 . S
C56 O60 1.258 . S
C57 O64 1.247 . S
C57 O65 1.258 . S
O58 C56 1.247 . S
O58 Zn59 2.028 . S
Zn59 O58 2.028 . S
Zn59 O63 2.035 . S
Zn59 O65 2.035 . S
Zn59 O66 2.028 . S
O60 C56 1.258 . S
O60 Zn61 2.035 . S
Zn61 O60 2.035 . S
Zn61 O62 2.028 . S
Zn61 O64 2.028 . S
Zn61 O67 2.035 . S
O62 Zn61 2.028 . S
O62 C68 1.247 . S
O63 Zn59 2.035 . S
O63 C68 1.258 . S
O64 C57 1.247 . S
O64 Zn61 2.028 . S
O65 C57 1.258 . S
O65 Zn59 2.035 . S
O66 Zn59 2.028 . S
O66 C69 1.247 . S
O67 Zn61 2.035 . S
O67 C69 1.258 . S
C68 O62 1.247 . S
C68 O63 1.258 . S
C69 O66 1.247 . S
C69 O67 1.258 . S
C70 O72 1.247 . S
C70 O74 1.258 . S
C71 O78 1.247 . S
C71 O79 1.258 . S
O72 C70 1.247 . S
O72 Zn73 2.028 . S
Zn73 O72 2.028 . S
Zn73 O77 2.035 . S
Zn73 O79 2.035 . S
Zn73 O80 2.028 . S
O74 C70 1.258 . S
O74 Zn75 2.035 . S
Zn75 O74 2.035 . S
Zn75 O76 2.028 . S
Zn75 O78 2.028 . S
Zn75 O81 2.035 . S
O76 Zn75 2.028 . S
O76 C82 1.247 . S
O77 Zn73 2.035 . S
O77 C82 1.258 . S
O78 C71 1.247 . S
O78 Zn75 2.028 . S
O79 C71 1.258 . S
O79 Zn73 2.035 . S
O80 Zn73 2.028 . S
O80 C83 1.247 . S
O81 Zn75 2.035 . S
O81 C83 1.258 . S
C82 O76 1.247 . S
C82 O77 1.258 . S
C83 O80 1.247 . S
C83 O81 1.258 . S
C84 O86 1.247 . S
C84 O88 1.258 . S
C85 O92 1.247 . S
C85 O93 1.258 . S
O86 C84 1.247 . S
O86 Zn87 2.028 . S
Zn87 O86 2.028 . S
Zn87 O91 2.035 . S
Zn87 O93 2.035 . S
Zn87 O94 2.028 . S
O88 C84 1.258 . S
O88 Zn89 2.035 . S
Zn89 O88 2.035 . S
Zn89 O90 2.028 . S
Zn89 O92 2.028 . S
Zn89 O95 2.035 . S
O90 Zn89 2.028 . S
O90 C96 1.247 . S
O91 Zn87 2.035 . S
O91 C96 1.258 . S
O92 C85 1.247 . S
O92 Zn89 2.028 . S
O93 C85 1.258 . S
O93 Zn87 2.035 . S
O94 Zn87 2.028 . S
O94 C97 1.247 . S
O95 Zn89 2.035 . S
O95 C97 1.258 . S
C96 O90 1.247 . S
C96 O91 1.258 . S
C97 O94 1.247 . S
C97 O95 1.258 . S
C98 O100 1.247 . S
C98 O102 1.258 . S
C99 O106 1.247 . S
C99 O107 1.258 . S
O100 C98 1.247 . S
O100 Zn101 2.028 . S
Zn101 O100 2.028 . S
Zn101 O105 2.035 . S
Zn101 O107 2.035 . S
Zn101 O108 2.028 . S
O102 C98 1.258 . S
O102 Zn103 2.035 . S
Zn103 O102 2.035 . S
Zn103 O104 2.028 . S
Zn103 O106 2.028 . S
Zn103 O109 2.035 . S
O104 Zn103 2.028 . S
O104 C110 1.247 . S
O105 Zn101 2.035 . S
O105 C110 1.258 . S
O106 C99 1.247 . S
O106 Zn103 2.028 . S
O107 C99 1.258 . S
O107 Zn101 2.035 . S
O108 Zn101 2.028 . S
O108 C111 1.247 . S
O109 Zn103 2.035 . S
O109 C111 1.258 . S
C110 O104 1.247 . S
C110 O105 1.258 . S
C111 O108 1.247 . S
C111 O109 1.258 . S
H112 C120 0.950 . S
H113 C125 0.950 . S
H114 C122 0.950 . S
H115 C124 0.950 . S
H116 C126 0.950 . S
H117 C128 0.950 . S
H118 C130 0.950 . S
H119 C131 0.950 . S
C120 H112 0.950 . S
C120 C121 1.386 . S
C120 C122 1.391 . S
C121 C120 1.386 . S
C121 C125 1.393 . S
C122 H114 0.950 . S
C122 C120 1.391 . S
C122 C123 1.400 . S
C123 C122 1.400 . S
C123 C124 1.398 . S
C123 C129 1.491 . S
C124 H115 0.950 . S
C124 C123 1.398 . S
C124 C125 1.391 . S
C125 H113 0.950 . S
C125 C121 1.393 . S
C125 C124 1.391 . S
C126 H116 0.950 . S
C126 C127 1.386 . S
C126 C128 1.391 . S
C127 C126 1.386 . S
C127 C131 1.393 . S
C128 H117 0.950 . S
C128 C126 1.391 . S
C128 C129 1.400 . S
C129 C123 1.491 . S
C129 C128 1.400 . S
C129 C130 1.398 . S
C130 H118 0.950 . S
C130 C129 1.398 . S
C130 C131 1.391 . S
C131 H119 0.950 . S
C131 C127 1.393 . S
C131 C130 1.391 . S
H132 C140 0.950 . S
H133 C145 0.950 . S
H134 C142 0.950 . S
H135 C144 0.950 . S
H136 C146 0.950 . S
H137 C148 0.950 . S
H138 C150 0.950 . S
H139 C151 0.950 . S
C140 H132 0.950 . S
C140 C141 1.386 . S
C140 C142 1.391 . S
C141 C140 1.386 . S
C141 C145 1.393 . S
C142 H134 0.950 . S
C142 C140 1.391 . S
C142 C143 1.400 . S
C143 C142 1.400 . S
C143 C144 1.398 . S
C143 C149 1.491 . S
C144 H135 0.950 . S
C144 C143 1.398 . S
C144 C145 1.391 . S
C145 H133 0.950 . S
C145 C141 1.393 . S
C145 C144 1.391 . S
C146 H136 0.950 . S
C146 C147 1.386 . S
C146 C148 1.391 . S
C147 C146 1.386 . S
C147 C151 1.393 . S
C148 H137 0.950 . S
C148 C146 1.391 . S
C148 C149 1.400 . S
C149 C143 1.491 . S
C149 C148 1.400 . S
C149 C150 1.398 . S
C150 H138 0.950 . S
C150 C149 1.398 . S
C150 C151 1.391 . S
C151 H139 0.950 . S
C151 C147 1.393 . S
C151 C150 1.391 . S
H152 C160 0.950 . S
H153 C165 0.950 . S
H154 C162 0.950 . S
H155 C164 0.950 . S
H156 C166 0.950 . S
H157 C168 0.950 . S
H158 C170 0.950 . S
H159 C171 0.950 1_556 S
C160 H152 0.950 . S
C160 C161 1.386 . S
C160 C162 1.391 . S
C161 C160 1.386 . S
C161 C165 1.393 . S
C162 H154 0.950 . S
C162 C160 1.391 . S
C162 C163 1.400 . S
C163 C162 1.400 . S
C163 C164 1.398 . S
C163 C169 1.491 . S
C164 H155 0.950 . S
C164 C163 1.398 . S
C164 C165 1.391 . S
C165 H153 0.950 . S
C165 C161 1.393 . S
C165 C164 1.391 . S
C166 H156 0.950 . S
C166 C167 1.386 . S
C166 C168 1.391 . S
C167 C166 1.386 . S
C167 C171 1.393 . S
C168 H157 0.950 . S
C168 C166 1.391 . S
C168 C169 1.400 . S
C169 C163 1.491 . S
C169 C168 1.400 . S
C169 C170 1.398 . S
C170 H158 0.950 . S
C170 C169 1.398 . S
C170 C171 1.391 . S
C171 H159 0.950 1_554 S
C171 C167 1.393 . S
C171 C170 1.391 . S
H172 C180 0.950 . S
H173 C185 0.950 . S
H174 C182 0.950 . S
H175 C184 0.950 . S
H176 C186 0.950 . S
H177 C188 0.950 . S
H178 C190 0.950 . S
H179 C191 0.950 . S
C180 H172 0.950 . S
C180 C181 1.386 . S
C180 C182 1.391 . S
C181 C180 1.386 . S
C181 C185 1.393 . S
C182 H174 0.950 . S
C182 C180 1.391 . S
C182 C183 1.400 . S
C183 C182 1.400 . S
C183 C184 1.398 . S
C183 C189 1.491 . S
C184 H175 0.950 . S
C184 C183 1.398 . S
C184 C185 1.391 . S
C185 H173 0.950 . S
C185 C181 1.393 . S
C185 C184 1.391 . S
C186 H176 0.950 . S
C186 C187 1.386 . S
C186 C188 1.391 . S
C187 C186 1.386 . S
C187 C191 1.393 . S
C188 H177 0.950 . S
C188 C186 1.391 . S
C188 C189 1.400 . S
C189 C183 1.491 . S
C189 C188 1.400 . S
C189 C190 1.398 . S
C190 H178 0.950 . S
C190 C189 1.398 . S
C190 C191 1.391 . S
C191 H179 0.950 . S
C191 C187 1.393 . S
C191 C190 1.391 . S
H192 C200 0.950 1_556 S
H193 C205 0.950 . S
H194 C202 0.950 . S
H195 C204 0.950 . S
H196 C206 0.950 . S
H197 C208 0.950 . S
H198 C210 0.950 . S
H199 C211 0.950 . S
C200 H192 0.950 1_554 S
C200 C201 1.386 . S
C200 C202 1.391 . S
C201 C200 1.386 . S
C201 C205 1.393 . S
C202 H194 0.950 . S
C202 C200 1.391 . S
C202 C203 1.400 . S
C203 C202 1.400 . S
C203 C204 1.398 . S
C203 C209 1.491 . S
C204 H195 0.950 . S
C204 C203 1.398 . S
C204 C205 1.391 . S
C205 H193 0.950 . S
C205 C201 1.393 . S
C205 C204 1.391 . S
C206 H196 0.950 . S
C206 C207 1.386 . S
C206 C208 1.391 . S
C207 C206 1.386 . S
C207 C211 1.393 . S
C208 H197 0.950 . S
C208 C206 1.391 . S
C208 C209 1.400 . S
C209 C203 1.491 . S
C209 C208 1.400 . S
C209 C210 1.398 . S
C210 H198 0.950 . S
C210 C209 1.398 . S
C210 C211 1.391 . S
C211 H199 0.950 . S
C211 C207 1.393 . S
C211 C210 1.391 . S
H212 C220 0.950 . S
H213 C225 0.950 . S
H214 C222 0.950 . S
H215 C224 0.950 . S
H216 C226 0.950 . S
H217 C228 0.950 . S
H218 C230 0.950 . S
H219 C231 0.950 . S
C220 H212 0.950 . S
C220 C221 1.386 . S
C220 C222 1.391 . S
C221 C220 1.386 . S
C221 C225 1.393 . S
C222 H214 0.950 . S
C222 C220 1.391 . S
C222 C223 1.400 . S
C223 C222 1.400 . S
C223 C224 1.398 . S
C223 C229 1.491 . S
C224 H215 0.950 . S
C224 C223 1.398 . S
C224 C225 1.391 . S
C225 H213 0.950 . S
C225 C221 1.393 . S
C225 C224 1.391 . S
C226 H216 0.950 . S
C226 C227 1.386 . S
C226 C228 1.391 . S
C227 C226 1.386 . S
C227 C231 1.393 . S
C228 H217 0.950 . S
C228 C226 1.391 . S
C228 C229 1.400 . S
C229 C223 1.491 . S
C229 C228 1.400 . S
C229 C230 1.398 . S
C230 H218 0.950 . S
C230 C229 1.398 . S
C230 C231 1.391 . S
C231 H219 0.950 . S
C231 C227 1.393 . S
C231 C230 1.391 . S
H232 C240 0.950 . S
H233 C245 0.950 1_554 S
H234 C242 0.950 . S
H235 C244 0.950 . S
H236 C246 0.950 . S
H237 C248 0.950 . S
H238 C250 0.950 . S
H239 C251 0.950 . S
C240 H232 0.950 . S
C240 C241 1.386 . S
C240 C242 1.391 . S
C241 C240 1.386 . S
C241 C245 1.393 . S
C242 H234 0.950 . S
C242 C240 1.391 . S
C242 C243 1.400 . S
C243 C242 1.400 . S
C243 C244 1.398 . S
C243 C249 1.491 . S
C244 H235 0.950 . S
C244 C243 1.398 . S
C244 C245 1.391 . S
C245 H233 0.950 1_556 S
C245 C241 1.393 . S
C245 C244 1.391 . S
C246 H236 0.950 . S
C246 C247 1.386 . S
C246 C248 1.391 . S
C247 C246 1.386 . S
C247 C251 1.393 . S
C248 H237 0.950 . S
C248 C246 1.391 . S
C248 C249 1.400 . S
C249 C243 1.491 . S
C249 C248 1.400 . S
C249 C250 1.398 . S
C250 H238 0.950 . S
C250 C249 1.398 . S
C250 C251 1.391 . S
C251 H239 0.950 . S
C251 C247 1.393 . S
C251 C250 1.391 . S
H252 C260 0.950 . S
H253 C265 0.950 . S
H254 C262 0.950 . S
H255 C264 0.950 . S
H256 C266 0.950 . S
H257 C268 0.950 . S
H258 C270 0.950 . S
H259 C271 0.950 . S
C260 H252 0.950 . S
C260 C261 1.386 . S
C260 C262 1.391 . S
C261 C260 1.386 . S
C261 C265 1.393 . S
C262 H254 0.950 . S
C262 C260 1.391 . S
C262 C263 1.400 . S
C263 C262 1.400 . S
C263 C264 1.398 . S
C263 C269 1.491 . S
C264 H255 0.950 . S
C264 C263 1.398 . S
C264 C265 1.391 . S
C265 H253 0.950 . S
C265 C261 1.393 . S
C265 C264 1.391 . S
C266 H256 0.950 . S
C266 C267 1.386 . S
C266 C268 1.391 . S
C267 C266 1.386 . S
C267 C271 1.393 . S
C268 H257 0.950 . S
C268 C266 1.391 . S
C268 C269 1.400 . S
C269 C263 1.491 . S
C269 C268 1.400 . S
C269 C270 1.398 . S
C270 H258 0.950 . S
C270 C269 1.398 . S
C270 C271 1.391 . S
C271 H259 0.950 . S
C271 C267 1.393 . S
C271 C270 1.391 . S
H272 C280 0.950 . S
H273 C285 0.950 . S
H274 C282 0.950 . S
H275 C284 0.950 . S
H276 C286 0.950 . S
H277 C288 0.950 . S
H278 C290 0.950 . S
H279 C291 0.950 . S
C280 H272 0.950 . S
C280 C281 1.386 . S
C280 C282 1.391 . S
C281 C280 1.386 . S
C281 C285 1.393 . S
C282 H274 0.950 . S
C282 C280 1.391 . S
C282 C283 1.400 . S
C283 C282 1.400 . S
C283 C284 1.398 . S
C283 C289 1.491 1_455 S
C284 H275 0.950 . S
C284 C283 1.398 . S
C284 C285 1.391 . S
C285 H273 0.950 . S
C285 C281 1.393 . S
C285 C284 1.391 . S
C286 H276 0.950 . S
C286 C287 1.386 . S
C286 C288 1.391 . S
C287 C286 1.386 . S
C287 C291 1.393 . S
C288 H277 0.950 . S
C288 C286 1.391 . S
C288 C289 1.400 . S
C289 C283 1.491 1_655 S
C289 C288 1.400 . S
C289 C290 1.398 . S
C290 H278 0.950 . S
C290 C289 1.398 . S
C290 C291 1.391 . S
C291 H279 0.950 . S
C291 C287 1.393 . S
C291 C290 1.391 . S
H292 C300 0.950 . S
H293 C305 0.950 . S
H294 C302 0.950 . S
H295 C304 0.950 . S
H296 C306 0.950 . S
H297 C308 0.950 . S
H298 C310 0.950 . S
H299 C311 0.950 . S
C300 H292 0.950 . S
C300 C301 1.386 . S
C300 C302 1.391 . S
C301 C300 1.386 . S
C301 C305 1.393 . S
C302 H294 0.950 . S
C302 C300 1.391 . S
C302 C303 1.400 . S
C303 C302 1.400 . S
C303 C304 1.398 . S
C303 C309 1.491 . S
C304 H295 0.950 . S
C304 C303 1.398 . S
C304 C305 1.391 . S
C305 H293 0.950 . S
C305 C301 1.393 . S
C305 C304 1.391 . S
C306 H296 0.950 . S
C306 C307 1.386 . S
C306 C308 1.391 . S
C307 C306 1.386 . S
C307 C311 1.393 . S
C308 H297 0.950 . S
C308 C306 1.391 . S
C308 C309 1.400 . S
C309 C303 1.491 . S
C309 C308 1.400 . S
C309 C310 1.398 . S
C310 H298 0.950 . S
C310 C309 1.398 . S
C310 C311 1.391 . S
C311 H299 0.950 . S
C311 C307 1.393 . S
C311 C310 1.391 . S
H312 C320 0.950 . S
H313 C325 0.950 . S
H314 C322 0.950 . S
H315 C324 0.950 . S
H316 C326 0.950 . S
H317 C328 0.950 . S
H318 C330 0.950 . S
H319 C331 0.950 . S
C320 H312 0.950 . S
C320 C321 1.386 . S
C320 C322 1.391 . S
C321 C320 1.386 . S
C321 C325 1.393 . S
C322 H314 0.950 . S
C322 C320 1.391 . S
C322 C323 1.400 . S
C323 C322 1.400 . S
C323 C324 1.398 . S
C323 C329 1.491 1_455 S
C324 H315 0.950 . S
C324 C323 1.398 . S
C324 C325 1.391 . S
C325 H313 0.950 . S
C325 C321 1.393 . S
C325 C324 1.391 . S
C326 H316 0.950 . S
C326 C327 1.386 . S
C326 C328 1.391 . S
C327 C326 1.386 . S
C327 C331 1.393 . S
C328 H317 0.950 . S
C328 C326 1.391 . S
C328 C329 1.400 . S
C329 C323 1.491 1_655 S
C329 C328 1.400 . S
C329 C330 1.398 . S
C330 H318 0.950 . S
C330 C329 1.398 . S
C330 C331 1.391 . S
C331 H319 0.950 . S
C331 C327 1.393 . S
C331 C330 1.391 . S
H332 C340 0.950 . S
H333 C345 0.950 . S
H334 C342 0.950 . S
H335 C344 0.950 . S
H336 C346 0.950 . S
H337 C348 0.950 . S
H338 C350 0.950 . S
H339 C351 0.950 . S
C340 H332 0.950 . S
C340 C341 1.386 . S
C340 C342 1.391 . S
C341 C340 1.386 . S
C341 C345 1.393 . S
C342 H334 0.950 . S
C342 C340 1.391 . S
C342 C343 1.400 . S
C343 C342 1.400 . S
C343 C344 1.398 . S
C343 C349 1.491 . S
C344 H335 0.950 . S
C344 C343 1.398 . S
C344 C345 1.391 . S
C345 H333 0.950 . S
C345 C341 1.393 . S
C345 C344 1.391 . S
C346 H336 0.950 . S
C346 C347 1.386 . S
C346 C348 1.391 . S
C347 C346 1.386 . S
C347 C351 1.393 . S
C348 H337 0.950 . S
C348 C346 1.391 . S
C348 C349 1.400 . S
C349 C343 1.491 . S
C349 C348 1.400 . S
C349 C350 1.398 . S
C350 H338 0.950 . S
C350 C349 1.398 . S
C350 C351 1.391 . S
C351 H339 0.950 . S
C351 C347 1.393 . S
C351 C350 1.391 . S
H352 C360 0.950 . S
H353 C365 0.950 . S
H354 C362 0.950 1_565 S
H355 C364 0.950 1_655 S
H356 C366 0.950 . S
H357 C368 0.950 1_545 S
H358 C370 0.950 1_455 S
H359 C371 0.950 . S
C360 H352 0.950 . S
C360 C361 1.386 . S
C360 C362 1.391 . S
C361 C360 1.386 . S
C361 C365 1.393 1_554 S
C362 H354 0.950 1_545 S
C362 C360 1.391 . S
C362 C363 1.400 . S
C363 C362 1.400 . S
C363 C364 1.398 1_554 S
C363 C369 1.491 1_444 S
C364 H355 0.950 1_455 S
C364 C363 1.398 1_556 S
C364 C365 1.391 . S
C365 H353 0.950 . S
C365 C361 1.393 1_556 S
C365 C364 1.391 . S
C366 H356 0.950 . S
C366 C367 1.386 . S
C366 C368 1.391 . S
C367 C366 1.386 . S
C367 C371 1.393 1_556 S
C368 H357 0.950 1_565 S
C368 C366 1.391 . S
C368 C369 1.400 . S
C369 C363 1.491 1_666 S
C369 C368 1.400 . S
C369 C370 1.398 1_556 S
C370 H358 0.950 1_655 S
C370 C369 1.398 1_554 S
C370 C371 1.391 . S
C371 H359 0.950 . S
C371 C367 1.393 1_554 S
C371 C370 1.391 . S
H372 C380 0.950 . S
H373 C385 0.950 . S
H374 C382 0.950 . S
H375 C384 0.950 . S
H376 C386 0.950 . S
H377 C388 0.950 . S
H378 C390 0.950 . S
H379 C391 0.950 . S
C380 H372 0.950 . S
C380 C381 1.386 . S
C380 C382 1.391 . S
C381 C380 1.386 . S
C381 C385 1.393 . S
C382 H374 0.950 . S
C382 C380 1.391 . S
C382 C383 1.400 . S
C383 C382 1.400 . S
C383 C384 1.398 . S
C383 C389 1.491 . S
C384 H375 0.950 . S
C384 C383 1.398 . S
C384 C385 1.391 . S
C385 H373 0.950 . S
C385 C381 1.393 . S
C385 C384 1.391 . S
C386 H376 0.950 . S
C386 C387 1.386 . S
C386 C388 1.391 . S
C387 C386 1.386 . S
C387 C391 1.393 . S
C388 H377 0.950 . S
C388 C386 1.391 . S
C388 C389 1.400 . S
C389 C383 1.491 . S
C389 C388 1.400 . S
C389 C390 1.398 . S
C390 H378 0.950 . S
C390 C389 1.398 . S
C390 C391 1.391 . S
C391 H379 0.950 . S
C391 C387 1.393 . S
C391 C390 1.391 . S
H392 C400 0.950 . S
H393 C405 0.950 . S
H394 C402 0.950 . S
H395 C404 0.950 . S
H396 C406 0.950 . S
H397 C408 0.950 . S
H398 C410 0.950 . S
H399 C411 0.950 . S
C400 H392 0.950 . S
C400 C401 1.386 1_556 S
C400 C402 1.391 . S
C401 C400 1.386 1_554 S
C401 C405 1.393 . S
C402 H394 0.950 . S
C402 C400 1.391 . S
C402 C403 1.400 1_556 S
C403 C402 1.400 1_554 S
C403 C404 1.398 . S
C403 C409 1.491 1_554 S
C404 H395 0.950 . S
C404 C403 1.398 . S
C404 C405 1.391 . S
C405 H393 0.950 . S
C405 C401 1.393 . S
C405 C404 1.391 . S
C406 H396 0.950 . S
C406 C407 1.386 1_554 S
C406 C408 1.391 . S
C407 C406 1.386 1_556 S
C407 C411 1.393 . S
C408 H397 0.950 . S
C408 C406 1.391 . S
C408 C409 1.400 1_554 S
C409 C403 1.491 1_556 S
C409 C408 1.400 1_556 S
C409 C410 1.398 . S
C410 H398 0.950 . S
C410 C409 1.398 . S
C410 C411 1.391 . S
C411 H399 0.950 . S
C411 C407 1.393 . S
C411 C410 1.391 . S
H412 C420 0.950 . S
H413 C425 0.950 . S
H414 C422 0.950 1_655 S
H415 C424 0.950 1_545 S
H416 C426 0.950 . S
H417 C428 0.950 1_455 S
H418 C430 0.950 1_565 S
H419 C431 0.950 . S
C420 H412 0.950 . S
C420 C421 1.386 . S
C420 C422 1.391 . S
C421 C420 1.386 . S
C421 C425 1.393 . S
C422 H414 0.950 1_455 S
C422 C420 1.391 . S
C422 C423 1.400 . S
C423 C422 1.400 . S
C423 C424 1.398 . S
C423 C429 1.491 1_465 S
C424 H415 0.950 1_565 S
C424 C423 1.398 . S
C424 C425 1.391 . S
C425 H413 0.950 . S
C425 C421 1.393 . S
C425 C424 1.391 . S
C426 H416 0.950 . S
C426 C427 1.386 . S
C426 C428 1.391 . S
C427 C426 1.386 . S
C427 C431 1.393 . S
C428 H417 0.950 1_655 S
C428 C426 1.391 . S
C428 C429 1.400 . S
C429 C423 1.491 1_645 S
C429 C428 1.400 . S
C429 C430 1.398 . S
C430 H418 0.950 1_545 S
C430 C429 1.398 . S
C430 C431 1.391 . S
C431 H419 0.950 . S
C431 C427 1.393 . S
C431 C430 1.391 . S
C121 C14 1.985 . S
C127 C13 2.031 1_556 S
C141 C0 1.994 . S
C147 C27 2.031 . S
C161 C42 1.983 . S
C167 C41 2.030 1_554 S
C181 C28 1.994 . S
C187 C55 2.030 . S
C201 C68 2.028 1_554 S
C207 C71 1.990 . S
C221 C82 2.031 . S
C227 C57 1.994 . S
C241 C96 2.029 1_556 S
C247 C99 1.981 . S
C261 C85 1.991 . S
C267 C110 2.033 . S
C281 C12 0.639 . S
C287 C54 0.639 . S
C301 C26 0.623 . S
C307 C40 0.620 . S
C321 C111 0.608 . S
C327 C69 0.608 . S
C341 C97 0.613 . S
C347 C83 0.615 . S
C361 C1 1.831 . S
C367 C56 1.831 . S
C381 C70 1.828 . S
C387 C15 1.828 . S
C401 C84 1.834 . S
C407 C29 1.834 . S
C421 C98 1.817 . S
C427 C43 1.817 . S
