# Generated by pormake.
# Topology uoy, (4)-cn, num edge types: 1
# Building blocks:
#     Node 0, Type 0, BuildingBlock: UXUYUI_clean_sbu_0, # of connection points: 4
#     Node 1, Type 0, BuildingBlock: UXUYUI_clean_sbu_0, # of connection points: 4
#     Node 2, Type 0, BuildingBlock: UXUYUI_clean_sbu_0, # of connection points: 4
#     Node 3, Type 0, BuildingBlock: UXUYUI_clean_sbu_0, # of connection points: 4
#     Node 4, Type 0, BuildingBlock: UXUYUI_clean_sbu_0, # of connection points: 4
#     Node 5, Type 0, BuildingBlock: UXUYUI_clean_sbu_0, # of connection points: 4
#     Node 6, Type 0, BuildingBlock: UXUYUI_clean_sbu_0, # of connection points: 4
#     Node 7, Type 0, BuildingBlock: UXUYUI_clean_sbu_0, # of connection points: 4
#     Node 8, Type 0, BuildingBlock: UXUYUI_clean_sbu_0, # of connection points: 4
#     Node 9, Type 0, BuildingBlock: UXUYUI_clean_sbu_0, # of connection points: 4
#     Node 10, Type 0, BuildingBlock: UXUYUI_clean_sbu_0, # of connection points: 4
#     Node 11, Type 0, BuildingBlock: UXUYUI_clean_sbu_0, # of connection points: 4
#     Node 12, Type 0, BuildingBlock: UXUYUI_clean_sbu_0, # of connection points: 4
#     Node 13, Type 0, BuildingBlock: UXUYUI_clean_sbu_0, # of connection points: 4
#     Node 14, Type 0, BuildingBlock: UXUYUI_clean_sbu_0, # of connection points: 4
#     Node 15, Type 0, BuildingBlock: UXUYUI_clean_sbu_0, # of connection points: 4
#     Edge 16, Type (0, 0), BuildingBlock: TEMPAE_clean_linker_10, # of connection points: 2
#     Edge 17, Type (0, 0), BuildingBlock: TEMPAE_clean_linker_10, # of connection points: 2
#     Edge 18, Type (0, 0), BuildingBlock: TEMPAE_clean_linker_10, # of connection points: 2
#     Edge 19, Type (0, 0), BuildingBlock: TEMPAE_clean_linker_10, # of connection points: 2
#     Edge 20, Type (0, 0), BuildingBlock: TEMPAE_clean_linker_10, # of connection points: 2
#     Edge 21, Type (0, 0), BuildingBlock: TEMPAE_clean_linker_10, # of connection points: 2
#     Edge 22, Type (0, 0), BuildingBlock: TEMPAE_clean_linker_10, # of connection points: 2
#     Edge 23, Type (0, 0), BuildingBlock: TEMPAE_clean_linker_10, # of connection points: 2
#     Edge 24, Type (0, 0), BuildingBlock: TEMPAE_clean_linker_10, # of connection points: 2
#     Edge 25, Type (0, 0), BuildingBlock: TEMPAE_clean_linker_10, # of connection points: 2
#     Edge 26, Type (0, 0), BuildingBlock: TEMPAE_clean_linker_10, # of connection points: 2
#     Edge 27, Type (0, 0), BuildingBlock: TEMPAE_clean_linker_10, # of connection points: 2
#     Edge 28, Type (0, 0), BuildingBlock: TEMPAE_clean_linker_10, # of connection points: 2
#     Edge 29, Type (0, 0), BuildingBlock: TEMPAE_clean_linker_10, # of connection points: 2
#     Edge 30, Type (0, 0), BuildingBlock: TEMPAE_clean_linker_10, # of connection points: 2
#     Edge 31, Type (0, 0), BuildingBlock: TEMPAE_clean_linker_10, # of connection points: 2
#     Edge 32, Type (0, 0), BuildingBlock: TEMPAE_clean_linker_10, # of connection points: 2
#     Edge 33, Type (0, 0), BuildingBlock: TEMPAE_clean_linker_10, # of connection points: 2
#     Edge 34, Type (0, 0), BuildingBlock: TEMPAE_clean_linker_10, # of connection points: 2
#     Edge 35, Type (0, 0), BuildingBlock: TEMPAE_clean_linker_10, # of connection points: 2
#     Edge 36, Type (0, 0), BuildingBlock: TEMPAE_clean_linker_10, # of connection points: 2
#     Edge 37, Type (0, 0), BuildingBlock: TEMPAE_clean_linker_10, # of connection points: 2
#     Edge 38, Type (0, 0), BuildingBlock: TEMPAE_clean_linker_10, # of connection points: 2
#     Edge 39, Type (0, 0), BuildingBlock: TEMPAE_clean_linker_10, # of connection points: 2
#     Edge 40, Type (0, 0), BuildingBlock: TEMPAE_clean_linker_10, # of connection points: 2
#     Edge 41, Type (0, 0), BuildingBlock: TEMPAE_clean_linker_10, # of connection points: 2
#     Edge 42, Type (0, 0), BuildingBlock: TEMPAE_clean_linker_10, # of connection points: 2
#     Edge 43, Type (0, 0), BuildingBlock: TEMPAE_clean_linker_10, # of connection points: 2
#     Edge 44, Type (0, 0), BuildingBlock: TEMPAE_clean_linker_10, # of connection points: 2
#     Edge 45, Type (0, 0), BuildingBlock: TEMPAE_clean_linker_10, # of connection points: 2
#     Edge 46, Type (0, 0), BuildingBlock: TEMPAE_clean_linker_10, # of connection points: 2
#     Edge 47, Type (0, 0), BuildingBlock: TEMPAE_clean_linker_10, # of connection points: 2
# Relax obj value: 0.195
# Max RMSD: 0.201
# Mean RMSD: 0.200
data_MOF--net-uoy--node1-UXUYUI_clean_sbu_0--edge1-TEMPAE_clean_linker_10
_symmetry_space_group_name_H-M    P1
_symmetry_Int_Tables_number       1
_symmetry_cell_setting            triclinic
loop_
_symmetry_equiv_pos_as_xyz
'x, y, z'
_cell_length_a     40.228446
_cell_length_b     40.233743
_cell_length_c     157.35445
_cell_angle_alpha  89.98769
_cell_angle_beta   89.986129
_cell_angle_gamma 89.989976
loop_
_atom_site_label
_atom_site_type_symbol
_atom_site_fract_x
_atom_site_fract_y
_atom_site_fract_z
_atom_type_partial_charge
Li0 Li 0.28723 0.09613 0.18502 0.0
Li1 Li 0.25588 0.13476 0.19292 0.0
Li2 Li 0.22704 0.0886 0.18519 0.0
Li3 Li 0.25401 0.13672 0.17777 0.0
C4 C 0.27216 0.05768 0.19838 0.0
N5 N 0.29975 0.00102 0.20541 0.0
C6 C 0.3015 0.05969 0.20313 0.0
C7 C 0.25691 0.02678 0.19722 0.0
C8 C 0.31505 0.03078 0.20662 0.0
C9 C 0.27122 -0.00155 0.20082 0.0
C10 C 0.30776 0.16826 0.18999 0.0
C11 C 0.31404 0.2252 0.19451 0.0
N12 N 0.33577 0.21522 0.20062 0.0
C13 C 0.3303 0.15859 0.19629 0.0
C14 C 0.29964 0.20185 0.18907 0.0
C15 C 0.34415 0.18269 0.2016 0.0
C16 C 0.35563 0.09365 0.18208 0.0
N17 N 0.32937 0.07378 0.18401 0.0
C18 C 0.36497 0.02619 0.18457 0.0
C19 C 0.33331 0.04041 0.18497 0.0
C20 C 0.39276 0.04642 0.18295 0.0
C21 C 0.3876 0.08049 0.18152 0.0
H22 H 0.35182 0.11989 0.181 0.0
H23 H 0.31203 0.02477 0.18616 0.0
C24 C 0.23762 0.18982 0.20358 0.0
N25 N 0.25302 0.15975 0.20317 0.0
C26 C 0.23591 0.20704 0.21128 0.0
C27 C 0.26574 0.16188 0.21796 0.0
C28 C 0.26674 0.14562 0.21017 0.0
C29 C 0.25 0.19294 0.21861 0.0
H30 H 0.22667 0.20044 0.19794 0.0
H31 H 0.2786 0.1217 0.2097 0.0
C32 C 0.27423 0.06721 0.17039 0.0
N33 N 0.31252 0.02383 0.16096 0.0
C34 C 0.29851 0.07947 0.16487 0.0
C35 C 0.2692 0.03296 0.17108 0.0
C36 C 0.31769 0.05711 0.16017 0.0
C37 C 0.28886 0.01141 0.16626 0.0
C38 C 0.19306 0.15718 0.18185 0.0
C39 C 0.16316 0.14405 0.17881 0.0
C40 C 0.1999 0.19096 0.18071 0.0
C41 C 0.14075 0.1649 0.17461 0.0
C42 C 0.17689 0.21097 0.17646 0.0
N43 N 0.14804 0.19763 0.17353 0.0
C44 C 0.17197 0.05876 0.19261 0.0
C45 C 0.17683 0.04897 0.1778 0.0
C46 C 0.14086 0.04355 0.19277 0.0
N47 N 0.18896 0.06149 0.18519 0.0
C48 C 0.14566 0.03372 0.17765 0.0
C49 C 0.12694 0.03152 0.18518 0.0
H50 H 0.1822 0.06942 0.19836 0.0
H51 H 0.19067 0.05226 0.17196 0.0
C52 C 0.27543 0.18435 0.16577 0.0
N53 N 0.25112 0.16218 0.16771 0.0
C54 C 0.27462 0.20143 0.15806 0.0
C55 C 0.22377 0.17251 0.15452 0.0
C56 C 0.22572 0.15581 0.16226 0.0
C57 C 0.24863 0.19544 0.15229 0.0
H58 H 0.2959 0.18809 0.17011 0.0
H59 H 0.20719 0.13742 0.1639 0.0
O60 O 0.25816 0.08577 0.195 0.0
O61 O 0.29311 0.14486 0.18491 0.0
O62 O 0.25581 0.08864 0.1752 0.0
O63 O 0.21546 0.13706 0.1859 0.0
H64 H 0.31411 0.08315 0.20398 0.0
H65 H 0.2344 0.02455 0.19352 0.0
H66 H 0.33783 0.03198 0.21026 0.0
H67 H 0.25969 0.97441 0.19995 0.0
H68 H 0.30782 0.25125 0.1939 0.0
H69 H 0.33673 0.13271 0.19713 0.0
H70 H 0.28215 0.20981 0.18427 0.0
H71 H 0.36146 0.17552 0.20653 0.0
H72 H 0.36763 -0.00021 0.18571 0.0
H73 H 0.40804 0.09691 0.17997 0.0
H74 H 0.22342 0.23087 0.21152 0.0
H75 H 0.27758 0.15037 0.22339 0.0
H76 H 0.30271 0.10596 0.1643 0.0
H77 H 0.2506 0.02314 0.17537 0.0
H78 H 0.33673 0.0662 0.1559 0.0
H79 H 0.28541 0.98482 0.16676 0.0
H80 H 0.15726 0.11808 0.17967 0.0
H81 H 0.22302 0.2015 0.18293 0.0
H82 H 0.11757 0.15503 0.17221 0.0
H83 H 0.18203 0.23707 0.17548 0.0
H84 H 0.12751 0.04194 0.19873 0.0
H85 H 0.1357 0.02519 0.17164 0.0
H86 H 0.29466 0.21837 0.15652 0.0
H87 H 0.20313 0.16733 0.15031 0.0
Li88 Li 0.89223 0.77909 0.43386 0.0
Li89 Li 0.84735 0.74361 0.43954 0.0
Li90 Li 0.89522 0.71772 0.43329 0.0
Li91 Li 0.85435 0.74793 0.4247 0.0
C92 C 0.92399 0.74992 0.44762 0.0
N93 N 0.98396 0.75759 0.45593 0.0
C94 C 0.92484 0.75238 0.45647 0.0
C95 C 0.95359 0.75149 0.44299 0.0
C96 C 0.95542 0.7562 0.46056 0.0
C97 C 0.98367 0.75533 0.44731 0.0
C98 C 0.82304 0.80379 0.42783 0.0
C99 C 0.77092 0.81251 0.42058 0.0
N100 N 0.78274 0.84165 0.41741 0.0
C101 C 0.83456 0.83394 0.42455 0.0
C102 C 0.79086 0.79309 0.42589 0.0
C103 C 0.81384 0.85269 0.41928 0.0
C104 C 0.92938 0.83338 0.42798 0.0
N105 N 0.91591 0.81929 0.43503 0.0
C106 C 0.93174 0.86587 0.4435 0.0
C107 C 0.91698 0.83463 0.44271 0.0
C108 C 0.94522 0.88149 0.43629 0.0
C109 C 0.94426 0.86464 0.42847 0.0
H110 H 0.92751 0.82082 0.42192 0.0
H111 H 0.90572 0.82288 0.44818 0.0
C112 C 0.82842 0.72083 0.45546 0.0
N113 N 0.81788 0.73971 0.44884 0.0
C114 C 0.81021 0.71991 0.46299 0.0
C115 C 0.76995 0.75696 0.4566 0.0
C116 C 0.78899 0.75714 0.44919 0.0
C117 C 0.78101 0.73886 0.4637 0.0
H118 H 0.85173 0.70753 0.455 0.0
H119 H 0.7814 0.77217 0.44384 0.0
C120 C 0.92412 0.74095 0.41772 0.0
N121 N 0.9657 0.72115 0.40467 0.0
C122 C 0.91232 0.71996 0.41132 0.0
C123 C 0.95698 0.75221 0.41742 0.0
C124 C 0.93375 0.71012 0.4048 0.0
C125 C 0.97763 0.74182 0.41079 0.0
C126 C 0.82637 0.68566 0.43515 0.0
C127 C 0.83835 0.65989 0.44026 0.0
C128 C 0.79209 0.6904 0.43434 0.0
C129 C 0.8158 0.6394 0.44452 0.0
C130 C 0.77035 0.66941 0.43871 0.0
N131 N 0.78255 0.64457 0.44367 0.0
C132 C 0.93815 0.66875 0.4408 0.0
C133 C 0.92022 0.6586 0.4267 0.0
C134 C 0.95343 0.63761 0.44115 0.0
N135 N 0.92202 0.67865 0.43363 0.0
C136 C 0.93526 0.62741 0.42675 0.0
C137 C 0.95168 0.6163 0.43409 0.0
H138 H 0.93786 0.68416 0.44641 0.0
H139 H 0.90576 0.66613 0.42126 0.0
C140 C 0.84325 0.7744 0.40849 0.0
N141 N 0.83406 0.74968 0.41388 0.0
C142 C 0.82939 0.77628 0.40038 0.0
C143 C 0.79749 0.72677 0.4035 0.0
C144 C 0.81179 0.72599 0.41157 0.0
C145 C 0.80629 0.75217 0.39781 0.0
H146 H 0.86152 0.79251 0.41048 0.0
H147 H 0.80539 0.70635 0.41596 0.0
O148 O 0.89418 0.74677 0.44353 0.0
O149 O 0.84319 0.78479 0.43288 0.0
O150 O 0.9034 0.7514 0.42409 0.0
O151 O 0.84806 0.70648 0.43109 0.0
H152 H 0.90208 0.75141 0.46014 0.0
H153 H 0.95332 0.74956 0.43615 0.0
H154 H 0.95647 0.75812 0.46741 0.0
H155 H 0.00678 0.7565 0.44381 0.0
H156 H 0.74609 0.80435 0.41896 0.0
H157 H 0.85928 0.84274 0.42602 0.0
H158 H 0.78156 0.76978 0.42834 0.0
H159 H 0.82251 0.87599 0.41666 0.0
H160 H 0.93228 0.87779 0.44967 0.0
H161 H 0.95383 0.87596 0.42272 0.0
H162 H 0.81998 0.70611 0.46834 0.0
H163 H 0.74749 0.77177 0.45689 0.0
H164 H 0.887 0.71098 0.41142 0.0
H165 H 0.96646 0.76894 0.42222 0.0
H166 H 0.92497 0.6937 0.39984 0.0
H167 H 0.00313 0.75028 0.4105 0.0
H168 H 0.86476 0.65591 0.44101 0.0
H169 H 0.78236 0.71031 0.43045 0.0
H170 H 0.82474 0.61946 0.44853 0.0
H171 H 0.74377 0.67293 0.43818 0.0
H172 H 0.96515 0.62974 0.44701 0.0
H173 H 0.93336 0.61186 0.42115 0.0
H174 H 0.8371 0.79599 0.39613 0.0
H175 H 0.7796 0.70785 0.40176 0.0
Li176 Li 0.21909 0.40838 0.68344 0.0
Li177 Li 0.25237 0.36808 0.69129 0.0
Li178 Li 0.28025 0.40976 0.68198 0.0
Li179 Li 0.25033 0.36263 0.67617 0.0
C180 C 0.25114 0.44782 0.69624 0.0
N181 N 0.24796 0.50928 0.70406 0.0
C182 C 0.24274 0.45022 0.70485 0.0
C183 C 0.2585 0.47668 0.69167 0.0
C184 C 0.24109 0.48152 0.70867 0.0
C185 C 0.25661 0.50751 0.69572 0.0
C186 C 0.19354 0.33945 0.68921 0.0
C187 C 0.18175 0.28577 0.69534 0.0
N188 N 0.15611 0.29934 0.69979 0.0
C189 C 0.16689 0.3528 0.69378 0.0
C190 C 0.20086 0.30561 0.68994 0.0
C191 C 0.14833 0.33213 0.69911 0.0
C192 C 0.15843 0.42593 0.67647 0.0
N193 N 0.17818 0.43189 0.6833 0.0
C194 C 0.136 0.46528 0.68973 0.0
C195 C 0.16772 0.45121 0.68987 0.0
C196 C 0.11481 0.45898 0.68283 0.0
C197 C 0.12647 0.43928 0.6761 0.0
H198 H 0.16736 0.41015 0.67139 0.0
H199 H 0.18345 0.45493 0.69533 0.0
C200 C 0.2777 0.32239 0.70361 0.0
N201 N 0.25443 0.34594 0.70187 0.0
C202 C 0.27844 0.30711 0.71159 0.0
C203 C 0.23137 0.34078 0.71576 0.0
C204 C 0.23158 0.35533 0.70774 0.0
C205 C 0.25515 0.31649 0.71779 0.0
H206 H 0.29583 0.31569 0.69884 0.0
H207 H 0.21342 0.37415 0.70618 0.0
C208 C 0.24708 0.43606 0.66724 0.0
N209 N 0.24784 0.48813 0.65576 0.0
C210 C 0.26015 0.43153 0.65908 0.0
C211 C 0.23368 0.46692 0.66946 0.0
C212 C 0.26054 0.4582 0.6534 0.0
C213 C 0.23449 0.49297 0.6636 0.0
C214 C 0.30955 0.33772 0.67985 0.0
C215 C 0.33825 0.34635 0.67536 0.0
C216 C 0.30034 0.30431 0.68048 0.0
C217 C 0.35695 0.32144 0.67143 0.0
C218 C 0.31966 0.28013 0.67645 0.0
N219 N 0.34731 0.28913 0.67204 0.0
C220 C 0.33505 0.44597 0.68786 0.0
C221 C 0.33296 0.43997 0.67288 0.0
C222 C 0.36617 0.4611 0.68733 0.0
N223 N 0.31926 0.43565 0.6807 0.0
C224 C 0.36418 0.45471 0.67206 0.0
C225 C 0.38137 0.465 0.67936 0.0
H226 H 0.32402 0.44132 0.69402 0.0
H227 H 0.32047 0.43044 0.66733 0.0
C228 C 0.22476 0.31063 0.66592 0.0
N229 N 0.24946 0.33341 0.66677 0.0
C230 C 0.22323 0.29062 0.65868 0.0
C231 C 0.27275 0.3178 0.65342 0.0
C232 C 0.27333 0.33716 0.66075 0.0
C233 C 0.24728 0.29435 0.65227 0.0
H234 H 0.20594 0.30841 0.6708 0.0
H235 H 0.29252 0.35567 0.66157 0.0
O236 O 0.25289 0.41729 0.69242 0.0
O237 O 0.21237 0.35941 0.68407 0.0
O238 O 0.24606 0.40997 0.67284 0.0
O239 O 0.29062 0.36183 0.68363 0.0
H240 H 0.23744 0.4282 0.70854 0.0
H241 H 0.26616 0.47531 0.68511 0.0
H242 H 0.2344 0.48372 0.7153 0.0
H243 H 0.26221 0.53001 0.69224 0.0
H244 H 0.18729 0.25959 0.69601 0.0
H245 H 0.1608 0.37889 0.69331 0.0
H246 H 0.22116 0.29478 0.68639 0.0
H247 H 0.12779 0.34219 0.70273 0.0
H248 H 0.12774 0.47998 0.6951 0.0
H249 H 0.11096 0.43408 0.67063 0.0
H250 H 0.2973 0.28863 0.71293 0.0
H251 H 0.21257 0.3483 0.7203 0.0
H252 H 0.27008 0.40775 0.65716 0.0
H253 H 0.22246 0.47077 0.67562 0.0
H254 H 0.27086 0.45507 0.6471 0.0
H255 H 0.22433 0.517 0.66527 0.0
H256 H 0.34597 0.372 0.67487 0.0
H257 H 0.27837 0.29716 0.68398 0.0
H258 H 0.37911 0.3278 0.66789 0.0
H259 H 0.31266 0.25422 0.67683 0.0
H260 H 0.37889 0.4682 0.69312 0.0
H261 H 0.37512 0.45728 0.6658 0.0
H262 H 0.20333 0.27265 0.65808 0.0
H263 H 0.29147 0.32192 0.64858 0.0
Li264 Li 0.64111 0.75412 0.93916 0.0
Li265 Li 0.59709 0.72466 0.93189 0.0
Li266 Li 0.63741 0.75643 0.92373 0.0
Li267 Li 0.59556 0.7849 0.93223 0.0
C268 C 0.67684 0.70406 0.93069 0.0
N269 N 0.74039 0.67811 0.93022 0.0
C270 C 0.682 0.67015 0.93208 0.0
C271 C 0.70394 0.72474 0.92902 0.0
C272 C 0.71434 0.65751 0.93183 0.0
C273 C 0.73588 0.71117 0.92881 0.0
C274 C 0.58808 0.73588 0.94937 0.0
C275 C 0.56575 0.73076 0.96353 0.0
N276 N 0.57978 0.70011 0.96421 0.0
C277 C 0.60228 0.70433 0.95021 0.0
C278 C 0.56967 0.74923 0.95608 0.0
C279 C 0.5978 0.68664 0.95776 0.0
C280 C 0.67284 0.78364 0.95307 0.0
N281 N 0.66908 0.75449 0.94882 0.0
C282 C 0.69833 0.72511 0.95965 0.0
C283 C 0.6819 0.72562 0.95186 0.0
C284 C 0.70165 0.75463 0.96435 0.0
C285 C 0.68938 0.78435 0.96086 0.0
H286 H 0.66193 0.80614 0.95053 0.0
H287 H 0.67788 0.70263 0.94848 0.0
C288 C 0.58547 0.6603 0.92658 0.0
N289 N 0.57252 0.6845 0.9316 0.0
C290 C 0.57083 0.62893 0.92631 0.0
C291 C 0.5293 0.64814 0.93628 0.0
C292 C 0.54473 0.67927 0.93633 0.0
C293 C 0.54256 0.62242 0.93127 0.0
H294 H 0.60764 0.66526 0.92289 0.0
H295 H 0.53491 0.69903 0.94026 0.0
C296 C 0.66402 0.81978 0.93046 0.0
N297 N 0.70492 0.87402 0.92783 0.0
C298 C 0.6519 0.84799 0.9263 0.0
C299 C 0.69686 0.81934 0.93337 0.0
C300 C 0.67299 0.87511 0.925 0.0
C301 C 0.71717 0.84695 0.93195 0.0
C302 C 0.55528 0.75404 0.9202 0.0
C303 C 0.54546 0.74989 0.91175 0.0
C304 C 0.53118 0.75645 0.92657 0.0
C305 C 0.51161 0.74828 0.9098 0.0
C306 C 0.49759 0.75471 0.92437 0.0
N307 N 0.48858 0.7507 0.9161 0.0
C308 C 0.66354 0.72692 0.90928 0.0
C309 C 0.67347 0.78495 0.90988 0.0
C310 C 0.67932 0.72483 0.90141 0.0
N311 N 0.66096 0.75663 0.91333 0.0
C312 C 0.68948 0.78402 0.90203 0.0
C313 C 0.69239 0.7537 0.89767 0.0
H314 H 0.65293 0.70489 0.91215 0.0
H315 H 0.67075 0.80831 0.91314 0.0
C316 C 0.56874 0.84047 0.94046 0.0
N317 N 0.57058 0.82456 0.93286 0.0
C318 C 0.55473 0.87216 0.94096 0.0
C319 C 0.54409 0.86997 0.92584 0.0
C320 C 0.55822 0.83833 0.92564 0.0
C321 C 0.54283 0.88755 0.93355 0.0
H322 H 0.57932 0.82903 0.94607 0.0
H323 H 0.56063 0.82534 0.91966 0.0
O324 O 0.6453 0.71671 0.93097 0.0
O325 O 0.59243 0.75396 0.94209 0.0
O326 O 0.64357 0.79317 0.93191 0.0
O327 O 0.58838 0.75539 0.92217 0.0
H328 H 0.66123 0.65381 0.93339 0.0
H329 H 0.70032 0.75091 0.92783 0.0
H330 H 0.71872 0.63133 0.93293 0.0
H331 H 0.75709 0.7269 0.92751 0.0
H332 H 0.55158 0.7408 0.96878 0.0
H333 H 0.61667 0.69358 0.9451 0.0
H334 H 0.5586 0.77367 0.95554 0.0
H335 H 0.60868 0.66222 0.95849 0.0
H336 H 0.70663 0.70147 0.96216 0.0
H337 H 0.69158 0.8077 0.96423 0.0
H338 H 0.58207 0.60972 0.92243 0.0
H339 H 0.50733 0.64421 0.94013 0.0
H340 H 0.62664 0.84883 0.92399 0.0
H341 H 0.70659 0.798 0.93673 0.0
H342 H 0.66397 0.89701 0.92175 0.0
H343 H 0.74265 0.84689 0.93415 0.0
H344 H 0.56385 0.74791 0.90674 0.0
H345 H 0.53823 0.75964 0.93315 0.0
H346 H 0.50366 0.74508 0.90329 0.0
H347 H 0.47868 0.75653 0.92924 0.0
H348 H 0.68061 0.70104 0.89821 0.0
H349 H 0.69951 0.8068 0.8994 0.0
H350 H 0.55454 0.88503 0.94701 0.0
H351 H 0.5349 0.88085 0.92 0.0
Li352 Li 0.2425 0.35299 0.06762 0.0
Li353 Li 0.21107 0.39478 0.05991 0.0
Li354 Li 0.23815 0.35013 0.05171 0.0
Li355 Li 0.26964 0.39359 0.05837 0.0
C356 C 0.18965 0.31501 0.06008 0.0
N357 N 0.1642 0.2514 0.05901 0.0
C358 C 0.15561 0.31016 0.05885 0.0
C359 C 0.21082 0.28755 0.0607 0.0
C360 C 0.1432 0.27779 0.05834 0.0
C361 C 0.19745 0.25558 0.06016 0.0
C362 C 0.22875 0.42503 0.0736 0.0
C363 C 0.21474 0.48232 0.07629 0.0
N364 N 0.19402 0.47249 0.08264 0.0
C365 C 0.20751 0.41547 0.08019 0.0
C366 C 0.23259 0.45869 0.07165 0.0
C367 C 0.1901 0.43986 0.08467 0.0
C368 C 0.27181 0.33415 0.083 0.0
N369 N 0.24413 0.33025 0.07816 0.0
C370 C 0.21785 0.29873 0.08912 0.0
C371 C 0.21722 0.31334 0.08109 0.0
C372 C 0.2462 0.30214 0.09426 0.0
C373 C 0.27348 0.32009 0.0911 0.0
H374 H 0.2922 0.34904 0.08067 0.0
H375 H 0.19491 0.31177 0.07731 0.0
C376 C 0.16547 0.4473 0.05607 0.0
N377 N 0.17087 0.41908 0.06061 0.0
C378 C 0.13413 0.46227 0.05613 0.0
C379 C 0.11491 0.41913 0.06564 0.0
C380 C 0.14657 0.40513 0.06543 0.0
C381 C 0.10823 0.44775 0.06083 0.0
H382 H 0.18514 0.45762 0.05221 0.0
H383 H 0.15165 0.38262 0.06896 0.0
C384 C 0.31053 0.34199 0.05668 0.0
N385 N 0.37684 0.33984 0.05208 0.0
C386 C 0.31965 0.34339 0.04811 0.0
C387 C 0.33518 0.3394 0.0629 0.0
C388 C 0.35328 0.34221 0.04591 0.0
C389 C 0.36856 0.33844 0.06045 0.0
C390 C 0.24898 0.41906 0.04324 0.0
C391 C 0.25878 0.40682 0.03531 0.0
C392 C 0.25241 0.45291 0.04503 0.0
C393 C 0.27213 0.42868 0.02932 0.0
C394 C 0.26592 0.47395 0.03887 0.0
N395 N 0.27542 0.46151 0.03121 0.0
C396 C 0.20644 0.33033 0.03697 0.0
C397 C 0.25299 0.29677 0.04038 0.0
C398 C 0.20291 0.3144 0.02916 0.0
N399 N 0.23193 0.32216 0.04222 0.0
C400 C 0.25069 0.28044 0.03258 0.0
C401 C 0.22613 0.29011 0.02671 0.0
H402 H 0.1898 0.35036 0.03869 0.0
H403 H 0.27262 0.29036 0.04478 0.0
C404 C 0.32349 0.42865 0.06522 0.0
N405 N 0.31028 0.41853 0.0577 0.0
C406 C 0.35533 0.44246 0.06551 0.0
C407 C 0.35908 0.43609 0.05028 0.0
C408 C 0.32729 0.42231 0.05029 0.0
C409 C 0.3738 0.44578 0.05798 0.0
H410 H 0.3098 0.42473 0.07105 0.0
H411 H 0.31701 0.41324 0.04441 0.0
O412 O 0.20225 0.34654 0.06045 0.0
O413 O 0.24527 0.40151 0.06897 0.0
O414 O 0.27772 0.34375 0.05895 0.0
O415 O 0.2356 0.39806 0.04916 0.0
H416 H 0.13896 0.33119 0.05828 0.0
H417 H 0.23728 0.29086 0.06159 0.0
H418 H 0.11689 0.27363 0.05741 0.0
H419 H 0.21351 0.2341 0.06064 0.0
H420 H 0.21734 0.50847 0.07483 0.0
H421 H 0.20421 0.38949 0.08175 0.0
H422 H 0.2491 0.46644 0.0666 0.0
H423 H 0.17339 0.43284 0.08975 0.0
H424 H 0.19629 0.28503 0.0913 0.0
H425 H 0.29551 0.32402 0.09492 0.0
H426 H 0.12986 0.48418 0.05228 0.0
H427 H 0.09573 0.40744 0.06944 0.0
H428 H 0.30104 0.34623 0.04321 0.0
H429 H 0.32869 0.3383 0.06955 0.0
H430 H 0.36066 0.34353 0.03931 0.0
H431 H 0.38788 0.3366 0.06521 0.0
H432 H 0.25634 0.38071 0.03381 0.0
H433 H 0.24508 0.46276 0.05114 0.0
H434 H 0.27993 0.41954 0.02317 0.0
H435 H 0.26891 0.50017 0.04019 0.0
H436 H 0.18315 0.32211 0.02492 0.0
H437 H 0.26925 0.26199 0.03097 0.0
H438 H 0.36586 0.44918 0.07161 0.0
H439 H 0.37225 0.43848 0.04431 0.0
Li440 Li 0.63395 0.75233 0.31544 0.0
Li441 Li 0.58996 0.72057 0.30876 0.0
Li442 Li 0.63213 0.7518 0.3001 0.0
Li443 Li 0.58829 0.78176 0.30765 0.0
C444 C 0.66468 0.69562 0.31109 0.0
N445 N 0.71707 0.66037 0.31804 0.0
C446 C 0.65862 0.66759 0.31611 0.0
C447 C 0.69743 0.7053 0.30948 0.0
C448 C 0.68541 0.65021 0.3196 0.0
C449 C 0.72357 0.68728 0.31308 0.0
C450 C 0.5575 0.7483 0.32281 0.0
C451 C 0.49794 0.75124 0.32449 0.0
N452 N 0.50082 0.7378 0.33239 0.0
C453 C 0.55988 0.73499 0.33099 0.0
C454 C 0.5263 0.75689 0.31958 0.0
C455 C 0.53094 0.72967 0.33571 0.0
C456 C 0.68258 0.77806 0.3268 0.0
N457 N 0.66076 0.75298 0.32527 0.0
C458 C 0.67316 0.72791 0.33864 0.0
C459 C 0.65586 0.72813 0.33098 0.0
C460 C 0.6956 0.75365 0.34045 0.0
C461 C 0.70058 0.77878 0.33438 0.0
H462 H 0.68547 0.79788 0.32222 0.0
H463 H 0.63808 0.70872 0.32962 0.0
C464 C 0.55433 0.66539 0.30244 0.0
N465 N 0.56623 0.68011 0.30959 0.0
C466 C 0.54087 0.63345 0.30282 0.0
C467 C 0.55247 0.63241 0.3179 0.0
C468 C 0.56522 0.66452 0.31725 0.0
C469 C 0.54053 0.6164 0.3106 0.0
H470 H 0.55645 0.67792 0.29639 0.0
H471 H 0.57593 0.6763 0.32277 0.0
C472 C 0.65944 0.81183 0.30395 0.0
N473 N 0.70489 0.85336 0.29613 0.0
C474 C 0.6488 0.84109 0.29999 0.0
C475 C 0.69329 0.80408 0.30406 0.0
C476 C 0.67213 0.86166 0.29604 0.0
C477 C 0.71586 0.82527 0.30004 0.0
C478 C 0.55566 0.75276 0.29346 0.0
C479 C 0.55871 0.76662 0.28535 0.0
C480 C 0.52441 0.74254 0.29634 0.0
C481 C 0.53032 0.77092 0.28036 0.0
C482 C 0.49661 0.74721 0.29115 0.0
N483 N 0.5001 0.76125 0.28334 0.0
C484 C 0.67457 0.72435 0.28749 0.0
C485 C 0.6528 0.77789 0.28453 0.0
C486 C 0.69015 0.72335 0.27956 0.0
N487 N 0.65633 0.75136 0.28979 0.0
C488 C 0.66785 0.77795 0.27657 0.0
C489 C 0.68643 0.75024 0.27395 0.0
H490 H 0.67627 0.70323 0.29171 0.0
H491 H 0.63751 0.79866 0.28643 0.0
C492 C 0.55312 0.83513 0.31495 0.0
N493 N 0.562 0.82103 0.30743 0.0
C494 C 0.53705 0.86587 0.31508 0.0
C495 C 0.53971 0.8671 0.29973 0.0
C496 C 0.55542 0.8362 0.2999 0.0
C497 C 0.5307 0.88248 0.3074 0.0
H498 H 0.55946 0.82295 0.32086 0.0
H499 H 0.5638 0.82512 0.29403 0.0
O500 O 0.63871 0.71325 0.30771 0.0
O501 O 0.58565 0.75368 0.3181 0.0
O502 O 0.63687 0.79121 0.30778 0.0
O503 O 0.5833 0.7482 0.29841 0.0
H504 H 0.63353 0.65943 0.31736 0.0
H505 H 0.70266 0.72632 0.30543 0.0
H506 H 0.68103 0.62865 0.32355 0.0
H507 H 0.74902 0.69463 0.3119 0.0
H508 H 0.47366 0.75771 0.32205 0.0
H509 H 0.58379 0.72869 0.33368 0.0
H510 H 0.52398 0.76824 0.31339 0.0
H511 H 0.53244 0.71914 0.34203 0.0
H512 H 0.66888 0.70792 0.34312 0.0
H513 H 0.71739 0.79925 0.3356 0.0
H514 H 0.53229 0.62162 0.29704 0.0
H515 H 0.55264 0.61992 0.324 0.0
H516 H 0.62283 0.84781 0.29993 0.0
H517 H 0.70212 0.78207 0.30726 0.0
H518 H 0.66417 0.88423 0.29291 0.0
H519 H 0.74211 0.81944 0.30005 0.0
H520 H 0.58269 0.77421 0.28294 0.0
H521 H 0.52164 0.73064 0.30245 0.0
H522 H 0.53232 0.7819 0.2741 0.0
H523 H 0.47229 0.73949 0.29332 0.0
H524 H 0.70398 0.7014 0.27772 0.0
H525 H 0.66465 0.79933 0.27247 0.0
H526 H 0.53094 0.87718 0.32113 0.0
H527 H 0.53525 0.87915 0.29368 0.0
Li528 Li 0.24869 0.13975 0.56741 0.0
Li529 Li 0.27793 0.0973 0.5598 0.0
Li530 Li 0.25419 0.14609 0.55225 0.0
Li531 Li 0.21754 0.10247 0.55871 0.0
C532 C 0.31438 0.16673 0.56218 0.0
N533 N 0.365 0.21178 0.56505 0.0
C534 C 0.34351 0.15665 0.56628 0.0
C535 C 0.31123 0.19961 0.55942 0.0
C536 C 0.36875 0.17983 0.56771 0.0
C537 C 0.33703 0.22204 0.56096 0.0
C538 C 0.25814 0.07918 0.57615 0.0
C539 C 0.25868 0.04093 0.58795 0.0
N540 N 0.28682 0.05562 0.59092 0.0
C541 C 0.28701 0.09393 0.57933 0.0
C542 C 0.24377 0.05252 0.58049 0.0
C543 C 0.30115 0.08166 0.5868 0.0
C544 C 0.22369 0.15024 0.58365 0.0
N545 N 0.24636 0.16235 0.57804 0.0
C546 C 0.26476 0.20254 0.58816 0.0
C547 C 0.2665 0.18823 0.58009 0.0
C548 C 0.24195 0.19017 0.59414 0.0
C549 C 0.22098 0.16388 0.59176 0.0
H550 H 0.20784 0.12974 0.58182 0.0
H551 H 0.28417 0.19763 0.57555 0.0
C552 C 0.33979 0.08114 0.55394 0.0
N553 N 0.31606 0.06989 0.55936 0.0
C554 C 0.3706 0.06547 0.55351 0.0
C555 C 0.35171 0.0262 0.5641 0.0
C556 C 0.32104 0.04253 0.56427 0.0
C557 C 0.37706 0.03798 0.55874 0.0
H558 H 0.335 0.10299 0.55012 0.0
H559 H 0.30158 0.03378 0.56844 0.0
C560 C 0.19755 0.17616 0.56351 0.0
N561 N 0.16741 0.22522 0.57308 0.0
C562 C 0.16909 0.16895 0.56826 0.0
C563 C 0.21046 0.2084 0.56355 0.0
C564 C 0.15427 0.19407 0.57307 0.0
C565 C 0.19493 0.23284 0.56845 0.0
C566 C 0.25027 0.06655 0.54576 0.0
C567 C 0.25591 0.06246 0.53707 0.0
C568 C 0.2446 0.03872 0.55088 0.0
C569 C 0.2556 0.03047 0.53361 0.0
C570 C 0.2445 0.00716 0.54718 0.0
N571 N 0.24995 0.00372 0.5387 0.0
C572 C 0.28888 0.16873 0.5381 0.0
C573 C 0.23681 0.19515 0.54026 0.0
C574 C 0.29291 0.18495 0.53034 0.0
N575 N 0.26084 0.17356 0.54275 0.0
C576 C 0.23986 0.21199 0.53255 0.0
C577 C 0.26775 0.20619 0.52737 0.0
H578 H 0.30742 0.15121 0.54027 0.0
H579 H 0.21461 0.19809 0.54406 0.0
C580 C 0.15861 0.07429 0.56471 0.0
N581 N 0.17641 0.08009 0.55753 0.0
C582 C 0.12676 0.0607 0.5642 0.0
C583 C 0.13279 0.05796 0.54893 0.0
C584 C 0.16432 0.07216 0.54972 0.0
C585 C 0.11325 0.05252 0.55622 0.0
H586 H 0.16883 0.08118 0.57082 0.0
H587 H 0.17894 0.07731 0.54411 0.0
O588 O 0.28959 0.14425 0.56063 0.0
O589 O 0.24367 0.09075 0.56886 0.0
O590 O 0.21298 0.15168 0.55895 0.0
O591 O 0.25075 0.09769 0.54924 0.0
H592 H 0.34671 0.13117 0.56832 0.0
H593 H 0.28911 0.20778 0.55613 0.0
H594 H 0.39137 0.1724 0.5709 0.0
H595 H 0.33484 0.2476 0.5589 0.0
H596 H 0.24786 0.02028 0.59137 0.0
H597 H 0.29826 0.11471 0.57609 0.0
H598 H 0.22136 0.04089 0.57812 0.0
H599 H 0.3235 0.09287 0.58933 0.0
H600 H 0.28164 0.22256 0.58974 0.0
H601 H 0.20267 0.15393 0.59612 0.0
H602 H 0.38958 0.07552 0.54936 0.0
H603 H 0.35567 0.00481 0.56816 0.0
H604 H 0.15874 0.14416 0.56829 0.0
H605 H 0.23239 0.21443 0.55989 0.0
H606 H 0.13236 0.18879 0.57683 0.0
H607 H 0.2048 0.25784 0.56859 0.0
H608 H 0.26047 0.08379 0.53303 0.0
H609 H 0.24034 0.0414 0.55763 0.0
H610 H 0.25989 0.02691 0.52688 0.0
H611 H 0.24012 0.98539 0.55106 0.0
H612 H 0.3148 0.17994 0.52654 0.0
H613 H 0.21964 0.22771 0.53042 0.0
H614 H 0.11259 0.0576 0.56999 0.0
H615 H 0.1238 0.05155 0.54266 0.0
Li616 Li 0.90557 0.77016 0.8069 0.0
Li617 Li 0.86321 0.74422 0.81479 0.0
Li618 Li 0.9049 0.7081 0.80827 0.0
Li619 Li 0.8618 0.7383 0.79985 0.0
C620 C 0.91336 0.74723 0.82567 0.0
N621 N 0.91301 0.75651 0.84307 0.0
C622 C 0.91691 0.77914 0.82907 0.0
C623 C 0.90988 0.72003 0.83112 0.0
C624 C 0.91666 0.78331 0.83788 0.0
C625 C 0.90965 0.72525 0.8399 0.0
C626 C 0.83496 0.80112 0.80955 0.0
C627 C 0.77834 0.81392 0.8134 0.0
N628 N 0.78844 0.84394 0.81641 0.0
C629 C 0.84475 0.83219 0.81264 0.0
C630 C 0.80147 0.79198 0.80987 0.0
C631 C 0.82086 0.85346 0.8161 0.0
C632 C 0.92148 0.83236 0.8003 0.0
N633 N 0.9324 0.80853 0.80575 0.0
C634 C 0.97651 0.84355 0.81049 0.0
C635 C 0.95987 0.81309 0.81063 0.0
C636 C 0.96485 0.86919 0.80521 0.0
C637 C 0.93749 0.86303 0.79991 0.0
H638 H 0.89947 0.82794 0.79652 0.0
H639 H 0.96812 0.79351 0.81484 0.0
C640 C 0.82116 0.71933 0.82755 0.0
N641 N 0.83686 0.74731 0.82484 0.0
C642 C 0.80398 0.71926 0.83525 0.0
C643 C 0.81908 0.77692 0.83718 0.0
C644 C 0.83603 0.77582 0.82947 0.0
C645 C 0.80311 0.74827 0.84021 0.0
H646 H 0.82279 0.69678 0.82385 0.0
H647 H 0.84938 0.79749 0.82733 0.0
C648 C 0.93176 0.75107 0.79246 0.0
N649 N 0.97507 0.78587 0.78214 0.0
C650 C 0.91977 0.76835 0.78539 0.0
C651 C 0.96576 0.75145 0.79428 0.0
C652 C 0.94208 0.78578 0.78024 0.0
C653 C 0.98725 0.76922 0.78899 0.0
C654 C 0.8339 0.68167 0.80484 0.0
C655 C 0.8452 0.65361 0.80047 0.0
C656 C 0.79984 0.68823 0.80527 0.0
C657 C 0.82217 0.63278 0.7965 0.0
C658 C 0.7776 0.66681 0.80121 0.0
N659 N 0.78914 0.63978 0.79694 0.0
C660 C 0.91767 0.6446 0.81467 0.0
C661 C 0.95307 0.66035 0.80331 0.0
C662 C 0.93173 0.6129 0.81487 0.0
N663 N 0.92847 0.66746 0.80894 0.0
C664 C 0.96779 0.6289 0.80327 0.0
C665 C 0.9569 0.60459 0.80906 0.0
H666 H 0.89728 0.65061 0.81888 0.0
H667 H 0.96064 0.67877 0.7987 0.0
C668 C 0.81289 0.75766 0.78775 0.0
N669 N 0.83644 0.7348 0.7898 0.0
C670 C 0.79643 0.75575 0.77995 0.0
C671 C 0.82854 0.7066 0.77663 0.0
C672 C 0.84452 0.70965 0.78444 0.0
C673 C 0.80451 0.73016 0.77423 0.0
H674 H 0.80757 0.7779 0.79204 0.0
H675 H 0.86392 0.69232 0.78617 0.0
O676 O 0.91297 0.74269 0.81705 0.0
O677 O 0.85797 0.78002 0.8061 0.0
O678 O 0.91023 0.73465 0.7977 0.0
O679 O 0.85606 0.70264 0.80868 0.0
H680 H 0.91908 0.80056 0.82496 0.0
H681 H 0.90704 0.69521 0.82861 0.0
H682 H 0.91911 0.80788 0.8406 0.0
H683 H 0.90672 0.70444 0.84419 0.0
H684 H 0.75237 0.80708 0.81373 0.0
H685 H 0.87056 0.83965 0.81249 0.0
H686 H 0.79344 0.76815 0.80746 0.0
H687 H 0.82811 0.87748 0.81857 0.0
H688 H 0.9978 0.84726 0.8146 0.0
H689 H 0.92758 0.88223 0.7958 0.0
H690 H 0.79241 0.69649 0.83742 0.0
H691 H 0.81879 0.79989 0.84077 0.0
H692 H 0.89349 0.76858 0.78393 0.0
H693 H 0.97537 0.7386 0.7998 0.0
H694 H 0.93314 0.79935 0.77477 0.0
H695 H 0.0136 0.76989 0.79035 0.0
H696 H 0.87148 0.64821 0.80004 0.0
H697 H 0.79066 0.7096 0.80871 0.0
H698 H 0.83058 0.61112 0.79304 0.0
H699 H 0.75117 0.67167 0.80146 0.0
H700 H 0.92216 0.59474 0.81933 0.0
H701 H 0.98724 0.62355 0.79872 0.0
H702 H 0.77843 0.7747 0.7783 0.0
H703 H 0.83526 0.68622 0.77248 0.0
Li704 Li 0.74307 0.64359 0.68834 0.0
Li705 Li 0.77794 0.60346 0.6817 0.0
Li706 Li 0.74872 0.64132 0.67269 0.0
Li707 Li 0.71967 0.59824 0.68063 0.0
C708 C 0.79099 0.68516 0.68073 0.0
N709 N 0.80634 0.75199 0.67968 0.0
C710 C 0.82414 0.69554 0.68087 0.0
C711 C 0.76563 0.70881 0.68005 0.0
C712 C 0.83139 0.72944 0.68034 0.0
C713 C 0.77391 0.74246 0.67952 0.0
C714 C 0.76287 0.59201 0.69861 0.0
C715 C 0.76767 0.5676 0.71256 0.0
N716 N 0.79558 0.58584 0.71397 0.0
C717 C 0.79162 0.61053 0.70021 0.0
C718 C 0.75078 0.57039 0.70483 0.0
C719 C 0.80779 0.60705 0.70801 0.0
C720 C 0.71047 0.66062 0.70322 0.0
N721 N 0.73699 0.66929 0.69834 0.0
C722 C 0.75754 0.70486 0.70928 0.0
C723 C 0.76022 0.69118 0.70117 0.0
C724 C 0.73111 0.69535 0.71458 0.0
C725 C 0.70695 0.6735 0.7114 0.0
H726 H 0.6931 0.64218 0.70092 0.0
H727 H 0.78193 0.69656 0.6974 0.0
C728 C 0.84478 0.59599 0.6781 0.0
N729 N 0.81934 0.58107 0.68229 0.0
C730 C 0.87629 0.58165 0.67807 0.0
C731 C 0.85475 0.5365 0.6866 0.0
C732 C 0.82359 0.55185 0.68649 0.0
C733 C 0.88163 0.55147 0.68234 0.0
H734 H 0.8405 0.6191 0.67476 0.0
H735 H 0.80277 0.54039 0.6897 0.0
C736 C 0.6754 0.64492 0.67719 0.0
N737 N 0.60971 0.63852 0.67232 0.0
C738 C 0.66743 0.63722 0.66877 0.0
C739 C 0.64995 0.64963 0.68311 0.0
C740 C 0.63408 0.63407 0.66643 0.0
C741 C 0.6169 0.64619 0.68053 0.0
C742 C 0.76534 0.56264 0.66918 0.0
C743 C 0.78852 0.56056 0.66258 0.0
C744 C 0.75722 0.53413 0.67381 0.0
C745 C 0.80325 0.52995 0.66074 0.0
C746 C 0.77245 0.50397 0.67177 0.0
N747 N 0.79499 0.50252 0.66534 0.0
C748 C 0.77809 0.65895 0.65742 0.0
C749 C 0.72937 0.68989 0.66052 0.0
C750 C 0.78169 0.67526 0.64967 0.0
N751 N 0.75191 0.66603 0.66256 0.0
C752 C 0.73213 0.70703 0.65284 0.0
C753 C 0.75831 0.69938 0.64727 0.0
H754 H 0.79613 0.64058 0.65937 0.0
H755 H 0.70915 0.69542 0.66482 0.0
C756 C 0.66396 0.56712 0.68764 0.0
N757 N 0.68183 0.57048 0.68037 0.0
C758 C 0.63275 0.55205 0.68744 0.0
C759 C 0.63963 0.54323 0.67233 0.0
C760 C 0.67083 0.55822 0.67284 0.0
C761 C 0.61993 0.54071 0.67967 0.0
H762 H 0.67325 0.57767 0.6935 0.0
H763 H 0.68554 0.56167 0.66715 0.0
O764 O 0.78374 0.65196 0.68115 0.0
O765 O 0.74597 0.59539 0.69111 0.0
O766 O 0.70797 0.64697 0.67966 0.0
O767 O 0.75143 0.59258 0.67128 0.0
H768 H 0.84406 0.67758 0.6814 0.0
H769 H 0.73983 0.70141 0.67996 0.0
H770 H 0.85694 0.73781 0.68045 0.0
H771 H 0.75455 0.761 0.679 0.0
H772 H 0.75855 0.55098 0.71743 0.0
H773 H 0.80135 0.62753 0.69551 0.0
H774 H 0.72845 0.55601 0.70371 0.0
H775 H 0.83002 0.62127 0.70933 0.0
H776 H 0.77718 0.72091 0.71159 0.0
H777 H 0.68637 0.66537 0.71532 0.0
H778 H 0.89634 0.59431 0.67481 0.0
H779 H 0.85767 0.51303 0.68988 0.0
H780 H 0.68682 0.63295 0.66413 0.0
H781 H 0.65562 0.65566 0.68965 0.0
H782 H 0.62758 0.6278 0.65996 0.0
H783 H 0.59695 0.64955 0.68506 0.0
H784 H 0.79522 0.58232 0.65894 0.0
H785 H 0.7398 0.53535 0.67904 0.0
H786 H 0.82131 0.528 0.65567 0.0
H787 H 0.76653 0.48176 0.67534 0.0
H788 H 0.80254 0.66915 0.6456 0.0
H789 H 0.71359 0.72546 0.65119 0.0
H790 H 0.61811 0.55085 0.69322 0.0
H791 H 0.63062 0.53456 0.66624 0.0
Li792 Li 0.35632 0.25504 0.94157 0.0
Li793 Li 0.39828 0.28605 0.93424 0.0
Li794 Li 0.35758 0.25091 0.92679 0.0
Li795 Li 0.40097 0.22371 0.93479 0.0
C796 C 0.32834 0.31332 0.93726 0.0
N797 N 0.28523 0.35684 0.94523 0.0
C798 C 0.34046 0.34227 0.94108 0.0
C799 C 0.29422 0.30675 0.93742 0.0
C800 C 0.31828 0.3639 0.94509 0.0
C801 C 0.27286 0.32897 0.94151 0.0
C802 C 0.40535 0.2554 0.95284 0.0
C803 C 0.39467 0.22525 0.96581 0.0
N804 N 0.40232 0.2529 0.97038 0.0
C805 C 0.41311 0.28353 0.95766 0.0
C806 C 0.3961 0.22599 0.95694 0.0
C807 C 0.41147 0.28175 0.96652 0.0
C808 C 0.31111 0.22816 0.95368 0.0
N809 N 0.32887 0.25568 0.95151 0.0
C810 C 0.31497 0.28188 0.96463 0.0
C811 C 0.33061 0.28244 0.95675 0.0
C812 C 0.29747 0.25342 0.96717 0.0
C813 C 0.29489 0.22658 0.96152 0.0
H814 H 0.31078 0.20687 0.9495 0.0
H815 H 0.34563 0.30359 0.95503 0.0
C816 C 0.4116 0.34773 0.92729 0.0
N817 N 0.42271 0.32602 0.93326 0.0
C818 C 0.4256 0.3793 0.92663 0.0
C819 C 0.46336 0.36503 0.93802 0.0
C820 C 0.44858 0.33364 0.93846 0.0
C821 C 0.45138 0.38857 0.93217 0.0
H822 H 0.3911 0.34077 0.92321 0.0
H823 H 0.45723 0.31564 0.94305 0.0
C824 C 0.32902 0.19571 0.93091 0.0
N825 N 0.28082 0.16085 0.92213 0.0
C826 C 0.33759 0.16744 0.92624 0.0
C827 C 0.29584 0.20593 0.93122 0.0
C828 C 0.3129 0.15023 0.92182 0.0
C829 C 0.27186 0.18808 0.92671 0.0
C830 C 0.43826 0.25503 0.92211 0.0
C831 C 0.44547 0.2561 0.91343 0.0
C832 C 0.46419 0.2556 0.92802 0.0
C833 C 0.47859 0.2578 0.91079 0.0
C834 C 0.49698 0.25733 0.92513 0.0
N835 N 0.50345 0.25838 0.91665 0.0
C836 C 0.30736 0.26635 0.91473 0.0
C837 C 0.34672 0.22551 0.91061 0.0
C838 C 0.29182 0.26438 0.90682 0.0
N839 N 0.33428 0.2471 0.91644 0.0
C840 C 0.33198 0.2227 0.90263 0.0
C841 C 0.30435 0.24256 0.90063 0.0
H842 H 0.29839 0.28369 0.91944 0.0
H843 H 0.36836 0.21073 0.91216 0.0
C844 C 0.44347 0.17374 0.94185 0.0
N845 N 0.42876 0.18568 0.9347 0.0
C846 C 0.4594 0.14289 0.94172 0.0
C847 C 0.44658 0.13841 0.92675 0.0
C848 C 0.43094 0.16927 0.92717 0.0
C849 C 0.46022 0.1244 0.93414 0.0
H850 H 0.44196 0.18756 0.94771 0.0
H851 H 0.41931 0.17962 0.92157 0.0
O852 O 0.34967 0.29189 0.93325 0.0
O853 O 0.40607 0.25685 0.94415 0.0
O854 O 0.35295 0.21346 0.93511 0.0
O855 O 0.40591 0.25333 0.92475 0.0
H856 H 0.36673 0.34777 0.9411 0.0
H857 H 0.28427 0.28472 0.93445 0.0
H858 H 0.32738 0.38624 0.94813 0.0
H859 H 0.24644 0.32406 0.94172 0.0
H860 H 0.38723 0.20276 0.96906 0.0
H861 H 0.41975 0.30667 0.95461 0.0
H862 H 0.38924 0.20422 0.95331 0.0
H863 H 0.41722 0.30337 0.97033 0.0
H864 H 0.31733 0.30318 0.9688 0.0
H865 H 0.28182 0.2041 0.96331 0.0
H866 H 0.41606 0.39642 0.92192 0.0
H867 H 0.48315 0.37117 0.94242 0.0
H868 H 0.36302 0.15891 0.926 0.0
H869 H 0.2887 0.22747 0.93488 0.0
H870 H 0.31924 0.12843 0.91813 0.0
H871 H 0.24613 0.19588 0.92684 0.0
H872 H 0.42564 0.25561 0.90878 0.0
H873 H 0.45916 0.25469 0.93476 0.0
H874 H 0.48454 0.25865 0.90409 0.0
H875 H 0.5173 0.25781 0.92963 0.0
H876 H 0.27087 0.28046 0.90548 0.0
H877 H 0.34218 0.20531 0.89807 0.0
H878 H 0.46962 0.133 0.94756 0.0
H879 H 0.44729 0.12529 0.92074 0.0
Li880 Li 0.7575 0.8503 0.18985 0.0
Li881 Li 0.7272 0.89647 0.18358 0.0
Li882 Li 0.7559 0.85594 0.17445 0.0
Li883 Li 0.78757 0.89573 0.18287 0.0
C884 C 0.69053 0.83105 0.184 0.0
N885 N 0.63354 0.7953 0.18757 0.0
C886 C 0.66748 0.84315 0.18989 0.0
C887 C 0.68436 0.80096 0.17985 0.0
C888 C 0.63888 0.82466 0.19162 0.0
C889 C 0.65548 0.7832 0.18176 0.0
C890 C 0.74758 0.90895 0.20076 0.0
C891 C 0.74651 0.94997 0.21194 0.0
N892 N 0.72379 0.93134 0.21622 0.0
C893 C 0.72425 0.89021 0.20528 0.0
C894 C 0.75889 0.93905 0.20413 0.0
C895 C 0.71252 0.90194 0.21307 0.0
C896 C 0.78615 0.82728 0.20457 0.0
N897 N 0.76047 0.82095 0.19921 0.0
C898 C 0.73794 0.78107 0.20884 0.0
C899 C 0.7372 0.79753 0.20104 0.0
C900 C 0.76294 0.78878 0.21476 0.0
C901 C 0.78799 0.81129 0.21241 0.0
H902 H 0.80431 0.84603 0.20291 0.0
H903 H 0.71714 0.79279 0.19666 0.0
C904 C 0.668 0.91823 0.17686 0.0
N905 N 0.68749 0.92212 0.18384 0.0
C906 C 0.6368 0.93326 0.17646 0.0
C907 C 0.6464 0.95642 0.19042 0.0
C908 C 0.67763 0.94125 0.1905 0.0
C909 C 0.62548 0.95219 0.18336 0.0
H910 H 0.67649 0.90273 0.17167 0.0
H911 H 0.69355 0.94436 0.19595 0.0
C912 C 0.80632 0.81507 0.18106 0.0
N913 N 0.8285 0.75033 0.17963 0.0
C914 C 0.84034 0.80841 0.18053 0.0
C915 C 0.78358 0.78883 0.18089 0.0
C916 C 0.85107 0.7755 0.1798 0.0
C917 C 0.79528 0.75627 0.18016 0.0
C918 C 0.75581 0.93866 0.1717 0.0
C919 C 0.75374 0.94964 0.16329 0.0
C920 C 0.75744 0.96185 0.1783 0.0
C921 C 0.75338 0.98375 0.16162 0.0
C922 C 0.757 0.99573 0.17636 0.0
N923 N 0.755 0.0059 0.16814 0.0
C924 C 0.72259 0.83318 0.16015 0.0
C925 C 0.78015 0.82028 0.16021 0.0
C926 C 0.71871 0.81816 0.15223 0.0
N927 N 0.7529 0.83383 0.16395 0.0
C928 C 0.77735 0.8047 0.15232 0.0
C929 C 0.74634 0.80367 0.14824 0.0
H930 H 0.70149 0.84454 0.16327 0.0
H931 H 0.8041 0.82187 0.16328 0.0
C932 C 0.84123 0.9274 0.19079 0.0
N933 N 0.82746 0.92004 0.18314 0.0
C934 C 0.87269 0.94186 0.19119 0.0
C935 C 0.87492 0.94117 0.17582 0.0
C936 C 0.84332 0.92685 0.17572 0.0
C937 C 0.89023 0.94837 0.18364 0.0
H938 H 0.82817 0.9211 0.19657 0.0
H939 H 0.83187 0.92012 0.16974 0.0
O940 O 0.71866 0.84879 0.18216 0.0
O941 O 0.75974 0.89789 0.19315 0.0
O942 O 0.79553 0.84719 0.18176 0.0
O943 O 0.75602 0.90532 0.1734 0.0
H944 H 0.67142 0.86662 0.19306 0.0
H945 H 0.70169 0.79138 0.17519 0.0
H946 H 0.62089 0.83371 0.19618 0.0
H947 H 0.65047 0.75982 0.17862 0.0
H948 H 0.75498 0.97326 0.21461 0.0
H949 H 0.71528 0.86686 0.20282 0.0
H950 H 0.77693 0.95391 0.20072 0.0
H951 H 0.69447 0.88766 0.21663 0.0
H952 H 0.71795 0.76413 0.21042 0.0
H953 H 0.80795 0.81759 0.21674 0.0
H954 H 0.62127 0.92925 0.17093 0.0
H955 H 0.63861 0.97117 0.19582 0.0
H956 H 0.85825 0.82849 0.18067 0.0
H957 H 0.75723 0.79354 0.18133 0.0
H958 H 0.87733 0.76997 0.17937 0.0
H959 H 0.77794 0.73573 0.18001 0.0
H960 H 0.75241 0.93197 0.15811 0.0
H961 H 0.75898 0.95387 0.18483 0.0
H962 H 0.75178 0.99262 0.15514 0.0
H963 H 0.75823 0.01395 0.18141 0.0
H964 H 0.69439 0.81769 0.14928 0.0
H965 H 0.79929 0.79419 0.14937 0.0
H966 H 0.88338 0.94738 0.19734 0.0
H967 H 0.8877 0.94533 0.16986 0.0
Li968 Li 0.0913 0.21696 0.43601 0.0
Li969 Li 0.13725 0.24661 0.44273 0.0
Li970 Li 0.09228 0.27836 0.43527 0.0
Li971 Li 0.13428 0.2473 0.42749 0.0
C972 C 0.06249 0.24785 0.45086 0.0
N973 N 0.00884 0.24535 0.46183 0.0
C974 C 0.06648 0.2358 0.45913 0.0
C975 C 0.03132 0.25925 0.44823 0.0
C976 C 0.03903 0.23454 0.46456 0.0
C977 C 0.00448 0.25763 0.45385 0.0
C978 C 0.16274 0.18716 0.43839 0.0
C979 C 0.21964 0.17412 0.44188 0.0
N980 N 0.20934 0.14569 0.44574 0.0
C981 C 0.15274 0.15764 0.44231 0.0
C982 C 0.19648 0.19533 0.43809 0.0
C983 C 0.17666 0.13707 0.44602 0.0
C984 C 0.05926 0.16145 0.42913 0.0
N985 N 0.06548 0.1776 0.43654 0.0
C986 C 0.04084 0.13354 0.44452 0.0
C987 C 0.05653 0.16442 0.44416 0.0
C988 C 0.03465 0.11591 0.43698 0.0
C989 C 0.04366 0.13047 0.4292 0.0
H990 H 0.06734 0.17223 0.42318 0.0
H991 H 0.06266 0.17724 0.44997 0.0
C992 C 0.1847 0.27156 0.45457 0.0
N993 N 0.1642 0.24588 0.45255 0.0
C994 C 0.20145 0.27175 0.46236 0.0
C995 C 0.17633 0.21865 0.46564 0.0
C996 C 0.15994 0.21966 0.45787 0.0
C997 C 0.19678 0.24529 0.46807 0.0
H998 H 0.18716 0.29237 0.45027 0.0
H999 H 0.14296 0.19995 0.45617 0.0
C1000 C 0.05635 0.24844 0.42139 0.0
N1001 N 0.99785 0.25263 0.41224 0.0
C1002 C 0.05677 0.25935 0.41296 0.0
C1003 C 0.02623 0.23906 0.42511 0.0
C1004 C 0.02692 0.26148 0.40846 0.0
C1005 C 0.99691 0.2415 0.4204 0.0
C1006 C 0.16336 0.30547 0.43104 0.0
C1007 C 0.15243 0.33386 0.42675 0.0
C1008 C 0.19712 0.29731 0.43098 0.0
C1009 C 0.17543 0.3533 0.42233 0.0
C1010 C 0.21935 0.31736 0.42648 0.0
N1011 N 0.20813 0.34469 0.42228 0.0
C1012 C 0.0666 0.33557 0.44287 0.0
C1013 C 0.05539 0.33155 0.42812 0.0
C1014 C 0.05252 0.36726 0.44316 0.0
N1015 N 0.06794 0.3186 0.43541 0.0
C1016 C 0.04101 0.36308 0.42812 0.0
C1017 C 0.03995 0.3816 0.43568 0.0
H1018 H 0.07744 0.32486 0.44854 0.0
H1019 H 0.05763 0.31804 0.42223 0.0
C1020 C 0.17875 0.22158 0.41518 0.0
N1021 N 0.15796 0.24707 0.41714 0.0
C1022 C 0.19456 0.22067 0.40728 0.0
C1023 C 0.16749 0.27245 0.40365 0.0
C1024 C 0.15206 0.2722 0.41158 0.0
C1025 C 0.18879 0.24625 0.40138 0.0
H1026 H 0.18249 0.20161 0.41967 0.0
H1027 H 0.13495 0.29183 0.41326 0.0
O1028 O 0.08926 0.24951 0.4455 0.0
O1029 O 0.13963 0.20778 0.4348 0.0
O1030 O 0.08546 0.24603 0.42586 0.0
O1031 O 0.14114 0.28592 0.43532 0.0
H1032 H 0.09048 0.2273 0.46133 0.0
H1033 H 0.02789 0.26968 0.44197 0.0
H1034 H 0.04174 0.22502 0.47095 0.0
H1035 H 0.98021 0.2663 0.45188 0.0
H1036 H 0.24582 0.18025 0.44174 0.0
H1037 H 0.12678 0.15076 0.44255 0.0
H1038 H 0.20468 0.21783 0.43498 0.0
H1039 H 0.16925 0.11425 0.44913 0.0
H1040 H 0.03413 0.12333 0.45066 0.0
H1041 H 0.03987 0.11754 0.42324 0.0
H1042 H 0.21677 0.29289 0.46403 0.0
H1043 H 0.17245 0.19749 0.46978 0.0
H1044 H 0.07988 0.26628 0.40993 0.0
H1045 H 0.02547 0.22954 0.43153 0.0
H1046 H 0.02687 0.27013 0.40195 0.0
H1047 H 0.97343 0.23438 0.42322 0.0
H1048 H 0.12644 0.34069 0.42677 0.0
H1049 H 0.20606 0.27574 0.43437 0.0
H1050 H 0.16729 0.37521 0.41893 0.0
H1051 H 0.24552 0.31123 0.42634 0.0
H1052 H 0.05264 0.38084 0.4491 0.0
H1053 H 0.03135 0.37307 0.42222 0.0
H1054 H 0.2104 0.19976 0.40575 0.0
H1055 H 0.16266 0.29289 0.39935 0.0
Li1056 Li 0.71756 0.90496 0.55683 0.0
Li1057 Li 0.75192 0.86364 0.56377 0.0
Li1058 Li 0.77705 0.90742 0.5552 0.0
Li1059 Li 0.74597 0.86198 0.54869 0.0
C1060 C 0.73531 0.93344 0.57102 0.0
N1061 N 0.69968 0.97618 0.5813 0.0
C1062 C 0.71773 0.92111 0.578 0.0
C1063 C 0.73498 0.96751 0.5693 0.0
C1064 C 0.69982 0.94313 0.58312 0.0
C1065 C 0.71675 0.98871 0.57456 0.0
C1066 C 0.69036 0.83464 0.55324 0.0
C1067 C 0.67801 0.77947 0.54812 0.0
N1068 N 0.6504 0.79142 0.54418 0.0
C1069 C 0.66187 0.84637 0.54912 0.0
C1070 C 0.6985 0.8009 0.55274 0.0
C1071 C 0.64198 0.82412 0.54459 0.0
C1072 C 0.66828 0.95395 0.5529 0.0
N1073 N 0.67684 0.92811 0.55801 0.0
C1074 C 0.62315 0.92799 0.56446 0.0
C1075 C 0.65524 0.9153 0.56378 0.0
C1076 C 0.61317 0.95406 0.55911 0.0
C1077 C 0.63635 0.96755 0.55338 0.0
H1078 H 0.68578 0.96325 0.54826 0.0
H1079 H 0.66268 0.89442 0.56767 0.0
C1080 C 0.7777 0.85145 0.57996 0.0
N1081 N 0.75662 0.83938 0.57397 0.0
C1082 C 0.78031 0.83577 0.58784 0.0
C1083 C 0.73991 0.79523 0.58313 0.0
C1084 C 0.73794 0.81183 0.57537 0.0
C1085 C 0.76099 0.80743 0.58953 0.0
H1086 H 0.79189 0.87372 0.57868 0.0
H1087 H 0.72108 0.80308 0.57053 0.0
C1088 C 0.75573 0.93226 0.54057 0.0
N1089 N 0.78472 0.97685 0.52946 0.0
C1090 C 0.76914 0.92114 0.53289 0.0
C1091 C 0.75686 0.96608 0.54258 0.0
C1092 C 0.78372 0.94407 0.52736 0.0
C1093 C 0.77171 0.98821 0.53689 0.0
C1094 C 0.80948 0.84019 0.55962 0.0
C1095 C 0.83692 0.85485 0.56357 0.0
C1096 C 0.80373 0.80614 0.56061 0.0
C1097 C 0.85809 0.83518 0.5685 0.0
C1098 C 0.82545 0.78734 0.5656 0.0
N1099 N 0.85194 0.80213 0.56941 0.0
C1100 C 0.8255 0.95393 0.5606 0.0
C1101 C 0.8356 0.92908 0.54719 0.0
C1102 C 0.8565 0.96957 0.56038 0.0
N1103 N 0.81589 0.93392 0.55409 0.0
C1104 C 0.86645 0.94473 0.54663 0.0
C1105 C 0.87773 0.9647 0.55337 0.0
H1106 H 0.80976 0.95652 0.56613 0.0
H1107 H 0.82784 0.91216 0.54225 0.0
C1108 C 0.71957 0.84288 0.53297 0.0
N1109 N 0.74289 0.835 0.53888 0.0
C1110 C 0.71776 0.82512 0.52538 0.0
C1111 C 0.76358 0.79103 0.53019 0.0
C1112 C 0.76449 0.80948 0.53769 0.0
C1113 C 0.74037 0.79919 0.52385 0.0
H1114 H 0.703 0.86362 0.53406 0.0
H1115 H 0.78294 0.80397 0.54247 0.0
O1116 O 0.75239 0.91222 0.56583 0.0
O1117 O 0.71054 0.85613 0.55758 0.0
O1118 O 0.74159 0.91018 0.5461 0.0
O1119 O 0.78798 0.85917 0.55494 0.0
H1120 H 0.71753 0.89478 0.57939 0.0
H1121 H 0.74851 0.97744 0.56393 0.0
H1122 H 0.68594 0.93392 0.58852 0.0
H1123 H 0.71614 0.01512 0.57328 0.0
H1124 H 0.68415 0.75336 0.54764 0.0
H1125 H 0.65537 0.87242 0.54931 0.0
H1126 H 0.72075 0.79145 0.55574 0.0
H1127 H 0.61993 0.83288 0.54135 0.0
H1128 H 0.60612 0.91714 0.56901 0.0
H1129 H 0.62947 0.98745 0.54909 0.0
H1130 H 0.79649 0.84632 0.59263 0.0
H1131 H 0.72489 0.77323 0.58412 0.0
H1132 H 0.76864 0.89505 0.53124 0.0
H1133 H 0.74665 0.97508 0.54851 0.0
H1134 H 0.79434 0.9358 0.52141 0.0
H1135 H 0.77292 0.01442 0.53839 0.0
H1136 H 0.84171 0.88115 0.56291 0.0
H1137 H 0.78241 0.79444 0.55769 0.0
H1138 H 0.87934 0.84622 0.57162 0.0
H1139 H 0.82115 0.76103 0.56648 0.0
H1140 H 0.86424 0.98412 0.56582 0.0
H1141 H 0.88157 0.94055 0.54104 0.0
H1142 H 0.69988 0.8326 0.5206 0.0
H1143 H 0.78131 0.77109 0.52928 0.0
Li1144 Li 0.14331 0.23852 0.81663 0.0
Li1145 Li 0.10023 0.20803 0.80921 0.0
Li1146 Li 0.14443 0.23582 0.80145 0.0
Li1147 Li 0.10086 0.26754 0.80849 0.0
C1148 C 0.16952 0.17834 0.80524 0.0
N1149 N 0.21162 0.13884 0.79572 0.0
C1150 C 0.15689 0.15136 0.80067 0.0
C1151 C 0.20358 0.18519 0.80497 0.0
C1152 C 0.17859 0.13167 0.7959 0.0
C1153 C 0.22444 0.16496 0.80011 0.0
C1154 C 0.07325 0.22286 0.8237 0.0
C1155 C 0.01804 0.20258 0.82666 0.0
N1156 N 0.03012 0.18524 0.83341 0.0
C1157 C 0.08513 0.20491 0.83067 0.0
C1158 C 0.03944 0.2218 0.82168 0.0
C1159 C 0.06292 0.18603 0.8355 0.0
C1160 C 0.15842 0.26219 0.83283 0.0
N1161 N 0.16814 0.24003 0.82681 0.0
C1162 C 0.21049 0.21875 0.83592 0.0
C1163 C 0.19357 0.21848 0.82818 0.0
C1164 C 0.20092 0.24131 0.84229 0.0
C1165 C 0.17466 0.26339 0.84064 0.0
H1166 H 0.13763 0.27854 0.8316 0.0
H1167 H 0.20036 0.20076 0.82333 0.0
C1168 C 0.05037 0.16151 0.80412 0.0
N1169 N 0.07549 0.1681 0.80964 0.0
C1170 C 0.03618 0.12982 0.80387 0.0
C1171 C 0.07358 0.11281 0.81509 0.0
C1172 C 0.08688 0.14475 0.81516 0.0
C1173 C 0.04839 0.10484 0.80927 0.0
H1174 H 0.0423 0.1804 0.79969 0.0
H1175 H 0.10729 0.15062 0.81937 0.0
C1176 C 0.17016 0.2956 0.81306 0.0
N1177 N 0.21158 0.33426 0.82298 0.0
C1178 C 0.1574 0.32286 0.8175 0.0
C1179 C 0.20401 0.28808 0.81364 0.0
C1180 C 0.17875 0.3421 0.82248 0.0
C1181 C 0.22453 0.30789 0.8187 0.0
C1182 C 0.07572 0.25298 0.79373 0.0
C1183 C 0.08901 0.27063 0.78687 0.0
C1184 C 0.04162 0.25459 0.79538 0.0
C1185 C 0.06791 0.28977 0.78179 0.0
C1186 C 0.02137 0.27406 0.79016 0.0
N1187 N 0.03482 0.2911 0.78353 0.0
C1188 C 0.16014 0.21194 0.78533 0.0
C1189 C 0.19624 0.25455 0.79016 0.0
C1190 C 0.17553 0.21178 0.7774 0.0
N1191 N 0.17035 0.23347 0.79145 0.0
C1192 C 0.21238 0.25524 0.78231 0.0
C1193 C 0.20144 0.23424 0.77575 0.0
H1194 H 0.13914 0.19581 0.78652 0.0
H1195 H 0.2034 0.2718 0.79509 0.0
C1196 C 0.05056 0.31452 0.81305 0.0
N1197 N 0.07653 0.30789 0.8078 0.0
C1198 C 0.03554 0.34586 0.81294 0.0
C1199 C 0.07401 0.36256 0.80193 0.0
C1200 C 0.08822 0.331 0.80225 0.0
C1201 C 0.04765 0.37052 0.80742 0.0
H1202 H 0.04219 0.29586 0.81751 0.0
H1203 H 0.10926 0.32513 0.79824 0.0
O1204 O 0.14862 0.19833 0.80982 0.0
O1205 O 0.09469 0.24095 0.81879 0.0
O1206 O 0.14954 0.27602 0.80829 0.0
O1207 O 0.09605 0.23465 0.79888 0.0
H1208 H 0.13059 0.14587 0.8007 0.0
H1209 H 0.21374 0.2062 0.80838 0.0
H1210 H 0.16913 0.11079 0.79231 0.0
H1211 H 0.2508 0.1701 0.79981 0.0
H1212 H 0.99184 0.20139 0.82514 0.0
H1213 H 0.11125 0.20523 0.83229 0.0
H1214 H 0.02988 0.23538 0.81628 0.0
H1215 H 0.07178 0.1719 0.84089 0.0
H1216 H 0.23074 0.20146 0.83693 0.0
H1217 H 0.16614 0.28076 0.84543 0.0
H1218 H 0.01698 0.1245 0.79924 0.0
H1219 H 0.08342 0.09431 0.81942 0.0
H1220 H 0.13124 0.32889 0.8172 0.0
H1221 H 0.21425 0.2669 0.81032 0.0
H1222 H 0.16919 0.36318 0.82598 0.0
H1223 H 0.25073 0.30222 0.81925 0.0
H1224 H 0.11537 0.26992 0.78553 0.0
H1225 H 0.03097 0.24125 0.80069 0.0
H1226 H 0.07787 0.30367 0.77648 0.0
H1227 H 0.99496 0.27569 0.79139 0.0
H1228 H 0.16648 0.19511 0.77252 0.0
H1229 H 0.23188 0.27332 0.78124 0.0
H1230 H 0.01553 0.35111 0.81735 0.0
H1231 H 0.08385 0.38069 0.79751 0.0
Li1232 Li 0.73957 0.63152 0.06567 0.0
Li1233 Li 0.77136 0.59054 0.05829 0.0
Li1234 Li 0.73982 0.63344 0.05034 0.0
Li1235 Li 0.71071 0.58828 0.0584 0.0
C1236 C 0.79724 0.66646 0.05909 0.0
N1237 N 0.83736 0.72174 0.06098 0.0
C1238 C 0.82783 0.66381 0.06325 0.0
C1239 C 0.78738 0.69712 0.05575 0.0
C1240 C 0.84766 0.69208 0.06418 0.0
C1241 C 0.80792 0.7248 0.05681 0.0
C1242 C 0.7594 0.57448 0.07512 0.0
C1243 C 0.76996 0.53813 0.087 0.0
N1244 N 0.7967 0.55702 0.08917 0.0
C1245 C 0.78694 0.59352 0.07746 0.0
C1246 C 0.75078 0.54657 0.07992 0.0
C1247 C 0.80549 0.5843 0.08458 0.0
C1248 C 0.72427 0.64312 0.08282 0.0
N1249 N 0.73685 0.65805 0.07577 0.0
C1250 C 0.74476 0.70873 0.08341 0.0
C1251 C 0.74628 0.69049 0.07589 0.0
C1252 C 0.73331 0.69347 0.09089 0.0
C1253 C 0.72259 0.66029 0.0905 0.0
H1254 H 0.71565 0.61773 0.08251 0.0
H1255 H 0.75466 0.70243 0.07016 0.0
C1256 C 0.83665 0.58128 0.05331 0.0
N1257 N 0.81197 0.56687 0.05791 0.0
C1258 C 0.86836 0.56733 0.05319 0.0
C1259 C 0.84844 0.52342 0.06237 0.0
C1260 C 0.817 0.53814 0.06227 0.0
C1261 C 0.87467 0.53829 0.05787 0.0
H1262 H 0.83182 0.6041 0.04989 0.0
H1263 H 0.79681 0.52694 0.06579 0.0
C1264 C 0.68295 0.65985 0.06212 0.0
N1265 N 0.64857 0.70751 0.07119 0.0
C1266 C 0.6612 0.65038 0.06861 0.0
C1267 C 0.68698 0.69349 0.06018 0.0
C1268 C 0.64412 0.67487 0.07314 0.0
C1269 C 0.66942 0.71723 0.06485 0.0
C1270 C 0.74361 0.55202 0.04556 0.0
C1271 C 0.74901 0.54551 0.03695 0.0
C1272 C 0.74088 0.52561 0.0513 0.0
C1273 C 0.75154 0.51259 0.03421 0.0
C1274 C 0.74358 0.49304 0.0483 0.0
N1275 N 0.7488 0.48726 0.03989 0.0
C1276 C 0.76777 0.66439 0.036 0.0
C1277 C 0.70911 0.66862 0.03723 0.0
C1278 C 0.76705 0.68071 0.02817 0.0
N1279 N 0.73902 0.65855 0.04028 0.0
C1280 C 0.70721 0.68478 0.02941 0.0
C1281 C 0.73639 0.69053 0.02473 0.0
H1282 H 0.79112 0.65569 0.03858 0.0
H1283 H 0.6867 0.66335 0.04078 0.0
C1284 C 0.65785 0.55272 0.0658 0.0
N1285 N 0.67186 0.56194 0.05831 0.0
C1286 C 0.62679 0.53721 0.06589 0.0
C1287 C 0.62592 0.53993 0.05054 0.0
C1288 C 0.65686 0.55557 0.05075 0.0
C1289 C 0.61011 0.53117 0.05819 0.0
H1290 H 0.67024 0.5586 0.07171 0.0
H1291 H 0.66854 0.56352 0.0449 0.0
O1292 O 0.77788 0.63884 0.05793 0.0
O1293 O 0.74101 0.58272 0.06811 0.0
O1294 O 0.70065 0.63631 0.05779 0.0
O1295 O 0.74131 0.58414 0.04834 0.0
H1296 H 0.83635 0.64015 0.06568 0.0
H1297 H 0.76391 0.69968 0.05247 0.0
H1298 H 0.87132 0.69039 0.06742 0.0
H1299 H 0.80043 0.74872 0.05432 0.0
H1300 H 0.76361 0.51656 0.09077 0.0
H1301 H 0.79376 0.61526 0.07385 0.0
H1302 H 0.72955 0.53152 0.07817 0.0
H1303 H 0.82685 0.59886 0.08647 0.0
H1304 H 0.75237 0.73455 0.08337 0.0
H1305 H 0.71364 0.64743 0.09609 0.0
H1306 H 0.88797 0.5797 0.04969 0.0
H1307 H 0.85224 0.50076 0.06596 0.0
H1308 H 0.65792 0.62443 0.0702 0.0
H1309 H 0.70368 0.70121 0.05516 0.0
H1310 H 0.62741 0.66793 0.07823 0.0
H1311 H 0.67243 0.74338 0.06346 0.0
H1312 H 0.75124 0.56573 0.03244 0.0
H1313 H 0.73678 0.53014 0.05799 0.0
H1314 H 0.75571 0.50717 0.02756 0.0
H1315 H 0.74154 0.47237 0.05267 0.0
H1316 H 0.79 0.6844 0.0247 0.0
H1317 H 0.68314 0.69218 0.02697 0.0
H1318 H 0.6154 0.53129 0.07194 0.0
H1319 H 0.61424 0.5353 0.04445 0.0
Li1320 Li 0.35275 0.2527 0.3178 0.0
Li1321 Li 0.39992 0.28194 0.31113 0.0
Li1322 Li 0.35717 0.25848 0.30278 0.0
Li1323 Li 0.3946 0.22242 0.30979 0.0
C1324 C 0.32605 0.31112 0.30784 0.0
N1325 N 0.27284 0.34327 0.30038 0.0
C1326 C 0.33103 0.34063 0.30334 0.0
C1327 C 0.29399 0.29803 0.30859 0.0
C1328 C 0.30381 0.35649 0.2996 0.0
C1329 C 0.26742 0.31465 0.30476 0.0
C1330 C 0.40814 0.26088 0.32822 0.0
C1331 C 0.43592 0.25755 0.34177 0.0
N1332 N 0.42115 0.28649 0.34417 0.0
C1333 C 0.3932 0.29059 0.33082 0.0
C1334 C 0.4296 0.24418 0.33374 0.0
C1335 C 0.40011 0.30312 0.33891 0.0
C1336 C 0.3271 0.22186 0.33218 0.0
N1337 N 0.3259 0.25041 0.32759 0.0
C1338 C 0.29196 0.2764 0.33809 0.0
C1339 C 0.3087 0.27741 0.33034 0.0
C1340 C 0.29335 0.24748 0.3431 0.0
C1341 C 0.31091 0.21981 0.34 0.0
H1342 H 0.34157 0.20106 0.32987 0.0
H1343 H 0.30879 0.30003 0.32664 0.0
C1344 C 0.42693 0.33895 0.30457 0.0
N1345 N 0.42906 0.31903 0.31152 0.0
C1346 C 0.44394 0.36909 0.30432 0.0
C1347 C 0.46639 0.35695 0.31824 0.0
C1348 C 0.44929 0.32676 0.31816 0.0
C1349 C 0.4632 0.37876 0.31132 0.0
H1350 H 0.4112 0.33174 0.29931 0.0
H1351 H 0.45174 0.31002 0.32347 0.0
C1352 C 0.33733 0.19171 0.30405 0.0
N1353 N 0.32139 0.13851 0.29373 0.0
C1354 C 0.35157 0.18884 0.29598 0.0
C1355 C 0.31501 0.16751 0.30687 0.0
C1356 C 0.34318 0.16178 0.29086 0.0
C1357 C 0.30726 0.14079 0.30156 0.0
C1358 C 0.43852 0.25271 0.29884 0.0
C1359 C 0.44899 0.2544 0.29039 0.0
C1360 C 0.46204 0.24869 0.30531 0.0
C1361 C 0.48286 0.25201 0.28852 0.0
C1362 C 0.49568 0.24641 0.30318 0.0
N1363 N 0.50531 0.2481 0.29491 0.0
C1364 C 0.35031 0.28269 0.28638 0.0
C1365 C 0.30297 0.25267 0.29107 0.0
C1366 C 0.3369 0.28565 0.27826 0.0
N1367 N 0.33366 0.26566 0.2925 0.0
C1368 C 0.28855 0.25512 0.28303 0.0
C1369 C 0.30609 0.2709 0.27645 0.0
H1370 H 0.37458 0.29293 0.28775 0.0
H1371 H 0.29032 0.23928 0.29608 0.0
C1372 C 0.41948 0.16348 0.31675 0.0
N1373 N 0.41692 0.18095 0.30939 0.0
C1374 C 0.43299 0.13152 0.31672 0.0
C1375 C 0.44113 0.13631 0.30153 0.0
C1376 C 0.42778 0.16829 0.30187 0.0
C1377 C 0.44354 0.11742 0.30901 0.0
H1378 H 0.41026 0.17412 0.32261 0.0
H1379 H 0.42536 0.18267 0.29611 0.0
O1380 O 0.35243 0.29477 0.31139 0.0
O1381 O 0.40114 0.24753 0.32043 0.0
O1382 O 0.34519 0.21785 0.30925 0.0
O1383 O 0.40534 0.25498 0.30069 0.0
H1384 H 0.35561 0.3512 0.30272 0.0
H1385 H 0.28976 0.27498 0.31196 0.0
H1386 H 0.30731 0.3793 0.29607 0.0
H1387 H 0.24252 0.30469 0.30524 0.0
H1388 H 0.4525 0.24489 0.34611 0.0
H1389 H 0.37663 0.30397 0.32663 0.0
H1390 H 0.44121 0.22107 0.33184 0.0
H1391 H 0.38875 0.32608 0.34099 0.0
H1392 H 0.27843 0.29817 0.34019 0.0
H1393 H 0.31309 0.19723 0.3437 0.0
H1394 H 0.44089 0.38529 0.29888 0.0
H1395 H 0.48153 0.36344 0.32368 0.0
H1396 H 0.36895 0.20725 0.29368 0.0
H1397 H 0.30383 0.16935 0.31312 0.0
H1398 H 0.35403 0.15927 0.2846 0.0
H1399 H 0.29002 0.12187 0.30366 0.0
H1400 H 0.43108 0.25746 0.28531 0.0
H1401 H 0.45457 0.2473 0.31189 0.0
H1402 H 0.4913 0.25325 0.282 0.0
H1403 H 0.51414 0.24329 0.30812 0.0
H1404 H 0.35102 0.29823 0.27336 0.0
H1405 H 0.2649 0.24313 0.28185 0.0
H1406 H 0.4342 0.11759 0.3226 0.0
H1407 H 0.44929 0.12637 0.29549 0.0
C1408 C 0.21878 0.2893 0.10817 0.0
C1409 C 0.24697 0.28766 0.10294 0.0
C1410 C 0.21888 0.27515 0.11631 0.0
C1411 C 0.24795 0.25922 0.11931 0.0
C1412 C 0.27666 0.25793 0.11412 0.0
C1413 C 0.2758 0.27208 0.10598 0.0
C1414 C 0.18776 0.27694 0.12167 0.0
C1415 C 0.30815 0.24122 0.11713 0.0
C1416 C 0.25713 0.24559 0.14306 0.0
C1417 C 0.24809 0.21205 0.14386 0.0
C1418 C 0.25731 0.26128 0.1351 0.0
C1419 C 0.248 0.24305 0.12779 0.0
C1420 C 0.23868 0.20928 0.12855 0.0
C1421 C 0.23899 0.19415 0.13657 0.0
C1422 C 0.26749 0.29733 0.13451 0.0
C1423 C 0.22848 0.18908 0.12089 0.0
H1424 H 0.19662 0.30184 0.10593 0.0
H1425 H 0.29755 0.27042 0.10194 0.0
H1426 H 0.17892 0.25147 0.12315 0.0
H1427 H 0.19322 0.28936 0.12781 0.0
H1428 H 0.16739 0.29067 0.11845 0.0
H1429 H 0.3287 0.24347 0.11245 0.0
H1430 H 0.31636 0.25227 0.12324 0.0
H1431 H 0.30338 0.21445 0.11831 0.0
H1432 H 0.26381 0.25968 0.14868 0.0
H1433 H 0.23257 0.16808 0.13711 0.0
H1434 H 0.24686 0.31228 0.13181 0.0
H1435 H 0.28902 0.29994 0.13015 0.0
H1436 H 0.27436 0.30789 0.14079 0.0
H1437 H 0.20706 0.20106 0.11768 0.0
H1438 H 0.22145 0.16322 0.1226 0.0
H1439 H 0.24919 0.18815 0.11624 0.0
C1440 C 0.78947 0.72433 0.38429 0.0
C1441 C 0.7916 0.75333 0.3892 0.0
C1442 C 0.77506 0.72489 0.37619 0.0
C1443 C 0.76234 0.75514 0.37295 0.0
C1444 C 0.76477 0.78459 0.37783 0.0
C1445 C 0.77949 0.78335 0.3859 0.0
C1446 C 0.77309 0.69304 0.37114 0.0
C1447 C 0.75122 0.81724 0.3746 0.0
C1448 C 0.7469 0.76159 0.34922 0.0
C1449 C 0.7128 0.75472 0.34876 0.0
C1450 C 0.76341 0.76201 0.35707 0.0
C1451 C 0.74525 0.75563 0.3646 0.0
C1452 C 0.71073 0.74913 0.36418 0.0
C1453 C 0.69494 0.7487 0.35625 0.0
C1454 C 0.8003 0.76884 0.3573 0.0
C1455 C 0.69051 0.74248 0.37209 0.0
H1456 H 0.79926 0.7012 0.38679 0.0
H1457 H 0.78087 0.80573 0.38972 0.0
H1458 H 0.74669 0.68646 0.36999 0.0
H1459 H 0.785 0.69644 0.36484 0.0
H1460 H 0.78533 0.67191 0.37443 0.0
H1461 H 0.75614 0.83808 0.37906 0.0
H1462 H 0.76242 0.82334 0.36835 0.0
H1463 H 0.72397 0.81518 0.37364 0.0
H1464 H 0.76078 0.76602 0.34342 0.0
H1465 H 0.66845 0.7439 0.35591 0.0
H1466 H 0.81355 0.7472 0.36007 0.0
H1467 H 0.80549 0.79052 0.36145 0.0
H1468 H 0.81066 0.77389 0.35089 0.0
H1469 H 0.70019 0.72011 0.37538 0.0
H1470 H 0.66376 0.73851 0.37066 0.0
H1471 H 0.6928 0.76366 0.37656 0.0
C1472 C 0.24352 0.23846 0.60416 0.0
C1473 C 0.2406 0.20412 0.60286 0.0
C1474 C 0.24359 0.25184 0.61239 0.0
C1475 C 0.24041 0.23036 0.61947 0.0
C1476 C 0.23682 0.19575 0.6182 0.0
C1477 C 0.2371 0.18301 0.6099 0.0
C1478 C 0.24751 0.28892 0.6135 0.0
C1479 C 0.2332 0.17214 0.6256 0.0
C1480 C 0.27399 0.26296 0.64035 0.0
C1481 C 0.2451 0.27522 0.64423 0.0
C1482 C 0.2727 0.2476 0.63237 0.0
C1483 C 0.24173 0.24419 0.6282 0.0
C1484 C 0.2123 0.25537 0.63221 0.0
C1485 C 0.21435 0.27088 0.64017 0.0
C1486 C 0.30462 0.23593 0.62828 0.0
C1487 C 0.1788 0.25192 0.62797 0.0
H1488 H 0.24569 0.25495 0.59874 0.0
H1489 H 0.23529 0.1564 0.60895 0.0
H1490 H 0.22611 0.29909 0.61711 0.0
H1491 H 0.27026 0.29425 0.61725 0.0
H1492 H 0.24928 0.30222 0.60733 0.0
H1493 H 0.22916 0.14608 0.62352 0.0
H1494 H 0.25589 0.17302 0.6296 0.0
H1495 H 0.212 0.17981 0.62967 0.0
H1496 H 0.29775 0.26575 0.64352 0.0
H1497 H 0.19196 0.28063 0.64309 0.0
H1498 H 0.30908 0.25008 0.62233 0.0
H1499 H 0.30264 0.2093 0.62652 0.0
H1500 H 0.32646 0.23917 0.63252 0.0
H1501 H 0.17811 0.26738 0.62214 0.0
H1502 H 0.15809 0.25971 0.6322 0.0
H1503 H 0.17462 0.22577 0.62601 0.0
C1504 C 0.80176 0.76433 0.85555 0.0
C1505 C 0.7866 0.74843 0.84863 0.0
C1506 C 0.78649 0.76493 0.86355 0.0
C1507 C 0.75543 0.74903 0.86467 0.0
C1508 C 0.74011 0.73267 0.85774 0.0
C1509 C 0.75587 0.73262 0.84979 0.0
C1510 C 0.80356 0.78264 0.8708 0.0
C1511 C 0.70699 0.71542 0.85871 0.0
C1512 C 0.73011 0.72624 0.88713 0.0
C1513 C 0.70842 0.75232 0.88919 0.0
C1514 C 0.74538 0.72468 0.87913 0.0
C1515 C 0.73886 0.74986 0.87308 0.0
C1516 C 0.71692 0.77618 0.87511 0.0
C1517 C 0.7019 0.77706 0.88314 0.0
C1518 C 0.76868 0.69626 0.87718 0.0
C1519 C 0.70941 0.80348 0.8688 0.0
H1520 H 0.82581 0.77606 0.85474 0.0
H1521 H 0.74392 0.72057 0.84444 0.0
H1522 H 0.78728 0.80268 0.87329 0.0
H1523 H 0.80809 0.76503 0.8761 0.0
H1524 H 0.82768 0.79376 0.86887 0.0
H1525 H 0.69872 0.70332 0.85273 0.0
H1526 H 0.70858 0.69625 0.86377 0.0
H1527 H 0.68778 0.7336 0.8607 0.0
H1528 H 0.73551 0.70727 0.89183 0.0
H1529 H 0.68474 0.79697 0.88465 0.0
H1530 H 0.79389 0.706 0.87579 0.0
H1531 H 0.76009 0.68279 0.87144 0.0
H1532 H 0.77052 0.67829 0.88253 0.0
H1533 H 0.7327 0.81648 0.86701 0.0
H1534 H 0.69161 0.82207 0.87136 0.0
H1535 H 0.69883 0.79269 0.8629 0.0
C1536 C 0.79191 0.78784 0.60243 0.0
C1537 C 0.7618 0.79148 0.59803 0.0
C1538 C 0.79276 0.7734 0.61054 0.0
C1539 C 0.76284 0.76211 0.61428 0.0
C1540 C 0.73242 0.76558 0.60987 0.0
C1541 C 0.73225 0.78038 0.60181 0.0
C1542 C 0.82564 0.77017 0.61509 0.0
C1543 C 0.70002 0.75368 0.61366 0.0
C1544 C 0.76628 0.69665 0.63156 0.0
C1545 C 0.76072 0.71575 0.63888 0.0
C1546 C 0.76748 0.71151 0.62352 0.0
C1547 C 0.76326 0.74631 0.6228 0.0
C1548 C 0.75824 0.76581 0.63017 0.0
C1549 C 0.75685 0.75024 0.63814 0.0
C1550 C 0.77251 0.68989 0.61578 0.0
C1551 C 0.75399 0.80304 0.62964 0.0
H1552 H 0.81488 0.79603 0.5995 0.0
H1553 H 0.70881 0.78368 0.59852 0.0
H1554 H 0.82441 0.78296 0.62133 0.0
H1555 H 0.83106 0.7436 0.61637 0.0
H1556 H 0.84655 0.78086 0.61138 0.0
H1557 H 0.67858 0.75789 0.60934 0.0
H1558 H 0.70161 0.72674 0.61511 0.0
H1559 H 0.69518 0.76678 0.61973 0.0
H1560 H 0.76889 0.66992 0.63212 0.0
H1561 H 0.7529 0.76504 0.64381 0.0
H1562 H 0.79431 0.69867 0.61209 0.0
H1563 H 0.75049 0.69171 0.61156 0.0
H1564 H 0.7764 0.66335 0.61746 0.0
H1565 H 0.77551 0.8143 0.6263 0.0
H1566 H 0.75164 0.81474 0.63601 0.0
H1567 H 0.73144 0.80908 0.62588 0.0
C1568 C 0.3099 0.24044 0.88481 0.0
C1569 C 0.28943 0.24134 0.89202 0.0
C1570 C 0.29625 0.24002 0.87661 0.0
C1571 C 0.26131 0.24059 0.87562 0.0
C1572 C 0.24049 0.24131 0.88287 0.0
C1573 C 0.25482 0.24168 0.89099 0.0
C1574 C 0.31922 0.2393 0.86902 0.0
C1575 C 0.20309 0.24184 0.88205 0.0
C1576 C 0.22546 0.2711 0.85475 0.0
C1577 C 0.21742 0.24112 0.8507 0.0
C1578 C 0.23994 0.27128 0.86285 0.0
C1579 C 0.24652 0.24074 0.86699 0.0
C1580 C 0.23879 0.21039 0.8629 0.0
C1581 C 0.2243 0.21094 0.8548 0.0
C1582 C 0.24801 0.30414 0.86701 0.0
C1583 C 0.24545 0.17735 0.86713 0.0
H1584 H 0.33668 0.24068 0.88556 0.0
H1585 H 0.23891 0.242 0.89656 0.0
H1586 H 0.31362 0.21736 0.865 0.0
H1587 H 0.31516 0.26173 0.86505 0.0
H1588 H 0.34583 0.23835 0.87089 0.0
H1589 H 0.19043 0.24212 0.88832 0.0
H1590 H 0.19522 0.26412 0.87841 0.0
H1591 H 0.19455 0.21972 0.87845 0.0
H1592 H 0.22053 0.29446 0.85156 0.0
H1593 H 0.21771 0.18771 0.85175 0.0
H1594 H 0.27489 0.30532 0.86854 0.0
H1595 H 0.2342 0.30649 0.87308 0.0
H1596 H 0.2416 0.32566 0.8629 0.0
H1597 H 0.27218 0.17522 0.86877 0.0
H1598 H 0.2385 0.15599 0.86303 0.0
H1599 H 0.23122 0.17564 0.87316 0.0
C1600 C 0.7601 0.73246 0.10122 0.0
C1601 C 0.73338 0.71165 0.09909 0.0
C1602 C 0.7614 0.74852 0.10911 0.0
C1603 C 0.73554 0.74333 0.11506 0.0
C1604 C 0.70826 0.72279 0.11293 0.0
C1605 C 0.7074 0.70734 0.10494 0.0
C1606 C 0.79078 0.77048 0.11115 0.0
C1607 C 0.68029 0.71663 0.11913 0.0
C1608 C 0.75681 0.75658 0.13827 0.0
C1609 C 0.74297 0.78797 0.13979 0.0
C1610 C 0.75418 0.74157 0.13026 0.0
C1611 C 0.73763 0.75858 0.12362 0.0
C1612 C 0.72355 0.79027 0.12513 0.0
C1613 C 0.72625 0.80453 0.13323 0.0
C1614 C 0.76916 0.70755 0.12891 0.0
C1615 C 0.70609 0.80928 0.11816 0.0
H1616 H 0.7805 0.73556 0.09679 0.0
H1617 H 0.6864 0.69177 0.10329 0.0
H1618 H 0.78211 0.79547 0.11314 0.0
H1619 H 0.80496 0.75977 0.11654 0.0
H1620 H 0.80787 0.77336 0.10565 0.0
H1621 H 0.66055 0.7005 0.11643 0.0
H1622 H 0.69019 0.7046 0.12496 0.0
H1623 H 0.66895 0.74056 0.1211 0.0
H1624 H 0.76944 0.74364 0.14338 0.0
H1625 H 0.71585 0.82898 0.13438 0.0
H1626 H 0.78855 0.70878 0.1239 0.0
H1627 H 0.74978 0.69 0.12667 0.0
H1628 H 0.78053 0.69738 0.13479 0.0
H1629 H 0.72359 0.81398 0.11284 0.0
H1630 H 0.69613 0.83348 0.12041 0.0
H1631 H 0.68524 0.79433 0.11558 0.0
C1632 C 0.18573 0.25483 0.38564 0.0
C1633 C 0.20418 0.2453 0.39281 0.0
C1634 C 0.19997 0.25469 0.37752 0.0
C1635 C 0.23337 0.24442 0.37652 0.0
C1636 C 0.25202 0.23428 0.38369 0.0
C1637 C 0.23723 0.23497 0.39176 0.0
C1638 C 0.17935 0.26579 0.37001 0.0
C1639 C 0.28768 0.22303 0.38284 0.0
C1640 C 0.26115 0.21805 0.35449 0.0
C1641 C 0.27772 0.24665 0.35164 0.0
C1642 C 0.24685 0.21684 0.36261 0.0
C1643 C 0.24895 0.24499 0.36797 0.0
C1644 C 0.26556 0.27394 0.36514 0.0
C1645 C 0.27988 0.27435 0.35702 0.0
C1646 C 0.22942 0.1855 0.36545 0.0
C1647 C 0.26817 0.30449 0.37068 0.0
H1648 H 0.15998 0.26222 0.38637 0.0
H1649 H 0.25175 0.22791 0.39727 0.0
H1650 H 0.19132 0.28743 0.36689 0.0
H1651 H 0.17795 0.2456 0.36522 0.0
H1652 H 0.15367 0.27288 0.37187 0.0
H1653 H 0.29838 0.21486 0.389 0.0
H1654 H 0.28937 0.20214 0.37826 0.0
H1655 H 0.30311 0.2436 0.3803 0.0
H1656 H 0.25908 0.19669 0.35033 0.0
H1657 H 0.29319 0.2963 0.35494 0.0
H1658 H 0.20292 0.19091 0.36683 0.0
H1659 H 0.24077 0.17616 0.37141 0.0
H1660 H 0.23064 0.16553 0.36058 0.0
H1661 H 0.24295 0.31344 0.37239 0.0
H1662 H 0.2818 0.32504 0.3675 0.0
H1663 H 0.28115 0.29827 0.37669 0.0
C1664 C 0.24439 0.19223 0.23441 0.0
C1665 C 0.24935 0.21041 0.22691 0.0
C1666 C 0.24939 0.20679 0.24238 0.0
C1667 C 0.25896 0.24058 0.24287 0.0
C1668 C 0.26104 0.25989 0.23537 0.0
C1669 C 0.25646 0.24449 0.22744 0.0
C1670 C 0.24696 0.18526 0.25022 0.0
C1671 C 0.27034 0.2962 0.23567 0.0
C1672 C 0.26107 0.27367 0.26543 0.0
C1673 C 0.29445 0.26813 0.26756 0.0
C1674 C 0.24938 0.26699 0.25719 0.0
C1675 C 0.27151 0.2538 0.25106 0.0
C1676 C 0.30553 0.24958 0.2531 0.0
C1677 C 0.31659 0.25698 0.26131 0.0
C1678 C 0.21314 0.27258 0.25518 0.0
C1679 C 0.32991 0.2352 0.24678 0.0
H1680 H 0.23792 0.16612 0.23403 0.0
H1681 H 0.26024 0.25874 0.22168 0.0
H1682 H 0.27209 0.18189 0.253 0.0
H1683 H 0.23124 0.1974 0.25511 0.0
H1684 H 0.23644 0.16033 0.24881 0.0
H1685 H 0.26463 0.30903 0.22959 0.0
H1686 H 0.25705 0.30903 0.2409 0.0
H1687 H 0.29738 0.29858 0.2369 0.0
H1688 H 0.244 0.28257 0.27025 0.0
H1689 H 0.34232 0.25225 0.26296 0.0
H1690 H 0.20011 0.24831 0.25491 0.0
H1691 H 0.21029 0.28458 0.24887 0.0
H1692 H 0.20075 0.28826 0.26005 0.0
H1693 H 0.32297 0.20912 0.24532 0.0
H1694 H 0.35585 0.23545 0.2492 0.0
H1695 H 0.32908 0.24934 0.24073 0.0
C1696 C 0.75673 0.77504 0.47497 0.0
C1697 C 0.76502 0.74307 0.47213 0.0
C1698 C 0.74776 0.7807 0.48344 0.0
C1699 C 0.74705 0.75371 0.48921 0.0
C1700 C 0.75282 0.72102 0.48624 0.0
C1701 C 0.76187 0.71608 0.47772 0.0
C1702 C 0.74174 0.81597 0.48635 0.0
C1703 C 0.75176 0.69158 0.49218 0.0
C1704 C 0.77266 0.77869 0.5114 0.0
C1705 C 0.74183 0.78314 0.51539 0.0
C1706 C 0.77464 0.76751 0.50299 0.0
C1707 C 0.74505 0.76057 0.49846 0.0
C1708 C 0.7139 0.76334 0.50257 0.0
C1709 C 0.71264 0.77476 0.511 0.0
C1710 C 0.80839 0.76494 0.49882 0.0
C1711 C 0.68189 0.75572 0.49797 0.0
H1712 H 0.75942 0.79607 0.47071 0.0
H1713 H 0.76777 0.69125 0.47551 0.0
H1714 H 0.71876 0.81746 0.49023 0.0
H1715 H 0.76272 0.82416 0.49042 0.0
H1716 H 0.73949 0.83353 0.48093 0.0
H1717 H 0.75112 0.66764 0.48866 0.0
H1718 H 0.77419 0.69177 0.49628 0.0
H1719 H 0.72974 0.69297 0.49641 0.0
H1720 H 0.79528 0.78553 0.5147 0.0
H1721 H 0.68877 0.77779 0.51411 0.0
H1722 H 0.81042 0.78375 0.49369 0.0
H1723 H 0.81157 0.74013 0.49586 0.0
H1724 H 0.82903 0.76899 0.5034 0.0
H1725 H 0.67703 0.77532 0.49317 0.0
H1726 H 0.66033 0.75459 0.50237 0.0
H1727 H 0.68383 0.73173 0.49453 0.0
C1728 C 0.25837 0.26666 0.72735 0.0
C1729 C 0.25511 0.30116 0.72636 0.0
C1730 C 0.25434 0.25174 0.73535 0.0
C1731 C 0.24668 0.27185 0.74247 0.0
C1732 C 0.24526 0.30683 0.74157 0.0
C1733 C 0.24966 0.32104 0.73354 0.0
C1734 C 0.25649 0.21441 0.7361 0.0
C1735 C 0.23719 0.32918 0.74901 0.0
C1736 C 0.1916 0.24112 0.76023 0.0
C1737 C 0.21415 0.2387 0.76699 0.0
C1738 C 0.20226 0.25005 0.75208 0.0
C1739 C 0.23636 0.2566 0.75064 0.0
C1740 C 0.25958 0.25225 0.75731 0.0
C1741 C 0.24814 0.24355 0.76544 0.0
C1742 C 0.17665 0.25464 0.74515 0.0
C1743 C 0.2962 0.25845 0.75596 0.0
H1744 H 0.26255 0.25118 0.72181 0.0
H1745 H 0.24794 0.34779 0.73283 0.0
H1746 H 0.27145 0.20723 0.74173 0.0
H1747 H 0.23119 0.20401 0.73698 0.0
H1748 H 0.26765 0.20291 0.73035 0.0
H1749 H 0.23936 0.35595 0.74736 0.0
H1750 H 0.2114 0.32432 0.75119 0.0
H1751 H 0.25401 0.32382 0.75442 0.0
H1752 H 0.16525 0.23783 0.7614 0.0
H1753 H 0.26567 0.24134 0.77064 0.0
H1754 H 0.1842 0.24107 0.73933 0.0
H1755 H 0.17484 0.28138 0.74348 0.0
H1756 H 0.15163 0.2458 0.7471 0.0
H1757 H 0.30485 0.24639 0.75002 0.0
H1758 H 0.3114 0.24913 0.76135 0.0
H1759 H 0.30065 0.28554 0.75529 0.0
C1760 C 0.71152 0.69124 0.01027 0.0
C1761 C 0.7345 0.70439 0.01604 0.0
C1762 C 0.70977 0.70304 0.00192 0.0
C1763 C 0.73137 0.72886 -0.00071 0.0
C1764 C 0.7545 0.74248 0.0051 0.0
C1765 C 0.75596 0.72988 0.01342 0.0
C1766 C 0.68497 0.68759 0.99588 0.0
C1767 C 0.77755 0.77033 0.00254 0.0
C1768 C 0.74012 0.73151 0.97541 0.0
C1769 C 0.71434 0.75338 0.97321 0.0
C1770 C 0.74772 0.72502 0.98394 0.0
C1771 C 0.72937 0.74114 0.99042 0.0
C1772 C 0.70545 0.76548 0.98824 0.0
C1773 C 0.69805 0.77115 0.97966 0.0
C1774 C 0.77345 0.69892 0.98601 0.0
C1775 C 0.68571 0.78355 0.99497 0.0
H1776 H 0.69529 0.67116 0.01224 0.0
H1777 H 0.77364 0.74013 0.01791 0.0
H1778 H 0.66755 0.70684 0.9935 0.0
H1779 H 0.6981 0.67709 0.99029 0.0
H1780 H 0.67024 0.66748 -0.00108 0.0
H1781 H 0.79387 0.77839 0.00785 0.0
H1782 H 0.7934 0.76232 -0.00285 0.0
H1783 H 0.76285 0.79201 0.00033 0.0
H1784 H 0.75336 0.71827 0.97046 0.0
H1785 H 0.67794 0.78794 0.97806 0.0
H1786 H 0.7608 0.67617 0.98835 0.0
H1787 H 0.79025 0.70763 0.99113 0.0
H1788 H 0.78866 0.69217 0.98037 0.0
H1789 H 0.66706 0.76638 -0.00225 0.0
H1790 H 0.67239 0.80544 0.99233 0.0
H1791 H 0.70213 0.79199 0.0002 0.0
C1792 C 0.23722 0.24566 0.01583 0.0
C1793 C 0.22763 0.27833 0.01777 0.0
C1794 C 0.24455 0.23632 0.00743 0.0
C1795 C 0.2422 0.26025 0.00087 0.0
C1796 C 0.23007 0.29246 0.0027 0.0
C1797 C 0.22308 0.30114 0.01112 0.0
C1798 C 0.25704 0.20161 0.0057 0.0
C1799 C 0.22709 0.31872 0.99587 0.0
C1800 C 0.30369 0.26111 0.98276 0.0
C1801 C 0.28384 0.25142 0.97588 0.0
C1802 C 0.29077 0.26238 0.991 0.0
C1803 C 0.25711 0.25372 0.9924 0.0
C1804 C 0.23737 0.2422 0.98556 0.0
C1805 C 0.25104 0.24114 0.97734 0.0
C1806 C 0.31277 0.27454 -0.00187 0.0
C1807 C 0.20146 0.2326 0.98684 0.0
H1808 H 0.24022 0.22772 0.02091 0.0
H1809 H 0.21612 0.32657 0.01253 0.0
H1810 H 0.24548 0.19134 -0.00014 0.0
H1811 H 0.2843 0.20235 0.00464 0.0
H1812 H 0.25191 0.18452 0.01109 0.0
H1813 H 0.21338 0.34101 -0.00188 0.0
H1814 H 0.25231 0.3266 0.99384 0.0
H1815 H 0.21418 0.30861 0.99021 0.0
H1816 H 0.32932 0.2683 0.98165 0.0
H1817 H 0.23572 0.23353 0.97202 0.0
H1818 H 0.31231 0.25671 0.00351 0.0
H1819 H 0.3033 0.29867 0.00054 0.0
H1820 H 0.33897 0.27798 0.99608 0.0
H1821 H 0.19876 0.21624 0.99247 0.0
H1822 H 0.19105 0.21966 0.9812 0.0
H1823 H 0.18647 0.25527 0.98804 0.0
C1824 C 0.73345 0.73875 0.26388 0.0
C1825 C 0.70065 0.74924 0.26527 0.0
C1826 C 0.74765 0.7403 0.25573 0.0
C1827 C 0.72851 0.75265 0.24887 0.0
C1828 C 0.69493 0.76182 0.25019 0.0
C1829 C 0.68142 0.75993 0.25837 0.0
C1830 C 0.78344 0.7301 0.25453 0.0
C1831 C 0.6736 0.77497 0.24304 0.0
C1832 C 0.76503 0.79953 0.23036 0.0
C1833 C 0.76023 0.77698 0.22367 0.0
C1834 C 0.7571 0.79095 0.23873 0.0
C1835 C 0.74392 0.75906 0.24047 0.0
C1836 C 0.74124 0.73535 0.23386 0.0
C1837 C 0.74936 0.74464 0.22551 0.0
C1838 C 0.76032 0.81698 0.2456 0.0
C1839 C 0.7277 0.70096 0.2355 0.0
H1840 H 0.74837 0.73047 0.26921 0.0
H1841 H 0.6558 0.76729 0.25939 0.0
H1842 H 0.78603 0.71369 0.24891 0.0
H1843 H 0.79885 0.7525 0.25335 0.0
H1844 H 0.79347 0.71699 0.26019 0.0
H1845 H 0.64745 0.7792 0.24504 0.0
H1846 H 0.68394 0.79885 0.2407 0.0
H1847 H 0.67369 0.75731 0.23763 0.0
H1848 H 0.773 0.8247 0.22899 0.0
H1849 H 0.74608 0.72696 0.22038 0.0
H1850 H 0.7727 0.80646 0.25129 0.0
H1851 H 0.73519 0.82539 0.24757 0.0
H1852 H 0.77465 0.839 0.24343 0.0
H1853 H 0.73889 0.69015 0.24132 0.0
H1854 H 0.73239 0.68392 0.23007 0.0
H1855 H 0.70047 0.70247 0.23654 0.0
C1856 C 0.19251 0.2352 0.48366 0.0
C1857 C 0.21154 0.24586 0.47671 0.0
C1858 C 0.20627 0.23303 0.49179 0.0
C1859 C 0.23983 0.24231 0.49307 0.0
C1860 C 0.2588 0.25471 0.48619 0.0
C1861 C 0.24444 0.25619 0.47805 0.0
C1862 C 0.18511 0.21968 0.49897 0.0
C1863 C 0.29448 0.26533 0.48736 0.0
C1864 C 0.25733 0.25072 0.51654 0.0
C1865 C 0.26803 0.21843 0.51849 0.0
C1866 C 0.25107 0.26013 0.5081 0.0
C1867 C 0.25513 0.23648 0.50152 0.0
C1868 C 0.26855 0.2048 0.50339 0.0
C1869 C 0.27493 0.19619 0.51186 0.0
C1870 C 0.23757 0.29443 0.50632 0.0
C1871 C 0.27311 0.17878 0.49657 0.0
H1872 H 0.16677 0.22813 0.48272 0.0
H1873 H 0.25926 0.2645 0.4727 0.0
H1874 H 0.19619 0.19638 0.50146 0.0
H1875 H 0.18432 0.23779 0.50427 0.0
H1876 H 0.15921 0.21436 0.49693 0.0
H1877 H 0.3042 0.27876 0.48171 0.0
H1878 H 0.29696 0.28159 0.49301 0.0
H1879 H 0.31023 0.24312 0.48846 0.0
H1880 H 0.25246 0.26813 0.52165 0.0
H1881 H 0.28296 0.17111 0.51332 0.0
H1882 H 0.21036 0.29286 0.50524 0.0
H1883 H 0.24895 0.30501 0.5005 0.0
H1884 H 0.24207 0.31167 0.51172 0.0
H1885 H 0.24838 0.16957 0.49451 0.0
H1886 H 0.28793 0.15725 0.49885 0.0
H1887 H 0.28557 0.18954 0.49092 0.0
C1888 C 0.72802 0.67972 0.72987 0.0
C1889 C 0.73165 0.70453 0.72369 0.0
C1890 C 0.73496 0.68626 0.73843 0.0
C1891 C 0.74563 0.71842 0.74084 0.0
C1892 C 0.74672 0.74423 0.73474 0.0
C1893 C 0.7399 0.73691 0.7262 0.0
C1894 C 0.73368 0.65799 0.74474 0.0
C1895 C 0.75743 0.77897 0.7371 0.0
C1896 C 0.75522 0.73516 0.76449 0.0
C1897 C 0.7892 0.72865 0.76566 0.0
C1898 C 0.74066 0.73282 0.7564 0.0
C1899 C 0.76053 0.72349 0.74937 0.0
C1900 C 0.79492 0.71755 0.7505 0.0
C1901 C 0.80884 0.72044 0.75861 0.0
C1902 C 0.70398 0.73966 0.75539 0.0
C1903 C 0.81701 0.70752 0.74316 0.0
H1904 H 0.72198 0.65456 0.72795 0.0
H1905 H 0.74234 0.75621 0.72143 0.0
H1906 H 0.75938 0.65068 0.74649 0.0
H1907 H 0.72085 0.66581 0.75065 0.0
H1908 H 0.72076 0.63585 0.74212 0.0
H1909 H 0.75163 0.7972 0.73201 0.0
H1910 H 0.74517 0.78707 0.74307 0.0
H1911 H 0.78466 0.77929 0.73822 0.0
H1912 H 0.73987 0.74139 0.76992 0.0
H1913 H 0.83526 0.71623 0.75942 0.0
H1914 H 0.69093 0.71649 0.75354 0.0
H1915 H 0.69981 0.75803 0.75024 0.0
H1916 H 0.69259 0.74925 0.76134 0.0
H1917 H 0.80798 0.68387 0.74036 0.0
H1918 H 0.84333 0.70413 0.74511 0.0
H1919 H 0.81604 0.72666 0.73809 0.0
C1920 C 0.08398 0.99085 0.18011 0.0
C1921 C 0.09235 0.01864 0.18504 0.0
C1922 C 0.05113 0.97918 0.17977 0.0
C1923 C 0.02614 0.99564 0.18451 0.0
C1924 C 0.03444 0.02359 0.18953 0.0
C1925 C 0.0674 0.03483 0.1897 0.0
C1926 C 0.04315 0.94928 0.17434 0.0
C1927 C 0.00846 0.04175 0.19468 0.0
C1928 C 0.93585 0.98492 0.17807 0.0
C1929 C 0.92489 0.96101 0.18393 0.0
C1930 C 0.96882 0.99629 0.17815 0.0
C1931 C 0.99128 0.98355 0.18426 0.0
C1932 C 0.98038 0.95955 0.19021 0.0
C1933 C 0.94736 0.94848 0.18995 0.0
C1934 C 0.97961 0.02193 0.17171 0.0
C1935 C 0.00362 0.94549 0.19684 0.0
H1936 H 0.10319 0.97806 0.17655 0.0
H1937 H 0.07352 0.05672 0.1934 0.0
H1938 H 0.03258 0.92919 0.17835 0.0
H1939 H 0.02405 0.95592 0.16955 0.0
H1940 H 0.06539 0.93948 0.17099 0.0
H1941 H 0.01909 0.06286 0.19832 0.0
H1942 H 0.98873 0.05144 0.19042 0.0
H1943 H 0.99641 0.02436 0.1992 0.0
H1944 H 0.91854 0.99496 0.17346 0.0
H1945 H 0.93927 0.92956 0.1944 0.0
H1946 H 0.00073 0.01223 0.16792 0.0
H1947 H 0.98843 0.04464 0.17501 0.0
H1948 H 0.9592 0.02896 0.16731 0.0
H1949 H 0.02506 0.93323 0.19371 0.0
H1950 H 0.99116 0.92711 0.20104 0.0
H1951 H 0.01368 0.96585 0.20084 0.0
C1952 C 0.0354 0.43784 0.42899 0.0
C1953 C 0.02721 0.41622 0.43567 0.0
C1954 C 0.02371 0.47065 0.42887 0.0
C1955 C 0.00351 0.48219 0.43561 0.0
C1956 C 0.99542 0.46066 0.44242 0.0
C1957 C 0.00733 0.42788 0.44236 0.0
C1958 C 0.03282 0.49289 0.42149 0.0
C1959 C 0.97393 0.47217 0.44972 0.0
C1960 C 0.99568 0.57557 0.4385 0.0
C1961 C 0.96512 0.58198 0.43453 0.0
C1962 C 0.00836 0.54312 0.43899 0.0
C1963 C 0.99008 0.51655 0.43539 0.0
C1964 C 0.95917 0.52283 0.43142 0.0
C1965 C 0.94701 0.55543 0.43107 0.0
C1966 C 0.0414 0.53728 0.44329 0.0
C1967 C 0.93898 0.49513 0.4275 0.0
H1968 H 0.05131 0.42921 0.42389 0.0
H1969 H 0.00069 0.41122 0.4475 0.0
H1970 H 0.00995 0.50132 0.41819 0.0
H1971 H 0.0458 0.51541 0.42384 0.0
H1972 H 0.0491 0.48019 0.4168 0.0
H1973 H 0.97081 0.45267 0.45465 0.0
H1974 H 0.98501 0.49453 0.45272 0.0
H1975 H 0.94901 0.47936 0.44733 0.0
H1976 H 0.00991 0.59599 0.44113 0.0
H1977 H 0.92304 0.56007 0.42816 0.0
H1978 H 0.05936 0.52668 0.43867 0.0
H1979 H 0.03849 0.51892 0.4485 0.0
H1980 H 0.05208 0.56049 0.44596 0.0
H1981 H 0.95365 0.48266 0.42245 0.0
H1982 H 0.91533 0.5042 0.42469 0.0
H1983 H 0.93309 0.4761 0.43238 0.0
C1984 C 0.43935 0.46032 0.67382 0.0
C1985 C 0.41593 0.47744 0.67876 0.0
C1986 C 0.47273 0.47031 0.67363 0.0
C1987 C 0.48281 0.4982 0.67847 0.0
C1988 C 0.45913 0.51603 0.68332 0.0
C1989 C 0.42595 0.50531 0.68344 0.0
C1990 C 0.49734 0.45055 0.66844 0.0
C1991 C 0.46893 0.54612 0.68847 0.0
C1992 C 0.57314 0.50576 0.68511 0.0
C1993 C 0.5853 0.52851 0.67913 0.0
C1994 C 0.53988 0.49533 0.6849 0.0
C1995 C 0.5183 0.50828 0.6786 0.0
C1996 C 0.53052 0.53112 0.67252 0.0
C1997 C 0.56395 0.54088 0.67284 0.0
C1998 C 0.52778 0.47067 0.69144 0.0
C1999 C 0.50816 0.54567 0.66577 0.0
H2000 H 0.43176 0.43846 0.67029 0.0
H2001 H 0.4078 0.51871 0.68721 0.0
H2002 H 0.51028 0.46705 0.66386 0.0
H2003 H 0.51658 0.43977 0.67267 0.0
H2004 H 0.48529 0.43003 0.66486 0.0
H2005 H 0.44727 0.55795 0.69164 0.0
H2006 H 0.48722 0.53887 0.69341 0.0
H2007 H 0.48112 0.56481 0.68433 0.0
H2008 H 0.5897 0.49607 0.68995 0.0
H2009 H 0.57321 0.55891 0.6683 0.0
H2010 H 0.5171 0.44855 0.68823 0.0
H2011 H 0.5077 0.48198 0.69531 0.0
H2012 H 0.54795 0.46234 0.69576 0.0
H2013 H 0.49687 0.52549 0.66193 0.0
H2014 H 0.52169 0.56277 0.66143 0.0
H2015 H 0.4875 0.55956 0.6688 0.0
C2016 C 0.50258 0.08171 0.93841 0.0
C2017 C 0.47329 0.0899 0.93406 0.0
C2018 C 0.51449 0.04891 0.93851 0.0
C2019 C 0.49661 0.02378 0.93418 0.0
C2020 C 0.46702 0.0319 0.92979 0.0
C2021 C 0.45572 0.06484 0.92978 0.0
C2022 C 0.54623 0.04115 0.94323 0.0
C2023 C 0.4472 0.00575 0.92512 0.0
C2024 C 0.54105 0.94492 0.92746 0.0
C2025 C 0.53084 0.9224 0.93375 0.0
C2026 C 0.53038 0.97808 0.92759 0.0
C2027 C 0.50894 0.98898 0.93415 0.0
C2028 C 0.49866 0.96644 0.94054 0.0
C2029 C 0.5098 0.93339 0.94028 0.0
C2030 C 0.54198 0.00144 0.92068 0.0
C2031 C 0.47565 0.97716 0.94761 0.0
H2032 H 0.51635 0.10103 0.94167 0.0
H2033 H 0.43272 0.07089 0.92655 0.0
H2034 H 0.54143 0.02211 0.94818 0.0
H2035 H 0.56487 0.0306 0.93879 0.0
H2036 H 0.55707 0.06348 0.94632 0.0
H2037 H 0.42466 0.01618 0.92204 0.0
H2038 H 0.46286 0.9939 0.92017 0.0
H2039 H 0.43943 0.98592 0.9296 0.0
H2040 H 0.55781 0.9367 0.9225 0.0
H2041 H 0.50169 0.916 0.94511 0.0
H2042 H 0.5549 0.02309 0.92353 0.0
H2043 H 0.52027 0.01117 0.91711 0.0
H2044 H 0.55912 0.98917 0.91612 0.0
H2045 H 0.48666 -0.00163 0.95113 0.0
H2046 H 0.47051 0.95675 0.95218 0.0
H2047 H 0.4517 0.98583 0.94491 0.0
C2048 C 0.04696 0.43981 0.05928 0.0
C2049 C 0.07401 0.46132 0.06043 0.0
C2050 C 0.0144 0.45204 0.0588 0.0
C2051 C 0.00875 0.48664 0.05951 0.0
C2052 C 0.03595 0.50853 0.06067 0.0
C2053 C 0.06832 0.4956 0.06107 0.0
C2054 C 0.98606 0.42796 0.05749 0.0
C2055 C 0.03081 0.54556 0.06151 0.0
C2056 C 0.92793 0.52153 0.05084 0.0
C2057 C 0.90872 0.52432 0.05824 0.0
C2058 C 0.96055 0.50929 0.05116 0.0
C2059 C 0.97431 0.49984 0.05908 0.0
C2060 C 0.95503 0.50258 0.06657 0.0
C2061 C 0.9224 0.51469 0.06606 0.0
C2062 C 0.98027 0.5064 0.04302 0.0
C2063 C 0.96896 0.49293 0.07514 0.0
H2064 H 0.05132 0.41333 0.05864 0.0
H2065 H 0.08918 0.51225 0.06202 0.0
H2066 H 0.96822 0.42982 0.06284 0.0
H2067 H 0.97232 0.43439 0.0516 0.0
H2068 H 0.99471 0.40181 0.057 0.0
H2069 H 0.05459 0.55917 0.06238 0.0
H2070 H 0.01822 0.55535 0.05575 0.0
H2071 H 0.0144 0.55087 0.06701 0.0
H2072 H 0.9173 0.52869 0.04478 0.0
H2073 H 0.90777 0.51727 0.07181 0.0
H2074 H 0.98793 0.4802 0.04202 0.0
H2075 H 0.00329 0.52146 0.04348 0.0
H2076 H 0.96591 0.51481 0.03739 0.0
H2077 H 0.97641 0.46639 0.07509 0.0
H2078 H 0.9508 0.49684 0.08036 0.0
H2079 H 0.9916 0.50773 0.07651 0.0
C2080 C 0.4994 0.57156 0.30747 0.0
C2081 C 0.52982 0.58132 0.31099 0.0
C2082 C 0.48933 0.5382 0.3077 0.0
C2083 C 0.51053 0.51409 0.3114 0.0
C2084 C 0.54141 0.52384 0.31491 0.0
C2085 C 0.55057 0.55744 0.31472 0.0
C2086 C 0.45598 0.52877 0.30402 0.0
C2087 C 0.56489 0.49874 0.31877 0.0
C2088 C 0.47175 0.433 0.31862 0.0
C2089 C 0.47784 0.41242 0.31162 0.0
C2090 C 0.48257 0.46611 0.31868 0.0
C2091 C 0.50031 0.47867 0.3116 0.0
C2092 C 0.50748 0.45763 0.30463 0.0
C2093 C 0.49586 0.42477 0.30468 0.0
C2094 C 0.47409 0.48794 0.32618 0.0
C2095 C 0.52689 0.47 0.29705 0.0
H2096 H 0.48335 0.59013 0.30462 0.0
H2097 H 0.57432 0.565 0.31734 0.0
H2098 H 0.45939 0.51071 0.29877 0.0
H2099 H 0.44057 0.51643 0.30895 0.0
H2100 H 0.44217 0.55063 0.30154 0.0
H2101 H 0.58814 0.51039 0.32115 0.0
H2102 H 0.55259 0.48573 0.32413 0.0
H2103 H 0.57149 0.47962 0.31398 0.0
H2104 H 0.45741 0.42354 0.32394 0.0
H2105 H 0.50068 0.40872 0.29929 0.0
H2106 H 0.45814 0.50887 0.32406 0.0
H2107 H 0.49704 0.49887 0.32891 0.0
H2108 H 0.46085 0.4741 0.33127 0.0
H2109 H 0.51282 0.49006 0.29381 0.0
H2110 H 0.53198 0.44995 0.29237 0.0
H2111 H 0.55091 0.48078 0.29915 0.0
C2112 C 0.55212 0.94275 0.55933 0.0
C2113 C 0.57826 0.96582 0.55922 0.0
C2114 C 0.51889 0.95324 0.55931 0.0
C2115 C 0.51166 0.98765 0.55921 0.0
C2116 C 0.53793 0.01109 0.55914 0.0
C2117 C 0.57097 -0.00013 0.5591 0.0
C2118 C 0.49155 0.92752 0.55932 0.0
C2119 C 0.53112 0.048 0.55909 0.0
C2120 C 0.42757 0.01674 0.55123 0.0
C2121 C 0.41066 0.0229 0.55886 0.0
C2122 C 0.46032 0.0048 0.55125 0.0
C2123 C 0.47657 -0.00087 0.5591 0.0
C2124 C 0.45943 0.00478 0.56682 0.0
C2125 C 0.42659 0.0165 0.56661 0.0
C2126 C 0.47768 -0.00132 0.54289 0.0
C2127 C 0.47602 -0.00085 0.57531 0.0
H2128 H 0.55767 0.91638 0.55929 0.0
H2129 H 0.59114 0.01774 0.55908 0.0
H2130 H 0.47517 0.93116 0.56491 0.0
H2131 H 0.47589 0.93049 0.55356 0.0
H2132 H 0.5014 0.90173 0.55946 0.0
H2133 H 0.55433 0.06294 0.55916 0.0
H2134 H 0.51657 0.05474 0.55335 0.0
H2135 H 0.51593 0.05487 0.56471 0.0
H2136 H 0.41517 0.02139 0.54523 0.0
H2137 H 0.41371 0.02166 0.57252 0.0
H2138 H 0.48663 0.97262 0.54258 0.0
H2139 H 0.49979 0.01502 0.54236 0.0
H2140 H 0.4612 0.00339 0.53735 0.0
H2141 H 0.48508 0.97317 0.57577 0.0
H2142 H 0.45901 0.00405 0.58073 0.0
H2143 H 0.498 0.01564 0.57591 0.0
C2144 C 0.00239 0.06316 0.80801 0.0
C2145 C 0.03644 0.07014 0.80854 0.0
C2146 C 0.99102 0.03028 0.80736 0.0
C2147 C 0.01433 0.00389 0.80715 0.0
C2148 C 0.04875 0.01086 0.80757 0.0
C2149 C 0.05938 0.0439 0.80828 0.0
C2150 C 0.95409 0.02373 0.80699 0.0
C2151 C 0.07435 0.98341 0.80727 0.0
C2152 C 0.98527 0.91781 0.81357 0.0
C2153 C 0.97947 0.90294 0.80565 0.0
C2154 C 0.99672 0.95064 0.81415 0.0
C2155 C 0.00271 0.96892 0.80661 0.0
C2156 C 0.99751 0.95384 0.7986 0.0
C2157 C 0.98579 0.92103 0.79821 0.0
C2158 C 0.0018 0.96596 0.82281 0.0
C2159 C 0.00402 0.97247 0.79043 0.0
H2160 H 0.98463 0.08342 0.80825 0.0
H2161 H 0.08577 0.04928 0.80854 0.0
H2162 H 0.94785 0.01 0.80109 0.0
H2163 H 0.94657 0.00785 0.81243 0.0
H2164 H 0.93927 0.04702 0.80717 0.0
H2165 H 0.10019 0.9931 0.80751 0.0
H2166 H 0.07064 0.96621 0.8127 0.0
H2167 H 0.07129 0.96866 0.80137 0.0
H2168 H 0.9799 0.90406 0.81934 0.0
H2169 H 0.98153 0.90949 0.79208 0.0
H2170 H 0.98547 0.98801 0.82353 0.0
H2171 H 0.02783 0.97466 0.82348 0.0
H2172 H 0.99632 0.94825 0.82804 0.0
H2173 H 0.9878 0.99473 0.79009 0.0
H2174 H -0.00053 0.9569 0.78472 0.0
H2175 H 0.03013 0.98134 0.79028 0.0
C2176 C 0.58006 0.9841 0.1762 0.0
C2177 C 0.59157 0.9665 0.1833 0.0
C2178 C 0.54774 0.99722 0.17601 0.0
C2179 C 0.52635 0.99215 0.18304 0.0
C2180 C 0.53781 0.9742 0.1902 0.0
C2181 C 0.5704 0.96178 0.19027 0.0
C2182 C 0.53657 0.01669 0.16832 0.0
C2183 C 0.51558 0.96791 0.19777 0.0
C2184 C 0.45354 0.05067 0.18633 0.0
C2185 C 0.42701 0.03238 0.18291 0.0
C2186 C 0.48601 0.03802 0.18633 0.0
C2187 C 0.4921 0.00601 0.18295 0.0
C2188 C 0.46549 0.98724 0.17955 0.0
C2189 C 0.43329 0.00073 0.17952 0.0
C2190 C 0.5138 0.05889 0.18996 0.0
C2191 C 0.47102 0.95287 0.17597 0.0
H2192 H 0.59652 0.98793 0.17083 0.0
H2193 H 0.57915 0.94777 0.19571 0.0
H2194 H 0.51439 0.00477 0.16545 0.0
H2195 H 0.5292 0.04218 0.17024 0.0
H2196 H 0.5563 0.01852 0.1634 0.0
H2197 H 0.52813 0.95302 0.20277 0.0
H2198 H 0.50751 0.99187 0.20058 0.0
H2199 H 0.49283 0.95454 0.19572 0.0
H2200 H 0.44891 0.07485 0.18913 0.0
H2201 H 0.4131 0.98657 0.17675 0.0
H2202 H 0.53354 0.06246 0.18512 0.0
H2203 H 0.52529 0.04589 0.19544 0.0
H2204 H 0.50506 0.08369 0.19211 0.0
H2205 H 0.48879 0.95405 0.17058 0.0
H2206 H 0.44758 0.94127 0.1737 0.0
H2207 H 0.4822 0.93656 0.18088 0.0
C2208 C 0.98772 0.92436 0.43231 0.0
C2209 C 0.95891 0.91572 0.43682 0.0
C2210 C 3e-05 0.95698 0.43246 0.0
C2211 C 0.98322 0.98149 0.43728 0.0
C2212 C 0.95441 0.97285 0.44194 0.0
C2213 C 0.94255 0.94009 0.44164 0.0
C2214 C 0.03088 0.96527 0.42742 0.0
C2215 C 0.93587 -0.00168 0.44716 0.0
C2216 C 0.03136 0.05898 0.44337 0.0
C2217 C 0.02044 0.08186 0.43725 0.0
C2218 C 0.01918 0.02633 0.44352 0.0
C2219 C 0.99562 0.01626 0.43736 0.0
C2220 C 0.98425 0.03927 0.43121 0.0
C2221 C 0.99676 0.07182 0.43123 0.0
C2222 C 0.03186 0.00249 0.45019 0.0
C2223 C 0.95909 0.02942 0.42455 0.0
H2224 H 0.00072 0.90557 0.42866 0.0
H2225 H 0.91999 0.93375 0.44504 0.0
H2226 H 0.02512 0.98477 0.42265 0.0
H2227 H 0.05032 0.97542 0.43169 0.0
H2228 H 0.04117 0.94328 0.42406 0.0
H2229 H 0.91437 0.98738 0.4506 0.0
H2230 H 0.95285 0.00983 0.45187 0.0
H2231 H 0.92666 0.01852 0.44298 0.0
H2232 H 0.05006 0.06638 0.44796 0.0
H2233 H 0.98793 0.08948 0.42654 0.0
H2234 H 0.04464 0.98128 0.44708 0.0
H2235 H 0.01074 0.99214 0.45387 0.0
H2236 H 0.04947 0.01451 0.45467 0.0
H2237 H 0.96907 0.00875 0.42064 0.0
H2238 H 0.95253 0.05038 0.42027 0.0
H2239 H 0.93607 0.02026 0.42764 0.0
C2240 C 0.07387 0.50504 0.68503 0.0
C2241 C 0.08033 0.47196 0.68278 0.0
C2242 C 0.04132 0.51755 0.68503 0.0
C2243 C 0.01462 0.49635 0.68279 0.0
C2244 C 0.02097 0.46286 0.68058 0.0
C2245 C 0.05379 0.45109 0.68057 0.0
C2246 C 0.03551 0.5535 0.68735 0.0
C2247 C 0.99311 0.43945 0.67823 0.0
C2248 C 0.92797 0.52174 0.68984 0.0
C2249 C 0.91518 0.53602 0.68239 0.0
C2250 C 0.96017 0.50832 0.69004 0.0
C2251 C 0.98008 0.50942 0.68262 0.0
C2252 C 0.96719 0.5234 0.67506 0.0
C2253 C 0.93485 0.53639 0.67503 0.0
C2254 C 0.97305 0.49342 0.6982 0.0
C2255 C 0.98768 0.52499 0.66703 0.0
H2256 H 0.09438 0.52128 0.68668 0.0
H2257 H 0.05868 0.42536 0.67895 0.0
H2258 H 0.02359 0.56667 0.68195 0.0
H2259 H 0.01827 0.55516 0.69283 0.0
H2260 H 0.05894 0.56661 0.689 0.0
H2261 H 0.00222 0.414 0.67679 0.0
H2262 H 0.97492 0.43791 0.68352 0.0
H2263 H 0.97962 0.44906 0.6726 0.0
H2264 H 0.91307 0.5217 0.69558 0.0
H2265 H 0.92493 0.54684 0.66921 0.0
H2266 H 0.99499 0.50764 0.70044 0.0
H2267 H 0.98134 0.46747 0.6971 0.0
H2268 H 0.954 0.4934 0.70332 0.0
H2269 H 0.01065 0.53958 0.66818 0.0
H2270 H 0.9739 0.53654 0.66167 0.0
H2271 H 0.99546 0.49962 0.66511 0.0
C2272 C 0.49894 0.4289 0.93275 0.0
C2273 C 0.46471 0.423 0.93201 0.0
C2274 C 0.51161 0.46142 0.93266 0.0
C2275 C 0.48951 0.48862 0.93182 0.0
C2276 C 0.45494 0.48282 0.9311 0.0
C2277 C 0.44297 0.45011 0.93122 0.0
C2278 C 0.54865 0.46667 0.93343 0.0
C2279 C 0.43059 0.51119 0.93021 0.0
C2280 C 0.51846 0.57384 0.9391 0.0
C2281 C 0.52775 0.58863 0.93138 0.0
C2282 C 0.50592 0.5413 0.93933 0.0
C2283 C 0.50252 0.52319 0.93167 0.0
C2284 C 0.51149 0.53812 0.92385 0.0
C2285 C 0.52401 0.57066 0.92381 0.0
C2286 C 0.49669 0.52616 0.94779 0.0
C2287 C 0.50797 0.51968 0.91554 0.0
H2288 H 0.51588 0.40806 0.93329 0.0
H2289 H 0.41643 0.44576 0.9308 0.0
H2290 H 0.55811 0.47986 0.92773 0.0
H2291 H 0.55414 0.48257 0.93902 0.0
H2292 H 0.56244 0.44289 0.93412 0.0
H2293 H 0.40449 0.50244 0.92966 0.0
H2294 H 0.43247 0.5279 0.9358 0.0
H2295 H 0.43672 0.5262 0.92451 0.0
H2296 H 0.52172 0.58745 0.94498 0.0
H2297 H 0.53079 0.58213 0.91782 0.0
H2298 H 0.5119 0.50361 0.94895 0.0
H2299 H 0.47026 0.51828 0.94773 0.0
H2300 H 0.50044 0.5437 0.95316 0.0
H2301 H 0.5231 0.49663 0.9157 0.0
H2302 H 0.51593 0.53489 0.91001 0.0
H2303 H 0.48171 0.51213 0.91459 0.0
C2304 C 0.56648 0.49227 0.06384 0.0
C2305 C 0.57575 0.5175 0.05815 0.0
C2306 C 0.53379 0.48005 0.06402 0.0
C2307 C 0.50985 0.49326 0.05835 0.0
C2308 C 0.51908 0.51855 0.05257 0.0
C2309 C 0.55184 0.53044 0.05256 0.0
C2310 C 0.52483 0.45307 0.07028 0.0
C2311 C 0.49428 0.5332 0.04641 0.0
C2312 C 0.43303 0.44246 0.05313 0.0
C2313 C 0.40871 0.45787 0.05817 0.0
C2314 C 0.46607 0.45358 0.05317 0.0
C2315 C 0.47512 0.48061 0.05844 0.0
C2316 C 0.45083 0.49602 0.06362 0.0
C2317 C 0.41789 0.4845 0.06342 0.0
C2318 C 0.49126 0.43652 0.04754 0.0
C2319 C 0.45958 0.52487 0.06934 0.0
H2320 H 0.58486 0.4819 0.06812 0.0
H2321 H 0.55857 0.55037 0.04826 0.0
H2322 H 0.50444 0.4617 0.07449 0.0
H2323 H 0.51561 0.43083 0.06685 0.0
H2324 H 0.54628 0.44561 0.0743 0.0
H2325 H 0.50555 0.55242 0.04224 0.0
H2326 H 0.4837 0.5133 0.04235 0.0
H2327 H 0.47334 0.5446 0.04995 0.0
H2328 H 0.4263 0.42142 0.04918 0.0
H2329 H 0.3992 0.49669 0.06728 0.0
H2330 H 0.51207 0.42678 0.05144 0.0
H2331 H 0.50196 0.45467 0.04299 0.0
H2332 H 0.48027 0.41561 0.04389 0.0
H2333 H 0.47995 0.51769 0.07372 0.0
H2334 H 0.43803 0.53346 0.07316 0.0
H2335 H 0.46873 0.546 0.06546 0.0
C2336 C 0.47962 0.0718 0.31465 0.0
C2337 C 0.45602 0.08281 0.30873 0.0
C2338 C 0.49152 0.03903 0.31444 0.0
C2339 C 0.4792 0.01671 0.30824 0.0
C2340 C 0.45515 0.02763 0.3023 0.0
C2341 C 0.44398 0.06063 0.30259 0.0
C2342 C 0.51749 0.02837 0.32082 0.0
C2343 C 0.44116 0.00443 0.29566 0.0
C2344 C 0.5316 0.94155 0.30254 0.0
C2345 C 0.51668 0.91653 0.30742 0.0
C2346 C 0.51961 0.97426 0.30274 0.0
C2347 C 0.49185 0.98203 0.30789 0.0
C2348 C 0.4764 0.95677 0.31276 0.0
C2349 C 0.48915 0.92431 0.31251 0.0
C2350 C 0.53696 0.0006 0.29753 0.0
C2351 C 0.44648 0.96407 0.31825 0.0
H2352 H 0.48912 0.08901 0.31936 0.0
H2353 H 0.42538 0.069 0.29808 0.0
H2354 H 0.50813 0.00712 0.32462 0.0
H2355 H 0.54015 0.01979 0.31745 0.0
H2356 H 0.52448 0.04878 0.32522 0.0
H2357 H 0.42213 0.01667 0.29161 0.0
H2358 H 0.46144 0.99515 0.29151 0.0
H2359 H 0.42973 0.98248 0.29877 0.0
H2360 H 0.5532 0.93568 0.2987 0.0
H2361 H 0.47747 0.90492 0.31625 0.0
H2362 H 0.54639 0.02053 0.30176 0.0
H2363 H 0.51915 0.01227 0.29305 0.0
H2364 H 0.55816 0.99042 0.29383 0.0
H2365 H 0.45302 0.98279 0.32315 0.0
H2366 H 0.4369 0.94148 0.32149 0.0
H2367 H 0.42627 0.97483 0.31432 0.0
C2368 C 0.91883 0.00972 0.55701 0.0
C2369 C 0.91207 0.97866 0.55332 0.0
C2370 C 0.9514 0.02219 0.55739 0.0
C2371 C 0.97781 0.00349 0.55386 0.0
C2372 C 0.97114 0.97254 0.54996 0.0
C2373 C 0.93849 0.96034 0.54982 0.0
C2374 C 0.95762 0.05514 0.5617 0.0
C2375 C -0.00141 0.95207 0.54601 0.0
C2376 C 0.05826 0.04858 0.54867 0.0
C2377 C 0.07871 0.03934 0.55551 0.0
C2378 C 0.02552 0.03683 0.548 0.0
C2379 C 0.01257 0.01589 0.55442 0.0
C2380 C 0.0329 0.00657 0.56136 0.0
C2381 C 0.06578 0.01808 0.56177 0.0
C2382 C 0.00475 0.04687 0.54043 0.0
C2383 C 0.01986 0.98453 0.56838 0.0
H2384 H 0.89865 0.02437 0.55961 0.0
H2385 H 0.93386 0.93602 0.54712 0.0
H2386 H 0.97503 0.05167 0.5671 0.0
H2387 H 0.96952 0.07268 0.5572 0.0
H2388 H 0.93438 0.06661 0.56414 0.0
H2389 H 0.98899 0.92945 0.54279 0.0
H2390 H 0.01247 0.96719 0.5413 0.0
H2391 H 0.01655 0.94433 0.55098 0.0
H2392 H 0.06764 0.06546 0.54387 0.0
H2393 H 0.08142 0.01023 0.56701 0.0
H2394 H 0.98257 0.06093 0.54257 0.0
H2395 H 0.99568 0.0244 0.53706 0.0
H2396 H 0.01884 0.0625 0.53585 0.0
H2397 H 0.99736 0.99585 0.57126 0.0
H2398 H 0.03854 0.98037 0.57347 0.0
H2399 H 0.01242 0.96006 0.56575 0.0
C2400 C 0.97549 0.55414 0.80104 0.0
C2401 C 0.9707 0.57037 0.80883 0.0
C2402 C 0.98764 0.52147 0.80072 0.0
C2403 C 0.99524 0.50465 0.80838 0.0
C2404 C 0.99056 0.52092 0.81626 0.0
C2405 C 0.9783 0.55358 0.8164 0.0
C2406 C 0.9922 0.50489 0.79219 0.0
C2407 C -0.00141 0.50386 0.82456 0.0
C2408 C -0.00038 0.41027 0.80815 0.0
C2409 C 0.03399 0.40481 0.80762 0.0
C2410 C 0.98662 0.44265 0.80839 0.0
C2411 C 0.00854 0.47018 0.80813 0.0
C2412 C 0.04324 0.46482 0.80763 0.0
C2413 C 0.05554 0.43222 0.80738 0.0
C2414 C 0.94944 0.44743 0.8089 0.0
C2415 C 0.06742 0.49352 0.80738 0.0
H2416 H 0.96917 0.5668 0.79517 0.0
H2417 H 0.97493 0.56612 0.82243 0.0
H2418 H 0.01856 0.49749 0.79134 0.0
H2419 H 0.97704 0.48189 0.79188 0.0
H2420 H 0.98497 0.52133 0.78682 0.0
H2421 H 0.99335 0.51989 0.83015 0.0
H2422 H 0.98386 0.48067 0.82516 0.0
H2423 H 0.02523 0.49672 0.82469 0.0
H2424 H 0.98285 0.38919 0.80827 0.0
H2425 H 0.08216 0.42817 0.80712 0.0
H2426 H 0.94068 0.46199 0.80335 0.0
H2427 H 0.943 0.46184 0.81468 0.0
H2428 H 0.9358 0.42344 0.80907 0.0
H2429 H 0.06203 0.50964 0.80183 0.0
H2430 H 0.09367 0.4851 0.80697 0.0
H2431 H 0.06449 0.50902 0.81316 0.0
loop_
_geom_bond_atom_site_label_1
_geom_bond_atom_site_label_2
_geom_bond_distance
_geom_bond_site_symmetry_2
_ccdc_geom_bond_type
Li0 N17 1.990 . S
Li0 O60 1.956 . S
Li0 O61 1.970 . S
Li0 O62 1.961 . S
Li1 N25 1.990 . S
Li1 O60 1.970 . S
Li1 O61 1.956 . S
Li1 O63 1.961 . S
Li2 N47 1.990 . S
Li2 O60 1.961 . S
Li2 O62 1.956 . S
Li2 O63 1.970 . S
Li3 N53 1.990 . S
Li3 O61 1.961 . S
Li3 O62 1.970 . S
Li3 O63 1.956 . S
C4 C6 1.348 . S
C4 C7 1.356 . S
C4 O60 1.325 . S
N5 C8 1.314 . S
N5 C9 1.279 . S
C6 C4 1.348 . S
C6 C8 1.353 . S
C6 H64 0.929 . S
C7 C4 1.356 . S
C7 C9 1.358 . S
C7 H65 0.930 . S
C8 N5 1.314 . S
C8 C6 1.353 . S
C8 H66 0.930 . S
C9 N5 1.279 . S
C9 C7 1.358 . S
C9 H67 0.930 . S
C10 C13 1.348 . S
C10 C14 1.356 . S
C10 O61 1.325 . S
C11 N12 1.279 . S
C11 C14 1.358 . S
C11 H68 0.930 . S
N12 C11 1.279 . S
N12 C15 1.314 . S
C13 C10 1.348 . S
C13 C15 1.353 . S
C13 H69 0.929 . S
C14 C10 1.356 . S
C14 C11 1.358 . S
C14 H70 0.930 . S
C15 N12 1.314 . S
C15 C13 1.353 . S
C15 H71 0.930 . S
C16 N17 1.314 . S
C16 C21 1.353 . S
C16 H22 0.930 . S
N17 Li0 1.990 . S
N17 C16 1.314 . S
N17 C19 1.279 . S
C18 C19 1.358 . S
C18 C20 1.356 . S
C18 H72 0.930 . S
C19 N17 1.279 . S
C19 C18 1.358 . S
C19 H23 0.930 . S
C20 C18 1.356 . S
C20 C21 1.348 . S
C21 C16 1.353 . S
C21 C20 1.348 . S
C21 H73 0.929 . S
H22 C16 0.930 . S
H23 C19 0.930 . S
C24 N25 1.314 . S
C24 C26 1.353 . S
C24 H30 0.930 . S
N25 Li1 1.990 . S
N25 C24 1.314 . S
N25 C28 1.279 . S
C26 C24 1.353 . S
C26 C29 1.348 . S
C26 H74 0.929 . S
C27 C28 1.358 . S
C27 C29 1.356 . S
C27 H75 0.930 . S
C28 N25 1.279 . S
C28 C27 1.358 . S
C28 H31 0.930 . S
C29 C26 1.348 . S
C29 C27 1.356 . S
H30 C24 0.930 . S
H31 C28 0.930 . S
C32 C34 1.348 . S
C32 C35 1.356 . S
C32 O62 1.325 . S
N33 C36 1.314 . S
N33 C37 1.279 . S
C34 C32 1.348 . S
C34 C36 1.353 . S
C34 H76 0.929 . S
C35 C32 1.356 . S
C35 C37 1.358 . S
C35 H77 0.930 . S
C36 N33 1.314 . S
C36 C34 1.353 . S
C36 H78 0.930 . S
C37 N33 1.279 . S
C37 C35 1.358 . S
C37 H79 0.930 . S
C38 C39 1.348 . S
C38 C40 1.356 . S
C38 O63 1.325 . S
C39 C38 1.348 . S
C39 C41 1.353 . S
C39 H80 0.929 . S
C40 C38 1.356 . S
C40 C42 1.358 . S
C40 H81 0.930 . S
C41 C39 1.353 . S
C41 N43 1.314 . S
C41 H82 0.930 . S
C42 C40 1.358 . S
C42 N43 1.279 . S
C42 H83 0.930 . S
N43 C41 1.314 . S
N43 C42 1.279 . S
C44 C46 1.353 . S
C44 N47 1.314 . S
C44 H50 0.930 . S
C45 N47 1.279 . S
C45 C48 1.358 . S
C45 H51 0.930 . S
C46 C44 1.353 . S
C46 C49 1.348 . S
C46 H84 0.929 . S
N47 Li2 1.990 . S
N47 C44 1.314 . S
N47 C45 1.279 . S
C48 C45 1.358 . S
C48 C49 1.356 . S
C48 H85 0.930 . S
C49 C46 1.348 . S
C49 C48 1.356 . S
H50 C44 0.930 . S
H51 C45 0.930 . S
C52 N53 1.314 . S
C52 C54 1.353 . S
C52 H58 0.930 . S
N53 Li3 1.990 . S
N53 C52 1.314 . S
N53 C56 1.279 . S
C54 C52 1.353 . S
C54 C57 1.348 . S
C54 H86 0.929 . S
C55 C56 1.358 . S
C55 C57 1.356 . S
C55 H87 0.930 . S
C56 N53 1.279 . S
C56 C55 1.358 . S
C56 H59 0.930 . S
C57 C54 1.348 . S
C57 C55 1.356 . S
H58 C52 0.930 . S
H59 C56 0.930 . S
O60 Li0 1.956 . S
O60 Li1 1.970 . S
O60 Li2 1.961 . S
O60 C4 1.325 . S
O61 Li0 1.970 . S
O61 Li1 1.956 . S
O61 Li3 1.961 . S
O61 C10 1.325 . S
O62 Li0 1.961 . S
O62 Li2 1.956 . S
O62 Li3 1.970 . S
O62 C32 1.325 . S
O63 Li1 1.961 . S
O63 Li2 1.970 . S
O63 Li3 1.956 . S
O63 C38 1.325 . S
H64 C6 0.929 . S
H65 C7 0.930 . S
H66 C8 0.930 . S
H67 C9 0.930 . S
H68 C11 0.930 . S
H69 C13 0.929 . S
H70 C14 0.930 . S
H71 C15 0.930 . S
H72 C18 0.930 . S
H73 C21 0.929 . S
H74 C26 0.929 . S
H75 C27 0.930 . S
H76 C34 0.929 . S
H77 C35 0.930 . S
H78 C36 0.930 . S
H79 C37 0.930 . S
H80 C39 0.929 . S
H81 C40 0.930 . S
H82 C41 0.930 . S
H83 C42 0.930 . S
H84 C46 0.929 . S
H85 C48 0.930 . S
H86 C54 0.929 . S
H87 C55 0.930 . S
Li88 N105 1.990 . S
Li88 O148 1.956 . S
Li88 O149 1.970 . S
Li88 O150 1.961 . S
Li89 N113 1.990 . S
Li89 O148 1.970 . S
Li89 O149 1.956 . S
Li89 O151 1.961 . S
Li90 N135 1.990 . S
Li90 O148 1.961 . S
Li90 O150 1.956 . S
Li90 O151 1.970 . S
Li91 N141 1.990 . S
Li91 O149 1.961 . S
Li91 O150 1.970 . S
Li91 O151 1.956 . S
C92 C94 1.348 . S
C92 C95 1.356 . S
C92 O148 1.325 . S
N93 C96 1.314 . S
N93 C97 1.279 . S
C94 C92 1.348 . S
C94 C96 1.353 . S
C94 H152 0.929 . S
C95 C92 1.356 . S
C95 C97 1.358 . S
C95 H153 0.930 . S
C96 N93 1.314 . S
C96 C94 1.353 . S
C96 H154 0.930 . S
C97 N93 1.279 . S
C97 C95 1.358 . S
C97 H155 0.930 . S
C98 C101 1.348 . S
C98 C102 1.356 . S
C98 O149 1.325 . S
C99 N100 1.279 . S
C99 C102 1.358 . S
C99 H156 0.930 . S
N100 C99 1.279 . S
N100 C103 1.314 . S
C101 C98 1.348 . S
C101 C103 1.353 . S
C101 H157 0.929 . S
C102 C98 1.356 . S
C102 C99 1.358 . S
C102 H158 0.930 . S
C103 N100 1.314 . S
C103 C101 1.353 . S
C103 H159 0.930 . S
C104 N105 1.314 . S
C104 C109 1.353 . S
C104 H110 0.930 . S
N105 Li88 1.990 . S
N105 C104 1.314 . S
N105 C107 1.279 . S
C106 C107 1.358 . S
C106 C108 1.356 . S
C106 H160 0.930 . S
C107 N105 1.279 . S
C107 C106 1.358 . S
C107 H111 0.930 . S
C108 C106 1.356 . S
C108 C109 1.348 . S
C109 C104 1.353 . S
C109 C108 1.348 . S
C109 H161 0.929 . S
H110 C104 0.930 . S
H111 C107 0.930 . S
C112 N113 1.314 . S
C112 C114 1.353 . S
C112 H118 0.930 . S
N113 Li89 1.990 . S
N113 C112 1.314 . S
N113 C116 1.279 . S
C114 C112 1.353 . S
C114 C117 1.348 . S
C114 H162 0.929 . S
C115 C116 1.358 . S
C115 C117 1.356 . S
C115 H163 0.930 . S
C116 N113 1.279 . S
C116 C115 1.358 . S
C116 H119 0.930 . S
C117 C114 1.348 . S
C117 C115 1.356 . S
H118 C112 0.930 . S
H119 C116 0.930 . S
C120 C122 1.348 . S
C120 C123 1.356 . S
C120 O150 1.325 . S
N121 C124 1.314 . S
N121 C125 1.279 . S
C122 C120 1.348 . S
C122 C124 1.353 . S
C122 H164 0.929 . S
C123 C120 1.356 . S
C123 C125 1.358 . S
C123 H165 0.930 . S
C124 N121 1.314 . S
C124 C122 1.353 . S
C124 H166 0.930 . S
C125 N121 1.279 . S
C125 C123 1.358 . S
C125 H167 0.930 . S
C126 C127 1.348 . S
C126 C128 1.356 . S
C126 O151 1.325 . S
C127 C126 1.348 . S
C127 C129 1.353 . S
C127 H168 0.929 . S
C128 C126 1.356 . S
C128 C130 1.358 . S
C128 H169 0.930 . S
C129 C127 1.353 . S
C129 N131 1.314 . S
C129 H170 0.930 . S
C130 C128 1.358 . S
C130 N131 1.279 . S
C130 H171 0.930 . S
N131 C129 1.314 . S
N131 C130 1.279 . S
C132 C134 1.353 . S
C132 N135 1.314 . S
C132 H138 0.930 . S
C133 N135 1.279 . S
C133 C136 1.358 . S
C133 H139 0.930 . S
C134 C132 1.353 . S
C134 C137 1.348 . S
C134 H172 0.929 . S
N135 Li90 1.990 . S
N135 C132 1.314 . S
N135 C133 1.279 . S
C136 C133 1.358 . S
C136 C137 1.356 . S
C136 H173 0.930 . S
C137 C134 1.348 . S
C137 C136 1.356 . S
H138 C132 0.930 . S
H139 C133 0.930 . S
C140 N141 1.314 . S
C140 C142 1.353 . S
C140 H146 0.930 . S
N141 Li91 1.990 . S
N141 C140 1.314 . S
N141 C144 1.279 . S
C142 C140 1.353 . S
C142 C145 1.348 . S
C142 H174 0.929 . S
C143 C144 1.358 . S
C143 C145 1.356 . S
C143 H175 0.930 . S
C144 N141 1.279 . S
C144 C143 1.358 . S
C144 H147 0.930 . S
C145 C142 1.348 . S
C145 C143 1.356 . S
H146 C140 0.930 . S
H147 C144 0.930 . S
O148 Li88 1.956 . S
O148 Li89 1.970 . S
O148 Li90 1.961 . S
O148 C92 1.325 . S
O149 Li88 1.970 . S
O149 Li89 1.956 . S
O149 Li91 1.961 . S
O149 C98 1.325 . S
O150 Li88 1.961 . S
O150 Li90 1.956 . S
O150 Li91 1.970 . S
O150 C120 1.325 . S
O151 Li89 1.961 . S
O151 Li90 1.970 . S
O151 Li91 1.956 . S
O151 C126 1.325 . S
H152 C94 0.929 . S
H153 C95 0.930 . S
H154 C96 0.930 . S
H155 C97 0.930 . S
H156 C99 0.930 . S
H157 C101 0.929 . S
H158 C102 0.930 . S
H159 C103 0.930 . S
H160 C106 0.930 . S
H161 C109 0.929 . S
H162 C114 0.929 . S
H163 C115 0.930 . S
H164 C122 0.929 . S
H165 C123 0.930 . S
H166 C124 0.930 . S
H167 C125 0.930 . S
H168 C127 0.929 . S
H169 C128 0.930 . S
H170 C129 0.930 . S
H171 C130 0.930 . S
H172 C134 0.929 . S
H173 C136 0.930 . S
H174 C142 0.929 . S
H175 C143 0.930 . S
Li176 N193 1.990 . S
Li176 O236 1.956 . S
Li176 O237 1.970 . S
Li176 O238 1.961 . S
Li177 N201 1.990 . S
Li177 O236 1.970 . S
Li177 O237 1.956 . S
Li177 O239 1.961 . S
Li178 N223 1.990 . S
Li178 O236 1.961 . S
Li178 O238 1.956 . S
Li178 O239 1.970 . S
Li179 N229 1.990 . S
Li179 O237 1.961 . S
Li179 O238 1.970 . S
Li179 O239 1.956 . S
C180 C182 1.348 . S
C180 C183 1.356 . S
C180 O236 1.325 . S
N181 C184 1.314 . S
N181 C185 1.279 . S
C182 C180 1.348 . S
C182 C184 1.353 . S
C182 H240 0.929 . S
C183 C180 1.356 . S
C183 C185 1.358 . S
C183 H241 0.930 . S
C184 N181 1.314 . S
C184 C182 1.353 . S
C184 H242 0.930 . S
C185 N181 1.279 . S
C185 C183 1.358 . S
C185 H243 0.930 . S
C186 C189 1.348 . S
C186 C190 1.356 . S
C186 O237 1.325 . S
C187 N188 1.279 . S
C187 C190 1.358 . S
C187 H244 0.930 . S
N188 C187 1.279 . S
N188 C191 1.314 . S
C189 C186 1.348 . S
C189 C191 1.353 . S
C189 H245 0.929 . S
C190 C186 1.356 . S
C190 C187 1.358 . S
C190 H246 0.930 . S
C191 N188 1.314 . S
C191 C189 1.353 . S
C191 H247 0.930 . S
C192 N193 1.314 . S
C192 C197 1.353 . S
C192 H198 0.930 . S
N193 Li176 1.990 . S
N193 C192 1.314 . S
N193 C195 1.279 . S
C194 C195 1.358 . S
C194 C196 1.356 . S
C194 H248 0.930 . S
C195 N193 1.279 . S
C195 C194 1.358 . S
C195 H199 0.930 . S
C196 C194 1.356 . S
C196 C197 1.348 . S
C197 C192 1.353 . S
C197 C196 1.348 . S
C197 H249 0.929 . S
H198 C192 0.930 . S
H199 C195 0.930 . S
C200 N201 1.314 . S
C200 C202 1.353 . S
C200 H206 0.930 . S
N201 Li177 1.990 . S
N201 C200 1.314 . S
N201 C204 1.279 . S
C202 C200 1.353 . S
C202 C205 1.348 . S
C202 H250 0.929 . S
C203 C204 1.358 . S
C203 C205 1.356 . S
C203 H251 0.930 . S
C204 N201 1.279 . S
C204 C203 1.358 . S
C204 H207 0.930 . S
C205 C202 1.348 . S
C205 C203 1.356 . S
H206 C200 0.930 . S
H207 C204 0.930 . S
C208 C210 1.348 . S
C208 C211 1.356 . S
C208 O238 1.325 . S
N209 C212 1.314 . S
N209 C213 1.279 . S
C210 C208 1.348 . S
C210 C212 1.353 . S
C210 H252 0.929 . S
C211 C208 1.356 . S
C211 C213 1.358 . S
C211 H253 0.930 . S
C212 N209 1.314 . S
C212 C210 1.353 . S
C212 H254 0.930 . S
C213 N209 1.279 . S
C213 C211 1.358 . S
C213 H255 0.930 . S
C214 C215 1.348 . S
C214 C216 1.356 . S
C214 O239 1.325 . S
C215 C214 1.348 . S
C215 C217 1.353 . S
C215 H256 0.929 . S
C216 C214 1.356 . S
C216 C218 1.358 . S
C216 H257 0.930 . S
C217 C215 1.353 . S
C217 N219 1.314 . S
C217 H258 0.930 . S
C218 C216 1.358 . S
C218 N219 1.279 . S
C218 H259 0.930 . S
N219 C217 1.314 . S
N219 C218 1.279 . S
C220 C222 1.353 . S
C220 N223 1.314 . S
C220 H226 0.930 . S
C221 N223 1.279 . S
C221 C224 1.358 . S
C221 H227 0.930 . S
C222 C220 1.353 . S
C222 C225 1.348 . S
C222 H260 0.929 . S
N223 Li178 1.990 . S
N223 C220 1.314 . S
N223 C221 1.279 . S
C224 C221 1.358 . S
C224 C225 1.356 . S
C224 H261 0.930 . S
C225 C222 1.348 . S
C225 C224 1.356 . S
H226 C220 0.930 . S
H227 C221 0.930 . S
C228 N229 1.314 . S
C228 C230 1.353 . S
C228 H234 0.930 . S
N229 Li179 1.990 . S
N229 C228 1.314 . S
N229 C232 1.279 . S
C230 C228 1.353 . S
C230 C233 1.348 . S
C230 H262 0.929 . S
C231 C232 1.358 . S
C231 C233 1.356 . S
C231 H263 0.930 . S
C232 N229 1.279 . S
C232 C231 1.358 . S
C232 H235 0.930 . S
C233 C230 1.348 . S
C233 C231 1.356 . S
H234 C228 0.930 . S
H235 C232 0.930 . S
O236 Li176 1.956 . S
O236 Li177 1.970 . S
O236 Li178 1.961 . S
O236 C180 1.325 . S
O237 Li176 1.970 . S
O237 Li177 1.956 . S
O237 Li179 1.961 . S
O237 C186 1.325 . S
O238 Li176 1.961 . S
O238 Li178 1.956 . S
O238 Li179 1.970 . S
O238 C208 1.325 . S
O239 Li177 1.961 . S
O239 Li178 1.970 . S
O239 Li179 1.956 . S
O239 C214 1.325 . S
H240 C182 0.929 . S
H241 C183 0.930 . S
H242 C184 0.930 . S
H243 C185 0.930 . S
H244 C187 0.930 . S
H245 C189 0.929 . S
H246 C190 0.930 . S
H247 C191 0.930 . S
H248 C194 0.930 . S
H249 C197 0.929 . S
H250 C202 0.929 . S
H251 C203 0.930 . S
H252 C210 0.929 . S
H253 C211 0.930 . S
H254 C212 0.930 . S
H255 C213 0.930 . S
H256 C215 0.929 . S
H257 C216 0.930 . S
H258 C217 0.930 . S
H259 C218 0.930 . S
H260 C222 0.929 . S
H261 C224 0.930 . S
H262 C230 0.929 . S
H263 C231 0.930 . S
Li264 N281 1.990 . S
Li264 O324 1.956 . S
Li264 O325 1.970 . S
Li264 O326 1.961 . S
Li265 N289 1.990 . S
Li265 O324 1.970 . S
Li265 O325 1.956 . S
Li265 O327 1.961 . S
Li266 N311 1.990 . S
Li266 O324 1.961 . S
Li266 O326 1.956 . S
Li266 O327 1.970 . S
Li267 N317 1.990 . S
Li267 O325 1.961 . S
Li267 O326 1.970 . S
Li267 O327 1.956 . S
C268 C270 1.348 . S
C268 C271 1.356 . S
C268 O324 1.325 . S
N269 C272 1.314 . S
N269 C273 1.279 . S
C270 C268 1.348 . S
C270 C272 1.353 . S
C270 H328 0.929 . S
C271 C268 1.356 . S
C271 C273 1.358 . S
C271 H329 0.930 . S
C272 N269 1.314 . S
C272 C270 1.353 . S
C272 H330 0.930 . S
C273 N269 1.279 . S
C273 C271 1.358 . S
C273 H331 0.930 . S
C274 C277 1.348 . S
C274 C278 1.356 . S
C274 O325 1.325 . S
C275 N276 1.279 . S
C275 C278 1.358 . S
C275 H332 0.930 . S
N276 C275 1.279 . S
N276 C279 1.314 . S
C277 C274 1.348 . S
C277 C279 1.353 . S
C277 H333 0.929 . S
C278 C274 1.356 . S
C278 C275 1.358 . S
C278 H334 0.930 . S
C279 N276 1.314 . S
C279 C277 1.353 . S
C279 H335 0.930 . S
C280 N281 1.314 . S
C280 C285 1.353 . S
C280 H286 0.930 . S
N281 Li264 1.990 . S
N281 C280 1.314 . S
N281 C283 1.279 . S
C282 C283 1.358 . S
C282 C284 1.356 . S
C282 H336 0.930 . S
C283 N281 1.279 . S
C283 C282 1.358 . S
C283 H287 0.930 . S
C284 C282 1.356 . S
C284 C285 1.348 . S
C285 C280 1.353 . S
C285 C284 1.348 . S
C285 H337 0.929 . S
H286 C280 0.930 . S
H287 C283 0.930 . S
C288 N289 1.314 . S
C288 C290 1.353 . S
C288 H294 0.930 . S
N289 Li265 1.990 . S
N289 C288 1.314 . S
N289 C292 1.279 . S
C290 C288 1.353 . S
C290 C293 1.348 . S
C290 H338 0.929 . S
C291 C292 1.358 . S
C291 C293 1.356 . S
C291 H339 0.930 . S
C292 N289 1.279 . S
C292 C291 1.358 . S
C292 H295 0.930 . S
C293 C290 1.348 . S
C293 C291 1.356 . S
H294 C288 0.930 . S
H295 C292 0.930 . S
C296 C298 1.348 . S
C296 C299 1.356 . S
C296 O326 1.325 . S
N297 C300 1.314 . S
N297 C301 1.279 . S
C298 C296 1.348 . S
C298 C300 1.353 . S
C298 H340 0.929 . S
C299 C296 1.356 . S
C299 C301 1.358 . S
C299 H341 0.930 . S
C300 N297 1.314 . S
C300 C298 1.353 . S
C300 H342 0.930 . S
C301 N297 1.279 . S
C301 C299 1.358 . S
C301 H343 0.930 . S
C302 C303 1.348 . S
C302 C304 1.356 . S
C302 O327 1.325 . S
C303 C302 1.348 . S
C303 C305 1.353 . S
C303 H344 0.929 . S
C304 C302 1.356 . S
C304 C306 1.358 . S
C304 H345 0.930 . S
C305 C303 1.353 . S
C305 N307 1.314 . S
C305 H346 0.930 . S
C306 C304 1.358 . S
C306 N307 1.279 . S
C306 H347 0.930 . S
N307 C305 1.314 . S
N307 C306 1.279 . S
C308 C310 1.353 . S
C308 N311 1.314 . S
C308 H314 0.930 . S
C309 N311 1.279 . S
C309 C312 1.358 . S
C309 H315 0.930 . S
C310 C308 1.353 . S
C310 C313 1.348 . S
C310 H348 0.929 . S
N311 Li266 1.990 . S
N311 C308 1.314 . S
N311 C309 1.279 . S
C312 C309 1.358 . S
C312 C313 1.356 . S
C312 H349 0.930 . S
C313 C310 1.348 . S
C313 C312 1.356 . S
H314 C308 0.930 . S
H315 C309 0.930 . S
C316 N317 1.314 . S
C316 C318 1.353 . S
C316 H322 0.930 . S
N317 Li267 1.990 . S
N317 C316 1.314 . S
N317 C320 1.279 . S
C318 C316 1.353 . S
C318 C321 1.348 . S
C318 H350 0.929 . S
C319 C320 1.358 . S
C319 C321 1.356 . S
C319 H351 0.930 . S
C320 N317 1.279 . S
C320 C319 1.358 . S
C320 H323 0.930 . S
C321 C318 1.348 . S
C321 C319 1.356 . S
H322 C316 0.930 . S
H323 C320 0.930 . S
O324 Li264 1.956 . S
O324 Li265 1.970 . S
O324 Li266 1.961 . S
O324 C268 1.325 . S
O325 Li264 1.970 . S
O325 Li265 1.956 . S
O325 Li267 1.961 . S
O325 C274 1.325 . S
O326 Li264 1.961 . S
O326 Li266 1.956 . S
O326 Li267 1.970 . S
O326 C296 1.325 . S
O327 Li265 1.961 . S
O327 Li266 1.970 . S
O327 Li267 1.956 . S
O327 C302 1.325 . S
H328 C270 0.929 . S
H329 C271 0.930 . S
H330 C272 0.930 . S
H331 C273 0.930 . S
H332 C275 0.930 . S
H333 C277 0.929 . S
H334 C278 0.930 . S
H335 C279 0.930 . S
H336 C282 0.930 . S
H337 C285 0.929 . S
H338 C290 0.929 . S
H339 C291 0.930 . S
H340 C298 0.929 . S
H341 C299 0.930 . S
H342 C300 0.930 . S
H343 C301 0.930 . S
H344 C303 0.929 . S
H345 C304 0.930 . S
H346 C305 0.930 . S
H347 C306 0.930 . S
H348 C310 0.929 . S
H349 C312 0.930 . S
H350 C318 0.929 . S
H351 C319 0.930 . S
Li352 N369 1.990 . S
Li352 O412 1.956 . S
Li352 O413 1.970 . S
Li352 O414 1.961 . S
Li353 N377 1.990 . S
Li353 O412 1.970 . S
Li353 O413 1.956 . S
Li353 O415 1.961 . S
Li354 N399 1.990 . S
Li354 O412 1.961 . S
Li354 O414 1.956 . S
Li354 O415 1.970 . S
Li355 N405 1.990 . S
Li355 O413 1.961 . S
Li355 O414 1.970 . S
Li355 O415 1.956 . S
C356 C358 1.348 . S
C356 C359 1.356 . S
C356 O412 1.325 . S
N357 C360 1.314 . S
N357 C361 1.279 . S
C358 C356 1.348 . S
C358 C360 1.353 . S
C358 H416 0.929 . S
C359 C356 1.356 . S
C359 C361 1.358 . S
C359 H417 0.930 . S
C360 N357 1.314 . S
C360 C358 1.353 . S
C360 H418 0.930 . S
C361 N357 1.279 . S
C361 C359 1.358 . S
C361 H419 0.930 . S
C362 C365 1.348 . S
C362 C366 1.356 . S
C362 O413 1.325 . S
C363 N364 1.279 . S
C363 C366 1.358 . S
C363 H420 0.930 . S
N364 C363 1.279 . S
N364 C367 1.314 . S
C365 C362 1.348 . S
C365 C367 1.353 . S
C365 H421 0.929 . S
C366 C362 1.356 . S
C366 C363 1.358 . S
C366 H422 0.930 . S
C367 N364 1.314 . S
C367 C365 1.353 . S
C367 H423 0.930 . S
C368 N369 1.314 . S
C368 C373 1.353 . S
C368 H374 0.930 . S
N369 Li352 1.990 . S
N369 C368 1.314 . S
N369 C371 1.279 . S
C370 C371 1.358 . S
C370 C372 1.356 . S
C370 H424 0.930 . S
C371 N369 1.279 . S
C371 C370 1.358 . S
C371 H375 0.930 . S
C372 C370 1.356 . S
C372 C373 1.348 . S
C373 C368 1.353 . S
C373 C372 1.348 . S
C373 H425 0.929 . S
H374 C368 0.930 . S
H375 C371 0.930 . S
C376 N377 1.314 . S
C376 C378 1.353 . S
C376 H382 0.930 . S
N377 Li353 1.990 . S
N377 C376 1.314 . S
N377 C380 1.279 . S
C378 C376 1.353 . S
C378 C381 1.348 . S
C378 H426 0.929 . S
C379 C380 1.358 . S
C379 C381 1.356 . S
C379 H427 0.930 . S
C380 N377 1.279 . S
C380 C379 1.358 . S
C380 H383 0.930 . S
C381 C378 1.348 . S
C381 C379 1.356 . S
H382 C376 0.930 . S
H383 C380 0.930 . S
C384 C386 1.348 . S
C384 C387 1.356 . S
C384 O414 1.325 . S
N385 C388 1.314 . S
N385 C389 1.279 . S
C386 C384 1.348 . S
C386 C388 1.353 . S
C386 H428 0.929 . S
C387 C384 1.356 . S
C387 C389 1.358 . S
C387 H429 0.930 . S
C388 N385 1.314 . S
C388 C386 1.353 . S
C388 H430 0.930 . S
C389 N385 1.279 . S
C389 C387 1.358 . S
C389 H431 0.930 . S
C390 C391 1.348 . S
C390 C392 1.356 . S
C390 O415 1.325 . S
C391 C390 1.348 . S
C391 C393 1.353 . S
C391 H432 0.929 . S
C392 C390 1.356 . S
C392 C394 1.358 . S
C392 H433 0.930 . S
C393 C391 1.353 . S
C393 N395 1.314 . S
C393 H434 0.930 . S
C394 C392 1.358 . S
C394 N395 1.279 . S
C394 H435 0.930 . S
N395 C393 1.314 . S
N395 C394 1.279 . S
C396 C398 1.353 . S
C396 N399 1.314 . S
C396 H402 0.930 . S
C397 N399 1.279 . S
C397 C400 1.358 . S
C397 H403 0.930 . S
C398 C396 1.353 . S
C398 C401 1.348 . S
C398 H436 0.929 . S
N399 Li354 1.990 . S
N399 C396 1.314 . S
N399 C397 1.279 . S
C400 C397 1.358 . S
C400 C401 1.356 . S
C400 H437 0.930 . S
C401 C398 1.348 . S
C401 C400 1.356 . S
H402 C396 0.930 . S
H403 C397 0.930 . S
C404 N405 1.314 . S
C404 C406 1.353 . S
C404 H410 0.930 . S
N405 Li355 1.990 . S
N405 C404 1.314 . S
N405 C408 1.279 . S
C406 C404 1.353 . S
C406 C409 1.348 . S
C406 H438 0.929 . S
C407 C408 1.358 . S
C407 C409 1.356 . S
C407 H439 0.930 . S
C408 N405 1.279 . S
C408 C407 1.358 . S
C408 H411 0.930 . S
C409 C406 1.348 . S
C409 C407 1.356 . S
H410 C404 0.930 . S
H411 C408 0.930 . S
O412 Li352 1.956 . S
O412 Li353 1.970 . S
O412 Li354 1.961 . S
O412 C356 1.325 . S
O413 Li352 1.970 . S
O413 Li353 1.956 . S
O413 Li355 1.961 . S
O413 C362 1.325 . S
O414 Li352 1.961 . S
O414 Li354 1.956 . S
O414 Li355 1.970 . S
O414 C384 1.325 . S
O415 Li353 1.961 . S
O415 Li354 1.970 . S
O415 Li355 1.956 . S
O415 C390 1.325 . S
H416 C358 0.929 . S
H417 C359 0.930 . S
H418 C360 0.930 . S
H419 C361 0.930 . S
H420 C363 0.930 . S
H421 C365 0.929 . S
H422 C366 0.930 . S
H423 C367 0.930 . S
H424 C370 0.930 . S
H425 C373 0.929 . S
H426 C378 0.929 . S
H427 C379 0.930 . S
H428 C386 0.929 . S
H429 C387 0.930 . S
H430 C388 0.930 . S
H431 C389 0.930 . S
H432 C391 0.929 . S
H433 C392 0.930 . S
H434 C393 0.930 . S
H435 C394 0.930 . S
H436 C398 0.929 . S
H437 C400 0.930 . S
H438 C406 0.929 . S
H439 C407 0.930 . S
Li440 N457 1.990 . S
Li440 O500 1.956 . S
Li440 O501 1.970 . S
Li440 O502 1.961 . S
Li441 N465 1.990 . S
Li441 O500 1.970 . S
Li441 O501 1.956 . S
Li441 O503 1.961 . S
Li442 N487 1.990 . S
Li442 O500 1.961 . S
Li442 O502 1.956 . S
Li442 O503 1.970 . S
Li443 N493 1.990 . S
Li443 O501 1.961 . S
Li443 O502 1.970 . S
Li443 O503 1.956 . S
C444 C446 1.348 . S
C444 C447 1.356 . S
C444 O500 1.325 . S
N445 C448 1.314 . S
N445 C449 1.279 . S
C446 C444 1.348 . S
C446 C448 1.353 . S
C446 H504 0.929 . S
C447 C444 1.356 . S
C447 C449 1.358 . S
C447 H505 0.930 . S
C448 N445 1.314 . S
C448 C446 1.353 . S
C448 H506 0.930 . S
C449 N445 1.279 . S
C449 C447 1.358 . S
C449 H507 0.930 . S
C450 C453 1.348 . S
C450 C454 1.356 . S
C450 O501 1.325 . S
C451 N452 1.279 . S
C451 C454 1.358 . S
C451 H508 0.930 . S
N452 C451 1.279 . S
N452 C455 1.314 . S
C453 C450 1.348 . S
C453 C455 1.353 . S
C453 H509 0.929 . S
C454 C450 1.356 . S
C454 C451 1.358 . S
C454 H510 0.930 . S
C455 N452 1.314 . S
C455 C453 1.353 . S
C455 H511 0.930 . S
C456 N457 1.314 . S
C456 C461 1.353 . S
C456 H462 0.930 . S
N457 Li440 1.990 . S
N457 C456 1.314 . S
N457 C459 1.279 . S
C458 C459 1.358 . S
C458 C460 1.356 . S
C458 H512 0.930 . S
C459 N457 1.279 . S
C459 C458 1.358 . S
C459 H463 0.930 . S
C460 C458 1.356 . S
C460 C461 1.348 . S
C461 C456 1.353 . S
C461 C460 1.348 . S
C461 H513 0.929 . S
H462 C456 0.930 . S
H463 C459 0.930 . S
C464 N465 1.314 . S
C464 C466 1.353 . S
C464 H470 0.930 . S
N465 Li441 1.990 . S
N465 C464 1.314 . S
N465 C468 1.279 . S
C466 C464 1.353 . S
C466 C469 1.348 . S
C466 H514 0.929 . S
C467 C468 1.358 . S
C467 C469 1.356 . S
C467 H515 0.930 . S
C468 N465 1.279 . S
C468 C467 1.358 . S
C468 H471 0.930 . S
C469 C466 1.348 . S
C469 C467 1.356 . S
H470 C464 0.930 . S
H471 C468 0.930 . S
C472 C474 1.348 . S
C472 C475 1.356 . S
C472 O502 1.325 . S
N473 C476 1.314 . S
N473 C477 1.279 . S
C474 C472 1.348 . S
C474 C476 1.353 . S
C474 H516 0.929 . S
C475 C472 1.356 . S
C475 C477 1.358 . S
C475 H517 0.930 . S
C476 N473 1.314 . S
C476 C474 1.353 . S
C476 H518 0.930 . S
C477 N473 1.279 . S
C477 C475 1.358 . S
C477 H519 0.930 . S
C478 C479 1.348 . S
C478 C480 1.356 . S
C478 O503 1.325 . S
C479 C478 1.348 . S
C479 C481 1.353 . S
C479 H520 0.929 . S
C480 C478 1.356 . S
C480 C482 1.358 . S
C480 H521 0.930 . S
C481 C479 1.353 . S
C481 N483 1.314 . S
C481 H522 0.930 . S
C482 C480 1.358 . S
C482 N483 1.279 . S
C482 H523 0.930 . S
N483 C481 1.314 . S
N483 C482 1.279 . S
C484 C486 1.353 . S
C484 N487 1.314 . S
C484 H490 0.930 . S
C485 N487 1.279 . S
C485 C488 1.358 . S
C485 H491 0.930 . S
C486 C484 1.353 . S
C486 C489 1.348 . S
C486 H524 0.929 . S
N487 Li442 1.990 . S
N487 C484 1.314 . S
N487 C485 1.279 . S
C488 C485 1.358 . S
C488 C489 1.356 . S
C488 H525 0.930 . S
C489 C486 1.348 . S
C489 C488 1.356 . S
H490 C484 0.930 . S
H491 C485 0.930 . S
C492 N493 1.314 . S
C492 C494 1.353 . S
C492 H498 0.930 . S
N493 Li443 1.990 . S
N493 C492 1.314 . S
N493 C496 1.279 . S
C494 C492 1.353 . S
C494 C497 1.348 . S
C494 H526 0.929 . S
C495 C496 1.358 . S
C495 C497 1.356 . S
C495 H527 0.930 . S
C496 N493 1.279 . S
C496 C495 1.358 . S
C496 H499 0.930 . S
C497 C494 1.348 . S
C497 C495 1.356 . S
H498 C492 0.930 . S
H499 C496 0.930 . S
O500 Li440 1.956 . S
O500 Li441 1.970 . S
O500 Li442 1.961 . S
O500 C444 1.325 . S
O501 Li440 1.970 . S
O501 Li441 1.956 . S
O501 Li443 1.961 . S
O501 C450 1.325 . S
O502 Li440 1.961 . S
O502 Li442 1.956 . S
O502 Li443 1.970 . S
O502 C472 1.325 . S
O503 Li441 1.961 . S
O503 Li442 1.970 . S
O503 Li443 1.956 . S
O503 C478 1.325 . S
H504 C446 0.929 . S
H505 C447 0.930 . S
H506 C448 0.930 . S
H507 C449 0.930 . S
H508 C451 0.930 . S
H509 C453 0.929 . S
H510 C454 0.930 . S
H511 C455 0.930 . S
H512 C458 0.930 . S
H513 C461 0.929 . S
H514 C466 0.929 . S
H515 C467 0.930 . S
H516 C474 0.929 . S
H517 C475 0.930 . S
H518 C476 0.930 . S
H519 C477 0.930 . S
H520 C479 0.929 . S
H521 C480 0.930 . S
H522 C481 0.930 . S
H523 C482 0.930 . S
H524 C486 0.929 . S
H525 C488 0.930 . S
H526 C494 0.929 . S
H527 C495 0.930 . S
Li528 N545 1.990 . S
Li528 O588 1.956 . S
Li528 O589 1.970 . S
Li528 O590 1.961 . S
Li529 N553 1.990 . S
Li529 O588 1.970 . S
Li529 O589 1.956 . S
Li529 O591 1.961 . S
Li530 N575 1.990 . S
Li530 O588 1.961 . S
Li530 O590 1.956 . S
Li530 O591 1.970 . S
Li531 N581 1.990 . S
Li531 O589 1.961 . S
Li531 O590 1.970 . S
Li531 O591 1.956 . S
C532 C534 1.348 . S
C532 C535 1.356 . S
C532 O588 1.325 . S
N533 C536 1.314 . S
N533 C537 1.279 . S
C534 C532 1.348 . S
C534 C536 1.353 . S
C534 H592 0.929 . S
C535 C532 1.356 . S
C535 C537 1.358 . S
C535 H593 0.930 . S
C536 N533 1.314 . S
C536 C534 1.353 . S
C536 H594 0.930 . S
C537 N533 1.279 . S
C537 C535 1.358 . S
C537 H595 0.930 . S
C538 C541 1.348 . S
C538 C542 1.356 . S
C538 O589 1.325 . S
C539 N540 1.279 . S
C539 C542 1.358 . S
C539 H596 0.930 . S
N540 C539 1.279 . S
N540 C543 1.314 . S
C541 C538 1.348 . S
C541 C543 1.353 . S
C541 H597 0.929 . S
C542 C538 1.356 . S
C542 C539 1.358 . S
C542 H598 0.930 . S
C543 N540 1.314 . S
C543 C541 1.353 . S
C543 H599 0.930 . S
C544 N545 1.314 . S
C544 C549 1.353 . S
C544 H550 0.930 . S
N545 Li528 1.990 . S
N545 C544 1.314 . S
N545 C547 1.279 . S
C546 C547 1.358 . S
C546 C548 1.356 . S
C546 H600 0.930 . S
C547 N545 1.279 . S
C547 C546 1.358 . S
C547 H551 0.930 . S
C548 C546 1.356 . S
C548 C549 1.348 . S
C549 C544 1.353 . S
C549 C548 1.348 . S
C549 H601 0.929 . S
H550 C544 0.930 . S
H551 C547 0.930 . S
C552 N553 1.314 . S
C552 C554 1.353 . S
C552 H558 0.930 . S
N553 Li529 1.990 . S
N553 C552 1.314 . S
N553 C556 1.279 . S
C554 C552 1.353 . S
C554 C557 1.348 . S
C554 H602 0.929 . S
C555 C556 1.358 . S
C555 C557 1.356 . S
C555 H603 0.930 . S
C556 N553 1.279 . S
C556 C555 1.358 . S
C556 H559 0.930 . S
C557 C554 1.348 . S
C557 C555 1.356 . S
H558 C552 0.930 . S
H559 C556 0.930 . S
C560 C562 1.348 . S
C560 C563 1.356 . S
C560 O590 1.325 . S
N561 C564 1.314 . S
N561 C565 1.279 . S
C562 C560 1.348 . S
C562 C564 1.353 . S
C562 H604 0.929 . S
C563 C560 1.356 . S
C563 C565 1.358 . S
C563 H605 0.930 . S
C564 N561 1.314 . S
C564 C562 1.353 . S
C564 H606 0.930 . S
C565 N561 1.279 . S
C565 C563 1.358 . S
C565 H607 0.930 . S
C566 C567 1.348 . S
C566 C568 1.356 . S
C566 O591 1.325 . S
C567 C566 1.348 . S
C567 C569 1.353 . S
C567 H608 0.929 . S
C568 C566 1.356 . S
C568 C570 1.358 . S
C568 H609 0.930 . S
C569 C567 1.353 . S
C569 N571 1.314 . S
C569 H610 0.930 . S
C570 C568 1.358 . S
C570 N571 1.279 . S
C570 H611 0.930 . S
N571 C569 1.314 . S
N571 C570 1.279 . S
C572 C574 1.353 . S
C572 N575 1.314 . S
C572 H578 0.930 . S
C573 N575 1.279 . S
C573 C576 1.358 . S
C573 H579 0.930 . S
C574 C572 1.353 . S
C574 C577 1.348 . S
C574 H612 0.929 . S
N575 Li530 1.990 . S
N575 C572 1.314 . S
N575 C573 1.279 . S
C576 C573 1.358 . S
C576 C577 1.356 . S
C576 H613 0.930 . S
C577 C574 1.348 . S
C577 C576 1.356 . S
H578 C572 0.930 . S
H579 C573 0.930 . S
C580 N581 1.314 . S
C580 C582 1.353 . S
C580 H586 0.930 . S
N581 Li531 1.990 . S
N581 C580 1.314 . S
N581 C584 1.279 . S
C582 C580 1.353 . S
C582 C585 1.348 . S
C582 H614 0.929 . S
C583 C584 1.358 . S
C583 C585 1.356 . S
C583 H615 0.930 . S
C584 N581 1.279 . S
C584 C583 1.358 . S
C584 H587 0.930 . S
C585 C582 1.348 . S
C585 C583 1.356 . S
H586 C580 0.930 . S
H587 C584 0.930 . S
O588 Li528 1.956 . S
O588 Li529 1.970 . S
O588 Li530 1.961 . S
O588 C532 1.325 . S
O589 Li528 1.970 . S
O589 Li529 1.956 . S
O589 Li531 1.961 . S
O589 C538 1.325 . S
O590 Li528 1.961 . S
O590 Li530 1.956 . S
O590 Li531 1.970 . S
O590 C560 1.325 . S
O591 Li529 1.961 . S
O591 Li530 1.970 . S
O591 Li531 1.956 . S
O591 C566 1.325 . S
H592 C534 0.929 . S
H593 C535 0.930 . S
H594 C536 0.930 . S
H595 C537 0.930 . S
H596 C539 0.930 . S
H597 C541 0.929 . S
H598 C542 0.930 . S
H599 C543 0.930 . S
H600 C546 0.930 . S
H601 C549 0.929 . S
H602 C554 0.929 . S
H603 C555 0.930 . S
H604 C562 0.929 . S
H605 C563 0.930 . S
H606 C564 0.930 . S
H607 C565 0.930 . S
H608 C567 0.929 . S
H609 C568 0.930 . S
H610 C569 0.930 . S
H611 C570 0.930 . S
H612 C574 0.929 . S
H613 C576 0.930 . S
H614 C582 0.929 . S
H615 C583 0.930 . S
Li616 N633 1.990 . S
Li616 O676 1.956 . S
Li616 O677 1.970 . S
Li616 O678 1.961 . S
Li617 N641 1.990 . S
Li617 O676 1.970 . S
Li617 O677 1.956 . S
Li617 O679 1.961 . S
Li618 N663 1.990 . S
Li618 O676 1.961 . S
Li618 O678 1.956 . S
Li618 O679 1.970 . S
Li619 N669 1.990 . S
Li619 O677 1.961 . S
Li619 O678 1.970 . S
Li619 O679 1.956 . S
C620 C622 1.348 . S
C620 C623 1.356 . S
C620 O676 1.325 . S
N621 C624 1.314 . S
N621 C625 1.279 . S
C622 C620 1.348 . S
C622 C624 1.353 . S
C622 H680 0.929 . S
C623 C620 1.356 . S
C623 C625 1.358 . S
C623 H681 0.930 . S
C624 N621 1.314 . S
C624 C622 1.353 . S
C624 H682 0.930 . S
C625 N621 1.279 . S
C625 C623 1.358 . S
C625 H683 0.930 . S
C626 C629 1.348 . S
C626 C630 1.356 . S
C626 O677 1.325 . S
C627 N628 1.279 . S
C627 C630 1.358 . S
C627 H684 0.930 . S
N628 C627 1.279 . S
N628 C631 1.314 . S
C629 C626 1.348 . S
C629 C631 1.353 . S
C629 H685 0.929 . S
C630 C626 1.356 . S
C630 C627 1.358 . S
C630 H686 0.930 . S
C631 N628 1.314 . S
C631 C629 1.353 . S
C631 H687 0.930 . S
C632 N633 1.314 . S
C632 C637 1.353 . S
C632 H638 0.930 . S
N633 Li616 1.990 . S
N633 C632 1.314 . S
N633 C635 1.279 . S
C634 C635 1.358 . S
C634 C636 1.356 . S
C634 H688 0.930 . S
C635 N633 1.279 . S
C635 C634 1.358 . S
C635 H639 0.930 . S
C636 C634 1.356 . S
C636 C637 1.348 . S
C637 C632 1.353 . S
C637 C636 1.348 . S
C637 H689 0.929 . S
H638 C632 0.930 . S
H639 C635 0.930 . S
C640 N641 1.314 . S
C640 C642 1.353 . S
C640 H646 0.930 . S
N641 Li617 1.990 . S
N641 C640 1.314 . S
N641 C644 1.279 . S
C642 C640 1.353 . S
C642 C645 1.348 . S
C642 H690 0.929 . S
C643 C644 1.358 . S
C643 C645 1.356 . S
C643 H691 0.930 . S
C644 N641 1.279 . S
C644 C643 1.358 . S
C644 H647 0.930 . S
C645 C642 1.348 . S
C645 C643 1.356 . S
H646 C640 0.930 . S
H647 C644 0.930 . S
C648 C650 1.348 . S
C648 C651 1.356 . S
C648 O678 1.325 . S
N649 C652 1.314 . S
N649 C653 1.279 . S
C650 C648 1.348 . S
C650 C652 1.353 . S
C650 H692 0.929 . S
C651 C648 1.356 . S
C651 C653 1.358 . S
C651 H693 0.930 . S
C652 N649 1.314 . S
C652 C650 1.353 . S
C652 H694 0.930 . S
C653 N649 1.279 . S
C653 C651 1.358 . S
C653 H695 0.930 . S
C654 C655 1.348 . S
C654 C656 1.356 . S
C654 O679 1.325 . S
C655 C654 1.348 . S
C655 C657 1.353 . S
C655 H696 0.929 . S
C656 C654 1.356 . S
C656 C658 1.358 . S
C656 H697 0.930 . S
C657 C655 1.353 . S
C657 N659 1.314 . S
C657 H698 0.930 . S
C658 C656 1.358 . S
C658 N659 1.279 . S
C658 H699 0.930 . S
N659 C657 1.314 . S
N659 C658 1.279 . S
C660 C662 1.353 . S
C660 N663 1.314 . S
C660 H666 0.930 . S
C661 N663 1.279 . S
C661 C664 1.358 . S
C661 H667 0.930 . S
C662 C660 1.353 . S
C662 C665 1.348 . S
C662 H700 0.929 . S
N663 Li618 1.990 . S
N663 C660 1.314 . S
N663 C661 1.279 . S
C664 C661 1.358 . S
C664 C665 1.356 . S
C664 H701 0.930 . S
C665 C662 1.348 . S
C665 C664 1.356 . S
H666 C660 0.930 . S
H667 C661 0.930 . S
C668 N669 1.314 . S
C668 C670 1.353 . S
C668 H674 0.930 . S
N669 Li619 1.990 . S
N669 C668 1.314 . S
N669 C672 1.279 . S
C670 C668 1.353 . S
C670 C673 1.348 . S
C670 H702 0.929 . S
C671 C672 1.358 . S
C671 C673 1.356 . S
C671 H703 0.930 . S
C672 N669 1.279 . S
C672 C671 1.358 . S
C672 H675 0.930 . S
C673 C670 1.348 . S
C673 C671 1.356 . S
H674 C668 0.930 . S
H675 C672 0.930 . S
O676 Li616 1.956 . S
O676 Li617 1.970 . S
O676 Li618 1.961 . S
O676 C620 1.325 . S
O677 Li616 1.970 . S
O677 Li617 1.956 . S
O677 Li619 1.961 . S
O677 C626 1.325 . S
O678 Li616 1.961 . S
O678 Li618 1.956 . S
O678 Li619 1.970 . S
O678 C648 1.325 . S
O679 Li617 1.961 . S
O679 Li618 1.970 . S
O679 Li619 1.956 . S
O679 C654 1.325 . S
H680 C622 0.929 . S
H681 C623 0.930 . S
H682 C624 0.930 . S
H683 C625 0.930 . S
H684 C627 0.930 . S
H685 C629 0.929 . S
H686 C630 0.930 . S
H687 C631 0.930 . S
H688 C634 0.930 . S
H689 C637 0.929 . S
H690 C642 0.929 . S
H691 C643 0.930 . S
H692 C650 0.929 . S
H693 C651 0.930 . S
H694 C652 0.930 . S
H695 C653 0.930 . S
H696 C655 0.929 . S
H697 C656 0.930 . S
H698 C657 0.930 . S
H699 C658 0.930 . S
H700 C662 0.929 . S
H701 C664 0.930 . S
H702 C670 0.929 . S
H703 C671 0.930 . S
Li704 N721 1.990 . S
Li704 O764 1.956 . S
Li704 O765 1.970 . S
Li704 O766 1.961 . S
Li705 N729 1.990 . S
Li705 O764 1.970 . S
Li705 O765 1.956 . S
Li705 O767 1.961 . S
Li706 N751 1.990 . S
Li706 O764 1.961 . S
Li706 O766 1.956 . S
Li706 O767 1.970 . S
Li707 N757 1.990 . S
Li707 O765 1.961 . S
Li707 O766 1.970 . S
Li707 O767 1.956 . S
C708 C710 1.348 . S
C708 C711 1.356 . S
C708 O764 1.325 . S
N709 C712 1.314 . S
N709 C713 1.279 . S
C710 C708 1.348 . S
C710 C712 1.353 . S
C710 H768 0.929 . S
C711 C708 1.356 . S
C711 C713 1.358 . S
C711 H769 0.930 . S
C712 N709 1.314 . S
C712 C710 1.353 . S
C712 H770 0.930 . S
C713 N709 1.279 . S
C713 C711 1.358 . S
C713 H771 0.930 . S
C714 C717 1.348 . S
C714 C718 1.356 . S
C714 O765 1.325 . S
C715 N716 1.279 . S
C715 C718 1.358 . S
C715 H772 0.930 . S
N716 C715 1.279 . S
N716 C719 1.314 . S
C717 C714 1.348 . S
C717 C719 1.353 . S
C717 H773 0.929 . S
C718 C714 1.356 . S
C718 C715 1.358 . S
C718 H774 0.930 . S
C719 N716 1.314 . S
C719 C717 1.353 . S
C719 H775 0.930 . S
C720 N721 1.314 . S
C720 C725 1.353 . S
C720 H726 0.930 . S
N721 Li704 1.990 . S
N721 C720 1.314 . S
N721 C723 1.279 . S
C722 C723 1.358 . S
C722 C724 1.356 . S
C722 H776 0.930 . S
C723 N721 1.279 . S
C723 C722 1.358 . S
C723 H727 0.930 . S
C724 C722 1.356 . S
C724 C725 1.348 . S
C725 C720 1.353 . S
C725 C724 1.348 . S
C725 H777 0.929 . S
H726 C720 0.930 . S
H727 C723 0.930 . S
C728 N729 1.314 . S
C728 C730 1.353 . S
C728 H734 0.930 . S
N729 Li705 1.990 . S
N729 C728 1.314 . S
N729 C732 1.279 . S
C730 C728 1.353 . S
C730 C733 1.348 . S
C730 H778 0.929 . S
C731 C732 1.358 . S
C731 C733 1.356 . S
C731 H779 0.930 . S
C732 N729 1.279 . S
C732 C731 1.358 . S
C732 H735 0.930 . S
C733 C730 1.348 . S
C733 C731 1.356 . S
H734 C728 0.930 . S
H735 C732 0.930 . S
C736 C738 1.348 . S
C736 C739 1.356 . S
C736 O766 1.325 . S
N737 C740 1.314 . S
N737 C741 1.279 . S
C738 C736 1.348 . S
C738 C740 1.353 . S
C738 H780 0.929 . S
C739 C736 1.356 . S
C739 C741 1.358 . S
C739 H781 0.930 . S
C740 N737 1.314 . S
C740 C738 1.353 . S
C740 H782 0.930 . S
C741 N737 1.279 . S
C741 C739 1.358 . S
C741 H783 0.930 . S
C742 C743 1.348 . S
C742 C744 1.356 . S
C742 O767 1.325 . S
C743 C742 1.348 . S
C743 C745 1.353 . S
C743 H784 0.929 . S
C744 C742 1.356 . S
C744 C746 1.358 . S
C744 H785 0.930 . S
C745 C743 1.353 . S
C745 N747 1.314 . S
C745 H786 0.930 . S
C746 C744 1.358 . S
C746 N747 1.279 . S
C746 H787 0.930 . S
N747 C745 1.314 . S
N747 C746 1.279 . S
C748 C750 1.353 . S
C748 N751 1.314 . S
C748 H754 0.930 . S
C749 N751 1.279 . S
C749 C752 1.358 . S
C749 H755 0.930 . S
C750 C748 1.353 . S
C750 C753 1.348 . S
C750 H788 0.929 . S
N751 Li706 1.990 . S
N751 C748 1.314 . S
N751 C749 1.279 . S
C752 C749 1.358 . S
C752 C753 1.356 . S
C752 H789 0.930 . S
C753 C750 1.348 . S
C753 C752 1.356 . S
H754 C748 0.930 . S
H755 C749 0.930 . S
C756 N757 1.314 . S
C756 C758 1.353 . S
C756 H762 0.930 . S
N757 Li707 1.990 . S
N757 C756 1.314 . S
N757 C760 1.279 . S
C758 C756 1.353 . S
C758 C761 1.348 . S
C758 H790 0.929 . S
C759 C760 1.358 . S
C759 C761 1.356 . S
C759 H791 0.930 . S
C760 N757 1.279 . S
C760 C759 1.358 . S
C760 H763 0.930 . S
C761 C758 1.348 . S
C761 C759 1.356 . S
H762 C756 0.930 . S
H763 C760 0.930 . S
O764 Li704 1.956 . S
O764 Li705 1.970 . S
O764 Li706 1.961 . S
O764 C708 1.325 . S
O765 Li704 1.970 . S
O765 Li705 1.956 . S
O765 Li707 1.961 . S
O765 C714 1.325 . S
O766 Li704 1.961 . S
O766 Li706 1.956 . S
O766 Li707 1.970 . S
O766 C736 1.325 . S
O767 Li705 1.961 . S
O767 Li706 1.970 . S
O767 Li707 1.956 . S
O767 C742 1.325 . S
H768 C710 0.929 . S
H769 C711 0.930 . S
H770 C712 0.930 . S
H771 C713 0.930 . S
H772 C715 0.930 . S
H773 C717 0.929 . S
H774 C718 0.930 . S
H775 C719 0.930 . S
H776 C722 0.930 . S
H777 C725 0.929 . S
H778 C730 0.929 . S
H779 C731 0.930 . S
H780 C738 0.929 . S
H781 C739 0.930 . S
H782 C740 0.930 . S
H783 C741 0.930 . S
H784 C743 0.929 . S
H785 C744 0.930 . S
H786 C745 0.930 . S
H787 C746 0.930 . S
H788 C750 0.929 . S
H789 C752 0.930 . S
H790 C758 0.929 . S
H791 C759 0.930 . S
Li792 N809 1.990 . S
Li792 O852 1.956 . S
Li792 O853 1.970 . S
Li792 O854 1.961 . S
Li793 N817 1.990 . S
Li793 O852 1.970 . S
Li793 O853 1.956 . S
Li793 O855 1.961 . S
Li794 N839 1.990 . S
Li794 O852 1.961 . S
Li794 O854 1.956 . S
Li794 O855 1.970 . S
Li795 N845 1.990 . S
Li795 O853 1.961 . S
Li795 O854 1.970 . S
Li795 O855 1.956 . S
C796 C798 1.348 . S
C796 C799 1.356 . S
C796 O852 1.325 . S
N797 C800 1.314 . S
N797 C801 1.279 . S
C798 C796 1.348 . S
C798 C800 1.353 . S
C798 H856 0.929 . S
C799 C796 1.356 . S
C799 C801 1.358 . S
C799 H857 0.930 . S
C800 N797 1.314 . S
C800 C798 1.353 . S
C800 H858 0.930 . S
C801 N797 1.279 . S
C801 C799 1.358 . S
C801 H859 0.930 . S
C802 C805 1.348 . S
C802 C806 1.356 . S
C802 O853 1.325 . S
C803 N804 1.279 . S
C803 C806 1.358 . S
C803 H860 0.930 . S
N804 C803 1.279 . S
N804 C807 1.314 . S
C805 C802 1.348 . S
C805 C807 1.353 . S
C805 H861 0.929 . S
C806 C802 1.356 . S
C806 C803 1.358 . S
C806 H862 0.930 . S
C807 N804 1.314 . S
C807 C805 1.353 . S
C807 H863 0.930 . S
C808 N809 1.314 . S
C808 C813 1.353 . S
C808 H814 0.930 . S
N809 Li792 1.990 . S
N809 C808 1.314 . S
N809 C811 1.279 . S
C810 C811 1.358 . S
C810 C812 1.356 . S
C810 H864 0.930 . S
C811 N809 1.279 . S
C811 C810 1.358 . S
C811 H815 0.930 . S
C812 C810 1.356 . S
C812 C813 1.348 . S
C813 C808 1.353 . S
C813 C812 1.348 . S
C813 H865 0.929 . S
H814 C808 0.930 . S
H815 C811 0.930 . S
C816 N817 1.314 . S
C816 C818 1.353 . S
C816 H822 0.930 . S
N817 Li793 1.990 . S
N817 C816 1.314 . S
N817 C820 1.279 . S
C818 C816 1.353 . S
C818 C821 1.348 . S
C818 H866 0.929 . S
C819 C820 1.358 . S
C819 C821 1.356 . S
C819 H867 0.930 . S
C820 N817 1.279 . S
C820 C819 1.358 . S
C820 H823 0.930 . S
C821 C818 1.348 . S
C821 C819 1.356 . S
H822 C816 0.930 . S
H823 C820 0.930 . S
C824 C826 1.348 . S
C824 C827 1.356 . S
C824 O854 1.325 . S
N825 C828 1.314 . S
N825 C829 1.279 . S
C826 C824 1.348 . S
C826 C828 1.353 . S
C826 H868 0.929 . S
C827 C824 1.356 . S
C827 C829 1.358 . S
C827 H869 0.930 . S
C828 N825 1.314 . S
C828 C826 1.353 . S
C828 H870 0.930 . S
C829 N825 1.279 . S
C829 C827 1.358 . S
C829 H871 0.930 . S
C830 C831 1.348 . S
C830 C832 1.356 . S
C830 O855 1.325 . S
C831 C830 1.348 . S
C831 C833 1.353 . S
C831 H872 0.929 . S
C832 C830 1.356 . S
C832 C834 1.358 . S
C832 H873 0.930 . S
C833 C831 1.353 . S
C833 N835 1.314 . S
C833 H874 0.930 . S
C834 C832 1.358 . S
C834 N835 1.279 . S
C834 H875 0.930 . S
N835 C833 1.314 . S
N835 C834 1.279 . S
C836 C838 1.353 . S
C836 N839 1.314 . S
C836 H842 0.930 . S
C837 N839 1.279 . S
C837 C840 1.358 . S
C837 H843 0.930 . S
C838 C836 1.353 . S
C838 C841 1.348 . S
C838 H876 0.929 . S
N839 Li794 1.990 . S
N839 C836 1.314 . S
N839 C837 1.279 . S
C840 C837 1.358 . S
C840 C841 1.356 . S
C840 H877 0.930 . S
C841 C838 1.348 . S
C841 C840 1.356 . S
H842 C836 0.930 . S
H843 C837 0.930 . S
C844 N845 1.314 . S
C844 C846 1.353 . S
C844 H850 0.930 . S
N845 Li795 1.990 . S
N845 C844 1.314 . S
N845 C848 1.279 . S
C846 C844 1.353 . S
C846 C849 1.348 . S
C846 H878 0.929 . S
C847 C848 1.358 . S
C847 C849 1.356 . S
C847 H879 0.930 . S
C848 N845 1.279 . S
C848 C847 1.358 . S
C848 H851 0.930 . S
C849 C846 1.348 . S
C849 C847 1.356 . S
H850 C844 0.930 . S
H851 C848 0.930 . S
O852 Li792 1.956 . S
O852 Li793 1.970 . S
O852 Li794 1.961 . S
O852 C796 1.325 . S
O853 Li792 1.970 . S
O853 Li793 1.956 . S
O853 Li795 1.961 . S
O853 C802 1.325 . S
O854 Li792 1.961 . S
O854 Li794 1.956 . S
O854 Li795 1.970 . S
O854 C824 1.325 . S
O855 Li793 1.961 . S
O855 Li794 1.970 . S
O855 Li795 1.956 . S
O855 C830 1.325 . S
H856 C798 0.929 . S
H857 C799 0.930 . S
H858 C800 0.930 . S
H859 C801 0.930 . S
H860 C803 0.930 . S
H861 C805 0.929 . S
H862 C806 0.930 . S
H863 C807 0.930 . S
H864 C810 0.930 . S
H865 C813 0.929 . S
H866 C818 0.929 . S
H867 C819 0.930 . S
H868 C826 0.929 . S
H869 C827 0.930 . S
H870 C828 0.930 . S
H871 C829 0.930 . S
H872 C831 0.929 . S
H873 C832 0.930 . S
H874 C833 0.930 . S
H875 C834 0.930 . S
H876 C838 0.929 . S
H877 C840 0.930 . S
H878 C846 0.929 . S
H879 C847 0.930 . S
Li880 N897 1.990 . S
Li880 O940 1.956 . S
Li880 O941 1.970 . S
Li880 O942 1.961 . S
Li881 N905 1.990 . S
Li881 O940 1.970 . S
Li881 O941 1.956 . S
Li881 O943 1.961 . S
Li882 N927 1.990 . S
Li882 O940 1.961 . S
Li882 O942 1.956 . S
Li882 O943 1.970 . S
Li883 N933 1.990 . S
Li883 O941 1.961 . S
Li883 O942 1.970 . S
Li883 O943 1.956 . S
C884 C886 1.348 . S
C884 C887 1.356 . S
C884 O940 1.325 . S
N885 C888 1.314 . S
N885 C889 1.279 . S
C886 C884 1.348 . S
C886 C888 1.353 . S
C886 H944 0.929 . S
C887 C884 1.356 . S
C887 C889 1.358 . S
C887 H945 0.930 . S
C888 N885 1.314 . S
C888 C886 1.353 . S
C888 H946 0.930 . S
C889 N885 1.279 . S
C889 C887 1.358 . S
C889 H947 0.930 . S
C890 C893 1.348 . S
C890 C894 1.356 . S
C890 O941 1.325 . S
C891 N892 1.279 . S
C891 C894 1.358 . S
C891 H948 0.930 . S
N892 C891 1.279 . S
N892 C895 1.314 . S
C893 C890 1.348 . S
C893 C895 1.353 . S
C893 H949 0.929 . S
C894 C890 1.356 . S
C894 C891 1.358 . S
C894 H950 0.930 . S
C895 N892 1.314 . S
C895 C893 1.353 . S
C895 H951 0.930 . S
C896 N897 1.314 . S
C896 C901 1.353 . S
C896 H902 0.930 . S
N897 Li880 1.990 . S
N897 C896 1.314 . S
N897 C899 1.279 . S
C898 C899 1.358 . S
C898 C900 1.356 . S
C898 H952 0.930 . S
C899 N897 1.279 . S
C899 C898 1.358 . S
C899 H903 0.930 . S
C900 C898 1.356 . S
C900 C901 1.348 . S
C901 C896 1.353 . S
C901 C900 1.348 . S
C901 H953 0.929 . S
H902 C896 0.930 . S
H903 C899 0.930 . S
C904 N905 1.314 . S
C904 C906 1.353 . S
C904 H910 0.930 . S
N905 Li881 1.990 . S
N905 C904 1.314 . S
N905 C908 1.279 . S
C906 C904 1.353 . S
C906 C909 1.348 . S
C906 H954 0.929 . S
C907 C908 1.358 . S
C907 C909 1.356 . S
C907 H955 0.930 . S
C908 N905 1.279 . S
C908 C907 1.358 . S
C908 H911 0.930 . S
C909 C906 1.348 . S
C909 C907 1.356 . S
H910 C904 0.930 . S
H911 C908 0.930 . S
C912 C914 1.348 . S
C912 C915 1.356 . S
C912 O942 1.325 . S
N913 C916 1.314 . S
N913 C917 1.279 . S
C914 C912 1.348 . S
C914 C916 1.353 . S
C914 H956 0.929 . S
C915 C912 1.356 . S
C915 C917 1.358 . S
C915 H957 0.930 . S
C916 N913 1.314 . S
C916 C914 1.353 . S
C916 H958 0.930 . S
C917 N913 1.279 . S
C917 C915 1.358 . S
C917 H959 0.930 . S
C918 C919 1.348 . S
C918 C920 1.356 . S
C918 O943 1.325 . S
C919 C918 1.348 . S
C919 C921 1.353 . S
C919 H960 0.929 . S
C920 C918 1.356 . S
C920 C922 1.358 . S
C920 H961 0.930 . S
C921 C919 1.353 . S
C921 N923 1.314 . S
C921 H962 0.930 . S
C922 C920 1.358 . S
C922 N923 1.279 . S
C922 H963 0.930 . S
N923 C921 1.314 . S
N923 C922 1.279 . S
C924 C926 1.353 . S
C924 N927 1.314 . S
C924 H930 0.930 . S
C925 N927 1.279 . S
C925 C928 1.358 . S
C925 H931 0.930 . S
C926 C924 1.353 . S
C926 C929 1.348 . S
C926 H964 0.929 . S
N927 Li882 1.990 . S
N927 C924 1.314 . S
N927 C925 1.279 . S
C928 C925 1.358 . S
C928 C929 1.356 . S
C928 H965 0.930 . S
C929 C926 1.348 . S
C929 C928 1.356 . S
H930 C924 0.930 . S
H931 C925 0.930 . S
C932 N933 1.314 . S
C932 C934 1.353 . S
C932 H938 0.930 . S
N933 Li883 1.990 . S
N933 C932 1.314 . S
N933 C936 1.279 . S
C934 C932 1.353 . S
C934 C937 1.348 . S
C934 H966 0.929 . S
C935 C936 1.358 . S
C935 C937 1.356 . S
C935 H967 0.930 . S
C936 N933 1.279 . S
C936 C935 1.358 . S
C936 H939 0.930 . S
C937 C934 1.348 . S
C937 C935 1.356 . S
H938 C932 0.930 . S
H939 C936 0.930 . S
O940 Li880 1.956 . S
O940 Li881 1.970 . S
O940 Li882 1.961 . S
O940 C884 1.325 . S
O941 Li880 1.970 . S
O941 Li881 1.956 . S
O941 Li883 1.961 . S
O941 C890 1.325 . S
O942 Li880 1.961 . S
O942 Li882 1.956 . S
O942 Li883 1.970 . S
O942 C912 1.325 . S
O943 Li881 1.961 . S
O943 Li882 1.970 . S
O943 Li883 1.956 . S
O943 C918 1.325 . S
H944 C886 0.929 . S
H945 C887 0.930 . S
H946 C888 0.930 . S
H947 C889 0.930 . S
H948 C891 0.930 . S
H949 C893 0.929 . S
H950 C894 0.930 . S
H951 C895 0.930 . S
H952 C898 0.930 . S
H953 C901 0.929 . S
H954 C906 0.929 . S
H955 C907 0.930 . S
H956 C914 0.929 . S
H957 C915 0.930 . S
H958 C916 0.930 . S
H959 C917 0.930 . S
H960 C919 0.929 . S
H961 C920 0.930 . S
H962 C921 0.930 . S
H963 C922 0.930 . S
H964 C926 0.929 . S
H965 C928 0.930 . S
H966 C934 0.929 . S
H967 C935 0.930 . S
Li968 N985 1.990 . S
Li968 O1028 1.956 . S
Li968 O1029 1.970 . S
Li968 O1030 1.961 . S
Li969 N993 1.990 . S
Li969 O1028 1.970 . S
Li969 O1029 1.956 . S
Li969 O1031 1.961 . S
Li970 N1015 1.990 . S
Li970 O1028 1.961 . S
Li970 O1030 1.956 . S
Li970 O1031 1.970 . S
Li971 N1021 1.990 . S
Li971 O1029 1.961 . S
Li971 O1030 1.970 . S
Li971 O1031 1.956 . S
C972 C974 1.348 . S
C972 C975 1.356 . S
C972 O1028 1.325 . S
N973 C976 1.314 . S
N973 C977 1.279 . S
C974 C972 1.348 . S
C974 C976 1.353 . S
C974 H1032 0.929 . S
C975 C972 1.356 . S
C975 C977 1.358 . S
C975 H1033 0.930 . S
C976 N973 1.314 . S
C976 C974 1.353 . S
C976 H1034 0.930 . S
C977 N973 1.279 . S
C977 C975 1.358 . S
C977 H1035 0.930 . S
C978 C981 1.348 . S
C978 C982 1.356 . S
C978 O1029 1.325 . S
C979 N980 1.279 . S
C979 C982 1.358 . S
C979 H1036 0.930 . S
N980 C979 1.279 . S
N980 C983 1.314 . S
C981 C978 1.348 . S
C981 C983 1.353 . S
C981 H1037 0.929 . S
C982 C978 1.356 . S
C982 C979 1.358 . S
C982 H1038 0.930 . S
C983 N980 1.314 . S
C983 C981 1.353 . S
C983 H1039 0.930 . S
C984 N985 1.314 . S
C984 C989 1.353 . S
C984 H990 0.930 . S
N985 Li968 1.990 . S
N985 C984 1.314 . S
N985 C987 1.279 . S
C986 C987 1.358 . S
C986 C988 1.356 . S
C986 H1040 0.930 . S
C987 N985 1.279 . S
C987 C986 1.358 . S
C987 H991 0.930 . S
C988 C986 1.356 . S
C988 C989 1.348 . S
C989 C984 1.353 . S
C989 C988 1.348 . S
C989 H1041 0.929 . S
H990 C984 0.930 . S
H991 C987 0.930 . S
C992 N993 1.314 . S
C992 C994 1.353 . S
C992 H998 0.930 . S
N993 Li969 1.990 . S
N993 C992 1.314 . S
N993 C996 1.279 . S
C994 C992 1.353 . S
C994 C997 1.348 . S
C994 H1042 0.929 . S
C995 C996 1.358 . S
C995 C997 1.356 . S
C995 H1043 0.930 . S
C996 N993 1.279 . S
C996 C995 1.358 . S
C996 H999 0.930 . S
C997 C994 1.348 . S
C997 C995 1.356 . S
H998 C992 0.930 . S
H999 C996 0.930 . S
C1000 C1002 1.348 . S
C1000 C1003 1.356 . S
C1000 O1030 1.325 . S
N1001 C1004 1.314 . S
N1001 C1005 1.279 . S
C1002 C1000 1.348 . S
C1002 C1004 1.353 . S
C1002 H1044 0.929 . S
C1003 C1000 1.356 . S
C1003 C1005 1.358 . S
C1003 H1045 0.930 . S
C1004 N1001 1.314 . S
C1004 C1002 1.353 . S
C1004 H1046 0.930 . S
C1005 N1001 1.279 . S
C1005 C1003 1.358 . S
C1005 H1047 0.930 . S
C1006 C1007 1.348 . S
C1006 C1008 1.356 . S
C1006 O1031 1.325 . S
C1007 C1006 1.348 . S
C1007 C1009 1.353 . S
C1007 H1048 0.929 . S
C1008 C1006 1.356 . S
C1008 C1010 1.358 . S
C1008 H1049 0.930 . S
C1009 C1007 1.353 . S
C1009 N1011 1.314 . S
C1009 H1050 0.930 . S
C1010 C1008 1.358 . S
C1010 N1011 1.279 . S
C1010 H1051 0.930 . S
N1011 C1009 1.314 . S
N1011 C1010 1.279 . S
C1012 C1014 1.353 . S
C1012 N1015 1.314 . S
C1012 H1018 0.930 . S
C1013 N1015 1.279 . S
C1013 C1016 1.358 . S
C1013 H1019 0.930 . S
C1014 C1012 1.353 . S
C1014 C1017 1.348 . S
C1014 H1052 0.929 . S
N1015 Li970 1.990 . S
N1015 C1012 1.314 . S
N1015 C1013 1.279 . S
C1016 C1013 1.358 . S
C1016 C1017 1.356 . S
C1016 H1053 0.930 . S
C1017 C1014 1.348 . S
C1017 C1016 1.356 . S
H1018 C1012 0.930 . S
H1019 C1013 0.930 . S
C1020 N1021 1.314 . S
C1020 C1022 1.353 . S
C1020 H1026 0.930 . S
N1021 Li971 1.990 . S
N1021 C1020 1.314 . S
N1021 C1024 1.279 . S
C1022 C1020 1.353 . S
C1022 C1025 1.348 . S
C1022 H1054 0.929 . S
C1023 C1024 1.358 . S
C1023 C1025 1.356 . S
C1023 H1055 0.930 . S
C1024 N1021 1.279 . S
C1024 C1023 1.358 . S
C1024 H1027 0.930 . S
C1025 C1022 1.348 . S
C1025 C1023 1.356 . S
H1026 C1020 0.930 . S
H1027 C1024 0.930 . S
O1028 Li968 1.956 . S
O1028 Li969 1.970 . S
O1028 Li970 1.961 . S
O1028 C972 1.325 . S
O1029 Li968 1.970 . S
O1029 Li969 1.956 . S
O1029 Li971 1.961 . S
O1029 C978 1.325 . S
O1030 Li968 1.961 . S
O1030 Li970 1.956 . S
O1030 Li971 1.970 . S
O1030 C1000 1.325 . S
O1031 Li969 1.961 . S
O1031 Li970 1.970 . S
O1031 Li971 1.956 . S
O1031 C1006 1.325 . S
H1032 C974 0.929 . S
H1033 C975 0.930 . S
H1034 C976 0.930 . S
H1035 C977 0.930 . S
H1036 C979 0.930 . S
H1037 C981 0.929 . S
H1038 C982 0.930 . S
H1039 C983 0.930 . S
H1040 C986 0.930 . S
H1041 C989 0.929 . S
H1042 C994 0.929 . S
H1043 C995 0.930 . S
H1044 C1002 0.929 . S
H1045 C1003 0.930 . S
H1046 C1004 0.930 . S
H1047 C1005 0.930 . S
H1048 C1007 0.929 . S
H1049 C1008 0.930 . S
H1050 C1009 0.930 . S
H1051 C1010 0.930 . S
H1052 C1014 0.929 . S
H1053 C1016 0.930 . S
H1054 C1022 0.929 . S
H1055 C1023 0.930 . S
Li1056 N1073 1.990 . S
Li1056 O1116 1.956 . S
Li1056 O1117 1.970 . S
Li1056 O1118 1.961 . S
Li1057 N1081 1.990 . S
Li1057 O1116 1.970 . S
Li1057 O1117 1.956 . S
Li1057 O1119 1.961 . S
Li1058 N1103 1.990 . S
Li1058 O1116 1.961 . S
Li1058 O1118 1.956 . S
Li1058 O1119 1.970 . S
Li1059 N1109 1.990 . S
Li1059 O1117 1.961 . S
Li1059 O1118 1.970 . S
Li1059 O1119 1.956 . S
C1060 C1062 1.348 . S
C1060 C1063 1.356 . S
C1060 O1116 1.325 . S
N1061 C1064 1.314 . S
N1061 C1065 1.279 . S
C1062 C1060 1.348 . S
C1062 C1064 1.353 . S
C1062 H1120 0.929 . S
C1063 C1060 1.356 . S
C1063 C1065 1.358 . S
C1063 H1121 0.930 . S
C1064 N1061 1.314 . S
C1064 C1062 1.353 . S
C1064 H1122 0.930 . S
C1065 N1061 1.279 . S
C1065 C1063 1.358 . S
C1065 H1123 0.930 . S
C1066 C1069 1.348 . S
C1066 C1070 1.356 . S
C1066 O1117 1.325 . S
C1067 N1068 1.279 . S
C1067 C1070 1.358 . S
C1067 H1124 0.930 . S
N1068 C1067 1.279 . S
N1068 C1071 1.314 . S
C1069 C1066 1.348 . S
C1069 C1071 1.353 . S
C1069 H1125 0.929 . S
C1070 C1066 1.356 . S
C1070 C1067 1.358 . S
C1070 H1126 0.930 . S
C1071 N1068 1.314 . S
C1071 C1069 1.353 . S
C1071 H1127 0.930 . S
C1072 N1073 1.314 . S
C1072 C1077 1.353 . S
C1072 H1078 0.930 . S
N1073 Li1056 1.990 . S
N1073 C1072 1.314 . S
N1073 C1075 1.279 . S
C1074 C1075 1.358 . S
C1074 C1076 1.356 . S
C1074 H1128 0.930 . S
C1075 N1073 1.279 . S
C1075 C1074 1.358 . S
C1075 H1079 0.930 . S
C1076 C1074 1.356 . S
C1076 C1077 1.348 . S
C1077 C1072 1.353 . S
C1077 C1076 1.348 . S
C1077 H1129 0.929 . S
H1078 C1072 0.930 . S
H1079 C1075 0.930 . S
C1080 N1081 1.314 . S
C1080 C1082 1.353 . S
C1080 H1086 0.930 . S
N1081 Li1057 1.990 . S
N1081 C1080 1.314 . S
N1081 C1084 1.279 . S
C1082 C1080 1.353 . S
C1082 C1085 1.348 . S
C1082 H1130 0.929 . S
C1083 C1084 1.358 . S
C1083 C1085 1.356 . S
C1083 H1131 0.930 . S
C1084 N1081 1.279 . S
C1084 C1083 1.358 . S
C1084 H1087 0.930 . S
C1085 C1082 1.348 . S
C1085 C1083 1.356 . S
H1086 C1080 0.930 . S
H1087 C1084 0.930 . S
C1088 C1090 1.348 . S
C1088 C1091 1.356 . S
C1088 O1118 1.325 . S
N1089 C1092 1.314 . S
N1089 C1093 1.279 . S
C1090 C1088 1.348 . S
C1090 C1092 1.353 . S
C1090 H1132 0.929 . S
C1091 C1088 1.356 . S
C1091 C1093 1.358 . S
C1091 H1133 0.930 . S
C1092 N1089 1.314 . S
C1092 C1090 1.353 . S
C1092 H1134 0.930 . S
C1093 N1089 1.279 . S
C1093 C1091 1.358 . S
C1093 H1135 0.930 . S
C1094 C1095 1.348 . S
C1094 C1096 1.356 . S
C1094 O1119 1.325 . S
C1095 C1094 1.348 . S
C1095 C1097 1.353 . S
C1095 H1136 0.929 . S
C1096 C1094 1.356 . S
C1096 C1098 1.358 . S
C1096 H1137 0.930 . S
C1097 C1095 1.353 . S
C1097 N1099 1.314 . S
C1097 H1138 0.930 . S
C1098 C1096 1.358 . S
C1098 N1099 1.279 . S
C1098 H1139 0.930 . S
N1099 C1097 1.314 . S
N1099 C1098 1.279 . S
C1100 C1102 1.353 . S
C1100 N1103 1.314 . S
C1100 H1106 0.930 . S
C1101 N1103 1.279 . S
C1101 C1104 1.358 . S
C1101 H1107 0.930 . S
C1102 C1100 1.353 . S
C1102 C1105 1.348 . S
C1102 H1140 0.929 . S
N1103 Li1058 1.990 . S
N1103 C1100 1.314 . S
N1103 C1101 1.279 . S
C1104 C1101 1.358 . S
C1104 C1105 1.356 . S
C1104 H1141 0.930 . S
C1105 C1102 1.348 . S
C1105 C1104 1.356 . S
H1106 C1100 0.930 . S
H1107 C1101 0.930 . S
C1108 N1109 1.314 . S
C1108 C1110 1.353 . S
C1108 H1114 0.930 . S
N1109 Li1059 1.990 . S
N1109 C1108 1.314 . S
N1109 C1112 1.279 . S
C1110 C1108 1.353 . S
C1110 C1113 1.348 . S
C1110 H1142 0.929 . S
C1111 C1112 1.358 . S
C1111 C1113 1.356 . S
C1111 H1143 0.930 . S
C1112 N1109 1.279 . S
C1112 C1111 1.358 . S
C1112 H1115 0.930 . S
C1113 C1110 1.348 . S
C1113 C1111 1.356 . S
H1114 C1108 0.930 . S
H1115 C1112 0.930 . S
O1116 Li1056 1.956 . S
O1116 Li1057 1.970 . S
O1116 Li1058 1.961 . S
O1116 C1060 1.325 . S
O1117 Li1056 1.970 . S
O1117 Li1057 1.956 . S
O1117 Li1059 1.961 . S
O1117 C1066 1.325 . S
O1118 Li1056 1.961 . S
O1118 Li1058 1.956 . S
O1118 Li1059 1.970 . S
O1118 C1088 1.325 . S
O1119 Li1057 1.961 . S
O1119 Li1058 1.970 . S
O1119 Li1059 1.956 . S
O1119 C1094 1.325 . S
H1120 C1062 0.929 . S
H1121 C1063 0.930 . S
H1122 C1064 0.930 . S
H1123 C1065 0.930 . S
H1124 C1067 0.930 . S
H1125 C1069 0.929 . S
H1126 C1070 0.930 . S
H1127 C1071 0.930 . S
H1128 C1074 0.930 . S
H1129 C1077 0.929 . S
H1130 C1082 0.929 . S
H1131 C1083 0.930 . S
H1132 C1090 0.929 . S
H1133 C1091 0.930 . S
H1134 C1092 0.930 . S
H1135 C1093 0.930 . S
H1136 C1095 0.929 . S
H1137 C1096 0.930 . S
H1138 C1097 0.930 . S
H1139 C1098 0.930 . S
H1140 C1102 0.929 . S
H1141 C1104 0.930 . S
H1142 C1110 0.929 . S
H1143 C1111 0.930 . S
Li1144 N1161 1.990 . S
Li1144 O1204 1.956 . S
Li1144 O1205 1.970 . S
Li1144 O1206 1.961 . S
Li1145 N1169 1.990 . S
Li1145 O1204 1.970 . S
Li1145 O1205 1.956 . S
Li1145 O1207 1.961 . S
Li1146 N1191 1.990 . S
Li1146 O1204 1.961 . S
Li1146 O1206 1.956 . S
Li1146 O1207 1.970 . S
Li1147 N1197 1.990 . S
Li1147 O1205 1.961 . S
Li1147 O1206 1.970 . S
Li1147 O1207 1.956 . S
C1148 C1150 1.348 . S
C1148 C1151 1.356 . S
C1148 O1204 1.325 . S
N1149 C1152 1.314 . S
N1149 C1153 1.279 . S
C1150 C1148 1.348 . S
C1150 C1152 1.353 . S
C1150 H1208 0.929 . S
C1151 C1148 1.356 . S
C1151 C1153 1.358 . S
C1151 H1209 0.930 . S
C1152 N1149 1.314 . S
C1152 C1150 1.353 . S
C1152 H1210 0.930 . S
C1153 N1149 1.279 . S
C1153 C1151 1.358 . S
C1153 H1211 0.930 . S
C1154 C1157 1.348 . S
C1154 C1158 1.356 . S
C1154 O1205 1.325 . S
C1155 N1156 1.279 . S
C1155 C1158 1.358 . S
C1155 H1212 0.930 . S
N1156 C1155 1.279 . S
N1156 C1159 1.314 . S
C1157 C1154 1.348 . S
C1157 C1159 1.353 . S
C1157 H1213 0.929 . S
C1158 C1154 1.356 . S
C1158 C1155 1.358 . S
C1158 H1214 0.930 . S
C1159 N1156 1.314 . S
C1159 C1157 1.353 . S
C1159 H1215 0.930 . S
C1160 N1161 1.314 . S
C1160 C1165 1.353 . S
C1160 H1166 0.930 . S
N1161 Li1144 1.990 . S
N1161 C1160 1.314 . S
N1161 C1163 1.279 . S
C1162 C1163 1.358 . S
C1162 C1164 1.356 . S
C1162 H1216 0.930 . S
C1163 N1161 1.279 . S
C1163 C1162 1.358 . S
C1163 H1167 0.930 . S
C1164 C1162 1.356 . S
C1164 C1165 1.348 . S
C1165 C1160 1.353 . S
C1165 C1164 1.348 . S
C1165 H1217 0.929 . S
H1166 C1160 0.930 . S
H1167 C1163 0.930 . S
C1168 N1169 1.314 . S
C1168 C1170 1.353 . S
C1168 H1174 0.930 . S
N1169 Li1145 1.990 . S
N1169 C1168 1.314 . S
N1169 C1172 1.279 . S
C1170 C1168 1.353 . S
C1170 C1173 1.348 . S
C1170 H1218 0.929 . S
C1171 C1172 1.358 . S
C1171 C1173 1.356 . S
C1171 H1219 0.930 . S
C1172 N1169 1.279 . S
C1172 C1171 1.358 . S
C1172 H1175 0.930 . S
C1173 C1170 1.348 . S
C1173 C1171 1.356 . S
H1174 C1168 0.930 . S
H1175 C1172 0.930 . S
C1176 C1178 1.348 . S
C1176 C1179 1.356 . S
C1176 O1206 1.325 . S
N1177 C1180 1.314 . S
N1177 C1181 1.279 . S
C1178 C1176 1.348 . S
C1178 C1180 1.353 . S
C1178 H1220 0.929 . S
C1179 C1176 1.356 . S
C1179 C1181 1.358 . S
C1179 H1221 0.930 . S
C1180 N1177 1.314 . S
C1180 C1178 1.353 . S
C1180 H1222 0.930 . S
C1181 N1177 1.279 . S
C1181 C1179 1.358 . S
C1181 H1223 0.930 . S
C1182 C1183 1.348 . S
C1182 C1184 1.356 . S
C1182 O1207 1.325 . S
C1183 C1182 1.348 . S
C1183 C1185 1.353 . S
C1183 H1224 0.929 . S
C1184 C1182 1.356 . S
C1184 C1186 1.358 . S
C1184 H1225 0.930 . S
C1185 C1183 1.353 . S
C1185 N1187 1.314 . S
C1185 H1226 0.930 . S
C1186 C1184 1.358 . S
C1186 N1187 1.279 . S
C1186 H1227 0.930 . S
N1187 C1185 1.314 . S
N1187 C1186 1.279 . S
C1188 C1190 1.353 . S
C1188 N1191 1.314 . S
C1188 H1194 0.930 . S
C1189 N1191 1.279 . S
C1189 C1192 1.358 . S
C1189 H1195 0.930 . S
C1190 C1188 1.353 . S
C1190 C1193 1.348 . S
C1190 H1228 0.929 . S
N1191 Li1146 1.990 . S
N1191 C1188 1.314 . S
N1191 C1189 1.279 . S
C1192 C1189 1.358 . S
C1192 C1193 1.356 . S
C1192 H1229 0.930 . S
C1193 C1190 1.348 . S
C1193 C1192 1.356 . S
H1194 C1188 0.930 . S
H1195 C1189 0.930 . S
C1196 N1197 1.314 . S
C1196 C1198 1.353 . S
C1196 H1202 0.930 . S
N1197 Li1147 1.990 . S
N1197 C1196 1.314 . S
N1197 C1200 1.279 . S
C1198 C1196 1.353 . S
C1198 C1201 1.348 . S
C1198 H1230 0.929 . S
C1199 C1200 1.358 . S
C1199 C1201 1.356 . S
C1199 H1231 0.930 . S
C1200 N1197 1.279 . S
C1200 C1199 1.358 . S
C1200 H1203 0.930 . S
C1201 C1198 1.348 . S
C1201 C1199 1.356 . S
H1202 C1196 0.930 . S
H1203 C1200 0.930 . S
O1204 Li1144 1.956 . S
O1204 Li1145 1.970 . S
O1204 Li1146 1.961 . S
O1204 C1148 1.325 . S
O1205 Li1144 1.970 . S
O1205 Li1145 1.956 . S
O1205 Li1147 1.961 . S
O1205 C1154 1.325 . S
O1206 Li1144 1.961 . S
O1206 Li1146 1.956 . S
O1206 Li1147 1.970 . S
O1206 C1176 1.325 . S
O1207 Li1145 1.961 . S
O1207 Li1146 1.970 . S
O1207 Li1147 1.956 . S
O1207 C1182 1.325 . S
H1208 C1150 0.929 . S
H1209 C1151 0.930 . S
H1210 C1152 0.930 . S
H1211 C1153 0.930 . S
H1212 C1155 0.930 . S
H1213 C1157 0.929 . S
H1214 C1158 0.930 . S
H1215 C1159 0.930 . S
H1216 C1162 0.930 . S
H1217 C1165 0.929 . S
H1218 C1170 0.929 . S
H1219 C1171 0.930 . S
H1220 C1178 0.929 . S
H1221 C1179 0.930 . S
H1222 C1180 0.930 . S
H1223 C1181 0.930 . S
H1224 C1183 0.929 . S
H1225 C1184 0.930 . S
H1226 C1185 0.930 . S
H1227 C1186 0.930 . S
H1228 C1190 0.929 . S
H1229 C1192 0.930 . S
H1230 C1198 0.929 . S
H1231 C1199 0.930 . S
Li1232 N1249 1.990 . S
Li1232 O1292 1.956 . S
Li1232 O1293 1.970 . S
Li1232 O1294 1.961 . S
Li1233 N1257 1.990 . S
Li1233 O1292 1.970 . S
Li1233 O1293 1.956 . S
Li1233 O1295 1.961 . S
Li1234 N1279 1.990 . S
Li1234 O1292 1.961 . S
Li1234 O1294 1.956 . S
Li1234 O1295 1.970 . S
Li1235 N1285 1.990 . S
Li1235 O1293 1.961 . S
Li1235 O1294 1.970 . S
Li1235 O1295 1.956 . S
C1236 C1238 1.348 . S
C1236 C1239 1.356 . S
C1236 O1292 1.325 . S
N1237 C1240 1.314 . S
N1237 C1241 1.279 . S
C1238 C1236 1.348 . S
C1238 C1240 1.353 . S
C1238 H1296 0.929 . S
C1239 C1236 1.356 . S
C1239 C1241 1.358 . S
C1239 H1297 0.930 . S
C1240 N1237 1.314 . S
C1240 C1238 1.353 . S
C1240 H1298 0.930 . S
C1241 N1237 1.279 . S
C1241 C1239 1.358 . S
C1241 H1299 0.930 . S
C1242 C1245 1.348 . S
C1242 C1246 1.356 . S
C1242 O1293 1.325 . S
C1243 N1244 1.279 . S
C1243 C1246 1.358 . S
C1243 H1300 0.930 . S
N1244 C1243 1.279 . S
N1244 C1247 1.314 . S
C1245 C1242 1.348 . S
C1245 C1247 1.353 . S
C1245 H1301 0.929 . S
C1246 C1242 1.356 . S
C1246 C1243 1.358 . S
C1246 H1302 0.930 . S
C1247 N1244 1.314 . S
C1247 C1245 1.353 . S
C1247 H1303 0.930 . S
C1248 N1249 1.314 . S
C1248 C1253 1.353 . S
C1248 H1254 0.930 . S
N1249 Li1232 1.990 . S
N1249 C1248 1.314 . S
N1249 C1251 1.279 . S
C1250 C1251 1.358 . S
C1250 C1252 1.356 . S
C1250 H1304 0.930 . S
C1251 N1249 1.279 . S
C1251 C1250 1.358 . S
C1251 H1255 0.930 . S
C1252 C1250 1.356 . S
C1252 C1253 1.348 . S
C1253 C1248 1.353 . S
C1253 C1252 1.348 . S
C1253 H1305 0.929 . S
H1254 C1248 0.930 . S
H1255 C1251 0.930 . S
C1256 N1257 1.314 . S
C1256 C1258 1.353 . S
C1256 H1262 0.930 . S
N1257 Li1233 1.990 . S
N1257 C1256 1.314 . S
N1257 C1260 1.279 . S
C1258 C1256 1.353 . S
C1258 C1261 1.348 . S
C1258 H1306 0.929 . S
C1259 C1260 1.358 . S
C1259 C1261 1.356 . S
C1259 H1307 0.930 . S
C1260 N1257 1.279 . S
C1260 C1259 1.358 . S
C1260 H1263 0.930 . S
C1261 C1258 1.348 . S
C1261 C1259 1.356 . S
H1262 C1256 0.930 . S
H1263 C1260 0.930 . S
C1264 C1266 1.348 . S
C1264 C1267 1.356 . S
C1264 O1294 1.325 . S
N1265 C1268 1.314 . S
N1265 C1269 1.279 . S
C1266 C1264 1.348 . S
C1266 C1268 1.353 . S
C1266 H1308 0.929 . S
C1267 C1264 1.356 . S
C1267 C1269 1.358 . S
C1267 H1309 0.930 . S
C1268 N1265 1.314 . S
C1268 C1266 1.353 . S
C1268 H1310 0.930 . S
C1269 N1265 1.279 . S
C1269 C1267 1.358 . S
C1269 H1311 0.930 . S
C1270 C1271 1.348 . S
C1270 C1272 1.356 . S
C1270 O1295 1.325 . S
C1271 C1270 1.348 . S
C1271 C1273 1.353 . S
C1271 H1312 0.929 . S
C1272 C1270 1.356 . S
C1272 C1274 1.358 . S
C1272 H1313 0.930 . S
C1273 C1271 1.353 . S
C1273 N1275 1.314 . S
C1273 H1314 0.930 . S
C1274 C1272 1.358 . S
C1274 N1275 1.279 . S
C1274 H1315 0.930 . S
N1275 C1273 1.314 . S
N1275 C1274 1.279 . S
C1276 C1278 1.353 . S
C1276 N1279 1.314 . S
C1276 H1282 0.930 . S
C1277 N1279 1.279 . S
C1277 C1280 1.358 . S
C1277 H1283 0.930 . S
C1278 C1276 1.353 . S
C1278 C1281 1.348 . S
C1278 H1316 0.929 . S
N1279 Li1234 1.990 . S
N1279 C1276 1.314 . S
N1279 C1277 1.279 . S
C1280 C1277 1.358 . S
C1280 C1281 1.356 . S
C1280 H1317 0.930 . S
C1281 C1278 1.348 . S
C1281 C1280 1.356 . S
H1282 C1276 0.930 . S
H1283 C1277 0.930 . S
C1284 N1285 1.314 . S
C1284 C1286 1.353 . S
C1284 H1290 0.930 . S
N1285 Li1235 1.990 . S
N1285 C1284 1.314 . S
N1285 C1288 1.279 . S
C1286 C1284 1.353 . S
C1286 C1289 1.348 . S
C1286 H1318 0.929 . S
C1287 C1288 1.358 . S
C1287 C1289 1.356 . S
C1287 H1319 0.930 . S
C1288 N1285 1.279 . S
C1288 C1287 1.358 . S
C1288 H1291 0.930 . S
C1289 C1286 1.348 . S
C1289 C1287 1.356 . S
H1290 C1284 0.930 . S
H1291 C1288 0.930 . S
O1292 Li1232 1.956 . S
O1292 Li1233 1.970 . S
O1292 Li1234 1.961 . S
O1292 C1236 1.325 . S
O1293 Li1232 1.970 . S
O1293 Li1233 1.956 . S
O1293 Li1235 1.961 . S
O1293 C1242 1.325 . S
O1294 Li1232 1.961 . S
O1294 Li1234 1.956 . S
O1294 Li1235 1.970 . S
O1294 C1264 1.325 . S
O1295 Li1233 1.961 . S
O1295 Li1234 1.970 . S
O1295 Li1235 1.956 . S
O1295 C1270 1.325 . S
H1296 C1238 0.929 . S
H1297 C1239 0.930 . S
H1298 C1240 0.930 . S
H1299 C1241 0.930 . S
H1300 C1243 0.930 . S
H1301 C1245 0.929 . S
H1302 C1246 0.930 . S
H1303 C1247 0.930 . S
H1304 C1250 0.930 . S
H1305 C1253 0.929 . S
H1306 C1258 0.929 . S
H1307 C1259 0.930 . S
H1308 C1266 0.929 . S
H1309 C1267 0.930 . S
H1310 C1268 0.930 . S
H1311 C1269 0.930 . S
H1312 C1271 0.929 . S
H1313 C1272 0.930 . S
H1314 C1273 0.930 . S
H1315 C1274 0.930 . S
H1316 C1278 0.929 . S
H1317 C1280 0.930 . S
H1318 C1286 0.929 . S
H1319 C1287 0.930 . S
Li1320 N1337 1.990 . S
Li1320 O1380 1.956 . S
Li1320 O1381 1.970 . S
Li1320 O1382 1.961 . S
Li1321 N1345 1.990 . S
Li1321 O1380 1.970 . S
Li1321 O1381 1.956 . S
Li1321 O1383 1.961 . S
Li1322 N1367 1.990 . S
Li1322 O1380 1.961 . S
Li1322 O1382 1.956 . S
Li1322 O1383 1.970 . S
Li1323 N1373 1.990 . S
Li1323 O1381 1.961 . S
Li1323 O1382 1.970 . S
Li1323 O1383 1.956 . S
C1324 C1326 1.348 . S
C1324 C1327 1.356 . S
C1324 O1380 1.325 . S
N1325 C1328 1.314 . S
N1325 C1329 1.279 . S
C1326 C1324 1.348 . S
C1326 C1328 1.353 . S
C1326 H1384 0.929 . S
C1327 C1324 1.356 . S
C1327 C1329 1.358 . S
C1327 H1385 0.930 . S
C1328 N1325 1.314 . S
C1328 C1326 1.353 . S
C1328 H1386 0.930 . S
C1329 N1325 1.279 . S
C1329 C1327 1.358 . S
C1329 H1387 0.930 . S
C1330 C1333 1.348 . S
C1330 C1334 1.356 . S
C1330 O1381 1.325 . S
C1331 N1332 1.279 . S
C1331 C1334 1.358 . S
C1331 H1388 0.930 . S
N1332 C1331 1.279 . S
N1332 C1335 1.314 . S
C1333 C1330 1.348 . S
C1333 C1335 1.353 . S
C1333 H1389 0.929 . S
C1334 C1330 1.356 . S
C1334 C1331 1.358 . S
C1334 H1390 0.930 . S
C1335 N1332 1.314 . S
C1335 C1333 1.353 . S
C1335 H1391 0.930 . S
C1336 N1337 1.314 . S
C1336 C1341 1.353 . S
C1336 H1342 0.930 . S
N1337 Li1320 1.990 . S
N1337 C1336 1.314 . S
N1337 C1339 1.279 . S
C1338 C1339 1.358 . S
C1338 C1340 1.356 . S
C1338 H1392 0.930 . S
C1339 N1337 1.279 . S
C1339 C1338 1.358 . S
C1339 H1343 0.930 . S
C1340 C1338 1.356 . S
C1340 C1341 1.348 . S
C1341 C1336 1.353 . S
C1341 C1340 1.348 . S
C1341 H1393 0.929 . S
H1342 C1336 0.930 . S
H1343 C1339 0.930 . S
C1344 N1345 1.314 . S
C1344 C1346 1.353 . S
C1344 H1350 0.930 . S
N1345 Li1321 1.990 . S
N1345 C1344 1.314 . S
N1345 C1348 1.279 . S
C1346 C1344 1.353 . S
C1346 C1349 1.348 . S
C1346 H1394 0.929 . S
C1347 C1348 1.358 . S
C1347 C1349 1.356 . S
C1347 H1395 0.930 . S
C1348 N1345 1.279 . S
C1348 C1347 1.358 . S
C1348 H1351 0.930 . S
C1349 C1346 1.348 . S
C1349 C1347 1.356 . S
H1350 C1344 0.930 . S
H1351 C1348 0.930 . S
C1352 C1354 1.348 . S
C1352 C1355 1.356 . S
C1352 O1382 1.325 . S
N1353 C1356 1.314 . S
N1353 C1357 1.279 . S
C1354 C1352 1.348 . S
C1354 C1356 1.353 . S
C1354 H1396 0.929 . S
C1355 C1352 1.356 . S
C1355 C1357 1.358 . S
C1355 H1397 0.930 . S
C1356 N1353 1.314 . S
C1356 C1354 1.353 . S
C1356 H1398 0.930 . S
C1357 N1353 1.279 . S
C1357 C1355 1.358 . S
C1357 H1399 0.930 . S
C1358 C1359 1.348 . S
C1358 C1360 1.356 . S
C1358 O1383 1.325 . S
C1359 C1358 1.348 . S
C1359 C1361 1.353 . S
C1359 H1400 0.929 . S
C1360 C1358 1.356 . S
C1360 C1362 1.358 . S
C1360 H1401 0.930 . S
C1361 C1359 1.353 . S
C1361 N1363 1.314 . S
C1361 H1402 0.930 . S
C1362 C1360 1.358 . S
C1362 N1363 1.279 . S
C1362 H1403 0.930 . S
N1363 C1361 1.314 . S
N1363 C1362 1.279 . S
C1364 C1366 1.353 . S
C1364 N1367 1.314 . S
C1364 H1370 0.930 . S
C1365 N1367 1.279 . S
C1365 C1368 1.358 . S
C1365 H1371 0.930 . S
C1366 C1364 1.353 . S
C1366 C1369 1.348 . S
C1366 H1404 0.929 . S
N1367 Li1322 1.990 . S
N1367 C1364 1.314 . S
N1367 C1365 1.279 . S
C1368 C1365 1.358 . S
C1368 C1369 1.356 . S
C1368 H1405 0.930 . S
C1369 C1366 1.348 . S
C1369 C1368 1.356 . S
H1370 C1364 0.930 . S
H1371 C1365 0.930 . S
C1372 N1373 1.314 . S
C1372 C1374 1.353 . S
C1372 H1378 0.930 . S
N1373 Li1323 1.990 . S
N1373 C1372 1.314 . S
N1373 C1376 1.279 . S
C1374 C1372 1.353 . S
C1374 C1377 1.348 . S
C1374 H1406 0.929 . S
C1375 C1376 1.358 . S
C1375 C1377 1.356 . S
C1375 H1407 0.930 . S
C1376 N1373 1.279 . S
C1376 C1375 1.358 . S
C1376 H1379 0.930 . S
C1377 C1374 1.348 . S
C1377 C1375 1.356 . S
H1378 C1372 0.930 . S
H1379 C1376 0.930 . S
O1380 Li1320 1.956 . S
O1380 Li1321 1.970 . S
O1380 Li1322 1.961 . S
O1380 C1324 1.325 . S
O1381 Li1320 1.970 . S
O1381 Li1321 1.956 . S
O1381 Li1323 1.961 . S
O1381 C1330 1.325 . S
O1382 Li1320 1.961 . S
O1382 Li1322 1.956 . S
O1382 Li1323 1.970 . S
O1382 C1352 1.325 . S
O1383 Li1321 1.961 . S
O1383 Li1322 1.970 . S
O1383 Li1323 1.956 . S
O1383 C1358 1.325 . S
H1384 C1326 0.929 . S
H1385 C1327 0.930 . S
H1386 C1328 0.930 . S
H1387 C1329 0.930 . S
H1388 C1331 0.930 . S
H1389 C1333 0.929 . S
H1390 C1334 0.930 . S
H1391 C1335 0.930 . S
H1392 C1338 0.930 . S
H1393 C1341 0.929 . S
H1394 C1346 0.929 . S
H1395 C1347 0.930 . S
H1396 C1354 0.929 . S
H1397 C1355 0.930 . S
H1398 C1356 0.930 . S
H1399 C1357 0.930 . S
H1400 C1359 0.929 . S
H1401 C1360 0.930 . S
H1402 C1361 0.930 . S
H1403 C1362 0.930 . S
H1404 C1366 0.929 . S
H1405 C1368 0.930 . S
H1406 C1374 0.929 . S
H1407 C1375 0.930 . S
C1408 C1409 1.391 . S
C1408 C1410 1.394 . S
C1408 H1424 0.931 . S
C1409 C1408 1.391 . S
C1409 C1413 1.376 . S
C1410 C1408 1.394 . S
C1410 C1411 1.369 . S
C1410 C1414 1.531 . S
C1411 C1410 1.369 . S
C1411 C1412 1.410 . S
C1411 C1419 1.503 . S
C1412 C1411 1.410 . S
C1412 C1413 1.392 . S
C1412 C1415 1.511 . S
C1413 C1409 1.376 . S
C1413 C1412 1.392 . S
C1413 H1425 0.929 . S
C1414 C1410 1.531 . S
C1414 H1426 0.960 . S
C1414 H1427 0.962 . S
C1414 H1428 0.960 . S
C1415 C1412 1.511 . S
C1415 H1429 0.961 . S
C1415 H1430 0.961 . S
C1415 H1431 0.961 . S
C1416 C1417 1.370 . S
C1416 C1418 1.363 . S
C1416 H1432 0.931 . S
C1417 C1416 1.370 . S
C1417 C1421 1.408 . S
C1418 C1416 1.363 . S
C1418 C1419 1.370 . S
C1418 C1422 1.524 . S
C1419 C1411 1.503 . S
C1419 C1418 1.370 . S
C1419 C1420 1.403 . S
C1420 C1419 1.403 . S
C1420 C1421 1.404 . S
C1420 C1423 1.539 . S
C1421 C1417 1.408 . S
C1421 C1420 1.404 . S
C1421 H1433 0.930 . S
C1422 C1418 1.524 . S
C1422 H1434 0.956 . S
C1422 H1435 0.961 . S
C1422 H1436 0.961 . S
C1423 C1420 1.539 . S
C1423 H1437 0.958 . S
C1423 H1438 0.961 . S
C1423 H1439 0.960 . S
H1424 C1408 0.931 . S
H1425 C1413 0.929 . S
H1426 C1414 0.960 . S
H1427 C1414 0.962 . S
H1428 C1414 0.960 . S
H1429 C1415 0.961 . S
H1430 C1415 0.961 . S
H1431 C1415 0.961 . S
H1432 C1416 0.931 . S
H1433 C1421 0.930 . S
H1434 C1422 0.956 . S
H1435 C1422 0.961 . S
H1436 C1422 0.961 . S
H1437 C1423 0.958 . S
H1438 C1423 0.961 . S
H1439 C1423 0.960 . S
C1440 C1441 1.391 . S
C1440 C1442 1.394 . S
C1440 H1456 0.931 . S
C1441 C1440 1.391 . S
C1441 C1445 1.376 . S
C1442 C1440 1.394 . S
C1442 C1443 1.369 . S
C1442 C1446 1.531 . S
C1443 C1442 1.369 . S
C1443 C1444 1.410 . S
C1443 C1451 1.503 . S
C1444 C1443 1.410 . S
C1444 C1445 1.392 . S
C1444 C1447 1.511 . S
C1445 C1441 1.376 . S
C1445 C1444 1.392 . S
C1445 H1457 0.929 . S
C1446 C1442 1.531 . S
C1446 H1458 0.960 . S
C1446 H1459 0.962 . S
C1446 H1460 0.960 . S
C1447 C1444 1.511 . S
C1447 H1461 0.961 . S
C1447 H1462 0.961 . S
C1447 H1463 0.961 . S
C1448 C1449 1.370 . S
C1448 C1450 1.363 . S
C1448 H1464 0.931 . S
C1449 C1448 1.370 . S
C1449 C1453 1.408 . S
C1450 C1448 1.363 . S
C1450 C1451 1.370 . S
C1450 C1454 1.524 . S
C1451 C1443 1.503 . S
C1451 C1450 1.370 . S
C1451 C1452 1.403 . S
C1452 C1451 1.403 . S
C1452 C1453 1.404 . S
C1452 C1455 1.539 . S
C1453 C1449 1.408 . S
C1453 C1452 1.404 . S
C1453 H1465 0.930 . S
C1454 C1450 1.524 . S
C1454 H1466 0.956 . S
C1454 H1467 0.961 . S
C1454 H1468 0.961 . S
C1455 C1452 1.539 . S
C1455 H1469 0.958 . S
C1455 H1470 0.961 . S
C1455 H1471 0.960 . S
H1456 C1440 0.931 . S
H1457 C1445 0.929 . S
H1458 C1446 0.960 . S
H1459 C1446 0.962 . S
H1460 C1446 0.960 . S
H1461 C1447 0.961 . S
H1462 C1447 0.961 . S
H1463 C1447 0.961 . S
H1464 C1448 0.931 . S
H1465 C1453 0.930 . S
H1466 C1454 0.956 . S
H1467 C1454 0.961 . S
H1468 C1454 0.961 . S
H1469 C1455 0.958 . S
H1470 C1455 0.961 . S
H1471 C1455 0.960 . S
C1472 C1473 1.391 . S
C1472 C1474 1.394 . S
C1472 H1488 0.931 . S
C1473 C1472 1.391 . S
C1473 C1477 1.376 . S
C1474 C1472 1.394 . S
C1474 C1475 1.369 . S
C1474 C1478 1.531 . S
C1475 C1474 1.369 . S
C1475 C1476 1.410 . S
C1475 C1483 1.503 . S
C1476 C1475 1.410 . S
C1476 C1477 1.392 . S
C1476 C1479 1.511 . S
C1477 C1473 1.376 . S
C1477 C1476 1.392 . S
C1477 H1489 0.929 . S
C1478 C1474 1.531 . S
C1478 H1490 0.960 . S
C1478 H1491 0.962 . S
C1478 H1492 0.960 . S
C1479 C1476 1.511 . S
C1479 H1493 0.961 . S
C1479 H1494 0.961 . S
C1479 H1495 0.961 . S
C1480 C1481 1.370 . S
C1480 C1482 1.363 . S
C1480 H1496 0.931 . S
C1481 C1480 1.370 . S
C1481 C1485 1.408 . S
C1482 C1480 1.363 . S
C1482 C1483 1.370 . S
C1482 C1486 1.524 . S
C1483 C1475 1.503 . S
C1483 C1482 1.370 . S
C1483 C1484 1.403 . S
C1484 C1483 1.403 . S
C1484 C1485 1.404 . S
C1484 C1487 1.539 . S
C1485 C1481 1.408 . S
C1485 C1484 1.404 . S
C1485 H1497 0.930 . S
C1486 C1482 1.524 . S
C1486 H1498 0.956 . S
C1486 H1499 0.961 . S
C1486 H1500 0.961 . S
C1487 C1484 1.539 . S
C1487 H1501 0.958 . S
C1487 H1502 0.961 . S
C1487 H1503 0.960 . S
H1488 C1472 0.931 . S
H1489 C1477 0.929 . S
H1490 C1478 0.960 . S
H1491 C1478 0.962 . S
H1492 C1478 0.960 . S
H1493 C1479 0.961 . S
H1494 C1479 0.961 . S
H1495 C1479 0.961 . S
H1496 C1480 0.931 . S
H1497 C1485 0.930 . S
H1498 C1486 0.956 . S
H1499 C1486 0.961 . S
H1500 C1486 0.961 . S
H1501 C1487 0.958 . S
H1502 C1487 0.961 . S
H1503 C1487 0.960 . S
C1504 C1505 1.391 . S
C1504 C1506 1.394 . S
C1504 H1520 0.931 . S
C1505 C1504 1.391 . S
C1505 C1509 1.376 . S
C1506 C1504 1.394 . S
C1506 C1507 1.369 . S
C1506 C1510 1.531 . S
C1507 C1506 1.369 . S
C1507 C1508 1.410 . S
C1507 C1515 1.503 . S
C1508 C1507 1.410 . S
C1508 C1509 1.392 . S
C1508 C1511 1.511 . S
C1509 C1505 1.376 . S
C1509 C1508 1.392 . S
C1509 H1521 0.929 . S
C1510 C1506 1.531 . S
C1510 H1522 0.960 . S
C1510 H1523 0.962 . S
C1510 H1524 0.960 . S
C1511 C1508 1.511 . S
C1511 H1525 0.961 . S
C1511 H1526 0.961 . S
C1511 H1527 0.961 . S
C1512 C1513 1.370 . S
C1512 C1514 1.363 . S
C1512 H1528 0.931 . S
C1513 C1512 1.370 . S
C1513 C1517 1.408 . S
C1514 C1512 1.363 . S
C1514 C1515 1.370 . S
C1514 C1518 1.524 . S
C1515 C1507 1.503 . S
C1515 C1514 1.370 . S
C1515 C1516 1.403 . S
C1516 C1515 1.403 . S
C1516 C1517 1.404 . S
C1516 C1519 1.539 . S
C1517 C1513 1.408 . S
C1517 C1516 1.404 . S
C1517 H1529 0.930 . S
C1518 C1514 1.524 . S
C1518 H1530 0.956 . S
C1518 H1531 0.961 . S
C1518 H1532 0.961 . S
C1519 C1516 1.539 . S
C1519 H1533 0.958 . S
C1519 H1534 0.961 . S
C1519 H1535 0.960 . S
H1520 C1504 0.931 . S
H1521 C1509 0.929 . S
H1522 C1510 0.960 . S
H1523 C1510 0.962 . S
H1524 C1510 0.960 . S
H1525 C1511 0.961 . S
H1526 C1511 0.961 . S
H1527 C1511 0.961 . S
H1528 C1512 0.931 . S
H1529 C1517 0.930 . S
H1530 C1518 0.956 . S
H1531 C1518 0.961 . S
H1532 C1518 0.961 . S
H1533 C1519 0.958 . S
H1534 C1519 0.961 . S
H1535 C1519 0.960 . S
C1536 C1537 1.391 . S
C1536 C1538 1.394 . S
C1536 H1552 0.931 . S
C1537 C1536 1.391 . S
C1537 C1541 1.376 . S
C1538 C1536 1.394 . S
C1538 C1539 1.369 . S
C1538 C1542 1.531 . S
C1539 C1538 1.369 . S
C1539 C1540 1.410 . S
C1539 C1547 1.503 . S
C1540 C1539 1.410 . S
C1540 C1541 1.392 . S
C1540 C1543 1.511 . S
C1541 C1537 1.376 . S
C1541 C1540 1.392 . S
C1541 H1553 0.929 . S
C1542 C1538 1.531 . S
C1542 H1554 0.960 . S
C1542 H1555 0.962 . S
C1542 H1556 0.960 . S
C1543 C1540 1.511 . S
C1543 H1557 0.961 . S
C1543 H1558 0.961 . S
C1543 H1559 0.961 . S
C1544 C1545 1.370 . S
C1544 C1546 1.363 . S
C1544 H1560 0.931 . S
C1545 C1544 1.370 . S
C1545 C1549 1.408 . S
C1546 C1544 1.363 . S
C1546 C1547 1.370 . S
C1546 C1550 1.524 . S
C1547 C1539 1.503 . S
C1547 C1546 1.370 . S
C1547 C1548 1.403 . S
C1548 C1547 1.403 . S
C1548 C1549 1.404 . S
C1548 C1551 1.539 . S
C1549 C1545 1.408 . S
C1549 C1548 1.404 . S
C1549 H1561 0.930 . S
C1550 C1546 1.524 . S
C1550 H1562 0.956 . S
C1550 H1563 0.961 . S
C1550 H1564 0.961 . S
C1551 C1548 1.539 . S
C1551 H1565 0.958 . S
C1551 H1566 0.961 . S
C1551 H1567 0.960 . S
H1552 C1536 0.931 . S
H1553 C1541 0.929 . S
H1554 C1542 0.960 . S
H1555 C1542 0.962 . S
H1556 C1542 0.960 . S
H1557 C1543 0.961 . S
H1558 C1543 0.961 . S
H1559 C1543 0.961 . S
H1560 C1544 0.931 . S
H1561 C1549 0.930 . S
H1562 C1550 0.956 . S
H1563 C1550 0.961 . S
H1564 C1550 0.961 . S
H1565 C1551 0.958 . S
H1566 C1551 0.961 . S
H1567 C1551 0.960 . S
C1568 C1569 1.391 . S
C1568 C1570 1.394 . S
C1568 H1584 0.931 . S
C1569 C1568 1.391 . S
C1569 C1573 1.376 . S
C1570 C1568 1.394 . S
C1570 C1571 1.369 . S
C1570 C1574 1.531 . S
C1571 C1570 1.369 . S
C1571 C1572 1.410 . S
C1571 C1579 1.503 . S
C1572 C1571 1.410 . S
C1572 C1573 1.392 . S
C1572 C1575 1.511 . S
C1573 C1569 1.376 . S
C1573 C1572 1.392 . S
C1573 H1585 0.929 . S
C1574 C1570 1.531 . S
C1574 H1586 0.960 . S
C1574 H1587 0.962 . S
C1574 H1588 0.960 . S
C1575 C1572 1.511 . S
C1575 H1589 0.961 . S
C1575 H1590 0.961 . S
C1575 H1591 0.961 . S
C1576 C1577 1.370 . S
C1576 C1578 1.363 . S
C1576 H1592 0.931 . S
C1577 C1576 1.370 . S
C1577 C1581 1.408 . S
C1578 C1576 1.363 . S
C1578 C1579 1.370 . S
C1578 C1582 1.524 . S
C1579 C1571 1.503 . S
C1579 C1578 1.370 . S
C1579 C1580 1.403 . S
C1580 C1579 1.403 . S
C1580 C1581 1.404 . S
C1580 C1583 1.539 . S
C1581 C1577 1.408 . S
C1581 C1580 1.404 . S
C1581 H1593 0.930 . S
C1582 C1578 1.524 . S
C1582 H1594 0.956 . S
C1582 H1595 0.961 . S
C1582 H1596 0.961 . S
C1583 C1580 1.539 . S
C1583 H1597 0.958 . S
C1583 H1598 0.961 . S
C1583 H1599 0.960 . S
H1584 C1568 0.931 . S
H1585 C1573 0.929 . S
H1586 C1574 0.960 . S
H1587 C1574 0.962 . S
H1588 C1574 0.960 . S
H1589 C1575 0.961 . S
H1590 C1575 0.961 . S
H1591 C1575 0.961 . S
H1592 C1576 0.931 . S
H1593 C1581 0.930 . S
H1594 C1582 0.956 . S
H1595 C1582 0.961 . S
H1596 C1582 0.961 . S
H1597 C1583 0.958 . S
H1598 C1583 0.961 . S
H1599 C1583 0.960 . S
C1600 C1601 1.391 . S
C1600 C1602 1.394 . S
C1600 H1616 0.931 . S
C1601 C1600 1.391 . S
C1601 C1605 1.376 . S
C1602 C1600 1.394 . S
C1602 C1603 1.369 . S
C1602 C1606 1.531 . S
C1603 C1602 1.369 . S
C1603 C1604 1.410 . S
C1603 C1611 1.503 . S
C1604 C1603 1.410 . S
C1604 C1605 1.392 . S
C1604 C1607 1.511 . S
C1605 C1601 1.376 . S
C1605 C1604 1.392 . S
C1605 H1617 0.929 . S
C1606 C1602 1.531 . S
C1606 H1618 0.960 . S
C1606 H1619 0.962 . S
C1606 H1620 0.960 . S
C1607 C1604 1.511 . S
C1607 H1621 0.961 . S
C1607 H1622 0.961 . S
C1607 H1623 0.961 . S
C1608 C1609 1.370 . S
C1608 C1610 1.363 . S
C1608 H1624 0.931 . S
C1609 C1608 1.370 . S
C1609 C1613 1.408 . S
C1610 C1608 1.363 . S
C1610 C1611 1.370 . S
C1610 C1614 1.524 . S
C1611 C1603 1.503 . S
C1611 C1610 1.370 . S
C1611 C1612 1.403 . S
C1612 C1611 1.403 . S
C1612 C1613 1.404 . S
C1612 C1615 1.539 . S
C1613 C1609 1.408 . S
C1613 C1612 1.404 . S
C1613 H1625 0.930 . S
C1614 C1610 1.524 . S
C1614 H1626 0.956 . S
C1614 H1627 0.961 . S
C1614 H1628 0.961 . S
C1615 C1612 1.539 . S
C1615 H1629 0.958 . S
C1615 H1630 0.961 . S
C1615 H1631 0.960 . S
H1616 C1600 0.931 . S
H1617 C1605 0.929 . S
H1618 C1606 0.960 . S
H1619 C1606 0.962 . S
H1620 C1606 0.960 . S
H1621 C1607 0.961 . S
H1622 C1607 0.961 . S
H1623 C1607 0.961 . S
H1624 C1608 0.931 . S
H1625 C1613 0.930 . S
H1626 C1614 0.956 . S
H1627 C1614 0.961 . S
H1628 C1614 0.961 . S
H1629 C1615 0.958 . S
H1630 C1615 0.961 . S
H1631 C1615 0.960 . S
C1632 C1633 1.391 . S
C1632 C1634 1.394 . S
C1632 H1648 0.931 . S
C1633 C1632 1.391 . S
C1633 C1637 1.376 . S
C1634 C1632 1.394 . S
C1634 C1635 1.369 . S
C1634 C1638 1.531 . S
C1635 C1634 1.369 . S
C1635 C1636 1.410 . S
C1635 C1643 1.503 . S
C1636 C1635 1.410 . S
C1636 C1637 1.392 . S
C1636 C1639 1.511 . S
C1637 C1633 1.376 . S
C1637 C1636 1.392 . S
C1637 H1649 0.929 . S
C1638 C1634 1.531 . S
C1638 H1650 0.960 . S
C1638 H1651 0.962 . S
C1638 H1652 0.960 . S
C1639 C1636 1.511 . S
C1639 H1653 0.961 . S
C1639 H1654 0.961 . S
C1639 H1655 0.961 . S
C1640 C1641 1.370 . S
C1640 C1642 1.363 . S
C1640 H1656 0.931 . S
C1641 C1640 1.370 . S
C1641 C1645 1.408 . S
C1642 C1640 1.363 . S
C1642 C1643 1.370 . S
C1642 C1646 1.524 . S
C1643 C1635 1.503 . S
C1643 C1642 1.370 . S
C1643 C1644 1.403 . S
C1644 C1643 1.403 . S
C1644 C1645 1.404 . S
C1644 C1647 1.539 . S
C1645 C1641 1.408 . S
C1645 C1644 1.404 . S
C1645 H1657 0.930 . S
C1646 C1642 1.524 . S
C1646 H1658 0.956 . S
C1646 H1659 0.961 . S
C1646 H1660 0.961 . S
C1647 C1644 1.539 . S
C1647 H1661 0.958 . S
C1647 H1662 0.961 . S
C1647 H1663 0.960 . S
H1648 C1632 0.931 . S
H1649 C1637 0.929 . S
H1650 C1638 0.960 . S
H1651 C1638 0.962 . S
H1652 C1638 0.960 . S
H1653 C1639 0.961 . S
H1654 C1639 0.961 . S
H1655 C1639 0.961 . S
H1656 C1640 0.931 . S
H1657 C1645 0.930 . S
H1658 C1646 0.956 . S
H1659 C1646 0.961 . S
H1660 C1646 0.961 . S
H1661 C1647 0.958 . S
H1662 C1647 0.961 . S
H1663 C1647 0.960 . S
C1664 C1665 1.391 . S
C1664 C1666 1.394 . S
C1664 H1680 0.931 . S
C1665 C1664 1.391 . S
C1665 C1669 1.376 . S
C1666 C1664 1.394 . S
C1666 C1667 1.369 . S
C1666 C1670 1.531 . S
C1667 C1666 1.369 . S
C1667 C1668 1.410 . S
C1667 C1675 1.503 . S
C1668 C1667 1.410 . S
C1668 C1669 1.392 . S
C1668 C1671 1.511 . S
C1669 C1665 1.376 . S
C1669 C1668 1.392 . S
C1669 H1681 0.929 . S
C1670 C1666 1.531 . S
C1670 H1682 0.960 . S
C1670 H1683 0.962 . S
C1670 H1684 0.960 . S
C1671 C1668 1.511 . S
C1671 H1685 0.961 . S
C1671 H1686 0.961 . S
C1671 H1687 0.961 . S
C1672 C1673 1.370 . S
C1672 C1674 1.363 . S
C1672 H1688 0.931 . S
C1673 C1672 1.370 . S
C1673 C1677 1.408 . S
C1674 C1672 1.363 . S
C1674 C1675 1.370 . S
C1674 C1678 1.524 . S
C1675 C1667 1.503 . S
C1675 C1674 1.370 . S
C1675 C1676 1.403 . S
C1676 C1675 1.403 . S
C1676 C1677 1.404 . S
C1676 C1679 1.539 . S
C1677 C1673 1.408 . S
C1677 C1676 1.404 . S
C1677 H1689 0.930 . S
C1678 C1674 1.524 . S
C1678 H1690 0.956 . S
C1678 H1691 0.961 . S
C1678 H1692 0.961 . S
C1679 C1676 1.539 . S
C1679 H1693 0.958 . S
C1679 H1694 0.961 . S
C1679 H1695 0.960 . S
H1680 C1664 0.931 . S
H1681 C1669 0.929 . S
H1682 C1670 0.960 . S
H1683 C1670 0.962 . S
H1684 C1670 0.960 . S
H1685 C1671 0.961 . S
H1686 C1671 0.961 . S
H1687 C1671 0.961 . S
H1688 C1672 0.931 . S
H1689 C1677 0.930 . S
H1690 C1678 0.956 . S
H1691 C1678 0.961 . S
H1692 C1678 0.961 . S
H1693 C1679 0.958 . S
H1694 C1679 0.961 . S
H1695 C1679 0.960 . S
C1696 C1697 1.391 . S
C1696 C1698 1.394 . S
C1696 H1712 0.931 . S
C1697 C1696 1.391 . S
C1697 C1701 1.376 . S
C1698 C1696 1.394 . S
C1698 C1699 1.369 . S
C1698 C1702 1.531 . S
C1699 C1698 1.369 . S
C1699 C1700 1.410 . S
C1699 C1707 1.503 . S
C1700 C1699 1.410 . S
C1700 C1701 1.392 . S
C1700 C1703 1.511 . S
C1701 C1697 1.376 . S
C1701 C1700 1.392 . S
C1701 H1713 0.929 . S
C1702 C1698 1.531 . S
C1702 H1714 0.960 . S
C1702 H1715 0.962 . S
C1702 H1716 0.960 . S
C1703 C1700 1.511 . S
C1703 H1717 0.961 . S
C1703 H1718 0.961 . S
C1703 H1719 0.961 . S
C1704 C1705 1.370 . S
C1704 C1706 1.363 . S
C1704 H1720 0.931 . S
C1705 C1704 1.370 . S
C1705 C1709 1.408 . S
C1706 C1704 1.363 . S
C1706 C1707 1.370 . S
C1706 C1710 1.524 . S
C1707 C1699 1.503 . S
C1707 C1706 1.370 . S
C1707 C1708 1.403 . S
C1708 C1707 1.403 . S
C1708 C1709 1.404 . S
C1708 C1711 1.539 . S
C1709 C1705 1.408 . S
C1709 C1708 1.404 . S
C1709 H1721 0.930 . S
C1710 C1706 1.524 . S
C1710 H1722 0.956 . S
C1710 H1723 0.961 . S
C1710 H1724 0.961 . S
C1711 C1708 1.539 . S
C1711 H1725 0.958 . S
C1711 H1726 0.961 . S
C1711 H1727 0.960 . S
H1712 C1696 0.931 . S
H1713 C1701 0.929 . S
H1714 C1702 0.960 . S
H1715 C1702 0.962 . S
H1716 C1702 0.960 . S
H1717 C1703 0.961 . S
H1718 C1703 0.961 . S
H1719 C1703 0.961 . S
H1720 C1704 0.931 . S
H1721 C1709 0.930 . S
H1722 C1710 0.956 . S
H1723 C1710 0.961 . S
H1724 C1710 0.961 . S
H1725 C1711 0.958 . S
H1726 C1711 0.961 . S
H1727 C1711 0.960 . S
C1728 C1729 1.391 . S
C1728 C1730 1.394 . S
C1728 H1744 0.931 . S
C1729 C1728 1.391 . S
C1729 C1733 1.376 . S
C1730 C1728 1.394 . S
C1730 C1731 1.369 . S
C1730 C1734 1.531 . S
C1731 C1730 1.369 . S
C1731 C1732 1.410 . S
C1731 C1739 1.503 . S
C1732 C1731 1.410 . S
C1732 C1733 1.392 . S
C1732 C1735 1.511 . S
C1733 C1729 1.376 . S
C1733 C1732 1.392 . S
C1733 H1745 0.929 . S
C1734 C1730 1.531 . S
C1734 H1746 0.960 . S
C1734 H1747 0.962 . S
C1734 H1748 0.960 . S
C1735 C1732 1.511 . S
C1735 H1749 0.961 . S
C1735 H1750 0.961 . S
C1735 H1751 0.961 . S
C1736 C1737 1.370 . S
C1736 C1738 1.363 . S
C1736 H1752 0.931 . S
C1737 C1736 1.370 . S
C1737 C1741 1.408 . S
C1738 C1736 1.363 . S
C1738 C1739 1.370 . S
C1738 C1742 1.524 . S
C1739 C1731 1.503 . S
C1739 C1738 1.370 . S
C1739 C1740 1.403 . S
C1740 C1739 1.403 . S
C1740 C1741 1.404 . S
C1740 C1743 1.539 . S
C1741 C1737 1.408 . S
C1741 C1740 1.404 . S
C1741 H1753 0.930 . S
C1742 C1738 1.524 . S
C1742 H1754 0.956 . S
C1742 H1755 0.961 . S
C1742 H1756 0.961 . S
C1743 C1740 1.539 . S
C1743 H1757 0.958 . S
C1743 H1758 0.961 . S
C1743 H1759 0.960 . S
H1744 C1728 0.931 . S
H1745 C1733 0.929 . S
H1746 C1734 0.960 . S
H1747 C1734 0.962 . S
H1748 C1734 0.960 . S
H1749 C1735 0.961 . S
H1750 C1735 0.961 . S
H1751 C1735 0.961 . S
H1752 C1736 0.931 . S
H1753 C1741 0.930 . S
H1754 C1742 0.956 . S
H1755 C1742 0.961 . S
H1756 C1742 0.961 . S
H1757 C1743 0.958 . S
H1758 C1743 0.961 . S
H1759 C1743 0.960 . S
C1760 C1761 1.391 . S
C1760 C1762 1.394 . S
C1760 H1776 0.931 . S
C1761 C1760 1.391 . S
C1761 C1765 1.376 . S
C1762 C1760 1.394 . S
C1762 C1763 1.369 . S
C1762 C1766 1.531 . S
C1763 C1762 1.369 . S
C1763 C1764 1.410 . S
C1763 C1771 1.503 1_554 S
C1764 C1763 1.410 . S
C1764 C1765 1.392 . S
C1764 C1767 1.511 . S
C1765 C1761 1.376 . S
C1765 C1764 1.392 . S
C1765 H1777 0.929 . S
C1766 C1762 1.531 . S
C1766 H1778 0.897 1_554 S
C1766 H1779 0.962 . S
C1766 H1780 0.960 . S
C1767 C1764 1.511 . S
C1767 H1781 0.961 . S
C1767 H1782 0.883 1_554 S
C1767 H1783 0.961 . S
C1768 C1769 1.370 . S
C1768 C1770 1.363 . S
C1768 H1784 0.931 . S
C1769 C1768 1.370 . S
C1769 C1773 1.408 . S
C1770 C1768 1.363 . S
C1770 C1771 1.370 . S
C1770 C1774 1.524 . S
C1771 C1763 1.503 1_556 S
C1771 C1770 1.370 . S
C1771 C1772 1.403 . S
C1772 C1771 1.403 . S
C1772 C1773 1.404 . S
C1772 C1775 1.539 . S
C1773 C1769 1.408 . S
C1773 C1772 1.404 . S
C1773 H1785 0.930 . S
C1774 C1770 1.524 . S
C1774 H1786 0.956 . S
C1774 H1787 1.008 . S
C1774 H1788 0.961 . S
C1775 C1772 1.539 . S
C1775 H1789 0.958 . S
C1775 H1790 0.961 . S
C1775 H1791 0.960 1_556 S
H1776 C1760 0.931 . S
H1777 C1765 0.929 . S
H1778 C1766 0.897 1_556 S
H1779 C1766 0.962 . S
H1780 C1766 0.960 . S
H1781 C1767 0.961 . S
H1782 C1767 0.883 1_556 S
H1783 C1767 0.961 . S
H1784 C1768 0.931 . S
H1785 C1773 0.930 . S
H1786 C1774 0.956 . S
H1787 C1774 1.008 . S
H1788 C1774 0.961 . S
H1789 C1775 0.958 . S
H1790 C1775 0.961 . S
H1791 C1775 0.960 1_554 S
C1792 C1793 1.391 . S
C1792 C1794 1.394 . S
C1792 H1808 0.931 . S
C1793 C1792 1.391 . S
C1793 C1797 1.376 . S
C1794 C1792 1.394 . S
C1794 C1795 1.369 . S
C1794 C1798 1.531 . S
C1795 C1794 1.369 . S
C1795 C1796 1.410 . S
C1795 C1803 1.503 1_554 S
C1796 C1795 1.410 . S
C1796 C1797 1.392 . S
C1796 C1799 1.511 . S
C1797 C1793 1.376 . S
C1797 C1796 1.392 . S
C1797 H1809 0.929 . S
C1798 C1794 1.531 . S
C1798 H1810 1.019 . S
C1798 H1811 0.962 . S
C1798 H1812 0.960 . S
C1799 C1796 1.511 . S
C1799 H1813 0.961 . S
C1799 H1814 0.961 1_554 S
C1799 H1815 0.961 . S
C1800 C1801 1.370 . S
C1800 C1802 1.363 . S
C1800 H1816 0.931 . S
C1801 C1800 1.370 . S
C1801 C1805 1.408 . S
C1802 C1800 1.363 . S
C1802 C1803 1.370 . S
C1802 C1806 1.524 . S
C1803 C1795 1.503 1_556 S
C1803 C1802 1.370 . S
C1803 C1804 1.403 . S
C1804 C1803 1.403 . S
C1804 C1805 1.404 . S
C1804 C1807 1.539 . S
C1805 C1801 1.408 . S
C1805 C1804 1.404 . S
C1805 H1817 0.930 . S
C1806 C1802 1.524 . S
C1806 H1818 0.969 . S
C1806 H1819 0.964 . S
C1806 H1820 0.961 . S
C1807 C1804 1.539 . S
C1807 H1821 0.958 . S
C1807 H1822 0.961 . S
C1807 H1823 0.953 . S
H1808 C1792 0.931 . S
H1809 C1797 0.929 . S
H1810 C1798 1.019 . S
H1811 C1798 0.962 . S
H1812 C1798 0.960 . S
H1813 C1799 0.961 . S
H1814 C1799 0.961 1_556 S
H1815 C1799 0.961 . S
H1816 C1800 0.931 . S
H1817 C1805 0.930 . S
H1818 C1806 0.969 . S
H1819 C1806 0.964 . S
H1820 C1806 0.961 . S
H1821 C1807 0.958 . S
H1822 C1807 0.961 . S
H1823 C1807 0.953 . S
C1824 C1825 1.391 . S
C1824 C1826 1.394 . S
C1824 H1840 0.931 . S
C1825 C1824 1.391 . S
C1825 C1829 1.376 . S
C1826 C1824 1.394 . S
C1826 C1827 1.369 . S
C1826 C1830 1.531 . S
C1827 C1826 1.369 . S
C1827 C1828 1.410 . S
C1827 C1835 1.503 . S
C1828 C1827 1.410 . S
C1828 C1829 1.392 . S
C1828 C1831 1.511 . S
C1829 C1825 1.376 . S
C1829 C1828 1.392 . S
C1829 H1841 0.929 . S
C1830 C1826 1.531 . S
C1830 H1842 0.960 . S
C1830 H1843 0.962 . S
C1830 H1844 0.960 . S
C1831 C1828 1.511 . S
C1831 H1845 0.961 . S
C1831 H1846 0.961 . S
C1831 H1847 0.961 . S
C1832 C1833 1.370 . S
C1832 C1834 1.363 . S
C1832 H1848 0.931 . S
C1833 C1832 1.370 . S
C1833 C1837 1.408 . S
C1834 C1832 1.363 . S
C1834 C1835 1.370 . S
C1834 C1838 1.524 . S
C1835 C1827 1.503 . S
C1835 C1834 1.370 . S
C1835 C1836 1.403 . S
C1836 C1835 1.403 . S
C1836 C1837 1.404 . S
C1836 C1839 1.539 . S
C1837 C1833 1.408 . S
C1837 C1836 1.404 . S
C1837 H1849 0.930 . S
C1838 C1834 1.524 . S
C1838 H1850 0.956 . S
C1838 H1851 0.961 . S
C1838 H1852 0.961 . S
C1839 C1836 1.539 . S
C1839 H1853 0.958 . S
C1839 H1854 0.961 . S
C1839 H1855 0.960 . S
H1840 C1824 0.931 . S
H1841 C1829 0.929 . S
H1842 C1830 0.960 . S
H1843 C1830 0.962 . S
H1844 C1830 0.960 . S
H1845 C1831 0.961 . S
H1846 C1831 0.961 . S
H1847 C1831 0.961 . S
H1848 C1832 0.931 . S
H1849 C1837 0.930 . S
H1850 C1838 0.956 . S
H1851 C1838 0.961 . S
H1852 C1838 0.961 . S
H1853 C1839 0.958 . S
H1854 C1839 0.961 . S
H1855 C1839 0.960 . S
C1856 C1857 1.391 . S
C1856 C1858 1.394 . S
C1856 H1872 0.931 . S
C1857 C1856 1.391 . S
C1857 C1861 1.376 . S
C1858 C1856 1.394 . S
C1858 C1859 1.369 . S
C1858 C1862 1.531 . S
C1859 C1858 1.369 . S
C1859 C1860 1.410 . S
C1859 C1867 1.503 . S
C1860 C1859 1.410 . S
C1860 C1861 1.392 . S
C1860 C1863 1.511 . S
C1861 C1857 1.376 . S
C1861 C1860 1.392 . S
C1861 H1873 0.929 . S
C1862 C1858 1.531 . S
C1862 H1874 0.960 . S
C1862 H1875 0.962 . S
C1862 H1876 0.960 . S
C1863 C1860 1.511 . S
C1863 H1877 0.961 . S
C1863 H1878 0.961 . S
C1863 H1879 0.961 . S
C1864 C1865 1.370 . S
C1864 C1866 1.363 . S
C1864 H1880 0.931 . S
C1865 C1864 1.370 . S
C1865 C1869 1.408 . S
C1866 C1864 1.363 . S
C1866 C1867 1.370 . S
C1866 C1870 1.524 . S
C1867 C1859 1.503 . S
C1867 C1866 1.370 . S
C1867 C1868 1.403 . S
C1868 C1867 1.403 . S
C1868 C1869 1.404 . S
C1868 C1871 1.539 . S
C1869 C1865 1.408 . S
C1869 C1868 1.404 . S
C1869 H1881 0.930 . S
C1870 C1866 1.524 . S
C1870 H1882 0.956 . S
C1870 H1883 0.961 . S
C1870 H1884 0.961 . S
C1871 C1868 1.539 . S
C1871 H1885 0.958 . S
C1871 H1886 0.961 . S
C1871 H1887 0.960 . S
H1872 C1856 0.931 . S
H1873 C1861 0.929 . S
H1874 C1862 0.960 . S
H1875 C1862 0.962 . S
H1876 C1862 0.960 . S
H1877 C1863 0.961 . S
H1878 C1863 0.961 . S
H1879 C1863 0.961 . S
H1880 C1864 0.931 . S
H1881 C1869 0.930 . S
H1882 C1870 0.956 . S
H1883 C1870 0.961 . S
H1884 C1870 0.961 . S
H1885 C1871 0.958 . S
H1886 C1871 0.961 . S
H1887 C1871 0.960 . S
C1888 C1889 1.391 . S
C1888 C1890 1.394 . S
C1888 H1904 0.931 . S
C1889 C1888 1.391 . S
C1889 C1893 1.376 . S
C1890 C1888 1.394 . S
C1890 C1891 1.369 . S
C1890 C1894 1.531 . S
C1891 C1890 1.369 . S
C1891 C1892 1.410 . S
C1891 C1899 1.503 . S
C1892 C1891 1.410 . S
C1892 C1893 1.392 . S
C1892 C1895 1.511 . S
C1893 C1889 1.376 . S
C1893 C1892 1.392 . S
C1893 H1905 0.929 . S
C1894 C1890 1.531 . S
C1894 H1906 0.960 . S
C1894 H1907 0.962 . S
C1894 H1908 0.960 . S
C1895 C1892 1.511 . S
C1895 H1909 0.961 . S
C1895 H1910 0.961 . S
C1895 H1911 0.961 . S
C1896 C1897 1.370 . S
C1896 C1898 1.363 . S
C1896 H1912 0.931 . S
C1897 C1896 1.370 . S
C1897 C1901 1.408 . S
C1898 C1896 1.363 . S
C1898 C1899 1.370 . S
C1898 C1902 1.524 . S
C1899 C1891 1.503 . S
C1899 C1898 1.370 . S
C1899 C1900 1.403 . S
C1900 C1899 1.403 . S
C1900 C1901 1.404 . S
C1900 C1903 1.539 . S
C1901 C1897 1.408 . S
C1901 C1900 1.404 . S
C1901 H1913 0.930 . S
C1902 C1898 1.524 . S
C1902 H1914 0.956 . S
C1902 H1915 0.961 . S
C1902 H1916 0.961 . S
C1903 C1900 1.539 . S
C1903 H1917 0.958 . S
C1903 H1918 0.961 . S
C1903 H1919 0.960 . S
H1904 C1888 0.931 . S
H1905 C1893 0.929 . S
H1906 C1894 0.960 . S
H1907 C1894 0.962 . S
H1908 C1894 0.960 . S
H1909 C1895 0.961 . S
H1910 C1895 0.961 . S
H1911 C1895 0.961 . S
H1912 C1896 0.931 . S
H1913 C1901 0.930 . S
H1914 C1902 0.956 . S
H1915 C1902 0.961 . S
H1916 C1902 0.961 . S
H1917 C1903 0.958 . S
H1918 C1903 0.961 . S
H1919 C1903 0.960 . S
C1920 C1921 1.391 1_565 S
C1920 C1922 1.394 . S
C1920 H1936 0.931 . S
C1921 C1920 1.391 1_545 S
C1921 C1925 1.376 . S
C1922 C1920 1.394 . S
C1922 C1923 1.369 1_565 S
C1922 C1926 1.531 . S
C1923 C1922 1.369 1_545 S
C1923 C1924 1.410 . S
C1923 C1931 1.503 1_445 S
C1924 C1923 1.410 . S
C1924 C1925 1.392 . S
C1924 C1927 1.511 1_455 S
C1925 C1921 1.376 . S
C1925 C1924 1.392 . S
C1925 H1937 0.929 . S
C1926 C1922 1.531 . S
C1926 H1938 0.960 . S
C1926 H1939 0.962 . S
C1926 H1940 0.960 . S
C1927 C1924 1.511 1_655 S
C1927 H1941 0.966 . S
C1927 H1942 0.961 . S
C1927 H1943 0.961 . S
C1928 C1929 1.370 . S
C1928 C1930 1.363 . S
C1928 H1944 0.931 . S
C1929 C1928 1.370 . S
C1929 C1933 1.408 . S
C1930 C1928 1.363 . S
C1930 C1931 1.370 . S
C1930 C1934 1.524 1_565 S
C1931 C1923 1.503 1_665 S
C1931 C1930 1.370 . S
C1931 C1932 1.403 . S
C1932 C1931 1.403 . S
C1932 C1933 1.404 . S
C1932 C1935 1.539 . S
C1933 C1929 1.408 . S
C1933 C1932 1.404 . S
C1933 H1945 0.930 . S
C1934 C1930 1.524 1_545 S
C1934 H1946 0.956 1_645 S
C1934 H1947 0.961 . S
C1934 H1948 0.961 . S
C1935 C1932 1.539 . S
C1935 H1949 0.958 . S
C1935 H1950 0.961 . S
C1935 H1951 0.973 1_565 S
H1936 C1920 0.931 . S
H1937 C1925 0.929 . S
H1938 C1926 0.960 . S
H1939 C1926 0.962 . S
H1940 C1926 0.960 . S
H1941 C1927 0.966 . S
H1942 C1927 0.961 . S
H1943 C1927 0.961 . S
H1944 C1928 0.931 . S
H1945 C1933 0.930 . S
H1946 C1934 0.956 1_465 S
H1947 C1934 0.961 . S
H1948 C1934 0.961 . S
H1949 C1935 0.958 . S
H1950 C1935 0.961 . S
H1951 C1935 0.973 1_545 S
C1952 C1953 1.391 . S
C1952 C1954 1.394 . S
C1952 H1968 0.931 . S
C1953 C1952 1.391 . S
C1953 C1957 1.377 1_455 S
C1954 C1952 1.394 . S
C1954 C1955 1.369 . S
C1954 C1958 1.531 . S
C1955 C1954 1.369 . S
C1955 C1956 1.410 1_455 S
C1955 C1963 1.503 1_455 S
C1956 C1955 1.410 1_655 S
C1956 C1957 1.392 . S
C1956 C1959 1.511 . S
C1957 C1953 1.377 1_655 S
C1957 C1956 1.392 . S
C1957 H1969 0.928 . S
C1958 C1954 1.531 . S
C1958 H1970 0.960 . S
C1958 H1971 0.962 . S
C1958 H1972 0.960 . S
C1959 C1956 1.511 . S
C1959 H1973 0.961 . S
C1959 H1974 0.961 . S
C1959 H1975 0.961 . S
C1960 C1961 1.370 . S
C1960 C1962 1.374 . S
C1960 H1976 0.931 . S
C1961 C1960 1.370 . S
C1961 C1965 1.408 . S
C1962 C1960 1.374 . S
C1962 C1963 1.379 . S
C1962 C1966 1.505 1_655 S
C1963 C1955 1.503 1_655 S
C1963 C1962 1.379 . S
C1963 C1964 1.403 . S
C1964 C1963 1.403 . S
C1964 C1965 1.404 . S
C1964 C1967 1.539 . S
C1965 C1961 1.408 . S
C1965 C1964 1.404 . S
C1965 H1977 0.930 . S
C1966 C1962 1.505 1_455 S
C1966 H1978 0.956 . S
C1966 H1979 0.961 . S
C1966 H1980 0.961 . S
C1967 C1964 1.539 . S
C1967 H1981 0.958 . S
C1967 H1982 0.961 . S
C1967 H1983 0.960 . S
H1968 C1952 0.931 . S
H1969 C1957 0.928 . S
H1970 C1958 0.960 . S
H1971 C1958 0.962 . S
H1972 C1958 0.960 . S
H1973 C1959 0.961 . S
H1974 C1959 0.961 . S
H1975 C1959 0.961 . S
H1976 C1960 0.931 . S
H1977 C1965 0.930 . S
H1978 C1966 0.956 . S
H1979 C1966 0.961 . S
H1980 C1966 0.961 . S
H1981 C1967 0.958 . S
H1982 C1967 0.961 . S
H1983 C1967 0.960 . S
C1984 C1985 1.391 . S
C1984 C1986 1.394 . S
C1984 H2000 0.931 . S
C1985 C1984 1.391 . S
C1985 C1989 1.376 . S
C1986 C1984 1.394 . S
C1986 C1987 1.369 . S
C1986 C1990 1.531 . S
C1987 C1986 1.369 . S
C1987 C1988 1.410 . S
C1987 C1995 1.503 . S
C1988 C1987 1.410 . S
C1988 C1989 1.392 . S
C1988 C1991 1.511 . S
C1989 C1985 1.376 . S
C1989 C1988 1.392 . S
C1989 H2001 0.929 . S
C1990 C1986 1.531 . S
C1990 H2002 0.960 . S
C1990 H2003 0.962 . S
C1990 H2004 0.960 . S
C1991 C1988 1.511 . S
C1991 H2005 0.961 . S
C1991 H2006 0.961 . S
C1991 H2007 0.961 . S
C1992 C1993 1.370 . S
C1992 C1994 1.363 . S
C1992 H2008 0.931 . S
C1993 C1992 1.370 . S
C1993 C1997 1.408 . S
C1994 C1992 1.363 . S
C1994 C1995 1.370 . S
C1994 C1998 1.524 . S
C1995 C1987 1.503 . S
C1995 C1994 1.370 . S
C1995 C1996 1.403 . S
C1996 C1995 1.403 . S
C1996 C1997 1.404 . S
C1996 C1999 1.539 . S
C1997 C1993 1.408 . S
C1997 C1996 1.404 . S
C1997 H2009 0.930 . S
C1998 C1994 1.524 . S
C1998 H2010 0.956 . S
C1998 H2011 0.961 . S
C1998 H2012 0.961 . S
C1999 C1996 1.539 . S
C1999 H2013 0.958 . S
C1999 H2014 0.961 . S
C1999 H2015 0.960 . S
H2000 C1984 0.931 . S
H2001 C1989 0.929 . S
H2002 C1990 0.960 . S
H2003 C1990 0.962 . S
H2004 C1990 0.960 . S
H2005 C1991 0.961 . S
H2006 C1991 0.961 . S
H2007 C1991 0.961 . S
H2008 C1992 0.931 . S
H2009 C1997 0.930 . S
H2010 C1998 0.956 . S
H2011 C1998 0.961 . S
H2012 C1998 0.961 . S
H2013 C1999 0.958 . S
H2014 C1999 0.961 . S
H2015 C1999 0.960 . S
C2016 C2017 1.391 . S
C2016 C2018 1.394 . S
C2016 H2032 0.931 . S
C2017 C2016 1.391 . S
C2017 C2021 1.376 . S
C2018 C2016 1.394 . S
C2018 C2019 1.369 . S
C2018 C2022 1.531 . S
C2019 C2018 1.369 . S
C2019 C2020 1.410 . S
C2019 C2027 1.503 1_545 S
C2020 C2019 1.410 . S
C2020 C2021 1.392 . S
C2020 C2023 1.511 1_545 S
C2021 C2017 1.376 . S
C2021 C2020 1.392 . S
C2021 H2033 0.929 . S
C2022 C2018 1.531 . S
C2022 H2034 0.960 . S
C2022 H2035 0.962 . S
C2022 H2036 0.960 . S
C2023 C2020 1.511 1_565 S
C2023 H2037 0.961 1_565 S
C2023 H2038 0.961 . S
C2023 H2039 0.961 . S
C2024 C2025 1.370 . S
C2024 C2026 1.363 . S
C2024 H2040 0.931 . S
C2025 C2024 1.370 . S
C2025 C2029 1.408 . S
C2026 C2024 1.363 . S
C2026 C2027 1.370 . S
C2026 C2030 1.524 . S
C2027 C2019 1.503 1_565 S
C2027 C2026 1.370 . S
C2027 C2028 1.403 . S
C2028 C2027 1.403 . S
C2028 C2029 1.404 . S
C2028 C2031 1.539 . S
C2029 C2025 1.408 . S
C2029 C2028 1.404 . S
C2029 H2041 0.930 . S
C2030 C2026 1.524 . S
C2030 H2042 0.956 1_565 S
C2030 H2043 0.961 1_565 S
C2030 H2044 0.961 . S
C2031 C2028 1.539 . S
C2031 H2045 0.958 . S
C2031 H2046 0.961 . S
C2031 H2047 0.960 . S
H2032 C2016 0.931 . S
H2033 C2021 0.929 . S
H2034 C2022 0.960 . S
H2035 C2022 0.962 . S
H2036 C2022 0.960 . S
H2037 C2023 0.961 1_545 S
H2038 C2023 0.961 . S
H2039 C2023 0.961 . S
H2040 C2024 0.931 . S
H2041 C2029 0.930 . S
H2042 C2030 0.956 1_545 S
H2043 C2030 0.961 1_545 S
H2044 C2030 0.961 . S
H2045 C2031 0.958 . S
H2046 C2031 0.961 . S
H2047 C2031 0.960 . S
C2048 C2049 1.391 . S
C2048 C2050 1.394 . S
C2048 H2064 0.931 . S
C2049 C2048 1.391 . S
C2049 C2053 1.376 . S
C2050 C2048 1.394 . S
C2050 C2051 1.369 . S
C2050 C2054 1.531 1_455 S
C2051 C2050 1.369 . S
C2051 C2052 1.410 . S
C2051 C2059 1.503 1_455 S
C2052 C2051 1.410 . S
C2052 C2053 1.392 . S
C2052 C2055 1.511 . S
C2053 C2049 1.376 . S
C2053 C2052 1.392 . S
C2053 H2065 0.929 . S
C2054 C2050 1.531 1_655 S
C2054 H2066 0.960 . S
C2054 H2067 0.962 . S
C2054 H2068 0.964 . S
C2055 C2052 1.511 . S
C2055 H2069 0.961 . S
C2055 H2070 0.961 . S
C2055 H2071 0.961 . S
C2056 C2057 1.370 . S
C2056 C2058 1.363 . S
C2056 H2072 0.931 . S
C2057 C2056 1.370 . S
C2057 C2061 1.408 . S
C2058 C2056 1.363 . S
C2058 C2059 1.370 . S
C2058 C2062 1.524 . S
C2059 C2051 1.503 1_655 S
C2059 C2058 1.370 . S
C2059 C2060 1.403 . S
C2060 C2059 1.403 . S
C2060 C2061 1.404 . S
C2060 C2063 1.539 . S
C2061 C2057 1.408 . S
C2061 C2060 1.404 . S
C2061 H2073 0.930 . S
C2062 C2058 1.524 . S
C2062 H2074 0.956 . S
C2062 H2075 0.961 1_655 S
C2062 H2076 0.961 . S
C2063 C2060 1.539 . S
C2063 H2077 0.958 . S
C2063 H2078 0.961 . S
C2063 H2079 0.960 1_655 S
H2064 C2048 0.931 . S
H2065 C2053 0.929 . S
H2066 C2054 0.960 . S
H2067 C2054 0.962 . S
H2068 C2054 0.964 . S
H2069 C2055 0.961 . S
H2070 C2055 0.961 . S
H2071 C2055 0.961 . S
H2072 C2056 0.931 . S
H2073 C2061 0.930 . S
H2074 C2062 0.956 . S
H2075 C2062 0.961 1_455 S
H2076 C2062 0.961 . S
H2077 C2063 0.958 . S
H2078 C2063 0.961 . S
H2079 C2063 0.960 1_455 S
C2080 C2081 1.391 . S
C2080 C2082 1.394 . S
C2080 H2096 0.931 . S
C2081 C2080 1.391 . S
C2081 C2085 1.376 . S
C2082 C2080 1.394 . S
C2082 C2083 1.369 . S
C2082 C2086 1.531 . S
C2083 C2082 1.369 . S
C2083 C2084 1.410 . S
C2083 C2091 1.503 . S
C2084 C2083 1.410 . S
C2084 C2085 1.392 . S
C2084 C2087 1.511 . S
C2085 C2081 1.376 . S
C2085 C2084 1.392 . S
C2085 H2097 0.929 . S
C2086 C2082 1.531 . S
C2086 H2098 0.960 . S
C2086 H2099 0.962 . S
C2086 H2100 0.960 . S
C2087 C2084 1.511 . S
C2087 H2101 0.961 . S
C2087 H2102 0.961 . S
C2087 H2103 0.961 . S
C2088 C2089 1.370 . S
C2088 C2090 1.363 . S
C2088 H2104 0.931 . S
C2089 C2088 1.370 . S
C2089 C2093 1.408 . S
C2090 C2088 1.363 . S
C2090 C2091 1.370 . S
C2090 C2094 1.524 . S
C2091 C2083 1.503 . S
C2091 C2090 1.370 . S
C2091 C2092 1.403 . S
C2092 C2091 1.403 . S
C2092 C2093 1.404 . S
C2092 C2095 1.539 . S
C2093 C2089 1.408 . S
C2093 C2092 1.404 . S
C2093 H2105 0.930 . S
C2094 C2090 1.524 . S
C2094 H2106 0.956 . S
C2094 H2107 0.961 . S
C2094 H2108 0.961 . S
C2095 C2092 1.539 . S
C2095 H2109 0.958 . S
C2095 H2110 0.961 . S
C2095 H2111 0.960 . S
H2096 C2080 0.931 . S
H2097 C2085 0.929 . S
H2098 C2086 0.960 . S
H2099 C2086 0.962 . S
H2100 C2086 0.960 . S
H2101 C2087 0.961 . S
H2102 C2087 0.961 . S
H2103 C2087 0.961 . S
H2104 C2088 0.931 . S
H2105 C2093 0.930 . S
H2106 C2094 0.956 . S
H2107 C2094 0.961 . S
H2108 C2094 0.961 . S
H2109 C2095 0.958 . S
H2110 C2095 0.961 . S
H2111 C2095 0.960 . S
C2112 C2113 1.391 . S
C2112 C2114 1.394 . S
C2112 H2128 0.931 . S
C2113 C2112 1.391 . S
C2113 C2117 1.382 . S
C2114 C2112 1.394 . S
C2114 C2115 1.369 . S
C2114 C2118 1.531 . S
C2115 C2114 1.369 . S
C2115 C2116 1.410 1_565 S
C2115 C2123 1.503 1_565 S
C2116 C2115 1.410 1_545 S
C2116 C2117 1.389 1_545 S
C2116 C2119 1.511 . S
C2117 C2113 1.382 . S
C2117 C2116 1.389 1_565 S
C2117 H2129 0.925 1_565 S
C2118 C2114 1.531 . S
C2118 H2130 0.960 . S
C2118 H2131 0.962 . S
C2118 H2132 0.960 . S
C2119 C2116 1.511 . S
C2119 H2133 0.961 . S
C2119 H2134 0.961 . S
C2119 H2135 0.961 . S
C2120 C2121 1.370 . S
C2120 C2122 1.365 . S
C2120 H2136 0.931 . S
C2121 C2120 1.370 . S
C2121 C2125 1.408 . S
C2122 C2120 1.365 . S
C2122 C2123 1.372 . S
C2122 C2126 1.520 1_545 S
C2123 C2115 1.503 1_545 S
C2123 C2122 1.372 . S
C2123 C2124 1.403 . S
C2124 C2123 1.403 . S
C2124 C2125 1.404 . S
C2124 C2127 1.539 . S
C2125 C2121 1.408 . S
C2125 C2124 1.404 . S
C2125 H2137 0.930 . S
C2126 C2122 1.520 1_565 S
C2126 H2138 0.956 . S
C2126 H2139 0.961 . S
C2126 H2140 0.961 . S
C2127 C2124 1.539 . S
C2127 H2141 0.958 . S
C2127 H2142 0.961 . S
C2127 H2143 0.960 . S
H2128 C2112 0.931 . S
H2129 C2117 0.925 1_545 S
H2130 C2118 0.960 . S
H2131 C2118 0.962 . S
H2132 C2118 0.960 . S
H2133 C2119 0.961 . S
H2134 C2119 0.961 . S
H2135 C2119 0.961 . S
H2136 C2120 0.931 . S
H2137 C2125 0.930 . S
H2138 C2126 0.956 . S
H2139 C2126 0.961 . S
H2140 C2126 0.961 . S
H2141 C2127 0.958 . S
H2142 C2127 0.961 . S
H2143 C2127 0.960 . S
C2144 C2145 1.400 . S
C2144 C2146 1.390 1_455 S
C2144 H2160 0.925 1_455 S
C2145 C2144 1.400 . S
C2145 C2149 1.376 . S
C2146 C2144 1.390 1_655 S
C2146 C2147 1.369 1_655 S
C2146 C2150 1.531 . S
C2147 C2146 1.369 1_455 S
C2147 C2148 1.410 . S
C2147 C2155 1.503 1_445 S
C2148 C2147 1.410 . S
C2148 C2149 1.392 . S
C2148 C2151 1.511 1_545 S
C2149 C2145 1.376 . S
C2149 C2148 1.392 . S
C2149 H2161 0.929 . S
C2150 C2146 1.531 . S
C2150 H2162 0.960 . S
C2150 H2163 0.962 . S
C2150 H2164 0.960 . S
C2151 C2148 1.511 1_565 S
C2151 H2165 0.958 1_565 S
C2151 H2166 0.961 . S
C2151 H2167 0.961 . S
C2152 C2153 1.370 . S
C2152 C2154 1.363 . S
C2152 H2168 0.931 . S
C2153 C2152 1.370 . S
C2153 C2157 1.408 . S
C2154 C2152 1.363 . S
C2154 C2155 1.370 . S
C2154 C2158 1.524 . S
C2155 C2147 1.503 1_665 S
C2155 C2154 1.370 . S
C2155 C2156 1.403 . S
C2156 C2155 1.403 . S
C2156 C2157 1.404 . S
C2156 C2159 1.539 1_655 S
C2157 C2153 1.408 . S
C2157 C2156 1.404 . S
C2157 H2169 0.930 . S
C2158 C2154 1.524 . S
C2158 H2170 0.956 1_565 S
C2158 H2171 0.951 1_665 S
C2158 H2172 0.961 . S
C2159 C2156 1.539 1_455 S
C2159 H2173 0.958 1_455 S
C2159 H2174 0.961 . S
C2159 H2175 0.960 . S
H2160 C2144 0.925 1_655 S
H2161 C2149 0.929 . S
H2162 C2150 0.960 . S
H2163 C2150 0.962 . S
H2164 C2150 0.960 . S
H2165 C2151 0.958 1_545 S
H2166 C2151 0.961 . S
H2167 C2151 0.961 . S
H2168 C2152 0.931 . S
H2169 C2157 0.930 . S
H2170 C2158 0.956 1_545 S
H2171 C2158 0.951 1_445 S
H2172 C2158 0.961 . S
H2173 C2159 0.958 1_655 S
H2174 C2159 0.961 . S
H2175 C2159 0.960 . S
C2176 C2177 1.391 . S
C2176 C2178 1.394 . S
C2176 H2192 0.931 . S
C2177 C2176 1.391 . S
C2177 C2181 1.376 . S
C2178 C2176 1.394 . S
C2178 C2179 1.369 . S
C2178 C2182 1.531 . S
C2179 C2178 1.369 . S
C2179 C2180 1.410 . S
C2179 C2187 1.511 . S
C2180 C2179 1.410 . S
C2180 C2181 1.392 . S
C2180 C2183 1.511 . S
C2181 C2177 1.376 . S
C2181 C2180 1.392 . S
C2181 H2193 0.929 . S
C2182 C2178 1.531 . S
C2182 H2194 0.960 . S
C2182 H2195 0.962 1_565 S
C2182 H2196 0.960 . S
C2183 C2180 1.511 . S
C2183 H2197 0.961 . S
C2183 H2198 0.939 1_565 S
C2183 H2199 0.961 . S
C2184 C2185 1.370 . S
C2184 C2186 1.363 . S
C2184 H2200 0.931 . S
C2185 C2184 1.370 . S
C2185 C2189 1.408 1_545 S
C2186 C2184 1.363 . S
C2186 C2187 1.345 1_545 S
C2186 C2190 1.524 . S
C2187 C2179 1.511 . S
C2187 C2186 1.345 1_565 S
C2187 C2188 1.420 . S
C2188 C2187 1.420 . S
C2188 C2189 1.404 . S
C2188 C2191 1.539 . S
C2189 C2185 1.408 1_565 S
C2189 C2188 1.404 . S
C2189 H2201 0.930 . S
C2190 C2186 1.524 . S
C2190 H2202 0.956 . S
C2190 H2203 0.961 . S
C2190 H2204 0.961 . S
C2191 C2188 1.539 . S
C2191 H2205 0.958 . S
C2191 H2206 0.961 . S
C2191 H2207 0.960 . S
H2192 C2176 0.931 . S
H2193 C2181 0.929 . S
H2194 C2182 0.960 . S
H2195 C2182 0.962 1_545 S
H2196 C2182 0.960 . S
H2197 C2183 0.961 . S
H2198 C2183 0.939 1_545 S
H2199 C2183 0.961 . S
H2200 C2184 0.931 . S
H2201 C2189 0.930 . S
H2202 C2190 0.956 . S
H2203 C2190 0.961 . S
H2204 C2190 0.961 . S
H2205 C2191 0.958 . S
H2206 C2191 0.961 . S
H2207 C2191 0.960 . S
C2208 C2209 1.376 1_455 S
C2208 C2210 1.398 . S
C2208 H2224 0.941 . S
C2209 C2208 1.376 1_655 S
C2209 C2213 1.376 . S
C2210 C2208 1.398 . S
C2210 C2211 1.369 1_455 S
C2210 C2214 1.531 . S
C2211 C2210 1.369 1_655 S
C2211 C2212 1.410 . S
C2211 C2219 1.503 1_665 S
C2212 C2211 1.410 . S
C2212 C2213 1.392 . S
C2212 C2215 1.511 . S
C2213 C2209 1.376 . S
C2213 C2212 1.392 . S
C2213 H2225 0.929 . S
C2214 C2210 1.531 . S
C2214 H2226 0.960 . S
C2214 H2227 0.962 . S
C2214 H2228 0.960 . S
C2215 C2212 1.511 . S
C2215 H2229 0.961 . S
C2215 H2230 0.961 1_565 S
C2215 H2231 0.961 1_565 S
C2216 C2217 1.370 . S
C2216 C2218 1.363 . S
C2216 H2232 0.931 . S
C2217 C2216 1.370 . S
C2217 C2221 1.408 1_455 S
C2218 C2216 1.363 . S
C2218 C2219 1.370 . S
C2218 C2222 1.524 . S
C2219 C2211 1.503 1_445 S
C2219 C2218 1.370 . S
C2219 C2220 1.403 1_455 S
C2220 C2219 1.403 1_655 S
C2220 C2221 1.404 . S
C2220 C2223 1.539 . S
C2221 C2217 1.408 1_655 S
C2221 C2220 1.404 . S
C2221 H2233 0.930 . S
C2222 C2218 1.524 . S
C2222 H2234 0.956 1_545 S
C2222 H2235 0.961 1_545 S
C2222 H2236 0.961 . S
C2223 C2220 1.539 . S
C2223 H2237 0.958 . S
C2223 H2238 0.961 . S
C2223 H2239 0.960 . S
H2224 C2208 0.941 . S
H2225 C2213 0.929 . S
H2226 C2214 0.960 . S
H2227 C2214 0.962 . S
H2228 C2214 0.960 . S
H2229 C2215 0.961 . S
H2230 C2215 0.961 1_545 S
H2231 C2215 0.961 1_545 S
H2232 C2216 0.931 . S
H2233 C2221 0.930 . S
H2234 C2222 0.956 1_565 S
H2235 C2222 0.961 1_565 S
H2236 C2222 0.961 . S
H2237 C2223 0.958 . S
H2238 C2223 0.961 . S
H2239 C2223 0.960 . S
C2240 C2241 1.391 . S
C2240 C2242 1.394 . S
C2240 H2256 0.931 . S
C2241 C2240 1.391 . S
C2241 C2245 1.376 . S
C2242 C2240 1.394 . S
C2242 C2243 1.369 . S
C2242 C2246 1.531 . S
C2243 C2242 1.369 . S
C2243 C2244 1.410 . S
C2243 C2251 1.503 1_455 S
C2244 C2243 1.410 . S
C2244 C2245 1.392 . S
C2244 C2247 1.511 . S
C2245 C2241 1.376 . S
C2245 C2244 1.392 . S
C2245 H2257 0.929 . S
C2246 C2242 1.531 . S
C2246 H2258 0.960 . S
C2246 H2259 0.962 . S
C2246 H2260 0.960 . S
C2247 C2244 1.511 . S
C2247 H2261 0.961 . S
C2247 H2262 0.961 1_455 S
C2247 H2263 0.961 1_455 S
C2248 C2249 1.370 . S
C2248 C2250 1.363 . S
C2248 H2264 0.931 . S
C2249 C2248 1.370 . S
C2249 C2253 1.408 . S
C2250 C2248 1.363 . S
C2250 C2251 1.370 . S
C2250 C2254 1.524 . S
C2251 C2243 1.503 1_655 S
C2251 C2250 1.370 . S
C2251 C2252 1.403 . S
C2252 C2251 1.403 . S
C2252 C2253 1.404 . S
C2252 C2255 1.539 . S
C2253 C2249 1.408 . S
C2253 C2252 1.404 . S
C2253 H2265 0.930 . S
C2254 C2250 1.524 . S
C2254 H2266 0.956 1_655 S
C2254 H2267 0.961 . S
C2254 H2268 0.961 . S
C2255 C2252 1.539 . S
C2255 H2269 0.958 . S
C2255 H2270 0.961 . S
C2255 H2271 0.960 . S
H2256 C2240 0.931 . S
H2257 C2245 0.929 . S
H2258 C2246 0.960 . S
H2259 C2246 0.962 . S
H2260 C2246 0.960 . S
H2261 C2247 0.961 . S
H2262 C2247 0.961 1_655 S
H2263 C2247 0.961 1_655 S
H2264 C2248 0.931 . S
H2265 C2253 0.930 . S
H2266 C2254 0.956 1_455 S
H2267 C2254 0.961 . S
H2268 C2254 0.961 . S
H2269 C2255 0.958 . S
H2270 C2255 0.961 . S
H2271 C2255 0.960 . S
C2272 C2273 1.391 . S
C2272 C2274 1.394 . S
C2272 H2288 0.931 . S
C2273 C2272 1.391 . S
C2273 C2277 1.376 . S
C2274 C2272 1.394 . S
C2274 C2275 1.369 . S
C2274 C2278 1.531 . S
C2275 C2274 1.369 . S
C2275 C2276 1.410 . S
C2275 C2283 1.503 . S
C2276 C2275 1.410 . S
C2276 C2277 1.392 . S
C2276 C2279 1.511 . S
C2277 C2273 1.376 . S
C2277 C2276 1.392 . S
C2277 H2289 0.929 . S
C2278 C2274 1.531 . S
C2278 H2290 0.960 . S
C2278 H2291 0.962 . S
C2278 H2292 0.960 . S
C2279 C2276 1.511 . S
C2279 H2293 0.961 . S
C2279 H2294 0.961 . S
C2279 H2295 0.961 . S
C2280 C2281 1.370 . S
C2280 C2282 1.363 . S
C2280 H2296 0.931 . S
C2281 C2280 1.370 . S
C2281 C2285 1.408 . S
C2282 C2280 1.363 . S
C2282 C2283 1.370 . S
C2282 C2286 1.524 . S
C2283 C2275 1.503 . S
C2283 C2282 1.370 . S
C2283 C2284 1.403 . S
C2284 C2283 1.403 . S
C2284 C2285 1.404 . S
C2284 C2287 1.539 . S
C2285 C2281 1.408 . S
C2285 C2284 1.404 . S
C2285 H2297 0.930 . S
C2286 C2282 1.524 . S
C2286 H2298 0.956 . S
C2286 H2299 0.961 . S
C2286 H2300 0.961 . S
C2287 C2284 1.539 . S
C2287 H2301 0.958 . S
C2287 H2302 0.961 . S
C2287 H2303 0.960 . S
H2288 C2272 0.931 . S
H2289 C2277 0.929 . S
H2290 C2278 0.960 . S
H2291 C2278 0.962 . S
H2292 C2278 0.960 . S
H2293 C2279 0.961 . S
H2294 C2279 0.961 . S
H2295 C2279 0.961 . S
H2296 C2280 0.931 . S
H2297 C2285 0.930 . S
H2298 C2286 0.956 . S
H2299 C2286 0.961 . S
H2300 C2286 0.961 . S
H2301 C2287 0.958 . S
H2302 C2287 0.961 . S
H2303 C2287 0.960 . S
C2304 C2305 1.391 . S
C2304 C2306 1.394 . S
C2304 H2320 0.931 . S
C2305 C2304 1.391 . S
C2305 C2309 1.376 . S
C2306 C2304 1.394 . S
C2306 C2307 1.369 . S
C2306 C2310 1.531 . S
C2307 C2306 1.369 . S
C2307 C2308 1.410 . S
C2307 C2315 1.503 . S
C2308 C2307 1.410 . S
C2308 C2309 1.392 . S
C2308 C2311 1.511 . S
C2309 C2305 1.376 . S
C2309 C2308 1.392 . S
C2309 H2321 0.929 . S
C2310 C2306 1.531 . S
C2310 H2322 0.960 . S
C2310 H2323 0.962 . S
C2310 H2324 0.960 . S
C2311 C2308 1.511 . S
C2311 H2325 0.961 . S
C2311 H2326 0.961 . S
C2311 H2327 0.961 . S
C2312 C2313 1.370 . S
C2312 C2314 1.363 . S
C2312 H2328 0.931 . S
C2313 C2312 1.370 . S
C2313 C2317 1.408 . S
C2314 C2312 1.363 . S
C2314 C2315 1.370 . S
C2314 C2318 1.524 . S
C2315 C2307 1.503 . S
C2315 C2314 1.370 . S
C2315 C2316 1.403 . S
C2316 C2315 1.403 . S
C2316 C2317 1.404 . S
C2316 C2319 1.539 . S
C2317 C2313 1.408 . S
C2317 C2316 1.404 . S
C2317 H2329 0.930 . S
C2318 C2314 1.524 . S
C2318 H2330 0.956 . S
C2318 H2331 0.961 . S
C2318 H2332 0.961 . S
C2319 C2316 1.539 . S
C2319 H2333 0.958 . S
C2319 H2334 0.961 . S
C2319 H2335 0.960 . S
H2320 C2304 0.931 . S
H2321 C2309 0.929 . S
H2322 C2310 0.960 . S
H2323 C2310 0.962 . S
H2324 C2310 0.960 . S
H2325 C2311 0.961 . S
H2326 C2311 0.961 . S
H2327 C2311 0.961 . S
H2328 C2312 0.931 . S
H2329 C2317 0.930 . S
H2330 C2318 0.956 . S
H2331 C2318 0.961 . S
H2332 C2318 0.961 . S
H2333 C2319 0.958 . S
H2334 C2319 0.961 . S
H2335 C2319 0.960 . S
C2336 C2337 1.391 . S
C2336 C2338 1.394 . S
C2336 H2352 0.931 . S
C2337 C2336 1.391 . S
C2337 C2341 1.376 . S
C2338 C2336 1.394 . S
C2338 C2339 1.369 . S
C2338 C2342 1.531 . S
C2339 C2338 1.369 . S
C2339 C2340 1.410 . S
C2339 C2347 1.503 1_545 S
C2340 C2339 1.410 . S
C2340 C2341 1.392 . S
C2340 C2343 1.511 . S
C2341 C2337 1.376 . S
C2341 C2340 1.392 . S
C2341 H2353 0.929 . S
C2342 C2338 1.531 . S
C2342 H2354 0.960 . S
C2342 H2355 0.962 . S
C2342 H2356 0.960 . S
C2343 C2340 1.511 . S
C2343 H2357 0.961 . S
C2343 H2358 0.961 1_545 S
C2343 H2359 0.961 1_545 S
C2344 C2345 1.370 . S
C2344 C2346 1.363 . S
C2344 H2360 0.931 . S
C2345 C2344 1.370 . S
C2345 C2349 1.408 . S
C2346 C2344 1.363 . S
C2346 C2347 1.370 . S
C2346 C2350 1.524 . S
C2347 C2339 1.503 1_565 S
C2347 C2346 1.370 . S
C2347 C2348 1.403 . S
C2348 C2347 1.403 . S
C2348 C2349 1.404 . S
C2348 C2351 1.539 . S
C2349 C2345 1.408 . S
C2349 C2348 1.404 . S
C2349 H2361 0.930 . S
C2350 C2346 1.524 . S
C2350 H2362 0.956 1_565 S
C2350 H2363 0.961 1_565 S
C2350 H2364 0.961 . S
C2351 C2348 1.539 . S
C2351 H2365 0.958 . S
C2351 H2366 0.961 . S
C2351 H2367 0.960 . S
H2352 C2336 0.931 . S
H2353 C2341 0.929 . S
H2354 C2342 0.960 . S
H2355 C2342 0.962 . S
H2356 C2342 0.960 . S
H2357 C2343 0.961 . S
H2358 C2343 0.961 1_565 S
H2359 C2343 0.961 1_565 S
H2360 C2344 0.931 . S
H2361 C2349 0.930 . S
H2362 C2350 0.956 1_545 S
H2363 C2350 0.961 1_545 S
H2364 C2350 0.961 . S
H2365 C2351 0.958 . S
H2366 C2351 0.961 . S
H2367 C2351 0.960 . S
C2368 C2369 1.391 . S
C2368 C2370 1.394 1_565 S
C2368 H2384 0.931 1_565 S
C2369 C2368 1.391 . S
C2369 C2373 1.376 . S
C2370 C2368 1.394 1_545 S
C2370 C2371 1.369 1_545 S
C2370 C2374 1.531 . S
C2371 C2370 1.369 1_565 S
C2371 C2372 1.410 . S
C2371 C2379 1.496 1_665 S
C2372 C2371 1.410 . S
C2372 C2373 1.392 . S
C2372 C2375 1.511 . S
C2373 C2369 1.376 . S
C2373 C2372 1.392 . S
C2373 H2385 0.929 . S
C2374 C2370 1.531 . S
C2374 H2386 0.960 . S
C2374 H2387 0.962 . S
C2374 H2388 0.960 . S
C2375 C2372 1.511 . S
C2375 H2389 0.961 . S
C2375 H2390 0.961 1_655 S
C2375 H2391 0.961 1_655 S
C2376 C2377 1.370 . S
C2376 C2378 1.363 . S
C2376 H2392 0.931 . S
C2377 C2376 1.370 . S
C2377 C2381 1.408 1_545 S
C2378 C2376 1.363 . S
C2378 C2379 1.391 . S
C2378 C2382 1.524 . S
C2379 C2371 1.496 1_445 S
C2379 C2378 1.391 . S
C2379 C2380 1.390 1_545 S
C2380 C2379 1.390 1_565 S
C2380 C2381 1.404 . S
C2380 C2383 1.539 . S
C2381 C2377 1.408 1_565 S
C2381 C2380 1.404 . S
C2381 H2393 0.930 . S
C2382 C2378 1.524 . S
C2382 H2394 0.956 1_455 S
C2382 H2395 0.961 1_455 S
C2382 H2396 0.961 . S
C2383 C2380 1.539 . S
C2383 H2397 0.958 . S
C2383 H2398 0.961 . S
C2383 H2399 0.960 . S
H2384 C2368 0.931 1_545 S
H2385 C2373 0.929 . S
H2386 C2374 0.960 . S
H2387 C2374 0.962 . S
H2388 C2374 0.960 . S
H2389 C2375 0.961 . S
H2390 C2375 0.961 1_455 S
H2391 C2375 0.961 1_455 S
H2392 C2376 0.931 . S
H2393 C2381 0.930 . S
H2394 C2382 0.956 1_655 S
H2395 C2382 0.961 1_655 S
H2396 C2382 0.961 . S
H2397 C2383 0.958 . S
H2398 C2383 0.961 . S
H2399 C2383 0.960 . S
C2400 C2401 1.391 . S
C2400 C2402 1.394 . S
C2400 H2416 0.931 . S
C2401 C2400 1.391 . S
C2401 C2405 1.376 1_655 S
C2402 C2400 1.394 . S
C2402 C2403 1.369 . S
C2402 C2406 1.531 . S
C2403 C2402 1.369 . S
C2403 C2404 1.410 1_655 S
C2403 C2411 1.503 1_655 S
C2404 C2403 1.410 1_455 S
C2404 C2405 1.392 . S
C2404 C2407 1.511 . S
C2405 C2401 1.376 1_455 S
C2405 C2404 1.392 . S
C2405 H2417 0.929 . S
C2406 C2402 1.531 . S
C2406 H2418 0.960 . S
C2406 H2419 0.962 . S
C2406 H2420 0.960 . S
C2407 C2404 1.511 . S
C2407 H2421 0.961 . S
C2407 H2422 0.961 . S
C2407 H2423 0.961 . S
C2408 C2409 1.370 . S
C2408 C2410 1.363 . S
C2408 H2424 0.931 . S
C2409 C2408 1.370 . S
C2409 C2413 1.408 . S
C2410 C2408 1.363 . S
C2410 C2411 1.370 . S
C2410 C2414 1.525 1_455 S
C2411 C2403 1.503 1_455 S
C2411 C2410 1.370 . S
C2411 C2412 1.403 . S
C2412 C2411 1.403 . S
C2412 C2413 1.404 . S
C2412 C2415 1.539 . S
C2413 C2409 1.408 . S
C2413 C2412 1.404 . S
C2413 H2425 0.930 . S
C2414 C2410 1.525 1_655 S
C2414 H2426 0.956 . S
C2414 H2427 0.961 . S
C2414 H2428 0.961 . S
C2415 C2412 1.539 . S
C2415 H2429 0.958 . S
C2415 H2430 0.961 . S
C2415 H2431 0.960 . S
H2416 C2400 0.931 . S
H2417 C2405 0.929 . S
H2418 C2406 0.960 . S
H2419 C2406 0.962 . S
H2420 C2406 0.960 . S
H2421 C2407 0.961 . S
H2422 C2407 0.961 . S
H2423 C2407 0.961 . S
H2424 C2408 0.931 . S
H2425 C2413 0.930 . S
H2426 C2414 0.956 . S
H2427 C2414 0.961 . S
H2428 C2414 0.961 . S
H2429 C2415 0.958 . S
H2430 C2415 0.961 . S
H2431 C2415 0.960 . S
C1409 C372 1.149 . S
C1417 C57 1.087 . S
C1441 C145 1.136 . S
C1449 C460 1.092 . S
C1473 C548 1.146 . S
C1481 C233 1.091 . S
C1505 C645 1.136 . S
C1513 C313 1.092 . S
C1537 C1085 1.054 . S
C1545 C753 1.127 . S
C1569 C841 1.146 . S
C1577 C1164 1.088 . S
C1601 C1252 1.153 . S
C1609 C929 1.088 . S
C1633 C1025 1.140 . S
C1641 C1340 1.091 . S
C1665 C29 1.130 . S
C1673 C1369 1.106 . S
C1697 C117 1.149 . S
C1705 C1113 1.121 . S
C1729 C205 1.106 . S
C1737 C1193 1.131 . S
C1761 C1281 1.134 . S
C1769 C284 1.108 . S
C1793 C401 1.143 . S
C1801 C812 1.127 . S
C1825 C489 1.101 . S
C1833 C900 1.130 . S
C1857 C997 1.131 . S
C1865 C577 1.107 . S
C1889 C724 1.096 . S
C1897 C673 1.106 . S
C1921 C49 1.545 . S
C1929 C937 1.547 . S
C1953 C1017 1.546 . S
C1961 C137 1.544 . S
C1985 C225 1.543 . S
C1993 C761 1.545 . S
C2017 C849 1.540 . S
C2025 C321 1.549 . S
C2049 C381 1.542 . S
C2057 C1261 1.546 . S
C2081 C469 1.541 . S
C2089 C1349 1.549 . S
C2113 C1076 1.547 . S
C2121 C557 1.544 . S
C2145 C1173 1.541 . S
C2153 C636 1.549 . S
C2177 C909 1.643 . S
C2185 C20 1.673 . S
C2209 C108 1.653 . S
C2217 C988 1.673 . S
C2241 C196 1.669 . S
C2249 C733 1.669 . S
C2273 C821 1.668 . S
C2281 C293 1.669 . S
C2305 C1289 1.647 . S
C2313 C409 1.674 . S
C2337 C1377 1.660 . S
C2345 C497 1.672 . S
C2369 C1105 1.651 . S
C2377 C585 1.674 . S
C2401 C665 1.662 . S
C2409 C1201 1.659 . S
