# Generated by pormake.
# Topology uog, (4)-cn, num edge types: 1
# Building blocks:
#     Node 0, Type 0, BuildingBlock: ICAMEG_clean_sbu_1, # of connection points: 4
#     Node 1, Type 0, BuildingBlock: ICAMEG_clean_sbu_1, # of connection points: 4
#     Node 2, Type 0, BuildingBlock: ICAMEG_clean_sbu_1, # of connection points: 4
#     Node 3, Type 0, BuildingBlock: ICAMEG_clean_sbu_1, # of connection points: 4
#     Node 4, Type 0, BuildingBlock: ICAMEG_clean_sbu_1, # of connection points: 4
#     Node 5, Type 0, BuildingBlock: ICAMEG_clean_sbu_1, # of connection points: 4
#     Edge 6, Type (0, 0), BuildingBlock: FUNLAD_clean_linker_0, # of connection points: 2
#     Edge 7, Type (0, 0), BuildingBlock: FUNLAD_clean_linker_0, # of connection points: 2
#     Edge 8, Type (0, 0), BuildingBlock: FUNLAD_clean_linker_0, # of connection points: 2
#     Edge 9, Type (0, 0), BuildingBlock: FUNLAD_clean_linker_0, # of connection points: 2
#     Edge 10, Type (0, 0), BuildingBlock: FUNLAD_clean_linker_0, # of connection points: 2
#     Edge 11, Type (0, 0), BuildingBlock: FUNLAD_clean_linker_0, # of connection points: 2
#     Edge 12, Type (0, 0), BuildingBlock: FUNLAD_clean_linker_0, # of connection points: 2
#     Edge 13, Type (0, 0), BuildingBlock: FUNLAD_clean_linker_0, # of connection points: 2
#     Edge 14, Type (0, 0), BuildingBlock: FUNLAD_clean_linker_0, # of connection points: 2
#     Edge 15, Type (0, 0), BuildingBlock: FUNLAD_clean_linker_0, # of connection points: 2
#     Edge 16, Type (0, 0), BuildingBlock: FUNLAD_clean_linker_0, # of connection points: 2
#     Edge 17, Type (0, 0), BuildingBlock: FUNLAD_clean_linker_0, # of connection points: 2
# Relax obj value: 0.052
# Max RMSD: 0.120
# Mean RMSD: 0.120
data_MOF--net-uog--node1-ICAMEG_clean_sbu_1--edge1-FUNLAD_clean_linker_0
_symmetry_space_group_name_H-M    P1
_symmetry_Int_Tables_number       1
_symmetry_cell_setting            triclinic
loop_
_symmetry_equiv_pos_as_xyz
'x, y, z'
_cell_length_a     34.901204
_cell_length_b     34.865973
_cell_length_c     52.595023
_cell_angle_alpha  90.023513
_cell_angle_beta   89.974369
_cell_angle_gamma 120.16129
loop_
_atom_site_label
_atom_site_type_symbol
_atom_site_fract_x
_atom_site_fract_y
_atom_site_fract_z
_atom_type_partial_charge
Co0 Co 0.62702 0.34162 0.16571 0.0
Co1 Co 0.51865 0.26809 0.18314 0.0
O2 O 0.57257 0.28386 0.16396 0.0
C3 C 0.60269 0.32829 0.11137 0.0
O4 O 0.56173 0.31396 0.11863 0.0
C5 C 0.54004 0.19899 0.19712 0.0
O6 O 0.58135 0.23071 0.20008 0.0
O7 O 0.55296 0.29084 0.21522 0.0
O8 O 0.62165 0.34321 0.20359 0.0
H9 H 0.42529 0.29426 0.24566 0.0
H10 H 0.62717 0.26672 0.13912 0.0
O11 O 0.63357 0.34118 0.1278 0.0
H12 H 0.73746 0.30945 0.20777 0.0
H13 H 0.78381 0.45339 0.14135 0.0
H14 H 0.6552 0.42523 0.19393 0.0
H15 H 0.69712 0.34995 0.20153 0.0
H16 H 0.71492 0.38067 0.14004 0.0
O17 O 0.51061 0.20825 0.19033 0.0
H18 H 0.49282 0.31412 0.22092 0.0
H19 H 0.42958 0.18659 0.1866 0.0
H20 H 0.72356 0.49832 0.19599 0.0
H21 H 0.66701 0.22552 0.14455 0.0
H22 H 0.78848 0.51275 0.16956 0.0
H23 H 0.7225 0.24675 0.17913 0.0
O24 O 0.59352 0.37355 0.16137 0.0
H25 H 0.47523 0.18115 0.10163 0.0
H26 H 0.44959 0.28029 0.15698 0.0
H27 H 0.40843 0.2539 0.11666 0.0
H28 H 0.42113 0.20393 0.08868 0.0
H29 H 0.51598 0.20864 0.14202 0.0
H30 H 0.36147 0.1652 0.21111 0.0
H31 H 0.35899 0.21931 0.24083 0.0
O32 O 0.52521 0.32727 0.17636 0.0
C33 C 0.59235 0.32135 0.22048 0.0
C34 C 0.42591 0.27044 0.23271 0.0
C35 C 0.39011 0.19799 0.21335 0.0
N36 N 0.46499 0.25168 0.20219 0.0
C37 C 0.464 0.28155 0.2186 0.0
C38 C 0.42879 0.21025 0.19955 0.0
C39 C 0.38874 0.22837 0.23001 0.0
C40 C 0.65158 0.27642 0.15406 0.0
N41 N 0.65994 0.31081 0.16991 0.0
C42 C 0.6739 0.25286 0.15711 0.0
C43 C 0.70499 0.26474 0.17654 0.0
C44 C 0.71337 0.2999 0.19262 0.0
C45 C 0.69035 0.32265 0.18903 0.0
C46 C 0.75578 0.44747 0.15299 0.0
C47 C 0.68343 0.4312 0.1825 0.0
C48 C 0.71667 0.40641 0.15229 0.0
N49 N 0.68124 0.39865 0.16705 0.0
C50 C 0.72199 0.47267 0.18368 0.0
C51 C 0.75838 0.48076 0.16883 0.0
C52 C 0.55442 0.36453 0.16731 0.0
C53 C 0.4693 0.20279 0.1137 0.0
C54 C 0.45539 0.25865 0.14489 0.0
C55 C 0.4319 0.24372 0.1221 0.0
C56 C 0.43901 0.21565 0.10642 0.0
N57 N 0.48505 0.24589 0.15189 0.0
C58 C 0.49213 0.2183 0.13665 0.0
Co59 Co 0.28288 0.61149 0.49339 0.0
Co60 Co 0.24995 0.50426 0.51208 0.0
O61 O 0.28825 0.55829 0.49299 0.0
C62 C 0.27716 0.58658 0.43939 0.0
O63 O 0.24972 0.54562 0.44648 0.0
C64 C 0.34002 0.52854 0.52864 0.0
O65 O 0.34801 0.56927 0.53183 0.0
O66 O 0.25896 0.53897 0.54376 0.0
O67 O 0.2731 0.60642 0.53102 0.0
H68 H 0.12768 0.4092 0.57297 0.0
H69 H 0.3614 0.61408 0.46987 0.0
O70 O 0.29309 0.61774 0.45575 0.0
H71 H 0.42087 0.7265 0.53796 0.0
H72 H 0.32523 0.76666 0.46702 0.0
H73 H 0.22334 0.63719 0.51885 0.0
H74 H 0.34053 0.68355 0.52961 0.0
H75 H 0.33159 0.69931 0.46748 0.0
O76 O 0.30231 0.49837 0.5208 0.0
H77 H 0.17559 0.47691 0.5483 0.0
H78 H 0.24463 0.4165 0.51705 0.0
H79 H 0.21602 0.704 0.51912 0.0
H80 H 0.44203 0.65654 0.47743 0.0
H81 H 0.26722 0.76934 0.49307 0.0
H82 H 0.47224 0.71313 0.51174 0.0
O83 O 0.21772 0.57588 0.48739 0.0
H84 H 0.30012 0.46225 0.43263 0.0
H85 H 0.17097 0.43287 0.48504 0.0
H86 H 0.15951 0.39142 0.44509 0.0
H87 H 0.2244 0.40601 0.41859 0.0
H88 H 0.31004 0.50324 0.4726 0.0
H89 H 0.19771 0.34826 0.54153 0.0
H90 H 0.13861 0.34426 0.56966 0.0
O91 O 0.19681 0.5087 0.50371 0.0
C92 C 0.26613 0.57798 0.54835 0.0
C93 C 0.15322 0.41048 0.56072 0.0
C94 C 0.19257 0.3763 0.54309 0.0
N95 N 0.21261 0.4505 0.53111 0.0
C96 C 0.18036 0.44868 0.54665 0.0
C97 C 0.21909 0.41505 0.52932 0.0
C98 C 0.1594 0.37407 0.55887 0.0
C99 C 0.37432 0.63892 0.48469 0.0
N100 N 0.34628 0.64642 0.49922 0.0
C101 C 0.41999 0.66275 0.48894 0.0
C102 C 0.43692 0.69444 0.50822 0.0
C103 C 0.40811 0.70194 0.52295 0.0
C104 C 0.36263 0.67743 0.51818 0.0
C105 C 0.30278 0.73844 0.47849 0.0
C106 C 0.2459 0.66561 0.50759 0.0
C107 C 0.30616 0.70019 0.47878 0.0
N108 N 0.27807 0.66452 0.49333 0.0
C109 C 0.24152 0.70329 0.50776 0.0
C110 C 0.27023 0.73992 0.49311 0.0
C111 C 0.18811 0.53655 0.49349 0.0
C112 C 0.2716 0.4555 0.44405 0.0
C113 C 0.19936 0.4395 0.47358 0.0
C114 C 0.19267 0.41584 0.45101 0.0
C115 C 0.2291 0.42401 0.43616 0.0
N116 N 0.24115 0.47037 0.48119 0.0
C117 C 0.27703 0.47847 0.46676 0.0
Co118 Co 0.66933 0.30218 0.8322 0.0
Co119 Co 0.73917 0.26511 0.853 0.0
O120 O 0.72605 0.30389 0.83268 0.0
C121 C 0.68739 0.28952 0.779 0.0
O122 O 0.69877 0.26139 0.78772 0.0
C123 C 0.80607 0.3561 0.86797 0.0
O124 O 0.77317 0.36394 0.87028 0.0
O125 O 0.71274 0.27554 0.88391 0.0
O126 O 0.66482 0.29649 0.87018 0.0
H127 H 0.70558 0.14262 0.91507 0.0
H128 H 0.74815 0.37549 0.80694 0.0
O129 O 0.67336 0.30826 0.79417 0.0
H130 H 0.70158 0.44767 0.87068 0.0
H131 H 0.5627 0.34949 0.80154 0.0
H132 H 0.58338 0.24921 0.85869 0.0
H133 H 0.65945 0.36646 0.86502 0.0
H134 H 0.63441 0.35165 0.80327 0.0
O135 O 0.79834 0.31749 0.86182 0.0
H136 H 0.68861 0.19107 0.88905 0.0
H137 H 0.82023 0.25837 0.86045 0.0
H138 H 0.51121 0.24617 0.85772 0.0
H139 H 0.79105 0.45682 0.8118 0.0
H140 H 0.50055 0.29657 0.82899 0.0
H141 H 0.76792 0.49342 0.84394 0.0
O142 O 0.63615 0.23632 0.82868 0.0
H143 H 0.83487 0.31037 0.77479 0.0
H144 H 0.72941 0.18423 0.82753 0.0
H145 H 0.76003 0.17013 0.78868 0.0
H146 H 0.81321 0.2335 0.76203 0.0
H147 H 0.80313 0.32295 0.81364 0.0
H148 H 0.83875 0.21087 0.8863 0.0
H149 H 0.78114 0.15239 0.91379 0.0
O150 O 0.68046 0.21252 0.84441 0.0
C151 C 0.68343 0.28654 0.88786 0.0
C152 C 0.73094 0.16792 0.90312 0.0
C153 C 0.8057 0.20626 0.887 0.0
N154 N 0.75332 0.22733 0.87316 0.0
C155 C 0.7215 0.19538 0.88831 0.0
C156 C 0.79506 0.23313 0.87246 0.0
C157 C 0.77335 0.17344 0.90241 0.0
C158 C 0.73765 0.3912 0.82081 0.0
N159 N 0.70132 0.36625 0.83568 0.0
C160 C 0.76217 0.43726 0.82354 0.0
C161 C 0.74921 0.45777 0.8416 0.0
C162 C 0.71202 0.43211 0.85663 0.0
C163 C 0.68837 0.38613 0.8534 0.0
C164 C 0.56697 0.32742 0.81418 0.0
C165 C 0.57906 0.27145 0.84627 0.0
C166 C 0.60746 0.32843 0.8152 0.0
N167 N 0.61314 0.30083 0.83122 0.0
C168 C 0.53809 0.26948 0.84574 0.0
C169 C 0.53212 0.29774 0.82959 0.0
C170 C 0.64381 0.20541 0.83491 0.0
C171 C 0.81187 0.2825 0.7863 0.0
C172 C 0.75246 0.21196 0.81601 0.0
C173 C 0.76976 0.20379 0.79406 0.0
C174 C 0.79963 0.23936 0.77912 0.0
N175 N 0.76464 0.25438 0.82292 0.0
C176 C 0.79393 0.28943 0.80838 0.0
Co177 Co 0.35955 0.66752 0.16112 0.0
Co178 Co 0.46862 0.73607 0.17937 0.0
O179 O 0.41629 0.72292 0.15933 0.0
C180 C 0.38538 0.67598 0.10697 0.0
O181 O 0.42515 0.68584 0.11453 0.0
C182 C 0.45167 0.80863 0.19178 0.0
O183 O 0.40995 0.77819 0.19506 0.0
O184 O 0.43304 0.7154 0.21126 0.0
O185 O 0.36289 0.6677 0.19907 0.0
H186 H 0.55556 0.70433 0.24365 0.0
H187 H 0.36812 0.74516 0.133 0.0
O188 O 0.35492 0.66694 0.1232 0.0
H189 H 0.25266 0.71014 0.19759 0.0
H190 H 0.2018 0.56223 0.13505 0.0
H191 H 0.32472 0.58464 0.19103 0.0
H192 H 0.28812 0.66448 0.19374 0.0
H193 H 0.27341 0.63233 0.13378 0.0
O194 O 0.47998 0.79747 0.18559 0.0
H195 H 0.48972 0.68764 0.21809 0.0
H196 H 0.55965 0.81457 0.18331 0.0
H197 H 0.25352 0.51414 0.19308 0.0
H198 H 0.33324 0.79145 0.13598 0.0
H199 H 0.19147 0.50262 0.16494 0.0
H200 H 0.27521 0.77415 0.16855 0.0
O201 O 0.38932 0.63143 0.15884 0.0
H202 H 0.51804 0.81981 0.09692 0.0
H203 H 0.53538 0.7184 0.15488 0.0
H204 H 0.57778 0.74141 0.1148 0.0
H205 H 0.56923 0.79248 0.0855 0.0
H206 H 0.47604 0.79571 0.13711 0.0
H207 H 0.62617 0.83278 0.20863 0.0
H208 H 0.62443 0.77737 0.23899 0.0
O209 O 0.45842 0.6754 0.17349 0.0
C210 C 0.3924 0.68789 0.21609 0.0
C211 C 0.55677 0.72871 0.23044 0.0
C212 C 0.59638 0.80083 0.21081 0.0
N213 N 0.52093 0.74999 0.19914 0.0
C214 C 0.51962 0.71941 0.21588 0.0
C215 C 0.55858 0.79037 0.19657 0.0
C216 C 0.59538 0.76971 0.22783 0.0
C217 C 0.34269 0.73726 0.14711 0.0
N218 N 0.33031 0.70228 0.16327 0.0
C219 C 0.32314 0.76365 0.14875 0.0
C220 C 0.29062 0.75396 0.16705 0.0
C221 C 0.278 0.71809 0.18337 0.0
C222 C 0.29833 0.69248 0.18119 0.0
C223 C 0.22857 0.56689 0.14744 0.0
C224 C 0.29775 0.57995 0.17885 0.0
C225 C 0.26922 0.60646 0.14676 0.0
N226 N 0.30307 0.61265 0.16246 0.0
C227 C 0.25757 0.53993 0.18004 0.0
C228 C 0.22279 0.53346 0.16422 0.0
C229 C 0.42763 0.63836 0.16511 0.0
C230 C 0.52215 0.79766 0.10957 0.0
C231 C 0.53145 0.7406 0.14222 0.0
C232 C 0.5556 0.75358 0.11958 0.0
C233 C 0.55082 0.78226 0.10315 0.0
N234 N 0.50341 0.75587 0.14839 0.0
C235 C 0.4986 0.78405 0.1324 0.0
Co236 Co 0.70511 0.38012 0.49773 0.0
Co237 Co 0.74259 0.4858 0.52141 0.0
O238 O 0.70361 0.43532 0.49991 0.0
C239 C 0.71948 0.41339 0.44476 0.0
O240 O 0.74819 0.45266 0.45375 0.0
C241 C 0.65276 0.46143 0.53816 0.0
O242 O 0.6438 0.42008 0.53866 0.0
O243 O 0.73188 0.44648 0.55125 0.0
O244 O 0.70982 0.37834 0.53563 0.0
H245 H 0.86493 0.56923 0.58455 0.0
H246 H 0.63261 0.38816 0.47372 0.0
O247 O 0.69949 0.38049 0.4598 0.0
H248 H 0.55876 0.26285 0.53354 0.0
H249 H 0.65803 0.22804 0.46316 0.0
H250 H 0.75751 0.34537 0.52271 0.0
H251 H 0.63998 0.30241 0.52829 0.0
H252 H 0.65589 0.29747 0.4669 0.0
O253 O 0.6911 0.49231 0.53168 0.0
H254 H 0.81604 0.50585 0.55712 0.0
H255 H 0.75063 0.57369 0.53161 0.0
H256 H 0.76051 0.27627 0.51974 0.0
H257 H 0.55127 0.34928 0.47816 0.0
H258 H 0.71051 0.21704 0.48979 0.0
H259 H 0.51383 0.28627 0.50833 0.0
O260 O 0.77108 0.41322 0.49433 0.0
H261 H 0.69729 0.54158 0.4457 0.0
H262 H 0.82343 0.5593 0.49699 0.0
H263 H 0.83742 0.60673 0.45935 0.0
H264 H 0.77406 0.59803 0.43342 0.0
H265 H 0.68483 0.49461 0.48337 0.0
H266 H 0.79858 0.63768 0.55891 0.0
H267 H 0.85633 0.63575 0.58556 0.0
O268 O 0.79448 0.48038 0.51154 0.0
C269 C 0.71977 0.40559 0.55407 0.0
C270 C 0.83997 0.57052 0.57297 0.0
C271 C 0.80269 0.60891 0.55861 0.0
N272 N 0.78075 0.53621 0.54267 0.0
C273 C 0.81228 0.53479 0.55736 0.0
C274 C 0.77558 0.57255 0.54324 0.0
C275 C 0.8351 0.60781 0.57355 0.0
C276 C 0.61653 0.36059 0.48678 0.0
N277 N 0.64103 0.3477 0.50085 0.0
C278 C 0.57047 0.33878 0.48925 0.0
C279 C 0.5495 0.30346 0.50621 0.0
C280 C 0.57468 0.29034 0.52038 0.0
C281 C 0.62068 0.31299 0.51743 0.0
C282 C 0.67993 0.25357 0.47632 0.0
C283 C 0.73546 0.31959 0.50976 0.0
C284 C 0.67895 0.293 0.47847 0.0
N285 N 0.70633 0.32526 0.49515 0.0
C286 C 0.73739 0.28061 0.5081 0.0
C287 C 0.70937 0.24741 0.49127 0.0
C288 C 0.80176 0.45181 0.50095 0.0
C289 C 0.72516 0.54577 0.45688 0.0
C290 C 0.7957 0.55526 0.48578 0.0
C291 C 0.80381 0.58227 0.46452 0.0
C292 C 0.76825 0.57739 0.44999 0.0
N293 N 0.75334 0.52433 0.49243 0.0
C294 C 0.7183 0.51939 0.47829 0.0
Co295 Co 0.34146 0.70771 0.82217 0.0
Co296 Co 0.26911 0.74014 0.84468 0.0
O297 O 0.28395 0.70422 0.82293 0.0
C298 C 0.32458 0.72275 0.76923 0.0
O299 O 0.31484 0.75192 0.77829 0.0
C300 C 0.20272 0.64774 0.85699 0.0
O301 O 0.23616 0.64069 0.8591 0.0
O302 O 0.294 0.72635 0.87504 0.0
O303 O 0.34626 0.71256 0.86007 0.0
H304 H 0.2975 0.85392 0.91185 0.0
H305 H 0.26436 0.63366 0.7961 0.0
O306 O 0.33723 0.70255 0.7842 0.0
H307 H 0.3127 0.56264 0.85953 0.0
H308 H 0.45077 0.66481 0.79027 0.0
H309 H 0.42731 0.76196 0.84856 0.0
H310 H 0.35274 0.64401 0.85472 0.0
H311 H 0.37815 0.66067 0.79244 0.0
O312 O 0.2098 0.68641 0.8516 0.0
H313 H 0.31671 0.80925 0.88387 0.0
H314 H 0.18723 0.74534 0.85227 0.0
H315 H 0.50035 0.76698 0.84715 0.0
H316 H 0.22357 0.55217 0.80014 0.0
H317 H 0.51242 0.71814 0.81784 0.0
H318 H 0.2476 0.51614 0.83211 0.0
O319 O 0.37289 0.77356 0.8194 0.0
H320 H 0.17871 0.70328 0.76466 0.0
H321 H 0.27917 0.82342 0.82246 0.0
H322 H 0.2508 0.84158 0.7841 0.0
H323 H 0.20019 0.78125 0.7549 0.0
H324 H 0.20808 0.68664 0.80315 0.0
H325 H 0.16647 0.78907 0.88004 0.0
H326 H 0.22189 0.84394 0.91002 0.0
O327 O 0.32805 0.79416 0.83809 0.0
C328 C 0.32544 0.71819 0.87832 0.0
C329 C 0.27311 0.83023 0.8988 0.0
C330 C 0.19955 0.79378 0.88097 0.0
N331 N 0.25324 0.77503 0.86632 0.0
C332 C 0.28384 0.80495 0.88286 0.0
C333 C 0.21146 0.76906 0.86533 0.0
C334 C 0.23066 0.82458 0.89778 0.0
C335 C 0.27531 0.61822 0.80987 0.0
N336 N 0.31103 0.64358 0.82507 0.0
C337 C 0.25196 0.57206 0.81215 0.0
C338 C 0.26542 0.55188 0.83011 0.0
C339 C 0.30193 0.57795 0.84552 0.0
C340 C 0.32442 0.62402 0.84274 0.0
C341 C 0.44589 0.6862 0.80315 0.0
C342 C 0.43225 0.74043 0.83587 0.0
C343 C 0.40489 0.68407 0.80442 0.0
N344 N 0.39845 0.71081 0.82076 0.0
C345 C 0.47371 0.7435 0.8351 0.0
C346 C 0.48047 0.71612 0.81863 0.0
C347 C 0.36467 0.80314 0.82764 0.0
C348 C 0.20062 0.72984 0.77729 0.0
C349 C 0.25718 0.79699 0.80984 0.0
C350 C 0.24117 0.80747 0.78817 0.0
C351 C 0.21275 0.7736 0.7718 0.0
N352 N 0.24511 0.75398 0.8151 0.0
C353 C 0.2172 0.72059 0.79917 0.0
C354 C 0.55946 0.13941 0.20316 0.0
C355 C 0.52723 0.15207 0.20097 0.0
C356 C 0.54682 0.09462 0.20564 0.0
C357 C 0.50164 0.06173 0.20603 0.0
C358 C 0.4696 0.07465 0.2047 0.0
C359 C 0.48218 0.11925 0.202 0.0
C360 C 0.48647 0.01369 0.20773 0.0
C361 C 0.50983 0.99582 0.19822 0.0
C362 C 0.49369 0.94739 0.19784 0.0
C363 C 0.52464 0.93354 0.19383 0.0
C364 C 0.51104 0.88852 0.19218 0.0
C365 C 0.46598 0.85618 0.1944 0.0
H366 H 0.4232 0.92392 0.20233 0.0
C367 C 0.43487 0.86985 0.19846 0.0
C368 C 0.44849 0.91496 0.20006 0.0
H369 H 0.39986 0.84576 0.19996 0.0
H370 H 0.59443 0.16398 0.2026 0.0
H371 H 0.57248 0.08603 0.20742 0.0
H372 H 0.43462 0.05005 0.2052 0.0
H373 H 0.45649 0.12792 0.20062 0.0
H374 H 0.45401 0.99252 0.21597 0.0
H375 H 0.54216 0.01742 0.18987 0.0
H376 H 0.55958 0.95767 0.19184 0.0
H377 H 0.53591 0.87915 0.18899 0.0
C378 C 0.41847 0.55032 0.53912 0.0
C379 C 0.37491 0.51728 0.53334 0.0
C380 C 0.4516 0.53937 0.54239 0.0
C381 C 0.4416 0.49498 0.54009 0.0
C382 C 0.39792 0.46209 0.5346 0.0
C383 C 0.36495 0.47301 0.53132 0.0
C384 C 0.47577 0.48162 0.54157 0.0
C385 C 0.51621 0.50664 0.55188 0.0
C386 C 0.55077 0.49388 0.55048 0.0
C387 C 0.59527 0.52748 0.54879 0.0
C388 C 0.62849 0.51688 0.54527 0.0
C389 C 0.61787 0.47233 0.54372 0.0
H390 H 0.50646 0.42246 0.55223 0.0
C391 C 0.57355 0.43861 0.54666 0.0
C392 C 0.54028 0.44926 0.55005 0.0
H393 H 0.5644 0.40399 0.54582 0.0
H394 H 0.42722 0.58478 0.5406 0.0
H395 H 0.48498 0.56603 0.5459 0.0
H396 H 0.38928 0.42772 0.53258 0.0
H397 H 0.33169 0.44666 0.52691 0.0
H398 H 0.46726 0.44993 0.53305 0.0
H399 H 0.52564 0.5387 0.56013 0.0
H400 H 0.60425 0.56208 0.54935 0.0
H401 H 0.66242 0.54367 0.54336 0.0
C402 C 0.86199 0.43686 0.87301 0.0
C403 C 0.85241 0.39277 0.8706 0.0
C404 C 0.9059 0.47167 0.87396 0.0
C405 C 0.94127 0.46334 0.87244 0.0
C406 C 0.93157 0.41899 0.87083 0.0
C407 C 0.88767 0.38421 0.86978 0.0
C408 C 0.98745 0.5018 0.87261 0.0
C409 C 0.02308 0.49974 0.86453 0.0
C410 C 0.0688 0.53868 0.86369 0.0
C411 C 0.10481 0.53129 0.86409 0.0
C412 C 0.14829 0.56672 0.86233 0.0
C413 C 0.15674 0.61042 0.85981 0.0
H414 H 0.0505 0.58959 0.85997 0.0
C415 C 0.12075 0.61792 0.8593 0.0
C416 C 0.07725 0.58248 0.86119 0.0
H417 H 0.12611 0.65116 0.85717 0.0
H418 H 0.83561 0.44464 0.8737 0.0
H419 H 0.91223 0.50537 0.87544 0.0
H420 H 0.95747 0.41062 0.87052 0.0
H421 H 0.88142 0.35056 0.8682 0.0
H422 H 0.99181 0.53329 0.87913 0.0
H423 H 0.01923 0.46842 0.85817 0.0
H424 H 0.09929 0.49791 0.86574 0.0
H425 H 0.17521 0.55971 0.86259 0.0
C426 C 0.12809 0.55117 0.47872 0.0
C427 C 0.14087 0.52197 0.48884 0.0
C428 C 0.08321 0.53745 0.47553 0.0
C429 C 0.05023 0.4943 0.48258 0.0
C430 C 0.06313 0.46475 0.49175 0.0
C431 C 0.10782 0.47841 0.49497 0.0
C432 C 0.00215 0.47905 0.48145 0.0
C433 C 0.98616 0.5069 0.48349 0.0
C434 C 0.93835 0.49172 0.48674 0.0
C435 C 0.9269 0.5206 0.49855 0.0
C436 C 0.88268 0.50749 0.50315 0.0
C437 C 0.84856 0.46513 0.49583 0.0
H438 H 0.91165 0.4268 0.46903 0.0
C439 C 0.85985 0.4364 0.48347 0.0
C440 C 0.90431 0.44959 0.47888 0.0
H441 H 0.8344 0.40375 0.47731 0.0
H442 H 0.15266 0.58477 0.47351 0.0
H443 H 0.07464 0.56077 0.46758 0.0
H444 H 0.0385 0.43125 0.49713 0.0
H445 H 0.11627 0.4548 0.50267 0.0
H446 H 0.97944 0.44349 0.48174 0.0
H447 H 0.00913 0.54224 0.48546 0.0
H448 H 0.95233 0.55329 0.50469 0.0
H449 H 0.87544 0.53071 0.51262 0.0
C450 C 0.39255 0.88428 0.83451 0.0
C451 C 0.39984 0.85046 0.82552 0.0
C452 C 0.4263 0.92871 0.83364 0.0
C453 C 0.4682 0.94048 0.82358 0.0
C454 C 0.47537 0.90672 0.81449 0.0
C455 C 0.44163 0.86229 0.81534 0.0
C456 C 0.50591 0.98703 0.82364 0.0
C457 C 0.50102 0.02298 0.8251 0.0
C458 C 0.53891 0.06934 0.8266 0.0
C459 C 0.532 0.10441 0.81993 0.0
C460 C 0.56614 0.14851 0.82219 0.0
C461 C 0.60803 0.15864 0.83141 0.0
H462 H 0.58733 0.05365 0.84194 0.0
C463 C 0.61496 0.1235 0.83807 0.0
C464 C 0.58085 0.07944 0.83578 0.0
H465 H 0.64661 0.12992 0.84546 0.0
H466 H 0.36095 0.87648 0.84268 0.0
H467 H 0.41961 0.95336 0.84158 0.0
H468 H 0.50738 0.9147 0.80684 0.0
H469 H 0.44862 0.83721 0.80833 0.0
H470 H 0.53891 0.99157 0.82179 0.0
H471 H 0.46801 0.01871 0.82455 0.0
H472 H 0.49996 0.09769 0.81303 0.0
H473 H 0.55943 0.17463 0.817 0.0
C474 C 0.47918 0.6087 0.1703 0.0
C475 C 0.4376 0.60192 0.16263 0.0
C476 C 0.48908 0.57475 0.16843 0.0
C477 C 0.4578 0.53309 0.15857 0.0
C478 C 0.41611 0.52608 0.15107 0.0
C479 C 0.40611 0.56016 0.15298 0.0
C480 C 0.46678 0.49571 0.15739 0.0
C481 C 0.50807 0.50166 0.15657 0.0
C482 C 0.51805 0.46498 0.15809 0.0
C483 C 0.56027 0.4733 0.15076 0.0
C484 C 0.57208 0.44068 0.15345 0.0
C485 C 0.54189 0.39896 0.16368 0.0
H486 H 0.45546 0.41564 0.17495 0.0
C487 C 0.49953 0.39057 0.17091 0.0
C488 C 0.4878 0.42317 0.16826 0.0
H489 H 0.47546 0.35896 0.17905 0.0
H490 H 0.50418 0.64019 0.17811 0.0
H491 H 0.52092 0.58119 0.1754 0.0
H492 H 0.39117 0.49411 0.14374 0.0
H493 H 0.37368 0.55368 0.14702 0.0
H494 H 0.43826 0.46243 0.15691 0.0
H495 H 0.53622 0.53496 0.15454 0.0
H496 H 0.58443 0.50535 0.14312 0.0
H497 H 0.60502 0.44838 0.14773 0.0
C498 C 0.65723 0.31812 0.92203 0.0
C499 C 0.67036 0.28776 0.91446 0.0
C500 C 0.64546 0.3195 0.94732 0.0
C501 C 0.64569 0.28987 0.96535 0.0
C502 C 0.65784 0.25892 0.95767 0.0
C503 C 0.67077 0.25833 0.93257 0.0
C504 C 0.63227 0.28983 0.9921 0.0
C505 C 0.64479 0.32752 0.00513 0.0
C506 C 0.63332 0.32735 0.03229 0.0
C507 C 0.66518 0.35841 0.04895 0.0
C508 C 0.65536 0.35847 0.07473 0.0
C509 C 0.61296 0.32838 0.08412 0.0
H510 H 0.56543 0.27337 0.0291 0.0
C511 C 0.58066 0.29803 0.0673 0.0
C512 C 0.59087 0.29719 0.04165 0.0
H513 H 0.54772 0.27444 0.07406 0.0
H514 H 0.65661 0.3412 0.90852 0.0
H515 H 0.63547 0.34322 0.95264 0.0
H516 H 0.65796 0.23556 0.97121 0.0
H517 H 0.6804 0.23435 0.92725 0.0
H518 H 0.61437 0.2581 0.00184 0.0
H519 H 0.66676 0.35932 0.99623 0.0
H520 H 0.698 0.38214 0.0421 0.0
H521 H 0.6808 0.38239 0.08726 0.0
C522 C 0.406 0.67778 0.26168 0.0
C523 C 0.37826 0.67952 0.24293 0.0
C524 C 0.39184 0.66874 0.287 0.0
C525 C 0.35012 0.66233 0.294 0.0
C526 C 0.32301 0.66528 0.27538 0.0
C527 C 0.33663 0.6731 0.25002 0.0
C528 C 0.33462 0.65379 0.32069 0.0
C529 C 0.34064 0.62626 0.33589 0.0
C530 C 0.32338 0.61635 0.36226 0.0
C531 C 0.30655 0.57333 0.37194 0.0
C532 C 0.29034 0.56329 0.39682 0.0
C533 C 0.29188 0.59647 0.41268 0.0
H534 H 0.33822 0.68317 0.37126 0.0
C535 C 0.30929 0.63969 0.40309 0.0
C536 C 0.32458 0.64948 0.37805 0.0
H537 H 0.31109 0.66597 0.41494 0.0
H538 H 0.43831 0.68274 0.25671 0.0
H539 H 0.41375 0.66747 0.30112 0.0
H540 H 0.29093 0.66086 0.28041 0.0
H541 H 0.31486 0.67487 0.23605 0.0
H542 H 0.31493 0.66798 0.32738 0.0
H543 H 0.35614 0.60833 0.32829 0.0
H544 H 0.30559 0.54737 0.36016 0.0
H545 H 0.27756 0.5298 0.40381 0.0
C546 C 0.66955 0.31904 0.74017 0.0
C547 C 0.69435 0.30238 0.7519 0.0
C548 C 0.67744 0.33287 0.71479 0.0
C549 C 0.71095 0.33115 0.70086 0.0
C550 C 0.73602 0.31494 0.71267 0.0
C551 C 0.72735 0.30001 0.73784 0.0
C552 C 0.72148 0.34785 0.67439 0.0
C553 C 0.68972 0.3401 0.65732 0.0
C554 C 0.69986 0.35658 0.6308 0.0
C555 C 0.67272 0.32961 0.61105 0.0
C556 C 0.68029 0.34501 0.58599 0.0
C557 C 0.7143 0.38826 0.58029 0.0
H558 H 0.75551 0.42137 0.64006 0.0
C559 C 0.74139 0.41542 0.6001 0.0
C560 C 0.73456 0.39955 0.62511 0.0
H561 H 0.76774 0.44897 0.59627 0.0
H562 H 0.64406 0.32142 0.75063 0.0
H563 H 0.65814 0.346 0.7063 0.0
H564 H 0.76221 0.31362 0.70235 0.0
H565 H 0.7473 0.28776 0.74648 0.0
H566 H 0.756 0.36486 0.66847 0.0
H567 H 0.6551 0.31909 0.66253 0.0
H568 H 0.64557 0.29652 0.61502 0.0
H569 H 0.65851 0.32351 0.57125 0.0
C570 C 0.31756 0.72217 0.92553 0.0
C571 C 0.33801 0.71431 0.90473 0.0
C572 C 0.32892 0.71796 0.95042 0.0
C573 C 0.36075 0.70529 0.95514 0.0
C574 C 0.38185 0.69838 0.93438 0.0
C575 C 0.37057 0.70269 0.90947 0.0
C576 C 0.37352 0.7001 0.98137 0.0
C577 C 0.34633 0.69048 1.00154 0.0
C578 C 0.35786 0.68532 0.0281 0.0
C579 C 0.32355 0.66655 0.04611 0.0
C580 C 0.33247 0.66279 0.07155 0.0
C581 C 0.37608 0.67776 0.07969 0.0
H582 H 0.4293 0.71568 0.02322 0.0
C583 C 0.41053 0.69608 0.06172 0.0
C584 C 0.40161 0.70005 0.0362 0.0
H585 H 0.44455 0.70834 0.06746 0.0
H586 H 0.29282 0.73182 0.92265 0.0
H587 H 0.31309 0.72534 0.96581 0.0
H588 H 0.40686 0.68914 0.93743 0.0
H589 H 0.38732 0.6967 0.89395 0.0
H590 H 0.40545 0.70232 0.98367 0.0
H591 H 0.31306 0.68465 0.9985 0.0
H592 H 0.28958 0.65504 0.04054 0.0
H593 H 0.3051 0.64848 0.08487 0.0
C594 C 0.68089 0.36452 0.40739 0.0
C595 C 0.70925 0.40715 0.41721 0.0
C596 C 0.67042 0.35837 0.38152 0.0
C597 C 0.68768 0.39484 0.36481 0.0
C598 C 0.71666 0.43734 0.37456 0.0
C599 C 0.72724 0.4435 0.40048 0.0
C600 C 0.67723 0.38966 0.3371 0.0
C601 C 0.64035 0.35496 0.32727 0.0
C602 C 0.62915 0.34859 0.29966 0.0
C603 C 0.5855 0.31765 0.29255 0.0
C604 C 0.57349 0.30916 0.26695 0.0
C605 C 0.60496 0.33132 0.24768 0.0
H606 H 0.695 0.39413 0.28485 0.0
C607 C 0.64869 0.36247 0.25473 0.0
C608 C 0.66074 0.37088 0.28039 0.0
H609 H 0.67392 0.38006 0.24044 0.0
H610 H 0.66683 0.33569 0.41968 0.0
H611 H 0.64935 0.32485 0.37476 0.0
H612 H 0.73086 0.46599 0.36213 0.0
H613 H 0.74927 0.47678 0.4074 0.0
H614 H 0.69988 0.4164 0.32474 0.0
H615 H 0.61602 0.33039 0.34008 0.0
H616 H 0.56046 0.29975 0.3069 0.0
H617 H 0.53948 0.28497 0.26232 0.0
C618 C 0.33028 0.68119 0.73198 0.0
C619 C 0.31815 0.71102 0.74191 0.0
C620 C 0.32251 0.66844 0.70646 0.0
C621 C 0.30192 0.68489 0.6903 0.0
C622 C 0.2908 0.71553 0.70009 0.0
C623 C 0.29866 0.72836 0.72564 0.0
C624 C 0.29275 0.67185 0.66305 0.0
C625 C 0.28766 0.63338 0.65391 0.0
C626 C 0.2797 0.61985 0.62666 0.0
C627 C 0.26651 0.57572 0.62046 0.0
C628 C 0.26108 0.56184 0.59513 0.0
C629 C 0.26881 0.59186 0.57528 0.0
H630 H 0.29796 0.68434 0.61044 0.0
C631 C 0.28118 0.63587 0.58145 0.0
C632 C 0.28685 0.64981 0.60679 0.0
H633 H 0.28749 0.65999 0.56669 0.0
H634 H 0.3458 0.66755 0.74393 0.0
H635 H 0.33323 0.64615 0.69952 0.0
H636 H 0.27541 0.72916 0.68803 0.0
H637 H 0.28893 0.75144 0.73267 0.0
H638 H 0.28839 0.69408 0.65055 0.0
H639 H 0.28834 0.60976 0.66709 0.0
H640 H 0.26087 0.55187 0.63529 0.0
H641 H 0.25144 0.52766 0.59116 0.0
loop_
_geom_bond_atom_site_label_1
_geom_bond_atom_site_label_2
_geom_bond_distance
_geom_bond_site_symmetry_2
_ccdc_geom_bond_type
Co0 O2 2.143 . S
Co0 O8 2.074 . S
Co0 O11 2.093 . S
Co0 O24 2.097 . S
Co0 N41 2.151 . S
Co0 N49 2.214 . S
Co1 O2 2.160 . S
Co1 O7 2.058 . S
Co1 O17 2.057 . S
Co1 O32 2.037 . S
Co1 N36 2.145 . S
Co1 N57 2.257 . S
O2 Co0 2.143 . S
O2 Co1 2.160 . S
C3 O4 1.278 . S
C3 O11 1.224 . S
O4 C3 1.278 . S
C5 O6 1.245 . S
C5 O17 1.232 . S
O6 C5 1.245 . S
O7 Co1 2.058 . S
O7 C33 1.269 . S
O8 Co0 2.074 . S
O8 C33 1.257 . S
H9 C34 0.930 . S
H10 C40 0.930 . S
O11 Co0 2.093 . S
O11 C3 1.224 . S
H12 C44 0.929 . S
H13 C46 0.930 . S
H14 C47 0.930 . S
H15 C45 0.929 . S
H16 C48 0.928 . S
O17 Co1 2.057 . S
O17 C5 1.232 . S
H18 C37 0.929 . S
H19 C38 0.929 . S
H20 C50 0.931 . S
H21 C42 0.929 . S
H22 C51 0.930 . S
H23 C43 0.931 . S
O24 Co0 2.097 . S
O24 C52 1.214 . S
H25 C53 0.929 . S
H26 C54 0.929 . S
H27 C55 0.930 . S
H28 C56 0.929 . S
H29 C58 0.930 . S
H30 C35 0.930 . S
H31 C39 0.930 . S
O32 Co1 2.037 . S
O32 C52 1.234 . S
C33 O7 1.269 . S
C33 O8 1.257 . S
C34 H9 0.930 . S
C34 C37 1.388 . S
C34 C39 1.418 . S
C35 H30 0.930 . S
C35 C38 1.404 . S
C35 C39 1.353 . S
N36 Co1 2.145 . S
N36 C37 1.397 . S
N36 C38 1.334 . S
C37 H18 0.929 . S
C37 C34 1.388 . S
C37 N36 1.397 . S
C38 H19 0.929 . S
C38 C35 1.404 . S
C38 N36 1.334 . S
C39 H31 0.930 . S
C39 C34 1.418 . S
C39 C35 1.353 . S
C40 H10 0.930 . S
C40 N41 1.330 . S
C40 C42 1.446 . S
N41 Co0 2.151 . S
N41 C40 1.330 . S
N41 C45 1.418 . S
C42 H21 0.929 . S
C42 C40 1.446 . S
C42 C43 1.332 . S
C43 H23 0.931 . S
C43 C42 1.332 . S
C43 C44 1.267 . S
C44 H12 0.929 . S
C44 C43 1.267 . S
C44 C45 1.251 . S
C45 H15 0.929 . S
C45 N41 1.418 . S
C45 C44 1.251 . S
C46 H13 0.930 . S
C46 C48 1.406 . S
C46 C51 1.261 . S
C47 H14 0.930 . S
C47 N49 1.325 . S
C47 C50 1.357 . S
C48 H16 0.928 . S
C48 C46 1.406 . S
C48 N49 1.261 . S
N49 Co0 2.214 . S
N49 C47 1.325 . S
N49 C48 1.261 . S
C50 H20 0.931 . S
C50 C47 1.357 . S
C50 C51 1.312 . S
C51 H22 0.930 . S
C51 C46 1.261 . S
C51 C50 1.312 . S
C52 O24 1.214 . S
C52 O32 1.234 . S
C53 H25 0.929 . S
C53 C56 1.391 . S
C53 C58 1.391 . S
C54 H26 0.929 . S
C54 C55 1.390 . S
C54 N57 1.391 . S
C55 H27 0.930 . S
C55 C54 1.390 . S
C55 C56 1.392 . S
C56 H28 0.929 . S
C56 C53 1.391 . S
C56 C55 1.392 . S
N57 Co1 2.257 . S
N57 C54 1.391 . S
N57 C58 1.388 . S
C58 H29 0.930 . S
C58 C53 1.391 . S
C58 N57 1.388 . S
Co59 O61 2.143 . S
Co59 O67 2.074 . S
Co59 O70 2.093 . S
Co59 O83 2.097 . S
Co59 N100 2.151 . S
Co59 N108 2.214 . S
Co60 O61 2.160 . S
Co60 O66 2.058 . S
Co60 O76 2.057 . S
Co60 O91 2.037 . S
Co60 N95 2.145 . S
Co60 N116 2.257 . S
O61 Co59 2.143 . S
O61 Co60 2.160 . S
C62 O63 1.278 . S
C62 O70 1.224 . S
O63 C62 1.278 . S
C64 O65 1.245 . S
C64 O76 1.232 . S
O65 C64 1.245 . S
O66 Co60 2.058 . S
O66 C92 1.269 . S
O67 Co59 2.074 . S
O67 C92 1.257 . S
H68 C93 0.930 . S
H69 C99 0.930 . S
O70 Co59 2.093 . S
O70 C62 1.224 . S
H71 C103 0.929 . S
H72 C105 0.930 . S
H73 C106 0.930 . S
H74 C104 0.929 . S
H75 C107 0.928 . S
O76 Co60 2.057 . S
O76 C64 1.232 . S
H77 C96 0.929 . S
H78 C97 0.929 . S
H79 C109 0.931 . S
H80 C101 0.929 . S
H81 C110 0.930 . S
H82 C102 0.931 . S
O83 Co59 2.097 . S
O83 C111 1.214 . S
H84 C112 0.929 . S
H85 C113 0.929 . S
H86 C114 0.930 . S
H87 C115 0.929 . S
H88 C117 0.930 . S
H89 C94 0.930 . S
H90 C98 0.930 . S
O91 Co60 2.037 . S
O91 C111 1.234 . S
C92 O66 1.269 . S
C92 O67 1.257 . S
C93 H68 0.930 . S
C93 C96 1.388 . S
C93 C98 1.418 . S
C94 H89 0.930 . S
C94 C97 1.404 . S
C94 C98 1.353 . S
N95 Co60 2.145 . S
N95 C96 1.397 . S
N95 C97 1.334 . S
C96 H77 0.929 . S
C96 C93 1.388 . S
C96 N95 1.397 . S
C97 H78 0.929 . S
C97 C94 1.404 . S
C97 N95 1.334 . S
C98 H90 0.930 . S
C98 C93 1.418 . S
C98 C94 1.353 . S
C99 H69 0.930 . S
C99 N100 1.330 . S
C99 C101 1.446 . S
N100 Co59 2.151 . S
N100 C99 1.330 . S
N100 C104 1.418 . S
C101 H80 0.929 . S
C101 C99 1.446 . S
C101 C102 1.332 . S
C102 H82 0.931 . S
C102 C101 1.332 . S
C102 C103 1.267 . S
C103 H71 0.929 . S
C103 C102 1.267 . S
C103 C104 1.251 . S
C104 H74 0.929 . S
C104 N100 1.418 . S
C104 C103 1.251 . S
C105 H72 0.930 . S
C105 C107 1.406 . S
C105 C110 1.261 . S
C106 H73 0.930 . S
C106 N108 1.325 . S
C106 C109 1.357 . S
C107 H75 0.928 . S
C107 C105 1.406 . S
C107 N108 1.261 . S
N108 Co59 2.214 . S
N108 C106 1.325 . S
N108 C107 1.261 . S
C109 H79 0.931 . S
C109 C106 1.357 . S
C109 C110 1.312 . S
C110 H81 0.930 . S
C110 C105 1.261 . S
C110 C109 1.312 . S
C111 O83 1.214 . S
C111 O91 1.234 . S
C112 H84 0.929 . S
C112 C115 1.391 . S
C112 C117 1.391 . S
C113 H85 0.929 . S
C113 C114 1.390 . S
C113 N116 1.391 . S
C114 H86 0.930 . S
C114 C113 1.390 . S
C114 C115 1.392 . S
C115 H87 0.929 . S
C115 C112 1.391 . S
C115 C114 1.392 . S
N116 Co60 2.257 . S
N116 C113 1.391 . S
N116 C117 1.388 . S
C117 H88 0.930 . S
C117 C112 1.391 . S
C117 N116 1.388 . S
Co118 O120 2.143 . S
Co118 O126 2.074 . S
Co118 O129 2.093 . S
Co118 O142 2.097 . S
Co118 N159 2.151 . S
Co118 N167 2.214 . S
Co119 O120 2.160 . S
Co119 O125 2.058 . S
Co119 O135 2.057 . S
Co119 O150 2.037 . S
Co119 N154 2.145 . S
Co119 N175 2.257 . S
O120 Co118 2.143 . S
O120 Co119 2.160 . S
C121 O122 1.278 . S
C121 O129 1.224 . S
O122 C121 1.278 . S
C123 O124 1.245 . S
C123 O135 1.232 . S
O124 C123 1.245 . S
O125 Co119 2.058 . S
O125 C151 1.269 . S
O126 Co118 2.074 . S
O126 C151 1.257 . S
H127 C152 0.930 . S
H128 C158 0.930 . S
O129 Co118 2.093 . S
O129 C121 1.224 . S
H130 C162 0.929 . S
H131 C164 0.930 . S
H132 C165 0.930 . S
H133 C163 0.929 . S
H134 C166 0.928 . S
O135 Co119 2.057 . S
O135 C123 1.232 . S
H136 C155 0.929 . S
H137 C156 0.929 . S
H138 C168 0.931 . S
H139 C160 0.929 . S
H140 C169 0.930 . S
H141 C161 0.931 . S
O142 Co118 2.097 . S
O142 C170 1.214 . S
H143 C171 0.929 . S
H144 C172 0.929 . S
H145 C173 0.930 . S
H146 C174 0.929 . S
H147 C176 0.930 . S
H148 C153 0.930 . S
H149 C157 0.930 . S
O150 Co119 2.037 . S
O150 C170 1.234 . S
C151 O125 1.269 . S
C151 O126 1.257 . S
C152 H127 0.930 . S
C152 C155 1.388 . S
C152 C157 1.418 . S
C153 H148 0.930 . S
C153 C156 1.404 . S
C153 C157 1.353 . S
N154 Co119 2.145 . S
N154 C155 1.397 . S
N154 C156 1.334 . S
C155 H136 0.929 . S
C155 C152 1.388 . S
C155 N154 1.397 . S
C156 H137 0.929 . S
C156 C153 1.404 . S
C156 N154 1.334 . S
C157 H149 0.930 . S
C157 C152 1.418 . S
C157 C153 1.353 . S
C158 H128 0.930 . S
C158 N159 1.330 . S
C158 C160 1.446 . S
N159 Co118 2.151 . S
N159 C158 1.330 . S
N159 C163 1.418 . S
C160 H139 0.929 . S
C160 C158 1.446 . S
C160 C161 1.332 . S
C161 H141 0.931 . S
C161 C160 1.332 . S
C161 C162 1.267 . S
C162 H130 0.929 . S
C162 C161 1.267 . S
C162 C163 1.251 . S
C163 H133 0.929 . S
C163 N159 1.418 . S
C163 C162 1.251 . S
C164 H131 0.930 . S
C164 C166 1.406 . S
C164 C169 1.261 . S
C165 H132 0.930 . S
C165 N167 1.325 . S
C165 C168 1.357 . S
C166 H134 0.928 . S
C166 C164 1.406 . S
C166 N167 1.261 . S
N167 Co118 2.214 . S
N167 C165 1.325 . S
N167 C166 1.261 . S
C168 H138 0.931 . S
C168 C165 1.357 . S
C168 C169 1.312 . S
C169 H140 0.930 . S
C169 C164 1.261 . S
C169 C168 1.312 . S
C170 O142 1.214 . S
C170 O150 1.234 . S
C171 H143 0.929 . S
C171 C174 1.391 . S
C171 C176 1.391 . S
C172 H144 0.929 . S
C172 C173 1.390 . S
C172 N175 1.391 . S
C173 H145 0.930 . S
C173 C172 1.390 . S
C173 C174 1.392 . S
C174 H146 0.929 . S
C174 C171 1.391 . S
C174 C173 1.392 . S
N175 Co119 2.257 . S
N175 C172 1.391 . S
N175 C176 1.388 . S
C176 H147 0.930 . S
C176 C171 1.391 . S
C176 N175 1.388 . S
Co177 O179 2.143 . S
Co177 O185 2.074 . S
Co177 O188 2.093 . S
Co177 O201 2.097 . S
Co177 N218 2.151 . S
Co177 N226 2.214 . S
Co178 O179 2.160 . S
Co178 O184 2.058 . S
Co178 O194 2.057 . S
Co178 O209 2.037 . S
Co178 N213 2.145 . S
Co178 N234 2.257 . S
O179 Co177 2.143 . S
O179 Co178 2.160 . S
C180 O181 1.278 . S
C180 O188 1.224 . S
O181 C180 1.278 . S
C182 O183 1.245 . S
C182 O194 1.232 . S
O183 C182 1.245 . S
O184 Co178 2.058 . S
O184 C210 1.269 . S
O185 Co177 2.074 . S
O185 C210 1.257 . S
H186 C211 0.930 . S
H187 C217 0.930 . S
O188 Co177 2.093 . S
O188 C180 1.224 . S
H189 C221 0.929 . S
H190 C223 0.930 . S
H191 C224 0.930 . S
H192 C222 0.929 . S
H193 C225 0.928 . S
O194 Co178 2.057 . S
O194 C182 1.232 . S
H195 C214 0.929 . S
H196 C215 0.929 . S
H197 C227 0.931 . S
H198 C219 0.929 . S
H199 C228 0.930 . S
H200 C220 0.931 . S
O201 Co177 2.097 . S
O201 C229 1.214 . S
H202 C230 0.929 . S
H203 C231 0.929 . S
H204 C232 0.930 . S
H205 C233 0.929 . S
H206 C235 0.930 . S
H207 C212 0.930 . S
H208 C216 0.930 . S
O209 Co178 2.037 . S
O209 C229 1.234 . S
C210 O184 1.269 . S
C210 O185 1.257 . S
C211 H186 0.930 . S
C211 C214 1.388 . S
C211 C216 1.418 . S
C212 H207 0.930 . S
C212 C215 1.404 . S
C212 C216 1.353 . S
N213 Co178 2.145 . S
N213 C214 1.397 . S
N213 C215 1.334 . S
C214 H195 0.929 . S
C214 C211 1.388 . S
C214 N213 1.397 . S
C215 H196 0.929 . S
C215 C212 1.404 . S
C215 N213 1.334 . S
C216 H208 0.930 . S
C216 C211 1.418 . S
C216 C212 1.353 . S
C217 H187 0.930 . S
C217 N218 1.330 . S
C217 C219 1.446 . S
N218 Co177 2.151 . S
N218 C217 1.330 . S
N218 C222 1.418 . S
C219 H198 0.929 . S
C219 C217 1.446 . S
C219 C220 1.332 . S
C220 H200 0.931 . S
C220 C219 1.332 . S
C220 C221 1.267 . S
C221 H189 0.929 . S
C221 C220 1.267 . S
C221 C222 1.251 . S
C222 H192 0.929 . S
C222 N218 1.418 . S
C222 C221 1.251 . S
C223 H190 0.930 . S
C223 C225 1.406 . S
C223 C228 1.261 . S
C224 H191 0.930 . S
C224 N226 1.325 . S
C224 C227 1.357 . S
C225 H193 0.928 . S
C225 C223 1.406 . S
C225 N226 1.261 . S
N226 Co177 2.214 . S
N226 C224 1.325 . S
N226 C225 1.261 . S
C227 H197 0.931 . S
C227 C224 1.357 . S
C227 C228 1.312 . S
C228 H199 0.930 . S
C228 C223 1.261 . S
C228 C227 1.312 . S
C229 O201 1.214 . S
C229 O209 1.234 . S
C230 H202 0.929 . S
C230 C233 1.391 . S
C230 C235 1.391 . S
C231 H203 0.929 . S
C231 C232 1.390 . S
C231 N234 1.391 . S
C232 H204 0.930 . S
C232 C231 1.390 . S
C232 C233 1.392 . S
C233 H205 0.929 . S
C233 C230 1.391 . S
C233 C232 1.392 . S
N234 Co178 2.257 . S
N234 C231 1.391 . S
N234 C235 1.388 . S
C235 H206 0.930 . S
C235 C230 1.391 . S
C235 N234 1.388 . S
Co236 O238 2.143 . S
Co236 O244 2.074 . S
Co236 O247 2.093 . S
Co236 O260 2.097 . S
Co236 N277 2.151 . S
Co236 N285 2.214 . S
Co237 O238 2.160 . S
Co237 O243 2.058 . S
Co237 O253 2.057 . S
Co237 O268 2.037 . S
Co237 N272 2.145 . S
Co237 N293 2.257 . S
O238 Co236 2.143 . S
O238 Co237 2.160 . S
C239 O240 1.278 . S
C239 O247 1.224 . S
O240 C239 1.278 . S
C241 O242 1.245 . S
C241 O253 1.232 . S
O242 C241 1.245 . S
O243 Co237 2.058 . S
O243 C269 1.269 . S
O244 Co236 2.074 . S
O244 C269 1.257 . S
H245 C270 0.930 . S
H246 C276 0.930 . S
O247 Co236 2.093 . S
O247 C239 1.224 . S
H248 C280 0.929 . S
H249 C282 0.930 . S
H250 C283 0.930 . S
H251 C281 0.929 . S
H252 C284 0.928 . S
O253 Co237 2.057 . S
O253 C241 1.232 . S
H254 C273 0.929 . S
H255 C274 0.929 . S
H256 C286 0.931 . S
H257 C278 0.929 . S
H258 C287 0.930 . S
H259 C279 0.931 . S
O260 Co236 2.097 . S
O260 C288 1.214 . S
H261 C289 0.929 . S
H262 C290 0.929 . S
H263 C291 0.930 . S
H264 C292 0.929 . S
H265 C294 0.930 . S
H266 C271 0.930 . S
H267 C275 0.930 . S
O268 Co237 2.037 . S
O268 C288 1.234 . S
C269 O243 1.269 . S
C269 O244 1.257 . S
C270 H245 0.930 . S
C270 C273 1.388 . S
C270 C275 1.418 . S
C271 H266 0.930 . S
C271 C274 1.404 . S
C271 C275 1.353 . S
N272 Co237 2.145 . S
N272 C273 1.397 . S
N272 C274 1.334 . S
C273 H254 0.929 . S
C273 C270 1.388 . S
C273 N272 1.397 . S
C274 H255 0.929 . S
C274 C271 1.404 . S
C274 N272 1.334 . S
C275 H267 0.930 . S
C275 C270 1.418 . S
C275 C271 1.353 . S
C276 H246 0.930 . S
C276 N277 1.330 . S
C276 C278 1.446 . S
N277 Co236 2.151 . S
N277 C276 1.330 . S
N277 C281 1.418 . S
C278 H257 0.929 . S
C278 C276 1.446 . S
C278 C279 1.332 . S
C279 H259 0.931 . S
C279 C278 1.332 . S
C279 C280 1.267 . S
C280 H248 0.929 . S
C280 C279 1.267 . S
C280 C281 1.251 . S
C281 H251 0.929 . S
C281 N277 1.418 . S
C281 C280 1.251 . S
C282 H249 0.930 . S
C282 C284 1.406 . S
C282 C287 1.261 . S
C283 H250 0.930 . S
C283 N285 1.325 . S
C283 C286 1.357 . S
C284 H252 0.928 . S
C284 C282 1.406 . S
C284 N285 1.261 . S
N285 Co236 2.214 . S
N285 C283 1.325 . S
N285 C284 1.261 . S
C286 H256 0.931 . S
C286 C283 1.357 . S
C286 C287 1.312 . S
C287 H258 0.930 . S
C287 C282 1.261 . S
C287 C286 1.312 . S
C288 O260 1.214 . S
C288 O268 1.234 . S
C289 H261 0.929 . S
C289 C292 1.391 . S
C289 C294 1.391 . S
C290 H262 0.929 . S
C290 C291 1.390 . S
C290 N293 1.391 . S
C291 H263 0.930 . S
C291 C290 1.390 . S
C291 C292 1.392 . S
C292 H264 0.929 . S
C292 C289 1.391 . S
C292 C291 1.392 . S
N293 Co237 2.257 . S
N293 C290 1.391 . S
N293 C294 1.388 . S
C294 H265 0.930 . S
C294 C289 1.391 . S
C294 N293 1.388 . S
Co295 O297 2.143 . S
Co295 O303 2.074 . S
Co295 O306 2.093 . S
Co295 O319 2.097 . S
Co295 N336 2.151 . S
Co295 N344 2.214 . S
Co296 O297 2.160 . S
Co296 O302 2.058 . S
Co296 O312 2.057 . S
Co296 O327 2.037 . S
Co296 N331 2.145 . S
Co296 N352 2.257 . S
O297 Co295 2.143 . S
O297 Co296 2.160 . S
C298 O299 1.278 . S
C298 O306 1.224 . S
O299 C298 1.278 . S
C300 O301 1.245 . S
C300 O312 1.232 . S
O301 C300 1.245 . S
O302 Co296 2.058 . S
O302 C328 1.269 . S
O303 Co295 2.074 . S
O303 C328 1.257 . S
H304 C329 0.930 . S
H305 C335 0.930 . S
O306 Co295 2.093 . S
O306 C298 1.224 . S
H307 C339 0.929 . S
H308 C341 0.930 . S
H309 C342 0.930 . S
H310 C340 0.929 . S
H311 C343 0.928 . S
O312 Co296 2.057 . S
O312 C300 1.232 . S
H313 C332 0.929 . S
H314 C333 0.929 . S
H315 C345 0.931 . S
H316 C337 0.929 . S
H317 C346 0.930 . S
H318 C338 0.931 . S
O319 Co295 2.097 . S
O319 C347 1.214 . S
H320 C348 0.929 . S
H321 C349 0.929 . S
H322 C350 0.930 . S
H323 C351 0.929 . S
H324 C353 0.930 . S
H325 C330 0.930 . S
H326 C334 0.930 . S
O327 Co296 2.037 . S
O327 C347 1.234 . S
C328 O302 1.269 . S
C328 O303 1.257 . S
C329 H304 0.930 . S
C329 C332 1.388 . S
C329 C334 1.418 . S
C330 H325 0.930 . S
C330 C333 1.404 . S
C330 C334 1.353 . S
N331 Co296 2.145 . S
N331 C332 1.397 . S
N331 C333 1.334 . S
C332 H313 0.929 . S
C332 C329 1.388 . S
C332 N331 1.397 . S
C333 H314 0.929 . S
C333 C330 1.404 . S
C333 N331 1.334 . S
C334 H326 0.930 . S
C334 C329 1.418 . S
C334 C330 1.353 . S
C335 H305 0.930 . S
C335 N336 1.330 . S
C335 C337 1.446 . S
N336 Co295 2.151 . S
N336 C335 1.330 . S
N336 C340 1.418 . S
C337 H316 0.929 . S
C337 C335 1.446 . S
C337 C338 1.332 . S
C338 H318 0.931 . S
C338 C337 1.332 . S
C338 C339 1.267 . S
C339 H307 0.929 . S
C339 C338 1.267 . S
C339 C340 1.251 . S
C340 H310 0.929 . S
C340 N336 1.418 . S
C340 C339 1.251 . S
C341 H308 0.930 . S
C341 C343 1.406 . S
C341 C346 1.261 . S
C342 H309 0.930 . S
C342 N344 1.325 . S
C342 C345 1.357 . S
C343 H311 0.928 . S
C343 C341 1.406 . S
C343 N344 1.261 . S
N344 Co295 2.214 . S
N344 C342 1.325 . S
N344 C343 1.261 . S
C345 H315 0.931 . S
C345 C342 1.357 . S
C345 C346 1.312 . S
C346 H317 0.930 . S
C346 C341 1.261 . S
C346 C345 1.312 . S
C347 O319 1.214 . S
C347 O327 1.234 . S
C348 H320 0.929 . S
C348 C351 1.391 . S
C348 C353 1.391 . S
C349 H321 0.929 . S
C349 C350 1.390 . S
C349 N352 1.391 . S
C350 H322 0.930 . S
C350 C349 1.390 . S
C350 C351 1.392 . S
C351 H323 0.929 . S
C351 C348 1.391 . S
C351 C350 1.392 . S
N352 Co296 2.257 . S
N352 C349 1.391 . S
N352 C353 1.388 . S
C353 H324 0.930 . S
C353 C348 1.391 . S
C353 N352 1.388 . S
C354 C355 1.386 . S
C354 C356 1.383 . S
C354 H370 0.951 . S
C355 C354 1.386 . S
C355 C359 1.383 . S
C356 C354 1.383 . S
C356 C357 1.402 . S
C356 H371 0.951 . S
C357 C356 1.402 . S
C357 C358 1.375 . S
C357 C360 1.481 . S
C358 C357 1.375 . S
C358 C359 1.367 . S
C358 H372 0.951 . S
C359 C355 1.383 . S
C359 C358 1.367 . S
C359 H373 0.950 . S
C360 C357 1.481 . S
C360 C361 1.297 1_545 S
C360 H374 0.950 . S
C361 C360 1.297 1_565 S
C361 C362 1.479 . S
C361 H375 0.950 1_565 S
C362 C361 1.479 . S
C362 C363 1.375 . S
C362 C368 1.404 . S
C363 C362 1.375 . S
C363 C364 1.369 . S
C363 H376 0.950 . S
C364 C363 1.369 . S
C364 C365 1.392 . S
C364 H377 0.951 . S
C365 C364 1.392 . S
C365 C367 1.384 . S
H366 C368 0.949 . S
C367 C365 1.384 . S
C367 C368 1.385 . S
C367 H369 0.950 . S
C368 C362 1.404 . S
C368 H366 0.949 . S
C368 C367 1.385 . S
H369 C367 0.950 . S
H370 C354 0.951 . S
H371 C356 0.951 . S
H372 C358 0.951 . S
H373 C359 0.950 . S
H374 C360 0.950 . S
H375 C361 0.950 1_545 S
H376 C363 0.950 . S
H377 C364 0.951 . S
C378 C379 1.386 . S
C378 C380 1.383 . S
C378 H394 0.951 . S
C379 C378 1.386 . S
C379 C383 1.383 . S
C380 C378 1.383 . S
C380 C381 1.402 . S
C380 H395 0.951 . S
C381 C380 1.402 . S
C381 C382 1.375 . S
C381 C384 1.481 . S
C382 C381 1.375 . S
C382 C383 1.367 . S
C382 H396 0.951 . S
C383 C379 1.383 . S
C383 C382 1.367 . S
C383 H397 0.950 . S
C384 C381 1.481 . S
C384 C385 1.297 . S
C384 H398 0.950 . S
C385 C384 1.297 . S
C385 C386 1.479 . S
C385 H399 0.950 . S
C386 C385 1.479 . S
C386 C387 1.375 . S
C386 C392 1.404 . S
C387 C386 1.375 . S
C387 C388 1.369 . S
C387 H400 0.950 . S
C388 C387 1.369 . S
C388 C389 1.392 . S
C388 H401 0.951 . S
C389 C388 1.392 . S
C389 C391 1.384 . S
H390 C392 0.949 . S
C391 C389 1.384 . S
C391 C392 1.385 . S
C391 H393 0.950 . S
C392 C386 1.404 . S
C392 H390 0.949 . S
C392 C391 1.385 . S
H393 C391 0.950 . S
H394 C378 0.951 . S
H395 C380 0.951 . S
H396 C382 0.951 . S
H397 C383 0.950 . S
H398 C384 0.950 . S
H399 C385 0.950 . S
H400 C387 0.950 . S
H401 C388 0.951 . S
C402 C403 1.386 . S
C402 C404 1.383 . S
C402 H418 0.951 . S
C403 C402 1.386 . S
C403 C407 1.383 . S
C404 C402 1.383 . S
C404 C405 1.402 . S
C404 H419 0.951 . S
C405 C404 1.402 . S
C405 C406 1.375 . S
C405 C408 1.481 . S
C406 C405 1.375 . S
C406 C407 1.367 . S
C406 H420 0.951 . S
C407 C403 1.383 . S
C407 C406 1.367 . S
C407 H421 0.950 . S
C408 C405 1.481 . S
C408 C409 1.297 1_655 S
C408 H422 0.950 . S
C409 C408 1.297 1_455 S
C409 C410 1.479 . S
C409 H423 0.950 1_455 S
C410 C409 1.479 . S
C410 C411 1.375 . S
C410 C416 1.404 . S
C411 C410 1.375 . S
C411 C412 1.369 . S
C411 H424 0.950 . S
C412 C411 1.369 . S
C412 C413 1.392 . S
C412 H425 0.951 . S
C413 C412 1.392 . S
C413 C415 1.384 . S
H414 C416 0.949 . S
C415 C413 1.384 . S
C415 C416 1.385 . S
C415 H417 0.950 . S
C416 C410 1.404 . S
C416 H414 0.949 . S
C416 C415 1.385 . S
H417 C415 0.950 . S
H418 C402 0.951 . S
H419 C404 0.951 . S
H420 C406 0.951 . S
H421 C407 0.950 . S
H422 C408 0.950 . S
H423 C409 0.950 1_655 S
H424 C411 0.950 . S
H425 C412 0.951 . S
C426 C427 1.386 . S
C426 C428 1.383 . S
C426 H442 0.951 . S
C427 C426 1.386 . S
C427 C431 1.383 . S
C428 C426 1.383 . S
C428 C429 1.402 . S
C428 H443 0.951 . S
C429 C428 1.402 . S
C429 C430 1.375 . S
C429 C432 1.481 . S
C430 C429 1.375 . S
C430 C431 1.367 . S
C430 H444 0.951 . S
C431 C427 1.383 . S
C431 C430 1.367 . S
C431 H445 0.950 . S
C432 C429 1.481 . S
C432 C433 1.297 1_455 S
C432 H446 0.950 1_455 S
C433 C432 1.297 1_655 S
C433 C434 1.479 . S
C433 H447 0.950 1_655 S
C434 C433 1.479 . S
C434 C435 1.375 . S
C434 C440 1.404 . S
C435 C434 1.375 . S
C435 C436 1.369 . S
C435 H448 0.950 . S
C436 C435 1.369 . S
C436 C437 1.392 . S
C436 H449 0.951 . S
C437 C436 1.392 . S
C437 C439 1.384 . S
H438 C440 0.949 . S
C439 C437 1.384 . S
C439 C440 1.385 . S
C439 H441 0.950 . S
C440 C434 1.404 . S
C440 H438 0.949 . S
C440 C439 1.385 . S
H441 C439 0.950 . S
H442 C426 0.951 . S
H443 C428 0.951 . S
H444 C430 0.951 . S
H445 C431 0.950 . S
H446 C432 0.950 1_655 S
H447 C433 0.950 1_455 S
H448 C435 0.950 . S
H449 C436 0.951 . S
C450 C451 1.386 . S
C450 C452 1.383 . S
C450 H466 0.951 . S
C451 C450 1.386 . S
C451 C455 1.383 . S
C452 C450 1.383 . S
C452 C453 1.402 . S
C452 H467 0.951 . S
C453 C452 1.402 . S
C453 C454 1.375 . S
C453 C456 1.481 . S
C454 C453 1.375 . S
C454 C455 1.367 . S
C454 H468 0.951 . S
C455 C451 1.383 . S
C455 C454 1.367 . S
C455 H469 0.950 . S
C456 C453 1.481 . S
C456 C457 1.297 1_565 S
C456 H470 0.950 . S
C457 C456 1.297 1_545 S
C457 C458 1.479 . S
C457 H471 0.950 . S
C458 C457 1.479 . S
C458 C459 1.375 . S
C458 C464 1.404 . S
C459 C458 1.375 . S
C459 C460 1.369 . S
C459 H472 0.950 . S
C460 C459 1.369 . S
C460 C461 1.392 . S
C460 H473 0.951 . S
C461 C460 1.392 . S
C461 C463 1.384 . S
H462 C464 0.949 . S
C463 C461 1.384 . S
C463 C464 1.385 . S
C463 H465 0.950 . S
C464 C458 1.404 . S
C464 H462 0.949 . S
C464 C463 1.385 . S
H465 C463 0.950 . S
H466 C450 0.951 . S
H467 C452 0.951 . S
H468 C454 0.951 . S
H469 C455 0.950 . S
H470 C456 0.950 . S
H471 C457 0.950 . S
H472 C459 0.950 . S
H473 C460 0.951 . S
C474 C475 1.386 . S
C474 C476 1.383 . S
C474 H490 0.951 . S
C475 C474 1.386 . S
C475 C479 1.383 . S
C476 C474 1.383 . S
C476 C477 1.402 . S
C476 H491 0.951 . S
C477 C476 1.402 . S
C477 C478 1.375 . S
C477 C480 1.481 . S
C478 C477 1.375 . S
C478 C479 1.367 . S
C478 H492 0.951 . S
C479 C475 1.383 . S
C479 C478 1.367 . S
C479 H493 0.950 . S
C480 C477 1.481 . S
C480 C481 1.297 . S
C480 H494 0.950 . S
C481 C480 1.297 . S
C481 C482 1.479 . S
C481 H495 0.950 . S
C482 C481 1.479 . S
C482 C483 1.375 . S
C482 C488 1.404 . S
C483 C482 1.375 . S
C483 C484 1.369 . S
C483 H496 0.950 . S
C484 C483 1.369 . S
C484 C485 1.392 . S
C484 H497 0.951 . S
C485 C484 1.392 . S
C485 C487 1.384 . S
H486 C488 0.949 . S
C487 C485 1.384 . S
C487 C488 1.385 . S
C487 H489 0.950 . S
C488 C482 1.404 . S
C488 H486 0.949 . S
C488 C487 1.385 . S
H489 C487 0.950 . S
H490 C474 0.951 . S
H491 C476 0.951 . S
H492 C478 0.951 . S
H493 C479 0.950 . S
H494 C480 0.950 . S
H495 C481 0.950 . S
H496 C483 0.950 . S
H497 C484 0.951 . S
C498 C499 1.386 . S
C498 C500 1.383 . S
C498 H514 0.951 . S
C499 C498 1.386 . S
C499 C503 1.383 . S
C500 C498 1.383 . S
C500 C501 1.402 . S
C500 H515 0.951 . S
C501 C500 1.402 . S
C501 C502 1.375 . S
C501 C504 1.481 . S
C502 C501 1.375 . S
C502 C503 1.367 . S
C502 H516 0.951 . S
C503 C499 1.383 . S
C503 C502 1.367 . S
C503 H517 0.950 . S
C504 C501 1.481 . S
C504 C505 1.297 1_556 S
C504 H518 0.950 . S
C505 C504 1.297 1_554 S
C505 C506 1.479 . S
C505 H519 0.950 1_554 S
C506 C505 1.479 . S
C506 C507 1.375 . S
C506 C512 1.404 . S
C507 C506 1.375 . S
C507 C508 1.369 . S
C507 H520 0.950 . S
C508 C507 1.369 . S
C508 C509 1.392 . S
C508 H521 0.951 . S
C509 C508 1.392 . S
C509 C511 1.384 . S
H510 C512 0.949 . S
C511 C509 1.384 . S
C511 C512 1.385 . S
C511 H513 0.950 . S
C512 C506 1.404 . S
C512 H510 0.949 . S
C512 C511 1.385 . S
H513 C511 0.950 . S
H514 C498 0.951 . S
H515 C500 0.951 . S
H516 C502 0.951 . S
H517 C503 0.950 . S
H518 C504 0.950 . S
H519 C505 0.950 1_556 S
H520 C507 0.950 . S
H521 C508 0.951 . S
C522 C523 1.386 . S
C522 C524 1.383 . S
C522 H538 0.951 . S
C523 C522 1.386 . S
C523 C527 1.383 . S
C524 C522 1.383 . S
C524 C525 1.402 . S
C524 H539 0.951 . S
C525 C524 1.402 . S
C525 C526 1.375 . S
C525 C528 1.481 . S
C526 C525 1.375 . S
C526 C527 1.367 . S
C526 H540 0.951 . S
C527 C523 1.383 . S
C527 C526 1.367 . S
C527 H541 0.950 . S
C528 C525 1.481 . S
C528 C529 1.297 . S
C528 H542 0.950 . S
C529 C528 1.297 . S
C529 C530 1.479 . S
C529 H543 0.950 . S
C530 C529 1.479 . S
C530 C531 1.375 . S
C530 C536 1.404 . S
C531 C530 1.375 . S
C531 C532 1.369 . S
C531 H544 0.950 . S
C532 C531 1.369 . S
C532 C533 1.392 . S
C532 H545 0.951 . S
C533 C532 1.392 . S
C533 C535 1.384 . S
H534 C536 0.949 . S
C535 C533 1.384 . S
C535 C536 1.385 . S
C535 H537 0.950 . S
C536 C530 1.404 . S
C536 H534 0.949 . S
C536 C535 1.385 . S
H537 C535 0.950 . S
H538 C522 0.951 . S
H539 C524 0.951 . S
H540 C526 0.951 . S
H541 C527 0.950 . S
H542 C528 0.950 . S
H543 C529 0.950 . S
H544 C531 0.950 . S
H545 C532 0.951 . S
C546 C547 1.386 . S
C546 C548 1.383 . S
C546 H562 0.951 . S
C547 C546 1.386 . S
C547 C551 1.383 . S
C548 C546 1.383 . S
C548 C549 1.402 . S
C548 H563 0.951 . S
C549 C548 1.402 . S
C549 C550 1.375 . S
C549 C552 1.481 . S
C550 C549 1.375 . S
C550 C551 1.367 . S
C550 H564 0.951 . S
C551 C547 1.383 . S
C551 C550 1.367 . S
C551 H565 0.950 . S
C552 C549 1.481 . S
C552 C553 1.297 . S
C552 H566 0.950 . S
C553 C552 1.297 . S
C553 C554 1.479 . S
C553 H567 0.950 . S
C554 C553 1.479 . S
C554 C555 1.375 . S
C554 C560 1.404 . S
C555 C554 1.375 . S
C555 C556 1.369 . S
C555 H568 0.950 . S
C556 C555 1.369 . S
C556 C557 1.392 . S
C556 H569 0.951 . S
C557 C556 1.392 . S
C557 C559 1.384 . S
H558 C560 0.949 . S
C559 C557 1.384 . S
C559 C560 1.385 . S
C559 H561 0.950 . S
C560 C554 1.404 . S
C560 H558 0.949 . S
C560 C559 1.385 . S
H561 C559 0.950 . S
H562 C546 0.951 . S
H563 C548 0.951 . S
H564 C550 0.951 . S
H565 C551 0.950 . S
H566 C552 0.950 . S
H567 C553 0.950 . S
H568 C555 0.950 . S
H569 C556 0.951 . S
C570 C571 1.386 . S
C570 C572 1.383 . S
C570 H586 0.951 . S
C571 C570 1.386 . S
C571 C575 1.383 . S
C572 C570 1.383 . S
C572 C573 1.402 . S
C572 H587 0.951 . S
C573 C572 1.402 . S
C573 C574 1.375 . S
C573 C576 1.481 . S
C574 C573 1.375 . S
C574 C575 1.367 . S
C574 H588 0.951 . S
C575 C571 1.383 . S
C575 C574 1.367 . S
C575 H589 0.950 . S
C576 C573 1.481 . S
C576 C577 1.297 1_556 S
C576 H590 0.950 . S
C577 C576 1.297 1_554 S
C577 C578 1.479 . S
C577 H591 0.950 1_554 S
C578 C577 1.479 . S
C578 C579 1.375 . S
C578 C584 1.404 . S
C579 C578 1.375 . S
C579 C580 1.369 . S
C579 H592 0.950 . S
C580 C579 1.369 . S
C580 C581 1.392 . S
C580 H593 0.951 . S
C581 C580 1.392 . S
C581 C583 1.384 . S
H582 C584 0.949 . S
C583 C581 1.384 . S
C583 C584 1.385 . S
C583 H585 0.950 . S
C584 C578 1.404 . S
C584 H582 0.949 . S
C584 C583 1.385 . S
H585 C583 0.950 . S
H586 C570 0.951 . S
H587 C572 0.951 . S
H588 C574 0.951 . S
H589 C575 0.950 . S
H590 C576 0.950 . S
H591 C577 0.950 1_556 S
H592 C579 0.950 . S
H593 C580 0.951 . S
C594 C595 1.386 . S
C594 C596 1.383 . S
C594 H610 0.951 . S
C595 C594 1.386 . S
C595 C599 1.383 . S
C596 C594 1.383 . S
C596 C597 1.402 . S
C596 H611 0.951 . S
C597 C596 1.402 . S
C597 C598 1.375 . S
C597 C600 1.481 . S
C598 C597 1.375 . S
C598 C599 1.367 . S
C598 H612 0.951 . S
C599 C595 1.383 . S
C599 C598 1.367 . S
C599 H613 0.950 . S
C600 C597 1.481 . S
C600 C601 1.297 . S
C600 H614 0.950 . S
C601 C600 1.297 . S
C601 C602 1.479 . S
C601 H615 0.950 . S
C602 C601 1.479 . S
C602 C603 1.375 . S
C602 C608 1.404 . S
C603 C602 1.375 . S
C603 C604 1.369 . S
C603 H616 0.950 . S
C604 C603 1.369 . S
C604 C605 1.392 . S
C604 H617 0.951 . S
C605 C604 1.392 . S
C605 C607 1.384 . S
H606 C608 0.949 . S
C607 C605 1.384 . S
C607 C608 1.385 . S
C607 H609 0.950 . S
C608 C602 1.404 . S
C608 H606 0.949 . S
C608 C607 1.385 . S
H609 C607 0.950 . S
H610 C594 0.951 . S
H611 C596 0.951 . S
H612 C598 0.951 . S
H613 C599 0.950 . S
H614 C600 0.950 . S
H615 C601 0.950 . S
H616 C603 0.950 . S
H617 C604 0.951 . S
C618 C619 1.386 . S
C618 C620 1.383 . S
C618 H634 0.951 . S
C619 C618 1.386 . S
C619 C623 1.383 . S
C620 C618 1.383 . S
C620 C621 1.402 . S
C620 H635 0.951 . S
C621 C620 1.402 . S
C621 C622 1.375 . S
C621 C624 1.481 . S
C622 C621 1.375 . S
C622 C623 1.367 . S
C622 H636 0.951 . S
C623 C619 1.383 . S
C623 C622 1.367 . S
C623 H637 0.950 . S
C624 C621 1.481 . S
C624 C625 1.297 . S
C624 H638 0.950 . S
C625 C624 1.297 . S
C625 C626 1.479 . S
C625 H639 0.950 . S
C626 C625 1.479 . S
C626 C627 1.375 . S
C626 C632 1.404 . S
C627 C626 1.375 . S
C627 C628 1.369 . S
C627 H640 0.950 . S
C628 C627 1.369 . S
C628 C629 1.392 . S
C628 H641 0.951 . S
C629 C628 1.392 . S
C629 C631 1.384 . S
H630 C632 0.949 . S
C631 C629 1.384 . S
C631 C632 1.385 . S
C631 H633 0.950 . S
C632 C626 1.404 . S
C632 H630 0.949 . S
C632 C631 1.385 . S
H633 C631 0.950 . S
H634 C618 0.951 . S
H635 C620 0.951 . S
H636 C622 0.951 . S
H637 C623 0.950 . S
H638 C624 0.950 . S
H639 C625 0.950 . S
H640 C627 0.950 . S
H641 C628 0.951 . S
C355 C5 1.152 . S
C365 C182 1.154 . S
C379 C64 1.157 . S
C389 C241 1.148 . S
C403 C123 1.151 . S
C413 C300 1.154 . S
C427 C111 1.880 . S
C437 C288 1.868 . S
C451 C347 1.887 . S
C461 C170 1.881 . S
C475 C229 1.887 . S
C485 C52 1.881 . S
C499 C151 1.308 . S
C509 C3 1.255 . S
C523 C210 1.302 . S
C533 C62 1.332 . S
C547 C121 1.317 . S
C557 C269 1.273 . S
C571 C328 1.307 . S
C581 C180 1.331 . S
C595 C239 1.277 . S
C605 C33 1.305 . S
C619 C298 1.278 . S
C629 C92 1.321 . S
