# Generated by pormake.
# Topology bcg, (8)-cn, num edge types: 1
# Building blocks:
#     Node 0, Type 0, BuildingBlock: LIZSOE_clean_sbu_0, # of connection points: 8
#     Node 1, Type 0, BuildingBlock: LIZSOE_clean_sbu_0, # of connection points: 8
#     Node 2, Type 0, BuildingBlock: LIZSOE_clean_sbu_0, # of connection points: 8
#     Node 3, Type 0, BuildingBlock: LIZSOE_clean_sbu_0, # of connection points: 8
#     Edge 4, Type (0, 0), BuildingBlock: TEMPAE_clean_linker_10, # of connection points: 2
#     Edge 5, Type (0, 0), BuildingBlock: TEMPAE_clean_linker_10, # of connection points: 2
#     Edge 6, Type (0, 0), BuildingBlock: TEMPAE_clean_linker_10, # of connection points: 2
#     Edge 7, Type (0, 0), BuildingBlock: TEMPAE_clean_linker_10, # of connection points: 2
#     Edge 8, Type (0, 0), BuildingBlock: TEMPAE_clean_linker_10, # of connection points: 2
#     Edge 9, Type (0, 0), BuildingBlock: TEMPAE_clean_linker_10, # of connection points: 2
#     Edge 10, Type (0, 0), BuildingBlock: TEMPAE_clean_linker_10, # of connection points: 2
#     Edge 11, Type (0, 0), BuildingBlock: TEMPAE_clean_linker_10, # of connection points: 2
#     Edge 12, Type (0, 0), BuildingBlock: TEMPAE_clean_linker_10, # of connection points: 2
#     Edge 13, Type (0, 0), BuildingBlock: TEMPAE_clean_linker_10, # of connection points: 2
#     Edge 14, Type (0, 0), BuildingBlock: TEMPAE_clean_linker_10, # of connection points: 2
#     Edge 15, Type (0, 0), BuildingBlock: TEMPAE_clean_linker_10, # of connection points: 2
#     Edge 16, Type (0, 0), BuildingBlock: TEMPAE_clean_linker_10, # of connection points: 2
#     Edge 17, Type (0, 0), BuildingBlock: TEMPAE_clean_linker_10, # of connection points: 2
#     Edge 18, Type (0, 0), BuildingBlock: TEMPAE_clean_linker_10, # of connection points: 2
#     Edge 19, Type (0, 0), BuildingBlock: TEMPAE_clean_linker_10, # of connection points: 2
# Relax obj value: 0.239
# Max RMSD: 0.310
# Mean RMSD: 0.310
data_MOF--net-bcg--node1-LIZSOE_clean_sbu_0--edge1-TEMPAE_clean_linker_10
_symmetry_space_group_name_H-M    P1
_symmetry_Int_Tables_number       1
_symmetry_cell_setting            triclinic
loop_
_symmetry_equiv_pos_as_xyz
'x, y, z'
_cell_length_a     21.179308
_cell_length_b     23.096564
_cell_length_c     22.373884
_cell_angle_alpha  89.863019
_cell_angle_beta   89.204543
_cell_angle_gamma 89.826551
loop_
_atom_site_label
_atom_site_type_symbol
_atom_site_fract_x
_atom_site_fract_y
_atom_site_fract_z
_atom_type_partial_charge
Co0 Co 0.15811 0.26089 0.98965 0.0
N1 N 0.09958 0.21391 0.0314 0.0
C2 C 0.1062 0.20059 0.08984 0.0
N3 N 1.00604 0.18701 0.0703 0.0
C4 C 0.03858 0.20173 0.02017 0.0
C5 C 0.04879 0.18496 0.11392 0.0
Co6 Co 0.39412 0.25051 0.02058 0.0
N7 N 0.46776 0.25445 0.97345 0.0
N8 N 0.57242 0.25957 0.95938 0.0
C9 C 0.54568 0.3035 0.92952 0.0
C10 C 0.48123 0.29891 0.93641 0.0
C11 C 0.52445 0.2294 0.98401 0.0
Co12 Co 0.27089 0.27332 1.01352 0.0
C13 C 0.38045 0.2269 0.10699 0.0
H14 H 0.4466 0.32877 0.91989 0.0
O15 O 0.2104 0.30869 0.94745 0.0
O16 O 0.32486 0.24437 0.94151 0.0
O17 O 0.23217 0.19095 0.018 0.0
O18 O 0.21686 0.30143 0.08662 0.0
O19 O 0.13227 0.32185 0.03806 0.0
O20 O 0.37579 0.17729 0.98924 0.0
O21 O 0.33031 0.24551 0.07831 0.0
O22 O 0.40963 0.32516 0.04664 0.0
O23 O 0.18022 0.20025 0.93756 0.0
O24 O 0.10657 0.28401 0.9398 0.0
O25 O 0.31589 0.35219 1.01199 0.0
O26 O 0.43283 0.22019 0.0791 0.0
C27 C 0.20496 0.16665 0.97406 0.0
C28 C 0.53491 0.17554 0.02085 0.0
H29 H 0.49269 0.14742 0.02203 0.0
H30 H 0.57543 0.15053 1.0022 0.0
H31 H 0.54713 0.18768 0.06723 0.0
C32 C 0.3583 0.19776 0.93948 0.0
C33 C 0.16167 0.32441 0.0859 0.0
H34 H 0.14874 0.20739 0.11494 0.0
H35 H 0.96553 0.17992 0.9578 0.0
H36 H 0.04203 0.19393 0.92409 0.0
H37 H 0.99358 0.25283 0.95243 0.0
C38 C 1.0084 0.20731 0.95999 0.0
C39 C 0.15443 0.31335 0.92169 0.0
C40 C 0.37097 0.36469 0.03227 0.0
H41 H 0.03807 0.17936 0.16095 0.0
H42 H 0.57102 0.339 0.9087 0.0
Co43 Co 0.63208 0.84382 0.99674 0.0
N44 N 0.54976 0.8594 0.02487 0.0
C45 C 0.53507 0.904 0.06185 0.0
N46 N 0.45306 0.84662 0.06449 0.0
C47 C 0.49642 0.82727 0.02486 0.0
C48 C 0.47616 0.89557 0.08732 0.0
Co49 Co 0.89645 0.71378 0.03984 0.0
N50 N 0.97402 0.68364 1.01152 0.0
N51 N 0.07509 0.65273 1.01142 0.0
C52 C 0.06654 0.68777 0.96405 0.0
C53 C 1.00549 0.70662 0.96441 0.0
C54 C 1.01743 0.64919 0.03827 0.0
Co55 Co 0.76967 0.78289 0.0139 0.0
C56 C 0.86428 0.70207 0.09717 0.0
H57 H 0.98729 0.73936 0.93474 0.0
O58 O 0.70865 0.83084 0.96268 0.0
O59 O 0.81197 0.75971 0.93544 0.0
O60 O 0.71263 0.7148 1.01049 0.0
O61 O 0.7278 0.80463 0.09364 0.0
O62 O 0.66333 0.87415 0.0672 0.0
O63 O 0.8575 0.68294 0.97114 0.0
O64 O 0.82826 0.73991 0.06907 0.0
O65 O 0.91489 0.78804 1.00339 0.0
O66 O 0.62338 0.76387 0.02704 0.0
O67 O 0.60954 0.8163 0.93041 0.0
O68 O 0.83244 0.84838 0.01612 0.0
O69 O 0.87366 0.64948 0.07785 0.0
C70 C 0.65379 0.71597 0.02257 0.0
C71 C 1.00254 0.60837 0.08872 0.0
H72 H 0.96413 0.5788 0.0753 0.0
H73 H 0.04405 0.58147 0.1005 0.0
H74 H 0.98622 0.6328 0.12833 0.0
C75 C 0.84355 0.71355 0.9266 0.0
C76 C 0.68901 0.84489 0.10759 0.0
H77 H 0.56667 0.93903 0.0724 0.0
H78 H 0.51162 0.77703 0.94334 0.0
H79 H 0.43268 0.77879 0.97086 0.0
H80 H 0.48886 0.73724 1.01037 0.0
C81 C 0.4829 0.77745 0.98445 0.0
C82 C 0.66962 0.81674 0.91928 0.0
C83 C 0.89153 0.83932 1.00436 0.0
H84 H 0.45371 0.92135 0.12196 0.0
H85 H 0.10381 0.70477 0.9355 0.0
Co86 Co 0.38791 0.74221 0.54564 0.0
N87 N 0.44253 0.69304 0.50102 0.0
C88 C 0.43051 0.68086 0.44317 0.0
N89 N 0.5234 0.64289 0.46064 0.0
C90 C 0.50035 0.66961 0.5102 0.0
C91 C 0.48006 0.65065 0.4183 0.0
Co92 Co 0.14057 0.72155 0.47109 0.0
N93 N 0.0532 0.70522 0.48084 0.0
N94 N 0.95755 0.66511 0.49414 0.0
C95 C 0.95105 0.7228 0.49703 0.0
C96 C 1.00921 0.74713 0.48872 0.0
C97 C 1.01959 0.65505 0.48387 0.0
Co98 Co 0.2758 0.76072 0.52345 0.0
C99 C 0.17772 0.69849 0.43142 0.0
H100 H 1.01787 0.793 0.48805 0.0
O101 O 0.3395 0.7933 0.58941 0.0
O102 O 0.22576 0.73308 0.59643 0.0
O103 O 0.31259 0.67798 0.51593 0.0
O104 O 0.32795 0.79279 0.45166 0.0
O105 O 0.41611 0.80194 0.49878 0.0
O106 O 0.14366 0.70225 0.54971 0.0
O107 O 0.21758 0.73525 0.45701 0.0
O108 O 0.13019 0.80031 0.49402 0.0
O109 O 0.363 0.68103 0.59731 0.0
O110 O 0.4413 0.75972 0.59521 0.0
O111 O 0.22347 0.83616 0.52706 0.0
O112 O 0.16408 0.64823 0.45419 0.0
C113 C 0.3354 0.65047 0.56018 0.0
C114 C 0.04728 0.59531 0.47864 0.0
H115 H 0.0869 0.59011 0.51005 0.0
H116 H 1.01185 0.56142 0.48926 0.0
H117 H 0.06507 0.58841 0.43234 0.0
C118 C 0.17265 0.70812 0.59729 0.0
C119 C 0.38433 0.81264 0.45359 0.0
H120 H 0.3889 0.69479 0.41965 0.0
H121 H 0.57997 0.64952 0.56696 0.0
H122 H 0.50687 0.66653 0.60591 0.0
H123 H 0.55233 0.72298 0.57012 0.0
C124 C 0.53711 0.67721 0.56654 0.0
C125 C 0.39655 0.79281 0.61428 0.0
C126 C 0.16392 0.84217 0.51377 0.0
H127 H 0.48551 0.63812 0.3719 0.0
H128 H 0.9067 0.7458 0.50246 0.0
Co129 Co 0.64338 0.19567 0.49639 0.0
N130 N 0.56837 0.15838 0.52069 0.0
C131 C 0.53379 0.17512 0.56874 0.0
N132 N 0.47169 0.11813 0.51738 0.0
C133 C 0.52957 0.12174 0.4914 0.0
C134 C 0.47563 0.14995 0.56738 0.0
Co135 Co 0.9033 0.32155 0.56046 0.0
N136 N 0.98922 0.33467 0.54099 0.0
N137 N 0.08977 0.31731 0.51428 0.0
C138 C 0.07007 0.36389 0.48378 0.0
C139 C 1.00894 0.3754 0.50142 0.0
C140 C 0.04089 0.30117 0.54966 0.0
Co141 Co 0.76557 0.27097 0.52688 0.0
C142 C 0.866 0.35709 0.58989 0.0
H143 H 0.97916 0.40863 0.48274 0.0
O144 O 0.71027 0.2285 0.46971 0.0
O145 O 0.83026 0.2053 0.52315 0.0
O146 O 0.72744 0.23812 0.60347 0.0
O147 O 0.69609 0.33127 0.53304 0.0
O148 O 0.61799 0.26528 0.53789 0.0
O149 O 0.91684 0.24118 0.56708 0.0
O150 O 0.82365 0.31475 0.58313 0.0
O151 O 0.89692 0.3119 0.47832 0.0
O152 O 0.682 0.16277 0.56512 0.0
O153 O 0.67277 0.13614 0.45422 0.0
O154 O 0.79974 0.30566 0.44931 0.0
O155 O 0.87861 0.39542 0.54869 0.0
C156 C 0.6953 0.19212 0.61068 0.0
C157 C 0.04408 0.2508 0.59201 0.0
H158 H 1.01107 0.25681 0.63041 0.0
H159 H 0.03296 0.21048 0.56812 0.0
H160 H 0.09271 0.24503 0.6085 0.0
C161 C 0.88545 0.19901 0.54591 0.0
C162 C 0.63757 0.31751 0.5427 0.0
H163 H 0.54693 0.20839 0.59993 0.0
H164 H 0.55579 0.12269 0.39902 0.0
H165 H 0.50713 0.06234 0.42021 0.0
H166 H 0.58876 0.06363 0.44089 0.0
C167 C 0.5462 0.09086 0.43452 0.0
C168 C 0.67737 0.1906 0.439 0.0
C169 C 0.858 0.31138 0.43701 0.0
H170 H 0.43578 0.16227 0.59552 0.0
H171 H 0.09647 0.38547 0.44848 0.0
C172 C 0.64424 0.27143 0.04237 0.0
C173 C 0.63505 0.25887 0.98189 0.0
C174 C 0.70228 0.26071 0.06911 0.0
C175 C 0.75242 0.23866 0.03366 0.0
C176 C 0.74399 0.22817 0.97179 0.0
C177 C 0.68477 0.23805 0.94665 0.0
C178 C 0.70933 0.27139 0.13528 0.0
C179 C 0.79719 0.20569 0.93247 0.0
C180 C 0.92303 0.25952 0.06803 0.0
C181 C 0.94134 0.20236 0.07945 0.0
C182 C 0.86009 0.27316 0.05747 0.0
C183 C 0.8148 0.22847 0.06007 0.0
C184 C 0.83205 0.17224 0.0796 0.0
C185 C 0.89588 0.15983 0.08946 0.0
C186 C 0.84342 0.33368 0.03718 0.0
C187 C 0.78433 0.12403 0.08438 0.0
H188 H 0.60476 0.28725 0.06911 0.0
H189 H 0.67658 0.22777 0.90021 0.0
H190 H 0.72445 0.23099 0.15794 0.0
H191 H 0.74655 0.30413 0.14283 0.0
H192 H 0.66467 0.28671 0.15668 0.0
H193 H 0.78282 0.20057 0.88521 0.0
H194 H 0.83791 0.23578 0.93384 0.0
H195 H 0.81369 0.16312 0.94936 0.0
H196 H 0.95908 0.29232 0.06195 0.0
H197 H 0.91071 0.11625 0.10057 0.0
H198 H 0.80376 0.35114 0.06459 0.0
H199 H 0.8277 0.33261 0.99007 0.0
H200 H 0.88402 0.36381 0.04002 0.0
H201 H 0.7401 0.13945 0.1063 0.0
H202 H 0.8029 0.08643 0.10982 0.0
H203 H 0.77223 0.1091 0.03885 0.0
C204 C 0.18941 0.64173 1.00141 0.0
C205 C 0.13597 0.6467 0.03869 0.0
C206 C 0.24738 0.66442 0.01902 0.0
C207 C 0.25216 0.68955 0.07632 0.0
C208 C 0.2025 0.68322 0.1182 0.0
C209 C 0.144 0.66309 0.09863 0.0
C210 C 0.30003 0.66905 0.97328 0.0
C211 C 0.20946 0.70451 0.18137 0.0
C212 C 0.41013 0.75731 0.10603 0.0
C213 C 0.39999 0.81372 0.08488 0.0
C214 C 0.36128 0.71692 0.10801 0.0
C215 C 0.30142 0.73337 0.08709 0.0
C216 C 0.28972 0.79184 0.07085 0.0
C217 C 0.33947 0.83161 0.07019 0.0
C218 C 0.37595 0.65581 0.12697 0.0
C219 C 0.22597 0.81142 0.04962 0.0
H220 H 0.18365 0.62771 0.9556 0.0
H221 H 0.10361 0.66685 0.12842 0.0
H222 H 0.29736 0.71199 0.95102 0.0
H223 H 0.34667 0.66559 0.99468 0.0
H224 H 0.29635 0.63503 0.93848 0.0
H225 H 0.2132 0.75242 0.18168 0.0
H226 H 0.169 0.69154 0.20986 0.0
H227 H 0.2534 0.687 0.201 0.0
H228 H 0.45771 0.74381 0.1169 0.0
H229 H 0.33251 0.87512 0.0532 0.0
H230 H 0.39418 0.63151 0.0876 0.0
H231 H 0.33373 0.63291 0.14477 0.0
H232 H 0.41307 0.65542 0.16157 0.0
H233 H 0.21407 0.78832 1.00783 0.0
H234 H 0.22508 0.85867 0.04098 0.0
H235 H 0.18906 0.80107 0.08355 0.0
C236 C 0.60673 0.56887 0.45723 0.0
C237 C 0.5874 0.62626 0.44942 0.0
C238 C 0.67127 0.55472 0.45732 0.0
C239 C 0.71618 0.59927 0.449 0.0
C240 C 0.6959 0.65599 0.43395 0.0
C241 C 0.63151 0.66893 0.43537 0.0
C242 C 0.69131 0.49355 0.4713 0.0
C243 C 0.74214 0.70447 0.42202 0.0
C244 C 0.85915 0.62934 0.53714 0.0
C245 C 0.90538 0.62602 0.49229 0.0
C246 C 0.79764 0.61097 0.52641 0.0
C247 C 0.78214 0.59143 0.46845 0.0
C248 C 0.83081 0.5799 0.42613 0.0
C249 C 0.89274 0.59638 0.43938 0.0
C250 C 0.74771 0.62085 0.57415 0.0
C251 C 0.81684 0.55829 0.36416 0.0
H252 H 0.57164 0.53605 0.46669 0.0
H253 H 0.6155 0.71308 0.42888 0.0
H254 H 0.65222 0.46241 0.46458 0.0
H255 H 0.73217 0.48012 0.44313 0.0
H256 H 0.70671 0.4912 0.5184 0.0
H257 H 0.71905 0.74254 0.40099 0.0
H258 H 0.76302 0.71858 0.4648 0.0
H259 H 0.78119 0.68955 0.3923 0.0
H260 H 0.86971 0.65166 0.57833 0.0
H261 H 0.92969 0.59227 0.4058 0.0
H262 H 0.76872 0.62604 0.61904 0.0
H263 H 0.71412 0.58419 0.57572 0.0
H264 H 0.72063 0.66074 0.56368 0.0
H265 H 0.85839 0.53555 0.34429 0.0
H266 H 0.80538 0.59574 0.33507 0.0
H267 H 0.77571 0.52881 0.36402 0.0
C268 C 0.13952 0.24453 0.44986 0.0
C269 C 0.14274 0.28182 0.49894 0.0
C270 C 0.18864 0.20543 0.43723 0.0
C271 C 0.24055 0.20281 0.47608 0.0
C272 C 0.24361 0.24063 0.52595 0.0
C273 C 0.19446 0.27992 0.53655 0.0
C274 C 0.18522 0.16691 0.38287 0.0
C275 C 0.29779 0.2388 0.56925 0.0
C276 C 0.36102 0.09092 0.51043 0.0
C277 C 0.41384 0.11801 0.48516 0.0
C278 C 0.30042 0.11252 0.4994 0.0
C279 C 0.29393 0.16305 0.46402 0.0
C280 C 0.34607 0.18398 0.43052 0.0
C281 C 0.40565 0.1605 0.44107 0.0
C282 C 0.24455 0.08593 0.53134 0.0
C283 C 0.34216 0.2377 0.39219 0.0
H284 H 0.09775 0.24528 0.42254 0.0
H285 H 0.19531 0.30825 0.5751 0.0
H286 H 0.1396 0.17128 0.35951 0.0
H287 H 0.22353 0.17791 0.35062 0.0
H288 H 0.19234 0.12097 0.39585 0.0
H289 H 0.29267 0.2002 0.59852 0.0
H290 H 0.34379 0.23497 0.54535 0.0
H291 H 0.2989 0.27783 0.59815 0.0
H292 H 0.36777 0.05759 0.54394 0.0
H293 H 0.44669 0.1818 0.42187 0.0
H294 H 0.20744 0.07589 0.49855 0.0
H295 H 0.22434 0.11702 0.56419 0.0
H296 H 0.25734 0.0454 0.55519 0.0
H297 H 0.29372 0.24801 0.37765 0.0
H298 H 0.3726 0.23274 0.35183 0.0
H299 H 0.35957 0.27516 0.41813 0.0
C300 C 0.56715 0.6571 0.98121 0.0
C301 C 0.61702 0.66129 0.02099 0.0
C302 C 0.52335 0.61185 0.98476 0.0
C303 C 0.53509 0.56382 0.02296 0.0
C304 C 0.59186 0.56372 0.05674 0.0
C305 C 0.63068 0.6135 0.05723 0.0
C306 C 0.46495 0.617 0.94699 0.0
C307 C 0.61294 0.51178 0.09237 0.0
C308 C 0.41212 0.45385 0.08046 0.0
C309 C 0.3978 0.42362 0.02829 0.0
C310 C 0.4549 0.50057 0.07949 0.0
C311 C 0.48888 0.51423 0.02577 0.0
C312 C 0.47587 0.48148 0.97357 0.0
C313 C 0.42741 0.44012 0.97474 0.0
C314 C 0.4649 0.53223 0.13747 0.0
C315 C 0.5147 0.48622 0.91658 0.0
H316 H 0.56119 0.69062 0.94798 0.0
H317 H 0.67163 0.61482 0.08574 0.0
H318 H 0.47646 0.60331 0.90066 0.0
H319 H 0.42492 0.5909 0.96452 0.0
H320 H 0.44921 0.66273 0.94385 0.0
H321 H 0.66433 0.50433 0.08516 0.0
H322 H 0.60588 0.52071 0.14071 0.0
H323 H 0.58755 0.47155 0.08057 0.0
H324 H 0.39104 0.43997 0.12256 0.0
H325 H 0.41639 0.41735 0.93407 0.0
H326 H 0.41918 0.53807 0.16168 0.0
H327 H 0.48718 0.5752 0.13123 0.0
H328 H 0.49517 0.50538 0.16672 0.0
H329 H 0.48481 0.50356 0.8803 0.0
H330 H 0.53001 0.44235 0.9021 0.0
H331 H 0.55751 0.51327 0.92093 0.0
C332 C 0.59959 0.41812 0.5717 0.0
C333 C 0.58704 0.36201 0.55185 0.0
C334 C 0.55115 0.46023 0.57518 0.0
C335 C 0.48833 0.44571 0.55892 0.0
C336 C 0.47487 0.38795 0.54298 0.0
C337 C 0.52408 0.34732 0.53914 0.0
C338 C 0.56787 0.51985 0.59702 0.0
C339 C 0.4086 0.36861 0.52932 0.0
C340 C 0.37116 0.56075 0.61138 0.0
C341 C 0.35588 0.58877 0.55769 0.0
C342 C 0.40993 0.5113 0.61203 0.0
C343 C 0.43707 0.49078 0.55783 0.0
C344 C 0.4168 0.51552 0.50294 0.0
C345 C 0.37472 0.56302 0.50367 0.0
C346 C 0.42374 0.48335 0.67151 0.0
C347 C 0.44037 0.49409 0.44287 0.0
H348 H 0.64726 0.42923 0.58422 0.0
H349 H 0.51283 0.30377 0.52496 0.0
H350 H 0.53668 0.55358 0.57814 0.0
H351 H 0.56305 0.52093 0.6464 0.0
H352 H 0.61759 0.53068 0.58576 0.0
H353 H 0.40388 0.32091 0.5329 0.0
H354 H 0.37358 0.3892 0.56 0.0
H355 H 0.39691 0.38109 0.48291 0.0
H356 H 0.35549 0.57944 0.6535 0.0
H357 H 0.3611 0.58284 0.46185 0.0
H358 H 0.46265 0.50701 0.69325 0.0
H359 H 0.43746 0.43715 0.66689 0.0
H360 H 0.38185 0.48616 0.70183 0.0
H361 H 0.48375 0.4673 0.44547 0.0
H362 H 0.44992 0.53101 0.41227 0.0
H363 H 0.40278 0.4679 0.42206 0.0
C364 C 0.14893 0.08577 0.92492 0.0
C365 C 0.17574 0.10807 0.97723 0.0
C366 C 0.10229 0.04272 0.92711 0.0
C367 C 0.08175 0.02071 0.98308 0.0
C368 C 0.11188 0.03984 0.03582 0.0
C369 C 0.1593 0.0826 0.03219 0.0
C370 C 0.07266 0.0233 0.86952 0.0
C371 C 0.09164 0.0172 0.09639 0.0
C372 C 0.92016 0.94614 0.99658 0.0
C373 C 0.93772 0.88754 0.99545 0.0
C374 C 0.96624 0.99021 0.99168 0.0
C375 C 0.03125 0.97537 0.98615 0.0
C376 C 0.04861 0.91648 0.98303 0.0
C377 C 1.00219 0.87371 0.98796 0.0
C378 C 0.94526 0.05251 0.9912 0.0
C379 C 0.11657 0.89845 0.97417 0.0
H380 H 0.16146 0.10498 0.88211 0.0
H381 H 0.17975 0.09922 0.0728 0.0
H382 H 0.07025 0.97539 0.86738 0.0
H383 H 0.02358 0.04 0.86755 0.0
H384 H 0.09904 0.03927 0.82954 0.0
H385 H 0.11995 0.0358 0.13307 0.0
H386 H 0.04114 0.02796 0.10461 0.0
H387 H 0.09617 0.96933 0.09763 0.0
H388 H 0.87071 0.95759 1.00159 0.0
H389 H 1.01728 0.82894 0.98675 0.0
H390 H 0.94938 0.06978 0.94502 0.0
H391 H 0.9762 0.07896 0.01978 0.0
H392 H 0.89541 0.05751 1.00643 0.0
H393 H 0.13437 0.91413 0.9302 0.0
H394 H 0.1227 0.85072 0.97581 0.0
H395 H 0.14597 0.9187 1.00892 0.0
C396 C 0.91105 0.0973 0.57818 0.0
C397 C 0.92012 0.14377 0.53867 0.0
C398 C 0.95203 0.04884 0.57678 0.0
C399 C 1.00413 0.04778 0.53606 0.0
C400 C 1.01183 0.09435 0.49528 0.0
C401 C 0.9697 0.14135 0.49688 0.0
C402 C 0.93941 -0.00127 0.61855 0.0
C403 C 0.06656 0.09682 0.45184 0.0
C404 C 0.14236 0.94158 0.5607 0.0
C405 C 0.1294 0.89882 0.51814 0.0
C406 C 0.10204 0.99048 0.56754 0.0
C407 C 0.04718 0.99604 0.53183 0.0
C408 C 0.03487 0.9533 0.48858 0.0
C409 C 0.07655 0.90667 0.48149 0.0
C410 C 0.11737 0.03565 0.6136 0.0
C411 C 0.97751 0.95676 0.44921 0.0
H412 H 0.87289 0.09942 0.6109 0.0
H413 H 0.97741 0.17792 0.46711 0.0
H414 H 0.93548 0.95801 0.59261 0.0
H415 H 0.97943 0.99331 0.6495 0.0
H416 H 0.89538 0.00487 0.64539 0.0
H417 H 0.05623 0.12611 0.41378 0.0
H418 H 0.10769 0.11399 0.476 0.0
H419 H 0.07962 0.05374 0.43378 0.0
H420 H 0.1827 0.9362 0.58949 0.0
H421 H 0.06667 0.87512 0.44734 0.0
H422 H 0.08219 0.03371 0.6507 0.0
H423 H 0.1145 0.07965 0.59371 0.0
H424 H 0.16507 0.02918 0.63256 0.0
H425 H 0.9706 0.91659 0.42291 0.0
H426 H 0.98272 0.99354 0.41756 0.0
H427 H 0.93433 0.96471 0.47668 0.0
C428 C 0.59341 0.25368 0.39528 0.0
C429 C 0.63939 0.21068 0.3866 0.0
C430 C 0.54267 0.26083 0.35607 0.0
C431 C 0.53983 0.22698 0.30316 0.0
C432 C 0.59144 0.18901 0.28996 0.0
C433 C 0.63904 0.17971 0.33275 0.0
C434 C 0.49203 0.30359 0.37462 0.0
C435 C 0.59649 0.15666 0.23155 0.0
C436 C 0.3983 0.18435 0.20679 0.0
C437 C 0.38963 0.23402 0.1719 0.0
C438 C 0.44304 0.18293 0.25301 0.0
C439 C 0.48399 0.23109 0.26184 0.0
C440 C 0.47265 0.2824 0.22841 0.0
C441 C 0.42263 0.28428 0.18767 0.0
C442 C 0.44755 0.12795 0.28913 0.0
C443 C 0.51548 0.33459 0.23129 0.0
H444 H 0.59386 0.27949 0.43515 0.0
H445 H 0.6748 0.14682 0.32486 0.0
H446 H 0.51277 0.34764 0.37661 0.0
H447 H 0.45087 0.30482 0.34487 0.0
H448 H 0.47502 0.29308 0.42051 0.0
H449 H 0.64675 0.15124 0.21771 0.0
H450 H 0.57643 0.11269 0.23745 0.0
H451 H 0.57121 0.17907 0.19499 0.0
H452 H 0.37386 0.14494 0.19482 0.0
H453 H 0.41661 0.32302 0.16091 0.0
H454 H 0.47739 0.13251 0.32885 0.0
H455 H 0.46675 0.09269 0.26051 0.0
H456 H 0.39962 0.11434 0.30416 0.0
H457 H 0.49458 0.36687 0.26247 0.0
H458 H 0.5197 0.35593 0.18684 0.0
H459 H 0.56372 0.3235 0.24633 0.0
C460 C 0.64824 0.79779 0.20234 0.0
C461 C 0.65769 0.84787 0.16775 0.0
C462 C 0.60353 0.79691 0.24983 0.0
C463 C 0.56585 0.84671 0.26191 0.0
C464 C 0.57738 0.89802 0.22881 0.0
C465 C 0.62427 0.89836 0.18369 0.0
C466 C 0.5946 0.74148 0.28472 0.0
C467 C 0.53762 0.95172 0.23853 0.0
C468 C 0.40788 0.81741 0.34278 0.0
C469 C 0.4214 0.8344 0.40114 0.0
C470 C 0.45347 0.8235 0.29653 0.0
C471 C 0.51454 0.84548 0.30904 0.0
C472 C 0.5271 0.86515 0.3674 0.0
C473 C 0.48009 0.86081 0.41199 0.0
C474 C 0.43727 0.8031 0.23506 0.0
C475 C 0.59193 0.8862 0.38426 0.0
H476 H 0.67307 0.7583 0.19029 0.0
H477 H 0.63193 0.93757 0.15793 0.0
H478 H 0.58187 0.75019 0.33209 0.0
H479 H 0.55569 0.7163 0.26481 0.0
H480 H 0.63794 0.71424 0.28325 0.0
H481 H 0.54955 0.98673 0.20619 0.0
H482 H 0.48685 0.94095 0.23408 0.0
H483 H 0.54414 0.96853 0.28439 0.0
H484 H 0.36339 0.7962 0.33392 0.0
H485 H 0.49128 0.87418 0.45705 0.0
H486 H 0.38537 0.80085 0.22884 0.0
H487 H 0.45732 0.75915 0.22831 0.0
H488 H 0.45798 0.83223 0.20063 0.0
H489 H 0.62627 0.84998 0.37973 0.0
H490 H 0.59325 0.90252 0.4309 0.0
H491 H 0.60799 0.9212 0.35375 0.0
C492 C 0.46859 0.87025 0.64067 0.0
C493 C 0.41888 0.834 0.65992 0.0
C494 C 0.52271 0.87855 0.67573 0.0
C495 C 0.52525 0.85398 0.73371 0.0
C496 C 0.47009 0.82675 0.75728 0.0
C497 C 0.41835 0.81574 0.71973 0.0
C498 C 0.57936 0.90849 0.64833 0.0
C499 C 0.46747 0.80533 0.82098 0.0
C500 C 0.66588 0.78873 0.81468 0.0
C501 C 0.67969 0.83251 0.85585 0.0
C502 C 0.62025 0.79742 0.77003 0.0
C503 C 0.5866 0.85072 0.76737 0.0
C504 C 0.60903 0.89788 0.80163 0.0
C505 C 0.65884 0.8889 0.84209 0.0
C506 C 0.60422 0.74767 0.72941 0.0
C507 C 0.57786 0.95671 0.80074 0.0
H508 H 0.4698 0.8842 0.59433 0.0
H509 H 0.38076 0.78747 0.73531 0.0
H510 H 0.59117 0.94736 0.67482 0.0
H511 H 0.62094 0.87911 0.64908 0.0
H512 H 0.57118 0.92224 0.60144 0.0
H513 H 0.41822 0.79668 0.83616 0.0
H514 H 0.49487 0.76453 0.82486 0.0
H515 H 0.48878 0.83764 0.85129 0.0
H516 H 0.68337 0.7453 0.82294 0.0
H517 H 0.67088 0.92379 0.87223 0.0
H518 H 0.59341 0.76348 0.68376 0.0
H519 H 0.56187 0.7249 0.74713 0.0
H520 H 0.64357 0.71583 0.7264 0.0
H521 H 0.53158 0.95702 0.77825 0.0
H522 H 0.60971 0.98773 0.77741 0.0
H523 H 0.57082 0.97291 0.84708 0.0
C524 C 0.45084 0.1463 0.89058 0.0
C525 C 0.39885 0.18404 0.88497 0.0
C526 C 0.50147 0.14621 0.84891 0.0
C527 C 0.49749 0.17944 0.7957 0.0
C528 C 0.44123 0.21189 0.78587 0.0
C529 C 0.3939 0.21549 0.83129 0.0
C530 C 0.56158 0.11486 0.86523 0.0
C531 C 0.43221 0.24543 0.72867 0.0
C532 C 0.64417 0.23014 0.70553 0.0
C533 C 0.65476 0.184 0.66591 0.0
C534 C 0.59405 0.22933 0.7479 0.0
C535 C 0.55254 0.18096 0.75151 0.0
C536 C 0.56423 0.13348 0.71256 0.0
C537 C 0.61622 0.13468 0.67219 0.0
C538 C 0.58613 0.28181 0.78714 0.0
C539 C 0.51833 0.08367 0.70931 0.0
H540 H 0.45484 0.12018 0.93052 0.0
H541 H 0.35401 0.24435 0.82539 0.0
H542 H 0.58133 0.08988 0.82717 0.0
H543 H 0.59756 0.14738 0.8776 0.0
H544 H 0.55451 0.08496 0.90369 0.0
H545 H 0.38151 0.25482 0.72079 0.0
H546 H 0.45749 0.28732 0.73146 0.0
H547 H 0.45176 0.22136 0.68971 0.0
H548 H 0.67312 0.26864 0.70154 0.0
H549 H 0.62311 0.09886 0.64155 0.0
H550 H 0.62318 0.28099 0.82166 0.0
H551 H 0.53937 0.28434 0.80947 0.0
H552 H 0.59318 0.32202 0.76054 0.0
H553 H 0.47174 0.10026 0.69477 0.0
H554 H 0.51086 0.0636 0.75381 0.0
H555 H 0.53432 0.04963 0.67748 0.0
C556 C 0.12878 0.66318 0.33633 0.0
C557 C 0.14843 0.71045 0.37071 0.0
C558 C 0.08233 0.66867 0.29227 0.0
C559 C 0.05275 0.72314 0.28193 0.0
C560 C 0.07474 0.77191 0.31446 0.0
C561 C 0.12352 0.76525 0.35676 0.0
C562 C 0.06535 0.61472 0.25818 0.0
C563 C 0.04568 0.8312 0.30691 0.0
C564 C 0.95672 0.7542 0.14053 0.0
C565 C 0.90239 0.72048 0.14998 0.0
C566 C 1.00525 0.75704 0.18286 0.0
C567 C 0.99834 0.72795 0.23867 0.0
C568 C 0.93985 0.69963 0.25101 0.0
C569 C 0.89405 0.6942 0.20594 0.0
C570 C 0.06415 0.78967 0.16481 0.0
C571 C 0.92541 0.67257 0.31082 0.0
H572 H 0.14765 0.62051 0.34595 0.0
H573 H 0.1383 0.80246 0.38219 0.0
H574 H 0.03439 0.5871 0.28665 0.0
H575 H 0.0411 0.62423 0.21591 0.0
H576 H 0.10846 0.58899 0.24758 0.0
H577 H 0.04515 0.85522 0.34968 0.0
H578 H 0.07489 0.8566 0.27482 0.0
H579 H 0.99662 0.82942 0.29033 0.0
H580 H 0.96461 0.77473 0.09782 0.0
H581 H 0.85242 0.66797 0.21411 0.0
H582 H 0.10443 0.78187 0.19461 0.0
H583 H 0.05345 0.83675 0.16454 0.0
H584 H 0.07859 0.778 0.11845 0.0
H585 H 0.92937 0.6249 0.30638 0.0
H586 H 0.87597 0.68244 0.32449 0.0
H587 H 0.95706 0.68762 0.34667 0.0
C588 C 0.91953 0.37477 0.36799 0.0
C589 C 0.88472 0.32357 0.37626 0.0
C590 C 0.96581 0.38023 0.32234 0.0
C591 C 0.9768 0.33386 0.28203 0.0
C592 C 0.93813 0.2837 0.28735 0.0
C593 C 0.89358 0.27872 0.33489 0.0
C594 C 1.00562 0.43434 0.31987 0.0
C595 C 0.946 0.23372 0.24478 0.0
C596 C 0.06223 0.36361 0.13295 0.0
C597 C 0.12207 0.33773 0.14069 0.0
C598 C 1.01543 0.36335 0.17835 0.0
C599 C 0.02832 0.3379 0.23446 0.0
C600 C 0.08998 0.31533 0.2442 0.0
C601 C 0.13583 0.31496 0.19728 0.0
C602 C 0.95085 0.38764 0.16497 0.0
C603 C 0.1068 0.28971 0.30378 0.0
H604 H 0.91328 0.40952 0.40001 0.0
H605 H 0.86849 0.23834 0.34176 0.0
H606 H 1.00665 0.45276 0.27405 0.0
H607 H 0.98816 0.46814 0.35133 0.0
H608 H 0.05498 0.42329 0.33151 0.0
H609 H 0.90492 0.20394 0.24665 0.0
H610 H 0.95212 0.24961 0.19831 0.0
H611 H 0.98892 0.20885 0.2567 0.0
H612 H 0.05038 0.38147 0.08965 0.0
H613 H 0.18116 0.29424 0.20407 0.0
H614 H 0.9364 0.41972 0.19935 0.0
H615 H 0.91557 0.3522 0.16639 0.0
H616 H 0.94922 0.40885 0.12043 0.0
H617 H 0.09623 0.32128 0.3399 0.0
H618 H 0.1574 0.27719 0.30594 0.0
H619 H 0.0774 0.25084 0.31238 0.0
C620 C 0.1503 0.33162 0.81351 0.0
C621 C 0.13956 0.35229 0.87145 0.0
C622 C 0.10631 0.342 0.76789 0.0
C623 C 0.04921 0.37224 0.78095 0.0
C624 C 0.04229 0.39928 0.8374 0.0
C625 C 0.08833 0.39018 0.88129 0.0
C626 C 0.11848 0.31483 0.70792 0.0
C627 C 0.98305 0.43238 0.85402 0.0
C628 C 0.93964 0.41546 0.65396 0.0
C629 C 0.89961 0.36695 0.64899 0.0
C630 C 0.98781 0.41796 0.69651 0.0
C631 C 0.99521 0.37205 0.7377 0.0
C632 C 0.95172 0.3252 0.73653 0.0
C633 C 0.905 0.32283 0.69186 0.0
C634 C 0.03401 0.46764 0.69387 0.0
C635 C 0.95669 0.2759 0.78059 0.0
H636 H 0.18899 0.30161 0.80551 0.0
H637 H 0.07918 0.40569 0.92634 0.0
H638 H 0.09872 0.27044 0.70895 0.0
H639 H 0.0961 0.33981 0.67143 0.0
H640 H 0.16993 0.31115 0.69818 0.0
H641 H 0.98804 0.45638 0.89666 0.0
H642 H 0.97045 0.46359 0.81836 0.0
H643 H 0.9432 0.40155 0.85904 0.0
H644 H 0.93677 0.45012 0.62137 0.0
H645 H 0.87545 0.2848 0.68833 0.0
H646 H 0.07992 0.45165 0.67582 0.0
H647 H 0.04276 0.48509 0.73908 0.0
H648 H 1.01745 0.50344 0.66474 0.0
H649 H 1.00046 0.25084 0.77115 0.0
H650 H 0.91575 0.24606 0.77825 0.0
H651 H 0.95986 0.29286 0.82684 0.0
C652 C 0.14172 0.72769 0.70547 0.0
C653 C 0.13456 0.69599 0.65264 0.0
C654 C 0.094 0.72743 0.75047 0.0
C655 C 0.0369 0.69631 0.74143 0.0
C656 C 0.03084 0.66274 0.68909 0.0
C657 C 0.08033 0.66136 0.64693 0.0
C658 C 0.10436 0.76329 0.80571 0.0
C659 C 0.96999 0.63184 0.67495 0.0
C660 C 0.92107 0.65519 0.86641 0.0
C661 C 0.88214 0.7046 0.87085 0.0
C662 C 0.97278 0.65307 0.8264 0.0
C663 C 0.98271 0.69898 0.78537 0.0
C664 C 0.93971 0.74632 0.78534 0.0
C665 C 0.89078 0.7492 0.82882 0.0
C666 C 1.01973 0.60397 0.83161 0.0
C667 C 0.94687 0.79508 0.74084 0.0
H668 H 0.18277 0.7551 0.71044 0.0
H669 H 0.0742 0.63621 0.60668 0.0
H670 H 0.15296 0.75627 0.82237 0.0
H671 H 0.10016 0.80985 0.79395 0.0
H672 H 0.07023 0.75359 0.84232 0.0
H673 H 0.97178 0.6103 0.6306 0.0
H674 H 0.95915 0.5986 0.70931 0.0
H675 H 0.93028 0.66333 0.67541 0.0
H676 H 0.915 0.62025 0.8984 0.0
H677 H 0.86118 0.7875 0.83147 0.0
H678 H 0.06745 0.62179 0.83993 0.0
H679 H 0.02274 0.57929 0.78932 0.0
H680 H 1.00736 0.5735 0.86841 0.0
H681 H 0.98936 0.82079 0.75164 0.0
H682 H 0.90525 0.82449 0.74128 0.0
H683 H 0.95363 0.77761 0.69499 0.0
loop_
_geom_bond_atom_site_label_1
_geom_bond_atom_site_label_2
_geom_bond_distance
_geom_bond_site_symmetry_2
_ccdc_geom_bond_type
Co0 N1 2.024 1_455 S
Co0 O15 2.262 1_554 S
Co0 O19 1.958 . S
Co0 O23 1.950 1_554 S
Co0 O24 2.057 1_554 S
N1 Co0 2.024 1_655 S
N1 C2 1.373 . S
N1 C4 1.338 1_554 S
C2 N1 1.373 . S
C2 C5 1.377 . S
C2 H34 0.931 . S
N3 C4 1.345 1_554 S
N3 C5 1.340 . S
C4 N1 1.338 1_556 S
C4 N3 1.345 1_556 S
C4 C38 1.361 . S
C5 C2 1.377 . S
C5 N3 1.340 . S
C5 H41 0.930 . S
Co6 N7 2.034 1_554 S
Co6 O20 1.950 1_554 S
Co6 O21 2.262 . S
Co6 O22 1.958 . S
Co6 O26 2.057 . S
N7 Co6 2.034 1_556 S
N7 C10 1.366 . S
N7 C11 1.332 . S
N8 C9 1.337 . S
N8 C11 1.346 . S
C9 N8 1.337 . S
C9 C10 1.377 . S
C9 H42 0.930 . S
C10 N7 1.366 . S
C10 C9 1.377 . S
C10 H14 0.931 . S
C11 N7 1.332 . S
C11 N8 1.346 . S
C11 C28 1.361 . S
Co12 O15 2.097 1_554 S
Co12 O16 2.065 1_554 S
Co12 O17 2.065 . S
Co12 O18 2.042 . S
Co12 O21 2.097 . S
Co12 O25 2.042 1_554 S
C13 O21 1.253 . S
C13 O26 1.263 . S
H14 C10 0.931 . S
O15 Co0 2.262 1_556 S
O15 Co12 2.097 1_556 S
O15 C39 1.253 . S
O16 Co12 2.065 1_556 S
O16 C32 1.221 . S
O17 Co12 2.065 . S
O17 C27 1.221 . S
O18 Co12 2.042 . S
O18 C33 1.237 . S
O19 Co0 1.958 . S
O19 C33 1.278 . S
O20 Co6 1.950 1_556 S
O20 C32 1.277 . S
O21 Co6 2.262 . S
O21 Co12 2.097 . S
O21 C13 1.253 . S
O22 Co6 1.958 . S
O22 C40 1.278 . S
O23 Co0 1.950 1_556 S
O23 C27 1.277 1_556 S
O24 Co0 2.057 1_556 S
O24 C39 1.263 . S
O25 Co12 2.042 1_556 S
O25 C40 1.237 1_556 S
O26 Co6 2.057 . S
O26 C13 1.263 . S
C27 O17 1.221 . S
C27 O23 1.277 1_554 S
C28 C11 1.361 . S
C28 H29 0.960 . S
C28 H30 0.961 . S
C28 H31 0.961 1_556 S
H29 C28 0.960 . S
H30 C28 0.961 . S
H31 C28 0.961 1_554 S
C32 O16 1.221 . S
C32 O20 1.277 . S
C33 O18 1.237 . S
C33 O19 1.278 . S
H34 C2 0.931 . S
H35 C38 0.961 . S
H36 C38 0.961 . S
H37 C38 0.960 1_455 S
C38 C4 1.361 . S
C38 H35 0.961 . S
C38 H36 0.961 . S
C38 H37 0.960 1_655 S
C39 O15 1.253 . S
C39 O24 1.263 . S
C40 O22 1.278 . S
C40 O25 1.237 1_554 S
H41 C5 0.930 . S
H42 C9 0.930 . S
Co43 N44 2.034 . S
Co43 O58 2.262 1_554 S
Co43 O62 1.958 . S
Co43 O66 1.950 1_554 S
Co43 O67 2.057 1_554 S
N44 Co43 2.034 . S
N44 C45 1.366 . S
N44 C47 1.332 1_554 S
C45 N44 1.366 . S
C45 C48 1.377 . S
C45 H77 0.931 . S
N46 C47 1.345 1_554 S
N46 C48 1.340 . S
C47 N44 1.332 1_556 S
C47 N46 1.345 1_556 S
C47 C81 1.361 . S
C48 C45 1.377 . S
C48 N46 1.340 . S
C48 H84 0.930 . S
Co49 N50 2.034 1_554 S
Co49 O63 1.950 1_554 S
Co49 O64 2.262 . S
Co49 O65 1.958 . S
Co49 O69 2.057 . S
N50 Co49 2.034 1_556 S
N50 C53 1.366 1_655 S
N50 C54 1.332 1_655 S
N51 C52 1.337 . S
N51 C54 1.346 . S
C52 N51 1.337 . S
C52 C53 1.377 . S
C52 H85 0.930 . S
C53 N50 1.366 1_455 S
C53 C52 1.377 . S
C53 H57 0.931 1_455 S
C54 N50 1.332 1_455 S
C54 N51 1.346 . S
C54 C71 1.361 . S
Co55 O58 2.097 1_554 S
Co55 O59 2.065 1_554 S
Co55 O60 2.065 . S
Co55 O61 2.042 . S
Co55 O64 2.097 . S
Co55 O68 2.042 1_554 S
C56 O64 1.253 . S
C56 O69 1.263 . S
H57 C53 0.931 1_655 S
O58 Co43 2.262 1_556 S
O58 Co55 2.097 1_556 S
O58 C82 1.253 . S
O59 Co55 2.065 1_556 S
O59 C75 1.221 . S
O60 Co55 2.065 . S
O60 C70 1.221 . S
O61 Co55 2.042 . S
O61 C76 1.237 . S
O62 Co43 1.958 . S
O62 C76 1.278 . S
O63 Co49 1.950 1_556 S
O63 C75 1.277 . S
O64 Co49 2.262 . S
O64 Co55 2.097 . S
O64 C56 1.253 . S
O65 Co49 1.958 . S
O65 C83 1.278 . S
O66 Co43 1.950 1_556 S
O66 C70 1.277 1_556 S
O67 Co43 2.057 1_556 S
O67 C82 1.263 . S
O68 Co55 2.042 1_556 S
O68 C83 1.237 1_556 S
O69 Co49 2.057 . S
O69 C56 1.263 . S
C70 O60 1.221 . S
C70 O66 1.277 1_554 S
C71 C54 1.361 . S
C71 H72 0.960 1_455 S
C71 H73 0.961 . S
C71 H74 0.961 1_556 S
H72 C71 0.960 1_655 S
H73 C71 0.961 . S
H74 C71 0.961 1_554 S
C75 O59 1.221 . S
C75 O63 1.277 . S
C76 O61 1.237 . S
C76 O62 1.278 . S
H77 C45 0.931 . S
H78 C81 0.961 . S
H79 C81 0.961 . S
H80 C81 0.960 . S
C81 C47 1.361 . S
C81 H78 0.961 . S
C81 H79 0.961 . S
C81 H80 0.960 . S
C82 O58 1.253 . S
C82 O67 1.263 . S
C83 O65 1.278 . S
C83 O68 1.237 1_554 S
H84 C48 0.930 . S
H85 C52 0.930 . S
Co86 N87 2.034 . S
Co86 O101 2.262 . S
Co86 O105 1.958 . S
Co86 O109 1.950 . S
Co86 O110 2.057 . S
N87 Co86 2.034 . S
N87 C88 1.366 . S
N87 C90 1.332 . S
C88 N87 1.366 . S
C88 C91 1.377 . S
C88 H120 0.931 . S
N89 C90 1.346 . S
N89 C91 1.337 . S
C90 N87 1.332 . S
C90 N89 1.346 . S
C90 C124 1.361 . S
C91 C88 1.377 . S
C91 N89 1.337 . S
C91 H127 0.930 . S
Co92 N93 2.034 . S
Co92 O106 1.950 . S
Co92 O107 2.262 . S
Co92 O108 1.958 . S
Co92 O112 2.057 . S
N93 Co92 2.034 . S
N93 C96 1.366 1_455 S
N93 C97 1.332 1_455 S
N94 C95 1.337 . S
N94 C97 1.346 . S
C95 N94 1.337 . S
C95 C96 1.377 . S
C95 H128 0.930 . S
C96 N93 1.366 1_655 S
C96 C95 1.377 . S
C96 H100 0.931 1_655 S
C97 N93 1.332 1_655 S
C97 N94 1.346 . S
C97 C114 1.361 . S
Co98 O101 2.097 . S
Co98 O102 2.065 . S
Co98 O103 2.065 . S
Co98 O104 2.042 . S
Co98 O107 2.097 . S
Co98 O111 2.042 . S
C99 O107 1.253 . S
C99 O112 1.263 . S
H100 C96 0.931 1_455 S
O101 Co86 2.262 . S
O101 Co98 2.097 . S
O101 C125 1.253 . S
O102 Co98 2.065 . S
O102 C118 1.221 . S
O103 Co98 2.065 . S
O103 C113 1.221 . S
O104 Co98 2.042 . S
O104 C119 1.237 . S
O105 Co86 1.958 . S
O105 C119 1.278 . S
O106 Co92 1.950 . S
O106 C118 1.277 . S
O107 Co92 2.262 . S
O107 Co98 2.097 . S
O107 C99 1.253 . S
O108 Co92 1.958 . S
O108 C126 1.278 . S
O109 Co86 1.950 . S
O109 C113 1.277 . S
O110 Co86 2.057 . S
O110 C125 1.263 . S
O111 Co98 2.042 . S
O111 C126 1.237 . S
O112 Co92 2.057 . S
O112 C99 1.263 . S
C113 O103 1.221 . S
C113 O109 1.277 . S
C114 C97 1.361 . S
C114 H115 0.960 1_655 S
C114 H116 0.961 . S
C114 H117 0.961 . S
H115 C114 0.960 1_455 S
H116 C114 0.961 . S
H117 C114 0.961 . S
C118 O102 1.221 . S
C118 O106 1.277 . S
C119 O104 1.237 . S
C119 O105 1.278 . S
H120 C88 0.931 . S
H121 C124 0.961 . S
H122 C124 0.961 . S
H123 C124 0.960 . S
C124 C90 1.361 . S
C124 H121 0.961 . S
C124 H122 0.961 . S
C124 H123 0.960 . S
C125 O101 1.253 . S
C125 O110 1.263 . S
C126 O108 1.278 . S
C126 O111 1.237 . S
H127 C91 0.930 . S
H128 C95 0.930 . S
Co129 N130 2.034 . S
Co129 O144 2.262 . S
Co129 O148 1.958 . S
Co129 O152 1.950 . S
Co129 O153 2.057 . S
N130 Co129 2.034 . S
N130 C131 1.366 . S
N130 C133 1.332 . S
C131 N130 1.366 . S
C131 C134 1.377 . S
C131 H163 0.931 . S
N132 C133 1.346 . S
N132 C134 1.337 . S
C133 N130 1.332 . S
C133 N132 1.346 . S
C133 C167 1.361 . S
C134 C131 1.377 . S
C134 N132 1.337 . S
C134 H170 0.930 . S
Co135 N136 2.024 1_655 S
Co135 O149 1.950 . S
Co135 O150 2.262 . S
Co135 O151 1.958 . S
Co135 O155 2.057 . S
N136 Co135 2.024 1_455 S
N136 C139 1.373 . S
N136 C140 1.338 . S
N137 C138 1.337 . S
N137 C140 1.346 . S
C138 N137 1.337 . S
C138 C139 1.377 . S
C138 H171 0.930 . S
C139 N136 1.373 . S
C139 C138 1.377 . S
C139 H143 0.931 . S
C140 N136 1.338 . S
C140 N137 1.346 . S
C140 C157 1.361 . S
Co141 O144 2.097 . S
Co141 O145 2.065 . S
Co141 O146 2.065 . S
Co141 O147 2.042 . S
Co141 O150 2.097 . S
Co141 O154 2.042 . S
C142 O150 1.253 . S
C142 O155 1.263 . S
H143 C139 0.931 . S
O144 Co129 2.262 . S
O144 Co141 2.097 . S
O144 C168 1.253 . S
O145 Co141 2.065 . S
O145 C161 1.221 . S
O146 Co141 2.065 . S
O146 C156 1.221 . S
O147 Co141 2.042 . S
O147 C162 1.237 . S
O148 Co129 1.958 . S
O148 C162 1.278 . S
O149 Co135 1.950 . S
O149 C161 1.277 . S
O150 Co135 2.262 . S
O150 Co141 2.097 . S
O150 C142 1.253 . S
O151 Co135 1.958 . S
O151 C169 1.278 . S
O152 Co129 1.950 . S
O152 C156 1.277 . S
O153 Co129 2.057 . S
O153 C168 1.263 . S
O154 Co141 2.042 . S
O154 C169 1.237 . S
O155 Co135 2.057 . S
O155 C142 1.263 . S
C156 O146 1.221 . S
C156 O152 1.277 . S
C157 C140 1.361 . S
C157 H158 0.960 1_455 S
C157 H159 0.961 . S
C157 H160 0.961 . S
H158 C157 0.960 1_655 S
H159 C157 0.961 . S
H160 C157 0.961 . S
C161 O145 1.221 . S
C161 O149 1.277 . S
C162 O147 1.237 . S
C162 O148 1.278 . S
H163 C131 0.931 . S
H164 C167 0.961 . S
H165 C167 0.961 . S
H166 C167 0.960 . S
C167 C133 1.361 . S
C167 H164 0.961 . S
C167 H165 0.961 . S
C167 H166 0.960 . S
C168 O144 1.253 . S
C168 O153 1.263 . S
C169 O151 1.278 . S
C169 O154 1.237 . S
H170 C134 0.930 . S
H171 C138 0.930 . S
C172 C173 1.391 . S
C172 C174 1.394 . S
C172 H188 0.931 . S
C173 C172 1.391 . S
C173 C177 1.376 1_554 S
C174 C172 1.394 . S
C174 C175 1.369 1_554 S
C174 C178 1.531 . S
C175 C174 1.369 1_556 S
C175 C176 1.410 . S
C175 C183 1.503 . S
C176 C175 1.410 . S
C176 C177 1.392 . S
C176 C179 1.511 . S
C177 C173 1.376 1_556 S
C177 C176 1.392 . S
C177 H189 0.929 . S
C178 C174 1.531 . S
C178 H190 0.960 . S
C178 H191 0.962 . S
C178 H192 0.960 . S
C179 C176 1.511 . S
C179 H193 0.961 . S
C179 H194 0.961 . S
C179 H195 0.961 . S
C180 C181 1.370 . S
C180 C182 1.363 . S
C180 H196 0.931 . S
C181 C180 1.370 . S
C181 C185 1.408 . S
C182 C180 1.363 . S
C182 C183 1.370 . S
C182 C186 1.524 . S
C183 C175 1.503 . S
C183 C182 1.370 . S
C183 C184 1.402 . S
C184 C183 1.402 . S
C184 C185 1.404 . S
C184 C187 1.540 1_556 S
C185 C181 1.408 . S
C185 C184 1.404 . S
C185 H197 0.932 . S
C186 C182 1.524 . S
C186 H198 0.956 1_556 S
C186 H199 0.961 . S
C186 H200 0.961 . S
C187 C184 1.540 1_554 S
C187 H201 0.958 . S
C187 H202 0.961 1_554 S
C187 H203 0.960 1_554 S
H188 C172 0.931 . S
H189 C177 0.929 . S
H190 C178 0.960 . S
H191 C178 0.962 . S
H192 C178 0.960 . S
H193 C179 0.961 . S
H194 C179 0.961 . S
H195 C179 0.961 . S
H196 C180 0.931 . S
H197 C185 0.932 . S
H198 C186 0.956 1_554 S
H199 C186 0.961 . S
H200 C186 0.961 . S
H201 C187 0.958 . S
H202 C187 0.961 1_556 S
H203 C187 0.960 1_556 S
C204 C205 1.391 . S
C204 C206 1.394 . S
C204 H220 0.931 . S
C205 C204 1.391 . S
C205 C209 1.376 1_556 S
C206 C204 1.394 . S
C206 C207 1.369 . S
C206 C210 1.531 . S
C207 C206 1.369 . S
C207 C208 1.410 . S
C207 C215 1.503 . S
C208 C207 1.410 . S
C208 C209 1.392 1_556 S
C208 C211 1.511 . S
C209 C205 1.376 1_554 S
C209 C208 1.392 1_554 S
C209 H221 0.929 . S
C210 C206 1.531 . S
C210 H222 0.960 . S
C210 H223 0.962 . S
C210 H224 0.960 . S
C211 C208 1.511 . S
C211 H225 0.961 1_556 S
C211 H226 0.961 1_556 S
C211 H227 0.961 . S
C212 C213 1.370 1_554 S
C212 C214 1.363 . S
C212 H228 0.931 . S
C213 C212 1.370 1_556 S
C213 C217 1.408 . S
C214 C212 1.363 . S
C214 C215 1.370 1_554 S
C214 C218 1.524 . S
C215 C207 1.503 . S
C215 C214 1.370 1_556 S
C215 C216 1.403 . S
C216 C215 1.403 . S
C216 C217 1.404 . S
C216 C219 1.539 . S
C217 C213 1.408 . S
C217 C216 1.404 . S
C217 H229 0.930 . S
C218 C214 1.524 . S
C218 H230 0.956 . S
C218 H231 0.961 . S
C218 H232 0.961 . S
C219 C216 1.539 . S
C219 H233 0.958 . S
C219 H234 0.961 . S
C219 H235 0.960 . S
H220 C204 0.931 . S
H221 C209 0.929 . S
H222 C210 0.960 . S
H223 C210 0.962 . S
H224 C210 0.960 . S
H225 C211 0.961 1_554 S
H226 C211 0.961 1_554 S
H227 C211 0.961 . S
H228 C212 0.931 . S
H229 C217 0.930 . S
H230 C218 0.956 . S
H231 C218 0.961 . S
H232 C218 0.961 . S
H233 C219 0.958 . S
H234 C219 0.961 . S
H235 C219 0.960 . S
C236 C237 1.391 . S
C236 C238 1.394 . S
C236 H252 0.931 . S
C237 C236 1.391 . S
C237 C241 1.376 . S
C238 C236 1.394 . S
C238 C239 1.369 . S
C238 C242 1.531 . S
C239 C238 1.369 . S
C239 C240 1.410 . S
C239 C247 1.503 . S
C240 C239 1.410 . S
C240 C241 1.392 . S
C240 C243 1.511 . S
C241 C237 1.376 . S
C241 C240 1.392 . S
C241 H253 0.929 . S
C242 C238 1.531 . S
C242 H254 0.960 . S
C242 H255 0.962 . S
C242 H256 0.960 . S
C243 C240 1.511 . S
C243 H257 0.961 . S
C243 H258 0.961 . S
C243 H259 0.961 . S
C244 C245 1.370 . S
C244 C246 1.363 . S
C244 H260 0.931 . S
C245 C244 1.370 . S
C245 C249 1.408 . S
C246 C244 1.363 . S
C246 C247 1.370 . S
C246 C250 1.524 . S
C247 C239 1.503 . S
C247 C246 1.370 . S
C247 C248 1.403 . S
C248 C247 1.403 . S
C248 C249 1.404 . S
C248 C251 1.539 . S
C249 C245 1.408 . S
C249 C248 1.404 . S
C249 H261 0.930 . S
C250 C246 1.524 . S
C250 H262 0.956 . S
C250 H263 0.961 . S
C250 H264 0.961 . S
C251 C248 1.539 . S
C251 H265 0.958 . S
C251 H266 0.961 . S
C251 H267 0.960 . S
H252 C236 0.931 . S
H253 C241 0.929 . S
H254 C242 0.960 . S
H255 C242 0.962 . S
H256 C242 0.960 . S
H257 C243 0.961 . S
H258 C243 0.961 . S
H259 C243 0.961 . S
H260 C244 0.931 . S
H261 C249 0.930 . S
H262 C250 0.956 . S
H263 C250 0.961 . S
H264 C250 0.961 . S
H265 C251 0.958 . S
H266 C251 0.961 . S
H267 C251 0.960 . S
C268 C269 1.391 . S
C268 C270 1.394 . S
C268 H284 0.931 . S
C269 C268 1.391 . S
C269 C273 1.376 . S
C270 C268 1.394 . S
C270 C271 1.369 . S
C270 C274 1.531 . S
C271 C270 1.369 . S
C271 C272 1.410 . S
C271 C279 1.503 . S
C272 C271 1.410 . S
C272 C273 1.392 . S
C272 C275 1.511 . S
C273 C269 1.376 . S
C273 C272 1.392 . S
C273 H285 0.929 . S
C274 C270 1.531 . S
C274 H286 0.960 . S
C274 H287 0.962 . S
C274 H288 0.960 . S
C275 C272 1.511 . S
C275 H289 0.961 . S
C275 H290 0.961 . S
C275 H291 0.961 . S
C276 C277 1.370 . S
C276 C278 1.363 . S
C276 H292 0.931 . S
C277 C276 1.370 . S
C277 C281 1.408 . S
C278 C276 1.363 . S
C278 C279 1.370 . S
C278 C282 1.524 . S
C279 C271 1.503 . S
C279 C278 1.370 . S
C279 C280 1.403 . S
C280 C279 1.403 . S
C280 C281 1.404 . S
C280 C283 1.539 . S
C281 C277 1.408 . S
C281 C280 1.404 . S
C281 H293 0.930 . S
C282 C278 1.524 . S
C282 H294 0.956 . S
C282 H295 0.961 . S
C282 H296 0.961 . S
C283 C280 1.539 . S
C283 H297 0.958 . S
C283 H298 0.961 . S
C283 H299 0.960 . S
H284 C268 0.931 . S
H285 C273 0.929 . S
H286 C274 0.960 . S
H287 C274 0.962 . S
H288 C274 0.960 . S
H289 C275 0.961 . S
H290 C275 0.961 . S
H291 C275 0.961 . S
H292 C276 0.931 . S
H293 C281 0.930 . S
H294 C282 0.956 . S
H295 C282 0.961 . S
H296 C282 0.961 . S
H297 C283 0.958 . S
H298 C283 0.961 . S
H299 C283 0.960 . S
C300 C301 1.391 . S
C300 C302 1.394 . S
C300 H316 0.931 . S
C301 C300 1.391 . S
C301 C305 1.376 1_556 S
C302 C300 1.394 . S
C302 C303 1.369 . S
C302 C306 1.531 . S
C303 C302 1.369 . S
C303 C304 1.410 1_556 S
C303 C311 1.503 . S
C304 C303 1.410 1_554 S
C304 C305 1.392 . S
C304 C307 1.511 . S
C305 C301 1.376 1_554 S
C305 C304 1.392 . S
C305 H317 0.929 . S
C306 C302 1.531 . S
C306 H318 0.960 . S
C306 H319 0.962 . S
C306 H320 0.960 . S
C307 C304 1.511 . S
C307 H321 0.961 . S
C307 H322 0.961 . S
C307 H323 0.961 . S
C308 C309 1.370 . S
C308 C310 1.363 . S
C308 H324 0.931 . S
C309 C308 1.370 . S
C309 C313 1.408 1_554 S
C310 C308 1.363 . S
C310 C311 1.370 1_554 S
C310 C314 1.524 . S
C311 C303 1.503 . S
C311 C310 1.370 1_556 S
C311 C312 1.403 . S
C312 C311 1.403 . S
C312 C313 1.404 . S
C312 C315 1.539 . S
C313 C309 1.408 1_556 S
C313 C312 1.404 . S
C313 H325 0.930 . S
C314 C310 1.524 . S
C314 H326 0.956 1_554 S
C314 H327 0.961 . S
C314 H328 0.961 . S
C315 C312 1.539 . S
C315 H329 0.958 . S
C315 H330 0.961 1_556 S
C315 H331 0.960 1_556 S
H316 C300 0.931 . S
H317 C305 0.929 . S
H318 C306 0.960 . S
H319 C306 0.962 . S
H320 C306 0.960 . S
H321 C307 0.961 . S
H322 C307 0.961 . S
H323 C307 0.961 . S
H324 C308 0.931 . S
H325 C313 0.930 . S
H326 C314 0.956 1_556 S
H327 C314 0.961 . S
H328 C314 0.961 . S
H329 C315 0.958 . S
H330 C315 0.961 1_554 S
H331 C315 0.960 1_554 S
C332 C333 1.391 . S
C332 C334 1.394 . S
C332 H348 0.931 . S
C333 C332 1.391 . S
C333 C337 1.376 . S
C334 C332 1.394 . S
C334 C335 1.369 . S
C334 C338 1.531 . S
C335 C334 1.369 . S
C335 C336 1.410 . S
C335 C343 1.503 . S
C336 C335 1.410 . S
C336 C337 1.392 . S
C336 C339 1.511 . S
C337 C333 1.376 . S
C337 C336 1.392 . S
C337 H349 0.929 . S
C338 C334 1.531 . S
C338 H350 0.960 . S
C338 H351 0.962 . S
C338 H352 0.960 . S
C339 C336 1.511 . S
C339 H353 0.961 . S
C339 H354 0.961 . S
C339 H355 0.961 . S
C340 C341 1.370 . S
C340 C342 1.363 . S
C340 H356 0.931 . S
C341 C340 1.370 . S
C341 C345 1.408 . S
C342 C340 1.363 . S
C342 C343 1.370 . S
C342 C346 1.524 . S
C343 C335 1.503 . S
C343 C342 1.370 . S
C343 C344 1.403 . S
C344 C343 1.403 . S
C344 C345 1.404 . S
C344 C347 1.539 . S
C345 C341 1.408 . S
C345 C344 1.404 . S
C345 H357 0.930 . S
C346 C342 1.524 . S
C346 H358 0.956 . S
C346 H359 0.961 . S
C346 H360 0.961 . S
C347 C344 1.539 . S
C347 H361 0.958 . S
C347 H362 0.961 . S
C347 H363 0.960 . S
H348 C332 0.931 . S
H349 C337 0.929 . S
H350 C338 0.960 . S
H351 C338 0.962 . S
H352 C338 0.960 . S
H353 C339 0.961 . S
H354 C339 0.961 . S
H355 C339 0.961 . S
H356 C340 0.931 . S
H357 C345 0.930 . S
H358 C346 0.956 . S
H359 C346 0.961 . S
H360 C346 0.961 . S
H361 C347 0.958 . S
H362 C347 0.961 . S
H363 C347 0.960 . S
C364 C365 1.376 1_556 S
C364 C366 1.394 . S
C364 H380 0.931 . S
C365 C364 1.376 1_554 S
C365 C369 1.391 . S
C366 C364 1.394 . S
C366 C367 1.369 1_556 S
C366 C370 1.531 1_545 S
C367 C366 1.369 1_554 S
C367 C368 1.410 . S
C367 C375 1.503 1_445 S
C368 C367 1.410 . S
C368 C369 1.392 . S
C368 C371 1.511 . S
C369 C365 1.391 . S
C369 C368 1.392 . S
C369 H381 0.929 . S
C370 C366 1.531 1_565 S
C370 H382 0.960 . S
C370 H383 0.962 1_565 S
C370 H384 0.960 . S
C371 C368 1.511 . S
C371 H385 0.961 . S
C371 H386 0.961 1_455 S
C371 H387 0.959 . S
C372 C373 1.370 1_556 S
C372 C374 1.363 1_565 S
C372 H388 0.931 1_565 S
C373 C372 1.370 1_554 S
C373 C377 1.408 . S
C374 C372 1.363 1_545 S
C374 C375 1.370 1_546 S
C374 C378 1.524 . S
C375 C367 1.503 1_665 S
C375 C374 1.370 1_564 S
C375 C376 1.403 . S
C376 C375 1.403 . S
C376 C377 1.404 . S
C376 C379 1.539 1_655 S
C377 C373 1.408 . S
C377 C376 1.404 . S
C377 H389 0.930 . S
C378 C374 1.524 . S
C378 H390 0.956 . S
C378 H391 0.961 1_556 S
C378 H392 0.961 . S
C379 C376 1.539 1_455 S
C379 H393 0.954 1_554 S
C379 H394 0.961 . S
C379 H395 0.960 . S
H380 C364 0.931 . S
H381 C369 0.929 . S
H382 C370 0.960 . S
H383 C370 0.962 1_545 S
H384 C370 0.960 . S
H385 C371 0.961 . S
H386 C371 0.961 1_655 S
H387 C371 0.959 . S
H388 C372 0.931 1_545 S
H389 C377 0.930 . S
H390 C378 0.956 . S
H391 C378 0.961 1_554 S
H392 C378 0.961 . S
H393 C379 0.954 1_556 S
H394 C379 0.961 . S
H395 C379 0.960 . S
C396 C397 1.391 . S
C396 C398 1.394 1_545 S
C396 H412 0.931 . S
C397 C396 1.391 . S
C397 C401 1.376 . S
C398 C396 1.394 1_565 S
C398 C399 1.369 1_565 S
C398 C402 1.531 . S
C399 C398 1.369 1_545 S
C399 C400 1.410 . S
C399 C407 1.503 1_645 S
C400 C399 1.410 . S
C400 C401 1.392 . S
C400 C403 1.511 1_655 S
C401 C397 1.376 . S
C401 C400 1.392 . S
C401 H413 0.929 . S
C402 C398 1.531 . S
C402 H414 0.960 . S
C402 H415 0.962 . S
C402 H416 0.960 . S
C403 C400 1.511 1_455 S
C403 H417 0.961 . S
C403 H418 0.961 . S
C403 H419 0.961 . S
C404 C405 1.370 . S
C404 C406 1.363 . S
C404 H420 0.931 . S
C405 C404 1.370 . S
C405 C409 1.408 . S
C406 C404 1.363 . S
C406 C407 1.370 . S
C406 C410 1.524 . S
C407 C399 1.503 1_465 S
C407 C406 1.370 . S
C407 C408 1.403 . S
C408 C407 1.403 . S
C408 C409 1.404 . S
C408 C411 1.539 1_565 S
C409 C405 1.408 . S
C409 C408 1.404 . S
C409 H421 0.930 . S
C410 C406 1.524 . S
C410 H422 0.956 1_455 S
C410 H423 0.961 1_565 S
C410 H424 0.961 . S
C411 C408 1.539 1_545 S
C411 H425 0.958 1_545 S
C411 H426 0.961 . S
C411 H427 0.960 . S
H412 C396 0.931 . S
H413 C401 0.929 . S
H414 C402 0.960 . S
H415 C402 0.962 . S
H416 C402 0.960 . S
H417 C403 0.961 . S
H418 C403 0.961 . S
H419 C403 0.961 . S
H420 C404 0.931 . S
H421 C409 0.930 . S
H422 C410 0.956 1_655 S
H423 C410 0.961 1_545 S
H424 C410 0.961 . S
H425 C411 0.958 1_565 S
H426 C411 0.961 . S
H427 C411 0.960 . S
C428 C429 1.391 . S
C428 C430 1.394 . S
C428 H444 0.931 . S
C429 C428 1.391 . S
C429 C433 1.376 . S
C430 C428 1.394 . S
C430 C431 1.369 . S
C430 C434 1.531 . S
C431 C430 1.369 . S
C431 C432 1.410 . S
C431 C439 1.503 . S
C432 C431 1.410 . S
C432 C433 1.392 . S
C432 C435 1.511 . S
C433 C429 1.376 . S
C433 C432 1.392 . S
C433 H445 0.929 . S
C434 C430 1.531 . S
C434 H446 0.960 . S
C434 H447 0.962 . S
C434 H448 0.960 . S
C435 C432 1.511 . S
C435 H449 0.961 . S
C435 H450 0.961 . S
C435 H451 0.961 . S
C436 C437 1.370 . S
C436 C438 1.363 . S
C436 H452 0.931 . S
C437 C436 1.370 . S
C437 C441 1.408 . S
C438 C436 1.363 . S
C438 C439 1.370 . S
C438 C442 1.524 . S
C439 C431 1.503 . S
C439 C438 1.370 . S
C439 C440 1.403 . S
C440 C439 1.403 . S
C440 C441 1.404 . S
C440 C443 1.539 . S
C441 C437 1.408 . S
C441 C440 1.404 . S
C441 H453 0.930 . S
C442 C438 1.524 . S
C442 H454 0.956 . S
C442 H455 0.961 . S
C442 H456 0.961 . S
C443 C440 1.539 . S
C443 H457 0.958 . S
C443 H458 0.961 . S
C443 H459 0.960 . S
H444 C428 0.931 . S
H445 C433 0.929 . S
H446 C434 0.960 . S
H447 C434 0.962 . S
H448 C434 0.960 . S
H449 C435 0.961 . S
H450 C435 0.961 . S
H451 C435 0.961 . S
H452 C436 0.931 . S
H453 C441 0.930 . S
H454 C442 0.956 . S
H455 C442 0.961 . S
H456 C442 0.961 . S
H457 C443 0.958 . S
H458 C443 0.961 . S
H459 C443 0.960 . S
C460 C461 1.391 . S
C460 C462 1.394 . S
C460 H476 0.931 . S
C461 C460 1.391 . S
C461 C465 1.376 . S
C462 C460 1.394 . S
C462 C463 1.369 . S
C462 C466 1.531 . S
C463 C462 1.369 . S
C463 C464 1.410 . S
C463 C471 1.503 . S
C464 C463 1.410 . S
C464 C465 1.392 . S
C464 C467 1.511 . S
C465 C461 1.376 . S
C465 C464 1.392 . S
C465 H477 0.929 . S
C466 C462 1.531 . S
C466 H478 0.960 . S
C466 H479 0.962 . S
C466 H480 0.960 . S
C467 C464 1.511 . S
C467 H481 0.961 . S
C467 H482 0.961 . S
C467 H483 0.961 . S
C468 C469 1.370 . S
C468 C470 1.363 . S
C468 H484 0.931 . S
C469 C468 1.370 . S
C469 C473 1.408 . S
C470 C468 1.363 . S
C470 C471 1.370 . S
C470 C474 1.524 . S
C471 C463 1.503 . S
C471 C470 1.370 . S
C471 C472 1.403 . S
C472 C471 1.403 . S
C472 C473 1.404 . S
C472 C475 1.539 . S
C473 C469 1.408 . S
C473 C472 1.404 . S
C473 H485 0.930 . S
C474 C470 1.524 . S
C474 H486 0.956 . S
C474 H487 0.961 . S
C474 H488 0.961 . S
C475 C472 1.539 . S
C475 H489 0.958 . S
C475 H490 0.961 . S
C475 H491 0.960 . S
H476 C460 0.931 . S
H477 C465 0.929 . S
H478 C466 0.960 . S
H479 C466 0.962 . S
H480 C466 0.960 . S
H481 C467 0.961 . S
H482 C467 0.961 . S
H483 C467 0.961 . S
H484 C468 0.931 . S
H485 C473 0.930 . S
H486 C474 0.956 . S
H487 C474 0.961 . S
H488 C474 0.961 . S
H489 C475 0.958 . S
H490 C475 0.961 . S
H491 C475 0.960 . S
C492 C493 1.391 . S
C492 C494 1.394 . S
C492 H508 0.931 . S
C493 C492 1.391 . S
C493 C497 1.376 . S
C494 C492 1.394 . S
C494 C495 1.369 . S
C494 C498 1.531 . S
C495 C494 1.369 . S
C495 C496 1.410 . S
C495 C503 1.503 . S
C496 C495 1.410 . S
C496 C497 1.392 . S
C496 C499 1.511 . S
C497 C493 1.376 . S
C497 C496 1.392 . S
C497 H509 0.929 . S
C498 C494 1.531 . S
C498 H510 0.960 . S
C498 H511 0.962 . S
C498 H512 0.960 . S
C499 C496 1.511 . S
C499 H513 0.961 . S
C499 H514 0.961 . S
C499 H515 0.961 . S
C500 C501 1.370 . S
C500 C502 1.363 . S
C500 H516 0.931 . S
C501 C500 1.370 . S
C501 C505 1.408 . S
C502 C500 1.363 . S
C502 C503 1.370 . S
C502 C506 1.524 . S
C503 C495 1.503 . S
C503 C502 1.370 . S
C503 C504 1.403 . S
C504 C503 1.403 . S
C504 C505 1.404 . S
C504 C507 1.539 . S
C505 C501 1.408 . S
C505 C504 1.404 . S
C505 H517 0.930 . S
C506 C502 1.524 . S
C506 H518 0.956 . S
C506 H519 0.961 . S
C506 H520 0.961 . S
C507 C504 1.539 . S
C507 H521 0.958 . S
C507 H522 0.961 . S
C507 H523 0.960 . S
H508 C492 0.931 . S
H509 C497 0.929 . S
H510 C498 0.960 . S
H511 C498 0.962 . S
H512 C498 0.960 . S
H513 C499 0.961 . S
H514 C499 0.961 . S
H515 C499 0.961 . S
H516 C500 0.931 . S
H517 C505 0.930 . S
H518 C506 0.956 . S
H519 C506 0.961 . S
H520 C506 0.961 . S
H521 C507 0.958 . S
H522 C507 0.961 . S
H523 C507 0.960 . S
C524 C525 1.391 . S
C524 C526 1.394 . S
C524 H540 0.931 . S
C525 C524 1.391 . S
C525 C529 1.376 . S
C526 C524 1.394 . S
C526 C527 1.369 . S
C526 C530 1.531 . S
C527 C526 1.369 . S
C527 C528 1.410 . S
C527 C535 1.503 . S
C528 C527 1.410 . S
C528 C529 1.392 . S
C528 C531 1.511 . S
C529 C525 1.376 . S
C529 C528 1.392 . S
C529 H541 0.929 . S
C530 C526 1.531 . S
C530 H542 0.960 . S
C530 H543 0.962 . S
C530 H544 0.960 . S
C531 C528 1.511 . S
C531 H545 0.961 . S
C531 H546 0.961 . S
C531 H547 0.961 . S
C532 C533 1.370 . S
C532 C534 1.363 . S
C532 H548 0.931 . S
C533 C532 1.370 . S
C533 C537 1.408 . S
C534 C532 1.363 . S
C534 C535 1.370 . S
C534 C538 1.524 . S
C535 C527 1.503 . S
C535 C534 1.370 . S
C535 C536 1.403 . S
C536 C535 1.403 . S
C536 C537 1.404 . S
C536 C539 1.539 . S
C537 C533 1.408 . S
C537 C536 1.404 . S
C537 H549 0.930 . S
C538 C534 1.524 . S
C538 H550 0.956 . S
C538 H551 0.961 . S
C538 H552 0.961 . S
C539 C536 1.539 . S
C539 H553 0.958 . S
C539 H554 0.961 . S
C539 H555 0.960 . S
H540 C524 0.931 . S
H541 C529 0.929 . S
H542 C530 0.960 . S
H543 C530 0.962 . S
H544 C530 0.960 . S
H545 C531 0.961 . S
H546 C531 0.961 . S
H547 C531 0.961 . S
H548 C532 0.931 . S
H549 C537 0.930 . S
H550 C538 0.956 . S
H551 C538 0.961 . S
H552 C538 0.961 . S
H553 C539 0.958 . S
H554 C539 0.961 . S
H555 C539 0.960 . S
C556 C557 1.391 . S
C556 C558 1.394 . S
C556 H572 0.931 . S
C557 C556 1.391 . S
C557 C561 1.376 . S
C558 C556 1.394 . S
C558 C559 1.369 . S
C558 C562 1.531 . S
C559 C558 1.369 . S
C559 C560 1.410 . S
C559 C567 1.503 1_455 S
C560 C559 1.410 . S
C560 C561 1.392 . S
C560 C563 1.511 1_455 S
C561 C557 1.376 . S
C561 C560 1.392 . S
C561 H573 0.929 . S
C562 C558 1.531 . S
C562 H574 0.960 . S
C562 H575 0.962 . S
C562 H576 0.960 . S
C563 C560 1.511 1_655 S
C563 H577 0.961 . S
C563 H578 0.961 . S
C563 H579 0.961 . S
C564 C565 1.370 . S
C564 C566 1.363 . S
C564 H580 0.931 . S
C565 C564 1.370 . S
C565 C569 1.408 . S
C566 C564 1.363 . S
C566 C567 1.370 . S
C566 C570 1.524 1_655 S
C567 C559 1.503 1_655 S
C567 C566 1.370 . S
C567 C568 1.403 . S
C568 C567 1.403 . S
C568 C569 1.404 . S
C568 C571 1.539 . S
C569 C565 1.408 . S
C569 C568 1.404 . S
C569 H581 0.930 . S
C570 C566 1.524 1_455 S
C570 H582 0.956 . S
C570 H583 0.961 . S
C570 H584 0.961 . S
C571 C568 1.539 . S
C571 H585 0.958 . S
C571 H586 0.961 . S
C571 H587 0.960 . S
H572 C556 0.931 . S
H573 C561 0.929 . S
H574 C562 0.960 . S
H575 C562 0.962 . S
H576 C562 0.960 . S
H577 C563 0.961 . S
H578 C563 0.961 . S
H579 C563 0.961 . S
H580 C564 0.931 . S
H581 C569 0.930 . S
H582 C570 0.956 . S
H583 C570 0.961 . S
H584 C570 0.961 . S
H585 C571 0.958 . S
H586 C571 0.961 . S
H587 C571 0.960 . S
C588 C589 1.391 . S
C588 C590 1.394 . S
C588 H604 0.931 . S
C589 C588 1.391 . S
C589 C593 1.376 . S
C590 C588 1.394 . S
C590 C591 1.369 . S
C590 C594 1.531 1_655 S
C591 C590 1.369 . S
C591 C592 1.410 . S
C591 C599 1.503 1_655 S
C592 C591 1.410 . S
C592 C593 1.392 . S
C592 C595 1.511 . S
C593 C589 1.376 . S
C593 C592 1.392 . S
C593 H605 0.929 . S
C594 C590 1.531 1_455 S
C594 H606 0.960 . S
C594 H607 0.962 . S
C594 H608 0.960 . S
C595 C592 1.511 . S
C595 H609 0.961 . S
C595 H610 0.961 . S
C595 H611 0.961 . S
C596 C597 1.370 . S
C596 C598 1.363 . S
C596 H612 0.931 . S
C597 C596 1.370 . S
C597 C601 1.408 . S
C598 C596 1.363 . S
C598 C599 1.370 . S
C598 C602 1.524 . S
C599 C591 1.503 1_455 S
C599 C598 1.370 . S
C599 C600 1.403 . S
C600 C599 1.403 . S
C600 C601 1.404 . S
C600 C603 1.539 1_455 S
C601 C597 1.408 . S
C601 C600 1.404 . S
C601 H613 0.930 . S
C602 C598 1.524 . S
C602 H614 0.956 . S
C602 H615 0.961 . S
C602 H616 0.961 . S
C603 C600 1.539 1_655 S
C603 H617 0.958 . S
C603 H618 0.961 . S
C603 H619 0.960 . S
H604 C588 0.931 . S
H605 C593 0.929 . S
H606 C594 0.960 . S
H607 C594 0.962 . S
H608 C594 0.960 . S
H609 C595 0.961 . S
H610 C595 0.961 . S
H611 C595 0.961 . S
H612 C596 0.931 . S
H613 C601 0.930 . S
H614 C602 0.956 . S
H615 C602 0.961 . S
H616 C602 0.961 . S
H617 C603 0.958 . S
H618 C603 0.961 . S
H619 C603 0.960 . S
C620 C621 1.391 . S
C620 C622 1.394 . S
C620 H636 0.931 . S
C621 C620 1.391 . S
C621 C625 1.376 . S
C622 C620 1.394 . S
C622 C623 1.369 . S
C622 C626 1.531 . S
C623 C622 1.369 . S
C623 C624 1.410 . S
C623 C631 1.503 1_455 S
C624 C623 1.410 . S
C624 C625 1.392 . S
C624 C627 1.511 1_455 S
C625 C621 1.376 . S
C625 C624 1.392 . S
C625 H637 0.929 . S
C626 C622 1.531 . S
C626 H638 0.960 . S
C626 H639 0.962 . S
C626 H640 0.960 . S
C627 C624 1.511 1_655 S
C627 H641 0.961 . S
C627 H642 0.961 . S
C627 H643 0.961 . S
C628 C629 1.370 . S
C628 C630 1.363 . S
C628 H644 0.931 . S
C629 C628 1.370 . S
C629 C633 1.408 . S
C630 C628 1.363 . S
C630 C631 1.370 . S
C630 C634 1.524 . S
C631 C623 1.503 1_655 S
C631 C630 1.370 . S
C631 C632 1.403 . S
C632 C631 1.403 . S
C632 C633 1.404 . S
C632 C635 1.539 . S
C633 C629 1.408 . S
C633 C632 1.404 . S
C633 H645 0.930 . S
C634 C630 1.524 . S
C634 H646 0.956 1_655 S
C634 H647 0.961 . S
C634 H648 0.961 . S
C635 C632 1.539 . S
C635 H649 0.958 . S
C635 H650 0.961 . S
C635 H651 0.960 . S
H636 C620 0.931 . S
H637 C625 0.929 . S
H638 C626 0.960 . S
H639 C626 0.962 . S
H640 C626 0.960 . S
H641 C627 0.961 . S
H642 C627 0.961 . S
H643 C627 0.961 . S
H644 C628 0.931 . S
H645 C633 0.930 . S
H646 C634 0.956 1_455 S
H647 C634 0.961 . S
H648 C634 0.961 . S
H649 C635 0.958 . S
H650 C635 0.961 . S
H651 C635 0.960 . S
C652 C653 1.391 . S
C652 C654 1.394 . S
C652 H668 0.931 . S
C653 C652 1.391 . S
C653 C657 1.376 . S
C654 C652 1.394 . S
C654 C655 1.369 . S
C654 C658 1.531 . S
C655 C654 1.369 . S
C655 C656 1.410 . S
C655 C663 1.503 1_455 S
C656 C655 1.410 . S
C656 C657 1.392 . S
C656 C659 1.511 1_455 S
C657 C653 1.376 . S
C657 C656 1.392 . S
C657 H669 0.929 . S
C658 C654 1.531 . S
C658 H670 0.960 . S
C658 H671 0.962 . S
C658 H672 0.960 . S
C659 C656 1.511 1_655 S
C659 H673 0.961 . S
C659 H674 0.961 . S
C659 H675 0.961 . S
C660 C661 1.370 . S
C660 C662 1.363 . S
C660 H676 0.931 . S
C661 C660 1.370 . S
C661 C665 1.408 . S
C662 C660 1.363 . S
C662 C663 1.370 . S
C662 C666 1.524 1_655 S
C663 C655 1.503 1_655 S
C663 C662 1.370 . S
C663 C664 1.403 . S
C664 C663 1.403 . S
C664 C665 1.404 . S
C664 C667 1.539 . S
C665 C661 1.408 . S
C665 C664 1.404 . S
C665 H677 0.930 . S
C666 C662 1.524 1_455 S
C666 H678 0.956 . S
C666 H679 0.961 . S
C666 H680 0.961 . S
C667 C664 1.539 . S
C667 H681 0.958 . S
C667 H682 0.961 . S
C667 H683 0.960 . S
H668 C652 0.931 . S
H669 C657 0.929 . S
H670 C658 0.960 . S
H671 C658 0.962 . S
H672 C658 0.960 . S
H673 C659 0.961 . S
H674 C659 0.961 . S
H675 C659 0.961 . S
H676 C660 0.931 . S
H677 C665 0.930 . S
H678 C666 0.956 . S
H679 C666 0.961 . S
H680 C666 0.961 . S
H681 C667 0.958 . S
H682 C667 0.961 . S
H683 C667 0.960 . S
C173 N8 0.296 1_554 S
C181 N3 0.530 1_556 S
C205 N51 0.196 . S
C213 N46 0.526 1_556 S
C237 N89 0.497 . S
C245 N94 0.310 . S
C269 N137 0.402 . S
C277 N132 0.299 . S
C301 C70 1.637 1_556 S
C309 C40 1.565 . S
C333 C162 1.612 . S
C341 C113 1.578 . S
C365 C27 1.635 . S
C373 C83 1.566 . S
C397 C161 1.574 . S
C405 C126 1.592 . S
C429 C168 1.601 . S
C437 C13 1.605 . S
C461 C76 1.420 . S
C469 C119 1.455 . S
C493 C125 1.518 . S
C501 C82 1.449 . S
C525 C32 1.526 . S
C533 C156 1.499 . S
C557 C99 1.627 . S
C565 C56 1.645 . S
C589 C169 1.439 . S
C597 C33 1.415 . S
C621 C39 1.426 . S
C629 C142 1.459 . S
C653 C118 1.470 . S
C661 C75 1.518 . S
