# Generated by pormake.
# Topology bcs, (6)-cn, num edge types: 1
# Building blocks:
#     Node 0, Type 0, BuildingBlock: MIFKUJ_clean_sbu_0, # of connection points: 6
#     Node 1, Type 0, BuildingBlock: MIFKUJ_clean_sbu_0, # of connection points: 6
#     Node 2, Type 0, BuildingBlock: MIFKUJ_clean_sbu_0, # of connection points: 6
#     Node 3, Type 0, BuildingBlock: MIFKUJ_clean_sbu_0, # of connection points: 6
#     Node 4, Type 0, BuildingBlock: MIFKUJ_clean_sbu_0, # of connection points: 6
#     Node 5, Type 0, BuildingBlock: MIFKUJ_clean_sbu_0, # of connection points: 6
#     Node 6, Type 0, BuildingBlock: MIFKUJ_clean_sbu_0, # of connection points: 6
#     Node 7, Type 0, BuildingBlock: MIFKUJ_clean_sbu_0, # of connection points: 6
#     Node 8, Type 0, BuildingBlock: MIFKUJ_clean_sbu_0, # of connection points: 6
#     Node 9, Type 0, BuildingBlock: MIFKUJ_clean_sbu_0, # of connection points: 6
#     Node 10, Type 0, BuildingBlock: MIFKUJ_clean_sbu_0, # of connection points: 6
#     Node 11, Type 0, BuildingBlock: MIFKUJ_clean_sbu_0, # of connection points: 6
#     Node 12, Type 0, BuildingBlock: MIFKUJ_clean_sbu_0, # of connection points: 6
#     Node 13, Type 0, BuildingBlock: MIFKUJ_clean_sbu_0, # of connection points: 6
#     Node 14, Type 0, BuildingBlock: MIFKUJ_clean_sbu_0, # of connection points: 6
#     Node 15, Type 0, BuildingBlock: MIFKUJ_clean_sbu_0, # of connection points: 6
#     Edge 16, Type (0, 0), BuildingBlock: ZUJKAS_clean_linker_0, # of connection points: 2
#     Edge 17, Type (0, 0), BuildingBlock: ZUJKAS_clean_linker_0, # of connection points: 2
#     Edge 18, Type (0, 0), BuildingBlock: ZUJKAS_clean_linker_0, # of connection points: 2
#     Edge 19, Type (0, 0), BuildingBlock: ZUJKAS_clean_linker_0, # of connection points: 2
#     Edge 20, Type (0, 0), BuildingBlock: ZUJKAS_clean_linker_0, # of connection points: 2
#     Edge 21, Type (0, 0), BuildingBlock: ZUJKAS_clean_linker_0, # of connection points: 2
#     Edge 22, Type (0, 0), BuildingBlock: ZUJKAS_clean_linker_0, # of connection points: 2
#     Edge 23, Type (0, 0), BuildingBlock: ZUJKAS_clean_linker_0, # of connection points: 2
#     Edge 24, Type (0, 0), BuildingBlock: ZUJKAS_clean_linker_0, # of connection points: 2
#     Edge 25, Type (0, 0), BuildingBlock: ZUJKAS_clean_linker_0, # of connection points: 2
#     Edge 26, Type (0, 0), BuildingBlock: ZUJKAS_clean_linker_0, # of connection points: 2
#     Edge 27, Type (0, 0), BuildingBlock: ZUJKAS_clean_linker_0, # of connection points: 2
#     Edge 28, Type (0, 0), BuildingBlock: ZUJKAS_clean_linker_0, # of connection points: 2
#     Edge 29, Type (0, 0), BuildingBlock: ZUJKAS_clean_linker_0, # of connection points: 2
#     Edge 30, Type (0, 0), BuildingBlock: ZUJKAS_clean_linker_0, # of connection points: 2
#     Edge 31, Type (0, 0), BuildingBlock: ZUJKAS_clean_linker_0, # of connection points: 2
#     Edge 32, Type (0, 0), BuildingBlock: ZUJKAS_clean_linker_0, # of connection points: 2
#     Edge 33, Type (0, 0), BuildingBlock: ZUJKAS_clean_linker_0, # of connection points: 2
#     Edge 34, Type (0, 0), BuildingBlock: ZUJKAS_clean_linker_0, # of connection points: 2
#     Edge 35, Type (0, 0), BuildingBlock: ZUJKAS_clean_linker_0, # of connection points: 2
#     Edge 36, Type (0, 0), BuildingBlock: ZUJKAS_clean_linker_0, # of connection points: 2
#     Edge 37, Type (0, 0), BuildingBlock: ZUJKAS_clean_linker_0, # of connection points: 2
#     Edge 38, Type (0, 0), BuildingBlock: ZUJKAS_clean_linker_0, # of connection points: 2
#     Edge 39, Type (0, 0), BuildingBlock: ZUJKAS_clean_linker_0, # of connection points: 2
#     Edge 40, Type (0, 0), BuildingBlock: ZUJKAS_clean_linker_0, # of connection points: 2
#     Edge 41, Type (0, 0), BuildingBlock: ZUJKAS_clean_linker_0, # of connection points: 2
#     Edge 42, Type (0, 0), BuildingBlock: ZUJKAS_clean_linker_0, # of connection points: 2
#     Edge 43, Type (0, 0), BuildingBlock: ZUJKAS_clean_linker_0, # of connection points: 2
#     Edge 44, Type (0, 0), BuildingBlock: ZUJKAS_clean_linker_0, # of connection points: 2
#     Edge 45, Type (0, 0), BuildingBlock: ZUJKAS_clean_linker_0, # of connection points: 2
#     Edge 46, Type (0, 0), BuildingBlock: ZUJKAS_clean_linker_0, # of connection points: 2
#     Edge 47, Type (0, 0), BuildingBlock: ZUJKAS_clean_linker_0, # of connection points: 2
#     Edge 48, Type (0, 0), BuildingBlock: ZUJKAS_clean_linker_0, # of connection points: 2
#     Edge 49, Type (0, 0), BuildingBlock: ZUJKAS_clean_linker_0, # of connection points: 2
#     Edge 50, Type (0, 0), BuildingBlock: ZUJKAS_clean_linker_0, # of connection points: 2
#     Edge 51, Type (0, 0), BuildingBlock: ZUJKAS_clean_linker_0, # of connection points: 2
#     Edge 52, Type (0, 0), BuildingBlock: ZUJKAS_clean_linker_0, # of connection points: 2
#     Edge 53, Type (0, 0), BuildingBlock: ZUJKAS_clean_linker_0, # of connection points: 2
#     Edge 54, Type (0, 0), BuildingBlock: ZUJKAS_clean_linker_0, # of connection points: 2
#     Edge 55, Type (0, 0), BuildingBlock: ZUJKAS_clean_linker_0, # of connection points: 2
#     Edge 56, Type (0, 0), BuildingBlock: ZUJKAS_clean_linker_0, # of connection points: 2
#     Edge 57, Type (0, 0), BuildingBlock: ZUJKAS_clean_linker_0, # of connection points: 2
#     Edge 58, Type (0, 0), BuildingBlock: ZUJKAS_clean_linker_0, # of connection points: 2
#     Edge 59, Type (0, 0), BuildingBlock: ZUJKAS_clean_linker_0, # of connection points: 2
#     Edge 60, Type (0, 0), BuildingBlock: ZUJKAS_clean_linker_0, # of connection points: 2
#     Edge 61, Type (0, 0), BuildingBlock: ZUJKAS_clean_linker_0, # of connection points: 2
#     Edge 62, Type (0, 0), BuildingBlock: ZUJKAS_clean_linker_0, # of connection points: 2
#     Edge 63, Type (0, 0), BuildingBlock: ZUJKAS_clean_linker_0, # of connection points: 2
# Relax obj value: 0.090
# Max RMSD: 0.209
# Mean RMSD: 0.146
data_MOF--net-bcs--node1-MIFKUJ_clean_sbu_0--edge1-ZUJKAS_clean_linker_0
_symmetry_space_group_name_H-M    P1
_symmetry_Int_Tables_number       1
_symmetry_cell_setting            triclinic
loop_
_symmetry_equiv_pos_as_xyz
'x, y, z'
_cell_length_a     47.135011
_cell_length_b     51.18852
_cell_length_c     45.482786
_cell_angle_alpha  96.0907
_cell_angle_beta   96.852778
_cell_angle_gamma 102.13976
loop_
_atom_site_label
_atom_site_type_symbol
_atom_site_fract_x
_atom_site_fract_y
_atom_site_fract_z
_atom_type_partial_charge
Zn0 Zn 0.96944 0.00718 0.9803 0.0
Zn1 Zn 0.02437 0.99135 0.0189 0.0
C2 C 0.93657 0.02489 0.02267 0.0
O3 O 0.91839 0.00332 0.00756 0.0
C4 C 0.05557 0.96875 0.97889 0.0
O5 O 0.07494 0.98924 0.99459 0.0
O6 O 0.94105 0.01504 0.94729 0.0
O7 O 0.00889 0.02067 0.96736 0.0
O8 O 0.04006 0.02884 0.00923 0.0
C9 C 0.94794 0.03988 0.94407 0.0
O10 O 0.97084 0.05549 0.96141 0.0
O11 O 0.96253 0.03116 0.01628 0.0
C12 C 0.04248 0.95863 0.05798 0.0
O13 O 0.01831 0.9436 0.04213 0.0
O14 O 0.05097 0.9828 0.05289 0.0
O15 O 0.98421 0.9827 0.03184 0.0
O16 O 0.95813 0.96825 0.98767 0.0
O17 O 0.02912 0.96486 0.98405 0.0
C18 C 0.03301 0.03356 0.98278 0.0
C19 C 0.96316 0.96602 0.01524 0.0
Zn20 Zn 0.26439 0.77279 0.2076 0.0
Zn21 Zn 0.23558 0.70651 0.25396 0.0
C22 C 0.21158 0.79162 0.19112 0.0
O23 O 0.19805 0.76686 0.19334 0.0
C24 C 0.26742 0.68079 0.29411 0.0
O25 O 0.25398 0.69311 0.31309 0.0
O26 O 0.30607 0.79238 0.20911 0.0
O27 O 0.25657 0.76242 0.24803 0.0
O28 O 0.24463 0.74001 0.28452 0.0
C29 C 0.3267 0.78095 0.20375 0.0
O30 O 0.32135 0.75449 0.19888 0.0
O31 O 0.2394 0.79816 0.19586 0.0
C32 C 0.18792 0.66064 0.24961 0.0
O33 O 0.208 0.64801 0.24188 0.0
O34 O 0.19406 0.68627 0.25369 0.0
O35 O 0.24452 0.71939 0.21538 0.0
O36 O 0.25569 0.73863 0.17687 0.0
O37 O 0.26306 0.6836 0.26667 0.0
C38 C 0.25502 0.76232 0.27564 0.0
C39 C 0.24791 0.71705 0.18818 0.0
Zn40 Zn 0.5131 0.9708 0.46517 0.0
Zn41 Zn 0.47331 0.01544 0.51447 0.0
C42 C 0.53912 0.93476 0.49374 0.0
O43 O 0.55978 0.9469 0.4796 0.0
C44 C 0.44617 0.04768 0.4809 0.0
O45 O 0.42454 0.03237 0.49117 0.0
O46 O 0.52451 0.9597 0.42529 0.0
O47 O 0.47537 0.9833 0.46409 0.0
O48 O 0.44321 0.98267 0.49476 0.0
C49 C 0.51743 0.93493 0.41437 0.0
O50 O 0.49918 0.91815 0.42709 0.0
O51 O 0.51443 0.94124 0.49085 0.0
C52 C 0.46911 0.05316 0.56314 0.0
O53 O 0.48686 0.06909 0.54906 0.0
O54 O 0.46206 0.02805 0.5538 0.0
O55 O 0.51079 0.00225 0.51693 0.0
O56 O 0.54337 0.00297 0.4867 0.0
O57 O 0.47205 0.04446 0.48776 0.0
C58 C 0.45229 0.97099 0.47291 0.0
C59 C 0.53458 0.01415 0.50912 0.0
Zn60 Zn 0.21506 0.26047 0.78285 0.0
Zn61 Zn 0.27017 0.24591 0.7162 0.0
C62 C 0.17683 0.22673 0.81448 0.0
O63 O 0.15777 0.23799 0.80005 0.0
C64 C 0.31078 0.28452 0.69157 0.0
O65 O 0.32838 0.28051 0.71446 0.0
O66 O 0.20949 0.29669 0.79977 0.0
O67 O 0.25555 0.2606 0.77444 0.0
O68 O 0.29566 0.25769 0.75675 0.0
C69 C 0.21097 0.30269 0.82783 0.0
O70 O 0.219 0.2861 0.84561 0.0
O71 O 0.20356 0.23318 0.81071 0.0
C72 C 0.27799 0.20248 0.67445 0.0
O73 O 0.27176 0.21814 0.65468 0.0
O74 O 0.27672 0.20957 0.70178 0.0
O75 O 0.22766 0.24471 0.72149 0.0
O76 O 0.18905 0.24831 0.74277 0.0
O77 O 0.28397 0.27206 0.68756 0.0
C78 C 0.28301 0.26294 0.77903 0.0
C79 C 0.20003 0.24209 0.71943 0.0
Zn80 Zn 0.00078 0.01945 0.46585 0.0
Zn81 Zn 0.00284 0.96663 0.53249 0.0
C82 C 0.96461 0.04556 0.43273 0.0
O83 O 0.97143 0.02932 0.4117 0.0
C84 C 0.05151 0.95298 0.56224 0.0
O85 O 0.04344 0.96827 0.58329 0.0
O86 O 0.03595 0.0309 0.44521 0.0
O87 O 0.01123 0.0183 0.50979 0.0
O88 O 0.0178 0.00497 0.55347 0.0
C89 C 0.05043 0.05521 0.45071 0.0
O90 O 0.0434 0.07161 0.47137 0.0
O91 O 0.97481 0.04518 0.45974 0.0
C92 C 0.96934 0.92191 0.55564 0.0
O93 O 0.98874 0.90983 0.54515 0.0
O94 O 0.97065 0.94651 0.5525 0.0
O95 O 0.98823 0.96873 0.48963 0.0
O96 O 0.97821 0.98214 0.44661 0.0
O97 O 0.03703 0.94887 0.53613 0.0
C98 C 0.02004 0.02413 0.53763 0.0
C99 C 0.97569 0.96321 0.46275 0.0
Zn100 Zn 0.28125 0.72431 0.74585 0.0
Zn101 Zn 0.21404 0.76317 0.76122 0.0
C102 C 0.32143 0.71843 0.79625 0.0
O103 O 0.3407 0.7342 0.78354 0.0
C104 C 0.18261 0.78389 0.71732 0.0
O105 O 0.16171 0.77055 0.73032 0.0
O106 O 0.29681 0.70471 0.71183 0.0
O107 O 0.23716 0.71648 0.7425 0.0
O108 O 0.19362 0.72395 0.74614 0.0
C109 C 0.30328 0.68219 0.71545 0.0
O110 O 0.29803 0.67181 0.73999 0.0
O111 O 0.29477 0.71215 0.78431 0.0
C112 C 0.19893 0.80491 0.79908 0.0
O113 O 0.21569 0.81951 0.78298 0.0
O114 O 0.19531 0.77936 0.79479 0.0
O115 O 0.25673 0.76322 0.77217 0.0
O116 O 0.29529 0.76482 0.74982 0.0
O117 O 0.20907 0.78387 0.72671 0.0
C118 C 0.20956 0.70774 0.73882 0.0
C119 C 0.27781 0.77713 0.76162 0.0
Zn120 Zn 0.46703 0.01476 0.01137 0.0
Zn121 Zn 0.50398 0.97988 0.98467 0.0
C122 C 0.43678 0.96911 0.03712 0.0
O123 O 0.41296 0.9749 0.02389 0.0
C124 C 0.53796 0.02316 0.96035 0.0
O125 O 0.5596 0.01539 0.97537 0.0
O126 O 0.44387 0.04046 0.0283 0.0
O127 O 0.50971 0.03297 0.02118 0.0
O128 O 0.52039 0.99403 0.02782 0.0
C129 C 0.45154 0.05167 0.05524 0.0
O130 O 0.47444 0.04647 0.07099 0.0
O131 O 0.46165 0.98333 0.03464 0.0
C132 C 0.52385 0.94551 0.94184 0.0
O133 O 0.50416 0.95343 0.92408 0.0
O134 O 0.52753 0.95379 0.9697 0.0
O135 O 0.46113 0.9623 0.97297 0.0
O136 O 0.45015 0.00147 0.9682 0.0
O137 O 0.51177 0.01085 0.96104 0.0
C138 C 0.52541 0.01944 0.03498 0.0
C139 C 0.44558 0.97628 0.9597 0.0
Zn140 Zn 0.22341 0.25777 0.24454 0.0
Zn141 Zn 0.28558 0.24232 0.27132 0.0
C142 C 0.197 0.26945 0.29547 0.0
O143 O 0.1792 0.24674 0.28257 0.0
C144 C 0.31308 0.22861 0.22204 0.0
O145 O 0.3324 0.24979 0.23648 0.0
O146 O 0.19006 0.26546 0.21685 0.0
O147 O 0.25931 0.2749 0.22783 0.0
O148 O 0.29339 0.2819 0.26722 0.0
C149 C 0.18901 0.29024 0.22 0.0
O150 O 0.20899 0.30735 0.23945 0.0
O151 O 0.22031 0.27802 0.28454 0.0
C152 C 0.31733 0.20941 0.29822 0.0
O153 O 0.29595 0.19256 0.28005 0.0
O154 O 0.31849 0.23458 0.29947 0.0
O155 O 0.24939 0.22525 0.28771 0.0
O156 O 0.21612 0.21799 0.24765 0.0
O157 O 0.28868 0.22163 0.23163 0.0
C158 C 0.28382 0.28805 0.24217 0.0
C159 C 0.22599 0.21105 0.27216 0.0
Zn160 Zn 0.49971 0.51795 0.9636 0.0
Zn161 Zn 0.5091 0.46752 0.03221 0.0
C162 C 0.45629 0.53819 0.93416 0.0
O163 O 0.46426 0.5233 0.91267 0.0
C164 C 0.55492 0.44824 0.06073 0.0
O165 O 0.55089 0.46593 0.08205 0.0
O166 O 0.53162 0.53322 0.94018 0.0
O167 O 0.51547 0.51597 0.00573 0.0
O168 O 0.52967 0.50613 0.0494 0.0
C169 C 0.53616 0.5579 0.9362 0.0
O170 O 0.52055 0.5734 0.94833 0.0
O171 O 0.46869 0.53935 0.96079 0.0
C172 C 0.4709 0.42858 0.05835 0.0
O173 O 0.48401 0.41233 0.04354 0.0
O174 O 0.47776 0.45371 0.05673 0.0
O175 O 0.4919 0.46638 0.98885 0.0
O176 O 0.48023 0.47962 0.94576 0.0
O177 O 0.53912 0.44498 0.03538 0.0
C178 C 0.52942 0.52375 0.03178 0.0
C179 C 0.47912 0.46074 0.96199 0.0
Zn180 Zn 0.78268 0.2317 0.24334 0.0
Zn181 Zn 0.71777 0.2713 0.26287 0.0
C182 C 0.82745 0.22163 0.2852 0.0
O183 O 0.84368 0.23156 0.26568 0.0
C184 C 0.71144 0.28363 0.20132 0.0
O185 O 0.7132 0.25862 0.19364 0.0
O186 O 0.79712 0.21239 0.20883 0.0
O187 O 0.73862 0.22148 0.24176 0.0
O188 O 0.69696 0.2324 0.24938 0.0
C189 C 0.79292 0.18682 0.20614 0.0
O190 O 0.77743 0.17373 0.22438 0.0
O191 O 0.80006 0.22028 0.28078 0.0
C192 C 0.70601 0.29485 0.32315 0.0
O193 O 0.73046 0.29008 0.33619 0.0
O194 O 0.69846 0.28812 0.29514 0.0
O195 O 0.76007 0.27095 0.27251 0.0
O196 O 0.79558 0.27199 0.24583 0.0
O197 O 0.71328 0.29259 0.22878 0.0
C198 C 0.71093 0.21492 0.2407 0.0
C199 C 0.77937 0.28449 0.25945 0.0
Zn200 Zn 0.97782 0.51299 0.50625 0.0
Zn201 Zn 0.01376 0.47612 0.47758 0.0
C202 C 0.97476 0.48641 0.55819 0.0
O203 O 0.98601 0.51127 0.57102 0.0
C204 C 0.04845 0.52056 0.45388 0.0
O205 O 0.07009 0.51554 0.47179 0.0
O206 O 0.95505 0.54001 0.52142 0.0
O207 O 0.02108 0.52928 0.51682 0.0
O208 O 0.03063 0.48943 0.52064 0.0
C209 C 0.96669 0.56121 0.53973 0.0
O210 O 0.99508 0.56672 0.54884 0.0
O211 O 0.96896 0.48175 0.52984 0.0
C212 C 0.03905 0.44521 0.43529 0.0
O213 O 0.02652 0.45883 0.41674 0.0
O214 O 0.03603 0.44863 0.46278 0.0
O215 O 0.9705 0.46005 0.46654 0.0
O216 O 0.96165 0.50017 0.46284 0.0
O217 O 0.0226 0.50679 0.45339 0.0
C218 C 0.03668 0.51472 0.52888 0.0
C219 C 0.95592 0.47503 0.45374 0.0
Zn220 Zn 0.72488 0.74605 0.27154 0.0
Zn221 Zn 0.78667 0.7315 0.21204 0.0
C222 C 0.68469 0.70547 0.29509 0.0
O223 O 0.66785 0.70625 0.27016 0.0
C224 C 0.82515 0.75851 0.17451 0.0
O225 O 0.83983 0.74025 0.18119 0.0
O226 O 0.71727 0.78245 0.28425 0.0
O227 O 0.76708 0.74682 0.26802 0.0
O228 O 0.8091 0.74424 0.25403 0.0
C229 C 0.71495 0.78962 0.31129 0.0
O230 O 0.72076 0.77418 0.33147 0.0
O231 O 0.71043 0.72043 0.30039 0.0
C232 C 0.78931 0.68612 0.16965 0.0
O233 O 0.7762 0.69901 0.15068 0.0
O234 O 0.79456 0.69563 0.19721 0.0
O235 O 0.74374 0.73008 0.21402 0.0
O236 O 0.70235 0.73302 0.22985 0.0
O237 O 0.80146 0.75878 0.18518 0.0
C238 C 0.79461 0.75023 0.27463 0.0
C239 C 0.71615 0.7273 0.20854 0.0
Zn240 Zn 0.76295 0.28261 0.72386 0.0
Zn241 Zn 0.73093 0.22295 0.77835 0.0
C242 C 0.71492 0.30734 0.71164 0.0
O243 O 0.70037 0.28401 0.71732 0.0
C244 C 0.78305 0.2024 0.7931 0.0
O245 O 0.79704 0.22646 0.7889 0.0
O246 O 0.80527 0.29359 0.71828 0.0
O247 O 0.75633 0.27447 0.76502 0.0
O248 O 0.74584 0.25866 0.80578 0.0
C249 C 0.82159 0.31597 0.73075 0.0
O250 O 0.81142 0.33112 0.75018 0.0
O251 O 0.74261 0.31161 0.71311 0.0
C252 C 0.67979 0.18233 0.78027 0.0
O253 O 0.69647 0.16683 0.77024 0.0
O254 O 0.6895 0.20773 0.78437 0.0
O255 O 0.7338 0.2299 0.73564 0.0
O256 O 0.74353 0.24837 0.6958 0.0
O257 O 0.75522 0.19672 0.78962 0.0
C258 C 0.75536 0.27881 0.79275 0.0
C259 C 0.73145 0.22808 0.70738 0.0
Zn260 Zn 0.70013 0.76053 0.73204 0.0
Zn261 Zn 0.77002 0.72937 0.74513 0.0
C262 C 0.67203 0.77673 0.77862 0.0
O263 O 0.65307 0.75559 0.76359 0.0
C264 C 0.81057 0.72211 0.70521 0.0
O265 O 0.8278 0.73899 0.72709 0.0
O266 O 0.66883 0.7685 0.70224 0.0
O267 O 0.73733 0.77384 0.71517 0.0
O268 O 0.77352 0.76935 0.74822 0.0
C269 C 0.67441 0.79315 0.6981 0.0
O270 O 0.69847 0.80934 0.71284 0.0
O271 O 0.69709 0.78343 0.77025 0.0
C272 C 0.80042 0.69682 0.77583 0.0
O273 O 0.78423 0.67959 0.75359 0.0
O274 O 0.79817 0.72126 0.77804 0.0
O275 O 0.73057 0.70699 0.74899 0.0
O276 O 0.68972 0.72156 0.73878 0.0
O277 O 0.78324 0.71556 0.70672 0.0
C278 C 0.76453 0.77854 0.72491 0.0
C279 C 0.70282 0.70343 0.74639 0.0
Zn280 Zn 0.47473 0.50534 0.47794 0.0
Zn281 Zn 0.52628 0.49418 0.52162 0.0
C282 C 0.43979 0.53015 0.51159 0.0
O283 O 0.42114 0.51163 0.49236 0.0
C284 C 0.56123 0.46974 0.48774 0.0
O285 O 0.57977 0.48978 0.50513 0.0
O286 O 0.44937 0.51203 0.44195 0.0
O287 O 0.51514 0.51489 0.46613 0.0
O288 O 0.54059 0.5314 0.51013 0.0
C289 C 0.45655 0.53654 0.43754 0.0
O290 O 0.47882 0.55274 0.45521 0.0
O291 O 0.46717 0.53189 0.51148 0.0
C292 C 0.54499 0.46524 0.565 0.0
O293 O 0.52171 0.44848 0.54955 0.0
O294 O 0.55248 0.48882 0.55783 0.0
O295 O 0.48542 0.48356 0.53275 0.0
O296 O 0.4603 0.46796 0.48826 0.0
O297 O 0.53394 0.46695 0.48913 0.0
C298 C 0.53634 0.53188 0.48209 0.0
C299 C 0.46431 0.46685 0.51618 0.0
Zn300 Zn 0.00654 0.47158 0.0064 0.0
Zn301 Zn 0.9962 0.52565 0.98582 0.0
C302 C 0.019 0.44356 0.95425 0.0
O303 O 0.99674 0.42576 0.96031 0.0
C304 C 0.98364 0.54797 0.04144 0.0
O305 O 0.00743 0.56591 0.03915 0.0
O306 O 0.01216 0.44063 0.02923 0.0
O307 O 0.03071 0.5043 0.03304 0.0
O308 O 0.03936 0.52985 -0.00229 0.0
C309 C 0.03777 0.43605 0.03049 0.0
O310 O 0.0574 0.45117 0.01757 0.0
O311 O 0.02638 0.46659 0.97001 0.0
C312 C 0.96032 0.55662 0.96153 0.0
O313 O 0.94204 0.53699 0.97053 0.0
O314 O 0.98763 0.55709 0.96575 0.0
O315 O 0.97524 0.49333 0.9572 0.0
O316 O 0.96357 0.46884 0.99266 0.0
O317 O 0.97564 0.52704 0.02214 0.0
C318 C 0.04808 0.52175 0.02191 0.0
C319 C 0.95681 0.47605 0.96733 0.0
H320 H 0.12084 0.20584 0.82345 0.0
H321 H 0.10452 0.17226 0.85585 0.0
H322 H 0.19413 0.16866 0.88358 0.0
H323 H 0.21085 0.20232 0.85101 0.0
H324 H 0.12461 0.11639 0.85271 0.0
H325 H 0.15031 0.18301 0.96216 0.0
H326 H 0.14187 0.1964 0.92779 0.0
H327 H 0.17579 0.18619 0.9354 0.0
C328 C 0.13716 0.19803 0.83648 0.0
C329 C 0.16716 0.20674 0.8346 0.0
C330 C 0.12777 0.17885 0.85497 0.0
C331 C 0.14816 0.16817 0.87213 0.0
C332 C 0.17814 0.17686 0.87058 0.0
H333 H 0.09182 0.0566 0.00081 0.0
H334 H 0.1242 0.08792 0.9751 0.0
C335 C 0.18759 0.196 0.85192 0.0
C336 C 0.13756 0.14724 0.89077 0.0
H337 H 0.12273 0.13873 0.96124 0.0
C338 C 0.12455 0.12111 0.87652 0.0
C339 C 0.13799 0.15344 0.92185 0.0
C340 C 0.1522 0.18125 0.93795 0.0
C341 C 0.1108 0.10121 0.89236 0.0
C342 C 0.10921 0.10792 0.92306 0.0
C343 C 0.12373 0.13367 0.93768 0.0
C344 C 0.09011 0.08939 0.93934 0.0
C345 C 0.0977 0.07329 0.87584 0.0
C346 C 0.06017 0.08047 0.92825 0.0
C347 C 0.04187 0.06255 0.94258 0.0
C348 C 0.05287 0.0535 0.96882 0.0
C349 C 0.0827 0.06318 0.98064 0.0
C350 C 0.1012 0.08101 0.96596 0.0
H351 H 0.10953 0.06883 0.85687 0.0
H352 H 0.09826 0.0576 0.89085 0.0
H353 H 0.07453 0.07202 0.86648 0.0
H354 H 0.05088 0.08733 0.90834 0.0
H355 H 0.01899 0.0558 0.93297 0.0
H356 H 0.09701 0.98117 0.09005 0.0
H357 H 0.12804 0.9584 0.12079 0.0
H358 H 0.05958 0.88571 0.10365 0.0
H359 H 0.0284 0.90824 0.07362 0.0
H360 H 0.0877 0.89677 0.16292 0.0
H361 H 0.16721 0.90223 0.08125 0.0
H362 H 0.16068 0.93383 0.09676 0.0
H363 H 0.13166 0.90976 0.07282 0.0
C364 C 0.08848 0.96045 0.09317 0.0
C365 C 0.06041 0.9464 0.0791 0.0
C366 C 0.10626 0.94745 0.11059 0.0
C367 C 0.09625 0.92025 0.11401 0.0
C368 C 0.06775 0.90667 0.10118 0.0
H369 H 0.15265 0.78347 0.1723 0.0
H370 H 0.12566 0.81688 0.15701 0.0
C371 C 0.05001 0.91959 0.0839 0.0
C372 C 0.11571 0.90511 0.12935 0.0
H373 H 0.17567 0.87886 0.12186 0.0
C374 C 0.10713 0.89306 0.15418 0.0
C375 C 0.14098 0.90029 0.1178 0.0
C376 C 0.15068 0.91199 0.09057 0.0
C377 C 0.1229 0.87592 0.16749 0.0
C378 C 0.14755 0.87035 0.15527 0.0
C379 C 0.15671 0.88314 0.13111 0.0
C380 C 0.1635 0.85045 0.16624 0.0
C381 C 0.11296 0.86388 0.19443 0.0
C382 C 0.19381 0.85812 0.17589 0.0
C383 C 0.20934 0.83903 0.18423 0.0
C384 C 0.19483 0.81186 0.18304 0.0
C385 C 0.16441 0.80426 0.17364 0.0
C386 C 0.14892 0.82337 0.16513 0.0
H387 H 0.10004 0.87627 0.20633 0.0
H388 H 0.09868 0.84349 0.18703 0.0
H389 H 0.13193 0.8619 0.21036 0.0
H390 H 0.2055 0.87887 0.17672 0.0
H391 H 0.23276 0.84557 0.19146 0.0
H392 H 0.40945 0.9352 0.49219 0.0
H393 H 0.3752 0.89634 0.46206 0.0
H394 H 0.42069 0.91082 0.38638 0.0
H395 H 0.45525 0.94927 0.41647 0.0
H396 H 0.339 0.90163 0.41347 0.0
H397 H 0.40663 0.82993 0.38137 0.0
H398 H 0.41958 0.85739 0.41154 0.0
H399 H 0.42141 0.86324 0.37339 0.0
C400 C 0.41252 0.92967 0.46932 0.0
C401 C 0.4349 0.94521 0.45657 0.0
C402 C 0.39299 0.90751 0.45218 0.0
C403 C 0.39555 0.90066 0.42209 0.0
C404 C 0.41872 0.91542 0.40974 0.0
H405 H 0.28789 0.80997 0.26481 0.0
H406 H 0.31916 0.8455 0.30212 0.0
C407 C 0.43839 0.93744 0.42693 0.0
C408 C 0.37211 0.8803 0.40266 0.0
H409 H 0.35973 0.82422 0.35115 0.0
C410 C 0.34343 0.88447 0.40016 0.0
C411 C 0.37804 0.85802 0.38532 0.0
C412 C 0.40804 0.85171 0.38825 0.0
C413 C 0.32066 0.86734 0.37999 0.0
C414 C 0.3269 0.84574 0.36199 0.0
C415 C 0.35532 0.84116 0.36489 0.0
C416 C 0.30424 0.82734 0.33996 0.0
C417 C 0.29026 0.87269 0.37736 0.0
C418 C 0.285 0.80606 0.34919 0.0
C419 C 0.26728 0.78565 0.32802 0.0
C420 C 0.26872 0.78635 0.2974 0.0
C421 C 0.28645 0.80882 0.28824 0.0
C422 C 0.30431 0.8291 0.30946 0.0
H423 H 0.28947 0.89149 0.39158 0.0
H424 H 0.28241 0.87426 0.35374 0.0
H425 H 0.27492 0.85552 0.3841 0.0
H426 H 0.28486 0.8045 0.37275 0.0
H427 H 0.25366 0.76867 0.33571 0.0
H428 H 0.29627 0.16787 0.71054 0.0
H429 H 0.32616 0.13559 0.69857 0.0
H430 H 0.32142 0.15411 0.60805 0.0
H431 H 0.29115 0.18604 0.61959 0.0
H432 H 0.31697 0.09948 0.61194 0.0
H433 H 0.4123 0.16372 0.68944 0.0
H434 H 0.37983 0.15233 0.70585 0.0
H435 H 0.37945 0.17523 0.67856 0.0
C436 C 0.30117 0.16475 0.68793 0.0
C437 C 0.29167 0.17981 0.6661 0.0
C438 C 0.3184 0.14642 0.68122 0.0
C439 C 0.32654 0.14297 0.65265 0.0
C440 C 0.31553 0.15665 0.63032 0.0
H441 H 0.47127 0.10638 0.57976 0.0
H442 H 0.43669 0.12522 0.60636 0.0
C443 C 0.29823 0.17491 0.63696 0.0
C444 C 0.34794 0.1265 0.64621 0.0
H445 H 0.42023 0.12512 0.66192 0.0
C446 C 0.33948 0.1048 0.62308 0.0
C447 C 0.37732 0.13377 0.66069 0.0
C448 C 0.38797 0.15764 0.68486 0.0
C449 C 0.35986 0.09072 0.61323 0.0
C450 C 0.38936 0.09823 0.62744 0.0
C451 C 0.39756 0.1193 0.6513 0.0
C452 C 0.41263 0.08672 0.61548 0.0
C453 C 0.34995 0.06899 0.58663 0.0
C454 C 0.41144 0.05895 0.61301 0.0
C455 C 0.4311 0.04804 0.59754 0.0
C456 C 0.45242 0.06482 0.5846 0.0
C457 C 0.45501 0.09286 0.58927 0.0
C458 C 0.43524 0.10368 0.60449 0.0
H459 H 0.32812 0.06949 0.5747 0.0
H460 H 0.36599 0.0711 0.57054 0.0
H461 H 0.34829 0.04894 0.59432 0.0
H462 H 0.39462 0.0456 0.62203 0.0
H463 H 0.42874 0.02637 0.59461 0.0
H464 H 0.08252 0.95471 0.61701 0.0
H465 H 0.11604 0.92675 0.6315 0.0
H466 H 0.10771 0.89097 0.5397 0.0
H467 H 0.07303 0.91849 0.52504 0.0
H468 H 0.09809 0.85349 0.57381 0.0
H469 H 0.19931 0.9252 0.62737 0.0
H470 H 0.16924 0.93432 0.64327 0.0
H471 H 0.17109 0.93559 0.604 0.0
C472 C 0.08817 0.94129 0.59973 0.0
C473 C 0.07492 0.93866 0.5699 0.0
C474 C 0.10773 0.92552 0.60802 0.0
C475 C 0.11492 0.9071 0.58662 0.0
C476 C 0.10269 0.90523 0.55655 0.0
H477 H 0.21944 0.81024 0.68213 0.0
H478 H 0.20686 0.83751 0.64342 0.0
C479 C 0.08285 0.92091 0.54822 0.0
C480 C 0.13159 0.88736 0.59672 0.0
H481 H 0.18771 0.88254 0.64905 0.0
C482 C 0.11819 0.85982 0.58959 0.0
C483 C 0.15823 0.89536 0.6167 0.0
C484 C 0.1754 0.92425 0.62293 0.0
C485 C 0.12904 0.84043 0.60421 0.0
C486 C 0.15337 0.84893 0.62715 0.0
C487 C 0.16858 0.87607 0.63202 0.0
C488 C 0.16095 0.83085 0.64869 0.0
C489 C 0.11358 0.81116 0.59572 0.0
C490 C 0.13943 0.81835 0.66468 0.0
C491 C 0.14645 0.8027 0.68651 0.0
C492 C 0.17531 0.7996 0.69324 0.0
C493 C 0.19697 0.81221 0.67735 0.0
C494 C 0.18983 0.82774 0.65523 0.0
H495 H 0.10428 0.80695 0.57162 0.0
H496 H 0.12858 0.79755 0.60037 0.0
H497 H 0.09504 0.80646 0.60865 0.0
H498 H 0.11724 0.82124 0.66082 0.0
H499 H 0.12932 0.79353 0.69856 0.0
H500 H 0.30655 0.81381 0.7294 0.0
H501 H 0.32948 0.86133 0.74779 0.0
H502 H 0.29105 0.85352 0.82885 0.0
H503 H 0.26723 0.8069 0.81005 0.0
H504 H 0.2985 0.90436 0.81679 0.0
H505 H 0.4012 0.86817 0.80671 0.0
H506 H 0.37778 0.8684 0.77269 0.0
H507 H 0.36572 0.84539 0.79835 0.0
C508 C 0.3023 0.82264 0.75068 0.0
C509 C 0.28543 0.80672 0.76849 0.0
C510 C 0.3155 0.84969 0.76124 0.0
C511 C 0.31284 0.86071 0.79015 0.0
C512 C 0.29361 0.84549 0.80654 0.0
H513 H 0.42253 0.92276 0.94291 0.0
H514 H 0.39026 0.90112 0.89706 0.0
C515 C 0.27999 0.81875 0.79578 0.0
C516 C 0.33344 0.88559 0.80599 0.0
H517 H 0.40459 0.90674 0.83953 0.0
C518 C 0.32186 0.90537 0.82123 0.0
C519 C 0.36399 0.88689 0.81165 0.0
C520 C 0.37802 0.86609 0.79668 0.0
C521 C 0.33938 0.9246 0.84419 0.0
C522 C 0.36928 0.92429 0.85146 0.0
C523 C 0.3815 0.90656 0.83399 0.0
C524 C 0.38708 0.93844 0.87991 0.0
C525 C 0.32532 0.94352 0.86214 0.0
C526 C 0.39556 0.96666 0.88571 0.0
C527 C 0.41384 0.97915 0.91223 0.0
C528 C 0.42416 0.96353 0.93303 0.0
C529 C 0.41511 0.93533 0.92729 0.0
C530 C 0.3967 0.92295 0.90107 0.0
H531 H 0.30121 0.93945 0.85528 0.0
H532 H 0.32976 0.94176 0.8863 0.0
H533 H 0.33494 0.96461 0.85912 0.0
H534 H 0.38869 0.97895 0.86949 0.0
H535 H 0.42065 0.00095 0.91598 0.0
H536 H 0.46367 0.07994 0.1114 0.0
H537 H 0.43528 0.10889 0.13481 0.0
H538 H 0.37254 0.0934 0.05432 0.0
H539 H 0.4011 0.06459 0.03045 0.0
H540 H 0.38796 0.14741 0.07834 0.0
H541 H 0.35774 0.08333 0.16556 0.0
H542 H 0.39658 0.09219 0.16508 0.0
H543 H 0.37289 0.07153 0.13339 0.0
C544 C 0.44382 0.08261 0.09862 0.0
C545 C 0.43456 0.06976 0.06909 0.0
C546 C 0.42751 0.09907 0.11213 0.0
C547 C 0.40146 0.10288 0.09654 0.0
C548 C 0.39245 0.09056 0.06685 0.0
H549 H 0.28347 0.17823 0.19452 0.0
H550 H 0.30143 0.14742 0.16008 0.0
C551 C 0.4088 0.0741 0.05326 0.0
C552 C 0.38396 0.12003 0.11122 0.0
H553 H 0.35034 0.12823 0.17295 0.0
C554 C 0.37946 0.14308 0.09886 0.0
C555 C 0.37238 0.11412 0.13769 0.0
C556 C 0.37485 0.0888 0.15107 0.0
C557 C 0.36481 0.161 0.11297 0.0
C558 C 0.3548 0.15593 0.14041 0.0
C559 C 0.35821 0.13227 0.15206 0.0
C560 C 0.3423 0.17555 0.15835 0.0
C561 C 0.36025 0.18521 0.09837 0.0
C562 C 0.35912 0.20169 0.16856 0.0
C563 C 0.34889 0.21933 0.18811 0.0
C564 C 0.3217 0.21113 0.19812 0.0
C565 C 0.30443 0.18523 0.18714 0.0
C566 C 0.31471 0.16756 0.16754 0.0
H567 H 0.36021 0.18161 0.07384 0.0
H568 H 0.33929 0.1905 0.1026 0.0
H569 H 0.3785 0.20274 0.10766 0.0
H570 H 0.38073 0.20815 0.16237 0.0
H571 H 0.36282 0.23909 0.19616 0.0
H572 H 0.08654 0.1053 0.45808 0.0
H573 H 0.11669 0.12526 0.42255 0.0
H574 H 0.09256 0.04995 0.36353 0.0
H575 H 0.06249 0.0296 0.39916 0.0
H576 H 0.15303 0.07725 0.36838 0.0
H577 H 0.07685 0.14375 0.34372 0.0
H578 H 0.08991 0.14607 0.38285 0.0
H579 H 0.0674 0.11487 0.36316 0.0
C580 C 0.08788 0.09284 0.43772 0.0
C581 C 0.07181 0.06597 0.43125 0.0
C582 C 0.10502 0.10432 0.4174 0.0
C583 C 0.10625 0.08922 0.39018 0.0
C584 C 0.09164 0.06196 0.38435 0.0
H585 H 0.17097 0.18023 0.24995 0.0
H586 H 0.14122 0.14563 0.2738 0.0
C587 C 0.07451 0.05039 0.40474 0.0
C588 C 0.12172 0.10243 0.36739 0.0
H589 H 0.12345 0.15499 0.32696 0.0
C590 C 0.14643 0.09405 0.35901 0.0
C591 C 0.11258 0.12385 0.35462 0.0
C592 C 0.08506 0.13252 0.36128 0.0
C593 C 0.16326 0.10763 0.33943 0.0
C594 C 0.15533 0.13036 0.32845 0.0
C595 C 0.12967 0.13771 0.33556 0.0
C596 C 0.17451 0.14833 0.31185 0.0
C597 C 0.18949 0.09766 0.33096 0.0
C598 C 0.20311 0.16116 0.32522 0.0
C599 C 0.22009 0.18083 0.3117 0.0
C600 C 0.20871 0.18835 0.28465 0.0
C601 C 0.18036 0.17492 0.27079 0.0
C602 C 0.16336 0.15514 0.28436 0.0
H603 H 0.1866 0.0757 0.3321 0.0
H604 H 0.19346 0.10157 0.30807 0.0
H605 H 0.20924 0.10827 0.34694 0.0
H606 H 0.21192 0.15678 0.34678 0.0
H607 H 0.24188 0.19069 0.32297 0.0
H608 H 0.78273 0.13239 0.18972 0.0
H609 H 0.80954 0.10784 0.15788 0.0
H610 H 0.86352 0.18304 0.14319 0.0
H611 H 0.83671 0.20789 0.17493 0.0
H612 H 0.81914 0.11548 0.09453 0.0
H613 H 0.92128 0.13572 0.17682 0.0
H614 H 0.8862 0.13778 0.18797 0.0
H615 H 0.90525 0.16374 0.16929 0.0
C616 C 0.80019 0.14376 0.1796 0.0
C617 C 0.80763 0.17212 0.18494 0.0
C618 C 0.81548 0.12968 0.16142 0.0
C619 C 0.83872 0.14363 0.14852 0.0
C620 C 0.84585 0.17192 0.15324 0.0
H621 H 0.96002 0.07826 0.04471 0.0
H622 H 0.93733 0.10852 0.07502 0.0
C623 C 0.83038 0.18607 0.17122 0.0
C624 C 0.85541 0.12838 0.13018 0.0
H625 H 0.9207 0.10924 0.13104 0.0
C626 C 0.84138 0.11418 0.10242 0.0
C627 C 0.8845 0.12698 0.14045 0.0
C628 C 0.90032 0.14171 0.17032 0.0
C629 C 0.85561 0.09839 0.08468 0.0
C630 C 0.88435 0.09607 0.09543 0.0
C631 C 0.89865 0.11088 0.1229 0.0
C632 C 0.89933 0.0776 0.07891 0.0
C633 C 0.83975 0.08456 0.05442 0.0
C634 C 0.88615 0.05001 0.07204 0.0
C635 C 0.89892 0.03282 0.05469 0.0
C636 C 0.92547 0.04271 0.04419 0.0
C637 C 0.93957 0.07004 0.05248 0.0
C638 C 0.92658 0.08736 0.06969 0.0
H639 H 0.8227 0.09497 0.04571 0.0
H640 H 0.8552 0.08378 0.03791 0.0
H641 H 0.8286 0.0636 0.05645 0.0
H642 H 0.86562 0.04182 0.07969 0.0
H643 H 0.88767 0.0118 0.04904 0.0
H644 H 0.10053 0.55445 0.44992 0.0
H645 H 0.11163 0.5822 0.41054 0.0
H646 H 0.02123 0.55798 0.36914 0.0
H647 H 0.00992 0.52987 0.40836 0.0
H648 H 0.05896 0.55054 0.32989 0.0
H649 H 0.09437 0.65347 0.39141 0.0
H650 H 0.11306 0.63084 0.409 0.0
H651 H 0.07383 0.62569 0.40702 0.0
C652 C 0.08289 0.55534 0.43273 0.0
C653 C 0.0544 0.53985 0.43219 0.0
C654 C 0.08921 0.5714 0.41035 0.0
C655 C 0.06717 0.57241 0.38711 0.0
C656 C 0.0385 0.55761 0.38699 0.0
H657 H 0.14037 0.67935 0.26416 0.0
H658 H 0.10248 0.65739 0.29155 0.0
C659 C 0.03211 0.54159 0.40944 0.0
C660 C 0.075 0.58666 0.36152 0.0
H661 H 0.11442 0.64581 0.34532 0.0
C662 C 0.07052 0.57156 0.33307 0.0
C663 C 0.08937 0.61421 0.36545 0.0
C664 C 0.09264 0.63205 0.39483 0.0
C665 C 0.08219 0.58271 0.30903 0.0
C666 C 0.09934 0.60943 0.31382 0.0
C667 C 0.10167 0.62518 0.34164 0.0
C668 C 0.11794 0.62047 0.29189 0.0
C669 C 0.07663 0.56545 0.279 0.0
C670 C 0.13862 0.6067 0.28209 0.0
C671 C 0.16 0.61903 0.26612 0.0
C672 C 0.16156 0.64566 0.26023 0.0
C673 C 0.13982 0.65887 0.2685 0.0
C674 C 0.11818 0.64635 0.28418 0.0
H675 H 0.05483 0.5512 0.2757 0.0
H676 H 0.07759 0.57786 0.26039 0.0
H677 H 0.09343 0.55323 0.27803 0.0
H678 H 0.13948 0.58704 0.2884 0.0
H679 H 0.17649 0.60833 0.26023 0.0
H680 H 0.58763 0.91386 0.49967 0.0
H681 H 0.60026 0.88405 0.53503 0.0
H682 H 0.51832 0.88158 0.56898 0.0
H683 H 0.50521 0.91148 0.5333 0.0
H684 H 0.57534 0.89713 0.61267 0.0
H685 H 0.56097 0.80121 0.53708 0.0
H686 H 0.5784 0.8312 0.52305 0.0
H687 H 0.54086 0.82673 0.5292 0.0
C688 C 0.57206 0.90679 0.51437 0.0
C689 C 0.54542 0.91509 0.51373 0.0
C690 C 0.57929 0.88965 0.53446 0.0
C691 C 0.56009 0.88048 0.55433 0.0
C692 C 0.53328 0.88836 0.5536 0.0
H693 H 0.6176 0.7697 0.67256 0.0
H694 H 0.58493 0.78933 0.6396 0.0
C695 C 0.52586 0.90539 0.53324 0.0
C696 C 0.56946 0.86432 0.57712 0.0
H697 H 0.59115 0.80551 0.58423 0.0
C698 C 0.57825 0.87687 0.60668 0.0
C699 C 0.57293 0.83787 0.56921 0.0
C700 C 0.5626 0.82326 0.53796 0.0
C701 C 0.59219 0.86423 0.62819 0.0
C702 C 0.59778 0.83858 0.6197 0.0
C703 C 0.58714 0.82529 0.59063 0.0
C704 C 0.617 0.82647 0.63976 0.0
C705 C 0.6015 0.87884 0.65959 0.0
C706 C 0.64596 0.84056 0.65011 0.0
C707 C 0.66446 0.82954 0.66891 0.0
C708 C 0.65457 0.80397 0.67742 0.0
C709 C 0.62579 0.78947 0.66641 0.0
C710 C 0.60712 0.80066 0.64767 0.0
H711 H 0.58737 0.89302 0.66496 0.0
H712 H 0.6007 0.86449 0.67632 0.0
H713 H 0.62435 0.89085 0.66164 0.0
H714 H 0.65436 0.8601 0.64351 0.0
H715 H 0.68663 0.84109 0.67664 0.0
H716 H 0.47572 0.41446 0.98798 0.0
H717 H 0.4449 0.36946 0.96847 0.0
H718 H 0.41351 0.40034 0.88925 0.0
H719 H 0.4436 0.44502 0.90864 0.0
H720 H 0.37917 0.35578 0.94762 0.0
H721 H 0.44626 0.33265 0.86068 0.0
H722 H 0.46087 0.35693 0.89368 0.0
H723 H 0.44021 0.36624 0.86215 0.0
C724 C 0.46209 0.41158 0.96654 0.0
C725 C 0.46196 0.43327 0.94998 0.0
C726 C 0.44462 0.38595 0.95542 0.0
C727 C 0.42715 0.3817 0.92741 0.0
C728 C 0.42712 0.40325 0.91082 0.0
H729 H 0.27551 0.30108 0.82189 0.0
H730 H 0.31055 0.32242 0.86617 0.0
C731 C 0.44437 0.42876 0.92193 0.0
C732 C 0.40852 0.355 0.91483 0.0
H733 H 0.39484 0.31129 0.85053 0.0
C734 C 0.38281 0.34545 0.92679 0.0
C735 C 0.41375 0.3412 0.88823 0.0
C736 C 0.44194 0.3496 0.87557 0.0
C737 C 0.3608 0.32393 0.91108 0.0
C738 C 0.36449 0.31236 0.88248 0.0
C739 C 0.39158 0.32024 0.87222 0.0
C740 C 0.33979 0.29524 0.86083 0.0
C741 C 0.33355 0.31449 0.92488 0.0
C742 C 0.34413 0.27259 0.84314 0.0
C743 C 0.32468 0.26113 0.81718 0.0
C744 C 0.30014 0.27163 0.80894 0.0
C745 C 0.29421 0.29255 0.828 0.0
C746 C 0.31413 0.30456 0.85354 0.0
H747 H 0.33901 0.3159 0.94953 0.0
H748 H 0.31818 0.3278 0.92042 0.0
H749 H 0.32232 0.29337 0.91575 0.0
H750 H 0.36366 0.26495 0.84827 0.0
H751 H 0.32948 0.24477 0.80289 0.0
H752 H 0.84357 0.73926 0.30394 0.0
H753 H 0.87386 0.76482 0.34952 0.0
H754 H 0.81156 0.8153 0.35687 0.0
H755 H 0.78048 0.78864 0.31251 0.0
H756 H 0.90043 0.81258 0.3503 0.0
H757 H 0.83558 0.81547 0.44279 0.0
H758 H 0.8233 0.79093 0.40971 0.0
H759 H 0.81541 0.82401 0.41072 0.0
C760 C 0.83595 0.75526 0.31595 0.0
C761 C 0.80987 0.76218 0.30472 0.0
C762 C 0.85321 0.76983 0.34202 0.0
C763 C 0.84509 0.79204 0.35687 0.0
C764 C 0.81807 0.79788 0.34652 0.0
H765 H 0.94414 0.94734 0.40729 0.0
H766 H 0.91448 0.90278 0.38662 0.0
C767 C 0.80039 0.78279 0.32092 0.0
C768 C 0.86702 0.81194 0.37904 0.0
H769 H 0.87383 0.85669 0.44222 0.0
C770 C 0.89475 0.82159 0.37083 0.0
C771 C 0.86014 0.82367 0.40618 0.0
C772 C 0.83207 0.81269 0.41795 0.0
C773 C 0.91464 0.84391 0.38753 0.0
C774 C 0.90636 0.85745 0.41266 0.0
C775 C 0.87981 0.84658 0.42249 0.0
C776 C 0.92349 0.88449 0.42644 0.0
C777 C 0.9439 0.85357 0.37731 0.0
C778 C 0.93788 0.88908 0.45596 0.0
C779 C 0.95501 0.91469 0.4679 0.0
C780 C 0.95773 0.93603 0.45056 0.0
C781 C 0.94275 0.93134 0.42121 0.0
C782 C 0.92577 0.90587 0.40933 0.0
H783 H 0.95057 0.83691 0.36413 0.0
H784 H 0.9422 0.86944 0.36278 0.0
H785 H 0.9613 0.86228 0.39661 0.0
H786 H 0.93628 0.8728 0.46952 0.0
H787 H 0.96626 0.91774 0.49056 0.0
H788 H 0.46826 0.56266 0.56357 0.0
H789 H 0.44678 0.5907 0.59812 0.0
H790 H 0.36439 0.56829 0.53907 0.0
H791 H 0.38521 0.53995 0.50525 0.0
H792 H 0.42034 0.63396 0.59228 0.0
H793 H 0.33999 0.54615 0.61659 0.0
H794 H 0.37043 0.54247 0.5972 0.0
H795 H 0.33763 0.54876 0.57742 0.0
C796 C 0.4456 0.5638 0.55802 0.0
C797 C 0.42831 0.54871 0.53195 0.0
C798 C 0.43336 0.57984 0.57772 0.0
C799 C 0.40373 0.58109 0.57154 0.0
C800 C 0.387 0.56705 0.5448 0.0
H801 H 0.31385 0.69457 0.65962 0.0
H802 H 0.33881 0.67118 0.62433 0.0
C803 C 0.39902 0.55087 0.52541 0.0
C804 C 0.38982 0.59641 0.59314 0.0
H805 H 0.33218 0.58943 0.63283 0.0
C806 C 0.40118 0.62424 0.60133 0.0
C807 C 0.36497 0.58367 0.60521 0.0
C808 C 0.35271 0.55358 0.59892 0.0
C809 C 0.38807 0.63971 0.62085 0.0
C810 C 0.36256 0.62709 0.63201 0.0
C811 C 0.3515 0.59921 0.62406 0.0
C812 C 0.3477 0.64191 0.65318 0.0
C813 C 0.40204 0.66927 0.62983 0.0
C814 C 0.34356 0.63284 0.68075 0.0
C815 C 0.32891 0.64583 0.70062 0.0
C816 C 0.31807 0.66833 0.69353 0.0
C817 C 0.32207 0.6774 0.66584 0.0
C818 C 0.33658 0.66419 0.64576 0.0
H819 H 0.42531 0.67409 0.626 0.0
H820 H 0.39 0.6813 0.61618 0.0
H821 H 0.40113 0.6756 0.65374 0.0
H822 H 0.35179 0.61567 0.687 0.0
H823 H 0.32633 0.63827 0.72173 0.0
H824 H 0.5913 0.05247 0.95277 0.0
H825 H 0.6014 0.08731 0.9205 0.0
H826 H 0.50857 0.07945 0.89477 0.0
H827 H 0.49818 0.04403 0.92674 0.0
H828 H 0.53671 0.07802 0.84691 0.0
H829 H 0.59615 0.16524 0.92844 0.0
H830 H 0.61175 0.1368 0.93406 0.0
H831 H 0.57424 0.13553 0.93959 0.0
C832 C 0.57299 0.05833 0.94056 0.0
C833 C 0.54397 0.04546 0.94228 0.0
C834 C 0.5788 0.07847 0.92233 0.0
C835 C 0.55572 0.08638 0.90573 0.0
C836 C 0.52667 0.07384 0.90766 0.0
H837 H 0.64193 0.20839 0.80607 0.0
H838 H 0.60156 0.18832 0.83163 0.0
C839 C 0.52081 0.05359 0.92589 0.0
C840 C 0.56244 0.10582 0.88429 0.0
H841 H 0.61063 0.16402 0.87836 0.0
C842 C 0.55226 0.0972 0.85379 0.0
C843 C 0.58188 0.13125 0.89322 0.0
C844 C 0.59131 0.14284 0.92567 0.0
C845 C 0.56361 0.112 0.83192 0.0
C846 C 0.58614 0.13553 0.84087 0.0
C847 C 0.59379 0.14566 0.87137 0.0
C848 C 0.60545 0.14725 0.81994 0.0
C849 C 0.55226 0.10161 0.79946 0.0
C850 C 0.6205 0.13079 0.80418 0.0
C851 C 0.64345 0.14214 0.78954 0.0
C852 C 0.65212 0.17025 0.79074 0.0
C853 C 0.63587 0.18665 0.8049 0.0
C854 C 0.61276 0.17523 0.81947 0.0
H855 H 0.52852 0.09182 0.7965 0.0
H856 H 0.55552 0.11801 0.78521 0.0
H857 H 0.56397 0.0861 0.79168 0.0
H858 H 0.61586 0.10924 0.80485 0.0
H859 H 0.65545 0.12894 0.77878 0.0
H860 H 0.01436 0.41505 0.07771 0.0
H861 H 0.0345 0.38555 0.10977 0.0
H862 H 0.10033 0.38011 0.0526 0.0
H863 H 0.08102 0.41006 0.02123 0.0
H864 H 0.04655 0.33371 0.10158 0.0
H865 H 0.14866 0.41349 0.13314 0.0
H866 H 0.11574 0.41951 0.11316 0.0
H867 H 0.13973 0.4033 0.09356 0.0
C868 C 0.03286 0.40722 0.07182 0.0
C869 C 0.04648 0.41519 0.04734 0.0
C870 C 0.04432 0.39039 0.0901 0.0
C871 C 0.06933 0.38118 0.08392 0.0
C872 C 0.0815 0.38755 0.0582 0.0
H873 H 0.15563 0.26663 0.16629 0.0
H874 H 0.12328 0.28699 0.134 0.0
C875 C 0.0704 0.40462 0.04027 0.0
C876 C 0.08419 0.36671 0.10535 0.0
H877 H 0.14987 0.37078 0.1482 0.0
C878 C 0.06909 0.34181 0.11195 0.0
C879 C 0.11343 0.37757 0.11923 0.0
C880 C 0.13026 0.40506 0.11469 0.0
C881 C 0.08275 0.32718 0.13161 0.0
C882 C 0.11239 0.33759 0.14448 0.0
C883 C 0.12722 0.36269 0.13817 0.0
C884 C 0.12868 0.3234 0.1651 0.0
C885 C 0.06522 0.30103 0.1388 0.0
C886 C 0.14246 0.33702 0.19324 0.0
C887 C 0.16128 0.32571 0.21133 0.0
C888 C 0.16662 0.3004 0.2018 0.0
C889 C 0.15181 0.28612 0.17423 0.0
C890 C 0.13317 0.29766 0.15587 0.0
H891 H 0.04125 0.29973 0.13406 0.0
H892 H 0.07022 0.28396 0.12476 0.0
H893 H 0.07094 0.29867 0.16262 0.0
H894 H 0.13932 0.35686 0.20086 0.0
H895 H 0.17212 0.33711 0.2326 0.0
H896 H 0.56712 0.53029 0.90182 0.0
H897 H 0.59936 0.54819 0.86665 0.0
H898 H 0.58428 0.62745 0.89028 0.0
H899 H 0.55227 0.60992 0.92545 0.0
H900 H 0.58281 0.57508 0.81697 0.0
H901 H 0.67458 0.63954 0.89786 0.0
H902 H 0.64781 0.61279 0.90856 0.0
H903 H 0.63917 0.64484 0.90404 0.0
C904 C 0.57093 0.55159 0.89975 0.0
C905 C 0.55715 0.5687 0.91642 0.0
C906 C 0.58927 0.56173 0.87962 0.0
C907 C 0.59435 0.58914 0.87614 0.0
C908 C 0.58096 0.6063 0.89302 0.0
H909 H 0.64346 0.68902 0.74674 0.0
H910 H 0.61778 0.65529 0.7743 0.0
C911 C 0.56257 0.59621 0.91301 0.0
C912 C 0.61257 0.59985 0.85396 0.0
H913 H 0.67209 0.64856 0.84716 0.0
C914 C 0.60261 0.59085 0.8235 0.0
C915 C 0.6385 0.62017 0.86263 0.0
C916 C 0.65085 0.62976 0.89507 0.0
C917 C 0.61714 0.60275 0.80138 0.0
C918 C 0.64206 0.62417 0.81009 0.0
C919 C 0.65286 0.63217 0.84055 0.0
C920 C 0.65607 0.64018 0.78837 0.0
C921 C 0.60549 0.59269 0.76892 0.0
C922 C 0.68593 0.64235 0.78655 0.0
C923 C 0.7007 0.6616 0.77081 0.0
C924 C 0.68593 0.67931 0.75699 0.0
C925 C 0.65554 0.67579 0.75717 0.0
C926 C 0.64076 0.65641 0.7728 0.0
H927 H 0.59157 0.57191 0.76593 0.0
H928 H 0.59185 0.60613 0.76007 0.0
H929 H 0.62371 0.59289 0.75549 0.0
H930 H 0.69811 0.63004 0.79853 0.0
H931 H 0.72407 0.66363 0.77106 0.0
H932 H 0.6933 0.26814 0.14127 0.0
H933 H 0.67445 0.29505 0.10529 0.0
H934 H 0.69305 0.36365 0.17407 0.0
H935 H 0.7122 0.33723 0.20983 0.0
H936 H 0.62682 0.31612 0.11192 0.0
H937 H 0.72083 0.39862 0.1039 0.0
H938 H 0.72538 0.36804 0.11851 0.0
H939 H 0.71715 0.39519 0.14216 0.0
C940 C 0.69402 0.28915 0.1485 0.0
C941 C 0.70402 0.30051 0.17844 0.0
C942 C 0.68325 0.30447 0.12793 0.0
C943 C 0.6827 0.33144 0.1369 0.0
C944 C 0.69389 0.34309 0.16644 0.0
H945 H 0.59278 0.45192 0.11188 0.0
H946 H 0.6255 0.42223 0.12381 0.0
C947 C 0.70456 0.32784 0.18697 0.0
C948 C 0.66699 0.3465 0.11698 0.0
H949 H 0.67251 0.40853 0.0942 0.0
C950 C 0.63694 0.33603 0.10726 0.0
C951 C 0.68026 0.37244 0.11093 0.0
C952 C 0.71277 0.38408 0.11917 0.0
C953 C 0.61932 0.35167 0.0938 0.0
C954 C 0.63228 0.3783 0.08967 0.0
C955 C 0.66265 0.38813 0.09758 0.0
C956 C 0.61417 0.39727 0.08079 0.0
C957 C 0.58669 0.34031 0.08607 0.0
C958 C 0.59736 0.39329 0.05241 0.0
C959 C 0.57849 0.41024 0.0455 0.0
C960 C 0.57624 0.43138 0.06691 0.0
C961 C 0.59387 0.43575 0.09494 0.0
C962 C 0.61268 0.41888 0.10177 0.0
H963 H 0.57968 0.32065 0.09436 0.0
H964 H 0.57444 0.35466 0.09567 0.0
H965 H 0.58048 0.33724 0.06143 0.0
H966 H 0.5985 0.37686 0.03583 0.0
H967 H 0.56528 0.40644 0.02366 0.0
H968 H 0.93274 0.50195 0.41126 0.0
H969 H 0.89954 0.48215 0.36486 0.0
H970 H 0.89689 0.40266 0.38949 0.0
H971 H 0.9305 0.42211 0.43522 0.0
H972 H 0.90948 0.40782 0.33222 0.0
H973 H 0.81128 0.44799 0.35184 0.0
H974 H 0.84606 0.47147 0.35456 0.0
H975 H 0.84033 0.44878 0.38186 0.0
C976 C 0.9248 0.48026 0.40687 0.0
C977 C 0.93424 0.46354 0.42685 0.0
C978 C 0.90577 0.46902 0.38041 0.0
C979 C 0.89563 0.44097 0.37384 0.0
C980 C 0.90457 0.42438 0.39411 0.0
H981 H 0.76708 0.3168 0.3051 0.0
H982 H 0.79261 0.36312 0.32261 0.0
C983 C 0.92375 0.43551 0.42026 0.0
C984 C 0.87662 0.4281 0.34552 0.0
H985 H 0.80541 0.41347 0.31197 0.0
C986 C 0.88684 0.40936 0.32727 0.0
C987 C 0.84735 0.43067 0.33898 0.0
C988 C 0.83537 0.4507 0.3578 0.0
C989 C 0.8678 0.3908 0.30492 0.0
C990 C 0.83775 0.39179 0.2999 0.0
C991 C 0.82835 0.41267 0.3159 0.0
C992 C 0.81525 0.36808 0.28408 0.0
C993 C 0.87963 0.36866 0.28936 0.0
C994 C 0.81728 0.35613 0.25536 0.0
C995 C 0.80335 0.32909 0.24576 0.0
C996 C 0.78627 0.31422 0.26426 0.0
C997 C 0.78039 0.32763 0.29058 0.0
C998 C 0.79498 0.35429 0.30056 0.0
H999 H 0.90253 0.36903 0.299 0.0
H1000 H 0.86585 0.34855 0.29096 0.0
H1001 H 0.87951 0.37109 0.26541 0.0
H1002 H 0.83173 0.36682 0.24161 0.0
H1003 H 0.80762 0.31935 0.22494 0.0
H1004 H 0.52866 0.53957 0.42375 0.0
H1005 H 0.55911 0.57187 0.39854 0.0
H1006 H 0.61819 0.60152 0.48077 0.0
H1007 H 0.58754 0.56887 0.50661 0.0
H1008 H 0.57412 0.6306 0.41656 0.0
H1009 H 0.67095 0.58417 0.41506 0.0
H1010 H 0.63537 0.56495 0.41978 0.0
H1011 H 0.65675 0.58928 0.44978 0.0
C1012 C 0.54818 0.5528 0.43664 0.0
C1013 C 0.55566 0.55157 0.46729 0.0
C1014 C 0.56555 0.5713 0.42211 0.0
C1015 C 0.59096 0.58894 0.43771 0.0
C1016 C 0.59877 0.58785 0.46828 0.0
H1017 H 0.71062 0.7037 0.35201 0.0
H1018 H 0.68978 0.67719 0.38936 0.0
C1019 C 0.5812 0.5693 0.48302 0.0
C1020 C 0.60839 0.6088 0.4216 0.0
H1021 H 0.67044 0.62122 0.38864 0.0
C1022 C 0.59536 0.6288 0.41077 0.0
C1023 C 0.63612 0.60643 0.41423 0.0
C1024 C 0.65076 0.58503 0.42512 0.0
C1025 C 0.60892 0.64602 0.392 0.0
C1026 C 0.63592 0.64274 0.38326 0.0
C1027 C 0.64963 0.62355 0.3952 0.0
C1028 C 0.64925 0.65802 0.36045 0.0
C1029 C 0.594 0.66741 0.38145 0.0
C1030 C 0.6337 0.6555 0.33161 0.0
C1031 C 0.64544 0.67063 0.31032 0.0
C1032 C 0.67316 0.68841 0.31731 0.0
C1033 C 0.68917 0.69024 0.34593 0.0
C1034 C 0.67731 0.67512 0.3673 0.0
H1035 H 0.57895 0.67274 0.39695 0.0
H1036 H 0.61028 0.686 0.37934 0.0
H1037 H 0.58075 0.65964 0.35921 0.0
H1038 H 0.61231 0.64192 0.3256 0.0
H1039 H 0.63264 0.6685 0.28843 0.0
H1040 H 0.77199 0.29309 0.85264 0.0
H1041 H 0.79257 0.3384 0.87908 0.0
H1042 H 0.7792 0.37182 0.79666 0.0
H1043 H 0.75863 0.32638 0.77012 0.0
H1044 H 0.83518 0.3854 0.82247 0.0
H1045 H 0.76629 0.40582 0.90775 0.0
H1046 H 0.77312 0.37275 0.90863 0.0
H1047 H 0.75293 0.38032 0.87558 0.0
C1048 C 0.77284 0.31014 0.84029 0.0
C1049 C 0.76443 0.30626 0.80922 0.0
C1050 C 0.78426 0.33606 0.85547 0.0
C1051 C 0.78705 0.35852 0.83989 0.0
C1052 C 0.77705 0.35477 0.80912 0.0
H1053 H 0.93083 0.49565 0.92027 0.0
H1054 H 0.88448 0.47474 0.88816 0.0
C1055 C 0.76568 0.32882 0.79393 0.0
C1056 C 0.80527 0.38472 0.8548 0.0
H1057 H 0.81933 0.42519 0.92177 0.0
C1058 C 0.83137 0.39476 0.84374 0.0
C1059 C 0.80001 0.39705 0.88229 0.0
C1060 C 0.77136 0.38856 0.89403 0.0
C1061 C 0.85389 0.41461 0.8611 0.0
C1062 C 0.84981 0.42492 0.89004 0.0
C1063 C 0.82252 0.41691 0.89976 0.0
C1064 C 0.87492 0.44029 0.91202 0.0
C1065 C 0.88275 0.42246 0.84941 0.0
C1066 C 0.88407 0.42847 0.9369 0.0
C1067 C 0.9103 0.44051 0.95553 0.0
C1068 C 0.92789 0.46443 0.94936 0.0
C1069 C 0.91795 0.47693 0.92527 0.0
C1070 C 0.89149 0.46507 0.90691 0.0
H1071 H 0.88343 0.40968 0.82829 0.0
H1072 H 0.88622 0.4437 0.84493 0.0
H1073 H 0.90122 0.42087 0.86621 0.0
H1074 H 0.87154 0.40929 0.94116 0.0
H1075 H 0.91733 0.43053 0.97402 0.0
H1076 H 0.87081 0.75947 0.14261 0.0
H1077 H 0.89091 0.79389 0.1127 0.0
H1078 H 0.82589 0.83821 0.13357 0.0
H1079 H 0.80513 0.80346 0.16298 0.0
H1080 H 0.83397 0.83709 0.07479 0.0
H1081 H 0.94114 0.86714 0.14853 0.0
H1082 H 0.93155 0.83197 0.13393 0.0
H1083 H 0.90958 0.84539 0.15881 0.0
C1084 C 0.86072 0.77651 0.14082 0.0
C1085 C 0.83655 0.77887 0.15545 0.0
C1086 C 0.87233 0.79623 0.1238 0.0
C1087 C 0.86029 0.81891 0.1214 0.0
C1088 C 0.83563 0.82094 0.13525 0.0
H1089 H 0.95447 0.96797 0.07322 0.0
H1090 H 0.9268 0.93263 0.09725 0.0
C1091 C 0.82383 0.8011 0.15211 0.0
C1092 C 0.87384 0.84075 0.10501 0.0
H1093 H 0.93812 0.88551 0.10287 0.0
C1094 C 0.85671 0.84779 0.08095 0.0
C1095 C 0.90338 0.85496 0.11338 0.0
C1096 C 0.92242 0.84971 0.14025 0.0
C1097 C 0.86845 0.86846 0.06482 0.0
C1098 C 0.89831 0.88201 0.07256 0.0
C1099 C 0.9153 0.87502 0.09675 0.0
C1100 C 0.91242 0.90416 0.05679 0.0
C1101 C 0.84854 0.87599 0.04021 0.0
C1102 C 0.91322 0.90019 0.02584 0.0
C1103 C 0.92872 0.92068 0.01188 0.0
C1104 C 0.94421 0.94519 0.0288 0.0
C1105 C 0.94293 0.94923 0.05961 0.0
C1106 C 0.92711 0.92902 0.0734 0.0
H1107 H 0.82508 0.86947 0.0429 0.0
H1108 H 0.85373 0.89809 0.03959 0.0
H1109 H 0.85153 0.8658 0.01839 0.0
H1110 H 0.90267 0.881 0.01264 0.0
H1111 H 0.92957 0.91695 0.98814 0.0
H1112 H 0.84224 0.20979 0.80958 0.0
H1113 H 0.86847 0.17787 0.83038 0.0
H1114 H 0.78708 0.11847 0.82138 0.0
H1115 H 0.76062 0.15014 0.80052 0.0
H1116 H 0.85437 0.15445 0.88381 0.0
H1117 H 0.84531 0.07683 0.78558 0.0
H1118 H 0.84127 0.1107 0.78178 0.0
H1119 H 0.81213 0.08684 0.7928 0.0
C1120 C 0.82995 0.18983 0.81166 0.0
C1121 C 0.79933 0.18255 0.80351 0.0
C1122 C 0.84497 0.17163 0.82352 0.0
C1123 C 0.82971 0.14578 0.82711 0.0
C1124 C 0.79928 0.13819 0.81833 0.0
H1125 H 0.89091 0.01992 0.91695 0.0
H1126 H 0.86046 0.04387 0.88687 0.0
C1127 C 0.7842 0.1564 0.8066 0.0
C1128 C 0.84532 0.12766 0.84236 0.0
H1129 H 0.86726 0.06824 0.83208 0.0
C1130 C 0.85721 0.13561 0.87251 0.0
C1131 C 0.84853 0.10293 0.8276 0.0
C1132 C 0.83634 0.09375 0.79509 0.0
C1133 C 0.87251 0.1196 0.88834 0.0
C1134 C 0.87662 0.09529 0.87338 0.0
C1135 C 0.86412 0.08695 0.84339 0.0
C1136 C 0.89528 0.0793 0.88836 0.0
C1137 C 0.8841 0.12882 0.92103 0.0
C1138 C 0.92504 0.09092 0.89807 0.0
C1139 C 0.94225 0.0775 0.91525 0.0
C1140 C 0.93015 0.052 0.92278 0.0
C1141 C 0.90076 0.03958 0.91152 0.0
C1142 C 0.88339 0.05321 0.8944 0.0
H1143 H 0.87225 0.14336 0.93099 0.0
H1144 H 0.8822 0.11145 0.93394 0.0
H1145 H 0.90762 0.13908 0.92339 0.0
H1146 H 0.93475 0.1108 0.89309 0.0
H1147 H 0.96496 0.08743 0.92319 0.0
H1148 H 0.73489 0.21102 0.64932 0.0
H1149 H 0.70171 0.17299 0.61643 0.0
H1150 H 0.65412 0.1531 0.68934 0.0
H1151 H 0.68694 0.19124 0.7221 0.0
H1152 H 0.6839 0.11301 0.6279 0.0
H1153 H 0.59529 0.16989 0.61748 0.0
H1154 H 0.63347 0.18663 0.62827 0.0
H1155 H 0.61365 0.16922 0.65437 0.0
C1156 C 0.71755 0.19833 0.65837 0.0
C1157 C 0.71352 0.20384 0.68831 0.0
C1158 C 0.69876 0.17665 0.63965 0.0
C1159 C 0.67557 0.16049 0.65059 0.0
C1160 C 0.67199 0.16544 0.68064 0.0
H1161 H 0.5269 0.03573 0.56415 0.0
H1162 H 0.56108 0.07167 0.59844 0.0
C1163 C 0.69087 0.187 0.69937 0.0
C1164 C 0.65405 0.13945 0.63009 0.0
H1165 H 0.58455 0.12559 0.59219 0.0
C1166 C 0.66218 0.11566 0.62 0.0
C1167 C 0.62578 0.14315 0.62021 0.0
C1168 C 0.61638 0.16862 0.63042 0.0
C1169 C 0.64251 0.0952 0.60014 0.0
C1170 C 0.61443 0.09914 0.58969 0.0
C1171 C 0.60623 0.12284 0.60011 0.0
C1172 C 0.5931 0.07871 0.56814 0.0
C1173 C 0.65169 0.06936 0.59096 0.0
C1174 C 0.59948 0.0715 0.53946 0.0
C1175 C 0.57994 0.05107 0.51973 0.0
C1176 C 0.55367 0.03772 0.52841 0.0
C1177 C 0.54686 0.04578 0.55674 0.0
C1178 C 0.5664 0.06619 0.57642 0.0
H1179 H 0.67063 0.06684 0.60658 0.0
H1180 H 0.63327 0.05159 0.59 0.0
H1181 H 0.65831 0.0697 0.56837 0.0
H1182 H 0.61977 0.08142 0.53252 0.0
H1183 H 0.58568 0.04537 0.49798 0.0
H1184 H 0.51498 0.88225 0.39425 0.0
H1185 H 0.5511 0.86462 0.36885 0.0
H1186 H 0.59589 0.94557 0.36065 0.0
H1187 H 0.56021 0.96352 0.38685 0.0
H1188 H 0.57203 0.86782 0.31543 0.0
H1189 H 0.65862 0.91858 0.41028 0.0
H1190 H 0.62021 0.91677 0.41166 0.0
H1191 H 0.64021 0.94047 0.39087 0.0
C1192 C 0.53217 0.89634 0.38659 0.0
C1193 C 0.53504 0.92432 0.39311 0.0
C1194 C 0.55282 0.88621 0.37205 0.0
C1195 C 0.57661 0.90383 0.3636 0.0
C1196 C 0.57813 0.93167 0.36772 0.0
H1197 H 0.69907 0.82505 0.27481 0.0
H1198 H 0.66866 0.85728 0.28521 0.0
C1199 C 0.55757 0.94186 0.38248 0.0
C1200 C 0.60077 0.89286 0.35281 0.0
H1201 H 0.67227 0.89053 0.37294 0.0
C1202 C 0.59408 0.87302 0.32771 0.0
C1203 C 0.62943 0.89953 0.36916 0.0
C1204 C 0.63763 0.91983 0.39713 0.0
C1205 C 0.61491 0.85887 0.31916 0.0
C1206 C 0.64343 0.86526 0.33578 0.0
C1207 C 0.65046 0.88586 0.36015 0.0
C1208 C 0.66511 0.84877 0.33039 0.0
C1209 C 0.60565 0.83617 0.2935 0.0
C1210 C 0.67461 0.83451 0.35292 0.0
C1211 C 0.69229 0.81639 0.34722 0.0
C1212 C 0.70072 0.81211 0.31882 0.0
C1213 C 0.69269 0.82767 0.29684 0.0
C1214 C 0.67513 0.84595 0.30265 0.0
H1215 H 0.58144 0.83032 0.28715 0.0
H1216 H 0.61539 0.84269 0.2737 0.0
H1217 H 0.61351 0.81811 0.29926 0.0
H1218 H 0.66729 0.83652 0.37457 0.0
H1219 H 0.6982 0.80486 0.36469 0.0
H1220 H 0.88228 0.21192 0.29428 0.0
H1221 H 0.90084 0.1857 0.33079 0.0
H1222 H 0.82039 0.17725 0.36891 0.0
H1223 H 0.80124 0.20292 0.33181 0.0
H1224 H 0.91003 0.19029 0.39252 0.0
H1225 H 0.82311 0.09939 0.343 0.0
H1226 H 0.82968 0.12954 0.32528 0.0
H1227 H 0.81078 0.12846 0.35733 0.0
C1228 C 0.86864 0.20479 0.31063 0.0
C1229 C 0.84013 0.20912 0.30987 0.0
C1230 C 0.87931 0.18986 0.33155 0.0
C1231 C 0.86176 0.17913 0.35217 0.0
C1232 C 0.83401 0.18487 0.35275 0.0
H1233 H 0.94648 0.08214 0.47048 0.0
H1234 H 0.9179 0.11496 0.4565 0.0
C1235 C 0.82317 0.19961 0.33161 0.0
C1236 C 0.87199 0.16025 0.37118 0.0
H1237 H 0.86014 0.09341 0.37894 0.0
C1238 C 0.89892 0.16918 0.39003 0.0
C1239 C 0.85736 0.13273 0.36772 0.0
C1240 C 0.82874 0.12179 0.34712 0.0
C1241 C 0.91253 0.15102 0.40418 0.0
C1242 C 0.89849 0.12334 0.39965 0.0
C1243 C 0.87072 0.11469 0.38232 0.0
C1244 C 0.91395 0.10261 0.40891 0.0
C1245 C 0.94264 0.16128 0.42217 0.0
C1246 C 0.92039 0.08437 0.38682 0.0
C1247 C 0.93643 0.06557 0.39467 0.0
C1248 C 0.94636 0.06465 0.42482 0.0
C1249 C 0.93927 0.0825 0.44704 0.0
C1250 C 0.92307 0.10131 0.43912 0.0
H1251 H 0.9522 0.18259 0.41977 0.0
H1252 H 0.94117 0.16004 0.44617 0.0
H1253 H 0.95781 0.14867 0.41518 0.0
H1254 H 0.91351 0.08507 0.36337 0.0
H1255 H 0.94142 0.05207 0.37702 0.0
H1256 H 0.66442 0.18496 0.26125 0.0
H1257 H 0.63566 0.14007 0.23919 0.0
H1258 H 0.69229 0.13888 0.17124 0.0
H1259 H 0.72208 0.18259 0.1946 0.0
H1260 H 0.60402 0.13043 0.19065 0.0
H1261 H 0.67865 0.06235 0.17973 0.0
H1262 H 0.68985 0.09425 0.20374 0.0
H1263 H 0.69429 0.09206 0.16468 0.0
C1264 C 0.671 0.17467 0.24203 0.0
C1265 C 0.69519 0.1871 0.22938 0.0
C1266 C 0.65471 0.14902 0.22952 0.0
C1267 C 0.66188 0.13576 0.20366 0.0
C1268 C 0.68676 0.148 0.19173 0.0
H1269 H 0.55019 0.07294 0.04784 0.0
H1270 H 0.58283 0.09632 0.09279 0.0
C1271 C 0.70357 0.17323 0.20481 0.0
C1272 C 0.64078 0.11195 0.18612 0.0
H1273 H 0.63772 0.05556 0.13736 0.0
C1274 C 0.61137 0.11366 0.17981 0.0
C1275 C 0.64975 0.08947 0.17235 0.0
C1276 C 0.67981 0.08435 0.18086 0.0
C1277 C 0.59164 0.09519 0.15802 0.0
C1278 C 0.60185 0.07517 0.14122 0.0
C1279 C 0.63025 0.07158 0.14957 0.0
C1280 C 0.58433 0.06015 0.11309 0.0
C1281 C 0.56029 0.09805 0.15232 0.0
C1282 C 0.57572 0.03191 0.10892 0.0
C1283 C 0.55732 0.0184 0.0829 0.0
C1284 C 0.54731 0.03303 0.06088 0.0
C1285 C 0.55715 0.06118 0.06462 0.0
C1286 C 0.57569 0.07456 0.09034 0.0
H1287 H 0.55347 0.1069 0.17299 0.0
H1288 H 0.55837 0.11187 0.13534 0.0
H1289 H 0.54496 0.07831 0.14398 0.0
H1290 H 0.58247 0.02045 0.12611 0.0
H1291 H 0.55011 -0.00335 0.08053 0.0
H1292 H 0.70286 0.82488 0.81122 0.0
H1293 H 0.68454 0.85456 0.84675 0.0
H1294 H 0.6013 0.79719 0.83391 0.0
H1295 H 0.61951 0.76736 0.79933 0.0
H1296 H 0.64002 0.87846 0.83486 0.0
H1297 H 0.61461 0.81482 0.92312 0.0
H1298 H 0.63703 0.80682 0.89544 0.0
H1299 H 0.5976 0.79722 0.88709 0.0
C1300 C 0.68088 0.81838 0.81648 0.0
C1301 C 0.66269 0.79372 0.80244 0.0
C1302 C 0.67041 0.83537 0.83673 0.0
C1303 C 0.64168 0.82793 0.84342 0.0
C1304 C 0.62379 0.80309 0.82984 0.0
H1305 H 0.52026 0.9237 0.88371 0.0
H1306 H 0.55165 0.89669 0.86245 0.0
C1307 C 0.63421 0.78612 0.80979 0.0
C1308 C 0.62919 0.84696 0.86224 0.0
H1309 H 0.58817 0.85039 0.91902 0.0
C1310 C 0.62914 0.87248 0.85359 0.0
C1311 C 0.61533 0.83942 0.88701 0.0
C1312 C 0.61642 0.81318 0.89889 0.0
C1313 C 0.61423 0.88999 0.86792 0.0
C1314 C 0.59838 0.88152 0.89107 0.0
C1315 C 0.59985 0.85668 0.90089 0.0
C1316 C 0.57914 0.8976 0.90438 0.0
C1317 C 0.61541 0.91732 0.85789 0.0
C1318 C 0.58343 0.90628 0.93525 0.0
C1319 C 0.56528 0.92158 0.94758 0.0
C1320 C 0.5424 0.92834 0.92925 0.0
C1321 C 0.5378 0.91907 0.89845 0.0
C1322 C 0.55588 0.90377 0.8862 0.0
H1323 H 0.63534 0.92402 0.84739 0.0
H1324 H 0.596 0.91611 0.84097 0.0
H1325 H 0.61519 0.93277 0.8769 0.0
H1326 H 0.60107 0.90152 0.94975 0.0
H1327 H 0.56937 0.92833 0.9714 0.0
H1328 H 0.92473 0.93997 0.57861 0.0
H1329 H 0.88914 0.91597 0.6071 0.0
H1330 H 0.92817 0.84704 0.59819 0.0
H1331 H 0.96344 0.8706 0.56929 0.0
H1332 H 0.86769 0.83326 0.58751 0.0
H1333 H 0.90766 0.90268 0.69365 0.0
H1334 H 0.89763 0.91891 0.66213 0.0
H1335 H 0.92817 0.90295 0.66256 0.0
C1336 C 0.92571 0.91969 0.58268 0.0
C1337 C 0.94705 0.90726 0.57189 0.0
C1338 C 0.90548 0.90608 0.5991 0.0
C1339 C 0.90642 0.87995 0.60521 0.0
C1340 C 0.92722 0.86727 0.59386 0.0
H1341 H 0.82458 0.7925 0.73794 0.0
H1342 H 0.85908 0.81678 0.70854 0.0
C1343 C 0.94737 0.8808 0.57737 0.0
C1344 C 0.88574 0.86566 0.62337 0.0
H1345 H 0.8644 0.86889 0.69256 0.0
C1346 C 0.86696 0.84101 0.61048 0.0
C1347 C 0.88519 0.87568 0.65346 0.0
C1348 C 0.90591 0.90138 0.66893 0.0
C1349 C 0.84738 0.82621 0.6268 0.0
C1350 C 0.84623 0.83663 0.6566 0.0
C1351 C 0.86523 0.86111 0.66962 0.0
C1352 C 0.8254 0.82237 0.67461 0.0
C1353 C 0.82846 0.79933 0.61219 0.0
C1354 C 0.79512 0.81796 0.66551 0.0
C1355 C 0.77542 0.80397 0.68207 0.0
C1356 C 0.78563 0.79429 0.70823 0.0
C1357 C 0.81602 0.79942 0.71775 0.0
C1358 C 0.83574 0.81335 0.70105 0.0
H1359 H 0.8373 0.7911 0.59251 0.0
H1360 H 0.82657 0.78437 0.62825 0.0
H1361 H 0.80611 0.80188 0.60438 0.0
H1362 H 0.78671 0.82532 0.64554 0.0
H1363 H 0.75216 0.80064 0.67422 0.0
H1364 H 0.21263 0.85736 0.82434 0.0
H1365 H 0.18369 0.88093 0.85428 0.0
H1366 H 0.11843 0.80685 0.84888 0.0
H1367 H 0.14798 0.78291 0.81971 0.0
H1368 H 0.13038 0.8883 0.83719 0.0
H1369 H 0.12673 0.83357 0.93631 0.0
H1370 H 0.15137 0.82959 0.90955 0.0
H1371 H 0.11332 0.81244 0.90123 0.0
C1372 C 0.19233 0.84598 0.82991 0.0
C1373 C 0.18262 0.81826 0.81973 0.0
C1374 C 0.17575 0.85949 0.84699 0.0
C1375 C 0.14892 0.8457 0.85411 0.0
C1376 C 0.13934 0.81787 0.84434 0.0
H1377 H 0.02595 0.91813 0.95119 0.0
H1378 H 0.04503 0.8864 0.9186 0.0
C1379 C 0.15621 0.8042 0.82756 0.0
C1380 C 0.13053 0.86107 0.87021 0.0
H1381 H 0.09903 0.86701 0.93387 0.0
C1382 C 0.12348 0.88352 0.85828 0.0
C1383 C 0.12117 0.85475 0.89761 0.0
C1384 C 0.12871 0.83143 0.91212 0.0
C1385 C 0.10813 0.90018 0.87328 0.0
C1386 C 0.09962 0.89438 0.90106 0.0
C1387 C 0.10553 0.87135 0.9125 0.0
C1388 C 0.08725 0.91348 0.91984 0.0
C1389 C 0.1015 0.92416 0.85945 0.0
C1390 C 0.10466 0.93908 0.93131 0.0
C1391 C 0.09392 0.95708 0.94982 0.0
C1392 C 0.06548 0.94992 0.95737 0.0
C1393 C 0.04785 0.92433 0.9456 0.0
C1394 C 0.05876 0.90616 0.92713 0.0
H1395 H 0.10205 0.92168 0.83498 0.0
H1396 H 0.07967 0.92741 0.86356 0.0
H1397 H 0.1183 0.9425 0.86968 0.0
H1398 H 0.12684 0.94502 0.92633 0.0
H1399 H 0.10816 0.97657 0.95851 0.0
H1400 H 0.97613 0.49105 0.61864 0.0
H1401 H 0.96068 0.45534 0.64861 0.0
H1402 H 0.94332 0.39623 0.56984 0.0
H1403 H 0.95792 0.4321 0.53944 0.0
H1404 H 0.89787 0.39146 0.59852 0.0
H1405 H 0.99525 0.39771 0.68158 0.0
H1406 H 0.98645 0.43007 0.68115 0.0
H1407 H 0.99728 0.41408 0.64838 0.0
C1408 C 0.96944 0.47042 0.60772 0.0
C1409 C 0.96801 0.46442 0.57663 0.0
C1410 C 0.96094 0.44994 0.62499 0.0
C1411 C 0.95136 0.423 0.61162 0.0
C1412 C 0.95086 0.41685 0.58069 0.0
H1413 H 0.84691 0.29133 0.68782 0.0
H1414 H 0.88405 0.31341 0.65976 0.0
C1415 C 0.95909 0.43737 0.56333 0.0
C1416 C 0.93825 0.40199 0.62923 0.0
H1417 H 0.9482 0.37771 0.69596 0.0
C1418 C 0.90913 0.38797 0.61947 0.0
C1419 C 0.95294 0.39744 0.65659 0.0
C1420 C 0.98482 0.41044 0.66735 0.0
C1421 C 0.89371 0.37085 0.63712 0.0
C1422 C 0.9079 0.36743 0.66519 0.0
C1423 C 0.93741 0.38046 0.67445 0.0
C1424 C 0.89126 0.35255 0.68614 0.0
C1425 C 0.8618 0.35776 0.62633 0.0
C1426 C 0.88447 0.36692 0.71135 0.0
C1427 C 0.86332 0.35439 0.72751 0.0
C1428 C 0.8486 0.3273 0.71858 0.0
C1429 C 0.85753 0.31233 0.69502 0.0
C1430 C 0.87874 0.32489 0.67894 0.0
H1431 H 0.85297 0.36585 0.60633 0.0
H1432 H 0.85937 0.33574 0.62034 0.0
H1433 H 0.84828 0.36079 0.64426 0.0
H1434 H 0.89404 0.3883 0.7173 0.0
H1435 H 0.85719 0.36642 0.74573 0.0
H1436 H 0.39283 0.05285 0.45577 0.0
H1437 H 0.38152 0.08754 0.42666 0.0
H1438 H 0.47366 0.12481 0.4353 0.0
H1439 H 0.48534 0.08957 0.46431 0.0
H1440 H 0.39468 0.14315 0.44523 0.0
H1441 H 0.44548 0.11723 0.34471 0.0
H1442 H 0.43818 0.09426 0.37181 0.0
H1443 H 0.46828 0.12317 0.3805 0.0
C1444 C 0.41079 0.06832 0.45145 0.0
C1445 C 0.44 0.06845 0.46235 0.0
C1446 C 0.40426 0.08818 0.43482 0.0
C1447 C 0.42672 0.1087 0.42874 0.0
C1448 C 0.45601 0.10894 0.43943 0.0
H1449 H 0.36004 0.23676 0.34433 0.0
H1450 H 0.39286 0.21725 0.37726 0.0
C1451 C 0.46263 0.08885 0.45602 0.0
C1452 C 0.41875 0.12975 0.41149 0.0
H1453 H 0.41801 0.15043 0.34253 0.0
C1454 C 0.40022 0.14518 0.42298 0.0
C1455 C 0.42602 0.13224 0.38249 0.0
C1456 C 0.44544 0.1158 0.36891 0.0
C1457 C 0.38736 0.16188 0.40561 0.0
C1458 C 0.39363 0.1635 0.37614 0.0
C1459 C 0.41345 0.14923 0.36523 0.0
C1460 C 0.37642 0.17638 0.35497 0.0
C1461 C 0.36562 0.17617 0.41816 0.0
C1462 C 0.35697 0.16 0.33117 0.0
C1463 C 0.33833 0.17099 0.3125 0.0
C1464 C 0.33879 0.19868 0.31712 0.0
C1465 C 0.35907 0.21534 0.34032 0.0
C1466 C 0.37776 0.20423 0.35916 0.0
H1467 H 0.36041 0.16999 0.43995 0.0
H1468 H 0.37481 0.19826 0.42153 0.0
H1469 H 0.3449 0.17201 0.40226 0.0
H1470 H 0.35557 0.13847 0.32757 0.0
H1471 H 0.32318 0.15759 0.29471 0.0
H1472 H 0.56999 0.54263 0.08117 0.0
H1473 H 0.59892 0.58856 0.09637 0.0
H1474 H 0.5567 0.61429 0.0187 0.0
H1475 H 0.52699 0.56804 0.00354 0.0
H1476 H 0.62971 0.62907 0.04023 0.0
H1477 H 0.5555 0.6568 0.11816 0.0
H1478 H 0.56024 0.62272 0.11698 0.0
H1479 H 0.54265 0.63309 0.08439 0.0
C1480 C 0.56674 0.558 0.06729 0.0
C1481 C 0.54637 0.55175 0.04099 0.0
C1482 C 0.58339 0.58417 0.07593 0.0
C1483 C 0.57998 0.6046 0.05852 0.0
C1484 C 0.55974 0.59862 0.03221 0.0
H1485 H 0.67179 0.74569 0.18013 0.0
H1486 H 0.63981 0.72462 0.13352 0.0
C1487 C 0.54292 0.5723 0.02356 0.0
C1488 C 0.59728 0.63216 0.06921 0.0
H1489 H 0.60611 0.67929 0.13002 0.0
C1490 C 0.62433 0.6407 0.05929 0.0
C1491 C 0.58983 0.64756 0.09345 0.0
C1492 C 0.56035 0.63979 0.10381 0.0
C1493 C 0.64544 0.66281 0.07517 0.0
C1494 C 0.63948 0.6759 0.10203 0.0
C1495 C 0.61108 0.66915 0.10974 0.0
C1496 C 0.66302 0.69292 0.12503 0.0
C1497 C 0.67424 0.67111 0.06365 0.0
C1498 C 0.68742 0.6828 0.13528 0.0
C1499 C 0.70598 0.69517 0.16154 0.0
C1500 C 0.70005 0.71742 0.17836 0.0
C1501 C 0.67664 0.72841 0.16748 0.0
C1502 C 0.65847 0.71645 0.14083 0.0
H1503 H 0.67077 0.66888 0.03883 0.0
H1504 H 0.68547 0.69231 0.07244 0.0
H1505 H 0.68877 0.65763 0.07036 0.0
H1506 H 0.69095 0.66418 0.12429 0.0
H1507 H 0.72355 0.68607 0.1699 0.0
H1508 H 0.21074 0.20785 0.67408 0.0
H1509 H 0.17484 0.18079 0.63323 0.0
H1510 H 0.10953 0.22261 0.65986 0.0
H1511 H 0.14506 0.24877 0.70169 0.0
H1512 H 0.09008 0.17231 0.65866 0.0
H1513 H 0.13386 0.18413 0.55288 0.0
H1514 H 0.16132 0.17662 0.57931 0.0
H1515 H 0.14892 0.20742 0.58651 0.0
C1516 C 0.18896 0.21178 0.6707 0.0
C1517 C 0.18053 0.23009 0.69126 0.0
C1518 C 0.16846 0.19647 0.6471 0.0
C1519 C 0.13941 0.19973 0.64321 0.0
C1520 C 0.13175 0.21966 0.66238 0.0
H1521 H 0.0144 0.07121 0.51628 0.0
H1522 H 0.03962 0.11742 0.53866 0.0
C1523 C 0.15204 0.23455 0.68633 0.0
C1524 C 0.11619 0.17922 0.62312 0.0
H1525 H 0.10234 0.13959 0.55538 0.0
C1526 C 0.09243 0.16574 0.63579 0.0
C1527 C 0.11868 0.17071 0.59306 0.0
C1528 C 0.14193 0.18576 0.57712 0.0
C1529 C 0.07272 0.14272 0.62021 0.0
C1530 C 0.07724 0.13249 0.59151 0.0
C1531 C 0.09931 0.14719 0.5777 0.0
C1532 C 0.06175 0.105 0.57744 0.0
C1533 C 0.04794 0.12884 0.6352 0.0
C1534 C 0.06608 0.08289 0.59174 0.0
C1535 C 0.05207 0.05672 0.57894 0.0
C1536 C 0.03363 0.05209 0.55141 0.0
C1537 C 0.02907 0.07424 0.53715 0.0
C1538 C 0.04326 0.10057 0.54998 0.0
H1539 H 0.04168 0.14327 0.65189 0.0
H1540 H 0.02831 0.11913 0.6186 0.0
H1541 H 0.05512 0.11301 0.64715 0.0
H1542 H 0.08062 0.08589 0.61274 0.0
H1543 H 0.05615 0.04007 0.59039 0.0
H1544 H 0.6512 0.30197 0.30446 0.0
H1545 H 0.62304 0.32943 0.33087 0.0
H1546 H 0.69186 0.34953 0.40637 0.0
H1547 H 0.72027 0.3219 0.38024 0.0
H1548 H 0.60975 0.32701 0.3996 0.0
H1549 H 0.67359 0.42228 0.36901 0.0
H1550 H 0.66904 0.39011 0.34624 0.0
H1551 H 0.69313 0.39767 0.38112 0.0
C1552 C 0.66031 0.31201 0.3268 0.0
C1553 C 0.68808 0.3098 0.34021 0.0
C1554 C 0.64411 0.32763 0.34184 0.0
C1555 C 0.65544 0.34149 0.37045 0.0
C1556 C 0.68281 0.33891 0.38425 0.0
H1557 H 0.61798 0.46605 0.4892 0.0
H1558 H 0.63783 0.43383 0.45946 0.0
C1559 C 0.69897 0.3231 0.36931 0.0
C1560 C 0.6393 0.35967 0.38535 0.0
H1561 H 0.63852 0.42614 0.40095 0.0
C1562 C 0.61585 0.34869 0.39988 0.0
C1563 C 0.64732 0.38783 0.38539 0.0
C1564 C 0.67205 0.40038 0.36953 0.0
C1565 C 0.60083 0.36537 0.41554 0.0
C1566 C 0.60912 0.3937 0.41598 0.0
C1567 C 0.63214 0.40447 0.40066 0.0
C1568 C 0.59601 0.4128 0.43402 0.0
C1569 C 0.57706 0.35255 0.4324 0.0
C1570 C 0.56573 0.41192 0.42963 0.0
C1571 C 0.55413 0.43032 0.44701 0.0
C1572 C 0.57271 0.45017 0.4687 0.0
C1573 C 0.60298 0.45114 0.47265 0.0
C1574 C 0.61443 0.43268 0.45561 0.0
H1575 H 0.57828 0.3316 0.43574 0.0
H1576 H 0.57848 0.3645 0.45459 0.0
H1577 H 0.55532 0.35175 0.41946 0.0
H1578 H 0.55112 0.39718 0.41263 0.0
H1579 H 0.53074 0.42915 0.44332 0.0
H1580 H 0.48203 0.95227 0.06719 0.0
H1581 H 0.47872 0.91523 0.09744 0.0
H1582 H 0.38432 0.89818 0.07805 0.0
H1583 H 0.38737 0.93479 0.04749 0.0
H1584 H 0.4531 0.90941 0.14759 0.0
H1585 H 0.40084 0.82393 0.06048 0.0
H1586 H 0.4181 0.85656 0.05163 0.0
H1587 H 0.3808 0.85003 0.05934 0.0
C1588 C 0.46055 0.94046 0.06914 0.0
C1589 C 0.43491 0.9464 0.05486 0.0
C1590 C 0.45875 0.91931 0.08641 0.0
C1591 C 0.43133 0.90364 0.08949 0.0
C1592 C 0.40575 0.90957 0.0753 0.0
H1593 H 0.34534 0.83556 0.21443 0.0
H1594 H 0.38216 0.86316 0.19093 0.0
C1595 C 0.4075 0.93065 0.05803 0.0
C1596 C 0.42894 0.88218 0.10904 0.0
H1597 H 0.39081 0.81825 0.11104 0.0
C1598 C 0.44011 0.88923 0.13954 0.0
C1599 C 0.41296 0.85558 0.09845 0.0
C1600 C 0.40281 0.84601 0.0656 0.0
C1601 C 0.43296 0.87121 0.16013 0.0
C1602 C 0.41365 0.84586 0.14994 0.0
C1603 C 0.40522 0.83784 0.11907 0.0
C1604 C 0.39762 0.82962 0.17041 0.0
C1605 C 0.44517 0.87996 0.19269 0.0
C1606 C 0.3944 0.80151 0.16744 0.0
C1607 C 0.37285 0.78552 0.18058 0.0
C1608 C 0.35409 0.79747 0.19666 0.0
C1609 C 0.35925 0.82573 0.20192 0.0
C1610 C 0.38065 0.84162 0.18876 0.0
H1611 H 0.46779 0.89261 0.19517 0.0
H1612 H 0.43145 0.89247 0.20301 0.0
H1613 H 0.44557 0.86244 0.20507 0.0
H1614 H 0.40719 0.79181 0.15331 0.0
H1615 H 0.36952 0.7638 0.17626 0.0
H1616 H 0.99101 0.60198 0.94221 0.0
H1617 H 0.97053 0.63463 0.91544 0.0
H1618 H 0.88304 0.58925 0.91855 0.0
H1619 H 0.90307 0.55712 0.94552 0.0
H1620 H 0.93601 0.6253 0.86121 0.0
H1621 H 0.87626 0.66493 0.94663 0.0
H1622 H 0.90377 0.64604 0.95545 0.0
H1623 H 0.86665 0.6288 0.94036 0.0
C1624 C 0.96742 0.59917 0.93743 0.0
C1625 C 0.94868 0.57703 0.9461 0.0
C1626 C 0.95577 0.61784 0.9222 0.0
C1627 C 0.92525 0.6147 0.91559 0.0
C1628 C 0.90662 0.59257 0.9242 0.0
H1629 H 0.812 0.64684 0.77423 0.0
H1630 H 0.84628 0.63145 0.80908 0.0
C1631 C 0.91817 0.57405 0.93943 0.0
C1632 C 0.91248 0.63316 0.89777 0.0
H1633 H 0.85864 0.66861 0.89521 0.0
C1634 C 0.91954 0.63525 0.86887 0.0
C1635 C 0.89134 0.64655 0.90791 0.0
C1636 C 0.88431 0.64671 0.93942 0.0
C1637 C 0.90452 0.64873 0.84913 0.0
C1638 C 0.88155 0.65997 0.85841 0.0
C1639 C 0.87595 0.65959 0.88798 0.0
C1640 C 0.86147 0.67001 0.83707 0.0
C1641 C 0.91288 0.65023 0.81826 0.0
C1642 C 0.85805 0.69665 0.84169 0.0
C1643 C 0.83826 0.70555 0.82179 0.0
C1644 C 0.82137 0.6878 0.79717 0.0
C1645 C 0.82471 0.66108 0.79288 0.0
C1646 C 0.8445 0.65228 0.81265 0.0
H1647 H 0.93602 0.64875 0.81787 0.0
H1648 H 0.89867 0.63311 0.80258 0.0
H1649 H 0.90994 0.66931 0.81007 0.0
H1650 H 0.87075 0.71055 0.86062 0.0
H1651 H 0.83612 0.72624 0.82575 0.0
H1652 H 0.44351 0.37619 0.05814 0.0
H1653 H 0.41123 0.35775 0.0927 0.0
H1654 H 0.4195 0.43786 0.13845 0.0
H1655 H 0.45117 0.45657 0.1033 0.0
H1656 H 0.4251 0.36008 0.15208 0.0
H1657 H 0.33176 0.40876 0.12743 0.0
H1658 H 0.35971 0.40871 0.10356 0.0
H1659 H 0.3668 0.43191 0.13756 0.0
C1660 C 0.43821 0.38992 0.07536 0.0
C1661 C 0.44987 0.41781 0.07805 0.0
C1662 C 0.41979 0.37936 0.0951 0.0
C1663 C 0.41279 0.39644 0.11802 0.0
C1664 C 0.42412 0.42436 0.12058 0.0
H1665 H 0.3376 0.32108 0.26514 0.0
H1666 H 0.36984 0.35136 0.2386 0.0
C1667 C 0.44231 0.435 0.10056 0.0
C1668 C 0.3948 0.38462 0.13994 0.0
H1669 H 0.33031 0.38288 0.16753 0.0
C1670 C 0.40441 0.36512 0.15557 0.0
C1671 C 0.36781 0.39121 0.14432 0.0
C1672 C 0.35571 0.41111 0.12716 0.0
C1673 C 0.38738 0.35141 0.17482 0.0
C1674 C 0.36041 0.35805 0.17932 0.0
C1675 C 0.35116 0.37808 0.16429 0.0
C1676 C 0.34007 0.34241 0.19688 0.0
C1677 C 0.3978 0.32905 0.18894 0.0
C1678 C 0.31216 0.32842 0.18269 0.0
C1679 C 0.2936 0.31154 0.19785 0.0
C1680 C 0.30263 0.30813 0.22753 0.0
C1681 C 0.33015 0.32304 0.24219 0.0
C1682 C 0.34864 0.34022 0.22702 0.0
H1683 H 0.41536 0.32248 0.17782 0.0
H1684 H 0.40683 0.33632 0.21276 0.0
H1685 H 0.37941 0.31126 0.18798 0.0
H1686 H 0.30506 0.32987 0.15948 0.0
H1687 H 0.2725 0.30053 0.18589 0.0
H1688 H 0.43843 0.55019 0.87932 0.0
H1689 H 0.40775 0.58129 0.86697 0.0
H1690 H 0.39569 0.59549 0.95942 0.0
H1691 H 0.42765 0.56495 0.97225 0.0
H1692 H 0.35192 0.5818 0.87207 0.0
H1693 H 0.42638 0.67124 0.94277 0.0
H1694 H 0.43697 0.63956 0.93576 0.0
H1695 H 0.41181 0.64351 0.96175 0.0
C1696 C 0.42918 0.55979 0.89707 0.0
C1697 C 0.43566 0.55535 0.92681 0.0
C1698 C 0.41156 0.57754 0.88996 0.0
C1699 C 0.39978 0.59104 0.91234 0.0
C1700 C 0.40514 0.58579 0.94193 0.0
H1701 H 0.28708 0.68872 0.83068 0.0
H1702 H 0.30225 0.65972 0.86606 0.0
C1703 C 0.42323 0.56826 0.94918 0.0
C1704 C 0.38295 0.6112 0.90412 0.0
H1705 H 0.38731 0.67904 0.91067 0.0
C1706 C 0.35928 0.60304 0.88083 0.0
C1707 C 0.3927 0.63888 0.91566 0.0
C1708 C 0.41846 0.64898 0.94022 0.0
C1709 C 0.34652 0.62191 0.8672 0.0
C1710 C 0.35706 0.64968 0.87795 0.0
C1711 C 0.37932 0.65772 0.90261 0.0
C1712 C 0.34821 0.67064 0.86126 0.0
C1713 C 0.32344 0.61202 0.84 0.0
C1714 C 0.3693 0.68764 0.84839 0.0
C1715 C 0.36079 0.70452 0.82855 0.0
C1716 C 0.33102 0.7045 0.82111 0.0
C1717 C 0.31017 0.68886 0.83566 0.0
C1718 C 0.31875 0.6722 0.85577 0.0
H1719 H 0.32194 0.59057 0.83136 0.0
H1720 H 0.30171 0.6138 0.84595 0.0
H1721 H 0.3282 0.62436 0.82177 0.0
H1722 H 0.3922 0.68682 0.85247 0.0
H1723 H 0.37738 0.71643 0.81785 0.0
H1724 H 0.06174 0.56808 0.54446 0.0
H1725 H 0.10033 0.58895 0.5859 0.0
H1726 H 0.10505 0.51061 0.61011 0.0
H1727 H 0.06626 0.48934 0.56833 0.0
H1728 H 0.09905 0.55067 0.65823 0.0
H1729 H 0.18944 0.58875 0.596 0.0
H1730 H 0.15539 0.59545 0.58011 0.0
H1731 H 0.15889 0.56111 0.58022 0.0
C1732 C 0.07111 0.55522 0.55839 0.0
C1733 C 0.06099 0.52709 0.55314 0.0
C1734 C 0.09329 0.56716 0.58192 0.0
C1735 C 0.10575 0.55125 0.6007 0.0
C1736 C 0.09585 0.52314 0.59559 0.0
H1737 H 0.23825 0.66788 0.72571 0.0
H1738 H 0.21712 0.62258 0.69924 0.0
C1739 C 0.07376 0.51109 0.57176 0.0
C1740 C 0.12756 0.56474 0.62675 0.0
H1741 H 0.18919 0.61507 0.64366 0.0
C1742 C 0.11926 0.56421 0.65532 0.0
C1743 C 0.15426 0.58176 0.62303 0.0
C1744 C 0.1652 0.58161 0.5932 0.0
C1745 C 0.13535 0.58264 0.67967 0.0
C1746 C 0.15987 0.60216 0.67495 0.0
C1747 C 0.17004 0.60044 0.64719 0.0
C1748 C 0.17224 0.62696 0.69631 0.0
C1749 C 0.12511 0.58191 0.70979 0.0
C1750 C 0.15398 0.6443 0.70387 0.0
C1751 C 0.16599 0.67023 0.71888 0.0
C1752 C 0.19651 0.67935 0.72632 0.0
C1753 C 0.21466 0.6615 0.72003 0.0
C1754 C 0.20263 0.63555 0.70508 0.0
H1755 H 0.11483 0.56094 0.71283 0.0
H1756 H 0.14348 0.59028 0.72826 0.0
H1757 H 0.10824 0.59402 0.71122 0.0
H1758 H 0.13053 0.63839 0.69663 0.0
H1759 H 0.15144 0.68349 0.72341 0.0
H1760 H 0.3638 0.31996 0.69919 0.0
H1761 H 0.38442 0.3486 0.66389 0.0
H1762 H 0.30578 0.31815 0.6002 0.0
H1763 H 0.28459 0.28978 0.63588 0.0
H1764 H 0.39639 0.33272 0.60867 0.0
H1765 H 0.31693 0.39895 0.60005 0.0
H1766 H 0.31863 0.37758 0.62901 0.0
H1767 H 0.30118 0.36339 0.59178 0.0
C1768 C 0.35074 0.31947 0.67778 0.0
C1769 C 0.32252 0.30262 0.67038 0.0
C1770 C 0.36258 0.33586 0.65759 0.0
C1771 C 0.34657 0.33575 0.62949 0.0
C1772 C 0.31832 0.31901 0.62198 0.0
H1773 H 0.41401 0.42977 0.4897 0.0
H1774 H 0.38295 0.39582 0.51364 0.0
C1775 C 0.30629 0.30271 0.64234 0.0
C1776 C 0.36028 0.3525 0.60796 0.0
H1777 H 0.35519 0.40635 0.57071 0.0
C1778 C 0.38722 0.34867 0.6002 0.0
C1779 C 0.34822 0.37321 0.59672 0.0
C1780 C 0.31977 0.37877 0.60493 0.0
C1781 C 0.40286 0.36547 0.58235 0.0
C1782 C 0.39134 0.38673 0.57205 0.0
C1783 C 0.36384 0.38992 0.57863 0.0
C1784 C 0.40914 0.40747 0.5573 0.0
C1785 C 0.432 0.36081 0.57521 0.0
C1786 C 0.43374 0.42539 0.57408 0.0
C1787 C 0.45129 0.44473 0.56066 0.0
C1788 C 0.44471 0.44658 0.53004 0.0
C1789 C 0.41974 0.4288 0.51328 0.0
C1790 C 0.40198 0.40946 0.52689 0.0
H1791 H 0.43453 0.34019 0.57861 0.0
H1792 H 0.43456 0.36382 0.55176 0.0
H1793 H 0.44994 0.37556 0.59013 0.0
H1794 H 0.43943 0.42432 0.59765 0.0
H1795 H 0.47023 0.4581 0.57435 0.0
H1796 H 0.25079 0.66978 0.20899 0.0
H1797 H 0.23393 0.62446 0.18141 0.0
H1798 H 0.21632 0.65867 0.10024 0.0
H1799 H 0.23376 0.70399 0.12774 0.0
H1800 H 0.17848 0.60993 0.15904 0.0
H1801 H 0.24115 0.59224 0.0674 0.0
H1802 H 0.25579 0.61803 0.09905 0.0
H1803 H 0.2329 0.62484 0.06738 0.0
C1804 C 0.24388 0.66757 0.18516 0.0
C1805 C 0.24276 0.69025 0.17058 0.0
C1806 C 0.23464 0.64169 0.16936 0.0
C1807 C 0.224 0.63812 0.13873 0.0
C1808 C 0.22508 0.66086 0.12371 0.0
H1809 H 0.08601 0.56763 0.01366 0.0
H1810 H 0.13401 0.58808 0.04274 0.0
C1811 C 0.23466 0.68679 0.1395 0.0
C1812 C 0.20572 0.6118 0.12415 0.0
H1813 H 0.18771 0.57226 0.05653 0.0
C1814 C 0.18098 0.60103 0.13704 0.0
C1815 C 0.20916 0.60007 0.09564 0.0
C1816 C 0.23642 0.60928 0.08179 0.0
C1817 C 0.15789 0.58108 0.12077 0.0
C1818 C 0.15998 0.57134 0.09099 0.0
C1819 C 0.18605 0.58006 0.07923 0.0
C1820 C 0.13366 0.55618 0.07048 0.0
C1821 C 0.13036 0.57261 0.13461 0.0
C1822 C 0.11799 0.53114 0.07596 0.0
C1823 C 0.09026 0.5197 0.05981 0.0
C1824 C 0.07809 0.53295 0.03759 0.0
C1825 C 0.09471 0.55711 0.03082 0.0
C1826 C 0.12223 0.56868 0.04724 0.0
H1827 H 0.13109 0.58486 0.15649 0.0
H1828 H 0.1108 0.57445 0.11946 0.0
H1829 H 0.12757 0.5512 0.13832 0.0
H1830 H 0.12671 0.52097 0.09346 0.0
H1831 H 0.07816 0.50073 0.06505 0.0
H1832 H 0.65579 0.30184 0.69788 0.0
H1833 H 0.63011 0.33502 0.67946 0.0
H1834 H 0.71263 0.39266 0.68673 0.0
H1835 H 0.73859 0.35942 0.7046 0.0
H1836 H 0.62827 0.38681 0.70441 0.0
H1837 H 0.6778 0.3887 0.59936 0.0
H1838 H 0.68024 0.36325 0.62352 0.0
H1839 H 0.70361 0.39643 0.63318 0.0
C1840 C 0.66848 0.3216 0.69567 0.0
C1841 C 0.69923 0.32791 0.70236 0.0
C1842 C 0.65377 0.34055 0.6852 0.0
C1843 C 0.66954 0.36611 0.68129 0.0
C1844 C 0.70014 0.37283 0.689 0.0
H1845 H 0.6017 0.48809 0.59069 0.0
H1846 H 0.63361 0.46802 0.62384 0.0
C1847 C 0.7149 0.35385 0.69929 0.0
C1848 C 0.65386 0.38534 0.66831 0.0
H1849 H 0.64553 0.41732 0.60678 0.0
C1850 C 0.63217 0.39367 0.68317 0.0
C1851 C 0.65907 0.39426 0.64063 0.0
C1852 C 0.68125 0.38507 0.62305 0.0
C1853 C 0.61518 0.41034 0.67081 0.0
C1854 C 0.61986 0.41863 0.64278 0.0
C1855 C 0.64219 0.41107 0.62841 0.0
C1856 C 0.59995 0.43269 0.62637 0.0
C1857 C 0.59214 0.41869 0.68768 0.0
C1858 C 0.5705 0.41954 0.61711 0.0
C1859 C 0.55238 0.43083 0.59818 0.0
C1860 C 0.56338 0.45546 0.58805 0.0
C1861 C 0.5926 0.46916 0.59826 0.0
C1862 C 0.61083 0.45772 0.61712 0.0
H1863 H 0.59725 0.41789 0.71201 0.0
H1864 H 0.59003 0.43941 0.68432 0.0
H1865 H 0.57064 0.40463 0.67937 0.0
H1866 H 0.56183 0.39996 0.62348 0.0
H1867 H 0.52995 0.41979 0.59074 0.0
H1868 H 0.82576 0.66107 0.20198 0.0
H1869 H 0.85495 0.63089 0.18241 0.0
H1870 H 0.81255 0.6307 0.09296 0.0
H1871 H 0.78355 0.66132 0.11223 0.0
H1872 H 0.8435 0.57991 0.14599 0.0
H1873 H 0.89967 0.66412 0.091 0.0
H1874 H 0.87585 0.66891 0.11836 0.0
H1875 H 0.86056 0.65449 0.08056 0.0
C1876 C 0.82222 0.65425 0.17818 0.0
C1877 C 0.80271 0.664 0.15858 0.0
C1878 C 0.8389 0.63695 0.16707 0.0
C1879 C 0.83631 0.62904 0.13622 0.0
C1880 C 0.81523 0.63702 0.11682 0.0
H1881 H 0.92623 0.52278 0.04095 0.0
H1882 H 0.89025 0.54012 0.06711 0.0
C1883 C 0.79864 0.65445 0.12788 0.0
C1884 C 0.85762 0.61478 0.12427 0.0
H1885 H 0.91352 0.62268 0.08246 0.0
C1886 C 0.85881 0.58917 0.13205 0.0
C1887 C 0.87789 0.62719 0.10656 0.0
C1888 C 0.87873 0.65528 0.0988 0.0
C1889 C 0.87962 0.57548 0.12225 0.0
C1890 C 0.89946 0.58771 0.10405 0.0
C1891 C 0.89828 0.61335 0.09644 0.0
C1892 C 0.92172 0.57453 0.0923 0.0
C1893 C 0.88057 0.54835 0.1319 0.0
C1894 C 0.95145 0.58787 0.09812 0.0
C1895 C 0.97203 0.57818 0.08299 0.0
C1896 C 0.96324 0.55496 0.06171 0.0
C1897 C 0.93376 0.54065 0.05733 0.0
C1898 C 0.91314 0.55048 0.07235 0.0
H1899 H 0.86945 0.54508 0.15185 0.0
H1900 H 0.86915 0.53226 0.11346 0.0
H1901 H 0.90355 0.54626 0.13708 0.0
H1902 H 0.95853 0.60648 0.11343 0.0
H1903 H 0.99457 0.58959 0.08697 0.0
H1904 H 0.98464 0.60721 0.57991 0.0
H1905 H 0.95417 0.63487 0.60198 0.0
H1906 H 0.87674 0.58297 0.54941 0.0
H1907 H 0.90703 0.55493 0.52738 0.0
H1908 H 0.91459 0.66282 0.5742 0.0
H1909 H 0.85811 0.58361 0.63558 0.0
H1910 H 0.89097 0.58113 0.61982 0.0
H1911 H 0.85624 0.57426 0.59607 0.0
C1912 C 0.96114 0.60166 0.57294 0.0
C1913 C 0.94828 0.57872 0.55198 0.0
C1914 C 0.94376 0.61754 0.58557 0.0
C1915 C 0.91316 0.61078 0.57765 0.0
C1916 C 0.90027 0.58828 0.55623 0.0
H1917 H 0.7826 0.68169 0.65995 0.0
H1918 H 0.80542 0.65571 0.625 0.0
C1919 C 0.91764 0.57236 0.54356 0.0
C1920 C 0.89492 0.62722 0.59217 0.0
H1921 H 0.8442 0.62521 0.6401 0.0
C1922 C 0.89907 0.65458 0.58849 0.0
C1923 C 0.87455 0.61639 0.61064 0.0
C1924 C 0.86974 0.5873 0.61605 0.0
C1925 C 0.88364 0.6715 0.60305 0.0
C1926 C 0.86399 0.66089 0.62232 0.0
C1927 C 0.85922 0.63333 0.6253 0.0
C1928 C 0.84976 0.67829 0.64126 0.0
C1929 C 0.88852 0.70055 0.59755 0.0
C1930 C 0.86703 0.69973 0.66187 0.0
C1931 C 0.85408 0.71466 0.6817 0.0
C1932 C 0.82355 0.70828 0.68165 0.0
C1933 C 0.80616 0.6872 0.66052 0.0
C1934 C 0.81918 0.67228 0.64059 0.0
H1935 H 0.89584 0.7031 0.57548 0.0
H1936 H 0.86827 0.70827 0.59845 0.0
H1937 H 0.90599 0.71306 0.61498 0.0
H1938 H 0.8907 0.70437 0.66337 0.0
H1939 H 0.86818 0.73066 0.69773 0.0
H1940 H 0.40932 0.50947 0.39635 0.0
H1941 H 0.37771 0.52936 0.36276 0.0
H1942 H 0.4313 0.60862 0.39622 0.0
H1943 H 0.46329 0.58902 0.4288 0.0
H1944 H 0.34525 0.56297 0.37948 0.0
H1945 H 0.4211 0.6136 0.30878 0.0
H1946 H 0.43045 0.58893 0.33152 0.0
H1947 H 0.43553 0.62366 0.34753 0.0
C1948 C 0.41464 0.53107 0.39606 0.0
C1949 C 0.43877 0.54767 0.41522 0.0
C1950 C 0.39661 0.5424 0.37688 0.0
C1951 C 0.40245 0.57043 0.37659 0.0
C1952 C 0.42685 0.58689 0.39533 0.0
H1953 H 0.28536 0.67428 0.35158 0.0
H1954 H 0.31719 0.6453 0.36866 0.0
C1955 C 0.44498 0.57562 0.41422 0.0
C1956 C 0.38151 0.58296 0.35931 0.0
H1957 H 0.37795 0.63155 0.31399 0.0
C1958 C 0.35228 0.57757 0.36469 0.0
C1959 C 0.39056 0.6018 0.33974 0.0
C1960 C 0.42107 0.60709 0.33132 0.0
C1961 C 0.33227 0.59156 0.35233 0.0
C1962 C 0.34197 0.61191 0.33473 0.0
C1963 C 0.37072 0.61626 0.32795 0.0
C1964 C 0.32297 0.6296 0.3242 0.0
C1965 C 0.301 0.58462 0.35854 0.0
C1966 C 0.31654 0.63106 0.2936 0.0
C1967 C 0.29859 0.64785 0.28377 0.0
C1968 C 0.28688 0.66348 0.30444 0.0
C1969 C 0.29379 0.66228 0.3351 0.0
C1970 C 0.31183 0.64561 0.34489 0.0
H1971 H 0.29493 0.56367 0.3639 0.0
H1972 H 0.2986 0.59845 0.37813 0.0
H1973 H 0.28538 0.58681 0.33915 0.0
H1974 H 0.32516 0.61902 0.27732 0.0
H1975 H 0.29372 0.64839 0.25998 0.0
H1976 H 0.19634 0.31238 0.88351 0.0
H1977 H 0.16801 0.34438 0.90019 0.0
H1978 H 0.16977 0.3765 0.81632 0.0
H1979 H 0.19725 0.34371 0.79894 0.0
H1980 H 0.17474 0.39798 0.90849 0.0
H1981 H 0.08294 0.3526 0.81682 0.0
H1982 H 0.11402 0.33778 0.82455 0.0
H1983 H 0.11705 0.36651 0.80456 0.0
C1984 C 0.19107 0.32647 0.86871 0.0
C1985 C 0.19861 0.32521 0.83971 0.0
C1986 C 0.17486 0.34479 0.8783 0.0
C1987 C 0.1661 0.36237 0.85921 0.0
C1988 C 0.17553 0.36257 0.83108 0.0
H1989 H 0.06773 0.47462 0.93746 0.0
H1990 H 0.10426 0.45875 0.91058 0.0
C1991 C 0.19142 0.34396 0.82128 0.0
C1992 C 0.1456 0.37904 0.86832 0.0
H1993 H 0.07593 0.38761 0.85085 0.0
C1994 C 0.15323 0.39596 0.89577 0.0
C1995 C 0.11741 0.37611 0.85179 0.0
C1996 C 0.10717 0.35711 0.82294 0.0
C1997 C 0.13312 0.40923 0.90772 0.0
C1998 C 0.10488 0.40614 0.89126 0.0
C1999 C 0.09767 0.39009 0.86327 0.0
C2000 C 0.08141 0.41674 0.90413 0.0
C2001 C 0.14176 0.42509 0.9386 0.0
C2002 C 0.05564 0.39865 0.90783 0.0
C2003 C 0.03451 0.4077 0.9226 0.0
C2004 C 0.03882 0.43503 0.93418 0.0
C2005 C 0.06388 0.45339 0.92901 0.0
C2006 C 0.08492 0.44433 0.91391 0.0
H2007 H 0.16163 0.42049 0.95072 0.0
H2008 H 0.14663 0.44696 0.93671 0.0
H2009 H 0.12366 0.4208 0.95217 0.0
H2010 H 0.05237 0.37729 0.90031 0.0
H2011 H 0.01546 0.39301 0.92611 0.0
H2012 H 0.21632 0.32402 0.31223 0.0
H2013 H 0.19265 0.35346 0.34206 0.0
H2014 H 0.13067 0.28387 0.35934 0.0
H2015 H 0.15376 0.25444 0.32902 0.0
H2016 H 0.10353 0.31966 0.33675 0.0
H2017 H 0.18963 0.37297 0.43001 0.0
H2018 H 0.2011 0.37547 0.39398 0.0
H2019 H 0.19284 0.34308 0.40692 0.0
C2020 C 0.19816 0.31495 0.32307 0.0
C2021 C 0.18685 0.28689 0.31818 0.0
C2022 C 0.18467 0.33183 0.34021 0.0
C2023 C 0.15995 0.3209 0.35314 0.0
C2024 C 0.14969 0.29278 0.3496 0.0
H2025 H 0.06615 0.41191 0.46655 0.0
H2026 H 0.09559 0.38138 0.44763 0.0
C2027 C 0.16296 0.27597 0.33229 0.0
C2028 C 0.14273 0.33865 0.36738 0.0
H2029 H 0.14721 0.39155 0.42166 0.0
C2030 C 0.11307 0.33521 0.35549 0.0
C2031 C 0.15505 0.35884 0.39197 0.0
C2032 C 0.18632 0.36269 0.40668 0.0
C2033 C 0.09557 0.35164 0.36708 0.0
C2034 C 0.10818 0.37257 0.39083 0.0
C2035 C 0.13765 0.37568 0.40325 0.0
C2036 C 0.09112 0.39163 0.40263 0.0
C2037 C 0.06361 0.34625 0.35388 0.0
C2038 C 0.07921 0.4078 0.38374 0.0
C2039 C 0.06226 0.42506 0.39438 0.0
C2040 C 0.05707 0.42676 0.42427 0.0
C2041 C 0.06957 0.41097 0.44337 0.0
C2042 C 0.08648 0.39359 0.43263 0.0
H2043 H 0.05555 0.3253 0.34225 0.0
H2044 H 0.04975 0.34957 0.3714 0.0
H2045 H 0.06084 0.36021 0.33724 0.0
H2046 H 0.08302 0.40705 0.36068 0.0
H2047 H 0.05329 0.43713 0.37913 0.0
loop_
_geom_bond_atom_site_label_1
_geom_bond_atom_site_label_2
_geom_bond_distance
_geom_bond_site_symmetry_2
_ccdc_geom_bond_type
Zn0 O6 1.969 . S
Zn0 O7 1.965 1_655 S
Zn0 O11 2.024 1_556 S
Zn0 O16 1.969 1_546 S
Zn1 O8 1.969 1_564 S
Zn1 O14 1.969 . S
Zn1 O15 1.965 1_455 S
Zn1 O17 2.024 1_554 S
C2 O3 1.229 . S
C2 O11 1.058 . S
O3 C2 1.229 . S
C4 O5 1.229 . S
C4 O17 1.058 . S
O5 C4 1.229 . S
O6 Zn0 1.969 . S
O6 C9 1.267 . S
O7 Zn0 1.965 1_455 S
O7 C18 1.260 . S
O8 Zn1 1.969 1_546 S
O8 C18 1.258 . S
C9 O6 1.267 . S
C9 O10 1.228 . S
O10 C9 1.228 . S
O11 Zn0 2.024 1_554 S
O11 C2 1.058 . S
C12 O13 1.228 . S
C12 O14 1.267 . S
O13 C12 1.228 . S
O14 Zn1 1.969 . S
O14 C12 1.267 . S
O15 Zn1 1.965 1_655 S
O15 C19 1.260 . S
O16 Zn0 1.969 1_564 S
O16 C19 1.258 . S
O17 Zn1 2.024 1_556 S
O17 C4 1.058 . S
C18 O7 1.260 . S
C18 O8 1.258 . S
C19 O15 1.260 . S
C19 O16 1.258 . S
Zn20 O26 1.969 . S
Zn20 O27 1.965 . S
Zn20 O31 2.024 . S
Zn20 O36 1.969 . S
Zn21 O28 1.969 . S
Zn21 O34 1.969 . S
Zn21 O35 1.965 . S
Zn21 O37 2.024 . S
C22 O23 1.229 . S
C22 O31 1.058 . S
O23 C22 1.229 . S
C24 O25 1.229 . S
C24 O37 1.058 . S
O25 C24 1.229 . S
O26 Zn20 1.969 . S
O26 C29 1.267 . S
O27 Zn20 1.965 . S
O27 C38 1.260 . S
O28 Zn21 1.969 . S
O28 C38 1.258 . S
C29 O26 1.267 . S
C29 O30 1.228 . S
O30 C29 1.228 . S
O31 Zn20 2.024 . S
O31 C22 1.058 . S
C32 O33 1.228 . S
C32 O34 1.267 . S
O33 C32 1.228 . S
O34 Zn21 1.969 . S
O34 C32 1.267 . S
O35 Zn21 1.965 . S
O35 C39 1.260 . S
O36 Zn20 1.969 . S
O36 C39 1.258 . S
O37 Zn21 2.024 . S
O37 C24 1.058 . S
C38 O27 1.260 . S
C38 O28 1.258 . S
C39 O35 1.260 . S
C39 O36 1.258 . S
Zn40 O46 1.969 . S
Zn40 O47 1.965 . S
Zn40 O51 2.024 . S
Zn40 O56 1.969 1_565 S
Zn41 O48 1.969 1_545 S
Zn41 O54 1.969 . S
Zn41 O55 1.965 . S
Zn41 O57 2.024 . S
C42 O43 1.229 . S
C42 O51 1.058 . S
O43 C42 1.229 . S
C44 O45 1.229 . S
C44 O57 1.058 . S
O45 C44 1.229 . S
O46 Zn40 1.969 . S
O46 C49 1.267 . S
O47 Zn40 1.965 . S
O47 C58 1.260 . S
O48 Zn41 1.969 1_565 S
O48 C58 1.258 . S
C49 O46 1.267 . S
C49 O50 1.228 . S
O50 C49 1.228 . S
O51 Zn40 2.024 . S
O51 C42 1.058 . S
C52 O53 1.228 . S
C52 O54 1.267 . S
O53 C52 1.228 . S
O54 Zn41 1.969 . S
O54 C52 1.267 . S
O55 Zn41 1.965 . S
O55 C59 1.260 . S
O56 Zn40 1.969 1_545 S
O56 C59 1.258 . S
O57 Zn41 2.024 . S
O57 C44 1.058 . S
C58 O47 1.260 . S
C58 O48 1.258 . S
C59 O55 1.260 . S
C59 O56 1.258 . S
Zn60 O66 1.969 . S
Zn60 O67 1.965 . S
Zn60 O71 2.024 . S
Zn60 O76 1.969 . S
Zn61 O68 1.969 . S
Zn61 O74 1.969 . S
Zn61 O75 1.965 . S
Zn61 O77 2.024 . S
C62 O63 1.229 . S
C62 O71 1.058 . S
O63 C62 1.229 . S
C64 O65 1.229 . S
C64 O77 1.058 . S
O65 C64 1.229 . S
O66 Zn60 1.969 . S
O66 C69 1.267 . S
O67 Zn60 1.965 . S
O67 C78 1.260 . S
O68 Zn61 1.969 . S
O68 C78 1.258 . S
C69 O66 1.267 . S
C69 O70 1.228 . S
O70 C69 1.228 . S
O71 Zn60 2.024 . S
O71 C62 1.058 . S
C72 O73 1.228 . S
C72 O74 1.267 . S
O73 C72 1.228 . S
O74 Zn61 1.969 . S
O74 C72 1.267 . S
O75 Zn61 1.965 . S
O75 C79 1.260 . S
O76 Zn60 1.969 . S
O76 C79 1.258 . S
O77 Zn61 2.024 . S
O77 C64 1.058 . S
C78 O67 1.260 . S
C78 O68 1.258 . S
C79 O75 1.260 . S
C79 O76 1.258 . S
Zn80 O86 1.969 . S
Zn80 O87 1.965 . S
Zn80 O91 2.024 1_455 S
Zn80 O96 1.969 1_445 S
Zn81 O88 1.969 1_665 S
Zn81 O94 1.969 . S
Zn81 O95 1.965 . S
Zn81 O97 2.024 1_655 S
C82 O83 1.229 . S
C82 O91 1.058 . S
O83 C82 1.229 . S
C84 O85 1.229 . S
C84 O97 1.058 . S
O85 C84 1.229 . S
O86 Zn80 1.969 . S
O86 C89 1.267 . S
O87 Zn80 1.965 . S
O87 C98 1.260 . S
O88 Zn81 1.969 1_445 S
O88 C98 1.258 . S
C89 O86 1.267 . S
C89 O90 1.228 . S
O90 C89 1.228 . S
O91 Zn80 2.024 1_655 S
O91 C82 1.058 . S
C92 O93 1.228 . S
C92 O94 1.267 . S
O93 C92 1.228 . S
O94 Zn81 1.969 . S
O94 C92 1.267 . S
O95 Zn81 1.965 . S
O95 C99 1.260 . S
O96 Zn80 1.969 1_665 S
O96 C99 1.258 . S
O97 Zn81 2.024 1_455 S
O97 C84 1.058 . S
C98 O87 1.260 . S
C98 O88 1.258 . S
C99 O95 1.260 . S
C99 O96 1.258 . S
Zn100 O106 1.969 . S
Zn100 O107 1.965 . S
Zn100 O111 2.024 . S
Zn100 O116 1.969 . S
Zn101 O108 1.969 . S
Zn101 O114 1.969 . S
Zn101 O115 1.965 . S
Zn101 O117 2.024 . S
C102 O103 1.229 . S
C102 O111 1.058 . S
O103 C102 1.229 . S
C104 O105 1.229 . S
C104 O117 1.058 . S
O105 C104 1.229 . S
O106 Zn100 1.969 . S
O106 C109 1.267 . S
O107 Zn100 1.965 . S
O107 C118 1.260 . S
O108 Zn101 1.969 . S
O108 C118 1.258 . S
C109 O106 1.267 . S
C109 O110 1.228 . S
O110 C109 1.228 . S
O111 Zn100 2.024 . S
O111 C102 1.058 . S
C112 O113 1.228 . S
C112 O114 1.267 . S
O113 C112 1.228 . S
O114 Zn101 1.969 . S
O114 C112 1.267 . S
O115 Zn101 1.965 . S
O115 C119 1.260 . S
O116 Zn100 1.969 . S
O116 C119 1.258 . S
O117 Zn101 2.024 . S
O117 C104 1.058 . S
C118 O107 1.260 . S
C118 O108 1.258 . S
C119 O115 1.260 . S
C119 O116 1.258 . S
Zn120 O126 1.969 . S
Zn120 O127 1.965 . S
Zn120 O131 2.024 1_545 S
Zn120 O136 1.969 1_544 S
Zn121 O128 1.969 1_566 S
Zn121 O134 1.969 . S
Zn121 O135 1.965 . S
Zn121 O137 2.024 1_565 S
C122 O123 1.229 . S
C122 O131 1.058 . S
O123 C122 1.229 . S
C124 O125 1.229 . S
C124 O137 1.058 . S
O125 C124 1.229 . S
O126 Zn120 1.969 . S
O126 C129 1.267 . S
O127 Zn120 1.965 . S
O127 C138 1.260 . S
O128 Zn121 1.969 1_544 S
O128 C138 1.258 . S
C129 O126 1.267 . S
C129 O130 1.228 . S
O130 C129 1.228 . S
O131 Zn120 2.024 1_565 S
O131 C122 1.058 . S
C132 O133 1.228 . S
C132 O134 1.267 . S
O133 C132 1.228 . S
O134 Zn121 1.969 . S
O134 C132 1.267 . S
O135 Zn121 1.965 . S
O135 C139 1.260 . S
O136 Zn120 1.969 1_566 S
O136 C139 1.258 . S
O137 Zn121 2.024 1_545 S
O137 C124 1.058 . S
C138 O127 1.260 . S
C138 O128 1.258 . S
C139 O135 1.260 . S
C139 O136 1.258 . S
Zn140 O146 1.969 . S
Zn140 O147 1.965 . S
Zn140 O151 2.024 . S
Zn140 O156 1.969 . S
Zn141 O148 1.969 . S
Zn141 O154 1.969 . S
Zn141 O155 1.965 . S
Zn141 O157 2.024 . S
C142 O143 1.229 . S
C142 O151 1.058 . S
O143 C142 1.229 . S
C144 O145 1.229 . S
C144 O157 1.058 . S
O145 C144 1.229 . S
O146 Zn140 1.969 . S
O146 C149 1.267 . S
O147 Zn140 1.965 . S
O147 C158 1.260 . S
O148 Zn141 1.969 . S
O148 C158 1.258 . S
C149 O146 1.267 . S
C149 O150 1.228 . S
O150 C149 1.228 . S
O151 Zn140 2.024 . S
O151 C142 1.058 . S
C152 O153 1.228 . S
C152 O154 1.267 . S
O153 C152 1.228 . S
O154 Zn141 1.969 . S
O154 C152 1.267 . S
O155 Zn141 1.965 . S
O155 C159 1.260 . S
O156 Zn140 1.969 . S
O156 C159 1.258 . S
O157 Zn141 2.024 . S
O157 C144 1.058 . S
C158 O147 1.260 . S
C158 O148 1.258 . S
C159 O155 1.260 . S
C159 O156 1.258 . S
Zn160 O166 1.969 . S
Zn160 O167 1.965 1_556 S
Zn160 O171 2.024 . S
Zn160 O176 1.969 . S
Zn161 O168 1.969 . S
Zn161 O174 1.969 . S
Zn161 O175 1.965 1_554 S
Zn161 O177 2.024 . S
C162 O163 1.229 . S
C162 O171 1.058 . S
O163 C162 1.229 . S
C164 O165 1.229 . S
C164 O177 1.058 . S
O165 C164 1.229 . S
O166 Zn160 1.969 . S
O166 C169 1.267 . S
O167 Zn160 1.965 1_554 S
O167 C178 1.260 . S
O168 Zn161 1.969 . S
O168 C178 1.258 . S
C169 O166 1.267 . S
C169 O170 1.228 . S
O170 C169 1.228 . S
O171 Zn160 2.024 . S
O171 C162 1.058 . S
C172 O173 1.228 . S
C172 O174 1.267 . S
O173 C172 1.228 . S
O174 Zn161 1.969 . S
O174 C172 1.267 . S
O175 Zn161 1.965 1_556 S
O175 C179 1.260 . S
O176 Zn160 1.969 . S
O176 C179 1.258 . S
O177 Zn161 2.024 . S
O177 C164 1.058 . S
C178 O167 1.260 . S
C178 O168 1.258 . S
C179 O175 1.260 . S
C179 O176 1.258 . S
Zn180 O186 1.969 . S
Zn180 O187 1.965 . S
Zn180 O191 2.024 . S
Zn180 O196 1.969 . S
Zn181 O188 1.969 . S
Zn181 O194 1.969 . S
Zn181 O195 1.965 . S
Zn181 O197 2.024 . S
C182 O183 1.229 . S
C182 O191 1.058 . S
O183 C182 1.229 . S
C184 O185 1.229 . S
C184 O197 1.058 . S
O185 C184 1.229 . S
O186 Zn180 1.969 . S
O186 C189 1.267 . S
O187 Zn180 1.965 . S
O187 C198 1.260 . S
O188 Zn181 1.969 . S
O188 C198 1.258 . S
C189 O186 1.267 . S
C189 O190 1.228 . S
O190 C189 1.228 . S
O191 Zn180 2.024 . S
O191 C182 1.058 . S
C192 O193 1.228 . S
C192 O194 1.267 . S
O193 C192 1.228 . S
O194 Zn181 1.969 . S
O194 C192 1.267 . S
O195 Zn181 1.965 . S
O195 C199 1.260 . S
O196 Zn180 1.969 . S
O196 C199 1.258 . S
O197 Zn181 2.024 . S
O197 C184 1.058 . S
C198 O187 1.260 . S
C198 O188 1.258 . S
C199 O195 1.260 . S
C199 O196 1.258 . S
Zn200 O206 1.969 . S
Zn200 O207 1.965 1_655 S
Zn200 O211 2.024 . S
Zn200 O216 1.969 . S
Zn201 O208 1.969 . S
Zn201 O214 1.969 . S
Zn201 O215 1.965 1_455 S
Zn201 O217 2.024 . S
C202 O203 1.229 . S
C202 O211 1.058 . S
O203 C202 1.229 . S
C204 O205 1.229 . S
C204 O217 1.058 . S
O205 C204 1.229 . S
O206 Zn200 1.969 . S
O206 C209 1.267 . S
O207 Zn200 1.965 1_455 S
O207 C218 1.260 . S
O208 Zn201 1.969 . S
O208 C218 1.258 . S
C209 O206 1.267 . S
C209 O210 1.228 . S
O210 C209 1.228 . S
O211 Zn200 2.024 . S
O211 C202 1.058 . S
C212 O213 1.228 . S
C212 O214 1.267 . S
O213 C212 1.228 . S
O214 Zn201 1.969 . S
O214 C212 1.267 . S
O215 Zn201 1.965 1_655 S
O215 C219 1.260 . S
O216 Zn200 1.969 . S
O216 C219 1.258 . S
O217 Zn201 2.024 . S
O217 C204 1.058 . S
C218 O207 1.260 . S
C218 O208 1.258 . S
C219 O215 1.260 . S
C219 O216 1.258 . S
Zn220 O226 1.969 . S
Zn220 O227 1.965 . S
Zn220 O231 2.024 . S
Zn220 O236 1.969 . S
Zn221 O228 1.969 . S
Zn221 O234 1.969 . S
Zn221 O235 1.965 . S
Zn221 O237 2.024 . S
C222 O223 1.229 . S
C222 O231 1.058 . S
O223 C222 1.229 . S
C224 O225 1.229 . S
C224 O237 1.058 . S
O225 C224 1.229 . S
O226 Zn220 1.969 . S
O226 C229 1.267 . S
O227 Zn220 1.965 . S
O227 C238 1.260 . S
O228 Zn221 1.969 . S
O228 C238 1.258 . S
C229 O226 1.267 . S
C229 O230 1.228 . S
O230 C229 1.228 . S
O231 Zn220 2.024 . S
O231 C222 1.058 . S
C232 O233 1.228 . S
C232 O234 1.267 . S
O233 C232 1.228 . S
O234 Zn221 1.969 . S
O234 C232 1.267 . S
O235 Zn221 1.965 . S
O235 C239 1.260 . S
O236 Zn220 1.969 . S
O236 C239 1.258 . S
O237 Zn221 2.024 . S
O237 C224 1.058 . S
C238 O227 1.260 . S
C238 O228 1.258 . S
C239 O235 1.260 . S
C239 O236 1.258 . S
Zn240 O246 1.969 . S
Zn240 O247 1.965 . S
Zn240 O251 2.024 . S
Zn240 O256 1.969 . S
Zn241 O248 1.969 . S
Zn241 O254 1.969 . S
Zn241 O255 1.965 . S
Zn241 O257 2.024 . S
C242 O243 1.229 . S
C242 O251 1.058 . S
O243 C242 1.229 . S
C244 O245 1.229 . S
C244 O257 1.058 . S
O245 C244 1.229 . S
O246 Zn240 1.969 . S
O246 C249 1.267 . S
O247 Zn240 1.965 . S
O247 C258 1.260 . S
O248 Zn241 1.969 . S
O248 C258 1.258 . S
C249 O246 1.267 . S
C249 O250 1.228 . S
O250 C249 1.228 . S
O251 Zn240 2.024 . S
O251 C242 1.058 . S
C252 O253 1.228 . S
C252 O254 1.267 . S
O253 C252 1.228 . S
O254 Zn241 1.969 . S
O254 C252 1.267 . S
O255 Zn241 1.965 . S
O255 C259 1.260 . S
O256 Zn240 1.969 . S
O256 C259 1.258 . S
O257 Zn241 2.024 . S
O257 C244 1.058 . S
C258 O247 1.260 . S
C258 O248 1.258 . S
C259 O255 1.260 . S
C259 O256 1.258 . S
Zn260 O266 1.969 . S
Zn260 O267 1.965 . S
Zn260 O271 2.024 . S
Zn260 O276 1.969 . S
Zn261 O268 1.969 . S
Zn261 O274 1.969 . S
Zn261 O275 1.965 . S
Zn261 O277 2.024 . S
C262 O263 1.229 . S
C262 O271 1.058 . S
O263 C262 1.229 . S
C264 O265 1.229 . S
C264 O277 1.058 . S
O265 C264 1.229 . S
O266 Zn260 1.969 . S
O266 C269 1.267 . S
O267 Zn260 1.965 . S
O267 C278 1.260 . S
O268 Zn261 1.969 . S
O268 C278 1.258 . S
C269 O266 1.267 . S
C269 O270 1.228 . S
O270 C269 1.228 . S
O271 Zn260 2.024 . S
O271 C262 1.058 . S
C272 O273 1.228 . S
C272 O274 1.267 . S
O273 C272 1.228 . S
O274 Zn261 1.969 . S
O274 C272 1.267 . S
O275 Zn261 1.965 . S
O275 C279 1.260 . S
O276 Zn260 1.969 . S
O276 C279 1.258 . S
O277 Zn261 2.024 . S
O277 C264 1.058 . S
C278 O267 1.260 . S
C278 O268 1.258 . S
C279 O275 1.260 . S
C279 O276 1.258 . S
Zn280 O286 1.969 . S
Zn280 O287 1.965 . S
Zn280 O291 2.024 . S
Zn280 O296 1.969 . S
Zn281 O288 1.969 . S
Zn281 O294 1.969 . S
Zn281 O295 1.965 . S
Zn281 O297 2.024 . S
C282 O283 1.229 . S
C282 O291 1.058 . S
O283 C282 1.229 . S
C284 O285 1.229 . S
C284 O297 1.058 . S
O285 C284 1.229 . S
O286 Zn280 1.969 . S
O286 C289 1.267 . S
O287 Zn280 1.965 . S
O287 C298 1.260 . S
O288 Zn281 1.969 . S
O288 C298 1.258 . S
C289 O286 1.267 . S
C289 O290 1.228 . S
O290 C289 1.228 . S
O291 Zn280 2.024 . S
O291 C282 1.058 . S
C292 O293 1.228 . S
C292 O294 1.267 . S
O293 C292 1.228 . S
O294 Zn281 1.969 . S
O294 C292 1.267 . S
O295 Zn281 1.965 . S
O295 C299 1.260 . S
O296 Zn280 1.969 . S
O296 C299 1.258 . S
O297 Zn281 2.024 . S
O297 C284 1.058 . S
C298 O287 1.260 . S
C298 O288 1.258 . S
C299 O295 1.260 . S
C299 O296 1.258 . S
Zn300 O306 1.969 . S
Zn300 O307 1.965 . S
Zn300 O311 2.024 1_554 S
Zn300 O316 1.969 1_454 S
Zn301 O308 1.969 1_656 S
Zn301 O314 1.969 . S
Zn301 O315 1.965 . S
Zn301 O317 2.024 1_556 S
C302 O303 1.229 . S
C302 O311 1.058 . S
O303 C302 1.229 . S
C304 O305 1.229 . S
C304 O317 1.058 . S
O305 C304 1.229 . S
O306 Zn300 1.969 . S
O306 C309 1.267 . S
O307 Zn300 1.965 . S
O307 C318 1.260 . S
O308 Zn301 1.969 1_454 S
O308 C318 1.258 . S
C309 O306 1.267 . S
C309 O310 1.228 . S
O310 C309 1.228 . S
O311 Zn300 2.024 1_556 S
O311 C302 1.058 . S
C312 O313 1.228 . S
C312 O314 1.267 . S
O313 C312 1.228 . S
O314 Zn301 1.969 . S
O314 C312 1.267 . S
O315 Zn301 1.965 . S
O315 C319 1.260 . S
O316 Zn300 1.969 1_656 S
O316 C319 1.258 . S
O317 Zn301 2.024 1_554 S
O317 C304 1.058 . S
C318 O307 1.260 . S
C318 O308 1.258 . S
C319 O315 1.260 . S
C319 O316 1.258 . S
H320 C328 0.929 . S
H321 C330 0.930 . S
H322 C332 0.930 . S
H323 C335 0.929 . S
H324 C338 0.930 . S
H325 C340 0.960 . S
H326 C340 0.960 . S
H327 C340 0.960 . S
C328 H320 0.929 . S
C328 C329 1.377 . S
C328 C330 1.384 . S
C329 C328 1.377 . S
C329 C335 1.390 . S
C330 H321 0.930 . S
C330 C328 1.384 . S
C330 C331 1.372 . S
C331 C330 1.372 . S
C331 C332 1.400 . S
C331 C336 1.490 . S
C332 H322 0.930 . S
C332 C331 1.400 . S
C332 C335 1.386 . S
H333 C349 0.930 . S
H334 C350 0.931 . S
C335 H323 0.929 . S
C335 C329 1.390 . S
C335 C332 1.386 . S
C336 C331 1.490 . S
C336 C338 1.395 . S
C336 C339 1.403 . S
H337 C343 0.930 . S
C338 H324 0.930 . S
C338 C336 1.395 . S
C338 C341 1.403 . S
C339 C336 1.403 . S
C339 C340 1.524 . S
C339 C343 1.400 . S
C340 H325 0.960 . S
C340 H326 0.960 . S
C340 H327 0.960 . S
C340 C339 1.524 . S
C341 C338 1.403 . S
C341 C342 1.392 . S
C341 C345 1.495 . S
C342 C341 1.392 . S
C342 C343 1.385 . S
C342 C344 1.478 . S
C343 H337 0.930 . S
C343 C339 1.400 . S
C343 C342 1.385 . S
C344 C342 1.478 . S
C344 C346 1.381 . S
C344 C350 1.383 . S
C345 C341 1.495 . S
C345 H351 0.959 . S
C345 H352 0.961 . S
C345 H353 0.960 . S
C346 C344 1.381 . S
C346 C347 1.394 . S
C346 H354 0.930 . S
C347 C346 1.394 . S
C347 C348 1.383 . S
C347 H355 0.929 . S
C348 C347 1.383 . S
C348 C349 1.377 . S
C349 H333 0.930 . S
C349 C348 1.377 . S
C349 C350 1.379 . S
C350 H334 0.931 . S
C350 C344 1.383 . S
C350 C349 1.379 . S
H351 C345 0.959 . S
H352 C345 0.961 . S
H353 C345 0.960 . S
H354 C346 0.930 . S
H355 C347 0.929 . S
H356 C364 0.929 . S
H357 C366 0.930 . S
H358 C368 0.930 . S
H359 C371 0.929 . S
H360 C374 0.930 . S
H361 C376 0.960 . S
H362 C376 0.960 . S
H363 C376 0.960 . S
C364 H356 0.929 . S
C364 C365 1.377 . S
C364 C366 1.384 . S
C365 C364 1.377 . S
C365 C371 1.390 . S
C366 H357 0.930 . S
C366 C364 1.384 . S
C366 C367 1.372 . S
C367 C366 1.372 . S
C367 C368 1.400 . S
C367 C372 1.490 . S
C368 H358 0.930 . S
C368 C367 1.400 . S
C368 C371 1.386 . S
H369 C385 0.930 . S
H370 C386 0.931 . S
C371 H359 0.929 . S
C371 C365 1.390 . S
C371 C368 1.386 . S
C372 C367 1.490 . S
C372 C374 1.395 . S
C372 C375 1.403 . S
H373 C379 0.930 . S
C374 H360 0.930 . S
C374 C372 1.395 . S
C374 C377 1.403 . S
C375 C372 1.403 . S
C375 C376 1.524 . S
C375 C379 1.400 . S
C376 H361 0.960 . S
C376 H362 0.960 . S
C376 H363 0.960 . S
C376 C375 1.524 . S
C377 C374 1.403 . S
C377 C378 1.392 . S
C377 C381 1.495 . S
C378 C377 1.392 . S
C378 C379 1.385 . S
C378 C380 1.478 . S
C379 H373 0.930 . S
C379 C375 1.400 . S
C379 C378 1.385 . S
C380 C378 1.478 . S
C380 C382 1.381 . S
C380 C386 1.383 . S
C381 C377 1.495 . S
C381 H387 0.959 . S
C381 H388 0.961 . S
C381 H389 0.960 . S
C382 C380 1.381 . S
C382 C383 1.394 . S
C382 H390 0.930 . S
C383 C382 1.394 . S
C383 C384 1.383 . S
C383 H391 0.929 . S
C384 C383 1.383 . S
C384 C385 1.377 . S
C385 H369 0.930 . S
C385 C384 1.377 . S
C385 C386 1.379 . S
C386 H370 0.931 . S
C386 C380 1.383 . S
C386 C385 1.379 . S
H387 C381 0.959 . S
H388 C381 0.961 . S
H389 C381 0.960 . S
H390 C382 0.930 . S
H391 C383 0.929 . S
H392 C400 0.929 . S
H393 C402 0.930 . S
H394 C404 0.930 . S
H395 C407 0.929 . S
H396 C410 0.930 . S
H397 C412 0.960 . S
H398 C412 0.960 . S
H399 C412 0.960 . S
C400 H392 0.929 . S
C400 C401 1.377 . S
C400 C402 1.384 . S
C401 C400 1.377 . S
C401 C407 1.390 . S
C402 H393 0.930 . S
C402 C400 1.384 . S
C402 C403 1.372 . S
C403 C402 1.372 . S
C403 C404 1.400 . S
C403 C408 1.490 . S
C404 H394 0.930 . S
C404 C403 1.400 . S
C404 C407 1.386 . S
H405 C421 0.930 . S
H406 C422 0.931 . S
C407 H395 0.929 . S
C407 C401 1.390 . S
C407 C404 1.386 . S
C408 C403 1.490 . S
C408 C410 1.395 . S
C408 C411 1.403 . S
H409 C415 0.930 . S
C410 H396 0.930 . S
C410 C408 1.395 . S
C410 C413 1.403 . S
C411 C408 1.403 . S
C411 C412 1.524 . S
C411 C415 1.400 . S
C412 H397 0.960 . S
C412 H398 0.960 . S
C412 H399 0.960 . S
C412 C411 1.524 . S
C413 C410 1.403 . S
C413 C414 1.392 . S
C413 C417 1.495 . S
C414 C413 1.392 . S
C414 C415 1.385 . S
C414 C416 1.478 . S
C415 H409 0.930 . S
C415 C411 1.400 . S
C415 C414 1.385 . S
C416 C414 1.478 . S
C416 C418 1.381 . S
C416 C422 1.383 . S
C417 C413 1.495 . S
C417 H423 0.959 . S
C417 H424 0.961 . S
C417 H425 0.960 . S
C418 C416 1.381 . S
C418 C419 1.394 . S
C418 H426 0.930 . S
C419 C418 1.394 . S
C419 C420 1.383 . S
C419 H427 0.929 . S
C420 C419 1.383 . S
C420 C421 1.377 . S
C421 H405 0.930 . S
C421 C420 1.377 . S
C421 C422 1.379 . S
C422 H406 0.931 . S
C422 C416 1.383 . S
C422 C421 1.379 . S
H423 C417 0.959 . S
H424 C417 0.961 . S
H425 C417 0.960 . S
H426 C418 0.930 . S
H427 C419 0.929 . S
H428 C436 0.929 . S
H429 C438 0.930 . S
H430 C440 0.930 . S
H431 C443 0.929 . S
H432 C446 0.930 . S
H433 C448 0.960 . S
H434 C448 0.960 . S
H435 C448 0.960 . S
C436 H428 0.929 . S
C436 C437 1.377 . S
C436 C438 1.384 . S
C437 C436 1.377 . S
C437 C443 1.390 . S
C438 H429 0.930 . S
C438 C436 1.384 . S
C438 C439 1.372 . S
C439 C438 1.372 . S
C439 C440 1.400 . S
C439 C444 1.490 . S
C440 H430 0.930 . S
C440 C439 1.400 . S
C440 C443 1.386 . S
H441 C457 0.930 . S
H442 C458 0.931 . S
C443 H431 0.929 . S
C443 C437 1.390 . S
C443 C440 1.386 . S
C444 C439 1.490 . S
C444 C446 1.395 . S
C444 C447 1.403 . S
H445 C451 0.930 . S
C446 H432 0.930 . S
C446 C444 1.395 . S
C446 C449 1.403 . S
C447 C444 1.403 . S
C447 C448 1.524 . S
C447 C451 1.400 . S
C448 H433 0.960 . S
C448 H434 0.960 . S
C448 H435 0.960 . S
C448 C447 1.524 . S
C449 C446 1.403 . S
C449 C450 1.392 . S
C449 C453 1.495 . S
C450 C449 1.392 . S
C450 C451 1.385 . S
C450 C452 1.478 . S
C451 H445 0.930 . S
C451 C447 1.400 . S
C451 C450 1.385 . S
C452 C450 1.478 . S
C452 C454 1.381 . S
C452 C458 1.383 . S
C453 C449 1.495 . S
C453 H459 0.959 . S
C453 H460 0.961 . S
C453 H461 0.960 . S
C454 C452 1.381 . S
C454 C455 1.394 . S
C454 H462 0.930 . S
C455 C454 1.394 . S
C455 C456 1.383 . S
C455 H463 0.929 . S
C456 C455 1.383 . S
C456 C457 1.377 . S
C457 H441 0.930 . S
C457 C456 1.377 . S
C457 C458 1.379 . S
C458 H442 0.931 . S
C458 C452 1.383 . S
C458 C457 1.379 . S
H459 C453 0.959 . S
H460 C453 0.961 . S
H461 C453 0.960 . S
H462 C454 0.930 . S
H463 C455 0.929 . S
H464 C472 0.929 . S
H465 C474 0.930 . S
H466 C476 0.930 . S
H467 C479 0.929 . S
H468 C482 0.930 . S
H469 C484 0.960 . S
H470 C484 0.960 . S
H471 C484 0.960 . S
C472 H464 0.929 . S
C472 C473 1.377 . S
C472 C474 1.384 . S
C473 C472 1.377 . S
C473 C479 1.390 . S
C474 H465 0.930 . S
C474 C472 1.384 . S
C474 C475 1.372 . S
C475 C474 1.372 . S
C475 C476 1.400 . S
C475 C480 1.490 . S
C476 H466 0.930 . S
C476 C475 1.400 . S
C476 C479 1.386 . S
H477 C493 0.930 . S
H478 C494 0.931 . S
C479 H467 0.929 . S
C479 C473 1.390 . S
C479 C476 1.386 . S
C480 C475 1.490 . S
C480 C482 1.395 . S
C480 C483 1.403 . S
H481 C487 0.930 . S
C482 H468 0.930 . S
C482 C480 1.395 . S
C482 C485 1.403 . S
C483 C480 1.403 . S
C483 C484 1.524 . S
C483 C487 1.400 . S
C484 H469 0.960 . S
C484 H470 0.960 . S
C484 H471 0.960 . S
C484 C483 1.524 . S
C485 C482 1.403 . S
C485 C486 1.392 . S
C485 C489 1.495 . S
C486 C485 1.392 . S
C486 C487 1.385 . S
C486 C488 1.478 . S
C487 H481 0.930 . S
C487 C483 1.400 . S
C487 C486 1.385 . S
C488 C486 1.478 . S
C488 C490 1.381 . S
C488 C494 1.383 . S
C489 C485 1.495 . S
C489 H495 0.959 . S
C489 H496 0.961 . S
C489 H497 0.960 . S
C490 C488 1.381 . S
C490 C491 1.394 . S
C490 H498 0.930 . S
C491 C490 1.394 . S
C491 C492 1.383 . S
C491 H499 0.929 . S
C492 C491 1.383 . S
C492 C493 1.377 . S
C493 H477 0.930 . S
C493 C492 1.377 . S
C493 C494 1.379 . S
C494 H478 0.931 . S
C494 C488 1.383 . S
C494 C493 1.379 . S
H495 C489 0.959 . S
H496 C489 0.961 . S
H497 C489 0.960 . S
H498 C490 0.930 . S
H499 C491 0.929 . S
H500 C508 0.929 . S
H501 C510 0.930 . S
H502 C512 0.930 . S
H503 C515 0.929 . S
H504 C518 0.930 . S
H505 C520 0.960 . S
H506 C520 0.960 . S
H507 C520 0.960 . S
C508 H500 0.929 . S
C508 C509 1.377 . S
C508 C510 1.384 . S
C509 C508 1.377 . S
C509 C515 1.390 . S
C510 H501 0.930 . S
C510 C508 1.384 . S
C510 C511 1.372 . S
C511 C510 1.372 . S
C511 C512 1.400 . S
C511 C516 1.490 . S
C512 H502 0.930 . S
C512 C511 1.400 . S
C512 C515 1.386 . S
H513 C529 0.930 . S
H514 C530 0.931 . S
C515 H503 0.929 . S
C515 C509 1.390 . S
C515 C512 1.386 . S
C516 C511 1.490 . S
C516 C518 1.395 . S
C516 C519 1.403 . S
H517 C523 0.930 . S
C518 H504 0.930 . S
C518 C516 1.395 . S
C518 C521 1.403 . S
C519 C516 1.403 . S
C519 C520 1.524 . S
C519 C523 1.400 . S
C520 H505 0.960 . S
C520 H506 0.960 . S
C520 H507 0.960 . S
C520 C519 1.524 . S
C521 C518 1.403 . S
C521 C522 1.392 . S
C521 C525 1.495 . S
C522 C521 1.392 . S
C522 C523 1.385 . S
C522 C524 1.478 . S
C523 H517 0.930 . S
C523 C519 1.400 . S
C523 C522 1.385 . S
C524 C522 1.478 . S
C524 C526 1.381 . S
C524 C530 1.383 . S
C525 C521 1.495 . S
C525 H531 0.959 . S
C525 H532 0.961 . S
C525 H533 0.960 . S
C526 C524 1.381 . S
C526 C527 1.394 . S
C526 H534 0.930 . S
C527 C526 1.394 . S
C527 C528 1.383 . S
C527 H535 0.929 . S
C528 C527 1.383 . S
C528 C529 1.377 . S
C529 H513 0.930 . S
C529 C528 1.377 . S
C529 C530 1.379 . S
C530 H514 0.931 . S
C530 C524 1.383 . S
C530 C529 1.379 . S
H531 C525 0.959 . S
H532 C525 0.961 . S
H533 C525 0.960 . S
H534 C526 0.930 . S
H535 C527 0.929 . S
H536 C544 0.929 . S
H537 C546 0.930 . S
H538 C548 0.930 . S
H539 C551 0.929 . S
H540 C554 0.930 . S
H541 C556 0.960 . S
H542 C556 0.960 . S
H543 C556 0.960 . S
C544 H536 0.929 . S
C544 C545 1.377 . S
C544 C546 1.384 . S
C545 C544 1.377 . S
C545 C551 1.390 . S
C546 H537 0.930 . S
C546 C544 1.384 . S
C546 C547 1.372 . S
C547 C546 1.372 . S
C547 C548 1.400 . S
C547 C552 1.490 . S
C548 H538 0.930 . S
C548 C547 1.400 . S
C548 C551 1.386 . S
H549 C565 0.930 . S
H550 C566 0.931 . S
C551 H539 0.929 . S
C551 C545 1.390 . S
C551 C548 1.386 . S
C552 C547 1.490 . S
C552 C554 1.395 . S
C552 C555 1.403 . S
H553 C559 0.930 . S
C554 H540 0.930 . S
C554 C552 1.395 . S
C554 C557 1.403 . S
C555 C552 1.403 . S
C555 C556 1.524 . S
C555 C559 1.400 . S
C556 H541 0.960 . S
C556 H542 0.960 . S
C556 H543 0.960 . S
C556 C555 1.524 . S
C557 C554 1.403 . S
C557 C558 1.392 . S
C557 C561 1.495 . S
C558 C557 1.392 . S
C558 C559 1.385 . S
C558 C560 1.478 . S
C559 H553 0.930 . S
C559 C555 1.400 . S
C559 C558 1.385 . S
C560 C558 1.478 . S
C560 C562 1.381 . S
C560 C566 1.383 . S
C561 C557 1.495 . S
C561 H567 0.959 . S
C561 H568 0.961 . S
C561 H569 0.960 . S
C562 C560 1.381 . S
C562 C563 1.394 . S
C562 H570 0.930 . S
C563 C562 1.394 . S
C563 C564 1.383 . S
C563 H571 0.929 . S
C564 C563 1.383 . S
C564 C565 1.377 . S
C565 H549 0.930 . S
C565 C564 1.377 . S
C565 C566 1.379 . S
C566 H550 0.931 . S
C566 C560 1.383 . S
C566 C565 1.379 . S
H567 C561 0.959 . S
H568 C561 0.961 . S
H569 C561 0.960 . S
H570 C562 0.930 . S
H571 C563 0.929 . S
H572 C580 0.929 . S
H573 C582 0.930 . S
H574 C584 0.930 . S
H575 C587 0.929 . S
H576 C590 0.930 . S
H577 C592 0.960 . S
H578 C592 0.960 . S
H579 C592 0.960 . S
C580 H572 0.929 . S
C580 C581 1.377 . S
C580 C582 1.384 . S
C581 C580 1.377 . S
C581 C587 1.390 . S
C582 H573 0.930 . S
C582 C580 1.384 . S
C582 C583 1.372 . S
C583 C582 1.372 . S
C583 C584 1.400 . S
C583 C588 1.490 . S
C584 H574 0.930 . S
C584 C583 1.400 . S
C584 C587 1.386 . S
H585 C601 0.930 . S
H586 C602 0.931 . S
C587 H575 0.929 . S
C587 C581 1.390 . S
C587 C584 1.386 . S
C588 C583 1.490 . S
C588 C590 1.395 . S
C588 C591 1.403 . S
H589 C595 0.930 . S
C590 H576 0.930 . S
C590 C588 1.395 . S
C590 C593 1.403 . S
C591 C588 1.403 . S
C591 C592 1.524 . S
C591 C595 1.400 . S
C592 H577 0.960 . S
C592 H578 0.960 . S
C592 H579 0.960 . S
C592 C591 1.524 . S
C593 C590 1.403 . S
C593 C594 1.392 . S
C593 C597 1.495 . S
C594 C593 1.392 . S
C594 C595 1.385 . S
C594 C596 1.478 . S
C595 H589 0.930 . S
C595 C591 1.400 . S
C595 C594 1.385 . S
C596 C594 1.478 . S
C596 C598 1.381 . S
C596 C602 1.383 . S
C597 C593 1.495 . S
C597 H603 0.959 . S
C597 H604 0.961 . S
C597 H605 0.960 . S
C598 C596 1.381 . S
C598 C599 1.394 . S
C598 H606 0.930 . S
C599 C598 1.394 . S
C599 C600 1.383 . S
C599 H607 0.929 . S
C600 C599 1.383 . S
C600 C601 1.377 . S
C601 H585 0.930 . S
C601 C600 1.377 . S
C601 C602 1.379 . S
C602 H586 0.931 . S
C602 C596 1.383 . S
C602 C601 1.379 . S
H603 C597 0.959 . S
H604 C597 0.961 . S
H605 C597 0.960 . S
H606 C598 0.930 . S
H607 C599 0.929 . S
H608 C616 0.929 . S
H609 C618 0.930 . S
H610 C620 0.930 . S
H611 C623 0.929 . S
H612 C626 0.930 . S
H613 C628 0.960 . S
H614 C628 0.960 . S
H615 C628 0.960 . S
C616 H608 0.929 . S
C616 C617 1.377 . S
C616 C618 1.384 . S
C617 C616 1.377 . S
C617 C623 1.390 . S
C618 H609 0.930 . S
C618 C616 1.384 . S
C618 C619 1.372 . S
C619 C618 1.372 . S
C619 C620 1.400 . S
C619 C624 1.490 . S
C620 H610 0.930 . S
C620 C619 1.400 . S
C620 C623 1.386 . S
H621 C637 0.930 . S
H622 C638 0.931 . S
C623 H611 0.929 . S
C623 C617 1.390 . S
C623 C620 1.386 . S
C624 C619 1.490 . S
C624 C626 1.395 . S
C624 C627 1.403 . S
H625 C631 0.930 . S
C626 H612 0.930 . S
C626 C624 1.395 . S
C626 C629 1.403 . S
C627 C624 1.403 . S
C627 C628 1.524 . S
C627 C631 1.400 . S
C628 H613 0.960 . S
C628 H614 0.960 . S
C628 H615 0.960 . S
C628 C627 1.524 . S
C629 C626 1.403 . S
C629 C630 1.392 . S
C629 C633 1.495 . S
C630 C629 1.392 . S
C630 C631 1.385 . S
C630 C632 1.478 . S
C631 H625 0.930 . S
C631 C627 1.400 . S
C631 C630 1.385 . S
C632 C630 1.478 . S
C632 C634 1.381 . S
C632 C638 1.383 . S
C633 C629 1.495 . S
C633 H639 0.959 . S
C633 H640 0.961 . S
C633 H641 0.960 . S
C634 C632 1.381 . S
C634 C635 1.394 . S
C634 H642 0.930 . S
C635 C634 1.394 . S
C635 C636 1.383 . S
C635 H643 0.929 . S
C636 C635 1.383 . S
C636 C637 1.377 . S
C637 H621 0.930 . S
C637 C636 1.377 . S
C637 C638 1.379 . S
C638 H622 0.931 . S
C638 C632 1.383 . S
C638 C637 1.379 . S
H639 C633 0.959 . S
H640 C633 0.961 . S
H641 C633 0.960 . S
H642 C634 0.930 . S
H643 C635 0.929 . S
H644 C652 0.929 . S
H645 C654 0.930 . S
H646 C656 0.930 . S
H647 C659 0.929 . S
H648 C662 0.930 . S
H649 C664 0.960 . S
H650 C664 0.960 . S
H651 C664 0.960 . S
C652 H644 0.929 . S
C652 C653 1.377 . S
C652 C654 1.384 . S
C653 C652 1.377 . S
C653 C659 1.390 . S
C654 H645 0.930 . S
C654 C652 1.384 . S
C654 C655 1.372 . S
C655 C654 1.372 . S
C655 C656 1.400 . S
C655 C660 1.490 . S
C656 H646 0.930 . S
C656 C655 1.400 . S
C656 C659 1.386 . S
H657 C673 0.930 . S
H658 C674 0.931 . S
C659 H647 0.929 . S
C659 C653 1.390 . S
C659 C656 1.386 . S
C660 C655 1.490 . S
C660 C662 1.395 . S
C660 C663 1.403 . S
H661 C667 0.930 . S
C662 H648 0.930 . S
C662 C660 1.395 . S
C662 C665 1.403 . S
C663 C660 1.403 . S
C663 C664 1.524 . S
C663 C667 1.400 . S
C664 H649 0.960 . S
C664 H650 0.960 . S
C664 H651 0.960 . S
C664 C663 1.524 . S
C665 C662 1.403 . S
C665 C666 1.392 . S
C665 C669 1.495 . S
C666 C665 1.392 . S
C666 C667 1.385 . S
C666 C668 1.478 . S
C667 H661 0.930 . S
C667 C663 1.400 . S
C667 C666 1.385 . S
C668 C666 1.478 . S
C668 C670 1.381 . S
C668 C674 1.383 . S
C669 C665 1.495 . S
C669 H675 0.959 . S
C669 H676 0.961 . S
C669 H677 0.960 . S
C670 C668 1.381 . S
C670 C671 1.394 . S
C670 H678 0.930 . S
C671 C670 1.394 . S
C671 C672 1.383 . S
C671 H679 0.929 . S
C672 C671 1.383 . S
C672 C673 1.377 . S
C673 H657 0.930 . S
C673 C672 1.377 . S
C673 C674 1.379 . S
C674 H658 0.931 . S
C674 C668 1.383 . S
C674 C673 1.379 . S
H675 C669 0.959 . S
H676 C669 0.961 . S
H677 C669 0.960 . S
H678 C670 0.930 . S
H679 C671 0.929 . S
H680 C688 0.929 . S
H681 C690 0.930 . S
H682 C692 0.930 . S
H683 C695 0.929 . S
H684 C698 0.930 . S
H685 C700 0.960 . S
H686 C700 0.960 . S
H687 C700 0.960 . S
C688 H680 0.929 . S
C688 C689 1.377 . S
C688 C690 1.384 . S
C689 C688 1.377 . S
C689 C695 1.390 . S
C690 H681 0.930 . S
C690 C688 1.384 . S
C690 C691 1.372 . S
C691 C690 1.372 . S
C691 C692 1.400 . S
C691 C696 1.490 . S
C692 H682 0.930 . S
C692 C691 1.400 . S
C692 C695 1.386 . S
H693 C709 0.930 . S
H694 C710 0.931 . S
C695 H683 0.929 . S
C695 C689 1.390 . S
C695 C692 1.386 . S
C696 C691 1.490 . S
C696 C698 1.395 . S
C696 C699 1.403 . S
H697 C703 0.930 . S
C698 H684 0.930 . S
C698 C696 1.395 . S
C698 C701 1.403 . S
C699 C696 1.403 . S
C699 C700 1.524 . S
C699 C703 1.400 . S
C700 H685 0.960 . S
C700 H686 0.960 . S
C700 H687 0.960 . S
C700 C699 1.524 . S
C701 C698 1.403 . S
C701 C702 1.392 . S
C701 C705 1.495 . S
C702 C701 1.392 . S
C702 C703 1.385 . S
C702 C704 1.478 . S
C703 H697 0.930 . S
C703 C699 1.400 . S
C703 C702 1.385 . S
C704 C702 1.478 . S
C704 C706 1.381 . S
C704 C710 1.383 . S
C705 C701 1.495 . S
C705 H711 0.959 . S
C705 H712 0.961 . S
C705 H713 0.960 . S
C706 C704 1.381 . S
C706 C707 1.394 . S
C706 H714 0.930 . S
C707 C706 1.394 . S
C707 C708 1.383 . S
C707 H715 0.929 . S
C708 C707 1.383 . S
C708 C709 1.377 . S
C709 H693 0.930 . S
C709 C708 1.377 . S
C709 C710 1.379 . S
C710 H694 0.931 . S
C710 C704 1.383 . S
C710 C709 1.379 . S
H711 C705 0.959 . S
H712 C705 0.961 . S
H713 C705 0.960 . S
H714 C706 0.930 . S
H715 C707 0.929 . S
H716 C724 0.929 . S
H717 C726 0.930 . S
H718 C728 0.930 . S
H719 C731 0.929 . S
H720 C734 0.930 . S
H721 C736 0.960 . S
H722 C736 0.960 . S
H723 C736 0.960 . S
C724 H716 0.929 . S
C724 C725 1.377 . S
C724 C726 1.384 . S
C725 C724 1.377 . S
C725 C731 1.390 . S
C726 H717 0.930 . S
C726 C724 1.384 . S
C726 C727 1.372 . S
C727 C726 1.372 . S
C727 C728 1.400 . S
C727 C732 1.490 . S
C728 H718 0.930 . S
C728 C727 1.400 . S
C728 C731 1.386 . S
H729 C745 0.930 . S
H730 C746 0.931 . S
C731 H719 0.929 . S
C731 C725 1.390 . S
C731 C728 1.386 . S
C732 C727 1.490 . S
C732 C734 1.395 . S
C732 C735 1.403 . S
H733 C739 0.930 . S
C734 H720 0.930 . S
C734 C732 1.395 . S
C734 C737 1.403 . S
C735 C732 1.403 . S
C735 C736 1.524 . S
C735 C739 1.400 . S
C736 H721 0.960 . S
C736 H722 0.960 . S
C736 H723 0.960 . S
C736 C735 1.524 . S
C737 C734 1.403 . S
C737 C738 1.392 . S
C737 C741 1.495 . S
C738 C737 1.392 . S
C738 C739 1.385 . S
C738 C740 1.478 . S
C739 H733 0.930 . S
C739 C735 1.400 . S
C739 C738 1.385 . S
C740 C738 1.478 . S
C740 C742 1.381 . S
C740 C746 1.383 . S
C741 C737 1.495 . S
C741 H747 0.959 . S
C741 H748 0.961 . S
C741 H749 0.960 . S
C742 C740 1.381 . S
C742 C743 1.394 . S
C742 H750 0.930 . S
C743 C742 1.394 . S
C743 C744 1.383 . S
C743 H751 0.929 . S
C744 C743 1.383 . S
C744 C745 1.377 . S
C745 H729 0.930 . S
C745 C744 1.377 . S
C745 C746 1.379 . S
C746 H730 0.931 . S
C746 C740 1.383 . S
C746 C745 1.379 . S
H747 C741 0.959 . S
H748 C741 0.961 . S
H749 C741 0.960 . S
H750 C742 0.930 . S
H751 C743 0.929 . S
H752 C760 0.929 . S
H753 C762 0.930 . S
H754 C764 0.930 . S
H755 C767 0.929 . S
H756 C770 0.930 . S
H757 C772 0.960 . S
H758 C772 0.960 . S
H759 C772 0.960 . S
C760 H752 0.929 . S
C760 C761 1.377 . S
C760 C762 1.384 . S
C761 C760 1.377 . S
C761 C767 1.390 . S
C762 H753 0.930 . S
C762 C760 1.384 . S
C762 C763 1.372 . S
C763 C762 1.372 . S
C763 C764 1.400 . S
C763 C768 1.490 . S
C764 H754 0.930 . S
C764 C763 1.400 . S
C764 C767 1.386 . S
H765 C781 0.930 . S
H766 C782 0.931 . S
C767 H755 0.929 . S
C767 C761 1.390 . S
C767 C764 1.386 . S
C768 C763 1.490 . S
C768 C770 1.395 . S
C768 C771 1.403 . S
H769 C775 0.930 . S
C770 H756 0.930 . S
C770 C768 1.395 . S
C770 C773 1.403 . S
C771 C768 1.403 . S
C771 C772 1.524 . S
C771 C775 1.400 . S
C772 H757 0.960 . S
C772 H758 0.960 . S
C772 H759 0.960 . S
C772 C771 1.524 . S
C773 C770 1.403 . S
C773 C774 1.392 . S
C773 C777 1.495 . S
C774 C773 1.392 . S
C774 C775 1.385 . S
C774 C776 1.478 . S
C775 H769 0.930 . S
C775 C771 1.400 . S
C775 C774 1.385 . S
C776 C774 1.478 . S
C776 C778 1.381 . S
C776 C782 1.383 . S
C777 C773 1.495 . S
C777 H783 0.959 . S
C777 H784 0.961 . S
C777 H785 0.960 . S
C778 C776 1.381 . S
C778 C779 1.394 . S
C778 H786 0.930 . S
C779 C778 1.394 . S
C779 C780 1.383 . S
C779 H787 0.929 . S
C780 C779 1.383 . S
C780 C781 1.377 . S
C781 H765 0.930 . S
C781 C780 1.377 . S
C781 C782 1.379 . S
C782 H766 0.931 . S
C782 C776 1.383 . S
C782 C781 1.379 . S
H783 C777 0.959 . S
H784 C777 0.961 . S
H785 C777 0.960 . S
H786 C778 0.930 . S
H787 C779 0.929 . S
H788 C796 0.929 . S
H789 C798 0.930 . S
H790 C800 0.930 . S
H791 C803 0.929 . S
H792 C806 0.930 . S
H793 C808 0.960 . S
H794 C808 0.960 . S
H795 C808 0.960 . S
C796 H788 0.929 . S
C796 C797 1.377 . S
C796 C798 1.384 . S
C797 C796 1.377 . S
C797 C803 1.390 . S
C798 H789 0.930 . S
C798 C796 1.384 . S
C798 C799 1.372 . S
C799 C798 1.372 . S
C799 C800 1.400 . S
C799 C804 1.490 . S
C800 H790 0.930 . S
C800 C799 1.400 . S
C800 C803 1.386 . S
H801 C817 0.930 . S
H802 C818 0.931 . S
C803 H791 0.929 . S
C803 C797 1.390 . S
C803 C800 1.386 . S
C804 C799 1.490 . S
C804 C806 1.395 . S
C804 C807 1.403 . S
H805 C811 0.930 . S
C806 H792 0.930 . S
C806 C804 1.395 . S
C806 C809 1.403 . S
C807 C804 1.403 . S
C807 C808 1.524 . S
C807 C811 1.400 . S
C808 H793 0.960 . S
C808 H794 0.960 . S
C808 H795 0.960 . S
C808 C807 1.524 . S
C809 C806 1.403 . S
C809 C810 1.392 . S
C809 C813 1.495 . S
C810 C809 1.392 . S
C810 C811 1.385 . S
C810 C812 1.478 . S
C811 H805 0.930 . S
C811 C807 1.400 . S
C811 C810 1.385 . S
C812 C810 1.478 . S
C812 C814 1.381 . S
C812 C818 1.383 . S
C813 C809 1.495 . S
C813 H819 0.959 . S
C813 H820 0.961 . S
C813 H821 0.960 . S
C814 C812 1.381 . S
C814 C815 1.394 . S
C814 H822 0.930 . S
C815 C814 1.394 . S
C815 C816 1.383 . S
C815 H823 0.929 . S
C816 C815 1.383 . S
C816 C817 1.377 . S
C817 H801 0.930 . S
C817 C816 1.377 . S
C817 C818 1.379 . S
C818 H802 0.931 . S
C818 C812 1.383 . S
C818 C817 1.379 . S
H819 C813 0.959 . S
H820 C813 0.961 . S
H821 C813 0.960 . S
H822 C814 0.930 . S
H823 C815 0.929 . S
H824 C832 0.929 . S
H825 C834 0.930 . S
H826 C836 0.930 . S
H827 C839 0.929 . S
H828 C842 0.930 . S
H829 C844 0.960 . S
H830 C844 0.960 . S
H831 C844 0.960 . S
C832 H824 0.929 . S
C832 C833 1.377 . S
C832 C834 1.384 . S
C833 C832 1.377 . S
C833 C839 1.390 . S
C834 H825 0.930 . S
C834 C832 1.384 . S
C834 C835 1.372 . S
C835 C834 1.372 . S
C835 C836 1.400 . S
C835 C840 1.490 . S
C836 H826 0.930 . S
C836 C835 1.400 . S
C836 C839 1.386 . S
H837 C853 0.930 . S
H838 C854 0.931 . S
C839 H827 0.929 . S
C839 C833 1.390 . S
C839 C836 1.386 . S
C840 C835 1.490 . S
C840 C842 1.395 . S
C840 C843 1.403 . S
H841 C847 0.930 . S
C842 H828 0.930 . S
C842 C840 1.395 . S
C842 C845 1.403 . S
C843 C840 1.403 . S
C843 C844 1.524 . S
C843 C847 1.400 . S
C844 H829 0.960 . S
C844 H830 0.960 . S
C844 H831 0.960 . S
C844 C843 1.524 . S
C845 C842 1.403 . S
C845 C846 1.392 . S
C845 C849 1.495 . S
C846 C845 1.392 . S
C846 C847 1.385 . S
C846 C848 1.478 . S
C847 H841 0.930 . S
C847 C843 1.400 . S
C847 C846 1.385 . S
C848 C846 1.478 . S
C848 C850 1.381 . S
C848 C854 1.383 . S
C849 C845 1.495 . S
C849 H855 0.959 . S
C849 H856 0.961 . S
C849 H857 0.960 . S
C850 C848 1.381 . S
C850 C851 1.394 . S
C850 H858 0.930 . S
C851 C850 1.394 . S
C851 C852 1.383 . S
C851 H859 0.929 . S
C852 C851 1.383 . S
C852 C853 1.377 . S
C853 H837 0.930 . S
C853 C852 1.377 . S
C853 C854 1.379 . S
C854 H838 0.931 . S
C854 C848 1.383 . S
C854 C853 1.379 . S
H855 C849 0.959 . S
H856 C849 0.961 . S
H857 C849 0.960 . S
H858 C850 0.930 . S
H859 C851 0.929 . S
H860 C868 0.929 . S
H861 C870 0.930 . S
H862 C872 0.930 . S
H863 C875 0.929 . S
H864 C878 0.930 . S
H865 C880 0.960 . S
H866 C880 0.960 . S
H867 C880 0.960 . S
C868 H860 0.929 . S
C868 C869 1.377 . S
C868 C870 1.384 . S
C869 C868 1.377 . S
C869 C875 1.390 . S
C870 H861 0.930 . S
C870 C868 1.384 . S
C870 C871 1.372 . S
C871 C870 1.372 . S
C871 C872 1.400 . S
C871 C876 1.490 . S
C872 H862 0.930 . S
C872 C871 1.400 . S
C872 C875 1.386 . S
H873 C889 0.930 . S
H874 C890 0.931 . S
C875 H863 0.929 . S
C875 C869 1.390 . S
C875 C872 1.386 . S
C876 C871 1.490 . S
C876 C878 1.395 . S
C876 C879 1.403 . S
H877 C883 0.930 . S
C878 H864 0.930 . S
C878 C876 1.395 . S
C878 C881 1.403 . S
C879 C876 1.403 . S
C879 C880 1.524 . S
C879 C883 1.400 . S
C880 H865 0.960 . S
C880 H866 0.960 . S
C880 H867 0.960 . S
C880 C879 1.524 . S
C881 C878 1.403 . S
C881 C882 1.392 . S
C881 C885 1.495 . S
C882 C881 1.392 . S
C882 C883 1.385 . S
C882 C884 1.478 . S
C883 H877 0.930 . S
C883 C879 1.400 . S
C883 C882 1.385 . S
C884 C882 1.478 . S
C884 C886 1.381 . S
C884 C890 1.383 . S
C885 C881 1.495 . S
C885 H891 0.959 . S
C885 H892 0.961 . S
C885 H893 0.960 . S
C886 C884 1.381 . S
C886 C887 1.394 . S
C886 H894 0.930 . S
C887 C886 1.394 . S
C887 C888 1.383 . S
C887 H895 0.929 . S
C888 C887 1.383 . S
C888 C889 1.377 . S
C889 H873 0.930 . S
C889 C888 1.377 . S
C889 C890 1.379 . S
C890 H874 0.931 . S
C890 C884 1.383 . S
C890 C889 1.379 . S
H891 C885 0.959 . S
H892 C885 0.961 . S
H893 C885 0.960 . S
H894 C886 0.930 . S
H895 C887 0.929 . S
H896 C904 0.929 . S
H897 C906 0.930 . S
H898 C908 0.930 . S
H899 C911 0.929 . S
H900 C914 0.930 . S
H901 C916 0.960 . S
H902 C916 0.960 . S
H903 C916 0.960 . S
C904 H896 0.929 . S
C904 C905 1.377 . S
C904 C906 1.384 . S
C905 C904 1.377 . S
C905 C911 1.390 . S
C906 H897 0.930 . S
C906 C904 1.384 . S
C906 C907 1.372 . S
C907 C906 1.372 . S
C907 C908 1.400 . S
C907 C912 1.490 . S
C908 H898 0.930 . S
C908 C907 1.400 . S
C908 C911 1.386 . S
H909 C925 0.930 . S
H910 C926 0.931 . S
C911 H899 0.929 . S
C911 C905 1.390 . S
C911 C908 1.386 . S
C912 C907 1.490 . S
C912 C914 1.395 . S
C912 C915 1.403 . S
H913 C919 0.930 . S
C914 H900 0.930 . S
C914 C912 1.395 . S
C914 C917 1.403 . S
C915 C912 1.403 . S
C915 C916 1.524 . S
C915 C919 1.400 . S
C916 H901 0.960 . S
C916 H902 0.960 . S
C916 H903 0.960 . S
C916 C915 1.524 . S
C917 C914 1.403 . S
C917 C918 1.392 . S
C917 C921 1.495 . S
C918 C917 1.392 . S
C918 C919 1.385 . S
C918 C920 1.478 . S
C919 H913 0.930 . S
C919 C915 1.400 . S
C919 C918 1.385 . S
C920 C918 1.478 . S
C920 C922 1.381 . S
C920 C926 1.383 . S
C921 C917 1.495 . S
C921 H927 0.959 . S
C921 H928 0.961 . S
C921 H929 0.960 . S
C922 C920 1.381 . S
C922 C923 1.394 . S
C922 H930 0.930 . S
C923 C922 1.394 . S
C923 C924 1.383 . S
C923 H931 0.929 . S
C924 C923 1.383 . S
C924 C925 1.377 . S
C925 H909 0.930 . S
C925 C924 1.377 . S
C925 C926 1.379 . S
C926 H910 0.931 . S
C926 C920 1.383 . S
C926 C925 1.379 . S
H927 C921 0.959 . S
H928 C921 0.961 . S
H929 C921 0.960 . S
H930 C922 0.930 . S
H931 C923 0.929 . S
H932 C940 0.929 . S
H933 C942 0.930 . S
H934 C944 0.930 . S
H935 C947 0.929 . S
H936 C950 0.930 . S
H937 C952 0.960 . S
H938 C952 0.960 . S
H939 C952 0.960 . S
C940 H932 0.929 . S
C940 C941 1.377 . S
C940 C942 1.384 . S
C941 C940 1.377 . S
C941 C947 1.390 . S
C942 H933 0.930 . S
C942 C940 1.384 . S
C942 C943 1.372 . S
C943 C942 1.372 . S
C943 C944 1.400 . S
C943 C948 1.490 . S
C944 H934 0.930 . S
C944 C943 1.400 . S
C944 C947 1.386 . S
H945 C961 0.930 . S
H946 C962 0.931 . S
C947 H935 0.929 . S
C947 C941 1.390 . S
C947 C944 1.386 . S
C948 C943 1.490 . S
C948 C950 1.395 . S
C948 C951 1.403 . S
H949 C955 0.930 . S
C950 H936 0.930 . S
C950 C948 1.395 . S
C950 C953 1.403 . S
C951 C948 1.403 . S
C951 C952 1.524 . S
C951 C955 1.400 . S
C952 H937 0.960 . S
C952 H938 0.960 . S
C952 H939 0.960 . S
C952 C951 1.524 . S
C953 C950 1.403 . S
C953 C954 1.392 . S
C953 C957 1.495 . S
C954 C953 1.392 . S
C954 C955 1.385 . S
C954 C956 1.478 . S
C955 H949 0.930 . S
C955 C951 1.400 . S
C955 C954 1.385 . S
C956 C954 1.478 . S
C956 C958 1.381 . S
C956 C962 1.383 . S
C957 C953 1.495 . S
C957 H963 0.959 . S
C957 H964 0.961 . S
C957 H965 0.960 . S
C958 C956 1.381 . S
C958 C959 1.394 . S
C958 H966 0.930 . S
C959 C958 1.394 . S
C959 C960 1.383 . S
C959 H967 0.929 . S
C960 C959 1.383 . S
C960 C961 1.377 . S
C961 H945 0.930 . S
C961 C960 1.377 . S
C961 C962 1.379 . S
C962 H946 0.931 . S
C962 C956 1.383 . S
C962 C961 1.379 . S
H963 C957 0.959 . S
H964 C957 0.961 . S
H965 C957 0.960 . S
H966 C958 0.930 . S
H967 C959 0.929 . S
H968 C976 0.929 . S
H969 C978 0.930 . S
H970 C980 0.930 . S
H971 C983 0.929 . S
H972 C986 0.930 . S
H973 C988 0.960 . S
H974 C988 0.960 . S
H975 C988 0.960 . S
C976 H968 0.929 . S
C976 C977 1.377 . S
C976 C978 1.384 . S
C977 C976 1.377 . S
C977 C983 1.390 . S
C978 H969 0.930 . S
C978 C976 1.384 . S
C978 C979 1.372 . S
C979 C978 1.372 . S
C979 C980 1.400 . S
C979 C984 1.490 . S
C980 H970 0.930 . S
C980 C979 1.400 . S
C980 C983 1.386 . S
H981 C997 0.930 . S
H982 C998 0.931 . S
C983 H971 0.929 . S
C983 C977 1.390 . S
C983 C980 1.386 . S
C984 C979 1.490 . S
C984 C986 1.395 . S
C984 C987 1.403 . S
H985 C991 0.930 . S
C986 H972 0.930 . S
C986 C984 1.395 . S
C986 C989 1.403 . S
C987 C984 1.403 . S
C987 C988 1.524 . S
C987 C991 1.400 . S
C988 H973 0.960 . S
C988 H974 0.960 . S
C988 H975 0.960 . S
C988 C987 1.524 . S
C989 C986 1.403 . S
C989 C990 1.392 . S
C989 C993 1.495 . S
C990 C989 1.392 . S
C990 C991 1.385 . S
C990 C992 1.478 . S
C991 H985 0.930 . S
C991 C987 1.400 . S
C991 C990 1.385 . S
C992 C990 1.478 . S
C992 C994 1.381 . S
C992 C998 1.383 . S
C993 C989 1.495 . S
C993 H999 0.959 . S
C993 H1000 0.961 . S
C993 H1001 0.960 . S
C994 C992 1.381 . S
C994 C995 1.394 . S
C994 H1002 0.930 . S
C995 C994 1.394 . S
C995 C996 1.383 . S
C995 H1003 0.929 . S
C996 C995 1.383 . S
C996 C997 1.377 . S
C997 H981 0.930 . S
C997 C996 1.377 . S
C997 C998 1.379 . S
C998 H982 0.931 . S
C998 C992 1.383 . S
C998 C997 1.379 . S
H999 C993 0.959 . S
H1000 C993 0.961 . S
H1001 C993 0.960 . S
H1002 C994 0.930 . S
H1003 C995 0.929 . S
H1004 C1012 0.929 . S
H1005 C1014 0.930 . S
H1006 C1016 0.930 . S
H1007 C1019 0.929 . S
H1008 C1022 0.930 . S
H1009 C1024 0.960 . S
H1010 C1024 0.960 . S
H1011 C1024 0.960 . S
C1012 H1004 0.929 . S
C1012 C1013 1.377 . S
C1012 C1014 1.384 . S
C1013 C1012 1.377 . S
C1013 C1019 1.390 . S
C1014 H1005 0.930 . S
C1014 C1012 1.384 . S
C1014 C1015 1.372 . S
C1015 C1014 1.372 . S
C1015 C1016 1.400 . S
C1015 C1020 1.490 . S
C1016 H1006 0.930 . S
C1016 C1015 1.400 . S
C1016 C1019 1.386 . S
H1017 C1033 0.930 . S
H1018 C1034 0.931 . S
C1019 H1007 0.929 . S
C1019 C1013 1.390 . S
C1019 C1016 1.386 . S
C1020 C1015 1.490 . S
C1020 C1022 1.395 . S
C1020 C1023 1.403 . S
H1021 C1027 0.930 . S
C1022 H1008 0.930 . S
C1022 C1020 1.395 . S
C1022 C1025 1.403 . S
C1023 C1020 1.403 . S
C1023 C1024 1.524 . S
C1023 C1027 1.400 . S
C1024 H1009 0.960 . S
C1024 H1010 0.960 . S
C1024 H1011 0.960 . S
C1024 C1023 1.524 . S
C1025 C1022 1.403 . S
C1025 C1026 1.392 . S
C1025 C1029 1.495 . S
C1026 C1025 1.392 . S
C1026 C1027 1.385 . S
C1026 C1028 1.478 . S
C1027 H1021 0.930 . S
C1027 C1023 1.400 . S
C1027 C1026 1.385 . S
C1028 C1026 1.478 . S
C1028 C1030 1.381 . S
C1028 C1034 1.383 . S
C1029 C1025 1.495 . S
C1029 H1035 0.959 . S
C1029 H1036 0.961 . S
C1029 H1037 0.960 . S
C1030 C1028 1.381 . S
C1030 C1031 1.394 . S
C1030 H1038 0.930 . S
C1031 C1030 1.394 . S
C1031 C1032 1.383 . S
C1031 H1039 0.929 . S
C1032 C1031 1.383 . S
C1032 C1033 1.377 . S
C1033 H1017 0.930 . S
C1033 C1032 1.377 . S
C1033 C1034 1.379 . S
C1034 H1018 0.931 . S
C1034 C1028 1.383 . S
C1034 C1033 1.379 . S
H1035 C1029 0.959 . S
H1036 C1029 0.961 . S
H1037 C1029 0.960 . S
H1038 C1030 0.930 . S
H1039 C1031 0.929 . S
H1040 C1048 0.929 . S
H1041 C1050 0.930 . S
H1042 C1052 0.930 . S
H1043 C1055 0.929 . S
H1044 C1058 0.930 . S
H1045 C1060 0.960 . S
H1046 C1060 0.960 . S
H1047 C1060 0.960 . S
C1048 H1040 0.929 . S
C1048 C1049 1.377 . S
C1048 C1050 1.384 . S
C1049 C1048 1.377 . S
C1049 C1055 1.390 . S
C1050 H1041 0.930 . S
C1050 C1048 1.384 . S
C1050 C1051 1.372 . S
C1051 C1050 1.372 . S
C1051 C1052 1.400 . S
C1051 C1056 1.490 . S
C1052 H1042 0.930 . S
C1052 C1051 1.400 . S
C1052 C1055 1.386 . S
H1053 C1069 0.930 . S
H1054 C1070 0.931 . S
C1055 H1043 0.929 . S
C1055 C1049 1.390 . S
C1055 C1052 1.386 . S
C1056 C1051 1.490 . S
C1056 C1058 1.395 . S
C1056 C1059 1.403 . S
H1057 C1063 0.930 . S
C1058 H1044 0.930 . S
C1058 C1056 1.395 . S
C1058 C1061 1.403 . S
C1059 C1056 1.403 . S
C1059 C1060 1.524 . S
C1059 C1063 1.400 . S
C1060 H1045 0.960 . S
C1060 H1046 0.960 . S
C1060 H1047 0.960 . S
C1060 C1059 1.524 . S
C1061 C1058 1.403 . S
C1061 C1062 1.392 . S
C1061 C1065 1.495 . S
C1062 C1061 1.392 . S
C1062 C1063 1.385 . S
C1062 C1064 1.478 . S
C1063 H1057 0.930 . S
C1063 C1059 1.400 . S
C1063 C1062 1.385 . S
C1064 C1062 1.478 . S
C1064 C1066 1.381 . S
C1064 C1070 1.383 . S
C1065 C1061 1.495 . S
C1065 H1071 0.959 . S
C1065 H1072 0.961 . S
C1065 H1073 0.960 . S
C1066 C1064 1.381 . S
C1066 C1067 1.394 . S
C1066 H1074 0.930 . S
C1067 C1066 1.394 . S
C1067 C1068 1.383 . S
C1067 H1075 0.929 . S
C1068 C1067 1.383 . S
C1068 C1069 1.377 . S
C1069 H1053 0.930 . S
C1069 C1068 1.377 . S
C1069 C1070 1.379 . S
C1070 H1054 0.931 . S
C1070 C1064 1.383 . S
C1070 C1069 1.379 . S
H1071 C1065 0.959 . S
H1072 C1065 0.961 . S
H1073 C1065 0.960 . S
H1074 C1066 0.930 . S
H1075 C1067 0.929 . S
H1076 C1084 0.929 . S
H1077 C1086 0.930 . S
H1078 C1088 0.930 . S
H1079 C1091 0.929 . S
H1080 C1094 0.930 . S
H1081 C1096 0.960 . S
H1082 C1096 0.960 . S
H1083 C1096 0.960 . S
C1084 H1076 0.929 . S
C1084 C1085 1.377 . S
C1084 C1086 1.384 . S
C1085 C1084 1.377 . S
C1085 C1091 1.390 . S
C1086 H1077 0.930 . S
C1086 C1084 1.384 . S
C1086 C1087 1.372 . S
C1087 C1086 1.372 . S
C1087 C1088 1.400 . S
C1087 C1092 1.490 . S
C1088 H1078 0.930 . S
C1088 C1087 1.400 . S
C1088 C1091 1.386 . S
H1089 C1105 0.930 . S
H1090 C1106 0.931 . S
C1091 H1079 0.929 . S
C1091 C1085 1.390 . S
C1091 C1088 1.386 . S
C1092 C1087 1.490 . S
C1092 C1094 1.395 . S
C1092 C1095 1.403 . S
H1093 C1099 0.930 . S
C1094 H1080 0.930 . S
C1094 C1092 1.395 . S
C1094 C1097 1.403 . S
C1095 C1092 1.403 . S
C1095 C1096 1.524 . S
C1095 C1099 1.400 . S
C1096 H1081 0.960 . S
C1096 H1082 0.960 . S
C1096 H1083 0.960 . S
C1096 C1095 1.524 . S
C1097 C1094 1.403 . S
C1097 C1098 1.392 . S
C1097 C1101 1.495 . S
C1098 C1097 1.392 . S
C1098 C1099 1.385 . S
C1098 C1100 1.478 . S
C1099 H1093 0.930 . S
C1099 C1095 1.400 . S
C1099 C1098 1.385 . S
C1100 C1098 1.478 . S
C1100 C1102 1.381 . S
C1100 C1106 1.383 . S
C1101 C1097 1.495 . S
C1101 H1107 0.959 . S
C1101 H1108 0.961 . S
C1101 H1109 0.960 . S
C1102 C1100 1.381 . S
C1102 C1103 1.394 . S
C1102 H1110 0.930 . S
C1103 C1102 1.394 . S
C1103 C1104 1.383 . S
C1103 H1111 0.929 . S
C1104 C1103 1.383 . S
C1104 C1105 1.377 . S
C1105 H1089 0.930 . S
C1105 C1104 1.377 . S
C1105 C1106 1.379 . S
C1106 H1090 0.931 . S
C1106 C1100 1.383 . S
C1106 C1105 1.379 . S
H1107 C1101 0.959 . S
H1108 C1101 0.961 . S
H1109 C1101 0.960 . S
H1110 C1102 0.930 . S
H1111 C1103 0.929 . S
H1112 C1120 0.929 . S
H1113 C1122 0.930 . S
H1114 C1124 0.930 . S
H1115 C1127 0.929 . S
H1116 C1130 0.930 . S
H1117 C1132 0.960 . S
H1118 C1132 0.960 . S
H1119 C1132 0.960 . S
C1120 H1112 0.929 . S
C1120 C1121 1.377 . S
C1120 C1122 1.384 . S
C1121 C1120 1.377 . S
C1121 C1127 1.390 . S
C1122 H1113 0.930 . S
C1122 C1120 1.384 . S
C1122 C1123 1.372 . S
C1123 C1122 1.372 . S
C1123 C1124 1.400 . S
C1123 C1128 1.490 . S
C1124 H1114 0.930 . S
C1124 C1123 1.400 . S
C1124 C1127 1.386 . S
H1125 C1141 0.930 . S
H1126 C1142 0.931 . S
C1127 H1115 0.929 . S
C1127 C1121 1.390 . S
C1127 C1124 1.386 . S
C1128 C1123 1.490 . S
C1128 C1130 1.395 . S
C1128 C1131 1.403 . S
H1129 C1135 0.930 . S
C1130 H1116 0.930 . S
C1130 C1128 1.395 . S
C1130 C1133 1.403 . S
C1131 C1128 1.403 . S
C1131 C1132 1.524 . S
C1131 C1135 1.400 . S
C1132 H1117 0.960 . S
C1132 H1118 0.960 . S
C1132 H1119 0.960 . S
C1132 C1131 1.524 . S
C1133 C1130 1.403 . S
C1133 C1134 1.392 . S
C1133 C1137 1.495 . S
C1134 C1133 1.392 . S
C1134 C1135 1.385 . S
C1134 C1136 1.478 . S
C1135 H1129 0.930 . S
C1135 C1131 1.400 . S
C1135 C1134 1.385 . S
C1136 C1134 1.478 . S
C1136 C1138 1.381 . S
C1136 C1142 1.383 . S
C1137 C1133 1.495 . S
C1137 H1143 0.959 . S
C1137 H1144 0.961 . S
C1137 H1145 0.960 . S
C1138 C1136 1.381 . S
C1138 C1139 1.394 . S
C1138 H1146 0.930 . S
C1139 C1138 1.394 . S
C1139 C1140 1.383 . S
C1139 H1147 0.929 . S
C1140 C1139 1.383 . S
C1140 C1141 1.377 . S
C1141 H1125 0.930 . S
C1141 C1140 1.377 . S
C1141 C1142 1.379 . S
C1142 H1126 0.931 . S
C1142 C1136 1.383 . S
C1142 C1141 1.379 . S
H1143 C1137 0.959 . S
H1144 C1137 0.961 . S
H1145 C1137 0.960 . S
H1146 C1138 0.930 . S
H1147 C1139 0.929 . S
H1148 C1156 0.929 . S
H1149 C1158 0.930 . S
H1150 C1160 0.930 . S
H1151 C1163 0.929 . S
H1152 C1166 0.930 . S
H1153 C1168 0.960 . S
H1154 C1168 0.960 . S
H1155 C1168 0.960 . S
C1156 H1148 0.929 . S
C1156 C1157 1.377 . S
C1156 C1158 1.384 . S
C1157 C1156 1.377 . S
C1157 C1163 1.390 . S
C1158 H1149 0.930 . S
C1158 C1156 1.384 . S
C1158 C1159 1.372 . S
C1159 C1158 1.372 . S
C1159 C1160 1.400 . S
C1159 C1164 1.490 . S
C1160 H1150 0.930 . S
C1160 C1159 1.400 . S
C1160 C1163 1.386 . S
H1161 C1177 0.930 . S
H1162 C1178 0.931 . S
C1163 H1151 0.929 . S
C1163 C1157 1.390 . S
C1163 C1160 1.386 . S
C1164 C1159 1.490 . S
C1164 C1166 1.395 . S
C1164 C1167 1.403 . S
H1165 C1171 0.930 . S
C1166 H1152 0.930 . S
C1166 C1164 1.395 . S
C1166 C1169 1.403 . S
C1167 C1164 1.403 . S
C1167 C1168 1.524 . S
C1167 C1171 1.400 . S
C1168 H1153 0.960 . S
C1168 H1154 0.960 . S
C1168 H1155 0.960 . S
C1168 C1167 1.524 . S
C1169 C1166 1.403 . S
C1169 C1170 1.392 . S
C1169 C1173 1.495 . S
C1170 C1169 1.392 . S
C1170 C1171 1.385 . S
C1170 C1172 1.478 . S
C1171 H1165 0.930 . S
C1171 C1167 1.400 . S
C1171 C1170 1.385 . S
C1172 C1170 1.478 . S
C1172 C1174 1.381 . S
C1172 C1178 1.383 . S
C1173 C1169 1.495 . S
C1173 H1179 0.959 . S
C1173 H1180 0.961 . S
C1173 H1181 0.960 . S
C1174 C1172 1.381 . S
C1174 C1175 1.394 . S
C1174 H1182 0.930 . S
C1175 C1174 1.394 . S
C1175 C1176 1.383 . S
C1175 H1183 0.929 . S
C1176 C1175 1.383 . S
C1176 C1177 1.377 . S
C1177 H1161 0.930 . S
C1177 C1176 1.377 . S
C1177 C1178 1.379 . S
C1178 H1162 0.931 . S
C1178 C1172 1.383 . S
C1178 C1177 1.379 . S
H1179 C1173 0.959 . S
H1180 C1173 0.961 . S
H1181 C1173 0.960 . S
H1182 C1174 0.930 . S
H1183 C1175 0.929 . S
H1184 C1192 0.929 . S
H1185 C1194 0.930 . S
H1186 C1196 0.930 . S
H1187 C1199 0.929 . S
H1188 C1202 0.930 . S
H1189 C1204 0.960 . S
H1190 C1204 0.960 . S
H1191 C1204 0.960 . S
C1192 H1184 0.929 . S
C1192 C1193 1.377 . S
C1192 C1194 1.384 . S
C1193 C1192 1.377 . S
C1193 C1199 1.390 . S
C1194 H1185 0.930 . S
C1194 C1192 1.384 . S
C1194 C1195 1.372 . S
C1195 C1194 1.372 . S
C1195 C1196 1.400 . S
C1195 C1200 1.490 . S
C1196 H1186 0.930 . S
C1196 C1195 1.400 . S
C1196 C1199 1.386 . S
H1197 C1213 0.930 . S
H1198 C1214 0.931 . S
C1199 H1187 0.929 . S
C1199 C1193 1.390 . S
C1199 C1196 1.386 . S
C1200 C1195 1.490 . S
C1200 C1202 1.395 . S
C1200 C1203 1.403 . S
H1201 C1207 0.930 . S
C1202 H1188 0.930 . S
C1202 C1200 1.395 . S
C1202 C1205 1.403 . S
C1203 C1200 1.403 . S
C1203 C1204 1.524 . S
C1203 C1207 1.400 . S
C1204 H1189 0.960 . S
C1204 H1190 0.960 . S
C1204 H1191 0.960 . S
C1204 C1203 1.524 . S
C1205 C1202 1.403 . S
C1205 C1206 1.392 . S
C1205 C1209 1.495 . S
C1206 C1205 1.392 . S
C1206 C1207 1.385 . S
C1206 C1208 1.478 . S
C1207 H1201 0.930 . S
C1207 C1203 1.400 . S
C1207 C1206 1.385 . S
C1208 C1206 1.478 . S
C1208 C1210 1.381 . S
C1208 C1214 1.383 . S
C1209 C1205 1.495 . S
C1209 H1215 0.959 . S
C1209 H1216 0.961 . S
C1209 H1217 0.960 . S
C1210 C1208 1.381 . S
C1210 C1211 1.394 . S
C1210 H1218 0.930 . S
C1211 C1210 1.394 . S
C1211 C1212 1.383 . S
C1211 H1219 0.929 . S
C1212 C1211 1.383 . S
C1212 C1213 1.377 . S
C1213 H1197 0.930 . S
C1213 C1212 1.377 . S
C1213 C1214 1.379 . S
C1214 H1198 0.931 . S
C1214 C1208 1.383 . S
C1214 C1213 1.379 . S
H1215 C1209 0.959 . S
H1216 C1209 0.961 . S
H1217 C1209 0.960 . S
H1218 C1210 0.930 . S
H1219 C1211 0.929 . S
H1220 C1228 0.929 . S
H1221 C1230 0.930 . S
H1222 C1232 0.930 . S
H1223 C1235 0.929 . S
H1224 C1238 0.930 . S
H1225 C1240 0.960 . S
H1226 C1240 0.960 . S
H1227 C1240 0.960 . S
C1228 H1220 0.929 . S
C1228 C1229 1.377 . S
C1228 C1230 1.384 . S
C1229 C1228 1.377 . S
C1229 C1235 1.390 . S
C1230 H1221 0.930 . S
C1230 C1228 1.384 . S
C1230 C1231 1.372 . S
C1231 C1230 1.372 . S
C1231 C1232 1.400 . S
C1231 C1236 1.490 . S
C1232 H1222 0.930 . S
C1232 C1231 1.400 . S
C1232 C1235 1.386 . S
H1233 C1249 0.930 . S
H1234 C1250 0.931 . S
C1235 H1223 0.929 . S
C1235 C1229 1.390 . S
C1235 C1232 1.386 . S
C1236 C1231 1.490 . S
C1236 C1238 1.395 . S
C1236 C1239 1.403 . S
H1237 C1243 0.930 . S
C1238 H1224 0.930 . S
C1238 C1236 1.395 . S
C1238 C1241 1.403 . S
C1239 C1236 1.403 . S
C1239 C1240 1.524 . S
C1239 C1243 1.400 . S
C1240 H1225 0.960 . S
C1240 H1226 0.960 . S
C1240 H1227 0.960 . S
C1240 C1239 1.524 . S
C1241 C1238 1.403 . S
C1241 C1242 1.392 . S
C1241 C1245 1.495 . S
C1242 C1241 1.392 . S
C1242 C1243 1.385 . S
C1242 C1244 1.478 . S
C1243 H1237 0.930 . S
C1243 C1239 1.400 . S
C1243 C1242 1.385 . S
C1244 C1242 1.478 . S
C1244 C1246 1.381 . S
C1244 C1250 1.383 . S
C1245 C1241 1.495 . S
C1245 H1251 0.959 . S
C1245 H1252 0.961 . S
C1245 H1253 0.960 . S
C1246 C1244 1.381 . S
C1246 C1247 1.394 . S
C1246 H1254 0.930 . S
C1247 C1246 1.394 . S
C1247 C1248 1.383 . S
C1247 H1255 0.929 . S
C1248 C1247 1.383 . S
C1248 C1249 1.377 . S
C1249 H1233 0.930 . S
C1249 C1248 1.377 . S
C1249 C1250 1.379 . S
C1250 H1234 0.931 . S
C1250 C1244 1.383 . S
C1250 C1249 1.379 . S
H1251 C1245 0.959 . S
H1252 C1245 0.961 . S
H1253 C1245 0.960 . S
H1254 C1246 0.930 . S
H1255 C1247 0.929 . S
H1256 C1264 0.929 . S
H1257 C1266 0.930 . S
H1258 C1268 0.930 . S
H1259 C1271 0.929 . S
H1260 C1274 0.930 . S
H1261 C1276 0.960 . S
H1262 C1276 0.960 . S
H1263 C1276 0.960 . S
C1264 H1256 0.929 . S
C1264 C1265 1.377 . S
C1264 C1266 1.384 . S
C1265 C1264 1.377 . S
C1265 C1271 1.390 . S
C1266 H1257 0.930 . S
C1266 C1264 1.384 . S
C1266 C1267 1.372 . S
C1267 C1266 1.372 . S
C1267 C1268 1.400 . S
C1267 C1272 1.490 . S
C1268 H1258 0.930 . S
C1268 C1267 1.400 . S
C1268 C1271 1.386 . S
H1269 C1285 0.930 . S
H1270 C1286 0.931 . S
C1271 H1259 0.929 . S
C1271 C1265 1.390 . S
C1271 C1268 1.386 . S
C1272 C1267 1.490 . S
C1272 C1274 1.395 . S
C1272 C1275 1.403 . S
H1273 C1279 0.930 . S
C1274 H1260 0.930 . S
C1274 C1272 1.395 . S
C1274 C1277 1.403 . S
C1275 C1272 1.403 . S
C1275 C1276 1.524 . S
C1275 C1279 1.400 . S
C1276 H1261 0.960 . S
C1276 H1262 0.960 . S
C1276 H1263 0.960 . S
C1276 C1275 1.524 . S
C1277 C1274 1.403 . S
C1277 C1278 1.392 . S
C1277 C1281 1.495 . S
C1278 C1277 1.392 . S
C1278 C1279 1.385 . S
C1278 C1280 1.478 . S
C1279 H1273 0.930 . S
C1279 C1275 1.400 . S
C1279 C1278 1.385 . S
C1280 C1278 1.478 . S
C1280 C1282 1.381 . S
C1280 C1286 1.383 . S
C1281 C1277 1.495 . S
C1281 H1287 0.959 . S
C1281 H1288 0.961 . S
C1281 H1289 0.960 . S
C1282 C1280 1.381 . S
C1282 C1283 1.394 . S
C1282 H1290 0.930 . S
C1283 C1282 1.394 . S
C1283 C1284 1.383 . S
C1283 H1291 0.929 . S
C1284 C1283 1.383 . S
C1284 C1285 1.377 . S
C1285 H1269 0.930 . S
C1285 C1284 1.377 . S
C1285 C1286 1.379 . S
C1286 H1270 0.931 . S
C1286 C1280 1.383 . S
C1286 C1285 1.379 . S
H1287 C1281 0.959 . S
H1288 C1281 0.961 . S
H1289 C1281 0.960 . S
H1290 C1282 0.930 . S
H1291 C1283 0.929 . S
H1292 C1300 0.929 . S
H1293 C1302 0.930 . S
H1294 C1304 0.930 . S
H1295 C1307 0.929 . S
H1296 C1310 0.930 . S
H1297 C1312 0.960 . S
H1298 C1312 0.960 . S
H1299 C1312 0.960 . S
C1300 H1292 0.929 . S
C1300 C1301 1.377 . S
C1300 C1302 1.384 . S
C1301 C1300 1.377 . S
C1301 C1307 1.390 . S
C1302 H1293 0.930 . S
C1302 C1300 1.384 . S
C1302 C1303 1.372 . S
C1303 C1302 1.372 . S
C1303 C1304 1.400 . S
C1303 C1308 1.490 . S
C1304 H1294 0.930 . S
C1304 C1303 1.400 . S
C1304 C1307 1.386 . S
H1305 C1321 0.930 . S
H1306 C1322 0.931 . S
C1307 H1295 0.929 . S
C1307 C1301 1.390 . S
C1307 C1304 1.386 . S
C1308 C1303 1.490 . S
C1308 C1310 1.395 . S
C1308 C1311 1.403 . S
H1309 C1315 0.930 . S
C1310 H1296 0.930 . S
C1310 C1308 1.395 . S
C1310 C1313 1.403 . S
C1311 C1308 1.403 . S
C1311 C1312 1.524 . S
C1311 C1315 1.400 . S
C1312 H1297 0.960 . S
C1312 H1298 0.960 . S
C1312 H1299 0.960 . S
C1312 C1311 1.524 . S
C1313 C1310 1.403 . S
C1313 C1314 1.392 . S
C1313 C1317 1.495 . S
C1314 C1313 1.392 . S
C1314 C1315 1.385 . S
C1314 C1316 1.478 . S
C1315 H1309 0.930 . S
C1315 C1311 1.400 . S
C1315 C1314 1.385 . S
C1316 C1314 1.478 . S
C1316 C1318 1.381 . S
C1316 C1322 1.383 . S
C1317 C1313 1.495 . S
C1317 H1323 0.959 . S
C1317 H1324 0.961 . S
C1317 H1325 0.960 . S
C1318 C1316 1.381 . S
C1318 C1319 1.394 . S
C1318 H1326 0.930 . S
C1319 C1318 1.394 . S
C1319 C1320 1.383 . S
C1319 H1327 0.929 . S
C1320 C1319 1.383 . S
C1320 C1321 1.377 . S
C1321 H1305 0.930 . S
C1321 C1320 1.377 . S
C1321 C1322 1.379 . S
C1322 H1306 0.931 . S
C1322 C1316 1.383 . S
C1322 C1321 1.379 . S
H1323 C1317 0.959 . S
H1324 C1317 0.961 . S
H1325 C1317 0.960 . S
H1326 C1318 0.930 . S
H1327 C1319 0.929 . S
H1328 C1336 0.929 . S
H1329 C1338 0.930 . S
H1330 C1340 0.930 . S
H1331 C1343 0.929 . S
H1332 C1346 0.930 . S
H1333 C1348 0.960 . S
H1334 C1348 0.960 . S
H1335 C1348 0.960 . S
C1336 H1328 0.929 . S
C1336 C1337 1.377 . S
C1336 C1338 1.384 . S
C1337 C1336 1.377 . S
C1337 C1343 1.390 . S
C1338 H1329 0.930 . S
C1338 C1336 1.384 . S
C1338 C1339 1.372 . S
C1339 C1338 1.372 . S
C1339 C1340 1.400 . S
C1339 C1344 1.490 . S
C1340 H1330 0.930 . S
C1340 C1339 1.400 . S
C1340 C1343 1.386 . S
H1341 C1357 0.930 . S
H1342 C1358 0.931 . S
C1343 H1331 0.929 . S
C1343 C1337 1.390 . S
C1343 C1340 1.386 . S
C1344 C1339 1.490 . S
C1344 C1346 1.395 . S
C1344 C1347 1.403 . S
H1345 C1351 0.930 . S
C1346 H1332 0.930 . S
C1346 C1344 1.395 . S
C1346 C1349 1.403 . S
C1347 C1344 1.403 . S
C1347 C1348 1.524 . S
C1347 C1351 1.400 . S
C1348 H1333 0.960 . S
C1348 H1334 0.960 . S
C1348 H1335 0.960 . S
C1348 C1347 1.524 . S
C1349 C1346 1.403 . S
C1349 C1350 1.392 . S
C1349 C1353 1.495 . S
C1350 C1349 1.392 . S
C1350 C1351 1.385 . S
C1350 C1352 1.478 . S
C1351 H1345 0.930 . S
C1351 C1347 1.400 . S
C1351 C1350 1.385 . S
C1352 C1350 1.478 . S
C1352 C1354 1.381 . S
C1352 C1358 1.383 . S
C1353 C1349 1.495 . S
C1353 H1359 0.959 . S
C1353 H1360 0.961 . S
C1353 H1361 0.960 . S
C1354 C1352 1.381 . S
C1354 C1355 1.394 . S
C1354 H1362 0.930 . S
C1355 C1354 1.394 . S
C1355 C1356 1.383 . S
C1355 H1363 0.929 . S
C1356 C1355 1.383 . S
C1356 C1357 1.377 . S
C1357 H1341 0.930 . S
C1357 C1356 1.377 . S
C1357 C1358 1.379 . S
C1358 H1342 0.931 . S
C1358 C1352 1.383 . S
C1358 C1357 1.379 . S
H1359 C1353 0.959 . S
H1360 C1353 0.961 . S
H1361 C1353 0.960 . S
H1362 C1354 0.930 . S
H1363 C1355 0.929 . S
H1364 C1372 0.929 . S
H1365 C1374 0.930 . S
H1366 C1376 0.930 . S
H1367 C1379 0.929 . S
H1368 C1382 0.930 . S
H1369 C1384 0.960 . S
H1370 C1384 0.960 . S
H1371 C1384 0.960 . S
C1372 H1364 0.929 . S
C1372 C1373 1.377 . S
C1372 C1374 1.384 . S
C1373 C1372 1.377 . S
C1373 C1379 1.390 . S
C1374 H1365 0.930 . S
C1374 C1372 1.384 . S
C1374 C1375 1.372 . S
C1375 C1374 1.372 . S
C1375 C1376 1.400 . S
C1375 C1380 1.490 . S
C1376 H1366 0.930 . S
C1376 C1375 1.400 . S
C1376 C1379 1.386 . S
H1377 C1393 0.930 . S
H1378 C1394 0.931 . S
C1379 H1367 0.929 . S
C1379 C1373 1.390 . S
C1379 C1376 1.386 . S
C1380 C1375 1.490 . S
C1380 C1382 1.395 . S
C1380 C1383 1.403 . S
H1381 C1387 0.930 . S
C1382 H1368 0.930 . S
C1382 C1380 1.395 . S
C1382 C1385 1.403 . S
C1383 C1380 1.403 . S
C1383 C1384 1.524 . S
C1383 C1387 1.400 . S
C1384 H1369 0.960 . S
C1384 H1370 0.960 . S
C1384 H1371 0.960 . S
C1384 C1383 1.524 . S
C1385 C1382 1.403 . S
C1385 C1386 1.392 . S
C1385 C1389 1.495 . S
C1386 C1385 1.392 . S
C1386 C1387 1.385 . S
C1386 C1388 1.478 . S
C1387 H1381 0.930 . S
C1387 C1383 1.400 . S
C1387 C1386 1.385 . S
C1388 C1386 1.478 . S
C1388 C1390 1.381 . S
C1388 C1394 1.383 . S
C1389 C1385 1.495 . S
C1389 H1395 0.959 . S
C1389 H1396 0.961 . S
C1389 H1397 0.960 . S
C1390 C1388 1.381 . S
C1390 C1391 1.394 . S
C1390 H1398 0.930 . S
C1391 C1390 1.394 . S
C1391 C1392 1.383 . S
C1391 H1399 0.929 . S
C1392 C1391 1.383 . S
C1392 C1393 1.377 . S
C1393 H1377 0.930 . S
C1393 C1392 1.377 . S
C1393 C1394 1.379 . S
C1394 H1378 0.931 . S
C1394 C1388 1.383 . S
C1394 C1393 1.379 . S
H1395 C1389 0.959 . S
H1396 C1389 0.961 . S
H1397 C1389 0.960 . S
H1398 C1390 0.930 . S
H1399 C1391 0.929 . S
H1400 C1408 0.929 . S
H1401 C1410 0.930 . S
H1402 C1412 0.930 . S
H1403 C1415 0.929 . S
H1404 C1418 0.930 . S
H1405 C1420 0.960 . S
H1406 C1420 0.960 . S
H1407 C1420 0.960 . S
C1408 H1400 0.929 . S
C1408 C1409 1.377 . S
C1408 C1410 1.384 . S
C1409 C1408 1.377 . S
C1409 C1415 1.390 . S
C1410 H1401 0.930 . S
C1410 C1408 1.384 . S
C1410 C1411 1.372 . S
C1411 C1410 1.372 . S
C1411 C1412 1.400 . S
C1411 C1416 1.490 . S
C1412 H1402 0.930 . S
C1412 C1411 1.400 . S
C1412 C1415 1.386 . S
H1413 C1429 0.930 . S
H1414 C1430 0.931 . S
C1415 H1403 0.929 . S
C1415 C1409 1.390 . S
C1415 C1412 1.386 . S
C1416 C1411 1.490 . S
C1416 C1418 1.395 . S
C1416 C1419 1.403 . S
H1417 C1423 0.930 . S
C1418 H1404 0.930 . S
C1418 C1416 1.395 . S
C1418 C1421 1.403 . S
C1419 C1416 1.403 . S
C1419 C1420 1.524 . S
C1419 C1423 1.400 . S
C1420 H1405 0.960 . S
C1420 H1406 0.960 . S
C1420 H1407 0.960 . S
C1420 C1419 1.524 . S
C1421 C1418 1.403 . S
C1421 C1422 1.392 . S
C1421 C1425 1.495 . S
C1422 C1421 1.392 . S
C1422 C1423 1.385 . S
C1422 C1424 1.478 . S
C1423 H1417 0.930 . S
C1423 C1419 1.400 . S
C1423 C1422 1.385 . S
C1424 C1422 1.478 . S
C1424 C1426 1.381 . S
C1424 C1430 1.383 . S
C1425 C1421 1.495 . S
C1425 H1431 0.959 . S
C1425 H1432 0.961 . S
C1425 H1433 0.960 . S
C1426 C1424 1.381 . S
C1426 C1427 1.394 . S
C1426 H1434 0.930 . S
C1427 C1426 1.394 . S
C1427 C1428 1.383 . S
C1427 H1435 0.929 . S
C1428 C1427 1.383 . S
C1428 C1429 1.377 . S
C1429 H1413 0.930 . S
C1429 C1428 1.377 . S
C1429 C1430 1.379 . S
C1430 H1414 0.931 . S
C1430 C1424 1.383 . S
C1430 C1429 1.379 . S
H1431 C1425 0.959 . S
H1432 C1425 0.961 . S
H1433 C1425 0.960 . S
H1434 C1426 0.930 . S
H1435 C1427 0.929 . S
H1436 C1444 0.929 . S
H1437 C1446 0.930 . S
H1438 C1448 0.930 . S
H1439 C1451 0.929 . S
H1440 C1454 0.930 . S
H1441 C1456 0.960 . S
H1442 C1456 0.960 . S
H1443 C1456 0.960 . S
C1444 H1436 0.929 . S
C1444 C1445 1.377 . S
C1444 C1446 1.384 . S
C1445 C1444 1.377 . S
C1445 C1451 1.390 . S
C1446 H1437 0.930 . S
C1446 C1444 1.384 . S
C1446 C1447 1.372 . S
C1447 C1446 1.372 . S
C1447 C1448 1.400 . S
C1447 C1452 1.490 . S
C1448 H1438 0.930 . S
C1448 C1447 1.400 . S
C1448 C1451 1.386 . S
H1449 C1465 0.930 . S
H1450 C1466 0.931 . S
C1451 H1439 0.929 . S
C1451 C1445 1.390 . S
C1451 C1448 1.386 . S
C1452 C1447 1.490 . S
C1452 C1454 1.395 . S
C1452 C1455 1.403 . S
H1453 C1459 0.930 . S
C1454 H1440 0.930 . S
C1454 C1452 1.395 . S
C1454 C1457 1.403 . S
C1455 C1452 1.403 . S
C1455 C1456 1.524 . S
C1455 C1459 1.400 . S
C1456 H1441 0.960 . S
C1456 H1442 0.960 . S
C1456 H1443 0.960 . S
C1456 C1455 1.524 . S
C1457 C1454 1.403 . S
C1457 C1458 1.392 . S
C1457 C1461 1.495 . S
C1458 C1457 1.392 . S
C1458 C1459 1.385 . S
C1458 C1460 1.478 . S
C1459 H1453 0.930 . S
C1459 C1455 1.400 . S
C1459 C1458 1.385 . S
C1460 C1458 1.478 . S
C1460 C1462 1.381 . S
C1460 C1466 1.383 . S
C1461 C1457 1.495 . S
C1461 H1467 0.959 . S
C1461 H1468 0.961 . S
C1461 H1469 0.960 . S
C1462 C1460 1.381 . S
C1462 C1463 1.394 . S
C1462 H1470 0.930 . S
C1463 C1462 1.394 . S
C1463 C1464 1.383 . S
C1463 H1471 0.929 . S
C1464 C1463 1.383 . S
C1464 C1465 1.377 . S
C1465 H1449 0.930 . S
C1465 C1464 1.377 . S
C1465 C1466 1.379 . S
C1466 H1450 0.931 . S
C1466 C1460 1.383 . S
C1466 C1465 1.379 . S
H1467 C1461 0.959 . S
H1468 C1461 0.961 . S
H1469 C1461 0.960 . S
H1470 C1462 0.930 . S
H1471 C1463 0.929 . S
H1472 C1480 0.929 . S
H1473 C1482 0.930 . S
H1474 C1484 0.930 . S
H1475 C1487 0.929 . S
H1476 C1490 0.930 . S
H1477 C1492 0.960 . S
H1478 C1492 0.960 . S
H1479 C1492 0.960 . S
C1480 H1472 0.929 . S
C1480 C1481 1.377 . S
C1480 C1482 1.384 . S
C1481 C1480 1.377 . S
C1481 C1487 1.390 . S
C1482 H1473 0.930 . S
C1482 C1480 1.384 . S
C1482 C1483 1.372 . S
C1483 C1482 1.372 . S
C1483 C1484 1.400 . S
C1483 C1488 1.490 . S
C1484 H1474 0.930 . S
C1484 C1483 1.400 . S
C1484 C1487 1.386 . S
H1485 C1501 0.930 . S
H1486 C1502 0.931 . S
C1487 H1475 0.929 . S
C1487 C1481 1.390 . S
C1487 C1484 1.386 . S
C1488 C1483 1.490 . S
C1488 C1490 1.395 . S
C1488 C1491 1.403 . S
H1489 C1495 0.930 . S
C1490 H1476 0.930 . S
C1490 C1488 1.395 . S
C1490 C1493 1.403 . S
C1491 C1488 1.403 . S
C1491 C1492 1.524 . S
C1491 C1495 1.400 . S
C1492 H1477 0.960 . S
C1492 H1478 0.960 . S
C1492 H1479 0.960 . S
C1492 C1491 1.524 . S
C1493 C1490 1.403 . S
C1493 C1494 1.392 . S
C1493 C1497 1.495 . S
C1494 C1493 1.392 . S
C1494 C1495 1.385 . S
C1494 C1496 1.478 . S
C1495 H1489 0.930 . S
C1495 C1491 1.400 . S
C1495 C1494 1.385 . S
C1496 C1494 1.478 . S
C1496 C1498 1.381 . S
C1496 C1502 1.383 . S
C1497 C1493 1.495 . S
C1497 H1503 0.959 . S
C1497 H1504 0.961 . S
C1497 H1505 0.960 . S
C1498 C1496 1.381 . S
C1498 C1499 1.394 . S
C1498 H1506 0.930 . S
C1499 C1498 1.394 . S
C1499 C1500 1.383 . S
C1499 H1507 0.929 . S
C1500 C1499 1.383 . S
C1500 C1501 1.377 . S
C1501 H1485 0.930 . S
C1501 C1500 1.377 . S
C1501 C1502 1.379 . S
C1502 H1486 0.931 . S
C1502 C1496 1.383 . S
C1502 C1501 1.379 . S
H1503 C1497 0.959 . S
H1504 C1497 0.961 . S
H1505 C1497 0.960 . S
H1506 C1498 0.930 . S
H1507 C1499 0.929 . S
H1508 C1516 0.929 . S
H1509 C1518 0.930 . S
H1510 C1520 0.930 . S
H1511 C1523 0.929 . S
H1512 C1526 0.930 . S
H1513 C1528 0.960 . S
H1514 C1528 0.960 . S
H1515 C1528 0.960 . S
C1516 H1508 0.929 . S
C1516 C1517 1.377 . S
C1516 C1518 1.384 . S
C1517 C1516 1.377 . S
C1517 C1523 1.390 . S
C1518 H1509 0.930 . S
C1518 C1516 1.384 . S
C1518 C1519 1.372 . S
C1519 C1518 1.372 . S
C1519 C1520 1.400 . S
C1519 C1524 1.490 . S
C1520 H1510 0.930 . S
C1520 C1519 1.400 . S
C1520 C1523 1.386 . S
H1521 C1537 0.930 . S
H1522 C1538 0.931 . S
C1523 H1511 0.929 . S
C1523 C1517 1.390 . S
C1523 C1520 1.386 . S
C1524 C1519 1.490 . S
C1524 C1526 1.395 . S
C1524 C1527 1.403 . S
H1525 C1531 0.930 . S
C1526 H1512 0.930 . S
C1526 C1524 1.395 . S
C1526 C1529 1.403 . S
C1527 C1524 1.403 . S
C1527 C1528 1.524 . S
C1527 C1531 1.400 . S
C1528 H1513 0.960 . S
C1528 H1514 0.960 . S
C1528 H1515 0.960 . S
C1528 C1527 1.524 . S
C1529 C1526 1.403 . S
C1529 C1530 1.392 . S
C1529 C1533 1.495 . S
C1530 C1529 1.392 . S
C1530 C1531 1.385 . S
C1530 C1532 1.478 . S
C1531 H1525 0.930 . S
C1531 C1527 1.400 . S
C1531 C1530 1.385 . S
C1532 C1530 1.478 . S
C1532 C1534 1.381 . S
C1532 C1538 1.383 . S
C1533 C1529 1.495 . S
C1533 H1539 0.959 . S
C1533 H1540 0.961 . S
C1533 H1541 0.960 . S
C1534 C1532 1.381 . S
C1534 C1535 1.394 . S
C1534 H1542 0.930 . S
C1535 C1534 1.394 . S
C1535 C1536 1.383 . S
C1535 H1543 0.929 . S
C1536 C1535 1.383 . S
C1536 C1537 1.377 . S
C1537 H1521 0.930 . S
C1537 C1536 1.377 . S
C1537 C1538 1.379 . S
C1538 H1522 0.931 . S
C1538 C1532 1.383 . S
C1538 C1537 1.379 . S
H1539 C1533 0.959 . S
H1540 C1533 0.961 . S
H1541 C1533 0.960 . S
H1542 C1534 0.930 . S
H1543 C1535 0.929 . S
H1544 C1552 0.929 . S
H1545 C1554 0.930 . S
H1546 C1556 0.930 . S
H1547 C1559 0.929 . S
H1548 C1562 0.930 . S
H1549 C1564 0.960 . S
H1550 C1564 0.960 . S
H1551 C1564 0.960 . S
C1552 H1544 0.929 . S
C1552 C1553 1.377 . S
C1552 C1554 1.384 . S
C1553 C1552 1.377 . S
C1553 C1559 1.390 . S
C1554 H1545 0.930 . S
C1554 C1552 1.384 . S
C1554 C1555 1.372 . S
C1555 C1554 1.372 . S
C1555 C1556 1.400 . S
C1555 C1560 1.490 . S
C1556 H1546 0.930 . S
C1556 C1555 1.400 . S
C1556 C1559 1.386 . S
H1557 C1573 0.930 . S
H1558 C1574 0.931 . S
C1559 H1547 0.929 . S
C1559 C1553 1.390 . S
C1559 C1556 1.386 . S
C1560 C1555 1.490 . S
C1560 C1562 1.395 . S
C1560 C1563 1.403 . S
H1561 C1567 0.930 . S
C1562 H1548 0.930 . S
C1562 C1560 1.395 . S
C1562 C1565 1.403 . S
C1563 C1560 1.403 . S
C1563 C1564 1.524 . S
C1563 C1567 1.400 . S
C1564 H1549 0.960 . S
C1564 H1550 0.960 . S
C1564 H1551 0.960 . S
C1564 C1563 1.524 . S
C1565 C1562 1.403 . S
C1565 C1566 1.392 . S
C1565 C1569 1.495 . S
C1566 C1565 1.392 . S
C1566 C1567 1.385 . S
C1566 C1568 1.478 . S
C1567 H1561 0.930 . S
C1567 C1563 1.400 . S
C1567 C1566 1.385 . S
C1568 C1566 1.478 . S
C1568 C1570 1.381 . S
C1568 C1574 1.383 . S
C1569 C1565 1.495 . S
C1569 H1575 0.959 . S
C1569 H1576 0.961 . S
C1569 H1577 0.960 . S
C1570 C1568 1.381 . S
C1570 C1571 1.394 . S
C1570 H1578 0.930 . S
C1571 C1570 1.394 . S
C1571 C1572 1.383 . S
C1571 H1579 0.929 . S
C1572 C1571 1.383 . S
C1572 C1573 1.377 . S
C1573 H1557 0.930 . S
C1573 C1572 1.377 . S
C1573 C1574 1.379 . S
C1574 H1558 0.931 . S
C1574 C1568 1.383 . S
C1574 C1573 1.379 . S
H1575 C1569 0.959 . S
H1576 C1569 0.961 . S
H1577 C1569 0.960 . S
H1578 C1570 0.930 . S
H1579 C1571 0.929 . S
H1580 C1588 0.929 . S
H1581 C1590 0.930 . S
H1582 C1592 0.930 . S
H1583 C1595 0.929 . S
H1584 C1598 0.930 . S
H1585 C1600 0.960 . S
H1586 C1600 0.960 . S
H1587 C1600 0.960 . S
C1588 H1580 0.929 . S
C1588 C1589 1.377 . S
C1588 C1590 1.384 . S
C1589 C1588 1.377 . S
C1589 C1595 1.390 . S
C1590 H1581 0.930 . S
C1590 C1588 1.384 . S
C1590 C1591 1.372 . S
C1591 C1590 1.372 . S
C1591 C1592 1.400 . S
C1591 C1596 1.490 . S
C1592 H1582 0.930 . S
C1592 C1591 1.400 . S
C1592 C1595 1.386 . S
H1593 C1609 0.930 . S
H1594 C1610 0.931 . S
C1595 H1583 0.929 . S
C1595 C1589 1.390 . S
C1595 C1592 1.386 . S
C1596 C1591 1.490 . S
C1596 C1598 1.395 . S
C1596 C1599 1.403 . S
H1597 C1603 0.930 . S
C1598 H1584 0.930 . S
C1598 C1596 1.395 . S
C1598 C1601 1.403 . S
C1599 C1596 1.403 . S
C1599 C1600 1.524 . S
C1599 C1603 1.400 . S
C1600 H1585 0.960 . S
C1600 H1586 0.960 . S
C1600 H1587 0.960 . S
C1600 C1599 1.524 . S
C1601 C1598 1.403 . S
C1601 C1602 1.392 . S
C1601 C1605 1.495 . S
C1602 C1601 1.392 . S
C1602 C1603 1.385 . S
C1602 C1604 1.478 . S
C1603 H1597 0.930 . S
C1603 C1599 1.400 . S
C1603 C1602 1.385 . S
C1604 C1602 1.478 . S
C1604 C1606 1.381 . S
C1604 C1610 1.383 . S
C1605 C1601 1.495 . S
C1605 H1611 0.959 . S
C1605 H1612 0.961 . S
C1605 H1613 0.960 . S
C1606 C1604 1.381 . S
C1606 C1607 1.394 . S
C1606 H1614 0.930 . S
C1607 C1606 1.394 . S
C1607 C1608 1.383 . S
C1607 H1615 0.929 . S
C1608 C1607 1.383 . S
C1608 C1609 1.377 . S
C1609 H1593 0.930 . S
C1609 C1608 1.377 . S
C1609 C1610 1.379 . S
C1610 H1594 0.931 . S
C1610 C1604 1.383 . S
C1610 C1609 1.379 . S
H1611 C1605 0.959 . S
H1612 C1605 0.961 . S
H1613 C1605 0.960 . S
H1614 C1606 0.930 . S
H1615 C1607 0.929 . S
H1616 C1624 0.929 . S
H1617 C1626 0.930 . S
H1618 C1628 0.930 . S
H1619 C1631 0.929 . S
H1620 C1634 0.930 . S
H1621 C1636 0.960 . S
H1622 C1636 0.960 . S
H1623 C1636 0.960 . S
C1624 H1616 0.929 . S
C1624 C1625 1.377 . S
C1624 C1626 1.384 . S
C1625 C1624 1.377 . S
C1625 C1631 1.390 . S
C1626 H1617 0.930 . S
C1626 C1624 1.384 . S
C1626 C1627 1.372 . S
C1627 C1626 1.372 . S
C1627 C1628 1.400 . S
C1627 C1632 1.490 . S
C1628 H1618 0.930 . S
C1628 C1627 1.400 . S
C1628 C1631 1.386 . S
H1629 C1645 0.930 . S
H1630 C1646 0.931 . S
C1631 H1619 0.929 . S
C1631 C1625 1.390 . S
C1631 C1628 1.386 . S
C1632 C1627 1.490 . S
C1632 C1634 1.395 . S
C1632 C1635 1.403 . S
H1633 C1639 0.930 . S
C1634 H1620 0.930 . S
C1634 C1632 1.395 . S
C1634 C1637 1.403 . S
C1635 C1632 1.403 . S
C1635 C1636 1.524 . S
C1635 C1639 1.400 . S
C1636 H1621 0.960 . S
C1636 H1622 0.960 . S
C1636 H1623 0.960 . S
C1636 C1635 1.524 . S
C1637 C1634 1.403 . S
C1637 C1638 1.392 . S
C1637 C1641 1.495 . S
C1638 C1637 1.392 . S
C1638 C1639 1.385 . S
C1638 C1640 1.478 . S
C1639 H1633 0.930 . S
C1639 C1635 1.400 . S
C1639 C1638 1.385 . S
C1640 C1638 1.478 . S
C1640 C1642 1.381 . S
C1640 C1646 1.383 . S
C1641 C1637 1.495 . S
C1641 H1647 0.959 . S
C1641 H1648 0.961 . S
C1641 H1649 0.960 . S
C1642 C1640 1.381 . S
C1642 C1643 1.394 . S
C1642 H1650 0.930 . S
C1643 C1642 1.394 . S
C1643 C1644 1.383 . S
C1643 H1651 0.929 . S
C1644 C1643 1.383 . S
C1644 C1645 1.377 . S
C1645 H1629 0.930 . S
C1645 C1644 1.377 . S
C1645 C1646 1.379 . S
C1646 H1630 0.931 . S
C1646 C1640 1.383 . S
C1646 C1645 1.379 . S
H1647 C1641 0.959 . S
H1648 C1641 0.961 . S
H1649 C1641 0.960 . S
H1650 C1642 0.930 . S
H1651 C1643 0.929 . S
H1652 C1660 0.929 . S
H1653 C1662 0.930 . S
H1654 C1664 0.930 . S
H1655 C1667 0.929 . S
H1656 C1670 0.930 . S
H1657 C1672 0.960 . S
H1658 C1672 0.960 . S
H1659 C1672 0.960 . S
C1660 H1652 0.929 . S
C1660 C1661 1.377 . S
C1660 C1662 1.384 . S
C1661 C1660 1.377 . S
C1661 C1667 1.390 . S
C1662 H1653 0.930 . S
C1662 C1660 1.384 . S
C1662 C1663 1.372 . S
C1663 C1662 1.372 . S
C1663 C1664 1.400 . S
C1663 C1668 1.490 . S
C1664 H1654 0.930 . S
C1664 C1663 1.400 . S
C1664 C1667 1.386 . S
H1665 C1681 0.930 . S
H1666 C1682 0.931 . S
C1667 H1655 0.929 . S
C1667 C1661 1.390 . S
C1667 C1664 1.386 . S
C1668 C1663 1.490 . S
C1668 C1670 1.395 . S
C1668 C1671 1.403 . S
H1669 C1675 0.930 . S
C1670 H1656 0.930 . S
C1670 C1668 1.395 . S
C1670 C1673 1.403 . S
C1671 C1668 1.403 . S
C1671 C1672 1.524 . S
C1671 C1675 1.400 . S
C1672 H1657 0.960 . S
C1672 H1658 0.960 . S
C1672 H1659 0.960 . S
C1672 C1671 1.524 . S
C1673 C1670 1.403 . S
C1673 C1674 1.392 . S
C1673 C1677 1.495 . S
C1674 C1673 1.392 . S
C1674 C1675 1.385 . S
C1674 C1676 1.478 . S
C1675 H1669 0.930 . S
C1675 C1671 1.400 . S
C1675 C1674 1.385 . S
C1676 C1674 1.478 . S
C1676 C1678 1.381 . S
C1676 C1682 1.383 . S
C1677 C1673 1.495 . S
C1677 H1683 0.959 . S
C1677 H1684 0.961 . S
C1677 H1685 0.960 . S
C1678 C1676 1.381 . S
C1678 C1679 1.394 . S
C1678 H1686 0.930 . S
C1679 C1678 1.394 . S
C1679 C1680 1.383 . S
C1679 H1687 0.929 . S
C1680 C1679 1.383 . S
C1680 C1681 1.377 . S
C1681 H1665 0.930 . S
C1681 C1680 1.377 . S
C1681 C1682 1.379 . S
C1682 H1666 0.931 . S
C1682 C1676 1.383 . S
C1682 C1681 1.379 . S
H1683 C1677 0.959 . S
H1684 C1677 0.961 . S
H1685 C1677 0.960 . S
H1686 C1678 0.930 . S
H1687 C1679 0.929 . S
H1688 C1696 0.929 . S
H1689 C1698 0.930 . S
H1690 C1700 0.930 . S
H1691 C1703 0.929 . S
H1692 C1706 0.930 . S
H1693 C1708 0.960 . S
H1694 C1708 0.960 . S
H1695 C1708 0.960 . S
C1696 H1688 0.929 . S
C1696 C1697 1.377 . S
C1696 C1698 1.384 . S
C1697 C1696 1.377 . S
C1697 C1703 1.390 . S
C1698 H1689 0.930 . S
C1698 C1696 1.384 . S
C1698 C1699 1.372 . S
C1699 C1698 1.372 . S
C1699 C1700 1.400 . S
C1699 C1704 1.490 . S
C1700 H1690 0.930 . S
C1700 C1699 1.400 . S
C1700 C1703 1.386 . S
H1701 C1717 0.930 . S
H1702 C1718 0.931 . S
C1703 H1691 0.929 . S
C1703 C1697 1.390 . S
C1703 C1700 1.386 . S
C1704 C1699 1.490 . S
C1704 C1706 1.395 . S
C1704 C1707 1.403 . S
H1705 C1711 0.930 . S
C1706 H1692 0.930 . S
C1706 C1704 1.395 . S
C1706 C1709 1.403 . S
C1707 C1704 1.403 . S
C1707 C1708 1.524 . S
C1707 C1711 1.400 . S
C1708 H1693 0.960 . S
C1708 H1694 0.960 . S
C1708 H1695 0.960 . S
C1708 C1707 1.524 . S
C1709 C1706 1.403 . S
C1709 C1710 1.392 . S
C1709 C1713 1.495 . S
C1710 C1709 1.392 . S
C1710 C1711 1.385 . S
C1710 C1712 1.478 . S
C1711 H1705 0.930 . S
C1711 C1707 1.400 . S
C1711 C1710 1.385 . S
C1712 C1710 1.478 . S
C1712 C1714 1.381 . S
C1712 C1718 1.383 . S
C1713 C1709 1.495 . S
C1713 H1719 0.959 . S
C1713 H1720 0.961 . S
C1713 H1721 0.960 . S
C1714 C1712 1.381 . S
C1714 C1715 1.394 . S
C1714 H1722 0.930 . S
C1715 C1714 1.394 . S
C1715 C1716 1.383 . S
C1715 H1723 0.929 . S
C1716 C1715 1.383 . S
C1716 C1717 1.377 . S
C1717 H1701 0.930 . S
C1717 C1716 1.377 . S
C1717 C1718 1.379 . S
C1718 H1702 0.931 . S
C1718 C1712 1.383 . S
C1718 C1717 1.379 . S
H1719 C1713 0.959 . S
H1720 C1713 0.961 . S
H1721 C1713 0.960 . S
H1722 C1714 0.930 . S
H1723 C1715 0.929 . S
H1724 C1732 0.929 . S
H1725 C1734 0.930 . S
H1726 C1736 0.930 . S
H1727 C1739 0.929 . S
H1728 C1742 0.930 . S
H1729 C1744 0.960 . S
H1730 C1744 0.960 . S
H1731 C1744 0.960 . S
C1732 H1724 0.929 . S
C1732 C1733 1.377 . S
C1732 C1734 1.384 . S
C1733 C1732 1.377 . S
C1733 C1739 1.390 . S
C1734 H1725 0.930 . S
C1734 C1732 1.384 . S
C1734 C1735 1.372 . S
C1735 C1734 1.372 . S
C1735 C1736 1.400 . S
C1735 C1740 1.490 . S
C1736 H1726 0.930 . S
C1736 C1735 1.400 . S
C1736 C1739 1.386 . S
H1737 C1753 0.930 . S
H1738 C1754 0.931 . S
C1739 H1727 0.929 . S
C1739 C1733 1.390 . S
C1739 C1736 1.386 . S
C1740 C1735 1.490 . S
C1740 C1742 1.395 . S
C1740 C1743 1.403 . S
H1741 C1747 0.930 . S
C1742 H1728 0.930 . S
C1742 C1740 1.395 . S
C1742 C1745 1.403 . S
C1743 C1740 1.403 . S
C1743 C1744 1.524 . S
C1743 C1747 1.400 . S
C1744 H1729 0.960 . S
C1744 H1730 0.960 . S
C1744 H1731 0.960 . S
C1744 C1743 1.524 . S
C1745 C1742 1.403 . S
C1745 C1746 1.392 . S
C1745 C1749 1.495 . S
C1746 C1745 1.392 . S
C1746 C1747 1.385 . S
C1746 C1748 1.478 . S
C1747 H1741 0.930 . S
C1747 C1743 1.400 . S
C1747 C1746 1.385 . S
C1748 C1746 1.478 . S
C1748 C1750 1.381 . S
C1748 C1754 1.383 . S
C1749 C1745 1.495 . S
C1749 H1755 0.959 . S
C1749 H1756 0.961 . S
C1749 H1757 0.960 . S
C1750 C1748 1.381 . S
C1750 C1751 1.394 . S
C1750 H1758 0.930 . S
C1751 C1750 1.394 . S
C1751 C1752 1.383 . S
C1751 H1759 0.929 . S
C1752 C1751 1.383 . S
C1752 C1753 1.377 . S
C1753 H1737 0.930 . S
C1753 C1752 1.377 . S
C1753 C1754 1.379 . S
C1754 H1738 0.931 . S
C1754 C1748 1.383 . S
C1754 C1753 1.379 . S
H1755 C1749 0.959 . S
H1756 C1749 0.961 . S
H1757 C1749 0.960 . S
H1758 C1750 0.930 . S
H1759 C1751 0.929 . S
H1760 C1768 0.929 . S
H1761 C1770 0.930 . S
H1762 C1772 0.930 . S
H1763 C1775 0.929 . S
H1764 C1778 0.930 . S
H1765 C1780 0.960 . S
H1766 C1780 0.960 . S
H1767 C1780 0.960 . S
C1768 H1760 0.929 . S
C1768 C1769 1.377 . S
C1768 C1770 1.384 . S
C1769 C1768 1.377 . S
C1769 C1775 1.390 . S
C1770 H1761 0.930 . S
C1770 C1768 1.384 . S
C1770 C1771 1.372 . S
C1771 C1770 1.372 . S
C1771 C1772 1.400 . S
C1771 C1776 1.490 . S
C1772 H1762 0.930 . S
C1772 C1771 1.400 . S
C1772 C1775 1.386 . S
H1773 C1789 0.930 . S
H1774 C1790 0.931 . S
C1775 H1763 0.929 . S
C1775 C1769 1.390 . S
C1775 C1772 1.386 . S
C1776 C1771 1.490 . S
C1776 C1778 1.395 . S
C1776 C1779 1.403 . S
H1777 C1783 0.930 . S
C1778 H1764 0.930 . S
C1778 C1776 1.395 . S
C1778 C1781 1.403 . S
C1779 C1776 1.403 . S
C1779 C1780 1.524 . S
C1779 C1783 1.400 . S
C1780 H1765 0.960 . S
C1780 H1766 0.960 . S
C1780 H1767 0.960 . S
C1780 C1779 1.524 . S
C1781 C1778 1.403 . S
C1781 C1782 1.392 . S
C1781 C1785 1.495 . S
C1782 C1781 1.392 . S
C1782 C1783 1.385 . S
C1782 C1784 1.478 . S
C1783 H1777 0.930 . S
C1783 C1779 1.400 . S
C1783 C1782 1.385 . S
C1784 C1782 1.478 . S
C1784 C1786 1.381 . S
C1784 C1790 1.383 . S
C1785 C1781 1.495 . S
C1785 H1791 0.959 . S
C1785 H1792 0.961 . S
C1785 H1793 0.960 . S
C1786 C1784 1.381 . S
C1786 C1787 1.394 . S
C1786 H1794 0.930 . S
C1787 C1786 1.394 . S
C1787 C1788 1.383 . S
C1787 H1795 0.929 . S
C1788 C1787 1.383 . S
C1788 C1789 1.377 . S
C1789 H1773 0.930 . S
C1789 C1788 1.377 . S
C1789 C1790 1.379 . S
C1790 H1774 0.931 . S
C1790 C1784 1.383 . S
C1790 C1789 1.379 . S
H1791 C1785 0.959 . S
H1792 C1785 0.961 . S
H1793 C1785 0.960 . S
H1794 C1786 0.930 . S
H1795 C1787 0.929 . S
H1796 C1804 0.929 . S
H1797 C1806 0.930 . S
H1798 C1808 0.930 . S
H1799 C1811 0.929 . S
H1800 C1814 0.930 . S
H1801 C1816 0.960 . S
H1802 C1816 0.960 . S
H1803 C1816 0.960 . S
C1804 H1796 0.929 . S
C1804 C1805 1.377 . S
C1804 C1806 1.384 . S
C1805 C1804 1.377 . S
C1805 C1811 1.390 . S
C1806 H1797 0.930 . S
C1806 C1804 1.384 . S
C1806 C1807 1.372 . S
C1807 C1806 1.372 . S
C1807 C1808 1.400 . S
C1807 C1812 1.490 . S
C1808 H1798 0.930 . S
C1808 C1807 1.400 . S
C1808 C1811 1.386 . S
H1809 C1825 0.930 . S
H1810 C1826 0.931 . S
C1811 H1799 0.929 . S
C1811 C1805 1.390 . S
C1811 C1808 1.386 . S
C1812 C1807 1.490 . S
C1812 C1814 1.395 . S
C1812 C1815 1.403 . S
H1813 C1819 0.930 . S
C1814 H1800 0.930 . S
C1814 C1812 1.395 . S
C1814 C1817 1.403 . S
C1815 C1812 1.403 . S
C1815 C1816 1.524 . S
C1815 C1819 1.400 . S
C1816 H1801 0.960 . S
C1816 H1802 0.960 . S
C1816 H1803 0.960 . S
C1816 C1815 1.524 . S
C1817 C1814 1.403 . S
C1817 C1818 1.392 . S
C1817 C1821 1.495 . S
C1818 C1817 1.392 . S
C1818 C1819 1.385 . S
C1818 C1820 1.478 . S
C1819 H1813 0.930 . S
C1819 C1815 1.400 . S
C1819 C1818 1.385 . S
C1820 C1818 1.478 . S
C1820 C1822 1.381 . S
C1820 C1826 1.383 . S
C1821 C1817 1.495 . S
C1821 H1827 0.959 . S
C1821 H1828 0.961 . S
C1821 H1829 0.960 . S
C1822 C1820 1.381 . S
C1822 C1823 1.394 . S
C1822 H1830 0.930 . S
C1823 C1822 1.394 . S
C1823 C1824 1.383 . S
C1823 H1831 0.929 . S
C1824 C1823 1.383 . S
C1824 C1825 1.377 . S
C1825 H1809 0.930 . S
C1825 C1824 1.377 . S
C1825 C1826 1.379 . S
C1826 H1810 0.931 . S
C1826 C1820 1.383 . S
C1826 C1825 1.379 . S
H1827 C1821 0.959 . S
H1828 C1821 0.961 . S
H1829 C1821 0.960 . S
H1830 C1822 0.930 . S
H1831 C1823 0.929 . S
H1832 C1840 0.929 . S
H1833 C1842 0.930 . S
H1834 C1844 0.930 . S
H1835 C1847 0.929 . S
H1836 C1850 0.930 . S
H1837 C1852 0.960 . S
H1838 C1852 0.960 . S
H1839 C1852 0.960 . S
C1840 H1832 0.929 . S
C1840 C1841 1.377 . S
C1840 C1842 1.384 . S
C1841 C1840 1.377 . S
C1841 C1847 1.390 . S
C1842 H1833 0.930 . S
C1842 C1840 1.384 . S
C1842 C1843 1.372 . S
C1843 C1842 1.372 . S
C1843 C1844 1.400 . S
C1843 C1848 1.490 . S
C1844 H1834 0.930 . S
C1844 C1843 1.400 . S
C1844 C1847 1.386 . S
H1845 C1861 0.930 . S
H1846 C1862 0.931 . S
C1847 H1835 0.929 . S
C1847 C1841 1.390 . S
C1847 C1844 1.386 . S
C1848 C1843 1.490 . S
C1848 C1850 1.395 . S
C1848 C1851 1.403 . S
H1849 C1855 0.930 . S
C1850 H1836 0.930 . S
C1850 C1848 1.395 . S
C1850 C1853 1.403 . S
C1851 C1848 1.403 . S
C1851 C1852 1.524 . S
C1851 C1855 1.400 . S
C1852 H1837 0.960 . S
C1852 H1838 0.960 . S
C1852 H1839 0.960 . S
C1852 C1851 1.524 . S
C1853 C1850 1.403 . S
C1853 C1854 1.392 . S
C1853 C1857 1.495 . S
C1854 C1853 1.392 . S
C1854 C1855 1.385 . S
C1854 C1856 1.478 . S
C1855 H1849 0.930 . S
C1855 C1851 1.400 . S
C1855 C1854 1.385 . S
C1856 C1854 1.478 . S
C1856 C1858 1.381 . S
C1856 C1862 1.383 . S
C1857 C1853 1.495 . S
C1857 H1863 0.959 . S
C1857 H1864 0.961 . S
C1857 H1865 0.960 . S
C1858 C1856 1.381 . S
C1858 C1859 1.394 . S
C1858 H1866 0.930 . S
C1859 C1858 1.394 . S
C1859 C1860 1.383 . S
C1859 H1867 0.929 . S
C1860 C1859 1.383 . S
C1860 C1861 1.377 . S
C1861 H1845 0.930 . S
C1861 C1860 1.377 . S
C1861 C1862 1.379 . S
C1862 H1846 0.931 . S
C1862 C1856 1.383 . S
C1862 C1861 1.379 . S
H1863 C1857 0.959 . S
H1864 C1857 0.961 . S
H1865 C1857 0.960 . S
H1866 C1858 0.930 . S
H1867 C1859 0.929 . S
H1868 C1876 0.929 . S
H1869 C1878 0.930 . S
H1870 C1880 0.930 . S
H1871 C1883 0.929 . S
H1872 C1886 0.930 . S
H1873 C1888 0.960 . S
H1874 C1888 0.960 . S
H1875 C1888 0.960 . S
C1876 H1868 0.929 . S
C1876 C1877 1.377 . S
C1876 C1878 1.384 . S
C1877 C1876 1.377 . S
C1877 C1883 1.390 . S
C1878 H1869 0.930 . S
C1878 C1876 1.384 . S
C1878 C1879 1.372 . S
C1879 C1878 1.372 . S
C1879 C1880 1.400 . S
C1879 C1884 1.490 . S
C1880 H1870 0.930 . S
C1880 C1879 1.400 . S
C1880 C1883 1.386 . S
H1881 C1897 0.930 . S
H1882 C1898 0.931 . S
C1883 H1871 0.929 . S
C1883 C1877 1.390 . S
C1883 C1880 1.386 . S
C1884 C1879 1.490 . S
C1884 C1886 1.395 . S
C1884 C1887 1.403 . S
H1885 C1891 0.930 . S
C1886 H1872 0.930 . S
C1886 C1884 1.395 . S
C1886 C1889 1.403 . S
C1887 C1884 1.403 . S
C1887 C1888 1.524 . S
C1887 C1891 1.400 . S
C1888 H1873 0.960 . S
C1888 H1874 0.960 . S
C1888 H1875 0.960 . S
C1888 C1887 1.524 . S
C1889 C1886 1.403 . S
C1889 C1890 1.392 . S
C1889 C1893 1.495 . S
C1890 C1889 1.392 . S
C1890 C1891 1.385 . S
C1890 C1892 1.478 . S
C1891 H1885 0.930 . S
C1891 C1887 1.400 . S
C1891 C1890 1.385 . S
C1892 C1890 1.478 . S
C1892 C1894 1.381 . S
C1892 C1898 1.383 . S
C1893 C1889 1.495 . S
C1893 H1899 0.959 . S
C1893 H1900 0.961 . S
C1893 H1901 0.960 . S
C1894 C1892 1.381 . S
C1894 C1895 1.394 . S
C1894 H1902 0.930 . S
C1895 C1894 1.394 . S
C1895 C1896 1.383 . S
C1895 H1903 0.929 . S
C1896 C1895 1.383 . S
C1896 C1897 1.377 . S
C1897 H1881 0.930 . S
C1897 C1896 1.377 . S
C1897 C1898 1.379 . S
C1898 H1882 0.931 . S
C1898 C1892 1.383 . S
C1898 C1897 1.379 . S
H1899 C1893 0.959 . S
H1900 C1893 0.961 . S
H1901 C1893 0.960 . S
H1902 C1894 0.930 . S
H1903 C1895 0.929 . S
H1904 C1912 0.929 . S
H1905 C1914 0.930 . S
H1906 C1916 0.930 . S
H1907 C1919 0.929 . S
H1908 C1922 0.930 . S
H1909 C1924 0.960 . S
H1910 C1924 0.960 . S
H1911 C1924 0.960 . S
C1912 H1904 0.929 . S
C1912 C1913 1.377 . S
C1912 C1914 1.384 . S
C1913 C1912 1.377 . S
C1913 C1919 1.390 . S
C1914 H1905 0.930 . S
C1914 C1912 1.384 . S
C1914 C1915 1.372 . S
C1915 C1914 1.372 . S
C1915 C1916 1.400 . S
C1915 C1920 1.490 . S
C1916 H1906 0.930 . S
C1916 C1915 1.400 . S
C1916 C1919 1.386 . S
H1917 C1933 0.930 . S
H1918 C1934 0.931 . S
C1919 H1907 0.929 . S
C1919 C1913 1.390 . S
C1919 C1916 1.386 . S
C1920 C1915 1.490 . S
C1920 C1922 1.395 . S
C1920 C1923 1.403 . S
H1921 C1927 0.930 . S
C1922 H1908 0.930 . S
C1922 C1920 1.395 . S
C1922 C1925 1.403 . S
C1923 C1920 1.403 . S
C1923 C1924 1.524 . S
C1923 C1927 1.400 . S
C1924 H1909 0.960 . S
C1924 H1910 0.960 . S
C1924 H1911 0.960 . S
C1924 C1923 1.524 . S
C1925 C1922 1.403 . S
C1925 C1926 1.392 . S
C1925 C1929 1.495 . S
C1926 C1925 1.392 . S
C1926 C1927 1.385 . S
C1926 C1928 1.478 . S
C1927 H1921 0.930 . S
C1927 C1923 1.400 . S
C1927 C1926 1.385 . S
C1928 C1926 1.478 . S
C1928 C1930 1.381 . S
C1928 C1934 1.383 . S
C1929 C1925 1.495 . S
C1929 H1935 0.959 . S
C1929 H1936 0.961 . S
C1929 H1937 0.960 . S
C1930 C1928 1.381 . S
C1930 C1931 1.394 . S
C1930 H1938 0.930 . S
C1931 C1930 1.394 . S
C1931 C1932 1.383 . S
C1931 H1939 0.929 . S
C1932 C1931 1.383 . S
C1932 C1933 1.377 . S
C1933 H1917 0.930 . S
C1933 C1932 1.377 . S
C1933 C1934 1.379 . S
C1934 H1918 0.931 . S
C1934 C1928 1.383 . S
C1934 C1933 1.379 . S
H1935 C1929 0.959 . S
H1936 C1929 0.961 . S
H1937 C1929 0.960 . S
H1938 C1930 0.930 . S
H1939 C1931 0.929 . S
H1940 C1948 0.929 . S
H1941 C1950 0.930 . S
H1942 C1952 0.930 . S
H1943 C1955 0.929 . S
H1944 C1958 0.930 . S
H1945 C1960 0.960 . S
H1946 C1960 0.960 . S
H1947 C1960 0.960 . S
C1948 H1940 0.929 . S
C1948 C1949 1.377 . S
C1948 C1950 1.384 . S
C1949 C1948 1.377 . S
C1949 C1955 1.390 . S
C1950 H1941 0.930 . S
C1950 C1948 1.384 . S
C1950 C1951 1.372 . S
C1951 C1950 1.372 . S
C1951 C1952 1.400 . S
C1951 C1956 1.490 . S
C1952 H1942 0.930 . S
C1952 C1951 1.400 . S
C1952 C1955 1.386 . S
H1953 C1969 0.930 . S
H1954 C1970 0.931 . S
C1955 H1943 0.929 . S
C1955 C1949 1.390 . S
C1955 C1952 1.386 . S
C1956 C1951 1.490 . S
C1956 C1958 1.395 . S
C1956 C1959 1.403 . S
H1957 C1963 0.930 . S
C1958 H1944 0.930 . S
C1958 C1956 1.395 . S
C1958 C1961 1.403 . S
C1959 C1956 1.403 . S
C1959 C1960 1.524 . S
C1959 C1963 1.400 . S
C1960 H1945 0.960 . S
C1960 H1946 0.960 . S
C1960 H1947 0.960 . S
C1960 C1959 1.524 . S
C1961 C1958 1.403 . S
C1961 C1962 1.392 . S
C1961 C1965 1.495 . S
C1962 C1961 1.392 . S
C1962 C1963 1.385 . S
C1962 C1964 1.478 . S
C1963 H1957 0.930 . S
C1963 C1959 1.400 . S
C1963 C1962 1.385 . S
C1964 C1962 1.478 . S
C1964 C1966 1.381 . S
C1964 C1970 1.383 . S
C1965 C1961 1.495 . S
C1965 H1971 0.959 . S
C1965 H1972 0.961 . S
C1965 H1973 0.960 . S
C1966 C1964 1.381 . S
C1966 C1967 1.394 . S
C1966 H1974 0.930 . S
C1967 C1966 1.394 . S
C1967 C1968 1.383 . S
C1967 H1975 0.929 . S
C1968 C1967 1.383 . S
C1968 C1969 1.377 . S
C1969 H1953 0.930 . S
C1969 C1968 1.377 . S
C1969 C1970 1.379 . S
C1970 H1954 0.931 . S
C1970 C1964 1.383 . S
C1970 C1969 1.379 . S
H1971 C1965 0.959 . S
H1972 C1965 0.961 . S
H1973 C1965 0.960 . S
H1974 C1966 0.930 . S
H1975 C1967 0.929 . S
H1976 C1984 0.929 . S
H1977 C1986 0.930 . S
H1978 C1988 0.930 . S
H1979 C1991 0.929 . S
H1980 C1994 0.930 . S
H1981 C1996 0.960 . S
H1982 C1996 0.960 . S
H1983 C1996 0.960 . S
C1984 H1976 0.929 . S
C1984 C1985 1.377 . S
C1984 C1986 1.384 . S
C1985 C1984 1.377 . S
C1985 C1991 1.390 . S
C1986 H1977 0.930 . S
C1986 C1984 1.384 . S
C1986 C1987 1.372 . S
C1987 C1986 1.372 . S
C1987 C1988 1.400 . S
C1987 C1992 1.490 . S
C1988 H1978 0.930 . S
C1988 C1987 1.400 . S
C1988 C1991 1.386 . S
H1989 C2005 0.930 . S
H1990 C2006 0.931 . S
C1991 H1979 0.929 . S
C1991 C1985 1.390 . S
C1991 C1988 1.386 . S
C1992 C1987 1.490 . S
C1992 C1994 1.395 . S
C1992 C1995 1.403 . S
H1993 C1999 0.930 . S
C1994 H1980 0.930 . S
C1994 C1992 1.395 . S
C1994 C1997 1.403 . S
C1995 C1992 1.403 . S
C1995 C1996 1.524 . S
C1995 C1999 1.400 . S
C1996 H1981 0.960 . S
C1996 H1982 0.960 . S
C1996 H1983 0.960 . S
C1996 C1995 1.524 . S
C1997 C1994 1.403 . S
C1997 C1998 1.392 . S
C1997 C2001 1.495 . S
C1998 C1997 1.392 . S
C1998 C1999 1.385 . S
C1998 C2000 1.478 . S
C1999 H1993 0.930 . S
C1999 C1995 1.400 . S
C1999 C1998 1.385 . S
C2000 C1998 1.478 . S
C2000 C2002 1.381 . S
C2000 C2006 1.383 . S
C2001 C1997 1.495 . S
C2001 H2007 0.959 . S
C2001 H2008 0.961 . S
C2001 H2009 0.960 . S
C2002 C2000 1.381 . S
C2002 C2003 1.394 . S
C2002 H2010 0.930 . S
C2003 C2002 1.394 . S
C2003 C2004 1.383 . S
C2003 H2011 0.929 . S
C2004 C2003 1.383 . S
C2004 C2005 1.377 . S
C2005 H1989 0.930 . S
C2005 C2004 1.377 . S
C2005 C2006 1.379 . S
C2006 H1990 0.931 . S
C2006 C2000 1.383 . S
C2006 C2005 1.379 . S
H2007 C2001 0.959 . S
H2008 C2001 0.961 . S
H2009 C2001 0.960 . S
H2010 C2002 0.930 . S
H2011 C2003 0.929 . S
H2012 C2020 0.929 . S
H2013 C2022 0.930 . S
H2014 C2024 0.930 . S
H2015 C2027 0.929 . S
H2016 C2030 0.930 . S
H2017 C2032 0.960 . S
H2018 C2032 0.960 . S
H2019 C2032 0.960 . S
C2020 H2012 0.929 . S
C2020 C2021 1.377 . S
C2020 C2022 1.384 . S
C2021 C2020 1.377 . S
C2021 C2027 1.390 . S
C2022 H2013 0.930 . S
C2022 C2020 1.384 . S
C2022 C2023 1.372 . S
C2023 C2022 1.372 . S
C2023 C2024 1.400 . S
C2023 C2028 1.490 . S
C2024 H2014 0.930 . S
C2024 C2023 1.400 . S
C2024 C2027 1.386 . S
H2025 C2041 0.930 . S
H2026 C2042 0.931 . S
C2027 H2015 0.929 . S
C2027 C2021 1.390 . S
C2027 C2024 1.386 . S
C2028 C2023 1.490 . S
C2028 C2030 1.395 . S
C2028 C2031 1.403 . S
H2029 C2035 0.930 . S
C2030 H2016 0.930 . S
C2030 C2028 1.395 . S
C2030 C2033 1.403 . S
C2031 C2028 1.403 . S
C2031 C2032 1.524 . S
C2031 C2035 1.400 . S
C2032 H2017 0.960 . S
C2032 H2018 0.960 . S
C2032 H2019 0.960 . S
C2032 C2031 1.524 . S
C2033 C2030 1.403 . S
C2033 C2034 1.392 . S
C2033 C2037 1.495 . S
C2034 C2033 1.392 . S
C2034 C2035 1.385 . S
C2034 C2036 1.478 . S
C2035 H2029 0.930 . S
C2035 C2031 1.400 . S
C2035 C2034 1.385 . S
C2036 C2034 1.478 . S
C2036 C2038 1.381 . S
C2036 C2042 1.383 . S
C2037 C2033 1.495 . S
C2037 H2043 0.959 . S
C2037 H2044 0.961 . S
C2037 H2045 0.960 . S
C2038 C2036 1.381 . S
C2038 C2039 1.394 . S
C2038 H2046 0.930 . S
C2039 C2038 1.394 . S
C2039 C2040 1.383 . S
C2039 H2047 0.929 . S
C2040 C2039 1.383 . S
C2040 C2041 1.377 . S
C2041 H2025 0.930 . S
C2041 C2040 1.377 . S
C2041 C2042 1.379 . S
C2042 H2026 0.931 . S
C2042 C2036 1.383 . S
C2042 C2041 1.379 . S
H2043 C2037 0.959 . S
H2044 C2037 0.961 . S
H2045 C2037 0.960 . S
H2046 C2038 0.930 . S
H2047 C2039 0.929 . S
C329 C62 1.675 . S
C348 C18 1.718 . S
C365 C12 1.433 . S
C384 C22 1.444 . S
C401 C58 0.974 . S
C420 C38 0.985 . S
C437 C72 1.275 . S
C456 C52 1.275 . S
C473 C84 1.509 . S
C492 C104 1.460 . S
C509 C119 0.957 . S
C528 C139 0.959 . S
C545 C129 1.473 . S
C564 C144 1.410 . S
C581 C89 1.460 . S
C600 C159 1.474 . S
C617 C189 1.414 . S
C636 C2 1.300 . S
C653 C204 0.683 . S
C672 C32 0.618 . S
C689 C42 1.183 . S
C708 C269 1.164 . S
C725 C179 0.858 . S
C744 C78 0.868 . S
C761 C238 1.041 . S
C780 C99 1.067 . S
C797 C282 1.396 . S
C816 C109 1.480 . S
C833 C124 0.630 . S
C852 C252 0.585 . S
C869 C309 1.189 . S
C888 C149 1.178 . S
C905 C169 1.453 . S
C924 C279 1.475 . S
C941 C184 1.541 . S
C960 C164 1.546 . S
C977 C219 0.937 . S
C996 C199 0.942 . S
C1013 C298 1.763 . S
C1032 C222 1.684 . S
C1049 C258 0.909 . S
C1068 C319 0.873 . S
C1085 C224 1.671 . S
C1104 C19 1.740 . S
C1121 C244 1.420 . S
C1140 C9 1.393 . S
C1157 C259 0.963 . S
C1176 C59 0.951 . S
C1193 C49 1.241 . S
C1212 C229 1.287 . S
C1229 C182 1.484 . S
C1248 C82 1.500 . S
C1265 C198 0.960 . S
C1284 C138 0.925 . S
C1301 C262 1.415 . S
C1320 C132 1.464 . S
C1337 C92 1.470 . S
C1356 C278 1.451 . S
C1373 C112 1.425 . S
C1392 C4 1.323 . S
C1409 C202 0.687 . S
C1428 C249 0.654 . S
C1445 C44 1.193 . S
C1464 C152 1.196 . S
C1481 C178 0.852 . S
C1500 C239 0.847 . S
C1517 C79 1.037 . S
C1536 C98 1.033 . S
C1553 C192 1.461 . S
C1572 C284 1.418 . S
C1589 C122 0.652 . S
C1608 C29 0.614 . S
C1625 C312 1.184 . S
C1644 C272 1.189 . S
C1661 C172 1.451 . S
C1680 C158 1.441 . S
C1697 C162 1.556 . S
C1716 C102 1.522 . S
C1733 C218 0.929 . S
C1752 C118 0.962 . S
C1769 C64 1.719 . S
C1788 C299 1.772 . S
C1805 C39 0.919 . S
C1824 C318 0.874 . S
C1841 C242 1.177 . S
C1860 C292 1.210 . S
C1877 C232 1.384 . S
C1896 C304 1.345 . S
C1913 C209 1.426 . S
C1932 C264 1.326 . S
C1949 C289 1.200 . S
C1968 C24 1.166 . S
C1985 C69 1.383 . S
C2004 C302 1.287 . S
C2021 C142 1.352 . S
C2040 C212 1.413 . S
