# Generated by pormake.
# Topology wjd, (6)-cn, num edge types: 1
# Building blocks:
#     Node 0, Type 0, BuildingBlock: GEDQOX_clean_sbu_0, # of connection points: 6
#     Node 1, Type 0, BuildingBlock: GEDQOX_clean_sbu_0, # of connection points: 6
#     Node 2, Type 0, BuildingBlock: GEDQOX_clean_sbu_0, # of connection points: 6
#     Node 3, Type 0, BuildingBlock: GEDQOX_clean_sbu_0, # of connection points: 6
#     Node 4, Type 0, BuildingBlock: GEDQOX_clean_sbu_0, # of connection points: 6
#     Node 5, Type 0, BuildingBlock: GEDQOX_clean_sbu_0, # of connection points: 6
#     Node 6, Type 0, BuildingBlock: GEDQOX_clean_sbu_0, # of connection points: 6
#     Node 7, Type 0, BuildingBlock: GEDQOX_clean_sbu_0, # of connection points: 6
#     Node 8, Type 0, BuildingBlock: GEDQOX_clean_sbu_0, # of connection points: 6
#     Node 9, Type 0, BuildingBlock: GEDQOX_clean_sbu_0, # of connection points: 6
#     Node 10, Type 0, BuildingBlock: GEDQOX_clean_sbu_0, # of connection points: 6
#     Node 11, Type 0, BuildingBlock: GEDQOX_clean_sbu_0, # of connection points: 6
#     Edge 12, Type (0, 0), BuildingBlock: MIFKUJ_clean_linker_0, # of connection points: 2
#     Edge 13, Type (0, 0), BuildingBlock: MIFKUJ_clean_linker_0, # of connection points: 2
#     Edge 14, Type (0, 0), BuildingBlock: MIFKUJ_clean_linker_0, # of connection points: 2
#     Edge 15, Type (0, 0), BuildingBlock: MIFKUJ_clean_linker_0, # of connection points: 2
#     Edge 16, Type (0, 0), BuildingBlock: MIFKUJ_clean_linker_0, # of connection points: 2
#     Edge 17, Type (0, 0), BuildingBlock: MIFKUJ_clean_linker_0, # of connection points: 2
#     Edge 18, Type (0, 0), BuildingBlock: MIFKUJ_clean_linker_0, # of connection points: 2
#     Edge 19, Type (0, 0), BuildingBlock: MIFKUJ_clean_linker_0, # of connection points: 2
#     Edge 20, Type (0, 0), BuildingBlock: MIFKUJ_clean_linker_0, # of connection points: 2
#     Edge 21, Type (0, 0), BuildingBlock: MIFKUJ_clean_linker_0, # of connection points: 2
#     Edge 22, Type (0, 0), BuildingBlock: MIFKUJ_clean_linker_0, # of connection points: 2
#     Edge 23, Type (0, 0), BuildingBlock: MIFKUJ_clean_linker_0, # of connection points: 2
#     Edge 24, Type (0, 0), BuildingBlock: MIFKUJ_clean_linker_0, # of connection points: 2
#     Edge 25, Type (0, 0), BuildingBlock: MIFKUJ_clean_linker_0, # of connection points: 2
#     Edge 26, Type (0, 0), BuildingBlock: MIFKUJ_clean_linker_0, # of connection points: 2
#     Edge 27, Type (0, 0), BuildingBlock: MIFKUJ_clean_linker_0, # of connection points: 2
#     Edge 28, Type (0, 0), BuildingBlock: MIFKUJ_clean_linker_0, # of connection points: 2
#     Edge 29, Type (0, 0), BuildingBlock: MIFKUJ_clean_linker_0, # of connection points: 2
#     Edge 30, Type (0, 0), BuildingBlock: MIFKUJ_clean_linker_0, # of connection points: 2
#     Edge 31, Type (0, 0), BuildingBlock: MIFKUJ_clean_linker_0, # of connection points: 2
#     Edge 32, Type (0, 0), BuildingBlock: MIFKUJ_clean_linker_0, # of connection points: 2
#     Edge 33, Type (0, 0), BuildingBlock: MIFKUJ_clean_linker_0, # of connection points: 2
#     Edge 34, Type (0, 0), BuildingBlock: MIFKUJ_clean_linker_0, # of connection points: 2
#     Edge 35, Type (0, 0), BuildingBlock: MIFKUJ_clean_linker_0, # of connection points: 2
#     Edge 36, Type (0, 0), BuildingBlock: MIFKUJ_clean_linker_0, # of connection points: 2
#     Edge 37, Type (0, 0), BuildingBlock: MIFKUJ_clean_linker_0, # of connection points: 2
#     Edge 38, Type (0, 0), BuildingBlock: MIFKUJ_clean_linker_0, # of connection points: 2
#     Edge 39, Type (0, 0), BuildingBlock: MIFKUJ_clean_linker_0, # of connection points: 2
#     Edge 40, Type (0, 0), BuildingBlock: MIFKUJ_clean_linker_0, # of connection points: 2
#     Edge 41, Type (0, 0), BuildingBlock: MIFKUJ_clean_linker_0, # of connection points: 2
#     Edge 42, Type (0, 0), BuildingBlock: MIFKUJ_clean_linker_0, # of connection points: 2
#     Edge 43, Type (0, 0), BuildingBlock: MIFKUJ_clean_linker_0, # of connection points: 2
#     Edge 44, Type (0, 0), BuildingBlock: MIFKUJ_clean_linker_0, # of connection points: 2
#     Edge 45, Type (0, 0), BuildingBlock: MIFKUJ_clean_linker_0, # of connection points: 2
#     Edge 46, Type (0, 0), BuildingBlock: MIFKUJ_clean_linker_0, # of connection points: 2
#     Edge 47, Type (0, 0), BuildingBlock: MIFKUJ_clean_linker_0, # of connection points: 2
# Relax obj value: 0.094
# Max RMSD: 0.206
# Mean RMSD: 0.206
data_MOF--net-wjd--node1-GEDQOX_clean_sbu_0--edge1-MIFKUJ_clean_linker_0
_symmetry_space_group_name_H-M    P1
_symmetry_Int_Tables_number       1
_symmetry_cell_setting            triclinic
loop_
_symmetry_equiv_pos_as_xyz
'x, y, z'
_cell_length_a     49.448963
_cell_length_b     49.545688
_cell_length_c     70.549154
_cell_angle_alpha  90.018396
_cell_angle_beta   90.121024
_cell_angle_gamma 120.0102
loop_
_atom_site_label
_atom_site_type_symbol
_atom_site_fract_x
_atom_site_fract_y
_atom_site_fract_z
_atom_type_partial_charge
Nd0 Nd 0.37974 0.12323 0.13121 0.0
Nd1 Nd 0.3294 0.14675 0.12002 0.0
C2 C 0.42233 0.11465 0.14875 0.0
C3 C 0.45479 0.12195 0.14506 0.0
C4 C 0.4697 0.11174 0.1577 0.0
C5 C 0.50075 0.11929 0.15472 0.0
C6 C 0.5177 0.1373 0.13898 0.0
C7 C 0.50251 0.14738 0.12627 0.0
C8 C 0.47142 0.13979 0.12928 0.0
C9 C 0.36373 0.11338 0.09292 0.0
C10 C 0.40518 0.19774 0.12019 0.0
C11 C 0.28915 0.15931 0.10295 0.0
C12 C 0.27003 0.17402 0.10678 0.0
C13 C 0.25778 0.18264 0.09152 0.0
C14 C 0.23724 0.19392 0.09467 0.0
C15 C 0.2284 0.19681 0.1132 0.0
C16 C 0.24156 0.18905 0.12852 0.0
C17 C 0.26213 0.17772 0.12534 0.0
C18 C 0.33969 0.14845 0.15899 0.0
C19 C 0.30466 0.07393 0.13054 0.0
O20 O 0.41849 0.13858 0.1519 0.0
O21 O 0.40042 0.09348 0.13789 0.0
O22 O 0.38399 0.10763 0.10095 0.0
O23 O 0.35547 0.12664 0.10505 0.0
O24 O 0.41155 0.176 0.12593 0.0
O25 O 0.37654 0.19187 0.11604 0.0
O26 O 0.28106 0.13321 0.11191 0.0
O27 O 0.31951 0.17755 0.10179 0.0
O28 O 0.3214 0.15711 0.1512 0.0
O29 O 0.3512 0.14018 0.14593 0.0
O30 O 0.30157 0.09365 0.11935 0.0
O31 O 0.33143 0.08105 0.13916 0.0
H32 H 0.45739 0.09814 0.17004 0.0
H33 H 0.51164 0.11146 0.16498 0.0
H34 H 0.51454 0.16093 0.11388 0.0
H35 H 0.46037 0.14795 0.11933 0.0
H36 H 0.26358 0.18001 0.07709 0.0
H37 H 0.22807 0.20014 0.08253 0.0
H38 H 0.23514 0.1907 0.14296 0.0
H39 H 0.27125 0.17113 0.13734 0.0
Nd40 Nd 0.84227 0.70491 0.40308 0.0
Nd41 Nd 0.77126 0.65617 0.39208 0.0
C42 C 0.89573 0.74571 0.41934 0.0
C43 C 0.92794 0.76907 0.41365 0.0
C44 C 0.94387 0.79733 0.42358 0.0
C45 C 0.97471 0.81939 0.41893 0.0
C46 C 0.99049 0.81368 0.40424 0.0
C47 C 0.97419 0.78547 0.39408 0.0
C48 C 0.94326 0.76344 0.39871 0.0
C49 C 0.83573 0.69606 0.36388 0.0
C50 C 0.79551 0.72976 0.3901 0.0
C51 C 0.71873 0.60957 0.3779 0.0
C52 C 0.69666 0.57596 0.38156 0.0
C53 C 0.68716 0.5545 0.36653 0.0
C54 C 0.66524 0.52293 0.36944 0.0
C55 C 0.6521 0.51201 0.38747 0.0
C56 C 0.66195 0.53352 0.40256 0.0
C57 C 0.68402 0.56506 0.39967 0.0
C58 C 0.77845 0.68238 0.42733 0.0
C59 C 0.81858 0.6301 0.40569 0.0
O60 O 0.87363 0.75199 0.41523 0.0
O61 O 0.8871 0.7163 0.41679 0.0
O62 O 0.86198 0.71492 0.37212 0.0
O63 O 0.81546 0.6836 0.37651 0.0
O64 O 0.81734 0.73298 0.40221 0.0
O65 O 0.77807 0.70325 0.38068 0.0
O66 O 0.74642 0.61722 0.37141 0.0
O67 O 0.71959 0.62962 0.3903 0.0
O68 O 0.75366 0.67204 0.41683 0.0
O69 O 0.79773 0.67517 0.42016 0.0
O70 O 0.79011 0.62359 0.40067 0.0
O71 O 0.84173 0.65896 0.40816 0.0
H72 H 0.93249 0.8023 0.43507 0.0
H73 H 0.98613 0.84102 0.42684 0.0
H74 H 0.98553 0.78004 0.3828 0.0
H75 H 0.93146 0.74187 0.39074 0.0
H76 H 0.6964 0.56226 0.35242 0.0
H77 H 0.65803 0.50719 0.35744 0.0
H78 H 0.65271 0.52595 0.41669 0.0
H79 H 0.69096 0.58094 0.4116 0.0
Nd80 Nd 0.916 0.26779 0.13139 0.0
Nd81 Nd 0.89489 0.1941 0.12073 0.0
C82 C 0.92263 0.31796 0.14897 0.0
C83 C 0.91326 0.34175 0.14564 0.0
C84 C 0.90114 0.35105 0.16065 0.0
C85 C 0.89177 0.3732 0.1578 0.0
C86 C 0.89439 0.38672 0.13985 0.0
C87 C 0.90648 0.37726 0.1248 0.0
C88 C 0.91568 0.35496 0.12764 0.0
C89 C 0.92247 0.26024 0.09292 0.0
C90 C 0.84147 0.21568 0.12149 0.0
C91 C 0.88386 0.14134 0.10444 0.0
C92 C 0.87032 0.10784 0.10872 0.0
C93 C 0.87088 0.08802 0.09475 0.0
C94 C 0.86042 0.05666 0.09878 0.0
C95 C 0.84916 0.04434 0.11692 0.0
C96 C 0.84787 0.06416 0.13079 0.0
C97 C 0.85847 0.09567 0.12674 0.0
C98 C 0.89642 0.20471 0.15968 0.0
C99 C 0.96852 0.24716 0.12644 0.0
O100 O 0.90003 0.28968 0.15277 0.0
O101 O 0.94399 0.31834 0.13776 0.0
O102 O 0.92849 0.2865 0.1007 0.0
O103 O 0.91049 0.23936 0.10551 0.0
O104 O 0.8627 0.24441 0.12665 0.0
O105 O 0.84817 0.1934 0.11774 0.0
O106 O 0.91 0.16033 0.11318 0.0
O107 O 0.86464 0.15232 0.10319 0.0
O108 O 0.88791 0.17753 0.15238 0.0
O109 O 0.90306 0.22348 0.14625 0.0
O110 O 0.94769 0.22311 0.11637 0.0
O111 O 0.96088 0.26485 0.1368 0.0
H112 H 0.89895 0.34117 0.17464 0.0
H113 H 0.88291 0.38008 0.16977 0.0
H114 H 0.90843 0.38678 0.11073 0.0
H115 H 0.92457 0.34799 0.11572 0.0
H116 H 0.87992 0.09693 0.08076 0.0
H117 H 0.86127 0.04205 0.08765 0.0
H118 H 0.83955 0.05556 0.14493 0.0
H119 H 0.85799 0.11065 0.13776 0.0
Nd120 Nd 0.33027 0.14227 0.40232 0.0
Nd121 Nd 0.37524 0.11575 0.39096 0.0
C122 C 0.29235 0.1578 0.41968 0.0
C123 C 0.26869 0.16686 0.41537 0.0
C124 C 0.25834 0.17876 0.42991 0.0
C125 C 0.23639 0.1881 0.42621 0.0
C126 C 0.22423 0.18578 0.40783 0.0
C127 C 0.2346 0.17365 0.39326 0.0
C128 C 0.25667 0.16436 0.39699 0.0
C129 C 0.33843 0.14435 0.36301 0.0
C130 C 0.30082 0.06985 0.38893 0.0
C131 C 0.42013 0.10611 0.37781 0.0
C132 C 0.45402 0.11735 0.38107 0.0
C133 C 0.47756 0.14431 0.37215 0.0
C134 C 0.50927 0.15368 0.37473 0.0
C135 C 0.51837 0.1363 0.38625 0.0
C136 C 0.49474 0.1095 0.39526 0.0
C137 C 0.46312 0.10012 0.39264 0.0
C138 C 0.34929 0.09867 0.42639 0.0
C139 C 0.40594 0.18999 0.4042 0.0
O140 O 0.28493 0.12895 0.4161 0.0
O141 O 0.32125 0.17789 0.4152 0.0
O142 O 0.32149 0.15391 0.37148 0.0
O143 O 0.34972 0.1349 0.3755 0.0
O144 O 0.29888 0.08936 0.4009 0.0
O145 O 0.32707 0.07731 0.37964 0.0
O146 O 0.41219 0.12492 0.36967 0.0
O147 O 0.40084 0.08963 0.39131 0.0
O148 O 0.35641 0.08203 0.41557 0.0
O149 O 0.35871 0.12558 0.4192 0.0
O150 O 0.41036 0.16729 0.39797 0.0
O151 O 0.3779 0.18558 0.40817 0.0
H152 H 0.26728 0.18085 0.44419 0.0
H153 H 0.22866 0.19681 0.43785 0.0
H154 H 0.22603 0.17179 0.37891 0.0
H155 H 0.26447 0.15538 0.38553 0.0
H156 H 0.47151 0.15803 0.36298 0.0
H157 H 0.52662 0.1742 0.36733 0.0
H158 H 0.5006 0.09571 0.40448 0.0
H159 H 0.44573 0.07912 0.39964 0.0
Nd160 Nd 0.77312 0.66316 0.13194 0.0
Nd161 Nd 0.84549 0.70545 0.12174 0.0
C162 C 0.71586 0.61919 0.14145 0.0
C163 C 0.69621 0.58477 0.14262 0.0
C164 C 0.66922 0.57151 0.15383 0.0
C165 C 0.64757 0.53949 0.15279 0.0
C166 C 0.65228 0.51989 0.14038 0.0
C167 C 0.68013 0.53313 0.12976 0.0
C168 C 0.70182 0.56516 0.13087 0.0
C169 C 0.78549 0.69385 0.098 0.0
C170 C 0.81534 0.63025 0.12007 0.0
C171 C 0.9002 0.7422 0.10552 0.0
C172 C 0.93263 0.76652 0.11045 0.0
C173 C 0.94621 0.79558 0.10135 0.0
C174 C 0.97735 0.81826 0.10494 0.0
C175 C 0.99578 0.81236 0.11764 0.0
C176 C 0.98205 0.78331 0.12687 0.0
C177 C 0.95084 0.76069 0.12337 0.0
C178 C 0.83794 0.69432 0.16065 0.0
C179 C 0.80541 0.73811 0.1369 0.0
O180 O 0.73815 0.63391 0.15402 0.0
O181 O 0.72411 0.63051 0.12435 0.0
O182 O 0.76282 0.689 0.10922 0.0
O183 O 0.80069 0.68109 0.1042 0.0
O184 O 0.78972 0.6273 0.12794 0.0
O185 O 0.83817 0.65739 0.11415 0.0
O186 O 0.87824 0.74958 0.10688 0.0
O187 O 0.89095 0.71362 0.11098 0.0
O188 O 0.86485 0.71138 0.15266 0.0
O189 O 0.8175 0.68454 0.14792 0.0
O190 O 0.82829 0.74009 0.12617 0.0
O191 O 0.78294 0.71101 0.14372 0.0
H192 H 0.66429 0.58613 0.16295 0.0
H193 H 0.62685 0.5302 0.16152 0.0
H194 H 0.68463 0.51904 0.11995 0.0
H195 H 0.7224 0.57482 0.12198 0.0
H196 H 0.93283 0.80062 0.09122 0.0
H197 H 0.98719 0.8402 0.09741 0.0
H198 H 0.99539 0.7781 0.13693 0.0
H199 H 0.94112 0.73856 0.13067 0.0
Nd200 Nd 0.89291 0.19009 0.40023 0.0
Nd201 Nd 0.91753 0.2653 0.3921 0.0
C202 C 0.87867 0.13562 0.41528 0.0
C203 C 0.87029 0.10362 0.40928 0.0
C204 C 0.88987 0.09176 0.41423 0.0
C205 C 0.88165 0.06109 0.40966 0.0
C206 C 0.85348 0.04134 0.40011 0.0
C207 C 0.83414 0.05344 0.39486 0.0
C208 C 0.84243 0.08418 0.39938 0.0
C209 C 0.89203 0.20247 0.3619 0.0
C210 C 0.96662 0.23874 0.38959 0.0
C211 C 0.92608 0.31795 0.37699 0.0
C212 C 0.91674 0.34176 0.381 0.0
C213 C 0.88907 0.33872 0.37326 0.0
C214 C 0.88053 0.36135 0.37665 0.0
C215 C 0.89947 0.38782 0.3878 0.0
C216 C 0.92718 0.39089 0.3955 0.0
C217 C 0.93573 0.36823 0.39211 0.0
C218 C 0.92521 0.25399 0.42986 0.0
C219 C 0.84302 0.21627 0.40291 0.0
O220 O 0.90747 0.15788 0.41235 0.0
O221 O 0.85812 0.14453 0.4123 0.0
O222 O 0.88286 0.17475 0.36857 0.0
O223 O 0.9004 0.22111 0.37564 0.0
O224 O 0.94592 0.21257 0.39797 0.0
O225 O 0.96054 0.26082 0.38386 0.0
O226 O 0.90401 0.29029 0.37152 0.0
O227 O 0.94634 0.31665 0.38846 0.0
O228 O 0.93219 0.28125 0.42334 0.0
O229 O 0.91234 0.23454 0.41663 0.0
O230 O 0.86461 0.24427 0.39697 0.0
O231 O 0.84911 0.19363 0.40682 0.0
H232 H 0.91145 0.10616 0.42187 0.0
H233 H 0.8974 0.05282 0.41368 0.0
H234 H 0.81212 0.03888 0.3877 0.0
H235 H 0.82672 0.0925 0.39538 0.0
H236 H 0.87403 0.3189 0.36443 0.0
H237 H 0.85932 0.35834 0.37018 0.0
H238 H 0.94224 0.41071 0.40432 0.0
H239 H 0.95731 0.37154 0.3982 0.0
Nd240 Nd 0.15128 0.32357 0.62051 0.0
Nd241 Nd 0.12959 0.37208 0.63148 0.0
C242 C 0.16327 0.2827 0.60378 0.0
C243 C 0.17174 0.25887 0.60901 0.0
C244 C 0.19307 0.25525 0.59775 0.0
C245 C 0.20131 0.23274 0.60223 0.0
C246 C 0.18826 0.21315 0.61806 0.0
C247 C 0.16691 0.21692 0.62937 0.0
C248 C 0.15887 0.23965 0.62495 0.0
C249 C 0.1553 0.33305 0.65969 0.0
C250 C 0.08094 0.29876 0.636 0.0
C251 C 0.12438 0.41924 0.64527 0.0
C252 C 0.13636 0.45301 0.64188 0.0
C253 C 0.16851 0.47502 0.64127 0.0
C254 C 0.17886 0.50682 0.6384 0.0
C255 C 0.15732 0.51733 0.63594 0.0
C256 C 0.12523 0.49515 0.63655 0.0
C257 C 0.11495 0.46352 0.63951 0.0
C258 C 0.10797 0.34407 0.59676 0.0
C259 C 0.20263 0.39841 0.61759 0.0
O260 O 0.13505 0.27685 0.60796 0.0
O261 O 0.1845 0.31184 0.60669 0.0
O262 O 0.16239 0.31412 0.65132 0.0
O263 O 0.14699 0.34531 0.64717 0.0
O264 O 0.09825 0.29478 0.62331 0.0
O265 O 0.09064 0.32596 0.64464 0.0
O266 O 0.14364 0.41079 0.65215 0.0
O267 O 0.10552 0.39982 0.63247 0.0
O268 O 0.09379 0.35372 0.60795 0.0
O269 O 0.1353 0.35222 0.60311 0.0
O270 O 0.18044 0.40478 0.62204 0.0
O271 O 0.19717 0.36955 0.61578 0.0
H272 H 0.20329 0.26978 0.58538 0.0
H273 H 0.21749 0.2303 0.59306 0.0
H274 H 0.15665 0.20253 0.64178 0.0
H275 H 0.14261 0.24218 0.634 0.0
H276 H 0.18568 0.46772 0.643 0.0
H277 H 0.20373 0.52311 0.63787 0.0
H278 H 0.10791 0.5023 0.63507 0.0
H279 H 0.09007 0.44717 0.64006 0.0
Nd280 Nd 0.2697 0.90129 0.89547 0.0
Nd281 Nd 0.1962 0.87929 0.90614 0.0
C282 C 0.32123 0.9101 0.87844 0.0
C283 C 0.3463 0.9029 0.88251 0.0
C284 C 0.37198 0.91364 0.87032 0.0
C285 C 0.39525 0.90586 0.87355 0.0
C286 C 0.39333 0.88708 0.88908 0.0
C287 C 0.36756 0.87657 0.90137 0.0
C288 C 0.34431 0.88441 0.89812 0.0
C289 C 0.26285 0.90965 0.93397 0.0
C290 C 0.21919 0.82697 0.90581 0.0
C291 C 0.14283 0.86702 0.92211 0.0
C292 C 0.1101 0.8554 0.91639 0.0
C293 C 0.08759 0.84922 0.93031 0.0
C294 C 0.05679 0.83989 0.92519 0.0
C295 C 0.04779 0.8366 0.90598 0.0
C296 C 0.07035 0.84217 0.89204 0.0
C297 C 0.10124 0.85156 0.89721 0.0
C298 C 0.20552 0.87986 0.86705 0.0
C299 C 0.24676 0.95219 0.89797 0.0
O300 O 0.29351 0.88602 0.8752 0.0
O301 O 0.32026 0.93128 0.88911 0.0
O302 O 0.28897 0.91537 0.92616 0.0
O303 O 0.24178 0.89715 0.92148 0.0
O304 O 0.24691 0.84805 0.89915 0.0
O305 O 0.19758 0.8339 0.91105 0.0
O306 O 0.16336 0.89455 0.91567 0.0
O307 O 0.15285 0.84701 0.92171 0.0
O308 O 0.17877 0.87211 0.87471 0.0
O309 O 0.22486 0.88635 0.88026 0.0
O310 O 0.22378 0.93231 0.90899 0.0
O311 O 0.26442 0.94407 0.88799 0.0
H312 H 0.37386 0.92776 0.85812 0.0
H313 H 0.41442 0.91405 0.86362 0.0
H314 H 0.36542 0.86243 0.91359 0.0
H315 H 0.32465 0.87585 0.90771 0.0
H316 H 0.09393 0.85196 0.94519 0.0
H317 H 0.03997 0.83525 0.93633 0.0
H318 H 0.06435 0.84009 0.87714 0.0
H319 H 0.11831 0.85629 0.88623 0.0
Nd320 Nd 0.71299 0.8398 0.62143 0.0
Nd321 Nd 0.66889 0.76762 0.63024 0.0
C322 C 0.75251 0.895 0.60672 0.0
C323 C 0.77818 0.92606 0.61289 0.0
C324 C 0.80667 0.94 0.6031 0.0
C325 C 0.83065 0.96998 0.60793 0.0
C326 C 0.82674 0.98699 0.62265 0.0
C327 C 0.79833 0.97267 0.63269 0.0
C328 C 0.77437 0.94259 0.62789 0.0
C329 C 0.70275 0.831 0.66035 0.0
C330 C 0.74359 0.79709 0.63465 0.0
C331 C 0.62388 0.71097 0.64012 0.0
C332 C 0.58927 0.69138 0.64032 0.0
C333 C 0.57487 0.66647 0.65311 0.0
C334 C 0.54274 0.64506 0.65188 0.0
C335 C 0.5241 0.64789 0.63773 0.0
C336 C 0.53847 0.6737 0.6254 0.0
C337 C 0.57063 0.69516 0.62669 0.0
C338 C 0.69914 0.78049 0.59608 0.0
C339 C 0.63777 0.81179 0.61891 0.0
O340 O 0.75798 0.87172 0.60707 0.0
O341 O 0.72411 0.88692 0.61209 0.0
O342 O 0.71982 0.85796 0.65253 0.0
O343 O 0.69207 0.8108 0.64746 0.0
O344 O 0.74612 0.82056 0.62437 0.0
O345 O 0.71636 0.77545 0.64179 0.0
O346 O 0.63742 0.73408 0.65224 0.0
O347 O 0.63694 0.71806 0.6234 0.0
O348 O 0.69337 0.75699 0.60679 0.0
O349 O 0.68736 0.79624 0.60289 0.0
O350 O 0.63358 0.78466 0.62495 0.0
O351 O 0.66567 0.83543 0.61488 0.0
H352 H 0.81029 0.92777 0.59153 0.0
H353 H 0.85232 0.97982 0.60009 0.0
H354 H 0.79422 0.98499 0.64398 0.0
H355 H 0.75271 0.93249 0.63577 0.0
H356 H 0.58869 0.66301 0.66374 0.0
H357 H 0.5326 0.62602 0.66192 0.0
H358 H 0.52518 0.6767 0.61423 0.0
H359 H 0.58112 0.71412 0.61659 0.0
Nd360 Nd 0.12724 0.36582 0.89493 0.0
Nd361 Nd 0.15372 0.32002 0.90192 0.0
C362 C 0.10745 0.40434 0.88399 0.0
C363 C 0.11726 0.43775 0.88688 0.0
C364 C 0.14894 0.46071 0.88854 0.0
C365 C 0.15777 0.49221 0.89101 0.0
C366 C 0.13514 0.50154 0.89203 0.0
C367 C 0.10343 0.47835 0.89056 0.0
C368 C 0.09464 0.4469 0.88799 0.0
C369 C 0.12601 0.34775 0.93244 0.0
C370 C 0.20075 0.39535 0.90475 0.0
C371 C 0.17079 0.28198 0.91744 0.0
C372 C 0.17891 0.25772 0.91271 0.0
C373 C 0.16401 0.22924 0.92244 0.0
C374 C 0.17245 0.20654 0.91925 0.0
C375 C 0.19618 0.21179 0.90627 0.0
C376 C 0.21068 0.24015 0.89622 0.0
C377 C 0.20215 0.26287 0.8994 0.0
C378 C 0.15835 0.33427 0.86358 0.0
C379 C 0.08049 0.28983 0.88917 0.0
O380 O 0.12584 0.39824 0.87377 0.0
O381 O 0.09623 0.38605 0.89874 0.0
O382 O 0.13377 0.37584 0.92711 0.0
O383 O 0.12081 0.33111 0.9179 0.0
O384 O 0.18001 0.39952 0.89539 0.0
O385 O 0.19343 0.36797 0.9121 0.0
O386 O 0.14164 0.27472 0.9153 0.0
O387 O 0.19053 0.31086 0.91273 0.0
O388 O 0.16713 0.31594 0.87104 0.0
O389 O 0.14811 0.34421 0.87657 0.0
O390 O 0.10296 0.28502 0.89537 0.0
O391 O 0.0842 0.31813 0.88678 0.0
H392 H 0.16692 0.45433 0.88791 0.0
H393 H 0.18236 0.50922 0.89235 0.0
H394 H 0.08532 0.48455 0.89105 0.0
H395 H 0.07007 0.42968 0.88676 0.0
H396 H 0.14601 0.22466 0.93276 0.0
H397 H 0.1603 0.18482 0.927 0.0
H398 H 0.2292 0.24517 0.88623 0.0
H399 H 0.21409 0.28462 0.89166 0.0
Nd400 Nd 0.20108 0.88438 0.62424 0.0
Nd401 Nd 0.27292 0.91387 0.63354 0.0
C402 C 0.14631 0.86807 0.60844 0.0
C403 C 0.11488 0.86184 0.61399 0.0
C404 C 0.09589 0.86524 0.60055 0.0
C405 C 0.06542 0.8579 0.60516 0.0
C406 C 0.05321 0.84696 0.62338 0.0
C407 C 0.07252 0.84394 0.63691 0.0
C408 C 0.10306 0.85136 0.63227 0.0
C409 C 0.20865 0.87845 0.66289 0.0
C410 C 0.24096 0.95591 0.64166 0.0
C411 C 0.33039 0.92577 0.64132 0.0
C412 C 0.34881 0.90963 0.64254 0.0
C413 C 0.37559 0.92208 0.65401 0.0
C414 C 0.3961 0.91028 0.6531 0.0
C415 C 0.3905 0.88582 0.64056 0.0
C416 C 0.36277 0.87241 0.62973 0.0
C417 C 0.34218 0.88415 0.63073 0.0
C418 C 0.25938 0.93399 0.60047 0.0
C419 C 0.2304 0.83893 0.6217 0.0
O420 O 0.16921 0.89701 0.60932 0.0
O421 O 0.15444 0.84806 0.61432 0.0
O422 O 0.18181 0.86878 0.65478 0.0
O423 O 0.22946 0.89022 0.65042 0.0
O424 O 0.21704 0.93535 0.63137 0.0
O425 O 0.26448 0.95168 0.64681 0.0
O426 O 0.30983 0.92076 0.6546 0.0
O427 O 0.3206 0.92748 0.62437 0.0
O428 O 0.28178 0.95139 0.61204 0.0
O429 O 0.245 0.90565 0.60597 0.0
O430 O 0.25577 0.86137 0.62989 0.0
O431 O 0.20778 0.84352 0.61563 0.0
H432 H 0.10448 0.87316 0.58634 0.0
H433 H 0.0512 0.86017 0.59429 0.0
H434 H 0.06413 0.83603 0.65113 0.0
H435 H 0.11733 0.84865 0.64292 0.0
H436 H 0.38124 0.94171 0.66322 0.0
H437 H 0.4167 0.92079 0.66203 0.0
H438 H 0.35757 0.85372 0.61982 0.0
H439 H 0.32169 0.87408 0.62168 0.0
Nd440 Nd 0.66569 0.76301 0.89219 0.0
Nd441 Nd 0.71306 0.83393 0.9035 0.0
C442 C 0.61984 0.7106 0.8775 0.0
C443 C 0.58643 0.68762 0.88142 0.0
C444 C 0.56313 0.68375 0.86845 0.0
C445 C 0.53173 0.66124 0.87151 0.0
C446 C 0.52282 0.64181 0.88758 0.0
C447 C 0.54616 0.64594 0.90065 0.0
C448 C 0.5775 0.66852 0.89763 0.0
C449 C 0.68973 0.7705 0.92808 0.0
C450 C 0.63793 0.80912 0.90532 0.0
C451 C 0.75311 0.88732 0.91998 0.0
C452 C 0.77589 0.91979 0.91431 0.0
C453 C 0.80746 0.93274 0.91937 0.0
C454 C 0.82931 0.9635 0.9145 0.0
C455 C 0.82006 0.98218 0.90453 0.0
C456 C 0.78843 0.96915 0.89942 0.0
C457 C 0.76661 0.9383 0.90419 0.0
C458 C 0.70551 0.82788 0.86424 0.0
C459 C 0.73957 0.78801 0.89168 0.0
O460 O 0.62653 0.73832 0.8716 0.0
O461 O 0.64075 0.71159 0.88931 0.0
O462 O 0.68035 0.74573 0.91775 0.0
O463 O 0.68274 0.78949 0.92033 0.0
O464 O 0.63204 0.78086 0.90042 0.0
O465 O 0.66659 0.83265 0.90787 0.0
O466 O 0.76005 0.8658 0.91564 0.0
O467 O 0.72336 0.87789 0.91782 0.0
O468 O 0.7232 0.85418 0.87273 0.0
O469 O 0.69315 0.80725 0.87667 0.0
O470 O 0.74178 0.80957 0.90361 0.0
O471 O 0.71354 0.77039 0.88185 0.0
H472 H 0.56926 0.6979 0.85576 0.0
H473 H 0.51454 0.65855 0.86102 0.0
H474 H 0.5402 0.63176 0.91331 0.0
H475 H 0.59474 0.6708 0.90798 0.0
H476 H 0.81524 0.91908 0.92725 0.0
H477 H 0.85337 0.97285 0.91888 0.0
H478 H 0.78056 0.98274 0.89157 0.0
H479 H 0.74248 0.92904 0.89998 0.0
H480 H 1.01549 0.27443 0.15347 0.0
H481 H 0.06482 0.2732 0.15387 0.0
H482 H 0.04327 0.23036 0.09858 0.0
H483 H 0.99495 0.23199 0.09789 0.0
H484 H 0.05296 0.19571 0.12932 0.0
H485 H 0.10074 0.29777 0.09881 0.0
H486 H 0.11654 0.35347 0.09684 0.0
H487 H 0.16597 0.37096 0.1496 0.0
H488 H 0.15076 0.3154 0.15179 0.0
H489 H 0.17501 0.17956 0.0928 0.0
H490 H 0.13539 0.19429 0.09798 0.0
H491 H 0.18678 0.24975 0.14627 0.0
H492 H 0.22725 0.2357 0.14084 0.0
H493 H 0.16358 0.27994 0.12492 0.0
H494 H 0.12291 0.18041 0.1534 0.0
H495 H 0.10836 0.12515 0.15599 0.0
H496 H 0.04396 0.10199 0.10966 0.0
H497 H 0.05848 0.15721 0.1066 0.0
C498 C 1.02177 0.26557 0.14122 0.0
C499 C 1.00102 0.25283 0.12581 0.0
C500 C 0.04986 0.26476 0.14149 0.0
C501 C 0.05747 0.25127 0.12634 0.0
C502 C 0.03774 0.24054 0.1105 0.0
C503 C 1.01003 0.24147 0.11017 0.0
C504 C 0.08405 0.24522 0.12743 0.0
C505 C 0.07715 0.21411 0.12829 0.0
C506 C 0.11562 0.26924 0.12675 0.0
C507 C 0.12431 0.30243 0.12559 0.0
C508 C 0.11473 0.31345 0.11008 0.0
C509 C 0.12364 0.34499 0.10889 0.0
C510 C 0.14198 0.36567 0.12317 0.0
C511 C 0.15167 0.3549 0.13859 0.0
C512 C 0.14302 0.32342 0.13978 0.0
C513 C 0.17823 0.19523 0.1044 0.0
C514 C 0.20448 0.20644 0.11638 0.0
C515 C 0.15531 0.20341 0.10746 0.0
C516 C 0.15781 0.22286 0.12267 0.0
C517 C 0.18423 0.23463 0.13449 0.0
C518 C 0.20723 0.22635 0.13145 0.0
C519 C 0.13242 0.23025 0.12618 0.0
C520 C 0.13945 0.2615 0.12624 0.0
C521 C 0.10084 0.20632 0.12791 0.0
C522 C 0.09198 0.17303 0.12968 0.0
C523 C 0.10583 0.16358 0.14366 0.0
C524 C 0.09756 0.13225 0.14523 0.0
C525 C 0.0753 0.11008 0.13297 0.0
C526 C 0.06122 0.1192 0.11914 0.0
C527 C 0.06944 0.15051 0.11749 0.0
H528 H 0.06891 0.08584 0.13422 0.0
H529 H 0.14882 0.39007 0.12222 0.0
H530 H 0.25977 0.03845 0.41681 0.0
H531 H 0.21032 0.9899 0.41474 0.0
H532 H 0.22715 0.98153 0.35565 0.0
H533 H 0.27771 0.03071 0.35774 0.0
H534 H 0.16611 0.97381 0.36427 0.0
H535 H 0.23136 0.93403 0.38444 0.0
H536 H 0.2719 0.93277 0.40416 0.0
H537 H 0.21481 0.91454 0.45358 0.0
H538 H 0.17398 0.91582 0.43415 0.0
H539 H 1.0195 0.83032 0.36935 0.0
H540 H 0.07419 0.86817 0.36257 0.0
H541 H 0.09168 0.88808 0.42229 0.0
H542 H 0.03765 0.84941 0.42923 0.0
H543 H 0.13817 0.88464 0.4074 0.0
H544 H 0.08079 0.93647 0.39027 0.0
H545 H 0.04112 0.94292 0.37281 0.0
H546 H 0.08344 0.94158 0.31999 0.0
H547 H 0.12315 0.93472 0.33715 0.0
C548 C 0.25329 0.02617 0.40338 0.0
C549 C 0.27273 0.03842 0.38742 0.0
C550 C 0.22493 0.99832 0.40224 0.0
C551 C 0.21499 0.98197 0.38507 0.0
C552 C 0.23444 0.99378 0.36906 0.0
C553 C 0.26336 0.02167 0.37029 0.0
C554 C 0.18366 0.9533 0.38415 0.0
C555 C 0.16012 0.95388 0.37331 0.0
C556 C 0.1757 0.92767 0.39631 0.0
C557 C 0.19975 0.92553 0.40787 0.0
C558 C 0.2275 0.92996 0.39953 0.0
C559 C 0.25052 0.92915 0.41065 0.0
C560 C 0.246 0.92372 0.43013 0.0
C561 C 0.21833 0.91881 0.4385 0.0
C562 C 0.19522 0.91953 0.42743 0.0
C563 C 0.03504 0.84248 0.38108 0.0
C564 C 0.02389 0.83681 0.39987 0.0
C565 C 0.06633 0.8644 0.37715 0.0
C566 C 0.08717 0.88137 0.39188 0.0
C567 C 0.07619 0.87542 0.41063 0.0
C568 C 0.04505 0.85347 0.41457 0.0
C569 C 0.12035 0.90558 0.38802 0.0
C570 C 0.14423 0.90416 0.398 0.0
C571 C 0.12856 0.93065 0.37528 0.0
C572 C 0.10466 0.93466 0.36497 0.0
C573 C 0.08146 0.93727 0.37492 0.0
C574 C 0.059 0.94105 0.36509 0.0
C575 C 0.05969 0.94254 0.3453 0.0
C576 C 0.08289 0.94034 0.33532 0.0
C577 C 0.10537 0.93651 0.34509 0.0
H578 H 0.0423 0.94549 0.33771 0.0
H579 H 0.26389 0.9232 0.43873 0.0
H580 H 0.87885 1.01269 0.10642 0.0
H581 H 0.8632 0.95838 0.11237 0.0
H582 H 0.78304 0.94629 0.14361 0.0
H583 H 0.79874 1.00109 0.13771 0.0
H584 H 0.80909 0.91625 0.16117 0.0
H585 H 0.77391 0.91747 0.09882 0.0
H586 H 0.77665 0.93532 0.0659 0.0
H587 H 0.84858 0.91348 0.0536 0.0
H588 H 0.84663 0.89595 0.08654 0.0
H589 H 0.7574 0.74705 0.15014 0.0
H590 H 0.75635 0.79641 0.14989 0.0
H591 H 0.85052 0.84462 0.12853 0.0
H592 H 0.85218 0.79664 0.12915 0.0
H593 H 0.80393 0.85111 0.10634 0.0
H594 H 0.84264 0.85718 0.17095 0.0
H595 H 0.83769 0.8381 0.20375 0.0
H596 H 0.75443 0.84366 0.2111 0.0
H597 H 0.75866 0.86238 0.17821 0.0
C598 C 0.85772 0.9985 0.11442 0.0
C599 C 0.83983 1.01126 0.12132 0.0
C600 C 0.84879 0.96736 0.11786 0.0
C601 C 0.82154 0.9479 0.12812 0.0
C602 C 0.80406 0.96072 0.13557 0.0
C603 C 0.8131 0.99208 0.1322 0.0
C604 C 0.81155 0.91423 0.13072 0.0
C605 C 0.80733 0.90183 0.14913 0.0
C606 C 0.80899 0.89511 0.11508 0.0
C607 C 0.81024 0.90557 0.09521 0.0
C608 C 0.79047 0.91668 0.08914 0.0
C609 C 0.79187 0.92672 0.07046 0.0
C610 C 0.81281 0.92558 0.05768 0.0
C611 C 0.83237 0.91435 0.06353 0.0
C612 C 0.8311 0.90433 0.0822 0.0
C613 C 0.77803 0.76831 0.14576 0.0
C614 C 0.80473 0.76764 0.1395 0.0
C615 C 0.77736 0.79644 0.14555 0.0
C616 C 0.80329 0.82412 0.13899 0.0
C617 C 0.83016 0.82355 0.13347 0.0
C618 C 0.83098 0.79588 0.13386 0.0
C619 C 0.8028 0.85375 0.13673 0.0
C620 C 0.80501 0.86536 0.11832 0.0
C621 C 0.80314 0.87186 0.15231 0.0
C622 C 0.80072 0.86075 0.17206 0.0
C623 C 0.82309 0.85402 0.17949 0.0
C624 C 0.82047 0.84335 0.19811 0.0
C625 C 0.79569 0.83956 0.20948 0.0
C626 C 0.77356 0.84654 0.20226 0.0
C627 C 0.77607 0.85719 0.18364 0.0
H628 H 0.7937 0.8313 0.22389 0.0
H629 H 0.81385 0.93336 0.04322 0.0
H630 H 0.2232 0.23698 0.42194 0.0
H631 H 0.18385 0.25231 0.41678 0.0
H632 H 0.13274 0.17314 0.37989 0.0
H633 H 0.17206 0.15765 0.38499 0.0
H634 H 0.1329 0.22246 0.36523 0.0
H635 H 0.11091 0.17404 0.42636 0.0
H636 H 0.12125 0.16552 0.45938 0.0
H637 H 0.14186 0.25798 0.4742 0.0
H638 H 0.1322 0.26727 0.44117 0.0
H639 H 0.97911 0.19806 0.37193 0.0
H640 H 0.02798 0.19695 0.37251 0.0
H641 H 0.07275 0.2844 0.40271 0.0
H642 H 0.02351 0.28569 0.40195 0.0
H643 H 0.07957 0.23746 0.42033 0.0
H644 H 0.0962 0.28319 0.35899 0.0
H645 H 0.08129 0.2885 0.32645 0.0
H646 H 0.06666 0.19781 0.31239 0.0
H647 H 0.08118 0.1918 0.34495 0.0
C648 C 0.2035 0.22267 0.41281 0.0
C649 C 0.20077 0.19587 0.40402 0.0
C650 C 0.18099 0.23153 0.40983 0.0
C651 C 0.15496 0.21369 0.39814 0.0
C652 C 0.15255 0.18736 0.38897 0.0
C653 C 0.17514 0.17854 0.39188 0.0
C654 C 0.12999 0.2221 0.39572 0.0
C655 C 0.12113 0.2255 0.3773 0.0
C656 C 0.11495 0.22686 0.41142 0.0
C657 C 0.12127 0.22151 0.43122 0.0
C658 C 0.11801 0.19269 0.43661 0.0
C659 C 0.12369 0.1877 0.45533 0.0
C660 C 0.13234 0.21124 0.46886 0.0
C661 C 0.13527 0.2398 0.46369 0.0
C662 C 0.12971 0.24495 0.44497 0.0
C663 C 0.99966 0.21752 0.37819 0.0
C664 C 0.99776 0.24221 0.38661 0.0
C665 C 0.02756 0.21685 0.37855 0.0
C666 C 0.05413 0.24066 0.38759 0.0
C667 C 0.05257 0.26588 0.39559 0.0
C668 C 0.02462 0.2668 0.39496 0.0
C669 C 0.08242 0.23752 0.38991 0.0
C670 C 0.09177 0.23494 0.40829 0.0
C671 C 0.09766 0.23322 0.37421 0.0
C672 C 0.08959 0.23696 0.35447 0.0
C673 C 0.08964 0.2643 0.34899 0.0
C674 C 0.08127 0.26744 0.33054 0.0
C675 C 0.07291 0.24346 0.31737 0.0
C676 C 0.07311 0.21636 0.32261 0.0
C677 C 0.08148 0.2131 0.34106 0.0
H678 H 0.06634 0.24591 0.3031 0.0
H679 H 0.13666 0.2073 0.48336 0.0
H680 H 0.2975 0.01499 0.13459 0.0
H681 H 0.24752 0.96512 0.13566 0.0
H682 H 0.19731 0.01551 0.1343 0.0
H683 H 0.24637 0.06455 0.1332 0.0
H684 H 0.17181 0.9684 0.15957 0.0
H685 H 0.20935 0.98482 0.0946 0.0
H686 H 0.24649 0.99128 0.06929 0.0
H687 H 0.23562 0.90187 0.08269 0.0
H688 H 0.19885 0.89512 0.10833 0.0
H689 H 1.02102 0.87542 0.12218 0.0
H690 H 0.07571 0.91476 0.12739 0.0
H691 H 0.10115 0.84327 0.12644 0.0
H692 H 0.04639 0.80372 0.12084 0.0
H693 H 0.1421 0.89431 0.10579 0.0
H694 H 0.09919 0.8752 0.16804 0.0
H695 H 0.06147 0.86867 0.19293 0.0
H696 H 0.08222 0.96297 0.18458 0.0
H697 H 0.11974 0.96993 0.15943 0.0
C698 C 0.27573 0.01525 0.13484 0.0
C699 C 0.27582 0.04362 0.1337 0.0
C700 C 0.24723 0.98682 0.13532 0.0
C701 C 0.21858 0.98654 0.13491 0.0
C702 C 0.21896 0.01501 0.13463 0.0
C703 C 0.24712 0.04308 0.13392 0.0
C704 C 0.18783 0.95711 0.13404 0.0
C705 C 0.16534 0.95219 0.14781 0.0
C706 C 0.1795 0.93548 0.11894 0.0
C707 C 0.20171 0.93967 0.10358 0.0
C708 C 0.21514 0.96669 0.0923 0.0
C709 C 0.23607 0.97038 0.07787 0.0
C710 C 0.24348 0.94704 0.07446 0.0
C711 C 0.22992 0.91995 0.08542 0.0
C712 C 0.20906 0.9162 0.0999 0.0
C713 C 0.03822 0.86802 0.12296 0.0
C714 C 0.0292 0.83633 0.12112 0.0
C715 C 0.06951 0.89054 0.1261 0.0
C716 C 0.09261 0.882 0.12753 0.0
C717 C 0.08379 0.85045 0.12548 0.0
C718 C 0.05241 0.82783 0.12243 0.0
C719 C 0.12587 0.90621 0.13103 0.0
C720 C 0.14874 0.91013 0.11776 0.0
C721 C 0.13461 0.92704 0.14657 0.0
C722 C 0.11214 0.92301 0.16175 0.0
C723 C 0.09555 0.89448 0.17141 0.0
C724 C 0.07422 0.89071 0.18559 0.0
C725 C 0.06941 0.91537 0.19031 0.0
C726 C 0.08596 0.94388 0.1809 0.0
C727 C 0.10729 0.94776 0.1667 0.0
H728 H 0.05289 0.91241 0.20129 0.0
H729 H 0.25966 0.94988 0.06332 0.0
H730 H 0.77703 0.75102 0.3589 0.0
H731 H 0.7783 0.8014 0.35651 0.0
H732 H 0.80664 0.8204 0.4152 0.0
H733 H 0.80442 0.77073 0.41772 0.0
H734 H 0.76921 0.83997 0.40929 0.0
H735 H 0.85776 0.8476 0.37591 0.0
H736 H 0.88566 0.83614 0.35113 0.0
H737 H 0.8439 0.86508 0.3082 0.0
H738 H 0.81503 0.87591 0.33271 0.0
H739 H 0.8607 1.00095 0.42324 0.0
H740 H 0.84409 0.94631 0.41756 0.0
H741 H 0.80659 0.9506 0.36315 0.0
H742 H 0.8242 1.00592 0.36844 0.0
H743 H 0.83946 0.9177 0.36224 0.0
H744 H 0.75553 0.91526 0.39959 0.0
H745 H 0.73631 0.932 0.42689 0.0
H746 H 0.78039 0.89835 0.46516 0.0
H747 H 0.79944 0.88102 0.43813 0.0
C748 C 0.78274 0.76573 0.37133 0.0
C749 C 0.79081 0.75698 0.38845 0.0
C750 C 0.78382 0.79466 0.36993 0.0
C751 C 0.79302 0.81509 0.38562 0.0
C752 C 0.79946 0.80533 0.40286 0.0
C753 C 0.79832 0.7768 0.40425 0.0
C754 C 0.79754 0.84723 0.38451 0.0
C755 C 0.7845 0.85681 0.39889 0.0
C756 C 0.81721 0.86947 0.37089 0.0
C757 C 0.83378 0.86202 0.35613 0.0
C758 C 0.85414 0.85107 0.36117 0.0
C759 C 0.87019 0.84475 0.34717 0.0
C760 C 0.86648 0.84979 0.3281 0.0
C761 C 0.84669 0.86113 0.32298 0.0
C762 C 0.83036 0.86722 0.33691 0.0
C763 C 0.84934 0.99054 0.40993 0.0
C764 C 0.84381 1.00801 0.39632 0.0
C765 C 0.83952 0.9591 0.40678 0.0
C766 C 0.82363 0.94415 0.39005 0.0
C767 C 0.81862 0.96157 0.37622 0.0
C768 C 0.82849 0.99314 0.37935 0.0
C769 C 0.81196 0.91025 0.38732 0.0
C770 C 0.82354 0.90049 0.37225 0.0
C771 C 0.79173 0.88793 0.4006 0.0
C772 C 0.77884 0.89682 0.41685 0.0
C773 C 0.76093 0.91127 0.41384 0.0
C774 C 0.75002 0.9208 0.42927 0.0
C775 C 0.75696 0.91606 0.44776 0.0
C776 C 0.77469 0.90166 0.45086 0.0
C777 C 0.78542 0.89184 0.4355 0.0
H778 H 0.74868 0.92364 0.45969 0.0
H779 H 0.87899 0.84496 0.31729 0.0
H780 H 0.19223 0.96238 0.6525 0.0
H781 H 0.18836 1.00954 0.65114 0.0
H782 H 0.28604 0.06342 0.63685 0.0
H783 H 0.29013 0.0159 0.63861 0.0
H784 H 0.26603 0.09704 0.65954 0.0
H785 H 0.23512 0.03844 0.60198 0.0
H786 H 0.20691 0.99069 0.58271 0.0
H787 H 0.11924 0.97919 0.6015 0.0
H788 H 0.14691 0.02668 0.6211 0.0
H789 H 0.24599 0.2177 0.61645 0.0
H790 H 0.25911 0.17696 0.62262 0.0
H791 H 0.16282 0.11248 0.63614 0.0
H792 H 0.14943 0.15291 0.62964 0.0
H793 H 0.18643 0.08636 0.61251 0.0
H794 H 0.21892 0.1454 0.67078 0.0
H795 H 0.24824 0.19282 0.6902 0.0
H796 H 0.33477 0.20431 0.66911 0.0
H797 H 0.30593 0.15717 0.64935 0.0
C798 C 0.21314 0.98443 0.64965 0.0
C799 C 0.24148 0.98549 0.64568 0.0
C800 C 0.21085 1.01137 0.64874 0.0
C801 C 0.23671 0.03995 0.64346 0.0
C802 C 0.26573 0.04161 0.64089 0.0
C803 C 0.26812 0.01452 0.64201 0.0
C804 C 0.23225 0.0669 0.63892 0.0
C805 C 0.24899 0.09492 0.64906 0.0
C806 C 0.20986 0.06413 0.62531 0.0
C807 C 0.1931 0.03602 0.61312 0.0
C808 C 0.20983 0.02567 0.60208 0.0
C809 C 0.19394 0.99864 0.5911 0.0
C810 C 0.16132 0.98188 0.59092 0.0
C811 C 0.14451 0.9922 0.60166 0.0
C812 C 0.16028 0.0192 0.61269 0.0
C813 C 0.22756 0.19483 0.62069 0.0
C814 C 0.1966 0.18866 0.62253 0.0
C815 C 0.23517 0.17159 0.62438 0.0
C816 C 0.21203 0.14161 0.63 0.0
C817 C 0.18114 0.13541 0.63187 0.0
C818 C 0.17354 0.15866 0.62828 0.0
C819 C 0.21968 0.1164 0.63343 0.0
C820 C 0.20359 0.08865 0.62295 0.0
C821 C 0.24291 0.11964 0.64656 0.0
C822 C 0.26025 0.14795 0.65843 0.0
C823 C 0.24419 0.15819 0.67016 0.0
C824 C 0.26073 0.18499 0.68125 0.0
C825 C 0.29335 0.20162 0.68085 0.0
C826 C 0.3095 0.19144 0.66938 0.0
C827 C 0.29307 0.16467 0.65824 0.0
H828 H 0.30611 0.22235 0.68945 0.0
H829 H 0.14907 0.96092 0.58245 0.0
H830 H 1.01157 0.85783 0.92193 0.0
H831 H 0.95735 0.84202 0.9148 0.0
H832 H 0.95557 0.78097 0.87069 0.0
H833 H 1.01015 0.7965 0.87788 0.0
H834 H 0.92437 0.81959 0.86211 0.0
H835 H 0.91291 0.73739 0.90694 0.0
H836 H 0.93094 0.722 0.93549 0.0
H837 H 0.9226 0.79047 0.96835 0.0
H838 H 0.90503 0.80647 0.93988 0.0
H839 H 0.757 0.76077 0.86319 0.0
H840 H 0.80656 0.76011 0.86132 0.0
H841 H 0.83449 0.80692 0.91533 0.0
H842 H 0.78569 0.80659 0.91768 0.0
H843 H 0.85037 0.76475 0.91466 0.0
H844 H 0.85948 0.84553 0.87158 0.0
H845 H 0.84462 0.86528 0.84369 0.0
H846 H 0.86128 0.80558 0.80735 0.0
H847 H 0.87588 0.7852 0.8351 0.0
C848 C 0.99974 0.84094 0.91075 0.0
C849 C 1.01519 0.82811 0.90068 0.0
C850 C 0.96876 0.83209 0.9066 0.0
C851 C 0.95234 0.81014 0.89232 0.0
C852 C 0.96785 0.79802 0.88173 0.0
C853 C 0.99903 0.80693 0.88587 0.0
C854 C 0.91844 0.79868 0.88964 0.0
C855 C 0.9079 0.8069 0.87334 0.0
C856 C 0.89712 0.78254 0.90434 0.0
C857 C 0.90704 0.7726 0.92148 0.0
C858 C 0.91476 0.74896 0.92031 0.0
C859 C 0.92502 0.74024 0.93643 0.0
C860 C 0.92772 0.75511 0.95376 0.0
C861 C 0.92029 0.77881 0.95497 0.0
C862 C 0.91008 0.78763 0.93887 0.0
C863 C 0.77358 0.77039 0.87477 0.0
C864 C 0.7674 0.784 0.89046 0.0
C865 C 0.802 0.77023 0.87364 0.0
C866 C 0.82453 0.78369 0.8882 0.0
C867 C 0.81763 0.79619 0.90402 0.0
C868 C 0.78959 0.79624 0.9052 0.0
C869 C 0.85594 0.78625 0.88723 0.0
C870 C 0.86628 0.77648 0.90302 0.0
C871 C 0.87702 0.80126 0.87205 0.0
C872 C 0.86835 0.81355 0.85541 0.0
C873 C 0.85973 0.83645 0.85765 0.0
C874 C 0.8514 0.84779 0.84187 0.0
C875 C 0.85189 0.83661 0.82376 0.0
C876 C 0.86083 0.81415 0.82139 0.0
C877 C 0.86914 0.8027 0.83714 0.0
H878 H 0.84543 0.84541 0.81156 0.0
H879 H 0.9357 0.74835 0.96622 0.0
H880 H 0.84512 0.01589 0.6576 0.0
H881 H 0.88609 0.06946 0.6645 0.0
H882 H 0.90655 0.08582 0.60487 0.0
H883 H 0.86547 0.03272 0.59781 0.0
H884 H 0.95937 0.10732 0.6252 0.0
H885 H 0.86546 0.11448 0.6286 0.0
H886 H 0.81334 0.10062 0.6407 0.0
H887 H 0.85085 0.12715 0.69695 0.0
H888 H 0.90315 0.14079 0.6852 0.0
H889 H 0.04014 0.26403 0.60902 0.0
H890 H 0.99529 0.21194 0.61241 0.0
H891 H 1.00616 0.2182 0.67305 0.0
H892 H 0.05196 0.27114 0.66977 0.0
H893 H 0.93971 0.18444 0.65808 0.0
H894 H 0.0351 0.18237 0.65382 0.0
H895 H 0.08726 0.19832 0.64097 0.0
H896 H 0.04699 0.16264 0.58624 0.0
H897 H 0.99455 0.14665 0.59876 0.0
C898 C 0.85808 0.03095 0.6459 0.0
C899 C 0.85186 0.0197 0.62711 0.0
C900 C 0.88161 0.06163 0.64991 0.0
C901 C 0.89944 0.08187 0.63522 0.0
C902 C 0.89332 0.0707 0.61649 0.0
C903 C 0.86982 0.04014 0.61248 0.0
C904 C 0.9248 0.11455 0.63914 0.0
C905 C 0.95494 0.1241 0.63236 0.0
C906 C 0.9195 0.13644 0.64902 0.0
C907 C 0.88811 0.12828 0.65607 0.0
C908 C 0.86253 0.11709 0.64358 0.0
C909 C 0.83297 0.10933 0.65036 0.0
C910 C 0.82876 0.1129 0.66959 0.0
C911 C 0.85413 0.12433 0.68206 0.0
C912 C 0.88374 0.13209 0.67535 0.0
C913 C 0.03246 0.2548 0.62315 0.0
C914 C 0.04946 0.27165 0.63914 0.0
C915 C 1.0068 0.22496 0.62503 0.0
C916 C 0.99747 0.21098 0.64287 0.0
C917 C 1.01291 0.22856 0.65911 0.0
C918 C 0.0389 0.25881 0.65725 0.0
C919 C 0.97388 0.17709 0.64378 0.0
C920 C 0.94417 0.16738 0.65133 0.0
C921 C 0.97951 0.15489 0.63467 0.0
C922 C 1.0109 0.16354 0.6272 0.0
C923 C 0.03737 0.17805 0.63902 0.0
C924 C 0.067 0.18709 0.6318 0.0
C925 C 0.07048 0.18161 0.61277 0.0
C926 C 0.04428 0.16688 0.60097 0.0
C927 C 1.01458 0.15775 0.60814 0.0
H928 H 0.09345 0.1887 0.60719 0.0
H929 H 0.80586 0.10689 0.67482 0.0
H930 H 0.21293 0.19422 0.87322 0.0
H931 H 0.22888 0.15509 0.8692 0.0
H932 H 0.21704 0.13568 0.92914 0.0
H933 H 0.20237 0.17553 0.93338 0.0
H934 H 0.26827 0.13709 0.9178 0.0
H935 H 0.16202 0.08773 0.89559 0.0
H936 H 0.11812 0.08189 0.87592 0.0
H937 H 0.16658 0.08157 0.82556 0.0
H938 H 0.21098 0.08782 0.84494 0.0
H939 H 0.23827 0.98355 0.92648 0.0
H940 H 0.23749 0.03221 0.92475 0.0
H941 H 0.26409 0.04187 0.86588 0.0
H942 H 0.26488 0.99251 0.86757 0.0
H943 H 0.2119 0.04925 0.87278 0.0
H944 H 0.31631 0.09322 0.89655 0.0
H945 H 0.35683 0.09442 0.91756 0.0
H946 H 0.30836 0.10073 0.96619 0.0
H947 H 0.26752 0.09962 0.94554 0.0
C948 C 0.21403 0.18188 0.88559 0.0
C949 C 0.20609 0.188 0.90362 0.0
C950 C 0.2229 0.15925 0.88323 0.0
C951 C 0.22386 0.14205 0.89882 0.0
C952 C 0.21645 0.1485 0.91686 0.0
C953 C 0.20769 0.17112 0.91923 0.0
C954 C 0.23217 0.11709 0.89648 0.0
C955 C 0.25583 0.11789 0.90797 0.0
C956 C 0.21655 0.09224 0.88338 0.0
C957 C 0.18999 0.08866 0.8717 0.0
C958 C 0.16344 0.08671 0.88031 0.0
C959 C 0.13845 0.08327 0.86922 0.0
C960 C 0.13961 0.08148 0.8495 0.0
C961 C 0.16575 0.08305 0.84083 0.0
C962 C 0.19083 0.08653 0.85187 0.0
C963 C 0.24449 0.99624 0.91321 0.0
C964 C 0.25169 0.98423 0.89715 0.0
C965 C 0.24411 0.02416 0.91226 0.0
C966 C 0.25085 0.04085 0.89521 0.0
C967 C 0.25888 0.02941 0.8792 0.0
C968 C 0.25962 1.00142 0.88021 0.0
C969 C 0.24761 0.06915 0.89424 0.0
C970 C 0.22481 0.0689 0.88224 0.0
C971 C 0.26376 0.09434 0.90699 0.0
C972 C 0.28885 0.09631 0.91948 0.0
C973 C 0.31431 0.09491 0.91174 0.0
C974 C 0.33735 0.09561 0.92359 0.0
C975 C 0.33518 0.09772 0.94322 0.0
C976 C 0.31006 0.09929 0.95101 0.0
C977 C 0.28703 0.09875 0.93923 0.0
H978 H 0.35294 0.0981 0.9524 0.0
H979 H 0.12023 0.07879 0.84093 0.0
H980 H 1.00987 0.79757 0.64462 0.0
H981 H 0.95595 0.78369 0.65167 0.0
H982 H 0.96807 0.8629 0.61941 0.0
H983 H 0.02212 0.87749 0.6129 0.0
H984 H 0.93789 0.85867 0.65083 0.0
H985 H 0.92915 0.78706 0.60164 0.0
H986 H 0.9365 0.74589 0.58713 0.0
H987 H 0.88541 0.68372 0.63265 0.0
H988 H 0.8781 0.72471 0.64757 0.0
H989 H 0.79719 0.83029 0.61486 0.0
H990 H 0.84639 0.83169 0.61845 0.0
H991 H 0.80713 0.7618 0.66215 0.0
H992 H 0.75649 0.76012 0.65867 0.0
H993 H 0.84871 0.75566 0.63249 0.0
H994 H 0.84885 0.82865 0.67696 0.0
H995 H 0.83854 0.87049 0.68641 0.0
H996 H 0.90593 0.93232 0.6461 0.0
H997 H 0.91569 0.89044 0.63574 0.0
C998 C 1.00119 0.81226 0.63921 0.0
C999 C 1.02044 0.83863 0.6281 0.0
C1000 C 0.97019 0.80409 0.64311 0.0
C1001 C 0.95769 0.82203 0.63593 0.0
C1002 C 0.97704 0.84861 0.62511 0.0
C1003 C 1.00795 0.85678 0.62123 0.0
C1004 C 0.92451 0.81336 0.63944 0.0
C1005 C 0.91845 0.83611 0.64685 0.0
C1006 C 0.89893 0.78363 0.63472 0.0
C1007 C 0.90347 0.75907 0.62585 0.0
C1008 C 0.91975 0.76471 0.60865 0.0
C1009 C 0.92385 0.74139 0.60034 0.0
C1010 C 0.91153 0.71225 0.60901 0.0
C1011 C 0.89501 0.70634 0.62599 0.0
C1012 C 0.89088 0.72959 0.63437 0.0
C1013 C 0.79857 0.81505 0.62534 0.0
C1014 C 0.77272 0.7954 0.63674 0.0
C1015 C 0.82694 0.81587 0.62727 0.0
C1016 C 0.83064 0.79722 0.64071 0.0
C1017 C 0.80475 0.7765 0.65171 0.0
C1018 C 0.77591 0.77562 0.64976 0.0
C1019 C 0.86233 0.80127 0.64339 0.0
C1020 C 0.86817 0.77782 0.63705 0.0
C1021 C 0.88781 0.83057 0.64878 0.0
C1022 C 0.88294 0.85627 0.65553 0.0
C1023 C 0.86138 0.85109 0.67002 0.0
C1024 C 0.85561 0.87484 0.67555 0.0
C1025 C 0.87169 0.9041 0.66696 0.0
C1026 C 0.89353 0.90966 0.65278 0.0
C1027 C 0.89915 0.88589 0.64704 0.0
H1028 H 0.86718 0.92245 0.67128 0.0
H1029 H 0.91471 0.69422 0.60254 0.0
H1030 H 1.02186 0.28206 0.89481 0.0
H1031 H 0.97206 0.23227 0.89478 0.0
H1032 H 1.02075 0.1843 0.87773 0.0
H1033 H 0.06984 0.23342 0.87755 0.0
H1034 H 0.9686 0.16172 0.85896 0.0
H1035 H 1.00774 0.19298 0.92406 0.0
H1036 H 0.02213 0.21453 0.96094 0.0
H1037 H 0.89559 0.18704 0.96169 0.0
H1038 H 0.89871 0.17024 0.92512 0.0
H1039 H 0.87987 1.0058 0.89134 0.0
H1040 H 0.91869 0.06029 0.88519 0.0
H1041 H 0.85176 0.08801 0.90069 0.0
H1042 H 0.81296 0.03356 0.90722 0.0
H1043 H 0.90687 0.12346 0.91797 0.0
H1044 H 0.87341 0.09077 0.85456 0.0
H1045 H 0.86073 0.05727 0.82628 0.0
H1046 H 0.95558 0.07683 0.82352 0.0
H1047 H 0.96875 0.11009 0.85195 0.0
C1048 C 1.02167 0.26092 0.89065 0.0
C1049 C 0.04969 0.2616 0.88615 0.0
C1050 C 0.99333 0.23246 0.89088 0.0
C1051 C 0.99269 0.20442 0.88651 0.0
C1052 C 1.02053 0.2055 0.88119 0.0
C1053 C 0.04865 0.23366 0.88109 0.0
C1054 C 0.96355 0.17361 0.88763 0.0
C1055 C 0.95512 0.15343 0.87191 0.0
C1056 C 0.94523 0.16298 0.90425 0.0
C1057 C 0.95275 0.18132 0.922 0.0
C1058 C 0.98998 0.1944 0.93219 0.0
C1059 C 0.99839 0.20727 0.95616 0.0
C1060 C 0.94898 0.2039 0.97292 0.0
C1061 C 0.91754 0.18979 0.95681 0.0
C1062 C 0.92003 0.17968 0.93332 0.0
C1063 C 0.87338 0.02347 0.89344 0.0
C1064 C 0.84326 0.01524 0.89982 0.0
C1065 C 0.89552 0.05463 0.88971 0.0
C1066 C 0.88811 0.07832 0.89226 0.0
C1067 C 0.85801 0.07017 0.8985 0.0
C1068 C 0.83578 0.03898 0.90213 0.0
C1069 C 0.91238 0.1117 0.88954 0.0
C1070 C 0.91987 0.13225 0.90488 0.0
C1071 C 0.92981 0.12273 0.87261 0.0
C1072 C 0.92201 0.10277 0.85548 0.0
C1073 C 0.89152 0.08774 0.84801 0.0
C1074 C 0.88425 0.06883 0.83194 0.0
C1075 C 0.90732 0.06488 0.82313 0.0
C1076 C 0.93773 0.07989 0.83036 0.0
C1077 C 0.94512 0.09882 0.84644 0.0
H1078 H 0.90165 0.05023 0.81068 0.0
H1079 H 0.96369 0.20651 0.97171 0.0
H1080 H 0.36942 0.12057 0.34272 0.0
H1081 H 0.37618 0.12147 0.30811 0.0
H1082 H 0.32335 0.16868 0.30178 0.0
H1083 H 0.31694 0.16813 0.33611 0.0
H1084 H 0.33498 0.09695 0.27873 0.0
H1085 H 0.35161 0.22053 0.26636 0.0
H1086 H 0.37471 0.27124 0.28281 0.0
H1087 H 0.43582 0.2491 0.31391 0.0
H1088 H 0.41343 0.19848 0.29746 0.0
H1089 H 0.31897 0.17185 0.18633 0.0
H1090 H 0.32486 0.17085 0.22059 0.0
H1091 H 0.37788 0.12402 0.21328 0.0
H1092 H 0.37164 0.12472 0.17865 0.0
H1093 H 0.37482 0.1961 0.24329 0.0
H1094 H 0.36344 0.07608 0.25304 0.0
H1095 H 0.34122 0.02539 0.23659 0.0
H1096 H 0.27125 0.04074 0.21091 0.0
H1097 H 0.29279 0.09129 0.2274 0.0
C1098 C 0.35947 0.1313 0.33391 0.0
C1099 C 0.3429 0.14454 0.34216 0.0
C1100 C 0.36319 0.13166 0.31412 0.0
C1101 C 0.35067 0.14553 0.30224 0.0
C1102 C 0.33378 0.15835 0.31055 0.0
C1103 C 0.33001 0.15792 0.33023 0.0
C1104 C 0.35484 0.14666 0.28118 0.0
C1105 C 0.34426 0.11873 0.27101 0.0
C1106 C 0.36675 0.17497 0.27096 0.0
C1107 C 0.38063 0.20557 0.28077 0.0
C1108 C 0.37008 0.22654 0.27664 0.0
C1109 C 0.38304 0.25526 0.28598 0.0
C1110 C 0.40666 0.26334 0.29943 0.0
C1111 C 0.41745 0.24276 0.30353 0.0
C1112 C 0.4046 0.21403 0.29422 0.0
C1113 C 0.332 0.1614 0.19196 0.0
C1114 C 0.34489 0.1484 0.17975 0.0
C1115 C 0.33544 0.16093 0.21162 0.0
C1116 C 0.35168 0.14724 0.21967 0.0
C1117 C 0.36497 0.13448 0.20749 0.0
C1118 C 0.36158 0.13504 0.18769 0.0
C1119 C 0.35406 0.14632 0.24081 0.0
C1120 C 0.36593 0.17437 0.25101 0.0
C1121 C 0.34351 0.11816 0.25101 0.0
C1122 C 0.32999 0.08761 0.24126 0.0
C1123 C 0.34326 0.06857 0.24392 0.0
C1124 C 0.33079 0.03988 0.23459 0.0
C1125 C 0.30492 0.02991 0.22265 0.0
C1126 C 0.29137 0.04855 0.22009 0.0
C1127 C 0.30372 0.07723 0.22941 0.0
H1128 H 0.29533 1.00772 0.21542 0.0
H1129 H 0.41664 0.28558 0.30666 0.0
H1130 H 0.87558 0.73265 0.33651 0.0
H1131 H 0.86818 0.72771 0.30214 0.0
H1132 H 0.77791 0.64566 0.30962 0.0
H1133 H 0.785 0.651 0.34425 0.0
H1134 H 0.81629 0.64 0.28045 0.0
H1135 H 0.77486 0.70362 0.29727 0.0
H1136 H 0.7712 0.74597 0.31312 0.0
H1137 H 0.85286 0.81392 0.28357 0.0
H1138 H 0.85746 0.77191 0.2678 0.0
H1139 H 0.78568 0.65172 0.18012 0.0
H1140 H 0.77833 0.64739 0.21477 0.0
H1141 H 0.87094 0.72605 0.2224 0.0
H1142 H 0.8786 0.72995 0.18806 0.0
H1143 H 0.82142 0.72812 0.24399 0.0
H1144 H 0.86284 0.65941 0.22964 0.0
H1145 H 0.86139 0.61464 0.21336 0.0
H1146 H 0.77193 0.55312 0.23805 0.0
H1147 H 0.77266 0.59765 0.25425 0.0
C1148 C 0.85413 0.71354 0.33086 0.0
C1149 C 0.8308 0.69225 0.34308 0.0
C1150 C 0.84992 0.71076 0.31121 0.0
C1151 C 0.82246 0.68637 0.30328 0.0
C1152 C 0.79929 0.66464 0.31542 0.0
C1153 C 0.80329 0.66777 0.33518 0.0
C1154 C 0.81825 0.68435 0.2823 0.0
C1155 C 0.81679 0.65897 0.27248 0.0
C1156 C 0.81884 0.70904 0.27187 0.0
C1157 C 0.81667 0.73457 0.28147 0.0
C1158 C 0.79229 0.72758 0.29431 0.0
C1159 C 0.79 0.75152 0.30325 0.0
C1160 C 0.81177 0.78258 0.29935 0.0
C1161 C 0.83601 0.78981 0.28657 0.0
C1162 C 0.83848 0.76593 0.27762 0.0
C1163 C 0.80437 0.66804 0.18923 0.0
C1164 C 0.83269 0.69116 0.18141 0.0
C1165 C 0.8002 0.66554 0.20899 0.0
C1166 C 0.8241 0.68647 0.22117 0.0
C1167 C 0.85217 0.70974 0.21329 0.0
C1168 C 0.85655 0.71185 0.19366 0.0
C1169 C 0.82041 0.68427 0.24215 0.0
C1170 C 0.82047 0.70895 0.25197 0.0
C1171 C 0.81787 0.65865 0.25253 0.0
C1172 C 0.81762 0.63189 0.24296 0.0
C1173 C 0.84273 0.63638 0.23145 0.0
C1174 C 0.84207 0.61104 0.22227 0.0
C1175 C 0.81654 0.58107 0.22462 0.0
C1176 C 0.79167 0.57636 0.23621 0.0
C1177 C 0.7922 0.60163 0.2454 0.0
H1178 H 0.81606 0.56148 0.21749 0.0
H1179 H 0.8097 0.80101 0.30616 0.0
H1180 H 0.87107 0.16214 0.18774 0.0
H1181 H 0.87138 0.17109 0.22177 0.0
H1182 H 0.92314 0.27039 0.21257 0.0
H1183 H 0.92268 0.26143 0.17812 0.0
H1184 H 0.94661 0.24911 0.24326 0.0
H1185 H 0.85111 0.24175 0.22365 0.0
H1186 H 0.80091 0.21956 0.20658 0.0
H1187 H 0.76618 0.13442 0.23801 0.0
H1188 H 0.81636 0.15591 0.25507 0.0
H1189 H 0.92111 0.25966 0.34384 0.0
H1190 H 0.92299 0.26912 0.3094 0.0
H1191 H 0.86576 0.17022 0.29968 0.0
H1192 H 0.8639 0.16082 0.33367 0.0
H1193 H 0.84628 0.20268 0.2782 0.0
H1194 H 0.94427 0.20721 0.2937 0.0
H1195 H 0.99489 0.2283 0.31023 0.0
H1196 H 0.02484 0.31865 0.28642 0.0
H1197 H 0.97423 0.29816 0.26992 0.0
C1198 C 0.88244 0.18592 0.19291 0.0
C1199 C 0.89664 0.21109 0.18025 0.0
C1200 C 0.88256 0.19101 0.21239 0.0
C1201 C 0.89707 0.2214 0.21977 0.0
C1202 C 0.91172 0.24673 0.2072 0.0
C1203 C 0.91129 0.24161 0.18755 0.0
C1204 C 0.89655 0.22603 0.24064 0.0
C1205 C 0.92472 0.23966 0.2509 0.0
C1206 C 0.868 0.21339 0.25066 0.0
C1207 C 0.83761 0.20041 0.24057 0.0
C1208 C 0.83285 0.21822 0.22684 0.0
C1209 C 0.80438 0.20578 0.21717 0.0
C1210 C 0.78039 0.17559 0.22119 0.0
C1211 C 0.78479 0.15781 0.23491 0.0
C1212 C 0.81323 0.17012 0.24461 0.0
C1213 C 0.90872 0.24007 0.3343 0.0
C1214 C 0.89231 0.20951 0.34144 0.0
C1215 C 0.90994 0.24545 0.31464 0.0
C1216 C 0.89458 0.22035 0.30188 0.0
C1217 C 0.8777 0.18999 0.30915 0.0
C1218 C 0.87673 0.18464 0.32863 0.0
C1219 C 0.89629 0.22493 0.28089 0.0
C1220 C 0.86825 0.21286 0.27059 0.0
C1221 C 0.92495 0.23899 0.27088 0.0
C1222 C 0.95533 0.25127 0.28078 0.0
C1223 C 0.96155 0.23164 0.29212 0.0
C1224 C 0.99025 0.24346 0.30146 0.0
C1225 C 1.01301 0.27481 0.29943 0.0
C1226 C 1.00716 0.29438 0.28801 0.0
C1227 C 0.97848 0.28268 0.27866 0.0
H1228 H 0.03521 0.28393 0.30665 0.0
H1229 H 0.75836 0.16599 0.21368 0.0
H1230 H 0.16914 0.30329 0.68702 0.0
H1231 H 0.16652 0.30751 0.72139 0.0
H1232 H 0.13719 0.37549 0.71419 0.0
H1233 H 0.13964 0.37115 0.67954 0.0
H1234 H 0.18169 0.39172 0.74333 0.0
H1235 H 0.08429 0.30491 0.72578 0.0
H1236 H 0.04884 0.2556 0.70944 0.0
H1237 H 0.08831 0.20908 0.74059 0.0
H1238 H 0.12445 0.25828 0.75687 0.0
H1239 H 0.14139 0.37211 0.84403 0.0
H1240 H 0.13792 0.376 0.80933 0.0
H1241 H 0.16794 0.30863 0.80177 0.0
H1242 H 0.17171 0.30496 0.83599 0.0
H1243 H 0.11639 0.29498 0.7799 0.0
H1244 H 0.21769 0.38433 0.79447 0.0
H1245 H 0.25315 0.43417 0.81032 0.0
H1246 H 0.20419 0.4761 0.78477 0.0
H1247 H 0.16815 0.42633 0.76897 0.0
C1248 C 0.16222 0.31923 0.69272 0.0
C1249 C 0.15456 0.33687 0.68055 0.0
C1250 C 0.16066 0.32158 0.7124 0.0
C1251 C 0.15139 0.34162 0.72046 0.0
C1252 C 0.1444 0.35987 0.70835 0.0
C1253 C 0.14576 0.35734 0.68855 0.0
C1254 C 0.1484 0.34261 0.7415 0.0
C1255 C 0.16693 0.37069 0.75131 0.0
C1256 C 0.12926 0.3152 0.752 0.0
C1257 C 0.10727 0.28539 0.74245 0.0
C1258 C 0.08558 0.28423 0.72906 0.0
C1259 C 0.06534 0.25629 0.71981 0.0
C1260 C 0.06636 0.22924 0.72395 0.0
C1261 C 0.08757 0.23007 0.73739 0.0
C1262 C 0.10793 0.25798 0.74664 0.0
C1263 C 0.14736 0.35831 0.83491 0.0
C1264 C 0.15684 0.33826 0.84278 0.0
C1265 C 0.1454 0.36053 0.8151 0.0
C1266 C 0.15263 0.34254 0.80287 0.0
C1267 C 0.16209 0.32262 0.81082 0.0
C1268 C 0.16436 0.32067 0.83045 0.0
C1269 C 0.15036 0.34386 0.78178 0.0
C1270 C 0.13076 0.31613 0.77193 0.0
C1271 C 0.16831 0.37162 0.7713 0.0
C1272 C 0.18999 0.40152 0.78075 0.0
C1273 C 0.21431 0.4041 0.79238 0.0
C1274 C 0.23455 0.43235 0.80132 0.0
C1275 C 0.23085 0.45826 0.79861 0.0
C1276 C 0.20697 0.45599 0.7869 0.0
C1277 C 0.18665 0.42777 0.77794 0.0
H1278 H 0.24655 0.48012 0.80554 0.0
H1279 H 0.05067 0.20763 0.71678 0.0
H1280 H 0.16536 0.87439 0.8393 0.0
H1281 H 0.17201 0.87451 0.80511 0.0
H1282 H 0.26434 0.88767 0.81317 0.0
H1283 H 0.25805 0.88869 0.84777 0.0
H1284 H 0.26383 0.92182 0.78348 0.0
H1285 H 0.20119 0.81529 0.80199 0.0
H1286 H 0.15758 0.77079 0.81818 0.0
H1287 H 0.09167 0.78296 0.78495 0.0
H1288 H 0.13485 0.82803 0.76883 0.0
H1289 H 0.26137 0.88968 0.68299 0.0
H1290 H 0.26686 0.88898 0.71766 0.0
H1291 H 0.17169 0.86862 0.7242 0.0
H1292 H 0.16586 0.86785 0.68992 0.0
H1293 H 0.18007 0.83412 0.74703 0.0
H1294 H 0.24221 0.94473 0.73191 0.0
H1295 H 0.28546 0.99007 0.71599 0.0
H1296 H 0.35169 0.96999 0.74246 0.0
H1297 H 0.30878 0.92431 0.75837 0.0
C1298 C 0.18717 0.8774 0.83385 0.0
C1299 C 0.21106 0.88117 0.84628 0.0
C1300 C 0.1909 0.87732 0.81423 0.0
C1301 C 0.21839 0.88031 0.80641 0.0
C1302 C 0.24279 0.88504 0.81878 0.0
C1303 C 0.23917 0.88551 0.83856 0.0
C1304 C 0.22092 0.87791 0.78538 0.0
C1305 C 0.24577 0.90239 0.77553 0.0
C1306 C 0.19734 0.85269 0.77485 0.0
C1307 C 0.1713 0.82517 0.78426 0.0
C1308 C 0.1774 0.80858 0.79819 0.0
C1309 C 0.15275 0.78324 0.80735 0.0
C1310 C 0.12188 0.77401 0.80259 0.0
C1311 C 0.11559 0.79011 0.78862 0.0
C1312 C 0.14015 0.81556 0.77946 0.0
C1313 C 0.24171 0.88505 0.69191 0.0
C1314 C 0.21318 0.87878 0.68373 0.0
C1315 C 0.24488 0.88483 0.71175 0.0
C1316 C 0.21978 0.87906 0.72377 0.0
C1317 C 0.19143 0.87297 0.71543 0.0
C1318 C 0.18813 0.87263 0.69575 0.0
C1319 C 0.22216 0.87874 0.74498 0.0
C1320 C 0.1983 0.8535 0.75493 0.0
C1321 C 0.24655 0.90329 0.75552 0.0
C1322 C 0.27229 0.93096 0.74616 0.0
C1323 C 0.26599 0.94991 0.73425 0.0
C1324 C 0.29044 0.97567 0.72524 0.0
C1325 C 0.3213 0.98286 0.72817 0.0
C1326 C 0.32778 0.96437 0.74018 0.0
C1327 C 0.30341 0.93856 0.74921 0.0
H1328 H 0.34019 1.00279 0.72117 0.0
H1329 H 0.10284 0.75439 0.80972 0.0
H1330 H 0.72601 0.8751 0.68775 0.0
H1331 H 0.72364 0.86811 0.72202 0.0
H1332 H 0.67026 0.76837 0.71465 0.0
H1333 H 0.67249 0.77538 0.67999 0.0
H1334 H 0.64714 0.78859 0.74385 0.0
H1335 H 0.74666 0.80247 0.72616 0.0
H1336 H 0.7987 0.82717 0.71128 0.0
H1337 H 0.82653 0.9108 0.74328 0.0
H1338 H 0.77454 0.88681 0.75814 0.0
H1339 H 0.67236 0.77344 0.84384 0.0
H1340 H 0.66853 0.76768 0.80913 0.0
H1341 H 0.72632 0.86733 0.80314 0.0
H1342 H 0.73043 0.87303 0.83754 0.0
H1343 H 0.74623 0.83882 0.78041 0.0
H1344 H 0.64596 0.82879 0.79448 0.0
H1345 H 0.59461 0.8056 0.81007 0.0
H1346 H 0.56893 0.71652 0.78565 0.0
H1347 H 0.62025 0.73925 0.7699 0.0
C1348 C 0.71366 0.85162 0.69337 0.0
C1349 C 0.6995 0.82577 0.68114 0.0
C1350 C 0.71245 0.84765 0.71301 0.0
C1351 C 0.69722 0.8177 0.721 0.0
C1352 C 0.68229 0.79173 0.70885 0.0
C1353 C 0.68355 0.79572 0.68906 0.0
C1354 C 0.69735 0.81405 0.74201 0.0
C1355 C 0.66883 0.79904 0.75183 0.0
C1356 C 0.72558 0.82809 0.75254 0.0
C1357 C 0.75661 0.84286 0.7432 0.0
C1358 C 0.76376 0.82623 0.72988 0.0
C1359 C 0.79329 0.84009 0.72148 0.0
C1360 C 0.81591 0.87052 0.72636 0.0
C1361 C 0.809 0.88722 0.73954 0.0
C1362 C 0.77952 0.8735 0.74796 0.0
C1363 C 0.68402 0.79405 0.83506 0.0
C1364 C 0.70169 0.82368 0.84339 0.0
C1365 C 0.68176 0.79078 0.81523 0.0
C1366 C 0.69704 0.8171 0.80342 0.0
C1367 C 0.71441 0.84664 0.81185 0.0
C1368 C 0.71668 0.84988 0.83156 0.0
C1369 C 0.69609 0.81433 0.78229 0.0
C1370 C 0.72453 0.82804 0.77244 0.0
C1371 C 0.66785 0.79932 0.7718 0.0
C1372 C 0.63703 0.78561 0.78121 0.0
C1373 C 0.62944 0.8042 0.79255 0.0
C1374 C 0.60033 0.79116 0.80139 0.0
C1375 C 0.57857 0.75956 0.79896 0.0
C1376 C 0.58583 0.74098 0.78757 0.0
C1377 C 0.6149 0.75394 0.77864 0.0
H1378 H 0.55604 0.7495 0.80584 0.0
H1379 H 0.83886 0.88116 0.72001 0.0
H1380 H 0.30561 0.9284 0.96191 0.0
H1381 H 0.31208 0.96115 0.98914 0.0
H1382 H 0.22668 0.95987 0.97467 0.0
H1383 H 0.2201 0.9266 0.94697 0.0
H1384 H 0.27177 0.01892 0.98381 0.0
H1385 H 0.22971 0.92234 0.01484 0.0
H1386 H 0.22102 0.87052 0.0238 0.0
H1387 H 0.31549 0.91194 0.04395 0.0
H1388 H 0.3249 0.964 0.03488 0.0
H1389 H 0.30474 0.09794 0.079 0.0
H1390 H 0.27712 0.06225 0.05223 0.0
H1391 H 0.35947 0.05655 0.04007 0.0
H1392 H 0.38688 0.09194 0.0662 0.0
H1393 H 0.3021 0.99727 0.04658 0.0
H1394 H 0.34162 0.09529 1.01201 0.0
H1395 H 0.34423 0.14556 1.00605 0.0
H1396 H 0.24552 0.09805 0.99525 0.0
H1397 H 0.24219 0.0475 1.0016 0.0
C1398 C 0.28775 0.93445 0.96467 0.0
C1399 C 0.26222 0.92458 0.95225 0.0
C1400 C 0.29151 0.95333 0.98035 0.0
C1401 C 0.26983 0.96306 0.98426 0.0
C1402 C 0.2438 0.95276 0.97209 0.0
C1403 C 0.23986 0.93346 0.95633 0.0
C1404 C 0.27567 0.98473 1.0007 0.0
C1405 C 0.27768 1.01381 0.99765 0.0
C1406 C 0.28324 0.9784 0.01896 0.0
C1407 C 0.27807 0.94708 0.02402 0.0
C1408 C 0.24874 0.92038 0.021 0.0
C1409 C 0.24366 0.89096 0.02615 0.0
C1410 C 0.26771 0.88793 0.0344 0.0
C1411 C 0.29689 0.91432 0.03753 0.0
C1412 C 0.3021 0.9438 0.03241 0.0
C1413 C 0.31713 0.08975 0.07024 0.0
C1414 C 0.34807 0.09785 0.07477 0.0
C1415 C 0.30128 0.06918 0.05502 0.0
C1416 C 0.31612 0.05641 0.04418 0.0
C1417 C 0.34738 0.06581 0.04822 0.0
C1418 C 0.36311 0.08628 0.06317 0.0
C1419 C 0.29933 0.03165 0.02946 0.0
C1420 C 0.29543 1.00199 0.03286 0.0
C1421 C 0.28931 0.03727 1.01182 0.0
C1422 C 0.29157 0.06763 1.0076 0.0
C1423 C 0.3204 0.09557 1.00861 0.0
C1424 C 0.32201 0.12412 1.00515 0.0
C1425 C 0.29502 0.12502 1.00042 0.0
C1426 C 0.26638 0.09734 0.99903 0.0
C1427 C 0.26462 0.06873 1.00256 0.0
H1428 H 0.29633 0.14714 0.99769 0.0
H1429 H 0.26371 0.86514 0.03841 0.0
H1430 H 0.81459 0.69358 0.46018 0.0
H1431 H 0.81191 0.72032 0.48912 0.0
H1432 H 0.74679 0.74114 0.46115 0.0
H1433 H 0.7501 0.71579 0.43268 0.0
H1434 H 0.78045 0.7874 0.48219 0.0
H1435 H 0.72437 0.67592 0.49203 0.0
H1436 H 0.71853 0.62359 0.49433 0.0
H1437 H 0.78706 0.65557 0.53886 0.0
H1438 H 0.79356 0.70823 0.53664 0.0
H1439 H 0.68602 0.79084 0.55952 0.0
H1440 H 0.70915 0.78341 0.53048 0.0
H1441 H 0.77617 0.77312 0.56435 0.0
H1442 H 0.75273 0.7797 0.59305 0.0
H1443 H 0.74813 0.72554 0.54143 0.0
H1444 H 0.7982 0.83704 0.53308 0.0
H1445 H 0.79924 0.88723 0.53066 0.0
H1446 H 0.73625 0.85248 0.48324 0.0
H1447 H 0.73492 0.80215 0.48536 0.0
C1448 C 0.8003 0.70448 0.46019 0.0
C1449 C 0.78226 0.70215 0.44419 0.0
C1450 C 0.79848 0.71953 0.47678 0.0
C1451 C 0.77857 0.73238 0.47761 0.0
C1452 C 0.76223 0.73152 0.46115 0.0
C1453 C 0.76402 0.71669 0.4448 0.0
C1454 C 0.77265 0.74496 0.49558 0.0
C1455 C 0.77336 0.77377 0.49513 0.0
C1456 C 0.76357 0.72763 0.51266 0.0
C1457 C 0.75975 0.69606 0.514 0.0
C1458 C 0.73836 0.67183 0.50221 0.0
C1459 C 0.73491 0.64211 0.50351 0.0
C1460 C 0.7525 0.63628 0.51669 0.0
C1461 C 0.77352 0.66014 0.52863 0.0
C1462 C 0.7771 0.68992 0.52735 0.0
C1463 C 0.70648 0.7883 0.56065 0.0
C1464 C 0.71784 0.78631 0.57856 0.0
C1465 C 0.71962 0.78379 0.54404 0.0
C1466 C 0.74449 0.7775 0.5451 0.0
C1467 C 0.75697 0.77767 0.563 0.0
C1468 C 0.74376 0.78185 0.57945 0.0
C1469 C 0.75567 0.76782 0.528 0.0
C1470 C 0.75577 0.73946 0.52862 0.0
C1471 C 0.76498 0.78532 0.511 0.0
C1472 C 0.76633 0.81579 0.50946 0.0
C1473 C 0.78454 0.84011 0.52217 0.0
C1474 C 0.78523 0.8686 0.52082 0.0
C1475 C 0.76784 0.87306 0.5068 0.0
C1476 C 0.7498 0.84906 0.49406 0.0
C1477 C 0.74916 0.82058 0.49528 0.0
H1478 H 0.76835 0.89511 0.5058 0.0
H1479 H 0.74979 0.61326 0.51769 0.0
H1480 H 0.10117 0.28786 0.94594 0.0
H1481 H 0.06676 0.26448 0.97339 0.0
H1482 H 0.07285 0.35284 0.98527 0.0
H1483 H 0.10851 0.37641 0.95885 0.0
H1484 H 0.07584 0.33219 0.01606 0.0
H1485 H 1.00113 0.27594 0.95874 0.0
H1486 H 0.96243 0.23226 0.93217 0.0
H1487 H 0.96413 0.14637 0.98526 0.0
H1488 H 1.00233 0.20096 1.00398 0.0
H1489 H 0.94492 0.30479 0.06619 0.0
H1490 H 0.97996 0.31169 0.04015 0.0
H1491 H 0.97156 0.22266 0.05264 0.0
H1492 H 0.93587 0.21546 0.07906 0.0
H1493 H 0.97334 0.23495 0.01333 0.0
H1494 H 0.03419 0.2825 0.06708 0.0
H1495 H 0.04975 0.31404 0.09627 0.0
H1496 H 0.07274 0.39606 0.06382 0.0
H1497 H 0.0566 0.36485 0.03442 0.0
C1498 C 0.09549 0.30234 0.95465 0.0
C1499 C 0.10796 0.33416 0.95026 0.0
C1500 C 0.0752 0.28874 0.97017 0.0
C1501 C 0.06631 0.30647 0.98144 0.0
C1502 C 0.07915 0.33834 0.97705 0.0
C1503 C 0.0998 0.352 0.96187 0.0
C1504 C 0.04501 0.29316 0.99831 0.0
C1505 C 0.05332 0.31102 0.01516 0.0
C1506 C 1.01645 0.26422 0.99825 0.0
C1507 C 1.00525 0.24138 0.98257 0.0
C1508 C 0.99384 0.25172 0.96129 0.0
C1509 C 0.9681 0.22311 0.94475 0.0
C1510 C 0.9511 0.16614 0.95662 0.0
C1511 C 0.96903 0.16797 0.97855 0.0
C1512 C 0.99409 0.20312 0.99016 0.0
C1513 C 0.94998 0.2863 0.06326 0.0
C1514 C 0.93778 0.2597 0.07488 0.0
C1515 C 0.97027 0.29043 0.04839 0.0
C1516 C 0.97909 0.2681 0.04464 0.0
C1517 C 0.96535 0.24039 0.05536 0.0
C1518 C 0.94486 0.23623 0.07042 0.0
C1519 C 1.00355 0.27497 0.02997 0.0
C1520 C 0.99607 0.25597 0.01392 0.0
C1521 C 0.03332 0.30209 0.03097 0.0
C1522 C 0.04397 0.32127 0.04852 0.0
C1523 C 0.04236 0.30723 0.06615 0.0
C1524 C 0.05123 0.32503 0.08275 0.0
C1525 C 0.06213 0.35702 0.08191 0.0
C1526 C 0.06425 0.37126 0.06445 0.0
C1527 C 0.05525 0.35352 0.0478 0.0
H1528 H 0.06905 0.37079 0.09478 0.0
H1529 H 0.95202 0.17772 0.95108 0.0
H1530 H 0.30919 0.03814 0.43272 0.0
H1531 H 0.28598 1.01218 0.46235 0.0
H1532 H 0.32563 0.10128 0.49056 0.0
H1533 H 0.34955 0.12777 0.46036 0.0
H1534 H 0.3372 0.06213 0.51035 0.0
H1535 H 0.24692 0.05452 0.48258 0.0
H1536 H 0.20686 0.04347 0.45828 0.0
H1537 H 0.17702 0.94601 0.46089 0.0
H1538 H 0.21808 0.95654 0.48433 0.0
H1539 H 0.26735 0.99132 0.59617 0.0
H1540 H 0.27405 0.01981 0.56677 0.0
H1541 H 0.25053 0.93688 0.53461 0.0
H1542 H 0.24351 0.90789 0.56441 0.0
H1543 H 0.22806 0.9758 0.51801 0.0
H1544 H 0.32451 0.98643 0.54204 0.0
H1545 H 0.36413 0.99794 0.5668 0.0
H1546 H 0.37967 0.09099 0.57215 0.0
H1547 H 0.33978 0.07986 0.54761 0.0
C1548 C 0.31259 0.05243 0.44512 0.0
C1549 C 0.33126 0.08511 0.44414 0.0
C1550 C 0.29909 0.03742 0.46214 0.0
C1551 C 0.3037 0.05456 0.47885 0.0
C1552 C 0.32157 0.08743 0.47787 0.0
C1553 C 0.33504 0.10263 0.4606 0.0
C1554 C 0.29174 0.03759 0.4973 0.0
C1555 C 0.31314 0.04373 0.51208 0.0
C1556 C 0.26045 1.0129 0.49959 0.0
C1557 C 0.23595 1.00643 0.48515 0.0
C1558 C 0.23225 0.03077 0.47773 0.0
C1559 C 0.20939 0.0246 0.46402 0.0
C1560 C 0.18963 0.99408 0.45786 0.0
C1561 C 0.19268 0.96968 0.46541 0.0
C1562 C 0.21582 0.97576 0.47888 0.0
C1563 C 0.26283 0.97884 0.58285 0.0
C1564 C 0.25507 0.94736 0.58261 0.0
C1565 C 0.26681 0.99527 0.56601 0.0
C1566 C 0.2635 0.9808 0.54839 0.0
C1567 C 0.25336 0.94864 0.54803 0.0
C1568 C 0.24917 0.932 0.56505 0.0
C1569 C 0.27365 1.00016 0.53071 0.0
C1570 C 0.25198 0.99441 0.51617 0.0
C1571 C 0.30462 0.02533 0.52859 0.0
C1572 C 0.32897 0.03222 0.54312 0.0
C1573 C 0.33624 1.00928 0.54859 0.0
C1574 C 0.35875 0.01574 0.56257 0.0
C1575 C 0.37436 0.04516 0.57108 0.0
C1576 C 0.36754 0.06821 0.56557 0.0
C1577 C 0.345 0.06184 0.55161 0.0
H1578 H 0.39177 0.05012 0.58191 0.0
H1579 H 0.17183 0.9893 0.44733 0.0
H1580 H 0.78376 0.74687 0.09498 0.0
H1581 H 0.77674 0.76988 0.06616 0.0
H1582 H 0.78956 0.70458 0.03241 0.0
H1583 H 0.79703 0.68151 0.06157 0.0
H1584 H 0.81463 0.76459 0.01533 0.0
H1585 H 0.71767 0.6873 0.04365 0.0
H1586 H 0.68048 0.66388 0.07006 0.0
H1587 H 0.67541 0.74755 0.07566 0.0
H1588 H 0.71297 0.77165 0.04944 0.0
H1589 H 0.72722 0.74673 0.93374 0.0
H1590 H 0.75225 0.74455 0.96274 0.0
H1591 H 0.72181 0.80211 0.9908 0.0
H1592 H 0.69559 0.80372 0.96126 0.0
H1593 H 0.70897 0.75288 1.01215 0.0
H1594 H 0.80338 0.82977 0.98296 0.0
H1595 H 0.84247 0.8547 0.95759 0.0
H1596 H 0.85199 0.77334 0.95368 0.0
H1597 H 0.81351 0.74826 0.97914 0.0
C1598 C 0.78613 0.73804 0.08139 0.0
C1599 C 0.79101 0.71242 0.08051 0.0
C1600 C 0.78184 0.75108 0.06492 0.0
C1601 C 0.78184 0.73855 0.04709 0.0
C1602 C 0.78929 0.71457 0.04602 0.0
C1603 C 0.79382 0.70153 0.06265 0.0
C1604 C 0.77121 0.7486 0.03 0.0
C1605 C 0.79146 0.7618 0.01457 0.0
C1606 C 0.74131 0.74601 0.02918 0.0
C1607 C 0.71834 0.73137 0.04471 0.0
C1608 C 0.70877 0.70077 0.05059 0.0
C1609 C 0.68761 0.68737 0.06552 0.0
C1610 C 0.67564 0.70424 0.07456 0.0
C1611 C 0.68473 0.73452 0.06865 0.0
C1612 C 0.70593 0.74805 0.05375 0.0
C1613 C 0.72618 0.75944 0.94596 0.0
C1614 C 0.70925 0.7753 0.94519 0.0
C1615 C 0.74087 0.75839 0.9626 0.0
C1616 C 0.73943 0.77343 0.97909 0.0
C1617 C 0.72345 0.79039 0.97827 0.0
C1618 C 0.70866 0.79154 0.96138 0.0
C1619 C 0.7523 0.76868 0.99726 0.0
C1620 C 0.73237 0.75624 0.01295 0.0
C1621 C 0.78257 0.77218 0.99838 0.0
C1622 C 0.80564 0.78719 0.98297 0.0
C1623 C 0.81387 0.81725 0.97666 0.0
C1624 C 0.83606 0.83149 0.96234 0.0
C1625 C 0.85009 0.81584 0.9542 0.0
C1626 C 0.84165 0.78576 0.96019 0.0
C1627 C 0.81974 0.77156 0.97463 0.0
H1628 H 0.86739 0.82698 0.94319 0.0
H1629 H 0.65928 0.69383 0.08612 0.0
H1630 H 0.04987 0.32791 0.58569 0.0
H1631 H 1.02207 0.30262 0.55715 0.0
H1632 H 0.10077 0.29526 0.53771 0.0
H1633 H 0.12988 0.32207 0.56693 0.0
H1634 H 0.07728 0.31011 0.50841 0.0
H1635 H 0.02989 0.2277 0.55107 0.0
H1636 H 1.00413 0.19485 0.57888 0.0
H1637 H 0.92844 0.21339 0.57345 0.0
H1638 H 0.95385 0.2466 0.54566 0.0
H1639 H 0.95735 0.22239 0.43519 0.0
H1640 H 0.99149 0.22824 0.46227 0.0
H1641 H 0.961 0.28504 0.49103 0.0
H1642 H 0.92804 0.28031 0.46382 0.0
H1643 H 0.96426 0.23267 0.51329 0.0
H1644 H 0.0242 0.32346 0.47075 0.0
H1645 H 0.04709 0.34373 0.4393 0.0
H1646 H 0.09859 0.29521 0.44253 0.0
H1647 H 0.07579 0.27446 0.47397 0.0
C1648 C 0.06164 0.32098 0.57552 0.0
C1649 C 0.09239 0.32727 0.57878 0.0
C1650 C 0.04531 0.30602 0.5591 0.0
C1651 C 0.05869 0.29611 0.54522 0.0
C1652 C 0.08961 0.30235 0.54821 0.0
C1653 C 0.10629 0.31765 0.56492 0.0
C1654 C 0.04006 0.28075 0.52755 0.0
C1655 C 0.05277 0.29264 0.50956 0.0
C1656 C 1.00799 0.25739 0.52857 0.0
C1657 C 0.99384 0.2397 0.54626 0.0
C1658 C 1.00796 0.22514 0.55594 0.0
C1659 C 0.9933 0.20628 0.57164 0.0
C1660 C 0.96453 0.20183 0.57784 0.0
C1661 C 0.95062 0.2167 0.56856 0.0
C1662 C 0.96513 0.2355 0.55281 0.0
C1663 C 0.9573 0.23538 0.44751 0.0
C1664 C 0.93956 0.25045 0.44753 0.0
C1665 C 0.97711 0.23901 0.46289 0.0
C1666 C 0.97898 0.25726 0.47867 0.0
C1667 C 0.96 0.27089 0.47904 0.0
C1668 C 0.94095 0.26794 0.46355 0.0
C1669 C 1.00114 0.26331 0.49471 0.0
C1670 C 0.98896 0.24966 0.5123 0.0
C1671 C 0.03372 0.28395 0.49315 0.0
C1672 C 0.04819 0.29731 0.47462 0.0
C1673 C 0.04034 0.31706 0.46472 0.0
C1674 C 0.05331 0.32865 0.44692 0.0
C1675 C 0.0743 0.32079 0.43893 0.0
C1676 C 0.0824 0.30135 0.44876 0.0
C1677 C 0.0695 0.28972 0.46658 0.0
H1678 H 0.08431 0.32979 0.42515 0.0
H1679 H 0.95298 0.18688 0.58985 0.0
H1680 H 0.81814 0.25469 0.11471 0.0
H1681 H 0.76362 0.24209 0.11545 0.0
H1682 H 0.73498 0.1465 0.12886 0.0
H1683 H 0.7893 0.15868 0.12696 0.0
H1684 H 0.69406 0.14533 0.10691 0.0
H1685 H 0.74248 0.20581 0.16331 0.0
H1686 H 0.78217 0.25172 0.18091 0.0
H1687 H 0.7555 0.31029 0.15095 0.0
H1688 H 0.71584 0.26475 0.13306 0.0
H1689 H 0.54465 0.10104 0.14517 0.0
H1690 H 0.59916 0.11507 0.14095 0.0
H1691 H 0.62112 0.20616 0.12125 0.0
H1692 H 0.56678 0.19267 0.12605 0.0
H1693 H 0.66516 0.21084 0.14539 0.0
H1694 H 0.61446 0.1487 0.09033 0.0
H1695 H 0.57499 0.10224 0.07308 0.0
H1696 H 0.60591 0.04581 0.10149 0.0
H1697 H 0.64532 0.09188 0.1191 0.0
C1698 C 0.80019 0.23093 0.11767 0.0
C1699 C 0.80816 0.20773 0.12082 0.0
C1700 C 0.76892 0.22376 0.11828 0.0
C1701 C 0.74488 0.19344 0.12275 0.0
C1702 C 0.75284 0.17011 0.12545 0.0
C1703 C 0.78402 0.1771 0.12436 0.0
C1704 C 0.71159 0.18597 0.12479 0.0
C1705 C 0.68783 0.1595 0.11556 0.0
C1706 C 0.70308 0.20468 0.13568 0.0
C1707 C 0.72638 0.23193 0.14675 0.0
C1708 C 0.74515 0.2285 0.16045 0.0
C1709 C 0.76763 0.25445 0.17047 0.0
C1710 C 0.7714 0.28391 0.16701 0.0
C1711 C 0.75257 0.28746 0.1536 0.0
C1712 C 0.73005 0.26158 0.14354 0.0
C1713 C 0.56104 0.12417 0.14007 0.0
C1714 C 0.55105 0.14565 0.13595 0.0
C1715 C 0.59227 0.13208 0.13747 0.0
C1716 C 0.6144 0.1616 0.13054 0.0
C1717 C 0.6046 0.18319 0.12653 0.0
C1718 C 0.57335 0.1753 0.12913 0.0
C1719 C 0.64776 0.17006 0.12771 0.0
C1720 C 0.67148 0.19672 0.13676 0.0
C1721 C 0.65621 0.15138 0.11681 0.0
C1722 C 0.63266 0.1237 0.10615 0.0
C1723 C 0.6127 0.12634 0.09299 0.0
C1724 C 0.59036 0.10009 0.08314 0.0
C1725 C 0.5879 0.07108 0.08622 0.0
C1726 C 0.60783 0.06829 0.09913 0.0
C1727 C 0.63019 0.09447 0.10903 0.0
H1728 H 0.57058 0.05078 0.07858 0.0
H1729 H 0.78888 0.30399 0.17474 0.0
H1730 H 0.65078 0.45981 0.37304 0.0
H1731 H 0.61057 0.40524 0.37726 0.0
H1732 H 0.55803 0.43349 0.41264 0.0
H1733 H 0.59838 0.48811 0.40863 0.0
H1734 H 0.55583 0.3842 0.42755 0.0
H1735 H 0.53774 0.41002 0.36536 0.0
H1736 H 0.55091 0.42969 0.33263 0.0
H1737 H 0.57514 0.35972 0.31973 0.0
H1738 H 0.56252 0.3399 0.35248 0.0
H1739 H 0.4086 0.24202 0.42003 0.0
H1740 H 0.45177 0.29587 0.41879 0.0
H1741 H 0.50818 0.26557 0.38928 0.0
H1742 H 0.46521 0.21163 0.3905 0.0
H1743 H 0.50857 0.31541 0.37167 0.0
H1744 H 0.52411 0.28897 0.43472 0.0
H1745 H 0.50854 0.26954 0.46733 0.0
H1746 H 0.4859 0.3412 0.4783 0.0
H1747 H 0.50094 0.36081 0.44565 0.0
C1748 C 0.6306 0.45446 0.38164 0.0
C1749 C 0.62785 0.47851 0.39041 0.0
C1750 C 0.60753 0.42315 0.38404 0.0
C1751 C 0.58083 0.41502 0.39505 0.0
C1752 C 0.57831 0.43896 0.40408 0.0
C1753 C 0.60149 0.47028 0.4018 0.0
C1754 C 0.55553 0.38167 0.39705 0.0
C1755 C 0.54527 0.36933 0.41529 0.0
C1756 C 0.54188 0.36184 0.38114 0.0
C1757 C 0.54951 0.37369 0.36144 0.0
C1758 C 0.54612 0.39899 0.35559 0.0
C1759 C 0.55345 0.41014 0.33702 0.0
C1760 C 0.56394 0.39602 0.32412 0.0
C1761 C 0.56706 0.37067 0.32975 0.0
C1762 C 0.55981 0.35945 0.34831 0.0
C1763 C 0.43031 0.24667 0.41349 0.0
C1764 C 0.4333 0.22229 0.4054 0.0
C1765 C 0.45505 0.27756 0.41281 0.0
C1766 C 0.48336 0.2849 0.40396 0.0
C1767 C 0.48661 0.26058 0.39617 0.0
C1768 C 0.462 0.22964 0.397 0.0
C1769 C 0.50903 0.31801 0.40213 0.0
C1770 C 0.51926 0.3303 0.38391 0.0
C1771 C 0.52233 0.33786 0.41803 0.0
C1772 C 0.51337 0.32617 0.43768 0.0
C1773 C 0.51557 0.30043 0.44404 0.0
C1774 C 0.50689 0.28941 0.46254 0.0
C1775 C 0.49616 0.30408 0.47486 0.0
C1776 C 0.49418 0.32984 0.46873 0.0
C1777 C 0.5028 0.34093 0.45023 0.0
H1778 H 0.48946 0.29552 0.48918 0.0
H1779 H 0.56959 0.40467 0.30975 0.0
H1780 H 0.84306 0.38747 0.1542 0.0
H1781 H 0.82806 0.42724 0.14983 0.0
H1782 H 0.9084 0.47984 0.11417 0.0
H1783 H 0.92396 0.44054 0.11885 0.0
H1784 H 0.90198 0.51739 0.13927 0.0
H1785 H 0.83453 0.43721 0.09542 0.0
H1786 H 0.79543 0.38365 0.08602 0.0
H1787 H 0.72941 0.385 0.12489 0.0
H1788 H 0.76828 0.43845 0.13471 0.0
H1789 H 0.86288 0.62586 0.10308 0.0
H1790 H 0.87397 0.58318 0.10516 0.0
H1791 H 0.79048 0.52979 0.13819 0.0
H1792 H 0.77878 0.5722 0.1358 0.0
H1793 H 0.79776 0.49206 0.11475 0.0
H1794 H 0.86363 0.57042 0.15926 0.0
H1795 H 0.9021 0.62334 0.1701 0.0
H1796 H 0.97028 0.62472 0.1319 0.0
H1797 H 0.93205 0.57193 0.12064 0.0
C1798 C 0.85768 0.40758 0.14551 0.0
C1799 C 0.88476 0.41069 0.13688 0.0
C1800 C 0.84888 0.43021 0.14287 0.0
C1801 C 0.86688 0.45651 0.1315 0.0
C1802 C 0.89401 0.45977 0.12296 0.0
C1803 C 0.90276 0.4371 0.12553 0.0
C1804 C 0.85781 0.48089 0.12876 0.0
C1805 C 0.87935 0.51188 0.13364 0.0
C1806 C 0.82792 0.47372 0.12197 0.0
C1807 C 0.80442 0.44172 0.11593 0.0
C1808 C 0.81174 0.42601 0.10206 0.0
C1809 C 0.78961 0.39568 0.09664 0.0
C1810 C 0.75998 0.3809 0.10489 0.0
C1811 C 0.75239 0.39646 0.11853 0.0
C1812 C 0.77445 0.42679 0.12401 0.0
C1813 C 0.8466 0.60493 0.11061 0.0
C1814 C 0.82001 0.60272 0.11939 0.0
C1815 C 0.85312 0.58053 0.1119 0.0
C1816 C 0.83349 0.55339 0.12221 0.0
C1817 C 0.80615 0.55049 0.13025 0.0
C1818 C 0.79948 0.57484 0.12886 0.0
C1819 C 0.84206 0.52864 0.12511 0.0
C1820 C 0.82042 0.49759 0.12033 0.0
C1821 C 0.87177 0.53567 0.13218 0.0
C1822 C 0.89488 0.56735 0.13898 0.0
C1823 C 0.88676 0.5821 0.15307 0.0
C1824 C 0.90853 0.61205 0.15931 0.0
C1825 C 0.93859 0.62741 0.15165 0.0
C1826 C 0.94697 0.61281 0.13779 0.0
C1827 C 0.92527 0.58286 0.13149 0.0
H1828 H 0.95541 0.65061 0.15649 0.0
H1829 H 0.74289 0.35741 0.10068 0.0
H1830 H 0.56968 0.19552 0.38907 0.0
H1831 H 0.62457 0.21036 0.39304 0.0
H1832 H 0.59897 0.11345 0.39327 0.0
H1833 H 0.54419 0.0984 0.389 0.0
H1834 H 0.64073 0.14474 0.42101 0.0
H1835 H 0.63245 0.15982 0.35425 0.0
H1836 H 0.61976 0.18132 0.3263 0.0
H1837 H 0.68473 0.2743 0.34491 0.0
H1838 H 0.69751 0.25334 0.37312 0.0
H1839 H 0.78977 0.1593 0.40699 0.0
H1840 H 0.73559 0.14735 0.40548 0.0
H1841 H 0.7665 0.24522 0.39975 0.0
H1842 H 0.82086 0.25727 0.40061 0.0
H1843 H 0.72213 0.21519 0.37575 0.0
H1844 H 0.7319 0.20114 0.44194 0.0
H1845 H 0.74457 0.18047 0.47031 0.0
H1846 H 0.6771 0.08714 0.45368 0.0
H1847 H 0.66431 0.10722 0.42508 0.0
C1848 C 0.57566 0.1773 0.38975 0.0
C1849 C 0.55218 0.14567 0.38869 0.0
C1850 C 0.60718 0.18586 0.39209 0.0
C1851 C 0.61615 0.16307 0.39335 0.0
C1852 C 0.59279 0.13153 0.39244 0.0
C1853 C 0.56132 0.12295 0.39006 0.0
C1854 C 0.64975 0.17193 0.3956 0.0
C1855 C 0.65846 0.15988 0.41098 0.0
C1856 C 0.67324 0.1924 0.38288 0.0
C1857 C 0.66569 0.20502 0.36589 0.0
C1858 C 0.64385 0.18486 0.35246 0.0
C1859 C 0.63667 0.19694 0.33656 0.0
C1860 C 0.65136 0.22916 0.33386 0.0
C1861 C 0.67333 0.24935 0.34703 0.0
C1862 C 0.68057 0.23738 0.36297 0.0
C1863 C 0.78515 0.1784 0.40567 0.0
C1864 C 0.80993 0.20932 0.40402 0.0
C1865 C 0.75397 0.1715 0.40485 0.0
C1866 C 0.74659 0.19534 0.40273 0.0
C1867 C 0.77132 0.22629 0.40138 0.0
C1868 C 0.80253 0.23319 0.40198 0.0
C1869 C 0.71325 0.18792 0.40117 0.0
C1870 C 0.70452 0.2002 0.38588 0.0
C1871 C 0.68978 0.16783 0.41406 0.0
C1872 C 0.69735 0.15568 0.43128 0.0
C1873 C 0.71992 0.17619 0.44427 0.0
C1874 C 0.7271 0.16459 0.4604 0.0
C1875 C 0.7117 0.13251 0.46377 0.0
C1876 C 0.68903 0.11198 0.45104 0.0
C1877 C 0.68178 0.12346 0.43488 0.0
H1878 H 0.7173 0.12357 0.47626 0.0
H1879 H 0.64578 0.23847 0.32154 0.0
H1880 H 0.40132 0.25105 0.12059 0.0
H1881 H 0.44385 0.30487 0.12284 0.0
H1882 H 0.51098 0.27352 0.12055 0.0
H1883 H 0.46835 0.2194 0.11919 0.0
H1884 H 0.52923 0.31538 0.14597 0.0
H1885 H 0.49537 0.31245 0.08198 0.0
H1886 H 0.45772 0.30267 0.05623 0.0
H1887 H 0.43511 0.36793 0.08123 0.0
H1888 H 0.47234 0.37782 0.10726 0.0
H1889 H 0.6599 0.46894 0.13441 0.0
H1890 H 0.61949 0.41464 0.1293 0.0
H1891 H 0.54826 0.43981 0.13602 0.0
H1892 H 0.58843 0.49426 0.14029 0.0
H1893 H 0.53379 0.40099 0.10717 0.0
H1894 H 0.56719 0.40219 0.17171 0.0
H1895 H 0.60569 0.41201 0.19693 0.0
H1896 H 0.63041 0.34983 0.16972 0.0
H1897 H 0.5923 0.33993 0.14421 0.0
C1898 C 0.42513 0.25555 0.12031 0.0
C1899 C 0.43129 0.23074 0.11959 0.0
C1900 C 0.44958 0.28652 0.12153 0.0
C1901 C 0.48095 0.29368 0.12156 0.0
C1902 C 0.48713 0.26889 0.12056 0.0
C1903 C 0.46265 0.23785 0.11968 0.0
C1904 C 0.50717 0.32676 0.12342 0.0
C1905 C 0.53041 0.33394 0.13721 0.0
C1906 C 0.50874 0.35143 0.11236 0.0
C1907 C 0.48647 0.34567 0.09665 0.0
C1908 C 0.48223 0.32457 0.08204 0.0
C1909 C 0.46098 0.31903 0.06739 0.0
C1910 C 0.44399 0.33462 0.06712 0.0
C1911 C 0.44827 0.35585 0.08147 0.0
C1912 C 0.46947 0.36146 0.09616 0.0
C1913 C 0.63567 0.46305 0.13468 0.0
C1914 C 0.62765 0.48626 0.13791 0.0
C1915 C 0.61248 0.4318 0.13194 0.0
C1916 C 0.58062 0.42281 0.1325 0.0
C1917 C 0.57257 0.44594 0.13558 0.0
C1918 C 0.5957 0.47716 0.13826 0.0
C1919 C 0.55561 0.38949 0.12975 0.0
C1920 C 0.53262 0.38233 0.11581 0.0
C1921 C 0.5544 0.36481 0.14057 0.0
C1922 C 0.57712 0.37056 0.15597 0.0
C1923 C 0.58098 0.39077 0.17105 0.0
C1924 C 0.60271 0.39632 0.1854 0.0
C1925 C 0.62054 0.38161 0.1849 0.0
C1926 C 0.61661 0.36124 0.17008 0.0
C1927 C 0.59493 0.35563 0.15568 0.0
H1928 H 0.63736 0.38595 0.19602 0.0
H1929 H 0.42754 0.33028 0.05576 0.0
H1930 H 0.87579 0.63435 0.40937 0.0
H1931 H 0.88795 0.59233 0.40791 0.0
H1932 H 0.78988 0.52476 0.40358 0.0
H1933 H 0.77736 0.56678 0.40488 0.0
H1934 H 0.82348 0.50589 0.42802 0.0
H1935 H 0.83025 0.54457 0.36482 0.0
H1936 H 0.84801 0.58504 0.3401 0.0
H1937 H 0.94329 0.61023 0.35091 0.0
H1938 H 0.92611 0.57021 0.37592 0.0
H1939 H 0.84087 0.3798 0.39392 0.0
H1940 H 0.82632 0.4198 0.39835 0.0
H1941 H 0.92312 0.49134 0.39425 0.0
H1942 H 0.93773 0.45153 0.38906 0.0
H1943 H 0.88886 0.50772 0.37423 0.0
H1944 H 0.88313 0.46986 0.43733 0.0
H1945 H 0.86635 0.43054 0.4627 0.0
H1946 H 0.77065 0.40473 0.45291 0.0
H1947 H 0.78683 0.44363 0.42729 0.0
C1948 C 0.85666 0.61057 0.40837 0.0
C1949 C 0.82553 0.6041 0.40718 0.0
C1950 C 0.86372 0.58652 0.40745 0.0
C1951 C 0.83988 0.55536 0.40543 0.0
C1952 C 0.80869 0.54861 0.4051 0.0
C1953 C 0.80159 0.57272 0.40583 0.0
C1954 C 0.84774 0.53016 0.40276 0.0
C1955 C 0.83741 0.50602 0.41613 0.0
C1956 C 0.86652 0.53065 0.38748 0.0
C1957 C 0.87691 0.55461 0.37238 0.0
C1958 C 0.85501 0.55892 0.36204 0.0
C1959 C 0.86496 0.58174 0.34796 0.0
C1960 C 0.89676 0.60025 0.34397 0.0
C1961 C 0.91867 0.59591 0.35403 0.0
C1962 C 0.90883 0.57314 0.36815 0.0
C1963 C 0.8591 0.40403 0.39382 0.0
C1964 C 0.89055 0.41227 0.39112 0.0
C1965 C 0.85075 0.42695 0.39658 0.0
C1966 C 0.87361 0.45875 0.39689 0.0
C1967 C 0.90498 0.46704 0.39416 0.0
C1968 C 0.91336 0.44415 0.39137 0.0
C1969 C 0.86483 0.48338 0.39958 0.0
C1970 C 0.87493 0.50746 0.38616 0.0
C1971 C 0.84599 0.48288 0.41488 0.0
C1972 C 0.83617 0.45944 0.43025 0.0
C1973 C 0.85848 0.45562 0.44048 0.0
C1974 C 0.84908 0.43344 0.45492 0.0
C1975 C 0.81745 0.41508 0.45938 0.0
C1976 C 0.79515 0.41893 0.44942 0.0
C1977 C 0.80442 0.44106 0.43494 0.0
H1978 H 0.81022 0.39793 0.47057 0.0
H1979 H 0.90443 0.61791 0.33306 0.0
H1980 H 0.2645 0.81693 0.63995 0.0
H1981 H 0.25434 0.76348 0.64129 0.0
H1982 H 0.1768 0.73456 0.60273 0.0
H1983 H 0.18604 0.7879 0.602 0.0
H1984 H 0.15958 0.6945 0.62962 0.0
H1985 H 0.25134 0.74177 0.59024 0.0
H1986 H 0.30553 0.78147 0.58245 0.0
H1987 H 0.33871 0.75594 0.63173 0.0
H1988 H 0.28466 0.71629 0.63994 0.0
H1989 H 0.13285 0.54293 0.61163 0.0
H1990 H 0.14779 0.59764 0.608 0.0
H1991 H 0.2208 0.62361 0.64954 0.0
H1992 H 0.20603 0.56871 0.6532 0.0
H1993 H 0.24118 0.6652 0.62129 0.0
H1994 H 0.15041 0.61886 0.66088 0.0
H1995 H 0.09638 0.58031 0.66976 0.0
H1996 H 0.06172 0.6051 0.62085 0.0
H1997 H 0.11559 0.64352 0.61153 0.0
C1998 C 0.24548 0.79933 0.63154 0.0
C1999 C 0.22616 0.80691 0.6208 0.0
C2000 C 0.23975 0.76862 0.63226 0.0
C2001 C 0.21502 0.74471 0.6219 0.0
C2002 C 0.19605 0.75239 0.61088 0.0
C2003 C 0.20146 0.78303 0.61039 0.0
C2004 C 0.20803 0.71158 0.62317 0.0
C2005 C 0.17739 0.68814 0.62744 0.0
C2006 C 0.23133 0.70304 0.62099 0.0
C2007 C 0.26392 0.72621 0.61577 0.0
C2008 C 0.27018 0.74468 0.59945 0.0
C2009 C 0.30087 0.76718 0.59496 0.0
C2010 C 0.32553 0.77127 0.60662 0.0
C2011 C 0.31957 0.75275 0.62273 0.0
C2012 C 0.28892 0.73022 0.62728 0.0
C2013 C 0.15202 0.56019 0.62009 0.0
C2014 C 0.16792 0.55117 0.6329 0.0
C2015 C 0.16059 0.5916 0.61797 0.0
C2016 C 0.18509 0.61493 0.62875 0.0
C2017 C 0.20176 0.60617 0.64108 0.0
C2018 C 0.19329 0.57469 0.64314 0.0
C2019 C 0.19267 0.64821 0.62747 0.0
C2020 C 0.22339 0.67163 0.62331 0.0
C2021 C 0.16949 0.65682 0.62979 0.0
C2022 C 0.13706 0.63385 0.63541 0.0
C2023 C 0.13128 0.61593 0.65195 0.0
C2024 C 0.10068 0.59413 0.65707 0.0
C2025 C 0.07564 0.5902 0.64585 0.0
C2026 C 0.08114 0.60814 0.62951 0.0
C2027 C 0.1117 0.62995 0.62431 0.0
H2028 H 0.05196 0.57331 0.64984 0.0
H2029 H 0.34926 0.78876 0.60315 0.0
H2030 H 0.38562 0.8307 0.9009 0.0
H2031 H 0.42564 0.81606 0.90539 0.0
H2032 H 0.49672 0.90838 0.88874 0.0
H2033 H 0.45687 0.92324 0.88432 0.0
H2034 H 0.50628 0.86637 0.87163 0.0
H2035 H 0.48614 0.88379 0.93561 0.0
H2036 H 0.454 0.87712 0.9638 0.0
H2037 H 0.42453 0.7796 0.96532 0.0
H2038 H 0.45619 0.78561 0.93697 0.0
H2039 H 0.64094 0.86574 0.9052 0.0
H2040 H 0.59779 0.87638 0.90398 0.0
H2041 H 0.53168 0.77801 0.90725 0.0
H2042 H 0.57488 0.76693 0.90807 0.0
H2043 H 0.51837 0.82038 0.9313 0.0
H2044 H 0.53878 0.80338 0.86739 0.0
H2045 H 0.57229 0.8106 0.83991 0.0
H2046 H 0.60188 0.90818 0.83871 0.0
H2047 H 0.56891 0.9016 0.86652 0.0
C2048 C 0.40979 0.84807 0.89842 0.0
C2049 C 0.41788 0.87823 0.89225 0.0
C2050 C 0.43273 0.83961 0.90098 0.0
C2051 C 0.46439 0.86115 0.89758 0.0
C2052 C 0.47252 0.89125 0.89142 0.0
C2053 C 0.44961 0.8997 0.88883 0.0
C2054 C 0.48897 0.85221 0.90002 0.0
C2055 C 0.50905 0.85668 0.88478 0.0
C2056 C 0.49234 0.83879 0.917 0.0
C2057 C 0.47327 0.83509 0.93404 0.0
C2058 C 0.4726 0.86087 0.94186 0.0
C2059 C 0.45451 0.85722 0.95789 0.0
C2060 C 0.43716 0.82794 0.96631 0.0
C2061 C 0.43794 0.80226 0.95876 0.0
C2062 C 0.45597 0.80578 0.94272 0.0
C2063 C 0.61728 0.84627 0.90592 0.0
C2064 C 0.61148 0.81542 0.90672 0.0
C2065 C 0.5926 0.85246 0.90517 0.0
C2066 C 0.56151 0.82802 0.90546 0.0
C2067 C 0.55551 0.79723 0.90705 0.0
C2068 C 0.58025 0.79095 0.90747 0.0
C2069 C 0.53555 0.83481 0.90299 0.0
C2070 C 0.51535 0.82998 0.91818 0.0
C2071 C 0.53206 0.84797 0.88601 0.0
C2072 C 0.55165 0.85206 0.86917 0.0
C2073 C 0.55266 0.82644 0.86138 0.0
C2074 C 0.57152 0.83041 0.84572 0.0
C2075 C 0.58929 0.85986 0.83756 0.0
C2076 C 0.58814 0.88539 0.84506 0.0
C2077 C 0.56936 0.88155 0.86078 0.0
H2078 H 0.60388 0.86288 0.82542 0.0
H2079 H 0.42317 0.82516 0.97873 0.0
H2080 H 0.49704 0.58444 0.6425 0.0
H2081 H 0.44265 0.54432 0.63794 0.0
H2082 H 0.41977 0.61454 0.62199 0.0
H2083 H 0.4741 0.65516 0.62737 0.0
H2084 H 0.37466 0.57207 0.6438 0.0
H2085 H 0.42836 0.56746 0.5885 0.0
H2086 H 0.46921 0.56353 0.57078 0.0
H2087 H 0.43988 0.47407 0.59575 0.0
H2088 H 0.39911 0.47765 0.61381 0.0
H2089 H 0.22324 0.46043 0.61091 0.0
H2090 H 0.277 0.50395 0.6118 0.0
H2091 H 0.30998 0.43986 0.6237 0.0
H2092 H 0.25656 0.39624 0.62167 0.0
H2093 H 0.34987 0.48174 0.60228 0.0
H2094 H 0.29837 0.48784 0.6592 0.0
H2095 H 0.25634 0.49083 0.67615 0.0
H2096 H 0.28092 0.57687 0.64796 0.0
H2097 H 0.32293 0.57422 0.6307 0.0
C2098 C 0.48049 0.59159 0.63831 0.0
C2099 C 0.49033 0.62332 0.63532 0.0
C2100 C 0.44928 0.56842 0.63544 0.0
C2101 C 0.42693 0.57614 0.62926 0.0
C2102 C 0.43645 0.6078 0.62663 0.0
C2103 C 0.46771 0.63106 0.62956 0.0
C2104 C 0.39384 0.55114 0.62545 0.0
C2105 C 0.36926 0.55254 0.63452 0.0
C2106 C 0.38648 0.52525 0.61356 0.0
C2107 C 0.41085 0.52295 0.60262 0.0
C2108 C 0.43076 0.54704 0.5903 0.0
C2109 C 0.45387 0.54486 0.58019 0.0
C2110 C 0.45718 0.5186 0.58217 0.0
C2111 C 0.43731 0.49442 0.59424 0.0
C2112 C 0.41418 0.49649 0.6044 0.0
C2113 C 0.242 0.45557 0.61345 0.0
C2114 C 0.23546 0.42474 0.61622 0.0
C2115 C 0.27283 0.48059 0.61418 0.0
C2116 C 0.29785 0.47558 0.61838 0.0
C2117 C 0.29135 0.44466 0.62052 0.0
C2118 C 0.26065 0.4196 0.61934 0.0
C2119 C 0.33064 0.50226 0.62092 0.0
C2120 C 0.3552 0.50124 0.61157 0.0
C2121 C 0.33796 0.52842 0.6326 0.0
C2122 C 0.31362 0.53071 0.64357 0.0
C2123 C 0.2948 0.50739 0.65662 0.0
C2124 C 0.27097 0.50901 0.66626 0.0
C2125 C 0.26592 0.53399 0.6631 0.0
C2126 C 0.28485 0.55753 0.65039 0.0
C2127 C 0.30871 0.55601 0.6407 0.0
H2128 H 0.24736 0.53512 0.6705 0.0
H2129 H 0.4751 0.51696 0.57433 0.0
H2130 H 0.25181 0.80133 0.88992 0.0
H2131 H 0.23758 0.74653 0.88871 0.0
H2132 H 0.15505 0.72175 0.92157 0.0
H2133 H 0.16896 0.77672 0.92274 0.0
H2134 H 0.18671 0.69018 0.93329 0.0
H2135 H 0.14699 0.70908 0.87574 0.0
H2136 H 0.14974 0.73648 0.84605 0.0
H2137 H 0.21952 0.71705 0.8247 0.0
H2138 H 0.21745 0.68984 0.85442 0.0
H2139 H 0.1072 0.52674 0.91395 0.0
H2140 H 0.12184 0.58154 0.91728 0.0
H2141 H 0.19925 0.60788 0.8793 0.0
H2142 H 0.18429 0.55303 0.87553 0.0
H2143 H 0.16981 0.63884 0.87054 0.0
H2144 H 0.21025 0.62013 0.92739 0.0
H2145 H 0.20903 0.59333 0.95708 0.0
H2146 H 0.14024 0.613 0.97982 0.0
H2147 H 0.14071 0.63956 0.95013 0.0
C2148 C 0.23072 0.78438 0.89706 0.0
C2149 C 0.21153 0.79368 0.9064 0.0
C2150 C 0.22254 0.75291 0.89626 0.0
C2151 C 0.19506 0.72983 0.9049 0.0
C2152 C 0.17634 0.73905 0.91477 0.0
C2153 C 0.18432 0.77055 0.91539 0.0
C2154 C 0.18562 0.69611 0.90314 0.0
C2155 C 0.18257 0.67882 0.91959 0.0
C2156 C 0.18098 0.68136 0.88526 0.0
C2157 C 0.1823 0.69771 0.86738 0.0
C2158 C 0.16313 0.7109 0.86479 0.0
C2159 C 0.16453 0.72635 0.84793 0.0
C2160 C 0.18488 0.72861 0.8335 0.0
C2161 C 0.20381 0.71534 0.8359 0.0
C2162 C 0.20251 0.69986 0.85274 0.0
C2163 C 0.12726 0.54413 0.9062 0.0
C2164 C 0.14452 0.53524 0.89446 0.0
C2165 C 0.13581 0.5756 0.90827 0.0
C2166 C 0.16191 0.59912 0.8987 0.0
C2167 C 0.17909 0.59033 0.8869 0.0
C2168 C 0.17063 0.55887 0.88488 0.0
C2169 C 0.17093 0.63276 0.9007 0.0
C2170 C 0.17391 0.65009 0.88428 0.0
C2171 C 0.17571 0.64756 0.9186 0.0
C2172 C 0.17526 0.63153 0.93645 0.0
C2173 C 0.19464 0.61849 0.93865 0.0
C2174 C 0.19413 0.60339 0.95549 0.0
C2175 C 0.1745 0.60138 0.97031 0.0
C2176 C 0.15539 0.61453 0.96832 0.0
C2177 C 0.15578 0.62963 0.95149 0.0
H2178 H 0.17415 0.5897 0.98334 0.0
H2179 H 0.18594 0.74055 0.82044 0.0
H2180 H 0.45453 0.92201 0.64137 0.0
H2181 H 0.49333 0.90617 0.63652 0.0
H2182 H 0.42003 0.81113 0.62802 0.0
H2183 H 0.3808 0.82655 0.6338 0.0
H2184 H 0.46602 0.81256 0.64893 0.0
H2185 H 0.4617 0.85913 0.59023 0.0
H2186 H 0.46284 0.90017 0.5699 0.0
H2187 H 0.55614 0.96429 0.58863 0.0
H2188 H 0.55542 0.92376 0.60927 0.0
H2189 H 0.57509 0.76794 0.61718 0.0
H2190 H 0.53073 0.77697 0.61847 0.0
H2191 H 0.59445 0.87612 0.62181 0.0
H2192 H 0.63855 0.86729 0.61943 0.0
H2193 H 0.54952 0.86858 0.6014 0.0
H2194 H 0.5526 0.82457 0.6622 0.0
H2195 H 0.55216 0.78437 0.68305 0.0
H2196 H 0.46234 0.71666 0.66109 0.0
H2197 H 0.4624 0.75642 0.63999 0.0
C2198 C 0.44645 0.8976 0.6388 0.0
C2199 C 0.41426 0.87565 0.63803 0.0
C2200 C 0.46883 0.88862 0.63574 0.0
C2201 C 0.45979 0.85749 0.63153 0.0
C2202 C 0.42773 0.83533 0.6311 0.0
C2203 C 0.40525 0.84428 0.63426 0.0
C2204 C 0.4839 0.84833 0.62756 0.0
C2205 C 0.484 0.82452 0.63834 0.0
C2206 C 0.50781 0.86414 0.61396 0.0
C2207 C 0.50841 0.88845 0.6014 0.0
C2208 C 0.48239 0.88203 0.59009 0.0
C2209 C 0.48297 0.9052 0.5785 0.0
C2210 C 0.50952 0.93483 0.578 0.0
C2211 C 0.53559 0.94134 0.58904 0.0
C2212 C 0.53512 0.91826 0.60067 0.0
C2213 C 0.57961 0.79168 0.61797 0.0
C2214 C 0.61048 0.81687 0.61818 0.0
C2215 C 0.55416 0.79685 0.61891 0.0
C2216 C 0.55895 0.82728 0.62072 0.0
C2217 C 0.58982 0.8524 0.62045 0.0
C2218 C 0.61517 0.84729 0.61908 0.0
C2219 C 0.53223 0.83331 0.62311 0.0
C2220 C 0.53152 0.85649 0.61197 0.0
C2221 C 0.50794 0.81709 0.63648 0.0
C2222 C 0.50764 0.79337 0.64941 0.0
C2223 C 0.53282 0.80107 0.66178 0.0
C2224 C 0.53263 0.77837 0.67364 0.0
C2225 C 0.50728 0.74796 0.67336 0.0
C2226 C 0.48198 0.74022 0.66128 0.0
C2227 C 0.48206 0.76282 0.64939 0.0
H2228 H 0.5072 0.73041 0.68252 0.0
H2229 H 0.50992 0.95274 0.56903 0.0
H2230 H 0.5004 0.58209 0.90056 0.0
H2231 H 0.44608 0.54134 0.90509 0.0
H2232 H 0.4151 0.60381 0.88543 0.0
H2233 H 0.46952 0.64504 0.88131 0.0
H2234 H 0.38163 0.57132 0.91593 0.0
H2235 H 0.41124 0.54689 0.85669 0.0
H2236 H 0.44371 0.53627 0.83487 0.0
H2237 H 0.42698 0.45687 0.86817 0.0
H2238 H 0.39474 0.46728 0.89036 0.0
H2239 H 0.22328 0.45665 0.89528 0.0
H2240 H 0.27768 0.49865 0.89426 0.0
H2241 H 0.30745 0.43596 0.9153 0.0
H2242 H 0.25301 0.3937 0.91633 0.0
H2243 H 0.34157 0.46853 0.88465 0.0
H2244 H 0.31054 0.49278 0.94355 0.0
H2245 H 0.27747 0.50355 0.96476 0.0
H2246 H 0.29612 0.58344 0.93135 0.0
H2247 H 0.32898 0.5729 0.90978 0.0
C2248 C 0.4821 0.58735 0.89738 0.0
C2249 C 0.4895 0.61696 0.89052 0.0
C2250 C 0.45095 0.56386 0.89982 0.0
C2251 C 0.42632 0.56927 0.89541 0.0
C2252 C 0.4336 0.59895 0.88888 0.0
C2253 C 0.46478 0.62245 0.88637 0.0
C2254 C 0.39306 0.54389 0.89744 0.0
C2255 C 0.3728 0.54899 0.90889 0.0
C2256 C 0.3815 0.51442 0.8886 0.0
C2257 C 0.40085 0.50807 0.8753 0.0
C2258 C 0.4147 0.52732 0.85945 0.0
C2259 C 0.43303 0.52131 0.847 0.0
C2260 C 0.43748 0.49596 0.85017 0.0
C2261 C 0.42355 0.47652 0.86576 0.0
C2262 C 0.40523 0.48246 0.87827 0.0
C2263 C 0.24131 0.45179 0.8999 0.0
C2264 C 0.23361 0.42167 0.90593 0.0
C2265 C 0.27249 0.47594 0.89935 0.0
C2266 C 0.2968 0.47062 0.90477 0.0
C2267 C 0.28918 0.44071 0.91104 0.0
C2268 C 0.25795 0.41657 0.91173 0.0
C2269 C 0.33016 0.49591 0.90318 0.0
C2270 C 0.35043 0.49081 0.89176 0.0
C2271 C 0.34165 0.52539 0.91197 0.0
C2272 C 0.32198 0.53186 0.92494 0.0
C2273 C 0.30738 0.5125 0.94063 0.0
C2274 C 0.28872 0.51859 0.95274 0.0
C2275 C 0.28463 0.54411 0.94938 0.0
C2276 C 0.29928 0.56365 0.93392 0.0
C2277 C 0.31795 0.55765 0.92176 0.0
H2278 H 0.27017 0.54879 0.95877 0.0
H2279 H 0.45166 0.49134 0.84051 0.0
loop_
_geom_bond_atom_site_label_1
_geom_bond_atom_site_label_2
_geom_bond_distance
_geom_bond_site_symmetry_2
_ccdc_geom_bond_type
Nd0 C2 2.836 . S
Nd0 O20 2.500 . S
Nd0 O21 2.492 . S
Nd0 O22 2.487 . S
Nd0 O23 2.682 . S
Nd0 O24 2.410 . S
Nd0 O29 2.414 . S
Nd0 O31 2.424 . S
Nd1 C11 2.836 . S
Nd1 O23 2.414 . S
Nd1 O25 2.424 . S
Nd1 O26 2.500 . S
Nd1 O27 2.492 . S
Nd1 O28 2.487 . S
Nd1 O29 2.682 . S
Nd1 O30 2.410 . S
C2 Nd0 2.836 . S
C2 C3 1.498 . S
C2 O20 1.258 . S
C2 O21 1.239 . S
C3 C2 1.498 . S
C3 C4 1.366 . S
C3 C8 1.407 . S
C4 C3 1.366 . S
C4 C5 1.392 . S
C4 H32 0.930 . S
C5 C4 1.392 . S
C5 C6 1.398 . S
C5 H33 0.929 . S
C6 C5 1.398 . S
C6 C7 1.352 . S
C7 C6 1.352 . S
C7 C8 1.384 . S
C7 H34 0.930 . S
C8 C3 1.407 . S
C8 C7 1.384 . S
C8 H35 0.929 . S
C9 O22 1.241 . S
C9 O23 1.273 . S
C10 O24 1.251 . S
C10 O25 1.268 . S
C11 Nd1 2.836 . S
C11 C12 1.498 . S
C11 O26 1.258 . S
C11 O27 1.239 . S
C12 C11 1.498 . S
C12 C13 1.366 . S
C12 C17 1.407 . S
C13 C12 1.366 . S
C13 C14 1.392 . S
C13 H36 0.930 . S
C14 C13 1.392 . S
C14 C15 1.398 . S
C14 H37 0.929 . S
C15 C14 1.398 . S
C15 C16 1.352 . S
C16 C15 1.352 . S
C16 C17 1.384 . S
C16 H38 0.930 . S
C17 C12 1.407 . S
C17 C16 1.384 . S
C17 H39 0.929 . S
C18 O28 1.241 . S
C18 O29 1.273 . S
C19 O30 1.251 . S
C19 O31 1.268 . S
O20 Nd0 2.500 . S
O20 C2 1.258 . S
O21 Nd0 2.492 . S
O21 C2 1.239 . S
O22 Nd0 2.487 . S
O22 C9 1.241 . S
O23 Nd0 2.682 . S
O23 Nd1 2.414 . S
O23 C9 1.273 . S
O24 Nd0 2.410 . S
O24 C10 1.251 . S
O25 Nd1 2.424 . S
O25 C10 1.268 . S
O26 Nd1 2.500 . S
O26 C11 1.258 . S
O27 Nd1 2.492 . S
O27 C11 1.239 . S
O28 Nd1 2.487 . S
O28 C18 1.241 . S
O29 Nd0 2.414 . S
O29 Nd1 2.682 . S
O29 C18 1.273 . S
O30 Nd1 2.410 . S
O30 C19 1.251 . S
O31 Nd0 2.424 . S
O31 C19 1.268 . S
H32 C4 0.930 . S
H33 C5 0.929 . S
H34 C7 0.930 . S
H35 C8 0.929 . S
H36 C13 0.930 . S
H37 C14 0.929 . S
H38 C16 0.930 . S
H39 C17 0.929 . S
Nd40 C42 2.836 . S
Nd40 O60 2.500 . S
Nd40 O61 2.492 . S
Nd40 O62 2.487 . S
Nd40 O63 2.682 . S
Nd40 O64 2.410 . S
Nd40 O69 2.414 . S
Nd40 O71 2.424 . S
Nd41 C51 2.836 . S
Nd41 O63 2.414 . S
Nd41 O65 2.424 . S
Nd41 O66 2.500 . S
Nd41 O67 2.492 . S
Nd41 O68 2.487 . S
Nd41 O69 2.682 . S
Nd41 O70 2.410 . S
C42 Nd40 2.836 . S
C42 C43 1.498 . S
C42 O60 1.258 . S
C42 O61 1.239 . S
C43 C42 1.498 . S
C43 C44 1.366 . S
C43 C48 1.407 . S
C44 C43 1.366 . S
C44 C45 1.392 . S
C44 H72 0.930 . S
C45 C44 1.392 . S
C45 C46 1.398 . S
C45 H73 0.929 . S
C46 C45 1.398 . S
C46 C47 1.352 . S
C47 C46 1.352 . S
C47 C48 1.384 . S
C47 H74 0.930 . S
C48 C43 1.407 . S
C48 C47 1.384 . S
C48 H75 0.929 . S
C49 O62 1.241 . S
C49 O63 1.273 . S
C50 O64 1.251 . S
C50 O65 1.268 . S
C51 Nd41 2.836 . S
C51 C52 1.498 . S
C51 O66 1.258 . S
C51 O67 1.239 . S
C52 C51 1.498 . S
C52 C53 1.366 . S
C52 C57 1.407 . S
C53 C52 1.366 . S
C53 C54 1.392 . S
C53 H76 0.930 . S
C54 C53 1.392 . S
C54 C55 1.398 . S
C54 H77 0.929 . S
C55 C54 1.398 . S
C55 C56 1.352 . S
C56 C55 1.352 . S
C56 C57 1.384 . S
C56 H78 0.930 . S
C57 C52 1.407 . S
C57 C56 1.384 . S
C57 H79 0.929 . S
C58 O68 1.241 . S
C58 O69 1.273 . S
C59 O70 1.251 . S
C59 O71 1.268 . S
O60 Nd40 2.500 . S
O60 C42 1.258 . S
O61 Nd40 2.492 . S
O61 C42 1.239 . S
O62 Nd40 2.487 . S
O62 C49 1.241 . S
O63 Nd40 2.682 . S
O63 Nd41 2.414 . S
O63 C49 1.273 . S
O64 Nd40 2.410 . S
O64 C50 1.251 . S
O65 Nd41 2.424 . S
O65 C50 1.268 . S
O66 Nd41 2.500 . S
O66 C51 1.258 . S
O67 Nd41 2.492 . S
O67 C51 1.239 . S
O68 Nd41 2.487 . S
O68 C58 1.241 . S
O69 Nd40 2.414 . S
O69 Nd41 2.682 . S
O69 C58 1.273 . S
O70 Nd41 2.410 . S
O70 C59 1.251 . S
O71 Nd40 2.424 . S
O71 C59 1.268 . S
H72 C44 0.930 . S
H73 C45 0.929 . S
H74 C47 0.930 . S
H75 C48 0.929 . S
H76 C53 0.930 . S
H77 C54 0.929 . S
H78 C56 0.930 . S
H79 C57 0.929 . S
Nd80 C82 2.836 . S
Nd80 O100 2.500 . S
Nd80 O101 2.492 . S
Nd80 O102 2.487 . S
Nd80 O103 2.682 . S
Nd80 O104 2.410 . S
Nd80 O109 2.414 . S
Nd80 O111 2.424 . S
Nd81 C91 2.836 . S
Nd81 O103 2.414 . S
Nd81 O105 2.424 . S
Nd81 O106 2.500 . S
Nd81 O107 2.492 . S
Nd81 O108 2.487 . S
Nd81 O109 2.682 . S
Nd81 O110 2.410 . S
C82 Nd80 2.836 . S
C82 C83 1.498 . S
C82 O100 1.258 . S
C82 O101 1.239 . S
C83 C82 1.498 . S
C83 C84 1.366 . S
C83 C88 1.407 . S
C84 C83 1.366 . S
C84 C85 1.392 . S
C84 H112 0.930 . S
C85 C84 1.392 . S
C85 C86 1.398 . S
C85 H113 0.929 . S
C86 C85 1.398 . S
C86 C87 1.352 . S
C87 C86 1.352 . S
C87 C88 1.384 . S
C87 H114 0.930 . S
C88 C83 1.407 . S
C88 C87 1.384 . S
C88 H115 0.929 . S
C89 O102 1.241 . S
C89 O103 1.273 . S
C90 O104 1.251 . S
C90 O105 1.268 . S
C91 Nd81 2.836 . S
C91 C92 1.498 . S
C91 O106 1.258 . S
C91 O107 1.239 . S
C92 C91 1.498 . S
C92 C93 1.366 . S
C92 C97 1.407 . S
C93 C92 1.366 . S
C93 C94 1.392 . S
C93 H116 0.930 . S
C94 C93 1.392 . S
C94 C95 1.398 . S
C94 H117 0.929 . S
C95 C94 1.398 . S
C95 C96 1.352 . S
C96 C95 1.352 . S
C96 C97 1.384 . S
C96 H118 0.930 . S
C97 C92 1.407 . S
C97 C96 1.384 . S
C97 H119 0.929 . S
C98 O108 1.241 . S
C98 O109 1.273 . S
C99 O110 1.251 . S
C99 O111 1.268 . S
O100 Nd80 2.500 . S
O100 C82 1.258 . S
O101 Nd80 2.492 . S
O101 C82 1.239 . S
O102 Nd80 2.487 . S
O102 C89 1.241 . S
O103 Nd80 2.682 . S
O103 Nd81 2.414 . S
O103 C89 1.273 . S
O104 Nd80 2.410 . S
O104 C90 1.251 . S
O105 Nd81 2.424 . S
O105 C90 1.268 . S
O106 Nd81 2.500 . S
O106 C91 1.258 . S
O107 Nd81 2.492 . S
O107 C91 1.239 . S
O108 Nd81 2.487 . S
O108 C98 1.241 . S
O109 Nd80 2.414 . S
O109 Nd81 2.682 . S
O109 C98 1.273 . S
O110 Nd81 2.410 . S
O110 C99 1.251 . S
O111 Nd80 2.424 . S
O111 C99 1.268 . S
H112 C84 0.930 . S
H113 C85 0.929 . S
H114 C87 0.930 . S
H115 C88 0.929 . S
H116 C93 0.930 . S
H117 C94 0.929 . S
H118 C96 0.930 . S
H119 C97 0.929 . S
Nd120 C122 2.836 . S
Nd120 O140 2.500 . S
Nd120 O141 2.492 . S
Nd120 O142 2.487 . S
Nd120 O143 2.682 . S
Nd120 O144 2.410 . S
Nd120 O149 2.414 . S
Nd120 O151 2.424 . S
Nd121 C131 2.836 . S
Nd121 O143 2.414 . S
Nd121 O145 2.424 . S
Nd121 O146 2.500 . S
Nd121 O147 2.492 . S
Nd121 O148 2.487 . S
Nd121 O149 2.682 . S
Nd121 O150 2.410 . S
C122 Nd120 2.836 . S
C122 C123 1.498 . S
C122 O140 1.258 . S
C122 O141 1.239 . S
C123 C122 1.498 . S
C123 C124 1.366 . S
C123 C128 1.407 . S
C124 C123 1.366 . S
C124 C125 1.392 . S
C124 H152 0.930 . S
C125 C124 1.392 . S
C125 C126 1.398 . S
C125 H153 0.929 . S
C126 C125 1.398 . S
C126 C127 1.352 . S
C127 C126 1.352 . S
C127 C128 1.384 . S
C127 H154 0.930 . S
C128 C123 1.407 . S
C128 C127 1.384 . S
C128 H155 0.929 . S
C129 O142 1.241 . S
C129 O143 1.273 . S
C130 O144 1.251 . S
C130 O145 1.268 . S
C131 Nd121 2.836 . S
C131 C132 1.498 . S
C131 O146 1.258 . S
C131 O147 1.239 . S
C132 C131 1.498 . S
C132 C133 1.366 . S
C132 C137 1.407 . S
C133 C132 1.366 . S
C133 C134 1.392 . S
C133 H156 0.930 . S
C134 C133 1.392 . S
C134 C135 1.398 . S
C134 H157 0.929 . S
C135 C134 1.398 . S
C135 C136 1.352 . S
C136 C135 1.352 . S
C136 C137 1.384 . S
C136 H158 0.930 . S
C137 C132 1.407 . S
C137 C136 1.384 . S
C137 H159 0.929 . S
C138 O148 1.241 . S
C138 O149 1.273 . S
C139 O150 1.251 . S
C139 O151 1.268 . S
O140 Nd120 2.500 . S
O140 C122 1.258 . S
O141 Nd120 2.492 . S
O141 C122 1.239 . S
O142 Nd120 2.487 . S
O142 C129 1.241 . S
O143 Nd120 2.682 . S
O143 Nd121 2.414 . S
O143 C129 1.273 . S
O144 Nd120 2.410 . S
O144 C130 1.251 . S
O145 Nd121 2.424 . S
O145 C130 1.268 . S
O146 Nd121 2.500 . S
O146 C131 1.258 . S
O147 Nd121 2.492 . S
O147 C131 1.239 . S
O148 Nd121 2.487 . S
O148 C138 1.241 . S
O149 Nd120 2.414 . S
O149 Nd121 2.682 . S
O149 C138 1.273 . S
O150 Nd121 2.410 . S
O150 C139 1.251 . S
O151 Nd120 2.424 . S
O151 C139 1.268 . S
H152 C124 0.930 . S
H153 C125 0.929 . S
H154 C127 0.930 . S
H155 C128 0.929 . S
H156 C133 0.930 . S
H157 C134 0.929 . S
H158 C136 0.930 . S
H159 C137 0.929 . S
Nd160 C162 2.836 . S
Nd160 O180 2.500 . S
Nd160 O181 2.492 . S
Nd160 O182 2.487 . S
Nd160 O183 2.682 . S
Nd160 O184 2.410 . S
Nd160 O189 2.414 . S
Nd160 O191 2.424 . S
Nd161 C171 2.836 . S
Nd161 O183 2.414 . S
Nd161 O185 2.424 . S
Nd161 O186 2.500 . S
Nd161 O187 2.492 . S
Nd161 O188 2.487 . S
Nd161 O189 2.682 . S
Nd161 O190 2.410 . S
C162 Nd160 2.836 . S
C162 C163 1.498 . S
C162 O180 1.258 . S
C162 O181 1.239 . S
C163 C162 1.498 . S
C163 C164 1.366 . S
C163 C168 1.407 . S
C164 C163 1.366 . S
C164 C165 1.392 . S
C164 H192 0.930 . S
C165 C164 1.392 . S
C165 C166 1.398 . S
C165 H193 0.929 . S
C166 C165 1.398 . S
C166 C167 1.352 . S
C167 C166 1.352 . S
C167 C168 1.384 . S
C167 H194 0.930 . S
C168 C163 1.407 . S
C168 C167 1.384 . S
C168 H195 0.929 . S
C169 O182 1.241 . S
C169 O183 1.273 . S
C170 O184 1.251 . S
C170 O185 1.268 . S
C171 Nd161 2.836 . S
C171 C172 1.498 . S
C171 O186 1.258 . S
C171 O187 1.239 . S
C172 C171 1.498 . S
C172 C173 1.366 . S
C172 C177 1.407 . S
C173 C172 1.366 . S
C173 C174 1.392 . S
C173 H196 0.930 . S
C174 C173 1.392 . S
C174 C175 1.398 . S
C174 H197 0.929 . S
C175 C174 1.398 . S
C175 C176 1.352 . S
C176 C175 1.352 . S
C176 C177 1.384 . S
C176 H198 0.930 . S
C177 C172 1.407 . S
C177 C176 1.384 . S
C177 H199 0.929 . S
C178 O188 1.241 . S
C178 O189 1.273 . S
C179 O190 1.251 . S
C179 O191 1.268 . S
O180 Nd160 2.500 . S
O180 C162 1.258 . S
O181 Nd160 2.492 . S
O181 C162 1.239 . S
O182 Nd160 2.487 . S
O182 C169 1.241 . S
O183 Nd160 2.682 . S
O183 Nd161 2.414 . S
O183 C169 1.273 . S
O184 Nd160 2.410 . S
O184 C170 1.251 . S
O185 Nd161 2.424 . S
O185 C170 1.268 . S
O186 Nd161 2.500 . S
O186 C171 1.258 . S
O187 Nd161 2.492 . S
O187 C171 1.239 . S
O188 Nd161 2.487 . S
O188 C178 1.241 . S
O189 Nd160 2.414 . S
O189 Nd161 2.682 . S
O189 C178 1.273 . S
O190 Nd161 2.410 . S
O190 C179 1.251 . S
O191 Nd160 2.424 . S
O191 C179 1.268 . S
H192 C164 0.930 . S
H193 C165 0.929 . S
H194 C167 0.930 . S
H195 C168 0.929 . S
H196 C173 0.930 . S
H197 C174 0.929 . S
H198 C176 0.930 . S
H199 C177 0.929 . S
Nd200 C202 2.836 . S
Nd200 O220 2.500 . S
Nd200 O221 2.492 . S
Nd200 O222 2.487 . S
Nd200 O223 2.682 . S
Nd200 O224 2.410 . S
Nd200 O229 2.414 . S
Nd200 O231 2.424 . S
Nd201 C211 2.836 . S
Nd201 O223 2.414 . S
Nd201 O225 2.424 . S
Nd201 O226 2.500 . S
Nd201 O227 2.492 . S
Nd201 O228 2.487 . S
Nd201 O229 2.682 . S
Nd201 O230 2.410 . S
C202 Nd200 2.836 . S
C202 C203 1.498 . S
C202 O220 1.258 . S
C202 O221 1.239 . S
C203 C202 1.498 . S
C203 C204 1.366 . S
C203 C208 1.407 . S
C204 C203 1.366 . S
C204 C205 1.392 . S
C204 H232 0.930 . S
C205 C204 1.392 . S
C205 C206 1.398 . S
C205 H233 0.929 . S
C206 C205 1.398 . S
C206 C207 1.352 . S
C207 C206 1.352 . S
C207 C208 1.384 . S
C207 H234 0.930 . S
C208 C203 1.407 . S
C208 C207 1.384 . S
C208 H235 0.929 . S
C209 O222 1.241 . S
C209 O223 1.273 . S
C210 O224 1.251 . S
C210 O225 1.268 . S
C211 Nd201 2.836 . S
C211 C212 1.498 . S
C211 O226 1.258 . S
C211 O227 1.239 . S
C212 C211 1.498 . S
C212 C213 1.366 . S
C212 C217 1.407 . S
C213 C212 1.366 . S
C213 C214 1.392 . S
C213 H236 0.930 . S
C214 C213 1.392 . S
C214 C215 1.398 . S
C214 H237 0.929 . S
C215 C214 1.398 . S
C215 C216 1.352 . S
C216 C215 1.352 . S
C216 C217 1.384 . S
C216 H238 0.930 . S
C217 C212 1.407 . S
C217 C216 1.384 . S
C217 H239 0.929 . S
C218 O228 1.241 . S
C218 O229 1.273 . S
C219 O230 1.251 . S
C219 O231 1.268 . S
O220 Nd200 2.500 . S
O220 C202 1.258 . S
O221 Nd200 2.492 . S
O221 C202 1.239 . S
O222 Nd200 2.487 . S
O222 C209 1.241 . S
O223 Nd200 2.682 . S
O223 Nd201 2.414 . S
O223 C209 1.273 . S
O224 Nd200 2.410 . S
O224 C210 1.251 . S
O225 Nd201 2.424 . S
O225 C210 1.268 . S
O226 Nd201 2.500 . S
O226 C211 1.258 . S
O227 Nd201 2.492 . S
O227 C211 1.239 . S
O228 Nd201 2.487 . S
O228 C218 1.241 . S
O229 Nd200 2.414 . S
O229 Nd201 2.682 . S
O229 C218 1.273 . S
O230 Nd201 2.410 . S
O230 C219 1.251 . S
O231 Nd200 2.424 . S
O231 C219 1.268 . S
H232 C204 0.930 . S
H233 C205 0.929 . S
H234 C207 0.930 . S
H235 C208 0.929 . S
H236 C213 0.930 . S
H237 C214 0.929 . S
H238 C216 0.930 . S
H239 C217 0.929 . S
Nd240 C242 2.836 . S
Nd240 O260 2.500 . S
Nd240 O261 2.492 . S
Nd240 O262 2.487 . S
Nd240 O263 2.682 . S
Nd240 O264 2.410 . S
Nd240 O269 2.414 . S
Nd240 O271 2.424 . S
Nd241 C251 2.836 . S
Nd241 O263 2.414 . S
Nd241 O265 2.424 . S
Nd241 O266 2.500 . S
Nd241 O267 2.492 . S
Nd241 O268 2.487 . S
Nd241 O269 2.682 . S
Nd241 O270 2.410 . S
C242 Nd240 2.836 . S
C242 C243 1.498 . S
C242 O260 1.258 . S
C242 O261 1.239 . S
C243 C242 1.498 . S
C243 C244 1.366 . S
C243 C248 1.407 . S
C244 C243 1.366 . S
C244 C245 1.392 . S
C244 H272 0.930 . S
C245 C244 1.392 . S
C245 C246 1.398 . S
C245 H273 0.929 . S
C246 C245 1.398 . S
C246 C247 1.352 . S
C247 C246 1.352 . S
C247 C248 1.384 . S
C247 H274 0.930 . S
C248 C243 1.407 . S
C248 C247 1.384 . S
C248 H275 0.929 . S
C249 O262 1.241 . S
C249 O263 1.273 . S
C250 O264 1.251 . S
C250 O265 1.268 . S
C251 Nd241 2.836 . S
C251 C252 1.498 . S
C251 O266 1.258 . S
C251 O267 1.239 . S
C252 C251 1.498 . S
C252 C253 1.366 . S
C252 C257 1.407 . S
C253 C252 1.366 . S
C253 C254 1.392 . S
C253 H276 0.930 . S
C254 C253 1.392 . S
C254 C255 1.398 . S
C254 H277 0.929 . S
C255 C254 1.398 . S
C255 C256 1.352 . S
C256 C255 1.352 . S
C256 C257 1.384 . S
C256 H278 0.930 . S
C257 C252 1.407 . S
C257 C256 1.384 . S
C257 H279 0.929 . S
C258 O268 1.241 . S
C258 O269 1.273 . S
C259 O270 1.251 . S
C259 O271 1.268 . S
O260 Nd240 2.500 . S
O260 C242 1.258 . S
O261 Nd240 2.492 . S
O261 C242 1.239 . S
O262 Nd240 2.487 . S
O262 C249 1.241 . S
O263 Nd240 2.682 . S
O263 Nd241 2.414 . S
O263 C249 1.273 . S
O264 Nd240 2.410 . S
O264 C250 1.251 . S
O265 Nd241 2.424 . S
O265 C250 1.268 . S
O266 Nd241 2.500 . S
O266 C251 1.258 . S
O267 Nd241 2.492 . S
O267 C251 1.239 . S
O268 Nd241 2.487 . S
O268 C258 1.241 . S
O269 Nd240 2.414 . S
O269 Nd241 2.682 . S
O269 C258 1.273 . S
O270 Nd241 2.410 . S
O270 C259 1.251 . S
O271 Nd240 2.424 . S
O271 C259 1.268 . S
H272 C244 0.930 . S
H273 C245 0.929 . S
H274 C247 0.930 . S
H275 C248 0.929 . S
H276 C253 0.930 . S
H277 C254 0.929 . S
H278 C256 0.930 . S
H279 C257 0.929 . S
Nd280 C282 2.836 . S
Nd280 O300 2.500 . S
Nd280 O301 2.492 . S
Nd280 O302 2.487 . S
Nd280 O303 2.682 . S
Nd280 O304 2.410 . S
Nd280 O309 2.414 . S
Nd280 O311 2.424 . S
Nd281 C291 2.836 . S
Nd281 O303 2.414 . S
Nd281 O305 2.424 . S
Nd281 O306 2.500 . S
Nd281 O307 2.492 . S
Nd281 O308 2.487 . S
Nd281 O309 2.682 . S
Nd281 O310 2.410 . S
C282 Nd280 2.836 . S
C282 C283 1.498 . S
C282 O300 1.258 . S
C282 O301 1.239 . S
C283 C282 1.498 . S
C283 C284 1.366 . S
C283 C288 1.407 . S
C284 C283 1.366 . S
C284 C285 1.392 . S
C284 H312 0.930 . S
C285 C284 1.392 . S
C285 C286 1.398 . S
C285 H313 0.929 . S
C286 C285 1.398 . S
C286 C287 1.352 . S
C287 C286 1.352 . S
C287 C288 1.384 . S
C287 H314 0.930 . S
C288 C283 1.407 . S
C288 C287 1.384 . S
C288 H315 0.929 . S
C289 O302 1.241 . S
C289 O303 1.273 . S
C290 O304 1.251 . S
C290 O305 1.268 . S
C291 Nd281 2.836 . S
C291 C292 1.498 . S
C291 O306 1.258 . S
C291 O307 1.239 . S
C292 C291 1.498 . S
C292 C293 1.366 . S
C292 C297 1.407 . S
C293 C292 1.366 . S
C293 C294 1.392 . S
C293 H316 0.930 . S
C294 C293 1.392 . S
C294 C295 1.398 . S
C294 H317 0.929 . S
C295 C294 1.398 . S
C295 C296 1.352 . S
C296 C295 1.352 . S
C296 C297 1.384 . S
C296 H318 0.930 . S
C297 C292 1.407 . S
C297 C296 1.384 . S
C297 H319 0.929 . S
C298 O308 1.241 . S
C298 O309 1.273 . S
C299 O310 1.251 . S
C299 O311 1.268 . S
O300 Nd280 2.500 . S
O300 C282 1.258 . S
O301 Nd280 2.492 . S
O301 C282 1.239 . S
O302 Nd280 2.487 . S
O302 C289 1.241 . S
O303 Nd280 2.682 . S
O303 Nd281 2.414 . S
O303 C289 1.273 . S
O304 Nd280 2.410 . S
O304 C290 1.251 . S
O305 Nd281 2.424 . S
O305 C290 1.268 . S
O306 Nd281 2.500 . S
O306 C291 1.258 . S
O307 Nd281 2.492 . S
O307 C291 1.239 . S
O308 Nd281 2.487 . S
O308 C298 1.241 . S
O309 Nd280 2.414 . S
O309 Nd281 2.682 . S
O309 C298 1.273 . S
O310 Nd281 2.410 . S
O310 C299 1.251 . S
O311 Nd280 2.424 . S
O311 C299 1.268 . S
H312 C284 0.930 . S
H313 C285 0.929 . S
H314 C287 0.930 . S
H315 C288 0.929 . S
H316 C293 0.930 . S
H317 C294 0.929 . S
H318 C296 0.930 . S
H319 C297 0.929 . S
Nd320 C322 2.836 . S
Nd320 O340 2.500 . S
Nd320 O341 2.492 . S
Nd320 O342 2.487 . S
Nd320 O343 2.682 . S
Nd320 O344 2.410 . S
Nd320 O349 2.414 . S
Nd320 O351 2.424 . S
Nd321 C331 2.836 . S
Nd321 O343 2.414 . S
Nd321 O345 2.424 . S
Nd321 O346 2.500 . S
Nd321 O347 2.492 . S
Nd321 O348 2.487 . S
Nd321 O349 2.682 . S
Nd321 O350 2.410 . S
C322 Nd320 2.836 . S
C322 C323 1.498 . S
C322 O340 1.258 . S
C322 O341 1.239 . S
C323 C322 1.498 . S
C323 C324 1.366 . S
C323 C328 1.407 . S
C324 C323 1.366 . S
C324 C325 1.392 . S
C324 H352 0.930 . S
C325 C324 1.392 . S
C325 C326 1.398 . S
C325 H353 0.929 . S
C326 C325 1.398 . S
C326 C327 1.352 . S
C327 C326 1.352 . S
C327 C328 1.384 . S
C327 H354 0.930 . S
C328 C323 1.407 . S
C328 C327 1.384 . S
C328 H355 0.929 . S
C329 O342 1.241 . S
C329 O343 1.273 . S
C330 O344 1.251 . S
C330 O345 1.268 . S
C331 Nd321 2.836 . S
C331 C332 1.498 . S
C331 O346 1.258 . S
C331 O347 1.239 . S
C332 C331 1.498 . S
C332 C333 1.366 . S
C332 C337 1.407 . S
C333 C332 1.366 . S
C333 C334 1.392 . S
C333 H356 0.930 . S
C334 C333 1.392 . S
C334 C335 1.398 . S
C334 H357 0.929 . S
C335 C334 1.398 . S
C335 C336 1.352 . S
C336 C335 1.352 . S
C336 C337 1.384 . S
C336 H358 0.930 . S
C337 C332 1.407 . S
C337 C336 1.384 . S
C337 H359 0.929 . S
C338 O348 1.241 . S
C338 O349 1.273 . S
C339 O350 1.251 . S
C339 O351 1.268 . S
O340 Nd320 2.500 . S
O340 C322 1.258 . S
O341 Nd320 2.492 . S
O341 C322 1.239 . S
O342 Nd320 2.487 . S
O342 C329 1.241 . S
O343 Nd320 2.682 . S
O343 Nd321 2.414 . S
O343 C329 1.273 . S
O344 Nd320 2.410 . S
O344 C330 1.251 . S
O345 Nd321 2.424 . S
O345 C330 1.268 . S
O346 Nd321 2.500 . S
O346 C331 1.258 . S
O347 Nd321 2.492 . S
O347 C331 1.239 . S
O348 Nd321 2.487 . S
O348 C338 1.241 . S
O349 Nd320 2.414 . S
O349 Nd321 2.682 . S
O349 C338 1.273 . S
O350 Nd321 2.410 . S
O350 C339 1.251 . S
O351 Nd320 2.424 . S
O351 C339 1.268 . S
H352 C324 0.930 . S
H353 C325 0.929 . S
H354 C327 0.930 . S
H355 C328 0.929 . S
H356 C333 0.930 . S
H357 C334 0.929 . S
H358 C336 0.930 . S
H359 C337 0.929 . S
Nd360 C362 2.836 . S
Nd360 O380 2.500 . S
Nd360 O381 2.492 . S
Nd360 O382 2.487 . S
Nd360 O383 2.682 . S
Nd360 O384 2.410 . S
Nd360 O389 2.414 . S
Nd360 O391 2.424 . S
Nd361 C371 2.836 . S
Nd361 O383 2.414 . S
Nd361 O385 2.424 . S
Nd361 O386 2.500 . S
Nd361 O387 2.492 . S
Nd361 O388 2.487 . S
Nd361 O389 2.682 . S
Nd361 O390 2.410 . S
C362 Nd360 2.836 . S
C362 C363 1.498 . S
C362 O380 1.258 . S
C362 O381 1.239 . S
C363 C362 1.498 . S
C363 C364 1.366 . S
C363 C368 1.407 . S
C364 C363 1.366 . S
C364 C365 1.392 . S
C364 H392 0.930 . S
C365 C364 1.392 . S
C365 C366 1.398 . S
C365 H393 0.929 . S
C366 C365 1.398 . S
C366 C367 1.352 . S
C367 C366 1.352 . S
C367 C368 1.384 . S
C367 H394 0.930 . S
C368 C363 1.407 . S
C368 C367 1.384 . S
C368 H395 0.929 . S
C369 O382 1.241 . S
C369 O383 1.273 . S
C370 O384 1.251 . S
C370 O385 1.268 . S
C371 Nd361 2.836 . S
C371 C372 1.498 . S
C371 O386 1.258 . S
C371 O387 1.239 . S
C372 C371 1.498 . S
C372 C373 1.366 . S
C372 C377 1.407 . S
C373 C372 1.366 . S
C373 C374 1.392 . S
C373 H396 0.930 . S
C374 C373 1.392 . S
C374 C375 1.398 . S
C374 H397 0.929 . S
C375 C374 1.398 . S
C375 C376 1.352 . S
C376 C375 1.352 . S
C376 C377 1.384 . S
C376 H398 0.930 . S
C377 C372 1.407 . S
C377 C376 1.384 . S
C377 H399 0.929 . S
C378 O388 1.241 . S
C378 O389 1.273 . S
C379 O390 1.251 . S
C379 O391 1.268 . S
O380 Nd360 2.500 . S
O380 C362 1.258 . S
O381 Nd360 2.492 . S
O381 C362 1.239 . S
O382 Nd360 2.487 . S
O382 C369 1.241 . S
O383 Nd360 2.682 . S
O383 Nd361 2.414 . S
O383 C369 1.273 . S
O384 Nd360 2.410 . S
O384 C370 1.251 . S
O385 Nd361 2.424 . S
O385 C370 1.268 . S
O386 Nd361 2.500 . S
O386 C371 1.258 . S
O387 Nd361 2.492 . S
O387 C371 1.239 . S
O388 Nd361 2.487 . S
O388 C378 1.241 . S
O389 Nd360 2.414 . S
O389 Nd361 2.682 . S
O389 C378 1.273 . S
O390 Nd361 2.410 . S
O390 C379 1.251 . S
O391 Nd360 2.424 . S
O391 C379 1.268 . S
H392 C364 0.930 . S
H393 C365 0.929 . S
H394 C367 0.930 . S
H395 C368 0.929 . S
H396 C373 0.930 . S
H397 C374 0.929 . S
H398 C376 0.930 . S
H399 C377 0.929 . S
Nd400 C402 2.836 . S
Nd400 O420 2.500 . S
Nd400 O421 2.492 . S
Nd400 O422 2.487 . S
Nd400 O423 2.682 . S
Nd400 O424 2.410 . S
Nd400 O429 2.414 . S
Nd400 O431 2.424 . S
Nd401 C411 2.836 . S
Nd401 O423 2.414 . S
Nd401 O425 2.424 . S
Nd401 O426 2.500 . S
Nd401 O427 2.492 . S
Nd401 O428 2.487 . S
Nd401 O429 2.682 . S
Nd401 O430 2.410 . S
C402 Nd400 2.836 . S
C402 C403 1.498 . S
C402 O420 1.258 . S
C402 O421 1.239 . S
C403 C402 1.498 . S
C403 C404 1.366 . S
C403 C408 1.407 . S
C404 C403 1.366 . S
C404 C405 1.392 . S
C404 H432 0.930 . S
C405 C404 1.392 . S
C405 C406 1.398 . S
C405 H433 0.929 . S
C406 C405 1.398 . S
C406 C407 1.352 . S
C407 C406 1.352 . S
C407 C408 1.384 . S
C407 H434 0.930 . S
C408 C403 1.407 . S
C408 C407 1.384 . S
C408 H435 0.929 . S
C409 O422 1.241 . S
C409 O423 1.273 . S
C410 O424 1.251 . S
C410 O425 1.268 . S
C411 Nd401 2.836 . S
C411 C412 1.498 . S
C411 O426 1.258 . S
C411 O427 1.239 . S
C412 C411 1.498 . S
C412 C413 1.366 . S
C412 C417 1.407 . S
C413 C412 1.366 . S
C413 C414 1.392 . S
C413 H436 0.930 . S
C414 C413 1.392 . S
C414 C415 1.398 . S
C414 H437 0.929 . S
C415 C414 1.398 . S
C415 C416 1.352 . S
C416 C415 1.352 . S
C416 C417 1.384 . S
C416 H438 0.930 . S
C417 C412 1.407 . S
C417 C416 1.384 . S
C417 H439 0.929 . S
C418 O428 1.241 . S
C418 O429 1.273 . S
C419 O430 1.251 . S
C419 O431 1.268 . S
O420 Nd400 2.500 . S
O420 C402 1.258 . S
O421 Nd400 2.492 . S
O421 C402 1.239 . S
O422 Nd400 2.487 . S
O422 C409 1.241 . S
O423 Nd400 2.682 . S
O423 Nd401 2.414 . S
O423 C409 1.273 . S
O424 Nd400 2.410 . S
O424 C410 1.251 . S
O425 Nd401 2.424 . S
O425 C410 1.268 . S
O426 Nd401 2.500 . S
O426 C411 1.258 . S
O427 Nd401 2.492 . S
O427 C411 1.239 . S
O428 Nd401 2.487 . S
O428 C418 1.241 . S
O429 Nd400 2.414 . S
O429 Nd401 2.682 . S
O429 C418 1.273 . S
O430 Nd401 2.410 . S
O430 C419 1.251 . S
O431 Nd400 2.424 . S
O431 C419 1.268 . S
H432 C404 0.930 . S
H433 C405 0.929 . S
H434 C407 0.930 . S
H435 C408 0.929 . S
H436 C413 0.930 . S
H437 C414 0.929 . S
H438 C416 0.930 . S
H439 C417 0.929 . S
Nd440 C442 2.836 . S
Nd440 O460 2.500 . S
Nd440 O461 2.492 . S
Nd440 O462 2.487 . S
Nd440 O463 2.682 . S
Nd440 O464 2.410 . S
Nd440 O469 2.414 . S
Nd440 O471 2.424 . S
Nd441 C451 2.836 . S
Nd441 O463 2.414 . S
Nd441 O465 2.424 . S
Nd441 O466 2.500 . S
Nd441 O467 2.492 . S
Nd441 O468 2.487 . S
Nd441 O469 2.682 . S
Nd441 O470 2.410 . S
C442 Nd440 2.836 . S
C442 C443 1.498 . S
C442 O460 1.258 . S
C442 O461 1.239 . S
C443 C442 1.498 . S
C443 C444 1.366 . S
C443 C448 1.407 . S
C444 C443 1.366 . S
C444 C445 1.392 . S
C444 H472 0.930 . S
C445 C444 1.392 . S
C445 C446 1.398 . S
C445 H473 0.929 . S
C446 C445 1.398 . S
C446 C447 1.352 . S
C447 C446 1.352 . S
C447 C448 1.384 . S
C447 H474 0.930 . S
C448 C443 1.407 . S
C448 C447 1.384 . S
C448 H475 0.929 . S
C449 O462 1.241 . S
C449 O463 1.273 . S
C450 O464 1.251 . S
C450 O465 1.268 . S
C451 Nd441 2.836 . S
C451 C452 1.498 . S
C451 O466 1.258 . S
C451 O467 1.239 . S
C452 C451 1.498 . S
C452 C453 1.366 . S
C452 C457 1.407 . S
C453 C452 1.366 . S
C453 C454 1.392 . S
C453 H476 0.930 . S
C454 C453 1.392 . S
C454 C455 1.398 . S
C454 H477 0.929 . S
C455 C454 1.398 . S
C455 C456 1.352 . S
C456 C455 1.352 . S
C456 C457 1.384 . S
C456 H478 0.930 . S
C457 C452 1.407 . S
C457 C456 1.384 . S
C457 H479 0.929 . S
C458 O468 1.241 . S
C458 O469 1.273 . S
C459 O470 1.251 . S
C459 O471 1.268 . S
O460 Nd440 2.500 . S
O460 C442 1.258 . S
O461 Nd440 2.492 . S
O461 C442 1.239 . S
O462 Nd440 2.487 . S
O462 C449 1.241 . S
O463 Nd440 2.682 . S
O463 Nd441 2.414 . S
O463 C449 1.273 . S
O464 Nd440 2.410 . S
O464 C450 1.251 . S
O465 Nd441 2.424 . S
O465 C450 1.268 . S
O466 Nd441 2.500 . S
O466 C451 1.258 . S
O467 Nd441 2.492 . S
O467 C451 1.239 . S
O468 Nd441 2.487 . S
O468 C458 1.241 . S
O469 Nd440 2.414 . S
O469 Nd441 2.682 . S
O469 C458 1.273 . S
O470 Nd441 2.410 . S
O470 C459 1.251 . S
O471 Nd440 2.424 . S
O471 C459 1.268 . S
H472 C444 0.930 . S
H473 C445 0.929 . S
H474 C447 0.930 . S
H475 C448 0.929 . S
H476 C453 0.930 . S
H477 C454 0.929 . S
H478 C456 0.930 . S
H479 C457 0.929 . S
H480 C498 0.951 . S
H481 C500 0.951 1_455 S
H482 C502 0.950 . S
H483 C503 0.950 . S
H484 C505 0.950 1_655 S
H485 C508 0.950 . S
H486 C509 0.950 . S
H487 C511 0.950 . S
H488 C512 0.950 . S
H489 C513 0.951 . S
H490 C515 0.951 . S
H491 C517 0.950 . S
H492 C518 0.950 . S
H493 C520 0.950 . S
H494 C523 0.950 . S
H495 C524 0.950 . S
H496 C526 0.950 . S
H497 C527 0.950 . S
C498 H480 0.951 . S
C498 C499 1.366 . S
C498 C500 1.388 . S
C499 C498 1.366 . S
C499 C503 1.385 . S
C500 H481 0.951 1_655 S
C500 C498 1.388 . S
C500 C501 1.366 . S
C501 C500 1.366 . S
C501 C502 1.414 . S
C501 C504 1.499 1_655 S
C502 H482 0.950 . S
C502 C501 1.414 . S
C502 C503 1.374 . S
C503 H483 0.950 . S
C503 C499 1.385 . S
C503 C502 1.374 . S
C504 C501 1.499 1_455 S
C504 C505 1.373 . S
C504 C506 1.389 . S
C505 H484 0.950 1_455 S
C505 C504 1.373 . S
C505 C521 1.377 . S
C506 C504 1.389 . S
C506 C507 1.524 . S
C506 C520 1.377 . S
C507 C506 1.524 . S
C507 C508 1.397 . S
C507 C512 1.363 . S
C508 H485 0.950 . S
C508 C507 1.397 . S
C508 C509 1.334 . S
C509 H486 0.950 . S
C509 C508 1.334 . S
C509 C510 1.287 . S
C510 C509 1.287 . S
C510 C511 1.524 . S
C510 H529 0.913 . S
C511 H487 0.950 . S
C511 C510 1.524 . S
C511 C512 1.415 . S
C512 H488 0.950 . S
C512 C507 1.363 . S
C512 C511 1.415 . S
C513 H489 0.951 . S
C513 C514 1.366 . S
C513 C515 1.388 . S
C514 C513 1.366 . S
C514 C518 1.385 . S
C515 H490 0.951 . S
C515 C513 1.388 . S
C515 C516 1.366 . S
C516 C515 1.366 . S
C516 C517 1.414 . S
C516 C519 1.499 . S
C517 H491 0.950 . S
C517 C516 1.414 . S
C517 C518 1.374 . S
C518 H492 0.950 . S
C518 C514 1.385 . S
C518 C517 1.374 . S
C519 C516 1.499 . S
C519 C520 1.373 . S
C519 C521 1.389 . S
C520 H493 0.950 . S
C520 C506 1.377 . S
C520 C519 1.373 . S
C521 C505 1.377 . S
C521 C519 1.389 . S
C521 C522 1.524 . S
C522 C521 1.524 . S
C522 C523 1.397 . S
C522 C527 1.363 1_455 S
C523 H494 0.950 . S
C523 C522 1.397 . S
C523 C524 1.334 . S
C524 H495 0.950 . S
C524 C523 1.334 . S
C524 C525 1.287 . S
C525 C524 1.287 . S
C525 C526 1.524 1_455 S
C525 H528 0.999 1_455 S
C526 H496 0.950 . S
C526 C525 1.524 1_655 S
C526 C527 1.415 . S
C527 H497 0.950 . S
C527 C522 1.363 1_655 S
C527 C526 1.415 . S
H528 C525 0.999 1_655 S
H529 C510 0.913 . S
H530 C548 0.951 . S
H531 C550 0.951 . S
H532 C552 0.950 . S
H533 C553 0.950 . S
H534 C555 0.950 1_545 S
H535 C558 0.950 . S
H536 C559 0.950 . S
H537 C561 0.950 . S
H538 C562 0.950 . S
H539 C563 0.951 1_655 S
H540 C565 0.951 . S
H541 C567 0.950 . S
H542 C568 0.950 . S
H543 C570 0.950 . S
H544 C573 0.950 . S
H545 C574 0.950 . S
H546 C576 0.950 . S
H547 C577 0.949 . S
C548 H530 0.951 . S
C548 C549 1.366 . S
C548 C550 1.388 . S
C549 C548 1.366 . S
C549 C553 1.385 . S
C550 H531 0.951 . S
C550 C548 1.388 . S
C550 C551 1.366 . S
C551 C550 1.366 . S
C551 C552 1.414 . S
C551 C554 1.499 1_545 S
C552 H532 0.950 . S
C552 C551 1.414 . S
C552 C553 1.374 . S
C553 H533 0.950 . S
C553 C549 1.385 . S
C553 C552 1.374 . S
C554 C551 1.499 1_565 S
C554 C555 1.373 . S
C554 C556 1.389 . S
C555 H534 0.950 1_565 S
C555 C554 1.373 . S
C555 C571 1.377 . S
C556 C554 1.389 . S
C556 C557 1.524 . S
C556 C570 1.377 . S
C557 C556 1.524 . S
C557 C558 1.397 . S
C557 C562 1.363 . S
C558 H535 0.950 . S
C558 C557 1.397 . S
C558 C559 1.334 . S
C559 H536 0.950 . S
C559 C558 1.334 . S
C559 C560 1.287 . S
C560 C559 1.287 . S
C560 C561 1.524 . S
C560 H579 0.913 . S
C561 H537 0.950 . S
C561 C560 1.524 . S
C561 C562 1.415 . S
C562 H538 0.950 . S
C562 C557 1.363 . S
C562 C561 1.415 . S
C563 H539 0.951 1_455 S
C563 C564 1.363 1_455 S
C563 C565 1.388 . S
C564 C563 1.363 1_655 S
C564 C568 1.365 1_655 S
C565 H540 0.951 . S
C565 C563 1.388 . S
C565 C566 1.366 . S
C566 C565 1.366 . S
C566 C567 1.414 . S
C566 C569 1.499 . S
C567 H541 0.950 . S
C567 C566 1.414 . S
C567 C568 1.374 . S
C568 H542 0.950 . S
C568 C564 1.365 1_455 S
C568 C567 1.374 . S
C569 C566 1.499 . S
C569 C570 1.373 . S
C569 C571 1.389 . S
C570 H543 0.950 . S
C570 C556 1.377 . S
C570 C569 1.373 . S
C571 C555 1.377 . S
C571 C569 1.389 . S
C571 C572 1.524 . S
C572 C571 1.524 . S
C572 C573 1.397 . S
C572 C577 1.363 . S
C573 H544 0.950 . S
C573 C572 1.397 . S
C573 C574 1.334 . S
C574 H545 0.950 . S
C574 C573 1.334 . S
C574 C575 1.287 1_565 S
C575 C574 1.287 1_545 S
C575 C576 1.524 . S
C575 H578 0.999 . S
C576 H546 0.950 . S
C576 C575 1.524 . S
C576 C577 1.415 1_545 S
C577 H547 0.949 . S
C577 C572 1.363 . S
C577 C576 1.415 1_565 S
H578 C575 0.999 . S
H579 C560 0.913 . S
H580 C598 0.951 1_545 S
H581 C600 0.951 . S
H582 C602 0.950 . S
H583 C603 0.950 . S
H584 C605 0.950 . S
H585 C608 0.950 . S
H586 C609 0.950 . S
H587 C611 0.950 . S
H588 C612 0.950 . S
H589 C613 0.951 . S
H590 C615 0.951 . S
H591 C617 0.950 . S
H592 C618 0.950 . S
H593 C620 0.950 . S
H594 C623 0.950 . S
H595 C624 0.950 . S
H596 C626 0.950 . S
H597 C627 0.950 . S
C598 H580 0.951 1_565 S
C598 C599 1.342 1_565 S
C598 C600 1.388 . S
C599 C598 1.342 1_545 S
C599 C603 1.375 1_545 S
C600 H581 0.951 . S
C600 C598 1.388 . S
C600 C601 1.366 . S
C601 C600 1.366 . S
C601 C602 1.414 . S
C601 C604 1.499 . S
C602 H582 0.950 . S
C602 C601 1.414 . S
C602 C603 1.374 . S
C603 H583 0.950 . S
C603 C599 1.375 1_565 S
C603 C602 1.374 . S
C604 C601 1.499 . S
C604 C605 1.373 . S
C604 C606 1.389 . S
C605 H584 0.950 . S
C605 C604 1.373 . S
C605 C621 1.377 . S
C606 C604 1.389 . S
C606 C607 1.524 . S
C606 C620 1.377 . S
C607 C606 1.524 . S
C607 C608 1.397 . S
C607 C612 1.363 . S
C608 H585 0.950 . S
C608 C607 1.397 . S
C608 C609 1.334 . S
C609 H586 0.950 . S
C609 C608 1.334 . S
C609 C610 1.287 . S
C610 C609 1.287 . S
C610 C611 1.524 . S
C610 H629 0.913 . S
C611 H587 0.950 . S
C611 C610 1.524 . S
C611 C612 1.415 . S
C612 H588 0.950 . S
C612 C607 1.363 . S
C612 C611 1.415 . S
C613 H589 0.951 . S
C613 C614 1.366 . S
C613 C615 1.388 . S
C614 C613 1.366 . S
C614 C618 1.385 . S
C615 H590 0.951 . S
C615 C613 1.388 . S
C615 C616 1.366 . S
C616 C615 1.366 . S
C616 C617 1.414 . S
C616 C619 1.499 . S
C617 H591 0.950 . S
C617 C616 1.414 . S
C617 C618 1.374 . S
C618 H592 0.950 . S
C618 C614 1.385 . S
C618 C617 1.374 . S
C619 C616 1.499 . S
C619 C620 1.373 . S
C619 C621 1.389 . S
C620 H593 0.950 . S
C620 C606 1.377 . S
C620 C619 1.373 . S
C621 C605 1.377 . S
C621 C619 1.389 . S
C621 C622 1.524 . S
C622 C621 1.524 . S
C622 C623 1.397 . S
C622 C627 1.363 . S
C623 H594 0.950 . S
C623 C622 1.397 . S
C623 C624 1.334 . S
C624 H595 0.950 . S
C624 C623 1.334 . S
C624 C625 1.287 . S
C625 C624 1.287 . S
C625 C626 1.524 . S
C625 H628 0.999 . S
C626 H596 0.950 . S
C626 C625 1.524 . S
C626 C627 1.415 . S
C627 H597 0.950 . S
C627 C622 1.363 . S
C627 C626 1.415 . S
H628 C625 0.999 . S
H629 C610 0.913 . S
H630 C648 0.951 . S
H631 C650 0.951 . S
H632 C652 0.950 . S
H633 C653 0.950 . S
H634 C655 0.950 . S
H635 C658 0.950 . S
H636 C659 0.950 . S
H637 C661 0.950 . S
H638 C662 0.950 . S
H639 C663 0.951 . S
H640 C665 0.951 . S
H641 C667 0.950 . S
H642 C668 0.950 . S
H643 C670 0.950 . S
H644 C673 0.950 . S
H645 C674 0.950 . S
H646 C676 0.950 . S
H647 C677 0.950 . S
C648 H630 0.951 . S
C648 C649 1.366 . S
C648 C650 1.388 . S
C649 C648 1.366 . S
C649 C653 1.385 . S
C650 H631 0.951 . S
C650 C648 1.388 . S
C650 C651 1.366 . S
C651 C650 1.366 . S
C651 C652 1.414 . S
C651 C654 1.499 . S
C652 H632 0.950 . S
C652 C651 1.414 . S
C652 C653 1.374 . S
C653 H633 0.950 . S
C653 C649 1.385 . S
C653 C652 1.374 . S
C654 C651 1.499 . S
C654 C655 1.373 . S
C654 C656 1.389 . S
C655 H634 0.950 . S
C655 C654 1.373 . S
C655 C671 1.377 . S
C656 C654 1.389 . S
C656 C657 1.524 . S
C656 C670 1.377 . S
C657 C656 1.524 . S
C657 C658 1.397 . S
C657 C662 1.363 . S
C658 H635 0.950 . S
C658 C657 1.397 . S
C658 C659 1.334 . S
C659 H636 0.950 . S
C659 C658 1.334 . S
C659 C660 1.287 . S
C660 C659 1.287 . S
C660 C661 1.524 . S
C660 H679 0.913 . S
C661 H637 0.950 . S
C661 C660 1.524 . S
C661 C662 1.415 . S
C662 H638 0.950 . S
C662 C657 1.363 . S
C662 C661 1.415 . S
C663 H639 0.951 . S
C663 C664 1.366 . S
C663 C665 1.388 . S
C664 C663 1.366 . S
C664 C668 1.385 . S
C665 H640 0.951 . S
C665 C663 1.388 . S
C665 C666 1.366 . S
C666 C665 1.366 . S
C666 C667 1.414 . S
C666 C669 1.499 1_655 S
C667 H641 0.950 . S
C667 C666 1.414 . S
C667 C668 1.374 . S
C668 H642 0.950 . S
C668 C664 1.385 . S
C668 C667 1.374 . S
C669 C666 1.499 1_455 S
C669 C670 1.373 . S
C669 C671 1.389 . S
C670 H643 0.950 . S
C670 C656 1.377 . S
C670 C669 1.373 . S
C671 C655 1.377 . S
C671 C669 1.389 . S
C671 C672 1.524 . S
C672 C671 1.524 . S
C672 C673 1.397 . S
C672 C677 1.363 . S
C673 H644 0.950 . S
C673 C672 1.397 . S
C673 C674 1.334 . S
C674 H645 0.950 . S
C674 C673 1.334 . S
C674 C675 1.287 . S
C675 C674 1.287 . S
C675 C676 1.524 . S
C675 H678 0.999 . S
C676 H646 0.950 . S
C676 C675 1.524 . S
C676 C677 1.415 . S
C677 H647 0.950 . S
C677 C672 1.363 . S
C677 C676 1.415 . S
H678 C675 0.999 . S
H679 C660 0.913 . S
H680 C698 0.951 . S
H681 C700 0.951 1_565 S
H682 C702 0.950 . S
H683 C703 0.950 . S
H684 C705 0.950 1_545 S
H685 C708 0.950 . S
H686 C709 0.950 . S
H687 C711 0.950 . S
H688 C712 0.950 . S
H689 C713 0.951 1_655 S
H690 C715 0.951 . S
H691 C717 0.950 . S
H692 C718 0.950 . S
H693 C720 0.950 . S
H694 C723 0.950 . S
H695 C724 0.950 . S
H696 C726 0.950 . S
H697 C727 0.968 . S
C698 H680 0.951 . S
C698 C699 1.366 . S
C698 C700 1.388 . S
C699 C698 1.366 . S
C699 C703 1.385 . S
C700 H681 0.951 1_545 S
C700 C698 1.388 . S
C700 C701 1.366 . S
C701 C700 1.366 . S
C701 C702 1.414 . S
C701 C704 1.499 1_545 S
C702 H682 0.950 . S
C702 C701 1.414 . S
C702 C703 1.374 . S
C703 H683 0.950 . S
C703 C699 1.385 . S
C703 C702 1.374 . S
C704 C701 1.499 1_565 S
C704 C705 1.373 . S
C704 C706 1.389 . S
C705 H684 0.950 1_565 S
C705 C704 1.373 . S
C705 C721 1.377 . S
C706 C704 1.389 . S
C706 C707 1.524 . S
C706 C720 1.377 . S
C707 C706 1.524 . S
C707 C708 1.397 . S
C707 C712 1.363 . S
C708 H685 0.950 . S
C708 C707 1.397 . S
C708 C709 1.334 . S
C709 H686 0.950 . S
C709 C708 1.334 . S
C709 C710 1.287 . S
C710 C709 1.287 . S
C710 C711 1.524 . S
C710 H729 0.913 . S
C711 H687 0.950 . S
C711 C710 1.524 . S
C711 C712 1.415 . S
C712 H688 0.950 . S
C712 C707 1.363 . S
C712 C711 1.415 . S
C713 H689 0.951 1_455 S
C713 C714 1.375 1_455 S
C713 C715 1.388 . S
C714 C713 1.375 1_655 S
C714 C718 1.353 1_655 S
C715 H690 0.951 . S
C715 C713 1.388 . S
C715 C716 1.366 . S
C716 C715 1.366 . S
C716 C717 1.414 . S
C716 C719 1.499 . S
C717 H691 0.950 . S
C717 C716 1.414 . S
C717 C718 1.374 . S
C718 H692 0.950 . S
C718 C714 1.353 1_455 S
C718 C717 1.374 . S
C719 C716 1.499 . S
C719 C720 1.373 . S
C719 C721 1.389 . S
C720 H693 0.950 . S
C720 C706 1.377 . S
C720 C719 1.373 . S
C721 C705 1.377 . S
C721 C719 1.389 . S
C721 C722 1.524 . S
C722 C721 1.524 . S
C722 C723 1.397 . S
C722 C727 1.328 1_565 S
C723 H694 0.950 . S
C723 C722 1.397 . S
C723 C724 1.334 . S
C724 H695 0.950 . S
C724 C723 1.334 . S
C724 C725 1.287 . S
C725 C724 1.287 . S
C725 C726 1.524 1_565 S
C725 H728 0.999 . S
C726 H696 0.950 . S
C726 C725 1.524 1_545 S
C726 C727 1.434 . S
C727 H697 0.968 . S
C727 C722 1.328 1_545 S
C727 C726 1.434 . S
H728 C725 0.999 . S
H729 C710 0.913 . S
H730 C748 0.951 . S
H731 C750 0.951 . S
H732 C752 0.950 . S
H733 C753 0.950 . S
H734 C755 0.950 . S
H735 C758 0.950 . S
H736 C759 0.950 . S
H737 C761 0.950 . S
H738 C762 0.950 . S
H739 C763 0.951 . S
H740 C765 0.951 . S
H741 C767 0.950 . S
H742 C768 0.950 . S
H743 C770 0.950 . S
H744 C773 0.950 . S
H745 C774 0.950 . S
H746 C776 0.950 . S
H747 C777 0.950 . S
C748 H730 0.951 . S
C748 C749 1.366 . S
C748 C750 1.388 . S
C749 C748 1.366 . S
C749 C753 1.385 . S
C750 H731 0.951 . S
C750 C748 1.388 . S
C750 C751 1.366 . S
C751 C750 1.366 . S
C751 C752 1.414 . S
C751 C754 1.499 . S
C752 H732 0.950 . S
C752 C751 1.414 . S
C752 C753 1.374 . S
C753 H733 0.950 . S
C753 C749 1.385 . S
C753 C752 1.374 . S
C754 C751 1.499 . S
C754 C755 1.373 . S
C754 C756 1.389 . S
C755 H734 0.950 . S
C755 C754 1.373 . S
C755 C771 1.377 . S
C756 C754 1.389 . S
C756 C757 1.524 . S
C756 C770 1.377 . S
C757 C756 1.524 . S
C757 C758 1.397 . S
C757 C762 1.363 . S
C758 H735 0.950 . S
C758 C757 1.397 . S
C758 C759 1.334 . S
C759 H736 0.950 . S
C759 C758 1.334 . S
C759 C760 1.287 . S
C760 C759 1.287 . S
C760 C761 1.524 . S
C760 H779 0.913 . S
C761 H737 0.950 . S
C761 C760 1.524 . S
C761 C762 1.415 . S
C762 H738 0.950 . S
C762 C757 1.363 . S
C762 C761 1.415 . S
C763 H739 0.951 . S
C763 C764 1.344 1_565 S
C763 C765 1.388 . S
C764 C763 1.344 1_545 S
C764 C768 1.372 1_545 S
C765 H740 0.951 . S
C765 C763 1.388 . S
C765 C766 1.366 . S
C766 C765 1.366 . S
C766 C767 1.414 . S
C766 C769 1.499 . S
C767 H741 0.950 . S
C767 C766 1.414 . S
C767 C768 1.374 . S
C768 H742 0.950 . S
C768 C764 1.372 1_565 S
C768 C767 1.374 . S
C769 C766 1.499 . S
C769 C770 1.373 . S
C769 C771 1.389 . S
C770 H743 0.950 . S
C770 C756 1.377 . S
C770 C769 1.373 . S
C771 C755 1.377 . S
C771 C769 1.389 . S
C771 C772 1.524 . S
C772 C771 1.524 . S
C772 C773 1.397 . S
C772 C777 1.363 . S
C773 H744 0.950 . S
C773 C772 1.397 . S
C773 C774 1.334 . S
C774 H745 0.950 . S
C774 C773 1.334 . S
C774 C775 1.287 . S
C775 C774 1.287 . S
C775 C776 1.524 . S
C775 H778 0.999 . S
C776 H746 0.950 . S
C776 C775 1.524 . S
C776 C777 1.415 . S
C777 H747 0.950 . S
C777 C772 1.363 . S
C777 C776 1.415 . S
H778 C775 0.999 . S
H779 C760 0.913 . S
H780 C798 0.951 . S
H781 C800 0.951 . S
H782 C802 0.950 1_545 S
H783 C803 0.950 . S
H784 C805 0.950 . S
H785 C808 0.950 . S
H786 C809 0.950 . S
H787 C811 0.950 . S
H788 C812 0.950 . S
H789 C813 0.951 . S
H790 C815 0.951 . S
H791 C817 0.950 . S
H792 C818 0.950 . S
H793 C820 0.950 . S
H794 C823 0.950 . S
H795 C824 0.950 . S
H796 C826 0.950 . S
H797 C827 0.950 . S
C798 H780 0.951 . S
C798 C799 1.366 . S
C798 C800 1.388 . S
C799 C798 1.366 . S
C799 C803 1.385 . S
C800 H781 0.951 . S
C800 C798 1.388 . S
C800 C801 1.366 . S
C801 C800 1.366 . S
C801 C802 1.414 . S
C801 C804 1.499 1_565 S
C802 H782 0.950 1_565 S
C802 C801 1.414 . S
C802 C803 1.374 . S
C803 H783 0.950 . S
C803 C799 1.385 . S
C803 C802 1.374 . S
C804 C801 1.499 1_545 S
C804 C805 1.373 . S
C804 C806 1.389 . S
C805 H784 0.950 . S
C805 C804 1.373 . S
C805 C821 1.377 . S
C806 C804 1.389 . S
C806 C807 1.524 1_545 S
C806 C820 1.377 . S
C807 C806 1.524 1_565 S
C807 C808 1.397 . S
C807 C812 1.363 . S
C808 H785 0.950 . S
C808 C807 1.397 . S
C808 C809 1.334 . S
C809 H786 0.950 . S
C809 C808 1.334 . S
C809 C810 1.287 . S
C810 C809 1.287 . S
C810 C811 1.524 . S
C810 H829 0.913 . S
C811 H787 0.950 . S
C811 C810 1.524 . S
C811 C812 1.415 . S
C812 H788 0.950 . S
C812 C807 1.363 . S
C812 C811 1.415 . S
C813 H789 0.951 . S
C813 C814 1.366 . S
C813 C815 1.388 . S
C814 C813 1.366 . S
C814 C818 1.385 . S
C815 H790 0.951 . S
C815 C813 1.388 . S
C815 C816 1.366 . S
C816 C815 1.366 . S
C816 C817 1.414 . S
C816 C819 1.499 . S
C817 H791 0.950 . S
C817 C816 1.414 . S
C817 C818 1.374 . S
C818 H792 0.950 . S
C818 C814 1.385 . S
C818 C817 1.374 . S
C819 C816 1.499 . S
C819 C820 1.373 . S
C819 C821 1.389 . S
C820 H793 0.950 . S
C820 C806 1.377 . S
C820 C819 1.373 . S
C821 C805 1.377 . S
C821 C819 1.389 . S
C821 C822 1.524 . S
C822 C821 1.524 . S
C822 C823 1.397 . S
C822 C827 1.363 . S
C823 H794 0.950 . S
C823 C822 1.397 . S
C823 C824 1.334 . S
C824 H795 0.950 . S
C824 C823 1.334 . S
C824 C825 1.287 . S
C825 C824 1.287 . S
C825 C826 1.524 . S
C825 H828 0.999 . S
C826 H796 0.950 . S
C826 C825 1.524 . S
C826 C827 1.415 . S
C827 H797 0.950 . S
C827 C822 1.363 . S
C827 C826 1.415 . S
H828 C825 0.999 . S
H829 C810 0.913 . S
H830 C848 0.943 1_455 S
H831 C850 0.951 . S
H832 C852 0.950 . S
H833 C853 0.950 . S
H834 C855 0.950 . S
H835 C858 0.950 . S
H836 C859 0.950 . S
H837 C861 0.950 . S
H838 C862 0.950 . S
H839 C863 0.951 . S
H840 C865 0.951 . S
H841 C867 0.950 . S
H842 C868 0.950 . S
H843 C870 0.950 . S
H844 C873 0.950 . S
H845 C874 0.950 . S
H846 C876 0.950 . S
H847 C877 0.950 . S
C848 H830 0.943 1_655 S
C848 C849 1.343 1_655 S
C848 C850 1.388 . S
C849 C848 1.343 1_455 S
C849 C853 1.373 1_455 S
C850 H831 0.951 . S
C850 C848 1.388 . S
C850 C851 1.366 . S
C851 C850 1.366 . S
C851 C852 1.414 . S
C851 C854 1.499 . S
C852 H832 0.950 . S
C852 C851 1.414 . S
C852 C853 1.374 . S
C853 H833 0.950 . S
C853 C849 1.373 1_655 S
C853 C852 1.374 . S
C854 C851 1.499 . S
C854 C855 1.373 . S
C854 C856 1.389 . S
C855 H834 0.950 . S
C855 C854 1.373 . S
C855 C871 1.377 . S
C856 C854 1.389 . S
C856 C857 1.524 . S
C856 C870 1.377 . S
C857 C856 1.524 . S
C857 C858 1.397 . S
C857 C862 1.363 . S
C858 H835 0.950 . S
C858 C857 1.397 . S
C858 C859 1.334 . S
C859 H836 0.950 . S
C859 C858 1.334 . S
C859 C860 1.287 . S
C860 C859 1.287 . S
C860 C861 1.524 . S
C860 H879 0.913 . S
C861 H837 0.950 . S
C861 C860 1.524 . S
C861 C862 1.415 . S
C862 H838 0.950 . S
C862 C857 1.363 . S
C862 C861 1.415 . S
C863 H839 0.951 . S
C863 C864 1.366 . S
C863 C865 1.388 . S
C864 C863 1.366 . S
C864 C868 1.385 . S
C865 H840 0.951 . S
C865 C863 1.388 . S
C865 C866 1.366 . S
C866 C865 1.366 . S
C866 C867 1.414 . S
C866 C869 1.499 . S
C867 H841 0.950 . S
C867 C866 1.414 . S
C867 C868 1.374 . S
C868 H842 0.950 . S
C868 C864 1.385 . S
C868 C867 1.374 . S
C869 C866 1.499 . S
C869 C870 1.373 . S
C869 C871 1.389 . S
C870 H843 0.950 . S
C870 C856 1.377 . S
C870 C869 1.373 . S
C871 C855 1.377 . S
C871 C869 1.389 . S
C871 C872 1.524 . S
C872 C871 1.524 . S
C872 C873 1.397 . S
C872 C877 1.363 . S
C873 H844 0.950 . S
C873 C872 1.397 . S
C873 C874 1.334 . S
C874 H845 0.950 . S
C874 C873 1.334 . S
C874 C875 1.287 . S
C875 C874 1.287 . S
C875 C876 1.524 . S
C875 H878 0.999 . S
C876 H846 0.950 . S
C876 C875 1.524 . S
C876 C877 1.415 . S
C877 H847 0.950 . S
C877 C872 1.363 . S
C877 C876 1.415 . S
H878 C875 0.999 . S
H879 C860 0.913 . S
H880 C898 0.951 1_565 S
H881 C900 0.951 . S
H882 C902 0.950 . S
H883 C903 0.950 . S
H884 C905 0.950 . S
H885 C908 0.950 . S
H886 C909 0.950 . S
H887 C911 0.950 . S
H888 C912 0.950 . S
H889 C913 0.951 . S
H890 C915 0.951 . S
H891 C917 0.950 . S
H892 C918 0.950 . S
H893 C920 0.950 . S
H894 C923 0.950 . S
H895 C924 0.950 . S
H896 C926 0.950 . S
H897 C927 0.950 1_655 S
C898 H880 0.951 1_545 S
C898 C899 1.359 1_545 S
C898 C900 1.388 . S
C899 C898 1.359 1_565 S
C899 C903 1.367 1_565 S
C900 H881 0.951 . S
C900 C898 1.388 . S
C900 C901 1.366 . S
C901 C900 1.366 . S
C901 C902 1.414 . S
C901 C904 1.499 . S
C902 H882 0.950 . S
C902 C901 1.414 . S
C902 C903 1.374 . S
C903 H883 0.950 . S
C903 C899 1.367 1_545 S
C903 C902 1.374 . S
C904 C901 1.499 . S
C904 C905 1.373 . S
C904 C906 1.389 . S
C905 H884 0.950 . S
C905 C904 1.373 . S
C905 C921 1.377 . S
C906 C904 1.389 . S
C906 C907 1.524 . S
C906 C920 1.377 . S
C907 C906 1.524 . S
C907 C908 1.397 . S
C907 C912 1.363 . S
C908 H885 0.950 . S
C908 C907 1.397 . S
C908 C909 1.334 . S
C909 H886 0.950 . S
C909 C908 1.334 . S
C909 C910 1.287 . S
C910 C909 1.287 . S
C910 C911 1.524 . S
C910 H929 0.913 . S
C911 H887 0.950 . S
C911 C910 1.524 . S
C911 C912 1.415 . S
C912 H888 0.950 . S
C912 C907 1.363 . S
C912 C911 1.415 . S
C913 H889 0.951 . S
C913 C914 1.366 . S
C913 C915 1.388 . S
C914 C913 1.366 . S
C914 C918 1.385 . S
C915 H890 0.951 . S
C915 C913 1.388 . S
C915 C916 1.366 . S
C916 C915 1.366 . S
C916 C917 1.414 . S
C916 C919 1.499 1_455 S
C917 H891 0.950 . S
C917 C916 1.414 . S
C917 C918 1.374 . S
C918 H892 0.950 . S
C918 C914 1.385 . S
C918 C917 1.374 . S
C919 C916 1.499 1_655 S
C919 C920 1.373 . S
C919 C921 1.389 . S
C920 H893 0.950 . S
C920 C906 1.377 . S
C920 C919 1.373 . S
C921 C905 1.377 . S
C921 C919 1.389 . S
C921 C922 1.524 1_655 S
C922 C921 1.524 1_455 S
C922 C923 1.397 . S
C922 C927 1.363 . S
C923 H894 0.950 . S
C923 C922 1.397 . S
C923 C924 1.334 . S
C924 H895 0.950 . S
C924 C923 1.334 . S
C924 C925 1.287 . S
C925 C924 1.287 . S
C925 C926 1.524 . S
C925 H928 0.999 . S
C926 H896 0.950 . S
C926 C925 1.524 . S
C926 C927 1.415 . S
C927 H897 0.950 1_455 S
C927 C922 1.363 . S
C927 C926 1.415 . S
H928 C925 0.999 . S
H929 C910 0.913 . S
H930 C948 0.951 . S
H931 C950 0.951 . S
H932 C952 0.950 . S
H933 C953 0.950 . S
H934 C955 0.950 . S
H935 C958 0.950 . S
H936 C959 0.950 . S
H937 C961 0.950 . S
H938 C962 0.950 . S
H939 C963 0.951 . S
H940 C965 0.951 . S
H941 C967 0.950 . S
H942 C968 0.950 . S
H943 C970 0.950 1_565 S
H944 C973 0.950 . S
H945 C974 0.950 . S
H946 C976 0.950 . S
H947 C977 0.950 . S
C948 H930 0.951 . S
C948 C949 1.366 . S
C948 C950 1.388 . S
C949 C948 1.366 . S
C949 C953 1.385 . S
C950 H931 0.951 . S
C950 C948 1.388 . S
C950 C951 1.366 . S
C951 C950 1.366 . S
C951 C952 1.414 . S
C951 C954 1.499 . S
C952 H932 0.950 . S
C952 C951 1.414 . S
C952 C953 1.374 . S
C953 H933 0.950 . S
C953 C949 1.385 . S
C953 C952 1.374 . S
C954 C951 1.499 . S
C954 C955 1.373 . S
C954 C956 1.389 . S
C955 H934 0.950 . S
C955 C954 1.373 . S
C955 C971 1.377 . S
C956 C954 1.389 . S
C956 C957 1.524 . S
C956 C970 1.377 . S
C957 C956 1.524 . S
C957 C958 1.397 . S
C957 C962 1.363 . S
C958 H935 0.950 . S
C958 C957 1.397 . S
C958 C959 1.334 . S
C959 H936 0.950 . S
C959 C958 1.334 . S
C959 C960 1.280 1_545 S
C960 C959 1.280 1_565 S
C960 C961 1.535 . S
C960 H979 0.906 . S
C961 H937 0.950 . S
C961 C960 1.535 . S
C961 C962 1.415 1_565 S
C962 H938 0.950 . S
C962 C957 1.363 . S
C962 C961 1.415 1_545 S
C963 H939 0.951 . S
C963 C964 1.366 . S
C963 C965 1.388 . S
C964 C963 1.366 . S
C964 C968 1.385 . S
C965 H940 0.951 . S
C965 C963 1.388 . S
C965 C966 1.366 . S
C966 C965 1.366 . S
C966 C967 1.414 . S
C966 C969 1.499 1_565 S
C967 H941 0.950 . S
C967 C966 1.414 . S
C967 C968 1.374 . S
C968 H942 0.950 . S
C968 C964 1.385 . S
C968 C967 1.374 . S
C969 C966 1.499 1_545 S
C969 C970 1.373 . S
C969 C971 1.389 . S
C970 H943 0.950 1_545 S
C970 C956 1.377 . S
C970 C969 1.373 . S
C971 C955 1.377 . S
C971 C969 1.389 . S
C971 C972 1.524 . S
C972 C971 1.524 . S
C972 C973 1.397 . S
C972 C977 1.363 . S
C973 H944 0.950 . S
C973 C972 1.397 . S
C973 C974 1.334 . S
C974 H945 0.950 . S
C974 C973 1.334 . S
C974 C975 1.287 . S
C975 C974 1.287 . S
C975 C976 1.524 . S
C975 H978 0.999 . S
C976 H946 0.950 . S
C976 C975 1.524 . S
C976 C977 1.415 . S
C977 H947 0.950 . S
C977 C972 1.363 . S
C977 C976 1.415 . S
H978 C975 0.999 . S
H979 C960 0.906 . S
H980 C998 0.951 . S
H981 C1000 0.951 . S
H982 C1002 0.950 . S
H983 C1003 0.950 1_455 S
H984 C1005 0.950 . S
H985 C1008 0.950 . S
H986 C1009 0.950 . S
H987 C1011 0.950 . S
H988 C1012 0.950 . S
H989 C1013 0.951 . S
H990 C1015 0.951 . S
H991 C1017 0.950 . S
H992 C1018 0.950 . S
H993 C1020 0.950 . S
H994 C1023 0.950 . S
H995 C1024 0.950 . S
H996 C1026 0.950 . S
H997 C1027 0.950 . S
C998 H980 0.951 . S
C998 C999 1.355 1_655 S
C998 C1000 1.388 . S
C999 C998 1.355 1_455 S
C999 C1003 1.361 1_455 S
C1000 H981 0.951 . S
C1000 C998 1.388 . S
C1000 C1001 1.366 . S
C1001 C1000 1.366 . S
C1001 C1002 1.414 . S
C1001 C1004 1.499 . S
C1002 H982 0.950 . S
C1002 C1001 1.414 . S
C1002 C1003 1.374 . S
C1003 H983 0.950 1_655 S
C1003 C999 1.361 1_655 S
C1003 C1002 1.374 . S
C1004 C1001 1.499 . S
C1004 C1005 1.373 . S
C1004 C1006 1.389 . S
C1005 H984 0.950 . S
C1005 C1004 1.373 . S
C1005 C1021 1.377 . S
C1006 C1004 1.389 . S
C1006 C1007 1.524 . S
C1006 C1020 1.377 . S
C1007 C1006 1.524 . S
C1007 C1008 1.397 . S
C1007 C1012 1.363 . S
C1008 H985 0.950 . S
C1008 C1007 1.397 . S
C1008 C1009 1.334 . S
C1009 H986 0.950 . S
C1009 C1008 1.334 . S
C1009 C1010 1.287 . S
C1010 C1009 1.287 . S
C1010 C1011 1.524 . S
C1010 H1029 0.913 . S
C1011 H987 0.950 . S
C1011 C1010 1.524 . S
C1011 C1012 1.415 . S
C1012 H988 0.950 . S
C1012 C1007 1.363 . S
C1012 C1011 1.415 . S
C1013 H989 0.951 . S
C1013 C1014 1.366 . S
C1013 C1015 1.388 . S
C1014 C1013 1.366 . S
C1014 C1018 1.385 . S
C1015 H990 0.951 . S
C1015 C1013 1.388 . S
C1015 C1016 1.366 . S
C1016 C1015 1.366 . S
C1016 C1017 1.414 . S
C1016 C1019 1.499 . S
C1017 H991 0.950 . S
C1017 C1016 1.414 . S
C1017 C1018 1.374 . S
C1018 H992 0.950 . S
C1018 C1014 1.385 . S
C1018 C1017 1.374 . S
C1019 C1016 1.499 . S
C1019 C1020 1.373 . S
C1019 C1021 1.389 . S
C1020 H993 0.950 . S
C1020 C1006 1.377 . S
C1020 C1019 1.373 . S
C1021 C1005 1.377 . S
C1021 C1019 1.389 . S
C1021 C1022 1.524 . S
C1022 C1021 1.524 . S
C1022 C1023 1.397 . S
C1022 C1027 1.363 . S
C1023 H994 0.950 . S
C1023 C1022 1.397 . S
C1023 C1024 1.334 . S
C1024 H995 0.950 . S
C1024 C1023 1.334 . S
C1024 C1025 1.287 . S
C1025 C1024 1.287 . S
C1025 C1026 1.524 . S
C1025 H1028 0.999 . S
C1026 H996 0.950 . S
C1026 C1025 1.524 . S
C1026 C1027 1.415 . S
C1027 H997 0.950 . S
C1027 C1022 1.363 . S
C1027 C1026 1.415 . S
H1028 C1025 0.999 . S
H1029 C1010 0.913 . S
H1030 C1048 0.951 . S
H1031 C1050 0.951 1_655 S
H1032 C1052 0.950 . S
H1033 C1053 0.950 . S
H1034 C1055 0.950 1_455 S
H1035 C1058 0.923 1_455 S
H1036 C1059 0.950 . S
H1037 C1061 0.950 . S
H1038 C1062 0.950 . S
H1039 C1063 0.951 1_565 S
H1040 C1065 0.951 . S
H1041 C1067 0.950 . S
H1042 C1068 0.950 . S
H1043 C1070 0.950 . S
H1044 C1073 0.950 . S
H1045 C1074 0.950 . S
H1046 C1076 0.917 1_455 S
H1047 C1077 0.950 1_455 S
C1048 H1030 0.951 . S
C1048 C1049 1.366 . S
C1048 C1050 1.388 . S
C1049 C1048 1.366 . S
C1049 C1053 1.385 . S
C1050 H1031 0.951 1_455 S
C1050 C1048 1.388 . S
C1050 C1051 1.366 . S
C1051 C1050 1.366 . S
C1051 C1052 1.414 . S
C1051 C1054 1.499 1_455 S
C1052 H1032 0.950 . S
C1052 C1051 1.414 . S
C1052 C1053 1.374 . S
C1053 H1033 0.950 . S
C1053 C1049 1.385 . S
C1053 C1052 1.374 . S
C1054 C1051 1.499 1_655 S
C1054 C1055 1.373 . S
C1054 C1056 1.389 . S
C1055 H1034 0.950 1_655 S
C1055 C1054 1.373 . S
C1055 C1071 1.377 . S
C1056 C1054 1.389 . S
C1056 C1057 1.524 . S
C1056 C1070 1.377 . S
C1057 C1056 1.524 . S
C1057 C1058 1.418 . S
C1057 C1062 1.363 . S
C1058 H1035 0.923 1_655 S
C1058 C1057 1.418 . S
C1058 C1059 1.339 1_655 S
C1059 H1036 0.950 . S
C1059 C1058 1.339 1_455 S
C1059 C1060 1.287 1_455 S
C1060 C1059 1.287 1_655 S
C1060 C1061 1.524 . S
C1060 H1079 0.913 . S
C1061 H1037 0.950 . S
C1061 C1060 1.524 . S
C1061 C1062 1.415 . S
C1062 H1038 0.950 . S
C1062 C1057 1.363 . S
C1062 C1061 1.415 . S
C1063 H1039 0.951 1_545 S
C1063 C1064 1.376 1_545 S
C1063 C1065 1.388 . S
C1064 C1063 1.376 1_565 S
C1064 C1068 1.351 1_565 S
C1065 H1040 0.951 . S
C1065 C1063 1.388 . S
C1065 C1066 1.366 . S
C1066 C1065 1.366 . S
C1066 C1067 1.414 . S
C1066 C1069 1.499 . S
C1067 H1041 0.950 . S
C1067 C1066 1.414 . S
C1067 C1068 1.374 . S
C1068 H1042 0.950 . S
C1068 C1064 1.351 1_545 S
C1068 C1067 1.374 . S
C1069 C1066 1.499 . S
C1069 C1070 1.373 . S
C1069 C1071 1.389 . S
C1070 H1043 0.950 . S
C1070 C1056 1.377 . S
C1070 C1069 1.373 . S
C1071 C1055 1.377 . S
C1071 C1069 1.389 . S
C1071 C1072 1.524 . S
C1072 C1071 1.524 . S
C1072 C1073 1.397 . S
C1072 C1077 1.363 . S
C1073 H1044 0.950 . S
C1073 C1072 1.397 . S
C1073 C1074 1.334 . S
C1074 H1045 0.950 . S
C1074 C1073 1.334 . S
C1074 C1075 1.287 . S
C1075 C1074 1.287 . S
C1075 C1076 1.524 . S
C1075 H1078 0.999 . S
C1076 H1046 0.917 1_655 S
C1076 C1075 1.524 . S
C1076 C1077 1.415 . S
C1077 H1047 0.950 1_655 S
C1077 C1072 1.363 . S
C1077 C1076 1.415 . S
H1078 C1075 0.999 . S
H1079 C1060 0.913 . S
H1080 C1098 0.951 . S
H1081 C1100 0.951 . S
H1082 C1102 0.950 . S
H1083 C1103 0.950 . S
H1084 C1105 0.950 . S
H1085 C1108 0.950 . S
H1086 C1109 0.950 . S
H1087 C1111 0.950 . S
H1088 C1112 0.950 . S
H1089 C1113 0.951 . S
H1090 C1115 0.951 . S
H1091 C1117 0.950 . S
H1092 C1118 0.950 . S
H1093 C1120 0.950 . S
H1094 C1123 0.950 . S
H1095 C1124 0.950 . S
H1096 C1126 0.950 . S
H1097 C1127 0.950 . S
C1098 H1080 0.951 . S
C1098 C1099 1.366 . S
C1098 C1100 1.388 . S
C1099 C1098 1.366 . S
C1099 C1103 1.385 . S
C1100 H1081 0.951 . S
C1100 C1098 1.388 . S
C1100 C1101 1.366 . S
C1101 C1100 1.366 . S
C1101 C1102 1.414 . S
C1101 C1104 1.499 . S
C1102 H1082 0.950 . S
C1102 C1101 1.414 . S
C1102 C1103 1.374 . S
C1103 H1083 0.950 . S
C1103 C1099 1.385 . S
C1103 C1102 1.374 . S
C1104 C1101 1.499 . S
C1104 C1105 1.373 . S
C1104 C1106 1.389 . S
C1105 H1084 0.950 . S
C1105 C1104 1.373 . S
C1105 C1121 1.377 . S
C1106 C1104 1.389 . S
C1106 C1107 1.524 . S
C1106 C1120 1.377 . S
C1107 C1106 1.524 . S
C1107 C1108 1.397 . S
C1107 C1112 1.363 . S
C1108 H1085 0.950 . S
C1108 C1107 1.397 . S
C1108 C1109 1.334 . S
C1109 H1086 0.950 . S
C1109 C1108 1.334 . S
C1109 C1110 1.287 . S
C1110 C1109 1.287 . S
C1110 C1111 1.524 . S
C1110 H1129 0.913 . S
C1111 H1087 0.950 . S
C1111 C1110 1.524 . S
C1111 C1112 1.415 . S
C1112 H1088 0.950 . S
C1112 C1107 1.363 . S
C1112 C1111 1.415 . S
C1113 H1089 0.951 . S
C1113 C1114 1.366 . S
C1113 C1115 1.388 . S
C1114 C1113 1.366 . S
C1114 C1118 1.385 . S
C1115 H1090 0.951 . S
C1115 C1113 1.388 . S
C1115 C1116 1.366 . S
C1116 C1115 1.366 . S
C1116 C1117 1.414 . S
C1116 C1119 1.499 . S
C1117 H1091 0.950 . S
C1117 C1116 1.414 . S
C1117 C1118 1.374 . S
C1118 H1092 0.950 . S
C1118 C1114 1.385 . S
C1118 C1117 1.374 . S
C1119 C1116 1.499 . S
C1119 C1120 1.373 . S
C1119 C1121 1.389 . S
C1120 H1093 0.950 . S
C1120 C1106 1.377 . S
C1120 C1119 1.373 . S
C1121 C1105 1.377 . S
C1121 C1119 1.389 . S
C1121 C1122 1.524 . S
C1122 C1121 1.524 . S
C1122 C1123 1.397 . S
C1122 C1127 1.363 . S
C1123 H1094 0.950 . S
C1123 C1122 1.397 . S
C1123 C1124 1.334 . S
C1124 H1095 0.950 . S
C1124 C1123 1.334 . S
C1124 C1125 1.287 . S
C1125 C1124 1.287 . S
C1125 C1126 1.524 . S
C1125 H1128 0.999 . S
C1126 H1096 0.950 . S
C1126 C1125 1.524 . S
C1126 C1127 1.415 . S
C1127 H1097 0.950 . S
C1127 C1122 1.363 . S
C1127 C1126 1.415 . S
H1128 C1125 0.999 . S
H1129 C1110 0.913 . S
H1130 C1148 0.951 . S
H1131 C1150 0.951 . S
H1132 C1152 0.950 . S
H1133 C1153 0.950 . S
H1134 C1155 0.950 . S
H1135 C1158 0.950 . S
H1136 C1159 0.950 . S
H1137 C1161 0.950 . S
H1138 C1162 0.950 . S
H1139 C1163 0.951 . S
H1140 C1165 0.951 . S
H1141 C1167 0.950 . S
H1142 C1168 0.950 . S
H1143 C1170 0.950 . S
H1144 C1173 0.950 . S
H1145 C1174 0.950 . S
H1146 C1176 0.950 . S
H1147 C1177 0.950 . S
C1148 H1130 0.951 . S
C1148 C1149 1.366 . S
C1148 C1150 1.388 . S
C1149 C1148 1.366 . S
C1149 C1153 1.385 . S
C1150 H1131 0.951 . S
C1150 C1148 1.388 . S
C1150 C1151 1.366 . S
C1151 C1150 1.366 . S
C1151 C1152 1.414 . S
C1151 C1154 1.499 . S
C1152 H1132 0.950 . S
C1152 C1151 1.414 . S
C1152 C1153 1.374 . S
C1153 H1133 0.950 . S
C1153 C1149 1.385 . S
C1153 C1152 1.374 . S
C1154 C1151 1.499 . S
C1154 C1155 1.373 . S
C1154 C1156 1.389 . S
C1155 H1134 0.950 . S
C1155 C1154 1.373 . S
C1155 C1171 1.377 . S
C1156 C1154 1.389 . S
C1156 C1157 1.524 . S
C1156 C1170 1.377 . S
C1157 C1156 1.524 . S
C1157 C1158 1.397 . S
C1157 C1162 1.363 . S
C1158 H1135 0.950 . S
C1158 C1157 1.397 . S
C1158 C1159 1.334 . S
C1159 H1136 0.950 . S
C1159 C1158 1.334 . S
C1159 C1160 1.287 . S
C1160 C1159 1.287 . S
C1160 C1161 1.524 . S
C1160 H1179 0.913 . S
C1161 H1137 0.950 . S
C1161 C1160 1.524 . S
C1161 C1162 1.415 . S
C1162 H1138 0.950 . S
C1162 C1157 1.363 . S
C1162 C1161 1.415 . S
C1163 H1139 0.951 . S
C1163 C1164 1.366 . S
C1163 C1165 1.388 . S
C1164 C1163 1.366 . S
C1164 C1168 1.385 . S
C1165 H1140 0.951 . S
C1165 C1163 1.388 . S
C1165 C1166 1.366 . S
C1166 C1165 1.366 . S
C1166 C1167 1.414 . S
C1166 C1169 1.499 . S
C1167 H1141 0.950 . S
C1167 C1166 1.414 . S
C1167 C1168 1.374 . S
C1168 H1142 0.950 . S
C1168 C1164 1.385 . S
C1168 C1167 1.374 . S
C1169 C1166 1.499 . S
C1169 C1170 1.373 . S
C1169 C1171 1.389 . S
C1170 H1143 0.950 . S
C1170 C1156 1.377 . S
C1170 C1169 1.373 . S
C1171 C1155 1.377 . S
C1171 C1169 1.389 . S
C1171 C1172 1.524 . S
C1172 C1171 1.524 . S
C1172 C1173 1.397 . S
C1172 C1177 1.363 . S
C1173 H1144 0.950 . S
C1173 C1172 1.397 . S
C1173 C1174 1.334 . S
C1174 H1145 0.950 . S
C1174 C1173 1.334 . S
C1174 C1175 1.287 . S
C1175 C1174 1.287 . S
C1175 C1176 1.524 . S
C1175 H1178 0.999 . S
C1176 H1146 0.950 . S
C1176 C1175 1.524 . S
C1176 C1177 1.415 . S
C1177 H1147 0.950 . S
C1177 C1172 1.363 . S
C1177 C1176 1.415 . S
H1178 C1175 0.999 . S
H1179 C1160 0.913 . S
H1180 C1198 0.951 . S
H1181 C1200 0.951 . S
H1182 C1202 0.950 . S
H1183 C1203 0.950 . S
H1184 C1205 0.950 . S
H1185 C1208 0.950 . S
H1186 C1209 0.950 . S
H1187 C1211 0.950 . S
H1188 C1212 0.950 . S
H1189 C1213 0.951 . S
H1190 C1215 0.951 . S
H1191 C1217 0.950 . S
H1192 C1218 0.950 . S
H1193 C1220 0.950 . S
H1194 C1223 0.950 . S
H1195 C1224 0.950 . S
H1196 C1226 0.950 . S
H1197 C1227 0.950 . S
C1198 H1180 0.951 . S
C1198 C1199 1.366 . S
C1198 C1200 1.388 . S
C1199 C1198 1.366 . S
C1199 C1203 1.385 . S
C1200 H1181 0.951 . S
C1200 C1198 1.388 . S
C1200 C1201 1.366 . S
C1201 C1200 1.366 . S
C1201 C1202 1.414 . S
C1201 C1204 1.499 . S
C1202 H1182 0.950 . S
C1202 C1201 1.414 . S
C1202 C1203 1.374 . S
C1203 H1183 0.950 . S
C1203 C1199 1.385 . S
C1203 C1202 1.374 . S
C1204 C1201 1.499 . S
C1204 C1205 1.373 . S
C1204 C1206 1.389 . S
C1205 H1184 0.950 . S
C1205 C1204 1.373 . S
C1205 C1221 1.377 . S
C1206 C1204 1.389 . S
C1206 C1207 1.524 . S
C1206 C1220 1.377 . S
C1207 C1206 1.524 . S
C1207 C1208 1.397 . S
C1207 C1212 1.363 . S
C1208 H1185 0.950 . S
C1208 C1207 1.397 . S
C1208 C1209 1.334 . S
C1209 H1186 0.950 . S
C1209 C1208 1.334 . S
C1209 C1210 1.287 . S
C1210 C1209 1.287 . S
C1210 C1211 1.524 . S
C1210 H1229 0.913 . S
C1211 H1187 0.950 . S
C1211 C1210 1.524 . S
C1211 C1212 1.415 . S
C1212 H1188 0.950 . S
C1212 C1207 1.363 . S
C1212 C1211 1.415 . S
C1213 H1189 0.951 . S
C1213 C1214 1.366 . S
C1213 C1215 1.388 . S
C1214 C1213 1.366 . S
C1214 C1218 1.385 . S
C1215 H1190 0.951 . S
C1215 C1213 1.388 . S
C1215 C1216 1.366 . S
C1216 C1215 1.366 . S
C1216 C1217 1.414 . S
C1216 C1219 1.499 . S
C1217 H1191 0.950 . S
C1217 C1216 1.414 . S
C1217 C1218 1.374 . S
C1218 H1192 0.950 . S
C1218 C1214 1.385 . S
C1218 C1217 1.374 . S
C1219 C1216 1.499 . S
C1219 C1220 1.373 . S
C1219 C1221 1.389 . S
C1220 H1193 0.950 . S
C1220 C1206 1.377 . S
C1220 C1219 1.373 . S
C1221 C1205 1.377 . S
C1221 C1219 1.389 . S
C1221 C1222 1.524 . S
C1222 C1221 1.524 . S
C1222 C1223 1.397 . S
C1222 C1227 1.363 . S
C1223 H1194 0.950 . S
C1223 C1222 1.397 . S
C1223 C1224 1.334 . S
C1224 H1195 0.950 . S
C1224 C1223 1.334 . S
C1224 C1225 1.287 . S
C1225 C1224 1.287 . S
C1225 C1226 1.524 . S
C1225 H1228 0.999 . S
C1226 H1196 0.950 . S
C1226 C1225 1.524 . S
C1226 C1227 1.415 . S
C1227 H1197 0.950 . S
C1227 C1222 1.363 . S
C1227 C1226 1.415 . S
H1228 C1225 0.999 . S
H1229 C1210 0.913 . S
H1230 C1248 0.951 . S
H1231 C1250 0.951 . S
H1232 C1252 0.950 . S
H1233 C1253 0.950 . S
H1234 C1255 0.950 . S
H1235 C1258 0.950 . S
H1236 C1259 0.950 . S
H1237 C1261 0.950 . S
H1238 C1262 0.950 . S
H1239 C1263 0.951 . S
H1240 C1265 0.951 . S
H1241 C1267 0.950 . S
H1242 C1268 0.950 . S
H1243 C1270 0.950 . S
H1244 C1273 0.950 . S
H1245 C1274 0.950 . S
H1246 C1276 0.950 . S
H1247 C1277 0.950 . S
C1248 H1230 0.951 . S
C1248 C1249 1.366 . S
C1248 C1250 1.388 . S
C1249 C1248 1.366 . S
C1249 C1253 1.385 . S
C1250 H1231 0.951 . S
C1250 C1248 1.388 . S
C1250 C1251 1.366 . S
C1251 C1250 1.366 . S
C1251 C1252 1.414 . S
C1251 C1254 1.499 . S
C1252 H1232 0.950 . S
C1252 C1251 1.414 . S
C1252 C1253 1.374 . S
C1253 H1233 0.950 . S
C1253 C1249 1.385 . S
C1253 C1252 1.374 . S
C1254 C1251 1.499 . S
C1254 C1255 1.373 . S
C1254 C1256 1.389 . S
C1255 H1234 0.950 . S
C1255 C1254 1.373 . S
C1255 C1271 1.377 . S
C1256 C1254 1.389 . S
C1256 C1257 1.524 . S
C1256 C1270 1.377 . S
C1257 C1256 1.524 . S
C1257 C1258 1.397 . S
C1257 C1262 1.363 . S
C1258 H1235 0.950 . S
C1258 C1257 1.397 . S
C1258 C1259 1.334 . S
C1259 H1236 0.950 . S
C1259 C1258 1.334 . S
C1259 C1260 1.287 . S
C1260 C1259 1.287 . S
C1260 C1261 1.524 . S
C1260 H1279 0.913 . S
C1261 H1237 0.950 . S
C1261 C1260 1.524 . S
C1261 C1262 1.415 . S
C1262 H1238 0.950 . S
C1262 C1257 1.363 . S
C1262 C1261 1.415 . S
C1263 H1239 0.951 . S
C1263 C1264 1.366 . S
C1263 C1265 1.388 . S
C1264 C1263 1.366 . S
C1264 C1268 1.385 . S
C1265 H1240 0.951 . S
C1265 C1263 1.388 . S
C1265 C1266 1.366 . S
C1266 C1265 1.366 . S
C1266 C1267 1.414 . S
C1266 C1269 1.499 . S
C1267 H1241 0.950 . S
C1267 C1266 1.414 . S
C1267 C1268 1.374 . S
C1268 H1242 0.950 . S
C1268 C1264 1.385 . S
C1268 C1267 1.374 . S
C1269 C1266 1.499 . S
C1269 C1270 1.373 . S
C1269 C1271 1.389 . S
C1270 H1243 0.950 . S
C1270 C1256 1.377 . S
C1270 C1269 1.373 . S
C1271 C1255 1.377 . S
C1271 C1269 1.389 . S
C1271 C1272 1.524 . S
C1272 C1271 1.524 . S
C1272 C1273 1.397 . S
C1272 C1277 1.363 . S
C1273 H1244 0.950 . S
C1273 C1272 1.397 . S
C1273 C1274 1.334 . S
C1274 H1245 0.950 . S
C1274 C1273 1.334 . S
C1274 C1275 1.287 . S
C1275 C1274 1.287 . S
C1275 C1276 1.524 . S
C1275 H1278 0.999 . S
C1276 H1246 0.950 . S
C1276 C1275 1.524 . S
C1276 C1277 1.415 . S
C1277 H1247 0.950 . S
C1277 C1272 1.363 . S
C1277 C1276 1.415 . S
H1278 C1275 0.999 . S
H1279 C1260 0.913 . S
H1280 C1298 0.951 . S
H1281 C1300 0.951 . S
H1282 C1302 0.950 . S
H1283 C1303 0.950 . S
H1284 C1305 0.950 . S
H1285 C1308 0.950 . S
H1286 C1309 0.950 . S
H1287 C1311 0.950 . S
H1288 C1312 0.950 . S
H1289 C1313 0.951 . S
H1290 C1315 0.951 . S
H1291 C1317 0.950 . S
H1292 C1318 0.950 . S
H1293 C1320 0.950 . S
H1294 C1323 0.950 . S
H1295 C1324 0.950 . S
H1296 C1326 0.950 . S
H1297 C1327 0.950 . S
C1298 H1280 0.951 . S
C1298 C1299 1.366 . S
C1298 C1300 1.388 . S
C1299 C1298 1.366 . S
C1299 C1303 1.385 . S
C1300 H1281 0.951 . S
C1300 C1298 1.388 . S
C1300 C1301 1.366 . S
C1301 C1300 1.366 . S
C1301 C1302 1.414 . S
C1301 C1304 1.499 . S
C1302 H1282 0.950 . S
C1302 C1301 1.414 . S
C1302 C1303 1.374 . S
C1303 H1283 0.950 . S
C1303 C1299 1.385 . S
C1303 C1302 1.374 . S
C1304 C1301 1.499 . S
C1304 C1305 1.373 . S
C1304 C1306 1.389 . S
C1305 H1284 0.950 . S
C1305 C1304 1.373 . S
C1305 C1321 1.377 . S
C1306 C1304 1.389 . S
C1306 C1307 1.524 . S
C1306 C1320 1.377 . S
C1307 C1306 1.524 . S
C1307 C1308 1.397 . S
C1307 C1312 1.363 . S
C1308 H1285 0.950 . S
C1308 C1307 1.397 . S
C1308 C1309 1.334 . S
C1309 H1286 0.950 . S
C1309 C1308 1.334 . S
C1309 C1310 1.287 . S
C1310 C1309 1.287 . S
C1310 C1311 1.524 . S
C1310 H1329 0.913 . S
C1311 H1287 0.950 . S
C1311 C1310 1.524 . S
C1311 C1312 1.415 . S
C1312 H1288 0.950 . S
C1312 C1307 1.363 . S
C1312 C1311 1.415 . S
C1313 H1289 0.951 . S
C1313 C1314 1.366 . S
C1313 C1315 1.388 . S
C1314 C1313 1.366 . S
C1314 C1318 1.385 . S
C1315 H1290 0.951 . S
C1315 C1313 1.388 . S
C1315 C1316 1.366 . S
C1316 C1315 1.366 . S
C1316 C1317 1.414 . S
C1316 C1319 1.499 . S
C1317 H1291 0.950 . S
C1317 C1316 1.414 . S
C1317 C1318 1.374 . S
C1318 H1292 0.950 . S
C1318 C1314 1.385 . S
C1318 C1317 1.374 . S
C1319 C1316 1.499 . S
C1319 C1320 1.373 . S
C1319 C1321 1.389 . S
C1320 H1293 0.950 . S
C1320 C1306 1.377 . S
C1320 C1319 1.373 . S
C1321 C1305 1.377 . S
C1321 C1319 1.389 . S
C1321 C1322 1.524 . S
C1322 C1321 1.524 . S
C1322 C1323 1.397 . S
C1322 C1327 1.363 . S
C1323 H1294 0.950 . S
C1323 C1322 1.397 . S
C1323 C1324 1.334 . S
C1324 H1295 0.950 . S
C1324 C1323 1.334 . S
C1324 C1325 1.287 . S
C1325 C1324 1.287 . S
C1325 C1326 1.524 . S
C1325 H1328 0.999 . S
C1326 H1296 0.950 . S
C1326 C1325 1.524 . S
C1326 C1327 1.415 . S
C1327 H1297 0.950 . S
C1327 C1322 1.363 . S
C1327 C1326 1.415 . S
H1328 C1325 0.999 . S
H1329 C1310 0.913 . S
H1330 C1348 0.951 . S
H1331 C1350 0.951 . S
H1332 C1352 0.950 . S
H1333 C1353 0.950 . S
H1334 C1355 0.950 . S
H1335 C1358 0.950 . S
H1336 C1359 0.950 . S
H1337 C1361 0.950 . S
H1338 C1362 0.950 . S
H1339 C1363 0.951 . S
H1340 C1365 0.951 . S
H1341 C1367 0.950 . S
H1342 C1368 0.950 . S
H1343 C1370 0.950 . S
H1344 C1373 0.950 . S
H1345 C1374 0.950 . S
H1346 C1376 0.950 . S
H1347 C1377 0.950 . S
C1348 H1330 0.951 . S
C1348 C1349 1.366 . S
C1348 C1350 1.388 . S
C1349 C1348 1.366 . S
C1349 C1353 1.385 . S
C1350 H1331 0.951 . S
C1350 C1348 1.388 . S
C1350 C1351 1.366 . S
C1351 C1350 1.366 . S
C1351 C1352 1.414 . S
C1351 C1354 1.499 . S
C1352 H1332 0.950 . S
C1352 C1351 1.414 . S
C1352 C1353 1.374 . S
C1353 H1333 0.950 . S
C1353 C1349 1.385 . S
C1353 C1352 1.374 . S
C1354 C1351 1.499 . S
C1354 C1355 1.373 . S
C1354 C1356 1.389 . S
C1355 H1334 0.950 . S
C1355 C1354 1.373 . S
C1355 C1371 1.377 . S
C1356 C1354 1.389 . S
C1356 C1357 1.524 . S
C1356 C1370 1.377 . S
C1357 C1356 1.524 . S
C1357 C1358 1.397 . S
C1357 C1362 1.363 . S
C1358 H1335 0.950 . S
C1358 C1357 1.397 . S
C1358 C1359 1.334 . S
C1359 H1336 0.950 . S
C1359 C1358 1.334 . S
C1359 C1360 1.287 . S
C1360 C1359 1.287 . S
C1360 C1361 1.524 . S
C1360 H1379 0.913 . S
C1361 H1337 0.950 . S
C1361 C1360 1.524 . S
C1361 C1362 1.415 . S
C1362 H1338 0.950 . S
C1362 C1357 1.363 . S
C1362 C1361 1.415 . S
C1363 H1339 0.951 . S
C1363 C1364 1.366 . S
C1363 C1365 1.388 . S
C1364 C1363 1.366 . S
C1364 C1368 1.385 . S
C1365 H1340 0.951 . S
C1365 C1363 1.388 . S
C1365 C1366 1.366 . S
C1366 C1365 1.366 . S
C1366 C1367 1.414 . S
C1366 C1369 1.499 . S
C1367 H1341 0.950 . S
C1367 C1366 1.414 . S
C1367 C1368 1.374 . S
C1368 H1342 0.950 . S
C1368 C1364 1.385 . S
C1368 C1367 1.374 . S
C1369 C1366 1.499 . S
C1369 C1370 1.373 . S
C1369 C1371 1.389 . S
C1370 H1343 0.950 . S
C1370 C1356 1.377 . S
C1370 C1369 1.373 . S
C1371 C1355 1.377 . S
C1371 C1369 1.389 . S
C1371 C1372 1.524 . S
C1372 C1371 1.524 . S
C1372 C1373 1.397 . S
C1372 C1377 1.363 . S
C1373 H1344 0.950 . S
C1373 C1372 1.397 . S
C1373 C1374 1.334 . S
C1374 H1345 0.950 . S
C1374 C1373 1.334 . S
C1374 C1375 1.287 . S
C1375 C1374 1.287 . S
C1375 C1376 1.524 . S
C1375 H1378 0.999 . S
C1376 H1346 0.950 . S
C1376 C1375 1.524 . S
C1376 C1377 1.415 . S
C1377 H1347 0.950 . S
C1377 C1372 1.363 . S
C1377 C1376 1.415 . S
H1378 C1375 0.999 . S
H1379 C1360 0.913 . S
H1380 C1398 0.951 . S
H1381 C1400 0.951 . S
H1382 C1402 0.950 . S
H1383 C1403 0.950 . S
H1384 C1405 0.950 . S
H1385 C1408 0.950 . S
H1386 C1409 0.950 . S
H1387 C1411 0.950 . S
H1388 C1412 0.950 . S
H1389 C1413 0.951 . S
H1390 C1415 0.951 . S
H1391 C1417 0.950 . S
H1392 C1418 0.950 . S
H1393 C1420 0.950 . S
H1394 C1423 0.950 . S
H1395 C1424 0.950 . S
H1396 C1426 0.950 . S
H1397 C1427 0.950 . S
C1398 H1380 0.951 . S
C1398 C1399 1.366 . S
C1398 C1400 1.388 . S
C1399 C1398 1.366 . S
C1399 C1403 1.385 . S
C1400 H1381 0.951 . S
C1400 C1398 1.388 . S
C1400 C1401 1.366 . S
C1401 C1400 1.366 . S
C1401 C1402 1.414 . S
C1401 C1404 1.499 . S
C1402 H1382 0.950 . S
C1402 C1401 1.414 . S
C1402 C1403 1.374 . S
C1403 H1383 0.950 . S
C1403 C1399 1.385 . S
C1403 C1402 1.374 . S
C1404 C1401 1.499 . S
C1404 C1405 1.373 1_565 S
C1404 C1406 1.389 1_556 S
C1405 H1384 0.950 . S
C1405 C1404 1.373 1_545 S
C1405 C1421 1.377 . S
C1406 C1404 1.389 1_554 S
C1406 C1407 1.524 . S
C1406 C1420 1.377 . S
C1407 C1406 1.524 . S
C1407 C1408 1.397 . S
C1407 C1412 1.363 . S
C1408 H1385 0.950 . S
C1408 C1407 1.397 . S
C1408 C1409 1.334 . S
C1409 H1386 0.950 . S
C1409 C1408 1.334 . S
C1409 C1410 1.287 . S
C1410 C1409 1.287 . S
C1410 C1411 1.524 . S
C1410 H1429 0.913 . S
C1411 H1387 0.950 . S
C1411 C1410 1.524 . S
C1411 C1412 1.415 . S
C1412 H1388 0.950 . S
C1412 C1407 1.363 . S
C1412 C1411 1.415 . S
C1413 H1389 0.951 . S
C1413 C1414 1.366 . S
C1413 C1415 1.388 . S
C1414 C1413 1.366 . S
C1414 C1418 1.385 . S
C1415 H1390 0.951 . S
C1415 C1413 1.388 . S
C1415 C1416 1.366 . S
C1416 C1415 1.366 . S
C1416 C1417 1.414 . S
C1416 C1419 1.499 . S
C1417 H1391 0.950 . S
C1417 C1416 1.414 . S
C1417 C1418 1.374 . S
C1418 H1392 0.950 . S
C1418 C1414 1.385 . S
C1418 C1417 1.374 . S
C1419 C1416 1.499 . S
C1419 C1420 1.373 1_545 S
C1419 C1421 1.389 1_554 S
C1420 H1393 0.950 . S
C1420 C1406 1.377 . S
C1420 C1419 1.373 1_565 S
C1421 C1405 1.377 . S
C1421 C1419 1.389 1_556 S
C1421 C1422 1.524 . S
C1422 C1421 1.524 . S
C1422 C1423 1.397 . S
C1422 C1427 1.363 . S
C1423 H1394 0.950 . S
C1423 C1422 1.397 . S
C1423 C1424 1.334 . S
C1424 H1395 0.950 . S
C1424 C1423 1.334 . S
C1424 C1425 1.287 . S
C1425 C1424 1.287 . S
C1425 C1426 1.524 . S
C1425 H1428 0.999 . S
C1426 H1396 0.950 . S
C1426 C1425 1.524 . S
C1426 C1427 1.415 . S
C1427 H1397 0.950 . S
C1427 C1422 1.363 . S
C1427 C1426 1.415 . S
H1428 C1425 0.999 . S
H1429 C1410 0.913 . S
H1430 C1448 0.951 . S
H1431 C1450 0.951 . S
H1432 C1452 0.950 . S
H1433 C1453 0.950 . S
H1434 C1455 0.950 . S
H1435 C1458 0.950 . S
H1436 C1459 0.950 . S
H1437 C1461 0.950 . S
H1438 C1462 0.950 . S
H1439 C1463 0.951 . S
H1440 C1465 0.951 . S
H1441 C1467 0.950 . S
H1442 C1468 0.950 . S
H1443 C1470 0.950 . S
H1444 C1473 0.950 . S
H1445 C1474 0.950 . S
H1446 C1476 0.950 . S
H1447 C1477 0.950 . S
C1448 H1430 0.951 . S
C1448 C1449 1.366 . S
C1448 C1450 1.388 . S
C1449 C1448 1.366 . S
C1449 C1453 1.385 . S
C1450 H1431 0.951 . S
C1450 C1448 1.388 . S
C1450 C1451 1.366 . S
C1451 C1450 1.366 . S
C1451 C1452 1.414 . S
C1451 C1454 1.499 . S
C1452 H1432 0.950 . S
C1452 C1451 1.414 . S
C1452 C1453 1.374 . S
C1453 H1433 0.950 . S
C1453 C1449 1.385 . S
C1453 C1452 1.374 . S
C1454 C1451 1.499 . S
C1454 C1455 1.373 . S
C1454 C1456 1.389 . S
C1455 H1434 0.950 . S
C1455 C1454 1.373 . S
C1455 C1471 1.377 . S
C1456 C1454 1.389 . S
C1456 C1457 1.524 . S
C1456 C1470 1.377 . S
C1457 C1456 1.524 . S
C1457 C1458 1.397 . S
C1457 C1462 1.363 . S
C1458 H1435 0.950 . S
C1458 C1457 1.397 . S
C1458 C1459 1.334 . S
C1459 H1436 0.950 . S
C1459 C1458 1.334 . S
C1459 C1460 1.287 . S
C1460 C1459 1.287 . S
C1460 C1461 1.524 . S
C1460 H1479 0.913 . S
C1461 H1437 0.950 . S
C1461 C1460 1.524 . S
C1461 C1462 1.415 . S
C1462 H1438 0.950 . S
C1462 C1457 1.363 . S
C1462 C1461 1.415 . S
C1463 H1439 0.951 . S
C1463 C1464 1.366 . S
C1463 C1465 1.388 . S
C1464 C1463 1.366 . S
C1464 C1468 1.385 . S
C1465 H1440 0.951 . S
C1465 C1463 1.388 . S
C1465 C1466 1.366 . S
C1466 C1465 1.366 . S
C1466 C1467 1.414 . S
C1466 C1469 1.499 . S
C1467 H1441 0.950 . S
C1467 C1466 1.414 . S
C1467 C1468 1.374 . S
C1468 H1442 0.950 . S
C1468 C1464 1.385 . S
C1468 C1467 1.374 . S
C1469 C1466 1.499 . S
C1469 C1470 1.373 . S
C1469 C1471 1.389 . S
C1470 H1443 0.950 . S
C1470 C1456 1.377 . S
C1470 C1469 1.373 . S
C1471 C1455 1.377 . S
C1471 C1469 1.389 . S
C1471 C1472 1.524 . S
C1472 C1471 1.524 . S
C1472 C1473 1.397 . S
C1472 C1477 1.363 . S
C1473 H1444 0.950 . S
C1473 C1472 1.397 . S
C1473 C1474 1.334 . S
C1474 H1445 0.950 . S
C1474 C1473 1.334 . S
C1474 C1475 1.287 . S
C1475 C1474 1.287 . S
C1475 C1476 1.524 . S
C1475 H1478 0.999 . S
C1476 H1446 0.950 . S
C1476 C1475 1.524 . S
C1476 C1477 1.415 . S
C1477 H1447 0.950 . S
C1477 C1472 1.363 . S
C1477 C1476 1.415 . S
H1478 C1475 0.999 . S
H1479 C1460 0.913 . S
H1480 C1498 0.951 . S
H1481 C1500 0.951 . S
H1482 C1502 0.950 . S
H1483 C1503 0.950 . S
H1484 C1505 0.950 . S
H1485 C1508 0.950 . S
H1486 C1509 0.950 . S
H1487 C1511 0.950 . S
H1488 C1512 0.950 . S
H1489 C1513 0.951 . S
H1490 C1515 0.951 . S
H1491 C1517 0.950 . S
H1492 C1518 0.950 . S
H1493 C1520 0.950 . S
H1494 C1523 0.950 . S
H1495 C1524 0.950 . S
H1496 C1526 0.950 . S
H1497 C1527 0.950 . S
C1498 H1480 0.951 . S
C1498 C1499 1.366 . S
C1498 C1500 1.388 . S
C1499 C1498 1.366 . S
C1499 C1503 1.385 . S
C1500 H1481 0.951 . S
C1500 C1498 1.388 . S
C1500 C1501 1.366 . S
C1501 C1500 1.366 . S
C1501 C1502 1.414 . S
C1501 C1504 1.499 . S
C1502 H1482 0.950 . S
C1502 C1501 1.414 . S
C1502 C1503 1.374 . S
C1503 H1483 0.950 . S
C1503 C1499 1.385 . S
C1503 C1502 1.374 . S
C1504 C1501 1.499 . S
C1504 C1505 1.377 . S
C1504 C1506 1.378 1_455 S
C1505 H1484 0.950 . S
C1505 C1504 1.377 . S
C1505 C1521 1.398 1_556 S
C1506 C1504 1.378 1_655 S
C1506 C1507 1.515 . S
C1506 C1520 1.398 1_556 S
C1507 C1506 1.515 . S
C1507 C1508 1.397 . S
C1507 C1512 1.363 . S
C1508 H1485 0.950 . S
C1508 C1507 1.397 . S
C1508 C1509 1.334 . S
C1509 H1486 0.950 . S
C1509 C1508 1.334 . S
C1509 C1510 1.287 . S
C1510 C1509 1.287 . S
C1510 C1511 1.524 . S
C1510 H1529 0.913 . S
C1511 H1487 0.950 . S
C1511 C1510 1.524 . S
C1511 C1512 1.415 . S
C1512 H1488 0.950 . S
C1512 C1507 1.363 . S
C1512 C1511 1.415 . S
C1513 H1489 0.951 . S
C1513 C1514 1.366 . S
C1513 C1515 1.388 . S
C1514 C1513 1.366 . S
C1514 C1518 1.385 . S
C1515 H1490 0.951 . S
C1515 C1513 1.388 . S
C1515 C1516 1.366 . S
C1516 C1515 1.366 . S
C1516 C1517 1.414 . S
C1516 C1519 1.499 . S
C1517 H1491 0.950 . S
C1517 C1516 1.414 . S
C1517 C1518 1.374 . S
C1518 H1492 0.950 . S
C1518 C1514 1.385 . S
C1518 C1517 1.374 . S
C1519 C1516 1.499 . S
C1519 C1520 1.377 . S
C1519 C1521 1.378 1_655 S
C1520 H1493 0.950 . S
C1520 C1506 1.398 1_554 S
C1520 C1519 1.377 . S
C1521 C1505 1.398 1_554 S
C1521 C1519 1.378 1_455 S
C1521 C1522 1.515 . S
C1522 C1521 1.515 . S
C1522 C1523 1.397 . S
C1522 C1527 1.363 . S
C1523 H1494 0.950 . S
C1523 C1522 1.397 . S
C1523 C1524 1.334 . S
C1524 H1495 0.950 . S
C1524 C1523 1.334 . S
C1524 C1525 1.287 . S
C1525 C1524 1.287 . S
C1525 C1526 1.524 . S
C1525 H1528 0.999 . S
C1526 H1496 0.950 . S
C1526 C1525 1.524 . S
C1526 C1527 1.415 . S
C1527 H1497 0.950 . S
C1527 C1522 1.363 . S
C1527 C1526 1.415 . S
H1528 C1525 0.999 . S
H1529 C1510 0.913 . S
H1530 C1548 0.951 . S
H1531 C1550 0.951 . S
H1532 C1552 0.950 . S
H1533 C1553 0.950 . S
H1534 C1555 0.950 . S
H1535 C1558 0.950 . S
H1536 C1559 0.950 . S
H1537 C1561 0.950 . S
H1538 C1562 0.950 . S
H1539 C1563 0.951 . S
H1540 C1565 0.951 . S
H1541 C1567 0.950 . S
H1542 C1568 0.950 . S
H1543 C1570 0.950 . S
H1544 C1573 0.950 . S
H1545 C1574 0.950 . S
H1546 C1576 0.950 . S
H1547 C1577 0.950 . S
C1548 H1530 0.951 . S
C1548 C1549 1.366 . S
C1548 C1550 1.388 . S
C1549 C1548 1.366 . S
C1549 C1553 1.385 . S
C1550 H1531 0.951 . S
C1550 C1548 1.388 . S
C1550 C1551 1.366 . S
C1551 C1550 1.366 . S
C1551 C1552 1.414 . S
C1551 C1554 1.499 . S
C1552 H1532 0.950 . S
C1552 C1551 1.414 . S
C1552 C1553 1.374 . S
C1553 H1533 0.950 . S
C1553 C1549 1.385 . S
C1553 C1552 1.374 . S
C1554 C1551 1.499 . S
C1554 C1555 1.373 . S
C1554 C1556 1.389 . S
C1555 H1534 0.950 . S
C1555 C1554 1.373 . S
C1555 C1571 1.377 1_545 S
C1556 C1554 1.389 . S
C1556 C1557 1.524 . S
C1556 C1570 1.377 1_545 S
C1557 C1556 1.524 . S
C1557 C1558 1.397 . S
C1557 C1562 1.363 1_545 S
C1558 H1535 0.950 . S
C1558 C1557 1.397 . S
C1558 C1559 1.334 . S
C1559 H1536 0.950 . S
C1559 C1558 1.334 . S
C1559 C1560 1.287 . S
C1560 C1559 1.287 . S
C1560 C1561 1.524 1_545 S
C1560 H1579 0.913 . S
C1561 H1537 0.950 . S
C1561 C1560 1.524 1_565 S
C1561 C1562 1.415 . S
C1562 H1538 0.950 . S
C1562 C1557 1.363 1_565 S
C1562 C1561 1.415 . S
C1563 H1539 0.951 . S
C1563 C1564 1.366 . S
C1563 C1565 1.388 . S
C1564 C1563 1.366 . S
C1564 C1568 1.385 . S
C1565 H1540 0.951 . S
C1565 C1563 1.388 . S
C1565 C1566 1.366 . S
C1566 C1565 1.366 . S
C1566 C1567 1.414 . S
C1566 C1569 1.499 . S
C1567 H1541 0.950 . S
C1567 C1566 1.414 . S
C1567 C1568 1.374 . S
C1568 H1542 0.950 . S
C1568 C1564 1.385 . S
C1568 C1567 1.374 . S
C1569 C1566 1.499 . S
C1569 C1570 1.373 . S
C1569 C1571 1.389 . S
C1570 H1543 0.950 . S
C1570 C1556 1.377 1_565 S
C1570 C1569 1.373 . S
C1571 C1555 1.377 1_565 S
C1571 C1569 1.389 . S
C1571 C1572 1.524 . S
C1572 C1571 1.524 . S
C1572 C1573 1.397 . S
C1572 C1577 1.363 1_565 S
C1573 H1544 0.950 . S
C1573 C1572 1.397 . S
C1573 C1574 1.334 . S
C1574 H1545 0.950 . S
C1574 C1573 1.334 . S
C1574 C1575 1.287 . S
C1575 C1574 1.287 . S
C1575 C1576 1.524 1_565 S
C1575 H1578 0.999 . S
C1576 H1546 0.950 . S
C1576 C1575 1.524 1_545 S
C1576 C1577 1.415 . S
C1577 H1547 0.950 . S
C1577 C1572 1.363 1_545 S
C1577 C1576 1.415 . S
H1578 C1575 0.999 . S
H1579 C1560 0.913 . S
H1580 C1598 0.951 . S
H1581 C1600 0.951 . S
H1582 C1602 0.950 . S
H1583 C1603 0.950 . S
H1584 C1605 0.950 . S
H1585 C1608 0.950 . S
H1586 C1609 0.950 . S
H1587 C1611 0.950 . S
H1588 C1612 0.950 . S
H1589 C1613 0.951 . S
H1590 C1615 0.951 . S
H1591 C1617 0.950 . S
H1592 C1618 0.950 . S
H1593 C1620 0.950 . S
H1594 C1623 0.950 . S
H1595 C1624 0.950 . S
H1596 C1626 0.950 . S
H1597 C1627 0.950 . S
C1598 H1580 0.951 . S
C1598 C1599 1.366 . S
C1598 C1600 1.388 . S
C1599 C1598 1.366 . S
C1599 C1603 1.385 . S
C1600 H1581 0.951 . S
C1600 C1598 1.388 . S
C1600 C1601 1.366 . S
C1601 C1600 1.366 . S
C1601 C1602 1.414 . S
C1601 C1604 1.499 . S
C1602 H1582 0.950 . S
C1602 C1601 1.414 . S
C1602 C1603 1.374 . S
C1603 H1583 0.950 . S
C1603 C1599 1.385 . S
C1603 C1602 1.374 . S
C1604 C1601 1.499 . S
C1604 C1605 1.373 1_554 S
C1604 C1606 1.389 . S
C1605 H1584 0.950 . S
C1605 C1604 1.373 1_556 S
C1605 C1621 1.377 . S
C1606 C1604 1.389 . S
C1606 C1607 1.524 . S
C1606 C1620 1.377 . S
C1607 C1606 1.524 . S
C1607 C1608 1.397 . S
C1607 C1612 1.363 . S
C1608 H1585 0.950 . S
C1608 C1607 1.397 . S
C1608 C1609 1.334 . S
C1609 H1586 0.950 . S
C1609 C1608 1.334 . S
C1609 C1610 1.287 . S
C1610 C1609 1.287 . S
C1610 C1611 1.524 . S
C1610 H1629 0.913 . S
C1611 H1587 0.950 . S
C1611 C1610 1.524 . S
C1611 C1612 1.415 . S
C1612 H1588 0.950 . S
C1612 C1607 1.363 . S
C1612 C1611 1.415 . S
C1613 H1589 0.951 . S
C1613 C1614 1.366 . S
C1613 C1615 1.388 . S
C1614 C1613 1.366 . S
C1614 C1618 1.385 . S
C1615 H1590 0.951 . S
C1615 C1613 1.388 . S
C1615 C1616 1.366 . S
C1616 C1615 1.366 . S
C1616 C1617 1.414 . S
C1616 C1619 1.499 . S
C1617 H1591 0.950 . S
C1617 C1616 1.414 . S
C1617 C1618 1.374 . S
C1618 H1592 0.950 . S
C1618 C1614 1.385 . S
C1618 C1617 1.374 . S
C1619 C1616 1.499 . S
C1619 C1620 1.373 1_556 S
C1619 C1621 1.389 . S
C1620 H1593 0.950 . S
C1620 C1606 1.377 . S
C1620 C1619 1.373 1_554 S
C1621 C1605 1.377 . S
C1621 C1619 1.389 . S
C1621 C1622 1.524 . S
C1622 C1621 1.524 . S
C1622 C1623 1.397 . S
C1622 C1627 1.363 . S
C1623 H1594 0.950 . S
C1623 C1622 1.397 . S
C1623 C1624 1.334 . S
C1624 H1595 0.950 . S
C1624 C1623 1.334 . S
C1624 C1625 1.287 . S
C1625 C1624 1.287 . S
C1625 C1626 1.524 . S
C1625 H1628 0.999 . S
C1626 H1596 0.950 . S
C1626 C1625 1.524 . S
C1626 C1627 1.415 . S
C1627 H1597 0.950 . S
C1627 C1622 1.363 . S
C1627 C1626 1.415 . S
H1628 C1625 0.999 . S
H1629 C1610 0.913 . S
H1630 C1648 0.951 . S
H1631 C1650 0.951 . S
H1632 C1652 0.950 . S
H1633 C1653 0.950 . S
H1634 C1655 0.950 . S
H1635 C1658 0.950 1_455 S
H1636 C1659 0.950 1_455 S
H1637 C1661 0.950 . S
H1638 C1662 0.950 . S
H1639 C1663 0.951 . S
H1640 C1665 0.951 . S
H1641 C1667 0.950 . S
H1642 C1668 0.950 . S
H1643 C1670 0.950 . S
H1644 C1673 0.950 1_655 S
H1645 C1674 0.950 1_655 S
H1646 C1676 0.950 . S
H1647 C1677 0.950 . S
C1648 H1630 0.951 . S
C1648 C1649 1.366 . S
C1648 C1650 1.388 . S
C1649 C1648 1.366 . S
C1649 C1653 1.385 . S
C1650 H1631 0.951 . S
C1650 C1648 1.388 . S
C1650 C1651 1.366 . S
C1651 C1650 1.366 . S
C1651 C1652 1.414 . S
C1651 C1654 1.499 . S
C1652 H1632 0.950 . S
C1652 C1651 1.414 . S
C1652 C1653 1.374 . S
C1653 H1633 0.950 . S
C1653 C1649 1.385 . S
C1653 C1652 1.374 . S
C1654 C1651 1.499 . S
C1654 C1655 1.373 . S
C1654 C1656 1.389 1_455 S
C1655 H1634 0.950 . S
C1655 C1654 1.373 . S
C1655 C1671 1.377 . S
C1656 C1654 1.389 1_655 S
C1656 C1657 1.524 . S
C1656 C1670 1.377 . S
C1657 C1656 1.524 . S
C1657 C1658 1.397 . S
C1657 C1662 1.363 . S
C1658 H1635 0.950 1_655 S
C1658 C1657 1.397 . S
C1658 C1659 1.334 . S
C1659 H1636 0.950 1_655 S
C1659 C1658 1.334 . S
C1659 C1660 1.287 . S
C1660 C1659 1.287 . S
C1660 C1661 1.524 . S
C1660 H1679 0.913 . S
C1661 H1637 0.950 . S
C1661 C1660 1.524 . S
C1661 C1662 1.415 . S
C1662 H1638 0.950 . S
C1662 C1657 1.363 . S
C1662 C1661 1.415 . S
C1663 H1639 0.951 . S
C1663 C1664 1.366 . S
C1663 C1665 1.388 . S
C1664 C1663 1.366 . S
C1664 C1668 1.385 . S
C1665 H1640 0.951 . S
C1665 C1663 1.388 . S
C1665 C1666 1.366 . S
C1666 C1665 1.366 . S
C1666 C1667 1.414 . S
C1666 C1669 1.499 . S
C1667 H1641 0.950 . S
C1667 C1666 1.414 . S
C1667 C1668 1.374 . S
C1668 H1642 0.950 . S
C1668 C1664 1.385 . S
C1668 C1667 1.374 . S
C1669 C1666 1.499 . S
C1669 C1670 1.373 . S
C1669 C1671 1.389 1_655 S
C1670 H1643 0.950 . S
C1670 C1656 1.377 . S
C1670 C1669 1.373 . S
C1671 C1655 1.377 . S
C1671 C1669 1.389 1_455 S
C1671 C1672 1.524 . S
C1672 C1671 1.524 . S
C1672 C1673 1.397 . S
C1672 C1677 1.363 . S
C1673 H1644 0.950 1_455 S
C1673 C1672 1.397 . S
C1673 C1674 1.334 . S
C1674 H1645 0.950 1_455 S
C1674 C1673 1.334 . S
C1674 C1675 1.287 . S
C1675 C1674 1.287 . S
C1675 C1676 1.524 . S
C1675 H1678 0.999 . S
C1676 H1646 0.950 . S
C1676 C1675 1.524 . S
C1676 C1677 1.415 . S
C1677 H1647 0.950 . S
C1677 C1672 1.363 . S
C1677 C1676 1.415 . S
H1678 C1675 0.999 . S
H1679 C1660 0.913 . S
H1680 C1698 0.951 . S
H1681 C1700 0.951 . S
H1682 C1702 0.950 . S
H1683 C1703 0.950 . S
H1684 C1705 0.950 . S
H1685 C1708 0.950 . S
H1686 C1709 0.950 . S
H1687 C1711 0.950 . S
H1688 C1712 0.950 . S
H1689 C1713 0.951 . S
H1690 C1715 0.951 . S
H1691 C1717 0.950 . S
H1692 C1718 0.950 . S
H1693 C1720 0.950 . S
H1694 C1723 0.950 . S
H1695 C1724 0.950 . S
H1696 C1726 0.950 . S
H1697 C1727 0.950 . S
C1698 H1680 0.951 . S
C1698 C1699 1.366 . S
C1698 C1700 1.388 . S
C1699 C1698 1.366 . S
C1699 C1703 1.385 . S
C1700 H1681 0.951 . S
C1700 C1698 1.388 . S
C1700 C1701 1.366 . S
C1701 C1700 1.366 . S
C1701 C1702 1.414 . S
C1701 C1704 1.499 . S
C1702 H1682 0.950 . S
C1702 C1701 1.414 . S
C1702 C1703 1.374 . S
C1703 H1683 0.950 . S
C1703 C1699 1.385 . S
C1703 C1702 1.374 . S
C1704 C1701 1.499 . S
C1704 C1705 1.373 . S
C1704 C1706 1.389 . S
C1705 H1684 0.950 . S
C1705 C1704 1.373 . S
C1705 C1721 1.377 . S
C1706 C1704 1.389 . S
C1706 C1707 1.524 . S
C1706 C1720 1.377 . S
C1707 C1706 1.524 . S
C1707 C1708 1.397 . S
C1707 C1712 1.363 . S
C1708 H1685 0.950 . S
C1708 C1707 1.397 . S
C1708 C1709 1.334 . S
C1709 H1686 0.950 . S
C1709 C1708 1.334 . S
C1709 C1710 1.287 . S
C1710 C1709 1.287 . S
C1710 C1711 1.524 . S
C1710 H1729 0.913 . S
C1711 H1687 0.950 . S
C1711 C1710 1.524 . S
C1711 C1712 1.415 . S
C1712 H1688 0.950 . S
C1712 C1707 1.363 . S
C1712 C1711 1.415 . S
C1713 H1689 0.951 . S
C1713 C1714 1.366 . S
C1713 C1715 1.388 . S
C1714 C1713 1.366 . S
C1714 C1718 1.385 . S
C1715 H1690 0.951 . S
C1715 C1713 1.388 . S
C1715 C1716 1.366 . S
C1716 C1715 1.366 . S
C1716 C1717 1.414 . S
C1716 C1719 1.499 . S
C1717 H1691 0.950 . S
C1717 C1716 1.414 . S
C1717 C1718 1.374 . S
C1718 H1692 0.950 . S
C1718 C1714 1.385 . S
C1718 C1717 1.374 . S
C1719 C1716 1.499 . S
C1719 C1720 1.373 . S
C1719 C1721 1.389 . S
C1720 H1693 0.950 . S
C1720 C1706 1.377 . S
C1720 C1719 1.373 . S
C1721 C1705 1.377 . S
C1721 C1719 1.389 . S
C1721 C1722 1.524 . S
C1722 C1721 1.524 . S
C1722 C1723 1.397 . S
C1722 C1727 1.363 . S
C1723 H1694 0.950 . S
C1723 C1722 1.397 . S
C1723 C1724 1.334 . S
C1724 H1695 0.950 . S
C1724 C1723 1.334 . S
C1724 C1725 1.287 . S
C1725 C1724 1.287 . S
C1725 C1726 1.524 . S
C1725 H1728 0.999 . S
C1726 H1696 0.950 . S
C1726 C1725 1.524 . S
C1726 C1727 1.415 . S
C1727 H1697 0.950 . S
C1727 C1722 1.363 . S
C1727 C1726 1.415 . S
H1728 C1725 0.999 . S
H1729 C1710 0.913 . S
H1730 C1748 0.951 . S
H1731 C1750 0.951 . S
H1732 C1752 0.950 . S
H1733 C1753 0.950 . S
H1734 C1755 0.950 . S
H1735 C1758 0.950 . S
H1736 C1759 0.950 . S
H1737 C1761 0.950 . S
H1738 C1762 0.950 . S
H1739 C1763 0.951 . S
H1740 C1765 0.951 . S
H1741 C1767 0.950 . S
H1742 C1768 0.950 . S
H1743 C1770 0.950 . S
H1744 C1773 0.950 . S
H1745 C1774 0.950 . S
H1746 C1776 0.950 . S
H1747 C1777 0.950 . S
C1748 H1730 0.951 . S
C1748 C1749 1.366 . S
C1748 C1750 1.388 . S
C1749 C1748 1.366 . S
C1749 C1753 1.385 . S
C1750 H1731 0.951 . S
C1750 C1748 1.388 . S
C1750 C1751 1.366 . S
C1751 C1750 1.366 . S
C1751 C1752 1.414 . S
C1751 C1754 1.499 . S
C1752 H1732 0.950 . S
C1752 C1751 1.414 . S
C1752 C1753 1.374 . S
C1753 H1733 0.950 . S
C1753 C1749 1.385 . S
C1753 C1752 1.374 . S
C1754 C1751 1.499 . S
C1754 C1755 1.373 . S
C1754 C1756 1.389 . S
C1755 H1734 0.950 . S
C1755 C1754 1.373 . S
C1755 C1771 1.377 . S
C1756 C1754 1.389 . S
C1756 C1757 1.524 . S
C1756 C1770 1.377 . S
C1757 C1756 1.524 . S
C1757 C1758 1.397 . S
C1757 C1762 1.363 . S
C1758 H1735 0.950 . S
C1758 C1757 1.397 . S
C1758 C1759 1.334 . S
C1759 H1736 0.950 . S
C1759 C1758 1.334 . S
C1759 C1760 1.287 . S
C1760 C1759 1.287 . S
C1760 C1761 1.524 . S
C1760 H1779 0.913 . S
C1761 H1737 0.950 . S
C1761 C1760 1.524 . S
C1761 C1762 1.415 . S
C1762 H1738 0.950 . S
C1762 C1757 1.363 . S
C1762 C1761 1.415 . S
C1763 H1739 0.951 . S
C1763 C1764 1.366 . S
C1763 C1765 1.388 . S
C1764 C1763 1.366 . S
C1764 C1768 1.385 . S
C1765 H1740 0.951 . S
C1765 C1763 1.388 . S
C1765 C1766 1.366 . S
C1766 C1765 1.366 . S
C1766 C1767 1.414 . S
C1766 C1769 1.499 . S
C1767 H1741 0.950 . S
C1767 C1766 1.414 . S
C1767 C1768 1.374 . S
C1768 H1742 0.950 . S
C1768 C1764 1.385 . S
C1768 C1767 1.374 . S
C1769 C1766 1.499 . S
C1769 C1770 1.373 . S
C1769 C1771 1.389 . S
C1770 H1743 0.950 . S
C1770 C1756 1.377 . S
C1770 C1769 1.373 . S
C1771 C1755 1.377 . S
C1771 C1769 1.389 . S
C1771 C1772 1.524 . S
C1772 C1771 1.524 . S
C1772 C1773 1.397 . S
C1772 C1777 1.363 . S
C1773 H1744 0.950 . S
C1773 C1772 1.397 . S
C1773 C1774 1.334 . S
C1774 H1745 0.950 . S
C1774 C1773 1.334 . S
C1774 C1775 1.287 . S
C1775 C1774 1.287 . S
C1775 C1776 1.524 . S
C1775 H1778 0.999 . S
C1776 H1746 0.950 . S
C1776 C1775 1.524 . S
C1776 C1777 1.415 . S
C1777 H1747 0.950 . S
C1777 C1772 1.363 . S
C1777 C1776 1.415 . S
H1778 C1775 0.999 . S
H1779 C1760 0.913 . S
H1780 C1798 0.951 . S
H1781 C1800 0.951 . S
H1782 C1802 0.950 . S
H1783 C1803 0.950 . S
H1784 C1805 0.950 . S
H1785 C1808 0.950 . S
H1786 C1809 0.950 . S
H1787 C1811 0.950 . S
H1788 C1812 0.950 . S
H1789 C1813 0.951 . S
H1790 C1815 0.951 . S
H1791 C1817 0.950 . S
H1792 C1818 0.950 . S
H1793 C1820 0.950 . S
H1794 C1823 0.950 . S
H1795 C1824 0.950 . S
H1796 C1826 0.950 . S
H1797 C1827 0.950 . S
C1798 H1780 0.951 . S
C1798 C1799 1.366 . S
C1798 C1800 1.388 . S
C1799 C1798 1.366 . S
C1799 C1803 1.385 . S
C1800 H1781 0.951 . S
C1800 C1798 1.388 . S
C1800 C1801 1.366 . S
C1801 C1800 1.366 . S
C1801 C1802 1.414 . S
C1801 C1804 1.499 . S
C1802 H1782 0.950 . S
C1802 C1801 1.414 . S
C1802 C1803 1.374 . S
C1803 H1783 0.950 . S
C1803 C1799 1.385 . S
C1803 C1802 1.374 . S
C1804 C1801 1.499 . S
C1804 C1805 1.373 . S
C1804 C1806 1.389 . S
C1805 H1784 0.950 . S
C1805 C1804 1.373 . S
C1805 C1821 1.377 . S
C1806 C1804 1.389 . S
C1806 C1807 1.524 . S
C1806 C1820 1.377 . S
C1807 C1806 1.524 . S
C1807 C1808 1.397 . S
C1807 C1812 1.363 . S
C1808 H1785 0.950 . S
C1808 C1807 1.397 . S
C1808 C1809 1.334 . S
C1809 H1786 0.950 . S
C1809 C1808 1.334 . S
C1809 C1810 1.287 . S
C1810 C1809 1.287 . S
C1810 C1811 1.524 . S
C1810 H1829 0.913 . S
C1811 H1787 0.950 . S
C1811 C1810 1.524 . S
C1811 C1812 1.415 . S
C1812 H1788 0.950 . S
C1812 C1807 1.363 . S
C1812 C1811 1.415 . S
C1813 H1789 0.951 . S
C1813 C1814 1.366 . S
C1813 C1815 1.388 . S
C1814 C1813 1.366 . S
C1814 C1818 1.385 . S
C1815 H1790 0.951 . S
C1815 C1813 1.388 . S
C1815 C1816 1.366 . S
C1816 C1815 1.366 . S
C1816 C1817 1.414 . S
C1816 C1819 1.499 . S
C1817 H1791 0.950 . S
C1817 C1816 1.414 . S
C1817 C1818 1.374 . S
C1818 H1792 0.950 . S
C1818 C1814 1.385 . S
C1818 C1817 1.374 . S
C1819 C1816 1.499 . S
C1819 C1820 1.373 . S
C1819 C1821 1.389 . S
C1820 H1793 0.950 . S
C1820 C1806 1.377 . S
C1820 C1819 1.373 . S
C1821 C1805 1.377 . S
C1821 C1819 1.389 . S
C1821 C1822 1.524 . S
C1822 C1821 1.524 . S
C1822 C1823 1.397 . S
C1822 C1827 1.363 . S
C1823 H1794 0.950 . S
C1823 C1822 1.397 . S
C1823 C1824 1.334 . S
C1824 H1795 0.950 . S
C1824 C1823 1.334 . S
C1824 C1825 1.287 . S
C1825 C1824 1.287 . S
C1825 C1826 1.524 . S
C1825 H1828 0.999 . S
C1826 H1796 0.950 . S
C1826 C1825 1.524 . S
C1826 C1827 1.415 . S
C1827 H1797 0.950 . S
C1827 C1822 1.363 . S
C1827 C1826 1.415 . S
H1828 C1825 0.999 . S
H1829 C1810 0.913 . S
H1830 C1848 0.951 . S
H1831 C1850 0.951 . S
H1832 C1852 0.950 . S
H1833 C1853 0.950 . S
H1834 C1855 0.950 . S
H1835 C1858 0.950 . S
H1836 C1859 0.950 . S
H1837 C1861 0.950 . S
H1838 C1862 0.950 . S
H1839 C1863 0.951 . S
H1840 C1865 0.951 . S
H1841 C1867 0.950 . S
H1842 C1868 0.950 . S
H1843 C1870 0.950 . S
H1844 C1873 0.950 . S
H1845 C1874 0.950 . S
H1846 C1876 0.950 . S
H1847 C1877 0.950 . S
C1848 H1830 0.951 . S
C1848 C1849 1.366 . S
C1848 C1850 1.388 . S
C1849 C1848 1.366 . S
C1849 C1853 1.385 . S
C1850 H1831 0.951 . S
C1850 C1848 1.388 . S
C1850 C1851 1.366 . S
C1851 C1850 1.366 . S
C1851 C1852 1.414 . S
C1851 C1854 1.499 . S
C1852 H1832 0.950 . S
C1852 C1851 1.414 . S
C1852 C1853 1.374 . S
C1853 H1833 0.950 . S
C1853 C1849 1.385 . S
C1853 C1852 1.374 . S
C1854 C1851 1.499 . S
C1854 C1855 1.373 . S
C1854 C1856 1.389 . S
C1855 H1834 0.950 . S
C1855 C1854 1.373 . S
C1855 C1871 1.377 . S
C1856 C1854 1.389 . S
C1856 C1857 1.524 . S
C1856 C1870 1.377 . S
C1857 C1856 1.524 . S
C1857 C1858 1.397 . S
C1857 C1862 1.363 . S
C1858 H1835 0.950 . S
C1858 C1857 1.397 . S
C1858 C1859 1.334 . S
C1859 H1836 0.950 . S
C1859 C1858 1.334 . S
C1859 C1860 1.287 . S
C1860 C1859 1.287 . S
C1860 C1861 1.524 . S
C1860 H1879 0.913 . S
C1861 H1837 0.950 . S
C1861 C1860 1.524 . S
C1861 C1862 1.415 . S
C1862 H1838 0.950 . S
C1862 C1857 1.363 . S
C1862 C1861 1.415 . S
C1863 H1839 0.951 . S
C1863 C1864 1.366 . S
C1863 C1865 1.388 . S
C1864 C1863 1.366 . S
C1864 C1868 1.385 . S
C1865 H1840 0.951 . S
C1865 C1863 1.388 . S
C1865 C1866 1.366 . S
C1866 C1865 1.366 . S
C1866 C1867 1.414 . S
C1866 C1869 1.499 . S
C1867 H1841 0.950 . S
C1867 C1866 1.414 . S
C1867 C1868 1.374 . S
C1868 H1842 0.950 . S
C1868 C1864 1.385 . S
C1868 C1867 1.374 . S
C1869 C1866 1.499 . S
C1869 C1870 1.373 . S
C1869 C1871 1.389 . S
C1870 H1843 0.950 . S
C1870 C1856 1.377 . S
C1870 C1869 1.373 . S
C1871 C1855 1.377 . S
C1871 C1869 1.389 . S
C1871 C1872 1.524 . S
C1872 C1871 1.524 . S
C1872 C1873 1.397 . S
C1872 C1877 1.363 . S
C1873 H1844 0.950 . S
C1873 C1872 1.397 . S
C1873 C1874 1.334 . S
C1874 H1845 0.950 . S
C1874 C1873 1.334 . S
C1874 C1875 1.287 . S
C1875 C1874 1.287 . S
C1875 C1876 1.524 . S
C1875 H1878 0.999 . S
C1876 H1846 0.950 . S
C1876 C1875 1.524 . S
C1876 C1877 1.415 . S
C1877 H1847 0.950 . S
C1877 C1872 1.363 . S
C1877 C1876 1.415 . S
H1878 C1875 0.999 . S
H1879 C1860 0.913 . S
H1880 C1898 0.951 . S
H1881 C1900 0.951 . S
H1882 C1902 0.950 . S
H1883 C1903 0.950 . S
H1884 C1905 0.950 . S
H1885 C1908 0.950 . S
H1886 C1909 0.950 . S
H1887 C1911 0.950 . S
H1888 C1912 0.950 . S
H1889 C1913 0.951 . S
H1890 C1915 0.951 . S
H1891 C1917 0.950 . S
H1892 C1918 0.950 . S
H1893 C1920 0.950 . S
H1894 C1923 0.950 . S
H1895 C1924 0.950 . S
H1896 C1926 0.950 . S
H1897 C1927 0.950 . S
C1898 H1880 0.951 . S
C1898 C1899 1.366 . S
C1898 C1900 1.388 . S
C1899 C1898 1.366 . S
C1899 C1903 1.385 . S
C1900 H1881 0.951 . S
C1900 C1898 1.388 . S
C1900 C1901 1.366 . S
C1901 C1900 1.366 . S
C1901 C1902 1.414 . S
C1901 C1904 1.499 . S
C1902 H1882 0.950 . S
C1902 C1901 1.414 . S
C1902 C1903 1.374 . S
C1903 H1883 0.950 . S
C1903 C1899 1.385 . S
C1903 C1902 1.374 . S
C1904 C1901 1.499 . S
C1904 C1905 1.373 . S
C1904 C1906 1.389 . S
C1905 H1884 0.950 . S
C1905 C1904 1.373 . S
C1905 C1921 1.377 . S
C1906 C1904 1.389 . S
C1906 C1907 1.524 . S
C1906 C1920 1.377 . S
C1907 C1906 1.524 . S
C1907 C1908 1.397 . S
C1907 C1912 1.363 . S
C1908 H1885 0.950 . S
C1908 C1907 1.397 . S
C1908 C1909 1.334 . S
C1909 H1886 0.950 . S
C1909 C1908 1.334 . S
C1909 C1910 1.287 . S
C1910 C1909 1.287 . S
C1910 C1911 1.524 . S
C1910 H1929 0.913 . S
C1911 H1887 0.950 . S
C1911 C1910 1.524 . S
C1911 C1912 1.415 . S
C1912 H1888 0.950 . S
C1912 C1907 1.363 . S
C1912 C1911 1.415 . S
C1913 H1889 0.951 . S
C1913 C1914 1.366 . S
C1913 C1915 1.388 . S
C1914 C1913 1.366 . S
C1914 C1918 1.385 . S
C1915 H1890 0.951 . S
C1915 C1913 1.388 . S
C1915 C1916 1.366 . S
C1916 C1915 1.366 . S
C1916 C1917 1.414 . S
C1916 C1919 1.499 . S
C1917 H1891 0.950 . S
C1917 C1916 1.414 . S
C1917 C1918 1.374 . S
C1918 H1892 0.950 . S
C1918 C1914 1.385 . S
C1918 C1917 1.374 . S
C1919 C1916 1.499 . S
C1919 C1920 1.373 . S
C1919 C1921 1.389 . S
C1920 H1893 0.950 . S
C1920 C1906 1.377 . S
C1920 C1919 1.373 . S
C1921 C1905 1.377 . S
C1921 C1919 1.389 . S
C1921 C1922 1.524 . S
C1922 C1921 1.524 . S
C1922 C1923 1.397 . S
C1922 C1927 1.363 . S
C1923 H1894 0.950 . S
C1923 C1922 1.397 . S
C1923 C1924 1.334 . S
C1924 H1895 0.950 . S
C1924 C1923 1.334 . S
C1924 C1925 1.287 . S
C1925 C1924 1.287 . S
C1925 C1926 1.524 . S
C1925 H1928 0.999 . S
C1926 H1896 0.950 . S
C1926 C1925 1.524 . S
C1926 C1927 1.415 . S
C1927 H1897 0.950 . S
C1927 C1922 1.363 . S
C1927 C1926 1.415 . S
H1928 C1925 0.999 . S
H1929 C1910 0.913 . S
H1930 C1948 0.951 . S
H1931 C1950 0.951 . S
H1932 C1952 0.950 . S
H1933 C1953 0.950 . S
H1934 C1955 0.950 . S
H1935 C1958 0.950 . S
H1936 C1959 0.950 . S
H1937 C1961 0.950 . S
H1938 C1962 0.950 . S
H1939 C1963 0.951 . S
H1940 C1965 0.951 . S
H1941 C1967 0.950 . S
H1942 C1968 0.950 . S
H1943 C1970 0.950 . S
H1944 C1973 0.950 . S
H1945 C1974 0.950 . S
H1946 C1976 0.950 . S
H1947 C1977 0.950 . S
C1948 H1930 0.951 . S
C1948 C1949 1.366 . S
C1948 C1950 1.388 . S
C1949 C1948 1.366 . S
C1949 C1953 1.385 . S
C1950 H1931 0.951 . S
C1950 C1948 1.388 . S
C1950 C1951 1.366 . S
C1951 C1950 1.366 . S
C1951 C1952 1.414 . S
C1951 C1954 1.499 . S
C1952 H1932 0.950 . S
C1952 C1951 1.414 . S
C1952 C1953 1.374 . S
C1953 H1933 0.950 . S
C1953 C1949 1.385 . S
C1953 C1952 1.374 . S
C1954 C1951 1.499 . S
C1954 C1955 1.373 . S
C1954 C1956 1.389 . S
C1955 H1934 0.950 . S
C1955 C1954 1.373 . S
C1955 C1971 1.377 . S
C1956 C1954 1.389 . S
C1956 C1957 1.524 . S
C1956 C1970 1.377 . S
C1957 C1956 1.524 . S
C1957 C1958 1.397 . S
C1957 C1962 1.363 . S
C1958 H1935 0.950 . S
C1958 C1957 1.397 . S
C1958 C1959 1.334 . S
C1959 H1936 0.950 . S
C1959 C1958 1.334 . S
C1959 C1960 1.287 . S
C1960 C1959 1.287 . S
C1960 C1961 1.524 . S
C1960 H1979 0.913 . S
C1961 H1937 0.950 . S
C1961 C1960 1.524 . S
C1961 C1962 1.415 . S
C1962 H1938 0.950 . S
C1962 C1957 1.363 . S
C1962 C1961 1.415 . S
C1963 H1939 0.951 . S
C1963 C1964 1.366 . S
C1963 C1965 1.388 . S
C1964 C1963 1.366 . S
C1964 C1968 1.385 . S
C1965 H1940 0.951 . S
C1965 C1963 1.388 . S
C1965 C1966 1.366 . S
C1966 C1965 1.366 . S
C1966 C1967 1.414 . S
C1966 C1969 1.499 . S
C1967 H1941 0.950 . S
C1967 C1966 1.414 . S
C1967 C1968 1.374 . S
C1968 H1942 0.950 . S
C1968 C1964 1.385 . S
C1968 C1967 1.374 . S
C1969 C1966 1.499 . S
C1969 C1970 1.373 . S
C1969 C1971 1.389 . S
C1970 H1943 0.950 . S
C1970 C1956 1.377 . S
C1970 C1969 1.373 . S
C1971 C1955 1.377 . S
C1971 C1969 1.389 . S
C1971 C1972 1.524 . S
C1972 C1971 1.524 . S
C1972 C1973 1.397 . S
C1972 C1977 1.363 . S
C1973 H1944 0.950 . S
C1973 C1972 1.397 . S
C1973 C1974 1.334 . S
C1974 H1945 0.950 . S
C1974 C1973 1.334 . S
C1974 C1975 1.287 . S
C1975 C1974 1.287 . S
C1975 C1976 1.524 . S
C1975 H1978 0.999 . S
C1976 H1946 0.950 . S
C1976 C1975 1.524 . S
C1976 C1977 1.415 . S
C1977 H1947 0.950 . S
C1977 C1972 1.363 . S
C1977 C1976 1.415 . S
H1978 C1975 0.999 . S
H1979 C1960 0.913 . S
H1980 C1998 0.951 . S
H1981 C2000 0.951 . S
H1982 C2002 0.950 . S
H1983 C2003 0.950 . S
H1984 C2005 0.950 . S
H1985 C2008 0.950 . S
H1986 C2009 0.950 . S
H1987 C2011 0.950 . S
H1988 C2012 0.950 . S
H1989 C2013 0.951 . S
H1990 C2015 0.951 . S
H1991 C2017 0.950 . S
H1992 C2018 0.950 . S
H1993 C2020 0.950 . S
H1994 C2023 0.950 . S
H1995 C2024 0.950 . S
H1996 C2026 0.950 . S
H1997 C2027 0.950 . S
C1998 H1980 0.951 . S
C1998 C1999 1.366 . S
C1998 C2000 1.388 . S
C1999 C1998 1.366 . S
C1999 C2003 1.385 . S
C2000 H1981 0.951 . S
C2000 C1998 1.388 . S
C2000 C2001 1.366 . S
C2001 C2000 1.366 . S
C2001 C2002 1.414 . S
C2001 C2004 1.499 . S
C2002 H1982 0.950 . S
C2002 C2001 1.414 . S
C2002 C2003 1.374 . S
C2003 H1983 0.950 . S
C2003 C1999 1.385 . S
C2003 C2002 1.374 . S
C2004 C2001 1.499 . S
C2004 C2005 1.373 . S
C2004 C2006 1.389 . S
C2005 H1984 0.950 . S
C2005 C2004 1.373 . S
C2005 C2021 1.377 . S
C2006 C2004 1.389 . S
C2006 C2007 1.524 . S
C2006 C2020 1.377 . S
C2007 C2006 1.524 . S
C2007 C2008 1.397 . S
C2007 C2012 1.363 . S
C2008 H1985 0.950 . S
C2008 C2007 1.397 . S
C2008 C2009 1.334 . S
C2009 H1986 0.950 . S
C2009 C2008 1.334 . S
C2009 C2010 1.287 . S
C2010 C2009 1.287 . S
C2010 C2011 1.524 . S
C2010 H2029 0.913 . S
C2011 H1987 0.950 . S
C2011 C2010 1.524 . S
C2011 C2012 1.415 . S
C2012 H1988 0.950 . S
C2012 C2007 1.363 . S
C2012 C2011 1.415 . S
C2013 H1989 0.951 . S
C2013 C2014 1.366 . S
C2013 C2015 1.388 . S
C2014 C2013 1.366 . S
C2014 C2018 1.385 . S
C2015 H1990 0.951 . S
C2015 C2013 1.388 . S
C2015 C2016 1.366 . S
C2016 C2015 1.366 . S
C2016 C2017 1.414 . S
C2016 C2019 1.499 . S
C2017 H1991 0.950 . S
C2017 C2016 1.414 . S
C2017 C2018 1.374 . S
C2018 H1992 0.950 . S
C2018 C2014 1.385 . S
C2018 C2017 1.374 . S
C2019 C2016 1.499 . S
C2019 C2020 1.373 . S
C2019 C2021 1.389 . S
C2020 H1993 0.950 . S
C2020 C2006 1.377 . S
C2020 C2019 1.373 . S
C2021 C2005 1.377 . S
C2021 C2019 1.389 . S
C2021 C2022 1.524 . S
C2022 C2021 1.524 . S
C2022 C2023 1.397 . S
C2022 C2027 1.363 . S
C2023 H1994 0.950 . S
C2023 C2022 1.397 . S
C2023 C2024 1.334 . S
C2024 H1995 0.950 . S
C2024 C2023 1.334 . S
C2024 C2025 1.287 . S
C2025 C2024 1.287 . S
C2025 C2026 1.524 . S
C2025 H2028 0.999 . S
C2026 H1996 0.950 . S
C2026 C2025 1.524 . S
C2026 C2027 1.415 . S
C2027 H1997 0.950 . S
C2027 C2022 1.363 . S
C2027 C2026 1.415 . S
H2028 C2025 0.999 . S
H2029 C2010 0.913 . S
H2030 C2048 0.951 . S
H2031 C2050 0.951 . S
H2032 C2052 0.950 . S
H2033 C2053 0.950 . S
H2034 C2055 0.950 . S
H2035 C2058 0.950 . S
H2036 C2059 0.950 . S
H2037 C2061 0.950 . S
H2038 C2062 0.950 . S
H2039 C2063 0.951 . S
H2040 C2065 0.951 . S
H2041 C2067 0.950 . S
H2042 C2068 0.950 . S
H2043 C2070 0.950 . S
H2044 C2073 0.950 . S
H2045 C2074 0.950 . S
H2046 C2076 0.950 . S
H2047 C2077 0.950 . S
C2048 H2030 0.951 . S
C2048 C2049 1.366 . S
C2048 C2050 1.388 . S
C2049 C2048 1.366 . S
C2049 C2053 1.385 . S
C2050 H2031 0.951 . S
C2050 C2048 1.388 . S
C2050 C2051 1.366 . S
C2051 C2050 1.366 . S
C2051 C2052 1.414 . S
C2051 C2054 1.499 . S
C2052 H2032 0.950 . S
C2052 C2051 1.414 . S
C2052 C2053 1.374 . S
C2053 H2033 0.950 . S
C2053 C2049 1.385 . S
C2053 C2052 1.374 . S
C2054 C2051 1.499 . S
C2054 C2055 1.373 . S
C2054 C2056 1.389 . S
C2055 H2034 0.950 . S
C2055 C2054 1.373 . S
C2055 C2071 1.377 . S
C2056 C2054 1.389 . S
C2056 C2057 1.524 . S
C2056 C2070 1.377 . S
C2057 C2056 1.524 . S
C2057 C2058 1.397 . S
C2057 C2062 1.363 . S
C2058 H2035 0.950 . S
C2058 C2057 1.397 . S
C2058 C2059 1.334 . S
C2059 H2036 0.950 . S
C2059 C2058 1.334 . S
C2059 C2060 1.287 . S
C2060 C2059 1.287 . S
C2060 C2061 1.524 . S
C2060 H2079 0.913 . S
C2061 H2037 0.950 . S
C2061 C2060 1.524 . S
C2061 C2062 1.415 . S
C2062 H2038 0.950 . S
C2062 C2057 1.363 . S
C2062 C2061 1.415 . S
C2063 H2039 0.951 . S
C2063 C2064 1.366 . S
C2063 C2065 1.388 . S
C2064 C2063 1.366 . S
C2064 C2068 1.385 . S
C2065 H2040 0.951 . S
C2065 C2063 1.388 . S
C2065 C2066 1.366 . S
C2066 C2065 1.366 . S
C2066 C2067 1.414 . S
C2066 C2069 1.499 . S
C2067 H2041 0.950 . S
C2067 C2066 1.414 . S
C2067 C2068 1.374 . S
C2068 H2042 0.950 . S
C2068 C2064 1.385 . S
C2068 C2067 1.374 . S
C2069 C2066 1.499 . S
C2069 C2070 1.373 . S
C2069 C2071 1.389 . S
C2070 H2043 0.950 . S
C2070 C2056 1.377 . S
C2070 C2069 1.373 . S
C2071 C2055 1.377 . S
C2071 C2069 1.389 . S
C2071 C2072 1.524 . S
C2072 C2071 1.524 . S
C2072 C2073 1.397 . S
C2072 C2077 1.363 . S
C2073 H2044 0.950 . S
C2073 C2072 1.397 . S
C2073 C2074 1.334 . S
C2074 H2045 0.950 . S
C2074 C2073 1.334 . S
C2074 C2075 1.287 . S
C2075 C2074 1.287 . S
C2075 C2076 1.524 . S
C2075 H2078 0.999 . S
C2076 H2046 0.950 . S
C2076 C2075 1.524 . S
C2076 C2077 1.415 . S
C2077 H2047 0.950 . S
C2077 C2072 1.363 . S
C2077 C2076 1.415 . S
H2078 C2075 0.999 . S
H2079 C2060 0.913 . S
H2080 C2098 0.951 . S
H2081 C2100 0.951 . S
H2082 C2102 0.950 . S
H2083 C2103 0.950 . S
H2084 C2105 0.950 . S
H2085 C2108 0.950 . S
H2086 C2109 0.950 . S
H2087 C2111 0.950 . S
H2088 C2112 0.950 . S
H2089 C2113 0.951 . S
H2090 C2115 0.951 . S
H2091 C2117 0.950 . S
H2092 C2118 0.950 . S
H2093 C2120 0.950 . S
H2094 C2123 0.950 . S
H2095 C2124 0.950 . S
H2096 C2126 0.950 . S
H2097 C2127 0.950 . S
C2098 H2080 0.951 . S
C2098 C2099 1.366 . S
C2098 C2100 1.388 . S
C2099 C2098 1.366 . S
C2099 C2103 1.385 . S
C2100 H2081 0.951 . S
C2100 C2098 1.388 . S
C2100 C2101 1.366 . S
C2101 C2100 1.366 . S
C2101 C2102 1.414 . S
C2101 C2104 1.499 . S
C2102 H2082 0.950 . S
C2102 C2101 1.414 . S
C2102 C2103 1.374 . S
C2103 H2083 0.950 . S
C2103 C2099 1.385 . S
C2103 C2102 1.374 . S
C2104 C2101 1.499 . S
C2104 C2105 1.373 . S
C2104 C2106 1.389 . S
C2105 H2084 0.950 . S
C2105 C2104 1.373 . S
C2105 C2121 1.377 . S
C2106 C2104 1.389 . S
C2106 C2107 1.524 . S
C2106 C2120 1.377 . S
C2107 C2106 1.524 . S
C2107 C2108 1.397 . S
C2107 C2112 1.363 . S
C2108 H2085 0.950 . S
C2108 C2107 1.397 . S
C2108 C2109 1.334 . S
C2109 H2086 0.950 . S
C2109 C2108 1.334 . S
C2109 C2110 1.287 . S
C2110 C2109 1.287 . S
C2110 C2111 1.524 . S
C2110 H2129 0.913 . S
C2111 H2087 0.950 . S
C2111 C2110 1.524 . S
C2111 C2112 1.415 . S
C2112 H2088 0.950 . S
C2112 C2107 1.363 . S
C2112 C2111 1.415 . S
C2113 H2089 0.951 . S
C2113 C2114 1.366 . S
C2113 C2115 1.388 . S
C2114 C2113 1.366 . S
C2114 C2118 1.385 . S
C2115 H2090 0.951 . S
C2115 C2113 1.388 . S
C2115 C2116 1.366 . S
C2116 C2115 1.366 . S
C2116 C2117 1.414 . S
C2116 C2119 1.499 . S
C2117 H2091 0.950 . S
C2117 C2116 1.414 . S
C2117 C2118 1.374 . S
C2118 H2092 0.950 . S
C2118 C2114 1.385 . S
C2118 C2117 1.374 . S
C2119 C2116 1.499 . S
C2119 C2120 1.373 . S
C2119 C2121 1.389 . S
C2120 H2093 0.950 . S
C2120 C2106 1.377 . S
C2120 C2119 1.373 . S
C2121 C2105 1.377 . S
C2121 C2119 1.389 . S
C2121 C2122 1.524 . S
C2122 C2121 1.524 . S
C2122 C2123 1.397 . S
C2122 C2127 1.363 . S
C2123 H2094 0.950 . S
C2123 C2122 1.397 . S
C2123 C2124 1.334 . S
C2124 H2095 0.950 . S
C2124 C2123 1.334 . S
C2124 C2125 1.287 . S
C2125 C2124 1.287 . S
C2125 C2126 1.524 . S
C2125 H2128 0.999 . S
C2126 H2096 0.950 . S
C2126 C2125 1.524 . S
C2126 C2127 1.415 . S
C2127 H2097 0.950 . S
C2127 C2122 1.363 . S
C2127 C2126 1.415 . S
H2128 C2125 0.999 . S
H2129 C2110 0.913 . S
H2130 C2148 0.951 . S
H2131 C2150 0.951 . S
H2132 C2152 0.950 . S
H2133 C2153 0.950 . S
H2134 C2155 0.950 . S
H2135 C2158 0.950 . S
H2136 C2159 0.950 . S
H2137 C2161 0.950 . S
H2138 C2162 0.950 . S
H2139 C2163 0.951 . S
H2140 C2165 0.951 . S
H2141 C2167 0.950 . S
H2142 C2168 0.950 . S
H2143 C2170 0.950 . S
H2144 C2173 0.950 . S
H2145 C2174 0.950 . S
H2146 C2176 0.950 . S
H2147 C2177 0.950 . S
C2148 H2130 0.951 . S
C2148 C2149 1.366 . S
C2148 C2150 1.388 . S
C2149 C2148 1.366 . S
C2149 C2153 1.385 . S
C2150 H2131 0.951 . S
C2150 C2148 1.388 . S
C2150 C2151 1.366 . S
C2151 C2150 1.366 . S
C2151 C2152 1.414 . S
C2151 C2154 1.499 . S
C2152 H2132 0.950 . S
C2152 C2151 1.414 . S
C2152 C2153 1.374 . S
C2153 H2133 0.950 . S
C2153 C2149 1.385 . S
C2153 C2152 1.374 . S
C2154 C2151 1.499 . S
C2154 C2155 1.373 . S
C2154 C2156 1.389 . S
C2155 H2134 0.950 . S
C2155 C2154 1.373 . S
C2155 C2171 1.377 . S
C2156 C2154 1.389 . S
C2156 C2157 1.524 . S
C2156 C2170 1.377 . S
C2157 C2156 1.524 . S
C2157 C2158 1.397 . S
C2157 C2162 1.363 . S
C2158 H2135 0.950 . S
C2158 C2157 1.397 . S
C2158 C2159 1.334 . S
C2159 H2136 0.950 . S
C2159 C2158 1.334 . S
C2159 C2160 1.287 . S
C2160 C2159 1.287 . S
C2160 C2161 1.524 . S
C2160 H2179 0.913 . S
C2161 H2137 0.950 . S
C2161 C2160 1.524 . S
C2161 C2162 1.415 . S
C2162 H2138 0.950 . S
C2162 C2157 1.363 . S
C2162 C2161 1.415 . S
C2163 H2139 0.951 . S
C2163 C2164 1.366 . S
C2163 C2165 1.388 . S
C2164 C2163 1.366 . S
C2164 C2168 1.385 . S
C2165 H2140 0.951 . S
C2165 C2163 1.388 . S
C2165 C2166 1.366 . S
C2166 C2165 1.366 . S
C2166 C2167 1.414 . S
C2166 C2169 1.499 . S
C2167 H2141 0.950 . S
C2167 C2166 1.414 . S
C2167 C2168 1.374 . S
C2168 H2142 0.950 . S
C2168 C2164 1.385 . S
C2168 C2167 1.374 . S
C2169 C2166 1.499 . S
C2169 C2170 1.373 . S
C2169 C2171 1.389 . S
C2170 H2143 0.950 . S
C2170 C2156 1.377 . S
C2170 C2169 1.373 . S
C2171 C2155 1.377 . S
C2171 C2169 1.389 . S
C2171 C2172 1.524 . S
C2172 C2171 1.524 . S
C2172 C2173 1.397 . S
C2172 C2177 1.363 . S
C2173 H2144 0.950 . S
C2173 C2172 1.397 . S
C2173 C2174 1.334 . S
C2174 H2145 0.950 . S
C2174 C2173 1.334 . S
C2174 C2175 1.287 . S
C2175 C2174 1.287 . S
C2175 C2176 1.524 . S
C2175 H2178 0.999 . S
C2176 H2146 0.950 . S
C2176 C2175 1.524 . S
C2176 C2177 1.415 . S
C2177 H2147 0.950 . S
C2177 C2172 1.363 . S
C2177 C2176 1.415 . S
H2178 C2175 0.999 . S
H2179 C2160 0.913 . S
H2180 C2198 0.951 . S
H2181 C2200 0.951 . S
H2182 C2202 0.950 . S
H2183 C2203 0.950 . S
H2184 C2205 0.950 . S
H2185 C2208 0.950 . S
H2186 C2209 0.950 . S
H2187 C2211 0.950 . S
H2188 C2212 0.950 . S
H2189 C2213 0.951 . S
H2190 C2215 0.951 . S
H2191 C2217 0.950 . S
H2192 C2218 0.950 . S
H2193 C2220 0.950 . S
H2194 C2223 0.950 . S
H2195 C2224 0.950 . S
H2196 C2226 0.950 . S
H2197 C2227 0.950 . S
C2198 H2180 0.951 . S
C2198 C2199 1.366 . S
C2198 C2200 1.388 . S
C2199 C2198 1.366 . S
C2199 C2203 1.385 . S
C2200 H2181 0.951 . S
C2200 C2198 1.388 . S
C2200 C2201 1.366 . S
C2201 C2200 1.366 . S
C2201 C2202 1.414 . S
C2201 C2204 1.499 . S
C2202 H2182 0.950 . S
C2202 C2201 1.414 . S
C2202 C2203 1.374 . S
C2203 H2183 0.950 . S
C2203 C2199 1.385 . S
C2203 C2202 1.374 . S
C2204 C2201 1.499 . S
C2204 C2205 1.373 . S
C2204 C2206 1.389 . S
C2205 H2184 0.950 . S
C2205 C2204 1.373 . S
C2205 C2221 1.377 . S
C2206 C2204 1.389 . S
C2206 C2207 1.524 . S
C2206 C2220 1.377 . S
C2207 C2206 1.524 . S
C2207 C2208 1.397 . S
C2207 C2212 1.363 . S
C2208 H2185 0.950 . S
C2208 C2207 1.397 . S
C2208 C2209 1.334 . S
C2209 H2186 0.950 . S
C2209 C2208 1.334 . S
C2209 C2210 1.287 . S
C2210 C2209 1.287 . S
C2210 C2211 1.524 . S
C2210 H2229 0.913 . S
C2211 H2187 0.950 . S
C2211 C2210 1.524 . S
C2211 C2212 1.415 . S
C2212 H2188 0.950 . S
C2212 C2207 1.363 . S
C2212 C2211 1.415 . S
C2213 H2189 0.951 . S
C2213 C2214 1.366 . S
C2213 C2215 1.388 . S
C2214 C2213 1.366 . S
C2214 C2218 1.385 . S
C2215 H2190 0.951 . S
C2215 C2213 1.388 . S
C2215 C2216 1.366 . S
C2216 C2215 1.366 . S
C2216 C2217 1.414 . S
C2216 C2219 1.499 . S
C2217 H2191 0.950 . S
C2217 C2216 1.414 . S
C2217 C2218 1.374 . S
C2218 H2192 0.950 . S
C2218 C2214 1.385 . S
C2218 C2217 1.374 . S
C2219 C2216 1.499 . S
C2219 C2220 1.373 . S
C2219 C2221 1.389 . S
C2220 H2193 0.950 . S
C2220 C2206 1.377 . S
C2220 C2219 1.373 . S
C2221 C2205 1.377 . S
C2221 C2219 1.389 . S
C2221 C2222 1.524 . S
C2222 C2221 1.524 . S
C2222 C2223 1.397 . S
C2222 C2227 1.363 . S
C2223 H2194 0.950 . S
C2223 C2222 1.397 . S
C2223 C2224 1.334 . S
C2224 H2195 0.950 . S
C2224 C2223 1.334 . S
C2224 C2225 1.287 . S
C2225 C2224 1.287 . S
C2225 C2226 1.524 . S
C2225 H2228 0.999 . S
C2226 H2196 0.950 . S
C2226 C2225 1.524 . S
C2226 C2227 1.415 . S
C2227 H2197 0.950 . S
C2227 C2222 1.363 . S
C2227 C2226 1.415 . S
H2228 C2225 0.999 . S
H2229 C2210 0.913 . S
H2230 C2248 0.951 . S
H2231 C2250 0.951 . S
H2232 C2252 0.950 . S
H2233 C2253 0.950 . S
H2234 C2255 0.950 . S
H2235 C2258 0.950 . S
H2236 C2259 0.950 . S
H2237 C2261 0.950 . S
H2238 C2262 0.950 . S
H2239 C2263 0.951 . S
H2240 C2265 0.951 . S
H2241 C2267 0.950 . S
H2242 C2268 0.950 . S
H2243 C2270 0.950 . S
H2244 C2273 0.950 . S
H2245 C2274 0.950 . S
H2246 C2276 0.950 . S
H2247 C2277 0.950 . S
C2248 H2230 0.951 . S
C2248 C2249 1.366 . S
C2248 C2250 1.388 . S
C2249 C2248 1.366 . S
C2249 C2253 1.385 . S
C2250 H2231 0.951 . S
C2250 C2248 1.388 . S
C2250 C2251 1.366 . S
C2251 C2250 1.366 . S
C2251 C2252 1.414 . S
C2251 C2254 1.499 . S
C2252 H2232 0.950 . S
C2252 C2251 1.414 . S
C2252 C2253 1.374 . S
C2253 H2233 0.950 . S
C2253 C2249 1.385 . S
C2253 C2252 1.374 . S
C2254 C2251 1.499 . S
C2254 C2255 1.373 . S
C2254 C2256 1.389 . S
C2255 H2234 0.950 . S
C2255 C2254 1.373 . S
C2255 C2271 1.377 . S
C2256 C2254 1.389 . S
C2256 C2257 1.524 . S
C2256 C2270 1.377 . S
C2257 C2256 1.524 . S
C2257 C2258 1.397 . S
C2257 C2262 1.363 . S
C2258 H2235 0.950 . S
C2258 C2257 1.397 . S
C2258 C2259 1.334 . S
C2259 H2236 0.950 . S
C2259 C2258 1.334 . S
C2259 C2260 1.287 . S
C2260 C2259 1.287 . S
C2260 C2261 1.524 . S
C2260 H2279 0.913 . S
C2261 H2237 0.950 . S
C2261 C2260 1.524 . S
C2261 C2262 1.415 . S
C2262 H2238 0.950 . S
C2262 C2257 1.363 . S
C2262 C2261 1.415 . S
C2263 H2239 0.951 . S
C2263 C2264 1.366 . S
C2263 C2265 1.388 . S
C2264 C2263 1.366 . S
C2264 C2268 1.385 . S
C2265 H2240 0.951 . S
C2265 C2263 1.388 . S
C2265 C2266 1.366 . S
C2266 C2265 1.366 . S
C2266 C2267 1.414 . S
C2266 C2269 1.499 . S
C2267 H2241 0.950 . S
C2267 C2266 1.414 . S
C2267 C2268 1.374 . S
C2268 H2242 0.950 . S
C2268 C2264 1.385 . S
C2268 C2267 1.374 . S
C2269 C2266 1.499 . S
C2269 C2270 1.373 . S
C2269 C2271 1.389 . S
C2270 H2243 0.950 . S
C2270 C2256 1.377 . S
C2270 C2269 1.373 . S
C2271 C2255 1.377 . S
C2271 C2269 1.389 . S
C2271 C2272 1.524 . S
C2272 C2271 1.524 . S
C2272 C2273 1.397 . S
C2272 C2277 1.363 . S
C2273 H2244 0.950 . S
C2273 C2272 1.397 . S
C2273 C2274 1.334 . S
C2274 H2245 0.950 . S
C2274 C2273 1.334 . S
C2274 C2275 1.287 . S
C2275 C2274 1.287 . S
C2275 C2276 1.524 . S
C2275 H2278 0.999 . S
C2276 H2246 0.950 . S
C2276 C2275 1.524 . S
C2276 C2277 1.415 . S
C2277 H2247 0.950 . S
C2277 C2272 1.363 . S
C2277 C2276 1.415 . S
H2278 C2275 0.999 . S
H2279 C2260 0.913 . S
C499 C99 1.322 . S
C514 C15 1.296 . S
C549 C130 1.322 . S
C564 C46 1.313 . S
C599 C95 1.331 . S
C614 C179 1.322 . S
C649 C126 1.295 . S
C664 C210 1.322 . S
C699 C19 1.322 . S
C714 C175 1.313 . S
C749 C50 1.322 . S
C764 C206 1.331 . S
C799 C410 1.322 . S
C814 C246 1.296 . S
C849 C295 1.331 . S
C864 C459 1.322 . S
C899 C326 1.314 . S
C914 C250 1.322 . S
C949 C375 1.295 . S
C964 C299 1.322 . S
C999 C406 1.331 . S
C1014 C330 1.322 . S
C1049 C379 1.322 . S
C1064 C455 1.314 . S
C1099 C129 1.817 . S
C1114 C18 1.817 . S
C1149 C49 1.817 . S
C1164 C178 1.818 . S
C1199 C98 1.817 . S
C1214 C209 1.817 . S
C1249 C249 1.817 . S
C1264 C378 1.817 . S
C1299 C298 1.818 . S
C1314 C409 1.817 . S
C1349 C329 1.818 . S
C1364 C458 1.817 . S
C1399 C289 2.082 . S
C1414 C9 2.082 . S
C1449 C58 2.082 . S
C1464 C338 2.081 . S
C1499 C369 2.082 . S
C1514 C89 2.083 . S
C1549 C138 2.082 . S
C1564 C418 2.083 . S
C1599 C169 2.082 . S
C1614 C449 2.082 . S
C1649 C258 2.082 . S
C1664 C218 2.083 . S
C1699 C90 1.692 . S
C1714 C6 1.706 . S
C1749 C55 1.706 . S
C1764 C139 1.693 . S
C1799 C86 1.707 . S
C1814 C170 1.693 . S
C1849 C135 1.706 . S
C1864 C219 1.693 . S
C1899 C10 1.693 . S
C1914 C166 1.707 . S
C1949 C59 1.693 . S
C1964 C215 1.707 . S
C1999 C419 1.692 . S
C2014 C255 1.706 . S
C2049 C286 1.707 . S
C2064 C450 1.693 . S
C2099 C335 1.707 . S
C2114 C259 1.693 . S
C2149 C290 1.693 . S
C2164 C366 1.707 . S
C2199 C415 1.707 . S
C2214 C339 1.693 . S
C2249 C446 1.706 . S
C2264 C370 1.693 . S
