# Generated by pormake.
# Topology und, (4)-cn, num edge types: 1
# Building blocks:
#     Node 0, Type 0, BuildingBlock: QUQFOY_clean_sbu_3, # of connection points: 4
#     Node 1, Type 0, BuildingBlock: QUQFOY_clean_sbu_3, # of connection points: 4
#     Node 2, Type 0, BuildingBlock: QUQFOY_clean_sbu_3, # of connection points: 4
#     Node 3, Type 0, BuildingBlock: QUQFOY_clean_sbu_3, # of connection points: 4
#     Node 4, Type 0, BuildingBlock: QUQFOY_clean_sbu_3, # of connection points: 4
#     Node 5, Type 0, BuildingBlock: QUQFOY_clean_sbu_3, # of connection points: 4
#     Node 6, Type 0, BuildingBlock: QUQFOY_clean_sbu_3, # of connection points: 4
#     Node 7, Type 0, BuildingBlock: QUQFOY_clean_sbu_3, # of connection points: 4
#     Node 8, Type 0, BuildingBlock: QUQFOY_clean_sbu_3, # of connection points: 4
#     Node 9, Type 0, BuildingBlock: QUQFOY_clean_sbu_3, # of connection points: 4
#     Node 10, Type 0, BuildingBlock: QUQFOY_clean_sbu_3, # of connection points: 4
#     Node 11, Type 0, BuildingBlock: QUQFOY_clean_sbu_3, # of connection points: 4
#     Node 12, Type 0, BuildingBlock: QUQFOY_clean_sbu_3, # of connection points: 4
#     Node 13, Type 0, BuildingBlock: QUQFOY_clean_sbu_3, # of connection points: 4
#     Node 14, Type 0, BuildingBlock: QUQFOY_clean_sbu_3, # of connection points: 4
#     Node 15, Type 0, BuildingBlock: QUQFOY_clean_sbu_3, # of connection points: 4
#     Edge 16, Type (0, 0), BuildingBlock: KIFKEQ_clean_linker_1, # of connection points: 2
#     Edge 17, Type (0, 0), BuildingBlock: KIFKEQ_clean_linker_1, # of connection points: 2
#     Edge 18, Type (0, 0), BuildingBlock: KIFKEQ_clean_linker_1, # of connection points: 2
#     Edge 19, Type (0, 0), BuildingBlock: KIFKEQ_clean_linker_1, # of connection points: 2
#     Edge 20, Type (0, 0), BuildingBlock: KIFKEQ_clean_linker_1, # of connection points: 2
#     Edge 21, Type (0, 0), BuildingBlock: KIFKEQ_clean_linker_1, # of connection points: 2
#     Edge 22, Type (0, 0), BuildingBlock: KIFKEQ_clean_linker_1, # of connection points: 2
#     Edge 23, Type (0, 0), BuildingBlock: KIFKEQ_clean_linker_1, # of connection points: 2
#     Edge 24, Type (0, 0), BuildingBlock: KIFKEQ_clean_linker_1, # of connection points: 2
#     Edge 25, Type (0, 0), BuildingBlock: KIFKEQ_clean_linker_1, # of connection points: 2
#     Edge 26, Type (0, 0), BuildingBlock: KIFKEQ_clean_linker_1, # of connection points: 2
#     Edge 27, Type (0, 0), BuildingBlock: KIFKEQ_clean_linker_1, # of connection points: 2
#     Edge 28, Type (0, 0), BuildingBlock: KIFKEQ_clean_linker_1, # of connection points: 2
#     Edge 29, Type (0, 0), BuildingBlock: KIFKEQ_clean_linker_1, # of connection points: 2
#     Edge 30, Type (0, 0), BuildingBlock: KIFKEQ_clean_linker_1, # of connection points: 2
#     Edge 31, Type (0, 0), BuildingBlock: KIFKEQ_clean_linker_1, # of connection points: 2
#     Edge 32, Type (0, 0), BuildingBlock: KIFKEQ_clean_linker_1, # of connection points: 2
#     Edge 33, Type (0, 0), BuildingBlock: KIFKEQ_clean_linker_1, # of connection points: 2
#     Edge 34, Type (0, 0), BuildingBlock: KIFKEQ_clean_linker_1, # of connection points: 2
#     Edge 35, Type (0, 0), BuildingBlock: KIFKEQ_clean_linker_1, # of connection points: 2
#     Edge 36, Type (0, 0), BuildingBlock: KIFKEQ_clean_linker_1, # of connection points: 2
#     Edge 37, Type (0, 0), BuildingBlock: KIFKEQ_clean_linker_1, # of connection points: 2
#     Edge 38, Type (0, 0), BuildingBlock: KIFKEQ_clean_linker_1, # of connection points: 2
#     Edge 39, Type (0, 0), BuildingBlock: KIFKEQ_clean_linker_1, # of connection points: 2
#     Edge 40, Type (0, 0), BuildingBlock: KIFKEQ_clean_linker_1, # of connection points: 2
#     Edge 41, Type (0, 0), BuildingBlock: KIFKEQ_clean_linker_1, # of connection points: 2
#     Edge 42, Type (0, 0), BuildingBlock: KIFKEQ_clean_linker_1, # of connection points: 2
#     Edge 43, Type (0, 0), BuildingBlock: KIFKEQ_clean_linker_1, # of connection points: 2
#     Edge 44, Type (0, 0), BuildingBlock: KIFKEQ_clean_linker_1, # of connection points: 2
#     Edge 45, Type (0, 0), BuildingBlock: KIFKEQ_clean_linker_1, # of connection points: 2
#     Edge 46, Type (0, 0), BuildingBlock: KIFKEQ_clean_linker_1, # of connection points: 2
#     Edge 47, Type (0, 0), BuildingBlock: KIFKEQ_clean_linker_1, # of connection points: 2
# Relax obj value: 0.006
# Max RMSD: 0.046
# Mean RMSD: 0.046
data_MOF--net-und--node1-QUQFOY_clean_sbu_3--edge1-KIFKEQ_clean_linker_1
_symmetry_space_group_name_H-M    P1
_symmetry_Int_Tables_number       1
_symmetry_cell_setting            triclinic
loop_
_symmetry_equiv_pos_as_xyz
'x, y, z'
_cell_length_a     62.356732
_cell_length_b     62.369058
_cell_length_c     23.166284
_cell_angle_alpha  90.03869
_cell_angle_beta   89.96688
_cell_angle_gamma 95.273158
loop_
_atom_site_label
_atom_site_type_symbol
_atom_site_fract_x
_atom_site_fract_y
_atom_site_fract_z
_atom_type_partial_charge
C0 C 0.26329 0.31864 0.11512 0.0
O1 O 0.28185 0.32335 0.09343 0.0
Cd2 Cd 0.28688 0.34592 0.00859 0.0
O3 O 0.24679 0.3261 0.09352 0.0
Cd4 Cd 0.23413 0.34896 0.01828 0.0
C5 C 0.25226 0.31484 0.9195 0.0
O6 O 0.265 0.37514 0.01997 0.0
O7 O 0.24159 0.37959 0.95341 0.0
O8 O 0.21175 0.36032 0.09483 0.0
C9 C 0.25948 0.38581 0.97672 0.0
O10 O 0.2713 0.32252 0.9324 0.0
C11 C 0.1942 0.358 0.0668 0.0
O12 O 0.2359 0.32076 0.94613 0.0
O13 O 0.19512 0.35133 0.01501 0.0
C14 C 0.93816 0.99395 0.16218 0.0
O15 O 0.93122 0.97485 0.1758 0.0
Cd16 Cd 0.90731 0.96892 0.25782 0.0
O17 O 0.93079 0.0099 0.18694 0.0
Cd18 Cd 0.90452 0.02038 0.25645 0.0
C19 C 0.93704 0.00131 0.3555 0.0
O20 O 0.87728 0.99008 0.24846 0.0
O21 O 0.87529 0.01086 0.32279 0.0
O22 O 0.89337 0.04302 0.18053 0.0
C23 C 0.86744 0.99461 0.29433 0.0
O24 O 0.92962 0.98255 0.33919 0.0
C25 C 0.89487 0.06033 0.20969 0.0
O26 O 0.93148 0.01814 0.33059 0.0
O27 O 0.90096 0.05916 0.26193 0.0
C28 C 0.229 0.69821 0.61606 0.0
O29 O 0.21006 0.69252 0.59834 0.0
Cd30 Cd 0.20414 0.67076 0.51301 0.0
O31 O 0.24523 0.6914 0.59114 0.0
Cd32 Cd 0.25567 0.66786 0.51352 0.0
C33 C 0.23663 0.70298 0.42105 0.0
O34 O 0.22533 0.64059 0.51851 0.0
O35 O 0.24597 0.63967 0.44365 0.0
O36 O 0.279 0.65525 0.58583 0.0
C37 C 0.22979 0.63141 0.47161 0.0
O38 O 0.2179 0.69554 0.43745 0.0
C39 C 0.29605 0.65725 0.55566 0.0
O40 O 0.2535 0.69633 0.44319 0.0
O41 O 0.29445 0.66429 0.50446 0.0
C42 C 0.55146 0.02496 0.66129 0.0
O43 O 0.55701 0.04392 0.67905 0.0
Cd44 Cd 0.57988 0.0499 0.7624 0.0
O45 O 0.55899 0.00886 0.68483 0.0
Cd46 Cd 0.58385 -0.00138 0.7592 0.0
C47 C 0.54949 0.01636 0.856 0.0
O48 O 0.61056 0.0295 0.75389 0.0
O49 O 0.61243 0.00842 0.82751 0.0
O50 O 0.5966 0.97635 0.68438 0.0
C51 C 0.6202 0.0249 0.79994 0.0
O52 O 0.55638 0.03525 0.83962 0.0
C53 C 0.59513 0.95902 0.71333 0.0
O54 O 0.55615 -0.00027 0.83248 0.0
O55 O 0.58829 0.95997 0.76494 0.0
C56 C 0.72861 0.70113 0.91089 0.0
O57 O 0.70948 0.69435 0.92476 0.0
Cd58 Cd 0.70327 0.67082 0.00732 0.0
O59 O 0.74452 0.69383 0.93595 0.0
Cd60 Cd 0.75446 0.66778 0.00689 0.0
C61 C 0.73537 0.70072 0.10502 0.0
O62 O 0.72411 0.6405 -0.00133 0.0
O63 O 0.74449 0.63889 0.07383 0.0
O64 O 0.77774 0.65613 0.93281 0.0
C65 C 0.72848 0.63081 0.04486 0.0
O66 O 0.71662 0.69329 0.08872 0.0
C67 C 0.79474 0.65751 0.96324 0.0
O68 O 0.75221 0.69504 0.0803 0.0
O69 O 0.7931 0.66386 0.01514 0.0
C70 C 0.05378 0.02453 0.86194 0.0
O71 O 0.05891 0.04343 0.84304 0.0
Cd72 Cd 0.08107 0.04986 0.75831 0.0
O73 O 0.06113 0.00832 0.8383 0.0
Cd74 Cd 0.08476 -0.00303 0.7623 0.0
C75 C 0.05003 0.01578 0.66682 0.0
O76 O 0.11052 0.02815 0.76653 0.0
O77 O 0.11537 0.00556 0.69809 0.0
O78 O 0.09636 0.97416 0.83732 0.0
C79 C 0.12128 0.02329 0.72271 0.0
O80 O 0.05693 0.03466 0.68333 0.0
C81 C 0.09456 0.95689 0.808 0.0
O82 O 0.05696 -0.0009 0.68936 0.0
O83 O 0.08803 0.95815 0.75619 0.0
C84 C 0.76134 0.31811 0.4102 0.0
O85 O 0.77992 0.32378 0.43043 0.0
Cd86 Cd 0.78435 0.3475 0.51299 0.0
O87 O 0.74474 0.32542 0.43171 0.0
Cd88 Cd 0.73268 0.34947 0.5053 0.0
C89 C 0.75104 0.31678 0.60578 0.0
O90 O 0.76274 0.37705 0.50065 0.0
O91 O 0.74094 0.37881 0.57276 0.0
O92 O 0.71001 0.36079 0.42946 0.0
C93 C 0.75748 0.38684 0.54587 0.0
O94 O 0.76989 0.3249 0.59232 0.0
C95 C 0.69259 0.35866 0.45808 0.0
O96 O 0.73451 0.32181 0.57844 0.0
O97 O 0.6937 0.35212 0.50991 0.0
C98 C 0.43536 0.99405 0.36237 0.0
O99 O 0.42867 0.9749 0.3484 0.0
Cd100 Cd 0.40593 0.96888 0.26412 0.0
O101 O 0.42831 0.00991 0.33653 0.0
Cd102 Cd 0.40299 0.02011 0.26412 0.0
C103 C 0.43689 0.00107 0.16865 0.0
O104 O 0.3756 0.98984 0.27006 0.0
O105 O 0.37478 0.01036 0.1949 0.0
O106 O 0.39086 0.04285 0.33854 0.0
C107 C 0.36643 0.99427 0.22311 0.0
O108 O 0.42926 0.98232 0.18448 0.0
C109 C 0.39266 0.06012 0.30927 0.0
O110 O 0.431 0.01791 0.19284 0.0
O111 O 0.39933 0.05888 0.25754 0.0
C112 C 0.75903 0.81718 0.61184 0.0
O113 O 0.77797 0.82267 0.59383 0.0
Cd114 Cd 0.78381 0.84476 0.50908 0.0
O115 O 0.74287 0.82441 0.58776 0.0
Cd116 Cd 0.7325 0.84863 0.51189 0.0
C117 C 0.75025 0.81346 0.41737 0.0
O118 O 0.76332 0.87541 0.51602 0.0
O119 O 0.7423 0.87672 0.44209 0.0
O120 O 0.71022 0.86171 0.58617 0.0
C121 C 0.75874 0.88472 0.46945 0.0
O122 O 0.76913 0.82053 0.43341 0.0
C123 C 0.6929 0.86021 0.55715 0.0
O124 O 0.7336 0.82031 0.44032 0.0
O125 O 0.69385 0.85318 0.50573 0.0
C126 C 0.43898 0.49285 0.66942 0.0
O127 O 0.43224 0.47382 0.68446 0.0
Cd128 Cd 0.40657 0.46756 0.76253 0.0
O129 O 0.43086 0.50899 0.69105 0.0
Cd130 Cd 0.40332 0.52009 0.75617 0.0
C131 C 0.43323 0.50133 0.8631 0.0
O132 O 0.37756 0.48907 0.74486 0.0
O133 O 0.37072 0.51128 0.81256 0.0
O134 O 0.39421 0.54301 0.67813 0.0
C135 C 0.36538 0.49383 0.78592 0.0
O136 O 0.42663 0.48239 0.84628 0.0
C137 C 0.39497 0.56019 0.70778 0.0
O138 O 0.42801 0.51794 0.83642 0.0
O139 O 0.39992 0.55882 0.76084 0.0
C140 C 0.73281 0.20172 0.11116 0.0
O141 O 0.71358 0.1948 0.09865 0.0
Cd142 Cd 0.70662 0.17257 0.01428 0.0
O143 O 0.74852 0.19498 0.08377 0.0
Cd144 Cd 0.75805 0.1695 0.01016 0.0
C145 C 0.73818 0.20354 0.91664 0.0
O146 O 0.7277 0.14235 0.01869 0.0
O147 O 0.74769 0.14083 0.94267 0.0
O148 O 0.78118 0.15767 0.08385 0.0
C149 C 0.73167 0.13288 0.9718 0.0
O150 O 0.71967 0.19657 0.93578 0.0
C151 C 0.79824 0.15901 0.05367 0.0
O152 O 0.7553 0.19693 0.93743 0.0
O153 O 0.79674 0.16535 0.00173 0.0
C154 C 0.05145 0.51936 0.16408 0.0
O155 O 0.05846 0.53856 0.17652 0.0
Cd156 Cd 0.08114 0.54555 0.26001 0.0
O157 O 0.05828 0.50362 0.19107 0.0
Cd158 Cd 0.08412 0.49422 0.2639 0.0
C159 C 0.05064 0.51423 0.35893 0.0
O160 O 0.11138 0.5245 0.25427 0.0
O161 O 0.11313 0.50457 0.33024 0.0
O162 O 0.09562 0.47069 0.19046 0.0
C163 C 0.12107 0.5205 0.30076 0.0
O164 O 0.05754 0.53273 0.3396 0.0
C165 C 0.09446 0.45382 0.22131 0.0
O166 O 0.0571 0.4971 0.33775 0.0
O167 O 0.08831 0.4556 0.27334 0.0
C168 C 0.23129 0.20352 0.41514 0.0
O169 O 0.21193 0.19717 0.42797 0.0
Cd170 Cd 0.20405 0.1731 0.5085 0.0
O171 O 0.24683 0.19563 0.44047 0.0
Cd172 Cd 0.25623 0.16886 0.51028 0.0
C173 C 0.23633 0.20095 0.61041 0.0
O174 O 0.22509 0.14317 0.49771 0.0
O175 O 0.24636 0.13706 0.56833 0.0
O176 O 0.27959 0.15886 0.43448 0.0
C177 C 0.22926 0.1315 0.54041 0.0
O178 O 0.21773 0.19494 0.59021 0.0
C179 C 0.29653 0.15947 0.46499 0.0
O180 O 0.25329 0.19436 0.58849 0.0
O181 O 0.29485 0.16467 0.51783 0.0
C182 C 0.55375 0.52251 0.36701 0.0
O183 O 0.55924 0.54146 0.34907 0.0
Cd184 Cd 0.5801 0.54725 0.26216 0.0
O185 O 0.56025 0.5063 0.34135 0.0
Cd186 Cd 0.58285 0.49556 0.26209 0.0
C187 C 0.54679 0.51478 0.17252 0.0
O188 O 0.61013 0.52584 0.26606 0.0
O189 O 0.61076 0.50515 0.19122 0.0
O190 O 0.5955 0.47241 0.33466 0.0
C191 C 0.61911 0.52138 0.21887 0.0
O192 O 0.55444 0.53348 0.1886 0.0
C193 C 0.59354 0.45529 0.30479 0.0
O194 O 0.55367 0.49787 0.19382 0.0
O195 O 0.5865 0.45676 0.25353 0.0
C196 C 0.25793 0.81419 0.91622 0.0
O197 O 0.27696 0.8213 0.93015 0.0
Cd198 Cd 0.28265 0.84535 0.01189 0.0
O199 O 0.24183 0.82149 0.94045 0.0
Cd200 Cd 0.23133 0.84805 0.00944 0.0
C201 C 0.25004 0.81591 0.10968 0.0
O202 O 0.26162 0.8754 0.00174 0.0
O203 O 0.24083 0.87719 0.07608 0.0
O204 O 0.20862 0.85929 0.93363 0.0
C205 C 0.25701 0.88518 0.04763 0.0
O206 O 0.26883 0.82333 0.09356 0.0
C207 C 0.1914 0.85804 0.96314 0.0
O208 O 0.23325 0.82128 0.08418 0.0
O209 O 0.19263 0.85194 0.01534 0.0
C210 C 0.93493 0.49105 0.86542 0.0
O211 O 0.92937 0.47246 0.84504 0.0
Cd212 Cd 0.90611 0.46791 0.7617 0.0
O213 O 0.9277 0.50763 0.84365 0.0
Cd214 Cd 0.90387 0.51926 0.76889 0.0
C215 C 0.93723 0.50112 0.66976 0.0
O216 O 0.87621 0.48917 0.77268 0.0
O217 O 0.87518 0.51071 0.69983 0.0
O218 O 0.8918 0.54205 0.84359 0.0
C219 C 0.86678 0.49437 0.72686 0.0
O220 O 0.92906 0.48228 0.68294 0.0
C221 C 0.89378 0.55934 0.81447 0.0
O222 O 0.93202 0.51764 0.69692 0.0
O223 O 0.90069 0.55813 0.763 0.0
H224 H 0.29005 0.28884 0.15069 0.0
H225 H 0.22915 0.31375 0.18827 0.0
H226 H 0.28237 0.26084 0.22327 0.0
H227 H 0.22181 0.28637 0.26198 0.0
H228 H 0.20362 0.22022 0.33893 0.0
H229 H 0.21223 0.24854 0.26785 0.0
H230 H 0.27861 0.2542 0.32416 0.0
H231 H 0.2702 0.22547 0.39338 0.0
C232 C 0.27523 0.28857 0.17522 0.0
C233 C 0.26015 0.30337 0.16359 0.0
C234 C 0.27081 0.27256 0.21683 0.0
C235 C 0.25134 0.27121 0.24799 0.0
C236 C 0.2367 0.28659 0.23778 0.0
C237 C 0.241 0.30241 0.19588 0.0
C238 C 0.22004 0.22749 0.33594 0.0
C239 C 0.23621 0.22056 0.37165 0.0
C240 C 0.22497 0.24382 0.29552 0.0
C241 C 0.24612 0.2537 0.29044 0.0
C242 C 0.26224 0.24674 0.32626 0.0
C243 C 0.25737 0.23031 0.3662 0.0
H244 H 0.94584 0.97089 0.43456 0.0
H245 H 0.96426 0.03657 0.38266 0.0
H246 H 0.97269 0.97427 0.51112 0.0
H247 H 0.99168 0.03968 0.45747 0.0
H248 H 0.02398 0.04589 0.63156 0.0
H249 H -0.00402 0.04215 0.55857 0.0
H250 H 0.0106 0.97678 0.52588 0.0
H251 H 0.03809 0.98027 0.60095 0.0
C252 C 0.9557 0.98602 0.43936 0.0
C253 C 0.95292 0.00349 0.40273 0.0
C254 C 0.97119 0.98791 0.48296 0.0
C255 C 0.98439 0.00722 0.49039 0.0
C256 C 0.98155 0.02469 0.45367 0.0
C257 C 0.96589 0.02288 0.41058 0.0
C258 C 0.02124 0.03071 0.60876 0.0
C259 C 0.03327 0.01338 0.62183 0.0
C260 C 0.00524 0.0286 0.56667 0.0
C261 C 0.0011 0.0092 0.53609 0.0
C262 C 0.01315 0.99184 0.54921 0.0
C263 C 0.029 0.99387 0.59193 0.0
H264 H 0.26529 0.70628 0.68081 0.0
H265 H 0.20106 0.72565 0.65814 0.0
H266 H 0.27238 0.73374 0.75471 0.0
H267 H 0.20841 0.75375 0.73031 0.0
H268 H 0.22076 0.78878 0.89899 0.0
H269 H 0.21376 0.75984 0.82977 0.0
H270 H 0.27885 0.77168 0.7651 0.0
H271 H 0.28614 0.80021 0.83662 0.0
C272 C 0.25268 0.71643 0.69165 0.0
C273 C 0.2326 0.71381 0.66375 0.0
C274 C 0.25682 0.73231 0.73365 0.0
C275 C 0.24105 0.7461 0.74822 0.0
C276 C 0.22084 0.74323 0.72082 0.0
C277 C 0.21661 0.72715 0.67932 0.0
C278 C 0.23361 0.78526 0.86997 0.0
C279 C 0.254 0.79685 0.87308 0.0
C280 C 0.22954 0.7687 0.83001 0.0
C281 C 0.24567 0.76347 0.79155 0.0
C282 C 0.26613 0.77507 0.79464 0.0
C283 C 0.27029 0.79151 0.8353 0.0
H284 H 0.4461 0.9708 0.08954 0.0
H285 H 0.46464 0.03619 0.14387 0.0
H286 H 0.47317 0.97438 0.01352 0.0
H287 H 0.49231 0.0395 0.06961 0.0
H288 H 0.53794 0.98064 0.92129 0.0
H289 H 0.51096 0.97691 -0.00227 0.0
H290 H 0.49645 0.04253 0.96865 0.0
H291 H 0.52396 0.0465 0.8943 0.0
C292 C 0.45608 0.98589 0.08547 0.0
C293 C 0.45321 0.00324 0.12246 0.0
C294 C 0.47169 0.9879 0.04216 0.0
C295 C 0.48494 0.00722 0.03544 0.0
C296 C 0.48212 0.02452 0.07282 0.0
C297 C 0.46632 0.0226 0.11559 0.0
C298 C 0.52899 0.99425 0.93142 0.0
C299 C 0.53312 0.01388 0.90203 0.0
C300 C 0.51344 0.99209 0.97495 0.0
C301 C 0.50154 0.00943 0.98941 0.0
C302 C 0.5056 0.02898 0.95951 0.0
C303 C 0.52131 0.03123 0.91662 0.0
H304 H 0.28022 0.80784 0.19006 0.0
H305 H 0.21489 0.78847 0.13669 0.0
H306 H 0.27691 0.78121 0.26706 0.0
H307 H 0.21186 0.76123 0.21202 0.0
H308 H 0.20589 0.7284 0.38581 0.0
H309 H 0.20919 0.75658 0.31311 0.0
H310 H 0.27505 0.74339 0.28114 0.0
H311 H 0.27199 0.71578 0.35577 0.0
C312 C 0.26518 0.79781 0.19465 0.0
C313 C 0.24781 0.80023 0.15739 0.0
C314 C 0.26333 0.78245 0.23852 0.0
C315 C 0.24415 0.769 0.2456 0.0
C316 C 0.22674 0.77155 0.20844 0.0
C317 C 0.22851 0.7871 0.16505 0.0
C318 C 0.22108 0.73152 0.36324 0.0
C319 C 0.23868 0.71986 0.37639 0.0
C320 C 0.22294 0.74761 0.32135 0.0
C321 C 0.24236 0.75222 0.29111 0.0
C322 C 0.25997 0.74051 0.30427 0.0
C323 C 0.25818 0.72459 0.34675 0.0
H324 H 0.44972 0.96602 0.44187 0.0
H325 H 0.45898 0.03202 0.38337 0.0
H326 H 0.47775 0.97383 0.51449 0.0
H327 H 0.48739 0.03955 0.45366 0.0
H328 H 0.52247 0.05211 0.62355 0.0
H329 H 0.49377 0.0443 0.55325 0.0
H330 H 0.51564 0.98138 0.52362 0.0
H331 H 0.5437 0.98889 0.59559 0.0
C332 C 0.45779 0.98213 0.44436 0.0
C333 C 0.45207 -0.00161 0.40709 0.0
C334 C 0.47394 0.9866 0.48565 0.0
C335 C 0.48485 0.00735 0.48994 0.0
C336 C 0.47909 0.02353 0.45244 0.0
C337 C 0.46283 0.01914 0.41182 0.0
C338 C 0.52122 0.03669 0.60165 0.0
C339 C 0.5353 0.02112 0.61508 0.0
C340 C 0.50479 0.03219 0.56128 0.0
C341 C 0.50231 0.01215 0.53289 0.0
C342 C 0.51676 -0.00321 0.54551 0.0
C343 C 0.53299 0.00118 0.58638 0.0
H344 H 0.27144 0.212 0.67835 0.0
H345 H 0.20544 0.2254 0.65046 0.0
H346 H 0.2748 0.23894 0.75476 0.0
H347 H 0.20904 0.25287 0.72512 0.0
H348 H 0.21659 0.28711 0.89833 0.0
H349 H 0.2126 0.25853 0.82631 0.0
H350 H 0.27718 0.27702 0.76511 0.0
H351 H 0.28143 0.30497 0.83839 0.0
C352 C 0.25768 0.22074 0.68844 0.0
C353 C 0.2382 0.2166 0.65833 0.0
C354 C 0.25963 0.23627 0.73196 0.0
C355 C 0.24223 0.24818 0.74581 0.0
C356 C 0.22267 0.2438 0.71615 0.0
C357 C 0.22064 0.22811 0.67311 0.0
C358 C 0.22989 0.28508 0.86934 0.0
C359 C 0.24933 0.29824 0.87409 0.0
C360 C 0.2276 0.26875 0.82796 0.0
C361 C 0.24461 0.26541 0.79009 0.0
C362 C 0.26392 0.27883 0.79438 0.0
C363 C 0.2663 0.29498 0.83611 0.0
H364 H 0.02532 0.05185 0.90209 0.0
H365 H 0.04676 0.98865 0.92862 0.0
H366 H -0.00277 0.04412 0.9742 0.0
H367 H 0.01928 0.98121 0.00226 0.0
H368 H 0.95289 0.9659 0.08324 0.0
H369 H 0.98128 0.97368 0.01157 0.0
H370 H 0.9913 0.03917 0.07422 0.0
H371 H 0.96254 0.03167 0.14369 0.0
C372 C 0.02426 0.03646 0.92407 0.0
C373 C 0.03818 0.02085 0.9096 0.0
C374 C 0.00819 0.03202 0.96549 0.0
C375 C 0.00591 0.01197 0.99383 0.0
C376 C 0.02027 -0.00338 0.98041 0.0
C377 C 0.03615 0.00096 0.93856 0.0
C378 C 0.96115 0.98194 0.08146 0.0
C379 C 0.95538 -0.00182 0.1188 0.0
C380 C 0.97751 0.98639 0.04071 0.0
C381 C 0.98856 0.00709 0.03705 0.0
C382 C 0.98287 0.02319 0.07496 0.0
C383 C 0.96641 0.01883 0.11506 0.0
H384 H 0.76635 0.72543 0.89184 0.0
H385 H 0.7006 0.71554 0.83152 0.0
H386 H 0.77377 0.75415 0.82231 0.0
H387 H 0.70831 0.74386 0.75971 0.0
H388 H 0.72291 0.80951 0.6775 0.0
H389 H 0.71554 0.78177 0.7504 0.0
H390 H 0.77881 0.76045 0.72275 0.0
H391 H 0.78647 0.78882 0.65153 0.0
C392 C 0.75351 0.72922 0.86318 0.0
C393 C 0.73287 0.71817 0.86707 0.0
C394 C 0.75783 0.74566 0.82303 0.0
C395 C 0.7417 0.7513 0.78517 0.0
C396 C 0.72104 0.74015 0.78882 0.0
C397 C 0.71663 0.72383 0.82965 0.0
C398 C 0.73531 0.799 0.68738 0.0
C399 C 0.7553 0.80135 0.65888 0.0
C400 C 0.731 0.78296 0.72879 0.0
C401 C 0.74649 0.76873 0.74217 0.0
C402 C 0.7666 0.7713 0.71414 0.0
C403 C 0.77101 0.78754 0.67321 0.0
H404 H 0.72654 0.31054 0.34017 0.0
H405 H 0.78925 0.28926 0.37525 0.0
H406 H 0.72002 0.28237 0.26821 0.0
H407 H 0.78241 0.26043 0.30449 0.0
H408 H 0.77108 0.22482 0.13362 0.0
H409 H 0.77849 0.25337 0.20399 0.0
H410 H 0.71242 0.24433 0.26247 0.0
H411 H 0.70477 0.21621 0.19022 0.0
C412 C 0.73894 0.2998 0.33249 0.0
C413 C 0.7584 0.30207 0.3634 0.0
C414 C 0.73511 0.28351 0.2916 0.0
C415 C 0.75056 0.26895 0.28106 0.0
C416 C 0.77024 0.2715 0.31116 0.0
C417 C 0.77417 0.28799 0.35173 0.0
C418 C 0.75811 0.22885 0.1616 0.0
C419 C 0.73729 0.21828 0.15623 0.0
C420 C 0.76242 0.24517 0.20221 0.0
C421 C 0.74606 0.2512 0.23882 0.0
C422 C 0.72531 0.24036 0.23418 0.0
C423 C 0.72093 0.22414 0.19308 0.0
H424 H 0.77317 0.21628 0.84998 0.0
H425 H 0.70674 0.22785 0.87929 0.0
H426 H 0.7758 0.24357 0.77465 0.0
H427 H 0.7096 0.2557 0.80555 0.0
H428 H 0.71598 0.28861 0.62966 0.0
H429 H 0.71277 0.26087 0.70392 0.0
H430 H 0.7771 0.28157 0.76324 0.0
H431 H 0.78058 0.3087 0.68771 0.0
C432 C 0.75917 0.22474 0.84057 0.0
C433 C 0.73975 0.21991 0.87054 0.0
C434 C 0.76071 0.24049 0.79765 0.0
C435 C 0.74293 0.25191 0.78424 0.0
C436 C 0.7235 0.24701 0.81418 0.0
C437 C 0.72189 0.2311 0.85667 0.0
C438 C 0.72939 0.28727 0.65873 0.0
C439 C 0.74856 0.30077 0.6527 0.0
C440 C 0.72753 0.27143 0.70144 0.0
C441 C 0.74472 0.26893 0.73938 0.0
C442 C 0.76372 0.28275 0.73398 0.0
C443 C 0.76566 0.29841 0.69093 0.0
H444 H 0.70501 0.70957 0.18433 0.0
H445 H 0.77062 0.72804 0.13167 0.0
H446 H 0.7085 0.73636 0.2611 0.0
H447 H 0.77383 0.75541 0.20666 0.0
H448 H 0.78036 0.78754 0.38107 0.0
H449 H 0.77652 0.75966 0.30764 0.0
H450 H 0.711 0.77415 0.27667 0.0
H451 H 0.71461 0.80149 0.35217 0.0
C452 C 0.72014 0.71944 0.18899 0.0
C453 C 0.73756 0.71667 0.15213 0.0
C454 C 0.72209 0.7349 0.23272 0.0
C455 C 0.74143 0.74808 0.24003 0.0
C456 C 0.75883 0.74528 0.20298 0.0
C457 C 0.75697 0.72965 0.15978 0.0
C458 C 0.76513 0.78479 0.35857 0.0
C459 C 0.74779 0.79673 0.37226 0.0
C460 C 0.76296 0.76887 0.31622 0.0
C461 C 0.74349 0.76472 0.28599 0.0
C462 C 0.72612 0.7767 0.29972 0.0
C463 C 0.72822 0.79246 0.34271 0.0
H464 H 0.53317 0.47951 0.10781 0.0
H465 H 0.52104 0.5456 0.13973 0.0
H466 H 0.50488 0.47662 0.03509 0.0
H467 H 0.49217 0.54247 0.06892 0.0
H468 H 0.45983 0.53687 0.89206 0.0
H469 H 0.48682 0.54003 0.96803 0.0
H470 H 0.46701 0.4749 0.02259 0.0
H471 H 0.44062 0.47148 0.94498 0.0
C472 C 0.52432 0.49334 0.09966 0.0
C473 C 0.5294 0.5128 0.1292 0.0
C474 C 0.50799 0.49166 0.05829 0.0
C475 C 0.49622 0.50932 0.04616 0.0
C476 C 0.50115 0.52868 0.0764 0.0
C477 C 0.51765 0.53045 0.11719 0.0
C478 C 0.46113 0.5233 0.92058 0.0
C479 C 0.4482 0.50389 0.91239 0.0
C480 C 0.47655 0.52512 0.96433 0.0
C481 C 0.47917 0.50768 0.0013 0.0
C482 C 0.46574 0.4885 0.99414 0.0
C483 C 0.45051 0.48658 0.94993 0.0
H484 H 0.03821 0.47929 0.42597 0.0
H485 H 0.02646 0.54568 0.39716 0.0
H486 H 0.01105 0.47661 0.50175 0.0
H487 H -0.00126 0.54277 0.47135 0.0
H488 H 0.96546 0.53622 0.64669 0.0
H489 H 0.99343 0.53952 0.57291 0.0
H490 H 0.97305 0.47518 0.51304 0.0
H491 H 0.94571 0.47161 0.58807 0.0
C492 C 0.02974 0.49327 0.43561 0.0
C493 C 0.03446 0.51268 0.40559 0.0
C494 C 0.01408 0.49171 0.4788 0.0
C495 C 0.00262 0.50945 0.49242 0.0
C496 C 0.00746 0.5289 0.46255 0.0
C497 C 0.02329 0.53053 0.4198 0.0
C498 C 0.96694 0.52282 0.61762 0.0
C499 C 0.95345 0.50363 0.62331 0.0
C500 C 0.9829 0.52474 0.57519 0.0
C501 C 0.98555 0.50758 0.53721 0.0
C502 C 0.97177 0.48854 0.54234 0.0
C503 C 0.95598 0.48655 0.58511 0.0
H504 H 0.03689 0.54742 0.08534 0.0
H505 H 0.02796 0.48122 0.14248 0.0
H506 H 0.00859 0.53985 0.0136 0.0
H507 H -0.00077 0.4739 0.07264 0.0
H508 H 0.9635 0.46304 0.90123 0.0
H509 H 0.99219 0.46983 0.97227 0.0
H510 H 0.97055 0.53244 0.0076 0.0
H511 H 0.9425 0.52596 0.93528 0.0
C512 C 0.02884 0.5313 0.08273 0.0
C513 C 0.03469 0.51494 0.11952 0.0
C514 C 0.01252 0.52698 0.04193 0.0
C515 C 0.00155 0.50627 0.03753 0.0
C516 C 0.00753 0.48993 0.0742 0.0
C517 C 0.02396 0.49418 0.1145 0.0
C518 C 0.96479 0.47815 0.92461 0.0
C519 C 0.95084 0.49399 0.91253 0.0
C520 C 0.9812 0.48206 0.96537 0.0
C521 C 0.98381 0.50179 -0.00472 0.0
C522 C 0.96936 0.5173 0.98438 0.0
C523 C 0.95314 0.51349 0.94328 0.0
H524 H 0.45368 0.46458 0.5912 0.0
H525 H 0.46444 0.53003 0.65335 0.0
H526 H 0.48226 0.47207 0.51996 0.0
H527 H 0.49346 0.53723 0.5844 0.0
H528 H 0.52643 0.5502 0.41087 0.0
H529 H 0.49902 0.54262 0.48476 0.0
H530 H 0.52008 0.47904 0.50832 0.0
H531 H 0.54684 0.48635 0.4327 0.0
C532 C 0.46229 0.48047 0.59 0.0
C533 C 0.4567 0.49675 0.62744 0.0
C534 C 0.47876 0.48475 0.54948 0.0
C535 C 0.49013 0.50531 0.54625 0.0
C536 C 0.48477 0.52139 0.58472 0.0
C537 C 0.46817 0.5172 0.62451 0.0
C538 C 0.52532 0.5347 0.43226 0.0
C539 C 0.53871 0.51886 0.4159 0.0
C540 C 0.50965 0.53034 0.47476 0.0
C541 C 0.50726 0.51016 0.50238 0.0
C542 C 0.52115 0.49458 0.48713 0.0
C543 C 0.53662 0.49884 0.44413 0.0
H544 H 0.1016 0.41713 0.28059 0.0
H545 H 0.10373 0.44503 0.10979 0.0
H546 H 0.11996 0.38684 0.24423 0.0
H547 H 0.12234 0.41529 0.07398 0.0
H548 H 0.15527 0.3607 0.01383 0.0
H549 H 0.12444 0.37751 0.05274 0.0
H550 H 0.15745 0.38704 0.21604 0.0
H551 H 0.1878 0.36992 0.17784 0.0
C552 C 0.10557 0.41656 0.23512 0.0
C553 C 0.10168 0.43364 0.19827 0.0
C554 C 0.11612 0.39927 0.21434 0.0
C555 C 0.12286 0.3988 0.1564 0.0
C556 C 0.11725 0.41501 0.1187 0.0
C557 C 0.10678 0.43223 0.13942 0.0
C558 C 0.15566 0.36593 0.05844 0.0
C559 C 0.17411 0.36444 0.09242 0.0
C560 C 0.13804 0.37557 0.08068 0.0
C561 C 0.13861 0.38386 0.13722 0.0
C562 C 0.15636 0.3807 0.17251 0.0
C563 C 0.17391 0.37109 0.15034 0.0
H564 H 0.79416 0.90616 0.51929 0.0
H565 H 0.75595 0.90317 0.36336 0.0
H566 H 0.81913 0.93401 0.47573 0.0
H567 H 0.78091 0.93103 0.32003 0.0
H568 H 0.84708 0.95869 0.24391 0.0
H569 H 0.81945 0.93322 0.28667 0.0
H570 H 0.81997 0.97219 0.44092 0.0
H571 H 0.84758 -0.00239 0.39847 0.0
C572 C 0.79101 0.91156 0.47594 0.0
C573 C 0.77316 0.90244 0.44468 0.0
C574 C 0.80524 0.92755 0.45112 0.0
C575 C 0.80196 0.93461 0.39447 0.0
C576 C 0.78393 0.92572 0.36356 0.0
C577 C 0.7696 0.90987 0.38851 0.0
C578 C 0.84115 0.9619 0.28672 0.0
C579 C 0.84957 0.98007 0.31793 0.0
C580 C 0.82529 0.94739 0.31108 0.0
C581 C 0.81768 0.95071 0.3672 0.0
C582 C 0.82575 0.96913 0.39785 0.0
C583 C 0.84147 0.98372 0.37337 0.0
H584 H 0.33337 0.65192 0.49686 0.0
H585 H 0.30441 0.64661 0.66636 0.0
H586 H 0.36428 0.63444 0.53277 0.0
H587 H 0.33478 0.6289 0.70166 0.0
H588 H 0.38429 0.56717 0.59599 0.0
H589 H 0.36609 0.59694 0.55853 0.0
H590 H 0.3726 0.6287 0.72431 0.0
H591 H 0.39043 0.59845 0.76244 0.0
C592 C 0.3338 0.64741 0.54196 0.0
C593 C 0.31631 0.65022 0.57855 0.0
C594 C 0.35145 0.63737 0.56248 0.0
C595 C 0.35189 0.63008 0.6199 0.0
C596 C 0.33513 0.63448 0.65738 0.0
C597 C 0.31754 0.64442 0.63692 0.0
C598 C 0.38226 0.5807 0.62418 0.0
C599 C 0.38829 0.58025 0.68255 0.0
C600 C 0.37201 0.59792 0.60248 0.0
C601 C 0.36761 0.61506 0.63869 0.0
C602 C 0.37544 0.61552 0.69567 0.0
C603 C 0.38568 0.59823 0.71746 0.0
H604 H 0.69618 0.11231 0.02377 0.0
H605 H 0.73355 0.11372 0.86638 0.0
H606 H 0.67027 0.08496 0.9816 0.0
H607 H 0.7077 0.08637 0.8245 0.0
H608 H 0.64105 0.0606 0.74989 0.0
H609 H 0.66921 0.0855 0.79242 0.0
H610 H 0.66779 0.04666 0.94689 0.0
H611 H 0.63962 0.0218 0.90463 0.0
C612 C 0.69896 0.10665 0.98044 0.0
C613 C 0.71683 0.11522 0.9483 0.0
C614 C 0.68418 0.09094 0.95641 0.0
C615 C 0.68695 0.08365 0.8997 0.0
C616 C 0.70505 0.0919 0.86805 0.0
C617 C 0.7199 0.10747 0.89219 0.0
C618 C 0.64685 0.05731 0.79275 0.0
C619 C 0.63809 0.0393 0.82398 0.0
C620 C 0.66303 0.0715 0.81696 0.0
C621 C 0.67061 0.06801 0.873 0.0
C622 C 0.66207 0.04984 0.90386 0.0
C623 C 0.64603 0.03557 0.8795 0.0
H624 H 0.14114 0.5563 0.249 0.0
H625 H 0.14137 0.51793 0.40429 0.0
H626 H 0.16885 0.582 0.29049 0.0
H627 H 0.16908 0.54354 0.44542 0.0
H628 H 0.19479 0.60966 0.52256 0.0
H629 H 0.16988 0.5816 0.47983 0.0
H630 H 0.20741 0.58482 0.3228 0.0
H631 H 0.2323 0.61294 0.36532 0.0
C632 C 0.14725 0.55325 0.29169 0.0
C633 C 0.139 0.53518 0.32351 0.0
C634 C 0.16316 0.5679 0.31532 0.0
C635 C 0.171 0.5648 0.3713 0.0
C636 C 0.16312 0.54646 0.40248 0.0
C637 C 0.14734 0.53175 0.37876 0.0
C638 C 0.1978 0.60427 0.47909 0.0
C639 C 0.21545 0.61354 0.44724 0.0
C640 C 0.18361 0.58815 0.45474 0.0
C641 C 0.18671 0.58109 0.39796 0.0
C642 C 0.20453 0.59012 0.36643 0.0
C643 C 0.21882 0.60613 0.39093 0.0
H644 H 0.60054 0.92108 0.7687 0.0
H645 H 0.60659 0.95224 0.60217 0.0
H646 H 0.61853 0.89085 0.73051 0.0
H647 H 0.62482 0.92248 0.56462 0.0
H648 H 0.68594 0.87145 0.66835 0.0
H649 H 0.65637 0.89003 0.70561 0.0
H650 H 0.6252 0.88465 0.53896 0.0
H651 H 0.65525 0.86628 0.50109 0.0
C652 C 0.60534 0.92128 0.72374 0.0
C653 C 0.60256 0.93918 0.68872 0.0
C654 C 0.61566 0.90402 0.70193 0.0
C655 C 0.6233 0.90438 0.64474 0.0
C656 C 0.61898 0.92156 0.60867 0.0
C657 C 0.60873 0.93877 0.63044 0.0
C658 C 0.6726 0.87386 0.63985 0.0
C659 C 0.6731 0.86783 0.58148 0.0
C660 C 0.6555 0.88431 0.66144 0.0
C661 C 0.63852 0.88899 0.6251 0.0
C662 C 0.63822 0.8815 0.56777 0.0
C663 C 0.65537 0.87095 0.54613 0.0
H664 H 0.36137 0.45025 0.77268 0.0
H665 H 0.33089 0.50258 0.85081 0.0
H666 H 0.33498 0.42434 0.81935 0.0
H667 H 0.30419 0.47661 0.89616 0.0
H668 H 0.24916 0.41795 0.90533 0.0
H669 H 0.27401 0.44468 0.85603 0.0
H670 H 0.3279 0.41768 0.93609 0.0
H671 H 0.30313 0.39131 0.98663 0.0
C672 C 0.34882 0.4562 0.79895 0.0
C673 C 0.34814 0.47837 0.80833 0.0
C674 C 0.33387 0.44141 0.82583 0.0
C675 C 0.31776 0.44861 0.86134 0.0
C676 C 0.31651 0.47078 0.86882 0.0
C677 C 0.33175 0.48555 0.84301 0.0
C678 C 0.26631 0.41787 0.91271 0.0
C679 C 0.27428 0.40265 0.9498 0.0
C680 C 0.28044 0.43311 0.8846 0.0
C681 C 0.30274 0.43299 0.89216 0.0
C682 C 0.31072 0.41788 0.92941 0.0
C683 C 0.29658 0.40296 0.95853 0.0
H684 H 0.83556 0.15269 -0.00397 0.0
H685 H 0.80624 0.14919 0.16521 0.0
H686 H 0.86593 0.13474 0.0334 0.0
H687 H 0.83604 0.13096 0.20196 0.0
H688 H 0.89074 0.09876 0.26416 0.0
H689 H 0.87361 0.1294 0.22542 0.0
H690 H 0.86641 0.09729 0.06021 0.0
H691 H 0.88387 0.06718 0.09824 0.0
C692 C 0.83581 0.14849 0.04136 0.0
C693 C 0.81834 0.1519 0.07742 0.0
C694 C 0.85314 0.13817 0.06273 0.0
C695 C 0.85326 0.13117 0.12046 0.0
C696 C 0.83661 0.13627 0.15744 0.0
C697 C 0.81935 0.14652 0.13615 0.0
C698 C 0.88595 0.09854 0.21921 0.0
C699 C 0.88819 0.0804 0.18457 0.0
C700 C 0.87612 0.11605 0.19706 0.0
C701 C 0.86839 0.11566 0.13998 0.0
C702 C 0.87231 0.09825 0.10418 0.0
C703 C 0.88211 0.08082 0.12625 0.0
H704 H 0.83211 0.65223 0.02148 0.0
H705 H 0.80289 0.64656 0.85241 0.0
H706 H 0.86278 0.63435 0.98567 0.0
H707 H 0.83307 0.62842 0.81719 0.0
H708 H 0.8821 0.56666 0.92518 0.0
H709 H 0.86375 0.59659 0.96108 0.0
H710 H 0.87104 0.62765 0.79456 0.0
H711 H 0.88914 0.59723 0.75804 0.0
C712 C 0.83244 0.64755 0.97647 0.0
C713 C 0.81493 0.65037 0.94003 0.0
C714 C 0.84996 0.6373 0.95601 0.0
C715 C 0.85024 0.62974 0.89879 0.0
C716 C 0.8335 0.63418 0.86133 0.0
C717 C 0.81604 0.64438 0.88174 0.0
C718 C 0.88019 0.58006 0.89647 0.0
C719 C 0.88662 0.5794 0.83844 0.0
C720 C 0.86986 0.59737 0.91728 0.0
C721 C 0.86573 0.6144 0.88048 0.0
C722 C 0.87374 0.61458 0.82368 0.0
C723 C 0.88414 0.59721 0.80282 0.0
H724 H 0.23781 0.0971 0.60553 0.0
H725 H 0.18578 0.12711 0.52465 0.0
H726 H 0.21175 0.06997 0.6487 0.0
H727 H 0.15973 0.10027 0.56929 0.0
H728 H 0.12602 0.06689 0.7351 0.0
H729 H 0.15229 0.0924 0.68656 0.0
H730 H 0.18048 0.03963 0.60421 0.0
H731 H 0.15387 0.01405 0.65141 0.0
C732 C 0.22083 0.09778 0.59672 0.0
C733 C 0.21375 0.11413 0.56182 0.0
C734 C 0.206 0.0823 0.62129 0.0
C735 C 0.18387 0.08326 0.61239 0.0
C736 C 0.17677 0.09938 0.57681 0.0
C737 C 0.19163 0.11457 0.5511 0.0
C738 C 0.1379 0.06075 0.7069 0.0
C739 C 0.13798 0.03855 0.69694 0.0
C740 C 0.15276 0.07531 0.67892 0.0
C741 C 0.16819 0.06785 0.64166 0.0
C742 C 0.16865 0.04566 0.6328 0.0
C743 C 0.15349 0.03111 0.65973 0.0
H744 H 0.6857 0.36995 0.34687 0.0
H745 H 0.65405 0.36222 0.51253 0.0
H746 H 0.65544 0.38735 0.3093 0.0
H747 H 0.62331 0.37933 0.47429 0.0
H748 H 0.60367 0.44707 0.41594 0.0
H749 H 0.62196 0.41716 0.45184 0.0
H750 H 0.61776 0.38766 0.28282 0.0
H751 H 0.59968 0.41811 0.24635 0.0
C752 C 0.67201 0.3715 0.37489 0.0
C753 C 0.67245 0.3652 0.43304 0.0
C754 C 0.65451 0.38127 0.35309 0.0
C755 C 0.63707 0.38495 0.38901 0.0
C756 C 0.6367 0.37698 0.44585 0.0
C757 C 0.65426 0.36717 0.46771 0.0
C758 C 0.60626 0.43402 0.38661 0.0
C759 C 0.6007 0.43514 0.32804 0.0
C760 C 0.61653 0.4167 0.40741 0.0
C761 C 0.62152 0.40012 0.37003 0.0
C762 C 0.61438 0.40037 0.31243 0.0
C763 C 0.604 0.41775 0.29159 0.0
H764 H 0.34472 0.9591 0.27351 0.0
H765 H 0.34805 -0.00309 0.1169 0.0
H766 H 0.31694 0.93404 0.22993 0.0
H767 H 0.32026 0.97189 0.0736 0.0
H768 H 0.293 0.90564 -0.00229 0.0
H769 H 0.31825 0.9334 0.04071 0.0
H770 H 0.27889 0.93285 0.19426 0.0
H771 H 0.25369 0.9051 0.15158 0.0
C772 C 0.33939 0.96215 0.23003 0.0
C773 C 0.34861 0.97991 0.19857 0.0
C774 C 0.32344 0.94787 0.20519 0.0
C775 C 0.31653 0.95101 0.14832 0.0
C776 C 0.32547 0.96897 0.11727 0.0
C777 C 0.34129 0.98334 0.14223 0.0
C778 C 0.28965 0.91159 0.04042 0.0
C779 C 0.27143 0.90313 0.07136 0.0
C780 C 0.30404 0.92753 0.06492 0.0
C781 C 0.30055 0.93517 0.12092 0.0
C782 C 0.28209 0.92705 0.1513 0.0
C783 C 0.26763 0.91125 0.12669 0.0
H784 H 0.79334 0.40799 0.49746 0.0
H785 H 0.75362 0.40605 0.6507 0.0
H786 H 0.81825 0.43563 0.54205 0.0
H787 H 0.77853 0.43371 0.69508 0.0
H788 H 0.8448 0.459 0.77545 0.0
H789 H 0.81672 0.43457 0.73082 0.0
H790 H 0.81994 0.47392 0.57718 0.0
H791 H 0.84802 0.49833 0.62157 0.0
C792 C 0.78982 0.41361 0.54039 0.0
C793 C 0.7716 0.40478 0.57069 0.0
C794 C 0.80402 0.4295 0.56578 0.0
C795 C 0.80034 0.43672 0.62209 0.0
C796 C 0.78186 0.42825 0.65185 0.0
C797 C 0.76756 0.41251 0.62629 0.0
C798 C 0.83937 0.46253 0.73237 0.0
C799 C 0.84868 0.4805 0.7019 0.0
C800 C 0.82324 0.44862 0.70696 0.0
C801 C 0.81625 0.45234 0.65049 0.0
C802 C 0.82521 0.47057 0.62054 0.0
C803 C 0.8412 0.48457 0.6461 0.0
H804 H 0.33394 0.15314 0.52189 0.0
H805 H 0.30445 0.15 0.35297 0.0
H806 H 0.36412 0.13503 0.48404 0.0
H807 H 0.33408 0.13154 0.31576 0.0
H808 H 0.38854 0.09835 0.25385 0.0
H809 H 0.37153 0.12922 0.29195 0.0
H810 H 0.36402 0.09758 0.45767 0.0
H811 H 0.38133 0.06726 0.42027 0.0
C812 C 0.33412 0.14899 0.4765 0.0
C813 C 0.31663 0.15252 0.44068 0.0
C814 C 0.35135 0.13858 0.45486 0.0
C815 C 0.35133 0.13154 0.39713 0.0
C816 C 0.33473 0.13684 0.3603 0.0
C817 C 0.31758 0.14723 0.38185 0.0
C818 C 0.38369 0.09828 0.29876 0.0
C819 C 0.38583 0.08023 0.33376 0.0
C820 C 0.37393 0.11592 0.32054 0.0
C821 C 0.3662 0.11576 0.37764 0.0
C822 C 0.36994 0.09839 0.41369 0.0
C823 C 0.37965 0.08083 0.39199 0.0
H824 H 0.64089 0.55648 0.26916 0.0
H825 H 0.63721 0.51887 0.11209 0.0
H826 H 0.66863 0.58152 0.22562 0.0
H827 H 0.66504 0.5439 0.06874 0.0
H828 H 0.69264 0.61037 0.99415 0.0
H829 H 0.66739 0.58243 0.03634 0.0
H830 H 0.70655 0.58263 0.19009 0.0
H831 H 0.73172 0.61058 0.14826 0.0
C832 C 0.64613 0.55347 0.22554 0.0
C833 C 0.63683 0.53577 0.19397 0.0
C834 C 0.66208 0.56774 0.20073 0.0
C835 C 0.66893 0.56465 0.14377 0.0
C836 C 0.65989 0.54676 0.11252 0.0
C837 C 0.64405 0.53239 0.13748 0.0
C838 C 0.69595 0.60431 0.03672 0.0
C839 C 0.71408 0.61275 0.06802 0.0
C840 C 0.68155 0.58826 0.06075 0.0
C841 C 0.68498 0.58048 0.11661 0.0
C842 C 0.70339 0.58854 0.14725 0.0
C843 C 0.71784 0.60446 0.12313 0.0
H844 H 0.18417 0.86866 0.85159 0.0
H845 H 0.15357 0.86358 0.01907 0.0
H846 H 0.15444 0.88697 0.81437 0.0
H847 H 0.12335 0.8816 0.98122 0.0
H848 H 0.09935 0.91893 0.75188 0.0
H849 H 0.11678 0.88829 0.78955 0.0
H850 H 0.12303 0.91935 0.95633 0.0
H851 H 0.10534 0.94949 0.91929 0.0
C852 C 0.1708 0.87099 0.88012 0.0
C853 C 0.17141 0.86514 0.93859 0.0
C854 C 0.1536 0.88129 0.85856 0.0
C855 C 0.13664 0.88596 0.89502 0.0
C856 C 0.13638 0.87849 0.95234 0.0
C857 C 0.15364 0.86814 0.97396 0.0
C858 C 0.10399 0.91891 0.79693 0.0
C859 C 0.10141 0.93677 0.83235 0.0
C860 C 0.114 0.90141 0.81845 0.0
C861 C 0.12151 0.9015 0.87572 0.0
C862 C 0.11729 0.91862 0.91219 0.0
C863 C 0.10735 0.93606 0.89073 0.0
loop_
_geom_bond_atom_site_label_1
_geom_bond_atom_site_label_2
_geom_bond_distance
_geom_bond_site_symmetry_2
_ccdc_geom_bond_type
C0 O1 1.306 . S
C0 O3 1.160 . S
O1 C0 1.306 . S
O1 Cd2 2.228 . S
Cd2 O1 2.228 . S
Cd2 O6 2.273 . S
Cd2 O10 2.277 1_554 S
O3 C0 1.160 . S
O3 Cd4 2.203 . S
Cd4 O3 2.203 . S
Cd4 O6 2.411 . S
Cd4 O7 2.333 1_554 S
Cd4 O8 2.352 . S
Cd4 O12 2.277 1_554 S
Cd4 O13 2.356 . S
C5 O10 1.209 . S
C5 O12 1.226 . S
O6 Cd2 2.273 . S
O6 Cd4 2.411 . S
O6 C9 1.320 1_554 S
O7 Cd4 2.333 1_556 S
O7 C9 1.214 . S
O8 Cd4 2.352 . S
O8 C11 1.258 . S
C9 O6 1.320 1_556 S
C9 O7 1.214 . S
O10 Cd2 2.277 1_556 S
O10 C5 1.209 . S
C11 O8 1.258 . S
C11 O13 1.282 . S
O12 Cd4 2.277 1_556 S
O12 C5 1.226 . S
O13 Cd4 2.356 . S
O13 C11 1.282 . S
C14 O15 1.306 1_545 S
C14 O17 1.160 . S
O15 C14 1.306 1_565 S
O15 Cd16 2.228 . S
Cd16 O15 2.228 . S
Cd16 O20 2.273 . S
Cd16 O24 2.305 . S
O17 C14 1.160 . S
O17 Cd18 2.203 . S
Cd18 O17 2.203 . S
Cd18 O20 2.411 1_545 S
Cd18 O21 2.333 . S
Cd18 O22 2.352 . S
Cd18 O26 2.277 . S
Cd18 O27 2.356 . S
C19 O24 1.178 1_545 S
C19 O26 1.226 . S
O20 Cd16 2.273 . S
O20 Cd18 2.411 1_565 S
O20 C23 1.320 . S
O21 Cd18 2.333 . S
O21 C23 1.214 1_545 S
O22 Cd18 2.352 . S
O22 C25 1.258 . S
C23 O20 1.320 . S
C23 O21 1.214 1_565 S
O24 Cd16 2.305 . S
O24 C19 1.178 1_565 S
C25 O22 1.258 . S
C25 O27 1.282 . S
O26 Cd18 2.277 . S
O26 C19 1.226 . S
O27 Cd18 2.356 . S
O27 C25 1.282 . S
C28 O29 1.306 . S
C28 O31 1.160 . S
O29 C28 1.306 . S
O29 Cd30 2.228 . S
Cd30 O29 2.228 . S
Cd30 O34 2.273 . S
Cd30 O38 2.277 . S
O31 C28 1.160 . S
O31 Cd32 2.203 . S
Cd32 O31 2.203 . S
Cd32 O34 2.411 . S
Cd32 O35 2.333 . S
Cd32 O36 2.352 . S
Cd32 O40 2.277 . S
Cd32 O41 2.356 . S
C33 O38 1.209 . S
C33 O40 1.226 . S
O34 Cd30 2.273 . S
O34 Cd32 2.411 . S
O34 C37 1.320 . S
O35 Cd32 2.333 . S
O35 C37 1.214 . S
O36 Cd32 2.352 . S
O36 C39 1.258 . S
C37 O34 1.320 . S
C37 O35 1.214 . S
O38 Cd30 2.277 . S
O38 C33 1.209 . S
C39 O36 1.258 . S
C39 O41 1.282 . S
O40 Cd32 2.277 . S
O40 C33 1.226 . S
O41 Cd32 2.356 . S
O41 C39 1.282 . S
C42 O43 1.306 . S
C42 O45 1.200 . S
O43 C42 1.306 . S
O43 Cd44 2.228 . S
Cd44 O43 2.228 . S
Cd44 O48 2.273 . S
Cd44 O52 2.277 . S
O45 C42 1.200 . S
O45 Cd46 2.207 . S
Cd46 O45 2.207 . S
Cd46 O48 2.411 . S
Cd46 O49 2.333 . S
Cd46 O50 2.352 1_545 S
Cd46 O54 2.277 1_545 S
Cd46 O55 2.356 1_545 S
C47 O52 1.209 . S
C47 O54 1.226 1_545 S
O48 Cd44 2.273 . S
O48 Cd46 2.411 . S
O48 C51 1.320 . S
O49 Cd46 2.333 . S
O49 C51 1.214 . S
O50 Cd46 2.352 1_565 S
O50 C53 1.258 . S
C51 O48 1.320 . S
C51 O49 1.214 . S
O52 Cd44 2.277 . S
O52 C47 1.209 . S
C53 O50 1.258 . S
C53 O55 1.282 . S
O54 Cd46 2.277 1_565 S
O54 C47 1.226 1_565 S
O55 Cd46 2.356 1_565 S
O55 C53 1.282 . S
C56 O57 1.306 . S
C56 O59 1.160 . S
O57 C56 1.306 . S
O57 Cd58 2.228 1_556 S
Cd58 O57 2.228 1_554 S
Cd58 O62 2.273 . S
Cd58 O66 2.277 . S
O59 C56 1.160 . S
O59 Cd60 2.203 1_556 S
Cd60 O59 2.203 1_554 S
Cd60 O62 2.411 . S
Cd60 O63 2.333 . S
Cd60 O64 2.352 1_554 S
Cd60 O68 2.277 . S
Cd60 O69 2.356 . S
C61 O66 1.209 . S
C61 O68 1.226 . S
O62 Cd58 2.273 . S
O62 Cd60 2.411 . S
O62 C65 1.320 . S
O63 Cd60 2.333 . S
O63 C65 1.214 . S
O64 Cd60 2.352 1_556 S
O64 C67 1.258 . S
C65 O62 1.320 . S
C65 O63 1.214 . S
O66 Cd58 2.277 . S
O66 C61 1.209 . S
C67 O64 1.258 . S
C67 O69 1.282 1_556 S
O68 Cd60 2.277 . S
O68 C61 1.226 . S
O69 Cd60 2.356 . S
O69 C67 1.282 1_554 S
C70 O71 1.306 . S
C70 O73 1.200 . S
O71 C70 1.306 . S
O71 Cd72 2.228 . S
Cd72 O71 2.228 . S
Cd72 O76 2.273 . S
Cd72 O80 2.277 . S
O73 C70 1.200 . S
O73 Cd74 2.207 . S
Cd74 O73 2.207 . S
Cd74 O76 2.411 . S
Cd74 O77 2.333 . S
Cd74 O78 2.352 1_545 S
Cd74 O82 2.277 1_545 S
Cd74 O83 2.356 1_545 S
C75 O80 1.209 . S
C75 O82 1.226 1_545 S
O76 Cd72 2.273 . S
O76 Cd74 2.411 . S
O76 C79 1.320 . S
O77 Cd74 2.333 . S
O77 C79 1.214 . S
O78 Cd74 2.352 1_565 S
O78 C81 1.258 . S
C79 O76 1.320 . S
C79 O77 1.214 . S
O80 Cd72 2.277 . S
O80 C75 1.209 . S
C81 O78 1.258 . S
C81 O83 1.282 . S
O82 Cd74 2.277 1_565 S
O82 C75 1.226 1_565 S
O83 Cd74 2.356 1_565 S
O83 C81 1.282 . S
C84 O85 1.306 . S
C84 O87 1.160 . S
O85 C84 1.306 . S
O85 Cd86 2.228 . S
Cd86 O85 2.228 . S
Cd86 O90 2.273 . S
Cd86 O94 2.277 . S
O87 C84 1.160 . S
O87 Cd88 2.203 . S
Cd88 O87 2.203 . S
Cd88 O90 2.411 . S
Cd88 O91 2.333 . S
Cd88 O92 2.352 . S
Cd88 O96 2.277 . S
Cd88 O97 2.356 . S
C89 O94 1.209 . S
C89 O96 1.226 . S
O90 Cd86 2.273 . S
O90 Cd88 2.411 . S
O90 C93 1.320 . S
O91 Cd88 2.333 . S
O91 C93 1.214 . S
O92 Cd88 2.352 . S
O92 C95 1.258 . S
C93 O90 1.320 . S
C93 O91 1.214 . S
O94 Cd86 2.277 . S
O94 C89 1.209 . S
C95 O92 1.258 . S
C95 O97 1.282 . S
O96 Cd88 2.277 . S
O96 C89 1.226 . S
O97 Cd88 2.356 . S
O97 C95 1.282 . S
C98 O99 1.306 1_545 S
C98 O101 1.160 . S
O99 C98 1.306 1_565 S
O99 Cd100 2.228 . S
Cd100 O99 2.228 . S
Cd100 O104 2.273 . S
Cd100 O108 2.305 . S
O101 C98 1.160 . S
O101 Cd102 2.203 . S
Cd102 O101 2.203 . S
Cd102 O104 2.411 1_545 S
Cd102 O105 2.333 . S
Cd102 O106 2.352 . S
Cd102 O110 2.277 . S
Cd102 O111 2.356 . S
C103 O108 1.178 1_545 S
C103 O110 1.226 . S
O104 Cd100 2.273 . S
O104 Cd102 2.411 1_565 S
O104 C107 1.320 . S
O105 Cd102 2.333 . S
O105 C107 1.214 1_545 S
O106 Cd102 2.352 . S
O106 C109 1.258 . S
C107 O104 1.320 . S
C107 O105 1.214 1_565 S
O108 Cd100 2.305 . S
O108 C103 1.178 1_565 S
C109 O106 1.258 . S
C109 O111 1.282 . S
O110 Cd102 2.277 . S
O110 C103 1.226 . S
O111 Cd102 2.356 . S
O111 C109 1.282 . S
C112 O113 1.306 . S
C112 O115 1.160 . S
O113 C112 1.306 . S
O113 Cd114 2.228 . S
Cd114 O113 2.228 . S
Cd114 O118 2.273 . S
Cd114 O122 2.277 . S
O115 C112 1.160 . S
O115 Cd116 2.203 . S
Cd116 O115 2.203 . S
Cd116 O118 2.411 . S
Cd116 O119 2.333 . S
Cd116 O120 2.352 . S
Cd116 O124 2.277 . S
Cd116 O125 2.356 . S
C117 O122 1.209 . S
C117 O124 1.226 . S
O118 Cd114 2.273 . S
O118 Cd116 2.411 . S
O118 C121 1.320 . S
O119 Cd116 2.333 . S
O119 C121 1.214 . S
O120 Cd116 2.352 . S
O120 C123 1.258 . S
C121 O118 1.320 . S
C121 O119 1.214 . S
O122 Cd114 2.277 . S
O122 C117 1.209 . S
C123 O120 1.258 . S
C123 O125 1.282 . S
O124 Cd116 2.277 . S
O124 C117 1.226 . S
O125 Cd116 2.356 . S
O125 C123 1.282 . S
C126 O127 1.306 . S
C126 O129 1.160 . S
O127 C126 1.306 . S
O127 Cd128 2.228 . S
Cd128 O127 2.228 . S
Cd128 O132 2.273 . S
Cd128 O136 2.277 . S
O129 C126 1.160 . S
O129 Cd130 2.203 . S
Cd130 O129 2.203 . S
Cd130 O132 2.411 . S
Cd130 O133 2.333 . S
Cd130 O134 2.352 . S
Cd130 O138 2.277 . S
Cd130 O139 2.356 . S
C131 O136 1.209 . S
C131 O138 1.226 . S
O132 Cd128 2.273 . S
O132 Cd130 2.411 . S
O132 C135 1.320 . S
O133 Cd130 2.333 . S
O133 C135 1.214 . S
O134 Cd130 2.352 . S
O134 C137 1.258 . S
C135 O132 1.320 . S
C135 O133 1.214 . S
O136 Cd128 2.277 . S
O136 C131 1.209 . S
C137 O134 1.258 . S
C137 O139 1.282 . S
O138 Cd130 2.277 . S
O138 C131 1.226 . S
O139 Cd130 2.356 . S
O139 C137 1.282 . S
C140 O141 1.306 . S
C140 O143 1.160 . S
O141 C140 1.306 . S
O141 Cd142 2.228 . S
Cd142 O141 2.228 . S
Cd142 O146 2.273 . S
Cd142 O150 2.277 1_554 S
O143 C140 1.160 . S
O143 Cd144 2.203 . S
Cd144 O143 2.203 . S
Cd144 O146 2.411 . S
Cd144 O147 2.333 1_554 S
Cd144 O148 2.352 . S
Cd144 O152 2.277 1_554 S
Cd144 O153 2.356 . S
C145 O150 1.209 . S
C145 O152 1.226 . S
O146 Cd142 2.273 . S
O146 Cd144 2.411 . S
O146 C149 1.320 1_554 S
O147 Cd144 2.333 1_556 S
O147 C149 1.214 . S
O148 Cd144 2.352 . S
O148 C151 1.258 . S
C149 O146 1.320 1_556 S
C149 O147 1.214 . S
O150 Cd142 2.277 1_556 S
O150 C145 1.209 . S
C151 O148 1.258 . S
C151 O153 1.282 . S
O152 Cd144 2.277 1_556 S
O152 C145 1.226 . S
O153 Cd144 2.356 . S
O153 C151 1.282 . S
C154 O155 1.306 . S
C154 O157 1.160 . S
O155 C154 1.306 . S
O155 Cd156 2.228 . S
Cd156 O155 2.228 . S
Cd156 O160 2.273 . S
Cd156 O164 2.277 . S
O157 C154 1.160 . S
O157 Cd158 2.203 . S
Cd158 O157 2.203 . S
Cd158 O160 2.411 . S
Cd158 O161 2.333 . S
Cd158 O162 2.352 . S
Cd158 O166 2.277 . S
Cd158 O167 2.356 . S
C159 O164 1.209 . S
C159 O166 1.226 . S
O160 Cd156 2.273 . S
O160 Cd158 2.411 . S
O160 C163 1.320 . S
O161 Cd158 2.333 . S
O161 C163 1.214 . S
O162 Cd158 2.352 . S
O162 C165 1.258 . S
C163 O160 1.320 . S
C163 O161 1.214 . S
O164 Cd156 2.277 . S
O164 C159 1.209 . S
C165 O162 1.258 . S
C165 O167 1.282 . S
O166 Cd158 2.277 . S
O166 C159 1.226 . S
O167 Cd158 2.356 . S
O167 C165 1.282 . S
C168 O169 1.306 . S
C168 O171 1.160 . S
O169 C168 1.306 . S
O169 Cd170 2.228 . S
Cd170 O169 2.228 . S
Cd170 O174 2.273 . S
Cd170 O178 2.277 . S
O171 C168 1.160 . S
O171 Cd172 2.203 . S
Cd172 O171 2.203 . S
Cd172 O174 2.411 . S
Cd172 O175 2.333 . S
Cd172 O176 2.352 . S
Cd172 O180 2.277 . S
Cd172 O181 2.356 . S
C173 O178 1.209 . S
C173 O180 1.226 . S
O174 Cd170 2.273 . S
O174 Cd172 2.411 . S
O174 C177 1.320 . S
O175 Cd172 2.333 . S
O175 C177 1.214 . S
O176 Cd172 2.352 . S
O176 C179 1.258 . S
C177 O174 1.320 . S
C177 O175 1.214 . S
O178 Cd170 2.277 . S
O178 C173 1.209 . S
C179 O176 1.258 . S
C179 O181 1.282 . S
O180 Cd172 2.277 . S
O180 C173 1.226 . S
O181 Cd172 2.356 . S
O181 C179 1.282 . S
C182 O183 1.306 . S
C182 O185 1.160 . S
O183 C182 1.306 . S
O183 Cd184 2.228 . S
Cd184 O183 2.228 . S
Cd184 O188 2.273 . S
Cd184 O192 2.277 . S
O185 C182 1.160 . S
O185 Cd186 2.203 . S
Cd186 O185 2.203 . S
Cd186 O188 2.411 . S
Cd186 O189 2.333 . S
Cd186 O190 2.352 . S
Cd186 O194 2.277 . S
Cd186 O195 2.356 . S
C187 O192 1.209 . S
C187 O194 1.226 . S
O188 Cd184 2.273 . S
O188 Cd186 2.411 . S
O188 C191 1.320 . S
O189 Cd186 2.333 . S
O189 C191 1.214 . S
O190 Cd186 2.352 . S
O190 C193 1.258 . S
C191 O188 1.320 . S
C191 O189 1.214 . S
O192 Cd184 2.277 . S
O192 C187 1.209 . S
C193 O190 1.258 . S
C193 O195 1.282 . S
O194 Cd186 2.277 . S
O194 C187 1.226 . S
O195 Cd186 2.356 . S
O195 C193 1.282 . S
C196 O197 1.306 . S
C196 O199 1.160 . S
O197 C196 1.306 . S
O197 Cd198 2.228 1_556 S
Cd198 O197 2.228 1_554 S
Cd198 O202 2.273 . S
Cd198 O206 2.277 . S
O199 C196 1.160 . S
O199 Cd200 2.203 1_556 S
Cd200 O199 2.203 1_554 S
Cd200 O202 2.411 . S
Cd200 O203 2.333 . S
Cd200 O204 2.352 1_554 S
Cd200 O208 2.277 . S
Cd200 O209 2.356 . S
C201 O206 1.209 . S
C201 O208 1.226 . S
O202 Cd198 2.273 . S
O202 Cd200 2.411 . S
O202 C205 1.320 . S
O203 Cd200 2.333 . S
O203 C205 1.214 . S
O204 Cd200 2.352 1_556 S
O204 C207 1.258 . S
C205 O202 1.320 . S
C205 O203 1.214 . S
O206 Cd198 2.277 . S
O206 C201 1.209 . S
C207 O204 1.258 . S
C207 O209 1.282 1_556 S
O208 Cd200 2.277 . S
O208 C201 1.226 . S
O209 Cd200 2.356 . S
O209 C207 1.282 1_554 S
C210 O211 1.306 . S
C210 O213 1.160 . S
O211 C210 1.306 . S
O211 Cd212 2.228 . S
Cd212 O211 2.228 . S
Cd212 O216 2.273 . S
Cd212 O220 2.277 . S
O213 C210 1.160 . S
O213 Cd214 2.203 . S
Cd214 O213 2.203 . S
Cd214 O216 2.411 . S
Cd214 O217 2.333 . S
Cd214 O218 2.352 . S
Cd214 O222 2.277 . S
Cd214 O223 2.356 . S
C215 O220 1.209 . S
C215 O222 1.226 . S
O216 Cd212 2.273 . S
O216 Cd214 2.411 . S
O216 C219 1.320 . S
O217 Cd214 2.333 . S
O217 C219 1.214 . S
O218 Cd214 2.352 . S
O218 C221 1.258 . S
C219 O216 1.320 . S
C219 O217 1.214 . S
O220 Cd212 2.277 . S
O220 C215 1.209 . S
C221 O218 1.258 . S
C221 O223 1.282 . S
O222 Cd214 2.277 . S
O222 C215 1.226 . S
O223 Cd214 2.356 . S
O223 C221 1.282 . S
H224 C232 0.950 . S
H225 C237 0.950 . S
H226 C234 0.950 . S
H227 C236 0.950 . S
H228 C238 0.950 . S
H229 C240 0.950 . S
H230 C242 0.950 . S
H231 C243 0.950 . S
C232 H224 0.950 . S
C232 C233 1.386 . S
C232 C234 1.391 . S
C233 C232 1.386 . S
C233 C237 1.393 . S
C234 H226 0.950 . S
C234 C232 1.391 . S
C234 C235 1.400 . S
C235 C234 1.400 . S
C235 C236 1.398 . S
C235 C241 1.491 . S
C236 H227 0.950 . S
C236 C235 1.398 . S
C236 C237 1.391 . S
C237 H225 0.950 . S
C237 C233 1.393 . S
C237 C236 1.391 . S
C238 H228 0.950 . S
C238 C239 1.386 . S
C238 C240 1.391 . S
C239 C238 1.386 . S
C239 C243 1.393 . S
C240 H229 0.950 . S
C240 C238 1.391 . S
C240 C241 1.400 . S
C241 C235 1.491 . S
C241 C240 1.400 . S
C241 C242 1.398 . S
C242 H230 0.950 . S
C242 C241 1.398 . S
C242 C243 1.391 . S
C243 H231 0.950 . S
C243 C239 1.393 . S
C243 C242 1.391 . S
H244 C252 0.950 . S
H245 C257 0.950 . S
H246 C254 0.950 1_455 S
H247 C256 0.950 . S
H248 C258 0.950 . S
H249 C260 0.950 1_655 S
H250 C262 0.950 . S
H251 C263 0.950 . S
C252 H244 0.950 . S
C252 C253 1.386 . S
C252 C254 1.391 . S
C253 C252 1.386 . S
C253 C257 1.393 . S
C254 H246 0.950 1_655 S
C254 C252 1.391 . S
C254 C255 1.400 . S
C255 C254 1.400 . S
C255 C256 1.398 . S
C255 C261 1.491 1_655 S
C256 H247 0.950 . S
C256 C255 1.398 . S
C256 C257 1.391 . S
C257 H245 0.950 . S
C257 C253 1.393 . S
C257 C256 1.391 . S
C258 H248 0.950 . S
C258 C259 1.386 . S
C258 C260 1.391 . S
C259 C258 1.386 . S
C259 C263 1.393 . S
C260 H249 0.950 1_455 S
C260 C258 1.391 . S
C260 C261 1.400 . S
C261 C255 1.491 1_455 S
C261 C260 1.400 . S
C261 C262 1.398 . S
C262 H250 0.950 . S
C262 C261 1.398 . S
C262 C263 1.391 . S
C263 H251 0.950 . S
C263 C259 1.393 . S
C263 C262 1.391 . S
H264 C272 0.950 . S
H265 C277 0.950 . S
H266 C274 0.950 . S
H267 C276 0.950 . S
H268 C278 0.950 . S
H269 C280 0.950 . S
H270 C282 0.950 . S
H271 C283 0.950 . S
C272 H264 0.950 . S
C272 C273 1.386 . S
C272 C274 1.391 . S
C273 C272 1.386 . S
C273 C277 1.393 . S
C274 H266 0.950 . S
C274 C272 1.391 . S
C274 C275 1.400 . S
C275 C274 1.400 . S
C275 C276 1.398 . S
C275 C281 1.491 . S
C276 H267 0.950 . S
C276 C275 1.398 . S
C276 C277 1.391 . S
C277 H265 0.950 . S
C277 C273 1.393 . S
C277 C276 1.391 . S
C278 H268 0.950 . S
C278 C279 1.386 . S
C278 C280 1.391 . S
C279 C278 1.386 . S
C279 C283 1.393 . S
C280 H269 0.950 . S
C280 C278 1.391 . S
C280 C281 1.400 . S
C281 C275 1.491 . S
C281 C280 1.400 . S
C281 C282 1.398 . S
C282 H270 0.950 . S
C282 C281 1.398 . S
C282 C283 1.391 . S
C283 H271 0.950 . S
C283 C279 1.393 . S
C283 C282 1.391 . S
H284 C292 0.950 . S
H285 C297 0.950 . S
H286 C294 0.950 1_556 S
H287 C296 0.950 . S
H288 C298 0.950 . S
H289 C300 0.950 . S
H290 C302 0.950 . S
H291 C303 0.950 . S
C292 H284 0.950 . S
C292 C293 1.386 . S
C292 C294 1.391 . S
C293 C292 1.386 . S
C293 C297 1.393 . S
C294 H286 0.950 1_554 S
C294 C292 1.391 . S
C294 C295 1.400 . S
C295 C294 1.400 . S
C295 C296 1.398 . S
C295 C301 1.491 1_554 S
C296 H287 0.950 . S
C296 C295 1.398 . S
C296 C297 1.391 . S
C297 H285 0.950 . S
C297 C293 1.393 . S
C297 C296 1.391 . S
C298 H288 0.950 . S
C298 C299 1.386 . S
C298 C300 1.391 1_556 S
C299 C298 1.386 . S
C299 C303 1.393 . S
C300 H289 0.950 . S
C300 C298 1.391 1_554 S
C300 C301 1.400 1_554 S
C301 C295 1.491 1_556 S
C301 C300 1.400 1_556 S
C301 C302 1.398 . S
C302 H290 0.950 . S
C302 C301 1.398 . S
C302 C303 1.391 . S
C303 H291 0.950 . S
C303 C299 1.393 . S
C303 C302 1.391 . S
H304 C312 0.950 . S
H305 C317 0.950 . S
H306 C314 0.950 . S
H307 C316 0.950 . S
H308 C318 0.950 . S
H309 C320 0.950 . S
H310 C322 0.950 . S
H311 C323 0.950 . S
C312 H304 0.950 . S
C312 C313 1.386 . S
C312 C314 1.391 . S
C313 C312 1.386 . S
C313 C317 1.393 . S
C314 H306 0.950 . S
C314 C312 1.391 . S
C314 C315 1.400 . S
C315 C314 1.400 . S
C315 C316 1.398 . S
C315 C321 1.491 . S
C316 H307 0.950 . S
C316 C315 1.398 . S
C316 C317 1.391 . S
C317 H305 0.950 . S
C317 C313 1.393 . S
C317 C316 1.391 . S
C318 H308 0.950 . S
C318 C319 1.386 . S
C318 C320 1.391 . S
C319 C318 1.386 . S
C319 C323 1.393 . S
C320 H309 0.950 . S
C320 C318 1.391 . S
C320 C321 1.400 . S
C321 C315 1.491 . S
C321 C320 1.400 . S
C321 C322 1.398 . S
C322 H310 0.950 . S
C322 C321 1.398 . S
C322 C323 1.391 . S
C323 H311 0.950 . S
C323 C319 1.393 . S
C323 C322 1.391 . S
H324 C332 0.960 . S
H325 C337 0.950 . S
H326 C334 0.961 . S
H327 C336 0.950 . S
H328 C338 0.950 . S
H329 C340 0.950 . S
H330 C342 0.950 1_565 S
H331 C343 0.949 . S
C332 H324 0.960 . S
C332 C333 1.386 . S
C332 C334 1.391 . S
C333 C332 1.386 . S
C333 C337 1.393 . S
C334 H326 0.961 . S
C334 C332 1.391 . S
C334 C335 1.400 . S
C335 C334 1.400 . S
C335 C336 1.398 . S
C335 C341 1.491 . S
C336 H327 0.950 . S
C336 C335 1.398 . S
C336 C337 1.391 . S
C337 H325 0.950 . S
C337 C333 1.393 . S
C337 C336 1.391 . S
C338 H328 0.950 . S
C338 C339 1.386 . S
C338 C340 1.391 . S
C339 C338 1.386 . S
C339 C343 1.393 . S
C340 H329 0.950 . S
C340 C338 1.391 . S
C340 C341 1.400 . S
C341 C335 1.491 . S
C341 C340 1.400 . S
C341 C342 1.398 . S
C342 H330 0.950 1_545 S
C342 C341 1.398 . S
C342 C343 1.391 . S
C343 H331 0.949 . S
C343 C339 1.393 . S
C343 C342 1.391 . S
H344 C352 0.950 . S
H345 C357 0.950 . S
H346 C354 0.950 . S
H347 C356 0.950 . S
H348 C358 0.950 . S
H349 C360 0.950 . S
H350 C362 0.950 . S
H351 C363 0.950 . S
C352 H344 0.950 . S
C352 C353 1.386 . S
C352 C354 1.391 . S
C353 C352 1.386 . S
C353 C357 1.393 . S
C354 H346 0.950 . S
C354 C352 1.391 . S
C354 C355 1.400 . S
C355 C354 1.400 . S
C355 C356 1.398 . S
C355 C361 1.491 . S
C356 H347 0.950 . S
C356 C355 1.398 . S
C356 C357 1.391 . S
C357 H345 0.950 . S
C357 C353 1.393 . S
C357 C356 1.391 . S
C358 H348 0.950 . S
C358 C359 1.386 . S
C358 C360 1.391 . S
C359 C358 1.386 . S
C359 C363 1.393 . S
C360 H349 0.950 . S
C360 C358 1.391 . S
C360 C361 1.400 . S
C361 C355 1.491 . S
C361 C360 1.400 . S
C361 C362 1.398 . S
C362 H350 0.950 . S
C362 C361 1.398 . S
C362 C363 1.391 . S
C363 H351 0.950 . S
C363 C359 1.393 . S
C363 C362 1.391 . S
H364 C372 0.950 . S
H365 C377 0.936 1_565 S
H366 C374 0.950 1_554 S
H367 C376 0.942 1_665 S
H368 C378 0.950 . S
H369 C380 0.950 . S
H370 C382 0.950 1_455 S
H371 C383 0.950 . S
C372 H364 0.950 . S
C372 C373 1.386 . S
C372 C374 1.391 . S
C373 C372 1.386 . S
C373 C377 1.406 . S
C374 H366 0.950 1_556 S
C374 C372 1.391 . S
C374 C375 1.400 . S
C375 C374 1.400 . S
C375 C376 1.407 . S
C375 C381 1.491 1_456 S
C376 H367 0.942 1_445 S
C376 C375 1.407 . S
C376 C377 1.391 . S
C377 H365 0.936 1_545 S
C377 C373 1.406 . S
C377 C376 1.391 . S
C378 H368 0.950 . S
C378 C379 1.386 1_565 S
C378 C380 1.391 . S
C379 C378 1.386 1_545 S
C379 C383 1.393 . S
C380 H369 0.950 . S
C380 C378 1.391 . S
C380 C381 1.400 1_565 S
C381 C375 1.491 1_654 S
C381 C380 1.400 1_545 S
C381 C382 1.398 . S
C382 H370 0.950 1_655 S
C382 C381 1.398 . S
C382 C383 1.391 . S
C383 H371 0.950 . S
C383 C379 1.393 . S
C383 C382 1.391 . S
H384 C392 0.950 . S
H385 C397 0.950 . S
H386 C394 0.950 . S
H387 C396 0.950 . S
H388 C398 0.950 . S
H389 C400 0.950 . S
H390 C402 0.950 . S
H391 C403 0.950 . S
C392 H384 0.950 . S
C392 C393 1.386 . S
C392 C394 1.391 . S
C393 C392 1.386 . S
C393 C397 1.393 . S
C394 H386 0.950 . S
C394 C392 1.391 . S
C394 C395 1.400 . S
C395 C394 1.400 . S
C395 C396 1.398 . S
C395 C401 1.491 . S
C396 H387 0.950 . S
C396 C395 1.398 . S
C396 C397 1.391 . S
C397 H385 0.950 . S
C397 C393 1.393 . S
C397 C396 1.391 . S
C398 H388 0.950 . S
C398 C399 1.386 . S
C398 C400 1.391 . S
C399 C398 1.386 . S
C399 C403 1.393 . S
C400 H389 0.950 . S
C400 C398 1.391 . S
C400 C401 1.400 . S
C401 C395 1.491 . S
C401 C400 1.400 . S
C401 C402 1.398 . S
C402 H390 0.950 . S
C402 C401 1.398 . S
C402 C403 1.391 . S
C403 H391 0.950 . S
C403 C399 1.393 . S
C403 C402 1.391 . S
H404 C412 0.950 . S
H405 C417 0.950 . S
H406 C414 0.950 . S
H407 C416 0.950 . S
H408 C418 0.950 . S
H409 C420 0.950 . S
H410 C422 0.950 . S
H411 C423 0.950 . S
C412 H404 0.950 . S
C412 C413 1.386 . S
C412 C414 1.391 . S
C413 C412 1.386 . S
C413 C417 1.393 . S
C414 H406 0.950 . S
C414 C412 1.391 . S
C414 C415 1.400 . S
C415 C414 1.400 . S
C415 C416 1.398 . S
C415 C421 1.491 . S
C416 H407 0.950 . S
C416 C415 1.398 . S
C416 C417 1.391 . S
C417 H405 0.950 . S
C417 C413 1.393 . S
C417 C416 1.391 . S
C418 H408 0.950 . S
C418 C419 1.386 . S
C418 C420 1.391 . S
C419 C418 1.386 . S
C419 C423 1.393 . S
C420 H409 0.950 . S
C420 C418 1.391 . S
C420 C421 1.400 . S
C421 C415 1.491 . S
C421 C420 1.400 . S
C421 C422 1.398 . S
C422 H410 0.950 . S
C422 C421 1.398 . S
C422 C423 1.391 . S
C423 H411 0.950 . S
C423 C419 1.393 . S
C423 C422 1.391 . S
H424 C432 0.950 . S
H425 C437 0.950 . S
H426 C434 0.950 . S
H427 C436 0.950 . S
H428 C438 0.950 . S
H429 C440 0.950 . S
H430 C442 0.950 . S
H431 C443 0.950 . S
C432 H424 0.950 . S
C432 C433 1.386 . S
C432 C434 1.391 . S
C433 C432 1.386 . S
C433 C437 1.393 . S
C434 H426 0.950 . S
C434 C432 1.391 . S
C434 C435 1.400 . S
C435 C434 1.400 . S
C435 C436 1.398 . S
C435 C441 1.491 . S
C436 H427 0.950 . S
C436 C435 1.398 . S
C436 C437 1.391 . S
C437 H425 0.950 . S
C437 C433 1.393 . S
C437 C436 1.391 . S
C438 H428 0.950 . S
C438 C439 1.386 . S
C438 C440 1.391 . S
C439 C438 1.386 . S
C439 C443 1.393 . S
C440 H429 0.950 . S
C440 C438 1.391 . S
C440 C441 1.400 . S
C441 C435 1.491 . S
C441 C440 1.400 . S
C441 C442 1.398 . S
C442 H430 0.950 . S
C442 C441 1.398 . S
C442 C443 1.391 . S
C443 H431 0.950 . S
C443 C439 1.393 . S
C443 C442 1.391 . S
H444 C452 0.950 . S
H445 C457 0.950 . S
H446 C454 0.950 . S
H447 C456 0.950 . S
H448 C458 0.950 . S
H449 C460 0.950 . S
H450 C462 0.950 . S
H451 C463 0.950 . S
C452 H444 0.950 . S
C452 C453 1.386 . S
C452 C454 1.391 . S
C453 C452 1.386 . S
C453 C457 1.393 . S
C454 H446 0.950 . S
C454 C452 1.391 . S
C454 C455 1.400 . S
C455 C454 1.400 . S
C455 C456 1.398 . S
C455 C461 1.491 . S
C456 H447 0.950 . S
C456 C455 1.398 . S
C456 C457 1.391 . S
C457 H445 0.950 . S
C457 C453 1.393 . S
C457 C456 1.391 . S
C458 H448 0.950 . S
C458 C459 1.386 . S
C458 C460 1.391 . S
C459 C458 1.386 . S
C459 C463 1.393 . S
C460 H449 0.950 . S
C460 C458 1.391 . S
C460 C461 1.400 . S
C461 C455 1.491 . S
C461 C460 1.400 . S
C461 C462 1.398 . S
C462 H450 0.950 . S
C462 C461 1.398 . S
C462 C463 1.391 . S
C463 H451 0.950 . S
C463 C459 1.393 . S
C463 C462 1.391 . S
H464 C472 0.950 . S
H465 C477 0.950 . S
H466 C474 0.950 . S
H467 C476 0.950 . S
H468 C478 0.950 . S
H469 C480 0.950 . S
H470 C482 0.950 . S
H471 C483 0.950 . S
C472 H464 0.950 . S
C472 C473 1.386 . S
C472 C474 1.391 . S
C473 C472 1.386 . S
C473 C477 1.393 . S
C474 H466 0.950 . S
C474 C472 1.391 . S
C474 C475 1.400 . S
C475 C474 1.400 . S
C475 C476 1.398 . S
C475 C481 1.491 1_554 S
C476 H467 0.950 . S
C476 C475 1.398 . S
C476 C477 1.391 . S
C477 H465 0.950 . S
C477 C473 1.393 . S
C477 C476 1.391 . S
C478 H468 0.950 . S
C478 C479 1.386 . S
C478 C480 1.391 . S
C479 C478 1.386 . S
C479 C483 1.393 . S
C480 H469 0.950 . S
C480 C478 1.391 . S
C480 C481 1.400 . S
C481 C475 1.491 1_556 S
C481 C480 1.400 . S
C481 C482 1.398 . S
C482 H470 0.950 . S
C482 C481 1.398 . S
C482 C483 1.391 . S
C483 H471 0.950 . S
C483 C479 1.393 . S
C483 C482 1.391 . S
H484 C492 0.950 . S
H485 C497 0.950 . S
H486 C494 0.950 1_655 S
H487 C496 0.950 . S
H488 C498 0.950 . S
H489 C500 0.950 1_455 S
H490 C502 0.950 . S
H491 C503 0.950 . S
C492 H484 0.950 . S
C492 C493 1.386 . S
C492 C494 1.391 . S
C493 C492 1.386 . S
C493 C497 1.393 . S
C494 H486 0.950 1_455 S
C494 C492 1.391 . S
C494 C495 1.400 . S
C495 C494 1.400 . S
C495 C496 1.398 . S
C495 C501 1.491 1_455 S
C496 H487 0.950 . S
C496 C495 1.398 . S
C496 C497 1.391 . S
C497 H485 0.950 . S
C497 C493 1.393 . S
C497 C496 1.391 . S
C498 H488 0.950 . S
C498 C499 1.386 . S
C498 C500 1.391 . S
C499 C498 1.386 . S
C499 C503 1.393 . S
C500 H489 0.950 1_655 S
C500 C498 1.391 . S
C500 C501 1.400 . S
C501 C495 1.491 1_655 S
C501 C500 1.400 . S
C501 C502 1.398 . S
C502 H490 0.950 . S
C502 C501 1.398 . S
C502 C503 1.391 . S
C503 H491 0.950 . S
C503 C499 1.393 . S
C503 C502 1.391 . S
H504 C512 0.950 . S
H505 C517 0.950 . S
H506 C514 0.950 . S
H507 C516 0.950 . S
H508 C518 0.950 . S
H509 C520 0.950 . S
H510 C522 0.950 . S
H511 C523 0.950 . S
C512 H504 0.950 . S
C512 C513 1.386 . S
C512 C514 1.391 . S
C513 C512 1.386 . S
C513 C517 1.393 . S
C514 H506 0.950 . S
C514 C512 1.391 . S
C514 C515 1.400 . S
C515 C514 1.400 . S
C515 C516 1.398 . S
C515 C521 1.491 1_454 S
C516 H507 0.950 . S
C516 C515 1.398 . S
C516 C517 1.391 . S
C517 H505 0.950 . S
C517 C513 1.393 . S
C517 C516 1.391 . S
C518 H508 0.950 . S
C518 C519 1.386 . S
C518 C520 1.391 . S
C519 C518 1.386 . S
C519 C523 1.393 . S
C520 H509 0.950 . S
C520 C518 1.391 . S
C520 C521 1.400 . S
C521 C515 1.491 1_656 S
C521 C520 1.400 . S
C521 C522 1.398 . S
C522 H510 0.950 . S
C522 C521 1.398 . S
C522 C523 1.391 . S
C523 H511 0.950 . S
C523 C519 1.393 . S
C523 C522 1.391 . S
H524 C532 0.950 . S
H525 C537 0.950 . S
H526 C534 0.950 . S
H527 C536 0.950 . S
H528 C538 0.950 . S
H529 C540 0.950 . S
H530 C542 0.950 . S
H531 C543 0.950 . S
C532 H524 0.950 . S
C532 C533 1.386 . S
C532 C534 1.391 . S
C533 C532 1.386 . S
C533 C537 1.393 . S
C534 H526 0.950 . S
C534 C532 1.391 . S
C534 C535 1.400 . S
C535 C534 1.400 . S
C535 C536 1.398 . S
C535 C541 1.491 . S
C536 H527 0.950 . S
C536 C535 1.398 . S
C536 C537 1.391 . S
C537 H525 0.950 . S
C537 C533 1.393 . S
C537 C536 1.391 . S
C538 H528 0.950 . S
C538 C539 1.386 . S
C538 C540 1.391 . S
C539 C538 1.386 . S
C539 C543 1.393 . S
C540 H529 0.950 . S
C540 C538 1.391 . S
C540 C541 1.400 . S
C541 C535 1.491 . S
C541 C540 1.400 . S
C541 C542 1.398 . S
C542 H530 0.950 . S
C542 C541 1.398 . S
C542 C543 1.391 . S
C543 H531 0.950 . S
C543 C539 1.393 . S
C543 C542 1.391 . S
H544 C552 0.950 . S
H545 C557 0.950 . S
H546 C554 0.950 . S
H547 C556 0.950 . S
H548 C558 0.950 . S
H549 C560 0.950 . S
H550 C562 0.950 . S
H551 C563 0.950 . S
C552 H544 0.950 . S
C552 C553 1.386 . S
C552 C554 1.391 . S
C553 C552 1.386 . S
C553 C557 1.393 . S
C554 H546 0.950 . S
C554 C552 1.391 . S
C554 C555 1.400 . S
C555 C554 1.400 . S
C555 C556 1.398 . S
C555 C561 1.491 . S
C556 H547 0.950 . S
C556 C555 1.398 . S
C556 C557 1.391 . S
C557 H545 0.950 . S
C557 C553 1.393 . S
C557 C556 1.391 . S
C558 H548 0.950 . S
C558 C559 1.386 . S
C558 C560 1.391 . S
C559 C558 1.386 . S
C559 C563 1.393 . S
C560 H549 0.950 . S
C560 C558 1.391 . S
C560 C561 1.400 . S
C561 C555 1.491 . S
C561 C560 1.400 . S
C561 C562 1.398 . S
C562 H550 0.950 . S
C562 C561 1.398 . S
C562 C563 1.391 . S
C563 H551 0.950 . S
C563 C559 1.393 . S
C563 C562 1.391 . S
H564 C572 0.950 . S
H565 C577 0.950 . S
H566 C574 0.950 . S
H567 C576 0.950 . S
H568 C578 0.950 . S
H569 C580 0.950 . S
H570 C582 0.950 . S
H571 C583 0.950 . S
C572 H564 0.950 . S
C572 C573 1.386 . S
C572 C574 1.391 . S
C573 C572 1.386 . S
C573 C577 1.393 . S
C574 H566 0.950 . S
C574 C572 1.391 . S
C574 C575 1.400 . S
C575 C574 1.400 . S
C575 C576 1.398 . S
C575 C581 1.491 . S
C576 H567 0.950 . S
C576 C575 1.398 . S
C576 C577 1.391 . S
C577 H565 0.950 . S
C577 C573 1.393 . S
C577 C576 1.391 . S
C578 H568 0.950 . S
C578 C579 1.386 . S
C578 C580 1.391 . S
C579 C578 1.386 . S
C579 C583 1.393 . S
C580 H569 0.950 . S
C580 C578 1.391 . S
C580 C581 1.400 . S
C581 C575 1.491 . S
C581 C580 1.400 . S
C581 C582 1.398 . S
C582 H570 0.950 . S
C582 C581 1.398 . S
C582 C583 1.391 . S
C583 H571 0.950 . S
C583 C579 1.393 . S
C583 C582 1.391 . S
H584 C592 0.950 . S
H585 C597 0.950 . S
H586 C594 0.950 . S
H587 C596 0.950 . S
H588 C598 0.950 . S
H589 C600 0.950 . S
H590 C602 0.950 . S
H591 C603 0.950 . S
C592 H584 0.950 . S
C592 C593 1.386 . S
C592 C594 1.391 . S
C593 C592 1.386 . S
C593 C597 1.393 . S
C594 H586 0.950 . S
C594 C592 1.391 . S
C594 C595 1.400 . S
C595 C594 1.400 . S
C595 C596 1.398 . S
C595 C601 1.491 . S
C596 H587 0.950 . S
C596 C595 1.398 . S
C596 C597 1.391 . S
C597 H585 0.950 . S
C597 C593 1.393 . S
C597 C596 1.391 . S
C598 H588 0.950 . S
C598 C599 1.386 . S
C598 C600 1.391 . S
C599 C598 1.386 . S
C599 C603 1.393 . S
C600 H589 0.950 . S
C600 C598 1.391 . S
C600 C601 1.400 . S
C601 C595 1.491 . S
C601 C600 1.400 . S
C601 C602 1.398 . S
C602 H590 0.950 . S
C602 C601 1.398 . S
C602 C603 1.391 . S
C603 H591 0.950 . S
C603 C599 1.393 . S
C603 C602 1.391 . S
H604 C612 0.950 1_554 S
H605 C617 0.950 . S
H606 C614 0.950 . S
H607 C616 0.950 . S
H608 C618 0.950 . S
H609 C620 0.950 . S
H610 C622 0.950 . S
H611 C623 0.950 . S
C612 H604 0.950 1_556 S
C612 C613 1.386 . S
C612 C614 1.391 . S
C613 C612 1.386 . S
C613 C617 1.393 . S
C614 H606 0.950 . S
C614 C612 1.391 . S
C614 C615 1.400 . S
C615 C614 1.400 . S
C615 C616 1.398 . S
C615 C621 1.491 . S
C616 H607 0.950 . S
C616 C615 1.398 . S
C616 C617 1.391 . S
C617 H605 0.950 . S
C617 C613 1.393 . S
C617 C616 1.391 . S
C618 H608 0.950 . S
C618 C619 1.386 . S
C618 C620 1.391 . S
C619 C618 1.386 . S
C619 C623 1.393 . S
C620 H609 0.950 . S
C620 C618 1.391 . S
C620 C621 1.400 . S
C621 C615 1.491 . S
C621 C620 1.400 . S
C621 C622 1.398 . S
C622 H610 0.950 . S
C622 C621 1.398 . S
C622 C623 1.391 . S
C623 H611 0.950 . S
C623 C619 1.393 . S
C623 C622 1.391 . S
H624 C632 0.950 . S
H625 C637 0.950 . S
H626 C634 0.950 . S
H627 C636 0.950 . S
H628 C638 0.950 . S
H629 C640 0.950 . S
H630 C642 0.950 . S
H631 C643 0.950 . S
C632 H624 0.950 . S
C632 C633 1.386 . S
C632 C634 1.391 . S
C633 C632 1.386 . S
C633 C637 1.393 . S
C634 H626 0.950 . S
C634 C632 1.391 . S
C634 C635 1.400 . S
C635 C634 1.400 . S
C635 C636 1.398 . S
C635 C641 1.491 . S
C636 H627 0.950 . S
C636 C635 1.398 . S
C636 C637 1.391 . S
C637 H625 0.950 . S
C637 C633 1.393 . S
C637 C636 1.391 . S
C638 H628 0.950 . S
C638 C639 1.386 . S
C638 C640 1.391 . S
C639 C638 1.386 . S
C639 C643 1.393 . S
C640 H629 0.950 . S
C640 C638 1.391 . S
C640 C641 1.400 . S
C641 C635 1.491 . S
C641 C640 1.400 . S
C641 C642 1.398 . S
C642 H630 0.950 . S
C642 C641 1.398 . S
C642 C643 1.391 . S
C643 H631 0.950 . S
C643 C639 1.393 . S
C643 C642 1.391 . S
H644 C652 0.950 . S
H645 C657 0.950 . S
H646 C654 0.950 . S
H647 C656 0.950 . S
H648 C658 0.950 . S
H649 C660 0.950 . S
H650 C662 0.950 . S
H651 C663 0.950 . S
C652 H644 0.950 . S
C652 C653 1.386 . S
C652 C654 1.391 . S
C653 C652 1.386 . S
C653 C657 1.393 . S
C654 H646 0.950 . S
C654 C652 1.391 . S
C654 C655 1.400 . S
C655 C654 1.400 . S
C655 C656 1.398 . S
C655 C661 1.491 . S
C656 H647 0.950 . S
C656 C655 1.398 . S
C656 C657 1.391 . S
C657 H645 0.950 . S
C657 C653 1.393 . S
C657 C656 1.391 . S
C658 H648 0.950 . S
C658 C659 1.386 . S
C658 C660 1.391 . S
C659 C658 1.386 . S
C659 C663 1.393 . S
C660 H649 0.950 . S
C660 C658 1.391 . S
C660 C661 1.400 . S
C661 C655 1.491 . S
C661 C660 1.400 . S
C661 C662 1.398 . S
C662 H650 0.950 . S
C662 C661 1.398 . S
C662 C663 1.391 . S
C663 H651 0.950 . S
C663 C659 1.393 . S
C663 C662 1.391 . S
H664 C672 0.950 . S
H665 C677 0.950 . S
H666 C674 0.950 . S
H667 C676 0.950 . S
H668 C678 0.950 . S
H669 C680 0.950 . S
H670 C682 0.950 . S
H671 C683 0.950 . S
C672 H664 0.950 . S
C672 C673 1.386 . S
C672 C674 1.391 . S
C673 C672 1.386 . S
C673 C677 1.393 . S
C674 H666 0.950 . S
C674 C672 1.391 . S
C674 C675 1.400 . S
C675 C674 1.400 . S
C675 C676 1.398 . S
C675 C681 1.491 . S
C676 H667 0.950 . S
C676 C675 1.398 . S
C676 C677 1.391 . S
C677 H665 0.950 . S
C677 C673 1.393 . S
C677 C676 1.391 . S
C678 H668 0.950 . S
C678 C679 1.386 . S
C678 C680 1.391 . S
C679 C678 1.386 . S
C679 C683 1.393 . S
C680 H669 0.950 . S
C680 C678 1.391 . S
C680 C681 1.400 . S
C681 C675 1.491 . S
C681 C680 1.400 . S
C681 C682 1.398 . S
C682 H670 0.950 . S
C682 C681 1.398 . S
C682 C683 1.391 . S
C683 H671 0.950 . S
C683 C679 1.393 . S
C683 C682 1.391 . S
H684 C692 0.950 . S
H685 C697 0.950 . S
H686 C694 0.950 . S
H687 C696 0.950 . S
H688 C698 0.950 . S
H689 C700 0.950 . S
H690 C702 0.950 . S
H691 C703 0.950 . S
C692 H684 0.950 . S
C692 C693 1.386 . S
C692 C694 1.391 . S
C693 C692 1.386 . S
C693 C697 1.393 . S
C694 H686 0.950 . S
C694 C692 1.391 . S
C694 C695 1.400 . S
C695 C694 1.400 . S
C695 C696 1.398 . S
C695 C701 1.491 . S
C696 H687 0.950 . S
C696 C695 1.398 . S
C696 C697 1.391 . S
C697 H685 0.950 . S
C697 C693 1.393 . S
C697 C696 1.391 . S
C698 H688 0.950 . S
C698 C699 1.386 . S
C698 C700 1.391 . S
C699 C698 1.386 . S
C699 C703 1.393 . S
C700 H689 0.950 . S
C700 C698 1.391 . S
C700 C701 1.400 . S
C701 C695 1.491 . S
C701 C700 1.400 . S
C701 C702 1.398 . S
C702 H690 0.950 . S
C702 C701 1.398 . S
C702 C703 1.391 . S
C703 H691 0.950 . S
C703 C699 1.393 . S
C703 C702 1.391 . S
H704 C712 0.950 . S
H705 C717 0.950 . S
H706 C714 0.950 . S
H707 C716 0.950 . S
H708 C718 0.950 . S
H709 C720 0.950 . S
H710 C722 0.950 . S
H711 C723 0.950 . S
C712 H704 0.950 . S
C712 C713 1.386 . S
C712 C714 1.391 . S
C713 C712 1.386 . S
C713 C717 1.393 . S
C714 H706 0.950 . S
C714 C712 1.391 . S
C714 C715 1.400 . S
C715 C714 1.400 . S
C715 C716 1.398 . S
C715 C721 1.491 . S
C716 H707 0.950 . S
C716 C715 1.398 . S
C716 C717 1.391 . S
C717 H705 0.950 . S
C717 C713 1.393 . S
C717 C716 1.391 . S
C718 H708 0.950 . S
C718 C719 1.386 . S
C718 C720 1.391 . S
C719 C718 1.386 . S
C719 C723 1.393 . S
C720 H709 0.950 . S
C720 C718 1.391 . S
C720 C721 1.400 . S
C721 C715 1.491 . S
C721 C720 1.400 . S
C721 C722 1.398 . S
C722 H710 0.950 . S
C722 C721 1.398 . S
C722 C723 1.391 . S
C723 H711 0.950 . S
C723 C719 1.393 . S
C723 C722 1.391 . S
H724 C732 0.950 . S
H725 C737 0.950 . S
H726 C734 0.950 . S
H727 C736 0.950 . S
H728 C738 0.950 . S
H729 C740 0.950 . S
H730 C742 0.950 . S
H731 C743 0.950 . S
C732 H724 0.950 . S
C732 C733 1.386 . S
C732 C734 1.391 . S
C733 C732 1.386 . S
C733 C737 1.393 . S
C734 H726 0.950 . S
C734 C732 1.391 . S
C734 C735 1.400 . S
C735 C734 1.400 . S
C735 C736 1.398 . S
C735 C741 1.491 . S
C736 H727 0.950 . S
C736 C735 1.398 . S
C736 C737 1.391 . S
C737 H725 0.950 . S
C737 C733 1.393 . S
C737 C736 1.391 . S
C738 H728 0.950 . S
C738 C739 1.386 . S
C738 C740 1.391 . S
C739 C738 1.386 . S
C739 C743 1.393 . S
C740 H729 0.950 . S
C740 C738 1.391 . S
C740 C741 1.400 . S
C741 C735 1.491 . S
C741 C740 1.400 . S
C741 C742 1.398 . S
C742 H730 0.950 . S
C742 C741 1.398 . S
C742 C743 1.391 . S
C743 H731 0.950 . S
C743 C739 1.393 . S
C743 C742 1.391 . S
H744 C752 0.950 . S
H745 C757 0.950 . S
H746 C754 0.950 . S
H747 C756 0.950 . S
H748 C758 0.950 . S
H749 C760 0.950 . S
H750 C762 0.950 . S
H751 C763 0.950 . S
C752 H744 0.950 . S
C752 C753 1.386 . S
C752 C754 1.391 . S
C753 C752 1.386 . S
C753 C757 1.393 . S
C754 H746 0.950 . S
C754 C752 1.391 . S
C754 C755 1.400 . S
C755 C754 1.400 . S
C755 C756 1.398 . S
C755 C761 1.491 . S
C756 H747 0.950 . S
C756 C755 1.398 . S
C756 C757 1.391 . S
C757 H745 0.950 . S
C757 C753 1.393 . S
C757 C756 1.391 . S
C758 H748 0.950 . S
C758 C759 1.386 . S
C758 C760 1.391 . S
C759 C758 1.386 . S
C759 C763 1.393 . S
C760 H749 0.950 . S
C760 C758 1.391 . S
C760 C761 1.400 . S
C761 C755 1.491 . S
C761 C760 1.400 . S
C761 C762 1.398 . S
C762 H750 0.950 . S
C762 C761 1.398 . S
C762 C763 1.391 . S
C763 H751 0.950 . S
C763 C759 1.393 . S
C763 C762 1.391 . S
H764 C772 0.950 . S
H765 C777 0.950 . S
H766 C774 0.950 . S
H767 C776 0.950 . S
H768 C778 0.950 . S
H769 C780 0.950 . S
H770 C782 0.950 . S
H771 C783 0.950 . S
C772 H764 0.950 . S
C772 C773 1.386 . S
C772 C774 1.391 . S
C773 C772 1.386 . S
C773 C777 1.393 . S
C774 H766 0.950 . S
C774 C772 1.391 . S
C774 C775 1.400 . S
C775 C774 1.400 . S
C775 C776 1.398 . S
C775 C781 1.491 . S
C776 H767 0.950 . S
C776 C775 1.398 . S
C776 C777 1.391 . S
C777 H765 0.950 . S
C777 C773 1.393 . S
C777 C776 1.391 . S
C778 H768 0.950 . S
C778 C779 1.386 . S
C778 C780 1.391 . S
C779 C778 1.386 . S
C779 C783 1.393 . S
C780 H769 0.950 . S
C780 C778 1.391 . S
C780 C781 1.400 . S
C781 C775 1.491 . S
C781 C780 1.400 . S
C781 C782 1.398 . S
C782 H770 0.950 . S
C782 C781 1.398 . S
C782 C783 1.391 . S
C783 H771 0.950 . S
C783 C779 1.393 . S
C783 C782 1.391 . S
H784 C792 0.950 . S
H785 C797 0.950 . S
H786 C794 0.950 . S
H787 C796 0.950 . S
H788 C798 0.950 . S
H789 C800 0.950 . S
H790 C802 0.950 . S
H791 C803 0.950 . S
C792 H784 0.950 . S
C792 C793 1.386 . S
C792 C794 1.391 . S
C793 C792 1.386 . S
C793 C797 1.393 . S
C794 H786 0.950 . S
C794 C792 1.391 . S
C794 C795 1.400 . S
C795 C794 1.400 . S
C795 C796 1.398 . S
C795 C801 1.491 . S
C796 H787 0.950 . S
C796 C795 1.398 . S
C796 C797 1.391 . S
C797 H785 0.950 . S
C797 C793 1.393 . S
C797 C796 1.391 . S
C798 H788 0.950 . S
C798 C799 1.386 . S
C798 C800 1.391 . S
C799 C798 1.386 . S
C799 C803 1.393 . S
C800 H789 0.950 . S
C800 C798 1.391 . S
C800 C801 1.400 . S
C801 C795 1.491 . S
C801 C800 1.400 . S
C801 C802 1.398 . S
C802 H790 0.950 . S
C802 C801 1.398 . S
C802 C803 1.391 . S
C803 H791 0.950 . S
C803 C799 1.393 . S
C803 C802 1.391 . S
H804 C812 0.950 . S
H805 C817 0.950 . S
H806 C814 0.950 . S
H807 C816 0.950 . S
H808 C818 0.950 . S
H809 C820 0.950 . S
H810 C822 0.950 . S
H811 C823 0.950 . S
C812 H804 0.950 . S
C812 C813 1.386 . S
C812 C814 1.391 . S
C813 C812 1.386 . S
C813 C817 1.393 . S
C814 H806 0.950 . S
C814 C812 1.391 . S
C814 C815 1.400 . S
C815 C814 1.400 . S
C815 C816 1.398 . S
C815 C821 1.491 . S
C816 H807 0.950 . S
C816 C815 1.398 . S
C816 C817 1.391 . S
C817 H805 0.950 . S
C817 C813 1.393 . S
C817 C816 1.391 . S
C818 H808 0.950 . S
C818 C819 1.386 . S
C818 C820 1.391 . S
C819 C818 1.386 . S
C819 C823 1.393 . S
C820 H809 0.950 . S
C820 C818 1.391 . S
C820 C821 1.400 . S
C821 C815 1.491 . S
C821 C820 1.400 . S
C821 C822 1.398 . S
C822 H810 0.950 . S
C822 C821 1.398 . S
C822 C823 1.391 . S
C823 H811 0.950 . S
C823 C819 1.393 . S
C823 C822 1.391 . S
H824 C832 0.950 . S
H825 C837 0.950 . S
H826 C834 0.950 . S
H827 C836 0.950 . S
H828 C838 0.950 . S
H829 C840 0.950 . S
H830 C842 0.950 . S
H831 C843 0.950 . S
C832 H824 0.950 . S
C832 C833 1.386 . S
C832 C834 1.391 . S
C833 C832 1.386 . S
C833 C837 1.393 . S
C834 H826 0.950 . S
C834 C832 1.391 . S
C834 C835 1.400 . S
C835 C834 1.400 . S
C835 C836 1.398 . S
C835 C841 1.491 . S
C836 H827 0.950 . S
C836 C835 1.398 . S
C836 C837 1.391 . S
C837 H825 0.950 . S
C837 C833 1.393 . S
C837 C836 1.391 . S
C838 H828 0.950 . S
C838 C839 1.386 . S
C838 C840 1.391 . S
C839 C838 1.386 . S
C839 C843 1.393 . S
C840 H829 0.950 . S
C840 C838 1.391 . S
C840 C841 1.400 . S
C841 C835 1.491 . S
C841 C840 1.400 . S
C841 C842 1.398 . S
C842 H830 0.950 . S
C842 C841 1.398 . S
C842 C843 1.391 . S
C843 H831 0.950 . S
C843 C839 1.393 . S
C843 C842 1.391 . S
H844 C852 0.950 . S
H845 C857 0.950 . S
H846 C854 0.950 . S
H847 C856 0.950 . S
H848 C858 0.950 . S
H849 C860 0.950 . S
H850 C862 0.950 . S
H851 C863 0.950 . S
C852 H844 0.950 . S
C852 C853 1.386 . S
C852 C854 1.391 . S
C853 C852 1.386 . S
C853 C857 1.393 . S
C854 H846 0.950 . S
C854 C852 1.391 . S
C854 C855 1.400 . S
C855 C854 1.400 . S
C855 C856 1.398 . S
C855 C861 1.491 . S
C856 H847 0.950 . S
C856 C855 1.398 . S
C856 C857 1.391 . S
C857 H845 0.950 . S
C857 C853 1.393 . S
C857 C856 1.391 . S
C858 H848 0.950 . S
C858 C859 1.386 . S
C858 C860 1.391 . S
C859 C858 1.386 . S
C859 C863 1.393 . S
C860 H849 0.950 . S
C860 C858 1.391 . S
C860 C861 1.400 . S
C861 C855 1.491 . S
C861 C860 1.400 . S
C861 C862 1.398 . S
C862 H850 0.950 . S
C862 C861 1.398 . S
C862 C863 1.391 . S
C863 H851 0.950 . S
C863 C859 1.393 . S
C863 C862 1.391 . S
C233 C0 1.423 . S
C239 C168 1.423 . S
C253 C19 1.400 . S
C259 C75 1.400 . S
C273 C28 1.416 . S
C279 C196 1.416 . S
C293 C103 1.400 . S
C299 C47 1.400 . S
C313 C201 1.397 . S
C319 C33 1.397 . S
C333 C98 1.421 . S
C339 C42 1.421 . S
C353 C173 1.396 . S
C359 C5 1.396 . S
C373 C70 1.416 . S
C379 C14 1.416 . S
C393 C56 1.423 . S
C399 C112 1.423 . S
C413 C84 1.422 . S
C419 C140 1.422 . S
C433 C145 1.400 . S
C439 C89 1.400 . S
C453 C61 1.395 . S
C459 C117 1.395 . S
C473 C187 1.396 . S
C479 C131 1.396 . S
C493 C159 1.400 . S
C499 C215 1.400 . S
C513 C154 1.423 . S
C519 C210 1.423 . S
C533 C126 1.423 . S
C539 C182 1.423 . S
C553 C165 1.481 . S
C559 C11 1.480 . S
C573 C121 1.481 . S
C579 C23 1.474 . S
C593 C39 1.482 . S
C599 C137 1.483 . S
C613 C149 1.481 . S
C619 C51 1.472 . S
C633 C163 1.481 . S
C639 C37 1.473 . S
C653 C53 1.482 . S
C659 C123 1.483 . S
C673 C135 1.471 . S
C679 C9 1.477 . S
C693 C151 1.482 . S
C699 C25 1.481 . S
C713 C67 1.480 . S
C719 C221 1.480 . S
C733 C177 1.472 . S
C739 C79 1.475 . S
C753 C95 1.482 . S
C759 C193 1.481 . S
C773 C107 1.471 . S
C779 C205 1.478 . S
C793 C93 1.471 . S
C799 C219 1.480 . S
C813 C179 1.481 . S
C819 C109 1.482 . S
C833 C191 1.473 . S
C839 C65 1.481 . S
C853 C207 1.483 . S
C859 C81 1.482 . S
