# Generated by pormake.
# Topology rob, (6)-cn, num edge types: 1
# Building blocks:
#     Node 0, Type 0, BuildingBlock: KUMBOL_clean_sbu_0, # of connection points: 6
#     Node 1, Type 0, BuildingBlock: KUMBOL_clean_sbu_0, # of connection points: 6
#     Node 2, Type 0, BuildingBlock: KUMBOL_clean_sbu_0, # of connection points: 6
#     Node 3, Type 0, BuildingBlock: KUMBOL_clean_sbu_0, # of connection points: 6
#     Edge 4, Type (0, 0), BuildingBlock: OJICUG_clean_linker_0, # of connection points: 2
#     Edge 5, Type (0, 0), BuildingBlock: OJICUG_clean_linker_0, # of connection points: 2
#     Edge 6, Type (0, 0), BuildingBlock: OJICUG_clean_linker_0, # of connection points: 2
#     Edge 7, Type (0, 0), BuildingBlock: OJICUG_clean_linker_0, # of connection points: 2
#     Edge 8, Type (0, 0), BuildingBlock: OJICUG_clean_linker_0, # of connection points: 2
#     Edge 9, Type (0, 0), BuildingBlock: OJICUG_clean_linker_0, # of connection points: 2
#     Edge 10, Type (0, 0), BuildingBlock: OJICUG_clean_linker_0, # of connection points: 2
#     Edge 11, Type (0, 0), BuildingBlock: OJICUG_clean_linker_0, # of connection points: 2
#     Edge 12, Type (0, 0), BuildingBlock: OJICUG_clean_linker_0, # of connection points: 2
#     Edge 13, Type (0, 0), BuildingBlock: OJICUG_clean_linker_0, # of connection points: 2
#     Edge 14, Type (0, 0), BuildingBlock: OJICUG_clean_linker_0, # of connection points: 2
#     Edge 15, Type (0, 0), BuildingBlock: OJICUG_clean_linker_0, # of connection points: 2
# Relax obj value: 0.040
# Max RMSD: 0.176
# Mean RMSD: 0.176
data_MOF--net-rob--node1-KUMBOL_clean_sbu_0--edge1-OJICUG_clean_linker_0
_symmetry_space_group_name_H-M    P1
_symmetry_Int_Tables_number       1
_symmetry_cell_setting            triclinic
loop_
_symmetry_equiv_pos_as_xyz
'x, y, z'
_cell_length_a     12.739811
_cell_length_b     18.956222
_cell_length_c     26.407785
_cell_angle_alpha  117.83776
_cell_angle_beta   89.396658
_cell_angle_gamma 89.689905
loop_
_atom_site_label
_atom_site_type_symbol
_atom_site_fract_x
_atom_site_fract_y
_atom_site_fract_z
_atom_type_partial_charge
Gd0 Gd 0.32867 0.16498 0.95841 0.0
Gd1 Gd 0.17584 0.31063 0.07549 0.0
C2 C 0.88506 0.44455 0.06771 0.0
C3 C 0.93622 0.58144 0.12591 0.0
C4 C 0.05733 0.47449 0.11043 0.0
C5 C 0.98591 0.41895 0.0743 0.0
C6 C 0.03222 0.55639 0.13737 0.0
C7 C 0.86069 0.52612 0.09378 0.0
C8 C 0.81303 0.38777 0.03323 0.0
C9 C 0.84337 0.30807 1.00363 0.0
N10 N 0.01491 0.34065 0.04534 0.0
C11 C 0.94495 0.28541 1.00965 0.0
H12 H 0.96431 0.22294 0.98595 0.0
C13 C 0.22276 0.50113 0.15533 0.0
N14 N 0.15225 0.44878 0.11813 0.0
C15 C 0.20097 0.58296 0.18313 0.0
C16 C 0.10569 0.61086 0.1735 0.0
H17 H 0.29532 0.47935 0.16408 0.0
H18 H 0.78551 0.54725 0.08741 0.0
H19 H 0.54031 0.25261 0.04788 0.0
H20 H 0.7341 0.40488 0.02903 0.0
H21 H 0.78797 0.2638 0.97665 0.0
H22 H 0.92136 0.64339 0.14001 0.0
H23 H 0.20917 -0.00374 0.86982 0.0
H24 H 0.77045 0.07063 1.00479 0.0
H25 H 0.71663 0.21172 0.05717 0.0
H26 H 0.58318 0.83214 0.89375 0.0
H27 H 0.25754 0.62436 0.21185 0.0
H28 H 0.08974 0.67436 0.1942 0.0
H29 H 0.71902 0.92827 0.94639 0.0
H30 H 0.24695 0.85126 0.822 0.0
N31 N 0.48964 0.13491 0.98852 0.0
C32 C 0.69152 0.08775 1.0006 0.0
C33 C 0.66121 0.16746 0.0302 0.0
C34 C 0.61947 0.03099 0.96612 0.0
C35 C 0.51862 0.0566 0.95955 0.0
C36 C 0.55964 0.19014 0.02419 0.0
N37 N 0.35227 0.02681 0.91575 0.0
C38 C 0.44719 0.00108 0.92342 0.0
C39 C 0.30353 0.89264 0.85072 0.0
C40 C 0.39883 0.86473 0.86032 0.0
C41 C 0.28174 0.97447 0.87856 0.0
C42 C 0.4723 0.91917 0.89646 0.0
H43 H 0.41478 0.80122 0.83958 0.0
O44 O 0.3886 0.09805 0.87036 0.0
O45 O 0.20941 0.26014 0.98209 0.0
O46 O 0.08351 0.19565 0.03931 0.0
O47 O 0.20035 0.09571 0.97873 0.0
O48 O 0.17436 0.15128 0.91453 0.0
O49 O 0.37471 0.22533 0.90985 0.0
O50 O 0.11587 0.37757 0.16353 0.0
O51 O 0.29504 0.21558 0.05177 0.0
O52 O 0.42102 0.27995 0.99459 0.0
O53 O 0.30419 0.3799 0.05519 0.0
O54 O 0.33027 0.32424 0.11933 0.0
O55 O 0.12987 0.25029 0.12407 0.0
C56 C 0.14825 0.22601 0.94022 0.0
C57 C 0.56831 0.8941 0.90789 0.0
C58 C 0.64384 0.94941 0.94003 0.0
C59 C 0.40913 0.16185 0.8659 0.0
C60 C 0.51485 0.16944 0.84679 0.0
C61 C 0.60423 0.15508 0.87129 0.0
C62 C 0.52606 0.19996 0.80798 0.0
C63 C 0.62604 0.21752 0.79411 0.0
C64 C 0.70366 0.17266 0.85806 0.0
C65 C 0.71468 0.20477 0.8204 0.0
C66 C 0.10996 0.11944 1.00832 0.0
C67 C 0.35637 0.2495 0.09356 0.0
C68 C 0.09539 0.31377 0.168 0.0
C69 C 0.98967 0.30615 0.1871 0.0
C70 C 0.90028 0.3205 0.16258 0.0
C71 C 0.97847 0.27559 0.22588 0.0
C72 C 0.87849 0.25798 0.23973 0.0
C73 C 0.80087 0.30286 0.17579 0.0
C74 C 0.78985 0.27072 0.21343 0.0
C75 C 0.39457 0.35617 0.02559 0.0
H76 H 0.59742 0.13156 0.9012 0.0
H77 H 0.4566 0.20924 0.78837 0.0
H78 H 0.7724 0.16159 0.87715 0.0
H79 H 0.79277 0.21882 0.81148 0.0
H80 H 0.90709 0.34404 0.13269 0.0
H81 H 0.04792 0.26631 0.24549 0.0
H82 H 0.73213 0.31393 0.15669 0.0
H83 H 0.71177 0.25663 0.22232 0.0
Gd84 Gd 0.87344 0.68391 0.98713 0.0
Gd85 Gd 0.63107 0.79167 0.04674 0.0
C86 C 0.33382 0.75796 0.94463 0.0
C87 C 0.27713 0.89516 0.97971 0.0
C88 C 0.44758 0.86535 1.00603 0.0
C89 C 0.42882 0.7846 0.97467 0.0
C90 C 0.37258 0.9211 1.0079 0.0
C91 C 0.25747 0.81375 0.9483 0.0
C92 C 0.3172 0.67615 0.91274 0.0
C93 C 0.39397 0.62292 0.91145 0.0
N94 N 0.50231 0.73236 0.97437 0.0
C95 C 0.48567 0.65189 0.9428 0.0
H96 H 0.54267 0.6084 0.94031 0.0
C97 C 0.55918 0.96925 0.06686 0.0
N98 N 0.53859 0.88968 0.03515 0.0
C99 C 0.48974 0.02611 0.06719 0.0
C100 C 0.39636 0.00165 0.03715 0.0
H101 H 0.62705 -0.01069 0.09401 0.0
H102 H 0.18322 0.79474 0.927 0.0
H103 H 0.96199 0.86714 0.09356 0.0
H104 H 0.24561 0.65353 0.88898 0.0
H105 H 0.38231 0.55928 0.88666 0.0
H106 H 0.21881 0.93782 0.98161 0.0
H107 H 0.87738 0.48625 0.93982 0.0
H108 H 0.25905 0.82188 0.1448 0.0
H109 H 0.1224 0.91618 0.14717 0.0
H110 H 0.28569 0.53757 0.05212 0.0
H111 H 0.50958 0.08841 0.09002 0.0
H112 H 0.34526 0.0444 0.03354 0.0
H113 H 0.32137 0.68064 0.10673 0.0
H114 H 0.99486 0.38709 0.94374 0.0
N115 N 0.00227 0.74316 0.05948 0.0
C116 C 0.18744 0.79929 0.12106 0.0
C117 C 0.11069 0.85255 0.12238 0.0
C118 C 0.17076 0.71748 0.08917 0.0
C119 C 0.07573 0.69089 0.05914 0.0
C120 C 0.01897 0.82361 0.09104 0.0
N121 N 0.96588 0.58584 0.99869 0.0
C122 C 0.05692 0.61014 0.02778 0.0
C123 C 0.01469 0.44938 0.9666 0.0
C124 C 0.10809 0.47382 0.99663 0.0
C125 C 0.94526 0.50628 0.96697 0.0
C126 C 0.1319 0.55436 0.02589 0.0
H127 H 0.15917 0.43103 1.00022 0.0
O128 O 0.97202 0.60237 0.91717 0.0
O129 O 0.73075 0.73356 0.96811 0.0
O130 O 0.6075 0.66733 0.03438 0.0
O131 O 0.7627 0.59433 0.99768 0.0
O132 O 0.76969 0.61894 0.91022 0.0
O133 O 0.97426 0.72748 0.94037 0.0
O134 O 0.53257 0.87323 0.11674 0.0
O135 O 0.77372 0.74211 0.0657 0.0
O136 O 0.89703 0.80827 0.99953 0.0
O137 O 0.74181 0.88128 0.03622 0.0
O138 O 0.7349 0.8566 0.12367 0.0
O139 O 0.53014 0.74808 0.09345 0.0
C140 C 0.7082 0.6782 0.91917 0.0
C141 C 0.22738 0.58026 0.05405 0.0
C142 C 0.24709 0.66166 0.08547 0.0
C143 C 0.00473 0.65609 0.90339 0.0
C144 C 1.0006 0.63452 0.84211 0.0
C145 C 0.95304 0.56269 0.80448 0.0
C146 C 0.04865 0.68156 0.81971 0.0
C147 C 0.05824 0.65144 0.75989 0.0
C148 C 0.96235 0.53445 0.74612 0.0
C149 C 0.02051 0.57534 0.72403 0.0
C150 C 0.66368 0.60127 1.01678 0.0
C151 C 0.79645 0.79733 0.11465 0.0
C152 C 0.49975 0.81948 0.13046 0.0
C153 C 0.50381 0.84095 0.19173 0.0
C154 C 0.55125 0.91279 0.22943 0.0
C155 C 0.45576 0.79382 0.21406 0.0
C156 C 0.44603 0.82387 0.27387 0.0
C157 C 0.54181 0.94096 0.28778 0.0
C158 C 0.48362 0.89999 0.30978 0.0
C159 C 0.84085 0.87433 0.01713 0.0
H160 H 0.91111 0.52658 0.81973 0.0
H161 H 0.08006 0.73946 0.84798 0.0
H162 H 0.92547 0.48012 0.71799 0.0
H163 H 0.03372 0.54809 0.67854 0.0
H164 H 0.59319 0.94897 0.21424 0.0
H165 H 0.42447 0.7359 0.18574 0.0
H166 H 0.57859 -0.0047 0.31596 0.0
H167 H 0.4703 0.9272 0.35527 0.0
Gd168 Gd 0.34576 0.80368 0.5676 0.0
Gd169 Gd 0.15872 0.67142 0.46601 0.0
C170 C 0.83447 0.60674 0.50586 0.0
C171 C 0.8342 0.46381 0.44506 0.0
C172 C 0.98994 0.53987 0.45035 0.0
C173 C 0.93946 0.60906 0.48907 0.0
C174 C 0.93917 0.46606 0.42935 0.0
C175 C 0.7814 0.53422 0.4821 0.0
C176 C 0.78692 0.67669 0.54747 0.0
C177 C 0.8439 0.7469 0.57121 0.0
N178 N 0.9942 0.67789 0.51184 0.0
C179 C 0.94668 0.74687 0.55218 0.0
H180 H 0.98595 0.80329 0.57052 0.0
C181 C 0.14426 0.47719 0.39755 0.0
N182 N 0.09069 0.54415 0.43541 0.0
C183 C 0.09849 0.40233 0.37701 0.0
C184 C 0.99609 0.39692 0.39382 0.0
H185 H 0.22269 0.48166 0.38334 0.0
H186 H 0.70013 0.53202 0.49288 0.0
H187 H 0.51873 0.67197 0.46317 0.0
H188 H 0.70688 0.67693 0.56192 0.0
H189 H 0.80798 0.80164 0.60343 0.0
H190 H 0.79271 0.40846 0.42912 0.0
H191 H 0.28163 -0.00661 0.65036 0.0
H192 H 0.79765 0.79853 0.47188 0.0
H193 H 0.69671 0.67375 0.43031 0.0
H194 H 0.71158 0.06691 0.60479 0.0
H195 H 0.14217 0.34899 0.34859 0.0
H196 H 0.96268 0.33924 0.38008 0.0
H197 H 0.80427 0.94343 0.54098 0.0
H198 H 0.36207 0.12611 0.68527 0.0
N199 N 0.5103 0.79737 0.52183 0.0
C200 C 0.7176 0.79872 0.48629 0.0
C201 C 0.66071 0.72847 0.46252 0.0
C202 C 0.66998 0.86862 0.5279 0.0
C203 C 0.56497 0.86623 0.54465 0.0
C204 C 0.55792 0.72842 0.48151 0.0
N205 N 0.41368 0.93102 0.59828 0.0
C206 C 0.51444 0.93537 0.58339 0.0
C207 C 0.40579 0.07282 0.65681 0.0
C208 C 0.5082 0.07831 0.64005 0.0
C209 C 0.36006 -0.00207 0.63618 0.0
C210 C 0.56515 0.00921 0.60447 0.0
H211 H 0.5416 0.13602 0.65389 0.0
O212 O 0.36313 0.86534 0.66047 0.0
O213 O 0.21334 0.72357 0.55652 0.0
O214 O 0.09871 0.79719 0.49841 0.0
O215 O 0.22922 0.88544 0.55242 0.0
O216 O 0.19891 0.83981 0.62113 0.0
O217 O 0.43364 0.74922 0.61027 0.0
O218 O 0.14116 0.60959 0.37315 0.0
O219 O 0.29107 0.75144 0.47713 0.0
O220 O 0.40578 0.67792 0.53518 0.0
O221 O 0.27529 0.58966 0.48117 0.0
O222 O 0.30572 0.63534 0.41253 0.0
O223 O 0.07119 0.72593 0.42325 0.0
C224 C 0.16203 0.76887 0.60184 0.0
C225 C 0.67013 0.01153 0.58879 0.0
C226 C 0.72298 0.94117 0.55172 0.0
C227 C 0.42092 0.80884 0.66103 0.0
C228 C 0.51291 0.83123 0.69859 0.0
C229 C 0.56155 0.90489 0.71605 0.0
C230 C 0.54885 0.77927 0.71953 0.0
C231 C 0.63045 0.80172 0.75992 0.0
C232 C 0.64284 0.92754 0.75509 0.0
C233 C 0.67591 0.87754 0.77745 0.0
C234 C 0.13633 0.8699 0.52659 0.0
C235 C 0.3426 0.7063 0.43187 0.0
C236 C 0.08362 0.66617 0.37253 0.0
C237 C 0.99152 0.64392 0.33506 0.0
C238 C 0.94269 0.57034 0.31765 0.0
C239 C 0.95565 0.69594 0.31415 0.0
C240 C 0.87393 0.67361 0.27383 0.0
C241 C 0.86128 0.54782 0.27868 0.0
C242 C 0.82828 0.59787 0.25634 0.0
C243 C 0.36817 0.60521 0.507 0.0
H244 H 0.5355 0.94562 0.70047 0.0
H245 H 0.5111 0.72219 0.70479 0.0
H246 H 0.67873 0.98527 0.76936 0.0
H247 H 0.73478 0.90085 0.81021 0.0
H248 H 0.96867 0.52957 0.33321 0.0
H249 H 0.99355 0.75295 0.32885 0.0
H250 H 0.82524 0.49015 0.26445 0.0
H251 H 0.76932 0.57463 0.22364 0.0
Gd252 Gd 0.85088 0.30698 0.55979 0.0
Gd253 Gd 0.65359 0.16822 0.47388 0.0
C254 C 0.3666 0.08448 0.53228 0.0
C255 C 0.39437 0.94148 0.4849 0.0
C256 C 0.52364 0.02706 0.47494 0.0
C257 C 0.46448 0.09342 0.51097 0.0
C258 C 0.49081 0.95035 0.46283 0.0
C259 C 0.3312 0.00814 0.51788 0.0
C260 C 0.30719 0.1524 0.56759 0.0
C261 C 0.34611 0.2273 0.58073 0.0
N262 N 0.50143 0.16655 0.52416 0.0
C263 C 0.44335 0.23341 0.55835 0.0
H264 H 0.46989 0.29223 0.56843 0.0
C265 C 0.67259 0.9736 0.41426 0.0
N266 N 0.61299 0.03743 0.45139 0.0
C267 C 0.64702 0.89661 0.40394 0.0
C268 C 0.55574 0.88512 0.42863 0.0
H269 H 0.74135 0.98241 0.39375 0.0
H270 H 0.25702 0.00097 0.53423 0.0
H271 H 0.03465 0.18293 0.46532 0.0
H272 H 0.23143 0.14764 0.58475 0.0
H273 H 0.30069 0.28038 0.60731 0.0
H274 H 0.3698 0.88397 0.47877 0.0
H275 H 0.76307 0.49281 0.6398 0.0
H276 H 0.27324 0.32746 0.44904 0.0
H277 H 0.20393 0.19474 0.42651 0.0
H278 H 0.13487 0.59116 0.5549 0.0
H279 H 0.69623 0.84623 0.37621 0.0
H280 H 0.53588 0.82579 0.42061 0.0
H281 H 0.24764 0.47413 0.49949 0.0
H282 H 0.80829 0.62897 0.65734 0.0
N283 N 0.00311 0.30861 0.50953 0.0
C284 C 0.19744 0.32272 0.46618 0.0
C285 C 0.1585 0.24783 0.45305 0.0
C286 C 0.13802 0.39065 0.50144 0.0
C287 C 0.04009 0.38173 0.52271 0.0
C288 C 0.06121 0.24174 0.47539 0.0
N289 N 0.89149 0.43776 0.58221 0.0
C290 C 0.98091 0.4481 0.5587 0.0
C291 C 0.85751 0.57858 0.62963 0.0
C292 C 0.94886 0.59005 0.605 0.0
C293 C 0.83187 0.50159 0.61931 0.0
C294 C 0.01379 0.52481 0.57083 0.0
H295 H 0.96877 0.64937 0.61302 0.0
O296 O 0.86968 0.35618 0.65181 0.0
O297 O 0.71504 0.23771 0.56027 0.0
O298 O 0.59698 0.29577 0.50539 0.0
O299 O 0.74473 0.37605 0.52845 0.0
O300 O 0.7126 0.35467 0.62071 0.0
O301 O 0.97715 0.26508 0.59297 0.0
O302 O 0.63482 0.11923 0.38186 0.0
O303 O 0.7894 0.2374 0.47345 0.0
O304 O 0.90749 0.17945 0.52836 0.0
O305 O 0.7598 0.09908 0.50514 0.0
O306 O 0.79194 0.12058 0.41294 0.0
O307 O 0.52722 0.21015 0.44077 0.0
C308 C 0.66689 0.28724 0.60491 0.0
C309 C 0.11026 0.53365 0.54878 0.0
C310 C 0.17343 0.46698 0.51583 0.0
C311 C 0.95003 0.31025 0.64616 0.0
C312 C 0.03507 0.34016 0.68737 0.0
C313 C 0.1232 0.37604 0.67765 0.0
C314 C 0.03253 0.32306 0.73361 0.0
C315 C 0.12077 0.33628 0.76857 0.0
C316 C 0.2097 0.39254 0.71311 0.0
C317 C 0.20993 0.37112 0.75709 0.0
C318 C 0.64377 0.36283 0.51513 0.0
C319 C 0.83769 0.18801 0.42882 0.0
C320 C 0.55438 0.16511 0.38757 0.0
C321 C 0.46935 0.13521 0.34634 0.0
C322 C 0.38119 0.09935 0.35606 0.0
C323 C 0.47194 0.1523 0.3001 0.0
C324 C 0.38371 0.1391 0.26513 0.0
C325 C 0.29471 0.08286 0.32058 0.0
C326 C 0.29452 0.10427 0.2766 0.0
C327 C 0.86073 0.11233 0.51852 0.0
H328 H 0.126 0.3893 0.64194 0.0
H329 H 0.96185 0.29741 0.74079 0.0
H330 H 0.27866 0.41916 0.70508 0.0
H331 H 0.28176 0.38038 0.78063 0.0
H332 H 0.37836 0.0861 0.39178 0.0
H333 H 0.54265 0.17792 0.29293 0.0
H334 H 0.22573 0.05626 0.32861 0.0
H335 H 0.2227 0.09502 0.25306 0.0
C336 C 0.6039 0.45644 0.97457 0.0
C337 C 0.60709 0.53421 0.02051 0.0
H338 H 0.53551 0.33981 0.94022 0.0
C339 C 0.5422 0.5516 0.06877 0.0
H340 H 0.65086 0.44094 0.93631 0.0
C341 C 0.47589 0.49402 0.07108 0.0
C342 C 0.47014 0.41689 0.0248 0.0
H343 H 0.54104 0.61082 0.10488 0.0
H344 H 0.42767 0.51067 0.10899 0.0
C345 C 0.5369 0.39854 0.97685 0.0
C346 C 0.44539 0.46384 0.46121 0.0
C347 C 0.43602 0.54071 0.50803 0.0
H348 H 0.51891 0.34774 0.42672 0.0
C349 C 0.49726 0.55805 0.55674 0.0
H350 H 0.40023 0.44816 0.42298 0.0
C351 C 0.56592 0.50127 0.55865 0.0
C352 C 0.57624 0.42507 0.51181 0.0
H353 H 0.49165 0.61561 0.59423 0.0
H354 H 0.60977 0.51685 0.59721 0.0
C355 C 0.51393 0.40653 0.46333 0.0
C356 C 0.02863 0.98158 0.96283 0.0
C357 C 0.03439 0.05871 1.00911 0.0
H358 H 0.96348 0.86478 0.92903 0.0
C359 C 0.96763 0.07706 0.05705 0.0
H360 H 0.07685 0.96494 0.92492 0.0
C361 C 0.90062 0.01916 0.05934 0.0
C362 C 0.89744 0.94139 1.0134 0.0
H363 H 0.96902 0.1358 0.09369 0.0
H364 H 0.85367 0.03467 0.0976 0.0
C365 C 0.96232 0.92401 0.96514 0.0
C366 C 0.99073 0.06864 0.57025 0.0
C367 C 0.92827 0.05008 0.52183 0.0
H368 H 0.10452 0.02701 0.61056 0.0
C369 C 0.93841 0.97384 0.47502 0.0
H370 H 0.98586 0.12746 0.60684 0.0
C371 C 0.00706 0.91704 0.47692 0.0
C372 C 0.06847 0.93441 0.52557 0.0
H373 H 0.89443 0.95823 0.43649 0.0
H374 H 0.0125 0.85944 0.43945 0.0
C375 C 0.05924 0.01131 0.57236 0.0
C376 C 0.3108 0.13099 0.17393 0.0
C377 C 0.38308 0.16415 0.21874 0.0
H378 H 0.24284 0.13342 0.10183 0.0
C379 C 0.4515 0.22327 0.21937 0.0
H380 H 0.25826 0.08399 0.16953 0.0
C381 C 0.44752 0.24747 0.17662 0.0
C382 C 0.37387 0.21462 0.13275 0.0
H383 H 0.50633 0.25338 0.25361 0.0
H384 H 0.49962 0.29386 0.17895 0.0
C385 C 0.30386 0.15799 0.13329 0.0
C386 C 0.31652 0.80945 0.3393 0.0
C387 C 0.40291 0.77801 0.30172 0.0
H388 H 0.23019 0.81186 0.40989 0.0
C389 C 0.46354 0.71705 0.30352 0.0
H390 H 0.26896 0.85684 0.33903 0.0
C391 C 0.44314 0.69277 0.34541 0.0
C392 C 0.36348 0.73053 0.38686 0.0
H393 H 0.53118 0.69245 0.27541 0.0
H394 H 0.49306 0.64767 0.34736 0.0
C395 C 0.29601 0.78499 0.38074 0.0
C396 C 0.76951 0.7423 0.86091 0.0
C397 C 0.69372 0.69663 0.87076 0.0
H398 H 0.8161 0.80342 0.81476 0.0
C399 C 0.6081 0.66932 0.83369 0.0
H400 H 0.83865 0.76139 0.88679 0.0
C401 C 0.59103 0.69738 0.7935 0.0
C402 C 0.66115 0.75182 0.7886 0.0
H403 H 0.5515 0.62982 0.8375 0.0
H404 H 0.51879 0.68072 0.7699 0.0
C405 C 0.75535 0.76731 0.81942 0.0
C406 C 0.72739 0.22284 0.66161 0.0
C407 C 0.64941 0.26717 0.65163 0.0
H408 H 0.78137 0.17219 0.71343 0.0
C409 C 0.56865 0.30326 0.69236 0.0
H410 H 0.79335 0.19749 0.63242 0.0
C411 C 0.5626 0.2903 0.74045 0.0
C412 C 0.6384 0.24205 0.74865 0.0
H413 H 0.51069 0.34118 0.68701 0.0
H414 H 0.49832 0.31732 0.77077 0.0
C415 C 0.72209 0.21023 0.70926 0.0
C416 C 0.89649 0.80608 0.20011 0.0
C417 C 0.81091 0.77879 0.16301 0.0
H418 H 0.98569 0.79466 0.26392 0.0
C419 C 0.73504 0.73315 0.17284 0.0
H420 H 0.95312 0.84558 0.19633 0.0
C421 C 0.74913 0.70811 0.21433 0.0
C422 C 0.84331 0.72356 0.24517 0.0
H423 H 0.66589 0.71413 0.14698 0.0
H424 H 0.68831 0.67204 0.21898 0.0
C425 C 0.91348 0.778 0.2403 0.0
C426 C 0.93594 0.17216 0.34142 0.0
C427 C 0.85515 0.20819 0.38214 0.0
H428 H 0.00627 0.15818 0.26304 0.0
C429 C 0.77713 0.2525 0.37217 0.0
H430 H 0.99393 0.13425 0.34676 0.0
C431 C 0.78242 0.26515 0.32454 0.0
C432 C 0.86614 0.23339 0.28515 0.0
H433 H 0.71114 0.27778 0.40135 0.0
H434 H 0.72311 0.30317 0.32037 0.0
C435 C 0.94197 0.18516 0.29335 0.0
C436 C 0.19367 0.34446 0.8598 0.0
C437 C 0.12144 0.31124 0.81497 0.0
H438 H 0.26165 0.34212 0.93192 0.0
C439 C 0.05311 0.25206 0.81433 0.0
H440 H 0.24615 0.3915 0.8642 0.0
C441 C 0.05713 0.22788 0.85709 0.0
C442 C 0.13074 0.26081 0.90098 0.0
H443 H 0.99832 0.22191 0.78008 0.0
H444 H 0.00509 0.18146 0.85475 0.0
C445 C 0.20066 0.31749 0.90045 0.0
C446 C 0.06137 0.78248 0.68829 0.0
C447 C 0.14106 0.74469 0.64687 0.0
H448 H 0.97322 0.78285 0.75827 0.0
C449 C 0.20844 0.69019 0.65299 0.0
H450 H 0.01152 0.82759 0.68632 0.0
C451 C 0.18781 0.66573 0.69442 0.0
C452 C 0.10141 0.69722 0.73198 0.0
H453 H 0.27429 0.66331 0.62387 0.0
H454 H 0.23532 0.61832 0.6947 0.0
C455 C 0.04087 0.75821 0.73017 0.0
loop_
_geom_bond_atom_site_label_1
_geom_bond_atom_site_label_2
_geom_bond_distance
_geom_bond_site_symmetry_2
_ccdc_geom_bond_type
Gd0 N31 2.661 . S
Gd0 N37 2.601 . S
Gd0 O44 2.545 . S
Gd0 O45 2.606 . S
Gd0 O47 2.429 . S
Gd0 O48 2.545 . S
Gd0 O49 2.412 . S
Gd0 O51 2.362 1_556 S
Gd0 O52 2.324 . S
Gd0 C59 2.828 . S
Gd1 N10 2.661 1_455 S
Gd1 N14 2.601 . S
Gd1 O45 2.362 1_554 S
Gd1 O46 2.324 . S
Gd1 O50 2.545 . S
Gd1 O51 2.606 . S
Gd1 O53 2.429 . S
Gd1 O54 2.545 . S
Gd1 O55 2.412 . S
Gd1 C68 2.828 . S
C2 C5 1.417 1_556 S
C2 C7 1.431 1_556 S
C2 C8 1.412 . S
C3 C6 1.437 . S
C3 C7 1.317 . S
C3 H22 0.929 . S
C4 C5 1.426 . S
C4 C6 1.413 . S
C4 N14 1.359 1_655 S
C5 C2 1.417 1_554 S
C5 C4 1.426 . S
C5 N10 1.350 . S
C6 C3 1.437 . S
C6 C4 1.413 . S
C6 C16 1.391 . S
C7 C2 1.431 1_554 S
C7 C3 1.317 . S
C7 H18 0.930 1_554 S
C8 C2 1.412 . S
C8 C9 1.355 . S
C8 H20 0.930 . S
C9 C8 1.355 . S
C9 C11 1.402 . S
C9 H21 0.930 . S
N10 Gd1 2.661 1_655 S
N10 C5 1.350 . S
N10 C11 1.307 1_554 S
C11 C9 1.402 . S
C11 N10 1.307 1_556 S
C11 H12 0.930 . S
H12 C11 0.930 . S
C13 N14 1.334 . S
C13 C15 1.394 . S
C13 H17 0.930 . S
N14 Gd1 2.601 . S
N14 C4 1.359 1_455 S
N14 C13 1.334 . S
C15 C13 1.394 . S
C15 C16 1.359 1_455 S
C15 H27 0.930 . S
C16 C6 1.391 . S
C16 C15 1.359 1_655 S
C16 H28 0.929 . S
H17 C13 0.930 . S
H18 C7 0.930 1_556 S
H19 C36 0.930 . S
H20 C8 0.930 . S
H21 C9 0.930 . S
H22 C3 0.929 . S
H23 C41 0.930 . S
H24 C32 0.930 . S
H25 C33 0.930 . S
H26 C57 0.929 . S
H27 C15 0.930 . S
H28 C16 0.929 . S
H29 C58 0.930 1_554 S
H30 C39 0.930 . S
N31 Gd0 2.661 . S
N31 C35 1.350 . S
N31 C36 1.307 1_556 S
C32 H24 0.930 . S
C32 C33 1.355 . S
C32 C34 1.412 . S
C33 H25 0.930 . S
C33 C32 1.355 . S
C33 C36 1.402 . S
C34 C32 1.412 . S
C34 C35 1.417 1_554 S
C34 C58 1.431 1_554 S
C35 N31 1.350 . S
C35 C34 1.417 1_556 S
C35 C38 1.426 . S
C36 H19 0.930 . S
C36 N31 1.307 1_554 S
C36 C33 1.402 . S
N37 Gd0 2.601 . S
N37 C38 1.359 . S
N37 C41 1.334 1_545 S
C38 C35 1.426 . S
C38 N37 1.359 . S
C38 C42 1.413 1_545 S
C39 H30 0.930 . S
C39 C40 1.359 . S
C39 C41 1.394 . S
C40 C39 1.359 . S
C40 C42 1.391 . S
C40 H43 0.929 . S
C41 H23 0.930 . S
C41 N37 1.334 1_565 S
C41 C39 1.394 . S
C42 C38 1.413 1_565 S
C42 C40 1.391 . S
C42 C57 1.437 . S
H43 C40 0.929 . S
O44 Gd0 2.545 . S
O44 C59 1.258 . S
O45 Gd0 2.606 . S
O45 Gd1 2.362 1_556 S
O45 C56 1.284 . S
O46 Gd1 2.324 . S
O46 C66 1.254 1_554 S
O47 Gd0 2.429 . S
O47 C66 1.268 . S
O48 Gd0 2.545 . S
O48 C56 1.250 . S
O49 Gd0 2.412 . S
O49 C59 1.252 . S
O50 Gd1 2.545 . S
O50 C68 1.258 . S
O51 Gd0 2.362 1_554 S
O51 Gd1 2.606 . S
O51 C67 1.284 . S
O52 Gd0 2.324 . S
O52 C75 1.254 1_556 S
O53 Gd1 2.429 . S
O53 C75 1.268 . S
O54 Gd1 2.545 . S
O54 C67 1.250 . S
O55 Gd1 2.412 . S
O55 C68 1.252 . S
C56 O45 1.284 . S
C56 O48 1.250 . S
C57 H26 0.929 . S
C57 C42 1.437 . S
C57 C58 1.317 1_565 S
C58 H29 0.930 1_556 S
C58 C34 1.431 1_556 S
C58 C57 1.317 1_545 S
C59 Gd0 2.828 . S
C59 O44 1.258 . S
C59 O49 1.252 . S
C59 C60 1.497 . S
C60 C59 1.497 . S
C60 C61 1.395 1_545 S
C60 C62 1.380 . S
C61 C60 1.395 1_565 S
C61 C64 1.398 . S
C61 H76 0.930 . S
C62 C60 1.380 . S
C62 C63 1.391 . S
C62 H77 0.930 . S
C63 C62 1.391 . S
C63 C65 1.387 . S
C64 C61 1.398 . S
C64 C65 1.380 1_565 S
C64 H78 0.930 . S
C65 C63 1.387 . S
C65 C64 1.380 1_545 S
C65 H79 0.930 . S
C66 O46 1.254 1_556 S
C66 O47 1.268 . S
C67 O51 1.284 . S
C67 O54 1.250 . S
C68 Gd1 2.828 . S
C68 O50 1.258 . S
C68 O55 1.252 . S
C68 C69 1.497 . S
C69 C68 1.497 . S
C69 C70 1.395 1_455 S
C69 C71 1.380 1_455 S
C70 C69 1.395 1_655 S
C70 C73 1.398 . S
C70 H80 0.930 1_655 S
C71 C69 1.380 1_655 S
C71 C72 1.391 . S
C71 H81 0.930 . S
C72 C71 1.391 . S
C72 C74 1.387 . S
C73 C70 1.398 . S
C73 C74 1.380 . S
C73 H82 0.930 . S
C74 C72 1.387 . S
C74 C73 1.380 . S
C74 H83 0.930 . S
C75 O52 1.254 1_554 S
C75 O53 1.268 . S
H76 C61 0.930 . S
H77 C62 0.930 . S
H78 C64 0.930 . S
H79 C65 0.930 . S
H80 C70 0.930 1_455 S
H81 C71 0.930 . S
H82 C73 0.930 . S
H83 C74 0.930 . S
Gd84 N115 2.661 1_655 S
Gd84 N121 2.601 . S
Gd84 O128 2.545 . S
Gd84 O129 2.606 . S
Gd84 O131 2.429 . S
Gd84 O132 2.545 . S
Gd84 O133 2.412 . S
Gd84 O135 2.362 1_556 S
Gd84 O136 2.324 . S
Gd84 C143 2.828 . S
Gd85 N94 2.661 . S
Gd85 N98 2.601 . S
Gd85 O129 2.362 1_554 S
Gd85 O130 2.324 . S
Gd85 O134 2.545 . S
Gd85 O135 2.606 . S
Gd85 O137 2.429 . S
Gd85 O138 2.545 . S
Gd85 O139 2.412 . S
Gd85 C152 2.828 . S
C86 C89 1.417 1_556 S
C86 C91 1.431 1_556 S
C86 C92 1.412 . S
C87 C90 1.437 . S
C87 C91 1.317 1_545 S
C87 H106 0.929 . S
C88 C89 1.426 . S
C88 C90 1.413 1_565 S
C88 N98 1.359 . S
C89 C86 1.417 1_554 S
C89 C88 1.426 . S
C89 N94 1.350 . S
C90 C87 1.437 . S
C90 C88 1.413 1_545 S
C90 C100 1.391 . S
C91 C86 1.431 1_554 S
C91 C87 1.317 1_565 S
C91 H102 0.930 1_554 S
C92 C86 1.412 . S
C92 C93 1.355 . S
C92 H104 0.930 . S
C93 C92 1.355 . S
C93 C95 1.402 . S
C93 H105 0.930 . S
N94 Gd85 2.661 . S
N94 C89 1.350 . S
N94 C95 1.307 1_554 S
C95 C93 1.402 . S
C95 N94 1.307 1_556 S
C95 H96 0.930 . S
H96 C95 0.930 . S
C97 N98 1.334 1_545 S
C97 C99 1.394 . S
C97 H101 0.930 . S
N98 Gd85 2.601 . S
N98 C88 1.359 . S
N98 C97 1.334 1_565 S
C99 C97 1.394 . S
C99 C100 1.359 . S
C99 H111 0.930 . S
C100 C90 1.391 . S
C100 C99 1.359 . S
C100 H112 0.929 . S
H101 C97 0.930 . S
H102 C91 0.930 1_556 S
H103 C120 0.930 . S
H104 C92 0.930 . S
H105 C93 0.930 . S
H106 C87 0.929 . S
H107 C125 0.930 . S
H108 C116 0.930 . S
H109 C117 0.930 . S
H110 C141 0.929 . S
H111 C99 0.930 . S
H112 C100 0.929 . S
H113 C142 0.930 1_554 S
H114 C123 0.930 . S
N115 Gd84 2.661 1_455 S
N115 C119 1.350 . S
N115 C120 1.307 1_556 S
C116 H108 0.930 . S
C116 C117 1.355 . S
C116 C118 1.412 . S
C117 H109 0.930 . S
C117 C116 1.355 . S
C117 C120 1.402 . S
C118 C116 1.412 . S
C118 C119 1.417 1_554 S
C118 C142 1.431 1_554 S
C119 N115 1.350 . S
C119 C118 1.417 1_556 S
C119 C122 1.426 . S
C120 H103 0.930 . S
C120 N115 1.307 1_554 S
C120 C117 1.402 . S
N121 Gd84 2.601 . S
N121 C122 1.359 1_655 S
N121 C125 1.334 . S
C122 C119 1.426 . S
C122 N121 1.359 1_455 S
C122 C126 1.413 . S
C123 H114 0.930 . S
C123 C124 1.359 1_655 S
C123 C125 1.394 . S
C124 C123 1.359 1_455 S
C124 C126 1.391 . S
C124 H127 0.929 . S
C125 H107 0.930 . S
C125 N121 1.334 . S
C125 C123 1.394 . S
C126 C122 1.413 . S
C126 C124 1.391 . S
C126 C141 1.437 . S
H127 C124 0.929 . S
O128 Gd84 2.545 . S
O128 C143 1.258 . S
O129 Gd84 2.606 . S
O129 Gd85 2.362 1_556 S
O129 C140 1.284 . S
O130 Gd85 2.324 . S
O130 C150 1.254 1_554 S
O131 Gd84 2.429 . S
O131 C150 1.268 . S
O132 Gd84 2.545 . S
O132 C140 1.250 . S
O133 Gd84 2.412 . S
O133 C143 1.252 . S
O134 Gd85 2.545 . S
O134 C152 1.258 . S
O135 Gd84 2.362 1_554 S
O135 Gd85 2.606 . S
O135 C151 1.284 . S
O136 Gd84 2.324 . S
O136 C159 1.254 1_556 S
O137 Gd85 2.429 . S
O137 C159 1.268 . S
O138 Gd85 2.545 . S
O138 C151 1.250 . S
O139 Gd85 2.412 . S
O139 C152 1.252 . S
C140 O129 1.284 . S
C140 O132 1.250 . S
C141 H110 0.929 . S
C141 C126 1.437 . S
C141 C142 1.317 . S
C142 H113 0.930 1_556 S
C142 C118 1.431 1_556 S
C142 C141 1.317 . S
C143 Gd84 2.828 . S
C143 O128 1.258 . S
C143 O133 1.252 . S
C143 C144 1.497 . S
C144 C143 1.497 . S
C144 C145 1.395 1_655 S
C144 C146 1.380 1_655 S
C145 C144 1.395 1_455 S
C145 C148 1.398 . S
C145 H160 0.930 1_455 S
C146 C144 1.380 1_455 S
C146 C147 1.391 . S
C146 H161 0.930 . S
C147 C146 1.391 . S
C147 C149 1.387 . S
C148 C145 1.398 . S
C148 C149 1.380 . S
C148 H162 0.930 . S
C149 C147 1.387 . S
C149 C148 1.380 . S
C149 H163 0.930 . S
C150 O130 1.254 1_556 S
C150 O131 1.268 . S
C151 O135 1.284 . S
C151 O138 1.250 . S
C152 Gd85 2.828 . S
C152 O134 1.258 . S
C152 O139 1.252 . S
C152 C153 1.497 . S
C153 C152 1.497 . S
C153 C154 1.395 1_565 S
C153 C155 1.380 . S
C154 C153 1.395 1_545 S
C154 C157 1.398 . S
C154 H164 0.930 . S
C155 C153 1.380 . S
C155 C156 1.391 . S
C155 H165 0.930 . S
C156 C155 1.391 . S
C156 C158 1.387 . S
C157 C154 1.398 . S
C157 C158 1.380 1_545 S
C157 H166 0.930 . S
C158 C156 1.387 . S
C158 C157 1.380 1_565 S
C158 H167 0.930 . S
C159 O136 1.254 1_554 S
C159 O137 1.268 . S
H160 C145 0.930 1_655 S
H161 C146 0.930 . S
H162 C148 0.930 . S
H163 C149 0.930 . S
H164 C154 0.930 . S
H165 C155 0.930 . S
H166 C157 0.930 . S
H167 C158 0.930 . S
Gd168 N199 2.661 . S
Gd168 N205 2.601 . S
Gd168 O212 2.545 . S
Gd168 O213 2.606 . S
Gd168 O215 2.429 . S
Gd168 O216 2.545 . S
Gd168 O217 2.412 . S
Gd168 O219 2.362 . S
Gd168 O220 2.324 . S
Gd168 C227 2.828 . S
Gd169 N178 2.661 1_455 S
Gd169 N182 2.601 . S
Gd169 O213 2.362 . S
Gd169 O214 2.324 . S
Gd169 O218 2.545 . S
Gd169 O219 2.606 . S
Gd169 O221 2.429 . S
Gd169 O222 2.545 . S
Gd169 O223 2.412 . S
Gd169 C236 2.828 . S
C170 C173 1.417 . S
C170 C175 1.431 . S
C170 C176 1.412 . S
C171 C174 1.437 . S
C171 C175 1.317 . S
C171 H190 0.929 . S
C172 C173 1.426 . S
C172 C174 1.413 . S
C172 N182 1.359 1_655 S
C173 C170 1.417 . S
C173 C172 1.426 . S
C173 N178 1.350 . S
C174 C171 1.437 . S
C174 C172 1.413 . S
C174 C184 1.391 . S
C175 C170 1.431 . S
C175 C171 1.317 . S
C175 H186 0.930 . S
C176 C170 1.412 . S
C176 C177 1.355 . S
C176 H188 0.930 . S
C177 C176 1.355 . S
C177 C179 1.402 . S
C177 H189 0.930 . S
N178 Gd169 2.661 1_655 S
N178 C173 1.350 . S
N178 C179 1.307 . S
C179 C177 1.402 . S
C179 N178 1.307 . S
C179 H180 0.930 . S
H180 C179 0.930 . S
C181 N182 1.334 . S
C181 C183 1.394 . S
C181 H185 0.930 . S
N182 Gd169 2.601 . S
N182 C172 1.359 1_455 S
N182 C181 1.334 . S
C183 C181 1.394 . S
C183 C184 1.359 1_455 S
C183 H195 0.930 . S
C184 C174 1.391 . S
C184 C183 1.359 1_655 S
C184 H196 0.929 . S
H185 C181 0.930 . S
H186 C175 0.930 . S
H187 C204 0.930 . S
H188 C176 0.930 . S
H189 C177 0.930 . S
H190 C171 0.929 . S
H191 C209 0.930 . S
H192 C200 0.930 . S
H193 C201 0.930 . S
H194 C225 0.929 . S
H195 C183 0.930 . S
H196 C184 0.929 . S
H197 C226 0.930 . S
H198 C207 0.930 . S
N199 Gd168 2.661 . S
N199 C203 1.350 . S
N199 C204 1.307 . S
C200 H192 0.930 . S
C200 C201 1.355 . S
C200 C202 1.412 . S
C201 H193 0.930 . S
C201 C200 1.355 . S
C201 C204 1.402 . S
C202 C200 1.412 . S
C202 C203 1.417 . S
C202 C226 1.431 . S
C203 N199 1.350 . S
C203 C202 1.417 . S
C203 C206 1.426 . S
C204 H187 0.930 . S
C204 N199 1.307 . S
C204 C201 1.402 . S
N205 Gd168 2.601 . S
N205 C206 1.359 . S
N205 C209 1.334 1_565 S
C206 C203 1.426 . S
C206 N205 1.359 . S
C206 C210 1.413 1_565 S
C207 H198 0.930 . S
C207 C208 1.359 . S
C207 C209 1.394 . S
C208 C207 1.359 . S
C208 C210 1.391 . S
C208 H211 0.929 . S
C209 H191 0.930 . S
C209 N205 1.334 1_545 S
C209 C207 1.394 . S
C210 C206 1.413 1_545 S
C210 C208 1.391 . S
C210 C225 1.437 . S
H211 C208 0.929 . S
O212 Gd168 2.545 . S
O212 C227 1.258 . S
O213 Gd168 2.606 . S
O213 Gd169 2.362 . S
O213 C224 1.284 . S
O214 Gd169 2.324 . S
O214 C234 1.254 . S
O215 Gd168 2.429 . S
O215 C234 1.268 . S
O216 Gd168 2.545 . S
O216 C224 1.250 . S
O217 Gd168 2.412 . S
O217 C227 1.252 . S
O218 Gd169 2.545 . S
O218 C236 1.258 . S
O219 Gd168 2.362 . S
O219 Gd169 2.606 . S
O219 C235 1.284 . S
O220 Gd168 2.324 . S
O220 C243 1.254 . S
O221 Gd169 2.429 . S
O221 C243 1.268 . S
O222 Gd169 2.545 . S
O222 C235 1.250 . S
O223 Gd169 2.412 . S
O223 C236 1.252 . S
C224 O213 1.284 . S
C224 O216 1.250 . S
C225 H194 0.929 . S
C225 C210 1.437 . S
C225 C226 1.317 1_545 S
C226 H197 0.930 . S
C226 C202 1.431 . S
C226 C225 1.317 1_565 S
C227 Gd168 2.828 . S
C227 O212 1.258 . S
C227 O217 1.252 . S
C227 C228 1.497 . S
C228 C227 1.497 . S
C228 C229 1.395 1_565 S
C228 C230 1.380 . S
C229 C228 1.395 1_545 S
C229 C232 1.398 . S
C229 H244 0.930 . S
C230 C228 1.380 . S
C230 C231 1.391 . S
C230 H245 0.930 . S
C231 C230 1.391 . S
C231 C233 1.387 . S
C232 C229 1.398 . S
C232 C233 1.380 1_545 S
C232 H246 0.930 . S
C233 C231 1.387 . S
C233 C232 1.380 1_565 S
C233 H247 0.930 . S
C234 O214 1.254 . S
C234 O215 1.268 . S
C235 O219 1.284 . S
C235 O222 1.250 . S
C236 Gd169 2.828 . S
C236 O218 1.258 . S
C236 O223 1.252 . S
C236 C237 1.497 . S
C237 C236 1.497 . S
C237 C238 1.395 1_455 S
C237 C239 1.380 1_455 S
C238 C237 1.395 1_655 S
C238 C241 1.398 . S
C238 H248 0.930 1_655 S
C239 C237 1.380 1_655 S
C239 C240 1.391 . S
C239 H249 0.930 . S
C240 C239 1.391 . S
C240 C242 1.387 . S
C241 C238 1.398 . S
C241 C242 1.380 . S
C241 H250 0.930 . S
C242 C240 1.387 . S
C242 C241 1.380 . S
C242 H251 0.930 . S
C243 O220 1.254 . S
C243 O221 1.268 . S
H244 C229 0.930 . S
H245 C230 0.930 . S
H246 C232 0.930 . S
H247 C233 0.930 . S
H248 C238 0.930 1_455 S
H249 C239 0.930 . S
H250 C241 0.930 . S
H251 C242 0.930 . S
Gd252 N283 2.661 1_655 S
Gd252 N289 2.601 . S
Gd252 O296 2.545 . S
Gd252 O297 2.606 . S
Gd252 O299 2.429 . S
Gd252 O300 2.545 . S
Gd252 O301 2.412 . S
Gd252 O303 2.362 . S
Gd252 O304 2.324 . S
Gd252 C311 2.828 . S
Gd253 N262 2.661 . S
Gd253 N266 2.601 . S
Gd253 O297 2.362 . S
Gd253 O298 2.324 . S
Gd253 O302 2.545 . S
Gd253 O303 2.606 . S
Gd253 O305 2.429 . S
Gd253 O306 2.545 . S
Gd253 O307 2.412 . S
Gd253 C320 2.828 . S
C254 C257 1.417 . S
C254 C259 1.431 . S
C254 C260 1.412 . S
C255 C258 1.437 . S
C255 C259 1.317 1_565 S
C255 H274 0.929 . S
C256 C257 1.426 . S
C256 C258 1.413 1_545 S
C256 N266 1.359 . S
C257 C254 1.417 . S
C257 C256 1.426 . S
C257 N262 1.350 . S
C258 C255 1.437 . S
C258 C256 1.413 1_565 S
C258 C268 1.391 . S
C259 C254 1.431 . S
C259 C255 1.317 1_545 S
C259 H270 0.930 . S
C260 C254 1.412 . S
C260 C261 1.355 . S
C260 H272 0.930 . S
C261 C260 1.355 . S
C261 C263 1.402 . S
C261 H273 0.930 . S
N262 Gd253 2.661 . S
N262 C257 1.350 . S
N262 C263 1.307 . S
C263 C261 1.402 . S
C263 N262 1.307 . S
C263 H264 0.930 . S
H264 C263 0.930 . S
C265 N266 1.334 1_565 S
C265 C267 1.394 . S
C265 H269 0.930 . S
N266 Gd253 2.601 . S
N266 C256 1.359 . S
N266 C265 1.334 1_545 S
C267 C265 1.394 . S
C267 C268 1.359 . S
C267 H279 0.930 . S
C268 C258 1.391 . S
C268 C267 1.359 . S
C268 H280 0.929 . S
H269 C265 0.930 . S
H270 C259 0.930 . S
H271 C288 0.930 . S
H272 C260 0.930 . S
H273 C261 0.930 . S
H274 C255 0.929 . S
H275 C293 0.930 . S
H276 C284 0.930 . S
H277 C285 0.930 . S
H278 C309 0.929 . S
H279 C267 0.930 . S
H280 C268 0.929 . S
H281 C310 0.930 . S
H282 C291 0.930 . S
N283 Gd252 2.661 1_455 S
N283 C287 1.350 . S
N283 C288 1.307 . S
C284 H276 0.930 . S
C284 C285 1.355 . S
C284 C286 1.412 . S
C285 H277 0.930 . S
C285 C284 1.355 . S
C285 C288 1.402 . S
C286 C284 1.412 . S
C286 C287 1.417 . S
C286 C310 1.431 . S
C287 N283 1.350 . S
C287 C286 1.417 . S
C287 C290 1.426 . S
C288 H271 0.930 . S
C288 N283 1.307 . S
C288 C285 1.402 . S
N289 Gd252 2.601 . S
N289 C290 1.359 1_655 S
N289 C293 1.334 . S
C290 C287 1.426 . S
C290 N289 1.359 1_455 S
C290 C294 1.413 . S
C291 H282 0.930 . S
C291 C292 1.359 1_655 S
C291 C293 1.394 . S
C292 C291 1.359 1_455 S
C292 C294 1.391 . S
C292 H295 0.929 . S
C293 H275 0.930 . S
C293 N289 1.334 . S
C293 C291 1.394 . S
C294 C290 1.413 . S
C294 C292 1.391 . S
C294 C309 1.437 . S
H295 C292 0.929 . S
O296 Gd252 2.545 . S
O296 C311 1.258 . S
O297 Gd252 2.606 . S
O297 Gd253 2.362 . S
O297 C308 1.284 . S
O298 Gd253 2.324 . S
O298 C318 1.254 . S
O299 Gd252 2.429 . S
O299 C318 1.268 . S
O300 Gd252 2.545 . S
O300 C308 1.250 . S
O301 Gd252 2.412 . S
O301 C311 1.252 . S
O302 Gd253 2.545 . S
O302 C320 1.258 . S
O303 Gd252 2.362 . S
O303 Gd253 2.606 . S
O303 C319 1.284 . S
O304 Gd252 2.324 . S
O304 C327 1.254 . S
O305 Gd253 2.429 . S
O305 C327 1.268 . S
O306 Gd253 2.545 . S
O306 C319 1.250 . S
O307 Gd253 2.412 . S
O307 C320 1.252 . S
C308 O297 1.284 . S
C308 O300 1.250 . S
C309 H278 0.929 . S
C309 C294 1.437 . S
C309 C310 1.317 . S
C310 H281 0.930 . S
C310 C286 1.431 . S
C310 C309 1.317 . S
C311 Gd252 2.828 . S
C311 O296 1.258 . S
C311 O301 1.252 . S
C311 C312 1.497 . S
C312 C311 1.497 . S
C312 C313 1.395 1_655 S
C312 C314 1.380 1_655 S
C313 C312 1.395 1_455 S
C313 C316 1.398 . S
C313 H328 0.930 1_455 S
C314 C312 1.380 1_455 S
C314 C315 1.391 . S
C314 H329 0.930 . S
C315 C314 1.391 . S
C315 C317 1.387 . S
C316 C313 1.398 . S
C316 C317 1.380 . S
C316 H330 0.930 . S
C317 C315 1.387 . S
C317 C316 1.380 . S
C317 H331 0.930 . S
C318 O298 1.254 . S
C318 O299 1.268 . S
C319 O303 1.284 . S
C319 O306 1.250 . S
C320 Gd253 2.828 . S
C320 O302 1.258 . S
C320 O307 1.252 . S
C320 C321 1.497 . S
C321 C320 1.497 . S
C321 C322 1.395 1_545 S
C321 C323 1.380 . S
C322 C321 1.395 1_565 S
C322 C325 1.398 . S
C322 H332 0.930 . S
C323 C321 1.380 . S
C323 C324 1.391 . S
C323 H333 0.930 . S
C324 C323 1.391 . S
C324 C326 1.387 . S
C325 C322 1.398 . S
C325 C326 1.380 1_565 S
C325 H334 0.930 . S
C326 C324 1.387 . S
C326 C325 1.380 1_545 S
C326 H335 0.930 . S
C327 O304 1.254 . S
C327 O305 1.268 . S
H328 C313 0.930 1_655 S
H329 C314 0.930 . S
H330 C316 0.930 . S
H331 C317 0.930 . S
H332 C322 0.930 . S
H333 C323 0.930 . S
H334 C325 0.930 . S
H335 C326 0.930 . S
C336 C337 1.387 . S
C336 H340 0.950 . S
C336 C345 1.390 . S
C337 C336 1.387 . S
C337 C339 1.387 1_556 S
H338 C345 0.950 . S
C339 C337 1.387 1_554 S
C339 C341 1.390 . S
C339 H343 0.950 . S
H340 C336 0.950 . S
C341 C339 1.390 . S
C341 C342 1.387 . S
C341 H344 0.950 . S
C342 C341 1.387 . S
C342 C345 1.387 1_554 S
H343 C339 0.950 . S
H344 C341 0.950 . S
C345 C336 1.390 . S
C345 H338 0.950 . S
C345 C342 1.387 1_556 S
C346 C347 1.387 . S
C346 H350 0.950 . S
C346 C355 1.390 . S
C347 C346 1.387 . S
C347 C349 1.387 . S
H348 C355 0.950 . S
C349 C347 1.387 . S
C349 C351 1.390 . S
C349 H353 0.950 . S
H350 C346 0.950 . S
C351 C349 1.390 . S
C351 C352 1.387 . S
C351 H354 0.950 . S
C352 C351 1.387 . S
C352 C355 1.387 . S
H353 C349 0.950 . S
H354 C351 0.950 . S
C355 C346 1.390 . S
C355 H348 0.950 . S
C355 C352 1.387 . S
C356 C357 1.388 . S
C356 H360 0.950 . S
C356 C365 1.390 1_445 S
C357 C356 1.388 . S
C357 C359 1.387 1_556 S
H358 C365 0.950 . S
C359 C357 1.387 1_554 S
C359 C361 1.390 1_445 S
C359 H363 0.950 . S
H360 C356 0.950 . S
C361 C359 1.390 1_665 S
C361 C362 1.388 . S
C361 H364 0.950 . S
C362 C361 1.388 . S
C362 C365 1.387 1_554 S
H363 C359 0.950 . S
H364 C361 0.950 . S
C365 C356 1.390 1_665 S
C365 H358 0.950 . S
C365 C362 1.387 1_556 S
C366 C367 1.387 . S
C366 H370 0.950 . S
C366 C375 1.390 1_655 S
C367 C366 1.387 . S
C367 C369 1.387 1_545 S
H368 C375 0.950 . S
C369 C367 1.387 1_565 S
C369 C371 1.390 1_655 S
C369 H373 0.950 . S
H370 C366 0.950 . S
C371 C369 1.390 1_455 S
C371 C372 1.387 . S
C371 H374 0.950 . S
C372 C371 1.387 . S
C372 C375 1.387 1_565 S
H373 C369 0.950 . S
H374 C371 0.950 . S
C375 C366 1.390 1_455 S
C375 H368 0.950 . S
C375 C372 1.387 1_545 S
C376 C377 1.387 . S
C376 H380 0.950 . S
C376 C385 1.390 . S
C377 C376 1.387 . S
C377 C379 1.387 . S
H378 C385 0.950 . S
C379 C377 1.387 . S
C379 C381 1.390 . S
C379 H383 0.950 . S
H380 C376 0.950 . S
C381 C379 1.390 . S
C381 C382 1.387 . S
C381 H384 0.950 . S
C382 C381 1.387 . S
C382 C385 1.387 . S
H383 C379 0.950 . S
H384 C381 0.950 . S
C385 C376 1.390 . S
C385 H378 0.950 . S
C385 C382 1.387 . S
C386 C387 1.387 . S
C386 H390 0.950 . S
C386 C395 1.390 . S
C387 C386 1.387 . S
C387 C389 1.387 . S
H388 C395 0.950 . S
C389 C387 1.387 . S
C389 C391 1.390 . S
C389 H393 0.950 . S
H390 C386 0.950 . S
C391 C389 1.390 . S
C391 C392 1.387 . S
C391 H394 0.950 . S
C392 C391 1.387 . S
C392 C395 1.387 . S
H393 C389 0.950 . S
H394 C391 0.950 . S
C395 C386 1.390 . S
C395 H388 0.950 . S
C395 C392 1.387 . S
C396 C397 1.387 . S
C396 H400 0.950 . S
C396 C405 1.390 . S
C397 C396 1.387 . S
C397 C399 1.387 . S
H398 C405 0.950 . S
C399 C397 1.387 . S
C399 C401 1.390 . S
C399 H403 0.950 . S
H400 C396 0.950 . S
C401 C399 1.390 . S
C401 C402 1.387 . S
C401 H404 0.950 . S
C402 C401 1.387 . S
C402 C405 1.387 . S
H403 C399 0.950 . S
H404 C401 0.950 . S
C405 C396 1.390 . S
C405 H398 0.950 . S
C405 C402 1.387 . S
C406 C407 1.387 . S
C406 H410 0.950 . S
C406 C415 1.390 . S
C407 C406 1.387 . S
C407 C409 1.387 . S
H408 C415 0.950 . S
C409 C407 1.387 . S
C409 C411 1.390 . S
C409 H413 0.950 . S
H410 C406 0.950 . S
C411 C409 1.390 . S
C411 C412 1.387 . S
C411 H414 0.950 . S
C412 C411 1.387 . S
C412 C415 1.387 . S
H413 C409 0.950 . S
H414 C411 0.950 . S
C415 C406 1.390 . S
C415 H408 0.950 . S
C415 C412 1.387 . S
C416 C417 1.387 . S
C416 H420 0.950 . S
C416 C425 1.390 . S
C417 C416 1.387 . S
C417 C419 1.387 . S
H418 C425 0.950 . S
C419 C417 1.387 . S
C419 C421 1.390 . S
C419 H423 0.950 . S
H420 C416 0.950 . S
C421 C419 1.390 . S
C421 C422 1.387 . S
C421 H424 0.950 . S
C422 C421 1.387 . S
C422 C425 1.387 . S
H423 C419 0.950 . S
H424 C421 0.950 . S
C425 C416 1.390 . S
C425 H418 0.950 . S
C425 C422 1.387 . S
C426 C427 1.387 . S
C426 H430 0.950 1_655 S
C426 C435 1.390 . S
C427 C426 1.387 . S
C427 C429 1.387 . S
H428 C435 0.950 1_455 S
C429 C427 1.387 . S
C429 C431 1.390 . S
C429 H433 0.950 . S
H430 C426 0.950 1_455 S
C431 C429 1.390 . S
C431 C432 1.387 . S
C431 H434 0.950 . S
C432 C431 1.387 . S
C432 C435 1.387 . S
H433 C429 0.950 . S
H434 C431 0.950 . S
C435 C426 1.390 . S
C435 H428 0.950 1_655 S
C435 C432 1.387 . S
C436 C437 1.387 . S
C436 H440 0.950 . S
C436 C445 1.390 . S
C437 C436 1.387 . S
C437 C439 1.387 . S
H438 C445 0.950 . S
C439 C437 1.387 . S
C439 C441 1.390 . S
C439 H443 0.950 1_455 S
H440 C436 0.950 . S
C441 C439 1.390 . S
C441 C442 1.387 . S
C441 H444 0.950 . S
C442 C441 1.387 . S
C442 C445 1.387 . S
H443 C439 0.950 1_655 S
H444 C441 0.950 . S
C445 C436 1.390 . S
C445 H438 0.950 . S
C445 C442 1.387 . S
C446 C447 1.387 . S
C446 H450 0.950 . S
C446 C455 1.390 . S
C447 C446 1.387 . S
C447 C449 1.387 . S
H448 C455 0.950 . S
C449 C447 1.387 . S
C449 C451 1.390 . S
C449 H453 0.950 . S
H450 C446 0.950 . S
C451 C449 1.390 . S
C451 C452 1.387 . S
C451 H454 0.950 . S
C452 C451 1.387 . S
C452 C455 1.387 . S
H453 C449 0.950 . S
H454 C451 0.950 . S
C455 C446 1.390 . S
C455 H448 0.950 . S
C455 C452 1.387 . S
C337 C150 1.522 . S
C342 C75 1.522 . S
C347 C243 1.525 . S
C352 C318 1.525 . S
C357 C66 1.523 . S
C362 C159 1.523 . S
C367 C327 1.522 . S
C372 C234 1.522 . S
C377 C324 1.400 . S
C382 C67 1.347 . S
C387 C156 1.400 . S
C392 C235 1.347 . S
C397 C140 1.350 . S
C402 C231 1.404 . S
C407 C308 1.351 . S
C412 C63 1.403 . S
C417 C151 1.352 . S
C422 C240 1.399 . S
C427 C319 1.351 . S
C432 C72 1.400 . S
C437 C315 1.402 . S
C442 C56 1.354 . S
C447 C224 1.349 . S
C452 C147 1.403 . S
