# Generated by pormake.
# Topology gis, (4)-cn, num edge types: 1
# Building blocks:
#     Node 0, Type 0, BuildingBlock: AZAVOO_clean_sbu_0, # of connection points: 4
#     Node 1, Type 0, BuildingBlock: AZAVOO_clean_sbu_0, # of connection points: 4
#     Node 2, Type 0, BuildingBlock: AZAVOO_clean_sbu_0, # of connection points: 4
#     Node 3, Type 0, BuildingBlock: AZAVOO_clean_sbu_0, # of connection points: 4
#     Node 4, Type 0, BuildingBlock: AZAVOO_clean_sbu_0, # of connection points: 4
#     Node 5, Type 0, BuildingBlock: AZAVOO_clean_sbu_0, # of connection points: 4
#     Node 6, Type 0, BuildingBlock: AZAVOO_clean_sbu_0, # of connection points: 4
#     Node 7, Type 0, BuildingBlock: AZAVOO_clean_sbu_0, # of connection points: 4
#     Node 8, Type 0, BuildingBlock: AZAVOO_clean_sbu_0, # of connection points: 4
#     Node 9, Type 0, BuildingBlock: AZAVOO_clean_sbu_0, # of connection points: 4
#     Node 10, Type 0, BuildingBlock: AZAVOO_clean_sbu_0, # of connection points: 4
#     Node 11, Type 0, BuildingBlock: AZAVOO_clean_sbu_0, # of connection points: 4
#     Node 12, Type 0, BuildingBlock: AZAVOO_clean_sbu_0, # of connection points: 4
#     Node 13, Type 0, BuildingBlock: AZAVOO_clean_sbu_0, # of connection points: 4
#     Node 14, Type 0, BuildingBlock: AZAVOO_clean_sbu_0, # of connection points: 4
#     Node 15, Type 0, BuildingBlock: AZAVOO_clean_sbu_0, # of connection points: 4
#     Edge 16, Type (0, 0), BuildingBlock: ZUJKAS_clean_linker_0, # of connection points: 2
#     Edge 17, Type (0, 0), BuildingBlock: ZUJKAS_clean_linker_0, # of connection points: 2
#     Edge 18, Type (0, 0), BuildingBlock: ZUJKAS_clean_linker_0, # of connection points: 2
#     Edge 19, Type (0, 0), BuildingBlock: ZUJKAS_clean_linker_0, # of connection points: 2
#     Edge 20, Type (0, 0), BuildingBlock: ZUJKAS_clean_linker_0, # of connection points: 2
#     Edge 21, Type (0, 0), BuildingBlock: ZUJKAS_clean_linker_0, # of connection points: 2
#     Edge 22, Type (0, 0), BuildingBlock: ZUJKAS_clean_linker_0, # of connection points: 2
#     Edge 23, Type (0, 0), BuildingBlock: ZUJKAS_clean_linker_0, # of connection points: 2
#     Edge 24, Type (0, 0), BuildingBlock: ZUJKAS_clean_linker_0, # of connection points: 2
#     Edge 25, Type (0, 0), BuildingBlock: ZUJKAS_clean_linker_0, # of connection points: 2
#     Edge 26, Type (0, 0), BuildingBlock: ZUJKAS_clean_linker_0, # of connection points: 2
#     Edge 27, Type (0, 0), BuildingBlock: ZUJKAS_clean_linker_0, # of connection points: 2
#     Edge 28, Type (0, 0), BuildingBlock: ZUJKAS_clean_linker_0, # of connection points: 2
#     Edge 29, Type (0, 0), BuildingBlock: ZUJKAS_clean_linker_0, # of connection points: 2
#     Edge 30, Type (0, 0), BuildingBlock: ZUJKAS_clean_linker_0, # of connection points: 2
#     Edge 31, Type (0, 0), BuildingBlock: ZUJKAS_clean_linker_0, # of connection points: 2
#     Edge 32, Type (0, 0), BuildingBlock: ZUJKAS_clean_linker_0, # of connection points: 2
#     Edge 33, Type (0, 0), BuildingBlock: ZUJKAS_clean_linker_0, # of connection points: 2
#     Edge 34, Type (0, 0), BuildingBlock: ZUJKAS_clean_linker_0, # of connection points: 2
#     Edge 35, Type (0, 0), BuildingBlock: ZUJKAS_clean_linker_0, # of connection points: 2
#     Edge 36, Type (0, 0), BuildingBlock: ZUJKAS_clean_linker_0, # of connection points: 2
#     Edge 37, Type (0, 0), BuildingBlock: ZUJKAS_clean_linker_0, # of connection points: 2
#     Edge 38, Type (0, 0), BuildingBlock: ZUJKAS_clean_linker_0, # of connection points: 2
#     Edge 39, Type (0, 0), BuildingBlock: ZUJKAS_clean_linker_0, # of connection points: 2
#     Edge 40, Type (0, 0), BuildingBlock: ZUJKAS_clean_linker_0, # of connection points: 2
#     Edge 41, Type (0, 0), BuildingBlock: ZUJKAS_clean_linker_0, # of connection points: 2
#     Edge 42, Type (0, 0), BuildingBlock: ZUJKAS_clean_linker_0, # of connection points: 2
#     Edge 43, Type (0, 0), BuildingBlock: ZUJKAS_clean_linker_0, # of connection points: 2
#     Edge 44, Type (0, 0), BuildingBlock: ZUJKAS_clean_linker_0, # of connection points: 2
#     Edge 45, Type (0, 0), BuildingBlock: ZUJKAS_clean_linker_0, # of connection points: 2
#     Edge 46, Type (0, 0), BuildingBlock: ZUJKAS_clean_linker_0, # of connection points: 2
#     Edge 47, Type (0, 0), BuildingBlock: ZUJKAS_clean_linker_0, # of connection points: 2
# Relax obj value: 0.172
# Max RMSD: 0.154
# Mean RMSD: 0.152
data_MOF--net-gis--node1-AZAVOO_clean_sbu_0--edge1-ZUJKAS_clean_linker_0
_symmetry_space_group_name_H-M    P1
_symmetry_Int_Tables_number       1
_symmetry_cell_setting            triclinic
loop_
_symmetry_equiv_pos_as_xyz
'x, y, z'
_cell_length_a     59.889146
_cell_length_b     57.089653
_cell_length_c     66.52355
_cell_angle_alpha  90.188218
_cell_angle_beta   90.086823
_cell_angle_gamma 90.205665
loop_
_atom_site_label
_atom_site_type_symbol
_atom_site_fract_x
_atom_site_fract_y
_atom_site_fract_z
_atom_type_partial_charge
Mg0 Mg 0.1751 0.60442 0.1105 0.0
O1 O 0.13852 0.59861 0.12067 0.0
O2 O 0.1325 0.62254 0.14676 0.0
Mg3 Mg 0.16485 0.64169 0.15452 0.0
C4 C 0.12568 0.60725 0.13411 0.0
C5 C 0.18725 0.57445 0.0747 0.0
O6 O 0.20229 0.59126 0.07525 0.0
O7 O 0.18853 0.58233 0.13661 0.0
O8 O 0.18193 0.60689 0.16222 0.0
O9 O 0.16453 0.63475 0.0916 0.0
O10 O 0.17544 0.63788 0.1232 0.0
C11 C 0.18944 0.58755 0.1553 0.0
C12 C 0.16781 0.6478 0.10729 0.0
O13 O 0.17278 0.57356 0.08866 0.0
Mg14 Mg 0.67651 0.89708 0.36715 0.0
O15 O 0.63895 0.89564 0.35976 0.0
O16 O 0.6339 0.87034 0.33445 0.0
Mg17 Mg 0.66797 0.85696 0.32466 0.0
C18 C 0.62623 0.88469 0.34744 0.0
C19 C 0.68804 0.93807 0.39549 0.0
O20 O 0.70782 0.93172 0.38897 0.0
O21 O 0.68291 0.92048 0.33984 0.0
O22 O 0.67708 0.89438 0.31514 0.0
O23 O 0.67235 0.86618 0.38722 0.0
O24 O 0.68091 0.86371 0.35498 0.0
C25 C 0.68183 0.91506 0.32121 0.0
C26 C 0.67592 0.85331 0.37151 0.0
O27 O 0.67086 0.92796 0.38828 0.0
Mg28 Mg 0.30084 0.38728 0.61044 0.0
O29 O 0.33824 0.39053 0.61801 0.0
O30 O 0.34555 0.36674 0.64378 0.0
Mg31 Mg 0.31318 0.34828 0.65273 0.0
C32 C 0.35182 0.38173 0.63073 0.0
C33 C 0.28605 0.42638 0.5809 0.0
O34 O 0.26671 0.41653 0.58493 0.0
O35 O 0.29201 0.40982 0.63802 0.0
O36 O 0.29861 0.3836 0.66216 0.0
O37 O 0.30799 0.35665 0.5902 0.0
O38 O 0.29997 0.35354 0.62241 0.0
C39 C 0.29204 0.40382 0.65653 0.0
C40 C 0.3057 0.34352 0.60589 0.0
O41 O 0.30345 0.41895 0.58976 0.0
Mg42 Mg 0.83648 0.06402 0.85913 0.0
O43 O 0.83351 0.10424 0.86236 0.0
O44 O 0.85854 0.11481 0.88572 0.0
Mg45 Mg 0.87778 0.08288 0.89653 0.0
C46 C 0.84315 0.11986 0.87317 0.0
C47 C 0.8045 0.04391 0.82911 0.0
O48 O 0.82099 0.02887 0.83054 0.0
O49 O 0.81859 0.05813 0.88918 0.0
O50 O 0.84588 0.06808 0.91058 0.0
O51 O 0.86276 0.06869 0.83567 0.0
O52 O 0.86956 0.06539 0.86817 0.0
C53 C 0.82622 0.06029 0.90707 0.0
C54 C 0.87703 0.06881 0.8503 0.0
O55 O 0.80466 0.06177 0.84059 0.0
Mg56 Mg 0.17391 0.39977 0.86368 0.0
O57 O 0.13637 0.39679 0.85671 0.0
O58 O 0.13187 0.37045 0.8321 0.0
Mg59 Mg 0.16619 0.35714 0.82279 0.0
C60 C 0.12389 0.38507 0.84471 0.0
C61 C 0.18406 0.44278 0.89067 0.0
O62 O 0.20399 0.43815 0.88348 0.0
O63 O 0.17925 0.42222 0.83536 0.0
O64 O 0.17513 0.39404 0.81223 0.0
O65 O 0.17104 0.3695 0.8848 0.0
O66 O 0.17916 0.366 0.85259 0.0
C67 C 0.17912 0.41534 0.81703 0.0
C68 C 0.17477 0.3561 0.86945 0.0
O69 O 0.16744 0.43108 0.88419 0.0
Mg70 Mg 0.79902 0.88711 0.10985 0.0
O71 O 0.83728 0.89071 0.11355 0.0
O72 O 0.84707 0.86848 0.13975 0.0
Mg73 Mg 0.81593 0.85215 0.15341 0.0
C74 C 0.85205 0.88229 0.12539 0.0
C75 C 0.78338 0.91619 0.07393 0.0
O76 O 0.76931 0.89847 0.07405 0.0
O77 O 0.79369 0.91185 0.13638 0.0
O78 O 0.80347 0.88883 0.16203 0.0
O79 O 0.80268 0.855 0.09078 0.0
O80 O 0.79975 0.85436 0.12384 0.0
C81 C 0.79638 0.90833 0.15517 0.0
C82 C 0.80257 0.84303 0.10728 0.0
O83 O 0.7984 0.91723 0.08743 0.0
Mg84 Mg 0.32773 0.56479 0.35547 0.0
O85 O 0.33272 0.60378 0.36207 0.0
O86 O 0.36467 0.60934 0.37867 0.0
Mg87 Mg 0.37981 0.57299 0.38387 0.0
C88 C 0.34701 0.61728 0.37039 0.0
C89 C 0.27659 0.57673 0.33565 0.0
O90 O 0.25652 0.58333 0.3412 0.0
O91 O 0.31826 0.55769 0.38828 0.0
O92 O 0.3507 0.5628 0.40443 0.0
O93 O 0.34964 0.56886 0.32753 0.0
O94 O 0.3618 0.55891 0.35751 0.0
C95 C 0.32988 0.55784 0.40442 0.0
C96 C 0.36626 0.56383 0.33921 0.0
O97 O 0.29112 0.57337 0.34928 0.0
Mg98 Mg 0.67899 0.10975 0.60991 0.0
O99 O 0.64151 0.10679 0.61644 0.0
O100 O 0.63266 0.13188 0.64102 0.0
Mg101 Mg 0.66489 0.14909 0.65181 0.0
C102 C 0.62724 0.11629 0.62811 0.0
C103 C 0.69171 0.07698 0.57542 0.0
O104 O 0.70835 0.09203 0.57613 0.0
O105 O 0.68613 0.08723 0.63764 0.0
O106 O 0.6771 0.11297 0.66173 0.0
O107 O 0.67285 0.14032 0.58969 0.0
O108 O 0.67978 0.1434 0.62219 0.0
C109 C 0.68389 0.09277 0.65618 0.0
C110 C 0.67465 0.15341 0.60554 0.0
O111 O 0.67642 0.07846 0.58859 0.0
Mg112 Mg 0.84436 0.4217 0.85432 0.0
O113 O 0.84172 0.3817 0.85883 0.0
O114 O 0.86484 0.37242 0.88394 0.0
Mg115 Mg 0.88101 0.40568 0.89624 0.0
C116 C 0.85079 0.36658 0.87035 0.0
C117 C 0.81558 0.43533 0.81852 0.0
O118 O 0.83311 0.44915 0.81726 0.0
O119 O 0.82265 0.42852 0.88202 0.0
O120 O 0.84674 0.41906 0.90639 0.0
O121 O 0.87382 0.41648 0.83413 0.0
O122 O 0.87626 0.42217 0.86689 0.0
C123 C 0.82764 0.42637 0.90061 0.0
C124 C 0.88609 0.41781 0.85014 0.0
O125 O 0.81441 0.42104 0.83311 0.0
Mg126 Mg 0.35504 0.04434 0.6178 0.0
O127 O 0.3534 0.08436 0.61364 0.0
O128 O 0.37585 0.09382 0.58806 0.0
Mg129 Mg 0.39105 0.06039 0.57541 0.0
C130 C 0.36228 0.09953 0.602 0.0
C131 C 0.30907 0.05783 0.64069 0.0
O132 O 0.30303 0.06966 0.62468 0.0
O133 O 0.33209 0.03914 0.59059 0.0
O134 O 0.35598 0.04817 0.56595 0.0
O135 O 0.38452 0.04781 0.63794 0.0
O136 O 0.38671 0.04416 0.60489 0.0
C137 C 0.33672 0.04148 0.57194 0.0
C138 C 0.39656 0.04771 0.62185 0.0
O139 O 0.32707 0.04616 0.6406 0.0
Mg140 Mg 0.64266 0.55288 0.34815 0.0
O141 O 0.64357 0.59198 0.35656 0.0
O142 O 0.61775 0.59819 0.38021 0.0
Mg143 Mg 0.60091 0.56336 0.38747 0.0
C144 C 0.63319 0.6056 0.36861 0.0
C145 C 0.67434 0.56358 0.31255 0.0
O146 O 0.65472 0.56876 0.30497 0.0
O147 O 0.66129 0.54418 0.37725 0.0
O148 O 0.63448 0.55046 0.40009 0.0
O149 O 0.61585 0.55988 0.32548 0.0
O150 O 0.60908 0.55092 0.35708 0.0
C151 C 0.65435 0.54457 0.39538 0.0
C152 C 0.60151 0.5572 0.33979 0.0
O153 O 0.67546 0.55675 0.3307 0.0
Mg154 Mg 0.12666 0.94767 0.12413 0.0
O155 O 0.12718 0.90783 0.11805 0.0
O156 O 0.10583 0.90086 0.09104 0.0
Mg157 Mg 0.09211 0.93534 0.07951 0.0
C158 C 0.11851 0.89377 0.10519 0.0
C159 C 0.15126 0.94568 0.16513 0.0
O160 O 0.1306 0.94956 0.17079 0.0
O161 O 0.15069 0.95336 0.09787 0.0
O162 O 0.12809 0.94575 0.07182 0.0
O163 O 0.09574 0.94398 0.1428 0.0
O164 O 0.09556 0.94954 0.10997 0.0
C165 C 0.14716 0.95139 0.079 0.0
C166 C 0.08461 0.94535 0.12618 0.0
O167 O 0.15555 0.94407 0.14646 0.0
Mg168 Mg 0.85212 0.54264 0.12047 0.0
O169 O 0.84673 0.58242 0.11697 0.0
O170 O 0.87266 0.59571 0.09562 0.0
Mg171 Mg 0.89256 0.56466 0.08387 0.0
C172 C 0.85621 0.59909 0.10743 0.0
C173 C 0.80003 0.53929 0.14487 0.0
O174 O 0.78223 0.53267 0.13475 0.0
O175 O 0.83551 0.5362 0.09026 0.0
O176 O 0.86063 0.5504 0.06854 0.0
O177 O 0.8776 0.54879 0.1447 0.0
O178 O 0.88522 0.54649 0.1122 0.0
C179 C 0.8418 0.54082 0.0724 0.0
C180 C 0.89198 0.55052 0.13026 0.0
O181 O 0.81873 0.54047 0.13606 0.0
Mg182 Mg 0.15278 0.05391 0.85689 0.0
O183 O 0.15138 0.0936 0.86319 0.0
O184 O 0.12512 0.09969 0.88648 0.0
Mg185 Mg 0.1111 0.06448 0.89604 0.0
C186 C 0.14001 0.1073 0.87443 0.0
C187 C 0.18258 0.04528 0.82239 0.0
O188 O 0.16601 0.03018 0.82122 0.0
O189 O 0.1727 0.04834 0.88581 0.0
O190 O 0.14584 0.05556 0.90835 0.0
O191 O 0.1259 0.05785 0.83425 0.0
O192 O 0.11976 0.05043 0.86637 0.0
C193 C 0.16598 0.0504 0.90393 0.0
C194 C 0.11187 0.05543 0.84886 0.0
O195 O 0.18364 0.05869 0.83764 0.0
Mg196 Mg 0.62573 0.45193 0.62212 0.0
O197 O 0.62804 0.41238 0.61541 0.0
O198 O 0.60528 0.40422 0.58964 0.0
Mg199 Mg 0.58891 0.43806 0.57947 0.0
C200 C 0.61936 0.39788 0.60295 0.0
C201 C 0.65404 0.43541 0.65812 0.0
O202 O 0.63588 0.42258 0.65977 0.0
O203 O 0.64772 0.45973 0.59463 0.0
O204 O 0.62357 0.45103 0.57 0.0
O205 O 0.59654 0.44561 0.64227 0.0
O206 O 0.59347 0.45258 0.60981 0.0
C207 C 0.6428 0.45789 0.57598 0.0
C208 C 0.58397 0.4471 0.6265 0.0
O209 O 0.65575 0.44939 0.64334 0.0
Mg210 Mg 0.34634 0.91981 0.35644 0.0
O211 O 0.34258 0.88029 0.36321 0.0
O212 O 0.36469 0.87264 0.38945 0.0
Mg213 Mg 0.38135 0.90641 0.40009 0.0
C214 C 0.3509 0.86599 0.37592 0.0
C215 C 0.3209 0.92656 0.31726 0.0
O216 O 0.34101 0.93459 0.31335 0.0
O217 O 0.32408 0.92929 0.38314 0.0
O218 O 0.34691 0.92086 0.40883 0.0
O219 O 0.37601 0.91219 0.33722 0.0
O220 O 0.37797 0.92046 0.36961 0.0
C221 C 0.32825 0.92809 0.40194 0.0
C222 C 0.38802 0.91458 0.35329 0.0
O223 O 0.3169 0.91849 0.33469 0.0
H224 H 0.10457 0.85933 0.07945 0.0
H225 H 0.11315 0.81773 0.08066 0.0
H226 H 0.15229 0.82868 0.13434 0.0
H227 H 0.14409 0.87069 0.13315 0.0
H228 H 0.17337 0.80065 0.10543 0.0
H229 H 0.08685 0.76986 0.11942 0.0
H230 H 0.08926 0.78863 0.09794 0.0
H231 H 0.09518 0.80007 0.12261 0.0
C232 C 0.11492 0.85299 0.09162 0.0
C233 C 0.12352 0.8684 0.1063 0.0
C234 C 0.11971 0.82913 0.09232 0.0
C235 C 0.13299 0.82008 0.10778 0.0
C236 C 0.14185 0.83535 0.12236 0.0
H237 H 0.17642 0.67972 0.13692 0.0
H238 H 0.16831 0.7216 0.13681 0.0
C239 C 0.13711 0.85932 0.12167 0.0
C240 C 0.13799 0.79473 0.10836 0.0
H241 H 0.11337 0.74073 0.11018 0.0
C242 C 0.1603 0.78754 0.10665 0.0
C243 C 0.12085 0.7777 0.1099 0.0
C244 C 0.09671 0.78441 0.11277 0.0
C245 C 0.16586 0.76369 0.10601 0.0
C246 C 0.14869 0.74674 0.10724 0.0
C247 C 0.12643 0.75388 0.10908 0.0
C248 C 0.15357 0.72142 0.10713 0.0
C249 C 0.18999 0.7567 0.10364 0.0
C250 C 0.14761 0.70749 0.09056 0.0
C251 C 0.15213 0.68347 0.09057 0.0
C252 C 0.16249 0.67305 0.10727 0.0
C253 C 0.16825 0.68713 0.12389 0.0
C254 C 0.1638 0.7111 0.12382 0.0
H255 H 0.20083 0.77185 0.09976 0.0
H256 H 0.19609 0.74908 0.11795 0.0
H257 H 0.19164 0.7431 0.09177 0.0
H258 H 0.13961 0.71524 0.07758 0.0
H259 H 0.14755 0.6731 0.07753 0.0
H260 H 0.41831 0.92673 0.38212 0.0
H261 H 0.45883 0.92225 0.38096 0.0
H262 H 0.45327 0.88824 0.32314 0.0
H263 H 0.41273 0.89339 0.32391 0.0
H264 H 0.48478 0.88441 0.37914 0.0
H265 H 0.49866 0.93813 0.31099 0.0
H266 H 0.4722 0.93733 0.32389 0.0
H267 H 0.47972 0.91421 0.30675 0.0
C268 C 0.4257 0.91826 0.36916 0.0
C269 C 0.41236 0.91054 0.35304 0.0
C270 C 0.44888 0.91574 0.36851 0.0
C271 C 0.45915 0.90537 0.35177 0.0
C272 C 0.44578 0.89694 0.33594 0.0
H273 H 0.5943 0.86647 0.32238 0.0
H274 H 0.55396 0.87208 0.32401 0.0
C275 C 0.42261 0.89971 0.33646 0.0
C276 C 0.48381 0.90314 0.35109 0.0
H277 H 0.5298 0.91639 0.32295 0.0
C278 C 0.49463 0.89154 0.36692 0.0
C279 C 0.49667 0.91257 0.33518 0.0
C280 C 0.48625 0.92646 0.31835 0.0
C281 C 0.51789 0.88867 0.36706 0.0
C282 C 0.53063 0.89773 0.35099 0.0
C283 C 0.5199 0.90942 0.33521 0.0
C284 C 0.55513 0.89479 0.35006 0.0
C285 C 0.52865 0.87554 0.38415 0.0
C286 C 0.56913 0.90598 0.36405 0.0
C287 C 0.59227 0.90287 0.36317 0.0
C288 C 0.60177 0.8885 0.34826 0.0
C289 C 0.5876 0.87758 0.33412 0.0
C290 C 0.56453 0.88077 0.33499 0.0
H291 H 0.51618 0.86587 0.39331 0.0
H292 H 0.54118 0.86292 0.37836 0.0
H293 H 0.53746 0.88817 0.39412 0.0
H294 H 0.56216 0.91715 0.37563 0.0
H295 H 0.60266 0.91163 0.37424 0.0
H296 H 0.32399 0.31794 0.57508 0.0
H297 H 0.33266 0.27597 0.57498 0.0
H298 H 0.30727 0.26997 0.63537 0.0
H299 H 0.2985 0.31164 0.6356 0.0
H300 H 0.34989 0.24933 0.62934 0.0
H301 H 0.28766 0.22056 0.57218 0.0
H302 H 0.30549 0.24439 0.56471 0.0
H303 H 0.28597 0.24852 0.58488 0.0
C304 C 0.32018 0.30765 0.5883 0.0
C305 C 0.31073 0.31817 0.6054 0.0
C306 C 0.32505 0.28368 0.58818 0.0
C307 C 0.32044 0.26989 0.60512 0.0
C308 C 0.31097 0.28034 0.62216 0.0
H309 H 0.32641 0.11838 0.62184 0.0
H310 H 0.31588 0.15986 0.6237 0.0
C311 C 0.30606 0.3042 0.62228 0.0
C312 C 0.32599 0.24465 0.60541 0.0
H313 H 0.31367 0.19209 0.5833 0.0
C314 C 0.34193 0.2368 0.61932 0.0
C315 C 0.31538 0.22836 0.59246 0.0
C316 C 0.29752 0.23575 0.5778 0.0
C317 C 0.34791 0.21309 0.62029 0.0
C318 C 0.33767 0.19695 0.60706 0.0
C319 C 0.32146 0.20465 0.59339 0.0
C320 C 0.34429 0.17209 0.60664 0.0
C321 C 0.36519 0.20534 0.63535 0.0
C322 C 0.36375 0.16547 0.59649 0.0
C323 C 0.36972 0.14191 0.59526 0.0
C324 C 0.35638 0.12455 0.60428 0.0
C325 C 0.33707 0.13134 0.6148 0.0
C326 C 0.33099 0.15496 0.61583 0.0
H327 H 0.36978 0.21954 0.64606 0.0
H328 H 0.35888 0.19006 0.64397 0.0
H329 H 0.38048 0.19969 0.62728 0.0
H330 H 0.37417 0.17854 0.58931 0.0
H331 H 0.38476 0.13731 0.58716 0.0
H332 H 0.09134 0.07109 0.81475 0.0
H333 H 0.05163 0.07983 0.81014 0.0
H334 H 0.03871 0.05945 0.8714 0.0
H335 H 0.07815 0.05043 0.87611 0.0
H336 H 0.01458 0.04766 0.81629 0.0
H337 H 0.01049 0.12584 0.86573 0.0
H338 H 0.03639 0.11495 0.85546 0.0
H339 H 0.02411 0.10121 0.87709 0.0
C340 C 0.08004 0.06851 0.82726 0.0
C341 C 0.08792 0.06034 0.84589 0.0
C342 C 0.05742 0.07356 0.82459 0.0
C343 C 0.04245 0.07071 0.84055 0.0
C344 C 0.05019 0.06227 0.85905 0.0
H345 H 0.91064 0.06429 0.87743 0.0
H346 H 0.95054 0.06844 0.87166 0.0
C347 C 0.07273 0.05709 0.86171 0.0
C348 C 0.01846 0.07552 0.83787 0.0
H349 H 0.97568 0.10673 0.85828 0.0
C350 C 0.00602 0.06088 0.8251 0.0
C351 C 0.00755 0.09292 0.84931 0.0
C352 C 0.02033 0.1098 0.86254 0.0
C353 C 0.98262 0.06196 0.82467 0.0
C354 C 0.97161 0.07842 0.83708 0.0
C355 C 0.9842 0.09408 0.84884 0.0
C356 C 0.94722 0.07755 0.84025 0.0
C357 C 0.96986 0.04447 0.812 0.0
C358 C 0.9321 0.08165 0.82452 0.0
C359 C 0.90913 0.07921 0.82777 0.0
C360 C 0.90105 0.07284 0.84684 0.0
C361 C 0.91627 0.0694 0.86262 0.0
C362 C 0.93911 0.07174 0.85934 0.0
H363 H 0.98086 0.03063 0.80572 0.0
H364 H 0.95651 0.03596 0.82099 0.0
H365 H 0.9618 0.05369 0.79927 0.0
H366 H 0.93806 0.0865 0.80974 0.0
H367 H 0.89775 0.08207 0.81535 0.0
H368 H 0.15587 0.33032 0.89965 0.0
H369 H 0.15091 0.28764 0.90067 0.0
H370 H 0.18314 0.28137 0.84301 0.0
H371 H 0.1882 0.32383 0.84184 0.0
H372 H 0.12771 0.25967 0.8685 0.0
H373 H 0.21615 0.23425 0.88171 0.0
H374 H 0.20562 0.26303 0.88784 0.0
H375 H 0.21114 0.25531 0.86216 0.0
C376 C 0.16203 0.31982 0.88727 0.0
C377 C 0.17235 0.3304 0.87064 0.0
C378 C 0.15915 0.29551 0.88786 0.0
C379 C 0.16684 0.28147 0.87199 0.0
C380 C 0.17732 0.29195 0.85548 0.0
H381 H 0.16627 0.13168 0.84787 0.0
H382 H 0.17235 0.1741 0.84669 0.0
C383 C 0.18005 0.31621 0.8548 0.0
C384 C 0.1632 0.2559 0.87225 0.0
H385 H 0.19042 0.20363 0.87527 0.0
C386 C 0.14136 0.24737 0.87008 0.0
C387 C 0.18114 0.24004 0.87405 0.0
C388 C 0.20486 0.2485 0.87671 0.0
C389 C 0.13696 0.22323 0.86944 0.0
C390 C 0.15487 0.20731 0.87157 0.0
C391 C 0.17675 0.21589 0.87364 0.0
C392 C 0.15116 0.18168 0.87221 0.0
C393 C 0.11326 0.21505 0.86605 0.0
C394 C 0.13754 0.17191 0.88713 0.0
C395 C 0.13393 0.14779 0.88777 0.0
C396 C 0.14412 0.13287 0.87366 0.0
C397 C 0.15813 0.14266 0.85894 0.0
C398 C 0.16163 0.16688 0.85824 0.0
H399 H 0.10298 0.22882 0.85879 0.0
H400 H 0.11273 0.19906 0.85651 0.0
H401 H 0.10551 0.21086 0.88075 0.0
H402 H 0.12978 0.18296 0.89837 0.0
H403 H 0.12323 0.14086 0.89946 0.0
H404 H 0.86902 0.92247 0.10879 0.0
H405 H 0.9082 0.93493 0.10799 0.0
H406 H 0.92764 0.86962 0.1353 0.0
H407 H 0.88859 0.85762 0.13696 0.0
H408 H 0.94733 0.90401 0.15363 0.0
H409 H 0.95822 0.91702 0.07176 0.0
H410 H 0.9361 0.93448 0.08195 0.0
H411 H 0.93383 0.90302 0.08215 0.0
C412 C 0.88171 0.91069 0.11438 0.0
C413 C 0.87574 0.88909 0.12296 0.0
C414 C 0.90412 0.91777 0.11383 0.0
C415 C 0.92097 0.9031 0.12136 0.0
C416 C 0.91499 0.88128 0.12944 0.0
H417 H 0.06277 0.91618 0.10043 0.0
H418 H 0.02296 0.90675 0.09991 0.0
C419 C 0.89264 0.87442 0.13035 0.0
C420 C 0.94473 0.91074 0.12187 0.0
H421 H 0.98766 0.93063 0.0928 0.0
C422 C 0.95618 0.90973 0.14029 0.0
C423 C 0.95635 0.91799 0.10445 0.0
C424 C 0.94557 0.91798 0.08393 0.0
C425 C 0.97893 0.91544 0.14178 0.0
C426 C 0.9904 0.92345 0.12449 0.0
C427 C 0.97887 0.9247 0.1061 0.0
C428 C 0.01456 0.92955 0.12488 0.0
C429 C 0.9905 0.91188 0.16172 0.0
C430 C 0.0232 0.94564 0.13896 0.0
C431 C 0.0461 0.95052 0.13959 0.0
C432 C 0.06056 0.94015 0.12562 0.0
C433 C 0.0519 0.92464 0.11117 0.0
C434 C 0.02914 0.91923 0.11091 0.0
H435 H 0.98144 0.89902 0.17122 0.0
H436 H 0.00788 0.90563 0.15965 0.0
H437 H 0.99098 0.92875 0.17004 0.0
H438 H 0.01227 0.95445 0.14946 0.0
H439 H 0.05245 0.96273 0.15073 0.0
H440 H 0.30929 0.64053 0.35834 0.0
H441 H 0.30326 0.68296 0.35736 0.0
H442 H 0.3697 0.69456 0.38032 0.0
H443 H 0.37598 0.65226 0.38146 0.0
H444 H 0.32088 0.71802 0.39888 0.0
H445 H 0.34763 0.7321 0.31961 0.0
H446 H 0.33282 0.70597 0.32724 0.0
H447 H 0.3614 0.71 0.33446 0.0
C448 C 0.32266 0.65207 0.36319 0.0
C449 C 0.34314 0.64294 0.37003 0.0
C450 C 0.31914 0.67629 0.3626 0.0
C451 C 0.33607 0.69174 0.36871 0.0
C452 C 0.35647 0.68279 0.37554 0.0
H453 H 0.36683 0.8307 0.39943 0.0
H454 H 0.35887 0.78905 0.39696 0.0
C455 C 0.35999 0.65862 0.37622 0.0
C456 C 0.3326 0.71733 0.36833 0.0
H457 H 0.3429 0.76576 0.33988 0.0
C458 C 0.32536 0.72851 0.38591 0.0
C459 C 0.33808 0.73079 0.35127 0.0
C460 C 0.34537 0.71926 0.33196 0.0
C461 C 0.32451 0.75303 0.3872 0.0
C462 C 0.33166 0.76663 0.37063 0.0
C463 C 0.3376 0.75535 0.35262 0.0
C464 C 0.33536 0.79228 0.3724 0.0
C465 C 0.31632 0.76412 0.40642 0.0
C466 C 0.32523 0.80802 0.35904 0.0
C467 C 0.32993 0.83206 0.36028 0.0
C468 C 0.345 0.84072 0.37481 0.0
C469 C 0.35503 0.8248 0.38814 0.0
C470 C 0.35036 0.8009 0.38686 0.0
H471 H 0.30439 0.7524 0.41435 0.0
H472 H 0.33073 0.76721 0.41661 0.0
H473 H 0.30802 0.78114 0.40354 0.0
H474 H 0.31376 0.80169 0.34763 0.0
H475 H 0.32195 0.8438 0.34974 0.0
H476 H 0.61108 0.07473 0.61364 0.0
H477 H 0.5723 0.06126 0.61337 0.0
H478 H 0.55153 0.12688 0.6396 0.0
H479 H 0.59036 0.14003 0.64075 0.0
H480 H 0.53117 0.09182 0.65735 0.0
H481 H 0.52436 0.07943 0.57492 0.0
H482 H 0.54624 0.06224 0.58578 0.0
H483 H 0.548 0.09374 0.58647 0.0
C484 C 0.59822 0.08634 0.61922 0.0
C485 C 0.60373 0.1085 0.62709 0.0
C486 C 0.57605 0.07866 0.61897 0.0
C487 C 0.55895 0.09324 0.62609 0.0
C488 C 0.56444 0.11535 0.63398 0.0
H489 H 0.41919 0.0784 0.59834 0.0
H490 H 0.45865 0.08901 0.60054 0.0
C491 C 0.58663 0.12288 0.63458 0.0
C492 C 0.53533 0.08541 0.62565 0.0
H493 H 0.49426 0.06512 0.59453 0.0
C494 C 0.52303 0.08608 0.6436 0.0
C495 C 0.5247 0.07815 0.60766 0.0
C496 C 0.53644 0.07856 0.58759 0.0
C497 C 0.50034 0.07993 0.64404 0.0
C498 C 0.48989 0.07198 0.62616 0.0
C499 C 0.50229 0.07106 0.60827 0.0
C500 C 0.46588 0.0656 0.62528 0.0
C501 C 0.48773 0.08284 0.66353 0.0
C502 C 0.45677 0.04886 0.6384 0.0
C503 C 0.43407 0.04324 0.63744 0.0
C504 C 0.42039 0.05359 0.62285 0.0
C505 C 0.42953 0.0699 0.60947 0.0
C506 C 0.45205 0.07601 0.61079 0.0
H507 H 0.49614 0.09558 0.67372 0.0
H508 H 0.4704 0.08891 0.66083 0.0
H509 H 0.48703 0.06576 0.67141 0.0
H510 H 0.4672 0.04004 0.64928 0.0
H511 H 0.42728 0.03049 0.64781 0.0
H512 H 0.85107 0.15551 0.89952 0.0
H513 H 0.84472 0.19726 0.89453 0.0
H514 H 0.81619 0.18311 0.83621 0.0
H515 H 0.82229 0.14093 0.84114 0.0
H516 H 0.85433 0.21846 0.83964 0.0
H517 H 0.7836 0.23487 0.89165 0.0
H518 H 0.80529 0.21633 0.90136 0.0
H519 H 0.78879 0.20653 0.88038 0.0
C520 C 0.84318 0.16116 0.88571 0.0
C521 C 0.83722 0.14487 0.87071 0.0
C522 C 0.83947 0.18503 0.88294 0.0
C523 C 0.82984 0.19319 0.86509 0.0
C524 C 0.82349 0.17706 0.85016 0.0
H525 H 0.81828 0.34642 0.84653 0.0
H526 H 0.8103 0.30442 0.84226 0.0
C527 C 0.82694 0.15302 0.85302 0.0
C528 C 0.82815 0.21873 0.86177 0.0
H529 H 0.80557 0.26821 0.88218 0.0
C530 C 0.84328 0.22936 0.84853 0.0
C531 C 0.81374 0.23283 0.87344 0.0
C532 C 0.79678 0.22212 0.88742 0.0
C533 C 0.84535 0.25384 0.84763 0.0
C534 C 0.83191 0.26787 0.86022 0.0
C535 C 0.81584 0.25731 0.87256 0.0
C536 C 0.8363 0.2932 0.86259 0.0
C537 C 0.86269 0.26462 0.83407 0.0
C538 C 0.85342 0.30059 0.87552 0.0
C539 C 0.85793 0.32439 0.87809 0.0
C540 C 0.84546 0.34135 0.8677 0.0
C541 C 0.82822 0.33384 0.85473 0.0
C542 C 0.82362 0.30991 0.85227 0.0
H543 H 0.86954 0.25173 0.82318 0.0
H544 H 0.85542 0.27955 0.82566 0.0
H545 H 0.87665 0.27157 0.84336 0.0
H546 H 0.86332 0.28787 0.88362 0.0
H547 H 0.87137 0.32944 0.88814 0.0
H548 H 0.61558 0.6396 0.39288 0.0
H549 H 0.62481 0.68127 0.3935 0.0
H550 H 0.67356 0.67061 0.34678 0.0
H551 H 0.6644 0.62879 0.34589 0.0
H552 H 0.6681 0.70319 0.40017 0.0
H553 H 0.63165 0.72295 0.32515 0.0
H554 H 0.62501 0.6965 0.33875 0.0
H555 H 0.65132 0.69925 0.32605 0.0
C556 C 0.62827 0.64604 0.3827 0.0
C557 C 0.63913 0.63082 0.36922 0.0
C558 C 0.63354 0.66987 0.38313 0.0
C559 C 0.64966 0.67899 0.37004 0.0
C560 C 0.66083 0.66389 0.3568 0.0
H561 H 0.69167 0.82137 0.34468 0.0
H562 H 0.68658 0.77889 0.34519 0.0
C563 C 0.6556 0.64 0.35636 0.0
C564 C 0.65457 0.70438 0.37021 0.0
H565 H 0.64954 0.754 0.3422 0.0
C566 C 0.6641 0.71436 0.38752 0.0
C567 C 0.64935 0.71878 0.35364 0.0
C568 C 0.63861 0.70896 0.33486 0.0
C569 C 0.66881 0.73843 0.38863 0.0
C570 C 0.66323 0.75296 0.37216 0.0
C571 C 0.6538 0.74287 0.35481 0.0
C572 C 0.66697 0.77866 0.3725 0.0
C573 C 0.68016 0.74791 0.40724 0.0
C574 C 0.65754 0.7927 0.38763 0.0
C575 C 0.66071 0.81698 0.38753 0.0
C576 C 0.67293 0.82765 0.37203 0.0
C577 C 0.68211 0.81362 0.35678 0.0
C578 C 0.67923 0.78935 0.35706 0.0
H579 H 0.68941 0.73398 0.41534 0.0
H580 H 0.69201 0.76224 0.40351 0.0
H581 H 0.66733 0.75494 0.41764 0.0
H582 H 0.64743 0.78495 0.39935 0.0
H583 H 0.65323 0.82741 0.39935 0.0
H584 H 0.81297 0.61362 0.11245 0.0
H585 H 0.79938 0.65422 0.11194 0.0
H586 H 0.86733 0.67923 0.10823 0.0
H587 H 0.88078 0.63895 0.10771 0.0
H588 H 0.80474 0.69253 0.13445 0.0
H589 H 0.84104 0.7096 0.05974 0.0
H590 H 0.83958 0.68057 0.07026 0.0
H591 H 0.86224 0.70004 0.07683 0.0
C592 C 0.82494 0.62786 0.11162 0.0
C593 C 0.84788 0.62323 0.10972 0.0
C594 C 0.81718 0.651 0.11131 0.0
C595 C 0.83231 0.66974 0.10935 0.0
C596 C 0.85529 0.66505 0.10891 0.0
H597 H 0.81748 0.81505 0.13781 0.0
H598 H 0.8219 0.77275 0.13755 0.0
C599 C 0.86298 0.64204 0.10877 0.0
C600 C 0.82437 0.69424 0.10738 0.0
H601 H 0.83211 0.74365 0.07952 0.0
C602 C 0.81047 0.70366 0.12231 0.0
C603 C 0.83119 0.70861 0.09118 0.0
C604 C 0.8441 0.69908 0.07349 0.0
C605 C 0.8043 0.72739 0.12206 0.0
C606 C 0.81295 0.74224 0.10689 0.0
C607 C 0.82581 0.73247 0.0914 0.0
C608 C 0.8097 0.76805 0.10714 0.0
C609 C 0.78846 0.73616 0.138 0.0
C610 C 0.80238 0.77981 0.08981 0.0
C611 C 0.80049 0.80423 0.08975 0.0
C612 C 0.80562 0.81733 0.10708 0.0
C613 C 0.81305 0.80555 0.12433 0.0
C614 C 0.81536 0.78122 0.12426 0.0
H615 H 0.77724 0.7219 0.14327 0.0
H616 H 0.79821 0.74241 0.15118 0.0
H617 H 0.77804 0.7508 0.13239 0.0
H618 H 0.7981 0.7701 0.07632 0.0
H619 H 0.79464 0.81281 0.07624 0.0
H620 H 0.64247 0.37505 0.63267 0.0
H621 H 0.65313 0.33359 0.63335 0.0
H622 H 0.62207 0.32303 0.57552 0.0
H623 H 0.61127 0.36418 0.57466 0.0
H624 H 0.62136 0.29304 0.62861 0.0
H625 H 0.68792 0.29716 0.57051 0.0
H626 H 0.6788 0.32262 0.58441 0.0
H627 H 0.66199 0.31121 0.56426 0.0
C628 C 0.63797 0.36392 0.62007 0.0
C629 C 0.62601 0.37293 0.60361 0.0
C630 C 0.64405 0.34028 0.6205 0.0
C631 C 0.63855 0.32543 0.60439 0.0
C632 C 0.62666 0.33434 0.58798 0.0
H633 H 0.65658 0.17871 0.57459 0.0
H634 H 0.64754 0.2206 0.57455 0.0
C635 C 0.62041 0.35784 0.58759 0.0
C636 C 0.64462 0.30039 0.60482 0.0
H637 H 0.67673 0.25939 0.58129 0.0
C638 C 0.63357 0.28565 0.6184 0.0
C639 C 0.66044 0.29093 0.59134 0.0
C640 C 0.67315 0.30626 0.57687 0.0
C641 C 0.63762 0.26146 0.61857 0.0
C642 C 0.65343 0.25196 0.60506 0.0
C643 C 0.66456 0.26676 0.59156 0.0
C644 C 0.65896 0.22674 0.605 0.0
C645 C 0.62455 0.24619 0.63286 0.0
C646 C 0.66871 0.21653 0.62198 0.0
C647 C 0.67389 0.19273 0.62204 0.0
C648 C 0.66947 0.17869 0.60508 0.0
C649 C 0.66008 0.18905 0.58791 0.0
C650 C 0.65491 0.21293 0.58786 0.0
H651 H 0.60931 0.25513 0.63844 0.0
H652 H 0.61956 0.22948 0.62551 0.0
H653 H 0.63517 0.24195 0.64603 0.0
H654 H 0.67244 0.22701 0.63518 0.0
H655 H 0.68151 0.18542 0.63537 0.0
H656 H 0.09245 0.36652 0.81931 0.0
H657 H 0.05205 0.3721 0.82029 0.0
H658 H 0.0591 0.41658 0.8724 0.0
H659 H 0.09967 0.41124 0.87158 0.0
H660 H 0.02474 0.37661 0.87315 0.0
H661 H 0.01903 0.43659 0.80752 0.0
H662 H 0.03599 0.41081 0.80475 0.0
H663 H 0.04435 0.43336 0.82205 0.0
C664 C 0.0855 0.37754 0.83099 0.0
C665 C 0.09937 0.38849 0.84535 0.0
C666 C 0.0624 0.38074 0.83147 0.0
C667 C 0.05273 0.39487 0.84631 0.0
C668 C 0.06637 0.40567 0.86078 0.0
H669 H 0.91643 0.42708 0.87964 0.0
H670 H 0.95669 0.42098 0.87875 0.0
C671 C 0.08953 0.40261 0.86026 0.0
C672 C 0.02827 0.39806 0.84682 0.0
H673 H 0.98513 0.42399 0.82195 0.0
C674 C 0.01601 0.38701 0.86203 0.0
C675 C 0.01708 0.41146 0.83215 0.0
C676 C 0.02969 0.4239 0.81571 0.0
C677 C -0.00734 0.38876 0.86282 0.0
C678 C 0.98141 0.40247 0.84829 0.0
C679 C -0.00624 0.41348 0.83305 0.0
C680 C 0.9569 0.40598 0.84882 0.0
C681 C 0.98027 0.37545 0.87891 0.0
C682 C 0.94367 0.40031 0.83202 0.0
C683 C 0.9206 0.4041 0.83238 0.0
C684 C 0.9104 0.41357 0.84957 0.0
C685 C 0.92372 0.41939 0.86629 0.0
C686 C 0.94675 0.4158 0.86585 0.0
H687 H 0.99022 0.36047 0.8846 0.0
H688 H 0.97697 0.38733 0.89179 0.0
H689 H 0.96403 0.36868 0.87323 0.0
H690 H 0.95119 0.39288 0.81866 0.0
H691 H 0.91078 0.39952 0.81925 0.0
H692 H 0.58151 0.57505 0.30614 0.0
H693 H 0.54167 0.58249 0.30074 0.0
H694 H 0.52743 0.55757 0.3605 0.0
H695 H 0.56708 0.55025 0.36606 0.0
H696 H 0.50653 0.5508 0.30174 0.0
H697 H 0.49433 0.61969 0.35927 0.0
H698 H 0.52168 0.61109 0.35061 0.0
H699 H 0.50746 0.59418 0.3695 0.0
C700 C 0.56991 0.57133 0.3182 0.0
C701 C 0.57751 0.56224 0.33662 0.0
C702 C 0.54716 0.5756 0.31507 0.0
C703 C 0.53162 0.57101 0.33034 0.0
C704 C 0.53917 0.56183 0.34868 0.0
H705 H 0.40092 0.54283 0.35747 0.0
H706 H 0.44055 0.54788 0.35106 0.0
C707 C 0.56187 0.55757 0.35182 0.0
C708 C 0.50736 0.5746 0.32693 0.0
H709 H 0.46117 0.59882 0.34851 0.0
C710 C 0.49665 0.56176 0.31163 0.0
C711 C 0.49449 0.58911 0.3397 0.0
C712 C 0.50512 0.60449 0.35555 0.0
C713 C 0.47324 0.56165 0.3098 0.0
C714 C 0.46037 0.57475 0.32355 0.0
C715 C 0.47114 0.58879 0.33797 0.0
C716 C 0.43604 0.57088 0.32567 0.0
C717 C 0.46225 0.54635 0.29413 0.0
C718 C 0.42029 0.58186 0.31317 0.0
C719 C 0.3973 0.57899 0.31682 0.0
C720 C 0.38998 0.56527 0.33307 0.0
C721 C 0.40595 0.55376 0.34497 0.0
C722 C 0.42865 0.55657 0.34134 0.0
H723 H 0.4746 0.53802 0.28394 0.0
H724 H 0.4524 0.53239 0.30164 0.0
H725 H 0.45049 0.55692 0.28502 0.0
H726 H 0.42578 0.59301 0.30099 0.0
H727 H 0.38537 0.5881 0.30745 0.0
H728 H 0.55991 0.43287 0.65921 0.0
H729 H 0.52023 0.42232 0.66043 0.0
H730 H 0.51388 0.43725 0.59724 0.0
H731 H 0.55336 0.44815 0.59585 0.0
H732 H 0.47959 0.45796 0.63063 0.0
H733 H 0.49288 0.3614 0.62705 0.0
H734 H 0.51146 0.37947 0.64186 0.0
H735 H 0.51188 0.38161 0.61501 0.0
C736 C 0.5501 0.43391 0.64555 0.0
C737 C 0.55991 0.44109 0.62737 0.0
C738 C 0.52746 0.42788 0.6463 0.0
C739 C 0.5143 0.42889 0.62889 0.0
C740 C 0.52388 0.43631 0.61079 0.0
H741 H 0.37294 0.40999 0.60333 0.0
H742 H 0.41222 0.42184 0.60304 0.0
C743 C 0.54648 0.4424 0.61003 0.0
C744 C 0.49049 0.42213 0.62953 0.0
H745 H 0.4558 0.37462 0.62908 0.0
C746 C 0.4743 0.43977 0.6303 0.0
C747 C 0.48383 0.3984 0.62921 0.0
C748 C 0.50081 0.37898 0.6282 0.0
C749 C 0.45144 0.43424 0.63091 0.0
C750 C 0.44469 0.41045 0.63021 0.0
C751 C 0.46099 0.39283 0.62955 0.0
C752 C 0.42082 0.4034 0.63033 0.0
C753 C 0.43478 0.4539 0.63274 0.0
C754 C 0.41274 0.38856 0.64546 0.0
C755 C 0.39037 0.38153 0.64556 0.0
C756 C 0.37559 0.38917 0.63049 0.0
C757 C 0.38379 0.40392 0.61526 0.0
C758 C 0.40622 0.41084 0.61513 0.0
H759 H 0.44266 0.47015 0.6387 0.0
H760 H 0.42786 0.45788 0.61766 0.0
H761 H 0.42073 0.44893 0.64275 0.0
H762 H 0.42374 0.38251 0.65728 0.0
H763 H 0.38469 0.37017 0.65752 0.0
H764 H 0.09105 0.63102 0.15099 0.0
H765 H 0.05181 0.61978 0.15203 0.0
H766 H 0.06702 0.55558 0.1206 0.0
H767 H 0.10638 0.5673 0.1187 0.0
H768 H 0.03121 0.57371 0.10559 0.0
H769 H 0.02112 0.57486 0.18803 0.0
H770 H 0.03093 0.60269 0.1793 0.0
H771 H 0.04813 0.57706 0.17622 0.0
C772 C 0.08612 0.61441 0.14442 0.0
C773 C 0.10191 0.59995 0.13491 0.0
C774 C 0.06364 0.6079 0.14518 0.0
C775 C 0.05646 0.5865 0.13694 0.0
C776 C 0.07216 0.57208 0.12726 0.0
H777 H 0.92098 0.53266 0.15772 0.0
H778 H 0.96129 0.54054 0.15996 0.0
C779 C 0.09465 0.57879 0.12617 0.0
C780 C 0.03242 0.57982 0.13755 0.0
H781 H 0.98717 0.57617 0.16866 0.0
C782 C 0.02167 0.57399 0.11944 0.0
C783 C 0.01994 0.57969 0.15564 0.0
C784 C 0.03071 0.58365 0.1759 0.0
C785 C -0.00125 0.56881 0.1188 0.0
C786 C 0.98596 0.57042 0.13666 0.0
C787 C -0.00317 0.57542 0.15489 0.0
C788 C 0.96134 0.56697 0.13664 0.0
C789 C 0.98865 0.56128 0.09899 0.0
C790 C 0.9478 0.5799 0.1235 0.0
C791 C 0.92501 0.57505 0.12194 0.0
C792 C 0.9152 0.55774 0.13398 0.0
C793 C 0.92829 0.54605 0.14826 0.0
C794 C 0.95127 0.55052 0.14949 0.0
H795 H 0.00139 0.5534 0.08893 0.0
H796 H 0.97499 0.54833 0.10116 0.0
H797 H 0.98174 0.57683 0.09122 0.0
H798 H 0.95495 0.59341 0.11408 0.0
H799 H 0.91511 0.5847 0.11119 0.0
H800 H 0.1543 0.54276 0.06481 0.0
H801 H 0.15171 0.51885 0.03412 0.0
H802 H 0.21484 0.54667 0.01405 0.0
H803 H 0.21764 0.5704 0.0445 0.0
H804 H 0.15221 0.53638 -0.00657 0.0
H805 H 0.22199 0.47509 0.00798 0.0
H806 H 0.20908 0.49218 0.02766 0.0
H807 H 0.22927 0.50542 0.01121 0.0
C808 C 0.16776 0.54353 0.05398 0.0
C809 C 0.18621 0.55844 0.05714 0.0
C810 C 0.16621 0.52995 0.03644 0.0
C811 C 0.18319 0.53084 0.02193 0.0
C812 C 0.20172 0.54544 0.0252 0.0
H813 H 0.21502 0.47319 0.90602 0.0
H814 H 0.21288 0.49533 0.93746 0.0
C815 C 0.20324 0.55907 0.04261 0.0
C816 C 0.18132 0.51736 0.00291 0.0
H817 H 0.20811 0.47637 0.97446 0.0
C818 C 0.16425 0.52306 -0.01069 0.0
C819 C 0.19711 0.50008 -0.00238 0.0
C820 C 0.21529 0.49263 0.01194 0.0
C821 C 0.16308 0.51256 0.97018 0.0
C822 C 0.17918 0.4956 0.96472 0.0
C823 C 0.1959 0.48952 0.97857 0.0
C824 C 0.17931 0.48403 0.94468 0.0
C825 C 0.14513 0.52037 0.95577 0.0
C826 C 0.161 0.47062 0.93808 0.0
C827 C 0.16208 0.45815 0.91996 0.0
C828 C 0.18165 0.45855 0.90827 0.0
C829 C 0.19972 0.47248 0.91466 0.0
C830 C 0.19855 0.4851 0.93267 0.0
H831 H 0.13819 0.5377 0.96007 0.0
H832 H 0.15165 0.52148 0.94018 0.0
H833 H 0.13125 0.50746 0.95593 0.0
H834 H 0.14617 0.4691 0.94727 0.0
H835 H 0.14793 0.44742 0.91557 0.0
H836 H 0.7199 0.94105 0.32017 0.0
H837 H 0.73693 0.95693 0.28972 0.0
H838 H 0.67619 0.94266 0.2568 0.0
H839 H 0.65969 0.92562 0.28698 0.0
H840 H 0.70891 0.91831 0.24268 0.0
H841 H 0.7394 0.00934 0.2498 0.0
H842 H 0.74792 0.99204 0.27089 0.0
H843 H 0.71864 -0.00278 0.26653 0.0
C844 C 0.70988 0.94236 0.30665 0.0
C845 C 0.68861 0.93202 0.30578 0.0
C846 C 0.71958 0.95156 0.28922 0.0
C847 C 0.70787 0.951 0.27088 0.0
C848 C 0.68557 0.94326 0.27074 0.0
H849 H 0.7628 0.94011 0.15009 0.0
H850 H 0.74153 0.95864 0.17721 0.0
C851 C 0.67613 0.93356 0.28798 0.0
C852 C 0.72021 0.95274 0.25158 0.0
H853 H 0.75933 0.9845 0.22585 0.0
C854 C 0.7194 0.93314 0.23878 0.0
C855 C 0.7342 0.97189 0.24654 0.0
C856 C 0.73492 0.9939 0.2591 0.0
C857 C 0.7328 0.93168 0.22166 0.0
C858 C 0.74754 0.95028 0.21715 0.0
C859 C 0.74795 0.9703 0.22942 0.0
C860 C 0.76392 0.94745 0.20079 0.0
C861 C 0.73198 0.90966 0.209 0.0
C862 C 0.78412 0.93621 0.20507 0.0
C863 C 0.79608 0.9253 0.18971 0.0
C864 C 0.78807 0.92569 0.16984 0.0
C865 C 0.76936 0.9395 0.16526 0.0
C866 C 0.75722 0.9502 0.18072 0.0
H867 H 0.71947 0.89682 0.21457 0.0
H868 H 0.72776 0.91413 0.19323 0.0
H869 H 0.74862 0.90114 0.20894 0.0
H870 H 0.78943 0.93381 0.22051 0.0
H871 H 0.8106 0.915 0.19363 0.0
H872 H 0.32409 0.4457 0.56525 0.0
H873 H 0.32715 0.47182 0.53631 0.0
H874 H 0.25546 0.4729 0.53065 0.0
H875 H 0.25215 0.4467 0.55958 0.0
H876 H 0.30775 0.45929 0.49664 0.0
H877 H 0.27679 0.54377 0.52788 0.0
H878 H 0.28809 0.52096 0.54365 0.0
H879 H 0.26073 0.51773 0.533 0.0
C880 C 0.30893 0.45173 0.55805 0.0
C881 C 0.28787 0.44405 0.56471 0.0
C882 C 0.31073 0.46663 0.5415 0.0
C883 C 0.29153 0.47435 0.53146 0.0
C884 C 0.27045 0.46732 0.53837 0.0
H885 H 0.29145 0.53225 0.4097 0.0
H886 H 0.27891 0.51335 0.44079 0.0
C887 C 0.26862 0.45228 0.55486 0.0
C888 C 0.29373 0.48836 0.51289 0.0
H889 H 0.28636 0.54311 0.49343 0.0
C890 C 0.30294 0.47757 0.49586 0.0
C891 C 0.28744 0.51218 0.51203 0.0
C892 C 0.27781 0.52453 0.5301 0.0
C893 C 0.30626 0.49006 0.478 0.0
C894 C 0.30014 0.51393 0.47716 0.0
C895 C 0.29077 0.52473 0.49412 0.0
C896 C 0.3052 0.52819 0.45921 0.0
C897 C 0.3169 0.4779 0.46028 0.0
C898 C 0.32363 0.54335 0.45954 0.0
C899 C 0.33091 0.55402 0.44186 0.0
C900 C 0.31978 0.54984 0.42354 0.0
C901 C 0.30039 0.53585 0.42354 0.0
C902 C 0.29322 0.52499 0.44126 0.0
H903 H 0.32288 0.46006 0.4641 0.0
H904 H 0.30454 0.47636 0.44789 0.0
H905 H 0.33123 0.48836 0.45463 0.0
H906 H 0.33305 0.54601 0.47328 0.0
H907 H 0.34579 0.56485 0.44242 0.0
H908 H 0.66947 0.09167 0.69479 0.0
H909 H 0.68763 0.07251 0.72305 0.0
H910 H 0.73306 0.03816 0.68237 0.0
H911 H 0.71503 0.05765 0.65379 0.0
H912 H 0.69996 0.02646 0.73535 0.0
H913 H 0.77247 0.08352 0.7159 0.0
H914 H 0.74538 0.08721 0.70452 0.0
H915 H 0.76305 0.06353 0.69673 0.0
C916 C 0.68301 0.07962 0.69177 0.0
C917 C 0.69118 0.07656 0.67213 0.0
C918 C 0.69327 0.06857 0.70795 0.0
C919 C 0.71195 0.05434 0.70481 0.0
C920 C 0.71883 0.04939 0.68507 0.0
H921 H 0.80237 0.00958 0.80053 0.0
H922 H 0.77861 0.0085 0.77061 0.0
C923 C 0.70846 0.06043 0.66877 0.0
C924 C 0.72583 0.04787 0.72234 0.0
H925 H 0.77451 0.06264 0.74606 0.0
C926 C 0.71643 0.034 0.73757 0.0
C927 C 0.74714 0.05814 0.72531 0.0
C928 C 0.75764 0.07408 0.70987 0.0
C929 C 0.72768 0.03051 0.75586 0.0
C930 C 0.74867 0.04123 0.7589 0.0
C931 C 0.75836 0.05448 0.74352 0.0
C932 C 0.76055 0.03996 0.77828 0.0
C933 C 0.71694 0.01605 0.77213 0.0
C934 C 0.75793 0.05789 0.79253 0.0
C935 C 0.77153 0.05867 0.80962 0.0
C936 C 0.78802 0.04156 0.81263 0.0
C937 C 0.78986 0.02306 0.79868 0.0
C938 C 0.7763 0.02234 0.78159 0.0
H939 H 0.70089 0.0081 0.76717 0.0
H940 H 0.72847 0.00188 0.77683 0.0
H941 H 0.71382 0.02726 0.7855 0.0
H942 H 0.74591 0.07172 0.79005 0.0
H943 H 0.76967 0.07312 0.82007 0.0
H944 H 0.79748 0.46211 0.89711 0.0
H945 H 0.783 0.48565 0.92508 0.0
H946 H 0.8102 0.43621 0.9673 0.0
H947 H 0.82468 0.41272 0.9396 0.0
H948 H 0.76753 0.46255 0.9796 0.0
H949 H 0.83957 0.51667 0.95329 0.0
H950 H 0.81763 0.50932 0.93584 0.0
H951 H 0.8359 0.48684 0.94488 0.0
C952 C 0.7995 0.45572 0.91232 0.0
C953 C 0.81263 0.43587 0.91623 0.0
C954 C 0.79123 0.46921 0.92827 0.0
C955 C 0.79587 0.46281 0.9482 0.0
C956 C 0.80648 0.44144 0.95201 0.0
H957 H 0.82293 0.49812 0.06707 0.0
H958 H 0.80553 0.48294 0.03653 0.0
C959 C 0.81486 0.4281 0.93616 0.0
C960 C 0.79466 0.48015 0.96471 0.0
H961 H 0.82657 0.52329 0.98557 0.0
C962 C 0.78001 0.47631 0.9808 0.0
C963 C 0.81084 0.49818 0.96611 0.0
C964 C 0.82698 0.50311 0.9492 0.0
C965 C 0.78189 0.48932 -0.00128 0.0
C966 C 0.79953 0.50579 0.00085 0.0
C967 C 0.81309 0.51067 0.98415 0.0
C968 C 0.80626 0.51604 0.02059 0.0
C969 C 0.76512 0.48492 0.01518 0.0
C970 C 0.81297 0.53966 0.02195 0.0
C971 C 0.82397 0.54801 0.03909 0.0
C972 C 0.82777 0.53312 0.05545 0.0
C973 C 0.81985 0.50999 0.05471 0.0
C974 C 0.8096 0.5014 0.03729 0.0
H975 H 0.7484 0.481 0.0087 0.0
H976 H 0.77028 0.46934 0.02395 0.0
H977 H 0.76362 0.50016 0.0255 0.0
H978 H 0.81067 0.55137 0.00934 0.0
H979 H 0.82995 0.56594 0.03941 0.0
H980 H 0.18325 0.01946 0.78804 0.0
H981 H 0.2067 0.02511 0.7586 0.0
H982 H 0.24017 0.08284 0.78796 0.0
H983 H 0.21639 0.07752 0.81768 0.0
H984 H 0.2266 0.09176 0.74724 0.0
H985 H 0.27327 0.00859 0.7544 0.0
H986 H 0.24355 0.00464 0.75558 0.0
H987 H 0.25761 0.02118 0.77491 0.0
C988 C 0.19569 0.03327 0.78839 0.0
C989 C 0.19805 0.04796 0.80526 0.0
C990 C 0.20911 0.03643 0.77153 0.0
C991 C 0.22529 0.0542 0.77123 0.0
C992 C 0.22778 0.06897 0.78799 0.0
H993 H 0.32578 0.0526 0.67821 0.0
H994 H 0.3061 0.05517 0.71007 0.0
C995 C 0.2143 0.06582 0.80496 0.0
C996 C 0.23932 0.05722 0.75316 0.0
H997 H 0.27474 0.02735 0.72246 0.0
C998 C 0.23738 0.07785 0.74188 0.0
C999 C 0.25352 0.03916 0.7464 0.0
C1000 C 0.25733 0.01723 0.75855 0.0
C1001 C 0.24877 0.08055 0.72357 0.0
C1002 C 0.262 0.06187 0.71625 0.0
C1003 C 0.2644 0.04158 0.72792 0.0
C1004 C 0.27396 0.06287 0.69677 0.0
C1005 C 0.24668 0.10339 0.7124 0.0
C1006 C 0.2625 0.06662 0.67858 0.0
C1007 C 0.27387 0.06549 0.6602 0.0
C1008 C 0.29671 0.06 0.65978 0.0
C1009 C 0.3081 0.05652 0.67801 0.0
C1010 C 0.29689 0.05808 0.69627 0.0
H1011 H 0.24185 0.11793 0.72263 0.0
H1012 H 0.26258 0.10814 0.70484 0.0
H1013 H 0.23348 0.10163 0.70077 0.0
H1014 H 0.24468 0.06977 0.67855 0.0
H1015 H 0.26472 0.06823 0.64636 0.0
H1016 H 0.67709 0.5725 0.42133 0.0
H1017 H 0.69357 0.56059 0.45349 0.0
H1018 H 0.67853 0.48835 0.43938 0.0
H1019 H 0.66309 0.50027 0.40701 0.0
H1020 H 0.6688 0.54352 0.4808 0.0
H1021 H 0.73494 0.47856 0.46928 0.0
H1022 H 0.72556 0.4974 0.44922 0.0
H1023 H 0.71128 0.47018 0.45442 0.0
C1024 C 0.67832 0.55402 0.42481 0.0
C1025 C 0.66916 0.53721 0.41176 0.0
C1026 C 0.68766 0.54721 0.44317 0.0
C1027 C 0.68758 0.52351 0.44889 0.0
C1028 C 0.67953 0.50663 0.43519 0.0
H1029 H 0.64645 0.44034 0.5383 0.0
H1030 H 0.66609 0.45787 0.51005 0.0
C1031 C 0.67053 0.51343 0.41672 0.0
C1032 C 0.6914 0.51689 0.47025 0.0
H1033 H 0.71124 0.47239 0.49937 0.0
C1034 C 0.67876 0.52847 0.485 0.0
C1035 C 0.70447 0.49736 0.47589 0.0
C1036 C 0.72 0.48539 0.46133 0.0
C1037 C 0.67696 0.51967 0.50458 0.0
C1038 C 0.68826 0.49877 0.50963 0.0
C1039 C 0.70248 0.48834 0.49545 0.0
C1040 C 0.68172 0.48529 0.5277 0.0
C1041 C 0.66133 0.5316 0.51915 0.0
C1042 C 0.68495 0.49415 0.54723 0.0
C1043 C 0.67366 0.48407 0.56355 0.0
C1044 C 0.65893 0.46517 0.56039 0.0
C1045 C 0.65742 0.45512 0.54112 0.0
C1046 C 0.66878 0.46502 0.52497 0.0
H1047 H 0.65231 0.5465 0.5122 0.0
H1048 H 0.64881 0.51889 0.52491 0.0
H1049 H 0.67099 0.5384 0.53217 0.0
H1050 H 0.69505 0.50968 0.54966 0.0
H1051 H 0.67517 0.49211 0.57826 0.0
H1052 H 0.32573 0.93891 0.27794 0.0
H1053 H 0.29674 0.94125 0.25212 0.0
H1054 H 0.24738 0.91875 0.29507 0.0
H1055 H 0.27634 0.91616 0.32112 0.0
H1056 H 0.26214 0.89991 0.24203 0.0
H1057 H 0.22842 0.98592 0.26746 0.0
H1058 H 0.25712 0.97769 0.27187 0.0
H1059 H 0.23521 0.96411 0.28602 0.0
C1060 C 0.30873 0.93439 0.28194 0.0
C1061 C 0.30332 0.92739 0.30161 0.0
C1062 C 0.29223 0.93571 0.26714 0.0
C1063 C 0.27002 0.93025 0.27178 0.0
C1064 C 0.2645 0.92309 0.2913 0.0
H1065 H 0.14645 0.9443 0.20586 0.0
H1066 H 0.17555 0.93978 0.23124 0.0
C1067 C 0.28104 0.9216 0.30612 0.0
C1068 C 0.25261 0.93229 0.25616 0.0
H1069 H 0.21087 0.96794 0.23973 0.0
C1070 C 0.25088 0.91474 0.24146 0.0
C1071 C 0.23806 0.95167 0.2556 0.0
C1072 C 0.23968 0.97107 0.27099 0.0
C1073 C 0.23463 0.91589 0.22625 0.0
C1074 C 0.22017 0.93544 0.22552 0.0
C1075 C 0.22199 0.953 0.24028 0.0
C1076 C 0.20267 0.93784 0.20985 0.0
C1077 C 0.23276 0.8959 0.21145 0.0
C1078 C 0.20826 0.93848 0.18936 0.0
C1079 C 0.1916 0.94092 0.17475 0.0
C1080 C 0.16908 0.94305 0.18041 0.0
C1081 C 0.16361 0.94269 0.20096 0.0
C1082 C 0.18023 0.94012 0.21551 0.0
H1083 H 0.24067 0.87971 0.21729 0.0
H1084 H 0.21503 0.892 0.20781 0.0
H1085 H 0.24143 0.90077 0.19733 0.0
H1086 H 0.22553 0.93732 0.18467 0.0
H1087 H 0.19638 0.94131 0.15906 0.0
H1088 H 0.72346 0.06673 0.54748 0.0
H1089 H 0.7196 0.042 0.51764 0.0
H1090 H 0.65197 0.0251 0.53446 0.0
H1091 H 0.65565 0.04988 0.56452 0.0
H1092 H 0.70673 0.99226 0.51557 0.0
H1093 H 0.64825 0.05185 0.47555 0.0
H1094 H 0.66542 0.06172 0.49628 0.0
H1095 H 0.64138 0.04373 0.50093 0.0
C1096 C 0.70778 0.05766 0.54495 0.0
C1097 C 0.68983 0.06035 0.55835 0.0
C1098 C 0.70562 0.04355 0.52787 0.0
C1099 C 0.68542 0.03201 0.52374 0.0
C1100 C 0.6676 0.03413 0.53729 0.0
H1101 H 0.6505 0.94895 0.41715 0.0
H1102 H 0.6486 0.97153 0.44848 0.0
C1103 C 0.66979 0.04816 0.5545 0.0
C1104 C 0.68323 0.01791 0.50511 0.0
H1105 H 0.65936 0.01767 0.45843 0.0
C1106 C 0.69629 -0.00229 0.50311 0.0
C1107 C 0.66947 0.02504 0.48897 0.0
C1108 C 0.65537 0.04683 0.49035 0.0
C1109 C 0.69616 0.98454 0.48527 0.0
C1110 C 0.68309 0.99217 0.4688 0.0
C1111 C 0.6695 0.01199 0.47101 0.0
C1112 C 0.68383 0.98006 0.44905 0.0
C1113 C 0.70995 0.96249 0.48427 0.0
C1114 C 0.70408 0.97813 0.43861 0.0
C1115 C 0.70525 0.96522 0.42077 0.0
C1116 C 0.68611 0.95416 0.41291 0.0
C1117 C 0.66557 0.95718 0.42283 0.0
C1118 C 0.66445 0.97004 0.44076 0.0
H1119 H 0.71349 0.95549 0.49951 0.0
H1120 H 0.70138 0.94868 0.47531 0.0
H1121 H 0.72618 0.96648 0.477 0.0
H1122 H 0.71912 0.98627 0.44447 0.0
H1123 H 0.72128 0.96347 0.41342 0.0
H1124 H 0.28588 0.39386 0.69597 0.0
H1125 H 0.26779 0.41722 0.72134 0.0
H1126 H 0.25991 0.47383 0.6791 0.0
H1127 H 0.27747 0.44969 0.65282 0.0
H1128 H 0.2768 0.45825 0.73882 0.0
H1129 H 0.19642 0.46514 0.69685 0.0
H1130 H 0.21842 0.44635 0.68794 0.0
H1131 H 0.22128 0.47761 0.68613 0.0
C1132 C 0.28049 0.4113 0.69189 0.0
C1133 C 0.28295 0.41973 0.67219 0.0
C1134 C 0.27019 0.42478 0.70658 0.0
C1135 C 0.26223 0.44727 0.70219 0.0
C1136 C 0.2655 0.45635 0.68278 0.0
H1137 H 0.19909 0.45913 0.81954 0.0
H1138 H 0.21685 0.48053 0.79179 0.0
C1139 C 0.27566 0.44259 0.66781 0.0
C1140 C 0.24932 0.45963 0.71806 0.0
H1141 H 0.19506 0.46803 0.73168 0.0
C1142 C 0.25897 0.46108 0.73729 0.0
C1143 C 0.2262 0.46398 0.7159 0.0
C1144 C 0.21482 0.46319 0.69565 0.0
C1145 C 0.24572 0.46247 0.75464 0.0
C1146 C 0.22219 0.46373 0.75257 0.0
C1147 C 0.21303 0.46656 0.73324 0.0
C1148 C 0.20706 0.45545 0.76886 0.0
C1149 C 0.25694 0.45959 0.77482 0.0
C1150 C 0.19394 0.43552 0.765 0.0
C1151 C 0.18336 0.42376 0.78059 0.0
C1152 C 0.18586 0.43136 0.80058 0.0
C1153 C 0.19716 0.4526 0.80433 0.0
C1154 C 0.20753 0.4647 0.7885 0.0
H1155 H 0.27521 0.45663 0.77345 0.0
H1156 H 0.25446 0.47563 0.78398 0.0
H1157 H 0.2496 0.44451 0.78302 0.0
H1158 H 0.19305 0.42799 0.75004 0.0
H1159 H 0.17436 0.40778 0.77701 0.0
H1160 H 0.83505 0.0668 0.94689 0.0
H1161 H 0.81959 0.04498 0.97497 0.0
H1162 H 0.77261 0.01114 0.93507 0.0
H1163 H 0.78851 0.03252 0.90654 0.0
H1164 H 0.77893 0.03847 -0.00711 0.0
H1165 H 0.80851 0.9563 0.95654 0.0
H1166 H 0.81597 0.98489 0.94723 0.0
H1167 H 0.78871 0.97291 0.94221 0.0
C1168 C 0.82121 0.05498 0.94403 0.0
C1169 C 0.81337 0.05102 0.92435 0.0
C1170 C 0.81232 0.04257 0.96018 0.0
C1171 C 0.79536 0.02598 0.95704 0.0
C1172 C 0.7861 0.02345 0.93772 0.0
H1173 H 0.75536 0.9166 0.04151 0.0
H1174 H 0.75504 0.94435 0.01361 0.0
C1175 C 0.79508 0.03583 0.92146 0.0
C1176 C 0.78916 0.01003 0.97369 0.0
H1177 H 0.79281 0.95299 -0.01136 0.0
C1178 C 0.78171 0.01974 -0.00809 0.0
C1179 C 0.79303 0.9856 0.97243 0.0
C1180 C 0.80217 0.97425 0.95364 0.0
C1181 C 0.77837 0.00574 0.00897 0.0
C1182 C 0.78274 0.98147 0.00779 0.0
C1183 C 0.78944 0.97163 -0.01056 0.0
C1184 C 0.78161 0.96602 0.0256 0.0
C1185 C 0.77042 0.01701 0.02819 0.0
C1186 C 0.7967 0.96903 0.04157 0.0
C1187 C 0.79705 0.95311 0.05751 0.0
C1188 C 0.78231 0.93388 0.05772 0.0
C1189 C 0.76693 0.93121 0.04185 0.0
C1190 C 0.76669 0.94706 0.02589 0.0
H1191 H 0.76255 0.03429 0.02538 0.0
H1192 H 0.75822 0.00554 0.03602 0.0
H1193 H 0.7849 0.01979 0.03836 0.0
H1194 H 0.80865 0.98332 0.04143 0.0
H1195 H 0.80912 0.95565 0.06947 0.0
H1196 H 0.22883 0.5648 0.14864 0.0
H1197 H 0.25443 0.5503 0.17468 0.0
H1198 H 0.20445 0.56367 0.21986 0.0
H1199 H 0.17917 0.57838 0.19411 0.0
H1200 H 0.26814 0.58132 0.20511 0.0
H1201 H 0.23179 0.50183 0.23896 0.0
H1202 H 0.22485 0.51135 0.21382 0.0
H1203 H 0.21092 0.52388 0.23528 0.0
C1204 C 0.22304 0.5637 0.16403 0.0
C1205 C 0.20204 0.57268 0.16941 0.0
C1206 C 0.2377 0.55554 0.17889 0.0
C1207 C 0.2313 0.55571 0.1992 0.0
C1208 C 0.20964 0.56292 0.20428 0.0
H1209 H 0.26433 0.60616 0.30632 0.0
H1210 H 0.26197 0.59755 0.27054 0.0
C1211 C 0.1952 0.57142 0.18956 0.0
C1212 C 0.24792 0.55251 0.21553 0.0
H1213 H 0.25252 0.52766 0.26189 0.0
C1214 C 0.26525 0.56903 0.21724 0.0
C1215 C 0.24447 0.53629 0.23124 0.0
C1216 C 0.22713 0.51717 0.22964 0.0
C1217 C 0.27745 0.57147 0.23517 0.0
C1218 C 0.27204 0.55715 0.25179 0.0
C1219 C 0.25654 0.53885 0.24924 0.0
C1220 C 0.2784 0.56392 0.27259 0.0
C1221 C 0.29498 0.59042 0.23662 0.0
C1222 C 0.2889 0.54811 0.28572 0.0
C1223 C 0.29054 0.55323 0.30635 0.0
C1224 C 0.28116 0.57392 0.31403 0.0
C1225 C 0.27185 0.59019 0.30071 0.0
C1226 C 0.27057 0.5853 0.28022 0.0
H1227 H 0.30293 0.59351 0.22178 0.0
H1228 H 0.28698 0.60703 0.24139 0.0
H1229 H 0.30812 0.58591 0.24774 0.0
H1230 H 0.29482 0.53139 0.28017 0.0
H1231 H 0.29747 0.54027 0.31642 0.0
H1232 H 0.3024 0.00977 0.57573 0.0
H1233 H 0.28325 0.98953 0.54799 0.0
H1234 H 0.31605 0.03481 0.50544 0.0
H1235 H 0.33504 0.0551 0.53287 0.0
H1236 H 0.27003 0.01875 0.49425 0.0
H1237 H 0.32937 0.94821 0.51651 0.0
H1238 H 0.31016 0.95911 0.53504 0.0
H1239 H 0.3322 0.97767 0.52604 0.0
C1240 C 0.30488 0.01595 0.56052 0.0
C1241 C 0.32059 0.03367 0.55642 0.0
C1242 C 0.29396 0.00435 0.5447 0.0
C1243 C 0.29855 0.01046 0.52469 0.0
C1244 C 0.31232 0.0298 0.52077 0.0
H1245 H 0.31652 0.97343 0.40585 0.0
H1246 H 0.30101 0.99153 0.43596 0.0
C1247 C 0.32329 0.04127 0.53648 0.0
C1248 C 0.29293 0.99449 0.50784 0.0
H1249 H 0.313 0.94546 0.48505 0.0
C1250 C 0.27892 0.00238 0.49236 0.0
C1251 C 0.30449 0.97312 0.50548 0.0
C1252 C 0.32 0.96393 0.52154 0.0
C1253 C 0.27704 0.98996 0.47413 0.0
C1254 C 0.29013 0.96961 0.47111 0.0
C1255 C 0.3029 0.96099 0.4872 0.0
C1256 C 0.2936 0.95873 0.45097 0.0
C1257 C 0.2614 -0.0009 0.45823 0.0
C1258 C 0.29442 0.93419 0.44899 0.0
C1259 C 0.30413 0.9239 0.43205 0.0
C1260 C 0.31245 0.93795 0.4165 0.0
C1261 C 0.30972 0.96229 0.41751 0.0
C1262 C 0.30066 0.97263 0.43473 0.0
H1263 H 0.24637 0.00703 0.46524 0.0
H1264 H 0.26994 0.01311 0.4496 0.0
H1265 H 0.25596 0.98508 0.44768 0.0
H1266 H 0.28914 0.92303 0.46125 0.0
H1267 H 0.30636 0.90508 0.43162 0.0
H1268 H 0.77131 0.57183 0.15873 0.0
H1269 H 0.76324 0.5812 0.19384 0.0
H1270 H 0.81518 0.53399 0.21294 0.0
H1271 H 0.82374 0.52512 0.17754 0.0
H1272 H 0.7721 0.5224 0.22611 0.0
H1273 H 0.79003 0.61534 0.24288 0.0
H1274 H 0.77655 0.61189 0.21893 0.0
H1275 H 0.80381 0.5995 0.22286 0.0
C1276 C 0.78135 0.56395 0.17045 0.0
C1277 C 0.79782 0.54751 0.16567 0.0
C1278 C 0.77696 0.56953 0.19046 0.0
C1279 C 0.78871 0.55841 0.20599 0.0
C1280 C 0.80612 0.54296 0.20116 0.0
H1281 H 0.71807 0.55538 0.32309 0.0
H1282 H 0.75063 0.55452 0.30061 0.0
C1283 C 0.81089 0.53781 0.18103 0.0
C1284 C 0.77948 0.55935 0.22657 0.0
H1285 H 0.75819 0.59808 0.26064 0.0
C1286 C 0.76977 0.53878 0.23412 0.0
C1287 C 0.77635 0.58076 0.23691 0.0
C1288 C 0.78745 0.60308 0.23007 0.0
C1289 C 0.7553 0.53945 0.25064 0.0
C1290 C 0.75065 0.56118 0.25988 0.0
C1291 C 0.76177 0.58146 0.25341 0.0
C1292 C 0.73182 0.56349 0.274 0.0
C1293 C 0.74351 0.51731 0.25704 0.0
C1294 C 0.71068 0.56899 0.26637 0.0
C1295 C 0.69216 0.56945 0.27903 0.0
C1296 C 0.69442 0.56437 0.29961 0.0
C1297 C 0.71578 0.55932 0.30731 0.0
C1298 C 0.73438 0.55889 0.29455 0.0
H1299 H 0.75048 0.50151 0.24958 0.0
H1300 H 0.74481 0.51514 0.27358 0.0
H1301 H 0.72551 0.51859 0.25319 0.0
H1302 H 0.70843 0.5724 0.25048 0.0
H1303 H 0.67599 0.57334 0.27256 0.0
H1304 H 0.17773 0.98685 0.08228 0.0
H1305 H 0.19746 0.00516 0.05406 0.0
H1306 H 0.17535 0.94944 0.01488 0.0
H1307 H 0.1553 0.93137 0.04279 0.0
H1308 H 0.22541 0.98213 0.01017 0.0
H1309 H 0.13982 0.0207 0.01036 0.0
H1310 H 0.15375 0.01342 0.03355 0.0
H1311 H 0.1435 0.99054 0.01746 0.0
C1312 C 0.17797 0.97797 0.06787 0.0
C1313 C 0.16469 0.95798 0.06454 0.0
C1314 C 0.18933 0.98837 0.0518 0.0
C1315 C 0.18776 0.97862 0.03245 0.0
C1316 C 0.17686 0.95708 0.02975 0.0
H1317 H 0.19059 0.01094 0.90933 0.0
H1318 H 0.20374 -0.0035 0.94187 0.0
C1319 C 0.16526 0.94691 0.04566 0.0
C1320 C 0.19152 0.99344 0.01466 0.0
H1321 H 0.16249 0.02855 0.9828 0.0
C1322 C 0.21188 0.99265 0.00426 0.0
C1323 C 0.17376 0.00703 0.00709 0.0
C1324 C 0.15143 0.00815 0.01761 0.0
C1325 C 0.21469 0.00489 0.98607 0.0
C1326 C 0.19657 0.01778 0.97815 0.0
C1327 C 0.17651 0.01895 -0.01103 0.0
C1328 C 0.19671 0.0287 0.95795 0.0
C1329 C 0.23686 0.0038 0.97543 0.0
C1330 C 0.18935 0.05191 0.95594 0.0
C1331 C 0.18129 0.05987 0.93754 0.0
C1332 C 0.18099 0.04496 0.92075 0.0
C1333 C 0.19091 0.02279 0.92208 0.0
C1334 C 0.19855 0.01459 0.94067 0.0
H1335 H 0.25065 -7e-05 0.98609 0.0
H1336 H 0.23633 0.98956 0.96405 0.0
H1337 H 0.24058 0.02051 0.96759 0.0
H1338 H 0.18776 0.06308 0.96906 0.0
H1339 H 0.17367 0.07704 0.9368 0.0
H1340 H 0.69276 0.46114 0.66082 0.0
H1341 H 0.72033 0.46067 0.6881 0.0
H1342 H 0.68178 0.4079 0.71883 0.0
H1343 H 0.65439 0.40799 0.69164 0.0
H1344 H 0.71295 0.47056 0.72895 0.0
H1345 H 0.74453 0.38003 0.7187 0.0
H1346 H 0.72844 0.3949 0.69968 0.0
H1347 H 0.71472 0.38193 0.72095 0.0
C1348 C 0.69027 0.44926 0.67328 0.0
C1349 C 0.67141 0.43453 0.67399 0.0
C1350 C 0.706 0.44906 0.68887 0.0
C1351 C 0.70325 0.43402 0.70536 0.0
C1352 C 0.68448 0.41929 0.70607 0.0
H1353 H 0.77726 0.40894 0.81597 0.0
H1354 H 0.74923 0.40944 0.78909 0.0
C1355 C 0.66878 0.41946 0.69053 0.0
C1356 C 0.71951 0.43433 0.72219 0.0
H1357 H 0.75578 0.39994 0.74844 0.0
C1358 C 0.72242 0.45517 0.73315 0.0
C1359 C 0.73172 0.41417 0.72772 0.0
C1360 C 0.72989 0.39153 0.71606 0.0
C1361 C 0.73698 0.45631 0.7497 0.0
C1362 C 0.74924 0.43617 0.75519 0.0
C1363 C 0.74629 0.41532 0.74426 0.0
C1364 C 0.76572 0.43652 0.77186 0.0
C1365 C 0.73874 0.47894 0.76141 0.0
C1366 C 0.78433 0.45146 0.77102 0.0
C1367 C 0.80031 0.45126 0.78633 0.0
C1368 C 0.79811 0.43595 0.80275 0.0
C1369 C 0.77943 0.42097 0.80357 0.0
C1370 C 0.76342 0.42122 0.78822 0.0
H1371 H 0.72394 0.49026 0.75897 0.0
H1372 H 0.7405 0.47556 0.77776 0.0
H1373 H 0.75372 0.48875 0.75632 0.0
H1374 H 0.78672 0.46303 0.75833 0.0
H1375 H 0.81454 0.46293 0.78514 0.0
loop_
_geom_bond_atom_site_label_1
_geom_bond_atom_site_label_2
_geom_bond_distance
_geom_bond_site_symmetry_2
_ccdc_geom_bond_type
Mg0 O1 2.028 . S
Mg0 O7 1.986 . S
Mg0 O9 2.114 . S
Mg0 O10 2.251 . S
Mg0 O13 2.010 . S
O1 Mg0 2.028 . S
O1 C4 1.250 . S
O2 Mg3 2.028 . S
O2 C4 1.248 . S
Mg3 O2 2.028 . S
Mg3 O8 2.032 . S
Mg3 O10 2.079 . S
C4 O1 1.250 . S
C4 O2 1.248 . S
C5 O6 1.264 . S
C5 O13 1.249 . S
O6 C5 1.264 . S
O7 Mg0 1.986 . S
O7 C11 1.246 . S
O8 Mg3 2.032 . S
O8 C11 1.259 . S
O9 Mg0 2.114 . S
O9 C12 1.252 . S
O10 Mg0 2.251 . S
O10 Mg3 2.079 . S
O10 C12 1.273 . S
C11 O7 1.246 . S
C11 O8 1.259 . S
C12 O9 1.252 . S
C12 O10 1.273 . S
O13 Mg0 2.010 . S
O13 C5 1.249 . S
Mg14 O15 2.028 . S
Mg14 O21 1.986 . S
Mg14 O23 2.114 . S
Mg14 O24 2.251 . S
Mg14 O27 2.010 . S
O15 Mg14 2.028 . S
O15 C18 1.250 . S
O16 Mg17 2.028 . S
O16 C18 1.248 . S
Mg17 O16 2.028 . S
Mg17 O22 2.032 . S
Mg17 O24 2.079 . S
C18 O15 1.250 . S
C18 O16 1.248 . S
C19 O20 1.264 . S
C19 O27 1.249 . S
O20 C19 1.264 . S
O21 Mg14 1.986 . S
O21 C25 1.246 . S
O22 Mg17 2.032 . S
O22 C25 1.259 . S
O23 Mg14 2.114 . S
O23 C26 1.252 . S
O24 Mg14 2.251 . S
O24 Mg17 2.079 . S
O24 C26 1.273 . S
C25 O21 1.246 . S
C25 O22 1.259 . S
C26 O23 1.252 . S
C26 O24 1.273 . S
O27 Mg14 2.010 . S
O27 C19 1.249 . S
Mg28 O29 2.028 . S
Mg28 O35 1.986 . S
Mg28 O37 2.114 . S
Mg28 O38 2.251 . S
Mg28 O41 2.010 . S
O29 Mg28 2.028 . S
O29 C32 1.250 . S
O30 Mg31 2.028 . S
O30 C32 1.248 . S
Mg31 O30 2.028 . S
Mg31 O36 2.032 . S
Mg31 O38 2.079 . S
C32 O29 1.250 . S
C32 O30 1.248 . S
C33 O34 1.264 . S
C33 O41 1.249 . S
O34 C33 1.264 . S
O35 Mg28 1.986 . S
O35 C39 1.246 . S
O36 Mg31 2.032 . S
O36 C39 1.259 . S
O37 Mg28 2.114 . S
O37 C40 1.252 . S
O38 Mg28 2.251 . S
O38 Mg31 2.079 . S
O38 C40 1.273 . S
C39 O35 1.246 . S
C39 O36 1.259 . S
C40 O37 1.252 . S
C40 O38 1.273 . S
O41 Mg28 2.010 . S
O41 C33 1.249 . S
Mg42 O43 2.028 . S
Mg42 O49 1.986 . S
Mg42 O51 2.114 . S
Mg42 O52 2.251 . S
Mg42 O55 2.010 . S
O43 Mg42 2.028 . S
O43 C46 1.250 . S
O44 Mg45 2.028 . S
O44 C46 1.248 . S
Mg45 O44 2.028 . S
Mg45 O50 2.032 . S
Mg45 O52 2.079 . S
C46 O43 1.250 . S
C46 O44 1.248 . S
C47 O48 1.264 . S
C47 O55 1.249 . S
O48 C47 1.264 . S
O49 Mg42 1.986 . S
O49 C53 1.246 . S
O50 Mg45 2.032 . S
O50 C53 1.259 . S
O51 Mg42 2.114 . S
O51 C54 1.252 . S
O52 Mg42 2.251 . S
O52 Mg45 2.079 . S
O52 C54 1.273 . S
C53 O49 1.246 . S
C53 O50 1.259 . S
C54 O51 1.252 . S
C54 O52 1.273 . S
O55 Mg42 2.010 . S
O55 C47 1.249 . S
Mg56 O57 2.028 . S
Mg56 O63 1.986 . S
Mg56 O65 2.114 . S
Mg56 O66 2.251 . S
Mg56 O69 2.010 . S
O57 Mg56 2.028 . S
O57 C60 1.250 . S
O58 Mg59 2.028 . S
O58 C60 1.248 . S
Mg59 O58 2.028 . S
Mg59 O64 2.032 . S
Mg59 O66 2.079 . S
C60 O57 1.250 . S
C60 O58 1.248 . S
C61 O62 1.264 . S
C61 O69 1.249 . S
O62 C61 1.264 . S
O63 Mg56 1.986 . S
O63 C67 1.246 . S
O64 Mg59 2.032 . S
O64 C67 1.259 . S
O65 Mg56 2.114 . S
O65 C68 1.252 . S
O66 Mg56 2.251 . S
O66 Mg59 2.079 . S
O66 C68 1.273 . S
C67 O63 1.246 . S
C67 O64 1.259 . S
C68 O65 1.252 . S
C68 O66 1.273 . S
O69 Mg56 2.010 . S
O69 C61 1.249 . S
Mg70 O71 2.028 . S
Mg70 O77 1.986 . S
Mg70 O79 2.114 . S
Mg70 O80 2.251 . S
Mg70 O83 2.010 . S
O71 Mg70 2.028 . S
O71 C74 1.250 . S
O72 Mg73 2.028 . S
O72 C74 1.248 . S
Mg73 O72 2.028 . S
Mg73 O78 2.032 . S
Mg73 O80 2.079 . S
C74 O71 1.250 . S
C74 O72 1.248 . S
C75 O76 1.264 . S
C75 O83 1.249 . S
O76 C75 1.264 . S
O77 Mg70 1.986 . S
O77 C81 1.246 . S
O78 Mg73 2.032 . S
O78 C81 1.259 . S
O79 Mg70 2.114 . S
O79 C82 1.252 . S
O80 Mg70 2.251 . S
O80 Mg73 2.079 . S
O80 C82 1.273 . S
C81 O77 1.246 . S
C81 O78 1.259 . S
C82 O79 1.252 . S
C82 O80 1.273 . S
O83 Mg70 2.010 . S
O83 C75 1.249 . S
Mg84 O85 2.028 . S
Mg84 O91 1.986 . S
Mg84 O93 2.114 . S
Mg84 O94 2.251 . S
Mg84 O97 2.010 . S
O85 Mg84 2.028 . S
O85 C88 1.250 . S
O86 Mg87 2.028 . S
O86 C88 1.248 . S
Mg87 O86 2.028 . S
Mg87 O92 2.032 . S
Mg87 O94 2.079 . S
C88 O85 1.250 . S
C88 O86 1.248 . S
C89 O90 1.264 . S
C89 O97 1.249 . S
O90 C89 1.264 . S
O91 Mg84 1.986 . S
O91 C95 1.246 . S
O92 Mg87 2.032 . S
O92 C95 1.259 . S
O93 Mg84 2.114 . S
O93 C96 1.252 . S
O94 Mg84 2.251 . S
O94 Mg87 2.079 . S
O94 C96 1.273 . S
C95 O91 1.246 . S
C95 O92 1.259 . S
C96 O93 1.252 . S
C96 O94 1.273 . S
O97 Mg84 2.010 . S
O97 C89 1.249 . S
Mg98 O99 2.028 . S
Mg98 O105 1.986 . S
Mg98 O107 2.114 . S
Mg98 O108 2.251 . S
Mg98 O111 2.010 . S
O99 Mg98 2.028 . S
O99 C102 1.250 . S
O100 Mg101 2.028 . S
O100 C102 1.248 . S
Mg101 O100 2.028 . S
Mg101 O106 2.032 . S
Mg101 O108 2.079 . S
C102 O99 1.250 . S
C102 O100 1.248 . S
C103 O104 1.264 . S
C103 O111 1.249 . S
O104 C103 1.264 . S
O105 Mg98 1.986 . S
O105 C109 1.246 . S
O106 Mg101 2.032 . S
O106 C109 1.259 . S
O107 Mg98 2.114 . S
O107 C110 1.252 . S
O108 Mg98 2.251 . S
O108 Mg101 2.079 . S
O108 C110 1.273 . S
C109 O105 1.246 . S
C109 O106 1.259 . S
C110 O107 1.252 . S
C110 O108 1.273 . S
O111 Mg98 2.010 . S
O111 C103 1.249 . S
Mg112 O113 2.028 . S
Mg112 O119 1.986 . S
Mg112 O121 2.114 . S
Mg112 O122 2.251 . S
Mg112 O125 2.010 . S
O113 Mg112 2.028 . S
O113 C116 1.250 . S
O114 Mg115 2.028 . S
O114 C116 1.248 . S
Mg115 O114 2.028 . S
Mg115 O120 2.032 . S
Mg115 O122 2.079 . S
C116 O113 1.250 . S
C116 O114 1.248 . S
C117 O118 1.264 . S
C117 O125 1.249 . S
O118 C117 1.264 . S
O119 Mg112 1.986 . S
O119 C123 1.246 . S
O120 Mg115 2.032 . S
O120 C123 1.259 . S
O121 Mg112 2.114 . S
O121 C124 1.252 . S
O122 Mg112 2.251 . S
O122 Mg115 2.079 . S
O122 C124 1.273 . S
C123 O119 1.246 . S
C123 O120 1.259 . S
C124 O121 1.252 . S
C124 O122 1.273 . S
O125 Mg112 2.010 . S
O125 C117 1.249 . S
Mg126 O127 2.028 . S
Mg126 O133 1.986 . S
Mg126 O135 2.114 . S
Mg126 O136 2.251 . S
Mg126 O139 2.010 . S
O127 Mg126 2.028 . S
O127 C130 1.250 . S
O128 Mg129 2.028 . S
O128 C130 1.248 . S
Mg129 O128 2.028 . S
Mg129 O134 2.032 . S
Mg129 O136 2.079 . S
C130 O127 1.250 . S
C130 O128 1.248 . S
C131 O132 1.264 . S
C131 O139 1.249 . S
O132 C131 1.264 . S
O133 Mg126 1.986 . S
O133 C137 1.246 . S
O134 Mg129 2.032 . S
O134 C137 1.259 . S
O135 Mg126 2.114 . S
O135 C138 1.252 . S
O136 Mg126 2.251 . S
O136 Mg129 2.079 . S
O136 C138 1.273 . S
C137 O133 1.246 . S
C137 O134 1.259 . S
C138 O135 1.252 . S
C138 O136 1.273 . S
O139 Mg126 2.010 . S
O139 C131 1.249 . S
Mg140 O141 2.028 . S
Mg140 O147 1.986 . S
Mg140 O149 2.114 . S
Mg140 O150 2.251 . S
Mg140 O153 2.010 . S
O141 Mg140 2.028 . S
O141 C144 1.250 . S
O142 Mg143 2.028 . S
O142 C144 1.248 . S
Mg143 O142 2.028 . S
Mg143 O148 2.032 . S
Mg143 O150 2.079 . S
C144 O141 1.250 . S
C144 O142 1.248 . S
C145 O146 1.264 . S
C145 O153 1.249 . S
O146 C145 1.264 . S
O147 Mg140 1.986 . S
O147 C151 1.246 . S
O148 Mg143 2.032 . S
O148 C151 1.259 . S
O149 Mg140 2.114 . S
O149 C152 1.252 . S
O150 Mg140 2.251 . S
O150 Mg143 2.079 . S
O150 C152 1.273 . S
C151 O147 1.246 . S
C151 O148 1.259 . S
C152 O149 1.252 . S
C152 O150 1.273 . S
O153 Mg140 2.010 . S
O153 C145 1.249 . S
Mg154 O155 2.028 . S
Mg154 O161 1.986 . S
Mg154 O163 2.114 . S
Mg154 O164 2.251 . S
Mg154 O167 2.010 . S
O155 Mg154 2.028 . S
O155 C158 1.250 . S
O156 Mg157 2.028 . S
O156 C158 1.248 . S
Mg157 O156 2.028 . S
Mg157 O162 2.032 . S
Mg157 O164 2.079 . S
C158 O155 1.250 . S
C158 O156 1.248 . S
C159 O160 1.264 . S
C159 O167 1.249 . S
O160 C159 1.264 . S
O161 Mg154 1.986 . S
O161 C165 1.246 . S
O162 Mg157 2.032 . S
O162 C165 1.259 . S
O163 Mg154 2.114 . S
O163 C166 1.252 . S
O164 Mg154 2.251 . S
O164 Mg157 2.079 . S
O164 C166 1.273 . S
C165 O161 1.246 . S
C165 O162 1.259 . S
C166 O163 1.252 . S
C166 O164 1.273 . S
O167 Mg154 2.010 . S
O167 C159 1.249 . S
Mg168 O169 2.028 . S
Mg168 O175 1.986 . S
Mg168 O177 2.114 . S
Mg168 O178 2.251 . S
Mg168 O181 2.010 . S
O169 Mg168 2.028 . S
O169 C172 1.250 . S
O170 Mg171 2.028 . S
O170 C172 1.248 . S
Mg171 O170 2.028 . S
Mg171 O176 2.032 . S
Mg171 O178 2.079 . S
C172 O169 1.250 . S
C172 O170 1.248 . S
C173 O174 1.264 . S
C173 O181 1.249 . S
O174 C173 1.264 . S
O175 Mg168 1.986 . S
O175 C179 1.246 . S
O176 Mg171 2.032 . S
O176 C179 1.259 . S
O177 Mg168 2.114 . S
O177 C180 1.252 . S
O178 Mg168 2.251 . S
O178 Mg171 2.079 . S
O178 C180 1.273 . S
C179 O175 1.246 . S
C179 O176 1.259 . S
C180 O177 1.252 . S
C180 O178 1.273 . S
O181 Mg168 2.010 . S
O181 C173 1.249 . S
Mg182 O183 2.028 . S
Mg182 O189 1.986 . S
Mg182 O191 2.114 . S
Mg182 O192 2.251 . S
Mg182 O195 2.010 . S
O183 Mg182 2.028 . S
O183 C186 1.250 . S
O184 Mg185 2.028 . S
O184 C186 1.248 . S
Mg185 O184 2.028 . S
Mg185 O190 2.032 . S
Mg185 O192 2.079 . S
C186 O183 1.250 . S
C186 O184 1.248 . S
C187 O188 1.264 . S
C187 O195 1.249 . S
O188 C187 1.264 . S
O189 Mg182 1.986 . S
O189 C193 1.246 . S
O190 Mg185 2.032 . S
O190 C193 1.259 . S
O191 Mg182 2.114 . S
O191 C194 1.252 . S
O192 Mg182 2.251 . S
O192 Mg185 2.079 . S
O192 C194 1.273 . S
C193 O189 1.246 . S
C193 O190 1.259 . S
C194 O191 1.252 . S
C194 O192 1.273 . S
O195 Mg182 2.010 . S
O195 C187 1.249 . S
Mg196 O197 2.028 . S
Mg196 O203 1.986 . S
Mg196 O205 2.114 . S
Mg196 O206 2.251 . S
Mg196 O209 2.010 . S
O197 Mg196 2.028 . S
O197 C200 1.250 . S
O198 Mg199 2.028 . S
O198 C200 1.248 . S
Mg199 O198 2.028 . S
Mg199 O204 2.032 . S
Mg199 O206 2.079 . S
C200 O197 1.250 . S
C200 O198 1.248 . S
C201 O202 1.264 . S
C201 O209 1.249 . S
O202 C201 1.264 . S
O203 Mg196 1.986 . S
O203 C207 1.246 . S
O204 Mg199 2.032 . S
O204 C207 1.259 . S
O205 Mg196 2.114 . S
O205 C208 1.252 . S
O206 Mg196 2.251 . S
O206 Mg199 2.079 . S
O206 C208 1.273 . S
C207 O203 1.246 . S
C207 O204 1.259 . S
C208 O205 1.252 . S
C208 O206 1.273 . S
O209 Mg196 2.010 . S
O209 C201 1.249 . S
Mg210 O211 2.028 . S
Mg210 O217 1.986 . S
Mg210 O219 2.114 . S
Mg210 O220 2.251 . S
Mg210 O223 2.010 . S
O211 Mg210 2.028 . S
O211 C214 1.250 . S
O212 Mg213 2.028 . S
O212 C214 1.248 . S
Mg213 O212 2.028 . S
Mg213 O218 2.032 . S
Mg213 O220 2.079 . S
C214 O211 1.250 . S
C214 O212 1.248 . S
C215 O216 1.264 . S
C215 O223 1.249 . S
O216 C215 1.264 . S
O217 Mg210 1.986 . S
O217 C221 1.246 . S
O218 Mg213 2.032 . S
O218 C221 1.259 . S
O219 Mg210 2.114 . S
O219 C222 1.252 . S
O220 Mg210 2.251 . S
O220 Mg213 2.079 . S
O220 C222 1.273 . S
C221 O217 1.246 . S
C221 O218 1.259 . S
C222 O219 1.252 . S
C222 O220 1.273 . S
O223 Mg210 2.010 . S
O223 C215 1.249 . S
H224 C232 0.929 . S
H225 C234 0.930 . S
H226 C236 0.930 . S
H227 C239 0.929 . S
H228 C242 0.930 . S
H229 C244 0.960 . S
H230 C244 0.960 . S
H231 C244 0.960 . S
C232 H224 0.929 . S
C232 C233 1.377 . S
C232 C234 1.384 . S
C233 C232 1.377 . S
C233 C239 1.390 . S
C234 H225 0.930 . S
C234 C232 1.384 . S
C234 C235 1.372 . S
C235 C234 1.372 . S
C235 C236 1.400 . S
C235 C240 1.490 . S
C236 H226 0.930 . S
C236 C235 1.400 . S
C236 C239 1.386 . S
H237 C253 0.930 . S
H238 C254 0.931 . S
C239 H227 0.929 . S
C239 C233 1.390 . S
C239 C236 1.386 . S
C240 C235 1.490 . S
C240 C242 1.395 . S
C240 C243 1.403 . S
H241 C247 0.930 . S
C242 H228 0.930 . S
C242 C240 1.395 . S
C242 C245 1.403 . S
C243 C240 1.403 . S
C243 C244 1.524 . S
C243 C247 1.400 . S
C244 H229 0.960 . S
C244 H230 0.960 . S
C244 H231 0.960 . S
C244 C243 1.524 . S
C245 C242 1.403 . S
C245 C246 1.392 . S
C245 C249 1.495 . S
C246 C245 1.392 . S
C246 C247 1.385 . S
C246 C248 1.478 . S
C247 H241 0.930 . S
C247 C243 1.400 . S
C247 C246 1.385 . S
C248 C246 1.478 . S
C248 C250 1.381 . S
C248 C254 1.383 . S
C249 C245 1.495 . S
C249 H255 0.959 . S
C249 H256 0.961 . S
C249 H257 0.960 . S
C250 C248 1.381 . S
C250 C251 1.394 . S
C250 H258 0.930 . S
C251 C250 1.394 . S
C251 C252 1.383 . S
C251 H259 0.929 . S
C252 C251 1.383 . S
C252 C253 1.377 . S
C253 H237 0.930 . S
C253 C252 1.377 . S
C253 C254 1.379 . S
C254 H238 0.931 . S
C254 C248 1.383 . S
C254 C253 1.379 . S
H255 C249 0.959 . S
H256 C249 0.961 . S
H257 C249 0.960 . S
H258 C250 0.930 . S
H259 C251 0.929 . S
H260 C268 0.929 . S
H261 C270 0.930 . S
H262 C272 0.930 . S
H263 C275 0.929 . S
H264 C278 0.930 . S
H265 C280 0.960 . S
H266 C280 0.960 . S
H267 C280 0.960 . S
C268 H260 0.929 . S
C268 C269 1.377 . S
C268 C270 1.384 . S
C269 C268 1.377 . S
C269 C275 1.390 . S
C270 H261 0.930 . S
C270 C268 1.384 . S
C270 C271 1.372 . S
C271 C270 1.372 . S
C271 C272 1.400 . S
C271 C276 1.490 . S
C272 H262 0.930 . S
C272 C271 1.400 . S
C272 C275 1.386 . S
H273 C289 0.930 . S
H274 C290 0.931 . S
C275 H263 0.929 . S
C275 C269 1.390 . S
C275 C272 1.386 . S
C276 C271 1.490 . S
C276 C278 1.395 . S
C276 C279 1.403 . S
H277 C283 0.930 . S
C278 H264 0.930 . S
C278 C276 1.395 . S
C278 C281 1.403 . S
C279 C276 1.403 . S
C279 C280 1.524 . S
C279 C283 1.400 . S
C280 H265 0.960 . S
C280 H266 0.960 . S
C280 H267 0.960 . S
C280 C279 1.524 . S
C281 C278 1.403 . S
C281 C282 1.392 . S
C281 C285 1.495 . S
C282 C281 1.392 . S
C282 C283 1.385 . S
C282 C284 1.478 . S
C283 H277 0.930 . S
C283 C279 1.400 . S
C283 C282 1.385 . S
C284 C282 1.478 . S
C284 C286 1.381 . S
C284 C290 1.383 . S
C285 C281 1.495 . S
C285 H291 0.959 . S
C285 H292 0.961 . S
C285 H293 0.960 . S
C286 C284 1.381 . S
C286 C287 1.394 . S
C286 H294 0.930 . S
C287 C286 1.394 . S
C287 C288 1.383 . S
C287 H295 0.929 . S
C288 C287 1.383 . S
C288 C289 1.377 . S
C289 H273 0.930 . S
C289 C288 1.377 . S
C289 C290 1.379 . S
C290 H274 0.931 . S
C290 C284 1.383 . S
C290 C289 1.379 . S
H291 C285 0.959 . S
H292 C285 0.961 . S
H293 C285 0.960 . S
H294 C286 0.930 . S
H295 C287 0.929 . S
H296 C304 0.929 . S
H297 C306 0.930 . S
H298 C308 0.930 . S
H299 C311 0.929 . S
H300 C314 0.930 . S
H301 C316 0.960 . S
H302 C316 0.960 . S
H303 C316 0.960 . S
C304 H296 0.929 . S
C304 C305 1.377 . S
C304 C306 1.384 . S
C305 C304 1.377 . S
C305 C311 1.390 . S
C306 H297 0.930 . S
C306 C304 1.384 . S
C306 C307 1.372 . S
C307 C306 1.372 . S
C307 C308 1.400 . S
C307 C312 1.490 . S
C308 H298 0.930 . S
C308 C307 1.400 . S
C308 C311 1.386 . S
H309 C325 0.930 . S
H310 C326 0.931 . S
C311 H299 0.929 . S
C311 C305 1.390 . S
C311 C308 1.386 . S
C312 C307 1.490 . S
C312 C314 1.395 . S
C312 C315 1.403 . S
H313 C319 0.930 . S
C314 H300 0.930 . S
C314 C312 1.395 . S
C314 C317 1.403 . S
C315 C312 1.403 . S
C315 C316 1.524 . S
C315 C319 1.400 . S
C316 H301 0.960 . S
C316 H302 0.960 . S
C316 H303 0.960 . S
C316 C315 1.524 . S
C317 C314 1.403 . S
C317 C318 1.392 . S
C317 C321 1.495 . S
C318 C317 1.392 . S
C318 C319 1.385 . S
C318 C320 1.478 . S
C319 H313 0.930 . S
C319 C315 1.400 . S
C319 C318 1.385 . S
C320 C318 1.478 . S
C320 C322 1.381 . S
C320 C326 1.383 . S
C321 C317 1.495 . S
C321 H327 0.959 . S
C321 H328 0.961 . S
C321 H329 0.960 . S
C322 C320 1.381 . S
C322 C323 1.394 . S
C322 H330 0.930 . S
C323 C322 1.394 . S
C323 C324 1.383 . S
C323 H331 0.929 . S
C324 C323 1.383 . S
C324 C325 1.377 . S
C325 H309 0.930 . S
C325 C324 1.377 . S
C325 C326 1.379 . S
C326 H310 0.931 . S
C326 C320 1.383 . S
C326 C325 1.379 . S
H327 C321 0.959 . S
H328 C321 0.961 . S
H329 C321 0.960 . S
H330 C322 0.930 . S
H331 C323 0.929 . S
H332 C340 0.929 . S
H333 C342 0.930 . S
H334 C344 0.930 . S
H335 C347 0.929 . S
H336 C350 0.930 . S
H337 C352 0.960 . S
H338 C352 0.960 . S
H339 C352 0.960 . S
C340 H332 0.929 . S
C340 C341 1.377 . S
C340 C342 1.384 . S
C341 C340 1.377 . S
C341 C347 1.390 . S
C342 H333 0.930 . S
C342 C340 1.384 . S
C342 C343 1.372 . S
C343 C342 1.372 . S
C343 C344 1.400 . S
C343 C348 1.490 . S
C344 H334 0.930 . S
C344 C343 1.400 . S
C344 C347 1.386 . S
H345 C361 0.930 . S
H346 C362 0.931 . S
C347 H335 0.929 . S
C347 C341 1.390 . S
C347 C344 1.386 . S
C348 C343 1.490 . S
C348 C350 1.395 . S
C348 C351 1.403 . S
H349 C355 0.930 . S
C350 H336 0.930 . S
C350 C348 1.395 . S
C350 C353 1.403 1_455 S
C351 C348 1.403 . S
C351 C352 1.524 . S
C351 C355 1.400 1_455 S
C352 H337 0.960 . S
C352 H338 0.960 . S
C352 H339 0.960 . S
C352 C351 1.524 . S
C353 C350 1.403 1_655 S
C353 C354 1.392 . S
C353 C357 1.495 . S
C354 C353 1.392 . S
C354 C355 1.385 . S
C354 C356 1.478 . S
C355 H349 0.930 . S
C355 C351 1.400 1_655 S
C355 C354 1.385 . S
C356 C354 1.478 . S
C356 C358 1.381 . S
C356 C362 1.383 . S
C357 C353 1.495 . S
C357 H363 0.959 . S
C357 H364 0.961 . S
C357 H365 0.960 . S
C358 C356 1.381 . S
C358 C359 1.394 . S
C358 H366 0.930 . S
C359 C358 1.394 . S
C359 C360 1.383 . S
C359 H367 0.929 . S
C360 C359 1.383 . S
C360 C361 1.377 . S
C361 H345 0.930 . S
C361 C360 1.377 . S
C361 C362 1.379 . S
C362 H346 0.931 . S
C362 C356 1.383 . S
C362 C361 1.379 . S
H363 C357 0.959 . S
H364 C357 0.961 . S
H365 C357 0.960 . S
H366 C358 0.930 . S
H367 C359 0.929 . S
H368 C376 0.929 . S
H369 C378 0.930 . S
H370 C380 0.930 . S
H371 C383 0.929 . S
H372 C386 0.930 . S
H373 C388 0.960 . S
H374 C388 0.960 . S
H375 C388 0.960 . S
C376 H368 0.929 . S
C376 C377 1.377 . S
C376 C378 1.384 . S
C377 C376 1.377 . S
C377 C383 1.390 . S
C378 H369 0.930 . S
C378 C376 1.384 . S
C378 C379 1.372 . S
C379 C378 1.372 . S
C379 C380 1.400 . S
C379 C384 1.490 . S
C380 H370 0.930 . S
C380 C379 1.400 . S
C380 C383 1.386 . S
H381 C397 0.930 . S
H382 C398 0.931 . S
C383 H371 0.929 . S
C383 C377 1.390 . S
C383 C380 1.386 . S
C384 C379 1.490 . S
C384 C386 1.395 . S
C384 C387 1.403 . S
H385 C391 0.930 . S
C386 H372 0.930 . S
C386 C384 1.395 . S
C386 C389 1.403 . S
C387 C384 1.403 . S
C387 C388 1.524 . S
C387 C391 1.400 . S
C388 H373 0.960 . S
C388 H374 0.960 . S
C388 H375 0.960 . S
C388 C387 1.524 . S
C389 C386 1.403 . S
C389 C390 1.392 . S
C389 C393 1.495 . S
C390 C389 1.392 . S
C390 C391 1.385 . S
C390 C392 1.478 . S
C391 H385 0.930 . S
C391 C387 1.400 . S
C391 C390 1.385 . S
C392 C390 1.478 . S
C392 C394 1.381 . S
C392 C398 1.383 . S
C393 C389 1.495 . S
C393 H399 0.959 . S
C393 H400 0.961 . S
C393 H401 0.960 . S
C394 C392 1.381 . S
C394 C395 1.394 . S
C394 H402 0.930 . S
C395 C394 1.394 . S
C395 C396 1.383 . S
C395 H403 0.929 . S
C396 C395 1.383 . S
C396 C397 1.377 . S
C397 H381 0.930 . S
C397 C396 1.377 . S
C397 C398 1.379 . S
C398 H382 0.931 . S
C398 C392 1.383 . S
C398 C397 1.379 . S
H399 C393 0.959 . S
H400 C393 0.961 . S
H401 C393 0.960 . S
H402 C394 0.930 . S
H403 C395 0.929 . S
H404 C412 0.929 . S
H405 C414 0.930 . S
H406 C416 0.930 . S
H407 C419 0.929 . S
H408 C422 0.930 . S
H409 C424 0.960 . S
H410 C424 0.960 . S
H411 C424 0.960 . S
C412 H404 0.929 . S
C412 C413 1.377 . S
C412 C414 1.384 . S
C413 C412 1.377 . S
C413 C419 1.390 . S
C414 H405 0.930 . S
C414 C412 1.384 . S
C414 C415 1.372 . S
C415 C414 1.372 . S
C415 C416 1.400 . S
C415 C420 1.490 . S
C416 H406 0.930 . S
C416 C415 1.400 . S
C416 C419 1.386 . S
H417 C433 0.930 . S
H418 C434 0.931 . S
C419 H407 0.929 . S
C419 C413 1.390 . S
C419 C416 1.386 . S
C420 C415 1.490 . S
C420 C422 1.395 . S
C420 C423 1.403 . S
H421 C427 0.930 1_455 S
C422 H408 0.930 . S
C422 C420 1.395 . S
C422 C425 1.403 . S
C423 C420 1.403 . S
C423 C424 1.524 . S
C423 C427 1.400 . S
C424 H409 0.960 . S
C424 H410 0.960 . S
C424 H411 0.960 . S
C424 C423 1.524 . S
C425 C422 1.403 . S
C425 C426 1.392 1_655 S
C425 C429 1.495 1_655 S
C426 C425 1.392 1_455 S
C426 C427 1.385 1_455 S
C426 C428 1.478 . S
C427 H421 0.930 1_655 S
C427 C423 1.400 . S
C427 C426 1.385 1_655 S
C428 C426 1.478 . S
C428 C430 1.381 . S
C428 C434 1.383 . S
C429 C425 1.495 1_455 S
C429 H435 0.959 1_455 S
C429 H436 0.961 . S
C429 H437 0.960 . S
C430 C428 1.381 . S
C430 C431 1.394 . S
C430 H438 0.930 . S
C431 C430 1.394 . S
C431 C432 1.383 . S
C431 H439 0.929 . S
C432 C431 1.383 . S
C432 C433 1.377 . S
C433 H417 0.930 . S
C433 C432 1.377 . S
C433 C434 1.379 . S
C434 H418 0.931 . S
C434 C428 1.383 . S
C434 C433 1.379 . S
H435 C429 0.959 1_655 S
H436 C429 0.961 . S
H437 C429 0.960 . S
H438 C430 0.930 . S
H439 C431 0.929 . S
H440 C448 0.929 . S
H441 C450 0.930 . S
H442 C452 0.930 . S
H443 C455 0.929 . S
H444 C458 0.930 . S
H445 C460 0.960 . S
H446 C460 0.960 . S
H447 C460 0.960 . S
C448 H440 0.929 . S
C448 C449 1.377 . S
C448 C450 1.384 . S
C449 C448 1.377 . S
C449 C455 1.390 . S
C450 H441 0.930 . S
C450 C448 1.384 . S
C450 C451 1.372 . S
C451 C450 1.372 . S
C451 C452 1.400 . S
C451 C456 1.490 . S
C452 H442 0.930 . S
C452 C451 1.400 . S
C452 C455 1.386 . S
H453 C469 0.930 . S
H454 C470 0.931 . S
C455 H443 0.929 . S
C455 C449 1.390 . S
C455 C452 1.386 . S
C456 C451 1.490 . S
C456 C458 1.395 . S
C456 C459 1.403 . S
H457 C463 0.930 . S
C458 H444 0.930 . S
C458 C456 1.395 . S
C458 C461 1.403 . S
C459 C456 1.403 . S
C459 C460 1.524 . S
C459 C463 1.400 . S
C460 H445 0.960 . S
C460 H446 0.960 . S
C460 H447 0.960 . S
C460 C459 1.524 . S
C461 C458 1.403 . S
C461 C462 1.392 . S
C461 C465 1.495 . S
C462 C461 1.392 . S
C462 C463 1.385 . S
C462 C464 1.478 . S
C463 H457 0.930 . S
C463 C459 1.400 . S
C463 C462 1.385 . S
C464 C462 1.478 . S
C464 C466 1.381 . S
C464 C470 1.383 . S
C465 C461 1.495 . S
C465 H471 0.959 . S
C465 H472 0.961 . S
C465 H473 0.960 . S
C466 C464 1.381 . S
C466 C467 1.394 . S
C466 H474 0.930 . S
C467 C466 1.394 . S
C467 C468 1.383 . S
C467 H475 0.929 . S
C468 C467 1.383 . S
C468 C469 1.377 . S
C469 H453 0.930 . S
C469 C468 1.377 . S
C469 C470 1.379 . S
C470 H454 0.931 . S
C470 C464 1.383 . S
C470 C469 1.379 . S
H471 C465 0.959 . S
H472 C465 0.961 . S
H473 C465 0.960 . S
H474 C466 0.930 . S
H475 C467 0.929 . S
H476 C484 0.929 . S
H477 C486 0.930 . S
H478 C488 0.930 . S
H479 C491 0.929 . S
H480 C494 0.930 . S
H481 C496 0.960 . S
H482 C496 0.960 . S
H483 C496 0.960 . S
C484 H476 0.929 . S
C484 C485 1.377 . S
C484 C486 1.384 . S
C485 C484 1.377 . S
C485 C491 1.390 . S
C486 H477 0.930 . S
C486 C484 1.384 . S
C486 C487 1.372 . S
C487 C486 1.372 . S
C487 C488 1.400 . S
C487 C492 1.490 . S
C488 H478 0.930 . S
C488 C487 1.400 . S
C488 C491 1.386 . S
H489 C505 0.930 . S
H490 C506 0.931 . S
C491 H479 0.929 . S
C491 C485 1.390 . S
C491 C488 1.386 . S
C492 C487 1.490 . S
C492 C494 1.395 . S
C492 C495 1.403 . S
H493 C499 0.930 . S
C494 H480 0.930 . S
C494 C492 1.395 . S
C494 C497 1.403 . S
C495 C492 1.403 . S
C495 C496 1.524 . S
C495 C499 1.400 . S
C496 H481 0.960 . S
C496 H482 0.960 . S
C496 H483 0.960 . S
C496 C495 1.524 . S
C497 C494 1.403 . S
C497 C498 1.392 . S
C497 C501 1.495 . S
C498 C497 1.392 . S
C498 C499 1.385 . S
C498 C500 1.478 . S
C499 H493 0.930 . S
C499 C495 1.400 . S
C499 C498 1.385 . S
C500 C498 1.478 . S
C500 C502 1.381 . S
C500 C506 1.383 . S
C501 C497 1.495 . S
C501 H507 0.959 . S
C501 H508 0.961 . S
C501 H509 0.960 . S
C502 C500 1.381 . S
C502 C503 1.394 . S
C502 H510 0.930 . S
C503 C502 1.394 . S
C503 C504 1.383 . S
C503 H511 0.929 . S
C504 C503 1.383 . S
C504 C505 1.377 . S
C505 H489 0.930 . S
C505 C504 1.377 . S
C505 C506 1.379 . S
C506 H490 0.931 . S
C506 C500 1.383 . S
C506 C505 1.379 . S
H507 C501 0.959 . S
H508 C501 0.961 . S
H509 C501 0.960 . S
H510 C502 0.930 . S
H511 C503 0.929 . S
H512 C520 0.929 . S
H513 C522 0.930 . S
H514 C524 0.930 . S
H515 C527 0.929 . S
H516 C530 0.930 . S
H517 C532 0.960 . S
H518 C532 0.960 . S
H519 C532 0.960 . S
C520 H512 0.929 . S
C520 C521 1.377 . S
C520 C522 1.384 . S
C521 C520 1.377 . S
C521 C527 1.390 . S
C522 H513 0.930 . S
C522 C520 1.384 . S
C522 C523 1.372 . S
C523 C522 1.372 . S
C523 C524 1.400 . S
C523 C528 1.490 . S
C524 H514 0.930 . S
C524 C523 1.400 . S
C524 C527 1.386 . S
H525 C541 0.930 . S
H526 C542 0.931 . S
C527 H515 0.929 . S
C527 C521 1.390 . S
C527 C524 1.386 . S
C528 C523 1.490 . S
C528 C530 1.395 . S
C528 C531 1.403 . S
H529 C535 0.930 . S
C530 H516 0.930 . S
C530 C528 1.395 . S
C530 C533 1.403 . S
C531 C528 1.403 . S
C531 C532 1.524 . S
C531 C535 1.400 . S
C532 H517 0.960 . S
C532 H518 0.960 . S
C532 H519 0.960 . S
C532 C531 1.524 . S
C533 C530 1.403 . S
C533 C534 1.392 . S
C533 C537 1.495 . S
C534 C533 1.392 . S
C534 C535 1.385 . S
C534 C536 1.478 . S
C535 H529 0.930 . S
C535 C531 1.400 . S
C535 C534 1.385 . S
C536 C534 1.478 . S
C536 C538 1.381 . S
C536 C542 1.383 . S
C537 C533 1.495 . S
C537 H543 0.959 . S
C537 H544 0.961 . S
C537 H545 0.960 . S
C538 C536 1.381 . S
C538 C539 1.394 . S
C538 H546 0.930 . S
C539 C538 1.394 . S
C539 C540 1.383 . S
C539 H547 0.929 . S
C540 C539 1.383 . S
C540 C541 1.377 . S
C541 H525 0.930 . S
C541 C540 1.377 . S
C541 C542 1.379 . S
C542 H526 0.931 . S
C542 C536 1.383 . S
C542 C541 1.379 . S
H543 C537 0.959 . S
H544 C537 0.961 . S
H545 C537 0.960 . S
H546 C538 0.930 . S
H547 C539 0.929 . S
H548 C556 0.929 . S
H549 C558 0.930 . S
H550 C560 0.930 . S
H551 C563 0.929 . S
H552 C566 0.930 . S
H553 C568 0.960 . S
H554 C568 0.960 . S
H555 C568 0.960 . S
C556 H548 0.929 . S
C556 C557 1.377 . S
C556 C558 1.384 . S
C557 C556 1.377 . S
C557 C563 1.390 . S
C558 H549 0.930 . S
C558 C556 1.384 . S
C558 C559 1.372 . S
C559 C558 1.372 . S
C559 C560 1.400 . S
C559 C564 1.490 . S
C560 H550 0.930 . S
C560 C559 1.400 . S
C560 C563 1.386 . S
H561 C577 0.930 . S
H562 C578 0.931 . S
C563 H551 0.929 . S
C563 C557 1.390 . S
C563 C560 1.386 . S
C564 C559 1.490 . S
C564 C566 1.395 . S
C564 C567 1.403 . S
H565 C571 0.930 . S
C566 H552 0.930 . S
C566 C564 1.395 . S
C566 C569 1.403 . S
C567 C564 1.403 . S
C567 C568 1.524 . S
C567 C571 1.400 . S
C568 H553 0.960 . S
C568 H554 0.960 . S
C568 H555 0.960 . S
C568 C567 1.524 . S
C569 C566 1.403 . S
C569 C570 1.392 . S
C569 C573 1.495 . S
C570 C569 1.392 . S
C570 C571 1.385 . S
C570 C572 1.478 . S
C571 H565 0.930 . S
C571 C567 1.400 . S
C571 C570 1.385 . S
C572 C570 1.478 . S
C572 C574 1.381 . S
C572 C578 1.383 . S
C573 C569 1.495 . S
C573 H579 0.959 . S
C573 H580 0.961 . S
C573 H581 0.960 . S
C574 C572 1.381 . S
C574 C575 1.394 . S
C574 H582 0.930 . S
C575 C574 1.394 . S
C575 C576 1.383 . S
C575 H583 0.929 . S
C576 C575 1.383 . S
C576 C577 1.377 . S
C577 H561 0.930 . S
C577 C576 1.377 . S
C577 C578 1.379 . S
C578 H562 0.931 . S
C578 C572 1.383 . S
C578 C577 1.379 . S
H579 C573 0.959 . S
H580 C573 0.961 . S
H581 C573 0.960 . S
H582 C574 0.930 . S
H583 C575 0.929 . S
H584 C592 0.929 . S
H585 C594 0.930 . S
H586 C596 0.930 . S
H587 C599 0.929 . S
H588 C602 0.930 . S
H589 C604 0.960 . S
H590 C604 0.960 . S
H591 C604 0.960 . S
C592 H584 0.929 . S
C592 C593 1.377 . S
C592 C594 1.384 . S
C593 C592 1.377 . S
C593 C599 1.390 . S
C594 H585 0.930 . S
C594 C592 1.384 . S
C594 C595 1.372 . S
C595 C594 1.372 . S
C595 C596 1.400 . S
C595 C600 1.490 . S
C596 H586 0.930 . S
C596 C595 1.400 . S
C596 C599 1.386 . S
H597 C613 0.930 . S
H598 C614 0.931 . S
C599 H587 0.929 . S
C599 C593 1.390 . S
C599 C596 1.386 . S
C600 C595 1.490 . S
C600 C602 1.395 . S
C600 C603 1.403 . S
H601 C607 0.930 . S
C602 H588 0.930 . S
C602 C600 1.395 . S
C602 C605 1.403 . S
C603 C600 1.403 . S
C603 C604 1.524 . S
C603 C607 1.400 . S
C604 H589 0.960 . S
C604 H590 0.960 . S
C604 H591 0.960 . S
C604 C603 1.524 . S
C605 C602 1.403 . S
C605 C606 1.392 . S
C605 C609 1.495 . S
C606 C605 1.392 . S
C606 C607 1.385 . S
C606 C608 1.478 . S
C607 H601 0.930 . S
C607 C603 1.400 . S
C607 C606 1.385 . S
C608 C606 1.478 . S
C608 C610 1.381 . S
C608 C614 1.383 . S
C609 C605 1.495 . S
C609 H615 0.959 . S
C609 H616 0.961 . S
C609 H617 0.960 . S
C610 C608 1.381 . S
C610 C611 1.394 . S
C610 H618 0.930 . S
C611 C610 1.394 . S
C611 C612 1.383 . S
C611 H619 0.929 . S
C612 C611 1.383 . S
C612 C613 1.377 . S
C613 H597 0.930 . S
C613 C612 1.377 . S
C613 C614 1.379 . S
C614 H598 0.931 . S
C614 C608 1.383 . S
C614 C613 1.379 . S
H615 C609 0.959 . S
H616 C609 0.961 . S
H617 C609 0.960 . S
H618 C610 0.930 . S
H619 C611 0.929 . S
H620 C628 0.929 . S
H621 C630 0.930 . S
H622 C632 0.930 . S
H623 C635 0.929 . S
H624 C638 0.930 . S
H625 C640 0.960 . S
H626 C640 0.960 . S
H627 C640 0.960 . S
C628 H620 0.929 . S
C628 C629 1.377 . S
C628 C630 1.384 . S
C629 C628 1.377 . S
C629 C635 1.390 . S
C630 H621 0.930 . S
C630 C628 1.384 . S
C630 C631 1.372 . S
C631 C630 1.372 . S
C631 C632 1.400 . S
C631 C636 1.490 . S
C632 H622 0.930 . S
C632 C631 1.400 . S
C632 C635 1.386 . S
H633 C649 0.930 . S
H634 C650 0.931 . S
C635 H623 0.929 . S
C635 C629 1.390 . S
C635 C632 1.386 . S
C636 C631 1.490 . S
C636 C638 1.395 . S
C636 C639 1.403 . S
H637 C643 0.930 . S
C638 H624 0.930 . S
C638 C636 1.395 . S
C638 C641 1.403 . S
C639 C636 1.403 . S
C639 C640 1.524 . S
C639 C643 1.400 . S
C640 H625 0.960 . S
C640 H626 0.960 . S
C640 H627 0.960 . S
C640 C639 1.524 . S
C641 C638 1.403 . S
C641 C642 1.392 . S
C641 C645 1.495 . S
C642 C641 1.392 . S
C642 C643 1.385 . S
C642 C644 1.478 . S
C643 H637 0.930 . S
C643 C639 1.400 . S
C643 C642 1.385 . S
C644 C642 1.478 . S
C644 C646 1.381 . S
C644 C650 1.383 . S
C645 C641 1.495 . S
C645 H651 0.959 . S
C645 H652 0.961 . S
C645 H653 0.960 . S
C646 C644 1.381 . S
C646 C647 1.394 . S
C646 H654 0.930 . S
C647 C646 1.394 . S
C647 C648 1.383 . S
C647 H655 0.929 . S
C648 C647 1.383 . S
C648 C649 1.377 . S
C649 H633 0.930 . S
C649 C648 1.377 . S
C649 C650 1.379 . S
C650 H634 0.931 . S
C650 C644 1.383 . S
C650 C649 1.379 . S
H651 C645 0.959 . S
H652 C645 0.961 . S
H653 C645 0.960 . S
H654 C646 0.930 . S
H655 C647 0.929 . S
H656 C664 0.929 . S
H657 C666 0.930 . S
H658 C668 0.930 . S
H659 C671 0.929 . S
H660 C674 0.930 . S
H661 C676 0.960 . S
H662 C676 0.960 . S
H663 C676 0.960 . S
C664 H656 0.929 . S
C664 C665 1.377 . S
C664 C666 1.384 . S
C665 C664 1.377 . S
C665 C671 1.390 . S
C666 H657 0.930 . S
C666 C664 1.384 . S
C666 C667 1.372 . S
C667 C666 1.372 . S
C667 C668 1.400 . S
C667 C672 1.490 . S
C668 H658 0.930 . S
C668 C667 1.400 . S
C668 C671 1.386 . S
H669 C685 0.930 . S
H670 C686 0.931 . S
C671 H659 0.929 . S
C671 C665 1.390 . S
C671 C668 1.386 . S
C672 C667 1.490 . S
C672 C674 1.395 . S
C672 C675 1.403 . S
H673 C679 0.930 . S
C674 H660 0.930 . S
C674 C672 1.395 . S
C674 C677 1.403 1_455 S
C675 C672 1.403 . S
C675 C676 1.524 . S
C675 C679 1.400 1_455 S
C676 H661 0.960 . S
C676 H662 0.960 . S
C676 H663 0.960 . S
C676 C675 1.524 . S
C677 C674 1.403 1_655 S
C677 C678 1.392 . S
C677 C681 1.495 . S
C678 C677 1.392 . S
C678 C679 1.385 . S
C678 C680 1.478 . S
C679 H673 0.930 . S
C679 C675 1.400 1_655 S
C679 C678 1.385 . S
C680 C678 1.478 . S
C680 C682 1.381 . S
C680 C686 1.383 . S
C681 C677 1.495 . S
C681 H687 0.959 . S
C681 H688 0.961 . S
C681 H689 0.960 . S
C682 C680 1.381 . S
C682 C683 1.394 . S
C682 H690 0.930 . S
C683 C682 1.394 . S
C683 C684 1.383 . S
C683 H691 0.929 . S
C684 C683 1.383 . S
C684 C685 1.377 . S
C685 H669 0.930 . S
C685 C684 1.377 . S
C685 C686 1.379 . S
C686 H670 0.931 . S
C686 C680 1.383 . S
C686 C685 1.379 . S
H687 C681 0.959 . S
H688 C681 0.961 . S
H689 C681 0.960 . S
H690 C682 0.930 . S
H691 C683 0.929 . S
H692 C700 0.929 . S
H693 C702 0.930 . S
H694 C704 0.930 . S
H695 C707 0.929 . S
H696 C710 0.930 . S
H697 C712 0.960 . S
H698 C712 0.960 . S
H699 C712 0.960 . S
C700 H692 0.929 . S
C700 C701 1.377 . S
C700 C702 1.384 . S
C701 C700 1.377 . S
C701 C707 1.390 . S
C702 H693 0.930 . S
C702 C700 1.384 . S
C702 C703 1.372 . S
C703 C702 1.372 . S
C703 C704 1.400 . S
C703 C708 1.490 . S
C704 H694 0.930 . S
C704 C703 1.400 . S
C704 C707 1.386 . S
H705 C721 0.930 . S
H706 C722 0.931 . S
C707 H695 0.929 . S
C707 C701 1.390 . S
C707 C704 1.386 . S
C708 C703 1.490 . S
C708 C710 1.395 . S
C708 C711 1.403 . S
H709 C715 0.930 . S
C710 H696 0.930 . S
C710 C708 1.395 . S
C710 C713 1.403 . S
C711 C708 1.403 . S
C711 C712 1.524 . S
C711 C715 1.400 . S
C712 H697 0.960 . S
C712 H698 0.960 . S
C712 H699 0.960 . S
C712 C711 1.524 . S
C713 C710 1.403 . S
C713 C714 1.392 . S
C713 C717 1.495 . S
C714 C713 1.392 . S
C714 C715 1.385 . S
C714 C716 1.478 . S
C715 H709 0.930 . S
C715 C711 1.400 . S
C715 C714 1.385 . S
C716 C714 1.478 . S
C716 C718 1.381 . S
C716 C722 1.383 . S
C717 C713 1.495 . S
C717 H723 0.959 . S
C717 H724 0.961 . S
C717 H725 0.960 . S
C718 C716 1.381 . S
C718 C719 1.394 . S
C718 H726 0.930 . S
C719 C718 1.394 . S
C719 C720 1.383 . S
C719 H727 0.929 . S
C720 C719 1.383 . S
C720 C721 1.377 . S
C721 H705 0.930 . S
C721 C720 1.377 . S
C721 C722 1.379 . S
C722 H706 0.931 . S
C722 C716 1.383 . S
C722 C721 1.379 . S
H723 C717 0.959 . S
H724 C717 0.961 . S
H725 C717 0.960 . S
H726 C718 0.930 . S
H727 C719 0.929 . S
H728 C736 0.929 . S
H729 C738 0.930 . S
H730 C740 0.930 . S
H731 C743 0.929 . S
H732 C746 0.930 . S
H733 C748 0.960 . S
H734 C748 0.960 . S
H735 C748 0.960 . S
C736 H728 0.929 . S
C736 C737 1.377 . S
C736 C738 1.384 . S
C737 C736 1.377 . S
C737 C743 1.390 . S
C738 H729 0.930 . S
C738 C736 1.384 . S
C738 C739 1.372 . S
C739 C738 1.372 . S
C739 C740 1.400 . S
C739 C744 1.490 . S
C740 H730 0.930 . S
C740 C739 1.400 . S
C740 C743 1.386 . S
H741 C757 0.930 . S
H742 C758 0.931 . S
C743 H731 0.929 . S
C743 C737 1.390 . S
C743 C740 1.386 . S
C744 C739 1.490 . S
C744 C746 1.395 . S
C744 C747 1.403 . S
H745 C751 0.930 . S
C746 H732 0.930 . S
C746 C744 1.395 . S
C746 C749 1.403 . S
C747 C744 1.403 . S
C747 C748 1.524 . S
C747 C751 1.400 . S
C748 H733 0.960 . S
C748 H734 0.960 . S
C748 H735 0.960 . S
C748 C747 1.524 . S
C749 C746 1.403 . S
C749 C750 1.392 . S
C749 C753 1.495 . S
C750 C749 1.392 . S
C750 C751 1.385 . S
C750 C752 1.478 . S
C751 H745 0.930 . S
C751 C747 1.400 . S
C751 C750 1.385 . S
C752 C750 1.478 . S
C752 C754 1.381 . S
C752 C758 1.383 . S
C753 C749 1.495 . S
C753 H759 0.959 . S
C753 H760 0.961 . S
C753 H761 0.960 . S
C754 C752 1.381 . S
C754 C755 1.394 . S
C754 H762 0.930 . S
C755 C754 1.394 . S
C755 C756 1.383 . S
C755 H763 0.929 . S
C756 C755 1.383 . S
C756 C757 1.377 . S
C757 H741 0.930 . S
C757 C756 1.377 . S
C757 C758 1.379 . S
C758 H742 0.931 . S
C758 C752 1.383 . S
C758 C757 1.379 . S
H759 C753 0.959 . S
H760 C753 0.961 . S
H761 C753 0.960 . S
H762 C754 0.930 . S
H763 C755 0.929 . S
H764 C772 0.929 . S
H765 C774 0.930 . S
H766 C776 0.930 . S
H767 C779 0.929 . S
H768 C782 0.930 . S
H769 C784 0.960 . S
H770 C784 0.960 . S
H771 C784 0.960 . S
C772 H764 0.929 . S
C772 C773 1.377 . S
C772 C774 1.384 . S
C773 C772 1.377 . S
C773 C779 1.390 . S
C774 H765 0.930 . S
C774 C772 1.384 . S
C774 C775 1.372 . S
C775 C774 1.372 . S
C775 C776 1.400 . S
C775 C780 1.490 . S
C776 H766 0.930 . S
C776 C775 1.400 . S
C776 C779 1.386 . S
H777 C793 0.930 . S
H778 C794 0.931 . S
C779 H767 0.929 . S
C779 C773 1.390 . S
C779 C776 1.386 . S
C780 C775 1.490 . S
C780 C782 1.395 . S
C780 C783 1.403 . S
H781 C787 0.930 . S
C782 H768 0.930 . S
C782 C780 1.395 . S
C782 C785 1.367 1_455 S
C783 C780 1.403 . S
C783 C784 1.524 . S
C783 C787 1.400 1_455 S
C784 H769 0.960 . S
C784 H770 0.960 . S
C784 H771 0.960 . S
C784 C783 1.524 . S
C785 C782 1.367 1_655 S
C785 C786 1.412 . S
C785 C789 1.512 . S
C786 C785 1.412 . S
C786 C787 1.385 . S
C786 C788 1.478 . S
C787 H781 0.930 . S
C787 C783 1.400 1_655 S
C787 C786 1.385 . S
C788 C786 1.478 . S
C788 C790 1.381 . S
C788 C794 1.383 . S
C789 C785 1.512 . S
C789 H795 0.982 . S
C789 H796 0.961 . S
C789 H797 0.960 . S
C790 C788 1.381 . S
C790 C791 1.394 . S
C790 H798 0.930 . S
C791 C790 1.394 . S
C791 C792 1.383 . S
C791 H799 0.929 . S
C792 C791 1.383 . S
C792 C793 1.377 . S
C793 H777 0.930 . S
C793 C792 1.377 . S
C793 C794 1.379 . S
C794 H778 0.931 . S
C794 C788 1.383 . S
C794 C793 1.379 . S
H795 C789 0.982 . S
H796 C789 0.961 . S
H797 C789 0.960 . S
H798 C790 0.930 . S
H799 C791 0.929 . S
H800 C808 0.929 . S
H801 C810 0.930 . S
H802 C812 0.930 . S
H803 C815 0.929 . S
H804 C818 0.930 . S
H805 C820 0.960 . S
H806 C820 0.960 . S
H807 C820 0.960 . S
C808 H800 0.929 . S
C808 C809 1.377 . S
C808 C810 1.384 . S
C809 C808 1.377 . S
C809 C815 1.390 . S
C810 H801 0.930 . S
C810 C808 1.384 . S
C810 C811 1.372 . S
C811 C810 1.372 . S
C811 C812 1.400 . S
C811 C816 1.490 . S
C812 H802 0.930 . S
C812 C811 1.400 . S
C812 C815 1.386 . S
H813 C829 0.930 . S
H814 C830 0.931 . S
C815 H803 0.929 . S
C815 C809 1.390 . S
C815 C812 1.386 . S
C816 C811 1.490 . S
C816 C818 1.395 . S
C816 C819 1.403 . S
H817 C823 0.930 . S
C818 H804 0.930 . S
C818 C816 1.395 . S
C818 C821 1.403 1_554 S
C819 C816 1.403 . S
C819 C820 1.524 . S
C819 C823 1.400 1_554 S
C820 H805 0.960 . S
C820 H806 0.960 . S
C820 H807 0.960 . S
C820 C819 1.524 . S
C821 C818 1.403 1_556 S
C821 C822 1.392 . S
C821 C825 1.495 . S
C822 C821 1.392 . S
C822 C823 1.385 . S
C822 C824 1.478 . S
C823 H817 0.930 . S
C823 C819 1.400 1_556 S
C823 C822 1.385 . S
C824 C822 1.478 . S
C824 C826 1.381 . S
C824 C830 1.383 . S
C825 C821 1.495 . S
C825 H831 0.959 . S
C825 H832 0.961 . S
C825 H833 0.960 . S
C826 C824 1.381 . S
C826 C827 1.394 . S
C826 H834 0.930 . S
C827 C826 1.394 . S
C827 C828 1.383 . S
C827 H835 0.929 . S
C828 C827 1.383 . S
C828 C829 1.377 . S
C829 H813 0.930 . S
C829 C828 1.377 . S
C829 C830 1.379 . S
C830 H814 0.931 . S
C830 C824 1.383 . S
C830 C829 1.379 . S
H831 C825 0.959 . S
H832 C825 0.961 . S
H833 C825 0.960 . S
H834 C826 0.930 . S
H835 C827 0.929 . S
H836 C844 0.929 . S
H837 C846 0.930 . S
H838 C848 0.930 . S
H839 C851 0.929 . S
H840 C854 0.930 . S
H841 C856 0.960 . S
H842 C856 0.960 . S
H843 C856 0.960 . S
C844 H836 0.929 . S
C844 C845 1.377 . S
C844 C846 1.384 . S
C845 C844 1.377 . S
C845 C851 1.390 . S
C846 H837 0.930 . S
C846 C844 1.384 . S
C846 C847 1.372 . S
C847 C846 1.372 . S
C847 C848 1.400 . S
C847 C852 1.490 . S
C848 H838 0.930 . S
C848 C847 1.400 . S
C848 C851 1.386 . S
H849 C865 0.930 . S
H850 C866 0.931 . S
C851 H839 0.929 . S
C851 C845 1.390 . S
C851 C848 1.386 . S
C852 C847 1.490 . S
C852 C854 1.395 . S
C852 C855 1.403 . S
H853 C859 0.930 . S
C854 H840 0.930 . S
C854 C852 1.395 . S
C854 C857 1.403 . S
C855 C852 1.403 . S
C855 C856 1.524 . S
C855 C859 1.400 . S
C856 H841 0.960 . S
C856 H842 0.960 . S
C856 H843 0.960 . S
C856 C855 1.524 . S
C857 C854 1.403 . S
C857 C858 1.392 . S
C857 C861 1.495 . S
C858 C857 1.392 . S
C858 C859 1.385 . S
C858 C860 1.478 . S
C859 H853 0.930 . S
C859 C855 1.400 . S
C859 C858 1.385 . S
C860 C858 1.478 . S
C860 C862 1.381 . S
C860 C866 1.383 . S
C861 C857 1.495 . S
C861 H867 0.959 . S
C861 H868 0.961 . S
C861 H869 0.960 . S
C862 C860 1.381 . S
C862 C863 1.394 . S
C862 H870 0.930 . S
C863 C862 1.394 . S
C863 C864 1.383 . S
C863 H871 0.929 . S
C864 C863 1.383 . S
C864 C865 1.377 . S
C865 H849 0.930 . S
C865 C864 1.377 . S
C865 C866 1.379 . S
C866 H850 0.931 . S
C866 C860 1.383 . S
C866 C865 1.379 . S
H867 C861 0.959 . S
H868 C861 0.961 . S
H869 C861 0.960 . S
H870 C862 0.930 . S
H871 C863 0.929 . S
H872 C880 0.929 . S
H873 C882 0.930 . S
H874 C884 0.930 . S
H875 C887 0.929 . S
H876 C890 0.930 . S
H877 C892 0.960 . S
H878 C892 0.960 . S
H879 C892 0.960 . S
C880 H872 0.929 . S
C880 C881 1.377 . S
C880 C882 1.384 . S
C881 C880 1.377 . S
C881 C887 1.390 . S
C882 H873 0.930 . S
C882 C880 1.384 . S
C882 C883 1.372 . S
C883 C882 1.372 . S
C883 C884 1.400 . S
C883 C888 1.490 . S
C884 H874 0.930 . S
C884 C883 1.400 . S
C884 C887 1.386 . S
H885 C901 0.930 . S
H886 C902 0.931 . S
C887 H875 0.929 . S
C887 C881 1.390 . S
C887 C884 1.386 . S
C888 C883 1.490 . S
C888 C890 1.395 . S
C888 C891 1.403 . S
H889 C895 0.930 . S
C890 H876 0.930 . S
C890 C888 1.395 . S
C890 C893 1.403 . S
C891 C888 1.403 . S
C891 C892 1.524 . S
C891 C895 1.400 . S
C892 H877 0.960 . S
C892 H878 0.960 . S
C892 H879 0.960 . S
C892 C891 1.524 . S
C893 C890 1.403 . S
C893 C894 1.392 . S
C893 C897 1.495 . S
C894 C893 1.392 . S
C894 C895 1.385 . S
C894 C896 1.478 . S
C895 H889 0.930 . S
C895 C891 1.400 . S
C895 C894 1.385 . S
C896 C894 1.478 . S
C896 C898 1.381 . S
C896 C902 1.383 . S
C897 C893 1.495 . S
C897 H903 0.959 . S
C897 H904 0.961 . S
C897 H905 0.960 . S
C898 C896 1.381 . S
C898 C899 1.394 . S
C898 H906 0.930 . S
C899 C898 1.394 . S
C899 C900 1.383 . S
C899 H907 0.929 . S
C900 C899 1.383 . S
C900 C901 1.377 . S
C901 H885 0.930 . S
C901 C900 1.377 . S
C901 C902 1.379 . S
C902 H886 0.931 . S
C902 C896 1.383 . S
C902 C901 1.379 . S
H903 C897 0.959 . S
H904 C897 0.961 . S
H905 C897 0.960 . S
H906 C898 0.930 . S
H907 C899 0.929 . S
H908 C916 0.929 . S
H909 C918 0.930 . S
H910 C920 0.930 . S
H911 C923 0.929 . S
H912 C926 0.930 . S
H913 C928 0.960 . S
H914 C928 0.960 . S
H915 C928 0.960 . S
C916 H908 0.929 . S
C916 C917 1.377 . S
C916 C918 1.384 . S
C917 C916 1.377 . S
C917 C923 1.390 . S
C918 H909 0.930 . S
C918 C916 1.384 . S
C918 C919 1.372 . S
C919 C918 1.372 . S
C919 C920 1.400 . S
C919 C924 1.490 . S
C920 H910 0.930 . S
C920 C919 1.400 . S
C920 C923 1.386 . S
H921 C937 0.930 . S
H922 C938 0.931 . S
C923 H911 0.929 . S
C923 C917 1.390 . S
C923 C920 1.386 . S
C924 C919 1.490 . S
C924 C926 1.395 . S
C924 C927 1.403 . S
H925 C931 0.930 . S
C926 H912 0.930 . S
C926 C924 1.395 . S
C926 C929 1.403 . S
C927 C924 1.403 . S
C927 C928 1.524 . S
C927 C931 1.400 . S
C928 H913 0.960 . S
C928 H914 0.960 . S
C928 H915 0.960 . S
C928 C927 1.524 . S
C929 C926 1.403 . S
C929 C930 1.392 . S
C929 C933 1.495 . S
C930 C929 1.392 . S
C930 C931 1.385 . S
C930 C932 1.478 . S
C931 H925 0.930 . S
C931 C927 1.400 . S
C931 C930 1.385 . S
C932 C930 1.478 . S
C932 C934 1.381 . S
C932 C938 1.383 . S
C933 C929 1.495 . S
C933 H939 0.959 . S
C933 H940 0.961 . S
C933 H941 0.960 . S
C934 C932 1.381 . S
C934 C935 1.394 . S
C934 H942 0.930 . S
C935 C934 1.394 . S
C935 C936 1.383 . S
C935 H943 0.929 . S
C936 C935 1.383 . S
C936 C937 1.377 . S
C937 H921 0.930 . S
C937 C936 1.377 . S
C937 C938 1.379 . S
C938 H922 0.931 . S
C938 C932 1.383 . S
C938 C937 1.379 . S
H939 C933 0.959 . S
H940 C933 0.961 . S
H941 C933 0.960 . S
H942 C934 0.930 . S
H943 C935 0.929 . S
H944 C952 0.929 . S
H945 C954 0.930 . S
H946 C956 0.930 . S
H947 C959 0.929 . S
H948 C962 0.927 1_556 S
H949 C964 0.960 . S
H950 C964 0.960 . S
H951 C964 0.960 . S
C952 H944 0.929 . S
C952 C953 1.377 . S
C952 C954 1.384 . S
C953 C952 1.377 . S
C953 C959 1.390 . S
C954 H945 0.930 . S
C954 C952 1.384 . S
C954 C955 1.372 . S
C955 C954 1.372 . S
C955 C956 1.400 . S
C955 C960 1.490 . S
C956 H946 0.930 . S
C956 C955 1.400 . S
C956 C959 1.386 . S
H957 C973 0.930 . S
H958 C974 0.931 . S
C959 H947 0.929 . S
C959 C953 1.390 . S
C959 C956 1.386 . S
C960 C955 1.490 . S
C960 C962 1.384 1_556 S
C960 C963 1.403 . S
H961 C967 0.930 . S
C962 H948 0.927 1_554 S
C962 C960 1.384 1_554 S
C962 C965 1.417 . S
C963 C960 1.403 . S
C963 C964 1.524 . S
C963 C967 1.400 1_556 S
C964 H949 0.960 . S
C964 H950 0.960 . S
C964 H951 0.960 . S
C964 C963 1.524 . S
C965 C962 1.417 . S
C965 C966 1.392 . S
C965 C969 1.495 . S
C966 C965 1.392 . S
C966 C967 1.385 . S
C966 C968 1.478 . S
C967 H961 0.930 . S
C967 C963 1.400 1_554 S
C967 C966 1.385 . S
C968 C966 1.478 . S
C968 C970 1.381 . S
C968 C974 1.383 . S
C969 C965 1.495 . S
C969 H975 0.959 . S
C969 H976 0.961 . S
C969 H977 0.960 . S
C970 C968 1.381 . S
C970 C971 1.394 . S
C970 H978 0.930 . S
C971 C970 1.394 . S
C971 C972 1.383 . S
C971 H979 0.929 . S
C972 C971 1.383 . S
C972 C973 1.377 . S
C973 H957 0.930 . S
C973 C972 1.377 . S
C973 C974 1.379 . S
C974 H958 0.931 . S
C974 C968 1.383 . S
C974 C973 1.379 . S
H975 C969 0.959 . S
H976 C969 0.961 . S
H977 C969 0.960 . S
H978 C970 0.930 . S
H979 C971 0.929 . S
H980 C988 0.929 . S
H981 C990 0.930 . S
H982 C992 0.930 . S
H983 C995 0.929 . S
H984 C998 0.930 . S
H985 C1000 0.960 . S
H986 C1000 0.960 . S
H987 C1000 0.960 . S
C988 H980 0.929 . S
C988 C989 1.377 . S
C988 C990 1.384 . S
C989 C988 1.377 . S
C989 C995 1.390 . S
C990 H981 0.930 . S
C990 C988 1.384 . S
C990 C991 1.372 . S
C991 C990 1.372 . S
C991 C992 1.400 . S
C991 C996 1.490 . S
C992 H982 0.930 . S
C992 C991 1.400 . S
C992 C995 1.386 . S
H993 C1009 0.930 . S
H994 C1010 0.931 . S
C995 H983 0.929 . S
C995 C989 1.390 . S
C995 C992 1.386 . S
C996 C991 1.490 . S
C996 C998 1.395 . S
C996 C999 1.403 . S
H997 C1003 0.930 . S
C998 H984 0.930 . S
C998 C996 1.395 . S
C998 C1001 1.403 . S
C999 C996 1.403 . S
C999 C1000 1.524 . S
C999 C1003 1.400 . S
C1000 H985 0.960 . S
C1000 H986 0.960 . S
C1000 H987 0.960 . S
C1000 C999 1.524 . S
C1001 C998 1.403 . S
C1001 C1002 1.392 . S
C1001 C1005 1.495 . S
C1002 C1001 1.392 . S
C1002 C1003 1.385 . S
C1002 C1004 1.478 . S
C1003 H997 0.930 . S
C1003 C999 1.400 . S
C1003 C1002 1.385 . S
C1004 C1002 1.478 . S
C1004 C1006 1.381 . S
C1004 C1010 1.383 . S
C1005 C1001 1.495 . S
C1005 H1011 0.959 . S
C1005 H1012 0.961 . S
C1005 H1013 0.960 . S
C1006 C1004 1.381 . S
C1006 C1007 1.394 . S
C1006 H1014 0.930 . S
C1007 C1006 1.394 . S
C1007 C1008 1.383 . S
C1007 H1015 0.929 . S
C1008 C1007 1.383 . S
C1008 C1009 1.377 . S
C1009 H993 0.930 . S
C1009 C1008 1.377 . S
C1009 C1010 1.379 . S
C1010 H994 0.931 . S
C1010 C1004 1.383 . S
C1010 C1009 1.379 . S
H1011 C1005 0.959 . S
H1012 C1005 0.961 . S
H1013 C1005 0.960 . S
H1014 C1006 0.930 . S
H1015 C1007 0.929 . S
H1016 C1024 0.929 . S
H1017 C1026 0.930 . S
H1018 C1028 0.930 . S
H1019 C1031 0.929 . S
H1020 C1034 0.930 . S
H1021 C1036 0.960 . S
H1022 C1036 0.960 . S
H1023 C1036 0.960 . S
C1024 H1016 0.929 . S
C1024 C1025 1.377 . S
C1024 C1026 1.384 . S
C1025 C1024 1.377 . S
C1025 C1031 1.390 . S
C1026 H1017 0.930 . S
C1026 C1024 1.384 . S
C1026 C1027 1.372 . S
C1027 C1026 1.372 . S
C1027 C1028 1.400 . S
C1027 C1032 1.490 . S
C1028 H1018 0.930 . S
C1028 C1027 1.400 . S
C1028 C1031 1.386 . S
H1029 C1045 0.930 . S
H1030 C1046 0.931 . S
C1031 H1019 0.929 . S
C1031 C1025 1.390 . S
C1031 C1028 1.386 . S
C1032 C1027 1.490 . S
C1032 C1034 1.395 . S
C1032 C1035 1.403 . S
H1033 C1039 0.930 . S
C1034 H1020 0.930 . S
C1034 C1032 1.395 . S
C1034 C1037 1.403 . S
C1035 C1032 1.403 . S
C1035 C1036 1.524 . S
C1035 C1039 1.400 . S
C1036 H1021 0.960 . S
C1036 H1022 0.960 . S
C1036 H1023 0.960 . S
C1036 C1035 1.524 . S
C1037 C1034 1.403 . S
C1037 C1038 1.392 . S
C1037 C1041 1.495 . S
C1038 C1037 1.392 . S
C1038 C1039 1.385 . S
C1038 C1040 1.478 . S
C1039 H1033 0.930 . S
C1039 C1035 1.400 . S
C1039 C1038 1.385 . S
C1040 C1038 1.478 . S
C1040 C1042 1.381 . S
C1040 C1046 1.383 . S
C1041 C1037 1.495 . S
C1041 H1047 0.959 . S
C1041 H1048 0.961 . S
C1041 H1049 0.960 . S
C1042 C1040 1.381 . S
C1042 C1043 1.394 . S
C1042 H1050 0.930 . S
C1043 C1042 1.394 . S
C1043 C1044 1.383 . S
C1043 H1051 0.929 . S
C1044 C1043 1.383 . S
C1044 C1045 1.377 . S
C1045 H1029 0.930 . S
C1045 C1044 1.377 . S
C1045 C1046 1.379 . S
C1046 H1030 0.931 . S
C1046 C1040 1.383 . S
C1046 C1045 1.379 . S
H1047 C1041 0.959 . S
H1048 C1041 0.961 . S
H1049 C1041 0.960 . S
H1050 C1042 0.930 . S
H1051 C1043 0.929 . S
H1052 C1060 0.929 . S
H1053 C1062 0.930 . S
H1054 C1064 0.930 . S
H1055 C1067 0.929 . S
H1056 C1070 0.930 . S
H1057 C1072 0.960 . S
H1058 C1072 0.960 . S
H1059 C1072 0.960 . S
C1060 H1052 0.929 . S
C1060 C1061 1.377 . S
C1060 C1062 1.384 . S
C1061 C1060 1.377 . S
C1061 C1067 1.390 . S
C1062 H1053 0.930 . S
C1062 C1060 1.384 . S
C1062 C1063 1.372 . S
C1063 C1062 1.372 . S
C1063 C1064 1.400 . S
C1063 C1068 1.490 . S
C1064 H1054 0.930 . S
C1064 C1063 1.400 . S
C1064 C1067 1.386 . S
H1065 C1081 0.930 . S
H1066 C1082 0.931 . S
C1067 H1055 0.929 . S
C1067 C1061 1.390 . S
C1067 C1064 1.386 . S
C1068 C1063 1.490 . S
C1068 C1070 1.395 . S
C1068 C1071 1.403 . S
H1069 C1075 0.930 . S
C1070 H1056 0.930 . S
C1070 C1068 1.395 . S
C1070 C1073 1.403 . S
C1071 C1068 1.403 . S
C1071 C1072 1.524 . S
C1071 C1075 1.400 . S
C1072 H1057 0.960 . S
C1072 H1058 0.960 . S
C1072 H1059 0.960 . S
C1072 C1071 1.524 . S
C1073 C1070 1.403 . S
C1073 C1074 1.392 . S
C1073 C1077 1.495 . S
C1074 C1073 1.392 . S
C1074 C1075 1.385 . S
C1074 C1076 1.478 . S
C1075 H1069 0.930 . S
C1075 C1071 1.400 . S
C1075 C1074 1.385 . S
C1076 C1074 1.478 . S
C1076 C1078 1.381 . S
C1076 C1082 1.383 . S
C1077 C1073 1.495 . S
C1077 H1083 0.959 . S
C1077 H1084 0.961 . S
C1077 H1085 0.960 . S
C1078 C1076 1.381 . S
C1078 C1079 1.394 . S
C1078 H1086 0.930 . S
C1079 C1078 1.394 . S
C1079 C1080 1.383 . S
C1079 H1087 0.929 . S
C1080 C1079 1.383 . S
C1080 C1081 1.377 . S
C1081 H1065 0.930 . S
C1081 C1080 1.377 . S
C1081 C1082 1.379 . S
C1082 H1066 0.931 . S
C1082 C1076 1.383 . S
C1082 C1081 1.379 . S
H1083 C1077 0.959 . S
H1084 C1077 0.961 . S
H1085 C1077 0.960 . S
H1086 C1078 0.930 . S
H1087 C1079 0.929 . S
H1088 C1096 0.929 . S
H1089 C1098 0.930 . S
H1090 C1100 0.930 . S
H1091 C1103 0.929 . S
H1092 C1106 0.939 . S
H1093 C1108 0.960 . S
H1094 C1108 0.960 . S
H1095 C1108 0.960 . S
C1096 H1088 0.929 . S
C1096 C1097 1.377 . S
C1096 C1098 1.384 . S
C1097 C1096 1.377 . S
C1097 C1103 1.390 . S
C1098 H1089 0.930 . S
C1098 C1096 1.384 . S
C1098 C1099 1.372 . S
C1099 C1098 1.372 . S
C1099 C1100 1.400 . S
C1099 C1104 1.490 . S
C1100 H1090 0.930 . S
C1100 C1099 1.400 . S
C1100 C1103 1.386 . S
H1101 C1117 0.930 . S
H1102 C1118 0.931 . S
C1103 H1091 0.929 . S
C1103 C1097 1.390 . S
C1103 C1100 1.386 . S
C1104 C1099 1.490 . S
C1104 C1106 1.363 1_545 S
C1104 C1107 1.403 . S
H1105 C1111 0.930 . S
C1106 H1092 0.939 . S
C1106 C1104 1.363 1_565 S
C1106 C1109 1.428 . S
C1107 C1104 1.403 . S
C1107 C1108 1.524 . S
C1107 C1111 1.400 . S
C1108 H1093 0.960 . S
C1108 H1094 0.960 . S
C1108 H1095 0.960 . S
C1108 C1107 1.524 . S
C1109 C1106 1.428 . S
C1109 C1110 1.392 . S
C1109 C1113 1.495 . S
C1110 C1109 1.392 . S
C1110 C1111 1.385 1_565 S
C1110 C1112 1.478 . S
C1111 H1105 0.930 . S
C1111 C1107 1.400 . S
C1111 C1110 1.385 1_545 S
C1112 C1110 1.478 . S
C1112 C1114 1.381 . S
C1112 C1118 1.383 . S
C1113 C1109 1.495 . S
C1113 H1119 0.959 . S
C1113 H1120 0.961 . S
C1113 H1121 0.960 . S
C1114 C1112 1.381 . S
C1114 C1115 1.394 . S
C1114 H1122 0.930 . S
C1115 C1114 1.394 . S
C1115 C1116 1.383 . S
C1115 H1123 0.929 . S
C1116 C1115 1.383 . S
C1116 C1117 1.377 . S
C1117 H1101 0.930 . S
C1117 C1116 1.377 . S
C1117 C1118 1.379 . S
C1118 H1102 0.931 . S
C1118 C1112 1.383 . S
C1118 C1117 1.379 . S
H1119 C1113 0.959 . S
H1120 C1113 0.961 . S
H1121 C1113 0.960 . S
H1122 C1114 0.930 . S
H1123 C1115 0.929 . S
H1124 C1132 0.929 . S
H1125 C1134 0.930 . S
H1126 C1136 0.930 . S
H1127 C1139 0.929 . S
H1128 C1142 0.930 . S
H1129 C1144 0.960 . S
H1130 C1144 0.960 . S
H1131 C1144 0.960 . S
C1132 H1124 0.929 . S
C1132 C1133 1.377 . S
C1132 C1134 1.384 . S
C1133 C1132 1.377 . S
C1133 C1139 1.390 . S
C1134 H1125 0.930 . S
C1134 C1132 1.384 . S
C1134 C1135 1.372 . S
C1135 C1134 1.372 . S
C1135 C1136 1.400 . S
C1135 C1140 1.490 . S
C1136 H1126 0.930 . S
C1136 C1135 1.400 . S
C1136 C1139 1.386 . S
H1137 C1153 0.930 . S
H1138 C1154 0.931 . S
C1139 H1127 0.929 . S
C1139 C1133 1.390 . S
C1139 C1136 1.386 . S
C1140 C1135 1.490 . S
C1140 C1142 1.395 . S
C1140 C1143 1.403 . S
H1141 C1147 0.930 . S
C1142 H1128 0.930 . S
C1142 C1140 1.395 . S
C1142 C1145 1.403 . S
C1143 C1140 1.403 . S
C1143 C1144 1.524 . S
C1143 C1147 1.400 . S
C1144 H1129 0.960 . S
C1144 H1130 0.960 . S
C1144 H1131 0.960 . S
C1144 C1143 1.524 . S
C1145 C1142 1.403 . S
C1145 C1146 1.392 . S
C1145 C1149 1.495 . S
C1146 C1145 1.392 . S
C1146 C1147 1.385 . S
C1146 C1148 1.478 . S
C1147 H1141 0.930 . S
C1147 C1143 1.400 . S
C1147 C1146 1.385 . S
C1148 C1146 1.478 . S
C1148 C1150 1.381 . S
C1148 C1154 1.383 . S
C1149 C1145 1.495 . S
C1149 H1155 0.959 . S
C1149 H1156 0.961 . S
C1149 H1157 0.960 . S
C1150 C1148 1.381 . S
C1150 C1151 1.394 . S
C1150 H1158 0.930 . S
C1151 C1150 1.394 . S
C1151 C1152 1.383 . S
C1151 H1159 0.929 . S
C1152 C1151 1.383 . S
C1152 C1153 1.377 . S
C1153 H1137 0.930 . S
C1153 C1152 1.377 . S
C1153 C1154 1.379 . S
C1154 H1138 0.931 . S
C1154 C1148 1.383 . S
C1154 C1153 1.379 . S
H1155 C1149 0.959 . S
H1156 C1149 0.961 . S
H1157 C1149 0.960 . S
H1158 C1150 0.930 . S
H1159 C1151 0.929 . S
H1160 C1168 0.929 . S
H1161 C1170 0.930 . S
H1162 C1172 0.930 . S
H1163 C1175 0.929 . S
H1164 C1178 0.930 . S
H1165 C1180 0.960 . S
H1166 C1180 0.960 . S
H1167 C1180 0.960 . S
C1168 H1160 0.929 . S
C1168 C1169 1.377 . S
C1168 C1170 1.384 . S
C1169 C1168 1.377 . S
C1169 C1175 1.390 . S
C1170 H1161 0.930 . S
C1170 C1168 1.384 . S
C1170 C1171 1.372 . S
C1171 C1170 1.372 . S
C1171 C1172 1.400 . S
C1171 C1176 1.490 . S
C1172 H1162 0.930 . S
C1172 C1171 1.400 . S
C1172 C1175 1.386 . S
H1173 C1189 0.930 . S
H1174 C1190 0.931 . S
C1175 H1163 0.929 . S
C1175 C1169 1.390 . S
C1175 C1172 1.386 . S
C1176 C1171 1.490 . S
C1176 C1178 1.395 . S
C1176 C1179 1.403 1_545 S
H1177 C1183 0.926 1_554 S
C1178 H1164 0.930 . S
C1178 C1176 1.395 . S
C1178 C1181 1.403 1_556 S
C1179 C1176 1.403 1_565 S
C1179 C1180 1.524 . S
C1179 C1183 1.450 . S
C1180 H1165 0.960 . S
C1180 H1166 0.960 . S
C1180 H1167 0.960 . S
C1180 C1179 1.524 . S
C1181 C1178 1.403 1_554 S
C1181 C1182 1.392 1_545 S
C1181 C1185 1.495 . S
C1182 C1181 1.392 1_565 S
C1182 C1183 1.341 1_554 S
C1182 C1184 1.478 . S
C1183 H1177 0.926 1_556 S
C1183 C1179 1.450 . S
C1183 C1182 1.341 1_556 S
C1184 C1182 1.478 . S
C1184 C1186 1.381 . S
C1184 C1190 1.383 . S
C1185 C1181 1.495 . S
C1185 H1191 0.959 . S
C1185 H1192 0.961 . S
C1185 H1193 0.960 . S
C1186 C1184 1.381 . S
C1186 C1187 1.394 . S
C1186 H1194 0.930 . S
C1187 C1186 1.394 . S
C1187 C1188 1.383 . S
C1187 H1195 0.929 . S
C1188 C1187 1.383 . S
C1188 C1189 1.377 . S
C1189 H1173 0.930 . S
C1189 C1188 1.377 . S
C1189 C1190 1.379 . S
C1190 H1174 0.931 . S
C1190 C1184 1.383 . S
C1190 C1189 1.379 . S
H1191 C1185 0.959 . S
H1192 C1185 0.961 . S
H1193 C1185 0.960 . S
H1194 C1186 0.930 . S
H1195 C1187 0.929 . S
H1196 C1204 0.929 . S
H1197 C1206 0.930 . S
H1198 C1208 0.930 . S
H1199 C1211 0.929 . S
H1200 C1214 0.930 . S
H1201 C1216 0.960 . S
H1202 C1216 0.960 . S
H1203 C1216 0.960 . S
C1204 H1196 0.929 . S
C1204 C1205 1.377 . S
C1204 C1206 1.384 . S
C1205 C1204 1.377 . S
C1205 C1211 1.390 . S
C1206 H1197 0.930 . S
C1206 C1204 1.384 . S
C1206 C1207 1.372 . S
C1207 C1206 1.372 . S
C1207 C1208 1.400 . S
C1207 C1212 1.490 . S
C1208 H1198 0.930 . S
C1208 C1207 1.400 . S
C1208 C1211 1.386 . S
H1209 C1225 0.930 . S
H1210 C1226 0.931 . S
C1211 H1199 0.929 . S
C1211 C1205 1.390 . S
C1211 C1208 1.386 . S
C1212 C1207 1.490 . S
C1212 C1214 1.395 . S
C1212 C1215 1.403 . S
H1213 C1219 0.930 . S
C1214 H1200 0.930 . S
C1214 C1212 1.395 . S
C1214 C1217 1.403 . S
C1215 C1212 1.403 . S
C1215 C1216 1.524 . S
C1215 C1219 1.400 . S
C1216 H1201 0.960 . S
C1216 H1202 0.960 . S
C1216 H1203 0.960 . S
C1216 C1215 1.524 . S
C1217 C1214 1.403 . S
C1217 C1218 1.392 . S
C1217 C1221 1.495 . S
C1218 C1217 1.392 . S
C1218 C1219 1.385 . S
C1218 C1220 1.478 . S
C1219 H1213 0.930 . S
C1219 C1215 1.400 . S
C1219 C1218 1.385 . S
C1220 C1218 1.478 . S
C1220 C1222 1.381 . S
C1220 C1226 1.383 . S
C1221 C1217 1.495 . S
C1221 H1227 0.959 . S
C1221 H1228 0.961 . S
C1221 H1229 0.960 . S
C1222 C1220 1.381 . S
C1222 C1223 1.394 . S
C1222 H1230 0.930 . S
C1223 C1222 1.394 . S
C1223 C1224 1.383 . S
C1223 H1231 0.929 . S
C1224 C1223 1.383 . S
C1224 C1225 1.377 . S
C1225 H1209 0.930 . S
C1225 C1224 1.377 . S
C1225 C1226 1.379 . S
C1226 H1210 0.931 . S
C1226 C1220 1.383 . S
C1226 C1225 1.379 . S
H1227 C1221 0.959 . S
H1228 C1221 0.961 . S
H1229 C1221 0.960 . S
H1230 C1222 0.930 . S
H1231 C1223 0.929 . S
H1232 C1240 0.929 . S
H1233 C1242 0.930 . S
H1234 C1244 0.930 . S
H1235 C1247 0.929 . S
H1236 C1250 0.930 . S
H1237 C1252 0.960 . S
H1238 C1252 0.960 . S
H1239 C1252 0.960 . S
C1240 H1232 0.929 . S
C1240 C1241 1.377 . S
C1240 C1242 1.384 . S
C1241 C1240 1.377 . S
C1241 C1247 1.390 . S
C1242 H1233 0.930 . S
C1242 C1240 1.384 . S
C1242 C1243 1.372 . S
C1243 C1242 1.372 . S
C1243 C1244 1.400 . S
C1243 C1248 1.490 . S
C1244 H1234 0.930 . S
C1244 C1243 1.400 . S
C1244 C1247 1.386 . S
H1245 C1261 0.930 . S
H1246 C1262 0.931 . S
C1247 H1235 0.929 . S
C1247 C1241 1.390 . S
C1247 C1244 1.386 . S
C1248 C1243 1.490 . S
C1248 C1250 1.395 . S
C1248 C1251 1.403 1_545 S
H1249 C1255 0.930 . S
C1250 H1236 0.930 . S
C1250 C1248 1.395 . S
C1250 C1253 1.403 . S
C1251 C1248 1.403 1_565 S
C1251 C1252 1.524 . S
C1251 C1255 1.400 . S
C1252 H1237 0.960 . S
C1252 H1238 0.960 . S
C1252 H1239 0.960 . S
C1252 C1251 1.524 . S
C1253 C1250 1.403 . S
C1253 C1254 1.392 1_545 S
C1253 C1257 1.495 . S
C1254 C1253 1.392 1_565 S
C1254 C1255 1.385 . S
C1254 C1256 1.478 . S
C1255 H1249 0.930 . S
C1255 C1251 1.400 . S
C1255 C1254 1.385 . S
C1256 C1254 1.478 . S
C1256 C1258 1.381 . S
C1256 C1262 1.383 . S
C1257 C1253 1.495 . S
C1257 H1263 0.959 . S
C1257 H1264 0.961 . S
C1257 H1265 0.960 . S
C1258 C1256 1.381 . S
C1258 C1259 1.394 . S
C1258 H1266 0.930 . S
C1259 C1258 1.394 . S
C1259 C1260 1.383 . S
C1259 H1267 0.929 . S
C1260 C1259 1.383 . S
C1260 C1261 1.377 . S
C1261 H1245 0.930 . S
C1261 C1260 1.377 . S
C1261 C1262 1.379 . S
C1262 H1246 0.931 . S
C1262 C1256 1.383 . S
C1262 C1261 1.379 . S
H1263 C1257 0.959 . S
H1264 C1257 0.961 . S
H1265 C1257 0.960 . S
H1266 C1258 0.930 . S
H1267 C1259 0.929 . S
H1268 C1276 0.929 . S
H1269 C1278 0.930 . S
H1270 C1280 0.930 . S
H1271 C1283 0.929 . S
H1272 C1286 0.930 . S
H1273 C1288 0.960 . S
H1274 C1288 0.960 . S
H1275 C1288 0.960 . S
C1276 H1268 0.929 . S
C1276 C1277 1.377 . S
C1276 C1278 1.384 . S
C1277 C1276 1.377 . S
C1277 C1283 1.390 . S
C1278 H1269 0.930 . S
C1278 C1276 1.384 . S
C1278 C1279 1.372 . S
C1279 C1278 1.372 . S
C1279 C1280 1.400 . S
C1279 C1284 1.490 . S
C1280 H1270 0.930 . S
C1280 C1279 1.400 . S
C1280 C1283 1.386 . S
H1281 C1297 0.930 . S
H1282 C1298 0.931 . S
C1283 H1271 0.929 . S
C1283 C1277 1.390 . S
C1283 C1280 1.386 . S
C1284 C1279 1.490 . S
C1284 C1286 1.395 . S
C1284 C1287 1.403 . S
H1285 C1291 0.930 . S
C1286 H1272 0.930 . S
C1286 C1284 1.395 . S
C1286 C1289 1.403 . S
C1287 C1284 1.403 . S
C1287 C1288 1.524 . S
C1287 C1291 1.400 . S
C1288 H1273 0.960 . S
C1288 H1274 0.960 . S
C1288 H1275 0.960 . S
C1288 C1287 1.524 . S
C1289 C1286 1.403 . S
C1289 C1290 1.392 . S
C1289 C1293 1.495 . S
C1290 C1289 1.392 . S
C1290 C1291 1.385 . S
C1290 C1292 1.478 . S
C1291 H1285 0.930 . S
C1291 C1287 1.400 . S
C1291 C1290 1.385 . S
C1292 C1290 1.478 . S
C1292 C1294 1.381 . S
C1292 C1298 1.383 . S
C1293 C1289 1.495 . S
C1293 H1299 0.959 . S
C1293 H1300 0.961 . S
C1293 H1301 0.960 . S
C1294 C1292 1.381 . S
C1294 C1295 1.394 . S
C1294 H1302 0.930 . S
C1295 C1294 1.394 . S
C1295 C1296 1.383 . S
C1295 H1303 0.929 . S
C1296 C1295 1.383 . S
C1296 C1297 1.377 . S
C1297 H1281 0.930 . S
C1297 C1296 1.377 . S
C1297 C1298 1.379 . S
C1298 H1282 0.931 . S
C1298 C1292 1.383 . S
C1298 C1297 1.379 . S
H1299 C1293 0.959 . S
H1300 C1293 0.961 . S
H1301 C1293 0.960 . S
H1302 C1294 0.930 . S
H1303 C1295 0.929 . S
H1304 C1312 0.929 . S
H1305 C1314 0.930 1_545 S
H1306 C1316 0.930 . S
H1307 C1319 0.929 . S
H1308 C1322 0.934 . S
H1309 C1324 0.960 . S
H1310 C1324 0.960 1_545 S
H1311 C1324 0.960 . S
C1312 H1304 0.929 . S
C1312 C1313 1.377 . S
C1312 C1314 1.384 . S
C1313 C1312 1.377 . S
C1313 C1319 1.390 . S
C1314 H1305 0.930 1_565 S
C1314 C1312 1.384 . S
C1314 C1315 1.372 . S
C1315 C1314 1.372 . S
C1315 C1316 1.400 . S
C1315 C1320 1.490 . S
C1316 H1306 0.930 . S
C1316 C1315 1.400 . S
C1316 C1319 1.386 . S
H1317 C1333 0.930 . S
H1318 C1334 0.931 1_565 S
C1319 H1307 0.929 . S
C1319 C1313 1.390 . S
C1319 C1316 1.386 . S
C1320 C1315 1.490 . S
C1320 C1322 1.395 1_565 S
C1320 C1323 1.403 . S
H1321 C1327 0.930 . S
C1322 H1308 0.934 . S
C1322 C1320 1.395 1_545 S
C1322 C1325 1.403 1_554 S
C1323 C1320 1.403 . S
C1323 C1324 1.524 . S
C1323 C1327 1.400 1_564 S
C1324 H1309 0.960 . S
C1324 H1310 0.960 1_565 S
C1324 H1311 0.960 . S
C1324 C1323 1.524 . S
C1325 C1322 1.403 1_556 S
C1325 C1326 1.392 . S
C1325 C1329 1.495 . S
C1326 C1325 1.392 . S
C1326 C1327 1.385 . S
C1326 C1328 1.478 . S
C1327 H1321 0.930 . S
C1327 C1323 1.400 1_546 S
C1327 C1326 1.385 . S
C1328 C1326 1.478 . S
C1328 C1330 1.381 . S
C1328 C1334 1.383 . S
C1329 C1325 1.495 . S
C1329 H1335 0.959 1_556 S
C1329 H1336 0.961 . S
C1329 H1337 0.960 . S
C1330 C1328 1.381 . S
C1330 C1331 1.394 . S
C1330 H1338 0.930 . S
C1331 C1330 1.394 . S
C1331 C1332 1.383 . S
C1331 H1339 0.929 . S
C1332 C1331 1.383 . S
C1332 C1333 1.377 . S
C1333 H1317 0.930 . S
C1333 C1332 1.377 . S
C1333 C1334 1.379 . S
C1334 H1318 0.931 1_545 S
C1334 C1328 1.383 . S
C1334 C1333 1.379 . S
H1335 C1329 0.959 1_554 S
H1336 C1329 0.961 . S
H1337 C1329 0.960 . S
H1338 C1330 0.930 . S
H1339 C1331 0.929 . S
H1340 C1348 0.929 . S
H1341 C1350 0.930 . S
H1342 C1352 0.930 . S
H1343 C1355 0.929 . S
H1344 C1358 0.930 . S
H1345 C1360 0.960 . S
H1346 C1360 0.960 . S
H1347 C1360 0.960 . S
C1348 H1340 0.929 . S
C1348 C1349 1.377 . S
C1348 C1350 1.384 . S
C1349 C1348 1.377 . S
C1349 C1355 1.390 . S
C1350 H1341 0.930 . S
C1350 C1348 1.384 . S
C1350 C1351 1.372 . S
C1351 C1350 1.372 . S
C1351 C1352 1.400 . S
C1351 C1356 1.490 . S
C1352 H1342 0.930 . S
C1352 C1351 1.400 . S
C1352 C1355 1.386 . S
H1353 C1369 0.930 . S
H1354 C1370 0.931 . S
C1355 H1343 0.929 . S
C1355 C1349 1.390 . S
C1355 C1352 1.386 . S
C1356 C1351 1.490 . S
C1356 C1358 1.395 . S
C1356 C1359 1.403 . S
H1357 C1363 0.930 . S
C1358 H1344 0.930 . S
C1358 C1356 1.395 . S
C1358 C1361 1.403 . S
C1359 C1356 1.403 . S
C1359 C1360 1.524 . S
C1359 C1363 1.400 . S
C1360 H1345 0.960 . S
C1360 H1346 0.960 . S
C1360 H1347 0.960 . S
C1360 C1359 1.524 . S
C1361 C1358 1.403 . S
C1361 C1362 1.392 . S
C1361 C1365 1.495 . S
C1362 C1361 1.392 . S
C1362 C1363 1.385 . S
C1362 C1364 1.478 . S
C1363 H1357 0.930 . S
C1363 C1359 1.400 . S
C1363 C1362 1.385 . S
C1364 C1362 1.478 . S
C1364 C1366 1.381 . S
C1364 C1370 1.383 . S
C1365 C1361 1.495 . S
C1365 H1371 0.959 . S
C1365 H1372 0.961 . S
C1365 H1373 0.960 . S
C1366 C1364 1.381 . S
C1366 C1367 1.394 . S
C1366 H1374 0.930 . S
C1367 C1366 1.394 . S
C1367 C1368 1.383 . S
C1367 H1375 0.929 . S
C1368 C1367 1.383 . S
C1368 C1369 1.377 . S
C1369 H1353 0.930 . S
C1369 C1368 1.377 . S
C1369 C1370 1.379 . S
C1370 H1354 0.931 . S
C1370 C1364 1.383 . S
C1370 C1369 1.379 . S
H1371 C1365 0.959 . S
H1372 C1365 0.961 . S
H1373 C1365 0.960 . S
H1374 C1366 0.930 . S
H1375 C1367 0.929 . S
C233 C158 1.292 . S
C252 C12 1.326 . S
C269 C222 1.423 . S
C288 C18 1.391 . S
C305 C40 1.448 . S
C324 C130 1.409 . S
C341 C194 1.283 . S
C360 C54 1.291 . S
C377 C68 1.357 . S
C396 C186 1.297 . S
C413 C74 1.437 . S
C432 C166 1.468 . S
C449 C88 1.460 . S
C468 C214 1.439 . S
C485 C102 1.313 . S
C504 C138 1.339 . S
C521 C46 1.452 . S
C540 C116 1.442 . S
C557 C144 1.318 . S
C576 C26 1.359 . S
C593 C172 1.416 . S
C612 C82 1.442 . S
C629 C200 1.302 . S
C648 C110 1.313 . S
C665 C60 1.384 . S
C684 C124 1.409 . S
C701 C152 1.283 . S
C720 C96 1.292 . S
C737 C208 1.463 . S
C756 C32 1.451 . S
C773 C4 1.303 . S
C792 C180 1.323 . S
C809 C5 0.969 . S
C828 C61 1.022 . S
C845 C25 0.972 . S
C864 C81 0.928 . S
C881 C33 0.985 . S
C900 C95 1.033 . S
C917 C109 0.952 . S
C936 C47 0.882 . S
C953 C123 1.056 . S
C972 C179 1.084 . S
C989 C187 0.902 . S
C1008 C131 0.982 . S
C1025 C151 0.986 . S
C1044 C207 0.991 . S
C1061 C215 0.966 . S
C1080 C159 1.055 . S
C1097 C103 0.954 . S
C1116 C19 0.904 . S
C1133 C39 0.961 . S
C1152 C67 0.976 . S
C1169 C53 1.022 . S
C1188 C75 0.971 . S
C1205 C11 0.969 . S
C1224 C89 0.956 . S
C1241 C137 1.056 . S
C1260 C221 1.082 . S
C1277 C173 0.932 . S
C1296 C145 0.850 . S
C1313 C165 0.985 . S
C1332 C193 1.015 . S
C1349 C201 1.006 . S
C1368 C117 0.925 . S
