# Generated by pormake.
# Topology reo, (8)-cn, num edge types: 1
# Building blocks:
#     Node 0, Type 0, BuildingBlock: GIZVER_clean_sbu_0, # of connection points: 8
#     Node 1, Type 0, BuildingBlock: GIZVER_clean_sbu_0, # of connection points: 8
#     Node 2, Type 0, BuildingBlock: GIZVER_clean_sbu_0, # of connection points: 8
#     Edge 3, Type (0, 0), BuildingBlock: UVAHIK_clean_linker_0, # of connection points: 2
#     Edge 4, Type (0, 0), BuildingBlock: UVAHIK_clean_linker_0, # of connection points: 2
#     Edge 5, Type (0, 0), BuildingBlock: UVAHIK_clean_linker_0, # of connection points: 2
#     Edge 6, Type (0, 0), BuildingBlock: UVAHIK_clean_linker_0, # of connection points: 2
#     Edge 7, Type (0, 0), BuildingBlock: UVAHIK_clean_linker_0, # of connection points: 2
#     Edge 8, Type (0, 0), BuildingBlock: UVAHIK_clean_linker_0, # of connection points: 2
#     Edge 9, Type (0, 0), BuildingBlock: UVAHIK_clean_linker_0, # of connection points: 2
#     Edge 10, Type (0, 0), BuildingBlock: UVAHIK_clean_linker_0, # of connection points: 2
#     Edge 11, Type (0, 0), BuildingBlock: UVAHIK_clean_linker_0, # of connection points: 2
#     Edge 12, Type (0, 0), BuildingBlock: UVAHIK_clean_linker_0, # of connection points: 2
#     Edge 13, Type (0, 0), BuildingBlock: UVAHIK_clean_linker_0, # of connection points: 2
#     Edge 14, Type (0, 0), BuildingBlock: UVAHIK_clean_linker_0, # of connection points: 2
# Relax obj value: 0.086
# Max RMSD: 0.191
# Mean RMSD: 0.141
data_MOF--net-reo--node1-GIZVER_clean_sbu_0--edge1-UVAHIK_clean_linker_0
_symmetry_space_group_name_H-M    P1
_symmetry_Int_Tables_number       1
_symmetry_cell_setting            triclinic
loop_
_symmetry_equiv_pos_as_xyz
'x, y, z'
_cell_length_a     30.278303
_cell_length_b     31.243861
_cell_length_c     31.531309
_cell_angle_alpha  104.82437
_cell_angle_beta   93.745608
_cell_angle_gamma 80.686397
loop_
_atom_site_label
_atom_site_type_symbol
_atom_site_fract_x
_atom_site_fract_y
_atom_site_fract_z
_atom_type_partial_charge
Co0 Co 0.04436 0.97901 0.59523 0.0
Co1 Co 0.10571 1.01138 0.56448 0.0
Co2 Co 0.01625 0.02686 0.50935 0.0
O3 O 0.05716 0.98507 0.53826 0.0
H4 H 0.06727 0.95662 0.51819 0.0
O5 O 0.97532 0.06817 0.47991 0.0
Co6 Co 0.98763 0.07321 0.42208 0.0
Co7 Co 0.92683 0.04064 0.45427 0.0
H8 H 0.96514 0.09678 0.4997 0.0
O9 O 0.15821 0.97606 0.57336 0.0
O10 O 0.10036 1.00234 0.61935 0.0
O11 O 0.10303 0.07468 0.57191 0.0
O12 O 0.03144 0.08421 0.55028 0.0
O13 O 0.06586 1.02555 0.47 0.0
O14 O 0.9968 0.08177 0.37042 0.0
O15 O 0.95871 0.13034 0.42615 0.0
O16 O 0.02223 1.01571 0.41076 0.0
O17 O 1.00153 0.96972 0.46821 0.0
O18 O 0.92964 0.97706 0.44796 0.0
O19 O 0.93195 0.04862 0.39879 0.0
O20 O 0.87408 0.0752 0.4447 0.0
C21 C 0.0569 0.93015 0.62966 0.0
C22 C 0.97181 0.03849 0.59083 0.0
C23 C 0.0663 0.09985 0.56878 0.0
C24 C 0.14068 0.98056 0.61108 0.0
C25 C 0.97499 0.12135 0.38684 0.0
C26 C 0.06134 1.0144 0.42834 0.0
C27 C 0.96721 0.95288 0.4501 0.0
C28 C 0.89146 0.07011 0.4068 0.0
O29 O 0.03448 0.96937 0.64638 0.0
O30 O 0.07251 0.92158 0.59013 0.0
O31 O 0.96651 0.0284 0.54911 0.0
O32 O 1.01127 0.03699 0.60749 0.0
Co33 Co 0.60462 1.01943 0.9436 0.0
Co34 Co 0.56136 0.09814 0.98473 0.0
Co35 Co 0.51546 1.02625 1.00809 0.0
O36 O 0.54351 0.04169 0.95981 0.0
H37 H 0.52339 0.0428 0.93491 0.0
O38 O 0.48767 1.01062 0.05665 0.0
Co39 Co 0.42726 0.03342 0.07441 0.0
Co40 Co 0.46861 0.95506 0.03231 0.0
H41 H 0.50821 1.00893 0.08115 0.0
O42 O 0.58322 0.13343 0.95303 0.0
O43 O 0.62174 0.07667 0.97763 0.0
O44 O 0.55665 0.12179 0.04777 0.0
O45 O 0.5595 0.05248 0.05389 0.0
O46 O 0.47536 0.08579 0.01781 0.0
O47 O 0.37275 0.05242 0.09603 0.0
O48 O 0.43154 1.01333 0.1239 0.0
O49 O 0.41433 0.05864 0.02567 0.0
O50 O 0.47133 0.99996 0.96241 0.0
O51 O 0.47408 0.93097 0.9695 0.0
O52 O 0.40827 0.97722 0.0396 0.0
O53 O 0.44645 0.91993 0.06382 0.0
C54 C 0.64309 1.02026 0.89229 0.0
C55 C 0.59835 0.96373 0.99955 0.0
C56 C 0.56665 0.09267 0.06976 0.0
C57 C 0.6212 0.11092 0.96152 0.0
C58 C 0.38997 0.03304 0.12652 0.0
C59 C 0.43288 0.09036 0.02006 0.0
C60 C 0.46431 0.95964 0.947 0.0
C61 C 0.40863 0.9423 0.05467 0.0
O62 O 0.66005 1.00174 0.9235 0.0
O63 O 0.60088 0.03793 0.89326 0.0
O64 O 0.55577 0.96693 0.99827 0.0
O65 O 0.61701 0.9953 0.99354 0.0
Co66 Co 1.00117 0.43834 0.04861 0.0
Co67 Co 0.93394 0.47251 1.00498 0.0
Co68 Co 1.01461 0.52551 1.00622 0.0
O69 O 0.97997 0.4968 0.03984 0.0
H70 H 0.96784 0.51754 0.06622 0.0
O71 O 0.04995 0.55369 0.97288 0.0
Co72 Co 0.03033 0.61183 0.9635 0.0
Co73 Co 0.09613 0.57724 0.00916 0.0
H74 H 0.06241 0.53265 0.94681 0.0
O75 O 0.88625 0.45414 0.02714 0.0
O76 O 0.95379 0.41424 0.00838 0.0
O77 O 0.93426 0.47104 0.94359 0.0
O78 O 1.0052 0.48255 0.94751 0.0
O79 O 0.95776 0.56628 0.99709 0.0
O80 O 1.01585 0.66451 0.94995 0.0
O81 O 0.06437 0.60485 0.91624 0.0
O82 O 0.99097 0.62643 0.01084 0.0
O83 O 0.02338 0.56858 0.06467 0.0
O84 O 0.094 0.58081 0.07132 0.0
O85 O 0.07785 0.63512 1.00413 0.0
O86 O 0.14518 0.59393 0.98744 0.0
C87 C 0.98955 0.4042 0.09385 0.0
C88 C 0.07508 0.44284 1.00472 0.0
C89 C 0.97092 0.46913 0.9254 0.0
C90 C 0.91291 0.4162 0.01941 0.0
C91 C 0.04405 0.64558 0.9187 0.0
C92 C 0.95545 0.6089 1.00748 0.0
C93 C 0.05653 0.5828 0.08808 0.0
C94 C 0.119 0.63208 0.99337 0.0
O95 O 0.01722 0.38581 0.06203 0.0
O96 O 0.9679 0.44444 0.09626 0.0
O97 O 0.07159 0.48546 0.01575 0.0
O98 O 0.0402 0.42427 1.00065 0.0
C99 C 0.95447 0.39803 0.16225 0.0
C100 C 0.98283 0.37897 0.12646 0.0
C101 C 0.95022 0.37431 0.19374 0.0
C102 C 1.0114 0.28121 0.23729 0.0
H103 H 0.89766 0.2766 0.28458 0.0
C104 C 0.9914 0.1436 0.31969 0.0
C105 C 0.96995 0.15496 0.36019 0.0
C106 C 0.99005 0.1748 0.29484 0.0
C107 C 0.92971 0.27812 0.27212 0.0
H108 H 0.02767 0.31931 0.09508 0.0
H109 H 0.02001 0.27824 0.14924 0.0
H110 H 0.90065 0.32382 0.23366 0.0
H111 H 0.92866 0.20804 0.4054 0.0
H112 H 0.92598 0.2631 0.36119 0.0
H113 H 0.04042 0.23503 0.2747 0.0
C114 C 1.00171 0.31181 0.1537 0.0
C115 C 0.93146 0.30511 0.24294 0.0
C116 C 1.00589 0.33535 0.12238 0.0
C117 C 0.94573 0.19827 0.3745 0.0
C118 C 0.94408 0.2297 0.34916 0.0
C119 C 1.00963 0.25433 0.26615 0.0
C120 C 0.97438 0.33112 0.19017 0.0
C121 C 0.97225 0.30607 0.22433 0.0
C122 C 0.96706 0.21843 0.30944 0.0
C123 C 0.96868 0.25154 0.2831 0.0
H124 H 0.93607 0.4315 0.16631 0.0
H125 H 0.92892 0.39022 0.22142 0.0
H126 H 0.04358 0.28206 0.22466 0.0
H127 H 1.01015 0.11057 0.30723 0.0
H128 H 1.00733 0.1647 0.26401 0.0
C129 C 0.82065 0.11015 0.38135 0.0
C130 C 0.86386 0.08631 0.37207 0.0
C131 C 0.79232 0.12116 0.34784 0.0
C132 C 0.77173 0.07595 0.23187 0.0
H133 H 0.68044 0.18075 0.24466 0.0
C134 C 0.61525 0.14166 0.12161 0.0
C135 C 0.5958 0.10215 0.10946 0.0
C136 C 0.64898 0.14648 0.15426 0.0
C137 C 0.70603 0.15154 0.24052 0.0
H138 H 0.91251 0.05837 0.32091 0.0
H139 H 0.86281 0.07765 0.26221 0.0
H140 H 0.74192 0.17987 0.2992 0.0
H141 H 0.59416 0.03826 0.12432 0.0
H142 H 0.65262 0.04686 0.18104 0.0
H143 H 0.73549 0.04716 0.17396 0.0
C144 C 0.85075 0.08721 0.29542 0.0
C145 C 0.74103 0.15094 0.2717 0.0
C146 C 0.87919 0.07622 0.32902 0.0
C147 C 0.60874 0.06892 0.13247 0.0
C148 C 0.64244 0.07365 0.16477 0.0
C149 C 0.73673 0.07646 0.20101 0.0
C150 C 0.80657 0.10858 0.30432 0.0
C151 C 0.77367 0.11269 0.26816 0.0
C152 C 0.66383 0.11179 0.175 0.0
C153 C 0.70294 0.11374 0.20565 0.0
H154 H 0.80796 0.11892 0.41428 0.0
H155 H 0.75838 0.13728 0.35573 0.0
H156 H 0.79603 0.04581 0.22843 0.0
H157 H 0.60602 0.16791 0.10452 0.0
H158 H 0.6649 0.17629 0.16176 0.0
C159 C 0.01722 0.88187 0.4166 0.0
C160 C 0.97365 0.90529 0.425 0.0
C161 C 0.02421 0.83972 0.38725 0.0
C162 C 0.96786 0.77237 0.29199 0.0
H163 H 0.07263 0.68384 0.29683 0.0
C164 C 1.00546 0.61494 0.15143 0.0
C165 C 0.04848 0.60829 0.13423 0.0
C166 C 0.99548 0.64441 0.1922 0.0
C167 C 0.04322 0.70827 0.29514 0.0
H168 H 0.90312 0.90112 0.4116 0.0
H169 H 0.91523 0.82675 0.3615 0.0
H170 H 0.05481 0.74717 0.36023 0.0
H171 H 0.11554 0.62527 0.14798 0.0
H172 H 0.09803 0.6767 0.21947 0.0
H173 H 0.95646 0.73362 0.22689 0.0
C174 C 0.94412 0.84169 0.37651 0.0
C175 C 0.03302 0.74465 0.33136 0.0
C176 C 0.93712 0.88422 0.40552 0.0
C177 C 0.08206 0.6297 0.16012 0.0
C178 C 0.07207 0.65903 0.20116 0.0
C179 C 0.97775 0.73579 0.25611 0.0
C180 C 0.98782 0.81952 0.36588 0.0
C181 C 0.9957 0.77773 0.32991 0.0
C182 C 0.02833 0.66769 0.21696 0.0
C183 C 1.01595 0.70381 0.25696 0.0
H184 H 0.04625 0.89702 0.43091 0.0
H185 H 0.05835 0.82417 0.37966 0.0
H186 H 0.93941 0.79744 0.28909 0.0
H187 H 0.97878 0.59877 0.13265 0.0
H188 H 0.96165 0.64997 0.20386 0.0
C189 C 0.32286 0.06334 0.17282 0.0
C190 C 0.36102 0.03104 0.1618 0.0
C191 C 0.29311 0.06013 0.20346 0.0
C192 C 0.27948 1.00287 0.29113 0.0
H193 H 0.15371 0.04148 0.269 0.0
C194 C 0.13175 0.97696 0.38869 0.0
C195 C 0.09912 1.01484 0.40143 0.0
C196 C 0.166 0.97717 0.36085 0.0
C197 C 0.18873 0.03078 0.27576 0.0
H198 H 0.39814 0.97004 0.17441 0.0
H199 H 0.34538 0.96355 0.22723 0.0
H200 H 0.20881 0.04442 0.21754 0.0
H201 H 0.07797 0.08338 0.39787 0.0
H202 H 0.13663 0.08343 0.34828 0.0
H203 H 0.25854 0.98831 0.34911 0.0
C204 C 0.33897 0.99208 0.21298 0.0
C205 C 0.22048 0.03269 0.24638 0.0
C206 C 0.36923 0.99572 0.18267 0.0
C207 C 0.10193 0.05331 0.38725 0.0
C208 C 0.13563 0.05338 0.35912 0.0
C209 C 0.24749 1.00042 0.32034 0.0
C210 C 0.30015 1.02399 0.22338 0.0
C211 C 0.26642 1.01954 0.25396 0.0
C212 C 0.16773 1.01516 0.34513 0.0
C213 C 0.20185 1.01504 0.31326 0.0
H214 H 0.31582 0.09117 0.15754 0.0
H215 H 0.2644 0.08609 0.21139 0.0
H216 H 0.31449 0.99275 0.29833 0.0
H217 H 0.13022 0.94704 0.39955 0.0
H218 H 0.1903 0.94727 0.35058 0.0
C219 C 0.05241 0.91037 0.70093 0.0
C220 C 0.0651 0.89695 0.6568 0.0
C221 C 0.05819 0.88 0.72715 0.0
C222 C 0.06907 0.75992 0.72273 0.0
H223 H 0.10004 0.80156 0.84617 0.0
C224 C 0.07618 0.64962 0.84821 0.0
C225 C 0.05381 0.6711 0.88749 0.0
C226 C 0.08391 0.67414 0.81851 0.0
C227 C 0.09124 0.7894 0.8118 0.0
H228 H 0.09467 0.84079 0.6059 0.0
H229 H 0.10481 0.78717 0.6521 0.0
H230 H 0.10356 0.84929 0.7967 0.0
H231 H 0.02308 0.73538 0.92676 0.0
H232 H 0.03675 0.77786 0.87544 0.0
H233 H 0.05615 0.70014 0.73831 0.0
C234 C 0.09004 0.82147 0.66612 0.0
C235 C 0.09323 0.81678 0.7834 0.0
C236 C 0.08443 0.85219 0.63971 0.0
C237 C 0.04017 0.71766 0.89674 0.0
C238 C 0.04834 0.74213 0.86743 0.0
C239 C 0.06728 0.73233 0.75124 0.0
C240 C 0.0769 0.83509 0.71023 0.0
C241 C 0.08091 0.80302 0.73872 0.0
C242 C 0.07009 0.72073 0.82782 0.0
C243 C 0.07716 0.7473 0.79636 0.0
H244 H 0.03752 0.94454 0.71544 0.0
H245 H 0.0469 0.89166 0.76061 0.0
H246 H 0.05912 0.7483 0.68862 0.0
H247 H 0.08717 0.6138 0.84013 0.0
H248 H 0.10098 0.6567 0.78841 0.0
C249 C 0.42233 0.9821 0.88361 0.0
C250 C 0.43546 0.94941 0.90722 0.0
C251 C 0.38872 0.97662 0.85128 0.0
C252 C 0.29423 0.97261 0.81602 0.0
H253 H 0.28981 0.86893 0.71796 0.0
C254 C 0.15224 0.97262 0.68826 0.0
C255 C 0.16791 0.96337 0.64541 0.0
C256 C 0.18039 0.96092 0.7217 0.0
C257 C 0.29047 0.8979 0.74546 0.0
H258 H 0.42584 0.88378 0.9131 0.0
H259 H 0.36713 0.87413 0.85584 0.0
H260 H 0.35157 0.86883 0.77233 0.0
H261 H 0.22399 0.93134 0.60326 0.0
H262 H 0.27317 0.9119 0.66162 0.0
H263 H 0.23447 1.00258 0.78879 0.0
C264 C 0.3828 0.90408 0.8629 0.0
C265 C 0.32563 0.89775 0.77651 0.0
C266 C 0.41642 0.90964 0.89558 0.0
C267 C 0.21109 0.9395 0.63607 0.0
C268 C 0.23916 0.92785 0.66944 0.0
C269 C 0.25907 0.97266 0.78531 0.0
C270 C 0.36767 0.93828 0.84164 0.0
C271 C 0.32844 0.93571 0.81125 0.0
C272 C 0.22463 0.93979 0.71285 0.0
C273 C 0.25744 0.93583 0.74906 0.0
H274 H 0.43663 1.0129 0.89137 0.0
H275 H 0.37826 1.00303 0.83458 0.0
H276 H 0.29529 1.002 0.84301 0.0
H277 H 0.11891 0.99043 0.69639 0.0
H278 H 0.16812 0.96996 0.75481 0.0
C279 C 0.94844 0.41233 0.85957 0.0
C280 C 0.97633 0.44423 0.8789 0.0
C281 C 0.95741 0.38395 0.81806 0.0
C282 C 0.05206 0.33758 0.74263 0.0
H283 H 0.95963 0.27939 0.67056 0.0
C284 C 0.09031 0.16171 0.62878 0.0
C285 C 0.06161 0.14761 0.59286 0.0
C286 C 0.08151 0.20477 0.65625 0.0
C287 C 0.98604 0.29574 0.68951 0.0
H288 H 0.03365 0.47353 0.86862 0.0
H289 H 0.04816 0.42543 0.79521 0.0
H290 H 0.93863 0.34433 0.73036 0.0
H291 H 1.0032 0.16873 0.55552 0.0
H292 H 0.989 0.24464 0.60218 0.0
H293 H 0.09944 0.28986 0.70091 0.0
C294 C 0.02032 0.42106 0.81275 0.0
C295 C 0.9739 0.33272 0.72454 0.0
C296 C 1.01183 0.44893 0.85472 0.0
C297 C 0.02565 0.17849 0.58328 0.0
C298 C 0.01731 0.22192 0.61031 0.0
C299 C 0.06418 0.30118 0.70703 0.0
C300 C 0.99404 0.38725 0.79436 0.0
C301 C 1.00673 0.35308 0.75267 0.0
C302 C 0.04423 0.2352 0.64807 0.0
C303 C 0.0314 0.27862 0.68099 0.0
H304 H 0.92102 0.40756 0.87746 0.0
H305 H 0.93677 0.35798 0.80568 0.0
H306 H 0.07849 0.35202 0.76343 0.0
H307 H 0.11813 0.13865 0.63728 0.0
H308 H 0.10272 0.21315 0.68523 0.0
C309 C 0.71922 1.02189 0.86714 0.0
C310 C 0.6728 1.02487 0.85867 0.0
C311 C 0.74763 0.02801 0.83673 0.0
C312 C 0.76012 1.01851 0.72044 0.0
H313 H 0.84968 0.09648 0.76154 0.0
C314 C 0.88951 0.0421 0.60294 0.0
C315 C 0.93346 0.04406 0.61993 0.0
C316 C 0.85427 0.04436 0.63064 0.0
C317 C 0.82526 0.07416 0.74946 0.0
H318 H 0.61983 0.03643 0.81146 0.0
H319 H 0.66999 0.04579 0.75739 0.0
H320 H 0.79506 0.09051 0.81232 0.0
H321 H 0.97446 0.05085 0.67972 0.0
H322 H 0.91402 0.0534 0.72724 0.0
H323 H 0.79135 1.00062 0.65804 0.0
C324 C 0.68412 0.03903 0.78789 0.0
C325 C 0.7938 0.07096 0.77861 0.0
C326 C 0.65546 0.03376 0.81882 0.0
C327 C 0.94111 0.04924 0.66532 0.0
C328 C 0.90615 0.05111 0.69281 0.0
C329 C 0.79203 1.02124 0.69131 0.0
C330 C 0.73047 0.03656 0.79674 0.0
C331 C 0.76132 0.0426 0.76462 0.0
C332 C 0.86221 0.04847 0.67596 0.0
C333 C 0.82558 0.04853 0.70563 0.0
H334 H 0.73365 1.01558 0.89772 0.0
H335 H 0.78322 1.02558 0.84433 0.0
H336 H 0.73559 0.99619 0.70882 0.0
H337 H 0.88236 0.03828 0.56817 0.0
H338 H 0.82084 0.04283 0.61648 0.0
C339 C 0.1232 0.36944 0.97455 0.0
C340 C 0.11953 0.41401 0.9998 0.0
C341 C 0.16362 0.34024 0.97335 0.0
C342 C 0.26095 0.3179 0.04189 0.0
H343 H 0.30838 0.23304 0.93623 0.0
C344 C 0.36305 0.14507 0.03913 0.0
C345 C 0.40388 0.13276 0.01714 0.0
C346 C 0.33442 0.18416 0.03651 0.0
C347 C 0.29588 0.25688 0.96593 0.0
H348 H 0.15591 0.46314 0.04276 0.0
H349 H 0.22651 0.41153 0.04163 0.0
H350 H 0.2469 0.29326 0.93062 0.0
H351 H 0.44661 0.15204 0.97497 0.0
H352 H 0.39516 0.22015 0.96891 0.0
H353 H 0.30813 0.28004 0.07729 0.0
C354 C 0.19802 0.3995 0.02238 0.0
C355 C 0.26056 0.29115 0.96277 0.0
C356 C 0.15771 0.42908 0.02286 0.0
C357 C 0.41545 0.16071 0.99236 0.0
C358 C 0.38603 0.19951 0.9888 0.0
C359 C 0.2956 0.28316 0.04507 0.0
C360 C 0.20124 0.35458 0.99802 0.0
C361 C 0.24222 0.32163 1.00077 0.0
C362 C 0.34528 0.21164 0.01106 0.0
C363 C 0.31295 0.25185 1.00718 0.0
H364 H 0.09446 0.35679 0.95633 0.0
H365 H 0.16485 0.3058 0.95458 0.0
H366 H 0.24734 0.34056 0.07177 0.0
H367 H 0.35317 0.12449 0.05869 0.0
H368 H 0.30313 0.19242 0.0537 0.0
C369 C 0.17876 0.67015 0.97462 0.0
C370 C 0.13652 0.67287 0.9918 0.0
C371 C 0.19748 0.70895 0.97843 0.0
C372 C 0.21898 0.80217 0.97881 0.0
H373 H 0.23718 0.86028 0.10184 0.0
C374 C 0.32857 0.94016 0.03261 0.0
C375 C 0.36625 0.92576 0.05672 0.0
C376 C 0.2908 0.91897 0.02757 0.0
C377 C 0.23165 0.84483 0.06741 0.0
H378 H 0.0794 0.71831 0.02377 0.0
H379 H 0.11301 0.78591 0.03157 0.0
H380 H 0.18736 0.80342 0.0811 0.0
H381 H 0.39254 0.88118 0.09796 0.0
H382 H 0.32584 0.84454 0.08974 0.0
H383 H 0.2644 0.84249 0.96519 0.0
C384 C 0.1313 0.75382 0.01503 0.0
C385 C 0.20315 0.81261 0.05554 0.0
C386 C 0.11224 0.71515 0.01055 0.0
C387 C 0.36411 0.8925 0.07881 0.0
C388 C 0.32594 0.87183 0.07437 0.0
C389 C 0.24678 0.835 0.99061 0.0
C390 C 0.17446 0.75082 0.99998 0.0
C391 C 0.19777 0.79015 0.01128 0.0
C392 C 0.28981 0.88378 0.04732 0.0
C393 C 0.25433 0.85552 0.03506 0.0
H394 H 0.19794 0.63802 0.9596 0.0
H395 H 0.231 0.706 0.96679 0.0
H396 H 0.21524 0.78509 0.94453 0.0
H397 H 0.32918 0.96593 0.01538 0.0
H398 H 0.26313 0.92873 1.00674 0.0
C399 C 0.66486 0.16019 0.93545 0.0
C400 C 0.66376 0.12583 0.9564 0.0
C401 C 0.70384 0.17915 0.93729 0.0
C402 C 0.78945 0.2089 0.01602 0.0
H403 H 0.84042 0.24776 0.92511 0.0
C404 C 0.91933 0.33316 0.99598 0.0
C405 C 0.89601 0.3745 0.01873 0.0
C406 C 0.90056 0.29407 0.98979 0.0
C407 C 0.82703 0.23648 0.95069 0.0
H408 H 0.70349 0.08152 0.99224 0.0
H409 H 0.77102 0.1157 0.99644 0.0
H410 H 0.79002 0.19136 0.90465 0.0
H411 H 0.83671 0.40703 0.05581 0.0
H412 H 0.80428 0.33821 0.04573 0.0
H413 H 0.82379 0.25638 0.06213 0.0
C414 C 0.74185 0.12776 0.97861 0.0
C415 C 0.79823 0.2045 0.93901 0.0
C416 C 0.70317 0.10839 0.97623 0.0
C417 C 0.85512 0.37566 0.0378 0.0
C418 C 0.83677 0.33637 0.0323 0.0
C419 C 0.81753 0.24146 0.0277 0.0
C420 C 0.74192 0.16427 0.96051 0.0
C421 C 0.77846 0.19132 0.97166 0.0
C422 C 0.85876 0.29562 1.00713 0.0
C423 C 0.8356 0.25619 0.99513 0.0
H424 H 0.63512 0.17384 0.91946 0.0
H425 H 0.70319 0.20749 0.92326 0.0
H426 H 0.77411 0.19954 0.04174 0.0
H427 H 0.95106 0.33125 0.98108 0.0
H428 H 0.918 0.26287 0.97038 0.0
C429 C 0.87072 0.62434 1.00095 0.0
C430 C 0.91191 0.63935 0.01491 0.0
C431 C 0.83071 0.65498 1.00469 0.0
C432 C 0.78295 0.77273 0.06059 0.0
H433 H 0.70158 0.76512 0.95969 0.0
C434 C 0.67145 0.92676 0.0244 0.0
C435 C 0.6272 0.92371 0.0088 0.0
C436 C 0.70042 0.88889 0.03002 0.0
C437 C 0.72354 0.76735 0.98845 0.0
H438 H 0.94284 0.69827 0.04512 0.0
H439 H 0.87418 0.75082 0.05128 0.0
H440 H 0.7628 0.70372 0.96087 0.0
H441 H 0.57853 0.8783 0.98743 0.0
H442 H 0.62979 0.8115 0.99658 0.0
H443 H 0.74499 0.8371 0.08732 0.0
C444 C 0.87221 0.71562 0.03781 0.0
C445 C 0.75863 0.73209 0.98918 0.0
C446 C 0.91187 0.6853 0.0339 0.0
C447 C 0.61236 0.88179 0.99969 0.0
C448 C 0.64176 0.84353 1.00465 0.0
C449 C 0.7482 0.80796 0.05971 0.0
C450 C 0.83105 0.70114 0.02289 0.0
C451 C 0.78963 0.73494 0.02473 0.0
C452 C 0.68623 0.84667 0.01969 0.0
C453 C 0.71881 0.80631 0.02313 0.0
H454 H 0.86955 0.58922 0.98609 0.0
H455 H 0.79958 0.64257 0.9931 0.0
H456 H 0.8054 0.77569 0.08903 0.0
H457 H 0.68401 0.95849 0.03183 0.0
H458 H 0.73453 0.89248 0.0412 0.0
loop_
_geom_bond_atom_site_label_1
_geom_bond_atom_site_label_2
_geom_bond_distance
_geom_bond_site_symmetry_2
_ccdc_geom_bond_type
Co0 O3 2.042 . S
Co0 O10 2.264 . S
Co0 O29 2.286 . S
Co0 O30 2.069 . S
Co0 O32 2.015 1_455 S
Co1 O3 2.122 1_545 S
Co1 O9 2.073 1_545 S
Co1 O10 2.327 1_545 S
Co1 O11 1.976 . S
Co2 O3 2.087 1_545 S
Co2 O5 2.087 1_455 S
Co2 O12 2.111 . S
Co2 O13 2.143 . S
Co2 O17 2.111 1_445 S
Co2 O31 2.143 1_445 S
O3 Co0 2.042 . S
O3 Co1 2.122 1_565 S
O3 Co2 2.087 1_565 S
O3 H4 0.980 . S
H4 O3 0.980 . S
O5 Co2 2.087 1_655 S
O5 Co6 2.042 . S
O5 Co7 2.122 1_545 S
O5 H8 0.980 . S
Co6 O5 2.042 . S
Co6 O14 2.286 . S
Co6 O15 2.069 . S
Co6 O16 2.015 1_655 S
Co6 O19 2.264 . S
Co7 O5 2.122 1_565 S
Co7 O18 1.976 . S
Co7 O19 2.327 1_565 S
Co7 O20 2.073 1_565 S
H8 O5 0.980 . S
O9 Co1 2.073 1_565 S
O9 C24 1.245 . S
O10 Co0 2.264 . S
O10 Co1 2.327 1_565 S
O10 C24 1.257 . S
O11 Co1 1.976 . S
O11 C23 1.251 . S
O12 Co2 2.111 . S
O12 C23 1.274 . S
O13 Co2 2.143 . S
O13 C26 1.246 1_545 S
O14 Co6 2.286 . S
O14 C25 1.259 . S
O15 Co6 2.069 . S
O15 C25 1.289 . S
O16 Co6 2.015 1_455 S
O16 C26 1.257 1_545 S
O17 Co2 2.111 1_665 S
O17 C27 1.274 . S
O18 Co7 1.976 . S
O18 C27 1.251 . S
O19 Co6 2.264 . S
O19 Co7 2.327 1_545 S
O19 C28 1.257 . S
O20 Co7 2.073 1_545 S
O20 C28 1.245 . S
C21 O29 1.259 . S
C21 O30 1.289 . S
C22 O31 1.246 1_545 S
C22 O32 1.257 1_545 S
C23 O11 1.251 . S
C23 O12 1.274 . S
C24 O9 1.245 . S
C24 O10 1.257 . S
C25 O14 1.259 . S
C25 O15 1.289 . S
C26 O13 1.246 1_565 S
C26 O16 1.257 1_565 S
C27 O17 1.274 . S
C27 O18 1.251 . S
C28 O19 1.257 . S
C28 O20 1.245 . S
O29 Co0 2.286 . S
O29 C21 1.259 . S
O30 Co0 2.069 . S
O30 C21 1.289 . S
O31 Co2 2.143 1_665 S
O31 C22 1.246 1_565 S
O32 Co0 2.015 1_655 S
O32 C22 1.257 1_565 S
Co33 O36 2.042 . S
Co33 O43 2.264 . S
Co33 O62 2.286 1_545 S
Co33 O63 2.069 . S
Co33 O65 2.015 1_545 S
Co34 O36 2.122 1_554 S
Co34 O42 2.073 . S
Co34 O43 2.327 1_554 S
Co34 O44 1.976 . S
Co35 O36 2.087 1_554 S
Co35 O38 2.087 1_545 S
Co35 O45 2.111 . S
Co35 O46 2.143 . S
Co35 O50 2.111 1_544 S
Co35 O64 2.143 1_544 S
O36 Co33 2.042 . S
O36 Co34 2.122 1_556 S
O36 Co35 2.087 1_556 S
O36 H37 0.980 . S
H37 O36 0.980 . S
O38 Co35 2.087 1_565 S
O38 Co39 2.042 . S
O38 Co40 2.122 1_554 S
O38 H41 0.980 . S
Co39 O38 2.042 . S
Co39 O47 2.286 1_565 S
Co39 O48 2.069 . S
Co39 O49 2.015 1_565 S
Co39 O52 2.264 . S
Co40 O38 2.122 1_556 S
Co40 O51 1.976 . S
Co40 O52 2.327 1_556 S
Co40 O53 2.073 . S
H41 O38 0.980 . S
O42 Co34 2.073 . S
O42 C57 1.245 1_554 S
O43 Co33 2.264 . S
O43 Co34 2.327 1_556 S
O43 C57 1.257 . S
O44 Co34 1.976 . S
O44 C56 1.251 . S
O45 Co35 2.111 . S
O45 C56 1.274 . S
O46 Co35 2.143 . S
O46 C59 1.246 . S
O47 Co39 2.286 1_545 S
O47 C58 1.259 1_545 S
O48 Co39 2.069 . S
O48 C58 1.289 . S
O49 Co39 2.015 1_545 S
O49 C59 1.257 . S
O50 Co35 2.111 1_566 S
O50 C60 1.274 . S
O51 Co40 1.976 . S
O51 C60 1.251 . S
O52 Co39 2.264 . S
O52 Co40 2.327 1_554 S
O52 C61 1.257 . S
O53 Co40 2.073 . S
O53 C61 1.245 1_556 S
C54 O62 1.259 1_545 S
C54 O63 1.289 . S
C55 O64 1.246 . S
C55 O65 1.257 . S
C56 O44 1.251 . S
C56 O45 1.274 . S
C57 O42 1.245 1_556 S
C57 O43 1.257 . S
C58 O47 1.259 1_565 S
C58 O48 1.289 . S
C59 O46 1.246 . S
C59 O49 1.257 . S
C60 O50 1.274 . S
C60 O51 1.251 . S
C61 O52 1.257 . S
C61 O53 1.245 1_554 S
O62 Co33 2.286 1_565 S
O62 C54 1.259 1_565 S
O63 Co33 2.069 . S
O63 C54 1.289 . S
O64 Co35 2.143 1_566 S
O64 C55 1.246 . S
O65 Co33 2.015 1_565 S
O65 C55 1.257 . S
Co66 O69 2.042 . S
Co66 O76 2.264 . S
Co66 O95 2.286 1_655 S
Co66 O96 2.069 . S
Co66 O98 2.015 1_655 S
Co67 O69 2.122 1_556 S
Co67 O75 2.073 1_556 S
Co67 O76 2.327 1_556 S
Co67 O77 1.976 . S
Co68 O69 2.087 1_455 S
Co68 O71 2.087 1_554 S
Co68 O78 2.111 1_454 S
Co68 O79 2.143 1_454 S
Co68 O83 2.111 . S
Co68 O97 2.143 . S
O69 Co66 2.042 . S
O69 Co67 2.122 1_554 S
O69 Co68 2.087 1_655 S
O69 H70 0.980 . S
H70 O69 0.980 . S
O71 Co68 2.087 1_556 S
O71 Co72 2.042 . S
O71 Co73 2.122 1_556 S
O71 H74 0.980 . S
Co72 O71 2.042 . S
Co72 O80 2.286 1_455 S
Co72 O81 2.069 . S
Co72 O82 2.015 1_455 S
Co72 O85 2.264 . S
Co73 O71 2.122 1_554 S
Co73 O84 1.976 . S
Co73 O85 2.327 1_554 S
Co73 O86 2.073 1_554 S
H74 O71 0.980 . S
O75 Co67 2.073 1_554 S
O75 C90 1.245 . S
O76 Co66 2.264 . S
O76 Co67 2.327 1_554 S
O76 C90 1.257 . S
O77 Co67 1.976 . S
O77 C89 1.251 . S
O78 Co68 2.111 1_656 S
O78 C89 1.274 . S
O79 Co68 2.143 1_656 S
O79 C92 1.243 . S
O80 Co72 2.286 1_655 S
O80 C91 1.259 1_655 S
O81 Co72 2.069 . S
O81 C91 1.289 . S
O82 Co72 2.015 1_655 S
O82 C92 1.268 . S
O83 Co68 2.111 . S
O83 C93 1.274 . S
O84 Co73 1.976 . S
O84 C93 1.251 . S
O85 Co72 2.264 . S
O85 Co73 2.327 1_556 S
O85 C94 1.257 . S
O86 Co73 2.073 1_556 S
O86 C94 1.245 . S
C87 O95 1.259 1_655 S
C87 O96 1.289 . S
C88 O97 1.242 . S
C88 O98 1.271 . S
C89 O77 1.251 . S
C89 O78 1.274 . S
C90 O75 1.245 . S
C90 O76 1.257 . S
C91 O80 1.259 1_455 S
C91 O81 1.289 . S
C92 O79 1.243 . S
C92 O82 1.268 . S
C93 O83 1.274 . S
C93 O84 1.251 . S
C94 O85 1.257 . S
C94 O86 1.245 . S
O95 Co66 2.286 1_455 S
O95 C87 1.259 1_455 S
O96 Co66 2.069 . S
O96 C87 1.289 . S
O97 Co68 2.143 . S
O97 C88 1.242 . S
O98 Co66 2.015 1_455 S
O98 C88 1.271 . S
C99 C100 1.349 . S
C99 C101 1.327 . S
C99 H124 0.950 . S
C100 C99 1.349 . S
C100 C116 1.349 . S
C101 C99 1.327 . S
C101 C120 1.429 . S
C101 H125 0.950 . S
C102 C119 1.574 . S
C102 C121 1.368 . S
C102 H126 0.949 1_655 S
H103 C107 0.949 . S
C104 C105 1.349 . S
C104 C106 1.327 . S
C104 H127 0.950 . S
C105 C104 1.349 . S
C105 C117 1.349 . S
C106 C104 1.327 . S
C106 C122 1.429 . S
C106 H128 0.942 1_655 S
C107 H103 0.949 . S
C107 C115 1.574 . S
C107 C123 1.368 . S
H108 C116 0.950 1_455 S
H109 C114 0.950 1_455 S
H110 C115 0.949 . S
H111 C117 0.950 . S
H112 C118 0.950 . S
H113 C119 0.949 1_455 S
C114 H109 0.950 1_655 S
C114 C116 1.327 . S
C114 C120 1.429 . S
C115 C107 1.574 . S
C115 H110 0.949 . S
C115 C121 1.368 . S
C116 C100 1.349 . S
C116 H108 0.950 1_655 S
C116 C114 1.327 . S
C117 C105 1.349 . S
C117 H111 0.950 . S
C117 C118 1.327 . S
C118 H112 0.950 . S
C118 C117 1.327 . S
C118 C122 1.429 . S
C119 C102 1.574 . S
C119 H113 0.949 1_655 S
C119 C123 1.368 . S
C120 C101 1.429 . S
C120 C114 1.429 . S
C120 C121 1.523 . S
C121 C102 1.368 . S
C121 C115 1.368 . S
C121 C120 1.523 . S
C122 C106 1.429 . S
C122 C118 1.429 . S
C122 C123 1.523 . S
C123 C107 1.368 . S
C123 C119 1.368 . S
C123 C122 1.523 . S
H124 C99 0.950 . S
H125 C101 0.950 . S
H126 C102 0.949 1_455 S
H127 C104 0.950 . S
H128 C106 0.942 1_455 S
C129 C130 1.349 . S
C129 C131 1.327 . S
C129 H154 0.950 1_545 S
C130 C129 1.349 . S
C130 C146 1.349 . S
C131 C129 1.327 . S
C131 C150 1.429 . S
C131 H155 0.950 1_545 S
C132 C149 1.574 . S
C132 C151 1.368 . S
C132 H156 0.949 . S
H133 C137 0.949 . S
C134 C135 1.349 . S
C134 C136 1.327 . S
C134 H157 0.950 . S
C135 C134 1.349 . S
C135 C147 1.349 1_545 S
C136 C134 1.327 . S
C136 C152 1.429 . S
C136 H158 0.950 . S
C137 H133 0.949 . S
C137 C145 1.574 . S
C137 C153 1.368 1_565 S
H138 C146 0.950 . S
H139 C144 0.950 . S
H140 C145 0.949 . S
H141 C147 0.950 . S
H142 C148 0.950 . S
H143 C149 0.949 . S
C144 H139 0.950 . S
C144 C146 1.327 . S
C144 C150 1.429 . S
C145 C137 1.574 . S
C145 H140 0.949 . S
C145 C151 1.368 1_565 S
C146 C130 1.349 . S
C146 H138 0.950 . S
C146 C144 1.327 . S
C147 C135 1.349 1_565 S
C147 H141 0.950 . S
C147 C148 1.327 . S
C148 H142 0.950 . S
C148 C147 1.327 . S
C148 C152 1.429 1_565 S
C149 C132 1.574 . S
C149 H143 0.949 . S
C149 C153 1.368 . S
C150 C131 1.429 . S
C150 C144 1.429 . S
C150 C151 1.523 . S
C151 C132 1.368 . S
C151 C145 1.368 1_545 S
C151 C150 1.523 . S
C152 C136 1.429 . S
C152 C148 1.429 1_545 S
C152 C153 1.523 . S
C153 C137 1.368 1_545 S
C153 C149 1.368 . S
C153 C152 1.523 . S
H154 C129 0.950 1_565 S
H155 C131 0.950 1_565 S
H156 C132 0.949 . S
H157 C134 0.950 . S
H158 C136 0.950 . S
C159 C160 1.349 . S
C159 C161 1.327 . S
C159 H184 0.950 . S
C160 C159 1.349 . S
C160 C176 1.349 1_455 S
C161 C159 1.327 . S
C161 C180 1.429 . S
C161 H185 0.950 . S
C162 C179 1.574 . S
C162 C181 1.368 1_655 S
C162 H186 0.949 . S
H163 C167 0.949 . S
C164 C165 1.349 . S
C164 C166 1.327 . S
C164 H187 0.950 . S
C165 C164 1.349 . S
C165 C177 1.349 1_655 S
C166 C164 1.327 . S
C166 C182 1.429 . S
C166 H188 0.950 . S
C167 H163 0.949 . S
C167 C175 1.574 . S
C167 C183 1.351 1_455 S
H168 C176 0.950 . S
H169 C174 0.950 . S
H170 C175 0.949 . S
H171 C177 0.950 . S
H172 C178 0.950 . S
H173 C179 0.949 . S
C174 H169 0.950 . S
C174 C176 1.327 . S
C174 C180 1.429 1_655 S
C175 C167 1.574 . S
C175 H170 0.949 . S
C175 C181 1.368 . S
C176 C160 1.349 1_655 S
C176 H168 0.950 . S
C176 C174 1.327 . S
C177 C165 1.349 1_455 S
C177 H171 0.950 . S
C177 C178 1.327 . S
C178 H172 0.950 . S
C178 C177 1.327 . S
C178 C182 1.429 1_455 S
C179 C162 1.574 . S
C179 H173 0.949 . S
C179 C183 1.386 . S
C180 C161 1.429 . S
C180 C174 1.429 1_455 S
C180 C181 1.523 . S
C181 C162 1.368 1_455 S
C181 C175 1.368 . S
C181 C180 1.523 . S
C182 C166 1.429 . S
C182 C178 1.429 1_655 S
C182 C183 1.524 . S
C183 C167 1.351 1_655 S
C183 C179 1.386 . S
C183 C182 1.524 . S
H184 C159 0.950 . S
H185 C161 0.950 . S
H186 C162 0.949 . S
H187 C164 0.950 . S
H188 C166 0.950 . S
C189 C190 1.349 1_545 S
C189 C191 1.327 . S
C189 H214 0.950 . S
C190 C189 1.349 1_565 S
C190 C206 1.349 . S
C191 C189 1.327 . S
C191 C210 1.429 1_545 S
C191 H215 0.950 . S
C192 C209 1.574 . S
C192 C211 1.368 . S
C192 H216 0.949 . S
H193 C197 0.949 . S
C194 C195 1.349 . S
C194 C196 1.327 . S
C194 H217 0.950 . S
C195 C194 1.349 . S
C195 C207 1.349 1_565 S
C196 C194 1.327 . S
C196 C212 1.429 . S
C196 H218 0.950 . S
C197 H193 0.949 . S
C197 C205 1.574 . S
C197 C213 1.368 1_545 S
H198 C206 0.950 . S
H199 C204 0.950 . S
H200 C205 0.949 . S
H201 C207 0.950 . S
H202 C208 0.950 . S
H203 C209 0.949 . S
C204 H199 0.950 . S
C204 C206 1.327 . S
C204 C210 1.429 . S
C205 C197 1.574 . S
C205 H200 0.949 . S
C205 C211 1.368 1_545 S
C206 C190 1.349 . S
C206 H198 0.950 . S
C206 C204 1.327 . S
C207 C195 1.349 1_545 S
C207 H201 0.950 . S
C207 C208 1.327 . S
C208 H202 0.950 . S
C208 C207 1.327 . S
C208 C212 1.429 1_545 S
C209 C192 1.574 . S
C209 H203 0.949 . S
C209 C213 1.368 . S
C210 C191 1.429 1_565 S
C210 C204 1.429 . S
C210 C211 1.523 . S
C211 C192 1.368 . S
C211 C205 1.368 1_565 S
C211 C210 1.523 . S
C212 C196 1.429 . S
C212 C208 1.429 1_565 S
C212 C213 1.523 . S
C213 C197 1.368 1_565 S
C213 C209 1.368 . S
C213 C212 1.523 . S
H214 C189 0.950 . S
H215 C191 0.950 . S
H216 C192 0.949 . S
H217 C194 0.950 . S
H218 C196 0.950 . S
C219 C220 1.349 . S
C219 C221 1.327 . S
C219 H244 0.950 . S
C220 C219 1.349 . S
C220 C236 1.349 . S
C221 C219 1.327 . S
C221 C240 1.429 . S
C221 H245 0.950 . S
C222 C239 1.574 . S
C222 C241 1.368 . S
C222 H246 0.949 . S
H223 C227 0.949 . S
C224 C225 1.349 . S
C224 C226 1.327 . S
C224 H247 0.950 . S
C225 C224 1.349 . S
C225 C237 1.349 . S
C226 C224 1.327 . S
C226 C242 1.429 . S
C226 H248 0.950 . S
C227 H223 0.949 . S
C227 C235 1.574 . S
C227 C243 1.368 . S
H228 C236 0.950 . S
H229 C234 0.950 . S
H230 C235 0.949 . S
H231 C237 0.950 . S
H232 C238 0.950 . S
H233 C239 0.949 . S
C234 H229 0.950 . S
C234 C236 1.327 . S
C234 C240 1.429 . S
C235 C227 1.574 . S
C235 H230 0.949 . S
C235 C241 1.368 . S
C236 C220 1.349 . S
C236 H228 0.950 . S
C236 C234 1.327 . S
C237 C225 1.349 . S
C237 H231 0.950 . S
C237 C238 1.327 . S
C238 H232 0.950 . S
C238 C237 1.327 . S
C238 C242 1.429 . S
C239 C222 1.574 . S
C239 H233 0.949 . S
C239 C243 1.368 . S
C240 C221 1.429 . S
C240 C234 1.429 . S
C240 C241 1.523 . S
C241 C222 1.368 . S
C241 C235 1.368 . S
C241 C240 1.523 . S
C242 C226 1.429 . S
C242 C238 1.429 . S
C242 C243 1.523 . S
C243 C227 1.368 . S
C243 C239 1.368 . S
C243 C242 1.523 . S
H244 C219 0.950 . S
H245 C221 0.950 . S
H246 C222 0.949 . S
H247 C224 0.950 . S
H248 C226 0.950 . S
C249 C250 1.349 1_545 S
C249 C251 1.327 . S
C249 H274 0.950 . S
C250 C249 1.349 1_565 S
C250 C266 1.349 . S
C251 C249 1.327 . S
C251 C270 1.429 1_545 S
C251 H275 0.950 . S
C252 C269 1.574 . S
C252 C271 1.368 . S
C252 H276 0.949 . S
H253 C257 0.949 . S
C254 C255 1.349 . S
C254 C256 1.327 . S
C254 H277 0.950 . S
C255 C254 1.349 . S
C255 C267 1.349 . S
C256 C254 1.327 . S
C256 C272 1.429 . S
C256 H278 0.950 . S
C257 H253 0.949 . S
C257 C265 1.574 . S
C257 C273 1.368 1_545 S
H258 C266 0.950 . S
H259 C264 0.950 . S
H260 C265 0.949 . S
H261 C267 0.950 1_545 S
H262 C268 0.932 1_545 S
H263 C269 0.949 . S
C264 H259 0.950 . S
C264 C266 1.327 . S
C264 C270 1.429 . S
C265 C257 1.574 . S
C265 H260 0.949 . S
C265 C271 1.368 1_545 S
C266 C250 1.349 . S
C266 H258 0.950 . S
C266 C264 1.327 . S
C267 C255 1.349 . S
C267 H261 0.950 1_565 S
C267 C268 1.326 . S
C268 H262 0.932 1_565 S
C268 C267 1.326 . S
C268 C272 1.447 . S
C269 C252 1.574 . S
C269 H263 0.949 . S
C269 C273 1.368 . S
C270 C251 1.429 1_565 S
C270 C264 1.429 . S
C270 C271 1.523 . S
C271 C252 1.368 . S
C271 C265 1.368 1_565 S
C271 C270 1.523 . S
C272 C256 1.429 . S
C272 C268 1.447 . S
C272 C273 1.523 . S
C273 C257 1.368 1_565 S
C273 C269 1.368 . S
C273 C272 1.523 . S
H274 C249 0.950 . S
H275 C251 0.950 . S
H276 C252 0.949 . S
H277 C254 0.950 . S
H278 C256 0.950 . S
C279 C280 1.349 1_655 S
C279 C281 1.327 . S
C279 H304 0.950 . S
C280 C279 1.349 1_455 S
C280 C296 1.349 . S
C281 C279 1.327 . S
C281 C300 1.429 1_655 S
C281 H305 0.950 . S
C282 C299 1.574 . S
C282 C301 1.368 . S
C282 H306 0.949 . S
H283 C287 0.949 . S
C284 C285 1.349 1_455 S
C284 C286 1.327 . S
C284 H307 0.950 . S
C285 C284 1.349 1_655 S
C285 C297 1.349 . S
C286 C284 1.327 . S
C286 C302 1.429 1_455 S
C286 H308 0.950 . S
C287 H283 0.949 . S
C287 C295 1.574 . S
C287 C303 1.368 . S
H288 C296 0.950 . S
H289 C294 0.950 . S
H290 C295 0.949 . S
H291 C297 0.950 . S
H292 C298 0.950 . S
H293 C299 0.949 . S
C294 H289 0.950 . S
C294 C296 1.327 . S
C294 C300 1.429 . S
C295 C287 1.574 . S
C295 H290 0.949 . S
C295 C301 1.368 1_655 S
C296 C280 1.349 . S
C296 H288 0.950 . S
C296 C294 1.327 . S
C297 C285 1.349 . S
C297 H291 0.950 . S
C297 C298 1.327 . S
C298 H292 0.950 . S
C298 C297 1.327 . S
C298 C302 1.429 . S
C299 C282 1.574 . S
C299 H293 0.949 . S
C299 C303 1.368 1_455 S
C300 C281 1.429 1_455 S
C300 C294 1.429 . S
C300 C301 1.523 . S
C301 C282 1.368 . S
C301 C295 1.368 1_455 S
C301 C300 1.523 . S
C302 C286 1.429 1_655 S
C302 C298 1.429 . S
C302 C303 1.523 . S
C303 C287 1.368 . S
C303 C299 1.368 1_655 S
C303 C302 1.523 . S
H304 C279 0.950 . S
H305 C281 0.950 . S
H306 C282 0.949 . S
H307 C284 0.950 . S
H308 C286 0.950 . S
C309 C310 1.349 . S
C309 C311 1.327 . S
C309 H334 0.950 . S
C310 C309 1.349 . S
C310 C326 1.349 1_545 S
C311 C309 1.327 . S
C311 C330 1.429 . S
C311 H335 0.950 . S
C312 C329 1.574 . S
C312 C331 1.368 1_565 S
C312 H336 0.949 . S
H313 C317 0.949 . S
C314 C315 1.349 1_565 S
C314 C316 1.327 . S
C314 H337 0.950 . S
C315 C314 1.349 1_545 S
C315 C327 1.349 . S
C316 C314 1.327 . S
C316 C332 1.429 1_565 S
C316 H338 0.950 . S
C317 H313 0.949 . S
C317 C325 1.574 . S
C317 C333 1.368 . S
H318 C326 0.950 . S
H319 C324 0.950 . S
H320 C325 0.949 . S
H321 C327 0.950 . S
H322 C328 0.950 . S
H323 C329 0.949 . S
C324 H319 0.950 . S
C324 C326 1.327 . S
C324 C330 1.429 1_565 S
C325 C317 1.574 . S
C325 H320 0.949 . S
C325 C331 1.368 . S
C326 C310 1.349 1_565 S
C326 H318 0.950 . S
C326 C324 1.327 . S
C327 C315 1.349 . S
C327 H321 0.950 . S
C327 C328 1.327 . S
C328 H322 0.950 . S
C328 C327 1.327 . S
C328 C332 1.429 . S
C329 C312 1.574 . S
C329 H323 0.949 . S
C329 C333 1.368 1_565 S
C330 C311 1.429 . S
C330 C324 1.429 1_545 S
C330 C331 1.523 . S
C331 C312 1.368 1_545 S
C331 C325 1.368 . S
C331 C330 1.523 . S
C332 C316 1.429 1_545 S
C332 C328 1.429 . S
C332 C333 1.523 . S
C333 C317 1.368 . S
C333 C329 1.368 1_545 S
C333 C332 1.523 . S
H334 C309 0.950 . S
H335 C311 0.950 . S
H336 C312 0.949 . S
H337 C314 0.950 . S
H338 C316 0.950 . S
C339 C340 1.349 . S
C339 C341 1.327 . S
C339 H364 0.950 . S
C340 C339 1.349 . S
C340 C356 1.349 1_556 S
C341 C339 1.327 . S
C341 C360 1.429 . S
C341 H365 0.950 . S
C342 C359 1.574 . S
C342 C361 1.368 1_554 S
C342 H366 0.949 . S
H343 C347 0.949 . S
C344 C345 1.349 . S
C344 C346 1.327 . S
C344 H367 0.950 . S
C345 C344 1.349 . S
C345 C357 1.349 1_554 S
C346 C344 1.327 . S
C346 C362 1.429 . S
C346 H368 0.950 . S
C347 H343 0.949 . S
C347 C355 1.574 . S
C347 C363 1.367 . S
H348 C356 0.950 . S
H349 C354 0.950 . S
H350 C355 0.949 . S
H351 C357 0.950 . S
H352 C358 0.950 . S
H353 C359 0.949 . S
C354 H349 0.950 . S
C354 C356 1.327 . S
C354 C360 1.429 1_554 S
C355 C347 1.574 . S
C355 H350 0.949 . S
C355 C361 1.368 . S
C356 C340 1.349 1_554 S
C356 H348 0.950 . S
C356 C354 1.327 . S
C357 C345 1.349 1_556 S
C357 H351 0.950 . S
C357 C358 1.327 . S
C358 H352 0.950 . S
C358 C357 1.327 . S
C358 C362 1.429 1_556 S
C359 C342 1.574 . S
C359 H353 0.949 . S
C359 C363 1.370 1_554 S
C360 C341 1.429 . S
C360 C354 1.429 1_556 S
C360 C361 1.523 . S
C361 C342 1.368 1_556 S
C361 C355 1.368 . S
C361 C360 1.523 . S
C362 C346 1.429 . S
C362 C358 1.429 1_554 S
C362 C363 1.523 1_554 S
C363 C347 1.367 . S
C363 C359 1.370 1_556 S
C363 C362 1.523 1_556 S
H364 C339 0.950 . S
H365 C341 0.950 . S
H366 C342 0.949 . S
H367 C344 0.950 . S
H368 C346 0.950 . S
C369 C370 1.349 1_554 S
C369 C371 1.327 . S
C369 H394 0.950 . S
C370 C369 1.349 1_556 S
C370 C386 1.349 . S
C371 C369 1.327 . S
C371 C390 1.429 1_554 S
C371 H395 0.950 . S
C372 C389 1.574 . S
C372 C391 1.368 . S
C372 H396 0.949 . S
H373 C377 0.949 . S
C374 C375 1.349 1_556 S
C374 C376 1.327 . S
C374 H397 0.950 . S
C375 C374 1.349 1_554 S
C375 C387 1.349 . S
C376 C374 1.327 . S
C376 C392 1.429 1_556 S
C376 H398 0.950 . S
C377 H373 0.949 . S
C377 C385 1.574 . S
C377 C393 1.368 . S
H378 C386 0.950 . S
H379 C384 0.950 . S
H380 C385 0.949 . S
H381 C387 0.950 . S
H382 C388 0.950 . S
H383 C389 0.949 . S
C384 H379 0.950 . S
C384 C386 1.327 . S
C384 C390 1.429 . S
C385 C377 1.574 . S
C385 H380 0.949 . S
C385 C391 1.368 1_554 S
C386 C370 1.349 . S
C386 H378 0.950 . S
C386 C384 1.327 . S
C387 C375 1.349 . S
C387 H381 0.950 . S
C387 C388 1.327 . S
C388 H382 0.950 . S
C388 C387 1.327 . S
C388 C392 1.429 . S
C389 C372 1.574 . S
C389 H383 0.949 . S
C389 C393 1.368 1_556 S
C390 C371 1.429 1_556 S
C390 C384 1.429 . S
C390 C391 1.523 . S
C391 C372 1.368 . S
C391 C385 1.368 1_556 S
C391 C390 1.523 . S
C392 C376 1.429 1_554 S
C392 C388 1.429 . S
C392 C393 1.523 . S
C393 C377 1.368 . S
C393 C389 1.368 1_554 S
C393 C392 1.523 . S
H394 C369 0.950 . S
H395 C371 0.950 . S
H396 C372 0.949 . S
H397 C374 0.950 . S
H398 C376 0.950 . S
C399 C400 1.349 . S
C399 C401 1.327 . S
C399 H424 0.950 . S
C400 C399 1.349 . S
C400 C416 1.349 1_556 S
C401 C399 1.327 . S
C401 C420 1.429 . S
C401 H425 0.950 . S
C402 C419 1.574 . S
C402 C421 1.368 1_554 S
C402 H426 0.949 . S
H403 C407 0.949 . S
C404 C405 1.349 . S
C404 C406 1.327 . S
C404 H427 0.950 . S
C405 C404 1.349 . S
C405 C417 1.349 1_554 S
C406 C404 1.327 . S
C406 C422 1.429 . S
C406 H428 0.950 . S
C407 H403 0.949 . S
C407 C415 1.574 . S
C407 C423 1.368 1_556 S
H408 C416 0.950 . S
H409 C414 0.950 . S
H410 C415 0.949 . S
H411 C417 0.950 . S
H412 C418 0.950 . S
H413 C419 0.949 . S
C414 H409 0.950 . S
C414 C416 1.327 . S
C414 C420 1.429 1_554 S
C415 C407 1.574 . S
C415 H410 0.949 . S
C415 C421 1.368 . S
C416 C400 1.349 1_554 S
C416 H408 0.950 . S
C416 C414 1.327 . S
C417 C405 1.349 1_556 S
C417 H411 0.950 . S
C417 C418 1.327 . S
C418 H412 0.950 . S
C418 C417 1.327 . S
C418 C422 1.429 1_556 S
C419 C402 1.574 . S
C419 H413 0.949 . S
C419 C423 1.368 . S
C420 C401 1.429 . S
C420 C414 1.429 1_556 S
C420 C421 1.523 . S
C421 C402 1.368 1_556 S
C421 C415 1.368 . S
C421 C420 1.523 . S
C422 C406 1.429 . S
C422 C418 1.429 1_554 S
C422 C423 1.523 . S
C423 C407 1.368 1_554 S
C423 C419 1.368 . S
C423 C422 1.523 . S
H424 C399 0.950 . S
H425 C401 0.950 . S
H426 C402 0.949 . S
H427 C404 0.950 . S
H428 C406 0.950 . S
C429 C430 1.349 1_556 S
C429 C431 1.327 . S
C429 H454 0.950 . S
C430 C429 1.349 1_554 S
C430 C446 1.349 . S
C431 C429 1.327 . S
C431 C450 1.429 1_556 S
C431 H455 0.950 . S
C432 C449 1.574 . S
C432 C451 1.368 . S
C432 H456 0.949 . S
H433 C437 0.949 . S
C434 C435 1.349 1_554 S
C434 C436 1.327 . S
C434 H457 0.950 . S
C435 C434 1.349 1_556 S
C435 C447 1.349 . S
C436 C434 1.327 . S
C436 C452 1.429 1_554 S
C436 H458 0.950 . S
C437 H433 0.949 . S
C437 C445 1.574 . S
C437 C453 1.366 1_556 S
H438 C446 0.950 . S
H439 C444 0.950 . S
H440 C445 0.949 . S
H441 C447 0.950 . S
H442 C448 0.950 . S
H443 C449 0.949 . S
C444 H439 0.950 . S
C444 C446 1.327 . S
C444 C450 1.429 . S
C445 C437 1.574 . S
C445 H440 0.949 . S
C445 C451 1.368 1_556 S
C446 C430 1.349 . S
C446 H438 0.950 . S
C446 C444 1.327 . S
C447 C435 1.349 . S
C447 H441 0.950 . S
C447 C448 1.327 . S
C448 H442 0.950 . S
C448 C447 1.327 . S
C448 C452 1.429 . S
C449 C432 1.574 . S
C449 H443 0.949 . S
C449 C453 1.371 . S
C450 C431 1.429 1_554 S
C450 C444 1.429 . S
C450 C451 1.523 . S
C451 C432 1.368 . S
C451 C445 1.368 1_554 S
C451 C450 1.523 . S
C452 C436 1.429 1_556 S
C452 C448 1.429 . S
C452 C453 1.522 1_556 S
C453 C437 1.366 1_554 S
C453 C449 1.371 . S
C453 C452 1.522 1_554 S
H454 C429 0.950 . S
H455 C431 0.950 . S
H456 C432 0.949 . S
H457 C434 0.950 . S
H458 C436 0.950 . S
C100 C87 1.887 . S
C105 C25 1.848 . S
C130 C28 1.072 . S
C135 C56 1.062 . S
C160 C27 0.999 1_455 S
C165 C93 1.004 1_655 S
C190 C58 2.053 . S
C195 C26 1.938 . S
C220 C21 1.851 . S
C225 C91 1.890 . S
C250 C60 1.062 . S
C255 C24 1.072 . S
C280 C89 1.005 1_455 S
C285 C23 0.999 1_655 S
C310 C54 2.053 . S
C315 C22 1.945 . S
C340 C88 2.108 1_556 S
C345 C59 2.157 . S
C370 C94 1.049 . S
C375 C61 1.052 . S
C400 C57 1.053 . S
C405 C90 1.049 . S
C430 C92 2.108 1_554 S
C435 C55 2.162 . S
