# Generated by pormake.
# Topology afi, (4)-cn, num edge types: 1
# Building blocks:
#     Node 0, Type 0, BuildingBlock: QUQFOY_clean_sbu_1, # of connection points: 4
#     Node 1, Type 0, BuildingBlock: QUQFOY_clean_sbu_1, # of connection points: 4
#     Node 2, Type 0, BuildingBlock: QUQFOY_clean_sbu_1, # of connection points: 4
#     Node 3, Type 0, BuildingBlock: QUQFOY_clean_sbu_1, # of connection points: 4
#     Node 4, Type 0, BuildingBlock: QUQFOY_clean_sbu_1, # of connection points: 4
#     Node 5, Type 0, BuildingBlock: QUQFOY_clean_sbu_1, # of connection points: 4
#     Node 6, Type 0, BuildingBlock: QUQFOY_clean_sbu_1, # of connection points: 4
#     Node 7, Type 0, BuildingBlock: QUQFOY_clean_sbu_1, # of connection points: 4
#     Node 8, Type 0, BuildingBlock: QUQFOY_clean_sbu_1, # of connection points: 4
#     Node 9, Type 0, BuildingBlock: QUQFOY_clean_sbu_1, # of connection points: 4
#     Node 10, Type 0, BuildingBlock: QUQFOY_clean_sbu_1, # of connection points: 4
#     Node 11, Type 0, BuildingBlock: QUQFOY_clean_sbu_1, # of connection points: 4
#     Node 12, Type 0, BuildingBlock: QUQFOY_clean_sbu_1, # of connection points: 4
#     Node 13, Type 0, BuildingBlock: QUQFOY_clean_sbu_1, # of connection points: 4
#     Node 14, Type 0, BuildingBlock: QUQFOY_clean_sbu_1, # of connection points: 4
#     Node 15, Type 0, BuildingBlock: QUQFOY_clean_sbu_1, # of connection points: 4
#     Node 16, Type 0, BuildingBlock: QUQFOY_clean_sbu_1, # of connection points: 4
#     Node 17, Type 0, BuildingBlock: QUQFOY_clean_sbu_1, # of connection points: 4
#     Node 18, Type 0, BuildingBlock: QUQFOY_clean_sbu_1, # of connection points: 4
#     Node 19, Type 0, BuildingBlock: QUQFOY_clean_sbu_1, # of connection points: 4
#     Node 20, Type 0, BuildingBlock: QUQFOY_clean_sbu_1, # of connection points: 4
#     Node 21, Type 0, BuildingBlock: QUQFOY_clean_sbu_1, # of connection points: 4
#     Node 22, Type 0, BuildingBlock: QUQFOY_clean_sbu_1, # of connection points: 4
#     Node 23, Type 0, BuildingBlock: QUQFOY_clean_sbu_1, # of connection points: 4
#     Edge 24, Type (0, 0), BuildingBlock: MIFKUJ_clean_linker_0, # of connection points: 2
#     Edge 25, Type (0, 0), BuildingBlock: MIFKUJ_clean_linker_0, # of connection points: 2
#     Edge 26, Type (0, 0), BuildingBlock: MIFKUJ_clean_linker_0, # of connection points: 2
#     Edge 27, Type (0, 0), BuildingBlock: MIFKUJ_clean_linker_0, # of connection points: 2
#     Edge 28, Type (0, 0), BuildingBlock: MIFKUJ_clean_linker_0, # of connection points: 2
#     Edge 29, Type (0, 0), BuildingBlock: MIFKUJ_clean_linker_0, # of connection points: 2
#     Edge 30, Type (0, 0), BuildingBlock: MIFKUJ_clean_linker_0, # of connection points: 2
#     Edge 31, Type (0, 0), BuildingBlock: MIFKUJ_clean_linker_0, # of connection points: 2
#     Edge 32, Type (0, 0), BuildingBlock: MIFKUJ_clean_linker_0, # of connection points: 2
#     Edge 33, Type (0, 0), BuildingBlock: MIFKUJ_clean_linker_0, # of connection points: 2
#     Edge 34, Type (0, 0), BuildingBlock: MIFKUJ_clean_linker_0, # of connection points: 2
#     Edge 35, Type (0, 0), BuildingBlock: MIFKUJ_clean_linker_0, # of connection points: 2
#     Edge 36, Type (0, 0), BuildingBlock: MIFKUJ_clean_linker_0, # of connection points: 2
#     Edge 37, Type (0, 0), BuildingBlock: MIFKUJ_clean_linker_0, # of connection points: 2
#     Edge 38, Type (0, 0), BuildingBlock: MIFKUJ_clean_linker_0, # of connection points: 2
#     Edge 39, Type (0, 0), BuildingBlock: MIFKUJ_clean_linker_0, # of connection points: 2
#     Edge 40, Type (0, 0), BuildingBlock: MIFKUJ_clean_linker_0, # of connection points: 2
#     Edge 41, Type (0, 0), BuildingBlock: MIFKUJ_clean_linker_0, # of connection points: 2
#     Edge 42, Type (0, 0), BuildingBlock: MIFKUJ_clean_linker_0, # of connection points: 2
#     Edge 43, Type (0, 0), BuildingBlock: MIFKUJ_clean_linker_0, # of connection points: 2
#     Edge 44, Type (0, 0), BuildingBlock: MIFKUJ_clean_linker_0, # of connection points: 2
#     Edge 45, Type (0, 0), BuildingBlock: MIFKUJ_clean_linker_0, # of connection points: 2
#     Edge 46, Type (0, 0), BuildingBlock: MIFKUJ_clean_linker_0, # of connection points: 2
#     Edge 47, Type (0, 0), BuildingBlock: MIFKUJ_clean_linker_0, # of connection points: 2
#     Edge 48, Type (0, 0), BuildingBlock: MIFKUJ_clean_linker_0, # of connection points: 2
#     Edge 49, Type (0, 0), BuildingBlock: MIFKUJ_clean_linker_0, # of connection points: 2
#     Edge 50, Type (0, 0), BuildingBlock: MIFKUJ_clean_linker_0, # of connection points: 2
#     Edge 51, Type (0, 0), BuildingBlock: MIFKUJ_clean_linker_0, # of connection points: 2
#     Edge 52, Type (0, 0), BuildingBlock: MIFKUJ_clean_linker_0, # of connection points: 2
#     Edge 53, Type (0, 0), BuildingBlock: MIFKUJ_clean_linker_0, # of connection points: 2
#     Edge 54, Type (0, 0), BuildingBlock: MIFKUJ_clean_linker_0, # of connection points: 2
#     Edge 55, Type (0, 0), BuildingBlock: MIFKUJ_clean_linker_0, # of connection points: 2
#     Edge 56, Type (0, 0), BuildingBlock: MIFKUJ_clean_linker_0, # of connection points: 2
#     Edge 57, Type (0, 0), BuildingBlock: MIFKUJ_clean_linker_0, # of connection points: 2
#     Edge 58, Type (0, 0), BuildingBlock: MIFKUJ_clean_linker_0, # of connection points: 2
#     Edge 59, Type (0, 0), BuildingBlock: MIFKUJ_clean_linker_0, # of connection points: 2
#     Edge 60, Type (0, 0), BuildingBlock: MIFKUJ_clean_linker_0, # of connection points: 2
#     Edge 61, Type (0, 0), BuildingBlock: MIFKUJ_clean_linker_0, # of connection points: 2
#     Edge 62, Type (0, 0), BuildingBlock: MIFKUJ_clean_linker_0, # of connection points: 2
#     Edge 63, Type (0, 0), BuildingBlock: MIFKUJ_clean_linker_0, # of connection points: 2
#     Edge 64, Type (0, 0), BuildingBlock: MIFKUJ_clean_linker_0, # of connection points: 2
#     Edge 65, Type (0, 0), BuildingBlock: MIFKUJ_clean_linker_0, # of connection points: 2
#     Edge 66, Type (0, 0), BuildingBlock: MIFKUJ_clean_linker_0, # of connection points: 2
#     Edge 67, Type (0, 0), BuildingBlock: MIFKUJ_clean_linker_0, # of connection points: 2
#     Edge 68, Type (0, 0), BuildingBlock: MIFKUJ_clean_linker_0, # of connection points: 2
#     Edge 69, Type (0, 0), BuildingBlock: MIFKUJ_clean_linker_0, # of connection points: 2
#     Edge 70, Type (0, 0), BuildingBlock: MIFKUJ_clean_linker_0, # of connection points: 2
#     Edge 71, Type (0, 0), BuildingBlock: MIFKUJ_clean_linker_0, # of connection points: 2
# Relax obj value: 0.130
# Max RMSD: 0.171
# Mean RMSD: 0.171
data_MOF--net-afi--node1-QUQFOY_clean_sbu_1--edge1-MIFKUJ_clean_linker_0
_symmetry_space_group_name_H-M    P1
_symmetry_Int_Tables_number       1
_symmetry_cell_setting            triclinic
loop_
_symmetry_equiv_pos_as_xyz
'x, y, z'
_cell_length_a     88.14988
_cell_length_b     88.120977
_cell_length_c     57.660451
_cell_angle_alpha  89.981186
_cell_angle_beta   89.999843
_cell_angle_gamma 119.99974
loop_
_atom_site_label
_atom_site_type_symbol
_atom_site_fract_x
_atom_site_fract_y
_atom_site_fract_z
_atom_type_partial_charge
O0 O 0.47971 0.12881 0.21472 0.0
Cd1 Cd 0.45467 0.12404 0.20799 0.0
Cd2 Cd 0.46023 0.10905 0.16761 0.0
O3 O 0.48457 0.11836 0.18253 0.0
O4 O 0.45093 0.13725 0.2333 0.0
O5 O 0.45081 0.14348 0.19625 0.0
C6 C 0.44957 0.14695 0.2177 0.0
C7 C 0.45929 0.11241 0.12727 0.0
C8 C 0.48968 0.12563 0.20224 0.0
C9 C 0.43114 0.08524 0.20051 0.0
O10 O 0.44004 0.08671 0.18244 0.0
O11 O 0.43434 0.09866 0.21244 0.0
O12 O 0.46285 0.10115 0.13617 0.0
O13 O 0.45618 0.12193 0.14136 0.0
O14 O 0.35137 0.47786 0.21348 0.0
Cd15 Cd 0.33122 0.45293 0.20584 0.0
Cd16 Cd 0.35235 0.4594 0.16604 0.0
O17 O 0.36702 0.48362 0.18146 0.0
O18 O 0.31415 0.44863 0.23118 0.0
O19 O 0.30803 0.44945 0.19425 0.0
C20 C 0.30321 0.44773 0.2157 0.0
C21 C 0.3477 0.4585 0.12582 0.0
C22 C 0.36457 0.48824 0.20135 0.0
C23 C 0.34678 0.4297 0.19785 0.0
O24 O 0.35466 0.43915 0.18034 0.0
O25 O 0.33618 0.43247 0.20956 0.0
O26 O 0.3627 0.46239 0.13444 0.0
O27 O 0.33513 0.45516 0.14014 0.0
O28 O 0.87317 0.35241 0.21094 0.0
Cd29 Cd 0.87809 0.33201 0.20735 0.0
Cd30 Cd 0.89696 0.35253 0.1683 0.0
O31 O 0.88966 0.36952 0.18251 0.0
O32 O 0.86374 0.31614 0.23298 0.0
O33 O 0.85907 0.30822 0.19622 0.0
C34 C 0.85472 0.3044 0.21772 0.0
C35 C 0.8937 0.3479 0.12806 0.0
C36 C 0.87958 0.36672 0.19974 0.0
C37 C 0.91708 0.34487 0.20417 0.0
O38 O 0.91732 0.35141 0.18442 0.0
O39 O 0.90293 0.33691 0.21572 0.0
O40 O 0.90609 0.36221 0.13681 0.0
O41 O 0.883 0.336 0.14225 0.0
O42 O 0.5213 0.87194 0.21738 0.0
Cd43 Cd 0.54636 0.8767 0.21199 0.0
Cd44 Cd 0.54266 0.89263 0.17125 0.0
O45 O 0.51788 0.88347 0.18519 0.0
O46 O 0.54921 0.86282 0.23717 0.0
O47 O 0.5507 0.85763 0.20003 0.0
C48 C 0.55116 0.85357 0.22145 0.0
C49 C 0.54401 0.88928 0.13099 0.0
C50 C 0.51196 0.87567 0.20444 0.0
C51 C 0.57088 0.91551 0.20584 0.0
O52 O 0.56331 0.91452 0.18664 0.0
O53 O 0.56626 0.90189 0.21807 0.0
O54 O 0.54078 0.90083 0.13967 0.0
O55 O 0.54667 0.87954 0.14526 0.0
O56 O 0.64847 0.52032 0.21393 0.0
Cd57 Cd 0.66816 0.5457 0.20769 0.0
Cd58 Cd 0.64737 0.54058 0.16787 0.0
O59 O 0.63191 0.51642 0.18325 0.0
O60 O 0.68553 0.54968 0.23247 0.0
O61 O 0.69146 0.55016 0.19519 0.0
C62 C 0.69647 0.55137 0.21649 0.0
C63 C 0.65193 0.54105 0.12767 0.0
C64 C 0.63476 0.5108 0.20211 0.0
C65 C 0.65313 0.56966 0.20084 0.0
O66 O 0.6462 0.56145 0.18215 0.0
O67 O 0.66254 0.56559 0.21313 0.0
O68 O 0.63717 0.53801 0.13624 0.0
O69 O 0.66433 0.54389 0.14203 0.0
O70 O 0.12691 0.65076 0.21685 0.0
Cd71 Cd 0.12284 0.67142 0.21039 0.0
Cd72 Cd 0.10716 0.65123 0.16973 0.0
O73 O 0.11621 0.63576 0.18447 0.0
O74 O 0.13624 0.68803 0.23589 0.0
O75 O 0.14257 0.69465 0.19892 0.0
C76 C 0.14604 0.69916 0.22043 0.0
C77 C 0.11021 0.65541 0.12934 0.0
C78 C 0.12346 0.63765 0.20416 0.0
C79 C 0.08423 0.6575 0.20325 0.0
O80 O 0.08528 0.65029 0.18467 0.0
O81 O 0.0978 0.66683 0.2154 0.0
O82 O 0.09875 0.64073 0.13838 0.0
O83 O 0.12018 0.66793 0.14331 0.0
O84 O 0.87054 0.52074 0.29256 0.0
Cd85 Cd 0.87542 0.54592 0.29737 0.0
Cd86 Cd 0.89271 0.54289 0.33746 0.0
O87 O 0.88521 0.51879 0.32236 0.0
O88 O 0.86161 0.54838 0.27178 0.0
O89 O 0.85631 0.55047 0.30868 0.0
C90 C 0.85234 0.55064 0.28716 0.0
C91 C 0.88925 0.54331 0.37785 0.0
C92 C 0.87607 0.51223 0.30417 0.0
C93 C 0.91426 0.57149 0.30291 0.0
O94 O 0.91369 0.56457 0.32249 0.0
O95 O 0.90056 0.56587 0.29052 0.0
O96 O 0.90142 0.5412 0.36879 0.0
O97 O 0.87889 0.54528 0.3639 0.0
O98 O 0.35025 0.87368 0.29066 0.0
Cd99 Cd 0.33039 0.87847 0.29971 0.0
Cd100 Cd 0.35188 0.89217 0.33909 0.0
O101 O 0.36552 0.88161 0.32315 0.0
O102 O 0.31264 0.86576 0.27506 0.0
O103 O 0.30749 0.85888 0.31216 0.0
C104 C 0.30211 0.85577 0.29093 0.0
C105 C 0.34781 0.88869 0.37944 0.0
C106 C 0.36308 0.87539 0.30273 0.0
C107 C 0.34677 0.91711 0.30811 0.0
O108 O 0.3549 0.91516 0.32503 0.0
O109 O 0.33557 0.90393 0.29665 0.0
O110 O 0.36283 0.89931 0.37043 0.0
O111 O 0.33489 0.8798 0.36545 0.0
O112 O 0.47923 0.35048 0.29525 0.0
Cd113 Cd 0.45383 0.33044 0.30088 0.0
Cd114 Cd 0.45859 0.35139 0.34079 0.0
O115 O 0.48298 0.36679 0.3262 0.0
O116 O 0.45044 0.31384 0.27526 0.0
O117 O 0.44949 0.30685 0.31218 0.0
C118 C 0.44865 0.30248 0.29064 0.0
C119 C 0.45703 0.34656 0.381 0.0
C120 C 0.48869 0.36408 0.30732 0.0
C121 C 0.42994 0.34564 0.30706 0.0
O122 O 0.43831 0.35301 0.32548 0.0
O123 O 0.4337 0.33573 0.29536 0.0
O124 O 0.46044 0.36142 0.37238 0.0
O125 O 0.45453 0.33423 0.36671 0.0
O126 O 0.12899 0.47904 0.28889 0.0
Cd127 Cd 0.12478 0.45438 0.29621 0.0
Cd128 Cd 0.10998 0.45996 0.337 0.0
O129 O 0.11883 0.48412 0.32121 0.0
O130 O 0.13807 0.45053 0.27116 0.0
O131 O 0.14435 0.4509 0.30829 0.0
C132 C 0.14783 0.44944 0.28691 0.0
C133 C 0.11335 0.45982 0.37747 0.0
C134 C 0.12578 0.48903 0.30127 0.0
C135 C 0.08631 0.43005 0.30475 0.0
O136 O 0.08784 0.43868 0.32315 0.0
O137 O 0.09955 0.434 0.29204 0.0
O138 O 0.10198 0.46303 0.36816 0.0
O139 O 0.12308 0.45673 0.36374 0.0
O140 O 0.65083 0.13078 0.29423 0.0
Cd141 Cd 0.67079 0.12542 0.29922 0.0
Cd142 Cd 0.65082 0.10899 0.33965 0.0
O143 O 0.63487 0.1175 0.32513 0.0
O144 O 0.68769 0.1392 0.27417 0.0
O145 O 0.69426 0.14419 0.31137 0.0
C146 C 0.69891 0.14825 0.28998 0.0
C147 C 0.65481 0.11197 0.38006 0.0
C148 C 0.63725 0.12617 0.30651 0.0
C149 C 0.65653 0.08652 0.30493 0.0
O150 O 0.65027 0.08745 0.32442 0.0
O151 O 0.66511 0.10013 0.29252 0.0
O152 O 0.64031 0.10026 0.37092 0.0
O153 O 0.6673 0.12215 0.36619 0.0
O154 O 0.5206 0.64825 0.29507 0.0
Cd155 Cd 0.54567 0.66866 0.30103 0.0
Cd156 Cd 0.54148 0.64873 0.34148 0.0
O157 O 0.51716 0.63282 0.3268 0.0
O158 O 0.54904 0.68545 0.27568 0.0
O159 O 0.54951 0.69196 0.31273 0.0
C160 C 0.55055 0.69658 0.29127 0.0
C161 C 0.54228 0.65347 0.38167 0.0
C162 C 0.51132 0.63487 0.30759 0.0
C163 C 0.57037 0.65456 0.3081 0.0
O164 O 0.56229 0.64758 0.32686 0.0
O165 O 0.56602 0.66377 0.29582 0.0
O166 O 0.53926 0.63871 0.37316 0.0
O167 O 0.54497 0.66581 0.36727 0.0
O168 O 0.52163 0.87102 0.79549 0.0
Cd169 Cd 0.5467 0.87604 0.80147 0.0
Cd170 Cd 0.54228 0.89198 0.84171 0.0
O171 O 0.51772 0.88284 0.82703 0.0
O172 O 0.55007 0.86277 0.77598 0.0
O173 O 0.55123 0.85697 0.81296 0.0
C174 C 0.55205 0.85337 0.79144 0.0
C175 C 0.54326 0.88859 0.88203 0.0
C176 C 0.5121 0.87487 0.80782 0.0
C177 C 0.57086 0.9149 0.80763 0.0
O178 O 0.56312 0.9139 0.82668 0.0
O179 O 0.56641 0.90129 0.79547 0.0
O180 O 0.53999 0.90007 0.87318 0.0
O181 O 0.5461 0.8789 0.8679 0.0
O182 O 0.65211 0.5223 0.79041 0.0
Cd183 Cd 0.67226 0.54702 0.79842 0.0
Cd184 Cd 0.65089 0.54057 0.83813 0.0
O185 O 0.6364 0.51634 0.82243 0.0
O186 O 0.68931 0.55131 0.77308 0.0
O187 O 0.6955 0.55062 0.81 0.0
C188 C 0.7003 0.55234 0.78855 0.0
C189 C 0.65453 0.54092 0.87855 0.0
C190 C 0.63889 0.51186 0.80246 0.0
C191 C 0.65687 0.57037 0.806 0.0
O192 O 0.64904 0.56112 0.8237 0.0
O193 O 0.66728 0.56732 0.79433 0.0
O194 O 0.63982 0.53736 0.86929 0.0
O195 O 0.66741 0.54433 0.86478 0.0
O196 O 0.13195 0.65033 0.79833 0.0
Cd197 Cd 0.12656 0.67044 0.80125 0.0
Cd198 Cd 0.10717 0.64992 0.83988 0.0
O199 O 0.11494 0.63311 0.82632 0.0
O200 O 0.14126 0.68642 0.77591 0.0
O201 O 0.145 0.69439 0.81267 0.0
C202 C 0.14976 0.69824 0.7913 0.0
C203 C 0.1098 0.65461 0.88014 0.0
C204 C 0.12541 0.63601 0.80953 0.0
C205 C 0.08745 0.65715 0.80298 0.0
O206 O 0.08693 0.65076 0.82295 0.0
O207 O 0.10179 0.66513 0.79183 0.0
O208 O 0.09769 0.6402 0.87124 0.0
O209 O 0.12055 0.6666 0.86608 0.0
O210 O 0.47727 0.12623 0.78966 0.0
Cd211 Cd 0.45287 0.12247 0.79796 0.0
Cd212 Cd 0.45897 0.10779 0.83779 0.0
O213 O 0.48329 0.11742 0.82247 0.0
O214 O 0.44894 0.13587 0.77318 0.0
O215 O 0.45023 0.14247 0.81033 0.0
C216 C 0.44848 0.1459 0.78904 0.0
C217 C 0.45838 0.11142 0.8781 0.0
C218 C 0.48772 0.12378 0.80217 0.0
C219 C 0.42897 0.084 0.80596 0.0
O220 O 0.43846 0.08535 0.82335 0.0
O221 O 0.43195 0.09747 0.79435 0.0
O222 O 0.46195 0.10016 0.86924 0.0
O223 O 0.45505 0.12079 0.864 0.0
O224 O 0.34991 0.47969 0.78965 0.0
Cd225 Cd 0.3298 0.45467 0.79578 0.0
Cd226 Cd 0.34976 0.45925 0.8364 0.0
O227 O 0.36523 0.48379 0.82166 0.0
O228 O 0.31283 0.45128 0.77075 0.0
O229 O 0.30645 0.45028 0.80795 0.0
C230 C 0.30172 0.44941 0.78656 0.0
C231 C 0.34563 0.45824 0.87677 0.0
C232 C 0.36312 0.48931 0.80222 0.0
C233 C 0.34422 0.43044 0.80265 0.0
O234 O 0.35083 0.43833 0.82165 0.0
O235 O 0.33519 0.43482 0.7901 0.0
O236 O 0.36033 0.46156 0.86773 0.0
O237 O 0.33304 0.45548 0.86281 0.0
O238 O 0.87034 0.3518 0.79392 0.0
Cd239 Cd 0.87573 0.3319 0.799 0.0
Cd240 Cd 0.89264 0.35267 0.83881 0.0
O241 O 0.88325 0.36807 0.82472 0.0
O242 O 0.86233 0.31562 0.77322 0.0
O243 O 0.8569 0.30799 0.81004 0.0
C244 C 0.85315 0.30393 0.78846 0.0
C245 C 0.89003 0.34805 0.87911 0.0
C246 C 0.8746 0.36538 0.80603 0.0
C247 C 0.91481 0.3469 0.80366 0.0
O248 O 0.91422 0.3537 0.82285 0.0
O249 O 0.90095 0.33766 0.792 0.0
O250 O 0.90142 0.36283 0.87022 0.0
O251 O 0.87988 0.3357 0.86504 0.0
O252 O 0.12871 0.48026 0.71303 0.0
Cd253 Cd 0.12295 0.45494 0.70667 0.0
Cd254 Cd 0.1069 0.46011 0.66712 0.0
O255 O 0.1156 0.48419 0.68289 0.0
O256 O 0.13589 0.45094 0.73203 0.0
O257 O 0.14181 0.45017 0.69501 0.0
C258 C 0.14526 0.44901 0.71649 0.0
C259 C 0.11085 0.45976 0.62687 0.0
C260 C 0.12431 0.48977 0.70161 0.0
C261 C 0.08392 0.43097 0.70018 0.0
O262 O 0.08499 0.43896 0.68134 0.0
O263 O 0.09749 0.43531 0.7124 0.0
O264 O 0.09927 0.46293 0.63559 0.0
O265 O 0.1204 0.45678 0.64108 0.0
O266 O 0.6502 0.1276 0.71539 0.0
Cd267 Cd 0.67046 0.12299 0.70891 0.0
Cd268 Cd 0.64963 0.10628 0.66963 0.0
O269 O 0.63409 0.11526 0.68429 0.0
O270 O 0.68754 0.13691 0.73369 0.0
O271 O 0.69359 0.14222 0.69642 0.0
C272 C 0.69846 0.14623 0.71774 0.0
C273 C 0.65403 0.10968 0.62935 0.0
C274 C 0.6366 0.12343 0.70336 0.0
C275 C 0.65622 0.08412 0.70386 0.0
O276 O 0.64896 0.08465 0.68504 0.0
O277 O 0.66558 0.09801 0.71541 0.0
O278 O 0.63939 0.09793 0.63817 0.0
O279 O 0.66643 0.11961 0.64349 0.0
O280 O 0.52487 0.65036 0.71937 0.0
Cd281 Cd 0.54959 0.67054 0.71157 0.0
Cd282 Cd 0.5432 0.65073 0.6707 0.0
O283 O 0.51888 0.63606 0.68615 0.0
O284 O 0.55405 0.68799 0.7364 0.0
O285 O 0.55299 0.69347 0.69923 0.0
C286 C 0.55486 0.69865 0.72054 0.0
C287 C 0.54346 0.65503 0.63043 0.0
C288 C 0.51436 0.63777 0.7065 0.0
C289 C 0.57289 0.65546 0.70231 0.0
O290 O 0.56371 0.64836 0.68429 0.0
O291 O 0.56982 0.66542 0.71497 0.0
O292 O 0.53977 0.64013 0.63919 0.0
O293 O 0.5471 0.66775 0.64461 0.0
O294 O 0.8766 0.52588 0.7161 0.0
Cd295 Cd 0.88086 0.55039 0.70788 0.0
Cd296 Cd 0.89494 0.54388 0.66742 0.0
O297 O 0.88555 0.51972 0.6835 0.0
O298 O 0.86786 0.55476 0.73279 0.0
O299 O 0.86114 0.55357 0.6957 0.0
C300 C 0.85787 0.55542 0.71702 0.0
C301 C 0.89079 0.54376 0.6271 0.0
C302 C 0.87909 0.51538 0.70378 0.0
C303 C 0.91927 0.57407 0.69888 0.0
O304 O 0.91751 0.56498 0.68088 0.0
O305 O 0.9061 0.57071 0.71143 0.0
O306 O 0.90222 0.54042 0.63596 0.0
O307 O 0.88151 0.54719 0.64122 0.0
O308 O 0.35243 0.8748 0.71737 0.0
Cd309 Cd 0.33196 0.87871 0.70848 0.0
Cd310 Cd 0.35333 0.89304 0.66891 0.0
O311 O 0.3675 0.88302 0.68471 0.0
O312 O 0.31475 0.86615 0.73373 0.0
O313 O 0.30914 0.85842 0.69694 0.0
C314 C 0.3041 0.85567 0.71832 0.0
C315 C 0.34902 0.88939 0.62863 0.0
C316 C 0.36533 0.87686 0.70515 0.0
C317 C 0.34713 0.91724 0.69982 0.0
O318 O 0.35565 0.91573 0.68302 0.0
O319 O 0.33617 0.90384 0.71116 0.0
O320 O 0.364 0.90034 0.63745 0.0
O321 O 0.33628 0.88027 0.64277 0.0
O322 O 0.47922 0.35149 0.716 0.0
Cd323 Cd 0.45435 0.33101 0.71012 0.0
Cd324 Cd 0.45816 0.35119 0.67002 0.0
O325 O 0.48288 0.36684 0.68412 0.0
O326 O 0.45148 0.31437 0.73539 0.0
O327 O 0.45046 0.30772 0.69831 0.0
C328 C 0.44978 0.30321 0.71976 0.0
C329 C 0.45651 0.34645 0.62979 0.0
C330 C 0.48863 0.36476 0.7034 0.0
C331 C 0.42957 0.34496 0.70446 0.0
O332 O 0.43734 0.35203 0.68555 0.0
O333 O 0.43416 0.33578 0.71633 0.0
O334 O 0.45963 0.36119 0.63849 0.0
O335 O 0.45432 0.33418 0.64401 0.0
H336 H 0.40365 0.07617 0.23028 0.0
H337 H 0.3849 0.04747 0.24806 0.0
H338 H 0.41201 0.02621 0.20951 0.0
H339 H 0.42996 0.05446 0.19079 0.0
H340 H 0.38069 0.00251 0.21213 0.0
H341 H 0.42191 0.0415 0.26869 0.0
H342 H 0.43664 0.06813 0.29285 0.0
H343 H 0.38754 0.05497 0.32476 0.0
H344 H 0.37249 0.02835 0.30058 0.0
H345 H 0.37607 0.94793 0.31944 0.0
H346 H 0.38654 0.97652 0.30148 0.0
H347 H 0.3391 0.95558 0.26102 0.0
H348 H 0.32885 0.9267 0.27826 0.0
H349 H 0.37806 1.0003 0.29808 0.0
H350 H 0.34787 0.97369 0.20768 0.0
H351 H 0.33827 0.94718 0.18379 0.0
H352 H 0.37397 0.93578 0.22003 0.0
H353 H 0.38392 0.96231 0.24391 0.0
C354 C 0.40537 0.06526 0.22533 0.0
C355 C 0.41833 0.06759 0.20922 0.0
C356 C 0.39474 0.04889 0.23564 0.0
C357 C 0.39728 0.0347 0.23061 0.0
C358 C 0.40974 0.03688 0.21376 0.0
C359 C 0.42004 0.05309 0.20306 0.0
C360 C 0.38771 0.01783 0.24351 0.0
C361 C 0.38003 0.00208 0.23092 0.0
C362 C 0.38704 0.01711 0.26809 0.0
C363 C 0.39605 0.03307 0.28266 0.0
C364 C 0.41425 0.04436 0.28076 0.0
C365 C 0.42265 0.05943 0.29446 0.0
C366 C 0.41302 0.06327 0.31028 0.0
C367 C 0.39497 0.052 0.31247 0.0
C368 C 0.3865 0.03692 0.29878 0.0
C369 C 0.36773 0.94944 0.30696 0.0
C370 C 0.35172 0.93497 0.30007 0.0
C371 C 0.37374 0.96584 0.29671 0.0
C372 C 0.36379 0.96817 0.27953 0.0
C373 C 0.34722 0.95403 0.27381 0.0
C374 C 0.34133 0.93754 0.28377 0.0
C375 C 0.37131 0.98505 0.26668 0.0
C376 C 0.37852 0.00077 0.27928 0.0
C377 C 0.37227 0.98576 0.24214 0.0
C378 C 0.36645 0.96985 0.22776 0.0
C379 C 0.35368 0.96553 0.2105 0.0
C380 C 0.34818 0.9505 0.19697 0.0
C381 C 0.35545 0.93976 0.20046 0.0
C382 C 0.36829 0.94406 0.21741 0.0
C383 C 0.37385 0.95908 0.23096 0.0
H384 H 0.35116 0.92813 0.18997 0.0
H385 H 0.41955 0.07494 0.32087 0.0
H386 H 0.40376 0.32748 0.2754 0.0
H387 H 0.38478 0.33697 0.25719 0.0
H388 H 0.40896 0.38411 0.29856 0.0
H389 H 0.42713 0.37425 0.31761 0.0
H390 H 0.37731 0.37527 0.29434 0.0
H391 H 0.42141 0.38132 0.23986 0.0
H392 H 0.43785 0.3712 0.21594 0.0
H393 H 0.39051 0.33515 0.18045 0.0
H394 H 0.37376 0.34493 0.20436 0.0
H395 H 0.37633 0.42836 0.18814 0.0
H396 H 0.38616 0.40983 0.20632 0.0
H397 H 0.33738 0.38244 0.24393 0.0
H398 H 0.32786 0.40168 0.22666 0.0
H399 H 0.37811 0.37813 0.20841 0.0
H400 H 0.34368 0.36992 0.29657 0.0
H401 H 0.33229 0.38514 0.32073 0.0
H402 H 0.36885 0.43423 0.28928 0.0
H403 H 0.38057 0.41933 0.26515 0.0
C404 C 0.40479 0.33973 0.28084 0.0
C405 C 0.41701 0.35016 0.29784 0.0
C406 C 0.39402 0.34521 0.27031 0.0
C407 C 0.39567 0.36148 0.27606 0.0
C408 C 0.40737 0.37151 0.29375 0.0
C409 C 0.41782 0.36586 0.30464 0.0
C410 C 0.38603 0.36864 0.26302 0.0
C411 C 0.37739 0.37576 0.27554 0.0
C412 C 0.38629 0.36958 0.23846 0.0
C413 C 0.39632 0.36369 0.22408 0.0
C414 C 0.4145 0.37115 0.22706 0.0
C415 C 0.42387 0.36549 0.21349 0.0
C416 C 0.41522 0.3525 0.19674 0.0
C417 C 0.39719 0.34518 0.19347 0.0
C418 C 0.38775 0.35078 0.20701 0.0
C419 C 0.36758 0.41825 0.20007 0.0
C420 C 0.35139 0.41662 0.20616 0.0
C421 C 0.37322 0.40761 0.21045 0.0
C422 C 0.36269 0.39491 0.2269 0.0
C423 C 0.34597 0.39244 0.2318 0.0
C424 C 0.34048 0.40337 0.2218 0.0
C425 C 0.36977 0.38513 0.23976 0.0
C426 C 0.37781 0.37741 0.2272 0.0
C427 C 0.36968 0.38436 0.26432 0.0
C428 C 0.36282 0.39347 0.27887 0.0
C429 C 0.34929 0.38396 0.29486 0.0
C430 C 0.34279 0.39253 0.30854 0.0
C431 C 0.34979 0.41063 0.30647 0.0
C432 C 0.36338 0.4202 0.2908 0.0
C433 C 0.36995 0.4117 0.2771 0.0
H434 H 0.34473 0.41723 0.31706 0.0
H435 H 0.42249 0.34814 0.18625 0.0
H436 H 0.92285 0.34012 0.24947 0.0
H437 H 0.95104 0.34977 0.26833 0.0
H438 H 0.97725 0.36675 0.20237 0.0
H439 H 0.94909 0.35734 0.18329 0.0
H440 H 0.99061 0.34953 0.23389 0.0
H441 H 0.97624 0.39608 0.23168 0.0
H442 H 0.95694 0.40838 0.23879 0.0
H443 H 0.95641 0.39796 0.31163 0.0
H444 H 0.9755 0.38534 0.30488 0.0
H445 H 0.07698 0.41507 0.26184 0.0
H446 H 0.04754 0.39579 0.24721 0.0
H447 H 0.02621 0.3945 0.31504 0.0
H448 H 0.0557 0.41444 0.3296 0.0
H449 H 0.00896 0.40104 0.28516 0.0
H450 H 0.02576 0.3576 0.28926 0.0
H451 H 0.04435 0.34436 0.28331 0.0
H452 H 0.03976 0.34723 0.20952 0.0
H453 H 0.02134 0.36073 0.21501 0.0
C454 C 0.93454 0.34558 0.23885 0.0
C455 C 0.93373 0.34811 0.21487 0.0
C456 C 0.95064 0.3511 0.24969 0.0
C457 C 0.96619 0.35907 0.23675 0.0
C458 C 0.96536 0.3606 0.21263 0.0
C459 C 0.94927 0.35528 0.20178 0.0
C460 C 0.98337 0.36742 0.24864 0.0
C461 C 0.99476 0.36086 0.245 0.0
C462 C 0.98845 0.38185 0.26364 0.0
C463 C 0.97712 0.38958 0.26774 0.0
C464 C 0.97187 0.39627 0.24918 0.0
C465 C 0.961 0.40332 0.25315 0.0
C466 C 0.95541 0.4039 0.27564 0.0
C467 C 0.96072 0.39747 0.29422 0.0
C468 C 0.97158 0.39037 0.29033 0.0
C469 C 0.06607 0.41046 0.27379 0.0
C470 C 0.0687 0.41637 0.29689 0.0
C471 C 0.0492 0.39931 0.2654 0.0
C472 C 0.03458 0.3935 0.28004 0.0
C473 C 0.03725 0.39881 0.30338 0.0
C474 C 0.05413 0.41018 0.31171 0.0
C475 C 0.01653 0.38328 0.27045 0.0
C476 C 0.0049 0.38954 0.27439 0.0
C477 C 0.0112 0.36845 0.25597 0.0
C478 C 0.02227 0.36031 0.25256 0.0
C479 C 0.02882 0.35554 0.27176 0.0
C480 C 0.03931 0.34796 0.26847 0.0
C481 C 0.04326 0.34499 0.24605 0.0
C482 C 0.03669 0.34955 0.22687 0.0
C483 C 0.02621 0.35715 0.23007 0.0
H484 H 0.05138 0.33912 0.24354 0.0
H485 H 0.94699 0.40937 0.27868 0.0
H486 H 0.58763 0.94709 0.18305 0.0
H487 H 0.60622 0.97612 0.20019 0.0
H488 H 0.60164 0.9523 0.26706 0.0
H489 H 0.58335 0.92331 0.25014 0.0
H490 H 0.5917 0.9789 0.26516 0.0
H491 H 0.63911 0.96945 0.24298 0.0
H492 H 0.6563 0.96263 0.21551 0.0
H493 H 0.66631 0.00716 0.17401 0.0
H494 H 0.64895 0.01411 0.20106 0.0
H495 H 0.64368 0.05548 0.32845 0.0
H496 H 0.63301 0.02634 0.31194 0.0
H497 H 0.64809 0.049 0.24361 0.0
H498 H 0.6594 0.07821 0.26009 0.0
H499 H 0.65339 0.02253 0.24638 0.0
H500 H 0.60541 0.03139 0.26391 0.0
H501 H 0.58694 0.03877 0.28812 0.0
H502 H 0.5762 0.9962 0.33409 0.0
H503 H 0.59479 0.98869 0.31029 0.0
C504 C 0.59083 0.94801 0.20132 0.0
C505 C 0.58394 0.93287 0.21523 0.0
C506 C 0.60148 0.96459 0.21106 0.0
C507 C 0.60526 0.96631 0.23488 0.0
C508 C 0.59887 0.95122 0.24864 0.0
C509 C 0.58846 0.93466 0.23889 0.0
C510 C 0.61462 0.98384 0.24585 0.0
C511 C 0.60529 0.98835 0.26139 0.0
C512 C 0.6321 0.99633 0.24017 0.0
C513 C 0.64258 0.9922 0.22393 0.0
C514 C 0.64483 0.9777 0.22788 0.0
C515 C 0.65464 0.97383 0.21241 0.0
C516 C 0.66236 0.98443 0.193 0.0
C517 C 0.66031 0.99895 0.18904 0.0
C518 C 0.6505 0.00287 0.20445 0.0
C519 C 0.64498 0.05429 0.30995 0.0
C520 C 0.65222 0.06916 0.29556 0.0
C521 C 0.63879 0.0376 0.30051 0.0
C522 C 0.63934 0.03541 0.27643 0.0
C523 C 0.64744 0.05032 0.26221 0.0
C524 C 0.65388 0.06703 0.27168 0.0
C525 C 0.63052 0.0176 0.26595 0.0
C526 C 0.63986 0.01305 0.25037 0.0
C527 C 0.61286 0.00515 0.27112 0.0
C528 C 0.60164 0.0096 0.28547 0.0
C529 C 0.59921 0.02368 0.27928 0.0
C530 C 0.5887 0.02788 0.29291 0.0
C531 C 0.58045 0.01799 0.31267 0.0
C532 C 0.58263 0.00386 0.3188 0.0
C533 C 0.59314 0.99962 0.30524 0.0
H534 H 0.57232 0.02126 0.3232 0.0
H535 H 0.66995 0.98141 0.18104 0.0
H536 H 0.5914 0.66817 0.26983 0.0
H537 H 0.60938 0.65751 0.25159 0.0
H538 H 0.59705 0.62058 0.30739 0.0
H539 H 0.57909 0.63111 0.3258 0.0
H540 H 0.63807 0.65284 0.26503 0.0
H541 H 0.58501 0.58119 0.28124 0.0
H542 H 0.5532 0.5638 0.2885 0.0
H543 H 0.54544 0.60143 0.25084 0.0
H544 H 0.57716 0.61889 0.24307 0.0
H545 H 0.66573 0.59027 0.23968 0.0
H546 H 0.65527 0.6088 0.25668 0.0
H547 H 0.61997 0.59724 0.19906 0.0
H548 H 0.63029 0.57871 0.18193 0.0
H549 H 0.60325 0.59066 0.24049 0.0
H550 H 0.65436 0.63753 0.20502 0.0
H551 H 0.68585 0.65539 0.1961 0.0
H552 H 0.69717 0.66811 0.26824 0.0
H553 H 0.66575 0.65012 0.27764 0.0
C554 C 0.59278 0.65801 0.27848 0.0
C555 C 0.58361 0.65034 0.29914 0.0
C556 C 0.60313 0.652 0.26807 0.0
C557 C 0.60436 0.63813 0.27801 0.0
C558 C 0.59615 0.63121 0.29937 0.0
C559 C 0.58589 0.63728 0.30987 0.0
C560 C 0.61258 0.62964 0.26495 0.0
C561 C 0.63052 0.63924 0.25971 0.0
C562 C 0.60261 0.612 0.25764 0.0
C563 C 0.58347 0.60143 0.26181 0.0
C564 C 0.5765 0.58571 0.27444 0.0
C565 C 0.55849 0.57584 0.27865 0.0
C566 C 0.54731 0.58153 0.27021 0.0
C567 C 0.55412 0.59706 0.25745 0.0
C568 C 0.57211 0.60696 0.25316 0.0
C569 C 0.65596 0.5919 0.2304 0.0
C570 C 0.64876 0.58288 0.20951 0.0
C571 C 0.65003 0.60255 0.24013 0.0
C572 C 0.63682 0.60436 0.22916 0.0
C573 C 0.63014 0.59597 0.20785 0.0
C574 C 0.63611 0.58541 0.19805 0.0
C575 C 0.62887 0.61374 0.24078 0.0
C576 C 0.6109 0.60426 0.24581 0.0
C577 C 0.63881 0.6315 0.24765 0.0
C578 C 0.65771 0.64234 0.24205 0.0
C579 C 0.66358 0.64401 0.21901 0.0
C580 C 0.68141 0.65418 0.21386 0.0
C581 C 0.69351 0.66284 0.2316 0.0
C582 C 0.68779 0.66138 0.25452 0.0
C583 C 0.66996 0.65121 0.25976 0.0
H584 H 0.70731 0.67072 0.22758 0.0
H585 H 0.53338 0.57389 0.27351 0.0
H586 H 0.07662 0.66586 0.24567 0.0
H587 H 0.04769 0.65561 0.26251 0.0
H588 H 0.02347 0.62993 0.19825 0.0
H589 H 0.05242 0.64 0.18119 0.0
H590 H 0.00684 0.64733 0.22205 0.0
H591 H 0.02701 0.60598 0.23607 0.0
H592 H 0.0484 0.5977 0.2497 0.0
H593 H 0.04642 0.61573 0.3182 0.0
H594 H 0.0252 0.62437 0.30487 0.0
H595 H 0.92254 0.58108 0.25764 0.0
H596 H 0.95148 0.60005 0.24128 0.0
H597 H 0.97365 0.6118 0.31015 0.0
H598 H 0.94474 0.59208 0.32657 0.0
H599 H 0.99229 0.60392 0.28521 0.0
H600 H 0.97034 0.64296 0.27333 0.0
H601 H 0.94957 0.6523 0.26055 0.0
H602 H 0.95527 0.64045 0.18996 0.0
H603 H 0.9759 0.63081 0.20235 0.0
C604 C 0.06518 0.6583 0.23491 0.0
C605 C 0.06685 0.65359 0.21212 0.0
C606 C 0.04866 0.65245 0.2446 0.0
C607 C 0.03349 0.6419 0.23168 0.0
C608 C 0.03506 0.63808 0.20848 0.0
C609 C 0.05161 0.64379 0.19881 0.0
C610 C 0.0161 0.63346 0.24306 0.0
C611 C 0.00353 0.63774 0.23575 0.0
C612 C 0.01205 0.62135 0.26135 0.0
C613 C 0.02467 0.616 0.26942 0.0
C614 C 0.03125 0.60832 0.25399 0.0
C615 C 0.04332 0.60354 0.26167 0.0
C616 C 0.04881 0.60624 0.28479 0.0
C617 C 0.04219 0.61368 0.30029 0.0
C618 C 0.03013 0.61851 0.29269 0.0
C619 C 0.93351 0.58794 0.26936 0.0
C620 C 0.93134 0.58502 0.29342 0.0
C621 C 0.9501 0.5989 0.25996 0.0
C622 C 0.96482 0.60757 0.27444 0.0
C623 C 0.96254 0.60525 0.29857 0.0
C624 C 0.94599 0.59401 0.30796 0.0
C625 C 0.98273 0.61771 0.26432 0.0
C626 C 0.99549 0.61368 0.27176 0.0
C627 C 0.98695 0.6302 0.24636 0.0
C628 C 0.97457 0.63603 0.23881 0.0
C629 C 0.96707 0.64222 0.2551 0.0
C630 C 0.95534 0.64759 0.24792 0.0
C631 C 0.95107 0.64693 0.22447 0.0
C632 C 0.95857 0.64094 0.20813 0.0
C633 C 0.97031 0.63555 0.21522 0.0
H634 H 0.94198 0.65109 0.21894 0.0
H635 H 0.05816 0.60253 0.2907 0.0
H636 H 0.58886 0.94605 0.83103 0.0
H637 H 0.60771 0.97511 0.81438 0.0
H638 H 0.60034 0.95211 0.7463 0.0
H639 H 0.58223 0.92305 0.76295 0.0
H640 H 0.6318 0.97791 0.7486 0.0
H641 H 0.57558 0.9707 0.76702 0.0
H642 H 0.55027 0.96434 0.7918 0.0
H643 H 0.58355 0.0073 0.83637 0.0
H644 H 0.60911 0.01377 0.81199 0.0
H645 H 0.64048 0.05192 0.68258 0.0
H646 H 0.63037 0.02336 0.70102 0.0
H647 H 0.65205 0.04896 0.76624 0.0
H648 H 0.66247 0.07749 0.74801 0.0
H649 H 0.61508 0.0227 0.7663 0.0
H650 H 0.6711 0.03071 0.7427 0.0
H651 H 0.69444 0.03651 0.71454 0.0
H652 H 0.65865 0.99117 0.67531 0.0
H653 H 0.63501 0.98524 0.70306 0.0
C654 C 0.59148 0.94718 0.81257 0.0
C655 C 0.58392 0.93226 0.79829 0.0
C656 C 0.60218 0.96381 0.80304 0.0
C657 C 0.60511 0.96589 0.77897 0.0
C658 C 0.59826 0.95091 0.76489 0.0
C659 C 0.58786 0.93427 0.77445 0.0
C660 C 0.61441 0.98362 0.76824 0.0
C661 C 0.62803 0.98764 0.75238 0.0
C662 C 0.60962 0.99643 0.77316 0.0
C663 C 0.59429 0.99259 0.78784 0.0
C664 C 0.57752 0.97871 0.7822 0.0
C665 C 0.56313 0.97509 0.79616 0.0
C666 C 0.56531 0.98537 0.81569 0.0
C667 C 0.58189 0.99932 0.82126 0.0
C668 C 0.59633 0.00298 0.80738 0.0
C669 C 0.64339 0.05149 0.70074 0.0
C670 C 0.65221 0.067 0.71383 0.0
C671 C 0.63764 0.03518 0.71122 0.0
C672 C 0.64046 0.03411 0.73497 0.0
C673 C 0.64977 0.04955 0.74788 0.0
C674 C 0.65575 0.06585 0.73738 0.0
C675 C 0.63239 0.01691 0.74682 0.0
C676 C 0.61892 0.01299 0.76277 0.0
C677 C 0.63702 0.00411 0.74151 0.0
C678 C 0.65124 0.00763 0.72485 0.0
C679 C 0.66816 0.02207 0.72795 0.0
C680 C 0.68146 0.02536 0.71209 0.0
C681 C 0.67802 0.01424 0.69311 0.0
C682 C 0.66129 0.99978 0.69 0.0
C683 C 0.64794 0.99644 0.7058 0.0
H684 H 0.68833 0.01681 0.68085 0.0
H685 H 0.55416 0.98256 0.82648 0.0
H686 H 0.63146 0.57688 0.82219 0.0
H687 H 0.62084 0.59478 0.80376 0.0
H688 H 0.66097 0.61107 0.75145 0.0
H689 H 0.67176 0.59325 0.76977 0.0
H690 H 0.65493 0.63804 0.76467 0.0
H691 H 0.62239 0.57803 0.73978 0.0
H692 H 0.60476 0.54603 0.7451 0.0
H693 H 0.56493 0.55193 0.77985 0.0
H694 H 0.5825 0.58402 0.77515 0.0
H695 H 0.58117 0.63254 0.68168 0.0
H696 H 0.59958 0.62153 0.6974 0.0
H697 H 0.61227 0.65599 0.75627 0.0
H698 H 0.59407 0.66722 0.7406 0.0
H699 H 0.59355 0.6039 0.73682 0.0
H700 H 0.65223 0.6653 0.77807 0.0
H701 H 0.67044 0.69697 0.77033 0.0
H702 H 0.65898 0.68783 0.69761 0.0
H703 H 0.64091 0.6561 0.70487 0.0
C704 C 0.63827 0.58452 0.80704 0.0
C705 C 0.65234 0.58345 0.7973 0.0
C706 C 0.63215 0.59472 0.79649 0.0
C707 C 0.63996 0.60402 0.77605 0.0
C708 C 0.65473 0.60394 0.76718 0.0
C709 C 0.66083 0.59369 0.77765 0.0
C710 C 0.63181 0.61253 0.76287 0.0
C711 C 0.6415 0.63063 0.75862 0.0
C712 C 0.61444 0.60274 0.75448 0.0
C713 C 0.60384 0.58344 0.7573 0.0
C714 C 0.60994 0.57252 0.74873 0.0
C715 C 0.59995 0.55436 0.75161 0.0
C716 C 0.58374 0.54695 0.76282 0.0
C717 C 0.5775 0.55769 0.77118 0.0
C718 C 0.58747 0.57586 0.76843 0.0
C719 C 0.58813 0.63804 0.69775 0.0
C720 C 0.58603 0.65068 0.70995 0.0
C721 C 0.59861 0.63168 0.70675 0.0
C722 C 0.6073 0.63792 0.72801 0.0
C723 C 0.60586 0.65111 0.73971 0.0
C724 C 0.59538 0.65747 0.73074 0.0
C725 C 0.61651 0.62954 0.73895 0.0
C726 C 0.60699 0.61139 0.74283 0.0
C727 C 0.63409 0.63927 0.74666 0.0
C728 C 0.64508 0.65833 0.74207 0.0
C729 C 0.65365 0.67004 0.76042 0.0
C730 C 0.66394 0.68801 0.75612 0.0
C731 C 0.66582 0.69442 0.7335 0.0
C732 C 0.65746 0.68286 0.71513 0.0
C733 C 0.64717 0.66488 0.71934 0.0
H734 H 0.67379 0.70833 0.73021 0.0
H735 H 0.57599 0.5329 0.76497 0.0
H736 H 0.92862 0.59014 0.74111 0.0
H737 H 0.95806 0.6089 0.75599 0.0
H738 H 0.97967 0.60757 0.68936 0.0
H739 H 0.95012 0.58811 0.67457 0.0
H740 H 0.99595 0.60095 0.72063 0.0
H741 H 0.98154 0.6459 0.71259 0.0
H742 H 0.96393 0.6604 0.71647 0.0
H743 H 0.96727 0.65899 0.79065 0.0
H744 H 0.9847 0.64425 0.78724 0.0
H745 H 0.08233 0.66107 0.75716 0.0
H746 H 0.05447 0.65154 0.73744 0.0
H747 H 0.02737 0.63603 0.80296 0.0
H748 H 0.0552 0.64528 0.82292 0.0
H749 H 0.01543 0.65384 0.76954 0.0
H750 H 0.02742 0.60577 0.77568 0.0
H751 H 0.04584 0.59225 0.77051 0.0
H752 H 0.04781 0.6013 0.6971 0.0
H753 H 0.02961 0.61513 0.70191 0.0
C754 C 0.93959 0.59406 0.72945 0.0
C755 C 0.937 0.58754 0.70665 0.0
C756 C 0.95648 0.60493 0.73798 0.0
C757 C 0.97117 0.60985 0.72377 0.0
C758 C 0.96857 0.60395 0.70069 0.0
C759 C 0.95166 0.59286 0.69222 0.0
C760 C 0.98914 0.61973 0.73369 0.0
C761 C 1.00028 0.61274 0.73087 0.0
C762 C 0.9948 0.63496 0.74748 0.0
C763 C 0.98433 0.64384 0.74964 0.0
C764 C 0.97841 0.64856 0.72974 0.0
C765 C 0.96848 0.65684 0.73185 0.0
C766 C 0.96445 0.66058 0.75379 0.0
C767 C 0.97039 0.65607 0.77367 0.0
C768 C 0.98032 0.64777 0.77165 0.0
C769 C 0.07051 0.65593 0.76749 0.0
C770 C 0.07097 0.65379 0.79162 0.0
C771 C 0.05461 0.65049 0.75616 0.0
C772 C 0.03891 0.64301 0.76876 0.0
C773 C 0.03939 0.64181 0.79298 0.0
C774 C 0.05528 0.64703 0.80432 0.0
C775 C 0.0219 0.63493 0.75647 0.0
C776 C 0.01103 0.64221 0.75895 0.0
C777 C 0.01652 0.62011 0.74211 0.0
C778 C 0.02734 0.61167 0.73919 0.0
C779 C 0.03192 0.60502 0.75847 0.0
C780 C 0.04229 0.59728 0.7556 0.0
C781 C 0.04804 0.59597 0.7335 0.0
C782 C 0.04338 0.60235 0.71422 0.0
C783 C 0.03303 0.61014 0.717 0.0
H784 H 0.05607 0.58996 0.73131 0.0
H785 H 0.95676 0.667 0.75539 0.0
H786 H 0.40228 0.07602 0.77534 0.0
H787 H 0.38253 0.04749 0.75798 0.0
H788 H 0.40645 0.02412 0.79905 0.0
H789 H 0.42564 0.05236 0.81712 0.0
H790 H 0.38948 0.02912 0.73122 0.0
H791 H 0.38053 0.98169 0.80764 0.0
H792 H 0.37651 0.98031 0.85007 0.0
H793 H 0.35633 0.0156 0.84555 0.0
H794 H 0.35999 0.01701 0.80307 0.0
H795 H 0.3765 0.94852 0.69069 0.0
H796 H 0.38514 0.97685 0.70821 0.0
H797 H 0.33564 0.95434 0.74426 0.0
H798 H 0.32727 0.92569 0.72756 0.0
H799 H 0.35927 0.97239 0.77308 0.0
H800 H 0.34708 0.98506 0.69803 0.0
H801 H 0.34766 0.98652 0.65532 0.0
H802 H 0.4034 0.0208 0.65661 0.0
H803 H 0.40321 0.01937 0.69933 0.0
C804 C 0.40307 0.06471 0.78102 0.0
C805 C 0.41552 0.06646 0.79764 0.0
C806 C 0.39181 0.04842 0.771 0.0
C807 C 0.39287 0.03356 0.77725 0.0
C808 C 0.40503 0.03523 0.79428 0.0
C809 C 0.41608 0.05145 0.80456 0.0
C810 C 0.38233 0.01666 0.76476 0.0
C811 C 0.38273 0.01672 0.74039 0.0
C812 C 0.37306 0.00046 0.7766 0.0
C813 C 0.37065 0.99954 0.80216 0.0
C814 C 0.37514 0.98908 0.81568 0.0
C815 C 0.37295 0.98831 0.83975 0.0
C816 C 0.36621 0.99789 0.8505 0.0
C817 C 0.36161 0.00823 0.83721 0.0
C818 C 0.36376 0.00903 0.81313 0.0
C819 C 0.36731 0.94965 0.70202 0.0
C820 C 0.35121 0.93485 0.70776 0.0
C821 C 0.37224 0.96592 0.71198 0.0
C822 C 0.36099 0.96787 0.72742 0.0
C823 C 0.34459 0.95321 0.73247 0.0
C824 C 0.33979 0.93685 0.72284 0.0
C825 C 0.36693 0.98483 0.73958 0.0
C826 C 0.36573 0.98478 0.76388 0.0
C827 C 0.37492 0.00105 0.72764 0.0
C828 C 0.37514 0.00202 0.70191 0.0
C829 C 0.35948 0.99283 0.68921 0.0
C830 C 0.35974 0.99366 0.66499 0.0
C831 C 0.37556 0.00373 0.65326 0.0
C832 C 0.39116 0.01301 0.66573 0.0
C833 C 0.39098 0.01222 0.68995 0.0
H834 H 0.37573 0.00435 0.63451 0.0
H835 H 0.36454 0.99728 0.86914 0.0
H836 H 0.35681 0.41244 0.82719 0.0
H837 H 0.3671 0.39336 0.81163 0.0
H838 H 0.35254 0.40034 0.74266 0.0
H839 H 0.3415 0.4187 0.75822 0.0
H840 H 0.34678 0.36875 0.74597 0.0
H841 H 0.39547 0.42528 0.76442 0.0
H842 H 0.41401 0.45076 0.78919 0.0
H843 H 0.42316 0.41781 0.83515 0.0
H844 H 0.40448 0.39209 0.81079 0.0
H845 H 0.41283 0.36005 0.68232 0.0
H846 H 0.39397 0.36995 0.69996 0.0
H847 H 0.39809 0.34936 0.76602 0.0
H848 H 0.41664 0.33917 0.74857 0.0
H849 H 0.40815 0.38595 0.76536 0.0
H850 H 0.36076 0.32963 0.74204 0.0
H851 H 0.34354 0.30588 0.71426 0.0
H852 H 0.33378 0.34088 0.67347 0.0
H853 H 0.35117 0.36494 0.70085 0.0
C854 C 0.35556 0.40968 0.80876 0.0
C855 C 0.3485 0.41722 0.79392 0.0
C856 C 0.36153 0.39884 0.79986 0.0
C857 C 0.36102 0.39575 0.77587 0.0
C858 C 0.35315 0.40255 0.76121 0.0
C859 C 0.34687 0.4131 0.77015 0.0
C860 C 0.36961 0.3864 0.76583 0.0
C861 C 0.36024 0.37261 0.7501 0.0
C862 C 0.38716 0.3913 0.77128 0.0
C863 C 0.39842 0.40674 0.78594 0.0
C864 C 0.40134 0.42345 0.7799 0.0
C865 C 0.41188 0.43794 0.79385 0.0
C866 C 0.41971 0.43589 0.81377 0.0
C867 C 0.41706 0.41937 0.81974 0.0
C868 C 0.4065 0.40483 0.80587 0.0
C869 C 0.40946 0.35734 0.7005 0.0
C870 C 0.41632 0.3489 0.71405 0.0
C871 C 0.39865 0.36296 0.71052 0.0
C872 C 0.39469 0.36038 0.73428 0.0
C873 C 0.40101 0.35145 0.74765 0.0
C874 C 0.41157 0.3456 0.7376 0.0
C875 C 0.38531 0.36838 0.74562 0.0
C876 C 0.39462 0.38199 0.76147 0.0
C877 C 0.3679 0.36358 0.73985 0.0
C878 C 0.35742 0.34913 0.72339 0.0
C879 C 0.35509 0.33232 0.72704 0.0
C880 C 0.34526 0.31878 0.71138 0.0
C881 C 0.33761 0.32188 0.69208 0.0
C882 C 0.33973 0.33851 0.68842 0.0
C883 C 0.34956 0.35209 0.70401 0.0
H884 H 0.33 0.31138 0.67999 0.0
H885 H 0.42788 0.44712 0.82454 0.0
H886 H 0.0758 0.41674 0.74368 0.0
H887 H 0.04673 0.39835 0.7601 0.0
H888 H 0.02344 0.39649 0.69356 0.0
H889 H 0.05253 0.41543 0.67717 0.0
H890 H 0.00833 0.40505 0.72487 0.0
H891 H 0.02261 0.35966 0.71925 0.0
H892 H 0.04038 0.34543 0.72438 0.0
H893 H 0.03764 0.34918 0.79834 0.0
H894 H 0.02005 0.36366 0.79366 0.0
H895 H 0.92186 0.3431 0.75867 0.0
H896 H 0.95055 0.35378 0.7408 0.0
H897 H 0.97535 0.37111 0.80752 0.0
H898 H 0.94662 0.36077 0.82563 0.0
H899 H 0.98889 0.35301 0.77549 0.0
H900 H 0.97656 0.40064 0.77985 0.0
H901 H 0.95914 0.41516 0.7739 0.0
H902 H 0.95812 0.40636 0.70055 0.0
H903 H 0.97533 0.39152 0.70611 0.0
C904 C 0.06453 0.41218 0.73239 0.0
C905 C 0.0665 0.41766 0.70912 0.0
C906 C 0.04787 0.40155 0.74181 0.0
C907 C 0.03284 0.3959 0.72807 0.0
C908 C 0.03483 0.40071 0.70455 0.0
C909 C 0.05148 0.41151 0.69518 0.0
C910 C 0.0151 0.38647 0.73872 0.0
C911 C 0.00401 0.39346 0.73553 0.0
C912 C 0.00955 0.3716 0.75319 0.0
C913 C 0.02013 0.36289 0.75609 0.0
C914 C 0.02591 0.35758 0.73661 0.0
C915 C 0.03593 0.34945 0.73944 0.0
C916 C 0.04017 0.34644 0.76167 0.0
C917 C 0.03436 0.35153 0.78113 0.0
C918 C 0.02435 0.35969 0.7784 0.0
C919 C 0.93336 0.34891 0.76967 0.0
C920 C 0.93196 0.35118 0.79358 0.0
C921 C 0.94974 0.35502 0.75939 0.0
C922 C 0.965 0.36327 0.77285 0.0
C923 C 0.96366 0.36472 0.79689 0.0
C924 C 0.94727 0.35888 0.80717 0.0
C925 C 0.98235 0.37163 0.76145 0.0
C926 C 0.99329 0.36449 0.76458 0.0
C927 C 0.98777 0.38628 0.74675 0.0
C928 C 0.97704 0.39478 0.74343 0.0
C929 C 0.97242 0.40158 0.76249 0.0
C930 C 0.96263 0.40992 0.75918 0.0
C931 C 0.95752 0.41166 0.73687 0.0
C932 C 0.96209 0.40498 0.71782 0.0
C933 C 0.97185 0.39661 0.72104 0.0
H934 H 0.95014 0.41831 0.73431 0.0
H935 H 0.04793 0.34014 0.76382 0.0
H936 H 0.44779 0.15756 0.26151 0.0
H937 H 0.4455 0.18291 0.27315 0.0
H938 H 0.44366 0.19554 0.20129 0.0
H939 H 0.44631 0.17025 0.18943 0.0
H940 H 0.46602 0.22397 0.22495 0.0
H941 H 0.40678 0.1781 0.23609 0.0
H942 H 0.3831 0.14983 0.25078 0.0
H943 H 0.39838 0.16729 0.32085 0.0
H944 H 0.42232 0.19559 0.30658 0.0
H945 H 0.44432 0.28949 0.24676 0.0
H946 H 0.44246 0.26217 0.23431 0.0
H947 H 0.44621 0.2493 0.30547 0.0
H948 H 0.44782 0.27663 0.31819 0.0
H949 H 0.42206 0.22076 0.28149 0.0
H950 H 0.48183 0.26606 0.27036 0.0
H951 H 0.50563 0.29433 0.25583 0.0
H952 H 0.48933 0.27777 0.18573 0.0
H953 H 0.46527 0.24948 0.19987 0.0
C954 C 0.44677 0.16563 0.24812 0.0
C955 C 0.44722 0.16186 0.22451 0.0
C956 C 0.44536 0.1801 0.25484 0.0
C957 C 0.44417 0.19103 0.23812 0.0
C958 C 0.4445 0.18726 0.2145 0.0
C959 C 0.44598 0.17278 0.20774 0.0
C960 C 0.44338 0.20681 0.24537 0.0
C961 C 0.4562 0.22322 0.23699 0.0
C962 C 0.43088 0.2059 0.26161 0.0
C963 C 0.41644 0.18892 0.27025 0.0
C964 C 0.40518 0.17587 0.25463 0.0
C965 C 0.39169 0.15984 0.26288 0.0
C966 C 0.38926 0.15675 0.28673 0.0
C967 C 0.40029 0.1697 0.30238 0.0
C968 C 0.41381 0.18574 0.29422 0.0
C969 C 0.44465 0.28083 0.25983 0.0
C970 C 0.44636 0.28531 0.28348 0.0
C971 C 0.44365 0.26523 0.25265 0.0
C972 C 0.4445 0.25383 0.26891 0.0
C973 C 0.4456 0.25795 0.29261 0.0
C974 C 0.44655 0.27358 0.29985 0.0
C975 C 0.44468 0.23787 0.26103 0.0
C976 C 0.43179 0.22146 0.26935 0.0
C977 C 0.45712 0.23876 0.24474 0.0
C978 C 0.47164 0.25572 0.23619 0.0
C979 C 0.48324 0.2685 0.25186 0.0
C980 C 0.49679 0.28452 0.24369 0.0
C981 C 0.49896 0.28786 0.21987 0.0
C982 C 0.48762 0.27517 0.20417 0.0
C983 C 0.47403 0.25914 0.21225 0.0
H984 H 0.50947 0.30027 0.21359 0.0
H985 H 0.37882 0.14433 0.29308 0.0
H986 H 0.15849 0.44728 0.24329 0.0
H987 H 0.18382 0.44485 0.23203 0.0
H988 H 0.19642 0.44374 0.30409 0.0
H989 H 0.17114 0.44654 0.31556 0.0
H990 H 0.22486 0.46576 0.28028 0.0
H991 H 0.17897 0.4065 0.27008 0.0
H992 H 0.15068 0.38263 0.25578 0.0
H993 H 0.16799 0.39706 0.18547 0.0
H994 H 0.19631 0.42118 0.19935 0.0
H995 H 0.28992 0.44318 0.25944 0.0
H996 H 0.26264 0.44149 0.27165 0.0
H997 H 0.25035 0.4458 0.20041 0.0
H998 H 0.27769 0.44733 0.18793 0.0
H999 H 0.22154 0.42127 0.22458 0.0
H1000 H 0.26695 0.48114 0.23503 0.0
H1001 H 0.29524 0.50496 0.24942 0.0
H1002 H 0.27861 0.4891 0.31964 0.0
H1003 H 0.25029 0.46502 0.30563 0.0
C1004 C 0.16655 0.4464 0.2568 0.0
C1005 C 0.16277 0.44708 0.28035 0.0
C1006 C 0.18101 0.44491 0.2503 0.0
C1007 C 0.19191 0.44387 0.26719 0.0
C1008 C 0.18814 0.44446 0.29075 0.0
C1009 C 0.17368 0.44602 0.29729 0.0
C1010 C 0.20766 0.44296 0.26015 0.0
C1011 C 0.22408 0.45583 0.26843 0.0
C1012 C 0.20672 0.43029 0.24418 0.0
C1013 C 0.18971 0.41575 0.23577 0.0
C1014 C 0.1767 0.40467 0.25157 0.0
C1015 C 0.16067 0.39108 0.24354 0.0
C1016 C 0.15752 0.38836 0.21973 0.0
C1017 C 0.17043 0.3992 0.20391 0.0
C1018 C 0.18649 0.41282 0.21185 0.0
C1019 C 0.28139 0.44366 0.2463 0.0
C1020 C 0.28605 0.44552 0.2227 0.0
C1021 C 0.26581 0.44275 0.25335 0.0
C1022 C 0.25459 0.44379 0.23699 0.0
C1023 C 0.25887 0.44504 0.21333 0.0
C1024 C 0.2745 0.44594 0.20623 0.0
C1025 C 0.23866 0.44406 0.24473 0.0
C1026 C 0.22225 0.43111 0.23654 0.0
C1027 C 0.23959 0.45664 0.26081 0.0
C1028 C 0.25657 0.47117 0.26927 0.0
C1029 C 0.26938 0.48265 0.25353 0.0
C1030 C 0.2854 0.49621 0.26162 0.0
C1031 C 0.28874 0.49852 0.28543 0.0
C1032 C 0.27602 0.48729 0.3012 0.0
C1033 C 0.25997 0.47369 0.2932 0.0
H1034 H 0.30115 0.50903 0.29166 0.0
H1035 H 0.1451 0.37783 0.21355 0.0
H1036 H 0.71294 0.15731 0.24665 0.0
H1037 H 0.74059 0.18284 0.2353 0.0
H1038 H 0.75182 0.1986 0.30695 0.0
H1039 H 0.72399 0.173 0.31851 0.0
H1040 H 0.75659 0.22553 0.27876 0.0
H1041 H 0.77425 0.18227 0.27944 0.0
H1042 H 0.77235 0.15412 0.26972 0.0
H1043 H 0.77731 0.16717 0.19732 0.0
H1044 H 0.77899 0.1953 0.20657 0.0
H1045 H 0.84347 0.29333 0.26175 0.0
H1046 H 0.81799 0.266 0.27405 0.0
H1047 H 0.80616 0.24955 0.20271 0.0
H1048 H 0.83191 0.27697 0.19016 0.0
H1049 H 0.80206 0.22277 0.23116 0.0
H1050 H 0.78346 0.26537 0.23007 0.0
H1051 H 0.78507 0.29346 0.23933 0.0
H1052 H 0.78144 0.28149 0.31201 0.0
H1053 H 0.78006 0.25342 0.3032 0.0
C1054 C 0.72134 0.16611 0.26006 0.0
C1055 C 0.71626 0.16313 0.28351 0.0
C1056 C 0.73719 0.18067 0.25353 0.0
C1057 C 0.74834 0.19255 0.27028 0.0
C1058 C 0.74342 0.18955 0.29375 0.0
C1059 C 0.72755 0.1749 0.30033 0.0
C1060 C 0.76468 0.20854 0.26307 0.0
C1061 C 0.76668 0.22493 0.2687 0.0
C1062 C 0.77757 0.20773 0.24933 0.0
C1063 C 0.77658 0.19083 0.24369 0.0
C1064 C 0.77478 0.17908 0.26143 0.0
C1065 C 0.77377 0.16313 0.25601 0.0
C1066 C 0.77466 0.15884 0.23291 0.0
C1067 C 0.7766 0.1705 0.2152 0.0
C1068 C 0.7776 0.18646 0.22052 0.0
C1069 C 0.83552 0.2839 0.24861 0.0
C1070 C 0.83966 0.28738 0.22494 0.0
C1071 C 0.82091 0.26829 0.2557 0.0
C1072 C 0.81003 0.25585 0.23929 0.0
C1073 C 0.81437 0.25902 0.21565 0.0
C1074 C 0.82904 0.27469 0.20851 0.0
C1075 C 0.79397 0.23974 0.24692 0.0
C1076 C 0.792 0.22335 0.2413 0.0
C1077 C 0.78105 0.24052 0.26062 0.0
C1078 C 0.78184 0.25738 0.26598 0.0
C1079 C 0.78315 0.26879 0.24804 0.0
C1080 C 0.784 0.2847 0.25321 0.0
C1081 C 0.78341 0.28928 0.27625 0.0
C1082 C 0.78192 0.27793 0.29417 0.0
C1083 C 0.7811 0.26202 0.2891 0.0
H1084 H 0.78406 0.30159 0.28021 0.0
H1085 H 0.77388 0.14649 0.22875 0.0
H1086 H 0.55598 0.83139 0.19291 0.0
H1087 H 0.55805 0.80569 0.2043 0.0
H1088 H 0.55277 0.81579 0.27621 0.0
H1089 H 0.55108 0.84158 0.26504 0.0
H1090 H 0.57691 0.80643 0.27183 0.0
H1091 H 0.51786 0.78444 0.2448 0.0
H1092 H 0.49507 0.78062 0.21677 0.0
H1093 H 0.51451 0.75766 0.1679 0.0
H1094 H 0.53756 0.76156 0.19555 0.0
H1095 H 0.55059 0.72184 0.31917 0.0
H1096 H 0.55271 0.74948 0.30698 0.0
H1097 H 0.55801 0.7379 0.23574 0.0
H1098 H 0.55558 0.71022 0.24769 0.0
H1099 H 0.53474 0.74829 0.23904 0.0
H1100 H 0.59319 0.76924 0.26717 0.0
H1101 H 0.61562 0.77289 0.29568 0.0
H1102 H 0.59703 0.79758 0.343 0.0
H1103 H 0.57432 0.79388 0.31488 0.0
C1104 C 0.55537 0.82818 0.21114 0.0
C1105 C 0.55327 0.83848 0.22805 0.0
C1106 C 0.55649 0.81346 0.21763 0.0
C1107 C 0.55533 0.80867 0.24111 0.0
C1108 C 0.55369 0.8192 0.258 0.0
C1109 C 0.55266 0.83393 0.25156 0.0
C1110 C 0.55538 0.79246 0.24817 0.0
C1111 C 0.56758 0.79369 0.26482 0.0
C1112 C 0.54342 0.77587 0.23875 0.0
C1113 C 0.52954 0.77346 0.22214 0.0
C1114 C 0.51735 0.7787 0.22801 0.0
C1115 C 0.50438 0.7765 0.2122 0.0
C1116 C 0.50338 0.76895 0.19054 0.0
C1117 C 0.51532 0.76353 0.18467 0.0
C1118 C 0.52833 0.76572 0.2004 0.0
C1119 C 0.55234 0.72526 0.30094 0.0
C1120 C 0.55289 0.71382 0.28441 0.0
C1121 C 0.55362 0.74109 0.29399 0.0
C1122 C 0.55565 0.74584 0.27043 0.0
C1123 C 0.55642 0.73452 0.25399 0.0
C1124 C 0.55507 0.7187 0.26089 0.0
C1125 C 0.55628 0.76224 0.2627 0.0
C1126 C 0.54415 0.76104 0.24596 0.0
C1127 C 0.56827 0.77883 0.2721 0.0
C1128 C 0.58195 0.78113 0.289 0.0
C1129 C 0.59379 0.77533 0.28372 0.0
C1130 C 0.60658 0.77743 0.2998 0.0
C1131 C 0.60772 0.78542 0.32116 0.0
C1132 C 0.59611 0.79138 0.32646 0.0
C1133 C 0.5833 0.78929 0.31045 0.0
H1134 H 0.61762 0.78704 0.33358 0.0
H1135 H 0.49332 0.76726 0.17833 0.0
H1136 H 0.71091 0.5567 0.25961 0.0
H1137 H 0.73862 0.55886 0.27061 0.0
H1138 H 0.74927 0.5539 0.19884 0.0
H1139 H 0.72134 0.55157 0.18765 0.0
H1140 H 0.7544 0.53205 0.22657 0.0
H1141 H 0.772 0.59293 0.22653 0.0
H1142 H 0.77016 0.61915 0.23657 0.0
H1143 H 0.77537 0.61084 0.30881 0.0
H1144 H 0.77699 0.5844 0.29923 0.0
H1145 H 0.84139 0.55119 0.24316 0.0
H1146 H 0.81598 0.55322 0.23104 0.0
H1147 H 0.80379 0.55685 0.30255 0.0
H1148 H 0.82943 0.55495 0.31492 0.0
H1149 H 0.79993 0.58004 0.2744 0.0
H1150 H 0.78129 0.51877 0.27467 0.0
H1151 H 0.78296 0.4924 0.26491 0.0
H1152 H 0.77941 0.50136 0.19241 0.0
H1153 H 0.77797 0.52794 0.20174 0.0
C1154 C 0.71919 0.55622 0.2461 0.0
C1155 C 0.7139 0.55395 0.22273 0.0
C1156 C 0.73509 0.55755 0.25243 0.0
C1157 C 0.7461 0.55669 0.23555 0.0
C1158 C 0.74098 0.55463 0.21215 0.0
C1159 C 0.72506 0.55336 0.20577 0.0
C1160 C 0.76248 0.55704 0.24255 0.0
C1161 C 0.7645 0.5427 0.23667 0.0
C1162 C 0.77541 0.57068 0.25633 0.0
C1163 C 0.77446 0.58659 0.26217 0.0
C1164 C 0.77261 0.5966 0.24457 0.0
C1165 C 0.77163 0.61153 0.25018 0.0
C1166 C 0.7726 0.61663 0.27332 0.0
C1167 C 0.7746 0.60685 0.2909 0.0
C1168 C 0.77556 0.59191 0.28539 0.0
C1169 C 0.83338 0.5525 0.25637 0.0
C1170 C 0.83738 0.55279 0.28005 0.0
C1171 C 0.81881 0.55361 0.24938 0.0
C1172 C 0.80786 0.55495 0.26589 0.0
C1173 C 0.81206 0.55577 0.28953 0.0
C1174 C 0.82668 0.55464 0.29657 0.0
C1175 C 0.79182 0.55507 0.25836 0.0
C1176 C 0.78985 0.56945 0.2642 0.0
C1177 C 0.77889 0.54145 0.24456 0.0
C1178 C 0.77971 0.52544 0.2389 0.0
C1179 C 0.78101 0.5152 0.25664 0.0
C1180 C 0.78189 0.5002 0.25119 0.0
C1181 C 0.78134 0.49523 0.22805 0.0
C1182 C 0.77986 0.50523 0.21032 0.0
C1183 C 0.779 0.52026 0.21568 0.0
H1184 H 0.78201 0.48361 0.22386 0.0
H1185 H 0.77185 0.62819 0.27762 0.0
H1186 H 0.17032 0.72535 0.19257 0.0
H1187 H 0.19598 0.75286 0.20497 0.0
H1188 H 0.18111 0.73913 0.27649 0.0
H1189 H 0.15569 0.71169 0.26436 0.0
H1190 H 0.1997 0.78088 0.23058 0.0
H1191 H 0.21786 0.75209 0.3088 0.0
H1192 H 0.21503 0.724 0.32128 0.0
H1193 H 0.21345 0.70885 0.25015 0.0
H1194 H 0.21652 0.73694 0.23726 0.0
H1195 H 0.27669 0.83169 0.3198 0.0
H1196 H 0.24872 0.80616 0.30857 0.0
H1197 H 0.26074 0.82031 0.23651 0.0
H1198 H 0.28837 0.84589 0.24756 0.0
H1199 H 0.24291 0.77851 0.28342 0.0
H1200 H 0.22377 0.80704 0.20535 0.0
H1201 H 0.22659 0.83514 0.19295 0.0
H1202 H 0.23018 0.85105 0.26406 0.0
H1203 H 0.22715 0.82297 0.2769 0.0
C1204 C 0.17249 0.72824 0.21092 0.0
C1205 C 0.16104 0.71627 0.22747 0.0
C1206 C 0.18712 0.74397 0.21797 0.0
C1207 C 0.19058 0.74792 0.24166 0.0
C1208 C 0.17887 0.73622 0.25814 0.0
C1209 C 0.16429 0.72055 0.25114 0.0
C1210 C 0.20661 0.76406 0.24928 0.0
C1211 C 0.20928 0.78038 0.2419 0.0
C1212 C 0.21885 0.7634 0.26455 0.0
C1213 C 0.21722 0.74654 0.27209 0.0
C1214 C 0.21697 0.74279 0.29583 0.0
C1215 C 0.21531 0.72686 0.30297 0.0
C1216 C 0.214 0.71462 0.28652 0.0
C1217 C 0.2144 0.71831 0.26288 0.0
C1218 C 0.21607 0.73422 0.25565 0.0
C1219 C 0.27326 0.82946 0.3016 0.0
C1220 C 0.28474 0.84084 0.28459 0.0
C1221 C 0.25731 0.81484 0.29519 0.0
C1222 C 0.25253 0.8114 0.27171 0.0
C1223 C 0.26394 0.82285 0.25476 0.0
C1224 C 0.27981 0.83745 0.26113 0.0
C1225 C 0.23606 0.79541 0.26474 0.0
C1226 C 0.23331 0.77907 0.27221 0.0
C1227 C 0.22376 0.79609 0.24958 0.0
C1228 C 0.2254 0.81295 0.24206 0.0
C1229 C 0.22509 0.81651 0.21834 0.0
C1230 C 0.22674 0.83244 0.21124 0.0
C1231 C 0.22862 0.84489 0.22771 0.0
C1232 C 0.22879 0.84142 0.25132 0.0
C1233 C 0.22714 0.82551 0.25851 0.0
H1234 H 0.2299 0.85722 0.22217 0.0
H1235 H 0.2127 0.7023 0.29208 0.0
H1236 H 0.55583 0.72394 0.69176 0.0
H1237 H 0.55801 0.75177 0.70309 0.0
H1238 H 0.56072 0.73994 0.77506 0.0
H1239 H 0.55886 0.7124 0.76392 0.0
H1240 H 0.53587 0.75702 0.72884 0.0
H1241 H 0.58459 0.77727 0.80579 0.0
H1242 H 0.6103 0.775 0.81755 0.0
H1243 H 0.6219 0.77133 0.74614 0.0
H1244 H 0.59642 0.77381 0.73393 0.0
H1245 H 0.555 0.82968 0.81931 0.0
H1246 H 0.55739 0.80433 0.80689 0.0
H1247 H 0.55745 0.81865 0.73534 0.0
H1248 H 0.5549 0.84377 0.7475 0.0
H1249 H 0.58172 0.80097 0.7807 0.0
H1250 H 0.53361 0.78163 0.70363 0.0
H1251 H 0.50787 0.78384 0.69187 0.0
H1252 H 0.49515 0.78551 0.76336 0.0
H1253 H 0.52065 0.78307 0.77554 0.0
C1254 C 0.5571 0.72738 0.70997 0.0
C1255 C 0.55719 0.71597 0.72693 0.0
C1256 C 0.55829 0.74325 0.71642 0.0
C1257 C 0.5597 0.74803 0.73991 0.0
C1258 C 0.55997 0.73672 0.75681 0.0
C1259 C 0.55881 0.7209 0.7504 0.0
C1260 C 0.55996 0.76437 0.74693 0.0
C1261 C 0.54608 0.76678 0.73983 0.0
C1262 C 0.573 0.77687 0.76183 0.0
C1263 C 0.58848 0.77556 0.76897 0.0
C1264 C 0.59267 0.77605 0.79259 0.0
C1265 C 0.60719 0.77471 0.79934 0.0
C1266 C 0.61769 0.77297 0.78261 0.0
C1267 C 0.61372 0.77261 0.75909 0.0
C1268 C 0.59922 0.77395 0.75225 0.0
C1269 C 0.55562 0.82746 0.80095 0.0
C1270 C 0.55461 0.83865 0.7844 0.0
C1271 C 0.55703 0.81301 0.79388 0.0
C1272 C 0.55735 0.80948 0.77019 0.0
C1273 C 0.55693 0.82096 0.7537 0.0
C1274 C 0.55551 0.83536 0.76071 0.0
C1275 C 0.55767 0.79356 0.76255 0.0
C1276 C 0.5716 0.79123 0.7696 0.0
C1277 C 0.54468 0.78111 0.74758 0.0
C1278 C 0.52916 0.78236 0.74047 0.0
C1279 C 0.52528 0.78241 0.71683 0.0
C1280 C 0.51073 0.78371 0.71009 0.0
C1281 C 0.49991 0.78488 0.72686 0.0
C1282 C 0.50358 0.78468 0.75039 0.0
C1283 C 0.51809 0.78336 0.75722 0.0
H1284 H 0.48867 0.7859 0.7216 0.0
H1285 H 0.62892 0.77193 0.78787 0.0
H1286 H 0.71315 0.55605 0.74468 0.0
H1287 H 0.74077 0.5585 0.73252 0.0
H1288 H 0.75421 0.5566 0.80396 0.0
H1289 H 0.72649 0.55425 0.8164 0.0
H1290 H 0.78228 0.58153 0.77841 0.0
H1291 H 0.73884 0.52063 0.77151 0.0
H1292 H 0.71087 0.49547 0.75862 0.0
H1293 H 0.72583 0.50938 0.6875 0.0
H1294 H 0.7538 0.53479 0.69998 0.0
H1295 H 0.84792 0.55882 0.76055 0.0
H1296 H 0.82217 0.56049 0.77188 0.0
H1297 H 0.80791 0.55867 0.69993 0.0
H1298 H 0.83361 0.55664 0.68841 0.0
H1299 H 0.7804 0.53639 0.72514 0.0
H1300 H 0.82432 0.59677 0.7318 0.0
H1301 H 0.85227 0.622 0.74458 0.0
H1302 H 0.83662 0.60937 0.81574 0.0
H1303 H 0.80867 0.58391 0.8034 0.0
C1304 C 0.72198 0.55624 0.75788 0.0
C1305 C 0.71756 0.55483 0.78153 0.0
C1306 C 0.73776 0.55759 0.75086 0.0
C1307 C 0.74942 0.55749 0.7673 0.0
C1308 C 0.74534 0.55664 0.79099 0.0
C1309 C 0.7295 0.55526 0.79806 0.0
C1310 C 0.76564 0.55781 0.75961 0.0
C1311 C 0.7819 0.57156 0.767 0.0
C1312 C 0.76511 0.54503 0.74423 0.0
C1313 C 0.74833 0.52971 0.73668 0.0
C1314 C 0.7361 0.51841 0.75312 0.0
C1315 C 0.72026 0.50409 0.74589 0.0
C1316 C 0.71656 0.50086 0.72225 0.0
C1317 C 0.72871 0.51192 0.7058 0.0
C1318 C 0.74456 0.52627 0.71294 0.0
C1319 C 0.83941 0.55892 0.74707 0.0
C1320 C 0.84283 0.5576 0.72355 0.0
C1321 C 0.82472 0.55998 0.7536 0.0
C1322 C 0.8132 0.55992 0.73676 0.0
C1323 C 0.81665 0.55878 0.71322 0.0
C1324 C 0.83136 0.55768 0.70666 0.0
C1325 C 0.79712 0.56015 0.74389 0.0
C1326 C 0.78085 0.54645 0.73645 0.0
C1327 C 0.79766 0.573 0.75918 0.0
C1328 C 0.81445 0.58833 0.76667 0.0
C1329 C 0.82689 0.59929 0.75018 0.0
C1330 C 0.84273 0.61365 0.75734 0.0
C1331 C 0.84623 0.61726 0.78095 0.0
C1332 C 0.83389 0.60655 0.79745 0.0
C1333 C 0.81804 0.59216 0.79038 0.0
H1334 H 0.8585 0.62839 0.78646 0.0
H1335 H 0.70429 0.48976 0.71669 0.0
H1336 H 0.27975 0.82902 0.69116 0.0
H1337 H 0.25244 0.80335 0.7039 0.0
H1338 H 0.2625 0.82292 0.77409 0.0
H1339 H 0.28983 0.84836 0.76161 0.0
H1340 H 0.25363 0.78942 0.77323 0.0
H1341 H 0.23078 0.82404 0.74061 0.0
H1342 H 0.22648 0.8413 0.71033 0.0
H1343 H 0.20377 0.79648 0.66533 0.0
H1344 H 0.20816 0.77901 0.69524 0.0
H1345 H 0.17074 0.72636 0.81909 0.0
H1346 H 0.19597 0.75432 0.80714 0.0
H1347 H 0.18779 0.73675 0.73603 0.0
H1348 H 0.1625 0.70905 0.74771 0.0
H1349 H 0.19534 0.76994 0.73825 0.0
H1350 H 0.2194 0.73583 0.76971 0.0
H1351 H 0.22393 0.7184 0.7995 0.0
H1352 H 0.24462 0.76221 0.84618 0.0
H1353 H 0.23999 0.77983 0.81675 0.0
C1354 C 0.27605 0.82792 0.70926 0.0
C1355 C 0.28697 0.84071 0.72537 0.0
C1356 C 0.26042 0.81328 0.71651 0.0
C1357 C 0.25537 0.81126 0.73995 0.0
C1358 C 0.26614 0.82417 0.75595 0.0
C1359 C 0.28175 0.83874 0.74874 0.0
C1360 C 0.23927 0.79538 0.74809 0.0
C1361 C 0.24084 0.78532 0.76582 0.0
C1362 C 0.22264 0.7898 0.73808 0.0
C1363 C 0.21995 0.80026 0.72009 0.0
C1364 C 0.225 0.8179 0.72419 0.0
C1365 C 0.22252 0.82772 0.70711 0.0
C1366 C 0.2149 0.82001 0.6859 0.0
C1367 C 0.20969 0.80245 0.68176 0.0
C1368 C 0.21216 0.79257 0.69877 0.0
C1369 C 0.17428 0.7285 0.80091 0.0
C1370 C 0.16467 0.71545 0.78438 0.0
C1371 C 0.18873 0.74445 0.79411 0.0
C1372 C 0.19389 0.74755 0.77071 0.0
C1373 C 0.18406 0.73467 0.75417 0.0
C1374 C 0.16963 0.71879 0.76092 0.0
C1375 C 0.20972 0.764 0.76336 0.0
C1376 C 0.20812 0.77413 0.74575 0.0
C1377 C 0.22635 0.76964 0.77343 0.0
C1378 C 0.22917 0.75908 0.79112 0.0
C1379 C 0.22478 0.7417 0.78639 0.0
C1380 C 0.22739 0.73179 0.8032 0.0
C1381 C 0.23451 0.73918 0.82475 0.0
C1382 C 0.23908 0.7565 0.8295 0.0
C1383 C 0.23647 0.76645 0.81276 0.0
H1384 H 0.23652 0.73149 0.83774 0.0
H1385 H 0.21299 0.82763 0.6727 0.0
H1386 H 0.44668 0.29031 0.7635 0.0
H1387 H 0.44474 0.26282 0.77527 0.0
H1388 H 0.44633 0.24976 0.70357 0.0
H1389 H 0.44807 0.27729 0.69153 0.0
H1390 H 0.42216 0.22149 0.72852 0.0
H1391 H 0.48268 0.26563 0.73643 0.0
H1392 H 0.50744 0.29368 0.74988 0.0
H1393 H 0.49328 0.27779 0.82069 0.0
H1394 H 0.46828 0.24973 0.80766 0.0
H1395 H 0.44581 0.15649 0.74559 0.0
H1396 H 0.44414 0.1823 0.73457 0.0
H1397 H 0.44498 0.19566 0.80671 0.0
H1398 H 0.44701 0.16989 0.81794 0.0
H1399 H 0.46726 0.22363 0.78207 0.0
H1400 H 0.40715 0.179 0.77415 0.0
H1401 H 0.38241 0.15098 0.76061 0.0
H1402 H 0.39571 0.16763 0.68988 0.0
H1403 H 0.42068 0.19567 0.70299 0.0
C1404 C 0.44654 0.28158 0.75017 0.0
C1405 C 0.44766 0.28605 0.72656 0.0
C1406 C 0.44549 0.26589 0.75696 0.0
C1407 C 0.44567 0.25437 0.74032 0.0
C1408 C 0.44624 0.2585 0.71669 0.0
C1409 C 0.44727 0.27425 0.70985 0.0
C1410 C 0.44563 0.23823 0.74774 0.0
C1411 C 0.43213 0.22194 0.73999 0.0
C1412 C 0.45841 0.23883 0.76317 0.0
C1413 C 0.4735 0.25565 0.77106 0.0
C1414 C 0.48477 0.26817 0.75487 0.0
C1415 C 0.49886 0.28407 0.76242 0.0
C1416 C 0.5019 0.28754 0.78613 0.0
C1417 C 0.49089 0.27509 0.80234 0.0
C1418 C 0.47677 0.25919 0.79488 0.0
C1419 C 0.44552 0.16482 0.75917 0.0
C1420 C 0.44652 0.16112 0.78267 0.0
C1421 C 0.44447 0.17955 0.75282 0.0
C1422 C 0.44421 0.19081 0.7698 0.0
C1423 C 0.44511 0.18711 0.79331 0.0
C1424 C 0.44622 0.17237 0.7997 0.0
C1425 C 0.44376 0.20682 0.76289 0.0
C1426 C 0.45721 0.22312 0.77069 0.0
C1427 C 0.43094 0.20622 0.7475 0.0
C1428 C 0.41588 0.18938 0.73956 0.0
C1429 C 0.40488 0.17664 0.75571 0.0
C1430 C 0.3908 0.16076 0.74811 0.0
C1431 C 0.38751 0.15751 0.7244 0.0
C1432 C 0.39828 0.17015 0.70824 0.0
C1433 C 0.41238 0.18605 0.71574 0.0
H1434 H 0.37661 0.1452 0.71855 0.0
H1435 H 0.51282 0.29985 0.79194 0.0
H1436 H 0.17006 0.44805 0.68869 0.0
H1437 H 0.19534 0.44561 0.70112 0.0
H1438 H 0.17861 0.44118 0.77234 0.0
H1439 H 0.15358 0.44388 0.76015 0.0
H1440 H 0.21234 0.46462 0.76841 0.0
H1441 H 0.17464 0.40567 0.74229 0.0
H1442 H 0.15563 0.38265 0.71456 0.0
H1443 H 0.19859 0.40019 0.66686 0.0
H1444 H 0.2178 0.42347 0.69418 0.0
H1445 H 0.27491 0.44478 0.81532 0.0
H1446 H 0.24688 0.44213 0.80405 0.0
H1447 H 0.26155 0.44616 0.73196 0.0
H1448 H 0.2893 0.44844 0.74301 0.0
H1449 H 0.22813 0.42186 0.73729 0.0
H1450 H 0.26528 0.48155 0.76205 0.0
H1451 H 0.28447 0.50497 0.7892 0.0
H1452 H 0.24262 0.48641 0.83883 0.0
H1453 H 0.22324 0.46272 0.81207 0.0
C1454 C 0.17169 0.44638 0.70697 0.0
C1455 C 0.15984 0.44621 0.72343 0.0
C1456 C 0.18611 0.44493 0.71405 0.0
C1457 C 0.18882 0.44312 0.73767 0.0
C1458 C 0.17681 0.44261 0.75404 0.0
C1459 C 0.16248 0.44412 0.74701 0.0
C1460 C 0.20459 0.4426 0.74556 0.0
C1461 C 0.21563 0.45508 0.76188 0.0
C1462 C 0.20912 0.43043 0.73663 0.0
C1463 C 0.19761 0.41641 0.7202 0.0
C1464 C 0.18 0.4047 0.72581 0.0
C1465 C 0.16919 0.39159 0.71018 0.0
C1466 C 0.17589 0.38998 0.68894 0.0
C1467 C 0.19342 0.40146 0.68331 0.0
C1468 C 0.20427 0.4146 0.69887 0.0
C1469 C 0.2721 0.44499 0.79708 0.0
C1470 C 0.28437 0.44693 0.78008 0.0
C1471 C 0.25611 0.44353 0.79065 0.0
C1472 C 0.25221 0.44418 0.76715 0.0
C1473 C 0.26426 0.44563 0.75018 0.0
C1474 C 0.28016 0.447 0.75656 0.0
C1475 C 0.23585 0.44387 0.76013 0.0
C1476 C 0.22474 0.4313 0.74394 0.0
C1477 C 0.23126 0.45599 0.76909 0.0
C1478 C 0.24288 0.47025 0.78517 0.0
C1479 C 0.26021 0.48238 0.77882 0.0
C1480 C 0.27112 0.49572 0.79413 0.0
C1481 C 0.26478 0.49714 0.81575 0.0
C1482 C 0.24751 0.48527 0.82209 0.0
C1483 C 0.23656 0.47189 0.80686 0.0
H1484 H 0.27324 0.50748 0.82757 0.0
H1485 H 0.1675 0.37983 0.67686 0.0
H1486 H 0.83004 0.27658 0.81588 0.0
H1487 H 0.80499 0.24879 0.80309 0.0
H1488 H 0.81823 0.26462 0.73172 0.0
H1489 H 0.84305 0.29236 0.74429 0.0
H1490 H 0.78415 0.25217 0.73936 0.0
H1491 H 0.82581 0.23365 0.75558 0.0
H1492 H 0.84711 0.23009 0.77926 0.0
H1493 H 0.80709 0.20031 0.82942 0.0
H1494 H 0.78558 0.2039 0.80619 0.0
H1495 H 0.72374 0.17034 0.68875 0.0
H1496 H 0.7514 0.19627 0.69993 0.0
H1497 H 0.7396 0.18223 0.77204 0.0
H1498 H 0.71217 0.1563 0.76106 0.0
H1499 H 0.77356 0.19354 0.76305 0.0
H1500 H 0.7324 0.21314 0.74804 0.0
H1501 H 0.71096 0.21682 0.72482 0.0
H1502 H 0.75009 0.24475 0.67286 0.0
H1503 H 0.77171 0.24103 0.69564 0.0
C1504 C 0.82768 0.27407 0.79747 0.0
C1505 C 0.83852 0.28669 0.78112 0.0
C1506 C 0.8134 0.25817 0.79018 0.0
C1507 C 0.8098 0.25459 0.76642 0.0
C1508 C 0.82073 0.2671 0.75012 0.0
C1509 C 0.83496 0.28295 0.75737 0.0
C1510 C 0.79427 0.23812 0.75846 0.0
C1511 C 0.78199 0.23935 0.74425 0.0
C1512 C 0.79123 0.2214 0.76526 0.0
C1513 C 0.80413 0.2192 0.77925 0.0
C1514 C 0.82158 0.22647 0.77176 0.0
C1515 C 0.83369 0.22442 0.78508 0.0
C1516 C 0.82847 0.21502 0.80586 0.0
C1517 C 0.81112 0.20761 0.81334 0.0
C1518 C 0.79896 0.20963 0.80009 0.0
C1519 C 0.72712 0.17272 0.70696 0.0
C1520 C 0.71571 0.16133 0.72402 0.0
C1521 C 0.74289 0.18756 0.71333 0.0
C1522 C 0.74746 0.19129 0.73685 0.0
C1523 C 0.73634 0.17963 0.75381 0.0
C1524 C 0.72062 0.16484 0.74748 0.0
C1525 C 0.7635 0.20762 0.74396 0.0
C1526 C 0.77582 0.20637 0.75805 0.0
C1527 C 0.76658 0.22435 0.73711 0.0
C1528 C 0.75361 0.22663 0.72341 0.0
C1529 C 0.73639 0.21994 0.73157 0.0
C1530 C 0.72421 0.22206 0.71851 0.0
C1531 C 0.72914 0.23097 0.69735 0.0
C1532 C 0.74628 0.23782 0.68923 0.0
C1533 C 0.7585 0.23572 0.70222 0.0
H1534 H 0.7197 0.23259 0.68726 0.0
H1535 H 0.83786 0.21344 0.81615 0.0
H1536 H 0.46472 0.09349 0.09436 0.0
H1537 H 0.46477 0.09647 0.05238 0.0
H1538 H 0.45332 0.13842 0.05985 0.0
H1539 H 0.45302 0.13534 0.10224 0.0
H1540 H 0.43383 0.11569 0.02524 0.0
H1541 H 0.49428 0.14791 0.04584 0.0
H1542 H 0.52144 0.1532 0.06517 0.0
H1543 H 0.51985 0.11028 0.0278 0.0
H1544 H 0.49252 0.10457 0.00848 0.0
H1545 H 0.45181 0.13417 0.90305 0.0
H1546 H 0.45215 0.13734 0.94538 0.0
H1547 H 0.46482 0.09623 0.95305 0.0
H1548 H 0.46473 0.09317 0.91107 0.0
H1549 H 0.48515 0.12331 0.98022 0.0
H1550 H 0.42318 0.08929 0.96294 0.0
H1551 H 0.39577 0.08361 0.94393 0.0
H1552 H 0.40032 0.12998 0.97504 0.0
H1553 H 0.42791 0.13605 0.994 0.0
C1554 C 0.46221 0.10337 0.08717 0.0
C1555 C 0.45897 0.11426 0.10171 0.0
C1556 C 0.46231 0.1051 0.0631 0.0
C1557 C 0.45934 0.11786 0.05293 0.0
C1558 C 0.45574 0.12854 0.06732 0.0
C1559 C 0.45562 0.1268 0.09153 0.0
C1560 C 0.46004 0.11986 0.02725 0.0
C1561 C 0.44518 0.1177 0.01539 0.0
C1562 C 0.47476 0.12228 0.01435 0.0
C1563 C 0.49128 0.12574 0.02582 0.0
C1564 C 0.49965 0.13952 0.04186 0.0
C1565 C 0.51509 0.14261 0.0528 0.0
C1566 C 0.52235 0.13207 0.04775 0.0
C1567 C 0.51421 0.11844 0.0317 0.0
C1568 C 0.49875 0.11528 0.02072 0.0
C1569 C 0.45464 0.12581 0.91378 0.0
C1570 C 0.45824 0.11342 0.90365 0.0
C1571 C 0.45477 0.12759 0.93798 0.0
C1572 C 0.45842 0.11695 0.95244 0.0
C1573 C 0.46202 0.10462 0.94229 0.0
C1574 C 0.46191 0.10285 0.91823 0.0
C1575 C 0.45875 0.11862 0.97816 0.0
C1576 C 0.47387 0.12152 0.99005 0.0
C1577 C 0.44428 0.11689 0.99102 0.0
C1578 C 0.42771 0.11324 0.97965 0.0
C1579 C 0.41841 0.09835 0.96556 0.0
C1580 C 0.40283 0.09504 0.95483 0.0
C1581 C 0.39634 0.10646 0.95821 0.0
C1582 C 0.40539 0.12117 0.97239 0.0
C1583 C 0.42099 0.12455 0.98315 0.0
H1584 H 0.38427 0.10387 0.9499 0.0
H1585 H 0.5343 0.13447 0.05624 0.0
H1586 H 0.37041 0.46454 0.90941 0.0
H1587 H 0.36719 0.46288 0.95141 0.0
H1588 H 0.31292 0.44855 0.94451 0.0
H1589 H 0.31611 0.45042 0.9021 0.0
H1590 H 0.32911 0.47248 0.97923 0.0
H1591 H 0.3232 0.41752 0.95797 0.0
H1592 H 0.33103 0.39756 0.93824 0.0
H1593 H 0.37985 0.42062 0.97513 0.0
H1594 H 0.37244 0.4409 0.99485 0.0
H1595 H 0.31785 0.45076 0.10136 0.0
H1596 H 0.31412 0.44913 0.05906 0.0
H1597 H 0.36818 0.46307 0.05053 0.0
H1598 H 0.37194 0.46454 0.09246 0.0
H1599 H 0.34725 0.43588 0.02346 0.0
H1600 H 0.35432 0.49275 0.0414 0.0
H1601 H 0.34669 0.51297 0.06083 0.0
H1602 H 0.29544 0.48601 0.03022 0.0
H1603 H 0.3027 0.46548 0.01084 0.0
C1604 C 0.35775 0.46103 0.91673 0.0
C1605 C 0.34348 0.4575 0.90234 0.0
C1606 C 0.35592 0.46002 0.94081 0.0
C1607 C 0.33974 0.4553 0.95114 0.0
C1608 C 0.32551 0.45213 0.93691 0.0
C1609 C 0.32734 0.45316 0.91269 0.0
C1610 C 0.33792 0.45372 0.97682 0.0
C1611 C 0.33274 0.46421 0.98891 0.0
C1612 C 0.34283 0.44308 0.98949 0.0
C1613 C 0.3473 0.43081 0.97778 0.0
C1614 C 0.33566 0.41842 0.96177 0.0
C1615 C 0.34002 0.40703 0.9506 0.0
C1616 C 0.35594 0.40784 0.9554 0.0
C1617 C 0.36752 0.42001 0.97143 0.0
C1618 C 0.36324 0.43144 0.98263 0.0
C1619 C 0.32894 0.45351 0.09044 0.0
C1620 C 0.34519 0.45778 0.10031 0.0
C1621 C 0.3268 0.45263 0.06628 0.0
C1622 C 0.34089 0.45606 0.05159 0.0
C1623 C 0.35709 0.46032 0.06147 0.0
C1624 C 0.35924 0.46121 0.0855 0.0
C1625 C 0.33896 0.45504 0.0259 0.0
C1626 C 0.34339 0.44397 0.0138 0.0
C1627 C 0.33334 0.46513 0.01328 0.0
C1628 C 0.32898 0.47746 0.02491 0.0
C1629 C 0.34137 0.49105 0.03898 0.0
C1630 C 0.33712 0.50258 0.04995 0.0
C1631 C 0.32057 0.50074 0.04683 0.0
C1632 C 0.30824 0.4874 0.03267 0.0
C1633 C 0.31242 0.47582 0.02168 0.0
H1634 H 0.3173 0.50969 0.05533 0.0
H1635 H 0.35929 0.39902 0.94673 0.0
H1636 H 0.91167 0.37092 0.91182 0.0
H1637 H 0.91032 0.36712 0.95376 0.0
H1638 H 0.86465 0.31587 0.9466 0.0
H1639 H 0.86588 0.3196 0.90426 0.0
H1640 H 0.86124 0.33551 0.98201 0.0
H1641 H 0.90247 0.31841 0.959 0.0
H1642 H 0.92823 0.32102 0.93854 0.0
H1643 H 0.96175 0.3684 0.97577 0.0
H1644 H 0.93615 0.36621 0.99622 0.0
H1645 H 0.86823 0.32008 0.10336 0.0
H1646 H 0.86572 0.31663 0.06105 0.0
H1647 H 0.91268 0.36681 0.0529 0.0
H1648 H 0.91535 0.37027 0.09489 0.0
H1649 H 0.91329 0.34287 0.02492 0.0
H1650 H 0.87197 0.36175 0.04444 0.0
H1651 H 0.84634 0.35977 0.06451 0.0
H1652 H 0.81316 0.30938 0.03373 0.0
H1653 H 0.83867 0.31096 0.01371 0.0
C1654 C 0.90131 0.35881 0.91907 0.0
C1655 C 0.88892 0.34553 0.90463 0.0
C1656 C 0.9006 0.35664 0.9431 0.0
C1657 C 0.88751 0.34113 0.95333 0.0
C1658 C 0.87491 0.32792 0.93906 0.0
C1659 C 0.87566 0.33005 0.91489 0.0
C1660 C 0.88714 0.33898 0.97894 0.0
C1661 C 0.87247 0.33675 0.9914 0.0
C1662 C 0.90189 0.34086 0.99122 0.0
C1663 C 0.91736 0.3422 0.97903 0.0
C1664 C 0.91532 0.32945 0.96271 0.0
C1665 C 0.92989 0.33085 0.95113 0.0
C1666 C 0.94661 0.34488 0.95582 0.0
C1667 C 0.94879 0.35753 0.97214 0.0
C1668 C 0.93425 0.35621 0.98376 0.0
C1669 C 0.87802 0.33035 0.09253 0.0
C1670 C 0.89198 0.34546 0.10253 0.0
C1671 C 0.87654 0.32839 0.06835 0.0
C1672 C 0.88896 0.34151 0.05376 0.0
C1673 C 0.90296 0.35649 0.06376 0.0
C1674 C 0.90443 0.35847 0.08783 0.0
C1675 C 0.88758 0.33986 0.02805 0.0
C1676 C 0.90195 0.34136 0.01556 0.0
C1677 C 0.87257 0.33734 0.01579 0.0
C1678 C 0.85725 0.33637 0.02782 0.0
C1679 C 0.85924 0.35018 0.04212 0.0
C1680 C 0.84473 0.34914 0.05345 0.0
C1681 C 0.82814 0.33443 0.05047 0.0
C1682 C 0.82602 0.32075 0.03608 0.0
C1683 C 0.8405 0.32171 0.02472 0.0
H1684 H 0.81693 0.33366 0.05925 0.0
H1685 H 0.95788 0.34594 0.94684 0.0
H1686 H 0.53683 0.90674 0.09776 0.0
H1687 H 0.53661 0.90333 0.05583 0.0
H1688 H 0.55162 0.86396 0.06401 0.0
H1689 H 0.55193 0.86736 0.10636 0.0
H1690 H 0.57017 0.8878 0.02879 0.0
H1691 H 0.51048 0.851 0.05042 0.0
H1692 H 0.48269 0.84312 0.07018 0.0
H1693 H 0.47916 0.88329 0.03254 0.0
H1694 H 0.50708 0.8916 0.01279 0.0
H1695 H 0.5518 0.86726 0.90697 0.0
H1696 H 0.55198 0.8644 0.94933 0.0
H1697 H 0.53561 0.90279 0.95699 0.0
H1698 H 0.53532 0.90565 0.91499 0.0
H1699 H 0.51672 0.8747 0.98449 0.0
H1700 H 0.57783 0.91344 0.96628 0.0
H1701 H 0.60587 0.92182 0.94688 0.0
H1702 H 0.60666 0.87798 0.97812 0.0
H1703 H 0.57847 0.8692 0.99747 0.0
C1704 C 0.54011 0.89735 0.09074 0.0
C1705 C 0.54432 0.88726 0.10547 0.0
C1706 C 0.53992 0.89537 0.06671 0.0
C1707 C 0.54387 0.88323 0.05677 0.0
C1708 C 0.54845 0.87336 0.07133 0.0
C1709 C 0.54857 0.87528 0.0955 0.0
C1710 C 0.54311 0.88099 0.03115 0.0
C1711 C 0.55838 0.88458 0.01909 0.0
C1712 C 0.5278 0.87701 0.01848 0.0
C1713 C 0.51095 0.872 0.03024 0.0
C1714 C 0.50385 0.85825 0.04648 0.0
C1715 C 0.48806 0.85368 0.05766 0.0
C1716 C 0.47918 0.86272 0.05265 0.0
C1717 C 0.48606 0.87631 0.03641 0.0
C1718 C 0.50185 0.88094 0.02519 0.0
C1719 C 0.54825 0.87508 0.91771 0.0
C1720 C 0.54356 0.88669 0.90758 0.0
C1721 C 0.54841 0.87348 0.9419 0.0
C1722 C 0.54387 0.88344 0.95636 0.0
C1723 C 0.53912 0.89494 0.94622 0.0
C1724 C 0.53902 0.89659 0.92215 0.0
C1725 C 0.5439 0.88198 0.98207 0.0
C1726 C 0.52844 0.87766 0.99416 0.0
C1727 C 0.55903 0.88529 0.99471 0.0
C1728 C 0.57594 0.89054 0.98307 0.0
C1729 C 0.5839 0.90549 0.96883 0.0
C1730 C 0.59984 0.91034 0.95789 0.0
C1731 C 0.60801 0.90041 0.9612 0.0
C1732 C 0.60029 0.88564 0.97553 0.0
C1733 C 0.58434 0.88072 0.98649 0.0
H1734 H 0.62035 0.90418 0.95272 0.0
H1735 H 0.46696 0.85916 0.06132 0.0
H1736 H 0.62813 0.5362 0.09419 0.0
H1737 H 0.6314 0.5358 0.05231 0.0
H1738 H 0.68411 0.5455 0.06108 0.0
H1739 H 0.681 0.54616 0.10336 0.0
H1740 H 0.68203 0.5653 0.02598 0.0
H1741 H 0.65176 0.50486 0.04713 0.0
H1742 H 0.62902 0.47814 0.06644 0.0
H1743 H 0.58906 0.48126 0.02771 0.0
H1744 H 0.61154 0.50814 0.00839 0.0
H1745 H 0.68329 0.54677 0.90425 0.0
H1746 H 0.68555 0.5464 0.94666 0.0
H1747 H 0.63212 0.53507 0.95292 0.0
H1748 H 0.62969 0.53515 0.91086 0.0
H1749 H 0.63773 0.51447 0.9808 0.0
H1750 H 0.66768 0.57648 0.96299 0.0
H1751 H 0.69023 0.60352 0.94405 0.0
H1752 H 0.7307 0.59741 0.97653 0.0
H1753 H 0.70836 0.5702 0.99543 0.0
C1754 C 0.64045 0.53825 0.08731 0.0
C1755 C 0.65427 0.54111 0.10218 0.0
C1756 C 0.64227 0.53795 0.0633 0.0
C1757 C 0.6579 0.54033 0.05352 0.0
C1758 C 0.6719 0.54354 0.06825 0.0
C1759 C 0.67009 0.54387 0.09239 0.0
C1760 C 0.65939 0.53944 0.02791 0.0
C1761 C 0.67256 0.55405 0.01611 0.0
C1762 C 0.64691 0.52486 0.01498 0.0
C1763 C 0.63334 0.50859 0.02642 0.0
C1764 C 0.63811 0.49992 0.04284 0.0
C1765 C 0.62527 0.48473 0.05377 0.0
C1766 C 0.6076 0.47802 0.04833 0.0
C1767 C 0.60275 0.48647 0.0319 0.0
C1768 C 0.61554 0.50167 0.02093 0.0
C1769 C 0.67205 0.54422 0.9147 0.0
C1770 C 0.65631 0.54099 0.90415 0.0
C1771 C 0.67337 0.54407 0.93894 0.0
C1772 C 0.65903 0.54081 0.95304 0.0
C1773 C 0.64335 0.53757 0.94246 0.0
C1774 C 0.642 0.53767 0.91835 0.0
C1775 C 0.66004 0.54053 0.9788 0.0
C1776 C 0.64736 0.52564 0.99066 0.0
C1777 C 0.67295 0.55485 0.99172 0.0
C1778 C 0.68636 0.5712 0.98039 0.0
C1779 C 0.68139 0.58083 0.96593 0.0
C1780 C 0.69413 0.5962 0.95524 0.0
C1781 C 0.71189 0.60215 0.95902 0.0
C1782 C 0.71694 0.59277 0.97357 0.0
C1783 C 0.70425 0.57738 0.98429 0.0
H1784 H 0.72174 0.61405 0.95073 0.0
H1785 H 0.59768 0.46627 0.05682 0.0
H1786 H 0.08936 0.63111 0.91313 0.0
H1787 H 0.09121 0.63474 0.95508 0.0
H1788 H 0.13497 0.68718 0.94737 0.0
H1789 H 0.13335 0.68353 0.90505 0.0
H1790 H 0.14065 0.66981 0.98209 0.0
H1791 H 0.0948 0.68093 0.96129 0.0
H1792 H 0.06757 0.6755 0.94202 0.0
H1793 H 0.03849 0.62739 0.9799 0.0
H1794 H 0.0656 0.63241 0.99916 0.0
H1795 H 0.13351 0.68424 0.10402 0.0
H1796 H 0.13518 0.68743 0.06164 0.0
H1797 H 0.0918 0.63472 0.05465 0.0
H1798 H 0.08996 0.63149 0.09668 0.0
H1799 H 0.0876 0.65697 0.02718 0.0
H1800 H 0.13406 0.64462 0.04473 0.0
H1801 H 0.16136 0.64995 0.06374 0.0
H1802 H 0.18927 0.70078 0.03201 0.0
H1803 H 0.16207 0.69583 0.01304 0.0
C1804 C 0.09938 0.64346 0.92027 0.0
C1805 C 0.11115 0.65707 0.90568 0.0
C1806 C 0.10038 0.64554 0.94432 0.0
C1807 C 0.11305 0.66134 0.95442 0.0
C1808 C 0.12503 0.6749 0.93997 0.0
C1809 C 0.12406 0.67281 0.91579 0.0
C1810 C 0.11369 0.66343 0.98009 0.0
C1811 C 0.12915 0.66735 0.99194 0.0
C1812 C 0.09865 0.66003 0.99301 0.0
C1813 C 0.08227 0.657 0.98156 0.0
C1814 C 0.08262 0.66913 0.9654 0.0
C1815 C 0.0672 0.66614 0.95449 0.0
C1816 C 0.05131 0.65109 0.9597 0.0
C1817 C 0.05081 0.63904 0.97587 0.0
C1818 C 0.0662 0.64196 0.98681 0.0
C1819 C 0.12435 0.67334 0.09343 0.0
C1820 C 0.11161 0.65761 0.10376 0.0
C1821 C 0.12536 0.67516 0.06921 0.0
C1822 C 0.11366 0.66128 0.05493 0.0
C1823 C 0.10093 0.64563 0.06527 0.0
C1824 C 0.09995 0.64379 0.08936 0.0
C1825 C 0.11439 0.66286 0.0292 0.0
C1826 C 0.09917 0.65967 0.01733 0.0
C1827 C 0.12966 0.66697 0.01632 0.0
C1828 C 0.146 0.66994 0.0277 0.0
C1829 C 0.14599 0.65699 0.04197 0.0
C1830 C 0.16145 0.65993 0.0527 0.0
C1831 C 0.17703 0.67572 0.04915 0.0
C1832 C 0.17719 0.68858 0.03479 0.0
C1833 C 0.16176 0.68571 0.02403 0.0
H1834 H 0.18899 0.67797 0.05747 0.0
H1835 H 0.03939 0.64879 0.95124 0.0
H1836 H 0.90899 0.53738 0.5941 0.0
H1837 H 0.90577 0.5371 0.55213 0.0
H1838 H 0.86426 0.54917 0.5599 0.0
H1839 H 0.86761 0.54972 0.60221 0.0
H1840 H 0.87906 0.51672 0.52479 0.0
H1841 H 0.86495 0.57318 0.51156 0.0
H1842 H 0.87063 0.6006 0.53066 0.0
H1843 H 0.9174 0.6059 0.56143 0.0
H1844 H 0.91211 0.57866 0.54229 0.0
H1845 H 0.86555 0.54819 0.40319 0.0
H1846 H 0.86252 0.54759 0.4456 0.0
H1847 H 0.90578 0.53807 0.45254 0.0
H1848 H 0.90879 0.53851 0.41052 0.0
H1849 H 0.88547 0.56774 0.48012 0.0
H1850 H 0.89825 0.51005 0.4963 0.0
H1851 H 0.89316 0.48301 0.47677 0.0
H1852 H 0.84966 0.48038 0.43971 0.0
H1853 H 0.85432 0.50726 0.45926 0.0
C1854 C 0.89918 0.54001 0.58696 0.0
C1855 C 0.88858 0.5436 0.60156 0.0
C1856 C 0.89731 0.53979 0.5629 0.0
C1857 C 0.88484 0.5432 0.55277 0.0
C1858 C 0.87413 0.54671 0.56727 0.0
C1859 C 0.87601 0.54696 0.59146 0.0
C1860 C 0.88317 0.54291 0.52704 0.0
C1861 C 0.88058 0.52793 0.51504 0.0
C1862 C 0.88458 0.5573 0.51427 0.0
C1863 C 0.88799 0.57377 0.52573 0.0
C1864 C 0.87646 0.58023 0.52237 0.0
C1865 C 0.87961 0.59573 0.5332 0.0
C1866 C 0.89433 0.60495 0.54733 0.0
C1867 C 0.90596 0.59871 0.55058 0.0
C1868 C 0.90288 0.58322 0.53977 0.0
C1869 C 0.87439 0.54596 0.41378 0.0
C1870 C 0.88735 0.5433 0.40344 0.0
C1871 C 0.87268 0.54566 0.438 0.0
C1872 C 0.88377 0.54255 0.45225 0.0
C1873 C 0.89686 0.54019 0.44193 0.0
C1874 C 0.8986 0.54052 0.41784 0.0
C1875 C 0.88185 0.54173 0.47794 0.0
C1876 C 0.88372 0.55645 0.4899 0.0
C1877 C 0.87981 0.52711 0.49073 0.0
C1878 C 0.87673 0.51076 0.47913 0.0
C1879 C 0.88754 0.50366 0.48408 0.0
C1880 C 0.88474 0.48836 0.47298 0.0
C1881 C 0.87113 0.48001 0.45697 0.0
C1882 C 0.86024 0.4869 0.45206 0.0
C1883 C 0.86297 0.50218 0.46313 0.0
H1884 H 0.86899 0.46818 0.44838 0.0
H1885 H 0.89674 0.61694 0.55571 0.0
H1886 H 0.31916 0.86791 0.60378 0.0
H1887 H 0.31574 0.86603 0.56144 0.0
H1888 H 0.37026 0.90508 0.55359 0.0
H1889 H 0.37372 0.90717 0.59557 0.0
H1890 H 0.35023 0.91228 0.52628 0.0
H1891 H 0.35517 0.86126 0.54409 0.0
H1892 H 0.3466 0.83311 0.56334 0.0
H1893 H 0.29557 0.81032 0.5323 0.0
H1894 H 0.30378 0.83843 0.51309 0.0
H1895 H 0.37293 0.90597 0.41217 0.0
H1896 H 0.3697 0.90428 0.45418 0.0
H1897 H 0.31478 0.86636 0.4471 0.0
H1898 H 0.31795 0.86785 0.40468 0.0
H1899 H 0.33042 0.85738 0.48173 0.0
H1900 H 0.32664 0.90772 0.46079 0.0
H1901 H 0.33549 0.93582 0.44121 0.0
H1902 H 0.38431 0.95993 0.47818 0.0
H1903 H 0.37586 0.93191 0.49775 0.0
C1904 C 0.33042 0.87605 0.593 0.0
C1905 C 0.34671 0.88769 0.60308 0.0
C1906 C 0.32846 0.87492 0.56881 0.0
C1907 C 0.34277 0.88537 0.55429 0.0
C1908 C 0.35901 0.89693 0.56439 0.0
C1909 C 0.36098 0.89807 0.58845 0.0
C1910 C 0.34101 0.88463 0.52858 0.0
C1911 C 0.34601 0.90029 0.51656 0.0
C1912 C 0.33494 0.86888 0.51586 0.0
C1913 C 0.33001 0.852 0.52739 0.0
C1914 C 0.34207 0.85029 0.54154 0.0
C1915 C 0.33729 0.83433 0.5524 0.0
C1916 C 0.32053 0.81995 0.54911 0.0
C1917 C 0.30853 0.82148 0.53488 0.0
C1918 C 0.31324 0.83742 0.52399 0.0
C1919 C 0.36013 0.89723 0.41945 0.0
C1920 C 0.34566 0.88712 0.40501 0.0
C1921 C 0.3583 0.89633 0.44353 0.0
C1922 C 0.34194 0.8854 0.45382 0.0
C1923 C 0.32751 0.87495 0.43953 0.0
C1924 C 0.32933 0.87585 0.41531 0.0
C1925 C 0.34014 0.88513 0.47949 0.0
C1926 C 0.33442 0.86932 0.49149 0.0
C1927 C 0.34555 0.90074 0.49225 0.0
C1928 C 0.35065 0.91767 0.48062 0.0
C1929 C 0.33931 0.91898 0.46463 0.0
C1930 C 0.34425 0.9349 0.45355 0.0
C1931 C 0.36046 0.94964 0.45842 0.0
C1932 C 0.37175 0.9485 0.47442 0.0
C1933 C 0.36689 0.93261 0.48554 0.0
H1934 H 0.36426 0.96195 0.44982 0.0
H1935 H 0.31686 0.80761 0.55753 0.0
H1936 H 0.45276 0.31806 0.60505 0.0
H1937 H 0.45121 0.31443 0.56272 0.0
H1938 H 0.45642 0.36549 0.55474 0.0
H1939 H 0.45789 0.36917 0.59671 0.0
H1940 H 0.43062 0.34147 0.52752 0.0
H1941 H 0.49086 0.35921 0.54533 0.0
H1942 H 0.51444 0.35663 0.56463 0.0
H1943 H 0.49572 0.306 0.53379 0.0
H1944 H 0.47187 0.30818 0.51454 0.0
H1945 H 0.45908 0.36947 0.41422 0.0
H1946 H 0.45709 0.36548 0.45613 0.0
H1947 H 0.45052 0.31389 0.4479 0.0
H1948 H 0.45256 0.31781 0.40558 0.0
H1949 H 0.47405 0.33305 0.48307 0.0
H1950 H 0.41576 0.31701 0.46159 0.0
H1951 H 0.39261 0.32008 0.44192 0.0
H1952 H 0.40763 0.36756 0.47956 0.0
H1953 H 0.43105 0.36492 0.49923 0.0
C1954 C 0.45356 0.32849 0.59425 0.0
C1955 C 0.45547 0.34391 0.60427 0.0
C1956 C 0.45273 0.32642 0.57007 0.0
C1957 C 0.45377 0.33973 0.55554 0.0
C1958 C 0.45554 0.35503 0.56557 0.0
C1959 C 0.45644 0.35713 0.58962 0.0
C1960 C 0.45304 0.33794 0.52985 0.0
C1961 C 0.44017 0.33972 0.51781 0.0
C1962 C 0.46515 0.33509 0.51717 0.0
C1963 C 0.47946 0.33376 0.52875 0.0
C1964 C 0.49167 0.34746 0.54284 0.0
C1965 C 0.50511 0.34608 0.55373 0.0
C1966 C 0.50654 0.33113 0.5505 0.0
C1967 C 0.49457 0.31755 0.53632 0.0
C1968 C 0.4811 0.31885 0.52541 0.0
C1969 C 0.4572 0.35724 0.42123 0.0
C1970 C 0.45591 0.34392 0.4065 0.0
C1971 C 0.456 0.35496 0.44524 0.0
C1972 C 0.45344 0.33931 0.45516 0.0
C1973 C 0.45242 0.32605 0.4406 0.0
C1974 C 0.45354 0.32829 0.41644 0.0
C1975 C 0.45192 0.33706 0.48078 0.0
C1976 C 0.46432 0.33451 0.49279 0.0
C1977 C 0.43938 0.33921 0.49348 0.0
C1978 C 0.42525 0.34082 0.48177 0.0
C1979 C 0.41421 0.32818 0.46556 0.0
C1980 C 0.40102 0.32983 0.45443 0.0
C1981 C 0.39867 0.34403 0.45946 0.0
C1982 C 0.40947 0.35658 0.47568 0.0
C1983 C 0.4227 0.355 0.48684 0.0
H1984 H 0.38845 0.34528 0.45082 0.0
H1985 H 0.51695 0.3301 0.55894 0.0
H1986 H 0.09416 0.46799 0.59371 0.0
H1987 H 0.09643 0.46674 0.55174 0.0
H1988 H 0.13397 0.44932 0.55981 0.0
H1989 H 0.13199 0.45086 0.60216 0.0
H1990 H 0.14358 0.4734 0.52526 0.0
H1991 H 0.09181 0.42015 0.54541 0.0
H1992 H 0.06326 0.40169 0.56436 0.0
H1993 H 0.04121 0.42789 0.52617 0.0
H1994 H 0.06971 0.44668 0.50722 0.0
H1995 H 0.1343 0.45132 0.40338 0.0
H1996 H 0.13563 0.45004 0.44582 0.0
H1997 H 0.09722 0.46654 0.45171 0.0
H1998 H 0.09562 0.46755 0.40962 0.0
H1999 H 0.08907 0.43964 0.4795 0.0
H2000 H 0.14157 0.49459 0.4622 0.0
H2001 H 0.1702 0.51329 0.44353 0.0
H2002 H 0.19082 0.48363 0.47627 0.0
H2003 H 0.16222 0.46462 0.4949 0.0
C2004 C 0.10293 0.4639 0.58664 0.0
C2005 C 0.1128 0.45939 0.60134 0.0
C2006 C 0.10417 0.46313 0.56258 0.0
C2007 C 0.11512 0.45762 0.55257 0.0
C2008 C 0.12535 0.45351 0.56714 0.0
C2009 C 0.12418 0.45436 0.59133 0.0
C2010 C 0.11566 0.45611 0.5269 0.0
C2011 C 0.13171 0.46576 0.51526 0.0
C2012 C 0.10016 0.44629 0.51379 0.0
C2013 C 0.08294 0.43491 0.52501 0.0
C2014 C 0.08091 0.42205 0.54116 0.0
C2015 C 0.06472 0.41152 0.55188 0.0
C2016 C 0.05044 0.41363 0.5465 0.0
C2017 C 0.05229 0.42626 0.53033 0.0
C2018 C 0.06845 0.43685 0.51957 0.0
C2019 C 0.1262 0.45473 0.41375 0.0
C2020 C 0.11484 0.45952 0.40309 0.0
C2021 C 0.12701 0.45405 0.43801 0.0
C2022 C 0.11658 0.45828 0.45201 0.0
C2023 C 0.10535 0.46315 0.44133 0.0
C2024 C 0.10449 0.46377 0.4172 0.0
C2025 C 0.11691 0.45735 0.47779 0.0
C2026 C 0.10099 0.44714 0.48948 0.0
C2027 C 0.13253 0.46663 0.49088 0.0
C2028 C 0.14971 0.47807 0.47972 0.0
C2029 C 0.15217 0.49197 0.46526 0.0
C2030 C 0.16839 0.50264 0.45472 0.0
C2031 C 0.1823 0.49961 0.45865 0.0
C2032 C 0.18002 0.48594 0.4732 0.0
C2033 C 0.16381 0.47522 0.48376 0.0
H2034 H 0.19486 0.50789 0.45048 0.0
H2035 H 0.03792 0.40547 0.55482 0.0
H2036 H 0.68331 0.13561 0.40559 0.0
H2037 H 0.68581 0.13809 0.448 0.0
H2038 H 0.63329 0.09427 0.45461 0.0
H2039 H 0.63063 0.09187 0.41256 0.0
H2040 H 0.63794 0.1202 0.48266 0.0
H2041 H 0.66987 0.0903 0.46406 0.0
H2042 H 0.693 0.08698 0.44472 0.0
H2043 H 0.73246 0.13424 0.47706 0.0
H2044 H 0.70953 0.13796 0.49637 0.0
H2045 H 0.63036 0.08974 0.59625 0.0
H2046 H 0.63324 0.09311 0.5543 0.0
H2047 H 0.6853 0.13745 0.56219 0.0
H2048 H 0.6826 0.13398 0.60453 0.0
H2049 H 0.68382 0.11587 0.52712 0.0
H2050 H 0.65179 0.1441 0.54879 0.0
H2051 H 0.62858 0.14711 0.56843 0.0
H2052 H 0.58931 0.10313 0.53026 0.0
H2053 H 0.61227 0.09969 0.51063 0.0
C2054 C 0.67232 0.1265 0.41611 0.0
C2055 C 0.65677 0.11355 0.40566 0.0
C2056 C 0.67379 0.12789 0.44035 0.0
C2057 C 0.65976 0.1163 0.45454 0.0
C2058 C 0.64427 0.1034 0.44407 0.0
C2059 C 0.6428 0.10201 0.41996 0.0
C2060 C 0.66089 0.11755 0.4803 0.0
C2061 C 0.64791 0.11913 0.49236 0.0
C2062 C 0.67423 0.11676 0.49301 0.0
C2063 C 0.68799 0.11452 0.48143 0.0
C2064 C 0.68348 0.10006 0.46689 0.0
C2065 C 0.69655 0.09809 0.45596 0.0
C2066 C 0.71419 0.11042 0.4596 0.0
C2067 C 0.71879 0.12472 0.47422 0.0
C2068 C 0.70577 0.12676 0.48517 0.0
C2069 C 0.64246 0.10022 0.58915 0.0
C2070 C 0.65621 0.11167 0.6038 0.0
C2071 C 0.64406 0.10217 0.56511 0.0
C2072 C 0.65937 0.11572 0.55506 0.0
C2073 C 0.67332 0.12695 0.56956 0.0
C2074 C 0.67174 0.12498 0.59374 0.0
C2075 C 0.66057 0.118 0.52942 0.0
C2076 C 0.67398 0.11716 0.5174 0.0
C2077 C 0.64763 0.11948 0.51669 0.0
C2078 C 0.63376 0.12157 0.52835 0.0
C2079 C 0.6382 0.135 0.54469 0.0
C2080 C 0.62509 0.13679 0.55581 0.0
C2081 C 0.60748 0.1253 0.55063 0.0
C2082 C 0.60295 0.11202 0.53427 0.0
C2083 C 0.61601 0.11016 0.52312 0.0
H2084 H 0.59735 0.1267 0.55925 0.0
H2085 H 0.72429 0.10888 0.45113 0.0
H2086 H 0.5497 0.6833 0.40598 0.0
H2087 H 0.54964 0.68666 0.44826 0.0
H2088 H 0.5353 0.63249 0.45703 0.0
H2089 H 0.53521 0.62901 0.41512 0.0
H2090 H 0.51555 0.64084 0.48396 0.0
H2091 H 0.57715 0.66556 0.46602 0.0
H2092 H 0.60488 0.68608 0.44655 0.0
H2093 H 0.60323 0.72969 0.47705 0.0
H2094 H 0.57535 0.70941 0.49647 0.0
H2095 H 0.5361 0.63024 0.59738 0.0
H2096 H 0.53556 0.63321 0.55547 0.0
H2097 H 0.54996 0.68746 0.56328 0.0
H2098 H 0.55073 0.68463 0.60562 0.0
H2099 H 0.56831 0.68287 0.52815 0.0
H2100 H 0.5084 0.65787 0.54978 0.0
H2101 H 0.48088 0.63725 0.56957 0.0
H2102 H 0.47911 0.59429 0.53212 0.0
H2103 H 0.50677 0.61461 0.51235 0.0
C2104 C 0.54655 0.67212 0.41695 0.0
C2105 C 0.54247 0.65589 0.40716 0.0
C2106 C 0.54657 0.67408 0.4411 0.0
C2107 C 0.54253 0.65983 0.45584 0.0
C2108 C 0.5384 0.64365 0.44604 0.0
C2109 C 0.53843 0.64171 0.42202 0.0
C2110 C 0.54243 0.6615 0.4815 0.0
C2111 C 0.52712 0.64997 0.49362 0.0
C2112 C 0.55733 0.67381 0.49411 0.0
C2113 C 0.57407 0.68599 0.48245 0.0
C2114 C 0.58263 0.67953 0.4684 0.0
C2115 C 0.59838 0.69112 0.45741 0.0
C2116 C 0.60578 0.70918 0.4605 0.0
C2117 C 0.59746 0.71569 0.47464 0.0
C2118 C 0.58169 0.70416 0.48565 0.0
C2119 C 0.53915 0.64284 0.59029 0.0
C2120 C 0.54337 0.65718 0.60491 0.0
C2121 C 0.53876 0.64449 0.56626 0.0
C2122 C 0.54245 0.66048 0.55621 0.0
C2123 C 0.54698 0.67497 0.57067 0.0
C2124 C 0.54737 0.67332 0.59484 0.0
C2125 C 0.54157 0.66184 0.53058 0.0
C2126 C 0.55665 0.67393 0.51848 0.0
C2127 C 0.52644 0.65005 0.51793 0.0
C2128 C 0.50973 0.63777 0.52968 0.0
C2129 C 0.50221 0.64401 0.54588 0.0
C2130 C 0.48657 0.63238 0.55708 0.0
C2131 C 0.47827 0.61447 0.55213 0.0
C2132 C 0.48556 0.60817 0.53594 0.0
C2133 C 0.50121 0.61974 0.5247 0.0
H2134 H 0.46616 0.60549 0.56083 0.0
H2135 H 0.61798 0.71813 0.45198 0.0
H2136 H 0.50569 0.14259 0.2425 0.0
H2137 H 0.53238 0.14557 0.25975 0.0
H2138 H 0.53903 0.11942 0.20072 0.0
H2139 H 0.51235 0.11633 0.18333 0.0
H2140 H 0.54139 0.10519 0.24135 0.0
H2141 H 0.56588 0.16246 0.2079 0.0
H2142 H 0.56821 0.19108 0.2002 0.0
H2143 H 0.57614 0.2035 0.27278 0.0
H2144 H 0.57361 0.17484 0.28096 0.0
H2145 H 0.63901 0.14638 0.26945 0.0
H2146 H 0.61514 0.1491 0.25231 0.0
H2147 H 0.58042 0.11675 0.30669 0.0
H2148 H 0.6042 0.11386 0.32396 0.0
H2149 H 0.59296 0.16087 0.26703 0.0
H2150 H 0.54135 0.0882 0.28089 0.0
H2151 H 0.54006 0.0598 0.28646 0.0
H2152 H 0.588 0.07859 0.24831 0.0
H2153 H 0.58943 0.10698 0.24222 0.0
C2154 C 0.51293 0.13766 0.23303 0.0
C2155 C 0.50683 0.12916 0.21155 0.0
C2156 C 0.52822 0.13941 0.2429 0.0
C2157 C 0.53768 0.13272 0.23151 0.0
C2158 C 0.53188 0.12463 0.20982 0.0
C2159 C 0.51666 0.12295 0.19987 0.0
C2160 C 0.55309 0.13328 0.24276 0.0
C2161 C 0.55265 0.11738 0.24696 0.0
C2162 C 0.56784 0.14918 0.24993 0.0
C2163 C 0.56938 0.16643 0.24507 0.0
C2164 C 0.56797 0.17123 0.22225 0.0
C2165 C 0.56936 0.18747 0.21779 0.0
C2166 C 0.57228 0.19908 0.23599 0.0
C2167 C 0.57386 0.19449 0.25869 0.0
C2168 C 0.57247 0.17825 0.26325 0.0
C2169 C 0.62637 0.14002 0.27798 0.0
C2170 C 0.62347 0.12974 0.29796 0.0
C2171 C 0.61276 0.14166 0.26819 0.0
C2172 C 0.59598 0.13295 0.27806 0.0
C2173 C 0.59325 0.12342 0.29866 0.0
C2174 C 0.60688 0.12183 0.30854 0.0
C2175 C 0.58109 0.13278 0.26587 0.0
C2176 C 0.58164 0.14871 0.2615 0.0
C2177 C 0.56651 0.11693 0.25824 0.0
C2178 C 0.56558 0.09977 0.26133 0.0
C2179 C 0.55157 0.08623 0.27361 0.0
C2180 C 0.55082 0.07014 0.27686 0.0
C2181 C 0.56398 0.06742 0.26782 0.0
C2182 C 0.57785 0.08074 0.25538 0.0
C2183 C 0.57865 0.09683 0.25204 0.0
H2184 H 0.5634 0.05497 0.2704 0.0
H2185 H 0.57335 0.21165 0.23251 0.0
H2186 H 0.49329 0.63598 0.26954 0.0
H2187 H 0.46637 0.612 0.25312 0.0
H2188 H 0.46357 0.57824 0.30911 0.0
H2189 H 0.49046 0.60211 0.3257 0.0
H2190 H 0.46045 0.56322 0.26675 0.0
H2191 H 0.435 0.59242 0.30732 0.0
H2192 H 0.43152 0.61749 0.31863 0.0
H2193 H 0.42007 0.62369 0.24804 0.0
H2194 H 0.42373 0.5988 0.23623 0.0
H2195 H 0.36258 0.50349 0.24175 0.0
H2196 H 0.38595 0.5297 0.26043 0.0
H2197 H 0.4201 0.53765 0.20252 0.0
H2198 H 0.39686 0.51147 0.18369 0.0
H2199 H 0.40639 0.565 0.24813 0.0
H2200 H 0.4602 0.54849 0.22539 0.0
H2201 H 0.46299 0.52265 0.21608 0.0
H2202 H 0.41653 0.48983 0.25544 0.0
H2203 H 0.41362 0.5155 0.26525 0.0
C2204 C 0.48685 0.62352 0.27854 0.0
C2205 C 0.49409 0.62096 0.29891 0.0
C2206 C 0.47143 0.60985 0.26915 0.0
C2207 C 0.46297 0.59336 0.27991 0.0
C2208 C 0.46992 0.59087 0.30053 0.0
C2209 C 0.48526 0.60456 0.31002 0.0
C2210 C 0.4475 0.57841 0.26894 0.0
C2211 C 0.44864 0.56363 0.26271 0.0
C2212 C 0.43204 0.57888 0.26382 0.0
C2213 C 0.42981 0.59384 0.27086 0.0
C2214 C 0.43189 0.59922 0.29417 0.0
C2215 C 0.42985 0.61338 0.30068 0.0
C2216 C 0.42562 0.6222 0.28406 0.0
C2217 C 0.42337 0.61685 0.26089 0.0
C2218 C 0.42541 0.60271 0.25429 0.0
C2219 C 0.37499 0.51093 0.23282 0.0
C2220 C 0.3779 0.50527 0.21131 0.0
C2221 C 0.3883 0.52594 0.2435 0.0
C2222 C 0.40479 0.53547 0.23298 0.0
C2223 C 0.40749 0.53036 0.21103 0.0
C2224 C 0.39417 0.51541 0.20027 0.0
C2225 C 0.41952 0.55001 0.24565 0.0
C2226 C 0.41825 0.56467 0.25216 0.0
C2227 C 0.43482 0.54938 0.25129 0.0
C2228 C 0.43661 0.53389 0.24583 0.0
C2229 C 0.45063 0.53577 0.23212 0.0
C2230 C 0.45222 0.52115 0.22675 0.0
C2231 C 0.43991 0.5046 0.2351 0.0
C2232 C 0.42602 0.50264 0.24891 0.0
C2233 C 0.42438 0.51722 0.25436 0.0
H2234 H 0.44115 0.4933 0.2309 0.0
H2235 H 0.42404 0.63316 0.28913 0.0
H2236 H 0.85298 0.49196 0.2705 0.0
H2237 H 0.84981 0.46527 0.25309 0.0
H2238 H 0.88945 0.46759 0.29925 0.0
H2239 H 0.8923 0.49398 0.31722 0.0
H2240 H 0.8718 0.46077 0.2292 0.0
H2241 H 0.88407 0.4276 0.30875 0.0
H2242 H 0.8779 0.42408 0.35074 0.0
H2243 H 0.83417 0.43212 0.34059 0.0
H2244 H 0.83992 0.43545 0.29852 0.0
H2245 H 0.8994 0.40197 0.19222 0.0
H2246 H 0.89559 0.42511 0.2096 0.0
H2247 H 0.84817 0.3861 0.24307 0.0
H2248 H 0.85241 0.36295 0.22658 0.0
H2249 H 0.86584 0.40952 0.27271 0.0
H2250 H 0.84859 0.41184 0.19507 0.0
H2251 H 0.85106 0.41363 0.15243 0.0
H2252 H 0.89766 0.46402 0.15756 0.0
H2253 H 0.8956 0.46243 0.20025 0.0
C2254 C 0.86084 0.48665 0.27719 0.0
C2255 C 0.87289 0.49511 0.29527 0.0
C2256 C 0.85906 0.47142 0.26714 0.0
C2257 C 0.86933 0.46434 0.27487 0.0
C2258 C 0.88114 0.47258 0.29323 0.0
C2259 C 0.88279 0.48772 0.30347 0.0
C2260 C 0.86837 0.44893 0.26292 0.0
C2261 C 0.8704 0.44952 0.23871 0.0
C2262 C 0.86619 0.43406 0.27521 0.0
C2263 C 0.86254 0.43193 0.30049 0.0
C2264 C 0.8731 0.42854 0.31546 0.0
C2265 C 0.86968 0.4266 0.33929 0.0
C2266 C 0.85568 0.42793 0.34834 0.0
C2267 C 0.84504 0.43116 0.33357 0.0
C2268 C 0.84839 0.4331 0.30974 0.0
C2269 C 0.88804 0.39833 0.20302 0.0
C2270 C 0.8762 0.38064 0.20801 0.0
C2271 C 0.88582 0.41158 0.21292 0.0
C2272 C 0.87147 0.4074 0.2275 0.0
C2273 C 0.85938 0.3897 0.23197 0.0
C2274 C 0.86177 0.37646 0.22245 0.0
C2275 C 0.86954 0.42147 0.23899 0.0
C2276 C 0.86706 0.42068 0.26314 0.0
C2277 C 0.87076 0.4359 0.22655 0.0
C2278 C 0.87201 0.43695 0.20087 0.0
C2279 C 0.85943 0.42325 0.18711 0.0
C2280 C 0.86075 0.42424 0.16293 0.0
C2281 C 0.87453 0.43891 0.1523 0.0
C2282 C 0.887 0.45265 0.16582 0.0
C2283 C 0.88575 0.45173 0.19001 0.0
H2284 H 0.87553 0.43965 0.13358 0.0
H2285 H 0.85307 0.42643 0.36678 0.0
H2286 H 0.49883 0.86701 0.24832 0.0
H2287 H 0.47134 0.86344 0.26295 0.0
H2288 H 0.45777 0.87187 0.19409 0.0
H2289 H 0.48574 0.8762 0.17946 0.0
H2290 H 0.45151 0.89024 0.22269 0.0
H2291 H 0.43664 0.8304 0.22215 0.0
H2292 H 0.44012 0.80479 0.22989 0.0
H2293 H 0.43964 0.8131 0.30319 0.0
H2294 H 0.43639 0.83892 0.2959 0.0
H2295 H 0.36568 0.86834 0.25722 0.0
H2296 H 0.38876 0.86478 0.23908 0.0
H2297 H 0.41278 0.86971 0.30587 0.0
H2298 H 0.3898 0.87344 0.32425 0.0
H2299 H 0.41172 0.84263 0.276 0.0
H2300 H 0.42879 0.90421 0.27463 0.0
H2301 H 0.42414 0.92894 0.26557 0.0
H2302 H 0.41894 0.91559 0.19327 0.0
H2303 H 0.42331 0.8906 0.20196 0.0
C2304 C 0.48992 0.8679 0.23619 0.0
C2305 C 0.49449 0.8719 0.2127 0.0
C2306 C 0.47411 0.86574 0.24458 0.0
C2307 C 0.46229 0.86711 0.2296 0.0
C2308 C 0.46665 0.87073 0.20601 0.0
C2309 C 0.48262 0.87316 0.19765 0.0
C2310 C 0.44598 0.86593 0.23891 0.0
C2311 C 0.44265 0.8796 0.23395 0.0
C2312 C 0.4345 0.85224 0.25397 0.0
C2313 C 0.43641 0.83669 0.25846 0.0
C2314 C 0.4374 0.82685 0.23992 0.0
C2315 C 0.43931 0.81228 0.24423 0.0
C2316 C 0.44014 0.80735 0.26702 0.0
C2317 C 0.43901 0.81695 0.28555 0.0
C2318 C 0.43711 0.83154 0.28133 0.0
C2319 C 0.37572 0.86844 0.26815 0.0
C2320 C 0.37596 0.87131 0.29219 0.0
C2321 C 0.38891 0.86643 0.25772 0.0
C2322 C 0.40251 0.86713 0.27113 0.0
C2323 C 0.40237 0.86914 0.29525 0.0
C2324 C 0.38927 0.87134 0.30569 0.0
C2325 C 0.41749 0.86693 0.25982 0.0
C2326 C 0.42055 0.85308 0.26448 0.0
C2327 C 0.4286 0.8803 0.24423 0.0
C2328 C 0.42618 0.89543 0.23897 0.0
C2329 C 0.42652 0.90647 0.25682 0.0
C2330 C 0.42396 0.92054 0.25176 0.0
C2331 C 0.42119 0.9238 0.22887 0.0
C2332 C 0.42105 0.91303 0.211 0.0
C2333 C 0.42358 0.89892 0.21598 0.0
H2334 H 0.41921 0.9347 0.22498 0.0
H2335 H 0.44162 0.79606 0.27032 0.0
H2336 H 0.63946 0.49071 0.23426 0.0
H2337 H 0.61712 0.46309 0.25135 0.0
H2338 H 0.57766 0.4648 0.20888 0.0
H2339 H 0.60006 0.49189 0.19099 0.0
H2340 H 0.59152 0.45611 0.27713 0.0
H2341 H 0.54332 0.42562 0.199 0.0
H2342 H 0.54475 0.42351 0.15649 0.0
H2343 H 0.59692 0.43175 0.16192 0.0
H2344 H 0.59573 0.43367 0.20448 0.0
H2345 H 0.50648 0.39898 0.31724 0.0
H2346 H 0.53347 0.42159 0.29948 0.0
H2347 H 0.53739 0.38209 0.25991 0.0
H2348 H 0.50976 0.35949 0.27673 0.0
H2349 H 0.54435 0.40687 0.2329 0.0
H2350 H 0.5657 0.40544 0.3077 0.0
H2351 H 0.56667 0.40538 0.35043 0.0
H2352 H 0.57268 0.45683 0.35199 0.0
H2353 H 0.57151 0.4571 0.30926 0.0
C2354 C 0.62605 0.48503 0.22832 0.0
C2355 C 0.62153 0.49344 0.21121 0.0
C2356 C 0.61327 0.46927 0.23817 0.0
C2357 C 0.59567 0.46169 0.23131 0.0
C2358 C 0.59118 0.47006 0.21409 0.0
C2359 C 0.604 0.48563 0.20393 0.0
C2360 C 0.58184 0.44566 0.24307 0.0
C2361 C 0.58129 0.44528 0.26743 0.0
C2362 C 0.56872 0.43124 0.23054 0.0
C2363 C 0.56947 0.42993 0.20494 0.0
C2364 C 0.55506 0.42689 0.19114 0.0
C2365 C 0.55584 0.42575 0.16703 0.0
C2366 C 0.57093 0.42754 0.15651 0.0
C2367 C 0.58526 0.43042 0.17008 0.0
C2368 C 0.58455 0.43156 0.1942 0.0
C2369 C 0.51321 0.39508 0.30498 0.0
C2370 C 0.50602 0.37746 0.29841 0.0
C2371 C 0.52874 0.40804 0.29489 0.0
C2372 C 0.53772 0.4036 0.27855 0.0
C2373 C 0.53075 0.38591 0.27242 0.0
C2374 C 0.51499 0.37298 0.28211 0.0
C2375 C 0.55378 0.41754 0.26695 0.0
C2376 C 0.55472 0.41755 0.24262 0.0
C2377 C 0.56764 0.43129 0.27953 0.0
C2378 C 0.5684 0.43123 0.30526 0.0
C2379 C 0.56712 0.41669 0.31715 0.0
C2380 C 0.56772 0.41663 0.34138 0.0
C2381 C 0.5697 0.43108 0.35392 0.0
C2382 C 0.57113 0.44564 0.34225 0.0
C2383 C 0.57053 0.44577 0.31803 0.0
H2384 H 0.57016 0.431 0.37267 0.0
H2385 H 0.57151 0.42666 0.13784 0.0
H2386 H 0.12437 0.61133 0.17994 0.0
H2387 H 0.12791 0.5875 0.19565 0.0
H2388 H 0.1329 0.60855 0.26459 0.0
H2389 H 0.13014 0.63275 0.24891 0.0
H2390 H 0.15426 0.59684 0.26092 0.0
H2391 H 0.09348 0.57337 0.24316 0.0
H2392 H 0.06793 0.56668 0.2187 0.0
H2393 H 0.08116 0.53679 0.1726 0.0
H2394 H 0.10693 0.5435 0.19664 0.0
H2395 H 0.12548 0.51625 0.32401 0.0
H2396 H 0.12831 0.543 0.30681 0.0
H2397 H 0.13557 0.52655 0.23933 0.0
H2398 H 0.13302 0.49998 0.25628 0.0
H2399 H 0.10892 0.53585 0.24167 0.0
H2400 H 0.16932 0.55866 0.26319 0.0
H2401 H 0.19343 0.56493 0.29023 0.0
H2402 H 0.17875 0.59551 0.33275 0.0
H2403 H 0.15438 0.58921 0.30612 0.0
C2404 C 0.12638 0.61096 0.19841 0.0
C2405 C 0.12685 0.62388 0.21318 0.0
C2406 C 0.12831 0.59728 0.20741 0.0
C2407 C 0.1303 0.59599 0.2314 0.0
C2408 C 0.13135 0.6092 0.24604 0.0
C2409 C 0.12973 0.62304 0.23703 0.0
C2410 C 0.1307 0.58063 0.24142 0.0
C2411 C 0.14424 0.58351 0.25686 0.0
C2412 C 0.11774 0.56318 0.23602 0.0
C2413 C 0.10224 0.55909 0.22155 0.0
C2414 C 0.09101 0.56547 0.22771 0.0
C2415 C 0.07648 0.56166 0.21394 0.0
C2416 C 0.07295 0.55136 0.19407 0.0
C2417 C 0.08392 0.5448 0.18797 0.0
C2418 C 0.09849 0.54859 0.20167 0.0
C2419 C 0.12789 0.51843 0.30555 0.0
C2420 C 0.12899 0.50595 0.29152 0.0
C2421 C 0.12954 0.53373 0.29578 0.0
C2422 C 0.13215 0.53671 0.27182 0.0
C2423 C 0.13356 0.52446 0.25786 0.0
C2424 C 0.13216 0.50931 0.26762 0.0
C2425 C 0.13243 0.55212 0.26106 0.0
C2426 C 0.11898 0.5492 0.24557 0.0
C2427 C 0.14524 0.56948 0.26679 0.0
C2428 C 0.15992 0.57332 0.28277 0.0
C2429 C 0.17113 0.56659 0.27841 0.0
C2430 C 0.18487 0.57018 0.29364 0.0
C2431 C 0.18759 0.58057 0.31323 0.0
C2432 C 0.17661 0.58744 0.31759 0.0
C2433 C 0.16285 0.58388 0.30242 0.0
H2434 H 0.19823 0.58333 0.325 0.0
H2435 H 0.06169 0.54842 0.18343 0.0
H2436 H 0.49943 0.86476 0.76397 0.0
H2437 H 0.47275 0.86215 0.74742 0.0
H2438 H 0.45905 0.8742 0.81393 0.0
H2439 H 0.48597 0.87713 0.83073 0.0
H2440 H 0.43005 0.84528 0.78651 0.0
H2441 H 0.4763 0.9058 0.78093 0.0
H2442 H 0.506 0.92934 0.7706 0.0
H2443 H 0.49655 0.91334 0.69924 0.0
H2444 H 0.46687 0.88951 0.70923 0.0
H2445 H 0.36893 0.8707 0.7507 0.0
H2446 H 0.39221 0.86729 0.76824 0.0
H2447 H 0.41476 0.87084 0.70062 0.0
H2448 H 0.3918 0.87489 0.68301 0.0
H2449 H 0.43921 0.89092 0.72884 0.0
H2450 H 0.39303 0.83141 0.73267 0.0
H2451 H 0.3636 0.80685 0.74184 0.0
H2452 H 0.37264 0.81922 0.81435 0.0
H2453 H 0.40205 0.84402 0.80559 0.0
C2454 C 0.49067 0.86663 0.77524 0.0
C2455 C 0.49491 0.87129 0.79867 0.0
C2456 C 0.47543 0.86514 0.76571 0.0
C2457 C 0.46404 0.86809 0.77944 0.0
C2458 C 0.46772 0.87187 0.8031 0.0
C2459 C 0.48312 0.8736 0.81262 0.0
C2460 C 0.44903 0.86848 0.76859 0.0
C2461 C 0.43196 0.85534 0.77411 0.0
C2462 C 0.45166 0.88134 0.75195 0.0
C2463 C 0.46944 0.89576 0.74587 0.0
C2464 C 0.48061 0.9072 0.76307 0.0
C2465 C 0.49743 0.92062 0.75727 0.0
C2466 C 0.50318 0.9228 0.73429 0.0
C2467 C 0.49209 0.91161 0.71705 0.0
C2468 C 0.47527 0.89816 0.72277 0.0
C2469 C 0.37871 0.87055 0.73949 0.0
C2470 C 0.37851 0.8731 0.71543 0.0
C2471 C 0.392 0.8685 0.74956 0.0
C2472 C 0.40517 0.86861 0.73576 0.0
C2473 C 0.40475 0.87072 0.71165 0.0
C2474 C 0.39159 0.873 0.70159 0.0
C2475 C 0.41998 0.86764 0.7466 0.0
C2476 C 0.43713 0.88074 0.74114 0.0
C2477 C 0.41737 0.8546 0.76309 0.0
C2478 C 0.39969 0.83968 0.76844 0.0
C2479 C 0.38869 0.82899 0.75056 0.0
C2480 C 0.37202 0.815 0.75569 0.0
C2481 C 0.36624 0.8115 0.77866 0.0
C2482 C 0.37713 0.82196 0.79656 0.0
C2483 C 0.39381 0.83597 0.79152 0.0
H2484 H 0.35333 0.80067 0.78259 0.0
H2485 H 0.5162 0.9332 0.72983 0.0
H2486 H 0.63613 0.50141 0.75732 0.0
H2487 H 0.61247 0.47498 0.7396 0.0
H2488 H 0.58788 0.4575 0.80644 0.0
H2489 H 0.61144 0.48408 0.82441 0.0
H2490 H 0.58813 0.43047 0.77711 0.0
H2491 H 0.57303 0.47619 0.77506 0.0
H2492 H 0.57839 0.50578 0.76593 0.0
H2493 H 0.58288 0.49714 0.69358 0.0
H2494 H 0.57791 0.46757 0.70237 0.0
H2495 H 0.50091 0.36909 0.74768 0.0
H2496 H 0.5283 0.39273 0.76296 0.0
H2497 H 0.54328 0.41481 0.69429 0.0
H2498 H 0.51538 0.39147 0.679 0.0
H2499 H 0.54965 0.43951 0.72286 0.0
H2500 H 0.56303 0.39336 0.72344 0.0
H2501 H 0.55843 0.3639 0.73171 0.0
H2502 H 0.55817 0.37304 0.80481 0.0
H2503 H 0.56253 0.40248 0.79697 0.0
C2504 C 0.62584 0.49186 0.76837 0.0
C2505 C 0.62561 0.49492 0.79229 0.0
C2506 C 0.61232 0.47678 0.75817 0.0
C2507 C 0.59841 0.46439 0.77171 0.0
C2508 C 0.59854 0.46694 0.79574 0.0
C2509 C 0.61196 0.48215 0.80594 0.0
C2510 C 0.58316 0.44941 0.76053 0.0
C2511 C 0.57959 0.43235 0.76539 0.0
C2512 C 0.5724 0.45202 0.74474 0.0
C2513 C 0.5753 0.46975 0.73941 0.0
C2514 C 0.57534 0.48066 0.75723 0.0
C2515 C 0.57827 0.49742 0.75211 0.0
C2516 C 0.581 0.50336 0.72918 0.0
C2517 C 0.58079 0.49253 0.71134 0.0
C2518 C 0.57792 0.47577 0.71638 0.0
C2519 C 0.5101 0.37885 0.73573 0.0
C2520 C 0.50596 0.37838 0.71209 0.0
C2521 C 0.52585 0.39234 0.7445 0.0
C2522 C 0.53806 0.40545 0.72976 0.0
C2523 C 0.5341 0.40484 0.70603 0.0
C2524 C 0.51817 0.39148 0.69729 0.0
C2525 C 0.5544 0.42032 0.7394 0.0
C2526 C 0.55822 0.43746 0.73433 0.0
C2527 C 0.56548 0.41776 0.7548 0.0
C2528 C 0.56297 0.40009 0.7596 0.0
C2529 C 0.56187 0.38905 0.74127 0.0
C2530 C 0.55933 0.37235 0.74588 0.0
C2531 C 0.55797 0.36658 0.76876 0.0
C2532 C 0.55921 0.37752 0.78709 0.0
C2533 C 0.56174 0.39422 0.78257 0.0
H2534 H 0.55598 0.35365 0.7723 0.0
H2535 H 0.58321 0.51632 0.72523 0.0
H2536 H 0.10574 0.60078 0.81731 0.0
H2537 H 0.10954 0.57767 0.79986 0.0
H2538 H 0.15702 0.6167 0.76653 0.0
H2539 H 0.15281 0.63984 0.78312 0.0
H2540 H 0.13912 0.59369 0.73664 0.0
H2541 H 0.15665 0.59032 0.81344 0.0
H2542 H 0.15475 0.58828 0.8561 0.0
H2543 H 0.10765 0.53828 0.85127 0.0
H2544 H 0.10913 0.54012 0.80857 0.0
H2545 H 0.14787 0.50866 0.73558 0.0
H2546 H 0.15251 0.53563 0.75395 0.0
H2547 H 0.11368 0.53612 0.70884 0.0
H2548 H 0.10946 0.50953 0.68984 0.0
H2549 H 0.13197 0.54141 0.77868 0.0
H2550 H 0.12052 0.57655 0.7006 0.0
H2551 H 0.1264 0.58035 0.65855 0.0
H2552 H 0.1689 0.57018 0.66707 0.0
H2553 H 0.16343 0.56655 0.7092 0.0
C2554 C 0.11713 0.60444 0.80656 0.0
C2555 C 0.12896 0.62213 0.80157 0.0
C2556 C 0.11934 0.5912 0.79663 0.0
C2557 C 0.13367 0.59539 0.78199 0.0
C2558 C 0.14582 0.6131 0.77766 0.0
C2559 C 0.14344 0.62633 0.78724 0.0
C2560 C 0.13536 0.58132 0.77007 0.0
C2561 C 0.13766 0.58231 0.74589 0.0
C2562 C 0.13388 0.56663 0.78209 0.0
C2563 C 0.13294 0.56543 0.80779 0.0
C2564 C 0.14582 0.57894 0.82147 0.0
C2565 C 0.14483 0.57781 0.84566 0.0
C2566 C 0.13107 0.56317 0.85639 0.0
C2567 C 0.1183 0.54961 0.84294 0.0
C2568 C 0.11922 0.55068 0.81874 0.0
C2569 C 0.1405 0.51467 0.72933 0.0
C2570 C 0.12831 0.50697 0.71121 0.0
C2571 C 0.14313 0.53005 0.73992 0.0
C2572 C 0.13354 0.53802 0.73275 0.0
C2573 C 0.12153 0.53047 0.71441 0.0
C2574 C 0.11907 0.51521 0.70359 0.0
C2575 C 0.13537 0.55363 0.74522 0.0
C2576 C 0.13364 0.55288 0.76948 0.0
C2577 C 0.13798 0.56882 0.73336 0.0
C2578 C 0.14145 0.57113 0.70804 0.0
C2579 C 0.13117 0.5752 0.69352 0.0
C2580 C 0.13442 0.57731 0.66967 0.0
C2581 C 0.14798 0.57546 0.66014 0.0
C2582 C 0.15836 0.57155 0.67446 0.0
C2583 C 0.15517 0.56944 0.69832 0.0
H2584 H 0.15047 0.57709 0.64167 0.0
H2585 H 0.13033 0.56232 0.87512 0.0
H2586 H 0.60828 0.12141 0.68059 0.0
H2587 H 0.58461 0.12487 0.69737 0.0
H2588 H 0.61025 0.13638 0.76395 0.0
H2589 H 0.63402 0.13323 0.74739 0.0
H2590 H 0.57436 0.10897 0.7639 0.0
H2591 H 0.61071 0.16834 0.73726 0.0
H2592 H 0.6276 0.19117 0.70819 0.0
H2593 H 0.58115 0.17392 0.66721 0.0
H2594 H 0.56402 0.1508 0.69589 0.0
H2595 H 0.51618 0.12679 0.82544 0.0
H2596 H 0.54314 0.13004 0.80872 0.0
H2597 H 0.52417 0.13093 0.74001 0.0
H2598 H 0.49757 0.12843 0.75665 0.0
H2599 H 0.55746 0.15281 0.74116 0.0
H2600 H 0.52122 0.09303 0.76445 0.0
H2601 H 0.50333 0.06869 0.79121 0.0
H2602 H 0.54799 0.08448 0.83536 0.0
H2603 H 0.56609 0.10906 0.80901 0.0
C2604 C 0.60899 0.12489 0.69873 0.0
C2605 C 0.62302 0.127 0.71265 0.0
C2606 C 0.59549 0.1269 0.70826 0.0
C2607 C 0.59573 0.13087 0.73188 0.0
C2608 C 0.60986 0.13331 0.74568 0.0
C2609 C 0.62345 0.13156 0.73613 0.0
C2610 C 0.58077 0.13144 0.74258 0.0
C2611 C 0.57079 0.11871 0.75922 0.0
C2612 C 0.57585 0.1438 0.73584 0.0
C2613 C 0.58612 0.15772 0.71861 0.0
C2614 C 0.60413 0.1693 0.72194 0.0
C2615 C 0.61374 0.18232 0.70556 0.0
C2616 C 0.60547 0.18397 0.68583 0.0
C2617 C 0.58755 0.17262 0.68248 0.0
C2618 C 0.57788 0.15956 0.69881 0.0
C2619 C 0.51784 0.12786 0.80679 0.0
C2620 C 0.50467 0.12721 0.79237 0.0
C2621 C 0.53322 0.12963 0.79723 0.0
C2622 C 0.53554 0.13033 0.77305 0.0
C2623 C 0.52269 0.13036 0.7587 0.0
C2624 C 0.50745 0.12889 0.76825 0.0
C2625 C 0.55098 0.13034 0.76265 0.0
C2626 C 0.56103 0.14311 0.74599 0.0
C2627 C 0.55579 0.11778 0.76903 0.0
C2628 C 0.54496 0.10299 0.78489 0.0
C2629 C 0.52719 0.09138 0.77996 0.0
C2630 C 0.51702 0.07753 0.79504 0.0
C2631 C 0.52451 0.07507 0.81501 0.0
C2632 C 0.5422 0.08642 0.81991 0.0
C2633 C 0.55242 0.10031 0.8049 0.0
H2634 H 0.51661 0.06434 0.82666 0.0
H2635 H 0.61293 0.19406 0.67317 0.0
H2636 H 0.39111 0.51557 0.82553 0.0
H2637 H 0.41508 0.54265 0.80911 0.0
H2638 H 0.3903 0.52875 0.74197 0.0
H2639 H 0.36625 0.50186 0.75816 0.0
H2640 H 0.4258 0.53686 0.74256 0.0
H2641 H 0.39015 0.56071 0.76878 0.0
H2642 H 0.37331 0.56695 0.79757 0.0
H2643 H 0.41951 0.59531 0.83927 0.0
H2644 H 0.43658 0.58902 0.81088 0.0
H2645 H 0.48592 0.61294 0.68251 0.0
H2646 H 0.45849 0.58946 0.69855 0.0
H2647 H 0.47688 0.60833 0.76776 0.0
H2648 H 0.50398 0.63221 0.75181 0.0
H2649 H 0.44375 0.59775 0.76586 0.0
H2650 H 0.47915 0.57311 0.74306 0.0
H2651 H 0.49692 0.56634 0.71653 0.0
H2652 H 0.45261 0.53873 0.67143 0.0
H2653 H 0.43463 0.54554 0.69756 0.0
C2654 C 0.39065 0.51839 0.80734 0.0
C2655 C 0.37679 0.50652 0.79315 0.0
C2656 C 0.40432 0.53388 0.79802 0.0
C2657 C 0.40442 0.53765 0.77434 0.0
C2658 C 0.39043 0.52604 0.76028 0.0
C2659 C 0.37668 0.51071 0.76962 0.0
C2660 C 0.41964 0.5531 0.76386 0.0
C2661 C 0.42959 0.5502 0.74736 0.0
C2662 C 0.42484 0.57042 0.77075 0.0
C2663 C 0.4146 0.57424 0.78781 0.0
C2664 C 0.39669 0.56814 0.7842 0.0
C2665 C 0.3871 0.57172 0.80042 0.0
C2666 C 0.39532 0.58148 0.82027 0.0
C2667 C 0.41315 0.58773 0.8239 0.0
C2668 C 0.42279 0.58418 0.80774 0.0
C2669 C 0.48404 0.61218 0.70113 0.0
C2670 C 0.49719 0.62436 0.71589 0.0
C2671 C 0.46839 0.5987 0.7103 0.0
C2672 C 0.46576 0.59687 0.73442 0.0
C2673 C 0.4786 0.60941 0.74911 0.0
C2674 C 0.49412 0.62305 0.73995 0.0
C2675 C 0.44998 0.58155 0.74442 0.0
C2676 C 0.43994 0.58444 0.76091 0.0
C2677 C 0.44485 0.56414 0.73785 0.0
C2678 C 0.45561 0.56 0.72213 0.0
C2679 C 0.47323 0.5657 0.7274 0.0
C2680 C 0.48333 0.56184 0.71245 0.0
C2681 C 0.47591 0.55216 0.69228 0.0
C2682 C 0.45835 0.54626 0.68704 0.0
C2683 C 0.4482 0.55011 0.70192 0.0
H2684 H 0.48375 0.54918 0.68073 0.0
H2685 H 0.38788 0.58424 0.8328 0.0
H2686 H 0.8603 0.3657 0.76414 0.0
H2687 H 0.85745 0.3895 0.74713 0.0
H2688 H 0.87724 0.41945 0.81006 0.0
H2689 H 0.88031 0.39569 0.82732 0.0
H2690 H 0.84779 0.42072 0.78791 0.0
H2691 H 0.90489 0.42778 0.7699 0.0
H2692 H 0.92392 0.41699 0.75478 0.0
H2693 H 0.89959 0.40869 0.68789 0.0
H2694 H 0.88014 0.41909 0.70279 0.0
H2695 H 0.87652 0.50674 0.74949 0.0
H2696 H 0.87242 0.47966 0.76648 0.0
H2697 H 0.8685 0.45819 0.698 0.0
H2698 H 0.87358 0.48578 0.68085 0.0
H2699 H 0.8879 0.45086 0.72193 0.0
H2700 H 0.83195 0.44444 0.73673 0.0
H2701 H 0.81054 0.45274 0.7502 0.0
H2702 H 0.82944 0.45738 0.81994 0.0
H2703 H 0.85113 0.44934 0.80685 0.0
C2704 C 0.86382 0.37721 0.77457 0.0
C2705 C 0.87071 0.37885 0.79705 0.0
C2706 C 0.86217 0.3908 0.76477 0.0
C2707 C 0.86729 0.40626 0.77727 0.0
C2708 C 0.87324 0.40759 0.80016 0.0
C2709 C 0.87503 0.39404 0.80995 0.0
C2710 C 0.86778 0.42151 0.76576 0.0
C2711 C 0.85665 0.42748 0.77363 0.0
C2712 C 0.87892 0.42984 0.74661 0.0
C2713 C 0.89094 0.42404 0.73752 0.0
C2714 C 0.90352 0.42354 0.75201 0.0
C2715 C 0.91439 0.4175 0.74347 0.0
C2716 C 0.91294 0.41212 0.72039 0.0
C2717 C 0.90067 0.41284 0.70577 0.0
C2718 C 0.88972 0.4188 0.71426 0.0
C2719 C 0.87462 0.4962 0.73801 0.0
C2720 C 0.87533 0.49838 0.71381 0.0
C2721 C 0.87214 0.48063 0.74778 0.0
C2722 C 0.86979 0.46666 0.73359 0.0
C2723 C 0.87025 0.46873 0.70936 0.0
C2724 C 0.87311 0.48449 0.69956 0.0
C2725 C 0.86792 0.45036 0.74407 0.0
C2726 C 0.87887 0.44415 0.73606 0.0
C2727 C 0.85632 0.4416 0.76278 0.0
C2728 C 0.84327 0.44642 0.77076 0.0
C2729 C 0.83163 0.44735 0.75491 0.0
C2730 C 0.81943 0.45199 0.76248 0.0
C2731 C 0.81866 0.45562 0.7859 0.0
C2732 C 0.83006 0.45458 0.80181 0.0
C2733 C 0.8423 0.44996 0.79432 0.0
H2734 H 0.8092 0.45921 0.79173 0.0
H2735 H 0.92132 0.40739 0.71379 0.0
loop_
_geom_bond_atom_site_label_1
_geom_bond_atom_site_label_2
_geom_bond_distance
_geom_bond_site_symmetry_2
_ccdc_geom_bond_type
O0 Cd1 2.223 . S
O0 C8 1.315 . S
Cd1 O0 2.223 . S
Cd1 O4 2.297 . S
Cd1 O5 2.439 . S
Cd1 O11 2.240 . S
Cd2 O3 2.240 . S
Cd2 O10 2.223 . S
Cd2 O12 2.297 . S
Cd2 O13 2.439 . S
O3 Cd2 2.240 . S
O3 C8 1.279 . S
O4 Cd1 2.297 . S
O4 C6 1.247 . S
O5 Cd1 2.439 . S
O5 C6 1.208 . S
C6 O4 1.247 . S
C6 O5 1.208 . S
C7 O12 1.247 . S
C7 O13 1.208 . S
C8 O0 1.315 . S
C8 O3 1.279 . S
C9 O10 1.315 . S
C9 O11 1.279 . S
O10 Cd2 2.223 . S
O10 C9 1.315 . S
O11 Cd1 2.240 . S
O11 C9 1.279 . S
O12 Cd2 2.297 . S
O12 C7 1.247 . S
O13 Cd2 2.439 . S
O13 C7 1.208 . S
O14 Cd15 2.223 . S
O14 C22 1.315 . S
Cd15 O14 2.223 . S
Cd15 O18 2.297 . S
Cd15 O19 2.439 . S
Cd15 O25 2.240 . S
Cd16 O17 2.240 . S
Cd16 O24 2.223 . S
Cd16 O26 2.297 . S
Cd16 O27 2.439 . S
O17 Cd16 2.240 . S
O17 C22 1.279 . S
O18 Cd15 2.297 . S
O18 C20 1.247 . S
O19 Cd15 2.439 . S
O19 C20 1.208 . S
C20 O18 1.247 . S
C20 O19 1.208 . S
C21 O26 1.247 . S
C21 O27 1.208 . S
C22 O14 1.315 . S
C22 O17 1.279 . S
C23 O24 1.315 . S
C23 O25 1.279 . S
O24 Cd16 2.223 . S
O24 C23 1.315 . S
O25 Cd15 2.240 . S
O25 C23 1.279 . S
O26 Cd16 2.297 . S
O26 C21 1.247 . S
O27 Cd16 2.439 . S
O27 C21 1.208 . S
O28 Cd29 2.223 . S
O28 C36 1.315 . S
Cd29 O28 2.223 . S
Cd29 O32 2.297 . S
Cd29 O33 2.439 . S
Cd29 O39 2.240 . S
Cd30 O31 2.240 . S
Cd30 O38 2.223 . S
Cd30 O40 2.297 . S
Cd30 O41 2.439 . S
O31 Cd30 2.240 . S
O31 C36 1.279 . S
O32 Cd29 2.297 . S
O32 C34 1.247 . S
O33 Cd29 2.439 . S
O33 C34 1.208 . S
C34 O32 1.247 . S
C34 O33 1.208 . S
C35 O40 1.247 . S
C35 O41 1.208 . S
C36 O28 1.315 . S
C36 O31 1.279 . S
C37 O38 1.315 . S
C37 O39 1.279 . S
O38 Cd30 2.223 . S
O38 C37 1.315 . S
O39 Cd29 2.240 . S
O39 C37 1.279 . S
O40 Cd30 2.297 . S
O40 C35 1.247 . S
O41 Cd30 2.439 . S
O41 C35 1.208 . S
O42 Cd43 2.223 . S
O42 C50 1.315 . S
Cd43 O42 2.223 . S
Cd43 O46 2.297 . S
Cd43 O47 2.439 . S
Cd43 O53 2.240 . S
Cd44 O45 2.240 . S
Cd44 O52 2.223 . S
Cd44 O54 2.297 . S
Cd44 O55 2.439 . S
O45 Cd44 2.240 . S
O45 C50 1.279 . S
O46 Cd43 2.297 . S
O46 C48 1.247 . S
O47 Cd43 2.439 . S
O47 C48 1.208 . S
C48 O46 1.247 . S
C48 O47 1.208 . S
C49 O54 1.247 . S
C49 O55 1.208 . S
C50 O42 1.315 . S
C50 O45 1.279 . S
C51 O52 1.315 . S
C51 O53 1.279 . S
O52 Cd44 2.223 . S
O52 C51 1.315 . S
O53 Cd43 2.240 . S
O53 C51 1.279 . S
O54 Cd44 2.297 . S
O54 C49 1.247 . S
O55 Cd44 2.439 . S
O55 C49 1.208 . S
O56 Cd57 2.223 . S
O56 C64 1.315 . S
Cd57 O56 2.223 . S
Cd57 O60 2.297 . S
Cd57 O61 2.439 . S
Cd57 O67 2.240 . S
Cd58 O59 2.240 . S
Cd58 O66 2.223 . S
Cd58 O68 2.297 . S
Cd58 O69 2.439 . S
O59 Cd58 2.240 . S
O59 C64 1.279 . S
O60 Cd57 2.297 . S
O60 C62 1.247 . S
O61 Cd57 2.439 . S
O61 C62 1.208 . S
C62 O60 1.247 . S
C62 O61 1.208 . S
C63 O68 1.247 . S
C63 O69 1.208 . S
C64 O56 1.315 . S
C64 O59 1.279 . S
C65 O66 1.315 . S
C65 O67 1.279 . S
O66 Cd58 2.223 . S
O66 C65 1.315 . S
O67 Cd57 2.240 . S
O67 C65 1.279 . S
O68 Cd58 2.297 . S
O68 C63 1.247 . S
O69 Cd58 2.439 . S
O69 C63 1.208 . S
O70 Cd71 2.223 . S
O70 C78 1.315 . S
Cd71 O70 2.223 . S
Cd71 O74 2.297 . S
Cd71 O75 2.439 . S
Cd71 O81 2.240 . S
Cd72 O73 2.240 . S
Cd72 O80 2.223 . S
Cd72 O82 2.297 . S
Cd72 O83 2.439 . S
O73 Cd72 2.240 . S
O73 C78 1.279 . S
O74 Cd71 2.297 . S
O74 C76 1.247 . S
O75 Cd71 2.439 . S
O75 C76 1.208 . S
C76 O74 1.247 . S
C76 O75 1.208 . S
C77 O82 1.247 . S
C77 O83 1.208 . S
C78 O70 1.315 . S
C78 O73 1.279 . S
C79 O80 1.315 . S
C79 O81 1.279 . S
O80 Cd72 2.223 . S
O80 C79 1.315 . S
O81 Cd71 2.240 . S
O81 C79 1.279 . S
O82 Cd72 2.297 . S
O82 C77 1.247 . S
O83 Cd72 2.439 . S
O83 C77 1.208 . S
O84 Cd85 2.223 . S
O84 C92 1.315 . S
Cd85 O84 2.223 . S
Cd85 O88 2.297 . S
Cd85 O89 2.439 . S
Cd85 O95 2.240 . S
Cd86 O87 2.240 . S
Cd86 O94 2.223 . S
Cd86 O96 2.297 . S
Cd86 O97 2.439 . S
O87 Cd86 2.240 . S
O87 C92 1.279 . S
O88 Cd85 2.297 . S
O88 C90 1.247 . S
O89 Cd85 2.439 . S
O89 C90 1.208 . S
C90 O88 1.247 . S
C90 O89 1.208 . S
C91 O96 1.247 . S
C91 O97 1.208 . S
C92 O84 1.315 . S
C92 O87 1.279 . S
C93 O94 1.315 . S
C93 O95 1.279 . S
O94 Cd86 2.223 . S
O94 C93 1.315 . S
O95 Cd85 2.240 . S
O95 C93 1.279 . S
O96 Cd86 2.297 . S
O96 C91 1.247 . S
O97 Cd86 2.439 . S
O97 C91 1.208 . S
O98 Cd99 2.223 . S
O98 C106 1.315 . S
Cd99 O98 2.223 . S
Cd99 O102 2.297 . S
Cd99 O103 2.439 . S
Cd99 O109 2.240 . S
Cd100 O101 2.240 . S
Cd100 O108 2.223 . S
Cd100 O110 2.297 . S
Cd100 O111 2.439 . S
O101 Cd100 2.240 . S
O101 C106 1.279 . S
O102 Cd99 2.297 . S
O102 C104 1.247 . S
O103 Cd99 2.439 . S
O103 C104 1.208 . S
C104 O102 1.247 . S
C104 O103 1.208 . S
C105 O110 1.247 . S
C105 O111 1.208 . S
C106 O98 1.315 . S
C106 O101 1.279 . S
C107 O108 1.315 . S
C107 O109 1.279 . S
O108 Cd100 2.223 . S
O108 C107 1.315 . S
O109 Cd99 2.240 . S
O109 C107 1.279 . S
O110 Cd100 2.297 . S
O110 C105 1.247 . S
O111 Cd100 2.439 . S
O111 C105 1.208 . S
O112 Cd113 2.223 . S
O112 C120 1.315 . S
Cd113 O112 2.223 . S
Cd113 O116 2.297 . S
Cd113 O117 2.439 . S
Cd113 O123 2.240 . S
Cd114 O115 2.240 . S
Cd114 O122 2.223 . S
Cd114 O124 2.297 . S
Cd114 O125 2.439 . S
O115 Cd114 2.240 . S
O115 C120 1.279 . S
O116 Cd113 2.297 . S
O116 C118 1.247 . S
O117 Cd113 2.439 . S
O117 C118 1.208 . S
C118 O116 1.247 . S
C118 O117 1.208 . S
C119 O124 1.247 . S
C119 O125 1.208 . S
C120 O112 1.315 . S
C120 O115 1.279 . S
C121 O122 1.315 . S
C121 O123 1.279 . S
O122 Cd114 2.223 . S
O122 C121 1.315 . S
O123 Cd113 2.240 . S
O123 C121 1.279 . S
O124 Cd114 2.297 . S
O124 C119 1.247 . S
O125 Cd114 2.439 . S
O125 C119 1.208 . S
O126 Cd127 2.223 . S
O126 C134 1.315 . S
Cd127 O126 2.223 . S
Cd127 O130 2.297 . S
Cd127 O131 2.439 . S
Cd127 O137 2.240 . S
Cd128 O129 2.240 . S
Cd128 O136 2.223 . S
Cd128 O138 2.297 . S
Cd128 O139 2.439 . S
O129 Cd128 2.240 . S
O129 C134 1.279 . S
O130 Cd127 2.297 . S
O130 C132 1.247 . S
O131 Cd127 2.439 . S
O131 C132 1.208 . S
C132 O130 1.247 . S
C132 O131 1.208 . S
C133 O138 1.247 . S
C133 O139 1.208 . S
C134 O126 1.315 . S
C134 O129 1.279 . S
C135 O136 1.315 . S
C135 O137 1.279 . S
O136 Cd128 2.223 . S
O136 C135 1.315 . S
O137 Cd127 2.240 . S
O137 C135 1.279 . S
O138 Cd128 2.297 . S
O138 C133 1.247 . S
O139 Cd128 2.439 . S
O139 C133 1.208 . S
O140 Cd141 2.223 . S
O140 C148 1.315 . S
Cd141 O140 2.223 . S
Cd141 O144 2.297 . S
Cd141 O145 2.439 . S
Cd141 O151 2.240 . S
Cd142 O143 2.240 . S
Cd142 O150 2.223 . S
Cd142 O152 2.297 . S
Cd142 O153 2.439 . S
O143 Cd142 2.240 . S
O143 C148 1.279 . S
O144 Cd141 2.297 . S
O144 C146 1.247 . S
O145 Cd141 2.439 . S
O145 C146 1.208 . S
C146 O144 1.247 . S
C146 O145 1.208 . S
C147 O152 1.247 . S
C147 O153 1.208 . S
C148 O140 1.315 . S
C148 O143 1.279 . S
C149 O150 1.315 . S
C149 O151 1.279 . S
O150 Cd142 2.223 . S
O150 C149 1.315 . S
O151 Cd141 2.240 . S
O151 C149 1.279 . S
O152 Cd142 2.297 . S
O152 C147 1.247 . S
O153 Cd142 2.439 . S
O153 C147 1.208 . S
O154 Cd155 2.223 . S
O154 C162 1.315 . S
Cd155 O154 2.223 . S
Cd155 O158 2.297 . S
Cd155 O159 2.439 . S
Cd155 O165 2.240 . S
Cd156 O157 2.240 . S
Cd156 O164 2.223 . S
Cd156 O166 2.297 . S
Cd156 O167 2.439 . S
O157 Cd156 2.240 . S
O157 C162 1.279 . S
O158 Cd155 2.297 . S
O158 C160 1.247 . S
O159 Cd155 2.439 . S
O159 C160 1.208 . S
C160 O158 1.247 . S
C160 O159 1.208 . S
C161 O166 1.247 . S
C161 O167 1.208 . S
C162 O154 1.315 . S
C162 O157 1.279 . S
C163 O164 1.315 . S
C163 O165 1.279 . S
O164 Cd156 2.223 . S
O164 C163 1.315 . S
O165 Cd155 2.240 . S
O165 C163 1.279 . S
O166 Cd156 2.297 . S
O166 C161 1.247 . S
O167 Cd156 2.439 . S
O167 C161 1.208 . S
O168 Cd169 2.223 . S
O168 C176 1.315 . S
Cd169 O168 2.223 . S
Cd169 O172 2.297 . S
Cd169 O173 2.439 . S
Cd169 O179 2.240 . S
Cd170 O171 2.240 . S
Cd170 O178 2.223 . S
Cd170 O180 2.297 . S
Cd170 O181 2.439 . S
O171 Cd170 2.240 . S
O171 C176 1.279 . S
O172 Cd169 2.297 . S
O172 C174 1.247 . S
O173 Cd169 2.439 . S
O173 C174 1.208 . S
C174 O172 1.247 . S
C174 O173 1.208 . S
C175 O180 1.247 . S
C175 O181 1.208 . S
C176 O168 1.315 . S
C176 O171 1.279 . S
C177 O178 1.315 . S
C177 O179 1.279 . S
O178 Cd170 2.223 . S
O178 C177 1.315 . S
O179 Cd169 2.240 . S
O179 C177 1.279 . S
O180 Cd170 2.297 . S
O180 C175 1.247 . S
O181 Cd170 2.439 . S
O181 C175 1.208 . S
O182 Cd183 2.223 . S
O182 C190 1.315 . S
Cd183 O182 2.223 . S
Cd183 O186 2.297 . S
Cd183 O187 2.439 . S
Cd183 O193 2.240 . S
Cd184 O185 2.240 . S
Cd184 O192 2.223 . S
Cd184 O194 2.297 . S
Cd184 O195 2.439 . S
O185 Cd184 2.240 . S
O185 C190 1.279 . S
O186 Cd183 2.297 . S
O186 C188 1.247 . S
O187 Cd183 2.439 . S
O187 C188 1.208 . S
C188 O186 1.247 . S
C188 O187 1.208 . S
C189 O194 1.247 . S
C189 O195 1.208 . S
C190 O182 1.315 . S
C190 O185 1.279 . S
C191 O192 1.315 . S
C191 O193 1.279 . S
O192 Cd184 2.223 . S
O192 C191 1.315 . S
O193 Cd183 2.240 . S
O193 C191 1.279 . S
O194 Cd184 2.297 . S
O194 C189 1.247 . S
O195 Cd184 2.439 . S
O195 C189 1.208 . S
O196 Cd197 2.223 . S
O196 C204 1.315 . S
Cd197 O196 2.223 . S
Cd197 O200 2.297 . S
Cd197 O201 2.439 . S
Cd197 O207 2.240 . S
Cd198 O199 2.240 . S
Cd198 O206 2.223 . S
Cd198 O208 2.297 . S
Cd198 O209 2.439 . S
O199 Cd198 2.240 . S
O199 C204 1.279 . S
O200 Cd197 2.297 . S
O200 C202 1.247 . S
O201 Cd197 2.439 . S
O201 C202 1.208 . S
C202 O200 1.247 . S
C202 O201 1.208 . S
C203 O208 1.247 . S
C203 O209 1.208 . S
C204 O196 1.315 . S
C204 O199 1.279 . S
C205 O206 1.315 . S
C205 O207 1.279 . S
O206 Cd198 2.223 . S
O206 C205 1.315 . S
O207 Cd197 2.240 . S
O207 C205 1.279 . S
O208 Cd198 2.297 . S
O208 C203 1.247 . S
O209 Cd198 2.439 . S
O209 C203 1.208 . S
O210 Cd211 2.223 . S
O210 C218 1.315 . S
Cd211 O210 2.223 . S
Cd211 O214 2.297 . S
Cd211 O215 2.439 . S
Cd211 O221 2.240 . S
Cd212 O213 2.240 . S
Cd212 O220 2.223 . S
Cd212 O222 2.297 . S
Cd212 O223 2.439 . S
O213 Cd212 2.240 . S
O213 C218 1.279 . S
O214 Cd211 2.297 . S
O214 C216 1.247 . S
O215 Cd211 2.439 . S
O215 C216 1.208 . S
C216 O214 1.247 . S
C216 O215 1.208 . S
C217 O222 1.247 . S
C217 O223 1.208 . S
C218 O210 1.315 . S
C218 O213 1.279 . S
C219 O220 1.315 . S
C219 O221 1.279 . S
O220 Cd212 2.223 . S
O220 C219 1.315 . S
O221 Cd211 2.240 . S
O221 C219 1.279 . S
O222 Cd212 2.297 . S
O222 C217 1.247 . S
O223 Cd212 2.439 . S
O223 C217 1.208 . S
O224 Cd225 2.223 . S
O224 C232 1.315 . S
Cd225 O224 2.223 . S
Cd225 O228 2.297 . S
Cd225 O229 2.439 . S
Cd225 O235 2.240 . S
Cd226 O227 2.240 . S
Cd226 O234 2.223 . S
Cd226 O236 2.297 . S
Cd226 O237 2.439 . S
O227 Cd226 2.240 . S
O227 C232 1.279 . S
O228 Cd225 2.297 . S
O228 C230 1.247 . S
O229 Cd225 2.439 . S
O229 C230 1.208 . S
C230 O228 1.247 . S
C230 O229 1.208 . S
C231 O236 1.247 . S
C231 O237 1.208 . S
C232 O224 1.315 . S
C232 O227 1.279 . S
C233 O234 1.315 . S
C233 O235 1.279 . S
O234 Cd226 2.223 . S
O234 C233 1.315 . S
O235 Cd225 2.240 . S
O235 C233 1.279 . S
O236 Cd226 2.297 . S
O236 C231 1.247 . S
O237 Cd226 2.439 . S
O237 C231 1.208 . S
O238 Cd239 2.223 . S
O238 C246 1.315 . S
Cd239 O238 2.223 . S
Cd239 O242 2.297 . S
Cd239 O243 2.439 . S
Cd239 O249 2.240 . S
Cd240 O241 2.240 . S
Cd240 O248 2.223 . S
Cd240 O250 2.297 . S
Cd240 O251 2.439 . S
O241 Cd240 2.240 . S
O241 C246 1.279 . S
O242 Cd239 2.297 . S
O242 C244 1.247 . S
O243 Cd239 2.439 . S
O243 C244 1.208 . S
C244 O242 1.247 . S
C244 O243 1.208 . S
C245 O250 1.247 . S
C245 O251 1.208 . S
C246 O238 1.315 . S
C246 O241 1.279 . S
C247 O248 1.315 . S
C247 O249 1.279 . S
O248 Cd240 2.223 . S
O248 C247 1.315 . S
O249 Cd239 2.240 . S
O249 C247 1.279 . S
O250 Cd240 2.297 . S
O250 C245 1.247 . S
O251 Cd240 2.439 . S
O251 C245 1.208 . S
O252 Cd253 2.223 . S
O252 C260 1.315 . S
Cd253 O252 2.223 . S
Cd253 O256 2.297 . S
Cd253 O257 2.439 . S
Cd253 O263 2.240 . S
Cd254 O255 2.240 . S
Cd254 O262 2.223 . S
Cd254 O264 2.297 . S
Cd254 O265 2.439 . S
O255 Cd254 2.240 . S
O255 C260 1.279 . S
O256 Cd253 2.297 . S
O256 C258 1.247 . S
O257 Cd253 2.439 . S
O257 C258 1.208 . S
C258 O256 1.247 . S
C258 O257 1.208 . S
C259 O264 1.247 . S
C259 O265 1.208 . S
C260 O252 1.315 . S
C260 O255 1.279 . S
C261 O262 1.315 . S
C261 O263 1.279 . S
O262 Cd254 2.223 . S
O262 C261 1.315 . S
O263 Cd253 2.240 . S
O263 C261 1.279 . S
O264 Cd254 2.297 . S
O264 C259 1.247 . S
O265 Cd254 2.439 . S
O265 C259 1.208 . S
O266 Cd267 2.223 . S
O266 C274 1.315 . S
Cd267 O266 2.223 . S
Cd267 O270 2.297 . S
Cd267 O271 2.439 . S
Cd267 O277 2.240 . S
Cd268 O269 2.240 . S
Cd268 O276 2.223 . S
Cd268 O278 2.297 . S
Cd268 O279 2.439 . S
O269 Cd268 2.240 . S
O269 C274 1.279 . S
O270 Cd267 2.297 . S
O270 C272 1.247 . S
O271 Cd267 2.439 . S
O271 C272 1.208 . S
C272 O270 1.247 . S
C272 O271 1.208 . S
C273 O278 1.247 . S
C273 O279 1.208 . S
C274 O266 1.315 . S
C274 O269 1.279 . S
C275 O276 1.315 . S
C275 O277 1.279 . S
O276 Cd268 2.223 . S
O276 C275 1.315 . S
O277 Cd267 2.240 . S
O277 C275 1.279 . S
O278 Cd268 2.297 . S
O278 C273 1.247 . S
O279 Cd268 2.439 . S
O279 C273 1.208 . S
O280 Cd281 2.223 . S
O280 C288 1.315 . S
Cd281 O280 2.223 . S
Cd281 O284 2.297 . S
Cd281 O285 2.439 . S
Cd281 O291 2.240 . S
Cd282 O283 2.240 . S
Cd282 O290 2.223 . S
Cd282 O292 2.297 . S
Cd282 O293 2.439 . S
O283 Cd282 2.240 . S
O283 C288 1.279 . S
O284 Cd281 2.297 . S
O284 C286 1.247 . S
O285 Cd281 2.439 . S
O285 C286 1.208 . S
C286 O284 1.247 . S
C286 O285 1.208 . S
C287 O292 1.247 . S
C287 O293 1.208 . S
C288 O280 1.315 . S
C288 O283 1.279 . S
C289 O290 1.315 . S
C289 O291 1.279 . S
O290 Cd282 2.223 . S
O290 C289 1.315 . S
O291 Cd281 2.240 . S
O291 C289 1.279 . S
O292 Cd282 2.297 . S
O292 C287 1.247 . S
O293 Cd282 2.439 . S
O293 C287 1.208 . S
O294 Cd295 2.223 . S
O294 C302 1.315 . S
Cd295 O294 2.223 . S
Cd295 O298 2.297 . S
Cd295 O299 2.439 . S
Cd295 O305 2.240 . S
Cd296 O297 2.240 . S
Cd296 O304 2.223 . S
Cd296 O306 2.297 . S
Cd296 O307 2.439 . S
O297 Cd296 2.240 . S
O297 C302 1.279 . S
O298 Cd295 2.297 . S
O298 C300 1.247 . S
O299 Cd295 2.439 . S
O299 C300 1.208 . S
C300 O298 1.247 . S
C300 O299 1.208 . S
C301 O306 1.247 . S
C301 O307 1.208 . S
C302 O294 1.315 . S
C302 O297 1.279 . S
C303 O304 1.315 . S
C303 O305 1.279 . S
O304 Cd296 2.223 . S
O304 C303 1.315 . S
O305 Cd295 2.240 . S
O305 C303 1.279 . S
O306 Cd296 2.297 . S
O306 C301 1.247 . S
O307 Cd296 2.439 . S
O307 C301 1.208 . S
O308 Cd309 2.223 . S
O308 C316 1.315 . S
Cd309 O308 2.223 . S
Cd309 O312 2.297 . S
Cd309 O313 2.439 . S
Cd309 O319 2.240 . S
Cd310 O311 2.240 . S
Cd310 O318 2.223 . S
Cd310 O320 2.297 . S
Cd310 O321 2.439 . S
O311 Cd310 2.240 . S
O311 C316 1.279 . S
O312 Cd309 2.297 . S
O312 C314 1.247 . S
O313 Cd309 2.439 . S
O313 C314 1.208 . S
C314 O312 1.247 . S
C314 O313 1.208 . S
C315 O320 1.247 . S
C315 O321 1.208 . S
C316 O308 1.315 . S
C316 O311 1.279 . S
C317 O318 1.315 . S
C317 O319 1.279 . S
O318 Cd310 2.223 . S
O318 C317 1.315 . S
O319 Cd309 2.240 . S
O319 C317 1.279 . S
O320 Cd310 2.297 . S
O320 C315 1.247 . S
O321 Cd310 2.439 . S
O321 C315 1.208 . S
O322 Cd323 2.223 . S
O322 C330 1.315 . S
Cd323 O322 2.223 . S
Cd323 O326 2.297 . S
Cd323 O327 2.439 . S
Cd323 O333 2.240 . S
Cd324 O325 2.240 . S
Cd324 O332 2.223 . S
Cd324 O334 2.297 . S
Cd324 O335 2.439 . S
O325 Cd324 2.240 . S
O325 C330 1.279 . S
O326 Cd323 2.297 . S
O326 C328 1.247 . S
O327 Cd323 2.439 . S
O327 C328 1.208 . S
C328 O326 1.247 . S
C328 O327 1.208 . S
C329 O334 1.247 . S
C329 O335 1.208 . S
C330 O322 1.315 . S
C330 O325 1.279 . S
C331 O332 1.315 . S
C331 O333 1.279 . S
O332 Cd324 2.223 . S
O332 C331 1.315 . S
O333 Cd323 2.240 . S
O333 C331 1.279 . S
O334 Cd324 2.297 . S
O334 C329 1.247 . S
O335 Cd324 2.439 . S
O335 C329 1.208 . S
H336 C354 0.951 . S
H337 C356 0.951 . S
H338 C358 0.950 . S
H339 C359 0.950 . S
H340 C361 0.950 . S
H341 C364 0.950 . S
H342 C365 0.950 . S
H343 C367 0.950 . S
H344 C368 0.950 . S
H345 C369 0.951 . S
H346 C371 0.951 . S
H347 C373 0.950 . S
H348 C374 0.950 . S
H349 C376 0.950 . S
H350 C379 0.950 . S
H351 C380 0.950 . S
H352 C382 0.950 . S
H353 C383 0.950 . S
C354 H336 0.951 . S
C354 C355 1.366 . S
C354 C356 1.388 . S
C355 C354 1.366 . S
C355 C359 1.385 . S
C356 H337 0.951 . S
C356 C354 1.388 . S
C356 C357 1.366 . S
C357 C356 1.366 . S
C357 C358 1.414 . S
C357 C360 1.499 . S
C358 H338 0.950 . S
C358 C357 1.414 . S
C358 C359 1.374 . S
C359 H339 0.950 . S
C359 C355 1.385 . S
C359 C358 1.374 . S
C360 C357 1.499 . S
C360 C361 1.373 . S
C360 C362 1.389 . S
C361 H340 0.950 . S
C361 C360 1.373 . S
C361 C377 1.377 1_545 S
C362 C360 1.389 . S
C362 C363 1.524 . S
C362 C376 1.377 1_545 S
C363 C362 1.524 . S
C363 C364 1.397 . S
C363 C368 1.363 . S
C364 H341 0.950 . S
C364 C363 1.397 . S
C364 C365 1.334 . S
C365 H342 0.950 . S
C365 C364 1.334 . S
C365 C366 1.287 . S
C366 C365 1.287 . S
C366 C367 1.524 . S
C366 H385 0.913 . S
C367 H343 0.950 . S
C367 C366 1.524 . S
C367 C368 1.415 . S
C368 H344 0.950 . S
C368 C363 1.363 . S
C368 C367 1.415 . S
C369 H345 0.951 . S
C369 C370 1.366 . S
C369 C371 1.388 . S
C370 C369 1.366 . S
C370 C374 1.385 . S
C371 H346 0.951 . S
C371 C369 1.388 . S
C371 C372 1.366 . S
C372 C371 1.366 . S
C372 C373 1.414 . S
C372 C375 1.499 . S
C373 H347 0.950 . S
C373 C372 1.414 . S
C373 C374 1.374 . S
C374 H348 0.950 . S
C374 C370 1.385 . S
C374 C373 1.374 . S
C375 C372 1.499 . S
C375 C376 1.373 . S
C375 C377 1.389 . S
C376 H349 0.950 . S
C376 C362 1.377 1_565 S
C376 C375 1.373 . S
C377 C361 1.377 1_565 S
C377 C375 1.389 . S
C377 C378 1.524 . S
C378 C377 1.524 . S
C378 C379 1.397 . S
C378 C383 1.363 . S
C379 H350 0.950 . S
C379 C378 1.397 . S
C379 C380 1.334 . S
C380 H351 0.950 . S
C380 C379 1.334 . S
C380 C381 1.287 . S
C381 C380 1.287 . S
C381 C382 1.524 . S
C381 H384 0.999 . S
C382 H352 0.950 . S
C382 C381 1.524 . S
C382 C383 1.415 . S
C383 H353 0.950 . S
C383 C378 1.363 . S
C383 C382 1.415 . S
H384 C381 0.999 . S
H385 C366 0.913 . S
H386 C404 0.951 . S
H387 C406 0.951 . S
H388 C408 0.950 . S
H389 C409 0.950 . S
H390 C411 0.950 . S
H391 C414 0.950 . S
H392 C415 0.950 . S
H393 C417 0.950 . S
H394 C418 0.950 . S
H395 C419 0.951 . S
H396 C421 0.951 . S
H397 C423 0.950 . S
H398 C424 0.950 . S
H399 C426 0.950 . S
H400 C429 0.950 . S
H401 C430 0.950 . S
H402 C432 0.950 . S
H403 C433 0.950 . S
C404 H386 0.951 . S
C404 C405 1.366 . S
C404 C406 1.388 . S
C405 C404 1.366 . S
C405 C409 1.385 . S
C406 H387 0.951 . S
C406 C404 1.388 . S
C406 C407 1.366 . S
C407 C406 1.366 . S
C407 C408 1.414 . S
C407 C410 1.499 . S
C408 H388 0.950 . S
C408 C407 1.414 . S
C408 C409 1.374 . S
C409 H389 0.950 . S
C409 C405 1.385 . S
C409 C408 1.374 . S
C410 C407 1.499 . S
C410 C411 1.373 . S
C410 C412 1.389 . S
C411 H390 0.950 . S
C411 C410 1.373 . S
C411 C427 1.377 . S
C412 C410 1.389 . S
C412 C413 1.524 . S
C412 C426 1.377 . S
C413 C412 1.524 . S
C413 C414 1.397 . S
C413 C418 1.363 . S
C414 H391 0.950 . S
C414 C413 1.397 . S
C414 C415 1.334 . S
C415 H392 0.950 . S
C415 C414 1.334 . S
C415 C416 1.287 . S
C416 C415 1.287 . S
C416 C417 1.524 . S
C416 H435 0.913 . S
C417 H393 0.950 . S
C417 C416 1.524 . S
C417 C418 1.415 . S
C418 H394 0.950 . S
C418 C413 1.363 . S
C418 C417 1.415 . S
C419 H395 0.951 . S
C419 C420 1.366 . S
C419 C421 1.388 . S
C420 C419 1.366 . S
C420 C424 1.385 . S
C421 H396 0.951 . S
C421 C419 1.388 . S
C421 C422 1.366 . S
C422 C421 1.366 . S
C422 C423 1.414 . S
C422 C425 1.499 . S
C423 H397 0.950 . S
C423 C422 1.414 . S
C423 C424 1.374 . S
C424 H398 0.950 . S
C424 C420 1.385 . S
C424 C423 1.374 . S
C425 C422 1.499 . S
C425 C426 1.373 . S
C425 C427 1.389 . S
C426 H399 0.950 . S
C426 C412 1.377 . S
C426 C425 1.373 . S
C427 C411 1.377 . S
C427 C425 1.389 . S
C427 C428 1.524 . S
C428 C427 1.524 . S
C428 C429 1.397 . S
C428 C433 1.363 . S
C429 H400 0.950 . S
C429 C428 1.397 . S
C429 C430 1.334 . S
C430 H401 0.950 . S
C430 C429 1.334 . S
C430 C431 1.287 . S
C431 C430 1.287 . S
C431 C432 1.524 . S
C431 H434 0.999 . S
C432 H402 0.950 . S
C432 C431 1.524 . S
C432 C433 1.415 . S
C433 H403 0.950 . S
C433 C428 1.363 . S
C433 C432 1.415 . S
H434 C431 0.999 . S
H435 C416 0.913 . S
H436 C454 0.951 . S
H437 C456 0.951 . S
H438 C458 0.950 . S
H439 C459 0.950 . S
H440 C461 0.950 . S
H441 C464 0.950 . S
H442 C465 0.950 . S
H443 C467 0.950 . S
H444 C468 0.950 . S
H445 C469 0.951 . S
H446 C471 0.951 . S
H447 C473 0.950 . S
H448 C474 0.950 . S
H449 C476 0.950 . S
H450 C479 0.950 . S
H451 C480 0.950 . S
H452 C482 0.950 . S
H453 C483 0.950 . S
C454 H436 0.951 . S
C454 C455 1.366 . S
C454 C456 1.388 . S
C455 C454 1.366 . S
C455 C459 1.385 . S
C456 H437 0.951 . S
C456 C454 1.388 . S
C456 C457 1.366 . S
C457 C456 1.366 . S
C457 C458 1.414 . S
C457 C460 1.499 . S
C458 H438 0.950 . S
C458 C457 1.414 . S
C458 C459 1.374 . S
C459 H439 0.950 . S
C459 C455 1.385 . S
C459 C458 1.374 . S
C460 C457 1.499 . S
C460 C461 1.373 . S
C460 C462 1.389 . S
C461 H440 0.950 . S
C461 C460 1.373 . S
C461 C477 1.377 1_655 S
C462 C460 1.389 . S
C462 C463 1.524 . S
C462 C476 1.377 1_655 S
C463 C462 1.524 . S
C463 C464 1.397 . S
C463 C468 1.363 . S
C464 H441 0.950 . S
C464 C463 1.397 . S
C464 C465 1.334 . S
C465 H442 0.950 . S
C465 C464 1.334 . S
C465 C466 1.287 . S
C466 C465 1.287 . S
C466 C467 1.524 . S
C466 H485 0.913 . S
C467 H443 0.950 . S
C467 C466 1.524 . S
C467 C468 1.415 . S
C468 H444 0.950 . S
C468 C463 1.363 . S
C468 C467 1.415 . S
C469 H445 0.951 . S
C469 C470 1.366 . S
C469 C471 1.388 . S
C470 C469 1.366 . S
C470 C474 1.385 . S
C471 H446 0.951 . S
C471 C469 1.388 . S
C471 C472 1.366 . S
C472 C471 1.366 . S
C472 C473 1.414 . S
C472 C475 1.499 . S
C473 H447 0.950 . S
C473 C472 1.414 . S
C473 C474 1.374 . S
C474 H448 0.950 . S
C474 C470 1.385 . S
C474 C473 1.374 . S
C475 C472 1.499 . S
C475 C476 1.373 . S
C475 C477 1.389 . S
C476 H449 0.950 . S
C476 C462 1.377 1_455 S
C476 C475 1.373 . S
C477 C461 1.377 1_455 S
C477 C475 1.389 . S
C477 C478 1.524 . S
C478 C477 1.524 . S
C478 C479 1.397 . S
C478 C483 1.363 . S
C479 H450 0.950 . S
C479 C478 1.397 . S
C479 C480 1.334 . S
C480 H451 0.950 . S
C480 C479 1.334 . S
C480 C481 1.287 . S
C481 C480 1.287 . S
C481 C482 1.524 . S
C481 H484 0.999 . S
C482 H452 0.950 . S
C482 C481 1.524 . S
C482 C483 1.415 . S
C483 H453 0.950 . S
C483 C478 1.363 . S
C483 C482 1.415 . S
H484 C481 0.999 . S
H485 C466 0.913 . S
H486 C504 0.951 . S
H487 C506 0.951 . S
H488 C508 0.950 . S
H489 C509 0.950 . S
H490 C511 0.950 . S
H491 C514 0.950 . S
H492 C515 0.950 . S
H493 C517 0.950 . S
H494 C518 0.950 . S
H495 C519 0.951 . S
H496 C521 0.951 . S
H497 C523 0.950 . S
H498 C524 0.950 . S
H499 C526 0.950 . S
H500 C529 0.950 . S
H501 C530 0.950 . S
H502 C532 0.950 . S
H503 C533 0.950 . S
C504 H486 0.951 . S
C504 C505 1.366 . S
C504 C506 1.388 . S
C505 C504 1.366 . S
C505 C509 1.385 . S
C506 H487 0.951 . S
C506 C504 1.388 . S
C506 C507 1.366 . S
C507 C506 1.366 . S
C507 C508 1.414 . S
C507 C510 1.499 . S
C508 H488 0.950 . S
C508 C507 1.414 . S
C508 C509 1.374 . S
C509 H489 0.950 . S
C509 C505 1.385 . S
C509 C508 1.374 . S
C510 C507 1.499 . S
C510 C511 1.373 . S
C510 C512 1.389 . S
C511 H490 0.950 . S
C511 C510 1.373 . S
C511 C527 1.377 1_565 S
C512 C510 1.389 . S
C512 C513 1.524 . S
C512 C526 1.377 1_565 S
C513 C512 1.524 . S
C513 C514 1.397 . S
C513 C518 1.363 1_565 S
C514 H491 0.950 . S
C514 C513 1.397 . S
C514 C515 1.334 . S
C515 H492 0.950 . S
C515 C514 1.334 . S
C515 C516 1.287 . S
C516 C515 1.287 . S
C516 C517 1.524 1_565 S
C516 H535 0.913 . S
C517 H493 0.950 . S
C517 C516 1.524 1_545 S
C517 C518 1.415 . S
C518 H494 0.950 . S
C518 C513 1.363 1_545 S
C518 C517 1.415 . S
C519 H495 0.951 . S
C519 C520 1.366 . S
C519 C521 1.388 . S
C520 C519 1.366 . S
C520 C524 1.385 . S
C521 H496 0.951 . S
C521 C519 1.388 . S
C521 C522 1.366 . S
C522 C521 1.366 . S
C522 C523 1.414 . S
C522 C525 1.499 . S
C523 H497 0.950 . S
C523 C522 1.414 . S
C523 C524 1.374 . S
C524 H498 0.950 . S
C524 C520 1.385 . S
C524 C523 1.374 . S
C525 C522 1.499 . S
C525 C526 1.373 . S
C525 C527 1.389 . S
C526 H499 0.950 . S
C526 C512 1.377 1_545 S
C526 C525 1.373 . S
C527 C511 1.377 1_545 S
C527 C525 1.389 . S
C527 C528 1.524 . S
C528 C527 1.524 . S
C528 C529 1.397 . S
C528 C533 1.363 1_545 S
C529 H500 0.950 . S
C529 C528 1.397 . S
C529 C530 1.334 . S
C530 H501 0.950 . S
C530 C529 1.334 . S
C530 C531 1.287 . S
C531 C530 1.287 . S
C531 C532 1.524 1_545 S
C531 H534 0.999 . S
C532 H502 0.950 . S
C532 C531 1.524 1_565 S
C532 C533 1.415 . S
C533 H503 0.950 . S
C533 C528 1.363 1_565 S
C533 C532 1.415 . S
H534 C531 0.999 . S
H535 C516 0.913 . S
H536 C554 0.951 . S
H537 C556 0.951 . S
H538 C558 0.950 . S
H539 C559 0.950 . S
H540 C561 0.950 . S
H541 C564 0.950 . S
H542 C565 0.950 . S
H543 C567 0.950 . S
H544 C568 0.950 . S
H545 C569 0.951 . S
H546 C571 0.951 . S
H547 C573 0.950 . S
H548 C574 0.950 . S
H549 C576 0.950 . S
H550 C579 0.950 . S
H551 C580 0.950 . S
H552 C582 0.950 . S
H553 C583 0.950 . S
C554 H536 0.951 . S
C554 C555 1.366 . S
C554 C556 1.388 . S
C555 C554 1.366 . S
C555 C559 1.385 . S
C556 H537 0.951 . S
C556 C554 1.388 . S
C556 C557 1.366 . S
C557 C556 1.366 . S
C557 C558 1.414 . S
C557 C560 1.499 . S
C558 H538 0.950 . S
C558 C557 1.414 . S
C558 C559 1.374 . S
C559 H539 0.950 . S
C559 C555 1.385 . S
C559 C558 1.374 . S
C560 C557 1.499 . S
C560 C561 1.373 . S
C560 C562 1.389 . S
C561 H540 0.950 . S
C561 C560 1.373 . S
C561 C577 1.377 . S
C562 C560 1.389 . S
C562 C563 1.524 . S
C562 C576 1.377 . S
C563 C562 1.524 . S
C563 C564 1.397 . S
C563 C568 1.363 . S
C564 H541 0.950 . S
C564 C563 1.397 . S
C564 C565 1.334 . S
C565 H542 0.950 . S
C565 C564 1.334 . S
C565 C566 1.287 . S
C566 C565 1.287 . S
C566 C567 1.524 . S
C566 H585 0.913 . S
C567 H543 0.950 . S
C567 C566 1.524 . S
C567 C568 1.415 . S
C568 H544 0.950 . S
C568 C563 1.363 . S
C568 C567 1.415 . S
C569 H545 0.951 . S
C569 C570 1.366 . S
C569 C571 1.388 . S
C570 C569 1.366 . S
C570 C574 1.385 . S
C571 H546 0.951 . S
C571 C569 1.388 . S
C571 C572 1.366 . S
C572 C571 1.366 . S
C572 C573 1.414 . S
C572 C575 1.499 . S
C573 H547 0.950 . S
C573 C572 1.414 . S
C573 C574 1.374 . S
C574 H548 0.950 . S
C574 C570 1.385 . S
C574 C573 1.374 . S
C575 C572 1.499 . S
C575 C576 1.373 . S
C575 C577 1.389 . S
C576 H549 0.950 . S
C576 C562 1.377 . S
C576 C575 1.373 . S
C577 C561 1.377 . S
C577 C575 1.389 . S
C577 C578 1.524 . S
C578 C577 1.524 . S
C578 C579 1.397 . S
C578 C583 1.363 . S
C579 H550 0.950 . S
C579 C578 1.397 . S
C579 C580 1.334 . S
C580 H551 0.950 . S
C580 C579 1.334 . S
C580 C581 1.287 . S
C581 C580 1.287 . S
C581 C582 1.524 . S
C581 H584 0.999 . S
C582 H552 0.950 . S
C582 C581 1.524 . S
C582 C583 1.415 . S
C583 H553 0.950 . S
C583 C578 1.363 . S
C583 C582 1.415 . S
H584 C581 0.999 . S
H585 C566 0.913 . S
H586 C604 0.951 . S
H587 C606 0.951 . S
H588 C608 0.950 . S
H589 C609 0.950 . S
H590 C611 0.950 . S
H591 C614 0.950 . S
H592 C615 0.950 . S
H593 C617 0.950 . S
H594 C618 0.950 . S
H595 C619 0.951 . S
H596 C621 0.951 . S
H597 C623 0.950 . S
H598 C624 0.950 . S
H599 C626 0.950 . S
H600 C629 0.950 . S
H601 C630 0.950 . S
H602 C632 0.950 . S
H603 C633 0.950 . S
C604 H586 0.951 . S
C604 C605 1.366 . S
C604 C606 1.388 . S
C605 C604 1.366 . S
C605 C609 1.385 . S
C606 H587 0.951 . S
C606 C604 1.388 . S
C606 C607 1.366 . S
C607 C606 1.366 . S
C607 C608 1.414 . S
C607 C610 1.499 . S
C608 H588 0.950 . S
C608 C607 1.414 . S
C608 C609 1.374 . S
C609 H589 0.950 . S
C609 C605 1.385 . S
C609 C608 1.374 . S
C610 C607 1.499 . S
C610 C611 1.373 . S
C610 C612 1.389 . S
C611 H590 0.950 . S
C611 C610 1.373 . S
C611 C627 1.377 1_455 S
C612 C610 1.389 . S
C612 C613 1.524 . S
C612 C626 1.377 1_455 S
C613 C612 1.524 . S
C613 C614 1.397 . S
C613 C618 1.363 . S
C614 H591 0.950 . S
C614 C613 1.397 . S
C614 C615 1.334 . S
C615 H592 0.950 . S
C615 C614 1.334 . S
C615 C616 1.287 . S
C616 C615 1.287 . S
C616 C617 1.524 . S
C616 H635 0.913 . S
C617 H593 0.950 . S
C617 C616 1.524 . S
C617 C618 1.415 . S
C618 H594 0.950 . S
C618 C613 1.363 . S
C618 C617 1.415 . S
C619 H595 0.951 . S
C619 C620 1.366 . S
C619 C621 1.388 . S
C620 C619 1.366 . S
C620 C624 1.385 . S
C621 H596 0.951 . S
C621 C619 1.388 . S
C621 C622 1.366 . S
C622 C621 1.366 . S
C622 C623 1.414 . S
C622 C625 1.499 . S
C623 H597 0.950 . S
C623 C622 1.414 . S
C623 C624 1.374 . S
C624 H598 0.950 . S
C624 C620 1.385 . S
C624 C623 1.374 . S
C625 C622 1.499 . S
C625 C626 1.373 . S
C625 C627 1.389 . S
C626 H599 0.950 . S
C626 C612 1.377 1_655 S
C626 C625 1.373 . S
C627 C611 1.377 1_655 S
C627 C625 1.389 . S
C627 C628 1.524 . S
C628 C627 1.524 . S
C628 C629 1.397 . S
C628 C633 1.363 . S
C629 H600 0.950 . S
C629 C628 1.397 . S
C629 C630 1.334 . S
C630 H601 0.950 . S
C630 C629 1.334 . S
C630 C631 1.287 . S
C631 C630 1.287 . S
C631 C632 1.524 . S
C631 H634 0.999 . S
C632 H602 0.950 . S
C632 C631 1.524 . S
C632 C633 1.415 . S
C633 H603 0.950 . S
C633 C628 1.363 . S
C633 C632 1.415 . S
H634 C631 0.999 . S
H635 C616 0.913 . S
H636 C654 0.951 . S
H637 C656 0.951 . S
H638 C658 0.950 . S
H639 C659 0.950 . S
H640 C661 0.950 . S
H641 C664 0.950 . S
H642 C665 0.950 . S
H643 C667 0.950 . S
H644 C668 0.950 . S
H645 C669 0.951 . S
H646 C671 0.951 . S
H647 C673 0.950 . S
H648 C674 0.950 . S
H649 C676 0.950 . S
H650 C679 0.950 . S
H651 C680 0.950 . S
H652 C682 0.950 . S
H653 C683 0.950 . S
C654 H636 0.951 . S
C654 C655 1.366 . S
C654 C656 1.388 . S
C655 C654 1.366 . S
C655 C659 1.385 . S
C656 H637 0.951 . S
C656 C654 1.388 . S
C656 C657 1.366 . S
C657 C656 1.366 . S
C657 C658 1.414 . S
C657 C660 1.499 . S
C658 H638 0.950 . S
C658 C657 1.414 . S
C658 C659 1.374 . S
C659 H639 0.950 . S
C659 C655 1.385 . S
C659 C658 1.374 . S
C660 C657 1.499 . S
C660 C661 1.373 . S
C660 C662 1.446 . S
C661 H640 0.950 . S
C661 C660 1.373 . S
C661 C677 1.330 1_565 S
C662 C660 1.446 . S
C662 C663 1.520 . S
C662 C676 1.330 1_565 S
C663 C662 1.520 . S
C663 C664 1.403 . S
C663 C668 1.344 1_565 S
C664 H641 0.950 . S
C664 C663 1.403 . S
C664 C665 1.334 . S
C665 H642 0.950 . S
C665 C664 1.334 . S
C665 C666 1.322 . S
C666 C665 1.322 . S
C666 C667 1.513 1_565 S
C666 H685 0.901 . S
C667 H643 0.950 . S
C667 C666 1.513 1_545 S
C667 C668 1.415 . S
C668 H644 0.950 . S
C668 C663 1.344 1_545 S
C668 C667 1.415 . S
C669 H645 0.951 . S
C669 C670 1.366 . S
C669 C671 1.388 . S
C670 C669 1.366 . S
C670 C674 1.385 . S
C671 H646 0.951 . S
C671 C669 1.388 . S
C671 C672 1.366 . S
C672 C671 1.366 . S
C672 C673 1.414 . S
C672 C675 1.499 . S
C673 H647 0.950 . S
C673 C672 1.414 . S
C673 C674 1.374 . S
C674 H648 0.950 . S
C674 C670 1.385 . S
C674 C673 1.374 . S
C675 C672 1.499 . S
C675 C676 1.373 . S
C675 C677 1.446 . S
C676 H649 0.950 . S
C676 C662 1.330 1_545 S
C676 C675 1.373 . S
C677 C661 1.330 1_545 S
C677 C675 1.446 . S
C677 C678 1.520 . S
C678 C677 1.520 . S
C678 C679 1.403 . S
C678 C683 1.344 1_545 S
C679 H650 0.950 . S
C679 C678 1.403 . S
C679 C680 1.334 . S
C680 H651 0.950 . S
C680 C679 1.334 . S
C680 C681 1.322 . S
C681 C680 1.322 . S
C681 C682 1.513 1_545 S
C681 H684 0.995 . S
C682 H652 0.950 . S
C682 C681 1.513 1_565 S
C682 C683 1.415 . S
C683 H653 0.950 . S
C683 C678 1.344 1_565 S
C683 C682 1.415 . S
H684 C681 0.995 . S
H685 C666 0.901 . S
H686 C704 0.951 . S
H687 C706 0.951 . S
H688 C708 0.950 . S
H689 C709 0.950 . S
H690 C711 0.950 . S
H691 C714 0.950 . S
H692 C715 0.950 . S
H693 C717 0.950 . S
H694 C718 0.950 . S
H695 C719 0.951 . S
H696 C721 0.951 . S
H697 C723 0.950 . S
H698 C724 0.950 . S
H699 C726 0.950 . S
H700 C729 0.950 . S
H701 C730 0.950 . S
H702 C732 0.950 . S
H703 C733 0.950 . S
C704 H686 0.951 . S
C704 C705 1.366 . S
C704 C706 1.388 . S
C705 C704 1.366 . S
C705 C709 1.385 . S
C706 H687 0.951 . S
C706 C704 1.388 . S
C706 C707 1.366 . S
C707 C706 1.366 . S
C707 C708 1.414 . S
C707 C710 1.499 . S
C708 H688 0.950 . S
C708 C707 1.414 . S
C708 C709 1.374 . S
C709 H689 0.950 . S
C709 C705 1.385 . S
C709 C708 1.374 . S
C710 C707 1.499 . S
C710 C711 1.373 . S
C710 C712 1.389 . S
C711 H690 0.950 . S
C711 C710 1.373 . S
C711 C727 1.377 . S
C712 C710 1.389 . S
C712 C713 1.524 . S
C712 C726 1.377 . S
C713 C712 1.524 . S
C713 C714 1.397 . S
C713 C718 1.363 . S
C714 H691 0.950 . S
C714 C713 1.397 . S
C714 C715 1.334 . S
C715 H692 0.950 . S
C715 C714 1.334 . S
C715 C716 1.287 . S
C716 C715 1.287 . S
C716 C717 1.524 . S
C716 H735 0.913 . S
C717 H693 0.950 . S
C717 C716 1.524 . S
C717 C718 1.415 . S
C718 H694 0.950 . S
C718 C713 1.363 . S
C718 C717 1.415 . S
C719 H695 0.951 . S
C719 C720 1.366 . S
C719 C721 1.388 . S
C720 C719 1.366 . S
C720 C724 1.385 . S
C721 H696 0.951 . S
C721 C719 1.388 . S
C721 C722 1.366 . S
C722 C721 1.366 . S
C722 C723 1.414 . S
C722 C725 1.499 . S
C723 H697 0.950 . S
C723 C722 1.414 . S
C723 C724 1.374 . S
C724 H698 0.950 . S
C724 C720 1.385 . S
C724 C723 1.374 . S
C725 C722 1.499 . S
C725 C726 1.373 . S
C725 C727 1.389 . S
C726 H699 0.950 . S
C726 C712 1.377 . S
C726 C725 1.373 . S
C727 C711 1.377 . S
C727 C725 1.389 . S
C727 C728 1.524 . S
C728 C727 1.524 . S
C728 C729 1.397 . S
C728 C733 1.363 . S
C729 H700 0.950 . S
C729 C728 1.397 . S
C729 C730 1.334 . S
C730 H701 0.950 . S
C730 C729 1.334 . S
C730 C731 1.287 . S
C731 C730 1.287 . S
C731 C732 1.524 . S
C731 H734 0.999 . S
C732 H702 0.950 . S
C732 C731 1.524 . S
C732 C733 1.415 . S
C733 H703 0.950 . S
C733 C728 1.363 . S
C733 C732 1.415 . S
H734 C731 0.999 . S
H735 C716 0.913 . S
H736 C754 0.951 . S
H737 C756 0.951 . S
H738 C758 0.950 . S
H739 C759 0.950 . S
H740 C761 0.950 . S
H741 C764 0.950 . S
H742 C765 0.950 . S
H743 C767 0.950 . S
H744 C768 0.950 . S
H745 C769 0.951 . S
H746 C771 0.951 . S
H747 C773 0.950 . S
H748 C774 0.950 . S
H749 C776 0.950 . S
H750 C779 0.950 . S
H751 C780 0.950 . S
H752 C782 0.950 . S
H753 C783 0.950 . S
C754 H736 0.951 . S
C754 C755 1.366 . S
C754 C756 1.388 . S
C755 C754 1.366 . S
C755 C759 1.385 . S
C756 H737 0.951 . S
C756 C754 1.388 . S
C756 C757 1.366 . S
C757 C756 1.366 . S
C757 C758 1.414 . S
C757 C760 1.499 . S
C758 H738 0.950 . S
C758 C757 1.414 . S
C758 C759 1.374 . S
C759 H739 0.950 . S
C759 C755 1.385 . S
C759 C758 1.374 . S
C760 C757 1.499 . S
C760 C761 1.373 . S
C760 C762 1.389 . S
C761 H740 0.950 . S
C761 C760 1.373 . S
C761 C777 1.377 1_655 S
C762 C760 1.389 . S
C762 C763 1.524 . S
C762 C776 1.377 1_655 S
C763 C762 1.524 . S
C763 C764 1.397 . S
C763 C768 1.363 . S
C764 H741 0.950 . S
C764 C763 1.397 . S
C764 C765 1.334 . S
C765 H742 0.950 . S
C765 C764 1.334 . S
C765 C766 1.287 . S
C766 C765 1.287 . S
C766 C767 1.524 . S
C766 H785 0.913 . S
C767 H743 0.950 . S
C767 C766 1.524 . S
C767 C768 1.415 . S
C768 H744 0.950 . S
C768 C763 1.363 . S
C768 C767 1.415 . S
C769 H745 0.951 . S
C769 C770 1.366 . S
C769 C771 1.388 . S
C770 C769 1.366 . S
C770 C774 1.385 . S
C771 H746 0.951 . S
C771 C769 1.388 . S
C771 C772 1.366 . S
C772 C771 1.366 . S
C772 C773 1.414 . S
C772 C775 1.499 . S
C773 H747 0.950 . S
C773 C772 1.414 . S
C773 C774 1.374 . S
C774 H748 0.950 . S
C774 C770 1.385 . S
C774 C773 1.374 . S
C775 C772 1.499 . S
C775 C776 1.373 . S
C775 C777 1.389 . S
C776 H749 0.950 . S
C776 C762 1.377 1_455 S
C776 C775 1.373 . S
C777 C761 1.377 1_455 S
C777 C775 1.389 . S
C777 C778 1.524 . S
C778 C777 1.524 . S
C778 C779 1.397 . S
C778 C783 1.363 . S
C779 H750 0.950 . S
C779 C778 1.397 . S
C779 C780 1.334 . S
C780 H751 0.950 . S
C780 C779 1.334 . S
C780 C781 1.287 . S
C781 C780 1.287 . S
C781 C782 1.524 . S
C781 H784 0.999 . S
C782 H752 0.950 . S
C782 C781 1.524 . S
C782 C783 1.415 . S
C783 H753 0.950 . S
C783 C778 1.363 . S
C783 C782 1.415 . S
H784 C781 0.999 . S
H785 C766 0.913 . S
H786 C804 0.951 . S
H787 C806 0.951 . S
H788 C808 0.950 . S
H789 C809 0.950 . S
H790 C811 0.950 . S
H791 C814 0.950 . S
H792 C815 0.950 . S
H793 C817 0.950 . S
H794 C818 0.950 . S
H795 C819 0.951 . S
H796 C821 0.951 . S
H797 C823 0.950 . S
H798 C824 0.950 . S
H799 C826 0.950 . S
H800 C829 0.950 . S
H801 C830 0.950 . S
H802 C832 0.950 . S
H803 C833 0.950 . S
C804 H786 0.951 . S
C804 C805 1.366 . S
C804 C806 1.388 . S
C805 C804 1.366 . S
C805 C809 1.385 . S
C806 H787 0.951 . S
C806 C804 1.388 . S
C806 C807 1.366 . S
C807 C806 1.366 . S
C807 C808 1.414 . S
C807 C810 1.499 . S
C808 H788 0.950 . S
C808 C807 1.414 . S
C808 C809 1.374 . S
C809 H789 0.950 . S
C809 C805 1.385 . S
C809 C808 1.374 . S
C810 C807 1.499 . S
C810 C811 1.373 . S
C810 C812 1.389 . S
C811 H790 0.950 . S
C811 C810 1.373 . S
C811 C827 1.377 1_545 S
C812 C810 1.389 . S
C812 C813 1.511 . S
C812 C826 1.377 1_545 S
C813 C812 1.511 . S
C813 C814 1.393 . S
C813 C818 1.378 1_545 S
C814 H791 0.950 . S
C814 C813 1.393 . S
C814 C815 1.334 . S
C815 H792 0.950 . S
C815 C814 1.334 . S
C815 C816 1.297 1_545 S
C816 C815 1.297 1_565 S
C816 C817 1.519 . S
C816 H835 0.910 . S
C817 H793 0.950 . S
C817 C816 1.519 . S
C817 C818 1.415 . S
C818 H794 0.950 . S
C818 C813 1.378 1_565 S
C818 C817 1.415 . S
C819 H795 0.951 . S
C819 C820 1.366 . S
C819 C821 1.388 . S
C820 C819 1.366 . S
C820 C824 1.385 . S
C821 H796 0.951 . S
C821 C819 1.388 . S
C821 C822 1.366 . S
C822 C821 1.366 . S
C822 C823 1.414 . S
C822 C825 1.499 . S
C823 H797 0.950 . S
C823 C822 1.414 . S
C823 C824 1.374 . S
C824 H798 0.950 . S
C824 C820 1.385 . S
C824 C823 1.374 . S
C825 C822 1.499 . S
C825 C826 1.373 . S
C825 C827 1.389 . S
C826 H799 0.950 . S
C826 C812 1.377 1_565 S
C826 C825 1.373 . S
C827 C811 1.377 1_565 S
C827 C825 1.389 . S
C827 C828 1.511 . S
C828 C827 1.511 . S
C828 C829 1.393 . S
C828 C833 1.378 1_565 S
C829 H800 0.950 . S
C829 C828 1.393 . S
C829 C830 1.334 . S
C830 H801 0.950 . S
C830 C829 1.334 . S
C830 C831 1.297 1_565 S
C831 C830 1.297 1_545 S
C831 C832 1.519 . S
C831 H834 0.990 . S
C832 H802 0.950 . S
C832 C831 1.519 . S
C832 C833 1.415 . S
C833 H803 0.950 . S
C833 C828 1.378 1_545 S
C833 C832 1.415 . S
H834 C831 0.990 . S
H835 C816 0.910 . S
H836 C854 0.951 . S
H837 C856 0.951 . S
H838 C858 0.950 . S
H839 C859 0.950 . S
H840 C861 0.950 . S
H841 C864 0.950 . S
H842 C865 0.950 . S
H843 C867 0.950 . S
H844 C868 0.950 . S
H845 C869 0.951 . S
H846 C871 0.951 . S
H847 C873 0.950 . S
H848 C874 0.950 . S
H849 C876 0.950 . S
H850 C879 0.950 . S
H851 C880 0.950 . S
H852 C882 0.950 . S
H853 C883 0.950 . S
C854 H836 0.951 . S
C854 C855 1.366 . S
C854 C856 1.388 . S
C855 C854 1.366 . S
C855 C859 1.385 . S
C856 H837 0.951 . S
C856 C854 1.388 . S
C856 C857 1.366 . S
C857 C856 1.366 . S
C857 C858 1.414 . S
C857 C860 1.499 . S
C858 H838 0.950 . S
C858 C857 1.414 . S
C858 C859 1.374 . S
C859 H839 0.950 . S
C859 C855 1.385 . S
C859 C858 1.374 . S
C860 C857 1.499 . S
C860 C861 1.373 . S
C860 C862 1.389 . S
C861 H840 0.950 . S
C861 C860 1.373 . S
C861 C877 1.377 . S
C862 C860 1.389 . S
C862 C863 1.524 . S
C862 C876 1.377 . S
C863 C862 1.524 . S
C863 C864 1.397 . S
C863 C868 1.363 . S
C864 H841 0.950 . S
C864 C863 1.397 . S
C864 C865 1.334 . S
C865 H842 0.950 . S
C865 C864 1.334 . S
C865 C866 1.287 . S
C866 C865 1.287 . S
C866 C867 1.524 . S
C866 H885 0.913 . S
C867 H843 0.950 . S
C867 C866 1.524 . S
C867 C868 1.415 . S
C868 H844 0.950 . S
C868 C863 1.363 . S
C868 C867 1.415 . S
C869 H845 0.951 . S
C869 C870 1.366 . S
C869 C871 1.388 . S
C870 C869 1.366 . S
C870 C874 1.385 . S
C871 H846 0.951 . S
C871 C869 1.388 . S
C871 C872 1.366 . S
C872 C871 1.366 . S
C872 C873 1.414 . S
C872 C875 1.499 . S
C873 H847 0.950 . S
C873 C872 1.414 . S
C873 C874 1.374 . S
C874 H848 0.950 . S
C874 C870 1.385 . S
C874 C873 1.374 . S
C875 C872 1.499 . S
C875 C876 1.373 . S
C875 C877 1.389 . S
C876 H849 0.950 . S
C876 C862 1.377 . S
C876 C875 1.373 . S
C877 C861 1.377 . S
C877 C875 1.389 . S
C877 C878 1.524 . S
C878 C877 1.524 . S
C878 C879 1.397 . S
C878 C883 1.363 . S
C879 H850 0.950 . S
C879 C878 1.397 . S
C879 C880 1.334 . S
C880 H851 0.950 . S
C880 C879 1.334 . S
C880 C881 1.287 . S
C881 C880 1.287 . S
C881 C882 1.524 . S
C881 H884 0.999 . S
C882 H852 0.950 . S
C882 C881 1.524 . S
C882 C883 1.415 . S
C883 H853 0.950 . S
C883 C878 1.363 . S
C883 C882 1.415 . S
H884 C881 0.999 . S
H885 C866 0.913 . S
H886 C904 0.951 . S
H887 C906 0.951 . S
H888 C908 0.950 . S
H889 C909 0.950 . S
H890 C911 0.950 . S
H891 C914 0.950 . S
H892 C915 0.950 . S
H893 C917 0.950 . S
H894 C918 0.950 . S
H895 C919 0.951 . S
H896 C921 0.951 . S
H897 C923 0.950 . S
H898 C924 0.950 . S
H899 C926 0.950 . S
H900 C929 0.950 . S
H901 C930 0.950 . S
H902 C932 0.950 . S
H903 C933 0.950 . S
C904 H886 0.951 . S
C904 C905 1.366 . S
C904 C906 1.388 . S
C905 C904 1.366 . S
C905 C909 1.385 . S
C906 H887 0.951 . S
C906 C904 1.388 . S
C906 C907 1.366 . S
C907 C906 1.366 . S
C907 C908 1.414 . S
C907 C910 1.499 . S
C908 H888 0.950 . S
C908 C907 1.414 . S
C908 C909 1.374 . S
C909 H889 0.950 . S
C909 C905 1.385 . S
C909 C908 1.374 . S
C910 C907 1.499 . S
C910 C911 1.373 . S
C910 C912 1.389 . S
C911 H890 0.950 . S
C911 C910 1.373 . S
C911 C927 1.377 1_455 S
C912 C910 1.389 . S
C912 C913 1.524 . S
C912 C926 1.377 1_455 S
C913 C912 1.524 . S
C913 C914 1.397 . S
C913 C918 1.363 . S
C914 H891 0.950 . S
C914 C913 1.397 . S
C914 C915 1.334 . S
C915 H892 0.950 . S
C915 C914 1.334 . S
C915 C916 1.287 . S
C916 C915 1.287 . S
C916 C917 1.524 . S
C916 H935 0.913 . S
C917 H893 0.950 . S
C917 C916 1.524 . S
C917 C918 1.415 . S
C918 H894 0.950 . S
C918 C913 1.363 . S
C918 C917 1.415 . S
C919 H895 0.951 . S
C919 C920 1.366 . S
C919 C921 1.388 . S
C920 C919 1.366 . S
C920 C924 1.385 . S
C921 H896 0.951 . S
C921 C919 1.388 . S
C921 C922 1.366 . S
C922 C921 1.366 . S
C922 C923 1.414 . S
C922 C925 1.499 . S
C923 H897 0.950 . S
C923 C922 1.414 . S
C923 C924 1.374 . S
C924 H898 0.950 . S
C924 C920 1.385 . S
C924 C923 1.374 . S
C925 C922 1.499 . S
C925 C926 1.373 . S
C925 C927 1.389 . S
C926 H899 0.950 . S
C926 C912 1.377 1_655 S
C926 C925 1.373 . S
C927 C911 1.377 1_655 S
C927 C925 1.389 . S
C927 C928 1.524 . S
C928 C927 1.524 . S
C928 C929 1.397 . S
C928 C933 1.363 . S
C929 H900 0.950 . S
C929 C928 1.397 . S
C929 C930 1.334 . S
C930 H901 0.950 . S
C930 C929 1.334 . S
C930 C931 1.287 . S
C931 C930 1.287 . S
C931 C932 1.524 . S
C931 H934 0.999 . S
C932 H902 0.950 . S
C932 C931 1.524 . S
C932 C933 1.415 . S
C933 H903 0.950 . S
C933 C928 1.363 . S
C933 C932 1.415 . S
H934 C931 0.999 . S
H935 C916 0.913 . S
H936 C954 0.951 . S
H937 C956 0.951 . S
H938 C958 0.950 . S
H939 C959 0.950 . S
H940 C961 0.950 . S
H941 C964 0.950 . S
H942 C965 0.950 . S
H943 C967 0.950 . S
H944 C968 0.950 . S
H945 C969 0.951 . S
H946 C971 0.951 . S
H947 C973 0.950 . S
H948 C974 0.950 . S
H949 C976 0.950 . S
H950 C979 0.950 . S
H951 C980 0.950 . S
H952 C982 0.950 . S
H953 C983 0.950 . S
C954 H936 0.951 . S
C954 C955 1.366 . S
C954 C956 1.388 . S
C955 C954 1.366 . S
C955 C959 1.385 . S
C956 H937 0.951 . S
C956 C954 1.388 . S
C956 C957 1.366 . S
C957 C956 1.366 . S
C957 C958 1.414 . S
C957 C960 1.499 . S
C958 H938 0.950 . S
C958 C957 1.414 . S
C958 C959 1.374 . S
C959 H939 0.950 . S
C959 C955 1.385 . S
C959 C958 1.374 . S
C960 C957 1.499 . S
C960 C961 1.373 . S
C960 C962 1.389 . S
C961 H940 0.950 . S
C961 C960 1.373 . S
C961 C977 1.377 . S
C962 C960 1.389 . S
C962 C963 1.524 . S
C962 C976 1.377 . S
C963 C962 1.524 . S
C963 C964 1.397 . S
C963 C968 1.363 . S
C964 H941 0.950 . S
C964 C963 1.397 . S
C964 C965 1.334 . S
C965 H942 0.950 . S
C965 C964 1.334 . S
C965 C966 1.287 . S
C966 C965 1.287 . S
C966 C967 1.524 . S
C966 H985 0.913 . S
C967 H943 0.950 . S
C967 C966 1.524 . S
C967 C968 1.415 . S
C968 H944 0.950 . S
C968 C963 1.363 . S
C968 C967 1.415 . S
C969 H945 0.951 . S
C969 C970 1.366 . S
C969 C971 1.388 . S
C970 C969 1.366 . S
C970 C974 1.385 . S
C971 H946 0.951 . S
C971 C969 1.388 . S
C971 C972 1.366 . S
C972 C971 1.366 . S
C972 C973 1.414 . S
C972 C975 1.499 . S
C973 H947 0.950 . S
C973 C972 1.414 . S
C973 C974 1.374 . S
C974 H948 0.950 . S
C974 C970 1.385 . S
C974 C973 1.374 . S
C975 C972 1.499 . S
C975 C976 1.373 . S
C975 C977 1.389 . S
C976 H949 0.950 . S
C976 C962 1.377 . S
C976 C975 1.373 . S
C977 C961 1.377 . S
C977 C975 1.389 . S
C977 C978 1.524 . S
C978 C977 1.524 . S
C978 C979 1.397 . S
C978 C983 1.363 . S
C979 H950 0.950 . S
C979 C978 1.397 . S
C979 C980 1.334 . S
C980 H951 0.950 . S
C980 C979 1.334 . S
C980 C981 1.287 . S
C981 C980 1.287 . S
C981 C982 1.524 . S
C981 H984 0.999 . S
C982 H952 0.950 . S
C982 C981 1.524 . S
C982 C983 1.415 . S
C983 H953 0.950 . S
C983 C978 1.363 . S
C983 C982 1.415 . S
H984 C981 0.999 . S
H985 C966 0.913 . S
H986 C1004 0.951 . S
H987 C1006 0.951 . S
H988 C1008 0.950 . S
H989 C1009 0.950 . S
H990 C1011 0.950 . S
H991 C1014 0.950 . S
H992 C1015 0.950 . S
H993 C1017 0.950 . S
H994 C1018 0.950 . S
H995 C1019 0.951 . S
H996 C1021 0.951 . S
H997 C1023 0.950 . S
H998 C1024 0.950 . S
H999 C1026 0.950 . S
H1000 C1029 0.950 . S
H1001 C1030 0.950 . S
H1002 C1032 0.950 . S
H1003 C1033 0.950 . S
C1004 H986 0.951 . S
C1004 C1005 1.366 . S
C1004 C1006 1.388 . S
C1005 C1004 1.366 . S
C1005 C1009 1.385 . S
C1006 H987 0.951 . S
C1006 C1004 1.388 . S
C1006 C1007 1.366 . S
C1007 C1006 1.366 . S
C1007 C1008 1.414 . S
C1007 C1010 1.499 . S
C1008 H988 0.950 . S
C1008 C1007 1.414 . S
C1008 C1009 1.374 . S
C1009 H989 0.950 . S
C1009 C1005 1.385 . S
C1009 C1008 1.374 . S
C1010 C1007 1.499 . S
C1010 C1011 1.373 . S
C1010 C1012 1.389 . S
C1011 H990 0.950 . S
C1011 C1010 1.373 . S
C1011 C1027 1.377 . S
C1012 C1010 1.389 . S
C1012 C1013 1.524 . S
C1012 C1026 1.377 . S
C1013 C1012 1.524 . S
C1013 C1014 1.397 . S
C1013 C1018 1.363 . S
C1014 H991 0.950 . S
C1014 C1013 1.397 . S
C1014 C1015 1.334 . S
C1015 H992 0.950 . S
C1015 C1014 1.334 . S
C1015 C1016 1.287 . S
C1016 C1015 1.287 . S
C1016 C1017 1.524 . S
C1016 H1035 0.913 . S
C1017 H993 0.950 . S
C1017 C1016 1.524 . S
C1017 C1018 1.415 . S
C1018 H994 0.950 . S
C1018 C1013 1.363 . S
C1018 C1017 1.415 . S
C1019 H995 0.951 . S
C1019 C1020 1.366 . S
C1019 C1021 1.388 . S
C1020 C1019 1.366 . S
C1020 C1024 1.385 . S
C1021 H996 0.951 . S
C1021 C1019 1.388 . S
C1021 C1022 1.366 . S
C1022 C1021 1.366 . S
C1022 C1023 1.414 . S
C1022 C1025 1.499 . S
C1023 H997 0.950 . S
C1023 C1022 1.414 . S
C1023 C1024 1.374 . S
C1024 H998 0.950 . S
C1024 C1020 1.385 . S
C1024 C1023 1.374 . S
C1025 C1022 1.499 . S
C1025 C1026 1.373 . S
C1025 C1027 1.389 . S
C1026 H999 0.950 . S
C1026 C1012 1.377 . S
C1026 C1025 1.373 . S
C1027 C1011 1.377 . S
C1027 C1025 1.389 . S
C1027 C1028 1.524 . S
C1028 C1027 1.524 . S
C1028 C1029 1.397 . S
C1028 C1033 1.363 . S
C1029 H1000 0.950 . S
C1029 C1028 1.397 . S
C1029 C1030 1.334 . S
C1030 H1001 0.950 . S
C1030 C1029 1.334 . S
C1030 C1031 1.287 . S
C1031 C1030 1.287 . S
C1031 C1032 1.524 . S
C1031 H1034 0.999 . S
C1032 H1002 0.950 . S
C1032 C1031 1.524 . S
C1032 C1033 1.415 . S
C1033 H1003 0.950 . S
C1033 C1028 1.363 . S
C1033 C1032 1.415 . S
H1034 C1031 0.999 . S
H1035 C1016 0.913 . S
H1036 C1054 0.951 . S
H1037 C1056 0.951 . S
H1038 C1058 0.950 . S
H1039 C1059 0.950 . S
H1040 C1061 0.950 . S
H1041 C1064 0.950 . S
H1042 C1065 0.950 . S
H1043 C1067 0.950 . S
H1044 C1068 0.950 . S
H1045 C1069 0.951 . S
H1046 C1071 0.951 . S
H1047 C1073 0.950 . S
H1048 C1074 0.950 . S
H1049 C1076 0.950 . S
H1050 C1079 0.950 . S
H1051 C1080 0.950 . S
H1052 C1082 0.950 . S
H1053 C1083 0.950 . S
C1054 H1036 0.951 . S
C1054 C1055 1.366 . S
C1054 C1056 1.388 . S
C1055 C1054 1.366 . S
C1055 C1059 1.385 . S
C1056 H1037 0.951 . S
C1056 C1054 1.388 . S
C1056 C1057 1.366 . S
C1057 C1056 1.366 . S
C1057 C1058 1.414 . S
C1057 C1060 1.499 . S
C1058 H1038 0.950 . S
C1058 C1057 1.414 . S
C1058 C1059 1.374 . S
C1059 H1039 0.950 . S
C1059 C1055 1.385 . S
C1059 C1058 1.374 . S
C1060 C1057 1.499 . S
C1060 C1061 1.373 . S
C1060 C1062 1.389 . S
C1061 H1040 0.950 . S
C1061 C1060 1.373 . S
C1061 C1077 1.377 . S
C1062 C1060 1.389 . S
C1062 C1063 1.524 . S
C1062 C1076 1.377 . S
C1063 C1062 1.524 . S
C1063 C1064 1.397 . S
C1063 C1068 1.363 . S
C1064 H1041 0.950 . S
C1064 C1063 1.397 . S
C1064 C1065 1.334 . S
C1065 H1042 0.950 . S
C1065 C1064 1.334 . S
C1065 C1066 1.287 . S
C1066 C1065 1.287 . S
C1066 C1067 1.524 . S
C1066 H1085 0.913 . S
C1067 H1043 0.950 . S
C1067 C1066 1.524 . S
C1067 C1068 1.415 . S
C1068 H1044 0.950 . S
C1068 C1063 1.363 . S
C1068 C1067 1.415 . S
C1069 H1045 0.951 . S
C1069 C1070 1.366 . S
C1069 C1071 1.388 . S
C1070 C1069 1.366 . S
C1070 C1074 1.385 . S
C1071 H1046 0.951 . S
C1071 C1069 1.388 . S
C1071 C1072 1.366 . S
C1072 C1071 1.366 . S
C1072 C1073 1.414 . S
C1072 C1075 1.499 . S
C1073 H1047 0.950 . S
C1073 C1072 1.414 . S
C1073 C1074 1.374 . S
C1074 H1048 0.950 . S
C1074 C1070 1.385 . S
C1074 C1073 1.374 . S
C1075 C1072 1.499 . S
C1075 C1076 1.373 . S
C1075 C1077 1.389 . S
C1076 H1049 0.950 . S
C1076 C1062 1.377 . S
C1076 C1075 1.373 . S
C1077 C1061 1.377 . S
C1077 C1075 1.389 . S
C1077 C1078 1.524 . S
C1078 C1077 1.524 . S
C1078 C1079 1.397 . S
C1078 C1083 1.363 . S
C1079 H1050 0.950 . S
C1079 C1078 1.397 . S
C1079 C1080 1.334 . S
C1080 H1051 0.950 . S
C1080 C1079 1.334 . S
C1080 C1081 1.287 . S
C1081 C1080 1.287 . S
C1081 C1082 1.524 . S
C1081 H1084 0.999 . S
C1082 H1052 0.950 . S
C1082 C1081 1.524 . S
C1082 C1083 1.415 . S
C1083 H1053 0.950 . S
C1083 C1078 1.363 . S
C1083 C1082 1.415 . S
H1084 C1081 0.999 . S
H1085 C1066 0.913 . S
H1086 C1104 0.951 . S
H1087 C1106 0.951 . S
H1088 C1108 0.950 . S
H1089 C1109 0.950 . S
H1090 C1111 0.950 . S
H1091 C1114 0.950 . S
H1092 C1115 0.950 . S
H1093 C1117 0.950 . S
H1094 C1118 0.950 . S
H1095 C1119 0.951 . S
H1096 C1121 0.951 . S
H1097 C1123 0.950 . S
H1098 C1124 0.950 . S
H1099 C1126 0.950 . S
H1100 C1129 0.950 . S
H1101 C1130 0.950 . S
H1102 C1132 0.950 . S
H1103 C1133 0.950 . S
C1104 H1086 0.951 . S
C1104 C1105 1.366 . S
C1104 C1106 1.388 . S
C1105 C1104 1.366 . S
C1105 C1109 1.385 . S
C1106 H1087 0.951 . S
C1106 C1104 1.388 . S
C1106 C1107 1.366 . S
C1107 C1106 1.366 . S
C1107 C1108 1.414 . S
C1107 C1110 1.499 . S
C1108 H1088 0.950 . S
C1108 C1107 1.414 . S
C1108 C1109 1.374 . S
C1109 H1089 0.950 . S
C1109 C1105 1.385 . S
C1109 C1108 1.374 . S
C1110 C1107 1.499 . S
C1110 C1111 1.373 . S
C1110 C1112 1.389 . S
C1111 H1090 0.950 . S
C1111 C1110 1.373 . S
C1111 C1127 1.377 . S
C1112 C1110 1.389 . S
C1112 C1113 1.524 . S
C1112 C1126 1.377 . S
C1113 C1112 1.524 . S
C1113 C1114 1.397 . S
C1113 C1118 1.363 . S
C1114 H1091 0.950 . S
C1114 C1113 1.397 . S
C1114 C1115 1.334 . S
C1115 H1092 0.950 . S
C1115 C1114 1.334 . S
C1115 C1116 1.287 . S
C1116 C1115 1.287 . S
C1116 C1117 1.524 . S
C1116 H1135 0.913 . S
C1117 H1093 0.950 . S
C1117 C1116 1.524 . S
C1117 C1118 1.415 . S
C1118 H1094 0.950 . S
C1118 C1113 1.363 . S
C1118 C1117 1.415 . S
C1119 H1095 0.951 . S
C1119 C1120 1.366 . S
C1119 C1121 1.388 . S
C1120 C1119 1.366 . S
C1120 C1124 1.385 . S
C1121 H1096 0.951 . S
C1121 C1119 1.388 . S
C1121 C1122 1.366 . S
C1122 C1121 1.366 . S
C1122 C1123 1.414 . S
C1122 C1125 1.499 . S
C1123 H1097 0.950 . S
C1123 C1122 1.414 . S
C1123 C1124 1.374 . S
C1124 H1098 0.950 . S
C1124 C1120 1.385 . S
C1124 C1123 1.374 . S
C1125 C1122 1.499 . S
C1125 C1126 1.373 . S
C1125 C1127 1.389 . S
C1126 H1099 0.950 . S
C1126 C1112 1.377 . S
C1126 C1125 1.373 . S
C1127 C1111 1.377 . S
C1127 C1125 1.389 . S
C1127 C1128 1.524 . S
C1128 C1127 1.524 . S
C1128 C1129 1.397 . S
C1128 C1133 1.363 . S
C1129 H1100 0.950 . S
C1129 C1128 1.397 . S
C1129 C1130 1.334 . S
C1130 H1101 0.950 . S
C1130 C1129 1.334 . S
C1130 C1131 1.287 . S
C1131 C1130 1.287 . S
C1131 C1132 1.524 . S
C1131 H1134 0.999 . S
C1132 H1102 0.950 . S
C1132 C1131 1.524 . S
C1132 C1133 1.415 . S
C1133 H1103 0.950 . S
C1133 C1128 1.363 . S
C1133 C1132 1.415 . S
H1134 C1131 0.999 . S
H1135 C1116 0.913 . S
H1136 C1154 0.951 . S
H1137 C1156 0.951 . S
H1138 C1158 0.950 . S
H1139 C1159 0.950 . S
H1140 C1161 0.950 . S
H1141 C1164 0.950 . S
H1142 C1165 0.950 . S
H1143 C1167 0.950 . S
H1144 C1168 0.950 . S
H1145 C1169 0.951 . S
H1146 C1171 0.951 . S
H1147 C1173 0.950 . S
H1148 C1174 0.950 . S
H1149 C1176 0.950 . S
H1150 C1179 0.950 . S
H1151 C1180 0.950 . S
H1152 C1182 0.950 . S
H1153 C1183 0.950 . S
C1154 H1136 0.951 . S
C1154 C1155 1.366 . S
C1154 C1156 1.388 . S
C1155 C1154 1.366 . S
C1155 C1159 1.385 . S
C1156 H1137 0.951 . S
C1156 C1154 1.388 . S
C1156 C1157 1.366 . S
C1157 C1156 1.366 . S
C1157 C1158 1.414 . S
C1157 C1160 1.499 . S
C1158 H1138 0.950 . S
C1158 C1157 1.414 . S
C1158 C1159 1.374 . S
C1159 H1139 0.950 . S
C1159 C1155 1.385 . S
C1159 C1158 1.374 . S
C1160 C1157 1.499 . S
C1160 C1161 1.373 . S
C1160 C1162 1.389 . S
C1161 H1140 0.950 . S
C1161 C1160 1.373 . S
C1161 C1177 1.377 . S
C1162 C1160 1.389 . S
C1162 C1163 1.524 . S
C1162 C1176 1.377 . S
C1163 C1162 1.524 . S
C1163 C1164 1.397 . S
C1163 C1168 1.363 . S
C1164 H1141 0.950 . S
C1164 C1163 1.397 . S
C1164 C1165 1.334 . S
C1165 H1142 0.950 . S
C1165 C1164 1.334 . S
C1165 C1166 1.287 . S
C1166 C1165 1.287 . S
C1166 C1167 1.524 . S
C1166 H1185 0.913 . S
C1167 H1143 0.950 . S
C1167 C1166 1.524 . S
C1167 C1168 1.415 . S
C1168 H1144 0.950 . S
C1168 C1163 1.363 . S
C1168 C1167 1.415 . S
C1169 H1145 0.951 . S
C1169 C1170 1.366 . S
C1169 C1171 1.388 . S
C1170 C1169 1.366 . S
C1170 C1174 1.385 . S
C1171 H1146 0.951 . S
C1171 C1169 1.388 . S
C1171 C1172 1.366 . S
C1172 C1171 1.366 . S
C1172 C1173 1.414 . S
C1172 C1175 1.499 . S
C1173 H1147 0.950 . S
C1173 C1172 1.414 . S
C1173 C1174 1.374 . S
C1174 H1148 0.950 . S
C1174 C1170 1.385 . S
C1174 C1173 1.374 . S
C1175 C1172 1.499 . S
C1175 C1176 1.373 . S
C1175 C1177 1.389 . S
C1176 H1149 0.950 . S
C1176 C1162 1.377 . S
C1176 C1175 1.373 . S
C1177 C1161 1.377 . S
C1177 C1175 1.389 . S
C1177 C1178 1.524 . S
C1178 C1177 1.524 . S
C1178 C1179 1.397 . S
C1178 C1183 1.363 . S
C1179 H1150 0.950 . S
C1179 C1178 1.397 . S
C1179 C1180 1.334 . S
C1180 H1151 0.950 . S
C1180 C1179 1.334 . S
C1180 C1181 1.287 . S
C1181 C1180 1.287 . S
C1181 C1182 1.524 . S
C1181 H1184 0.999 . S
C1182 H1152 0.950 . S
C1182 C1181 1.524 . S
C1182 C1183 1.415 . S
C1183 H1153 0.950 . S
C1183 C1178 1.363 . S
C1183 C1182 1.415 . S
H1184 C1181 0.999 . S
H1185 C1166 0.913 . S
H1186 C1204 0.951 . S
H1187 C1206 0.951 . S
H1188 C1208 0.950 . S
H1189 C1209 0.950 . S
H1190 C1211 0.950 . S
H1191 C1214 0.950 . S
H1192 C1215 0.950 . S
H1193 C1217 0.950 . S
H1194 C1218 0.950 . S
H1195 C1219 0.951 . S
H1196 C1221 0.951 . S
H1197 C1223 0.950 . S
H1198 C1224 0.950 . S
H1199 C1226 0.950 . S
H1200 C1229 0.950 . S
H1201 C1230 0.950 . S
H1202 C1232 0.950 . S
H1203 C1233 0.950 . S
C1204 H1186 0.951 . S
C1204 C1205 1.366 . S
C1204 C1206 1.388 . S
C1205 C1204 1.366 . S
C1205 C1209 1.385 . S
C1206 H1187 0.951 . S
C1206 C1204 1.388 . S
C1206 C1207 1.366 . S
C1207 C1206 1.366 . S
C1207 C1208 1.414 . S
C1207 C1210 1.499 . S
C1208 H1188 0.950 . S
C1208 C1207 1.414 . S
C1208 C1209 1.374 . S
C1209 H1189 0.950 . S
C1209 C1205 1.385 . S
C1209 C1208 1.374 . S
C1210 C1207 1.499 . S
C1210 C1211 1.373 . S
C1210 C1212 1.389 . S
C1211 H1190 0.950 . S
C1211 C1210 1.373 . S
C1211 C1227 1.377 . S
C1212 C1210 1.389 . S
C1212 C1213 1.524 . S
C1212 C1226 1.377 . S
C1213 C1212 1.524 . S
C1213 C1214 1.397 . S
C1213 C1218 1.363 . S
C1214 H1191 0.950 . S
C1214 C1213 1.397 . S
C1214 C1215 1.334 . S
C1215 H1192 0.950 . S
C1215 C1214 1.334 . S
C1215 C1216 1.287 . S
C1216 C1215 1.287 . S
C1216 C1217 1.524 . S
C1216 H1235 0.913 . S
C1217 H1193 0.950 . S
C1217 C1216 1.524 . S
C1217 C1218 1.415 . S
C1218 H1194 0.950 . S
C1218 C1213 1.363 . S
C1218 C1217 1.415 . S
C1219 H1195 0.951 . S
C1219 C1220 1.366 . S
C1219 C1221 1.388 . S
C1220 C1219 1.366 . S
C1220 C1224 1.385 . S
C1221 H1196 0.951 . S
C1221 C1219 1.388 . S
C1221 C1222 1.366 . S
C1222 C1221 1.366 . S
C1222 C1223 1.414 . S
C1222 C1225 1.499 . S
C1223 H1197 0.950 . S
C1223 C1222 1.414 . S
C1223 C1224 1.374 . S
C1224 H1198 0.950 . S
C1224 C1220 1.385 . S
C1224 C1223 1.374 . S
C1225 C1222 1.499 . S
C1225 C1226 1.373 . S
C1225 C1227 1.389 . S
C1226 H1199 0.950 . S
C1226 C1212 1.377 . S
C1226 C1225 1.373 . S
C1227 C1211 1.377 . S
C1227 C1225 1.389 . S
C1227 C1228 1.524 . S
C1228 C1227 1.524 . S
C1228 C1229 1.397 . S
C1228 C1233 1.363 . S
C1229 H1200 0.950 . S
C1229 C1228 1.397 . S
C1229 C1230 1.334 . S
C1230 H1201 0.950 . S
C1230 C1229 1.334 . S
C1230 C1231 1.287 . S
C1231 C1230 1.287 . S
C1231 C1232 1.524 . S
C1231 H1234 0.999 . S
C1232 H1202 0.950 . S
C1232 C1231 1.524 . S
C1232 C1233 1.415 . S
C1233 H1203 0.950 . S
C1233 C1228 1.363 . S
C1233 C1232 1.415 . S
H1234 C1231 0.999 . S
H1235 C1216 0.913 . S
H1236 C1254 0.951 . S
H1237 C1256 0.951 . S
H1238 C1258 0.950 . S
H1239 C1259 0.950 . S
H1240 C1261 0.950 . S
H1241 C1264 0.950 . S
H1242 C1265 0.950 . S
H1243 C1267 0.950 . S
H1244 C1268 0.950 . S
H1245 C1269 0.951 . S
H1246 C1271 0.951 . S
H1247 C1273 0.950 . S
H1248 C1274 0.950 . S
H1249 C1276 0.950 . S
H1250 C1279 0.950 . S
H1251 C1280 0.950 . S
H1252 C1282 0.950 . S
H1253 C1283 0.950 . S
C1254 H1236 0.951 . S
C1254 C1255 1.366 . S
C1254 C1256 1.388 . S
C1255 C1254 1.366 . S
C1255 C1259 1.385 . S
C1256 H1237 0.951 . S
C1256 C1254 1.388 . S
C1256 C1257 1.366 . S
C1257 C1256 1.366 . S
C1257 C1258 1.414 . S
C1257 C1260 1.499 . S
C1258 H1238 0.950 . S
C1258 C1257 1.414 . S
C1258 C1259 1.374 . S
C1259 H1239 0.950 . S
C1259 C1255 1.385 . S
C1259 C1258 1.374 . S
C1260 C1257 1.499 . S
C1260 C1261 1.373 . S
C1260 C1262 1.389 . S
C1261 H1240 0.950 . S
C1261 C1260 1.373 . S
C1261 C1277 1.377 . S
C1262 C1260 1.389 . S
C1262 C1263 1.524 . S
C1262 C1276 1.377 . S
C1263 C1262 1.524 . S
C1263 C1264 1.397 . S
C1263 C1268 1.363 . S
C1264 H1241 0.950 . S
C1264 C1263 1.397 . S
C1264 C1265 1.334 . S
C1265 H1242 0.950 . S
C1265 C1264 1.334 . S
C1265 C1266 1.287 . S
C1266 C1265 1.287 . S
C1266 C1267 1.524 . S
C1266 H1285 0.913 . S
C1267 H1243 0.950 . S
C1267 C1266 1.524 . S
C1267 C1268 1.415 . S
C1268 H1244 0.950 . S
C1268 C1263 1.363 . S
C1268 C1267 1.415 . S
C1269 H1245 0.951 . S
C1269 C1270 1.366 . S
C1269 C1271 1.388 . S
C1270 C1269 1.366 . S
C1270 C1274 1.385 . S
C1271 H1246 0.951 . S
C1271 C1269 1.388 . S
C1271 C1272 1.366 . S
C1272 C1271 1.366 . S
C1272 C1273 1.414 . S
C1272 C1275 1.499 . S
C1273 H1247 0.950 . S
C1273 C1272 1.414 . S
C1273 C1274 1.374 . S
C1274 H1248 0.950 . S
C1274 C1270 1.385 . S
C1274 C1273 1.374 . S
C1275 C1272 1.499 . S
C1275 C1276 1.373 . S
C1275 C1277 1.389 . S
C1276 H1249 0.950 . S
C1276 C1262 1.377 . S
C1276 C1275 1.373 . S
C1277 C1261 1.377 . S
C1277 C1275 1.389 . S
C1277 C1278 1.524 . S
C1278 C1277 1.524 . S
C1278 C1279 1.397 . S
C1278 C1283 1.363 . S
C1279 H1250 0.950 . S
C1279 C1278 1.397 . S
C1279 C1280 1.334 . S
C1280 H1251 0.950 . S
C1280 C1279 1.334 . S
C1280 C1281 1.287 . S
C1281 C1280 1.287 . S
C1281 C1282 1.524 . S
C1281 H1284 0.999 . S
C1282 H1252 0.950 . S
C1282 C1281 1.524 . S
C1282 C1283 1.415 . S
C1283 H1253 0.950 . S
C1283 C1278 1.363 . S
C1283 C1282 1.415 . S
H1284 C1281 0.999 . S
H1285 C1266 0.913 . S
H1286 C1304 0.951 . S
H1287 C1306 0.951 . S
H1288 C1308 0.950 . S
H1289 C1309 0.950 . S
H1290 C1311 0.950 . S
H1291 C1314 0.950 . S
H1292 C1315 0.950 . S
H1293 C1317 0.950 . S
H1294 C1318 0.950 . S
H1295 C1319 0.951 . S
H1296 C1321 0.951 . S
H1297 C1323 0.950 . S
H1298 C1324 0.950 . S
H1299 C1326 0.950 . S
H1300 C1329 0.950 . S
H1301 C1330 0.950 . S
H1302 C1332 0.950 . S
H1303 C1333 0.950 . S
C1304 H1286 0.951 . S
C1304 C1305 1.366 . S
C1304 C1306 1.388 . S
C1305 C1304 1.366 . S
C1305 C1309 1.385 . S
C1306 H1287 0.951 . S
C1306 C1304 1.388 . S
C1306 C1307 1.366 . S
C1307 C1306 1.366 . S
C1307 C1308 1.414 . S
C1307 C1310 1.499 . S
C1308 H1288 0.950 . S
C1308 C1307 1.414 . S
C1308 C1309 1.374 . S
C1309 H1289 0.950 . S
C1309 C1305 1.385 . S
C1309 C1308 1.374 . S
C1310 C1307 1.499 . S
C1310 C1311 1.373 . S
C1310 C1312 1.389 . S
C1311 H1290 0.950 . S
C1311 C1310 1.373 . S
C1311 C1327 1.377 . S
C1312 C1310 1.389 . S
C1312 C1313 1.524 . S
C1312 C1326 1.377 . S
C1313 C1312 1.524 . S
C1313 C1314 1.397 . S
C1313 C1318 1.363 . S
C1314 H1291 0.950 . S
C1314 C1313 1.397 . S
C1314 C1315 1.334 . S
C1315 H1292 0.950 . S
C1315 C1314 1.334 . S
C1315 C1316 1.287 . S
C1316 C1315 1.287 . S
C1316 C1317 1.524 . S
C1316 H1335 0.913 . S
C1317 H1293 0.950 . S
C1317 C1316 1.524 . S
C1317 C1318 1.415 . S
C1318 H1294 0.950 . S
C1318 C1313 1.363 . S
C1318 C1317 1.415 . S
C1319 H1295 0.951 . S
C1319 C1320 1.366 . S
C1319 C1321 1.388 . S
C1320 C1319 1.366 . S
C1320 C1324 1.385 . S
C1321 H1296 0.951 . S
C1321 C1319 1.388 . S
C1321 C1322 1.366 . S
C1322 C1321 1.366 . S
C1322 C1323 1.414 . S
C1322 C1325 1.499 . S
C1323 H1297 0.950 . S
C1323 C1322 1.414 . S
C1323 C1324 1.374 . S
C1324 H1298 0.950 . S
C1324 C1320 1.385 . S
C1324 C1323 1.374 . S
C1325 C1322 1.499 . S
C1325 C1326 1.373 . S
C1325 C1327 1.389 . S
C1326 H1299 0.950 . S
C1326 C1312 1.377 . S
C1326 C1325 1.373 . S
C1327 C1311 1.377 . S
C1327 C1325 1.389 . S
C1327 C1328 1.524 . S
C1328 C1327 1.524 . S
C1328 C1329 1.397 . S
C1328 C1333 1.363 . S
C1329 H1300 0.950 . S
C1329 C1328 1.397 . S
C1329 C1330 1.334 . S
C1330 H1301 0.950 . S
C1330 C1329 1.334 . S
C1330 C1331 1.287 . S
C1331 C1330 1.287 . S
C1331 C1332 1.524 . S
C1331 H1334 0.999 . S
C1332 H1302 0.950 . S
C1332 C1331 1.524 . S
C1332 C1333 1.415 . S
C1333 H1303 0.950 . S
C1333 C1328 1.363 . S
C1333 C1332 1.415 . S
H1334 C1331 0.999 . S
H1335 C1316 0.913 . S
H1336 C1354 0.951 . S
H1337 C1356 0.951 . S
H1338 C1358 0.950 . S
H1339 C1359 0.950 . S
H1340 C1361 0.950 . S
H1341 C1364 0.950 . S
H1342 C1365 0.950 . S
H1343 C1367 0.950 . S
H1344 C1368 0.950 . S
H1345 C1369 0.951 . S
H1346 C1371 0.951 . S
H1347 C1373 0.950 . S
H1348 C1374 0.950 . S
H1349 C1376 0.950 . S
H1350 C1379 0.950 . S
H1351 C1380 0.950 . S
H1352 C1382 0.950 . S
H1353 C1383 0.950 . S
C1354 H1336 0.951 . S
C1354 C1355 1.366 . S
C1354 C1356 1.388 . S
C1355 C1354 1.366 . S
C1355 C1359 1.385 . S
C1356 H1337 0.951 . S
C1356 C1354 1.388 . S
C1356 C1357 1.366 . S
C1357 C1356 1.366 . S
C1357 C1358 1.414 . S
C1357 C1360 1.499 . S
C1358 H1338 0.950 . S
C1358 C1357 1.414 . S
C1358 C1359 1.374 . S
C1359 H1339 0.950 . S
C1359 C1355 1.385 . S
C1359 C1358 1.374 . S
C1360 C1357 1.499 . S
C1360 C1361 1.373 . S
C1360 C1362 1.389 . S
C1361 H1340 0.950 . S
C1361 C1360 1.373 . S
C1361 C1377 1.377 . S
C1362 C1360 1.389 . S
C1362 C1363 1.524 . S
C1362 C1376 1.377 . S
C1363 C1362 1.524 . S
C1363 C1364 1.397 . S
C1363 C1368 1.363 . S
C1364 H1341 0.950 . S
C1364 C1363 1.397 . S
C1364 C1365 1.334 . S
C1365 H1342 0.950 . S
C1365 C1364 1.334 . S
C1365 C1366 1.287 . S
C1366 C1365 1.287 . S
C1366 C1367 1.524 . S
C1366 H1385 0.913 . S
C1367 H1343 0.950 . S
C1367 C1366 1.524 . S
C1367 C1368 1.415 . S
C1368 H1344 0.950 . S
C1368 C1363 1.363 . S
C1368 C1367 1.415 . S
C1369 H1345 0.951 . S
C1369 C1370 1.366 . S
C1369 C1371 1.388 . S
C1370 C1369 1.366 . S
C1370 C1374 1.385 . S
C1371 H1346 0.951 . S
C1371 C1369 1.388 . S
C1371 C1372 1.366 . S
C1372 C1371 1.366 . S
C1372 C1373 1.414 . S
C1372 C1375 1.499 . S
C1373 H1347 0.950 . S
C1373 C1372 1.414 . S
C1373 C1374 1.374 . S
C1374 H1348 0.950 . S
C1374 C1370 1.385 . S
C1374 C1373 1.374 . S
C1375 C1372 1.499 . S
C1375 C1376 1.373 . S
C1375 C1377 1.389 . S
C1376 H1349 0.950 . S
C1376 C1362 1.377 . S
C1376 C1375 1.373 . S
C1377 C1361 1.377 . S
C1377 C1375 1.389 . S
C1377 C1378 1.524 . S
C1378 C1377 1.524 . S
C1378 C1379 1.397 . S
C1378 C1383 1.363 . S
C1379 H1350 0.950 . S
C1379 C1378 1.397 . S
C1379 C1380 1.334 . S
C1380 H1351 0.950 . S
C1380 C1379 1.334 . S
C1380 C1381 1.287 . S
C1381 C1380 1.287 . S
C1381 C1382 1.524 . S
C1381 H1384 0.999 . S
C1382 H1352 0.950 . S
C1382 C1381 1.524 . S
C1382 C1383 1.415 . S
C1383 H1353 0.950 . S
C1383 C1378 1.363 . S
C1383 C1382 1.415 . S
H1384 C1381 0.999 . S
H1385 C1366 0.913 . S
H1386 C1404 0.951 . S
H1387 C1406 0.951 . S
H1388 C1408 0.950 . S
H1389 C1409 0.950 . S
H1390 C1411 0.950 . S
H1391 C1414 0.950 . S
H1392 C1415 0.950 . S
H1393 C1417 0.950 . S
H1394 C1418 0.950 . S
H1395 C1419 0.951 . S
H1396 C1421 0.951 . S
H1397 C1423 0.950 . S
H1398 C1424 0.950 . S
H1399 C1426 0.950 . S
H1400 C1429 0.950 . S
H1401 C1430 0.950 . S
H1402 C1432 0.950 . S
H1403 C1433 0.950 . S
C1404 H1386 0.951 . S
C1404 C1405 1.366 . S
C1404 C1406 1.388 . S
C1405 C1404 1.366 . S
C1405 C1409 1.385 . S
C1406 H1387 0.951 . S
C1406 C1404 1.388 . S
C1406 C1407 1.366 . S
C1407 C1406 1.366 . S
C1407 C1408 1.414 . S
C1407 C1410 1.499 . S
C1408 H1388 0.950 . S
C1408 C1407 1.414 . S
C1408 C1409 1.374 . S
C1409 H1389 0.950 . S
C1409 C1405 1.385 . S
C1409 C1408 1.374 . S
C1410 C1407 1.499 . S
C1410 C1411 1.373 . S
C1410 C1412 1.389 . S
C1411 H1390 0.950 . S
C1411 C1410 1.373 . S
C1411 C1427 1.377 . S
C1412 C1410 1.389 . S
C1412 C1413 1.524 . S
C1412 C1426 1.377 . S
C1413 C1412 1.524 . S
C1413 C1414 1.397 . S
C1413 C1418 1.363 . S
C1414 H1391 0.950 . S
C1414 C1413 1.397 . S
C1414 C1415 1.334 . S
C1415 H1392 0.950 . S
C1415 C1414 1.334 . S
C1415 C1416 1.287 . S
C1416 C1415 1.287 . S
C1416 C1417 1.524 . S
C1416 H1435 0.913 . S
C1417 H1393 0.950 . S
C1417 C1416 1.524 . S
C1417 C1418 1.415 . S
C1418 H1394 0.950 . S
C1418 C1413 1.363 . S
C1418 C1417 1.415 . S
C1419 H1395 0.951 . S
C1419 C1420 1.366 . S
C1419 C1421 1.388 . S
C1420 C1419 1.366 . S
C1420 C1424 1.385 . S
C1421 H1396 0.951 . S
C1421 C1419 1.388 . S
C1421 C1422 1.366 . S
C1422 C1421 1.366 . S
C1422 C1423 1.414 . S
C1422 C1425 1.499 . S
C1423 H1397 0.950 . S
C1423 C1422 1.414 . S
C1423 C1424 1.374 . S
C1424 H1398 0.950 . S
C1424 C1420 1.385 . S
C1424 C1423 1.374 . S
C1425 C1422 1.499 . S
C1425 C1426 1.373 . S
C1425 C1427 1.389 . S
C1426 H1399 0.950 . S
C1426 C1412 1.377 . S
C1426 C1425 1.373 . S
C1427 C1411 1.377 . S
C1427 C1425 1.389 . S
C1427 C1428 1.524 . S
C1428 C1427 1.524 . S
C1428 C1429 1.397 . S
C1428 C1433 1.363 . S
C1429 H1400 0.950 . S
C1429 C1428 1.397 . S
C1429 C1430 1.334 . S
C1430 H1401 0.950 . S
C1430 C1429 1.334 . S
C1430 C1431 1.287 . S
C1431 C1430 1.287 . S
C1431 C1432 1.524 . S
C1431 H1434 0.999 . S
C1432 H1402 0.950 . S
C1432 C1431 1.524 . S
C1432 C1433 1.415 . S
C1433 H1403 0.950 . S
C1433 C1428 1.363 . S
C1433 C1432 1.415 . S
H1434 C1431 0.999 . S
H1435 C1416 0.913 . S
H1436 C1454 0.951 . S
H1437 C1456 0.951 . S
H1438 C1458 0.950 . S
H1439 C1459 0.950 . S
H1440 C1461 0.950 . S
H1441 C1464 0.950 . S
H1442 C1465 0.950 . S
H1443 C1467 0.950 . S
H1444 C1468 0.950 . S
H1445 C1469 0.951 . S
H1446 C1471 0.951 . S
H1447 C1473 0.950 . S
H1448 C1474 0.950 . S
H1449 C1476 0.950 . S
H1450 C1479 0.950 . S
H1451 C1480 0.950 . S
H1452 C1482 0.950 . S
H1453 C1483 0.950 . S
C1454 H1436 0.951 . S
C1454 C1455 1.366 . S
C1454 C1456 1.388 . S
C1455 C1454 1.366 . S
C1455 C1459 1.385 . S
C1456 H1437 0.951 . S
C1456 C1454 1.388 . S
C1456 C1457 1.366 . S
C1457 C1456 1.366 . S
C1457 C1458 1.414 . S
C1457 C1460 1.499 . S
C1458 H1438 0.950 . S
C1458 C1457 1.414 . S
C1458 C1459 1.374 . S
C1459 H1439 0.950 . S
C1459 C1455 1.385 . S
C1459 C1458 1.374 . S
C1460 C1457 1.499 . S
C1460 C1461 1.373 . S
C1460 C1462 1.389 . S
C1461 H1440 0.950 . S
C1461 C1460 1.373 . S
C1461 C1477 1.377 . S
C1462 C1460 1.389 . S
C1462 C1463 1.524 . S
C1462 C1476 1.377 . S
C1463 C1462 1.524 . S
C1463 C1464 1.397 . S
C1463 C1468 1.363 . S
C1464 H1441 0.950 . S
C1464 C1463 1.397 . S
C1464 C1465 1.334 . S
C1465 H1442 0.950 . S
C1465 C1464 1.334 . S
C1465 C1466 1.287 . S
C1466 C1465 1.287 . S
C1466 C1467 1.524 . S
C1466 H1485 0.913 . S
C1467 H1443 0.950 . S
C1467 C1466 1.524 . S
C1467 C1468 1.415 . S
C1468 H1444 0.950 . S
C1468 C1463 1.363 . S
C1468 C1467 1.415 . S
C1469 H1445 0.951 . S
C1469 C1470 1.366 . S
C1469 C1471 1.388 . S
C1470 C1469 1.366 . S
C1470 C1474 1.385 . S
C1471 H1446 0.951 . S
C1471 C1469 1.388 . S
C1471 C1472 1.366 . S
C1472 C1471 1.366 . S
C1472 C1473 1.414 . S
C1472 C1475 1.499 . S
C1473 H1447 0.950 . S
C1473 C1472 1.414 . S
C1473 C1474 1.374 . S
C1474 H1448 0.950 . S
C1474 C1470 1.385 . S
C1474 C1473 1.374 . S
C1475 C1472 1.499 . S
C1475 C1476 1.373 . S
C1475 C1477 1.389 . S
C1476 H1449 0.950 . S
C1476 C1462 1.377 . S
C1476 C1475 1.373 . S
C1477 C1461 1.377 . S
C1477 C1475 1.389 . S
C1477 C1478 1.524 . S
C1478 C1477 1.524 . S
C1478 C1479 1.397 . S
C1478 C1483 1.363 . S
C1479 H1450 0.950 . S
C1479 C1478 1.397 . S
C1479 C1480 1.334 . S
C1480 H1451 0.950 . S
C1480 C1479 1.334 . S
C1480 C1481 1.287 . S
C1481 C1480 1.287 . S
C1481 C1482 1.524 . S
C1481 H1484 0.999 . S
C1482 H1452 0.950 . S
C1482 C1481 1.524 . S
C1482 C1483 1.415 . S
C1483 H1453 0.950 . S
C1483 C1478 1.363 . S
C1483 C1482 1.415 . S
H1484 C1481 0.999 . S
H1485 C1466 0.913 . S
H1486 C1504 0.951 . S
H1487 C1506 0.951 . S
H1488 C1508 0.950 . S
H1489 C1509 0.950 . S
H1490 C1511 0.950 . S
H1491 C1514 0.950 . S
H1492 C1515 0.950 . S
H1493 C1517 0.950 . S
H1494 C1518 0.950 . S
H1495 C1519 0.951 . S
H1496 C1521 0.951 . S
H1497 C1523 0.950 . S
H1498 C1524 0.950 . S
H1499 C1526 0.950 . S
H1500 C1529 0.950 . S
H1501 C1530 0.950 . S
H1502 C1532 0.950 . S
H1503 C1533 0.950 . S
C1504 H1486 0.951 . S
C1504 C1505 1.366 . S
C1504 C1506 1.388 . S
C1505 C1504 1.366 . S
C1505 C1509 1.385 . S
C1506 H1487 0.951 . S
C1506 C1504 1.388 . S
C1506 C1507 1.366 . S
C1507 C1506 1.366 . S
C1507 C1508 1.414 . S
C1507 C1510 1.499 . S
C1508 H1488 0.950 . S
C1508 C1507 1.414 . S
C1508 C1509 1.374 . S
C1509 H1489 0.950 . S
C1509 C1505 1.385 . S
C1509 C1508 1.374 . S
C1510 C1507 1.499 . S
C1510 C1511 1.373 . S
C1510 C1512 1.389 . S
C1511 H1490 0.950 . S
C1511 C1510 1.373 . S
C1511 C1527 1.377 . S
C1512 C1510 1.389 . S
C1512 C1513 1.524 . S
C1512 C1526 1.377 . S
C1513 C1512 1.524 . S
C1513 C1514 1.397 . S
C1513 C1518 1.363 . S
C1514 H1491 0.950 . S
C1514 C1513 1.397 . S
C1514 C1515 1.334 . S
C1515 H1492 0.950 . S
C1515 C1514 1.334 . S
C1515 C1516 1.287 . S
C1516 C1515 1.287 . S
C1516 C1517 1.524 . S
C1516 H1535 0.913 . S
C1517 H1493 0.950 . S
C1517 C1516 1.524 . S
C1517 C1518 1.415 . S
C1518 H1494 0.950 . S
C1518 C1513 1.363 . S
C1518 C1517 1.415 . S
C1519 H1495 0.951 . S
C1519 C1520 1.366 . S
C1519 C1521 1.388 . S
C1520 C1519 1.366 . S
C1520 C1524 1.385 . S
C1521 H1496 0.951 . S
C1521 C1519 1.388 . S
C1521 C1522 1.366 . S
C1522 C1521 1.366 . S
C1522 C1523 1.414 . S
C1522 C1525 1.499 . S
C1523 H1497 0.950 . S
C1523 C1522 1.414 . S
C1523 C1524 1.374 . S
C1524 H1498 0.950 . S
C1524 C1520 1.385 . S
C1524 C1523 1.374 . S
C1525 C1522 1.499 . S
C1525 C1526 1.373 . S
C1525 C1527 1.389 . S
C1526 H1499 0.950 . S
C1526 C1512 1.377 . S
C1526 C1525 1.373 . S
C1527 C1511 1.377 . S
C1527 C1525 1.389 . S
C1527 C1528 1.524 . S
C1528 C1527 1.524 . S
C1528 C1529 1.397 . S
C1528 C1533 1.363 . S
C1529 H1500 0.950 . S
C1529 C1528 1.397 . S
C1529 C1530 1.334 . S
C1530 H1501 0.950 . S
C1530 C1529 1.334 . S
C1530 C1531 1.287 . S
C1531 C1530 1.287 . S
C1531 C1532 1.524 . S
C1531 H1534 0.999 . S
C1532 H1502 0.950 . S
C1532 C1531 1.524 . S
C1532 C1533 1.415 . S
C1533 H1503 0.950 . S
C1533 C1528 1.363 . S
C1533 C1532 1.415 . S
H1534 C1531 0.999 . S
H1535 C1516 0.913 . S
H1536 C1554 0.951 . S
H1537 C1556 0.951 . S
H1538 C1558 0.950 . S
H1539 C1559 0.950 . S
H1540 C1561 0.950 . S
H1541 C1564 0.950 . S
H1542 C1565 0.950 . S
H1543 C1567 0.950 . S
H1544 C1568 0.950 . S
H1545 C1569 0.951 . S
H1546 C1571 0.951 . S
H1547 C1573 0.950 . S
H1548 C1574 0.950 . S
H1549 C1576 0.950 . S
H1550 C1579 0.950 . S
H1551 C1580 0.950 . S
H1552 C1582 0.950 . S
H1553 C1583 0.950 . S
C1554 H1536 0.951 . S
C1554 C1555 1.366 . S
C1554 C1556 1.388 . S
C1555 C1554 1.366 . S
C1555 C1559 1.385 . S
C1556 H1537 0.951 . S
C1556 C1554 1.388 . S
C1556 C1557 1.366 . S
C1557 C1556 1.366 . S
C1557 C1558 1.414 . S
C1557 C1560 1.499 . S
C1558 H1538 0.950 . S
C1558 C1557 1.414 . S
C1558 C1559 1.374 . S
C1559 H1539 0.950 . S
C1559 C1555 1.385 . S
C1559 C1558 1.374 . S
C1560 C1557 1.499 . S
C1560 C1561 1.373 . S
C1560 C1562 1.389 . S
C1561 H1540 0.950 . S
C1561 C1560 1.373 . S
C1561 C1577 1.377 1_554 S
C1562 C1560 1.389 . S
C1562 C1563 1.524 . S
C1562 C1576 1.377 1_554 S
C1563 C1562 1.524 . S
C1563 C1564 1.397 . S
C1563 C1568 1.363 . S
C1564 H1541 0.950 . S
C1564 C1563 1.397 . S
C1564 C1565 1.334 . S
C1565 H1542 0.950 . S
C1565 C1564 1.334 . S
C1565 C1566 1.287 . S
C1566 C1565 1.287 . S
C1566 C1567 1.524 . S
C1566 H1585 0.913 . S
C1567 H1543 0.950 . S
C1567 C1566 1.524 . S
C1567 C1568 1.415 . S
C1568 H1544 0.950 . S
C1568 C1563 1.363 . S
C1568 C1567 1.415 . S
C1569 H1545 0.951 . S
C1569 C1570 1.366 . S
C1569 C1571 1.388 . S
C1570 C1569 1.366 . S
C1570 C1574 1.385 . S
C1571 H1546 0.951 . S
C1571 C1569 1.388 . S
C1571 C1572 1.366 . S
C1572 C1571 1.366 . S
C1572 C1573 1.414 . S
C1572 C1575 1.499 . S
C1573 H1547 0.950 . S
C1573 C1572 1.414 . S
C1573 C1574 1.374 . S
C1574 H1548 0.950 . S
C1574 C1570 1.385 . S
C1574 C1573 1.374 . S
C1575 C1572 1.499 . S
C1575 C1576 1.373 . S
C1575 C1577 1.389 . S
C1576 H1549 0.950 . S
C1576 C1562 1.377 1_556 S
C1576 C1575 1.373 . S
C1577 C1561 1.377 1_556 S
C1577 C1575 1.389 . S
C1577 C1578 1.524 . S
C1578 C1577 1.524 . S
C1578 C1579 1.397 . S
C1578 C1583 1.363 . S
C1579 H1550 0.950 . S
C1579 C1578 1.397 . S
C1579 C1580 1.334 . S
C1580 H1551 0.950 . S
C1580 C1579 1.334 . S
C1580 C1581 1.287 . S
C1581 C1580 1.287 . S
C1581 C1582 1.524 . S
C1581 H1584 0.999 . S
C1582 H1552 0.950 . S
C1582 C1581 1.524 . S
C1582 C1583 1.415 . S
C1583 H1553 0.950 . S
C1583 C1578 1.363 . S
C1583 C1582 1.415 . S
H1584 C1581 0.999 . S
H1585 C1566 0.913 . S
H1586 C1604 0.951 . S
H1587 C1606 0.951 . S
H1588 C1608 0.950 . S
H1589 C1609 0.950 . S
H1590 C1611 0.950 . S
H1591 C1614 0.950 . S
H1592 C1615 0.950 . S
H1593 C1617 0.950 . S
H1594 C1618 0.950 . S
H1595 C1619 0.951 . S
H1596 C1621 0.951 . S
H1597 C1623 0.950 . S
H1598 C1624 0.950 . S
H1599 C1626 0.950 . S
H1600 C1629 0.950 . S
H1601 C1630 0.950 . S
H1602 C1632 0.950 . S
H1603 C1633 0.950 . S
C1604 H1586 0.951 . S
C1604 C1605 1.366 . S
C1604 C1606 1.388 . S
C1605 C1604 1.366 . S
C1605 C1609 1.385 . S
C1606 H1587 0.951 . S
C1606 C1604 1.388 . S
C1606 C1607 1.366 . S
C1607 C1606 1.366 . S
C1607 C1608 1.414 . S
C1607 C1610 1.499 . S
C1608 H1588 0.950 . S
C1608 C1607 1.414 . S
C1608 C1609 1.374 . S
C1609 H1589 0.950 . S
C1609 C1605 1.385 . S
C1609 C1608 1.374 . S
C1610 C1607 1.499 . S
C1610 C1611 1.373 . S
C1610 C1612 1.389 . S
C1611 H1590 0.950 . S
C1611 C1610 1.373 . S
C1611 C1627 1.377 1_556 S
C1612 C1610 1.389 . S
C1612 C1613 1.524 . S
C1612 C1626 1.377 1_556 S
C1613 C1612 1.524 . S
C1613 C1614 1.397 . S
C1613 C1618 1.363 . S
C1614 H1591 0.950 . S
C1614 C1613 1.397 . S
C1614 C1615 1.334 . S
C1615 H1592 0.950 . S
C1615 C1614 1.334 . S
C1615 C1616 1.287 . S
C1616 C1615 1.287 . S
C1616 C1617 1.524 . S
C1616 H1635 0.913 . S
C1617 H1593 0.950 . S
C1617 C1616 1.524 . S
C1617 C1618 1.415 . S
C1618 H1594 0.950 . S
C1618 C1613 1.363 . S
C1618 C1617 1.415 . S
C1619 H1595 0.951 . S
C1619 C1620 1.366 . S
C1619 C1621 1.388 . S
C1620 C1619 1.366 . S
C1620 C1624 1.385 . S
C1621 H1596 0.951 . S
C1621 C1619 1.388 . S
C1621 C1622 1.366 . S
C1622 C1621 1.366 . S
C1622 C1623 1.414 . S
C1622 C1625 1.499 . S
C1623 H1597 0.950 . S
C1623 C1622 1.414 . S
C1623 C1624 1.374 . S
C1624 H1598 0.950 . S
C1624 C1620 1.385 . S
C1624 C1623 1.374 . S
C1625 C1622 1.499 . S
C1625 C1626 1.373 . S
C1625 C1627 1.389 . S
C1626 H1599 0.950 . S
C1626 C1612 1.377 1_554 S
C1626 C1625 1.373 . S
C1627 C1611 1.377 1_554 S
C1627 C1625 1.389 . S
C1627 C1628 1.524 . S
C1628 C1627 1.524 . S
C1628 C1629 1.397 . S
C1628 C1633 1.363 . S
C1629 H1600 0.950 . S
C1629 C1628 1.397 . S
C1629 C1630 1.334 . S
C1630 H1601 0.950 . S
C1630 C1629 1.334 . S
C1630 C1631 1.287 . S
C1631 C1630 1.287 . S
C1631 C1632 1.524 . S
C1631 H1634 0.999 . S
C1632 H1602 0.950 . S
C1632 C1631 1.524 . S
C1632 C1633 1.415 . S
C1633 H1603 0.950 . S
C1633 C1628 1.363 . S
C1633 C1632 1.415 . S
H1634 C1631 0.999 . S
H1635 C1616 0.913 . S
H1636 C1654 0.951 . S
H1637 C1656 0.951 . S
H1638 C1658 0.950 . S
H1639 C1659 0.950 . S
H1640 C1661 0.950 . S
H1641 C1664 0.950 . S
H1642 C1665 0.950 . S
H1643 C1667 0.950 . S
H1644 C1668 0.950 . S
H1645 C1669 0.951 . S
H1646 C1671 0.951 . S
H1647 C1673 0.950 . S
H1648 C1674 0.950 . S
H1649 C1676 0.950 . S
H1650 C1679 0.950 . S
H1651 C1680 0.950 . S
H1652 C1682 0.950 . S
H1653 C1683 0.950 . S
C1654 H1636 0.951 . S
C1654 C1655 1.366 . S
C1654 C1656 1.388 . S
C1655 C1654 1.366 . S
C1655 C1659 1.385 . S
C1656 H1637 0.951 . S
C1656 C1654 1.388 . S
C1656 C1657 1.366 . S
C1657 C1656 1.366 . S
C1657 C1658 1.414 . S
C1657 C1660 1.499 . S
C1658 H1638 0.950 . S
C1658 C1657 1.414 . S
C1658 C1659 1.374 . S
C1659 H1639 0.950 . S
C1659 C1655 1.385 . S
C1659 C1658 1.374 . S
C1660 C1657 1.499 . S
C1660 C1661 1.373 . S
C1660 C1662 1.389 . S
C1661 H1640 0.950 . S
C1661 C1660 1.373 . S
C1661 C1677 1.377 1_556 S
C1662 C1660 1.389 . S
C1662 C1663 1.524 . S
C1662 C1676 1.377 1_556 S
C1663 C1662 1.524 . S
C1663 C1664 1.397 . S
C1663 C1668 1.363 . S
C1664 H1641 0.950 . S
C1664 C1663 1.397 . S
C1664 C1665 1.334 . S
C1665 H1642 0.950 . S
C1665 C1664 1.334 . S
C1665 C1666 1.287 . S
C1666 C1665 1.287 . S
C1666 C1667 1.524 . S
C1666 H1685 0.913 . S
C1667 H1643 0.950 . S
C1667 C1666 1.524 . S
C1667 C1668 1.415 . S
C1668 H1644 0.950 . S
C1668 C1663 1.363 . S
C1668 C1667 1.415 . S
C1669 H1645 0.951 . S
C1669 C1670 1.366 . S
C1669 C1671 1.388 . S
C1670 C1669 1.366 . S
C1670 C1674 1.385 . S
C1671 H1646 0.951 . S
C1671 C1669 1.388 . S
C1671 C1672 1.366 . S
C1672 C1671 1.366 . S
C1672 C1673 1.414 . S
C1672 C1675 1.499 . S
C1673 H1647 0.950 . S
C1673 C1672 1.414 . S
C1673 C1674 1.374 . S
C1674 H1648 0.950 . S
C1674 C1670 1.385 . S
C1674 C1673 1.374 . S
C1675 C1672 1.499 . S
C1675 C1676 1.373 . S
C1675 C1677 1.389 . S
C1676 H1649 0.950 . S
C1676 C1662 1.377 1_554 S
C1676 C1675 1.373 . S
C1677 C1661 1.377 1_554 S
C1677 C1675 1.389 . S
C1677 C1678 1.524 . S
C1678 C1677 1.524 . S
C1678 C1679 1.397 . S
C1678 C1683 1.363 . S
C1679 H1650 0.950 . S
C1679 C1678 1.397 . S
C1679 C1680 1.334 . S
C1680 H1651 0.950 . S
C1680 C1679 1.334 . S
C1680 C1681 1.287 . S
C1681 C1680 1.287 . S
C1681 C1682 1.524 . S
C1681 H1684 0.999 . S
C1682 H1652 0.950 . S
C1682 C1681 1.524 . S
C1682 C1683 1.415 . S
C1683 H1653 0.950 . S
C1683 C1678 1.363 . S
C1683 C1682 1.415 . S
H1684 C1681 0.999 . S
H1685 C1666 0.913 . S
H1686 C1704 0.951 . S
H1687 C1706 0.951 . S
H1688 C1708 0.950 . S
H1689 C1709 0.950 . S
H1690 C1711 0.950 . S
H1691 C1714 0.950 . S
H1692 C1715 0.950 . S
H1693 C1717 0.950 . S
H1694 C1718 0.950 . S
H1695 C1719 0.951 . S
H1696 C1721 0.951 . S
H1697 C1723 0.950 . S
H1698 C1724 0.950 . S
H1699 C1726 0.950 . S
H1700 C1729 0.950 . S
H1701 C1730 0.950 . S
H1702 C1732 0.950 . S
H1703 C1733 0.950 . S
C1704 H1686 0.951 . S
C1704 C1705 1.366 . S
C1704 C1706 1.388 . S
C1705 C1704 1.366 . S
C1705 C1709 1.385 . S
C1706 H1687 0.951 . S
C1706 C1704 1.388 . S
C1706 C1707 1.366 . S
C1707 C1706 1.366 . S
C1707 C1708 1.414 . S
C1707 C1710 1.499 . S
C1708 H1688 0.950 . S
C1708 C1707 1.414 . S
C1708 C1709 1.374 . S
C1709 H1689 0.950 . S
C1709 C1705 1.385 . S
C1709 C1708 1.374 . S
C1710 C1707 1.499 . S
C1710 C1711 1.373 . S
C1710 C1712 1.389 . S
C1711 H1690 0.950 . S
C1711 C1710 1.373 . S
C1711 C1727 1.377 1_554 S
C1712 C1710 1.389 . S
C1712 C1713 1.524 . S
C1712 C1726 1.377 1_554 S
C1713 C1712 1.524 . S
C1713 C1714 1.397 . S
C1713 C1718 1.363 . S
C1714 H1691 0.950 . S
C1714 C1713 1.397 . S
C1714 C1715 1.334 . S
C1715 H1692 0.950 . S
C1715 C1714 1.334 . S
C1715 C1716 1.287 . S
C1716 C1715 1.287 . S
C1716 C1717 1.524 . S
C1716 H1735 0.913 . S
C1717 H1693 0.950 . S
C1717 C1716 1.524 . S
C1717 C1718 1.415 . S
C1718 H1694 0.950 . S
C1718 C1713 1.363 . S
C1718 C1717 1.415 . S
C1719 H1695 0.951 . S
C1719 C1720 1.366 . S
C1719 C1721 1.388 . S
C1720 C1719 1.366 . S
C1720 C1724 1.385 . S
C1721 H1696 0.951 . S
C1721 C1719 1.388 . S
C1721 C1722 1.366 . S
C1722 C1721 1.366 . S
C1722 C1723 1.414 . S
C1722 C1725 1.499 . S
C1723 H1697 0.950 . S
C1723 C1722 1.414 . S
C1723 C1724 1.374 . S
C1724 H1698 0.950 . S
C1724 C1720 1.385 . S
C1724 C1723 1.374 . S
C1725 C1722 1.499 . S
C1725 C1726 1.373 . S
C1725 C1727 1.389 . S
C1726 H1699 0.950 . S
C1726 C1712 1.377 1_556 S
C1726 C1725 1.373 . S
C1727 C1711 1.377 1_556 S
C1727 C1725 1.389 . S
C1727 C1728 1.524 . S
C1728 C1727 1.524 . S
C1728 C1729 1.397 . S
C1728 C1733 1.363 . S
C1729 H1700 0.950 . S
C1729 C1728 1.397 . S
C1729 C1730 1.334 . S
C1730 H1701 0.950 . S
C1730 C1729 1.334 . S
C1730 C1731 1.287 . S
C1731 C1730 1.287 . S
C1731 C1732 1.524 . S
C1731 H1734 0.999 . S
C1732 H1702 0.950 . S
C1732 C1731 1.524 . S
C1732 C1733 1.415 . S
C1733 H1703 0.950 . S
C1733 C1728 1.363 . S
C1733 C1732 1.415 . S
H1734 C1731 0.999 . S
H1735 C1716 0.913 . S
H1736 C1754 0.951 . S
H1737 C1756 0.951 . S
H1738 C1758 0.950 . S
H1739 C1759 0.950 . S
H1740 C1761 0.950 . S
H1741 C1764 0.950 . S
H1742 C1765 0.950 . S
H1743 C1767 0.950 . S
H1744 C1768 0.950 . S
H1745 C1769 0.951 . S
H1746 C1771 0.951 . S
H1747 C1773 0.950 . S
H1748 C1774 0.950 . S
H1749 C1776 0.950 . S
H1750 C1779 0.950 . S
H1751 C1780 0.950 . S
H1752 C1782 0.950 . S
H1753 C1783 0.950 . S
C1754 H1736 0.951 . S
C1754 C1755 1.366 . S
C1754 C1756 1.388 . S
C1755 C1754 1.366 . S
C1755 C1759 1.385 . S
C1756 H1737 0.951 . S
C1756 C1754 1.388 . S
C1756 C1757 1.366 . S
C1757 C1756 1.366 . S
C1757 C1758 1.414 . S
C1757 C1760 1.499 . S
C1758 H1738 0.950 . S
C1758 C1757 1.414 . S
C1758 C1759 1.374 . S
C1759 H1739 0.950 . S
C1759 C1755 1.385 . S
C1759 C1758 1.374 . S
C1760 C1757 1.499 . S
C1760 C1761 1.373 . S
C1760 C1762 1.389 . S
C1761 H1740 0.950 . S
C1761 C1760 1.373 . S
C1761 C1777 1.377 1_554 S
C1762 C1760 1.389 . S
C1762 C1763 1.524 . S
C1762 C1776 1.377 1_554 S
C1763 C1762 1.524 . S
C1763 C1764 1.397 . S
C1763 C1768 1.363 . S
C1764 H1741 0.950 . S
C1764 C1763 1.397 . S
C1764 C1765 1.334 . S
C1765 H1742 0.950 . S
C1765 C1764 1.334 . S
C1765 C1766 1.287 . S
C1766 C1765 1.287 . S
C1766 C1767 1.524 . S
C1766 H1785 0.913 . S
C1767 H1743 0.950 . S
C1767 C1766 1.524 . S
C1767 C1768 1.415 . S
C1768 H1744 0.950 . S
C1768 C1763 1.363 . S
C1768 C1767 1.415 . S
C1769 H1745 0.951 . S
C1769 C1770 1.366 . S
C1769 C1771 1.388 . S
C1770 C1769 1.366 . S
C1770 C1774 1.385 . S
C1771 H1746 0.951 . S
C1771 C1769 1.388 . S
C1771 C1772 1.366 . S
C1772 C1771 1.366 . S
C1772 C1773 1.414 . S
C1772 C1775 1.499 . S
C1773 H1747 0.950 . S
C1773 C1772 1.414 . S
C1773 C1774 1.374 . S
C1774 H1748 0.950 . S
C1774 C1770 1.385 . S
C1774 C1773 1.374 . S
C1775 C1772 1.499 . S
C1775 C1776 1.373 . S
C1775 C1777 1.389 . S
C1776 H1749 0.950 . S
C1776 C1762 1.377 1_556 S
C1776 C1775 1.373 . S
C1777 C1761 1.377 1_556 S
C1777 C1775 1.389 . S
C1777 C1778 1.524 . S
C1778 C1777 1.524 . S
C1778 C1779 1.397 . S
C1778 C1783 1.363 . S
C1779 H1750 0.950 . S
C1779 C1778 1.397 . S
C1779 C1780 1.334 . S
C1780 H1751 0.950 . S
C1780 C1779 1.334 . S
C1780 C1781 1.287 . S
C1781 C1780 1.287 . S
C1781 C1782 1.524 . S
C1781 H1784 0.999 . S
C1782 H1752 0.950 . S
C1782 C1781 1.524 . S
C1782 C1783 1.415 . S
C1783 H1753 0.950 . S
C1783 C1778 1.363 . S
C1783 C1782 1.415 . S
H1784 C1781 0.999 . S
H1785 C1766 0.913 . S
H1786 C1804 0.951 . S
H1787 C1806 0.951 . S
H1788 C1808 0.950 . S
H1789 C1809 0.950 . S
H1790 C1811 0.950 . S
H1791 C1814 0.950 . S
H1792 C1815 0.950 . S
H1793 C1817 0.950 . S
H1794 C1818 0.950 . S
H1795 C1819 0.951 . S
H1796 C1821 0.951 . S
H1797 C1823 0.950 . S
H1798 C1824 0.950 . S
H1799 C1826 0.950 . S
H1800 C1829 0.950 . S
H1801 C1830 0.950 . S
H1802 C1832 0.950 . S
H1803 C1833 0.950 . S
C1804 H1786 0.951 . S
C1804 C1805 1.366 . S
C1804 C1806 1.388 . S
C1805 C1804 1.366 . S
C1805 C1809 1.385 . S
C1806 H1787 0.951 . S
C1806 C1804 1.388 . S
C1806 C1807 1.366 . S
C1807 C1806 1.366 . S
C1807 C1808 1.414 . S
C1807 C1810 1.499 . S
C1808 H1788 0.950 . S
C1808 C1807 1.414 . S
C1808 C1809 1.374 . S
C1809 H1789 0.950 . S
C1809 C1805 1.385 . S
C1809 C1808 1.374 . S
C1810 C1807 1.499 . S
C1810 C1811 1.373 . S
C1810 C1812 1.389 . S
C1811 H1790 0.950 . S
C1811 C1810 1.373 . S
C1811 C1827 1.377 1_556 S
C1812 C1810 1.389 . S
C1812 C1813 1.524 . S
C1812 C1826 1.377 1_556 S
C1813 C1812 1.524 . S
C1813 C1814 1.397 . S
C1813 C1818 1.363 . S
C1814 H1791 0.950 . S
C1814 C1813 1.397 . S
C1814 C1815 1.334 . S
C1815 H1792 0.950 . S
C1815 C1814 1.334 . S
C1815 C1816 1.287 . S
C1816 C1815 1.287 . S
C1816 C1817 1.524 . S
C1816 H1835 0.913 . S
C1817 H1793 0.950 . S
C1817 C1816 1.524 . S
C1817 C1818 1.415 . S
C1818 H1794 0.950 . S
C1818 C1813 1.363 . S
C1818 C1817 1.415 . S
C1819 H1795 0.951 . S
C1819 C1820 1.366 . S
C1819 C1821 1.388 . S
C1820 C1819 1.366 . S
C1820 C1824 1.385 . S
C1821 H1796 0.951 . S
C1821 C1819 1.388 . S
C1821 C1822 1.366 . S
C1822 C1821 1.366 . S
C1822 C1823 1.414 . S
C1822 C1825 1.499 . S
C1823 H1797 0.950 . S
C1823 C1822 1.414 . S
C1823 C1824 1.374 . S
C1824 H1798 0.950 . S
C1824 C1820 1.385 . S
C1824 C1823 1.374 . S
C1825 C1822 1.499 . S
C1825 C1826 1.373 . S
C1825 C1827 1.389 . S
C1826 H1799 0.950 . S
C1826 C1812 1.377 1_554 S
C1826 C1825 1.373 . S
C1827 C1811 1.377 1_554 S
C1827 C1825 1.389 . S
C1827 C1828 1.524 . S
C1828 C1827 1.524 . S
C1828 C1829 1.397 . S
C1828 C1833 1.363 . S
C1829 H1800 0.950 . S
C1829 C1828 1.397 . S
C1829 C1830 1.334 . S
C1830 H1801 0.950 . S
C1830 C1829 1.334 . S
C1830 C1831 1.287 . S
C1831 C1830 1.287 . S
C1831 C1832 1.524 . S
C1831 H1834 0.999 . S
C1832 H1802 0.950 . S
C1832 C1831 1.524 . S
C1832 C1833 1.415 . S
C1833 H1803 0.950 . S
C1833 C1828 1.363 . S
C1833 C1832 1.415 . S
H1834 C1831 0.999 . S
H1835 C1816 0.913 . S
H1836 C1854 0.951 . S
H1837 C1856 0.951 . S
H1838 C1858 0.950 . S
H1839 C1859 0.950 . S
H1840 C1861 0.950 . S
H1841 C1864 0.950 . S
H1842 C1865 0.950 . S
H1843 C1867 0.950 . S
H1844 C1868 0.950 . S
H1845 C1869 0.951 . S
H1846 C1871 0.951 . S
H1847 C1873 0.950 . S
H1848 C1874 0.950 . S
H1849 C1876 0.950 . S
H1850 C1879 0.950 . S
H1851 C1880 0.950 . S
H1852 C1882 0.950 . S
H1853 C1883 0.950 . S
C1854 H1836 0.951 . S
C1854 C1855 1.366 . S
C1854 C1856 1.388 . S
C1855 C1854 1.366 . S
C1855 C1859 1.385 . S
C1856 H1837 0.951 . S
C1856 C1854 1.388 . S
C1856 C1857 1.366 . S
C1857 C1856 1.366 . S
C1857 C1858 1.414 . S
C1857 C1860 1.499 . S
C1858 H1838 0.950 . S
C1858 C1857 1.414 . S
C1858 C1859 1.374 . S
C1859 H1839 0.950 . S
C1859 C1855 1.385 . S
C1859 C1858 1.374 . S
C1860 C1857 1.499 . S
C1860 C1861 1.373 . S
C1860 C1862 1.389 . S
C1861 H1840 0.950 . S
C1861 C1860 1.373 . S
C1861 C1877 1.377 . S
C1862 C1860 1.389 . S
C1862 C1863 1.524 . S
C1862 C1876 1.377 . S
C1863 C1862 1.524 . S
C1863 C1864 1.397 . S
C1863 C1868 1.363 . S
C1864 H1841 0.950 . S
C1864 C1863 1.397 . S
C1864 C1865 1.334 . S
C1865 H1842 0.950 . S
C1865 C1864 1.334 . S
C1865 C1866 1.287 . S
C1866 C1865 1.287 . S
C1866 C1867 1.524 . S
C1866 H1885 0.913 . S
C1867 H1843 0.950 . S
C1867 C1866 1.524 . S
C1867 C1868 1.415 . S
C1868 H1844 0.950 . S
C1868 C1863 1.363 . S
C1868 C1867 1.415 . S
C1869 H1845 0.951 . S
C1869 C1870 1.366 . S
C1869 C1871 1.388 . S
C1870 C1869 1.366 . S
C1870 C1874 1.385 . S
C1871 H1846 0.951 . S
C1871 C1869 1.388 . S
C1871 C1872 1.366 . S
C1872 C1871 1.366 . S
C1872 C1873 1.414 . S
C1872 C1875 1.499 . S
C1873 H1847 0.950 . S
C1873 C1872 1.414 . S
C1873 C1874 1.374 . S
C1874 H1848 0.950 . S
C1874 C1870 1.385 . S
C1874 C1873 1.374 . S
C1875 C1872 1.499 . S
C1875 C1876 1.373 . S
C1875 C1877 1.389 . S
C1876 H1849 0.950 . S
C1876 C1862 1.377 . S
C1876 C1875 1.373 . S
C1877 C1861 1.377 . S
C1877 C1875 1.389 . S
C1877 C1878 1.524 . S
C1878 C1877 1.524 . S
C1878 C1879 1.397 . S
C1878 C1883 1.363 . S
C1879 H1850 0.950 . S
C1879 C1878 1.397 . S
C1879 C1880 1.334 . S
C1880 H1851 0.950 . S
C1880 C1879 1.334 . S
C1880 C1881 1.287 . S
C1881 C1880 1.287 . S
C1881 C1882 1.524 . S
C1881 H1884 0.999 . S
C1882 H1852 0.950 . S
C1882 C1881 1.524 . S
C1882 C1883 1.415 . S
C1883 H1853 0.950 . S
C1883 C1878 1.363 . S
C1883 C1882 1.415 . S
H1884 C1881 0.999 . S
H1885 C1866 0.913 . S
H1886 C1904 0.951 . S
H1887 C1906 0.951 . S
H1888 C1908 0.950 . S
H1889 C1909 0.950 . S
H1890 C1911 0.950 . S
H1891 C1914 0.950 . S
H1892 C1915 0.950 . S
H1893 C1917 0.950 . S
H1894 C1918 0.950 . S
H1895 C1919 0.951 . S
H1896 C1921 0.951 . S
H1897 C1923 0.950 . S
H1898 C1924 0.950 . S
H1899 C1926 0.950 . S
H1900 C1929 0.950 . S
H1901 C1930 0.950 . S
H1902 C1932 0.950 . S
H1903 C1933 0.950 . S
C1904 H1886 0.951 . S
C1904 C1905 1.366 . S
C1904 C1906 1.388 . S
C1905 C1904 1.366 . S
C1905 C1909 1.385 . S
C1906 H1887 0.951 . S
C1906 C1904 1.388 . S
C1906 C1907 1.366 . S
C1907 C1906 1.366 . S
C1907 C1908 1.414 . S
C1907 C1910 1.499 . S
C1908 H1888 0.950 . S
C1908 C1907 1.414 . S
C1908 C1909 1.374 . S
C1909 H1889 0.950 . S
C1909 C1905 1.385 . S
C1909 C1908 1.374 . S
C1910 C1907 1.499 . S
C1910 C1911 1.373 . S
C1910 C1912 1.389 . S
C1911 H1890 0.950 . S
C1911 C1910 1.373 . S
C1911 C1927 1.377 . S
C1912 C1910 1.389 . S
C1912 C1913 1.524 . S
C1912 C1926 1.377 . S
C1913 C1912 1.524 . S
C1913 C1914 1.397 . S
C1913 C1918 1.363 . S
C1914 H1891 0.950 . S
C1914 C1913 1.397 . S
C1914 C1915 1.334 . S
C1915 H1892 0.950 . S
C1915 C1914 1.334 . S
C1915 C1916 1.287 . S
C1916 C1915 1.287 . S
C1916 C1917 1.524 . S
C1916 H1935 0.913 . S
C1917 H1893 0.950 . S
C1917 C1916 1.524 . S
C1917 C1918 1.415 . S
C1918 H1894 0.950 . S
C1918 C1913 1.363 . S
C1918 C1917 1.415 . S
C1919 H1895 0.951 . S
C1919 C1920 1.366 . S
C1919 C1921 1.388 . S
C1920 C1919 1.366 . S
C1920 C1924 1.385 . S
C1921 H1896 0.951 . S
C1921 C1919 1.388 . S
C1921 C1922 1.366 . S
C1922 C1921 1.366 . S
C1922 C1923 1.414 . S
C1922 C1925 1.499 . S
C1923 H1897 0.950 . S
C1923 C1922 1.414 . S
C1923 C1924 1.374 . S
C1924 H1898 0.950 . S
C1924 C1920 1.385 . S
C1924 C1923 1.374 . S
C1925 C1922 1.499 . S
C1925 C1926 1.373 . S
C1925 C1927 1.389 . S
C1926 H1899 0.950 . S
C1926 C1912 1.377 . S
C1926 C1925 1.373 . S
C1927 C1911 1.377 . S
C1927 C1925 1.389 . S
C1927 C1928 1.524 . S
C1928 C1927 1.524 . S
C1928 C1929 1.397 . S
C1928 C1933 1.363 . S
C1929 H1900 0.950 . S
C1929 C1928 1.397 . S
C1929 C1930 1.334 . S
C1930 H1901 0.950 . S
C1930 C1929 1.334 . S
C1930 C1931 1.287 . S
C1931 C1930 1.287 . S
C1931 C1932 1.524 . S
C1931 H1934 0.999 . S
C1932 H1902 0.950 . S
C1932 C1931 1.524 . S
C1932 C1933 1.415 . S
C1933 H1903 0.950 . S
C1933 C1928 1.363 . S
C1933 C1932 1.415 . S
H1934 C1931 0.999 . S
H1935 C1916 0.913 . S
H1936 C1954 0.951 . S
H1937 C1956 0.951 . S
H1938 C1958 0.950 . S
H1939 C1959 0.950 . S
H1940 C1961 0.950 . S
H1941 C1964 0.950 . S
H1942 C1965 0.950 . S
H1943 C1967 0.950 . S
H1944 C1968 0.950 . S
H1945 C1969 0.951 . S
H1946 C1971 0.951 . S
H1947 C1973 0.950 . S
H1948 C1974 0.950 . S
H1949 C1976 0.950 . S
H1950 C1979 0.950 . S
H1951 C1980 0.950 . S
H1952 C1982 0.950 . S
H1953 C1983 0.950 . S
C1954 H1936 0.951 . S
C1954 C1955 1.366 . S
C1954 C1956 1.388 . S
C1955 C1954 1.366 . S
C1955 C1959 1.385 . S
C1956 H1937 0.951 . S
C1956 C1954 1.388 . S
C1956 C1957 1.366 . S
C1957 C1956 1.366 . S
C1957 C1958 1.414 . S
C1957 C1960 1.499 . S
C1958 H1938 0.950 . S
C1958 C1957 1.414 . S
C1958 C1959 1.374 . S
C1959 H1939 0.950 . S
C1959 C1955 1.385 . S
C1959 C1958 1.374 . S
C1960 C1957 1.499 . S
C1960 C1961 1.373 . S
C1960 C1962 1.389 . S
C1961 H1940 0.950 . S
C1961 C1960 1.373 . S
C1961 C1977 1.377 . S
C1962 C1960 1.389 . S
C1962 C1963 1.524 . S
C1962 C1976 1.377 . S
C1963 C1962 1.524 . S
C1963 C1964 1.397 . S
C1963 C1968 1.363 . S
C1964 H1941 0.950 . S
C1964 C1963 1.397 . S
C1964 C1965 1.334 . S
C1965 H1942 0.950 . S
C1965 C1964 1.334 . S
C1965 C1966 1.287 . S
C1966 C1965 1.287 . S
C1966 C1967 1.524 . S
C1966 H1985 0.913 . S
C1967 H1943 0.950 . S
C1967 C1966 1.524 . S
C1967 C1968 1.415 . S
C1968 H1944 0.950 . S
C1968 C1963 1.363 . S
C1968 C1967 1.415 . S
C1969 H1945 0.951 . S
C1969 C1970 1.366 . S
C1969 C1971 1.388 . S
C1970 C1969 1.366 . S
C1970 C1974 1.385 . S
C1971 H1946 0.951 . S
C1971 C1969 1.388 . S
C1971 C1972 1.366 . S
C1972 C1971 1.366 . S
C1972 C1973 1.414 . S
C1972 C1975 1.499 . S
C1973 H1947 0.950 . S
C1973 C1972 1.414 . S
C1973 C1974 1.374 . S
C1974 H1948 0.950 . S
C1974 C1970 1.385 . S
C1974 C1973 1.374 . S
C1975 C1972 1.499 . S
C1975 C1976 1.373 . S
C1975 C1977 1.389 . S
C1976 H1949 0.950 . S
C1976 C1962 1.377 . S
C1976 C1975 1.373 . S
C1977 C1961 1.377 . S
C1977 C1975 1.389 . S
C1977 C1978 1.524 . S
C1978 C1977 1.524 . S
C1978 C1979 1.397 . S
C1978 C1983 1.363 . S
C1979 H1950 0.950 . S
C1979 C1978 1.397 . S
C1979 C1980 1.334 . S
C1980 H1951 0.950 . S
C1980 C1979 1.334 . S
C1980 C1981 1.287 . S
C1981 C1980 1.287 . S
C1981 C1982 1.524 . S
C1981 H1984 0.999 . S
C1982 H1952 0.950 . S
C1982 C1981 1.524 . S
C1982 C1983 1.415 . S
C1983 H1953 0.950 . S
C1983 C1978 1.363 . S
C1983 C1982 1.415 . S
H1984 C1981 0.999 . S
H1985 C1966 0.913 . S
H1986 C2004 0.951 . S
H1987 C2006 0.951 . S
H1988 C2008 0.950 . S
H1989 C2009 0.950 . S
H1990 C2011 0.950 . S
H1991 C2014 0.950 . S
H1992 C2015 0.950 . S
H1993 C2017 0.950 . S
H1994 C2018 0.950 . S
H1995 C2019 0.951 . S
H1996 C2021 0.951 . S
H1997 C2023 0.950 . S
H1998 C2024 0.950 . S
H1999 C2026 0.950 . S
H2000 C2029 0.950 . S
H2001 C2030 0.950 . S
H2002 C2032 0.950 . S
H2003 C2033 0.950 . S
C2004 H1986 0.951 . S
C2004 C2005 1.366 . S
C2004 C2006 1.388 . S
C2005 C2004 1.366 . S
C2005 C2009 1.385 . S
C2006 H1987 0.951 . S
C2006 C2004 1.388 . S
C2006 C2007 1.366 . S
C2007 C2006 1.366 . S
C2007 C2008 1.414 . S
C2007 C2010 1.499 . S
C2008 H1988 0.950 . S
C2008 C2007 1.414 . S
C2008 C2009 1.374 . S
C2009 H1989 0.950 . S
C2009 C2005 1.385 . S
C2009 C2008 1.374 . S
C2010 C2007 1.499 . S
C2010 C2011 1.373 . S
C2010 C2012 1.389 . S
C2011 H1990 0.950 . S
C2011 C2010 1.373 . S
C2011 C2027 1.377 . S
C2012 C2010 1.389 . S
C2012 C2013 1.524 . S
C2012 C2026 1.377 . S
C2013 C2012 1.524 . S
C2013 C2014 1.397 . S
C2013 C2018 1.363 . S
C2014 H1991 0.950 . S
C2014 C2013 1.397 . S
C2014 C2015 1.334 . S
C2015 H1992 0.950 . S
C2015 C2014 1.334 . S
C2015 C2016 1.287 . S
C2016 C2015 1.287 . S
C2016 C2017 1.524 . S
C2016 H2035 0.913 . S
C2017 H1993 0.950 . S
C2017 C2016 1.524 . S
C2017 C2018 1.415 . S
C2018 H1994 0.950 . S
C2018 C2013 1.363 . S
C2018 C2017 1.415 . S
C2019 H1995 0.951 . S
C2019 C2020 1.366 . S
C2019 C2021 1.388 . S
C2020 C2019 1.366 . S
C2020 C2024 1.385 . S
C2021 H1996 0.951 . S
C2021 C2019 1.388 . S
C2021 C2022 1.366 . S
C2022 C2021 1.366 . S
C2022 C2023 1.414 . S
C2022 C2025 1.499 . S
C2023 H1997 0.950 . S
C2023 C2022 1.414 . S
C2023 C2024 1.374 . S
C2024 H1998 0.950 . S
C2024 C2020 1.385 . S
C2024 C2023 1.374 . S
C2025 C2022 1.499 . S
C2025 C2026 1.373 . S
C2025 C2027 1.389 . S
C2026 H1999 0.950 . S
C2026 C2012 1.377 . S
C2026 C2025 1.373 . S
C2027 C2011 1.377 . S
C2027 C2025 1.389 . S
C2027 C2028 1.524 . S
C2028 C2027 1.524 . S
C2028 C2029 1.397 . S
C2028 C2033 1.363 . S
C2029 H2000 0.950 . S
C2029 C2028 1.397 . S
C2029 C2030 1.334 . S
C2030 H2001 0.950 . S
C2030 C2029 1.334 . S
C2030 C2031 1.287 . S
C2031 C2030 1.287 . S
C2031 C2032 1.524 . S
C2031 H2034 0.999 . S
C2032 H2002 0.950 . S
C2032 C2031 1.524 . S
C2032 C2033 1.415 . S
C2033 H2003 0.950 . S
C2033 C2028 1.363 . S
C2033 C2032 1.415 . S
H2034 C2031 0.999 . S
H2035 C2016 0.913 . S
H2036 C2054 0.951 . S
H2037 C2056 0.951 . S
H2038 C2058 0.950 . S
H2039 C2059 0.950 . S
H2040 C2061 0.950 . S
H2041 C2064 0.950 . S
H2042 C2065 0.950 . S
H2043 C2067 0.950 . S
H2044 C2068 0.950 . S
H2045 C2069 0.951 . S
H2046 C2071 0.951 . S
H2047 C2073 0.950 . S
H2048 C2074 0.950 . S
H2049 C2076 0.950 . S
H2050 C2079 0.950 . S
H2051 C2080 0.950 . S
H2052 C2082 0.950 . S
H2053 C2083 0.950 . S
C2054 H2036 0.951 . S
C2054 C2055 1.366 . S
C2054 C2056 1.388 . S
C2055 C2054 1.366 . S
C2055 C2059 1.385 . S
C2056 H2037 0.951 . S
C2056 C2054 1.388 . S
C2056 C2057 1.366 . S
C2057 C2056 1.366 . S
C2057 C2058 1.414 . S
C2057 C2060 1.499 . S
C2058 H2038 0.950 . S
C2058 C2057 1.414 . S
C2058 C2059 1.374 . S
C2059 H2039 0.950 . S
C2059 C2055 1.385 . S
C2059 C2058 1.374 . S
C2060 C2057 1.499 . S
C2060 C2061 1.373 . S
C2060 C2062 1.389 . S
C2061 H2040 0.950 . S
C2061 C2060 1.373 . S
C2061 C2077 1.377 . S
C2062 C2060 1.389 . S
C2062 C2063 1.524 . S
C2062 C2076 1.377 . S
C2063 C2062 1.524 . S
C2063 C2064 1.397 . S
C2063 C2068 1.363 . S
C2064 H2041 0.950 . S
C2064 C2063 1.397 . S
C2064 C2065 1.334 . S
C2065 H2042 0.950 . S
C2065 C2064 1.334 . S
C2065 C2066 1.287 . S
C2066 C2065 1.287 . S
C2066 C2067 1.524 . S
C2066 H2085 0.913 . S
C2067 H2043 0.950 . S
C2067 C2066 1.524 . S
C2067 C2068 1.415 . S
C2068 H2044 0.950 . S
C2068 C2063 1.363 . S
C2068 C2067 1.415 . S
C2069 H2045 0.951 . S
C2069 C2070 1.366 . S
C2069 C2071 1.388 . S
C2070 C2069 1.366 . S
C2070 C2074 1.385 . S
C2071 H2046 0.951 . S
C2071 C2069 1.388 . S
C2071 C2072 1.366 . S
C2072 C2071 1.366 . S
C2072 C2073 1.414 . S
C2072 C2075 1.499 . S
C2073 H2047 0.950 . S
C2073 C2072 1.414 . S
C2073 C2074 1.374 . S
C2074 H2048 0.950 . S
C2074 C2070 1.385 . S
C2074 C2073 1.374 . S
C2075 C2072 1.499 . S
C2075 C2076 1.373 . S
C2075 C2077 1.389 . S
C2076 H2049 0.950 . S
C2076 C2062 1.377 . S
C2076 C2075 1.373 . S
C2077 C2061 1.377 . S
C2077 C2075 1.389 . S
C2077 C2078 1.524 . S
C2078 C2077 1.524 . S
C2078 C2079 1.397 . S
C2078 C2083 1.363 . S
C2079 H2050 0.950 . S
C2079 C2078 1.397 . S
C2079 C2080 1.334 . S
C2080 H2051 0.950 . S
C2080 C2079 1.334 . S
C2080 C2081 1.287 . S
C2081 C2080 1.287 . S
C2081 C2082 1.524 . S
C2081 H2084 0.999 . S
C2082 H2052 0.950 . S
C2082 C2081 1.524 . S
C2082 C2083 1.415 . S
C2083 H2053 0.950 . S
C2083 C2078 1.363 . S
C2083 C2082 1.415 . S
H2084 C2081 0.999 . S
H2085 C2066 0.913 . S
H2086 C2104 0.951 . S
H2087 C2106 0.951 . S
H2088 C2108 0.950 . S
H2089 C2109 0.950 . S
H2090 C2111 0.950 . S
H2091 C2114 0.950 . S
H2092 C2115 0.950 . S
H2093 C2117 0.950 . S
H2094 C2118 0.950 . S
H2095 C2119 0.951 . S
H2096 C2121 0.951 . S
H2097 C2123 0.950 . S
H2098 C2124 0.950 . S
H2099 C2126 0.950 . S
H2100 C2129 0.950 . S
H2101 C2130 0.950 . S
H2102 C2132 0.950 . S
H2103 C2133 0.950 . S
C2104 H2086 0.951 . S
C2104 C2105 1.366 . S
C2104 C2106 1.388 . S
C2105 C2104 1.366 . S
C2105 C2109 1.385 . S
C2106 H2087 0.951 . S
C2106 C2104 1.388 . S
C2106 C2107 1.366 . S
C2107 C2106 1.366 . S
C2107 C2108 1.414 . S
C2107 C2110 1.499 . S
C2108 H2088 0.950 . S
C2108 C2107 1.414 . S
C2108 C2109 1.374 . S
C2109 H2089 0.950 . S
C2109 C2105 1.385 . S
C2109 C2108 1.374 . S
C2110 C2107 1.499 . S
C2110 C2111 1.373 . S
C2110 C2112 1.389 . S
C2111 H2090 0.950 . S
C2111 C2110 1.373 . S
C2111 C2127 1.377 . S
C2112 C2110 1.389 . S
C2112 C2113 1.524 . S
C2112 C2126 1.377 . S
C2113 C2112 1.524 . S
C2113 C2114 1.397 . S
C2113 C2118 1.363 . S
C2114 H2091 0.950 . S
C2114 C2113 1.397 . S
C2114 C2115 1.334 . S
C2115 H2092 0.950 . S
C2115 C2114 1.334 . S
C2115 C2116 1.287 . S
C2116 C2115 1.287 . S
C2116 C2117 1.524 . S
C2116 H2135 0.913 . S
C2117 H2093 0.950 . S
C2117 C2116 1.524 . S
C2117 C2118 1.415 . S
C2118 H2094 0.950 . S
C2118 C2113 1.363 . S
C2118 C2117 1.415 . S
C2119 H2095 0.951 . S
C2119 C2120 1.366 . S
C2119 C2121 1.388 . S
C2120 C2119 1.366 . S
C2120 C2124 1.385 . S
C2121 H2096 0.951 . S
C2121 C2119 1.388 . S
C2121 C2122 1.366 . S
C2122 C2121 1.366 . S
C2122 C2123 1.414 . S
C2122 C2125 1.499 . S
C2123 H2097 0.950 . S
C2123 C2122 1.414 . S
C2123 C2124 1.374 . S
C2124 H2098 0.950 . S
C2124 C2120 1.385 . S
C2124 C2123 1.374 . S
C2125 C2122 1.499 . S
C2125 C2126 1.373 . S
C2125 C2127 1.389 . S
C2126 H2099 0.950 . S
C2126 C2112 1.377 . S
C2126 C2125 1.373 . S
C2127 C2111 1.377 . S
C2127 C2125 1.389 . S
C2127 C2128 1.524 . S
C2128 C2127 1.524 . S
C2128 C2129 1.397 . S
C2128 C2133 1.363 . S
C2129 H2100 0.950 . S
C2129 C2128 1.397 . S
C2129 C2130 1.334 . S
C2130 H2101 0.950 . S
C2130 C2129 1.334 . S
C2130 C2131 1.287 . S
C2131 C2130 1.287 . S
C2131 C2132 1.524 . S
C2131 H2134 0.999 . S
C2132 H2102 0.950 . S
C2132 C2131 1.524 . S
C2132 C2133 1.415 . S
C2133 H2103 0.950 . S
C2133 C2128 1.363 . S
C2133 C2132 1.415 . S
H2134 C2131 0.999 . S
H2135 C2116 0.913 . S
H2136 C2154 0.951 . S
H2137 C2156 0.951 . S
H2138 C2158 0.950 . S
H2139 C2159 0.950 . S
H2140 C2161 0.950 . S
H2141 C2164 0.950 . S
H2142 C2165 0.950 . S
H2143 C2167 0.950 . S
H2144 C2168 0.950 . S
H2145 C2169 0.951 . S
H2146 C2171 0.951 . S
H2147 C2173 0.950 . S
H2148 C2174 0.950 . S
H2149 C2176 0.950 . S
H2150 C2179 0.950 . S
H2151 C2180 0.950 . S
H2152 C2182 0.950 . S
H2153 C2183 0.950 . S
C2154 H2136 0.951 . S
C2154 C2155 1.366 . S
C2154 C2156 1.388 . S
C2155 C2154 1.366 . S
C2155 C2159 1.385 . S
C2156 H2137 0.951 . S
C2156 C2154 1.388 . S
C2156 C2157 1.366 . S
C2157 C2156 1.366 . S
C2157 C2158 1.414 . S
C2157 C2160 1.499 . S
C2158 H2138 0.950 . S
C2158 C2157 1.414 . S
C2158 C2159 1.374 . S
C2159 H2139 0.950 . S
C2159 C2155 1.385 . S
C2159 C2158 1.374 . S
C2160 C2157 1.499 . S
C2160 C2161 1.373 . S
C2160 C2162 1.389 . S
C2161 H2140 0.950 . S
C2161 C2160 1.373 . S
C2161 C2177 1.377 . S
C2162 C2160 1.389 . S
C2162 C2163 1.524 . S
C2162 C2176 1.377 . S
C2163 C2162 1.524 . S
C2163 C2164 1.397 . S
C2163 C2168 1.363 . S
C2164 H2141 0.950 . S
C2164 C2163 1.397 . S
C2164 C2165 1.334 . S
C2165 H2142 0.950 . S
C2165 C2164 1.334 . S
C2165 C2166 1.287 . S
C2166 C2165 1.287 . S
C2166 C2167 1.524 . S
C2166 H2185 0.913 . S
C2167 H2143 0.950 . S
C2167 C2166 1.524 . S
C2167 C2168 1.415 . S
C2168 H2144 0.950 . S
C2168 C2163 1.363 . S
C2168 C2167 1.415 . S
C2169 H2145 0.951 . S
C2169 C2170 1.366 . S
C2169 C2171 1.388 . S
C2170 C2169 1.366 . S
C2170 C2174 1.385 . S
C2171 H2146 0.951 . S
C2171 C2169 1.388 . S
C2171 C2172 1.366 . S
C2172 C2171 1.366 . S
C2172 C2173 1.414 . S
C2172 C2175 1.499 . S
C2173 H2147 0.950 . S
C2173 C2172 1.414 . S
C2173 C2174 1.374 . S
C2174 H2148 0.950 . S
C2174 C2170 1.385 . S
C2174 C2173 1.374 . S
C2175 C2172 1.499 . S
C2175 C2176 1.373 . S
C2175 C2177 1.389 . S
C2176 H2149 0.950 . S
C2176 C2162 1.377 . S
C2176 C2175 1.373 . S
C2177 C2161 1.377 . S
C2177 C2175 1.389 . S
C2177 C2178 1.524 . S
C2178 C2177 1.524 . S
C2178 C2179 1.397 . S
C2178 C2183 1.363 . S
C2179 H2150 0.950 . S
C2179 C2178 1.397 . S
C2179 C2180 1.334 . S
C2180 H2151 0.950 . S
C2180 C2179 1.334 . S
C2180 C2181 1.287 . S
C2181 C2180 1.287 . S
C2181 C2182 1.524 . S
C2181 H2184 0.999 . S
C2182 H2152 0.950 . S
C2182 C2181 1.524 . S
C2182 C2183 1.415 . S
C2183 H2153 0.950 . S
C2183 C2178 1.363 . S
C2183 C2182 1.415 . S
H2184 C2181 0.999 . S
H2185 C2166 0.913 . S
H2186 C2204 0.951 . S
H2187 C2206 0.951 . S
H2188 C2208 0.950 . S
H2189 C2209 0.950 . S
H2190 C2211 0.950 . S
H2191 C2214 0.950 . S
H2192 C2215 0.950 . S
H2193 C2217 0.950 . S
H2194 C2218 0.950 . S
H2195 C2219 0.951 . S
H2196 C2221 0.951 . S
H2197 C2223 0.950 . S
H2198 C2224 0.950 . S
H2199 C2226 0.950 . S
H2200 C2229 0.950 . S
H2201 C2230 0.950 . S
H2202 C2232 0.950 . S
H2203 C2233 0.950 . S
C2204 H2186 0.951 . S
C2204 C2205 1.366 . S
C2204 C2206 1.388 . S
C2205 C2204 1.366 . S
C2205 C2209 1.385 . S
C2206 H2187 0.951 . S
C2206 C2204 1.388 . S
C2206 C2207 1.366 . S
C2207 C2206 1.366 . S
C2207 C2208 1.414 . S
C2207 C2210 1.499 . S
C2208 H2188 0.950 . S
C2208 C2207 1.414 . S
C2208 C2209 1.374 . S
C2209 H2189 0.950 . S
C2209 C2205 1.385 . S
C2209 C2208 1.374 . S
C2210 C2207 1.499 . S
C2210 C2211 1.373 . S
C2210 C2212 1.389 . S
C2211 H2190 0.950 . S
C2211 C2210 1.373 . S
C2211 C2227 1.377 . S
C2212 C2210 1.389 . S
C2212 C2213 1.524 . S
C2212 C2226 1.377 . S
C2213 C2212 1.524 . S
C2213 C2214 1.397 . S
C2213 C2218 1.363 . S
C2214 H2191 0.950 . S
C2214 C2213 1.397 . S
C2214 C2215 1.334 . S
C2215 H2192 0.950 . S
C2215 C2214 1.334 . S
C2215 C2216 1.287 . S
C2216 C2215 1.287 . S
C2216 C2217 1.524 . S
C2216 H2235 0.913 . S
C2217 H2193 0.950 . S
C2217 C2216 1.524 . S
C2217 C2218 1.415 . S
C2218 H2194 0.950 . S
C2218 C2213 1.363 . S
C2218 C2217 1.415 . S
C2219 H2195 0.951 . S
C2219 C2220 1.366 . S
C2219 C2221 1.388 . S
C2220 C2219 1.366 . S
C2220 C2224 1.385 . S
C2221 H2196 0.951 . S
C2221 C2219 1.388 . S
C2221 C2222 1.366 . S
C2222 C2221 1.366 . S
C2222 C2223 1.414 . S
C2222 C2225 1.499 . S
C2223 H2197 0.950 . S
C2223 C2222 1.414 . S
C2223 C2224 1.374 . S
C2224 H2198 0.950 . S
C2224 C2220 1.385 . S
C2224 C2223 1.374 . S
C2225 C2222 1.499 . S
C2225 C2226 1.373 . S
C2225 C2227 1.389 . S
C2226 H2199 0.950 . S
C2226 C2212 1.377 . S
C2226 C2225 1.373 . S
C2227 C2211 1.377 . S
C2227 C2225 1.389 . S
C2227 C2228 1.524 . S
C2228 C2227 1.524 . S
C2228 C2229 1.397 . S
C2228 C2233 1.363 . S
C2229 H2200 0.950 . S
C2229 C2228 1.397 . S
C2229 C2230 1.334 . S
C2230 H2201 0.950 . S
C2230 C2229 1.334 . S
C2230 C2231 1.287 . S
C2231 C2230 1.287 . S
C2231 C2232 1.524 . S
C2231 H2234 0.999 . S
C2232 H2202 0.950 . S
C2232 C2231 1.524 . S
C2232 C2233 1.415 . S
C2233 H2203 0.950 . S
C2233 C2228 1.363 . S
C2233 C2232 1.415 . S
H2234 C2231 0.999 . S
H2235 C2216 0.913 . S
H2236 C2254 0.951 . S
H2237 C2256 0.951 . S
H2238 C2258 0.950 . S
H2239 C2259 0.950 . S
H2240 C2261 0.950 . S
H2241 C2264 0.950 . S
H2242 C2265 0.950 . S
H2243 C2267 0.950 . S
H2244 C2268 0.950 . S
H2245 C2269 0.951 . S
H2246 C2271 0.951 . S
H2247 C2273 0.950 . S
H2248 C2274 0.950 . S
H2249 C2276 0.950 . S
H2250 C2279 0.950 . S
H2251 C2280 0.950 . S
H2252 C2282 0.950 . S
H2253 C2283 0.950 . S
C2254 H2236 0.951 . S
C2254 C2255 1.366 . S
C2254 C2256 1.388 . S
C2255 C2254 1.366 . S
C2255 C2259 1.385 . S
C2256 H2237 0.951 . S
C2256 C2254 1.388 . S
C2256 C2257 1.366 . S
C2257 C2256 1.366 . S
C2257 C2258 1.414 . S
C2257 C2260 1.499 . S
C2258 H2238 0.950 . S
C2258 C2257 1.414 . S
C2258 C2259 1.374 . S
C2259 H2239 0.950 . S
C2259 C2255 1.385 . S
C2259 C2258 1.374 . S
C2260 C2257 1.499 . S
C2260 C2261 1.373 . S
C2260 C2262 1.389 . S
C2261 H2240 0.950 . S
C2261 C2260 1.373 . S
C2261 C2277 1.377 . S
C2262 C2260 1.389 . S
C2262 C2263 1.524 . S
C2262 C2276 1.377 . S
C2263 C2262 1.524 . S
C2263 C2264 1.397 . S
C2263 C2268 1.363 . S
C2264 H2241 0.950 . S
C2264 C2263 1.397 . S
C2264 C2265 1.334 . S
C2265 H2242 0.950 . S
C2265 C2264 1.334 . S
C2265 C2266 1.287 . S
C2266 C2265 1.287 . S
C2266 C2267 1.524 . S
C2266 H2285 0.913 . S
C2267 H2243 0.950 . S
C2267 C2266 1.524 . S
C2267 C2268 1.415 . S
C2268 H2244 0.950 . S
C2268 C2263 1.363 . S
C2268 C2267 1.415 . S
C2269 H2245 0.951 . S
C2269 C2270 1.366 . S
C2269 C2271 1.388 . S
C2270 C2269 1.366 . S
C2270 C2274 1.385 . S
C2271 H2246 0.951 . S
C2271 C2269 1.388 . S
C2271 C2272 1.366 . S
C2272 C2271 1.366 . S
C2272 C2273 1.414 . S
C2272 C2275 1.499 . S
C2273 H2247 0.950 . S
C2273 C2272 1.414 . S
C2273 C2274 1.374 . S
C2274 H2248 0.950 . S
C2274 C2270 1.385 . S
C2274 C2273 1.374 . S
C2275 C2272 1.499 . S
C2275 C2276 1.373 . S
C2275 C2277 1.389 . S
C2276 H2249 0.950 . S
C2276 C2262 1.377 . S
C2276 C2275 1.373 . S
C2277 C2261 1.377 . S
C2277 C2275 1.389 . S
C2277 C2278 1.524 . S
C2278 C2277 1.524 . S
C2278 C2279 1.397 . S
C2278 C2283 1.363 . S
C2279 H2250 0.950 . S
C2279 C2278 1.397 . S
C2279 C2280 1.334 . S
C2280 H2251 0.950 . S
C2280 C2279 1.334 . S
C2280 C2281 1.287 . S
C2281 C2280 1.287 . S
C2281 C2282 1.524 . S
C2281 H2284 0.999 . S
C2282 H2252 0.950 . S
C2282 C2281 1.524 . S
C2282 C2283 1.415 . S
C2283 H2253 0.950 . S
C2283 C2278 1.363 . S
C2283 C2282 1.415 . S
H2284 C2281 0.999 . S
H2285 C2266 0.913 . S
H2286 C2304 0.951 . S
H2287 C2306 0.951 . S
H2288 C2308 0.950 . S
H2289 C2309 0.950 . S
H2290 C2311 0.950 . S
H2291 C2314 0.950 . S
H2292 C2315 0.950 . S
H2293 C2317 0.950 . S
H2294 C2318 0.950 . S
H2295 C2319 0.951 . S
H2296 C2321 0.951 . S
H2297 C2323 0.950 . S
H2298 C2324 0.950 . S
H2299 C2326 0.950 . S
H2300 C2329 0.950 . S
H2301 C2330 0.950 . S
H2302 C2332 0.950 . S
H2303 C2333 0.950 . S
C2304 H2286 0.951 . S
C2304 C2305 1.366 . S
C2304 C2306 1.388 . S
C2305 C2304 1.366 . S
C2305 C2309 1.385 . S
C2306 H2287 0.951 . S
C2306 C2304 1.388 . S
C2306 C2307 1.366 . S
C2307 C2306 1.366 . S
C2307 C2308 1.414 . S
C2307 C2310 1.499 . S
C2308 H2288 0.950 . S
C2308 C2307 1.414 . S
C2308 C2309 1.374 . S
C2309 H2289 0.950 . S
C2309 C2305 1.385 . S
C2309 C2308 1.374 . S
C2310 C2307 1.499 . S
C2310 C2311 1.373 . S
C2310 C2312 1.389 . S
C2311 H2290 0.950 . S
C2311 C2310 1.373 . S
C2311 C2327 1.377 . S
C2312 C2310 1.389 . S
C2312 C2313 1.524 . S
C2312 C2326 1.377 . S
C2313 C2312 1.524 . S
C2313 C2314 1.397 . S
C2313 C2318 1.363 . S
C2314 H2291 0.950 . S
C2314 C2313 1.397 . S
C2314 C2315 1.334 . S
C2315 H2292 0.950 . S
C2315 C2314 1.334 . S
C2315 C2316 1.287 . S
C2316 C2315 1.287 . S
C2316 C2317 1.524 . S
C2316 H2335 0.913 . S
C2317 H2293 0.950 . S
C2317 C2316 1.524 . S
C2317 C2318 1.415 . S
C2318 H2294 0.950 . S
C2318 C2313 1.363 . S
C2318 C2317 1.415 . S
C2319 H2295 0.951 . S
C2319 C2320 1.366 . S
C2319 C2321 1.388 . S
C2320 C2319 1.366 . S
C2320 C2324 1.385 . S
C2321 H2296 0.951 . S
C2321 C2319 1.388 . S
C2321 C2322 1.366 . S
C2322 C2321 1.366 . S
C2322 C2323 1.414 . S
C2322 C2325 1.499 . S
C2323 H2297 0.950 . S
C2323 C2322 1.414 . S
C2323 C2324 1.374 . S
C2324 H2298 0.950 . S
C2324 C2320 1.385 . S
C2324 C2323 1.374 . S
C2325 C2322 1.499 . S
C2325 C2326 1.373 . S
C2325 C2327 1.389 . S
C2326 H2299 0.950 . S
C2326 C2312 1.377 . S
C2326 C2325 1.373 . S
C2327 C2311 1.377 . S
C2327 C2325 1.389 . S
C2327 C2328 1.524 . S
C2328 C2327 1.524 . S
C2328 C2329 1.397 . S
C2328 C2333 1.363 . S
C2329 H2300 0.950 . S
C2329 C2328 1.397 . S
C2329 C2330 1.334 . S
C2330 H2301 0.950 . S
C2330 C2329 1.334 . S
C2330 C2331 1.287 . S
C2331 C2330 1.287 . S
C2331 C2332 1.524 . S
C2331 H2334 0.999 . S
C2332 H2302 0.950 . S
C2332 C2331 1.524 . S
C2332 C2333 1.415 . S
C2333 H2303 0.950 . S
C2333 C2328 1.363 . S
C2333 C2332 1.415 . S
H2334 C2331 0.999 . S
H2335 C2316 0.913 . S
H2336 C2354 0.951 . S
H2337 C2356 0.951 . S
H2338 C2358 0.950 . S
H2339 C2359 0.950 . S
H2340 C2361 0.950 . S
H2341 C2364 0.950 . S
H2342 C2365 0.950 . S
H2343 C2367 0.950 . S
H2344 C2368 0.950 . S
H2345 C2369 0.951 . S
H2346 C2371 0.951 . S
H2347 C2373 0.950 . S
H2348 C2374 0.950 . S
H2349 C2376 0.950 . S
H2350 C2379 0.950 . S
H2351 C2380 0.950 . S
H2352 C2382 0.950 . S
H2353 C2383 0.950 . S
C2354 H2336 0.951 . S
C2354 C2355 1.366 . S
C2354 C2356 1.388 . S
C2355 C2354 1.366 . S
C2355 C2359 1.385 . S
C2356 H2337 0.951 . S
C2356 C2354 1.388 . S
C2356 C2357 1.366 . S
C2357 C2356 1.366 . S
C2357 C2358 1.414 . S
C2357 C2360 1.499 . S
C2358 H2338 0.950 . S
C2358 C2357 1.414 . S
C2358 C2359 1.374 . S
C2359 H2339 0.950 . S
C2359 C2355 1.385 . S
C2359 C2358 1.374 . S
C2360 C2357 1.499 . S
C2360 C2361 1.373 . S
C2360 C2362 1.389 . S
C2361 H2340 0.950 . S
C2361 C2360 1.373 . S
C2361 C2377 1.377 . S
C2362 C2360 1.389 . S
C2362 C2363 1.524 . S
C2362 C2376 1.377 . S
C2363 C2362 1.524 . S
C2363 C2364 1.397 . S
C2363 C2368 1.363 . S
C2364 H2341 0.950 . S
C2364 C2363 1.397 . S
C2364 C2365 1.334 . S
C2365 H2342 0.950 . S
C2365 C2364 1.334 . S
C2365 C2366 1.287 . S
C2366 C2365 1.287 . S
C2366 C2367 1.524 . S
C2366 H2385 0.913 . S
C2367 H2343 0.950 . S
C2367 C2366 1.524 . S
C2367 C2368 1.415 . S
C2368 H2344 0.950 . S
C2368 C2363 1.363 . S
C2368 C2367 1.415 . S
C2369 H2345 0.951 . S
C2369 C2370 1.366 . S
C2369 C2371 1.388 . S
C2370 C2369 1.366 . S
C2370 C2374 1.385 . S
C2371 H2346 0.951 . S
C2371 C2369 1.388 . S
C2371 C2372 1.366 . S
C2372 C2371 1.366 . S
C2372 C2373 1.414 . S
C2372 C2375 1.499 . S
C2373 H2347 0.950 . S
C2373 C2372 1.414 . S
C2373 C2374 1.374 . S
C2374 H2348 0.950 . S
C2374 C2370 1.385 . S
C2374 C2373 1.374 . S
C2375 C2372 1.499 . S
C2375 C2376 1.373 . S
C2375 C2377 1.389 . S
C2376 H2349 0.950 . S
C2376 C2362 1.377 . S
C2376 C2375 1.373 . S
C2377 C2361 1.377 . S
C2377 C2375 1.389 . S
C2377 C2378 1.524 . S
C2378 C2377 1.524 . S
C2378 C2379 1.397 . S
C2378 C2383 1.363 . S
C2379 H2350 0.950 . S
C2379 C2378 1.397 . S
C2379 C2380 1.334 . S
C2380 H2351 0.950 . S
C2380 C2379 1.334 . S
C2380 C2381 1.287 . S
C2381 C2380 1.287 . S
C2381 C2382 1.524 . S
C2381 H2384 0.999 . S
C2382 H2352 0.950 . S
C2382 C2381 1.524 . S
C2382 C2383 1.415 . S
C2383 H2353 0.950 . S
C2383 C2378 1.363 . S
C2383 C2382 1.415 . S
H2384 C2381 0.999 . S
H2385 C2366 0.913 . S
H2386 C2404 0.951 . S
H2387 C2406 0.951 . S
H2388 C2408 0.950 . S
H2389 C2409 0.950 . S
H2390 C2411 0.950 . S
H2391 C2414 0.950 . S
H2392 C2415 0.950 . S
H2393 C2417 0.950 . S
H2394 C2418 0.950 . S
H2395 C2419 0.951 . S
H2396 C2421 0.951 . S
H2397 C2423 0.950 . S
H2398 C2424 0.950 . S
H2399 C2426 0.950 . S
H2400 C2429 0.950 . S
H2401 C2430 0.950 . S
H2402 C2432 0.950 . S
H2403 C2433 0.950 . S
C2404 H2386 0.951 . S
C2404 C2405 1.366 . S
C2404 C2406 1.388 . S
C2405 C2404 1.366 . S
C2405 C2409 1.385 . S
C2406 H2387 0.951 . S
C2406 C2404 1.388 . S
C2406 C2407 1.366 . S
C2407 C2406 1.366 . S
C2407 C2408 1.414 . S
C2407 C2410 1.499 . S
C2408 H2388 0.950 . S
C2408 C2407 1.414 . S
C2408 C2409 1.374 . S
C2409 H2389 0.950 . S
C2409 C2405 1.385 . S
C2409 C2408 1.374 . S
C2410 C2407 1.499 . S
C2410 C2411 1.373 . S
C2410 C2412 1.389 . S
C2411 H2390 0.950 . S
C2411 C2410 1.373 . S
C2411 C2427 1.377 . S
C2412 C2410 1.389 . S
C2412 C2413 1.524 . S
C2412 C2426 1.377 . S
C2413 C2412 1.524 . S
C2413 C2414 1.397 . S
C2413 C2418 1.363 . S
C2414 H2391 0.950 . S
C2414 C2413 1.397 . S
C2414 C2415 1.334 . S
C2415 H2392 0.950 . S
C2415 C2414 1.334 . S
C2415 C2416 1.287 . S
C2416 C2415 1.287 . S
C2416 C2417 1.524 . S
C2416 H2435 0.913 . S
C2417 H2393 0.950 . S
C2417 C2416 1.524 . S
C2417 C2418 1.415 . S
C2418 H2394 0.950 . S
C2418 C2413 1.363 . S
C2418 C2417 1.415 . S
C2419 H2395 0.951 . S
C2419 C2420 1.366 . S
C2419 C2421 1.388 . S
C2420 C2419 1.366 . S
C2420 C2424 1.385 . S
C2421 H2396 0.951 . S
C2421 C2419 1.388 . S
C2421 C2422 1.366 . S
C2422 C2421 1.366 . S
C2422 C2423 1.414 . S
C2422 C2425 1.499 . S
C2423 H2397 0.950 . S
C2423 C2422 1.414 . S
C2423 C2424 1.374 . S
C2424 H2398 0.950 . S
C2424 C2420 1.385 . S
C2424 C2423 1.374 . S
C2425 C2422 1.499 . S
C2425 C2426 1.373 . S
C2425 C2427 1.389 . S
C2426 H2399 0.950 . S
C2426 C2412 1.377 . S
C2426 C2425 1.373 . S
C2427 C2411 1.377 . S
C2427 C2425 1.389 . S
C2427 C2428 1.524 . S
C2428 C2427 1.524 . S
C2428 C2429 1.397 . S
C2428 C2433 1.363 . S
C2429 H2400 0.950 . S
C2429 C2428 1.397 . S
C2429 C2430 1.334 . S
C2430 H2401 0.950 . S
C2430 C2429 1.334 . S
C2430 C2431 1.287 . S
C2431 C2430 1.287 . S
C2431 C2432 1.524 . S
C2431 H2434 0.999 . S
C2432 H2402 0.950 . S
C2432 C2431 1.524 . S
C2432 C2433 1.415 . S
C2433 H2403 0.950 . S
C2433 C2428 1.363 . S
C2433 C2432 1.415 . S
H2434 C2431 0.999 . S
H2435 C2416 0.913 . S
H2436 C2454 0.951 . S
H2437 C2456 0.951 . S
H2438 C2458 0.950 . S
H2439 C2459 0.950 . S
H2440 C2461 0.950 . S
H2441 C2464 0.950 . S
H2442 C2465 0.950 . S
H2443 C2467 0.950 . S
H2444 C2468 0.950 . S
H2445 C2469 0.951 . S
H2446 C2471 0.951 . S
H2447 C2473 0.950 . S
H2448 C2474 0.950 . S
H2449 C2476 0.950 . S
H2450 C2479 0.950 . S
H2451 C2480 0.950 . S
H2452 C2482 0.950 . S
H2453 C2483 0.950 . S
C2454 H2436 0.951 . S
C2454 C2455 1.366 . S
C2454 C2456 1.388 . S
C2455 C2454 1.366 . S
C2455 C2459 1.385 . S
C2456 H2437 0.951 . S
C2456 C2454 1.388 . S
C2456 C2457 1.366 . S
C2457 C2456 1.366 . S
C2457 C2458 1.414 . S
C2457 C2460 1.499 . S
C2458 H2438 0.950 . S
C2458 C2457 1.414 . S
C2458 C2459 1.374 . S
C2459 H2439 0.950 . S
C2459 C2455 1.385 . S
C2459 C2458 1.374 . S
C2460 C2457 1.499 . S
C2460 C2461 1.373 . S
C2460 C2462 1.389 . S
C2461 H2440 0.950 . S
C2461 C2460 1.373 . S
C2461 C2477 1.377 . S
C2462 C2460 1.389 . S
C2462 C2463 1.524 . S
C2462 C2476 1.377 . S
C2463 C2462 1.524 . S
C2463 C2464 1.397 . S
C2463 C2468 1.363 . S
C2464 H2441 0.950 . S
C2464 C2463 1.397 . S
C2464 C2465 1.334 . S
C2465 H2442 0.950 . S
C2465 C2464 1.334 . S
C2465 C2466 1.287 . S
C2466 C2465 1.287 . S
C2466 C2467 1.524 . S
C2466 H2485 0.913 . S
C2467 H2443 0.950 . S
C2467 C2466 1.524 . S
C2467 C2468 1.415 . S
C2468 H2444 0.950 . S
C2468 C2463 1.363 . S
C2468 C2467 1.415 . S
C2469 H2445 0.951 . S
C2469 C2470 1.366 . S
C2469 C2471 1.388 . S
C2470 C2469 1.366 . S
C2470 C2474 1.385 . S
C2471 H2446 0.951 . S
C2471 C2469 1.388 . S
C2471 C2472 1.366 . S
C2472 C2471 1.366 . S
C2472 C2473 1.414 . S
C2472 C2475 1.499 . S
C2473 H2447 0.950 . S
C2473 C2472 1.414 . S
C2473 C2474 1.374 . S
C2474 H2448 0.950 . S
C2474 C2470 1.385 . S
C2474 C2473 1.374 . S
C2475 C2472 1.499 . S
C2475 C2476 1.373 . S
C2475 C2477 1.389 . S
C2476 H2449 0.950 . S
C2476 C2462 1.377 . S
C2476 C2475 1.373 . S
C2477 C2461 1.377 . S
C2477 C2475 1.389 . S
C2477 C2478 1.524 . S
C2478 C2477 1.524 . S
C2478 C2479 1.397 . S
C2478 C2483 1.363 . S
C2479 H2450 0.950 . S
C2479 C2478 1.397 . S
C2479 C2480 1.334 . S
C2480 H2451 0.950 . S
C2480 C2479 1.334 . S
C2480 C2481 1.287 . S
C2481 C2480 1.287 . S
C2481 C2482 1.524 . S
C2481 H2484 0.999 . S
C2482 H2452 0.950 . S
C2482 C2481 1.524 . S
C2482 C2483 1.415 . S
C2483 H2453 0.950 . S
C2483 C2478 1.363 . S
C2483 C2482 1.415 . S
H2484 C2481 0.999 . S
H2485 C2466 0.913 . S
H2486 C2504 0.951 . S
H2487 C2506 0.951 . S
H2488 C2508 0.950 . S
H2489 C2509 0.950 . S
H2490 C2511 0.950 . S
H2491 C2514 0.950 . S
H2492 C2515 0.950 . S
H2493 C2517 0.950 . S
H2494 C2518 0.950 . S
H2495 C2519 0.951 . S
H2496 C2521 0.951 . S
H2497 C2523 0.950 . S
H2498 C2524 0.950 . S
H2499 C2526 0.950 . S
H2500 C2529 0.950 . S
H2501 C2530 0.950 . S
H2502 C2532 0.950 . S
H2503 C2533 0.950 . S
C2504 H2486 0.951 . S
C2504 C2505 1.366 . S
C2504 C2506 1.388 . S
C2505 C2504 1.366 . S
C2505 C2509 1.385 . S
C2506 H2487 0.951 . S
C2506 C2504 1.388 . S
C2506 C2507 1.366 . S
C2507 C2506 1.366 . S
C2507 C2508 1.414 . S
C2507 C2510 1.499 . S
C2508 H2488 0.950 . S
C2508 C2507 1.414 . S
C2508 C2509 1.374 . S
C2509 H2489 0.950 . S
C2509 C2505 1.385 . S
C2509 C2508 1.374 . S
C2510 C2507 1.499 . S
C2510 C2511 1.373 . S
C2510 C2512 1.389 . S
C2511 H2490 0.950 . S
C2511 C2510 1.373 . S
C2511 C2527 1.377 . S
C2512 C2510 1.389 . S
C2512 C2513 1.524 . S
C2512 C2526 1.377 . S
C2513 C2512 1.524 . S
C2513 C2514 1.397 . S
C2513 C2518 1.363 . S
C2514 H2491 0.950 . S
C2514 C2513 1.397 . S
C2514 C2515 1.334 . S
C2515 H2492 0.950 . S
C2515 C2514 1.334 . S
C2515 C2516 1.287 . S
C2516 C2515 1.287 . S
C2516 C2517 1.524 . S
C2516 H2535 0.913 . S
C2517 H2493 0.950 . S
C2517 C2516 1.524 . S
C2517 C2518 1.415 . S
C2518 H2494 0.950 . S
C2518 C2513 1.363 . S
C2518 C2517 1.415 . S
C2519 H2495 0.951 . S
C2519 C2520 1.366 . S
C2519 C2521 1.388 . S
C2520 C2519 1.366 . S
C2520 C2524 1.385 . S
C2521 H2496 0.951 . S
C2521 C2519 1.388 . S
C2521 C2522 1.366 . S
C2522 C2521 1.366 . S
C2522 C2523 1.414 . S
C2522 C2525 1.499 . S
C2523 H2497 0.950 . S
C2523 C2522 1.414 . S
C2523 C2524 1.374 . S
C2524 H2498 0.950 . S
C2524 C2520 1.385 . S
C2524 C2523 1.374 . S
C2525 C2522 1.499 . S
C2525 C2526 1.373 . S
C2525 C2527 1.389 . S
C2526 H2499 0.950 . S
C2526 C2512 1.377 . S
C2526 C2525 1.373 . S
C2527 C2511 1.377 . S
C2527 C2525 1.389 . S
C2527 C2528 1.524 . S
C2528 C2527 1.524 . S
C2528 C2529 1.397 . S
C2528 C2533 1.363 . S
C2529 H2500 0.950 . S
C2529 C2528 1.397 . S
C2529 C2530 1.334 . S
C2530 H2501 0.950 . S
C2530 C2529 1.334 . S
C2530 C2531 1.287 . S
C2531 C2530 1.287 . S
C2531 C2532 1.524 . S
C2531 H2534 0.999 . S
C2532 H2502 0.950 . S
C2532 C2531 1.524 . S
C2532 C2533 1.415 . S
C2533 H2503 0.950 . S
C2533 C2528 1.363 . S
C2533 C2532 1.415 . S
H2534 C2531 0.999 . S
H2535 C2516 0.913 . S
H2536 C2554 0.951 . S
H2537 C2556 0.951 . S
H2538 C2558 0.950 . S
H2539 C2559 0.950 . S
H2540 C2561 0.950 . S
H2541 C2564 0.950 . S
H2542 C2565 0.950 . S
H2543 C2567 0.950 . S
H2544 C2568 0.950 . S
H2545 C2569 0.951 . S
H2546 C2571 0.951 . S
H2547 C2573 0.950 . S
H2548 C2574 0.950 . S
H2549 C2576 0.950 . S
H2550 C2579 0.950 . S
H2551 C2580 0.950 . S
H2552 C2582 0.950 . S
H2553 C2583 0.950 . S
C2554 H2536 0.951 . S
C2554 C2555 1.366 . S
C2554 C2556 1.388 . S
C2555 C2554 1.366 . S
C2555 C2559 1.385 . S
C2556 H2537 0.951 . S
C2556 C2554 1.388 . S
C2556 C2557 1.366 . S
C2557 C2556 1.366 . S
C2557 C2558 1.414 . S
C2557 C2560 1.499 . S
C2558 H2538 0.950 . S
C2558 C2557 1.414 . S
C2558 C2559 1.374 . S
C2559 H2539 0.950 . S
C2559 C2555 1.385 . S
C2559 C2558 1.374 . S
C2560 C2557 1.499 . S
C2560 C2561 1.373 . S
C2560 C2562 1.389 . S
C2561 H2540 0.950 . S
C2561 C2560 1.373 . S
C2561 C2577 1.377 . S
C2562 C2560 1.389 . S
C2562 C2563 1.524 . S
C2562 C2576 1.377 . S
C2563 C2562 1.524 . S
C2563 C2564 1.397 . S
C2563 C2568 1.363 . S
C2564 H2541 0.950 . S
C2564 C2563 1.397 . S
C2564 C2565 1.334 . S
C2565 H2542 0.950 . S
C2565 C2564 1.334 . S
C2565 C2566 1.287 . S
C2566 C2565 1.287 . S
C2566 C2567 1.524 . S
C2566 H2585 0.913 . S
C2567 H2543 0.950 . S
C2567 C2566 1.524 . S
C2567 C2568 1.415 . S
C2568 H2544 0.950 . S
C2568 C2563 1.363 . S
C2568 C2567 1.415 . S
C2569 H2545 0.951 . S
C2569 C2570 1.366 . S
C2569 C2571 1.388 . S
C2570 C2569 1.366 . S
C2570 C2574 1.385 . S
C2571 H2546 0.951 . S
C2571 C2569 1.388 . S
C2571 C2572 1.366 . S
C2572 C2571 1.366 . S
C2572 C2573 1.414 . S
C2572 C2575 1.499 . S
C2573 H2547 0.950 . S
C2573 C2572 1.414 . S
C2573 C2574 1.374 . S
C2574 H2548 0.950 . S
C2574 C2570 1.385 . S
C2574 C2573 1.374 . S
C2575 C2572 1.499 . S
C2575 C2576 1.373 . S
C2575 C2577 1.389 . S
C2576 H2549 0.950 . S
C2576 C2562 1.377 . S
C2576 C2575 1.373 . S
C2577 C2561 1.377 . S
C2577 C2575 1.389 . S
C2577 C2578 1.524 . S
C2578 C2577 1.524 . S
C2578 C2579 1.397 . S
C2578 C2583 1.363 . S
C2579 H2550 0.950 . S
C2579 C2578 1.397 . S
C2579 C2580 1.334 . S
C2580 H2551 0.950 . S
C2580 C2579 1.334 . S
C2580 C2581 1.287 . S
C2581 C2580 1.287 . S
C2581 C2582 1.524 . S
C2581 H2584 0.999 . S
C2582 H2552 0.950 . S
C2582 C2581 1.524 . S
C2582 C2583 1.415 . S
C2583 H2553 0.950 . S
C2583 C2578 1.363 . S
C2583 C2582 1.415 . S
H2584 C2581 0.999 . S
H2585 C2566 0.913 . S
H2586 C2604 0.951 . S
H2587 C2606 0.951 . S
H2588 C2608 0.950 . S
H2589 C2609 0.950 . S
H2590 C2611 0.950 . S
H2591 C2614 0.950 . S
H2592 C2615 0.950 . S
H2593 C2617 0.950 . S
H2594 C2618 0.950 . S
H2595 C2619 0.951 . S
H2596 C2621 0.951 . S
H2597 C2623 0.950 . S
H2598 C2624 0.950 . S
H2599 C2626 0.950 . S
H2600 C2629 0.950 . S
H2601 C2630 0.950 . S
H2602 C2632 0.950 . S
H2603 C2633 0.950 . S
C2604 H2586 0.951 . S
C2604 C2605 1.366 . S
C2604 C2606 1.388 . S
C2605 C2604 1.366 . S
C2605 C2609 1.385 . S
C2606 H2587 0.951 . S
C2606 C2604 1.388 . S
C2606 C2607 1.366 . S
C2607 C2606 1.366 . S
C2607 C2608 1.414 . S
C2607 C2610 1.499 . S
C2608 H2588 0.950 . S
C2608 C2607 1.414 . S
C2608 C2609 1.374 . S
C2609 H2589 0.950 . S
C2609 C2605 1.385 . S
C2609 C2608 1.374 . S
C2610 C2607 1.499 . S
C2610 C2611 1.373 . S
C2610 C2612 1.389 . S
C2611 H2590 0.950 . S
C2611 C2610 1.373 . S
C2611 C2627 1.377 . S
C2612 C2610 1.389 . S
C2612 C2613 1.524 . S
C2612 C2626 1.377 . S
C2613 C2612 1.524 . S
C2613 C2614 1.397 . S
C2613 C2618 1.363 . S
C2614 H2591 0.950 . S
C2614 C2613 1.397 . S
C2614 C2615 1.334 . S
C2615 H2592 0.950 . S
C2615 C2614 1.334 . S
C2615 C2616 1.287 . S
C2616 C2615 1.287 . S
C2616 C2617 1.524 . S
C2616 H2635 0.913 . S
C2617 H2593 0.950 . S
C2617 C2616 1.524 . S
C2617 C2618 1.415 . S
C2618 H2594 0.950 . S
C2618 C2613 1.363 . S
C2618 C2617 1.415 . S
C2619 H2595 0.951 . S
C2619 C2620 1.366 . S
C2619 C2621 1.388 . S
C2620 C2619 1.366 . S
C2620 C2624 1.385 . S
C2621 H2596 0.951 . S
C2621 C2619 1.388 . S
C2621 C2622 1.366 . S
C2622 C2621 1.366 . S
C2622 C2623 1.414 . S
C2622 C2625 1.499 . S
C2623 H2597 0.950 . S
C2623 C2622 1.414 . S
C2623 C2624 1.374 . S
C2624 H2598 0.950 . S
C2624 C2620 1.385 . S
C2624 C2623 1.374 . S
C2625 C2622 1.499 . S
C2625 C2626 1.373 . S
C2625 C2627 1.389 . S
C2626 H2599 0.950 . S
C2626 C2612 1.377 . S
C2626 C2625 1.373 . S
C2627 C2611 1.377 . S
C2627 C2625 1.389 . S
C2627 C2628 1.524 . S
C2628 C2627 1.524 . S
C2628 C2629 1.397 . S
C2628 C2633 1.363 . S
C2629 H2600 0.950 . S
C2629 C2628 1.397 . S
C2629 C2630 1.334 . S
C2630 H2601 0.950 . S
C2630 C2629 1.334 . S
C2630 C2631 1.287 . S
C2631 C2630 1.287 . S
C2631 C2632 1.524 . S
C2631 H2634 0.999 . S
C2632 H2602 0.950 . S
C2632 C2631 1.524 . S
C2632 C2633 1.415 . S
C2633 H2603 0.950 . S
C2633 C2628 1.363 . S
C2633 C2632 1.415 . S
H2634 C2631 0.999 . S
H2635 C2616 0.913 . S
H2636 C2654 0.951 . S
H2637 C2656 0.951 . S
H2638 C2658 0.950 . S
H2639 C2659 0.950 . S
H2640 C2661 0.950 . S
H2641 C2664 0.950 . S
H2642 C2665 0.950 . S
H2643 C2667 0.950 . S
H2644 C2668 0.950 . S
H2645 C2669 0.951 . S
H2646 C2671 0.951 . S
H2647 C2673 0.950 . S
H2648 C2674 0.950 . S
H2649 C2676 0.950 . S
H2650 C2679 0.950 . S
H2651 C2680 0.950 . S
H2652 C2682 0.950 . S
H2653 C2683 0.950 . S
C2654 H2636 0.951 . S
C2654 C2655 1.366 . S
C2654 C2656 1.388 . S
C2655 C2654 1.366 . S
C2655 C2659 1.385 . S
C2656 H2637 0.951 . S
C2656 C2654 1.388 . S
C2656 C2657 1.366 . S
C2657 C2656 1.366 . S
C2657 C2658 1.414 . S
C2657 C2660 1.499 . S
C2658 H2638 0.950 . S
C2658 C2657 1.414 . S
C2658 C2659 1.374 . S
C2659 H2639 0.950 . S
C2659 C2655 1.385 . S
C2659 C2658 1.374 . S
C2660 C2657 1.499 . S
C2660 C2661 1.373 . S
C2660 C2662 1.389 . S
C2661 H2640 0.950 . S
C2661 C2660 1.373 . S
C2661 C2677 1.377 . S
C2662 C2660 1.389 . S
C2662 C2663 1.524 . S
C2662 C2676 1.377 . S
C2663 C2662 1.524 . S
C2663 C2664 1.397 . S
C2663 C2668 1.363 . S
C2664 H2641 0.950 . S
C2664 C2663 1.397 . S
C2664 C2665 1.334 . S
C2665 H2642 0.950 . S
C2665 C2664 1.334 . S
C2665 C2666 1.287 . S
C2666 C2665 1.287 . S
C2666 C2667 1.524 . S
C2666 H2685 0.913 . S
C2667 H2643 0.950 . S
C2667 C2666 1.524 . S
C2667 C2668 1.415 . S
C2668 H2644 0.950 . S
C2668 C2663 1.363 . S
C2668 C2667 1.415 . S
C2669 H2645 0.951 . S
C2669 C2670 1.366 . S
C2669 C2671 1.388 . S
C2670 C2669 1.366 . S
C2670 C2674 1.385 . S
C2671 H2646 0.951 . S
C2671 C2669 1.388 . S
C2671 C2672 1.366 . S
C2672 C2671 1.366 . S
C2672 C2673 1.414 . S
C2672 C2675 1.499 . S
C2673 H2647 0.950 . S
C2673 C2672 1.414 . S
C2673 C2674 1.374 . S
C2674 H2648 0.950 . S
C2674 C2670 1.385 . S
C2674 C2673 1.374 . S
C2675 C2672 1.499 . S
C2675 C2676 1.373 . S
C2675 C2677 1.389 . S
C2676 H2649 0.950 . S
C2676 C2662 1.377 . S
C2676 C2675 1.373 . S
C2677 C2661 1.377 . S
C2677 C2675 1.389 . S
C2677 C2678 1.524 . S
C2678 C2677 1.524 . S
C2678 C2679 1.397 . S
C2678 C2683 1.363 . S
C2679 H2650 0.950 . S
C2679 C2678 1.397 . S
C2679 C2680 1.334 . S
C2680 H2651 0.950 . S
C2680 C2679 1.334 . S
C2680 C2681 1.287 . S
C2681 C2680 1.287 . S
C2681 C2682 1.524 . S
C2681 H2684 0.999 . S
C2682 H2652 0.950 . S
C2682 C2681 1.524 . S
C2682 C2683 1.415 . S
C2683 H2653 0.950 . S
C2683 C2678 1.363 . S
C2683 C2682 1.415 . S
H2684 C2681 0.999 . S
H2685 C2666 0.913 . S
H2686 C2704 0.951 . S
H2687 C2706 0.951 . S
H2688 C2708 0.950 . S
H2689 C2709 0.950 . S
H2690 C2711 0.950 . S
H2691 C2714 0.950 . S
H2692 C2715 0.950 . S
H2693 C2717 0.950 . S
H2694 C2718 0.950 . S
H2695 C2719 0.951 . S
H2696 C2721 0.951 . S
H2697 C2723 0.950 . S
H2698 C2724 0.950 . S
H2699 C2726 0.950 . S
H2700 C2729 0.950 . S
H2701 C2730 0.950 . S
H2702 C2732 0.950 . S
H2703 C2733 0.950 . S
C2704 H2686 0.951 . S
C2704 C2705 1.366 . S
C2704 C2706 1.388 . S
C2705 C2704 1.366 . S
C2705 C2709 1.385 . S
C2706 H2687 0.951 . S
C2706 C2704 1.388 . S
C2706 C2707 1.366 . S
C2707 C2706 1.366 . S
C2707 C2708 1.414 . S
C2707 C2710 1.499 . S
C2708 H2688 0.950 . S
C2708 C2707 1.414 . S
C2708 C2709 1.374 . S
C2709 H2689 0.950 . S
C2709 C2705 1.385 . S
C2709 C2708 1.374 . S
C2710 C2707 1.499 . S
C2710 C2711 1.373 . S
C2710 C2712 1.389 . S
C2711 H2690 0.950 . S
C2711 C2710 1.373 . S
C2711 C2727 1.377 . S
C2712 C2710 1.389 . S
C2712 C2713 1.524 . S
C2712 C2726 1.377 . S
C2713 C2712 1.524 . S
C2713 C2714 1.397 . S
C2713 C2718 1.363 . S
C2714 H2691 0.950 . S
C2714 C2713 1.397 . S
C2714 C2715 1.334 . S
C2715 H2692 0.950 . S
C2715 C2714 1.334 . S
C2715 C2716 1.287 . S
C2716 C2715 1.287 . S
C2716 C2717 1.524 . S
C2716 H2735 0.913 . S
C2717 H2693 0.950 . S
C2717 C2716 1.524 . S
C2717 C2718 1.415 . S
C2718 H2694 0.950 . S
C2718 C2713 1.363 . S
C2718 C2717 1.415 . S
C2719 H2695 0.951 . S
C2719 C2720 1.366 . S
C2719 C2721 1.388 . S
C2720 C2719 1.366 . S
C2720 C2724 1.385 . S
C2721 H2696 0.951 . S
C2721 C2719 1.388 . S
C2721 C2722 1.366 . S
C2722 C2721 1.366 . S
C2722 C2723 1.414 . S
C2722 C2725 1.499 . S
C2723 H2697 0.950 . S
C2723 C2722 1.414 . S
C2723 C2724 1.374 . S
C2724 H2698 0.950 . S
C2724 C2720 1.385 . S
C2724 C2723 1.374 . S
C2725 C2722 1.499 . S
C2725 C2726 1.373 . S
C2725 C2727 1.389 . S
C2726 H2699 0.950 . S
C2726 C2712 1.377 . S
C2726 C2725 1.373 . S
C2727 C2711 1.377 . S
C2727 C2725 1.389 . S
C2727 C2728 1.524 . S
C2728 C2727 1.524 . S
C2728 C2729 1.397 . S
C2728 C2733 1.363 . S
C2729 H2700 0.950 . S
C2729 C2728 1.397 . S
C2729 C2730 1.334 . S
C2730 H2701 0.950 . S
C2730 C2729 1.334 . S
C2730 C2731 1.287 . S
C2731 C2730 1.287 . S
C2731 C2732 1.524 . S
C2731 H2734 0.999 . S
C2732 H2702 0.950 . S
C2732 C2731 1.524 . S
C2732 C2733 1.415 . S
C2733 H2703 0.950 . S
C2733 C2728 1.363 . S
C2733 C2732 1.415 . S
H2734 C2731 0.999 . S
H2735 C2716 0.913 . S
C355 C9 1.843 . S
C370 C107 1.843 . S
C405 C121 1.843 . S
C420 C23 1.843 . S
C455 C37 1.843 . S
C470 C135 1.843 . S
C505 C51 1.843 . S
C520 C149 1.843 . S
C555 C163 1.843 . S
C570 C65 1.843 . S
C605 C79 1.843 . S
C620 C93 1.843 . S
C655 C177 1.843 . S
C670 C275 1.843 . S
C705 C191 1.843 . S
C720 C289 1.843 . S
C755 C303 1.843 . S
C770 C205 1.843 . S
C805 C219 1.843 . S
C820 C317 1.843 . S
C855 C233 1.843 . S
C870 C331 1.843 . S
C905 C261 1.843 . S
C920 C247 1.843 . S
C955 C6 1.501 . S
C970 C118 1.501 . S
C1005 C132 1.501 . S
C1020 C20 1.501 . S
C1055 C146 1.501 . S
C1070 C34 1.500 . S
C1105 C48 1.500 . S
C1120 C160 1.500 . S
C1155 C62 1.501 . S
C1170 C90 1.500 . S
C1205 C76 1.501 . S
C1220 C104 1.501 . S
C1255 C286 1.501 . S
C1270 C174 1.501 . S
C1305 C188 1.501 . S
C1320 C300 1.501 . S
C1355 C314 1.501 . S
C1370 C202 1.500 . S
C1405 C328 1.501 . S
C1420 C216 1.501 . S
C1455 C258 1.501 . S
C1470 C230 1.500 . S
C1505 C244 1.501 . S
C1520 C272 1.501 . S
C1555 C7 1.575 . S
C1570 C217 1.574 . S
C1605 C231 1.574 . S
C1620 C21 1.574 . S
C1655 C245 1.574 . S
C1670 C35 1.575 . S
C1705 C49 1.574 . S
C1720 C175 1.574 . S
C1755 C63 1.575 . S
C1770 C189 1.574 . S
C1805 C203 1.574 . S
C1820 C77 1.574 . S
C1855 C301 1.574 . S
C1870 C91 1.575 . S
C1905 C315 1.574 . S
C1920 C105 1.574 . S
C1955 C329 1.575 . S
C1970 C119 1.574 . S
C2005 C259 1.575 . S
C2020 C133 1.574 . S
C2055 C147 1.574 . S
C2070 C273 1.575 . S
C2105 C161 1.574 . S
C2120 C287 1.575 . S
C2155 C8 1.305 . S
C2170 C148 1.305 . S
C2205 C162 1.305 . S
C2220 C22 1.305 . S
C2255 C92 1.305 . S
C2270 C36 1.305 . S
C2305 C50 1.305 . S
C2320 C106 1.305 . S
C2355 C64 1.305 . S
C2370 C120 1.305 . S
C2405 C78 1.305 . S
C2420 C134 1.305 . S
C2455 C176 1.305 . S
C2470 C316 1.305 . S
C2505 C190 1.305 . S
C2520 C330 1.305 . S
C2555 C204 1.305 . S
C2570 C260 1.305 . S
C2605 C274 1.305 . S
C2620 C218 1.305 . S
C2655 C232 1.305 . S
C2670 C288 1.305 . S
C2705 C246 1.305 . S
C2720 C302 1.305 . S
