# Generated by pormake.
# Topology sra, (4)-cn, num edge types: 1
# Building blocks:
#     Node 0, Type 0, BuildingBlock: QUQFOY_clean_sbu_3, # of connection points: 4
#     Node 1, Type 0, BuildingBlock: QUQFOY_clean_sbu_3, # of connection points: 4
#     Node 2, Type 0, BuildingBlock: QUQFOY_clean_sbu_3, # of connection points: 4
#     Node 3, Type 0, BuildingBlock: QUQFOY_clean_sbu_3, # of connection points: 4
#     Node 4, Type 0, BuildingBlock: QUQFOY_clean_sbu_3, # of connection points: 4
#     Node 5, Type 0, BuildingBlock: QUQFOY_clean_sbu_3, # of connection points: 4
#     Node 6, Type 0, BuildingBlock: QUQFOY_clean_sbu_3, # of connection points: 4
#     Node 7, Type 0, BuildingBlock: QUQFOY_clean_sbu_3, # of connection points: 4
#     Edge 8, Type (0, 0), BuildingBlock: ZUJKAS_clean_linker_0, # of connection points: 2
#     Edge 9, Type (0, 0), BuildingBlock: ZUJKAS_clean_linker_0, # of connection points: 2
#     Edge 10, Type (0, 0), BuildingBlock: ZUJKAS_clean_linker_0, # of connection points: 2
#     Edge 11, Type (0, 0), BuildingBlock: ZUJKAS_clean_linker_0, # of connection points: 2
#     Edge 12, Type (0, 0), BuildingBlock: ZUJKAS_clean_linker_0, # of connection points: 2
#     Edge 13, Type (0, 0), BuildingBlock: ZUJKAS_clean_linker_0, # of connection points: 2
#     Edge 14, Type (0, 0), BuildingBlock: ZUJKAS_clean_linker_0, # of connection points: 2
#     Edge 15, Type (0, 0), BuildingBlock: ZUJKAS_clean_linker_0, # of connection points: 2
#     Edge 16, Type (0, 0), BuildingBlock: ZUJKAS_clean_linker_0, # of connection points: 2
#     Edge 17, Type (0, 0), BuildingBlock: ZUJKAS_clean_linker_0, # of connection points: 2
#     Edge 18, Type (0, 0), BuildingBlock: ZUJKAS_clean_linker_0, # of connection points: 2
#     Edge 19, Type (0, 0), BuildingBlock: ZUJKAS_clean_linker_0, # of connection points: 2
#     Edge 20, Type (0, 0), BuildingBlock: ZUJKAS_clean_linker_0, # of connection points: 2
#     Edge 21, Type (0, 0), BuildingBlock: ZUJKAS_clean_linker_0, # of connection points: 2
#     Edge 22, Type (0, 0), BuildingBlock: ZUJKAS_clean_linker_0, # of connection points: 2
#     Edge 23, Type (0, 0), BuildingBlock: ZUJKAS_clean_linker_0, # of connection points: 2
# Relax obj value: 0.028
# Max RMSD: 0.060
# Mean RMSD: 0.060
data_MOF--net-sra--node1-QUQFOY_clean_sbu_3--edge1-ZUJKAS_clean_linker_0
_symmetry_space_group_name_H-M    P1
_symmetry_Int_Tables_number       1
_symmetry_cell_setting            triclinic
loop_
_symmetry_equiv_pos_as_xyz
'x, y, z'
_cell_length_a     36.852102
_cell_length_b     70.407526
_cell_length_c     43.571883
_cell_angle_alpha  90.08489
_cell_angle_beta   89.961322
_cell_angle_gamma 90.244132
loop_
_atom_site_label
_atom_site_type_symbol
_atom_site_fract_x
_atom_site_fract_y
_atom_site_fract_z
_atom_type_partial_charge
C0 C 0.0525 0.09506 0.19996 0.0
O1 O 0.02915 0.09917 0.22031 0.0
Cd2 Cd 0.96754 0.10578 0.20684 0.0
O3 O 0.04297 0.09287 0.17208 0.0
Cd4 Cd -0.01255 0.09219 0.14002 0.0
C5 C 0.98099 0.13932 0.1495 0.0
O6 O 0.9451 0.07943 0.17779 0.0
O7 O 0.92111 0.09283 0.13822 0.0
O8 O 0.011 0.06228 0.12146 0.0
C9 C 0.91678 0.08321 0.16252 0.0
O10 O 0.97026 0.13497 0.17642 0.0
C11 C 0.00581 0.0655 0.09318 0.0
O12 O -0.0087 0.12647 0.13083 0.0
O13 O -0.00738 0.08159 0.08621 0.0
C14 C 0.93651 0.38013 0.20713 0.0
O15 O 0.9595 0.37384 0.2262 0.0
Cd16 Cd 0.02228 0.36987 0.21325 0.0
O17 O 0.94618 0.38479 0.1801 0.0
Cd18 Cd 0.00175 0.38578 0.14828 0.0
C19 C 0.01127 0.33826 0.15358 0.0
O20 O 0.04396 0.39759 0.18701 0.0
O21 O 0.06799 0.3856 0.14616 0.0
O22 O 0.98108 0.41651 0.13083 0.0
C23 C 0.07221 0.3946 0.17114 0.0
O24 O 0.02291 0.34182 0.18051 0.0
C25 C -0.01609 0.41309 0.10235 0.0
O26 O -0.00097 0.35155 0.13668 0.0
O27 O -0.00552 0.39656 0.09481 0.0
C28 C 0.05841 0.87928 0.77735 0.0
O29 O 0.03586 0.87471 0.75658 0.0
Cd30 Cd 0.97353 0.86818 0.76835 0.0
O31 O 0.0478 0.88193 0.80484 0.0
Cd32 Cd -0.00869 0.88274 0.83551 0.0
C33 C -0.01524 0.83546 0.82711 0.0
O34 O 0.94993 0.89453 0.79642 0.0
O35 O 0.92505 0.88146 0.83602 0.0
O36 O 0.01283 0.91326 0.85363 0.0
C37 C 0.92123 0.89057 0.81116 0.0
O38 O 0.97472 0.83947 0.79989 0.0
C39 C 0.00795 0.91004 0.88196 0.0
O40 O -0.0051 0.84852 0.84554 0.0
O41 O -0.00422 0.89371 0.88914 0.0
C42 C 0.93454 0.59286 0.77496 0.0
O43 O 0.95738 0.59759 0.75449 0.0
Cd44 Cd 0.02001 0.60377 0.76614 0.0
O45 O 0.94479 0.58993 0.80246 0.0
Cd46 Cd 0.00084 0.58898 0.83367 0.0
C47 C 0.00947 0.63642 0.8251 0.0
O48 O 0.04264 0.57741 0.79454 0.0
O49 O 0.06699 0.58854 0.83591 0.0
O50 O 0.98044 0.55839 0.85243 0.0
C51 C 0.07114 0.58045 0.81013 0.0
O52 O 0.01926 0.63243 0.79778 0.0
C53 C -0.01722 0.56242 0.88074 0.0
O54 O -0.00083 0.62336 0.84344 0.0
O55 O -0.00707 0.57921 0.88749 0.0
C56 C 0.55544 0.59575 0.69985 0.0
O57 O 0.53278 0.60074 0.72027 0.0
Cd58 Cd 0.47 0.60625 0.70915 0.0
O59 O 0.54502 0.59245 0.67246 0.0
Cd60 Cd 0.48859 0.59113 0.64154 0.0
C61 C 0.4791 0.63849 0.6495 0.0
O62 O 0.4489 0.57894 0.68194 0.0
O63 O 0.42241 0.58893 0.641 0.0
O64 O 0.51611 0.56241 0.62128 0.0
C65 C 0.41967 0.58111 0.66706 0.0
O66 O 0.46935 0.63464 0.67688 0.0
C67 C 0.50661 0.56513 0.59367 0.0
O68 O 0.48987 0.62541 0.63145 0.0
O69 O 0.4894 0.58032 0.58795 0.0
C70 C 0.43702 0.88025 0.70145 0.0
O71 O 0.46008 0.87537 0.72153 0.0
Cd72 Cd 0.52194 0.86885 0.70846 0.0
O73 O 0.44682 0.88314 0.6738 0.0
Cd74 Cd 0.50254 0.88389 0.6421 0.0
C75 C 0.50875 0.83654 0.64929 0.0
O76 O 0.54523 0.89539 0.68054 0.0
O77 O 0.5688 0.88244 0.6403 0.0
O78 O 0.48264 0.91472 0.62473 0.0
C79 C 0.57345 0.89148 0.66519 0.0
O80 O 0.51971 0.84032 0.67637 0.0
C81 C 0.48569 0.91136 0.59625 0.0
O82 O 0.49814 0.84975 0.63148 0.0
O83 O 0.49606 0.8948 0.58865 0.0
C84 C 0.55552 0.37735 0.27778 0.0
O85 O 0.53317 0.37111 0.25802 0.0
Cd86 Cd 0.46992 0.36736 0.26935 0.0
O87 O 0.54493 0.3819 0.30461 0.0
Cd88 Cd 0.48828 0.3827 0.33511 0.0
C89 C 0.47796 0.33535 0.32862 0.0
O90 O 0.44874 0.39537 0.29503 0.0
O91 O 0.42211 0.3835 0.33475 0.0
O92 O 0.5156 0.41159 0.35536 0.0
C93 C 0.41957 0.39264 0.30983 0.0
O94 O 0.46713 0.33912 0.30156 0.0
C95 C 0.50552 0.40904 0.38288 0.0
O96 O 0.49018 0.34846 0.34602 0.0
O97 O 0.48798 0.39387 0.3886 0.0
C98 C 0.43162 0.09273 0.27346 0.0
O99 O 0.4538 0.09765 0.25261 0.0
Cd100 Cd 0.51609 0.10452 0.26395 0.0
O101 O 0.44264 0.08998 0.30078 0.0
Cd102 Cd 0.4998 0.08959 0.33056 0.0
C103 C 0.50544 0.13697 0.32312 0.0
O104 O 0.54093 0.07805 0.29094 0.0
O105 O 0.56609 0.09115 0.33045 0.0
O106 O 0.48123 0.05868 0.34916 0.0
C107 C 0.56972 0.08197 0.30558 0.0
O108 O 0.51493 0.13324 0.29563 0.0
C109 C 0.48463 0.06245 0.37749 0.0
O110 O 0.49613 0.12369 0.34137 0.0
O111 O 0.4947 0.07922 0.38439 0.0
H112 H 0.98117 0.32358 0.10066 0.0
H113 H 0.97643 0.28995 0.08605 0.0
H114 H 0.03457 0.27426 0.16798 0.0
H115 H 0.03994 0.30751 0.18243 0.0
H116 H 0.0566 0.2541 0.11583 0.0
H117 H 0.90633 0.25347 0.13031 0.0
H118 H 0.92511 0.27033 0.10366 0.0
H119 H 0.93416 0.27286 0.14394 0.0
C120 C -0.00675 0.31296 0.11537 0.0
C121 C 0.0106 0.31825 0.14289 0.0
C122 C -0.00963 0.29377 0.10706 0.0
C123 C 0.00474 0.27961 0.12616 0.0
C124 C 0.02324 0.28494 0.15292 0.0
H125 H 0.96037 0.16979 0.18389 0.0
H126 H 0.96529 0.2033 0.17103 0.0
C127 C 0.02613 0.30401 0.16122 0.0
C128 C -0.00076 0.25912 0.11973 0.0
H129 H 0.93484 0.22418 0.12299 0.0
C130 C 0.02995 0.24752 0.11674 0.0
C131 C 0.9644 0.25064 0.12113 0.0
C132 C 0.93052 0.26237 0.12512 0.0
C133 C 0.02697 0.22763 0.11689 0.0
C134 C -0.00775 0.21916 0.11962 0.0
C135 C 0.96138 0.23076 0.12079 0.0
C136 C -0.01226 0.19858 0.12579 0.0
C137 C 0.06111 0.21588 0.11623 0.0
C138 C -0.00169 0.18472 0.1044 0.0
C139 C -0.0043 0.16538 0.11177 0.0
C140 C 0.98234 0.15964 0.1406 0.0
C141 C 0.97093 0.17363 0.16153 0.0
C142 C 0.97359 0.19284 0.15419 0.0
H143 H 0.08597 0.22473 0.11874 0.0
H144 H 0.06067 0.20515 0.13489 0.0
H145 H 0.06279 0.20819 0.09403 0.0
H146 H 0.00882 0.18885 0.08217 0.0
H147 H 0.00453 0.15498 0.09505 0.0
H148 H 0.01205 0.82013 0.88043 0.0
H149 H 0.01612 0.78632 0.89379 0.0
H150 H 0.96366 0.77149 0.80859 0.0
H151 H 0.95912 0.80492 0.79523 0.0
H152 H 0.93754 0.75106 0.86034 0.0
H153 H 0.08836 0.75004 0.85064 0.0
H154 H 0.06848 0.76703 0.87646 0.0
H155 H 0.06166 0.7694 0.83588 0.0
C156 C 0.00114 0.80966 0.86467 0.0
C157 C -0.01445 0.81525 0.83663 0.0
C158 C 0.00361 0.79037 0.8723 0.0
C159 C -0.00948 0.77642 0.85202 0.0
C160 C 0.97395 0.78202 0.82456 0.0
H161 H 0.03233 0.66711 0.79223 0.0
H162 H 0.02859 0.70049 0.80622 0.0
C163 C 0.97154 0.80118 0.81691 0.0
C164 C -0.00483 0.75588 0.85813 0.0
H165 H 0.05867 0.72076 0.8559 0.0
C166 C 0.96402 0.7444 0.86005 0.0
C167 C 0.02979 0.74731 0.85757 0.0
C168 C 0.06409 0.75898 0.85487 0.0
C169 C 0.96646 0.7245 0.85965 0.0
C170 C 0.00102 0.71592 0.85766 0.0
C171 C 0.03225 0.72741 0.85755 0.0
C172 C 0.0051 0.69539 0.85098 0.0
C173 C 0.93199 0.71285 0.85923 0.0
C174 C -0.00639 0.68137 0.87175 0.0
C175 C -0.00444 0.66211 0.86374 0.0
C176 C 0.00911 0.65661 0.83485 0.0
C177 C 0.02154 0.67076 0.81459 0.0
C178 C 0.01958 0.68989 0.82259 0.0
H179 H 0.90743 0.7218 0.85659 0.0
H180 H 0.93266 0.70236 0.84017 0.0
H181 H 0.92953 0.70487 0.88108 0.0
H182 H -0.0172 0.68533 0.89397 0.0
H183 H -0.01405 0.65157 0.87995 0.0
H184 H 0.4518 0.66898 0.68028 0.0
H185 H 0.45502 0.70229 0.66584 0.0
H186 H 0.50899 0.68725 0.58145 0.0
H187 H 0.50626 0.65359 0.59592 0.0
H188 H 0.54436 0.71556 0.61331 0.0
H189 H 0.39912 0.73329 0.60332 0.0
H190 H 0.40823 0.72133 0.63877 0.0
H191 H 0.41525 0.70909 0.60293 0.0
C192 C 0.46402 0.67264 0.65845 0.0
C193 C 0.47885 0.65857 0.63929 0.0
C194 C 0.46551 0.69173 0.65009 0.0
C195 C 0.48163 0.69724 0.62231 0.0
C196 C 0.49608 0.68326 0.60285 0.0
H197 H 0.47786 0.8216 0.597 0.0
H198 H 0.47339 0.78794 0.58259 0.0
C199 C 0.49449 0.66406 0.61116 0.0
C200 C 0.4861 0.71773 0.61543 0.0
H201 H 0.43953 0.75951 0.61629 0.0
C202 C 0.5214 0.72515 0.6132 0.0
C203 C 0.45617 0.73024 0.61468 0.0
C204 C 0.41756 0.72304 0.61471 0.0
C205 C 0.52763 0.74483 0.61288 0.0
C206 C 0.49782 0.75733 0.61533 0.0
C207 C 0.46242 0.74992 0.61488 0.0
C208 C 0.50285 0.77779 0.6222 0.0
C209 C 0.56617 0.75203 0.611 0.0
C210 C 0.52065 0.78319 0.64929 0.0
C211 C 0.52309 0.80227 0.65763 0.0
C212 C 0.50761 0.81644 0.63913 0.0
C213 C 0.49018 0.81105 0.61171 0.0
C214 C 0.4876 0.79185 0.60343 0.0
H215 H 0.58384 0.74177 0.59874 0.0
H216 H 0.56764 0.76595 0.5991 0.0
H217 H 0.57709 0.75382 0.63456 0.0
H218 H 0.53184 0.77257 0.66451 0.0
H219 H 0.53669 0.80586 0.67891 0.0
H220 H 0.50748 0.32018 0.38121 0.0
H221 H 0.51162 0.28641 0.39481 0.0
H222 H 0.45304 0.27155 0.3125 0.0
H223 H 0.44829 0.30495 0.29903 0.0
H224 H 0.43119 0.25069 0.36434 0.0
H225 H 0.58132 0.25077 0.34855 0.0
H226 H 0.56275 0.26726 0.37587 0.0
H227 H 0.55342 0.2702 0.33574 0.0
C228 C 0.49514 0.30971 0.36622 0.0
C229 C 0.47792 0.31527 0.33885 0.0
C230 C 0.49767 0.29044 0.37396 0.0
C231 C 0.48305 0.27649 0.35443 0.0
C232 C 0.46455 0.28208 0.32787 0.0
H233 H 0.52501 0.16825 0.29014 0.0
H234 H 0.52058 0.20144 0.30516 0.0
C235 C 0.46203 0.30122 0.32014 0.0
C236 C 0.48852 0.25595 0.36006 0.0
H237 H 0.55268 0.22129 0.35435 0.0
C238 C 0.45779 0.24422 0.36285 0.0
C239 C 0.52329 0.24761 0.35792 0.0
C240 C 0.55717 0.25951 0.35418 0.0
C241 C 0.46067 0.22435 0.3617 0.0
C242 C 0.4953 0.21604 0.35809 0.0
C243 C 0.52621 0.22774 0.3572 0.0
C244 C 0.49955 0.19564 0.35057 0.0
C245 C 0.4265 0.21246 0.36219 0.0
C246 C 0.48962 0.18129 0.37132 0.0
C247 C 0.49197 0.16214 0.36272 0.0
C248 C 0.5044 0.15708 0.33326 0.0
C249 C 0.51516 0.17156 0.31295 0.0
C250 C 0.51279 0.19059 0.32153 0.0
H251 H 0.40162 0.22127 0.3608 0.0
H252 H 0.42641 0.20222 0.34279 0.0
H253 H 0.42542 0.2042 0.38384 0.0
H254 H 0.4798 0.1849 0.39402 0.0
H255 H 0.48365 0.15134 0.37898 0.0
H256 H 0.37575 0.0865 0.31356 0.0
H257 H 0.31093 0.08463 0.30188 0.0
H258 H 0.33411 0.09257 0.20575 0.0
H259 H 0.39903 0.09448 0.21709 0.0
H260 H 0.27077 0.11463 0.27035 0.0
H261 H 0.26529 0.04501 0.21005 0.0
H262 H 0.30195 0.05157 0.23553 0.0
H263 H 0.30007 0.06123 0.19747 0.0
C264 C 0.36715 0.08768 0.28988 0.0
C265 C 0.39258 0.09065 0.26624 0.0
C266 C 0.33012 0.08662 0.28329 0.0
C267 C 0.31792 0.08828 0.25297 0.0
C268 C 0.34315 0.09099 0.22926 0.0
H269 H 0.11085 0.09201 0.16157 0.0
H270 H 0.17486 0.09008 0.17568 0.0
C271 C 0.38019 0.09217 0.23582 0.0
C272 C 0.27865 0.08825 0.2463 0.0
H273 H 0.21201 0.06372 0.2089 0.0
C274 C 0.25777 0.10346 0.2571 0.0
C275 C 0.26207 0.07369 0.22888 0.0
C276 C 0.28334 0.05684 0.21744 0.0
C277 C 0.22069 0.10476 0.25027 0.0
C278 C 0.20398 0.09017 0.23285 0.0
C279 C 0.22489 0.07486 0.22229 0.0
C280 C 0.16503 0.09079 0.22463 0.0
C281 C 0.2001 0.12205 0.26091 0.0
C282 C 0.13825 0.09149 0.24751 0.0
C283 C 0.10163 0.09278 0.23954 0.0
C284 C 0.09113 0.0931 0.20852 0.0
C285 C 0.118 0.09183 0.18568 0.0
C286 C 0.1546 0.0907 0.19368 0.0
H287 H 0.21865 0.13406 0.26648 0.0
H288 H 0.18057 0.12684 0.24317 0.0
H289 H 0.18465 0.11847 0.282 0.0
H290 H 0.14566 0.09108 0.27155 0.0
H291 H 0.08158 0.09353 0.25769 0.0
H292 H 0.59347 0.35537 0.2377 0.0
H293 H 0.65857 0.35656 0.22703 0.0
H294 H 0.66966 0.40462 0.28804 0.0
H295 H 0.60496 0.40264 0.30026 0.0
H296 H 0.70018 0.381 0.20188 0.0
H297 H 0.74766 0.37255 0.32147 0.0
H298 H 0.70067 0.36975 0.31098 0.0
H299 H 0.71954 0.39308 0.31745 0.0
C300 C 0.60989 0.36614 0.24889 0.0
C301 C 0.59436 0.3788 0.27001 0.0
C302 C 0.64707 0.36682 0.2428 0.0
C303 C 0.6693 0.3804 0.25728 0.0
C304 C 0.65344 0.39356 0.27745 0.0
H305 H 0.8861 0.40508 0.18596 0.0
H306 H 0.82155 0.40618 0.19891 0.0
C307 C 0.61642 0.39254 0.2842 0.0
C308 C 0.70886 0.3809 0.25078 0.0
H309 H 0.79227 0.38178 0.28478 0.0
C310 C 0.72032 0.38104 0.22003 0.0
C311 C 0.73523 0.38063 0.27442 0.0
C312 C 0.72516 0.37878 0.30788 0.0
C313 C 0.75724 0.38091 0.21224 0.0
C314 C 0.78359 0.38164 0.23588 0.0
C315 C 0.77214 0.38149 0.26663 0.0
C316 C 0.82315 0.38187 0.22933 0.0
C317 C 0.7674 0.37931 0.17875 0.0
C318 C 0.84603 0.36859 0.24349 0.0
C319 C 0.88313 0.36841 0.23698 0.0
C320 C 0.89792 0.38129 0.21578 0.0
C321 C 0.87523 0.39482 0.20208 0.0
C322 C 0.83829 0.39533 0.20923 0.0
H323 H 0.7452 0.37273 0.16509 0.0
H324 H 0.77235 0.39373 0.16934 0.0
H325 H 0.7923 0.37071 0.17557 0.0
H326 H 0.83508 0.35812 0.2592 0.0
H327 H 0.90003 0.3578 0.2478 0.0
H328 H 0.09033 0.87792 0.7206 0.0
H329 H 0.15519 0.87983 0.70869 0.0
H330 H 0.1795 0.88671 0.80482 0.0
H331 H 0.11483 0.88489 0.81708 0.0
H332 H 0.20789 0.91125 0.72801 0.0
H333 H 0.23895 0.83892 0.77217 0.0
H334 H 0.1938 0.84583 0.76069 0.0
H335 H 0.2122 0.85418 0.79636 0.0
C336 C 0.10943 0.8799 0.73922 0.0
C337 C 0.09741 0.88116 0.76981 0.0
C338 C 0.14641 0.88103 0.73235 0.0
C339 C 0.17191 0.88325 0.75593 0.0
C340 C 0.16009 0.88483 0.78639 0.0
H341 H 0.40708 0.87867 0.75891 0.0
H342 H 0.34288 0.88092 0.77256 0.0
C343 C 0.12314 0.88383 0.79329 0.0
C344 C 0.21102 0.88359 0.74876 0.0
H345 H 0.28826 0.8574 0.75485 0.0
C346 C 0.22557 0.89951 0.73381 0.0
C347 C 0.23378 0.86827 0.7566 0.0
C348 C 0.21905 0.85073 0.77218 0.0
C349 C 0.26267 0.90059 0.72671 0.0
C350 C 0.28542 0.88512 0.73411 0.0
C351 C 0.27077 0.86925 0.74924 0.0
C352 C 0.32439 0.88485 0.72588 0.0
C353 C 0.27722 0.91843 0.71189 0.0
C354 C 0.33523 0.88624 0.6951 0.0
C355 C 0.37188 0.88508 0.68723 0.0
C356 C 0.39836 0.88224 0.70998 0.0
C357 C 0.3874 0.88086 0.74082 0.0
C358 C 0.35073 0.88214 0.74868 0.0
H359 H 0.25922 0.93077 0.71623 0.0
H360 H 0.30484 0.92191 0.72044 0.0
H361 H 0.27878 0.91627 0.6867 0.0
H362 H 0.31527 0.88784 0.67706 0.0
H363 H 0.37935 0.88606 0.66323 0.0
H364 H 0.61258 0.59017 0.66081 0.0
H365 H 0.67684 0.58803 0.6739 0.0
H366 H 0.65065 0.59463 0.76981 0.0
H367 H 0.58634 0.59727 0.7569 0.0
H368 H 0.70595 0.61756 0.75247 0.0
H369 H 0.73176 0.54429 0.71132 0.0
H370 H 0.71268 0.55934 0.68238 0.0
H371 H 0.68655 0.55361 0.71605 0.0
C372 C 0.62042 0.59104 0.68473 0.0
C373 C 0.59429 0.59386 0.70783 0.0
C374 C 0.65717 0.58967 0.69218 0.0
C375 C 0.66846 0.59081 0.72287 0.0
C376 C 0.64247 0.5936 0.74598 0.0
H377 H 0.87755 0.58724 0.81418 0.0
H378 H 0.81293 0.58627 0.80155 0.0
C379 C 0.60574 0.59511 0.73855 0.0
C380 C 0.70752 0.59006 0.73078 0.0
H381 H 0.78387 0.56302 0.72378 0.0
C382 C 0.72291 0.60557 0.74641 0.0
C383 C 0.72959 0.57438 0.72283 0.0
C384 C 0.71426 0.55688 0.70749 0.0
C385 C 0.75992 0.60599 0.75382 0.0
C386 C 0.78198 0.59046 0.74549 0.0
C387 C 0.76673 0.57492 0.72997 0.0
C388 C 0.82107 0.59019 0.75283 0.0
C389 C 0.7754 0.62314 0.77005 0.0
C390 C 0.84687 0.59236 0.72944 0.0
C391 C 0.88384 0.59301 0.73653 0.0
C392 C 0.89555 0.5913 0.76714 0.0
C393 C 0.8695 0.58863 0.79039 0.0
C394 C 0.83257 0.58812 0.78327 0.0
H395 H 0.7561 0.63522 0.77035 0.0
H396 H 0.78185 0.61934 0.79414 0.0
H397 H 0.80098 0.62782 0.75884 0.0
H398 H 0.83835 0.59392 0.70579 0.0
H399 H 0.90317 0.595 0.71808 0.0
H400 H 0.63416 0.87077 0.65387 0.0
H401 H 0.69305 0.87364 0.67917 0.0
H402 H 0.65447 0.92227 0.72989 0.0
H403 H 0.59471 0.91864 0.70601 0.0
H404 H 0.74337 0.89893 0.68079 0.0
H405 H 0.68996 0.89123 0.79906 0.0
H406 H 0.66187 0.8877 0.76572 0.0
H407 H 0.67125 0.91134 0.77963 0.0
C408 C 0.6383 0.88208 0.6704 0.0
C409 C 0.60987 0.89436 0.6783 0.0
C410 C 0.67195 0.88373 0.68484 0.0
C411 C 0.678 0.89789 0.70704 0.0
C412 C 0.65012 0.9108 0.71371 0.0
H413 H 0.90161 0.9176 0.76977 0.0
H414 H 0.84228 0.9215 0.74534 0.0
C415 C 0.61612 0.90884 0.69986 0.0
C416 C 0.71338 0.89886 0.72324 0.0
H417 H 0.75224 0.899 0.79432 0.0
C418 C 0.74532 0.8989 0.70563 0.0
C419 C 0.71594 0.89858 0.75568 0.0
C420 C 0.68294 0.89701 0.77611 0.0
C421 C 0.77966 0.89829 0.71945 0.0
C422 C 0.78222 0.89861 0.75188 0.0
C423 C 0.7503 0.89894 0.76948 0.0
C424 C 0.81753 0.89736 0.76813 0.0
C425 C 0.81259 0.89644 0.69903 0.0
C426 C 0.8228 0.88323 0.79039 0.0
C427 C 0.8562 0.88143 0.80513 0.0
C428 C 0.88518 0.89353 0.79748 0.0
C429 C 0.87977 0.90795 0.77575 0.0
C430 C 0.84601 0.91006 0.76158 0.0
H431 H 0.80533 0.8907 0.67606 0.0
H432 H 0.82493 0.91068 0.69554 0.0
H433 H 0.83324 0.88699 0.70942 0.0
H434 H 0.80124 0.8733 0.79595 0.0
H435 H 0.85968 0.87017 0.82177 0.0
H436 H 0.35294 0.58838 0.64278 0.0
H437 H 0.294 0.58512 0.66811 0.0
H438 H 0.34627 0.56249 0.74854 0.0
H439 H 0.40552 0.56572 0.72343 0.0
H440 H 0.27731 0.54305 0.72601 0.0
H441 H 0.2685 0.62123 0.74345 0.0
H442 H 0.27953 0.61333 0.70528 0.0
H443 H 0.31093 0.60931 0.73603 0.0
C444 C 0.35192 0.58254 0.66574 0.0
C445 C 0.3839 0.57747 0.68124 0.0
C446 C 0.31825 0.58071 0.68015 0.0
C447 C 0.316 0.57374 0.71021 0.0
C448 C 0.34762 0.56793 0.72532 0.0
H449 H 0.13656 0.58895 0.83617 0.0
H450 H 0.19674 0.58547 0.81319 0.0
C451 C 0.38138 0.56983 0.71097 0.0
C452 C 0.28084 0.57357 0.72643 0.0
H453 H 0.21699 0.603 0.75694 0.0
C454 C 0.26406 0.55611 0.73288 0.0
C455 C 0.26404 0.59066 0.73558 0.0
C456 C 0.28167 0.60974 0.73 0.0
C457 C 0.23028 0.55534 0.7478 0.0
C458 C 0.21308 0.57248 0.75626 0.0
C459 C 0.23027 0.5899 0.7503 0.0
C460 C 0.17701 0.57282 0.77109 0.0
C461 C 0.21338 0.53627 0.75466 0.0
C462 C 0.1461 0.56676 0.75501 0.0
C463 C 0.11165 0.5688 0.76801 0.0
C464 C 0.10762 0.57698 0.79727 0.0
C465 C 0.13877 0.5826 0.81359 0.0
C466 C 0.17315 0.58063 0.80053 0.0
H467 H 0.23351 0.5246 0.75305 0.0
H468 H 0.20113 0.53616 0.77795 0.0
H469 H 0.19148 0.53338 0.7378 0.0
H470 H 0.14852 0.56099 0.73204 0.0
H471 H 0.08816 0.56435 0.75486 0.0
H472 H 0.58767 0.05496 0.26346 0.0
H473 H 0.64718 0.04958 0.24004 0.0
H474 H 0.69146 0.09629 0.29251 0.0
H475 H 0.63273 0.10092 0.31721 0.0
H476 H 0.68464 0.07029 0.20427 0.0
H477 H 0.76878 0.05893 0.30698 0.0
H478 H 0.71992 0.05941 0.30891 0.0
H479 H 0.74585 0.0812 0.31029 0.0
C480 C 0.61034 0.06386 0.27029 0.0
C481 C 0.60577 0.07825 0.29228 0.0
C482 C 0.64429 0.06079 0.2569 0.0
C483 C 0.67411 0.07226 0.26494 0.0
C484 C 0.66934 0.08677 0.28672 0.0
H485 H 0.85412 0.10214 0.15078 0.0
H486 H 0.79494 0.09702 0.17453 0.0
C487 C 0.63565 0.08953 0.30064 0.0
C488 C 0.70951 0.06998 0.24907 0.0
H489 H 0.80083 0.06949 0.26151 0.0
C490 C 0.71002 0.06978 0.21683 0.0
C491 C 0.7427 0.0688 0.26529 0.0
C492 C 0.74422 0.06686 0.29976 0.0
C493 C 0.74277 0.06938 0.20044 0.0
C494 C 0.77599 0.07009 0.21671 0.0
C495 C 0.77545 0.06932 0.24892 0.0
C496 C 0.8115 0.0725 0.20101 0.0
C497 C 0.74119 0.06808 0.16588 0.0
C498 C 0.84102 0.06087 0.20871 0.0
C499 C 0.87524 0.06422 0.19592 0.0
C500 C 0.88038 0.07905 0.17484 0.0
C501 C 0.85076 0.09043 0.16665 0.0
C502 C 0.8168 0.08739 0.18001 0.0
H503 H 0.71642 0.06036 0.15827 0.0
H504 H 0.73994 0.08261 0.15612 0.0
H505 H 0.76529 0.06072 0.15634 0.0
H506 H 0.83772 0.04936 0.22495 0.0
H507 H 0.89769 0.05524 0.20257 0.0
H508 H 0.09094 0.42269 0.21124 0.0
H509 H 0.15117 0.42926 0.23261 0.0
H510 H 0.19464 0.38195 0.18144 0.0
H511 H 0.13522 0.37624 0.15859 0.0
H512 H 0.18958 0.41017 0.26849 0.0
H513 H 0.27202 0.41879 0.16422 0.0
H514 H 0.22314 0.41808 0.16278 0.0
H515 H 0.2491 0.39637 0.16222 0.0
C516 C 0.1136 0.41394 0.20422 0.0
C517 C 0.10861 0.39906 0.18315 0.0
C518 C 0.14797 0.41768 0.21642 0.0
C519 C 0.17779 0.40637 0.20818 0.0
C520 C 0.17257 0.39139 0.18728 0.0
H521 H 0.35483 0.37566 0.3219 0.0
H522 H 0.29648 0.38201 0.29788 0.0
C523 C 0.13847 0.38799 0.17445 0.0
C524 C 0.21356 0.4091 0.22333 0.0
H525 H 0.30465 0.40811 0.20962 0.0
C526 C 0.2147 0.41011 0.25552 0.0
C527 C 0.24652 0.40962 0.20661 0.0
C528 C 0.24754 0.4109 0.17205 0.0
C529 C 0.24776 0.41044 0.27142 0.0
C530 C 0.2806 0.40873 0.25477 0.0
C531 C 0.27955 0.40895 0.22255 0.0
C532 C 0.31598 0.40549 0.27018 0.0
C533 C 0.24691 0.41262 0.30587 0.0
C534 C 0.34693 0.416 0.26175 0.0
C535 C 0.38071 0.4119 0.27471 0.0
C536 C 0.38395 0.39743 0.29667 0.0
C537 C 0.35298 0.38709 0.30536 0.0
C538 C 0.31949 0.39086 0.29185 0.0
H539 H 0.22324 0.42125 0.3132 0.0
H540 H 0.24395 0.39842 0.3166 0.0
H541 H 0.272 0.41948 0.3147 0.0
H542 H 0.34504 0.42726 0.24492 0.0
H543 H 0.40424 0.42007 0.26764 0.0
H544 H -0.01376 0.06532 0.03252 0.0
H545 H -0.00807 0.03888 -0.00389 0.0
H546 H 0.04612 0.00562 0.06513 0.0
H547 H 0.04062 0.03186 0.10159 0.0
H548 H 0.0775 0.00409 0.00314 0.0
H549 H 0.92913 -0.01063 0.00807 0.0
H550 H 0.94209 0.01345 -0.00051 0.0
H551 H 0.95222 0.00366 0.0365 0.0
C552 C -0.00022 0.05247 0.0398 0.0
C553 C 0.0127 0.0506 0.06998 0.0
C554 C 0.00287 0.03738 0.01904 0.0
C555 C 0.01903 0.02027 0.02815 0.0
C556 C 0.03344 0.0187 0.05777 0.0
H557 H -0.00764 0.90922 0.94345 0.0
H558 H -0.00175 0.93545 0.98025 0.0
C559 C 0.03019 0.0337 0.07856 0.0
C560 C 0.01931 0.00363 0.00743 0.0
H561 H 0.96367 0.97091 0.97358 0.0
C562 C 0.05268 -0.00319 -0.0034 0.0
C563 C -0.01312 -0.00597 -0.00051 0.0
C564 C 0.95049 0.00034 0.01161 0.0
C565 C 0.05437 0.98077 0.97745 0.0
C566 C 0.02182 0.97147 0.96889 0.0
C567 C -0.01145 0.97812 0.98017 0.0
C568 C 0.0214 0.95513 0.94747 0.0
C569 C 0.09093 0.97379 0.96683 0.0
C570 C 0.03264 0.95754 0.91699 0.0
C571 C 0.02925 0.94265 0.89598 0.0
C572 C 0.01442 0.92509 0.90505 0.0
C573 C 0.00397 0.92256 0.9358 0.0
C574 C 0.00726 0.93752 0.95681 0.0
H575 H 0.11323 0.97929 0.98156 0.0
H576 H 0.09187 0.95803 0.96677 0.0
H577 H 0.09588 0.97878 0.94304 0.0
H578 H 0.043 0.97112 0.90919 0.0
H579 H 0.0375 0.94508 0.87244 0.0
H580 H 0.96648 0.52506 0.87176 0.0
H581 H 0.96006 0.50031 0.91045 0.0
H582 H 0.97654 0.54184 0.98205 0.0
H583 H -0.01607 0.56673 0.94326 0.0
H584 H 0.01939 0.51118 -0.01081 0.0
H585 H 0.87837 0.48702 0.96818 0.0
H586 H 0.90551 0.4867 0.93401 0.0
H587 H 0.89608 0.50896 0.95271 0.0
C588 C 0.96827 0.52901 0.89574 0.0
C589 C 0.97573 0.54787 0.90446 0.0
C590 C 0.9643 0.51484 0.91786 0.0
C591 C 0.96719 0.51926 0.94916 0.0
C592 C 0.97396 0.53814 0.958 0.0
H593 H 0.96407 0.44971 0.11328 0.0
H594 H 0.95785 0.47539 0.07601 0.0
C595 C 0.97815 0.55234 0.93584 0.0
C596 C 0.96612 0.50392 0.97242 0.0
H597 H 0.91574 0.46628 -0.00186 0.0
C598 C -0.00345 0.50151 -0.00864 0.0
C599 C 0.93631 0.49126 0.97517 0.0
C600 C 0.90208 0.49371 0.95664 0.0
C601 C -0.00167 0.48653 0.01246 0.0
C602 C 0.96894 0.47368 0.01467 0.0
C603 C 0.93831 0.47614 -0.00392 0.0
C604 C 0.96967 0.45776 0.03664 0.0
C605 C 0.03184 0.48428 0.03198 0.0
C606 C 0.9777 0.43932 0.0266 0.0
C607 C 0.98145 0.42457 0.04785 0.0
C608 C 0.97704 0.42811 0.07941 0.0
C609 C 0.96775 0.44652 0.08916 0.0
C610 C 0.96416 0.46122 0.06794 0.0
H611 H 0.05397 0.49414 0.02501 0.0
H612 H 0.02491 0.48715 0.05634 0.0
H613 H 0.04195 0.46947 0.03051 0.0
H614 H 0.98204 0.43647 0.00244 0.0
H615 H -0.01144 0.41055 0.03965 0.0
H616 H 0.46608 0.41542 0.43476 0.0
H617 H 0.47175 0.44231 0.47008 0.0
H618 H 0.56578 0.46217 0.42026 0.0
H619 H 0.55886 0.43592 0.38386 0.0
H620 H 0.51995 0.45434 0.50858 0.0
H621 H 0.50639 0.50892 0.41791 0.0
H622 H 0.49941 0.48401 0.41039 0.0
H623 H 0.54466 0.49378 0.41169 0.0
C624 C 0.48807 0.42548 0.43149 0.0
C625 C 0.51178 0.42375 0.40642 0.0
C626 C 0.49128 0.44085 0.45164 0.0
C627 C 0.51859 0.4546 0.44735 0.0
C628 C 0.54367 0.45219 0.42339 0.0
H629 H 0.55929 0.5381 0.59291 0.0
H630 H 0.56595 0.51193 0.55636 0.0
C631 C 0.53993 0.43708 0.4028 0.0
C632 C 0.5203 0.47152 0.46773 0.0
H633 H 0.52156 0.52003 0.46765 0.0
C634 C 0.52022 0.46871 0.49962 0.0
C635 C 0.52009 0.4903 0.45607 0.0
C636 C 0.51725 0.49447 0.42216 0.0
C637 C 0.51959 0.48408 0.52016 0.0
C638 C 0.52073 0.50285 0.5085 0.0
C639 C 0.52114 0.50566 0.47661 0.0
C640 C 0.51941 0.51978 0.52888 0.0
C641 C 0.51616 0.47993 0.55403 0.0
C642 C 0.49263 0.53366 0.52442 0.0
C643 C 0.4896 0.54898 0.54466 0.0
C644 C 0.51294 0.55053 0.56999 0.0
C645 C 0.54064 0.53708 0.57377 0.0
C646 C 0.54422 0.52202 0.55308 0.0
H647 H 0.50471 0.46554 0.55821 0.0
H648 H 0.54346 0.48046 0.56473 0.0
H649 H 0.49856 0.49049 0.56566 0.0
H650 H 0.47332 0.53234 0.50579 0.0
H651 H 0.46796 0.55913 0.54126 0.0
H652 H 0.49258 0.90926 0.53364 0.0
H653 H 0.48667 0.93539 0.49672 0.0
H654 H 0.45892 0.97364 0.5703 0.0
H655 H 0.46455 0.94776 0.60729 0.0
H656 H 0.41766 0.96622 0.49431 0.0
H657 H 0.55832 -0.00838 0.51859 0.0
H658 H 0.54596 0.96685 0.522 0.0
H659 H 0.53003 0.9836 0.54983 0.0
C660 C 0.4848 0.92318 0.5419 0.0
C661 C 0.47922 0.92647 0.57339 0.0
C662 C 0.48141 0.93804 0.52081 0.0
C663 C 0.47249 0.95634 0.53097 0.0
C664 C 0.46585 0.95956 0.56217 0.0
H665 H 0.4889 0.066 0.44005 0.0
H666 H 0.48222 0.04073 0.47831 0.0
C667 C 0.46913 0.94475 0.58321 0.0
C668 C 0.47204 0.9724 0.5093 0.0
H669 H 0.52404 0.00914 0.4832 0.0
C670 C 0.44084 0.97563 0.49176 0.0
C671 C 0.50221 0.98469 0.50651 0.0
C672 C 0.53621 0.98163 0.5251 0.0
C673 C 0.43906 -0.00902 0.47127 0.0
C674 C 0.46962 0.00307 0.4679 0.0
C675 C 0.50064 -0.00011 0.48583 0.0
C676 C 0.47073 0.01863 0.44506 0.0
C677 C 0.40431 -0.00573 0.45381 0.0
C678 C 0.46651 0.01458 0.41375 0.0
C679 C 0.47013 0.02895 0.39194 0.0
C680 C 0.4785 0.04765 0.40098 0.0
C681 C 0.48239 0.05174 0.43239 0.0
C682 C 0.4786 0.03733 0.45424 0.0
H683 H 0.38065 -0.0122 0.46573 0.0
H684 H 0.39912 0.00966 0.45064 0.0
H685 H 0.40646 -0.01243 0.43081 0.0
H686 H 0.46137 0.00018 0.40607 0.0
H687 H 0.46719 0.02529 0.36792 0.0
loop_
_geom_bond_atom_site_label_1
_geom_bond_atom_site_label_2
_geom_bond_distance
_geom_bond_site_symmetry_2
_ccdc_geom_bond_type
C0 O1 1.306 . S
C0 O3 1.160 . S
O1 C0 1.306 . S
O1 Cd2 2.228 . S
Cd2 O1 2.228 . S
Cd2 O6 2.273 1_455 S
Cd2 O10 2.277 . S
O3 C0 1.160 . S
O3 Cd4 2.203 . S
Cd4 O3 2.203 . S
Cd4 O6 2.411 1_455 S
Cd4 O7 2.333 1_455 S
Cd4 O8 2.352 . S
Cd4 O12 2.277 . S
Cd4 O13 2.356 . S
C5 O10 1.209 . S
C5 O12 1.226 . S
O6 Cd2 2.273 1_655 S
O6 Cd4 2.411 1_655 S
O6 C9 1.320 . S
O7 Cd4 2.333 1_655 S
O7 C9 1.214 . S
O8 Cd4 2.352 . S
O8 C11 1.258 . S
C9 O6 1.320 . S
C9 O7 1.214 . S
O10 Cd2 2.277 . S
O10 C5 1.209 . S
C11 O8 1.258 . S
C11 O13 1.282 . S
O12 Cd4 2.277 . S
O12 C5 1.226 . S
O13 Cd4 2.356 . S
O13 C11 1.282 . S
C14 O15 1.306 . S
C14 O17 1.160 . S
O15 C14 1.306 . S
O15 Cd16 2.228 1_655 S
Cd16 O15 2.228 1_455 S
Cd16 O20 2.273 . S
Cd16 O24 2.277 . S
O17 C14 1.160 . S
O17 Cd18 2.203 1_655 S
Cd18 O17 2.203 1_455 S
Cd18 O20 2.411 . S
Cd18 O21 2.333 . S
Cd18 O22 2.352 . S
Cd18 O26 2.277 . S
Cd18 O27 2.356 . S
C19 O24 1.209 . S
C19 O26 1.226 . S
O20 Cd16 2.273 . S
O20 Cd18 2.411 . S
O20 C23 1.320 . S
O21 Cd18 2.333 . S
O21 C23 1.214 . S
O22 Cd18 2.352 . S
O22 C25 1.258 . S
C23 O20 1.320 . S
C23 O21 1.214 . S
O24 Cd16 2.277 . S
O24 C19 1.209 . S
C25 O22 1.258 . S
C25 O27 1.282 . S
O26 Cd18 2.277 . S
O26 C19 1.226 . S
O27 Cd18 2.356 . S
O27 C25 1.282 . S
C28 O29 1.306 . S
C28 O31 1.160 . S
O29 C28 1.306 . S
O29 Cd30 2.228 . S
Cd30 O29 2.228 . S
Cd30 O34 2.273 1_455 S
Cd30 O38 2.277 . S
O31 C28 1.160 . S
O31 Cd32 2.203 . S
Cd32 O31 2.203 . S
Cd32 O34 2.411 1_455 S
Cd32 O35 2.333 1_455 S
Cd32 O36 2.352 . S
Cd32 O40 2.277 . S
Cd32 O41 2.356 . S
C33 O38 1.209 . S
C33 O40 1.226 . S
O34 Cd30 2.273 1_655 S
O34 Cd32 2.411 1_655 S
O34 C37 1.320 . S
O35 Cd32 2.333 1_655 S
O35 C37 1.214 . S
O36 Cd32 2.352 . S
O36 C39 1.258 . S
C37 O34 1.320 . S
C37 O35 1.214 . S
O38 Cd30 2.277 . S
O38 C33 1.209 . S
C39 O36 1.258 . S
C39 O41 1.282 . S
O40 Cd32 2.277 . S
O40 C33 1.226 . S
O41 Cd32 2.356 . S
O41 C39 1.282 . S
C42 O43 1.306 . S
C42 O45 1.160 . S
O43 C42 1.306 . S
O43 Cd44 2.228 1_655 S
Cd44 O43 2.228 1_455 S
Cd44 O48 2.273 . S
Cd44 O52 2.277 . S
O45 C42 1.160 . S
O45 Cd46 2.203 1_655 S
Cd46 O45 2.203 1_455 S
Cd46 O48 2.411 . S
Cd46 O49 2.333 . S
Cd46 O50 2.352 . S
Cd46 O54 2.277 . S
Cd46 O55 2.356 . S
C47 O52 1.209 . S
C47 O54 1.226 . S
O48 Cd44 2.273 . S
O48 Cd46 2.411 . S
O48 C51 1.320 . S
O49 Cd46 2.333 . S
O49 C51 1.214 . S
O50 Cd46 2.352 . S
O50 C53 1.258 . S
C51 O48 1.320 . S
C51 O49 1.214 . S
O52 Cd44 2.277 . S
O52 C47 1.209 . S
C53 O50 1.258 . S
C53 O55 1.282 . S
O54 Cd46 2.277 . S
O54 C47 1.226 . S
O55 Cd46 2.356 . S
O55 C53 1.282 . S
C56 O57 1.306 . S
C56 O59 1.160 . S
O57 C56 1.306 . S
O57 Cd58 2.228 . S
Cd58 O57 2.228 . S
Cd58 O62 2.273 . S
Cd58 O66 2.277 . S
O59 C56 1.160 . S
O59 Cd60 2.203 . S
Cd60 O59 2.203 . S
Cd60 O62 2.411 . S
Cd60 O63 2.333 . S
Cd60 O64 2.352 . S
Cd60 O68 2.277 . S
Cd60 O69 2.356 . S
C61 O66 1.209 . S
C61 O68 1.226 . S
O62 Cd58 2.273 . S
O62 Cd60 2.411 . S
O62 C65 1.320 . S
O63 Cd60 2.333 . S
O63 C65 1.214 . S
O64 Cd60 2.352 . S
O64 C67 1.258 . S
C65 O62 1.320 . S
C65 O63 1.214 . S
O66 Cd58 2.277 . S
O66 C61 1.209 . S
C67 O64 1.258 . S
C67 O69 1.282 . S
O68 Cd60 2.277 . S
O68 C61 1.226 . S
O69 Cd60 2.356 . S
O69 C67 1.282 . S
C70 O71 1.306 . S
C70 O73 1.160 . S
O71 C70 1.306 . S
O71 Cd72 2.228 . S
Cd72 O71 2.228 . S
Cd72 O76 2.273 . S
Cd72 O80 2.277 . S
O73 C70 1.160 . S
O73 Cd74 2.203 . S
Cd74 O73 2.203 . S
Cd74 O76 2.411 . S
Cd74 O77 2.333 . S
Cd74 O78 2.352 . S
Cd74 O82 2.277 . S
Cd74 O83 2.356 . S
C75 O80 1.209 . S
C75 O82 1.226 . S
O76 Cd72 2.273 . S
O76 Cd74 2.411 . S
O76 C79 1.320 . S
O77 Cd74 2.333 . S
O77 C79 1.214 . S
O78 Cd74 2.352 . S
O78 C81 1.258 . S
C79 O76 1.320 . S
C79 O77 1.214 . S
O80 Cd72 2.277 . S
O80 C75 1.209 . S
C81 O78 1.258 . S
C81 O83 1.282 . S
O82 Cd74 2.277 . S
O82 C75 1.226 . S
O83 Cd74 2.356 . S
O83 C81 1.282 . S
C84 O85 1.306 . S
C84 O87 1.160 . S
O85 C84 1.306 . S
O85 Cd86 2.228 . S
Cd86 O85 2.228 . S
Cd86 O90 2.273 . S
Cd86 O94 2.277 . S
O87 C84 1.160 . S
O87 Cd88 2.203 . S
Cd88 O87 2.203 . S
Cd88 O90 2.411 . S
Cd88 O91 2.333 . S
Cd88 O92 2.352 . S
Cd88 O96 2.277 . S
Cd88 O97 2.356 . S
C89 O94 1.209 . S
C89 O96 1.226 . S
O90 Cd86 2.273 . S
O90 Cd88 2.411 . S
O90 C93 1.320 . S
O91 Cd88 2.333 . S
O91 C93 1.214 . S
O92 Cd88 2.352 . S
O92 C95 1.258 . S
C93 O90 1.320 . S
C93 O91 1.214 . S
O94 Cd86 2.277 . S
O94 C89 1.209 . S
C95 O92 1.258 . S
C95 O97 1.282 . S
O96 Cd88 2.277 . S
O96 C89 1.226 . S
O97 Cd88 2.356 . S
O97 C95 1.282 . S
C98 O99 1.306 . S
C98 O101 1.160 . S
O99 C98 1.306 . S
O99 Cd100 2.228 . S
Cd100 O99 2.228 . S
Cd100 O104 2.273 . S
Cd100 O108 2.277 . S
O101 C98 1.160 . S
O101 Cd102 2.203 . S
Cd102 O101 2.203 . S
Cd102 O104 2.411 . S
Cd102 O105 2.333 . S
Cd102 O106 2.352 . S
Cd102 O110 2.277 . S
Cd102 O111 2.356 . S
C103 O108 1.209 . S
C103 O110 1.226 . S
O104 Cd100 2.273 . S
O104 Cd102 2.411 . S
O104 C107 1.320 . S
O105 Cd102 2.333 . S
O105 C107 1.214 . S
O106 Cd102 2.352 . S
O106 C109 1.258 . S
C107 O104 1.320 . S
C107 O105 1.214 . S
O108 Cd100 2.277 . S
O108 C103 1.209 . S
C109 O106 1.258 . S
C109 O111 1.282 . S
O110 Cd102 2.277 . S
O110 C103 1.226 . S
O111 Cd102 2.356 . S
O111 C109 1.282 . S
H112 C120 0.929 . S
H113 C122 0.930 . S
H114 C124 0.930 . S
H115 C127 0.929 . S
H116 C130 0.930 . S
H117 C132 0.960 . S
H118 C132 0.960 . S
H119 C132 0.960 . S
C120 H112 0.929 . S
C120 C121 1.377 1_655 S
C120 C122 1.384 . S
C121 C120 1.377 1_455 S
C121 C127 1.390 . S
C122 H113 0.930 . S
C122 C120 1.384 . S
C122 C123 1.372 1_655 S
C123 C122 1.372 1_455 S
C123 C124 1.400 . S
C123 C128 1.490 . S
C124 H114 0.930 . S
C124 C123 1.400 . S
C124 C127 1.386 . S
H125 C141 0.930 . S
H126 C142 0.931 . S
C127 H115 0.929 . S
C127 C121 1.390 . S
C127 C124 1.386 . S
C128 C123 1.490 . S
C128 C130 1.395 . S
C128 C131 1.403 1_455 S
H129 C135 0.930 . S
C130 H116 0.930 . S
C130 C128 1.395 . S
C130 C133 1.403 . S
C131 C128 1.403 1_655 S
C131 C132 1.524 . S
C131 C135 1.400 . S
C132 H117 0.960 . S
C132 H118 0.960 . S
C132 H119 0.960 . S
C132 C131 1.524 . S
C133 C130 1.403 . S
C133 C134 1.392 . S
C133 C137 1.495 . S
C134 C133 1.392 . S
C134 C135 1.385 1_455 S
C134 C136 1.478 . S
C135 H129 0.930 . S
C135 C131 1.400 . S
C135 C134 1.385 1_655 S
C136 C134 1.478 . S
C136 C138 1.381 1_455 S
C136 C142 1.383 . S
C137 C133 1.495 . S
C137 H143 0.959 . S
C137 H144 0.961 . S
C137 H145 0.960 . S
C138 C136 1.381 1_655 S
C138 C139 1.394 . S
C138 H146 0.930 . S
C139 C138 1.394 . S
C139 C140 1.383 1_655 S
C139 H147 0.929 . S
C140 C139 1.383 1_455 S
C140 C141 1.377 . S
C141 H125 0.930 . S
C141 C140 1.377 . S
C141 C142 1.379 . S
C142 H126 0.931 . S
C142 C136 1.383 . S
C142 C141 1.379 . S
H143 C137 0.959 . S
H144 C137 0.961 . S
H145 C137 0.960 . S
H146 C138 0.930 . S
H147 C139 0.929 . S
H148 C156 0.929 . S
H149 C158 0.930 . S
H150 C160 0.930 . S
H151 C163 0.929 . S
H152 C166 0.930 . S
H153 C168 0.960 . S
H154 C168 0.960 . S
H155 C168 0.960 . S
C156 H148 0.929 . S
C156 C157 1.377 . S
C156 C158 1.384 . S
C157 C156 1.377 . S
C157 C163 1.390 1_455 S
C158 H149 0.930 . S
C158 C156 1.384 . S
C158 C159 1.372 . S
C159 C158 1.372 . S
C159 C160 1.400 1_455 S
C159 C164 1.490 . S
C160 H150 0.930 . S
C160 C159 1.400 1_655 S
C160 C163 1.386 . S
H161 C177 0.930 . S
H162 C178 0.931 . S
C163 H151 0.929 . S
C163 C157 1.390 1_655 S
C163 C160 1.386 . S
C164 C159 1.490 . S
C164 C166 1.395 . S
C164 C167 1.403 . S
H165 C171 0.930 . S
C166 H152 0.930 . S
C166 C164 1.395 . S
C166 C169 1.403 . S
C167 C164 1.403 . S
C167 C168 1.524 . S
C167 C171 1.400 . S
C168 H153 0.960 . S
C168 H154 0.960 . S
C168 H155 0.960 . S
C168 C167 1.524 . S
C169 C166 1.403 . S
C169 C170 1.392 . S
C169 C173 1.500 . S
C170 C169 1.392 . S
C170 C171 1.385 . S
C170 C172 1.478 . S
C171 H165 0.930 . S
C171 C167 1.400 . S
C171 C170 1.385 . S
C172 C170 1.478 . S
C172 C174 1.381 . S
C172 C178 1.383 1_455 S
C173 C169 1.500 . S
C173 H179 0.957 1_455 S
C173 H180 0.939 1_455 S
C173 H181 0.981 . S
C174 C172 1.381 . S
C174 C175 1.394 . S
C174 H182 0.930 . S
C175 C174 1.394 . S
C175 C176 1.383 . S
C175 H183 0.929 . S
C176 C175 1.383 . S
C176 C177 1.377 1_455 S
C177 H161 0.930 . S
C177 C176 1.377 1_655 S
C177 C178 1.379 . S
C178 H162 0.931 . S
C178 C172 1.383 1_655 S
C178 C177 1.379 . S
H179 C173 0.957 1_655 S
H180 C173 0.939 1_655 S
H181 C173 0.981 . S
H182 C174 0.930 . S
H183 C175 0.929 . S
H184 C192 0.929 . S
H185 C194 0.930 . S
H186 C196 0.930 . S
H187 C199 0.929 . S
H188 C202 0.930 . S
H189 C204 0.960 . S
H190 C204 0.960 . S
H191 C204 0.960 . S
C192 H184 0.929 . S
C192 C193 1.377 . S
C192 C194 1.384 . S
C193 C192 1.377 . S
C193 C199 1.390 . S
C194 H185 0.930 . S
C194 C192 1.384 . S
C194 C195 1.372 . S
C195 C194 1.372 . S
C195 C196 1.400 . S
C195 C200 1.490 . S
C196 H186 0.930 . S
C196 C195 1.400 . S
C196 C199 1.386 . S
H197 C213 0.930 . S
H198 C214 0.931 . S
C199 H187 0.929 . S
C199 C193 1.390 . S
C199 C196 1.386 . S
C200 C195 1.490 . S
C200 C202 1.395 . S
C200 C203 1.403 . S
H201 C207 0.930 . S
C202 H188 0.930 . S
C202 C200 1.395 . S
C202 C205 1.403 . S
C203 C200 1.403 . S
C203 C204 1.524 . S
C203 C207 1.400 . S
C204 H189 0.960 . S
C204 H190 0.960 . S
C204 H191 0.960 . S
C204 C203 1.524 . S
C205 C202 1.403 . S
C205 C206 1.392 . S
C205 C209 1.495 . S
C206 C205 1.392 . S
C206 C207 1.385 . S
C206 C208 1.478 . S
C207 H201 0.930 . S
C207 C203 1.400 . S
C207 C206 1.385 . S
C208 C206 1.478 . S
C208 C210 1.381 . S
C208 C214 1.383 . S
C209 C205 1.495 . S
C209 H215 0.959 . S
C209 H216 0.961 . S
C209 H217 0.960 . S
C210 C208 1.381 . S
C210 C211 1.394 . S
C210 H218 0.930 . S
C211 C210 1.394 . S
C211 C212 1.383 . S
C211 H219 0.929 . S
C212 C211 1.383 . S
C212 C213 1.377 . S
C213 H197 0.930 . S
C213 C212 1.377 . S
C213 C214 1.379 . S
C214 H198 0.931 . S
C214 C208 1.383 . S
C214 C213 1.379 . S
H215 C209 0.959 . S
H216 C209 0.961 . S
H217 C209 0.960 . S
H218 C210 0.930 . S
H219 C211 0.929 . S
H220 C228 0.929 . S
H221 C230 0.930 . S
H222 C232 0.930 . S
H223 C235 0.929 . S
H224 C238 0.930 . S
H225 C240 0.960 . S
H226 C240 0.960 . S
H227 C240 0.960 . S
C228 H220 0.929 . S
C228 C229 1.377 . S
C228 C230 1.384 . S
C229 C228 1.377 . S
C229 C235 1.390 . S
C230 H221 0.930 . S
C230 C228 1.384 . S
C230 C231 1.372 . S
C231 C230 1.372 . S
C231 C232 1.400 . S
C231 C236 1.490 . S
C232 H222 0.930 . S
C232 C231 1.400 . S
C232 C235 1.386 . S
H233 C249 0.930 . S
H234 C250 0.931 . S
C235 H223 0.929 . S
C235 C229 1.390 . S
C235 C232 1.386 . S
C236 C231 1.490 . S
C236 C238 1.395 . S
C236 C239 1.403 . S
H237 C243 0.930 . S
C238 H224 0.930 . S
C238 C236 1.395 . S
C238 C241 1.403 . S
C239 C236 1.403 . S
C239 C240 1.524 . S
C239 C243 1.400 . S
C240 H225 0.960 . S
C240 H226 0.960 . S
C240 H227 0.960 . S
C240 C239 1.524 . S
C241 C238 1.403 . S
C241 C242 1.392 . S
C241 C245 1.495 . S
C242 C241 1.392 . S
C242 C243 1.385 . S
C242 C244 1.478 . S
C243 H237 0.930 . S
C243 C239 1.400 . S
C243 C242 1.385 . S
C244 C242 1.478 . S
C244 C246 1.381 . S
C244 C250 1.383 . S
C245 C241 1.495 . S
C245 H251 0.959 . S
C245 H252 0.961 . S
C245 H253 0.960 . S
C246 C244 1.381 . S
C246 C247 1.394 . S
C246 H254 0.930 . S
C247 C246 1.394 . S
C247 C248 1.383 . S
C247 H255 0.929 . S
C248 C247 1.383 . S
C248 C249 1.377 . S
C249 H233 0.930 . S
C249 C248 1.377 . S
C249 C250 1.379 . S
C250 H234 0.931 . S
C250 C244 1.383 . S
C250 C249 1.379 . S
H251 C245 0.959 . S
H252 C245 0.961 . S
H253 C245 0.960 . S
H254 C246 0.930 . S
H255 C247 0.929 . S
H256 C264 0.929 . S
H257 C266 0.930 . S
H258 C268 0.930 . S
H259 C271 0.929 . S
H260 C274 0.930 . S
H261 C276 0.960 . S
H262 C276 0.960 . S
H263 C276 0.960 . S
C264 H256 0.929 . S
C264 C265 1.377 . S
C264 C266 1.384 . S
C265 C264 1.377 . S
C265 C271 1.390 . S
C266 H257 0.930 . S
C266 C264 1.384 . S
C266 C267 1.372 . S
C267 C266 1.372 . S
C267 C268 1.400 . S
C267 C272 1.490 . S
C268 H258 0.930 . S
C268 C267 1.400 . S
C268 C271 1.386 . S
H269 C285 0.930 . S
H270 C286 0.931 . S
C271 H259 0.929 . S
C271 C265 1.390 . S
C271 C268 1.386 . S
C272 C267 1.490 . S
C272 C274 1.395 . S
C272 C275 1.403 . S
H273 C279 0.930 . S
C274 H260 0.930 . S
C274 C272 1.395 . S
C274 C277 1.403 . S
C275 C272 1.403 . S
C275 C276 1.524 . S
C275 C279 1.400 . S
C276 H261 0.960 . S
C276 H262 0.960 . S
C276 H263 0.960 . S
C276 C275 1.524 . S
C277 C274 1.403 . S
C277 C278 1.392 . S
C277 C281 1.495 . S
C278 C277 1.392 . S
C278 C279 1.385 . S
C278 C280 1.478 . S
C279 H273 0.930 . S
C279 C275 1.400 . S
C279 C278 1.385 . S
C280 C278 1.478 . S
C280 C282 1.381 . S
C280 C286 1.383 . S
C281 C277 1.495 . S
C281 H287 0.959 . S
C281 H288 0.961 . S
C281 H289 0.960 . S
C282 C280 1.381 . S
C282 C283 1.394 . S
C282 H290 0.930 . S
C283 C282 1.394 . S
C283 C284 1.383 . S
C283 H291 0.929 . S
C284 C283 1.383 . S
C284 C285 1.377 . S
C285 H269 0.930 . S
C285 C284 1.377 . S
C285 C286 1.379 . S
C286 H270 0.931 . S
C286 C280 1.383 . S
C286 C285 1.379 . S
H287 C281 0.959 . S
H288 C281 0.961 . S
H289 C281 0.960 . S
H290 C282 0.930 . S
H291 C283 0.929 . S
H292 C300 0.929 . S
H293 C302 0.930 . S
H294 C304 0.930 . S
H295 C307 0.929 . S
H296 C310 0.930 . S
H297 C312 0.960 . S
H298 C312 0.960 . S
H299 C312 0.960 . S
C300 H292 0.929 . S
C300 C301 1.377 . S
C300 C302 1.384 . S
C301 C300 1.377 . S
C301 C307 1.390 . S
C302 H293 0.930 . S
C302 C300 1.384 . S
C302 C303 1.372 . S
C303 C302 1.372 . S
C303 C304 1.400 . S
C303 C308 1.490 . S
C304 H294 0.930 . S
C304 C303 1.400 . S
C304 C307 1.386 . S
H305 C321 0.930 . S
H306 C322 0.931 . S
C307 H295 0.929 . S
C307 C301 1.390 . S
C307 C304 1.386 . S
C308 C303 1.490 . S
C308 C310 1.395 . S
C308 C311 1.403 . S
H309 C315 0.930 . S
C310 H296 0.930 . S
C310 C308 1.395 . S
C310 C313 1.403 . S
C311 C308 1.403 . S
C311 C312 1.524 . S
C311 C315 1.400 . S
C312 H297 0.960 . S
C312 H298 0.960 . S
C312 H299 0.960 . S
C312 C311 1.524 . S
C313 C310 1.403 . S
C313 C314 1.392 . S
C313 C317 1.495 . S
C314 C313 1.392 . S
C314 C315 1.385 . S
C314 C316 1.478 . S
C315 H309 0.930 . S
C315 C311 1.400 . S
C315 C314 1.385 . S
C316 C314 1.478 . S
C316 C318 1.381 . S
C316 C322 1.383 . S
C317 C313 1.495 . S
C317 H323 0.959 . S
C317 H324 0.961 . S
C317 H325 0.960 . S
C318 C316 1.381 . S
C318 C319 1.394 . S
C318 H326 0.930 . S
C319 C318 1.394 . S
C319 C320 1.383 . S
C319 H327 0.929 . S
C320 C319 1.383 . S
C320 C321 1.377 . S
C321 H305 0.930 . S
C321 C320 1.377 . S
C321 C322 1.379 . S
C322 H306 0.931 . S
C322 C316 1.383 . S
C322 C321 1.379 . S
H323 C317 0.959 . S
H324 C317 0.961 . S
H325 C317 0.960 . S
H326 C318 0.930 . S
H327 C319 0.929 . S
H328 C336 0.929 . S
H329 C338 0.930 . S
H330 C340 0.930 . S
H331 C343 0.929 . S
H332 C346 0.930 . S
H333 C348 0.960 . S
H334 C348 0.960 . S
H335 C348 0.960 . S
C336 H328 0.929 . S
C336 C337 1.377 . S
C336 C338 1.384 . S
C337 C336 1.377 . S
C337 C343 1.390 . S
C338 H329 0.930 . S
C338 C336 1.384 . S
C338 C339 1.372 . S
C339 C338 1.372 . S
C339 C340 1.400 . S
C339 C344 1.490 . S
C340 H330 0.930 . S
C340 C339 1.400 . S
C340 C343 1.386 . S
H341 C357 0.930 . S
H342 C358 0.931 . S
C343 H331 0.929 . S
C343 C337 1.390 . S
C343 C340 1.386 . S
C344 C339 1.490 . S
C344 C346 1.395 . S
C344 C347 1.403 . S
H345 C351 0.930 . S
C346 H332 0.930 . S
C346 C344 1.395 . S
C346 C349 1.403 . S
C347 C344 1.403 . S
C347 C348 1.524 . S
C347 C351 1.400 . S
C348 H333 0.960 . S
C348 H334 0.960 . S
C348 H335 0.960 . S
C348 C347 1.524 . S
C349 C346 1.403 . S
C349 C350 1.392 . S
C349 C353 1.495 . S
C350 C349 1.392 . S
C350 C351 1.385 . S
C350 C352 1.478 . S
C351 H345 0.930 . S
C351 C347 1.400 . S
C351 C350 1.385 . S
C352 C350 1.478 . S
C352 C354 1.381 . S
C352 C358 1.383 . S
C353 C349 1.495 . S
C353 H359 0.959 . S
C353 H360 0.961 . S
C353 H361 0.960 . S
C354 C352 1.381 . S
C354 C355 1.394 . S
C354 H362 0.930 . S
C355 C354 1.394 . S
C355 C356 1.383 . S
C355 H363 0.929 . S
C356 C355 1.383 . S
C356 C357 1.377 . S
C357 H341 0.930 . S
C357 C356 1.377 . S
C357 C358 1.379 . S
C358 H342 0.931 . S
C358 C352 1.383 . S
C358 C357 1.379 . S
H359 C353 0.959 . S
H360 C353 0.961 . S
H361 C353 0.960 . S
H362 C354 0.930 . S
H363 C355 0.929 . S
H364 C372 0.929 . S
H365 C374 0.930 . S
H366 C376 0.930 . S
H367 C379 0.929 . S
H368 C382 0.930 . S
H369 C384 0.960 . S
H370 C384 0.960 . S
H371 C384 0.960 . S
C372 H364 0.929 . S
C372 C373 1.377 . S
C372 C374 1.384 . S
C373 C372 1.377 . S
C373 C379 1.390 . S
C374 H365 0.930 . S
C374 C372 1.384 . S
C374 C375 1.372 . S
C375 C374 1.372 . S
C375 C376 1.400 . S
C375 C380 1.490 . S
C376 H366 0.930 . S
C376 C375 1.400 . S
C376 C379 1.386 . S
H377 C393 0.930 . S
H378 C394 0.931 . S
C379 H367 0.929 . S
C379 C373 1.390 . S
C379 C376 1.386 . S
C380 C375 1.490 . S
C380 C382 1.395 . S
C380 C383 1.403 . S
H381 C387 0.930 . S
C382 H368 0.930 . S
C382 C380 1.395 . S
C382 C385 1.403 . S
C383 C380 1.403 . S
C383 C384 1.524 . S
C383 C387 1.400 . S
C384 H369 0.960 . S
C384 H370 0.960 . S
C384 H371 0.960 . S
C384 C383 1.524 . S
C385 C382 1.403 . S
C385 C386 1.392 . S
C385 C389 1.495 . S
C386 C385 1.392 . S
C386 C387 1.385 . S
C386 C388 1.478 . S
C387 H381 0.930 . S
C387 C383 1.400 . S
C387 C386 1.385 . S
C388 C386 1.478 . S
C388 C390 1.381 . S
C388 C394 1.383 . S
C389 C385 1.495 . S
C389 H395 0.959 . S
C389 H396 0.961 . S
C389 H397 0.960 . S
C390 C388 1.381 . S
C390 C391 1.394 . S
C390 H398 0.930 . S
C391 C390 1.394 . S
C391 C392 1.383 . S
C391 H399 0.929 . S
C392 C391 1.383 . S
C392 C393 1.377 . S
C393 H377 0.930 . S
C393 C392 1.377 . S
C393 C394 1.379 . S
C394 H378 0.931 . S
C394 C388 1.383 . S
C394 C393 1.379 . S
H395 C389 0.959 . S
H396 C389 0.961 . S
H397 C389 0.960 . S
H398 C390 0.930 . S
H399 C391 0.929 . S
H400 C408 0.929 . S
H401 C410 0.930 . S
H402 C412 0.930 . S
H403 C415 0.929 . S
H404 C418 0.930 . S
H405 C420 0.960 . S
H406 C420 0.960 . S
H407 C420 0.960 . S
C408 H400 0.929 . S
C408 C409 1.377 . S
C408 C410 1.384 . S
C409 C408 1.377 . S
C409 C415 1.390 . S
C410 H401 0.930 . S
C410 C408 1.384 . S
C410 C411 1.372 . S
C411 C410 1.372 . S
C411 C412 1.400 . S
C411 C416 1.490 . S
C412 H402 0.930 . S
C412 C411 1.400 . S
C412 C415 1.386 . S
H413 C429 0.930 . S
H414 C430 0.931 . S
C415 H403 0.929 . S
C415 C409 1.390 . S
C415 C412 1.386 . S
C416 C411 1.490 . S
C416 C418 1.395 . S
C416 C419 1.403 . S
H417 C423 0.930 . S
C418 H404 0.930 . S
C418 C416 1.395 . S
C418 C421 1.403 . S
C419 C416 1.403 . S
C419 C420 1.524 . S
C419 C423 1.400 . S
C420 H405 0.960 . S
C420 H406 0.960 . S
C420 H407 0.960 . S
C420 C419 1.524 . S
C421 C418 1.403 . S
C421 C422 1.392 . S
C421 C425 1.495 . S
C422 C421 1.392 . S
C422 C423 1.385 . S
C422 C424 1.478 . S
C423 H417 0.930 . S
C423 C419 1.400 . S
C423 C422 1.385 . S
C424 C422 1.478 . S
C424 C426 1.381 . S
C424 C430 1.383 . S
C425 C421 1.495 . S
C425 H431 0.959 . S
C425 H432 0.961 . S
C425 H433 0.960 . S
C426 C424 1.381 . S
C426 C427 1.394 . S
C426 H434 0.930 . S
C427 C426 1.394 . S
C427 C428 1.383 . S
C427 H435 0.929 . S
C428 C427 1.383 . S
C428 C429 1.377 . S
C429 H413 0.930 . S
C429 C428 1.377 . S
C429 C430 1.379 . S
C430 H414 0.931 . S
C430 C424 1.383 . S
C430 C429 1.379 . S
H431 C425 0.959 . S
H432 C425 0.961 . S
H433 C425 0.960 . S
H434 C426 0.930 . S
H435 C427 0.929 . S
H436 C444 0.929 . S
H437 C446 0.930 . S
H438 C448 0.930 . S
H439 C451 0.929 . S
H440 C454 0.930 . S
H441 C456 0.960 . S
H442 C456 0.960 . S
H443 C456 0.960 . S
C444 H436 0.929 . S
C444 C445 1.377 . S
C444 C446 1.384 . S
C445 C444 1.377 . S
C445 C451 1.390 . S
C446 H437 0.930 . S
C446 C444 1.384 . S
C446 C447 1.372 . S
C447 C446 1.372 . S
C447 C448 1.400 . S
C447 C452 1.490 . S
C448 H438 0.930 . S
C448 C447 1.400 . S
C448 C451 1.386 . S
H449 C465 0.930 . S
H450 C466 0.931 . S
C451 H439 0.929 . S
C451 C445 1.390 . S
C451 C448 1.386 . S
C452 C447 1.490 . S
C452 C454 1.395 . S
C452 C455 1.403 . S
H453 C459 0.930 . S
C454 H440 0.930 . S
C454 C452 1.395 . S
C454 C457 1.403 . S
C455 C452 1.403 . S
C455 C456 1.524 . S
C455 C459 1.400 . S
C456 H441 0.960 . S
C456 H442 0.960 . S
C456 H443 0.960 . S
C456 C455 1.524 . S
C457 C454 1.403 . S
C457 C458 1.392 . S
C457 C461 1.495 . S
C458 C457 1.392 . S
C458 C459 1.385 . S
C458 C460 1.478 . S
C459 H453 0.930 . S
C459 C455 1.400 . S
C459 C458 1.385 . S
C460 C458 1.478 . S
C460 C462 1.381 . S
C460 C466 1.383 . S
C461 C457 1.495 . S
C461 H467 0.959 . S
C461 H468 0.961 . S
C461 H469 0.960 . S
C462 C460 1.381 . S
C462 C463 1.394 . S
C462 H470 0.930 . S
C463 C462 1.394 . S
C463 C464 1.383 . S
C463 H471 0.929 . S
C464 C463 1.383 . S
C464 C465 1.377 . S
C465 H449 0.930 . S
C465 C464 1.377 . S
C465 C466 1.379 . S
C466 H450 0.931 . S
C466 C460 1.383 . S
C466 C465 1.379 . S
H467 C461 0.959 . S
H468 C461 0.961 . S
H469 C461 0.960 . S
H470 C462 0.930 . S
H471 C463 0.929 . S
H472 C480 0.929 . S
H473 C482 0.930 . S
H474 C484 0.930 . S
H475 C487 0.929 . S
H476 C490 0.930 . S
H477 C492 0.960 . S
H478 C492 0.960 . S
H479 C492 0.960 . S
C480 H472 0.929 . S
C480 C481 1.377 . S
C480 C482 1.384 . S
C481 C480 1.377 . S
C481 C487 1.390 . S
C482 H473 0.930 . S
C482 C480 1.384 . S
C482 C483 1.372 . S
C483 C482 1.372 . S
C483 C484 1.400 . S
C483 C488 1.490 . S
C484 H474 0.930 . S
C484 C483 1.400 . S
C484 C487 1.386 . S
H485 C501 0.930 . S
H486 C502 0.931 . S
C487 H475 0.929 . S
C487 C481 1.390 . S
C487 C484 1.386 . S
C488 C483 1.490 . S
C488 C490 1.395 . S
C488 C491 1.403 . S
H489 C495 0.930 . S
C490 H476 0.930 . S
C490 C488 1.395 . S
C490 C493 1.403 . S
C491 C488 1.403 . S
C491 C492 1.524 . S
C491 C495 1.400 . S
C492 H477 0.960 . S
C492 H478 0.960 . S
C492 H479 0.960 . S
C492 C491 1.524 . S
C493 C490 1.403 . S
C493 C494 1.392 . S
C493 C497 1.495 . S
C494 C493 1.392 . S
C494 C495 1.385 . S
C494 C496 1.478 . S
C495 H489 0.930 . S
C495 C491 1.400 . S
C495 C494 1.385 . S
C496 C494 1.478 . S
C496 C498 1.381 . S
C496 C502 1.383 . S
C497 C493 1.495 . S
C497 H503 0.959 . S
C497 H504 0.961 . S
C497 H505 0.960 . S
C498 C496 1.381 . S
C498 C499 1.394 . S
C498 H506 0.930 . S
C499 C498 1.394 . S
C499 C500 1.383 . S
C499 H507 0.929 . S
C500 C499 1.383 . S
C500 C501 1.377 . S
C501 H485 0.930 . S
C501 C500 1.377 . S
C501 C502 1.379 . S
C502 H486 0.931 . S
C502 C496 1.383 . S
C502 C501 1.379 . S
H503 C497 0.959 . S
H504 C497 0.961 . S
H505 C497 0.960 . S
H506 C498 0.930 . S
H507 C499 0.929 . S
H508 C516 0.929 . S
H509 C518 0.930 . S
H510 C520 0.930 . S
H511 C523 0.929 . S
H512 C526 0.930 . S
H513 C528 0.960 . S
H514 C528 0.960 . S
H515 C528 0.960 . S
C516 H508 0.929 . S
C516 C517 1.377 . S
C516 C518 1.384 . S
C517 C516 1.377 . S
C517 C523 1.390 . S
C518 H509 0.930 . S
C518 C516 1.384 . S
C518 C519 1.372 . S
C519 C518 1.372 . S
C519 C520 1.400 . S
C519 C524 1.490 . S
C520 H510 0.930 . S
C520 C519 1.400 . S
C520 C523 1.386 . S
H521 C537 0.930 . S
H522 C538 0.931 . S
C523 H511 0.929 . S
C523 C517 1.390 . S
C523 C520 1.386 . S
C524 C519 1.490 . S
C524 C526 1.395 . S
C524 C527 1.403 . S
H525 C531 0.930 . S
C526 H512 0.930 . S
C526 C524 1.395 . S
C526 C529 1.403 . S
C527 C524 1.403 . S
C527 C528 1.524 . S
C527 C531 1.400 . S
C528 H513 0.960 . S
C528 H514 0.960 . S
C528 H515 0.960 . S
C528 C527 1.524 . S
C529 C526 1.403 . S
C529 C530 1.392 . S
C529 C533 1.495 . S
C530 C529 1.392 . S
C530 C531 1.385 . S
C530 C532 1.478 . S
C531 H525 0.930 . S
C531 C527 1.400 . S
C531 C530 1.385 . S
C532 C530 1.478 . S
C532 C534 1.381 . S
C532 C538 1.383 . S
C533 C529 1.495 . S
C533 H539 0.959 . S
C533 H540 0.961 . S
C533 H541 0.960 . S
C534 C532 1.381 . S
C534 C535 1.394 . S
C534 H542 0.930 . S
C535 C534 1.394 . S
C535 C536 1.383 . S
C535 H543 0.929 . S
C536 C535 1.383 . S
C536 C537 1.377 . S
C537 H521 0.930 . S
C537 C536 1.377 . S
C537 C538 1.379 . S
C538 H522 0.931 . S
C538 C532 1.383 . S
C538 C537 1.379 . S
H539 C533 0.959 . S
H540 C533 0.961 . S
H541 C533 0.960 . S
H542 C534 0.930 . S
H543 C535 0.929 . S
H544 C552 0.929 . S
H545 C554 0.930 . S
H546 C556 0.930 . S
H547 C559 0.929 . S
H548 C562 0.934 . S
H549 C564 0.960 1_565 S
H550 C564 0.960 . S
H551 C564 0.960 . S
C552 H544 0.929 . S
C552 C553 1.377 . S
C552 C554 1.384 . S
C553 C552 1.377 . S
C553 C559 1.390 . S
C554 H545 0.930 . S
C554 C552 1.384 . S
C554 C555 1.372 . S
C555 C554 1.372 . S
C555 C556 1.400 . S
C555 C560 1.490 . S
C556 H546 0.930 . S
C556 C555 1.400 . S
C556 C559 1.386 . S
H557 C573 0.930 . S
H558 C574 0.931 . S
C559 H547 0.929 . S
C559 C553 1.390 . S
C559 C556 1.386 . S
C560 C555 1.490 . S
C560 C562 1.415 . S
C560 C563 1.403 1_455 S
H561 C567 0.930 . S
C562 H548 0.934 . S
C562 C560 1.415 . S
C562 C565 1.371 1_544 S
C563 C560 1.403 1_655 S
C563 C564 1.524 . S
C563 C567 1.400 1_544 S
C564 H549 0.960 1_545 S
C564 H550 0.960 . S
C564 H551 0.960 . S
C564 C563 1.524 . S
C565 C562 1.371 1_566 S
C565 C566 1.401 . S
C565 C569 1.496 . S
C566 C565 1.401 . S
C566 C567 1.385 1_455 S
C566 C568 1.478 . S
C567 H561 0.930 . S
C567 C563 1.400 1_566 S
C567 C566 1.385 1_655 S
C568 C566 1.478 . S
C568 C570 1.381 . S
C568 C574 1.383 . S
C569 C565 1.496 . S
C569 H575 0.959 1_565 S
C569 H576 0.961 . S
C569 H577 0.959 . S
C570 C568 1.381 . S
C570 C571 1.394 . S
C570 H578 0.930 . S
C571 C570 1.394 . S
C571 C572 1.383 . S
C571 H579 0.929 . S
C572 C571 1.383 . S
C572 C573 1.377 . S
C573 H557 0.930 . S
C573 C572 1.377 . S
C573 C574 1.379 . S
C574 H558 0.931 . S
C574 C568 1.383 . S
C574 C573 1.379 . S
H575 C569 0.959 1_545 S
H576 C569 0.961 . S
H577 C569 0.959 . S
H578 C570 0.930 . S
H579 C571 0.929 . S
H580 C588 0.929 . S
H581 C590 0.930 . S
H582 C592 0.930 . S
H583 C595 0.929 . S
H584 C598 0.930 . S
H585 C600 0.960 . S
H586 C600 0.960 . S
H587 C600 0.960 . S
C588 H580 0.929 . S
C588 C589 1.377 . S
C588 C590 1.384 . S
C589 C588 1.377 . S
C589 C595 1.390 1_455 S
C590 H581 0.930 . S
C590 C588 1.384 . S
C590 C591 1.372 . S
C591 C590 1.372 . S
C591 C592 1.400 1_455 S
C591 C596 1.490 . S
C592 H582 0.930 . S
C592 C591 1.400 1_655 S
C592 C595 1.386 . S
H593 C609 0.930 . S
H594 C610 0.931 . S
C595 H583 0.929 . S
C595 C589 1.390 1_655 S
C595 C592 1.386 . S
C596 C591 1.490 . S
C596 C598 1.395 1_556 S
C596 C599 1.403 1_455 S
H597 C603 0.930 1_556 S
C598 H584 0.930 . S
C598 C596 1.395 1_554 S
C598 C601 1.403 . S
C599 C596 1.403 1_655 S
C599 C600 1.524 . S
C599 C603 1.399 1_556 S
C600 H585 0.960 . S
C600 H586 0.960 . S
C600 H587 0.960 . S
C600 C599 1.524 . S
C601 C598 1.403 . S
C601 C602 1.392 . S
C601 C605 1.495 . S
C602 C601 1.392 . S
C602 C603 1.386 1_455 S
C602 C604 1.478 . S
C603 H597 0.930 1_554 S
C603 C599 1.399 1_554 S
C603 C602 1.386 1_655 S
C604 C602 1.478 . S
C604 C606 1.381 . S
C604 C610 1.383 1_455 S
C605 C601 1.495 . S
C605 H611 0.959 . S
C605 H612 0.961 . S
C605 H613 0.960 . S
C606 C604 1.381 . S
C606 C607 1.394 . S
C606 H614 0.930 . S
C607 C606 1.394 . S
C607 C608 1.383 . S
C607 H615 0.929 . S
C608 C607 1.383 . S
C608 C609 1.377 1_455 S
C609 H593 0.930 . S
C609 C608 1.377 1_655 S
C609 C610 1.379 . S
C610 H594 0.931 . S
C610 C604 1.383 1_655 S
C610 C609 1.379 . S
H611 C605 0.959 . S
H612 C605 0.961 . S
H613 C605 0.960 . S
H614 C606 0.930 . S
H615 C607 0.929 . S
H616 C624 0.929 . S
H617 C626 0.930 . S
H618 C628 0.930 . S
H619 C631 0.929 . S
H620 C634 0.930 . S
H621 C636 0.960 . S
H622 C636 0.960 . S
H623 C636 0.960 . S
C624 H616 0.929 . S
C624 C625 1.377 . S
C624 C626 1.384 . S
C625 C624 1.377 . S
C625 C631 1.390 . S
C626 H617 0.930 . S
C626 C624 1.384 . S
C626 C627 1.372 . S
C627 C626 1.372 . S
C627 C628 1.400 . S
C627 C632 1.490 . S
C628 H618 0.930 . S
C628 C627 1.400 . S
C628 C631 1.386 . S
H629 C645 0.930 . S
H630 C646 0.931 . S
C631 H619 0.929 . S
C631 C625 1.390 . S
C631 C628 1.386 . S
C632 C627 1.490 . S
C632 C634 1.395 . S
C632 C635 1.403 . S
H633 C639 0.930 . S
C634 H620 0.930 . S
C634 C632 1.395 . S
C634 C637 1.403 . S
C635 C632 1.403 . S
C635 C636 1.524 . S
C635 C639 1.400 . S
C636 H621 0.960 . S
C636 H622 0.960 . S
C636 H623 0.960 . S
C636 C635 1.524 . S
C637 C634 1.403 . S
C637 C638 1.392 . S
C637 C641 1.495 . S
C638 C637 1.392 . S
C638 C639 1.385 . S
C638 C640 1.478 . S
C639 H633 0.930 . S
C639 C635 1.400 . S
C639 C638 1.385 . S
C640 C638 1.478 . S
C640 C642 1.381 . S
C640 C646 1.383 . S
C641 C637 1.495 . S
C641 H647 0.959 . S
C641 H648 0.961 . S
C641 H649 0.960 . S
C642 C640 1.381 . S
C642 C643 1.394 . S
C642 H650 0.930 . S
C643 C642 1.394 . S
C643 C644 1.383 . S
C643 H651 0.929 . S
C644 C643 1.383 . S
C644 C645 1.377 . S
C645 H629 0.930 . S
C645 C644 1.377 . S
C645 C646 1.379 . S
C646 H630 0.931 . S
C646 C640 1.383 . S
C646 C645 1.379 . S
H647 C641 0.959 . S
H648 C641 0.961 . S
H649 C641 0.960 . S
H650 C642 0.930 . S
H651 C643 0.929 . S
H652 C660 0.929 . S
H653 C662 0.930 . S
H654 C664 0.930 . S
H655 C667 0.929 . S
H656 C670 0.930 . S
H657 C672 0.960 . S
H658 C672 0.960 1_565 S
H659 C672 0.960 . S
C660 H652 0.929 . S
C660 C661 1.377 . S
C660 C662 1.384 . S
C661 C660 1.377 . S
C661 C667 1.390 . S
C662 H653 0.930 . S
C662 C660 1.384 . S
C662 C663 1.372 . S
C663 C662 1.372 . S
C663 C664 1.400 . S
C663 C668 1.490 . S
C664 H654 0.930 . S
C664 C663 1.400 . S
C664 C667 1.386 . S
H665 C681 0.930 . S
H666 C682 0.931 . S
C667 H655 0.929 . S
C667 C661 1.390 . S
C667 C664 1.386 . S
C668 C663 1.490 . S
C668 C670 1.395 . S
C668 C671 1.399 . S
H669 C675 0.930 . S
C670 H656 0.930 . S
C670 C668 1.395 . S
C670 C673 1.403 . S
C671 C668 1.399 . S
C671 C672 1.524 1_565 S
C671 C675 1.404 1_565 S
C672 H657 0.960 . S
C672 H658 0.960 1_545 S
C672 H659 0.960 . S
C672 C671 1.524 1_545 S
C673 C670 1.403 . S
C673 C674 1.392 1_565 S
C673 C677 1.495 . S
C674 C673 1.392 1_545 S
C674 C675 1.385 . S
C674 C676 1.478 . S
C675 H669 0.930 . S
C675 C671 1.404 1_545 S
C675 C674 1.385 . S
C676 C674 1.478 . S
C676 C678 1.381 . S
C676 C682 1.383 . S
C677 C673 1.495 . S
C677 H683 0.959 . S
C677 H684 0.961 1_565 S
C677 H685 0.960 . S
C678 C676 1.381 . S
C678 C679 1.394 . S
C678 H686 0.930 . S
C679 C678 1.394 . S
C679 C680 1.383 . S
C679 H687 0.929 . S
C680 C679 1.383 . S
C680 C681 1.377 . S
C681 H665 0.930 . S
C681 C680 1.377 . S
C681 C682 1.379 . S
C682 H666 0.931 . S
C682 C676 1.383 . S
C682 C681 1.379 . S
H683 C677 0.959 . S
H684 C677 0.961 1_545 S
H685 C677 0.960 . S
H686 C678 0.930 . S
H687 C679 0.929 . S
C121 C19 1.424 . S
C140 C5 1.426 . S
C157 C33 1.423 . S
C176 C47 1.427 . S
C193 C61 1.422 . S
C212 C75 1.424 . S
C229 C89 1.424 . S
C248 C103 1.425 . S
C265 C98 1.397 . S
C284 C0 1.388 . S
C301 C84 1.394 . S
C320 C14 1.393 . S
C337 C28 1.393 . S
C356 C70 1.405 . S
C373 C56 1.396 . S
C392 C42 1.384 . S
C409 C79 1.388 . S
C428 C37 1.392 . S
C445 C65 1.385 . S
C464 C51 1.387 . S
C481 C107 1.387 . S
C500 C9 1.373 . S
C517 C23 1.386 . S
C536 C93 1.375 . S
C553 C11 1.348 . S
C572 C39 1.350 . S
C589 C53 1.350 . S
C608 C25 1.348 . S
C625 C95 1.349 . S
C644 C67 1.349 . S
C661 C81 1.348 . S
C680 C109 1.351 . S
