# Generated by pormake.
# Topology srs-f, (5)-cn, num edge types: 1
# Building blocks:
#     Node 0, Type 0, BuildingBlock: XOMCOT_clean_sbu_0, # of connection points: 5
#     Node 1, Type 0, BuildingBlock: XOMCOT_clean_sbu_0, # of connection points: 5
#     Node 2, Type 0, BuildingBlock: XOMCOT_clean_sbu_0, # of connection points: 5
#     Node 3, Type 0, BuildingBlock: XOMCOT_clean_sbu_0, # of connection points: 5
#     Node 4, Type 0, BuildingBlock: XOMCOT_clean_sbu_0, # of connection points: 5
#     Node 5, Type 0, BuildingBlock: XOMCOT_clean_sbu_0, # of connection points: 5
#     Node 6, Type 0, BuildingBlock: XOMCOT_clean_sbu_0, # of connection points: 5
#     Node 7, Type 0, BuildingBlock: XOMCOT_clean_sbu_0, # of connection points: 5
#     Node 8, Type 0, BuildingBlock: XOMCOT_clean_sbu_0, # of connection points: 5
#     Node 9, Type 0, BuildingBlock: XOMCOT_clean_sbu_0, # of connection points: 5
#     Node 10, Type 0, BuildingBlock: XOMCOT_clean_sbu_0, # of connection points: 5
#     Node 11, Type 0, BuildingBlock: XOMCOT_clean_sbu_0, # of connection points: 5
#     Node 12, Type 0, BuildingBlock: XOMCOT_clean_sbu_0, # of connection points: 5
#     Node 13, Type 0, BuildingBlock: XOMCOT_clean_sbu_0, # of connection points: 5
#     Node 14, Type 0, BuildingBlock: XOMCOT_clean_sbu_0, # of connection points: 5
#     Node 15, Type 0, BuildingBlock: XOMCOT_clean_sbu_0, # of connection points: 5
#     Node 16, Type 0, BuildingBlock: XOMCOT_clean_sbu_0, # of connection points: 5
#     Node 17, Type 0, BuildingBlock: XOMCOT_clean_sbu_0, # of connection points: 5
#     Node 18, Type 0, BuildingBlock: XOMCOT_clean_sbu_0, # of connection points: 5
#     Node 19, Type 0, BuildingBlock: XOMCOT_clean_sbu_0, # of connection points: 5
#     Node 20, Type 0, BuildingBlock: XOMCOT_clean_sbu_0, # of connection points: 5
#     Node 21, Type 0, BuildingBlock: XOMCOT_clean_sbu_0, # of connection points: 5
#     Node 22, Type 0, BuildingBlock: XOMCOT_clean_sbu_0, # of connection points: 5
#     Node 23, Type 0, BuildingBlock: XOMCOT_clean_sbu_0, # of connection points: 5
#     Node 24, Type 0, BuildingBlock: XOMCOT_clean_sbu_0, # of connection points: 5
#     Node 25, Type 0, BuildingBlock: XOMCOT_clean_sbu_0, # of connection points: 5
#     Node 26, Type 0, BuildingBlock: XOMCOT_clean_sbu_0, # of connection points: 5
#     Node 27, Type 0, BuildingBlock: XOMCOT_clean_sbu_0, # of connection points: 5
#     Node 28, Type 0, BuildingBlock: XOMCOT_clean_sbu_0, # of connection points: 5
#     Node 29, Type 0, BuildingBlock: XOMCOT_clean_sbu_0, # of connection points: 5
#     Node 30, Type 0, BuildingBlock: XOMCOT_clean_sbu_0, # of connection points: 5
#     Node 31, Type 0, BuildingBlock: XOMCOT_clean_sbu_0, # of connection points: 5
#     Node 32, Type 0, BuildingBlock: XOMCOT_clean_sbu_0, # of connection points: 5
#     Node 33, Type 0, BuildingBlock: XOMCOT_clean_sbu_0, # of connection points: 5
#     Node 34, Type 0, BuildingBlock: XOMCOT_clean_sbu_0, # of connection points: 5
#     Node 35, Type 0, BuildingBlock: XOMCOT_clean_sbu_0, # of connection points: 5
#     Node 36, Type 0, BuildingBlock: XOMCOT_clean_sbu_0, # of connection points: 5
#     Node 37, Type 0, BuildingBlock: XOMCOT_clean_sbu_0, # of connection points: 5
#     Node 38, Type 0, BuildingBlock: XOMCOT_clean_sbu_0, # of connection points: 5
#     Node 39, Type 0, BuildingBlock: XOMCOT_clean_sbu_0, # of connection points: 5
#     Node 40, Type 0, BuildingBlock: XOMCOT_clean_sbu_0, # of connection points: 5
#     Node 41, Type 0, BuildingBlock: XOMCOT_clean_sbu_0, # of connection points: 5
#     Node 42, Type 0, BuildingBlock: XOMCOT_clean_sbu_0, # of connection points: 5
#     Node 43, Type 0, BuildingBlock: XOMCOT_clean_sbu_0, # of connection points: 5
#     Node 44, Type 0, BuildingBlock: XOMCOT_clean_sbu_0, # of connection points: 5
#     Node 45, Type 0, BuildingBlock: XOMCOT_clean_sbu_0, # of connection points: 5
#     Node 46, Type 0, BuildingBlock: XOMCOT_clean_sbu_0, # of connection points: 5
#     Node 47, Type 0, BuildingBlock: XOMCOT_clean_sbu_0, # of connection points: 5
#     Edge 48, Type (0, 0), BuildingBlock: OJICUG_clean_linker_0, # of connection points: 2
#     Edge 49, Type (0, 0), BuildingBlock: OJICUG_clean_linker_0, # of connection points: 2
#     Edge 50, Type (0, 0), BuildingBlock: OJICUG_clean_linker_0, # of connection points: 2
#     Edge 51, Type (0, 0), BuildingBlock: OJICUG_clean_linker_0, # of connection points: 2
#     Edge 52, Type (0, 0), BuildingBlock: OJICUG_clean_linker_0, # of connection points: 2
#     Edge 53, Type (0, 0), BuildingBlock: OJICUG_clean_linker_0, # of connection points: 2
#     Edge 54, Type (0, 0), BuildingBlock: OJICUG_clean_linker_0, # of connection points: 2
#     Edge 55, Type (0, 0), BuildingBlock: OJICUG_clean_linker_0, # of connection points: 2
#     Edge 56, Type (0, 0), BuildingBlock: OJICUG_clean_linker_0, # of connection points: 2
#     Edge 57, Type (0, 0), BuildingBlock: OJICUG_clean_linker_0, # of connection points: 2
#     Edge 58, Type (0, 0), BuildingBlock: OJICUG_clean_linker_0, # of connection points: 2
#     Edge 59, Type (0, 0), BuildingBlock: OJICUG_clean_linker_0, # of connection points: 2
#     Edge 60, Type (0, 0), BuildingBlock: OJICUG_clean_linker_0, # of connection points: 2
#     Edge 61, Type (0, 0), BuildingBlock: OJICUG_clean_linker_0, # of connection points: 2
#     Edge 62, Type (0, 0), BuildingBlock: OJICUG_clean_linker_0, # of connection points: 2
#     Edge 63, Type (0, 0), BuildingBlock: OJICUG_clean_linker_0, # of connection points: 2
#     Edge 64, Type (0, 0), BuildingBlock: OJICUG_clean_linker_0, # of connection points: 2
#     Edge 65, Type (0, 0), BuildingBlock: OJICUG_clean_linker_0, # of connection points: 2
#     Edge 66, Type (0, 0), BuildingBlock: OJICUG_clean_linker_0, # of connection points: 2
#     Edge 67, Type (0, 0), BuildingBlock: OJICUG_clean_linker_0, # of connection points: 2
#     Edge 68, Type (0, 0), BuildingBlock: OJICUG_clean_linker_0, # of connection points: 2
#     Edge 69, Type (0, 0), BuildingBlock: OJICUG_clean_linker_0, # of connection points: 2
#     Edge 70, Type (0, 0), BuildingBlock: OJICUG_clean_linker_0, # of connection points: 2
#     Edge 71, Type (0, 0), BuildingBlock: OJICUG_clean_linker_0, # of connection points: 2
#     Edge 72, Type (0, 0), BuildingBlock: OJICUG_clean_linker_0, # of connection points: 2
#     Edge 73, Type (0, 0), BuildingBlock: OJICUG_clean_linker_0, # of connection points: 2
#     Edge 74, Type (0, 0), BuildingBlock: OJICUG_clean_linker_0, # of connection points: 2
#     Edge 75, Type (0, 0), BuildingBlock: OJICUG_clean_linker_0, # of connection points: 2
#     Edge 76, Type (0, 0), BuildingBlock: OJICUG_clean_linker_0, # of connection points: 2
#     Edge 77, Type (0, 0), BuildingBlock: OJICUG_clean_linker_0, # of connection points: 2
#     Edge 78, Type (0, 0), BuildingBlock: OJICUG_clean_linker_0, # of connection points: 2
#     Edge 79, Type (0, 0), BuildingBlock: OJICUG_clean_linker_0, # of connection points: 2
#     Edge 80, Type (0, 0), BuildingBlock: OJICUG_clean_linker_0, # of connection points: 2
#     Edge 81, Type (0, 0), BuildingBlock: OJICUG_clean_linker_0, # of connection points: 2
#     Edge 82, Type (0, 0), BuildingBlock: OJICUG_clean_linker_0, # of connection points: 2
#     Edge 83, Type (0, 0), BuildingBlock: OJICUG_clean_linker_0, # of connection points: 2
#     Edge 84, Type (0, 0), BuildingBlock: OJICUG_clean_linker_0, # of connection points: 2
#     Edge 85, Type (0, 0), BuildingBlock: OJICUG_clean_linker_0, # of connection points: 2
#     Edge 86, Type (0, 0), BuildingBlock: OJICUG_clean_linker_0, # of connection points: 2
#     Edge 87, Type (0, 0), BuildingBlock: OJICUG_clean_linker_0, # of connection points: 2
#     Edge 88, Type (0, 0), BuildingBlock: OJICUG_clean_linker_0, # of connection points: 2
#     Edge 89, Type (0, 0), BuildingBlock: OJICUG_clean_linker_0, # of connection points: 2
#     Edge 90, Type (0, 0), BuildingBlock: OJICUG_clean_linker_0, # of connection points: 2
#     Edge 91, Type (0, 0), BuildingBlock: OJICUG_clean_linker_0, # of connection points: 2
#     Edge 92, Type (0, 0), BuildingBlock: OJICUG_clean_linker_0, # of connection points: 2
#     Edge 93, Type (0, 0), BuildingBlock: OJICUG_clean_linker_0, # of connection points: 2
#     Edge 94, Type (0, 0), BuildingBlock: OJICUG_clean_linker_0, # of connection points: 2
#     Edge 95, Type (0, 0), BuildingBlock: OJICUG_clean_linker_0, # of connection points: 2
#     Edge 96, Type (0, 0), BuildingBlock: OJICUG_clean_linker_0, # of connection points: 2
#     Edge 97, Type (0, 0), BuildingBlock: OJICUG_clean_linker_0, # of connection points: 2
#     Edge 98, Type (0, 0), BuildingBlock: OJICUG_clean_linker_0, # of connection points: 2
#     Edge 99, Type (0, 0), BuildingBlock: OJICUG_clean_linker_0, # of connection points: 2
#     Edge 100, Type (0, 0), BuildingBlock: OJICUG_clean_linker_0, # of connection points: 2
#     Edge 101, Type (0, 0), BuildingBlock: OJICUG_clean_linker_0, # of connection points: 2
#     Edge 102, Type (0, 0), BuildingBlock: OJICUG_clean_linker_0, # of connection points: 2
#     Edge 103, Type (0, 0), BuildingBlock: OJICUG_clean_linker_0, # of connection points: 2
#     Edge 104, Type (0, 0), BuildingBlock: OJICUG_clean_linker_0, # of connection points: 2
#     Edge 105, Type (0, 0), BuildingBlock: OJICUG_clean_linker_0, # of connection points: 2
#     Edge 106, Type (0, 0), BuildingBlock: OJICUG_clean_linker_0, # of connection points: 2
#     Edge 107, Type (0, 0), BuildingBlock: OJICUG_clean_linker_0, # of connection points: 2
#     Edge 108, Type (0, 0), BuildingBlock: OJICUG_clean_linker_0, # of connection points: 2
#     Edge 109, Type (0, 0), BuildingBlock: OJICUG_clean_linker_0, # of connection points: 2
#     Edge 110, Type (0, 0), BuildingBlock: OJICUG_clean_linker_0, # of connection points: 2
#     Edge 111, Type (0, 0), BuildingBlock: OJICUG_clean_linker_0, # of connection points: 2
#     Edge 112, Type (0, 0), BuildingBlock: OJICUG_clean_linker_0, # of connection points: 2
#     Edge 113, Type (0, 0), BuildingBlock: OJICUG_clean_linker_0, # of connection points: 2
#     Edge 114, Type (0, 0), BuildingBlock: OJICUG_clean_linker_0, # of connection points: 2
#     Edge 115, Type (0, 0), BuildingBlock: OJICUG_clean_linker_0, # of connection points: 2
#     Edge 116, Type (0, 0), BuildingBlock: OJICUG_clean_linker_0, # of connection points: 2
#     Edge 117, Type (0, 0), BuildingBlock: OJICUG_clean_linker_0, # of connection points: 2
#     Edge 118, Type (0, 0), BuildingBlock: OJICUG_clean_linker_0, # of connection points: 2
#     Edge 119, Type (0, 0), BuildingBlock: OJICUG_clean_linker_0, # of connection points: 2
#     Edge 120, Type (0, 0), BuildingBlock: OJICUG_clean_linker_0, # of connection points: 2
#     Edge 121, Type (0, 0), BuildingBlock: OJICUG_clean_linker_0, # of connection points: 2
#     Edge 122, Type (0, 0), BuildingBlock: OJICUG_clean_linker_0, # of connection points: 2
#     Edge 123, Type (0, 0), BuildingBlock: OJICUG_clean_linker_0, # of connection points: 2
#     Edge 124, Type (0, 0), BuildingBlock: OJICUG_clean_linker_0, # of connection points: 2
#     Edge 125, Type (0, 0), BuildingBlock: OJICUG_clean_linker_0, # of connection points: 2
#     Edge 126, Type (0, 0), BuildingBlock: OJICUG_clean_linker_0, # of connection points: 2
#     Edge 127, Type (0, 0), BuildingBlock: OJICUG_clean_linker_0, # of connection points: 2
#     Edge 128, Type (0, 0), BuildingBlock: OJICUG_clean_linker_0, # of connection points: 2
#     Edge 129, Type (0, 0), BuildingBlock: OJICUG_clean_linker_0, # of connection points: 2
#     Edge 130, Type (0, 0), BuildingBlock: OJICUG_clean_linker_0, # of connection points: 2
#     Edge 131, Type (0, 0), BuildingBlock: OJICUG_clean_linker_0, # of connection points: 2
#     Edge 132, Type (0, 0), BuildingBlock: OJICUG_clean_linker_0, # of connection points: 2
#     Edge 133, Type (0, 0), BuildingBlock: OJICUG_clean_linker_0, # of connection points: 2
#     Edge 134, Type (0, 0), BuildingBlock: OJICUG_clean_linker_0, # of connection points: 2
#     Edge 135, Type (0, 0), BuildingBlock: OJICUG_clean_linker_0, # of connection points: 2
#     Edge 136, Type (0, 0), BuildingBlock: OJICUG_clean_linker_0, # of connection points: 2
#     Edge 137, Type (0, 0), BuildingBlock: OJICUG_clean_linker_0, # of connection points: 2
#     Edge 138, Type (0, 0), BuildingBlock: OJICUG_clean_linker_0, # of connection points: 2
#     Edge 139, Type (0, 0), BuildingBlock: OJICUG_clean_linker_0, # of connection points: 2
#     Edge 140, Type (0, 0), BuildingBlock: OJICUG_clean_linker_0, # of connection points: 2
#     Edge 141, Type (0, 0), BuildingBlock: OJICUG_clean_linker_0, # of connection points: 2
#     Edge 142, Type (0, 0), BuildingBlock: OJICUG_clean_linker_0, # of connection points: 2
#     Edge 143, Type (0, 0), BuildingBlock: OJICUG_clean_linker_0, # of connection points: 2
#     Edge 144, Type (0, 0), BuildingBlock: OJICUG_clean_linker_0, # of connection points: 2
#     Edge 145, Type (0, 0), BuildingBlock: OJICUG_clean_linker_0, # of connection points: 2
#     Edge 146, Type (0, 0), BuildingBlock: OJICUG_clean_linker_0, # of connection points: 2
#     Edge 147, Type (0, 0), BuildingBlock: OJICUG_clean_linker_0, # of connection points: 2
#     Edge 148, Type (0, 0), BuildingBlock: OJICUG_clean_linker_0, # of connection points: 2
#     Edge 149, Type (0, 0), BuildingBlock: OJICUG_clean_linker_0, # of connection points: 2
#     Edge 150, Type (0, 0), BuildingBlock: OJICUG_clean_linker_0, # of connection points: 2
#     Edge 151, Type (0, 0), BuildingBlock: OJICUG_clean_linker_0, # of connection points: 2
#     Edge 152, Type (0, 0), BuildingBlock: OJICUG_clean_linker_0, # of connection points: 2
#     Edge 153, Type (0, 0), BuildingBlock: OJICUG_clean_linker_0, # of connection points: 2
#     Edge 154, Type (0, 0), BuildingBlock: OJICUG_clean_linker_0, # of connection points: 2
#     Edge 155, Type (0, 0), BuildingBlock: OJICUG_clean_linker_0, # of connection points: 2
#     Edge 156, Type (0, 0), BuildingBlock: OJICUG_clean_linker_0, # of connection points: 2
#     Edge 157, Type (0, 0), BuildingBlock: OJICUG_clean_linker_0, # of connection points: 2
#     Edge 158, Type (0, 0), BuildingBlock: OJICUG_clean_linker_0, # of connection points: 2
#     Edge 159, Type (0, 0), BuildingBlock: OJICUG_clean_linker_0, # of connection points: 2
#     Edge 160, Type (0, 0), BuildingBlock: OJICUG_clean_linker_0, # of connection points: 2
#     Edge 161, Type (0, 0), BuildingBlock: OJICUG_clean_linker_0, # of connection points: 2
#     Edge 162, Type (0, 0), BuildingBlock: OJICUG_clean_linker_0, # of connection points: 2
#     Edge 163, Type (0, 0), BuildingBlock: OJICUG_clean_linker_0, # of connection points: 2
#     Edge 164, Type (0, 0), BuildingBlock: OJICUG_clean_linker_0, # of connection points: 2
#     Edge 165, Type (0, 0), BuildingBlock: OJICUG_clean_linker_0, # of connection points: 2
#     Edge 166, Type (0, 0), BuildingBlock: OJICUG_clean_linker_0, # of connection points: 2
#     Edge 167, Type (0, 0), BuildingBlock: OJICUG_clean_linker_0, # of connection points: 2
# Relax obj value: 0.905
# Max RMSD: 0.263
# Mean RMSD: 0.263
data_MOF--net-srs-f--node1-XOMCOT_clean_sbu_0--edge1-OJICUG_clean_linker_0
_symmetry_space_group_name_H-M    P1
_symmetry_Int_Tables_number       1
_symmetry_cell_setting            triclinic
loop_
_symmetry_equiv_pos_as_xyz
'x, y, z'
_cell_length_a     68.485569
_cell_length_b     68.48695
_cell_length_c     68.488104
_cell_angle_alpha  89.985819
_cell_angle_beta   89.974977
_cell_angle_gamma 89.942882
loop_
_atom_site_label
_atom_site_type_symbol
_atom_site_fract_x
_atom_site_fract_y
_atom_site_fract_z
_atom_type_partial_charge
Co0 Co 0.08201 0.46336 0.22574 0.0
C1 C 0.08438 0.42098 0.21537 0.0
C2 C 0.09838 0.42726 0.24249 0.0
C3 C 0.09833 0.40746 0.24 0.0
N4 N 0.08979 0.43597 0.22698 0.0
N5 N 0.08918 0.40345 0.22313 0.0
H6 H 0.07523 0.42257 0.20262 0.0
H7 H 0.1025 0.43432 0.25591 0.0
C8 C 0.07642 0.47512 0.26794 0.0
O9 O 0.08292 0.49278 0.2643 0.0
N10 N 0.07362 0.49049 0.22518 0.0
C11 C 0.08332 0.50668 0.21965 0.0
C12 C 0.07073 0.52238 0.22059 0.0
C13 C 0.05533 0.49663 0.22942 0.0
N14 N 0.05308 0.51604 0.22669 0.0
C15 C 0.11874 0.47425 0.21064 0.0
C16 C 0.14011 0.45895 0.2411 0.0
C17 C 0.14811 0.45866 0.22219 0.0
C18 C 0.13789 0.46829 0.20737 0.0
C19 C 0.12083 0.46562 0.24382 0.0
N20 N 0.10965 0.47059 0.22805 0.0
H21 H 0.11061 0.47963 0.19828 0.0
H22 H 0.11433 0.46424 0.2581 0.0
H23 H 0.09836 0.50729 0.21504 0.0
H24 H 0.04391 0.48698 0.23447 0.0
O25 O 0.08083 0.46261 0.19756 0.0
O26 O 0.05587 0.45602 0.21681 0.0
O27 O 0.0768 0.46202 0.2547 0.0
C28 C 0.06248 0.45835 0.19911 0.0
H29 H 0.10277 0.39678 0.25079 0.0
H30 H 0.07426 0.53723 0.21652 0.0
H31 H 0.14776 0.45227 0.25322 0.0
H32 H 0.14388 0.46933 0.19276 0.0
Co33 Co 0.96909 0.83256 0.47562 0.0
C34 C 0.00929 0.83641 0.45911 0.0
C35 C 0.00796 0.84498 0.48907 0.0
C36 C 0.02707 0.84514 0.48329 0.0
N37 N 0.99665 0.83943 0.47397 0.0
N38 N 0.02813 0.83923 0.46451 0.0
H39 H 0.00495 0.83077 0.44509 0.0
H40 H 0.00313 0.84705 0.50391 0.0
C41 C 0.96117 0.82589 0.51843 0.0
O42 O 0.94384 0.83393 0.51668 0.0
N43 N 0.94174 0.82518 0.4776 0.0
C44 C 0.9255 0.83626 0.47666 0.0
C45 C 0.90942 0.82427 0.47821 0.0
C46 C 0.93524 0.80668 0.47984 0.0
N47 N 0.91554 0.80559 0.48009 0.0
C48 C 0.95771 0.8702 0.46363 0.0
C49 C 0.97835 0.88937 0.49238 0.0
C50 C 0.97618 0.89824 0.47404 0.0
C51 C 0.96425 0.88915 0.46024 0.0
C52 C 0.97134 0.8703 0.49522 0.0
N53 N 0.96331 0.86021 0.47998 0.0
H54 H 0.95032 0.86278 0.45186 0.0
H55 H 0.97481 0.86297 0.50871 0.0
H56 H 0.92509 0.85193 0.4751 0.0
H57 H 0.94484 0.79421 0.48092 0.0
O58 O 0.96681 0.83249 0.44745 0.0
O59 O 0.97481 0.80674 0.46516 0.0
O60 O 0.97306 0.82593 0.50408 0.0
C61 C 0.97101 0.81402 0.44801 0.0
H62 H 0.03926 0.84718 0.49309 0.0
H63 H 0.89439 0.82911 0.47795 0.0
H64 H 0.98725 0.89612 0.50357 0.0
H65 H 0.96187 0.89574 0.44605 0.0
Co66 Co 0.59963 0.71792 0.72641 0.0
C67 C 0.60408 0.76002 0.73247 0.0
C68 C 0.57836 0.75385 0.71575 0.0
C69 C 0.58033 0.77376 0.71721 0.0
N70 N 0.59322 0.74529 0.72541 0.0
N71 N 0.59661 0.77762 0.7276 0.0
H72 H 0.618 0.75783 0.73962 0.0
H73 H 0.56747 0.7463 0.70725 0.0
C74 C 0.60831 0.70853 0.76855 0.0
O75 O 0.60019 0.6913 0.76642 0.0
N76 N 0.60662 0.69046 0.7272 0.0
C77 C 0.5962 0.67455 0.72222 0.0
C78 C 0.60839 0.6585 0.72253 0.0
C79 C 0.62488 0.68383 0.73052 0.0
N80 N 0.62651 0.66437 0.72766 0.0
C81 C 0.56069 0.70805 0.71651 0.0
C82 C 0.54444 0.7274 0.7478 0.0
C83 C 0.53371 0.72636 0.73028 0.0
C84 C 0.54151 0.71492 0.71517 0.0
C85 C 0.56378 0.72079 0.74833 0.0
N86 N 0.57219 0.71275 0.73214 0.0
H87 H 0.56706 0.7016 0.70362 0.0
H88 H 0.57248 0.72465 0.76086 0.0
H89 H 0.58103 0.67442 0.71804 0.0
H90 H 0.63678 0.69332 0.73465 0.0
O91 O 0.59863 0.71679 0.6981 0.0
O92 O 0.62502 0.72355 0.71542 0.0
O93 O 0.60748 0.72109 0.75475 0.0
C94 C 0.61712 0.72109 0.69835 0.0
H95 H 0.57115 0.78451 0.71013 0.0
H96 H 0.60427 0.64382 0.71846 0.0
H97 H 0.53875 0.73503 0.76042 0.0
H98 H 0.53398 0.71323 0.70139 0.0
Co99 Co 0.71383 0.35159 0.97441 0.0
C100 C 0.67361 0.34703 0.9584 0.0
C101 C 0.67525 0.33873 0.98843 0.0
C102 C 0.65605 0.33867 0.98288 0.0
N103 N 0.68639 0.34417 0.97315 0.0
N104 N 0.65484 0.34441 0.96406 0.0
H105 H 0.67778 0.35241 0.94422 0.0
H106 H 0.68029 0.33669 0.00321 0.0
C107 C 0.72259 0.35752 0.01708 0.0
O108 O 0.73994 0.34971 0.01464 0.0
N109 N 0.74101 0.35961 0.9759 0.0
C110 C 0.75743 0.34957 0.97176 0.0
C111 C 0.77311 0.36214 0.97284 0.0
C112 C 0.747 0.37806 0.97953 0.0
N113 N 0.76653 0.38012 0.97763 0.0
C114 C 0.72534 0.3141 0.96175 0.0
C115 C 0.70653 0.29439 0.99139 0.0
C116 C 0.70842 0.28536 0.97307 0.0
C117 C 0.71948 0.29485 0.95877 0.0
C118 C 0.71283 0.31375 0.99381 0.0
N119 N 0.72017 0.32399 0.97831 0.0
H120 H 0.73192 0.32166 0.9496 0.0
H121 H 0.70937 0.32103 0.00732 0.0
H122 H 0.75819 0.33436 0.9678 0.0
H123 H 0.73712 0.3898 0.98327 0.0
O124 O 0.71564 0.35209 0.94627 0.0
O125 O 0.70732 0.37741 0.96446 0.0
O126 O 0.71033 0.35772 0.00304 0.0
C127 C 0.71092 0.37041 0.94715 0.0
H128 H 0.64391 0.3369 0.99282 0.0
H129 H 0.7881 0.35839 0.96956 0.0
H130 H 0.69838 0.28743 0.00302 0.0
H131 H 0.72186 0.28817 0.94463 0.0
Co132 Co 0.07935 0.72266 0.45449 0.0
C133 C 0.07506 0.76459 0.44852 0.0
C134 C 0.10043 0.75861 0.46584 0.0
C135 C 0.09891 0.7785 0.46332 0.0
N136 N 0.08547 0.75 0.45644 0.0
N137 N 0.08286 0.78227 0.45246 0.0
H138 H 0.06137 0.76222 0.44102 0.0
H139 H 0.11136 0.75109 0.47436 0.0
C140 C 0.0718 0.71528 0.41185 0.0
O141 O 0.08082 0.69841 0.41323 0.0
N142 N 0.07253 0.69519 0.45241 0.0
C143 C 0.08392 0.67914 0.45292 0.0
C144 C 0.07215 0.66286 0.45154 0.0
C145 C 0.0541 0.6884 0.4506 0.0
N146 N 0.05334 0.66869 0.45019 0.0
C147 C 0.11821 0.71191 0.46359 0.0
C148 C 0.13456 0.7339 0.43412 0.0
C149 C 0.1453 0.73113 0.45143 0.0
C150 C 0.13742 0.71852 0.46554 0.0
C151 C 0.11521 0.72743 0.43298 0.0
N152 N 0.10678 0.71797 0.44839 0.0
H153 H 0.11178 0.7042 0.47575 0.0
H154 H 0.1065 0.73254 0.42092 0.0
H155 H 0.09962 0.67899 0.45408 0.0
H156 H 0.04145 0.6978 0.44999 0.0
O157 O 0.08068 0.72023 0.4827 0.0
O158 O 0.05405 0.72771 0.46606 0.0
O159 O 0.0714 0.72693 0.4264 0.0
C160 C 0.06216 0.72435 0.48289 0.0
H161 H 0.10848 0.78929 0.46972 0.0
H162 H 0.07723 0.64791 0.45153 0.0
H163 H 0.14028 0.74269 0.4223 0.0
H164 H 0.145 0.71556 0.47908 0.0
Co165 Co 0.71248 0.83321 0.70974 0.0
C166 C 0.67108 0.83037 0.72284 0.0
C167 C 0.67408 0.84991 0.69873 0.0
C168 C 0.65461 0.84828 0.70314 0.0
N169 N 0.68458 0.83882 0.71121 0.0
N170 N 0.65266 0.83572 0.71816 0.0
H171 H 0.67437 0.81912 0.73335 0.0
H172 H 0.67966 0.85737 0.68609 0.0
C173 C 0.72137 0.82634 0.66698 0.0
O174 O 0.73893 0.8337 0.66921 0.0
N175 N 0.7401 0.8272 0.70829 0.0
C176 C 0.75538 0.83751 0.71509 0.0
C177 C 0.7718 0.82581 0.71452 0.0
C178 C 0.74741 0.80945 0.70379 0.0
N179 N 0.76673 0.80807 0.70753 0.0
C180 C 0.71923 0.8717 0.72327 0.0
C181 C 0.70808 0.89089 0.68978 0.0
C182 C 0.70624 0.90069 0.70781 0.0
C183 C 0.71352 0.89118 0.7244 0.0
C184 C 0.71381 0.87116 0.68935 0.0
N185 N 0.71727 0.8613 0.70636 0.0
H186 H 0.72335 0.86466 0.7367 0.0
H187 H 0.7129 0.86351 0.67565 0.0
H188 H 0.75459 0.85208 0.72106 0.0
H189 H 0.73845 0.79763 0.69842 0.0
O190 O 0.71424 0.83224 0.73792 0.0
O191 O 0.70804 0.80673 0.71931 0.0
O192 O 0.70894 0.82726 0.68092 0.0
C193 C 0.7111 0.81364 0.73675 0.0
H194 H 0.6428 0.8547 0.69485 0.0
H195 H 0.78609 0.8298 0.71994 0.0
H196 H 0.70365 0.89781 0.67629 0.0
H197 H 0.71306 0.89785 0.7387 0.0
Co198 Co 0.60118 0.46026 0.95961 0.0
C199 C 0.60639 0.41887 0.9509 0.0
C200 C 0.58052 0.42324 0.96796 0.0
C201 C 0.5826 0.40356 0.96441 0.0
N202 N 0.59544 0.43274 0.95938 0.0
N203 N 0.59898 0.40079 0.95374 0.0
H204 H 0.62019 0.42199 0.94388 0.0
H205 H 0.56929 0.42995 0.97676 0.0
C206 C 0.60852 0.47172 0.9178 0.0
O207 O 0.59979 0.4885 0.92093 0.0
N208 N 0.60759 0.48785 0.95981 0.0
C209 C 0.59628 0.50363 0.96306 0.0
C210 C 0.60793 0.52006 0.96265 0.0
C211 C 0.62583 0.49493 0.95743 0.0
N212 N 0.62657 0.51454 0.95918 0.0
C213 C 0.56219 0.46934 0.97028 0.0
C214 C 0.54559 0.45146 0.93832 0.0
C215 C 0.53478 0.45226 0.95581 0.0
C216 C 0.54286 0.46282 0.97139 0.0
C217 C 0.56506 0.45764 0.93802 0.0
N218 N 0.57357 0.46511 0.95443 0.0
H219 H 0.56866 0.47545 0.98328 0.0
H220 H 0.57371 0.45399 0.92539 0.0
H221 H 0.58074 0.50347 0.96558 0.0
H222 H 0.6384 0.48573 0.95486 0.0
O223 O 0.60048 0.46032 0.98798 0.0
O224 O 0.62681 0.45469 0.97018 0.0
O225 O 0.60868 0.45856 0.93105 0.0
C226 C 0.6191 0.45667 0.98741 0.0
H227 H 0.57322 0.3922 0.97008 0.0
H228 H 0.60294 0.53489 0.96478 0.0
H229 H 0.53976 0.44443 0.92543 0.0
H230 H 0.53529 0.46424 0.98519 0.0
Co231 Co 0.97402 0.35219 0.2068 0.0
C232 C 0.01681 0.35096 0.21486 0.0
C233 C 0.00943 0.33636 0.18831 0.0
C234 C 0.02937 0.33725 0.18956 0.0
N235 N 0.00139 0.34497 0.20417 0.0
N236 N 0.03398 0.34661 0.20616 0.0
H237 H 0.01569 0.36018 0.22761 0.0
H238 H 0.00162 0.3316 0.17552 0.0
C239 C 0.96043 0.35881 0.16522 0.0
O240 O 0.94279 0.35254 0.16936 0.0
N241 N 0.94681 0.35985 0.20881 0.0
C242 C 0.93141 0.34978 0.21574 0.0
C243 C 0.91529 0.36187 0.21569 0.0
C244 C 0.93986 0.37788 0.20477 0.0
N245 N 0.92063 0.37957 0.20881 0.0
C246 C 0.96566 0.3146 0.22163 0.0
C247 C 0.97496 0.29415 0.18833 0.0
C248 C 0.97717 0.28481 0.20655 0.0
C249 C 0.97077 0.29498 0.22312 0.0
C250 C 0.9698 0.31402 0.18754 0.0
N251 N 0.96732 0.32445 0.20436 0.0
H252 H 0.9623 0.3222 0.23498 0.0
H253 H 0.97003 0.32124 0.17356 0.0
H254 H 0.93174 0.33489 0.22086 0.0
H255 H 0.9488 0.38951 0.19892 0.0
O256 O 0.97608 0.35316 0.23494 0.0
O257 O 0.98112 0.37842 0.21561 0.0
O258 O 0.97402 0.35784 0.17792 0.0
C259 C 0.9798 0.37163 0.23333 0.0
H260 H 0.0396 0.33315 0.17822 0.0
H261 H 0.90089 0.35802 0.22092 0.0
H262 H 0.97862 0.2867 0.17488 0.0
H263 H 0.97157 0.28869 0.23758 0.0
Co264 Co 0.22438 0.082 0.46139 0.0
C265 C 0.23196 0.07434 0.42001 0.0
C266 C 0.22221 0.1038 0.42377 0.0
C267 C 0.22497 0.10047 0.40412 0.0
N268 N 0.2269 0.08743 0.43374 0.0
N269 N 0.23124 0.08196 0.40185 0.0
H270 H 0.23549 0.05928 0.42326 0.0
H271 H 0.21644 0.11703 0.43002 0.0
C272 C 0.26789 0.07588 0.4526 0.0
O273 O 0.26722 0.0866 0.43672 0.0
N274 N 0.22183 0.07583 0.48883 0.0
C275 C 0.21259 0.08541 0.50334 0.0
C276 C 0.21214 0.07353 0.5196 0.0
C277 C 0.22689 0.05841 0.49648 0.0
N278 N 0.221 0.05646 0.51519 0.0
C279 C 0.21107 0.12034 0.46945 0.0
C280 C 0.24456 0.1394 0.45807 0.0
C281 C 0.22662 0.14946 0.4569 0.0
C282 C 0.21007 0.14001 0.46438 0.0
C283 C 0.24488 0.11953 0.46318 0.0
N284 N 0.22789 0.10983 0.46701 0.0
H285 H 0.19754 0.11318 0.47301 0.0
H286 H 0.25853 0.11184 0.46236 0.0
H287 H 0.20583 0.09957 0.50224 0.0
H288 H 0.23415 0.04711 0.48816 0.0
O289 O 0.19626 0.08204 0.4585 0.0
O290 O 0.21483 0.05589 0.45535 0.0
O291 O 0.25311 0.0749 0.46403 0.0
C292 C 0.19738 0.06341 0.45535 0.0
H293 H 0.22195 0.11067 0.39242 0.0
H294 H 0.20489 0.07685 0.53324 0.0
H295 H 0.25807 0.14628 0.45364 0.0
H296 H 0.19582 0.1468 0.46423 0.0
Co297 Co 0.35146 0.97529 0.71045 0.0
C298 C 0.35042 0.96817 0.66751 0.0
C299 C 0.33736 0.99548 0.67519 0.0
C300 C 0.33825 0.99435 0.65521 0.0
N301 N 0.34504 0.97907 0.68303 0.0
N302 N 0.34665 0.97726 0.65041 0.0
H303 H 0.35871 0.95479 0.66854 0.0
H304 H 0.333 0.00831 0.68321 0.0
C305 C 0.35764 0.01607 0.72645 0.0
O306 O 0.35082 0.01091 0.74362 0.0
N307 N 0.35833 0.972 0.73769 0.0
C308 C 0.34819 0.96394 0.75249 0.0
C309 C 0.36002 0.96336 0.7688 0.0
C310 C 0.37611 0.97605 0.74514 0.0
N311 N 0.37761 0.97096 0.76411 0.0
C312 C 0.31358 0.96037 0.71731 0.0
C313 C 0.29358 0.99418 0.70877 0.0
C314 C 0.2841 0.97613 0.70593 0.0
C315 C 0.29402 0.95925 0.71188 0.0
C316 C 0.31336 0.9946 0.71418 0.0
N317 N 0.32357 0.97761 0.71647 0.0
H318 H 0.32105 0.94684 0.72026 0.0
H319 H 0.3207 0.00851 0.7144 0.0
H320 H 0.33346 0.95845 0.75159 0.0
H321 H 0.38768 0.98272 0.73672 0.0
O322 O 0.35248 0.94725 0.70717 0.0
O323 O 0.37785 0.96675 0.70364 0.0
O324 O 0.35714 0.0042 0.71208 0.0
C325 C 0.37104 0.949 0.70398 0.0
H326 H 0.33466 0.00595 0.64509 0.0
H327 H 0.3561 0.95724 0.78283 0.0
H328 H 0.28631 0.0078 0.70538 0.0
H329 H 0.28757 0.94491 0.71049 0.0
Co330 Co 0.46268 0.09802 0.96639 0.0
C331 C 0.47546 0.09797 0.92479 0.0
C332 C 0.44869 0.08252 0.92861 0.0
C333 C 0.45268 0.08351 0.90903 0.0
N334 N 0.46304 0.09149 0.93867 0.0
N335 N 0.46936 0.09366 0.90648 0.0
H336 H 0.48777 0.10722 0.92789 0.0
H337 H 0.43517 0.07722 0.93463 0.0
C338 C 0.42031 0.10337 0.97721 0.0
O339 O 0.42367 0.09609 0.99463 0.0
N340 N 0.46214 0.10514 0.99378 0.0
C341 C 0.46924 0.09561 0.00946 0.0
C342 C 0.46884 0.10809 0.02527 0.0
C343 C 0.45752 0.12316 1.0003 0.0
N344 N 0.46159 0.12549 0.01942 0.0
C345 C 0.47737 0.06058 0.9759 0.0
C346 C 0.44616 0.03997 0.96111 0.0
C347 C 0.46475 0.03124 0.96115 0.0
C348 C 0.47995 0.04117 0.97045 0.0
C349 C 0.44411 0.05945 0.96725 0.0
N350 N 0.4602 0.07012 0.97232 0.0
H351 H 0.49002 0.06838 0.98104 0.0
H352 H 0.43011 0.06642 0.9654 0.0
H353 H 0.47513 0.08101 0.00947 0.0
H354 H 0.45173 0.13448 0.99094 0.0
O355 O 0.49088 0.09968 0.96701 0.0
O356 O 0.47131 0.12449 0.96056 0.0
O357 O 0.43364 0.10308 0.96414 0.0
C358 C 0.48902 0.11818 0.96345 0.0
H359 H 0.44291 0.07864 0.89764 0.0
H360 H 0.47444 0.10483 0.03967 0.0
H361 H 0.43381 0.03266 0.9545 0.0
H362 H 0.49434 0.03469 0.97165 0.0
Co363 Co 0.33279 0.20955 0.21551 0.0
C364 C 0.32899 0.20693 0.17304 0.0
C365 C 0.35222 0.2263 0.18114 0.0
C366 C 0.34957 0.22754 0.16125 0.0
N367 N 0.33921 0.21345 0.18844 0.0
N368 N 0.33502 0.21529 0.15628 0.0
H369 H 0.31617 0.19777 0.17432 0.0
H370 H 0.36191 0.23525 0.18979 0.0
C371 C 0.32578 0.16661 0.22121 0.0
O372 O 0.33506 0.16757 0.23794 0.0
N373 N 0.32584 0.206 0.24283 0.0
C374 C 0.33719 0.20572 0.25894 0.0
C375 C 0.32537 0.20431 0.27519 0.0
C376 C 0.30737 0.20454 0.24959 0.0
N377 N 0.30659 0.20367 0.26927 0.0
C378 C 0.37113 0.21891 0.2275 0.0
C379 C 0.38871 0.19205 0.20307 0.0
C380 C 0.39894 0.20902 0.20818 0.0
C381 C 0.39042 0.22186 0.22158 0.0
C382 C 0.36929 0.18976 0.20914 0.0
N383 N 0.36031 0.20391 0.22003 0.0
H384 H 0.36418 0.23023 0.23602 0.0
H385 H 0.36086 0.17815 0.20265 0.0
H386 H 0.35291 0.20642 0.25917 0.0
H387 H 0.29466 0.20473 0.24025 0.0
O388 O 0.33332 0.23764 0.21943 0.0
O389 O 0.30733 0.22068 0.21053 0.0
O390 O 0.32547 0.18142 0.20981 0.0
C391 C 0.31499 0.23757 0.21452 0.0
H392 H 0.35676 0.23763 0.15143 0.0
H393 H 0.3303 0.20387 0.29018 0.0
H394 H 0.39478 0.18187 0.19259 0.0
H395 H 0.39791 0.2351 0.2259 0.0
Co396 Co 0.22457 0.10053 0.21936 0.0
C397 C 0.21394 0.10218 0.26153 0.0
C398 C 0.23961 0.08508 0.25678 0.0
C399 C 0.2363 0.08619 0.27651 0.0
N400 N 0.2255 0.095 0.24725 0.0
N401 N 0.22027 0.09721 0.27956 0.0
H402 H 0.2021 0.11224 0.25899 0.0
H403 H 0.25241 0.07872 0.25021 0.0
C404 C 0.26627 0.10844 0.20684 0.0
O405 O 0.26266 0.1016 0.1893 0.0
N406 N 0.22357 0.10634 0.19171 0.0
C407 C 0.21564 0.09579 0.17713 0.0
C408 C 0.2142 0.10749 0.16077 0.0
C409 C 0.22676 0.12419 0.18406 0.0
N410 N 0.22105 0.12543 0.16524 0.0
C411 C 0.21108 0.06188 0.21362 0.0
C412 C 0.24559 0.04317 0.2223 0.0
C413 C 0.2279 0.03302 0.22507 0.0
C414 C 0.21069 0.04231 0.21908 0.0
C415 C 0.24529 0.06295 0.21677 0.0
N416 N 0.22793 0.07251 0.21442 0.0
H417 H 0.19728 0.06877 0.21058 0.0
H418 H 0.2589 0.07084 0.21674 0.0
H419 H 0.21019 0.08107 0.17844 0.0
H420 H 0.23261 0.13619 0.19246 0.0
O421 O 0.19633 0.10128 0.2198 0.0
O422 O 0.21517 0.12693 0.2246 0.0
O423 O 0.25354 0.10682 0.22044 0.0
C424 C 0.19762 0.11992 0.22274 0.0
H425 H 0.24586 0.08045 0.28769 0.0
H426 H 0.20752 0.10338 0.14706 0.0
H427 H 0.25945 0.03644 0.22582 0.0
H428 H 0.19659 0.03533 0.22044 0.0
Co429 Co 0.33279 0.97458 0.47104 0.0
C430 C 0.32712 0.98287 0.51241 0.0
C431 C 0.35311 0.96594 0.50819 0.0
C432 C 0.35047 0.96883 0.52791 0.0
N433 N 0.33846 0.97487 0.49858 0.0
N434 N 0.334 0.97939 0.53059 0.0
H435 H 0.31331 0.98983 0.50914 0.0
H436 H 0.36446 0.95728 0.50144 0.0
C437 C 0.32755 0.01636 0.45943 0.0
O438 O 0.33906 0.01316 0.44442 0.0
N439 N 0.32626 0.97441 0.44339 0.0
C440 C 0.33736 0.97134 0.4274 0.0
C441 C 0.32551 0.97145 0.41117 0.0
C442 C 0.30794 0.97672 0.4365 0.0
N443 N 0.30693 0.97475 0.4169 0.0
C444 C 0.37097 0.96357 0.46001 0.0
C445 C 0.3893 0.99243 0.48132 0.0
C446 C 0.39931 0.97494 0.4775 0.0
C447 C 0.39041 0.9611 0.46546 0.0
C448 C 0.36975 0.9944 0.47544 0.0
N449 N 0.36043 0.97939 0.46614 0.0
H450 H 0.36378 0.95141 0.45305 0.0
H451 H 0.36148 0.00665 0.48098 0.0
H452 H 0.35293 0.9692 0.42712 0.0
H453 H 0.29558 0.97982 0.4458 0.0
O454 O 0.33361 0.94631 0.47115 0.0
O455 O 0.30717 0.96397 0.47681 0.0
O456 O 0.32534 0.00311 0.47238 0.0
C457 C 0.31508 0.94677 0.47515 0.0
H458 H 0.3595 0.96271 0.53934 0.0
H459 H 0.3303 0.96883 0.39635 0.0
H460 H 0.39566 0.00342 0.49074 0.0
H461 H 0.39769 0.94746 0.46209 0.0
Co462 Co 0.45712 0.08302 0.72129 0.0
C463 C 0.45273 0.08032 0.76363 0.0
C464 C 0.47082 0.10468 0.75592 0.0
C465 C 0.47019 0.10327 0.77597 0.0
N466 N 0.45982 0.09027 0.74831 0.0
N467 N 0.45887 0.08787 0.78076 0.0
H468 H 0.44462 0.06684 0.76217 0.0
H469 H 0.47948 0.11483 0.74753 0.0
C470 C 0.41428 0.07687 0.71482 0.0
O471 O 0.41561 0.08652 0.69832 0.0
N472 N 0.45446 0.07509 0.69407 0.0
C473 C 0.45309 0.08606 0.67776 0.0
C474 C 0.45169 0.07387 0.66183 0.0
C475 C 0.4537 0.0564 0.6877 0.0
N476 N 0.4522 0.05516 0.66805 0.0
C477 C 0.46661 0.12078 0.70771 0.0
C478 C 0.43998 0.13941 0.73162 0.0
C479 C 0.45713 0.14923 0.72627 0.0
C480 C 0.46979 0.1402 0.71301 0.0
C481 C 0.43742 0.11986 0.7261 0.0
N482 N 0.45153 0.11036 0.7156 0.0
H483 H 0.47783 0.11342 0.6994 0.0
H484 H 0.42574 0.11175 0.73289 0.0
H485 H 0.45265 0.10178 0.67721 0.0
H486 H 0.45456 0.0439 0.69728 0.0
O487 O 0.48526 0.08376 0.71839 0.0
O488 O 0.46832 0.0578 0.72744 0.0
O489 O 0.42897 0.07582 0.72626 0.0
C490 C 0.48525 0.06555 0.72373 0.0
H491 H 0.47838 0.11216 0.78614 0.0
H492 H 0.45024 0.07858 0.64683 0.0
H493 H 0.42992 0.14588 0.74198 0.0
H494 H 0.48314 0.14736 0.70847 0.0
Co495 Co 0.35148 0.20291 0.97011 0.0
C496 C 0.35535 0.19807 0.01245 0.0
C497 C 0.32983 0.21479 0.00536 0.0
C498 C 0.33135 0.2137 0.02533 0.0
N499 N 0.34486 0.20491 0.99735 0.0
N500 N 0.34749 0.20329 0.02977 0.0
H501 H 0.36926 0.19074 0.01072 0.0
H502 H 0.31906 0.22306 0.99735 0.0
C503 C 0.36028 0.16058 0.96236 0.0
O504 O 0.35158 0.16204 0.94534 0.0
N505 N 0.35857 0.20107 0.9427 0.0
C506 C 0.34729 0.20183 0.92659 0.0
C507 C 0.35918 0.20092 0.91035 0.0
C508 C 0.37706 0.19963 0.93599 0.0
N509 N 0.37795 0.19964 0.91628 0.0
C510 C 0.31251 0.21153 0.95931 0.0
C511 C 0.29651 0.18122 0.98035 0.0
C512 C 0.28547 0.19846 0.9781 0.0
C513 C 0.29323 0.21301 0.96588 0.0
C514 C 0.31597 0.18064 0.97409 0.0
N515 N 0.3242 0.19643 0.96511 0.0
H516 H 0.31877 0.22398 0.95193 0.0
H517 H 0.32484 0.16855 0.97887 0.0
H518 H 0.33159 0.20292 0.92637 0.0
H519 H 0.38966 0.19905 0.94545 0.0
O520 O 0.34989 0.23116 0.96776 0.0
O521 O 0.37658 0.2147 0.97548 0.0
O522 O 0.35985 0.17486 0.97438 0.0
C523 C 0.36835 0.23149 0.97216 0.0
H524 H 0.32192 0.22097 0.03574 0.0
H525 H 0.35424 0.20124 0.89536 0.0
H526 H 0.29094 0.16893 0.98855 0.0
H527 H 0.28555 0.22652 0.96316 0.0
Co528 Co 0.46202 0.22406 0.08297 0.0
C529 C 0.42107 0.20951 0.08227 0.0
C530 C 0.42398 0.23419 0.10106 0.0
C531 C 0.40462 0.22917 0.10023 0.0
N532 N 0.43449 0.22174 0.08994 0.0
N533 N 0.40271 0.21381 0.08809 0.0
H534 H 0.42427 0.19889 0.0711 0.0
H535 H 0.42937 0.24726 0.10788 0.0
C536 C 0.46921 0.26685 0.07553 0.0
O537 O 0.48686 0.26518 0.08286 0.0
N538 N 0.48921 0.22642 0.07549 0.0
C539 C 0.50536 0.22119 0.08542 0.0
C540 C 0.52124 0.22271 0.07308 0.0
C541 C 0.49546 0.23088 0.05732 0.0
N542 N 0.51496 0.22871 0.05535 0.0
C543 C 0.47087 0.2118 0.12146 0.0
C544 C 0.45854 0.24518 0.14009 0.0
C545 C 0.45725 0.22727 0.15017 0.0
C546 C 0.46524 0.2108 0.14099 0.0
C547 C 0.46405 0.24544 0.12032 0.0
N548 N 0.46797 0.22837 0.11072 0.0
H549 H 0.47552 0.19843 0.11463 0.0
H550 H 0.4624 0.25895 0.11247 0.0
H551 H 0.50559 0.21586 0.10026 0.0
H552 H 0.48575 0.23527 0.04567 0.0
O553 O 0.46484 0.19597 0.0827 0.0
O554 O 0.45673 0.21362 0.05699 0.0
O555 O 0.45725 0.25255 0.07652 0.0
C556 C 0.46079 0.19651 0.06424 0.0
H557 H 0.39277 0.23735 0.10673 0.0
H558 H 0.5361 0.21873 0.07668 0.0
H559 H 0.45368 0.25865 0.14677 0.0
H560 H 0.46536 0.19662 0.14792 0.0
Co561 Co 0.9621 0.45967 0.10172 0.0
C562 C 0.91932 0.46781 0.10105 0.0
C563 C 0.92671 0.4421 0.08499 0.0
C564 C 0.90678 0.44325 0.08609 0.0
N565 N 0.93474 0.45752 0.09435 0.0
N566 N 0.90216 0.45929 0.09638 0.0
H567 H 0.92045 0.48001 0.11098 0.0
H568 H 0.9345 0.42954 0.07962 0.0
C569 C 0.9752 0.41783 0.10775 0.0
O570 O 0.99288 0.4219 0.10154 0.0
N571 N 0.98924 0.46119 0.10959 0.0
C572 C 0.00468 0.4687 0.10002 0.0
C573 C 0.02061 0.46842 0.11237 0.0
C574 C 0.99594 0.45661 0.12758 0.0
N575 N 0.01507 0.46085 0.12974 0.0
C576 C 0.96998 0.4749 0.06411 0.0
C577 C 0.96096 0.44146 0.0438 0.0
C578 C 0.95781 0.45966 0.0347 0.0
C579 C 0.96416 0.47635 0.04466 0.0
C580 C 0.96676 0.44072 0.06347 0.0
N581 N 0.96893 0.45755 0.07394 0.0
H582 H 0.97321 0.48829 0.07168 0.0
H583 H 0.96697 0.4267 0.0706 0.0
H584 H 0.0044 0.4745 0.08537 0.0
H585 H 0.98685 0.45035 0.13887 0.0
O586 O 0.96041 0.48781 0.10312 0.0
O587 O 0.95493 0.46815 0.12802 0.0
O588 O 0.96171 0.43068 0.10695 0.0
C589 C 0.95655 0.48595 0.12154 0.0
H590 H 0.89657 0.4321 0.08149 0.0
H591 H 0.03497 0.47405 0.10898 0.0
H592 H 0.95736 0.42797 0.03642 0.0
H593 H 0.96272 0.49078 0.03838 0.0
Co594 Co 0.97083 0.71544 0.34937 0.0
C595 C 0.96271 0.67258 0.3482 0.0
C596 C 0.98941 0.67984 0.33382 0.0
C597 C 0.98801 0.65993 0.33462 0.0
N598 N 0.97349 0.68798 0.34222 0.0
N599 N 0.97139 0.65535 0.34397 0.0
H600 H 0.94988 0.67378 0.3573 0.0
H601 H 0.00236 0.68749 0.32927 0.0
C602 C 0.01225 0.72983 0.35459 0.0
O603 O 0.00747 0.74732 0.34834 0.0
N604 N 0.96878 0.74263 0.35718 0.0
C605 C 0.96171 0.75828 0.34754 0.0
C606 C 0.96165 0.77407 0.36004 0.0
C607 C 0.97296 0.7492 0.37529 0.0
N608 N 0.96867 0.7683 0.37755 0.0
C609 C 0.95466 0.72509 0.3127 0.0
C610 C 0.98566 0.71141 0.29097 0.0
C611 C 0.96673 0.7105 0.28302 0.0
C612 C 0.95159 0.71942 0.29344 0.0
C613 C 0.9882 0.71797 0.31028 0.0
N614 N 0.9723 0.72222 0.32159 0.0
H615 H 0.9421 0.72971 0.321 0.0
H616 H 0.00257 0.71718 0.31667 0.0
H617 H 0.9566 0.75843 0.33266 0.0
H618 H 0.97906 0.74001 0.3866 0.0
O619 O 0.94276 0.71312 0.35116 0.0
O620 O 0.9629 0.70817 0.37582 0.0
O621 O 0.99991 0.71589 0.35404 0.0
C622 C 0.94497 0.7094 0.36958 0.0
H623 H 0.99932 0.64969 0.33045 0.0
H624 H 0.95625 0.78851 0.35658 0.0
H625 H 0.99802 0.70532 0.28321 0.0
H626 H 0.93693 0.72007 0.28754 0.0
Co627 Co 0.7171 0.72547 0.60178 0.0
C628 C 0.75842 0.71198 0.59853 0.0
C629 C 0.75524 0.74204 0.59075 0.0
C630 C 0.77473 0.73757 0.59098 0.0
N631 N 0.74488 0.72605 0.59566 0.0
N632 N 0.77689 0.71871 0.59631 0.0
H633 H 0.75493 0.69747 0.6035 0.0
H634 H 0.74939 0.75652 0.58868 0.0
C635 C 0.70526 0.76761 0.60869 0.0
O636 O 0.68765 0.76426 0.60192 0.0
N637 N 0.68948 0.72508 0.60844 0.0
C638 C 0.67376 0.7199 0.59778 0.0
C639 C 0.65761 0.71951 0.60982 0.0
C640 C 0.68255 0.72797 0.62667 0.0
N641 N 0.66319 0.72445 0.62808 0.0
C642 C 0.70749 0.71161 0.56424 0.0
C643 C 0.72536 0.74165 0.54426 0.0
C644 C 0.72409 0.72317 0.53542 0.0
C645 C 0.7135 0.70863 0.54505 0.0
C646 C 0.71874 0.74413 0.56356 0.0
N647 N 0.71178 0.72854 0.5739 0.0
H648 H 0.70136 0.69931 0.57192 0.0
H649 H 0.72145 0.75788 0.57074 0.0
H650 H 0.67378 0.71622 0.58249 0.0
H651 H 0.69171 0.73238 0.63871 0.0
O652 O 0.71736 0.69725 0.6026 0.0
O653 O 0.72298 0.71623 0.62805 0.0
O654 O 0.71843 0.75441 0.60772 0.0
C655 C 0.72104 0.69865 0.62112 0.0
H656 H 0.78633 0.74816 0.58947 0.0
H657 H 0.64306 0.71517 0.6055 0.0
H658 H 0.73313 0.75345 0.53717 0.0
H659 H 0.7116 0.69435 0.53853 0.0
Co660 Co 0.21168 0.96694 0.34918 0.0
C661 C 0.22602 0.00776 0.34574 0.0
C662 C 0.19582 0.00547 0.33828 0.0
C663 C 0.20063 0.02486 0.33929 0.0
N664 N 0.21166 0.99462 0.34265 0.0
N665 N 0.21956 0.02641 0.34454 0.0
H666 H 0.24055 0.00385 0.35033 0.0
H667 H 0.18119 0.99996 0.33629 0.0
C668 C 0.16945 0.95574 0.35487 0.0
O669 O 0.17277 0.9384 0.34741 0.0
N670 N 0.21146 0.93945 0.35635 0.0
C671 C 0.21489 0.92332 0.34559 0.0
C672 C 0.21431 0.90723 0.35773 0.0
C673 C 0.20873 0.93287 0.37474 0.0
N674 N 0.21053 0.91329 0.37613 0.0
C675 C 0.22551 0.95664 0.31177 0.0
C676 C 0.19568 0.97482 0.29169 0.0
C677 C 0.21413 0.97325 0.28284 0.0
C678 C 0.2286 0.96261 0.29255 0.0
C679 C 0.19317 0.96849 0.31104 0.0
N680 N 0.20865 0.9613 0.32139 0.0
H681 H 0.23765 0.95026 0.31953 0.0
H682 H 0.17952 0.97167 0.31822 0.0
H683 H 0.21766 0.923 0.33009 0.0
H684 H 0.20593 0.9424 0.38698 0.0
O685 O 0.23991 0.96662 0.35027 0.0
O686 O 0.22067 0.9731 0.37538 0.0
O687 O 0.18278 0.96876 0.35482 0.0
C688 C 0.2383 0.97068 0.36872 0.0
H689 H 0.19023 0.03673 0.33864 0.0
H690 H 0.21661 0.89227 0.35324 0.0
H691 H 0.18395 0.98271 0.28458 0.0
H692 H 0.24287 0.96053 0.28603 0.0
Co693 Co 0.21741 0.96022 0.58193 0.0
C694 C 0.25832 0.97493 0.5844 0.0
C695 C 0.25599 0.94523 0.59367 0.0
C696 C 0.27536 0.9501 0.59288 0.0
N697 N 0.24516 0.96074 0.5882 0.0
N698 N 0.27698 0.96871 0.58659 0.0
H699 H 0.25443 0.98909 0.57875 0.0
H700 H 0.25054 0.9307 0.59633 0.0
C701 C 0.20731 0.91769 0.57575 0.0
O702 O 0.1899 0.92048 0.58329 0.0
N703 N 0.18991 0.95948 0.57502 0.0
C704 C 0.17401 0.96551 0.58495 0.0
C705 C 0.1581 0.96497 0.5726 0.0
C706 C 0.18337 0.95528 0.55692 0.0
N707 N 0.16404 0.95866 0.55487 0.0
C708 C 0.20751 0.97347 0.61969 0.0
C709 C 0.22551 0.94321 0.63924 0.0
C710 C 0.22417 0.96156 0.64835 0.0
C711 C 0.21348 0.97619 0.63894 0.0
C712 C 0.21898 0.94101 0.61991 0.0
N713 N 0.212 0.95674 0.60977 0.0
H714 H 0.20133 0.98587 0.61221 0.0
H715 H 0.22184 0.92738 0.61258 0.0
H716 H 0.17383 0.97062 0.59983 0.0
H717 H 0.19285 0.9502 0.54537 0.0
O718 O 0.21642 0.98844 0.58119 0.0
O719 O 0.22302 0.96976 0.55573 0.0
O720 O 0.21996 0.9314 0.57591 0.0
C721 C 0.22019 0.98723 0.56267 0.0
H722 H 0.28722 0.93981 0.5946 0.0
H723 H 0.14349 0.96977 0.57625 0.0
H724 H 0.23334 0.93132 0.64614 0.0
H725 H 0.21148 0.99036 0.64567 0.0
Co726 Co 0.97653 0.47074 0.33222 0.0
C727 C 0.96591 0.51304 0.3346 0.0
C728 C 0.99311 0.50692 0.34856 0.0
C729 C 0.99054 0.52672 0.34835 0.0
N730 N 0.97761 0.49811 0.34007 0.0
N731 N 0.97362 0.53062 0.33923 0.0
H732 H 0.95315 0.51138 0.3255 0.0
H733 H 0.00657 0.49993 0.35268 0.0
C734 C 0.01875 0.45911 0.32657 0.0
O735 O 0.01519 0.44144 0.33309 0.0
N736 N 0.97611 0.44364 0.32375 0.0
C737 C 0.97101 0.42733 0.3335 0.0
C738 C 0.9721 0.41167 0.3209 0.0
C739 C 0.98027 0.4376 0.30541 0.0
N740 N 0.9779 0.41815 0.30319 0.0
C741 C 0.96143 0.45935 0.36882 0.0
C742 C 0.99159 0.47476 0.39048 0.0
C743 C 0.97267 0.47457 0.39848 0.0
C744 C 0.95805 0.46485 0.38809 0.0
C745 C 0.99446 0.46847 0.37111 0.0
N746 N 0.9788 0.46339 0.35984 0.0
H747 H 0.94918 0.45392 0.36057 0.0
H748 H 0.00873 0.47014 0.36466 0.0
H749 H 0.96666 0.42658 0.34861 0.0
H750 H 0.98508 0.44734 0.29395 0.0
O751 O 0.94836 0.47143 0.33101 0.0
O752 O 0.96763 0.47817 0.30609 0.0
O753 O 0.00548 0.47219 0.32705 0.0
C754 C 0.94993 0.47581 0.31268 0.0
H755 H 0.00131 0.53746 0.35262 0.0
H756 H 0.96839 0.39674 0.32447 0.0
H757 H 0.00359 0.48152 0.39824 0.0
H758 H 0.94347 0.46337 0.39404 0.0
Co759 Co 0.71076 0.71301 0.83278 0.0
C760 C 0.7233 0.67139 0.83192 0.0
C761 C 0.69805 0.67538 0.8498 0.0
C762 C 0.70228 0.6558 0.84907 0.0
N763 N 0.71133 0.6853 0.83914 0.0
N764 N 0.71804 0.65322 0.83754 0.0
H765 H 0.73458 0.67422 0.82133 0.0
H766 H 0.68515 0.6815 0.85641 0.0
C767 C 0.66848 0.72347 0.82569 0.0
O768 O 0.67149 0.74104 0.83275 0.0
N769 N 0.71027 0.74045 0.82608 0.0
C770 C 0.7174 0.75572 0.83618 0.0
C771 C 0.71751 0.77188 0.82413 0.0
C772 C 0.70627 0.74747 0.80811 0.0
N773 N 0.71062 0.76661 0.8064 0.0
C774 C 0.72433 0.71982 0.87126 0.0
C775 C 0.69019 0.71027 0.89015 0.0
C776 C 0.70802 0.70755 0.90007 0.0
C777 C 0.72502 0.71409 0.89077 0.0
C778 C 0.6902 0.71589 0.87042 0.0
N779 N 0.70743 0.71857 0.86071 0.0
H780 H 0.73799 0.72325 0.8643 0.0
H781 H 0.67654 0.71549 0.86268 0.0
H782 H 0.72312 0.75506 0.85085 0.0
H783 H 0.70077 0.73846 0.79637 0.0
O784 O 0.73897 0.71398 0.83179 0.0
O785 O 0.72016 0.70749 0.80646 0.0
O786 O 0.68183 0.71042 0.82684 0.0
C787 C 0.73766 0.71042 0.81325 0.0
H788 H 0.69344 0.64434 0.85537 0.0
H789 H 0.72328 0.78609 0.82788 0.0
H790 H 0.67644 0.70645 0.89695 0.0
H791 H 0.73919 0.71292 0.89763 0.0
Co792 Co 0.58245 0.96649 0.72535 0.0
C793 C 0.57831 0.92437 0.73081 0.0
C794 C 0.6033 0.93081 0.71306 0.0
C795 C 0.60145 0.91086 0.71446 0.0
N796 N 0.5888 0.93918 0.7234 0.0
N797 N 0.58563 0.90683 0.72554 0.0
H798 H 0.56474 0.92648 0.73865 0.0
H799 H 0.61394 0.9386 0.70442 0.0
C800 C 0.57487 0.97458 0.76788 0.0
O801 O 0.58329 0.9917 0.76612 0.0
N802 N 0.5754 0.99399 0.72718 0.0
C803 C 0.58659 0.0102 0.72658 0.0
C804 C 0.57461 0.02639 0.72727 0.0
C805 C 0.55688 1.00065 0.72847 0.0
N806 N 0.55591 0.02033 0.72838 0.0
C807 C 0.6206 0.97841 0.71523 0.0
C808 C 0.63856 0.95526 0.74295 0.0
C809 C 0.64857 0.9596 0.72559 0.0
C810 C 0.63989 0.97249 0.71235 0.0
C811 C 0.61914 0.96143 0.74524 0.0
N812 N 0.60995 0.97152 0.73065 0.0
H813 H 0.61351 0.98635 0.7036 0.0
H814 H 0.61084 0.9555 0.75725 0.0
H815 H 0.60231 0.01055 0.72588 0.0
H816 H 0.54427 0.9912 0.72898 0.0
O817 O 0.58309 0.96867 0.69712 0.0
O818 O 0.55698 0.96088 0.71447 0.0
O819 O 0.57519 0.96245 0.75371 0.0
C820 C 0.56469 0.96406 0.69742 0.0
H821 H 0.61047 0.9002 0.70705 0.0
H822 H 0.57939 0.04144 0.72702 0.0
H823 H 0.64477 0.94525 0.7535 0.0
H824 H 0.64722 0.9763 0.69885 0.0
Co825 Co 0.46613 0.33069 0.97476 0.0
C826 C 0.50878 0.33295 0.96561 0.0
C827 C 0.50209 0.34518 0.99351 0.0
C828 C 0.52195 0.34506 0.99135 0.0
N829 N 0.49362 0.33771 0.97732 0.0
N830 N 0.52622 0.33702 0.97395 0.0
H831 H 0.50733 0.32488 0.95215 0.0
H832 H 0.49472 0.34879 0.00693 0.0
C833 C 0.45221 0.32393 0.01625 0.0
O834 O 0.4345 0.32986 0.01191 0.0
N835 N 0.43886 0.32306 0.9727 0.0
C836 C 0.42322 0.33299 0.96601 0.0
C837 C 0.40741 0.32051 0.96543 0.0
C838 C 0.43226 0.30481 0.97615 0.0
N839 N 0.41315 0.30271 0.97174 0.0
C840 C 0.45672 0.36787 0.95986 0.0
C841 C 0.47182 0.38822 0.99113 0.0
C842 C 0.4729 0.39646 0.97238 0.0
C843 C 0.4634 0.38685 0.9571 0.0
C844 C 0.46442 0.36916 0.99333 0.0
N845 N 0.4595 0.35843 0.97723 0.0
H846 H 0.45169 0.36005 0.94716 0.0
H847 H 0.46522 0.36234 0.00751 0.0
H848 H 0.4231 0.34805 0.96146 0.0
H849 H 0.44147 0.29329 0.98178 0.0
O850 O 0.46822 0.32977 0.9466 0.0
O851 O 0.47335 0.30451 0.96594 0.0
O852 O 0.46595 0.32509 0.0037 0.0
C853 C 0.4721 0.31131 0.94821 0.0
H854 H 0.53245 0.34887 0.00252 0.0
H855 H 0.393 0.3242 0.96014 0.0
H856 H 0.47851 0.39543 0.0035 0.0
H857 H 0.46325 0.39301 0.94253 0.0
Co858 Co 0.10078 0.22094 0.22423 0.0
C859 C 0.10412 0.2631 0.23034 0.0
C860 C 0.07878 0.25636 0.21328 0.0
C861 C 0.08034 0.27633 0.21472 0.0
N862 N 0.09367 0.24815 0.22317 0.0
N863 N 0.0964 0.28057 0.22533 0.0
H864 H 0.11801 0.26115 0.23763 0.0
H865 H 0.06811 0.24847 0.20477 0.0
C866 C 0.10777 0.21155 0.26652 0.0
O867 O 0.09864 0.19489 0.26414 0.0
N868 N 0.10849 0.19355 0.22517 0.0
C869 C 0.09742 0.17725 0.22545 0.0
C870 C 0.1095 0.16118 0.22604 0.0
C871 C 0.12712 0.18702 0.22575 0.0
N872 N 0.12822 0.16733 0.22613 0.0
C873 C 0.06303 0.20796 0.21407 0.0
C874 C 0.04437 0.23031 0.24197 0.0
C875 C 0.03452 0.22586 0.22455 0.0
C876 C 0.04356 0.21326 0.21126 0.0
C877 C 0.06395 0.22468 0.24422 0.0
N878 N 0.07345 0.21504 0.22954 0.0
H879 H 0.07038 0.20033 0.20238 0.0
H880 H 0.07208 0.23077 0.25627 0.0
H881 H 0.0817 0.17674 0.2258 0.0
H882 H 0.13967 0.19656 0.22568 0.0
O883 O 0.09992 0.21975 0.19596 0.0
O884 O 0.12603 0.22753 0.21327 0.0
O885 O 0.10814 0.22412 0.2527 0.0
C886 C 0.11819 0.22485 0.19618 0.0
H887 H 0.07103 0.28686 0.20748 0.0
H888 H 0.10473 0.14615 0.22665 0.0
H889 H 0.03789 0.24009 0.25258 0.0
H890 H 0.03636 0.20931 0.19774 0.0
Co891 Co 0.21464 0.85084 0.47553 0.0
C892 C 0.17427 0.84715 0.45954 0.0
C893 C 0.17552 0.8404 0.48998 0.0
C894 C 0.15636 0.84068 0.48435 0.0
N895 N 0.1869 0.84459 0.47448 0.0
N896 N 0.1554 0.84544 0.46525 0.0
H897 H 0.17865 0.85165 0.44511 0.0
H898 H 0.18041 0.83898 0.50488 0.0
C899 C 0.22353 0.85853 0.51806 0.0
O900 O 0.2408 0.85043 0.5161 0.0
N901 N 0.24218 0.85763 0.47683 0.0
C902 C 0.25824 0.84627 0.47564 0.0
C903 C 0.27456 0.85802 0.47661 0.0
C904 C 0.24904 0.87602 0.47864 0.0
N905 N 0.26874 0.87678 0.47842 0.0
C906 C 0.22517 0.81275 0.46432 0.0
C907 C 0.20376 0.7948 0.49334 0.0
C908 C 0.20581 0.78549 0.47521 0.0
C909 C 0.21808 0.79393 0.46128 0.0
C910 C 0.21139 0.81368 0.49585 0.0
N911 N 0.21985 0.8232 0.48047 0.0
H912 H 0.23273 0.81975 0.4524 0.0
H913 H 0.20802 0.8214 0.50915 0.0
H914 H 0.25836 0.83058 0.47431 0.0
H915 H 0.23967 0.88867 0.47973 0.0
O916 O 0.21655 0.85022 0.44732 0.0
O917 O 0.20916 0.8765 0.4645 0.0
O918 O 0.21132 0.85823 0.50396 0.0
C919 C 0.21253 0.86874 0.44748 0.0
H920 H 0.14414 0.83984 0.49432 0.0
H921 H 0.28953 0.85301 0.47606 0.0
H922 H 0.19453 0.78858 0.50457 0.0
H923 H 0.22026 0.78703 0.44721 0.0
Co924 Co 0.58082 0.22259 0.95893 0.0
C925 C 0.58059 0.26575 0.96464 0.0
C926 C 0.59291 0.25762 0.93713 0.0
C927 C 0.59129 0.27757 0.93761 0.0
N928 N 0.58617 0.25007 0.95409 0.0
N929 N 0.58335 0.28265 0.95483 0.0
H930 H 0.57284 0.26488 0.97835 0.0
H931 H 0.59703 0.24934 0.9244 0.0
C932 C 0.57579 0.20498 0.91882 0.0
O933 O 0.58534 0.18924 0.92425 0.0
N934 N 0.57488 0.19526 0.96312 0.0
C935 C 0.58525 0.18103 0.97192 0.0
C936 C 0.57379 0.16448 0.97298 0.0
C937 C 0.55739 0.18721 0.95905 0.0
N938 N 0.55622 0.16846 0.96494 0.0
C939 C 0.61897 0.21669 0.97361 0.0
C940 C 0.63874 0.22563 0.93978 0.0
C941 C 0.64832 0.2283 0.9578 0.0
C942 C 0.63849 0.22224 0.97468 0.0
C943 C 0.619 0.22005 0.9394 0.0
N944 N 0.60889 0.21741 0.9564 0.0
H945 H 0.61159 0.21368 0.98717 0.0
H946 H 0.61162 0.21982 0.92552 0.0
H947 H 0.59985 0.18247 0.97763 0.0
H948 H 0.5457 0.1951 0.95193 0.0
O949 O 0.58017 0.22678 0.98687 0.0
O950 O 0.55437 0.22877 0.96773 0.0
O951 O 0.57457 0.21963 0.93029 0.0
C952 C 0.56147 0.22918 0.98536 0.0
H953 H 0.59407 0.28741 0.92555 0.0
H954 H 0.57791 0.15082 0.97977 0.0
H955 H 0.64592 0.22916 0.92615 0.0
H956 H 0.64498 0.22359 0.989 0.0
Co957 Co 0.21359 0.33169 0.20809 0.0
C958 C 0.17165 0.33289 0.21968 0.0
C959 C 0.17609 0.34381 0.19079 0.0
C960 C 0.15641 0.3433 0.19444 0.0
N961 N 0.18576 0.33719 0.20659 0.0
N962 N 0.15347 0.33605 0.21255 0.0
H963 H 0.17457 0.32626 0.23362 0.0
H964 H 0.18261 0.34743 0.17691 0.0
C965 C 0.22699 0.3239 0.1666 0.0
O966 O 0.24446 0.33072 0.17052 0.0
N967 N 0.24129 0.32584 0.20952 0.0
C968 C 0.25647 0.3373 0.21452 0.0
C969 C 0.27315 0.32595 0.2152 0.0
C970 C 0.24893 0.30782 0.20728 0.0
N971 N 0.26834 0.30736 0.2107 0.0
C972 C 0.22008 0.37013 0.22165 0.0
C973 C 0.20761 0.38874 0.18828 0.0
C974 C 0.20579 0.39857 0.20629 0.0
C975 C 0.21366 0.38941 0.22282 0.0
C976 C 0.21403 0.36926 0.18781 0.0
N977 N 0.21834 0.35966 0.20475 0.0
H978 H 0.22458 0.36312 0.235 0.0
H979 H 0.21341 0.3615 0.17413 0.0
H980 H 0.25565 0.3527 0.21775 0.0
H981 H 0.24023 0.29517 0.20373 0.0
O982 O 0.2125 0.33109 0.23632 0.0
O983 O 0.20814 0.30537 0.21739 0.0
O984 O 0.21322 0.3253 0.17916 0.0
C985 C 0.20947 0.31245 0.23496 0.0
H986 H 0.14527 0.34645 0.18373 0.0
H987 H 0.28762 0.33105 0.21892 0.0
H988 H 0.20272 0.39546 0.17483 0.0
H989 H 0.21313 0.39619 0.23707 0.0
Co990 Co 0.10242 0.96149 0.45517 0.0
C991 C 0.10756 0.91979 0.4484 0.0
C992 C 0.08136 0.92496 0.46473 0.0
C993 C 0.08347 0.90514 0.46208 0.0
N994 N 0.09648 0.93404 0.45604 0.0
N995 N 0.10006 0.90187 0.45187 0.0
H996 H 0.12152 0.92258 0.44156 0.0
H997 H 0.06997 0.93209 0.47298 0.0
C998 C 0.11046 0.97052 0.41287 0.0
O999 O 0.10185 0.98754 0.41481 0.0
N1000 N 0.10909 0.98907 0.45418 0.0
C1001 C 0.09764 0.00506 0.45521 0.0
C1002 C 0.10932 0.02142 0.45413 0.0
C1003 C 0.12746 0.996 0.45241 0.0
N1004 N 0.12815 0.01573 0.45244 0.0
C1005 C 0.06355 0.97184 0.46457 0.0
C1006 C 0.04714 0.95138 0.43409 0.0
C1007 C 0.0363 0.95351 0.45145 0.0
C1008 C 0.04426 0.96539 0.46613 0.0
C1009 C 0.06659 0.95761 0.43335 0.0
N1010 N 0.07501 0.96633 0.44918 0.0
H1011 H 0.06997 0.97899 0.47706 0.0
H1012 H 0.07535 0.95299 0.42111 0.0
H1013 H 0.08194 0.00511 0.45642 0.0
H1014 H 0.14012 0.98665 0.45132 0.0
O1015 O 0.10095 0.96275 0.48343 0.0
O1016 O 0.12772 0.95612 0.46663 0.0
O1017 O 0.11047 0.95829 0.42696 0.0
C1018 C 0.11948 0.95866 0.48355 0.0
H1019 H 0.07395 0.89405 0.46804 0.0
H1020 H 0.10415 0.03634 0.45449 0.0
H1021 H 0.04139 0.94327 0.42181 0.0
H1022 H 0.03669 0.9679 0.47976 0.0
Co1023 Co 0.47084 0.85141 0.70922 0.0
C1024 C 0.51197 0.85276 0.72352 0.0
C1025 C 0.50914 0.83337 0.69935 0.0
C1026 C 0.52853 0.83479 0.70401 0.0
N1027 N 0.49847 0.84441 0.71175 0.0
N1028 N 0.53044 0.84741 0.71895 0.0
H1029 H 0.50869 0.86417 0.73384 0.0
H1030 H 0.50396 0.82647 0.68627 0.0
C1031 C 0.46359 0.85741 0.66634 0.0
O1032 O 0.44622 0.84951 0.66824 0.0
N1033 N 0.44365 0.85911 0.70656 0.0
C1034 C 0.42728 0.84911 0.71092 0.0
C1035 C 0.41148 0.86148 0.70908 0.0
C1036 C 0.43753 0.87736 0.70214 0.0
N1037 N 0.41795 0.87931 0.70366 0.0
C1038 C 0.45963 0.81388 0.72234 0.0
C1039 C 0.47626 0.79349 0.69189 0.0
C1040 C 0.47529 0.78475 0.71041 0.0
C1041 C 0.46505 0.79449 0.72511 0.0
C1042 C 0.47017 0.81302 0.68965 0.0
N1043 N 0.4645 0.82362 0.70561 0.0
H1044 H 0.45355 0.82151 0.73469 0.0
H1045 H 0.47303 0.82014 0.6759 0.0
H1046 H 0.42667 0.83412 0.7157 0.0
H1047 H 0.44736 0.88906 0.69821 0.0
O1048 O 0.46787 0.85225 0.73725 0.0
O1049 O 0.4764 0.87753 0.71916 0.0
O1050 O 0.47561 0.85712 0.68062 0.0
C1051 C 0.47208 0.87065 0.73637 0.0
H1052 H 0.54035 0.82847 0.69564 0.0
H1053 H 0.39649 0.85777 0.71239 0.0
H1054 H 0.48371 0.78625 0.67996 0.0
H1055 H 0.46333 0.78798 0.73943 0.0
Co1056 Co 0.72281 0.58154 0.96259 0.0
C1057 C 0.7086 0.5818 0.92135 0.0
C1058 C 0.73401 0.59944 0.9248 0.0
C1059 C 0.72927 0.59899 0.90539 0.0
N1060 N 0.72092 0.58887 0.93506 0.0
N1061 N 0.7135 0.58747 0.90305 0.0
H1062 H 0.69746 0.57112 0.92437 0.0
H1063 H 0.74741 0.60544 0.93034 0.0
C1064 C 0.76568 0.57577 0.97066 0.0
O1065 O 0.76333 0.58315 0.9882 0.0
N1066 N 0.72485 0.57368 0.98979 0.0
C1067 C 0.72018 0.58372 0.00605 0.0
C1068 C 0.72156 0.57137 0.02188 0.0
C1069 C 0.729 0.5554 0.99602 0.0
N1070 N 0.72702 0.55349 0.01556 0.0
C1071 C 0.70912 0.61896 0.97362 0.0
C1072 C 0.74005 0.63958 0.95828 0.0
C1073 C 0.72153 0.64842 0.95894 0.0
C1074 C 0.70654 0.63847 0.96854 0.0
C1075 C 0.74211 0.61995 0.96401 0.0
N1076 N 0.72603 0.60929 0.96918 0.0
H1077 H 0.69662 0.61124 0.97924 0.0
H1078 H 0.75595 0.61289 0.96149 0.0
H1079 H 0.7155 0.59875 0.00655 0.0
H1080 H 0.73309 0.54366 0.98628 0.0
O1081 O 0.69472 0.58039 0.96487 0.0
O1082 O 0.71326 0.55539 0.95649 0.0
O1083 O 0.75159 0.57608 0.95842 0.0
C1084 C 0.69588 0.56203 0.9605 0.0
H1085 H 0.73802 0.60523 0.89384 0.0
H1086 H 0.71793 0.57515 0.03679 0.0
H1087 H 0.75227 0.64692 0.95144 0.0
H1088 H 0.69225 0.64505 0.97029 0.0
Co1089 Co 0.85152 0.47393 0.21312 0.0
C1090 C 0.85016 0.46472 0.1705 0.0
C1091 C 0.83481 0.49099 0.17733 0.0
C1092 C 0.83554 0.48922 0.15745 0.0
N1093 N 0.84386 0.47556 0.18573 0.0
N1094 N 0.8455 0.47289 0.15314 0.0
H1095 H 0.85987 0.45235 0.17186 0.0
H1096 H 0.83001 0.50401 0.1847 0.0
C1097 C 0.85655 0.51594 0.22569 0.0
O1098 O 0.85025 0.5119 0.24335 0.0
N1099 N 0.85979 0.47296 0.24025 0.0
C1100 C 0.85014 0.4668 0.25626 0.0
C1101 C 0.86266 0.4675 0.272 0.0
C1102 C 0.87799 0.47731 0.24655 0.0
N1103 N 0.88022 0.47407 0.26587 0.0
C1104 C 0.81494 0.45802 0.22359 0.0
C1105 C 0.79302 0.4888 0.20975 0.0
C1106 C 0.78509 0.46986 0.20914 0.0
C1107 C 0.79564 0.45484 0.2181 0.0
C1108 C 0.81242 0.49144 0.21603 0.0
N1109 N 0.8238 0.4756 0.22032 0.0
H1110 H 0.82327 0.44556 0.22843 0.0
H1111 H 0.81878 0.50579 0.21493 0.0
H1112 H 0.8352 0.46187 0.2567 0.0
H1113 H 0.88936 0.48279 0.23706 0.0
O1114 O 0.85331 0.4458 0.21181 0.0
O1115 O 0.87786 0.46572 0.20572 0.0
O1116 O 0.85615 0.50297 0.21234 0.0
C1117 C 0.87165 0.44785 0.20767 0.0
H1118 H 0.83103 0.50022 0.14703 0.0
H1119 H 0.85918 0.46292 0.28672 0.0
H1120 H 0.78517 0.50108 0.20361 0.0
H1121 H 0.78975 0.44019 0.21901 0.0
Co1122 Co 0.95736 0.6019 0.45935 0.0
C1123 C 0.96538 0.60154 0.41656 0.0
C1124 C 0.93927 0.58608 0.42373 0.0
C1125 C 0.94038 0.58757 0.40381 0.0
N1126 N 0.95497 0.59484 0.4319 0.0
N1127 N 0.95668 0.59749 0.39933 0.0
H1128 H 0.97786 0.61109 0.41782 0.0
H1129 H 0.9266 0.5809 0.43146 0.0
C1130 C 0.91578 0.60861 0.47283 0.0
O1131 O 0.91991 0.60197 0.49034 0.0
N1132 N 0.95918 0.60949 0.48659 0.0
C1133 C 0.96608 0.59941 0.502 0.0
C1134 C 0.96599 0.6115 0.51812 0.0
C1135 C 0.95513 0.62752 0.49352 0.0
N1136 N 0.95913 0.62921 0.51276 0.0
C1137 C 0.9719 0.56408 0.46757 0.0
C1138 C 0.93839 0.54406 0.45822 0.0
C1139 C 0.95652 0.53457 0.45585 0.0
C1140 C 0.9732 0.54447 0.4623 0.0
C1141 C 0.93779 0.56388 0.46354 0.0
N1142 N 0.95471 0.57413 0.466 0.0
H1143 H 0.98533 0.57151 0.47096 0.0
H1144 H 0.92388 0.57123 0.46334 0.0
H1145 H 0.97125 0.58453 0.50166 0.0
H1146 H 0.94933 0.63916 0.48455 0.0
O1147 O 0.9855 0.60267 0.45761 0.0
O1148 O 0.96639 0.62805 0.45225 0.0
O1149 O 0.92846 0.60776 0.45918 0.0
C1150 C 0.98406 0.62112 0.45376 0.0
H1151 H 0.92907 0.58349 0.39356 0.0
H1152 H 0.97121 0.60764 0.53253 0.0
H1153 H 0.92488 0.53679 0.45447 0.0
H1154 H 0.98757 0.53797 0.4614 0.0
Co1155 Co 0.83221 0.71078 0.71084 0.0
C1156 C 0.82714 0.7035 0.66923 0.0
C1157 C 0.85287 0.72061 0.67415 0.0
C1158 C 0.85058 0.71803 0.65433 0.0
N1159 N 0.83814 0.7114 0.68337 0.0
N1160 N 0.8343 0.70733 0.65124 0.0
H1161 H 0.81339 0.69631 0.67215 0.0
H1162 H 0.86406 0.72917 0.68123 0.0
C1163 C 0.8256 0.66852 0.72091 0.0
O1164 O 0.8346 0.67109 0.73763 0.0
N1165 N 0.82556 0.71008 0.73847 0.0
C1166 C 0.83702 0.71084 0.75448 0.0
C1167 C 0.82536 0.71002 0.77086 0.0
C1168 C 0.80716 0.70863 0.74546 0.0
N1169 N 0.80654 0.7087 0.76516 0.0
C1170 C 0.87038 0.72148 0.72225 0.0
C1171 C 0.88877 0.69254 0.70102 0.0
C1172 C 0.89893 0.70985 0.70513 0.0
C1173 C 0.88994 0.72377 0.71707 0.0
C1174 C 0.8691 0.6908 0.70651 0.0
N1175 N 0.8598 0.70586 0.71578 0.0
H1176 H 0.86317 0.7335 0.72951 0.0
H1177 H 0.86083 0.67867 0.70081 0.0
H1178 H 0.85274 0.71147 0.7546 0.0
H1179 H 0.79441 0.70774 0.73622 0.0
O1180 O 0.83267 0.73911 0.71159 0.0
O1181 O 0.80654 0.72129 0.70525 0.0
O1182 O 0.82515 0.68222 0.70825 0.0
C1183 C 0.81415 0.73852 0.70753 0.0
H1184 H 0.85972 0.72439 0.64313 0.0
H1185 H 0.83047 0.71014 0.7858 0.0
H1186 H 0.89518 0.68147 0.6917 0.0
H1187 H 0.89735 0.73725 0.72072 0.0
Co1188 Co 0.72502 0.60115 0.72099 0.0
C1189 C 0.73238 0.60462 0.76301 0.0
C1190 C 0.71583 0.57884 0.75667 0.0
C1191 C 0.71779 0.58037 0.77658 0.0
N1192 N 0.72505 0.59404 0.74822 0.0
N1193 N 0.72808 0.59668 0.78055 0.0
H1194 H 0.73924 0.61872 0.76098 0.0
H1195 H 0.70725 0.56804 0.74909 0.0
C1196 C 0.76666 0.60935 0.70991 0.0
O1197 O 0.76362 0.60099 0.69293 0.0
N1198 N 0.72476 0.60879 0.69369 0.0
C1199 C 0.72005 0.5984 0.67767 0.0
C1200 C 0.71994 0.61074 0.66178 0.0
C1201 C 0.7275 0.62723 0.68727 0.0
N1202 N 0.72454 0.62893 0.66784 0.0
C1203 C 0.71477 0.56258 0.71021 0.0
C1204 C 0.74667 0.54542 0.72768 0.0
C1205 C 0.72913 0.53469 0.72668 0.0
C1206 C 0.71364 0.54311 0.71616 0.0
C1207 C 0.74695 0.5651 0.72211 0.0
N1208 N 0.73053 0.57385 0.71491 0.0
H1209 H 0.7017 0.56922 0.70441 0.0
H1210 H 0.75956 0.57364 0.72602 0.0
H1211 H 0.71653 0.58308 0.6773 0.0
H1212 H 0.73143 0.63919 0.69678 0.0
O1213 O 0.6967 0.60012 0.72087 0.0
O1214 O 0.71415 0.62641 0.72762 0.0
O1215 O 0.75347 0.60889 0.72312 0.0
C1216 C 0.69703 0.61852 0.72547 0.0
H1217 H 0.71105 0.57092 0.7873 0.0
H1218 H 0.71604 0.60666 0.64703 0.0
H1219 H 0.75962 0.53941 0.73443 0.0
H1220 H 0.69979 0.53577 0.71445 0.0
Co1221 Co 0.83211 0.47679 0.96966 0.0
C1222 C 0.83329 0.46819 0.01244 0.0
C1223 C 0.84556 0.49606 0.00573 0.0
C1224 C 0.84471 0.49424 0.02561 0.0
N1225 N 0.83848 0.47969 0.99727 0.0
N1226 N 0.83667 0.47686 0.02986 0.0
H1227 H 0.82534 0.45466 0.01096 0.0
H1228 H 0.8493 0.50939 0.99828 0.0
C1229 C 0.825 0.51812 0.95519 0.0
O1230 O 0.83106 0.5137 0.93755 0.0
N1231 N 0.82513 0.47442 0.94221 0.0
C1232 C 0.83573 0.46851 0.92669 0.0
C1233 C 0.82374 0.46788 0.91053 0.0
C1234 C 0.80695 0.4774 0.93515 0.0
N1235 N 0.80557 0.47342 0.91588 0.0
C1236 C 0.86937 0.4617 0.9606 0.0
C1237 C 0.89014 0.49281 0.97537 0.0
C1238 C 0.89859 0.47407 0.97581 0.0
C1239 C 0.88861 0.45892 0.96648 0.0
C1240 C 0.87082 0.49509 0.96864 0.0
N1241 N 0.86001 0.47908 0.96365 0.0
H1242 H 0.86145 0.44908 0.95553 0.0
H1243 H 0.86404 0.50927 0.96964 0.0
H1244 H 0.851 0.46473 0.92682 0.0
H1245 H 0.79501 0.48255 0.94409 0.0
O1246 O 0.83121 0.44867 0.97208 0.0
O1247 O 0.80578 0.46799 0.97636 0.0
O1248 O 0.82644 0.50575 0.96907 0.0
C1249 C 0.81268 0.45028 0.97552 0.0
H1250 H 0.84796 0.50564 0.03607 0.0
H1251 H 0.82808 0.46321 0.89608 0.0
H1252 H 0.89755 0.50518 0.98183 0.0
H1253 H 0.8949 0.44443 0.96552 0.0
Co1254 Co 0.95614 0.58164 0.22348 0.0
C1255 C 0.96459 0.58253 0.26618 0.0
C1256 C 0.93812 0.59747 0.25908 0.0
C1257 C 0.93954 0.59645 0.27901 0.0
N1258 N 0.95383 0.58872 0.25089 0.0
N1259 N 0.9561 0.58691 0.28344 0.0
H1260 H 0.97726 0.57319 0.26491 0.0
H1261 H 0.92534 0.60245 0.25139 0.0
C1262 C 0.91444 0.57444 0.21048 0.0
O1263 O 0.91827 0.58079 0.19279 0.0
N1264 N 0.95786 0.57415 0.19626 0.0
C1265 C 0.96494 0.58421 0.18092 0.0
C1266 C 0.96488 0.57214 0.16478 0.0
C1267 C 0.95378 0.55617 0.1893 0.0
N1268 N 0.95789 0.55447 0.1701 0.0
C1269 C 0.97013 0.61978 0.2157 0.0
C1270 C 0.93589 0.6392 0.22377 0.0
C1271 C 0.95371 0.64914 0.22641 0.0
C1272 C 0.97081 0.6395 0.22064 0.0
C1273 C 0.93591 0.61929 0.21885 0.0
N1274 N 0.95313 0.60939 0.21691 0.0
H1275 H 0.98382 0.61258 0.21283 0.0
H1276 H 0.92218 0.61166 0.21893 0.0
H1277 H 0.97026 0.59903 0.18137 0.0
H1278 H 0.9479 0.54455 0.19824 0.0
O1279 O 0.98434 0.58098 0.2251 0.0
O1280 O 0.96539 0.55551 0.23037 0.0
O1281 O 0.9273 0.57556 0.22391 0.0
C1282 C 0.98301 0.56248 0.2288 0.0
H1283 H 0.92836 0.60066 0.28937 0.0
H1284 H 0.97024 0.57595 0.15041 0.0
H1285 H 0.92211 0.64624 0.22705 0.0
H1286 H 0.98498 0.64637 0.22184 0.0
Co1287 Co 0.85001 0.70862 0.47254 0.0
C1288 C 0.84945 0.71724 0.51523 0.0
C1289 C 0.83441 0.6908 0.50841 0.0
C1290 C 0.83567 0.6923 0.52832 0.0
N1291 N 0.84303 0.70646 0.50003 0.0
N1292 N 0.84535 0.70881 0.53258 0.0
H1293 H 0.85885 0.72981 0.51379 0.0
H1294 H 0.82946 0.67792 0.50088 0.0
C1295 C 0.85704 0.667 0.45945 0.0
O1296 O 0.85022 0.67092 0.44196 0.0
N1297 N 0.85747 0.71026 0.44526 0.0
C1298 C 0.8472 0.71687 0.42984 0.0
C1299 C 0.85917 0.71673 0.41363 0.0
C1300 C 0.87549 0.70634 0.43824 0.0
N1301 N 0.87699 0.71012 0.41895 0.0
C1302 C 0.81203 0.72266 0.46437 0.0
C1303 C 0.79248 0.68908 0.47444 0.0
C1304 C 0.7829 0.70716 0.47684 0.0
C1305 C 0.79253 0.72385 0.46998 0.0
C1306 C 0.81221 0.6886 0.46879 0.0
N1307 N 0.82227 0.70559 0.46602 0.0
H1308 H 0.81929 0.73611 0.46069 0.0
H1309 H 0.81968 0.67475 0.46904 0.0
H1310 H 0.83226 0.72185 0.43022 0.0
H1311 H 0.88726 0.70078 0.44719 0.0
O1312 O 0.85045 0.73678 0.47397 0.0
O1313 O 0.87607 0.71804 0.47944 0.0
O1314 O 0.85619 0.67979 0.47298 0.0
C1315 C 0.86893 0.7356 0.47776 0.0
H1316 H 0.83165 0.68111 0.53874 0.0
H1317 H 0.85515 0.72173 0.3992 0.0
H1318 H 0.78538 0.67554 0.47843 0.0
H1319 H 0.78595 0.73818 0.47085 0.0
Co1320 Co 0.96365 0.72411 0.58114 0.0
C1321 C 0.92082 0.71602 0.5821 0.0
C1322 C 0.9282 0.74232 0.59718 0.0
C1323 C 0.90826 0.7409 0.59656 0.0
N1324 N 0.93623 0.7267 0.58815 0.0
N1325 N 0.90363 0.72447 0.58689 0.0
H1326 H 0.92195 0.7034 0.57271 0.0
H1327 H 0.93599 0.75501 0.60223 0.0
C1328 C 0.97745 0.76571 0.57461 0.0
O1329 O 0.99515 0.76139 0.58061 0.0
N1330 N 0.99088 0.722 0.57375 0.0
C1331 C 0.00592 0.71359 0.58323 0.0
C1332 C 0.02188 0.71318 0.57088 0.0
C1333 C 0.99783 0.72643 0.55586 0.0
N1334 N 0.0167 0.7212 0.5536 0.0
C1335 C 0.97099 0.70916 0.61891 0.0
C1336 C 0.96239 0.74293 0.63891 0.0
C1337 C 0.95916 0.72486 0.64824 0.0
C1338 C 0.96527 0.708 0.63838 0.0
C1339 C 0.96808 0.74339 0.6192 0.0
N1340 N 0.97014 0.72642 0.60893 0.0
H1341 H 0.974 0.69565 0.61145 0.0
H1342 H 0.9684 0.75733 0.61191 0.0
H1343 H 0.0053 0.7075 0.59776 0.0
H1344 H 0.98899 0.7332 0.54466 0.0
O1345 O 0.96157 0.69595 0.57986 0.0
O1346 O 0.95671 0.71558 0.5548 0.0
O1347 O 0.96376 0.75311 0.57568 0.0
C1348 C 0.95799 0.69778 0.56137 0.0
H1349 H 0.89799 0.75198 0.60124 0.0
H1350 H 0.03591 0.7067 0.57416 0.0
H1351 H 0.95901 0.75656 0.64617 0.0
H1352 H 0.96372 0.69362 0.64473 0.0
Co1353 Co 0.46346 0.95879 0.60192 0.0
C1354 C 0.42063 0.96695 0.60017 0.0
C1355 C 0.42794 0.93944 0.58737 0.0
C1356 C 0.408 0.94114 0.58762 0.0
N1357 N 0.43601 0.95564 0.59522 0.0
N1358 N 0.40339 0.95834 0.59591 0.0
H1359 H 0.42179 0.98032 0.60844 0.0
H1360 H 0.4357 0.92636 0.5833 0.0
C1361 C 0.47829 0.91771 0.60958 0.0
O1362 O 0.4959 0.92235 0.60361 0.0
N1363 N 0.49081 0.96151 0.6089 0.0
C1364 C 0.50633 0.9661 0.5977 0.0
C1365 C 0.52273 0.96674 0.60936 0.0
C1366 C 0.49801 0.95949 0.62713 0.0
N1367 N 0.51747 0.9626 0.62792 0.0
C1368 C 0.47129 0.97316 0.5641 0.0
C1369 C 0.46104 0.93972 0.54436 0.0
C1370 C 0.45859 0.95789 0.53495 0.0
C1371 C 0.46552 0.9745 0.54467 0.0
C1372 C 0.46685 0.93909 0.56403 0.0
N1373 N 0.46974 0.956 0.57417 0.0
H1374 H 0.47506 0.98652 0.5715 0.0
H1375 H 0.4668 0.9252 0.57145 0.0
H1376 H 0.50601 0.96873 0.58217 0.0
H1377 H 0.48901 0.95595 0.63958 0.0
O1378 O 0.46092 0.98691 0.6025 0.0
O1379 O 0.45635 0.96788 0.62805 0.0
O1380 O 0.46423 0.9299 0.60805 0.0
C1381 C 0.45726 0.98552 0.62101 0.0
H1382 H 0.39771 0.92985 0.58361 0.0
H1383 H 0.53738 0.9699 0.60439 0.0
H1384 H 0.45703 0.92624 0.53718 0.0
H1385 H 0.46461 0.9889 0.53826 0.0
Co1386 Co 0.47516 0.21071 0.85168 0.0
C1387 C 0.48115 0.16882 0.85787 0.0
C1388 C 0.46992 0.17393 0.82916 0.0
C1389 C 0.4715 0.15407 0.83193 0.0
N1390 N 0.47628 0.18317 0.84537 0.0
N1391 N 0.47876 0.15098 0.84993 0.0
H1392 H 0.48563 0.17139 0.87281 0.0
H1393 H 0.46361 0.18087 0.81653 0.0
C1394 C 0.51818 0.19964 0.85758 0.0
O1395 O 0.51693 0.18401 0.84657 0.0
N1396 N 0.47396 0.23807 0.85881 0.0
C1397 C 0.46685 0.25357 0.84899 0.0
C1398 C 0.46707 0.26958 0.8612 0.0
C1399 C 0.47847 0.24492 0.87674 0.0
N1400 N 0.47427 0.26409 0.87873 0.0
C1401 C 0.46253 0.22043 0.81349 0.0
C1402 C 0.49534 0.20705 0.79449 0.0
C1403 C 0.47736 0.2067 0.78445 0.0
C1404 C 0.46126 0.21525 0.79384 0.0
C1405 C 0.4959 0.2122 0.81433 0.0
N1406 N 0.47913 0.21694 0.82402 0.0
H1407 H 0.44924 0.22487 0.82067 0.0
H1408 H 0.50949 0.21069 0.822 0.0
H1409 H 0.46127 0.25341 0.83428 0.0
H1410 H 0.48432 0.23582 0.88826 0.0
O1411 O 0.44696 0.20922 0.85141 0.0
O1412 O 0.46521 0.20418 0.87751 0.0
O1413 O 0.50391 0.21168 0.85882 0.0
C1414 C 0.44784 0.20517 0.86988 0.0
H1415 H 0.46692 0.14279 0.82185 0.0
H1416 H 0.46149 0.28393 0.85764 0.0
H1417 H 0.50864 0.20195 0.78764 0.0
H1418 H 0.44703 0.21591 0.78706 0.0
Co1419 Co 0.21791 0.22295 0.1004 0.0
C1420 C 0.26046 0.22486 0.10465 0.0
C1421 C 0.25213 0.20502 0.0819 0.0
C1422 C 0.27197 0.20353 0.08462 0.0
N1423 N 0.245 0.21834 0.09453 0.0
N1424 N 0.27711 0.21606 0.09888 0.0
H1425 H 0.2593 0.23441 0.1172 0.0
H1426 H 0.24334 0.19596 0.07245 0.0
C1427 C 0.21298 0.26603 0.10682 0.0
O1428 O 0.19643 0.26529 0.09718 0.0
N1429 N 0.19054 0.22719 0.10687 0.0
C1430 C 0.1745 0.22708 0.09543 0.0
C1431 C 0.15817 0.2288 0.10712 0.0
C1432 C 0.18366 0.22921 0.12524 0.0
N1433 N 0.16398 0.23001 0.12591 0.0
C1434 C 0.20652 0.21352 0.06187 0.0
C1435 C 0.23234 0.23935 0.04477 0.0
C1436 C 0.22708 0.22239 0.03461 0.0
C1437 C 0.21301 0.2101 0.04283 0.0
C1438 C 0.2256 0.24217 0.0639 0.0
N1439 N 0.21407 0.22845 0.07274 0.0
H1440 H 0.19758 0.20248 0.06871 0.0
H1441 H 0.23215 0.25371 0.07238 0.0
H1442 H 0.17437 0.22577 0.07974 0.0
H1443 H 0.19293 0.22934 0.138 0.0
O1444 O 0.21347 0.19495 0.10004 0.0
O1445 O 0.22204 0.21203 0.12607 0.0
O1446 O 0.22406 0.251 0.10756 0.0
C1447 C 0.21786 0.19515 0.1185 0.0
H1448 H 0.28165 0.19312 0.07768 0.0
H1449 H 0.14319 0.22893 0.10211 0.0
H1450 H 0.2434 0.24904 0.03895 0.0
H1451 H 0.20871 0.19679 0.03545 0.0
Co1452 Co 0.70828 0.47023 0.8505 0.0
C1453 C 0.70161 0.51223 0.85432 0.0
C1454 C 0.7197 0.50605 0.82951 0.0
C1455 C 0.71759 0.52597 0.83107 0.0
N1456 N 0.70958 0.49754 0.84406 0.0
N1457 N 0.7063 0.52984 0.84678 0.0
H1458 H 0.69376 0.51003 0.86786 0.0
H1459 H 0.72863 0.49839 0.819 0.0
C1460 C 0.66595 0.46103 0.85711 0.0
O1461 O 0.66827 0.44436 0.84794 0.0
N1462 N 0.70702 0.44273 0.85762 0.0
C1463 C 0.7076 0.42651 0.84644 0.0
C1464 C 0.70693 0.41035 0.85843 0.0
C1465 C 0.70576 0.4361 0.87615 0.0
N1466 N 0.70587 0.41643 0.87714 0.0
C1467 C 0.71882 0.45801 0.81256 0.0
C1468 C 0.69104 0.48067 0.79406 0.0
C1469 C 0.70847 0.47624 0.78424 0.0
C1470 C 0.72172 0.46353 0.79317 0.0
C1471 C 0.68867 0.47479 0.81355 0.0
N1472 N 0.70328 0.46496 0.82299 0.0
H1473 H 0.7305 0.45034 0.81988 0.0
H1474 H 0.67658 0.4808 0.82171 0.0
H1475 H 0.70812 0.42609 0.83072 0.0
H1476 H 0.70518 0.44555 0.88877 0.0
O1477 O 0.73659 0.46881 0.85008 0.0
O1478 O 0.71884 0.47604 0.87607 0.0
O1479 O 0.6798 0.47351 0.85754 0.0
C1480 C 0.73604 0.47322 0.86853 0.0
H1481 H 0.72469 0.53673 0.82194 0.0
H1482 H 0.70712 0.3953 0.85364 0.0
H1483 H 0.68052 0.49061 0.78766 0.0
H1484 H 0.73533 0.45976 0.78602 0.0
Co1485 Co 0.72112 0.4573 0.08221 0.0
C1486 C 0.76383 0.46582 0.08232 0.0
C1487 C 0.75721 0.43873 0.09634 0.0
C1488 C 0.77712 0.44035 0.09498 0.0
N1489 N 0.74874 0.45469 0.08836 0.0
N1490 N 0.78125 0.4573 0.086 0.0
H1491 H 0.76228 0.4789 0.07365 0.0
H1492 H 0.74967 0.42579 0.10116 0.0
C1493 C 0.70728 0.41573 0.07551 0.0
O1494 O 0.68974 0.41982 0.08209 0.0
N1495 N 0.69367 0.45939 0.07561 0.0
C1496 C 0.67874 0.46721 0.08577 0.0
C1497 C 0.66235 0.46735 0.074 0.0
C1498 C 0.68622 0.45505 0.05791 0.0
N1499 N 0.66712 0.45975 0.05642 0.0
C1500 C 0.71456 0.47177 0.12038 0.0
C1501 C 0.72398 0.43788 0.13982 0.0
C1502 C 0.72681 0.45586 0.14943 0.0
C1503 C 0.7204 0.47277 0.13985 0.0
C1504 C 0.71813 0.43758 0.12016 0.0
N1505 N 0.71548 0.45465 0.11017 0.0
H1506 H 0.71127 0.48534 0.11312 0.0
H1507 H 0.71797 0.42375 0.11268 0.0
H1508 H 0.67966 0.47296 0.10041 0.0
H1509 H 0.69481 0.44861 0.04633 0.0
O1510 O 0.72314 0.48548 0.08121 0.0
O1511 O 0.72732 0.46615 0.05579 0.0
O1512 O 0.72093 0.42839 0.0764 0.0
C1513 C 0.72634 0.48386 0.06262 0.0
H1514 H 0.78764 0.42915 0.09869 0.0
H1515 H 0.64824 0.4733 0.07792 0.0
H1516 H 0.72773 0.42424 0.14687 0.0
H1517 H 0.72174 0.48704 0.14647 0.0
Co1518 Co 0.47263 0.9708 0.83263 0.0
C1519 C 0.46157 0.01287 0.8315 0.0
C1520 C 0.48575 0.00782 0.85054 0.0
C1521 C 0.48234 0.02756 0.84974 0.0
N1522 N 0.47263 0.99847 0.8392 0.0
N1523 N 0.46726 0.03078 0.83754 0.0
H1524 H 0.45072 0.01058 0.82032 0.0
H1525 H 0.49809 0.00121 0.8577 0.0
C1526 C 0.51465 0.95959 0.825 0.0
O1527 O 0.51134 0.94191 0.83164 0.0
N1528 N 0.47267 0.94338 0.82578 0.0
C1529 C 0.46766 0.92778 0.83663 0.0
C1530 C 0.46787 0.91146 0.8248 0.0
C1531 C 0.47573 0.93639 0.80762 0.0
N1532 N 0.47285 0.91694 0.80649 0.0
C1533 C 0.45903 0.96406 0.87116 0.0
C1534 C 0.49379 0.97101 0.89006 0.0
C1535 C 0.4762 0.974 0.90033 0.0
C1536 C 0.45881 0.9688 0.89093 0.0
C1537 C 0.49332 0.96636 0.8701 0.0
N1538 N 0.47589 0.96492 0.8605 0.0
H1539 H 0.44516 0.96161 0.86422 0.0
H1540 H 0.50692 0.96646 0.86222 0.0
H1541 H 0.46366 0.92816 0.85188 0.0
H1542 H 0.47937 0.9456 0.79534 0.0
O1543 O 0.44436 0.97042 0.83164 0.0
O1544 O 0.46334 0.97663 0.80636 0.0
O1545 O 0.50161 0.97291 0.82664 0.0
C1546 C 0.44577 0.97395 0.8131 0.0
H1547 H 0.49128 0.03869 0.85648 0.0
H1548 H 0.4643 0.89679 0.8294 0.0
H1549 H 0.50775 0.97389 0.89687 0.0
H1550 H 0.44478 0.97031 0.89804 0.0
Co1551 Co 0.20868 0.21292 0.33299 0.0
C1552 C 0.20321 0.17068 0.32963 0.0
C1553 C 0.22017 0.17772 0.35497 0.0
C1554 C 0.21944 0.15774 0.35317 0.0
N1555 N 0.20993 0.18576 0.34021 0.0
N1556 N 0.20889 0.15334 0.33713 0.0
H1557 H 0.1959 0.17247 0.31573 0.0
H1558 H 0.22864 0.18576 0.36555 0.0
C1559 C 0.16651 0.22244 0.32607 0.0
O1560 O 0.16912 0.23925 0.33489 0.0
N1561 N 0.20761 0.2402 0.32509 0.0
C1562 C 0.21001 0.25669 0.33559 0.0
C1563 C 0.20932 0.27246 0.32315 0.0
C1564 C 0.20525 0.24631 0.30649 0.0
N1565 N 0.2064 0.26593 0.30478 0.0
C1566 C 0.21925 0.22578 0.37073 0.0
C1567 C 0.19105 0.20398 0.38955 0.0
C1568 C 0.20854 0.20825 0.39934 0.0
C1569 C 0.22198 0.22059 0.39022 0.0
C1570 C 0.18883 0.20956 0.36995 0.0
N1571 N 0.20362 0.21896 0.36036 0.0
H1572 H 0.23119 0.23295 0.36334 0.0
H1573 H 0.17666 0.20362 0.36189 0.0
H1574 H 0.21207 0.2576 0.35114 0.0
H1575 H 0.20271 0.23646 0.29443 0.0
O1576 O 0.23693 0.21419 0.33355 0.0
O1577 O 0.21939 0.20632 0.30763 0.0
O1578 O 0.18016 0.20968 0.32594 0.0
C1579 C 0.23654 0.20907 0.31529 0.0
H1580 H 0.22722 0.14733 0.36219 0.0
H1581 H 0.21133 0.28753 0.32739 0.0
H1582 H 0.18034 0.19436 0.39609 0.0
H1583 H 0.23561 0.2243 0.39735 0.0
C1584 C 0.19574 0.42968 0.22408 0.0
C1585 C 0.19311 0.41634 0.20854 0.0
H1586 H 0.18361 0.45341 0.2408 0.0
C1587 C 0.17643 0.41851 0.19675 0.0
H1588 H 0.2085 0.42885 0.23335 0.0
C1589 C 0.1625 0.43282 0.20082 0.0
C1590 C 0.16459 0.4454 0.21692 0.0
H1591 H 0.17338 0.40841 0.185 0.0
H1592 H 0.14945 0.43329 0.19188 0.0
C1593 C 0.18152 0.44386 0.22837 0.0
C1594 C 0.99055 0.93223 0.47577 0.0
C1595 C 0.98998 0.91354 0.46744 0.0
H1596 H 0.00471 0.9601 0.47644 0.0
C1597 C 0.0036 0.90871 0.45293 0.0
H1598 H 0.98015 0.93627 0.48698 0.0
C1599 C 0.01794 0.92196 0.44724 0.0
C1600 C 0.01897 0.94072 0.45563 0.0
H1601 H 0.00365 0.89425 0.44649 0.0
H1602 H 0.02879 0.91693 0.43692 0.0
C1603 C 0.00473 0.9458 0.46973 0.0
C1604 C 0.51642 0.75832 0.73579 0.0
C1605 C 0.51686 0.73995 0.72653 0.0
H1606 H 0.5031 0.78642 0.7379 0.0
C1607 C 0.50258 0.7361 0.71211 0.0
H1608 H 0.52737 0.76248 0.74636 0.0
C1609 C 0.48883 0.75043 0.70674 0.0
C1610 C 0.48876 0.76868 0.71603 0.0
H1611 H 0.50217 0.72217 0.70468 0.0
H1612 H 0.47833 0.74728 0.69534 0.0
C1613 C 0.50254 0.77231 0.73074 0.0
C1614 C 0.67932 0.23811 0.97569 0.0
C1615 C 0.66663 0.24021 0.95955 0.0
H1616 H 0.70237 0.25079 0.99285 0.0
C1617 C 0.66982 0.25598 0.94676 0.0
H1618 H 0.67779 0.22595 0.98566 0.0
C1619 C 0.68425 0.26983 0.95065 0.0
C1620 C 0.69583 0.26853 0.96756 0.0
H1621 H 0.66031 0.25853 0.9344 0.0
H1622 H 0.68543 0.28233 0.94103 0.0
C1623 C 0.69354 0.25227 0.97981 0.0
C1624 C 0.1772 0.77633 0.45521 0.0
C1625 C 0.19147 0.77067 0.46874 0.0
H1626 H 0.15155 0.7688 0.43956 0.0
C1627 C 0.1914 0.75147 0.47586 0.0
H1628 H 0.17683 0.79118 0.4497 0.0
C1629 C 0.1771 0.73817 0.46952 0.0
C1630 C 0.16239 0.74397 0.45623 0.0
H1631 H 0.20233 0.7468 0.48629 0.0
H1632 H 0.17745 0.72345 0.47525 0.0
C1633 C 0.16282 0.76329 0.44917 0.0
C1634 C 0.66379 0.93606 0.70236 0.0
C1635 C 0.66543 0.94742 0.71936 0.0
H1636 H 0.67496 0.91245 0.6855 0.0
C1637 C 0.68209 0.94529 0.73105 0.0
H1638 H 0.65097 0.93725 0.69316 0.0
C1639 C 0.69642 0.93143 0.72625 0.0
C1640 C 0.69403 0.91881 0.71008 0.0
H1641 H 0.68376 0.95397 0.74415 0.0
H1642 H 0.70895 0.93012 0.73577 0.0
C1643 C 0.67776 0.92186 0.69786 0.0
C1644 C 0.51614 0.42138 0.94898 0.0
C1645 C 0.51726 0.43939 0.95884 0.0
H1646 H 0.50148 0.39415 0.94557 0.0
C1647 C 0.50282 0.44356 0.97302 0.0
H1648 H 0.52718 0.41698 0.93856 0.0
C1649 C 0.48816 0.42987 0.97751 0.0
C1650 C 0.48735 0.41195 0.96758 0.0
H1651 H 0.50295 0.45724 0.9809 0.0
H1652 H 0.47752 0.43324 0.98872 0.0
C1653 C 0.5014 0.40803 0.95316 0.0
C1654 C 0.00116 0.24047 0.23033 0.0
C1655 C 0.01749 0.23779 0.21827 0.0
H1656 H 0.97466 0.25618 0.23536 0.0
C1657 C 0.01876 0.24858 0.20085 0.0
H1658 H 0.99975 0.23224 0.24376 0.0
C1659 C 0.00484 0.2628 0.1963 0.0
C1660 C 0.98901 0.26648 0.20892 0.0
H1661 H 0.03132 0.247 0.19135 0.0
H1662 H 0.00742 0.2718 0.18358 0.0
C1663 C 0.98688 0.25437 0.22551 0.0
C1664 C 0.20811 0.18027 0.44729 0.0
C1665 C 0.22428 0.16764 0.4448 0.0
H1666 H 0.1901 0.20278 0.4347 0.0
C1667 C 0.23642 0.17068 0.42846 0.0
H1668 H 0.19865 0.17897 0.45987 0.0
C1669 C 0.23184 0.18484 0.41453 0.0
C1670 C 0.21483 0.19619 0.41624 0.0
H1671 H 0.24877 0.16127 0.42554 0.0
H1672 H 0.24099 0.18597 0.40166 0.0
C1673 C 0.20322 0.1941 0.43296 0.0
C1674 C 0.2391 0.95425 0.68135 0.0
C1675 C 0.23688 0.9667 0.66523 0.0
H1676 H 0.25473 0.9481 0.7077 0.0
C1677 C 0.24849 0.9836 0.66418 0.0
H1678 H 0.23024 0.94122 0.68266 0.0
C1679 C 0.26282 0.98734 0.67817 0.0
C1680 C 0.26591 0.97441 0.69384 0.0
H1681 H 0.2474 0.99337 0.65179 0.0
H1682 H 0.27232 0.99973 0.67581 0.0
C1683 C 0.25325 0.95821 0.69565 0.0
C1684 C 0.45665 0.99822 0.94657 0.0
C1685 C 0.46931 0.01424 0.94832 0.0
H1686 H 0.44952 0.9721 0.93096 0.0
C1687 C 0.4857 0.01517 0.93596 0.0
H1688 H 0.44399 0.99698 0.95598 0.0
C1689 C 0.4887 0.00124 0.92141 0.0
C1690 C 0.47547 0.98577 0.91878 0.0
H1691 H 0.49561 0.02748 0.9366 0.0
H1692 H 0.50067 0.00356 0.91136 0.0
C1693 C 0.45983 0.98401 0.93213 0.0
C1694 C 0.42825 0.23689 0.17079 0.0
C1695 C 0.44479 0.22491 0.1681 0.0
H1696 H 0.40113 0.24128 0.18571 0.0
C1697 C 0.44724 0.20887 0.1809 0.0
H1698 H 0.42534 0.24912 0.16123 0.0
C1699 C 0.43277 0.20396 0.19455 0.0
C1700 C 0.41589 0.21543 0.19631 0.0
H1701 H 0.45995 0.19953 0.17989 0.0
H1702 H 0.4345 0.19094 0.20336 0.0
C1703 C 0.41413 0.2323 0.18479 0.0
C1704 C 0.21102 0.00155 0.23511 0.0
C1705 C 0.22675 0.01475 0.23712 0.0
H1706 H 0.19446 0.9782 0.24806 0.0
C1707 C 0.23956 0.01212 0.25297 0.0
H1708 H 0.20107 0.00263 0.22289 0.0
C1709 C 0.23601 0.99776 0.26702 0.0
C1710 C 0.21943 0.98572 0.26583 0.0
H1711 H 0.25161 0.02202 0.25543 0.0
H1712 H 0.24559 0.99702 0.27959 0.0
C1713 C 0.20723 0.98742 0.24946 0.0
C1714 C 0.43291 0.9812 0.4913 0.0
C1715 C 0.41648 0.96916 0.48946 0.0
H1716 H 0.46001 0.98635 0.50589 0.0
C1717 C 0.41546 0.95203 0.50071 0.0
H1718 H 0.43411 0.99441 0.48268 0.0
C1719 C 0.42988 0.94766 0.51444 0.0
C1720 C 0.44595 0.96017 0.51719 0.0
H1721 H 0.40282 0.94257 0.49978 0.0
H1722 H 0.42757 0.93513 0.52378 0.0
C1723 C 0.44767 0.97657 0.50475 0.0
C1724 C 0.45279 0.18304 0.74027 0.0
C1725 C 0.46404 0.16608 0.73803 0.0
H1726 H 0.44899 0.21008 0.75531 0.0
C1727 C 0.48117 0.16404 0.7491 0.0
H1728 H 0.43958 0.185 0.73181 0.0
C1729 C 0.4862 0.17789 0.76318 0.0
C1730 C 0.47445 0.19451 0.76638 0.0
H1731 H 0.49003 0.15098 0.74782 0.0
H1732 H 0.49862 0.17468 0.77238 0.0
C1733 C 0.45816 0.1973 0.75397 0.0
C1734 C 0.25283 0.19972 0.02313 0.0
C1735 C 0.23985 0.21493 0.01881 0.0
H1736 H 0.27737 0.18303 0.01439 0.0
C1737 C 0.24049 0.22354 1.00025 0.0
H1738 H 0.25276 0.19298 0.03744 0.0
C1739 C 0.25428 0.21725 0.98638 0.0
C1740 C 0.26817 0.20266 0.99105 0.0
H1741 H 0.23055 0.2353 0.99659 0.0
H1742 H 0.2543 0.22426 0.97224 0.0
C1743 C 0.26688 0.19382 0.00962 0.0
C1744 C 0.94646 0.47782 0.00427 0.0
C1745 C 0.94497 0.46168 0.01705 0.0
H1746 H 0.93306 0.49457 0.98127 0.0
C1747 C 0.92904 0.44896 0.01466 0.0
H1748 H 0.95861 0.48784 0.00534 0.0
C1749 C 0.91466 0.4527 1.00072 0.0
C1750 C 0.91556 0.46934 0.98869 0.0
H1751 H 0.92686 0.43669 0.02438 0.0
H1752 H 0.90217 0.44301 1.00019 0.0
C1753 C 0.93182 0.48172 0.9904 0.0
C1754 C 0.94226 0.67022 0.25412 0.0
C1755 C 0.955 0.66752 0.23825 0.0
H1756 H 0.93606 0.68553 0.28045 0.0
C1757 C 0.97065 0.68078 0.23602 0.0
H1758 H 0.93034 0.66021 0.25682 0.0
C1759 C 0.9742 0.69534 0.25002 0.0
C1760 C 0.96194 0.69727 0.26637 0.0
H1761 H 0.98063 0.67949 0.22383 0.0
H1762 H 0.98677 0.70476 0.24832 0.0
C1763 C 0.94564 0.68484 0.26788 0.0
C1764 C 0.73846 0.72974 0.50199 0.0
C1765 C 0.73671 0.71777 0.51853 0.0
H1766 H 0.75334 0.73511 0.47504 0.0
C1767 C 0.74849 0.70099 0.51982 0.0
H1768 H 0.72946 0.74267 0.50051 0.0
C1769 C 0.76248 0.69685 0.50557 0.0
C1770 C 0.76504 0.70927 0.48939 0.0
H1771 H 0.74775 0.69159 0.53252 0.0
H1772 H 0.77212 0.68457 0.50807 0.0
C1773 C 0.75226 0.72538 0.48744 0.0
C1774 C 0.97904 0.48949 0.43179 0.0
C1775 C 0.96716 0.48743 0.41521 0.0
H1776 H 0.9844 0.50501 0.45839 0.0
C1777 C 0.95044 0.4993 0.41363 0.0
H1778 H 0.99192 0.48047 0.43354 0.0
C1779 C 0.94628 0.51358 0.42757 0.0
C1780 C 0.95864 0.51644 0.44371 0.0
H1781 H 0.9411 0.49844 0.40089 0.0
H1782 H 0.93406 0.52322 0.42483 0.0
C1783 C 0.9747 0.50365 0.44599 0.0
C1784 C 0.7002 0.66466 0.93422 0.0
C1785 C 0.71668 0.66558 0.94643 0.0
H1786 H 0.68464 0.67673 0.91023 0.0
C1787 C 0.72901 0.68189 0.945 0.0
H1788 H 0.69056 0.65214 0.93464 0.0
C1789 C 0.7253 0.69653 0.9311 0.0
C1790 C 0.70948 0.69492 0.91793 0.0
H1791 H 0.74174 0.68309 0.95429 0.0
H1792 H 0.7353 0.70872 0.93025 0.0
C1793 C 0.6967 0.679 0.92017 0.0
C1794 C 0.75173 0.47707 0.19466 0.0
C1795 C 0.76819 0.46493 0.19626 0.0
H1796 H 0.72504 0.48316 0.17952 0.0
C1797 C 0.7695 0.44854 0.18391 0.0
H1798 H 0.75017 0.48971 0.20404 0.0
C1799 C 0.75537 0.44493 0.1697 0.0
C1800 C 0.7393 0.45752 0.16735 0.0
H1801 H 0.78215 0.43905 0.18437 0.0
H1802 H 0.75787 0.43293 0.15973 0.0
C1803 C 0.73734 0.47329 0.18053 0.0
C1804 C 0.91632 0.73251 0.68257 0.0
C1805 C 0.91654 0.71523 0.69364 0.0
H1806 H 0.92921 0.74902 0.65964 0.0
C1807 C 0.9325 0.70253 0.69178 0.0
H1808 H 0.90406 0.74248 0.6835 0.0
C1809 C 0.94748 0.7066 0.6784 0.0
C1810 C 0.94647 0.72312 0.66605 0.0
H1811 H 0.9331 0.68918 0.70025 0.0
H1812 H 0.95939 0.69628 0.67718 0.0
C1813 C 0.93097 0.73634 0.6689 0.0
C1814 C 0.70461 0.49024 0.75029 0.0
C1815 C 0.71513 0.48867 0.76778 0.0
H1816 H 0.70161 0.50468 0.72281 0.0
C1817 C 0.73149 0.50063 0.77057 0.0
H1818 H 0.69197 0.48109 0.74778 0.0
C1819 C 0.7366 0.51471 0.75679 0.0
C1820 C 0.72579 0.51704 0.73941 0.0
H1821 H 0.73975 0.49988 0.78404 0.0
H1822 H 0.74839 0.52447 0.76059 0.0
C1823 C 0.71012 0.50398 0.73608 0.0
C1824 C 0.04197 0.48249 0.31054 0.0
C1825 C 0.03664 0.46314 0.31497 0.0
H1826 H 0.05907 0.50148 0.29249 0.0
C1827 C 0.0468 0.44781 0.30585 0.0
H1828 H 0.03447 0.49464 0.31736 0.0
C1829 C 0.06076 0.45174 0.29142 0.0
C1830 C 0.06508 0.47109 0.286 0.0
H1831 H 0.04304 0.43274 0.30886 0.0
H1832 H 0.06746 0.43958 0.28381 0.0
C1833 C 0.05614 0.48642 0.29631 0.0
C1834 C 0.9891 0.7931 0.55324 0.0
C1835 C 0.97381 0.7839 0.56338 0.0
H1836 H 0.99709 0.81366 0.53101 0.0
C1837 C 0.95461 0.79063 0.5605 0.0
H1838 H 0.00403 0.7882 0.55504 0.0
C1839 C 0.95065 0.80541 0.54692 0.0
C1840 C 0.96577 0.81354 0.53566 0.0
H1841 H 0.9425 0.78387 0.56812 0.0
H1842 H 0.9356 0.80954 0.54437 0.0
C1843 C 0.9851 0.80764 0.5394 0.0
C1844 C 0.6451 0.70042 0.80919 0.0
C1845 C 0.65086 0.71963 0.81359 0.0
H1846 H 0.62677 0.68187 0.79189 0.0
C1847 C 0.64095 0.73519 0.80451 0.0
H1848 H 0.65244 0.68811 0.8159 0.0
C1849 C 0.62648 0.73161 0.7905 0.0
C1850 C 0.62126 0.7124 0.78552 0.0
H1851 H 0.6451 0.75016 0.80743 0.0
H1852 H 0.61981 0.74391 0.78309 0.0
C1853 C 0.63032 0.69685 0.79548 0.0
C1854 C 0.69525 0.38903 0.05353 0.0
C1855 C 0.71071 0.39787 0.06371 0.0
H1856 H 0.68688 0.36928 0.03074 0.0
C1857 C 0.72986 0.39126 0.06024 0.0
H1858 H 0.68035 0.39386 0.05576 0.0
C1859 C 0.73359 0.37699 0.04607 0.0
C1860 C 0.71828 0.36927 0.0348 0.0
H1861 H 0.74209 0.39777 0.06787 0.0
H1862 H 0.7486 0.37297 0.04311 0.0
C1863 C 0.69901 0.375 0.03911 0.0
C1864 C 0.03841 0.74236 0.37689 0.0
C1865 C 0.03035 0.72688 0.36611 0.0
H1866 H 0.05783 0.75083 0.39995 0.0
C1867 C 0.03793 0.70797 0.3688 0.0
H1868 H 0.03278 0.75706 0.3753 0.0
C1869 C 0.05247 0.70444 0.38273 0.0
C1870 C 0.05947 0.71967 0.39457 0.0
H1871 H 0.032 0.69574 0.36072 0.0
H1872 H 0.05731 0.68956 0.38504 0.0
C1873 C 0.05269 0.73876 0.39111 0.0
C1874 C 0.69762 0.8087 0.64514 0.0
C1875 C 0.71694 0.81403 0.64961 0.0
H1876 H 0.67873 0.79023 0.62833 0.0
C1877 C 0.73221 0.8056 0.63872 0.0
H1878 H 0.68551 0.81491 0.65323 0.0
C1879 C 0.72834 0.79123 0.62467 0.0
C1880 C 0.70908 0.78521 0.62085 0.0
H1881 H 0.74727 0.80925 0.64182 0.0
H1882 H 0.74051 0.78431 0.61729 0.0
C1883 C 0.69372 0.7946 0.63079 0.0
C1884 C 0.63953 0.44769 0.87864 0.0
C1885 C 0.64888 0.4639 0.87018 0.0
H1886 H 0.61955 0.43742 0.90051 0.0
C1887 C 0.64334 0.48273 0.87619 0.0
H1888 H 0.64362 0.43297 0.8745 0.0
C1889 C 0.62925 0.48527 0.89083 0.0
C1890 C 0.62076 0.46903 0.90011 0.0
H1891 H 0.65034 0.49549 0.87001 0.0
H1892 H 0.62582 0.49995 0.89561 0.0
C1893 C 0.6258 0.45022 0.89361 0.0
C1894 C 0.95215 0.3942 0.12363 0.0
C1895 C 0.97141 0.39968 0.11898 0.0
H1896 H 0.93352 0.37664 0.14162 0.0
C1897 C 0.98693 0.38928 0.12749 0.0
H1898 H 0.93985 0.40184 0.11724 0.0
C1899 C 0.98328 0.37493 0.14159 0.0
C1900 C 0.96404 0.37049 0.14732 0.0
H1901 H 0.00193 0.39311 0.12427 0.0
H1902 H 0.9956 0.36803 0.14875 0.0
C1903 C 0.9485 0.37968 0.13756 0.0
C1904 C 0.31467 0.04716 0.44399 0.0
C1905 C 0.3144 0.03373 0.45954 0.0
H1906 H 0.30043 0.07108 0.42969 0.0
C1907 C 0.29994 0.03584 0.474 0.0
H1908 H 0.32558 0.04605 0.43259 0.0
C1909 C 0.28544 0.05022 0.47232 0.0
C1910 C 0.28504 0.06291 0.45614 0.0
H1911 H 0.29925 0.02583 0.48623 0.0
H1912 H 0.27409 0.05083 0.48332 0.0
C1913 C 0.30019 0.06156 0.44232 0.0
C1914 C 0.37967 0.04186 0.7402 0.0
C1915 C 0.36914 0.03428 0.72429 0.0
H1916 H 0.40234 0.06127 0.74968 0.0
C1917 C 0.37188 0.04265 0.70575 0.0
H1918 H 0.37801 0.03561 0.75464 0.0
C1919 C 0.38557 0.05756 0.70296 0.0
C1920 C 0.39714 0.06415 0.71859 0.0
H1921 H 0.36398 0.03711 0.69321 0.0
H1922 H 0.38792 0.06305 0.68832 0.0
C1923 C 0.39367 0.0565 0.73734 0.0
C1924 C 0.38141 0.13286 0.95102 0.0
C1925 C 0.37317 0.1436 0.96648 0.0
H1926 H 0.40288 0.11175 0.94228 0.0
C1927 C 0.37904 0.1393 0.98568 0.0
H1928 H 0.37733 0.1359 0.93605 0.0
C1929 C 0.39341 0.12515 0.98926 0.0
C1930 C 0.40255 0.11532 0.9737 0.0
H1931 H 0.37299 0.14732 0.9979 0.0
H1932 H 0.39817 0.12277 0.00416 0.0
C1933 C 0.3961 0.11904 0.95457 0.0
C1934 C 0.29079 0.12433 0.22909 0.0
C1935 C 0.2837 0.121 0.21013 0.0
H1936 H 0.30998 0.14094 0.24737 0.0
C1937 C 0.292 0.13152 0.19454 0.0
H1938 H 0.28467 0.11652 0.24142 0.0
C1939 C 0.30624 0.14584 0.19798 0.0
C1940 C 0.31286 0.14964 0.21704 0.0
H1941 H 0.28675 0.12947 0.17977 0.0
H1942 H 0.31167 0.15433 0.18578 0.0
C1943 C 0.30536 0.13831 0.23248 0.0
C1944 C 0.47907 0.29601 0.05569 0.0
C1945 C 0.46418 0.28408 0.06329 0.0
H1946 H 0.48693 0.31803 0.03488 0.0
C1947 C 0.44485 0.28738 0.05713 0.0
H1948 H 0.49412 0.29388 0.06004 0.0
C1949 C 0.44069 0.30149 0.04288 0.0
C1950 C 0.45581 0.31236 0.03424 0.0
H1951 H 0.43303 0.27848 0.06272 0.0
H1952 H 0.4258 0.30296 0.03774 0.0
C1953 C 0.47496 0.30986 0.04122 0.0
C1954 C 0.14541 0.97839 0.37072 0.0
C1955 C 0.15171 0.95924 0.36682 0.0
H1956 H 0.12704 0.99694 0.388 0.0
C1957 C 0.14259 0.94366 0.37659 0.0
H1958 H 0.15218 0.99069 0.36345 0.0
C1959 C 0.12844 0.94726 0.39094 0.0
C1960 C 0.12282 0.96648 0.39552 0.0
H1961 H 0.14724 0.92875 0.37406 0.0
H1962 H 0.12244 0.93502 0.39896 0.0
C1963 C 0.13096 0.98196 0.38476 0.0
C1964 C 0.23064 0.8944 0.55963 0.0
C1965 C 0.21132 0.90004 0.56376 0.0
H1966 H 0.24962 0.87648 0.54232 0.0
C1967 C 0.19598 0.89021 0.55432 0.0
H1968 H 0.24278 0.9017 0.56664 0.0
C1969 C 0.1999 0.876 0.5401 0.0
C1970 C 0.21925 0.871 0.53532 0.0
H1971 H 0.18094 0.89431 0.55704 0.0
H1972 H 0.18779 0.86943 0.53235 0.0
C1973 C 0.23455 0.87988 0.54573 0.0
C1974 C 0.55329 0.98608 0.79525 0.0
C1975 C 0.56193 0.97058 0.78485 0.0
H1976 H 0.53147 0.99481 0.81601 0.0
C1977 C 0.55626 0.95137 0.78935 0.0
H1978 H 0.55719 1.00106 0.79203 0.0
C1979 C 0.54177 0.94779 0.80335 0.0
C1980 C 0.53228 0.96335 0.81287 0.0
H1981 H 0.56259 0.93912 0.78159 0.0
H1982 H 0.53727 0.93285 0.80589 0.0
C1983 C 0.53848 0.98251 0.80894 0.0
C1984 C 0.14322 0.20081 0.30773 0.0
C1985 C 0.14931 0.21964 0.31314 0.0
H1986 H 0.12491 0.18353 0.28915 0.0
C1987 C 0.14023 0.23585 0.30434 0.0
H1988 H 0.14999 0.18804 0.31417 0.0
C1989 C 0.12617 0.23328 0.28968 0.0
C1990 C 0.12051 0.21445 0.28384 0.0
H1991 H 0.14473 0.25056 0.30801 0.0
H1992 H 0.12012 0.24604 0.28254 0.0
C1993 C 0.12879 0.19825 0.29343 0.0
C1994 C 0.5483 0.18671 0.87422 0.0
C1995 C 0.53526 0.20223 0.87074 0.0
H1996 H 0.57142 0.17537 0.89206 0.0
C1997 C 0.53741 0.21949 0.88164 0.0
H1998 H 0.54707 0.17318 0.86613 0.0
C1999 C 0.55144 0.22078 0.89642 0.0
C2000 C 0.56361 0.20479 0.90083 0.0
H2001 H 0.52772 0.23178 0.8793 0.0
H2002 H 0.55208 0.23404 0.90501 0.0
C2003 C 0.56228 0.18795 0.88914 0.0
C2004 C 0.20508 0.30854 0.14149 0.0
C2005 C 0.22394 0.3115 0.14904 0.0
H2006 H 0.18696 0.29228 0.12187 0.0
C2007 C 0.23952 0.30068 0.1411 0.0
H2008 H 0.19277 0.31659 0.14733 0.0
C2009 C 0.23615 0.28643 0.12678 0.0
C2010 C 0.21717 0.28299 0.11972 0.0
H2011 H 0.2542 0.30244 0.14672 0.0
H2012 H 0.2483 0.27769 0.12165 0.0
C2013 C 0.20178 0.29463 0.12684 0.0
C2014 C 0.45262 0.87759 0.63778 0.0
C2015 C 0.46794 0.86996 0.64916 0.0
H2016 H 0.44387 0.89867 0.61635 0.0
C2017 C 0.48707 0.87648 0.64549 0.0
H2018 H 0.4377 0.87299 0.64025 0.0
C2019 C 0.49065 0.89104 0.63154 0.0
C2020 C 0.47513 0.89966 0.6212 0.0
H2021 H 0.49921 0.87091 0.65398 0.0
H2022 H 0.50543 0.89638 0.62975 0.0
C2023 C 0.45615 0.89238 0.6241 0.0
C2024 C 0.80201 0.54408 0.9431 0.0
C2025 C 0.8128 0.53579 0.95849 0.0
H2026 H 0.77859 0.56321 0.93483 0.0
C2027 C 0.80962 0.54276 0.97755 0.0
H2028 H 0.80398 0.53896 0.92826 0.0
C2029 C 0.79524 0.55683 0.98129 0.0
C2030 C 0.78342 0.56404 0.96611 0.0
H2031 H 0.8177 0.5367 0.98974 0.0
H2032 H 0.79261 0.56115 0.99628 0.0
C2033 C 0.78737 0.55792 0.94688 0.0
C2034 C 0.89112 0.55823 0.23364 0.0
C2035 C 0.89654 0.56283 0.21435 0.0
H2036 H 0.87386 0.54009 0.2524 0.0
C2037 C 0.88635 0.554 0.1989 0.0
H2038 H 0.89861 0.56486 0.24589 0.0
C2039 C 0.87227 0.53966 0.20264 0.0
C2040 C 0.86788 0.53403 0.22192 0.0
H2041 H 0.89015 0.55717 0.18388 0.0
H2042 H 0.86554 0.53227 0.19039 0.0
C2043 C 0.87685 0.54408 0.23739 0.0
C2044 C 0.88805 0.62911 0.48526 0.0
C2045 C 0.89784 0.62033 0.46949 0.0
H2046 H 0.86737 0.65074 0.49445 0.0
C2047 C 0.89195 0.62508 0.45038 0.0
H2048 H 0.89224 0.62584 0.50016 0.0
C2049 C 0.87753 0.63923 0.4471 0.0
C2050 C 0.86888 0.64914 0.46286 0.0
H2051 H 0.89913 0.61852 0.4379 0.0
H2052 H 0.87411 0.64326 0.43219 0.0
C2053 C 0.87383 0.64345 0.48198 0.0
C2054 C 0.80725 0.64541 0.69915 0.0
C2055 C 0.81298 0.65113 0.71801 0.0
H2056 H 0.78851 0.62735 0.68181 0.0
C2057 C 0.80473 0.64149 0.73417 0.0
H2058 H 0.81329 0.6526 0.68641 0.0
C2059 C 0.79023 0.62729 0.73156 0.0
C2060 C 0.78399 0.62209 0.71271 0.0
H2061 H 0.80868 0.64567 0.7489 0.0
H2062 H 0.78348 0.62082 0.74432 0.0
C2063 C 0.79309 0.63089 0.69653 0.0
C2064 C 0.05784 0.35965 0.22929 0.0
C2065 C 0.05195 0.35657 0.20998 0.0
H2066 H 0.07472 0.37704 0.24871 0.0
C2067 C 0.06161 0.36642 0.19478 0.0
H2068 H 0.0506 0.35211 0.24116 0.0
C2069 C 0.07533 0.38082 0.19903 0.0
C2070 C 0.07971 0.38537 0.21849 0.0
H2071 H 0.05724 0.36436 0.17974 0.0
H2072 H 0.08145 0.3894 0.18724 0.0
C2073 C 0.07172 0.37386 0.23353 0.0
C2074 C 0.0771 0.81645 0.46257 0.0
C2075 C 0.07306 0.80076 0.45 0.0
H2076 H 0.06629 0.84223 0.4761 0.0
C2077 C 0.05695 0.80228 0.43739 0.0
H2078 H 0.08981 0.81641 0.4719 0.0
C2079 C 0.04303 0.81687 0.44024 0.0
C2080 C 0.04513 0.83027 0.45569 0.0
H2081 H 0.05408 0.79119 0.42652 0.0
H2082 H 0.0299 0.81624 0.43155 0.0
C2083 C 0.06336 0.83127 0.46514 0.0
C2084 C 0.63506 0.81366 0.74061 0.0
C2085 C 0.63523 0.82527 0.72366 0.0
H2086 H 0.62223 0.78924 0.7553 0.0
C2087 C 0.61945 0.82382 0.71059 0.0
H2088 H 0.64648 0.81496 0.75144 0.0
C2089 C 0.60548 0.80924 0.71294 0.0
C2090 C 0.60702 0.79582 0.72838 0.0
H2091 H 0.61874 0.83264 0.69753 0.0
H2092 H 0.59464 0.80742 0.7016 0.0
C2093 C 0.62115 0.79897 0.74288 0.0
C2094 C 0.62583 0.38227 0.93842 0.0
C2095 C 0.60935 0.3827 0.95064 0.0
H2096 H 0.65339 0.3694 0.93261 0.0
C2097 C 0.6054 0.36624 0.96226 0.0
H2098 H 0.6287 0.39401 0.92826 0.0
C2099 C 0.61945 0.35163 0.96441 0.0
C2100 C 0.63785 0.35355 0.95542 0.0
H2101 H 0.59242 0.36542 0.97121 0.0
H2102 H 0.61661 0.33999 0.97471 0.0
C2103 C 0.64002 0.36788 0.94084 0.0
C2104 C 0.24473 0.05416 0.38368 0.0
C2105 C 0.2332 0.07108 0.38401 0.0
H2106 H 0.24995 0.02665 0.37061 0.0
C2107 C 0.22141 0.07538 0.36779 0.0
H2108 H 0.25463 0.05093 0.39557 0.0
C2109 C 0.2189 0.0615 0.35306 0.0
C2110 C 0.22783 0.04303 0.35457 0.0
H2111 H 0.21273 0.08858 0.36733 0.0
H2112 H 0.20857 0.06459 0.34152 0.0
C2113 C 0.24211 0.04025 0.36912 0.0
C2114 C 0.3735 0.94853 0.61326 0.0
C2115 C 0.38506 0.96326 0.60482 0.0
H2116 H 0.3517 0.94168 0.63461 0.0
C2117 C 0.38038 0.98287 0.6084 0.0
H2118 H 0.3767 0.93326 0.61079 0.0
C2119 C 0.36601 0.98764 0.62201 0.0
C2120 C 0.35625 0.97282 0.63233 0.0
H2121 H 0.38891 0.99445 0.60184 0.0
H2122 H 0.36399 0.00284 0.62582 0.0
C2123 C 0.35925 0.9533 0.62698 0.0
C2124 C 0.49403 0.13047 0.875 0.0
C2125 C 0.47991 0.13289 0.86039 0.0
H2126 H 0.5026 0.11506 0.90055 0.0
C2127 C 0.46521 0.11884 0.85832 0.0
H2128 H 0.50593 0.14077 0.87639 0.0
C2129 C 0.46295 0.1043 0.87241 0.0
C2130 C 0.47535 0.10365 0.88884 0.0
H2131 H 0.45435 0.12017 0.84691 0.0
H2132 H 0.45045 0.0948 0.87109 0.0
C2133 C 0.49195 0.11579 0.88894 0.0
C2134 C 0.3174 0.23329 0.13085 0.0
C2135 C 0.324 0.21548 0.13856 0.0
H2136 H 0.29675 0.24732 0.11192 0.0
C2137 C 0.31706 0.19789 0.13075 0.0
H2138 H 0.32242 0.247 0.13689 0.0
C2139 C 0.30274 0.19809 0.11629 0.0
C2140 C 0.29489 0.2159 0.10984 0.0
H2141 H 0.32195 0.18406 0.13667 0.0
H2142 H 0.29669 0.18437 0.11132 0.0
C2143 C 0.30274 0.23349 0.11672 0.0
C2144 C 0.19691 0.11698 0.29872 0.0
C2145 C 0.21472 0.1068 0.2975 0.0
H2146 H 0.18098 0.13997 0.31272 0.0
C2147 C 0.22831 0.10894 0.31276 0.0
H2148 H 0.18569 0.11506 0.28777 0.0
C2149 C 0.22543 0.12299 0.32719 0.0
C2150 C 0.20894 0.13519 0.32661 0.0
H2151 H 0.24205 0.10116 0.3127 0.0
H2152 H 0.23705 0.12553 0.33757 0.0
C2153 C 0.19412 0.13117 0.31306 0.0
C2154 C 0.30663 0.99411 0.54886 0.0
C2155 C 0.32307 0.98183 0.54845 0.0
H2156 H 0.27897 0.99999 0.5615 0.0
C2157 C 0.32658 0.96969 0.56465 0.0
H2158 H 0.30402 0.00459 0.53732 0.0
C2159 C 0.31231 0.96739 0.57901 0.0
C2160 C 0.29409 0.97678 0.57717 0.0
H2161 H 0.33947 0.9606 0.56546 0.0
H2162 H 0.31493 0.95687 0.59049 0.0
C2163 C 0.29221 0.99156 0.563 0.0
C2164 C 0.47667 0.06355 0.82581 0.0
C2165 C 0.46246 0.04887 0.82793 0.0
H2166 H 0.48661 0.08776 0.80897 0.0
C2167 C 0.44485 0.05064 0.81756 0.0
H2168 H 0.49032 0.06292 0.8337 0.0
C2169 C 0.44276 0.06497 0.80324 0.0
C2170 C 0.4582 0.07782 0.79918 0.0
H2171 H 0.4333 0.04002 0.81942 0.0
H2172 H 0.42972 0.06503 0.79431 0.0
C2173 C 0.47454 0.07792 0.81155 0.0
C2174 C 0.37139 0.18818 0.05197 0.0
C2175 C 0.35744 0.20273 0.04824 0.0
H2176 H 0.39651 0.17988 0.0685 0.0
C2177 C 0.35575 0.21846 0.06128 0.0
H2178 H 0.37257 0.17555 0.04253 0.0
C2179 C 0.36952 0.22106 0.076 0.0
C2180 C 0.38523 0.20795 0.07795 0.0
H2181 H 0.34503 0.22984 0.05899 0.0
H2182 H 0.3688 0.23436 0.08445 0.0
C2183 C 0.3851 0.1907 0.06681 0.0
C2184 C 0.86392 0.48499 0.12481 0.0
C2185 C 0.85572 0.46929 0.13522 0.0
H2186 H 0.88545 0.49391 0.10394 0.0
C2187 C 0.86047 0.45014 0.12983 0.0
H2188 H 0.86067 0.49995 0.12875 0.0
C2189 C 0.87454 0.44676 0.11552 0.0
C2190 C 0.88422 0.46253 0.10661 0.0
H2191 H 0.85426 0.43787 0.13764 0.0
H2192 H 0.87906 0.43187 0.11272 0.0
C2193 C 0.87817 0.48161 0.1107 0.0
C2194 C 0.98302 0.62646 0.36193 0.0
C2195 C 0.96752 0.63726 0.35383 0.0
H2196 H 0.99152 0.60497 0.38302 0.0
C2197 C 0.94826 0.63194 0.35825 0.0
H2198 H 0.99805 0.63028 0.35892 0.0
C2199 C 0.94459 0.61734 0.37196 0.0
C2200 C 0.96017 0.60804 0.38159 0.0
H2201 H 0.93612 0.63996 0.35206 0.0
H2202 H 0.92963 0.61461 0.37625 0.0
C2203 C 0.97935 0.61204 0.3758 0.0
C2204 C 0.80765 0.69228 0.63232 0.0
C2205 C 0.82364 0.70508 0.63322 0.0
H2206 H 0.7801 0.68615 0.6196 0.0
C2207 C 0.82672 0.71798 0.61755 0.0
H2208 H 0.80546 0.68127 0.64344 0.0
C2209 C 0.81228 0.72049 0.60339 0.0
C2210 C 0.79436 0.71055 0.60497 0.0
H2211 H 0.83927 0.72753 0.61713 0.0
H2212 H 0.81448 0.73162 0.5924 0.0
C2213 C 0.79307 0.69503 0.6184 0.0
C2214 C 0.94941 0.5531 0.32526 0.0
C2215 C 0.96891 0.54857 0.32951 0.0
H2216 H 0.92994 0.5694 0.30716 0.0
C2217 C 0.98389 0.55987 0.32114 0.0
H2218 H 0.93767 0.54465 0.33165 0.0
C2219 C 0.97951 0.5739 0.30708 0.0
C2220 C 0.96014 0.57701 0.3014 0.0
H2221 H 0.99909 0.55667 0.32401 0.0
H2222 H 0.99131 0.58129 0.29959 0.0
C2223 C 0.94503 0.56732 0.31137 0.0
C2224 C 0.71334 0.60543 0.81215 0.0
C2225 C 0.72893 0.60683 0.79889 0.0
H2226 H 0.69762 0.61905 0.83515 0.0
C2227 C 0.74351 0.62082 0.80218 0.0
H2228 H 0.70198 0.59464 0.81023 0.0
C2229 C 0.74111 0.63488 0.81671 0.0
C2230 C 0.72388 0.6354 0.82791 0.0
H2231 H 0.75603 0.62176 0.79256 0.0
H2232 H 0.75201 0.64622 0.81805 0.0
C2233 C 0.71082 0.6196 0.82653 0.0
C2234 C 0.54797 0.87053 0.74039 0.0
C2235 C 0.54779 0.85832 0.72388 0.0
H2236 H 0.56059 0.89561 0.75406 0.0
C2237 C 0.5634 0.85962 0.71055 0.0
H2238 H 0.53672 0.86941 0.75143 0.0
C2239 C 0.5771 0.87455 0.71213 0.0
C2240 C 0.57552 0.88848 0.72708 0.0
H2241 H 0.56418 0.85035 0.69781 0.0
H2242 H 0.58776 0.87615 0.70058 0.0
C2243 C 0.56166 0.88554 0.74193 0.0
C2244 C 0.57088 0.30646 0.97849 0.0
C2245 C 0.57337 0.30059 0.95906 0.0
H2246 H 0.55389 0.32296 0.99859 0.0
C2247 C 0.56296 0.3103 0.94426 0.0
H2248 H 0.57894 0.29932 0.99008 0.0
C2249 C 0.54856 0.32389 0.94907 0.0
C2250 C 0.54444 0.328 0.9687 0.0
H2251 H 0.56458 0.3061 0.92912 0.0
H2252 H 0.53963 0.33003 0.93756 0.0
C2253 C 0.55658 0.32011 0.9833 0.0
C2254 C 0.11877 0.32679 0.20794 0.0
C2255 C 0.13562 0.32727 0.21973 0.0
H2256 H 0.09288 0.31135 0.20037 0.0
C2257 C 0.13571 0.31594 0.23691 0.0
H2258 H 0.11729 0.33605 0.19526 0.0
C2259 C 0.12138 0.30181 0.23999 0.0
C2260 C 0.10661 0.29891 0.2261 0.0
H2261 H 0.14758 0.31666 0.24726 0.0
H2262 H 0.1228 0.29211 0.25239 0.0
C2263 C 0.10446 0.31264 0.21101 0.0
C2264 C 0.12015 0.85313 0.46491 0.0
C2265 C 0.13867 0.85451 0.45609 0.0
H2266 H 0.0932 0.86743 0.47085 0.0
C2267 C 0.14123 0.86831 0.44107 0.0
H2268 H 0.1171 0.84195 0.47564 0.0
C2269 C 0.12716 0.88267 0.43785 0.0
C2270 C 0.11046 0.88366 0.44975 0.0
H2271 H 0.15478 0.86944 0.43308 0.0
H2272 H 0.13029 0.894 0.42729 0.0
C2273 C 0.10626 0.86774 0.462 0.0
C2274 C 0.72061 0.5771 0.86913 0.0
C2275 C 0.70786 0.57759 0.88528 0.0
H2276 H 0.73013 0.56142 0.84404 0.0
C2277 C 0.69137 0.56534 0.88503 0.0
H2278 H 0.73311 0.58664 0.86815 0.0
C2279 C 0.68968 0.5507 0.87097 0.0
C2280 C 0.70431 0.54821 0.8568 0.0
H2281 H 0.68058 0.56599 0.89655 0.0
H2282 H 0.67773 0.54043 0.8721 0.0
C2283 C 0.71887 0.56252 0.85506 0.0
C2284 C 0.80979 0.44733 0.0666 0.0
C2285 C 0.79909 0.46205 0.07613 0.0
H2286 H 0.8306 0.44071 0.04418 0.0
C2287 C 0.80399 0.48164 0.07295 0.0
H2288 H 0.80627 0.43208 0.06873 0.0
C2289 C 0.8179 0.48653 0.05895 0.0
C2290 C 0.82699 0.47187 0.04778 0.0
H2291 H 0.796 0.49316 0.08028 0.0
H2292 H 0.82013 0.50183 0.0557 0.0
C2293 C 0.8236 0.45223 0.05245 0.0
C2294 C 0.87999 0.70113 0.57355 0.0
C2295 C 0.88534 0.72046 0.57755 0.0
H2296 H 0.86255 0.68218 0.55607 0.0
C2297 C 0.8744 0.73582 0.56939 0.0
H2298 H 0.88816 0.68911 0.5798 0.0
C2299 C 0.85983 0.7319 0.55575 0.0
C2300 C 0.85585 0.71261 0.55028 0.0
H2301 H 0.87826 0.75089 0.57215 0.0
H2302 H 0.85267 0.74394 0.5484 0.0
C2303 C 0.86525 0.69721 0.5601 0.0
C2304 C 0.04725 0.45809 0.146 0.0
C2305 C 0.02678 0.45883 0.14723 0.0
H2306 H 0.07442 0.45713 0.1613 0.0
C2307 C 0.01805 0.45809 0.16589 0.0
H2308 H 0.05451 0.45825 0.13197 0.0
C2309 C 0.02954 0.4572 0.18282 0.0
C2310 C 0.05 0.45712 0.18147 0.0
H2311 H 0.00236 0.45881 0.16751 0.0
H2312 H 0.02243 0.45722 0.19695 0.0
C2313 C 0.05868 0.4573 0.16287 0.0
C2314 C 0.97057 0.81132 0.41164 0.0
C2315 C 0.97147 0.80217 0.42998 0.0
H2316 H 0.96945 0.80787 0.38067 0.0
C2317 C 0.9721 0.78172 0.43083 0.0
H2318 H 0.97022 0.8271 0.41049 0.0
C2319 C 0.97137 0.77062 0.41369 0.0
C2320 C 0.97017 0.77974 0.39526 0.0
H2321 H 0.97268 0.77426 0.44477 0.0
H2322 H 0.97127 0.75489 0.41502 0.0
C2323 C 0.97001 0.80026 0.3945 0.0
C2324 C 0.64922 0.72321 0.68124 0.0
C2325 C 0.62878 0.72257 0.68025 0.0
H2326 H 0.67613 0.72383 0.66576 0.0
C2327 C 0.61972 0.723 0.66186 0.0
H2328 H 0.65665 0.72275 0.6952 0.0
C2329 C 0.63094 0.72397 0.64478 0.0
C2330 C 0.65149 0.72431 0.6457 0.0
H2331 H 0.60396 0.72263 0.66065 0.0
H2332 H 0.62343 0.72446 0.63091 0.0
C2333 C 0.66043 0.72395 0.66423 0.0
C2334 C 0.70117 0.40113 0.92974 0.0
C2335 C 0.7091 0.38224 0.92921 0.0
H2336 H 0.69335 0.42662 0.91353 0.0
C2337 C 0.71529 0.37453 0.91124 0.0
H2338 H 0.69608 0.40736 0.94336 0.0
C2339 C 0.71395 0.3856 0.89417 0.0
C2340 C 0.70626 0.40463 0.89462 0.0
H2341 H 0.72148 0.35999 0.91035 0.0
H2342 H 0.71938 0.37934 0.88073 0.0
C2343 C 0.69969 0.41218 0.91261 0.0
C2344 C 0.01916 0.72473 0.51762 0.0
C2345 C 0.02825 0.72255 0.53595 0.0
H2346 H 0.02268 0.72712 0.48667 0.0
C2347 C 0.04877 0.72141 0.53661 0.0
H2348 H 0.00345 0.72531 0.51632 0.0
C2349 C 0.05983 0.72221 0.51941 0.0
C2350 C 0.05065 0.72429 0.50119 0.0
H2351 H 0.05634 0.71996 0.55039 0.0
H2352 H 0.07558 0.72115 0.52041 0.0
C2353 C 0.03022 0.72567 0.5005 0.0
C2354 C 0.71019 0.79883 0.78998 0.0
C2355 C 0.70999 0.77834 0.78884 0.0
H2356 H 0.7107 0.82595 0.77451 0.0
C2357 C 0.70968 0.76956 0.77022 0.0
H2358 H 0.71013 0.80617 0.80397 0.0
C2359 C 0.70976 0.78097 0.75325 0.0
C2360 C 0.71032 0.80139 0.75451 0.0
H2361 H 0.70981 0.75386 0.76861 0.0
H2362 H 0.70975 0.77377 0.73916 0.0
C2363 C 0.71043 0.8102 0.77304 0.0
C2364 C 0.66334 0.45635 0.02053 0.0
C2365 C 0.65492 0.45816 0.03922 0.0
H2366 H 0.65872 0.4543 0.98972 0.0
C2367 C 0.63441 0.45872 0.04067 0.0
H2368 H 0.67901 0.45617 0.01861 0.0
C2369 C 0.62272 0.45785 0.02391 0.0
C2370 C 0.63125 0.45628 0.00531 0.0
H2371 H 0.62734 0.45985 0.05475 0.0
H2372 H 0.607 0.45858 0.02552 0.0
C2373 C 0.65167 0.45535 0.00384 0.0
C2374 C 0.97969 0.40443 0.24984 0.0
C2375 C 0.98146 0.38404 0.25095 0.0
H2376 H 0.97678 0.43129 0.26554 0.0
C2377 C 0.98327 0.37525 0.2694 0.0
H2378 H 0.97812 0.4116 0.23582 0.0
C2379 C 0.98266 0.38647 0.28641 0.0
C2380 C 0.98007 0.40682 0.28548 0.0
H2381 H 0.98482 0.35956 0.27075 0.0
H2382 H 0.98403 0.37911 0.30032 0.0
C2383 C 0.97894 0.41571 0.26692 0.0
C2384 C 0.18077 0.03159 0.44802 0.0
C2385 C 0.17957 0.05136 0.45323 0.0
H2386 H 0.16554 0.00493 0.44307 0.0
C2387 C 0.16116 0.05945 0.45728 0.0
H2388 H 0.19475 0.02497 0.4447 0.0
C2389 C 0.14435 0.04791 0.45671 0.0
C2390 C 0.14544 0.02794 0.45191 0.0
H2391 H 0.15974 0.07466 0.4614 0.0
H2392 H 0.13061 0.05467 0.46054 0.0
C2393 C 0.16391 0.02006 0.44724 0.0
C2394 C 0.41529 0.91558 0.70387 0.0
C2395 C 0.40655 0.89704 0.70187 0.0
H2396 H 0.41097 0.94659 0.70597 0.0
C2397 C 0.38624 0.89612 0.699 0.0
H2398 H 0.43083 0.91699 0.70627 0.0
C2399 C 0.3749 0.91309 0.69901 0.0
C2400 C 0.38354 0.93149 0.70173 0.0
H2401 H 0.37899 0.88224 0.69698 0.0
H2402 H 0.35924 0.91173 0.69725 0.0
C2403 C 0.40391 0.93262 0.70374 0.0
C2404 C 0.5415 0.13545 0.96463 0.0
C2405 C 0.53936 0.15584 0.96385 0.0
H2406 H 0.52735 0.10762 0.96497 0.0
C2407 C 0.52039 0.16371 0.96228 0.0
H2408 H 0.55583 0.12885 0.96556 0.0
C2409 C 0.50403 0.1515 0.96173 0.0
C2410 C 0.50624 0.13117 0.96283 0.0
H2411 H 0.51806 0.17932 0.96193 0.0
H2412 H 0.48964 0.15802 0.96084 0.0
C2413 C 0.52515 0.12327 0.96417 0.0
C2414 C 0.27452 0.27284 0.2017 0.0
C2415 C 0.28069 0.29019 0.21084 0.0
H2416 H 0.28037 0.24271 0.1959 0.0
C2417 C 0.29872 0.29015 0.22073 0.0
H2418 H 0.26106 0.27226 0.1935 0.0
C2419 C 0.31003 0.27313 0.22174 0.0
C2420 C 0.30345 0.25574 0.21311 0.0
H2421 H 0.30397 0.3031 0.22806 0.0
H2422 H 0.32374 0.27349 0.22963 0.0
C2423 C 0.28567 0.25581 0.20298 0.0
C2424 C 0.16401 0.16325 0.23098 0.0
C2425 C 0.14568 0.1554 0.22588 0.0
H2426 H 0.19482 0.15826 0.23395 0.0
C2427 C 0.14477 0.13572 0.22009 0.0
H2428 H 0.16537 0.17821 0.23581 0.0
C2429 C 0.16163 0.12427 0.2193 0.0
C2430 C 0.1799 0.1322 0.22413 0.0
H2431 H 0.1311 0.12913 0.21576 0.0
H2432 H 0.16033 0.10922 0.21461 0.0
C2433 C 0.18094 0.15179 0.23002 0.0
C2434 C 0.28426 0.92924 0.48403 0.0
C2435 C 0.30351 0.92865 0.47702 0.0
H2436 H 0.25838 0.91327 0.49066 0.0
C2437 C 0.31146 0.91062 0.47131 0.0
H2438 H 0.27779 0.9429 0.48872 0.0
C2439 C 0.30022 0.8936 0.47208 0.0
C2440 C 0.28078 0.89415 0.47874 0.0
H2441 H 0.32626 0.90971 0.46581 0.0
H2442 H 0.3067 0.88014 0.46696 0.0
C2443 C 0.27308 0.91219 0.48502 0.0
C2444 C 0.52056 0.02451 0.73498 0.0
C2445 C 0.53839 0.03212 0.72814 0.0
H2446 H 0.48986 0.02902 0.73887 0.0
C2447 C 0.53859 0.05114 0.72035 0.0
H2448 H 0.51982 0.01011 0.74143 0.0
C2449 C 0.52138 0.06208 0.71911 0.0
C2450 C 0.50355 0.05423 0.72552 0.0
H2451 H 0.55194 0.05744 0.71476 0.0
H2452 H 0.522 0.07658 0.71282 0.0
C2453 C 0.50334 0.03539 0.73359 0.0
C2454 C 0.40013 0.24931 0.97385 0.0
C2455 C 0.37968 0.24988 0.97266 0.0
H2456 H 0.42675 0.26532 0.97403 0.0
C2457 C 0.37032 0.2681 0.97151 0.0
H2458 H 0.40781 0.2355 0.9746 0.0
C2459 C 0.38121 0.2854 0.97148 0.0
C2460 C 0.40176 0.28489 0.97241 0.0
H2461 H 0.35455 0.269 0.97066 0.0
H2462 H 0.37346 0.29914 0.97077 0.0
C2463 C 0.41103 0.26655 0.97363 0.0
C2464 C 0.45938 0.17902 0.03212 0.0
C2465 C 0.46016 0.17839 0.05257 0.0
H2466 H 0.45964 0.16285 0.00551 0.0
C2467 C 0.46074 0.16015 0.06195 0.0
H2468 H 0.45901 0.19288 0.0245 0.0
C2469 C 0.46079 0.14287 0.05112 0.0
C2470 C 0.46047 0.14337 0.03061 0.0
H2471 H 0.46116 0.15918 0.07773 0.0
H2472 H 0.46112 0.12912 0.0589 0.0
C2473 C 0.45963 0.16171 0.02125 0.0
C2474 C 0.95544 0.50164 0.1547 0.0
C2475 C 0.95506 0.50336 0.13428 0.0
H2476 H 0.957 0.51648 0.18213 0.0
C2477 C 0.95468 0.5221 0.12592 0.0
H2478 H 0.9559 0.4874 0.16156 0.0
C2479 C 0.95518 0.53877 0.13765 0.0
C2480 C 0.9562 0.53718 0.15808 0.0
H2481 H 0.95427 0.52393 0.11021 0.0
H2482 H 0.95489 0.55293 0.13065 0.0
C2483 C 0.95604 0.51837 0.16648 0.0
C2484 C 0.90895 0.70671 0.37446 0.0
C2485 C 0.92777 0.70765 0.38258 0.0
H2486 H 0.87819 0.70636 0.37955 0.0
C2487 C 0.92971 0.70837 0.40297 0.0
H2488 H 0.90695 0.70602 0.35879 0.0
C2489 C 0.9131 0.70881 0.41495 0.0
C2490 C 0.8942 0.70847 0.40678 0.0
H2491 H 0.94402 0.70925 0.40965 0.0
H2492 H 0.91513 0.71006 0.43056 0.0
C2493 C 0.89241 0.70706 0.38639 0.0
C2494 C 0.72517 0.66261 0.6245 0.0
C2495 C 0.7231 0.68099 0.63336 0.0
H2496 H 0.7278 0.63182 0.62841 0.0
C2497 C 0.72237 0.68214 0.6538 0.0
H2498 H 0.72598 0.66128 0.60876 0.0
C2499 C 0.72311 0.66514 0.66514 0.0
C2500 C 0.72479 0.64662 0.65628 0.0
H2501 H 0.72069 0.69612 0.66101 0.0
H2502 H 0.72183 0.66657 0.6808 0.0
C2503 C 0.72611 0.64567 0.6358 0.0
C2504 C 0.27081 0.97316 0.41331 0.0
C2505 C 0.28954 0.97481 0.40487 0.0
H2506 H 0.23997 0.97069 0.40853 0.0
C2507 C 0.29096 0.97589 0.3844 0.0
H2508 H 0.26892 0.97207 0.42893 0.0
C2509 C 0.27428 0.97474 0.37272 0.0
C2510 C 0.25572 0.97277 0.38121 0.0
H2511 H 0.30493 0.97752 0.37725 0.0
H2512 H 0.27594 0.97538 0.35701 0.0
C2513 C 0.25411 0.97227 0.4016 0.0
C2514 C 0.22349 0.02044 0.51852 0.0
C2515 C 0.22189 0.03908 0.52711 0.0
H2516 H 0.22421 0.98945 0.52299 0.0
C2517 C 0.22045 0.04038 0.54754 0.0
H2518 H 0.22435 0.01877 0.50285 0.0
C2519 C 0.22018 0.02353 0.55904 0.0
C2520 C 0.22142 0.00495 0.5504 0.0
H2521 H 0.21949 0.05443 0.55469 0.0
H2522 H 0.21887 0.02509 0.57472 0.0
C2523 C 0.22329 0.00357 0.53005 0.0
C2524 C 0.91378 0.47821 0.30907 0.0
C2525 C 0.9323 0.47735 0.30026 0.0
H2526 H 0.88286 0.47832 0.30515 0.0
C2527 C 0.9335 0.47653 0.27982 0.0
H2528 H 0.91234 0.47901 0.3248 0.0
C2529 C 0.91646 0.47585 0.26847 0.0
C2530 C 0.89786 0.47609 0.27734 0.0
H2531 H 0.94758 0.47572 0.27263 0.0
H2532 H 0.91794 0.47448 0.2528 0.0
C2533 C 0.89682 0.47767 0.29778 0.0
C2534 C 0.79015 0.71505 0.79678 0.0
C2535 C 0.78931 0.70838 0.77738 0.0
H2536 H 0.77459 0.72089 0.8232 0.0
C2537 C 0.77119 0.70196 0.77 0.0
H2538 H 0.80366 0.72035 0.80297 0.0
C2539 C 0.75437 0.70257 0.7816 0.0
C2540 C 0.75531 0.7094 0.80088 0.0
H2541 H 0.76993 0.69639 0.75529 0.0
H2542 H 0.74065 0.69764 0.77548 0.0
C2543 C 0.77339 0.71548 0.80839 0.0
C2544 C 0.53441 0.95433 0.67959 0.0
C2545 C 0.55296 0.96298 0.67935 0.0
H2546 H 0.50892 0.94677 0.66351 0.0
C2547 C 0.56 0.97092 0.66181 0.0
H2548 H 0.52867 0.94791 0.69286 0.0
C2549 C 0.5485 0.97065 0.64494 0.0
C2550 C 0.52974 0.96222 0.64514 0.0
H2551 H 0.57426 0.97774 0.66121 0.0
H2552 H 0.55425 0.97742 0.63189 0.0
C2553 C 0.52301 0.95381 0.66268 0.0
C2554 C 0.47578 0.29627 0.89515 0.0
C2555 C 0.47532 0.27578 0.89631 0.0
H2556 H 0.4753 0.32343 0.91054 0.0
C2557 C 0.47507 0.26702 0.91495 0.0
H2558 H 0.47636 0.30356 0.88115 0.0
C2559 C 0.47467 0.27849 0.93192 0.0
C2560 C 0.47444 0.29894 0.93061 0.0
H2561 H 0.47452 0.25132 0.91651 0.0
H2562 H 0.47392 0.27133 0.946 0.0
C2563 C 0.47529 0.30768 0.91206 0.0
C2564 C 0.12164 0.22146 0.15991 0.0
C2565 C 0.12956 0.22716 0.17795 0.0
H2566 H 0.12635 0.21769 0.12929 0.0
C2567 C 0.14857 0.23478 0.17844 0.0
H2568 H 0.107 0.21554 0.15906 0.0
C2569 C 0.15959 0.23629 0.16132 0.0
C2570 C 0.15195 0.23003 0.14329 0.0
H2571 H 0.15501 0.23951 0.19209 0.0
H2572 H 0.17416 0.2423 0.16229 0.0
C2573 C 0.13271 0.22283 0.14279 0.0
C2574 C 0.21874 0.87213 0.41168 0.0
C2575 C 0.2114 0.88006 0.42911 0.0
H2576 H 0.22454 0.8764 0.38137 0.0
C2577 C 0.20304 0.89876 0.42874 0.0
H2578 H 0.22529 0.85772 0.41149 0.0
C2579 C 0.20226 0.90941 0.41131 0.0
C2580 C 0.2101 0.90173 0.39386 0.0
H2581 H 0.19702 0.90515 0.4419 0.0
H2582 H 0.1955 0.92367 0.41164 0.0
C2583 C 0.21819 0.88284 0.39431 0.0
C2584 C 0.52875 0.22915 0.002 0.0
C2585 C 0.54912 0.23111 0.00303 0.0
H2586 H 0.50192 0.2265 0.01774 0.0
C2587 C 0.5579 0.23342 0.02144 0.0
H2588 H 0.52157 0.2272 0.98804 0.0
C2589 C 0.54666 0.23314 0.03849 0.0
C2590 C 0.52634 0.23046 0.03761 0.0
H2591 H 0.57357 0.23507 0.02274 0.0
H2592 H 0.55398 0.23484 0.05238 0.0
C2593 C 0.51748 0.22879 0.01909 0.0
C2594 C 0.20419 0.30903 0.27082 0.0
C2595 C 0.20741 0.30022 0.2526 0.0
H2596 H 0.20071 0.30513 0.3015 0.0
C2597 C 0.20936 0.27986 0.25159 0.0
H2598 H 0.20241 0.3247 0.27202 0.0
C2599 C 0.20874 0.26857 0.26862 0.0
C2600 C 0.20592 0.27738 0.28702 0.0
H2601 H 0.21194 0.27271 0.23772 0.0
H2602 H 0.211 0.25301 0.26728 0.0
C2603 C 0.20332 0.29775 0.28779 0.0
C2604 C 0.12135 0.95819 0.52013 0.0
C2605 C 0.13079 0.95773 0.50193 0.0
H2606 H 0.12438 0.95836 0.5512 0.0
C2607 C 0.15126 0.95695 0.5014 0.0
H2608 H 0.10556 0.95869 0.521 0.0
C2609 C 0.16209 0.95704 0.51868 0.0
C2610 C 0.15274 0.95773 0.53702 0.0
H2611 H 0.15898 0.9567 0.48759 0.0
H2612 H 0.17782 0.95705 0.51748 0.0
C2613 C 0.13218 0.95809 0.53747 0.0
C2614 C 0.4643 0.88664 0.78862 0.0
C2615 C 0.47332 0.90508 0.789 0.0
H2616 H 0.45683 0.86147 0.77177 0.0
C2617 C 0.48222 0.91198 0.77173 0.0
H2618 H 0.45709 0.88082 0.80139 0.0
C2619 C 0.48171 0.90094 0.75453 0.0
C2620 C 0.47258 0.88264 0.75428 0.0
H2621 H 0.48967 0.92588 0.77138 0.0
H2622 H 0.48864 0.90666 0.74151 0.0
C2623 C 0.46403 0.87555 0.77152 0.0
C2624 C 0.66047 0.55693 0.96729 0.0
C2625 C 0.67814 0.54978 0.95968 0.0
H2626 H 0.63046 0.5514 0.97342 0.0
C2627 C 0.67852 0.53107 0.95138 0.0
H2628 H 0.65971 0.5713 0.97385 0.0
C2629 C 0.66155 0.51969 0.95081 0.0
C2630 C 0.64386 0.52667 0.95878 0.0
H2631 H 0.69189 0.52527 0.94522 0.0
H2632 H 0.66239 0.50545 0.94406 0.0
C2633 C 0.64359 0.54551 0.96693 0.0
C2634 C 0.90496 0.43237 0.20652 0.0
C2635 C 0.88455 0.43056 0.20608 0.0
H2636 H 0.93249 0.41763 0.2081 0.0
C2637 C 0.87631 0.41178 0.20552 0.0
H2638 H 0.91172 0.44665 0.20711 0.0
C2639 C 0.88814 0.39516 0.20595 0.0
C2640 C 0.90856 0.39684 0.20709 0.0
H2641 H 0.86062 0.40987 0.20503 0.0
H2642 H 0.88121 0.38099 0.20553 0.0
C2643 C 0.91685 0.41569 0.20707 0.0
C2644 C 0.02015 0.62534 0.45612 0.0
C2645 C 0.00178 0.63332 0.45166 0.0
H2646 H 0.05068 0.63014 0.45946 0.0
C2647 C 1.00065 0.65294 0.44587 0.0
H2648 H 0.02154 0.61026 0.46068 0.0
C2649 C 0.01757 0.66442 0.44488 0.0
C2650 C 0.03599 0.65658 0.44988 0.0
H2651 H 0.98671 0.65947 0.44222 0.0
H2652 H 0.01609 0.67944 0.44027 0.0
C2653 C 0.03699 0.6368 0.45531 0.0
C2654 C 0.79926 0.79193 0.7071 0.0
C2655 C 0.77875 0.79067 0.70652 0.0
H2656 H 0.82653 0.77651 0.70786 0.0
C2657 C 0.77016 0.77199 0.70556 0.0
H2658 H 0.80648 0.80595 0.70756 0.0
C2659 C 0.78169 0.75515 0.70546 0.0
C2660 C 0.80211 0.75646 0.70648 0.0
H2661 H 0.75449 0.7702 0.70539 0.0
H2662 H 0.77454 0.74105 0.70503 0.0
C2663 C 0.8108 0.77502 0.70716 0.0
C2664 C 0.67981 0.65061 0.72789 0.0
C2665 C 0.67891 0.63017 0.72717 0.0
H2666 H 0.66421 0.67747 0.72821 0.0
C2667 C 0.66056 0.62106 0.72732 0.0
H2668 H 0.69375 0.65808 0.72767 0.0
C2669 C 0.64342 0.6322 0.72793 0.0
C2670 C 0.64422 0.65276 0.72817 0.0
H2671 H 0.65941 0.60529 0.72688 0.0
H2672 H 0.62959 0.62462 0.72813 0.0
C2673 C 0.66272 0.66177 0.72829 0.0
C2674 C 0.79816 0.3973 0.9812 0.0
C2675 C 0.77779 0.39799 0.97874 0.0
H2676 H 0.825 0.41318 0.98225 0.0
C2677 C 0.76881 0.41642 0.97656 0.0
H2678 H 0.80561 0.38354 0.98333 0.0
C2679 C 0.77999 0.43357 0.97623 0.0
C2680 C 0.8004 0.43265 0.97792 0.0
H2681 H 0.75321 0.41765 0.97445 0.0
H2682 H 0.77274 0.44745 0.97396 0.0
C2683 C 0.8093 0.41437 0.9807 0.0
C2684 C 0.99971 0.52975 0.22897 0.0
C2685 C 1.00077 0.55019 0.23022 0.0
H2686 H 0.01543 0.50286 0.2265 0.0
C2687 C 0.01922 0.55906 0.2314 0.0
H2688 H 0.9857 0.52251 0.2279 0.0
C2689 C 0.03627 0.54785 0.23077 0.0
C2690 C 0.03537 0.52743 0.22877 0.0
H2691 H 0.02054 0.57478 0.23251 0.0
H2692 H 0.05017 0.55527 0.23168 0.0
C2693 C 0.01682 0.5185 0.2282 0.0
C2694 C 0.87262 0.77171 0.47502 0.0
C2695 C 0.88091 0.75349 0.47958 0.0
H2696 H 0.87691 0.80225 0.47129 0.0
C2697 C 0.9006 0.75271 0.48516 0.0
H2698 H 0.85748 0.77285 0.47061 0.0
C2699 C 0.91184 0.7698 0.48584 0.0
C2700 C 0.90369 0.78806 0.48073 0.0
H2701 H 0.90736 0.73889 0.48887 0.0
H2702 H 0.92693 0.76856 0.4903 0.0
C2703 C 0.88384 0.78871 0.47551 0.0
C2704 C 0.95739 0.66533 0.51641 0.0
C2705 C 0.95745 0.64652 0.52479 0.0
H2706 H 0.95739 0.6963 0.52134 0.0
C2707 C 0.9564 0.64493 0.54523 0.0
H2708 H 0.95837 0.66722 0.50076 0.0
C2709 C 0.95596 0.66161 0.55698 0.0
C2710 C 0.95646 0.68036 0.54863 0.0
H2711 H 0.95603 0.63078 0.55223 0.0
H2712 H 0.95553 0.65978 0.57268 0.0
C2713 C 0.95686 0.68206 0.52821 0.0
C2714 C 0.44996 0.0021 0.65303 0.0
C2715 C 0.45478 0.00327 0.63314 0.0
H2716 H 0.44486 0.0176 0.67966 0.0
C2717 C 0.45798 0.02175 0.62483 0.0
H2718 H 0.44733 0.98808 0.65985 0.0
C2719 C 0.45686 0.03865 0.63617 0.0
C2720 C 0.45236 0.03763 0.65619 0.0
H2721 H 0.46179 0.02319 0.60954 0.0
H2722 H 0.46002 0.05245 0.62921 0.0
C2723 C 0.44869 0.01909 0.66442 0.0
C2724 C 0.39462 0.20609 0.88476 0.0
C2725 C 0.3954 0.19984 0.90432 0.0
H2726 H 0.41046 0.21258 0.85864 0.0
C2727 C 0.41369 0.19454 0.91217 0.0
H2728 H 0.38099 0.21049 0.87814 0.0
C2729 C 0.43074 0.19606 0.90097 0.0
C2730 C 0.42987 0.20266 0.8816 0.0
H2731 H 0.41498 0.18927 0.92699 0.0
H2732 H 0.44459 0.19213 0.90753 0.0
C2733 C 0.41162 0.2074 0.87354 0.0
C2734 C 0.21763 0.15864 0.12152 0.0
C2735 C 0.21841 0.17714 0.13035 0.0
H2736 H 0.21831 0.12766 0.12563 0.0
C2737 C 0.22006 0.17836 0.15072 0.0
H2738 H 0.21647 0.15727 0.10581 0.0
C2739 C 0.22089 0.16148 0.16208 0.0
C2740 C 0.22031 0.14287 0.15335 0.0
H2741 H 0.22055 0.19242 0.15796 0.0
H2742 H 0.2217 0.16316 0.17774 0.0
C2743 C 0.21864 0.14168 0.1329 0.0
C2744 C 0.7894 0.47365 0.88336 0.0
C2745 C 0.78815 0.47404 0.90389 0.0
H2746 H 0.774 0.47308 0.85612 0.0
C2747 C 0.76947 0.47468 0.91252 0.0
H2748 H 0.80341 0.47342 0.87608 0.0
C2749 C 0.75262 0.4748 0.901 0.0
C2750 C 0.75395 0.47407 0.88057 0.0
H2751 H 0.76768 0.47468 0.92819 0.0
H2752 H 0.73852 0.47505 0.90817 0.0
C2753 C 0.77251 0.47356 0.87185 0.0
C2754 C 0.73078 0.5368 0.04745 0.0
C2755 C 0.72849 0.5358 0.02707 0.0
H2756 H 0.73199 0.52128 0.07453 0.0
C2757 C 0.72682 0.51722 0.01833 0.0
H2758 H 0.73252 0.5507 0.05472 0.0
C2759 C 0.7268 0.50022 0.02976 0.0
C2760 C 0.72831 0.50142 0.05016 0.0
H2761 H 0.72486 0.51575 0.00274 0.0
H2762 H 0.72493 0.48621 0.02266 0.0
C2763 C 0.73059 0.51987 0.05883 0.0
C2764 C 0.41353 0.97396 0.76816 0.0
C2765 C 0.39471 0.97252 0.7764 0.0
H2766 H 0.44437 0.97567 0.77325 0.0
C2767 C 0.39295 0.97235 0.79685 0.0
H2768 H 0.41558 0.97387 0.7525 0.0
C2769 C 0.40953 0.97321 0.80872 0.0
C2770 C 0.42828 0.97437 0.80045 0.0
H2771 H 0.37877 0.97157 0.80375 0.0
H2772 H 0.40764 0.97282 0.82442 0.0
C2773 C 0.4301 0.97493 0.78005 0.0
C2774 C 0.28983 0.21086 0.30056 0.0
C2775 C 0.28921 0.20387 0.28125 0.0
H2776 H 0.27373 0.218 0.32641 0.0
C2777 C 0.2711 0.1979 0.27357 0.0
H2778 H 0.30339 0.21578 0.30696 0.0
C2779 C 0.25403 0.19943 0.28467 0.0
C2780 C 0.25466 0.2068 0.30378 0.0
H2781 H 0.27004 0.19207 0.25893 0.0
H2782 H 0.24032 0.19491 0.27822 0.0
C2783 C 0.27277 0.21226 0.3117 0.0
loop_
_geom_bond_atom_site_label_1
_geom_bond_atom_site_label_2
_geom_bond_distance
_geom_bond_site_symmetry_2
_ccdc_geom_bond_type
Co0 N4 2.148 . S
Co0 N10 2.128 . S
Co0 N20 2.194 . S
Co0 O25 2.351 . S
Co0 O26 2.155 . S
Co0 O27 2.096 . S
C1 N4 1.301 . S
C1 N5 1.328 . S
C1 H6 0.930 . S
C2 C3 1.333 . S
C2 N4 1.317 . S
C2 H7 0.930 . S
C3 C2 1.333 . S
C3 N5 1.350 . S
C3 H29 0.931 . S
N4 Co0 2.148 . S
N4 C1 1.301 . S
N4 C2 1.317 . S
N5 C1 1.328 . S
N5 C3 1.350 . S
H6 C1 0.930 . S
H7 C2 0.930 . S
C8 O9 1.224 . S
C8 O27 1.247 . S
O9 C8 1.224 . S
N10 Co0 2.128 . S
N10 C11 1.355 . S
N10 C13 1.311 . S
C11 N10 1.355 . S
C11 C12 1.363 . S
C11 H23 0.929 . S
C12 C11 1.363 . S
C12 N14 1.375 . S
C12 H30 0.931 . S
C13 N10 1.311 . S
C13 N14 1.347 . S
C13 H24 0.929 . S
N14 C12 1.375 . S
N14 C13 1.347 . S
C15 C18 1.365 . S
C15 N20 1.328 . S
C15 H21 0.929 . S
C16 C17 1.362 . S
C16 C19 1.378 . S
C16 H31 0.929 . S
C17 C16 1.362 . S
C17 C18 1.366 . S
C18 C15 1.365 . S
C18 C17 1.366 . S
C18 H32 0.930 . S
C19 C16 1.378 . S
C19 N20 1.315 . S
C19 H22 0.930 . S
N20 Co0 2.194 . S
N20 C15 1.328 . S
N20 C19 1.315 . S
H21 C15 0.929 . S
H22 C19 0.930 . S
H23 C11 0.929 . S
H24 C13 0.929 . S
O25 Co0 2.351 . S
O25 C28 1.244 . S
O26 Co0 2.155 . S
O26 C28 1.240 . S
O27 Co0 2.096 . S
O27 C8 1.247 . S
C28 O25 1.244 . S
C28 O26 1.240 . S
H29 C3 0.931 . S
H30 C12 0.931 . S
H31 C16 0.929 . S
H32 C18 0.930 . S
Co33 N37 2.148 . S
Co33 N43 2.128 . S
Co33 N53 2.194 . S
Co33 O58 2.351 . S
Co33 O59 2.155 . S
Co33 O60 2.096 . S
C34 N37 1.301 1_455 S
C34 N38 1.328 . S
C34 H39 0.930 . S
C35 C36 1.333 . S
C35 N37 1.317 1_455 S
C35 H40 0.930 1_455 S
C36 C35 1.333 . S
C36 N38 1.350 . S
C36 H62 0.931 . S
N37 Co33 2.148 . S
N37 C34 1.301 1_655 S
N37 C35 1.317 1_655 S
N38 C34 1.328 . S
N38 C36 1.350 . S
H39 C34 0.930 . S
H40 C35 0.930 1_655 S
C41 O42 1.224 . S
C41 O60 1.247 . S
O42 C41 1.224 . S
N43 Co33 2.128 . S
N43 C44 1.355 . S
N43 C46 1.311 . S
C44 N43 1.355 . S
C44 C45 1.363 . S
C44 H56 0.929 . S
C45 C44 1.363 . S
C45 N47 1.375 . S
C45 H63 0.931 . S
C46 N43 1.311 . S
C46 N47 1.347 . S
C46 H57 0.929 . S
N47 C45 1.375 . S
N47 C46 1.347 . S
C48 C51 1.365 . S
C48 N53 1.328 . S
C48 H54 0.929 . S
C49 C50 1.362 . S
C49 C52 1.378 . S
C49 H64 0.929 . S
C50 C49 1.362 . S
C50 C51 1.366 . S
C51 C48 1.365 . S
C51 C50 1.366 . S
C51 H65 0.930 . S
C52 C49 1.378 . S
C52 N53 1.315 . S
C52 H55 0.930 . S
N53 Co33 2.194 . S
N53 C48 1.328 . S
N53 C52 1.315 . S
H54 C48 0.929 . S
H55 C52 0.930 . S
H56 C44 0.929 . S
H57 C46 0.929 . S
O58 Co33 2.351 . S
O58 C61 1.244 . S
O59 Co33 2.155 . S
O59 C61 1.240 . S
O60 Co33 2.096 . S
O60 C41 1.247 . S
C61 O58 1.244 . S
C61 O59 1.240 . S
H62 C36 0.931 . S
H63 C45 0.931 . S
H64 C49 0.929 . S
H65 C51 0.930 . S
Co66 N70 2.148 . S
Co66 N76 2.128 . S
Co66 N86 2.194 . S
Co66 O91 2.351 . S
Co66 O92 2.155 . S
Co66 O93 2.096 . S
C67 N70 1.301 . S
C67 N71 1.328 . S
C67 H72 0.930 . S
C68 C69 1.333 . S
C68 N70 1.317 . S
C68 H73 0.930 . S
C69 C68 1.333 . S
C69 N71 1.350 . S
C69 H95 0.931 . S
N70 Co66 2.148 . S
N70 C67 1.301 . S
N70 C68 1.317 . S
N71 C67 1.328 . S
N71 C69 1.350 . S
H72 C67 0.930 . S
H73 C68 0.930 . S
C74 O75 1.224 . S
C74 O93 1.247 . S
O75 C74 1.224 . S
N76 Co66 2.128 . S
N76 C77 1.355 . S
N76 C79 1.311 . S
C77 N76 1.355 . S
C77 C78 1.363 . S
C77 H89 0.929 . S
C78 C77 1.363 . S
C78 N80 1.375 . S
C78 H96 0.931 . S
C79 N76 1.311 . S
C79 N80 1.347 . S
C79 H90 0.929 . S
N80 C78 1.375 . S
N80 C79 1.347 . S
C81 C84 1.365 . S
C81 N86 1.328 . S
C81 H87 0.929 . S
C82 C83 1.362 . S
C82 C85 1.378 . S
C82 H97 0.929 . S
C83 C82 1.362 . S
C83 C84 1.366 . S
C84 C81 1.365 . S
C84 C83 1.366 . S
C84 H98 0.930 . S
C85 C82 1.378 . S
C85 N86 1.315 . S
C85 H88 0.930 . S
N86 Co66 2.194 . S
N86 C81 1.328 . S
N86 C85 1.315 . S
H87 C81 0.929 . S
H88 C85 0.930 . S
H89 C77 0.929 . S
H90 C79 0.929 . S
O91 Co66 2.351 . S
O91 C94 1.244 . S
O92 Co66 2.155 . S
O92 C94 1.240 . S
O93 Co66 2.096 . S
O93 C74 1.247 . S
C94 O91 1.244 . S
C94 O92 1.240 . S
H95 C69 0.931 . S
H96 C78 0.931 . S
H97 C82 0.929 . S
H98 C84 0.930 . S
Co99 N103 2.148 . S
Co99 N109 2.128 . S
Co99 N119 2.194 . S
Co99 O124 2.351 . S
Co99 O125 2.155 . S
Co99 O126 2.096 . S
C100 N103 1.301 . S
C100 N104 1.328 . S
C100 H105 0.930 . S
C101 C102 1.333 . S
C101 N103 1.317 . S
C101 H106 0.930 . S
C102 C101 1.333 . S
C102 N104 1.350 . S
C102 H128 0.931 . S
N103 Co99 2.148 . S
N103 C100 1.301 . S
N103 C101 1.317 . S
N104 C100 1.328 . S
N104 C102 1.350 . S
H105 C100 0.930 . S
H106 C101 0.930 . S
C107 O108 1.225 1_556 S
C107 O126 1.243 . S
O108 C107 1.225 1_554 S
N109 Co99 2.128 . S
N109 C110 1.355 . S
N109 C112 1.311 . S
C110 N109 1.355 . S
C110 C111 1.363 . S
C110 H122 0.929 . S
C111 C110 1.363 . S
C111 N113 1.375 . S
C111 H129 0.931 . S
C112 N109 1.311 . S
C112 N113 1.347 . S
C112 H123 0.929 . S
N113 C111 1.375 . S
N113 C112 1.347 . S
C114 C117 1.365 . S
C114 N119 1.328 . S
C114 H120 0.929 . S
C115 C116 1.362 . S
C115 C118 1.378 . S
C115 H130 0.929 . S
C116 C115 1.362 . S
C116 C117 1.366 . S
C117 C114 1.365 . S
C117 C116 1.366 . S
C117 H131 0.930 . S
C118 C115 1.378 . S
C118 N119 1.315 . S
C118 H121 0.930 . S
N119 Co99 2.194 . S
N119 C114 1.328 . S
N119 C118 1.315 . S
H120 C114 0.929 . S
H121 C118 0.930 . S
H122 C110 0.929 . S
H123 C112 0.929 . S
O124 Co99 2.351 . S
O124 C127 1.244 . S
O125 Co99 2.155 . S
O125 C127 1.240 . S
O126 Co99 2.096 . S
O126 C107 1.243 . S
C127 O124 1.244 . S
C127 O125 1.240 . S
H128 C102 0.931 . S
H129 C111 0.931 . S
H130 C115 0.929 . S
H131 C117 0.930 . S
Co132 N136 2.148 . S
Co132 N142 2.128 . S
Co132 N152 2.194 . S
Co132 O157 2.351 . S
Co132 O158 2.155 . S
Co132 O159 2.096 . S
C133 N136 1.301 . S
C133 N137 1.328 . S
C133 H138 0.930 . S
C134 C135 1.333 . S
C134 N136 1.317 . S
C134 H139 0.930 . S
C135 C134 1.333 . S
C135 N137 1.350 . S
C135 H161 0.931 . S
N136 Co132 2.148 . S
N136 C133 1.301 . S
N136 C134 1.317 . S
N137 C133 1.328 . S
N137 C135 1.350 . S
H138 C133 0.930 . S
H139 C134 0.930 . S
C140 O141 1.224 . S
C140 O159 1.247 . S
O141 C140 1.224 . S
N142 Co132 2.128 . S
N142 C143 1.355 . S
N142 C145 1.311 . S
C143 N142 1.355 . S
C143 C144 1.363 . S
C143 H155 0.929 . S
C144 C143 1.363 . S
C144 N146 1.375 . S
C144 H162 0.931 . S
C145 N142 1.311 . S
C145 N146 1.347 . S
C145 H156 0.929 . S
N146 C144 1.375 . S
N146 C145 1.347 . S
C147 C150 1.365 . S
C147 N152 1.328 . S
C147 H153 0.929 . S
C148 C149 1.362 . S
C148 C151 1.378 . S
C148 H163 0.929 . S
C149 C148 1.362 . S
C149 C150 1.366 . S
C150 C147 1.365 . S
C150 C149 1.366 . S
C150 H164 0.930 . S
C151 C148 1.378 . S
C151 N152 1.315 . S
C151 H154 0.930 . S
N152 Co132 2.194 . S
N152 C147 1.328 . S
N152 C151 1.315 . S
H153 C147 0.929 . S
H154 C151 0.930 . S
H155 C143 0.929 . S
H156 C145 0.929 . S
O157 Co132 2.351 . S
O157 C160 1.244 . S
O158 Co132 2.155 . S
O158 C160 1.240 . S
O159 Co132 2.096 . S
O159 C140 1.247 . S
C160 O157 1.244 . S
C160 O158 1.240 . S
H161 C135 0.931 . S
H162 C144 0.931 . S
H163 C148 0.929 . S
H164 C150 0.930 . S
Co165 N169 2.148 . S
Co165 N175 2.128 . S
Co165 N185 2.194 . S
Co165 O190 2.351 . S
Co165 O191 2.155 . S
Co165 O192 2.096 . S
C166 N169 1.301 . S
C166 N170 1.328 . S
C166 H171 0.930 . S
C167 C168 1.333 . S
C167 N169 1.317 . S
C167 H172 0.930 . S
C168 C167 1.333 . S
C168 N170 1.350 . S
C168 H194 0.931 . S
N169 Co165 2.148 . S
N169 C166 1.301 . S
N169 C167 1.317 . S
N170 C166 1.328 . S
N170 C168 1.350 . S
H171 C166 0.930 . S
H172 C167 0.930 . S
C173 O174 1.224 . S
C173 O192 1.247 . S
O174 C173 1.224 . S
N175 Co165 2.128 . S
N175 C176 1.355 . S
N175 C178 1.311 . S
C176 N175 1.355 . S
C176 C177 1.363 . S
C176 H188 0.929 . S
C177 C176 1.363 . S
C177 N179 1.375 . S
C177 H195 0.931 . S
C178 N175 1.311 . S
C178 N179 1.347 . S
C178 H189 0.929 . S
N179 C177 1.375 . S
N179 C178 1.347 . S
C180 C183 1.365 . S
C180 N185 1.328 . S
C180 H186 0.929 . S
C181 C182 1.362 . S
C181 C184 1.378 . S
C181 H196 0.929 . S
C182 C181 1.362 . S
C182 C183 1.366 . S
C183 C180 1.365 . S
C183 C182 1.366 . S
C183 H197 0.930 . S
C184 C181 1.378 . S
C184 N185 1.315 . S
C184 H187 0.930 . S
N185 Co165 2.194 . S
N185 C180 1.328 . S
N185 C184 1.315 . S
H186 C180 0.929 . S
H187 C184 0.930 . S
H188 C176 0.929 . S
H189 C178 0.929 . S
O190 Co165 2.351 . S
O190 C193 1.244 . S
O191 Co165 2.155 . S
O191 C193 1.240 . S
O192 Co165 2.096 . S
O192 C173 1.247 . S
C193 O190 1.244 . S
C193 O191 1.240 . S
H194 C168 0.931 . S
H195 C177 0.931 . S
H196 C181 0.929 . S
H197 C183 0.930 . S
Co198 N202 2.148 . S
Co198 N208 2.128 . S
Co198 N218 2.194 . S
Co198 O223 2.351 1_556 S
Co198 O224 2.155 . S
Co198 O225 2.096 . S
C199 N202 1.301 . S
C199 N203 1.328 . S
C199 H204 0.930 . S
C200 C201 1.333 . S
C200 N202 1.317 . S
C200 H205 0.930 . S
C201 C200 1.333 . S
C201 N203 1.350 . S
C201 H227 0.931 . S
N202 Co198 2.148 . S
N202 C199 1.301 . S
N202 C200 1.317 . S
N203 C199 1.328 . S
N203 C201 1.350 . S
H204 C199 0.930 . S
H205 C200 0.930 . S
C206 O207 1.224 . S
C206 O225 1.247 . S
O207 C206 1.224 . S
N208 Co198 2.128 . S
N208 C209 1.355 . S
N208 C211 1.311 . S
C209 N208 1.355 . S
C209 C210 1.363 . S
C209 H221 0.929 . S
C210 C209 1.363 . S
C210 N212 1.375 . S
C210 H228 0.931 . S
C211 N208 1.311 . S
C211 N212 1.347 . S
C211 H222 0.929 . S
N212 C210 1.375 . S
N212 C211 1.347 . S
C213 C216 1.365 . S
C213 N218 1.328 . S
C213 H219 0.929 . S
C214 C215 1.362 . S
C214 C217 1.378 . S
C214 H229 0.929 . S
C215 C214 1.362 . S
C215 C216 1.366 . S
C216 C213 1.365 . S
C216 C215 1.366 . S
C216 H230 0.930 . S
C217 C214 1.378 . S
C217 N218 1.315 . S
C217 H220 0.930 . S
N218 Co198 2.194 . S
N218 C213 1.328 . S
N218 C217 1.315 . S
H219 C213 0.929 . S
H220 C217 0.930 . S
H221 C209 0.929 . S
H222 C211 0.929 . S
O223 Co198 2.351 1_554 S
O223 C226 1.244 . S
O224 Co198 2.155 . S
O224 C226 1.240 1_556 S
O225 Co198 2.096 . S
O225 C206 1.247 . S
C226 O223 1.244 . S
C226 O224 1.240 1_554 S
H227 C201 0.931 . S
H228 C210 0.931 . S
H229 C214 0.929 . S
H230 C216 0.930 . S
Co231 N235 2.148 . S
Co231 N241 2.128 . S
Co231 N251 2.194 . S
Co231 O256 2.351 . S
Co231 O257 2.155 . S
Co231 O258 2.096 . S
C232 N235 1.301 1_455 S
C232 N236 1.328 . S
C232 H237 0.930 . S
C233 C234 1.333 . S
C233 N235 1.317 1_455 S
C233 H238 0.930 1_455 S
C234 C233 1.333 . S
C234 N236 1.350 . S
C234 H260 0.931 . S
N235 Co231 2.148 . S
N235 C232 1.301 1_655 S
N235 C233 1.317 1_655 S
N236 C232 1.328 . S
N236 C234 1.350 . S
H237 C232 0.930 . S
H238 C233 0.930 1_655 S
C239 O240 1.224 . S
C239 O258 1.247 . S
O240 C239 1.224 . S
N241 Co231 2.128 . S
N241 C242 1.355 . S
N241 C244 1.311 . S
C242 N241 1.355 . S
C242 C243 1.363 . S
C242 H254 0.929 . S
C243 C242 1.363 . S
C243 N245 1.375 . S
C243 H261 0.931 . S
C244 N241 1.311 . S
C244 N245 1.347 . S
C244 H255 0.929 . S
N245 C243 1.375 . S
N245 C244 1.347 . S
C246 C249 1.365 . S
C246 N251 1.328 . S
C246 H252 0.929 . S
C247 C248 1.362 . S
C247 C250 1.378 . S
C247 H262 0.929 . S
C248 C247 1.362 . S
C248 C249 1.366 . S
C249 C246 1.365 . S
C249 C248 1.366 . S
C249 H263 0.930 . S
C250 C247 1.378 . S
C250 N251 1.315 . S
C250 H253 0.930 . S
N251 Co231 2.194 . S
N251 C246 1.328 . S
N251 C250 1.315 . S
H252 C246 0.929 . S
H253 C250 0.930 . S
H254 C242 0.929 . S
H255 C244 0.929 . S
O256 Co231 2.351 . S
O256 C259 1.244 . S
O257 Co231 2.155 . S
O257 C259 1.240 . S
O258 Co231 2.096 . S
O258 C239 1.247 . S
C259 O256 1.244 . S
C259 O257 1.240 . S
H260 C234 0.931 . S
H261 C243 0.931 . S
H262 C247 0.929 . S
H263 C249 0.930 . S
Co264 N268 2.148 . S
Co264 N274 2.128 . S
Co264 N284 2.194 . S
Co264 O289 2.351 . S
Co264 O290 2.155 . S
Co264 O291 2.096 . S
C265 N268 1.301 . S
C265 N269 1.328 . S
C265 H270 0.930 . S
C266 C267 1.333 . S
C266 N268 1.317 . S
C266 H271 0.930 . S
C267 C266 1.333 . S
C267 N269 1.350 . S
C267 H293 0.931 . S
N268 Co264 2.148 . S
N268 C265 1.301 . S
N268 C266 1.317 . S
N269 C265 1.328 . S
N269 C267 1.350 . S
H270 C265 0.930 . S
H271 C266 0.930 . S
C272 O273 1.224 . S
C272 O291 1.247 . S
O273 C272 1.224 . S
N274 Co264 2.128 . S
N274 C275 1.355 . S
N274 C277 1.311 . S
C275 N274 1.355 . S
C275 C276 1.363 . S
C275 H287 0.929 . S
C276 C275 1.363 . S
C276 N278 1.375 . S
C276 H294 0.931 . S
C277 N274 1.311 . S
C277 N278 1.347 . S
C277 H288 0.929 . S
N278 C276 1.375 . S
N278 C277 1.347 . S
C279 C282 1.365 . S
C279 N284 1.328 . S
C279 H285 0.929 . S
C280 C281 1.362 . S
C280 C283 1.378 . S
C280 H295 0.929 . S
C281 C280 1.362 . S
C281 C282 1.366 . S
C282 C279 1.365 . S
C282 C281 1.366 . S
C282 H296 0.930 . S
C283 C280 1.378 . S
C283 N284 1.315 . S
C283 H286 0.930 . S
N284 Co264 2.194 . S
N284 C279 1.328 . S
N284 C283 1.315 . S
H285 C279 0.929 . S
H286 C283 0.930 . S
H287 C275 0.929 . S
H288 C277 0.929 . S
O289 Co264 2.351 . S
O289 C292 1.244 . S
O290 Co264 2.155 . S
O290 C292 1.240 . S
O291 Co264 2.096 . S
O291 C272 1.247 . S
C292 O289 1.244 . S
C292 O290 1.240 . S
H293 C267 0.931 . S
H294 C276 0.931 . S
H295 C280 0.929 . S
H296 C282 0.930 . S
Co297 N301 2.148 . S
Co297 N307 2.128 . S
Co297 N317 2.194 . S
Co297 O322 2.351 . S
Co297 O323 2.155 . S
Co297 O324 2.096 . S
C298 N301 1.301 . S
C298 N302 1.328 . S
C298 H303 0.930 . S
C299 C300 1.333 . S
C299 N301 1.317 . S
C299 H304 0.930 . S
C300 C299 1.333 . S
C300 N302 1.350 . S
C300 H326 0.931 . S
N301 Co297 2.148 . S
N301 C298 1.301 . S
N301 C299 1.317 . S
N302 C298 1.328 . S
N302 C300 1.350 . S
H303 C298 0.930 . S
H304 C299 0.930 . S
C305 O306 1.225 1_565 S
C305 O324 1.243 . S
O306 C305 1.225 1_545 S
N307 Co297 2.128 . S
N307 C308 1.355 . S
N307 C310 1.311 . S
C308 N307 1.355 . S
C308 C309 1.363 . S
C308 H320 0.929 . S
C309 C308 1.363 . S
C309 N311 1.375 . S
C309 H327 0.931 . S
C310 N307 1.311 . S
C310 N311 1.347 . S
C310 H321 0.929 . S
N311 C309 1.375 . S
N311 C310 1.347 . S
C312 C315 1.365 . S
C312 N317 1.328 . S
C312 H318 0.929 . S
C313 C314 1.362 . S
C313 C316 1.378 . S
C313 H328 0.929 . S
C314 C313 1.362 . S
C314 C315 1.366 . S
C315 C312 1.365 . S
C315 C314 1.366 . S
C315 H329 0.930 . S
C316 C313 1.378 . S
C316 N317 1.315 . S
C316 H319 0.930 . S
N317 Co297 2.194 . S
N317 C312 1.328 . S
N317 C316 1.315 . S
H318 C312 0.929 . S
H319 C316 0.930 . S
H320 C308 0.929 . S
H321 C310 0.929 . S
O322 Co297 2.351 . S
O322 C325 1.244 . S
O323 Co297 2.155 . S
O323 C325 1.240 . S
O324 Co297 2.096 . S
O324 C305 1.243 . S
C325 O322 1.244 . S
C325 O323 1.240 . S
H326 C300 0.931 . S
H327 C309 0.931 . S
H328 C313 0.929 . S
H329 C315 0.930 . S
Co330 N334 2.148 . S
Co330 N340 2.128 . S
Co330 N350 2.194 . S
Co330 O355 2.351 . S
Co330 O356 2.155 . S
Co330 O357 2.096 . S
C331 N334 1.301 . S
C331 N335 1.328 . S
C331 H336 0.930 . S
C332 C333 1.333 . S
C332 N334 1.317 . S
C332 H337 0.930 . S
C333 C332 1.333 . S
C333 N335 1.350 . S
C333 H359 0.931 . S
N334 Co330 2.148 . S
N334 C331 1.301 . S
N334 C332 1.317 . S
N335 C331 1.328 . S
N335 C333 1.350 . S
H336 C331 0.930 . S
H337 C332 0.930 . S
C338 O339 1.224 . S
C338 O357 1.247 . S
O339 C338 1.224 . S
N340 Co330 2.128 . S
N340 C341 1.364 . S
N340 C343 1.311 1_556 S
C341 N340 1.364 . S
C341 C342 1.333 1_556 S
C341 H353 0.949 . S
C342 C341 1.333 1_554 S
C342 N344 1.375 . S
C342 H360 0.931 . S
C343 N340 1.311 1_554 S
C343 N344 1.347 . S
C343 H354 0.929 . S
N344 C342 1.375 . S
N344 C343 1.347 . S
C345 C348 1.365 . S
C345 N350 1.328 . S
C345 H351 0.929 . S
C346 C347 1.362 . S
C346 C349 1.378 . S
C346 H361 0.929 . S
C347 C346 1.362 . S
C347 C348 1.366 . S
C348 C345 1.365 . S
C348 C347 1.366 . S
C348 H362 0.930 . S
C349 C346 1.378 . S
C349 N350 1.315 . S
C349 H352 0.930 . S
N350 Co330 2.194 . S
N350 C345 1.328 . S
N350 C349 1.315 . S
H351 C345 0.929 . S
H352 C349 0.930 . S
H353 C341 0.949 . S
H354 C343 0.929 . S
O355 Co330 2.351 . S
O355 C358 1.244 . S
O356 Co330 2.155 . S
O356 C358 1.240 . S
O357 Co330 2.096 . S
O357 C338 1.247 . S
C358 O355 1.244 . S
C358 O356 1.240 . S
H359 C333 0.931 . S
H360 C342 0.931 . S
H361 C346 0.929 . S
H362 C348 0.930 . S
Co363 N367 2.148 . S
Co363 N373 2.128 . S
Co363 N383 2.194 . S
Co363 O388 2.351 . S
Co363 O389 2.155 . S
Co363 O390 2.096 . S
C364 N367 1.301 . S
C364 N368 1.328 . S
C364 H369 0.930 . S
C365 C366 1.333 . S
C365 N367 1.317 . S
C365 H370 0.930 . S
C366 C365 1.333 . S
C366 N368 1.350 . S
C366 H392 0.931 . S
N367 Co363 2.148 . S
N367 C364 1.301 . S
N367 C365 1.317 . S
N368 C364 1.328 . S
N368 C366 1.350 . S
H369 C364 0.930 . S
H370 C365 0.930 . S
C371 O372 1.224 . S
C371 O390 1.247 . S
O372 C371 1.224 . S
N373 Co363 2.128 . S
N373 C374 1.355 . S
N373 C376 1.311 . S
C374 N373 1.355 . S
C374 C375 1.363 . S
C374 H386 0.929 . S
C375 C374 1.363 . S
C375 N377 1.375 . S
C375 H393 0.931 . S
C376 N373 1.311 . S
C376 N377 1.347 . S
C376 H387 0.929 . S
N377 C375 1.375 . S
N377 C376 1.347 . S
C378 C381 1.365 . S
C378 N383 1.328 . S
C378 H384 0.929 . S
C379 C380 1.362 . S
C379 C382 1.378 . S
C379 H394 0.929 . S
C380 C379 1.362 . S
C380 C381 1.366 . S
C381 C378 1.365 . S
C381 C380 1.366 . S
C381 H395 0.930 . S
C382 C379 1.378 . S
C382 N383 1.315 . S
C382 H385 0.930 . S
N383 Co363 2.194 . S
N383 C378 1.328 . S
N383 C382 1.315 . S
H384 C378 0.929 . S
H385 C382 0.930 . S
H386 C374 0.929 . S
H387 C376 0.929 . S
O388 Co363 2.351 . S
O388 C391 1.244 . S
O389 Co363 2.155 . S
O389 C391 1.240 . S
O390 Co363 2.096 . S
O390 C371 1.247 . S
C391 O388 1.244 . S
C391 O389 1.240 . S
H392 C366 0.931 . S
H393 C375 0.931 . S
H394 C379 0.929 . S
H395 C381 0.930 . S
Co396 N400 2.148 . S
Co396 N406 2.128 . S
Co396 N416 2.194 . S
Co396 O421 2.351 . S
Co396 O422 2.155 . S
Co396 O423 2.096 . S
C397 N400 1.301 . S
C397 N401 1.328 . S
C397 H402 0.930 . S
C398 C399 1.333 . S
C398 N400 1.317 . S
C398 H403 0.930 . S
C399 C398 1.333 . S
C399 N401 1.350 . S
C399 H425 0.931 . S
N400 Co396 2.148 . S
N400 C397 1.301 . S
N400 C398 1.317 . S
N401 C397 1.328 . S
N401 C399 1.350 . S
H402 C397 0.930 . S
H403 C398 0.930 . S
C404 O405 1.224 . S
C404 O423 1.247 . S
O405 C404 1.224 . S
N406 Co396 2.128 . S
N406 C407 1.355 . S
N406 C409 1.311 . S
C407 N406 1.355 . S
C407 C408 1.363 . S
C407 H419 0.929 . S
C408 C407 1.363 . S
C408 N410 1.375 . S
C408 H426 0.931 . S
C409 N406 1.311 . S
C409 N410 1.347 . S
C409 H420 0.929 . S
N410 C408 1.375 . S
N410 C409 1.347 . S
C411 C414 1.365 . S
C411 N416 1.328 . S
C411 H417 0.929 . S
C412 C413 1.362 . S
C412 C415 1.378 . S
C412 H427 0.929 . S
C413 C412 1.362 . S
C413 C414 1.366 . S
C414 C411 1.365 . S
C414 C413 1.366 . S
C414 H428 0.930 . S
C415 C412 1.378 . S
C415 N416 1.315 . S
C415 H418 0.930 . S
N416 Co396 2.194 . S
N416 C411 1.328 . S
N416 C415 1.315 . S
H417 C411 0.929 . S
H418 C415 0.930 . S
H419 C407 0.929 . S
H420 C409 0.929 . S
O421 Co396 2.351 . S
O421 C424 1.244 . S
O422 Co396 2.155 . S
O422 C424 1.240 . S
O423 Co396 2.096 . S
O423 C404 1.247 . S
C424 O421 1.244 . S
C424 O422 1.240 . S
H425 C399 0.931 . S
H426 C408 0.931 . S
H427 C412 0.929 . S
H428 C414 0.930 . S
Co429 N433 2.148 . S
Co429 N439 2.128 . S
Co429 N449 2.194 . S
Co429 O454 2.351 . S
Co429 O455 2.155 . S
Co429 O456 2.096 . S
C430 N433 1.301 . S
C430 N434 1.328 . S
C430 H435 0.930 . S
C431 C432 1.333 . S
C431 N433 1.317 . S
C431 H436 0.930 . S
C432 C431 1.333 . S
C432 N434 1.350 . S
C432 H458 0.931 . S
N433 Co429 2.148 . S
N433 C430 1.301 . S
N433 C431 1.317 . S
N434 C430 1.328 . S
N434 C432 1.350 . S
H435 C430 0.930 . S
H436 C431 0.930 . S
C437 O438 1.224 1_565 S
C437 O456 1.254 . S
O438 C437 1.224 1_545 S
N439 Co429 2.128 . S
N439 C440 1.355 . S
N439 C442 1.311 . S
C440 N439 1.355 . S
C440 C441 1.363 . S
C440 H452 0.929 . S
C441 C440 1.363 . S
C441 N443 1.375 . S
C441 H459 0.931 . S
C442 N439 1.311 . S
C442 N443 1.347 . S
C442 H453 0.929 . S
N443 C441 1.375 . S
N443 C442 1.347 . S
C444 C447 1.365 . S
C444 N449 1.328 . S
C444 H450 0.929 . S
C445 C446 1.362 . S
C445 C448 1.378 . S
C445 H460 0.929 . S
C446 C445 1.362 . S
C446 C447 1.366 . S
C447 C444 1.365 . S
C447 C446 1.366 . S
C447 H461 0.930 . S
C448 C445 1.378 . S
C448 N449 1.315 . S
C448 H451 0.930 . S
N449 Co429 2.194 . S
N449 C444 1.328 . S
N449 C448 1.315 . S
H450 C444 0.929 . S
H451 C448 0.930 . S
H452 C440 0.929 . S
H453 C442 0.929 . S
O454 Co429 2.351 . S
O454 C457 1.244 . S
O455 Co429 2.155 . S
O455 C457 1.240 . S
O456 Co429 2.096 . S
O456 C437 1.254 . S
C457 O454 1.244 . S
C457 O455 1.240 . S
H458 C432 0.931 . S
H459 C441 0.931 . S
H460 C445 0.929 . S
H461 C447 0.930 . S
Co462 N466 2.148 . S
Co462 N472 2.128 . S
Co462 N482 2.194 . S
Co462 O487 2.351 . S
Co462 O488 2.155 . S
Co462 O489 2.096 . S
C463 N466 1.301 . S
C463 N467 1.328 . S
C463 H468 0.930 . S
C464 C465 1.333 . S
C464 N466 1.317 . S
C464 H469 0.930 . S
C465 C464 1.333 . S
C465 N467 1.350 . S
C465 H491 0.931 . S
N466 Co462 2.148 . S
N466 C463 1.301 . S
N466 C464 1.317 . S
N467 C463 1.328 . S
N467 C465 1.350 . S
H468 C463 0.930 . S
H469 C464 0.930 . S
C470 O471 1.224 . S
C470 O489 1.247 . S
O471 C470 1.224 . S
N472 Co462 2.128 . S
N472 C473 1.355 . S
N472 C475 1.311 . S
C473 N472 1.355 . S
C473 C474 1.363 . S
C473 H485 0.929 . S
C474 C473 1.363 . S
C474 N476 1.375 . S
C474 H492 0.931 . S
C475 N472 1.311 . S
C475 N476 1.347 . S
C475 H486 0.929 . S
N476 C474 1.375 . S
N476 C475 1.347 . S
C477 C480 1.365 . S
C477 N482 1.328 . S
C477 H483 0.929 . S
C478 C479 1.362 . S
C478 C481 1.378 . S
C478 H493 0.929 . S
C479 C478 1.362 . S
C479 C480 1.366 . S
C480 C477 1.365 . S
C480 C479 1.366 . S
C480 H494 0.930 . S
C481 C478 1.378 . S
C481 N482 1.315 . S
C481 H484 0.930 . S
N482 Co462 2.194 . S
N482 C477 1.328 . S
N482 C481 1.315 . S
H483 C477 0.929 . S
H484 C481 0.930 . S
H485 C473 0.929 . S
H486 C475 0.929 . S
O487 Co462 2.351 . S
O487 C490 1.244 . S
O488 Co462 2.155 . S
O488 C490 1.240 . S
O489 Co462 2.096 . S
O489 C470 1.247 . S
C490 O487 1.244 . S
C490 O488 1.240 . S
H491 C465 0.931 . S
H492 C474 0.931 . S
H493 C478 0.929 . S
H494 C480 0.930 . S
Co495 N499 2.148 . S
Co495 N505 2.128 . S
Co495 N515 2.194 . S
Co495 O520 2.351 . S
Co495 O521 2.155 . S
Co495 O522 2.096 . S
C496 N499 1.301 1_554 S
C496 N500 1.328 . S
C496 H501 0.930 . S
C497 C498 1.333 . S
C497 N499 1.317 1_554 S
C497 H502 0.930 1_554 S
C498 C497 1.333 . S
C498 N500 1.350 . S
C498 H524 0.931 . S
N499 Co495 2.148 . S
N499 C496 1.301 1_556 S
N499 C497 1.317 1_556 S
N500 C496 1.328 . S
N500 C498 1.350 . S
H501 C496 0.930 . S
H502 C497 0.930 1_556 S
C503 O504 1.224 . S
C503 O522 1.247 . S
O504 C503 1.224 . S
N505 Co495 2.128 . S
N505 C506 1.355 . S
N505 C508 1.311 . S
C506 N505 1.355 . S
C506 C507 1.363 . S
C506 H518 0.929 . S
C507 C506 1.363 . S
C507 N509 1.375 . S
C507 H525 0.931 . S
C508 N505 1.311 . S
C508 N509 1.347 . S
C508 H519 0.929 . S
N509 C507 1.375 . S
N509 C508 1.347 . S
C510 C513 1.365 . S
C510 N515 1.328 . S
C510 H516 0.929 . S
C511 C512 1.362 . S
C511 C514 1.378 . S
C511 H526 0.929 . S
C512 C511 1.362 . S
C512 C513 1.366 . S
C513 C510 1.365 . S
C513 C512 1.366 . S
C513 H527 0.930 . S
C514 C511 1.378 . S
C514 N515 1.315 . S
C514 H517 0.930 . S
N515 Co495 2.194 . S
N515 C510 1.328 . S
N515 C514 1.315 . S
H516 C510 0.929 . S
H517 C514 0.930 . S
H518 C506 0.929 . S
H519 C508 0.929 . S
O520 Co495 2.351 . S
O520 C523 1.244 . S
O521 Co495 2.155 . S
O521 C523 1.240 . S
O522 Co495 2.096 . S
O522 C503 1.247 . S
C523 O520 1.244 . S
C523 O521 1.240 . S
H524 C498 0.931 . S
H525 C507 0.931 . S
H526 C511 0.929 . S
H527 C513 0.930 . S
Co528 N532 2.148 . S
Co528 N538 2.128 . S
Co528 N548 2.194 . S
Co528 O553 2.351 . S
Co528 O554 2.155 . S
Co528 O555 2.096 . S
C529 N532 1.301 . S
C529 N533 1.328 . S
C529 H534 0.930 . S
C530 C531 1.333 . S
C530 N532 1.317 . S
C530 H535 0.930 . S
C531 C530 1.333 . S
C531 N533 1.350 . S
C531 H557 0.931 . S
N532 Co528 2.148 . S
N532 C529 1.301 . S
N532 C530 1.317 . S
N533 C529 1.328 . S
N533 C531 1.350 . S
H534 C529 0.930 . S
H535 C530 0.930 . S
C536 O537 1.224 . S
C536 O555 1.247 . S
O537 C536 1.224 . S
N538 Co528 2.128 . S
N538 C539 1.355 . S
N538 C541 1.311 . S
C539 N538 1.355 . S
C539 C540 1.363 . S
C539 H551 0.929 . S
C540 C539 1.363 . S
C540 N542 1.375 . S
C540 H558 0.931 . S
C541 N538 1.311 . S
C541 N542 1.347 . S
C541 H552 0.929 . S
N542 C540 1.375 . S
N542 C541 1.347 . S
C543 C546 1.365 . S
C543 N548 1.328 . S
C543 H549 0.929 . S
C544 C545 1.362 . S
C544 C547 1.378 . S
C544 H559 0.929 . S
C545 C544 1.362 . S
C545 C546 1.366 . S
C546 C543 1.365 . S
C546 C545 1.366 . S
C546 H560 0.930 . S
C547 C544 1.378 . S
C547 N548 1.315 . S
C547 H550 0.930 . S
N548 Co528 2.194 . S
N548 C543 1.328 . S
N548 C547 1.315 . S
H549 C543 0.929 . S
H550 C547 0.930 . S
H551 C539 0.929 . S
H552 C541 0.929 . S
O553 Co528 2.351 . S
O553 C556 1.244 . S
O554 Co528 2.155 . S
O554 C556 1.240 . S
O555 Co528 2.096 . S
O555 C536 1.247 . S
C556 O553 1.244 . S
C556 O554 1.240 . S
H557 C531 0.931 . S
H558 C540 0.931 . S
H559 C544 0.929 . S
H560 C546 0.930 . S
Co561 N565 2.148 . S
Co561 N571 2.128 . S
Co561 N581 2.194 . S
Co561 O586 2.351 . S
Co561 O587 2.155 . S
Co561 O588 2.096 . S
C562 N565 1.301 . S
C562 N566 1.328 . S
C562 H567 0.930 . S
C563 C564 1.333 . S
C563 N565 1.317 . S
C563 H568 0.930 . S
C564 C563 1.333 . S
C564 N566 1.350 . S
C564 H590 0.931 . S
N565 Co561 2.148 . S
N565 C562 1.301 . S
N565 C563 1.317 . S
N566 C562 1.328 . S
N566 C564 1.350 . S
H567 C562 0.930 . S
H568 C563 0.930 . S
C569 O570 1.224 . S
C569 O588 1.247 . S
O570 C569 1.224 . S
N571 Co561 2.128 . S
N571 C572 1.364 . S
N571 C574 1.311 1_655 S
C572 N571 1.364 . S
C572 C573 1.333 1_655 S
C572 H584 0.949 . S
C573 C572 1.333 1_455 S
C573 N575 1.375 . S
C573 H591 0.931 . S
C574 N571 1.311 1_455 S
C574 N575 1.347 . S
C574 H585 0.929 . S
N575 C573 1.375 . S
N575 C574 1.347 . S
C576 C579 1.365 . S
C576 N581 1.328 . S
C576 H582 0.929 . S
C577 C578 1.362 . S
C577 C580 1.378 . S
C577 H592 0.929 . S
C578 C577 1.362 . S
C578 C579 1.366 . S
C579 C576 1.365 . S
C579 C578 1.366 . S
C579 H593 0.930 . S
C580 C577 1.378 . S
C580 N581 1.315 . S
C580 H583 0.930 . S
N581 Co561 2.194 . S
N581 C576 1.328 . S
N581 C580 1.315 . S
H582 C576 0.929 . S
H583 C580 0.930 . S
H584 C572 0.949 . S
H585 C574 0.929 . S
O586 Co561 2.351 . S
O586 C589 1.244 . S
O587 Co561 2.155 . S
O587 C589 1.240 . S
O588 Co561 2.096 . S
O588 C569 1.247 . S
C589 O586 1.244 . S
C589 O587 1.240 . S
H590 C564 0.931 . S
H591 C573 0.931 . S
H592 C577 0.929 . S
H593 C579 0.930 . S
Co594 N598 2.148 . S
Co594 N604 2.128 . S
Co594 N614 2.194 . S
Co594 O619 2.351 . S
Co594 O620 2.155 . S
Co594 O621 2.096 . S
C595 N598 1.301 . S
C595 N599 1.328 . S
C595 H600 0.930 . S
C596 C597 1.333 . S
C596 N598 1.317 . S
C596 H601 0.930 . S
C597 C596 1.333 . S
C597 N599 1.350 . S
C597 H623 0.931 . S
N598 Co594 2.148 . S
N598 C595 1.301 . S
N598 C596 1.317 . S
N599 C595 1.328 . S
N599 C597 1.350 . S
H600 C595 0.930 . S
H601 C596 0.930 . S
C602 O603 1.225 1_655 S
C602 O621 1.243 . S
O603 C602 1.225 1_455 S
N604 Co594 2.128 . S
N604 C605 1.355 . S
N604 C607 1.311 . S
C605 N604 1.355 . S
C605 C606 1.363 . S
C605 H617 0.929 . S
C606 C605 1.363 . S
C606 N608 1.375 . S
C606 H624 0.931 . S
C607 N604 1.311 . S
C607 N608 1.347 . S
C607 H618 0.929 . S
N608 C606 1.375 . S
N608 C607 1.347 . S
C609 C612 1.365 . S
C609 N614 1.328 . S
C609 H615 0.929 . S
C610 C611 1.362 . S
C610 C613 1.378 . S
C610 H625 0.929 . S
C611 C610 1.362 . S
C611 C612 1.366 . S
C612 C609 1.365 . S
C612 C611 1.366 . S
C612 H626 0.930 . S
C613 C610 1.378 . S
C613 N614 1.315 . S
C613 H616 0.930 . S
N614 Co594 2.194 . S
N614 C609 1.328 . S
N614 C613 1.315 . S
H615 C609 0.929 . S
H616 C613 0.930 . S
H617 C605 0.929 . S
H618 C607 0.929 . S
O619 Co594 2.351 . S
O619 C622 1.244 . S
O620 Co594 2.155 . S
O620 C622 1.240 . S
O621 Co594 2.096 . S
O621 C602 1.243 . S
C622 O619 1.244 . S
C622 O620 1.240 . S
H623 C597 0.931 . S
H624 C606 0.931 . S
H625 C610 0.929 . S
H626 C612 0.930 . S
Co627 N631 2.148 . S
Co627 N637 2.128 . S
Co627 N647 2.194 . S
Co627 O652 2.351 . S
Co627 O653 2.155 . S
Co627 O654 2.096 . S
C628 N631 1.301 . S
C628 N632 1.328 . S
C628 H633 0.930 . S
C629 C630 1.333 . S
C629 N631 1.317 . S
C629 H634 0.930 . S
C630 C629 1.333 . S
C630 N632 1.350 . S
C630 H656 0.931 . S
N631 Co627 2.148 . S
N631 C628 1.301 . S
N631 C629 1.317 . S
N632 C628 1.328 . S
N632 C630 1.350 . S
H633 C628 0.930 . S
H634 C629 0.930 . S
C635 O636 1.224 . S
C635 O654 1.247 . S
O636 C635 1.224 . S
N637 Co627 2.128 . S
N637 C638 1.355 . S
N637 C640 1.311 . S
C638 N637 1.355 . S
C638 C639 1.363 . S
C638 H650 0.929 . S
C639 C638 1.363 . S
C639 N641 1.375 . S
C639 H657 0.931 . S
C640 N637 1.311 . S
C640 N641 1.347 . S
C640 H651 0.929 . S
N641 C639 1.375 . S
N641 C640 1.347 . S
C642 C645 1.365 . S
C642 N647 1.328 . S
C642 H648 0.929 . S
C643 C644 1.362 . S
C643 C646 1.378 . S
C643 H658 0.929 . S
C644 C643 1.362 . S
C644 C645 1.366 . S
C645 C642 1.365 . S
C645 C644 1.366 . S
C645 H659 0.930 . S
C646 C643 1.378 . S
C646 N647 1.315 . S
C646 H649 0.930 . S
N647 Co627 2.194 . S
N647 C642 1.328 . S
N647 C646 1.315 . S
H648 C642 0.929 . S
H649 C646 0.930 . S
H650 C638 0.929 . S
H651 C640 0.929 . S
O652 Co627 2.351 . S
O652 C655 1.244 . S
O653 Co627 2.155 . S
O653 C655 1.240 . S
O654 Co627 2.096 . S
O654 C635 1.247 . S
C655 O652 1.244 . S
C655 O653 1.240 . S
H656 C630 0.931 . S
H657 C639 0.931 . S
H658 C643 0.929 . S
H659 C645 0.930 . S
Co660 N664 2.148 . S
Co660 N670 2.128 . S
Co660 N680 2.194 . S
Co660 O685 2.351 . S
Co660 O686 2.155 . S
Co660 O687 2.096 . S
C661 N664 1.301 1_545 S
C661 N665 1.328 . S
C661 H666 0.930 . S
C662 C663 1.333 . S
C662 N664 1.317 1_545 S
C662 H667 0.930 1_545 S
C663 C662 1.333 . S
C663 N665 1.350 . S
C663 H689 0.931 . S
N664 Co660 2.148 . S
N664 C661 1.301 1_565 S
N664 C662 1.317 1_565 S
N665 C661 1.328 . S
N665 C663 1.350 . S
H666 C661 0.930 . S
H667 C662 0.930 1_565 S
C668 O669 1.224 . S
C668 O687 1.247 . S
O669 C668 1.224 . S
N670 Co660 2.128 . S
N670 C671 1.355 . S
N670 C673 1.311 . S
C671 N670 1.355 . S
C671 C672 1.363 . S
C671 H683 0.929 . S
C672 C671 1.363 . S
C672 N674 1.375 . S
C672 H690 0.931 . S
C673 N670 1.311 . S
C673 N674 1.347 . S
C673 H684 0.929 . S
N674 C672 1.375 . S
N674 C673 1.347 . S
C675 C678 1.365 . S
C675 N680 1.328 . S
C675 H681 0.929 . S
C676 C677 1.362 . S
C676 C679 1.378 . S
C676 H691 0.929 . S
C677 C676 1.362 . S
C677 C678 1.366 . S
C678 C675 1.365 . S
C678 C677 1.366 . S
C678 H692 0.930 . S
C679 C676 1.378 . S
C679 N680 1.315 . S
C679 H682 0.930 . S
N680 Co660 2.194 . S
N680 C675 1.328 . S
N680 C679 1.315 . S
H681 C675 0.929 . S
H682 C679 0.930 . S
H683 C671 0.929 . S
H684 C673 0.929 . S
O685 Co660 2.351 . S
O685 C688 1.244 . S
O686 Co660 2.155 . S
O686 C688 1.240 . S
O687 Co660 2.096 . S
O687 C668 1.247 . S
C688 O685 1.244 . S
C688 O686 1.240 . S
H689 C663 0.931 . S
H690 C672 0.931 . S
H691 C676 0.929 . S
H692 C678 0.930 . S
Co693 N697 2.148 . S
Co693 N703 2.128 . S
Co693 N713 2.194 . S
Co693 O718 2.351 1_565 S
Co693 O719 2.155 . S
Co693 O720 2.096 . S
C694 N697 1.301 . S
C694 N698 1.328 . S
C694 H699 0.930 . S
C695 C696 1.333 . S
C695 N697 1.317 . S
C695 H700 0.930 . S
C696 C695 1.333 . S
C696 N698 1.350 . S
C696 H722 0.931 . S
N697 Co693 2.148 . S
N697 C694 1.301 . S
N697 C695 1.317 . S
N698 C694 1.328 . S
N698 C696 1.350 . S
H699 C694 0.930 . S
H700 C695 0.930 . S
C701 O702 1.224 . S
C701 O720 1.247 . S
O702 C701 1.224 . S
N703 Co693 2.128 . S
N703 C704 1.355 . S
N703 C706 1.311 . S
C704 N703 1.355 . S
C704 C705 1.363 . S
C704 H716 0.929 . S
C705 C704 1.363 . S
C705 N707 1.375 . S
C705 H723 0.931 . S
C706 N703 1.311 . S
C706 N707 1.347 . S
C706 H717 0.929 . S
N707 C705 1.375 . S
N707 C706 1.347 . S
C708 C711 1.365 . S
C708 N713 1.328 . S
C708 H714 0.929 . S
C709 C710 1.362 . S
C709 C712 1.378 . S
C709 H724 0.929 . S
C710 C709 1.362 . S
C710 C711 1.366 . S
C711 C708 1.365 . S
C711 C710 1.366 . S
C711 H725 0.930 . S
C712 C709 1.378 . S
C712 N713 1.315 . S
C712 H715 0.930 . S
N713 Co693 2.194 . S
N713 C708 1.328 . S
N713 C712 1.315 . S
H714 C708 0.929 . S
H715 C712 0.930 . S
H716 C704 0.929 . S
H717 C706 0.929 . S
O718 Co693 2.351 1_545 S
O718 C721 1.244 . S
O719 Co693 2.155 . S
O719 C721 1.240 1_565 S
O720 Co693 2.096 . S
O720 C701 1.247 . S
C721 O718 1.244 . S
C721 O719 1.240 1_545 S
H722 C696 0.931 . S
H723 C705 0.931 . S
H724 C709 0.929 . S
H725 C711 0.930 . S
Co726 N730 2.148 . S
Co726 N736 2.128 . S
Co726 N746 2.194 . S
Co726 O751 2.351 . S
Co726 O752 2.155 . S
Co726 O753 2.096 . S
C727 N730 1.301 . S
C727 N731 1.328 . S
C727 H732 0.930 . S
C728 C729 1.333 . S
C728 N730 1.317 . S
C728 H733 0.930 . S
C729 C728 1.333 . S
C729 N731 1.350 . S
C729 H755 0.931 . S
N730 Co726 2.148 . S
N730 C727 1.301 . S
N730 C728 1.317 . S
N731 C727 1.328 . S
N731 C729 1.350 . S
H732 C727 0.930 . S
H733 C728 0.930 . S
C734 O735 1.224 1_655 S
C734 O753 1.254 . S
O735 C734 1.224 1_455 S
N736 Co726 2.128 . S
N736 C737 1.355 . S
N736 C739 1.311 . S
C737 N736 1.355 . S
C737 C738 1.363 . S
C737 H749 0.929 . S
C738 C737 1.363 . S
C738 N740 1.375 . S
C738 H756 0.931 . S
C739 N736 1.311 . S
C739 N740 1.347 . S
C739 H750 0.929 . S
N740 C738 1.375 . S
N740 C739 1.347 . S
C741 C744 1.365 . S
C741 N746 1.328 . S
C741 H747 0.929 . S
C742 C743 1.362 . S
C742 C745 1.378 . S
C742 H757 0.929 . S
C743 C742 1.362 . S
C743 C744 1.366 . S
C744 C741 1.365 . S
C744 C743 1.366 . S
C744 H758 0.930 . S
C745 C742 1.378 . S
C745 N746 1.315 . S
C745 H748 0.930 . S
N746 Co726 2.194 . S
N746 C741 1.328 . S
N746 C745 1.315 . S
H747 C741 0.929 . S
H748 C745 0.930 . S
H749 C737 0.929 . S
H750 C739 0.929 . S
O751 Co726 2.351 . S
O751 C754 1.244 . S
O752 Co726 2.155 . S
O752 C754 1.240 . S
O753 Co726 2.096 . S
O753 C734 1.254 . S
C754 O751 1.244 . S
C754 O752 1.240 . S
H755 C729 0.931 . S
H756 C738 0.931 . S
H757 C742 0.929 . S
H758 C744 0.930 . S
Co759 N763 2.148 . S
Co759 N769 2.128 . S
Co759 N779 2.194 . S
Co759 O784 2.351 . S
Co759 O785 2.155 . S
Co759 O786 2.096 . S
C760 N763 1.301 . S
C760 N764 1.328 . S
C760 H765 0.930 . S
C761 C762 1.333 . S
C761 N763 1.317 . S
C761 H766 0.930 . S
C762 C761 1.333 . S
C762 N764 1.350 . S
C762 H788 0.931 . S
N763 Co759 2.148 . S
N763 C760 1.301 . S
N763 C761 1.317 . S
N764 C760 1.328 . S
N764 C762 1.350 . S
H765 C760 0.930 . S
H766 C761 0.930 . S
C767 O768 1.224 . S
C767 O786 1.247 . S
O768 C767 1.224 . S
N769 Co759 2.128 . S
N769 C770 1.355 . S
N769 C772 1.311 . S
C770 N769 1.355 . S
C770 C771 1.363 . S
C770 H782 0.929 . S
C771 C770 1.363 . S
C771 N773 1.375 . S
C771 H789 0.931 . S
C772 N769 1.311 . S
C772 N773 1.347 . S
C772 H783 0.929 . S
N773 C771 1.375 . S
N773 C772 1.347 . S
C774 C777 1.365 . S
C774 N779 1.328 . S
C774 H780 0.929 . S
C775 C776 1.362 . S
C775 C778 1.378 . S
C775 H790 0.929 . S
C776 C775 1.362 . S
C776 C777 1.366 . S
C777 C774 1.365 . S
C777 C776 1.366 . S
C777 H791 0.930 . S
C778 C775 1.378 . S
C778 N779 1.315 . S
C778 H781 0.930 . S
N779 Co759 2.194 . S
N779 C774 1.328 . S
N779 C778 1.315 . S
H780 C774 0.929 . S
H781 C778 0.930 . S
H782 C770 0.929 . S
H783 C772 0.929 . S
O784 Co759 2.351 . S
O784 C787 1.244 . S
O785 Co759 2.155 . S
O785 C787 1.240 . S
O786 Co759 2.096 . S
O786 C767 1.247 . S
C787 O784 1.244 . S
C787 O785 1.240 . S
H788 C762 0.931 . S
H789 C771 0.931 . S
H790 C775 0.929 . S
H791 C777 0.930 . S
Co792 N796 2.148 . S
Co792 N802 2.128 . S
Co792 N812 2.194 . S
Co792 O817 2.351 . S
Co792 O818 2.155 . S
Co792 O819 2.096 . S
C793 N796 1.301 . S
C793 N797 1.328 . S
C793 H798 0.930 . S
C794 C795 1.333 . S
C794 N796 1.317 . S
C794 H799 0.930 . S
C795 C794 1.333 . S
C795 N797 1.350 . S
C795 H821 0.931 . S
N796 Co792 2.148 . S
N796 C793 1.301 . S
N796 C794 1.317 . S
N797 C793 1.328 . S
N797 C795 1.350 . S
H798 C793 0.930 . S
H799 C794 0.930 . S
C800 O801 1.224 . S
C800 O819 1.247 . S
O801 C800 1.224 . S
N802 Co792 2.128 . S
N802 C803 1.362 . S
N802 C805 1.311 1_565 S
C803 N802 1.362 . S
C803 C804 1.338 1_565 S
C803 H815 0.945 . S
C804 C803 1.338 1_545 S
C804 N806 1.375 . S
C804 H822 0.931 . S
C805 N802 1.311 1_545 S
C805 N806 1.347 . S
C805 H816 0.929 . S
N806 C804 1.375 . S
N806 C805 1.347 . S
C807 C810 1.365 . S
C807 N812 1.328 . S
C807 H813 0.929 . S
C808 C809 1.362 . S
C808 C811 1.378 . S
C808 H823 0.929 . S
C809 C808 1.362 . S
C809 C810 1.366 . S
C810 C807 1.365 . S
C810 C809 1.366 . S
C810 H824 0.930 . S
C811 C808 1.378 . S
C811 N812 1.315 . S
C811 H814 0.930 . S
N812 Co792 2.194 . S
N812 C807 1.328 . S
N812 C811 1.315 . S
H813 C807 0.929 . S
H814 C811 0.930 . S
H815 C803 0.945 . S
H816 C805 0.929 . S
O817 Co792 2.351 . S
O817 C820 1.244 . S
O818 Co792 2.155 . S
O818 C820 1.240 . S
O819 Co792 2.096 . S
O819 C800 1.247 . S
C820 O817 1.244 . S
C820 O818 1.240 . S
H821 C795 0.931 . S
H822 C804 0.931 . S
H823 C808 0.929 . S
H824 C810 0.930 . S
Co825 N829 2.148 . S
Co825 N835 2.128 . S
Co825 N845 2.194 . S
Co825 O850 2.351 . S
Co825 O851 2.155 . S
Co825 O852 2.096 . S
C826 N829 1.301 . S
C826 N830 1.328 . S
C826 H831 0.930 . S
C827 C828 1.333 . S
C827 N829 1.317 . S
C827 H832 0.930 . S
C828 C827 1.333 . S
C828 N830 1.350 . S
C828 H854 0.931 . S
N829 Co825 2.148 . S
N829 C826 1.301 . S
N829 C827 1.317 . S
N830 C826 1.328 . S
N830 C828 1.350 . S
H831 C826 0.930 . S
H832 C827 0.930 . S
C833 O834 1.224 1_556 S
C833 O852 1.254 . S
O834 C833 1.224 1_554 S
N835 Co825 2.128 . S
N835 C836 1.355 . S
N835 C838 1.311 . S
C836 N835 1.355 . S
C836 C837 1.363 . S
C836 H848 0.929 . S
C837 C836 1.363 . S
C837 N839 1.375 . S
C837 H855 0.931 . S
C838 N835 1.311 . S
C838 N839 1.347 . S
C838 H849 0.929 . S
N839 C837 1.375 . S
N839 C838 1.347 . S
C840 C843 1.365 . S
C840 N845 1.328 . S
C840 H846 0.929 . S
C841 C842 1.362 . S
C841 C844 1.378 . S
C841 H856 0.929 . S
C842 C841 1.362 . S
C842 C843 1.366 . S
C843 C840 1.365 . S
C843 C842 1.366 . S
C843 H857 0.930 . S
C844 C841 1.378 . S
C844 N845 1.315 . S
C844 H847 0.930 . S
N845 Co825 2.194 . S
N845 C840 1.328 . S
N845 C844 1.315 . S
H846 C840 0.929 . S
H847 C844 0.930 . S
H848 C836 0.929 . S
H849 C838 0.929 . S
O850 Co825 2.351 . S
O850 C853 1.244 . S
O851 Co825 2.155 . S
O851 C853 1.240 . S
O852 Co825 2.096 . S
O852 C833 1.254 . S
C853 O850 1.244 . S
C853 O851 1.240 . S
H854 C828 0.931 . S
H855 C837 0.931 . S
H856 C841 0.929 . S
H857 C843 0.930 . S
Co858 N862 2.148 . S
Co858 N868 2.128 . S
Co858 N878 2.194 . S
Co858 O883 2.351 . S
Co858 O884 2.155 . S
Co858 O885 2.096 . S
C859 N862 1.301 . S
C859 N863 1.328 . S
C859 H864 0.930 . S
C860 C861 1.333 . S
C860 N862 1.317 . S
C860 H865 0.930 . S
C861 C860 1.333 . S
C861 N863 1.350 . S
C861 H887 0.931 . S
N862 Co858 2.148 . S
N862 C859 1.301 . S
N862 C860 1.317 . S
N863 C859 1.328 . S
N863 C861 1.350 . S
H864 C859 0.930 . S
H865 C860 0.930 . S
C866 O867 1.224 . S
C866 O885 1.247 . S
O867 C866 1.224 . S
N868 Co858 2.128 . S
N868 C869 1.355 . S
N868 C871 1.311 . S
C869 N868 1.355 . S
C869 C870 1.363 . S
C869 H881 0.929 . S
C870 C869 1.363 . S
C870 N872 1.375 . S
C870 H888 0.931 . S
C871 N868 1.311 . S
C871 N872 1.347 . S
C871 H882 0.929 . S
N872 C870 1.375 . S
N872 C871 1.347 . S
C873 C876 1.365 . S
C873 N878 1.328 . S
C873 H879 0.929 . S
C874 C875 1.362 . S
C874 C877 1.378 . S
C874 H889 0.929 . S
C875 C874 1.362 . S
C875 C876 1.366 . S
C876 C873 1.365 . S
C876 C875 1.366 . S
C876 H890 0.930 . S
C877 C874 1.378 . S
C877 N878 1.315 . S
C877 H880 0.930 . S
N878 Co858 2.194 . S
N878 C873 1.328 . S
N878 C877 1.315 . S
H879 C873 0.929 . S
H880 C877 0.930 . S
H881 C869 0.929 . S
H882 C871 0.929 . S
O883 Co858 2.351 . S
O883 C886 1.244 . S
O884 Co858 2.155 . S
O884 C886 1.240 . S
O885 Co858 2.096 . S
O885 C866 1.247 . S
C886 O883 1.244 . S
C886 O884 1.240 . S
H887 C861 0.931 . S
H888 C870 0.931 . S
H889 C874 0.929 . S
H890 C876 0.930 . S
Co891 N895 2.148 . S
Co891 N901 2.128 . S
Co891 N911 2.194 . S
Co891 O916 2.351 . S
Co891 O917 2.155 . S
Co891 O918 2.096 . S
C892 N895 1.301 . S
C892 N896 1.328 . S
C892 H897 0.930 . S
C893 C894 1.333 . S
C893 N895 1.317 . S
C893 H898 0.930 . S
C894 C893 1.333 . S
C894 N896 1.350 . S
C894 H920 0.931 . S
N895 Co891 2.148 . S
N895 C892 1.301 . S
N895 C893 1.317 . S
N896 C892 1.328 . S
N896 C894 1.350 . S
H897 C892 0.930 . S
H898 C893 0.930 . S
C899 O900 1.224 . S
C899 O918 1.247 . S
O900 C899 1.224 . S
N901 Co891 2.128 . S
N901 C902 1.355 . S
N901 C904 1.311 . S
C902 N901 1.355 . S
C902 C903 1.363 . S
C902 H914 0.929 . S
C903 C902 1.363 . S
C903 N905 1.375 . S
C903 H921 0.931 . S
C904 N901 1.311 . S
C904 N905 1.347 . S
C904 H915 0.929 . S
N905 C903 1.375 . S
N905 C904 1.347 . S
C906 C909 1.365 . S
C906 N911 1.328 . S
C906 H912 0.929 . S
C907 C908 1.362 . S
C907 C910 1.378 . S
C907 H922 0.929 . S
C908 C907 1.362 . S
C908 C909 1.366 . S
C909 C906 1.365 . S
C909 C908 1.366 . S
C909 H923 0.930 . S
C910 C907 1.378 . S
C910 N911 1.315 . S
C910 H913 0.930 . S
N911 Co891 2.194 . S
N911 C906 1.328 . S
N911 C910 1.315 . S
H912 C906 0.929 . S
H913 C910 0.930 . S
H914 C902 0.929 . S
H915 C904 0.929 . S
O916 Co891 2.351 . S
O916 C919 1.244 . S
O917 Co891 2.155 . S
O917 C919 1.240 . S
O918 Co891 2.096 . S
O918 C899 1.247 . S
C919 O916 1.244 . S
C919 O917 1.240 . S
H920 C894 0.931 . S
H921 C903 0.931 . S
H922 C907 0.929 . S
H923 C909 0.930 . S
Co924 N928 2.148 . S
Co924 N934 2.128 . S
Co924 N944 2.194 . S
Co924 O949 2.351 1_556 S
Co924 O950 2.155 . S
Co924 O951 2.096 . S
C925 N928 1.301 . S
C925 N929 1.328 . S
C925 H930 0.930 . S
C926 C927 1.333 . S
C926 N928 1.317 . S
C926 H931 0.930 . S
C927 C926 1.333 . S
C927 N929 1.350 . S
C927 H953 0.931 . S
N928 Co924 2.148 . S
N928 C925 1.301 . S
N928 C926 1.317 . S
N929 C925 1.328 . S
N929 C927 1.350 . S
H930 C925 0.930 . S
H931 C926 0.930 . S
C932 O933 1.224 . S
C932 O951 1.247 . S
O933 C932 1.224 . S
N934 Co924 2.128 . S
N934 C935 1.355 . S
N934 C937 1.311 . S
C935 N934 1.355 . S
C935 C936 1.363 . S
C935 H947 0.929 . S
C936 C935 1.363 . S
C936 N938 1.375 . S
C936 H954 0.931 . S
C937 N934 1.311 . S
C937 N938 1.347 . S
C937 H948 0.929 . S
N938 C936 1.375 . S
N938 C937 1.347 . S
C939 C942 1.365 . S
C939 N944 1.328 . S
C939 H945 0.929 . S
C940 C941 1.362 . S
C940 C943 1.378 . S
C940 H955 0.929 . S
C941 C940 1.362 . S
C941 C942 1.366 . S
C942 C939 1.365 . S
C942 C941 1.366 . S
C942 H956 0.930 . S
C943 C940 1.378 . S
C943 N944 1.315 . S
C943 H946 0.930 . S
N944 Co924 2.194 . S
N944 C939 1.328 . S
N944 C943 1.315 . S
H945 C939 0.929 . S
H946 C943 0.930 . S
H947 C935 0.929 . S
H948 C937 0.929 . S
O949 Co924 2.351 1_554 S
O949 C952 1.244 . S
O950 Co924 2.155 . S
O950 C952 1.240 1_556 S
O951 Co924 2.096 . S
O951 C932 1.247 . S
C952 O949 1.244 . S
C952 O950 1.240 1_554 S
H953 C927 0.931 . S
H954 C936 0.931 . S
H955 C940 0.929 . S
H956 C942 0.930 . S
Co957 N961 2.148 . S
Co957 N967 2.128 . S
Co957 N977 2.194 . S
Co957 O982 2.351 . S
Co957 O983 2.155 . S
Co957 O984 2.096 . S
C958 N961 1.301 . S
C958 N962 1.328 . S
C958 H963 0.930 . S
C959 C960 1.333 . S
C959 N961 1.317 . S
C959 H964 0.930 . S
C960 C959 1.333 . S
C960 N962 1.350 . S
C960 H986 0.931 . S
N961 Co957 2.148 . S
N961 C958 1.301 . S
N961 C959 1.317 . S
N962 C958 1.328 . S
N962 C960 1.350 . S
H963 C958 0.930 . S
H964 C959 0.930 . S
C965 O966 1.224 . S
C965 O984 1.247 . S
O966 C965 1.224 . S
N967 Co957 2.128 . S
N967 C968 1.355 . S
N967 C970 1.311 . S
C968 N967 1.355 . S
C968 C969 1.363 . S
C968 H980 0.929 . S
C969 C968 1.363 . S
C969 N971 1.375 . S
C969 H987 0.931 . S
C970 N967 1.311 . S
C970 N971 1.347 . S
C970 H981 0.929 . S
N971 C969 1.375 . S
N971 C970 1.347 . S
C972 C975 1.365 . S
C972 N977 1.328 . S
C972 H978 0.929 . S
C973 C974 1.362 . S
C973 C976 1.378 . S
C973 H988 0.929 . S
C974 C973 1.362 . S
C974 C975 1.366 . S
C975 C972 1.365 . S
C975 C974 1.366 . S
C975 H989 0.930 . S
C976 C973 1.378 . S
C976 N977 1.315 . S
C976 H979 0.930 . S
N977 Co957 2.194 . S
N977 C972 1.328 . S
N977 C976 1.315 . S
H978 C972 0.929 . S
H979 C976 0.930 . S
H980 C968 0.929 . S
H981 C970 0.929 . S
O982 Co957 2.351 . S
O982 C985 1.244 . S
O983 Co957 2.155 . S
O983 C985 1.240 . S
O984 Co957 2.096 . S
O984 C965 1.247 . S
C985 O982 1.244 . S
C985 O983 1.240 . S
H986 C960 0.931 . S
H987 C969 0.931 . S
H988 C973 0.929 . S
H989 C975 0.930 . S
Co990 N994 2.148 . S
Co990 N1000 2.128 . S
Co990 N1010 2.194 . S
Co990 O1015 2.351 . S
Co990 O1016 2.155 . S
Co990 O1017 2.096 . S
C991 N994 1.301 . S
C991 N995 1.328 . S
C991 H996 0.930 . S
C992 C993 1.333 . S
C992 N994 1.317 . S
C992 H997 0.930 . S
C993 C992 1.333 . S
C993 N995 1.350 . S
C993 H1019 0.931 . S
N994 Co990 2.148 . S
N994 C991 1.301 . S
N994 C992 1.317 . S
N995 C991 1.328 . S
N995 C993 1.350 . S
H996 C991 0.930 . S
H997 C992 0.930 . S
C998 O999 1.224 . S
C998 O1017 1.247 . S
O999 C998 1.224 . S
N1000 Co990 2.128 . S
N1000 C1001 1.364 . S
N1000 C1003 1.311 1_565 S
C1001 N1000 1.364 . S
C1001 C1002 1.333 1_565 S
C1001 H1013 0.949 . S
C1002 C1001 1.333 1_545 S
C1002 N1004 1.375 . S
C1002 H1020 0.931 . S
C1003 N1000 1.311 1_545 S
C1003 N1004 1.347 . S
C1003 H1014 0.929 . S
N1004 C1002 1.375 . S
N1004 C1003 1.347 . S
C1005 C1008 1.365 . S
C1005 N1010 1.328 . S
C1005 H1011 0.929 . S
C1006 C1007 1.362 . S
C1006 C1009 1.378 . S
C1006 H1021 0.929 . S
C1007 C1006 1.362 . S
C1007 C1008 1.366 . S
C1008 C1005 1.365 . S
C1008 C1007 1.366 . S
C1008 H1022 0.930 . S
C1009 C1006 1.378 . S
C1009 N1010 1.315 . S
C1009 H1012 0.930 . S
N1010 Co990 2.194 . S
N1010 C1005 1.328 . S
N1010 C1009 1.315 . S
H1011 C1005 0.929 . S
H1012 C1009 0.930 . S
H1013 C1001 0.949 . S
H1014 C1003 0.929 . S
O1015 Co990 2.351 . S
O1015 C1018 1.244 . S
O1016 Co990 2.155 . S
O1016 C1018 1.240 . S
O1017 Co990 2.096 . S
O1017 C998 1.247 . S
C1018 O1015 1.244 . S
C1018 O1016 1.240 . S
H1019 C993 0.931 . S
H1020 C1002 0.931 . S
H1021 C1006 0.929 . S
H1022 C1008 0.930 . S
Co1023 N1027 2.148 . S
Co1023 N1033 2.128 . S
Co1023 N1043 2.194 . S
Co1023 O1048 2.351 . S
Co1023 O1049 2.155 . S
Co1023 O1050 2.096 . S
C1024 N1027 1.301 . S
C1024 N1028 1.328 . S
C1024 H1029 0.930 . S
C1025 C1026 1.333 . S
C1025 N1027 1.317 . S
C1025 H1030 0.930 . S
C1026 C1025 1.333 . S
C1026 N1028 1.350 . S
C1026 H1052 0.931 . S
N1027 Co1023 2.148 . S
N1027 C1024 1.301 . S
N1027 C1025 1.317 . S
N1028 C1024 1.328 . S
N1028 C1026 1.350 . S
H1029 C1024 0.930 . S
H1030 C1025 0.930 . S
C1031 O1032 1.224 . S
C1031 O1050 1.247 . S
O1032 C1031 1.224 . S
N1033 Co1023 2.128 . S
N1033 C1034 1.355 . S
N1033 C1036 1.311 . S
C1034 N1033 1.355 . S
C1034 C1035 1.363 . S
C1034 H1046 0.929 . S
C1035 C1034 1.363 . S
C1035 N1037 1.375 . S
C1035 H1053 0.931 . S
C1036 N1033 1.311 . S
C1036 N1037 1.347 . S
C1036 H1047 0.929 . S
N1037 C1035 1.375 . S
N1037 C1036 1.347 . S
C1038 C1041 1.365 . S
C1038 N1043 1.328 . S
C1038 H1044 0.929 . S
C1039 C1040 1.362 . S
C1039 C1042 1.378 . S
C1039 H1054 0.929 . S
C1040 C1039 1.362 . S
C1040 C1041 1.366 . S
C1041 C1038 1.365 . S
C1041 C1040 1.366 . S
C1041 H1055 0.930 . S
C1042 C1039 1.378 . S
C1042 N1043 1.315 . S
C1042 H1045 0.930 . S
N1043 Co1023 2.194 . S
N1043 C1038 1.328 . S
N1043 C1042 1.315 . S
H1044 C1038 0.929 . S
H1045 C1042 0.930 . S
H1046 C1034 0.929 . S
H1047 C1036 0.929 . S
O1048 Co1023 2.351 . S
O1048 C1051 1.244 . S
O1049 Co1023 2.155 . S
O1049 C1051 1.240 . S
O1050 Co1023 2.096 . S
O1050 C1031 1.247 . S
C1051 O1048 1.244 . S
C1051 O1049 1.240 . S
H1052 C1026 0.931 . S
H1053 C1035 0.931 . S
H1054 C1039 0.929 . S
H1055 C1041 0.930 . S
Co1056 N1060 2.148 . S
Co1056 N1066 2.128 . S
Co1056 N1076 2.194 . S
Co1056 O1081 2.351 . S
Co1056 O1082 2.155 . S
Co1056 O1083 2.096 . S
C1057 N1060 1.301 . S
C1057 N1061 1.328 . S
C1057 H1062 0.930 . S
C1058 C1059 1.333 . S
C1058 N1060 1.317 . S
C1058 H1063 0.930 . S
C1059 C1058 1.333 . S
C1059 N1061 1.350 . S
C1059 H1085 0.931 . S
N1060 Co1056 2.148 . S
N1060 C1057 1.301 . S
N1060 C1058 1.317 . S
N1061 C1057 1.328 . S
N1061 C1059 1.350 . S
H1062 C1057 0.930 . S
H1063 C1058 0.930 . S
C1064 O1065 1.224 . S
C1064 O1083 1.247 . S
O1065 C1064 1.224 . S
N1066 Co1056 2.128 . S
N1066 C1067 1.362 . S
N1066 C1069 1.311 1_556 S
C1067 N1066 1.362 . S
C1067 C1068 1.338 1_556 S
C1067 H1079 0.945 . S
C1068 C1067 1.338 1_554 S
C1068 N1070 1.375 . S
C1068 H1086 0.931 . S
C1069 N1066 1.311 1_554 S
C1069 N1070 1.347 . S
C1069 H1080 0.929 . S
N1070 C1068 1.375 . S
N1070 C1069 1.347 . S
C1071 C1074 1.365 . S
C1071 N1076 1.328 . S
C1071 H1077 0.929 . S
C1072 C1073 1.362 . S
C1072 C1075 1.378 . S
C1072 H1087 0.929 . S
C1073 C1072 1.362 . S
C1073 C1074 1.366 . S
C1074 C1071 1.365 . S
C1074 C1073 1.366 . S
C1074 H1088 0.930 . S
C1075 C1072 1.378 . S
C1075 N1076 1.315 . S
C1075 H1078 0.930 . S
N1076 Co1056 2.194 . S
N1076 C1071 1.328 . S
N1076 C1075 1.315 . S
H1077 C1071 0.929 . S
H1078 C1075 0.930 . S
H1079 C1067 0.945 . S
H1080 C1069 0.929 . S
O1081 Co1056 2.351 . S
O1081 C1084 1.244 . S
O1082 Co1056 2.155 . S
O1082 C1084 1.240 . S
O1083 Co1056 2.096 . S
O1083 C1064 1.247 . S
C1084 O1081 1.244 . S
C1084 O1082 1.240 . S
H1085 C1059 0.931 . S
H1086 C1068 0.931 . S
H1087 C1072 0.929 . S
H1088 C1074 0.930 . S
Co1089 N1093 2.148 . S
Co1089 N1099 2.128 . S
Co1089 N1109 2.194 . S
Co1089 O1114 2.351 . S
Co1089 O1115 2.155 . S
Co1089 O1116 2.096 . S
C1090 N1093 1.301 . S
C1090 N1094 1.328 . S
C1090 H1095 0.930 . S
C1091 C1092 1.333 . S
C1091 N1093 1.317 . S
C1091 H1096 0.930 . S
C1092 C1091 1.333 . S
C1092 N1094 1.350 . S
C1092 H1118 0.931 . S
N1093 Co1089 2.148 . S
N1093 C1090 1.301 . S
N1093 C1091 1.317 . S
N1094 C1090 1.328 . S
N1094 C1092 1.350 . S
H1095 C1090 0.930 . S
H1096 C1091 0.930 . S
C1097 O1098 1.224 . S
C1097 O1116 1.247 . S
O1098 C1097 1.224 . S
N1099 Co1089 2.128 . S
N1099 C1100 1.355 . S
N1099 C1102 1.311 . S
C1100 N1099 1.355 . S
C1100 C1101 1.363 . S
C1100 H1112 0.929 . S
C1101 C1100 1.363 . S
C1101 N1103 1.375 . S
C1101 H1119 0.931 . S
C1102 N1099 1.311 . S
C1102 N1103 1.347 . S
C1102 H1113 0.929 . S
N1103 C1101 1.375 . S
N1103 C1102 1.347 . S
C1104 C1107 1.365 . S
C1104 N1109 1.328 . S
C1104 H1110 0.929 . S
C1105 C1106 1.362 . S
C1105 C1108 1.378 . S
C1105 H1120 0.929 . S
C1106 C1105 1.362 . S
C1106 C1107 1.366 . S
C1107 C1104 1.365 . S
C1107 C1106 1.366 . S
C1107 H1121 0.930 . S
C1108 C1105 1.378 . S
C1108 N1109 1.315 . S
C1108 H1111 0.930 . S
N1109 Co1089 2.194 . S
N1109 C1104 1.328 . S
N1109 C1108 1.315 . S
H1110 C1104 0.929 . S
H1111 C1108 0.930 . S
H1112 C1100 0.929 . S
H1113 C1102 0.929 . S
O1114 Co1089 2.351 . S
O1114 C1117 1.244 . S
O1115 Co1089 2.155 . S
O1115 C1117 1.240 . S
O1116 Co1089 2.096 . S
O1116 C1097 1.247 . S
C1117 O1114 1.244 . S
C1117 O1115 1.240 . S
H1118 C1092 0.931 . S
H1119 C1101 0.931 . S
H1120 C1105 0.929 . S
H1121 C1107 0.930 . S
Co1122 N1126 2.148 . S
Co1122 N1132 2.128 . S
Co1122 N1142 2.194 . S
Co1122 O1147 2.351 1_655 S
Co1122 O1148 2.155 . S
Co1122 O1149 2.096 . S
C1123 N1126 1.301 . S
C1123 N1127 1.328 . S
C1123 H1128 0.930 . S
C1124 C1125 1.333 . S
C1124 N1126 1.317 . S
C1124 H1129 0.930 . S
C1125 C1124 1.333 . S
C1125 N1127 1.350 . S
C1125 H1151 0.931 . S
N1126 Co1122 2.148 . S
N1126 C1123 1.301 . S
N1126 C1124 1.317 . S
N1127 C1123 1.328 . S
N1127 C1125 1.350 . S
H1128 C1123 0.930 . S
H1129 C1124 0.930 . S
C1130 O1131 1.224 . S
C1130 O1149 1.247 . S
O1131 C1130 1.224 . S
N1132 Co1122 2.128 . S
N1132 C1133 1.355 . S
N1132 C1135 1.311 . S
C1133 N1132 1.355 . S
C1133 C1134 1.363 . S
C1133 H1145 0.929 . S
C1134 C1133 1.363 . S
C1134 N1136 1.375 . S
C1134 H1152 0.931 . S
C1135 N1132 1.311 . S
C1135 N1136 1.347 . S
C1135 H1146 0.929 . S
N1136 C1134 1.375 . S
N1136 C1135 1.347 . S
C1137 C1140 1.365 . S
C1137 N1142 1.328 . S
C1137 H1143 0.929 . S
C1138 C1139 1.362 . S
C1138 C1141 1.378 . S
C1138 H1153 0.929 . S
C1139 C1138 1.362 . S
C1139 C1140 1.366 . S
C1140 C1137 1.365 . S
C1140 C1139 1.366 . S
C1140 H1154 0.930 . S
C1141 C1138 1.378 . S
C1141 N1142 1.315 . S
C1141 H1144 0.930 . S
N1142 Co1122 2.194 . S
N1142 C1137 1.328 . S
N1142 C1141 1.315 . S
H1143 C1137 0.929 . S
H1144 C1141 0.930 . S
H1145 C1133 0.929 . S
H1146 C1135 0.929 . S
O1147 Co1122 2.351 1_455 S
O1147 C1150 1.244 . S
O1148 Co1122 2.155 . S
O1148 C1150 1.240 1_655 S
O1149 Co1122 2.096 . S
O1149 C1130 1.247 . S
C1150 O1147 1.244 . S
C1150 O1148 1.240 1_455 S
H1151 C1125 0.931 . S
H1152 C1134 0.931 . S
H1153 C1138 0.929 . S
H1154 C1140 0.930 . S
Co1155 N1159 2.148 . S
Co1155 N1165 2.128 . S
Co1155 N1175 2.194 . S
Co1155 O1180 2.351 . S
Co1155 O1181 2.155 . S
Co1155 O1182 2.096 . S
C1156 N1159 1.301 . S
C1156 N1160 1.328 . S
C1156 H1161 0.930 . S
C1157 C1158 1.333 . S
C1157 N1159 1.317 . S
C1157 H1162 0.930 . S
C1158 C1157 1.333 . S
C1158 N1160 1.350 . S
C1158 H1184 0.931 . S
N1159 Co1155 2.148 . S
N1159 C1156 1.301 . S
N1159 C1157 1.317 . S
N1160 C1156 1.328 . S
N1160 C1158 1.350 . S
H1161 C1156 0.930 . S
H1162 C1157 0.930 . S
C1163 O1164 1.224 . S
C1163 O1182 1.247 . S
O1164 C1163 1.224 . S
N1165 Co1155 2.128 . S
N1165 C1166 1.355 . S
N1165 C1168 1.311 . S
C1166 N1165 1.355 . S
C1166 C1167 1.363 . S
C1166 H1178 0.929 . S
C1167 C1166 1.363 . S
C1167 N1169 1.375 . S
C1167 H1185 0.931 . S
C1168 N1165 1.311 . S
C1168 N1169 1.347 . S
C1168 H1179 0.929 . S
N1169 C1167 1.375 . S
N1169 C1168 1.347 . S
C1170 C1173 1.365 . S
C1170 N1175 1.328 . S
C1170 H1176 0.929 . S
C1171 C1172 1.362 . S
C1171 C1174 1.378 . S
C1171 H1186 0.929 . S
C1172 C1171 1.362 . S
C1172 C1173 1.366 . S
C1173 C1170 1.365 . S
C1173 C1172 1.366 . S
C1173 H1187 0.930 . S
C1174 C1171 1.378 . S
C1174 N1175 1.315 . S
C1174 H1177 0.930 . S
N1175 Co1155 2.194 . S
N1175 C1170 1.328 . S
N1175 C1174 1.315 . S
H1176 C1170 0.929 . S
H1177 C1174 0.930 . S
H1178 C1166 0.929 . S
H1179 C1168 0.929 . S
O1180 Co1155 2.351 . S
O1180 C1183 1.244 . S
O1181 Co1155 2.155 . S
O1181 C1183 1.240 . S
O1182 Co1155 2.096 . S
O1182 C1163 1.247 . S
C1183 O1180 1.244 . S
C1183 O1181 1.240 . S
H1184 C1158 0.931 . S
H1185 C1167 0.931 . S
H1186 C1171 0.929 . S
H1187 C1173 0.930 . S
Co1188 N1192 2.148 . S
Co1188 N1198 2.128 . S
Co1188 N1208 2.194 . S
Co1188 O1213 2.351 . S
Co1188 O1214 2.155 . S
Co1188 O1215 2.096 . S
C1189 N1192 1.301 . S
C1189 N1193 1.328 . S
C1189 H1194 0.930 . S
C1190 C1191 1.333 . S
C1190 N1192 1.317 . S
C1190 H1195 0.930 . S
C1191 C1190 1.333 . S
C1191 N1193 1.350 . S
C1191 H1217 0.931 . S
N1192 Co1188 2.148 . S
N1192 C1189 1.301 . S
N1192 C1190 1.317 . S
N1193 C1189 1.328 . S
N1193 C1191 1.350 . S
H1194 C1189 0.930 . S
H1195 C1190 0.930 . S
C1196 O1197 1.224 . S
C1196 O1215 1.247 . S
O1197 C1196 1.224 . S
N1198 Co1188 2.128 . S
N1198 C1199 1.355 . S
N1198 C1201 1.311 . S
C1199 N1198 1.355 . S
C1199 C1200 1.363 . S
C1199 H1211 0.929 . S
C1200 C1199 1.363 . S
C1200 N1202 1.375 . S
C1200 H1218 0.931 . S
C1201 N1198 1.311 . S
C1201 N1202 1.347 . S
C1201 H1212 0.929 . S
N1202 C1200 1.375 . S
N1202 C1201 1.347 . S
C1203 C1206 1.365 . S
C1203 N1208 1.328 . S
C1203 H1209 0.929 . S
C1204 C1205 1.362 . S
C1204 C1207 1.378 . S
C1204 H1219 0.929 . S
C1205 C1204 1.362 . S
C1205 C1206 1.366 . S
C1206 C1203 1.365 . S
C1206 C1205 1.366 . S
C1206 H1220 0.930 . S
C1207 C1204 1.378 . S
C1207 N1208 1.315 . S
C1207 H1210 0.930 . S
N1208 Co1188 2.194 . S
N1208 C1203 1.328 . S
N1208 C1207 1.315 . S
H1209 C1203 0.929 . S
H1210 C1207 0.930 . S
H1211 C1199 0.929 . S
H1212 C1201 0.929 . S
O1213 Co1188 2.351 . S
O1213 C1216 1.244 . S
O1214 Co1188 2.155 . S
O1214 C1216 1.240 . S
O1215 Co1188 2.096 . S
O1215 C1196 1.247 . S
C1216 O1213 1.244 . S
C1216 O1214 1.240 . S
H1217 C1191 0.931 . S
H1218 C1200 0.931 . S
H1219 C1204 0.929 . S
H1220 C1206 0.930 . S
Co1221 N1225 2.148 . S
Co1221 N1231 2.128 . S
Co1221 N1241 2.194 . S
Co1221 O1246 2.351 . S
Co1221 O1247 2.155 . S
Co1221 O1248 2.096 . S
C1222 N1225 1.301 1_554 S
C1222 N1226 1.328 . S
C1222 H1227 0.930 . S
C1223 C1224 1.333 . S
C1223 N1225 1.317 1_554 S
C1223 H1228 0.930 1_554 S
C1224 C1223 1.333 . S
C1224 N1226 1.350 . S
C1224 H1250 0.931 . S
N1225 Co1221 2.148 . S
N1225 C1222 1.301 1_556 S
N1225 C1223 1.317 1_556 S
N1226 C1222 1.328 . S
N1226 C1224 1.350 . S
H1227 C1222 0.930 . S
H1228 C1223 0.930 1_556 S
C1229 O1230 1.224 . S
C1229 O1248 1.247 . S
O1230 C1229 1.224 . S
N1231 Co1221 2.128 . S
N1231 C1232 1.355 . S
N1231 C1234 1.311 . S
C1232 N1231 1.355 . S
C1232 C1233 1.363 . S
C1232 H1244 0.929 . S
C1233 C1232 1.363 . S
C1233 N1235 1.375 . S
C1233 H1251 0.931 . S
C1234 N1231 1.311 . S
C1234 N1235 1.347 . S
C1234 H1245 0.929 . S
N1235 C1233 1.375 . S
N1235 C1234 1.347 . S
C1236 C1239 1.365 . S
C1236 N1241 1.328 . S
C1236 H1242 0.929 . S
C1237 C1238 1.362 . S
C1237 C1240 1.378 . S
C1237 H1252 0.929 . S
C1238 C1237 1.362 . S
C1238 C1239 1.366 . S
C1239 C1236 1.365 . S
C1239 C1238 1.366 . S
C1239 H1253 0.930 . S
C1240 C1237 1.378 . S
C1240 N1241 1.315 . S
C1240 H1243 0.930 . S
N1241 Co1221 2.194 . S
N1241 C1236 1.328 . S
N1241 C1240 1.315 . S
H1242 C1236 0.929 . S
H1243 C1240 0.930 . S
H1244 C1232 0.929 . S
H1245 C1234 0.929 . S
O1246 Co1221 2.351 . S
O1246 C1249 1.244 . S
O1247 Co1221 2.155 . S
O1247 C1249 1.240 . S
O1248 Co1221 2.096 . S
O1248 C1229 1.247 . S
C1249 O1246 1.244 . S
C1249 O1247 1.240 . S
H1250 C1224 0.931 . S
H1251 C1233 0.931 . S
H1252 C1237 0.929 . S
H1253 C1239 0.930 . S
Co1254 N1258 2.148 . S
Co1254 N1264 2.128 . S
Co1254 N1274 2.194 . S
Co1254 O1279 2.351 1_655 S
Co1254 O1280 2.155 . S
Co1254 O1281 2.096 . S
C1255 N1258 1.301 . S
C1255 N1259 1.328 . S
C1255 H1260 0.930 . S
C1256 C1257 1.333 . S
C1256 N1258 1.317 . S
C1256 H1261 0.930 . S
C1257 C1256 1.333 . S
C1257 N1259 1.350 . S
C1257 H1283 0.931 . S
N1258 Co1254 2.148 . S
N1258 C1255 1.301 . S
N1258 C1256 1.317 . S
N1259 C1255 1.328 . S
N1259 C1257 1.350 . S
H1260 C1255 0.930 . S
H1261 C1256 0.930 . S
C1262 O1263 1.224 . S
C1262 O1281 1.247 . S
O1263 C1262 1.224 . S
N1264 Co1254 2.128 . S
N1264 C1265 1.355 . S
N1264 C1267 1.311 . S
C1265 N1264 1.355 . S
C1265 C1266 1.363 . S
C1265 H1277 0.929 . S
C1266 C1265 1.363 . S
C1266 N1268 1.375 . S
C1266 H1284 0.931 . S
C1267 N1264 1.311 . S
C1267 N1268 1.347 . S
C1267 H1278 0.929 . S
N1268 C1266 1.375 . S
N1268 C1267 1.347 . S
C1269 C1272 1.365 . S
C1269 N1274 1.328 . S
C1269 H1275 0.929 . S
C1270 C1271 1.362 . S
C1270 C1273 1.378 . S
C1270 H1285 0.929 . S
C1271 C1270 1.362 . S
C1271 C1272 1.366 . S
C1272 C1269 1.365 . S
C1272 C1271 1.366 . S
C1272 H1286 0.930 . S
C1273 C1270 1.378 . S
C1273 N1274 1.315 . S
C1273 H1276 0.930 . S
N1274 Co1254 2.194 . S
N1274 C1269 1.328 . S
N1274 C1273 1.315 . S
H1275 C1269 0.929 . S
H1276 C1273 0.930 . S
H1277 C1265 0.929 . S
H1278 C1267 0.929 . S
O1279 Co1254 2.351 1_455 S
O1279 C1282 1.244 . S
O1280 Co1254 2.155 . S
O1280 C1282 1.240 1_655 S
O1281 Co1254 2.096 . S
O1281 C1262 1.247 . S
C1282 O1279 1.244 . S
C1282 O1280 1.240 1_455 S
H1283 C1257 0.931 . S
H1284 C1266 0.931 . S
H1285 C1270 0.929 . S
H1286 C1272 0.930 . S
Co1287 N1291 2.148 . S
Co1287 N1297 2.128 . S
Co1287 N1307 2.194 . S
Co1287 O1312 2.351 . S
Co1287 O1313 2.155 . S
Co1287 O1314 2.096 . S
C1288 N1291 1.301 . S
C1288 N1292 1.328 . S
C1288 H1293 0.930 . S
C1289 C1290 1.333 . S
C1289 N1291 1.317 . S
C1289 H1294 0.930 . S
C1290 C1289 1.333 . S
C1290 N1292 1.350 . S
C1290 H1316 0.931 . S
N1291 Co1287 2.148 . S
N1291 C1288 1.301 . S
N1291 C1289 1.317 . S
N1292 C1288 1.328 . S
N1292 C1290 1.350 . S
H1293 C1288 0.930 . S
H1294 C1289 0.930 . S
C1295 O1296 1.224 . S
C1295 O1314 1.247 . S
O1296 C1295 1.224 . S
N1297 Co1287 2.128 . S
N1297 C1298 1.355 . S
N1297 C1300 1.311 . S
C1298 N1297 1.355 . S
C1298 C1299 1.363 . S
C1298 H1310 0.929 . S
C1299 C1298 1.363 . S
C1299 N1301 1.375 . S
C1299 H1317 0.931 . S
C1300 N1297 1.311 . S
C1300 N1301 1.347 . S
C1300 H1311 0.929 . S
N1301 C1299 1.375 . S
N1301 C1300 1.347 . S
C1302 C1305 1.365 . S
C1302 N1307 1.328 . S
C1302 H1308 0.929 . S
C1303 C1304 1.362 . S
C1303 C1306 1.378 . S
C1303 H1318 0.929 . S
C1304 C1303 1.362 . S
C1304 C1305 1.366 . S
C1305 C1302 1.365 . S
C1305 C1304 1.366 . S
C1305 H1319 0.930 . S
C1306 C1303 1.378 . S
C1306 N1307 1.315 . S
C1306 H1309 0.930 . S
N1307 Co1287 2.194 . S
N1307 C1302 1.328 . S
N1307 C1306 1.315 . S
H1308 C1302 0.929 . S
H1309 C1306 0.930 . S
H1310 C1298 0.929 . S
H1311 C1300 0.929 . S
O1312 Co1287 2.351 . S
O1312 C1315 1.244 . S
O1313 Co1287 2.155 . S
O1313 C1315 1.240 . S
O1314 Co1287 2.096 . S
O1314 C1295 1.247 . S
C1315 O1312 1.244 . S
C1315 O1313 1.240 . S
H1316 C1290 0.931 . S
H1317 C1299 0.931 . S
H1318 C1303 0.929 . S
H1319 C1305 0.930 . S
Co1320 N1324 2.148 . S
Co1320 N1330 2.128 . S
Co1320 N1340 2.194 . S
Co1320 O1345 2.351 . S
Co1320 O1346 2.155 . S
Co1320 O1347 2.096 . S
C1321 N1324 1.301 . S
C1321 N1325 1.328 . S
C1321 H1326 0.930 . S
C1322 C1323 1.333 . S
C1322 N1324 1.317 . S
C1322 H1327 0.930 . S
C1323 C1322 1.333 . S
C1323 N1325 1.350 . S
C1323 H1349 0.931 . S
N1324 Co1320 2.148 . S
N1324 C1321 1.301 . S
N1324 C1322 1.317 . S
N1325 C1321 1.328 . S
N1325 C1323 1.350 . S
H1326 C1321 0.930 . S
H1327 C1322 0.930 . S
C1328 O1329 1.224 . S
C1328 O1347 1.247 . S
O1329 C1328 1.224 . S
N1330 Co1320 2.128 . S
N1330 C1331 1.362 . S
N1330 C1333 1.311 1_655 S
C1331 N1330 1.362 . S
C1331 C1332 1.338 1_655 S
C1331 H1343 0.945 . S
C1332 C1331 1.338 1_455 S
C1332 N1334 1.375 . S
C1332 H1350 0.931 . S
C1333 N1330 1.311 1_455 S
C1333 N1334 1.347 . S
C1333 H1344 0.929 . S
N1334 C1332 1.375 . S
N1334 C1333 1.347 . S
C1335 C1338 1.365 . S
C1335 N1340 1.328 . S
C1335 H1341 0.929 . S
C1336 C1337 1.362 . S
C1336 C1339 1.378 . S
C1336 H1351 0.929 . S
C1337 C1336 1.362 . S
C1337 C1338 1.366 . S
C1338 C1335 1.365 . S
C1338 C1337 1.366 . S
C1338 H1352 0.930 . S
C1339 C1336 1.378 . S
C1339 N1340 1.315 . S
C1339 H1342 0.930 . S
N1340 Co1320 2.194 . S
N1340 C1335 1.328 . S
N1340 C1339 1.315 . S
H1341 C1335 0.929 . S
H1342 C1339 0.930 . S
H1343 C1331 0.945 . S
H1344 C1333 0.929 . S
O1345 Co1320 2.351 . S
O1345 C1348 1.244 . S
O1346 Co1320 2.155 . S
O1346 C1348 1.240 . S
O1347 Co1320 2.096 . S
O1347 C1328 1.247 . S
C1348 O1345 1.244 . S
C1348 O1346 1.240 . S
H1349 C1323 0.931 . S
H1350 C1332 0.931 . S
H1351 C1336 0.929 . S
H1352 C1338 0.930 . S
Co1353 N1357 2.148 . S
Co1353 N1363 2.128 . S
Co1353 N1373 2.194 . S
Co1353 O1378 2.351 1_565 S
Co1353 O1379 2.155 . S
Co1353 O1380 2.096 . S
C1354 N1357 1.301 . S
C1354 N1358 1.328 . S
C1354 H1359 0.930 . S
C1355 C1356 1.333 . S
C1355 N1357 1.317 . S
C1355 H1360 0.930 . S
C1356 C1355 1.333 . S
C1356 N1358 1.350 . S
C1356 H1382 0.931 . S
N1357 Co1353 2.148 . S
N1357 C1354 1.301 . S
N1357 C1355 1.317 . S
N1358 C1354 1.328 . S
N1358 C1356 1.350 . S
H1359 C1354 0.930 . S
H1360 C1355 0.930 . S
C1361 O1362 1.224 . S
C1361 O1380 1.247 . S
O1362 C1361 1.224 . S
N1363 Co1353 2.128 . S
N1363 C1364 1.355 . S
N1363 C1366 1.311 . S
C1364 N1363 1.355 . S
C1364 C1365 1.363 . S
C1364 H1376 0.929 . S
C1365 C1364 1.363 . S
C1365 N1367 1.375 . S
C1365 H1383 0.931 . S
C1366 N1363 1.311 . S
C1366 N1367 1.347 . S
C1366 H1377 0.929 . S
N1367 C1365 1.375 . S
N1367 C1366 1.347 . S
C1368 C1371 1.365 . S
C1368 N1373 1.328 . S
C1368 H1374 0.929 . S
C1369 C1370 1.362 . S
C1369 C1372 1.378 . S
C1369 H1384 0.929 . S
C1370 C1369 1.362 . S
C1370 C1371 1.366 . S
C1371 C1368 1.365 . S
C1371 C1370 1.366 . S
C1371 H1385 0.930 . S
C1372 C1369 1.378 . S
C1372 N1373 1.315 . S
C1372 H1375 0.930 . S
N1373 Co1353 2.194 . S
N1373 C1368 1.328 . S
N1373 C1372 1.315 . S
H1374 C1368 0.929 . S
H1375 C1372 0.930 . S
H1376 C1364 0.929 . S
H1377 C1366 0.929 . S
O1378 Co1353 2.351 1_545 S
O1378 C1381 1.244 . S
O1379 Co1353 2.155 . S
O1379 C1381 1.240 1_565 S
O1380 Co1353 2.096 . S
O1380 C1361 1.247 . S
C1381 O1378 1.244 . S
C1381 O1379 1.240 1_545 S
H1382 C1356 0.931 . S
H1383 C1365 0.931 . S
H1384 C1369 0.929 . S
H1385 C1371 0.930 . S
Co1386 N1390 2.148 . S
Co1386 N1396 2.128 . S
Co1386 N1406 2.194 . S
Co1386 O1411 2.351 . S
Co1386 O1412 2.155 . S
Co1386 O1413 2.096 . S
C1387 N1390 1.301 . S
C1387 N1391 1.328 . S
C1387 H1392 0.930 . S
C1388 C1389 1.333 . S
C1388 N1390 1.317 . S
C1388 H1393 0.930 . S
C1389 C1388 1.333 . S
C1389 N1391 1.350 . S
C1389 H1415 0.931 . S
N1390 Co1386 2.148 . S
N1390 C1387 1.301 . S
N1390 C1388 1.317 . S
N1391 C1387 1.328 . S
N1391 C1389 1.350 . S
H1392 C1387 0.930 . S
H1393 C1388 0.930 . S
C1394 O1395 1.224 . S
C1394 O1413 1.247 . S
O1395 C1394 1.224 . S
N1396 Co1386 2.128 . S
N1396 C1397 1.355 . S
N1396 C1399 1.311 . S
C1397 N1396 1.355 . S
C1397 C1398 1.363 . S
C1397 H1409 0.929 . S
C1398 C1397 1.363 . S
C1398 N1400 1.375 . S
C1398 H1416 0.931 . S
C1399 N1396 1.311 . S
C1399 N1400 1.347 . S
C1399 H1410 0.929 . S
N1400 C1398 1.375 . S
N1400 C1399 1.347 . S
C1401 C1404 1.365 . S
C1401 N1406 1.328 . S
C1401 H1407 0.929 . S
C1402 C1403 1.362 . S
C1402 C1405 1.378 . S
C1402 H1417 0.929 . S
C1403 C1402 1.362 . S
C1403 C1404 1.366 . S
C1404 C1401 1.365 . S
C1404 C1403 1.366 . S
C1404 H1418 0.930 . S
C1405 C1402 1.378 . S
C1405 N1406 1.315 . S
C1405 H1408 0.930 . S
N1406 Co1386 2.194 . S
N1406 C1401 1.328 . S
N1406 C1405 1.315 . S
H1407 C1401 0.929 . S
H1408 C1405 0.930 . S
H1409 C1397 0.929 . S
H1410 C1399 0.929 . S
O1411 Co1386 2.351 . S
O1411 C1414 1.244 . S
O1412 Co1386 2.155 . S
O1412 C1414 1.240 . S
O1413 Co1386 2.096 . S
O1413 C1394 1.247 . S
C1414 O1411 1.244 . S
C1414 O1412 1.240 . S
H1415 C1389 0.931 . S
H1416 C1398 0.931 . S
H1417 C1402 0.929 . S
H1418 C1404 0.930 . S
Co1419 N1423 2.148 . S
Co1419 N1429 2.128 . S
Co1419 N1439 2.194 . S
Co1419 O1444 2.351 . S
Co1419 O1445 2.155 . S
Co1419 O1446 2.096 . S
C1420 N1423 1.301 . S
C1420 N1424 1.328 . S
C1420 H1425 0.930 . S
C1421 C1422 1.333 . S
C1421 N1423 1.317 . S
C1421 H1426 0.930 . S
C1422 C1421 1.333 . S
C1422 N1424 1.350 . S
C1422 H1448 0.931 . S
N1423 Co1419 2.148 . S
N1423 C1420 1.301 . S
N1423 C1421 1.317 . S
N1424 C1420 1.328 . S
N1424 C1422 1.350 . S
H1425 C1420 0.930 . S
H1426 C1421 0.930 . S
C1427 O1428 1.224 . S
C1427 O1446 1.247 . S
O1428 C1427 1.224 . S
N1429 Co1419 2.128 . S
N1429 C1430 1.355 . S
N1429 C1432 1.311 . S
C1430 N1429 1.355 . S
C1430 C1431 1.363 . S
C1430 H1442 0.929 . S
C1431 C1430 1.363 . S
C1431 N1433 1.375 . S
C1431 H1449 0.931 . S
C1432 N1429 1.311 . S
C1432 N1433 1.347 . S
C1432 H1443 0.929 . S
N1433 C1431 1.375 . S
N1433 C1432 1.347 . S
C1434 C1437 1.365 . S
C1434 N1439 1.328 . S
C1434 H1440 0.929 . S
C1435 C1436 1.362 . S
C1435 C1438 1.378 . S
C1435 H1450 0.929 . S
C1436 C1435 1.362 . S
C1436 C1437 1.366 . S
C1437 C1434 1.365 . S
C1437 C1436 1.366 . S
C1437 H1451 0.930 . S
C1438 C1435 1.378 . S
C1438 N1439 1.315 . S
C1438 H1441 0.930 . S
N1439 Co1419 2.194 . S
N1439 C1434 1.328 . S
N1439 C1438 1.315 . S
H1440 C1434 0.929 . S
H1441 C1438 0.930 . S
H1442 C1430 0.929 . S
H1443 C1432 0.929 . S
O1444 Co1419 2.351 . S
O1444 C1447 1.244 . S
O1445 Co1419 2.155 . S
O1445 C1447 1.240 . S
O1446 Co1419 2.096 . S
O1446 C1427 1.247 . S
C1447 O1444 1.244 . S
C1447 O1445 1.240 . S
H1448 C1422 0.931 . S
H1449 C1431 0.931 . S
H1450 C1435 0.929 . S
H1451 C1437 0.930 . S
Co1452 N1456 2.148 . S
Co1452 N1462 2.128 . S
Co1452 N1472 2.194 . S
Co1452 O1477 2.351 . S
Co1452 O1478 2.155 . S
Co1452 O1479 2.096 . S
C1453 N1456 1.301 . S
C1453 N1457 1.328 . S
C1453 H1458 0.930 . S
C1454 C1455 1.333 . S
C1454 N1456 1.317 . S
C1454 H1459 0.930 . S
C1455 C1454 1.333 . S
C1455 N1457 1.350 . S
C1455 H1481 0.931 . S
N1456 Co1452 2.148 . S
N1456 C1453 1.301 . S
N1456 C1454 1.317 . S
N1457 C1453 1.328 . S
N1457 C1455 1.350 . S
H1458 C1453 0.930 . S
H1459 C1454 0.930 . S
C1460 O1461 1.224 . S
C1460 O1479 1.247 . S
O1461 C1460 1.224 . S
N1462 Co1452 2.128 . S
N1462 C1463 1.355 . S
N1462 C1465 1.311 . S
C1463 N1462 1.355 . S
C1463 C1464 1.363 . S
C1463 H1475 0.929 . S
C1464 C1463 1.363 . S
C1464 N1466 1.375 . S
C1464 H1482 0.931 . S
C1465 N1462 1.311 . S
C1465 N1466 1.347 . S
C1465 H1476 0.929 . S
N1466 C1464 1.375 . S
N1466 C1465 1.347 . S
C1467 C1470 1.365 . S
C1467 N1472 1.328 . S
C1467 H1473 0.929 . S
C1468 C1469 1.362 . S
C1468 C1471 1.378 . S
C1468 H1483 0.929 . S
C1469 C1468 1.362 . S
C1469 C1470 1.366 . S
C1470 C1467 1.365 . S
C1470 C1469 1.366 . S
C1470 H1484 0.930 . S
C1471 C1468 1.378 . S
C1471 N1472 1.315 . S
C1471 H1474 0.930 . S
N1472 Co1452 2.194 . S
N1472 C1467 1.328 . S
N1472 C1471 1.315 . S
H1473 C1467 0.929 . S
H1474 C1471 0.930 . S
H1475 C1463 0.929 . S
H1476 C1465 0.929 . S
O1477 Co1452 2.351 . S
O1477 C1480 1.244 . S
O1478 Co1452 2.155 . S
O1478 C1480 1.240 . S
O1479 Co1452 2.096 . S
O1479 C1460 1.247 . S
C1480 O1477 1.244 . S
C1480 O1478 1.240 . S
H1481 C1455 0.931 . S
H1482 C1464 0.931 . S
H1483 C1468 0.929 . S
H1484 C1470 0.930 . S
Co1485 N1489 2.148 . S
Co1485 N1495 2.128 . S
Co1485 N1505 2.194 . S
Co1485 O1510 2.351 . S
Co1485 O1511 2.155 . S
Co1485 O1512 2.096 . S
C1486 N1489 1.301 . S
C1486 N1490 1.328 . S
C1486 H1491 0.930 . S
C1487 C1488 1.333 . S
C1487 N1489 1.317 . S
C1487 H1492 0.930 . S
C1488 C1487 1.333 . S
C1488 N1490 1.350 . S
C1488 H1514 0.931 . S
N1489 Co1485 2.148 . S
N1489 C1486 1.301 . S
N1489 C1487 1.317 . S
N1490 C1486 1.328 . S
N1490 C1488 1.350 . S
H1491 C1486 0.930 . S
H1492 C1487 0.930 . S
C1493 O1494 1.224 . S
C1493 O1512 1.247 . S
O1494 C1493 1.224 . S
N1495 Co1485 2.128 . S
N1495 C1496 1.355 . S
N1495 C1498 1.311 . S
C1496 N1495 1.355 . S
C1496 C1497 1.363 . S
C1496 H1508 0.929 . S
C1497 C1496 1.363 . S
C1497 N1499 1.375 . S
C1497 H1515 0.931 . S
C1498 N1495 1.311 . S
C1498 N1499 1.347 . S
C1498 H1509 0.929 . S
N1499 C1497 1.375 . S
N1499 C1498 1.347 . S
C1500 C1503 1.365 . S
C1500 N1505 1.328 . S
C1500 H1506 0.929 . S
C1501 C1502 1.362 . S
C1501 C1504 1.378 . S
C1501 H1516 0.929 . S
C1502 C1501 1.362 . S
C1502 C1503 1.366 . S
C1503 C1500 1.365 . S
C1503 C1502 1.366 . S
C1503 H1517 0.930 . S
C1504 C1501 1.378 . S
C1504 N1505 1.315 . S
C1504 H1507 0.930 . S
N1505 Co1485 2.194 . S
N1505 C1500 1.328 . S
N1505 C1504 1.315 . S
H1506 C1500 0.929 . S
H1507 C1504 0.930 . S
H1508 C1496 0.929 . S
H1509 C1498 0.929 . S
O1510 Co1485 2.351 . S
O1510 C1513 1.244 . S
O1511 Co1485 2.155 . S
O1511 C1513 1.240 . S
O1512 Co1485 2.096 . S
O1512 C1493 1.247 . S
C1513 O1510 1.244 . S
C1513 O1511 1.240 . S
H1514 C1488 0.931 . S
H1515 C1497 0.931 . S
H1516 C1501 0.929 . S
H1517 C1503 0.930 . S
Co1518 N1522 2.148 . S
Co1518 N1528 2.128 . S
Co1518 N1538 2.194 . S
Co1518 O1543 2.351 . S
Co1518 O1544 2.155 . S
Co1518 O1545 2.096 . S
C1519 N1522 1.301 1_545 S
C1519 N1523 1.328 . S
C1519 H1524 0.930 . S
C1520 C1521 1.333 . S
C1520 N1522 1.317 1_545 S
C1520 H1525 0.930 1_545 S
C1521 C1520 1.333 . S
C1521 N1523 1.350 . S
C1521 H1547 0.931 . S
N1522 Co1518 2.148 . S
N1522 C1519 1.301 1_565 S
N1522 C1520 1.317 1_565 S
N1523 C1519 1.328 . S
N1523 C1521 1.350 . S
H1524 C1519 0.930 . S
H1525 C1520 0.930 1_565 S
C1526 O1527 1.224 . S
C1526 O1545 1.247 . S
O1527 C1526 1.224 . S
N1528 Co1518 2.128 . S
N1528 C1529 1.355 . S
N1528 C1531 1.311 . S
C1529 N1528 1.355 . S
C1529 C1530 1.363 . S
C1529 H1541 0.929 . S
C1530 C1529 1.363 . S
C1530 N1532 1.375 . S
C1530 H1548 0.931 . S
C1531 N1528 1.311 . S
C1531 N1532 1.347 . S
C1531 H1542 0.929 . S
N1532 C1530 1.375 . S
N1532 C1531 1.347 . S
C1533 C1536 1.365 . S
C1533 N1538 1.328 . S
C1533 H1539 0.929 . S
C1534 C1535 1.362 . S
C1534 C1537 1.378 . S
C1534 H1549 0.929 . S
C1535 C1534 1.362 . S
C1535 C1536 1.366 . S
C1536 C1533 1.365 . S
C1536 C1535 1.366 . S
C1536 H1550 0.930 . S
C1537 C1534 1.378 . S
C1537 N1538 1.315 . S
C1537 H1540 0.930 . S
N1538 Co1518 2.194 . S
N1538 C1533 1.328 . S
N1538 C1537 1.315 . S
H1539 C1533 0.929 . S
H1540 C1537 0.930 . S
H1541 C1529 0.929 . S
H1542 C1531 0.929 . S
O1543 Co1518 2.351 . S
O1543 C1546 1.244 . S
O1544 Co1518 2.155 . S
O1544 C1546 1.240 . S
O1545 Co1518 2.096 . S
O1545 C1526 1.247 . S
C1546 O1543 1.244 . S
C1546 O1544 1.240 . S
H1547 C1521 0.931 . S
H1548 C1530 0.931 . S
H1549 C1534 0.929 . S
H1550 C1536 0.930 . S
Co1551 N1555 2.148 . S
Co1551 N1561 2.128 . S
Co1551 N1571 2.194 . S
Co1551 O1576 2.351 . S
Co1551 O1577 2.155 . S
Co1551 O1578 2.096 . S
C1552 N1555 1.301 . S
C1552 N1556 1.328 . S
C1552 H1557 0.930 . S
C1553 C1554 1.333 . S
C1553 N1555 1.317 . S
C1553 H1558 0.930 . S
C1554 C1553 1.333 . S
C1554 N1556 1.350 . S
C1554 H1580 0.931 . S
N1555 Co1551 2.148 . S
N1555 C1552 1.301 . S
N1555 C1553 1.317 . S
N1556 C1552 1.328 . S
N1556 C1554 1.350 . S
H1557 C1552 0.930 . S
H1558 C1553 0.930 . S
C1559 O1560 1.224 . S
C1559 O1578 1.247 . S
O1560 C1559 1.224 . S
N1561 Co1551 2.128 . S
N1561 C1562 1.355 . S
N1561 C1564 1.311 . S
C1562 N1561 1.355 . S
C1562 C1563 1.363 . S
C1562 H1574 0.929 . S
C1563 C1562 1.363 . S
C1563 N1565 1.375 . S
C1563 H1581 0.931 . S
C1564 N1561 1.311 . S
C1564 N1565 1.347 . S
C1564 H1575 0.929 . S
N1565 C1563 1.375 . S
N1565 C1564 1.347 . S
C1566 C1569 1.365 . S
C1566 N1571 1.328 . S
C1566 H1572 0.929 . S
C1567 C1568 1.362 . S
C1567 C1570 1.378 . S
C1567 H1582 0.929 . S
C1568 C1567 1.362 . S
C1568 C1569 1.366 . S
C1569 C1566 1.365 . S
C1569 C1568 1.366 . S
C1569 H1583 0.930 . S
C1570 C1567 1.378 . S
C1570 N1571 1.315 . S
C1570 H1573 0.930 . S
N1571 Co1551 2.194 . S
N1571 C1566 1.328 . S
N1571 C1570 1.315 . S
H1572 C1566 0.929 . S
H1573 C1570 0.930 . S
H1574 C1562 0.929 . S
H1575 C1564 0.929 . S
O1576 Co1551 2.351 . S
O1576 C1579 1.244 . S
O1577 Co1551 2.155 . S
O1577 C1579 1.240 . S
O1578 Co1551 2.096 . S
O1578 C1559 1.247 . S
C1579 O1576 1.244 . S
C1579 O1577 1.240 . S
H1580 C1554 0.931 . S
H1581 C1563 0.931 . S
H1582 C1567 0.929 . S
H1583 C1569 0.930 . S
C1584 C1585 1.387 . S
C1584 H1588 0.950 . S
C1584 C1593 1.390 . S
C1585 C1584 1.387 . S
C1585 C1587 1.387 . S
H1586 C1593 0.950 . S
C1587 C1585 1.387 . S
C1587 C1589 1.390 . S
C1587 H1591 0.950 . S
H1588 C1584 0.950 . S
C1589 C1587 1.390 . S
C1589 C1590 1.387 . S
C1589 H1592 0.950 . S
C1590 C1589 1.387 . S
C1590 C1593 1.387 . S
H1591 C1587 0.950 . S
H1592 C1589 0.950 . S
C1593 C1584 1.390 . S
C1593 H1586 0.950 . S
C1593 C1590 1.387 . S
C1594 C1595 1.382 1_455 S
C1594 H1598 0.944 1_455 S
C1594 C1603 1.401 . S
C1595 C1594 1.382 1_655 S
C1595 C1597 1.380 1_655 S
H1596 C1603 0.950 . S
C1597 C1595 1.380 1_455 S
C1597 C1599 1.405 . S
C1597 H1601 0.942 1_455 S
H1598 C1594 0.944 1_655 S
C1599 C1597 1.405 . S
C1599 C1600 1.387 . S
C1599 H1602 0.950 . S
C1600 C1599 1.387 . S
C1600 C1603 1.387 . S
H1601 C1597 0.942 1_655 S
H1602 C1599 0.950 . S
C1603 C1594 1.401 . S
C1603 H1596 0.950 . S
C1603 C1600 1.387 . S
C1604 C1605 1.387 . S
C1604 H1608 0.950 . S
C1604 C1613 1.390 . S
C1605 C1604 1.387 . S
C1605 C1607 1.387 . S
H1606 C1613 0.950 . S
C1607 C1605 1.387 . S
C1607 C1609 1.390 . S
C1607 H1611 0.950 . S
H1608 C1604 0.950 . S
C1609 C1607 1.390 . S
C1609 C1610 1.387 . S
C1609 H1612 0.950 . S
C1610 C1609 1.387 . S
C1610 C1613 1.387 . S
H1611 C1607 0.950 . S
H1612 C1609 0.950 . S
C1613 C1604 1.390 . S
C1613 H1606 0.950 . S
C1613 C1610 1.387 . S
C1614 C1615 1.387 . S
C1614 H1618 0.950 . S
C1614 C1623 1.390 . S
C1615 C1614 1.387 . S
C1615 C1617 1.387 . S
H1616 C1623 0.950 . S
C1617 C1615 1.387 . S
C1617 C1619 1.390 . S
C1617 H1621 0.950 . S
H1618 C1614 0.950 . S
C1619 C1617 1.390 . S
C1619 C1620 1.387 . S
C1619 H1622 0.950 . S
C1620 C1619 1.387 . S
C1620 C1623 1.387 . S
H1621 C1617 0.950 . S
H1622 C1619 0.950 . S
C1623 C1614 1.390 . S
C1623 H1616 0.950 . S
C1623 C1620 1.387 . S
C1624 C1625 1.387 . S
C1624 H1628 0.950 . S
C1624 C1633 1.390 . S
C1625 C1624 1.387 . S
C1625 C1627 1.387 . S
H1626 C1633 0.950 . S
C1627 C1625 1.387 . S
C1627 C1629 1.390 . S
C1627 H1631 0.950 . S
H1628 C1624 0.950 . S
C1629 C1627 1.390 . S
C1629 C1630 1.387 . S
C1629 H1632 0.950 . S
C1630 C1629 1.387 . S
C1630 C1633 1.387 . S
H1631 C1627 0.950 . S
H1632 C1629 0.950 . S
C1633 C1624 1.390 . S
C1633 H1626 0.950 . S
C1633 C1630 1.387 . S
C1634 C1635 1.387 . S
C1634 H1638 0.950 . S
C1634 C1643 1.390 . S
C1635 C1634 1.387 . S
C1635 C1637 1.387 . S
H1636 C1643 0.950 . S
C1637 C1635 1.387 . S
C1637 C1639 1.390 . S
C1637 H1641 0.950 . S
H1638 C1634 0.950 . S
C1639 C1637 1.390 . S
C1639 C1640 1.387 . S
C1639 H1642 0.950 . S
C1640 C1639 1.387 . S
C1640 C1643 1.387 . S
H1641 C1637 0.950 . S
H1642 C1639 0.950 . S
C1643 C1634 1.390 . S
C1643 H1636 0.950 . S
C1643 C1640 1.387 . S
C1644 C1645 1.387 . S
C1644 H1648 0.950 . S
C1644 C1653 1.390 . S
C1645 C1644 1.387 . S
C1645 C1647 1.387 . S
H1646 C1653 0.950 . S
C1647 C1645 1.387 . S
C1647 C1649 1.390 . S
C1647 H1651 0.950 . S
H1648 C1644 0.950 . S
C1649 C1647 1.390 . S
C1649 C1650 1.387 . S
C1649 H1652 0.950 . S
C1650 C1649 1.387 . S
C1650 C1653 1.387 . S
H1651 C1647 0.950 . S
H1652 C1649 0.950 . S
C1653 C1644 1.390 . S
C1653 H1646 0.950 . S
C1653 C1650 1.387 . S
C1654 C1655 1.387 . S
C1654 H1658 0.950 . S
C1654 C1663 1.390 . S
C1655 C1654 1.387 . S
C1655 C1657 1.387 . S
H1656 C1663 0.950 1_655 S
C1657 C1655 1.387 . S
C1657 C1659 1.390 1_455 S
C1657 H1661 0.950 . S
H1658 C1654 0.950 . S
C1659 C1657 1.390 1_655 S
C1659 C1660 1.387 . S
C1659 H1662 0.950 . S
C1660 C1659 1.387 . S
C1660 C1663 1.387 1_655 S
H1661 C1657 0.950 . S
H1662 C1659 0.950 . S
C1663 C1654 1.390 . S
C1663 H1656 0.950 1_455 S
C1663 C1660 1.387 1_455 S
C1664 C1665 1.387 . S
C1664 H1668 0.950 . S
C1664 C1673 1.390 . S
C1665 C1664 1.387 . S
C1665 C1667 1.387 . S
H1666 C1673 0.950 . S
C1667 C1665 1.387 . S
C1667 C1669 1.390 . S
C1667 H1671 0.950 . S
H1668 C1664 0.950 . S
C1669 C1667 1.390 . S
C1669 C1670 1.387 . S
C1669 H1672 0.950 . S
C1670 C1669 1.387 . S
C1670 C1673 1.387 . S
H1671 C1667 0.950 . S
H1672 C1669 0.950 . S
C1673 C1664 1.390 . S
C1673 H1666 0.950 . S
C1673 C1670 1.387 . S
C1674 C1675 1.387 . S
C1674 H1678 0.950 . S
C1674 C1683 1.390 . S
C1675 C1674 1.387 . S
C1675 C1677 1.387 . S
H1676 C1683 0.950 . S
C1677 C1675 1.387 . S
C1677 C1679 1.390 . S
C1677 H1681 0.950 . S
H1678 C1674 0.950 . S
C1679 C1677 1.390 . S
C1679 C1680 1.387 . S
C1679 H1682 0.950 . S
C1680 C1679 1.387 . S
C1680 C1683 1.387 . S
H1681 C1677 0.950 . S
H1682 C1679 0.950 . S
C1683 C1674 1.390 . S
C1683 H1676 0.950 . S
C1683 C1680 1.387 . S
C1684 C1685 1.387 . S
C1684 H1688 0.950 . S
C1684 C1693 1.419 . S
C1685 C1684 1.387 . S
C1685 C1687 1.387 . S
H1686 C1693 0.937 1_565 S
C1687 C1685 1.387 . S
C1687 C1689 1.396 . S
C1687 H1691 0.950 . S
H1688 C1684 0.950 . S
C1689 C1687 1.396 . S
C1689 C1690 1.385 1_545 S
C1689 H1692 0.947 1_545 S
C1690 C1689 1.385 1_565 S
C1690 C1693 1.373 1_565 S
H1691 C1687 0.950 . S
H1692 C1689 0.947 1_565 S
C1693 C1684 1.419 . S
C1693 H1686 0.937 1_545 S
C1693 C1690 1.373 1_545 S
C1694 C1695 1.387 . S
C1694 H1698 0.950 . S
C1694 C1703 1.390 . S
C1695 C1694 1.387 . S
C1695 C1697 1.387 . S
H1696 C1703 0.950 . S
C1697 C1695 1.387 . S
C1697 C1699 1.390 . S
C1697 H1701 0.950 . S
H1698 C1694 0.950 . S
C1699 C1697 1.390 . S
C1699 C1700 1.387 . S
C1699 H1702 0.950 . S
C1700 C1699 1.387 . S
C1700 C1703 1.387 . S
H1701 C1697 0.950 . S
H1702 C1699 0.950 . S
C1703 C1694 1.390 . S
C1703 H1696 0.950 . S
C1703 C1700 1.387 . S
C1704 C1705 1.387 . S
C1704 H1708 0.950 . S
C1704 C1713 1.385 1_545 S
C1705 C1704 1.387 . S
C1705 C1707 1.387 . S
H1706 C1713 0.952 . S
C1707 C1705 1.387 . S
C1707 C1709 1.424 . S
C1707 H1711 0.950 . S
H1708 C1704 0.950 . S
C1709 C1707 1.424 . S
C1709 C1710 1.370 1_545 S
C1709 H1712 0.935 1_545 S
C1710 C1709 1.370 1_565 S
C1710 C1713 1.390 . S
H1711 C1707 0.950 . S
H1712 C1709 0.935 1_565 S
C1713 C1704 1.385 1_565 S
C1713 H1706 0.952 . S
C1713 C1710 1.390 . S
C1714 C1715 1.387 . S
C1714 H1718 0.950 . S
C1714 C1723 1.390 . S
C1715 C1714 1.387 . S
C1715 C1717 1.387 . S
H1716 C1723 0.950 . S
C1717 C1715 1.387 . S
C1717 C1719 1.390 . S
C1717 H1721 0.950 . S
H1718 C1714 0.950 . S
C1719 C1717 1.390 . S
C1719 C1720 1.387 . S
C1719 H1722 0.950 . S
C1720 C1719 1.387 . S
C1720 C1723 1.387 . S
H1721 C1717 0.950 . S
H1722 C1719 0.950 . S
C1723 C1714 1.390 . S
C1723 H1716 0.950 . S
C1723 C1720 1.387 . S
C1724 C1725 1.387 . S
C1724 H1728 0.950 . S
C1724 C1733 1.390 . S
C1725 C1724 1.387 . S
C1725 C1727 1.387 . S
H1726 C1733 0.950 . S
C1727 C1725 1.387 . S
C1727 C1729 1.390 . S
C1727 H1731 0.950 . S
H1728 C1724 0.950 . S
C1729 C1727 1.390 . S
C1729 C1730 1.387 . S
C1729 H1732 0.950 . S
C1730 C1729 1.387 . S
C1730 C1733 1.387 . S
H1731 C1727 0.950 . S
H1732 C1729 0.950 . S
C1733 C1724 1.390 . S
C1733 H1726 0.950 . S
C1733 C1730 1.387 . S
C1734 C1735 1.387 . S
C1734 H1738 0.950 . S
C1734 C1743 1.402 . S
C1735 C1734 1.387 . S
C1735 C1737 1.387 . S
H1736 C1743 0.944 1_556 S
C1737 C1735 1.387 . S
C1737 C1739 1.398 . S
C1737 H1741 0.950 . S
H1738 C1734 0.950 . S
C1739 C1737 1.398 . S
C1739 C1740 1.384 1_554 S
C1739 H1742 0.946 1_554 S
C1740 C1739 1.384 1_556 S
C1740 C1743 1.382 1_556 S
H1741 C1737 0.950 . S
H1742 C1739 0.946 1_556 S
C1743 C1734 1.402 . S
C1743 H1736 0.944 1_554 S
C1743 C1740 1.382 1_554 S
C1744 C1745 1.387 . S
C1744 H1748 0.950 . S
C1744 C1753 1.408 . S
C1745 C1744 1.387 . S
C1745 C1747 1.387 . S
H1746 C1753 0.941 1_556 S
C1747 C1745 1.387 . S
C1747 C1749 1.398 . S
C1747 H1751 0.950 . S
H1748 C1744 0.950 . S
C1749 C1747 1.398 . S
C1749 C1750 1.384 1_554 S
C1749 H1752 0.946 1_554 S
C1750 C1749 1.384 1_556 S
C1750 C1753 1.379 1_556 S
H1751 C1747 0.950 . S
H1752 C1749 0.946 1_556 S
C1753 C1744 1.408 . S
C1753 H1746 0.941 1_554 S
C1753 C1750 1.379 1_554 S
C1754 C1755 1.387 . S
C1754 H1758 0.950 . S
C1754 C1763 1.390 . S
C1755 C1754 1.387 . S
C1755 C1757 1.387 . S
H1756 C1763 0.950 . S
C1757 C1755 1.387 . S
C1757 C1759 1.390 . S
C1757 H1761 0.950 . S
H1758 C1754 0.950 . S
C1759 C1757 1.390 . S
C1759 C1760 1.387 . S
C1759 H1762 0.950 . S
C1760 C1759 1.387 . S
C1760 C1763 1.387 . S
H1761 C1757 0.950 . S
H1762 C1759 0.950 . S
C1763 C1754 1.390 . S
C1763 H1756 0.950 . S
C1763 C1760 1.387 . S
C1764 C1765 1.387 . S
C1764 H1768 0.950 . S
C1764 C1773 1.390 . S
C1765 C1764 1.387 . S
C1765 C1767 1.387 . S
H1766 C1773 0.950 . S
C1767 C1765 1.387 . S
C1767 C1769 1.390 . S
C1767 H1771 0.950 . S
H1768 C1764 0.950 . S
C1769 C1767 1.390 . S
C1769 C1770 1.387 . S
C1769 H1772 0.950 . S
C1770 C1769 1.387 . S
C1770 C1773 1.387 . S
H1771 C1767 0.950 . S
H1772 C1769 0.950 . S
C1773 C1764 1.390 . S
C1773 H1766 0.950 . S
C1773 C1770 1.387 . S
C1774 C1775 1.387 . S
C1774 H1778 0.950 . S
C1774 C1783 1.390 . S
C1775 C1774 1.387 . S
C1775 C1777 1.387 . S
H1776 C1783 0.950 . S
C1777 C1775 1.387 . S
C1777 C1779 1.390 . S
C1777 H1781 0.950 . S
H1778 C1774 0.950 . S
C1779 C1777 1.390 . S
C1779 C1780 1.387 . S
C1779 H1782 0.950 . S
C1780 C1779 1.387 . S
C1780 C1783 1.387 . S
H1781 C1777 0.950 . S
H1782 C1779 0.950 . S
C1783 C1774 1.390 . S
C1783 H1776 0.950 . S
C1783 C1780 1.387 . S
C1784 C1785 1.387 . S
C1784 H1788 0.950 . S
C1784 C1793 1.390 . S
C1785 C1784 1.387 . S
C1785 C1787 1.387 . S
H1786 C1793 0.950 . S
C1787 C1785 1.387 . S
C1787 C1789 1.390 . S
C1787 H1791 0.950 . S
H1788 C1784 0.950 . S
C1789 C1787 1.390 . S
C1789 C1790 1.387 . S
C1789 H1792 0.950 . S
C1790 C1789 1.387 . S
C1790 C1793 1.387 . S
H1791 C1787 0.950 . S
H1792 C1789 0.950 . S
C1793 C1784 1.390 . S
C1793 H1786 0.950 . S
C1793 C1790 1.387 . S
C1794 C1795 1.387 . S
C1794 H1798 0.950 . S
C1794 C1803 1.390 . S
C1795 C1794 1.387 . S
C1795 C1797 1.387 . S
H1796 C1803 0.950 . S
C1797 C1795 1.387 . S
C1797 C1799 1.390 . S
C1797 H1801 0.950 . S
H1798 C1794 0.950 . S
C1799 C1797 1.390 . S
C1799 C1800 1.387 . S
C1799 H1802 0.950 . S
C1800 C1799 1.387 . S
C1800 C1803 1.387 . S
H1801 C1797 0.950 . S
H1802 C1799 0.950 . S
C1803 C1794 1.390 . S
C1803 H1796 0.950 . S
C1803 C1800 1.387 . S
C1804 C1805 1.387 . S
C1804 H1808 0.950 . S
C1804 C1813 1.390 . S
C1805 C1804 1.387 . S
C1805 C1807 1.387 . S
H1806 C1813 0.950 . S
C1807 C1805 1.387 . S
C1807 C1809 1.390 . S
C1807 H1811 0.950 . S
H1808 C1804 0.950 . S
C1809 C1807 1.390 . S
C1809 C1810 1.387 . S
C1809 H1812 0.950 . S
C1810 C1809 1.387 . S
C1810 C1813 1.387 . S
H1811 C1807 0.950 . S
H1812 C1809 0.950 . S
C1813 C1804 1.390 . S
C1813 H1806 0.950 . S
C1813 C1810 1.387 . S
C1814 C1815 1.387 . S
C1814 H1818 0.950 . S
C1814 C1823 1.390 . S
C1815 C1814 1.387 . S
C1815 C1817 1.387 . S
H1816 C1823 0.950 . S
C1817 C1815 1.387 . S
C1817 C1819 1.390 . S
C1817 H1821 0.950 . S
H1818 C1814 0.950 . S
C1819 C1817 1.390 . S
C1819 C1820 1.387 . S
C1819 H1822 0.950 . S
C1820 C1819 1.387 . S
C1820 C1823 1.387 . S
H1821 C1817 0.950 . S
H1822 C1819 0.950 . S
C1823 C1814 1.390 . S
C1823 H1816 0.950 . S
C1823 C1820 1.387 . S
C1824 C1825 1.387 . S
C1824 H1828 0.950 . S
C1824 C1833 1.390 . S
C1825 C1824 1.387 . S
C1825 C1827 1.387 . S
H1826 C1833 0.950 . S
C1827 C1825 1.387 . S
C1827 C1829 1.390 . S
C1827 H1831 0.950 . S
H1828 C1824 0.950 . S
C1829 C1827 1.390 . S
C1829 C1830 1.387 . S
C1829 H1832 0.950 . S
C1830 C1829 1.387 . S
C1830 C1833 1.387 . S
H1831 C1827 0.950 . S
H1832 C1829 0.950 . S
C1833 C1824 1.390 . S
C1833 H1826 0.950 . S
C1833 C1830 1.387 . S
C1834 C1835 1.387 . S
C1834 H1838 0.950 . S
C1834 C1843 1.390 . S
C1835 C1834 1.387 . S
C1835 C1837 1.387 . S
H1836 C1843 0.950 . S
C1837 C1835 1.387 . S
C1837 C1839 1.390 . S
C1837 H1841 0.950 . S
H1838 C1834 0.950 . S
C1839 C1837 1.390 . S
C1839 C1840 1.387 . S
C1839 H1842 0.950 . S
C1840 C1839 1.387 . S
C1840 C1843 1.387 . S
H1841 C1837 0.950 . S
H1842 C1839 0.950 . S
C1843 C1834 1.390 . S
C1843 H1836 0.950 . S
C1843 C1840 1.387 . S
C1844 C1845 1.387 . S
C1844 H1848 0.950 . S
C1844 C1853 1.390 . S
C1845 C1844 1.387 . S
C1845 C1847 1.387 . S
H1846 C1853 0.950 . S
C1847 C1845 1.387 . S
C1847 C1849 1.390 . S
C1847 H1851 0.950 . S
H1848 C1844 0.950 . S
C1849 C1847 1.390 . S
C1849 C1850 1.387 . S
C1849 H1852 0.950 . S
C1850 C1849 1.387 . S
C1850 C1853 1.387 . S
H1851 C1847 0.950 . S
H1852 C1849 0.950 . S
C1853 C1844 1.390 . S
C1853 H1846 0.950 . S
C1853 C1850 1.387 . S
C1854 C1855 1.387 . S
C1854 H1858 0.950 . S
C1854 C1863 1.390 . S
C1855 C1854 1.387 . S
C1855 C1857 1.387 . S
H1856 C1863 0.950 . S
C1857 C1855 1.387 . S
C1857 C1859 1.390 . S
C1857 H1861 0.950 . S
H1858 C1854 0.950 . S
C1859 C1857 1.390 . S
C1859 C1860 1.387 . S
C1859 H1862 0.950 . S
C1860 C1859 1.387 . S
C1860 C1863 1.387 . S
H1861 C1857 0.950 . S
H1862 C1859 0.950 . S
C1863 C1854 1.390 . S
C1863 H1856 0.950 . S
C1863 C1860 1.387 . S
C1864 C1865 1.387 . S
C1864 H1868 0.950 . S
C1864 C1873 1.390 . S
C1865 C1864 1.387 . S
C1865 C1867 1.387 . S
H1866 C1873 0.950 . S
C1867 C1865 1.387 . S
C1867 C1869 1.390 . S
C1867 H1871 0.950 . S
H1868 C1864 0.950 . S
C1869 C1867 1.390 . S
C1869 C1870 1.387 . S
C1869 H1872 0.950 . S
C1870 C1869 1.387 . S
C1870 C1873 1.387 . S
H1871 C1867 0.950 . S
H1872 C1869 0.950 . S
C1873 C1864 1.390 . S
C1873 H1866 0.950 . S
C1873 C1870 1.387 . S
C1874 C1875 1.387 . S
C1874 H1878 0.950 . S
C1874 C1883 1.390 . S
C1875 C1874 1.387 . S
C1875 C1877 1.387 . S
H1876 C1883 0.950 . S
C1877 C1875 1.387 . S
C1877 C1879 1.390 . S
C1877 H1881 0.950 . S
H1878 C1874 0.950 . S
C1879 C1877 1.390 . S
C1879 C1880 1.387 . S
C1879 H1882 0.950 . S
C1880 C1879 1.387 . S
C1880 C1883 1.387 . S
H1881 C1877 0.950 . S
H1882 C1879 0.950 . S
C1883 C1874 1.390 . S
C1883 H1876 0.950 . S
C1883 C1880 1.387 . S
C1884 C1885 1.387 . S
C1884 H1888 0.950 . S
C1884 C1893 1.390 . S
C1885 C1884 1.387 . S
C1885 C1887 1.387 . S
H1886 C1893 0.950 . S
C1887 C1885 1.387 . S
C1887 C1889 1.390 . S
C1887 H1891 0.950 . S
H1888 C1884 0.950 . S
C1889 C1887 1.390 . S
C1889 C1890 1.387 . S
C1889 H1892 0.950 . S
C1890 C1889 1.387 . S
C1890 C1893 1.387 . S
H1891 C1887 0.950 . S
H1892 C1889 0.950 . S
C1893 C1884 1.390 . S
C1893 H1886 0.950 . S
C1893 C1890 1.387 . S
C1894 C1895 1.387 . S
C1894 H1898 0.950 . S
C1894 C1903 1.390 . S
C1895 C1894 1.387 . S
C1895 C1897 1.387 . S
H1896 C1903 0.950 . S
C1897 C1895 1.387 . S
C1897 C1899 1.390 . S
C1897 H1901 0.950 . S
H1898 C1894 0.950 . S
C1899 C1897 1.390 . S
C1899 C1900 1.387 . S
C1899 H1902 0.950 . S
C1900 C1899 1.387 . S
C1900 C1903 1.387 . S
H1901 C1897 0.950 . S
H1902 C1899 0.950 . S
C1903 C1894 1.390 . S
C1903 H1896 0.950 . S
C1903 C1900 1.387 . S
C1904 C1905 1.387 . S
C1904 H1908 0.950 . S
C1904 C1913 1.390 . S
C1905 C1904 1.387 . S
C1905 C1907 1.387 . S
H1906 C1913 0.950 . S
C1907 C1905 1.387 . S
C1907 C1909 1.390 . S
C1907 H1911 0.970 . S
H1908 C1904 0.950 . S
C1909 C1907 1.390 . S
C1909 C1910 1.387 . S
C1909 H1912 0.950 . S
C1910 C1909 1.387 . S
C1910 C1913 1.387 . S
H1911 C1907 0.970 . S
H1912 C1909 0.950 . S
C1913 C1904 1.390 . S
C1913 H1906 0.950 . S
C1913 C1910 1.387 . S
C1914 C1915 1.387 . S
C1914 H1918 0.950 . S
C1914 C1923 1.390 . S
C1915 C1914 1.387 . S
C1915 C1917 1.387 . S
H1916 C1923 0.950 . S
C1917 C1915 1.387 . S
C1917 C1919 1.390 . S
C1917 H1921 0.950 . S
H1918 C1914 0.950 . S
C1919 C1917 1.390 . S
C1919 C1920 1.387 . S
C1919 H1922 0.950 . S
C1920 C1919 1.387 . S
C1920 C1923 1.387 . S
H1921 C1917 0.950 . S
H1922 C1919 0.950 . S
C1923 C1914 1.390 . S
C1923 H1916 0.950 . S
C1923 C1920 1.387 . S
C1924 C1925 1.387 . S
C1924 H1928 0.950 . S
C1924 C1933 1.390 . S
C1925 C1924 1.387 . S
C1925 C1927 1.387 . S
H1926 C1933 0.950 . S
C1927 C1925 1.387 . S
C1927 C1929 1.390 . S
C1927 H1931 0.950 . S
H1928 C1924 0.950 . S
C1929 C1927 1.390 . S
C1929 C1930 1.387 . S
C1929 H1932 0.950 . S
C1930 C1929 1.387 . S
C1930 C1933 1.387 . S
H1931 C1927 0.950 . S
H1932 C1929 0.950 . S
C1933 C1924 1.390 . S
C1933 H1926 0.950 . S
C1933 C1930 1.387 . S
C1934 C1935 1.387 . S
C1934 H1938 0.950 . S
C1934 C1943 1.390 . S
C1935 C1934 1.387 . S
C1935 C1937 1.387 . S
H1936 C1943 0.950 . S
C1937 C1935 1.387 . S
C1937 C1939 1.390 . S
C1937 H1941 0.950 . S
H1938 C1934 0.950 . S
C1939 C1937 1.390 . S
C1939 C1940 1.387 . S
C1939 H1942 0.950 . S
C1940 C1939 1.387 . S
C1940 C1943 1.387 . S
H1941 C1937 0.950 . S
H1942 C1939 0.950 . S
C1943 C1934 1.390 . S
C1943 H1936 0.950 . S
C1943 C1940 1.387 . S
C1944 C1945 1.387 . S
C1944 H1948 0.950 . S
C1944 C1953 1.390 . S
C1945 C1944 1.387 . S
C1945 C1947 1.387 . S
H1946 C1953 0.950 . S
C1947 C1945 1.387 . S
C1947 C1949 1.390 . S
C1947 H1951 0.950 . S
H1948 C1944 0.950 . S
C1949 C1947 1.390 . S
C1949 C1950 1.387 . S
C1949 H1952 0.950 . S
C1950 C1949 1.387 . S
C1950 C1953 1.387 . S
H1951 C1947 0.950 . S
H1952 C1949 0.950 . S
C1953 C1944 1.390 . S
C1953 H1946 0.950 . S
C1953 C1950 1.387 . S
C1954 C1955 1.387 . S
C1954 H1958 0.950 . S
C1954 C1963 1.390 . S
C1955 C1954 1.387 . S
C1955 C1957 1.387 . S
H1956 C1963 0.950 . S
C1957 C1955 1.387 . S
C1957 C1959 1.390 . S
C1957 H1961 0.950 . S
H1958 C1954 0.950 . S
C1959 C1957 1.390 . S
C1959 C1960 1.387 . S
C1959 H1962 0.950 . S
C1960 C1959 1.387 . S
C1960 C1963 1.387 . S
H1961 C1957 0.950 . S
H1962 C1959 0.950 . S
C1963 C1954 1.390 . S
C1963 H1956 0.950 . S
C1963 C1960 1.387 . S
C1964 C1965 1.387 . S
C1964 H1968 0.950 . S
C1964 C1973 1.390 . S
C1965 C1964 1.387 . S
C1965 C1967 1.387 . S
H1966 C1973 0.950 . S
C1967 C1965 1.387 . S
C1967 C1969 1.390 . S
C1967 H1971 0.950 . S
H1968 C1964 0.950 . S
C1969 C1967 1.390 . S
C1969 C1970 1.387 . S
C1969 H1972 0.950 . S
C1970 C1969 1.387 . S
C1970 C1973 1.387 . S
H1971 C1967 0.950 . S
H1972 C1969 0.950 . S
C1973 C1964 1.390 . S
C1973 H1966 0.950 . S
C1973 C1970 1.387 . S
C1974 C1975 1.387 . S
C1974 H1978 0.950 . S
C1974 C1983 1.390 . S
C1975 C1974 1.387 . S
C1975 C1977 1.387 . S
H1976 C1983 0.950 . S
C1977 C1975 1.387 . S
C1977 C1979 1.390 . S
C1977 H1981 0.950 . S
H1978 C1974 0.950 . S
C1979 C1977 1.390 . S
C1979 C1980 1.387 . S
C1979 H1982 0.950 . S
C1980 C1979 1.387 . S
C1980 C1983 1.387 . S
H1981 C1977 0.950 . S
H1982 C1979 0.950 . S
C1983 C1974 1.390 . S
C1983 H1976 0.950 . S
C1983 C1980 1.387 . S
C1984 C1985 1.387 . S
C1984 H1988 0.950 . S
C1984 C1993 1.390 . S
C1985 C1984 1.387 . S
C1985 C1987 1.387 . S
H1986 C1993 0.950 . S
C1987 C1985 1.387 . S
C1987 C1989 1.390 . S
C1987 H1991 0.950 . S
H1988 C1984 0.950 . S
C1989 C1987 1.390 . S
C1989 C1990 1.387 . S
C1989 H1992 0.950 . S
C1990 C1989 1.387 . S
C1990 C1993 1.387 . S
H1991 C1987 0.950 . S
H1992 C1989 0.950 . S
C1993 C1984 1.390 . S
C1993 H1986 0.950 . S
C1993 C1990 1.387 . S
C1994 C1995 1.387 . S
C1994 H1998 0.950 . S
C1994 C2003 1.390 . S
C1995 C1994 1.387 . S
C1995 C1997 1.387 . S
H1996 C2003 0.950 . S
C1997 C1995 1.387 . S
C1997 C1999 1.390 . S
C1997 H2001 0.950 . S
H1998 C1994 0.950 . S
C1999 C1997 1.390 . S
C1999 C2000 1.387 . S
C1999 H2002 0.950 . S
C2000 C1999 1.387 . S
C2000 C2003 1.387 . S
H2001 C1997 0.950 . S
H2002 C1999 0.950 . S
C2003 C1994 1.390 . S
C2003 H1996 0.950 . S
C2003 C2000 1.387 . S
C2004 C2005 1.387 . S
C2004 H2008 0.950 . S
C2004 C2013 1.390 . S
C2005 C2004 1.387 . S
C2005 C2007 1.387 . S
H2006 C2013 0.950 . S
C2007 C2005 1.387 . S
C2007 C2009 1.390 . S
C2007 H2011 0.950 . S
H2008 C2004 0.950 . S
C2009 C2007 1.390 . S
C2009 C2010 1.387 . S
C2009 H2012 0.950 . S
C2010 C2009 1.387 . S
C2010 C2013 1.387 . S
H2011 C2007 0.950 . S
H2012 C2009 0.950 . S
C2013 C2004 1.390 . S
C2013 H2006 0.950 . S
C2013 C2010 1.387 . S
C2014 C2015 1.387 . S
C2014 H2018 0.950 . S
C2014 C2023 1.390 . S
C2015 C2014 1.387 . S
C2015 C2017 1.387 . S
H2016 C2023 0.950 . S
C2017 C2015 1.387 . S
C2017 C2019 1.390 . S
C2017 H2021 0.950 . S
H2018 C2014 0.950 . S
C2019 C2017 1.390 . S
C2019 C2020 1.387 . S
C2019 H2022 0.950 . S
C2020 C2019 1.387 . S
C2020 C2023 1.387 . S
H2021 C2017 0.950 . S
H2022 C2019 0.950 . S
C2023 C2014 1.390 . S
C2023 H2016 0.950 . S
C2023 C2020 1.387 . S
C2024 C2025 1.387 . S
C2024 H2028 0.950 . S
C2024 C2033 1.390 . S
C2025 C2024 1.387 . S
C2025 C2027 1.387 . S
H2026 C2033 0.950 . S
C2027 C2025 1.387 . S
C2027 C2029 1.390 . S
C2027 H2031 0.950 . S
H2028 C2024 0.950 . S
C2029 C2027 1.390 . S
C2029 C2030 1.387 . S
C2029 H2032 0.950 . S
C2030 C2029 1.387 . S
C2030 C2033 1.387 . S
H2031 C2027 0.950 . S
H2032 C2029 0.950 . S
C2033 C2024 1.390 . S
C2033 H2026 0.950 . S
C2033 C2030 1.387 . S
C2034 C2035 1.387 . S
C2034 H2038 0.950 . S
C2034 C2043 1.390 . S
C2035 C2034 1.387 . S
C2035 C2037 1.387 . S
H2036 C2043 0.950 . S
C2037 C2035 1.387 . S
C2037 C2039 1.390 . S
C2037 H2041 0.950 . S
H2038 C2034 0.950 . S
C2039 C2037 1.390 . S
C2039 C2040 1.387 . S
C2039 H2042 0.950 . S
C2040 C2039 1.387 . S
C2040 C2043 1.387 . S
H2041 C2037 0.950 . S
H2042 C2039 0.950 . S
C2043 C2034 1.390 . S
C2043 H2036 0.950 . S
C2043 C2040 1.387 . S
C2044 C2045 1.387 . S
C2044 H2048 0.950 . S
C2044 C2053 1.390 . S
C2045 C2044 1.387 . S
C2045 C2047 1.387 . S
H2046 C2053 0.950 . S
C2047 C2045 1.387 . S
C2047 C2049 1.390 . S
C2047 H2051 0.950 . S
H2048 C2044 0.950 . S
C2049 C2047 1.390 . S
C2049 C2050 1.387 . S
C2049 H2052 0.950 . S
C2050 C2049 1.387 . S
C2050 C2053 1.387 . S
H2051 C2047 0.950 . S
H2052 C2049 0.950 . S
C2053 C2044 1.390 . S
C2053 H2046 0.950 . S
C2053 C2050 1.387 . S
C2054 C2055 1.387 . S
C2054 H2058 0.950 . S
C2054 C2063 1.390 . S
C2055 C2054 1.387 . S
C2055 C2057 1.387 . S
H2056 C2063 0.950 . S
C2057 C2055 1.387 . S
C2057 C2059 1.390 . S
C2057 H2061 0.950 . S
H2058 C2054 0.950 . S
C2059 C2057 1.390 . S
C2059 C2060 1.387 . S
C2059 H2062 0.950 . S
C2060 C2059 1.387 . S
C2060 C2063 1.387 . S
H2061 C2057 0.950 . S
H2062 C2059 0.950 . S
C2063 C2054 1.390 . S
C2063 H2056 0.950 . S
C2063 C2060 1.387 . S
C2064 C2065 1.387 . S
C2064 H2068 0.950 . S
C2064 C2073 1.390 . S
C2065 C2064 1.387 . S
C2065 C2067 1.387 . S
H2066 C2073 0.950 . S
C2067 C2065 1.387 . S
C2067 C2069 1.390 . S
C2067 H2071 0.950 . S
H2068 C2064 0.950 . S
C2069 C2067 1.390 . S
C2069 C2070 1.387 . S
C2069 H2072 0.950 . S
C2070 C2069 1.387 . S
C2070 C2073 1.387 . S
H2071 C2067 0.950 . S
H2072 C2069 0.950 . S
C2073 C2064 1.390 . S
C2073 H2066 0.950 . S
C2073 C2070 1.387 . S
C2074 C2075 1.387 . S
C2074 H2078 0.950 . S
C2074 C2083 1.390 . S
C2075 C2074 1.387 . S
C2075 C2077 1.387 . S
H2076 C2083 0.950 . S
C2077 C2075 1.387 . S
C2077 C2079 1.390 . S
C2077 H2081 0.950 . S
H2078 C2074 0.950 . S
C2079 C2077 1.390 . S
C2079 C2080 1.387 . S
C2079 H2082 0.950 . S
C2080 C2079 1.387 . S
C2080 C2083 1.387 . S
H2081 C2077 0.950 . S
H2082 C2079 0.950 . S
C2083 C2074 1.390 . S
C2083 H2076 0.950 . S
C2083 C2080 1.387 . S
C2084 C2085 1.387 . S
C2084 H2088 0.950 . S
C2084 C2093 1.390 . S
C2085 C2084 1.387 . S
C2085 C2087 1.387 . S
H2086 C2093 0.950 . S
C2087 C2085 1.387 . S
C2087 C2089 1.390 . S
C2087 H2091 0.950 . S
H2088 C2084 0.950 . S
C2089 C2087 1.390 . S
C2089 C2090 1.387 . S
C2089 H2092 0.950 . S
C2090 C2089 1.387 . S
C2090 C2093 1.387 . S
H2091 C2087 0.950 . S
H2092 C2089 0.950 . S
C2093 C2084 1.390 . S
C2093 H2086 0.950 . S
C2093 C2090 1.387 . S
C2094 C2095 1.387 . S
C2094 H2098 0.950 . S
C2094 C2103 1.390 . S
C2095 C2094 1.387 . S
C2095 C2097 1.387 . S
H2096 C2103 0.950 . S
C2097 C2095 1.387 . S
C2097 C2099 1.390 . S
C2097 H2101 0.950 . S
H2098 C2094 0.950 . S
C2099 C2097 1.390 . S
C2099 C2100 1.387 . S
C2099 H2102 0.950 . S
C2100 C2099 1.387 . S
C2100 C2103 1.387 . S
H2101 C2097 0.950 . S
H2102 C2099 0.950 . S
C2103 C2094 1.390 . S
C2103 H2096 0.950 . S
C2103 C2100 1.387 . S
C2104 C2105 1.387 . S
C2104 H2108 0.950 . S
C2104 C2113 1.390 . S
C2105 C2104 1.387 . S
C2105 C2107 1.387 . S
H2106 C2113 0.950 . S
C2107 C2105 1.387 . S
C2107 C2109 1.390 . S
C2107 H2111 0.950 . S
H2108 C2104 0.950 . S
C2109 C2107 1.390 . S
C2109 C2110 1.387 . S
C2109 H2112 0.950 . S
C2110 C2109 1.387 . S
C2110 C2113 1.387 . S
H2111 C2107 0.950 . S
H2112 C2109 0.950 . S
C2113 C2104 1.390 . S
C2113 H2106 0.950 . S
C2113 C2110 1.387 . S
C2114 C2115 1.387 . S
C2114 H2118 0.950 . S
C2114 C2123 1.390 . S
C2115 C2114 1.387 . S
C2115 C2117 1.387 . S
H2116 C2123 0.950 . S
C2117 C2115 1.387 . S
C2117 C2119 1.390 . S
C2117 H2121 0.989 . S
H2118 C2114 0.950 . S
C2119 C2117 1.390 . S
C2119 C2120 1.387 . S
C2119 H2122 0.950 . S
C2120 C2119 1.387 . S
C2120 C2123 1.387 . S
H2121 C2117 0.989 . S
H2122 C2119 0.950 . S
C2123 C2114 1.390 . S
C2123 H2116 0.950 . S
C2123 C2120 1.387 . S
C2124 C2125 1.387 . S
C2124 H2128 0.950 . S
C2124 C2133 1.390 . S
C2125 C2124 1.387 . S
C2125 C2127 1.387 . S
H2126 C2133 0.950 . S
C2127 C2125 1.387 . S
C2127 C2129 1.390 . S
C2127 H2131 0.950 . S
H2128 C2124 0.950 . S
C2129 C2127 1.390 . S
C2129 C2130 1.387 . S
C2129 H2132 0.950 . S
C2130 C2129 1.387 . S
C2130 C2133 1.387 . S
H2131 C2127 0.950 . S
H2132 C2129 0.950 . S
C2133 C2124 1.390 . S
C2133 H2126 0.950 . S
C2133 C2130 1.387 . S
C2134 C2135 1.387 . S
C2134 H2138 0.950 . S
C2134 C2143 1.390 . S
C2135 C2134 1.387 . S
C2135 C2137 1.387 . S
H2136 C2143 0.950 . S
C2137 C2135 1.387 . S
C2137 C2139 1.390 . S
C2137 H2141 0.950 . S
H2138 C2134 0.950 . S
C2139 C2137 1.390 . S
C2139 C2140 1.387 . S
C2139 H2142 0.950 . S
C2140 C2139 1.387 . S
C2140 C2143 1.387 . S
H2141 C2137 0.950 . S
H2142 C2139 0.950 . S
C2143 C2134 1.390 . S
C2143 H2136 0.950 . S
C2143 C2140 1.387 . S
C2144 C2145 1.387 . S
C2144 H2148 0.950 . S
C2144 C2153 1.390 . S
C2145 C2144 1.387 . S
C2145 C2147 1.387 . S
H2146 C2153 0.950 . S
C2147 C2145 1.387 . S
C2147 C2149 1.390 . S
C2147 H2151 0.950 . S
H2148 C2144 0.950 . S
C2149 C2147 1.390 . S
C2149 C2150 1.387 . S
C2149 H2152 0.950 . S
C2150 C2149 1.387 . S
C2150 C2153 1.387 . S
H2151 C2147 0.950 . S
H2152 C2149 0.950 . S
C2153 C2144 1.390 . S
C2153 H2146 0.950 . S
C2153 C2150 1.387 . S
C2154 C2155 1.387 . S
C2154 H2158 0.950 . S
C2154 C2163 1.390 . S
C2155 C2154 1.387 . S
C2155 C2157 1.387 . S
H2156 C2163 0.950 . S
C2157 C2155 1.387 . S
C2157 C2159 1.390 . S
C2157 H2161 0.950 . S
H2158 C2154 0.950 . S
C2159 C2157 1.390 . S
C2159 C2160 1.387 . S
C2159 H2162 0.950 . S
C2160 C2159 1.387 . S
C2160 C2163 1.387 . S
H2161 C2157 0.950 . S
H2162 C2159 0.950 . S
C2163 C2154 1.390 . S
C2163 H2156 0.950 . S
C2163 C2160 1.387 . S
C2164 C2165 1.387 . S
C2164 H2168 0.950 . S
C2164 C2173 1.390 . S
C2165 C2164 1.387 . S
C2165 C2167 1.387 . S
H2166 C2173 0.950 . S
C2167 C2165 1.387 . S
C2167 C2169 1.390 . S
C2167 H2171 0.950 . S
H2168 C2164 0.950 . S
C2169 C2167 1.390 . S
C2169 C2170 1.387 . S
C2169 H2172 0.950 . S
C2170 C2169 1.387 . S
C2170 C2173 1.387 . S
H2171 C2167 0.950 . S
H2172 C2169 0.950 . S
C2173 C2164 1.390 . S
C2173 H2166 0.950 . S
C2173 C2170 1.387 . S
C2174 C2175 1.387 . S
C2174 H2178 0.950 . S
C2174 C2183 1.390 . S
C2175 C2174 1.387 . S
C2175 C2177 1.387 . S
H2176 C2183 0.950 . S
C2177 C2175 1.387 . S
C2177 C2179 1.390 . S
C2177 H2181 0.950 . S
H2178 C2174 0.950 . S
C2179 C2177 1.390 . S
C2179 C2180 1.387 . S
C2179 H2182 0.950 . S
C2180 C2179 1.387 . S
C2180 C2183 1.387 . S
H2181 C2177 0.950 . S
H2182 C2179 0.950 . S
C2183 C2174 1.390 . S
C2183 H2176 0.950 . S
C2183 C2180 1.387 . S
C2184 C2185 1.387 . S
C2184 H2188 0.950 . S
C2184 C2193 1.390 . S
C2185 C2184 1.387 . S
C2185 C2187 1.387 . S
H2186 C2193 0.950 . S
C2187 C2185 1.387 . S
C2187 C2189 1.390 . S
C2187 H2191 0.950 . S
H2188 C2184 0.950 . S
C2189 C2187 1.390 . S
C2189 C2190 1.387 . S
C2189 H2192 0.950 . S
C2190 C2189 1.387 . S
C2190 C2193 1.387 . S
H2191 C2187 0.950 . S
H2192 C2189 0.950 . S
C2193 C2184 1.390 . S
C2193 H2186 0.950 . S
C2193 C2190 1.387 . S
C2194 C2195 1.387 . S
C2194 H2198 0.950 . S
C2194 C2203 1.390 . S
C2195 C2194 1.387 . S
C2195 C2197 1.387 . S
H2196 C2203 0.950 . S
C2197 C2195 1.387 . S
C2197 C2199 1.390 . S
C2197 H2201 0.950 . S
H2198 C2194 0.950 . S
C2199 C2197 1.390 . S
C2199 C2200 1.387 . S
C2199 H2202 0.950 . S
C2200 C2199 1.387 . S
C2200 C2203 1.387 . S
H2201 C2197 0.950 . S
H2202 C2199 0.950 . S
C2203 C2194 1.390 . S
C2203 H2196 0.950 . S
C2203 C2200 1.387 . S
C2204 C2205 1.387 . S
C2204 H2208 0.950 . S
C2204 C2213 1.390 . S
C2205 C2204 1.387 . S
C2205 C2207 1.387 . S
H2206 C2213 0.950 . S
C2207 C2205 1.387 . S
C2207 C2209 1.390 . S
C2207 H2211 0.950 . S
H2208 C2204 0.950 . S
C2209 C2207 1.390 . S
C2209 C2210 1.387 . S
C2209 H2212 0.950 . S
C2210 C2209 1.387 . S
C2210 C2213 1.387 . S
H2211 C2207 0.950 . S
H2212 C2209 0.950 . S
C2213 C2204 1.390 . S
C2213 H2206 0.950 . S
C2213 C2210 1.387 . S
C2214 C2215 1.387 . S
C2214 H2218 0.950 . S
C2214 C2223 1.390 . S
C2215 C2214 1.387 . S
C2215 C2217 1.387 . S
H2216 C2223 0.950 . S
C2217 C2215 1.387 . S
C2217 C2219 1.390 . S
C2217 H2221 0.950 . S
H2218 C2214 0.950 . S
C2219 C2217 1.390 . S
C2219 C2220 1.387 . S
C2219 H2222 0.950 . S
C2220 C2219 1.387 . S
C2220 C2223 1.387 . S
H2221 C2217 0.950 . S
H2222 C2219 0.950 . S
C2223 C2214 1.390 . S
C2223 H2216 0.950 . S
C2223 C2220 1.387 . S
C2224 C2225 1.387 . S
C2224 H2228 0.950 . S
C2224 C2233 1.390 . S
C2225 C2224 1.387 . S
C2225 C2227 1.387 . S
H2226 C2233 0.950 . S
C2227 C2225 1.387 . S
C2227 C2229 1.390 . S
C2227 H2231 0.950 . S
H2228 C2224 0.950 . S
C2229 C2227 1.390 . S
C2229 C2230 1.387 . S
C2229 H2232 0.950 . S
C2230 C2229 1.387 . S
C2230 C2233 1.387 . S
H2231 C2227 0.950 . S
H2232 C2229 0.950 . S
C2233 C2224 1.390 . S
C2233 H2226 0.950 . S
C2233 C2230 1.387 . S
C2234 C2235 1.387 . S
C2234 H2238 0.950 . S
C2234 C2243 1.390 . S
C2235 C2234 1.387 . S
C2235 C2237 1.387 . S
H2236 C2243 0.950 . S
C2237 C2235 1.387 . S
C2237 C2239 1.390 . S
C2237 H2241 0.950 . S
H2238 C2234 0.950 . S
C2239 C2237 1.390 . S
C2239 C2240 1.387 . S
C2239 H2242 0.950 . S
C2240 C2239 1.387 . S
C2240 C2243 1.387 . S
H2241 C2237 0.950 . S
H2242 C2239 0.950 . S
C2243 C2234 1.390 . S
C2243 H2236 0.950 . S
C2243 C2240 1.387 . S
C2244 C2245 1.387 . S
C2244 H2248 0.991 . S
C2244 C2253 1.390 . S
C2245 C2244 1.387 . S
C2245 C2247 1.387 . S
H2246 C2253 0.950 . S
C2247 C2245 1.387 . S
C2247 C2249 1.390 . S
C2247 H2251 0.950 . S
H2248 C2244 0.991 . S
C2249 C2247 1.390 . S
C2249 C2250 1.387 . S
C2249 H2252 0.950 . S
C2250 C2249 1.387 . S
C2250 C2253 1.387 . S
H2251 C2247 0.950 . S
H2252 C2249 0.950 . S
C2253 C2244 1.390 . S
C2253 H2246 0.950 . S
C2253 C2250 1.387 . S
C2254 C2255 1.387 . S
C2254 H2258 0.950 . S
C2254 C2263 1.390 . S
C2255 C2254 1.387 . S
C2255 C2257 1.387 . S
H2256 C2263 0.950 . S
C2257 C2255 1.387 . S
C2257 C2259 1.390 . S
C2257 H2261 0.950 . S
H2258 C2254 0.950 . S
C2259 C2257 1.390 . S
C2259 C2260 1.387 . S
C2259 H2262 0.950 . S
C2260 C2259 1.387 . S
C2260 C2263 1.387 . S
H2261 C2257 0.950 . S
H2262 C2259 0.950 . S
C2263 C2254 1.390 . S
C2263 H2256 0.950 . S
C2263 C2260 1.387 . S
C2264 C2265 1.387 . S
C2264 H2268 0.950 . S
C2264 C2273 1.390 . S
C2265 C2264 1.387 . S
C2265 C2267 1.387 . S
H2266 C2273 0.950 . S
C2267 C2265 1.387 . S
C2267 C2269 1.390 . S
C2267 H2271 0.950 . S
H2268 C2264 0.950 . S
C2269 C2267 1.390 . S
C2269 C2270 1.387 . S
C2269 H2272 0.950 . S
C2270 C2269 1.387 . S
C2270 C2273 1.387 . S
H2271 C2267 0.950 . S
H2272 C2269 0.950 . S
C2273 C2264 1.390 . S
C2273 H2266 0.950 . S
C2273 C2270 1.387 . S
C2274 C2275 1.387 . S
C2274 H2278 0.950 . S
C2274 C2283 1.390 . S
C2275 C2274 1.387 . S
C2275 C2277 1.387 . S
H2276 C2283 0.950 . S
C2277 C2275 1.387 . S
C2277 C2279 1.390 . S
C2277 H2281 0.950 . S
H2278 C2274 0.950 . S
C2279 C2277 1.390 . S
C2279 C2280 1.387 . S
C2279 H2282 0.950 . S
C2280 C2279 1.387 . S
C2280 C2283 1.387 . S
H2281 C2277 0.950 . S
H2282 C2279 0.950 . S
C2283 C2274 1.390 . S
C2283 H2276 0.950 . S
C2283 C2280 1.387 . S
C2284 C2285 1.387 . S
C2284 H2288 0.950 . S
C2284 C2293 1.390 . S
C2285 C2284 1.387 . S
C2285 C2287 1.387 . S
H2286 C2293 0.950 . S
C2287 C2285 1.387 . S
C2287 C2289 1.390 . S
C2287 H2291 0.950 . S
H2288 C2284 0.950 . S
C2289 C2287 1.390 . S
C2289 C2290 1.387 . S
C2289 H2292 0.950 . S
C2290 C2289 1.387 . S
C2290 C2293 1.387 . S
H2291 C2287 0.950 . S
H2292 C2289 0.950 . S
C2293 C2284 1.390 . S
C2293 H2286 0.950 . S
C2293 C2290 1.387 . S
C2294 C2295 1.387 . S
C2294 H2298 0.950 . S
C2294 C2303 1.390 . S
C2295 C2294 1.387 . S
C2295 C2297 1.387 . S
H2296 C2303 0.950 . S
C2297 C2295 1.387 . S
C2297 C2299 1.390 . S
C2297 H2301 0.950 . S
H2298 C2294 0.950 . S
C2299 C2297 1.390 . S
C2299 C2300 1.387 . S
C2299 H2302 0.950 . S
C2300 C2299 1.387 . S
C2300 C2303 1.387 . S
H2301 C2297 0.950 . S
H2302 C2299 0.950 . S
C2303 C2294 1.390 . S
C2303 H2296 0.950 . S
C2303 C2300 1.387 . S
C2304 C2305 1.387 . S
C2304 H2308 0.950 . S
C2304 C2313 1.390 . S
C2305 C2304 1.387 . S
C2305 C2307 1.387 . S
H2306 C2313 0.950 . S
C2307 C2305 1.387 . S
C2307 C2309 1.390 . S
C2307 H2311 0.950 . S
H2308 C2304 0.950 . S
C2309 C2307 1.390 . S
C2309 C2310 1.387 . S
C2309 H2312 0.950 . S
C2310 C2309 1.387 . S
C2310 C2313 1.387 . S
H2311 C2307 0.950 . S
H2312 C2309 0.950 . S
C2313 C2304 1.390 . S
C2313 H2306 0.950 . S
C2313 C2310 1.387 . S
C2314 C2315 1.387 . S
C2314 H2318 0.950 . S
C2314 C2323 1.390 . S
C2315 C2314 1.387 . S
C2315 C2317 1.387 . S
H2316 C2323 0.950 . S
C2317 C2315 1.387 . S
C2317 C2319 1.390 . S
C2317 H2321 0.950 . S
H2318 C2314 0.950 . S
C2319 C2317 1.390 . S
C2319 C2320 1.387 . S
C2319 H2322 0.950 . S
C2320 C2319 1.387 . S
C2320 C2323 1.387 . S
H2321 C2317 0.950 . S
H2322 C2319 0.950 . S
C2323 C2314 1.390 . S
C2323 H2316 0.950 . S
C2323 C2320 1.387 . S
C2324 C2325 1.387 . S
C2324 H2328 0.950 . S
C2324 C2333 1.390 . S
C2325 C2324 1.387 . S
C2325 C2327 1.387 . S
H2326 C2333 0.950 . S
C2327 C2325 1.387 . S
C2327 C2329 1.390 . S
C2327 H2331 0.950 . S
H2328 C2324 0.950 . S
C2329 C2327 1.390 . S
C2329 C2330 1.387 . S
C2329 H2332 0.950 . S
C2330 C2329 1.387 . S
C2330 C2333 1.387 . S
H2331 C2327 0.950 . S
H2332 C2329 0.950 . S
C2333 C2324 1.390 . S
C2333 H2326 0.950 . S
C2333 C2330 1.387 . S
C2334 C2335 1.387 . S
C2334 H2338 0.950 . S
C2334 C2343 1.390 . S
C2335 C2334 1.387 . S
C2335 C2337 1.387 . S
H2336 C2343 0.950 . S
C2337 C2335 1.387 . S
C2337 C2339 1.390 . S
C2337 H2341 0.950 . S
H2338 C2334 0.950 . S
C2339 C2337 1.390 . S
C2339 C2340 1.387 . S
C2339 H2342 0.950 . S
C2340 C2339 1.387 . S
C2340 C2343 1.387 . S
H2341 C2337 0.950 . S
H2342 C2339 0.950 . S
C2343 C2334 1.390 . S
C2343 H2336 0.950 . S
C2343 C2340 1.387 . S
C2344 C2345 1.387 . S
C2344 H2348 0.950 . S
C2344 C2353 1.390 . S
C2345 C2344 1.387 . S
C2345 C2347 1.387 . S
H2346 C2353 0.950 . S
C2347 C2345 1.387 . S
C2347 C2349 1.390 . S
C2347 H2351 0.950 . S
H2348 C2344 0.950 . S
C2349 C2347 1.390 . S
C2349 C2350 1.387 . S
C2349 H2352 0.950 . S
C2350 C2349 1.387 . S
C2350 C2353 1.387 . S
H2351 C2347 0.950 . S
H2352 C2349 0.950 . S
C2353 C2344 1.390 . S
C2353 H2346 0.950 . S
C2353 C2350 1.387 . S
C2354 C2355 1.387 . S
C2354 H2358 0.950 . S
C2354 C2363 1.390 . S
C2355 C2354 1.387 . S
C2355 C2357 1.387 . S
H2356 C2363 0.950 . S
C2357 C2355 1.387 . S
C2357 C2359 1.390 . S
C2357 H2361 0.950 . S
H2358 C2354 0.950 . S
C2359 C2357 1.390 . S
C2359 C2360 1.387 . S
C2359 H2362 0.950 . S
C2360 C2359 1.387 . S
C2360 C2363 1.387 . S
H2361 C2357 0.950 . S
H2362 C2359 0.950 . S
C2363 C2354 1.390 . S
C2363 H2356 0.950 . S
C2363 C2360 1.387 . S
C2364 C2365 1.387 . S
C2364 H2368 0.950 . S
C2364 C2373 1.390 . S
C2365 C2364 1.387 . S
C2365 C2367 1.387 . S
H2366 C2373 0.950 . S
C2367 C2365 1.387 . S
C2367 C2369 1.390 . S
C2367 H2371 0.950 . S
H2368 C2364 0.950 . S
C2369 C2367 1.390 . S
C2369 C2370 1.387 . S
C2369 H2372 0.950 . S
C2370 C2369 1.387 . S
C2370 C2373 1.387 . S
H2371 C2367 0.950 . S
H2372 C2369 0.950 . S
C2373 C2364 1.390 . S
C2373 H2366 0.950 . S
C2373 C2370 1.387 . S
C2374 C2375 1.387 . S
C2374 H2378 0.950 . S
C2374 C2383 1.390 . S
C2375 C2374 1.387 . S
C2375 C2377 1.387 . S
H2376 C2383 0.950 . S
C2377 C2375 1.387 . S
C2377 C2379 1.390 . S
C2377 H2381 0.950 . S
H2378 C2374 0.950 . S
C2379 C2377 1.390 . S
C2379 C2380 1.387 . S
C2379 H2382 0.950 . S
C2380 C2379 1.387 . S
C2380 C2383 1.387 . S
H2381 C2377 0.950 . S
H2382 C2379 0.950 . S
C2383 C2374 1.390 . S
C2383 H2376 0.950 . S
C2383 C2380 1.387 . S
C2384 C2385 1.387 . S
C2384 H2388 0.950 . S
C2384 C2393 1.390 . S
C2385 C2384 1.387 . S
C2385 C2387 1.387 . S
H2386 C2393 0.950 . S
C2387 C2385 1.387 . S
C2387 C2389 1.390 . S
C2387 H2391 0.950 . S
H2388 C2384 0.950 . S
C2389 C2387 1.390 . S
C2389 C2390 1.387 . S
C2389 H2392 0.950 . S
C2390 C2389 1.387 . S
C2390 C2393 1.387 . S
H2391 C2387 0.950 . S
H2392 C2389 0.950 . S
C2393 C2384 1.390 . S
C2393 H2386 0.950 . S
C2393 C2390 1.387 . S
C2394 C2395 1.387 . S
C2394 H2398 0.950 . S
C2394 C2403 1.390 . S
C2395 C2394 1.387 . S
C2395 C2397 1.387 . S
H2396 C2403 0.950 . S
C2397 C2395 1.387 . S
C2397 C2399 1.390 . S
C2397 H2401 0.950 . S
H2398 C2394 0.950 . S
C2399 C2397 1.390 . S
C2399 C2400 1.387 . S
C2399 H2402 0.950 . S
C2400 C2399 1.387 . S
C2400 C2403 1.387 . S
H2401 C2397 0.950 . S
H2402 C2399 0.950 . S
C2403 C2394 1.390 . S
C2403 H2396 0.950 . S
C2403 C2400 1.387 . S
C2404 C2405 1.387 . S
C2404 H2408 0.950 . S
C2404 C2413 1.390 . S
C2405 C2404 1.387 . S
C2405 C2407 1.387 . S
H2406 C2413 0.950 . S
C2407 C2405 1.387 . S
C2407 C2409 1.390 . S
C2407 H2411 0.950 . S
H2408 C2404 0.950 . S
C2409 C2407 1.390 . S
C2409 C2410 1.387 . S
C2409 H2412 0.950 . S
C2410 C2409 1.387 . S
C2410 C2413 1.387 . S
H2411 C2407 0.950 . S
H2412 C2409 0.950 . S
C2413 C2404 1.390 . S
C2413 H2406 0.950 . S
C2413 C2410 1.387 . S
C2414 C2415 1.387 . S
C2414 H2418 0.950 . S
C2414 C2423 1.390 . S
C2415 C2414 1.387 . S
C2415 C2417 1.387 . S
H2416 C2423 0.950 . S
C2417 C2415 1.387 . S
C2417 C2419 1.390 . S
C2417 H2421 0.950 . S
H2418 C2414 0.950 . S
C2419 C2417 1.390 . S
C2419 C2420 1.387 . S
C2419 H2422 0.950 . S
C2420 C2419 1.387 . S
C2420 C2423 1.387 . S
H2421 C2417 0.950 . S
H2422 C2419 0.950 . S
C2423 C2414 1.390 . S
C2423 H2416 0.950 . S
C2423 C2420 1.387 . S
C2424 C2425 1.387 . S
C2424 H2428 0.950 . S
C2424 C2433 1.390 . S
C2425 C2424 1.387 . S
C2425 C2427 1.387 . S
H2426 C2433 0.950 . S
C2427 C2425 1.387 . S
C2427 C2429 1.390 . S
C2427 H2431 0.950 . S
H2428 C2424 0.950 . S
C2429 C2427 1.390 . S
C2429 C2430 1.387 . S
C2429 H2432 0.950 . S
C2430 C2429 1.387 . S
C2430 C2433 1.387 . S
H2431 C2427 0.950 . S
H2432 C2429 0.950 . S
C2433 C2424 1.390 . S
C2433 H2426 0.950 . S
C2433 C2430 1.387 . S
C2434 C2435 1.387 . S
C2434 H2438 0.950 . S
C2434 C2443 1.390 . S
C2435 C2434 1.387 . S
C2435 C2437 1.387 . S
H2436 C2443 0.950 . S
C2437 C2435 1.387 . S
C2437 C2439 1.390 . S
C2437 H2441 0.950 . S
H2438 C2434 0.950 . S
C2439 C2437 1.390 . S
C2439 C2440 1.387 . S
C2439 H2442 0.950 . S
C2440 C2439 1.387 . S
C2440 C2443 1.387 . S
H2441 C2437 0.950 . S
H2442 C2439 0.950 . S
C2443 C2434 1.390 . S
C2443 H2436 0.950 . S
C2443 C2440 1.387 . S
C2444 C2445 1.387 . S
C2444 H2448 0.950 . S
C2444 C2453 1.390 . S
C2445 C2444 1.387 . S
C2445 C2447 1.387 . S
H2446 C2453 0.950 . S
C2447 C2445 1.387 . S
C2447 C2449 1.390 . S
C2447 H2451 0.950 . S
H2448 C2444 0.950 . S
C2449 C2447 1.390 . S
C2449 C2450 1.387 . S
C2449 H2452 0.950 . S
C2450 C2449 1.387 . S
C2450 C2453 1.387 . S
H2451 C2447 0.950 . S
H2452 C2449 0.950 . S
C2453 C2444 1.390 . S
C2453 H2446 0.950 . S
C2453 C2450 1.387 . S
C2454 C2455 1.387 . S
C2454 H2458 0.950 . S
C2454 C2463 1.390 . S
C2455 C2454 1.387 . S
C2455 C2457 1.387 . S
H2456 C2463 0.950 . S
C2457 C2455 1.387 . S
C2457 C2459 1.390 . S
C2457 H2461 0.950 . S
H2458 C2454 0.950 . S
C2459 C2457 1.390 . S
C2459 C2460 1.387 . S
C2459 H2462 0.950 . S
C2460 C2459 1.387 . S
C2460 C2463 1.387 . S
H2461 C2457 0.950 . S
H2462 C2459 0.950 . S
C2463 C2454 1.390 . S
C2463 H2456 0.950 . S
C2463 C2460 1.387 . S
C2464 C2465 1.387 . S
C2464 H2468 0.950 . S
C2464 C2473 1.390 . S
C2465 C2464 1.387 . S
C2465 C2467 1.387 . S
H2466 C2473 0.950 . S
C2467 C2465 1.387 . S
C2467 C2469 1.390 . S
C2467 H2471 0.950 . S
H2468 C2464 0.950 . S
C2469 C2467 1.390 . S
C2469 C2470 1.387 . S
C2469 H2472 0.950 . S
C2470 C2469 1.387 . S
C2470 C2473 1.387 . S
H2471 C2467 0.950 . S
H2472 C2469 0.950 . S
C2473 C2464 1.390 . S
C2473 H2466 0.950 . S
C2473 C2470 1.387 . S
C2474 C2475 1.387 . S
C2474 H2478 0.950 . S
C2474 C2483 1.390 . S
C2475 C2474 1.387 . S
C2475 C2477 1.387 . S
H2476 C2483 0.950 . S
C2477 C2475 1.387 . S
C2477 C2479 1.390 . S
C2477 H2481 0.950 . S
H2478 C2474 0.950 . S
C2479 C2477 1.390 . S
C2479 C2480 1.387 . S
C2479 H2482 0.950 . S
C2480 C2479 1.387 . S
C2480 C2483 1.387 . S
H2481 C2477 0.950 . S
H2482 C2479 0.950 . S
C2483 C2474 1.390 . S
C2483 H2476 0.950 . S
C2483 C2480 1.387 . S
C2484 C2485 1.387 . S
C2484 H2488 0.950 . S
C2484 C2493 1.390 . S
C2485 C2484 1.387 . S
C2485 C2487 1.387 . S
H2486 C2493 0.950 . S
C2487 C2485 1.387 . S
C2487 C2489 1.390 . S
C2487 H2491 0.950 . S
H2488 C2484 0.950 . S
C2489 C2487 1.390 . S
C2489 C2490 1.387 . S
C2489 H2492 0.950 . S
C2490 C2489 1.387 . S
C2490 C2493 1.387 . S
H2491 C2487 0.950 . S
H2492 C2489 0.950 . S
C2493 C2484 1.390 . S
C2493 H2486 0.950 . S
C2493 C2490 1.387 . S
C2494 C2495 1.387 . S
C2494 H2498 0.950 . S
C2494 C2503 1.390 . S
C2495 C2494 1.387 . S
C2495 C2497 1.387 . S
H2496 C2503 0.950 . S
C2497 C2495 1.387 . S
C2497 C2499 1.390 . S
C2497 H2501 0.950 . S
H2498 C2494 0.950 . S
C2499 C2497 1.390 . S
C2499 C2500 1.387 . S
C2499 H2502 0.950 . S
C2500 C2499 1.387 . S
C2500 C2503 1.387 . S
H2501 C2497 0.950 . S
H2502 C2499 0.950 . S
C2503 C2494 1.390 . S
C2503 H2496 0.950 . S
C2503 C2500 1.387 . S
C2504 C2505 1.387 . S
C2504 H2508 0.950 . S
C2504 C2513 1.390 . S
C2505 C2504 1.387 . S
C2505 C2507 1.387 . S
H2506 C2513 0.950 . S
C2507 C2505 1.387 . S
C2507 C2509 1.390 . S
C2507 H2511 0.950 . S
H2508 C2504 0.950 . S
C2509 C2507 1.390 . S
C2509 C2510 1.387 . S
C2509 H2512 0.950 . S
C2510 C2509 1.387 . S
C2510 C2513 1.387 . S
H2511 C2507 0.950 . S
H2512 C2509 0.950 . S
C2513 C2504 1.390 . S
C2513 H2506 0.950 . S
C2513 C2510 1.387 . S
C2514 C2515 1.387 . S
C2514 H2518 0.950 . S
C2514 C2523 1.390 . S
C2515 C2514 1.387 . S
C2515 C2517 1.387 . S
H2516 C2523 0.950 . S
C2517 C2515 1.387 . S
C2517 C2519 1.390 . S
C2517 H2521 0.950 . S
H2518 C2514 0.950 . S
C2519 C2517 1.390 . S
C2519 C2520 1.387 . S
C2519 H2522 0.950 . S
C2520 C2519 1.387 . S
C2520 C2523 1.387 . S
H2521 C2517 0.950 . S
H2522 C2519 0.950 . S
C2523 C2514 1.390 . S
C2523 H2516 0.950 . S
C2523 C2520 1.387 . S
C2524 C2525 1.387 . S
C2524 H2528 0.950 . S
C2524 C2533 1.390 . S
C2525 C2524 1.387 . S
C2525 C2527 1.387 . S
H2526 C2533 0.950 . S
C2527 C2525 1.387 . S
C2527 C2529 1.390 . S
C2527 H2531 0.950 . S
H2528 C2524 0.950 . S
C2529 C2527 1.390 . S
C2529 C2530 1.387 . S
C2529 H2532 0.950 . S
C2530 C2529 1.387 . S
C2530 C2533 1.387 . S
H2531 C2527 0.950 . S
H2532 C2529 0.950 . S
C2533 C2524 1.390 . S
C2533 H2526 0.950 . S
C2533 C2530 1.387 . S
C2534 C2535 1.387 . S
C2534 H2538 0.950 . S
C2534 C2543 1.390 . S
C2535 C2534 1.387 . S
C2535 C2537 1.387 . S
H2536 C2543 0.950 . S
C2537 C2535 1.387 . S
C2537 C2539 1.390 . S
C2537 H2541 0.950 . S
H2538 C2534 0.950 . S
C2539 C2537 1.390 . S
C2539 C2540 1.387 . S
C2539 H2542 0.950 . S
C2540 C2539 1.387 . S
C2540 C2543 1.387 . S
H2541 C2537 0.950 . S
H2542 C2539 0.950 . S
C2543 C2534 1.390 . S
C2543 H2536 0.950 . S
C2543 C2540 1.387 . S
C2544 C2545 1.387 . S
C2544 H2548 0.950 . S
C2544 C2553 1.390 . S
C2545 C2544 1.387 . S
C2545 C2547 1.387 . S
H2546 C2553 0.950 . S
C2547 C2545 1.387 . S
C2547 C2549 1.390 . S
C2547 H2551 0.950 . S
H2548 C2544 0.950 . S
C2549 C2547 1.390 . S
C2549 C2550 1.387 . S
C2549 H2552 0.950 . S
C2550 C2549 1.387 . S
C2550 C2553 1.387 . S
H2551 C2547 0.950 . S
H2552 C2549 0.950 . S
C2553 C2544 1.390 . S
C2553 H2546 0.950 . S
C2553 C2550 1.387 . S
C2554 C2555 1.387 . S
C2554 H2558 0.950 . S
C2554 C2563 1.390 . S
C2555 C2554 1.387 . S
C2555 C2557 1.387 . S
H2556 C2563 0.950 . S
C2557 C2555 1.387 . S
C2557 C2559 1.390 . S
C2557 H2561 0.950 . S
H2558 C2554 0.950 . S
C2559 C2557 1.390 . S
C2559 C2560 1.387 . S
C2559 H2562 0.950 . S
C2560 C2559 1.387 . S
C2560 C2563 1.387 . S
H2561 C2557 0.950 . S
H2562 C2559 0.950 . S
C2563 C2554 1.390 . S
C2563 H2556 0.950 . S
C2563 C2560 1.387 . S
C2564 C2565 1.387 . S
C2564 H2568 0.950 . S
C2564 C2573 1.390 . S
C2565 C2564 1.387 . S
C2565 C2567 1.387 . S
H2566 C2573 0.950 . S
C2567 C2565 1.387 . S
C2567 C2569 1.390 . S
C2567 H2571 0.950 . S
H2568 C2564 0.950 . S
C2569 C2567 1.390 . S
C2569 C2570 1.387 . S
C2569 H2572 0.950 . S
C2570 C2569 1.387 . S
C2570 C2573 1.387 . S
H2571 C2567 0.950 . S
H2572 C2569 0.950 . S
C2573 C2564 1.390 . S
C2573 H2566 0.950 . S
C2573 C2570 1.387 . S
C2574 C2575 1.387 . S
C2574 H2578 0.950 . S
C2574 C2583 1.390 . S
C2575 C2574 1.387 . S
C2575 C2577 1.387 . S
H2576 C2583 0.950 . S
C2577 C2575 1.387 . S
C2577 C2579 1.390 . S
C2577 H2581 0.950 . S
H2578 C2574 0.950 . S
C2579 C2577 1.390 . S
C2579 C2580 1.387 . S
C2579 H2582 0.950 . S
C2580 C2579 1.387 . S
C2580 C2583 1.387 . S
H2581 C2577 0.950 . S
H2582 C2579 0.950 . S
C2583 C2574 1.390 . S
C2583 H2576 0.950 . S
C2583 C2580 1.387 . S
C2584 C2585 1.387 . S
C2584 H2588 0.950 . S
C2584 C2593 1.390 . S
C2585 C2584 1.387 . S
C2585 C2587 1.387 . S
H2586 C2593 0.950 . S
C2587 C2585 1.387 . S
C2587 C2589 1.390 . S
C2587 H2591 0.950 . S
H2588 C2584 0.950 . S
C2589 C2587 1.390 . S
C2589 C2590 1.387 . S
C2589 H2592 0.950 . S
C2590 C2589 1.387 . S
C2590 C2593 1.387 . S
H2591 C2587 0.950 . S
H2592 C2589 0.950 . S
C2593 C2584 1.390 . S
C2593 H2586 0.950 . S
C2593 C2590 1.387 . S
C2594 C2595 1.387 . S
C2594 H2598 0.950 . S
C2594 C2603 1.390 . S
C2595 C2594 1.387 . S
C2595 C2597 1.387 . S
H2596 C2603 0.950 . S
C2597 C2595 1.387 . S
C2597 C2599 1.390 . S
C2597 H2601 0.950 . S
H2598 C2594 0.950 . S
C2599 C2597 1.390 . S
C2599 C2600 1.387 . S
C2599 H2602 0.950 . S
C2600 C2599 1.387 . S
C2600 C2603 1.387 . S
H2601 C2597 0.950 . S
H2602 C2599 0.950 . S
C2603 C2594 1.390 . S
C2603 H2596 0.950 . S
C2603 C2600 1.387 . S
C2604 C2605 1.387 . S
C2604 H2608 0.950 . S
C2604 C2613 1.390 . S
C2605 C2604 1.387 . S
C2605 C2607 1.387 . S
H2606 C2613 0.950 . S
C2607 C2605 1.387 . S
C2607 C2609 1.390 . S
C2607 H2611 0.950 . S
H2608 C2604 0.950 . S
C2609 C2607 1.390 . S
C2609 C2610 1.387 . S
C2609 H2612 0.950 . S
C2610 C2609 1.387 . S
C2610 C2613 1.387 . S
H2611 C2607 0.950 . S
H2612 C2609 0.950 . S
C2613 C2604 1.390 . S
C2613 H2606 0.950 . S
C2613 C2610 1.387 . S
C2614 C2615 1.387 . S
C2614 H2618 0.950 . S
C2614 C2623 1.390 . S
C2615 C2614 1.387 . S
C2615 C2617 1.387 . S
H2616 C2623 0.950 . S
C2617 C2615 1.387 . S
C2617 C2619 1.390 . S
C2617 H2621 0.950 . S
H2618 C2614 0.950 . S
C2619 C2617 1.390 . S
C2619 C2620 1.387 . S
C2619 H2622 0.950 . S
C2620 C2619 1.387 . S
C2620 C2623 1.387 . S
H2621 C2617 0.950 . S
H2622 C2619 0.950 . S
C2623 C2614 1.390 . S
C2623 H2616 0.950 . S
C2623 C2620 1.387 . S
C2624 C2625 1.387 . S
C2624 H2628 0.950 . S
C2624 C2633 1.390 . S
C2625 C2624 1.387 . S
C2625 C2627 1.387 . S
H2626 C2633 0.950 . S
C2627 C2625 1.387 . S
C2627 C2629 1.390 . S
C2627 H2631 0.950 . S
H2628 C2624 0.950 . S
C2629 C2627 1.390 . S
C2629 C2630 1.387 . S
C2629 H2632 0.950 . S
C2630 C2629 1.387 . S
C2630 C2633 1.387 . S
H2631 C2627 0.950 . S
H2632 C2629 0.950 . S
C2633 C2624 1.390 . S
C2633 H2626 0.950 . S
C2633 C2630 1.387 . S
C2634 C2635 1.387 . S
C2634 H2638 0.950 . S
C2634 C2643 1.390 . S
C2635 C2634 1.387 . S
C2635 C2637 1.387 . S
H2636 C2643 0.950 . S
C2637 C2635 1.387 . S
C2637 C2639 1.390 . S
C2637 H2641 0.950 . S
H2638 C2634 0.950 . S
C2639 C2637 1.390 . S
C2639 C2640 1.387 . S
C2639 H2642 0.950 . S
C2640 C2639 1.387 . S
C2640 C2643 1.387 . S
H2641 C2637 0.950 . S
H2642 C2639 0.950 . S
C2643 C2634 1.390 . S
C2643 H2636 0.950 . S
C2643 C2640 1.387 . S
C2644 C2645 1.387 . S
C2644 H2648 0.950 . S
C2644 C2653 1.390 . S
C2645 C2644 1.387 . S
C2645 C2647 1.387 . S
H2646 C2653 0.950 . S
C2647 C2645 1.387 . S
C2647 C2649 1.390 . S
C2647 H2651 0.950 . S
H2648 C2644 0.950 . S
C2649 C2647 1.390 . S
C2649 C2650 1.387 . S
C2649 H2652 0.950 . S
C2650 C2649 1.387 . S
C2650 C2653 1.387 . S
H2651 C2647 0.950 . S
H2652 C2649 0.950 . S
C2653 C2644 1.390 . S
C2653 H2646 0.950 . S
C2653 C2650 1.387 . S
C2654 C2655 1.387 . S
C2654 H2658 0.950 . S
C2654 C2663 1.390 . S
C2655 C2654 1.387 . S
C2655 C2657 1.387 . S
H2656 C2663 0.950 . S
C2657 C2655 1.387 . S
C2657 C2659 1.390 . S
C2657 H2661 0.950 . S
H2658 C2654 0.950 . S
C2659 C2657 1.390 . S
C2659 C2660 1.387 . S
C2659 H2662 0.950 . S
C2660 C2659 1.387 . S
C2660 C2663 1.387 . S
H2661 C2657 0.950 . S
H2662 C2659 0.950 . S
C2663 C2654 1.390 . S
C2663 H2656 0.950 . S
C2663 C2660 1.387 . S
C2664 C2665 1.387 . S
C2664 H2668 0.950 . S
C2664 C2673 1.390 . S
C2665 C2664 1.387 . S
C2665 C2667 1.387 . S
H2666 C2673 0.950 . S
C2667 C2665 1.387 . S
C2667 C2669 1.390 . S
C2667 H2671 0.950 . S
H2668 C2664 0.950 . S
C2669 C2667 1.390 . S
C2669 C2670 1.387 . S
C2669 H2672 0.950 . S
C2670 C2669 1.387 . S
C2670 C2673 1.387 . S
H2671 C2667 0.950 . S
H2672 C2669 0.950 . S
C2673 C2664 1.390 . S
C2673 H2666 0.950 . S
C2673 C2670 1.387 . S
C2674 C2675 1.387 . S
C2674 H2678 0.950 . S
C2674 C2683 1.390 . S
C2675 C2674 1.387 . S
C2675 C2677 1.387 . S
H2676 C2683 0.950 . S
C2677 C2675 1.387 . S
C2677 C2679 1.390 . S
C2677 H2681 0.950 . S
H2678 C2674 0.950 . S
C2679 C2677 1.390 . S
C2679 C2680 1.387 . S
C2679 H2682 0.950 . S
C2680 C2679 1.387 . S
C2680 C2683 1.387 . S
H2681 C2677 0.950 . S
H2682 C2679 0.950 . S
C2683 C2674 1.390 . S
C2683 H2676 0.950 . S
C2683 C2680 1.387 . S
C2684 C2685 1.387 . S
C2684 H2688 0.950 . S
C2684 C2693 1.390 . S
C2685 C2684 1.387 . S
C2685 C2687 1.387 . S
H2686 C2693 0.950 . S
C2687 C2685 1.387 . S
C2687 C2689 1.390 . S
C2687 H2691 0.950 . S
H2688 C2684 0.950 . S
C2689 C2687 1.390 . S
C2689 C2690 1.387 . S
C2689 H2692 0.950 . S
C2690 C2689 1.387 . S
C2690 C2693 1.387 . S
H2691 C2687 0.950 . S
H2692 C2689 0.950 . S
C2693 C2684 1.390 . S
C2693 H2686 0.950 . S
C2693 C2690 1.387 . S
C2694 C2695 1.387 . S
C2694 H2698 0.950 . S
C2694 C2703 1.390 . S
C2695 C2694 1.387 . S
C2695 C2697 1.387 . S
H2696 C2703 0.950 . S
C2697 C2695 1.387 . S
C2697 C2699 1.390 . S
C2697 H2701 0.950 . S
H2698 C2694 0.950 . S
C2699 C2697 1.390 . S
C2699 C2700 1.387 . S
C2699 H2702 0.950 . S
C2700 C2699 1.387 . S
C2700 C2703 1.387 . S
H2701 C2697 0.950 . S
H2702 C2699 0.950 . S
C2703 C2694 1.390 . S
C2703 H2696 0.950 . S
C2703 C2700 1.387 . S
C2704 C2705 1.387 . S
C2704 H2708 0.950 . S
C2704 C2713 1.390 . S
C2705 C2704 1.387 . S
C2705 C2707 1.387 . S
H2706 C2713 0.950 . S
C2707 C2705 1.387 . S
C2707 C2709 1.390 . S
C2707 H2711 0.950 . S
H2708 C2704 0.950 . S
C2709 C2707 1.390 . S
C2709 C2710 1.387 . S
C2709 H2712 0.950 . S
C2710 C2709 1.387 . S
C2710 C2713 1.387 . S
H2711 C2707 0.950 . S
H2712 C2709 0.950 . S
C2713 C2704 1.390 . S
C2713 H2706 0.950 . S
C2713 C2710 1.387 . S
C2714 C2715 1.387 . S
C2714 H2718 0.950 . S
C2714 C2723 1.390 . S
C2715 C2714 1.387 . S
C2715 C2717 1.387 . S
H2716 C2723 0.950 . S
C2717 C2715 1.387 . S
C2717 C2719 1.390 . S
C2717 H2721 0.950 . S
H2718 C2714 0.950 . S
C2719 C2717 1.390 . S
C2719 C2720 1.387 . S
C2719 H2722 0.950 . S
C2720 C2719 1.387 . S
C2720 C2723 1.387 . S
H2721 C2717 0.950 . S
H2722 C2719 0.950 . S
C2723 C2714 1.390 . S
C2723 H2716 0.950 . S
C2723 C2720 1.387 . S
C2724 C2725 1.387 . S
C2724 H2728 0.950 . S
C2724 C2733 1.390 . S
C2725 C2724 1.387 . S
C2725 C2727 1.387 . S
H2726 C2733 0.950 . S
C2727 C2725 1.387 . S
C2727 C2729 1.390 . S
C2727 H2731 0.950 . S
H2728 C2724 0.950 . S
C2729 C2727 1.390 . S
C2729 C2730 1.387 . S
C2729 H2732 0.950 . S
C2730 C2729 1.387 . S
C2730 C2733 1.387 . S
H2731 C2727 0.950 . S
H2732 C2729 0.950 . S
C2733 C2724 1.390 . S
C2733 H2726 0.950 . S
C2733 C2730 1.387 . S
C2734 C2735 1.387 . S
C2734 H2738 0.950 . S
C2734 C2743 1.390 . S
C2735 C2734 1.387 . S
C2735 C2737 1.387 . S
H2736 C2743 0.950 . S
C2737 C2735 1.387 . S
C2737 C2739 1.390 . S
C2737 H2741 0.950 . S
H2738 C2734 0.950 . S
C2739 C2737 1.390 . S
C2739 C2740 1.387 . S
C2739 H2742 0.950 . S
C2740 C2739 1.387 . S
C2740 C2743 1.387 . S
H2741 C2737 0.950 . S
H2742 C2739 0.950 . S
C2743 C2734 1.390 . S
C2743 H2736 0.950 . S
C2743 C2740 1.387 . S
C2744 C2745 1.387 . S
C2744 H2748 0.950 . S
C2744 C2753 1.390 . S
C2745 C2744 1.387 . S
C2745 C2747 1.387 . S
H2746 C2753 0.950 . S
C2747 C2745 1.387 . S
C2747 C2749 1.390 . S
C2747 H2751 0.950 . S
H2748 C2744 0.950 . S
C2749 C2747 1.390 . S
C2749 C2750 1.387 . S
C2749 H2752 0.950 . S
C2750 C2749 1.387 . S
C2750 C2753 1.387 . S
H2751 C2747 0.950 . S
H2752 C2749 0.950 . S
C2753 C2744 1.390 . S
C2753 H2746 0.950 . S
C2753 C2750 1.387 . S
C2754 C2755 1.387 . S
C2754 H2758 0.950 . S
C2754 C2763 1.390 . S
C2755 C2754 1.387 . S
C2755 C2757 1.387 . S
H2756 C2763 0.950 . S
C2757 C2755 1.387 . S
C2757 C2759 1.390 . S
C2757 H2761 0.950 . S
H2758 C2754 0.950 . S
C2759 C2757 1.390 . S
C2759 C2760 1.387 . S
C2759 H2762 0.950 . S
C2760 C2759 1.387 . S
C2760 C2763 1.387 . S
H2761 C2757 0.950 . S
H2762 C2759 0.950 . S
C2763 C2754 1.390 . S
C2763 H2756 0.950 . S
C2763 C2760 1.387 . S
C2764 C2765 1.387 . S
C2764 H2768 0.950 . S
C2764 C2773 1.390 . S
C2765 C2764 1.387 . S
C2765 C2767 1.387 . S
H2766 C2773 0.950 . S
C2767 C2765 1.387 . S
C2767 C2769 1.390 . S
C2767 H2771 0.950 . S
H2768 C2764 0.950 . S
C2769 C2767 1.390 . S
C2769 C2770 1.387 . S
C2769 H2772 0.950 . S
C2770 C2769 1.387 . S
C2770 C2773 1.387 . S
H2771 C2767 0.950 . S
H2772 C2769 0.950 . S
C2773 C2764 1.390 . S
C2773 H2766 0.950 . S
C2773 C2770 1.387 . S
C2774 C2775 1.387 . S
C2774 H2778 0.950 . S
C2774 C2783 1.390 . S
C2775 C2774 1.387 . S
C2775 C2777 1.387 . S
H2776 C2783 0.950 . S
C2777 C2775 1.387 . S
C2777 C2779 1.390 . S
C2777 H2781 0.950 . S
H2778 C2774 0.950 . S
C2779 C2777 1.390 . S
C2779 C2780 1.387 . S
C2779 H2782 0.950 . S
C2780 C2779 1.387 . S
C2780 C2783 1.387 . S
H2781 C2777 0.950 . S
H2782 C2779 0.950 . S
C2783 C2774 1.390 . S
C2783 H2776 0.950 . S
C2783 C2780 1.387 . S
C1585 C974 1.259 . S
C1590 C17 1.262 . S
C1595 C50 1.263 . S
C1600 C1007 1.259 . S
C1605 C83 1.263 . S
C1610 C1040 1.259 . S
C1615 C941 1.260 . S
C1620 C116 1.264 . S
C1625 C908 1.260 . S
C1630 C149 1.264 . S
C1635 C809 1.259 . S
C1640 C182 1.263 . S
C1645 C215 1.263 . S
C1650 C842 1.259 . S
C1655 C875 1.263 . S
C1660 C248 1.259 . S
C1665 C281 1.259 . S
C1670 C1568 1.263 . S
C1675 C710 1.264 . S
C1680 C314 1.260 . S
C1685 C347 1.263 . S
C1690 C1535 1.259 . S
C1695 C545 1.263 . S
C1700 C380 1.259 . S
C1705 C413 1.259 . S
C1710 C677 1.263 . S
C1715 C446 1.263 . S
C1720 C1370 1.259 . S
C1725 C479 1.264 . S
C1730 C1403 1.260 . S
C1735 C1436 1.259 . S
C1740 C512 1.263 . S
C1745 C578 1.259 . S
C1750 C1238 1.263 . S
C1755 C1271 1.264 . S
C1760 C611 1.260 . S
C1765 C644 1.263 . S
C1770 C1304 1.259 . S
C1775 C743 1.263 . S
C1780 C1139 1.259 . S
C1785 C1073 1.259 . S
C1790 C776 1.263 . S
C1795 C1106 1.264 . S
C1800 C1502 1.260 . S
C1805 C1172 1.259 . S
C1810 C1337 1.263 . S
C1815 C1469 1.263 . S
C1820 C1205 1.259 . S
C1825 C734 1.693 1_455 S
C1830 C8 1.701 . S
C1835 C1328 1.701 . S
C1840 C41 1.701 . S
C1845 C767 1.698 . S
C1850 C74 1.699 . S
C1855 C1493 1.701 . S
C1860 C107 1.704 1_554 S
C1865 C602 1.704 1_455 S
C1870 C140 1.700 . S
C1875 C173 1.699 . S
C1880 C635 1.700 . S
C1885 C1460 1.701 . S
C1890 C206 1.700 . S
C1895 C569 1.701 . S
C1900 C239 1.701 . S
C1905 C437 1.693 1_545 S
C1910 C272 1.698 . S
C1915 C305 1.704 1_545 S
C1920 C470 1.700 . S
C1925 C503 1.701 . S
C1930 C338 1.700 . S
C1935 C404 1.699 . S
C1940 C371 1.700 . S
C1945 C536 1.701 . S
C1950 C833 1.694 1_554 S
C1955 C668 1.699 . S
C1960 C998 1.700 . S
C1965 C701 1.699 . S
C1970 C899 1.700 . S
C1975 C800 1.700 . S
C1980 C1526 1.699 . S
C1985 C1559 1.699 . S
C1990 C866 1.700 . S
C1995 C1394 1.698 . S
C2000 C932 1.699 . S
C2005 C965 1.699 . S
C2010 C1427 1.698 . S
C2015 C1031 1.699 . S
C2020 C1361 1.699 . S
C2025 C1229 1.700 . S
C2030 C1064 1.699 . S
C2035 C1262 1.699 . S
C2040 C1097 1.700 . S
C2045 C1130 1.701 . S
C2050 C1295 1.700 . S
C2055 C1163 1.699 . S
C2060 C1196 1.701 . S
C2065 N236 0.702 . S
C2070 N5 0.709 . S
C2075 N137 0.705 . S
C2080 N38 0.712 . S
C2085 N170 0.702 . S
C2090 N71 0.710 . S
C2095 N203 0.707 . S
C2100 N104 0.701 . S
C2105 N269 0.713 . S
C2110 N665 0.710 . S
C2115 N1358 0.710 . S
C2120 N302 0.703 . S
C2125 N1391 0.713 . S
C2130 N335 0.709 . S
C2135 N368 0.709 . S
C2140 N1424 0.713 . S
C2145 N401 0.701 . S
C2150 N1556 0.706 . S
C2155 N434 0.706 . S
C2160 N698 0.701 . S
C2165 N1523 0.713 . S
C2170 N467 0.709 . S
C2175 N500 0.710 . S
C2180 N533 0.702 . S
C2185 N1094 0.711 . S
C2190 N566 0.703 . S
C2195 N599 0.712 . S
C2200 N1127 0.711 . S
C2205 N1160 0.710 . S
C2210 N632 0.703 . S
C2215 N731 0.701 . S
C2220 N1259 0.706 . S
C2225 N1193 0.711 . S
C2230 N764 0.712 . S
C2235 N1028 0.701 . S
C2240 N797 0.706 . S
C2245 N929 0.703 . S
C2250 N830 0.711 . S
C2255 N962 0.713 . S
C2260 N863 0.707 . S
C2265 N896 0.712 . S
C2270 N995 0.704 . S
C2275 N1061 0.711 . S
C2280 N1457 0.712 . S
C2285 N1490 0.712 . S
C2290 N1226 0.704 . S
C2295 N1325 0.703 . S
C2300 N1292 0.711 . S
C2305 N575 1.681 . S
C2310 C28 2.110 . S
C2315 C61 2.110 . S
C2320 N608 1.680 . S
C2325 C94 2.111 . S
C2330 N641 1.681 . S
C2335 C127 2.111 . S
C2340 N1466 1.677 . S
C2345 N1334 1.681 . S
C2350 C160 2.111 . S
C2355 N773 1.679 . S
C2360 C193 2.111 . S
C2365 N1499 1.681 . S
C2370 C226 2.111 . S
C2375 C259 2.109 . S
C2380 N740 1.676 . S
C2385 C292 2.109 . S
C2390 N1004 1.677 . S
C2395 N1037 1.678 . S
C2400 C325 2.111 . S
C2405 N938 1.682 . S
C2410 C358 2.111 . S
C2415 N971 1.677 . S
C2420 C391 2.110 . S
C2425 N872 1.677 . S
C2430 C424 2.110 . S
C2435 C457 2.110 . S
C2440 N905 1.676 . S
C2445 N806 1.681 . S
C2450 C490 2.111 . S
C2455 C523 2.110 . S
C2460 N839 1.678 . S
C2465 C556 2.110 . S
C2470 N344 1.677 . S
C2475 C589 2.110 . S
C2480 N1268 1.677 . S
C2485 C622 2.111 . S
C2490 N1301 1.680 . S
C2495 C655 2.110 . S
C2500 N1202 1.678 . S
C2505 N443 1.680 . S
C2510 C688 2.110 . S
C2515 N278 1.679 . S
C2520 C721 2.111 . S
C2525 C754 2.110 . S
C2530 N1103 1.678 . S
C2535 N1169 1.682 . S
C2540 C787 2.111 . S
C2545 C820 2.110 . S
C2550 N1367 1.677 . S
C2555 N1400 1.678 . S
C2560 C853 2.110 . S
C2565 C886 2.111 . S
C2570 N1433 1.682 . S
C2575 C919 2.112 . S
C2580 N674 1.682 . S
C2585 C952 2.112 . S
C2590 N542 1.682 . S
C2595 C985 2.110 . S
C2600 N1565 1.679 . S
C2605 C1018 2.110 . S
C2610 N707 1.677 . S
C2615 N1532 1.681 . S
C2620 C1051 2.110 . S
C2625 C1084 2.111 . S
C2630 N212 1.682 . S
C2635 C1117 2.111 . S
C2640 N245 1.679 . S
C2645 C1150 2.111 . S
C2650 N146 1.681 . S
C2655 N179 1.677 . S
C2660 C1183 2.110 . S
C2665 C1216 2.111 . S
C2670 N80 1.680 . S
C2675 N113 1.681 . S
C2680 C1249 2.111 . S
C2685 C1282 2.112 . S
C2690 N14 1.682 . S
C2695 C1315 2.110 . S
C2700 N47 1.681 . S
C2705 N1136 1.678 . S
C2710 C1348 2.110 . S
C2715 C1381 2.110 . S
C2720 N476 1.677 . S
C2725 N509 1.682 . S
C2730 C1414 2.112 . S
C2735 C1447 2.110 . S
C2740 N410 1.678 . S
C2745 N1235 1.677 . S
C2750 C1480 2.109 . S
C2755 N1070 1.679 . S
C2760 C1513 2.110 . S
C2765 N311 1.680 . S
C2770 C1546 2.110 . S
C2775 N377 1.681 . S
C2780 C1579 2.111 . S
