# Generated by pormake.
# Topology wjf, (4)-cn, num edge types: 1
# Building blocks:
#     Node 0, Type 0, BuildingBlock: UXUYUI_clean_sbu_0, # of connection points: 4
#     Node 1, Type 0, BuildingBlock: UXUYUI_clean_sbu_0, # of connection points: 4
#     Node 2, Type 0, BuildingBlock: UXUYUI_clean_sbu_0, # of connection points: 4
#     Node 3, Type 0, BuildingBlock: UXUYUI_clean_sbu_0, # of connection points: 4
#     Node 4, Type 0, BuildingBlock: UXUYUI_clean_sbu_0, # of connection points: 4
#     Node 5, Type 0, BuildingBlock: UXUYUI_clean_sbu_0, # of connection points: 4
#     Node 6, Type 0, BuildingBlock: UXUYUI_clean_sbu_0, # of connection points: 4
#     Node 7, Type 0, BuildingBlock: UXUYUI_clean_sbu_0, # of connection points: 4
#     Node 8, Type 0, BuildingBlock: UXUYUI_clean_sbu_0, # of connection points: 4
#     Node 9, Type 0, BuildingBlock: UXUYUI_clean_sbu_0, # of connection points: 4
#     Node 10, Type 0, BuildingBlock: UXUYUI_clean_sbu_0, # of connection points: 4
#     Node 11, Type 0, BuildingBlock: UXUYUI_clean_sbu_0, # of connection points: 4
#     Edge 12, Type (0, 0), BuildingBlock: KIFKEQ_clean_linker_1, # of connection points: 2
#     Edge 13, Type (0, 0), BuildingBlock: KIFKEQ_clean_linker_1, # of connection points: 2
#     Edge 14, Type (0, 0), BuildingBlock: KIFKEQ_clean_linker_1, # of connection points: 2
#     Edge 15, Type (0, 0), BuildingBlock: KIFKEQ_clean_linker_1, # of connection points: 2
#     Edge 16, Type (0, 0), BuildingBlock: KIFKEQ_clean_linker_1, # of connection points: 2
#     Edge 17, Type (0, 0), BuildingBlock: KIFKEQ_clean_linker_1, # of connection points: 2
#     Edge 18, Type (0, 0), BuildingBlock: KIFKEQ_clean_linker_1, # of connection points: 2
#     Edge 19, Type (0, 0), BuildingBlock: KIFKEQ_clean_linker_1, # of connection points: 2
#     Edge 20, Type (0, 0), BuildingBlock: KIFKEQ_clean_linker_1, # of connection points: 2
#     Edge 21, Type (0, 0), BuildingBlock: KIFKEQ_clean_linker_1, # of connection points: 2
#     Edge 22, Type (0, 0), BuildingBlock: KIFKEQ_clean_linker_1, # of connection points: 2
#     Edge 23, Type (0, 0), BuildingBlock: KIFKEQ_clean_linker_1, # of connection points: 2
#     Edge 24, Type (0, 0), BuildingBlock: KIFKEQ_clean_linker_1, # of connection points: 2
#     Edge 25, Type (0, 0), BuildingBlock: KIFKEQ_clean_linker_1, # of connection points: 2
#     Edge 26, Type (0, 0), BuildingBlock: KIFKEQ_clean_linker_1, # of connection points: 2
#     Edge 27, Type (0, 0), BuildingBlock: KIFKEQ_clean_linker_1, # of connection points: 2
#     Edge 28, Type (0, 0), BuildingBlock: KIFKEQ_clean_linker_1, # of connection points: 2
#     Edge 29, Type (0, 0), BuildingBlock: KIFKEQ_clean_linker_1, # of connection points: 2
#     Edge 30, Type (0, 0), BuildingBlock: KIFKEQ_clean_linker_1, # of connection points: 2
#     Edge 31, Type (0, 0), BuildingBlock: KIFKEQ_clean_linker_1, # of connection points: 2
#     Edge 32, Type (0, 0), BuildingBlock: KIFKEQ_clean_linker_1, # of connection points: 2
#     Edge 33, Type (0, 0), BuildingBlock: KIFKEQ_clean_linker_1, # of connection points: 2
#     Edge 34, Type (0, 0), BuildingBlock: KIFKEQ_clean_linker_1, # of connection points: 2
#     Edge 35, Type (0, 0), BuildingBlock: KIFKEQ_clean_linker_1, # of connection points: 2
# Relax obj value: 0.355
# Max RMSD: 0.304
# Mean RMSD: 0.304
data_MOF--net-wjf--node1-UXUYUI_clean_sbu_0--edge1-KIFKEQ_clean_linker_1
_symmetry_space_group_name_H-M    P1
_symmetry_Int_Tables_number       1
_symmetry_cell_setting            triclinic
loop_
_symmetry_equiv_pos_as_xyz
'x, y, z'
_cell_length_a     74.021909
_cell_length_b     74.029422
_cell_length_c     39.401574
_cell_angle_alpha  90.02842
_cell_angle_beta   90.018057
_cell_angle_gamma 120.00975
loop_
_atom_site_label
_atom_site_type_symbol
_atom_site_fract_x
_atom_site_fract_y
_atom_site_fract_z
_atom_type_partial_charge
Li0 Li 0.31614 0.39623 0.0693 0.0
Li1 Li 0.32351 0.3742 0.10393 0.0
Li2 Li 0.35086 0.4018 0.07172 0.0
Li3 Li 0.32397 0.37154 0.04358 0.0
C4 C 0.32536 0.40805 0.13678 0.0
N5 N 0.30643 0.41462 0.19211 0.0
C6 C 0.30383 0.39562 0.14158 0.0
C7 C 0.33725 0.42379 0.16013 0.0
C8 C 0.29456 0.3992 0.16971 0.0
C9 C 0.32739 0.42688 0.18793 0.0
C10 C 0.28646 0.3443 0.07364 0.0
C11 C 0.28045 0.30935 0.08069 0.0
N12 N 0.25967 0.30168 0.07587 0.0
C13 C 0.26506 0.33608 0.06872 0.0
C14 C 0.29424 0.33085 0.07965 0.0
C15 C 0.25177 0.31449 0.06996 0.0
C16 C 0.28722 0.40012 0.03319 0.0
N17 N 0.29954 0.40854 0.06088 0.0
C18 C 0.28686 0.43226 0.06871 0.0
C19 C 0.29989 0.42453 0.07848 0.0
C20 C 0.27387 0.42371 0.04021 0.0
C21 C 0.27427 0.40754 0.02227 0.0
H22 H 0.28751 0.38757 0.01959 0.0
H23 H 0.31023 0.4313 0.09995 0.0
C24 C 0.33604 0.36251 0.16135 0.0
N25 N 0.31856 0.35984 0.14564 0.0
C26 C 0.33466 0.35312 0.19258 0.0
C27 C 0.2972 0.33823 0.19085 0.0
C28 C 0.29934 0.34807 0.15964 0.0
C29 C 0.31505 0.34074 0.20779 0.0
H30 H 0.35112 0.37218 0.14968 0.0
H31 H 0.28569 0.34637 0.14671 0.0
C32 C 0.3422 0.42066 0.01821 0.0
N33 N 0.35636 0.46026 0.99265 0.0
C34 C 0.34319 0.42391 0.98317 0.0
C35 C 0.34839 0.43756 0.04027 0.0
C36 C 0.35041 0.44404 0.97074 0.0
C37 C 0.3555 0.45745 0.02684 0.0
C38 C 0.35995 0.3705 0.05933 0.0
C39 C 0.36626 0.3787 0.02671 0.0
C40 C 0.36916 0.36017 0.07496 0.0
C41 C 0.38171 0.3764 0.01028 0.0
C42 C 0.38456 0.35819 0.05768 0.0
N43 N 0.39047 0.36628 0.02597 0.0
C44 C 0.3898 0.42524 0.10264 0.0
C45 C 0.39039 0.43089 0.04336 0.0
C46 C 0.41128 0.43892 0.10478 0.0
N47 N 0.37986 0.42154 0.07228 0.0
C48 C 0.4118 0.44489 0.04439 0.0
C49 C 0.42261 0.449 0.07537 0.0
H50 H 0.38103 0.41731 0.12513 0.0
H51 H 0.38226 0.42739 0.01937 0.0
C52 C 0.30995 0.35942 0.97833 0.0
N53 N 0.31716 0.35375 0.0056 0.0
C54 C 0.30547 0.34818 0.94817 0.0
C55 C 0.31517 0.32491 0.97516 0.0
C56 C 0.31958 0.33672 0.00484 0.0
C57 C 0.30831 0.33081 0.94612 0.0
H58 H 0.30813 0.37302 0.97985 0.0
H59 H 0.32526 0.33252 0.02703 0.0
O60 O 0.33496 0.40482 0.10968 0.0
O61 O 0.29957 0.36542 0.07231 0.0
O62 O 0.33498 0.40096 0.03059 0.0
O63 O 0.3449 0.37254 0.07617 0.0
H64 H 0.29432 0.38341 0.1238 0.0
H65 H 0.35394 0.4335 0.1568 0.0
H66 H 0.27792 0.38971 0.17371 0.0
H67 H 0.33641 0.43901 0.20621 0.0
H68 H 0.28626 0.29877 0.08535 0.0
H69 H 0.25881 0.3463 0.06399 0.0
H70 H 0.31073 0.33687 0.08359 0.0
H71 H 0.23517 0.30791 0.06621 0.0
H72 H 0.28697 0.44479 0.08308 0.0
H73 H 0.26425 0.40032 0.0005 0.0
H74 H 0.3489 0.35596 0.205 0.0
H75 H 0.28178 0.32877 0.20153 0.0
H76 H 0.33844 0.41099 0.96576 0.0
H77 H 0.34773 0.43541 0.06746 0.0
H78 H 0.35127 0.44678 0.94366 0.0
H79 H 0.36034 0.47066 0.04361 0.0
H80 H 0.35933 0.38671 0.01411 0.0
H81 H 0.36445 0.35374 0.10021 0.0
H82 H 0.38673 0.38266 0.98504 0.0
H83 H 0.39183 0.35022 0.06948 0.0
H84 H 0.41892 0.44124 0.12912 0.0
H85 H 0.41973 0.45245 0.0211 0.0
H86 H 0.30061 0.35358 0.92635 0.0
H87 H 0.31739 0.31152 0.97482 0.0
Li88 Li 0.94542 0.31657 0.44058 0.0
Li89 Li 0.91744 0.3111 0.40412 0.0
Li90 Li 0.95084 0.31877 0.38014 0.0
Li91 Li 0.94691 0.34663 0.41002 0.0
C92 C 0.93085 0.27659 0.41695 0.0
N93 N 0.9305 0.24103 0.43915 0.0
C94 C 0.91201 0.25886 0.42563 0.0
C95 C 0.94945 0.27614 0.41906 0.0
C96 C 0.91218 0.24106 0.43693 0.0
C97 C 0.94897 0.25804 0.43048 0.0
C98 C 0.91425 0.32051 0.47339 0.0
C99 C 0.90151 0.32496 0.52726 0.0
N100 N 0.88976 0.30388 0.53046 0.0
C101 C 0.90205 0.29891 0.4772 0.0
C102 C 0.91402 0.33367 0.49859 0.0
C103 C 0.88977 0.29079 0.50623 0.0
C104 C 0.97135 0.32662 0.49576 0.0
N105 N 0.95379 0.31039 0.4825 0.0
C106 C 0.95006 0.28935 0.53094 0.0
C107 C 0.94306 0.29195 0.49935 0.0
C108 C 0.96812 0.30597 0.54538 0.0
C109 C 0.97882 0.32476 0.52721 0.0
H110 H 0.97932 0.34124 0.48218 0.0
H111 H 0.92889 0.27939 0.48868 0.0
C112 C 0.88374 0.28088 0.3694 0.0
N113 N 0.88861 0.29543 0.39404 0.0
C114 C 0.8633 0.26907 0.35795 0.0
C115 C 0.853 0.28688 0.39836 0.0
C116 C 0.87385 0.29876 0.40854 0.0
C117 C 0.84773 0.27202 0.37255 0.0
H118 H 0.89589 0.27871 0.35831 0.0
H119 H 0.87825 0.31066 0.42779 0.0
C120 C 0.98932 0.34702 0.4064 0.0
N121 N 0.0305 0.36313 0.38751 0.0
C122 C -0.00014 0.36615 0.38951 0.0
C123 C -0.00018 0.33627 0.41424 0.0
C124 C 0.02065 0.37398 0.38001 0.0
C125 C 0.02061 0.34462 0.40433 0.0
C126 C 0.91919 0.33038 0.34593 0.0
C127 C 0.91492 0.31874 0.31608 0.0
C128 C 0.90769 0.3401 0.35387 0.0
C129 C 0.89897 0.31682 0.29475 0.0
C130 C 0.89186 0.33779 0.33189 0.0
N131 N 0.88785 0.32628 0.30305 0.0
C132 C 0.95697 0.29386 0.33232 0.0
C133 C 0.97648 0.33036 0.32283 0.0
C134 C 0.96405 0.29006 0.30178 0.0
N135 N 0.96324 0.31376 0.34209 0.0
C136 C 0.98411 0.3273 0.29236 0.0
C137 C 0.97764 0.30692 0.28126 0.0
H138 H 0.94585 0.28091 0.34751 0.0
H139 H 0.98039 0.34592 0.33038 0.0
C140 C 0.96029 0.38531 0.44157 0.0
N141 N 0.95604 0.37537 0.41116 0.0
C142 C 0.9677 0.40673 0.44294 0.0
C143 C 0.96618 0.40717 0.38163 0.0
C144 C 0.95877 0.38574 0.38147 0.0
C145 C 0.97081 0.41797 0.41266 0.0
H146 H 0.95803 0.37658 0.46472 0.0
H147 H 0.95544 0.37739 0.35766 0.0
O148 O 0.93098 0.29417 0.40596 0.0
O149 O 0.92661 0.32882 0.44539 0.0
O150 O 0.96897 0.33911 0.41591 0.0
O151 O 0.93432 0.33196 0.3676 0.0
H152 H 0.89742 0.25885 0.42369 0.0
H153 H 0.96408 0.28959 0.41183 0.0
H154 H 0.89773 0.22726 0.44391 0.0
H155 H 0.96328 0.25751 0.43238 0.0
H156 H 0.90118 0.33495 0.54699 0.0
H157 H 0.9021 0.28853 0.45799 0.0
H158 H 0.92341 0.35044 0.49604 0.0
H159 H 0.88027 0.27409 0.5095 0.0
H160 H 0.94132 0.27458 0.54402 0.0
H161 H 0.99246 0.3382 0.53763 0.0
H162 H 0.8596 0.25754 0.33819 0.0
H163 H 0.8412 0.28938 0.41013 0.0
H164 H 0.99202 0.37476 0.3835 0.0
H165 H 0.99208 0.32172 0.42807 0.0
H166 H 0.02895 0.38868 0.36666 0.0
H167 H 0.02891 0.33642 0.41011 0.0
H168 H 0.9237 0.31111 0.30967 0.0
H169 H 0.91079 0.34909 0.377 0.0
H170 H 0.89538 0.30776 0.27165 0.0
H171 H 0.88271 0.34508 0.3378 0.0
H172 H 0.9586 0.27412 0.29392 0.0
H173 H 0.99411 0.3407 0.27682 0.0
H174 H 0.97083 0.41437 0.46742 0.0
H175 H 0.96865 0.41525 0.35768 0.0
Li176 Li 0.62559 0.94807 0.77011 0.0
Li177 Li 0.60294 0.91746 0.73816 0.0
Li178 Li 0.62709 0.94906 0.70958 0.0
Li179 Li 0.59732 0.94664 0.7381 0.0
C180 C 0.655 0.93997 0.74067 0.0
N181 N 0.69768 0.9561 0.74179 0.0
C182 C 0.66329 0.9268 0.73646 0.0
C183 C 0.66843 0.96135 0.74545 0.0
C184 C 0.68491 0.93525 0.73711 0.0
C185 C 0.68996 0.9692 0.74594 0.0
C186 C 0.59236 0.91724 0.80589 0.0
C187 C 0.57425 0.9021 0.85828 0.0
N188 N 0.58683 0.89388 0.86365 0.0
C189 C 0.60512 0.90865 0.81193 0.0
C190 C 0.57682 0.91398 0.82924 0.0
C191 C 0.60208 0.89688 0.84128 0.0
C192 C 0.63856 0.97521 0.82357 0.0
N193 N 0.64064 0.95932 0.81082 0.0
C194 C 0.66232 0.96151 0.85741 0.0
C195 C 0.65224 0.95233 0.82689 0.0
C196 C 0.66038 0.97798 0.87125 0.0
C197 C 0.64833 0.9848 0.85383 0.0
H198 H 0.62902 0.98022 0.81033 0.0
H199 H 0.65354 0.93957 0.81619 0.0
C200 C 0.59616 0.88375 0.70185 0.0
N201 N 0.59017 0.88828 0.73173 0.0
C202 C 0.58754 0.86318 0.69112 0.0
C203 C 0.56698 0.85207 0.74258 0.0
C204 C 0.57569 0.87303 0.75201 0.0
C205 C 0.57283 0.84709 0.71164 0.0
H206 H 0.60752 0.89628 0.68615 0.0
H207 H 0.57072 0.87704 0.77518 0.0
C208 C 0.62832 0.98649 0.72185 0.0
N209 N 0.63199 0.02 0.68524 0.0
C210 C 0.61907 0.98338 0.68981 0.0
C211 C 0.63943 0.00665 0.73523 0.0
C212 C 0.6211 0.00051 0.67172 0.0
C213 C 0.64111 0.02338 0.71633 0.0
C214 C 0.57747 0.91747 0.68715 0.0
C215 C 0.57347 0.91432 0.65235 0.0
C216 C 0.56107 0.90725 0.71024 0.0
C217 C 0.5531 0.90102 0.64119 0.0
C218 C 0.54092 0.89406 0.69806 0.0
N219 N 0.53738 0.89125 0.66408 0.0
C220 C 0.6379 0.94597 0.64361 0.0
C221 C 0.66146 0.97834 0.66927 0.0
C222 C 0.64873 0.95234 0.61303 0.0
N223 N 0.64421 0.95907 0.67068 0.0
C224 C 0.67289 0.98532 0.6392 0.0
C225 C 0.66635 0.97237 0.61036 0.0
H226 H 0.62413 0.93072 0.64561 0.0
H227 H 0.66614 0.98844 0.69125 0.0
C228 C 0.57553 0.96391 0.76837 0.0
N229 N 0.57761 0.95593 0.73852 0.0
C230 C 0.56197 0.97183 0.7708 0.0
C231 C 0.55274 0.96286 0.71183 0.0
C232 C 0.56674 0.95546 0.71037 0.0
C233 C 0.55033 0.97125 0.7423 0.0
H234 H 0.58458 0.96427 0.7902 0.0
H235 H 0.56909 0.94961 0.68666 0.0
O236 O 0.63384 0.93179 0.73997 0.0
O237 O 0.59513 0.92908 0.77763 0.0
O238 O 0.6266 0.97003 0.74025 0.0
O239 O 0.59743 0.93029 0.69831 0.0
H240 H 0.65309 0.91021 0.73272 0.0
H241 H 0.66236 0.97181 0.74882 0.0
H242 H 0.69153 0.92523 0.73388 0.0
H243 H 0.70052 0.98571 0.74962 0.0
H244 H 0.56227 0.89945 0.87656 0.0
H245 H 0.61718 0.9109 0.79416 0.0
H246 H 0.56686 0.92059 0.82496 0.0
H247 H 0.61182 0.89013 0.84626 0.0
H248 H 0.67149 0.95581 0.87001 0.0
H249 H 0.64598 0.99708 0.86392 0.0
H250 H 0.59257 0.85984 0.66728 0.0
H251 H 0.55563 0.83994 0.75892 0.0
H252 H 0.61046 0.96795 0.67891 0.0
H253 H 0.6467 0.00932 0.75997 0.0
H254 H 0.61403 0.99832 0.64691 0.0
H255 H 0.64967 0.03907 0.72639 0.0
H256 H 0.586 0.9221 0.63416 0.0
H257 H 0.5638 0.90942 0.73726 0.0
H258 H 0.54978 0.89845 0.61432 0.0
H259 H 0.52809 0.88606 0.71563 0.0
H260 H 0.64285 0.94195 0.5914 0.0
H261 H 0.6865 0.00078 0.63843 0.0
H262 H 0.56047 0.97818 0.79472 0.0
H263 H 0.54422 0.96248 0.68922 0.0
Li264 Li 0.6765 0.62533 0.11167 0.0
Li265 Li 0.68471 0.60377 0.07769 0.0
Li266 Li 0.67643 0.62799 0.05127 0.0
Li267 Li 0.64967 0.59744 0.07912 0.0
C268 C 0.71345 0.65582 0.08199 0.0
N269 N 0.73934 0.69858 0.08431 0.0
C270 C 0.73494 0.66454 0.07759 0.0
C271 C 0.70511 0.66885 0.08754 0.0
C272 C 0.74778 0.6862 0.07886 0.0
C273 C 0.71846 0.69042 0.08864 0.0
C274 C 0.67521 0.59185 0.14488 0.0
C275 C 0.67337 0.5734 0.19636 0.0
N276 N 0.6943 0.58591 0.20064 0.0
C277 C 0.69671 0.60453 0.14978 0.0
C278 C 0.66344 0.57617 0.16834 0.0
C279 C 0.70606 0.60128 0.17812 0.0
C280 C 0.66321 0.63683 0.1685 0.0
N281 N 0.68089 0.63968 0.15329 0.0
C282 C 0.70174 0.66147 0.19882 0.0
C283 C 0.69997 0.65166 0.16769 0.0
C284 C 0.68368 0.65874 0.21526 0.0
C285 C 0.66423 0.64619 0.19963 0.0
H286 H 0.64826 0.62701 0.15652 0.0
H287 H 0.71379 0.65351 0.15515 0.0
C288 C 0.71316 0.6001 0.04082 0.0
N289 N 0.70159 0.5918 0.06923 0.0
C290 C 0.72527 0.59219 0.02795 0.0
C291 C 0.71385 0.56756 0.07444 0.0
C292 C 0.70157 0.57577 0.08618 0.0
C293 C 0.72561 0.57565 0.04466 0.0
H294 H 0.7126 0.61266 0.02778 0.0
H295 H 0.6918 0.56911 0.10828 0.0
C296 C 0.63989 0.62818 0.06604 0.0
N297 N 0.60919 0.63166 0.03179 0.0
C298 C 0.634 0.62002 0.03329 0.0
C299 C 0.63017 0.63812 0.08134 0.0
C300 C 0.61845 0.62193 0.01641 0.0
C301 C 0.61468 0.63972 0.06361 0.0
C302 C 0.65938 0.57908 0.02601 0.0
C303 C 0.65908 0.57603 0.99097 0.0
C304 C 0.65318 0.56214 0.04794 0.0
C305 C 0.65254 0.55604 0.97841 0.0
C306 C 0.64674 0.5424 0.03439 0.0
N307 N 0.64656 0.53978 0.0002 0.0
C308 C 0.69028 0.6398 0.98586 0.0
C309 C 0.68018 0.66231 0.01178 0.0
C310 C 0.69425 0.6506 0.95534 0.0
N311 N 0.68303 0.64555 0.013 0.0
C312 C 0.68409 0.67368 0.98174 0.0
C313 C 0.69087 0.66762 0.95278 0.0
H314 H 0.69246 0.62644 0.98774 0.0
H315 H 0.67445 0.66656 0.03386 0.0
C316 C 0.61027 0.57318 0.10854 0.0
N317 N 0.62076 0.57729 0.07867 0.0
C318 C 0.5888 0.55928 0.1096 0.0
C319 C 0.58944 0.55389 0.04921 0.0
C320 C 0.6108 0.56809 0.04925 0.0
C321 C 0.57805 0.54941 0.07962 0.0
H322 H 0.61858 0.581 0.13145 0.0
H323 H 0.61935 0.57191 0.02566 0.0
O324 O 0.70078 0.63462 0.0806 0.0
O325 O 0.66553 0.59476 0.11756 0.0
O326 O 0.65503 0.62651 0.08331 0.0
O327 O 0.66604 0.59867 0.03856 0.0
H328 H 0.74163 0.65465 0.07321 0.0
H329 H 0.68854 0.66244 0.09108 0.0
H330 H 0.76446 0.69316 0.07549 0.0
H331 H 0.71222 0.70068 0.09293 0.0
H332 H 0.66444 0.56132 0.21473 0.0
H333 H 0.70614 0.61671 0.13192 0.0
H334 H 0.64677 0.56626 0.16493 0.0
H335 H 0.72267 0.61097 0.18221 0.0
H336 H 0.71706 0.67108 0.20984 0.0
H337 H 0.64984 0.64319 0.21166 0.0
H338 H 0.73438 0.59902 0.00519 0.0
H339 H 0.7138 0.55478 0.08789 0.0
H340 H 0.64134 0.61231 0.02092 0.0
H341 H 0.63456 0.64452 0.10668 0.0
H342 H 0.61375 0.61569 0.99106 0.0
H343 H 0.60702 0.64737 0.07516 0.0
H344 H 0.66385 0.58898 0.97365 0.0
H345 H 0.65332 0.56415 0.07513 0.0
H346 H 0.65222 0.55345 0.95134 0.0
H347 H 0.64191 0.52916 0.05106 0.0
H348 H 0.69907 0.64507 0.93364 0.0
H349 H 0.6815 0.68683 0.98104 0.0
H350 H 0.58069 0.55666 0.13354 0.0
H351 H 0.58199 0.5465 0.02553 0.0
Li352 Li 0.08356 0.67961 0.41403 0.0
Li353 Li 0.05418 0.67507 0.44839 0.0
Li354 Li 0.05323 0.64564 0.41597 0.0
Li355 Li 0.05027 0.67308 0.38616 0.0
C356 C 0.08883 0.66607 0.47322 0.0
N357 N 0.12429 0.67562 0.51004 0.0
C358 C 0.09361 0.67817 0.50263 0.0
C359 C 0.10195 0.65862 0.46275 0.0
C360 C 0.11164 0.68288 0.52086 0.0
C361 C 0.11985 0.66369 0.48163 0.0
C362 C 0.07123 0.71585 0.42046 0.0
C363 C 0.05645 0.7384 0.41697 0.0
N364 N 0.07383 0.75395 0.43201 0.0
C365 C 0.08907 0.73219 0.4354 0.0
C366 C 0.0549 0.71909 0.41074 0.0
C367 C 0.09004 0.75127 0.44123 0.0
C368 C 0.12067 0.69439 0.37763 0.0
N369 N 0.11291 0.69549 0.40833 0.0
C370 C 0.14573 0.72451 0.42445 0.0
C371 C 0.12513 0.7097 0.43208 0.0
C372 C 0.1537 0.72467 0.39203 0.0
C373 C 0.1412 0.70883 0.36897 0.0
H374 H 0.11053 0.68319 0.35898 0.0
H375 H 0.11854 0.71039 0.45616 0.0
C376 C 0.02708 0.66666 0.50225 0.0
N377 N 0.04529 0.682 0.4891 0.0
C378 C 0.01905 0.67005 0.53195 0.0
C379 C 0.04916 0.70472 0.53515 0.0
C380 C 0.05647 0.70075 0.50495 0.0
C381 C 0.03014 0.68927 0.54878 0.0
H382 H 0.01884 0.65167 0.48975 0.0
H383 H 0.07124 0.71244 0.49466 0.0
C384 C 0.06744 0.64599 0.35446 0.0
N385 N 0.06447 0.61408 0.31409 0.0
C386 C 0.05329 0.63844 0.32748 0.0
C387 C 0.08028 0.6375 0.36063 0.0
C388 C 0.05198 0.62226 0.30741 0.0
C389 C 0.07848 0.62132 0.34004 0.0
C390 C 0.01121 0.64998 0.41903 0.0
C391 C 0.99451 0.63038 0.41035 0.0
C392 C 0.00744 0.66621 0.42682 0.0
C393 C 0.97437 0.62751 0.40889 0.0
C394 C 0.98709 0.66272 0.42513 0.0
N395 N 0.97111 0.64361 0.41621 0.0
C396 C 0.05089 0.60816 0.43828 0.0
C397 C 0.02803 0.60437 0.39322 0.0
C398 C 0.04348 0.58672 0.43835 0.0
N399 N 0.04312 0.61649 0.41588 0.0
C400 C 0.02014 0.58288 0.39242 0.0
C401 C 0.02784 0.57378 0.41525 0.0
H402 H 0.06275 0.61814 0.45624 0.0
H403 H 0.02218 0.61145 0.37563 0.0
C404 C 0.05148 0.69779 0.33135 0.0
N405 N 0.03917 0.67949 0.34772 0.0
C406 C 0.04471 0.70238 0.30118 0.0
C407 C 0.01266 0.66928 0.3056 0.0
C408 C 0.02005 0.66534 0.33559 0.0
C409 C 0.02517 0.68787 0.28771 0.0
H410 H 0.06677 0.7086 0.34135 0.0
H411 H 0.0109 0.6506 0.34834 0.0
O412 O 0.07129 0.66137 0.45498 0.0
O413 O 0.07015 0.69712 0.41424 0.0
O414 O 0.0687 0.66158 0.37476 0.0
O415 O 0.03106 0.65305 0.42041 0.0
H416 H 0.08356 0.68392 0.51127 0.0
H417 H 0.09842 0.64912 0.44019 0.0
H418 H 0.11558 0.69231 0.54359 0.0
H419 H 0.13021 0.65813 0.4737 0.0
H420 H 0.04388 0.74105 0.40966 0.0
H421 H 0.10198 0.73014 0.44276 0.0
H422 H 0.04125 0.70697 0.39812 0.0
H423 H 0.10369 0.76396 0.45306 0.0
H424 H 0.15494 0.73643 0.44298 0.0
H425 H 0.14663 0.70859 0.34354 0.0
H426 H 0.00461 0.65755 0.54218 0.0
H427 H 0.05825 0.71963 0.54773 0.0
H428 H 0.04331 0.64488 0.32223 0.0
H429 H 0.09142 0.64328 0.38123 0.0
H430 H 0.04101 0.61618 0.28658 0.0
H431 H 0.08821 0.61451 0.34468 0.0
H432 H 0.99703 0.61753 0.4047 0.0
H433 H 0.02 0.68124 0.4347 0.0
H434 H 0.96133 0.61246 0.40199 0.0
H435 H 0.98398 0.67517 0.43109 0.0
H436 H 0.04966 0.5803 0.45666 0.0
H437 H 0.00829 0.57352 0.3739 0.0
H438 H 0.05483 0.71689 0.28819 0.0
H439 H 0.99775 0.65741 0.29569 0.0
Li440 Li 0.40259 0.0852 0.73299 0.0
Li441 Li 0.37949 0.05529 0.76986 0.0
Li442 Li 0.40696 0.05489 0.73678 0.0
Li443 Li 0.37745 0.05268 0.70968 0.0
C444 C 0.41528 0.08767 0.80082 0.0
N445 N 0.42479 0.11385 0.85614 0.0
C446 C 0.40169 0.09469 0.81074 0.0
C447 C 0.43366 0.09392 0.81908 0.0
C448 C 0.40679 0.10791 0.83879 0.0
C449 C 0.43821 0.1072 0.84694 0.0
C450 C 0.35422 0.06879 0.72382 0.0
C451 C 0.31751 0.04731 0.71168 0.0
N452 N 0.31843 0.06268 0.69157 0.0
C453 C 0.35478 0.08442 0.7032 0.0
C454 C 0.33542 0.05012 0.72826 0.0
C455 C 0.33653 0.08101 0.68705 0.0
C456 C 0.41302 0.11829 0.69121 0.0
N457 N 0.4161 0.11432 0.72372 0.0
C458 C 0.43622 0.15084 0.73557 0.0
C459 C 0.42783 0.13007 0.74574 0.0
C460 C 0.43285 0.15528 0.70228 0.0
C461 C 0.42135 0.13871 0.67985 0.0
H462 H 0.40375 0.10547 0.67419 0.0
H463 H 0.4306 0.12668 0.77119 0.0
C464 C 0.37605 0.04182 0.83586 0.0
N465 N 0.36597 0.04699 0.81238 0.0
C466 C 0.36792 0.03595 0.86844 0.0
C467 C 0.33883 0.04028 0.85188 0.0
C468 C 0.34778 0.04651 0.8197 0.0
C469 C 0.34906 0.03507 0.87664 0.0
H470 H 0.39051 0.04241 0.82923 0.0
H471 H 0.34029 0.05108 0.80076 0.0
C472 C 0.42656 0.08168 0.68324 0.0
N473 N 0.46655 0.10554 0.65808 0.0
C474 C 0.43013 0.0829 0.64827 0.0
C475 C 0.44335 0.09265 0.70543 0.0
C476 C 0.45045 0.09503 0.63605 0.0
C477 C 0.46344 0.10461 0.6922 0.0
C478 C 0.37478 0.01475 0.72546 0.0
C479 C 0.38305 0.01622 0.693 0.0
C480 C 0.36384 0.99529 0.74125 0.0
C481 C 0.3802 0.99817 0.67688 0.0
C482 C 0.36133 0.9776 0.72429 0.0
N483 N 0.36949 0.9794 0.69273 0.0
C484 C 0.42993 0.03917 0.76863 0.0
C485 C 0.43549 0.04342 0.70918 0.0
C486 C 0.44349 0.03126 0.77129 0.0
N487 N 0.42626 0.04509 0.73794 0.0
C488 C 0.44943 0.03596 0.71076 0.0
C489 C 0.45349 0.02972 0.74209 0.0
H490 H 0.42219 0.0405 0.79099 0.0
H491 H 0.43191 0.04766 0.68493 0.0
C492 C 0.36571 0.0548 0.64418 0.0
N493 N 0.35967 0.04179 0.67131 0.0
C494 C 0.35458 0.04837 0.6139 0.0
C495 C 0.3308 0.01537 0.64028 0.0
C496 C 0.34246 0.02246 0.67017 0.0
C497 C 0.337 0.02832 0.61147 0.0
H498 H 0.37945 0.07009 0.64595 0.0
H499 H 0.33793 0.01252 0.69231 0.0
O500 O 0.41051 0.07433 0.77394 0.0
O501 O 0.37201 0.07167 0.73932 0.0
O502 O 0.40665 0.06994 0.69533 0.0
O503 O 0.37736 0.03215 0.742 0.0
H504 H 0.3874 0.09006 0.79697 0.0
H505 H 0.44426 0.08852 0.81181 0.0
H506 H 0.39644 0.11347 0.84674 0.0
H507 H 0.45239 0.11218 0.86129 0.0
H508 H 0.3029 0.03286 0.71464 0.0
H509 H 0.36914 0.09902 0.69968 0.0
H510 H 0.33478 0.03773 0.7437 0.0
H511 H 0.33676 0.09294 0.67092 0.0
H512 H 0.44512 0.16328 0.7535 0.0
H513 H 0.41816 0.14148 0.65413 0.0
H514 H 0.37612 0.03186 0.88691 0.0
H515 H 0.3243 0.03985 0.85754 0.0
H516 H 0.4173 0.07454 0.63077 0.0
H517 H 0.44098 0.09199 0.73255 0.0
H518 H 0.45343 0.0961 0.60904 0.0
H519 H 0.47656 0.11316 0.70907 0.0
H520 H 0.39152 0.03109 0.68026 0.0
H521 H 0.35737 0.9939 0.7664 0.0
H522 H 0.3865 0.9991 0.65176 0.0
H523 H 0.35289 0.96244 0.73623 0.0
H524 H 0.4463 0.02658 0.79588 0.0
H525 H 0.45665 0.03468 0.68766 0.0
H526 H 0.36022 0.05875 0.59225 0.0
H527 H 0.31725 -0.00014 0.6396 0.0
Li528 Li 0.62437 0.6741 0.61657 0.0
Li529 Li 0.5945 0.6475 0.58713 0.0
Li530 Li 0.62261 0.67518 0.55615 0.0
Li531 Li 0.60007 0.68225 0.59012 0.0
C532 C 0.62559 0.63827 0.60053 0.0
N533 N 0.62931 0.60742 0.63374 0.0
C534 C 0.61676 0.63151 0.63267 0.0
C535 C 0.63631 0.62933 0.5853 0.0
C536 C 0.61881 0.6159 0.64904 0.0
C537 C 0.63802 0.61376 0.6025 0.0
C538 C 0.57489 0.65557 0.64013 0.0
C539 C 0.53827 0.64261 0.63027 0.0
N540 N 0.53497 0.6412 0.66436 0.0
C541 C 0.57115 0.65402 0.67505 0.0
C542 C 0.55833 0.64985 0.6175 0.0
C543 C 0.55085 0.6467 0.68681 0.0
C544 C 0.63547 0.68725 0.68252 0.0
N545 N 0.6416 0.68047 0.65522 0.0
C546 C 0.67028 0.68255 0.68628 0.0
C547 C 0.65875 0.67826 0.65631 0.0
C548 C 0.66399 0.68906 0.71528 0.0
C549 C 0.64642 0.69158 0.71296 0.0
H550 H 0.62179 0.68889 0.68075 0.0
H551 H 0.6633 0.67291 0.63412 0.0
C552 C 0.57186 0.60903 0.55474 0.0
N553 N 0.57472 0.61854 0.58538 0.0
C554 C 0.55806 0.58764 0.55152 0.0
C555 C 0.55022 0.58631 0.61136 0.0
C556 C 0.56443 0.60764 0.61355 0.0
C557 C 0.54698 0.5761 0.58006 0.0
H558 H 0.58045 0.6181 0.53288 0.0
H559 H 0.56739 0.61539 0.63783 0.0
C560 C 0.65209 0.7119 0.5877 0.0
N561 N 0.69475 0.73857 0.58696 0.0
C562 C 0.66032 0.73326 0.59312 0.0
C563 C 0.66555 0.7041 0.58193 0.0
C564 C 0.68194 0.74649 0.59264 0.0
C565 C 0.68707 0.71783 0.58165 0.0
C566 C 0.58921 0.67364 0.52214 0.0
C567 C 0.60202 0.69513 0.51742 0.0
C568 C 0.57349 0.662 0.49861 0.0
C569 C 0.59883 0.70462 0.48921 0.0
C570 C 0.57079 0.67207 0.47073 0.0
N571 N 0.58341 0.69299 0.46664 0.0
C572 C 0.63473 0.6628 0.49921 0.0
C573 C 0.64957 0.69955 0.50115 0.0
C574 C 0.64432 0.66415 0.46821 0.0
N575 N 0.63748 0.68031 0.51492 0.0
C576 C 0.6596 0.70165 0.47012 0.0
C577 C 0.65698 0.68376 0.4532 0.0
H578 H 0.6248 0.64772 0.51069 0.0
H579 H 0.65135 0.71323 0.51408 0.0
C580 C 0.59384 0.70872 0.62886 0.0
N581 N 0.58741 0.69854 0.59874 0.0
C582 C 0.58559 0.72078 0.64074 0.0
C583 C 0.56438 0.71199 0.59003 0.0
C584 C 0.57275 0.69965 0.57942 0.0
C585 C 0.57078 0.7226 0.62115 0.0
H586 H 0.60534 0.70731 0.64376 0.0
H587 H 0.56744 0.69094 0.55601 0.0
O588 O 0.62381 0.65349 0.58377 0.0
O589 O 0.59477 0.66294 0.62842 0.0
O590 O 0.63094 0.69885 0.58827 0.0
O591 O 0.59209 0.66382 0.54927 0.0
H592 H 0.60844 0.63822 0.64497 0.0
H593 H 0.64323 0.6344 0.56042 0.0
H594 H 0.61206 0.61053 0.67391 0.0
H595 H 0.64628 0.60671 0.591 0.0
H596 H 0.52531 0.63813 0.61306 0.0
H597 H 0.5838 0.65842 0.69289 0.0
H598 H 0.56088 0.65096 0.5904 0.0
H599 H 0.54772 0.64541 0.71378 0.0
H600 H 0.68382 0.68059 0.68681 0.0
H601 H 0.64071 0.69614 0.73473 0.0
H602 H 0.55592 0.58023 0.52698 0.0
H603 H 0.54216 0.5778 0.634 0.0
H604 H 0.65009 0.73953 0.59766 0.0
H605 H 0.65952 0.68765 0.57761 0.0
H606 H 0.68853 0.76306 0.59678 0.0
H607 H 0.69766 0.712 0.5772 0.0
H608 H 0.61422 0.70445 0.53535 0.0
H609 H 0.56349 0.64534 0.50187 0.0
H610 H 0.60861 0.72123 0.48527 0.0
H611 H 0.55867 0.66325 0.45233 0.0
H612 H 0.64141 0.64989 0.45578 0.0
H613 H 0.66928 0.71707 0.45956 0.0
H614 H 0.59106 0.72896 0.66466 0.0
H615 H 0.55294 0.71309 0.57437 0.0
Li616 Li 0.94702 0.59894 0.91445 0.0
Li617 Li 0.95286 0.63107 0.94474 0.0
Li618 Li 0.91979 0.60828 0.91842 0.0
Li619 Li 0.94902 0.62994 0.88508 0.0
C620 C 0.91904 0.59393 0.98089 0.0
N621 N 0.88859 0.57902 0.03053 0.0
C622 C 0.91513 0.60773 -0.00057 0.0
C623 C 0.9074 0.57254 0.98753 0.0
C624 C 0.89969 0.59989 0.02444 0.0
C625 C 0.8921 0.56532 0.01276 0.0
C626 C 0.98969 0.63768 0.92805 0.0
C627 C 0.01976 0.6689 0.94889 0.0
N628 N 0.02641 0.65699 0.96485 0.0
C629 C 0.99687 0.62576 0.94455 0.0
C630 C 0.00128 0.65944 0.93009 0.0
C631 C 0.01545 0.63581 0.96305 0.0
C632 C 0.96398 0.57641 0.88439 0.0
N633 N 0.95435 0.5779 0.9127 0.0
C634 C 0.95739 0.55068 0.93961 0.0
C635 C 0.95099 0.56548 0.94007 0.0
C636 C 0.96768 0.54889 0.91089 0.0
C637 C 0.97085 0.56196 0.88293 0.0
H638 H 0.96668 0.58675 0.86321 0.0
H639 H 0.9437 0.56734 0.96251 0.0
C640 C 0.96754 0.66512 0.99225 0.0
N641 N 0.96546 0.6462 0.98498 0.0
C642 C 0.97463 0.67409 0.02423 0.0
C643 C 0.97722 0.64392 0.04027 0.0
C644 C 0.97034 0.63568 0.00802 0.0
C645 C 0.97908 0.66317 0.04883 0.0
H646 H 0.96297 0.67286 0.97382 0.0
H647 H 0.96819 0.62052 0.00165 0.0
C648 C 0.91084 0.58401 0.86451 0.0
N649 N 0.87366 0.55232 0.83886 0.0
C650 C 0.89637 0.58858 0.8499 0.0
C651 C 0.90645 0.56333 0.86587 0.0
C652 C 0.87764 0.57234 0.83716 0.0
C653 C 0.88755 0.54753 0.85279 0.0
C654 C 0.93691 0.6555 0.90019 0.0
C655 C 0.92024 0.653 0.88006 0.0
C656 C 0.95552 0.67466 0.9003 0.0
C657 C 0.92245 0.66974 0.86054 0.0
C658 C 0.95713 0.691 0.88035 0.0
N659 N 0.9407 0.68823 0.86106 0.0
C660 C 0.8839 0.60993 0.93439 0.0
C661 C 0.87741 0.57533 0.92814 0.0
C662 C 0.86322 0.60262 0.94338 0.0
N663 N 0.89054 0.59634 0.92652 0.0
C664 C 0.85657 0.56729 0.93759 0.0
C665 C 0.84932 0.58107 0.94517 0.0
H666 H 0.89484 0.62648 0.93483 0.0
H667 H 0.88323 0.56482 0.92309 0.0
C668 C 0.97942 0.65746 0.83839 0.0
N669 N 0.9586 0.64521 0.84387 0.0
C670 C 0.98673 0.66737 0.80717 0.0
C671 C 0.95099 0.65237 0.78827 0.0
C672 C 0.94442 0.64262 0.81969 0.0
C673 C 0.97242 0.66455 0.78139 0.0
H674 H 0.99038 0.65898 0.85783 0.0
H675 H 0.92798 0.63269 0.82457 0.0
O676 O 0.93365 0.60127 0.95556 0.0
O677 O 0.97127 0.62811 0.91044 0.0
O678 O 0.92931 0.59968 0.87708 0.0
O679 O 0.93519 0.63919 0.91914 0.0
H680 H 0.92362 0.62428 0.99415 0.0
H681 H 0.90984 0.56157 0.97294 0.0
H682 H 0.89645 0.61038 0.03886 0.0
H683 H 0.88291 0.54879 0.01805 0.0
H684 H 0.02881 0.68572 0.95084 0.0
H685 H 0.98813 0.60893 0.9434 0.0
H686 H 0.99597 0.66894 0.91761 0.0
H687 H 0.02113 0.62676 0.97607 0.0
H688 H 0.95436 0.5408 0.9616 0.0
H689 H 0.97901 0.56143 0.86049 0.0
H690 H 0.97573 0.68889 0.03018 0.0
H691 H 0.98066 0.63514 0.05858 0.0
H692 H 0.89934 0.60443 0.84904 0.0
H693 H 0.91745 0.55948 0.87701 0.0
H694 H 0.86623 0.57563 0.82607 0.0
H695 H 0.88393 0.53146 0.85377 0.0
H696 H 0.90587 0.6382 0.87891 0.0
H697 H 0.9687 0.67683 0.91521 0.0
H698 H 0.9097 0.66797 0.84475 0.0
H699 H 0.97148 0.70586 0.88011 0.0
H700 H 0.85829 0.61371 0.94998 0.0
H701 H 0.8463 0.55057 0.9391 0.0
H702 H 0.00339 0.67632 0.80281 0.0
H703 H 0.93941 0.64997 0.7693 0.0
Li704 Li 0.32471 0.95555 0.27366 0.0
Li705 Li 0.35029 0.94767 0.24464 0.0
Li706 Li 0.32237 0.95116 0.21324 0.0
Li707 Li 0.31345 0.92198 0.24841 0.0
C708 C 0.35636 0.99206 0.25363 0.0
N709 N 0.37576 0.03109 0.28344 0.0
C710 C 0.37614 5e-05 0.26815 0.0
C711 C 0.34654 0.00401 0.25397 0.0
C712 C 0.38567 0.0198 0.28316 0.0
C713 C 0.35657 0.02367 0.26927 0.0
C714 C 0.32747 0.91989 0.30918 0.0
C715 C 0.32752 0.88951 0.33112 0.0
N716 N 0.31281 0.88698 0.35428 0.0
C717 C 0.31243 0.91706 0.33328 0.0
C718 C 0.33515 0.90606 0.30811 0.0
C719 C 0.30519 0.9003 0.35583 0.0
C720 C 0.30229 0.96628 0.3198 0.0
N721 N 0.3214 0.96899 0.31202 0.0
C722 C 0.33581 0.98797 0.36327 0.0
C723 C 0.33799 0.97945 0.33309 0.0
C724 C 0.31622 0.98515 0.37226 0.0
C725 C 0.29931 0.97422 0.35011 0.0
H726 H 0.28922 0.95732 0.30306 0.0
H727 H 0.35275 0.9806 0.32694 0.0
C728 C 0.38987 0.96325 0.21588 0.0
N729 N 0.37828 0.95382 0.2439 0.0
C730 C 0.41109 0.96965 0.21529 0.0
C731 C 0.40786 0.95605 0.27213 0.0
C732 C 0.38675 0.9501 0.27173 0.0
C733 C 0.42043 0.96623 0.24381 0.0
H734 H 0.38269 0.96625 0.19433 0.0
H735 H 0.37722 0.94291 0.29387 0.0
C736 C 0.28403 0.93974 0.22963 0.0
N737 N 0.2532 0.9422 0.19391 0.0
C738 C 0.26867 0.92227 0.21239 0.0
C739 C 0.28362 0.9584 0.2289 0.0
C740 C 0.25322 0.92384 0.19445 0.0
C741 C 0.26795 0.95935 0.21062 0.0
C742 C 0.32753 0.91182 0.19305 0.0
C743 C 0.30853 0.89923 0.17664 0.0
C744 C 0.34249 0.90559 0.19436 0.0
C745 C 0.30471 0.88044 0.16206 0.0
C746 C 0.3381 0.8867 0.1794 0.0
N747 N 0.31945 0.87462 0.16373 0.0
C748 C 0.33051 0.98199 0.16495 0.0
C749 C 0.30313 0.94853 0.1491 0.0
C750 C 0.32902 0.99032 0.13408 0.0
N751 N 0.31775 0.96142 0.17179 0.0
C752 C 0.30089 0.95626 0.11803 0.0
C753 C 0.31417 0.97739 0.10991 0.0
H754 H 0.34232 0.99183 0.18304 0.0
H755 H 0.29342 0.93216 0.1548 0.0
C756 C 0.27624 0.88989 0.27225 0.0
N757 N 0.29422 0.89318 0.2575 0.0
C758 C 0.26165 0.87018 0.28391 0.0
C759 C 0.28424 0.85732 0.26523 0.0
C760 C 0.29852 0.87742 0.25398 0.0
C761 C 0.26554 0.85355 0.28057 0.0
H762 H 0.27357 0.90281 0.2762 0.0
H763 H 0.3133 0.88052 0.24369 0.0
O764 O 0.34667 0.97266 0.23912 0.0
O765 O 0.33429 0.93584 0.28625 0.0
O766 O 0.29937 0.93857 0.24715 0.0
O767 O 0.33167 0.93036 0.20721 0.0
H768 H 0.384 0.99106 0.26812 0.0
H769 H 0.3313 0.99812 0.24268 0.0
H770 H 0.40093 0.02614 0.29465 0.0
H771 H 0.3491 0.03303 0.26988 0.0
H772 H 0.33318 0.87858 0.33042 0.0
H773 H 0.30621 0.92752 0.33429 0.0
H774 H 0.34656 0.90784 0.28926 0.0
H775 H 0.29345 0.89784 0.37448 0.0
H776 H 0.34909 0.99587 0.38013 0.0
H777 H 0.28394 0.9716 0.35644 0.0
H778 H 0.42018 0.97776 0.19313 0.0
H779 H 0.41426 0.95282 0.29451 0.0
H780 H 0.26881 0.90773 0.21244 0.0
H781 H 0.29533 0.97203 0.24221 0.0
H782 H 0.24131 0.91048 0.18083 0.0
H783 H 0.2675 0.97373 0.20972 0.0
H784 H 0.29675 0.90378 0.17558 0.0
H785 H 0.35731 0.9152 0.20689 0.0
H786 H 0.29002 0.87046 0.14947 0.0
H787 H 0.3495 0.88164 0.18029 0.0
H788 H 0.33998 0.00656 0.12877 0.0
H789 H 0.2891 0.94571 0.10039 0.0
H790 H 0.24779 0.86821 0.29654 0.0
H791 H 0.28792 0.84497 0.26233 0.0
Li792 Li 0.37134 0.32241 0.60994 0.0
Li793 Li 0.40111 0.34958 0.58121 0.0
Li794 Li 0.37319 0.32211 0.54951 0.0
Li795 Li 0.3959 0.31494 0.58267 0.0
C796 C 0.36976 0.35825 0.59554 0.0
N797 N 0.36568 0.38847 0.63024 0.0
C798 C 0.37852 0.36463 0.62784 0.0
C799 C 0.35893 0.36724 0.58091 0.0
C800 C 0.37629 0.37992 0.64496 0.0
C801 C 0.35704 0.3825 0.59885 0.0
C802 C 0.42084 0.34104 0.6335 0.0
C803 C 0.45755 0.35452 0.62365 0.0
N804 N 0.46077 0.35535 0.65774 0.0
C805 C 0.42451 0.34199 0.66842 0.0
C806 C 0.43749 0.34733 0.61088 0.0
C807 C 0.44481 0.34929 0.68018 0.0
C808 C 0.36027 0.30863 0.67567 0.0
N809 N 0.35406 0.31548 0.64859 0.0
C810 C 0.32536 0.31313 0.67993 0.0
C811 C 0.33684 0.31756 0.6499 0.0
C812 C 0.33181 0.30665 0.70877 0.0
C813 C 0.34939 0.30417 0.70618 0.0
H814 H 0.37401 0.30708 0.67372 0.0
H815 H 0.33222 0.32299 0.62788 0.0
C816 C 0.4237 0.38855 0.55031 0.0
N817 N 0.42072 0.37861 0.58053 0.0
C818 C 0.43745 0.41 0.54795 0.0
C819 C 0.44498 0.41049 0.60779 0.0
C820 C 0.43082 0.38913 0.60913 0.0
C821 C 0.44835 0.42115 0.57693 0.0
H822 H 0.41526 0.37979 0.5281 0.0
H823 H 0.42777 0.38103 0.63307 0.0
C824 C 0.34392 0.28487 0.58002 0.0
N825 N 0.30131 0.25793 0.57912 0.0
C826 C 0.33586 0.2635 0.58487 0.0
C827 C 0.33031 0.29255 0.57474 0.0
C828 C 0.31427 0.25013 0.58431 0.0
C829 C 0.30882 0.27868 0.57437 0.0
C830 C 0.40677 0.32449 0.51495 0.0
C831 C 0.39426 0.30301 0.50966 0.0
C832 C 0.42233 0.33657 0.49149 0.0
C833 C 0.39758 0.29398 0.48095 0.0
C834 C 0.42517 0.32694 0.4631 0.0
N835 N 0.41283 0.30603 0.45846 0.0
C836 C 0.36109 0.33491 0.493 0.0
C837 C 0.3464 0.29817 0.49404 0.0
C838 C 0.35163 0.33377 0.46192 0.0
N839 N 0.35837 0.3173 0.50828 0.0
C840 C 0.3365 0.29628 0.46296 0.0
C841 C 0.33913 0.31427 0.4464 0.0
H842 H 0.37092 0.3499 0.50484 0.0
H843 H 0.34467 0.28442 0.50662 0.0
C844 C 0.40246 0.28811 0.61981 0.0
N845 N 0.40895 0.29891 0.59027 0.0
C846 C 0.4113 0.27651 0.63126 0.0
C847 C 0.43315 0.28693 0.58122 0.0
C848 C 0.42415 0.29877 0.57102 0.0
C849 C 0.42681 0.27581 0.61187 0.0
H850 H 0.39053 0.28879 0.63469 0.0
H851 H 0.42949 0.30798 0.54811 0.0
O852 O 0.37171 0.34334 0.57805 0.0
O853 O 0.40096 0.33367 0.62176 0.0
O854 O 0.36505 0.29807 0.58072 0.0
O855 O 0.40375 0.33387 0.54258 0.0
H856 H 0.38692 0.35786 0.63969 0.0
H857 H 0.35207 0.36247 0.55592 0.0
H858 H 0.38298 0.38499 0.66996 0.0
H859 H 0.3487 0.38959 0.58782 0.0
H860 H 0.47057 0.35944 0.60644 0.0
H861 H 0.41179 0.33715 0.68626 0.0
H862 H 0.435 0.34669 0.58378 0.0
H863 H 0.44787 0.35012 0.70715 0.0
H864 H 0.3118 0.31505 0.68067 0.0
H865 H 0.35521 0.29961 0.72782 0.0
H866 H 0.4397 0.41776 0.52373 0.0
H867 H 0.45289 0.41868 0.63076 0.0
H868 H 0.34621 0.25733 0.58904 0.0
H869 H 0.33621 0.30902 0.57087 0.0
H870 H 0.30782 0.23354 0.58802 0.0
H871 H 0.29811 0.28441 0.57029 0.0
H872 H 0.38218 0.29336 0.52751 0.0
H873 H 0.43209 0.35323 0.49519 0.0
H874 H 0.38803 0.27738 0.47656 0.0
H875 H 0.43716 0.33611 0.44475 0.0
H876 H 0.35457 0.34812 0.44981 0.0
H877 H 0.32694 0.28093 0.45203 0.0
H878 H 0.40587 0.26791 0.65484 0.0
H879 H 0.44513 0.28672 0.56574 0.0
Li880 Li 0.04735 0.40143 0.91762 0.0
Li881 Li 0.04349 0.37131 0.94527 0.0
Li882 Li 0.07652 0.39538 0.92278 0.0
Li883 Li 0.04664 0.37332 0.88505 0.0
C884 C 0.07352 0.42028 0.97178 0.0
N885 N 0.09804 0.46022 -0.00322 0.0
C886 C 0.07412 0.42409 0.00662 0.0
C887 C 0.08544 0.43679 0.94964 0.0
C888 C 0.08659 0.44439 0.01876 0.0
C889 C 0.09772 0.45687 0.96279 0.0
C890 C 0.00647 0.37047 0.92771 0.0
C891 C 0.96991 0.35977 0.92568 0.0
N892 N 0.97116 0.36695 0.95787 0.0
C893 C 0.0074 0.37776 0.96078 0.0
C894 C 0.98759 0.36142 0.90999 0.0
C895 C 0.98938 0.37583 0.97558 0.0
C896 C 0.03418 0.42669 0.88548 0.0
N897 N 0.03846 0.42144 0.91626 0.0
C898 C 0.02795 0.44326 0.94443 0.0
C899 C 0.03547 0.42936 0.94547 0.0
C900 C 0.02311 0.44883 0.91304 0.0
C901 C 0.02643 0.44041 0.88325 0.0
H902 H 0.03646 0.4199 0.8627 0.0
H903 H 0.03863 0.4247 0.9697 0.0
C904 C 0.04452 0.35869 0.01051 0.0
N905 N 0.03178 0.35331 0.98306 0.0
C906 C 0.03777 0.34691 0.04007 0.0
C907 C 0.00484 0.32403 0.01253 0.0
C908 C 0.01232 0.33626 0.98328 0.0
C909 C 0.01763 0.32943 0.04148 0.0
H910 H 0.05992 0.37232 0.00945 0.0
H911 H 0.00261 0.33226 0.96088 0.0
C912 C 0.08065 0.40817 0.85488 0.0
N913 N 0.10776 0.4163 0.80134 0.0
C914 C 0.08621 0.39342 0.84523 0.0
C915 C 0.08885 0.42703 0.83727 0.0
C916 C 0.09993 0.39783 0.81808 0.0
C917 C 0.10256 0.43087 0.81031 0.0
C918 C 0.05755 0.34635 0.93071 0.0
C919 C 0.07147 0.34572 0.95397 0.0
C920 C 0.03904 0.32804 0.92276 0.0
C921 C 0.06654 0.32675 0.96919 0.0
C922 C 0.03468 0.30938 0.93849 0.0
N923 N 0.0484 0.30913 0.96122 0.0
C924 C 0.10777 0.40444 0.96736 0.0
C925 C 0.12194 0.41621 0.91257 0.0
C926 C 0.12746 0.41092 0.98067 0.0
N927 N 0.10528 0.40695 0.93388 0.0
C928 C 0.14203 0.42256 0.92474 0.0
C929 C 0.14492 0.4196 0.9592 0.0
H930 H 0.0943 0.39702 0.98376 0.0
H931 H 0.11974 0.41832 0.88611 0.0
C932 C 0.02619 0.36545 0.82412 0.0
N933 N 0.0371 0.35905 0.84344 0.0
C934 C 0.01767 0.35572 0.79328 0.0
C935 C 0.03189 0.33297 0.80269 0.0
C936 C 0.04024 0.34326 0.83341 0.0
C937 C 0.02028 0.3391 0.7823 0.0
H938 H 0.02408 0.37814 0.83284 0.0
H939 H 0.04909 0.33858 0.84932 0.0
O940 O 0.06138 0.40038 0.95979 0.0
O941 O 0.0239 0.37229 0.91239 0.0
O942 O 0.06696 0.4042 0.88096 0.0
O943 O 0.06183 0.36484 0.91619 0.0
H944 H 0.06501 0.41146 0.02408 0.0
H945 H 0.08528 0.43423 0.92264 0.0
H946 H 0.08719 0.44756 0.04567 0.0
H947 H 0.10701 0.46979 0.94596 0.0
H948 H 0.95519 0.3528 0.91225 0.0
H949 H 0.02185 0.38484 0.97492 0.0
H950 H 0.98665 0.35576 0.88433 0.0
H951 H 0.98988 0.3814 0.00113 0.0
H952 H 0.02597 0.44956 0.96804 0.0
H953 H 0.02264 0.44399 0.85852 0.0
H954 H 0.04799 0.35189 0.06197 0.0
H955 H 0.98924 0.31062 0.0126 0.0
H956 H 0.0802 0.37881 0.85863 0.0
H957 H 0.08463 0.43857 0.84437 0.0
H958 H 0.10439 0.38657 0.81038 0.0
H959 H 0.10905 0.44541 0.79648 0.0
H960 H 0.08587 0.35973 0.96037 0.0
H961 H 0.02798 0.32832 0.9051 0.0
H962 H 0.07712 0.32605 0.98738 0.0
H963 H 0.02035 0.29512 0.93279 0.0
H964 H 0.12886 0.40882 0.00754 0.0
H965 H 0.15499 0.42907 0.90714 0.0
H966 H 0.00929 0.36131 0.77808 0.0
H967 H 0.03422 0.3202 0.79526 0.0
Li968 Li 0.64831 0.04972 0.25044 0.0
Li969 Li 0.67598 0.04708 0.2773 0.0
Li970 Li 0.68267 0.07966 0.25303 0.0
Li971 Li 0.67609 0.05089 0.2171 0.0
C972 C 0.65624 0.07625 0.305 0.0
N973 N 0.64075 0.10012 0.33247 0.0
C974 C 0.65496 0.07768 0.34018 0.0
C975 C 0.64968 0.087 0.28376 0.0
C976 C 0.64707 0.08982 0.35358 0.0
C977 C 0.64189 0.09897 0.29815 0.0
C978 C 0.64053 0.00958 0.26064 0.0
C979 C 0.61659 0.97247 0.26072 0.0
N980 N 0.61074 0.97388 0.29289 0.0
C981 C 0.63428 0.01066 0.29371 0.0
C982 C 0.63163 0.99035 0.24399 0.0
C983 C 0.6192 0.99244 0.30957 0.0
C984 C 0.60927 0.03454 0.22 0.0
N985 N 0.61918 0.03974 0.25049 0.0
C986 C 0.58707 0.02941 0.27929 0.0
C987 C 0.60856 0.03722 0.27991 0.0
C988 C 0.57641 0.02386 0.24817 0.0
C989 C 0.58774 0.02644 0.21823 0.0
H990 H 0.61814 0.03657 0.19707 0.0
H991 H 0.6167 0.04104 0.30392 0.0
C992 C 0.69023 0.04858 0.34228 0.0
N993 N 0.68329 0.036 0.3146 0.0
C994 C 0.69466 0.04159 0.37221 0.0
C995 C 0.68551 0.00903 0.34418 0.0
C996 C 0.68118 0.01667 0.31472 0.0
C997 C 0.69202 0.02144 0.37364 0.0
H998 H 0.69176 0.06389 0.3413 0.0
H999 H 0.67568 0.00701 0.29225 0.0
C1000 C 0.67258 0.08247 0.18608 0.0
N1001 N 0.6901 0.10851 0.13087 0.0
C1002 C 0.69387 0.09123 0.17923 0.0
C1003 C 0.6602 0.08691 0.16481 0.0
C1004 C 0.70243 0.10435 0.1512 0.0
C1005 C 0.66935 0.10014 0.13705 0.0
C1006 C 0.71365 0.0589 0.24649 0.0
C1007 C 0.73501 0.07252 0.25089 0.0
C1008 C 0.70633 0.03776 0.2402 0.0
C1009 C 0.74874 0.06477 0.24885 0.0
C1010 C 0.72056 0.03062 0.23836 0.0
N1011 N 0.74129 0.04415 0.24268 0.0
C1012 C 0.70867 0.11266 0.29235 0.0
C1013 C 0.69923 0.12431 0.24292 0.0
C1014 C 0.72076 0.13307 0.30388 0.0
N1015 N 0.69834 0.10868 0.26233 0.0
C1016 C 0.71161 0.14509 0.25313 0.0
C1017 C 0.72249 0.14955 0.28399 0.0
H1018 H 0.70747 0.09987 0.30734 0.0
H1019 H 0.69042 0.12078 0.21962 0.0
C1020 C 0.66305 0.03078 0.15628 0.0
N1021 N 0.68088 0.04269 0.17404 0.0
C1022 C 0.66396 0.02475 0.12316 0.0
C1023 C 0.70161 0.04283 0.12744 0.0
C1024 C 0.69999 0.04884 0.16043 0.0
C1025 C 0.68342 0.03089 0.10836 0.0
H1026 H 0.64813 0.02636 0.16775 0.0
H1027 H 0.71396 0.05876 0.17477 0.0
O1028 O 0.6641 0.06452 0.29168 0.0
O1029 O 0.65522 0.02715 0.24435 0.0
O1030 O 0.66364 0.06924 0.21296 0.0
O1031 O 0.70011 0.06636 0.24874 0.0
H1032 H 0.66 0.06947 0.35695 0.0
H1033 H 0.65056 0.08614 0.25648 0.0
H1034 H 0.64597 0.09105 0.38077 0.0
H1035 H 0.63675 0.10736 0.28202 0.0
H1036 H 0.60957 0.95748 0.24813 0.0
H1037 H 0.64098 0.02536 0.30709 0.0
H1038 H 0.6363 0.98927 0.21838 0.0
H1039 H 0.61424 0.99306 0.33515 0.0
H1040 H 0.57882 0.02735 0.30296 0.0
H1041 H 0.58006 0.02243 0.19374 0.0
H1042 H 0.69924 0.05157 0.39438 0.0
H1043 H 0.68344 0.99348 0.34407 0.0
H1044 H 0.70374 0.08802 0.19537 0.0
H1045 H 0.64367 0.08017 0.1697 0.0
H1046 H 0.71888 0.11124 0.14562 0.0
H1047 H 0.65995 0.10372 0.12039 0.0
H1048 H 0.74091 0.08892 0.25586 0.0
H1049 H 0.68989 0.02698 0.2366 0.0
H1050 H 0.76532 0.07514 0.25219 0.0
H1051 H 0.71511 0.01431 0.23347 0.0
H1052 H 0.72914 0.13599 0.32765 0.0
H1053 H 0.71264 0.15751 0.23726 0.0
H1054 H 0.64962 0.01547 0.10915 0.0
H1055 H 0.71687 0.048 0.11657 0.0
H1056 H 0.33762 0.32344 0.23202 0.0
H1057 H 0.28913 0.33681 0.26055 0.0
H1058 H 0.33919 0.31323 0.2899 0.0
H1059 H 0.28965 0.32515 0.31811 0.0
H1060 H 0.32219 0.33725 0.42253 0.0
H1061 H 0.31255 0.33952 0.36454 0.0
H1062 H 0.32407 0.28984 0.33548 0.0
H1063 H 0.33518 0.28863 0.39316 0.0
C1064 C 0.32706 0.32391 0.25056 0.0
C1065 C 0.31356 0.33137 0.24175 0.0
C1066 C 0.32771 0.3177 0.28373 0.0
C1067 C 0.31467 0.31853 0.3089 0.0
C1068 C 0.3002 0.32469 0.29956 0.0
C1069 C 0.29972 0.33113 0.2664 0.0
C1070 C 0.32268 0.32681 0.40379 0.0
C1071 C 0.3299 0.31308 0.41241 0.0
C1072 C 0.3168 0.32786 0.37054 0.0
C1073 C 0.31772 0.31501 0.34511 0.0
C1074 C 0.32357 0.30027 0.35425 0.0
C1075 C 0.32969 0.29938 0.38748 0.0
H1076 H 0.94396 0.28667 0.60116 0.0
H1077 H 0.00818 0.32209 0.56841 0.0
H1078 H 0.95551 0.28891 0.6596 0.0
H1079 H 0.01967 0.32559 0.62695 0.0
H1080 H 0.03753 0.32534 0.73433 0.0
H1081 H 0.02376 0.31134 0.67818 0.0
H1082 H 0.96911 0.31633 0.69952 0.0
H1083 H 0.98222 0.32898 0.75606 0.0
C1084 C 0.96055 0.29464 0.6063 0.0
C1085 C 0.97513 0.30451 0.58011 0.0
C1086 C 0.96717 0.29617 0.63992 0.0
C1087 C 0.98851 0.30779 0.64816 0.0
C1088 C 0.00312 0.31645 0.62168 0.0
C1089 C 0.99651 0.31471 0.58807 0.0
C1090 C 0.02234 0.32293 0.7273 0.0
C1091 C 0.01113 0.32859 0.7495 0.0
C1092 C 0.01453 0.31512 0.69497 0.0
C1093 C 0.99541 0.3129 0.68408 0.0
C1094 C 0.98378 0.31759 0.70699 0.0
C1095 C 0.99148 0.32522 0.73932 0.0
H1096 H 0.67985 0.01917 0.88898 0.0
H1097 H 0.66202 0.95812 0.92886 0.0
H1098 H 0.68957 0.03387 0.94591 0.0
H1099 H 0.67219 0.97301 0.98573 0.0
H1100 H 0.70334 0.0112 0.08265 0.0
H1101 H 0.70244 -0.00017 0.02371 0.0
H1102 H 0.66493 0.02715 0.99548 0.0
H1103 H 0.66572 0.03827 0.054 0.0
C1104 C 0.67826 0.00894 0.90981 0.0
C1105 C 0.66979 0.98741 0.90452 0.0
C1106 C 0.68391 0.01738 0.94233 0.0
C1107 C 0.6814 0.00452 0.97017 0.0
C1108 C 0.6744 0.98328 0.96462 0.0
C1109 C 0.66859 0.97477 0.93205 0.0
C1110 C 0.69516 0.01494 0.06362 0.0
C1111 C 0.68449 0.02546 0.07267 0.0
C1112 C 0.69458 0.0084 0.03008 0.0
C1113 C 0.68369 0.0127 0.00512 0.0
C1114 C 0.67365 0.02385 0.01413 0.0
C1115 C 0.67395 0.03006 0.0476 0.0
H1116 H 0.70925 0.66285 0.26869 0.0
H1117 H 0.66057 0.67563 0.23877 0.0
H1118 H 0.70803 0.67421 0.32621 0.0
H1119 H 0.65832 0.68556 0.29661 0.0
H1120 H 0.66122 0.70963 0.40022 0.0
H1121 H 0.67289 0.70882 0.34274 0.0
H1122 H 0.68454 0.65924 0.37181 0.0
H1123 H 0.67427 0.66106 0.42957 0.0
C1124 C 0.69848 0.66834 0.27422 0.0
C1125 C 0.68478 0.66801 0.24919 0.0
C1126 C 0.6976 0.67461 0.30735 0.0
C1127 C 0.68286 0.68051 0.31628 0.0
C1128 C 0.66998 0.68128 0.29075 0.0
C1129 C 0.67102 0.67523 0.25761 0.0
C1130 C 0.66684 0.69898 0.39457 0.0
C1131 C 0.6665 0.68518 0.4194 0.0
C1132 C 0.67329 0.69833 0.36147 0.0
C1133 C 0.67937 0.68375 0.35241 0.0
C1134 C 0.68012 0.67079 0.37777 0.0
C1135 C 0.67389 0.67159 0.41087 0.0
H1136 H 0.956 0.64457 0.72161 0.0
H1137 H 0.00581 0.70231 0.76248 0.0
H1138 H 0.96977 0.65557 0.66498 0.0
H1139 H 0.01979 0.71337 0.70521 0.0
H1140 H 0.05169 0.70379 0.60803 0.0
H1141 H 0.03709 0.70208 0.66425 0.0
H1142 H 0.97627 0.67991 0.61941 0.0
H1143 H 0.99086 0.68121 0.56333 0.0
C1144 C 0.9696 0.65988 0.71844 0.0
C1145 C 0.97979 0.67255 0.74663 0.0
C1146 C 0.97751 0.66622 0.68585 0.0
C1147 C 0.99586 0.68539 0.68055 0.0
C1148 C 0.00573 0.69843 0.70855 0.0
C1149 C 0.99775 0.69208 0.7413 0.0
C1150 C 0.03533 0.69909 0.61018 0.0
C1151 C 0.0223 0.69231 0.58153 0.0
C1152 C 0.02696 0.69815 0.64235 0.0
C1153 C 0.00545 0.69053 0.64631 0.0
C1154 C 0.99281 0.6854 0.61723 0.0
C1155 C 0.00114 0.68618 0.58517 0.0
H1156 H 0.30715 0.95729 0.04873 0.0
H1157 H 0.32078 0.01626 0.09309 0.0
H1158 H 0.31143 0.97221 0.99233 0.0
H1159 H 0.32591 0.03133 0.03638 0.0
H1160 H 0.36807 0.0515 0.93677 0.0
H1161 H 0.35522 0.03791 0.99358 0.0
H1162 H 0.29748 0.98962 0.9504 0.0
H1163 H 0.31032 0.00346 0.89339 0.0
C1164 C 0.31055 0.97326 0.04657 0.0
C1165 C 0.31385 0.98562 0.07561 0.0
C1166 C 0.31304 0.98181 0.01416 0.0
C1167 C 0.31913 0.00293 0.01011 0.0
C1168 C 0.32141 0.01504 0.03893 0.0
C1169 C 0.31862 0.00642 0.07135 0.0
C1170 C 0.3525 0.03821 0.93956 0.0
C1171 C 0.34018 0.02842 0.91092 0.0
C1172 C 0.3451 0.03053 0.97198 0.0
C1173 C 0.32538 0.01273 0.97626 0.0
C1174 C 0.31275 0.00335 0.94767 0.0
C1175 C 0.32003 0.01129 0.91521 0.0
H1176 H 0.1529 0.39762 0.00666 0.0
H1177 H 0.18399 0.45183 0.94171 0.0
H1178 H 0.1863 0.40453 0.02859 0.0
H1179 H 0.21778 0.45813 0.96298 0.0
H1180 H 0.26669 0.43341 0.97671 0.0
H1181 H 0.23701 0.43695 0.95859 0.0
H1182 H 0.2172 0.43206 0.06288 0.0
H1183 H 0.2468 0.42838 0.08098 0.0
C1184 C 0.1668 0.41127 -0.00255 0.0
C1185 C 0.16563 0.4243 0.97261 0.0
C1186 C 0.18599 0.41519 0.01006 0.0
C1187 C 0.20458 0.43202 -0.00219 0.0
C1188 C 0.20361 0.44508 0.9729 0.0
C1189 C 0.18429 0.44135 0.96057 0.0
C1190 C 0.25623 0.43357 0.99578 0.0
C1191 C 0.25883 0.43036 0.03017 0.0
C1192 C 0.23937 0.43575 0.98544 0.0
C1193 C 0.22474 0.43454 0.00932 0.0
C1194 C 0.2282 0.43286 0.04397 0.0
C1195 C 0.24518 0.43089 0.05434 0.0
H1196 H 0.83099 0.27275 0.3117 0.0
H1197 H 0.81628 0.24103 0.40802 0.0
H1198 H 0.79698 0.24662 0.28946 0.0
H1199 H 0.78289 0.21412 0.38568 0.0
H1200 H 0.72216 0.16791 0.34366 0.0
H1201 H 0.74929 0.20158 0.36532 0.0
H1202 H 0.78303 0.2125 0.27084 0.0
H1203 H 0.75528 0.1795 0.24892 0.0
C1204 C 0.82021 0.2603 0.32819 0.0
C1205 C 0.82601 0.25875 0.36144 0.0
C1206 C 0.80085 0.2452 0.31545 0.0
C1207 C 0.7872 0.22797 0.33549 0.0
C1208 C 0.79272 0.22722 0.36951 0.0
C1209 C 0.8119 0.24256 0.38239 0.0
C1210 C 0.73518 0.17788 0.32739 0.0
C1211 C 0.73679 0.17121 0.29477 0.0
C1212 C 0.75082 0.19706 0.33982 0.0
C1213 C 0.76863 0.20972 0.32015 0.0
C1214 C 0.76951 0.20344 0.28669 0.0
C1215 C 0.75366 0.18446 0.27407 0.0
H1216 H 0.57476 0.81648 0.74638 0.0
H1217 H 0.55315 0.82901 0.65249 0.0
H1218 H 0.56827 0.78309 0.72405 0.0
H1219 H 0.5455 0.79508 0.63042 0.0
H1220 H 0.57186 0.7548 0.58657 0.0
H1221 H 0.56636 0.78217 0.60956 0.0
H1222 H 0.54667 0.74896 0.70498 0.0
H1223 H 0.55328 0.72215 0.68212 0.0
C1224 C 0.5679 0.81167 0.72137 0.0
C1225 C 0.56463 0.82526 0.70097 0.0
C1226 C 0.56407 0.79249 0.70851 0.0
C1227 C 0.55659 0.78642 0.67513 0.0
C1228 C 0.55175 0.79943 0.65585 0.0
C1229 C 0.55595 0.81877 0.66852 0.0
C1230 C 0.56588 0.75318 0.61216 0.0
C1231 C 0.56319 0.73658 0.63274 0.0
C1232 C 0.56262 0.76881 0.62541 0.0
C1233 C 0.5563 0.76798 0.65939 0.0
C1234 C 0.55204 0.75042 0.67903 0.0
C1235 C 0.55565 0.73498 0.66593 0.0
H1236 H 0.75535 0.57095 0.07782 0.0
H1237 H 0.72575 0.56276 0.98024 0.0
H1238 H 0.78247 0.56593 0.05159 0.0
H1239 H 0.75253 0.55733 0.95404 0.0
H1240 H 0.82788 0.55292 0.99536 0.0
H1241 H 0.7939 0.5445 0.01913 0.0
H1242 H 0.78872 0.58433 0.94426 0.0
H1243 H 0.82226 0.59241 0.92057 0.0
C1244 C 0.75428 0.56734 0.051 0.0
C1245 C 0.73877 0.56759 0.03087 0.0
C1246 C 0.76975 0.56441 0.03596 0.0
C1247 C 0.76982 0.56162 0.00063 0.0
C1248 C 0.75311 0.55989 0.98119 0.0
C1249 C 0.73779 0.56294 0.99615 0.0
C1250 C 0.81913 0.55939 0.98359 0.0
C1251 C 0.82763 0.57339 0.95632 0.0
C1252 C 0.79982 0.5547 -0.00271 0.0
C1253 C 0.78865 0.56375 0.9836 0.0
C1254 C 0.79675 0.57685 0.95513 0.0
C1255 C 0.81605 0.58165 0.94172 0.0
H1256 H 0.1658 0.76542 0.40188 0.0
H1257 H 0.18526 0.72532 0.35428 0.0
H1258 H 0.19446 0.7956 0.37448 0.0
H1259 H 0.21416 0.75587 0.32666 0.0
H1260 H 0.27375 0.82622 0.31527 0.0
H1261 H 0.24848 0.79394 0.34391 0.0
H1262 H 0.19818 0.80226 0.30737 0.0
H1263 H 0.22308 0.83389 0.27779 0.0
C1264 C 0.17655 0.76311 0.38634 0.0
C1265 C 0.17329 0.743 0.38022 0.0
C1266 C 0.1928 0.78037 0.37039 0.0
C1267 C 0.20626 0.77792 0.34826 0.0
C1268 C 0.20391 0.75806 0.34365 0.0
C1269 C 0.18741 0.74066 0.35934 0.0
C1270 C 0.25727 0.82089 0.31268 0.0
C1271 C 0.25043 0.83278 0.29462 0.0
C1272 C 0.24288 0.80251 0.32921 0.0
C1273 C 0.22153 0.79595 0.32821 0.0
C1274 C 0.21465 0.80729 0.30898 0.0
C1275 C 0.22891 0.82541 0.29217 0.0
H1276 H 0.45306 0.17477 0.64387 0.0
H1277 H 0.42716 0.18408 0.7359 0.0
H1278 H 0.45838 0.2079 0.62174 0.0
H1279 H 0.4317 0.21667 0.71363 0.0
H1280 H 0.44425 0.27699 0.67314 0.0
H1281 H 0.45268 0.25142 0.69592 0.0
H1282 H 0.43568 0.21878 0.59978 0.0
H1283 H 0.42825 0.24494 0.57686 0.0
C1284 C 0.44878 0.18409 0.65951 0.0
C1285 C 0.43957 0.17686 0.69146 0.0
C1286 C 0.45172 0.20299 0.64681 0.0
C1287 C 0.44522 0.21488 0.66564 0.0
C1288 C 0.43718 0.20816 0.69851 0.0
C1289 C 0.4345 0.18941 0.71133 0.0
C1290 C 0.44284 0.26457 0.65678 0.0
C1291 C 0.43546 0.26273 0.62342 0.0
C1292 C 0.44751 0.24986 0.66982 0.0
C1293 C 0.44452 0.23279 0.64994 0.0
C1294 C 0.43841 0.23179 0.6158 0.0
C1295 C 0.43405 0.24672 0.60261 0.0
H1296 H 0.31669 0.33058 0.73539 0.0
H1297 H 0.32401 0.27745 0.75813 0.0
H1298 H 0.30538 0.33041 0.7933 0.0
H1299 H 0.31317 0.27772 0.81658 0.0
H1300 H 0.27856 0.32174 0.89719 0.0
H1301 H 0.27881 0.31062 0.83891 0.0
H1302 H 0.33261 0.30466 0.86202 0.0
H1303 H 0.33277 0.31623 0.91979 0.0
C1304 C 0.31533 0.31848 0.75241 0.0
C1305 C 0.32154 0.3042 0.74218 0.0
C1306 C 0.30885 0.3184 0.78567 0.0
C1307 C 0.30857 0.30415 0.80948 0.0
C1308 C 0.3135 0.28903 0.7988 0.0
C1309 C 0.3198 0.28898 0.76541 0.0
C1310 C 0.29031 0.31786 0.88992 0.0
C1311 C 0.30585 0.32022 0.91302 0.0
C1312 C 0.29037 0.3114 0.85663 0.0
C1313 C 0.30581 0.30694 0.84593 0.0
C1314 C 0.32037 0.30778 0.86966 0.0
C1315 C 0.32044 0.31441 0.90284 0.0
H1316 H 0.0162 0.32698 0.2522 0.0
H1317 H 0.95233 0.27954 0.23287 0.0
H1318 H 0.02465 0.3261 0.19272 0.0
H1319 H 0.96088 0.2783 0.17333 0.0
H1320 H 0.97947 0.31611 0.07012 0.0
H1321 H 0.96916 0.30447 0.12826 0.0
H1322 H 0.02768 0.3062 0.14511 0.0
H1323 H 0.038 0.31781 0.0867 0.0
C1324 C 0.00409 0.31604 0.23533 0.0
C1325 C 0.98358 0.30351 0.24702 0.0
C1326 C 0.00896 0.31536 0.20133 0.0
C1327 C 0.99338 0.30221 0.1783 0.0
C1328 C 0.97315 0.28871 0.19046 0.0
C1329 C 0.96831 0.28931 0.22457 0.0
C1330 C 0.98985 0.31335 0.08584 0.0
C1331 C 0.00968 0.3182 0.07404 0.0
C1332 C 0.98394 0.30665 0.1192 0.0
C1333 C 0.99775 0.30469 0.14137 0.0
C1334 C 0.01689 0.30793 0.12874 0.0
C1335 C 0.02278 0.3146 0.09537 0.0
H1336 H 0.68172 0.01149 0.58393 0.0
H1337 H 0.67389 0.95087 0.56076 0.0
H1338 H 0.69345 0.0228 0.52627 0.0
H1339 H 0.68516 0.96217 0.50251 0.0
H1340 H 0.7213 0.04158 0.42342 0.0
H1341 H 0.72034 0.02968 0.48153 0.0
H1342 H 0.66667 0.97021 0.4564 0.0
H1343 H 0.66727 0.98214 0.39874 0.0
C1344 C 0.68304 0.00073 0.56687 0.0
C1345 C 0.67662 0.98018 0.57694 0.0
C1346 C 0.68976 0.00724 0.53374 0.0
C1347 C 0.69008 0.9933 0.50986 0.0
C1348 C 0.68483 0.97314 0.52034 0.0
C1349 C 0.67828 0.96667 0.55362 0.0
C1350 C 0.70944 0.02588 0.4302 0.0
C1351 C 0.69415 0.01294 0.40657 0.0
C1352 C 0.70897 0.01906 0.4634 0.0
C1353 C 0.69333 0.99911 0.47351 0.0
C1354 C 0.67904 0.98561 0.44924 0.0
C1355 C 0.67941 0.99246 0.41613 0.0
H1356 H 0.67934 0.66527 0.74172 0.0
H1357 H 0.67214 0.71848 0.76441 0.0
H1358 H 0.69126 0.66587 0.79941 0.0
H1359 H 0.68356 0.71863 0.82261 0.0
H1360 H 0.71989 0.67625 0.90271 0.0
H1361 H 0.71854 0.68639 0.8442 0.0
H1362 H 0.66464 0.69186 0.86867 0.0
H1363 H 0.66551 0.68119 0.92665 0.0
C1364 C 0.68083 0.67746 0.75867 0.0
C1365 C 0.67449 0.69165 0.74852 0.0
C1366 C 0.68766 0.67778 0.7918 0.0
C1367 C 0.68816 0.6922 0.81552 0.0
C1368 C 0.68306 0.7072 0.80489 0.0
C1369 C 0.67642 0.70701 0.77165 0.0
C1370 C 0.70786 0.67979 0.89569 0.0
C1371 C 0.69261 0.67758 0.91929 0.0
C1372 C 0.70718 0.68569 0.86225 0.0
C1373 C 0.69142 0.68977 0.85191 0.0
C1374 C 0.67711 0.68904 0.87604 0.0
C1375 C 0.67765 0.68294 0.90935 0.0
H1376 H 0.04908 0.70282 0.23063 0.0
H1377 H 0.98632 0.67945 0.26766 0.0
H1378 H 0.03697 0.70138 0.17271 0.0
H1379 H 0.97418 0.67787 0.20953 0.0
H1380 H 0.96084 0.64203 0.10641 0.0
H1381 H 0.97152 0.65308 0.16469 0.0
H1382 H 0.02015 0.71308 0.12902 0.0
H1383 H 0.00938 0.70179 0.07019 0.0
C1384 C 0.03282 0.698 0.22653 0.0
C1385 C 0.01858 0.69093 0.25366 0.0
C1386 C 0.02588 0.69719 0.1933 0.0
C1387 C 0.00459 0.68925 0.18661 0.0
C1388 C 0.99063 0.68373 0.21396 0.0
C1389 C 0.99757 0.68458 0.24717 0.0
C1390 C 0.97368 0.65765 0.11107 0.0
C1391 C 0.98448 0.67099 0.08396 0.0
C1392 C 0.97965 0.66408 0.14442 0.0
C1393 C 0.99665 0.68397 0.1514 0.0
C1394 C 0.00703 0.69764 0.1243 0.0
C1395 C 0.00086 0.69125 0.09077 0.0
H1396 H 0.28662 0.96251 0.41963 0.0
H1397 H 0.33976 0.02346 0.40079 0.0
H1398 H 0.28562 0.97237 0.47865 0.0
H1399 H 0.33883 0.03331 0.45959 0.0
H1400 H 0.32831 0.04963 0.56333 0.0
H1401 H 0.31797 0.03917 0.5045 0.0
H1402 H 0.31165 0.97904 0.5255 0.0
H1403 H 0.32241 0.98955 0.58393 0.0
C1404 C 0.29772 0.97818 0.42792 0.0
C1405 C 0.31336 0.99222 0.40586 0.0
C1406 C 0.29722 0.98376 0.46166 0.0
C1407 C 0.31218 0.00356 0.47368 0.0
C1408 C 0.32697 0.01801 0.45095 0.0
C1409 C 0.32762 0.01235 0.41741 0.0
C1410 C 0.32447 0.03408 0.55549 0.0
C1411 C 0.32656 0.02056 0.57817 0.0
C1412 C 0.31847 0.02809 0.52188 0.0
C1413 C 0.31422 0.00839 0.51041 0.0
C1414 C 0.31465 0.99426 0.53373 0.0
C1415 C 0.32082 0.0003 0.56726 0.0
H1416 H 0.44536 0.47646 0.12628 0.0
H1417 H 0.45205 0.45451 0.02786 0.0
H1418 H 0.48297 0.50035 0.12825 0.0
H1419 H 0.48942 0.47907 0.02944 0.0
H1420 H 0.54953 0.54423 0.03056 0.0
H1421 H 0.51219 0.51954 0.03008 0.0
H1422 H 0.51678 0.49736 0.12914 0.0
H1423 H 0.55439 0.52139 0.12925 0.0
C1424 C 0.45478 0.47657 0.10518 0.0
C1425 C 0.44556 0.46354 0.07684 0.0
C1426 C 0.4763 0.49034 0.1063 0.0
C1427 C 0.489 0.49158 0.07893 0.0
C1428 C 0.47989 0.47859 0.05068 0.0
C1429 C 0.45845 0.46461 0.04975 0.0
C1430 C 0.54274 0.5339 0.05207 0.0
C1431 C 0.55511 0.53476 0.07984 0.0
C1432 C 0.52131 0.51985 0.05181 0.0
C1433 C 0.51168 0.50657 0.07953 0.0
C1434 C 0.52385 0.50759 0.10758 0.0
C1435 C 0.54537 0.52143 0.10764 0.0
H1436 H 0.98715 0.54286 0.40937 0.0
H1437 H 0.0496 0.55301 0.4209 0.0
H1438 H 0.97333 0.50528 0.40908 0.0
H1439 H 0.0358 0.51541 0.4204 0.0
H1440 H 0.00161 0.4471 0.45337 0.0
H1441 H 0.01505 0.48461 0.45467 0.0
H1442 H 0.97281 0.47823 0.37379 0.0
H1443 H 0.95872 0.44063 0.37352 0.0
C1444 C 0.99795 0.53706 0.41153 0.0
C1445 C 0.01947 0.5509 0.41512 0.0
C1446 C 0.99003 0.51552 0.41135 0.0
C1447 C 0.00346 0.50734 0.41468 0.0
C1448 C 0.025 0.52119 0.4183 0.0
C1449 C 0.03291 0.54274 0.41856 0.0
C1450 C 0.99501 0.45367 0.43616 0.0
C1451 C 0.97905 0.44085 0.41339 0.0
C1452 C 0.0029 0.4752 0.43661 0.0
C1453 C 0.99504 0.48443 0.41429 0.0
C1454 C 0.97906 0.47161 0.39157 0.0
C1455 C 0.97116 0.45007 0.39114 0.0
H1456 H 0.55891 0.00938 0.76556 0.0
H1457 H 0.50957 0.95211 0.72292 0.0
H1458 H 0.53543 0.02376 0.76697 0.0
H1459 H 0.48602 0.96639 0.72474 0.0
H1460 H 0.44632 0.99334 0.77118 0.0
H1461 H 0.46983 0.97898 0.7726 0.0
H1462 H 0.51661 0.03313 0.71909 0.0
H1463 H 0.49302 0.04735 0.71727 0.0
C1464 C 0.543 -0.00016 0.75678 0.0
C1465 C 0.53599 0.97968 0.74411 0.0
C1466 C 0.52965 0.00808 0.75742 0.0
C1467 C 0.50898 0.99614 0.74599 0.0
C1468 C 0.50186 0.97583 0.73388 0.0
C1469 C 0.51532 0.96774 0.73266 0.0
C1470 C 0.46168 0.00218 0.75993 0.0
C1471 C 0.46792 0.0214 0.74409 0.0
C1472 C 0.47503 0.99394 0.76057 0.0
C1473 C 0.49497 0.00499 0.74596 0.0
C1474 C 0.50135 0.0244 0.73069 0.0
C1475 C 0.48786 0.03245 0.7295 0.0
H1476 H 0.50667 0.55464 0.60159 0.0
H1477 H 0.55441 0.5466 0.55285 0.0
H1478 H 0.48266 0.51692 0.59876 0.0
H1479 H 0.53047 0.50883 0.55042 0.0
H1480 H 0.48856 0.44231 0.5991 0.0
H1481 H 0.51256 0.48006 0.5978 0.0
H1482 H 0.46495 0.48883 0.55024 0.0
H1483 H 0.44102 0.45102 0.55113 0.0
C1484 C 0.51196 0.54476 0.59028 0.0
C1485 C 0.53232 0.55342 0.57744 0.0
C1486 C 0.49824 0.52328 0.58848 0.0
C1487 C 0.50478 0.51007 0.57439 0.0
C1488 C 0.52513 0.51873 0.56151 0.0
C1489 C 0.53873 0.54027 0.56273 0.0
C1490 C 0.4833 0.45234 0.58828 0.0
C1491 C 0.463 0.44386 0.57522 0.0
C1492 C 0.49702 0.47385 0.58736 0.0
C1493 C 0.49054 0.48725 0.57393 0.0
C1494 C 0.47025 0.47877 0.56083 0.0
C1495 C 0.45665 0.45722 0.56117 0.0
H1496 H 0.98491 0.53844 0.96349 0.0
H1497 H 0.96849 0.52547 0.85737 0.0
H1498 H 0.99758 0.51378 0.96312 0.0
H1499 H 0.98187 0.50128 0.85695 0.0
H1500 H 0.03108 0.47932 0.86599 0.0
H1501 H 0.01709 0.503 0.8645 0.0
H1502 H 0.98186 0.47467 0.9556 0.0
H1503 H 0.99522 0.45057 0.95667 0.0
C1504 C 0.9838 0.53022 0.94015 0.0
C1505 C 0.97553 0.53389 0.9105 0.0
C1506 C 0.99116 0.51616 0.93995 0.0
C1507 C 0.99066 0.50561 0.91003 0.0
C1508 C 0.98261 0.50937 0.88028 0.0
C1509 C 0.97502 0.52327 0.88055 0.0
C1510 C 0.02012 0.47791 0.88544 0.0
C1511 C 0.0144 0.46309 0.91158 0.0
C1512 C 0.01217 0.49152 0.8846 0.0
C1513 C 0.99851 0.49072 0.91005 0.0
C1514 C 0.99262 0.47582 0.93596 0.0
C1515 C 0.00038 0.46209 0.93662 0.0
H1516 H 0.55394 0.03871 0.28051 0.0
H1517 H 0.54739 0.9897 0.21336 0.0
H1518 H 0.51633 0.02461 0.27905 0.0
H1519 H 0.50965 0.97512 0.21259 0.0
H1520 H 0.44534 0.96686 0.19163 0.0
H1521 H 0.48293 0.98114 0.19217 0.0
H1522 H 0.48463 0.99614 0.29858 0.0
H1523 H 0.44735 0.98321 0.29747 0.0
C1524 C 0.54438 0.02478 0.26568 0.0
C1525 C 0.55355 0.01529 0.24705 0.0
C1526 C 0.52282 0.01663 0.26493 0.0
C1527 C 0.50988 0.99864 0.24581 0.0
C1528 C 0.51913 0.98917 0.22716 0.0
C1529 C 0.54073 0.99747 0.22764 0.0
C1530 C 0.45375 0.97342 0.21506 0.0
C1531 C 0.44324 0.97391 0.24447 0.0
C1532 C 0.47531 0.98136 0.21549 0.0
C1533 C 0.48688 0.98984 0.24541 0.0
C1534 C 0.47631 0.99004 0.27493 0.0
C1535 C 0.45481 0.98228 0.27443 0.0
loop_
_geom_bond_atom_site_label_1
_geom_bond_atom_site_label_2
_geom_bond_distance
_geom_bond_site_symmetry_2
_ccdc_geom_bond_type
Li0 N17 1.990 . S
Li0 O60 1.956 . S
Li0 O61 1.970 . S
Li0 O62 1.961 . S
Li1 N25 1.990 . S
Li1 O60 1.970 . S
Li1 O61 1.956 . S
Li1 O63 1.961 . S
Li2 N47 1.990 . S
Li2 O60 1.961 . S
Li2 O62 1.956 . S
Li2 O63 1.970 . S
Li3 N53 1.990 1_554 S
Li3 O61 1.961 . S
Li3 O62 1.970 . S
Li3 O63 1.956 . S
C4 C6 1.348 . S
C4 C7 1.356 . S
C4 O60 1.325 . S
N5 C8 1.314 . S
N5 C9 1.279 . S
C6 C4 1.348 . S
C6 C8 1.353 . S
C6 H64 0.929 . S
C7 C4 1.356 . S
C7 C9 1.358 . S
C7 H65 0.930 . S
C8 N5 1.314 . S
C8 C6 1.353 . S
C8 H66 0.930 . S
C9 N5 1.279 . S
C9 C7 1.358 . S
C9 H67 0.930 . S
C10 C13 1.348 . S
C10 C14 1.356 . S
C10 O61 1.325 . S
C11 N12 1.279 . S
C11 C14 1.358 . S
C11 H68 0.930 . S
N12 C11 1.279 . S
N12 C15 1.314 . S
C13 C10 1.348 . S
C13 C15 1.353 . S
C13 H69 0.929 . S
C14 C10 1.356 . S
C14 C11 1.358 . S
C14 H70 0.930 . S
C15 N12 1.314 . S
C15 C13 1.353 . S
C15 H71 0.930 . S
C16 N17 1.314 . S
C16 C21 1.353 . S
C16 H22 0.930 . S
N17 Li0 1.990 . S
N17 C16 1.314 . S
N17 C19 1.279 . S
C18 C19 1.358 . S
C18 C20 1.356 . S
C18 H72 0.930 . S
C19 N17 1.279 . S
C19 C18 1.358 . S
C19 H23 0.930 . S
C20 C18 1.356 . S
C20 C21 1.348 . S
C21 C16 1.353 . S
C21 C20 1.348 . S
C21 H73 0.927 1_554 S
H22 C16 0.930 . S
H23 C19 0.930 . S
C24 N25 1.314 . S
C24 C26 1.353 . S
C24 H30 0.930 . S
N25 Li1 1.990 . S
N25 C24 1.314 . S
N25 C28 1.279 . S
C26 C24 1.353 . S
C26 C29 1.348 . S
C26 H74 0.929 . S
C27 C28 1.358 . S
C27 C29 1.356 . S
C27 H75 0.930 . S
C28 N25 1.279 . S
C28 C27 1.358 . S
C28 H31 0.930 . S
C29 C26 1.348 . S
C29 C27 1.356 . S
H30 C24 0.930 . S
H31 C28 0.930 . S
C32 C34 1.348 . S
C32 C35 1.356 . S
C32 O62 1.325 1_556 S
N33 C36 1.314 . S
N33 C37 1.279 . S
C34 C32 1.348 . S
C34 C36 1.353 . S
C34 H76 0.929 . S
C35 C32 1.356 . S
C35 C37 1.358 . S
C35 H77 0.930 1_556 S
C36 N33 1.314 . S
C36 C34 1.353 . S
C36 H78 0.930 . S
C37 N33 1.279 . S
C37 C35 1.358 . S
C37 H79 0.930 . S
C38 C39 1.348 . S
C38 C40 1.356 . S
C38 O63 1.325 . S
C39 C38 1.348 . S
C39 C41 1.353 . S
C39 H80 0.929 . S
C40 C38 1.356 . S
C40 C42 1.358 . S
C40 H81 0.930 . S
C41 C39 1.353 . S
C41 N43 1.314 . S
C41 H82 0.930 . S
C42 C40 1.358 . S
C42 N43 1.279 . S
C42 H83 0.930 . S
N43 C41 1.314 . S
N43 C42 1.279 . S
C44 C46 1.353 . S
C44 N47 1.314 . S
C44 H50 0.930 . S
C45 N47 1.279 . S
C45 C48 1.358 . S
C45 H51 0.930 . S
C46 C44 1.353 . S
C46 C49 1.348 . S
C46 H84 0.929 . S
N47 Li2 1.990 . S
N47 C44 1.314 . S
N47 C45 1.279 . S
C48 C45 1.358 . S
C48 C49 1.356 . S
C48 H85 0.930 . S
C49 C46 1.348 . S
C49 C48 1.356 . S
H50 C44 0.930 . S
H51 C45 0.930 . S
C52 N53 1.314 . S
C52 C54 1.353 . S
C52 H58 0.930 . S
N53 Li3 1.990 1_556 S
N53 C52 1.314 . S
N53 C56 1.279 . S
C54 C52 1.353 . S
C54 C57 1.348 . S
C54 H86 0.929 . S
C55 C56 1.358 . S
C55 C57 1.356 . S
C55 H87 0.930 . S
C56 N53 1.279 . S
C56 C55 1.358 . S
C56 H59 0.930 . S
C57 C54 1.348 . S
C57 C55 1.356 . S
H58 C52 0.930 . S
H59 C56 0.930 . S
O60 Li0 1.956 . S
O60 Li1 1.970 . S
O60 Li2 1.961 . S
O60 C4 1.325 . S
O61 Li0 1.970 . S
O61 Li1 1.956 . S
O61 Li3 1.961 . S
O61 C10 1.325 . S
O62 Li0 1.961 . S
O62 Li2 1.956 . S
O62 Li3 1.970 . S
O62 C32 1.325 1_554 S
O63 Li1 1.961 . S
O63 Li2 1.970 . S
O63 Li3 1.956 . S
O63 C38 1.325 . S
H64 C6 0.929 . S
H65 C7 0.930 . S
H66 C8 0.930 . S
H67 C9 0.930 . S
H68 C11 0.930 . S
H69 C13 0.929 . S
H70 C14 0.930 . S
H71 C15 0.930 . S
H72 C18 0.930 . S
H73 C21 0.927 1_556 S
H74 C26 0.929 . S
H75 C27 0.930 . S
H76 C34 0.929 . S
H77 C35 0.930 1_554 S
H78 C36 0.930 . S
H79 C37 0.930 . S
H80 C39 0.929 . S
H81 C40 0.930 . S
H82 C41 0.930 . S
H83 C42 0.930 . S
H84 C46 0.929 . S
H85 C48 0.930 . S
H86 C54 0.929 . S
H87 C55 0.930 . S
Li88 N105 1.990 . S
Li88 O148 1.956 . S
Li88 O149 1.970 . S
Li88 O150 1.961 . S
Li89 N113 1.990 . S
Li89 O148 1.970 . S
Li89 O149 1.956 . S
Li89 O151 1.961 . S
Li90 N135 1.990 . S
Li90 O148 1.961 . S
Li90 O150 1.956 . S
Li90 O151 1.970 . S
Li91 N141 1.990 . S
Li91 O149 1.961 . S
Li91 O150 1.970 . S
Li91 O151 1.956 . S
C92 C94 1.348 . S
C92 C95 1.356 . S
C92 O148 1.325 . S
N93 C96 1.314 . S
N93 C97 1.279 . S
C94 C92 1.348 . S
C94 C96 1.353 . S
C94 H152 0.929 . S
C95 C92 1.356 . S
C95 C97 1.358 . S
C95 H153 0.930 . S
C96 N93 1.314 . S
C96 C94 1.353 . S
C96 H154 0.930 . S
C97 N93 1.279 . S
C97 C95 1.358 . S
C97 H155 0.930 . S
C98 C101 1.348 . S
C98 C102 1.356 . S
C98 O149 1.325 . S
C99 N100 1.279 . S
C99 C102 1.358 . S
C99 H156 0.930 . S
N100 C99 1.279 . S
N100 C103 1.314 . S
C101 C98 1.348 . S
C101 C103 1.353 . S
C101 H157 0.929 . S
C102 C98 1.356 . S
C102 C99 1.358 . S
C102 H158 0.930 . S
C103 N100 1.314 . S
C103 C101 1.353 . S
C103 H159 0.930 . S
C104 N105 1.314 . S
C104 C109 1.353 1_655 S
C104 H110 0.930 . S
N105 Li88 1.990 . S
N105 C104 1.314 . S
N105 C107 1.279 . S
C106 C107 1.358 . S
C106 C108 1.356 . S
C106 H160 0.930 . S
C107 N105 1.279 . S
C107 C106 1.358 . S
C107 H111 0.930 . S
C108 C106 1.356 . S
C108 C109 1.348 1_655 S
C109 C104 1.353 1_455 S
C109 C108 1.348 1_455 S
C109 H161 0.929 . S
H110 C104 0.930 . S
H111 C107 0.930 . S
C112 N113 1.314 . S
C112 C114 1.353 . S
C112 H118 0.930 . S
N113 Li89 1.990 . S
N113 C112 1.314 . S
N113 C116 1.279 . S
C114 C112 1.353 . S
C114 C117 1.348 . S
C114 H162 0.929 . S
C115 C116 1.358 . S
C115 C117 1.356 . S
C115 H163 0.930 . S
C116 N113 1.279 . S
C116 C115 1.358 . S
C116 H119 0.930 . S
C117 C114 1.348 . S
C117 C115 1.356 . S
H118 C112 0.930 . S
H119 C116 0.930 . S
C120 C122 1.348 . S
C120 C123 1.356 . S
C120 O150 1.325 1_455 S
N121 C124 1.314 . S
N121 C125 1.279 . S
C122 C120 1.348 . S
C122 C124 1.353 . S
C122 H164 0.929 1_455 S
C123 C120 1.356 . S
C123 C125 1.358 . S
C123 H165 0.930 . S
C124 N121 1.314 . S
C124 C122 1.353 . S
C124 H166 0.930 . S
C125 N121 1.279 . S
C125 C123 1.358 . S
C125 H167 0.930 . S
C126 C127 1.348 . S
C126 C128 1.356 . S
C126 O151 1.325 . S
C127 C126 1.348 . S
C127 C129 1.353 . S
C127 H168 0.929 . S
C128 C126 1.356 . S
C128 C130 1.358 . S
C128 H169 0.930 . S
C129 C127 1.353 . S
C129 N131 1.314 . S
C129 H170 0.930 . S
C130 C128 1.358 . S
C130 N131 1.279 . S
C130 H171 0.930 . S
N131 C129 1.314 . S
N131 C130 1.279 . S
C132 C134 1.353 . S
C132 N135 1.314 . S
C132 H138 0.930 . S
C133 N135 1.279 1_455 S
C133 C136 1.358 . S
C133 H139 0.930 . S
C134 C132 1.353 . S
C134 C137 1.348 1_655 S
C134 H172 0.929 . S
N135 Li90 1.990 . S
N135 C132 1.314 . S
N135 C133 1.279 1_655 S
C136 C133 1.358 . S
C136 C137 1.356 . S
C136 H173 0.930 . S
C137 C134 1.348 1_455 S
C137 C136 1.356 . S
H138 C132 0.930 . S
H139 C133 0.930 . S
C140 N141 1.314 . S
C140 C142 1.353 . S
C140 H146 0.930 . S
N141 Li91 1.990 . S
N141 C140 1.314 . S
N141 C144 1.279 . S
C142 C140 1.353 . S
C142 C145 1.348 . S
C142 H174 0.929 . S
C143 C144 1.358 . S
C143 C145 1.356 . S
C143 H175 0.930 . S
C144 N141 1.279 . S
C144 C143 1.358 . S
C144 H147 0.930 . S
C145 C142 1.348 . S
C145 C143 1.356 . S
H146 C140 0.930 . S
H147 C144 0.930 . S
O148 Li88 1.956 . S
O148 Li89 1.970 . S
O148 Li90 1.961 . S
O148 C92 1.325 . S
O149 Li88 1.970 . S
O149 Li89 1.956 . S
O149 Li91 1.961 . S
O149 C98 1.325 . S
O150 Li88 1.961 . S
O150 Li90 1.956 . S
O150 Li91 1.970 . S
O150 C120 1.325 1_655 S
O151 Li89 1.961 . S
O151 Li90 1.970 . S
O151 Li91 1.956 . S
O151 C126 1.325 . S
H152 C94 0.929 . S
H153 C95 0.930 . S
H154 C96 0.930 . S
H155 C97 0.930 . S
H156 C99 0.930 . S
H157 C101 0.929 . S
H158 C102 0.930 . S
H159 C103 0.930 . S
H160 C106 0.930 . S
H161 C109 0.929 . S
H162 C114 0.929 . S
H163 C115 0.930 . S
H164 C122 0.929 1_655 S
H165 C123 0.930 . S
H166 C124 0.930 . S
H167 C125 0.930 . S
H168 C127 0.929 . S
H169 C128 0.930 . S
H170 C129 0.930 . S
H171 C130 0.930 . S
H172 C134 0.929 . S
H173 C136 0.930 . S
H174 C142 0.929 . S
H175 C143 0.930 . S
Li176 N193 1.990 . S
Li176 O236 1.956 . S
Li176 O237 1.970 . S
Li176 O238 1.961 . S
Li177 N201 1.990 . S
Li177 O236 1.970 . S
Li177 O237 1.956 . S
Li177 O239 1.961 . S
Li178 N223 1.990 . S
Li178 O236 1.961 . S
Li178 O238 1.956 . S
Li178 O239 1.970 . S
Li179 N229 1.990 . S
Li179 O237 1.961 . S
Li179 O238 1.970 . S
Li179 O239 1.956 . S
C180 C182 1.348 . S
C180 C183 1.356 . S
C180 O236 1.325 . S
N181 C184 1.314 . S
N181 C185 1.279 . S
C182 C180 1.348 . S
C182 C184 1.353 . S
C182 H240 0.929 . S
C183 C180 1.356 . S
C183 C185 1.358 . S
C183 H241 0.930 . S
C184 N181 1.314 . S
C184 C182 1.353 . S
C184 H242 0.930 . S
C185 N181 1.279 . S
C185 C183 1.358 . S
C185 H243 0.930 . S
C186 C189 1.348 . S
C186 C190 1.356 . S
C186 O237 1.325 . S
C187 N188 1.279 . S
C187 C190 1.358 . S
C187 H244 0.930 . S
N188 C187 1.279 . S
N188 C191 1.314 . S
C189 C186 1.348 . S
C189 C191 1.353 . S
C189 H245 0.929 . S
C190 C186 1.356 . S
C190 C187 1.358 . S
C190 H246 0.930 . S
C191 N188 1.314 . S
C191 C189 1.353 . S
C191 H247 0.930 . S
C192 N193 1.314 . S
C192 C197 1.353 1_565 S
C192 H198 0.930 . S
N193 Li176 1.990 . S
N193 C192 1.314 . S
N193 C195 1.279 . S
C194 C195 1.358 . S
C194 C196 1.356 . S
C194 H248 0.930 . S
C195 N193 1.279 . S
C195 C194 1.358 . S
C195 H199 0.930 . S
C196 C194 1.356 . S
C196 C197 1.348 1_565 S
C197 C192 1.353 1_545 S
C197 C196 1.348 1_545 S
C197 H249 0.929 . S
H198 C192 0.930 . S
H199 C195 0.930 . S
C200 N201 1.314 . S
C200 C202 1.353 . S
C200 H206 0.930 . S
N201 Li177 1.990 . S
N201 C200 1.314 . S
N201 C204 1.279 . S
C202 C200 1.353 . S
C202 C205 1.348 . S
C202 H250 0.929 . S
C203 C204 1.358 . S
C203 C205 1.356 . S
C203 H251 0.930 . S
C204 N201 1.279 . S
C204 C203 1.358 . S
C204 H207 0.930 . S
C205 C202 1.348 . S
C205 C203 1.356 . S
H206 C200 0.930 . S
H207 C204 0.930 . S
C208 C210 1.348 . S
C208 C211 1.356 . S
C208 O238 1.325 1_545 S
N209 C212 1.314 . S
N209 C213 1.279 . S
C210 C208 1.348 . S
C210 C212 1.353 . S
C210 H252 0.929 1_545 S
C211 C208 1.356 . S
C211 C213 1.358 . S
C211 H253 0.930 . S
C212 N209 1.314 . S
C212 C210 1.353 . S
C212 H254 0.930 . S
C213 N209 1.279 . S
C213 C211 1.358 . S
C213 H255 0.930 . S
C214 C215 1.348 . S
C214 C216 1.356 . S
C214 O239 1.325 . S
C215 C214 1.348 . S
C215 C217 1.353 . S
C215 H256 0.929 . S
C216 C214 1.356 . S
C216 C218 1.358 . S
C216 H257 0.930 . S
C217 C215 1.353 . S
C217 N219 1.314 . S
C217 H258 0.930 . S
C218 C216 1.358 . S
C218 N219 1.279 . S
C218 H259 0.930 . S
N219 C217 1.314 . S
N219 C218 1.279 . S
C220 C222 1.353 . S
C220 N223 1.314 . S
C220 H226 0.930 . S
C221 N223 1.279 1_545 S
C221 C224 1.358 . S
C221 H227 0.930 . S
C222 C220 1.353 . S
C222 C225 1.348 1_565 S
C222 H260 0.929 . S
N223 Li178 1.990 . S
N223 C220 1.314 . S
N223 C221 1.279 1_565 S
C224 C221 1.358 . S
C224 C225 1.356 . S
C224 H261 0.930 . S
C225 C222 1.348 1_545 S
C225 C224 1.356 . S
H226 C220 0.930 . S
H227 C221 0.930 . S
C228 N229 1.314 . S
C228 C230 1.353 . S
C228 H234 0.930 . S
N229 Li179 1.990 . S
N229 C228 1.314 . S
N229 C232 1.279 . S
C230 C228 1.353 . S
C230 C233 1.348 . S
C230 H262 0.929 . S
C231 C232 1.358 . S
C231 C233 1.356 . S
C231 H263 0.930 . S
C232 N229 1.279 . S
C232 C231 1.358 . S
C232 H235 0.930 . S
C233 C230 1.348 . S
C233 C231 1.356 . S
H234 C228 0.930 . S
H235 C232 0.930 . S
O236 Li176 1.956 . S
O236 Li177 1.970 . S
O236 Li178 1.961 . S
O236 C180 1.325 . S
O237 Li176 1.970 . S
O237 Li177 1.956 . S
O237 Li179 1.961 . S
O237 C186 1.325 . S
O238 Li176 1.961 . S
O238 Li178 1.956 . S
O238 Li179 1.970 . S
O238 C208 1.325 1_565 S
O239 Li177 1.961 . S
O239 Li178 1.970 . S
O239 Li179 1.956 . S
O239 C214 1.325 . S
H240 C182 0.929 . S
H241 C183 0.930 . S
H242 C184 0.930 . S
H243 C185 0.930 . S
H244 C187 0.930 . S
H245 C189 0.929 . S
H246 C190 0.930 . S
H247 C191 0.930 . S
H248 C194 0.930 . S
H249 C197 0.929 . S
H250 C202 0.929 . S
H251 C203 0.930 . S
H252 C210 0.929 1_565 S
H253 C211 0.930 . S
H254 C212 0.930 . S
H255 C213 0.930 . S
H256 C215 0.929 . S
H257 C216 0.930 . S
H258 C217 0.930 . S
H259 C218 0.930 . S
H260 C222 0.929 . S
H261 C224 0.930 . S
H262 C230 0.929 . S
H263 C231 0.930 . S
Li264 N281 1.990 . S
Li264 O324 1.956 . S
Li264 O325 1.970 . S
Li264 O326 1.961 . S
Li265 N289 1.990 . S
Li265 O324 1.970 . S
Li265 O325 1.956 . S
Li265 O327 1.961 . S
Li266 N311 1.990 1_554 S
Li266 O324 1.961 . S
Li266 O326 1.956 . S
Li266 O327 1.970 . S
Li267 N317 1.990 . S
Li267 O325 1.961 . S
Li267 O326 1.970 . S
Li267 O327 1.956 . S
C268 C270 1.348 . S
C268 C271 1.356 . S
C268 O324 1.325 . S
N269 C272 1.314 . S
N269 C273 1.279 . S
C270 C268 1.348 . S
C270 C272 1.353 . S
C270 H328 0.929 . S
C271 C268 1.356 . S
C271 C273 1.358 . S
C271 H329 0.930 . S
C272 N269 1.314 . S
C272 C270 1.353 . S
C272 H330 0.930 . S
C273 N269 1.279 . S
C273 C271 1.358 . S
C273 H331 0.930 . S
C274 C277 1.348 . S
C274 C278 1.356 . S
C274 O325 1.325 . S
C275 N276 1.279 . S
C275 C278 1.358 . S
C275 H332 0.930 . S
N276 C275 1.279 . S
N276 C279 1.314 . S
C277 C274 1.348 . S
C277 C279 1.353 . S
C277 H333 0.929 . S
C278 C274 1.356 . S
C278 C275 1.358 . S
C278 H334 0.930 . S
C279 N276 1.314 . S
C279 C277 1.353 . S
C279 H335 0.930 . S
C280 N281 1.314 . S
C280 C285 1.353 . S
C280 H286 0.930 . S
N281 Li264 1.990 . S
N281 C280 1.314 . S
N281 C283 1.279 . S
C282 C283 1.358 . S
C282 C284 1.356 . S
C282 H336 0.930 . S
C283 N281 1.279 . S
C283 C282 1.358 . S
C283 H287 0.930 . S
C284 C282 1.356 . S
C284 C285 1.348 . S
C285 C280 1.353 . S
C285 C284 1.348 . S
C285 H337 0.929 . S
H286 C280 0.930 . S
H287 C283 0.930 . S
C288 N289 1.314 . S
C288 C290 1.353 . S
C288 H294 0.930 . S
N289 Li265 1.990 . S
N289 C288 1.314 . S
N289 C292 1.279 . S
C290 C288 1.353 . S
C290 C293 1.348 . S
C290 H338 0.927 1_554 S
C291 C292 1.358 . S
C291 C293 1.356 . S
C291 H339 0.930 . S
C292 N289 1.279 . S
C292 C291 1.358 . S
C292 H295 0.930 . S
C293 C290 1.348 . S
C293 C291 1.356 . S
H294 C288 0.930 . S
H295 C292 0.930 . S
C296 C298 1.348 . S
C296 C299 1.356 . S
C296 O326 1.325 . S
N297 C300 1.314 . S
N297 C301 1.279 . S
C298 C296 1.348 . S
C298 C300 1.353 . S
C298 H340 0.929 . S
C299 C296 1.356 . S
C299 C301 1.358 . S
C299 H341 0.930 . S
C300 N297 1.314 . S
C300 C298 1.353 . S
C300 H342 0.930 . S
C301 N297 1.279 . S
C301 C299 1.358 . S
C301 H343 0.930 . S
C302 C303 1.348 . S
C302 C304 1.356 . S
C302 O327 1.325 1_556 S
C303 C302 1.348 . S
C303 C305 1.353 . S
C303 H344 0.929 . S
C304 C302 1.356 . S
C304 C306 1.358 . S
C304 H345 0.930 1_556 S
C305 C303 1.353 . S
C305 N307 1.314 . S
C305 H346 0.930 . S
C306 C304 1.358 . S
C306 N307 1.279 . S
C306 H347 0.930 . S
N307 C305 1.314 . S
N307 C306 1.279 . S
C308 C310 1.353 . S
C308 N311 1.314 . S
C308 H314 0.930 . S
C309 N311 1.279 . S
C309 C312 1.358 . S
C309 H315 0.930 . S
C310 C308 1.353 . S
C310 C313 1.348 . S
C310 H348 0.929 . S
N311 Li266 1.990 1_556 S
N311 C308 1.314 . S
N311 C309 1.279 . S
C312 C309 1.358 . S
C312 C313 1.356 . S
C312 H349 0.930 . S
C313 C310 1.348 . S
C313 C312 1.356 . S
H314 C308 0.930 . S
H315 C309 0.930 . S
C316 N317 1.314 . S
C316 C318 1.353 . S
C316 H322 0.930 . S
N317 Li267 1.990 . S
N317 C316 1.314 . S
N317 C320 1.279 . S
C318 C316 1.353 . S
C318 C321 1.348 . S
C318 H350 0.929 . S
C319 C320 1.358 . S
C319 C321 1.356 . S
C319 H351 0.930 . S
C320 N317 1.279 . S
C320 C319 1.358 . S
C320 H323 0.930 . S
C321 C318 1.348 . S
C321 C319 1.356 . S
H322 C316 0.930 . S
H323 C320 0.930 . S
O324 Li264 1.956 . S
O324 Li265 1.970 . S
O324 Li266 1.961 . S
O324 C268 1.325 . S
O325 Li264 1.970 . S
O325 Li265 1.956 . S
O325 Li267 1.961 . S
O325 C274 1.325 . S
O326 Li264 1.961 . S
O326 Li266 1.956 . S
O326 Li267 1.970 . S
O326 C296 1.325 . S
O327 Li265 1.961 . S
O327 Li266 1.970 . S
O327 Li267 1.956 . S
O327 C302 1.325 1_554 S
H328 C270 0.929 . S
H329 C271 0.930 . S
H330 C272 0.930 . S
H331 C273 0.930 . S
H332 C275 0.930 . S
H333 C277 0.929 . S
H334 C278 0.930 . S
H335 C279 0.930 . S
H336 C282 0.930 . S
H337 C285 0.929 . S
H338 C290 0.927 1_556 S
H339 C291 0.930 . S
H340 C298 0.929 . S
H341 C299 0.930 . S
H342 C300 0.930 . S
H343 C301 0.930 . S
H344 C303 0.929 . S
H345 C304 0.930 1_554 S
H346 C305 0.930 . S
H347 C306 0.930 . S
H348 C310 0.929 . S
H349 C312 0.930 . S
H350 C318 0.929 . S
H351 C319 0.930 . S
Li352 N369 1.990 . S
Li352 O412 1.956 . S
Li352 O413 1.970 . S
Li352 O414 1.961 . S
Li353 N377 1.990 . S
Li353 O412 1.970 . S
Li353 O413 1.956 . S
Li353 O415 1.961 . S
Li354 N399 1.990 . S
Li354 O412 1.961 . S
Li354 O414 1.956 . S
Li354 O415 1.970 . S
Li355 N405 1.990 . S
Li355 O413 1.961 . S
Li355 O414 1.970 . S
Li355 O415 1.956 . S
C356 C358 1.348 . S
C356 C359 1.356 . S
C356 O412 1.325 . S
N357 C360 1.314 . S
N357 C361 1.279 . S
C358 C356 1.348 . S
C358 C360 1.353 . S
C358 H416 0.929 . S
C359 C356 1.356 . S
C359 C361 1.358 . S
C359 H417 0.930 . S
C360 N357 1.314 . S
C360 C358 1.353 . S
C360 H418 0.930 . S
C361 N357 1.279 . S
C361 C359 1.358 . S
C361 H419 0.930 . S
C362 C365 1.348 . S
C362 C366 1.356 . S
C362 O413 1.325 . S
C363 N364 1.279 . S
C363 C366 1.358 . S
C363 H420 0.930 . S
N364 C363 1.279 . S
N364 C367 1.314 . S
C365 C362 1.348 . S
C365 C367 1.353 . S
C365 H421 0.929 . S
C366 C362 1.356 . S
C366 C363 1.358 . S
C366 H422 0.930 . S
C367 N364 1.314 . S
C367 C365 1.353 . S
C367 H423 0.930 . S
C368 N369 1.314 . S
C368 C373 1.353 . S
C368 H374 0.930 . S
N369 Li352 1.990 . S
N369 C368 1.314 . S
N369 C371 1.279 . S
C370 C371 1.358 . S
C370 C372 1.356 . S
C370 H424 0.930 . S
C371 N369 1.279 . S
C371 C370 1.358 . S
C371 H375 0.930 . S
C372 C370 1.356 . S
C372 C373 1.348 . S
C373 C368 1.353 . S
C373 C372 1.348 . S
C373 H425 0.929 . S
H374 C368 0.930 . S
H375 C371 0.930 . S
C376 N377 1.314 . S
C376 C378 1.353 1_455 S
C376 H382 0.930 . S
N377 Li353 1.990 . S
N377 C376 1.314 . S
N377 C380 1.279 . S
C378 C376 1.353 1_655 S
C378 C381 1.348 1_655 S
C378 H426 0.929 . S
C379 C380 1.358 . S
C379 C381 1.356 . S
C379 H427 0.930 . S
C380 N377 1.279 . S
C380 C379 1.358 . S
C380 H383 0.930 . S
C381 C378 1.348 1_455 S
C381 C379 1.356 . S
H382 C376 0.930 . S
H383 C380 0.930 . S
C384 C386 1.348 . S
C384 C387 1.356 . S
C384 O414 1.325 . S
N385 C388 1.314 . S
N385 C389 1.279 . S
C386 C384 1.348 . S
C386 C388 1.353 . S
C386 H428 0.929 . S
C387 C384 1.356 . S
C387 C389 1.358 . S
C387 H429 0.930 . S
C388 N385 1.314 . S
C388 C386 1.353 . S
C388 H430 0.930 . S
C389 N385 1.279 . S
C389 C387 1.358 . S
C389 H431 0.930 . S
C390 C391 1.348 . S
C390 C392 1.356 . S
C390 O415 1.325 1_655 S
C391 C390 1.348 . S
C391 C393 1.353 . S
C391 H432 0.929 1_655 S
C392 C390 1.356 . S
C392 C394 1.358 . S
C392 H433 0.930 . S
C393 C391 1.353 . S
C393 N395 1.314 . S
C393 H434 0.930 . S
C394 C392 1.358 . S
C394 N395 1.279 . S
C394 H435 0.930 . S
N395 C393 1.314 . S
N395 C394 1.279 . S
C396 C398 1.353 . S
C396 N399 1.314 . S
C396 H402 0.930 . S
C397 N399 1.279 . S
C397 C400 1.358 . S
C397 H403 0.930 . S
C398 C396 1.353 . S
C398 C401 1.348 . S
C398 H436 0.929 . S
N399 Li354 1.990 . S
N399 C396 1.314 . S
N399 C397 1.279 . S
C400 C397 1.358 . S
C400 C401 1.356 . S
C400 H437 0.930 . S
C401 C398 1.348 . S
C401 C400 1.356 . S
H402 C396 0.930 . S
H403 C397 0.930 . S
C404 N405 1.314 . S
C404 C406 1.353 . S
C404 H410 0.930 . S
N405 Li355 1.990 . S
N405 C404 1.314 . S
N405 C408 1.279 1_455 S
C406 C404 1.353 . S
C406 C409 1.348 1_455 S
C406 H438 0.929 . S
C407 C408 1.358 . S
C407 C409 1.356 . S
C407 H439 0.930 . S
C408 N405 1.279 1_655 S
C408 C407 1.358 . S
C408 H411 0.930 . S
C409 C406 1.348 1_655 S
C409 C407 1.356 . S
H410 C404 0.930 . S
H411 C408 0.930 . S
O412 Li352 1.956 . S
O412 Li353 1.970 . S
O412 Li354 1.961 . S
O412 C356 1.325 . S
O413 Li352 1.970 . S
O413 Li353 1.956 . S
O413 Li355 1.961 . S
O413 C362 1.325 . S
O414 Li352 1.961 . S
O414 Li354 1.956 . S
O414 Li355 1.970 . S
O414 C384 1.325 . S
O415 Li353 1.961 . S
O415 Li354 1.970 . S
O415 Li355 1.956 . S
O415 C390 1.325 1_455 S
H416 C358 0.929 . S
H417 C359 0.930 . S
H418 C360 0.930 . S
H419 C361 0.930 . S
H420 C363 0.930 . S
H421 C365 0.929 . S
H422 C366 0.930 . S
H423 C367 0.930 . S
H424 C370 0.930 . S
H425 C373 0.929 . S
H426 C378 0.929 . S
H427 C379 0.930 . S
H428 C386 0.929 . S
H429 C387 0.930 . S
H430 C388 0.930 . S
H431 C389 0.930 . S
H432 C391 0.929 1_455 S
H433 C392 0.930 . S
H434 C393 0.930 . S
H435 C394 0.930 . S
H436 C398 0.929 . S
H437 C400 0.930 . S
H438 C406 0.929 . S
H439 C407 0.930 . S
Li440 N457 1.990 . S
Li440 O500 1.956 . S
Li440 O501 1.970 . S
Li440 O502 1.961 . S
Li441 N465 1.990 . S
Li441 O500 1.970 . S
Li441 O501 1.956 . S
Li441 O503 1.961 . S
Li442 N487 1.990 . S
Li442 O500 1.961 . S
Li442 O502 1.956 . S
Li442 O503 1.970 . S
Li443 N493 1.990 . S
Li443 O501 1.961 . S
Li443 O502 1.970 . S
Li443 O503 1.956 . S
C444 C446 1.348 . S
C444 C447 1.356 . S
C444 O500 1.325 . S
N445 C448 1.314 . S
N445 C449 1.279 . S
C446 C444 1.348 . S
C446 C448 1.353 . S
C446 H504 0.929 . S
C447 C444 1.356 . S
C447 C449 1.358 . S
C447 H505 0.930 . S
C448 N445 1.314 . S
C448 C446 1.353 . S
C448 H506 0.930 . S
C449 N445 1.279 . S
C449 C447 1.358 . S
C449 H507 0.930 . S
C450 C453 1.348 . S
C450 C454 1.356 . S
C450 O501 1.325 . S
C451 N452 1.279 . S
C451 C454 1.358 . S
C451 H508 0.930 . S
N452 C451 1.279 . S
N452 C455 1.314 . S
C453 C450 1.348 . S
C453 C455 1.353 . S
C453 H509 0.929 . S
C454 C450 1.356 . S
C454 C451 1.358 . S
C454 H510 0.930 . S
C455 N452 1.314 . S
C455 C453 1.353 . S
C455 H511 0.930 . S
C456 N457 1.314 . S
C456 C461 1.353 . S
C456 H462 0.930 . S
N457 Li440 1.990 . S
N457 C456 1.314 . S
N457 C459 1.279 . S
C458 C459 1.358 . S
C458 C460 1.356 . S
C458 H512 0.930 . S
C459 N457 1.279 . S
C459 C458 1.358 . S
C459 H463 0.930 . S
C460 C458 1.356 . S
C460 C461 1.348 . S
C461 C456 1.353 . S
C461 C460 1.348 . S
C461 H513 0.929 . S
H462 C456 0.930 . S
H463 C459 0.930 . S
C464 N465 1.314 . S
C464 C466 1.353 1_545 S
C464 H470 0.930 . S
N465 Li441 1.990 . S
N465 C464 1.314 . S
N465 C468 1.279 . S
C466 C464 1.353 1_565 S
C466 C469 1.348 1_565 S
C466 H514 0.929 . S
C467 C468 1.358 . S
C467 C469 1.356 . S
C467 H515 0.930 . S
C468 N465 1.279 . S
C468 C467 1.358 . S
C468 H471 0.930 . S
C469 C466 1.348 1_545 S
C469 C467 1.356 . S
H470 C464 0.930 . S
H471 C468 0.930 . S
C472 C474 1.348 . S
C472 C475 1.356 . S
C472 O502 1.325 . S
N473 C476 1.314 . S
N473 C477 1.279 . S
C474 C472 1.348 . S
C474 C476 1.353 . S
C474 H516 0.929 . S
C475 C472 1.356 . S
C475 C477 1.358 . S
C475 H517 0.930 . S
C476 N473 1.314 . S
C476 C474 1.353 . S
C476 H518 0.930 . S
C477 N473 1.279 . S
C477 C475 1.358 . S
C477 H519 0.930 . S
C478 C479 1.348 . S
C478 C480 1.356 . S
C478 O503 1.325 1_565 S
C479 C478 1.348 . S
C479 C481 1.353 . S
C479 H520 0.929 1_565 S
C480 C478 1.356 . S
C480 C482 1.358 . S
C480 H521 0.930 . S
C481 C479 1.353 . S
C481 N483 1.314 . S
C481 H522 0.930 . S
C482 C480 1.358 . S
C482 N483 1.279 . S
C482 H523 0.930 . S
N483 C481 1.314 . S
N483 C482 1.279 . S
C484 C486 1.353 . S
C484 N487 1.314 . S
C484 H490 0.930 . S
C485 N487 1.279 . S
C485 C488 1.358 . S
C485 H491 0.930 . S
C486 C484 1.353 . S
C486 C489 1.348 . S
C486 H524 0.929 . S
N487 Li442 1.990 . S
N487 C484 1.314 . S
N487 C485 1.279 . S
C488 C485 1.358 . S
C488 C489 1.356 . S
C488 H525 0.930 . S
C489 C486 1.348 . S
C489 C488 1.356 . S
H490 C484 0.930 . S
H491 C485 0.930 . S
C492 N493 1.314 . S
C492 C494 1.353 . S
C492 H498 0.930 . S
N493 Li443 1.990 . S
N493 C492 1.314 . S
N493 C496 1.279 1_545 S
C494 C492 1.353 . S
C494 C497 1.348 1_545 S
C494 H526 0.929 . S
C495 C496 1.358 . S
C495 C497 1.356 . S
C495 H527 0.930 . S
C496 N493 1.279 1_565 S
C496 C495 1.358 . S
C496 H499 0.930 . S
C497 C494 1.348 1_565 S
C497 C495 1.356 . S
H498 C492 0.930 . S
H499 C496 0.930 . S
O500 Li440 1.956 . S
O500 Li441 1.970 . S
O500 Li442 1.961 . S
O500 C444 1.325 . S
O501 Li440 1.970 . S
O501 Li441 1.956 . S
O501 Li443 1.961 . S
O501 C450 1.325 . S
O502 Li440 1.961 . S
O502 Li442 1.956 . S
O502 Li443 1.970 . S
O502 C472 1.325 . S
O503 Li441 1.961 . S
O503 Li442 1.970 . S
O503 Li443 1.956 . S
O503 C478 1.325 1_545 S
H504 C446 0.929 . S
H505 C447 0.930 . S
H506 C448 0.930 . S
H507 C449 0.930 . S
H508 C451 0.930 . S
H509 C453 0.929 . S
H510 C454 0.930 . S
H511 C455 0.930 . S
H512 C458 0.930 . S
H513 C461 0.929 . S
H514 C466 0.929 . S
H515 C467 0.930 . S
H516 C474 0.929 . S
H517 C475 0.930 . S
H518 C476 0.930 . S
H519 C477 0.930 . S
H520 C479 0.929 1_545 S
H521 C480 0.930 . S
H522 C481 0.930 . S
H523 C482 0.930 . S
H524 C486 0.929 . S
H525 C488 0.930 . S
H526 C494 0.929 . S
H527 C495 0.930 . S
Li528 N545 1.990 . S
Li528 O588 1.956 . S
Li528 O589 1.970 . S
Li528 O590 1.961 . S
Li529 N553 1.990 . S
Li529 O588 1.970 . S
Li529 O589 1.956 . S
Li529 O591 1.961 . S
Li530 N575 1.990 . S
Li530 O588 1.961 . S
Li530 O590 1.956 . S
Li530 O591 1.970 . S
Li531 N581 1.990 . S
Li531 O589 1.961 . S
Li531 O590 1.970 . S
Li531 O591 1.956 . S
C532 C534 1.348 . S
C532 C535 1.356 . S
C532 O588 1.325 . S
N533 C536 1.314 . S
N533 C537 1.279 . S
C534 C532 1.348 . S
C534 C536 1.353 . S
C534 H592 0.929 . S
C535 C532 1.356 . S
C535 C537 1.358 . S
C535 H593 0.930 . S
C536 N533 1.314 . S
C536 C534 1.353 . S
C536 H594 0.930 . S
C537 N533 1.279 . S
C537 C535 1.358 . S
C537 H595 0.930 . S
C538 C541 1.348 . S
C538 C542 1.356 . S
C538 O589 1.325 . S
C539 N540 1.279 . S
C539 C542 1.358 . S
C539 H596 0.930 . S
N540 C539 1.279 . S
N540 C543 1.314 . S
C541 C538 1.348 . S
C541 C543 1.353 . S
C541 H597 0.929 . S
C542 C538 1.356 . S
C542 C539 1.358 . S
C542 H598 0.930 . S
C543 N540 1.314 . S
C543 C541 1.353 . S
C543 H599 0.930 . S
C544 N545 1.314 . S
C544 C549 1.353 . S
C544 H550 0.930 . S
N545 Li528 1.990 . S
N545 C544 1.314 . S
N545 C547 1.279 . S
C546 C547 1.358 . S
C546 C548 1.356 . S
C546 H600 0.930 . S
C547 N545 1.279 . S
C547 C546 1.358 . S
C547 H551 0.930 . S
C548 C546 1.356 . S
C548 C549 1.348 . S
C549 C544 1.353 . S
C549 C548 1.348 . S
C549 H601 0.929 . S
H550 C544 0.930 . S
H551 C547 0.930 . S
C552 N553 1.314 . S
C552 C554 1.353 . S
C552 H558 0.930 . S
N553 Li529 1.990 . S
N553 C552 1.314 . S
N553 C556 1.279 . S
C554 C552 1.353 . S
C554 C557 1.348 . S
C554 H602 0.929 . S
C555 C556 1.358 . S
C555 C557 1.356 . S
C555 H603 0.930 . S
C556 N553 1.279 . S
C556 C555 1.358 . S
C556 H559 0.930 . S
C557 C554 1.348 . S
C557 C555 1.356 . S
H558 C552 0.930 . S
H559 C556 0.930 . S
C560 C562 1.348 . S
C560 C563 1.356 . S
C560 O590 1.325 . S
N561 C564 1.314 . S
N561 C565 1.279 . S
C562 C560 1.348 . S
C562 C564 1.353 . S
C562 H604 0.929 . S
C563 C560 1.356 . S
C563 C565 1.358 . S
C563 H605 0.930 . S
C564 N561 1.314 . S
C564 C562 1.353 . S
C564 H606 0.930 . S
C565 N561 1.279 . S
C565 C563 1.358 . S
C565 H607 0.930 . S
C566 C567 1.348 . S
C566 C568 1.356 . S
C566 O591 1.325 . S
C567 C566 1.348 . S
C567 C569 1.353 . S
C567 H608 0.929 . S
C568 C566 1.356 . S
C568 C570 1.358 . S
C568 H609 0.930 . S
C569 C567 1.353 . S
C569 N571 1.314 . S
C569 H610 0.930 . S
C570 C568 1.358 . S
C570 N571 1.279 . S
C570 H611 0.930 . S
N571 C569 1.314 . S
N571 C570 1.279 . S
C572 C574 1.353 . S
C572 N575 1.314 . S
C572 H578 0.930 . S
C573 N575 1.279 . S
C573 C576 1.358 . S
C573 H579 0.930 . S
C574 C572 1.353 . S
C574 C577 1.348 . S
C574 H612 0.929 . S
N575 Li530 1.990 . S
N575 C572 1.314 . S
N575 C573 1.279 . S
C576 C573 1.358 . S
C576 C577 1.356 . S
C576 H613 0.930 . S
C577 C574 1.348 . S
C577 C576 1.356 . S
H578 C572 0.930 . S
H579 C573 0.930 . S
C580 N581 1.314 . S
C580 C582 1.353 . S
C580 H586 0.930 . S
N581 Li531 1.990 . S
N581 C580 1.314 . S
N581 C584 1.279 . S
C582 C580 1.353 . S
C582 C585 1.348 . S
C582 H614 0.929 . S
C583 C584 1.358 . S
C583 C585 1.356 . S
C583 H615 0.930 . S
C584 N581 1.279 . S
C584 C583 1.358 . S
C584 H587 0.930 . S
C585 C582 1.348 . S
C585 C583 1.356 . S
H586 C580 0.930 . S
H587 C584 0.930 . S
O588 Li528 1.956 . S
O588 Li529 1.970 . S
O588 Li530 1.961 . S
O588 C532 1.325 . S
O589 Li528 1.970 . S
O589 Li529 1.956 . S
O589 Li531 1.961 . S
O589 C538 1.325 . S
O590 Li528 1.961 . S
O590 Li530 1.956 . S
O590 Li531 1.970 . S
O590 C560 1.325 . S
O591 Li529 1.961 . S
O591 Li530 1.970 . S
O591 Li531 1.956 . S
O591 C566 1.325 . S
H592 C534 0.929 . S
H593 C535 0.930 . S
H594 C536 0.930 . S
H595 C537 0.930 . S
H596 C539 0.930 . S
H597 C541 0.929 . S
H598 C542 0.930 . S
H599 C543 0.930 . S
H600 C546 0.930 . S
H601 C549 0.929 . S
H602 C554 0.929 . S
H603 C555 0.930 . S
H604 C562 0.929 . S
H605 C563 0.930 . S
H606 C564 0.930 . S
H607 C565 0.930 . S
H608 C567 0.929 . S
H609 C568 0.930 . S
H610 C569 0.930 . S
H611 C570 0.930 . S
H612 C574 0.929 . S
H613 C576 0.930 . S
H614 C582 0.929 . S
H615 C583 0.930 . S
Li616 N633 1.990 . S
Li616 O676 1.956 . S
Li616 O677 1.970 . S
Li616 O678 1.961 . S
Li617 N641 1.990 1_556 S
Li617 O676 1.970 . S
Li617 O677 1.956 . S
Li617 O679 1.961 . S
Li618 N663 1.990 . S
Li618 O676 1.961 . S
Li618 O678 1.956 . S
Li618 O679 1.970 . S
Li619 N669 1.990 . S
Li619 O677 1.961 . S
Li619 O678 1.970 . S
Li619 O679 1.956 . S
C620 C622 1.348 . S
C620 C623 1.356 . S
C620 O676 1.325 1_554 S
N621 C624 1.314 . S
N621 C625 1.279 . S
C622 C620 1.348 . S
C622 C624 1.353 . S
C622 H680 0.929 . S
C623 C620 1.356 . S
C623 C625 1.358 . S
C623 H681 0.930 1_554 S
C624 N621 1.314 . S
C624 C622 1.353 . S
C624 H682 0.930 . S
C625 N621 1.279 . S
C625 C623 1.358 . S
C625 H683 0.930 . S
C626 C629 1.348 . S
C626 C630 1.356 . S
C626 O677 1.325 1_455 S
C627 N628 1.279 . S
C627 C630 1.358 . S
C627 H684 0.930 . S
N628 C627 1.279 . S
N628 C631 1.314 . S
C629 C626 1.348 . S
C629 C631 1.353 . S
C629 H685 0.929 1_455 S
C630 C626 1.356 . S
C630 C627 1.358 . S
C630 H686 0.930 . S
C631 N628 1.314 . S
C631 C629 1.353 . S
C631 H687 0.930 . S
C632 N633 1.314 . S
C632 C637 1.353 . S
C632 H638 0.930 . S
N633 Li616 1.990 . S
N633 C632 1.314 . S
N633 C635 1.279 . S
C634 C635 1.358 . S
C634 C636 1.356 . S
C634 H688 0.930 . S
C635 N633 1.279 . S
C635 C634 1.358 . S
C635 H639 0.930 . S
C636 C634 1.356 . S
C636 C637 1.348 . S
C637 C632 1.353 . S
C637 C636 1.348 . S
C637 H689 0.929 . S
H638 C632 0.930 . S
H639 C635 0.930 . S
C640 N641 1.314 . S
C640 C642 1.353 . S
C640 H646 0.930 . S
N641 Li617 1.990 1_554 S
N641 C640 1.314 . S
N641 C644 1.279 1_655 S
C642 C640 1.353 . S
C642 C645 1.348 1_655 S
C642 H690 0.929 . S
C643 C644 1.358 . S
C643 C645 1.356 . S
C643 H691 0.930 . S
C644 N641 1.279 1_455 S
C644 C643 1.358 . S
C644 H647 0.930 . S
C645 C642 1.348 1_455 S
C645 C643 1.356 . S
H646 C640 0.930 . S
H647 C644 0.930 . S
C648 C650 1.348 . S
C648 C651 1.356 . S
C648 O678 1.325 . S
N649 C652 1.314 . S
N649 C653 1.279 . S
C650 C648 1.348 . S
C650 C652 1.353 . S
C650 H692 0.929 . S
C651 C648 1.356 . S
C651 C653 1.358 . S
C651 H693 0.930 . S
C652 N649 1.314 . S
C652 C650 1.353 . S
C652 H694 0.930 . S
C653 N649 1.279 . S
C653 C651 1.358 . S
C653 H695 0.930 . S
C654 C655 1.348 . S
C654 C656 1.356 . S
C654 O679 1.325 . S
C655 C654 1.348 . S
C655 C657 1.353 . S
C655 H696 0.929 . S
C656 C654 1.356 . S
C656 C658 1.358 . S
C656 H697 0.930 . S
C657 C655 1.353 . S
C657 N659 1.314 . S
C657 H698 0.930 . S
C658 C656 1.358 . S
C658 N659 1.279 . S
C658 H699 0.930 . S
N659 C657 1.314 . S
N659 C658 1.279 . S
C660 C662 1.353 . S
C660 N663 1.314 . S
C660 H666 0.930 . S
C661 N663 1.279 . S
C661 C664 1.358 . S
C661 H667 0.930 . S
C662 C660 1.353 . S
C662 C665 1.348 . S
C662 H700 0.926 1_556 S
N663 Li618 1.990 . S
N663 C660 1.314 . S
N663 C661 1.279 . S
C664 C661 1.358 . S
C664 C665 1.356 . S
C664 H701 0.930 . S
C665 C662 1.348 . S
C665 C664 1.356 . S
H666 C660 0.930 . S
H667 C661 0.930 . S
C668 N669 1.314 . S
C668 C670 1.353 1_655 S
C668 H674 0.930 . S
N669 Li619 1.990 . S
N669 C668 1.314 . S
N669 C672 1.279 . S
C670 C668 1.353 1_455 S
C670 C673 1.348 1_455 S
C670 H702 0.929 . S
C671 C672 1.358 . S
C671 C673 1.356 . S
C671 H703 0.930 . S
C672 N669 1.279 . S
C672 C671 1.358 . S
C672 H675 0.930 . S
C673 C670 1.348 1_655 S
C673 C671 1.356 . S
H674 C668 0.930 . S
H675 C672 0.930 . S
O676 Li616 1.956 . S
O676 Li617 1.970 . S
O676 Li618 1.961 . S
O676 C620 1.325 1_556 S
O677 Li616 1.970 . S
O677 Li617 1.956 . S
O677 Li619 1.961 . S
O677 C626 1.325 1_655 S
O678 Li616 1.961 . S
O678 Li618 1.956 . S
O678 Li619 1.970 . S
O678 C648 1.325 . S
O679 Li617 1.961 . S
O679 Li618 1.970 . S
O679 Li619 1.956 . S
O679 C654 1.325 . S
H680 C622 0.929 . S
H681 C623 0.930 1_556 S
H682 C624 0.930 . S
H683 C625 0.930 . S
H684 C627 0.930 . S
H685 C629 0.929 1_655 S
H686 C630 0.930 . S
H687 C631 0.930 . S
H688 C634 0.930 . S
H689 C637 0.929 . S
H690 C642 0.929 . S
H691 C643 0.930 . S
H692 C650 0.929 . S
H693 C651 0.930 . S
H694 C652 0.930 . S
H695 C653 0.930 . S
H696 C655 0.929 . S
H697 C656 0.930 . S
H698 C657 0.930 . S
H699 C658 0.930 . S
H700 C662 0.926 1_554 S
H701 C664 0.930 . S
H702 C670 0.929 . S
H703 C671 0.930 . S
Li704 N721 1.990 . S
Li704 O764 1.956 . S
Li704 O765 1.970 . S
Li704 O766 1.961 . S
Li705 N729 1.990 . S
Li705 O764 1.970 . S
Li705 O765 1.956 . S
Li705 O767 1.961 . S
Li706 N751 1.990 . S
Li706 O764 1.961 . S
Li706 O766 1.956 . S
Li706 O767 1.970 . S
Li707 N757 1.990 . S
Li707 O765 1.961 . S
Li707 O766 1.970 . S
Li707 O767 1.956 . S
C708 C710 1.348 . S
C708 C711 1.356 . S
C708 O764 1.325 1_545 S
N709 C712 1.314 . S
N709 C713 1.279 . S
C710 C708 1.348 . S
C710 C712 1.353 . S
C710 H768 0.929 1_545 S
C711 C708 1.356 . S
C711 C713 1.358 . S
C711 H769 0.930 . S
C712 N709 1.314 . S
C712 C710 1.353 . S
C712 H770 0.930 . S
C713 N709 1.279 . S
C713 C711 1.358 . S
C713 H771 0.930 . S
C714 C717 1.348 . S
C714 C718 1.356 . S
C714 O765 1.325 . S
C715 N716 1.279 . S
C715 C718 1.358 . S
C715 H772 0.930 . S
N716 C715 1.279 . S
N716 C719 1.314 . S
C717 C714 1.348 . S
C717 C719 1.353 . S
C717 H773 0.929 . S
C718 C714 1.356 . S
C718 C715 1.358 . S
C718 H774 0.930 . S
C719 N716 1.314 . S
C719 C717 1.353 . S
C719 H775 0.930 . S
C720 N721 1.314 . S
C720 C725 1.353 . S
C720 H726 0.930 . S
N721 Li704 1.990 . S
N721 C720 1.314 . S
N721 C723 1.279 1_565 S
C722 C723 1.358 . S
C722 C724 1.356 . S
C722 H776 0.930 . S
C723 N721 1.279 1_545 S
C723 C722 1.358 . S
C723 H727 0.930 . S
C724 C722 1.356 . S
C724 C725 1.348 1_545 S
C725 C720 1.353 . S
C725 C724 1.348 1_565 S
C725 H777 0.929 . S
H726 C720 0.930 . S
H727 C723 0.930 . S
C728 N729 1.314 . S
C728 C730 1.353 . S
C728 H734 0.930 . S
N729 Li705 1.990 . S
N729 C728 1.314 . S
N729 C732 1.279 . S
C730 C728 1.353 . S
C730 C733 1.348 . S
C730 H778 0.929 . S
C731 C732 1.358 . S
C731 C733 1.356 . S
C731 H779 0.930 . S
C732 N729 1.279 . S
C732 C731 1.358 . S
C732 H735 0.930 . S
C733 C730 1.348 . S
C733 C731 1.356 . S
H734 C728 0.930 . S
H735 C732 0.930 . S
C736 C738 1.348 . S
C736 C739 1.356 . S
C736 O766 1.325 . S
N737 C740 1.314 . S
N737 C741 1.279 . S
C738 C736 1.348 . S
C738 C740 1.353 . S
C738 H780 0.929 . S
C739 C736 1.356 . S
C739 C741 1.358 . S
C739 H781 0.930 . S
C740 N737 1.314 . S
C740 C738 1.353 . S
C740 H782 0.930 . S
C741 N737 1.279 . S
C741 C739 1.358 . S
C741 H783 0.930 . S
C742 C743 1.348 . S
C742 C744 1.356 . S
C742 O767 1.325 . S
C743 C742 1.348 . S
C743 C745 1.353 . S
C743 H784 0.929 . S
C744 C742 1.356 . S
C744 C746 1.358 . S
C744 H785 0.930 . S
C745 C743 1.353 . S
C745 N747 1.314 . S
C745 H786 0.930 . S
C746 C744 1.358 . S
C746 N747 1.279 . S
C746 H787 0.930 . S
N747 C745 1.314 . S
N747 C746 1.279 . S
C748 C750 1.353 1_565 S
C748 N751 1.314 . S
C748 H754 0.930 . S
C749 N751 1.279 . S
C749 C752 1.358 . S
C749 H755 0.930 . S
C750 C748 1.353 1_545 S
C750 C753 1.348 1_545 S
C750 H788 0.929 . S
N751 Li706 1.990 . S
N751 C748 1.314 . S
N751 C749 1.279 . S
C752 C749 1.358 . S
C752 C753 1.356 . S
C752 H789 0.930 . S
C753 C750 1.348 1_565 S
C753 C752 1.356 . S
H754 C748 0.930 . S
H755 C749 0.930 . S
C756 N757 1.314 . S
C756 C758 1.353 . S
C756 H762 0.930 . S
N757 Li707 1.990 . S
N757 C756 1.314 . S
N757 C760 1.279 . S
C758 C756 1.353 . S
C758 C761 1.348 . S
C758 H790 0.929 . S
C759 C760 1.358 . S
C759 C761 1.356 . S
C759 H791 0.930 . S
C760 N757 1.279 . S
C760 C759 1.358 . S
C760 H763 0.930 . S
C761 C758 1.348 . S
C761 C759 1.356 . S
H762 C756 0.930 . S
H763 C760 0.930 . S
O764 Li704 1.956 . S
O764 Li705 1.970 . S
O764 Li706 1.961 . S
O764 C708 1.325 1_565 S
O765 Li704 1.970 . S
O765 Li705 1.956 . S
O765 Li707 1.961 . S
O765 C714 1.325 . S
O766 Li704 1.961 . S
O766 Li706 1.956 . S
O766 Li707 1.970 . S
O766 C736 1.325 . S
O767 Li705 1.961 . S
O767 Li706 1.970 . S
O767 Li707 1.956 . S
O767 C742 1.325 . S
H768 C710 0.929 1_565 S
H769 C711 0.930 . S
H770 C712 0.930 . S
H771 C713 0.930 . S
H772 C715 0.930 . S
H773 C717 0.929 . S
H774 C718 0.930 . S
H775 C719 0.930 . S
H776 C722 0.930 . S
H777 C725 0.929 . S
H778 C730 0.929 . S
H779 C731 0.930 . S
H780 C738 0.929 . S
H781 C739 0.930 . S
H782 C740 0.930 . S
H783 C741 0.930 . S
H784 C743 0.929 . S
H785 C744 0.930 . S
H786 C745 0.930 . S
H787 C746 0.930 . S
H788 C750 0.929 . S
H789 C752 0.930 . S
H790 C758 0.929 . S
H791 C759 0.930 . S
Li792 N809 1.990 . S
Li792 O852 1.956 . S
Li792 O853 1.970 . S
Li792 O854 1.961 . S
Li793 N817 1.990 . S
Li793 O852 1.970 . S
Li793 O853 1.956 . S
Li793 O855 1.961 . S
Li794 N839 1.990 . S
Li794 O852 1.961 . S
Li794 O854 1.956 . S
Li794 O855 1.970 . S
Li795 N845 1.990 . S
Li795 O853 1.961 . S
Li795 O854 1.970 . S
Li795 O855 1.956 . S
C796 C798 1.348 . S
C796 C799 1.356 . S
C796 O852 1.325 . S
N797 C800 1.314 . S
N797 C801 1.279 . S
C798 C796 1.348 . S
C798 C800 1.353 . S
C798 H856 0.929 . S
C799 C796 1.356 . S
C799 C801 1.358 . S
C799 H857 0.930 . S
C800 N797 1.314 . S
C800 C798 1.353 . S
C800 H858 0.930 . S
C801 N797 1.279 . S
C801 C799 1.358 . S
C801 H859 0.930 . S
C802 C805 1.348 . S
C802 C806 1.356 . S
C802 O853 1.325 . S
C803 N804 1.279 . S
C803 C806 1.358 . S
C803 H860 0.930 . S
N804 C803 1.279 . S
N804 C807 1.314 . S
C805 C802 1.348 . S
C805 C807 1.353 . S
C805 H861 0.929 . S
C806 C802 1.356 . S
C806 C803 1.358 . S
C806 H862 0.930 . S
C807 N804 1.314 . S
C807 C805 1.353 . S
C807 H863 0.930 . S
C808 N809 1.314 . S
C808 C813 1.353 . S
C808 H814 0.930 . S
N809 Li792 1.990 . S
N809 C808 1.314 . S
N809 C811 1.279 . S
C810 C811 1.358 . S
C810 C812 1.356 . S
C810 H864 0.930 . S
C811 N809 1.279 . S
C811 C810 1.358 . S
C811 H815 0.930 . S
C812 C810 1.356 . S
C812 C813 1.348 . S
C813 C808 1.353 . S
C813 C812 1.348 . S
C813 H865 0.929 . S
H814 C808 0.930 . S
H815 C811 0.930 . S
C816 N817 1.314 . S
C816 C818 1.353 . S
C816 H822 0.930 . S
N817 Li793 1.990 . S
N817 C816 1.314 . S
N817 C820 1.279 . S
C818 C816 1.353 . S
C818 C821 1.348 . S
C818 H866 0.929 . S
C819 C820 1.358 . S
C819 C821 1.356 . S
C819 H867 0.930 . S
C820 N817 1.279 . S
C820 C819 1.358 . S
C820 H823 0.930 . S
C821 C818 1.348 . S
C821 C819 1.356 . S
H822 C816 0.930 . S
H823 C820 0.930 . S
C824 C826 1.348 . S
C824 C827 1.356 . S
C824 O854 1.325 . S
N825 C828 1.314 . S
N825 C829 1.279 . S
C826 C824 1.348 . S
C826 C828 1.353 . S
C826 H868 0.929 . S
C827 C824 1.356 . S
C827 C829 1.358 . S
C827 H869 0.930 . S
C828 N825 1.314 . S
C828 C826 1.353 . S
C828 H870 0.930 . S
C829 N825 1.279 . S
C829 C827 1.358 . S
C829 H871 0.930 . S
C830 C831 1.348 . S
C830 C832 1.356 . S
C830 O855 1.325 . S
C831 C830 1.348 . S
C831 C833 1.353 . S
C831 H872 0.929 . S
C832 C830 1.356 . S
C832 C834 1.358 . S
C832 H873 0.930 . S
C833 C831 1.353 . S
C833 N835 1.314 . S
C833 H874 0.930 . S
C834 C832 1.358 . S
C834 N835 1.279 . S
C834 H875 0.930 . S
N835 C833 1.314 . S
N835 C834 1.279 . S
C836 C838 1.353 . S
C836 N839 1.314 . S
C836 H842 0.930 . S
C837 N839 1.279 . S
C837 C840 1.358 . S
C837 H843 0.930 . S
C838 C836 1.353 . S
C838 C841 1.348 . S
C838 H876 0.929 . S
N839 Li794 1.990 . S
N839 C836 1.314 . S
N839 C837 1.279 . S
C840 C837 1.358 . S
C840 C841 1.356 . S
C840 H877 0.930 . S
C841 C838 1.348 . S
C841 C840 1.356 . S
H842 C836 0.930 . S
H843 C837 0.930 . S
C844 N845 1.314 . S
C844 C846 1.353 . S
C844 H850 0.930 . S
N845 Li795 1.990 . S
N845 C844 1.314 . S
N845 C848 1.279 . S
C846 C844 1.353 . S
C846 C849 1.348 . S
C846 H878 0.929 . S
C847 C848 1.358 . S
C847 C849 1.356 . S
C847 H879 0.930 . S
C848 N845 1.279 . S
C848 C847 1.358 . S
C848 H851 0.930 . S
C849 C846 1.348 . S
C849 C847 1.356 . S
H850 C844 0.930 . S
H851 C848 0.930 . S
O852 Li792 1.956 . S
O852 Li793 1.970 . S
O852 Li794 1.961 . S
O852 C796 1.325 . S
O853 Li792 1.970 . S
O853 Li793 1.956 . S
O853 Li795 1.961 . S
O853 C802 1.325 . S
O854 Li792 1.961 . S
O854 Li794 1.956 . S
O854 Li795 1.970 . S
O854 C824 1.325 . S
O855 Li793 1.961 . S
O855 Li794 1.970 . S
O855 Li795 1.956 . S
O855 C830 1.325 . S
H856 C798 0.929 . S
H857 C799 0.930 . S
H858 C800 0.930 . S
H859 C801 0.930 . S
H860 C803 0.930 . S
H861 C805 0.929 . S
H862 C806 0.930 . S
H863 C807 0.930 . S
H864 C810 0.930 . S
H865 C813 0.929 . S
H866 C818 0.929 . S
H867 C819 0.930 . S
H868 C826 0.929 . S
H869 C827 0.930 . S
H870 C828 0.930 . S
H871 C829 0.930 . S
H872 C831 0.929 . S
H873 C832 0.930 . S
H874 C833 0.930 . S
H875 C834 0.930 . S
H876 C838 0.929 . S
H877 C840 0.930 . S
H878 C846 0.929 . S
H879 C847 0.930 . S
Li880 N897 1.990 . S
Li880 O940 1.956 . S
Li880 O941 1.970 . S
Li880 O942 1.961 . S
Li881 N905 1.990 1_556 S
Li881 O940 1.970 . S
Li881 O941 1.956 . S
Li881 O943 1.961 . S
Li882 N927 1.990 . S
Li882 O940 1.961 . S
Li882 O942 1.956 . S
Li882 O943 1.970 . S
Li883 N933 1.990 . S
Li883 O941 1.961 . S
Li883 O942 1.970 . S
Li883 O943 1.956 . S
C884 C886 1.348 . S
C884 C887 1.356 . S
C884 O940 1.325 1_554 S
N885 C888 1.314 . S
N885 C889 1.279 . S
C886 C884 1.348 . S
C886 C888 1.353 . S
C886 H944 0.929 . S
C887 C884 1.356 . S
C887 C889 1.358 . S
C887 H945 0.930 1_554 S
C888 N885 1.314 . S
C888 C886 1.353 . S
C888 H946 0.930 . S
C889 N885 1.279 . S
C889 C887 1.358 . S
C889 H947 0.930 . S
C890 C893 1.348 . S
C890 C894 1.356 . S
C890 O941 1.325 1_655 S
C891 N892 1.279 . S
C891 C894 1.358 . S
C891 H948 0.930 . S
N892 C891 1.279 . S
N892 C895 1.314 . S
C893 C890 1.348 . S
C893 C895 1.353 . S
C893 H949 0.929 1_655 S
C894 C890 1.356 . S
C894 C891 1.358 . S
C894 H950 0.930 . S
C895 N892 1.314 . S
C895 C893 1.353 . S
C895 H951 0.930 . S
C896 N897 1.314 . S
C896 C901 1.353 . S
C896 H902 0.930 . S
N897 Li880 1.990 . S
N897 C896 1.314 . S
N897 C899 1.279 . S
C898 C899 1.358 . S
C898 C900 1.356 . S
C898 H952 0.930 . S
C899 N897 1.279 . S
C899 C898 1.358 . S
C899 H903 0.930 . S
C900 C898 1.356 . S
C900 C901 1.348 . S
C901 C896 1.353 . S
C901 C900 1.348 . S
C901 H953 0.929 . S
H902 C896 0.930 . S
H903 C899 0.930 . S
C904 N905 1.314 . S
C904 C906 1.353 . S
C904 H910 0.930 . S
N905 Li881 1.990 1_554 S
N905 C904 1.314 . S
N905 C908 1.279 1_455 S
C906 C904 1.353 . S
C906 C909 1.348 1_455 S
C906 H954 0.929 . S
C907 C908 1.358 . S
C907 C909 1.356 . S
C907 H955 0.930 . S
C908 N905 1.279 1_655 S
C908 C907 1.358 . S
C908 H911 0.930 . S
C909 C906 1.348 1_655 S
C909 C907 1.356 . S
H910 C904 0.930 . S
H911 C908 0.930 . S
C912 C914 1.348 . S
C912 C915 1.356 . S
C912 O942 1.325 . S
N913 C916 1.314 . S
N913 C917 1.279 . S
C914 C912 1.348 . S
C914 C916 1.353 . S
C914 H956 0.929 . S
C915 C912 1.356 . S
C915 C917 1.358 . S
C915 H957 0.930 . S
C916 N913 1.314 . S
C916 C914 1.353 . S
C916 H958 0.930 . S
C917 N913 1.279 . S
C917 C915 1.358 . S
C917 H959 0.930 . S
C918 C919 1.348 . S
C918 C920 1.356 . S
C918 O943 1.325 . S
C919 C918 1.348 . S
C919 C921 1.353 . S
C919 H960 0.929 . S
C920 C918 1.356 . S
C920 C922 1.358 . S
C920 H961 0.930 . S
C921 C919 1.353 . S
C921 N923 1.314 . S
C921 H962 0.930 . S
C922 C920 1.358 . S
C922 N923 1.279 . S
C922 H963 0.930 . S
N923 C921 1.314 . S
N923 C922 1.279 . S
C924 C926 1.353 . S
C924 N927 1.314 . S
C924 H930 0.930 . S
C925 N927 1.279 . S
C925 C928 1.358 . S
C925 H931 0.930 . S
C926 C924 1.353 . S
C926 C929 1.348 . S
C926 H964 0.926 1_556 S
N927 Li882 1.990 . S
N927 C924 1.314 . S
N927 C925 1.279 . S
C928 C925 1.358 . S
C928 C929 1.356 . S
C928 H965 0.930 . S
C929 C926 1.348 . S
C929 C928 1.356 . S
H930 C924 0.930 . S
H931 C925 0.930 . S
C932 N933 1.314 . S
C932 C934 1.353 1_455 S
C932 H938 0.930 . S
N933 Li883 1.990 . S
N933 C932 1.314 . S
N933 C936 1.279 . S
C934 C932 1.353 1_655 S
C934 C937 1.348 1_655 S
C934 H966 0.929 . S
C935 C936 1.358 . S
C935 C937 1.356 . S
C935 H967 0.930 . S
C936 N933 1.279 . S
C936 C935 1.358 . S
C936 H939 0.930 . S
C937 C934 1.348 1_455 S
C937 C935 1.356 . S
H938 C932 0.930 . S
H939 C936 0.930 . S
O940 Li880 1.956 . S
O940 Li881 1.970 . S
O940 Li882 1.961 . S
O940 C884 1.325 1_556 S
O941 Li880 1.970 . S
O941 Li881 1.956 . S
O941 Li883 1.961 . S
O941 C890 1.325 1_455 S
O942 Li880 1.961 . S
O942 Li882 1.956 . S
O942 Li883 1.970 . S
O942 C912 1.325 . S
O943 Li881 1.961 . S
O943 Li882 1.970 . S
O943 Li883 1.956 . S
O943 C918 1.325 . S
H944 C886 0.929 . S
H945 C887 0.930 1_556 S
H946 C888 0.930 . S
H947 C889 0.930 . S
H948 C891 0.930 . S
H949 C893 0.929 1_455 S
H950 C894 0.930 . S
H951 C895 0.930 . S
H952 C898 0.930 . S
H953 C901 0.929 . S
H954 C906 0.929 . S
H955 C907 0.930 . S
H956 C914 0.929 . S
H957 C915 0.930 . S
H958 C916 0.930 . S
H959 C917 0.930 . S
H960 C919 0.929 . S
H961 C920 0.930 . S
H962 C921 0.930 . S
H963 C922 0.930 . S
H964 C926 0.926 1_554 S
H965 C928 0.930 . S
H966 C934 0.929 . S
H967 C935 0.930 . S
Li968 N985 1.990 . S
Li968 O1028 1.956 . S
Li968 O1029 1.970 . S
Li968 O1030 1.961 . S
Li969 N993 1.990 . S
Li969 O1028 1.970 . S
Li969 O1029 1.956 . S
Li969 O1031 1.961 . S
Li970 N1015 1.990 . S
Li970 O1028 1.961 . S
Li970 O1030 1.956 . S
Li970 O1031 1.970 . S
Li971 N1021 1.990 . S
Li971 O1029 1.961 . S
Li971 O1030 1.970 . S
Li971 O1031 1.956 . S
C972 C974 1.348 . S
C972 C975 1.356 . S
C972 O1028 1.325 . S
N973 C976 1.314 . S
N973 C977 1.279 . S
C974 C972 1.348 . S
C974 C976 1.353 . S
C974 H1032 0.929 . S
C975 C972 1.356 . S
C975 C977 1.358 . S
C975 H1033 0.930 . S
C976 N973 1.314 . S
C976 C974 1.353 . S
C976 H1034 0.930 . S
C977 N973 1.279 . S
C977 C975 1.358 . S
C977 H1035 0.930 . S
C978 C981 1.348 . S
C978 C982 1.356 . S
C978 O1029 1.325 1_565 S
C979 N980 1.279 . S
C979 C982 1.358 . S
C979 H1036 0.930 . S
N980 C979 1.279 . S
N980 C983 1.314 . S
C981 C978 1.348 . S
C981 C983 1.353 . S
C981 H1037 0.929 1_565 S
C982 C978 1.356 . S
C982 C979 1.358 . S
C982 H1038 0.930 . S
C983 N980 1.314 . S
C983 C981 1.353 . S
C983 H1039 0.930 . S
C984 N985 1.314 . S
C984 C989 1.353 . S
C984 H990 0.930 . S
N985 Li968 1.990 . S
N985 C984 1.314 . S
N985 C987 1.279 . S
C986 C987 1.358 . S
C986 C988 1.356 . S
C986 H1040 0.930 . S
C987 N985 1.279 . S
C987 C986 1.358 . S
C987 H991 0.930 . S
C988 C986 1.356 . S
C988 C989 1.348 . S
C989 C984 1.353 . S
C989 C988 1.348 . S
C989 H1041 0.929 . S
H990 C984 0.930 . S
H991 C987 0.930 . S
C992 N993 1.314 . S
C992 C994 1.353 . S
C992 H998 0.930 . S
N993 Li969 1.990 . S
N993 C992 1.314 . S
N993 C996 1.279 1_545 S
C994 C992 1.353 . S
C994 C997 1.348 1_545 S
C994 H1042 0.929 . S
C995 C996 1.358 . S
C995 C997 1.356 . S
C995 H1043 0.930 . S
C996 N993 1.279 1_565 S
C996 C995 1.358 . S
C996 H999 0.930 . S
C997 C994 1.348 1_565 S
C997 C995 1.356 . S
H998 C992 0.930 . S
H999 C996 0.930 . S
C1000 C1002 1.348 . S
C1000 C1003 1.356 . S
C1000 O1030 1.325 . S
N1001 C1004 1.314 . S
N1001 C1005 1.279 . S
C1002 C1000 1.348 . S
C1002 C1004 1.353 . S
C1002 H1044 0.929 . S
C1003 C1000 1.356 . S
C1003 C1005 1.358 . S
C1003 H1045 0.930 . S
C1004 N1001 1.314 . S
C1004 C1002 1.353 . S
C1004 H1046 0.930 . S
C1005 N1001 1.279 . S
C1005 C1003 1.358 . S
C1005 H1047 0.930 . S
C1006 C1007 1.348 . S
C1006 C1008 1.356 . S
C1006 O1031 1.325 . S
C1007 C1006 1.348 . S
C1007 C1009 1.353 . S
C1007 H1048 0.929 . S
C1008 C1006 1.356 . S
C1008 C1010 1.358 . S
C1008 H1049 0.930 . S
C1009 C1007 1.353 . S
C1009 N1011 1.314 . S
C1009 H1050 0.930 . S
C1010 C1008 1.358 . S
C1010 N1011 1.279 . S
C1010 H1051 0.930 . S
N1011 C1009 1.314 . S
N1011 C1010 1.279 . S
C1012 C1014 1.353 . S
C1012 N1015 1.314 . S
C1012 H1018 0.930 . S
C1013 N1015 1.279 . S
C1013 C1016 1.358 . S
C1013 H1019 0.930 . S
C1014 C1012 1.353 . S
C1014 C1017 1.348 . S
C1014 H1052 0.929 . S
N1015 Li970 1.990 . S
N1015 C1012 1.314 . S
N1015 C1013 1.279 . S
C1016 C1013 1.358 . S
C1016 C1017 1.356 . S
C1016 H1053 0.930 . S
C1017 C1014 1.348 . S
C1017 C1016 1.356 . S
H1018 C1012 0.930 . S
H1019 C1013 0.930 . S
C1020 N1021 1.314 . S
C1020 C1022 1.353 1_545 S
C1020 H1026 0.930 . S
N1021 Li971 1.990 . S
N1021 C1020 1.314 . S
N1021 C1024 1.279 . S
C1022 C1020 1.353 1_565 S
C1022 C1025 1.348 1_565 S
C1022 H1054 0.929 . S
C1023 C1024 1.358 . S
C1023 C1025 1.356 . S
C1023 H1055 0.930 . S
C1024 N1021 1.279 . S
C1024 C1023 1.358 . S
C1024 H1027 0.930 . S
C1025 C1022 1.348 1_545 S
C1025 C1023 1.356 . S
H1026 C1020 0.930 . S
H1027 C1024 0.930 . S
O1028 Li968 1.956 . S
O1028 Li969 1.970 . S
O1028 Li970 1.961 . S
O1028 C972 1.325 . S
O1029 Li968 1.970 . S
O1029 Li969 1.956 . S
O1029 Li971 1.961 . S
O1029 C978 1.325 1_545 S
O1030 Li968 1.961 . S
O1030 Li970 1.956 . S
O1030 Li971 1.970 . S
O1030 C1000 1.325 . S
O1031 Li969 1.961 . S
O1031 Li970 1.970 . S
O1031 Li971 1.956 . S
O1031 C1006 1.325 . S
H1032 C974 0.929 . S
H1033 C975 0.930 . S
H1034 C976 0.930 . S
H1035 C977 0.930 . S
H1036 C979 0.930 . S
H1037 C981 0.929 1_545 S
H1038 C982 0.930 . S
H1039 C983 0.930 . S
H1040 C986 0.930 . S
H1041 C989 0.929 . S
H1042 C994 0.929 . S
H1043 C995 0.930 . S
H1044 C1002 0.929 . S
H1045 C1003 0.930 . S
H1046 C1004 0.930 . S
H1047 C1005 0.930 . S
H1048 C1007 0.929 . S
H1049 C1008 0.930 . S
H1050 C1009 0.930 . S
H1051 C1010 0.930 . S
H1052 C1014 0.929 . S
H1053 C1016 0.930 . S
H1054 C1022 0.929 . S
H1055 C1023 0.930 . S
H1056 C1064 0.950 . S
H1057 C1069 0.950 . S
H1058 C1066 0.950 . S
H1059 C1068 0.950 . S
H1060 C1070 0.950 . S
H1061 C1072 0.950 . S
H1062 C1074 0.950 . S
H1063 C1075 0.950 . S
C1064 H1056 0.950 . S
C1064 C1065 1.386 . S
C1064 C1066 1.391 . S
C1065 C1064 1.386 . S
C1065 C1069 1.393 . S
C1066 H1058 0.950 . S
C1066 C1064 1.391 . S
C1066 C1067 1.400 . S
C1067 C1066 1.400 . S
C1067 C1068 1.398 . S
C1067 C1073 1.491 . S
C1068 H1059 0.950 . S
C1068 C1067 1.398 . S
C1068 C1069 1.391 . S
C1069 H1057 0.950 . S
C1069 C1065 1.393 . S
C1069 C1068 1.391 . S
C1070 H1060 0.950 . S
C1070 C1071 1.386 . S
C1070 C1072 1.391 . S
C1071 C1070 1.386 . S
C1071 C1075 1.393 . S
C1072 H1061 0.950 . S
C1072 C1070 1.391 . S
C1072 C1073 1.400 . S
C1073 C1067 1.491 . S
C1073 C1072 1.400 . S
C1073 C1074 1.398 . S
C1074 H1062 0.950 . S
C1074 C1073 1.398 . S
C1074 C1075 1.391 . S
C1075 H1063 0.950 . S
C1075 C1071 1.393 . S
C1075 C1074 1.391 . S
H1076 C1084 0.950 . S
H1077 C1089 0.950 . S
H1078 C1086 0.950 . S
H1079 C1088 0.950 . S
H1080 C1090 0.950 . S
H1081 C1092 0.950 . S
H1082 C1094 0.950 . S
H1083 C1095 0.950 . S
C1084 H1076 0.950 . S
C1084 C1085 1.386 1_655 S
C1084 C1086 1.391 . S
C1085 C1084 1.386 1_455 S
C1085 C1089 1.393 . S
C1086 H1078 0.950 . S
C1086 C1084 1.391 . S
C1086 C1087 1.376 1_655 S
C1087 C1086 1.376 1_455 S
C1087 C1088 1.427 . S
C1087 C1093 1.487 1_455 S
C1088 H1079 0.950 . S
C1088 C1087 1.427 . S
C1088 C1089 1.391 . S
C1089 H1077 0.950 . S
C1089 C1085 1.393 . S
C1089 C1088 1.391 . S
C1090 H1080 0.950 . S
C1090 C1091 1.386 1_455 S
C1090 C1092 1.391 . S
C1091 C1090 1.386 1_655 S
C1091 C1095 1.393 . S
C1092 H1081 0.950 . S
C1092 C1090 1.391 . S
C1092 C1093 1.376 1_455 S
C1093 C1087 1.487 1_655 S
C1093 C1092 1.376 1_655 S
C1093 C1094 1.426 . S
C1094 H1082 0.950 . S
C1094 C1093 1.426 . S
C1094 C1095 1.391 . S
C1095 H1083 0.950 . S
C1095 C1091 1.393 . S
C1095 C1094 1.391 . S
H1096 C1104 0.950 . S
H1097 C1109 0.950 . S
H1098 C1106 0.950 . S
H1099 C1108 0.950 . S
H1100 C1110 0.950 . S
H1101 C1112 0.950 . S
H1102 C1114 0.950 . S
H1103 C1115 0.950 . S
C1104 H1096 0.950 . S
C1104 C1105 1.386 . S
C1104 C1106 1.391 . S
C1105 C1104 1.386 . S
C1105 C1109 1.393 1_545 S
C1106 H1098 0.950 . S
C1106 C1104 1.391 . S
C1106 C1107 1.410 . S
C1107 C1106 1.410 . S
C1107 C1108 1.389 1_545 S
C1107 C1113 1.490 1_546 S
C1108 H1099 0.950 . S
C1108 C1107 1.389 1_565 S
C1108 C1109 1.391 . S
C1109 H1097 0.950 . S
C1109 C1105 1.393 1_565 S
C1109 C1108 1.391 . S
C1110 H1100 0.950 . S
C1110 C1111 1.386 . S
C1110 C1112 1.391 . S
C1111 C1110 1.386 . S
C1111 C1115 1.393 1_565 S
C1112 H1101 0.950 . S
C1112 C1110 1.391 . S
C1112 C1113 1.410 . S
C1113 C1107 1.490 1_564 S
C1113 C1112 1.410 . S
C1113 C1114 1.388 1_565 S
C1114 H1102 0.950 . S
C1114 C1113 1.388 1_545 S
C1114 C1115 1.391 . S
C1115 H1103 0.950 . S
C1115 C1111 1.393 1_545 S
C1115 C1114 1.391 . S
H1116 C1124 0.950 . S
H1117 C1129 0.950 . S
H1118 C1126 0.950 . S
H1119 C1128 0.950 . S
H1120 C1130 0.950 . S
H1121 C1132 0.950 . S
H1122 C1134 0.950 . S
H1123 C1135 0.950 . S
C1124 H1116 0.950 . S
C1124 C1125 1.386 . S
C1124 C1126 1.391 . S
C1125 C1124 1.386 . S
C1125 C1129 1.393 . S
C1126 H1118 0.950 . S
C1126 C1124 1.391 . S
C1126 C1127 1.400 . S
C1127 C1126 1.400 . S
C1127 C1128 1.398 . S
C1127 C1133 1.491 . S
C1128 H1119 0.950 . S
C1128 C1127 1.398 . S
C1128 C1129 1.391 . S
C1129 H1117 0.950 . S
C1129 C1125 1.393 . S
C1129 C1128 1.391 . S
C1130 H1120 0.950 . S
C1130 C1131 1.386 . S
C1130 C1132 1.391 . S
C1131 C1130 1.386 . S
C1131 C1135 1.393 . S
C1132 H1121 0.950 . S
C1132 C1130 1.391 . S
C1132 C1133 1.400 . S
C1133 C1127 1.491 . S
C1133 C1132 1.400 . S
C1133 C1134 1.398 . S
C1134 H1122 0.950 . S
C1134 C1133 1.398 . S
C1134 C1135 1.391 . S
C1135 H1123 0.950 . S
C1135 C1131 1.393 . S
C1135 C1134 1.391 . S
H1136 C1144 0.950 . S
H1137 C1149 0.950 . S
H1138 C1146 0.950 . S
H1139 C1148 0.950 . S
H1140 C1150 0.950 . S
H1141 C1152 0.950 . S
H1142 C1154 0.950 . S
H1143 C1155 0.950 . S
C1144 H1136 0.950 . S
C1144 C1145 1.386 1_655 S
C1144 C1146 1.391 . S
C1145 C1144 1.386 1_455 S
C1145 C1149 1.393 . S
C1146 H1138 0.950 . S
C1146 C1144 1.391 . S
C1146 C1147 1.400 1_655 S
C1147 C1146 1.400 1_455 S
C1147 C1148 1.398 . S
C1147 C1153 1.491 1_455 S
C1148 H1139 0.950 . S
C1148 C1147 1.398 . S
C1148 C1149 1.391 . S
C1149 H1137 0.950 . S
C1149 C1145 1.393 . S
C1149 C1148 1.391 . S
C1150 H1140 0.950 . S
C1150 C1151 1.386 1_455 S
C1150 C1152 1.391 . S
C1151 C1150 1.386 1_655 S
C1151 C1155 1.393 . S
C1152 H1141 0.950 . S
C1152 C1150 1.391 . S
C1152 C1153 1.400 1_455 S
C1153 C1147 1.491 1_655 S
C1153 C1152 1.400 1_655 S
C1153 C1154 1.398 . S
C1154 H1142 0.950 . S
C1154 C1153 1.398 . S
C1154 C1155 1.391 . S
C1155 H1143 0.950 . S
C1155 C1151 1.393 . S
C1155 C1154 1.391 . S
H1156 C1164 0.950 . S
H1157 C1169 0.950 . S
H1158 C1166 0.950 . S
H1159 C1168 0.950 . S
H1160 C1170 0.950 . S
H1161 C1172 0.950 . S
H1162 C1174 0.950 . S
H1163 C1175 0.950 . S
C1164 H1156 0.950 . S
C1164 C1165 1.386 1_565 S
C1164 C1166 1.391 . S
C1165 C1164 1.386 1_545 S
C1165 C1169 1.393 . S
C1166 H1158 0.950 . S
C1166 C1164 1.391 . S
C1166 C1167 1.400 1_565 S
C1167 C1166 1.400 1_545 S
C1167 C1168 1.406 . S
C1167 C1173 1.486 1_544 S
C1168 H1159 0.950 . S
C1168 C1167 1.406 . S
C1168 C1169 1.391 . S
C1169 H1157 0.950 . S
C1169 C1165 1.393 . S
C1169 C1168 1.391 . S
C1170 H1160 0.950 . S
C1170 C1171 1.386 1_545 S
C1170 C1172 1.391 . S
C1171 C1170 1.386 1_565 S
C1171 C1175 1.393 . S
C1172 H1161 0.950 . S
C1172 C1170 1.391 . S
C1172 C1173 1.400 1_545 S
C1173 C1167 1.486 1_566 S
C1173 C1172 1.400 1_565 S
C1173 C1174 1.406 . S
C1174 H1162 0.950 . S
C1174 C1173 1.406 . S
C1174 C1175 1.391 . S
C1175 H1163 0.950 . S
C1175 C1171 1.393 . S
C1175 C1174 1.391 . S
H1176 C1184 0.950 . S
H1177 C1189 0.950 . S
H1178 C1186 0.950 . S
H1179 C1188 0.950 . S
H1180 C1190 0.950 . S
H1181 C1192 0.950 . S
H1182 C1194 0.950 . S
H1183 C1195 0.950 . S
C1184 H1176 0.950 . S
C1184 C1185 1.386 . S
C1184 C1186 1.391 1_556 S
C1185 C1184 1.386 . S
C1185 C1189 1.393 . S
C1186 H1178 0.950 . S
C1186 C1184 1.391 1_554 S
C1186 C1187 1.400 1_554 S
C1187 C1186 1.400 1_556 S
C1187 C1188 1.398 . S
C1187 C1193 1.491 1_556 S
C1188 H1179 0.950 . S
C1188 C1187 1.398 . S
C1188 C1189 1.391 . S
C1189 H1177 0.950 . S
C1189 C1185 1.393 . S
C1189 C1188 1.391 . S
C1190 H1180 0.950 . S
C1190 C1191 1.386 . S
C1190 C1192 1.391 1_554 S
C1191 C1190 1.386 . S
C1191 C1195 1.393 . S
C1192 H1181 0.950 . S
C1192 C1190 1.391 1_556 S
C1192 C1193 1.400 1_556 S
C1193 C1187 1.491 1_554 S
C1193 C1192 1.400 1_554 S
C1193 C1194 1.398 . S
C1194 H1182 0.950 . S
C1194 C1193 1.398 . S
C1194 C1195 1.391 . S
C1195 H1183 0.950 . S
C1195 C1191 1.393 . S
C1195 C1194 1.391 . S
H1196 C1204 0.950 . S
H1197 C1209 0.950 . S
H1198 C1206 0.950 . S
H1199 C1208 0.950 . S
H1200 C1210 0.950 . S
H1201 C1212 0.950 . S
H1202 C1214 0.950 . S
H1203 C1215 0.950 . S
C1204 H1196 0.950 . S
C1204 C1205 1.386 . S
C1204 C1206 1.391 . S
C1205 C1204 1.386 . S
C1205 C1209 1.393 . S
C1206 H1198 0.950 . S
C1206 C1204 1.391 . S
C1206 C1207 1.400 . S
C1207 C1206 1.400 . S
C1207 C1208 1.398 . S
C1207 C1213 1.491 . S
C1208 H1199 0.950 . S
C1208 C1207 1.398 . S
C1208 C1209 1.391 . S
C1209 H1197 0.950 . S
C1209 C1205 1.393 . S
C1209 C1208 1.391 . S
C1210 H1200 0.950 . S
C1210 C1211 1.386 . S
C1210 C1212 1.391 . S
C1211 C1210 1.386 . S
C1211 C1215 1.393 . S
C1212 H1201 0.950 . S
C1212 C1210 1.391 . S
C1212 C1213 1.400 . S
C1213 C1207 1.491 . S
C1213 C1212 1.400 . S
C1213 C1214 1.398 . S
C1214 H1202 0.950 . S
C1214 C1213 1.398 . S
C1214 C1215 1.391 . S
C1215 H1203 0.950 . S
C1215 C1211 1.393 . S
C1215 C1214 1.391 . S
H1216 C1224 0.950 . S
H1217 C1229 0.950 . S
H1218 C1226 0.950 . S
H1219 C1228 0.950 . S
H1220 C1230 0.950 . S
H1221 C1232 0.950 . S
H1222 C1234 0.950 . S
H1223 C1235 0.950 . S
C1224 H1216 0.950 . S
C1224 C1225 1.386 . S
C1224 C1226 1.391 . S
C1225 C1224 1.386 . S
C1225 C1229 1.393 . S
C1226 H1218 0.950 . S
C1226 C1224 1.391 . S
C1226 C1227 1.400 . S
C1227 C1226 1.400 . S
C1227 C1228 1.398 . S
C1227 C1233 1.491 . S
C1228 H1219 0.950 . S
C1228 C1227 1.398 . S
C1228 C1229 1.391 . S
C1229 H1217 0.950 . S
C1229 C1225 1.393 . S
C1229 C1228 1.391 . S
C1230 H1220 0.950 . S
C1230 C1231 1.386 . S
C1230 C1232 1.391 . S
C1231 C1230 1.386 . S
C1231 C1235 1.393 . S
C1232 H1221 0.950 . S
C1232 C1230 1.391 . S
C1232 C1233 1.400 . S
C1233 C1227 1.491 . S
C1233 C1232 1.400 . S
C1233 C1234 1.398 . S
C1234 H1222 0.950 . S
C1234 C1233 1.398 . S
C1234 C1235 1.391 . S
C1235 H1223 0.950 . S
C1235 C1231 1.393 . S
C1235 C1234 1.391 . S
H1236 C1244 0.950 . S
H1237 C1249 0.950 . S
H1238 C1246 0.950 . S
H1239 C1248 0.950 1_556 S
H1240 C1250 0.950 . S
H1241 C1252 0.950 . S
H1242 C1254 0.950 1_554 S
H1243 C1255 0.950 . S
C1244 H1236 0.950 . S
C1244 C1245 1.386 . S
C1244 C1246 1.391 . S
C1245 C1244 1.386 . S
C1245 C1249 1.393 . S
C1246 H1238 0.950 . S
C1246 C1244 1.391 . S
C1246 C1247 1.400 . S
C1247 C1246 1.400 . S
C1247 C1248 1.398 . S
C1247 C1253 1.491 1_554 S
C1248 H1239 0.950 1_554 S
C1248 C1247 1.398 . S
C1248 C1249 1.391 . S
C1249 H1237 0.950 . S
C1249 C1245 1.393 . S
C1249 C1248 1.391 . S
C1250 H1240 0.950 . S
C1250 C1251 1.386 . S
C1250 C1252 1.391 . S
C1251 C1250 1.386 . S
C1251 C1255 1.393 . S
C1252 H1241 0.950 . S
C1252 C1250 1.391 . S
C1252 C1253 1.400 . S
C1253 C1247 1.491 1_556 S
C1253 C1252 1.400 . S
C1253 C1254 1.398 . S
C1254 H1242 0.950 1_556 S
C1254 C1253 1.398 . S
C1254 C1255 1.391 . S
C1255 H1243 0.950 . S
C1255 C1251 1.393 . S
C1255 C1254 1.391 . S
H1256 C1264 0.950 . S
H1257 C1269 0.950 . S
H1258 C1266 0.950 . S
H1259 C1268 0.950 . S
H1260 C1270 0.950 . S
H1261 C1272 0.950 . S
H1262 C1274 0.950 . S
H1263 C1275 0.950 . S
C1264 H1256 0.950 . S
C1264 C1265 1.386 . S
C1264 C1266 1.391 . S
C1265 C1264 1.386 . S
C1265 C1269 1.393 . S
C1266 H1258 0.950 . S
C1266 C1264 1.391 . S
C1266 C1267 1.400 . S
C1267 C1266 1.400 . S
C1267 C1268 1.398 . S
C1267 C1273 1.491 . S
C1268 H1259 0.950 . S
C1268 C1267 1.398 . S
C1268 C1269 1.391 . S
C1269 H1257 0.950 . S
C1269 C1265 1.393 . S
C1269 C1268 1.391 . S
C1270 H1260 0.950 . S
C1270 C1271 1.386 . S
C1270 C1272 1.391 . S
C1271 C1270 1.386 . S
C1271 C1275 1.393 . S
C1272 H1261 0.950 . S
C1272 C1270 1.391 . S
C1272 C1273 1.400 . S
C1273 C1267 1.491 . S
C1273 C1272 1.400 . S
C1273 C1274 1.398 . S
C1274 H1262 0.950 . S
C1274 C1273 1.398 . S
C1274 C1275 1.391 . S
C1275 H1263 0.950 . S
C1275 C1271 1.393 . S
C1275 C1274 1.391 . S
H1276 C1284 0.950 . S
H1277 C1289 0.950 . S
H1278 C1286 0.950 . S
H1279 C1288 0.950 . S
H1280 C1290 0.950 . S
H1281 C1292 0.950 . S
H1282 C1294 0.950 . S
H1283 C1295 0.950 . S
C1284 H1276 0.950 . S
C1284 C1285 1.386 . S
C1284 C1286 1.391 . S
C1285 C1284 1.386 . S
C1285 C1289 1.393 . S
C1286 H1278 0.950 . S
C1286 C1284 1.391 . S
C1286 C1287 1.400 . S
C1287 C1286 1.400 . S
C1287 C1288 1.398 . S
C1287 C1293 1.491 . S
C1288 H1279 0.950 . S
C1288 C1287 1.398 . S
C1288 C1289 1.391 . S
C1289 H1277 0.950 . S
C1289 C1285 1.393 . S
C1289 C1288 1.391 . S
C1290 H1280 0.950 . S
C1290 C1291 1.386 . S
C1290 C1292 1.391 . S
C1291 C1290 1.386 . S
C1291 C1295 1.393 . S
C1292 H1281 0.950 . S
C1292 C1290 1.391 . S
C1292 C1293 1.400 . S
C1293 C1287 1.491 . S
C1293 C1292 1.400 . S
C1293 C1294 1.398 . S
C1294 H1282 0.950 . S
C1294 C1293 1.398 . S
C1294 C1295 1.391 . S
C1295 H1283 0.950 . S
C1295 C1291 1.393 . S
C1295 C1294 1.391 . S
H1296 C1304 0.950 . S
H1297 C1309 0.950 . S
H1298 C1306 0.950 . S
H1299 C1308 0.950 . S
H1300 C1310 0.950 . S
H1301 C1312 0.950 . S
H1302 C1314 0.950 . S
H1303 C1315 0.950 . S
C1304 H1296 0.950 . S
C1304 C1305 1.386 . S
C1304 C1306 1.391 . S
C1305 C1304 1.386 . S
C1305 C1309 1.393 . S
C1306 H1298 0.950 . S
C1306 C1304 1.391 . S
C1306 C1307 1.400 . S
C1307 C1306 1.400 . S
C1307 C1308 1.398 . S
C1307 C1313 1.491 . S
C1308 H1299 0.950 . S
C1308 C1307 1.398 . S
C1308 C1309 1.391 . S
C1309 H1297 0.950 . S
C1309 C1305 1.393 . S
C1309 C1308 1.391 . S
C1310 H1300 0.950 . S
C1310 C1311 1.386 . S
C1310 C1312 1.391 . S
C1311 C1310 1.386 . S
C1311 C1315 1.393 . S
C1312 H1301 0.950 . S
C1312 C1310 1.391 . S
C1312 C1313 1.400 . S
C1313 C1307 1.491 . S
C1313 C1312 1.400 . S
C1313 C1314 1.398 . S
C1314 H1302 0.950 . S
C1314 C1313 1.398 . S
C1314 C1315 1.391 . S
C1315 H1303 0.950 . S
C1315 C1311 1.393 . S
C1315 C1314 1.391 . S
H1316 C1324 0.950 . S
H1317 C1329 0.923 1_655 S
H1318 C1326 0.950 . S
H1319 C1328 0.950 . S
H1320 C1330 0.950 . S
H1321 C1332 0.950 . S
H1322 C1334 0.950 . S
H1323 C1335 0.923 1_455 S
C1324 H1316 0.950 . S
C1324 C1325 1.386 . S
C1324 C1326 1.391 . S
C1325 C1324 1.386 . S
C1325 C1329 1.432 . S
C1326 H1318 0.950 . S
C1326 C1324 1.391 . S
C1326 C1327 1.400 . S
C1327 C1326 1.400 . S
C1327 C1328 1.398 1_455 S
C1327 C1333 1.491 1_455 S
C1328 H1319 0.950 . S
C1328 C1327 1.398 1_655 S
C1328 C1329 1.379 1_655 S
C1329 H1317 0.923 1_455 S
C1329 C1325 1.432 . S
C1329 C1328 1.379 1_455 S
C1330 H1320 0.950 . S
C1330 C1331 1.386 . S
C1330 C1332 1.391 . S
C1331 C1330 1.386 . S
C1331 C1335 1.432 . S
C1332 H1321 0.950 . S
C1332 C1330 1.391 . S
C1332 C1333 1.400 . S
C1333 C1327 1.491 1_655 S
C1333 C1332 1.400 . S
C1333 C1334 1.398 1_655 S
C1334 H1322 0.950 . S
C1334 C1333 1.398 1_455 S
C1334 C1335 1.379 1_455 S
C1335 H1323 0.923 1_655 S
C1335 C1331 1.432 . S
C1335 C1334 1.379 1_655 S
H1336 C1344 0.950 . S
H1337 C1349 0.950 . S
H1338 C1346 0.950 . S
H1339 C1348 0.950 . S
H1340 C1350 0.950 . S
H1341 C1352 0.950 . S
H1342 C1354 0.950 . S
H1343 C1355 0.950 . S
C1344 H1336 0.950 . S
C1344 C1345 1.386 . S
C1344 C1346 1.391 . S
C1345 C1344 1.386 . S
C1345 C1349 1.393 . S
C1346 H1338 0.950 . S
C1346 C1344 1.391 . S
C1346 C1347 1.400 . S
C1347 C1346 1.400 . S
C1347 C1348 1.398 . S
C1347 C1353 1.491 1_545 S
C1348 H1339 0.950 . S
C1348 C1347 1.398 . S
C1348 C1349 1.391 . S
C1349 H1337 0.950 . S
C1349 C1345 1.393 . S
C1349 C1348 1.391 . S
C1350 H1340 0.950 . S
C1350 C1351 1.386 . S
C1350 C1352 1.391 . S
C1351 C1350 1.386 . S
C1351 C1355 1.393 . S
C1352 H1341 0.950 . S
C1352 C1350 1.391 . S
C1352 C1353 1.400 . S
C1353 C1347 1.491 1_565 S
C1353 C1352 1.400 . S
C1353 C1354 1.398 . S
C1354 H1342 0.950 . S
C1354 C1353 1.398 . S
C1354 C1355 1.391 . S
C1355 H1343 0.950 . S
C1355 C1351 1.393 . S
C1355 C1354 1.391 . S
H1356 C1364 0.950 . S
H1357 C1369 0.950 . S
H1358 C1366 0.950 . S
H1359 C1368 0.950 . S
H1360 C1370 0.950 . S
H1361 C1372 0.950 . S
H1362 C1374 0.950 . S
H1363 C1375 0.950 . S
C1364 H1356 0.950 . S
C1364 C1365 1.386 . S
C1364 C1366 1.391 . S
C1365 C1364 1.386 . S
C1365 C1369 1.393 . S
C1366 H1358 0.950 . S
C1366 C1364 1.391 . S
C1366 C1367 1.400 . S
C1367 C1366 1.400 . S
C1367 C1368 1.398 . S
C1367 C1373 1.491 . S
C1368 H1359 0.950 . S
C1368 C1367 1.398 . S
C1368 C1369 1.391 . S
C1369 H1357 0.950 . S
C1369 C1365 1.393 . S
C1369 C1368 1.391 . S
C1370 H1360 0.950 . S
C1370 C1371 1.386 . S
C1370 C1372 1.391 . S
C1371 C1370 1.386 . S
C1371 C1375 1.393 . S
C1372 H1361 0.950 . S
C1372 C1370 1.391 . S
C1372 C1373 1.400 . S
C1373 C1367 1.491 . S
C1373 C1372 1.400 . S
C1373 C1374 1.398 . S
C1374 H1362 0.950 . S
C1374 C1373 1.398 . S
C1374 C1375 1.391 . S
C1375 H1363 0.950 . S
C1375 C1371 1.393 . S
C1375 C1374 1.391 . S
H1376 C1384 0.954 . S
H1377 C1389 0.950 . S
H1378 C1386 0.950 . S
H1379 C1388 0.950 . S
H1380 C1390 0.954 . S
H1381 C1392 0.950 . S
H1382 C1394 0.950 . S
H1383 C1395 0.950 . S
C1384 H1376 0.954 . S
C1384 C1385 1.377 1_455 S
C1384 C1386 1.396 . S
C1385 C1384 1.377 1_655 S
C1385 C1389 1.393 . S
C1386 H1378 0.950 . S
C1386 C1384 1.396 . S
C1386 C1387 1.400 1_455 S
C1387 C1386 1.400 1_655 S
C1387 C1388 1.398 . S
C1387 C1393 1.491 1_655 S
C1388 H1379 0.950 . S
C1388 C1387 1.398 . S
C1388 C1389 1.391 . S
C1389 H1377 0.950 . S
C1389 C1385 1.393 . S
C1389 C1388 1.391 . S
C1390 H1380 0.954 . S
C1390 C1391 1.377 1_655 S
C1390 C1392 1.396 . S
C1391 C1390 1.377 1_455 S
C1391 C1395 1.393 . S
C1392 H1381 0.950 . S
C1392 C1390 1.396 . S
C1392 C1393 1.400 1_655 S
C1393 C1387 1.491 1_455 S
C1393 C1392 1.400 1_455 S
C1393 C1394 1.398 . S
C1394 H1382 0.950 . S
C1394 C1393 1.398 . S
C1394 C1395 1.391 . S
C1395 H1383 0.950 . S
C1395 C1391 1.393 . S
C1395 C1394 1.391 . S
H1396 C1404 0.930 1_565 S
H1397 C1409 0.950 . S
H1398 C1406 0.950 . S
H1399 C1408 0.950 . S
H1400 C1410 0.930 1_545 S
H1401 C1412 0.950 . S
H1402 C1414 0.950 . S
H1403 C1415 0.950 . S
C1404 H1396 0.930 1_545 S
C1404 C1405 1.415 . S
C1404 C1406 1.383 1_545 S
C1405 C1404 1.415 . S
C1405 C1409 1.393 . S
C1406 H1398 0.950 . S
C1406 C1404 1.383 1_565 S
C1406 C1407 1.400 1_565 S
C1407 C1406 1.400 1_545 S
C1407 C1408 1.398 . S
C1407 C1413 1.491 1_545 S
C1408 H1399 0.950 . S
C1408 C1407 1.398 . S
C1408 C1409 1.391 . S
C1409 H1397 0.950 . S
C1409 C1405 1.393 . S
C1409 C1408 1.391 . S
C1410 H1400 0.930 1_565 S
C1410 C1411 1.414 . S
C1410 C1412 1.383 1_565 S
C1411 C1410 1.414 . S
C1411 C1415 1.393 . S
C1412 H1401 0.950 . S
C1412 C1410 1.383 1_545 S
C1412 C1413 1.400 1_545 S
C1413 C1407 1.491 1_565 S
C1413 C1412 1.400 1_565 S
C1413 C1414 1.398 . S
C1414 H1402 0.950 . S
C1414 C1413 1.398 . S
C1414 C1415 1.391 . S
C1415 H1403 0.950 . S
C1415 C1411 1.393 . S
C1415 C1414 1.391 . S
H1416 C1424 0.950 . S
H1417 C1429 0.950 . S
H1418 C1426 0.950 . S
H1419 C1428 0.950 . S
H1420 C1430 0.950 . S
H1421 C1432 0.950 . S
H1422 C1434 0.950 . S
H1423 C1435 0.950 . S
C1424 H1416 0.950 . S
C1424 C1425 1.386 . S
C1424 C1426 1.391 . S
C1425 C1424 1.386 . S
C1425 C1429 1.393 . S
C1426 H1418 0.950 . S
C1426 C1424 1.391 . S
C1426 C1427 1.400 . S
C1427 C1426 1.400 . S
C1427 C1428 1.398 . S
C1427 C1433 1.491 . S
C1428 H1419 0.950 . S
C1428 C1427 1.398 . S
C1428 C1429 1.391 . S
C1429 H1417 0.950 . S
C1429 C1425 1.393 . S
C1429 C1428 1.391 . S
C1430 H1420 0.950 . S
C1430 C1431 1.386 . S
C1430 C1432 1.391 . S
C1431 C1430 1.386 . S
C1431 C1435 1.393 . S
C1432 H1421 0.950 . S
C1432 C1430 1.391 . S
C1432 C1433 1.400 . S
C1433 C1427 1.491 . S
C1433 C1432 1.400 . S
C1433 C1434 1.398 . S
C1434 H1422 0.950 . S
C1434 C1433 1.398 . S
C1434 C1435 1.391 . S
C1435 H1423 0.950 . S
C1435 C1431 1.393 . S
C1435 C1434 1.391 . S
H1436 C1444 0.950 . S
H1437 C1449 0.950 . S
H1438 C1446 0.946 1_655 S
H1439 C1448 0.950 . S
H1440 C1450 0.950 . S
H1441 C1452 0.946 1_455 S
H1442 C1454 0.950 . S
H1443 C1455 0.950 . S
C1444 H1436 0.950 . S
C1444 C1445 1.386 . S
C1444 C1446 1.392 . S
C1445 C1444 1.386 . S
C1445 C1449 1.393 . S
C1446 H1438 0.946 1_455 S
C1446 C1444 1.392 . S
C1446 C1447 1.403 . S
C1447 C1446 1.403 . S
C1447 C1448 1.398 . S
C1447 C1453 1.491 1_455 S
C1448 H1439 0.950 . S
C1448 C1447 1.398 . S
C1448 C1449 1.391 . S
C1449 H1437 0.950 . S
C1449 C1445 1.393 . S
C1449 C1448 1.391 . S
C1450 H1440 0.950 . S
C1450 C1451 1.386 . S
C1450 C1452 1.392 . S
C1451 C1450 1.386 . S
C1451 C1455 1.393 . S
C1452 H1441 0.946 1_655 S
C1452 C1450 1.392 . S
C1452 C1453 1.403 . S
C1453 C1447 1.491 1_655 S
C1453 C1452 1.403 . S
C1453 C1454 1.398 . S
C1454 H1442 0.950 . S
C1454 C1453 1.398 . S
C1454 C1455 1.391 . S
C1455 H1443 0.950 . S
C1455 C1451 1.393 . S
C1455 C1454 1.391 . S
H1456 C1464 0.950 . S
H1457 C1469 0.950 . S
H1458 C1466 0.958 . S
H1459 C1468 0.950 . S
H1460 C1470 0.950 . S
H1461 C1472 0.958 . S
H1462 C1474 0.950 . S
H1463 C1475 0.950 . S
C1464 H1456 0.950 . S
C1464 C1465 1.386 . S
C1464 C1466 1.382 1_565 S
C1465 C1464 1.386 . S
C1465 C1469 1.393 . S
C1466 H1458 0.958 . S
C1466 C1464 1.382 1_545 S
C1466 C1467 1.402 1_545 S
C1467 C1466 1.402 1_565 S
C1467 C1468 1.398 . S
C1467 C1473 1.491 1_565 S
C1468 H1459 0.950 . S
C1468 C1467 1.398 . S
C1468 C1469 1.391 . S
C1469 H1457 0.950 . S
C1469 C1465 1.393 . S
C1469 C1468 1.391 . S
C1470 H1460 0.950 . S
C1470 C1471 1.386 . S
C1470 C1472 1.382 1_545 S
C1471 C1470 1.386 . S
C1471 C1475 1.393 . S
C1472 H1461 0.958 . S
C1472 C1470 1.382 1_565 S
C1472 C1473 1.402 1_565 S
C1473 C1467 1.491 1_545 S
C1473 C1472 1.402 1_545 S
C1473 C1474 1.398 . S
C1474 H1462 0.950 . S
C1474 C1473 1.398 . S
C1474 C1475 1.391 . S
C1475 H1463 0.950 . S
C1475 C1471 1.393 . S
C1475 C1474 1.391 . S
H1476 C1484 0.950 . S
H1477 C1489 0.950 . S
H1478 C1486 0.950 . S
H1479 C1488 0.950 . S
H1480 C1490 0.950 . S
H1481 C1492 0.950 . S
H1482 C1494 0.950 . S
H1483 C1495 0.950 . S
C1484 H1476 0.950 . S
C1484 C1485 1.386 . S
C1484 C1486 1.391 . S
C1485 C1484 1.386 . S
C1485 C1489 1.393 . S
C1486 H1478 0.950 . S
C1486 C1484 1.391 . S
C1486 C1487 1.400 . S
C1487 C1486 1.400 . S
C1487 C1488 1.398 . S
C1487 C1493 1.491 . S
C1488 H1479 0.950 . S
C1488 C1487 1.398 . S
C1488 C1489 1.391 . S
C1489 H1477 0.950 . S
C1489 C1485 1.393 . S
C1489 C1488 1.391 . S
C1490 H1480 0.950 . S
C1490 C1491 1.386 . S
C1490 C1492 1.391 . S
C1491 C1490 1.386 . S
C1491 C1495 1.393 . S
C1492 H1481 0.950 . S
C1492 C1490 1.391 . S
C1492 C1493 1.400 . S
C1493 C1487 1.491 . S
C1493 C1492 1.400 . S
C1493 C1494 1.398 . S
C1494 H1482 0.950 . S
C1494 C1493 1.398 . S
C1494 C1495 1.391 . S
C1495 H1483 0.950 . S
C1495 C1491 1.393 . S
C1495 C1494 1.391 . S
H1496 C1504 0.950 . S
H1497 C1509 0.950 . S
H1498 C1506 0.950 . S
H1499 C1508 0.950 . S
H1500 C1510 0.950 . S
H1501 C1512 0.950 . S
H1502 C1514 0.950 . S
H1503 C1515 0.950 . S
C1504 H1496 0.950 . S
C1504 C1505 1.386 . S
C1504 C1506 1.391 . S
C1505 C1504 1.386 . S
C1505 C1509 1.393 . S
C1506 H1498 0.950 . S
C1506 C1504 1.391 . S
C1506 C1507 1.400 . S
C1507 C1506 1.400 . S
C1507 C1508 1.398 . S
C1507 C1513 1.491 1_655 S
C1508 H1499 0.950 . S
C1508 C1507 1.398 . S
C1508 C1509 1.391 . S
C1509 H1497 0.950 . S
C1509 C1505 1.393 . S
C1509 C1508 1.391 . S
C1510 H1500 0.950 . S
C1510 C1511 1.386 . S
C1510 C1512 1.391 . S
C1511 C1510 1.386 . S
C1511 C1515 1.393 . S
C1512 H1501 0.950 . S
C1512 C1510 1.391 . S
C1512 C1513 1.400 . S
C1513 C1507 1.491 1_455 S
C1513 C1512 1.400 . S
C1513 C1514 1.398 . S
C1514 H1502 0.950 . S
C1514 C1513 1.398 . S
C1514 C1515 1.391 . S
C1515 H1503 0.950 . S
C1515 C1511 1.393 . S
C1515 C1514 1.391 . S
H1516 C1524 0.950 . S
H1517 C1529 0.950 . S
H1518 C1526 0.950 . S
H1519 C1528 0.950 1_565 S
H1520 C1530 0.950 . S
H1521 C1532 0.950 . S
H1522 C1534 0.950 1_545 S
H1523 C1535 0.950 . S
C1524 H1516 0.950 . S
C1524 C1525 1.386 . S
C1524 C1526 1.391 . S
C1525 C1524 1.386 . S
C1525 C1529 1.393 . S
C1526 H1518 0.950 . S
C1526 C1524 1.391 . S
C1526 C1527 1.400 . S
C1527 C1526 1.400 . S
C1527 C1528 1.398 . S
C1527 C1533 1.491 1_545 S
C1528 H1519 0.950 1_545 S
C1528 C1527 1.398 . S
C1528 C1529 1.391 . S
C1529 H1517 0.950 . S
C1529 C1525 1.393 . S
C1529 C1528 1.391 . S
C1530 H1520 0.950 . S
C1530 C1531 1.386 . S
C1530 C1532 1.391 . S
C1531 C1530 1.386 . S
C1531 C1535 1.393 . S
C1532 H1521 0.950 . S
C1532 C1530 1.391 . S
C1532 C1533 1.400 . S
C1533 C1527 1.491 1_565 S
C1533 C1532 1.400 . S
C1533 C1534 1.398 . S
C1534 H1522 0.950 1_565 S
C1534 C1533 1.398 . S
C1534 C1535 1.391 . S
C1535 H1523 0.950 . S
C1535 C1531 1.393 . S
C1535 C1534 1.391 . S
C1065 C29 1.575 . S
C1071 C841 1.589 . S
C1085 C108 1.591 1_455 S
C1091 C937 1.578 1_655 S
C1105 C196 1.569 1_545 S
C1111 C1025 1.579 1_565 S
C1125 C284 1.590 . S
C1131 C577 1.577 . S
C1145 C673 1.578 1_455 S
C1151 C381 1.569 1_655 S
C1165 C753 1.593 1_545 S
C1171 C469 1.587 1_565 S
C1185 C929 1.294 . S
C1191 C20 1.299 . S
C1205 C117 1.287 . S
C1211 C1017 1.293 . S
C1225 C205 1.292 . S
C1231 C585 1.285 . S
C1245 C293 1.299 . S
C1251 C665 1.296 . S
C1265 C372 1.295 . S
C1271 C761 1.289 . S
C1285 C460 1.286 . S
C1291 C849 1.293 . S
C1305 C812 0.813 . S
C1311 C57 0.804 . S
C1325 C137 0.761 . S
C1331 C909 0.739 . S
C1345 C225 0.812 . S
C1351 C997 0.808 . S
C1365 C548 0.813 . S
C1371 C313 0.801 . S
C1385 C409 0.749 . S
C1391 C645 0.777 . S
C1405 C724 0.783 . S
C1411 C497 0.807 . S
C1425 C49 1.630 . S
C1431 C321 1.631 . S
C1445 C401 1.648 . S
C1451 C145 1.649 . S
C1465 C233 1.646 . S
C1471 C489 1.647 . S
C1485 C557 1.644 . S
C1491 C821 1.643 . S
C1505 C636 1.657 . S
C1511 C900 1.657 . S
C1525 C988 1.653 . S
C1531 C733 1.652 . S
