# Generated by pormake.
# Topology umj, (4)-cn, num edge types: 1
# Building blocks:
#     Node 0, Type 0, BuildingBlock: QUQFOY_clean_sbu_1, # of connection points: 4
#     Node 1, Type 0, BuildingBlock: QUQFOY_clean_sbu_1, # of connection points: 4
#     Node 2, Type 0, BuildingBlock: QUQFOY_clean_sbu_1, # of connection points: 4
#     Node 3, Type 0, BuildingBlock: QUQFOY_clean_sbu_1, # of connection points: 4
#     Node 4, Type 0, BuildingBlock: QUQFOY_clean_sbu_1, # of connection points: 4
#     Node 5, Type 0, BuildingBlock: QUQFOY_clean_sbu_1, # of connection points: 4
#     Node 6, Type 0, BuildingBlock: QUQFOY_clean_sbu_1, # of connection points: 4
#     Node 7, Type 0, BuildingBlock: QUQFOY_clean_sbu_1, # of connection points: 4
#     Node 8, Type 0, BuildingBlock: QUQFOY_clean_sbu_1, # of connection points: 4
#     Node 9, Type 0, BuildingBlock: QUQFOY_clean_sbu_1, # of connection points: 4
#     Node 10, Type 0, BuildingBlock: QUQFOY_clean_sbu_1, # of connection points: 4
#     Node 11, Type 0, BuildingBlock: QUQFOY_clean_sbu_1, # of connection points: 4
#     Edge 12, Type (0, 0), BuildingBlock: AJUNOK_clean_linker_0, # of connection points: 2
#     Edge 13, Type (0, 0), BuildingBlock: AJUNOK_clean_linker_0, # of connection points: 2
#     Edge 14, Type (0, 0), BuildingBlock: AJUNOK_clean_linker_0, # of connection points: 2
#     Edge 15, Type (0, 0), BuildingBlock: AJUNOK_clean_linker_0, # of connection points: 2
#     Edge 16, Type (0, 0), BuildingBlock: AJUNOK_clean_linker_0, # of connection points: 2
#     Edge 17, Type (0, 0), BuildingBlock: AJUNOK_clean_linker_0, # of connection points: 2
#     Edge 18, Type (0, 0), BuildingBlock: AJUNOK_clean_linker_0, # of connection points: 2
#     Edge 19, Type (0, 0), BuildingBlock: AJUNOK_clean_linker_0, # of connection points: 2
#     Edge 20, Type (0, 0), BuildingBlock: AJUNOK_clean_linker_0, # of connection points: 2
#     Edge 21, Type (0, 0), BuildingBlock: AJUNOK_clean_linker_0, # of connection points: 2
#     Edge 22, Type (0, 0), BuildingBlock: AJUNOK_clean_linker_0, # of connection points: 2
#     Edge 23, Type (0, 0), BuildingBlock: AJUNOK_clean_linker_0, # of connection points: 2
#     Edge 24, Type (0, 0), BuildingBlock: AJUNOK_clean_linker_0, # of connection points: 2
#     Edge 25, Type (0, 0), BuildingBlock: AJUNOK_clean_linker_0, # of connection points: 2
#     Edge 26, Type (0, 0), BuildingBlock: AJUNOK_clean_linker_0, # of connection points: 2
#     Edge 27, Type (0, 0), BuildingBlock: AJUNOK_clean_linker_0, # of connection points: 2
#     Edge 28, Type (0, 0), BuildingBlock: AJUNOK_clean_linker_0, # of connection points: 2
#     Edge 29, Type (0, 0), BuildingBlock: AJUNOK_clean_linker_0, # of connection points: 2
#     Edge 30, Type (0, 0), BuildingBlock: AJUNOK_clean_linker_0, # of connection points: 2
#     Edge 31, Type (0, 0), BuildingBlock: AJUNOK_clean_linker_0, # of connection points: 2
#     Edge 32, Type (0, 0), BuildingBlock: AJUNOK_clean_linker_0, # of connection points: 2
#     Edge 33, Type (0, 0), BuildingBlock: AJUNOK_clean_linker_0, # of connection points: 2
#     Edge 34, Type (0, 0), BuildingBlock: AJUNOK_clean_linker_0, # of connection points: 2
#     Edge 35, Type (0, 0), BuildingBlock: AJUNOK_clean_linker_0, # of connection points: 2
# Relax obj value: 0.078
# Max RMSD: 0.417
# Mean RMSD: 0.261
data_MOF--net-umj--node1-QUQFOY_clean_sbu_1--edge1-AJUNOK_clean_linker_0
_symmetry_space_group_name_H-M    P1
_symmetry_Int_Tables_number       1
_symmetry_cell_setting            triclinic
loop_
_symmetry_equiv_pos_as_xyz
'x, y, z'
_cell_length_a     21.647271
_cell_length_b     21.648813
_cell_length_c     61.430557
_cell_angle_alpha  88.532856
_cell_angle_beta   91.568766
_cell_angle_gamma 119.85723
loop_
_atom_site_label
_atom_site_type_symbol
_atom_site_fract_x
_atom_site_fract_y
_atom_site_fract_z
_atom_type_partial_charge
O0 O 0.99977 0.2808 0.12859 0.0
Cd1 Cd 1.00831 0.29212 0.09615 0.0
Cd2 Cd 0.13747 0.32606 0.09893 0.0
O3 O 0.11591 0.3545 0.12993 0.0
O4 O 0.95695 0.34081 0.08213 0.0
O5 O 0.06995 0.39864 0.09252 0.0
C6 C 1.01575 0.40079 0.0844 0.0
C7 C 0.17918 0.38134 0.06457 0.0
C8 C 0.05552 0.32167 0.13947 0.0
C9 C 0.05452 0.18276 0.08716 0.0
O10 O 0.11055 0.22307 0.09804 0.0
O11 O 1.01097 0.20462 0.08153 0.0
O12 O 0.22368 0.39076 0.08041 0.0
O13 O 0.11243 0.34339 0.06846 0.0
O14 O 0.78386 1.00631 0.4624 0.0
Cd15 Cd 0.78233 1.01976 0.43003 0.0
Cd16 Cd 0.87477 0.14949 0.43323 0.0
O17 O 0.82317 0.12175 0.46417 0.0
O18 O 0.68344 0.97018 0.41569 0.0
O19 O 0.73634 0.08099 0.42708 0.0
C20 C 0.68124 0.02819 0.41847 0.0
C21 C 0.86117 0.19581 0.39928 0.0
C22 C 0.79715 0.06026 0.47355 0.0
C23 C 0.93915 0.07172 0.42058 0.0
O24 O 0.95297 0.12567 0.4318 0.0
O25 O 0.87437 0.02722 0.41518 0.0
O26 O 0.89397 0.23794 0.4154 0.0
O27 O 0.83425 0.12859 0.40272 0.0
O28 O 0.78725 0.7359 0.7973 0.0
Cd29 Cd 0.77739 0.73391 0.7647 0.0
Cd30 Cd 0.74104 0.82796 0.76511 0.0
O31 O 0.7128 0.77782 0.79663 0.0
O32 O 0.72888 0.63481 0.75127 0.0
O33 O 0.67091 0.68967 0.76046 0.0
C34 C 0.66901 0.63431 0.75267 0.0
C35 C 0.68499 0.81418 0.73061 0.0
C36 C 0.74611 0.75113 0.8073 0.0
C37 C 0.88464 0.89064 0.754 0.0
O38 O 0.84315 0.90541 0.76396 0.0
O39 O 0.86481 0.82549 0.74973 0.0
O40 O 0.67456 0.84801 0.74589 0.0
O41 O 0.72474 0.78695 0.73511 0.0
O42 O 0.07349 0.80199 0.1309 0.0
Cd43 Cd 0.05696 0.78938 0.09863 0.0
Cd44 Cd 0.92656 0.75122 0.1021 0.0
O45 O 0.95778 0.72787 0.13335 0.0
O46 O 0.10358 0.74046 0.08338 0.0
O47 O 0.99523 0.68254 0.09665 0.0
C48 C 0.04566 0.68056 0.08676 0.0
C49 C 0.87972 0.69088 0.06889 0.0
C50 C 1.01984 0.76199 0.14243 0.0
C51 C 1.00122 0.89357 0.08842 0.0
O52 O 0.94725 0.85214 0.0996 0.0
O53 O 0.04659 0.87449 0.08353 0.0
O54 O 0.83824 0.67954 0.08513 0.0
O55 O 0.94661 0.73422 0.0717 0.0
O56 O 0.335 0.08002 0.46414 0.0
Cd57 Cd 0.33309 0.06822 0.43182 0.0
Cd58 Cd 0.23928 0.93848 0.43482 0.0
O59 O 0.29159 0.96367 0.46625 0.0
O60 O 0.42975 0.11666 0.41708 0.0
O61 O 0.37734 1.00576 0.4294 0.0
C62 C 0.43096 0.0578 0.42005 0.0
C63 C 0.25311 0.89584 0.40119 0.0
C64 C 0.32011 0.02468 0.47549 0.0
C65 C 0.17519 1.01842 0.42173 0.0
O66 O 0.16105 0.9625 0.43266 0.0
O67 O 0.23995 0.0627 0.41667 0.0
O68 O 0.22086 0.85201 0.41715 0.0
O69 O 0.27834 0.96253 0.40448 0.0
O70 O 0.26415 0.28913 0.79549 0.0
Cd71 Cd 0.27893 0.28602 0.76361 0.0
Cd72 Cd 0.31555 0.19316 0.76935 0.0
O73 O 0.33785 0.24686 0.80004 0.0
O74 O 0.32879 0.38257 0.74788 0.0
O75 O 0.38625 0.33136 0.76266 0.0
C76 C 0.38878 0.38501 0.75241 0.0
C77 C 0.37617 0.20867 0.7363 0.0
C78 C 0.30373 0.2755 0.80793 0.0
C79 C 0.17327 0.12711 0.75515 0.0
O80 O 0.21427 0.11383 0.76703 0.0
O81 O 0.19362 0.1916 0.74906 0.0
O82 O 0.38709 0.17691 0.75288 0.0
O83 O 0.33287 0.23223 0.73861 0.0
O84 O 0.81225 0.06656 0.57975 0.0
Cd85 Cd 0.79815 0.04649 0.61176 0.0
Cd86 Cd 0.76029 0.91652 0.60697 0.0
O87 O 0.73895 0.95107 0.57595 0.0
O88 O 0.74831 0.0913 0.62745 0.0
O89 O 0.6911 0.98457 0.61292 0.0
C90 C 0.68858 0.03389 0.62334 0.0
C91 C 0.69905 0.86865 0.63994 0.0
C92 C 0.77297 1.01423 0.56763 0.0
C93 C 0.90202 0.98965 0.62137 0.0
O94 O 0.86094 0.9366 0.60974 0.0
O95 O 0.88284 0.03466 0.62663 0.0
O96 O 0.68741 0.82777 0.62348 0.0
O97 O 0.7432 0.93543 0.63749 0.0
O98 O 0.74455 0.77972 0.91256 0.0
Cd99 Cd 0.74445 0.76917 0.94509 0.0
Cd100 Cd 0.83812 0.73257 0.94367 0.0
O101 O 0.7863 0.70517 0.91228 0.0
O102 O 0.64612 0.72185 0.95881 0.0
O103 O 0.6987 0.66238 0.94891 0.0
C104 C 0.64393 0.66133 0.95686 0.0
C105 C 0.82501 0.67639 0.97808 0.0
C106 C 0.75857 0.73844 0.90215 0.0
C107 C 0.90177 0.87591 0.95535 0.0
O108 O 0.91585 0.83463 0.94496 0.0
O109 O 0.83691 0.85607 0.95998 0.0
O110 O 0.85833 0.66577 0.96269 0.0
O111 O 0.79789 0.71629 0.97371 0.0
O112 O 1.01145 0.76882 0.24814 0.0
Cd113 Cd 1.02787 0.76985 0.28037 0.0
Cd114 Cd 0.15725 0.86288 0.27646 0.0
O115 O 0.12712 0.81024 0.24553 0.0
O116 O 0.98141 0.67184 0.29527 0.0
O117 O 0.09095 0.72577 0.28284 0.0
C118 C 0.03992 0.67099 0.29211 0.0
C119 C 0.20412 0.84975 0.31047 0.0
C120 C 0.06464 0.78226 0.23664 0.0
C121 C 0.08036 0.92778 0.28921 0.0
O122 O 0.13397 0.94134 0.27791 0.0
O123 O 0.03608 0.86314 0.29478 0.0
O124 O 0.24588 0.88137 0.29423 0.0
O125 O 0.13695 0.82378 0.30716 0.0
O126 O 0.2896 0.99185 0.58058 0.0
Cd127 Cd 0.3003 0.99739 0.61318 0.0
Cd128 Cd 0.33458 0.12649 0.61139 0.0
O129 O 0.36445 0.10767 0.58029 0.0
O130 O 0.34844 0.94459 0.62652 0.0
O131 O 0.40652 0.05865 0.6175 0.0
C132 C 0.40846 1.00366 0.62494 0.0
C133 C 0.38889 0.16925 0.64584 0.0
C134 C 0.33093 0.04839 0.57013 0.0
C135 C 0.19094 0.04241 0.62274 0.0
O136 O 0.23129 0.09879 0.61209 0.0
O137 O 0.21284 0.99876 0.62814 0.0
O138 O 0.39767 0.21318 0.62991 0.0
O139 O 0.35293 0.10232 0.64187 0.0
O140 O 0.29694 0.25768 0.91366 0.0
Cd141 Cd 0.29571 0.27147 0.94577 0.0
Cd142 Cd 0.20198 0.30734 0.94097 0.0
O143 O 0.25424 0.33122 0.9101 0.0
O144 O 0.3932 0.32201 0.96111 0.0
O145 O 0.3395 0.37839 0.94736 0.0
C146 C 0.39391 0.3815 0.95728 0.0
C147 C 0.21637 0.36709 0.97413 0.0
C148 C 0.28202 0.29716 0.90163 0.0
C149 C 0.13769 0.16476 0.95465 0.0
O150 O 0.12352 0.2057 0.94308 0.0
O151 O 0.20252 0.18547 0.96048 0.0
O152 O 0.18444 0.37771 0.95753 0.0
O153 O 0.24142 0.32503 0.9717 0.0
O154 O 0.08727 0.32215 0.24502 0.0
Cd155 Cd 0.07799 0.32195 0.27748 0.0
Cd156 Cd 0.94791 0.22889 0.27502 0.0
O157 O 0.9712 0.28068 0.24367 0.0
O158 O 0.12893 0.41912 0.292 0.0
O159 O 1.01729 0.36801 0.28037 0.0
C160 C 0.07066 0.42165 0.28934 0.0
C161 C 0.90583 0.24343 0.30854 0.0
C162 C 0.03127 0.30759 0.23401 0.0
C163 C 1.02795 0.1645 0.28787 0.0
O164 O 0.97175 0.15044 0.27707 0.0
O165 O 0.07265 0.2293 0.29281 0.0
O166 O 0.8617 0.21043 0.29267 0.0
O167 O 0.97253 0.26891 0.30521 0.0
C168 C 0.10327 0.34479 0.19989 0.0
C169 C 0.03664 0.31876 0.20991 0.0
C170 C 0.10965 0.34891 0.17714 0.0
C171 C 0.04968 0.32695 0.16338 0.0
H172 H 0.15102 0.36025 0.20966 0.0
H173 H 0.16161 0.36671 0.17035 0.0
S174 S 0.8644 0.26368 0.1811 0.0
N175 N 0.9105 0.27712 0.20406 0.0
N176 N 0.92228 0.28497 0.16142 0.0
C177 C 0.98331 0.30452 0.17313 0.0
C178 C 0.97685 0.30042 0.19631 0.0
C179 C 0.75353 0.98114 0.50672 0.0
C180 C 0.78432 0.05035 0.49745 0.0
C181 C 0.74698 0.96961 0.52931 0.0
C182 C 0.77114 0.02674 0.54371 0.0
H183 H 0.73585 0.93514 0.49649 0.0
H184 H 0.72524 0.91558 0.53552 0.0
S185 S 0.84802 0.21777 0.5279 0.0
N186 N 0.83358 0.17636 0.50454 0.0
N187 N 0.82123 0.15498 0.54696 0.0
C188 C 0.79869 0.09599 0.53467 0.0
C189 C 0.80524 0.1077 0.51159 0.0
C190 C 0.77941 0.71226 0.84239 0.0
C191 C 0.74069 0.74068 0.83142 0.0
C192 C 0.78223 0.70853 0.86521 0.0
C193 C 0.74668 0.73327 0.87811 0.0
H194 H 0.80975 0.69446 0.83334 0.0
H195 H 0.81489 0.68866 0.87275 0.0
S196 S 0.63032 0.80405 0.85764 0.0
N197 N 0.66064 0.78792 0.83538 0.0
N198 N 0.6656 0.78083 0.87818 0.0
C199 C 0.70458 0.75827 0.86738 0.0
C200 C 0.70165 0.76195 0.84411 0.0
C201 C 0.09913 0.79946 0.1758 0.0
C202 C 0.03028 0.75886 0.16646 0.0
C203 C 0.11043 0.80417 0.19846 0.0
C204 C 0.05338 0.76871 0.21281 0.0
H205 H 0.14486 0.82981 0.16556 0.0
H206 H 0.16396 0.83816 0.20473 0.0
S207 S 0.86387 0.64805 0.19695 0.0
N208 N 0.90514 0.6773 0.17357 0.0
N209 N 0.92611 0.68579 0.21604 0.0
C210 C 0.98475 0.72485 0.20374 0.0
C211 C 0.97329 0.72 0.18064 0.0
C212 C 0.29904 0.97718 0.53589 0.0
C213 C 0.33659 0.04403 0.54611 0.0
C214 C 0.29668 0.97097 0.51316 0.0
C215 C 0.33158 0.03136 0.49956 0.0
H216 H 0.2693 0.92886 0.54548 0.0
H217 H 0.26496 0.91858 0.50622 0.0
S218 S 0.4445 0.21814 0.51799 0.0
N219 N 0.41459 0.17134 0.54075 0.0
N220 N 0.41056 0.16001 0.49811 0.0
C221 C 0.37242 0.09827 0.50956 0.0
C222 C 0.37487 0.10454 0.53277 0.0
C223 C 0.32981 0.25539 0.84674 0.0
C224 C 0.30617 0.28937 0.83167 0.0
C225 C 0.32393 0.26045 0.86924 0.0
C226 C 0.29436 0.2999 0.87774 0.0
H227 H 0.35059 0.22237 0.84114 0.0
H228 H 0.34109 0.2313 0.88003 0.0
S229 S 0.23263 0.40641 0.84525 0.0
N230 N 0.25802 0.36953 0.82693 0.0
N231 N 0.24689 0.37862 0.86913 0.0
C232 C 0.27396 0.33722 0.86288 0.0
C233 C 0.27986 0.33202 0.83992 0.0
C234 C 0.26079 0.40066 0.03401 0.0
C235 C 0.20149 0.40282 0.04174 0.0
C236 C 0.26906 0.39631 1.01162 0.0
C237 C 0.21871 0.39459 0.99619 0.0
H238 H 0.29732 0.39553 0.04531 0.0
H239 H 0.31246 0.38896 1.00649 0.0
S240 S 0.06332 0.41571 1.00799 0.0
N241 N 0.09861 0.41565 0.03217 0.0
N242 N 0.11441 0.40765 0.99011 0.0
C243 C 0.16418 0.40554 1.00358 0.0
C244 C 0.15546 0.4095 0.02639 0.0
C245 C 0.81066 0.17371 0.36151 0.0
C246 C 0.86105 0.22129 0.37666 0.0
C247 C 0.82105 0.18527 0.339 0.0
C248 C 0.88257 0.24451 0.3309 0.0
H249 H 0.76552 0.1243 0.36708 0.0
H250 H 0.78419 0.14421 0.32805 0.0
S251 S 1.02235 0.39283 0.36342 0.0
N252 N 0.96821 0.33587 0.38179 0.0
N253 N 0.98796 0.35761 0.3395 0.0
C254 C 0.92893 0.29654 0.34577 0.0
C255 C 0.91806 0.28501 0.36868 0.0
C256 C 0.66277 0.87574 0.69911 0.0
C257 C 0.66241 0.81486 0.70769 0.0
C258 C 0.66694 0.88914 0.67658 0.0
C259 C 0.67008 0.84178 0.66189 0.0
H260 H 0.66699 0.91661 0.70986 0.0
H261 H 0.67337 0.93968 0.67078 0.0
S262 S 0.6532 0.6667 0.67598 0.0
N263 N 0.65242 0.70072 0.69966 0.0
N264 N 0.65973 0.72587 0.65732 0.0
C265 C 0.66043 0.77656 0.67009 0.0
C266 C 0.65684 0.76316 0.69304 0.0
C267 C 0.90118 0.66008 0.03213 0.0
C268 C 0.8534 0.66247 0.0468 0.0
C269 C 0.88765 0.65557 1.00959 0.0
C270 C 0.82618 0.65401 1.00098 0.0
H271 H 0.95201 0.66722 0.03796 0.0
H272 H 0.92877 0.66041 0.99885 0.0
S273 S 0.67712 0.6428 0.03257 0.0
N274 N 0.73675 0.65045 0.05128 0.0
N275 N 0.71131 0.64225 1.00892 0.0
C276 C 0.77424 0.64778 1.01559 0.0
C277 C 0.7878 0.65184 0.03855 0.0
C278 C 0.18284 0.7996 0.34825 0.0
C279 C 0.23009 0.84982 0.33306 0.0
C280 C 0.19471 0.81041 0.37077 0.0
C281 C 0.2539 0.87224 0.37882 0.0
H282 H 0.13344 0.75428 0.34271 0.0
H283 H 0.15391 0.77363 0.38174 0.0
S284 S 0.40139 1.0118 0.34615 0.0
N285 N 0.34435 0.95708 0.32784 0.0
N286 N 0.36653 0.97786 0.37009 0.0
C287 C 0.30558 0.91847 0.3639 0.0
C288 C 0.2938 0.90708 0.34099 0.0
C289 C 0.4093 0.14258 0.68429 0.0
C290 C 0.40959 0.19195 0.66876 0.0
C291 C 0.4068 0.15215 0.70671 0.0
C292 C 0.40389 0.21117 0.71433 0.0
H293 H 0.40567 0.09344 0.67905 0.0
H294 H 0.40042 0.1099 0.71788 0.0
S295 S 0.41929 0.36345 0.68096 0.0
N296 N 0.41903 0.30783 0.66299 0.0
N297 N 0.41393 0.32564 0.70505 0.0
C298 C 0.41232 0.26472 0.6992 0.0
C299 C 0.41542 0.25526 0.67639 0.0
C300 C 0.0972 0.6015 0.08064 0.0
C301 C 0.03742 0.61053 0.08117 0.0
C302 C 0.08934 0.53315 0.08014 0.0
C303 C 1.02142 0.47125 0.07998 0.0
H304 H 0.15035 0.64708 0.08204 0.0
H305 H 0.13711 0.52882 0.08095 0.0
S306 S 0.84812 0.46717 0.077 0.0
N307 N 0.9081 0.5526 0.07839 0.0
N308 N 0.89356 0.42445 0.0774 0.0
C309 C 0.96138 0.47998 0.0785 0.0
C310 C 0.96935 0.54956 0.07915 0.0
C311 C 0.62245 0.10226 0.41432 0.0
C312 C 0.61676 0.03441 0.41392 0.0
C313 C 0.56189 0.11004 0.41462 0.0
C314 C 0.49327 0.05022 0.41472 0.0
H315 H 0.67426 0.14989 0.41546 0.0
H316 H 0.56911 0.16298 0.41618 0.0
S317 S 0.44861 0.86161 0.40984 0.0
N318 N 0.53655 0.90699 0.41066 0.0
N319 N 0.42271 0.92133 0.41136 0.0
C320 C 0.48666 0.98245 0.41249 0.0
C321 C 0.54839 0.9746 0.41202 0.0
C322 C 0.52131 0.442 0.75004 0.0
C323 C 0.45944 0.44807 0.74767 0.0
C324 C 0.58973 0.50224 0.7499 0.0
C325 C 0.59894 0.57096 0.74756 0.0
H326 H 0.51691 0.39044 0.75304 0.0
H327 H 0.63527 0.49507 0.75306 0.0
S328 S 0.45566 0.61548 0.73692 0.0
N329 N 0.41281 0.52795 0.73996 0.0
N330 N 0.5411 0.64115 0.73984 0.0
C331 C 0.53796 0.57742 0.74338 0.0
C332 C 0.4683 0.51599 0.74335 0.0
C333 C 0.54072 0.07693 0.62982 0.0
C334 C 0.47882 1.00904 0.62941 0.0
C335 C 0.60912 0.08486 0.62954 0.0
C336 C 0.61823 0.02518 0.62867 0.0
H337 H 0.53643 0.12472 0.62929 0.0
H338 H 0.65477 0.13808 0.6286 0.0
S339 S 0.47473 0.83569 0.63123 0.0
N340 N 0.43196 0.88108 0.63103 0.0
N341 N 0.56023 0.89578 0.63043 0.0
C342 C 0.55717 0.957 0.63007 0.0
C343 C 0.48752 0.94894 0.6305 0.0
C344 C 0.52539 0.46107 0.96276 0.0
C345 C 0.45658 0.4522 0.96214 0.0
C346 C 0.58583 0.52935 0.9625 0.0
C347 C 0.57988 0.59145 0.96176 0.0
H348 H 0.53273 0.41518 0.96206 0.0
H349 H 0.63766 0.53332 0.96186 0.0
S350 S 0.41156 0.59673 0.96395 0.0
N351 N 0.3859 0.51103 0.96376 0.0
N352 N 0.49945 0.63907 0.96328 0.0
C353 C 0.51151 0.5832 0.96307 0.0
C354 C 0.4499 0.51365 0.96322 0.0
C355 C 0.98809 0.53898 0.29555 0.0
C356 C 0.04773 0.60759 0.2967 0.0
C357 C 0.99624 0.47873 0.29457 0.0
C358 C 0.06427 0.4847 0.29484 0.0
H359 H 0.93503 0.53199 0.29393 0.0
H360 H 0.94871 0.42727 0.29256 0.0
S361 S 0.23671 0.65171 0.3019 0.0
N362 N 0.17661 0.67751 0.30118 0.0
N363 N 0.19171 0.56427 0.29935 0.0
C364 C 0.12392 0.55245 0.29799 0.0
C365 C 0.11567 0.61389 0.29887 0.0
C366 C 0.09595 0.09456 0.08293 0.0
C367 C 0.03933 0.10932 0.08262 0.0
C368 C 0.08343 0.02439 0.08301 0.0
C369 C 1.01373 0.96617 0.08311 0.0
H370 H 0.1506 0.13759 0.08409 0.0
H371 H 0.12862 1.01584 0.08446 0.0
S372 S 0.847 0.97546 0.07916 0.0
N373 N 0.91108 0.05958 0.07986 0.0
N374 N 0.88736 0.92774 0.08027 0.0
C375 C 0.95673 0.98013 0.08119 0.0
C376 C 0.96955 0.05166 0.08083 0.0
C377 C 0.98723 0.98887 0.41642 0.0
C378 C 0.99838 0.05855 0.41578 0.0
C379 C 0.045 0.97638 0.41696 0.0
C380 C 0.11609 0.03302 0.41655 0.0
H381 H 0.93388 0.94385 0.41801 0.0
H382 H 0.03382 0.92185 0.41869 0.0
S383 S 0.17295 0.22499 0.41118 0.0
N384 N 0.08518 0.18463 0.4121 0.0
N385 N 0.19351 0.16106 0.41283 0.0
C386 C 0.12757 0.10262 0.414 0.0
C387 C 0.06878 0.11538 0.41373 0.0
C388 C 0.08615 0.99638 0.75222 0.0
C389 C 0.10041 0.0674 0.75006 0.0
C390 C 1.01618 0.93851 0.75167 0.0
C391 C 0.95765 0.94946 0.74926 0.0
H392 H 0.12929 0.9854 0.75531 0.0
H393 H 1.00785 0.88536 0.75462 0.0
S394 S 0.96567 0.12341 0.73976 0.0
N395 N 0.04984 0.14422 0.74285 0.0
N396 N 0.91855 0.0358 0.74211 0.0
C397 C 0.97124 1.01963 0.7455 0.0
C398 C 0.04252 0.07849 0.74579 0.0
C399 C 0.03274 0.07133 0.6273 0.0
C400 C 0.97444 1.00172 0.62677 0.0
C401 C 0.10287 0.08374 0.62739 0.0
C402 C 0.11749 0.02706 0.62729 0.0
H403 H 1.0243 0.11662 0.62616 0.0
H404 H 0.146 0.1384 0.62656 0.0
S405 S 0.98333 0.83471 0.62958 0.0
N406 N 0.93573 0.87522 0.62878 0.0
N407 N 0.06752 0.89871 0.62923 0.0
C408 C 0.05973 0.95725 0.62867 0.0
C409 C 0.98824 0.94457 0.62829 0.0
C410 C 0.94965 1.00722 0.95854 0.0
C411 C 0.9609 0.94875 0.96018 0.0
C412 C 1.00735 0.07726 0.95812 0.0
C413 C 0.07853 0.09165 0.95966 0.0
H414 H 0.89628 0.99885 0.95609 0.0
H415 H 0.99606 0.1204 0.95562 0.0
S416 S 0.13565 0.95703 0.96786 0.0
N417 N 0.04791 0.90976 0.96596 0.0
N418 N 0.15605 0.04122 0.96546 0.0
C419 C 0.09007 0.03377 0.96317 0.0
C420 C 0.03135 0.96241 0.96332 0.0
C421 C 0.99778 0.97629 0.29323 0.0
C422 C 0.06738 0.98719 0.29398 0.0
C423 C 0.98552 0.03421 0.29262 0.0
C424 C 0.04232 0.10524 0.29305 0.0
H425 H 0.95265 0.92299 0.29162 0.0
H426 H 0.93105 0.02318 0.29082 0.0
S427 S 0.23417 0.1615 0.29868 0.0
N428 N 0.19355 0.07372 0.29777 0.0
N429 N 0.17043 0.18233 0.29691 0.0
C430 C 0.11184 0.11648 0.2957 0.0
C431 C 0.12437 0.05753 0.29604 0.0
loop_
_geom_bond_atom_site_label_1
_geom_bond_atom_site_label_2
_geom_bond_distance
_geom_bond_site_symmetry_2
_ccdc_geom_bond_type
O0 Cd1 2.223 . S
O0 C8 1.315 1_655 S
Cd1 O0 2.223 . S
Cd1 O4 2.297 . S
Cd1 O5 2.439 . S
Cd1 O11 2.240 . S
Cd2 O3 2.240 . S
Cd2 O10 2.223 . S
Cd2 O12 2.297 . S
Cd2 O13 2.439 . S
O3 Cd2 2.240 . S
O3 C8 1.279 . S
O4 Cd1 2.297 . S
O4 C6 1.247 . S
O5 Cd1 2.439 . S
O5 C6 1.208 . S
C6 O4 1.247 . S
C6 O5 1.208 . S
C7 O12 1.247 . S
C7 O13 1.208 . S
C8 O0 1.315 1_455 S
C8 O3 1.279 . S
C9 O10 1.315 1_655 S
C9 O11 1.279 . S
O10 Cd2 2.223 . S
O10 C9 1.315 1_455 S
O11 Cd1 2.240 . S
O11 C9 1.279 . S
O12 Cd2 2.297 . S
O12 C7 1.247 . S
O13 Cd2 2.439 . S
O13 C7 1.208 . S
O14 Cd15 2.223 . S
O14 C22 1.315 . S
Cd15 O14 2.223 . S
Cd15 O18 2.297 . S
Cd15 O19 2.439 . S
Cd15 O25 2.240 . S
Cd16 O17 2.240 . S
Cd16 O24 2.223 1_655 S
Cd16 O26 2.297 1_655 S
Cd16 O27 2.439 . S
O17 Cd16 2.240 . S
O17 C22 1.279 . S
O18 Cd15 2.297 . S
O18 C20 1.247 . S
O19 Cd15 2.439 . S
O19 C20 1.208 . S
C20 O18 1.247 . S
C20 O19 1.208 . S
C21 O26 1.247 1_655 S
C21 O27 1.208 . S
C22 O14 1.315 . S
C22 O17 1.279 . S
C23 O24 1.315 1_655 S
C23 O25 1.279 . S
O24 Cd16 2.223 1_455 S
O24 C23 1.315 1_455 S
O25 Cd15 2.240 . S
O25 C23 1.279 . S
O26 Cd16 2.297 1_455 S
O26 C21 1.247 1_455 S
O27 Cd16 2.439 . S
O27 C21 1.208 . S
O28 Cd29 2.223 . S
O28 C36 1.315 . S
Cd29 O28 2.223 . S
Cd29 O32 2.297 . S
Cd29 O33 2.439 . S
Cd29 O39 2.240 . S
Cd30 O31 2.240 . S
Cd30 O38 2.223 . S
Cd30 O40 2.297 . S
Cd30 O41 2.439 . S
O31 Cd30 2.240 . S
O31 C36 1.279 . S
O32 Cd29 2.297 . S
O32 C34 1.247 . S
O33 Cd29 2.439 . S
O33 C34 1.208 . S
C34 O32 1.247 . S
C34 O33 1.208 . S
C35 O40 1.247 . S
C35 O41 1.208 . S
C36 O28 1.315 . S
C36 O31 1.279 . S
C37 O38 1.315 . S
C37 O39 1.279 . S
O38 Cd30 2.223 . S
O38 C37 1.315 . S
O39 Cd29 2.240 . S
O39 C37 1.279 . S
O40 Cd30 2.297 . S
O40 C35 1.247 . S
O41 Cd30 2.439 . S
O41 C35 1.208 . S
O42 Cd43 2.223 . S
O42 C50 1.315 . S
Cd43 O42 2.223 . S
Cd43 O46 2.297 . S
Cd43 O47 2.439 . S
Cd43 O53 2.240 . S
Cd44 O45 2.240 . S
Cd44 O52 2.223 . S
Cd44 O54 2.297 . S
Cd44 O55 2.439 . S
O45 Cd44 2.240 . S
O45 C50 1.279 . S
O46 Cd43 2.297 . S
O46 C48 1.247 . S
O47 Cd43 2.439 . S
O47 C48 1.208 . S
C48 O46 1.247 . S
C48 O47 1.208 . S
C49 O54 1.247 . S
C49 O55 1.208 . S
C50 O42 1.315 . S
C50 O45 1.279 . S
C51 O52 1.315 . S
C51 O53 1.279 . S
O52 Cd44 2.223 . S
O52 C51 1.315 . S
O53 Cd43 2.240 . S
O53 C51 1.279 . S
O54 Cd44 2.297 . S
O54 C49 1.247 . S
O55 Cd44 2.439 . S
O55 C49 1.208 . S
O56 Cd57 2.223 . S
O56 C64 1.315 1_545 S
Cd57 O56 2.223 . S
Cd57 O60 2.297 . S
Cd57 O61 2.439 . S
Cd57 O67 2.240 . S
Cd58 O59 2.240 . S
Cd58 O66 2.223 . S
Cd58 O68 2.297 . S
Cd58 O69 2.439 . S
O59 Cd58 2.240 . S
O59 C64 1.279 . S
O60 Cd57 2.297 . S
O60 C62 1.247 . S
O61 Cd57 2.439 . S
O61 C62 1.208 . S
C62 O60 1.247 . S
C62 O61 1.208 . S
C63 O68 1.247 . S
C63 O69 1.208 . S
C64 O56 1.315 1_565 S
C64 O59 1.279 . S
C65 O66 1.315 1_545 S
C65 O67 1.279 . S
O66 Cd58 2.223 . S
O66 C65 1.315 1_565 S
O67 Cd57 2.240 . S
O67 C65 1.279 . S
O68 Cd58 2.297 . S
O68 C63 1.247 . S
O69 Cd58 2.439 . S
O69 C63 1.208 . S
O70 Cd71 2.223 . S
O70 C78 1.315 . S
Cd71 O70 2.223 . S
Cd71 O74 2.297 . S
Cd71 O75 2.439 . S
Cd71 O81 2.240 . S
Cd72 O73 2.240 . S
Cd72 O80 2.223 1_545 S
Cd72 O82 2.297 1_545 S
Cd72 O83 2.439 . S
O73 Cd72 2.240 . S
O73 C78 1.279 . S
O74 Cd71 2.297 . S
O74 C76 1.247 . S
O75 Cd71 2.439 . S
O75 C76 1.208 . S
C76 O74 1.247 . S
C76 O75 1.208 . S
C77 O82 1.247 1_545 S
C77 O83 1.208 . S
C78 O70 1.315 . S
C78 O73 1.279 . S
C79 O80 1.315 1_545 S
C79 O81 1.279 . S
O80 Cd72 2.223 1_565 S
O80 C79 1.315 1_565 S
O81 Cd71 2.240 . S
O81 C79 1.279 . S
O82 Cd72 2.297 1_565 S
O82 C77 1.247 1_565 S
O83 Cd72 2.439 . S
O83 C77 1.208 . S
O84 Cd85 2.223 . S
O84 C92 1.315 . S
Cd85 O84 2.223 . S
Cd85 O88 2.297 . S
Cd85 O89 2.439 . S
Cd85 O95 2.240 . S
Cd86 O87 2.240 . S
Cd86 O94 2.223 . S
Cd86 O96 2.297 . S
Cd86 O97 2.439 . S
O87 Cd86 2.240 . S
O87 C92 1.279 . S
O88 Cd85 2.297 . S
O88 C90 1.247 . S
O89 Cd85 2.439 . S
O89 C90 1.208 . S
C90 O88 1.247 . S
C90 O89 1.208 . S
C91 O96 1.247 . S
C91 O97 1.208 . S
C92 O84 1.315 . S
C92 O87 1.279 . S
C93 O94 1.315 . S
C93 O95 1.279 . S
O94 Cd86 2.223 . S
O94 C93 1.315 . S
O95 Cd85 2.240 . S
O95 C93 1.279 . S
O96 Cd86 2.297 . S
O96 C91 1.247 . S
O97 Cd86 2.439 . S
O97 C91 1.208 . S
O98 Cd99 2.223 . S
O98 C106 1.315 . S
Cd99 O98 2.223 . S
Cd99 O102 2.297 . S
Cd99 O103 2.439 . S
Cd99 O109 2.240 . S
Cd100 O101 2.240 . S
Cd100 O108 2.223 . S
Cd100 O110 2.297 . S
Cd100 O111 2.439 . S
O101 Cd100 2.240 . S
O101 C106 1.279 . S
O102 Cd99 2.297 . S
O102 C104 1.247 . S
O103 Cd99 2.439 . S
O103 C104 1.208 . S
C104 O102 1.247 . S
C104 O103 1.208 . S
C105 O110 1.247 . S
C105 O111 1.208 . S
C106 O98 1.315 . S
C106 O101 1.279 . S
C107 O108 1.315 . S
C107 O109 1.279 . S
O108 Cd100 2.223 . S
O108 C107 1.315 . S
O109 Cd99 2.240 . S
O109 C107 1.279 . S
O110 Cd100 2.297 . S
O110 C105 1.247 . S
O111 Cd100 2.439 . S
O111 C105 1.208 . S
O112 Cd113 2.223 . S
O112 C120 1.315 . S
Cd113 O112 2.223 . S
Cd113 O116 2.297 . S
Cd113 O117 2.439 . S
Cd113 O123 2.240 . S
Cd114 O115 2.240 . S
Cd114 O122 2.223 1_565 S
Cd114 O124 2.297 1_565 S
Cd114 O125 2.439 . S
O115 Cd114 2.240 . S
O115 C120 1.279 . S
O116 Cd113 2.297 . S
O116 C118 1.247 . S
O117 Cd113 2.439 . S
O117 C118 1.208 . S
C118 O116 1.247 . S
C118 O117 1.208 . S
C119 O124 1.247 1_565 S
C119 O125 1.208 . S
C120 O112 1.315 . S
C120 O115 1.279 . S
C121 O122 1.315 1_565 S
C121 O123 1.279 . S
O122 Cd114 2.223 1_545 S
O122 C121 1.315 1_545 S
O123 Cd113 2.240 . S
O123 C121 1.279 . S
O124 Cd114 2.297 1_545 S
O124 C119 1.247 1_545 S
O125 Cd114 2.439 . S
O125 C119 1.208 . S
O126 Cd127 2.223 . S
O126 C134 1.315 1_565 S
Cd127 O126 2.223 . S
Cd127 O130 2.297 . S
Cd127 O131 2.439 . S
Cd127 O137 2.240 . S
Cd128 O129 2.240 . S
Cd128 O136 2.223 . S
Cd128 O138 2.297 . S
Cd128 O139 2.439 . S
O129 Cd128 2.240 . S
O129 C134 1.279 . S
O130 Cd127 2.297 . S
O130 C132 1.247 . S
O131 Cd127 2.439 . S
O131 C132 1.208 . S
C132 O130 1.247 . S
C132 O131 1.208 . S
C133 O138 1.247 . S
C133 O139 1.208 . S
C134 O126 1.315 1_545 S
C134 O129 1.279 . S
C135 O136 1.315 1_565 S
C135 O137 1.279 . S
O136 Cd128 2.223 . S
O136 C135 1.315 1_545 S
O137 Cd127 2.240 . S
O137 C135 1.279 . S
O138 Cd128 2.297 . S
O138 C133 1.247 . S
O139 Cd128 2.439 . S
O139 C133 1.208 . S
O140 Cd141 2.223 . S
O140 C148 1.315 . S
Cd141 O140 2.223 . S
Cd141 O144 2.297 . S
Cd141 O145 2.439 . S
Cd141 O151 2.240 . S
Cd142 O143 2.240 . S
Cd142 O150 2.223 1_455 S
Cd142 O152 2.297 1_455 S
Cd142 O153 2.439 . S
O143 Cd142 2.240 . S
O143 C148 1.279 . S
O144 Cd141 2.297 . S
O144 C146 1.247 . S
O145 Cd141 2.439 . S
O145 C146 1.208 . S
C146 O144 1.247 . S
C146 O145 1.208 . S
C147 O152 1.247 1_455 S
C147 O153 1.208 . S
C148 O140 1.315 . S
C148 O143 1.279 . S
C149 O150 1.315 1_455 S
C149 O151 1.279 . S
O150 Cd142 2.223 1_655 S
O150 C149 1.315 1_655 S
O151 Cd141 2.240 . S
O151 C149 1.279 . S
O152 Cd142 2.297 1_655 S
O152 C147 1.247 1_655 S
O153 Cd142 2.439 . S
O153 C147 1.208 . S
O154 Cd155 2.223 . S
O154 C162 1.315 1_455 S
Cd155 O154 2.223 . S
Cd155 O158 2.297 . S
Cd155 O159 2.439 . S
Cd155 O165 2.240 . S
Cd156 O157 2.240 . S
Cd156 O164 2.223 . S
Cd156 O166 2.297 . S
Cd156 O167 2.439 . S
O157 Cd156 2.240 . S
O157 C162 1.279 . S
O158 Cd155 2.297 . S
O158 C160 1.247 . S
O159 Cd155 2.439 . S
O159 C160 1.208 . S
C160 O158 1.247 . S
C160 O159 1.208 . S
C161 O166 1.247 . S
C161 O167 1.208 . S
C162 O154 1.315 1_655 S
C162 O157 1.279 . S
C163 O164 1.315 1_455 S
C163 O165 1.279 . S
O164 Cd156 2.223 . S
O164 C163 1.315 1_655 S
O165 Cd155 2.240 . S
O165 C163 1.279 . S
O166 Cd156 2.297 . S
O166 C161 1.247 . S
O167 Cd156 2.439 . S
O167 C161 1.208 . S
C168 C169 1.369 1_455 S
C168 C170 1.419 . S
C168 H172 0.930 . S
C169 C168 1.369 1_655 S
C169 C178 1.429 . S
C170 C168 1.419 . S
C170 C171 1.363 . S
C170 H173 0.929 . S
C171 C170 1.363 . S
C171 C177 1.428 1_455 S
H172 C168 0.930 . S
H173 C170 0.929 . S
S174 N175 1.613 . S
S174 N176 1.610 . S
N175 S174 1.613 . S
N175 C178 1.350 . S
N176 S174 1.610 . S
N176 C177 1.351 . S
C177 C171 1.428 1_655 S
C177 N176 1.351 . S
C177 C178 1.434 . S
C178 C169 1.429 . S
C178 N175 1.350 . S
C178 C177 1.434 . S
C179 C180 1.369 . S
C179 C181 1.419 1_545 S
C179 H183 0.930 . S
C180 C179 1.369 . S
C180 C189 1.429 . S
C181 C179 1.419 1_565 S
C181 C182 1.363 . S
C181 H184 0.929 . S
C182 C181 1.363 . S
C182 C188 1.428 . S
H183 C179 0.930 . S
H184 C181 0.929 . S
S185 N186 1.613 . S
S185 N187 1.610 1_545 S
N186 S185 1.613 . S
N186 C189 1.350 . S
N187 S185 1.610 1_565 S
N187 C188 1.351 . S
C188 C182 1.428 . S
C188 N187 1.351 . S
C188 C189 1.434 1_565 S
C189 C180 1.429 . S
C189 N186 1.350 . S
C189 C188 1.434 1_545 S
C190 C191 1.369 . S
C190 C192 1.419 . S
C190 H194 0.930 . S
C191 C190 1.369 . S
C191 C200 1.429 . S
C192 C190 1.419 . S
C192 C193 1.363 . S
C192 H195 0.929 . S
C193 C192 1.363 . S
C193 C199 1.428 . S
H194 C190 0.930 . S
H195 C192 0.929 . S
S196 N197 1.613 . S
S196 N198 1.610 . S
N197 S196 1.613 . S
N197 C200 1.350 . S
N198 S196 1.610 . S
N198 C199 1.351 . S
C199 C193 1.428 . S
C199 N198 1.351 . S
C199 C200 1.434 . S
C200 C191 1.429 . S
C200 N197 1.350 . S
C200 C199 1.434 . S
C201 C202 1.369 . S
C201 C203 1.419 1_655 S
C201 H205 0.930 . S
C202 C201 1.369 . S
C202 C211 1.429 . S
C203 C201 1.419 1_455 S
C203 C204 1.363 . S
C203 H206 0.929 . S
C204 C203 1.363 . S
C204 C210 1.428 . S
H205 C201 0.930 . S
H206 C203 0.929 . S
S207 N208 1.613 . S
S207 N209 1.610 1_655 S
N208 S207 1.613 . S
N208 C211 1.350 . S
N209 S207 1.610 1_455 S
N209 C210 1.351 . S
C210 C204 1.428 . S
C210 N209 1.351 . S
C210 C211 1.434 1_455 S
C211 C202 1.429 . S
C211 N208 1.350 . S
C211 C210 1.434 1_655 S
C212 C213 1.369 1_565 S
C212 C214 1.419 . S
C212 H216 0.930 . S
C213 C212 1.369 1_545 S
C213 C222 1.429 . S
C214 C212 1.419 . S
C214 C215 1.363 . S
C214 H217 0.929 . S
C215 C214 1.363 . S
C215 C221 1.428 1_565 S
H216 C212 0.930 . S
H217 C214 0.929 . S
S218 N219 1.613 . S
S218 N220 1.610 . S
N219 S218 1.613 . S
N219 C222 1.350 . S
N220 S218 1.610 . S
N220 C221 1.351 . S
C221 C215 1.428 1_545 S
C221 N220 1.351 . S
C221 C222 1.434 . S
C222 C213 1.429 . S
C222 N219 1.350 . S
C222 C221 1.434 . S
C223 C224 1.369 . S
C223 C225 1.419 . S
C223 H227 0.930 . S
C224 C223 1.369 . S
C224 C233 1.429 . S
C225 C223 1.419 . S
C225 C226 1.363 . S
C225 H228 0.929 . S
C226 C225 1.363 . S
C226 C232 1.428 . S
H227 C223 0.930 . S
H228 C225 0.929 . S
S229 N230 1.613 . S
S229 N231 1.610 . S
N230 S229 1.613 . S
N230 C233 1.350 . S
N231 S229 1.610 . S
N231 C232 1.351 . S
C232 C226 1.428 . S
C232 N231 1.351 . S
C232 C233 1.434 . S
C233 C224 1.429 . S
C233 N230 1.350 . S
C233 C232 1.434 . S
C234 C235 1.369 1_556 S
C234 C236 1.419 . S
C234 H238 0.930 . S
C235 C234 1.369 1_554 S
C235 C244 1.429 1_554 S
C236 C234 1.419 . S
C236 C237 1.363 . S
C236 H239 0.929 1_455 S
C237 C236 1.363 . S
C237 C243 1.428 . S
H238 C234 0.930 . S
H239 C236 0.929 1_655 S
S240 N241 1.613 1_556 S
S240 N242 1.610 . S
N241 S240 1.613 1_554 S
N241 C244 1.350 1_554 S
N242 S240 1.610 . S
N242 C243 1.351 . S
C243 C237 1.428 . S
C243 N242 1.351 . S
C243 C244 1.434 . S
C244 C235 1.429 1_556 S
C244 N241 1.350 1_556 S
C244 C243 1.434 . S
C245 C246 1.369 . S
C245 C247 1.419 . S
C245 H249 0.930 . S
C246 C245 1.369 . S
C246 C255 1.429 1_655 S
C247 C245 1.419 . S
C247 C248 1.363 . S
C247 H250 0.929 . S
C248 C247 1.363 . S
C248 C254 1.428 . S
H249 C245 0.930 . S
H250 C247 0.929 . S
S251 N252 1.613 . S
S251 N253 1.610 . S
N252 S251 1.613 . S
N252 C255 1.350 . S
N253 S251 1.610 . S
N253 C254 1.351 1_455 S
C254 C248 1.428 . S
C254 N253 1.351 1_655 S
C254 C255 1.434 1_655 S
C255 C246 1.429 1_455 S
C255 N252 1.350 . S
C255 C254 1.434 1_455 S
C256 C257 1.369 . S
C256 C258 1.419 . S
C256 H260 0.930 . S
C257 C256 1.369 . S
C257 C266 1.429 . S
C258 C256 1.419 . S
C258 C259 1.363 . S
C258 H261 0.929 . S
C259 C258 1.363 . S
C259 C265 1.428 . S
H260 C256 0.930 . S
H261 C258 0.929 . S
S262 N263 1.613 . S
S262 N264 1.610 . S
N263 S262 1.613 . S
N263 C266 1.350 . S
N264 S262 1.610 . S
N264 C265 1.351 . S
C265 C259 1.428 . S
C265 N264 1.351 . S
C265 C266 1.434 . S
C266 C257 1.429 . S
C266 N263 1.350 . S
C266 C265 1.434 . S
C267 C268 1.369 . S
C267 C269 1.419 1_554 S
C267 H271 0.930 . S
C268 C267 1.369 . S
C268 C277 1.429 . S
C269 C267 1.419 1_556 S
C269 C270 1.363 . S
C269 H272 0.929 . S
C270 C269 1.363 . S
C270 C276 1.428 . S
H271 C267 0.930 . S
H272 C269 0.929 . S
S273 N274 1.613 . S
S273 N275 1.610 1_554 S
N274 S273 1.613 . S
N274 C277 1.350 . S
N275 S273 1.610 1_556 S
N275 C276 1.351 . S
C276 C270 1.428 . S
C276 N275 1.351 . S
C276 C277 1.434 1_556 S
C277 C268 1.429 . S
C277 N274 1.350 . S
C277 C276 1.434 1_554 S
C278 C279 1.369 . S
C278 C280 1.419 . S
C278 H282 0.930 . S
C279 C278 1.369 . S
C279 C288 1.429 1_565 S
C280 C278 1.419 . S
C280 C281 1.363 . S
C280 H283 0.929 . S
C281 C280 1.363 . S
C281 C287 1.428 . S
H282 C278 0.930 . S
H283 C280 0.929 . S
S284 N285 1.613 . S
S284 N286 1.610 . S
N285 S284 1.613 . S
N285 C288 1.350 . S
N286 S284 1.610 . S
N286 C287 1.351 1_545 S
C287 C281 1.428 . S
C287 N286 1.351 1_565 S
C287 C288 1.434 1_565 S
C288 C279 1.429 1_545 S
C288 N285 1.350 . S
C288 C287 1.434 1_545 S
C289 C290 1.369 . S
C289 C291 1.419 . S
C289 H293 0.930 . S
C290 C289 1.369 . S
C290 C299 1.429 . S
C291 C289 1.419 . S
C291 C292 1.363 . S
C291 H294 0.929 1_545 S
C292 C291 1.363 . S
C292 C298 1.428 . S
H293 C289 0.930 . S
H294 C291 0.929 1_565 S
S295 N296 1.613 . S
S295 N297 1.610 . S
N296 S295 1.613 . S
N296 C299 1.350 . S
N297 S295 1.610 . S
N297 C298 1.351 . S
C298 C292 1.428 . S
C298 N297 1.351 . S
C298 C299 1.434 . S
C299 C290 1.429 . S
C299 N296 1.350 . S
C299 C298 1.434 . S
C300 C301 1.369 . S
C300 C302 1.419 . S
C300 H304 0.930 . S
C301 C300 1.369 . S
C301 C310 1.429 . S
C302 C300 1.419 . S
C302 C303 1.363 . S
C302 H305 0.929 . S
C303 C302 1.363 . S
C303 C309 1.428 . S
H304 C300 0.930 . S
H305 C302 0.929 . S
S306 N307 1.613 . S
S306 N308 1.610 . S
N307 S306 1.613 . S
N307 C310 1.350 . S
N308 S306 1.610 . S
N308 C309 1.351 . S
C309 C303 1.428 . S
C309 N308 1.351 . S
C309 C310 1.434 . S
C310 C301 1.429 . S
C310 N307 1.350 . S
C310 C309 1.434 . S
C311 C312 1.369 . S
C311 C313 1.419 . S
C311 H315 0.930 . S
C312 C311 1.369 . S
C312 C321 1.429 . S
C313 C311 1.419 . S
C313 C314 1.363 . S
C313 H316 0.929 . S
C314 C313 1.363 . S
C314 C320 1.428 . S
H315 C311 0.930 . S
H316 C313 0.929 . S
S317 N318 1.613 . S
S317 N319 1.610 . S
N318 S317 1.613 . S
N318 C321 1.350 1_565 S
N319 S317 1.610 . S
N319 C320 1.351 1_565 S
C320 C314 1.428 . S
C320 N319 1.351 1_545 S
C320 C321 1.434 . S
C321 C312 1.429 . S
C321 N318 1.350 1_545 S
C321 C320 1.434 . S
C322 C323 1.369 . S
C322 C324 1.419 . S
C322 H326 0.930 . S
C323 C322 1.369 . S
C323 C332 1.429 . S
C324 C322 1.419 . S
C324 C325 1.363 . S
C324 H327 0.929 . S
C325 C324 1.363 . S
C325 C331 1.428 . S
H326 C322 0.930 . S
H327 C324 0.929 . S
S328 N329 1.613 . S
S328 N330 1.610 . S
N329 S328 1.613 . S
N329 C332 1.350 . S
N330 S328 1.610 . S
N330 C331 1.351 . S
C331 C325 1.428 . S
C331 N330 1.351 . S
C331 C332 1.434 . S
C332 C323 1.429 . S
C332 N329 1.350 . S
C332 C331 1.434 . S
C333 C334 1.369 . S
C333 C335 1.419 . S
C333 H337 0.930 . S
C334 C333 1.369 . S
C334 C343 1.429 . S
C335 C333 1.419 . S
C335 C336 1.363 . S
C335 H338 0.929 . S
C336 C335 1.363 . S
C336 C342 1.428 . S
H337 C333 0.930 . S
H338 C335 0.929 . S
S339 N340 1.613 . S
S339 N341 1.610 . S
N340 S339 1.613 . S
N340 C343 1.350 . S
N341 S339 1.610 . S
N341 C342 1.351 . S
C342 C336 1.428 . S
C342 N341 1.351 . S
C342 C343 1.434 . S
C343 C334 1.429 . S
C343 N340 1.350 . S
C343 C342 1.434 . S
C344 C345 1.369 . S
C344 C346 1.419 . S
C344 H348 0.930 . S
C345 C344 1.369 . S
C345 C354 1.429 . S
C346 C344 1.419 . S
C346 C347 1.363 . S
C346 H349 0.929 . S
C347 C346 1.363 . S
C347 C353 1.428 . S
H348 C344 0.930 . S
H349 C346 0.929 . S
S350 N351 1.613 . S
S350 N352 1.610 . S
N351 S350 1.613 . S
N351 C354 1.350 . S
N352 S350 1.610 . S
N352 C353 1.351 . S
C353 C347 1.428 . S
C353 N352 1.351 . S
C353 C354 1.434 . S
C354 C345 1.429 . S
C354 N351 1.350 . S
C354 C353 1.434 . S
C355 C356 1.369 . S
C355 C357 1.419 . S
C355 H359 0.930 . S
C356 C355 1.369 . S
C356 C365 1.429 . S
C357 C355 1.419 . S
C357 C358 1.363 . S
C357 H360 0.929 . S
C358 C357 1.363 . S
C358 C364 1.428 . S
H359 C355 0.930 . S
H360 C357 0.929 . S
S361 N362 1.613 . S
S361 N363 1.610 . S
N362 S361 1.613 . S
N362 C365 1.350 . S
N363 S361 1.610 . S
N363 C364 1.351 . S
C364 C358 1.428 . S
C364 N363 1.351 . S
C364 C365 1.434 . S
C365 C356 1.429 . S
C365 N362 1.350 . S
C365 C364 1.434 . S
C366 C367 1.369 . S
C366 C368 1.419 . S
C366 H370 0.930 . S
C367 C366 1.369 . S
C367 C376 1.429 . S
C368 C366 1.419 . S
C368 C369 1.363 1_545 S
C368 H371 0.929 1_545 S
C369 C368 1.363 1_565 S
C369 C375 1.428 . S
H370 C366 0.930 . S
H371 C368 0.929 1_565 S
S372 N373 1.613 1_565 S
S372 N374 1.610 . S
N373 S372 1.613 1_545 S
N373 C376 1.350 . S
N374 S372 1.610 . S
N374 C375 1.351 . S
C375 C369 1.428 . S
C375 N374 1.351 . S
C375 C376 1.434 1_565 S
C376 C367 1.429 . S
C376 N373 1.350 . S
C376 C375 1.434 1_545 S
C377 C378 1.369 . S
C377 C379 1.419 . S
C377 H381 0.930 1_445 S
C378 C377 1.369 . S
C378 C387 1.429 . S
C379 C377 1.419 . S
C379 C380 1.363 . S
C379 H382 0.929 1_545 S
C380 C379 1.363 . S
C380 C386 1.428 . S
H381 C377 0.930 1_665 S
H382 C379 0.929 1_565 S
S383 N384 1.613 . S
S383 N385 1.610 . S
N384 S383 1.613 . S
N384 C387 1.350 . S
N385 S383 1.610 . S
N385 C386 1.351 . S
C386 C380 1.428 . S
C386 N385 1.351 . S
C386 C387 1.434 . S
C387 C378 1.429 . S
C387 N384 1.350 . S
C387 C386 1.434 . S
C388 C389 1.369 . S
C388 C390 1.419 . S
C388 H392 0.930 . S
C389 C388 1.369 . S
C389 C398 1.429 . S
C390 C388 1.419 . S
C390 C391 1.363 1_455 S
C390 H393 0.929 . S
C391 C390 1.363 1_655 S
C391 C397 1.428 . S
H392 C388 0.930 . S
H393 C390 0.929 . S
S394 N395 1.613 1_665 S
S394 N396 1.610 . S
N395 S394 1.613 1_445 S
N395 C398 1.350 1_545 S
N396 S394 1.610 . S
N396 C397 1.351 . S
C397 C391 1.428 . S
C397 N396 1.351 . S
C397 C398 1.434 1_655 S
C398 C389 1.429 . S
C398 N395 1.350 1_565 S
C398 C397 1.434 1_455 S
C399 C400 1.369 1_455 S
C399 C401 1.419 . S
C399 H403 0.930 1_455 S
C400 C399 1.369 1_655 S
C400 C409 1.429 . S
C401 C399 1.419 . S
C401 C402 1.363 . S
C401 H404 0.929 . S
C402 C401 1.363 . S
C402 C408 1.428 . S
H403 C399 0.930 1_655 S
H404 C401 0.929 . S
S405 N406 1.613 . S
S405 N407 1.610 1_655 S
N406 S405 1.613 . S
N406 C409 1.350 . S
N407 S405 1.610 1_455 S
N407 C408 1.351 . S
C408 C402 1.428 . S
C408 N407 1.351 . S
C408 C409 1.434 1_455 S
C409 C400 1.429 . S
C409 N406 1.350 . S
C409 C408 1.434 1_655 S
C410 C411 1.369 1_545 S
C410 C412 1.419 . S
C410 H414 0.930 1_545 S
C411 C410 1.369 1_565 S
C411 C420 1.429 1_565 S
C412 C410 1.419 . S
C412 C413 1.363 . S
C412 H415 0.929 . S
C413 C412 1.363 . S
C413 C419 1.428 . S
H414 C410 0.930 1_565 S
H415 C412 0.929 . S
S416 N417 1.613 . S
S416 N418 1.610 . S
N417 S416 1.613 . S
N417 C420 1.350 . S
N418 S416 1.610 . S
N418 C419 1.351 . S
C419 C413 1.428 . S
C419 N418 1.351 . S
C419 C420 1.434 . S
C420 C411 1.429 1_545 S
C420 N417 1.350 . S
C420 C419 1.434 . S
C421 C422 1.369 . S
C421 C423 1.419 . S
C421 H425 0.930 1_445 S
C422 C421 1.369 . S
C422 C431 1.429 . S
C423 C421 1.419 . S
C423 C424 1.363 . S
C423 H426 0.929 1_455 S
C424 C423 1.363 . S
C424 C430 1.428 . S
H425 C421 0.930 1_665 S
H426 C423 0.929 1_655 S
S427 N428 1.613 . S
S427 N429 1.610 . S
N428 S427 1.613 . S
N428 C431 1.350 . S
N429 S427 1.610 . S
N429 C430 1.351 . S
C430 C424 1.428 . S
C430 N429 1.351 . S
C430 C431 1.434 . S
C431 C422 1.429 . S
C431 N428 1.350 . S
C431 C430 1.434 . S
C169 C162 1.233 . S
C171 C8 1.218 . S
C180 C22 1.726 . S
C182 C92 1.726 . S
C191 C36 1.256 . S
C193 C106 1.253 . S
C202 C50 1.737 . S
C204 C120 1.714 . S
C213 C134 1.233 . S
C215 C64 1.219 . S
C224 C78 2.162 . S
C226 C148 2.171 . S
C235 C7 2.235 . S
C237 C147 2.119 . S
C246 C21 1.939 . S
C248 C161 2.003 . S
C257 C35 1.847 . S
C259 C91 1.773 . S
C268 C49 1.773 . S
C270 C105 1.848 . S
C279 C119 1.938 . S
C281 C63 2.003 . S
C290 C133 2.238 . S
C292 C77 2.113 . S
C301 C48 1.526 . S
C303 C6 1.522 . S
C312 C20 1.509 . S
C314 C62 1.505 . S
C323 C76 1.627 . S
C325 C34 1.615 . S
C334 C132 1.521 . S
C336 C90 1.527 . S
C345 C146 1.623 . S
C347 C104 1.618 . S
C356 C118 1.507 . S
C358 C160 1.503 . S
C367 C9 1.338 . S
C369 C51 1.322 . S
C378 C23 1.319 1_455 S
C380 C65 1.332 . S
C389 C79 1.374 1_565 S
C391 C37 1.376 . S
C400 C93 1.325 . S
C402 C135 1.333 . S
C411 C107 1.382 . S
C413 C149 1.365 1_655 S
C422 C121 1.317 1_545 S
C424 C163 1.334 . S
